# Generated by pormake.
# Topology whk, (6)-cn, num edge types: 1
# Building blocks:
#     Node 0, Type 0, BuildingBlock: CIFDUS_clean_sbu_1, # of connection points: 6
#     Node 1, Type 0, BuildingBlock: CIFDUS_clean_sbu_1, # of connection points: 6
#     Node 2, Type 0, BuildingBlock: CIFDUS_clean_sbu_1, # of connection points: 6
#     Node 3, Type 0, BuildingBlock: CIFDUS_clean_sbu_1, # of connection points: 6
#     Node 4, Type 0, BuildingBlock: CIFDUS_clean_sbu_1, # of connection points: 6
#     Node 5, Type 0, BuildingBlock: CIFDUS_clean_sbu_1, # of connection points: 6
#     Node 6, Type 0, BuildingBlock: CIFDUS_clean_sbu_1, # of connection points: 6
#     Node 7, Type 0, BuildingBlock: CIFDUS_clean_sbu_1, # of connection points: 6
#     Node 8, Type 0, BuildingBlock: CIFDUS_clean_sbu_1, # of connection points: 6
#     Node 9, Type 0, BuildingBlock: CIFDUS_clean_sbu_1, # of connection points: 6
#     Node 10, Type 0, BuildingBlock: CIFDUS_clean_sbu_1, # of connection points: 6
#     Node 11, Type 0, BuildingBlock: CIFDUS_clean_sbu_1, # of connection points: 6
#     Node 12, Type 0, BuildingBlock: CIFDUS_clean_sbu_1, # of connection points: 6
#     Node 13, Type 0, BuildingBlock: CIFDUS_clean_sbu_1, # of connection points: 6
#     Node 14, Type 0, BuildingBlock: CIFDUS_clean_sbu_1, # of connection points: 6
#     Node 15, Type 0, BuildingBlock: CIFDUS_clean_sbu_1, # of connection points: 6
#     Edge 16, Type (0, 0), BuildingBlock: CIFDUS_clean_linker_0, # of connection points: 2
#     Edge 17, Type (0, 0), BuildingBlock: CIFDUS_clean_linker_0, # of connection points: 2
#     Edge 18, Type (0, 0), BuildingBlock: CIFDUS_clean_linker_0, # of connection points: 2
#     Edge 19, Type (0, 0), BuildingBlock: CIFDUS_clean_linker_0, # of connection points: 2
#     Edge 20, Type (0, 0), BuildingBlock: CIFDUS_clean_linker_0, # of connection points: 2
#     Edge 21, Type (0, 0), BuildingBlock: CIFDUS_clean_linker_0, # of connection points: 2
#     Edge 22, Type (0, 0), BuildingBlock: CIFDUS_clean_linker_0, # of connection points: 2
#     Edge 23, Type (0, 0), BuildingBlock: CIFDUS_clean_linker_0, # of connection points: 2
#     Edge 24, Type (0, 0), BuildingBlock: CIFDUS_clean_linker_0, # of connection points: 2
#     Edge 25, Type (0, 0), BuildingBlock: CIFDUS_clean_linker_0, # of connection points: 2
#     Edge 26, Type (0, 0), BuildingBlock: CIFDUS_clean_linker_0, # of connection points: 2
#     Edge 27, Type (0, 0), BuildingBlock: CIFDUS_clean_linker_0, # of connection points: 2
#     Edge 28, Type (0, 0), BuildingBlock: CIFDUS_clean_linker_0, # of connection points: 2
#     Edge 29, Type (0, 0), BuildingBlock: CIFDUS_clean_linker_0, # of connection points: 2
#     Edge 30, Type (0, 0), BuildingBlock: CIFDUS_clean_linker_0, # of connection points: 2
#     Edge 31, Type (0, 0), BuildingBlock: CIFDUS_clean_linker_0, # of connection points: 2
#     Edge 32, Type (0, 0), BuildingBlock: CIFDUS_clean_linker_0, # of connection points: 2
#     Edge 33, Type (0, 0), BuildingBlock: CIFDUS_clean_linker_0, # of connection points: 2
#     Edge 34, Type (0, 0), BuildingBlock: CIFDUS_clean_linker_0, # of connection points: 2
#     Edge 35, Type (0, 0), BuildingBlock: CIFDUS_clean_linker_0, # of connection points: 2
#     Edge 36, Type (0, 0), BuildingBlock: CIFDUS_clean_linker_0, # of connection points: 2
#     Edge 37, Type (0, 0), BuildingBlock: CIFDUS_clean_linker_0, # of connection points: 2
#     Edge 38, Type (0, 0), BuildingBlock: CIFDUS_clean_linker_0, # of connection points: 2
#     Edge 39, Type (0, 0), BuildingBlock: CIFDUS_clean_linker_0, # of connection points: 2
#     Edge 40, Type (0, 0), BuildingBlock: CIFDUS_clean_linker_0, # of connection points: 2
#     Edge 41, Type (0, 0), BuildingBlock: CIFDUS_clean_linker_0, # of connection points: 2
#     Edge 42, Type (0, 0), BuildingBlock: CIFDUS_clean_linker_0, # of connection points: 2
#     Edge 43, Type (0, 0), BuildingBlock: CIFDUS_clean_linker_0, # of connection points: 2
#     Edge 44, Type (0, 0), BuildingBlock: CIFDUS_clean_linker_0, # of connection points: 2
#     Edge 45, Type (0, 0), BuildingBlock: CIFDUS_clean_linker_0, # of connection points: 2
#     Edge 46, Type (0, 0), BuildingBlock: CIFDUS_clean_linker_0, # of connection points: 2
#     Edge 47, Type (0, 0), BuildingBlock: CIFDUS_clean_linker_0, # of connection points: 2
#     Edge 48, Type (0, 0), BuildingBlock: CIFDUS_clean_linker_0, # of connection points: 2
#     Edge 49, Type (0, 0), BuildingBlock: CIFDUS_clean_linker_0, # of connection points: 2
#     Edge 50, Type (0, 0), BuildingBlock: CIFDUS_clean_linker_0, # of connection points: 2
#     Edge 51, Type (0, 0), BuildingBlock: CIFDUS_clean_linker_0, # of connection points: 2
#     Edge 52, Type (0, 0), BuildingBlock: CIFDUS_clean_linker_0, # of connection points: 2
#     Edge 53, Type (0, 0), BuildingBlock: CIFDUS_clean_linker_0, # of connection points: 2
#     Edge 54, Type (0, 0), BuildingBlock: CIFDUS_clean_linker_0, # of connection points: 2
#     Edge 55, Type (0, 0), BuildingBlock: CIFDUS_clean_linker_0, # of connection points: 2
#     Edge 56, Type (0, 0), BuildingBlock: CIFDUS_clean_linker_0, # of connection points: 2
#     Edge 57, Type (0, 0), BuildingBlock: CIFDUS_clean_linker_0, # of connection points: 2
#     Edge 58, Type (0, 0), BuildingBlock: CIFDUS_clean_linker_0, # of connection points: 2
#     Edge 59, Type (0, 0), BuildingBlock: CIFDUS_clean_linker_0, # of connection points: 2
#     Edge 60, Type (0, 0), BuildingBlock: CIFDUS_clean_linker_0, # of connection points: 2
#     Edge 61, Type (0, 0), BuildingBlock: CIFDUS_clean_linker_0, # of connection points: 2
#     Edge 62, Type (0, 0), BuildingBlock: CIFDUS_clean_linker_0, # of connection points: 2
#     Edge 63, Type (0, 0), BuildingBlock: CIFDUS_clean_linker_0, # of connection points: 2
# Relax obj value: 0.379
# Max RMSD: 0.255
# Mean RMSD: 0.255
data_MOF--net-whk--node1-CIFDUS_clean_sbu_1--edge1-CIFDUS_clean_linker_0
_symmetry_space_group_name_H-M    P1
_symmetry_Int_Tables_number       1
_symmetry_cell_setting            triclinic
loop_
_symmetry_equiv_pos_as_xyz
'x, y, z'
_cell_length_a     30.817369
_cell_length_b     30.767264
_cell_length_c     44.701969
_cell_angle_alpha  89.832257
_cell_angle_beta   90.13213
_cell_angle_gamma 90.14277
loop_
_atom_site_label
_atom_site_type_symbol
_atom_site_fract_x
_atom_site_fract_y
_atom_site_fract_z
_atom_type_partial_charge
O0 O 0.48131 0.1528 0.41281 0.0
Mn1 Mn 0.54353 0.17829 0.40603 0.0
O2 O 0.49002 0.08053 0.40643 0.0
Mn3 Mn 0.55033 0.07904 0.40376 0.0
O4 O 0.6042 0.19939 0.3975 0.0
O5 O 0.51236 0.23282 0.38727 0.0
Mn6 Mn 0.5419 0.27136 0.40845 0.0
O7 O 0.55019 0.20634 0.45056 0.0
O8 O 0.60145 0.26997 0.40619 0.0
O9 O 0.54548 0.15272 0.36148 0.0
O10 O 0.57028 0.08459 0.36523 0.0
O11 O 0.51825 0.30604 0.38186 0.0
O12 O 0.51663 0.26819 0.4453 0.0
C13 C 0.59524 0.09627 0.43824 0.0
C14 C 0.46606 0.11417 0.40909 0.0
C15 C 0.62237 0.236 0.40007 0.0
C16 C 0.49784 0.27004 0.37609 0.0
C17 C 0.53795 0.24302 0.46181 0.0
C18 C 0.5622 0.1182 0.34966 0.0
O19 O 0.57177 0.12409 0.42344 0.0
O20 O 0.58769 0.05599 0.43172 0.0
O21 O 0.34396 0.47961 0.41543 0.0
Mn22 Mn 0.32512 0.54449 0.41104 0.0
O23 O 0.4168 0.48144 0.4105 0.0
Mn24 Mn 0.42402 0.54165 0.40843 0.0
O25 O 0.30976 0.60965 0.40407 0.0
O26 O 0.26828 0.52168 0.39288 0.0
Mn27 Mn 0.23637 0.56805 0.40214 0.0
O28 O 0.29683 0.54471 0.45387 0.0
O29 O 0.253 0.60735 0.37415 0.0
O30 O 0.35022 0.54644 0.36693 0.0
O31 O 0.42043 0.56432 0.37016 0.0
O32 O 0.19724 0.52526 0.40012 0.0
O33 O 0.24101 0.58688 0.44171 0.0
C34 C 0.41236 0.58718 0.44365 0.0
C35 C 0.3809 0.46076 0.41264 0.0
C36 C 0.28643 0.62694 0.38349 0.0
C37 C 0.23195 0.5015 0.39885 0.0
C38 C 0.26424 0.56831 0.46142 0.0
C39 C 0.38572 0.56034 0.35509 0.0
O40 O 0.38189 0.56681 0.42901 0.0
O41 O 0.45129 0.57491 0.43688 0.0
O42 O 0.95648 0.30019 0.4528 0.0
Mn43 Mn 0.95115 0.32824 0.40997 0.0
O44 O 0.90924 0.24889 0.4427 0.0
Mn45 Mn 0.92902 0.24411 0.40346 0.0
O46 O 0.94266 0.35634 0.36604 0.0
O47 O 0.92907 0.38249 0.43098 0.0
Mn48 Mn 0.94937 0.42741 0.4111 0.0
O49 O 0.01503 0.35008 0.41156 0.0
O50 O 0.92243 0.42497 0.37478 0.0
O51 O 0.88593 0.31088 0.40501 0.0
O52 O 0.88896 0.25472 0.37509 0.0
O53 O 0.9196 0.45099 0.44247 0.0
O54 O 0.00942 0.42308 0.40919 0.0
C55 C 0.99332 0.23327 0.39677 0.0
C56 C 0.93046 0.27041 0.46175 0.0
C57 C 0.9266 0.39312 0.35708 0.0
C58 C 0.91123 0.41073 0.44873 0.0
C59 C 0.03168 0.38813 0.40874 0.0
C60 C 0.86884 0.28748 0.38443 0.0
O61 O 0.97698 0.27196 0.3905 0.0
O62 O 0.96693 0.20171 0.40315 0.0
O63 O 0.19729 0.93874 0.45379 0.0
Mn64 Mn 0.17279 0.94924 0.4085 0.0
O65 O 0.25326 0.9801 0.4531 0.0
Mn66 Mn 0.25996 0.95177 0.41755 0.0
O67 O 0.1495 0.95117 0.36341 0.0
O68 O 0.11705 0.92131 0.42414 0.0
Mn69 Mn 0.07463 0.94365 0.40218 0.0
O70 O 0.14861 0.01097 0.41727 0.0
O71 O 0.08303 0.92232 0.36443 0.0
O72 O 0.19294 0.88911 0.39773 0.0
O73 O 0.25927 0.89155 0.41565 0.0
O74 O 0.04767 0.9082 0.42951 0.0
O75 O 0.07788 0.00422 0.40484 0.0
C76 C 0.26968 0.99139 0.38381 0.0
C77 C 0.22996 0.95501 0.46793 0.0
C78 C 0.11724 0.9321 0.35024 0.0
C79 C 0.08685 0.89979 0.4382 0.0
C80 C 0.11123 0.0273 0.41125 0.0
C81 C 0.22827 0.87074 0.4041 0.0
O82 O 0.2289 0.98142 0.39096 0.0
O83 O 0.30234 0.97144 0.39598 0.0
O84 O 0.04639 0.804 0.07228 0.0
Mn85 Mn 0.04968 0.8251 0.11757 0.0
O86 O 0.07548 0.73988 0.08247 0.0
Mn87 Mn 0.05716 0.74014 0.12184 0.0
O88 O 0.05486 0.84059 0.16447 0.0
O89 O 0.08759 0.87791 0.10148 0.0
Mn90 Mn 0.06971 0.9119 0.13114 0.0
O91 O 0.98996 0.85807 0.11534 0.0
O92 O 0.09725 0.89803 0.16589 0.0
O93 O 0.11035 0.79744 0.12125 0.0
O94 O 0.09957 0.74212 0.15019 0.0
O95 O 0.09819 0.94988 0.10954 0.0
O96 O 0.01107 0.92132 0.13448 0.0
C97 C 0.99623 0.73073 0.13397 0.0
C98 C 0.06403 0.7682 0.06356 0.0
C99 C 0.08025 0.8663 0.17911 0.0
C100 C 0.10754 0.91501 0.0946 0.0
C101 C 0.98118 0.89524 0.12687 0.0
C102 C 0.12477 0.77049 0.14029 0.0
O103 O 0.01008 0.77159 0.13139 0.0
O104 O 0.02069 0.69796 0.12722 0.0
O105 O 0.69657 0.04409 0.07464 0.0
Mn106 Mn 0.67707 0.04663 0.12016 0.0
O107 O 0.75246 0.08659 0.0816 0.0
Mn108 Mn 0.76598 0.05914 0.11734 0.0
O109 O 0.65889 0.05015 0.1664 0.0
O110 O 0.61999 0.07756 0.10563 0.0
Mn111 Mn 0.58253 0.04647 0.12771 0.0
O112 O 0.6532 0.98331 0.11739 0.0
O113 O 0.58751 0.06238 0.16711 0.0
O114 O 0.70309 0.10914 0.12675 0.0
O115 O 0.76678 0.09662 0.14805 0.0
O116 O 0.54737 0.07982 0.10616 0.0
O117 O 0.58152 0.98729 0.12116 0.0
C118 C 0.76436 0.99124 0.12174 0.0
C119 C 0.72636 0.06873 0.06391 0.0
C120 C 0.62365 0.06005 0.18044 0.0
C121 C 0.58358 0.0965 0.09673 0.0
C122 C 0.61603 0.96521 0.11938 0.0
C123 C 0.73491 0.12146 0.14348 0.0
O124 O 0.73383 0.01576 0.13319 0.0
O125 O 0.79612 0.01153 0.10891 0.0
O126 O 0.43971 0.71632 0.08704 0.0
Mn127 Mn 0.44776 0.68333 0.12822 0.0
O128 O 0.4125 0.77872 0.10607 0.0
Mn129 Mn 0.43069 0.77368 0.14599 0.0
O130 O 0.45013 0.65687 0.17225 0.0
O131 O 0.42142 0.62805 0.1104 0.0
Mn132 Mn 0.44663 0.58466 0.13 0.0
O133 O 0.51062 0.6625 0.11928 0.0
O134 O 0.42769 0.58811 0.1689 0.0
O135 O 0.38539 0.70017 0.13819 0.0
O136 O 0.39164 0.75036 0.17252 0.0
O137 O 0.41038 0.55869 0.10282 0.0
O138 O 0.50659 0.58983 0.12584 0.0
C139 C 0.49777 0.77178 0.15399 0.0
C140 C 0.42021 0.75347 0.08388 0.0
C141 C 0.43517 0.62182 0.18435 0.0
C142 C 0.39965 0.59821 0.09607 0.0
C143 C 0.52824 0.62489 0.122 0.0
C144 C 0.37043 0.71971 0.16095 0.0
O145 O 0.47564 0.73855 0.14439 0.0
O146 O 0.47528 0.80617 0.16007 0.0
O147 O 0.7886 0.45204 0.08333 0.0
Mn148 Mn 0.81278 0.4486 0.12712 0.0
O149 O 0.73117 0.41085 0.09197 0.0
Mn150 Mn 0.72254 0.43218 0.13042 0.0
O151 O 0.83511 0.44233 0.17216 0.0
O152 O 0.86869 0.42247 0.10981 0.0
Mn153 Mn 0.91079 0.44325 0.13293 0.0
O154 O 0.83736 0.51135 0.1235 0.0
O155 O 0.90287 0.41687 0.1694 0.0
O156 O 0.79042 0.38532 0.13367 0.0
O157 O 0.72991 0.39213 0.15962 0.0
O158 O 0.93852 0.41095 0.10463 0.0
O159 O 0.90878 0.50397 0.1329 0.0
C160 C 0.72311 0.49942 0.13479 0.0
C161 C 0.75705 0.42869 0.07378 0.0
C162 C 0.86799 0.42244 0.18377 0.0
C163 C 0.89954 0.40197 0.09564 0.0
C164 C 0.87511 0.52738 0.12859 0.0
C165 C 0.76394 0.3711 0.15366 0.0
O166 O 0.75644 0.47607 0.14339 0.0
O167 O 0.68796 0.47829 0.12816 0.0
O168 O 0.45348 0.79334 0.58115 0.0
Mn169 Mn 0.4489 0.81855 0.62459 0.0
O170 O 0.41353 0.73605 0.59202 0.0
Mn171 Mn 0.43505 0.73241 0.63101 0.0
O172 O 0.44238 0.8425 0.66838 0.0
O173 O 0.41852 0.87164 0.60735 0.0
Mn174 Mn 0.43933 0.9181 0.6253 0.0
O175 O 0.51082 0.84744 0.62254 0.0
O176 O 0.42225 0.91243 0.66461 0.0
O177 O 0.3856 0.7947 0.63111 0.0
O178 O 0.39519 0.73801 0.66012 0.0
O179 O 0.3992 0.93873 0.59843 0.0
O180 O 0.49895 0.91963 0.62042 0.0
C181 C 0.4999 0.7266 0.63468 0.0
C182 C 0.43099 0.7605 0.57272 0.0
C183 C 0.4281 0.87802 0.67995 0.0
C184 C 0.39233 0.89788 0.59335 0.0
C185 C 0.52423 0.88711 0.62353 0.0
C186 C 0.37195 0.76935 0.65191 0.0
O187 O 0.48175 0.76416 0.64158 0.0
O188 O 0.47547 0.69255 0.63102 0.0
O189 O 0.719 0.44675 0.59302 0.0
Mn190 Mn 0.68201 0.44507 0.63225 0.0
O191 O 0.78231 0.42239 0.61293 0.0
Mn192 Mn 0.77242 0.43196 0.65388 0.0
O193 O 0.64941 0.43727 0.6743 0.0
O194 O 0.63141 0.41721 0.60894 0.0
Mn195 Mn 0.58414 0.43943 0.62525 0.0
O196 O 0.65776 0.50806 0.62737 0.0
O197 O 0.5819 0.41569 0.66298 0.0
O198 O 0.70317 0.38273 0.63842 0.0
O199 O 0.74975 0.38656 0.67548 0.0
O200 O 0.56375 0.40531 0.5951 0.0
O201 O 0.58538 0.49973 0.62408 0.0
C202 C 0.76561 0.4985 0.6634 0.0
C203 C 0.75842 0.43262 0.59031 0.0
C204 C 0.61275 0.41955 0.68165 0.0
C205 C 0.6043 0.39525 0.59214 0.0
C206 C 0.61913 0.52352 0.62648 0.0
C207 C 0.72232 0.36517 0.66061 0.0
O208 O 0.7344 0.47426 0.65258 0.0
O209 O 0.79918 0.47705 0.67264 0.0
O210 O 0.04451 0.7007 0.5809 0.0
Mn211 Mn 0.04463 0.67233 0.62426 0.0
O212 O 0.0873 0.75393 0.59479 0.0
Mn213 Mn 0.06396 0.75604 0.63282 0.0
O214 O 0.04676 0.64514 0.66818 0.0
O215 O 0.07169 0.61748 0.60623 0.0
Mn216 Mn 0.0425 0.57321 0.62209 0.0
O217 O 0.98033 0.64984 0.61772 0.0
O218 O 0.0537 0.57297 0.66283 0.0
O219 O 0.10939 0.69093 0.63345 0.0
O220 O 0.10254 0.74785 0.66246 0.0
O221 O 0.08254 0.54851 0.59723 0.0
O222 O 0.98439 0.57759 0.61131 0.0
C223 C -0.00023 0.76705 0.63709 0.0
C224 C 0.06823 0.73358 0.57419 0.0
C225 C 0.05331 0.60681 0.67913 0.0
C226 C 0.09466 0.58821 0.59227 0.0
C227 C 0.96252 0.61263 0.61271 0.0
C228 C 0.12457 0.7159 0.65399 0.0
O229 O 0.01491 0.72764 0.64259 0.0
O230 O 0.02671 0.79872 0.63214 0.0
O231 O 0.7975 0.05337 0.57394 0.0
Mn232 Mn 0.81671 0.04752 0.62021 0.0
O233 O 0.73784 0.01536 0.57056 0.0
Mn234 Mn 0.72774 0.03733 0.60754 0.0
O235 O 0.8355 0.04788 0.66656 0.0
O236 O 0.87196 0.07998 0.60666 0.0
Mn237 Mn 0.91291 0.05785 0.63025 0.0
O238 O 0.84547 0.98749 0.61354 0.0
O239 O 0.90145 0.07811 0.66785 0.0
O240 O 0.78885 0.10655 0.628 0.0
O241 O 0.72241 0.09638 0.60998 0.0
O242 O 0.94192 0.09476 0.6056 0.0
O243 O 0.9149 0.99746 0.62733 0.0
C244 C 0.72318 0.99466 0.64065 0.0
C245 C 0.76667 0.03738 0.55785 0.0
C246 C 0.86674 0.06698 0.68087 0.0
C247 C 0.90346 0.1037 0.59552 0.0
C248 C 0.88313 0.97287 0.62024 0.0
C249 C 0.75166 0.1206 0.62048 0.0
O250 O 0.76187 0.0114 0.63428 0.0
O251 O 0.68832 0.00998 0.6281 0.0
O252 O 0.94725 0.21331 0.94844 0.0
Mn253 Mn 0.94775 0.18353 0.90642 0.0
O254 O 0.92264 0.27999 0.93455 0.0
Mn255 Mn 0.93418 0.2789 0.89326 0.0
O256 O 0.94358 0.1591 0.86189 0.0
O257 O 0.92237 0.1271 0.92435 0.0
Mn258 Mn 0.94852 0.08543 0.90335 0.0
O259 O 0.01159 0.16212 0.91141 0.0
O260 O 0.92646 0.0887 0.86512 0.0
O261 O 0.88422 0.20434 0.90082 0.0
O262 O 0.89067 0.25927 0.86924 0.0
O263 O 0.91544 0.05653 0.93065 0.0
O264 O 0.00872 0.08968 0.90589 0.0
C265 C 0.00073 0.27097 0.88319 0.0
C266 C 0.93219 0.25153 0.95462 0.0
C267 C 0.92947 0.1235 0.85 0.0
C268 C 0.90228 0.09505 0.93795 0.0
C269 C 0.02998 0.12503 0.90872 0.0
C270 C 0.86788 0.23032 0.88156 0.0
O271 O 0.9747 0.23948 0.89068 0.0
O272 O 0.98126 0.30747 0.87804 0.0
O273 O 0.29978 0.94594 0.95255 0.0
Mn274 Mn 0.32253 0.94962 0.90839 0.0
O275 O 0.24077 0.91045 0.93984 0.0
Mn276 Mn 0.23519 0.94084 0.9042 0.0
O277 O 0.34379 0.95124 0.86336 0.0
O278 O 0.37521 0.91365 0.92432 0.0
Mn279 Mn 0.41683 0.93587 0.90151 0.0
O280 O 0.35254 0.00972 0.91587 0.0
O281 O 0.40706 0.91661 0.86348 0.0
O282 O 0.29558 0.88945 0.89635 0.0
O283 O 0.23534 0.90562 0.87213 0.0
O284 O 0.44614 0.89941 0.9254 0.0
O285 O 0.42183 0.99567 0.90432 0.0
C286 C 0.23371 0.00748 0.90282 0.0
C287 C 0.26806 0.92106 0.95947 0.0
C288 C 0.37417 0.93079 0.8497 0.0
C289 C 0.4075 0.89003 0.93498 0.0
C290 C 0.39099 0.02229 0.90886 0.0
C291 C 0.26677 0.88027 0.8765 0.0
O292 O 0.26895 0.98663 0.89414 0.0
O293 O 0.19995 0.98477 0.91032 0.0
O294 O 0.54562 0.29015 0.95532 0.0
Mn295 Mn 0.54364 0.31463 0.91094 0.0
O296 O 0.58064 0.23012 0.94387 0.0
Mn297 Mn 0.55216 0.22292 0.90784 0.0
O298 O 0.54743 0.33941 0.8659 0.0
O299 O 0.57352 0.36949 0.92778 0.0
Mn300 Mn 0.54522 0.4129 0.91 0.0
O301 O 0.48115 0.3397 0.91754 0.0
O302 O 0.5611 0.41076 0.8707 0.0
O303 O 0.60493 0.28799 0.90076 0.0
O304 O 0.58917 0.22649 0.87698 0.0
O305 O 0.5834 0.43988 0.93457 0.0
O306 O 0.48614 0.41222 0.91753 0.0
C307 C 0.4848 0.23015 0.9059 0.0
C308 C 0.56945 0.25779 0.963 0.0
C309 C 0.56019 0.37646 0.85504 0.0
C310 C 0.59615 0.40062 0.94042 0.0
C311 C 0.46389 0.37747 0.91883 0.0
C312 C 0.61529 0.25726 0.88238 0.0
O313 O 0.51105 0.26029 0.89566 0.0
O314 O 0.50292 0.19417 0.91432 0.0
O315 O 0.20502 0.5521 0.95203 0.0
Mn316 Mn 0.17768 0.55074 0.90882 0.0
O317 O 0.26847 0.5843 0.93995 0.0
Mn318 Mn 0.26797 0.57203 0.89912 0.0
O319 O 0.15572 0.55458 0.86353 0.0
O320 O 0.11919 0.57351 0.92656 0.0
Mn321 Mn 0.08294 0.54064 0.90443 0.0
O322 O 0.16092 0.48468 0.9122 0.0
O323 O 0.08359 0.55746 0.86486 0.0
O324 O 0.19261 0.61643 0.90376 0.0
O325 O 0.24829 0.61339 0.8736 0.0
O326 O 0.04706 0.57089 0.92782 0.0
O327 O 0.08866 0.48152 0.91137 0.0
C328 C 0.27306 0.50883 0.88485 0.0
C329 C 0.24109 0.57095 0.95941 0.0
C330 C 0.11883 0.56054 0.8505 0.0
C331 C 0.08254 0.5882 0.93798 0.0
C332 C 0.12536 0.46299 0.91264 0.0
C333 C 0.21612 0.63363 0.88349 0.0
O334 O 0.23609 0.52504 0.89414 0.0
O335 O 0.30635 0.53464 0.88401 0.0
H336 H 0.57467 0.04562 0.3163 0.0
H337 H 0.57742 0.18551 0.30982 0.0
H338 H 0.60199 0.1801 0.25768 0.0
H339 H 0.62014 0.13487 0.21305 0.0
H340 H 0.6176 0.99538 0.22104 0.0
H341 H 0.59564 0.00128 0.27339 0.0
C342 C 0.58052 0.07513 0.30359 0.0
C343 C 0.57361 0.11603 0.31711 0.0
C344 C 0.59518 0.0717 0.27386 0.0
C345 C 0.58151 0.15364 0.3 0.0
C346 C 0.59601 0.15051 0.27022 0.0
C347 C 0.61622 0.10589 0.22666 0.0
C348 C 0.62213 0.06463 0.21347 0.0
C349 C 0.60294 0.10967 0.25686 0.0
C350 C 0.61507 0.02735 0.23094 0.0
C351 C 0.60184 0.03078 0.26078 0.0
H352 H 0.4267 0.5489 0.21785 0.0
H353 H 0.42122 0.68862 0.22447 0.0
H354 H 0.40194 0.68225 0.27764 0.0
H355 H 0.38888 0.63603 0.32296 0.0
H356 H 0.39336 0.49665 0.31448 0.0
H357 H 0.41079 0.50373 0.26132 0.0
C358 C 0.4214 0.57814 0.23082 0.0
C359 C 0.42605 0.61923 0.21712 0.0
C360 C 0.40994 0.57415 0.26111 0.0
C361 C 0.41884 0.6566 0.23448 0.0
C362 C 0.40744 0.65292 0.26485 0.0
C363 C 0.39289 0.60736 0.30918 0.0
C364 C 0.38914 0.56575 0.32233 0.0
C365 C 0.40309 0.61179 0.27848 0.0
C366 C 0.39512 0.52882 0.30459 0.0
C367 C 0.40548 0.53292 0.27431 0.0
H368 H 0.91148 0.33624 0.309 0.0
H369 H 0.91189 0.4724 0.33304 0.0
H370 H 0.88742 0.49224 0.28386 0.0
H371 H 0.86912 0.47338 0.23258 0.0
H372 H 0.87289 0.33975 0.20501 0.0
H373 H 0.8913 0.31687 0.25621 0.0
C374 C 0.90638 0.37016 0.3034 0.0
C375 C 0.91366 0.40238 0.3253 0.0
C376 C 0.89226 0.38216 0.27421 0.0
C377 C 0.90651 0.4463 0.31725 0.0
C378 C 0.8923 0.45809 0.28887 0.0
C379 C 0.87266 0.43918 0.23807 0.0
C380 C 0.86852 0.40828 0.2154 0.0
C381 C 0.88511 0.42655 0.26713 0.0
C382 C 0.87494 0.3641 0.22244 0.0
C383 C 0.88602 0.35106 0.25163 0.0
H384 H 0.05274 0.89504 0.31699 0.0
H385 H 0.18473 0.94162 0.31027 0.0
H386 H 0.18619 0.92035 0.25748 0.0
H387 H 0.14875 0.89176 0.21275 0.0
H388 H 0.01707 0.8452 0.21976 0.0
H389 H 0.017 0.86257 0.27327 0.0
C390 C 0.082 0.90071 0.30412 0.0
C391 C 0.11851 0.92062 0.31776 0.0
C392 C 0.08273 0.88793 0.27392 0.0
C393 C 0.156 0.92709 0.30047 0.0
C394 C 0.1569 0.91464 0.27029 0.0
C395 C 0.12033 0.88453 0.22616 0.0
C396 C 0.08303 0.86676 0.21231 0.0
C397 C 0.12038 0.89532 0.25676 0.0
C398 C 0.04642 0.85789 0.22992 0.0
C399 C 0.04623 0.86845 0.26043 0.0
H400 H 0.39871 0.86024 0.81914 0.0
H401 H 0.35112 0.99081 0.80737 0.0
H402 H 0.36358 0.98565 0.75328 0.0
H403 H 0.39209 0.94544 0.71031 0.0
H404 H 0.43888 0.81419 0.72224 0.0
H405 H 0.42241 0.81815 0.7756 0.0
C406 C 0.39048 0.8873 0.80459 0.0
C407 C 0.37402 0.92584 0.81698 0.0
C408 C 0.39797 0.88408 0.77378 0.0
C409 C 0.36326 0.96069 0.79814 0.0
C410 C 0.37082 0.95783 0.76734 0.0
C411 C 0.39875 0.91757 0.72449 0.0
C412 C 0.41742 0.87973 0.71226 0.0
C413 C 0.38888 0.91994 0.75505 0.0
C414 C 0.42511 0.84386 0.73103 0.0
C415 C 0.41557 0.84606 0.76153 0.0
H416 H 0.53703 0.33678 0.80118 0.0
H417 H 0.62717 0.42819 0.84003 0.0
H418 H 0.65416 0.44772 0.79086 0.0
H419 H 0.64835 0.44435 0.73589 0.0
H420 H 0.55781 0.35395 0.6965 0.0
H421 H 0.53594 0.32869 0.74587 0.0
C422 C 0.56299 0.36038 0.79886 0.0
C423 C 0.57925 0.3814 0.82444 0.0
C424 C 0.57841 0.37227 0.77004 0.0
C425 C 0.61318 0.41194 0.8208 0.0
C426 C 0.6289 0.42326 0.79257 0.0
C427 C 0.62425 0.41881 0.73812 0.0
C428 C 0.60433 0.4019 0.71234 0.0
C429 C 0.61108 0.40456 0.76687 0.0
C430 C 0.57319 0.36849 0.71587 0.0
C431 C 0.56059 0.35376 0.74422 0.0
H432 H 0.11417 0.64091 0.71852 0.0
H433 H 0.00528 0.55303 0.71281 0.0
H434 H 0.01718 0.52987 0.76436 0.0
H435 H 0.05864 0.53295 0.81091 0.0
H436 H 0.17018 0.61691 0.81776 0.0
H437 H 0.15754 0.64299 0.76633 0.0
C438 C 0.09258 0.61744 0.72889 0.0
C439 C 0.05808 0.59946 0.71197 0.0
C440 C 0.10059 0.60297 0.75865 0.0
C441 C 0.03138 0.56797 0.72544 0.0
C442 C 0.03842 0.55441 0.75488 0.0
C443 C 0.08053 0.55665 0.80107 0.0
C444 C 0.11564 0.57245 0.81811 0.0
C445 C 0.07308 0.57127 0.7716 0.0
C446 C 0.14351 0.60336 0.80497 0.0
C447 C 0.13592 0.61866 0.77564 0.0
H448 H 0.89434 0.13824 0.71042 0.0
H449 H 0.8398 0.01086 0.72507 0.0
H450 H 0.85399 0.01768 0.77897 0.0
H451 H 0.88715 0.05761 0.82105 0.0
H452 H 0.9406 0.18577 0.80631 0.0
H453 H 0.92131 0.181 0.75325 0.0
C454 C 0.88474 0.1123 0.72553 0.0
C455 C 0.86587 0.07406 0.71377 0.0
C456 C 0.89338 0.11642 0.75635 0.0
C457 C 0.85367 0.04078 0.73356 0.0
C458 C 0.86231 0.04455 0.76433 0.0
C459 C 0.89468 0.08464 0.80632 0.0
C460 C 0.9163 0.12177 0.81778 0.0
C461 C 0.88308 0.08181 0.77585 0.0
C462 C 0.9247 0.15663 0.79824 0.0
C463 C 0.91355 0.15392 0.76786 0.0
H464 H 0.43246 0.07369 0.36142 0.0
H465 H 0.3952 0.14235 0.44113 0.0
H466 H 0.3189 0.12202 0.43244 0.0
H467 H 0.2673 0.07127 0.40806 0.0
H468 H 0.30644 0.00199 0.32927 0.0
H469 H 0.37671 0.03841 0.33023 0.0
C470 C 0.40747 0.08473 0.37667 0.0
C471 C 0.41935 0.10815 0.40247 0.0
C472 C 0.364 0.07334 0.37129 0.0
C473 C 0.38678 0.12349 0.42153 0.0
C474 C 0.34323 0.11199 0.41645 0.0
C475 C 0.29011 0.06643 0.38991 0.0
C476 C 0.2825 0.03237 0.36944 0.0
C477 C 0.33178 0.08533 0.39208 0.0
C478 C 0.31173 0.02743 0.34561 0.0
C479 C 0.35267 0.04714 0.34681 0.0
H480 H 0.39761 0.42305 0.36008 0.0
H481 H 0.36875 0.39345 0.4521 0.0
H482 H 0.38824 0.317 0.44379 0.0
H483 H 0.43003 0.26493 0.4135 0.0
H484 H 0.46423 0.29764 0.32304 0.0
H485 H 0.42303 0.36496 0.32647 0.0
C486 C 0.39437 0.39944 0.37804 0.0
C487 C 0.38239 0.41359 0.40676 0.0
C488 C 0.40621 0.35595 0.37311 0.0
C489 C 0.37812 0.38309 0.42991 0.0
C490 C 0.38931 0.33947 0.4251 0.0
C491 C 0.42598 0.28541 0.39388 0.0
C492 C 0.45204 0.27747 0.36856 0.0
C493 C 0.40547 0.32606 0.39717 0.0
C494 C 0.44531 0.30342 0.34304 0.0
C495 C 0.42298 0.34285 0.34539 0.0
H496 H 0.10858 0.37153 0.43763 0.0
H497 H 0.0533 0.41546 0.35427 0.0
H498 H 0.12432 0.4395 0.337 0.0
H499 H 0.19602 0.46486 0.35105 0.0
H500 H 0.24734 0.43506 0.43805 0.0
H501 H 0.18711 0.38484 0.44732 0.0
C502 C 0.11269 0.38502 0.41538 0.0
C503 C 0.07613 0.39232 0.39732 0.0
C504 C 0.15356 0.40068 0.40609 0.0
C505 C 0.08129 0.40998 0.36853 0.0
C506 C 0.12186 0.42362 0.35862 0.0
C507 C 0.19527 0.44523 0.37129 0.0
C508 C 0.22474 0.45486 0.39433 0.0
C509 C 0.15768 0.42136 0.37787 0.0
C510 C 0.22433 0.42888 0.42019 0.0
C511 C 0.18904 0.40122 0.42588 0.0
H512 H 0.07532 0.07035 0.36517 0.0
H513 H 0.13868 0.09088 0.44997 0.0
H514 H 0.11915 0.1683 0.44808 0.0
H515 H 0.0684 0.22377 0.42778 0.0
H516 H 0.00945 0.20333 0.34162 0.0
H517 H 0.04424 0.13262 0.33785 0.0
C518 C 0.08544 0.092 0.38302 0.0
C519 C 0.10666 0.07491 0.40835 0.0
C520 C 0.075 0.13632 0.3814 0.0
C521 C 0.12117 0.10329 0.43074 0.0
C522 C 0.11011 0.14747 0.42957 0.0
C523 C 0.06572 0.20519 0.40726 0.0
C524 C 0.03526 0.21804 0.38545 0.0
C525 C 0.08505 0.16379 0.40572 0.0
C526 C 0.03262 0.19408 0.35878 0.0
C527 C 0.05147 0.1529 0.35703 0.0
H528 H 0.9015 0.86063 0.10896 0.0
H529 H 0.95958 0.96015 0.16445 0.0
H530 H 0.88906 0.98555 0.17904 0.0
H531 H 0.81208 0.98808 0.17059 0.0
H532 H 0.75462 0.90576 0.104 0.0
H533 H 0.82063 0.86124 0.10272 0.0
C534 C 0.89858 0.88752 0.12443 0.0
C535 C 0.93628 0.90841 0.13516 0.0
C536 C 0.85711 0.90388 0.132 0.0
C537 C 0.93161 0.94336 0.15532 0.0
C538 C 0.89102 0.95785 0.16415 0.0
C539 C 0.81331 0.95896 0.1569 0.0
C540 C 0.77935 0.95126 0.1366 0.0
C541 C 0.8536 0.93912 0.15213 0.0
C542 C 0.78082 0.91317 0.11936 0.0
C543 C 0.81923 0.88868 0.11782 0.0
H544 H 0.55204 0.80907 0.19279 0.0
H545 H 0.54828 0.75074 0.10565 0.0
H546 H 0.59699 0.80714 0.08633 0.0
H547 H 0.61662 0.88587 0.09056 0.0
H548 H 0.60925 0.94703 0.17697 0.0
H549 H 0.58734 0.8787 0.19997 0.0
C550 C 0.56398 0.80743 0.16997 0.0
C551 C 0.54485 0.77761 0.15023 0.0
C552 C 0.58756 0.84262 0.15843 0.0
C553 C 0.56151 0.77441 0.12109 0.0
C554 C 0.58833 0.80753 0.10981 0.0
C555 C 0.61166 0.88352 0.11451 0.0
C556 C 0.61388 0.92118 0.13212 0.0
C557 C 0.59771 0.84404 0.12754 0.0
C558 C 0.60745 0.9182 0.16314 0.0
C559 C 0.59498 0.87915 0.17631 0.0
H560 H 0.57282 0.5952 0.16926 0.0
H561 H 0.58959 0.6472 0.08048 0.0
H562 H 0.66611 0.62483 0.08105 0.0
H563 H 0.71983 0.57317 0.10185 0.0
H564 H 0.7028 0.52309 0.19094 0.0
H565 H 0.63558 0.56381 0.19608 0.0
C566 C 0.59368 0.60267 0.15039 0.0
C567 C 0.57575 0.62147 0.12445 0.0
C568 C 0.6374 0.59007 0.15106 0.0
C569 C 0.60283 0.63197 0.10037 0.0
C570 C 0.64645 0.61919 0.10075 0.0
C571 C 0.70301 0.57373 0.12315 0.0
C572 C 0.71493 0.54364 0.14545 0.0
C573 C 0.66328 0.59595 0.1253 0.0
C574 C 0.69382 0.54553 0.17324 0.0
C575 C 0.6545 0.56777 0.17584 0.0
H576 H 0.91725 0.72295 0.10686 0.0
H577 H 0.98416 0.70522 0.19052 0.0
H578 H 0.9498 0.63463 0.19719 0.0
H579 H 0.91643 0.57131 0.17226 0.0
H580 H 0.84332 0.59004 0.09102 0.0
H581 H 0.86341 0.66737 0.09052 0.0
C582 C 0.92181 0.70508 0.12758 0.0
C583 C 0.95471 0.71826 0.14752 0.0
C584 C 0.9023 0.66385 0.13092 0.0
C585 C 0.95937 0.69544 0.17462 0.0
C586 C 0.94074 0.65429 0.17801 0.0
C587 C 0.90429 0.59257 0.15475 0.0
C588 C 0.88016 0.57497 0.13094 0.0
C589 C 0.91484 0.63698 0.15513 0.0
C590 C 0.8631 0.60287 0.10903 0.0
C591 C 0.87447 0.64702 0.10882 0.0
H592 H 0.67671 0.97785 0.6903 0.0
H593 H 0.75089 0.91448 0.62232 0.0
H594 H 0.68955 0.86663 0.61086 0.0
H595 H 0.60817 0.86079 0.60905 0.0
H596 H 0.53385 0.93513 0.67251 0.0
H597 H 0.59996 0.96203 0.69564 0.0
C598 C 0.68021 0.95174 0.67419 0.0
C599 C 0.71658 0.95228 0.6553 0.0
C600 C 0.64294 0.92869 0.6652 0.0
C601 C 0.72204 0.9166 0.63606 0.0
C602 C 0.68626 0.89023 0.62864 0.0
C603 C 0.60672 0.88221 0.62823 0.0
C604 C 0.56619 0.89704 0.63841 0.0
C605 C 0.64536 0.89897 0.64109 0.0
C606 C 0.56471 0.9243 0.66365 0.0
C607 C 0.60253 0.93941 0.67717 0.0
H608 H 0.63257 0.60157 0.59737 0.0
H609 H 0.58724 0.54427 0.67968 0.0
H610 H 0.55938 0.61421 0.69614 0.0
H611 H 0.5333 0.68581 0.68201 0.0
H612 H 0.56743 0.74021 0.59665 0.0
H613 H 0.61746 0.68001 0.58764 0.0
C614 C 0.61782 0.60502 0.61923 0.0
C615 C 0.61161 0.56806 0.63726 0.0
C616 C 0.6004 0.64537 0.6282 0.0
C617 C 0.59214 0.57248 0.66547 0.0
C618 C 0.57628 0.61246 0.67493 0.0
C619 C 0.5538 0.68577 0.66227 0.0
C620 C 0.54594 0.71666 0.63971 0.0
C621 C 0.57839 0.6486 0.65588 0.0
C622 C 0.57265 0.71656 0.61429 0.0
C623 C 0.60025 0.6813 0.60872 0.0
H624 H 0.90455 0.63381 0.65616 0.0
H625 H 0.91377 0.57705 0.56849 0.0
H626 H 0.84027 0.54774 0.57318 0.0
H627 H 0.7825 0.52312 0.60692 0.0
H628 H 0.77852 0.57066 0.6972 0.0
H629 H 0.8386 0.62029 0.68657 0.0
C630 C 0.88962 0.61667 0.63761 0.0
C631 C 0.91449 0.60788 0.61187 0.0
C632 C 0.84795 0.59788 0.64116 0.0
C633 C 0.89521 0.58452 0.58837 0.0
C634 C 0.8532 0.56749 0.59116 0.0
C635 C 0.79298 0.5463 0.6237 0.0
C636 C 0.77587 0.54301 0.65288 0.0
C637 C 0.83024 0.5719 0.61809 0.0
C638 C 0.79055 0.57279 0.67448 0.0
C639 C 0.82587 0.6004 0.66859 0.0
H640 H 0.91943 0.93049 0.66652 0.0
H641 H 0.85749 0.90931 0.58129 0.0
H642 H 0.87624 0.83179 0.5838 0.0
H643 H 0.92554 0.77598 0.6051 0.0
H644 H 0.98185 0.79653 0.69205 0.0
H645 H 0.94852 0.86803 0.69478 0.0
C646 C 0.90968 0.90871 0.64865 0.0
C647 C 0.88916 0.92555 0.62301 0.0
C648 C 0.91926 0.86427 0.65074 0.0
C649 C 0.87476 0.89703 0.60067 0.0
C650 C 0.88521 0.8528 0.60222 0.0
C651 C 0.92789 0.79482 0.62552 0.0
C652 C 0.95751 0.78197 0.64779 0.0
C653 C 0.90935 0.83655 0.6265 0.0
C654 C 0.95946 0.80602 0.67447 0.0
C655 C 0.94154 0.84762 0.67562 0.0
H656 H 0.07754 0.09375 0.86311 0.0
H657 H 0.08914 0.15165 0.95037 0.0
H658 H 0.1664 0.13238 0.95204 0.0
H659 H 0.22312 0.08207 0.93397 0.0
H660 H 0.21199 0.02709 0.84596 0.0
H661 H 0.14294 0.06402 0.83843 0.0
C662 C 0.09738 0.10306 0.88215 0.0
C663 C 0.07774 0.1226 0.9071 0.0
C664 C 0.14173 0.09245 0.8827 0.0
C665 C 0.10362 0.13569 0.93128 0.0
C666 C 0.14771 0.12471 0.93218 0.0
C667 C 0.20708 0.08068 0.91236 0.0
C668 C 0.22167 0.05048 0.89106 0.0
C669 C 0.16641 0.10086 0.90874 0.0
C670 C 0.20119 0.04974 0.8629 0.0
C671 C 0.16087 0.06983 0.85893 0.0
H672 H 0.36078 0.10013 0.93218 0.0
H673 H 0.43761 0.04567 0.86093 0.0
H674 H 0.45628 0.11778 0.84318 0.0
H675 H 0.46344 0.19444 0.85379 0.0
H676 H 0.40594 0.24685 0.93299 0.0
H677 H 0.36202 0.1809 0.93916 0.0
C678 C 0.38112 0.10427 0.91263 0.0
C679 C 0.39867 0.06751 0.89848 0.0
C680 C 0.39382 0.14636 0.90321 0.0
C681 C 0.42464 0.07337 0.87285 0.0
C682 C 0.43491 0.1147 0.86231 0.0
C683 C 0.43951 0.19219 0.87154 0.0
C684 C 0.44058 0.22358 0.89431 0.0
C685 C 0.42117 0.15138 0.87799 0.0
C686 C 0.40777 0.22179 0.91607 0.0
C687 C 0.38385 0.18331 0.92027 0.0
H688 H 0.41755 0.38627 0.86845 0.0
H689 H 0.40487 0.38112 0.96424 0.0
H690 H 0.33054 0.40917 0.96042 0.0
H691 H 0.27878 0.45269 0.93079 0.0
H692 H 0.29565 0.46382 0.83561 0.0
H693 H 0.35717 0.41421 0.83771 0.0
C694 C 0.39776 0.3898 0.88835 0.0
C695 C 0.41635 0.38194 0.91661 0.0
C696 C 0.35574 0.40724 0.88594 0.0
C697 C 0.39099 0.38702 0.94233 0.0
C698 C 0.34862 0.40323 0.94009 0.0
C699 C 0.29413 0.44184 0.91031 0.0
C700 C 0.28299 0.46221 0.88312 0.0
C701 C 0.33165 0.41581 0.91214 0.0
C702 C 0.3034 0.44834 0.85676 0.0
C703 C 0.33945 0.42085 0.85811 0.0
H704 H 0.10497 0.39431 0.94936 0.0
H705 H 0.14375 0.42757 0.85965 0.0
H706 H 0.11957 0.35661 0.84179 0.0
H707 H 0.06975 0.29524 0.84998 0.0
H708 H 0.03193 0.26074 0.93945 0.0
H709 H 0.07599 0.31991 0.95951 0.0
C710 C 0.11002 0.38507 0.92624 0.0
C711 C 0.12592 0.41605 0.90579 0.0
C712 C 0.09613 0.34387 0.91609 0.0
C713 C 0.13192 0.40402 0.8758 0.0
C714 C 0.1178 0.36352 0.86552 0.0
C715 C 0.07364 0.29875 0.874 0.0
C716 C 0.04616 0.27493 0.8931 0.0
C717 C 0.09753 0.33426 0.88517 0.0
C718 C 0.05211 0.27917 0.92415 0.0
C719 C 0.0764 0.31398 0.93563 0.0
H720 H 0.66988 0.30918 0.39639 0.0
H721 H 0.67818 0.16884 0.39293 0.0
H722 H 0.75551 0.17367 0.38319 0.0
H723 H 0.81991 0.21699 0.37785 0.0
H724 H 0.81455 0.35667 0.38623 0.0
H725 H 0.73533 0.35298 0.39085 0.0
C726 C 0.68862 0.2797 0.39341 0.0
C727 C 0.66868 0.23885 0.39503 0.0
C728 C 0.73285 0.28262 0.38817 0.0
C729 C 0.69304 0.20074 0.3914 0.0
C730 C 0.73707 0.20339 0.38579 0.0
C731 C 0.80136 0.24679 0.37995 0.0
C732 C 0.82222 0.28713 0.38142 0.0
C733 C 0.75707 0.24413 0.38415 0.0
C734 C 0.79837 0.32543 0.38486 0.0
C735 C 0.75352 0.32324 0.38775 0.0
H736 H 0.22061 0.67726 0.36557 0.0
H737 H 0.35417 0.68155 0.39509 0.0
H738 H 0.34834 0.76006 0.40286 0.0
H739 H 0.3023 0.82435 0.40722 0.0
H740 H 0.16641 0.81587 0.38327 0.0
H741 H 0.17585 0.74068 0.36845 0.0
C742 C 0.24887 0.69536 0.37307 0.0
C743 C 0.28762 0.67397 0.38009 0.0
C744 C 0.24439 0.73912 0.3794 0.0
C745 C 0.32394 0.69775 0.38971 0.0
C746 C 0.32046 0.74229 0.39448 0.0
C747 C 0.27482 0.80601 0.39871 0.0
C748 C 0.23383 0.82532 0.39628 0.0
C749 C 0.28028 0.76279 0.39057 0.0
C750 C 0.19837 0.80151 0.38524 0.0
C751 C 0.20372 0.75871 0.37661 0.0
H752 H 0.3188 0.73499 0.11567 0.0
H753 H 0.32027 0.71284 0.21094 0.0
H754 H 0.24126 0.72457 0.21289 0.0
H755 H 0.17332 0.74479 0.18697 0.0
H756 H 0.1766 0.77366 0.09235 0.0
H757 H 0.25317 0.7555 0.0904 0.0
C758 C 0.30155 0.73192 0.13677 0.0
C759 C 0.32399 0.72226 0.16306 0.0
C760 C 0.25768 0.74046 0.13774 0.0
C761 C 0.30252 0.71975 0.19053 0.0
C762 C 0.25785 0.72661 0.19158 0.0
C763 C 0.19121 0.74713 0.16614 0.0
C764 C 0.17045 0.76106 0.14005 0.0
C765 C 0.23532 0.73763 0.16532 0.0
C766 C 0.19286 0.76389 0.11283 0.0
C767 C 0.23627 0.7532 0.11161 0.0
H768 H 0.80105 0.30836 0.12191 0.0
H769 H 0.72568 0.33207 0.20148 0.0
H770 H 0.71084 0.2542 0.20645 0.0
H771 H 0.71255 0.18094 0.18432 0.0
H772 H 0.7832 0.16062 0.10243 0.0
H773 H 0.80591 0.2364 0.10155 0.0
C774 C 0.78226 0.29643 0.14076 0.0
C775 C 0.76404 0.32528 0.16115 0.0
C776 C 0.77202 0.25269 0.14245 0.0
C777 C 0.73966 0.3098 0.18545 0.0
C778 C 0.73088 0.26562 0.18813 0.0
C779 C 0.73276 0.19363 0.16644 0.0
C780 C 0.7458 0.16668 0.14326 0.0
C781 C 0.74548 0.23709 0.16606 0.0
C782 C 0.77247 0.18198 0.12015 0.0
C783 C 0.78575 0.22486 0.11979 0.0
H784 H 0.17205 0.78727 0.66445 0.0
H785 H 0.18057 0.64796 0.6545 0.0
H786 H 0.25986 0.65248 0.65721 0.0
H787 H 0.32529 0.69671 0.65713 0.0
H788 H 0.31653 0.83662 0.65972 0.0
H789 H 0.23753 0.83145 0.6654 0.0
C790 C 0.19122 0.75776 0.66354 0.0
C791 C 0.17104 0.71721 0.65959 0.0
C792 C 0.23618 0.76095 0.66356 0.0
C793 C 0.19592 0.67934 0.65771 0.0
C794 C 0.24094 0.68199 0.65915 0.0
C795 C 0.30608 0.72601 0.65955 0.0
C796 C 0.32594 0.76699 0.65832 0.0
C797 C 0.26123 0.72271 0.66133 0.0
C798 C 0.30123 0.80489 0.66071 0.0
C799 C 0.25642 0.80187 0.66391 0.0
H800 H 0.77591 0.17045 0.66649 0.0
H801 H 0.70387 0.17021 0.58355 0.0
H802 H 0.68316 0.24577 0.59124 0.0
H803 H 0.68779 0.31105 0.62039 0.0
H804 H 0.76209 0.31384 0.70251 0.0
H805 H 0.7781 0.23646 0.69709 0.0
C806 C 0.75586 0.18729 0.65019 0.0
C807 C 0.74139 0.1658 0.62457 0.0
C808 C 0.74373 0.23019 0.65495 0.0
C809 C 0.71501 0.18685 0.6035 0.0
C810 C 0.70307 0.22967 0.60793 0.0
C811 C 0.70688 0.29476 0.63746 0.0
C812 C 0.72422 0.31793 0.66161 0.0
C813 C 0.71728 0.25145 0.63357 0.0
C814 C 0.7487 0.29639 0.6836 0.0
C815 C 0.75817 0.25247 0.68037 0.0
H816 H 0.80118 0.18257 0.86143 0.0
H817 H 0.83507 0.30077 0.90748 0.0
H818 H 0.75888 0.32195 0.9098 0.0
H819 H 0.68342 0.30659 0.8987 0.0
H820 H 0.64897 0.18855 0.85194 0.0
H821 H 0.72489 0.16797 0.84923 0.0
C822 C 0.79142 0.21275 0.87194 0.0
C823 C 0.82251 0.24036 0.88408 0.0
C824 C 0.74795 0.22503 0.87264 0.0
C825 C 0.81071 0.27948 0.89785 0.0
C826 C 0.76751 0.29161 0.89908 0.0
C827 C 0.69255 0.27675 0.88748 0.0
C828 C 0.66084 0.24921 0.87566 0.0
C829 C 0.73596 0.26479 0.8863 0.0
C830 C 0.67301 0.2105 0.86119 0.0
C831 C 0.71631 0.19841 0.85982 0.0
H832 H 0.19347 0.83479 0.88089 0.0
H833 H 0.3284 0.82606 0.85612 0.0
H834 H 0.32183 0.74703 0.85189 0.0
H835 H 0.28048 0.682 0.86107 0.0
H836 H 0.14863 0.68922 0.89345 0.0
H837 H 0.15086 0.76861 0.88868 0.0
C838 C 0.22094 0.8155 0.87367 0.0
C839 C 0.26116 0.83533 0.86825 0.0
C840 C 0.21747 0.77048 0.87307 0.0
C841 C 0.29718 0.81072 0.85992 0.0
C842 C 0.29343 0.7659 0.85772 0.0
C843 C 0.2518 0.7007 0.8666 0.0
C844 C 0.21435 0.68016 0.87757 0.0
C845 C 0.2541 0.74559 0.86511 0.0
C846 C 0.17775 0.70474 0.88501 0.0
C847 C 0.17907 0.74985 0.8823 0.0
H848 H 0.68134 0.08036 0.43434 0.0
H849 H 0.58348 0.13116 0.49325 0.0
H850 H 0.63314 0.12368 0.53579 0.0
H851 H 0.69828 0.09038 0.55675 0.0
H852 H 0.7959 0.03611 0.49922 0.0
H853 H 0.75336 0.05888 0.45515 0.0
C854 C 0.67171 0.09153 0.45633 0.0
C855 C 0.62897 0.10687 0.46068 0.0
C856 C 0.70031 0.08614 0.48078 0.0
C857 C 0.6164 0.12035 0.48927 0.0
C858 C 0.64467 0.11547 0.51362 0.0
C859 C 0.71124 0.08496 0.5346 0.0
C860 C 0.75034 0.06154 0.53129 0.0
C861 C 0.68591 0.09675 0.50975 0.0
C862 C 0.76614 0.05414 0.50239 0.0
C863 C 0.74148 0.06678 0.47727 0.0
H864 H 0.36334 0.72791 0.54106 0.0
H865 H 0.5012 0.75076 0.5367 0.0
H866 H 0.50695 0.69943 0.49517 0.0
H867 H 0.47438 0.64123 0.4651 0.0
H868 H 0.33631 0.61928 0.4678 0.0
H869 H 0.32876 0.6772 0.50498 0.0
C870 C 0.39435 0.72284 0.5302 0.0
C871 C 0.43181 0.7434 0.54178 0.0
C872 C 0.39744 0.69258 0.50668 0.0
C873 C 0.47185 0.7362 0.52781 0.0
C874 C 0.4752 0.70619 0.50441 0.0
C875 C 0.44246 0.64908 0.47366 0.0
C876 C 0.40597 0.62456 0.46441 0.0
C877 C 0.43849 0.68299 0.49452 0.0
C878 C 0.36495 0.6364 0.47516 0.0
C879 C 0.3607 0.66984 0.49628 0.0
H880 H 0.82379 0.40088 0.45687 0.0
H881 H 0.94668 0.4055 0.50289 0.0
H882 H 0.90969 0.41595 0.55046 0.0
H883 H 0.84384 0.42863 0.57837 0.0
H884 H 0.71899 0.42218 0.53474 0.0
H885 H 0.75514 0.40773 0.48671 0.0
C886 C 0.84214 0.40219 0.47758 0.0
C887 C 0.88794 0.40074 0.47663 0.0
C888 C 0.82039 0.40894 0.50503 0.0
C889 C 0.91152 0.40459 0.50331 0.0
C890 C 0.89037 0.41142 0.53041 0.0
C891 C 0.8242 0.42378 0.55848 0.0
C892 C 0.77865 0.42672 0.56029 0.0
C893 C 0.84502 0.4145 0.53142 0.0
C894 C 0.7541 0.42083 0.53402 0.0
C895 C 0.7748 0.4121 0.50661 0.0
H896 H 0.06482 0.81847 0.56469 0.0
H897 H 0.07559 0.69774 0.51666 0.0
H898 H 0.08752 0.73886 0.46975 0.0
H899 H 0.09416 0.81095 0.44275 0.0
H900 H 0.0873 0.92911 0.49408 0.0
H901 H 0.07539 0.88715 0.53966 0.0
C902 C 0.06987 0.80084 0.54399 0.0
C903 C 0.06933 0.75504 0.54426 0.0
C904 C 0.07825 0.82445 0.51785 0.0
C905 C 0.07523 0.73293 0.5171 0.0
C906 C 0.08261 0.75653 0.49039 0.0
C907 C 0.09173 0.82717 0.46418 0.0
C908 C 0.09328 0.87315 0.46534 0.0
C909 C 0.08462 0.80247 0.49056 0.0
C910 C 0.08811 0.89394 0.4929 0.0
C911 C 0.08051 0.86994 0.51884 0.0
H912 H 0.25433 0.97529 1.00556 0.0
H913 H 0.25071 0.84049 0.98064 0.0
H914 H 0.20078 0.82437 0.02175 0.0
H915 H 0.14822 0.85168 0.05979 0.0
H916 H 0.15124 0.98873 0.08122 0.0
H917 H 0.21019 0.00037 0.04707 0.0
C918 C 0.24425 0.94209 1.01009 0.0
C919 C 0.25636 0.90917 0.99036 0.0
C920 C 0.21359 0.93357 0.03263 0.0
C921 C 0.24211 0.86635 0.99592 0.0
C922 C 0.21282 0.85726 0.01906 0.0
C923 C 0.16174 0.88399 0.0569 0.0
C924 C 0.14392 0.9192 0.07273 0.0
C925 C 0.19639 0.89112 0.03662 0.0
C926 C 0.16299 0.96074 0.06908 0.0
C927 C 0.19732 0.96773 0.04958 0.0
H928 H 0.64569 0.13949 0.06148 0.0
H929 H 0.51298 0.14759 0.09196 0.0
H930 H 0.49873 0.20661 0.05778 0.0
H931 H 0.51907 0.24697 1.01251 0.0
H932 H 0.65107 0.24167 0.98173 0.0
H933 H 0.6704 0.19276 0.02276 0.0
C934 C 0.61396 0.15463 0.06095 0.0
C935 C 0.5802 0.13739 0.07858 0.0
C936 C 0.60548 0.18963 0.04096 0.0
C937 C 0.5395 0.15855 0.07796 0.0
C938 C 0.53109 0.19288 0.05846 0.0
C939 C 0.55249 0.23695 1.01572 0.0
C940 C 0.58342 0.24787 0.99404 0.0
C941 C 0.56315 0.20752 0.0389 0.0
C942 C 0.62658 0.23385 0.99827 0.0
C943 C 0.63756 0.20517 0.02148 0.0
H944 H 0.28418 0.63891 0.98334 0.0
H945 H 0.23106 0.51338 1.00609 0.0
H946 H 0.27256 0.51363 0.05305 0.0
H947 H 0.33267 0.54438 0.08307 0.0
H948 H 0.38681 0.66901 0.05929 0.0
H949 H 0.33585 0.67473 0.01746 0.0
C950 C 0.28083 0.61206 0.99896 0.0
C951 C 0.25491 0.5759 0.99109 0.0
C952 C 0.30556 0.61208 0.02544 0.0
C953 C 0.25054 0.5416 1.01163 0.0
C954 C 0.27474 0.54157 0.0383 0.0
C955 C 0.33293 0.57314 0.06897 0.0
C956 C 0.36417 0.60609 0.07406 0.0
C957 C 0.30377 0.57577 0.04473 0.0
C958 C 0.36338 0.64338 0.05599 0.0
C959 C 0.33433 0.64641 0.0319 0.0
H960 H 0.95403 0.33663 0.08096 0.0
H961 H 0.83193 0.39369 0.05578 0.0
H962 H 0.82796 0.34636 1.01202 0.0
H963 H 0.86478 0.2964 0.97727 0.0
H964 H 0.98769 0.23997 1.0019 0.0
H965 H 0.98594 0.27903 0.04969 0.0
C966 C 0.92624 0.33841 0.06608 0.0
C967 C 0.89324 0.36924 0.07152 0.0
C968 C 0.92477 0.31135 0.04074 0.0
C969 C 0.85731 0.37038 0.05232 0.0
C970 C 0.85539 0.34346 0.0271 0.0
C971 C 0.89071 0.29193 0.99345 0.0
C972 C 0.92654 0.26566 0.98603 0.0
C973 C 0.88965 0.31491 0.02059 0.0
C974 C 0.95972 0.25976 1.00718 0.0
C975 C 0.95888 0.28248 0.03434 0.0
H976 H 0.39017 0.87822 0.53502 0.0
H977 H 0.30843 0.89586 0.61166 0.0
H978 H 0.2456 0.90916 0.57911 0.0
H979 H 0.21814 0.93137 0.52825 0.0
H980 H 0.30631 0.91877 0.4538 0.0
H981 H 0.3604 0.88733 0.48526 0.0
C982 C 0.35811 0.88264 0.54453 0.0
C983 C 0.35384 0.88532 0.57558 0.0
C984 C 0.32271 0.89226 0.5257 0.0
C985 C 0.31235 0.89275 0.58768 0.0
C986 C 0.27649 0.90117 0.56902 0.0
C987 C 0.24851 0.92022 0.51884 0.0
C988 C 0.25676 0.92661 0.4881 0.0
C989 C 0.28175 0.90346 0.53784 0.0
C990 C 0.29725 0.91273 0.47674 0.0
C991 C 0.32923 0.89531 0.495 0.0
H992 H 0.62121 0.39654 0.53321 0.0
H993 H 0.60431 0.30969 0.60766 0.0
H994 H 0.58694 0.24978 0.57351 0.0
H995 H 0.56125 0.22668 0.52222 0.0
H996 H 0.57922 0.3176 0.44936 0.0
H997 H 0.61093 0.36988 0.48255 0.0
C998 C 0.61602 0.36395 0.54187 0.0
C999 C 0.61498 0.35757 0.57289 0.0
C1000 C 0.60441 0.33014 0.52214 0.0
C1001 C 0.60643 0.31536 0.58378 0.0
C1002 C 0.59555 0.28117 0.5642 0.0
C1003 C 0.57334 0.25731 0.51353 0.0
C1004 C 0.56688 0.26771 0.48302 0.0
C1005 C 0.59203 0.28871 0.53325 0.0
C1006 C 0.58321 0.30798 0.4725 0.0
C1007 C 0.60141 0.33855 0.49159 0.0
H1008 H 0.2241 0.63639 0.48815 0.0
H1009 H 0.2652 0.50452 0.50429 0.0
H1010 H 0.21882 0.50105 0.5487 0.0
H1011 H 0.15835 0.53155 0.57782 0.0
H1012 H 0.11716 0.66323 0.56202 0.0
H1013 H 0.17192 0.67107 0.52269 0.0
C1014 C 0.22383 0.60727 0.50188 0.0
C1015 C 0.24789 0.57056 0.49272 0.0
C1016 C 0.19636 0.6053 0.52705 0.0
C1017 C 0.2474 0.53326 0.51087 0.0
C1018 C 0.22036 0.53112 0.53606 0.0
C1019 C 0.16166 0.56227 0.56608 0.0
C1020 C 0.13266 0.59663 0.57238 0.0
C1021 C 0.19335 0.56629 0.54355 0.0
C1022 C 0.13834 0.63631 0.5574 0.0
C1023 C 0.16973 0.64062 0.53485 0.0
H1024 H 0.96661 0.15699 0.5748 0.0
H1025 H 0.82909 0.13264 0.56667 0.0
H1026 H 0.82435 0.1885 0.52749 0.0
H1027 H 0.86125 0.23799 0.49176 0.0
H1028 H -0.00136 0.26168 0.5005 0.0
H1029 H 0.00133 0.21301 0.54392 0.0
C1030 C 0.93538 0.16382 0.56463 0.0
C1031 C 0.89837 0.13941 0.57312 0.0
C1032 C 0.93297 0.19615 0.54239 0.0
C1033 C 0.85823 0.1498 0.56008 0.0
C1034 C 0.85554 0.18201 0.53779 0.0
C1035 C 0.89154 0.23346 0.50376 0.0
C1036 C 0.92978 0.25344 0.49288 0.0
C1037 C 0.89292 0.20456 0.52826 0.0
C1038 C 0.96874 0.24732 0.50861 0.0
C1039 C 0.97034 0.2189 0.53315 0.0
H1040 H 0.8538 0.02964 0.96118 0.0
H1041 H 0.8636 0.16961 0.96025 0.0
H1042 H 0.80176 0.17383 0.99476 0.0
H1043 H 0.75064 0.13699 0.02951 0.0
H1044 H 0.74261 0.99718 0.03033 0.0
H1045 H 0.79723 0.99362 0.99079 0.0
C1046 C 0.8425 0.06129 0.96834 0.0
C1047 C 0.86421 0.09936 0.95847 0.0
C1048 C 0.80674 0.06336 0.98784 0.0
C1049 C 0.84828 0.13983 0.96778 0.0
C1050 C 0.81268 0.14218 0.98739 0.0
C1051 C 0.75938 0.10584 0.01996 0.0
C1052 C 0.74178 0.06736 0.03251 0.0
C1053 C 0.79217 0.10411 0.99798 0.0
C1054 C 0.75431 0.02722 0.02049 0.0
C1055 C 0.78644 0.02522 0.99836 0.0
H1056 H 0.35067 0.87616 0.98224 0.0
H1057 H 0.45637 0.81767 0.93408 0.0
H1058 H 0.46673 0.76453 0.97384 0.0
H1059 H 0.45492 0.74333 0.02687 0.0
H1060 H 0.34754 0.80028 0.07427 0.0
H1061 H 0.32851 0.84371 0.03068 0.0
C1062 C 0.375 0.85101 0.98007 0.0
C1063 C 0.40344 0.85193 0.95557 0.0
C1064 C 0.38132 0.82035 1.00342 0.0
C1065 C 0.43467 0.81863 0.95311 0.0
C1066 C 0.4408 0.78806 0.97593 0.0
C1067 C 0.42674 0.76435 0.02738 0.0
C1068 C 0.40381 0.76955 0.05431 0.0
C1069 C 0.41584 0.78995 1.002 0.0
C1070 C 0.36683 0.79658 0.0542 0.0
C1071 C 0.35574 0.82161 0.0292 0.0
H1072 H 0.72846 0.35812 0.04373 0.0
H1073 H 0.75508 0.4949 0.03317 0.0
H1074 H 0.71015 0.4966 0.98792 0.0
H1075 H 0.65366 0.46218 0.95739 0.0
H1076 H 0.62606 0.32563 0.96753 0.0
H1077 H 0.68144 0.32046 1.00695 0.0
C1078 C 0.72556 0.38794 0.03087 0.0
C1079 C 0.7447 0.42647 0.04183 0.0
C1080 C 0.69868 0.38882 1.0054 0.0
C1081 C 0.74102 0.46484 0.02503 0.0
C1082 C 0.71475 0.4659 0.99944 0.0
C1083 C 0.6599 0.43104 0.96796 0.0
C1084 C 0.6343 0.39447 0.96043 0.0
C1085 C 0.69178 0.42858 0.99039 0.0
C1086 C 0.64411 0.35432 0.97363 0.0
C1087 C 0.67595 0.35148 0.99605 0.0
H1088 H 0.01186 0.70955 0.03991 0.0
H1089 H 0.12475 0.78616 0.01971 0.0
H1090 H 0.14356 0.73607 0.97877 0.0
H1091 H 0.13047 0.66469 0.95148 0.0
H1092 H 0.02144 0.58615 0.97977 0.0
H1093 H -0.00021 0.64127 1.0149 0.0
C1094 C 0.03956 0.71641 0.02566 0.0
C1095 C 0.06564 0.7527 0.03211 0.0
C1096 C 0.05208 0.68554 1.00421 0.0
C1097 C 0.10283 0.75969 1.01442 0.0
C1098 C 0.11425 0.73021 0.99152 0.0
C1099 C 0.1025 0.65946 0.96571 0.0
C1100 C 0.07769 0.62082 0.96265 0.0
C1101 C 0.08987 0.69191 0.9868 0.0
C1102 C 0.04123 0.61524 0.98126 0.0
C1103 C 0.0284 0.64705 1.00137 0.0
loop_
_geom_bond_atom_site_label_1
_geom_bond_atom_site_label_2
_geom_bond_distance
_geom_bond_site_symmetry_2
_ccdc_geom_bond_type
O0 Mn1 2.163 . S
O0 C14 1.244 . S
Mn1 O0 2.163 . S
Mn1 O4 2.160 . S
Mn1 O5 2.221 . S
Mn1 O7 2.163 . S
Mn1 O9 2.160 . S
Mn1 O19 2.221 . S
O2 Mn3 2.087 . S
O2 C14 1.256 . S
Mn3 O2 2.087 . S
Mn3 O10 2.089 . S
Mn3 O19 2.290 . S
Mn3 O20 2.251 . S
O4 Mn1 2.160 . S
O4 C15 1.239 . S
O5 Mn1 2.221 . S
O5 Mn6 2.290 . S
O5 C16 1.278 . S
Mn6 O5 2.290 . S
Mn6 O8 2.089 . S
Mn6 O11 2.251 . S
Mn6 O12 2.087 . S
O7 Mn1 2.163 . S
O7 C17 1.244 . S
O8 Mn6 2.089 . S
O8 C15 1.256 . S
O9 Mn1 2.160 . S
O9 C18 1.239 . S
O10 Mn3 2.089 . S
O10 C18 1.256 . S
O11 Mn6 2.251 . S
O11 C16 1.241 . S
O12 Mn6 2.087 . S
O12 C17 1.256 . S
C13 O19 1.278 . S
C13 O20 1.241 . S
C14 O0 1.244 . S
C14 O2 1.256 . S
C15 O4 1.239 . S
C15 O8 1.256 . S
C16 O5 1.278 . S
C16 O11 1.241 . S
C17 O7 1.244 . S
C17 O12 1.256 . S
C18 O9 1.239 . S
C18 O10 1.256 . S
O19 Mn1 2.221 . S
O19 Mn3 2.290 . S
O19 C13 1.278 . S
O20 Mn3 2.251 . S
O20 C13 1.241 . S
O21 Mn22 2.163 . S
O21 C35 1.244 . S
Mn22 O21 2.163 . S
Mn22 O25 2.160 . S
Mn22 O26 2.221 . S
Mn22 O28 2.163 . S
Mn22 O30 2.160 . S
Mn22 O40 2.221 . S
O23 Mn24 2.087 . S
O23 C35 1.256 . S
Mn24 O23 2.087 . S
Mn24 O31 2.089 . S
Mn24 O40 2.290 . S
Mn24 O41 2.251 . S
O25 Mn22 2.160 . S
O25 C36 1.239 . S
O26 Mn22 2.221 . S
O26 Mn27 2.290 . S
O26 C37 1.278 . S
Mn27 O26 2.290 . S
Mn27 O29 2.089 . S
Mn27 O32 2.251 . S
Mn27 O33 2.087 . S
O28 Mn22 2.163 . S
O28 C38 1.244 . S
O29 Mn27 2.089 . S
O29 C36 1.256 . S
O30 Mn22 2.160 . S
O30 C39 1.239 . S
O31 Mn24 2.089 . S
O31 C39 1.256 . S
O32 Mn27 2.251 . S
O32 C37 1.241 . S
O33 Mn27 2.087 . S
O33 C38 1.256 . S
C34 O40 1.278 . S
C34 O41 1.241 . S
C35 O21 1.244 . S
C35 O23 1.256 . S
C36 O25 1.239 . S
C36 O29 1.256 . S
C37 O26 1.278 . S
C37 O32 1.241 . S
C38 O28 1.244 . S
C38 O33 1.256 . S
C39 O30 1.239 . S
C39 O31 1.256 . S
O40 Mn22 2.221 . S
O40 Mn24 2.290 . S
O40 C34 1.278 . S
O41 Mn24 2.251 . S
O41 C34 1.241 . S
O42 Mn43 2.163 . S
O42 C56 1.244 . S
Mn43 O42 2.163 . S
Mn43 O46 2.160 . S
Mn43 O47 2.221 . S
Mn43 O49 2.163 1_655 S
Mn43 O51 2.160 . S
Mn43 O61 2.221 . S
O44 Mn45 2.087 . S
O44 C56 1.256 . S
Mn45 O44 2.087 . S
Mn45 O52 2.089 . S
Mn45 O61 2.290 . S
Mn45 O62 2.251 1_655 S
O46 Mn43 2.160 . S
O46 C57 1.239 . S
O47 Mn43 2.221 . S
O47 Mn48 2.290 . S
O47 C58 1.278 . S
Mn48 O47 2.290 . S
Mn48 O50 2.089 . S
Mn48 O53 2.251 . S
Mn48 O54 2.087 1_655 S
O49 Mn43 2.163 1_455 S
O49 C59 1.244 . S
O50 Mn48 2.089 . S
O50 C57 1.256 . S
O51 Mn43 2.160 . S
O51 C60 1.239 . S
O52 Mn45 2.089 . S
O52 C60 1.256 . S
O53 Mn48 2.251 . S
O53 C58 1.241 . S
O54 Mn48 2.087 1_455 S
O54 C59 1.256 . S
C55 O61 1.278 . S
C55 O62 1.241 1_655 S
C56 O42 1.244 . S
C56 O44 1.256 . S
C57 O46 1.239 . S
C57 O50 1.256 . S
C58 O47 1.278 . S
C58 O53 1.241 . S
C59 O49 1.244 . S
C59 O54 1.256 . S
C60 O51 1.239 . S
C60 O52 1.256 . S
O61 Mn43 2.221 . S
O61 Mn45 2.290 . S
O61 C55 1.278 . S
O62 Mn45 2.251 1_455 S
O62 C55 1.241 1_455 S
O63 Mn64 2.163 . S
O63 C77 1.244 . S
Mn64 O63 2.163 . S
Mn64 O67 2.160 . S
Mn64 O68 2.221 . S
Mn64 O70 2.163 1_565 S
Mn64 O72 2.160 . S
Mn64 O82 2.221 . S
O65 Mn66 2.087 . S
O65 C77 1.256 . S
Mn66 O65 2.087 . S
Mn66 O73 2.089 . S
Mn66 O82 2.290 . S
Mn66 O83 2.251 1_565 S
O67 Mn64 2.160 . S
O67 C78 1.239 . S
O68 Mn64 2.221 . S
O68 Mn69 2.290 . S
O68 C79 1.278 . S
Mn69 O68 2.290 . S
Mn69 O71 2.089 . S
Mn69 O74 2.251 . S
Mn69 O75 2.087 1_565 S
O70 Mn64 2.163 1_545 S
O70 C80 1.244 . S
O71 Mn69 2.089 . S
O71 C78 1.256 . S
O72 Mn64 2.160 . S
O72 C81 1.239 . S
O73 Mn66 2.089 . S
O73 C81 1.256 . S
O74 Mn69 2.251 . S
O74 C79 1.241 . S
O75 Mn69 2.087 1_545 S
O75 C80 1.256 . S
C76 O82 1.278 . S
C76 O83 1.241 1_565 S
C77 O63 1.244 . S
C77 O65 1.256 . S
C78 O67 1.239 . S
C78 O71 1.256 . S
C79 O68 1.278 . S
C79 O74 1.241 . S
C80 O70 1.244 . S
C80 O75 1.256 . S
C81 O72 1.239 . S
C81 O73 1.256 . S
O82 Mn64 2.221 . S
O82 Mn66 2.290 . S
O82 C76 1.278 . S
O83 Mn66 2.251 1_545 S
O83 C76 1.241 1_545 S
O84 Mn85 2.163 . S
O84 C98 1.244 . S
Mn85 O84 2.163 . S
Mn85 O88 2.160 . S
Mn85 O89 2.221 . S
Mn85 O91 2.163 1_455 S
Mn85 O93 2.160 . S
Mn85 O103 2.221 . S
O86 Mn87 2.087 . S
O86 C98 1.256 . S
Mn87 O86 2.087 . S
Mn87 O94 2.089 . S
Mn87 O103 2.290 . S
Mn87 O104 2.251 1_455 S
O88 Mn85 2.160 . S
O88 C99 1.239 . S
O89 Mn85 2.221 . S
O89 Mn90 2.290 . S
O89 C100 1.278 . S
Mn90 O89 2.290 . S
Mn90 O92 2.089 . S
Mn90 O95 2.251 . S
Mn90 O96 2.087 1_455 S
O91 Mn85 2.163 1_655 S
O91 C101 1.244 . S
O92 Mn90 2.089 . S
O92 C99 1.256 . S
O93 Mn85 2.160 . S
O93 C102 1.239 . S
O94 Mn87 2.089 . S
O94 C102 1.256 . S
O95 Mn90 2.251 . S
O95 C100 1.241 . S
O96 Mn90 2.087 1_655 S
O96 C101 1.256 . S
C97 O103 1.278 . S
C97 O104 1.241 1_455 S
C98 O84 1.244 . S
C98 O86 1.256 . S
C99 O88 1.239 . S
C99 O92 1.256 . S
C100 O89 1.278 . S
C100 O95 1.241 . S
C101 O91 1.244 . S
C101 O96 1.256 . S
C102 O93 1.239 . S
C102 O94 1.256 . S
O103 Mn85 2.221 . S
O103 Mn87 2.290 . S
O103 C97 1.278 . S
O104 Mn87 2.251 1_655 S
O104 C97 1.241 1_655 S
O105 Mn106 2.163 . S
O105 C119 1.244 . S
Mn106 O105 2.163 . S
Mn106 O109 2.160 . S
Mn106 O110 2.221 . S
Mn106 O112 2.163 1_545 S
Mn106 O114 2.160 . S
Mn106 O124 2.221 . S
O107 Mn108 2.087 . S
O107 C119 1.256 . S
Mn108 O107 2.087 . S
Mn108 O115 2.089 . S
Mn108 O124 2.290 . S
Mn108 O125 2.251 1_545 S
O109 Mn106 2.160 . S
O109 C120 1.239 . S
O110 Mn106 2.221 . S
O110 Mn111 2.290 . S
O110 C121 1.278 . S
Mn111 O110 2.290 . S
Mn111 O113 2.089 . S
Mn111 O116 2.251 . S
Mn111 O117 2.087 1_545 S
O112 Mn106 2.163 1_565 S
O112 C122 1.244 . S
O113 Mn111 2.089 . S
O113 C120 1.256 . S
O114 Mn106 2.160 . S
O114 C123 1.239 . S
O115 Mn108 2.089 . S
O115 C123 1.256 . S
O116 Mn111 2.251 . S
O116 C121 1.241 . S
O117 Mn111 2.087 1_565 S
O117 C122 1.256 . S
C118 O124 1.278 . S
C118 O125 1.241 1_545 S
C119 O105 1.244 . S
C119 O107 1.256 . S
C120 O109 1.239 . S
C120 O113 1.256 . S
C121 O110 1.278 . S
C121 O116 1.241 . S
C122 O112 1.244 . S
C122 O117 1.256 . S
C123 O114 1.239 . S
C123 O115 1.256 . S
O124 Mn106 2.221 . S
O124 Mn108 2.290 . S
O124 C118 1.278 . S
O125 Mn108 2.251 1_565 S
O125 C118 1.241 1_565 S
O126 Mn127 2.163 . S
O126 C140 1.244 . S
Mn127 O126 2.163 . S
Mn127 O130 2.160 . S
Mn127 O131 2.221 . S
Mn127 O133 2.163 . S
Mn127 O135 2.160 . S
Mn127 O145 2.221 . S
O128 Mn129 2.087 . S
O128 C140 1.256 . S
Mn129 O128 2.087 . S
Mn129 O136 2.089 . S
Mn129 O145 2.290 . S
Mn129 O146 2.251 . S
O130 Mn127 2.160 . S
O130 C141 1.239 . S
O131 Mn127 2.221 . S
O131 Mn132 2.290 . S
O131 C142 1.278 . S
Mn132 O131 2.290 . S
Mn132 O134 2.089 . S
Mn132 O137 2.251 . S
Mn132 O138 2.087 . S
O133 Mn127 2.163 . S
O133 C143 1.244 . S
O134 Mn132 2.089 . S
O134 C141 1.256 . S
O135 Mn127 2.160 . S
O135 C144 1.239 . S
O136 Mn129 2.089 . S
O136 C144 1.256 . S
O137 Mn132 2.251 . S
O137 C142 1.241 . S
O138 Mn132 2.087 . S
O138 C143 1.256 . S
C139 O145 1.278 . S
C139 O146 1.241 . S
C140 O126 1.244 . S
C140 O128 1.256 . S
C141 O130 1.239 . S
C141 O134 1.256 . S
C142 O131 1.278 . S
C142 O137 1.241 . S
C143 O133 1.244 . S
C143 O138 1.256 . S
C144 O135 1.239 . S
C144 O136 1.256 . S
O145 Mn127 2.221 . S
O145 Mn129 2.290 . S
O145 C139 1.278 . S
O146 Mn129 2.251 . S
O146 C139 1.241 . S
O147 Mn148 2.163 . S
O147 C161 1.244 . S
Mn148 O147 2.163 . S
Mn148 O151 2.160 . S
Mn148 O152 2.221 . S
Mn148 O154 2.163 . S
Mn148 O156 2.160 . S
Mn148 O166 2.221 . S
O149 Mn150 2.087 . S
O149 C161 1.256 . S
Mn150 O149 2.087 . S
Mn150 O157 2.089 . S
Mn150 O166 2.290 . S
Mn150 O167 2.251 . S
O151 Mn148 2.160 . S
O151 C162 1.239 . S
O152 Mn148 2.221 . S
O152 Mn153 2.290 . S
O152 C163 1.278 . S
Mn153 O152 2.290 . S
Mn153 O155 2.089 . S
Mn153 O158 2.251 . S
Mn153 O159 2.087 . S
O154 Mn148 2.163 . S
O154 C164 1.244 . S
O155 Mn153 2.089 . S
O155 C162 1.256 . S
O156 Mn148 2.160 . S
O156 C165 1.239 . S
O157 Mn150 2.089 . S
O157 C165 1.256 . S
O158 Mn153 2.251 . S
O158 C163 1.241 . S
O159 Mn153 2.087 . S
O159 C164 1.256 . S
C160 O166 1.278 . S
C160 O167 1.241 . S
C161 O147 1.244 . S
C161 O149 1.256 . S
C162 O151 1.239 . S
C162 O155 1.256 . S
C163 O152 1.278 . S
C163 O158 1.241 . S
C164 O154 1.244 . S
C164 O159 1.256 . S
C165 O156 1.239 . S
C165 O157 1.256 . S
O166 Mn148 2.221 . S
O166 Mn150 2.290 . S
O166 C160 1.278 . S
O167 Mn150 2.251 . S
O167 C160 1.241 . S
O168 Mn169 2.163 . S
O168 C182 1.244 . S
Mn169 O168 2.163 . S
Mn169 O172 2.160 . S
Mn169 O173 2.221 . S
Mn169 O175 2.163 . S
Mn169 O177 2.160 . S
Mn169 O187 2.221 . S
O170 Mn171 2.087 . S
O170 C182 1.256 . S
Mn171 O170 2.087 . S
Mn171 O178 2.089 . S
Mn171 O187 2.290 . S
Mn171 O188 2.251 . S
O172 Mn169 2.160 . S
O172 C183 1.239 . S
O173 Mn169 2.221 . S
O173 Mn174 2.290 . S
O173 C184 1.278 . S
Mn174 O173 2.290 . S
Mn174 O176 2.089 . S
Mn174 O179 2.251 . S
Mn174 O180 2.087 . S
O175 Mn169 2.163 . S
O175 C185 1.244 . S
O176 Mn174 2.089 . S
O176 C183 1.256 . S
O177 Mn169 2.160 . S
O177 C186 1.239 . S
O178 Mn171 2.089 . S
O178 C186 1.256 . S
O179 Mn174 2.251 . S
O179 C184 1.241 . S
O180 Mn174 2.087 . S
O180 C185 1.256 . S
C181 O187 1.278 . S
C181 O188 1.241 . S
C182 O168 1.244 . S
C182 O170 1.256 . S
C183 O172 1.239 . S
C183 O176 1.256 . S
C184 O173 1.278 . S
C184 O179 1.241 . S
C185 O175 1.244 . S
C185 O180 1.256 . S
C186 O177 1.239 . S
C186 O178 1.256 . S
O187 Mn169 2.221 . S
O187 Mn171 2.290 . S
O187 C181 1.278 . S
O188 Mn171 2.251 . S
O188 C181 1.241 . S
O189 Mn190 2.163 . S
O189 C203 1.244 . S
Mn190 O189 2.163 . S
Mn190 O193 2.160 . S
Mn190 O194 2.221 . S
Mn190 O196 2.163 . S
Mn190 O198 2.160 . S
Mn190 O208 2.221 . S
O191 Mn192 2.087 . S
O191 C203 1.256 . S
Mn192 O191 2.087 . S
Mn192 O199 2.089 . S
Mn192 O208 2.290 . S
Mn192 O209 2.251 . S
O193 Mn190 2.160 . S
O193 C204 1.239 . S
O194 Mn190 2.221 . S
O194 Mn195 2.290 . S
O194 C205 1.278 . S
Mn195 O194 2.290 . S
Mn195 O197 2.089 . S
Mn195 O200 2.251 . S
Mn195 O201 2.087 . S
O196 Mn190 2.163 . S
O196 C206 1.244 . S
O197 Mn195 2.089 . S
O197 C204 1.256 . S
O198 Mn190 2.160 . S
O198 C207 1.239 . S
O199 Mn192 2.089 . S
O199 C207 1.256 . S
O200 Mn195 2.251 . S
O200 C205 1.241 . S
O201 Mn195 2.087 . S
O201 C206 1.256 . S
C202 O208 1.278 . S
C202 O209 1.241 . S
C203 O189 1.244 . S
C203 O191 1.256 . S
C204 O193 1.239 . S
C204 O197 1.256 . S
C205 O194 1.278 . S
C205 O200 1.241 . S
C206 O196 1.244 . S
C206 O201 1.256 . S
C207 O198 1.239 . S
C207 O199 1.256 . S
O208 Mn190 2.221 . S
O208 Mn192 2.290 . S
O208 C202 1.278 . S
O209 Mn192 2.251 . S
O209 C202 1.241 . S
O210 Mn211 2.163 . S
O210 C224 1.244 . S
Mn211 O210 2.163 . S
Mn211 O214 2.160 . S
Mn211 O215 2.221 . S
Mn211 O217 2.163 1_455 S
Mn211 O219 2.160 . S
Mn211 O229 2.221 . S
O212 Mn213 2.087 . S
O212 C224 1.256 . S
Mn213 O212 2.087 . S
Mn213 O220 2.089 . S
Mn213 O229 2.290 . S
Mn213 O230 2.251 1_455 S
O214 Mn211 2.160 . S
O214 C225 1.239 . S
O215 Mn211 2.221 . S
O215 Mn216 2.290 . S
O215 C226 1.278 . S
Mn216 O215 2.290 . S
Mn216 O218 2.089 . S
Mn216 O221 2.251 . S
Mn216 O222 2.087 1_455 S
O217 Mn211 2.163 1_655 S
O217 C227 1.244 . S
O218 Mn216 2.089 . S
O218 C225 1.256 . S
O219 Mn211 2.160 . S
O219 C228 1.239 . S
O220 Mn213 2.089 . S
O220 C228 1.256 . S
O221 Mn216 2.251 . S
O221 C226 1.241 . S
O222 Mn216 2.087 1_655 S
O222 C227 1.256 . S
C223 O229 1.278 . S
C223 O230 1.241 1_455 S
C224 O210 1.244 . S
C224 O212 1.256 . S
C225 O214 1.239 . S
C225 O218 1.256 . S
C226 O215 1.278 . S
C226 O221 1.241 . S
C227 O217 1.244 . S
C227 O222 1.256 . S
C228 O219 1.239 . S
C228 O220 1.256 . S
O229 Mn211 2.221 . S
O229 Mn213 2.290 . S
O229 C223 1.278 . S
O230 Mn213 2.251 1_655 S
O230 C223 1.241 1_655 S
O231 Mn232 2.163 . S
O231 C245 1.244 . S
Mn232 O231 2.163 . S
Mn232 O235 2.160 . S
Mn232 O236 2.221 . S
Mn232 O238 2.163 1_545 S
Mn232 O240 2.160 . S
Mn232 O250 2.221 . S
O233 Mn234 2.087 . S
O233 C245 1.256 . S
Mn234 O233 2.087 . S
Mn234 O241 2.089 . S
Mn234 O250 2.290 . S
Mn234 O251 2.251 1_545 S
O235 Mn232 2.160 . S
O235 C246 1.239 . S
O236 Mn232 2.221 . S
O236 Mn237 2.290 . S
O236 C247 1.278 . S
Mn237 O236 2.290 . S
Mn237 O239 2.089 . S
Mn237 O242 2.251 . S
Mn237 O243 2.087 1_545 S
O238 Mn232 2.163 1_565 S
O238 C248 1.244 . S
O239 Mn237 2.089 . S
O239 C246 1.256 . S
O240 Mn232 2.160 . S
O240 C249 1.239 . S
O241 Mn234 2.089 . S
O241 C249 1.256 . S
O242 Mn237 2.251 . S
O242 C247 1.241 . S
O243 Mn237 2.087 1_565 S
O243 C248 1.256 . S
C244 O250 1.278 . S
C244 O251 1.241 1_545 S
C245 O231 1.244 . S
C245 O233 1.256 . S
C246 O235 1.239 . S
C246 O239 1.256 . S
C247 O236 1.278 . S
C247 O242 1.241 . S
C248 O238 1.244 . S
C248 O243 1.256 . S
C249 O240 1.239 . S
C249 O241 1.256 . S
O250 Mn232 2.221 . S
O250 Mn234 2.290 . S
O250 C244 1.278 . S
O251 Mn234 2.251 1_565 S
O251 C244 1.241 1_565 S
O252 Mn253 2.163 . S
O252 C266 1.244 . S
Mn253 O252 2.163 . S
Mn253 O256 2.160 . S
Mn253 O257 2.221 . S
Mn253 O259 2.163 1_655 S
Mn253 O261 2.160 . S
Mn253 O271 2.221 . S
O254 Mn255 2.087 . S
O254 C266 1.256 . S
Mn255 O254 2.087 . S
Mn255 O262 2.089 . S
Mn255 O271 2.290 . S
Mn255 O272 2.251 1_655 S
O256 Mn253 2.160 . S
O256 C267 1.239 . S
O257 Mn253 2.221 . S
O257 Mn258 2.290 . S
O257 C268 1.278 . S
Mn258 O257 2.290 . S
Mn258 O260 2.089 . S
Mn258 O263 2.251 . S
Mn258 O264 2.087 1_655 S
O259 Mn253 2.163 1_455 S
O259 C269 1.244 . S
O260 Mn258 2.089 . S
O260 C267 1.256 . S
O261 Mn253 2.160 . S
O261 C270 1.239 . S
O262 Mn255 2.089 . S
O262 C270 1.256 . S
O263 Mn258 2.251 . S
O263 C268 1.241 . S
O264 Mn258 2.087 1_455 S
O264 C269 1.256 . S
C265 O271 1.278 . S
C265 O272 1.241 1_655 S
C266 O252 1.244 . S
C266 O254 1.256 . S
C267 O256 1.239 . S
C267 O260 1.256 . S
C268 O257 1.278 . S
C268 O263 1.241 . S
C269 O259 1.244 . S
C269 O264 1.256 . S
C270 O261 1.239 . S
C270 O262 1.256 . S
O271 Mn253 2.221 . S
O271 Mn255 2.290 . S
O271 C265 1.278 . S
O272 Mn255 2.251 1_455 S
O272 C265 1.241 1_455 S
O273 Mn274 2.163 . S
O273 C287 1.244 . S
Mn274 O273 2.163 . S
Mn274 O277 2.160 . S
Mn274 O278 2.221 . S
Mn274 O280 2.163 1_565 S
Mn274 O282 2.160 . S
Mn274 O292 2.221 . S
O275 Mn276 2.087 . S
O275 C287 1.256 . S
Mn276 O275 2.087 . S
Mn276 O283 2.089 . S
Mn276 O292 2.290 . S
Mn276 O293 2.251 1_565 S
O277 Mn274 2.160 . S
O277 C288 1.239 . S
O278 Mn274 2.221 . S
O278 Mn279 2.290 . S
O278 C289 1.278 . S
Mn279 O278 2.290 . S
Mn279 O281 2.089 . S
Mn279 O284 2.251 . S
Mn279 O285 2.087 1_565 S
O280 Mn274 2.163 1_545 S
O280 C290 1.244 . S
O281 Mn279 2.089 . S
O281 C288 1.256 . S
O282 Mn274 2.160 . S
O282 C291 1.239 . S
O283 Mn276 2.089 . S
O283 C291 1.256 . S
O284 Mn279 2.251 . S
O284 C289 1.241 . S
O285 Mn279 2.087 1_545 S
O285 C290 1.256 . S
C286 O292 1.278 . S
C286 O293 1.241 1_565 S
C287 O273 1.244 . S
C287 O275 1.256 . S
C288 O277 1.239 . S
C288 O281 1.256 . S
C289 O278 1.278 . S
C289 O284 1.241 . S
C290 O280 1.244 . S
C290 O285 1.256 . S
C291 O282 1.239 . S
C291 O283 1.256 . S
O292 Mn274 2.221 . S
O292 Mn276 2.290 . S
O292 C286 1.278 . S
O293 Mn276 2.251 1_545 S
O293 C286 1.241 1_545 S
O294 Mn295 2.163 . S
O294 C308 1.244 . S
Mn295 O294 2.163 . S
Mn295 O298 2.160 . S
Mn295 O299 2.221 . S
Mn295 O301 2.163 . S
Mn295 O303 2.160 . S
Mn295 O313 2.221 . S
O296 Mn297 2.087 . S
O296 C308 1.256 . S
Mn297 O296 2.087 . S
Mn297 O304 2.089 . S
Mn297 O313 2.290 . S
Mn297 O314 2.251 . S
O298 Mn295 2.160 . S
O298 C309 1.239 . S
O299 Mn295 2.221 . S
O299 Mn300 2.290 . S
O299 C310 1.278 . S
Mn300 O299 2.290 . S
Mn300 O302 2.089 . S
Mn300 O305 2.251 . S
Mn300 O306 2.087 . S
O301 Mn295 2.163 . S
O301 C311 1.244 . S
O302 Mn300 2.089 . S
O302 C309 1.256 . S
O303 Mn295 2.160 . S
O303 C312 1.239 . S
O304 Mn297 2.089 . S
O304 C312 1.256 . S
O305 Mn300 2.251 . S
O305 C310 1.241 . S
O306 Mn300 2.087 . S
O306 C311 1.256 . S
C307 O313 1.278 . S
C307 O314 1.241 . S
C308 O294 1.244 . S
C308 O296 1.256 . S
C309 O298 1.239 . S
C309 O302 1.256 . S
C310 O299 1.278 . S
C310 O305 1.241 . S
C311 O301 1.244 . S
C311 O306 1.256 . S
C312 O303 1.239 . S
C312 O304 1.256 . S
O313 Mn295 2.221 . S
O313 Mn297 2.290 . S
O313 C307 1.278 . S
O314 Mn297 2.251 . S
O314 C307 1.241 . S
O315 Mn316 2.163 . S
O315 C329 1.244 . S
Mn316 O315 2.163 . S
Mn316 O319 2.160 . S
Mn316 O320 2.221 . S
Mn316 O322 2.163 . S
Mn316 O324 2.160 . S
Mn316 O334 2.221 . S
O317 Mn318 2.087 . S
O317 C329 1.256 . S
Mn318 O317 2.087 . S
Mn318 O325 2.089 . S
Mn318 O334 2.290 . S
Mn318 O335 2.251 . S
O319 Mn316 2.160 . S
O319 C330 1.239 . S
O320 Mn316 2.221 . S
O320 Mn321 2.290 . S
O320 C331 1.278 . S
Mn321 O320 2.290 . S
Mn321 O323 2.089 . S
Mn321 O326 2.251 . S
Mn321 O327 2.087 . S
O322 Mn316 2.163 . S
O322 C332 1.244 . S
O323 Mn321 2.089 . S
O323 C330 1.256 . S
O324 Mn316 2.160 . S
O324 C333 1.239 . S
O325 Mn318 2.089 . S
O325 C333 1.256 . S
O326 Mn321 2.251 . S
O326 C331 1.241 . S
O327 Mn321 2.087 . S
O327 C332 1.256 . S
C328 O334 1.278 . S
C328 O335 1.241 . S
C329 O315 1.244 . S
C329 O317 1.256 . S
C330 O319 1.239 . S
C330 O323 1.256 . S
C331 O320 1.278 . S
C331 O326 1.241 . S
C332 O322 1.244 . S
C332 O327 1.256 . S
C333 O324 1.239 . S
C333 O325 1.256 . S
O334 Mn316 2.221 . S
O334 Mn318 2.290 . S
O334 C328 1.278 . S
O335 Mn318 2.251 . S
O335 C328 1.241 . S
H336 C342 0.930 . S
H337 C345 0.930 . S
H338 C346 0.930 . S
H339 C347 0.930 . S
H340 C350 0.930 . S
H341 C351 0.930 . S
C342 H336 0.930 . S
C342 C343 1.355 . S
C342 C344 1.415 . S
C343 C342 1.355 . S
C343 C345 1.419 . S
C344 C342 1.415 . S
C344 C349 1.425 . S
C344 C351 1.409 . S
C345 H337 0.930 . S
C345 C343 1.419 . S
C345 C346 1.362 . S
C346 H338 0.930 . S
C346 C345 1.362 . S
C346 C349 1.409 . S
C347 H339 0.930 . S
C347 C348 1.355 . S
C347 C349 1.415 . S
C348 C347 1.355 . S
C348 C350 1.419 . S
C349 C344 1.425 . S
C349 C346 1.409 . S
C349 C347 1.415 . S
C350 H340 0.930 . S
C350 C348 1.419 . S
C350 C351 1.362 . S
C351 H341 0.930 . S
C351 C344 1.409 . S
C351 C350 1.362 . S
H352 C358 0.930 . S
H353 C361 0.930 . S
H354 C362 0.930 . S
H355 C363 0.930 . S
H356 C366 0.930 . S
H357 C367 0.930 . S
C358 H352 0.930 . S
C358 C359 1.355 . S
C358 C360 1.415 . S
C359 C358 1.355 . S
C359 C361 1.419 . S
C360 C358 1.415 . S
C360 C365 1.425 . S
C360 C367 1.409 . S
C361 H353 0.930 . S
C361 C359 1.419 . S
C361 C362 1.362 . S
C362 H354 0.930 . S
C362 C361 1.362 . S
C362 C365 1.409 . S
C363 H355 0.930 . S
C363 C364 1.355 . S
C363 C365 1.415 . S
C364 C363 1.355 . S
C364 C366 1.419 . S
C365 C360 1.425 . S
C365 C362 1.409 . S
C365 C363 1.415 . S
C366 H356 0.930 . S
C366 C364 1.419 . S
C366 C367 1.362 . S
C367 H357 0.930 . S
C367 C360 1.409 . S
C367 C366 1.362 . S
H368 C374 0.930 . S
H369 C377 0.930 . S
H370 C378 0.930 . S
H371 C379 0.930 . S
H372 C382 0.930 . S
H373 C383 0.930 . S
C374 H368 0.930 . S
C374 C375 1.355 . S
C374 C376 1.415 . S
C375 C374 1.355 . S
C375 C377 1.419 . S
C376 C374 1.415 . S
C376 C381 1.425 . S
C376 C383 1.409 . S
C377 H369 0.930 . S
C377 C375 1.419 . S
C377 C378 1.362 . S
C378 H370 0.930 . S
C378 C377 1.362 . S
C378 C381 1.409 . S
C379 H371 0.930 . S
C379 C380 1.355 . S
C379 C381 1.415 . S
C380 C379 1.355 . S
C380 C382 1.419 . S
C381 C376 1.425 . S
C381 C378 1.409 . S
C381 C379 1.415 . S
C382 H372 0.930 . S
C382 C380 1.419 . S
C382 C383 1.362 . S
C383 H373 0.930 . S
C383 C376 1.409 . S
C383 C382 1.362 . S
H384 C390 0.930 . S
H385 C393 0.930 . S
H386 C394 0.930 . S
H387 C395 0.930 . S
H388 C398 0.930 1_655 S
H389 C399 0.930 . S
C390 H384 0.930 . S
C390 C391 1.355 . S
C390 C392 1.415 . S
C391 C390 1.355 . S
C391 C393 1.419 . S
C392 C390 1.415 . S
C392 C397 1.425 . S
C392 C399 1.409 . S
C393 H385 0.930 . S
C393 C391 1.419 . S
C393 C394 1.362 . S
C394 H386 0.930 . S
C394 C393 1.362 . S
C394 C397 1.409 . S
C395 H387 0.930 . S
C395 C396 1.355 . S
C395 C397 1.415 . S
C396 C395 1.355 . S
C396 C398 1.419 . S
C397 C392 1.425 . S
C397 C394 1.409 . S
C397 C395 1.415 . S
C398 H388 0.930 1_455 S
C398 C396 1.419 . S
C398 C399 1.362 . S
C399 H389 0.930 . S
C399 C392 1.409 . S
C399 C398 1.362 . S
H400 C406 0.930 . S
H401 C409 0.930 1_545 S
H402 C410 0.930 . S
H403 C411 0.930 . S
H404 C414 0.930 . S
H405 C415 0.930 . S
C406 H400 0.930 . S
C406 C407 1.355 . S
C406 C408 1.415 . S
C407 C406 1.355 . S
C407 C409 1.419 . S
C408 C406 1.415 . S
C408 C413 1.425 . S
C408 C415 1.409 . S
C409 H401 0.930 1_565 S
C409 C407 1.419 . S
C409 C410 1.362 . S
C410 H402 0.930 . S
C410 C409 1.362 . S
C410 C413 1.409 . S
C411 H403 0.930 . S
C411 C412 1.355 . S
C411 C413 1.415 . S
C412 C411 1.355 . S
C412 C414 1.419 . S
C413 C408 1.425 . S
C413 C410 1.409 . S
C413 C411 1.415 . S
C414 H404 0.930 . S
C414 C412 1.419 . S
C414 C415 1.362 . S
C415 H405 0.930 . S
C415 C408 1.409 . S
C415 C414 1.362 . S
H416 C422 0.930 . S
H417 C425 0.930 . S
H418 C426 0.930 . S
H419 C427 0.930 . S
H420 C430 0.930 . S
H421 C431 0.930 . S
C422 H416 0.930 . S
C422 C423 1.355 . S
C422 C424 1.415 . S
C423 C422 1.355 . S
C423 C425 1.419 . S
C424 C422 1.415 . S
C424 C429 1.425 . S
C424 C431 1.409 . S
C425 H417 0.930 . S
C425 C423 1.419 . S
C425 C426 1.362 . S
C426 H418 0.930 . S
C426 C425 1.362 . S
C426 C429 1.409 . S
C427 H419 0.930 . S
C427 C428 1.355 . S
C427 C429 1.415 . S
C428 C427 1.355 . S
C428 C430 1.419 . S
C429 C424 1.425 . S
C429 C426 1.409 . S
C429 C427 1.415 . S
C430 H420 0.930 . S
C430 C428 1.419 . S
C430 C431 1.362 . S
C431 H421 0.930 . S
C431 C424 1.409 . S
C431 C430 1.362 . S
H432 C438 0.930 . S
H433 C441 0.930 . S
H434 C442 0.930 . S
H435 C443 0.930 . S
H436 C446 0.930 . S
H437 C447 0.930 . S
C438 H432 0.930 . S
C438 C439 1.355 . S
C438 C440 1.415 . S
C439 C438 1.355 . S
C439 C441 1.419 . S
C440 C438 1.415 . S
C440 C445 1.425 . S
C440 C447 1.409 . S
C441 H433 0.930 . S
C441 C439 1.419 . S
C441 C442 1.362 . S
C442 H434 0.930 . S
C442 C441 1.362 . S
C442 C445 1.409 . S
C443 H435 0.930 . S
C443 C444 1.355 . S
C443 C445 1.415 . S
C444 C443 1.355 . S
C444 C446 1.419 . S
C445 C440 1.425 . S
C445 C442 1.409 . S
C445 C443 1.415 . S
C446 H436 0.930 . S
C446 C444 1.419 . S
C446 C447 1.362 . S
C447 H437 0.930 . S
C447 C440 1.409 . S
C447 C446 1.362 . S
H448 C454 0.930 . S
H449 C457 0.930 1_565 S
H450 C458 0.930 . S
H451 C459 0.930 . S
H452 C462 0.930 . S
H453 C463 0.930 . S
C454 H448 0.930 . S
C454 C455 1.355 . S
C454 C456 1.415 . S
C455 C454 1.355 . S
C455 C457 1.419 . S
C456 C454 1.415 . S
C456 C461 1.425 . S
C456 C463 1.409 . S
C457 H449 0.930 1_545 S
C457 C455 1.419 . S
C457 C458 1.362 . S
C458 H450 0.930 . S
C458 C457 1.362 . S
C458 C461 1.409 . S
C459 H451 0.930 . S
C459 C460 1.355 . S
C459 C461 1.415 . S
C460 C459 1.355 . S
C460 C462 1.419 . S
C461 C456 1.425 . S
C461 C458 1.409 . S
C461 C459 1.415 . S
C462 H452 0.930 . S
C462 C460 1.419 . S
C462 C463 1.362 . S
C463 H453 0.930 . S
C463 C456 1.409 . S
C463 C462 1.362 . S
H464 C470 0.930 . S
H465 C473 0.930 . S
H466 C474 0.930 . S
H467 C475 0.930 . S
H468 C478 0.930 1_565 S
H469 C479 0.930 1_565 S
C470 H464 0.930 . S
C470 C471 1.355 . S
C470 C472 1.415 . S
C471 C470 1.355 . S
C471 C473 1.419 . S
C472 C470 1.415 . S
C472 C477 1.425 . S
C472 C479 1.409 . S
C473 H465 0.930 . S
C473 C471 1.419 . S
C473 C474 1.362 . S
C474 H466 0.930 . S
C474 C473 1.362 . S
C474 C477 1.409 . S
C475 H467 0.930 . S
C475 C476 1.355 . S
C475 C477 1.415 . S
C476 C475 1.355 . S
C476 C478 1.419 . S
C477 C472 1.425 . S
C477 C474 1.409 . S
C477 C475 1.415 . S
C478 H468 0.930 1_545 S
C478 C476 1.419 . S
C478 C479 1.362 . S
C479 H469 0.930 1_545 S
C479 C472 1.409 . S
C479 C478 1.362 . S
H480 C486 0.930 . S
H481 C489 0.930 . S
H482 C490 0.930 . S
H483 C491 0.930 . S
H484 C494 0.930 . S
H485 C495 0.930 . S
C486 H480 0.930 . S
C486 C487 1.355 . S
C486 C488 1.415 . S
C487 C486 1.355 . S
C487 C489 1.419 . S
C488 C486 1.415 . S
C488 C493 1.425 . S
C488 C495 1.409 . S
C489 H481 0.930 . S
C489 C487 1.419 . S
C489 C490 1.362 . S
C490 H482 0.930 . S
C490 C489 1.362 . S
C490 C493 1.409 . S
C491 H483 0.930 . S
C491 C492 1.355 . S
C491 C493 1.415 . S
C492 C491 1.355 . S
C492 C494 1.419 . S
C493 C488 1.425 . S
C493 C490 1.409 . S
C493 C491 1.415 . S
C494 H484 0.930 . S
C494 C492 1.419 . S
C494 C495 1.362 . S
C495 H485 0.930 . S
C495 C488 1.409 . S
C495 C494 1.362 . S
H496 C502 0.930 . S
H497 C505 0.930 . S
H498 C506 0.930 . S
H499 C507 0.930 . S
H500 C510 0.930 . S
H501 C511 0.930 . S
C502 H496 0.930 . S
C502 C503 1.355 . S
C502 C504 1.415 . S
C503 C502 1.355 . S
C503 C505 1.419 . S
C504 C502 1.415 . S
C504 C509 1.425 . S
C504 C511 1.409 . S
C505 H497 0.930 . S
C505 C503 1.419 . S
C505 C506 1.362 . S
C506 H498 0.930 . S
C506 C505 1.362 . S
C506 C509 1.409 . S
C507 H499 0.930 . S
C507 C508 1.355 . S
C507 C509 1.415 . S
C508 C507 1.355 . S
C508 C510 1.419 . S
C509 C504 1.425 . S
C509 C506 1.409 . S
C509 C507 1.415 . S
C510 H500 0.930 . S
C510 C508 1.419 . S
C510 C511 1.362 . S
C511 H501 0.930 . S
C511 C504 1.409 . S
C511 C510 1.362 . S
H512 C518 0.930 . S
H513 C521 0.930 . S
H514 C522 0.930 . S
H515 C523 0.930 . S
H516 C526 0.903 1_655 S
H517 C527 0.930 1_655 S
C518 H512 0.930 . S
C518 C519 1.355 . S
C518 C520 1.415 . S
C519 C518 1.355 . S
C519 C521 1.419 . S
C520 C518 1.415 . S
C520 C525 1.425 . S
C520 C527 1.409 . S
C521 H513 0.930 . S
C521 C519 1.419 . S
C521 C522 1.362 . S
C522 H514 0.930 . S
C522 C521 1.362 . S
C522 C525 1.409 . S
C523 H515 0.930 . S
C523 C524 1.355 . S
C523 C525 1.415 . S
C524 C523 1.355 . S
C524 C526 1.436 . S
C525 C520 1.425 . S
C525 C522 1.409 . S
C525 C523 1.415 . S
C526 H516 0.903 1_455 S
C526 C524 1.436 . S
C526 C527 1.372 . S
C527 H517 0.930 1_455 S
C527 C520 1.409 . S
C527 C526 1.372 . S
H528 C534 0.930 . S
H529 C537 0.930 . S
H530 C538 0.930 . S
H531 C539 0.930 1_545 S
H532 C542 0.930 . S
H533 C543 0.930 . S
C534 H528 0.930 . S
C534 C535 1.355 . S
C534 C536 1.415 . S
C535 C534 1.355 . S
C535 C537 1.419 . S
C536 C534 1.415 . S
C536 C541 1.425 . S
C536 C543 1.409 . S
C537 H529 0.930 . S
C537 C535 1.419 . S
C537 C538 1.362 . S
C538 H530 0.930 . S
C538 C537 1.362 . S
C538 C541 1.409 . S
C539 H531 0.930 1_565 S
C539 C540 1.355 . S
C539 C541 1.415 . S
C540 C539 1.355 . S
C540 C542 1.419 . S
C541 C536 1.425 . S
C541 C538 1.409 . S
C541 C539 1.415 . S
C542 H532 0.930 . S
C542 C540 1.419 . S
C542 C543 1.362 . S
C543 H533 0.930 . S
C543 C536 1.409 . S
C543 C542 1.362 . S
H544 C550 0.930 . S
H545 C553 0.930 . S
H546 C554 0.930 . S
H547 C555 0.930 . S
H548 C558 0.930 . S
H549 C559 0.930 . S
C550 H544 0.930 . S
C550 C551 1.355 . S
C550 C552 1.415 . S
C551 C550 1.355 . S
C551 C553 1.419 . S
C552 C550 1.415 . S
C552 C557 1.425 . S
C552 C559 1.409 . S
C553 H545 0.930 . S
C553 C551 1.419 . S
C553 C554 1.362 . S
C554 H546 0.930 . S
C554 C553 1.362 . S
C554 C557 1.409 . S
C555 H547 0.930 . S
C555 C556 1.355 . S
C555 C557 1.415 . S
C556 C555 1.355 . S
C556 C558 1.419 . S
C557 C552 1.425 . S
C557 C554 1.409 . S
C557 C555 1.415 . S
C558 H548 0.930 . S
C558 C556 1.419 . S
C558 C559 1.362 . S
C559 H549 0.930 . S
C559 C552 1.409 . S
C559 C558 1.362 . S
H560 C566 0.930 . S
H561 C569 0.930 . S
H562 C570 0.930 . S
H563 C571 0.930 . S
H564 C574 0.930 . S
H565 C575 0.930 . S
C566 H560 0.930 . S
C566 C567 1.355 . S
C566 C568 1.415 . S
C567 C566 1.355 . S
C567 C569 1.419 . S
C568 C566 1.415 . S
C568 C573 1.425 . S
C568 C575 1.409 . S
C569 H561 0.930 . S
C569 C567 1.419 . S
C569 C570 1.362 . S
C570 H562 0.930 . S
C570 C569 1.362 . S
C570 C573 1.409 . S
C571 H563 0.930 . S
C571 C572 1.355 . S
C571 C573 1.415 . S
C572 C571 1.355 . S
C572 C574 1.419 . S
C573 C568 1.425 . S
C573 C570 1.409 . S
C573 C571 1.415 . S
C574 H564 0.930 . S
C574 C572 1.419 . S
C574 C575 1.362 . S
C575 H565 0.930 . S
C575 C568 1.409 . S
C575 C574 1.362 . S
H576 C582 0.930 . S
H577 C585 0.934 . S
H578 C586 0.930 1_455 S
H579 C587 0.930 . S
H580 C590 0.930 . S
H581 C591 0.930 . S
C582 H576 0.930 . S
C582 C583 1.355 . S
C582 C584 1.415 . S
C583 C582 1.355 . S
C583 C585 1.416 1_655 S
C584 C582 1.415 . S
C584 C589 1.425 . S
C584 C591 1.409 . S
C585 H577 0.934 . S
C585 C583 1.416 1_455 S
C585 C586 1.361 1_455 S
C586 H578 0.930 1_655 S
C586 C585 1.361 1_655 S
C586 C589 1.409 . S
C587 H579 0.930 . S
C587 C588 1.355 . S
C587 C589 1.415 . S
C588 C587 1.355 . S
C588 C590 1.419 . S
C589 C584 1.425 . S
C589 C586 1.409 . S
C589 C587 1.415 . S
C590 H580 0.930 . S
C590 C588 1.419 . S
C590 C591 1.362 . S
C591 H581 0.930 . S
C591 C584 1.409 . S
C591 C590 1.362 . S
H592 C598 0.930 1_545 S
H593 C601 0.930 . S
H594 C602 0.930 . S
H595 C603 0.930 . S
H596 C606 0.930 . S
H597 C607 0.930 . S
C598 H592 0.930 1_565 S
C598 C599 1.355 . S
C598 C600 1.415 . S
C599 C598 1.355 . S
C599 C601 1.419 . S
C600 C598 1.415 . S
C600 C605 1.425 . S
C600 C607 1.409 . S
C601 H593 0.930 . S
C601 C599 1.419 . S
C601 C602 1.362 . S
C602 H594 0.930 . S
C602 C601 1.362 . S
C602 C605 1.409 . S
C603 H595 0.930 . S
C603 C604 1.355 . S
C603 C605 1.415 . S
C604 C603 1.355 . S
C604 C606 1.419 . S
C605 C600 1.425 . S
C605 C602 1.409 . S
C605 C603 1.415 . S
C606 H596 0.930 . S
C606 C604 1.419 . S
C606 C607 1.362 . S
C607 H597 0.930 . S
C607 C600 1.409 . S
C607 C606 1.362 . S
H608 C614 0.930 . S
H609 C617 0.930 . S
H610 C618 0.930 . S
H611 C619 0.930 . S
H612 C622 0.930 . S
H613 C623 0.930 . S
C614 H608 0.930 . S
C614 C615 1.355 . S
C614 C616 1.415 . S
C615 C614 1.355 . S
C615 C617 1.419 . S
C616 C614 1.415 . S
C616 C621 1.425 . S
C616 C623 1.409 . S
C617 H609 0.930 . S
C617 C615 1.419 . S
C617 C618 1.362 . S
C618 H610 0.930 . S
C618 C617 1.362 . S
C618 C621 1.409 . S
C619 H611 0.930 . S
C619 C620 1.355 . S
C619 C621 1.415 . S
C620 C619 1.355 . S
C620 C622 1.419 . S
C621 C616 1.425 . S
C621 C618 1.409 . S
C621 C619 1.415 . S
C622 H612 0.930 . S
C622 C620 1.419 . S
C622 C623 1.362 . S
C623 H613 0.930 . S
C623 C616 1.409 . S
C623 C622 1.362 . S
H624 C630 0.930 . S
H625 C633 0.930 . S
H626 C634 0.930 . S
H627 C635 0.930 . S
H628 C638 0.930 . S
H629 C639 0.930 . S
C630 H624 0.930 . S
C630 C631 1.355 . S
C630 C632 1.415 . S
C631 C630 1.355 . S
C631 C633 1.419 . S
C632 C630 1.415 . S
C632 C637 1.425 . S
C632 C639 1.409 . S
C633 H625 0.930 . S
C633 C631 1.419 . S
C633 C634 1.362 . S
C634 H626 0.930 . S
C634 C633 1.362 . S
C634 C637 1.409 . S
C635 H627 0.930 . S
C635 C636 1.355 . S
C635 C637 1.415 . S
C636 C635 1.355 . S
C636 C638 1.419 . S
C637 C632 1.425 . S
C637 C634 1.409 . S
C637 C635 1.415 . S
C638 H628 0.930 . S
C638 C636 1.419 . S
C638 C639 1.362 . S
C639 H629 0.930 . S
C639 C632 1.409 . S
C639 C638 1.362 . S
H640 C646 0.930 . S
H641 C649 0.930 . S
H642 C650 0.930 . S
H643 C651 0.930 . S
H644 C654 0.944 . S
H645 C655 0.930 1_455 S
C646 H640 0.930 . S
C646 C647 1.355 . S
C646 C648 1.415 . S
C647 C646 1.355 . S
C647 C649 1.419 . S
C648 C646 1.415 . S
C648 C653 1.425 . S
C648 C655 1.409 . S
C649 H641 0.930 . S
C649 C647 1.419 . S
C649 C650 1.362 . S
C650 H642 0.930 . S
C650 C649 1.362 . S
C650 C653 1.409 . S
C651 H643 0.930 . S
C651 C652 1.355 . S
C651 C653 1.415 . S
C652 C651 1.355 . S
C652 C654 1.410 1_655 S
C653 C648 1.425 . S
C653 C650 1.409 . S
C653 C651 1.415 . S
C654 H644 0.944 . S
C654 C652 1.410 1_455 S
C654 C655 1.357 1_455 S
C655 H645 0.930 1_655 S
C655 C648 1.409 . S
C655 C654 1.357 1_655 S
H656 C662 0.930 . S
H657 C665 0.930 . S
H658 C666 0.930 . S
H659 C667 0.930 . S
H660 C670 0.930 1_565 S
H661 C671 0.930 . S
C662 H656 0.930 . S
C662 C663 1.355 . S
C662 C664 1.415 . S
C663 C662 1.355 . S
C663 C665 1.419 . S
C664 C662 1.415 . S
C664 C669 1.425 . S
C664 C671 1.409 . S
C665 H657 0.930 . S
C665 C663 1.419 . S
C665 C666 1.362 . S
C666 H658 0.930 . S
C666 C665 1.362 . S
C666 C669 1.409 . S
C667 H659 0.930 . S
C667 C668 1.355 . S
C667 C669 1.415 . S
C668 C667 1.355 . S
C668 C670 1.419 . S
C669 C664 1.425 . S
C669 C666 1.409 . S
C669 C667 1.415 . S
C670 H660 0.930 1_545 S
C670 C668 1.419 . S
C670 C671 1.362 . S
C671 H661 0.930 . S
C671 C664 1.409 . S
C671 C670 1.362 . S
H672 C678 0.930 . S
H673 C681 0.930 . S
H674 C682 0.930 . S
H675 C683 0.930 . S
H676 C686 0.930 . S
H677 C687 0.930 . S
C678 H672 0.930 . S
C678 C679 1.355 . S
C678 C680 1.415 . S
C679 C678 1.355 . S
C679 C681 1.419 . S
C680 C678 1.415 . S
C680 C685 1.425 . S
C680 C687 1.409 . S
C681 H673 0.930 . S
C681 C679 1.419 . S
C681 C682 1.362 . S
C682 H674 0.930 . S
C682 C681 1.362 . S
C682 C685 1.409 . S
C683 H675 0.930 . S
C683 C684 1.355 . S
C683 C685 1.415 . S
C684 C683 1.355 . S
C684 C686 1.419 . S
C685 C680 1.425 . S
C685 C682 1.409 . S
C685 C683 1.415 . S
C686 H676 0.930 . S
C686 C684 1.419 . S
C686 C687 1.362 . S
C687 H677 0.930 . S
C687 C680 1.409 . S
C687 C686 1.362 . S
H688 C694 0.930 . S
H689 C697 0.930 . S
H690 C698 0.930 . S
H691 C699 0.930 . S
H692 C702 0.930 . S
H693 C703 0.930 . S
C694 H688 0.930 . S
C694 C695 1.355 . S
C694 C696 1.415 . S
C695 C694 1.355 . S
C695 C697 1.419 . S
C696 C694 1.415 . S
C696 C701 1.425 . S
C696 C703 1.409 . S
C697 H689 0.930 . S
C697 C695 1.419 . S
C697 C698 1.362 . S
C698 H690 0.930 . S
C698 C697 1.362 . S
C698 C701 1.409 . S
C699 H691 0.930 . S
C699 C700 1.355 . S
C699 C701 1.415 . S
C700 C699 1.355 . S
C700 C702 1.419 . S
C701 C696 1.425 . S
C701 C698 1.409 . S
C701 C699 1.415 . S
C702 H692 0.930 . S
C702 C700 1.419 . S
C702 C703 1.362 . S
C703 H693 0.930 . S
C703 C696 1.409 . S
C703 C702 1.362 . S
H704 C710 0.930 . S
H705 C713 0.930 . S
H706 C714 0.930 . S
H707 C715 0.930 . S
H708 C718 0.930 . S
H709 C719 0.930 . S
C710 H704 0.930 . S
C710 C711 1.355 . S
C710 C712 1.415 . S
C711 C710 1.355 . S
C711 C713 1.419 . S
C712 C710 1.415 . S
C712 C717 1.425 . S
C712 C719 1.409 . S
C713 H705 0.930 . S
C713 C711 1.419 . S
C713 C714 1.362 . S
C714 H706 0.930 . S
C714 C713 1.362 . S
C714 C717 1.409 . S
C715 H707 0.930 . S
C715 C716 1.355 . S
C715 C717 1.415 . S
C716 C715 1.355 . S
C716 C718 1.419 . S
C717 C712 1.425 . S
C717 C714 1.409 . S
C717 C715 1.415 . S
C718 H708 0.930 . S
C718 C716 1.419 . S
C718 C719 1.362 . S
C719 H709 0.930 . S
C719 C712 1.409 . S
C719 C718 1.362 . S
H720 C726 0.930 . S
H721 C729 0.930 . S
H722 C730 0.930 . S
H723 C731 0.930 . S
H724 C734 0.930 . S
H725 C735 0.930 . S
C726 H720 0.930 . S
C726 C727 1.355 . S
C726 C728 1.415 . S
C727 C726 1.355 . S
C727 C729 1.419 . S
C728 C726 1.415 . S
C728 C733 1.425 . S
C728 C735 1.409 . S
C729 H721 0.930 . S
C729 C727 1.419 . S
C729 C730 1.362 . S
C730 H722 0.930 . S
C730 C729 1.362 . S
C730 C733 1.409 . S
C731 H723 0.930 . S
C731 C732 1.355 . S
C731 C733 1.415 . S
C732 C731 1.355 . S
C732 C734 1.419 . S
C733 C728 1.425 . S
C733 C730 1.409 . S
C733 C731 1.415 . S
C734 H724 0.930 . S
C734 C732 1.419 . S
C734 C735 1.362 . S
C735 H725 0.930 . S
C735 C728 1.409 . S
C735 C734 1.362 . S
H736 C742 0.930 . S
H737 C745 0.930 . S
H738 C746 0.930 . S
H739 C747 0.930 . S
H740 C750 0.930 . S
H741 C751 0.930 . S
C742 H736 0.930 . S
C742 C743 1.355 . S
C742 C744 1.415 . S
C743 C742 1.355 . S
C743 C745 1.419 . S
C744 C742 1.415 . S
C744 C749 1.425 . S
C744 C751 1.409 . S
C745 H737 0.930 . S
C745 C743 1.419 . S
C745 C746 1.362 . S
C746 H738 0.930 . S
C746 C745 1.362 . S
C746 C749 1.409 . S
C747 H739 0.930 . S
C747 C748 1.355 . S
C747 C749 1.415 . S
C748 C747 1.355 . S
C748 C750 1.419 . S
C749 C744 1.425 . S
C749 C746 1.409 . S
C749 C747 1.415 . S
C750 H740 0.930 . S
C750 C748 1.419 . S
C750 C751 1.362 . S
C751 H741 0.930 . S
C751 C744 1.409 . S
C751 C750 1.362 . S
H752 C758 0.930 . S
H753 C761 0.930 . S
H754 C762 0.930 . S
H755 C763 0.930 . S
H756 C766 0.930 . S
H757 C767 0.930 . S
C758 H752 0.930 . S
C758 C759 1.355 . S
C758 C760 1.415 . S
C759 C758 1.355 . S
C759 C761 1.419 . S
C760 C758 1.415 . S
C760 C765 1.425 . S
C760 C767 1.409 . S
C761 H753 0.930 . S
C761 C759 1.419 . S
C761 C762 1.362 . S
C762 H754 0.930 . S
C762 C761 1.362 . S
C762 C765 1.409 . S
C763 H755 0.930 . S
C763 C764 1.355 . S
C763 C765 1.415 . S
C764 C763 1.355 . S
C764 C766 1.419 . S
C765 C760 1.425 . S
C765 C762 1.409 . S
C765 C763 1.415 . S
C766 H756 0.930 . S
C766 C764 1.419 . S
C766 C767 1.362 . S
C767 H757 0.930 . S
C767 C760 1.409 . S
C767 C766 1.362 . S
H768 C774 0.930 . S
H769 C777 0.930 . S
H770 C778 0.930 . S
H771 C779 0.930 . S
H772 C782 0.930 . S
H773 C783 0.930 . S
C774 H768 0.930 . S
C774 C775 1.355 . S
C774 C776 1.415 . S
C775 C774 1.355 . S
C775 C777 1.419 . S
C776 C774 1.415 . S
C776 C781 1.425 . S
C776 C783 1.409 . S
C777 H769 0.930 . S
C777 C775 1.419 . S
C777 C778 1.362 . S
C778 H770 0.930 . S
C778 C777 1.362 . S
C778 C781 1.409 . S
C779 H771 0.930 . S
C779 C780 1.355 . S
C779 C781 1.415 . S
C780 C779 1.355 . S
C780 C782 1.419 . S
C781 C776 1.425 . S
C781 C778 1.409 . S
C781 C779 1.415 . S
C782 H772 0.930 . S
C782 C780 1.419 . S
C782 C783 1.362 . S
C783 H773 0.930 . S
C783 C776 1.409 . S
C783 C782 1.362 . S
H784 C790 0.930 . S
H785 C793 0.930 . S
H786 C794 0.930 . S
H787 C795 0.930 . S
H788 C798 0.930 . S
H789 C799 0.930 . S
C790 H784 0.930 . S
C790 C791 1.355 . S
C790 C792 1.415 . S
C791 C790 1.355 . S
C791 C793 1.419 . S
C792 C790 1.415 . S
C792 C797 1.425 . S
C792 C799 1.409 . S
C793 H785 0.930 . S
C793 C791 1.419 . S
C793 C794 1.362 . S
C794 H786 0.930 . S
C794 C793 1.362 . S
C794 C797 1.409 . S
C795 H787 0.930 . S
C795 C796 1.355 . S
C795 C797 1.415 . S
C796 C795 1.355 . S
C796 C798 1.419 . S
C797 C792 1.425 . S
C797 C794 1.409 . S
C797 C795 1.415 . S
C798 H788 0.930 . S
C798 C796 1.419 . S
C798 C799 1.362 . S
C799 H789 0.930 . S
C799 C792 1.409 . S
C799 C798 1.362 . S
H800 C806 0.930 . S
H801 C809 0.930 . S
H802 C810 0.930 . S
H803 C811 0.930 . S
H804 C814 0.930 . S
H805 C815 0.930 . S
C806 H800 0.930 . S
C806 C807 1.355 . S
C806 C808 1.415 . S
C807 C806 1.355 . S
C807 C809 1.419 . S
C808 C806 1.415 . S
C808 C813 1.425 . S
C808 C815 1.409 . S
C809 H801 0.930 . S
C809 C807 1.419 . S
C809 C810 1.362 . S
C810 H802 0.930 . S
C810 C809 1.362 . S
C810 C813 1.409 . S
C811 H803 0.930 . S
C811 C812 1.355 . S
C811 C813 1.415 . S
C812 C811 1.355 . S
C812 C814 1.419 . S
C813 C808 1.425 . S
C813 C810 1.409 . S
C813 C811 1.415 . S
C814 H804 0.930 . S
C814 C812 1.419 . S
C814 C815 1.362 . S
C815 H805 0.930 . S
C815 C808 1.409 . S
C815 C814 1.362 . S
H816 C822 0.930 . S
H817 C825 0.930 . S
H818 C826 0.930 . S
H819 C827 0.930 . S
H820 C830 0.930 . S
H821 C831 0.930 . S
C822 H816 0.930 . S
C822 C823 1.355 . S
C822 C824 1.415 . S
C823 C822 1.355 . S
C823 C825 1.419 . S
C824 C822 1.415 . S
C824 C829 1.425 . S
C824 C831 1.409 . S
C825 H817 0.930 . S
C825 C823 1.419 . S
C825 C826 1.362 . S
C826 H818 0.930 . S
C826 C825 1.362 . S
C826 C829 1.409 . S
C827 H819 0.930 . S
C827 C828 1.355 . S
C827 C829 1.415 . S
C828 C827 1.355 . S
C828 C830 1.419 . S
C829 C824 1.425 . S
C829 C826 1.409 . S
C829 C827 1.415 . S
C830 H820 0.930 . S
C830 C828 1.419 . S
C830 C831 1.362 . S
C831 H821 0.930 . S
C831 C824 1.409 . S
C831 C830 1.362 . S
H832 C838 0.930 . S
H833 C841 0.930 . S
H834 C842 0.930 . S
H835 C843 0.930 . S
H836 C846 0.930 . S
H837 C847 0.930 . S
C838 H832 0.930 . S
C838 C839 1.355 . S
C838 C840 1.415 . S
C839 C838 1.355 . S
C839 C841 1.419 . S
C840 C838 1.415 . S
C840 C845 1.425 . S
C840 C847 1.409 . S
C841 H833 0.930 . S
C841 C839 1.419 . S
C841 C842 1.362 . S
C842 H834 0.930 . S
C842 C841 1.362 . S
C842 C845 1.409 . S
C843 H835 0.930 . S
C843 C844 1.355 . S
C843 C845 1.415 . S
C844 C843 1.355 . S
C844 C846 1.419 . S
C845 C840 1.425 . S
C845 C842 1.409 . S
C845 C843 1.415 . S
C846 H836 0.930 . S
C846 C844 1.419 . S
C846 C847 1.362 . S
C847 H837 0.930 . S
C847 C840 1.409 . S
C847 C846 1.362 . S
H848 C854 0.930 . S
H849 C857 0.930 . S
H850 C858 0.930 . S
H851 C859 0.930 . S
H852 C862 0.930 . S
H853 C863 0.930 . S
C854 H848 0.930 . S
C854 C855 1.355 . S
C854 C856 1.415 . S
C855 C854 1.355 . S
C855 C857 1.419 . S
C856 C854 1.415 . S
C856 C861 1.425 . S
C856 C863 1.409 . S
C857 H849 0.930 . S
C857 C855 1.419 . S
C857 C858 1.362 . S
C858 H850 0.930 . S
C858 C857 1.362 . S
C858 C861 1.409 . S
C859 H851 0.930 . S
C859 C860 1.355 . S
C859 C861 1.415 . S
C860 C859 1.355 . S
C860 C862 1.419 . S
C861 C856 1.425 . S
C861 C858 1.409 . S
C861 C859 1.415 . S
C862 H852 0.930 . S
C862 C860 1.419 . S
C862 C863 1.362 . S
C863 H853 0.930 . S
C863 C856 1.409 . S
C863 C862 1.362 . S
H864 C870 0.930 . S
H865 C873 0.930 . S
H866 C874 0.930 . S
H867 C875 0.930 . S
H868 C878 0.930 . S
H869 C879 0.930 . S
C870 H864 0.930 . S
C870 C871 1.355 . S
C870 C872 1.415 . S
C871 C870 1.355 . S
C871 C873 1.419 . S
C872 C870 1.415 . S
C872 C877 1.425 . S
C872 C879 1.409 . S
C873 H865 0.930 . S
C873 C871 1.419 . S
C873 C874 1.362 . S
C874 H866 0.930 . S
C874 C873 1.362 . S
C874 C877 1.409 . S
C875 H867 0.930 . S
C875 C876 1.355 . S
C875 C877 1.415 . S
C876 C875 1.355 . S
C876 C878 1.419 . S
C877 C872 1.425 . S
C877 C874 1.409 . S
C877 C875 1.415 . S
C878 H868 0.930 . S
C878 C876 1.419 . S
C878 C879 1.362 . S
C879 H869 0.930 . S
C879 C872 1.409 . S
C879 C878 1.362 . S
H880 C886 0.930 . S
H881 C889 0.930 . S
H882 C890 0.930 . S
H883 C891 0.930 . S
H884 C894 0.930 . S
H885 C895 0.930 . S
C886 H880 0.930 . S
C886 C887 1.355 . S
C886 C888 1.415 . S
C887 C886 1.355 . S
C887 C889 1.419 . S
C888 C886 1.415 . S
C888 C893 1.425 . S
C888 C895 1.409 . S
C889 H881 0.930 . S
C889 C887 1.419 . S
C889 C890 1.362 . S
C890 H882 0.930 . S
C890 C889 1.362 . S
C890 C893 1.409 . S
C891 H883 0.930 . S
C891 C892 1.355 . S
C891 C893 1.415 . S
C892 C891 1.355 . S
C892 C894 1.419 . S
C893 C888 1.425 . S
C893 C890 1.409 . S
C893 C891 1.415 . S
C894 H884 0.930 . S
C894 C892 1.419 . S
C894 C895 1.362 . S
C895 H885 0.930 . S
C895 C888 1.409 . S
C895 C894 1.362 . S
H896 C902 0.930 . S
H897 C905 0.930 . S
H898 C906 0.930 . S
H899 C907 0.930 . S
H900 C910 0.930 . S
H901 C911 0.930 . S
C902 H896 0.930 . S
C902 C903 1.355 . S
C902 C904 1.415 . S
C903 C902 1.355 . S
C903 C905 1.419 . S
C904 C902 1.415 . S
C904 C909 1.425 . S
C904 C911 1.409 . S
C905 H897 0.930 . S
C905 C903 1.419 . S
C905 C906 1.362 . S
C906 H898 0.930 . S
C906 C905 1.362 . S
C906 C909 1.409 . S
C907 H899 0.930 . S
C907 C908 1.355 . S
C907 C909 1.415 . S
C908 C907 1.355 . S
C908 C910 1.419 . S
C909 C904 1.425 . S
C909 C906 1.409 . S
C909 C907 1.415 . S
C910 H900 0.930 . S
C910 C908 1.419 . S
C910 C911 1.362 . S
C911 H901 0.930 . S
C911 C904 1.409 . S
C911 C910 1.362 . S
H912 C918 0.930 1_554 S
H913 C921 0.930 . S
H914 C922 0.930 . S
H915 C923 0.930 . S
H916 C926 0.930 . S
H917 C927 0.930 . S
C918 H912 0.930 1_556 S
C918 C919 1.352 . S
C918 C920 1.417 1_556 S
C919 C918 1.352 . S
C919 C921 1.419 . S
C920 C918 1.417 1_554 S
C920 C925 1.425 . S
C920 C927 1.409 . S
C921 H913 0.930 . S
C921 C919 1.419 . S
C921 C922 1.362 . S
C922 H914 0.930 . S
C922 C921 1.362 . S
C922 C925 1.409 1_556 S
C923 H915 0.930 . S
C923 C924 1.355 . S
C923 C925 1.415 . S
C924 C923 1.355 . S
C924 C926 1.419 . S
C925 C920 1.425 . S
C925 C922 1.409 1_554 S
C925 C923 1.415 . S
C926 H916 0.930 . S
C926 C924 1.419 . S
C926 C927 1.362 . S
C927 H917 0.930 . S
C927 C920 1.409 . S
C927 C926 1.362 . S
H928 C934 0.930 . S
H929 C937 0.930 . S
H930 C938 0.930 . S
H931 C939 0.930 . S
H932 C942 0.930 . S
H933 C943 0.930 . S
C934 H928 0.930 . S
C934 C935 1.355 . S
C934 C936 1.415 . S
C935 C934 1.355 . S
C935 C937 1.419 . S
C936 C934 1.415 . S
C936 C941 1.425 . S
C936 C943 1.409 1_554 S
C937 H929 0.930 . S
C937 C935 1.419 . S
C937 C938 1.362 . S
C938 H930 0.930 . S
C938 C937 1.362 . S
C938 C941 1.409 . S
C939 H931 0.930 . S
C939 C940 1.355 . S
C939 C941 1.415 1_556 S
C940 C939 1.355 . S
C940 C942 1.419 . S
C941 C936 1.425 . S
C941 C938 1.409 . S
C941 C939 1.415 1_554 S
C942 H932 0.930 . S
C942 C940 1.419 . S
C942 C943 1.362 . S
C943 H933 0.930 . S
C943 C936 1.409 1_556 S
C943 C942 1.362 . S
H944 C950 0.930 . S
H945 C953 0.930 1_556 S
H946 C954 0.930 . S
H947 C955 0.930 . S
H948 C958 0.930 . S
H949 C959 0.930 1_556 S
C950 H944 0.930 . S
C950 C951 1.355 . S
C950 C952 1.415 1_556 S
C951 C950 1.355 . S
C951 C953 1.410 1_556 S
C952 C950 1.415 1_554 S
C952 C957 1.425 . S
C952 C959 1.409 . S
C953 H945 0.930 1_554 S
C953 C951 1.410 1_554 S
C953 C954 1.372 . S
C954 H946 0.930 . S
C954 C953 1.372 . S
C954 C957 1.409 . S
C955 H947 0.930 . S
C955 C956 1.355 . S
C955 C957 1.415 . S
C956 C955 1.355 . S
C956 C958 1.419 . S
C957 C952 1.425 . S
C957 C954 1.409 . S
C957 C955 1.415 . S
C958 H948 0.930 . S
C958 C956 1.419 . S
C958 C959 1.362 . S
C959 H949 0.930 1_554 S
C959 C952 1.409 . S
C959 C958 1.362 . S
H960 C966 0.930 . S
H961 C969 0.930 . S
H962 C970 0.930 1_556 S
H963 C971 0.930 . S
H964 C974 0.930 . S
H965 C975 0.930 . S
C966 H960 0.930 . S
C966 C967 1.355 . S
C966 C968 1.415 . S
C967 C966 1.355 . S
C967 C969 1.419 . S
C968 C966 1.415 . S
C968 C973 1.425 . S
C968 C975 1.409 . S
C969 H961 0.930 . S
C969 C967 1.419 . S
C969 C970 1.362 . S
C970 H962 0.930 1_554 S
C970 C969 1.362 . S
C970 C973 1.409 . S
C971 H963 0.930 . S
C971 C972 1.355 . S
C971 C973 1.415 1_556 S
C972 C971 1.355 . S
C972 C974 1.419 . S
C973 C968 1.425 . S
C973 C970 1.409 . S
C973 C971 1.415 1_554 S
C974 H964 0.930 . S
C974 C972 1.419 . S
C974 C975 1.362 1_556 S
C975 H965 0.930 . S
C975 C968 1.409 . S
C975 C974 1.362 1_554 S
H976 C982 0.930 . S
H977 C985 0.930 . S
H978 C986 0.930 . S
H979 C987 0.930 . S
H980 C990 0.930 . S
H981 C991 0.930 . S
C982 H976 0.930 . S
C982 C983 1.355 . S
C982 C984 1.415 . S
C983 C982 1.355 . S
C983 C985 1.419 . S
C984 C982 1.415 . S
C984 C989 1.425 . S
C984 C991 1.409 . S
C985 H977 0.930 . S
C985 C983 1.419 . S
C985 C986 1.362 . S
C986 H978 0.930 . S
C986 C985 1.362 . S
C986 C989 1.409 . S
C987 H979 0.930 . S
C987 C988 1.355 . S
C987 C989 1.415 . S
C988 C987 1.355 . S
C988 C990 1.419 . S
C989 C984 1.425 . S
C989 C986 1.409 . S
C989 C987 1.415 . S
C990 H980 0.930 . S
C990 C988 1.419 . S
C990 C991 1.362 . S
C991 H981 0.930 . S
C991 C984 1.409 . S
C991 C990 1.362 . S
H992 C998 0.930 . S
H993 C1001 0.930 . S
H994 C1002 0.930 . S
H995 C1003 0.930 . S
H996 C1006 0.930 . S
H997 C1007 0.930 . S
C998 H992 0.930 . S
C998 C999 1.355 . S
C998 C1000 1.415 . S
C999 C998 1.355 . S
C999 C1001 1.419 . S
C1000 C998 1.415 . S
C1000 C1005 1.425 . S
C1000 C1007 1.409 . S
C1001 H993 0.930 . S
C1001 C999 1.419 . S
C1001 C1002 1.362 . S
C1002 H994 0.930 . S
C1002 C1001 1.362 . S
C1002 C1005 1.409 . S
C1003 H995 0.930 . S
C1003 C1004 1.355 . S
C1003 C1005 1.415 . S
C1004 C1003 1.355 . S
C1004 C1006 1.419 . S
C1005 C1000 1.425 . S
C1005 C1002 1.409 . S
C1005 C1003 1.415 . S
C1006 H996 0.930 . S
C1006 C1004 1.419 . S
C1006 C1007 1.362 . S
C1007 H997 0.930 . S
C1007 C1000 1.409 . S
C1007 C1006 1.362 . S
H1008 C1014 0.930 . S
H1009 C1017 0.930 . S
H1010 C1018 0.930 . S
H1011 C1019 0.930 . S
H1012 C1022 0.930 . S
H1013 C1023 0.930 . S
C1014 H1008 0.930 . S
C1014 C1015 1.355 . S
C1014 C1016 1.415 . S
C1015 C1014 1.355 . S
C1015 C1017 1.419 . S
C1016 C1014 1.415 . S
C1016 C1021 1.425 . S
C1016 C1023 1.409 . S
C1017 H1009 0.930 . S
C1017 C1015 1.419 . S
C1017 C1018 1.362 . S
C1018 H1010 0.930 . S
C1018 C1017 1.362 . S
C1018 C1021 1.409 . S
C1019 H1011 0.930 . S
C1019 C1020 1.355 . S
C1019 C1021 1.415 . S
C1020 C1019 1.355 . S
C1020 C1022 1.419 . S
C1021 C1016 1.425 . S
C1021 C1018 1.409 . S
C1021 C1019 1.415 . S
C1022 H1012 0.930 . S
C1022 C1020 1.419 . S
C1022 C1023 1.362 . S
C1023 H1013 0.930 . S
C1023 C1016 1.409 . S
C1023 C1022 1.362 . S
H1024 C1030 0.930 . S
H1025 C1033 0.930 . S
H1026 C1034 0.930 . S
H1027 C1035 0.930 . S
H1028 C1038 0.930 . S
H1029 C1039 0.930 . S
C1030 H1024 0.930 . S
C1030 C1031 1.355 . S
C1030 C1032 1.415 . S
C1031 C1030 1.355 . S
C1031 C1033 1.419 . S
C1032 C1030 1.415 . S
C1032 C1037 1.425 . S
C1032 C1039 1.409 . S
C1033 H1025 0.930 . S
C1033 C1031 1.419 . S
C1033 C1034 1.362 . S
C1034 H1026 0.930 . S
C1034 C1033 1.362 . S
C1034 C1037 1.409 . S
C1035 H1027 0.930 . S
C1035 C1036 1.355 . S
C1035 C1037 1.415 . S
C1036 C1035 1.355 . S
C1036 C1038 1.419 . S
C1037 C1032 1.425 . S
C1037 C1034 1.409 . S
C1037 C1035 1.415 . S
C1038 H1028 0.930 . S
C1038 C1036 1.419 . S
C1038 C1039 1.362 . S
C1039 H1029 0.930 . S
C1039 C1032 1.409 . S
C1039 C1038 1.362 . S
H1040 C1046 0.930 . S
H1041 C1049 0.930 . S
H1042 C1050 0.930 . S
H1043 C1051 0.930 . S
H1044 C1054 0.930 . S
H1045 C1055 0.930 . S
C1046 H1040 0.930 . S
C1046 C1047 1.355 . S
C1046 C1048 1.415 . S
C1047 C1046 1.355 . S
C1047 C1049 1.419 . S
C1048 C1046 1.415 . S
C1048 C1053 1.425 . S
C1048 C1055 1.409 1_556 S
C1049 H1041 0.930 . S
C1049 C1047 1.419 . S
C1049 C1050 1.362 . S
C1050 H1042 0.930 . S
C1050 C1049 1.362 . S
C1050 C1053 1.409 . S
C1051 H1043 0.930 . S
C1051 C1052 1.355 . S
C1051 C1053 1.415 1_554 S
C1052 C1051 1.355 . S
C1052 C1054 1.419 . S
C1053 C1048 1.425 . S
C1053 C1050 1.409 . S
C1053 C1051 1.415 1_556 S
C1054 H1044 0.930 . S
C1054 C1052 1.419 . S
C1054 C1055 1.362 . S
C1055 H1045 0.930 . S
C1055 C1048 1.409 1_554 S
C1055 C1054 1.362 . S
H1056 C1062 0.930 . S
H1057 C1065 0.930 . S
H1058 C1066 0.930 . S
H1059 C1067 0.930 . S
H1060 C1070 0.930 . S
H1061 C1071 0.930 . S
C1062 H1056 0.930 . S
C1062 C1063 1.355 . S
C1062 C1064 1.415 . S
C1063 C1062 1.355 . S
C1063 C1065 1.419 . S
C1064 C1062 1.415 . S
C1064 C1069 1.425 . S
C1064 C1071 1.409 1_556 S
C1065 H1057 0.930 . S
C1065 C1063 1.419 . S
C1065 C1066 1.362 . S
C1066 H1058 0.930 . S
C1066 C1065 1.362 . S
C1066 C1069 1.409 . S
C1067 H1059 0.930 . S
C1067 C1068 1.355 1_556 S
C1067 C1069 1.415 . S
C1068 C1067 1.355 1_554 S
C1068 C1070 1.419 . S
C1069 C1064 1.425 . S
C1069 C1066 1.409 . S
C1069 C1067 1.415 . S
C1070 H1060 0.930 . S
C1070 C1068 1.419 . S
C1070 C1071 1.362 . S
C1071 H1061 0.930 . S
C1071 C1064 1.409 1_554 S
C1071 C1070 1.362 . S
H1072 C1078 0.930 . S
H1073 C1081 0.930 . S
H1074 C1082 0.930 . S
H1075 C1083 0.930 . S
H1076 C1086 0.930 . S
H1077 C1087 0.930 . S
C1078 H1072 0.930 . S
C1078 C1079 1.355 . S
C1078 C1080 1.415 1_554 S
C1079 C1078 1.355 . S
C1079 C1081 1.419 . S
C1080 C1078 1.415 1_556 S
C1080 C1085 1.425 . S
C1080 C1087 1.409 . S
C1081 H1073 0.930 . S
C1081 C1079 1.419 . S
C1081 C1082 1.362 1_554 S
C1082 H1074 0.930 . S
C1082 C1081 1.362 1_556 S
C1082 C1085 1.409 . S
C1083 H1075 0.930 . S
C1083 C1084 1.355 . S
C1083 C1085 1.415 . S
C1084 C1083 1.355 . S
C1084 C1086 1.419 . S
C1085 C1080 1.425 . S
C1085 C1082 1.409 . S
C1085 C1083 1.415 . S
C1086 H1076 0.930 . S
C1086 C1084 1.419 . S
C1086 C1087 1.362 . S
C1087 H1077 0.930 . S
C1087 C1080 1.409 . S
C1087 C1086 1.362 . S
H1088 C1094 0.930 . S
H1089 C1097 0.930 . S
H1090 C1098 0.930 . S
H1091 C1099 0.930 . S
H1092 C1102 0.930 . S
H1093 C1103 0.930 . S
C1094 H1088 0.930 . S
C1094 C1095 1.355 . S
C1094 C1096 1.415 1_554 S
C1095 C1094 1.355 . S
C1095 C1097 1.419 . S
C1096 C1094 1.415 1_556 S
C1096 C1101 1.425 . S
C1096 C1103 1.409 . S
C1097 H1089 0.930 . S
C1097 C1095 1.419 . S
C1097 C1098 1.362 1_554 S
C1098 H1090 0.930 . S
C1098 C1097 1.362 1_556 S
C1098 C1101 1.409 . S
C1099 H1091 0.930 . S
C1099 C1100 1.355 . S
C1099 C1101 1.415 . S
C1100 C1099 1.355 . S
C1100 C1102 1.419 . S
C1101 C1096 1.425 . S
C1101 C1098 1.409 . S
C1101 C1099 1.415 . S
C1102 H1092 0.930 . S
C1102 C1100 1.419 . S
C1102 C1103 1.362 . S
C1103 H1093 0.930 . S
C1103 C1096 1.409 . S
C1103 C1102 1.362 . S
C343 C18 1.767 . S
C348 C120 1.765 . S
C359 C141 1.767 . S
C364 C39 1.765 . S
C375 C57 1.750 . S
C380 C162 1.752 . S
C391 C78 1.778 . S
C396 C99 1.776 . S
C407 C288 1.780 . S
C412 C183 1.782 . S
C423 C309 1.741 . S
C428 C204 1.741 . S
C439 C225 1.748 . S
C444 C330 1.750 . S
C455 C246 1.782 . S
C460 C267 1.784 . S
C471 C14 1.662 . S
C476 C76 1.131 1_545 S
C487 C35 1.661 . S
C492 C16 1.196 . S
C503 C59 1.602 . S
C508 C37 1.282 . S
C519 C80 1.647 . S
C524 C55 1.118 1_455 S
C535 C101 1.610 . S
C540 C118 1.287 1_565 S
C551 C139 1.212 . S
C556 C122 1.599 . S
C567 C143 1.661 . S
C572 C160 1.130 . S
C583 C97 1.139 1_655 S
C588 C164 1.664 . S
C599 C244 1.279 1_565 S
C604 C185 1.600 . S
C615 C206 1.596 . S
C620 C181 1.231 . S
C631 C227 1.618 . S
C636 C202 1.286 . S
C647 C248 1.664 . S
C652 C223 1.143 1_655 S
C663 C269 1.663 . S
C668 C286 1.186 1_545 S
C679 C290 1.595 . S
C684 C307 1.255 . S
C695 C311 1.651 . S
C700 C328 1.235 . S
C711 C332 1.631 . S
C716 C265 1.132 1_455 S
C727 C15 0.682 . S
C732 C60 0.660 . S
C743 C36 0.671 . S
C748 C81 0.673 . S
C759 C144 0.688 . S
C764 C102 0.642 . S
C775 C165 0.680 . S
C780 C123 0.642 . S
C791 C228 0.663 . S
C796 C186 0.680 . S
C807 C249 0.642 . S
C812 C207 0.680 . S
C823 C270 0.655 . S
C828 C312 0.662 . S
C839 C291 0.667 . S
C844 C333 0.676 . S
C855 C13 1.319 . S
C860 C245 1.333 . S
C871 C182 1.239 . S
C876 C34 1.370 . S
C887 C58 1.306 . S
C892 C203 1.312 . S
C903 C224 1.337 . S
C908 C79 1.327 . S
C919 C287 1.270 . S
C924 C100 1.308 . S
C935 C121 1.316 . S
C940 C308 1.252 . S
C951 C329 1.301 . S
C956 C142 1.374 . S
C967 C163 1.365 . S
C972 C266 1.319 . S
C983 C184 1.343 . S
C988 C77 1.227 . S
C999 C205 1.350 . S
C1004 C17 1.227 . S
C1015 C38 1.325 . S
C1020 C226 1.361 . S
C1031 C247 1.374 . S
C1036 C56 1.247 . S
C1047 C268 1.365 . S
C1052 C119 1.233 . S
C1063 C289 1.317 . S
C1068 C140 1.249 . S
C1079 C161 1.291 . S
C1084 C310 1.377 . S
C1095 C98 1.296 . S
C1100 C331 1.304 . S
