# Generated by pormake.
# Topology zfx, (5)-cn, num edge types: 1
# Building blocks:
#     Node 0, Type 0, BuildingBlock: BEQFEK_clean_sbu_0, # of connection points: 5
#     Node 1, Type 0, BuildingBlock: BEQFEK_clean_sbu_0, # of connection points: 5
#     Node 2, Type 0, BuildingBlock: BEQFEK_clean_sbu_0, # of connection points: 5
#     Node 3, Type 0, BuildingBlock: BEQFEK_clean_sbu_0, # of connection points: 5
#     Node 4, Type 0, BuildingBlock: BEQFEK_clean_sbu_0, # of connection points: 5
#     Node 5, Type 0, BuildingBlock: BEQFEK_clean_sbu_0, # of connection points: 5
#     Node 6, Type 0, BuildingBlock: BEQFEK_clean_sbu_0, # of connection points: 5
#     Node 7, Type 0, BuildingBlock: BEQFEK_clean_sbu_0, # of connection points: 5
#     Node 8, Type 0, BuildingBlock: BEQFEK_clean_sbu_0, # of connection points: 5
#     Node 9, Type 0, BuildingBlock: BEQFEK_clean_sbu_0, # of connection points: 5
#     Node 10, Type 0, BuildingBlock: BEQFEK_clean_sbu_0, # of connection points: 5
#     Node 11, Type 0, BuildingBlock: BEQFEK_clean_sbu_0, # of connection points: 5
#     Node 12, Type 0, BuildingBlock: BEQFEK_clean_sbu_0, # of connection points: 5
#     Node 13, Type 0, BuildingBlock: BEQFEK_clean_sbu_0, # of connection points: 5
#     Node 14, Type 0, BuildingBlock: BEQFEK_clean_sbu_0, # of connection points: 5
#     Node 15, Type 0, BuildingBlock: BEQFEK_clean_sbu_0, # of connection points: 5
#     Edge 16, Type (0, 0), BuildingBlock: AJUNOK_clean_linker_0, # of connection points: 2
#     Edge 17, Type (0, 0), BuildingBlock: AJUNOK_clean_linker_0, # of connection points: 2
#     Edge 18, Type (0, 0), BuildingBlock: AJUNOK_clean_linker_0, # of connection points: 2
#     Edge 19, Type (0, 0), BuildingBlock: AJUNOK_clean_linker_0, # of connection points: 2
#     Edge 20, Type (0, 0), BuildingBlock: AJUNOK_clean_linker_0, # of connection points: 2
#     Edge 21, Type (0, 0), BuildingBlock: AJUNOK_clean_linker_0, # of connection points: 2
#     Edge 22, Type (0, 0), BuildingBlock: AJUNOK_clean_linker_0, # of connection points: 2
#     Edge 23, Type (0, 0), BuildingBlock: AJUNOK_clean_linker_0, # of connection points: 2
#     Edge 24, Type (0, 0), BuildingBlock: AJUNOK_clean_linker_0, # of connection points: 2
#     Edge 25, Type (0, 0), BuildingBlock: AJUNOK_clean_linker_0, # of connection points: 2
#     Edge 26, Type (0, 0), BuildingBlock: AJUNOK_clean_linker_0, # of connection points: 2
#     Edge 27, Type (0, 0), BuildingBlock: AJUNOK_clean_linker_0, # of connection points: 2
#     Edge 28, Type (0, 0), BuildingBlock: AJUNOK_clean_linker_0, # of connection points: 2
#     Edge 29, Type (0, 0), BuildingBlock: AJUNOK_clean_linker_0, # of connection points: 2
#     Edge 30, Type (0, 0), BuildingBlock: AJUNOK_clean_linker_0, # of connection points: 2
#     Edge 31, Type (0, 0), BuildingBlock: AJUNOK_clean_linker_0, # of connection points: 2
#     Edge 32, Type (0, 0), BuildingBlock: AJUNOK_clean_linker_0, # of connection points: 2
#     Edge 33, Type (0, 0), BuildingBlock: AJUNOK_clean_linker_0, # of connection points: 2
#     Edge 34, Type (0, 0), BuildingBlock: AJUNOK_clean_linker_0, # of connection points: 2
#     Edge 35, Type (0, 0), BuildingBlock: AJUNOK_clean_linker_0, # of connection points: 2
#     Edge 36, Type (0, 0), BuildingBlock: AJUNOK_clean_linker_0, # of connection points: 2
#     Edge 37, Type (0, 0), BuildingBlock: AJUNOK_clean_linker_0, # of connection points: 2
#     Edge 38, Type (0, 0), BuildingBlock: AJUNOK_clean_linker_0, # of connection points: 2
#     Edge 39, Type (0, 0), BuildingBlock: AJUNOK_clean_linker_0, # of connection points: 2
#     Edge 40, Type (0, 0), BuildingBlock: AJUNOK_clean_linker_0, # of connection points: 2
#     Edge 41, Type (0, 0), BuildingBlock: AJUNOK_clean_linker_0, # of connection points: 2
#     Edge 42, Type (0, 0), BuildingBlock: AJUNOK_clean_linker_0, # of connection points: 2
#     Edge 43, Type (0, 0), BuildingBlock: AJUNOK_clean_linker_0, # of connection points: 2
#     Edge 44, Type (0, 0), BuildingBlock: AJUNOK_clean_linker_0, # of connection points: 2
#     Edge 45, Type (0, 0), BuildingBlock: AJUNOK_clean_linker_0, # of connection points: 2
#     Edge 46, Type (0, 0), BuildingBlock: AJUNOK_clean_linker_0, # of connection points: 2
#     Edge 47, Type (0, 0), BuildingBlock: AJUNOK_clean_linker_0, # of connection points: 2
#     Edge 48, Type (0, 0), BuildingBlock: AJUNOK_clean_linker_0, # of connection points: 2
#     Edge 49, Type (0, 0), BuildingBlock: AJUNOK_clean_linker_0, # of connection points: 2
#     Edge 50, Type (0, 0), BuildingBlock: AJUNOK_clean_linker_0, # of connection points: 2
#     Edge 51, Type (0, 0), BuildingBlock: AJUNOK_clean_linker_0, # of connection points: 2
#     Edge 52, Type (0, 0), BuildingBlock: AJUNOK_clean_linker_0, # of connection points: 2
#     Edge 53, Type (0, 0), BuildingBlock: AJUNOK_clean_linker_0, # of connection points: 2
#     Edge 54, Type (0, 0), BuildingBlock: AJUNOK_clean_linker_0, # of connection points: 2
#     Edge 55, Type (0, 0), BuildingBlock: AJUNOK_clean_linker_0, # of connection points: 2
# Relax obj value: 0.692
# Max RMSD: 0.171
# Mean RMSD: 0.171
data_MOF--net-zfx--node1-BEQFEK_clean_sbu_0--edge1-AJUNOK_clean_linker_0
_symmetry_space_group_name_H-M    P1
_symmetry_Int_Tables_number       1
_symmetry_cell_setting            triclinic
loop_
_symmetry_equiv_pos_as_xyz
'x, y, z'
_cell_length_a     43.768584
_cell_length_b     43.731575
_cell_length_c     18.791597
_cell_angle_alpha  90.011514
_cell_angle_beta   90.110901
_cell_angle_gamma 89.811482
loop_
_atom_site_label
_atom_site_type_symbol
_atom_site_fract_x
_atom_site_fract_y
_atom_site_fract_z
_atom_type_partial_charge
Co0 Co 0.48751 0.13369 0.48728 0.0
Co1 Co 0.54843 0.12318 0.41837 0.0
C2 C 0.5447 0.16531 0.54405 0.0
O3 O 0.51608 0.15967 0.54889 0.0
O4 O 0.56068 0.15336 0.49449 0.0
C5 C 0.42607 0.11742 0.5099 0.0
O6 O 0.43337 0.0915 0.47905 0.0
C7 C 0.60565 0.12779 0.34216 0.0
C8 C 0.60801 0.08222 0.29176 0.0
C9 C 0.62202 0.11054 0.29312 0.0
N10 N 0.58233 0.11098 0.36522 0.0
N11 N 0.58454 0.08331 0.33749 0.0
C12 C 0.61035 0.16054 0.36278 0.0
H13 H 0.61239 0.16213 0.4215 0.0
H14 H 0.59007 0.17424 0.34687 0.0
H15 H 0.63131 0.1701 0.33828 0.0
C16 C 0.4693 0.15565 0.34144 0.0
N17 N 0.48964 0.14342 0.38796 0.0
N18 N 0.51598 0.13924 0.35603 0.0
C19 C 0.51304 0.14895 0.28744 0.0
C20 C 0.48319 0.1596 0.27535 0.0
C21 C 0.43764 0.16542 0.36133 0.0
H22 H 0.42306 0.14485 0.3666 0.0
H23 H 0.43805 0.17736 0.4134 0.0
H24 H 0.42749 0.1808 0.32065 0.0
O25 O 0.49391 0.08982 0.51008 0.0
O26 O 0.53925 0.08329 0.46383 0.0
H27 H 0.55363 0.12885 0.24347 0.0
H28 H 0.52905 0.14771 0.17913 0.0
C29 C 0.53828 0.14863 0.23415 0.0
H30 H 0.5516 0.17001 0.23999 0.0
H31 H 0.56881 0.06581 0.34599 0.0
O32 O 0.44565 0.1387 0.51685 0.0
C33 C 0.51679 0.07287 0.49826 0.0
Co34 Co 0.14132 0.22929 0.72589 0.0
Co35 Co 0.15379 0.28956 0.65467 0.0
C36 C 0.11272 0.28822 0.78249 0.0
O37 O 0.11771 0.25946 0.78787 0.0
O38 O 0.12439 0.30356 0.7314 0.0
C39 C 0.15362 0.16704 0.74748 0.0
O40 O 0.17829 0.17212 0.70987 0.0
C41 C 0.15318 0.34809 0.57943 0.0
C42 C 0.19205 0.34048 0.50659 0.0
C43 C 0.16855 0.36075 0.52171 0.0
N44 N 0.16631 0.32122 0.59475 0.0
N45 N 0.19018 0.31731 0.55297 0.0
C46 C 0.12694 0.36103 0.62081 0.0
H47 H 0.13123 0.35796 0.67855 0.0
H48 H 0.10579 0.34831 0.60739 0.0
H49 H 0.12376 0.38578 0.60985 0.0
C50 C 0.11768 0.21201 0.58087 0.0
N51 N 0.13067 0.23169 0.62749 0.0
N52 N 0.13591 0.25779 0.59545 0.0
C53 C 0.12615 0.25558 0.52695 0.0
C54 C 0.11449 0.22621 0.51477 0.0
C55 C 0.10676 0.18074 0.60051 0.0
H56 H 0.09557 0.1814 0.65338 0.0
H57 H 0.09041 0.17171 0.56055 0.0
H58 H 0.12666 0.16502 0.60388 0.0
O59 O 0.18571 0.2332 0.74422 0.0
O60 O 0.19396 0.27846 0.69823 0.0
H61 H 0.15288 0.2851 0.46183 0.0
H62 H 0.11645 0.27544 0.42352 0.0
C63 C 0.12846 0.28096 0.47387 0.0
H64 H 0.1188 0.30225 0.49691 0.0
H65 H 0.20409 0.29785 0.55332 0.0
O66 O 0.13412 0.18818 0.75802 0.0
C67 C 0.20369 0.25503 0.73098 0.0
Co68 Co 0.04426 0.88296 0.97223 0.0
Co69 Co 0.98451 0.89576 0.89507 0.0
C70 C 0.98411 0.85446 0.02209 0.0
O71 O 0.01266 0.85985 0.02982 0.0
O72 O 0.96922 0.86558 0.96921 0.0
C73 C 0.1047 0.89624 1.0082 0.0
O74 O 0.10007 0.92113 0.9707 0.0
C75 C 0.93127 0.8994 0.79779 0.0
C76 C 0.93201 0.94874 0.77246 0.0
C77 C 0.91732 0.92176 0.75637 0.0
N78 N 0.9533 0.91259 0.83644 0.0
N79 N 0.95295 0.94226 0.82253 0.0
C80 C 0.92646 0.86559 0.79341 0.0
H81 H 0.94362 0.85319 0.82617 0.0
H82 H 0.92786 0.8579 0.73721 0.0
H83 H 0.90317 0.86014 0.81276 0.0
C84 C 0.06381 0.85859 0.83237 0.0
N85 N 0.04315 0.87272 0.87442 0.0
N86 N 0.01798 0.87818 0.8383 0.0
C87 C 0.02227 0.86771 0.77079 0.0
C88 C 0.05161 0.85501 0.76454 0.0
C89 C 0.09372 0.84625 0.85873 0.0
H90 H 0.09032 0.83443 0.91031 0.0
H91 H 0.10403 0.82992 0.82044 0.0
H92 H 0.10974 0.8655 0.86744 0.0
O93 O 0.04041 0.92706 0.99273 0.0
O94 O 0.99517 0.93413 0.94636 0.0
H95 H 0.01012 0.86993 0.65978 0.0
H96 H 0.98381 0.8496 0.71576 0.0
C97 C 0.99901 0.86979 0.71283 0.0
H98 H 0.98512 0.89076 0.71952 0.0
H99 H 0.96835 0.95804 0.84365 0.0
O100 O 0.08484 0.87503 1.00827 0.0
C101 C 0.01777 0.94424 0.98102 0.0
Co102 Co 0.39654 0.78127 0.22199 0.0
Co103 Co 0.38462 0.71947 0.1553 0.0
C104 C 0.42606 0.7235 0.2824 0.0
O105 O 0.42021 0.75213 0.28603 0.0
O106 O 0.41503 0.70726 0.23195 0.0
C107 C 0.38545 0.84423 0.2479 0.0
O108 O 0.35778 0.83904 0.22394 0.0
C109 C 0.38775 0.66394 0.06961 0.0
C110 C 0.33888 0.65756 0.04297 0.0
C111 C 0.36778 0.64601 0.03026 0.0
N112 N 0.3713 0.68518 0.10357 0.0
N113 N 0.34207 0.68076 0.08907 0.0
C114 C 0.42197 0.66368 0.06822 0.0
H115 H 0.43116 0.68556 0.08904 0.0
H116 H 0.43048 0.65961 1.01342 0.0
H117 H 0.43045 0.64486 0.10262 0.0
C118 C 0.41938 0.7965 0.07606 0.0
N119 N 0.40675 0.77706 0.1235 0.0
N120 N 0.4008 0.7509 0.09209 0.0
C121 C 0.40901 0.75326 0.0225 0.0
C122 C 0.42135 0.7823 1.00986 0.0
C123 C 0.43086 0.82768 0.0949 0.0
H124 H 0.44292 0.82688 0.14682 0.0
H125 H 0.44671 0.83663 0.05394 0.0
H126 H 0.41114 0.84353 0.09984 0.0
O127 O 0.35215 0.77774 0.24137 0.0
O128 O 0.34546 0.73132 0.20059 0.0
H129 H 0.40167 0.73927 0.91378 0.0
H130 H 0.42308 0.71288 0.96765 0.0
C131 C 0.40356 0.72907 0.96771 0.0
H132 H 0.38238 0.71632 0.97998 0.0
H133 H 0.3243 0.6947 0.1072 0.0
O134 O 0.40516 0.82284 0.25062 0.0
C135 C 0.33503 0.75489 0.23126 0.0
Co136 Co 0.48807 0.88521 0.56573 0.0
Co137 Co 0.5454 0.88906 0.65323 0.0
C138 C 0.54976 0.8577 0.51546 0.0
O139 O 0.52196 0.86581 0.50499 0.0
O140 O 0.56303 0.86372 0.57439 0.0
C141 C 0.45081 0.89945 0.4566 0.0
O142 O 0.47504 0.91633 0.44498 0.0
C143 C 0.6032 0.89263 0.73202 0.0
C144 C 0.58676 0.91615 0.82896 0.0
C145 C 0.61266 0.90369 0.79795 0.0
N146 N 0.57306 0.89755 0.72636 0.0
N147 N 0.56358 0.91244 0.78328 0.0
C148 C 0.62241 0.88153 0.67141 0.0
H149 H 0.61484 0.89282 0.62148 0.0
H150 H 0.61897 0.85658 0.66426 0.0
H151 H 0.64697 0.88652 0.68038 0.0
C152 C 0.46402 0.85132 0.69497 0.0
N153 N 0.48548 0.86674 0.65772 0.0
N154 N 0.51072 0.8681 0.69551 0.0
C155 C 0.50639 0.85263 0.75727 0.0
C156 C 0.47649 0.84159 0.75966 0.0
C157 C 0.43239 0.84548 0.66822 0.0
H158 H 0.41893 0.86697 0.6718 0.0
H159 H 0.43324 0.83867 0.61137 0.0
H160 H 0.42089 0.82746 0.69988 0.0
O161 O 0.49203 0.93004 0.57373 0.0
O162 O 0.53835 0.93169 0.61745 0.0
H163 H 0.52998 0.86923 0.84887 0.0
H164 H 0.52592 0.82865 0.84766 0.0
C165 C 0.5303 0.84886 0.81378 0.0
H166 H 0.55324 0.8467 0.78932 0.0
H167 H 0.5411 0.91967 0.7912 0.0
O168 O 0.45053 0.88174 0.51038 0.0
C169 C 0.5155 0.94519 0.59016 0.0
Co170 Co 0.39384 0.22505 0.81403 0.0
Co171 Co 0.38364 0.284 0.89231 0.0
C172 C 0.42222 0.28505 0.76119 0.0
O173 O 0.41777 0.25628 0.7544 0.0
O174 O 0.41049 0.29957 0.81338 0.0
C175 C 0.38167 0.18625 0.71038 0.0
O176 O 0.37071 0.21271 0.68907 0.0
C177 C 0.38957 0.33872 0.978 0.0
C178 C 0.34384 0.341 0.02744 0.0
C179 C 0.37227 0.35466 0.02746 0.0
N180 N 0.37247 0.31612 0.95211 0.0
N181 N 0.3448 0.31821 0.97976 0.0
C182 C 0.42248 0.34326 0.9591 0.0
H183 H 0.43569 0.32232 0.97226 0.0
H184 H 0.43237 0.36331 0.98698 0.0
H185 H 0.42439 0.3468 0.90083 0.0
C186 C 0.42082 0.20358 0.95331 0.0
N187 N 0.40712 0.22459 0.9109 0.0
N188 N 0.40266 0.25004 0.94681 0.0
C189 C 0.41376 0.24578 1.01386 0.0
C190 C 0.42572 0.21612 0.02073 0.0
C191 C 0.42998 0.17239 0.92852 0.0
H192 H 0.43916 0.1737 0.87361 0.0
H193 H 0.44728 0.16201 0.96448 0.0
H194 H 0.40946 0.15755 0.92721 0.0
O195 O 0.34847 0.22987 0.80876 0.0
O196 O 0.34262 0.27566 0.8525 0.0
H197 H 0.41238 0.25835 0.12468 0.0
H198 H 0.43352 0.28361 0.06787 0.0
C199 C 0.41271 0.26931 0.0714 0.0
H200 H 0.3923 0.28409 0.06516 0.0
H201 H 0.32704 0.30298 0.96928 0.0
O202 O 0.39729 0.18536 0.76757 0.0
C203 C 0.33141 0.25237 0.82287 0.0
Co204 Co 0.05006 0.132 0.05847 0.0
Co205 Co 0.99092 0.1266 0.13978 0.0
C206 C 0.98999 0.16122 1.00393 0.0
O207 O 0.01847 0.15496 0.99739 0.0
O208 O 0.9751 0.15208 0.05833 0.0
C209 C 0.09086 0.11602 0.95683 0.0
O210 O 0.06653 0.10016 0.93951 0.0
C211 C 0.93279 0.12594 0.21803 0.0
C212 C 0.94598 0.09418 0.30442 0.0
C213 C 0.92202 0.11204 0.27971 0.0
N214 N 0.96183 0.11716 0.20864 0.0
N215 N 0.96927 0.09751 0.25909 0.0
C216 C 0.91573 0.14566 0.16629 0.0
H217 H 0.92148 0.13872 0.11114 0.0
H218 H 0.92295 0.16979 0.17315 0.0
H219 H 0.89067 0.14378 0.17387 0.0
C220 C 0.07237 0.16187 0.19421 0.0
N221 N 0.05122 0.14795 0.15288 0.0
N222 N 0.02539 0.14601 0.18805 0.0
C223 C 0.02918 0.15929 0.25276 0.0
C224 C 0.05928 0.16965 0.25963 0.0
C225 C 0.10424 0.16846 0.17023 0.0
H226 H 0.11789 0.14706 0.1727 0.0
H227 H 0.10397 0.17627 0.11404 0.0
H228 H 0.1152 0.18602 0.20433 0.0
O229 O 0.04385 0.08694 0.06013 0.0
O230 O 0.99775 0.08453 0.10383 0.0
H231 H 1.00284 0.13885 0.33533 0.0
H232 H 0.00962 0.17886 0.34856 0.0
C233 C 1.00461 0.16122 0.30791 0.0
H234 H 0.98233 0.16635 0.28227 0.0
H235 H 0.99065 0.08702 0.26352 0.0
O236 O 0.0894 0.13432 1.00949 0.0
C237 C 0.02046 0.07151 0.07544 0.0
Co238 Co 0.14745 0.7891 0.31841 0.0
Co239 Co 0.15404 0.72835 0.39251 0.0
C240 C 0.11704 0.73086 0.25978 0.0
O241 O 0.12458 0.75904 0.25328 0.0
O242 O 0.12535 0.71546 0.3144 0.0
C243 C 0.12239 0.84375 0.257 0.0
O244 O 0.09529 0.83114 0.26191 0.0
C245 C 0.15187 0.67322 0.48355 0.0
C246 C 0.20112 0.66844 0.50837 0.0
C247 C 0.17287 0.65589 0.52199 0.0
N248 N 0.16723 0.69513 0.44921 0.0
N249 N 0.19669 0.69167 0.46314 0.0
C250 C 0.11774 0.67127 0.48495 0.0
H251 H 0.10735 0.69214 0.46139 0.0
H252 H 0.10953 0.66803 0.5403 0.0
H253 H 0.11031 0.65131 0.45295 0.0
C254 C 0.12074 0.80884 0.45843 0.0
N255 N 0.13409 0.78793 0.41532 0.0
N256 N 0.13683 0.76178 0.44937 0.0
C257 C 0.12493 0.76542 0.51571 0.0
C258 C 0.11416 0.79538 0.52366 0.0
C259 C 0.11279 0.84073 0.43609 0.0
H260 H 0.13274 0.85148 0.40996 0.0
H261 H 0.09369 0.83984 0.39742 0.0
H262 H 0.10538 0.85507 0.48155 0.0
O263 O 0.19189 0.78421 0.30776 0.0
O264 O 0.19417 0.7375 0.34794 0.0
H265 H 0.14442 0.72596 0.56666 0.0
H266 H 0.12373 0.75142 0.62557 0.0
C267 C 0.12422 0.74112 0.57157 0.0
H268 H 0.10319 0.72735 0.56478 0.0
H269 H 0.21391 0.70604 0.44479 0.0
O270 O 0.14539 0.83002 0.28155 0.0
C271 C 0.20703 0.76012 0.31904 0.0
Co272 Co 0.89441 0.72552 0.30491 0.0
Co273 Co 0.89209 0.78336 0.38961 0.0
C274 C 0.92165 0.78674 0.25047 0.0
O275 O 0.91333 0.75891 0.24212 0.0
O276 O 0.91673 0.80046 0.30936 0.0
C277 C 0.87808 0.68919 0.19654 0.0
O278 O 0.86175 0.71407 0.18681 0.0
C279 C 0.88838 0.84155 0.46633 0.0
C280 C 0.86623 0.82529 0.565 0.0
C281 C 0.87753 0.85124 0.53211 0.0
N282 N 0.88432 0.81125 0.46227 0.0
N283 N 0.87031 0.80182 0.52032 0.0
C284 C 0.8986 0.86059 0.4047 0.0
H285 H 0.88705 0.85262 0.35547 0.0
H286 H 0.92352 0.85742 0.3967 0.0
H287 H 0.89326 0.88516 0.41317 0.0
C288 C 0.92811 0.70097 0.43453 0.0
N289 N 0.91354 0.7228 0.39611 0.0
N290 N 0.91307 0.7484 0.43264 0.0
C291 C 0.92855 0.74394 0.4945 0.0
C292 C 0.93829 0.71353 0.49877 0.0
C293 C 0.93251 0.66881 0.40955 0.0
H294 H 0.93856 0.66871 0.35223 0.0
H295 H 0.95054 0.65696 0.44084 0.0
H296 H 0.91067 0.65626 0.41556 0.0
O297 O 0.85002 0.73037 0.31597 0.0
O298 O 0.84892 0.77737 0.35543 0.0
H299 H 0.91502 0.76782 0.5885 0.0
H300 H 0.95553 0.76424 0.57851 0.0
C301 C 0.93389 0.76825 0.54922 0.0
H302 H 0.93472 0.79111 0.52382 0.0
H303 H 0.86379 0.77926 0.5295 0.0
O304 O 0.89638 0.68792 0.24927 0.0
C305 C 0.83509 0.75421 0.33106 0.0
Co306 Co 0.64392 0.28915 0.82333 0.0
Co307 Co 0.65436 0.22894 0.89685 0.0
C308 C 0.61341 0.23115 0.76723 0.0
O309 O 0.61851 0.25991 0.76158 0.0
O310 O 0.6253 0.21606 0.81863 0.0
C311 C 0.66003 0.35056 0.79792 0.0
O312 O 0.68564 0.34387 0.83085 0.0
C313 C 0.64902 0.17349 0.98116 0.0
C314 C 0.696 0.16912 0.02314 0.0
C315 C 0.66701 0.15688 0.02835 0.0
N316 N 0.66628 0.19522 0.9521 0.0
N317 N 0.69464 0.19178 0.97513 0.0
C318 C 0.61548 0.1704 0.96738 0.0
H319 H 0.61198 0.16628 0.90992 0.0
H320 H 0.60363 0.19212 0.98063 0.0
H321 H 0.6054 0.15112 0.99759 0.0
C322 C 0.62014 0.30849 0.96697 0.0
N323 N 0.63302 0.28784 0.92221 0.0
N324 N 0.63754 0.26195 0.95614 0.0
C325 C 0.62765 0.26562 0.02429 0.0
C326 C 0.61609 0.29525 0.03373 0.0
C327 C 0.61038 0.33994 0.94513 0.0
H328 H 0.59879 0.33904 0.89264 0.0
H329 H 0.59479 0.35039 0.98485 0.0
H330 H 0.63092 0.35456 0.93983 0.0
O331 O 0.68827 0.2831 0.80457 0.0
O332 O 0.6945 0.23842 0.85472 0.0
H333 H 0.63163 0.25216 0.13401 0.0
H334 H 0.60803 0.22821 0.07942 0.0
C335 C 0.62946 0.24162 0.08049 0.0
H336 H 0.64914 0.22622 0.07074 0.0
H337 H 0.71271 0.20618 0.96181 0.0
O338 O 0.63897 0.33074 0.79107 0.0
C339 C 0.70525 0.26063 0.82005 0.0
Co340 Co 0.64656 0.73483 0.22942 0.0
Co341 Co 0.65758 0.79648 0.16149 0.0
C342 C 0.61781 0.79514 0.28713 0.0
O343 O 0.62333 0.76633 0.29 0.0
O344 O 0.6285 0.81141 0.23644 0.0
C345 C 0.61935 0.67376 0.26596 0.0
O346 O 0.59264 0.67901 0.23628 0.0
C347 C 0.66296 0.85178 0.06913 0.0
C348 C 0.71046 0.84529 0.03288 0.0
C349 C 0.6849 0.86341 0.02319 0.0
N350 N 0.67479 0.82746 0.10291 0.0
N351 N 0.70358 0.82449 0.0827 0.0
C352 C 0.63047 0.8621 0.07529 0.0
H353 H 0.618 0.84822 0.11517 0.0
H354 H 0.61903 0.86059 0.02263 0.0
H355 H 0.62995 0.8865 0.09151 0.0
C356 C 0.62748 0.7169 0.08207 0.0
N357 N 0.63817 0.73718 0.13023 0.0
N358 N 0.63857 0.76461 0.10212 0.0
C359 C 0.6251 0.76303 0.03693 0.0
C360 C 0.61779 0.7324 0.02104 0.0
C361 C 0.63023 0.68295 0.09055 0.0
H362 H 0.6483 0.67722 0.12984 0.0
H363 H 0.60824 0.67335 0.10876 0.0
H364 H 0.6359 0.67212 0.03877 0.0
O365 O 0.68992 0.73718 0.24916 0.0
O366 O 0.69687 0.78387 0.21125 0.0
H367 H 0.63511 0.80142 0.97062 0.0
H368 H 0.5973 0.78537 0.95657 0.0
C369 C 0.61508 0.79077 0.9967 0.0
H370 H 0.60524 0.80741 0.03463 0.0
H371 H 0.71811 0.80685 0.09907 0.0
O372 O 0.63952 0.69431 0.26553 0.0
C373 C 0.70716 0.75991 0.24105 0.0
Co374 Co 0.89397 0.28757 0.72591 0.0
Co375 Co 0.88305 0.22716 0.64968 0.0
C376 C 0.92309 0.22682 0.7778 0.0
O377 O 0.91885 0.25582 0.78262 0.0
O378 O 0.91076 0.21141 0.7274 0.0
C379 C 0.87819 0.34635 0.77093 0.0
O380 O 0.85349 0.34211 0.73258 0.0
C381 C 0.878 0.17257 0.55567 0.0
C382 C 0.83165 0.18114 0.51328 0.0
C383 C 0.85633 0.16159 0.50811 0.0
N384 N 0.8666 0.19757 0.58723 0.0
N385 N 0.83852 0.20194 0.56306 0.0
C386 C 0.91013 0.16143 0.56451 0.0
H387 H 0.9228 0.1759 0.60302 0.0
H388 H 0.92194 0.16147 0.51227 0.0
H389 H 0.9098 0.13743 0.5837 0.0
C390 C 0.91746 0.30731 0.58467 0.0
N391 N 0.90417 0.28664 0.62797 0.0
N392 N 0.90191 0.26027 0.59514 0.0
C393 C 0.91494 0.26311 0.5299 0.0
C394 C 0.92565 0.29317 0.52073 0.0
C395 C 0.92017 0.3405 0.60316 0.0
H396 H 0.89865 0.34848 0.62802 0.0
H397 H 0.93886 0.34357 0.6425 0.0
H398 H 0.92458 0.35474 0.55547 0.0
O399 O 0.84985 0.28256 0.74513 0.0
O400 O 0.84382 0.23777 0.69625 0.0
H401 H 0.89682 0.22918 0.45995 0.0
H402 H 0.9345 0.24256 0.43506 0.0
C403 C 0.91937 0.23676 0.48027 0.0
H404 H 0.92972 0.21749 0.51002 0.0
H405 H 0.82457 0.22039 0.57709 0.0
O406 O 0.90089 0.32827 0.76424 0.0
C407 C 0.83302 0.26005 0.73084 0.0
Co408 Co 0.99581 0.63671 0.96778 0.0
Co409 Co 0.05731 0.62229 0.90333 0.0
C410 C 0.05366 0.66452 0.02986 0.0
O411 O 0.02485 0.65995 0.03201 0.0
O412 O 0.06984 0.65264 0.98032 0.0
C413 C 0.93261 0.62714 0.985 0.0
O414 O 0.93759 0.60074 0.95387 0.0
C415 C 0.11205 0.6236 0.81518 0.0
C416 C 0.11875 0.57416 0.79511 0.0
C417 C 0.12932 0.60279 0.77665 0.0
N418 N 0.0917 0.60793 0.8534 0.0
N419 N 0.09645 0.57837 0.84302 0.0
C420 C 0.11213 0.65774 0.80923 0.0
H421 H 0.09128 0.66766 0.83377 0.0
H422 H 0.11379 0.66487 0.75271 0.0
H423 H 0.13249 0.66678 0.83743 0.0
C424 C 0.98121 0.6588 0.82088 0.0
N425 N 1.00047 0.64619 0.86911 0.0
N426 N 0.02634 0.63884 0.83799 0.0
C427 C 0.02378 0.64593 0.76759 0.0
C428 C 0.99503 0.65892 0.75423 0.0
C429 C 0.95071 0.6722 0.8392 0.0
H430 H 0.952 0.68422 0.89107 0.0
H431 H 0.94281 0.68853 0.79783 0.0
H432 H 0.93377 0.6535 0.84367 0.0
O433 O 0.9984 0.59228 0.98886 0.0
O434 O 0.0445 0.5834 0.94884 0.0
H435 H 0.06106 0.61866 0.72818 0.0
H436 H 0.03641 0.63454 0.66014 0.0
C437 C 0.04736 0.6389 0.71249 0.0
H438 H 0.06258 0.65892 0.70638 0.0
H439 H 0.08321 0.56097 0.8649 0.0
O440 O 0.95428 0.64598 0.99464 0.0
C441 C 0.02051 0.57405 0.97923 0.0
Co442 Co 0.55169 0.38321 0.4946 0.0
Co443 Co 0.49255 0.39508 0.4179 0.0
C444 C 0.49208 0.35544 0.54869 0.0
O445 O 0.52101 0.35887 0.5542 0.0
O446 O 0.47743 0.36835 0.4981 0.0
C447 C 0.59112 0.39486 0.597 0.0
O448 O 0.56474 0.4054 0.61966 0.0
C449 C 0.43717 0.38841 0.33521 0.0
C450 C 0.43496 0.4333 0.28141 0.0
C451 C 0.42117 0.40492 0.28424 0.0
N452 N 0.45997 0.40582 0.35894 0.0
N453 N 0.45792 0.43304 0.32877 0.0
C454 C 0.43236 0.35596 0.35805 0.0
H455 H 0.42934 0.35526 0.41661 0.0
H456 H 0.45297 0.34218 0.34536 0.0
H457 H 0.4119 0.34583 0.33236 0.0
C458 C 0.57198 0.35705 0.35379 0.0
N459 N 0.55144 0.3707 0.39733 0.0
N460 N 0.52587 0.37581 0.36235 0.0
C461 C 0.52954 0.36518 0.2948 0.0
C462 C 0.55894 0.35278 0.28669 0.0
C463 C 0.60323 0.34736 0.37702 0.0
H464 H 0.61867 0.36741 0.37481 0.0
H465 H 0.60258 0.33914 0.43285 0.0
H466 H 0.61248 0.32914 0.34192 0.0
O467 O 0.54679 0.42849 0.50157 0.0
O468 O 0.50176 0.43634 0.45528 0.0
H469 H 0.49214 0.3884 0.24386 0.0
H470 H 0.51597 0.36613 0.1844 0.0
C471 C 0.5056 0.36706 0.23822 0.0
H472 H 0.49007 0.34727 0.24411 0.0
H473 H 0.47331 0.45085 0.33721 0.0
O474 O 0.59172 0.37957 0.53938 0.0
C475 C 0.52521 0.44654 0.48623 0.0
Co476 Co 0.98848 0.38619 0.06868 0.0
Co477 Co 0.05016 0.39251 0.13753 0.0
C478 C 0.04777 0.3553 1.00868 0.0
O479 O 0.01939 0.36278 1.00492 0.0
O480 O 0.06413 0.36392 0.06137 0.0
C481 C 0.92897 0.36021 0.02636 0.0
O482 O 0.93603 0.33319 0.05228 0.0
C483 C 0.10588 0.39582 0.22935 0.0
C484 C 0.09961 0.44271 0.27005 0.0
C485 C 0.11808 0.41723 0.27592 0.0
N486 N 0.08117 0.40803 0.19799 0.0
N487 N 0.07824 0.43646 0.22111 0.0
C488 C 0.11614 0.36339 0.22051 0.0
H489 H 0.1025 0.35164 0.17891 0.0
H490 H 0.11408 0.35109 0.27193 0.0
H491 H 0.14068 0.36303 0.20566 0.0
C492 C 0.9698 0.36373 0.21392 0.0
N493 N 0.99018 0.37479 0.16652 0.0
N494 N 0.01763 0.37401 0.19449 0.0
C495 C 0.01592 0.35969 0.25845 0.0
C496 C 0.98523 0.35302 0.27423 0.0
C497 C 0.93589 0.36625 0.20483 0.0
H498 H 0.93012 0.38496 0.1673 0.0
H499 H 0.92674 0.34445 0.18385 0.0
H500 H 0.92477 0.3708 0.25682 0.0
O501 O 0.99207 0.43021 0.05671 0.0
O502 O 0.03966 0.43284 0.09118 0.0
H503 H 0.05438 0.36761 0.32573 0.0
H504 H 0.03778 0.32985 0.33537 0.0
C505 C 0.0435 0.34832 0.29728 0.0
H506 H 0.06004 0.33912 0.25824 0.0
H507 H 0.06036 0.45113 0.20724 0.0
O508 O 0.94797 0.38175 0.03069 0.0
C509 C 0.01607 0.44558 0.0654 0.0
Co510 Co 0.55452 0.63572 0.57421 0.0
Co511 Co 0.49319 0.62661 0.64596 0.0
C512 C 0.49373 0.66294 0.51459 0.0
O513 O 0.52236 0.65677 0.51046 0.0
O514 O 0.47815 0.65431 0.56843 0.0
C515 C 0.61323 0.62307 0.5248 0.0
O516 O 0.61162 0.59804 0.56295 0.0
C517 C 0.43841 0.6235 0.73913 0.0
C518 C 0.44142 0.57475 0.76988 0.0
C519 C 0.42503 0.60125 0.78186 0.0
N520 N 0.46212 0.61068 0.70519 0.0
N521 N 0.46325 0.58139 0.72266 0.0
C522 C 0.4304 0.65672 0.73419 0.0
H523 H 0.44741 0.66912 0.70144 0.0
H524 H 0.42907 0.6669 0.78823 0.0
H525 H 0.40767 0.65926 0.70864 0.0
C526 C 0.57238 0.6618 0.71418 0.0
N527 N 0.55204 0.64808 0.67074 0.0
N528 N 0.52544 0.64615 0.70247 0.0
C529 C 0.52782 0.65998 0.7671 0.0
C530 C 0.55781 0.6708 0.77689 0.0
C531 C 0.60573 0.66398 0.6973 0.0
H532 H 0.61363 0.6422 0.67329 0.0
H533 H 0.60936 0.68243 0.65771 0.0
H534 H 0.61959 0.66854 0.7456 0.0
O535 O 0.5519 0.59119 0.56193 0.0
O536 O 0.50489 0.58692 0.5994 0.0
H537 H 0.48911 0.64348 0.82481 0.0
H538 H 0.50767 0.67586 0.86634 0.0
C539 C 0.50111 0.66537 0.81503 0.0
H540 H 0.48507 0.68123 0.78813 0.0
H541 H 0.47987 0.56602 0.70527 0.0
O542 O 0.59489 0.64506 0.53712 0.0
C543 C 0.52847 0.57507 0.57173 0.0
C544 C 0.48967 0.02558 0.53955 0.0
C545 C 0.51725 0.04075 0.52466 0.0
C546 C 0.4894 0.99495 0.56202 0.0
C547 C 0.51671 0.97833 0.57207 0.0
H548 H 0.468 0.03721 0.53226 0.0
H549 H 0.46752 0.98414 0.57113 0.0
S550 S 0.5952 1.00785 0.54374 0.0
N551 N 0.57273 0.03699 0.52352 0.0
N552 N 0.57221 0.97974 0.567 0.0
C553 C 0.5445 0.99348 0.55929 0.0
C554 C 0.54477 0.02453 0.5352 0.0
C555 C 0.28322 0.28005 0.78913 0.0
C556 C 0.29867 0.25222 0.80132 0.0
C557 C 0.25273 0.28069 0.76576 0.0
C558 C 0.23613 0.25354 0.75502 0.0
H559 H 0.29495 0.3016 0.79646 0.0
H560 H 0.242 0.30271 0.7567 0.0
S561 S 0.2657 0.17459 0.78105 0.0
N562 N 0.29492 0.19676 0.80126 0.0
N563 N 0.2375 0.19795 0.75924 0.0
C564 C 0.25116 0.22554 0.76803 0.0
C565 C 0.28242 0.22488 0.79057 0.0
C566 C 0.04622 0.02187 0.04446 0.0
C567 C 0.01907 0.03859 0.05552 0.0
C568 C 0.04557 0.99127 0.02172 0.0
C569 C 0.01777 0.97632 1.00749 0.0
H570 H 0.06822 0.03251 0.05329 0.0
H571 H 0.0671 0.97947 1.0138 0.0
S572 S 0.94018 0.00966 0.02878 0.0
N573 N 0.96351 0.03757 0.05175 0.0
N574 N 0.96233 0.98043 1.00767 0.0
C575 C 0.99045 0.99269 1.01874 0.0
C576 C 0.99109 0.02367 0.04314 0.0
C577 C 0.28755 0.78381 0.26549 0.0
C578 C 0.30259 0.75567 0.25484 0.0
C579 C 0.25669 0.78506 0.28591 0.0
C580 C 0.23975 0.75821 0.29779 0.0
H581 H 0.29955 0.80512 0.25697 0.0
H582 H 0.24612 0.80729 0.29284 0.0
S583 S 0.2686 0.67863 0.27889 0.0
N584 N 0.29817 0.70024 0.25865 0.0
N585 N 0.24053 0.70256 0.2977 0.0
C586 C 0.25463 0.7299 0.28817 0.0
C587 C 0.28591 0.72864 0.2665 0.0
C588 C 0.78742 0.78367 0.29923 0.0
C589 C 0.80187 0.75551 0.31388 0.0
C590 C 0.75691 0.78498 0.27549 0.0
C591 C 0.73946 0.75821 0.26646 0.0
H592 H 0.80002 0.80484 0.30413 0.0
H593 H 0.74696 0.80715 0.26405 0.0
S594 S 0.76629 0.67874 0.3003 0.0
N595 N 0.79606 0.70029 0.31938 0.0
N596 N 0.73902 0.70265 0.2757 0.0
C597 C 0.75351 0.72996 0.2825 0.0
C598 C 0.78457 0.72864 0.30593 0.0
C599 C 0.78475 0.28734 0.76628 0.0
C600 C 0.80057 0.25973 0.75414 0.0
C601 C 0.75385 0.28751 0.78663 0.0
C602 C 0.73778 0.26006 0.79733 0.0
H603 H 0.79618 0.30905 0.75902 0.0
H604 H 0.74261 0.30932 0.79491 0.0
S605 S 0.76884 0.18156 0.77413 0.0
N606 N 0.79776 0.20419 0.75473 0.0
N607 N 0.74013 0.20448 0.79449 0.0
C608 C 0.75345 0.2323 0.78621 0.0
C609 C 0.78469 0.23213 0.76422 0.0
C610 C 0.04545 0.52376 1.00863 0.0
C611 C 0.01863 0.54158 1.00303 0.0
C612 C 0.04447 0.49298 0.02989 0.0
C613 C 0.01659 0.4785 0.04523 0.0
H614 H 0.06751 0.53366 0.99674 0.0
H615 H 0.06575 0.48032 0.03314 0.0
S616 S 0.93979 0.51491 0.04053 0.0
N617 N 0.96337 0.5424 1.01652 0.0
N618 N 0.96148 0.48458 0.055 0.0
C619 C 0.9896 0.49603 0.04024 0.0
C620 C 0.99064 0.52751 1.01963 0.0
C621 C 0.50003 0.49725 0.50981 0.0
C622 C 0.52686 0.47939 0.50697 0.0
C623 C 0.50073 0.52798 0.53157 0.0
C624 C 0.52836 0.54234 0.5501 0.0
H625 H 0.47815 0.48734 0.49603 0.0
H626 H 0.47944 0.54067 0.53309 0.0
S627 S 0.60509 0.50586 0.55223 0.0
N628 N 0.58191 0.47846 0.52541 0.0
N629 N 0.58322 0.53618 0.565 0.0
C630 C 0.55538 0.52484 0.54713 0.0
C631 C 0.55463 0.49342 0.52599 0.0
C632 C 0.48101 0.1998 0.17697 0.0
C633 C 0.46915 0.17308 0.20853 0.0
C634 C 0.46679 0.21373 0.11716 0.0
C635 C 0.44042 0.20123 0.08512 0.0
H636 H 0.50112 0.21034 0.19968 0.0
H637 H 0.47663 0.23436 0.09533 0.0
S638 S 0.40051 0.13122 0.1459 0.0
N639 N 0.42935 0.13468 0.20217 0.0
N640 N 0.40329 0.16024 0.09002 0.0
C641 C 0.42866 0.1743 0.11559 0.0
C642 C 0.44279 0.16044 0.17701 0.0
C643 C 0.06282 0.21209 0.35194 0.0
C644 C 0.07424 0.18452 0.32315 0.0
C645 C 0.07619 0.22581 0.41268 0.0
C646 C 0.1016 0.21257 0.44739 0.0
H647 H 0.0433 0.22316 0.32736 0.0
H648 H 0.06619 0.24667 0.43343 0.0
S649 S 0.1408 0.14098 0.39257 0.0
N650 N 0.11286 0.14487 0.334 0.0
N651 N 0.13804 0.17062 0.44671 0.0
C652 C 0.11345 0.18528 0.41845 0.0
C653 C 0.09988 0.17137 0.35673 0.0
C654 C 0.06972 0.80013 0.60985 0.0
C655 C 0.09866 0.81004 0.58643 0.0
C656 C 0.05412 0.81519 0.66589 0.0
C657 C 0.06702 0.84053 0.70129 0.0
H658 H 0.05889 0.78083 0.58405 0.0
H659 H 0.03206 0.80661 0.68242 0.0
S660 S 0.1422 0.87535 0.6605 0.0
N661 N 0.13948 0.84666 0.60366 0.0
N662 N 0.1104 0.87488 0.70763 0.0
C663 C 0.09591 0.85052 0.67819 0.0
C664 C 0.11166 0.83531 0.62133 0.0
C665 C 0.42376 0.82432 0.91726 0.0
C666 C 0.43406 0.79562 0.94214 0.0
C667 C 0.43688 0.83851 0.85713 0.0
C668 C 0.46113 0.82479 0.81953 0.0
H669 H 0.40559 0.83613 0.94516 0.0
H670 H 0.42852 0.86081 0.84106 0.0
S671 S 0.49595 0.74929 0.8603 0.0
N672 N 0.46971 0.75377 0.9226 0.0
N673 N 0.49385 0.78006 0.80951 0.0
C674 C 0.47109 0.79575 0.84252 0.0
C675 C 0.4577 0.78127 0.90364 0.0
C676 C 0.64792 0.91738 0.89569 0.0
C677 C 0.64069 0.89739 0.83923 0.0
C678 C 0.66543 0.90744 0.95357 0.0
C679 C 0.67714 0.87766 0.95509 0.0
H680 H 0.63733 0.93978 0.89879 0.0
H681 H 0.66763 0.92214 0.99971 0.0
S682 S 0.66991 0.81815 0.81612 0.0
N683 N 0.6496 0.84726 0.78627 0.0
N684 N 0.68471 0.82982 0.89205 0.0
C685 C 0.67367 0.85891 0.8951 0.0
C686 C 0.6549 0.8685 0.83748 0.0
C687 C 0.87313 0.90412 0.68607 0.0
C688 C 0.90292 0.91549 0.68793 0.0
C689 C 0.86316 0.88701 0.62777 0.0
C690 C 0.88324 0.87973 0.57165 0.0
H691 H 0.85853 0.90605 0.73237 0.0
H692 H 0.84083 0.87644 0.6307 0.0
S693 S 0.96236 0.90868 0.54927 0.0
N694 N 0.95059 0.92341 0.62525 0.0
N695 N 0.93328 0.88864 0.51882 0.0
C696 C 0.91202 0.89393 0.56993 0.0
C697 C 0.92157 0.91245 0.62785 0.0
C698 C 0.88679 0.15203 0.32555 0.0
C699 C 0.89625 0.12127 0.32529 0.0
C700 C 0.87066 0.16404 0.38277 0.0
C701 C 0.86416 0.14594 0.44228 0.0
H702 H 0.89447 0.16805 0.28582 0.0
H703 H 0.86593 0.18839 0.38348 0.0
S704 S 0.87899 0.06329 0.46368 0.0
N705 N 0.89345 0.07186 0.38503 0.0
N706 N 0.86454 0.09548 0.49532 0.0
C707 C 0.87093 0.11476 0.44071 0.0
C708 C 0.8866 0.10216 0.3813 0.0
C709 C 0.6233 0.14844 0.19716 0.0
C710 C 0.6368 0.12294 0.22976 0.0
C711 C 0.63287 0.15843 0.13137 0.0
C712 C 0.65603 0.14313 0.09429 0.0
H713 H 0.60436 0.16046 0.22108 0.0
H714 H 0.62195 0.17856 0.11001 0.0
S715 S 0.69914 0.07514 0.15592 0.0
N716 N 0.67459 0.08225 0.22069 0.0
N717 N 0.69317 0.1017 0.09478 0.0
C718 C 0.67023 0.11777 0.12602 0.0
C719 C 0.6603 0.10737 0.194 0.0
C720 C 0.99657 0.69357 0.64565 0.0
C721 C 0.98169 0.67067 0.68531 0.0
C722 C 0.9828 0.70693 0.58484 0.0
C723 C 0.95367 0.69777 0.56061 0.0
H724 H 0.01865 0.7019 0.66298 0.0
H725 H 0.99494 0.72481 0.55692 0.0
S726 S 0.90605 0.6372 0.64206 0.0
N727 N 0.93684 0.6383 0.69294 0.0
N728 N 0.91117 0.66332 0.57976 0.0
C729 C 0.93911 0.67418 0.59833 0.0
C730 C 0.953 0.66073 0.6603 0.0
C731 C 0.58046 0.6944 0.9671 0.0
C732 C 0.60141 0.7186 0.95741 0.0
C733 C 0.56653 0.67924 0.90927 0.0
C734 C 0.57143 0.68848 0.83847 0.0
H735 H 0.57472 0.68677 1.02007 0.0
H736 H 0.55222 0.65968 0.92041 0.0
S737 S 0.62178 0.75227 0.78231 0.0
N738 N 0.62639 0.75068 0.86945 0.0
N739 N 0.59654 0.72564 0.76254 0.0
C740 C 0.59091 0.71377 0.82798 0.0
C741 C 0.60656 0.72805 0.88667 0.0
C742 C 0.61413 0.33542 0.13175 0.0
C743 C 0.60146 0.30932 0.09894 0.0
C744 C 0.60052 0.34911 0.19237 0.0
C745 C 0.57315 0.33783 0.22199 0.0
H746 H 0.63491 0.34523 0.11064 0.0
H747 H 0.61133 0.36896 0.21578 0.0
S748 S 0.53042 0.27043 0.15585 0.0
N749 N 0.5598 0.27292 0.10114 0.0
N750 N 0.53411 0.29877 0.2133 0.0
C751 C 0.56018 0.31192 0.1893 0.0
C752 C 0.57433 0.29767 0.12847 0.0
C753 C 0.93262 0.30214 0.38806 0.0
C754 C 0.94255 0.30709 0.45846 0.0
C755 C 0.94707 0.31623 0.32949 0.0
C756 C 0.97153 0.33695 0.33815 0.0
H757 H 0.91315 0.28755 0.37793 0.0
H758 H 0.9388 0.31071 0.27682 0.0
S759 S 1.00729 0.3571 0.51141 0.0
N760 N 0.98064 0.33209 0.53254 0.0
N761 N 1.00475 0.36166 0.42442 0.0
C762 C 0.98174 0.34205 0.4084 0.0
C763 C 0.96798 0.32653 0.46777 0.0
C764 C 0.11293 0.39851 0.39749 0.0
C765 C 0.13216 0.40893 0.34339 0.0
C766 C 0.12489 0.38501 0.45828 0.0
C767 C 0.15665 0.38256 0.46853 0.0
H768 H 0.08836 0.39898 0.39063 0.0
H769 H 0.10876 0.37426 0.49348 0.0
S770 S 0.21647 0.41103 0.34552 0.0
N771 N 0.18392 0.41874 0.30445 0.0
N772 N 0.2071 0.39497 0.422 0.0
C773 C 0.17612 0.39546 0.41694 0.0
C774 C 0.16373 0.40836 0.35354 0.0
C775 C 0.40859 0.35494 0.12645 0.0
C776 C 0.38449 0.36948 0.09073 0.0
C777 C 0.41927 0.36602 0.19056 0.0
C778 C 0.40593 0.39177 0.22239 0.0
H779 H 0.41921 0.33453 0.1054 0.0
H780 H 0.43871 0.35458 0.21407 0.0
S781 S 0.3416 0.43771 0.1512 0.0
N782 N 0.34681 0.4104 0.09153 0.0
N783 N 0.36746 0.43184 0.21403 0.0
C784 C 0.38163 0.40658 0.18777 0.0
C785 C 0.37058 0.39512 0.12171 0.0
C786 C 0.36615 0.63737 0.90063 0.0
C787 C 0.37614 0.62776 0.96814 0.0
C788 C 0.38047 0.62668 0.83914 0.0
C789 C 0.40521 0.60632 0.84379 0.0
H790 H 0.34885 0.65501 0.89544 0.0
H791 H 0.3732 0.63566 0.78818 0.0
S792 S 0.43517 0.56966 1.00827 0.0
N793 N 0.40809 0.5931 0.03619 0.0
N794 N 0.43583 0.57327 0.92083 0.0
C795 C 0.41305 0.59405 0.91077 0.0
C796 C 0.39831 0.60483 0.97314 0.0
C797 C 0.16873 0.63214 0.71297 0.0
C798 C 0.14581 0.60992 0.71132 0.0
C799 C 0.17905 0.64537 0.65006 0.0
C800 C 0.16649 0.63683 0.58405 0.0
H801 H 0.17727 0.6407 0.76332 0.0
H802 H 0.19535 0.6639 0.65369 0.0
S803 S 0.10956 0.57616 0.55109 0.0
N804 N 0.11333 0.5773 0.63853 0.0
N805 N 0.13337 0.60204 0.51964 0.0
C806 C 0.14557 0.61277 0.58127 0.0
C807 C 0.13508 0.59922 0.64532 0.0
C808 C 0.39602 0.1328 0.68039 0.0
C809 C 0.38027 0.15976 0.66239 0.0
C810 C 0.40509 0.11243 0.6272 0.0
C811 C 0.39951 0.11946 0.55548 0.0
H812 H 0.40446 0.12917 0.73398 0.0
H813 H 0.42122 0.09452 0.64112 0.0
S814 S 0.34817 0.17933 0.4851 0.0
N815 N 0.35019 0.18617 0.57143 0.0
N816 N 0.36931 0.14855 0.47135 0.0
C817 C 0.37829 0.14224 0.53905 0.0
C818 C 0.3684 0.16267 0.59295 0.0
C819 C 0.11113 0.10803 0.83545 0.0
C820 C 0.11621 0.11771 0.90601 0.0
C821 C 0.12863 0.11981 0.78 0.0
C822 C 0.15178 0.14088 0.7944 0.0
H823 H 0.09127 0.09456 0.82162 0.0
H824 H 0.12109 0.11602 0.72572 0.0
S825 S 0.18133 0.1639 0.97079 0.0
N826 N 0.15126 0.14247 0.98842 0.0
N827 N 0.18463 0.16408 0.88323 0.0
C828 C 0.16104 0.14549 0.86497 0.0
C829 C 0.14289 0.13412 0.92151 0.0
C830 C 0.10613 0.90812 0.13293 0.0
C831 C 0.12254 0.89803 0.073 0.0
C832 C 0.108 0.89197 0.19687 0.0
C833 C 0.12787 0.86699 0.20293 0.0
H834 H 0.08783 0.92471 0.12681 0.0
H835 H 0.09192 0.89716 0.23901 0.0
S836 S 0.1832 0.83935 0.06794 0.0
N837 N 0.16391 0.86689 0.02769 0.0
N838 N 0.16975 0.83798 0.14992 0.0
C839 C 0.1488 0.861 0.14776 0.0
C840 C 0.14588 0.87663 0.08203 0.0
C841 C 0.3819 0.86918 0.36287 0.0
C842 C 0.3916 0.87072 0.2919 0.0
C843 C 0.39982 0.88164 0.41703 0.0
C844 C 0.42747 0.89632 0.40091 0.0
H845 H 0.36286 0.85468 0.37747 0.0
H846 H 0.39353 0.87717 0.47179 0.0
S847 S 0.45725 0.91367 0.22055 0.0
N848 N 0.42633 0.89299 0.20649 0.0
N849 N 0.45971 0.91783 0.30771 0.0
C850 C 0.43443 0.90241 0.32915 0.0
C851 C 0.41641 0.88921 0.2744 0.0
C852 C 0.5627 0.84895 0.38569 0.0
C853 C 0.56685 0.84109 0.45792 0.0
C854 C 0.57928 0.83422 0.33094 0.0
C855 C 0.59992 0.8102 0.3457 0.0
H856 H 0.54697 0.86713 0.37141 0.0
H857 H 0.57566 0.84152 0.27648 0.0
S858 S 0.61851 0.78015 0.52561 0.0
N859 N 0.59332 0.80758 0.5408 0.0
N860 N 0.62323 0.77913 0.43843 0.0
C861 C 0.60379 0.80172 0.41757 0.0
C862 C 0.58764 0.81733 0.47339 0.0
C863 C 0.95958 0.82574 0.20586 0.0
C864 C 0.93736 0.80336 0.1909 0.0
C865 C 0.97482 0.84157 0.15102 0.0
C866 C 0.96787 0.83655 0.07862 0.0
H867 H 0.96559 0.83082 0.26054 0.0
H868 H 0.99186 0.85836 0.16563 0.0
S869 S 0.91128 0.78075 1.01013 0.0
N870 N 0.9095 0.77682 0.09748 0.0
N871 N 0.93706 0.80751 0.99515 0.0
C872 C 0.94545 0.81453 0.06282 0.0
C873 C 0.93055 0.79772 0.11862 0.0
C874 C 0.92993 0.18293 0.8638 0.0
C875 C 0.94105 0.2104 0.8344 0.0
C876 C 0.94556 0.16761 0.91923 0.0
C877 C 0.97362 0.17842 0.94609 0.0
H878 H 0.90856 0.1735 0.84484 0.0
H879 H 0.9358 0.14681 0.94052 0.0
S880 S 0.01311 0.24899 0.88695 0.0
N881 N 0.98187 0.2479 0.83744 0.0
N882 N 0.01195 0.21832 0.9383 0.0
C883 C 0.98528 0.20557 0.91637 0.0
C884 C 0.96884 0.22174 0.86159 0.0
C885 C 0.5713 0.21271 0.59147 0.0
C886 C 0.56054 0.18271 0.60193 0.0
C887 C 0.58756 0.22846 0.64545 0.0
C888 C 0.59442 0.21467 0.71176 0.0
H889 H 0.56713 0.22409 0.54118 0.0
H890 H 0.59531 0.25147 0.63442 0.0
S891 S 0.57201 0.13573 0.76387 0.0
N892 N 0.55806 0.13972 0.68271 0.0
N893 N 0.58887 0.16846 0.78278 0.0
C894 C 0.58376 0.18449 0.72205 0.0
C895 C 0.56685 0.16878 0.66764 0.0
C896 C 0.90654 0.6209 0.09744 0.0
C897 C 0.90546 0.63201 0.02748 0.0
C898 C 0.89432 0.63818 0.15306 0.0
C899 C 0.88027 0.66649 0.13925 0.0
H900 H 0.92076 0.60133 0.11049 0.0
H901 H 0.89867 0.63088 0.20726 0.0
S902 S 0.86373 0.69985 0.96157 0.0
N903 N 0.88386 0.66867 0.94498 0.0
N904 N 0.85942 0.70085 0.04882 0.0
C905 C 0.8743 0.67478 0.06812 0.0
C906 C 0.88726 0.65741 1.01195 0.0
C907 C 0.59881 0.63006 0.33502 0.0
C908 C 0.62384 0.64829 0.31626 0.0
C909 C 0.598 0.61591 0.40154 0.0
C910 C 0.6219 0.62031 0.45062 0.0
H911 H 0.57835 0.62977 0.3025 0.0
H912 H 0.57675 0.60556 0.41853 0.0
S913 S 0.69686 0.65552 0.41637 0.0
N914 N 0.6771 0.66111 0.34251 0.0
N915 N 0.67402 0.63644 0.47014 0.0
C916 C 0.64906 0.63338 0.42762 0.0
C917 C 0.65043 0.64694 0.35913 0.0
C918 C 0.64441 0.37978 0.62625 0.0
C919 C 0.61789 0.39622 0.64413 0.0
C920 C 0.66474 0.37057 0.67947 0.0
C921 C 0.65813 0.37678 0.75109 0.0
H922 H 0.64762 0.37088 0.57296 0.0
H923 H 0.68222 0.35395 0.6659 0.0
S924 S 0.59977 0.42998 0.82035 0.0
N925 N 0.59257 0.42756 0.73422 0.0
N926 N 0.63006 0.40819 0.8345 0.0
C927 C 0.6359 0.39861 0.76707 0.0
C928 C 0.61553 0.40863 0.7131 0.0
C929 C 0.90638 0.38778 0.92382 0.0
C930 C 0.90412 0.36394 0.97431 0.0
C931 C 0.89244 0.38515 0.85738 0.0
C932 C 0.87501 0.35938 0.8415 0.0
H933 H 0.92221 0.40651 0.93131 0.0
H934 H 0.89874 0.40104 0.81568 0.0
S935 S 0.852 0.29765 0.96479 0.0
N936 N 0.87634 0.31858 1.01103 0.0
N937 N 0.84854 0.31472 0.88677 0.0
C938 C 0.86715 0.33918 0.89656 0.0
C939 C 0.88228 0.34112 0.96329 0.0
C940 C 0.09964 0.29802 0.91148 0.0
C941 C 0.09449 0.30437 0.83884 0.0
C942 C 0.0844 0.31439 0.96575 0.0
C943 C 0.06244 0.3371 0.94997 0.0
H944 H 0.11636 0.28088 0.92663 0.0
H945 H 0.08985 0.30917 0.02069 0.0
S946 S 0.03926 0.36141 0.7683 0.0
N947 N 0.06545 0.33478 0.75429 0.0
N948 N 0.03578 0.36431 0.85561 0.0
C949 C 0.05634 0.34294 0.8775 0.0
C950 C 0.0726 0.32697 0.82228 0.0
C951 C 0.43043 0.3311 0.68212 0.0
C952 C 0.4405 0.30229 0.70669 0.0
C953 C 0.44692 0.34773 0.63047 0.0
C954 C 0.47489 0.33692 0.60286 0.0
H955 H 0.40929 0.34071 0.70217 0.0
H956 H 0.43791 0.36957 0.6129 0.0
S957 S 0.51181 0.26314 0.65034 0.0
N958 N 0.48026 0.26362 0.69848 0.0
N959 N 0.51193 0.29545 0.60476 0.0
C960 C 0.48548 0.30837 0.62778 0.0
C961 C 0.46814 0.29095 0.67861 0.0
C962 C 0.454 0.70015 0.46813 0.0
C963 C 0.47791 0.67927 0.45446 0.0
C964 C 0.43807 0.71492 0.41235 0.0
C965 C 0.44453 0.70865 0.34029 0.0
H966 H 0.44763 0.70528 0.52252 0.0
H967 H 0.41994 0.73081 0.42584 0.0
S968 S 0.50479 0.65583 0.27507 0.0
N969 N 0.50757 0.65369 0.36264 0.0
N970 N 0.47669 0.68016 0.25854 0.0
C971 C 0.46823 0.68773 0.3258 0.0
C972 C 0.48514 0.67344 0.38255 0.0
C973 C 0.10729 0.71952 0.12937 0.0
C974 C 0.09948 0.7152 0.20153 0.0
C975 C 0.09262 0.70307 0.0742 0.0
C976 C 0.06873 0.68241 0.08853 0.0
H977 H 0.12556 0.73506 0.11554 0.0
H978 H 0.09993 0.70672 1.01983 0.0
S979 S 0.03869 0.66367 0.26805 0.0
N980 N 0.06607 0.6887 0.28377 0.0
N981 N 0.03766 0.65916 0.18079 0.0
C982 C 0.06018 0.67856 0.16031 0.0
C983 C 0.07574 0.69454 0.21648 0.0
loop_
_geom_bond_atom_site_label_1
_geom_bond_atom_site_label_2
_geom_bond_distance
_geom_bond_site_symmetry_2
_ccdc_geom_bond_type
Co0 O3 1.970 . S
Co0 N17 1.989 . S
Co0 O25 1.967 . S
Co0 O32 1.920 . S
Co1 O4 1.966 . S
Co1 N10 2.022 . S
Co1 N18 1.993 . S
Co1 O26 1.941 . S
C2 O3 1.258 . S
C2 O4 1.263 . S
O3 Co0 1.970 . S
O3 C2 1.258 . S
O4 Co1 1.966 . S
O4 C2 1.263 . S
C5 O6 1.235 . S
C5 O32 1.289 . S
O6 C5 1.235 . S
C7 C9 1.400 . S
C7 N10 1.351 . S
C7 C12 1.501 . S
C8 C9 1.387 . S
C8 N11 1.341 . S
C9 C7 1.400 . S
C9 C8 1.387 . S
N10 Co1 2.022 . S
N10 C7 1.351 . S
N10 N11 1.365 . S
N11 C8 1.341 . S
N11 N10 1.365 . S
N11 H31 0.862 . S
C12 C7 1.501 . S
C12 H13 0.961 . S
C12 H14 0.961 . S
C12 H15 0.960 . S
H13 C12 0.961 . S
H14 C12 0.961 . S
H15 C12 0.960 . S
C16 N17 1.342 . S
C16 C20 1.401 . S
C16 C21 1.499 . S
N17 Co0 1.989 . S
N17 C16 1.342 . S
N17 N18 1.388 . S
N18 Co1 1.993 . S
N18 N17 1.388 . S
N18 C19 1.346 . S
C19 N18 1.346 . S
C19 C20 1.396 . S
C19 C29 1.510 . S
C20 C16 1.401 . S
C20 C19 1.396 . S
C21 C16 1.499 . S
C21 H22 0.959 . S
C21 H23 0.960 . S
C21 H24 0.961 . S
H22 C21 0.959 . S
H23 C21 0.960 . S
H24 C21 0.961 . S
O25 Co0 1.967 . S
O25 C33 1.258 . S
O26 Co1 1.941 . S
O26 C33 1.266 . S
H27 C29 0.959 . S
H28 C29 0.961 . S
C29 C19 1.510 . S
C29 H27 0.959 . S
C29 H28 0.961 . S
C29 H30 0.960 . S
H30 C29 0.960 . S
H31 N11 0.862 . S
O32 Co0 1.920 . S
O32 C5 1.289 . S
C33 O25 1.258 . S
C33 O26 1.266 . S
Co34 O37 1.970 . S
Co34 N51 1.989 . S
Co34 O59 1.967 . S
Co34 O66 1.920 . S
Co35 O38 1.966 . S
Co35 N44 2.022 . S
Co35 N52 1.993 . S
Co35 O60 1.941 . S
C36 O37 1.258 . S
C36 O38 1.263 . S
O37 Co34 1.970 . S
O37 C36 1.258 . S
O38 Co35 1.966 . S
O38 C36 1.263 . S
C39 O40 1.235 . S
C39 O66 1.289 . S
O40 C39 1.235 . S
C41 C43 1.400 . S
C41 N44 1.351 . S
C41 C46 1.501 . S
C42 C43 1.387 . S
C42 N45 1.341 . S
C43 C41 1.400 . S
C43 C42 1.387 . S
N44 Co35 2.022 . S
N44 C41 1.351 . S
N44 N45 1.365 . S
N45 C42 1.341 . S
N45 N44 1.365 . S
N45 H65 0.862 . S
C46 C41 1.501 . S
C46 H47 0.961 . S
C46 H48 0.961 . S
C46 H49 0.960 . S
H47 C46 0.961 . S
H48 C46 0.961 . S
H49 C46 0.960 . S
C50 N51 1.342 . S
C50 C54 1.401 . S
C50 C55 1.499 . S
N51 Co34 1.989 . S
N51 C50 1.342 . S
N51 N52 1.388 . S
N52 Co35 1.993 . S
N52 N51 1.388 . S
N52 C53 1.346 . S
C53 N52 1.346 . S
C53 C54 1.396 . S
C53 C63 1.510 . S
C54 C50 1.401 . S
C54 C53 1.396 . S
C55 C50 1.499 . S
C55 H56 0.959 . S
C55 H57 0.960 . S
C55 H58 0.961 . S
H56 C55 0.959 . S
H57 C55 0.960 . S
H58 C55 0.961 . S
O59 Co34 1.967 . S
O59 C67 1.258 . S
O60 Co35 1.941 . S
O60 C67 1.266 . S
H61 C63 0.959 . S
H62 C63 0.961 . S
C63 C53 1.510 . S
C63 H61 0.959 . S
C63 H62 0.961 . S
C63 H64 0.960 . S
H64 C63 0.960 . S
H65 N45 0.862 . S
O66 Co34 1.920 . S
O66 C39 1.289 . S
C67 O59 1.258 . S
C67 O60 1.266 . S
Co68 O71 1.962 1_456 S
Co68 N85 1.989 . S
Co68 O93 1.967 . S
Co68 O100 1.920 1_556 S
Co69 O72 1.966 . S
Co69 N78 2.022 . S
Co69 N86 1.993 1_655 S
Co69 O94 1.941 . S
C70 O71 1.268 1_556 S
C70 O72 1.263 . S
O71 Co68 1.962 1_654 S
O71 C70 1.268 1_554 S
O72 Co69 1.966 . S
O72 C70 1.263 . S
C73 O74 1.235 . S
C73 O100 1.289 . S
O74 C73 1.235 . S
C75 C77 1.400 . S
C75 N78 1.351 . S
C75 C80 1.501 . S
C76 C77 1.387 . S
C76 N79 1.341 . S
C77 C75 1.400 . S
C77 C76 1.387 . S
N78 Co69 2.022 . S
N78 C75 1.351 . S
N78 N79 1.365 . S
N79 C76 1.341 . S
N79 N78 1.365 . S
N79 H99 0.862 . S
C80 C75 1.501 . S
C80 H81 0.961 . S
C80 H82 0.961 . S
C80 H83 0.960 . S
H81 C80 0.961 . S
H82 C80 0.961 . S
H83 C80 0.960 . S
C84 N85 1.342 . S
C84 C88 1.401 . S
C84 C89 1.499 . S
N85 Co68 1.989 . S
N85 C84 1.342 . S
N85 N86 1.388 . S
N86 Co69 1.993 1_455 S
N86 N85 1.388 . S
N86 C87 1.346 . S
C87 N86 1.346 . S
C87 C88 1.396 . S
C87 C97 1.510 . S
C88 C84 1.401 . S
C88 C87 1.396 . S
C89 C84 1.499 . S
C89 H90 0.959 . S
C89 H91 0.960 . S
C89 H92 0.961 . S
H90 C89 0.959 . S
H91 C89 0.960 . S
H92 C89 0.961 . S
O93 Co68 1.967 . S
O93 C101 1.258 . S
O94 Co69 1.941 . S
O94 C101 1.266 1_655 S
H95 C97 0.959 . S
H96 C97 0.961 . S
C97 C87 1.510 . S
C97 H95 0.959 . S
C97 H96 0.961 . S
C97 H98 0.960 1_455 S
H98 C97 0.960 1_655 S
H99 N79 0.862 . S
O100 Co68 1.920 1_554 S
O100 C73 1.289 . S
C101 O93 1.258 . S
C101 O94 1.266 1_455 S
Co102 O105 1.970 . S
Co102 N119 1.989 . S
Co102 O127 1.967 . S
Co102 O134 1.920 . S
Co103 O106 1.966 . S
Co103 N112 2.022 . S
Co103 N120 1.993 . S
Co103 O128 1.941 . S
C104 O105 1.258 . S
C104 O106 1.263 . S
O105 Co102 1.970 . S
O105 C104 1.258 . S
O106 Co103 1.966 . S
O106 C104 1.263 . S
C107 O108 1.235 . S
C107 O134 1.289 . S
O108 C107 1.235 . S
C109 C111 1.400 1_554 S
C109 N112 1.351 . S
C109 C114 1.501 . S
C110 C111 1.387 . S
C110 N113 1.341 . S
C111 C109 1.400 1_556 S
C111 C110 1.387 . S
N112 Co103 2.022 . S
N112 C109 1.351 . S
N112 N113 1.365 1_554 S
N113 C110 1.341 . S
N113 N112 1.365 1_556 S
N113 H133 0.862 . S
C114 C109 1.501 . S
C114 H115 0.961 . S
C114 H116 0.961 . S
C114 H117 0.960 . S
H115 C114 0.961 . S
H116 C114 0.961 . S
H117 C114 0.960 . S
C118 N119 1.342 . S
C118 C122 1.401 . S
C118 C123 1.499 . S
N119 Co102 1.989 . S
N119 C118 1.342 . S
N119 N120 1.388 . S
N120 Co103 1.993 . S
N120 N119 1.388 . S
N120 C121 1.346 . S
C121 N120 1.346 . S
C121 C122 1.396 . S
C121 C131 1.510 1_554 S
C122 C118 1.401 . S
C122 C121 1.396 . S
C123 C118 1.499 . S
C123 H124 0.959 . S
C123 H125 0.960 . S
C123 H126 0.961 . S
H124 C123 0.959 . S
H125 C123 0.960 . S
H126 C123 0.961 . S
O127 Co102 1.967 . S
O127 C135 1.258 . S
O128 Co103 1.941 . S
O128 C135 1.266 . S
H129 C131 0.959 . S
H130 C131 0.961 . S
C131 C121 1.510 1_556 S
C131 H129 0.959 . S
C131 H130 0.961 . S
C131 H132 0.960 . S
H132 C131 0.960 . S
H133 N113 0.862 . S
O134 Co102 1.920 . S
O134 C107 1.289 . S
C135 O127 1.258 . S
C135 O128 1.266 . S
Co136 O139 1.970 . S
Co136 N153 1.989 . S
Co136 O161 1.967 . S
Co136 O168 1.920 . S
Co137 O140 1.966 . S
Co137 N146 2.022 . S
Co137 N154 1.993 . S
Co137 O162 1.941 . S
C138 O139 1.258 . S
C138 O140 1.263 . S
O139 Co136 1.970 . S
O139 C138 1.258 . S
O140 Co137 1.966 . S
O140 C138 1.263 . S
C141 O142 1.235 . S
C141 O168 1.289 . S
O142 C141 1.235 . S
C143 C145 1.400 . S
C143 N146 1.351 . S
C143 C148 1.501 . S
C144 C145 1.387 . S
C144 N147 1.341 . S
C145 C143 1.400 . S
C145 C144 1.387 . S
N146 Co137 2.022 . S
N146 C143 1.351 . S
N146 N147 1.365 . S
N147 C144 1.341 . S
N147 N146 1.365 . S
N147 H167 0.862 . S
C148 C143 1.501 . S
C148 H149 0.961 . S
C148 H150 0.961 . S
C148 H151 0.960 . S
H149 C148 0.961 . S
H150 C148 0.961 . S
H151 C148 0.960 . S
C152 N153 1.342 . S
C152 C156 1.401 . S
C152 C157 1.499 . S
N153 Co136 1.989 . S
N153 C152 1.342 . S
N153 N154 1.388 . S
N154 Co137 1.993 . S
N154 N153 1.388 . S
N154 C155 1.346 . S
C155 N154 1.346 . S
C155 C156 1.396 . S
C155 C165 1.510 . S
C156 C152 1.401 . S
C156 C155 1.396 . S
C157 C152 1.499 . S
C157 H158 0.959 . S
C157 H159 0.960 . S
C157 H160 0.961 . S
H158 C157 0.959 . S
H159 C157 0.960 . S
H160 C157 0.961 . S
O161 Co136 1.967 . S
O161 C169 1.258 . S
O162 Co137 1.941 . S
O162 C169 1.266 . S
H163 C165 0.959 . S
H164 C165 0.961 . S
C165 C155 1.510 . S
C165 H163 0.959 . S
C165 H164 0.961 . S
C165 H166 0.960 . S
H166 C165 0.960 . S
H167 N147 0.862 . S
O168 Co136 1.920 . S
O168 C141 1.289 . S
C169 O161 1.258 . S
C169 O162 1.266 . S
Co170 O173 1.970 . S
Co170 N187 1.989 . S
Co170 O195 1.967 . S
Co170 O202 1.920 . S
Co171 O174 1.966 . S
Co171 N180 2.022 . S
Co171 N188 1.993 . S
Co171 O196 1.941 . S
C172 O173 1.258 . S
C172 O174 1.263 . S
O173 Co170 1.970 . S
O173 C172 1.258 . S
O174 Co171 1.966 . S
O174 C172 1.263 . S
C175 O176 1.235 . S
C175 O202 1.289 . S
O176 C175 1.235 . S
C177 C179 1.400 1_556 S
C177 N180 1.351 . S
C177 C182 1.501 . S
C178 C179 1.387 . S
C178 N181 1.341 . S
C179 C177 1.400 1_554 S
C179 C178 1.387 . S
N180 Co171 2.022 . S
N180 C177 1.351 . S
N180 N181 1.365 1_556 S
N181 C178 1.341 . S
N181 N180 1.365 1_554 S
N181 H201 0.862 . S
C182 C177 1.501 . S
C182 H183 0.961 . S
C182 H184 0.961 . S
C182 H185 0.960 . S
H183 C182 0.961 . S
H184 C182 0.961 . S
H185 C182 0.960 . S
C186 N187 1.342 . S
C186 C190 1.401 . S
C186 C191 1.499 . S
N187 Co170 1.989 . S
N187 C186 1.342 . S
N187 N188 1.388 . S
N188 Co171 1.993 . S
N188 N187 1.388 . S
N188 C189 1.346 . S
C189 N188 1.346 . S
C189 C190 1.396 . S
C189 C199 1.510 1_556 S
C190 C186 1.401 . S
C190 C189 1.396 . S
C191 C186 1.499 . S
C191 H192 0.959 . S
C191 H193 0.960 . S
C191 H194 0.961 . S
H192 C191 0.959 . S
H193 C191 0.960 . S
H194 C191 0.961 . S
O195 Co170 1.967 . S
O195 C203 1.258 . S
O196 Co171 1.941 . S
O196 C203 1.266 . S
H197 C199 0.959 . S
H198 C199 0.961 . S
C199 C189 1.510 1_554 S
C199 H197 0.959 . S
C199 H198 0.961 . S
C199 H200 0.960 . S
H200 C199 0.960 . S
H201 N181 0.862 . S
O202 Co170 1.920 . S
O202 C175 1.289 . S
C203 O195 1.258 . S
C203 O196 1.266 . S
Co204 O207 1.962 1_454 S
Co204 N221 1.989 . S
Co204 O229 1.967 . S
Co204 O236 1.920 1_554 S
Co205 O208 1.966 . S
Co205 N214 2.022 . S
Co205 N222 1.993 1_655 S
Co205 O230 1.941 . S
C206 O207 1.268 1_554 S
C206 O208 1.263 . S
O207 Co204 1.962 1_656 S
O207 C206 1.268 1_556 S
O208 Co205 1.966 . S
O208 C206 1.263 . S
C209 O210 1.235 . S
C209 O236 1.289 . S
O210 C209 1.235 . S
C211 C213 1.400 . S
C211 N214 1.351 . S
C211 C216 1.501 . S
C212 C213 1.387 . S
C212 N215 1.341 . S
C213 C211 1.400 . S
C213 C212 1.387 . S
N214 Co205 2.022 . S
N214 C211 1.351 . S
N214 N215 1.365 . S
N215 C212 1.341 . S
N215 N214 1.365 . S
N215 H235 0.862 . S
C216 C211 1.501 . S
C216 H217 0.961 . S
C216 H218 0.961 . S
C216 H219 0.960 . S
H217 C216 0.961 . S
H218 C216 0.961 . S
H219 C216 0.960 . S
C220 N221 1.342 . S
C220 C224 1.401 . S
C220 C225 1.499 . S
N221 Co204 1.989 . S
N221 C220 1.342 . S
N221 N222 1.388 . S
N222 Co205 1.993 1_455 S
N222 N221 1.388 . S
N222 C223 1.346 . S
C223 N222 1.346 . S
C223 C224 1.396 . S
C223 C233 1.510 . S
C224 C220 1.401 . S
C224 C223 1.396 . S
C225 C220 1.499 . S
C225 H226 0.959 . S
C225 H227 0.960 . S
C225 H228 0.961 . S
H226 C225 0.959 . S
H227 C225 0.960 . S
H228 C225 0.961 . S
O229 Co204 1.967 . S
O229 C237 1.258 . S
O230 Co205 1.941 . S
O230 C237 1.266 1_655 S
H231 C233 0.959 . S
H232 C233 0.961 . S
C233 C223 1.510 . S
C233 H231 0.959 . S
C233 H232 0.961 . S
C233 H234 0.960 1_455 S
H234 C233 0.960 1_655 S
H235 N215 0.862 . S
O236 Co204 1.920 1_556 S
O236 C209 1.289 . S
C237 O229 1.258 . S
C237 O230 1.266 1_455 S
Co238 O241 1.970 . S
Co238 N255 1.989 . S
Co238 O263 1.967 . S
Co238 O270 1.920 . S
Co239 O242 1.966 . S
Co239 N248 2.022 . S
Co239 N256 1.993 . S
Co239 O264 1.941 . S
C240 O241 1.258 . S
C240 O242 1.263 . S
O241 Co238 1.970 . S
O241 C240 1.258 . S
O242 Co239 1.966 . S
O242 C240 1.263 . S
C243 O244 1.235 . S
C243 O270 1.289 . S
O244 C243 1.235 . S
C245 C247 1.400 . S
C245 N248 1.351 . S
C245 C250 1.501 . S
C246 C247 1.387 . S
C246 N249 1.341 . S
C247 C245 1.400 . S
C247 C246 1.387 . S
N248 Co239 2.022 . S
N248 C245 1.351 . S
N248 N249 1.365 . S
N249 C246 1.341 . S
N249 N248 1.365 . S
N249 H269 0.862 . S
C250 C245 1.501 . S
C250 H251 0.961 . S
C250 H252 0.961 . S
C250 H253 0.960 . S
H251 C250 0.961 . S
H252 C250 0.961 . S
H253 C250 0.960 . S
C254 N255 1.342 . S
C254 C258 1.401 . S
C254 C259 1.499 . S
N255 Co238 1.989 . S
N255 C254 1.342 . S
N255 N256 1.388 . S
N256 Co239 1.993 . S
N256 N255 1.388 . S
N256 C257 1.346 . S
C257 N256 1.346 . S
C257 C258 1.396 . S
C257 C267 1.510 . S
C258 C254 1.401 . S
C258 C257 1.396 . S
C259 C254 1.499 . S
C259 H260 0.959 . S
C259 H261 0.960 . S
C259 H262 0.961 . S
H260 C259 0.959 . S
H261 C259 0.960 . S
H262 C259 0.961 . S
O263 Co238 1.967 . S
O263 C271 1.258 . S
O264 Co239 1.941 . S
O264 C271 1.266 . S
H265 C267 0.959 . S
H266 C267 0.961 . S
C267 C257 1.510 . S
C267 H265 0.959 . S
C267 H266 0.961 . S
C267 H268 0.960 . S
H268 C267 0.960 . S
H269 N249 0.862 . S
O270 Co238 1.920 . S
O270 C243 1.289 . S
C271 O263 1.258 . S
C271 O264 1.266 . S
Co272 O275 1.970 . S
Co272 N289 1.989 . S
Co272 O297 1.967 . S
Co272 O304 1.920 . S
Co273 O276 1.966 . S
Co273 N282 2.022 . S
Co273 N290 1.993 . S
Co273 O298 1.941 . S
C274 O275 1.258 . S
C274 O276 1.263 . S
O275 Co272 1.970 . S
O275 C274 1.258 . S
O276 Co273 1.966 . S
O276 C274 1.263 . S
C277 O278 1.235 . S
C277 O304 1.289 . S
O278 C277 1.235 . S
C279 C281 1.400 . S
C279 N282 1.351 . S
C279 C284 1.501 . S
C280 C281 1.387 . S
C280 N283 1.341 . S
C281 C279 1.400 . S
C281 C280 1.387 . S
N282 Co273 2.022 . S
N282 C279 1.351 . S
N282 N283 1.365 . S
N283 C280 1.341 . S
N283 N282 1.365 . S
N283 H303 0.862 . S
C284 C279 1.501 . S
C284 H285 0.961 . S
C284 H286 0.961 . S
C284 H287 0.960 . S
H285 C284 0.961 . S
H286 C284 0.961 . S
H287 C284 0.960 . S
C288 N289 1.342 . S
C288 C292 1.401 . S
C288 C293 1.499 . S
N289 Co272 1.989 . S
N289 C288 1.342 . S
N289 N290 1.388 . S
N290 Co273 1.993 . S
N290 N289 1.388 . S
N290 C291 1.346 . S
C291 N290 1.346 . S
C291 C292 1.396 . S
C291 C301 1.510 . S
C292 C288 1.401 . S
C292 C291 1.396 . S
C293 C288 1.499 . S
C293 H294 0.959 . S
C293 H295 0.960 . S
C293 H296 0.961 . S
H294 C293 0.959 . S
H295 C293 0.960 . S
H296 C293 0.961 . S
O297 Co272 1.967 . S
O297 C305 1.258 . S
O298 Co273 1.941 . S
O298 C305 1.266 . S
H299 C301 0.959 . S
H300 C301 0.961 . S
C301 C291 1.510 . S
C301 H299 0.959 . S
C301 H300 0.961 . S
C301 H302 0.960 . S
H302 C301 0.960 . S
H303 N283 0.862 . S
O304 Co272 1.920 . S
O304 C277 1.289 . S
C305 O297 1.258 . S
C305 O298 1.266 . S
Co306 O309 1.970 . S
Co306 N323 1.989 . S
Co306 O331 1.967 . S
Co306 O338 1.920 . S
Co307 O310 1.966 . S
Co307 N316 2.022 . S
Co307 N324 1.993 . S
Co307 O332 1.941 . S
C308 O309 1.258 . S
C308 O310 1.263 . S
O309 Co306 1.970 . S
O309 C308 1.258 . S
O310 Co307 1.966 . S
O310 C308 1.263 . S
C311 O312 1.235 . S
C311 O338 1.289 . S
O312 C311 1.235 . S
C313 C315 1.400 1_556 S
C313 N316 1.351 . S
C313 C318 1.501 . S
C314 C315 1.387 . S
C314 N317 1.341 . S
C315 C313 1.400 1_554 S
C315 C314 1.387 . S
N316 Co307 2.022 . S
N316 C313 1.351 . S
N316 N317 1.365 1_556 S
N317 C314 1.341 . S
N317 N316 1.365 1_554 S
N317 H337 0.862 . S
C318 C313 1.501 . S
C318 H319 0.961 . S
C318 H320 0.961 . S
C318 H321 0.960 . S
H319 C318 0.961 . S
H320 C318 0.961 . S
H321 C318 0.960 . S
C322 N323 1.342 . S
C322 C326 1.401 . S
C322 C327 1.499 . S
N323 Co306 1.989 . S
N323 C322 1.342 . S
N323 N324 1.388 . S
N324 Co307 1.993 . S
N324 N323 1.388 . S
N324 C325 1.346 . S
C325 N324 1.346 . S
C325 C326 1.396 . S
C325 C335 1.510 1_556 S
C326 C322 1.401 . S
C326 C325 1.396 . S
C327 C322 1.499 . S
C327 H328 0.959 . S
C327 H329 0.960 . S
C327 H330 0.961 . S
H328 C327 0.959 . S
H329 C327 0.960 . S
H330 C327 0.961 . S
O331 Co306 1.967 . S
O331 C339 1.258 . S
O332 Co307 1.941 . S
O332 C339 1.266 . S
H333 C335 0.959 . S
H334 C335 0.961 . S
C335 C325 1.510 1_554 S
C335 H333 0.959 . S
C335 H334 0.961 . S
C335 H336 0.960 . S
H336 C335 0.960 . S
H337 N317 0.862 . S
O338 Co306 1.920 . S
O338 C311 1.289 . S
C339 O331 1.258 . S
C339 O332 1.266 . S
Co340 O343 1.970 . S
Co340 N357 1.989 . S
Co340 O365 1.967 . S
Co340 O372 1.920 . S
Co341 O344 1.966 . S
Co341 N350 2.022 . S
Co341 N358 1.993 . S
Co341 O366 1.941 . S
C342 O343 1.258 . S
C342 O344 1.263 . S
O343 Co340 1.970 . S
O343 C342 1.258 . S
O344 Co341 1.966 . S
O344 C342 1.263 . S
C345 O346 1.235 . S
C345 O372 1.289 . S
O346 C345 1.235 . S
C347 C349 1.400 1_554 S
C347 N350 1.351 . S
C347 C352 1.501 . S
C348 C349 1.387 . S
C348 N351 1.341 . S
C349 C347 1.400 1_556 S
C349 C348 1.387 . S
N350 Co341 2.022 . S
N350 C347 1.351 . S
N350 N351 1.365 1_554 S
N351 C348 1.341 . S
N351 N350 1.365 1_556 S
N351 H371 0.862 . S
C352 C347 1.501 . S
C352 H353 0.961 . S
C352 H354 0.961 . S
C352 H355 0.960 . S
H353 C352 0.961 . S
H354 C352 0.961 . S
H355 C352 0.960 . S
C356 N357 1.342 . S
C356 C360 1.401 . S
C356 C361 1.499 . S
N357 Co340 1.989 . S
N357 C356 1.342 . S
N357 N358 1.388 . S
N358 Co341 1.993 . S
N358 N357 1.388 . S
N358 C359 1.346 . S
C359 N358 1.346 . S
C359 C360 1.396 . S
C359 C369 1.510 1_554 S
C360 C356 1.401 . S
C360 C359 1.396 . S
C361 C356 1.499 . S
C361 H362 0.959 . S
C361 H363 0.960 . S
C361 H364 0.961 . S
H362 C361 0.959 . S
H363 C361 0.960 . S
H364 C361 0.961 . S
O365 Co340 1.967 . S
O365 C373 1.258 . S
O366 Co341 1.941 . S
O366 C373 1.266 . S
H367 C369 0.959 . S
H368 C369 0.961 . S
C369 C359 1.510 1_556 S
C369 H367 0.959 . S
C369 H368 0.961 . S
C369 H370 0.960 . S
H370 C369 0.960 . S
H371 N351 0.862 . S
O372 Co340 1.920 . S
O372 C345 1.289 . S
C373 O365 1.258 . S
C373 O366 1.266 . S
Co374 O377 1.970 . S
Co374 N391 1.989 . S
Co374 O399 1.967 . S
Co374 O406 1.920 . S
Co375 O378 1.966 . S
Co375 N384 2.022 . S
Co375 N392 1.993 . S
Co375 O400 1.941 . S
C376 O377 1.258 . S
C376 O378 1.263 . S
O377 Co374 1.970 . S
O377 C376 1.258 . S
O378 Co375 1.966 . S
O378 C376 1.263 . S
C379 O380 1.235 . S
C379 O406 1.289 . S
O380 C379 1.235 . S
C381 C383 1.400 . S
C381 N384 1.351 . S
C381 C386 1.501 . S
C382 C383 1.387 . S
C382 N385 1.341 . S
C383 C381 1.400 . S
C383 C382 1.387 . S
N384 Co375 2.022 . S
N384 C381 1.351 . S
N384 N385 1.365 . S
N385 C382 1.341 . S
N385 N384 1.365 . S
N385 H405 0.862 . S
C386 C381 1.501 . S
C386 H387 0.961 . S
C386 H388 0.961 . S
C386 H389 0.960 . S
H387 C386 0.961 . S
H388 C386 0.961 . S
H389 C386 0.960 . S
C390 N391 1.342 . S
C390 C394 1.401 . S
C390 C395 1.499 . S
N391 Co374 1.989 . S
N391 C390 1.342 . S
N391 N392 1.388 . S
N392 Co375 1.993 . S
N392 N391 1.388 . S
N392 C393 1.346 . S
C393 N392 1.346 . S
C393 C394 1.396 . S
C393 C403 1.510 . S
C394 C390 1.401 . S
C394 C393 1.396 . S
C395 C390 1.499 . S
C395 H396 0.959 . S
C395 H397 0.960 . S
C395 H398 0.961 . S
H396 C395 0.959 . S
H397 C395 0.960 . S
H398 C395 0.961 . S
O399 Co374 1.967 . S
O399 C407 1.258 . S
O400 Co375 1.941 . S
O400 C407 1.266 . S
H401 C403 0.959 . S
H402 C403 0.961 . S
C403 C393 1.510 . S
C403 H401 0.959 . S
C403 H402 0.961 . S
C403 H404 0.960 . S
H404 C403 0.960 . S
H405 N385 0.862 . S
O406 Co374 1.920 . S
O406 C379 1.289 . S
C407 O399 1.258 . S
C407 O400 1.266 . S
Co408 O411 1.970 1_656 S
Co408 N425 1.989 . S
Co408 O433 1.961 1_655 S
Co408 O440 1.920 1_556 S
Co409 O412 1.966 . S
Co409 N418 2.022 . S
Co409 N426 1.999 . S
Co409 O434 1.941 . S
C410 O411 1.258 1_556 S
C410 O412 1.263 . S
O411 Co408 1.970 1_454 S
O411 C410 1.258 1_554 S
O412 Co409 1.966 . S
O412 C410 1.263 . S
C413 O414 1.235 . S
C413 O440 1.289 . S
O414 C413 1.235 . S
C415 C417 1.400 . S
C415 N418 1.351 . S
C415 C420 1.501 . S
C416 C417 1.387 . S
C416 N419 1.341 . S
C417 C415 1.400 . S
C417 C416 1.387 . S
N418 Co409 2.022 . S
N418 C415 1.351 . S
N418 N419 1.365 . S
N419 C416 1.341 . S
N419 N418 1.365 . S
N419 H439 0.862 . S
C420 C415 1.501 . S
C420 H421 0.961 . S
C420 H422 0.961 . S
C420 H423 0.960 . S
H421 C420 0.961 . S
H422 C420 0.961 . S
H423 C420 0.960 . S
C424 N425 1.342 . S
C424 C428 1.401 . S
C424 C429 1.499 . S
N425 Co408 1.989 . S
N425 C424 1.342 . S
N425 N426 1.382 1_655 S
N426 Co409 1.999 . S
N426 N425 1.382 1_455 S
N426 C427 1.343 1_455 S
C427 N426 1.343 1_655 S
C427 C428 1.396 . S
C427 C437 1.510 1_655 S
C428 C424 1.401 . S
C428 C427 1.396 . S
C429 C424 1.499 . S
C429 H430 0.959 . S
C429 H431 0.960 . S
C429 H432 0.961 . S
H430 C429 0.959 . S
H431 C429 0.960 . S
H432 C429 0.961 . S
O433 Co408 1.961 1_455 S
O433 C441 1.268 . S
O434 Co409 1.941 . S
O434 C441 1.266 . S
H435 C437 0.948 1_655 S
H436 C437 0.961 . S
C437 C427 1.510 1_455 S
C437 H435 0.948 1_455 S
C437 H436 0.961 . S
C437 H438 0.960 . S
H438 C437 0.960 . S
H439 N419 0.862 . S
O440 Co408 1.920 1_554 S
O440 C413 1.289 . S
C441 O433 1.268 . S
C441 O434 1.266 . S
Co442 O445 1.970 . S
Co442 N459 1.989 . S
Co442 O467 1.967 . S
Co442 O474 1.920 . S
Co443 O446 1.966 . S
Co443 N452 2.022 . S
Co443 N460 1.993 . S
Co443 O468 1.941 . S
C444 O445 1.258 . S
C444 O446 1.263 . S
O445 Co442 1.970 . S
O445 C444 1.258 . S
O446 Co443 1.966 . S
O446 C444 1.263 . S
C447 O448 1.235 . S
C447 O474 1.289 . S
O448 C447 1.235 . S
C449 C451 1.400 . S
C449 N452 1.351 . S
C449 C454 1.501 . S
C450 C451 1.387 . S
C450 N453 1.341 . S
C451 C449 1.400 . S
C451 C450 1.387 . S
N452 Co443 2.022 . S
N452 C449 1.351 . S
N452 N453 1.365 . S
N453 C450 1.341 . S
N453 N452 1.365 . S
N453 H473 0.862 . S
C454 C449 1.501 . S
C454 H455 0.961 . S
C454 H456 0.961 . S
C454 H457 0.960 . S
H455 C454 0.961 . S
H456 C454 0.961 . S
H457 C454 0.960 . S
C458 N459 1.342 . S
C458 C462 1.401 . S
C458 C463 1.499 . S
N459 Co442 1.989 . S
N459 C458 1.342 . S
N459 N460 1.388 . S
N460 Co443 1.993 . S
N460 N459 1.388 . S
N460 C461 1.346 . S
C461 N460 1.346 . S
C461 C462 1.396 . S
C461 C471 1.510 . S
C462 C458 1.401 . S
C462 C461 1.396 . S
C463 C458 1.499 . S
C463 H464 0.959 . S
C463 H465 0.960 . S
C463 H466 0.961 . S
H464 C463 0.959 . S
H465 C463 0.960 . S
H466 C463 0.961 . S
O467 Co442 1.967 . S
O467 C475 1.258 . S
O468 Co443 1.941 . S
O468 C475 1.266 . S
H469 C471 0.959 . S
H470 C471 0.961 . S
C471 C461 1.510 . S
C471 H469 0.959 . S
C471 H470 0.961 . S
C471 H472 0.960 . S
H472 C471 0.960 . S
H473 N453 0.862 . S
O474 Co442 1.920 . S
O474 C447 1.289 . S
C475 O467 1.258 . S
C475 O468 1.266 . S
Co476 O479 1.970 1_654 S
Co476 N493 1.989 . S
Co476 O501 1.961 1_655 S
Co476 O508 1.920 1_554 S
Co477 O480 1.966 . S
Co477 N486 2.022 . S
Co477 N494 1.999 . S
Co477 O502 1.941 . S
C478 O479 1.258 1_554 S
C478 O480 1.263 . S
O479 Co476 1.970 1_456 S
O479 C478 1.258 1_556 S
O480 Co477 1.966 . S
O480 C478 1.263 . S
C481 O482 1.235 . S
C481 O508 1.289 . S
O482 C481 1.235 . S
C483 C485 1.400 . S
C483 N486 1.351 . S
C483 C488 1.501 . S
C484 C485 1.387 . S
C484 N487 1.341 . S
C485 C483 1.400 . S
C485 C484 1.387 . S
N486 Co477 2.022 . S
N486 C483 1.351 . S
N486 N487 1.365 . S
N487 C484 1.341 . S
N487 N486 1.365 . S
N487 H507 0.862 . S
C488 C483 1.501 . S
C488 H489 0.961 . S
C488 H490 0.961 . S
C488 H491 0.960 . S
H489 C488 0.961 . S
H490 C488 0.961 . S
H491 C488 0.960 . S
C492 N493 1.342 . S
C492 C496 1.401 . S
C492 C497 1.499 . S
N493 Co476 1.989 . S
N493 C492 1.342 . S
N493 N494 1.383 1_655 S
N494 Co477 1.999 . S
N494 N493 1.383 1_455 S
N494 C495 1.343 1_455 S
C495 N494 1.343 1_655 S
C495 C496 1.396 . S
C495 C505 1.510 1_655 S
C496 C492 1.401 . S
C496 C495 1.396 . S
C497 C492 1.499 . S
C497 H498 0.959 . S
C497 H499 0.960 . S
C497 H500 0.961 . S
H498 C497 0.959 . S
H499 C497 0.960 . S
H500 C497 0.961 . S
O501 Co476 1.961 1_455 S
O501 C509 1.268 . S
O502 Co477 1.941 . S
O502 C509 1.266 . S
H503 C505 0.948 1_655 S
H504 C505 0.961 . S
C505 C495 1.510 1_455 S
C505 H503 0.948 1_455 S
C505 H504 0.961 . S
C505 H506 0.960 . S
H506 C505 0.960 . S
H507 N487 0.862 . S
O508 Co476 1.920 1_556 S
O508 C481 1.289 . S
C509 O501 1.268 . S
C509 O502 1.266 . S
Co510 O513 1.970 . S
Co510 N527 1.989 . S
Co510 O535 1.967 . S
Co510 O542 1.920 . S
Co511 O514 1.966 . S
Co511 N520 2.022 . S
Co511 N528 1.993 . S
Co511 O536 1.941 . S
C512 O513 1.258 . S
C512 O514 1.263 . S
O513 Co510 1.970 . S
O513 C512 1.258 . S
O514 Co511 1.966 . S
O514 C512 1.263 . S
C515 O516 1.235 . S
C515 O542 1.289 . S
O516 C515 1.235 . S
C517 C519 1.400 . S
C517 N520 1.351 . S
C517 C522 1.501 . S
C518 C519 1.387 . S
C518 N521 1.341 . S
C519 C517 1.400 . S
C519 C518 1.387 . S
N520 Co511 2.022 . S
N520 C517 1.351 . S
N520 N521 1.365 . S
N521 C518 1.341 . S
N521 N520 1.365 . S
N521 H541 0.862 . S
C522 C517 1.501 . S
C522 H523 0.961 . S
C522 H524 0.961 . S
C522 H525 0.960 . S
H523 C522 0.961 . S
H524 C522 0.961 . S
H525 C522 0.960 . S
C526 N527 1.342 . S
C526 C530 1.401 . S
C526 C531 1.499 . S
N527 Co510 1.989 . S
N527 C526 1.342 . S
N527 N528 1.388 . S
N528 Co511 1.993 . S
N528 N527 1.388 . S
N528 C529 1.346 . S
C529 N528 1.346 . S
C529 C530 1.396 . S
C529 C539 1.510 . S
C530 C526 1.401 . S
C530 C529 1.396 . S
C531 C526 1.499 . S
C531 H532 0.959 . S
C531 H533 0.960 . S
C531 H534 0.961 . S
H532 C531 0.959 . S
H533 C531 0.960 . S
H534 C531 0.961 . S
O535 Co510 1.967 . S
O535 C543 1.258 . S
O536 Co511 1.941 . S
O536 C543 1.266 . S
H537 C539 0.959 . S
H538 C539 0.961 . S
C539 C529 1.510 . S
C539 H537 0.959 . S
C539 H538 0.961 . S
C539 H540 0.960 . S
H540 C539 0.960 . S
H541 N521 0.862 . S
O542 Co510 1.920 . S
O542 C515 1.289 . S
C543 O535 1.258 . S
C543 O536 1.266 . S
C544 C545 1.369 . S
C544 C546 1.419 . S
C544 H548 0.930 . S
C545 C544 1.369 . S
C545 C554 1.429 1_545 S
C546 C544 1.419 . S
C546 C547 1.363 1_545 S
C546 H549 0.929 . S
C547 C546 1.363 1_565 S
C547 C553 1.428 . S
H548 C544 0.930 . S
H549 C546 0.929 . S
S550 N551 1.613 . S
S550 N552 1.610 . S
N551 S550 1.613 . S
N551 C554 1.350 . S
N552 S550 1.610 . S
N552 C553 1.351 . S
C553 C547 1.428 . S
C553 N552 1.351 . S
C553 C554 1.434 . S
C554 C545 1.429 1_565 S
C554 N551 1.350 . S
C554 C553 1.434 . S
C555 C556 1.369 . S
C555 C557 1.419 . S
C555 H559 0.930 . S
C556 C555 1.369 . S
C556 C565 1.429 . S
C557 C555 1.419 . S
C557 C558 1.363 . S
C557 H560 0.929 . S
C558 C557 1.363 . S
C558 C564 1.428 . S
H559 C555 0.930 . S
H560 C557 0.929 . S
S561 N562 1.613 . S
S561 N563 1.610 . S
N562 S561 1.613 . S
N562 C565 1.350 . S
N563 S561 1.610 . S
N563 C564 1.351 . S
C564 C558 1.428 . S
C564 N563 1.351 . S
C564 C565 1.434 . S
C565 C556 1.429 . S
C565 N562 1.350 . S
C565 C564 1.434 . S
C566 C567 1.369 1_565 S
C566 C568 1.419 1_554 S
C566 H570 0.930 . S
C567 C566 1.369 1_545 S
C567 C576 1.429 1_455 S
C568 C566 1.419 1_556 S
C568 C569 1.363 . S
C568 H571 0.929 . S
C569 C568 1.363 . S
C569 C575 1.428 1_465 S
H570 C566 0.930 . S
H571 C568 0.929 . S
S572 N573 1.613 1_556 S
S572 N574 1.610 . S
N573 S572 1.613 1_554 S
N573 C576 1.350 . S
N574 S572 1.610 . S
N574 C575 1.351 . S
C575 C569 1.428 1_645 S
C575 N574 1.351 . S
C575 C576 1.434 1_556 S
C576 C567 1.429 1_655 S
C576 N573 1.350 . S
C576 C575 1.434 1_554 S
C577 C578 1.369 . S
C577 C579 1.419 . S
C577 H581 0.930 . S
C578 C577 1.369 . S
C578 C587 1.429 . S
C579 C577 1.419 . S
C579 C580 1.363 . S
C579 H582 0.929 . S
C580 C579 1.363 . S
C580 C586 1.428 . S
H581 C577 0.930 . S
H582 C579 0.929 . S
S583 N584 1.613 . S
S583 N585 1.610 . S
N584 S583 1.613 . S
N584 C587 1.350 . S
N585 S583 1.610 . S
N585 C586 1.351 . S
C586 C580 1.428 . S
C586 N585 1.351 . S
C586 C587 1.434 . S
C587 C578 1.429 . S
C587 N584 1.350 . S
C587 C586 1.434 . S
C588 C589 1.369 . S
C588 C590 1.419 . S
C588 H592 0.930 . S
C589 C588 1.369 . S
C589 C598 1.429 . S
C590 C588 1.419 . S
C590 C591 1.363 . S
C590 H593 0.929 . S
C591 C590 1.363 . S
C591 C597 1.428 . S
H592 C588 0.930 . S
H593 C590 0.929 . S
S594 N595 1.613 . S
S594 N596 1.610 . S
N595 S594 1.613 . S
N595 C598 1.350 . S
N596 S594 1.610 . S
N596 C597 1.351 . S
C597 C591 1.428 . S
C597 N596 1.351 . S
C597 C598 1.434 . S
C598 C589 1.429 . S
C598 N595 1.350 . S
C598 C597 1.434 . S
C599 C600 1.369 . S
C599 C601 1.419 . S
C599 H603 0.930 . S
C600 C599 1.369 . S
C600 C609 1.429 . S
C601 C599 1.419 . S
C601 C602 1.363 . S
C601 H604 0.929 . S
C602 C601 1.363 . S
C602 C608 1.428 . S
H603 C599 0.930 . S
H604 C601 0.929 . S
S605 N606 1.613 . S
S605 N607 1.610 . S
N606 S605 1.613 . S
N606 C609 1.350 . S
N607 S605 1.610 . S
N607 C608 1.351 . S
C608 C602 1.428 . S
C608 N607 1.351 . S
C608 C609 1.434 . S
C609 C600 1.429 . S
C609 N606 1.350 . S
C609 C608 1.434 . S
C610 C611 1.369 . S
C610 C612 1.419 1_556 S
C610 H614 0.930 . S
C611 C610 1.369 . S
C611 C620 1.429 1_455 S
C612 C610 1.419 1_554 S
C612 C613 1.363 . S
C612 H615 0.929 . S
C613 C612 1.363 . S
C613 C619 1.428 1_455 S
H614 C610 0.930 . S
H615 C612 0.929 . S
S616 N617 1.613 1_554 S
S616 N618 1.610 . S
N617 S616 1.613 1_556 S
N617 C620 1.350 . S
N618 S616 1.610 . S
N618 C619 1.351 . S
C619 C613 1.428 1_655 S
C619 N618 1.351 . S
C619 C620 1.434 1_554 S
C620 C611 1.429 1_655 S
C620 N617 1.350 . S
C620 C619 1.434 1_556 S
C621 C622 1.369 . S
C621 C623 1.419 . S
C621 H625 0.930 . S
C622 C621 1.369 . S
C622 C631 1.429 . S
C623 C621 1.419 . S
C623 C624 1.363 . S
C623 H626 0.929 . S
C624 C623 1.363 . S
C624 C630 1.428 . S
H625 C621 0.930 . S
H626 C623 0.929 . S
S627 N628 1.613 . S
S627 N629 1.610 . S
N628 S627 1.613 . S
N628 C631 1.350 . S
N629 S627 1.610 . S
N629 C630 1.351 . S
C630 C624 1.428 . S
C630 N629 1.351 . S
C630 C631 1.434 . S
C631 C622 1.429 . S
C631 N628 1.350 . S
C631 C630 1.434 . S
C632 C633 1.369 . S
C632 C634 1.419 . S
C632 H636 0.930 . S
C633 C632 1.369 . S
C633 C642 1.429 . S
C634 C632 1.419 . S
C634 C635 1.363 . S
C634 H637 0.929 . S
C635 C634 1.363 . S
C635 C641 1.428 . S
H636 C632 0.930 . S
H637 C634 0.929 . S
S638 N639 1.613 . S
S638 N640 1.610 . S
N639 S638 1.613 . S
N639 C642 1.350 . S
N640 S638 1.610 . S
N640 C641 1.351 . S
C641 C635 1.428 . S
C641 N640 1.351 . S
C641 C642 1.434 . S
C642 C633 1.429 . S
C642 N639 1.350 . S
C642 C641 1.434 . S
C643 C644 1.369 . S
C643 C645 1.419 . S
C643 H647 0.930 . S
C644 C643 1.369 . S
C644 C653 1.429 . S
C645 C643 1.419 . S
C645 C646 1.363 . S
C645 H648 0.929 . S
C646 C645 1.363 . S
C646 C652 1.428 . S
H647 C643 0.930 . S
H648 C645 0.929 . S
S649 N650 1.613 . S
S649 N651 1.610 . S
N650 S649 1.613 . S
N650 C653 1.350 . S
N651 S649 1.610 . S
N651 C652 1.351 . S
C652 C646 1.428 . S
C652 N651 1.351 . S
C652 C653 1.434 . S
C653 C644 1.429 . S
C653 N650 1.350 . S
C653 C652 1.434 . S
C654 C655 1.369 . S
C654 C656 1.419 . S
C654 H658 0.930 . S
C655 C654 1.369 . S
C655 C664 1.429 . S
C656 C654 1.419 . S
C656 C657 1.363 . S
C656 H659 0.929 . S
C657 C656 1.363 . S
C657 C663 1.428 . S
H658 C654 0.930 . S
H659 C656 0.929 . S
S660 N661 1.613 . S
S660 N662 1.610 . S
N661 S660 1.613 . S
N661 C664 1.350 . S
N662 S660 1.610 . S
N662 C663 1.351 . S
C663 C657 1.428 . S
C663 N662 1.351 . S
C663 C664 1.434 . S
C664 C655 1.429 . S
C664 N661 1.350 . S
C664 C663 1.434 . S
C665 C666 1.369 . S
C665 C667 1.419 . S
C665 H669 0.930 . S
C666 C665 1.369 . S
C666 C675 1.429 . S
C667 C665 1.419 . S
C667 C668 1.363 . S
C667 H670 0.929 . S
C668 C667 1.363 . S
C668 C674 1.428 . S
H669 C665 0.930 . S
H670 C667 0.929 . S
S671 N672 1.613 . S
S671 N673 1.610 . S
N672 S671 1.613 . S
N672 C675 1.350 . S
N673 S671 1.610 . S
N673 C674 1.351 . S
C674 C668 1.428 . S
C674 N673 1.351 . S
C674 C675 1.434 . S
C675 C666 1.429 . S
C675 N672 1.350 . S
C675 C674 1.434 . S
C676 C677 1.369 . S
C676 C678 1.419 . S
C676 H680 0.930 . S
C677 C676 1.369 . S
C677 C686 1.429 . S
C678 C676 1.419 . S
C678 C679 1.363 . S
C678 H681 0.929 . S
C679 C678 1.363 . S
C679 C685 1.428 . S
H680 C676 0.930 . S
H681 C678 0.929 . S
S682 N683 1.613 . S
S682 N684 1.610 . S
N683 S682 1.613 . S
N683 C686 1.350 . S
N684 S682 1.610 . S
N684 C685 1.351 . S
C685 C679 1.428 . S
C685 N684 1.351 . S
C685 C686 1.434 . S
C686 C677 1.429 . S
C686 N683 1.350 . S
C686 C685 1.434 . S
C687 C688 1.369 . S
C687 C689 1.419 . S
C687 H691 0.930 . S
C688 C687 1.369 . S
C688 C697 1.429 . S
C689 C687 1.419 . S
C689 C690 1.363 . S
C689 H692 0.929 . S
C690 C689 1.363 . S
C690 C696 1.428 . S
H691 C687 0.930 . S
H692 C689 0.929 . S
S693 N694 1.613 . S
S693 N695 1.610 . S
N694 S693 1.613 . S
N694 C697 1.350 . S
N695 S693 1.610 . S
N695 C696 1.351 . S
C696 C690 1.428 . S
C696 N695 1.351 . S
C696 C697 1.434 . S
C697 C688 1.429 . S
C697 N694 1.350 . S
C697 C696 1.434 . S
C698 C699 1.369 . S
C698 C700 1.419 . S
C698 H702 0.930 . S
C699 C698 1.369 . S
C699 C708 1.429 . S
C700 C698 1.419 . S
C700 C701 1.363 . S
C700 H703 0.929 . S
C701 C700 1.363 . S
C701 C707 1.428 . S
H702 C698 0.930 . S
H703 C700 0.929 . S
S704 N705 1.613 . S
S704 N706 1.610 . S
N705 S704 1.613 . S
N705 C708 1.350 . S
N706 S704 1.610 . S
N706 C707 1.351 . S
C707 C701 1.428 . S
C707 N706 1.351 . S
C707 C708 1.434 . S
C708 C699 1.429 . S
C708 N705 1.350 . S
C708 C707 1.434 . S
C709 C710 1.369 . S
C709 C711 1.419 . S
C709 H713 0.930 . S
C710 C709 1.369 . S
C710 C719 1.429 . S
C711 C709 1.419 . S
C711 C712 1.363 . S
C711 H714 0.929 . S
C712 C711 1.363 . S
C712 C718 1.428 . S
H713 C709 0.930 . S
H714 C711 0.929 . S
S715 N716 1.613 . S
S715 N717 1.610 . S
N716 S715 1.613 . S
N716 C719 1.350 . S
N717 S715 1.610 . S
N717 C718 1.351 . S
C718 C712 1.428 . S
C718 N717 1.351 . S
C718 C719 1.434 . S
C719 C710 1.429 . S
C719 N716 1.350 . S
C719 C718 1.434 . S
C720 C721 1.369 . S
C720 C722 1.419 . S
C720 H724 0.930 . S
C721 C720 1.369 . S
C721 C730 1.429 . S
C722 C720 1.419 . S
C722 C723 1.363 . S
C722 H725 0.929 . S
C723 C722 1.363 . S
C723 C729 1.428 . S
H724 C720 0.930 . S
H725 C722 0.929 . S
S726 N727 1.613 . S
S726 N728 1.610 . S
N727 S726 1.613 . S
N727 C730 1.350 . S
N728 S726 1.610 . S
N728 C729 1.351 . S
C729 C723 1.428 . S
C729 N728 1.351 . S
C729 C730 1.434 . S
C730 C721 1.429 . S
C730 N727 1.350 . S
C730 C729 1.434 . S
C731 C732 1.369 . S
C731 C733 1.419 . S
C731 H735 0.930 . S
C732 C731 1.369 . S
C732 C741 1.429 . S
C733 C731 1.419 . S
C733 C734 1.363 . S
C733 H736 0.929 . S
C734 C733 1.363 . S
C734 C740 1.428 . S
H735 C731 0.930 . S
H736 C733 0.929 . S
S737 N738 1.613 . S
S737 N739 1.610 . S
N738 S737 1.613 . S
N738 C741 1.350 . S
N739 S737 1.610 . S
N739 C740 1.351 . S
C740 C734 1.428 . S
C740 N739 1.351 . S
C740 C741 1.434 . S
C741 C732 1.429 . S
C741 N738 1.350 . S
C741 C740 1.434 . S
C742 C743 1.369 . S
C742 C744 1.419 . S
C742 H746 0.930 . S
C743 C742 1.369 . S
C743 C752 1.429 . S
C744 C742 1.419 . S
C744 C745 1.363 . S
C744 H747 0.929 . S
C745 C744 1.363 . S
C745 C751 1.428 . S
H746 C742 0.930 . S
H747 C744 0.929 . S
S748 N749 1.613 . S
S748 N750 1.610 . S
N749 S748 1.613 . S
N749 C752 1.350 . S
N750 S748 1.610 . S
N750 C751 1.351 . S
C751 C745 1.428 . S
C751 N750 1.351 . S
C751 C752 1.434 . S
C752 C743 1.429 . S
C752 N749 1.350 . S
C752 C751 1.434 . S
C753 C754 1.369 . S
C753 C755 1.419 . S
C753 H757 0.930 . S
C754 C753 1.369 . S
C754 C763 1.429 . S
C755 C753 1.419 . S
C755 C756 1.363 . S
C755 H758 0.929 . S
C756 C755 1.363 . S
C756 C762 1.428 . S
H757 C753 0.930 . S
H758 C755 0.929 . S
S759 N760 1.613 . S
S759 N761 1.610 . S
N760 S759 1.613 . S
N760 C763 1.350 . S
N761 S759 1.610 . S
N761 C762 1.351 . S
C762 C756 1.428 . S
C762 N761 1.351 . S
C762 C763 1.434 . S
C763 C754 1.429 . S
C763 N760 1.350 . S
C763 C762 1.434 . S
C764 C765 1.369 . S
C764 C766 1.419 . S
C764 H768 0.930 . S
C765 C764 1.369 . S
C765 C774 1.429 . S
C766 C764 1.419 . S
C766 C767 1.363 . S
C766 H769 0.929 . S
C767 C766 1.363 . S
C767 C773 1.428 . S
H768 C764 0.930 . S
H769 C766 0.929 . S
S770 N771 1.613 . S
S770 N772 1.610 . S
N771 S770 1.613 . S
N771 C774 1.350 . S
N772 S770 1.610 . S
N772 C773 1.351 . S
C773 C767 1.428 . S
C773 N772 1.351 . S
C773 C774 1.434 . S
C774 C765 1.429 . S
C774 N771 1.350 . S
C774 C773 1.434 . S
C775 C776 1.369 . S
C775 C777 1.419 . S
C775 H779 0.930 . S
C776 C775 1.369 . S
C776 C785 1.429 . S
C777 C775 1.419 . S
C777 C778 1.363 . S
C777 H780 0.929 . S
C778 C777 1.363 . S
C778 C784 1.428 . S
H779 C775 0.930 . S
H780 C777 0.929 . S
S781 N782 1.613 . S
S781 N783 1.610 . S
N782 S781 1.613 . S
N782 C785 1.350 . S
N783 S781 1.610 . S
N783 C784 1.351 . S
C784 C778 1.428 . S
C784 N783 1.351 . S
C784 C785 1.434 . S
C785 C776 1.429 . S
C785 N782 1.350 . S
C785 C784 1.434 . S
C786 C787 1.369 . S
C786 C788 1.419 . S
C786 H790 0.930 . S
C787 C786 1.369 . S
C787 C796 1.429 . S
C788 C786 1.419 . S
C788 C789 1.363 . S
C788 H791 0.929 . S
C789 C788 1.363 . S
C789 C795 1.428 . S
H790 C786 0.930 . S
H791 C788 0.929 . S
S792 N793 1.613 . S
S792 N794 1.610 1_554 S
N793 S792 1.613 . S
N793 C796 1.350 1_554 S
N794 S792 1.610 1_556 S
N794 C795 1.351 . S
C795 C789 1.428 . S
C795 N794 1.351 . S
C795 C796 1.434 . S
C796 C787 1.429 . S
C796 N793 1.350 1_556 S
C796 C795 1.434 . S
C797 C798 1.369 . S
C797 C799 1.419 . S
C797 H801 0.930 . S
C798 C797 1.369 . S
C798 C807 1.429 . S
C799 C797 1.419 . S
C799 C800 1.363 . S
C799 H802 0.929 . S
C800 C799 1.363 . S
C800 C806 1.428 . S
H801 C797 0.930 . S
H802 C799 0.929 . S
S803 N804 1.613 . S
S803 N805 1.610 . S
N804 S803 1.613 . S
N804 C807 1.350 . S
N805 S803 1.610 . S
N805 C806 1.351 . S
C806 C800 1.428 . S
C806 N805 1.351 . S
C806 C807 1.434 . S
C807 C798 1.429 . S
C807 N804 1.350 . S
C807 C806 1.434 . S
C808 C809 1.369 . S
C808 C810 1.419 . S
C808 H812 0.930 . S
C809 C808 1.369 . S
C809 C818 1.429 . S
C810 C808 1.419 . S
C810 C811 1.363 . S
C810 H813 0.929 . S
C811 C810 1.363 . S
C811 C817 1.428 . S
H812 C808 0.930 . S
H813 C810 0.929 . S
S814 N815 1.613 . S
S814 N816 1.610 . S
N815 S814 1.613 . S
N815 C818 1.350 . S
N816 S814 1.610 . S
N816 C817 1.351 . S
C817 C811 1.428 . S
C817 N816 1.351 . S
C817 C818 1.434 . S
C818 C809 1.429 . S
C818 N815 1.350 . S
C818 C817 1.434 . S
C819 C820 1.369 . S
C819 C821 1.419 . S
C819 H823 0.930 . S
C820 C819 1.369 . S
C820 C829 1.429 . S
C821 C819 1.419 . S
C821 C822 1.363 . S
C821 H824 0.929 . S
C822 C821 1.363 . S
C822 C828 1.428 . S
H823 C819 0.930 . S
H824 C821 0.929 . S
S825 N826 1.613 . S
S825 N827 1.610 1_554 S
N826 S825 1.613 . S
N826 C829 1.350 1_554 S
N827 S825 1.610 1_556 S
N827 C828 1.351 . S
C828 C822 1.428 . S
C828 N827 1.351 . S
C828 C829 1.434 . S
C829 C820 1.429 . S
C829 N826 1.350 1_556 S
C829 C828 1.434 . S
C830 C831 1.369 . S
C830 C832 1.419 . S
C830 H834 0.930 . S
C831 C830 1.369 . S
C831 C840 1.429 . S
C832 C830 1.419 . S
C832 C833 1.363 . S
C832 H835 0.929 . S
C833 C832 1.363 . S
C833 C839 1.428 . S
H834 C830 0.930 . S
H835 C832 0.929 . S
S836 N837 1.613 . S
S836 N838 1.610 . S
N837 S836 1.613 . S
N837 C840 1.350 . S
N838 S836 1.610 . S
N838 C839 1.351 . S
C839 C833 1.428 . S
C839 N838 1.351 . S
C839 C840 1.434 . S
C840 C831 1.429 . S
C840 N837 1.350 . S
C840 C839 1.434 . S
C841 C842 1.369 . S
C841 C843 1.419 . S
C841 H845 0.930 . S
C842 C841 1.369 . S
C842 C851 1.429 . S
C843 C841 1.419 . S
C843 C844 1.363 . S
C843 H846 0.929 . S
C844 C843 1.363 . S
C844 C850 1.428 . S
H845 C841 0.930 . S
H846 C843 0.929 . S
S847 N848 1.613 . S
S847 N849 1.610 . S
N848 S847 1.613 . S
N848 C851 1.350 . S
N849 S847 1.610 . S
N849 C850 1.351 . S
C850 C844 1.428 . S
C850 N849 1.351 . S
C850 C851 1.434 . S
C851 C842 1.429 . S
C851 N848 1.350 . S
C851 C850 1.434 . S
C852 C853 1.369 . S
C852 C854 1.419 . S
C852 H856 0.930 . S
C853 C852 1.369 . S
C853 C862 1.429 . S
C854 C852 1.419 . S
C854 C855 1.363 . S
C854 H857 0.929 . S
C855 C854 1.363 . S
C855 C861 1.428 . S
H856 C852 0.930 . S
H857 C854 0.929 . S
S858 N859 1.613 . S
S858 N860 1.610 . S
N859 S858 1.613 . S
N859 C862 1.350 . S
N860 S858 1.610 . S
N860 C861 1.351 . S
C861 C855 1.428 . S
C861 N860 1.351 . S
C861 C862 1.434 . S
C862 C853 1.429 . S
C862 N859 1.350 . S
C862 C861 1.434 . S
C863 C864 1.369 . S
C863 C865 1.419 . S
C863 H867 0.930 . S
C864 C863 1.369 . S
C864 C873 1.429 . S
C865 C863 1.419 . S
C865 C866 1.363 . S
C865 H868 0.929 . S
C866 C865 1.363 . S
C866 C872 1.428 . S
H867 C863 0.930 . S
H868 C865 0.929 . S
S869 N870 1.613 . S
S869 N871 1.610 . S
N870 S869 1.613 . S
N870 C873 1.350 . S
N871 S869 1.610 . S
N871 C872 1.351 . S
C872 C866 1.428 . S
C872 N871 1.351 . S
C872 C873 1.434 . S
C873 C864 1.429 . S
C873 N870 1.350 . S
C873 C872 1.434 . S
C874 C875 1.369 . S
C874 C876 1.419 . S
C874 H878 0.930 . S
C875 C874 1.369 . S
C875 C884 1.429 . S
C876 C874 1.419 . S
C876 C877 1.363 . S
C876 H879 0.929 . S
C877 C876 1.363 . S
C877 C883 1.428 . S
H878 C874 0.930 . S
H879 C876 0.929 . S
S880 N881 1.613 . S
S880 N882 1.610 . S
N881 S880 1.613 . S
N881 C884 1.350 . S
N882 S880 1.610 . S
N882 C883 1.351 . S
C883 C877 1.428 . S
C883 N882 1.351 . S
C883 C884 1.434 . S
C884 C875 1.429 . S
C884 N881 1.350 . S
C884 C883 1.434 . S
C885 C886 1.369 . S
C885 C887 1.419 . S
C885 H889 0.930 . S
C886 C885 1.369 . S
C886 C895 1.429 . S
C887 C885 1.419 . S
C887 C888 1.363 . S
C887 H890 0.929 . S
C888 C887 1.363 . S
C888 C894 1.428 . S
H889 C885 0.930 . S
H890 C887 0.929 . S
S891 N892 1.613 . S
S891 N893 1.610 . S
N892 S891 1.613 . S
N892 C895 1.350 . S
N893 S891 1.610 . S
N893 C894 1.351 . S
C894 C888 1.428 . S
C894 N893 1.351 . S
C894 C895 1.434 . S
C895 C886 1.429 . S
C895 N892 1.350 . S
C895 C894 1.434 . S
C896 C897 1.369 . S
C896 C898 1.419 . S
C896 H900 0.930 . S
C897 C896 1.369 . S
C897 C906 1.429 . S
C898 C896 1.419 . S
C898 C899 1.363 . S
C898 H901 0.929 . S
C899 C898 1.363 . S
C899 C905 1.428 . S
H900 C896 0.930 . S
H901 C898 0.929 . S
S902 N903 1.613 . S
S902 N904 1.610 . S
N903 S902 1.613 . S
N903 C906 1.350 . S
N904 S902 1.610 . S
N904 C905 1.351 . S
C905 C899 1.428 . S
C905 N904 1.351 . S
C905 C906 1.434 . S
C906 C897 1.429 . S
C906 N903 1.350 . S
C906 C905 1.434 . S
C907 C908 1.369 . S
C907 C909 1.419 . S
C907 H911 0.930 . S
C908 C907 1.369 . S
C908 C917 1.429 . S
C909 C907 1.419 . S
C909 C910 1.363 . S
C909 H912 0.929 . S
C910 C909 1.363 . S
C910 C916 1.428 . S
H911 C907 0.930 . S
H912 C909 0.929 . S
S913 N914 1.613 . S
S913 N915 1.610 . S
N914 S913 1.613 . S
N914 C917 1.350 . S
N915 S913 1.610 . S
N915 C916 1.351 . S
C916 C910 1.428 . S
C916 N915 1.351 . S
C916 C917 1.434 . S
C917 C908 1.429 . S
C917 N914 1.350 . S
C917 C916 1.434 . S
C918 C919 1.369 . S
C918 C920 1.419 . S
C918 H922 0.930 . S
C919 C918 1.369 . S
C919 C928 1.429 . S
C920 C918 1.419 . S
C920 C921 1.363 . S
C920 H923 0.929 . S
C921 C920 1.363 . S
C921 C927 1.428 . S
H922 C918 0.930 . S
H923 C920 0.929 . S
S924 N925 1.613 . S
S924 N926 1.610 . S
N925 S924 1.613 . S
N925 C928 1.350 . S
N926 S924 1.610 . S
N926 C927 1.351 . S
C927 C921 1.428 . S
C927 N926 1.351 . S
C927 C928 1.434 . S
C928 C919 1.429 . S
C928 N925 1.350 . S
C928 C927 1.434 . S
C929 C930 1.369 . S
C929 C931 1.419 . S
C929 H933 0.930 . S
C930 C929 1.369 . S
C930 C939 1.429 . S
C931 C929 1.419 . S
C931 C932 1.363 . S
C931 H934 0.929 . S
C932 C931 1.363 . S
C932 C938 1.428 . S
H933 C929 0.930 . S
H934 C931 0.929 . S
S935 N936 1.613 . S
S935 N937 1.610 . S
N936 S935 1.613 . S
N936 C939 1.350 . S
N937 S935 1.610 . S
N937 C938 1.351 . S
C938 C932 1.428 . S
C938 N937 1.351 . S
C938 C939 1.434 . S
C939 C930 1.429 . S
C939 N936 1.350 . S
C939 C938 1.434 . S
C940 C941 1.369 . S
C940 C942 1.419 . S
C940 H944 0.930 . S
C941 C940 1.369 . S
C941 C950 1.429 . S
C942 C940 1.419 . S
C942 C943 1.363 . S
C942 H945 0.929 . S
C943 C942 1.363 . S
C943 C949 1.428 . S
H944 C940 0.930 . S
H945 C942 0.929 . S
S946 N947 1.613 . S
S946 N948 1.610 . S
N947 S946 1.613 . S
N947 C950 1.350 . S
N948 S946 1.610 . S
N948 C949 1.351 . S
C949 C943 1.428 . S
C949 N948 1.351 . S
C949 C950 1.434 . S
C950 C941 1.429 . S
C950 N947 1.350 . S
C950 C949 1.434 . S
C951 C952 1.369 . S
C951 C953 1.419 . S
C951 H955 0.930 . S
C952 C951 1.369 . S
C952 C961 1.429 . S
C953 C951 1.419 . S
C953 C954 1.363 . S
C953 H956 0.929 . S
C954 C953 1.363 . S
C954 C960 1.428 . S
H955 C951 0.930 . S
H956 C953 0.929 . S
S957 N958 1.613 . S
S957 N959 1.610 . S
N958 S957 1.613 . S
N958 C961 1.350 . S
N959 S957 1.610 . S
N959 C960 1.351 . S
C960 C954 1.428 . S
C960 N959 1.351 . S
C960 C961 1.434 . S
C961 C952 1.429 . S
C961 N958 1.350 . S
C961 C960 1.434 . S
C962 C963 1.369 . S
C962 C964 1.419 . S
C962 H966 0.930 . S
C963 C962 1.369 . S
C963 C972 1.429 . S
C964 C962 1.419 . S
C964 C965 1.363 . S
C964 H967 0.929 . S
C965 C964 1.363 . S
C965 C971 1.428 . S
H966 C962 0.930 . S
H967 C964 0.929 . S
S968 N969 1.613 . S
S968 N970 1.610 . S
N969 S968 1.613 . S
N969 C972 1.350 . S
N970 S968 1.610 . S
N970 C971 1.351 . S
C971 C965 1.428 . S
C971 N970 1.351 . S
C971 C972 1.434 . S
C972 C963 1.429 . S
C972 N969 1.350 . S
C972 C971 1.434 . S
C973 C974 1.369 . S
C973 C975 1.419 . S
C973 H977 0.930 . S
C974 C973 1.369 . S
C974 C983 1.429 . S
C975 C973 1.419 . S
C975 C976 1.363 . S
C975 H978 0.929 . S
C976 C975 1.363 . S
C976 C982 1.428 . S
H977 C973 0.930 . S
H978 C975 0.929 . S
S979 N980 1.613 . S
S979 N981 1.610 . S
N980 S979 1.613 . S
N980 C983 1.350 . S
N981 S979 1.610 . S
N981 C982 1.351 . S
C982 C976 1.428 . S
C982 N981 1.351 . S
C982 C983 1.434 . S
C983 C974 1.429 . S
C983 N980 1.350 . S
C983 C982 1.434 . S
C545 C33 0.703 . S
C547 C169 0.684 . S
C556 C203 0.681 . S
C558 C67 0.701 . S
C567 C237 0.690 . S
C569 C101 0.695 . S
C578 C135 0.693 . S
C580 C271 0.692 . S
C589 C305 0.680 . S
C591 C373 0.702 . S
C600 C407 0.689 . S
C602 C339 0.695 . S
C611 C441 0.684 . S
C613 C509 0.700 . S
C622 C475 0.680 . S
C624 C543 0.702 . S
C633 C20 2.272 . S
C635 C190 2.271 1_554 S
C644 C224 2.272 . S
C646 C54 2.272 . S
C655 C258 2.272 . S
C657 C88 2.271 . S
C666 C122 2.269 1_556 S
C668 C156 2.270 . S
C677 C145 0.970 . S
C679 C349 0.970 . S
C688 C77 0.970 . S
C690 C281 0.970 . S
C699 C213 0.971 . S
C701 C383 0.971 . S
C710 C9 0.971 . S
C712 C315 0.971 . S
C721 C428 2.272 . S
C723 C292 2.272 . S
C732 C360 2.271 1_556 S
C734 C530 2.271 . S
C743 C326 2.269 1_554 S
C745 C462 2.270 . S
C754 C394 2.271 . S
C756 C496 2.271 . S
C765 C485 0.971 . S
C767 C43 0.971 . S
C776 C179 0.971 . S
C778 C451 0.971 . S
C787 C111 0.970 . S
C789 C519 0.970 . S
C798 C417 0.970 . S
C800 C247 0.970 . S
C809 C175 1.143 . S
C811 C5 1.135 . S
C820 C209 1.135 . S
C822 C39 1.143 . S
C831 C73 1.132 . S
C833 C243 1.137 . S
C842 C107 1.132 . S
C844 C141 1.138 . S
C853 C138 2.752 . S
C855 C342 2.751 . S
C864 C274 2.749 . S
C866 C70 2.750 1_554 S
C875 C376 2.749 . S
C877 C206 2.749 1_556 S
C886 C2 2.751 . S
C888 C308 2.751 . S
C897 C413 1.132 . S
C899 C277 1.137 . S
C908 C345 1.139 . S
C910 C515 1.134 . S
C919 C447 1.145 . S
C921 C311 1.137 . S
C930 C481 1.139 . S
C932 C379 1.145 . S
C941 C36 2.752 . S
C943 C478 2.751 1_556 S
C952 C172 2.749 . S
C954 C444 2.749 . S
C963 C512 2.749 . S
C965 C104 2.749 . S
C974 C240 2.752 . S
C976 C410 2.751 1_554 S
