# Generated by pormake.
# Topology vcl, (7)-cn, num edge types: 1
# Building blocks:
#     Node 0, Type 0, BuildingBlock: NUHQUE_clean_sbu_2, # of connection points: 7
#     Node 1, Type 0, BuildingBlock: NUHQUE_clean_sbu_2, # of connection points: 7
#     Node 2, Type 0, BuildingBlock: NUHQUE_clean_sbu_2, # of connection points: 7
#     Node 3, Type 0, BuildingBlock: NUHQUE_clean_sbu_2, # of connection points: 7
#     Node 4, Type 0, BuildingBlock: NUHQUE_clean_sbu_2, # of connection points: 7
#     Node 5, Type 0, BuildingBlock: NUHQUE_clean_sbu_2, # of connection points: 7
#     Node 6, Type 0, BuildingBlock: NUHQUE_clean_sbu_2, # of connection points: 7
#     Node 7, Type 0, BuildingBlock: NUHQUE_clean_sbu_2, # of connection points: 7
#     Node 8, Type 0, BuildingBlock: NUHQUE_clean_sbu_2, # of connection points: 7
#     Node 9, Type 0, BuildingBlock: NUHQUE_clean_sbu_2, # of connection points: 7
#     Node 10, Type 0, BuildingBlock: NUHQUE_clean_sbu_2, # of connection points: 7
#     Node 11, Type 0, BuildingBlock: NUHQUE_clean_sbu_2, # of connection points: 7
#     Node 12, Type 0, BuildingBlock: NUHQUE_clean_sbu_2, # of connection points: 7
#     Node 13, Type 0, BuildingBlock: NUHQUE_clean_sbu_2, # of connection points: 7
#     Node 14, Type 0, BuildingBlock: NUHQUE_clean_sbu_2, # of connection points: 7
#     Node 15, Type 0, BuildingBlock: NUHQUE_clean_sbu_2, # of connection points: 7
#     Edge 16, Type (0, 0), BuildingBlock: KIFKEQ_clean_linker_1, # of connection points: 2
#     Edge 17, Type (0, 0), BuildingBlock: KIFKEQ_clean_linker_1, # of connection points: 2
#     Edge 18, Type (0, 0), BuildingBlock: KIFKEQ_clean_linker_1, # of connection points: 2
#     Edge 19, Type (0, 0), BuildingBlock: KIFKEQ_clean_linker_1, # of connection points: 2
#     Edge 20, Type (0, 0), BuildingBlock: KIFKEQ_clean_linker_1, # of connection points: 2
#     Edge 21, Type (0, 0), BuildingBlock: KIFKEQ_clean_linker_1, # of connection points: 2
#     Edge 22, Type (0, 0), BuildingBlock: KIFKEQ_clean_linker_1, # of connection points: 2
#     Edge 23, Type (0, 0), BuildingBlock: KIFKEQ_clean_linker_1, # of connection points: 2
#     Edge 24, Type (0, 0), BuildingBlock: KIFKEQ_clean_linker_1, # of connection points: 2
#     Edge 25, Type (0, 0), BuildingBlock: KIFKEQ_clean_linker_1, # of connection points: 2
#     Edge 26, Type (0, 0), BuildingBlock: KIFKEQ_clean_linker_1, # of connection points: 2
#     Edge 27, Type (0, 0), BuildingBlock: KIFKEQ_clean_linker_1, # of connection points: 2
#     Edge 28, Type (0, 0), BuildingBlock: KIFKEQ_clean_linker_1, # of connection points: 2
#     Edge 29, Type (0, 0), BuildingBlock: KIFKEQ_clean_linker_1, # of connection points: 2
#     Edge 30, Type (0, 0), BuildingBlock: KIFKEQ_clean_linker_1, # of connection points: 2
#     Edge 31, Type (0, 0), BuildingBlock: KIFKEQ_clean_linker_1, # of connection points: 2
#     Edge 32, Type (0, 0), BuildingBlock: KIFKEQ_clean_linker_1, # of connection points: 2
#     Edge 33, Type (0, 0), BuildingBlock: KIFKEQ_clean_linker_1, # of connection points: 2
#     Edge 34, Type (0, 0), BuildingBlock: KIFKEQ_clean_linker_1, # of connection points: 2
#     Edge 35, Type (0, 0), BuildingBlock: KIFKEQ_clean_linker_1, # of connection points: 2
#     Edge 36, Type (0, 0), BuildingBlock: KIFKEQ_clean_linker_1, # of connection points: 2
#     Edge 37, Type (0, 0), BuildingBlock: KIFKEQ_clean_linker_1, # of connection points: 2
#     Edge 38, Type (0, 0), BuildingBlock: KIFKEQ_clean_linker_1, # of connection points: 2
#     Edge 39, Type (0, 0), BuildingBlock: KIFKEQ_clean_linker_1, # of connection points: 2
#     Edge 40, Type (0, 0), BuildingBlock: KIFKEQ_clean_linker_1, # of connection points: 2
#     Edge 41, Type (0, 0), BuildingBlock: KIFKEQ_clean_linker_1, # of connection points: 2
#     Edge 42, Type (0, 0), BuildingBlock: KIFKEQ_clean_linker_1, # of connection points: 2
#     Edge 43, Type (0, 0), BuildingBlock: KIFKEQ_clean_linker_1, # of connection points: 2
#     Edge 44, Type (0, 0), BuildingBlock: KIFKEQ_clean_linker_1, # of connection points: 2
#     Edge 45, Type (0, 0), BuildingBlock: KIFKEQ_clean_linker_1, # of connection points: 2
#     Edge 46, Type (0, 0), BuildingBlock: KIFKEQ_clean_linker_1, # of connection points: 2
#     Edge 47, Type (0, 0), BuildingBlock: KIFKEQ_clean_linker_1, # of connection points: 2
#     Edge 48, Type (0, 0), BuildingBlock: KIFKEQ_clean_linker_1, # of connection points: 2
#     Edge 49, Type (0, 0), BuildingBlock: KIFKEQ_clean_linker_1, # of connection points: 2
#     Edge 50, Type (0, 0), BuildingBlock: KIFKEQ_clean_linker_1, # of connection points: 2
#     Edge 51, Type (0, 0), BuildingBlock: KIFKEQ_clean_linker_1, # of connection points: 2
#     Edge 52, Type (0, 0), BuildingBlock: KIFKEQ_clean_linker_1, # of connection points: 2
#     Edge 53, Type (0, 0), BuildingBlock: KIFKEQ_clean_linker_1, # of connection points: 2
#     Edge 54, Type (0, 0), BuildingBlock: KIFKEQ_clean_linker_1, # of connection points: 2
#     Edge 55, Type (0, 0), BuildingBlock: KIFKEQ_clean_linker_1, # of connection points: 2
#     Edge 56, Type (0, 0), BuildingBlock: KIFKEQ_clean_linker_1, # of connection points: 2
#     Edge 57, Type (0, 0), BuildingBlock: KIFKEQ_clean_linker_1, # of connection points: 2
#     Edge 58, Type (0, 0), BuildingBlock: KIFKEQ_clean_linker_1, # of connection points: 2
#     Edge 59, Type (0, 0), BuildingBlock: KIFKEQ_clean_linker_1, # of connection points: 2
#     Edge 60, Type (0, 0), BuildingBlock: KIFKEQ_clean_linker_1, # of connection points: 2
#     Edge 61, Type (0, 0), BuildingBlock: KIFKEQ_clean_linker_1, # of connection points: 2
#     Edge 62, Type (0, 0), BuildingBlock: KIFKEQ_clean_linker_1, # of connection points: 2
#     Edge 63, Type (0, 0), BuildingBlock: KIFKEQ_clean_linker_1, # of connection points: 2
#     Edge 64, Type (0, 0), BuildingBlock: KIFKEQ_clean_linker_1, # of connection points: 2
#     Edge 65, Type (0, 0), BuildingBlock: KIFKEQ_clean_linker_1, # of connection points: 2
#     Edge 66, Type (0, 0), BuildingBlock: KIFKEQ_clean_linker_1, # of connection points: 2
#     Edge 67, Type (0, 0), BuildingBlock: KIFKEQ_clean_linker_1, # of connection points: 2
#     Edge 68, Type (0, 0), BuildingBlock: KIFKEQ_clean_linker_1, # of connection points: 2
#     Edge 69, Type (0, 0), BuildingBlock: KIFKEQ_clean_linker_1, # of connection points: 2
#     Edge 70, Type (0, 0), BuildingBlock: KIFKEQ_clean_linker_1, # of connection points: 2
#     Edge 71, Type (0, 0), BuildingBlock: KIFKEQ_clean_linker_1, # of connection points: 2
# Relax obj value: 0.219
# Max RMSD: 0.254
# Mean RMSD: 0.254
data_MOF--net-vcl--node1-NUHQUE_clean_sbu_2--edge1-KIFKEQ_clean_linker_1
_symmetry_space_group_name_H-M    P1
_symmetry_Int_Tables_number       1
_symmetry_cell_setting            triclinic
loop_
_symmetry_equiv_pos_as_xyz
'x, y, z'
_cell_length_a     62.02022
_cell_length_b     48.938737
_cell_length_c     32.205666
_cell_angle_alpha  90.1383
_cell_angle_beta   90.135045
_cell_angle_gamma 90.04861
loop_
_atom_site_label
_atom_site_type_symbol
_atom_site_fract_x
_atom_site_fract_y
_atom_site_fract_z
_atom_type_partial_charge
O0 O 0.33344 0.03347 0.07603 0.0
Tb1 Tb 0.3227 0.07588 0.06972 0.0
Eu2 Eu 0.2817 0.12501 0.03387 0.0
C3 C 0.32825 1.02052 0.11053 0.0
O4 O 0.31655 0.0336 0.1381 0.0
C5 C 0.27736 0.08226 0.10762 0.0
O6 O 0.26377 0.16528 0.03489 0.0
C7 C 0.27058 0.09438 0.97072 0.0
C8 C 0.26902 0.18339 0.06353 0.0
O9 O 0.28333 0.17648 0.09176 0.0
C10 C 0.32972 0.1221 1.00765 0.0
C11 C 0.25146 0.08846 0.94497 0.0
C12 C 0.25331 0.072 0.90918 0.0
C13 C 0.23506 0.06629 0.88451 0.0
C14 C 0.21505 0.07734 0.89596 0.0
C15 C 0.2132 0.09459 0.93066 0.0
C16 C 0.23145 0.09994 0.95522 0.0
O17 O 0.28914 0.0662 0.08387 0.0
O18 O 0.27422 0.10802 0.09745 0.0
O19 O 0.34882 0.08204 0.11423 0.0
O20 O 0.32314 0.11062 0.11278 0.0
C21 C 0.34132 0.10436 0.1306 0.0
O22 O 0.31695 0.1348 0.03369 0.0
O23 O 0.33217 0.09535 1.01106 0.0
O24 O 0.26987 0.08615 1.00944 0.0
O25 O 0.2788 0.11895 0.967 0.0
H26 H 0.26887 0.06369 0.90055 0.0
H27 H 0.2011 0.07384 0.87627 0.0
H28 H 0.23015 0.11334 0.98198 0.0
O29 O 0.656 1.0248 0.07505 0.0
Tb30 Tb 0.66804 0.98284 0.06866 0.0
Eu31 Eu 0.70679 0.93485 0.03465 0.0
C32 C 0.66129 0.03852 0.10901 0.0
O33 O 0.67396 1.02656 0.13617 0.0
C34 C 0.7139 0.97769 0.10722 0.0
O35 O 0.72415 0.89422 0.03813 0.0
C36 C 0.71963 0.96377 0.97134 0.0
C37 C 0.71821 0.87628 0.06633 0.0
O38 O 0.70335 0.88336 0.09329 0.0
C39 C 0.65945 0.93741 1.00514 0.0
C40 C 0.74012 0.97367 0.9539 0.0
C41 C 0.74019 0.99142 0.91954 0.0
C42 C 0.75976 0.99881 0.90026 0.0
C43 C 0.77914 0.98811 0.9162 0.0
C44 C 0.77919 0.9702 0.95019 0.0
C45 C 0.75963 0.96339 0.96924 0.0
O46 O 0.70119 0.99377 0.08526 0.0
O47 O 0.71649 0.95184 0.09698 0.0
O48 O 0.64285 0.97703 0.11492 0.0
O49 O 0.66692 0.94654 0.1084 0.0
C50 C 0.64959 0.95357 0.12842 0.0
O51 O 0.67196 0.92381 1.03052 0.0
O52 O 0.65808 0.96428 1.00913 0.0
O53 O 0.71349 0.97464 1.00667 0.0
O54 O 0.71688 0.93718 0.97023 0.0
H55 H 0.72501 0.999 0.90747 0.0
H56 H 0.79418 0.99215 0.9003 0.0
H57 H 0.75948 0.94918 0.99505 0.0
O58 O 0.89405 0.28683 0.35104 0.0
Tb59 Tb 0.9074 0.32789 0.34268 0.0
Eu60 Eu 0.95648 0.37232 0.28221 0.0
C61 C 0.90511 0.26699 0.36877 0.0
O62 O 0.92558 0.27095 0.37736 0.0
C63 C 0.95572 0.33578 0.36298 0.0
O64 O 0.97336 0.41323 0.27806 0.0
C65 C 0.96482 0.33958 0.22033 0.0
C66 C 0.96306 0.43484 0.29229 0.0
O67 O 0.94377 0.43137 0.30825 0.0
C68 C 0.90592 0.36776 0.27099 0.0
C69 C 0.98197 0.33472 0.1895 0.0
C70 C 0.97801 0.31769 0.15496 0.0
C71 C -0.00527 0.31153 0.1271 0.0
C72 C 0.01526 0.32257 0.13396 0.0
C73 C 0.01921 0.341 0.16668 0.0
C74 C 0.00241 0.34671 0.19473 0.0
O75 O 0.94204 0.32124 0.34065 0.0
O76 O 0.96611 0.35623 0.34546 0.0
O77 O 0.88597 0.33706 0.39467 0.0
O78 O 0.91043 0.3654 0.37956 0.0
C79 C 0.89437 0.36054 0.4043 0.0
O80 O 0.92109 0.37816 0.29477 0.0
O81 O 0.89614 0.34551 0.2843 0.0
O82 O 0.96985 0.33418 0.25911 0.0
O83 O 0.95363 0.36222 0.21631 0.0
H84 H 0.96211 0.30902 0.15008 0.0
H85 H 0.0281 0.31722 0.11267 0.0
H86 H 0.00497 0.36082 0.22024 0.0
O87 O 0.08496 0.77764 0.32674 0.0
Tb88 Tb 0.07302 0.73577 0.3188 0.0
Eu89 Eu 0.03431 0.68793 0.28378 0.0
C90 C 0.07955 0.79085 0.36101 0.0
O91 O 0.06701 0.77835 0.38773 0.0
C92 C 0.02735 0.7308 0.35633 0.0
O93 O 0.01713 0.64714 0.28761 0.0
C94 C 0.02123 0.71599 0.21981 0.0
C95 C 0.02846 0.62496 0.29554 0.0
O96 O 0.04919 0.62753 0.30298 0.0
C97 C 0.08183 0.69121 0.25367 0.0
C98 C 0.00185 0.72828 0.20097 0.0
C99 C 0.00428 0.74835 0.1701 0.0
C100 C 0.98617 0.75873 0.149 0.0
C101 C 0.96564 0.74905 0.1599 0.0
C102 C 0.96298 0.72773 0.18863 0.0
C103 C 0.98123 0.71792 0.20991 0.0
O104 O 0.0398 0.74678 0.33384 0.0
O105 O 0.02466 0.70494 0.34616 0.0
O106 O 0.09813 0.72865 0.36499 0.0
O107 O 0.07319 0.69928 0.35808 0.0
C108 C 0.09078 0.70539 0.37819 0.0
O109 O 0.06905 0.67672 0.27733 0.0
O110 O 0.08321 0.71798 0.25914 0.0
O111 O 0.029 0.72743 0.25361 0.0
O112 O 0.02179 0.68919 0.2209 0.0
H113 H 0.02029 0.7553 0.16172 0.0
H114 H 0.95167 0.75692 0.14369 0.0
H115 H 0.97969 0.70115 0.23161 0.0
O116 O 0.34114 0.53615 0.58405 0.0
Tb117 Tb 0.32703 0.57708 0.57826 0.0
Eu118 Eu 0.28058 0.62308 0.53397 0.0
C119 C 0.33029 0.51534 0.59967 0.0
O120 O 0.30962 0.51819 0.60712 0.0
C121 C 0.28089 0.58296 0.61133 0.0
O122 O 0.26258 0.66334 0.53229 0.0
C123 C 0.27092 0.59031 0.47253 0.0
C124 C 0.27324 0.68532 0.54439 0.0
O125 O 0.29319 0.6823 0.55739 0.0
C126 C 0.32979 0.62108 0.51121 0.0
C127 C 0.25298 0.58378 0.44406 0.0
C128 C 0.25649 0.56628 0.40993 0.0
C129 C 0.23928 0.559 0.38367 0.0
C130 C 0.2187 0.56941 0.39177 0.0
C131 C 0.21519 0.58851 0.42376 0.0
C132 C 0.23247 0.59523 0.45033 0.0
O133 O 0.29307 0.56792 0.58687 0.0
O134 O 0.27346 0.60666 0.59824 0.0
O135 O 0.35058 0.58537 0.62728 0.0
O136 O 0.32556 0.61391 0.61694 0.0
C137 C 0.34255 0.6086 0.63915 0.0
O138 O 0.316 0.63285 0.53641 0.0
O139 O 0.33623 0.59592 0.51927 0.0
O140 O 0.26806 0.58407 0.51176 0.0
O141 O 0.28026 0.61415 0.46755 0.0
H142 H 0.27248 0.55825 0.40397 0.0
H143 H 0.20551 0.56331 0.37166 0.0
H144 H 0.2303 0.60992 0.47519 0.0
O145 O 0.65314 0.52491 0.57741 0.0
Tb146 Tb 0.66602 0.48361 0.56921 0.0
Eu147 Eu 0.70506 0.43776 0.53509 0.0
C148 C 0.65833 0.53809 0.61186 0.0
O149 O 0.67104 0.52583 0.63863 0.0
C150 C 0.71171 0.48099 0.60749 0.0
O151 O 0.7219 0.39683 0.53993 0.0
C152 C 0.71772 0.46511 0.47009 0.0
C153 C 0.71064 0.37518 0.55097 0.0
O154 O 0.69029 0.37844 0.56103 0.0
C155 C 0.65751 0.43908 0.50381 0.0
C156 C 0.7364 0.47902 0.45121 0.0
C157 C 0.73315 0.49652 0.41713 0.0
C158 C 0.75084 0.50811 0.39629 0.0
C159 C 0.77175 0.50224 0.41037 0.0
C160 C 0.7754 0.48306 0.44217 0.0
C161 C 0.75748 0.47217 0.46326 0.0
O162 O 0.69885 0.49638 0.58484 0.0
O163 O 0.7149 0.45523 0.59734 0.0
O164 O 0.64131 0.47544 0.61555 0.0
O165 O 0.66674 0.4469 0.60802 0.0
C166 C 0.64916 0.45236 0.62839 0.0
O167 O 0.6707 0.42488 0.52714 0.0
O168 O 0.65584 0.4658 0.50943 0.0
O169 O 0.7085 0.47673 0.5023 0.0
O170 O 0.71919 0.43845 0.4736 0.0
H171 H 0.71692 0.50047 0.40608 0.0
H172 H 0.78531 0.51121 0.39422 0.0
H173 H 0.7597 0.45695 0.48723 0.0
O174 O 0.90085 0.78559 0.84265 0.0
Tb175 Tb 0.91628 0.82559 0.83579 0.0
Eu176 Eu 0.95918 0.87138 0.78654 0.0
C177 C 0.91174 0.76342 0.85291 0.0
O178 O 0.93289 0.76436 0.85385 0.0
C179 C 0.96324 0.83191 0.86398 0.0
O180 O 0.97733 0.91143 0.7831 0.0
C181 C 0.96836 0.83933 0.7242 0.0
C182 C 0.96983 0.9324 0.80436 0.0
O183 O 0.95295 0.92859 0.82824 0.0
C184 C 0.90966 0.86849 0.76812 0.0
C185 C 0.98744 0.83314 0.69882 0.0
C186 C 0.98559 0.81704 0.66271 0.0
C187 C 0.00388 0.81157 0.63823 0.0
C188 C 0.0239 0.8225 0.65017 0.0
C189 C 0.0257 0.83943 0.68524 0.0
C190 C 0.00744 0.84446 0.70965 0.0
O191 O 0.95034 0.8162 0.84185 0.0
O192 O 0.96915 0.856 0.84983 0.0
O193 O 0.89666 0.83226 0.89117 0.0
O194 O 0.91652 0.86439 0.86985 0.0
C195 C 0.90262 0.85731 0.89791 0.0
O196 O 0.92399 0.88139 0.7909 0.0
O197 O 0.9046 0.84299 0.7773 0.0
O198 O 0.96925 0.83155 0.76315 0.0
O199 O 0.96043 0.86401 0.71987 0.0
H200 H 0.97001 0.80892 0.65359 0.0
H201 H 0.03786 0.81927 0.63053 0.0
H202 H 0.00869 0.85768 0.73664 0.0
O203 O 0.08133 0.27917 0.82332 0.0
Tb204 Tb 0.06897 0.23752 0.81492 0.0
Eu205 Eu 0.03343 0.1885 0.7782 0.0
C206 C 0.0753 0.29296 0.85667 0.0
O207 O 0.06156 0.28138 0.88215 0.0
C208 C 0.02293 0.231 0.84984 0.0
O209 O 0.01784 0.14666 0.78305 0.0
C210 C 0.01946 0.21566 0.71396 0.0
C211 C 0.02898 0.12481 0.77226 0.0
O212 O 0.04865 0.12812 0.75814 0.0
C213 C 0.08182 0.19388 0.75163 0.0
C214 C -0.00045 0.2281 0.69735 0.0
C215 C 0.00079 0.24756 0.66527 0.0
C216 C 0.98188 0.25809 0.64698 0.0
C217 C 0.96182 0.2491 0.66188 0.0
C218 C 0.96025 0.22836 0.69191 0.0
C219 C 0.97931 0.21849 0.71026 0.0
O220 O 0.0355 0.2477 0.82888 0.0
O221 O 0.02177 0.20495 0.83972 0.0
O222 O 0.09263 0.23107 0.86417 0.0
O223 O 0.07009 0.19963 0.85104 0.0
C224 C 0.08645 0.2066 0.87407 0.0
O225 O 0.06847 0.17815 0.77213 0.0
O226 O 0.08094 0.22074 0.75592 0.0
O227 O 0.02845 0.22748 0.74634 0.0
O228 O 0.01959 0.18887 0.71628 0.0
H229 H 0.01644 0.25399 0.65398 0.0
H230 H 0.94726 0.25711 0.64794 0.0
H231 H 0.97864 0.20216 0.73285 0.0
O232 O 0.83967 0.03141 0.59564 0.0
Tb233 Tb 0.8279 0.07341 0.59153 0.0
Eu234 Eu 0.77915 0.12121 0.53942 0.0
C235 C 0.82805 1.01138 0.61137 0.0
O236 O 0.80771 1.01576 0.62032 0.0
C237 C 0.78064 0.0823 0.61691 0.0
O238 O 0.76261 0.16232 0.5357 0.0
C239 C 0.77023 0.08851 0.47774 0.0
C240 C 0.77277 0.18355 0.5517 0.0
O241 O 0.79158 0.17954 0.56953 0.0
C242 C 0.82926 0.11672 0.52456 0.0
C243 C 0.75347 0.08411 0.4459 0.0
C244 C 0.75769 0.06701 0.41164 0.0
C245 C 0.74127 0.0611 0.38289 0.0
C246 C 0.72078 0.07243 0.38853 0.0
C247 C 0.71661 0.09088 0.42105 0.0
C248 C 0.7331 0.0964 0.45001 0.0
O249 O 0.79316 0.06821 0.5918 0.0
O250 O 0.77078 0.1042 0.60266 0.0
O251 O 0.85134 0.08038 0.64125 0.0
O252 O 0.82586 0.1086 0.63349 0.0
C253 C 0.84296 0.10291 0.65517 0.0
O254 O 0.81479 0.12668 0.55021 0.0
O255 O 0.83825 0.09317 0.53425 0.0
O256 O 0.7644 0.08388 0.51629 0.0
O257 O 0.78233 0.11041 0.47386 0.0
H258 H 0.77354 0.05805 0.4077 0.0
H259 H 0.70817 0.06722 0.36654 0.0
H260 H 0.73033 0.11051 0.47541 0.0
O261 O 0.15331 1.02888 0.57861 0.0
Tb262 Tb 0.16519 0.98719 0.56864 0.0
Eu263 Eu 0.20386 0.93921 0.53171 0.0
C264 C 0.15953 0.0414 0.613 0.0
O265 O 0.17247 1.02824 0.63832 0.0
C266 C 0.21122 0.98223 0.60423 0.0
O267 O 0.22091 0.89833 0.53533 0.0
C268 C 0.21643 0.96725 0.46727 0.0
C269 C 0.20957 0.87645 0.54502 0.0
O270 O 0.18908 0.8795 0.55409 0.0
C271 C 0.15603 0.94328 0.50296 0.0
C272 C 0.2363 0.97697 0.44715 0.0
C273 C 0.23501 0.99366 0.4117 0.0
C274 C 0.25381 1.00108 0.39001 0.0
C275 C 0.27385 0.99147 0.40417 0.0
C276 C 0.27524 0.97401 0.43864 0.0
C277 C 0.25641 0.96729 0.46049 0.0
O278 O 0.19868 0.99808 0.58167 0.0
O279 O 0.21383 0.95633 0.59416 0.0
O280 O 0.14132 0.97938 0.61678 0.0
O281 O 0.16576 0.94987 0.60609 0.0
C282 C 0.14885 0.95579 0.62813 0.0
O283 O 0.16884 0.92882 0.5267 0.0
O284 O 0.1543 0.96994 0.50903 0.0
O285 O 0.21116 0.97857 0.50281 0.0
O286 O 0.21357 0.94069 0.46704 0.0
H287 H 0.21939 1.00037 0.40051 0.0
H288 H 0.28822 0.99583 0.38625 0.0
H289 H 0.25727 0.95353 0.48679 0.0
O290 O 0.40082 0.28543 0.82997 0.0
Tb291 Tb 0.41502 0.32641 0.82549 0.0
Eu292 Eu 0.45964 0.37338 0.77757 0.0
C293 C 0.41119 0.26514 0.84819 0.0
O294 O 0.43144 0.2687 0.85889 0.0
C295 C 0.46204 0.33364 0.85496 0.0
O296 O 0.4769 0.41414 0.77724 0.0
C297 C 0.46837 0.34243 0.71367 0.0
C298 C 0.47179 0.43188 0.80644 0.0
O299 O 0.45816 0.42422 0.83536 0.0
C300 C 0.41017 0.37047 0.75896 0.0
C301 C 0.48656 0.3341 0.68714 0.0
C302 C 0.48283 0.31685 0.65281 0.0
C303 C 0.5001 0.3082 0.6279 0.0
C304 C 0.52102 0.31695 0.63767 0.0
C305 C 0.52486 0.3359 0.66979 0.0
C306 C 0.50745 0.34396 0.69502 0.0
O307 O 0.44932 0.31818 0.83197 0.0
O308 O 0.46951 0.3569 0.84029 0.0
O309 O 0.39386 0.33185 0.87905 0.0
O310 O 0.41463 0.3642 0.86206 0.0
C311 C 0.39984 0.35659 0.88804 0.0
O312 O 0.42432 0.38236 0.78338 0.0
O313 O 0.40417 0.34515 0.76724 0.0
O314 O 0.46872 0.3337 0.75219 0.0
O315 O 0.46208 0.36795 0.71056 0.0
H316 H 0.46658 0.31018 0.6455 0.0
H317 H 0.53424 0.30985 0.61856 0.0
H318 H 0.50983 0.35861 0.71988 0.0
O319 O 0.58952 0.77478 0.82483 0.0
Tb320 Tb 0.57448 0.73422 0.81978 0.0
Eu321 Eu 0.5315 0.68858 0.77757 0.0
C322 C 0.57889 0.79615 0.83943 0.0
O323 O 0.55808 0.79397 0.84595 0.0
C324 C 0.52816 0.72947 0.85328 0.0
O325 O 0.51454 0.64765 0.78009 0.0
C326 C 0.52047 0.71707 0.71252 0.0
C327 C 0.52102 0.62958 0.80767 0.0
O328 O 0.53596 0.63686 0.83452 0.0
C329 C 0.58039 0.69003 0.75239 0.0
C330 C 0.50163 0.72922 0.69159 0.0
C331 C 0.50476 0.7468 0.65761 0.0
C332 C 0.48699 0.75726 0.63563 0.0
C333 C 0.46612 0.75013 0.64834 0.0
C334 C 0.46269 0.73081 0.68 0.0
C335 C 0.48067 0.72102 0.70225 0.0
O336 O 0.54079 0.74446 0.82971 0.0
O337 O 0.52155 0.70538 0.84016 0.0
O338 O 0.59606 0.72778 0.87259 0.0
O339 O 0.57512 0.69574 0.85442 0.0
C340 C 0.59016 0.70286 0.88041 0.0
O341 O 0.56635 0.6766 0.77498 0.0
O342 O 0.58472 0.71597 0.76067 0.0
O343 O 0.52684 0.72825 0.7476 0.0
O344 O 0.52114 0.69027 0.71323 0.0
H345 H 0.52098 0.75183 0.64771 0.0
H346 H 0.45252 0.75836 0.63135 0.0
H347 H 0.47866 0.70578 0.72627 0.0
O348 O 0.83743 0.53474 0.08948 0.0
Tb349 Tb 0.82438 0.57577 0.07937 0.0
Eu350 Eu 0.78531 0.62249 0.03646 0.0
C351 C 0.8316 0.5216 0.12342 0.0
O352 O 0.81762 0.53335 0.14827 0.0
C353 C 0.77784 0.58136 0.11192 0.0
O354 O 0.76778 0.66305 0.03851 0.0
C355 C 0.77332 0.59345 0.97217 0.0
C356 C 0.77259 0.68077 0.06798 0.0
O357 O 0.78642 0.67351 0.09688 0.0
C358 C 0.83382 0.61814 1.01182 0.0
C359 C 0.75357 0.58496 0.95 0.0
C360 C 0.75498 0.56886 0.91373 0.0
C361 C 0.7363 0.56239 0.89069 0.0
C362 C 0.71629 0.57237 0.90427 0.0
C363 C 0.71483 0.58935 0.93939 0.0
C364 C 0.7335 0.5952 0.96249 0.0
O365 O 0.7909 0.5648 0.09174 0.0
O366 O 0.77507 0.60677 0.09948 0.0
O367 O 0.84826 0.58406 0.12756 0.0
O368 O 0.8239 0.61351 0.11621 0.0
C369 C 0.84083 0.60779 0.13851 0.0
O370 O 0.82034 0.63338 0.03291 0.0
O371 O 0.83536 0.5917 1.01946 0.0
O372 O 0.77679 0.58291 1.00907 0.0
O373 O 0.77769 0.61966 0.97074 0.0
H374 H 0.77059 0.56179 0.9031 0.0
H375 H 0.70202 0.56858 0.8856 0.0
H376 H 0.73255 0.60861 0.98929 0.0
O377 O 0.15334 0.52693 0.07586 0.0
Tb378 Tb 0.16521 0.48508 0.06756 0.0
Eu379 Eu 0.20393 0.43771 1.03003 0.0
C380 C 0.15895 0.54016 0.11005 0.0
O381 O 0.17179 0.5278 0.13649 0.0
C382 C 0.2111 0.47911 0.10479 0.0
O383 O 0.22119 0.39701 0.0328 0.0
C384 C 0.21711 0.46713 0.96744 0.0
C385 C 0.2156 0.37927 0.06153 0.0
O386 O 0.20119 0.38663 0.08924 0.0
C387 C 0.15612 0.44135 1.00132 0.0
C388 C 0.23764 0.47619 0.94909 0.0
C389 C 0.23777 0.49403 0.91478 0.0
C390 C 0.25729 0.50062 0.89462 0.0
C391 C 0.27655 0.48902 0.90962 0.0
C392 C 0.27652 0.47095 0.94339 0.0
C393 C 0.25704 0.46489 0.96329 0.0
O394 O 0.19847 0.49563 0.08351 0.0
O395 O 0.21356 0.45345 0.09335 0.0
O396 O 0.14008 0.47817 0.11358 0.0
O397 O 0.16421 0.44795 0.10545 0.0
C398 C 0.14682 0.45439 0.12579 0.0
O399 O 0.16909 0.42667 1.0244 0.0
O400 O 0.15476 0.46804 1.00749 0.0
O401 O 0.21187 0.47763 1.00359 0.0
O402 O 0.21344 0.44074 0.96537 0.0
H403 H 0.22267 0.5023 0.90342 0.0
H404 H 0.29152 0.4925 0.89314 0.0
H405 H 0.25684 0.45051 0.98888 0.0
O406 O 0.40027 0.7858 0.32857 0.0
Tb407 Tb 0.41385 0.82662 0.31838 0.0
Eu408 Eu 0.4535 0.87242 0.27647 0.0
C409 C 0.40648 0.77223 0.36194 0.0
O410 O 0.42099 0.78352 0.3863 0.0
C411 C 0.46026 0.83177 0.35217 0.0
O412 O 0.47147 0.91273 0.27846 0.0
C413 C 0.46596 0.84226 0.21397 0.0
C414 C 0.46082 0.93479 0.28991 0.0
O415 O 0.44054 0.93214 0.30094 0.0
C416 C 0.40513 0.86868 0.24988 0.0
C417 C 0.48623 0.83375 0.194 0.0
C418 C 0.4859 0.81581 0.15967 0.0
C419 C 0.5051 0.80952 0.1382 0.0
C420 C 0.52451 0.8215 0.1519 0.0
C421 C 0.5249 0.83972 0.18559 0.0
C422 C 0.50574 0.84557 0.20675 0.0
O423 O 0.44722 0.81535 0.33148 0.0
O424 O 0.46314 0.85719 0.34001 0.0
O425 O 0.39123 0.83502 0.36855 0.0
O426 O 0.41421 0.86535 0.35278 0.0
C427 C 0.39823 0.85938 0.37719 0.0
O428 O 0.4186 0.88347 0.27187 0.0
O429 O 0.40266 0.84242 0.25824 0.0
O430 O 0.46199 0.83235 0.25104 0.0
O431 O 0.46145 0.86838 0.21111 0.0
H432 H 0.4707 0.80719 0.14934 0.0
H433 H 0.53921 0.81817 0.13448 0.0
H434 H 0.50587 0.86008 0.23226 0.0
O435 O 0.58496 0.27617 0.32184 0.0
Tb436 Tb 0.57272 0.23448 0.31277 0.0
Eu437 Eu 0.53402 0.18694 0.27459 0.0
C438 C 0.5793 0.28931 0.35604 0.0
O439 O 0.56613 0.27701 0.38185 0.0
C440 C 0.52641 0.22925 0.34793 0.0
O441 O 0.51655 0.14633 0.27804 0.0
C442 C 0.52163 0.2154 0.21043 0.0
C443 C 0.5274 0.12443 0.28945 0.0
O444 O 0.54776 0.12725 0.3 0.0
C445 C 0.58206 0.19018 0.24734 0.0
C446 C 0.50204 0.2267 0.1909 0.0
C447 C 0.50396 0.24661 0.15959 0.0
C448 C 0.48555 0.25629 0.13864 0.0
C449 C 0.46528 0.24597 0.14995 0.0
C450 C 0.46315 0.22475 0.17904 0.0
C451 C 0.48168 0.21571 0.2002 0.0
O452 O 0.53935 0.24545 0.3268 0.0
O453 O 0.52373 0.20355 0.33682 0.0
O454 O 0.59721 0.22751 0.36016 0.0
O455 O 0.57286 0.1976 0.35126 0.0
C456 C 0.59005 0.20396 0.37246 0.0
O457 O 0.56885 0.1757 0.27014 0.0
O458 O 0.58362 0.21689 0.25337 0.0
O459 O 0.52817 0.22661 0.24535 0.0
O460 O 0.5232 0.18864 0.21054 0.0
H461 H 0.51979 0.25409 0.15098 0.0
H462 H 0.45109 0.25338 0.13393 0.0
H463 H 0.4806 0.19909 0.22226 0.0
H464 H 0.36172 0.86469 0.23073 0.0
H465 H 0.42029 0.9068 0.19768 0.0
H466 H 0.34091 0.89709 0.1882 0.0
H467 H 0.39989 0.93893 0.15592 0.0
H468 H 0.36067 0.99138 0.07216 0.0
H469 H 0.37745 0.94899 0.09641 0.0
H470 H 0.33204 0.94537 0.1977 0.0
H471 H 0.31519 0.98717 0.17323 0.0
C472 C 0.37018 0.88029 0.21338 0.0
C473 C 0.39259 0.88325 0.21752 0.0
C474 C 0.35829 0.89906 0.18938 0.0
C475 C 0.36868 0.92085 0.16874 0.0
C476 C 0.39127 0.92238 0.1708 0.0
C477 C 0.40301 0.90397 0.19498 0.0
C478 C 0.35404 0.98122 0.0991 0.0
C479 C 0.33677 0.99291 0.12099 0.0
C480 C 0.3637 0.95697 0.11317 0.0
C481 C 0.35624 0.94375 0.1493 0.0
C482 C 0.33815 0.95468 0.16961 0.0
C483 C 0.32859 0.9789 0.15573 0.0
H484 H 0.56716 0.1498 0.19833 0.0
H485 H 0.62513 0.19511 0.22591 0.0
H486 H 0.58769 0.1174 0.15725 0.0
H487 H 0.64605 0.16242 0.18403 0.0
H488 H 0.67436 0.07358 0.16994 0.0
H489 H 0.6566 0.11481 0.19446 0.0
H490 H 0.60917 0.10695 0.09676 0.0
H491 H 0.62691 0.06515 0.07245 0.0
C492 C 0.58432 0.15323 0.19462 0.0
C493 C 0.59453 0.17502 0.2154 0.0
C494 C 0.59612 0.13465 0.1708 0.0
C495 C 0.61862 0.13705 0.16731 0.0
C496 C 0.62876 0.15977 0.18631 0.0
C497 C 0.61679 0.1787 0.20993 0.0
C498 C 0.6603 0.08078 0.15322 0.0
C499 C 0.65192 0.06576 0.11945 0.0
C500 C 0.6502 0.10469 0.16714 0.0
C501 C 0.63132 0.1143 0.14787 0.0
C502 C 0.62354 0.10002 0.11273 0.0
C503 C 0.63376 0.0761 0.0986 0.0
H504 H 0.86279 0.25184 0.35771 0.0
H505 H 0.92234 0.2251 0.4142 0.0
H506 H 0.84408 0.21292 0.3883 0.0
H507 H 0.90359 0.18675 0.44573 0.0
H508 H 0.86742 0.11034 0.48173 0.0
H509 H 0.88542 0.14398 0.43765 0.0
H510 H 0.832 0.19945 0.45496 0.0
H511 H 0.81388 0.16566 0.4975 0.0
C512 C 0.87195 0.23757 0.37638 0.0
C513 C 0.89408 0.24177 0.38359 0.0
C514 C 0.86118 0.21529 0.39422 0.0
C515 C 0.87221 0.19665 0.41994 0.0
C516 C 0.89452 0.20035 0.4258 0.0
C517 C 0.9053 0.22254 0.40784 0.0
C518 C 0.85939 0.12954 0.47552 0.0
C519 C 0.83929 0.13537 0.49362 0.0
C520 C 0.86979 0.14898 0.45052 0.0
C521 C 0.86033 0.17469 0.44288 0.0
C522 C 0.83979 0.1799 0.4596 0.0
C523 C 0.82943 0.16053 0.48446 0.0
H524 H 0.11318 0.94772 0.4798 0.0
H525 H 0.17175 0.90346 0.45416 0.0
H526 H 0.09287 0.91484 0.43688 0.0
H527 H 0.15184 0.87089 0.41194 0.0
H528 H 0.11359 0.81845 0.32531 0.0
H529 H 0.13068 0.86057 0.35033 0.0
H530 H 0.08302 0.86675 0.44742 0.0
H531 H 0.06591 0.82516 0.42225 0.0
C532 C 0.12178 0.93151 0.46399 0.0
C533 C 0.14402 0.92815 0.4703 0.0
C534 C 0.11017 0.91249 0.43977 0.0
C535 C 0.12067 0.89001 0.42103 0.0
C536 C 0.14316 0.88796 0.42531 0.0
C537 C 0.1546 0.90663 0.44975 0.0
C538 C 0.10655 0.82909 0.35149 0.0
C539 C 0.08852 0.8182 0.372 0.0
C540 C 0.11639 0.8532 0.366 0.0
C541 C 0.10834 0.86709 0.40115 0.0
C542 C 0.08959 0.85691 0.42009 0.0
C543 C 0.07988 0.83281 0.40581 0.0
H544 H 0.31362 0.47271 0.6442 0.0
H545 H 0.37276 0.5012 0.58856 0.0
H546 H 0.33296 0.435 0.67622 0.0
H547 H 0.39205 0.46282 0.6194 0.0
H548 H 0.42314 0.41981 0.73055 0.0
H549 H 0.40394 0.45151 0.68661 0.0
H550 H 0.35246 0.39275 0.6713 0.0
H551 H 0.37171 0.3609 0.71706 0.0
C552 C 0.3307 0.47064 0.63804 0.0
C553 C 0.34166 0.49026 0.61409 0.0
C554 C 0.3418 0.44879 0.65628 0.0
C555 C 0.36419 0.44584 0.65094 0.0
C556 C 0.37491 0.46468 0.62507 0.0
C557 C 0.36382 0.48665 0.60707 0.0
C558 C 0.40778 0.41342 0.7177 0.0
C559 C 0.39889 0.38782 0.72782 0.0
C560 C 0.39681 0.43163 0.69195 0.0
C561 C 0.37656 0.42489 0.67514 0.0
C562 C 0.36791 0.39884 0.68403 0.0
C563 C 0.379 0.38045 0.71 0.0
H564 H 0.56511 0.64824 0.70641 0.0
H565 H 0.62314 0.69471 0.72888 0.0
H566 H 0.58523 0.61571 0.66476 0.0
H567 H 0.64359 0.66186 0.68651 0.0
H568 H 0.67193 0.57286 0.67261 0.0
H569 H 0.65432 0.61398 0.698 0.0
H570 H 0.60592 0.60616 0.60207 0.0
H571 H 0.62355 0.56453 0.57678 0.0
C572 C 0.58218 0.65181 0.70166 0.0
C573 C 0.59257 0.67396 0.72115 0.0
C574 C 0.59371 0.63319 0.67745 0.0
C575 C 0.61609 0.63599 0.6723 0.0
C576 C 0.62638 0.65897 0.69012 0.0
C577 C 0.61468 0.67792 0.71408 0.0
C578 C 0.65769 0.58006 0.65648 0.0
C579 C 0.649 0.56515 0.62292 0.0
C580 C 0.64769 0.60388 0.67087 0.0
C581 C 0.62861 0.61341 0.6523 0.0
C582 C 0.62048 0.59924 0.61741 0.0
C583 C 0.63062 0.57544 0.60275 0.0
H584 H 0.8184 0.64392 0.94435 0.0
H585 H 0.8776 0.62524 1.00837 0.0
H586 H 0.83744 0.67578 0.89949 0.0
H587 H 0.8968 0.65828 0.96493 0.0
H588 H 0.92866 0.71276 0.86921 0.0
H589 H 0.91069 0.67363 0.90082 0.0
H590 H 0.85132 0.71971 0.90593 0.0
H591 H 0.86906 0.75819 0.87293 0.0
C592 C 0.83567 0.64626 0.94811 0.0
C593 C 0.84661 0.63188 0.97934 0.0
C594 C 0.84658 0.66489 0.92286 0.0
C595 C 0.86868 0.67024 0.92888 0.0
C596 C 0.87985 0.65467 0.95891 0.0
C597 C 0.86892 0.63562 0.98381 0.0
C598 C 0.91167 0.71436 0.87654 0.0
C599 C 0.90031 0.73867 0.86838 0.0
C600 C 0.90138 0.69194 0.89504 0.0
C601 C 0.87947 0.69327 0.90622 0.0
C602 C 0.86806 0.71747 0.89716 0.0
C603 C 0.87829 0.73975 0.87832 0.0
H604 H 0.06226 0.32774 0.91795 0.0
H605 H 0.1106 0.31885 0.82265 0.0
H606 H 0.08057 0.36819 0.9443 0.0
H607 H 0.12887 0.35984 0.84876 0.0
H608 H 0.11337 0.44754 0.97819 0.0
H609 H 0.09219 0.41566 0.93507 0.0
H610 H 0.14986 0.36891 0.91062 0.0
H611 H 0.17064 0.40051 0.95295 0.0
C612 C 0.07664 0.33467 0.9021 0.0
C613 C 0.08509 0.31975 0.86841 0.0
C614 C 0.08706 0.35813 0.91707 0.0
C615 C 0.10632 0.36734 0.89893 0.0
C616 C 0.11421 0.35319 0.86388 0.0
C617 C 0.10369 0.32973 0.84872 0.0
C618 C 0.12151 0.4309 0.96251 0.0
C619 C 0.14363 0.4265 0.96897 0.0
C620 C 0.10939 0.41245 0.93817 0.0
C621 C 0.11926 0.38951 0.91942 0.0
C622 C 0.14165 0.38636 0.92398 0.0
C623 C 0.15359 0.40446 0.94852 0.0
H624 H 0.81154 0.97111 0.66106 0.0
H625 H 0.86866 0.99337 0.59252 0.0
H626 H 0.83084 0.93288 0.69211 0.0
H627 H 0.88775 0.9546 0.62243 0.0
H628 H 0.92232 0.91601 0.73351 0.0
H629 H 0.902 0.94653 0.68952 0.0
H630 H 0.8491 0.889 0.68693 0.0
H631 H 0.86962 0.85828 0.73261 0.0
C632 C 0.82807 0.96748 0.65181 0.0
C633 C 0.83864 0.98559 0.62471 0.0
C634 C 0.83913 0.94539 0.66951 0.0
C635 C 0.861 0.94078 0.66034 0.0
C636 C 0.87108 0.95786 0.63103 0.0
C637 C 0.86009 0.98005 0.61365 0.0
C638 C 0.90641 0.90962 0.72339 0.0
C639 C 0.89752 0.88477 0.73699 0.0
C640 C 0.89479 0.92711 0.69763 0.0
C641 C 0.87385 0.92034 0.6844 0.0
C642 C 0.86513 0.89499 0.6968 0.0
C643 C 0.87691 0.87729 0.72271 0.0
H644 H 0.12338 0.06907 0.5854 0.0
H645 H 0.17729 0.07576 0.66982 0.0
H646 H 0.10793 0.11094 0.61504 0.0
H647 H 0.16232 0.11758 0.69845 0.0
H648 H 0.11165 0.15959 0.78198 0.0
H649 H 0.13259 0.12617 0.74345 0.0
H650 H 0.10979 0.16066 0.62803 0.0
H651 H 0.08849 0.19425 0.66745 0.0
C652 C 0.13216 0.07977 0.60959 0.0
C653 C 0.15139 0.06881 0.62563 0.0
C654 C 0.12336 0.10385 0.62652 0.0
C655 C 0.1337 0.11754 0.65967 0.0
C656 C 0.15361 0.10736 0.67369 0.0
C657 C 0.16226 0.08334 0.6571 0.0
C658 C 0.11178 0.1607 0.74836 0.0
C659 C 0.09888 0.1799 0.7277 0.0
C660 C 0.12374 0.14143 0.72612 0.0
C661 C 0.12294 0.14054 0.68243 0.0
C662 C 0.1107 0.16059 0.66161 0.0
C663 C 0.09881 0.18015 0.68408 0.0
H664 H 0.36853 0.25164 0.83674 0.0
H665 H 0.42749 0.22176 0.89178 0.0
H666 H 0.34882 0.21358 0.86754 0.0
H667 H 0.40774 0.18419 0.92344 0.0
H668 H 0.36714 0.11067 0.96347 0.0
H669 H 0.38687 0.142 0.91743 0.0
H670 H 0.3378 0.20333 0.93654 0.0
H671 H 0.31828 0.17238 0.98109 0.0
C672 C 0.37736 0.23682 0.85498 0.0
C673 C 0.39959 0.24003 0.86201 0.0
C674 C 0.36603 0.21502 0.87293 0.0
C675 C 0.37658 0.19587 0.89859 0.0
C676 C 0.39903 0.1983 0.90372 0.0
C677 C 0.41036 0.22005 0.88569 0.0
C678 C 0.36049 0.13069 0.95718 0.0
C679 C 0.34121 0.13902 0.97627 0.0
C680 C 0.37184 0.14875 0.93105 0.0
C681 C 0.36397 0.17533 0.92309 0.0
C682 C 0.3443 0.18303 0.94117 0.0
C683 C 0.33316 0.16523 0.96725 0.0
H684 H 0.56235 0.83956 0.8827 0.0
H685 H 0.62169 0.80943 0.82982 0.0
H686 H 0.58188 0.87703 0.91542 0.0
H687 H 0.64117 0.84759 0.86129 0.0
H688 H 0.67138 0.88818 0.97537 0.0
H689 H 0.65213 0.85788 0.92935 0.0
H690 H 0.60255 0.91891 0.91282 0.0
H691 H 0.622 0.94957 0.96084 0.0
C692 C 0.57953 0.84122 0.87726 0.0
C693 C 0.59048 0.82115 0.85398 0.0
C694 C 0.59074 0.86295 0.89589 0.0
C695 C 0.61323 0.86534 0.89163 0.0
C696 C 0.62394 0.84616 0.86618 0.0
C697 C 0.61275 0.82429 0.84784 0.0
C698 C 0.65644 0.89543 0.96183 0.0
C699 C 0.64814 0.92132 0.9723 0.0
C700 C 0.64545 0.878 0.93481 0.0
C701 C 0.6257 0.88574 0.91699 0.0
C702 C 0.61764 0.91209 0.92621 0.0
C703 C 0.62882 0.92979 0.95345 0.0
H704 H 0.81675 0.48582 0.18119 0.0
H705 H 0.86933 0.49806 0.09561 0.0
H706 H 0.83469 0.44573 0.20922 0.0
H707 H 0.88742 0.45751 0.12378 0.0
H708 H 0.92354 0.41205 0.23268 0.0
H709 H 0.90531 0.44619 0.19026 0.0
H710 H 0.84663 0.39879 0.19546 0.0
H711 H 0.86488 0.36468 0.23839 0.0
C712 C 0.83205 0.47972 0.1679 0.0
C713 C 0.84165 0.4953 0.13625 0.0
C714 C 0.84229 0.45653 0.18384 0.0
C715 C 0.86256 0.44831 0.16889 0.0
C716 C 0.87189 0.46337 0.13626 0.0
C717 C 0.86148 0.48651 0.11991 0.0
C718 C 0.90682 0.40867 0.22428 0.0
C719 C 0.89562 0.38574 0.2394 0.0
C720 C 0.89639 0.42821 0.19966 0.0
C721 C 0.87441 0.42545 0.18968 0.0
C722 C 0.86349 0.40177 0.20301 0.0
C723 C 0.874 0.38208 0.22739 0.0
H724 H 0.06627 0.65084 0.20547 0.0
H725 H 0.12451 0.69632 0.22999 0.0
H726 H 0.08625 0.61862 0.16303 0.0
H727 H 0.14489 0.66376 0.18685 0.0
H728 H 0.17273 0.57459 0.17124 0.0
H729 H 0.15536 0.61578 0.19704 0.0
H730 H 0.10703 0.60894 0.10084 0.0
H731 H 0.12438 0.56723 0.07519 0.0
C732 C 0.08335 0.65433 0.20081 0.0
C733 C 0.09383 0.67611 0.22108 0.0
C734 C 0.09483 0.63586 0.17623 0.0
C735 C 0.11726 0.63838 0.17151 0.0
C736 C 0.12764 0.66106 0.19006 0.0
C737 C 0.11599 0.6799 0.21441 0.0
C738 C 0.15855 0.58201 0.15513 0.0
C739 C 0.14981 0.56733 0.12137 0.0
C740 C 0.14869 0.60589 0.16977 0.0
C741 C 0.12969 0.61575 0.15127 0.0
C742 C 0.12152 0.6018 0.11618 0.0
C743 C 0.13151 0.57794 0.1013 0.0
H744 H 0.37079 0.61584 0.47847 0.0
H745 H 0.31396 0.66662 0.47459 0.0
H746 H 0.38991 0.64916 0.43507 0.0
H747 H 0.33288 0.69967 0.43171 0.0
H748 H 0.36815 0.74943 0.33536 0.0
H749 H 0.34985 0.70927 0.36414 0.0
H750 H 0.40352 0.69605 0.44729 0.0
H751 H 0.42171 0.73581 0.41862 0.0
C752 C 0.36226 0.63381 0.46775 0.0
C753 C 0.34091 0.63865 0.48025 0.0
C754 C 0.37324 0.65301 0.44312 0.0
C755 C 0.36298 0.67723 0.42994 0.0
C756 C 0.34128 0.68123 0.4408 0.0
C757 C 0.33046 0.66231 0.46572 0.0
C758 C 0.37618 0.73765 0.35925 0.0
C759 C 0.39632 0.746 0.37484 0.0
C760 C 0.36565 0.71471 0.37594 0.0
C761 C 0.37516 0.69942 0.40823 0.0
C762 C 0.39578 0.70707 0.42224 0.0
C763 C 0.40615 0.73008 0.40594 0.0
H764 H 0.6149 0.4445 0.47902 0.0
H765 H 0.67274 0.39789 0.45688 0.0
H766 H 0.59444 0.41218 0.43532 0.0
H767 H 0.65266 0.36594 0.41388 0.0
H768 H 0.61469 0.31583 0.32336 0.0
H769 H 0.63242 0.35695 0.35057 0.0
H770 H 0.58313 0.36431 0.44438 0.0
H771 H 0.56541 0.32369 0.41706 0.0
C772 C 0.62332 0.42784 0.46394 0.0
C773 C 0.6454 0.42371 0.47142 0.0
C774 C 0.61161 0.40916 0.43924 0.0
C775 C 0.62185 0.38628 0.42108 0.0
C776 C 0.64419 0.38334 0.42675 0.0
C777 C 0.65572 0.40165 0.4517 0.0
C778 C 0.60744 0.32653 0.34928 0.0
C779 C 0.58875 0.31623 0.36822 0.0
C780 C 0.61765 0.35005 0.36506 0.0
C781 C 0.60932 0.36397 0.39996 0.0
C782 C 0.58996 0.35443 0.41732 0.0
C783 C 0.57988 0.33089 0.40178 0.0
H784 H 0.21221 0.34138 0.12316 0.0
H785 H 0.238 0.35261 0.99992 0.0
H786 H 0.2245 0.29411 0.1228 0.0
H787 H 0.2503 0.30499 0.99958 0.0
H788 H 0.24681 0.20936 1.00089 0.0
H789 H 0.23435 0.25691 0.99962 0.0
H790 H 0.25937 0.26895 0.1235 0.0
H791 H 0.2718 0.22176 0.1248 0.0
C792 C 0.22059 0.33381 0.096 0.0
C793 C 0.22416 0.35087 0.06161 0.0
C794 C 0.22768 0.30668 0.09586 0.0
C795 C 0.23835 0.29572 0.06115 0.0
C796 C 0.24195 0.31274 1.02666 0.0
C797 C 0.23507 0.34008 1.027 0.0
C798 C 0.24952 0.22213 1.02792 0.0
C799 C 0.26026 0.21169 0.06299 0.0
C800 C 0.24255 0.24943 1.02705 0.0
C801 C 0.24589 0.26675 0.06145 0.0
C802 C 0.25637 0.25614 0.09662 0.0
C803 C 0.26355 0.22905 0.0973 0.0
H804 H 0.75126 0.70722 1.00478 0.0
H805 H 0.77437 0.71864 0.13024 0.0
H806 H 0.73863 0.75467 1.00378 0.0
H807 H 0.76172 0.76578 0.12922 0.0
H808 H 0.71413 0.83799 0.12726 0.0
H809 H 0.72675 0.79084 0.12698 0.0
H810 H 0.75435 0.80275 1.00545 0.0
H811 H 0.74173 0.85022 1.00572 0.0
C812 C 0.75353 0.71975 1.03221 0.0
C813 C 0.76379 0.70906 0.06762 0.0
C814 C 0.74645 0.747 1.03151 0.0
C815 C 0.74919 0.76405 0.06641 0.0
C816 C 0.7592 0.75318 0.10194 0.0
C817 C 0.7665 0.72613 0.10245 0.0
C818 C 0.72298 0.83067 0.1005 0.0
C819 C 0.72696 0.84797 0.06655 0.0
C820 C 0.73027 0.80361 0.10042 0.0
C821 C 0.74154 0.79297 0.06618 0.0
C822 C 0.74555 0.81024 1.03215 0.0
C823 C 0.73847 0.8375 1.03246 0.0
H824 H 0.94496 0.48252 0.31897 0.0
H825 H 0.00282 0.45037 0.26275 0.0
H826 H 0.96049 0.52813 0.31881 0.0
H827 H 0.01829 0.49636 0.2618 0.0
H828 H 0.04798 0.57607 0.31125 0.0
H829 H 0.03226 0.53054 0.30893 0.0
H830 H 0.97083 0.56525 0.27407 0.0
H831 H 0.98653 0.61105 0.27723 0.0
C832 C 0.96099 0.48518 0.30632 0.0
C833 C 0.97267 0.46268 0.291 0.0
C834 C 0.96984 0.51147 0.30596 0.0
C835 C 0.99066 0.51606 0.29027 0.0
C836 C 0.00231 0.49357 0.27462 0.0
C837 C 0.99342 0.4672 0.27495 0.0
C838 C 0.0311 0.57407 0.30315 0.0
C839 C 0.01851 0.59731 0.29457 0.0
C840 C 0.02212 0.54786 0.30147 0.0
C841 C 0.00027 0.54409 0.29116 0.0
C842 C 0.98765 0.56735 0.28259 0.0
C843 C -0.00334 0.59364 0.28427 0.0
H844 H 0.29224 0.73333 0.56715 0.0
H845 H 0.23248 0.70053 0.51909 0.0
H846 H 0.27704 0.77902 0.56636 0.0
H847 H 0.21729 0.74668 0.51749 0.0
H848 H 0.18998 0.82827 0.56503 0.0
H849 H 0.20506 0.78242 0.56353 0.0
H850 H 0.26578 0.81517 0.52087 0.0
H851 H 0.25075 0.8613 0.52321 0.0
C852 C 0.27583 0.73584 0.55619 0.0
C853 C 0.26356 0.71313 0.54329 0.0
C854 C 0.26716 0.7622 0.55544 0.0
C855 C 0.24593 0.76671 0.54175 0.0
C856 C 0.23363 0.74399 0.52869 0.0
C857 C 0.24235 0.71751 0.52942 0.0
C858 C 0.20658 0.82577 0.55536 0.0
C859 C 0.21917 0.84858 0.54439 0.0
C860 C 0.21518 0.79935 0.55418 0.0
C861 C 0.23665 0.79493 0.54197 0.0
C862 C 0.24926 0.81776 0.53093 0.0
C863 C 0.24063 0.84426 0.53213 0.0
H864 H 0.79148 0.23088 0.57859 0.0
H865 H 0.73349 0.19992 0.52061 0.0
H866 H 0.77675 0.2769 0.57721 0.0
H867 H 0.71881 0.2463 0.51868 0.0
H868 H 0.69041 0.32695 0.56802 0.0
H869 H 0.70537 0.28102 0.56646 0.0
H870 H 0.76716 0.31386 0.53021 0.0
H871 H 0.75222 0.36008 0.53232 0.0
C872 C 0.77559 0.23388 0.56536 0.0
C873 C 0.76363 0.2116 0.54986 0.0
C874 C 0.76721 0.26039 0.56429 0.0
C875 C 0.74659 0.2654 0.54781 0.0
C876 C 0.73465 0.24315 0.53204 0.0
C877 C 0.7431 0.21656 0.53296 0.0
C878 C 0.70722 0.32446 0.55976 0.0
C879 C 0.72013 0.34729 0.55043 0.0
C880 C 0.71575 0.29802 0.55853 0.0
C881 C 0.73746 0.29364 0.54807 0.0
C882 C 0.75042 0.31648 0.53879 0.0
C883 C 0.74184 0.34299 0.53987 0.0
H884 H 0.00046 0.95014 0.74905 0.0
H885 H 0.96012 0.97793 0.84973 0.0
H886 H 0.01411 0.99656 0.74013 0.0
H887 H 0.97421 1.02399 0.84186 0.0
H888 H 0.98756 0.10942 0.79194 0.0
H889 H 0.97336 0.06305 0.79862 0.0
H890 H 0.03638 1.03038 0.77043 0.0
H891 H 0.05026 0.07647 0.76239 0.0
C892 C -0.00533 0.96608 0.76957 0.0
C893 C 0.97918 0.96025 0.80007 0.0
C894 C 0.00255 0.99275 0.76459 0.0
C895 C -0.00475 1.01426 0.79018 0.0
C896 C 0.97994 1.00823 0.82099 0.0
C897 C 0.97198 0.98165 0.82577 0.0
C898 C -0.00166 0.09232 0.78708 0.0
C899 C 0.02003 0.09674 0.77657 0.0
C900 C 0.99024 0.06566 0.79115 0.0
C901 C 0.00369 0.04275 0.78511 0.0
C902 C 0.02539 0.04733 0.77462 0.0
C903 C 0.03341 0.0739 0.77028 0.0
H904 H 0.49807 0.60311 0.74633 0.0
H905 H 0.52618 0.59096 0.86769 0.0
H906 H 0.48675 0.55506 0.74493 0.0
H907 H 0.51489 0.54328 0.86628 0.0
H908 H 0.46926 0.46943 0.86876 0.0
H909 H 0.48057 0.51706 0.86806 0.0
H910 H 0.5036 0.50745 0.74251 0.0
H911 H 0.49223 0.45939 0.74315 0.0
C912 C 0.5017 0.59028 0.77279 0.0
C913 C 0.51297 0.60094 0.80719 0.0
C914 C 0.49539 0.56271 0.77182 0.0
C915 C 0.49994 0.54532 0.80547 0.0
C916 C 0.51097 0.55613 0.83998 0.0
C917 C 0.51749 0.5835 0.84073 0.0
C918 C 0.47683 0.47734 0.84099 0.0
C919 C 0.4799 0.4605 0.80605 0.0
C920 C 0.48337 0.50469 0.84067 0.0
C921 C 0.49299 0.5161 0.80524 0.0
C922 C 0.49608 0.49932 0.77017 0.0
C923 C 0.48974 0.47175 0.77067 0.0
H924 H 0.50202 0.94902 0.26672 0.0
H925 H 0.44235 0.98326 0.31202 0.0
H926 H 0.51789 0.99478 0.26526 0.0
H927 H 0.45825 1.02867 0.31133 0.0
H928 H 0.48618 0.10993 0.26653 0.0
H929 H 0.47041 0.06414 0.26518 0.0
H930 H 0.53026 1.03061 0.31119 0.0
H931 H 0.54608 0.0761 0.31176 0.0
C932 C 0.49232 0.96625 0.27655 0.0
C933 C 0.47092 0.96238 0.28952 0.0
C934 C 0.50144 0.99251 0.27588 0.0
C935 C 0.48936 1.01555 0.28811 0.0
C936 C 0.46796 1.01157 0.30106 0.0
C937 C 0.45888 0.9854 0.30176 0.0
C938 C 0.49595 0.09279 0.27639 0.0
C939 C 0.51739 0.09678 0.2893 0.0
C940 C 0.4869 0.0665 0.27577 0.0
C941 C 0.49905 0.04355 0.28804 0.0
C942 C 0.52049 0.04764 0.30092 0.0
C943 C 0.52952 0.07386 0.30155 0.0
H944 H 0.27718 0.04594 0.36755 0.0
H945 H 0.2288 0.98996 0.32196 0.0
H946 H 0.27945 0.06695 0.29886 0.0
H947 H 0.23116 1.01087 0.25299 0.0
H948 H 0.27012 1.02908 0.12978 0.0
H949 H 0.26106 1.01153 0.19857 0.0
H950 H 0.25777 0.09402 0.24584 0.0
H951 H 0.26677 0.11162 0.17697 0.0
C952 C 0.26677 0.03846 0.34296 0.0
C953 C 0.25278 1.01637 0.35015 0.0
C954 C 0.26801 0.05053 0.30367 0.0
C955 C 0.25554 0.04051 0.27044 0.0
C956 C 0.24106 1.01893 0.27793 0.0
C957 C 0.23956 1.00714 0.31746 0.0
C958 C 0.26717 0.04349 0.1547 0.0
C959 C 0.26927 0.07174 0.14792 0.0
C960 C 0.26187 0.03344 0.19407 0.0
C961 C 0.25877 0.05139 0.2277 0.0
C962 C 0.26021 0.07968 0.22062 0.0
C963 C 0.26522 0.08975 0.18109 0.0
H964 H 0.71983 1.03119 0.12976 0.0
H965 H 0.73091 0.94866 0.17198 0.0
H966 H 0.73193 0.04871 0.19689 0.0
H967 H 0.74308 0.96627 0.23914 0.0
H968 H 0.72426 1.01136 0.36485 0.0
H969 H 0.72259 0.98945 0.29661 0.0
H970 H 0.76338 0.05281 0.24647 0.0
H971 H 0.76512 0.07454 0.31518 0.0
C972 C 0.72517 1.01679 0.15311 0.0
C973 C 0.7242 0.98851 0.14558 0.0
C974 C 0.73227 1.02686 0.19152 0.0
C975 C 0.7384 1.00887 0.22343 0.0
C976 C 0.73832 0.98063 0.21528 0.0
C977 C 0.73144 0.97057 0.1767 0.0
C978 C 0.7335 1.01996 0.33953 0.0
C979 C 0.74503 0.04439 0.34523 0.0
C980 C 0.73253 1.0075 0.30043 0.0
C981 C 0.74274 1.0195 0.26603 0.0
C982 C 0.75523 0.04319 0.27231 0.0
C983 C 0.75645 0.05545 0.31164 0.0
H984 H -0.00483 0.33686 0.40113 0.0
H985 H 0.92843 0.31634 0.42207 0.0
H986 H 0.00413 0.3217 0.47175 0.0
H987 H 0.93728 0.30144 0.49247 0.0
H988 H 0.95633 0.30219 0.62825 0.0
H989 H 0.95122 0.32325 0.56034 0.0
H990 H 0.00339 0.27494 0.511 0.0
H991 H 0.0081 0.25306 0.57865 0.0
C992 C 0.98242 0.32921 0.4209 0.0
C993 C 0.96113 0.3274 0.40596 0.0
C994 C 0.98757 0.32046 0.46119 0.0
C995 C 0.97142 0.31042 0.48767 0.0
C996 C 0.95006 0.30925 0.47292 0.0
C997 C 0.94502 0.31749 0.43247 0.0
C998 C 0.96689 0.2962 0.60309 0.0
C999 C 0.98241 0.27555 0.60891 0.0
C1000 C 0.96392 0.30827 0.56417 0.0
C1001 C 0.97666 0.30042 0.53018 0.0
C1002 C 0.99333 0.28142 0.53664 0.0
C1003 C -0.00388 0.26901 0.57554 0.0
H1004 H 0.02676 0.76669 0.6148 0.0
H1005 H 0.9782 0.8229 0.57144 0.0
H1006 H 0.02833 0.74572 0.54583 0.0
H1007 H 0.97998 0.80218 0.50198 0.0
H1008 H 0.02027 0.78407 0.37863 0.0
H1009 H 0.01063 0.80156 0.44733 0.0
H1010 H 0.00533 0.71899 0.49292 0.0
H1011 H 0.01479 0.70144 0.42418 0.0
C1012 C 0.01614 0.77418 0.59062 0.0
C1013 C 0.00229 0.79629 0.59844 0.0
C1014 C 0.01699 0.76217 0.55119 0.0
C1015 C 0.00431 0.77235 0.51846 0.0
C1016 C 0.98999 0.79398 0.52658 0.0
C1017 C 0.98883 0.80567 0.56633 0.0
C1018 C 0.01667 0.76964 0.40311 0.0
C1019 C 0.0184 0.74137 0.39596 0.0
C1020 C 0.01105 0.77966 0.44241 0.0
C1021 C 0.00732 0.76163 0.47556 0.0
C1022 C 0.00824 0.73336 0.46801 0.0
C1023 C 0.01353 0.72333 0.42856 0.0
H1024 H 0.24306 0.58777 0.65487 0.0
H1025 H 0.30803 0.55698 0.66423 0.0
H1026 H 0.23539 0.57062 0.72509 0.0
H1027 H 0.30048 0.53996 0.73385 0.0
H1028 H 0.28747 0.53872 0.87204 0.0
H1029 H 0.29201 0.5604 0.80458 0.0
H1030 H 0.23298 0.52313 0.76153 0.0
H1031 H 0.22867 0.50062 0.82883 0.0
C1032 C 0.25567 0.57735 0.67195 0.0
C1033 C 0.27603 0.57326 0.65387 0.0
C1034 C 0.25126 0.56746 0.71198 0.0
C1035 C 0.26733 0.55394 0.73503 0.0
C1036 C 0.28779 0.55039 0.71706 0.0
C1037 C 0.29204 0.55982 0.67695 0.0
C1038 C 0.27538 0.53513 0.84832 0.0
C1039 C 0.25787 0.51749 0.85588 0.0
C1040 C 0.278 0.54762 0.80964 0.0
C1041 C 0.26302 0.54319 0.77752 0.0
C1042 C 0.24477 0.527 0.78571 0.0
C1043 C 0.24226 0.51419 0.8244 0.0
H1044 H 0.76049 0.57488 0.82233 0.0
H1045 H 0.71373 0.51696 0.86755 0.0
H1046 H 0.75793 0.55443 0.75276 0.0
H1047 H 0.71141 0.49623 0.79843 0.0
H1048 H 0.72479 0.45226 0.67582 0.0
H1049 H 0.73401 0.47024 0.74455 0.0
H1050 H 0.72705 0.55251 0.69865 0.0
H1051 H 0.71761 0.53458 0.62996 0.0
C1052 C 0.75007 0.55736 0.8176 0.0
C1053 C 0.73739 0.54741 0.85039 0.0
C1054 C 0.74846 0.54582 0.77774 0.0
C1055 C 0.73445 0.52372 0.77004 0.0
C1056 C 0.7225 0.51306 0.80336 0.0
C1057 C 0.72379 0.52493 0.84293 0.0
C1058 C 0.72561 0.47419 0.68013 0.0
C1059 C 0.72039 0.49197 0.64734 0.0
C1060 C 0.73074 0.48448 0.71963 0.0
C1061 C 0.73119 0.5128 0.72714 0.0
C1062 C 0.72701 0.5306 0.69384 0.0
C1063 C 0.72152 0.52031 0.65451 0.0
H1064 H 0.96119 0.80263 0.12726 0.0
H1065 H 0.01523 0.75439 0.08507 0.0
H1066 H 0.95783 0.82265 0.05816 0.0
H1067 H 0.01234 0.77555 1.01638 0.0
H1068 H 0.00042 0.84383 0.90683 0.0
H1069 H 0.00967 0.83016 0.97829 0.0
H1070 H 0.94862 0.78848 0.98848 0.0
H1071 H 0.93962 0.8014 0.91734 0.0
C1072 C 0.97272 0.79683 0.10362 0.0
C1073 C 0.98823 0.77649 0.11158 0.0
C1074 C 0.9708 0.80836 0.06415 0.0
C1075 C 0.98468 0.80037 1.03203 0.0
C1076 C 0.00149 0.78205 0.04079 0.0
C1077 C 0.00321 0.7701 0.08021 0.0
C1078 C 0.98909 0.8316 0.92436 0.0
C1079 C 0.96941 0.82339 0.90643 0.0
C1080 C 0.99439 0.82381 0.96506 0.0
C1081 C 0.97979 0.80842 0.98872 0.0
C1082 C 0.9601 0.80044 0.97084 0.0
C1083 C 0.95505 0.80762 0.93004 0.0
H1084 H 0.9702 0.32444 0.05971 0.0
H1085 H 0.01292 0.26267 0.10777 0.0
H1086 H 0.97203 0.30324 0.99064 0.0
H1087 H 0.01468 0.2413 0.03918 0.0
H1088 H 0.00684 0.20084 0.91426 0.0
H1089 H -0.00545 0.21755 0.98176 0.0
H1090 H 0.00298 0.30066 0.9402 0.0
H1091 H 0.01521 0.28402 0.87276 0.0
C1092 C 0.97933 0.30576 0.05576 0.0
C1093 C 0.99125 0.29499 0.08902 0.0
C1094 C 0.98059 0.2938 1.0162 0.0
C1095 C 0.9936 0.27067 1.00934 0.0
C1096 C 0.00435 0.25891 0.04341 0.0
C1097 C 0.00333 0.27109 0.08272 0.0
C1098 C 0.00564 0.22268 0.91918 0.0
C1099 C 0.01219 0.24108 0.88816 0.0
C1100 C -0.00128 0.23225 0.95798 0.0
C1101 C -0.00212 0.26043 0.96647 0.0
C1102 C 0.00324 0.27883 0.93461 0.0
C1103 C 0.01039 0.26927 0.896 0.0
H1104 H 0.73166 0.99759 0.83378 0.0
H1105 H 0.78934 0.03786 0.87815 0.0
H1106 H 0.73568 1.02043 0.76679 0.0
H1107 H 0.79363 0.05987 0.81085 0.0
H1108 H 0.80932 0.05841 0.66968 0.0
H1109 H 0.80274 0.04104 0.73953 0.0
H1110 H 0.73653 0.06772 0.73166 0.0
H1111 H 0.74321 0.08516 0.66142 0.0
C1112 C 0.74495 1.01168 0.82967 0.0
C1113 C 0.76031 1.01557 0.86143 0.0
C1114 C 0.7473 1.02467 0.79114 0.0
C1115 C 0.76515 0.04164 0.78335 0.0
C1116 C 0.77993 0.04651 0.81564 0.0
C1117 C 0.77746 0.03383 0.85421 0.0
C1118 C 0.79334 0.06041 0.68274 0.0
C1119 C 0.77672 0.07275 0.65988 0.0
C1120 C 0.78962 0.05075 0.72294 0.0
C1121 C 0.76909 0.05297 0.74113 0.0
C1122 C 0.75247 0.06555 0.71837 0.0
C1123 C 0.75632 0.07564 0.67832 0.0
H1124 H 0.26093 0.07633 0.81761 0.0
H1125 H 0.21189 1.02128 0.86216 0.0
H1126 H 0.25903 0.05466 0.74881 0.0
H1127 H 0.21018 0.99938 0.79386 0.0
H1128 H 0.22296 0.9534 0.67334 0.0
H1129 H 0.23247 0.9716 0.74183 0.0
H1130 H 0.22885 0.05367 0.69361 0.0
H1131 H 0.2192 0.03553 0.62523 0.0
C1132 C 0.25016 0.05915 0.81294 0.0
C1133 C 0.23661 0.0504 0.8452 0.0
C1134 C 0.24894 0.04691 0.77353 0.0
C1135 C 0.23443 1.02533 0.76588 0.0
C1136 C 0.22166 1.01577 0.79882 0.0
C1137 C 0.22259 1.02832 0.83789 0.0
C1138 C 0.22462 0.9753 0.67712 0.0
C1139 C 0.22023 0.99302 0.64384 0.0
C1140 C 0.22992 0.98572 0.71644 0.0
C1141 C 0.23134 1.01407 0.7232 0.0
C1142 C 0.22806 0.03172 0.68937 0.0
C1143 C 0.22244 1.02132 0.65022 0.0
H1144 H 0.51399 0.25297 0.07351 0.0
H1145 H 0.45986 0.29983 0.11853 0.0
H1146 H 0.51044 0.27496 1.00555 0.0
H1147 H 0.45595 0.32097 0.05039 0.0
H1148 H 0.43566 0.3101 0.91143 0.0
H1149 H 0.44432 0.29569 0.98204 0.0
H1150 H 0.50983 0.32347 0.96603 0.0
H1151 H 0.50099 0.33828 0.89496 0.0
C1152 C 0.50177 0.26853 0.06938 0.0
C1153 C 0.48701 0.27432 0.10137 0.0
C1154 C 0.49966 0.28098 1.03035 0.0
C1155 C 0.48266 0.29926 1.02252 0.0
C1156 C 0.46897 0.30659 0.05536 0.0
C1157 C 0.47124 0.29448 0.09439 0.0
C1158 C 0.45196 0.31286 0.92278 0.0
C1159 C 0.46774 0.32487 0.89753 0.0
C1160 C 0.45686 0.30495 0.96338 0.0
C1161 C 0.47775 0.30853 0.97957 0.0
C1162 C 0.49363 0.32043 0.95428 0.0
C1163 C 0.48857 0.32892 0.91377 0.0
H1164 H 0.53502 0.77157 0.11408 0.0
H1165 H 0.47561 0.8093 0.07387 0.0
H1166 H 0.53902 0.75039 0.04598 0.0
H1167 H 0.47938 0.78723 1.00586 0.0
H1168 H 0.49044 0.72264 0.89704 0.0
H1169 H 0.48253 0.73904 0.96779 0.0
H1170 H 0.54648 0.77351 0.97584 0.0
H1171 H 0.55424 0.7574 0.90582 0.0
C1172 C 0.52266 0.77512 0.09091 0.0
C1173 C 0.50518 0.79259 0.09941 0.0
C1174 C 0.52495 0.76291 0.05189 0.0
C1175 C 0.50968 0.76746 1.02038 0.0
C1176 C 0.49139 0.78332 1.02957 0.0
C1177 C 0.4892 0.79587 0.06864 0.0
C1178 C 0.50271 0.73382 0.91402 0.0
C1179 C 0.52282 0.73919 0.89567 0.0
C1180 C 0.49817 0.74325 0.95436 0.0
C1181 C 0.51391 0.75751 0.97739 0.0
C1182 C 0.53407 0.76247 0.95903 0.0
C1183 C 0.53841 0.75356 0.91868 0.0
H1184 H 0.76223 0.61272 0.1757 0.0
H1185 H 0.77187 0.5288 0.13849 0.0
H1186 H 0.75104 0.59744 0.24463 0.0
H1187 H 0.7608 0.51359 0.20732 0.0
H1188 H 0.72809 0.492 0.32776 0.0
H1189 H 0.73023 0.51113 0.2577 0.0
H1190 H 0.77099 0.57607 0.30378 0.0
H1191 H 0.76876 0.55698 0.3737 0.0
C1192 C 0.76159 0.591 0.18193 0.0
C1193 C 0.76809 0.57199 0.1516 0.0
C1194 C 0.75532 0.58226 0.22156 0.0
C1195 C 0.7551 0.5543 0.23162 0.0
C1196 C 0.76058 0.53526 0.20058 0.0
C1197 C 0.76707 0.544 0.16115 0.0
C1198 C 0.73695 0.51083 0.32312 0.0
C1199 C 0.74823 0.52301 0.35627 0.0
C1200 C 0.7384 0.5216 0.2829 0.0
C1201 C 0.75094 0.545 0.27502 0.0
C1202 C 0.76107 0.55815 0.30873 0.0
C1203 C 0.75984 0.54719 0.3488 0.0
H1204 H 0.22045 0.51042 0.36395 0.0
H1205 H 0.26368 0.57171 0.31619 0.0
H1206 H 0.21832 0.48924 0.29522 0.0
H1207 H 0.26144 0.55072 0.24702 0.0
H1208 H 0.21803 0.53211 0.12882 0.0
H1209 H 0.22998 0.54858 0.19669 0.0
H1210 H 0.23861 0.46538 0.23764 0.0
H1211 H 0.22667 0.44883 0.16963 0.0
C1212 C 0.23004 0.5188 0.33894 0.0
C1213 C 0.24238 0.54252 0.34538 0.0
C1214 C 0.22881 0.50673 0.29956 0.0
C1215 C 0.23959 0.51841 0.26556 0.0
C1216 C 0.25284 0.54135 0.27253 0.0
C1217 C 0.25433 0.55318 0.31216 0.0
C1218 C 0.2228 0.51731 0.15205 0.0
C1219 C 0.22124 0.48914 0.14384 0.0
C1220 C 0.22979 0.52677 0.1909 0.0
C1221 C 0.23519 0.50828 0.22264 0.0
C1222 C 0.23444 0.48012 0.21391 0.0
C1223 C 0.22771 0.47066 0.17485 0.0
H1224 H 0.47553 0.8629 0.41655 0.0
H1225 H 0.46647 0.77909 0.37801 0.0
H1226 H 0.48671 0.84736 0.48541 0.0
H1227 H 0.47757 0.7636 0.44683 0.0
H1228 H 0.51044 0.74218 0.56777 0.0
H1229 H 0.50835 0.76163 0.49784 0.0
H1230 H 0.4663 0.82514 0.54355 0.0
H1231 H 0.46841 0.80566 0.61326 0.0
C1232 C 0.47629 0.84115 0.42249 0.0
C1233 C 0.46993 0.82224 0.39184 0.0
C1234 C 0.48257 0.83226 0.46206 0.0
C1235 C 0.48294 0.80425 0.47171 0.0
C1236 C 0.47764 0.78531 0.44037 0.0
C1237 C 0.47113 0.7942 0.40097 0.0
C1238 C 0.5013 0.76078 0.56306 0.0
C1239 C 0.48963 0.77246 0.59598 0.0
C1240 C 0.4999 0.77172 0.52295 0.0
C1241 C 0.48702 0.79481 0.51503 0.0
C1242 C 0.47648 0.80748 0.54857 0.0
C1243 C 0.47765 0.79632 0.58851 0.0
H1244 H 0.51797 0.25925 0.60713 0.0
H1245 H 0.47609 0.3224 0.56035 0.0
H1246 H 0.51959 0.23863 0.53801 0.0
H1247 H 0.47779 0.30192 0.49081 0.0
H1248 H 0.52041 0.28241 0.37219 0.0
H1249 H 0.50893 0.29896 0.44022 0.0
H1250 H 0.49865 0.21588 0.48033 0.0
H1251 H 0.51017 0.19926 0.41228 0.0
C1252 C 0.50859 0.2682 0.58222 0.0
C1253 C 0.4968 0.29228 0.58908 0.0
C1254 C 0.50951 0.25644 0.54263 0.0
C1255 C 0.49893 0.26875 0.50882 0.0
C1256 C 0.48623 0.29208 0.51617 0.0
C1257 C 0.48505 0.30362 0.55601 0.0
C1258 C 0.51538 0.26767 0.39528 0.0
C1259 C 0.51639 0.2395 0.38685 0.0
C1260 C 0.50866 0.27718 0.43421 0.0
C1261 C 0.50296 0.25873 0.46578 0.0
C1262 C 0.50309 0.2306 0.45677 0.0
C1263 C 0.50957 0.2211 0.41767 0.0
H1264 H 0.08979 0.15177 0.86378 0.0
H1265 H 0.11387 0.21905 0.93714 0.0
H1266 H 0.11877 0.12294 0.88924 0.0
H1267 H 0.14211 0.18978 0.96536 0.0
H1268 H 0.20777 0.14919 0.93993 0.0
H1269 H 0.17419 0.17443 0.93826 0.0
H1270 H 0.13857 0.09831 0.93719 0.0
H1271 H 0.17258 0.07317 0.93653 0.0
C1272 C 0.10078 0.15999 0.88684 0.0
C1273 C 0.09983 0.18762 0.89822 0.0
C1274 C 0.11745 0.14343 0.90165 0.0
C1275 C 0.13321 0.15409 0.92885 0.0
C1276 C 0.13076 0.18107 0.94343 0.0
C1277 C 0.11444 0.19779 0.92772 0.0
C1278 C 0.19273 0.1379 0.94032 0.0
C1279 C 0.19272 0.1093 0.93802 0.0
C1280 C 0.17336 0.15236 0.93958 0.0
C1281 C 0.15345 0.13852 0.9372 0.0
C1282 C 0.15351 0.10974 0.938 0.0
C1283 C 0.17296 0.09529 0.93793 0.0
H1284 H 0.78426 0.91563 0.96095 0.0
H1285 H 0.81947 0.99172 0.96323 0.0
H1286 H 0.81773 0.89047 0.964 0.0
H1287 H 0.85338 0.96649 0.96801 0.0
H1288 H 0.90107 0.91249 0.89099 0.0
H1289 H 0.87327 0.942 0.91907 0.0
H1290 H 0.84958 0.8751 0.99389 0.0
H1291 H 0.87674 0.84518 0.96337 0.0
C1292 C 0.79919 0.92699 0.96374 0.0
C1293 C 0.79929 0.95561 0.96139 0.0
C1294 C 0.81852 0.91254 0.96571 0.0
C1295 C 0.83845 0.92636 0.9658 0.0
C1296 C 0.8384 0.95513 0.96703 0.0
C1297 C 0.81901 0.96961 0.96449 0.0
C1298 C 0.89031 0.90435 0.91437 0.0
C1299 C 0.89066 0.87649 0.9244 0.0
C1300 C 0.87435 0.92133 0.93075 0.0
C1301 C 0.85869 0.91081 0.95802 0.0
C1302 C 0.86088 0.88368 0.97189 0.0
C1303 C 0.87655 0.86657 0.95477 0.0
H1304 H 0.04153 0.35775 0.23703 0.0
H1305 H 0.04513 0.35741 0.10274 0.0
H1306 H 0.07585 0.38276 0.23981 0.0
H1307 H 0.07972 0.38013 0.10626 0.0
H1308 H 0.14912 0.39891 0.12526 0.0
H1309 H 0.12013 0.36775 0.14557 0.0
H1310 H 0.08481 0.43525 0.19833 0.0
H1311 H 0.1135 0.4666 0.1771 0.0
C1312 C 0.04959 0.36265 0.20822 0.0
C1313 C 0.0405 0.35514 0.16965 0.0
C1314 C 0.06932 0.37665 0.20997 0.0
C1315 C 0.08049 0.38268 0.17329 0.0
C1316 C 0.07162 0.37499 0.135 0.0
C1317 C 0.05179 0.36177 0.13314 0.0
C1318 C 0.13558 0.40692 0.14268 0.0
C1319 C 0.13333 0.43513 0.14921 0.0
C1320 C 0.11905 0.38911 0.15426 0.0
C1321 C 0.10034 0.39925 0.17334 0.0
C1322 C 0.0992 0.42701 0.18399 0.0
C1323 C 0.11554 0.4449 0.1717 0.0
H1324 H 0.93356 0.71906 0.1265 0.0
H1325 H 0.94422 0.70299 0.25712 0.0
H1326 H 0.89993 0.69459 0.12925 0.0
H1327 H 0.91066 0.67632 0.25858 0.0
H1328 H 0.8352 0.66288 0.14277 0.0
H1329 H 0.86196 0.69599 0.16722 0.0
H1330 H 0.90121 0.63024 0.21456 0.0
H1331 H 0.87461 0.59711 0.18975 0.0
C1332 C 0.92856 0.71107 0.15626 0.0
C1333 C 0.94166 0.71366 0.19186 0.0
C1334 C 0.90919 0.69682 0.15765 0.0
C1335 C 0.90254 0.68401 0.19427 0.0
C1336 C 0.91539 0.68636 0.23008 0.0
C1337 C 0.93468 0.70137 0.22903 0.0
C1338 C 0.84913 0.65559 0.15981 0.0
C1339 C 0.8531 0.62751 0.16377 0.0
C1340 C 0.86441 0.67451 0.17378 0.0
C1341 C 0.88368 0.66556 0.19235 0.0
C1342 C 0.88643 0.63764 0.20056 0.0
C1343 C 0.87128 0.6187 0.18613 0.0
H1344 H 0.19412 0.60784 0.49389 0.0
H1345 H 0.18819 0.60276 0.36004 0.0
H1346 H 0.16035 0.63396 0.49628 0.0
H1347 H 0.15414 0.62648 0.36342 0.0
H1348 H 0.08637 0.65018 0.38172 0.0
H1349 H 0.1142 0.61801 0.40425 0.0
H1350 H 0.15229 0.68492 0.45187 0.0
H1351 H 0.12474 0.71722 0.4285 0.0
C1352 C 0.18563 0.61185 0.46514 0.0
C1353 C 0.19396 0.60275 0.4268 0.0
C1354 C 0.16621 0.62649 0.46671 0.0
C1355 C 0.15456 0.63155 0.43014 0.0
C1356 C 0.16258 0.6221 0.39216 0.0
C1357 C 0.18212 0.60828 0.39039 0.0
C1358 C 0.10026 0.65791 0.39851 0.0
C1359 C 0.10364 0.68612 0.4029 0.0
C1360 C 0.11613 0.63952 0.4114 0.0
C1361 C 0.13529 0.64914 0.42961 0.0
C1362 C 0.13753 0.67709 0.43826 0.0
C1363 C 0.12185 0.69552 0.42469 0.0
H1364 H 0.90299 0.41501 0.40754 0.0
H1365 H 0.86033 0.35318 0.4562 0.0
H1366 H 0.87786 0.45049 0.43002 0.0
H1367 H 0.83534 0.38869 0.47902 0.0
H1368 H 0.79371 0.4621 0.5142 0.0
H1369 H 0.82707 0.43556 0.51965 0.0
H1370 H 0.84071 0.4518 0.39083 0.0
H1371 H 0.80722 0.47604 0.38401 0.0
C1372 C 0.88871 0.40907 0.42461 0.0
C1373 C 0.88332 0.3814 0.42944 0.0
C1374 C 0.87435 0.42937 0.43745 0.0
C1375 C 0.85459 0.42225 0.45574 0.0
C1376 C 0.85051 0.39472 0.46517 0.0
C1377 C 0.86475 0.3744 0.4519 0.0
C1378 C 0.80384 0.46016 0.48703 0.0
C1379 C 0.79745 0.47137 0.4486 0.0
C1380 C 0.82305 0.44522 0.49041 0.0
C1381 C 0.83652 0.44196 0.4558 0.0
C1382 C 0.83088 0.45455 0.41831 0.0
C1383 C 0.81155 0.46872 0.41457 0.0
H1384 H 0.03025 0.89402 0.69541 0.0
H1385 H 0.06668 0.81904 0.69097 0.0
H1386 H 0.06332 0.9202 0.69464 0.0
H1387 H 0.10028 0.84517 0.6927 0.0
H1388 H 0.14762 0.90073 0.61938 0.0
H1389 H 0.1198 0.87055 0.64584 0.0
H1390 H 0.09496 0.93662 0.7215 0.0
H1391 H 0.12187 0.96721 0.69198 0.0
C1392 C 0.04547 0.88314 0.69579 0.0
C1393 C 0.04596 0.85457 0.69291 0.0
C1394 C 0.06457 0.89816 0.69563 0.0
C1395 C 0.08471 0.88494 0.69328 0.0
C1396 C 0.08514 0.85615 0.69351 0.0
C1397 C 0.06594 0.84113 0.69282 0.0
C1398 C 0.13654 0.90851 0.64253 0.0
C1399 C 0.13656 0.93627 0.65324 0.0
C1400 C 0.12055 0.89117 0.65795 0.0
C1401 C 0.10461 0.90121 0.68514 0.0
C1402 C 0.10638 0.92836 0.69943 0.0
C1403 C 0.12195 0.94585 0.683 0.0
H1404 H 0.83344 0.15654 0.66732 0.0
H1405 H 0.87909 0.09382 0.70114 0.0
H1406 H 0.85879 0.19155 0.69092 0.0
H1407 H 0.90431 0.12887 0.72523 0.0
H1408 H 0.92723 0.22041 0.63635 0.0
H1409 H 0.8947 0.19438 0.64509 0.0
H1410 H 0.91289 0.17518 0.77097 0.0
H1411 H 0.94524 0.20361 0.76384 0.0
C1412 C 0.84848 0.1502 0.6815 0.0
C1413 C 0.85457 0.12258 0.68164 0.0
C1414 C 0.86294 0.17022 0.69504 0.0
C1415 C 0.88353 0.16283 0.7094 0.0
C1416 C 0.88848 0.13505 0.71448 0.0
C1417 C 0.87411 0.11502 0.70046 0.0
C1418 C 0.9241 0.21202 0.66678 0.0
C1419 C 0.93909 0.21459 0.6995 0.0
C1420 C 0.90533 0.19683 0.67161 0.0
C1421 C 0.90121 0.18304 0.70881 0.0
C1422 C 0.91572 0.18585 0.74206 0.0
C1423 C 0.93434 0.20186 0.73768 0.0
H1424 H 0.69167 0.10777 0.35586 0.0
H1425 H 0.69348 0.10736 0.4903 0.0
H1426 H 0.65704 0.1304 0.35765 0.0
H1427 H 0.65911 0.13226 0.4914 0.0
H1428 H 0.58749 0.14851 0.37246 0.0
H1429 H 0.61609 0.11739 0.39494 0.0
H1430 H 0.65074 0.18505 0.44939 0.0
H1431 H 0.62246 0.21634 0.42605 0.0
C1432 C 0.6846 0.11197 0.3859 0.0
C1433 C 0.69538 0.10514 0.42297 0.0
C1434 C 0.66475 0.12512 0.38678 0.0
C1435 C 0.65536 0.13252 0.42464 0.0
C1436 C 0.66604 0.12634 0.46188 0.0
C1437 C 0.68579 0.11242 0.4611 0.0
C1438 C 0.60075 0.15655 0.39075 0.0
C1439 C 0.60301 0.18478 0.39713 0.0
C1440 C 0.61706 0.13877 0.40357 0.0
C1441 C 0.6355 0.14898 0.42371 0.0
C1442 C 0.63654 0.17676 0.43425 0.0
C1443 C 0.62044 0.19462 0.42074 0.0
H1444 H 0.31607 0.99531 0.4449 0.0
H1445 H 0.28052 0.91955 0.44966 0.0
H1446 H 0.34995 0.9698 0.44525 0.0
H1447 H 0.31384 0.8941 0.44821 0.0
H1448 H 0.37279 0.84828 0.44337 0.0
H1449 H 0.34619 0.87868 0.47447 0.0
H1450 H 0.36865 0.94441 0.39589 0.0
H1451 H 0.39614 0.91439 0.36742 0.0
C1452 C 0.31556 0.97322 0.44673 0.0
C1453 C 0.2957 0.9594 0.44709 0.0
C1454 C 0.33493 0.95856 0.44666 0.0
C1455 C 0.33479 0.92978 0.44621 0.0
C1456 C 0.31484 0.91617 0.44928 0.0
C1457 C 0.29557 0.9308 0.44995 0.0
C1458 C 0.37244 0.86953 0.43398 0.0
C1459 C 0.38623 0.87902 0.40278 0.0
C1460 C 0.35706 0.88691 0.45141 0.0
C1461 C 0.35471 0.91387 0.43686 0.0
C1462 C 0.3699 0.92391 0.40818 0.0
C1463 C 0.38567 0.90667 0.39161 0.0
H1464 H 0.55348 0.34766 0.60763 0.0
H1465 H 0.54546 0.35511 0.74078 0.0
H1466 H 0.58778 0.37058 0.61247 0.0
H1467 H 0.57956 0.38048 0.74452 0.0
H1468 H 0.6155 0.46297 0.67964 0.0
H1469 H 0.5884 0.42995 0.70238 0.0
H1470 H 0.62687 0.36426 0.65254 0.0
H1471 H 0.65425 0.39719 0.63057 0.0
C1472 C 0.55914 0.35343 0.63821 0.0
C1473 C 0.54656 0.34895 0.67393 0.0
C1474 C 0.57888 0.3668 0.64082 0.0
C1475 C 0.58639 0.37685 0.67892 0.0
C1476 C 0.57411 0.37256 0.71485 0.0
C1477 C 0.55448 0.35836 0.7125 0.0
C1478 C 0.61859 0.44137 0.67521 0.0
C1479 C 0.63674 0.43256 0.65291 0.0
C1480 C 0.60316 0.42251 0.68842 0.0
C1481 C 0.60557 0.3947 0.67888 0.0
C1482 C 0.62476 0.38565 0.6603 0.0
C1483 C 0.64038 0.40447 0.64775 0.0
H1484 H 0.33472 0.66312 0.64486 0.0
H1485 H 0.37751 0.59977 0.68847 0.0
H1486 H 0.36056 0.69781 0.66771 0.0
H1487 H 0.40315 0.63453 0.71194 0.0
H1488 H 0.43168 0.72222 0.62042 0.0
H1489 H 0.39828 0.69758 0.62631 0.0
H1490 H 0.41103 0.6822 0.7558 0.0
H1491 H 0.44421 0.70928 0.75135 0.0
C1492 C 0.3492 0.65666 0.66094 0.0
C1493 C 0.35438 0.62883 0.66427 0.0
C1494 C 0.36394 0.6765 0.67403 0.0
C1495 C 0.38385 0.66874 0.69121 0.0
C1496 C 0.38784 0.641 0.69903 0.0
C1497 C 0.37324 0.62113 0.68539 0.0
C1498 C 0.42717 0.71499 0.65089 0.0
C1499 C 0.44091 0.71819 0.6855 0.0
C1500 C 0.40792 0.70058 0.65407 0.0
C1501 C 0.40204 0.68823 0.69156 0.0
C1502 C 0.41524 0.69174 0.7266 0.0
C1503 C 0.43435 0.70697 0.72379 0.0
H1504 H 0.61693 0.71518 0.94479 0.0
H1505 H 0.59258 0.6478 0.87193 0.0
H1506 H 0.64435 0.68546 0.97481 0.0
H1507 H 0.62076 0.6185 0.89921 0.0
H1508 H 0.67406 0.56824 0.9462 0.0
H1509 H 0.64022 0.59378 0.94738 0.0
H1510 H 0.67641 0.66947 0.94868 0.0
H1511 H 0.70975 0.64389 0.9498 0.0
C1512 C 0.61725 0.69383 0.93584 0.0
C1513 C 0.60289 0.68379 0.90577 0.0
C1514 C 0.63311 0.67682 0.95261 0.0
C1515 C 0.63533 0.64967 0.93862 0.0
C1516 C 0.61966 0.63915 0.91112 0.0
C1517 C 0.60347 0.656 0.8952 0.0
C1518 C 0.6746 0.59034 0.94785 0.0
C1519 C 0.69447 0.60412 0.94775 0.0
C1520 C 0.65525 0.60503 0.94821 0.0
C1521 C 0.65539 0.63383 0.94749 0.0
C1522 C 0.6754 0.64741 0.94994 0.0
C1523 C 0.69466 0.63273 0.95037 0.0
H1524 H 0.37233 0.34309 0.95037 0.0
H1525 H 0.39868 0.41191 0.88415 0.0
H1526 H 0.34494 0.37263 0.98097 0.0
H1527 H 0.37065 0.4411 0.9121 0.0
H1528 H 0.31712 0.49098 0.9574 0.0
H1529 H 0.35058 0.46473 0.96102 0.0
H1530 H 0.31364 0.38984 0.9522 0.0
H1531 H 0.28059 0.41604 0.95074 0.0
C1532 C 0.37249 0.3647 0.94311 0.0
C1533 C 0.38732 0.37522 0.91451 0.0
C1534 C 0.35668 0.3816 0.96023 0.0
C1535 C 0.35505 0.40916 0.94811 0.0
C1536 C 0.37128 0.42011 0.92249 0.0
C1537 C 0.38738 0.40332 0.90618 0.0
C1538 C 0.31629 0.46887 0.95738 0.0
C1539 C 0.29635 0.45551 0.95353 0.0
C1540 C 0.33543 0.45379 0.95919 0.0
C1541 C 0.33499 0.42507 0.95625 0.0
C1542 C 0.31482 0.41182 0.95521 0.0
C1543 C 0.29574 0.42687 0.95414 0.0
H1544 H 0.52896 0.89472 0.19046 0.0
H1545 H 0.56562 0.82009 0.1989 0.0
H1546 H 0.56199 0.92106 0.18997 0.0
H1547 H 0.59907 0.84649 0.20087 0.0
H1548 H 0.64822 0.8982 0.12543 0.0
H1549 H 0.61962 0.86941 0.15249 0.0
H1550 H 0.59298 0.93902 0.21779 0.0
H1551 H 0.6208 0.96804 0.18772 0.0
C1552 C 0.54416 0.88404 0.19381 0.0
C1553 C 0.5448 0.85541 0.19439 0.0
C1554 C 0.56323 0.89916 0.19377 0.0
C1555 C 0.58344 0.88601 0.19497 0.0
C1556 C 0.58391 0.85735 0.19886 0.0
C1557 C 0.56478 0.84219 0.19808 0.0
C1558 C 0.63654 0.9071 0.14647 0.0
C1559 C 0.63641 0.9353 0.15406 0.0
C1560 C 0.62011 0.89058 0.16224 0.0
C1561 C 0.60351 0.90192 0.18666 0.0
C1562 C 0.60496 0.9297 0.1979 0.0
C1563 C 0.62103 0.94631 0.18114 0.0
H1564 H 0.44564 0.1993 0.24822 0.0
H1565 H 0.43307 0.21544 0.11818 0.0
H1566 H 0.4127 0.17147 0.25088 0.0
H1567 H 0.39991 0.18999 0.1224 0.0
H1568 H 0.37732 0.09197 0.17492 0.0
H1569 H 0.4042 0.1246 0.20039 0.0
H1570 H 0.362 0.19128 0.16799 0.0
H1571 H 0.33489 0.15869 0.14328 0.0
C1572 C 0.43583 0.19746 0.22052 0.0
C1573 C 0.44212 0.21009 0.18312 0.0
C1574 C 0.41689 0.18179 0.2223 0.0
C1575 C 0.40366 0.17921 0.1871 0.0
C1576 C 0.40955 0.19238 0.1503 0.0
C1577 C 0.42861 0.20722 0.14811 0.0
C1578 C 0.37344 0.11355 0.17488 0.0
C1579 C 0.35424 0.12293 0.15663 0.0
C1580 C 0.38874 0.13216 0.1897 0.0
C1581 C 0.38512 0.16033 0.18585 0.0
C1582 C 0.36504 0.1696 0.17136 0.0
C1583 C 0.34959 0.15098 0.15719 0.0
loop_
_geom_bond_atom_site_label_1
_geom_bond_atom_site_label_2
_geom_bond_distance
_geom_bond_site_symmetry_2
_ccdc_geom_bond_type
O0 Tb1 2.292 . S
O0 C3 1.255 . S
Tb1 O0 2.292 . S
Tb1 O17 2.326 . S
Tb1 O19 2.500 . S
Tb1 O20 2.473 . S
Tb1 O23 2.324 1_554 S
Eu2 O6 2.292 . S
Eu2 C7 2.852 1_554 S
Eu2 O18 2.324 . S
Eu2 O22 2.326 1_554 S
Eu2 O24 2.500 1_554 S
Eu2 O25 2.473 . S
C3 O0 1.255 . S
C3 O4 1.249 . S
O4 C3 1.249 . S
C5 O17 1.242 . S
C5 O18 1.258 . S
O6 Eu2 2.292 . S
O6 C8 1.255 . S
C7 Eu2 2.852 1_556 S
C7 C11 1.503 . S
C7 O24 1.273 . S
C7 O25 1.257 1_556 S
C8 O6 1.255 . S
C8 O9 1.247 . S
O9 C8 1.247 . S
C10 O22 1.242 . S
C10 O23 1.258 . S
C11 C7 1.503 . S
C11 C12 1.379 . S
C11 C16 1.392 . S
C12 C11 1.379 . S
C12 C13 1.404 . S
C12 H26 0.929 . S
C13 C12 1.404 . S
C13 C14 1.389 . S
C14 C13 1.389 . S
C14 C15 1.399 . S
C14 H27 0.931 . S
C15 C14 1.399 . S
C15 C16 1.390 . S
C16 C11 1.392 . S
C16 C15 1.390 . S
C16 H28 0.929 . S
O17 Tb1 2.326 . S
O17 C5 1.242 . S
O18 Eu2 2.324 . S
O18 C5 1.258 . S
O19 Tb1 2.500 . S
O19 C21 1.273 . S
O20 Tb1 2.473 . S
O20 C21 1.257 . S
C21 O19 1.273 . S
C21 O20 1.257 . S
O22 Eu2 2.326 1_556 S
O22 C10 1.242 . S
O23 Tb1 2.324 1_556 S
O23 C10 1.258 . S
O24 Eu2 2.500 1_556 S
O24 C7 1.273 . S
O25 Eu2 2.473 . S
O25 C7 1.257 1_554 S
H26 C12 0.929 . S
H27 C14 0.931 . S
H28 C16 0.929 . S
O29 Tb30 2.292 . S
O29 C32 1.255 . S
Tb30 O29 2.292 . S
Tb30 O46 2.326 . S
Tb30 O48 2.500 . S
Tb30 O49 2.473 . S
Tb30 O52 2.324 1_554 S
Eu31 O35 2.292 . S
Eu31 C36 2.852 1_554 S
Eu31 O47 2.324 . S
Eu31 O51 2.326 1_554 S
Eu31 O53 2.500 1_554 S
Eu31 O54 2.473 . S
C32 O29 1.255 . S
C32 O33 1.249 . S
O33 C32 1.249 . S
C34 O46 1.242 . S
C34 O47 1.258 . S
O35 Eu31 2.292 . S
O35 C37 1.255 . S
C36 Eu31 2.852 1_556 S
C36 C40 1.503 . S
C36 O53 1.273 . S
C36 O54 1.257 1_556 S
C37 O35 1.255 . S
C37 O38 1.247 . S
O38 C37 1.247 . S
C39 O51 1.242 . S
C39 O52 1.258 . S
C40 C36 1.503 . S
C40 C41 1.379 . S
C40 C45 1.392 . S
C41 C40 1.379 . S
C41 C42 1.404 . S
C41 H55 0.929 . S
C42 C41 1.404 . S
C42 C43 1.389 . S
C43 C42 1.389 . S
C43 C44 1.399 . S
C43 H56 0.931 . S
C44 C43 1.399 . S
C44 C45 1.390 . S
C45 C40 1.392 . S
C45 C44 1.390 . S
C45 H57 0.929 . S
O46 Tb30 2.326 . S
O46 C34 1.242 . S
O47 Eu31 2.324 . S
O47 C34 1.258 . S
O48 Tb30 2.500 . S
O48 C50 1.273 . S
O49 Tb30 2.473 . S
O49 C50 1.257 . S
C50 O48 1.273 . S
C50 O49 1.257 . S
O51 Eu31 2.326 1_556 S
O51 C39 1.242 . S
O52 Tb30 2.324 1_556 S
O52 C39 1.258 . S
O53 Eu31 2.500 1_556 S
O53 C36 1.273 . S
O54 Eu31 2.473 . S
O54 C36 1.257 1_554 S
H55 C41 0.929 . S
H56 C43 0.931 . S
H57 C45 0.929 . S
O58 Tb59 2.292 . S
O58 C61 1.255 . S
Tb59 O58 2.292 . S
Tb59 O75 2.326 . S
Tb59 O77 2.500 . S
Tb59 O78 2.473 . S
Tb59 O81 2.324 . S
Eu60 O64 2.292 . S
Eu60 C65 2.852 . S
Eu60 O76 2.324 . S
Eu60 O80 2.326 . S
Eu60 O82 2.491 1_655 S
Eu60 O83 2.473 . S
C61 O58 1.255 . S
C61 O62 1.247 . S
O62 C61 1.247 . S
C63 O75 1.242 . S
C63 O76 1.258 . S
O64 Eu60 2.292 . S
O64 C66 1.255 . S
C65 Eu60 2.852 . S
C65 C69 1.503 1_655 S
C65 O82 1.270 1_655 S
C65 O83 1.257 . S
C66 O64 1.255 . S
C66 O67 1.247 . S
O67 C66 1.247 . S
C68 O80 1.242 . S
C68 O81 1.258 . S
C69 C65 1.503 1_455 S
C69 C70 1.379 1_455 S
C69 C74 1.392 . S
C70 C69 1.379 1_655 S
C70 C71 1.404 1_655 S
C70 H84 0.929 . S
C71 C70 1.404 1_455 S
C71 C72 1.389 . S
C72 C71 1.389 . S
C72 C73 1.399 . S
C72 H85 0.931 . S
C73 C72 1.399 . S
C73 C74 1.390 . S
C74 C69 1.392 . S
C74 C73 1.390 . S
C74 H86 0.929 . S
O75 Tb59 2.326 . S
O75 C63 1.242 . S
O76 Eu60 2.324 . S
O76 C63 1.258 . S
O77 Tb59 2.500 . S
O77 C79 1.273 . S
O78 Tb59 2.473 . S
O78 C79 1.257 . S
C79 O77 1.273 . S
C79 O78 1.257 . S
O80 Eu60 2.326 . S
O80 C68 1.242 . S
O81 Tb59 2.324 . S
O81 C68 1.258 . S
O82 Eu60 2.491 1_455 S
O82 C65 1.270 1_455 S
O83 Eu60 2.473 . S
O83 C65 1.257 . S
H84 C70 0.929 . S
H85 C72 0.931 . S
H86 C74 0.929 . S
O87 Tb88 2.292 . S
O87 C90 1.255 . S
Tb88 O87 2.292 . S
Tb88 O104 2.326 . S
Tb88 O106 2.500 . S
Tb88 O107 2.473 . S
Tb88 O110 2.324 . S
Eu89 O93 2.292 . S
Eu89 C94 2.852 . S
Eu89 O105 2.324 . S
Eu89 O109 2.326 . S
Eu89 O111 2.491 1_455 S
Eu89 O112 2.473 . S
C90 O87 1.255 . S
C90 O91 1.247 . S
O91 C90 1.247 . S
C92 O104 1.242 . S
C92 O105 1.258 . S
O93 Eu89 2.292 . S
O93 C95 1.255 . S
C94 Eu89 2.852 . S
C94 C98 1.503 1_455 S
C94 O111 1.270 1_455 S
C94 O112 1.257 . S
C95 O93 1.255 . S
C95 O96 1.247 . S
O96 C95 1.247 . S
C97 O109 1.242 . S
C97 O110 1.258 . S
C98 C94 1.503 1_655 S
C98 C99 1.379 1_655 S
C98 C103 1.392 . S
C99 C98 1.379 1_455 S
C99 C100 1.404 1_455 S
C99 H113 0.929 . S
C100 C99 1.404 1_655 S
C100 C101 1.389 . S
C101 C100 1.389 . S
C101 C102 1.399 . S
C101 H114 0.931 . S
C102 C101 1.399 . S
C102 C103 1.390 . S
C103 C98 1.392 . S
C103 C102 1.390 . S
C103 H115 0.929 . S
O104 Tb88 2.326 . S
O104 C92 1.242 . S
O105 Eu89 2.324 . S
O105 C92 1.258 . S
O106 Tb88 2.500 . S
O106 C108 1.273 . S
O107 Tb88 2.473 . S
O107 C108 1.257 . S
C108 O106 1.273 . S
C108 O107 1.257 . S
O109 Eu89 2.326 . S
O109 C97 1.242 . S
O110 Tb88 2.324 . S
O110 C97 1.258 . S
O111 Eu89 2.491 1_655 S
O111 C94 1.270 1_655 S
O112 Eu89 2.473 . S
O112 C94 1.257 . S
H113 C99 0.929 . S
H114 C101 0.931 . S
H115 C103 0.929 . S
O116 Tb117 2.292 . S
O116 C119 1.255 . S
Tb117 O116 2.292 . S
Tb117 O133 2.326 . S
Tb117 O135 2.500 . S
Tb117 O136 2.473 . S
Tb117 O139 2.324 . S
Eu118 O122 2.292 . S
Eu118 C123 2.852 . S
Eu118 O134 2.324 . S
Eu118 O138 2.326 . S
Eu118 O140 2.500 . S
Eu118 O141 2.473 . S
C119 O116 1.255 . S
C119 O120 1.247 . S
O120 C119 1.247 . S
C121 O133 1.242 . S
C121 O134 1.258 . S
O122 Eu118 2.292 . S
O122 C124 1.255 . S
C123 Eu118 2.852 . S
C123 C127 1.503 . S
C123 O140 1.273 . S
C123 O141 1.257 . S
C124 O122 1.255 . S
C124 O125 1.247 . S
O125 C124 1.247 . S
C126 O138 1.242 . S
C126 O139 1.258 . S
C127 C123 1.503 . S
C127 C128 1.379 . S
C127 C132 1.392 . S
C128 C127 1.379 . S
C128 C129 1.404 . S
C128 H142 0.929 . S
C129 C128 1.404 . S
C129 C130 1.389 . S
C130 C129 1.389 . S
C130 C131 1.399 . S
C130 H143 0.931 . S
C131 C130 1.399 . S
C131 C132 1.390 . S
C132 C127 1.392 . S
C132 C131 1.390 . S
C132 H144 0.929 . S
O133 Tb117 2.326 . S
O133 C121 1.242 . S
O134 Eu118 2.324 . S
O134 C121 1.258 . S
O135 Tb117 2.500 . S
O135 C137 1.273 . S
O136 Tb117 2.473 . S
O136 C137 1.257 . S
C137 O135 1.273 . S
C137 O136 1.257 . S
O138 Eu118 2.326 . S
O138 C126 1.242 . S
O139 Tb117 2.324 . S
O139 C126 1.258 . S
O140 Eu118 2.500 . S
O140 C123 1.273 . S
O141 Eu118 2.473 . S
O141 C123 1.257 . S
H142 C128 0.929 . S
H143 C130 0.931 . S
H144 C132 0.929 . S
O145 Tb146 2.292 . S
O145 C148 1.255 . S
Tb146 O145 2.292 . S
Tb146 O162 2.326 . S
Tb146 O164 2.500 . S
Tb146 O165 2.473 . S
Tb146 O168 2.324 . S
Eu147 O151 2.292 . S
Eu147 C152 2.852 . S
Eu147 O163 2.324 . S
Eu147 O167 2.326 . S
Eu147 O169 2.500 . S
Eu147 O170 2.473 . S
C148 O145 1.255 . S
C148 O149 1.247 . S
O149 C148 1.247 . S
C150 O162 1.242 . S
C150 O163 1.258 . S
O151 Eu147 2.292 . S
O151 C153 1.255 . S
C152 Eu147 2.852 . S
C152 C156 1.503 . S
C152 O169 1.273 . S
C152 O170 1.257 . S
C153 O151 1.255 . S
C153 O154 1.247 . S
O154 C153 1.247 . S
C155 O167 1.242 . S
C155 O168 1.258 . S
C156 C152 1.503 . S
C156 C157 1.379 . S
C156 C161 1.392 . S
C157 C156 1.379 . S
C157 C158 1.404 . S
C157 H171 0.929 . S
C158 C157 1.404 . S
C158 C159 1.389 . S
C159 C158 1.389 . S
C159 C160 1.399 . S
C159 H172 0.931 . S
C160 C159 1.399 . S
C160 C161 1.390 . S
C161 C156 1.392 . S
C161 C160 1.390 . S
C161 H173 0.929 . S
O162 Tb146 2.326 . S
O162 C150 1.242 . S
O163 Eu147 2.324 . S
O163 C150 1.258 . S
O164 Tb146 2.500 . S
O164 C166 1.273 . S
O165 Tb146 2.473 . S
O165 C166 1.257 . S
C166 O164 1.273 . S
C166 O165 1.257 . S
O167 Eu147 2.326 . S
O167 C155 1.242 . S
O168 Tb146 2.324 . S
O168 C155 1.258 . S
O169 Eu147 2.500 . S
O169 C152 1.273 . S
O170 Eu147 2.473 . S
O170 C152 1.257 . S
H171 C157 0.929 . S
H172 C159 0.931 . S
H173 C161 0.929 . S
O174 Tb175 2.292 . S
O174 C177 1.255 . S
Tb175 O174 2.292 . S
Tb175 O191 2.326 . S
Tb175 O193 2.500 . S
Tb175 O194 2.473 . S
Tb175 O197 2.324 . S
Eu176 O180 2.292 . S
Eu176 C181 2.852 . S
Eu176 O192 2.324 . S
Eu176 O196 2.326 . S
Eu176 O198 2.491 1_655 S
Eu176 O199 2.473 . S
C177 O174 1.255 . S
C177 O178 1.247 . S
O178 C177 1.247 . S
C179 O191 1.242 . S
C179 O192 1.258 . S
O180 Eu176 2.292 . S
O180 C182 1.255 . S
C181 Eu176 2.852 . S
C181 C185 1.503 1_655 S
C181 O198 1.270 1_655 S
C181 O199 1.257 . S
C182 O180 1.255 . S
C182 O183 1.247 . S
O183 C182 1.247 . S
C184 O196 1.242 . S
C184 O197 1.258 . S
C185 C181 1.503 1_455 S
C185 C186 1.379 1_455 S
C185 C190 1.392 . S
C186 C185 1.379 1_655 S
C186 C187 1.404 1_655 S
C186 H200 0.929 . S
C187 C186 1.404 1_455 S
C187 C188 1.389 . S
C188 C187 1.389 . S
C188 C189 1.399 . S
C188 H201 0.931 . S
C189 C188 1.399 . S
C189 C190 1.390 . S
C190 C185 1.392 . S
C190 C189 1.390 . S
C190 H202 0.929 . S
O191 Tb175 2.326 . S
O191 C179 1.242 . S
O192 Eu176 2.324 . S
O192 C179 1.258 . S
O193 Tb175 2.500 . S
O193 C195 1.273 . S
O194 Tb175 2.473 . S
O194 C195 1.257 . S
C195 O193 1.273 . S
C195 O194 1.257 . S
O196 Eu176 2.326 . S
O196 C184 1.242 . S
O197 Tb175 2.324 . S
O197 C184 1.258 . S
O198 Eu176 2.491 1_455 S
O198 C181 1.270 1_455 S
O199 Eu176 2.473 . S
O199 C181 1.257 . S
H200 C186 0.929 . S
H201 C188 0.931 . S
H202 C190 0.929 . S
O203 Tb204 2.292 . S
O203 C206 1.255 . S
Tb204 O203 2.292 . S
Tb204 O220 2.326 . S
Tb204 O222 2.500 . S
Tb204 O223 2.473 . S
Tb204 O226 2.324 . S
Eu205 O209 2.292 . S
Eu205 C210 2.852 . S
Eu205 O221 2.324 . S
Eu205 O225 2.326 . S
Eu205 O227 2.491 1_455 S
Eu205 O228 2.473 . S
C206 O203 1.255 . S
C206 O207 1.247 . S
O207 C206 1.247 . S
C208 O220 1.242 . S
C208 O221 1.258 . S
O209 Eu205 2.292 . S
O209 C211 1.255 . S
C210 Eu205 2.852 . S
C210 C214 1.503 1_455 S
C210 O227 1.270 1_455 S
C210 O228 1.257 . S
C211 O209 1.255 . S
C211 O212 1.247 . S
O212 C211 1.247 . S
C213 O225 1.242 . S
C213 O226 1.258 . S
C214 C210 1.503 1_655 S
C214 C215 1.379 1_655 S
C214 C219 1.392 . S
C215 C214 1.379 1_455 S
C215 C216 1.404 1_455 S
C215 H229 0.929 . S
C216 C215 1.404 1_655 S
C216 C217 1.389 . S
C217 C216 1.389 . S
C217 C218 1.399 . S
C217 H230 0.931 . S
C218 C217 1.399 . S
C218 C219 1.390 . S
C219 C214 1.392 . S
C219 C218 1.390 . S
C219 H231 0.929 . S
O220 Tb204 2.326 . S
O220 C208 1.242 . S
O221 Eu205 2.324 . S
O221 C208 1.258 . S
O222 Tb204 2.500 . S
O222 C224 1.273 . S
O223 Tb204 2.473 . S
O223 C224 1.257 . S
C224 O222 1.273 . S
C224 O223 1.257 . S
O225 Eu205 2.326 . S
O225 C213 1.242 . S
O226 Tb204 2.324 . S
O226 C213 1.258 . S
O227 Eu205 2.491 1_655 S
O227 C210 1.270 1_655 S
O228 Eu205 2.473 . S
O228 C210 1.257 . S
H229 C215 0.929 . S
H230 C217 0.931 . S
H231 C219 0.929 . S
O232 Tb233 2.292 . S
O232 C235 1.255 . S
Tb233 O232 2.292 . S
Tb233 O249 2.326 . S
Tb233 O251 2.500 . S
Tb233 O252 2.473 . S
Tb233 O255 2.324 . S
Eu234 O238 2.292 . S
Eu234 C239 2.852 . S
Eu234 O250 2.324 . S
Eu234 O254 2.326 . S
Eu234 O256 2.500 . S
Eu234 O257 2.473 . S
C235 O232 1.255 . S
C235 O236 1.249 . S
O236 C235 1.249 . S
C237 O249 1.242 . S
C237 O250 1.258 . S
O238 Eu234 2.292 . S
O238 C240 1.255 . S
C239 Eu234 2.852 . S
C239 C243 1.503 . S
C239 O256 1.273 . S
C239 O257 1.257 . S
C240 O238 1.255 . S
C240 O241 1.247 . S
O241 C240 1.247 . S
C242 O254 1.242 . S
C242 O255 1.258 . S
C243 C239 1.503 . S
C243 C244 1.379 . S
C243 C248 1.392 . S
C244 C243 1.379 . S
C244 C245 1.404 . S
C244 H258 0.929 . S
C245 C244 1.404 . S
C245 C246 1.389 . S
C246 C245 1.389 . S
C246 C247 1.399 . S
C246 H259 0.931 . S
C247 C246 1.399 . S
C247 C248 1.390 . S
C248 C243 1.392 . S
C248 C247 1.390 . S
C248 H260 0.929 . S
O249 Tb233 2.326 . S
O249 C237 1.242 . S
O250 Eu234 2.324 . S
O250 C237 1.258 . S
O251 Tb233 2.500 . S
O251 C253 1.273 . S
O252 Tb233 2.473 . S
O252 C253 1.257 . S
C253 O251 1.273 . S
C253 O252 1.257 . S
O254 Eu234 2.326 . S
O254 C242 1.242 . S
O255 Tb233 2.324 . S
O255 C242 1.258 . S
O256 Eu234 2.500 . S
O256 C239 1.273 . S
O257 Eu234 2.473 . S
O257 C239 1.257 . S
H258 C244 0.929 . S
H259 C246 0.931 . S
H260 C248 0.929 . S
O261 Tb262 2.292 . S
O261 C264 1.255 . S
Tb262 O261 2.292 . S
Tb262 O278 2.326 . S
Tb262 O280 2.500 . S
Tb262 O281 2.473 . S
Tb262 O284 2.324 . S
Eu263 O267 2.292 . S
Eu263 C268 2.852 . S
Eu263 O279 2.324 . S
Eu263 O283 2.326 . S
Eu263 O285 2.500 . S
Eu263 O286 2.473 . S
C264 O261 1.255 . S
C264 O265 1.249 . S
O265 C264 1.249 . S
C266 O278 1.242 . S
C266 O279 1.258 . S
O267 Eu263 2.292 . S
O267 C269 1.255 . S
C268 Eu263 2.852 . S
C268 C272 1.503 . S
C268 O285 1.273 . S
C268 O286 1.257 . S
C269 O267 1.255 . S
C269 O270 1.247 . S
O270 C269 1.247 . S
C271 O283 1.242 . S
C271 O284 1.258 . S
C272 C268 1.503 . S
C272 C273 1.379 . S
C272 C277 1.392 . S
C273 C272 1.379 . S
C273 C274 1.404 . S
C273 H287 0.929 . S
C274 C273 1.404 . S
C274 C275 1.389 . S
C275 C274 1.389 . S
C275 C276 1.399 . S
C275 H288 0.931 . S
C276 C275 1.399 . S
C276 C277 1.390 . S
C277 C272 1.392 . S
C277 C276 1.390 . S
C277 H289 0.929 . S
O278 Tb262 2.326 . S
O278 C266 1.242 . S
O279 Eu263 2.324 . S
O279 C266 1.258 . S
O280 Tb262 2.500 . S
O280 C282 1.273 . S
O281 Tb262 2.473 . S
O281 C282 1.257 . S
C282 O280 1.273 . S
C282 O281 1.257 . S
O283 Eu263 2.326 . S
O283 C271 1.242 . S
O284 Tb262 2.324 . S
O284 C271 1.258 . S
O285 Eu263 2.500 . S
O285 C268 1.273 . S
O286 Eu263 2.473 . S
O286 C268 1.257 . S
H287 C273 0.929 . S
H288 C275 0.931 . S
H289 C277 0.929 . S
O290 Tb291 2.292 . S
O290 C293 1.255 . S
Tb291 O290 2.292 . S
Tb291 O307 2.326 . S
Tb291 O309 2.500 . S
Tb291 O310 2.473 . S
Tb291 O313 2.324 . S
Eu292 O296 2.292 . S
Eu292 C297 2.852 . S
Eu292 O308 2.324 . S
Eu292 O312 2.326 . S
Eu292 O314 2.500 . S
Eu292 O315 2.473 . S
C293 O290 1.255 . S
C293 O294 1.247 . S
O294 C293 1.247 . S
C295 O307 1.242 . S
C295 O308 1.258 . S
O296 Eu292 2.292 . S
O296 C298 1.255 . S
C297 Eu292 2.852 . S
C297 C301 1.503 . S
C297 O314 1.273 . S
C297 O315 1.257 . S
C298 O296 1.255 . S
C298 O299 1.247 . S
O299 C298 1.247 . S
C300 O312 1.242 . S
C300 O313 1.258 . S
C301 C297 1.503 . S
C301 C302 1.379 . S
C301 C306 1.392 . S
C302 C301 1.379 . S
C302 C303 1.404 . S
C302 H316 0.929 . S
C303 C302 1.404 . S
C303 C304 1.389 . S
C304 C303 1.389 . S
C304 C305 1.399 . S
C304 H317 0.931 . S
C305 C304 1.399 . S
C305 C306 1.390 . S
C306 C301 1.392 . S
C306 C305 1.390 . S
C306 H318 0.929 . S
O307 Tb291 2.326 . S
O307 C295 1.242 . S
O308 Eu292 2.324 . S
O308 C295 1.258 . S
O309 Tb291 2.500 . S
O309 C311 1.273 . S
O310 Tb291 2.473 . S
O310 C311 1.257 . S
C311 O309 1.273 . S
C311 O310 1.257 . S
O312 Eu292 2.326 . S
O312 C300 1.242 . S
O313 Tb291 2.324 . S
O313 C300 1.258 . S
O314 Eu292 2.500 . S
O314 C297 1.273 . S
O315 Eu292 2.473 . S
O315 C297 1.257 . S
H316 C302 0.929 . S
H317 C304 0.931 . S
H318 C306 0.929 . S
O319 Tb320 2.292 . S
O319 C322 1.255 . S
Tb320 O319 2.292 . S
Tb320 O336 2.326 . S
Tb320 O338 2.500 . S
Tb320 O339 2.473 . S
Tb320 O342 2.324 . S
Eu321 O325 2.292 . S
Eu321 C326 2.852 . S
Eu321 O337 2.324 . S
Eu321 O341 2.326 . S
Eu321 O343 2.500 . S
Eu321 O344 2.473 . S
C322 O319 1.255 . S
C322 O323 1.247 . S
O323 C322 1.247 . S
C324 O336 1.242 . S
C324 O337 1.258 . S
O325 Eu321 2.292 . S
O325 C327 1.255 . S
C326 Eu321 2.852 . S
C326 C330 1.503 . S
C326 O343 1.273 . S
C326 O344 1.257 . S
C327 O325 1.255 . S
C327 O328 1.247 . S
O328 C327 1.247 . S
C329 O341 1.242 . S
C329 O342 1.258 . S
C330 C326 1.503 . S
C330 C331 1.379 . S
C330 C335 1.392 . S
C331 C330 1.379 . S
C331 C332 1.404 . S
C331 H345 0.929 . S
C332 C331 1.404 . S
C332 C333 1.389 . S
C333 C332 1.389 . S
C333 C334 1.399 . S
C333 H346 0.931 . S
C334 C333 1.399 . S
C334 C335 1.390 . S
C335 C330 1.392 . S
C335 C334 1.390 . S
C335 H347 0.929 . S
O336 Tb320 2.326 . S
O336 C324 1.242 . S
O337 Eu321 2.324 . S
O337 C324 1.258 . S
O338 Tb320 2.500 . S
O338 C340 1.273 . S
O339 Tb320 2.473 . S
O339 C340 1.257 . S
C340 O338 1.273 . S
C340 O339 1.257 . S
O341 Eu321 2.326 . S
O341 C329 1.242 . S
O342 Tb320 2.324 . S
O342 C329 1.258 . S
O343 Eu321 2.500 . S
O343 C326 1.273 . S
O344 Eu321 2.473 . S
O344 C326 1.257 . S
H345 C331 0.929 . S
H346 C333 0.931 . S
H347 C335 0.929 . S
O348 Tb349 2.292 . S
O348 C351 1.255 . S
Tb349 O348 2.292 . S
Tb349 O365 2.326 . S
Tb349 O367 2.500 . S
Tb349 O368 2.473 . S
Tb349 O371 2.324 1_554 S
Eu350 O354 2.292 . S
Eu350 C355 2.852 1_554 S
Eu350 O366 2.324 . S
Eu350 O370 2.326 1_554 S
Eu350 O372 2.500 1_554 S
Eu350 O373 2.473 . S
C351 O348 1.255 . S
C351 O352 1.247 . S
O352 C351 1.247 . S
C353 O365 1.242 . S
C353 O366 1.258 . S
O354 Eu350 2.292 . S
O354 C356 1.255 . S
C355 Eu350 2.852 1_556 S
C355 C359 1.503 . S
C355 O372 1.273 . S
C355 O373 1.257 1_556 S
C356 O354 1.255 . S
C356 O357 1.247 . S
O357 C356 1.247 . S
C358 O370 1.242 . S
C358 O371 1.258 . S
C359 C355 1.503 . S
C359 C360 1.379 . S
C359 C364 1.392 . S
C360 C359 1.379 . S
C360 C361 1.404 . S
C360 H374 0.929 . S
C361 C360 1.404 . S
C361 C362 1.389 . S
C362 C361 1.389 . S
C362 C363 1.399 . S
C362 H375 0.931 . S
C363 C362 1.399 . S
C363 C364 1.390 . S
C364 C359 1.392 . S
C364 C363 1.390 . S
C364 H376 0.929 . S
O365 Tb349 2.326 . S
O365 C353 1.242 . S
O366 Eu350 2.324 . S
O366 C353 1.258 . S
O367 Tb349 2.500 . S
O367 C369 1.273 . S
O368 Tb349 2.473 . S
O368 C369 1.257 . S
C369 O367 1.273 . S
C369 O368 1.257 . S
O370 Eu350 2.326 1_556 S
O370 C358 1.242 . S
O371 Tb349 2.324 1_556 S
O371 C358 1.258 . S
O372 Eu350 2.500 1_556 S
O372 C355 1.273 . S
O373 Eu350 2.473 . S
O373 C355 1.257 1_554 S
H374 C360 0.929 . S
H375 C362 0.931 . S
H376 C364 0.929 . S
O377 Tb378 2.292 . S
O377 C380 1.255 . S
Tb378 O377 2.292 . S
Tb378 O394 2.326 . S
Tb378 O396 2.500 . S
Tb378 O397 2.473 . S
Tb378 O400 2.324 1_554 S
Eu379 O383 2.292 . S
Eu379 C384 2.852 1_554 S
Eu379 O395 2.324 . S
Eu379 O399 2.326 1_554 S
Eu379 O401 2.500 1_554 S
Eu379 O402 2.473 . S
C380 O377 1.255 . S
C380 O381 1.247 . S
O381 C380 1.247 . S
C382 O394 1.242 . S
C382 O395 1.258 . S
O383 Eu379 2.292 . S
O383 C385 1.255 . S
C384 Eu379 2.852 1_556 S
C384 C388 1.503 . S
C384 O401 1.273 . S
C384 O402 1.257 1_556 S
C385 O383 1.255 . S
C385 O386 1.247 . S
O386 C385 1.247 . S
C387 O399 1.242 . S
C387 O400 1.258 . S
C388 C384 1.503 . S
C388 C389 1.379 . S
C388 C393 1.392 . S
C389 C388 1.379 . S
C389 C390 1.404 . S
C389 H403 0.929 . S
C390 C389 1.404 . S
C390 C391 1.389 . S
C391 C390 1.389 . S
C391 C392 1.399 . S
C391 H404 0.931 . S
C392 C391 1.399 . S
C392 C393 1.390 . S
C393 C388 1.392 . S
C393 C392 1.390 . S
C393 H405 0.929 . S
O394 Tb378 2.326 . S
O394 C382 1.242 . S
O395 Eu379 2.324 . S
O395 C382 1.258 . S
O396 Tb378 2.500 . S
O396 C398 1.273 . S
O397 Tb378 2.473 . S
O397 C398 1.257 . S
C398 O396 1.273 . S
C398 O397 1.257 . S
O399 Eu379 2.326 1_556 S
O399 C387 1.242 . S
O400 Tb378 2.324 1_556 S
O400 C387 1.258 . S
O401 Eu379 2.500 1_556 S
O401 C384 1.273 . S
O402 Eu379 2.473 . S
O402 C384 1.257 1_554 S
H403 C389 0.929 . S
H404 C391 0.931 . S
H405 C393 0.929 . S
O406 Tb407 2.292 . S
O406 C409 1.255 . S
Tb407 O406 2.292 . S
Tb407 O423 2.326 . S
Tb407 O425 2.500 . S
Tb407 O426 2.473 . S
Tb407 O429 2.324 . S
Eu408 O412 2.292 . S
Eu408 C413 2.852 . S
Eu408 O424 2.324 . S
Eu408 O428 2.326 . S
Eu408 O430 2.500 . S
Eu408 O431 2.473 . S
C409 O406 1.255 . S
C409 O410 1.247 . S
O410 C409 1.247 . S
C411 O423 1.242 . S
C411 O424 1.258 . S
O412 Eu408 2.292 . S
O412 C414 1.255 . S
C413 Eu408 2.852 . S
C413 C417 1.503 . S
C413 O430 1.273 . S
C413 O431 1.257 . S
C414 O412 1.255 . S
C414 O415 1.247 . S
O415 C414 1.247 . S
C416 O428 1.242 . S
C416 O429 1.258 . S
C417 C413 1.503 . S
C417 C418 1.379 . S
C417 C422 1.392 . S
C418 C417 1.379 . S
C418 C419 1.404 . S
C418 H432 0.929 . S
C419 C418 1.404 . S
C419 C420 1.389 . S
C420 C419 1.389 . S
C420 C421 1.399 . S
C420 H433 0.931 . S
C421 C420 1.399 . S
C421 C422 1.390 . S
C422 C417 1.392 . S
C422 C421 1.390 . S
C422 H434 0.929 . S
O423 Tb407 2.326 . S
O423 C411 1.242 . S
O424 Eu408 2.324 . S
O424 C411 1.258 . S
O425 Tb407 2.500 . S
O425 C427 1.273 . S
O426 Tb407 2.473 . S
O426 C427 1.257 . S
C427 O425 1.273 . S
C427 O426 1.257 . S
O428 Eu408 2.326 . S
O428 C416 1.242 . S
O429 Tb407 2.324 . S
O429 C416 1.258 . S
O430 Eu408 2.500 . S
O430 C413 1.273 . S
O431 Eu408 2.473 . S
O431 C413 1.257 . S
H432 C418 0.929 . S
H433 C420 0.931 . S
H434 C422 0.929 . S
O435 Tb436 2.292 . S
O435 C438 1.255 . S
Tb436 O435 2.292 . S
Tb436 O452 2.326 . S
Tb436 O454 2.500 . S
Tb436 O455 2.473 . S
Tb436 O458 2.324 . S
Eu437 O441 2.292 . S
Eu437 C442 2.852 . S
Eu437 O453 2.324 . S
Eu437 O457 2.326 . S
Eu437 O459 2.500 . S
Eu437 O460 2.473 . S
C438 O435 1.255 . S
C438 O439 1.247 . S
O439 C438 1.247 . S
C440 O452 1.242 . S
C440 O453 1.258 . S
O441 Eu437 2.292 . S
O441 C443 1.255 . S
C442 Eu437 2.852 . S
C442 C446 1.503 . S
C442 O459 1.273 . S
C442 O460 1.257 . S
C443 O441 1.255 . S
C443 O444 1.247 . S
O444 C443 1.247 . S
C445 O457 1.242 . S
C445 O458 1.258 . S
C446 C442 1.503 . S
C446 C447 1.379 . S
C446 C451 1.392 . S
C447 C446 1.379 . S
C447 C448 1.404 . S
C447 H461 0.929 . S
C448 C447 1.404 . S
C448 C449 1.389 . S
C449 C448 1.389 . S
C449 C450 1.399 . S
C449 H462 0.931 . S
C450 C449 1.399 . S
C450 C451 1.390 . S
C451 C446 1.392 . S
C451 C450 1.390 . S
C451 H463 0.929 . S
O452 Tb436 2.326 . S
O452 C440 1.242 . S
O453 Eu437 2.324 . S
O453 C440 1.258 . S
O454 Tb436 2.500 . S
O454 C456 1.273 . S
O455 Tb436 2.473 . S
O455 C456 1.257 . S
C456 O454 1.273 . S
C456 O455 1.257 . S
O457 Eu437 2.326 . S
O457 C445 1.242 . S
O458 Tb436 2.324 . S
O458 C445 1.258 . S
O459 Eu437 2.500 . S
O459 C442 1.273 . S
O460 Eu437 2.473 . S
O460 C442 1.257 . S
H461 C447 0.929 . S
H462 C449 0.931 . S
H463 C451 0.929 . S
H464 C472 0.950 . S
H465 C477 0.950 . S
H466 C474 0.950 . S
H467 C476 0.950 . S
H468 C478 0.950 . S
H469 C480 0.950 . S
H470 C482 0.950 . S
H471 C483 0.950 . S
C472 H464 0.950 . S
C472 C473 1.386 . S
C472 C474 1.391 . S
C473 C472 1.386 . S
C473 C477 1.393 . S
C474 H466 0.950 . S
C474 C472 1.391 . S
C474 C475 1.400 . S
C475 C474 1.400 . S
C475 C476 1.398 . S
C475 C481 1.491 . S
C476 H467 0.950 . S
C476 C475 1.398 . S
C476 C477 1.391 . S
C477 H465 0.950 . S
C477 C473 1.393 . S
C477 C476 1.391 . S
C478 H468 0.950 . S
C478 C479 1.386 . S
C478 C480 1.391 . S
C479 C478 1.386 . S
C479 C483 1.393 . S
C480 H469 0.950 . S
C480 C478 1.391 . S
C480 C481 1.400 . S
C481 C475 1.491 . S
C481 C480 1.400 . S
C481 C482 1.398 . S
C482 H470 0.950 . S
C482 C481 1.398 . S
C482 C483 1.391 . S
C483 H471 0.950 . S
C483 C479 1.393 . S
C483 C482 1.391 . S
H484 C492 0.950 . S
H485 C497 0.950 . S
H486 C494 0.950 . S
H487 C496 0.950 . S
H488 C498 0.950 . S
H489 C500 0.950 . S
H490 C502 0.950 . S
H491 C503 0.950 . S
C492 H484 0.950 . S
C492 C493 1.386 . S
C492 C494 1.391 . S
C493 C492 1.386 . S
C493 C497 1.393 . S
C494 H486 0.950 . S
C494 C492 1.391 . S
C494 C495 1.400 . S
C495 C494 1.400 . S
C495 C496 1.398 . S
C495 C501 1.491 . S
C496 H487 0.950 . S
C496 C495 1.398 . S
C496 C497 1.391 . S
C497 H485 0.950 . S
C497 C493 1.393 . S
C497 C496 1.391 . S
C498 H488 0.950 . S
C498 C499 1.386 . S
C498 C500 1.391 . S
C499 C498 1.386 . S
C499 C503 1.393 . S
C500 H489 0.950 . S
C500 C498 1.391 . S
C500 C501 1.400 . S
C501 C495 1.491 . S
C501 C500 1.400 . S
C501 C502 1.398 . S
C502 H490 0.950 . S
C502 C501 1.398 . S
C502 C503 1.391 . S
C503 H491 0.950 . S
C503 C499 1.393 . S
C503 C502 1.391 . S
H504 C512 0.950 . S
H505 C517 0.950 . S
H506 C514 0.950 . S
H507 C516 0.950 . S
H508 C518 0.950 . S
H509 C520 0.950 . S
H510 C522 0.950 . S
H511 C523 0.950 . S
C512 H504 0.950 . S
C512 C513 1.386 . S
C512 C514 1.391 . S
C513 C512 1.386 . S
C513 C517 1.393 . S
C514 H506 0.950 . S
C514 C512 1.391 . S
C514 C515 1.400 . S
C515 C514 1.400 . S
C515 C516 1.398 . S
C515 C521 1.491 . S
C516 H507 0.950 . S
C516 C515 1.398 . S
C516 C517 1.391 . S
C517 H505 0.950 . S
C517 C513 1.393 . S
C517 C516 1.391 . S
C518 H508 0.950 . S
C518 C519 1.386 . S
C518 C520 1.391 . S
C519 C518 1.386 . S
C519 C523 1.393 . S
C520 H509 0.950 . S
C520 C518 1.391 . S
C520 C521 1.400 . S
C521 C515 1.491 . S
C521 C520 1.400 . S
C521 C522 1.398 . S
C522 H510 0.950 . S
C522 C521 1.398 . S
C522 C523 1.391 . S
C523 H511 0.950 . S
C523 C519 1.393 . S
C523 C522 1.391 . S
H524 C532 0.950 . S
H525 C537 0.950 . S
H526 C534 0.950 . S
H527 C536 0.950 . S
H528 C538 0.950 . S
H529 C540 0.950 . S
H530 C542 0.950 . S
H531 C543 0.950 . S
C532 H524 0.950 . S
C532 C533 1.386 . S
C532 C534 1.391 . S
C533 C532 1.386 . S
C533 C537 1.393 . S
C534 H526 0.950 . S
C534 C532 1.391 . S
C534 C535 1.400 . S
C535 C534 1.400 . S
C535 C536 1.398 . S
C535 C541 1.491 . S
C536 H527 0.950 . S
C536 C535 1.398 . S
C536 C537 1.391 . S
C537 H525 0.950 . S
C537 C533 1.393 . S
C537 C536 1.391 . S
C538 H528 0.950 . S
C538 C539 1.386 . S
C538 C540 1.391 . S
C539 C538 1.386 . S
C539 C543 1.393 . S
C540 H529 0.950 . S
C540 C538 1.391 . S
C540 C541 1.400 . S
C541 C535 1.491 . S
C541 C540 1.400 . S
C541 C542 1.398 . S
C542 H530 0.950 . S
C542 C541 1.398 . S
C542 C543 1.391 . S
C543 H531 0.950 . S
C543 C539 1.393 . S
C543 C542 1.391 . S
H544 C552 0.950 . S
H545 C557 0.950 . S
H546 C554 0.950 . S
H547 C556 0.950 . S
H548 C558 0.950 . S
H549 C560 0.950 . S
H550 C562 0.950 . S
H551 C563 0.950 . S
C552 H544 0.950 . S
C552 C553 1.386 . S
C552 C554 1.391 . S
C553 C552 1.386 . S
C553 C557 1.393 . S
C554 H546 0.950 . S
C554 C552 1.391 . S
C554 C555 1.400 . S
C555 C554 1.400 . S
C555 C556 1.398 . S
C555 C561 1.491 . S
C556 H547 0.950 . S
C556 C555 1.398 . S
C556 C557 1.391 . S
C557 H545 0.950 . S
C557 C553 1.393 . S
C557 C556 1.391 . S
C558 H548 0.950 . S
C558 C559 1.386 . S
C558 C560 1.391 . S
C559 C558 1.386 . S
C559 C563 1.393 . S
C560 H549 0.950 . S
C560 C558 1.391 . S
C560 C561 1.400 . S
C561 C555 1.491 . S
C561 C560 1.400 . S
C561 C562 1.398 . S
C562 H550 0.950 . S
C562 C561 1.398 . S
C562 C563 1.391 . S
C563 H551 0.950 . S
C563 C559 1.393 . S
C563 C562 1.391 . S
H564 C572 0.950 . S
H565 C577 0.950 . S
H566 C574 0.950 . S
H567 C576 0.950 . S
H568 C578 0.950 . S
H569 C580 0.950 . S
H570 C582 0.950 . S
H571 C583 0.950 . S
C572 H564 0.950 . S
C572 C573 1.386 . S
C572 C574 1.391 . S
C573 C572 1.386 . S
C573 C577 1.393 . S
C574 H566 0.950 . S
C574 C572 1.391 . S
C574 C575 1.400 . S
C575 C574 1.400 . S
C575 C576 1.398 . S
C575 C581 1.491 . S
C576 H567 0.950 . S
C576 C575 1.398 . S
C576 C577 1.391 . S
C577 H565 0.950 . S
C577 C573 1.393 . S
C577 C576 1.391 . S
C578 H568 0.950 . S
C578 C579 1.386 . S
C578 C580 1.391 . S
C579 C578 1.386 . S
C579 C583 1.393 . S
C580 H569 0.950 . S
C580 C578 1.391 . S
C580 C581 1.400 . S
C581 C575 1.491 . S
C581 C580 1.400 . S
C581 C582 1.398 . S
C582 H570 0.950 . S
C582 C581 1.398 . S
C582 C583 1.391 . S
C583 H571 0.950 . S
C583 C579 1.393 . S
C583 C582 1.391 . S
H584 C592 0.950 . S
H585 C597 0.950 . S
H586 C594 0.950 . S
H587 C596 0.950 . S
H588 C598 0.950 . S
H589 C600 0.950 . S
H590 C602 0.950 . S
H591 C603 0.950 . S
C592 H584 0.950 . S
C592 C593 1.386 . S
C592 C594 1.391 . S
C593 C592 1.386 . S
C593 C597 1.393 . S
C594 H586 0.950 . S
C594 C592 1.391 . S
C594 C595 1.400 . S
C595 C594 1.400 . S
C595 C596 1.398 . S
C595 C601 1.491 . S
C596 H587 0.950 . S
C596 C595 1.398 . S
C596 C597 1.391 . S
C597 H585 0.950 . S
C597 C593 1.393 . S
C597 C596 1.391 . S
C598 H588 0.950 . S
C598 C599 1.386 . S
C598 C600 1.391 . S
C599 C598 1.386 . S
C599 C603 1.393 . S
C600 H589 0.950 . S
C600 C598 1.391 . S
C600 C601 1.400 . S
C601 C595 1.491 . S
C601 C600 1.400 . S
C601 C602 1.398 . S
C602 H590 0.950 . S
C602 C601 1.398 . S
C602 C603 1.391 . S
C603 H591 0.950 . S
C603 C599 1.393 . S
C603 C602 1.391 . S
H604 C612 0.950 . S
H605 C617 0.950 . S
H606 C614 0.950 . S
H607 C616 0.950 . S
H608 C618 0.950 . S
H609 C620 0.950 . S
H610 C622 0.950 . S
H611 C623 0.950 . S
C612 H604 0.950 . S
C612 C613 1.386 . S
C612 C614 1.391 . S
C613 C612 1.386 . S
C613 C617 1.393 . S
C614 H606 0.950 . S
C614 C612 1.391 . S
C614 C615 1.400 . S
C615 C614 1.400 . S
C615 C616 1.398 . S
C615 C621 1.491 . S
C616 H607 0.950 . S
C616 C615 1.398 . S
C616 C617 1.391 . S
C617 H605 0.950 . S
C617 C613 1.393 . S
C617 C616 1.391 . S
C618 H608 0.950 . S
C618 C619 1.386 . S
C618 C620 1.391 . S
C619 C618 1.386 . S
C619 C623 1.393 . S
C620 H609 0.950 . S
C620 C618 1.391 . S
C620 C621 1.400 . S
C621 C615 1.491 . S
C621 C620 1.400 . S
C621 C622 1.398 . S
C622 H610 0.950 . S
C622 C621 1.398 . S
C622 C623 1.391 . S
C623 H611 0.950 . S
C623 C619 1.393 . S
C623 C622 1.391 . S
H624 C632 0.950 . S
H625 C637 0.950 . S
H626 C634 0.950 . S
H627 C636 0.950 . S
H628 C638 0.950 . S
H629 C640 0.950 . S
H630 C642 0.950 . S
H631 C643 0.950 . S
C632 H624 0.950 . S
C632 C633 1.386 . S
C632 C634 1.391 . S
C633 C632 1.386 . S
C633 C637 1.393 . S
C634 H626 0.950 . S
C634 C632 1.391 . S
C634 C635 1.400 . S
C635 C634 1.400 . S
C635 C636 1.398 . S
C635 C641 1.491 . S
C636 H627 0.950 . S
C636 C635 1.398 . S
C636 C637 1.391 . S
C637 H625 0.950 . S
C637 C633 1.393 . S
C637 C636 1.391 . S
C638 H628 0.950 . S
C638 C639 1.386 . S
C638 C640 1.391 . S
C639 C638 1.386 . S
C639 C643 1.393 . S
C640 H629 0.950 . S
C640 C638 1.391 . S
C640 C641 1.400 . S
C641 C635 1.491 . S
C641 C640 1.400 . S
C641 C642 1.398 . S
C642 H630 0.950 . S
C642 C641 1.398 . S
C642 C643 1.391 . S
C643 H631 0.950 . S
C643 C639 1.393 . S
C643 C642 1.391 . S
H644 C652 0.950 . S
H645 C657 0.950 . S
H646 C654 0.950 . S
H647 C656 0.950 . S
H648 C658 0.950 . S
H649 C660 0.950 . S
H650 C662 0.950 . S
H651 C663 0.950 . S
C652 H644 0.950 . S
C652 C653 1.386 . S
C652 C654 1.391 . S
C653 C652 1.386 . S
C653 C657 1.393 . S
C654 H646 0.950 . S
C654 C652 1.391 . S
C654 C655 1.400 . S
C655 C654 1.400 . S
C655 C656 1.398 . S
C655 C661 1.491 . S
C656 H647 0.950 . S
C656 C655 1.398 . S
C656 C657 1.391 . S
C657 H645 0.950 . S
C657 C653 1.393 . S
C657 C656 1.391 . S
C658 H648 0.950 . S
C658 C659 1.386 . S
C658 C660 1.391 . S
C659 C658 1.386 . S
C659 C663 1.393 . S
C660 H649 0.950 . S
C660 C658 1.391 . S
C660 C661 1.400 . S
C661 C655 1.491 . S
C661 C660 1.400 . S
C661 C662 1.398 . S
C662 H650 0.950 . S
C662 C661 1.398 . S
C662 C663 1.391 . S
C663 H651 0.950 . S
C663 C659 1.393 . S
C663 C662 1.391 . S
H664 C672 0.950 . S
H665 C677 0.950 . S
H666 C674 0.950 . S
H667 C676 0.950 . S
H668 C678 0.950 . S
H669 C680 0.950 . S
H670 C682 0.950 . S
H671 C683 0.950 . S
C672 H664 0.950 . S
C672 C673 1.386 . S
C672 C674 1.391 . S
C673 C672 1.386 . S
C673 C677 1.393 . S
C674 H666 0.950 . S
C674 C672 1.391 . S
C674 C675 1.400 . S
C675 C674 1.400 . S
C675 C676 1.398 . S
C675 C681 1.491 . S
C676 H667 0.950 . S
C676 C675 1.398 . S
C676 C677 1.391 . S
C677 H665 0.950 . S
C677 C673 1.393 . S
C677 C676 1.391 . S
C678 H668 0.950 . S
C678 C679 1.386 . S
C678 C680 1.391 . S
C679 C678 1.386 . S
C679 C683 1.393 . S
C680 H669 0.950 . S
C680 C678 1.391 . S
C680 C681 1.400 . S
C681 C675 1.491 . S
C681 C680 1.400 . S
C681 C682 1.398 . S
C682 H670 0.950 . S
C682 C681 1.398 . S
C682 C683 1.391 . S
C683 H671 0.950 . S
C683 C679 1.393 . S
C683 C682 1.391 . S
H684 C692 0.950 . S
H685 C697 0.950 . S
H686 C694 0.950 . S
H687 C696 0.950 . S
H688 C698 0.950 . S
H689 C700 0.950 . S
H690 C702 0.950 . S
H691 C703 0.950 . S
C692 H684 0.950 . S
C692 C693 1.386 . S
C692 C694 1.391 . S
C693 C692 1.386 . S
C693 C697 1.393 . S
C694 H686 0.950 . S
C694 C692 1.391 . S
C694 C695 1.400 . S
C695 C694 1.400 . S
C695 C696 1.398 . S
C695 C701 1.491 . S
C696 H687 0.950 . S
C696 C695 1.398 . S
C696 C697 1.391 . S
C697 H685 0.950 . S
C697 C693 1.393 . S
C697 C696 1.391 . S
C698 H688 0.950 . S
C698 C699 1.386 . S
C698 C700 1.391 . S
C699 C698 1.386 . S
C699 C703 1.393 . S
C700 H689 0.950 . S
C700 C698 1.391 . S
C700 C701 1.400 . S
C701 C695 1.491 . S
C701 C700 1.400 . S
C701 C702 1.398 . S
C702 H690 0.950 . S
C702 C701 1.398 . S
C702 C703 1.391 . S
C703 H691 0.950 . S
C703 C699 1.393 . S
C703 C702 1.391 . S
H704 C712 0.950 . S
H705 C717 0.950 . S
H706 C714 0.950 . S
H707 C716 0.950 . S
H708 C718 0.950 . S
H709 C720 0.950 . S
H710 C722 0.950 . S
H711 C723 0.950 . S
C712 H704 0.950 . S
C712 C713 1.386 . S
C712 C714 1.391 . S
C713 C712 1.386 . S
C713 C717 1.393 . S
C714 H706 0.950 . S
C714 C712 1.391 . S
C714 C715 1.400 . S
C715 C714 1.400 . S
C715 C716 1.398 . S
C715 C721 1.491 . S
C716 H707 0.950 . S
C716 C715 1.398 . S
C716 C717 1.391 . S
C717 H705 0.950 . S
C717 C713 1.393 . S
C717 C716 1.391 . S
C718 H708 0.950 . S
C718 C719 1.386 . S
C718 C720 1.391 . S
C719 C718 1.386 . S
C719 C723 1.393 . S
C720 H709 0.950 . S
C720 C718 1.391 . S
C720 C721 1.400 . S
C721 C715 1.491 . S
C721 C720 1.400 . S
C721 C722 1.398 . S
C722 H710 0.950 . S
C722 C721 1.398 . S
C722 C723 1.391 . S
C723 H711 0.950 . S
C723 C719 1.393 . S
C723 C722 1.391 . S
H724 C732 0.950 . S
H725 C737 0.950 . S
H726 C734 0.950 . S
H727 C736 0.950 . S
H728 C738 0.950 . S
H729 C740 0.950 . S
H730 C742 0.950 . S
H731 C743 0.950 . S
C732 H724 0.950 . S
C732 C733 1.386 . S
C732 C734 1.391 . S
C733 C732 1.386 . S
C733 C737 1.393 . S
C734 H726 0.950 . S
C734 C732 1.391 . S
C734 C735 1.400 . S
C735 C734 1.400 . S
C735 C736 1.398 . S
C735 C741 1.491 . S
C736 H727 0.950 . S
C736 C735 1.398 . S
C736 C737 1.391 . S
C737 H725 0.950 . S
C737 C733 1.393 . S
C737 C736 1.391 . S
C738 H728 0.950 . S
C738 C739 1.386 . S
C738 C740 1.391 . S
C739 C738 1.386 . S
C739 C743 1.393 . S
C740 H729 0.950 . S
C740 C738 1.391 . S
C740 C741 1.400 . S
C741 C735 1.491 . S
C741 C740 1.400 . S
C741 C742 1.398 . S
C742 H730 0.950 . S
C742 C741 1.398 . S
C742 C743 1.391 . S
C743 H731 0.950 . S
C743 C739 1.393 . S
C743 C742 1.391 . S
H744 C752 0.950 . S
H745 C757 0.950 . S
H746 C754 0.950 . S
H747 C756 0.950 . S
H748 C758 0.950 . S
H749 C760 0.950 . S
H750 C762 0.950 . S
H751 C763 0.950 . S
C752 H744 0.950 . S
C752 C753 1.386 . S
C752 C754 1.391 . S
C753 C752 1.386 . S
C753 C757 1.393 . S
C754 H746 0.950 . S
C754 C752 1.391 . S
C754 C755 1.400 . S
C755 C754 1.400 . S
C755 C756 1.398 . S
C755 C761 1.491 . S
C756 H747 0.950 . S
C756 C755 1.398 . S
C756 C757 1.391 . S
C757 H745 0.950 . S
C757 C753 1.393 . S
C757 C756 1.391 . S
C758 H748 0.950 . S
C758 C759 1.386 . S
C758 C760 1.391 . S
C759 C758 1.386 . S
C759 C763 1.393 . S
C760 H749 0.950 . S
C760 C758 1.391 . S
C760 C761 1.400 . S
C761 C755 1.491 . S
C761 C760 1.400 . S
C761 C762 1.398 . S
C762 H750 0.950 . S
C762 C761 1.398 . S
C762 C763 1.391 . S
C763 H751 0.950 . S
C763 C759 1.393 . S
C763 C762 1.391 . S
H764 C772 0.950 . S
H765 C777 0.950 . S
H766 C774 0.950 . S
H767 C776 0.950 . S
H768 C778 0.950 . S
H769 C780 0.950 . S
H770 C782 0.950 . S
H771 C783 0.950 . S
C772 H764 0.950 . S
C772 C773 1.386 . S
C772 C774 1.391 . S
C773 C772 1.386 . S
C773 C777 1.393 . S
C774 H766 0.950 . S
C774 C772 1.391 . S
C774 C775 1.400 . S
C775 C774 1.400 . S
C775 C776 1.398 . S
C775 C781 1.491 . S
C776 H767 0.950 . S
C776 C775 1.398 . S
C776 C777 1.391 . S
C777 H765 0.950 . S
C777 C773 1.393 . S
C777 C776 1.391 . S
C778 H768 0.950 . S
C778 C779 1.386 . S
C778 C780 1.391 . S
C779 C778 1.386 . S
C779 C783 1.393 . S
C780 H769 0.950 . S
C780 C778 1.391 . S
C780 C781 1.400 . S
C781 C775 1.491 . S
C781 C780 1.400 . S
C781 C782 1.398 . S
C782 H770 0.950 . S
C782 C781 1.398 . S
C782 C783 1.391 . S
C783 H771 0.950 . S
C783 C779 1.393 . S
C783 C782 1.391 . S
H784 C792 0.950 . S
H785 C797 0.950 . S
H786 C794 0.950 . S
H787 C796 0.950 . S
H788 C798 0.950 . S
H789 C800 0.950 . S
H790 C802 0.950 . S
H791 C803 0.950 . S
C792 H784 0.950 . S
C792 C793 1.386 . S
C792 C794 1.391 . S
C793 C792 1.386 . S
C793 C797 1.393 1_554 S
C794 H786 0.950 . S
C794 C792 1.391 . S
C794 C795 1.400 . S
C795 C794 1.400 . S
C795 C796 1.398 1_554 S
C795 C801 1.491 . S
C796 H787 0.950 . S
C796 C795 1.398 1_556 S
C796 C797 1.391 . S
C797 H785 0.950 . S
C797 C793 1.393 1_556 S
C797 C796 1.391 . S
C798 H788 0.950 . S
C798 C799 1.386 1_556 S
C798 C800 1.391 . S
C799 C798 1.386 1_554 S
C799 C803 1.393 . S
C800 H789 0.950 . S
C800 C798 1.391 . S
C800 C801 1.400 1_556 S
C801 C795 1.491 . S
C801 C800 1.400 1_554 S
C801 C802 1.398 . S
C802 H790 0.950 . S
C802 C801 1.398 . S
C802 C803 1.391 . S
C803 H791 0.950 . S
C803 C799 1.393 . S
C803 C802 1.391 . S
H804 C812 0.950 . S
H805 C817 0.950 . S
H806 C814 0.950 . S
H807 C816 0.950 . S
H808 C818 0.950 . S
H809 C820 0.950 . S
H810 C822 0.950 . S
H811 C823 0.950 . S
C812 H804 0.950 . S
C812 C813 1.386 1_556 S
C812 C814 1.391 . S
C813 C812 1.386 1_554 S
C813 C817 1.393 . S
C814 H806 0.950 . S
C814 C812 1.391 . S
C814 C815 1.400 1_556 S
C815 C814 1.400 1_554 S
C815 C816 1.398 . S
C815 C821 1.491 . S
C816 H807 0.950 . S
C816 C815 1.398 . S
C816 C817 1.391 . S
C817 H805 0.950 . S
C817 C813 1.393 . S
C817 C816 1.391 . S
C818 H808 0.950 . S
C818 C819 1.386 . S
C818 C820 1.391 . S
C819 C818 1.386 . S
C819 C823 1.393 1_554 S
C820 H809 0.950 . S
C820 C818 1.391 . S
C820 C821 1.400 . S
C821 C815 1.491 . S
C821 C820 1.400 . S
C821 C822 1.398 1_554 S
C822 H810 0.950 . S
C822 C821 1.398 1_556 S
C822 C823 1.391 . S
C823 H811 0.950 . S
C823 C819 1.393 1_556 S
C823 C822 1.391 . S
H824 C832 0.950 . S
H825 C837 0.950 . S
H826 C834 0.950 . S
H827 C836 0.950 . S
H828 C838 0.950 . S
H829 C840 0.950 . S
H830 C842 0.950 . S
H831 C843 0.950 . S
C832 H824 0.950 . S
C832 C833 1.386 . S
C832 C834 1.391 . S
C833 C832 1.386 . S
C833 C837 1.393 . S
C834 H826 0.950 . S
C834 C832 1.391 . S
C834 C835 1.400 . S
C835 C834 1.400 . S
C835 C836 1.398 1_655 S
C835 C841 1.491 1_655 S
C836 H827 0.950 . S
C836 C835 1.398 1_455 S
C836 C837 1.391 1_455 S
C837 H825 0.950 . S
C837 C833 1.393 . S
C837 C836 1.391 1_655 S
C838 H828 0.950 . S
C838 C839 1.386 . S
C838 C840 1.391 . S
C839 C838 1.386 . S
C839 C843 1.393 . S
C840 H829 0.950 . S
C840 C838 1.391 . S
C840 C841 1.400 . S
C841 C835 1.491 1_455 S
C841 C840 1.400 . S
C841 C842 1.398 1_455 S
C842 H830 0.950 . S
C842 C841 1.398 1_655 S
C842 C843 1.391 1_655 S
C843 H831 0.950 . S
C843 C839 1.393 . S
C843 C842 1.391 1_455 S
H844 C852 0.950 . S
H845 C857 0.950 . S
H846 C854 0.950 . S
H847 C856 0.950 . S
H848 C858 0.950 . S
H849 C860 0.950 . S
H850 C862 0.950 . S
H851 C863 0.950 . S
C852 H844 0.950 . S
C852 C853 1.386 . S
C852 C854 1.391 . S
C853 C852 1.386 . S
C853 C857 1.393 . S
C854 H846 0.950 . S
C854 C852 1.391 . S
C854 C855 1.400 . S
C855 C854 1.400 . S
C855 C856 1.398 . S
C855 C861 1.491 . S
C856 H847 0.950 . S
C856 C855 1.398 . S
C856 C857 1.391 . S
C857 H845 0.950 . S
C857 C853 1.393 . S
C857 C856 1.391 . S
C858 H848 0.950 . S
C858 C859 1.386 . S
C858 C860 1.391 . S
C859 C858 1.386 . S
C859 C863 1.393 . S
C860 H849 0.950 . S
C860 C858 1.391 . S
C860 C861 1.400 . S
C861 C855 1.491 . S
C861 C860 1.400 . S
C861 C862 1.398 . S
C862 H850 0.950 . S
C862 C861 1.398 . S
C862 C863 1.391 . S
C863 H851 0.950 . S
C863 C859 1.393 . S
C863 C862 1.391 . S
H864 C872 0.950 . S
H865 C877 0.950 . S
H866 C874 0.950 . S
H867 C876 0.950 . S
H868 C878 0.950 . S
H869 C880 0.950 . S
H870 C882 0.950 . S
H871 C883 0.950 . S
C872 H864 0.950 . S
C872 C873 1.386 . S
C872 C874 1.391 . S
C873 C872 1.386 . S
C873 C877 1.393 . S
C874 H866 0.950 . S
C874 C872 1.391 . S
C874 C875 1.400 . S
C875 C874 1.400 . S
C875 C876 1.398 . S
C875 C881 1.491 . S
C876 H867 0.950 . S
C876 C875 1.398 . S
C876 C877 1.391 . S
C877 H865 0.950 . S
C877 C873 1.393 . S
C877 C876 1.391 . S
C878 H868 0.950 . S
C878 C879 1.386 . S
C878 C880 1.391 . S
C879 C878 1.386 . S
C879 C883 1.393 . S
C880 H869 0.950 . S
C880 C878 1.391 . S
C880 C881 1.400 . S
C881 C875 1.491 . S
C881 C880 1.400 . S
C881 C882 1.398 . S
C882 H870 0.950 . S
C882 C881 1.398 . S
C882 C883 1.391 . S
C883 H871 0.950 . S
C883 C879 1.393 . S
C883 C882 1.391 . S
H884 C892 0.950 1_455 S
H885 C897 0.950 . S
H886 C894 0.950 . S
H887 C896 0.950 . S
H888 C898 0.950 1_655 S
H889 C900 0.950 . S
H890 C902 0.950 . S
H891 C903 0.950 . S
C892 H884 0.950 1_655 S
C892 C893 1.386 . S
C892 C894 1.391 1_655 S
C893 C892 1.386 . S
C893 C897 1.393 . S
C894 H886 0.950 . S
C894 C892 1.391 1_455 S
C894 C895 1.400 1_455 S
C895 C894 1.400 1_655 S
C895 C896 1.398 . S
C895 C901 1.491 1_665 S
C896 H887 0.950 . S
C896 C895 1.398 . S
C896 C897 1.391 . S
C897 H885 0.950 . S
C897 C893 1.393 . S
C897 C896 1.391 . S
C898 H888 0.950 1_455 S
C898 C899 1.386 . S
C898 C900 1.391 1_455 S
C899 C898 1.386 . S
C899 C903 1.393 . S
C900 H889 0.950 . S
C900 C898 1.391 1_655 S
C900 C901 1.400 1_655 S
C901 C895 1.491 1_445 S
C901 C900 1.400 1_455 S
C901 C902 1.398 . S
C902 H890 0.950 . S
C902 C901 1.398 . S
C902 C903 1.391 . S
C903 H891 0.950 . S
C903 C899 1.393 . S
C903 C902 1.391 . S
H904 C912 0.950 . S
H905 C917 0.950 . S
H906 C914 0.950 . S
H907 C916 0.950 . S
H908 C918 0.950 . S
H909 C920 0.950 . S
H910 C922 0.950 . S
H911 C923 0.950 . S
C912 H904 0.950 . S
C912 C913 1.386 . S
C912 C914 1.391 . S
C913 C912 1.386 . S
C913 C917 1.393 . S
C914 H906 0.950 . S
C914 C912 1.391 . S
C914 C915 1.400 . S
C915 C914 1.400 . S
C915 C916 1.398 . S
C915 C921 1.491 . S
C916 H907 0.950 . S
C916 C915 1.398 . S
C916 C917 1.391 . S
C917 H905 0.950 . S
C917 C913 1.393 . S
C917 C916 1.391 . S
C918 H908 0.950 . S
C918 C919 1.386 . S
C918 C920 1.391 . S
C919 C918 1.386 . S
C919 C923 1.393 . S
C920 H909 0.950 . S
C920 C918 1.391 . S
C920 C921 1.400 . S
C921 C915 1.491 . S
C921 C920 1.400 . S
C921 C922 1.398 . S
C922 H910 0.950 . S
C922 C921 1.398 . S
C922 C923 1.391 . S
C923 H911 0.950 . S
C923 C919 1.393 . S
C923 C922 1.391 . S
H924 C932 0.950 . S
H925 C937 0.950 . S
H926 C934 0.950 . S
H927 C936 0.950 . S
H928 C938 0.950 . S
H929 C940 0.950 . S
H930 C942 0.950 . S
H931 C943 0.950 . S
C932 H924 0.950 . S
C932 C933 1.386 . S
C932 C934 1.391 . S
C933 C932 1.386 . S
C933 C937 1.393 . S
C934 H926 0.950 . S
C934 C932 1.391 . S
C934 C935 1.400 . S
C935 C934 1.400 . S
C935 C936 1.398 . S
C935 C941 1.491 1_565 S
C936 H927 0.950 . S
C936 C935 1.398 . S
C936 C937 1.391 . S
C937 H925 0.950 . S
C937 C933 1.393 . S
C937 C936 1.391 . S
C938 H928 0.950 . S
C938 C939 1.386 . S
C938 C940 1.391 . S
C939 C938 1.386 . S
C939 C943 1.393 . S
C940 H929 0.950 . S
C940 C938 1.391 . S
C940 C941 1.400 . S
C941 C935 1.491 1_545 S
C941 C940 1.400 . S
C941 C942 1.398 . S
C942 H930 0.950 . S
C942 C941 1.398 . S
C942 C943 1.391 . S
C943 H931 0.950 . S
C943 C939 1.393 . S
C943 C942 1.391 . S
H944 C952 0.950 . S
H945 C957 0.950 . S
H946 C954 0.950 . S
H947 C956 0.950 . S
H948 C958 0.950 . S
H949 C960 0.950 1_565 S
H950 C962 0.950 . S
H951 C963 0.950 . S
C952 H944 0.950 . S
C952 C953 1.386 1_545 S
C952 C954 1.391 . S
C953 C952 1.386 1_565 S
C953 C957 1.393 . S
C954 H946 0.950 . S
C954 C952 1.391 . S
C954 C955 1.400 . S
C955 C954 1.400 . S
C955 C956 1.398 1_545 S
C955 C961 1.491 . S
C956 H947 0.950 . S
C956 C955 1.398 1_565 S
C956 C957 1.391 . S
C957 H945 0.950 . S
C957 C953 1.393 . S
C957 C956 1.391 . S
C958 H948 0.950 . S
C958 C959 1.386 . S
C958 C960 1.391 . S
C959 C958 1.386 . S
C959 C963 1.393 . S
C960 H949 0.950 1_545 S
C960 C958 1.391 . S
C960 C961 1.400 . S
C961 C955 1.491 . S
C961 C960 1.400 . S
C961 C962 1.398 . S
C962 H950 0.950 . S
C962 C961 1.398 . S
C962 C963 1.391 . S
C963 H951 0.950 . S
C963 C959 1.393 . S
C963 C962 1.391 . S
H964 C972 0.950 . S
H965 C977 0.950 . S
H966 C974 0.950 1_545 S
H967 C976 0.950 . S
H968 C978 0.950 . S
H969 C980 0.950 . S
H970 C982 0.950 . S
H971 C983 0.950 . S
C972 H964 0.950 . S
C972 C973 1.386 . S
C972 C974 1.391 . S
C973 C972 1.386 . S
C973 C977 1.393 . S
C974 H966 0.950 1_565 S
C974 C972 1.391 . S
C974 C975 1.400 . S
C975 C974 1.400 . S
C975 C976 1.398 . S
C975 C981 1.491 . S
C976 H967 0.950 . S
C976 C975 1.398 . S
C976 C977 1.391 . S
C977 H965 0.950 . S
C977 C973 1.393 . S
C977 C976 1.391 . S
C978 H968 0.950 . S
C978 C979 1.386 1_565 S
C978 C980 1.391 . S
C979 C978 1.386 1_545 S
C979 C983 1.393 . S
C980 H969 0.950 . S
C980 C978 1.391 . S
C980 C981 1.400 . S
C981 C975 1.491 . S
C981 C980 1.400 . S
C981 C982 1.398 1_565 S
C982 H970 0.950 . S
C982 C981 1.398 1_545 S
C982 C983 1.391 . S
C983 H971 0.950 . S
C983 C979 1.393 . S
C983 C982 1.391 . S
H984 C992 0.950 . S
H985 C997 0.950 . S
H986 C994 0.950 1_455 S
H987 C996 0.950 . S
H988 C998 0.950 . S
H989 C1000 0.950 . S
H990 C1002 0.978 . S
H991 C1003 0.950 . S
C992 H984 0.950 . S
C992 C993 1.386 . S
C992 C994 1.391 . S
C993 C992 1.386 . S
C993 C997 1.393 . S
C994 H986 0.950 1_655 S
C994 C992 1.391 . S
C994 C995 1.400 . S
C995 C994 1.400 . S
C995 C996 1.398 . S
C995 C1001 1.491 . S
C996 H987 0.950 . S
C996 C995 1.398 . S
C996 C997 1.391 . S
C997 H985 0.950 . S
C997 C993 1.393 . S
C997 C996 1.391 . S
C998 H988 0.950 . S
C998 C999 1.386 . S
C998 C1000 1.391 . S
C999 C998 1.386 . S
C999 C1003 1.393 1_655 S
C1000 H989 0.950 . S
C1000 C998 1.391 . S
C1000 C1001 1.400 . S
C1001 C995 1.491 . S
C1001 C1000 1.400 . S
C1001 C1002 1.362 1_655 S
C1002 H990 0.978 . S
C1002 C1001 1.362 1_455 S
C1002 C1003 1.402 . S
C1003 H991 0.950 . S
C1003 C999 1.393 1_455 S
C1003 C1002 1.402 . S
H1004 C1012 0.950 . S
H1005 C1017 0.936 1_655 S
H1006 C1014 0.950 . S
H1007 C1016 0.950 . S
H1008 C1018 0.950 . S
H1009 C1020 0.950 . S
H1010 C1022 0.950 . S
H1011 C1023 0.950 . S
C1012 H1004 0.950 . S
C1012 C1013 1.386 . S
C1012 C1014 1.391 . S
C1013 C1012 1.386 . S
C1013 C1017 1.393 . S
C1014 H1006 0.950 . S
C1014 C1012 1.391 . S
C1014 C1015 1.400 . S
C1015 C1014 1.400 . S
C1015 C1016 1.398 . S
C1015 C1021 1.491 . S
C1016 H1007 0.950 . S
C1016 C1015 1.398 . S
C1016 C1017 1.391 . S
C1017 H1005 0.936 1_455 S
C1017 C1013 1.393 . S
C1017 C1016 1.391 . S
C1018 H1008 0.950 . S
C1018 C1019 1.386 . S
C1018 C1020 1.391 . S
C1019 C1018 1.386 . S
C1019 C1023 1.393 . S
C1020 H1009 0.950 . S
C1020 C1018 1.391 . S
C1020 C1021 1.400 . S
C1021 C1015 1.491 . S
C1021 C1020 1.400 . S
C1021 C1022 1.398 . S
C1022 H1010 0.950 . S
C1022 C1021 1.398 . S
C1022 C1023 1.391 . S
C1023 H1011 0.950 . S
C1023 C1019 1.393 . S
C1023 C1022 1.391 . S
H1024 C1032 0.950 . S
H1025 C1037 0.950 . S
H1026 C1034 0.950 . S
H1027 C1036 0.950 . S
H1028 C1038 0.950 . S
H1029 C1040 0.950 . S
H1030 C1042 0.950 . S
H1031 C1043 0.950 . S
C1032 H1024 0.950 . S
C1032 C1033 1.386 . S
C1032 C1034 1.391 . S
C1033 C1032 1.386 . S
C1033 C1037 1.393 . S
C1034 H1026 0.950 . S
C1034 C1032 1.391 . S
C1034 C1035 1.400 . S
C1035 C1034 1.400 . S
C1035 C1036 1.398 . S
C1035 C1041 1.491 . S
C1036 H1027 0.950 . S
C1036 C1035 1.398 . S
C1036 C1037 1.391 . S
C1037 H1025 0.950 . S
C1037 C1033 1.393 . S
C1037 C1036 1.391 . S
C1038 H1028 0.950 . S
C1038 C1039 1.386 . S
C1038 C1040 1.391 . S
C1039 C1038 1.386 . S
C1039 C1043 1.393 . S
C1040 H1029 0.950 . S
C1040 C1038 1.391 . S
C1040 C1041 1.400 . S
C1041 C1035 1.491 . S
C1041 C1040 1.400 . S
C1041 C1042 1.398 . S
C1042 H1030 0.950 . S
C1042 C1041 1.398 . S
C1042 C1043 1.391 . S
C1043 H1031 0.950 . S
C1043 C1039 1.393 . S
C1043 C1042 1.391 . S
H1044 C1052 0.950 . S
H1045 C1057 0.950 . S
H1046 C1054 0.950 . S
H1047 C1056 0.950 . S
H1048 C1058 0.950 . S
H1049 C1060 0.950 . S
H1050 C1062 0.950 . S
H1051 C1063 0.950 . S
C1052 H1044 0.950 . S
C1052 C1053 1.386 . S
C1052 C1054 1.391 . S
C1053 C1052 1.386 . S
C1053 C1057 1.393 . S
C1054 H1046 0.950 . S
C1054 C1052 1.391 . S
C1054 C1055 1.400 . S
C1055 C1054 1.400 . S
C1055 C1056 1.398 . S
C1055 C1061 1.491 . S
C1056 H1047 0.950 . S
C1056 C1055 1.398 . S
C1056 C1057 1.391 . S
C1057 H1045 0.950 . S
C1057 C1053 1.393 . S
C1057 C1056 1.391 . S
C1058 H1048 0.950 . S
C1058 C1059 1.386 . S
C1058 C1060 1.391 . S
C1059 C1058 1.386 . S
C1059 C1063 1.393 . S
C1060 H1049 0.950 . S
C1060 C1058 1.391 . S
C1060 C1061 1.400 . S
C1061 C1055 1.491 . S
C1061 C1060 1.400 . S
C1061 C1062 1.398 . S
C1062 H1050 0.950 . S
C1062 C1061 1.398 . S
C1062 C1063 1.391 . S
C1063 H1051 0.950 . S
C1063 C1059 1.393 . S
C1063 C1062 1.391 . S
H1064 C1072 0.950 . S
H1065 C1077 0.950 . S
H1066 C1074 0.950 . S
H1067 C1076 0.950 1_455 S
H1068 C1078 0.950 . S
H1069 C1080 0.992 . S
H1070 C1082 0.950 . S
H1071 C1083 0.950 . S
C1072 H1064 0.950 . S
C1072 C1073 1.386 . S
C1072 C1074 1.391 . S
C1073 C1072 1.386 . S
C1073 C1077 1.393 1_655 S
C1074 H1066 0.950 . S
C1074 C1072 1.391 . S
C1074 C1075 1.400 . S
C1075 C1074 1.400 . S
C1075 C1076 1.398 . S
C1075 C1081 1.491 1_554 S
C1076 H1067 0.950 1_655 S
C1076 C1075 1.398 . S
C1076 C1077 1.391 1_655 S
C1077 H1065 0.950 . S
C1077 C1073 1.393 1_455 S
C1077 C1076 1.391 1_455 S
C1078 H1068 0.950 . S
C1078 C1079 1.386 . S
C1078 C1080 1.391 . S
C1079 C1078 1.386 . S
C1079 C1083 1.393 . S
C1080 H1069 0.992 . S
C1080 C1078 1.391 . S
C1080 C1081 1.400 . S
C1081 C1075 1.491 1_556 S
C1081 C1080 1.400 . S
C1081 C1082 1.398 . S
C1082 H1070 0.950 . S
C1082 C1081 1.398 . S
C1082 C1083 1.391 . S
C1083 H1071 0.950 . S
C1083 C1079 1.393 . S
C1083 C1082 1.391 . S
H1084 C1092 0.950 . S
H1085 C1097 0.950 . S
H1086 C1094 0.962 1_655 S
H1087 C1096 0.950 . S
H1088 C1098 0.950 . S
H1089 C1100 0.950 . S
H1090 C1102 0.950 1_655 S
H1091 C1103 0.950 . S
C1092 H1084 0.950 . S
C1092 C1093 1.386 1_655 S
C1092 C1094 1.387 1_655 S
C1093 C1092 1.386 1_455 S
C1093 C1097 1.393 . S
C1094 H1086 0.962 1_455 S
C1094 C1092 1.387 1_455 S
C1094 C1095 1.417 . S
C1095 C1094 1.417 . S
C1095 C1096 1.398 . S
C1095 C1101 1.491 1_554 S
C1096 H1087 0.950 . S
C1096 C1095 1.398 . S
C1096 C1097 1.391 . S
C1097 H1085 0.950 . S
C1097 C1093 1.393 . S
C1097 C1096 1.391 . S
C1098 H1088 0.950 . S
C1098 C1099 1.386 . S
C1098 C1100 1.391 . S
C1099 C1098 1.386 . S
C1099 C1103 1.393 . S
C1100 H1089 0.950 . S
C1100 C1098 1.391 . S
C1100 C1101 1.400 . S
C1101 C1095 1.491 1_556 S
C1101 C1100 1.400 . S
C1101 C1102 1.398 . S
C1102 H1090 0.950 1_455 S
C1102 C1101 1.398 . S
C1102 C1103 1.391 . S
C1103 H1091 0.950 . S
C1103 C1099 1.393 . S
C1103 C1102 1.391 . S
H1104 C1112 0.950 . S
H1105 C1117 0.950 . S
H1106 C1114 0.950 . S
H1107 C1116 0.950 . S
H1108 C1118 0.950 . S
H1109 C1120 0.950 . S
H1110 C1122 0.950 . S
H1111 C1123 0.950 . S
C1112 H1104 0.950 . S
C1112 C1113 1.386 1_545 S
C1112 C1114 1.391 . S
C1113 C1112 1.386 1_565 S
C1113 C1117 1.393 . S
C1114 H1106 0.950 . S
C1114 C1112 1.391 . S
C1114 C1115 1.400 . S
C1115 C1114 1.400 . S
C1115 C1116 1.398 1_545 S
C1115 C1121 1.491 . S
C1116 H1107 0.950 . S
C1116 C1115 1.398 1_565 S
C1116 C1117 1.391 . S
C1117 H1105 0.950 . S
C1117 C1113 1.393 . S
C1117 C1116 1.391 . S
C1118 H1108 0.950 . S
C1118 C1119 1.386 . S
C1118 C1120 1.391 . S
C1119 C1118 1.386 . S
C1119 C1123 1.393 . S
C1120 H1109 0.950 . S
C1120 C1118 1.391 . S
C1120 C1121 1.400 . S
C1121 C1115 1.491 . S
C1121 C1120 1.400 . S
C1121 C1122 1.398 . S
C1122 H1110 0.950 . S
C1122 C1121 1.398 . S
C1122 C1123 1.391 . S
C1123 H1111 0.950 . S
C1123 C1119 1.393 . S
C1123 C1122 1.391 . S
H1124 C1132 0.950 . S
H1125 C1137 0.950 . S
H1126 C1134 0.950 . S
H1127 C1136 0.950 . S
H1128 C1138 0.950 . S
H1129 C1140 0.950 . S
H1130 C1142 0.950 1_545 S
H1131 C1143 0.950 . S
C1132 H1124 0.950 . S
C1132 C1133 1.386 . S
C1132 C1134 1.391 . S
C1133 C1132 1.386 . S
C1133 C1137 1.393 1_545 S
C1134 H1126 0.950 . S
C1134 C1132 1.391 . S
C1134 C1135 1.400 1_545 S
C1135 C1134 1.400 1_565 S
C1135 C1136 1.398 . S
C1135 C1141 1.491 . S
C1136 H1127 0.950 . S
C1136 C1135 1.398 . S
C1136 C1137 1.391 . S
C1137 H1125 0.950 . S
C1137 C1133 1.393 1_565 S
C1137 C1136 1.391 . S
C1138 H1128 0.950 . S
C1138 C1139 1.386 . S
C1138 C1140 1.391 . S
C1139 C1138 1.386 . S
C1139 C1143 1.393 . S
C1140 H1129 0.950 . S
C1140 C1138 1.391 . S
C1140 C1141 1.400 . S
C1141 C1135 1.491 . S
C1141 C1140 1.400 . S
C1141 C1142 1.398 . S
C1142 H1130 0.950 1_565 S
C1142 C1141 1.398 . S
C1142 C1143 1.391 . S
C1143 H1131 0.950 . S
C1143 C1139 1.393 . S
C1143 C1142 1.391 . S
H1144 C1152 0.950 . S
H1145 C1157 0.950 . S
H1146 C1154 0.950 . S
H1147 C1156 0.950 . S
H1148 C1158 0.950 . S
H1149 C1160 0.950 . S
H1150 C1162 0.950 . S
H1151 C1163 0.950 . S
C1152 H1144 0.950 . S
C1152 C1153 1.386 . S
C1152 C1154 1.391 . S
C1153 C1152 1.386 . S
C1153 C1157 1.393 . S
C1154 H1146 0.950 . S
C1154 C1152 1.391 . S
C1154 C1155 1.400 . S
C1155 C1154 1.400 . S
C1155 C1156 1.398 . S
C1155 C1161 1.491 1_554 S
C1156 H1147 0.950 . S
C1156 C1155 1.398 . S
C1156 C1157 1.391 . S
C1157 H1145 0.950 . S
C1157 C1153 1.393 . S
C1157 C1156 1.391 . S
C1158 H1148 0.950 . S
C1158 C1159 1.386 . S
C1158 C1160 1.391 . S
C1159 C1158 1.386 . S
C1159 C1163 1.393 . S
C1160 H1149 0.950 . S
C1160 C1158 1.391 . S
C1160 C1161 1.400 . S
C1161 C1155 1.491 1_556 S
C1161 C1160 1.400 . S
C1161 C1162 1.398 . S
C1162 H1150 0.950 . S
C1162 C1161 1.398 . S
C1162 C1163 1.391 . S
C1163 H1151 0.950 . S
C1163 C1159 1.393 . S
C1163 C1162 1.391 . S
H1164 C1172 0.950 . S
H1165 C1177 0.950 . S
H1166 C1174 0.950 . S
H1167 C1176 0.950 . S
H1168 C1178 0.950 . S
H1169 C1180 0.950 . S
H1170 C1182 0.950 . S
H1171 C1183 0.950 . S
C1172 H1164 0.950 . S
C1172 C1173 1.386 . S
C1172 C1174 1.391 . S
C1173 C1172 1.386 . S
C1173 C1177 1.393 . S
C1174 H1166 0.950 . S
C1174 C1172 1.391 . S
C1174 C1175 1.400 . S
C1175 C1174 1.400 . S
C1175 C1176 1.398 . S
C1175 C1181 1.491 1_554 S
C1176 H1167 0.950 . S
C1176 C1175 1.398 . S
C1176 C1177 1.391 . S
C1177 H1165 0.950 . S
C1177 C1173 1.393 . S
C1177 C1176 1.391 . S
C1178 H1168 0.950 . S
C1178 C1179 1.386 . S
C1178 C1180 1.391 . S
C1179 C1178 1.386 . S
C1179 C1183 1.393 . S
C1180 H1169 0.950 . S
C1180 C1178 1.391 . S
C1180 C1181 1.400 . S
C1181 C1175 1.491 1_556 S
C1181 C1180 1.400 . S
C1181 C1182 1.398 . S
C1182 H1170 0.950 . S
C1182 C1181 1.398 . S
C1182 C1183 1.391 . S
C1183 H1171 0.950 . S
C1183 C1179 1.393 . S
C1183 C1182 1.391 . S
H1184 C1192 0.950 . S
H1185 C1197 0.950 . S
H1186 C1194 0.950 . S
H1187 C1196 0.950 . S
H1188 C1198 0.950 . S
H1189 C1200 0.950 . S
H1190 C1202 0.950 . S
H1191 C1203 0.950 . S
C1192 H1184 0.950 . S
C1192 C1193 1.386 . S
C1192 C1194 1.391 . S
C1193 C1192 1.386 . S
C1193 C1197 1.393 . S
C1194 H1186 0.950 . S
C1194 C1192 1.391 . S
C1194 C1195 1.400 . S
C1195 C1194 1.400 . S
C1195 C1196 1.398 . S
C1195 C1201 1.491 . S
C1196 H1187 0.950 . S
C1196 C1195 1.398 . S
C1196 C1197 1.391 . S
C1197 H1185 0.950 . S
C1197 C1193 1.393 . S
C1197 C1196 1.391 . S
C1198 H1188 0.950 . S
C1198 C1199 1.386 . S
C1198 C1200 1.391 . S
C1199 C1198 1.386 . S
C1199 C1203 1.393 . S
C1200 H1189 0.950 . S
C1200 C1198 1.391 . S
C1200 C1201 1.400 . S
C1201 C1195 1.491 . S
C1201 C1200 1.400 . S
C1201 C1202 1.398 . S
C1202 H1190 0.950 . S
C1202 C1201 1.398 . S
C1202 C1203 1.391 . S
C1203 H1191 0.950 . S
C1203 C1199 1.393 . S
C1203 C1202 1.391 . S
H1204 C1212 0.950 . S
H1205 C1217 0.950 . S
H1206 C1214 0.950 . S
H1207 C1216 0.950 . S
H1208 C1218 0.950 . S
H1209 C1220 0.950 . S
H1210 C1222 0.950 . S
H1211 C1223 0.950 . S
C1212 H1204 0.950 . S
C1212 C1213 1.386 . S
C1212 C1214 1.391 . S
C1213 C1212 1.386 . S
C1213 C1217 1.393 . S
C1214 H1206 0.950 . S
C1214 C1212 1.391 . S
C1214 C1215 1.400 . S
C1215 C1214 1.400 . S
C1215 C1216 1.398 . S
C1215 C1221 1.491 . S
C1216 H1207 0.950 . S
C1216 C1215 1.398 . S
C1216 C1217 1.391 . S
C1217 H1205 0.950 . S
C1217 C1213 1.393 . S
C1217 C1216 1.391 . S
C1218 H1208 0.950 . S
C1218 C1219 1.386 . S
C1218 C1220 1.391 . S
C1219 C1218 1.386 . S
C1219 C1223 1.393 . S
C1220 H1209 0.950 . S
C1220 C1218 1.391 . S
C1220 C1221 1.400 . S
C1221 C1215 1.491 . S
C1221 C1220 1.400 . S
C1221 C1222 1.398 . S
C1222 H1210 0.950 . S
C1222 C1221 1.398 . S
C1222 C1223 1.391 . S
C1223 H1211 0.950 . S
C1223 C1219 1.393 . S
C1223 C1222 1.391 . S
H1224 C1232 0.950 . S
H1225 C1237 0.950 . S
H1226 C1234 0.950 . S
H1227 C1236 0.950 . S
H1228 C1238 0.950 . S
H1229 C1240 0.950 . S
H1230 C1242 0.950 . S
H1231 C1243 0.950 . S
C1232 H1224 0.950 . S
C1232 C1233 1.386 . S
C1232 C1234 1.391 . S
C1233 C1232 1.386 . S
C1233 C1237 1.393 . S
C1234 H1226 0.950 . S
C1234 C1232 1.391 . S
C1234 C1235 1.400 . S
C1235 C1234 1.400 . S
C1235 C1236 1.398 . S
C1235 C1241 1.491 . S
C1236 H1227 0.950 . S
C1236 C1235 1.398 . S
C1236 C1237 1.391 . S
C1237 H1225 0.950 . S
C1237 C1233 1.393 . S
C1237 C1236 1.391 . S
C1238 H1228 0.950 . S
C1238 C1239 1.386 . S
C1238 C1240 1.391 . S
C1239 C1238 1.386 . S
C1239 C1243 1.393 . S
C1240 H1229 0.950 . S
C1240 C1238 1.391 . S
C1240 C1241 1.400 . S
C1241 C1235 1.491 . S
C1241 C1240 1.400 . S
C1241 C1242 1.398 . S
C1242 H1230 0.950 . S
C1242 C1241 1.398 . S
C1242 C1243 1.391 . S
C1243 H1231 0.950 . S
C1243 C1239 1.393 . S
C1243 C1242 1.391 . S
H1244 C1252 0.950 . S
H1245 C1257 0.950 . S
H1246 C1254 0.950 . S
H1247 C1256 0.950 . S
H1248 C1258 0.950 . S
H1249 C1260 0.950 . S
H1250 C1262 0.950 . S
H1251 C1263 0.950 . S
C1252 H1244 0.950 . S
C1252 C1253 1.386 . S
C1252 C1254 1.391 . S
C1253 C1252 1.386 . S
C1253 C1257 1.393 . S
C1254 H1246 0.950 . S
C1254 C1252 1.391 . S
C1254 C1255 1.400 . S
C1255 C1254 1.400 . S
C1255 C1256 1.398 . S
C1255 C1261 1.491 . S
C1256 H1247 0.950 . S
C1256 C1255 1.398 . S
C1256 C1257 1.391 . S
C1257 H1245 0.950 . S
C1257 C1253 1.393 . S
C1257 C1256 1.391 . S
C1258 H1248 0.950 . S
C1258 C1259 1.386 . S
C1258 C1260 1.391 . S
C1259 C1258 1.386 . S
C1259 C1263 1.393 . S
C1260 H1249 0.950 . S
C1260 C1258 1.391 . S
C1260 C1261 1.400 . S
C1261 C1255 1.491 . S
C1261 C1260 1.400 . S
C1261 C1262 1.398 . S
C1262 H1250 0.950 . S
C1262 C1261 1.398 . S
C1262 C1263 1.391 . S
C1263 H1251 0.950 . S
C1263 C1259 1.393 . S
C1263 C1262 1.391 . S
H1264 C1272 0.950 . S
H1265 C1277 0.950 . S
H1266 C1274 0.950 . S
H1267 C1276 0.950 . S
H1268 C1278 0.950 . S
H1269 C1280 0.950 . S
H1270 C1282 0.950 . S
H1271 C1283 0.950 . S
C1272 H1264 0.950 . S
C1272 C1273 1.386 . S
C1272 C1274 1.391 . S
C1273 C1272 1.386 . S
C1273 C1277 1.393 . S
C1274 H1266 0.950 . S
C1274 C1272 1.391 . S
C1274 C1275 1.400 . S
C1275 C1274 1.400 . S
C1275 C1276 1.398 . S
C1275 C1281 1.491 . S
C1276 H1267 0.950 . S
C1276 C1275 1.398 . S
C1276 C1277 1.391 . S
C1277 H1265 0.950 . S
C1277 C1273 1.393 . S
C1277 C1276 1.391 . S
C1278 H1268 0.950 . S
C1278 C1279 1.386 . S
C1278 C1280 1.391 . S
C1279 C1278 1.386 . S
C1279 C1283 1.393 . S
C1280 H1269 0.950 . S
C1280 C1278 1.391 . S
C1280 C1281 1.400 . S
C1281 C1275 1.491 . S
C1281 C1280 1.400 . S
C1281 C1282 1.398 . S
C1282 H1270 0.950 . S
C1282 C1281 1.398 . S
C1282 C1283 1.391 . S
C1283 H1271 0.950 . S
C1283 C1279 1.393 . S
C1283 C1282 1.391 . S
H1284 C1292 0.950 . S
H1285 C1297 0.950 . S
H1286 C1294 0.950 . S
H1287 C1296 0.950 . S
H1288 C1298 0.950 . S
H1289 C1300 0.950 . S
H1290 C1302 0.950 . S
H1291 C1303 0.950 . S
C1292 H1284 0.950 . S
C1292 C1293 1.386 . S
C1292 C1294 1.391 . S
C1293 C1292 1.386 . S
C1293 C1297 1.393 . S
C1294 H1286 0.950 . S
C1294 C1292 1.391 . S
C1294 C1295 1.400 . S
C1295 C1294 1.400 . S
C1295 C1296 1.398 . S
C1295 C1301 1.491 . S
C1296 H1287 0.950 . S
C1296 C1295 1.398 . S
C1296 C1297 1.391 . S
C1297 H1285 0.950 . S
C1297 C1293 1.393 . S
C1297 C1296 1.391 . S
C1298 H1288 0.950 . S
C1298 C1299 1.386 . S
C1298 C1300 1.391 . S
C1299 C1298 1.386 . S
C1299 C1303 1.393 . S
C1300 H1289 0.950 . S
C1300 C1298 1.391 . S
C1300 C1301 1.400 . S
C1301 C1295 1.491 . S
C1301 C1300 1.400 . S
C1301 C1302 1.398 . S
C1302 H1290 0.950 . S
C1302 C1301 1.398 . S
C1302 C1303 1.391 . S
C1303 H1291 0.950 . S
C1303 C1299 1.393 . S
C1303 C1302 1.391 . S
H1304 C1312 0.950 . S
H1305 C1317 0.950 . S
H1306 C1314 0.950 . S
H1307 C1316 0.950 . S
H1308 C1318 0.950 . S
H1309 C1320 0.950 . S
H1310 C1322 0.950 . S
H1311 C1323 0.950 . S
C1312 H1304 0.950 . S
C1312 C1313 1.386 . S
C1312 C1314 1.391 . S
C1313 C1312 1.386 . S
C1313 C1317 1.393 . S
C1314 H1306 0.950 . S
C1314 C1312 1.391 . S
C1314 C1315 1.400 . S
C1315 C1314 1.400 . S
C1315 C1316 1.398 . S
C1315 C1321 1.491 . S
C1316 H1307 0.950 . S
C1316 C1315 1.398 . S
C1316 C1317 1.391 . S
C1317 H1305 0.950 . S
C1317 C1313 1.393 . S
C1317 C1316 1.391 . S
C1318 H1308 0.950 . S
C1318 C1319 1.386 . S
C1318 C1320 1.391 . S
C1319 C1318 1.386 . S
C1319 C1323 1.393 . S
C1320 H1309 0.950 . S
C1320 C1318 1.391 . S
C1320 C1321 1.400 . S
C1321 C1315 1.491 . S
C1321 C1320 1.400 . S
C1321 C1322 1.398 . S
C1322 H1310 0.950 . S
C1322 C1321 1.398 . S
C1322 C1323 1.391 . S
C1323 H1311 0.950 . S
C1323 C1319 1.393 . S
C1323 C1322 1.391 . S
H1324 C1332 0.950 . S
H1325 C1337 0.950 . S
H1326 C1334 0.950 . S
H1327 C1336 0.950 . S
H1328 C1338 0.950 . S
H1329 C1340 0.950 . S
H1330 C1342 0.950 . S
H1331 C1343 0.950 . S
C1332 H1324 0.950 . S
C1332 C1333 1.386 . S
C1332 C1334 1.391 . S
C1333 C1332 1.386 . S
C1333 C1337 1.393 . S
C1334 H1326 0.950 . S
C1334 C1332 1.391 . S
C1334 C1335 1.400 . S
C1335 C1334 1.400 . S
C1335 C1336 1.398 . S
C1335 C1341 1.491 . S
C1336 H1327 0.950 . S
C1336 C1335 1.398 . S
C1336 C1337 1.391 . S
C1337 H1325 0.950 . S
C1337 C1333 1.393 . S
C1337 C1336 1.391 . S
C1338 H1328 0.950 . S
C1338 C1339 1.386 . S
C1338 C1340 1.391 . S
C1339 C1338 1.386 . S
C1339 C1343 1.393 . S
C1340 H1329 0.950 . S
C1340 C1338 1.391 . S
C1340 C1341 1.400 . S
C1341 C1335 1.491 . S
C1341 C1340 1.400 . S
C1341 C1342 1.398 . S
C1342 H1330 0.950 . S
C1342 C1341 1.398 . S
C1342 C1343 1.391 . S
C1343 H1331 0.950 . S
C1343 C1339 1.393 . S
C1343 C1342 1.391 . S
H1344 C1352 0.950 . S
H1345 C1357 0.950 . S
H1346 C1354 0.950 . S
H1347 C1356 0.950 . S
H1348 C1358 0.950 . S
H1349 C1360 0.950 . S
H1350 C1362 0.950 . S
H1351 C1363 0.950 . S
C1352 H1344 0.950 . S
C1352 C1353 1.386 . S
C1352 C1354 1.391 . S
C1353 C1352 1.386 . S
C1353 C1357 1.393 . S
C1354 H1346 0.950 . S
C1354 C1352 1.391 . S
C1354 C1355 1.400 . S
C1355 C1354 1.400 . S
C1355 C1356 1.398 . S
C1355 C1361 1.491 . S
C1356 H1347 0.950 . S
C1356 C1355 1.398 . S
C1356 C1357 1.391 . S
C1357 H1345 0.950 . S
C1357 C1353 1.393 . S
C1357 C1356 1.391 . S
C1358 H1348 0.950 . S
C1358 C1359 1.386 . S
C1358 C1360 1.391 . S
C1359 C1358 1.386 . S
C1359 C1363 1.393 . S
C1360 H1349 0.950 . S
C1360 C1358 1.391 . S
C1360 C1361 1.400 . S
C1361 C1355 1.491 . S
C1361 C1360 1.400 . S
C1361 C1362 1.398 . S
C1362 H1350 0.950 . S
C1362 C1361 1.398 . S
C1362 C1363 1.391 . S
C1363 H1351 0.950 . S
C1363 C1359 1.393 . S
C1363 C1362 1.391 . S
H1364 C1372 0.950 . S
H1365 C1377 0.950 . S
H1366 C1374 0.950 . S
H1367 C1376 0.950 . S
H1368 C1378 0.950 . S
H1369 C1380 0.950 . S
H1370 C1382 0.950 . S
H1371 C1383 0.950 . S
C1372 H1364 0.950 . S
C1372 C1373 1.386 . S
C1372 C1374 1.391 . S
C1373 C1372 1.386 . S
C1373 C1377 1.393 . S
C1374 H1366 0.950 . S
C1374 C1372 1.391 . S
C1374 C1375 1.400 . S
C1375 C1374 1.400 . S
C1375 C1376 1.398 . S
C1375 C1381 1.491 . S
C1376 H1367 0.950 . S
C1376 C1375 1.398 . S
C1376 C1377 1.391 . S
C1377 H1365 0.950 . S
C1377 C1373 1.393 . S
C1377 C1376 1.391 . S
C1378 H1368 0.950 . S
C1378 C1379 1.386 . S
C1378 C1380 1.391 . S
C1379 C1378 1.386 . S
C1379 C1383 1.393 . S
C1380 H1369 0.950 . S
C1380 C1378 1.391 . S
C1380 C1381 1.400 . S
C1381 C1375 1.491 . S
C1381 C1380 1.400 . S
C1381 C1382 1.398 . S
C1382 H1370 0.950 . S
C1382 C1381 1.398 . S
C1382 C1383 1.391 . S
C1383 H1371 0.950 . S
C1383 C1379 1.393 . S
C1383 C1382 1.391 . S
H1384 C1392 0.950 . S
H1385 C1397 0.950 . S
H1386 C1394 0.950 . S
H1387 C1396 0.950 . S
H1388 C1398 0.950 . S
H1389 C1400 0.950 . S
H1390 C1402 0.950 . S
H1391 C1403 0.950 . S
C1392 H1384 0.950 . S
C1392 C1393 1.386 . S
C1392 C1394 1.391 . S
C1393 C1392 1.386 . S
C1393 C1397 1.393 . S
C1394 H1386 0.950 . S
C1394 C1392 1.391 . S
C1394 C1395 1.400 . S
C1395 C1394 1.400 . S
C1395 C1396 1.398 . S
C1395 C1401 1.491 . S
C1396 H1387 0.950 . S
C1396 C1395 1.398 . S
C1396 C1397 1.391 . S
C1397 H1385 0.950 . S
C1397 C1393 1.393 . S
C1397 C1396 1.391 . S
C1398 H1388 0.950 . S
C1398 C1399 1.386 . S
C1398 C1400 1.391 . S
C1399 C1398 1.386 . S
C1399 C1403 1.393 . S
C1400 H1389 0.950 . S
C1400 C1398 1.391 . S
C1400 C1401 1.400 . S
C1401 C1395 1.491 . S
C1401 C1400 1.400 . S
C1401 C1402 1.398 . S
C1402 H1390 0.950 . S
C1402 C1401 1.398 . S
C1402 C1403 1.391 . S
C1403 H1391 0.950 . S
C1403 C1399 1.393 . S
C1403 C1402 1.391 . S
H1404 C1412 0.950 . S
H1405 C1417 0.950 . S
H1406 C1414 0.950 . S
H1407 C1416 0.950 . S
H1408 C1418 0.950 . S
H1409 C1420 0.950 . S
H1410 C1422 0.950 . S
H1411 C1423 0.950 . S
C1412 H1404 0.950 . S
C1412 C1413 1.386 . S
C1412 C1414 1.391 . S
C1413 C1412 1.386 . S
C1413 C1417 1.393 . S
C1414 H1406 0.950 . S
C1414 C1412 1.391 . S
C1414 C1415 1.400 . S
C1415 C1414 1.400 . S
C1415 C1416 1.398 . S
C1415 C1421 1.491 . S
C1416 H1407 0.950 . S
C1416 C1415 1.398 . S
C1416 C1417 1.391 . S
C1417 H1405 0.950 . S
C1417 C1413 1.393 . S
C1417 C1416 1.391 . S
C1418 H1408 0.950 . S
C1418 C1419 1.386 . S
C1418 C1420 1.391 . S
C1419 C1418 1.386 . S
C1419 C1423 1.393 . S
C1420 H1409 0.950 . S
C1420 C1418 1.391 . S
C1420 C1421 1.400 . S
C1421 C1415 1.491 . S
C1421 C1420 1.400 . S
C1421 C1422 1.398 . S
C1422 H1410 0.950 . S
C1422 C1421 1.398 . S
C1422 C1423 1.391 . S
C1423 H1411 0.950 . S
C1423 C1419 1.393 . S
C1423 C1422 1.391 . S
H1424 C1432 0.950 . S
H1425 C1437 0.950 . S
H1426 C1434 0.950 . S
H1427 C1436 0.950 . S
H1428 C1438 0.950 . S
H1429 C1440 0.950 . S
H1430 C1442 0.950 . S
H1431 C1443 0.950 . S
C1432 H1424 0.950 . S
C1432 C1433 1.386 . S
C1432 C1434 1.391 . S
C1433 C1432 1.386 . S
C1433 C1437 1.393 . S
C1434 H1426 0.950 . S
C1434 C1432 1.391 . S
C1434 C1435 1.400 . S
C1435 C1434 1.400 . S
C1435 C1436 1.398 . S
C1435 C1441 1.491 . S
C1436 H1427 0.950 . S
C1436 C1435 1.398 . S
C1436 C1437 1.391 . S
C1437 H1425 0.950 . S
C1437 C1433 1.393 . S
C1437 C1436 1.391 . S
C1438 H1428 0.950 . S
C1438 C1439 1.386 . S
C1438 C1440 1.391 . S
C1439 C1438 1.386 . S
C1439 C1443 1.393 . S
C1440 H1429 0.950 . S
C1440 C1438 1.391 . S
C1440 C1441 1.400 . S
C1441 C1435 1.491 . S
C1441 C1440 1.400 . S
C1441 C1442 1.398 . S
C1442 H1430 0.950 . S
C1442 C1441 1.398 . S
C1442 C1443 1.391 . S
C1443 H1431 0.950 . S
C1443 C1439 1.393 . S
C1443 C1442 1.391 . S
H1444 C1452 0.950 . S
H1445 C1457 0.950 . S
H1446 C1454 0.950 . S
H1447 C1456 0.950 . S
H1448 C1458 0.950 . S
H1449 C1460 0.950 . S
H1450 C1462 0.950 . S
H1451 C1463 0.950 . S
C1452 H1444 0.950 . S
C1452 C1453 1.386 . S
C1452 C1454 1.391 . S
C1453 C1452 1.386 . S
C1453 C1457 1.393 . S
C1454 H1446 0.950 . S
C1454 C1452 1.391 . S
C1454 C1455 1.400 . S
C1455 C1454 1.400 . S
C1455 C1456 1.398 . S
C1455 C1461 1.491 . S
C1456 H1447 0.950 . S
C1456 C1455 1.398 . S
C1456 C1457 1.391 . S
C1457 H1445 0.950 . S
C1457 C1453 1.393 . S
C1457 C1456 1.391 . S
C1458 H1448 0.950 . S
C1458 C1459 1.386 . S
C1458 C1460 1.391 . S
C1459 C1458 1.386 . S
C1459 C1463 1.393 . S
C1460 H1449 0.950 . S
C1460 C1458 1.391 . S
C1460 C1461 1.400 . S
C1461 C1455 1.491 . S
C1461 C1460 1.400 . S
C1461 C1462 1.398 . S
C1462 H1450 0.950 . S
C1462 C1461 1.398 . S
C1462 C1463 1.391 . S
C1463 H1451 0.950 . S
C1463 C1459 1.393 . S
C1463 C1462 1.391 . S
H1464 C1472 0.950 . S
H1465 C1477 0.950 . S
H1466 C1474 0.950 . S
H1467 C1476 0.950 . S
H1468 C1478 0.950 . S
H1469 C1480 0.950 . S
H1470 C1482 0.950 . S
H1471 C1483 0.950 . S
C1472 H1464 0.950 . S
C1472 C1473 1.386 . S
C1472 C1474 1.391 . S
C1473 C1472 1.386 . S
C1473 C1477 1.393 . S
C1474 H1466 0.950 . S
C1474 C1472 1.391 . S
C1474 C1475 1.400 . S
C1475 C1474 1.400 . S
C1475 C1476 1.398 . S
C1475 C1481 1.491 . S
C1476 H1467 0.950 . S
C1476 C1475 1.398 . S
C1476 C1477 1.391 . S
C1477 H1465 0.950 . S
C1477 C1473 1.393 . S
C1477 C1476 1.391 . S
C1478 H1468 0.950 . S
C1478 C1479 1.386 . S
C1478 C1480 1.391 . S
C1479 C1478 1.386 . S
C1479 C1483 1.393 . S
C1480 H1469 0.950 . S
C1480 C1478 1.391 . S
C1480 C1481 1.400 . S
C1481 C1475 1.491 . S
C1481 C1480 1.400 . S
C1481 C1482 1.398 . S
C1482 H1470 0.950 . S
C1482 C1481 1.398 . S
C1482 C1483 1.391 . S
C1483 H1471 0.950 . S
C1483 C1479 1.393 . S
C1483 C1482 1.391 . S
H1484 C1492 0.950 . S
H1485 C1497 0.950 . S
H1486 C1494 0.950 . S
H1487 C1496 0.950 . S
H1488 C1498 0.950 . S
H1489 C1500 0.950 . S
H1490 C1502 0.950 . S
H1491 C1503 0.950 . S
C1492 H1484 0.950 . S
C1492 C1493 1.386 . S
C1492 C1494 1.391 . S
C1493 C1492 1.386 . S
C1493 C1497 1.393 . S
C1494 H1486 0.950 . S
C1494 C1492 1.391 . S
C1494 C1495 1.400 . S
C1495 C1494 1.400 . S
C1495 C1496 1.398 . S
C1495 C1501 1.491 . S
C1496 H1487 0.950 . S
C1496 C1495 1.398 . S
C1496 C1497 1.391 . S
C1497 H1485 0.950 . S
C1497 C1493 1.393 . S
C1497 C1496 1.391 . S
C1498 H1488 0.950 . S
C1498 C1499 1.386 . S
C1498 C1500 1.391 . S
C1499 C1498 1.386 . S
C1499 C1503 1.393 . S
C1500 H1489 0.950 . S
C1500 C1498 1.391 . S
C1500 C1501 1.400 . S
C1501 C1495 1.491 . S
C1501 C1500 1.400 . S
C1501 C1502 1.398 . S
C1502 H1490 0.950 . S
C1502 C1501 1.398 . S
C1502 C1503 1.391 . S
C1503 H1491 0.950 . S
C1503 C1499 1.393 . S
C1503 C1502 1.391 . S
H1504 C1512 0.950 . S
H1505 C1517 0.950 . S
H1506 C1514 0.950 . S
H1507 C1516 0.950 . S
H1508 C1518 0.950 . S
H1509 C1520 0.950 . S
H1510 C1522 0.950 . S
H1511 C1523 0.950 . S
C1512 H1504 0.950 . S
C1512 C1513 1.386 . S
C1512 C1514 1.391 . S
C1513 C1512 1.386 . S
C1513 C1517 1.393 . S
C1514 H1506 0.950 . S
C1514 C1512 1.391 . S
C1514 C1515 1.400 . S
C1515 C1514 1.400 . S
C1515 C1516 1.398 . S
C1515 C1521 1.491 . S
C1516 H1507 0.950 . S
C1516 C1515 1.398 . S
C1516 C1517 1.391 . S
C1517 H1505 0.950 . S
C1517 C1513 1.393 . S
C1517 C1516 1.391 . S
C1518 H1508 0.950 . S
C1518 C1519 1.386 . S
C1518 C1520 1.391 . S
C1519 C1518 1.386 . S
C1519 C1523 1.393 . S
C1520 H1509 0.950 . S
C1520 C1518 1.391 . S
C1520 C1521 1.400 . S
C1521 C1515 1.491 . S
C1521 C1520 1.400 . S
C1521 C1522 1.398 . S
C1522 H1510 0.950 . S
C1522 C1521 1.398 . S
C1522 C1523 1.391 . S
C1523 H1511 0.950 . S
C1523 C1519 1.393 . S
C1523 C1522 1.391 . S
H1524 C1532 0.950 . S
H1525 C1537 0.950 . S
H1526 C1534 0.950 . S
H1527 C1536 0.950 . S
H1528 C1538 0.950 . S
H1529 C1540 0.950 . S
H1530 C1542 0.950 . S
H1531 C1543 0.950 . S
C1532 H1524 0.950 . S
C1532 C1533 1.386 . S
C1532 C1534 1.391 . S
C1533 C1532 1.386 . S
C1533 C1537 1.393 . S
C1534 H1526 0.950 . S
C1534 C1532 1.391 . S
C1534 C1535 1.400 . S
C1535 C1534 1.400 . S
C1535 C1536 1.398 . S
C1535 C1541 1.491 . S
C1536 H1527 0.950 . S
C1536 C1535 1.398 . S
C1536 C1537 1.391 . S
C1537 H1525 0.950 . S
C1537 C1533 1.393 . S
C1537 C1536 1.391 . S
C1538 H1528 0.950 . S
C1538 C1539 1.386 . S
C1538 C1540 1.391 . S
C1539 C1538 1.386 . S
C1539 C1543 1.393 . S
C1540 H1529 0.950 . S
C1540 C1538 1.391 . S
C1540 C1541 1.400 . S
C1541 C1535 1.491 . S
C1541 C1540 1.400 . S
C1541 C1542 1.398 . S
C1542 H1530 0.950 . S
C1542 C1541 1.398 . S
C1542 C1543 1.391 . S
C1543 H1531 0.950 . S
C1543 C1539 1.393 . S
C1543 C1542 1.391 . S
H1544 C1552 0.950 . S
H1545 C1557 0.950 . S
H1546 C1554 0.950 . S
H1547 C1556 0.950 . S
H1548 C1558 0.950 . S
H1549 C1560 0.950 . S
H1550 C1562 0.950 . S
H1551 C1563 0.950 . S
C1552 H1544 0.950 . S
C1552 C1553 1.386 . S
C1552 C1554 1.391 . S
C1553 C1552 1.386 . S
C1553 C1557 1.393 . S
C1554 H1546 0.950 . S
C1554 C1552 1.391 . S
C1554 C1555 1.400 . S
C1555 C1554 1.400 . S
C1555 C1556 1.398 . S
C1555 C1561 1.491 . S
C1556 H1547 0.950 . S
C1556 C1555 1.398 . S
C1556 C1557 1.391 . S
C1557 H1545 0.950 . S
C1557 C1553 1.393 . S
C1557 C1556 1.391 . S
C1558 H1548 0.950 . S
C1558 C1559 1.386 . S
C1558 C1560 1.391 . S
C1559 C1558 1.386 . S
C1559 C1563 1.393 . S
C1560 H1549 0.950 . S
C1560 C1558 1.391 . S
C1560 C1561 1.400 . S
C1561 C1555 1.491 . S
C1561 C1560 1.400 . S
C1561 C1562 1.398 . S
C1562 H1550 0.950 . S
C1562 C1561 1.398 . S
C1562 C1563 1.391 . S
C1563 H1551 0.950 . S
C1563 C1559 1.393 . S
C1563 C1562 1.391 . S
H1564 C1572 0.950 . S
H1565 C1577 0.950 . S
H1566 C1574 0.950 . S
H1567 C1576 0.950 . S
H1568 C1578 0.950 . S
H1569 C1580 0.950 . S
H1570 C1582 0.950 . S
H1571 C1583 0.950 . S
C1572 H1564 0.950 . S
C1572 C1573 1.386 . S
C1572 C1574 1.391 . S
C1573 C1572 1.386 . S
C1573 C1577 1.393 . S
C1574 H1566 0.950 . S
C1574 C1572 1.391 . S
C1574 C1575 1.400 . S
C1575 C1574 1.400 . S
C1575 C1576 1.398 . S
C1575 C1581 1.491 . S
C1576 H1567 0.950 . S
C1576 C1575 1.398 . S
C1576 C1577 1.391 . S
C1577 H1565 0.950 . S
C1577 C1573 1.393 . S
C1577 C1576 1.391 . S
C1578 H1568 0.950 . S
C1578 C1579 1.386 . S
C1578 C1580 1.391 . S
C1579 C1578 1.386 . S
C1579 C1583 1.393 . S
C1580 H1569 0.950 . S
C1580 C1578 1.391 . S
C1580 C1581 1.400 . S
C1581 C1575 1.491 . S
C1581 C1580 1.400 . S
C1581 C1582 1.398 . S
C1582 H1570 0.950 . S
C1582 C1581 1.398 . S
C1582 C1583 1.391 . S
C1583 H1571 0.950 . S
C1583 C1579 1.393 . S
C1583 C1582 1.391 . S
C473 C416 2.259 . S
C479 C3 2.322 1_565 S
C493 C445 2.252 . S
C499 C32 2.313 1_545 S
C513 C61 2.324 . S
C519 C242 2.258 . S
C533 C271 2.256 . S
C539 C90 2.316 . S
C553 C119 2.317 . S
C559 C300 2.244 . S
C573 C329 2.252 . S
C579 C148 2.314 . S
C593 C358 2.258 . S
C599 C177 2.325 . S
C613 C206 2.316 . S
C619 C387 2.246 . S
C633 C235 2.321 1_565 S
C639 C184 2.248 . S
C653 C264 2.314 1_545 S
C659 C213 2.247 . S
C673 C293 2.317 . S
C679 C10 2.246 . S
C693 C322 2.318 . S
C699 C39 2.262 . S
C713 C351 2.322 . S
C719 C68 2.249 . S
C733 C97 2.263 . S
C739 C380 2.319 . S
C753 C126 2.244 . S
C759 C409 2.316 . S
C773 C155 2.263 . S
C779 C438 2.321 . S
C793 C385 0.766 . S
C799 C8 0.773 . S
C813 C356 0.774 . S
C819 C37 0.777 . S
C833 C66 0.756 . S
C839 C95 0.785 . S
C853 C124 0.789 . S
C859 C269 0.760 . S
C873 C240 0.785 . S
C879 C153 0.756 . S
C893 C182 0.791 . S
C899 C211 0.757 . S
C913 C327 0.773 . S
C919 C298 0.766 . S
C933 C414 0.780 . S
C939 C443 0.760 . S
C953 C274 2.309 . S
C959 C5 2.562 . S
C973 C34 2.571 . S
C979 C245 2.322 . S
C993 C63 2.564 . S
C999 C216 2.307 . S
C1013 C187 2.321 . S
C1019 C92 2.570 . S
C1033 C121 2.572 . S
C1039 C390 2.328 . S
C1053 C361 2.327 . S
C1059 C150 2.575 . S
C1073 C100 2.319 . S
C1079 C179 2.569 . S
C1093 C71 2.299 . S
C1099 C208 2.561 . S
C1113 C42 2.322 . S
C1119 C237 2.573 . S
C1133 C13 2.313 . S
C1139 C266 2.569 . S
C1153 C448 2.306 . S
C1159 C295 2.563 . S
C1173 C419 2.327 . S
C1179 C324 2.572 . S
C1193 C353 2.564 . S
C1199 C158 2.305 . S
C1213 C129 2.311 . S
C1219 C382 2.563 . S
C1233 C411 2.572 . S
C1239 C332 2.327 . S
C1253 C303 2.323 . S
C1259 C440 2.571 . S
C1273 C224 0.933 . S
C1279 C15 0.998 . S
C1293 C44 1.039 . S
C1299 C195 0.989 . S
C1313 C73 1.008 . S
C1319 C398 0.947 . S
C1333 C102 1.006 . S
C1339 C369 0.942 . S
C1353 C131 1.048 . S
C1359 C108 0.996 . S
C1373 C79 0.936 . S
C1379 C160 0.998 . S
C1393 C189 0.995 . S
C1399 C282 0.932 . S
C1413 C253 0.981 . S
C1419 C218 1.034 . S
C1433 C247 1.029 . S
C1439 C456 0.975 . S
C1453 C276 1.006 . S
C1459 C427 0.943 . S
C1473 C305 1.037 . S
C1479 C166 0.981 . S
C1493 C137 0.975 . S
C1499 C334 1.029 . S
C1513 C340 1.000 . S
C1519 C363 1.053 . S
C1533 C311 1.000 . S
C1539 C392 1.053 . S
C1553 C421 0.997 . S
C1559 C50 0.933 . S
C1573 C450 1.036 . S
C1579 C21 0.982 . S
