# Generated by pormake.
# Topology yfk, (5)-cn, num edge types: 1
# Building blocks:
#     Node 0, Type 0, BuildingBlock: BEQFEK_clean_sbu_0, # of connection points: 5
#     Node 1, Type 0, BuildingBlock: BEQFEK_clean_sbu_0, # of connection points: 5
#     Node 2, Type 0, BuildingBlock: BEQFEK_clean_sbu_0, # of connection points: 5
#     Node 3, Type 0, BuildingBlock: BEQFEK_clean_sbu_0, # of connection points: 5
#     Node 4, Type 0, BuildingBlock: BEQFEK_clean_sbu_0, # of connection points: 5
#     Node 5, Type 0, BuildingBlock: BEQFEK_clean_sbu_0, # of connection points: 5
#     Node 6, Type 0, BuildingBlock: BEQFEK_clean_sbu_0, # of connection points: 5
#     Node 7, Type 0, BuildingBlock: BEQFEK_clean_sbu_0, # of connection points: 5
#     Node 8, Type 0, BuildingBlock: BEQFEK_clean_sbu_0, # of connection points: 5
#     Node 9, Type 0, BuildingBlock: BEQFEK_clean_sbu_0, # of connection points: 5
#     Node 10, Type 0, BuildingBlock: BEQFEK_clean_sbu_0, # of connection points: 5
#     Node 11, Type 0, BuildingBlock: BEQFEK_clean_sbu_0, # of connection points: 5
#     Node 12, Type 0, BuildingBlock: BEQFEK_clean_sbu_0, # of connection points: 5
#     Node 13, Type 0, BuildingBlock: BEQFEK_clean_sbu_0, # of connection points: 5
#     Node 14, Type 0, BuildingBlock: BEQFEK_clean_sbu_0, # of connection points: 5
#     Node 15, Type 0, BuildingBlock: BEQFEK_clean_sbu_0, # of connection points: 5
#     Edge 16, Type (0, 0), BuildingBlock: UVAHIK_clean_linker_0, # of connection points: 2
#     Edge 17, Type (0, 0), BuildingBlock: UVAHIK_clean_linker_0, # of connection points: 2
#     Edge 18, Type (0, 0), BuildingBlock: UVAHIK_clean_linker_0, # of connection points: 2
#     Edge 19, Type (0, 0), BuildingBlock: UVAHIK_clean_linker_0, # of connection points: 2
#     Edge 20, Type (0, 0), BuildingBlock: UVAHIK_clean_linker_0, # of connection points: 2
#     Edge 21, Type (0, 0), BuildingBlock: UVAHIK_clean_linker_0, # of connection points: 2
#     Edge 22, Type (0, 0), BuildingBlock: UVAHIK_clean_linker_0, # of connection points: 2
#     Edge 23, Type (0, 0), BuildingBlock: UVAHIK_clean_linker_0, # of connection points: 2
#     Edge 24, Type (0, 0), BuildingBlock: UVAHIK_clean_linker_0, # of connection points: 2
#     Edge 25, Type (0, 0), BuildingBlock: UVAHIK_clean_linker_0, # of connection points: 2
#     Edge 26, Type (0, 0), BuildingBlock: UVAHIK_clean_linker_0, # of connection points: 2
#     Edge 27, Type (0, 0), BuildingBlock: UVAHIK_clean_linker_0, # of connection points: 2
#     Edge 28, Type (0, 0), BuildingBlock: UVAHIK_clean_linker_0, # of connection points: 2
#     Edge 29, Type (0, 0), BuildingBlock: UVAHIK_clean_linker_0, # of connection points: 2
#     Edge 30, Type (0, 0), BuildingBlock: UVAHIK_clean_linker_0, # of connection points: 2
#     Edge 31, Type (0, 0), BuildingBlock: UVAHIK_clean_linker_0, # of connection points: 2
#     Edge 32, Type (0, 0), BuildingBlock: UVAHIK_clean_linker_0, # of connection points: 2
#     Edge 33, Type (0, 0), BuildingBlock: UVAHIK_clean_linker_0, # of connection points: 2
#     Edge 34, Type (0, 0), BuildingBlock: UVAHIK_clean_linker_0, # of connection points: 2
#     Edge 35, Type (0, 0), BuildingBlock: UVAHIK_clean_linker_0, # of connection points: 2
#     Edge 36, Type (0, 0), BuildingBlock: UVAHIK_clean_linker_0, # of connection points: 2
#     Edge 37, Type (0, 0), BuildingBlock: UVAHIK_clean_linker_0, # of connection points: 2
#     Edge 38, Type (0, 0), BuildingBlock: UVAHIK_clean_linker_0, # of connection points: 2
#     Edge 39, Type (0, 0), BuildingBlock: UVAHIK_clean_linker_0, # of connection points: 2
#     Edge 40, Type (0, 0), BuildingBlock: UVAHIK_clean_linker_0, # of connection points: 2
#     Edge 41, Type (0, 0), BuildingBlock: UVAHIK_clean_linker_0, # of connection points: 2
#     Edge 42, Type (0, 0), BuildingBlock: UVAHIK_clean_linker_0, # of connection points: 2
#     Edge 43, Type (0, 0), BuildingBlock: UVAHIK_clean_linker_0, # of connection points: 2
#     Edge 44, Type (0, 0), BuildingBlock: UVAHIK_clean_linker_0, # of connection points: 2
#     Edge 45, Type (0, 0), BuildingBlock: UVAHIK_clean_linker_0, # of connection points: 2
#     Edge 46, Type (0, 0), BuildingBlock: UVAHIK_clean_linker_0, # of connection points: 2
#     Edge 47, Type (0, 0), BuildingBlock: UVAHIK_clean_linker_0, # of connection points: 2
#     Edge 48, Type (0, 0), BuildingBlock: UVAHIK_clean_linker_0, # of connection points: 2
#     Edge 49, Type (0, 0), BuildingBlock: UVAHIK_clean_linker_0, # of connection points: 2
#     Edge 50, Type (0, 0), BuildingBlock: UVAHIK_clean_linker_0, # of connection points: 2
#     Edge 51, Type (0, 0), BuildingBlock: UVAHIK_clean_linker_0, # of connection points: 2
#     Edge 52, Type (0, 0), BuildingBlock: UVAHIK_clean_linker_0, # of connection points: 2
#     Edge 53, Type (0, 0), BuildingBlock: UVAHIK_clean_linker_0, # of connection points: 2
#     Edge 54, Type (0, 0), BuildingBlock: UVAHIK_clean_linker_0, # of connection points: 2
#     Edge 55, Type (0, 0), BuildingBlock: UVAHIK_clean_linker_0, # of connection points: 2
# Relax obj value: 0.369
# Max RMSD: 0.206
# Mean RMSD: 0.206
data_MOF--net-yfk--node1-BEQFEK_clean_sbu_0--edge1-UVAHIK_clean_linker_0
_symmetry_space_group_name_H-M    P1
_symmetry_Int_Tables_number       1
_symmetry_cell_setting            triclinic
loop_
_symmetry_equiv_pos_as_xyz
'x, y, z'
_cell_length_a     66.635546
_cell_length_b     66.603579
_cell_length_c     35.56575
_cell_angle_alpha  90.017564
_cell_angle_beta   90.009726
_cell_angle_gamma 89.994859
loop_
_atom_site_label
_atom_site_type_symbol
_atom_site_fract_x
_atom_site_fract_y
_atom_site_fract_z
_atom_type_partial_charge
Co0 Co 0.09908 0.05713 0.31167 0.0
Co1 Co 0.08869 0.0994 0.27833 0.0
C2 C 0.0697 0.06223 0.24778 0.0
O3 O 0.0797 0.05201 0.27142 0.0
O4 O 0.07124 0.08134 0.2464 0.0
C5 C 0.11723 0.01635 0.3167 0.0
O6 O 0.12515 0.01803 0.28306 0.0
C7 C 0.08615 0.13639 0.23021 0.0
C8 C 0.08364 0.1592 0.27515 0.0
C9 C 0.08431 0.15697 0.23651 0.0
N10 N 0.08661 0.12704 0.2638 0.0
N11 N 0.0851 0.14084 0.29037 0.0
C12 C 0.08683 0.12572 0.19325 0.0
H13 H 0.07727 0.13354 0.17229 0.0
H14 H 0.08186 0.10992 0.1965 0.0
H15 H 0.10249 0.12564 0.1827 0.0
C16 C 0.14034 0.07204 0.30125 0.0
N17 N 0.12048 0.07333 0.29475 0.0
N18 N 0.1163 0.09104 0.28017 0.0
C19 C 0.13356 0.10152 0.2768 0.0
C20 C 0.14934 0.08978 0.28978 0.0
C21 C 0.14986 0.05594 0.32468 0.0
H22 H 0.1392 0.05059 0.34637 0.0
H23 H 0.154 0.04316 0.30628 0.0
H24 H 0.16368 0.06137 0.33882 0.0
O25 O 0.08626 0.07035 0.35492 0.0
O26 O 0.0784 0.09989 0.3307 0.0
H27 H 0.12715 0.13246 0.28718 0.0
H28 H 0.15048 0.12818 0.26248 0.0
C29 C 0.1347 0.12312 0.26556 0.0
H30 H 0.12678 0.12527 0.23848 0.0
H31 H 0.0852 0.13777 0.31912 0.0
O32 O 0.10725 0.03066 0.33107 0.0
C33 C 0.07874 0.08778 0.35829 0.0
Co34 Co 0.06106 0.88624 0.69565 0.0
Co35 Co 0.10136 0.90201 0.72963 0.0
C36 C 0.06069 0.9152 0.75902 0.0
O37 O 0.05163 0.90385 0.73588 0.0
O38 O 0.07983 0.91619 0.75972 0.0
C39 C 0.01961 0.87692 0.67802 0.0
O40 O 0.01509 0.88761 0.70788 0.0
C41 C 0.13652 0.90219 0.78139 0.0
C42 C 0.15578 0.92435 0.75241 0.0
C43 C 0.15497 0.91183 0.78336 0.0
N44 N 0.12695 0.90866 0.75034 0.0
N45 N 0.13857 0.92192 0.73329 0.0
C46 C 0.1275 0.88841 0.80994 0.0
H47 H 0.11196 0.88421 0.80184 0.0
H48 H 0.13676 0.87467 0.81267 0.0
H49 H 0.12739 0.89592 0.8378 0.0
C50 C 0.08077 0.8477 0.70471 0.0
N51 N 0.07979 0.86729 0.71336 0.0
N52 N 0.09752 0.87354 0.72486 0.0
C53 C 0.11063 0.8581 0.72203 0.0
C54 C 0.10037 0.84119 0.70936 0.0
C55 C 0.06401 0.83634 0.6865 0.0
H56 H 0.06259 0.84115 0.65674 0.0
H57 H 0.04968 0.83974 0.70107 0.0
H58 H 0.06678 0.81991 0.68738 0.0
O59 O 0.07352 0.90195 0.65445 0.0
O60 O 0.10216 0.91295 0.67827 0.0
H61 H 0.13726 0.87576 0.71329 0.0
H62 H 0.1405 0.84918 0.70495 0.0
C63 C 0.13297 0.86053 0.72291 0.0
H64 H 0.13834 0.85841 0.75211 0.0
H65 H 0.13475 0.92939 0.70852 0.0
O66 O 0.03792 0.87353 0.67036 0.0
C67 C 0.08995 0.91149 0.65099 0.0
Co68 Co 0.88534 0.94022 0.30017 0.0
Co69 Co 0.89512 0.89735 0.26835 0.0
C70 C 0.91295 0.93395 0.2337 0.0
O71 O 0.90328 0.94459 0.25722 0.0
O72 O 0.91186 0.91479 0.23394 0.0
C73 C 0.88488 0.98272 0.31192 0.0
O74 O 0.89923 0.98263 0.2866 0.0
C75 C 0.89886 0.85907 0.22446 0.0
C76 C 0.89428 0.83755 0.27103 0.0
C77 C 0.89753 0.83867 0.23269 0.0
N78 N 0.89635 0.86941 0.25667 0.0
N79 N 0.89382 0.85639 0.28429 0.0
C80 C 0.90103 0.86866 0.1867 0.0
H81 H 0.8946 0.88403 0.18706 0.0
H82 H 0.89355 0.85945 0.16478 0.0
H83 H 0.91722 0.86979 0.17969 0.0
C84 C 0.84425 0.9251 0.29448 0.0
N85 N 0.86389 0.92351 0.28646 0.0
N86 N 0.86762 0.90571 0.27199 0.0
C87 C 0.8502 0.89541 0.27009 0.0
C88 C 0.83483 0.90728 0.2845 0.0
C89 C 0.83568 0.94201 0.31717 0.0
H90 H 0.84486 0.94416 0.3429 0.0
H91 H 0.83657 0.95607 0.30052 0.0
H92 H 0.81989 0.93932 0.32547 0.0
O93 O 0.90024 0.92813 0.34245 0.0
O94 O 0.90686 0.89799 0.31938 0.0
H95 H 0.85365 0.86404 0.28066 0.0
H96 H 0.8326 0.87018 0.25102 0.0
C97 C 0.84841 0.87402 0.25773 0.0
H98 H 0.85787 0.87143 0.23256 0.0
H99 H 0.89135 0.86041 0.31227 0.0
O100 O 0.87593 0.96639 0.31967 0.0
C101 C 0.9078 0.91072 0.34592 0.0
Co102 Co 0.94553 0.10561 0.70333 0.0
Co103 Co 0.90183 0.09536 0.72939 0.0
C104 C 0.93677 0.07587 0.76579 0.0
O105 O 0.94819 0.08595 0.74425 0.0
O106 O 0.91771 0.07766 0.76408 0.0
C107 C 0.98648 0.12529 0.69965 0.0
O108 O 0.98305 0.13756 0.72781 0.0
C109 C 0.86274 0.09236 0.77023 0.0
C110 C 0.84204 0.09478 0.72183 0.0
C111 C 0.84249 0.09309 0.76059 0.0
N112 N 0.87362 0.09375 0.73845 0.0
N113 N 0.8611 0.09496 0.70972 0.0
C114 C 0.87169 0.09209 0.80877 0.0
H115 H 0.88719 0.09819 0.80812 0.0
H116 H 0.86231 0.10093 0.82857 0.0
H117 H 0.87235 0.07636 0.81894 0.0
C118 C 0.92952 0.14685 0.70795 0.0
N119 N 0.92851 0.12716 0.71636 0.0
N120 N 0.91046 0.12295 0.72937 0.0
C121 C 0.8997 0.14012 0.73087 0.0
C122 C 0.91137 0.15578 0.71722 0.0
C123 C 0.9455 0.15593 0.68367 0.0
H124 H 0.95316 0.14419 0.66692 0.0
H125 H 0.9566 0.1637 0.70177 0.0
H126 H 0.93908 0.1672 0.66409 0.0
O127 O 0.93457 0.09279 0.65818 0.0
O128 O 0.90403 0.08476 0.67736 0.0
H129 H 0.86872 0.1352 0.71845 0.0
H130 H 0.87344 0.15706 0.74705 0.0
C131 C 0.87804 0.1413 0.74161 0.0
H132 H 0.87537 0.13227 0.76727 0.0
H133 H 0.86559 0.09643 0.68175 0.0
O134 O 0.97304 0.11318 0.68841 0.0
C135 C 0.91746 0.08508 0.65199 0.0
Co136 Co 0.11021 0.43988 0.95323 0.0
Co137 Co 0.10246 0.39578 0.98035 0.0
C138 C 0.08236 0.43075 0.01756 0.0
O139 O 0.09188 0.44249 0.9958 0.0
O140 O 0.08439 0.4117 0.01522 0.0
C141 C 0.10146 0.4773 0.92878 0.0
O142 O 0.08394 0.46943 0.93718 0.0
C143 C 0.10082 0.35759 0.02427 0.0
C144 C 0.10407 0.33581 0.97773 0.0
C145 C 0.10194 0.33712 0.01636 0.0
N146 N 0.10228 0.36775 0.99167 0.0
N147 N 0.10409 0.35459 0.96406 0.0
C148 C 0.09978 0.36749 0.06195 0.0
H149 H 0.1061 0.3829 0.06042 0.0
H150 H 0.10804 0.35854 0.08325 0.0
H151 H 0.08385 0.36863 0.07072 0.0
C152 C 0.15203 0.42692 0.95855 0.0
N153 N 0.13249 0.42415 0.96625 0.0
N154 N 0.12956 0.40567 0.97819 0.0
C155 C 0.1474 0.39607 0.97848 0.0
C156 C 0.16222 0.40915 0.96582 0.0
C157 C 0.15976 0.44498 0.93806 0.0
H158 H 0.15141 0.44671 0.91125 0.0
H159 H 0.15683 0.45859 0.95523 0.0
H160 H 0.17603 0.44394 0.93194 0.0
O161 O 0.09639 0.42777 0.90984 0.0
O162 O 0.0913 0.39651 0.9287 0.0
H163 H 0.14408 0.3653 0.96284 0.0
H164 H 0.16605 0.37038 0.99093 0.0
C165 C 0.14999 0.37421 0.98673 0.0
H166 H 0.14146 0.37019 0.01238 0.0
H167 H 0.10563 0.35846 0.93578 0.0
O168 O 0.11719 0.46717 0.9358 0.0
C169 C 0.08993 0.41012 0.9038 0.0
Co170 Co 0.44222 0.89189 0.04023 0.0
Co171 Co 0.39951 0.90673 0.01647 0.0
C172 C 0.43733 0.92152 0.97839 0.0
O173 O 0.44808 0.90997 0.99839 0.0
O174 O 0.41829 0.92213 0.98232 0.0
C175 C 0.48273 0.8914 0.06031 0.0
O176 O 0.48173 0.90909 0.04408 0.0
C177 C 0.36125 0.90701 0.97301 0.0
C178 C 0.34268 0.9259 0.01047 0.0
C179 C 0.34218 0.91522 0.97713 0.0
N180 N 0.37239 0.91253 0.00288 0.0
N181 N 0.36115 0.92384 0.025 0.0
C182 C 0.36922 0.89544 0.9402 0.0
H183 H 0.38586 0.89465 0.94137 0.0
H184 H 0.36311 0.87997 0.94058 0.0
H185 H 0.36434 0.90262 0.91356 0.0
C186 C 0.42293 0.85289 0.03566 0.0
N187 N 0.42293 0.8725 0.02695 0.0
N188 N 0.40449 0.87836 0.01938 0.0
C189 C 0.39199 0.86262 0.02476 0.0
C190 C 0.40332 0.84593 0.03516 0.0
C191 C 0.44103 0.84189 0.04967 0.0
H192 H 0.44435 0.84671 0.07889 0.0
H193 H 0.45419 0.84566 0.0319 0.0
H194 H 0.43861 0.8254 0.04923 0.0
O195 O 0.43239 0.90707 0.08463 0.0
O196 O 0.40208 0.9173 0.06787 0.0
H197 H 0.36583 0.8792 0.04163 0.0
H198 H 0.36324 0.8523 0.04577 0.0
C199 C 0.36969 0.8646 0.02856 0.0
H200 H 0.36275 0.86394 0.00029 0.0
H201 H 0.36608 0.9302 0.05016 0.0
O202 O 0.46749 0.87995 0.05886 0.0
C203 C 0.41605 0.91613 0.09206 0.0
Co204 Co 0.89532 0.55851 0.94833 0.0
Co205 Co 0.91121 0.59923 0.98093 0.0
C206 C 0.92546 0.55926 0.01062 0.0
O207 O 0.91391 0.55014 0.98787 0.0
O208 O 0.92641 0.57844 0.01138 0.0
C209 C 0.88547 0.51661 0.93489 0.0
O210 O 0.89717 0.51252 0.96361 0.0
C211 C 0.91604 0.63513 0.03077 0.0
C212 C 0.92638 0.65718 0.98855 0.0
C213 C 0.92163 0.65516 0.02621 0.0
N214 N 0.91729 0.62596 0.99708 0.0
N215 N 0.9236 0.63926 0.97218 0.0
C216 C 0.91041 0.62461 0.06638 0.0
H217 H 0.91903 0.63081 0.09044 0.0
H218 H 0.91317 0.60824 0.06373 0.0
H219 H 0.8942 0.62688 0.07201 0.0
C220 C 0.85662 0.57783 0.96116 0.0
N221 N 0.87654 0.57721 0.96682 0.0
N222 N 0.88281 0.59473 0.97931 0.0
C223 C 0.86695 0.60734 0.98076 0.0
C224 C 0.84979 0.59699 0.9696 0.0
C225 C 0.84531 0.56162 0.94105 0.0
H226 H 0.85119 0.56021 0.91197 0.0
H227 H 0.8478 0.5471 0.95559 0.0
H228 H 0.82899 0.56468 0.93974 0.0
O229 O 0.90997 0.57017 0.90506 0.0
O230 O 0.9207 0.59901 0.9285 0.0
H231 H 0.87943 0.636 0.96685 0.0
H232 H 0.85389 0.6371 0.98431 0.0
C233 C 0.86862 0.62948 0.98719 0.0
H234 H 0.87442 0.63223 0.01588 0.0
H235 H 0.92579 0.63622 0.94372 0.0
O236 O 0.88205 0.53481 0.92635 0.0
C237 C 0.91908 0.5868 0.90129 0.0
Co238 Co 0.56141 0.11259 0.04526 0.0
Co239 Co 0.6028 0.09697 0.01516 0.0
C240 C 0.56364 0.08174 0.98388 0.0
O241 O 0.55391 0.09321 0.00596 0.0
O242 O 0.58283 0.08154 0.98373 0.0
C243 C 0.51937 0.12047 0.06071 0.0
O244 O 0.5155 0.1068 0.03509 0.0
C245 C 0.6393 0.09098 0.96742 0.0
C246 C 0.66122 0.08345 0.01189 0.0
C247 C 0.65939 0.08608 0.97347 0.0
N248 N 0.62989 0.0913 0.00094 0.0
N249 N 0.64314 0.08674 0.02725 0.0
C250 C 0.62898 0.09467 0.93073 0.0
H251 H 0.63556 0.0851 0.90833 0.0
H252 H 0.61266 0.09168 0.93334 0.0
H253 H 0.63097 0.11063 0.92266 0.0
C254 C 0.58065 0.15141 0.03362 0.0
N255 N 0.5802 0.13149 0.02775 0.0
N256 N 0.59792 0.12532 0.0162 0.0
C257 C 0.6104 0.14129 0.01504 0.0
C258 C 0.59987 0.15838 0.02599 0.0
C259 C 0.56418 0.16251 0.05341 0.0
H260 H 0.56242 0.15633 0.08219 0.0
H261 H 0.54985 0.16013 0.03814 0.0
H262 H 0.56714 0.17883 0.05551 0.0
O263 O 0.57267 0.0984 0.08916 0.0
O264 O 0.6015 0.0869 0.06729 0.0
H265 H 0.6394 0.13032 0.03054 0.0
H266 H 0.63974 0.15483 0.00846 0.0
C267 C 0.63252 0.13982 0.00839 0.0
H268 H 0.63526 0.13256 0.98086 0.0
H269 H 0.63991 0.08602 0.0559 0.0
O270 O 0.53742 0.12577 0.06641 0.0
C271 C 0.58894 0.0888 0.09388 0.0
Co272 Co 0.6143 0.55981 0.7998 0.0
Co273 Co 0.60396 0.60238 0.76755 0.0
C274 C 0.58731 0.5651 0.73254 0.0
O275 O 0.59698 0.55457 0.75626 0.0
O276 O 0.588 0.58429 0.73301 0.0
C277 C 0.61655 0.51725 0.81434 0.0
O278 O 0.60282 0.5156 0.78802 0.0
C279 C 0.60037 0.64029 0.72249 0.0
C280 C 0.60319 0.66218 0.76899 0.0
C281 C 0.60107 0.66077 0.73041 0.0
N282 N 0.60217 0.63019 0.75511 0.0
N283 N 0.60364 0.64343 0.78267 0.0
C284 C 0.59956 0.63046 0.68475 0.0
H285 H 0.60606 0.61513 0.6862 0.0
H286 H 0.60773 0.63959 0.6636 0.0
H287 H 0.58366 0.62918 0.67579 0.0
C288 C 0.65517 0.57582 0.79528 0.0
N289 N 0.63555 0.57697 0.78669 0.0
N290 N 0.63157 0.59469 0.77212 0.0
C291 C 0.64877 0.60538 0.77076 0.0
C292 C 0.66427 0.59385 0.78561 0.0
C293 C 0.66393 0.5591 0.81818 0.0
H294 H 0.6549 0.55708 0.84411 0.0
H295 H 0.66304 0.54492 0.80186 0.0
H296 H 0.67975 0.56192 0.82618 0.0
O297 O 0.5987 0.57175 0.84123 0.0
O298 O 0.59193 0.60187 0.81833 0.0
H299 H 0.64415 0.63664 0.78093 0.0
H300 H 0.66598 0.63112 0.75283 0.0
C301 C 0.65017 0.6268 0.75846 0.0
H302 H 0.64117 0.62906 0.73261 0.0
H303 H 0.60546 0.63964 0.81093 0.0
O304 O 0.62421 0.53434 0.82112 0.0
C305 C 0.59096 0.58907 0.84469 0.0
Co306 Co 0.55783 0.38772 0.20102 0.0
Co307 Co 0.60029 0.40203 0.22859 0.0
C308 C 0.56239 0.41967 0.26025 0.0
O309 O 0.55205 0.40795 0.23972 0.0
O310 O 0.58156 0.41936 0.25934 0.0
C311 C 0.51539 0.38298 0.19053 0.0
O312 O 0.51409 0.39711 0.21618 0.0
C313 C 0.63772 0.40794 0.27387 0.0
C314 C 0.65934 0.41277 0.22762 0.0
C315 C 0.65793 0.41163 0.26636 0.0
N316 N 0.62784 0.40683 0.24089 0.0
N317 N 0.64092 0.4098 0.2135 0.0
C318 C 0.62776 0.4061 0.31139 0.0
H319 H 0.6351 0.41613 0.33221 0.0
H320 H 0.61157 0.40978 0.30911 0.0
H321 H 0.62911 0.39039 0.32143 0.0
C322 C 0.57625 0.34838 0.21181 0.0
N323 N 0.57624 0.36828 0.21817 0.0
N324 N 0.59409 0.37395 0.22995 0.0
C325 C 0.60613 0.35766 0.23123 0.0
C326 C 0.59528 0.3409 0.21958 0.0
C327 C 0.55965 0.33792 0.19121 0.0
H328 H 0.5575 0.34516 0.16341 0.0
H329 H 0.54548 0.33965 0.20726 0.0
H330 H 0.56268 0.32174 0.18688 0.0
O331 O 0.56871 0.40101 0.15574 0.0
O332 O 0.59879 0.41045 0.17549 0.0
H333 H 0.63567 0.36684 0.21535 0.0
H334 H 0.63483 0.34326 0.24056 0.0
C335 C 0.62822 0.35851 0.23847 0.0
H336 H 0.63104 0.36664 0.26511 0.0
H337 H 0.63732 0.40965 0.18497 0.0
O338 O 0.53249 0.37561 0.18286 0.0
C339 C 0.58565 0.40914 0.14975 0.0
Co340 Co 0.39931 0.44713 0.79445 0.0
Co341 Co 0.41054 0.40399 0.76606 0.0
C342 C 0.42865 0.4404 0.73102 0.0
O343 O 0.41843 0.45124 0.75336 0.0
O344 O 0.42743 0.42128 0.73197 0.0
C345 C 0.37965 0.48786 0.79951 0.0
O346 O 0.36863 0.48513 0.76935 0.0
C347 C 0.41307 0.36594 0.72128 0.0
C348 C 0.41772 0.34432 0.76762 0.0
C349 C 0.41576 0.34559 0.72898 0.0
N350 N 0.41329 0.37606 0.75409 0.0
N351 N 0.41614 0.36298 0.78152 0.0
C352 C 0.41102 0.37573 0.68364 0.0
H353 H 0.41553 0.39173 0.6852 0.0
H354 H 0.39509 0.37509 0.67462 0.0
H355 H 0.42025 0.36774 0.6624 0.0
C356 C 0.35844 0.43053 0.78899 0.0
N357 N 0.37813 0.4298 0.78064 0.0
N358 N 0.38267 0.41174 0.76797 0.0
C359 C 0.36577 0.40054 0.7674 0.0
C360 C 0.34988 0.4121 0.78049 0.0
C361 C 0.34901 0.44675 0.81226 0.0
H362 H 0.36035 0.45388 0.83066 0.0
H363 H 0.34248 0.45825 0.79333 0.0
H364 H 0.33675 0.44077 0.83016 0.0
O365 O 0.41267 0.43558 0.83859 0.0
O366 O 0.42144 0.40549 0.81796 0.0
H367 H 0.37361 0.37026 0.78078 0.0
H368 H 0.34961 0.37284 0.75752 0.0
C369 C 0.36523 0.37857 0.75878 0.0
H370 H 0.37259 0.3758 0.73136 0.0
H371 H 0.41688 0.36676 0.80995 0.0
O372 O 0.39124 0.47415 0.81145 0.0
C373 C 0.42083 0.41859 0.84394 0.0
Co374 Co 0.43645 0.61117 0.18671 0.0
Co375 Co 0.39499 0.5963 0.21742 0.0
C376 C 0.43384 0.58023 0.24799 0.0
O377 O 0.44354 0.59166 0.22585 0.0
O378 O 0.41465 0.58002 0.24838 0.0
C379 C 0.4788 0.61932 0.17489 0.0
O380 O 0.4821 0.60718 0.20332 0.0
C381 C 0.35834 0.5916 0.26511 0.0
C382 C 0.33561 0.5889 0.22008 0.0
C383 C 0.33781 0.59001 0.25867 0.0
N384 N 0.36774 0.59168 0.23159 0.0
N385 N 0.35402 0.58975 0.20497 0.0
C386 C 0.36867 0.59505 0.30185 0.0
H387 H 0.38386 0.60144 0.29724 0.0
H388 H 0.35963 0.60525 0.31982 0.0
H389 H 0.37023 0.58049 0.31673 0.0
C390 C 0.41843 0.65046 0.20062 0.0
N391 N 0.41835 0.63043 0.20512 0.0
N392 N 0.40063 0.62458 0.21727 0.0
C393 C 0.3887 0.64092 0.2202 0.0
C394 C 0.3996 0.65784 0.20983 0.0
C395 C 0.43502 0.66155 0.18126 0.0
H396 H 0.44939 0.65854 0.19599 0.0
H397 H 0.43234 0.67797 0.18052 0.0
H398 H 0.43647 0.65592 0.15202 0.0
O399 O 0.42463 0.59758 0.14257 0.0
O400 O 0.3956 0.58681 0.16482 0.0
H401 H 0.35904 0.63134 0.20598 0.0
H402 H 0.36003 0.65543 0.22936 0.0
C403 C 0.36668 0.64017 0.2282 0.0
H404 H 0.36416 0.63264 0.25555 0.0
H405 H 0.35714 0.58982 0.17624 0.0
O406 O 0.46086 0.62371 0.16602 0.0
C407 C 0.408 0.58859 0.13794 0.0
Co408 Co 0.60291 0.94476 0.45726 0.0
Co409 Co 0.58856 0.90279 0.48684 0.0
C410 C 0.57335 0.94097 0.52098 0.0
O411 O 0.58419 0.95092 0.49822 0.0
O412 O 0.57329 0.92178 0.52064 0.0
C413 C 0.60341 0.98519 0.43591 0.0
O414 O 0.58527 0.98415 0.45024 0.0
C415 C 0.58446 0.86521 0.53225 0.0
C416 C 0.57672 0.84393 0.48677 0.0
C417 C 0.58015 0.84508 0.52507 0.0
N418 N 0.58375 0.87529 0.49946 0.0
N419 N 0.57902 0.86244 0.47256 0.0
C420 C 0.58858 0.8749 0.56939 0.0
H421 H 0.58484 0.89112 0.56828 0.0
H422 H 0.60477 0.87346 0.57607 0.0
H423 H 0.57984 0.86745 0.59199 0.0
C424 C 0.64226 0.92618 0.46577 0.0
N425 N 0.62246 0.9262 0.47279 0.0
N426 N 0.61681 0.90827 0.48424 0.0
C427 C 0.63303 0.8961 0.48414 0.0
C428 C 0.6497 0.90706 0.47255 0.0
C429 C 0.65272 0.94301 0.44586 0.0
H430 H 0.64574 0.94521 0.41783 0.0
H431 H 0.65069 0.95709 0.46209 0.0
H432 H 0.66897 0.94013 0.4421 0.0
O433 O 0.5885 0.93382 0.41326 0.0
O434 O 0.57761 0.90478 0.4354 0.0
H435 H 0.62226 0.86703 0.46845 0.0
H436 H 0.64724 0.86693 0.48853 0.0
C437 C 0.63213 0.87388 0.49007 0.0
H438 H 0.62559 0.87072 0.51806 0.0
H439 H 0.57761 0.86622 0.44423 0.0
O440 O 0.61483 0.96998 0.43841 0.0
C441 C 0.579 0.91745 0.40885 0.0
Co442 Co 0.94169 0.39075 0.54785 0.0
Co443 Co 0.89875 0.4022 0.51846 0.0
C444 C 0.93601 0.42034 0.48511 0.0
O445 O 0.94688 0.4098 0.50695 0.0
O446 O 0.91683 0.41943 0.48613 0.0
C447 C 0.98429 0.38746 0.56313 0.0
O448 O 0.98649 0.40212 0.53877 0.0
C449 C 0.86095 0.40523 0.4731 0.0
C450 C 0.83897 0.40518 0.51968 0.0
C451 C 0.84046 0.40538 0.48091 0.0
N452 N 0.87097 0.40475 0.50599 0.0
N453 N 0.85767 0.40496 0.53356 0.0
C454 C 0.87084 0.40371 0.43549 0.0
H455 H 0.88625 0.39756 0.43844 0.0
H456 H 0.86183 0.39409 0.41636 0.0
H457 H 0.87187 0.41892 0.42293 0.0
C458 C 0.92587 0.35018 0.5378 0.0
N459 N 0.92452 0.37005 0.53175 0.0
N460 N 0.90644 0.37449 0.51939 0.0
C461 C 0.89561 0.35739 0.51759 0.0
C462 C 0.90753 0.34143 0.52928 0.0
C463 C 0.94311 0.34065 0.55811 0.0
H464 H 0.9445 0.34746 0.58648 0.0
H465 H 0.95721 0.34377 0.54258 0.0
H466 H 0.94128 0.3242 0.56116 0.0
O467 O 0.92981 0.40466 0.59155 0.0
O468 O 0.89947 0.41219 0.57062 0.0
H469 H 0.86526 0.36401 0.53252 0.0
H470 H 0.86829 0.34083 0.50669 0.0
C471 C 0.8736 0.35656 0.50942 0.0
H472 H 0.87044 0.36467 0.48289 0.0
H473 H 0.86134 0.4043 0.56204 0.0
O474 O 0.96701 0.37992 0.56825 0.0
C475 C 0.91249 0.41215 0.59665 0.0
Co476 Co 0.39623 0.06108 0.44535 0.0
Co477 Co 0.40104 0.10453 0.4779 0.0
C478 C 0.41976 0.06941 0.51606 0.0
O479 O 0.41199 0.05799 0.49141 0.0
O480 O 0.41755 0.08845 0.51486 0.0
C481 C 0.38142 0.01877 0.43332 0.0
O482 O 0.3686 0.01956 0.46128 0.0
C483 C 0.4009 0.14242 0.52337 0.0
C484 C 0.39585 0.16424 0.47747 0.0
C485 C 0.39858 0.16284 0.51595 0.0
N486 N 0.39952 0.13237 0.4906 0.0
N487 N 0.39663 0.14556 0.4634 0.0
C488 C 0.40316 0.13243 0.56076 0.0
H489 H 0.39727 0.11686 0.55953 0.0
H490 H 0.39517 0.14105 0.5829 0.0
H491 H 0.41932 0.13174 0.56812 0.0
C492 C 0.35344 0.07328 0.4439 0.0
N493 N 0.37264 0.07599 0.45461 0.0
N494 N 0.37452 0.09383 0.47032 0.0
C495 C 0.35634 0.10278 0.47085 0.0
C496 C 0.34244 0.0901 0.45409 0.0
C497 C 0.34651 0.05669 0.41862 0.0
H498 H 0.35917 0.05088 0.40163 0.0
H499 H 0.34029 0.04436 0.43602 0.0
H500 H 0.33448 0.06195 0.39942 0.0
O501 O 0.41195 0.07454 0.40609 0.0
O502 O 0.4148 0.1054 0.42846 0.0
H503 H 0.3572 0.13455 0.4631 0.0
H504 H 0.33625 0.1259 0.49065 0.0
C505 C 0.35246 0.1236 0.48482 0.0
H506 H 0.36116 0.12638 0.51086 0.0
H507 H 0.39499 0.14177 0.4351 0.0
O508 O 0.39208 0.03389 0.42476 0.0
C509 C 0.41799 0.09253 0.40278 0.0
Co510 Co 0.06008 0.61405 0.54484 0.0
Co511 Co 0.101 0.59542 0.51889 0.0
C512 C 0.06186 0.58152 0.48621 0.0
O513 O 0.05234 0.59384 0.50699 0.0
O514 O 0.081 0.58055 0.487 0.0
C515 C 0.01832 0.62231 0.55845 0.0
O516 O 0.01503 0.60817 0.53347 0.0
C517 C 0.13776 0.58837 0.47318 0.0
C518 C 0.15877 0.57904 0.518 0.0
C519 C 0.15763 0.5828 0.47978 0.0
N520 N 0.12789 0.58816 0.50619 0.0
N521 N 0.14053 0.5824 0.5327 0.0
C522 C 0.128 0.59329 0.43645 0.0
H523 H 0.1116 0.5905 0.43804 0.0
H524 H 0.13028 0.60943 0.43008 0.0
H525 H 0.13468 0.58424 0.41341 0.0
C526 C 0.08159 0.65149 0.53162 0.0
N527 N 0.08005 0.63153 0.52687 0.0
N528 N 0.09772 0.62406 0.51798 0.0
C529 C 0.11123 0.63917 0.51779 0.0
C530 C 0.10145 0.65706 0.5263 0.0
C531 C 0.06531 0.66402 0.54868 0.0
H532 H 0.05103 0.6613 0.53348 0.0
H533 H 0.06891 0.68026 0.54771 0.0
H534 H 0.06316 0.65947 0.57843 0.0
O535 O 0.07024 0.60081 0.5907 0.0
O536 O 0.09818 0.58612 0.57125 0.0
H537 H 0.13834 0.62553 0.53751 0.0
H538 H 0.14172 0.65053 0.51854 0.0
C539 C 0.13345 0.63617 0.51535 0.0
H540 H 0.13725 0.62961 0.48766 0.0
H541 H 0.13683 0.58109 0.56109 0.0
O542 O 0.03617 0.62838 0.56386 0.0
C543 C 0.08554 0.58995 0.59697 0.0
C544 C 0.0886 0.31904 0.07335 0.0
C545 C 0.10123 0.31952 0.04176 0.0
C546 C 0.08662 0.30141 0.09448 0.0
C547 C 0.09296 0.24643 0.08588 0.0
H548 H 0.08988 0.2472 0.19466 0.0
C549 C 0.09608 0.17445 0.17775 0.0
C550 C 0.08379 0.174 0.2098 0.0
C551 C 0.09741 0.19192 0.15595 0.0
C552 C 0.09046 0.24675 0.16424 0.0
H553 H 0.12206 0.30212 0.0081 0.0
H554 H 0.11885 0.27158 0.04513 0.0
H555 H 0.09428 0.2786 0.16046 0.0
H556 H 0.06276 0.19115 0.24344 0.0
H557 H 0.06483 0.22139 0.20523 0.0
H558 H 0.08919 0.21455 0.08969 0.0
C559 C 0.1102 0.28464 0.0533 0.0
C560 C 0.093 0.26476 0.14467 0.0
C561 C 0.11213 0.30219 0.03223 0.0
C562 C 0.07242 0.19108 0.21893 0.0
C563 C 0.07371 0.20846 0.1972 0.0
C564 C 0.09042 0.22841 0.10546 0.0
C565 C 0.09718 0.28392 0.08432 0.0
C566 C 0.09433 0.26481 0.10526 0.0
C567 C 0.08654 0.20925 0.16593 0.0
C568 C 0.08912 0.22836 0.14488 0.0
H569 H 0.07957 0.33193 0.08083 0.0
H570 H 0.07629 0.30127 0.11797 0.0
H571 H 0.09358 0.24598 0.05546 0.0
H572 H 0.10545 0.16176 0.17054 0.0
H573 H 0.10761 0.19211 0.13224 0.0
C574 C 0.17941 0.89052 0.81889 0.0
C575 C 0.17135 0.90951 0.81081 0.0
C576 C 0.19715 0.88885 0.83982 0.0
C577 C 0.23034 0.91642 0.90469 0.0
H578 H 0.2736 0.88606 0.85888 0.0
C579 C 0.31152 0.92984 0.94867 0.0
C580 C 0.32416 0.91319 0.95329 0.0
C581 C 0.29286 0.92776 0.93141 0.0
C582 C 0.26162 0.89436 0.87235 0.0
H583 H 0.17497 0.94152 0.81877 0.0
H584 H 0.20558 0.93865 0.85598 0.0
H585 H 0.23988 0.88459 0.83179 0.0
H586 H 0.3273 0.88126 0.94322 0.0
H587 H 0.29454 0.87754 0.91292 0.0
H588 H 0.25188 0.92631 0.9451 0.0
C589 C 0.19829 0.92505 0.84637 0.0
C590 C 0.24231 0.89348 0.85689 0.0
C591 C 0.18081 0.92671 0.82505 0.0
C592 C 0.31808 0.89446 0.93918 0.0
C593 C 0.29924 0.89231 0.92208 0.0
C594 C 0.24954 0.9172 0.92026 0.0
C595 C 0.20689 0.90615 0.8533 0.0
C596 C 0.22661 0.90487 0.87245 0.0
C597 C 0.28623 0.90887 0.91886 0.0
C598 C 0.26554 0.90659 0.90374 0.0
H599 H 0.17268 0.87707 0.80734 0.0
H600 H 0.20347 0.87411 0.8448 0.0
H601 H 0.21845 0.92512 0.91757 0.0
H602 H 0.31589 0.94447 0.95923 0.0
H603 H 0.28347 0.94094 0.92849 0.0
C604 C 0.88666 0.80423 0.21539 0.0
C605 C 0.8988 0.82097 0.20777 0.0
C606 C 0.88921 0.78636 0.19557 0.0
C607 C 0.91241 0.76417 0.11057 0.0
H608 H 0.90908 0.71496 0.16869 0.0
C609 C 0.93501 0.68803 0.04786 0.0
C610 C 0.92139 0.67216 0.05302 0.0
C611 C 0.93313 0.70577 0.0684 0.0
C612 C 0.90991 0.72856 0.15206 0.0
H613 H 0.92308 0.83221 0.1732 0.0
H614 H 0.92769 0.80086 0.13848 0.0
H615 H 0.90365 0.7472 0.19955 0.0
H616 H 0.89517 0.66246 0.08424 0.0
H617 H 0.89214 0.69333 0.12077 0.0
H618 H 0.91884 0.74547 0.06314 0.0
C619 C 0.9159 0.80168 0.15937 0.0
C620 C 0.90674 0.74705 0.16966 0.0
C621 C 0.91322 0.81969 0.17912 0.0
C622 C 0.90628 0.67411 0.08031 0.0
C623 C 0.90442 0.6919 0.10102 0.0
C624 C 0.91569 0.74569 0.09302 0.0
C625 C 0.90417 0.78469 0.16791 0.0
C626 C 0.90783 0.76508 0.14909 0.0
C627 C 0.91754 0.70809 0.09457 0.0
C628 C 0.91443 0.72768 0.11356 0.0
H629 H 0.87533 0.80485 0.23722 0.0
H630 H 0.87958 0.77376 0.20226 0.0
H631 H 0.9131 0.77772 0.09378 0.0
H632 H 0.94685 0.68697 0.02707 0.0
H633 H 0.94368 0.71784 0.06328 0.0
C634 C 0.80782 0.10486 0.77406 0.0
C635 C 0.82444 0.0932 0.78474 0.0
C636 C 0.78992 0.10393 0.79428 0.0
C637 C 0.76801 0.08775 0.88496 0.0
H638 H 0.71828 0.0882 0.82814 0.0
C639 C 0.69221 0.07132 0.955 0.0
C640 C 0.67643 0.08464 0.94691 0.0
C641 C 0.70979 0.07155 0.93378 0.0
C642 C 0.73203 0.08821 0.84438 0.0
H643 H 0.83528 0.07127 0.82485 0.0
H644 H 0.80391 0.06952 0.86026 0.0
H645 H 0.75028 0.09046 0.79513 0.0
H646 H 0.66678 0.10864 0.90989 0.0
H647 H 0.69741 0.10878 0.87224 0.0
H648 H 0.74972 0.08533 0.93418 0.0
C649 C 0.80488 0.07974 0.83665 0.0
C650 C 0.75038 0.08956 0.82553 0.0
C651 C 0.8229 0.08078 0.81648 0.0
C652 C 0.67836 0.09779 0.91624 0.0
C653 C 0.696 0.09798 0.89485 0.0
C654 C 0.74967 0.08629 0.90378 0.0
C655 C 0.78809 0.09112 0.82546 0.0
C656 C 0.7686 0.08943 0.8456 0.0
C657 C 0.71206 0.08516 0.90396 0.0
C658 C 0.73148 0.08652 0.8837 0.0
H659 H 0.80862 0.11466 0.7498 0.0
H660 H 0.77748 0.11324 0.78533 0.0
H661 H 0.78171 0.08791 0.90134 0.0
H662 H 0.69115 0.06097 0.97841 0.0
H663 H 0.72176 0.06125 0.94108 0.0
C664 C 0.5869 0.67929 0.67478 0.0
C665 C 0.6004 0.6783 0.70503 0.0
C666 C 0.5846 0.69721 0.65459 0.0
C667 C 0.59227 0.7519 0.66618 0.0
H668 H 0.58416 0.7537 0.55835 0.0
C669 C 0.59431 0.8255 0.57949 0.0
C670 C 0.58023 0.82743 0.55032 0.0
C671 C 0.59592 0.80747 0.59948 0.0
C672 C 0.58618 0.75341 0.58856 0.0
H673 H 0.62273 0.69482 0.73677 0.0
H674 H 0.61912 0.72575 0.70116 0.0
H675 H 0.58934 0.72141 0.58929 0.0
H676 H 0.55646 0.81221 0.51993 0.0
H677 H 0.55918 0.7809 0.55493 0.0
H678 H 0.5893 0.78391 0.66538 0.0
C679 C 0.60991 0.71299 0.69352 0.0
C680 C 0.58915 0.73491 0.60627 0.0
C681 C 0.61209 0.69521 0.71374 0.0
C682 C 0.56748 0.81117 0.54226 0.0
C683 C 0.56911 0.79319 0.56211 0.0
C684 C 0.58938 0.77039 0.64847 0.0
C685 C 0.59579 0.71439 0.66432 0.0
C686 C 0.59234 0.73395 0.64527 0.0
C687 C 0.5836 0.791 0.59046 0.0
C688 C 0.58634 0.77135 0.60947 0.0
H689 H 0.57742 0.66661 0.66793 0.0
H690 H 0.57348 0.69783 0.63242 0.0
H691 H 0.59425 0.75168 0.6964 0.0
H692 H 0.60479 0.83744 0.58566 0.0
H693 H 0.6074 0.80615 0.6209 0.0
C694 C 0.82221 0.41611 0.4223 0.0
C695 C 0.82299 0.40463 0.45535 0.0
C696 C 0.80444 0.41706 0.40127 0.0
C697 C 0.74966 0.40971 0.41257 0.0
H698 H 0.749 0.41055 0.30365 0.0
C699 C 0.67706 0.40117 0.32421 0.0
C700 C 0.67537 0.41322 0.29197 0.0
C701 C 0.69487 0.40103 0.34509 0.0
C702 C 0.74896 0.41056 0.3341 0.0
H703 H 0.80625 0.38446 0.49145 0.0
H704 H 0.7756 0.3857 0.45452 0.0
H705 H 0.78096 0.40788 0.33677 0.0
H706 H 0.69076 0.43495 0.25693 0.0
H707 H 0.72168 0.43481 0.29342 0.0
H708 H 0.71764 0.4122 0.40987 0.0
C709 C 0.78839 0.39441 0.44521 0.0
C710 C 0.76728 0.40903 0.35306 0.0
C711 C 0.80601 0.39358 0.46623 0.0
C712 C 0.69163 0.42547 0.28162 0.0
C713 C 0.70939 0.4253 0.30236 0.0
C714 C 0.73135 0.41116 0.39362 0.0
C715 C 0.78721 0.40651 0.41296 0.0
C716 C 0.76784 0.40849 0.39253 0.0
C717 C 0.71136 0.41282 0.33393 0.0
C718 C 0.7308 0.41157 0.35419 0.0
H719 H 0.83494 0.42508 0.41364 0.0
H720 H 0.80398 0.42665 0.3767 0.0
H721 H 0.74955 0.40976 0.44302 0.0
H722 H 0.6651 0.39109 0.33233 0.0
H723 H 0.69603 0.39107 0.36905 0.0
C724 C 0.4124 0.18144 0.57197 0.0
C725 C 0.399 0.18037 0.54155 0.0
C726 C 0.41421 0.1992 0.59281 0.0
C727 C 0.40579 0.25382 0.58364 0.0
H728 H 0.41184 0.25417 0.692 0.0
C729 C 0.40276 0.32666 0.67274 0.0
C730 C 0.41589 0.328 0.70353 0.0
C731 C 0.40137 0.30882 0.65203 0.0
C732 C 0.41042 0.25432 0.66166 0.0
H733 H 0.37658 0.19679 0.50984 0.0
H734 H 0.37951 0.22754 0.54636 0.0
H735 H 0.40759 0.22231 0.65913 0.0
H736 H 0.43818 0.31195 0.73619 0.0
H737 H 0.436 0.28105 0.69983 0.0
H738 H 0.4086 0.28581 0.58614 0.0
C739 C 0.38888 0.21486 0.55381 0.0
C740 C 0.40796 0.23605 0.64286 0.0
C741 C 0.3871 0.19719 0.53305 0.0
C742 C 0.4279 0.31135 0.71261 0.0
C743 C 0.42655 0.2936 0.69195 0.0
C744 C 0.40826 0.27208 0.60243 0.0
C745 C 0.40272 0.21623 0.58348 0.0
C746 C 0.40553 0.23559 0.60364 0.0
C747 C 0.41301 0.29197 0.66183 0.0
C748 C 0.41059 0.27256 0.64167 0.0
H749 H 0.42216 0.16895 0.57862 0.0
H750 H 0.42517 0.19984 0.61527 0.0
H751 H 0.40433 0.25397 0.55331 0.0
H752 H 0.39286 0.33896 0.66569 0.0
H753 H 0.39059 0.30799 0.62928 0.0
C754 C 0.30384 0.60235 0.27514 0.0
C755 C 0.32087 0.5912 0.28525 0.0
C756 C 0.28661 0.60187 0.29727 0.0
C757 C 0.26665 0.58691 0.39054 0.0
H758 H 0.21626 0.58518 0.33586 0.0
C759 C 0.19116 0.5691 0.4624 0.0
C760 C 0.17513 0.58211 0.45411 0.0
C761 C 0.20887 0.56976 0.44153 0.0
C762 C 0.2302 0.5858 0.3515 0.0
H763 H 0.33347 0.57106 0.32675 0.0
H764 H 0.30309 0.56982 0.36542 0.0
H765 H 0.24773 0.58757 0.30139 0.0
H766 H 0.16547 0.60634 0.41754 0.0
H767 H 0.19612 0.60699 0.38028 0.0
H768 H 0.24894 0.58475 0.44066 0.0
C769 C 0.30319 0.5793 0.3407 0.0
C770 C 0.24826 0.58725 0.33181 0.0
C771 C 0.32061 0.58001 0.31866 0.0
C772 C 0.17711 0.59557 0.42391 0.0
C773 C 0.1948 0.59611 0.40278 0.0
C774 C 0.24856 0.58526 0.41023 0.0
C775 C 0.28584 0.58991 0.32977 0.0
C776 C 0.26671 0.588 0.35107 0.0
C777 C 0.21097 0.58342 0.41178 0.0
C778 C 0.23016 0.58479 0.39088 0.0
H779 H 0.30374 0.61128 0.24967 0.0
H780 H 0.27377 0.61068 0.28854 0.0
H781 H 0.28053 0.58768 0.40629 0.0
H782 H 0.19015 0.55857 0.48554 0.0
H783 H 0.221 0.55964 0.4488 0.0
C784 C 0.17225 0.11121 0.32794 0.0
C785 C 0.1697 0.09633 0.30041 0.0
C786 C 0.19118 0.11468 0.34356 0.0
C787 C 0.24539 0.1065 0.3313 0.0
H788 H 0.24656 0.10161 0.44002 0.0
C789 C 0.30596 0.08219 0.44942 0.0
C790 C 0.322 0.09507 0.44116 0.0
C791 C 0.28704 0.0856 0.43371 0.0
C792 C 0.24642 0.10314 0.40969 0.0
H793 H 0.18468 0.07393 0.26651 0.0
H794 H 0.218 0.08033 0.29312 0.0
H795 H 0.21432 0.10245 0.40713 0.0
H796 H 0.33109 0.12157 0.4103 0.0
H797 H 0.29798 0.12745 0.38234 0.0
H798 H 0.27752 0.10681 0.33386 0.0
C799 C 0.20543 0.08933 0.30258 0.0
C800 C 0.22801 0.10377 0.39091 0.0
C801 C 0.18645 0.08567 0.28735 0.0
C802 C 0.31882 0.11162 0.41748 0.0
C803 C 0.29998 0.11487 0.40128 0.0
C804 C 0.2638 0.10619 0.35014 0.0
C805 C 0.20787 0.10346 0.33159 0.0
C806 C 0.22733 0.1051 0.35149 0.0
C807 C 0.28398 0.10176 0.40892 0.0
C808 C 0.26448 0.10412 0.38945 0.0
H809 H 0.15943 0.11936 0.3388 0.0
H810 H 0.19269 0.1257 0.36579 0.0
H811 H 0.24525 0.10756 0.3009 0.0
H812 H 0.3082 0.06924 0.46737 0.0
H813 H 0.27501 0.07516 0.43975 0.0
C814 C 0.10681 0.82098 0.65192 0.0
C815 C 0.1091 0.82338 0.69085 0.0
C816 C 0.11268 0.80322 0.6344 0.0
C817 C 0.11912 0.74982 0.65582 0.0
H818 H 0.13588 0.74774 0.55142 0.0
C819 C 0.12135 0.67513 0.57497 0.0
C820 C 0.11056 0.67565 0.5411 0.0
C821 C 0.12687 0.69298 0.59286 0.0
C822 C 0.13128 0.74808 0.58063 0.0
H823 H 0.12046 0.8099 0.74185 0.0
H824 H 0.13108 0.77859 0.71113 0.0
H825 H 0.13604 0.77978 0.58483 0.0
H826 H 0.09769 0.69484 0.49846 0.0
H827 H 0.10745 0.72618 0.52949 0.0
H828 H 0.11387 0.71823 0.65131 0.0
C829 C 0.12438 0.79033 0.69422 0.0
C830 C 0.13133 0.76642 0.59977 0.0
C831 C 0.11845 0.80821 0.71179 0.0
C832 C 0.10622 0.69418 0.52438 0.0
C833 C 0.11185 0.71205 0.54212 0.0
C834 C 0.11922 0.73147 0.63675 0.0
C835 C 0.12112 0.78745 0.65541 0.0
C836 C 0.12461 0.76762 0.63724 0.0
C837 C 0.12173 0.71164 0.57709 0.0
C838 C 0.12472 0.73051 0.59863 0.0
H839 H 0.09982 0.83264 0.6352 0.0
H840 H 0.10968 0.80152 0.60465 0.0
H841 H 0.11362 0.75017 0.68445 0.0
H842 H 0.12463 0.66094 0.58851 0.0
H843 H 0.13459 0.6922 0.61962 0.0
C844 C 0.81329 0.88444 0.32268 0.0
C845 C 0.81488 0.90057 0.29749 0.0
C846 C 0.79495 0.88005 0.33984 0.0
C847 C 0.74024 0.89051 0.33654 0.0
H848 H 0.74346 0.88403 0.44478 0.0
C849 C 0.68709 0.90691 0.47115 0.0
C850 C 0.66886 0.8992 0.45785 0.0
C851 C 0.70502 0.90247 0.45255 0.0
C852 C 0.74231 0.88574 0.41457 0.0
H853 H 0.79863 0.92416 0.26894 0.0
H854 H 0.76649 0.91664 0.29901 0.0
H855 H 0.77418 0.88503 0.4076 0.0
H856 H 0.65491 0.88018 0.41599 0.0
H857 H 0.68631 0.87207 0.3837 0.0
H858 H 0.70842 0.89217 0.34372 0.0
C859 C 0.7793 0.90722 0.30534 0.0
C860 C 0.7599 0.88611 0.39319 0.0
C861 C 0.79766 0.91161 0.28822 0.0
C862 C 0.66888 0.88613 0.42691 0.0
C863 C 0.68679 0.88169 0.40823 0.0
C864 C 0.72265 0.89009 0.35792 0.0
C865 C 0.77786 0.89172 0.3321 0.0
C866 C 0.75909 0.88892 0.35402 0.0
C867 C 0.70499 0.89028 0.4202 0.0
C868 C 0.72351 0.88813 0.39727 0.0
H869 H 0.82644 0.87583 0.33051 0.0
H870 H 0.79427 0.86786 0.35997 0.0
H871 H 0.73911 0.8925 0.30639 0.0
H872 H 0.68732 0.91717 0.49479 0.0
H873 H 0.71872 0.9095 0.46228 0.0
C874 C 0.88694 0.32095 0.57325 0.0
C875 C 0.90064 0.32177 0.54335 0.0
C876 C 0.88317 0.30278 0.59153 0.0
C877 C 0.88986 0.24767 0.58545 0.0
H878 H 0.89528 0.25105 0.69391 0.0
C879 C 0.88835 0.17701 0.67863 0.0
C880 C 0.90449 0.17562 0.70387 0.0
C881 C 0.88399 0.19521 0.66093 0.0
C882 C 0.89365 0.24988 0.66368 0.0
H883 H 0.92042 0.30446 0.50773 0.0
H884 H 0.91383 0.27254 0.53956 0.0
H885 H 0.89439 0.28175 0.65655 0.0
H886 H 0.92832 0.19202 0.73144 0.0
H887 H 0.92066 0.22398 0.70073 0.0
H888 H 0.8899 0.21576 0.5925 0.0
C889 C 0.90586 0.28584 0.54877 0.0
C890 C 0.89293 0.26745 0.6423 0.0
C891 C 0.90968 0.30404 0.53059 0.0
C892 C 0.91567 0.19286 0.71235 0.0
C893 C 0.91124 0.2111 0.69483 0.0
C894 C 0.89044 0.23009 0.60687 0.0
C895 C 0.89302 0.28514 0.58016 0.0
C896 C 0.89142 0.26653 0.60289 0.0
C897 C 0.89567 0.21235 0.66824 0.0
C898 C 0.89274 0.23101 0.64614 0.0
H899 H 0.87995 0.33453 0.58374 0.0
H900 H 0.87304 0.30266 0.61535 0.0
H901 H 0.88856 0.2465 0.55517 0.0
H902 H 0.87976 0.1638 0.67111 0.0
H903 H 0.87182 0.19577 0.64076 0.0
C904 C 0.31271 0.41571 0.78285 0.0
C905 C 0.33002 0.40522 0.79367 0.0
C906 C 0.29435 0.41178 0.8003 0.0
C907 C 0.27466 0.39481 0.89056 0.0
H908 H 0.22352 0.39545 0.83856 0.0
C909 C 0.18382 0.38924 0.92241 0.0
C910 C 0.18219 0.4037 0.95095 0.0
C911 C 0.20218 0.38596 0.90448 0.0
C912 C 0.23768 0.39498 0.85351 0.0
H913 H 0.34184 0.3822 0.83047 0.0
H914 H 0.30964 0.37514 0.8609 0.0
H915 H 0.25463 0.39529 0.80233 0.0
H916 H 0.19831 0.42555 0.98424 0.0
H917 H 0.23058 0.41983 0.95296 0.0
H918 H 0.2577 0.39492 0.94176 0.0
C919 C 0.31024 0.38637 0.83891 0.0
C920 C 0.25548 0.39506 0.83274 0.0
C921 C 0.32858 0.39022 0.82122 0.0
C922 C 0.19933 0.41425 0.96239 0.0
C923 C 0.21774 0.41091 0.94458 0.0
C924 C 0.25685 0.39487 0.91135 0.0
C925 C 0.29303 0.39743 0.82922 0.0
C926 C 0.27416 0.39526 0.85103 0.0
C927 C 0.21925 0.39705 0.91484 0.0
C928 C 0.23817 0.39523 0.89304 0.0
H929 H 0.31359 0.42753 0.762 0.0
H930 H 0.28142 0.42071 0.7925 0.0
H931 H 0.28883 0.39517 0.90548 0.0
H932 H 0.17071 0.38107 0.91289 0.0
H933 H 0.20292 0.37504 0.88194 0.0
C934 C 0.38413 0.81353 0.03581 0.0
C935 C 0.39602 0.82772 0.05456 0.0
C936 C 0.37862 0.79566 0.0539 0.0
C937 C 0.37704 0.77096 0.14828 0.0
H938 H 0.3853 0.72212 0.09106 0.0
C939 C 0.39919 0.6952 0.21411 0.0
C940 C 0.39163 0.67753 0.19809 0.0
C941 C 0.39442 0.71386 0.19851 0.0
C942 C 0.38253 0.7356 0.10731 0.0
H943 H 0.41038 0.83522 0.10732 0.0
H944 H 0.40135 0.80405 0.13851 0.0
H945 H 0.38649 0.75444 0.05922 0.0
H946 H 0.37267 0.66525 0.15438 0.0
H947 H 0.36421 0.69792 0.12701 0.0
H948 H 0.37408 0.75204 0.1967 0.0
C949 C 0.39607 0.80653 0.11009 0.0
C950 C 0.38318 0.75416 0.08902 0.0
C951 C 0.40152 0.82429 0.09207 0.0
C952 C 0.37849 0.67877 0.16735 0.0
C953 C 0.37382 0.6974 0.15155 0.0
C954 C 0.37654 0.7524 0.1666 0.0
C955 C 0.38482 0.79182 0.09111 0.0
C956 C 0.38099 0.7721 0.10945 0.0
C957 C 0.38214 0.71511 0.16639 0.0
C958 C 0.37977 0.73456 0.14646 0.0
H959 H 0.37956 0.81604 0.00696 0.0
H960 H 0.36973 0.78476 0.03864 0.0
H961 H 0.37487 0.78447 0.16475 0.0
H962 H 0.40952 0.69449 0.23761 0.0
H963 H 0.40125 0.7272 0.21033 0.0
C964 C 0.83036 0.61837 0.92515 0.0
C965 C 0.83061 0.60548 0.95633 0.0
C966 C 0.81227 0.62289 0.90714 0.0
C967 C 0.75671 0.61856 0.91481 0.0
H968 H 0.75952 0.61074 0.80685 0.0
C969 C 0.7015 0.59026 0.78977 0.0
C970 C 0.68405 0.60095 0.79884 0.0
C971 C 0.71977 0.59517 0.80674 0.0
C972 C 0.75849 0.61302 0.83694 0.0
H973 H 0.8124 0.58802 0.9945 0.0
H974 H 0.78071 0.5958 0.96314 0.0
H975 H 0.79035 0.612 0.84359 0.0
H976 H 0.67193 0.62558 0.83147 0.0
H977 H 0.70393 0.63448 0.86067 0.0
H978 H 0.72479 0.61854 0.90837 0.0
C979 C 0.79435 0.60267 0.95271 0.0
C980 C 0.77617 0.61399 0.85799 0.0
C981 C 0.81244 0.59817 0.97069 0.0
C982 C 0.68527 0.61723 0.8238 0.0
C983 C 0.70352 0.62216 0.84081 0.0
C984 C 0.73902 0.61761 0.89375 0.0
C985 C 0.79414 0.61453 0.91996 0.0
C986 C 0.77547 0.61632 0.89729 0.0
C987 C 0.72089 0.61088 0.83315 0.0
C988 C 0.7397 0.61437 0.85467 0.0
H989 H 0.84427 0.62399 0.91341 0.0
H990 H 0.81258 0.63229 0.8823 0.0
H991 H 0.75567 0.62055 0.94497 0.0
H992 H 0.70083 0.57761 0.77064 0.0
H993 H 0.7328 0.58604 0.8005 0.0
C994 C 0.60023 0.1958 0.0268 0.0
C995 C 0.60818 0.17759 0.03971 0.0
C996 C 0.60469 0.21374 0.0454 0.0
C997 C 0.61867 0.23094 0.14011 0.0
H998 H 0.61868 0.28309 0.09186 0.0
C999 C 0.61812 0.32183 0.17693 0.0
C1000 C 0.60345 0.32173 0.20524 0.0
C1001 C 0.6235 0.30402 0.15873 0.0
C1002 C 0.61907 0.26868 0.10592 0.0
H1003 H 0.62796 0.16378 0.08047 0.0
H1004 H 0.63636 0.1952 0.11231 0.0
H1005 H 0.62065 0.25289 0.05359 0.0
H1006 H 0.58354 0.30306 0.23805 0.0
H1007 H 0.59253 0.27192 0.20588 0.0
H1008 H 0.61706 0.24673 0.19244 0.0
C1009 C 0.62634 0.19566 0.08836 0.0
C1010 C 0.61994 0.25133 0.08387 0.0
C1011 C 0.62177 0.17771 0.06985 0.0
C1012 C 0.59495 0.30342 0.21636 0.0
C1013 C 0.60021 0.28562 0.19801 0.0
C1014 C 0.6179 0.2483 0.16217 0.0
C1015 C 0.61728 0.21379 0.07721 0.0
C1016 C 0.61925 0.23223 0.10062 0.0
C1017 C 0.61416 0.28578 0.16826 0.0
C1018 C 0.61759 0.26738 0.14532 0.0
H1019 H 0.58962 0.19597 0.00372 0.0
H1020 H 0.59726 0.22734 0.03618 0.0
H1021 H 0.61789 0.21651 0.15405 0.0
H1022 H 0.62476 0.33582 0.1676 0.0
H1023 H 0.63453 0.30467 0.13642 0.0
C1024 C 0.03742 0.06051 0.2109 0.0
C1025 C 0.05496 0.05124 0.22423 0.0
C1026 C 0.02178 0.04888 0.19585 0.0
C1027 C 0.00793 0.99648 0.1659 0.0
H1028 H 0.95721 0.00968 0.21295 0.0
C1029 C 0.94732 0.9382 0.20646 0.0
C1030 C 0.92735 0.94472 0.20939 0.0
C1031 C 0.96232 0.95153 0.19446 0.0
C1032 C 0.97108 0.0059 0.19873 0.0
H1033 H 0.07062 0.02278 0.22897 0.0
H1034 H 0.04361 0.00271 0.20336 0.0
H1035 H 0.98471 0.03337 0.21617 0.0
H1036 H 0.907 0.96936 0.19818 0.0
H1037 H 0.93289 0.99224 0.17588 0.0
H1038 H 0.99441 0.96847 0.15014 0.0
C1039 C 0.04171 0.01885 0.20426 0.0
C1040 C 0.98692 0.01959 0.20055 0.0
C1041 C 0.05721 0.0304 0.21933 0.0
C1042 C 0.92233 0.96399 0.19636 0.0
C1043 C 0.93721 0.97717 0.18398 0.0
C1044 C 0.99205 0.98271 0.16416 0.0
C1045 C 0.02348 0.02779 0.19364 0.0
C1046 C 0.00575 0.01486 0.18515 0.0
C1047 C 0.95752 0.97152 0.18494 0.0
C1048 C 0.97356 0.98704 0.1814 0.0
H1049 H 0.03526 0.07653 0.21419 0.0
H1050 H 0.00805 0.05631 0.18736 0.0
H1051 H 0.02214 0.99245 0.15318 0.0
H1052 H 0.95162 0.9235 0.21673 0.0
H1053 H 0.9778 0.94664 0.19564 0.0
C1054 C 0.0283 0.92382 0.79018 0.0
C1055 C 0.0483 0.92893 0.7821 0.0
C1056 C 0.01499 0.93816 0.80425 0.0
C1057 C 0.01057 0.99089 0.8397 0.0
H1058 H 0.96133 0.98994 0.78162 0.0
C1059 C 0.9669 0.0613 0.79705 0.0
C1060 C 0.94626 0.06008 0.78913 0.0
C1061 C 0.97741 0.04457 0.81007 0.0
C1062 C 0.97469 0.99029 0.79894 0.0
H1063 H 0.07043 0.95269 0.78511 0.0
H1064 H 0.04708 0.97796 0.80886 0.0
H1065 H 0.98399 0.96161 0.77879 0.0
H1066 H 0.92006 0.04089 0.79225 0.0
H1067 H 0.93843 0.01156 0.81546 0.0
H1068 H 0.00152 0.02014 0.85836 0.0
C1069 C 0.0417 0.96277 0.80487 0.0
C1070 C 0.9878 0.97396 0.79727 0.0
C1071 C 0.05512 0.94829 0.79119 0.0
C1072 C 0.93597 0.04229 0.79797 0.0
C1073 C 0.94654 0.02544 0.81092 0.0
C1074 C 0.99741 0.00729 0.84137 0.0
C1075 C 0.02126 0.95807 0.81007 0.0
C1076 C 0.00618 0.97424 0.81679 0.0
C1077 C 0.96755 0.02614 0.81545 0.0
C1078 C 0.97958 0.00743 0.8201 0.0
H1079 H 0.02266 0.90893 0.78394 0.0
H1080 H 0.99951 0.93384 0.8089 0.0
H1081 H 0.02442 0.99149 0.85558 0.0
H1082 H 0.97524 0.07486 0.79086 0.0
H1083 H 0.99354 0.04573 0.81303 0.0
C1084 C 0.04851 0.43041 0.04875 0.0
C1085 C 0.06688 0.44005 0.04186 0.0
C1086 C 0.03194 0.44149 0.06152 0.0
C1087 C 0.01564 0.49302 0.09323 0.0
H1088 H 0.97002 0.48178 0.02911 0.0
C1089 C 0.95878 0.55297 0.04167 0.0
C1090 C 0.93911 0.54673 0.03363 0.0
C1091 C 0.97295 0.53914 0.05519 0.0
C1092 C 0.98239 0.485 0.04792 0.0
H1093 H 0.08294 0.46823 0.04701 0.0
H1094 H 0.05435 0.4874 0.06869 0.0
H1095 H 0.99736 0.45794 0.03232 0.0
H1096 H 0.91829 0.52179 0.03715 0.0
H1097 H 0.94272 0.49797 0.0615 0.0
H1098 H 0.0009 0.52072 0.1071 0.0
C1099 C 0.05246 0.47141 0.06446 0.0
C1100 C 0.99813 0.4712 0.04988 0.0
C1101 C 0.06892 0.4604 0.05175 0.0
C1102 C 0.93343 0.52697 0.04256 0.0
C1103 C 0.94747 0.51327 0.05631 0.0
C1104 C 0.99988 0.50693 0.09109 0.0
C1105 C 0.03348 0.46237 0.06769 0.0
C1106 C 0.01525 0.47524 0.07174 0.0
C1107 C 0.96762 0.5189 0.06113 0.0
C1108 C 0.98327 0.50328 0.0677 0.0
H1109 H 0.04649 0.41476 0.04141 0.0
H1110 H 0.01764 0.43393 0.06451 0.0
H1111 H 0.02843 0.49652 0.11083 0.0
H1112 H 0.96361 0.56808 0.03492 0.0
H1113 H 0.98836 0.54399 0.0585 0.0
C1114 C 0.4409 0.95623 0.95207 0.0
C1115 C 0.44795 0.93642 0.9548 0.0
C1116 C 0.45368 0.97159 0.93969 0.0
C1117 C 0.50783 0.98194 0.94116 0.0
H1118 H 0.49213 0.03257 0.89634 0.0
C1119 C 0.5612 0.04933 0.94766 0.0
C1120 C 0.55207 0.06683 0.96166 0.0
C1121 C 0.54944 0.03348 0.93393 0.0
C1122 C 0.49678 0.01849 0.90884 0.0
H1123 H 0.47303 0.91674 0.94267 0.0
H1124 H 0.49498 0.94328 0.91979 0.0
H1125 H 0.46892 0.00414 0.8949 0.0
H1126 H 0.52355 0.08211 0.96883 0.0
H1127 H 0.50322 0.05462 0.94556 0.0
H1128 H 0.53522 0.99635 0.95663 0.0
C1129 C 0.4799 0.94718 0.92846 0.0
C1130 C 0.48346 0.00221 0.90803 0.0
C1131 C 0.46725 0.93193 0.94124 0.0
C1132 C 0.53109 0.06876 0.95869 0.0
C1133 C 0.51939 0.05299 0.94498 0.0
C1134 C 0.52109 0.99816 0.94198 0.0
C1135 C 0.47368 0.96735 0.92947 0.0
C1136 C 0.48863 0.98385 0.92501 0.0
C1137 C 0.52833 0.03484 0.93379 0.0
C1138 C 0.51556 0.01682 0.92675 0.0
H1139 H 0.42615 0.96016 0.96257 0.0
H1140 H 0.44835 0.98694 0.94095 0.0
H1141 H 0.51227 0.96821 0.95518 0.0
H1142 H 0.57731 0.04738 0.94934 0.0
H1143 H 0.55684 0.01984 0.92488 0.0
C1144 C 0.44194 0.47148 0.70097 0.0
C1145 C 0.44375 0.45071 0.70725 0.0
C1146 C 0.45804 0.48257 0.68693 0.0
C1147 C 0.51276 0.48058 0.69045 0.0
H1148 H 0.5084 0.53175 0.63902 0.0
C1149 C 0.5785 0.53477 0.69535 0.0
C1150 C 0.57341 0.55421 0.70736 0.0
C1151 C 0.56388 0.52186 0.68104 0.0
C1152 C 0.50989 0.51748 0.65336 0.0
H1153 H 0.46326 0.42496 0.70018 0.0
H1154 H 0.49144 0.44434 0.67501 0.0
H1155 H 0.4801 0.50838 0.63824 0.0
H1156 H 0.54939 0.57599 0.71092 0.0
H1157 H 0.5236 0.5533 0.68659 0.0
H1158 H 0.54209 0.48986 0.70699 0.0
C1159 C 0.47762 0.45211 0.68176 0.0
C1160 C 0.49368 0.50406 0.6529 0.0
C1161 C 0.46142 0.44095 0.69583 0.0
C1162 C 0.55375 0.56113 0.7016 0.0
C1163 C 0.53898 0.54807 0.68769 0.0
C1164 C 0.52892 0.49392 0.69083 0.0
C1165 C 0.47641 0.47319 0.67872 0.0
C1166 C 0.4947 0.48569 0.67245 0.0
C1167 C 0.54371 0.52796 0.679 0.0
C1168 C 0.52754 0.51278 0.67318 0.0
H1169 H 0.42844 0.47945 0.7091 0.0
H1170 H 0.45647 0.49873 0.68523 0.0
H1171 H 0.51406 0.4668 0.70642 0.0
H1172 H 0.59361 0.5291 0.6992 0.0
H1173 H 0.56818 0.50668 0.67364 0.0
C1174 C 0.43879 0.54611 0.27678 0.0
C1175 C 0.44568 0.56576 0.27054 0.0
C1176 C 0.45204 0.53123 0.28968 0.0
C1177 C 0.50614 0.52051 0.2848 0.0
H1178 H 0.49234 0.47328 0.34286 0.0
C1179 C 0.56056 0.45399 0.28971 0.0
C1180 C 0.55142 0.43553 0.28118 0.0
C1181 C 0.54885 0.47049 0.30072 0.0
C1182 C 0.49645 0.48639 0.3266 0.0
H1183 H 0.47115 0.58574 0.27661 0.0
H1184 H 0.49394 0.56011 0.30012 0.0
H1185 H 0.46874 0.50135 0.33937 0.0
H1186 H 0.52317 0.41936 0.28147 0.0
H1187 H 0.50291 0.44791 0.29993 0.0
H1188 H 0.53335 0.50542 0.27056 0.0
C1189 C 0.47859 0.55591 0.29388 0.0
C1190 C 0.4829 0.50247 0.32458 0.0
C1191 C 0.46548 0.57064 0.28065 0.0
C1192 C 0.53067 0.43344 0.2873 0.0
C1193 C 0.51901 0.44985 0.29825 0.0
C1194 C 0.51962 0.50449 0.28673 0.0
C1195 C 0.47234 0.53582 0.29687 0.0
C1196 C 0.48742 0.51958 0.30304 0.0
C1197 C 0.5278 0.46882 0.30351 0.0
C1198 C 0.5148 0.487 0.30694 0.0
H1199 H 0.42364 0.54189 0.26903 0.0
H1200 H 0.44669 0.51591 0.29156 0.0
H1201 H 0.51005 0.53324 0.26733 0.0
H1202 H 0.57651 0.45609 0.28544 0.0
H1203 H 0.55619 0.48478 0.30535 0.0
C1204 C 0.56163 0.97329 0.54882 0.0
C1205 C 0.55903 0.95245 0.54462 0.0
C1206 C 0.54626 0.98527 0.56313 0.0
C1207 C 0.49142 0.98501 0.56499 0.0
H1208 H 0.49887 0.03742 0.61054 0.0
C1209 C 0.42766 0.04115 0.55884 0.0
C1210 C 0.43325 0.05976 0.54353 0.0
C1211 C 0.44207 0.02838 0.57432 0.0
C1212 C 0.49652 0.02281 0.59792 0.0
H1213 H 0.53889 0.9276 0.55565 0.0
H1214 H 0.51201 0.94854 0.58137 0.0
H1215 H 0.52639 0.01312 0.61105 0.0
H1216 H 0.45791 0.08039 0.53521 0.0
H1217 H 0.4833 0.05792 0.56161 0.0
H1218 H 0.46199 0.99482 0.55039 0.0
C1219 C 0.52586 0.95567 0.57272 0.0
C1220 C 0.51228 0.00886 0.59819 0.0
C1221 C 0.54133 0.94362 0.5583 0.0
C1222 C 0.45319 0.06622 0.54725 0.0
C1223 C 0.46773 0.05327 0.56231 0.0
C1224 C 0.4757 0.99887 0.56484 0.0
C1225 C 0.52783 0.97675 0.57377 0.0
C1226 C 0.51014 0.99001 0.58062 0.0
C1227 C 0.46247 0.03376 0.57411 0.0
C1228 C 0.4782 0.01817 0.58032 0.0
H1229 H 0.57517 0.98059 0.53893 0.0
H1230 H 0.54838 0.00139 0.56322 0.0
H1231 H 0.48923 0.97086 0.55057 0.0
H1232 H 0.41234 0.03586 0.55634 0.0
H1233 H 0.43739 0.01371 0.58409 0.0
C1234 C 0.93908 0.45509 0.45881 0.0
C1235 C 0.94643 0.43539 0.46167 0.0
C1236 C 0.95165 0.4706 0.44627 0.0
C1237 C 0.00572 0.48155 0.4472 0.0
H1238 H 0.98952 0.53185 0.40168 0.0
C1239 C 0.05901 0.5489 0.45086 0.0
C1240 C 0.05003 0.56652 0.46465 0.0
C1241 C 0.04712 0.53301 0.43774 0.0
C1242 C 0.9943 0.51786 0.41437 0.0
H1243 H 0.97177 0.41603 0.44983 0.0
H1244 H 0.99332 0.44278 0.4265 0.0
H1245 H 0.96645 0.50327 0.40119 0.0
H1246 H 0.02161 0.58197 0.47196 0.0
H1247 H 0.00105 0.55437 0.44986 0.0
H1248 H 0.0331 0.49617 0.46188 0.0
C1249 C 0.9782 0.44651 0.43521 0.0
C1250 C 0.98106 0.5015 0.41412 0.0
C1251 C 0.96579 0.43114 0.44823 0.0
C1252 C 0.02905 0.56853 0.46203 0.0
C1253 C 0.01721 0.55269 0.44898 0.0
C1254 C 0.01889 0.49784 0.44746 0.0
C1255 C 0.97169 0.46659 0.43602 0.0
C1256 C 0.98645 0.48325 0.43129 0.0
C1257 C 0.02602 0.53443 0.43807 0.0
C1258 C 0.0132 0.51637 0.43189 0.0
H1259 H 0.92426 0.4588 0.46926 0.0
H1260 H 0.94611 0.48587 0.44737 0.0
H1261 H 0.01032 0.46793 0.46141 0.0
H1262 H 0.07513 0.54689 0.45219 0.0
H1263 H 0.05443 0.51929 0.42882 0.0
C1264 C 0.11529 0.92646 0.60716 0.0
C1265 C 0.0956 0.91977 0.61386 0.0
C1266 C 0.121 0.93308 0.57146 0.0
C1267 C 0.10517 0.93193 0.47114 0.0
H1268 H 0.13778 0.97997 0.46358 0.0
C1269 C 0.10186 0.98774 0.34967 0.0
C1270 C 0.11929 0.99793 0.33875 0.0
C1271 C 0.10258 0.97347 0.37827 0.0
C1272 C 0.12907 0.96626 0.46512 0.0
H1273 H 0.06638 0.91507 0.58841 0.0
H1274 H 0.07613 0.92723 0.52656 0.0
H1275 H 0.13147 0.9652 0.52499 0.0
H1276 H 0.15127 0.0009 0.34744 0.0
H1277 H 0.1526 0.97591 0.39826 0.0
H1278 H 0.10191 0.93376 0.4113 0.0
C1279 C 0.08735 0.92684 0.54858 0.0
C1280 C 0.12539 0.9578 0.50038 0.0
C1281 C 0.08168 0.92008 0.58419 0.0
C1282 C 0.13773 0.99289 0.35517 0.0
C1283 C 0.13843 0.97878 0.38433 0.0
C1284 C 0.10874 0.94049 0.43591 0.0
C1285 C 0.10711 0.93331 0.5417 0.0
C1286 C 0.11293 0.94087 0.50392 0.0
C1287 C 0.12071 0.96946 0.39697 0.0
C1288 C 0.12028 0.95804 0.43269 0.0
H1289 H 0.12645 0.92623 0.6293 0.0
H1290 H 0.13638 0.93777 0.56708 0.0
H1291 H 0.09592 0.91859 0.47277 0.0
H1292 H 0.08745 0.9917 0.33761 0.0
H1293 H 0.08865 0.96676 0.38767 0.0
C1294 C 0.01012 0.86607 0.61324 0.0
C1295 C 0.00423 0.87296 0.64893 0.0
C1296 C 0.99668 0.86636 0.58321 0.0
C1297 C 0.95135 0.89382 0.55326 0.0
H1298 H 0.95724 0.85985 0.46549 0.0
C1299 C 0.92384 0.91924 0.40758 0.0
C1300 C 0.91701 0.90472 0.38199 0.0
C1301 C 0.93232 0.91344 0.44183 0.0
C1302 C 0.95507 0.86934 0.48987 0.0
H1303 H 0.97906 0.88366 0.68195 0.0
H1304 H 0.9553 0.88341 0.62976 0.0
H1305 H 0.97418 0.85085 0.52342 0.0
H1306 H 0.91321 0.87277 0.37256 0.0
H1307 H 0.92724 0.86268 0.43271 0.0
H1308 H 0.93175 0.91197 0.52008 0.0
C1309 C 0.97056 0.87853 0.62464 0.0
C1310 C 0.96505 0.8643 0.52307 0.0
C1311 C 0.98412 0.87849 0.65468 0.0
C1312 C 0.91859 0.88431 0.39151 0.0
C1313 C 0.92673 0.87852 0.42601 0.0
C1314 C 0.94109 0.89867 0.52025 0.0
C1315 C 0.9769 0.87325 0.58819 0.0
C1316 C 0.9638 0.87678 0.55489 0.0
C1317 C 0.93382 0.89299 0.45159 0.0
C1318 C 0.94324 0.88681 0.48778 0.0
H1319 H 0.02548 0.86162 0.6078 0.0
H1320 H 0.00226 0.86234 0.55563 0.0
H1321 H 0.95013 0.90395 0.57695 0.0
H1322 H 0.92289 0.93508 0.40092 0.0
H1323 H 0.938 0.92503 0.46033 0.0
C1324 C 0.92553 0.08162 0.58363 0.0
C1325 C 0.91273 0.0774 0.61401 0.0
C1326 C 0.92073 0.07512 0.54744 0.0
C1327 C 0.87862 0.05569 0.48916 0.0
H1328 H 0.92186 0.03425 0.4283 0.0
C1329 C 0.86906 0.9992 0.36771 0.0
C1330 C 0.8827 1.00004 0.33758 0.0
C1331 C 0.87034 0.01302 0.39715 0.0
C1332 C 0.90965 0.04057 0.44457 0.0
H1333 H 0.88483 0.06301 0.63021 0.0
H1334 H 0.8768 0.05104 0.56725 0.0
H1335 H 0.92939 0.04887 0.48917 0.0
H1336 H 0.90685 0.01736 0.31262 0.0
H1337 H 0.90901 0.04148 0.36401 0.0
H1338 H 0.85882 0.04643 0.44487 0.0
C1339 C 0.89031 0.05982 0.57122 0.0
C1340 C 0.91396 0.04894 0.47957 0.0
C1341 C 0.89502 0.0665 0.6074 0.0
C1342 C 0.8963 0.01614 0.33566 0.0
C1343 C 0.89761 0.0299 0.36516 0.0
C1344 C 0.87429 0.04714 0.45417 0.0
C1345 C 0.90311 0.06406 0.54079 0.0
C1346 C 0.89849 0.05637 0.50254 0.0
C1347 C 0.88527 0.0279 0.39696 0.0
C1348 C 0.88975 0.03928 0.43175 0.0
H1349 H 0.93917 0.09021 0.58765 0.0
H1350 H 0.93077 0.07893 0.5246 0.0
H1351 H 0.86638 0.0616 0.50586 0.0
H1352 H 0.85827 0.98709 0.36985 0.0
H1353 H 0.86063 0.01109 0.4213 0.0
C1354 C 0.0099 0.14482 0.65923 0.0
C1355 C 0.00478 0.12672 0.67694 0.0
C1356 C 0.02328 0.14474 0.62884 0.0
C1357 C 0.05891 0.11297 0.57453 0.0
H1358 H 0.03154 0.13476 0.48738 0.0
C1359 C 0.0717 0.08146 0.42647 0.0
C1360 C 0.0718 0.09468 0.39569 0.0
C1361 C 0.06658 0.0883 0.46232 0.0
C1362 C 0.03966 0.12892 0.51138 0.0
H1363 H 0.01056 0.0948 0.67948 0.0
H1364 H 0.03423 0.09467 0.62741 0.0
H1365 H 0.01952 0.14295 0.55013 0.0
H1366 H 0.06643 0.1255 0.37852 0.0
H1367 H 0.05768 0.13744 0.44112 0.0
H1368 H 0.07868 0.09842 0.53576 0.0
C1369 C 0.02806 0.1089 0.63656 0.0
C1370 C 0.03281 0.1337 0.5474 0.0
C1371 C 0.0145 0.10894 0.66634 0.0
C1372 C 0.06641 0.11486 0.40154 0.0
C1373 C 0.06138 0.12173 0.43746 0.0
C1374 C 0.06583 0.10828 0.53852 0.0
C1375 C 0.03185 0.12661 0.61633 0.0
C1376 C 0.04195 0.12524 0.57929 0.0
C1377 C 0.06154 0.10856 0.46832 0.0
C1378 C 0.05587 0.11565 0.5065 0.0
H1379 H 0.00231 0.15864 0.66669 0.0
H1380 H 0.02602 0.15861 0.6138 0.0
H1381 H 0.06634 0.10639 0.59866 0.0
H1382 H 0.07571 0.06581 0.42299 0.0
H1383 H 0.0664 0.07764 0.48529 0.0
C1384 C 0.09984 0.56432 0.64047 0.0
C1385 C 0.08916 0.58223 0.63517 0.0
C1386 C 0.10344 0.55707 0.67666 0.0
C1387 C 0.08578 0.56265 0.77543 0.0
H1388 H 0.13105 0.52744 0.79343 0.0
C1389 C 0.08442 0.50369 0.89106 0.0
C1390 C 0.1023 0.4956 0.90539 0.0
C1391 C 0.08489 0.51864 0.86375 0.0
C1392 C 0.11856 0.53761 0.78945 0.0
H1393 H 0.07448 0.60705 0.66333 0.0
H1394 H 0.08162 0.59504 0.72656 0.0
H1395 H 0.12874 0.54545 0.73451 0.0
H1396 H 0.13474 0.49806 0.90477 0.0
H1397 H 0.1356 0.52492 0.85805 0.0
H1398 H 0.07605 0.55551 0.83099 0.0
C1399 C 0.08655 0.58605 0.70295 0.0
C1400 C 0.11699 0.54764 0.75512 0.0
C1401 C 0.08249 0.59301 0.66669 0.0
C1402 C 0.1207 0.50387 0.89392 0.0
C1403 C 0.12117 0.51914 0.86689 0.0
C1404 C 0.08762 0.55304 0.81012 0.0
C1405 C 0.09693 0.56786 0.70848 0.0
C1406 C 0.10014 0.55964 0.74701 0.0
C1407 C 0.10327 0.52621 0.85046 0.0
C1408 C 0.10356 0.53968 0.817 0.0
H1409 H 0.10507 0.55568 0.61658 0.0
H1410 H 0.11099 0.54276 0.67947 0.0
H1411 H 0.07254 0.57169 0.77052 0.0
H1412 H 0.06996 0.49771 0.89932 0.0
H1413 H 0.07076 0.52334 0.85159 0.0
C1414 C 0.51398 0.90174 0.09376 0.0
C1415 C 0.49883 0.8874 0.08792 0.0
C1416 C 0.5261 0.90084 0.12571 0.0
C1417 C 0.52153 0.88346 0.22253 0.0
H1418 H 0.5756 0.90439 0.23172 0.0
C1419 C 0.56007 0.89421 0.36635 0.0
C1420 C 0.57054 0.91233 0.37157 0.0
C1421 C 0.5531 0.88873 0.33079 0.0
C1422 C 0.56045 0.8986 0.22955 0.0
H1423 H 0.48604 0.85958 0.10874 0.0
H1424 H 0.50746 0.85783 0.16424 0.0
H1425 H 0.56186 0.89725 0.16944 0.0
H1426 H 0.58176 0.93898 0.34344 0.0
H1427 H 0.5693 0.92952 0.28144 0.0
H1428 H 0.5199 0.88526 0.28245 0.0
C1429 C 0.50958 0.87009 0.14462 0.0
C1430 C 0.55262 0.89444 0.19393 0.0
C1431 C 0.49741 0.87101 0.11267 0.0
C1432 C 0.57372 0.92494 0.34043 0.0
C1433 C 0.56678 0.91942 0.30483 0.0
C1434 C 0.52936 0.88757 0.25808 0.0
C1435 C 0.52338 0.88552 0.15239 0.0
C1436 C 0.53292 0.88717 0.18999 0.0
C1437 C 0.55646 0.90122 0.29961 0.0
C1438 C 0.54877 0.89553 0.26195 0.0
H1439 H 0.5156 0.91447 0.07504 0.0
H1440 H 0.53655 0.913 0.13079 0.0
H1441 H 0.50616 0.87827 0.22055 0.0
H1442 H 0.55741 0.8841 0.38966 0.0
H1443 H 0.54533 0.87455 0.32762 0.0
C1444 C 0.87116 0.50614 0.87316 0.0
C1445 C 0.88025 0.5008 0.90738 0.0
C1446 C 0.8704 0.49254 0.84345 0.0
C1447 C 0.86762 0.46109 0.78337 0.0
H1448 H 0.91703 0.43094 0.77289 0.0
C1449 C 0.88674 0.41983 0.64549 0.0
C1450 C 0.90693 0.41985 0.63411 0.0
C1451 C 0.88139 0.42638 0.68139 0.0
C1452 C 0.90322 0.43941 0.77515 0.0
H1453 H 0.89356 0.47625 0.93871 0.0
H1454 H 0.8915 0.45215 0.88719 0.0
H1455 H 0.90985 0.4479 0.83161 0.0
H1456 H 0.93733 0.42687 0.65112 0.0
H1457 H 0.92798 0.43941 0.71298 0.0
H1458 H 0.86181 0.45406 0.7259 0.0
C1459 C 0.88572 0.46716 0.88281 0.0
C1460 C 0.89886 0.44882 0.80927 0.0
C1461 C 0.88673 0.48092 0.91249 0.0
C1462 C 0.92166 0.42665 0.65923 0.0
C1463 C 0.91627 0.43361 0.69488 0.0
C1464 C 0.87217 0.45202 0.74902 0.0
C1465 C 0.8784 0.4731 0.84737 0.0
C1466 C 0.88124 0.46024 0.81353 0.0
C1467 C 0.89606 0.43351 0.70652 0.0
C1468 C 0.89028 0.44146 0.74415 0.0
H1469 H 0.86583 0.52129 0.86833 0.0
H1470 H 0.86478 0.49783 0.81668 0.0
H1471 H 0.85369 0.46937 0.78579 0.0
H1472 H 0.87508 0.41436 0.62691 0.0
H1473 H 0.86575 0.42566 0.68946 0.0
C1474 C 0.4843 0.11853 0.08601 0.0
C1475 C 0.50401 0.12584 0.08901 0.0
C1476 C 0.47123 0.11966 0.1167 0.0
C1477 C 0.46681 0.13892 0.21586 0.0
H1478 H 0.43902 0.08842 0.23043 0.0
C1479 C 0.42662 0.11904 0.35562 0.0
C1480 C 0.42737 0.09887 0.36711 0.0
C1481 C 0.43363 0.12465 0.32009 0.0
C1482 C 0.44685 0.10255 0.22703 0.0
H1483 H 0.52479 0.14184 0.12529 0.0
H1484 H 0.50252 0.14305 0.17879 0.0
H1485 H 0.45439 0.09557 0.17032 0.0
H1486 H 0.43681 0.06891 0.35118 0.0
H1487 H 0.44992 0.07876 0.29017 0.0
H1488 H 0.46056 0.14515 0.27364 0.0
C1489 C 0.49684 0.13671 0.15286 0.0
C1490 C 0.45533 0.10688 0.19211 0.0
C1491 C 0.50976 0.13587 0.12208 0.0
C1492 C 0.43588 0.08454 0.34296 0.0
C1493 C 0.44318 0.09019 0.30776 0.0
C1494 C 0.45861 0.13443 0.25105 0.0
C1495 C 0.4777 0.12785 0.15115 0.0
C1496 C 0.46586 0.12491 0.18626 0.0
C1497 C 0.44181 0.11024 0.29552 0.0
C1498 C 0.44897 0.11595 0.25734 0.0
H1499 H 0.47931 0.11099 0.06069 0.0
H1500 H 0.45637 0.11324 0.11393 0.0
H1501 H 0.47444 0.15314 0.21226 0.0
H1502 H 0.41996 0.13039 0.37352 0.0
H1503 H 0.43214 0.14018 0.31158 0.0
C1504 C 0.61061 0.48194 0.83615 0.0
C1505 C 0.61963 0.50078 0.8416 0.0
C1506 C 0.61027 0.46781 0.86526 0.0
C1507 C 0.62949 0.45815 0.96294 0.0
H1508 H 0.57816 0.43153 0.97435 0.0
C1509 C 0.61051 0.41545 0.09885 0.0
C1510 C 0.59064 0.41642 0.11178 0.0
C1511 C 0.61543 0.42217 0.06287 0.0
C1512 C 0.59251 0.43902 0.97188 0.0
H1513 H 0.63661 0.51902 0.88095 0.0
H1514 H 0.63532 0.49503 0.9317 0.0
H1515 H 0.58545 0.44955 0.91681 0.0
H1516 H 0.56029 0.42508 0.09747 0.0
H1517 H 0.56895 0.43808 0.03556 0.0
H1518 H 0.63588 0.44922 0.01916 0.0
C1519 C 0.62885 0.49074 0.90496 0.0
C1520 C 0.5969 0.44904 0.93837 0.0
C1521 C 0.62947 0.50467 0.87576 0.0
C1522 C 0.57572 0.42414 0.08806 0.0
C1523 C 0.58072 0.43139 0.05239 0.0
C1524 C 0.62492 0.44855 0.99673 0.0
C1525 C 0.61869 0.47237 0.90057 0.0
C1526 C 0.61528 0.45915 0.93377 0.0
C1527 C 0.60067 0.43055 0.03929 0.0
C1528 C 0.6062 0.43918 0.00201 0.0
H1529 H 0.60309 0.47841 0.80997 0.0
H1530 H 0.60279 0.45362 0.86044 0.0
H1531 H 0.64399 0.46533 0.96021 0.0
H1532 H 0.62225 0.40919 0.11638 0.0
H1533 H 0.63084 0.42074 0.05364 0.0
C1534 C 0.42341 0.42556 0.91283 0.0
C1535 C 0.42838 0.41345 0.88183 0.0
C1536 C 0.42942 0.42017 0.94901 0.0
C1537 C 0.4485 0.37717 0.0054 0.0
H1538 H 0.46658 0.41953 0.07206 0.0
C1539 C 0.5011 0.36693 0.13287 0.0
C1540 C 0.49873 0.38 0.16362 0.0
C1541 C 0.4882 0.36815 0.10201 0.0
C1542 C 0.46119 0.40754 0.05411 0.0
H1543 H 0.44374 0.38627 0.8645 0.0
H1544 H 0.45491 0.37725 0.92754 0.0
H1545 H 0.45387 0.42807 0.01021 0.0
H1546 H 0.4795 0.40282 0.18814 0.0
H1547 H 0.45699 0.40489 0.13428 0.0
H1548 H 0.45683 0.35661 0.04915 0.0
C1549 C 0.44588 0.39064 0.92401 0.0
C1550 C 0.45392 0.41244 0.01854 0.0
C1551 C 0.43967 0.39592 0.8878 0.0
C1552 C 0.48192 0.39273 0.16469 0.0
C1553 C 0.46907 0.394 0.13377 0.0
C1554 C 0.45598 0.37225 0.04098 0.0
C1555 C 0.44077 0.40267 0.95509 0.0
C1556 C 0.44765 0.39732 0.99357 0.0
C1557 C 0.47272 0.38247 0.10141 0.0
C1558 C 0.46255 0.3874 0.06554 0.0
H1559 H 0.4145 0.43903 0.90931 0.0
H1560 H 0.42491 0.42963 0.9723 0.0
H1561 H 0.44347 0.36517 0.98713 0.0
H1562 H 0.51379 0.35678 0.13137 0.0
H1563 H 0.49136 0.35904 0.07749 0.0
C1564 C 0.39586 0.51557 0.83402 0.0
C1565 C 0.37813 0.50622 0.82208 0.0
C1566 C 0.39544 0.52971 0.86286 0.0
C1567 C 0.36853 0.53738 0.94882 0.0
H1568 H 0.40332 0.58374 0.95883 0.0
C1569 C 0.38258 0.57514 0.09257 0.0
C1570 C 0.40239 0.58119 0.10012 0.0
C1571 C 0.37696 0.56915 0.05644 0.0
C1572 C 0.39361 0.57076 0.95656 0.0
H1573 H 0.34592 0.50482 0.82914 0.0
H1574 H 0.34513 0.52949 0.88057 0.0
H1575 H 0.39725 0.56931 0.89674 0.0
H1576 H 0.4319 0.58547 0.07564 0.0
H1577 H 0.42229 0.57436 0.01298 0.0
H1578 H 0.36577 0.53797 0.00864 0.0
C1579 C 0.35932 0.52604 0.86718 0.0
C1580 C 0.38999 0.56264 0.92097 0.0
C1581 C 0.35972 0.51211 0.83767 0.0
C1582 C 0.4165 0.58095 0.07078 0.0
C1583 C 0.41092 0.57478 0.03471 0.0
C1584 C 0.37228 0.54538 0.98443 0.0
C1585 C 0.37728 0.53444 0.88084 0.0
C1586 C 0.37783 0.54556 0.91688 0.0
C1587 C 0.39105 0.56889 0.02704 0.0
C1588 C 0.3853 0.56183 0.98885 0.0
H1589 H 0.41023 0.51106 0.82249 0.0
H1590 H 0.40954 0.53573 0.87301 0.0
H1591 H 0.35935 0.52401 0.94661 0.0
H1592 H 0.37127 0.57532 0.11443 0.0
H1593 H 0.36148 0.56494 0.05149 0.0
C1594 C 0.49032 0.63283 0.1132 0.0
C1595 C 0.49504 0.62394 0.14791 0.0
C1596 C 0.50432 0.6331 0.08412 0.0
C1597 C 0.54831 0.60394 0.05291 0.0
H1598 H 0.54483 0.64055 0.96854 0.0
C1599 C 0.57428 0.58032 0.9055 0.0
C1600 C 0.5818 0.59492 0.88083 0.0
C1601 C 0.56618 0.58591 0.94018 0.0
C1602 C 0.54637 0.6303 0.99197 0.0
H1603 H 0.51889 0.61039 0.18072 0.0
H1604 H 0.54371 0.61165 0.13036 0.0
H1605 H 0.5284 0.64906 0.02717 0.0
H1606 H 0.58723 0.62676 0.87337 0.0
H1607 H 0.57396 0.63647 0.93437 0.0
H1608 H 0.56687 0.58553 0.01821 0.0
C1609 C 0.52886 0.61763 0.12507 0.0
C1610 C 0.53665 0.63508 0.02559 0.0
C1611 C 0.5147 0.61709 0.1541 0.0
C1612 C 0.58126 0.6152 0.89162 0.0
C1613 C 0.57358 0.62076 0.92662 0.0
C1614 C 0.55837 0.59937 0.01957 0.0
C1615 C 0.52355 0.62482 0.08917 0.0
C1616 C 0.53689 0.62163 0.05608 0.0
C1617 C 0.56585 0.60621 0.95137 0.0
C1618 C 0.55699 0.61216 0.98821 0.0
H1619 H 0.47535 0.6384 0.10749 0.0
H1620 H 0.49949 0.63862 0.05696 0.0
H1621 H 0.54878 0.59308 0.07552 0.0
H1622 H 0.57443 0.56457 0.89782 0.0
H1623 H 0.55994 0.57429 0.95793 0.0
C1624 C 0.61189 0.07005 0.13726 0.0
C1625 C 0.59378 0.08042 0.13134 0.0
C1626 C 0.61673 0.06261 0.17282 0.0
C1627 C 0.60416 0.06752 0.27375 0.0
H1628 H 0.62345 0.0127 0.27969 0.0
C1629 C 0.59455 0.01712 0.40317 0.0
C1630 C 0.60849 0.0017 0.40982 0.0
C1631 C 0.59698 0.03008 0.37269 0.0
C1632 C 0.61854 0.02819 0.27864 0.0
H1633 H 0.56658 0.09115 0.15827 0.0
H1634 H 0.5749 0.07787 0.22014 0.0
H1635 H 0.61899 0.02834 0.21856 0.0
H1636 H 0.637 0.98909 0.39212 0.0
H1637 H 0.64135 0.01193 0.33914 0.0
H1638 H 0.60315 0.06711 0.33394 0.0
C1639 C 0.5855 0.07578 0.19738 0.0
C1640 C 0.61591 0.03713 0.24352 0.0
C1641 C 0.58064 0.08322 0.16182 0.0
C1642 C 0.62586 0.00067 0.38748 0.0
C1643 C 0.6283 0.01367 0.35698 0.0
C1644 C 0.60683 0.05858 0.30894 0.0
C1645 C 0.60358 0.06538 0.20325 0.0
C1646 C 0.60826 0.05672 0.24066 0.0
C1647 C 0.61343 0.02792 0.34831 0.0
C1648 C 0.61362 0.03865 0.31173 0.0
H1649 H 0.62242 0.06772 0.11447 0.0
H1650 H 0.63084 0.05478 0.17654 0.0
H1651 H 0.59859 0.08278 0.27242 0.0
H1652 H 0.58109 0.01843 0.42005 0.0
H1653 H 0.5852 0.04083 0.36679 0.0
C1654 C 0.99582 0.37217 0.6234 0.0
C1655 C 0.00036 0.38303 0.59063 0.0
C1656 C 0.00934 0.37156 0.65329 0.0
C1657 C 0.05089 0.40196 0.69194 0.0
H1658 H 0.04867 0.36134 0.76979 0.0
C1659 C 0.07345 0.42027 0.84367 0.0
C1660 C 0.08159 0.40515 0.86651 0.0
C1661 C 0.06615 0.41572 0.80788 0.0
C1662 C 0.04985 0.37274 0.74821 0.0
H1663 H 0.02351 0.39998 0.56193 0.0
H1664 H 0.04759 0.3981 0.61347 0.0
H1665 H 0.0335 0.3547 0.70913 0.0
H1666 H 0.08886 0.37348 0.86964 0.0
H1667 H 0.07693 0.36562 0.80662 0.0
H1668 H 0.0679 0.41968 0.73044 0.0
C1669 C 0.03319 0.3908 0.61679 0.0
C1670 C 0.04083 0.36902 0.71343 0.0
C1671 C 0.01946 0.39172 0.58705 0.0
C1672 C 0.08241 0.3854 0.85279 0.0
C1673 C 0.07551 0.3809 0.81665 0.0
C1674 C 0.06027 0.4055 0.7264 0.0
C1675 C 0.02794 0.38146 0.65095 0.0
C1676 C 0.0406 0.38386 0.68526 0.0
C1677 C 0.06724 0.396 0.79368 0.0
C1678 C 0.05929 0.39123 0.7555 0.0
H1679 H 0.98126 0.36521 0.62711 0.0
H1680 H 0.00453 0.36437 0.67905 0.0
H1681 H 0.05098 0.41388 0.67126 0.0
H1682 H 0.07252 0.43562 0.85363 0.0
H1683 H 0.05942 0.42768 0.79162 0.0
C1684 C 0.4024 0.99277 0.40349 0.0
C1685 C 0.38328 0.00089 0.40958 0.0
C1686 C 0.40568 0.97941 0.37398 0.0
C1687 C 0.38087 0.95011 0.2975 0.0
H1688 H 0.42929 0.96443 0.24316 0.0
C1689 C 0.39362 0.93146 0.14072 0.0
C1690 C 0.41271 0.9244 0.13018 0.0
C1691 C 0.39013 0.9384 0.17717 0.0
C1692 C 0.41586 0.96003 0.25822 0.0
H1693 H 0.35234 0.0009 0.3913 0.0
H1694 H 0.35807 0.9779 0.33867 0.0
H1695 H 0.42267 0.97951 0.304 0.0
H1696 H 0.44311 0.91916 0.14977 0.0
H1697 H 0.43702 0.93153 0.21337 0.0
H1698 H 0.37383 0.93116 0.25056 0.0
C1699 C 0.37049 0.98137 0.35721 0.0
C1700 C 0.41207 0.9686 0.29327 0.0
C1701 C 0.36715 0.9945 0.38733 0.0
C1702 C 0.42826 0.92457 0.1569 0.0
C1703 C 0.42479 0.93166 0.19331 0.0
C1704 C 0.38461 0.94163 0.26219 0.0
C1705 C 0.38999 0.97436 0.34927 0.0
C1706 C 0.39448 0.96386 0.31331 0.0
C1707 C 0.40567 0.93859 0.20383 0.0
C1708 C 0.40208 0.94664 0.2421 0.0
H1709 H 0.41504 0.99759 0.42041 0.0
H1710 H 0.42076 0.97385 0.36938 0.0
H1711 H 0.36728 0.94598 0.31229 0.0
H1712 H 0.38127 0.93147 0.12092 0.0
H1713 H 0.37532 0.94392 0.18433 0.0
C1714 C 0.0086 0.63563 0.62142 0.0
C1715 C 0.00291 0.62671 0.58724 0.0
C1716 C 0.99576 0.63514 0.65236 0.0
C1717 C 0.95396 0.60408 0.68828 0.0
H1718 H 0.95975 0.63972 0.77364 0.0
C1719 C 0.9329 0.57849 0.8377 0.0
C1720 C 0.92657 0.59285 0.86397 0.0
C1721 C 0.93968 0.58445 0.80221 0.0
C1722 C 0.95755 0.62972 0.75002 0.0
H1723 H 0.9784 0.61243 0.55739 0.0
H1724 H 0.95553 0.61251 0.61089 0.0
H1725 H 0.97375 0.64932 0.71354 0.0
H1726 H 0.92156 0.62461 0.87339 0.0
H1727 H 0.93233 0.63496 0.81116 0.0
H1728 H 0.937 0.58488 0.72431 0.0
C1729 C 0.9703 0.61901 0.61439 0.0
C1730 C 0.96592 0.63512 0.71549 0.0
C1731 C 0.98332 0.61917 0.58353 0.0
C1732 C 0.92674 0.61323 0.8539 0.0
C1733 C 0.933 0.61916 0.81816 0.0
C1734 C 0.94518 0.59889 0.72259 0.0
C1735 C 0.97673 0.62609 0.64972 0.0
C1736 C 0.96483 0.62208 0.68444 0.0
C1737 C 0.93976 0.60489 0.79186 0.0
C1738 C 0.94737 0.61134 0.75429 0.0
H1739 H 0.02356 0.64165 0.62528 0.0
H1740 H 0.00145 0.64063 0.67894 0.0
H1741 H 0.95289 0.59347 0.6653 0.0
H1742 H 0.93294 0.56267 0.84482 0.0
H1743 H 0.94515 0.573 0.78321 0.0
loop_
_geom_bond_atom_site_label_1
_geom_bond_atom_site_label_2
_geom_bond_distance
_geom_bond_site_symmetry_2
_ccdc_geom_bond_type
Co0 O3 1.970 . S
Co0 N17 1.989 . S
Co0 O25 1.967 . S
Co0 O32 1.920 . S
Co1 O4 1.966 . S
Co1 N10 2.022 . S
Co1 N18 1.993 . S
Co1 O26 1.941 . S
C2 O3 1.258 . S
C2 O4 1.263 . S
O3 Co0 1.970 . S
O3 C2 1.258 . S
O4 Co1 1.966 . S
O4 C2 1.263 . S
C5 O6 1.235 . S
C5 O32 1.289 . S
O6 C5 1.235 . S
C7 C9 1.400 . S
C7 N10 1.351 . S
C7 C12 1.501 . S
C8 C9 1.387 . S
C8 N11 1.341 . S
C9 C7 1.400 . S
C9 C8 1.387 . S
N10 Co1 2.022 . S
N10 C7 1.351 . S
N10 N11 1.365 . S
N11 C8 1.341 . S
N11 N10 1.365 . S
N11 H31 0.862 . S
C12 C7 1.501 . S
C12 H13 0.961 . S
C12 H14 0.961 . S
C12 H15 0.960 . S
H13 C12 0.961 . S
H14 C12 0.961 . S
H15 C12 0.960 . S
C16 N17 1.342 . S
C16 C20 1.401 . S
C16 C21 1.499 . S
N17 Co0 1.989 . S
N17 C16 1.342 . S
N17 N18 1.388 . S
N18 Co1 1.993 . S
N18 N17 1.388 . S
N18 C19 1.346 . S
C19 N18 1.346 . S
C19 C20 1.396 . S
C19 C29 1.510 . S
C20 C16 1.401 . S
C20 C19 1.396 . S
C21 C16 1.499 . S
C21 H22 0.959 . S
C21 H23 0.960 . S
C21 H24 0.961 . S
H22 C21 0.959 . S
H23 C21 0.960 . S
H24 C21 0.961 . S
O25 Co0 1.967 . S
O25 C33 1.258 . S
O26 Co1 1.941 . S
O26 C33 1.266 . S
H27 C29 0.959 . S
H28 C29 0.961 . S
C29 C19 1.510 . S
C29 H27 0.959 . S
C29 H28 0.961 . S
C29 H30 0.960 . S
H30 C29 0.960 . S
H31 N11 0.862 . S
O32 Co0 1.920 . S
O32 C5 1.289 . S
C33 O25 1.258 . S
C33 O26 1.266 . S
Co34 O37 1.970 . S
Co34 N51 1.989 . S
Co34 O59 1.967 . S
Co34 O66 1.920 . S
Co35 O38 1.966 . S
Co35 N44 2.022 . S
Co35 N52 1.993 . S
Co35 O60 1.941 . S
C36 O37 1.258 . S
C36 O38 1.263 . S
O37 Co34 1.970 . S
O37 C36 1.258 . S
O38 Co35 1.966 . S
O38 C36 1.263 . S
C39 O40 1.235 . S
C39 O66 1.289 . S
O40 C39 1.235 . S
C41 C43 1.400 . S
C41 N44 1.351 . S
C41 C46 1.501 . S
C42 C43 1.387 . S
C42 N45 1.341 . S
C43 C41 1.400 . S
C43 C42 1.387 . S
N44 Co35 2.022 . S
N44 C41 1.351 . S
N44 N45 1.365 . S
N45 C42 1.341 . S
N45 N44 1.365 . S
N45 H65 0.862 . S
C46 C41 1.501 . S
C46 H47 0.961 . S
C46 H48 0.961 . S
C46 H49 0.960 . S
H47 C46 0.961 . S
H48 C46 0.961 . S
H49 C46 0.960 . S
C50 N51 1.342 . S
C50 C54 1.401 . S
C50 C55 1.499 . S
N51 Co34 1.989 . S
N51 C50 1.342 . S
N51 N52 1.388 . S
N52 Co35 1.993 . S
N52 N51 1.388 . S
N52 C53 1.346 . S
C53 N52 1.346 . S
C53 C54 1.396 . S
C53 C63 1.510 . S
C54 C50 1.401 . S
C54 C53 1.396 . S
C55 C50 1.499 . S
C55 H56 0.959 . S
C55 H57 0.960 . S
C55 H58 0.961 . S
H56 C55 0.959 . S
H57 C55 0.960 . S
H58 C55 0.961 . S
O59 Co34 1.967 . S
O59 C67 1.258 . S
O60 Co35 1.941 . S
O60 C67 1.266 . S
H61 C63 0.959 . S
H62 C63 0.961 . S
C63 C53 1.510 . S
C63 H61 0.959 . S
C63 H62 0.961 . S
C63 H64 0.960 . S
H64 C63 0.960 . S
H65 N45 0.862 . S
O66 Co34 1.920 . S
O66 C39 1.289 . S
C67 O59 1.258 . S
C67 O60 1.266 . S
Co68 O71 1.970 . S
Co68 N85 1.989 . S
Co68 O93 1.967 . S
Co68 O100 1.920 . S
Co69 O72 1.966 . S
Co69 N78 2.022 . S
Co69 N86 1.993 . S
Co69 O94 1.941 . S
C70 O71 1.258 . S
C70 O72 1.263 . S
O71 Co68 1.970 . S
O71 C70 1.258 . S
O72 Co69 1.966 . S
O72 C70 1.263 . S
C73 O74 1.235 . S
C73 O100 1.289 . S
O74 C73 1.235 . S
C75 C77 1.400 . S
C75 N78 1.351 . S
C75 C80 1.501 . S
C76 C77 1.387 . S
C76 N79 1.341 . S
C77 C75 1.400 . S
C77 C76 1.387 . S
N78 Co69 2.022 . S
N78 C75 1.351 . S
N78 N79 1.365 . S
N79 C76 1.341 . S
N79 N78 1.365 . S
N79 H99 0.862 . S
C80 C75 1.501 . S
C80 H81 0.961 . S
C80 H82 0.961 . S
C80 H83 0.960 . S
H81 C80 0.961 . S
H82 C80 0.961 . S
H83 C80 0.960 . S
C84 N85 1.342 . S
C84 C88 1.401 . S
C84 C89 1.499 . S
N85 Co68 1.989 . S
N85 C84 1.342 . S
N85 N86 1.388 . S
N86 Co69 1.993 . S
N86 N85 1.388 . S
N86 C87 1.346 . S
C87 N86 1.346 . S
C87 C88 1.396 . S
C87 C97 1.510 . S
C88 C84 1.401 . S
C88 C87 1.396 . S
C89 C84 1.499 . S
C89 H90 0.959 . S
C89 H91 0.960 . S
C89 H92 0.961 . S
H90 C89 0.959 . S
H91 C89 0.960 . S
H92 C89 0.961 . S
O93 Co68 1.967 . S
O93 C101 1.258 . S
O94 Co69 1.941 . S
O94 C101 1.266 . S
H95 C97 0.959 . S
H96 C97 0.961 . S
C97 C87 1.510 . S
C97 H95 0.959 . S
C97 H96 0.961 . S
C97 H98 0.960 . S
H98 C97 0.960 . S
H99 N79 0.862 . S
O100 Co68 1.920 . S
O100 C73 1.289 . S
C101 O93 1.258 . S
C101 O94 1.266 . S
Co102 O105 1.970 . S
Co102 N119 1.989 . S
Co102 O127 1.967 . S
Co102 O134 1.920 . S
Co103 O106 1.966 . S
Co103 N112 2.022 . S
Co103 N120 1.993 . S
Co103 O128 1.941 . S
C104 O105 1.258 . S
C104 O106 1.263 . S
O105 Co102 1.970 . S
O105 C104 1.258 . S
O106 Co103 1.966 . S
O106 C104 1.263 . S
C107 O108 1.235 . S
C107 O134 1.289 . S
O108 C107 1.235 . S
C109 C111 1.400 . S
C109 N112 1.351 . S
C109 C114 1.501 . S
C110 C111 1.387 . S
C110 N113 1.341 . S
C111 C109 1.400 . S
C111 C110 1.387 . S
N112 Co103 2.022 . S
N112 C109 1.351 . S
N112 N113 1.365 . S
N113 C110 1.341 . S
N113 N112 1.365 . S
N113 H133 0.862 . S
C114 C109 1.501 . S
C114 H115 0.961 . S
C114 H116 0.961 . S
C114 H117 0.960 . S
H115 C114 0.961 . S
H116 C114 0.961 . S
H117 C114 0.960 . S
C118 N119 1.342 . S
C118 C122 1.401 . S
C118 C123 1.499 . S
N119 Co102 1.989 . S
N119 C118 1.342 . S
N119 N120 1.388 . S
N120 Co103 1.993 . S
N120 N119 1.388 . S
N120 C121 1.346 . S
C121 N120 1.346 . S
C121 C122 1.396 . S
C121 C131 1.510 . S
C122 C118 1.401 . S
C122 C121 1.396 . S
C123 C118 1.499 . S
C123 H124 0.959 . S
C123 H125 0.960 . S
C123 H126 0.961 . S
H124 C123 0.959 . S
H125 C123 0.960 . S
H126 C123 0.961 . S
O127 Co102 1.967 . S
O127 C135 1.258 . S
O128 Co103 1.941 . S
O128 C135 1.266 . S
H129 C131 0.959 . S
H130 C131 0.961 . S
C131 C121 1.510 . S
C131 H129 0.959 . S
C131 H130 0.961 . S
C131 H132 0.960 . S
H132 C131 0.960 . S
H133 N113 0.862 . S
O134 Co102 1.920 . S
O134 C107 1.289 . S
C135 O127 1.258 . S
C135 O128 1.266 . S
Co136 O139 1.970 . S
Co136 N153 1.989 . S
Co136 O161 1.967 . S
Co136 O168 1.920 . S
Co137 O140 1.966 . S
Co137 N146 2.022 . S
Co137 N154 1.993 . S
Co137 O162 1.941 . S
C138 O139 1.258 . S
C138 O140 1.263 . S
O139 Co136 1.970 . S
O139 C138 1.258 . S
O140 Co137 1.966 . S
O140 C138 1.263 . S
C141 O142 1.235 . S
C141 O168 1.289 . S
O142 C141 1.235 . S
C143 C145 1.400 . S
C143 N146 1.351 1_554 S
C143 C148 1.501 . S
C144 C145 1.387 . S
C144 N147 1.341 1_554 S
C145 C143 1.400 . S
C145 C144 1.387 . S
N146 Co137 2.022 . S
N146 C143 1.351 1_556 S
N146 N147 1.365 . S
N147 C144 1.341 1_556 S
N147 N146 1.365 . S
N147 H167 0.862 . S
C148 C143 1.501 . S
C148 H149 0.961 . S
C148 H150 0.961 . S
C148 H151 0.960 . S
H149 C148 0.961 . S
H150 C148 0.961 . S
H151 C148 0.960 . S
C152 N153 1.342 . S
C152 C156 1.401 . S
C152 C157 1.499 . S
N153 Co136 1.989 . S
N153 C152 1.342 . S
N153 N154 1.388 . S
N154 Co137 1.993 . S
N154 N153 1.388 . S
N154 C155 1.346 . S
C155 N154 1.346 . S
C155 C156 1.396 . S
C155 C165 1.510 . S
C156 C152 1.401 . S
C156 C155 1.396 . S
C157 C152 1.499 . S
C157 H158 0.959 . S
C157 H159 0.960 . S
C157 H160 0.961 . S
H158 C157 0.959 . S
H159 C157 0.960 . S
H160 C157 0.961 . S
O161 Co136 1.967 . S
O161 C169 1.258 . S
O162 Co137 1.941 . S
O162 C169 1.266 . S
H163 C165 0.959 . S
H164 C165 0.961 1_554 S
C165 C155 1.510 . S
C165 H163 0.959 . S
C165 H164 0.961 1_556 S
C165 H166 0.960 . S
H166 C165 0.960 . S
H167 N147 0.862 . S
O168 Co136 1.920 . S
O168 C141 1.289 . S
C169 O161 1.258 . S
C169 O162 1.266 . S
Co170 O173 1.970 . S
Co170 N187 1.989 . S
Co170 O195 1.967 . S
Co170 O202 1.920 . S
Co171 O174 1.966 . S
Co171 N180 2.022 . S
Co171 N188 1.993 . S
Co171 O196 1.941 . S
C172 O173 1.258 . S
C172 O174 1.263 . S
O173 Co170 1.970 . S
O173 C172 1.258 . S
O174 Co171 1.966 . S
O174 C172 1.263 . S
C175 O176 1.235 . S
C175 O202 1.289 . S
O176 C175 1.235 . S
C177 C179 1.400 . S
C177 N180 1.351 1_556 S
C177 C182 1.501 . S
C178 C179 1.387 . S
C178 N181 1.341 1_556 S
C179 C177 1.400 . S
C179 C178 1.387 . S
N180 Co171 2.022 . S
N180 C177 1.351 1_554 S
N180 N181 1.365 . S
N181 C178 1.341 1_554 S
N181 N180 1.365 . S
N181 H201 0.862 . S
C182 C177 1.501 . S
C182 H183 0.961 . S
C182 H184 0.961 . S
C182 H185 0.960 . S
H183 C182 0.961 . S
H184 C182 0.961 . S
H185 C182 0.960 . S
C186 N187 1.342 . S
C186 C190 1.401 . S
C186 C191 1.499 . S
N187 Co170 1.989 . S
N187 C186 1.342 . S
N187 N188 1.388 . S
N188 Co171 1.993 . S
N188 N187 1.388 . S
N188 C189 1.346 . S
C189 N188 1.346 . S
C189 C190 1.396 . S
C189 C199 1.510 . S
C190 C186 1.401 . S
C190 C189 1.396 . S
C191 C186 1.499 . S
C191 H192 0.959 . S
C191 H193 0.960 . S
C191 H194 0.961 . S
H192 C191 0.959 . S
H193 C191 0.960 . S
H194 C191 0.961 . S
O195 Co170 1.967 . S
O195 C203 1.258 . S
O196 Co171 1.941 . S
O196 C203 1.266 . S
H197 C199 0.959 . S
H198 C199 0.961 1_556 S
C199 C189 1.510 . S
C199 H197 0.959 . S
C199 H198 0.961 1_554 S
C199 H200 0.960 . S
H200 C199 0.960 . S
H201 N181 0.862 . S
O202 Co170 1.920 . S
O202 C175 1.289 . S
C203 O195 1.258 . S
C203 O196 1.266 . S
Co204 O207 1.970 . S
Co204 N221 1.989 . S
Co204 O229 1.967 . S
Co204 O236 1.920 . S
Co205 O208 1.966 . S
Co205 N214 2.022 . S
Co205 N222 1.993 . S
Co205 O230 1.941 . S
C206 O207 1.258 . S
C206 O208 1.263 . S
O207 Co204 1.970 . S
O207 C206 1.258 . S
O208 Co205 1.966 . S
O208 C206 1.263 . S
C209 O210 1.235 . S
C209 O236 1.289 . S
O210 C209 1.235 . S
C211 C213 1.400 . S
C211 N214 1.351 1_554 S
C211 C216 1.501 . S
C212 C213 1.387 . S
C212 N215 1.341 1_554 S
C213 C211 1.400 . S
C213 C212 1.387 . S
N214 Co205 2.022 . S
N214 C211 1.351 1_556 S
N214 N215 1.365 . S
N215 C212 1.341 1_556 S
N215 N214 1.365 . S
N215 H235 0.862 . S
C216 C211 1.501 . S
C216 H217 0.961 . S
C216 H218 0.961 . S
C216 H219 0.960 . S
H217 C216 0.961 . S
H218 C216 0.961 . S
H219 C216 0.960 . S
C220 N221 1.342 . S
C220 C224 1.401 . S
C220 C225 1.499 . S
N221 Co204 1.989 . S
N221 C220 1.342 . S
N221 N222 1.388 . S
N222 Co205 1.993 . S
N222 N221 1.388 . S
N222 C223 1.346 . S
C223 N222 1.346 . S
C223 C224 1.396 . S
C223 C233 1.510 . S
C224 C220 1.401 . S
C224 C223 1.396 . S
C225 C220 1.499 . S
C225 H226 0.959 . S
C225 H227 0.960 . S
C225 H228 0.961 . S
H226 C225 0.959 . S
H227 C225 0.960 . S
H228 C225 0.961 . S
O229 Co204 1.967 . S
O229 C237 1.258 . S
O230 Co205 1.941 . S
O230 C237 1.266 . S
H231 C233 0.959 . S
H232 C233 0.961 1_554 S
C233 C223 1.510 . S
C233 H231 0.959 . S
C233 H232 0.961 1_556 S
C233 H234 0.960 . S
H234 C233 0.960 . S
H235 N215 0.862 . S
O236 Co204 1.920 . S
O236 C209 1.289 . S
C237 O229 1.258 . S
C237 O230 1.266 . S
Co238 O241 1.970 . S
Co238 N255 1.989 . S
Co238 O263 1.967 . S
Co238 O270 1.920 . S
Co239 O242 1.966 . S
Co239 N248 2.022 . S
Co239 N256 1.993 . S
Co239 O264 1.941 . S
C240 O241 1.258 . S
C240 O242 1.263 . S
O241 Co238 1.970 . S
O241 C240 1.258 . S
O242 Co239 1.966 . S
O242 C240 1.263 . S
C243 O244 1.235 . S
C243 O270 1.289 . S
O244 C243 1.235 . S
C245 C247 1.400 . S
C245 N248 1.351 1_556 S
C245 C250 1.501 . S
C246 C247 1.387 . S
C246 N249 1.341 1_556 S
C247 C245 1.400 . S
C247 C246 1.387 . S
N248 Co239 2.022 . S
N248 C245 1.351 1_554 S
N248 N249 1.365 . S
N249 C246 1.341 1_554 S
N249 N248 1.365 . S
N249 H269 0.862 . S
C250 C245 1.501 . S
C250 H251 0.961 . S
C250 H252 0.961 . S
C250 H253 0.960 . S
H251 C250 0.961 . S
H252 C250 0.961 . S
H253 C250 0.960 . S
C254 N255 1.342 . S
C254 C258 1.401 . S
C254 C259 1.499 . S
N255 Co238 1.989 . S
N255 C254 1.342 . S
N255 N256 1.388 . S
N256 Co239 1.993 . S
N256 N255 1.388 . S
N256 C257 1.346 . S
C257 N256 1.346 . S
C257 C258 1.396 . S
C257 C267 1.510 . S
C258 C254 1.401 . S
C258 C257 1.396 . S
C259 C254 1.499 . S
C259 H260 0.959 . S
C259 H261 0.960 . S
C259 H262 0.961 . S
H260 C259 0.959 . S
H261 C259 0.960 . S
H262 C259 0.961 . S
O263 Co238 1.967 . S
O263 C271 1.258 . S
O264 Co239 1.941 . S
O264 C271 1.266 . S
H265 C267 0.959 . S
H266 C267 0.961 1_556 S
C267 C257 1.510 . S
C267 H265 0.959 . S
C267 H266 0.961 1_554 S
C267 H268 0.960 . S
H268 C267 0.960 . S
H269 N249 0.862 . S
O270 Co238 1.920 . S
O270 C243 1.289 . S
C271 O263 1.258 . S
C271 O264 1.266 . S
Co272 O275 1.970 . S
Co272 N289 1.989 . S
Co272 O297 1.967 . S
Co272 O304 1.920 . S
Co273 O276 1.966 . S
Co273 N282 2.022 . S
Co273 N290 1.993 . S
Co273 O298 1.941 . S
C274 O275 1.258 . S
C274 O276 1.263 . S
O275 Co272 1.970 . S
O275 C274 1.258 . S
O276 Co273 1.966 . S
O276 C274 1.263 . S
C277 O278 1.235 . S
C277 O304 1.289 . S
O278 C277 1.235 . S
C279 C281 1.400 . S
C279 N282 1.351 . S
C279 C284 1.501 . S
C280 C281 1.387 . S
C280 N283 1.341 . S
C281 C279 1.400 . S
C281 C280 1.387 . S
N282 Co273 2.022 . S
N282 C279 1.351 . S
N282 N283 1.365 . S
N283 C280 1.341 . S
N283 N282 1.365 . S
N283 H303 0.862 . S
C284 C279 1.501 . S
C284 H285 0.961 . S
C284 H286 0.961 . S
C284 H287 0.960 . S
H285 C284 0.961 . S
H286 C284 0.961 . S
H287 C284 0.960 . S
C288 N289 1.342 . S
C288 C292 1.401 . S
C288 C293 1.499 . S
N289 Co272 1.989 . S
N289 C288 1.342 . S
N289 N290 1.388 . S
N290 Co273 1.993 . S
N290 N289 1.388 . S
N290 C291 1.346 . S
C291 N290 1.346 . S
C291 C292 1.396 . S
C291 C301 1.510 . S
C292 C288 1.401 . S
C292 C291 1.396 . S
C293 C288 1.499 . S
C293 H294 0.959 . S
C293 H295 0.960 . S
C293 H296 0.961 . S
H294 C293 0.959 . S
H295 C293 0.960 . S
H296 C293 0.961 . S
O297 Co272 1.967 . S
O297 C305 1.258 . S
O298 Co273 1.941 . S
O298 C305 1.266 . S
H299 C301 0.959 . S
H300 C301 0.961 . S
C301 C291 1.510 . S
C301 H299 0.959 . S
C301 H300 0.961 . S
C301 H302 0.960 . S
H302 C301 0.960 . S
H303 N283 0.862 . S
O304 Co272 1.920 . S
O304 C277 1.289 . S
C305 O297 1.258 . S
C305 O298 1.266 . S
Co306 O309 1.970 . S
Co306 N323 1.989 . S
Co306 O331 1.967 . S
Co306 O338 1.920 . S
Co307 O310 1.966 . S
Co307 N316 2.022 . S
Co307 N324 1.993 . S
Co307 O332 1.941 . S
C308 O309 1.258 . S
C308 O310 1.263 . S
O309 Co306 1.970 . S
O309 C308 1.258 . S
O310 Co307 1.966 . S
O310 C308 1.263 . S
C311 O312 1.235 . S
C311 O338 1.289 . S
O312 C311 1.235 . S
C313 C315 1.400 . S
C313 N316 1.351 . S
C313 C318 1.501 . S
C314 C315 1.387 . S
C314 N317 1.341 . S
C315 C313 1.400 . S
C315 C314 1.387 . S
N316 Co307 2.022 . S
N316 C313 1.351 . S
N316 N317 1.365 . S
N317 C314 1.341 . S
N317 N316 1.365 . S
N317 H337 0.862 . S
C318 C313 1.501 . S
C318 H319 0.961 . S
C318 H320 0.961 . S
C318 H321 0.960 . S
H319 C318 0.961 . S
H320 C318 0.961 . S
H321 C318 0.960 . S
C322 N323 1.342 . S
C322 C326 1.401 . S
C322 C327 1.499 . S
N323 Co306 1.989 . S
N323 C322 1.342 . S
N323 N324 1.388 . S
N324 Co307 1.993 . S
N324 N323 1.388 . S
N324 C325 1.346 . S
C325 N324 1.346 . S
C325 C326 1.396 . S
C325 C335 1.510 . S
C326 C322 1.401 . S
C326 C325 1.396 . S
C327 C322 1.499 . S
C327 H328 0.959 . S
C327 H329 0.960 . S
C327 H330 0.961 . S
H328 C327 0.959 . S
H329 C327 0.960 . S
H330 C327 0.961 . S
O331 Co306 1.967 . S
O331 C339 1.258 . S
O332 Co307 1.941 . S
O332 C339 1.266 . S
H333 C335 0.959 . S
H334 C335 0.961 . S
C335 C325 1.510 . S
C335 H333 0.959 . S
C335 H334 0.961 . S
C335 H336 0.960 . S
H336 C335 0.960 . S
H337 N317 0.862 . S
O338 Co306 1.920 . S
O338 C311 1.289 . S
C339 O331 1.258 . S
C339 O332 1.266 . S
Co340 O343 1.970 . S
Co340 N357 1.989 . S
Co340 O365 1.967 . S
Co340 O372 1.920 . S
Co341 O344 1.966 . S
Co341 N350 2.022 . S
Co341 N358 1.993 . S
Co341 O366 1.941 . S
C342 O343 1.258 . S
C342 O344 1.263 . S
O343 Co340 1.970 . S
O343 C342 1.258 . S
O344 Co341 1.966 . S
O344 C342 1.263 . S
C345 O346 1.235 . S
C345 O372 1.289 . S
O346 C345 1.235 . S
C347 C349 1.400 . S
C347 N350 1.351 . S
C347 C352 1.501 . S
C348 C349 1.387 . S
C348 N351 1.341 . S
C349 C347 1.400 . S
C349 C348 1.387 . S
N350 Co341 2.022 . S
N350 C347 1.351 . S
N350 N351 1.365 . S
N351 C348 1.341 . S
N351 N350 1.365 . S
N351 H371 0.862 . S
C352 C347 1.501 . S
C352 H353 0.961 . S
C352 H354 0.961 . S
C352 H355 0.960 . S
H353 C352 0.961 . S
H354 C352 0.961 . S
H355 C352 0.960 . S
C356 N357 1.342 . S
C356 C360 1.401 . S
C356 C361 1.499 . S
N357 Co340 1.989 . S
N357 C356 1.342 . S
N357 N358 1.388 . S
N358 Co341 1.993 . S
N358 N357 1.388 . S
N358 C359 1.346 . S
C359 N358 1.346 . S
C359 C360 1.396 . S
C359 C369 1.510 . S
C360 C356 1.401 . S
C360 C359 1.396 . S
C361 C356 1.499 . S
C361 H362 0.959 . S
C361 H363 0.960 . S
C361 H364 0.961 . S
H362 C361 0.959 . S
H363 C361 0.960 . S
H364 C361 0.961 . S
O365 Co340 1.967 . S
O365 C373 1.258 . S
O366 Co341 1.941 . S
O366 C373 1.266 . S
H367 C369 0.959 . S
H368 C369 0.961 . S
C369 C359 1.510 . S
C369 H367 0.959 . S
C369 H368 0.961 . S
C369 H370 0.960 . S
H370 C369 0.960 . S
H371 N351 0.862 . S
O372 Co340 1.920 . S
O372 C345 1.289 . S
C373 O365 1.258 . S
C373 O366 1.266 . S
Co374 O377 1.970 . S
Co374 N391 1.989 . S
Co374 O399 1.967 . S
Co374 O406 1.920 . S
Co375 O378 1.966 . S
Co375 N384 2.022 . S
Co375 N392 1.993 . S
Co375 O400 1.941 . S
C376 O377 1.258 . S
C376 O378 1.263 . S
O377 Co374 1.970 . S
O377 C376 1.258 . S
O378 Co375 1.966 . S
O378 C376 1.263 . S
C379 O380 1.235 . S
C379 O406 1.289 . S
O380 C379 1.235 . S
C381 C383 1.400 . S
C381 N384 1.351 . S
C381 C386 1.501 . S
C382 C383 1.387 . S
C382 N385 1.341 . S
C383 C381 1.400 . S
C383 C382 1.387 . S
N384 Co375 2.022 . S
N384 C381 1.351 . S
N384 N385 1.365 . S
N385 C382 1.341 . S
N385 N384 1.365 . S
N385 H405 0.862 . S
C386 C381 1.501 . S
C386 H387 0.961 . S
C386 H388 0.961 . S
C386 H389 0.960 . S
H387 C386 0.961 . S
H388 C386 0.961 . S
H389 C386 0.960 . S
C390 N391 1.342 . S
C390 C394 1.401 . S
C390 C395 1.499 . S
N391 Co374 1.989 . S
N391 C390 1.342 . S
N391 N392 1.388 . S
N392 Co375 1.993 . S
N392 N391 1.388 . S
N392 C393 1.346 . S
C393 N392 1.346 . S
C393 C394 1.396 . S
C393 C403 1.510 . S
C394 C390 1.401 . S
C394 C393 1.396 . S
C395 C390 1.499 . S
C395 H396 0.959 . S
C395 H397 0.960 . S
C395 H398 0.961 . S
H396 C395 0.959 . S
H397 C395 0.960 . S
H398 C395 0.961 . S
O399 Co374 1.967 . S
O399 C407 1.258 . S
O400 Co375 1.941 . S
O400 C407 1.266 . S
H401 C403 0.959 . S
H402 C403 0.961 . S
C403 C393 1.510 . S
C403 H401 0.959 . S
C403 H402 0.961 . S
C403 H404 0.960 . S
H404 C403 0.960 . S
H405 N385 0.862 . S
O406 Co374 1.920 . S
O406 C379 1.289 . S
C407 O399 1.258 . S
C407 O400 1.266 . S
Co408 O411 1.970 . S
Co408 N425 1.989 . S
Co408 O433 1.967 . S
Co408 O440 1.920 . S
Co409 O412 1.966 . S
Co409 N418 2.022 . S
Co409 N426 1.993 . S
Co409 O434 1.941 . S
C410 O411 1.258 . S
C410 O412 1.263 . S
O411 Co408 1.970 . S
O411 C410 1.258 . S
O412 Co409 1.966 . S
O412 C410 1.263 . S
C413 O414 1.235 . S
C413 O440 1.289 . S
O414 C413 1.235 . S
C415 C417 1.400 . S
C415 N418 1.351 . S
C415 C420 1.501 . S
C416 C417 1.387 . S
C416 N419 1.341 . S
C417 C415 1.400 . S
C417 C416 1.387 . S
N418 Co409 2.022 . S
N418 C415 1.351 . S
N418 N419 1.365 . S
N419 C416 1.341 . S
N419 N418 1.365 . S
N419 H439 0.862 . S
C420 C415 1.501 . S
C420 H421 0.961 . S
C420 H422 0.961 . S
C420 H423 0.960 . S
H421 C420 0.961 . S
H422 C420 0.961 . S
H423 C420 0.960 . S
C424 N425 1.342 . S
C424 C428 1.401 . S
C424 C429 1.499 . S
N425 Co408 1.989 . S
N425 C424 1.342 . S
N425 N426 1.388 . S
N426 Co409 1.993 . S
N426 N425 1.388 . S
N426 C427 1.346 . S
C427 N426 1.346 . S
C427 C428 1.396 . S
C427 C437 1.510 . S
C428 C424 1.401 . S
C428 C427 1.396 . S
C429 C424 1.499 . S
C429 H430 0.959 . S
C429 H431 0.960 . S
C429 H432 0.961 . S
H430 C429 0.959 . S
H431 C429 0.960 . S
H432 C429 0.961 . S
O433 Co408 1.967 . S
O433 C441 1.258 . S
O434 Co409 1.941 . S
O434 C441 1.266 . S
H435 C437 0.959 . S
H436 C437 0.961 . S
C437 C427 1.510 . S
C437 H435 0.959 . S
C437 H436 0.961 . S
C437 H438 0.960 . S
H438 C437 0.960 . S
H439 N419 0.862 . S
O440 Co408 1.920 . S
O440 C413 1.289 . S
C441 O433 1.258 . S
C441 O434 1.266 . S
Co442 O445 1.970 . S
Co442 N459 1.989 . S
Co442 O467 1.967 . S
Co442 O474 1.920 . S
Co443 O446 1.966 . S
Co443 N452 2.022 . S
Co443 N460 1.993 . S
Co443 O468 1.941 . S
C444 O445 1.258 . S
C444 O446 1.263 . S
O445 Co442 1.970 . S
O445 C444 1.258 . S
O446 Co443 1.966 . S
O446 C444 1.263 . S
C447 O448 1.235 . S
C447 O474 1.289 . S
O448 C447 1.235 . S
C449 C451 1.400 . S
C449 N452 1.351 . S
C449 C454 1.501 . S
C450 C451 1.387 . S
C450 N453 1.341 . S
C451 C449 1.400 . S
C451 C450 1.387 . S
N452 Co443 2.022 . S
N452 C449 1.351 . S
N452 N453 1.365 . S
N453 C450 1.341 . S
N453 N452 1.365 . S
N453 H473 0.862 . S
C454 C449 1.501 . S
C454 H455 0.961 . S
C454 H456 0.961 . S
C454 H457 0.960 . S
H455 C454 0.961 . S
H456 C454 0.961 . S
H457 C454 0.960 . S
C458 N459 1.342 . S
C458 C462 1.401 . S
C458 C463 1.499 . S
N459 Co442 1.989 . S
N459 C458 1.342 . S
N459 N460 1.388 . S
N460 Co443 1.993 . S
N460 N459 1.388 . S
N460 C461 1.346 . S
C461 N460 1.346 . S
C461 C462 1.396 . S
C461 C471 1.510 . S
C462 C458 1.401 . S
C462 C461 1.396 . S
C463 C458 1.499 . S
C463 H464 0.959 . S
C463 H465 0.960 . S
C463 H466 0.961 . S
H464 C463 0.959 . S
H465 C463 0.960 . S
H466 C463 0.961 . S
O467 Co442 1.967 . S
O467 C475 1.258 . S
O468 Co443 1.941 . S
O468 C475 1.266 . S
H469 C471 0.959 . S
H470 C471 0.961 . S
C471 C461 1.510 . S
C471 H469 0.959 . S
C471 H470 0.961 . S
C471 H472 0.960 . S
H472 C471 0.960 . S
H473 N453 0.862 . S
O474 Co442 1.920 . S
O474 C447 1.289 . S
C475 O467 1.258 . S
C475 O468 1.266 . S
Co476 O479 1.970 . S
Co476 N493 1.989 . S
Co476 O501 1.967 . S
Co476 O508 1.920 . S
Co477 O480 1.966 . S
Co477 N486 2.022 . S
Co477 N494 1.993 . S
Co477 O502 1.941 . S
C478 O479 1.258 . S
C478 O480 1.263 . S
O479 Co476 1.970 . S
O479 C478 1.258 . S
O480 Co477 1.966 . S
O480 C478 1.263 . S
C481 O482 1.235 . S
C481 O508 1.289 . S
O482 C481 1.235 . S
C483 C485 1.400 . S
C483 N486 1.351 . S
C483 C488 1.501 . S
C484 C485 1.387 . S
C484 N487 1.341 . S
C485 C483 1.400 . S
C485 C484 1.387 . S
N486 Co477 2.022 . S
N486 C483 1.351 . S
N486 N487 1.365 . S
N487 C484 1.341 . S
N487 N486 1.365 . S
N487 H507 0.862 . S
C488 C483 1.501 . S
C488 H489 0.961 . S
C488 H490 0.961 . S
C488 H491 0.960 . S
H489 C488 0.961 . S
H490 C488 0.961 . S
H491 C488 0.960 . S
C492 N493 1.342 . S
C492 C496 1.401 . S
C492 C497 1.499 . S
N493 Co476 1.989 . S
N493 C492 1.342 . S
N493 N494 1.388 . S
N494 Co477 1.993 . S
N494 N493 1.388 . S
N494 C495 1.346 . S
C495 N494 1.346 . S
C495 C496 1.396 . S
C495 C505 1.510 . S
C496 C492 1.401 . S
C496 C495 1.396 . S
C497 C492 1.499 . S
C497 H498 0.959 . S
C497 H499 0.960 . S
C497 H500 0.961 . S
H498 C497 0.959 . S
H499 C497 0.960 . S
H500 C497 0.961 . S
O501 Co476 1.967 . S
O501 C509 1.258 . S
O502 Co477 1.941 . S
O502 C509 1.266 . S
H503 C505 0.959 . S
H504 C505 0.961 . S
C505 C495 1.510 . S
C505 H503 0.959 . S
C505 H504 0.961 . S
C505 H506 0.960 . S
H506 C505 0.960 . S
H507 N487 0.862 . S
O508 Co476 1.920 . S
O508 C481 1.289 . S
C509 O501 1.258 . S
C509 O502 1.266 . S
Co510 O513 1.970 . S
Co510 N527 1.989 . S
Co510 O535 1.967 . S
Co510 O542 1.920 . S
Co511 O514 1.966 . S
Co511 N520 2.022 . S
Co511 N528 1.993 . S
Co511 O536 1.941 . S
C512 O513 1.258 . S
C512 O514 1.263 . S
O513 Co510 1.970 . S
O513 C512 1.258 . S
O514 Co511 1.966 . S
O514 C512 1.263 . S
C515 O516 1.235 . S
C515 O542 1.289 . S
O516 C515 1.235 . S
C517 C519 1.400 . S
C517 N520 1.351 . S
C517 C522 1.501 . S
C518 C519 1.387 . S
C518 N521 1.341 . S
C519 C517 1.400 . S
C519 C518 1.387 . S
N520 Co511 2.022 . S
N520 C517 1.351 . S
N520 N521 1.365 . S
N521 C518 1.341 . S
N521 N520 1.365 . S
N521 H541 0.862 . S
C522 C517 1.501 . S
C522 H523 0.961 . S
C522 H524 0.961 . S
C522 H525 0.960 . S
H523 C522 0.961 . S
H524 C522 0.961 . S
H525 C522 0.960 . S
C526 N527 1.342 . S
C526 C530 1.401 . S
C526 C531 1.499 . S
N527 Co510 1.989 . S
N527 C526 1.342 . S
N527 N528 1.388 . S
N528 Co511 1.993 . S
N528 N527 1.388 . S
N528 C529 1.346 . S
C529 N528 1.346 . S
C529 C530 1.396 . S
C529 C539 1.510 . S
C530 C526 1.401 . S
C530 C529 1.396 . S
C531 C526 1.499 . S
C531 H532 0.959 . S
C531 H533 0.960 . S
C531 H534 0.961 . S
H532 C531 0.959 . S
H533 C531 0.960 . S
H534 C531 0.961 . S
O535 Co510 1.967 . S
O535 C543 1.258 . S
O536 Co511 1.941 . S
O536 C543 1.266 . S
H537 C539 0.959 . S
H538 C539 0.961 . S
C539 C529 1.510 . S
C539 H537 0.959 . S
C539 H538 0.961 . S
C539 H540 0.960 . S
H540 C539 0.960 . S
H541 N521 0.862 . S
O542 Co510 1.920 . S
O542 C515 1.289 . S
C543 O535 1.258 . S
C543 O536 1.266 . S
C544 C545 1.349 . S
C544 C546 1.327 . S
C544 H569 0.950 . S
C545 C544 1.349 . S
C545 C561 1.349 . S
C546 C544 1.327 . S
C546 C565 1.429 . S
C546 H570 0.950 . S
C547 C564 1.574 . S
C547 C566 1.368 . S
C547 H571 0.949 . S
H548 C552 0.949 . S
C549 C550 1.349 . S
C549 C551 1.327 . S
C549 H572 0.950 . S
C550 C549 1.349 . S
C550 C562 1.349 . S
C551 C549 1.327 . S
C551 C567 1.429 . S
C551 H573 0.950 . S
C552 H548 0.949 . S
C552 C560 1.574 . S
C552 C568 1.368 . S
H553 C561 0.950 . S
H554 C559 0.950 . S
H555 C560 0.949 . S
H556 C562 0.950 . S
H557 C563 0.950 . S
H558 C564 0.949 . S
C559 H554 0.950 . S
C559 C561 1.327 . S
C559 C565 1.429 . S
C560 C552 1.574 . S
C560 H555 0.949 . S
C560 C566 1.368 . S
C561 C545 1.349 . S
C561 H553 0.950 . S
C561 C559 1.327 . S
C562 C550 1.349 . S
C562 H556 0.950 . S
C562 C563 1.327 . S
C563 H557 0.950 . S
C563 C562 1.327 . S
C563 C567 1.429 . S
C564 C547 1.574 . S
C564 H558 0.949 . S
C564 C568 1.368 . S
C565 C546 1.429 . S
C565 C559 1.429 . S
C565 C566 1.523 . S
C566 C547 1.368 . S
C566 C560 1.368 . S
C566 C565 1.523 . S
C567 C551 1.429 . S
C567 C563 1.429 . S
C567 C568 1.523 . S
C568 C552 1.368 . S
C568 C564 1.368 . S
C568 C567 1.523 . S
H569 C544 0.950 . S
H570 C546 0.950 . S
H571 C547 0.949 . S
H572 C549 0.950 . S
H573 C551 0.950 . S
C574 C575 1.349 . S
C574 C576 1.327 . S
C574 H599 0.950 . S
C575 C574 1.349 . S
C575 C591 1.349 . S
C576 C574 1.327 . S
C576 C595 1.429 . S
C576 H600 0.950 . S
C577 C594 1.574 . S
C577 C596 1.368 . S
C577 H601 0.949 . S
H578 C582 0.949 . S
C579 C580 1.349 . S
C579 C581 1.327 . S
C579 H602 0.950 . S
C580 C579 1.349 . S
C580 C592 1.349 . S
C581 C579 1.327 . S
C581 C597 1.429 . S
C581 H603 0.950 . S
C582 H578 0.949 . S
C582 C590 1.574 . S
C582 C598 1.368 . S
H583 C591 0.950 . S
H584 C589 0.950 . S
H585 C590 0.949 . S
H586 C592 0.950 . S
H587 C593 0.950 . S
H588 C594 0.949 . S
C589 H584 0.950 . S
C589 C591 1.327 . S
C589 C595 1.429 . S
C590 C582 1.574 . S
C590 H585 0.949 . S
C590 C596 1.368 . S
C591 C575 1.349 . S
C591 H583 0.950 . S
C591 C589 1.327 . S
C592 C580 1.349 . S
C592 H586 0.950 . S
C592 C593 1.327 . S
C593 H587 0.950 . S
C593 C592 1.327 . S
C593 C597 1.429 . S
C594 C577 1.574 . S
C594 H588 0.949 . S
C594 C598 1.368 . S
C595 C576 1.429 . S
C595 C589 1.429 . S
C595 C596 1.523 . S
C596 C577 1.368 . S
C596 C590 1.368 . S
C596 C595 1.523 . S
C597 C581 1.429 . S
C597 C593 1.429 . S
C597 C598 1.523 . S
C598 C582 1.368 . S
C598 C594 1.368 . S
C598 C597 1.523 . S
H599 C574 0.950 . S
H600 C576 0.950 . S
H601 C577 0.949 . S
H602 C579 0.950 . S
H603 C581 0.950 . S
C604 C605 1.349 . S
C604 C606 1.327 . S
C604 H629 0.950 . S
C605 C604 1.349 . S
C605 C621 1.349 . S
C606 C604 1.327 . S
C606 C625 1.429 . S
C606 H630 0.950 . S
C607 C624 1.574 . S
C607 C626 1.368 . S
C607 H631 0.949 . S
H608 C612 0.949 . S
C609 C610 1.349 . S
C609 C611 1.327 . S
C609 H632 0.950 . S
C610 C609 1.349 . S
C610 C622 1.349 . S
C611 C609 1.327 . S
C611 C627 1.429 . S
C611 H633 0.950 . S
C612 H608 0.949 . S
C612 C620 1.574 . S
C612 C628 1.368 . S
H613 C621 0.950 . S
H614 C619 0.950 . S
H615 C620 0.949 . S
H616 C622 0.950 . S
H617 C623 0.950 . S
H618 C624 0.949 . S
C619 H614 0.950 . S
C619 C621 1.327 . S
C619 C625 1.429 . S
C620 C612 1.574 . S
C620 H615 0.949 . S
C620 C626 1.368 . S
C621 C605 1.349 . S
C621 H613 0.950 . S
C621 C619 1.327 . S
C622 C610 1.349 . S
C622 H616 0.950 . S
C622 C623 1.327 . S
C623 H617 0.950 . S
C623 C622 1.327 . S
C623 C627 1.429 . S
C624 C607 1.574 . S
C624 H618 0.949 . S
C624 C628 1.368 . S
C625 C606 1.429 . S
C625 C619 1.429 . S
C625 C626 1.523 . S
C626 C607 1.368 . S
C626 C620 1.368 . S
C626 C625 1.523 . S
C627 C611 1.429 . S
C627 C623 1.429 . S
C627 C628 1.523 . S
C628 C612 1.368 . S
C628 C624 1.368 . S
C628 C627 1.523 . S
H629 C604 0.950 . S
H630 C606 0.950 . S
H631 C607 0.949 . S
H632 C609 0.950 . S
H633 C611 0.950 . S
C634 C635 1.349 . S
C634 C636 1.327 . S
C634 H659 0.950 . S
C635 C634 1.349 . S
C635 C651 1.349 . S
C636 C634 1.327 . S
C636 C655 1.429 . S
C636 H660 0.950 . S
C637 C654 1.574 . S
C637 C656 1.368 . S
C637 H661 0.949 . S
H638 C642 0.949 . S
C639 C640 1.349 . S
C639 C641 1.327 . S
C639 H662 0.950 . S
C640 C639 1.349 . S
C640 C652 1.349 . S
C641 C639 1.327 . S
C641 C657 1.429 . S
C641 H663 0.950 . S
C642 H638 0.949 . S
C642 C650 1.574 . S
C642 C658 1.368 . S
H643 C651 0.950 . S
H644 C649 0.950 . S
H645 C650 0.949 . S
H646 C652 0.950 . S
H647 C653 0.950 . S
H648 C654 0.949 . S
C649 H644 0.950 . S
C649 C651 1.327 . S
C649 C655 1.429 . S
C650 C642 1.574 . S
C650 H645 0.949 . S
C650 C656 1.368 . S
C651 C635 1.349 . S
C651 H643 0.950 . S
C651 C649 1.327 . S
C652 C640 1.349 . S
C652 H646 0.950 . S
C652 C653 1.327 . S
C653 H647 0.950 . S
C653 C652 1.327 . S
C653 C657 1.429 . S
C654 C637 1.574 . S
C654 H648 0.949 . S
C654 C658 1.368 . S
C655 C636 1.429 . S
C655 C649 1.429 . S
C655 C656 1.523 . S
C656 C637 1.368 . S
C656 C650 1.368 . S
C656 C655 1.523 . S
C657 C641 1.429 . S
C657 C653 1.429 . S
C657 C658 1.523 . S
C658 C642 1.368 . S
C658 C654 1.368 . S
C658 C657 1.523 . S
H659 C634 0.950 . S
H660 C636 0.950 . S
H661 C637 0.949 . S
H662 C639 0.950 . S
H663 C641 0.950 . S
C664 C665 1.349 . S
C664 C666 1.327 . S
C664 H689 0.950 . S
C665 C664 1.349 . S
C665 C681 1.349 . S
C666 C664 1.327 . S
C666 C685 1.429 . S
C666 H690 0.950 . S
C667 C684 1.574 . S
C667 C686 1.368 . S
C667 H691 0.949 . S
H668 C672 0.949 . S
C669 C670 1.349 . S
C669 C671 1.327 . S
C669 H692 0.950 . S
C670 C669 1.349 . S
C670 C682 1.349 . S
C671 C669 1.327 . S
C671 C687 1.429 . S
C671 H693 0.950 . S
C672 H668 0.949 . S
C672 C680 1.574 . S
C672 C688 1.368 . S
H673 C681 0.950 . S
H674 C679 0.950 . S
H675 C680 0.949 . S
H676 C682 0.950 . S
H677 C683 0.950 . S
H678 C684 0.949 . S
C679 H674 0.950 . S
C679 C681 1.327 . S
C679 C685 1.429 . S
C680 C672 1.574 . S
C680 H675 0.949 . S
C680 C686 1.368 . S
C681 C665 1.349 . S
C681 H673 0.950 . S
C681 C679 1.327 . S
C682 C670 1.349 . S
C682 H676 0.950 . S
C682 C683 1.327 . S
C683 H677 0.950 . S
C683 C682 1.327 . S
C683 C687 1.429 . S
C684 C667 1.574 . S
C684 H678 0.949 . S
C684 C688 1.368 . S
C685 C666 1.429 . S
C685 C679 1.429 . S
C685 C686 1.523 . S
C686 C667 1.368 . S
C686 C680 1.368 . S
C686 C685 1.523 . S
C687 C671 1.429 . S
C687 C683 1.429 . S
C687 C688 1.523 . S
C688 C672 1.368 . S
C688 C684 1.368 . S
C688 C687 1.523 . S
H689 C664 0.950 . S
H690 C666 0.950 . S
H691 C667 0.949 . S
H692 C669 0.950 . S
H693 C671 0.950 . S
C694 C695 1.349 . S
C694 C696 1.327 . S
C694 H719 0.950 . S
C695 C694 1.349 . S
C695 C711 1.349 . S
C696 C694 1.327 . S
C696 C715 1.429 . S
C696 H720 0.950 . S
C697 C714 1.574 . S
C697 C716 1.368 . S
C697 H721 0.949 . S
H698 C702 0.949 . S
C699 C700 1.349 . S
C699 C701 1.327 . S
C699 H722 0.950 . S
C700 C699 1.349 . S
C700 C712 1.349 . S
C701 C699 1.327 . S
C701 C717 1.429 . S
C701 H723 0.950 . S
C702 H698 0.949 . S
C702 C710 1.574 . S
C702 C718 1.368 . S
H703 C711 0.950 . S
H704 C709 0.950 . S
H705 C710 0.949 . S
H706 C712 0.950 . S
H707 C713 0.950 . S
H708 C714 0.949 . S
C709 H704 0.950 . S
C709 C711 1.327 . S
C709 C715 1.429 . S
C710 C702 1.574 . S
C710 H705 0.949 . S
C710 C716 1.368 . S
C711 C695 1.349 . S
C711 H703 0.950 . S
C711 C709 1.327 . S
C712 C700 1.349 . S
C712 H706 0.950 . S
C712 C713 1.327 . S
C713 H707 0.950 . S
C713 C712 1.327 . S
C713 C717 1.429 . S
C714 C697 1.574 . S
C714 H708 0.949 . S
C714 C718 1.368 . S
C715 C696 1.429 . S
C715 C709 1.429 . S
C715 C716 1.523 . S
C716 C697 1.368 . S
C716 C710 1.368 . S
C716 C715 1.523 . S
C717 C701 1.429 . S
C717 C713 1.429 . S
C717 C718 1.523 . S
C718 C702 1.368 . S
C718 C714 1.368 . S
C718 C717 1.523 . S
H719 C694 0.950 . S
H720 C696 0.950 . S
H721 C697 0.949 . S
H722 C699 0.950 . S
H723 C701 0.950 . S
C724 C725 1.349 . S
C724 C726 1.327 . S
C724 H749 0.950 . S
C725 C724 1.349 . S
C725 C741 1.349 . S
C726 C724 1.327 . S
C726 C745 1.429 . S
C726 H750 0.950 . S
C727 C744 1.574 . S
C727 C746 1.368 . S
C727 H751 0.949 . S
H728 C732 0.949 . S
C729 C730 1.349 . S
C729 C731 1.327 . S
C729 H752 0.950 . S
C730 C729 1.349 . S
C730 C742 1.349 . S
C731 C729 1.327 . S
C731 C747 1.429 . S
C731 H753 0.950 . S
C732 H728 0.949 . S
C732 C740 1.574 . S
C732 C748 1.368 . S
H733 C741 0.950 . S
H734 C739 0.950 . S
H735 C740 0.949 . S
H736 C742 0.950 . S
H737 C743 0.950 . S
H738 C744 0.949 . S
C739 H734 0.950 . S
C739 C741 1.327 . S
C739 C745 1.429 . S
C740 C732 1.574 . S
C740 H735 0.949 . S
C740 C746 1.368 . S
C741 C725 1.349 . S
C741 H733 0.950 . S
C741 C739 1.327 . S
C742 C730 1.349 . S
C742 H736 0.950 . S
C742 C743 1.327 . S
C743 H737 0.950 . S
C743 C742 1.327 . S
C743 C747 1.429 . S
C744 C727 1.574 . S
C744 H738 0.949 . S
C744 C748 1.368 . S
C745 C726 1.429 . S
C745 C739 1.429 . S
C745 C746 1.523 . S
C746 C727 1.368 . S
C746 C740 1.368 . S
C746 C745 1.523 . S
C747 C731 1.429 . S
C747 C743 1.429 . S
C747 C748 1.523 . S
C748 C732 1.368 . S
C748 C744 1.368 . S
C748 C747 1.523 . S
H749 C724 0.950 . S
H750 C726 0.950 . S
H751 C727 0.949 . S
H752 C729 0.950 . S
H753 C731 0.950 . S
C754 C755 1.349 . S
C754 C756 1.327 . S
C754 H779 0.950 . S
C755 C754 1.349 . S
C755 C771 1.349 . S
C756 C754 1.327 . S
C756 C775 1.429 . S
C756 H780 0.950 . S
C757 C774 1.574 . S
C757 C776 1.368 . S
C757 H781 0.949 . S
H758 C762 0.949 . S
C759 C760 1.349 . S
C759 C761 1.327 . S
C759 H782 0.950 . S
C760 C759 1.349 . S
C760 C772 1.349 . S
C761 C759 1.327 . S
C761 C777 1.429 . S
C761 H783 0.950 . S
C762 H758 0.949 . S
C762 C770 1.574 . S
C762 C778 1.368 . S
H763 C771 0.950 . S
H764 C769 0.950 . S
H765 C770 0.949 . S
H766 C772 0.950 . S
H767 C773 0.950 . S
H768 C774 0.949 . S
C769 H764 0.950 . S
C769 C771 1.327 . S
C769 C775 1.429 . S
C770 C762 1.574 . S
C770 H765 0.949 . S
C770 C776 1.368 . S
C771 C755 1.349 . S
C771 H763 0.950 . S
C771 C769 1.327 . S
C772 C760 1.349 . S
C772 H766 0.950 . S
C772 C773 1.327 . S
C773 H767 0.950 . S
C773 C772 1.327 . S
C773 C777 1.429 . S
C774 C757 1.574 . S
C774 H768 0.949 . S
C774 C778 1.368 . S
C775 C756 1.429 . S
C775 C769 1.429 . S
C775 C776 1.523 . S
C776 C757 1.368 . S
C776 C770 1.368 . S
C776 C775 1.523 . S
C777 C761 1.429 . S
C777 C773 1.429 . S
C777 C778 1.523 . S
C778 C762 1.368 . S
C778 C774 1.368 . S
C778 C777 1.523 . S
H779 C754 0.950 . S
H780 C756 0.950 . S
H781 C757 0.949 . S
H782 C759 0.950 . S
H783 C761 0.950 . S
C784 C785 1.349 . S
C784 C786 1.327 . S
C784 H809 0.950 . S
C785 C784 1.349 . S
C785 C801 1.349 . S
C786 C784 1.327 . S
C786 C805 1.429 . S
C786 H810 0.950 . S
C787 C804 1.574 . S
C787 C806 1.368 . S
C787 H811 0.949 . S
H788 C792 0.949 . S
C789 C790 1.349 . S
C789 C791 1.327 . S
C789 H812 0.950 . S
C790 C789 1.349 . S
C790 C802 1.349 . S
C791 C789 1.327 . S
C791 C807 1.429 . S
C791 H813 0.950 . S
C792 H788 0.949 . S
C792 C800 1.574 . S
C792 C808 1.368 . S
H793 C801 0.950 . S
H794 C799 0.950 . S
H795 C800 0.949 . S
H796 C802 0.950 . S
H797 C803 0.950 . S
H798 C804 0.949 . S
C799 H794 0.950 . S
C799 C801 1.327 . S
C799 C805 1.429 . S
C800 C792 1.574 . S
C800 H795 0.949 . S
C800 C806 1.368 . S
C801 C785 1.349 . S
C801 H793 0.950 . S
C801 C799 1.327 . S
C802 C790 1.349 . S
C802 H796 0.950 . S
C802 C803 1.327 . S
C803 H797 0.950 . S
C803 C802 1.327 . S
C803 C807 1.429 . S
C804 C787 1.574 . S
C804 H798 0.949 . S
C804 C808 1.368 . S
C805 C786 1.429 . S
C805 C799 1.429 . S
C805 C806 1.523 . S
C806 C787 1.368 . S
C806 C800 1.368 . S
C806 C805 1.523 . S
C807 C791 1.429 . S
C807 C803 1.429 . S
C807 C808 1.523 . S
C808 C792 1.368 . S
C808 C804 1.368 . S
C808 C807 1.523 . S
H809 C784 0.950 . S
H810 C786 0.950 . S
H811 C787 0.949 . S
H812 C789 0.950 . S
H813 C791 0.950 . S
C814 C815 1.349 . S
C814 C816 1.327 . S
C814 H839 0.950 . S
C815 C814 1.349 . S
C815 C831 1.349 . S
C816 C814 1.327 . S
C816 C835 1.429 . S
C816 H840 0.950 . S
C817 C834 1.574 . S
C817 C836 1.368 . S
C817 H841 0.949 . S
H818 C822 0.949 . S
C819 C820 1.349 . S
C819 C821 1.327 . S
C819 H842 0.950 . S
C820 C819 1.349 . S
C820 C832 1.349 . S
C821 C819 1.327 . S
C821 C837 1.429 . S
C821 H843 0.950 . S
C822 H818 0.949 . S
C822 C830 1.574 . S
C822 C838 1.368 . S
H823 C831 0.950 . S
H824 C829 0.950 . S
H825 C830 0.949 . S
H826 C832 0.950 . S
H827 C833 0.950 . S
H828 C834 0.949 . S
C829 H824 0.950 . S
C829 C831 1.327 . S
C829 C835 1.429 . S
C830 C822 1.574 . S
C830 H825 0.949 . S
C830 C836 1.368 . S
C831 C815 1.349 . S
C831 H823 0.950 . S
C831 C829 1.327 . S
C832 C820 1.349 . S
C832 H826 0.950 . S
C832 C833 1.327 . S
C833 H827 0.950 . S
C833 C832 1.327 . S
C833 C837 1.429 . S
C834 C817 1.574 . S
C834 H828 0.949 . S
C834 C838 1.368 . S
C835 C816 1.429 . S
C835 C829 1.429 . S
C835 C836 1.523 . S
C836 C817 1.368 . S
C836 C830 1.368 . S
C836 C835 1.523 . S
C837 C821 1.429 . S
C837 C833 1.429 . S
C837 C838 1.523 . S
C838 C822 1.368 . S
C838 C834 1.368 . S
C838 C837 1.523 . S
H839 C814 0.950 . S
H840 C816 0.950 . S
H841 C817 0.949 . S
H842 C819 0.950 . S
H843 C821 0.950 . S
C844 C845 1.349 . S
C844 C846 1.327 . S
C844 H869 0.950 . S
C845 C844 1.349 . S
C845 C861 1.349 . S
C846 C844 1.327 . S
C846 C865 1.429 . S
C846 H870 0.950 . S
C847 C864 1.574 . S
C847 C866 1.368 . S
C847 H871 0.949 . S
H848 C852 0.949 . S
C849 C850 1.349 . S
C849 C851 1.327 . S
C849 H872 0.950 . S
C850 C849 1.349 . S
C850 C862 1.349 . S
C851 C849 1.327 . S
C851 C867 1.429 . S
C851 H873 0.950 . S
C852 H848 0.949 . S
C852 C860 1.574 . S
C852 C868 1.368 . S
H853 C861 0.950 . S
H854 C859 0.950 . S
H855 C860 0.949 . S
H856 C862 0.950 . S
H857 C863 0.950 . S
H858 C864 0.949 . S
C859 H854 0.950 . S
C859 C861 1.327 . S
C859 C865 1.429 . S
C860 C852 1.574 . S
C860 H855 0.949 . S
C860 C866 1.368 . S
C861 C845 1.349 . S
C861 H853 0.950 . S
C861 C859 1.327 . S
C862 C850 1.349 . S
C862 H856 0.950 . S
C862 C863 1.327 . S
C863 H857 0.950 . S
C863 C862 1.327 . S
C863 C867 1.429 . S
C864 C847 1.574 . S
C864 H858 0.949 . S
C864 C868 1.368 . S
C865 C846 1.429 . S
C865 C859 1.429 . S
C865 C866 1.523 . S
C866 C847 1.368 . S
C866 C860 1.368 . S
C866 C865 1.523 . S
C867 C851 1.429 . S
C867 C863 1.429 . S
C867 C868 1.523 . S
C868 C852 1.368 . S
C868 C864 1.368 . S
C868 C867 1.523 . S
H869 C844 0.950 . S
H870 C846 0.950 . S
H871 C847 0.949 . S
H872 C849 0.950 . S
H873 C851 0.950 . S
C874 C875 1.349 . S
C874 C876 1.327 . S
C874 H899 0.950 . S
C875 C874 1.349 . S
C875 C891 1.349 . S
C876 C874 1.327 . S
C876 C895 1.429 . S
C876 H900 0.950 . S
C877 C894 1.574 . S
C877 C896 1.368 . S
C877 H901 0.949 . S
H878 C882 0.949 . S
C879 C880 1.349 . S
C879 C881 1.327 . S
C879 H902 0.950 . S
C880 C879 1.349 . S
C880 C892 1.349 . S
C881 C879 1.327 . S
C881 C897 1.429 . S
C881 H903 0.950 . S
C882 H878 0.949 . S
C882 C890 1.574 . S
C882 C898 1.368 . S
H883 C891 0.950 . S
H884 C889 0.950 . S
H885 C890 0.949 . S
H886 C892 0.950 . S
H887 C893 0.950 . S
H888 C894 0.949 . S
C889 H884 0.950 . S
C889 C891 1.327 . S
C889 C895 1.429 . S
C890 C882 1.574 . S
C890 H885 0.949 . S
C890 C896 1.368 . S
C891 C875 1.349 . S
C891 H883 0.950 . S
C891 C889 1.327 . S
C892 C880 1.349 . S
C892 H886 0.950 . S
C892 C893 1.327 . S
C893 H887 0.950 . S
C893 C892 1.327 . S
C893 C897 1.429 . S
C894 C877 1.574 . S
C894 H888 0.949 . S
C894 C898 1.368 . S
C895 C876 1.429 . S
C895 C889 1.429 . S
C895 C896 1.523 . S
C896 C877 1.368 . S
C896 C890 1.368 . S
C896 C895 1.523 . S
C897 C881 1.429 . S
C897 C893 1.429 . S
C897 C898 1.523 . S
C898 C882 1.368 . S
C898 C894 1.368 . S
C898 C897 1.523 . S
H899 C874 0.950 . S
H900 C876 0.950 . S
H901 C877 0.949 . S
H902 C879 0.950 . S
H903 C881 0.950 . S
C904 C905 1.349 . S
C904 C906 1.327 . S
C904 H929 0.950 . S
C905 C904 1.349 . S
C905 C921 1.349 . S
C906 C904 1.327 . S
C906 C925 1.429 . S
C906 H930 0.950 . S
C907 C924 1.574 . S
C907 C926 1.368 . S
C907 H931 0.949 . S
H908 C912 0.949 . S
C909 C910 1.349 . S
C909 C911 1.327 . S
C909 H932 0.950 . S
C910 C909 1.349 . S
C910 C922 1.349 . S
C911 C909 1.327 . S
C911 C927 1.429 . S
C911 H933 0.950 . S
C912 H908 0.949 . S
C912 C920 1.574 . S
C912 C928 1.368 . S
H913 C921 0.950 . S
H914 C919 0.950 . S
H915 C920 0.949 . S
H916 C922 0.950 . S
H917 C923 0.950 . S
H918 C924 0.949 . S
C919 H914 0.950 . S
C919 C921 1.327 . S
C919 C925 1.429 . S
C920 C912 1.574 . S
C920 H915 0.949 . S
C920 C926 1.368 . S
C921 C905 1.349 . S
C921 H913 0.950 . S
C921 C919 1.327 . S
C922 C910 1.349 . S
C922 H916 0.950 . S
C922 C923 1.327 . S
C923 H917 0.950 . S
C923 C922 1.327 . S
C923 C927 1.429 . S
C924 C907 1.574 . S
C924 H918 0.949 . S
C924 C928 1.368 . S
C925 C906 1.429 . S
C925 C919 1.429 . S
C925 C926 1.523 . S
C926 C907 1.368 . S
C926 C920 1.368 . S
C926 C925 1.523 . S
C927 C911 1.429 . S
C927 C923 1.429 . S
C927 C928 1.523 . S
C928 C912 1.368 . S
C928 C924 1.368 . S
C928 C927 1.523 . S
H929 C904 0.950 . S
H930 C906 0.950 . S
H931 C907 0.949 . S
H932 C909 0.950 . S
H933 C911 0.950 . S
C934 C935 1.349 . S
C934 C936 1.327 . S
C934 H959 0.950 . S
C935 C934 1.349 . S
C935 C951 1.349 . S
C936 C934 1.327 . S
C936 C955 1.429 . S
C936 H960 0.950 . S
C937 C954 1.574 . S
C937 C956 1.368 . S
C937 H961 0.949 . S
H938 C942 0.949 . S
C939 C940 1.349 . S
C939 C941 1.327 . S
C939 H962 0.950 . S
C940 C939 1.349 . S
C940 C952 1.349 . S
C941 C939 1.327 . S
C941 C957 1.429 . S
C941 H963 0.950 . S
C942 H938 0.949 . S
C942 C950 1.574 . S
C942 C958 1.368 . S
H943 C951 0.950 . S
H944 C949 0.950 . S
H945 C950 0.949 . S
H946 C952 0.950 . S
H947 C953 0.950 . S
H948 C954 0.949 . S
C949 H944 0.950 . S
C949 C951 1.327 . S
C949 C955 1.429 . S
C950 C942 1.574 . S
C950 H945 0.949 . S
C950 C956 1.368 . S
C951 C935 1.349 . S
C951 H943 0.950 . S
C951 C949 1.327 . S
C952 C940 1.349 . S
C952 H946 0.950 . S
C952 C953 1.327 . S
C953 H947 0.950 . S
C953 C952 1.327 . S
C953 C957 1.429 . S
C954 C937 1.574 . S
C954 H948 0.949 . S
C954 C958 1.368 . S
C955 C936 1.429 . S
C955 C949 1.429 . S
C955 C956 1.523 . S
C956 C937 1.368 . S
C956 C950 1.368 . S
C956 C955 1.523 . S
C957 C941 1.429 . S
C957 C953 1.429 . S
C957 C958 1.523 . S
C958 C942 1.368 . S
C958 C954 1.368 . S
C958 C957 1.523 . S
H959 C934 0.950 . S
H960 C936 0.950 . S
H961 C937 0.949 . S
H962 C939 0.950 . S
H963 C941 0.950 . S
C964 C965 1.349 . S
C964 C966 1.327 . S
C964 H989 0.950 . S
C965 C964 1.349 . S
C965 C981 1.349 . S
C966 C964 1.327 . S
C966 C985 1.429 . S
C966 H990 0.950 . S
C967 C984 1.574 . S
C967 C986 1.368 . S
C967 H991 0.949 . S
H968 C972 0.949 . S
C969 C970 1.349 . S
C969 C971 1.327 . S
C969 H992 0.950 . S
C970 C969 1.349 . S
C970 C982 1.349 . S
C971 C969 1.327 . S
C971 C987 1.429 . S
C971 H993 0.950 . S
C972 H968 0.949 . S
C972 C980 1.574 . S
C972 C988 1.368 . S
H973 C981 0.950 . S
H974 C979 0.950 . S
H975 C980 0.949 . S
H976 C982 0.950 . S
H977 C983 0.950 . S
H978 C984 0.949 . S
C979 H974 0.950 . S
C979 C981 1.327 . S
C979 C985 1.429 . S
C980 C972 1.574 . S
C980 H975 0.949 . S
C980 C986 1.368 . S
C981 C965 1.349 . S
C981 H973 0.950 . S
C981 C979 1.327 . S
C982 C970 1.349 . S
C982 H976 0.950 . S
C982 C983 1.327 . S
C983 H977 0.950 . S
C983 C982 1.327 . S
C983 C987 1.429 . S
C984 C967 1.574 . S
C984 H978 0.949 . S
C984 C988 1.368 . S
C985 C966 1.429 . S
C985 C979 1.429 . S
C985 C986 1.523 . S
C986 C967 1.368 . S
C986 C980 1.368 . S
C986 C985 1.523 . S
C987 C971 1.429 . S
C987 C983 1.429 . S
C987 C988 1.523 . S
C988 C972 1.368 . S
C988 C984 1.368 . S
C988 C987 1.523 . S
H989 C964 0.950 . S
H990 C966 0.950 . S
H991 C967 0.949 . S
H992 C969 0.950 . S
H993 C971 0.950 . S
C994 C995 1.349 . S
C994 C996 1.327 . S
C994 H1019 0.950 . S
C995 C994 1.349 . S
C995 C1011 1.349 . S
C996 C994 1.327 . S
C996 C1015 1.429 . S
C996 H1020 0.950 . S
C997 C1014 1.574 . S
C997 C1016 1.368 . S
C997 H1021 0.949 . S
H998 C1002 0.949 . S
C999 C1000 1.349 . S
C999 C1001 1.327 . S
C999 H1022 0.950 . S
C1000 C999 1.349 . S
C1000 C1012 1.349 . S
C1001 C999 1.327 . S
C1001 C1017 1.429 . S
C1001 H1023 0.950 . S
C1002 H998 0.949 . S
C1002 C1010 1.574 . S
C1002 C1018 1.368 . S
H1003 C1011 0.950 . S
H1004 C1009 0.950 . S
H1005 C1010 0.949 . S
H1006 C1012 0.950 . S
H1007 C1013 0.950 . S
H1008 C1014 0.949 . S
C1009 H1004 0.950 . S
C1009 C1011 1.327 . S
C1009 C1015 1.429 . S
C1010 C1002 1.574 . S
C1010 H1005 0.949 . S
C1010 C1016 1.368 . S
C1011 C995 1.349 . S
C1011 H1003 0.950 . S
C1011 C1009 1.327 . S
C1012 C1000 1.349 . S
C1012 H1006 0.950 . S
C1012 C1013 1.327 . S
C1013 H1007 0.950 . S
C1013 C1012 1.327 . S
C1013 C1017 1.429 . S
C1014 C997 1.574 . S
C1014 H1008 0.949 . S
C1014 C1018 1.368 . S
C1015 C996 1.429 . S
C1015 C1009 1.429 . S
C1015 C1016 1.523 . S
C1016 C997 1.368 . S
C1016 C1010 1.368 . S
C1016 C1015 1.523 . S
C1017 C1001 1.429 . S
C1017 C1013 1.429 . S
C1017 C1018 1.523 . S
C1018 C1002 1.368 . S
C1018 C1014 1.368 . S
C1018 C1017 1.523 . S
H1019 C994 0.950 . S
H1020 C996 0.950 . S
H1021 C997 0.949 . S
H1022 C999 0.950 . S
H1023 C1001 0.950 . S
C1024 C1025 1.349 . S
C1024 C1026 1.327 . S
C1024 H1049 0.950 . S
C1025 C1024 1.349 . S
C1025 C1041 1.349 . S
C1026 C1024 1.327 . S
C1026 C1045 1.429 . S
C1026 H1050 0.950 . S
C1027 C1044 1.609 1_455 S
C1027 C1046 1.333 1_565 S
C1027 H1051 0.952 . S
H1028 C1032 0.952 . S
C1029 C1030 1.349 . S
C1029 C1031 1.327 . S
C1029 H1052 0.950 . S
C1030 C1029 1.349 . S
C1030 C1042 1.349 . S
C1031 C1029 1.327 . S
C1031 C1047 1.429 . S
C1031 H1053 0.950 . S
C1032 H1028 0.952 . S
C1032 C1040 1.609 1_655 S
C1032 C1048 1.333 1_545 S
H1033 C1041 0.950 . S
H1034 C1039 0.950 . S
H1035 C1040 0.949 . S
H1036 C1042 0.950 . S
H1037 C1043 0.950 . S
H1038 C1044 0.949 . S
C1039 H1034 0.950 . S
C1039 C1041 1.327 . S
C1039 C1045 1.429 . S
C1040 C1032 1.609 1_455 S
C1040 H1035 0.949 . S
C1040 C1046 1.368 . S
C1041 C1025 1.349 . S
C1041 H1033 0.950 . S
C1041 C1039 1.327 . S
C1042 C1030 1.349 . S
C1042 H1036 0.950 . S
C1042 C1043 1.327 . S
C1043 H1037 0.950 . S
C1043 C1042 1.327 . S
C1043 C1047 1.429 . S
C1044 C1027 1.609 1_655 S
C1044 H1038 0.949 . S
C1044 C1048 1.368 . S
C1045 C1026 1.429 . S
C1045 C1039 1.429 . S
C1045 C1046 1.523 . S
C1046 C1027 1.333 1_545 S
C1046 C1040 1.368 . S
C1046 C1045 1.523 . S
C1047 C1031 1.429 . S
C1047 C1043 1.429 . S
C1047 C1048 1.523 . S
C1048 C1032 1.333 1_565 S
C1048 C1044 1.368 . S
C1048 C1047 1.523 . S
H1049 C1024 0.950 . S
H1050 C1026 0.950 . S
H1051 C1027 0.952 . S
H1052 C1029 0.950 . S
H1053 C1031 0.950 . S
C1054 C1055 1.349 . S
C1054 C1056 1.327 . S
C1054 H1079 0.950 . S
C1055 C1054 1.349 . S
C1055 C1071 1.349 . S
C1056 C1054 1.327 . S
C1056 C1075 1.429 . S
C1056 H1080 0.950 . S
C1057 C1074 1.609 1_565 S
C1057 C1076 1.368 . S
C1057 H1081 0.949 . S
H1058 C1062 0.949 . S
C1059 C1060 1.349 . S
C1059 C1061 1.327 . S
C1059 H1082 0.950 . S
C1060 C1059 1.349 . S
C1060 C1072 1.349 . S
C1061 C1059 1.327 . S
C1061 C1077 1.429 . S
C1061 H1083 0.950 . S
C1062 H1058 0.949 . S
C1062 C1070 1.609 1_545 S
C1062 C1078 1.368 . S
H1063 C1071 0.950 . S
H1064 C1069 0.950 . S
H1065 C1070 0.952 . S
H1066 C1072 0.950 . S
H1067 C1073 0.950 . S
H1068 C1074 0.952 . S
C1069 H1064 0.950 . S
C1069 C1071 1.327 . S
C1069 C1075 1.429 . S
C1070 C1062 1.609 1_565 S
C1070 H1065 0.952 . S
C1070 C1076 1.333 1_655 S
C1071 C1055 1.349 . S
C1071 H1063 0.950 . S
C1071 C1069 1.327 . S
C1072 C1060 1.349 . S
C1072 H1066 0.950 . S
C1072 C1073 1.327 . S
C1073 H1067 0.950 . S
C1073 C1072 1.327 . S
C1073 C1077 1.429 . S
C1074 C1057 1.609 1_545 S
C1074 H1068 0.952 . S
C1074 C1078 1.333 1_455 S
C1075 C1056 1.429 . S
C1075 C1069 1.429 . S
C1075 C1076 1.523 . S
C1076 C1057 1.368 . S
C1076 C1070 1.333 1_455 S
C1076 C1075 1.523 . S
C1077 C1061 1.429 . S
C1077 C1073 1.429 . S
C1077 C1078 1.523 . S
C1078 C1062 1.368 . S
C1078 C1074 1.333 1_655 S
C1078 C1077 1.523 . S
H1079 C1054 0.950 . S
H1080 C1056 0.950 . S
H1081 C1057 0.949 . S
H1082 C1059 0.950 . S
H1083 C1061 0.950 . S
C1084 C1085 1.349 . S
C1084 C1086 1.327 . S
C1084 H1109 0.950 . S
C1085 C1084 1.349 . S
C1085 C1101 1.349 1_556 S
C1086 C1084 1.327 . S
C1086 C1105 1.429 . S
C1086 H1110 0.950 . S
C1087 C1104 1.574 1_455 S
C1087 C1106 1.368 1_554 S
C1087 H1111 0.949 . S
H1088 C1092 0.949 . S
C1089 C1090 1.349 1_554 S
C1089 C1091 1.327 . S
C1089 H1112 0.950 . S
C1090 C1089 1.349 1_556 S
C1090 C1102 1.349 . S
C1091 C1089 1.327 . S
C1091 C1107 1.429 1_554 S
C1091 H1113 0.950 . S
C1092 H1088 0.949 . S
C1092 C1100 1.574 1_655 S
C1092 C1108 1.368 . S
H1093 C1101 0.950 . S
H1094 C1099 0.950 . S
H1095 C1100 0.949 . S
H1096 C1102 0.950 . S
H1097 C1103 0.950 . S
H1098 C1104 0.949 . S
C1099 H1094 0.950 . S
C1099 C1101 1.327 . S
C1099 C1105 1.429 1_554 S
C1100 C1092 1.574 1_455 S
C1100 H1095 0.949 . S
C1100 C1106 1.368 . S
C1101 C1085 1.349 1_554 S
C1101 H1093 0.950 . S
C1101 C1099 1.327 . S
C1102 C1090 1.349 . S
C1102 H1096 0.950 . S
C1102 C1103 1.327 . S
C1103 H1097 0.950 . S
C1103 C1102 1.327 . S
C1103 C1107 1.429 . S
C1104 C1087 1.574 1_655 S
C1104 H1098 0.949 . S
C1104 C1108 1.368 1_554 S
C1105 C1086 1.429 . S
C1105 C1099 1.429 1_556 S
C1105 C1106 1.523 . S
C1106 C1087 1.368 1_556 S
C1106 C1100 1.368 . S
C1106 C1105 1.523 . S
C1107 C1091 1.429 1_556 S
C1107 C1103 1.429 . S
C1107 C1108 1.523 . S
C1108 C1092 1.368 . S
C1108 C1104 1.368 1_556 S
C1108 C1107 1.523 . S
H1109 C1084 0.950 . S
H1110 C1086 0.950 . S
H1111 C1087 0.949 . S
H1112 C1089 0.950 . S
H1113 C1091 0.950 . S
C1114 C1115 1.349 1_556 S
C1114 C1116 1.327 . S
C1114 H1139 0.950 . S
C1115 C1114 1.349 1_554 S
C1115 C1131 1.349 . S
C1116 C1114 1.327 . S
C1116 C1135 1.429 1_556 S
C1116 H1140 0.950 . S
C1117 C1134 1.574 1_565 S
C1117 C1136 1.368 . S
C1117 H1141 0.949 . S
H1118 C1122 0.949 . S
C1119 C1120 1.349 . S
C1119 C1121 1.327 . S
C1119 H1142 0.950 . S
C1120 C1119 1.349 . S
C1120 C1132 1.349 1_554 S
C1121 C1119 1.327 . S
C1121 C1137 1.429 . S
C1121 H1143 0.950 . S
C1122 H1118 0.949 . S
C1122 C1130 1.574 1_545 S
C1122 C1138 1.368 1_556 S
H1123 C1131 0.950 . S
H1124 C1129 0.950 . S
H1125 C1130 0.949 . S
H1126 C1132 0.950 . S
H1127 C1133 0.950 . S
H1128 C1134 0.949 . S
C1129 H1124 0.950 . S
C1129 C1131 1.327 . S
C1129 C1135 1.429 . S
C1130 C1122 1.574 1_565 S
C1130 H1125 0.949 . S
C1130 C1136 1.368 1_556 S
C1131 C1115 1.349 . S
C1131 H1123 0.950 . S
C1131 C1129 1.327 . S
C1132 C1120 1.349 1_556 S
C1132 H1126 0.950 . S
C1132 C1133 1.327 . S
C1133 H1127 0.950 . S
C1133 C1132 1.327 . S
C1133 C1137 1.429 1_556 S
C1134 C1117 1.574 1_545 S
C1134 H1128 0.949 . S
C1134 C1138 1.368 . S
C1135 C1116 1.429 1_554 S
C1135 C1129 1.429 . S
C1135 C1136 1.523 . S
C1136 C1117 1.368 . S
C1136 C1130 1.368 1_554 S
C1136 C1135 1.523 . S
C1137 C1121 1.429 . S
C1137 C1133 1.429 1_554 S
C1137 C1138 1.523 . S
C1138 C1122 1.368 1_554 S
C1138 C1134 1.368 . S
C1138 C1137 1.523 . S
H1139 C1114 0.950 . S
H1140 C1116 0.950 . S
H1141 C1117 0.949 . S
H1142 C1119 0.950 . S
H1143 C1121 0.950 . S
C1144 C1145 1.349 . S
C1144 C1146 1.327 . S
C1144 H1169 0.950 . S
C1145 C1144 1.349 . S
C1145 C1161 1.349 . S
C1146 C1144 1.327 . S
C1146 C1165 1.429 . S
C1146 H1170 0.950 . S
C1147 C1164 1.574 . S
C1147 C1166 1.368 . S
C1147 H1171 0.949 . S
H1148 C1152 0.949 . S
C1149 C1150 1.349 . S
C1149 C1151 1.327 . S
C1149 H1172 0.950 . S
C1150 C1149 1.349 . S
C1150 C1162 1.349 . S
C1151 C1149 1.327 . S
C1151 C1167 1.429 . S
C1151 H1173 0.950 . S
C1152 H1148 0.949 . S
C1152 C1160 1.574 . S
C1152 C1168 1.368 . S
H1153 C1161 0.950 . S
H1154 C1159 0.950 . S
H1155 C1160 0.949 . S
H1156 C1162 0.950 . S
H1157 C1163 0.950 . S
H1158 C1164 0.949 . S
C1159 H1154 0.950 . S
C1159 C1161 1.327 . S
C1159 C1165 1.429 . S
C1160 C1152 1.574 . S
C1160 H1155 0.949 . S
C1160 C1166 1.368 . S
C1161 C1145 1.349 . S
C1161 H1153 0.950 . S
C1161 C1159 1.327 . S
C1162 C1150 1.349 . S
C1162 H1156 0.950 . S
C1162 C1163 1.327 . S
C1163 H1157 0.950 . S
C1163 C1162 1.327 . S
C1163 C1167 1.429 . S
C1164 C1147 1.574 . S
C1164 H1158 0.949 . S
C1164 C1168 1.368 . S
C1165 C1146 1.429 . S
C1165 C1159 1.429 . S
C1165 C1166 1.523 . S
C1166 C1147 1.368 . S
C1166 C1160 1.368 . S
C1166 C1165 1.523 . S
C1167 C1151 1.429 . S
C1167 C1163 1.429 . S
C1167 C1168 1.523 . S
C1168 C1152 1.368 . S
C1168 C1164 1.368 . S
C1168 C1167 1.523 . S
H1169 C1144 0.950 . S
H1170 C1146 0.950 . S
H1171 C1147 0.949 . S
H1172 C1149 0.950 . S
H1173 C1151 0.950 . S
C1174 C1175 1.349 . S
C1174 C1176 1.327 . S
C1174 H1199 0.950 . S
C1175 C1174 1.349 . S
C1175 C1191 1.349 . S
C1176 C1174 1.327 . S
C1176 C1195 1.429 . S
C1176 H1200 0.950 . S
C1177 C1194 1.574 . S
C1177 C1196 1.368 . S
C1177 H1201 0.949 . S
H1178 C1182 0.949 . S
C1179 C1180 1.349 . S
C1179 C1181 1.327 . S
C1179 H1202 0.950 . S
C1180 C1179 1.349 . S
C1180 C1192 1.349 . S
C1181 C1179 1.327 . S
C1181 C1197 1.429 . S
C1181 H1203 0.950 . S
C1182 H1178 0.949 . S
C1182 C1190 1.574 . S
C1182 C1198 1.368 . S
H1183 C1191 0.950 . S
H1184 C1189 0.950 . S
H1185 C1190 0.949 . S
H1186 C1192 0.950 . S
H1187 C1193 0.950 . S
H1188 C1194 0.949 . S
C1189 H1184 0.950 . S
C1189 C1191 1.327 . S
C1189 C1195 1.429 . S
C1190 C1182 1.574 . S
C1190 H1185 0.949 . S
C1190 C1196 1.368 . S
C1191 C1175 1.349 . S
C1191 H1183 0.950 . S
C1191 C1189 1.327 . S
C1192 C1180 1.349 . S
C1192 H1186 0.950 . S
C1192 C1193 1.327 . S
C1193 H1187 0.950 . S
C1193 C1192 1.327 . S
C1193 C1197 1.429 . S
C1194 C1177 1.574 . S
C1194 H1188 0.949 . S
C1194 C1198 1.368 . S
C1195 C1176 1.429 . S
C1195 C1189 1.429 . S
C1195 C1196 1.523 . S
C1196 C1177 1.368 . S
C1196 C1190 1.368 . S
C1196 C1195 1.523 . S
C1197 C1181 1.429 . S
C1197 C1193 1.429 . S
C1197 C1198 1.523 . S
C1198 C1182 1.368 . S
C1198 C1194 1.368 . S
C1198 C1197 1.523 . S
H1199 C1174 0.950 . S
H1200 C1176 0.950 . S
H1201 C1177 0.949 . S
H1202 C1179 0.950 . S
H1203 C1181 0.950 . S
C1204 C1205 1.349 . S
C1204 C1206 1.327 . S
C1204 H1229 0.950 . S
C1205 C1204 1.349 . S
C1205 C1221 1.349 . S
C1206 C1204 1.327 . S
C1206 C1225 1.429 . S
C1206 H1230 0.950 . S
C1207 C1224 1.609 . S
C1207 C1226 1.368 . S
C1207 H1231 0.949 . S
H1208 C1212 0.949 . S
C1209 C1210 1.349 . S
C1209 C1211 1.327 . S
C1209 H1232 0.950 . S
C1210 C1209 1.349 . S
C1210 C1222 1.349 . S
C1211 C1209 1.327 . S
C1211 C1227 1.429 . S
C1211 H1233 0.950 . S
C1212 H1208 0.949 . S
C1212 C1220 1.609 . S
C1212 C1228 1.368 . S
H1213 C1221 0.950 . S
H1214 C1219 0.950 . S
H1215 C1220 0.952 . S
H1216 C1222 0.950 . S
H1217 C1223 0.950 . S
H1218 C1224 0.952 . S
C1219 H1214 0.950 . S
C1219 C1221 1.327 . S
C1219 C1225 1.429 . S
C1220 C1212 1.609 . S
C1220 H1215 0.952 . S
C1220 C1226 1.333 1_545 S
C1221 C1205 1.349 . S
C1221 H1213 0.950 . S
C1221 C1219 1.327 . S
C1222 C1210 1.349 . S
C1222 H1216 0.950 . S
C1222 C1223 1.327 . S
C1223 H1217 0.950 . S
C1223 C1222 1.327 . S
C1223 C1227 1.429 . S
C1224 C1207 1.609 . S
C1224 H1218 0.952 . S
C1224 C1228 1.333 1_565 S
C1225 C1206 1.429 . S
C1225 C1219 1.429 . S
C1225 C1226 1.523 . S
C1226 C1207 1.368 . S
C1226 C1220 1.333 1_565 S
C1226 C1225 1.523 . S
C1227 C1211 1.429 . S
C1227 C1223 1.429 . S
C1227 C1228 1.523 . S
C1228 C1212 1.368 . S
C1228 C1224 1.333 1_545 S
C1228 C1227 1.523 . S
H1229 C1204 0.950 . S
H1230 C1206 0.950 . S
H1231 C1207 0.949 . S
H1232 C1209 0.950 . S
H1233 C1211 0.950 . S
C1234 C1235 1.349 . S
C1234 C1236 1.327 . S
C1234 H1259 0.950 . S
C1235 C1234 1.349 . S
C1235 C1251 1.349 . S
C1236 C1234 1.327 . S
C1236 C1255 1.429 . S
C1236 H1260 0.950 . S
C1237 C1254 1.609 . S
C1237 C1256 1.333 1_455 S
C1237 H1261 0.952 . S
H1238 C1242 0.952 . S
C1239 C1240 1.349 . S
C1239 C1241 1.327 . S
C1239 H1262 0.950 . S
C1240 C1239 1.349 . S
C1240 C1252 1.349 . S
C1241 C1239 1.327 . S
C1241 C1257 1.429 . S
C1241 H1263 0.950 . S
C1242 H1238 0.952 . S
C1242 C1250 1.609 . S
C1242 C1258 1.333 1_655 S
H1243 C1251 0.950 . S
H1244 C1249 0.950 . S
H1245 C1250 0.949 . S
H1246 C1252 0.950 . S
H1247 C1253 0.950 . S
H1248 C1254 0.949 . S
C1249 H1244 0.950 . S
C1249 C1251 1.327 . S
C1249 C1255 1.429 . S
C1250 C1242 1.609 . S
C1250 H1245 0.949 . S
C1250 C1256 1.368 . S
C1251 C1235 1.349 . S
C1251 H1243 0.950 . S
C1251 C1249 1.327 . S
C1252 C1240 1.349 . S
C1252 H1246 0.950 . S
C1252 C1253 1.327 . S
C1253 H1247 0.950 . S
C1253 C1252 1.327 . S
C1253 C1257 1.429 . S
C1254 C1237 1.609 . S
C1254 H1248 0.949 . S
C1254 C1258 1.368 . S
C1255 C1236 1.429 . S
C1255 C1249 1.429 . S
C1255 C1256 1.523 . S
C1256 C1237 1.333 1_655 S
C1256 C1250 1.368 . S
C1256 C1255 1.523 . S
C1257 C1241 1.429 . S
C1257 C1253 1.429 . S
C1257 C1258 1.523 . S
C1258 C1242 1.333 1_455 S
C1258 C1254 1.368 . S
C1258 C1257 1.523 . S
H1259 C1234 0.950 . S
H1260 C1236 0.950 . S
H1261 C1237 0.952 . S
H1262 C1239 0.950 . S
H1263 C1241 0.950 . S
C1264 C1265 1.349 . S
C1264 C1266 1.327 . S
C1264 H1289 0.950 . S
C1265 C1264 1.349 . S
C1265 C1281 1.349 . S
C1266 C1264 1.327 . S
C1266 C1285 1.429 . S
C1266 H1290 0.950 . S
C1267 C1284 1.574 . S
C1267 C1286 1.368 . S
C1267 H1291 0.949 . S
H1268 C1272 0.988 . S
C1269 C1270 1.349 . S
C1269 C1271 1.327 1_545 S
C1269 H1292 0.948 1_545 S
C1270 C1269 1.349 . S
C1270 C1282 1.349 . S
C1271 C1269 1.327 1_565 S
C1271 C1287 1.429 . S
C1271 H1293 0.950 . S
C1272 H1268 0.988 . S
C1272 C1280 1.574 . S
C1272 C1288 1.368 . S
H1273 C1281 0.950 . S
H1274 C1279 0.950 . S
H1275 C1280 0.949 . S
H1276 C1282 0.950 . S
H1277 C1283 0.950 . S
H1278 C1284 0.949 . S
C1279 H1274 0.950 . S
C1279 C1281 1.327 . S
C1279 C1285 1.429 . S
C1280 C1272 1.574 . S
C1280 H1275 0.949 . S
C1280 C1286 1.368 . S
C1281 C1265 1.349 . S
C1281 H1273 0.950 . S
C1281 C1279 1.327 . S
C1282 C1270 1.349 . S
C1282 H1276 0.950 . S
C1282 C1283 1.327 . S
C1283 H1277 0.950 . S
C1283 C1282 1.327 . S
C1283 C1287 1.429 1_545 S
C1284 C1267 1.574 . S
C1284 H1278 0.949 . S
C1284 C1288 1.368 . S
C1285 C1266 1.429 . S
C1285 C1279 1.429 . S
C1285 C1286 1.523 . S
C1286 C1267 1.368 . S
C1286 C1280 1.368 . S
C1286 C1285 1.523 . S
C1287 C1271 1.429 . S
C1287 C1283 1.429 1_565 S
C1287 C1288 1.523 . S
C1288 C1272 1.368 . S
C1288 C1284 1.368 . S
C1288 C1287 1.523 . S
H1289 C1264 0.950 . S
H1290 C1266 0.950 . S
H1291 C1267 0.949 . S
H1292 C1269 0.948 1_565 S
H1293 C1271 0.950 . S
C1294 C1295 1.349 . S
C1294 C1296 1.327 1_455 S
C1294 H1319 0.950 . S
C1295 C1294 1.349 . S
C1295 C1311 1.349 . S
C1296 C1294 1.327 1_655 S
C1296 C1315 1.429 . S
C1296 H1320 0.950 . S
C1297 C1314 1.574 . S
C1297 C1316 1.368 . S
C1297 H1321 0.949 . S
H1298 C1302 0.949 . S
C1299 C1300 1.349 . S
C1299 C1301 1.327 . S
C1299 H1322 0.950 . S
C1300 C1299 1.349 . S
C1300 C1312 1.349 . S
C1301 C1299 1.327 . S
C1301 C1317 1.429 . S
C1301 H1323 0.950 . S
C1302 H1298 0.949 . S
C1302 C1310 1.574 . S
C1302 C1318 1.368 . S
H1303 C1311 0.950 . S
H1304 C1309 0.950 . S
H1305 C1310 0.949 . S
H1306 C1312 0.950 . S
H1307 C1313 0.950 . S
H1308 C1314 0.949 . S
C1309 H1304 0.950 . S
C1309 C1311 1.327 . S
C1309 C1315 1.429 1_455 S
C1310 C1302 1.574 . S
C1310 H1305 0.949 . S
C1310 C1316 1.368 . S
C1311 C1295 1.349 . S
C1311 H1303 0.950 . S
C1311 C1309 1.327 . S
C1312 C1300 1.349 . S
C1312 H1306 0.950 . S
C1312 C1313 1.327 . S
C1313 H1307 0.950 . S
C1313 C1312 1.327 . S
C1313 C1317 1.429 . S
C1314 C1297 1.574 . S
C1314 H1308 0.949 . S
C1314 C1318 1.368 . S
C1315 C1296 1.429 . S
C1315 C1309 1.429 1_655 S
C1315 C1316 1.523 . S
C1316 C1297 1.368 . S
C1316 C1310 1.368 . S
C1316 C1315 1.523 . S
C1317 C1301 1.429 . S
C1317 C1313 1.429 . S
C1317 C1318 1.523 . S
C1318 C1302 1.368 . S
C1318 C1314 1.368 . S
C1318 C1317 1.523 . S
H1319 C1294 0.950 . S
H1320 C1296 0.950 . S
H1321 C1297 0.949 . S
H1322 C1299 0.950 . S
H1323 C1301 0.950 . S
C1324 C1325 1.349 . S
C1324 C1326 1.327 . S
C1324 H1349 0.950 . S
C1325 C1324 1.349 . S
C1325 C1341 1.349 . S
C1326 C1324 1.327 . S
C1326 C1345 1.429 . S
C1326 H1350 0.950 . S
C1327 C1344 1.574 . S
C1327 C1346 1.368 . S
C1327 H1351 0.949 . S
H1328 C1332 0.949 . S
C1329 C1330 1.349 . S
C1329 C1331 1.327 . S
C1329 H1352 0.950 . S
C1330 C1329 1.349 . S
C1330 C1342 1.349 1_565 S
C1331 C1329 1.327 . S
C1331 C1347 1.429 1_565 S
C1331 H1353 0.950 . S
C1332 H1328 0.949 . S
C1332 C1340 1.574 . S
C1332 C1348 1.368 . S
H1333 C1341 0.950 . S
H1334 C1339 0.950 . S
H1335 C1340 0.949 . S
H1336 C1342 0.950 . S
H1337 C1343 0.950 . S
H1338 C1344 0.949 1_565 S
C1339 H1334 0.950 . S
C1339 C1341 1.327 . S
C1339 C1345 1.429 . S
C1340 C1332 1.574 . S
C1340 H1335 0.949 . S
C1340 C1346 1.368 . S
C1341 C1325 1.349 . S
C1341 H1333 0.950 . S
C1341 C1339 1.327 . S
C1342 C1330 1.349 1_545 S
C1342 H1336 0.950 . S
C1342 C1343 1.327 . S
C1343 H1337 0.950 . S
C1343 C1342 1.327 . S
C1343 C1347 1.429 . S
C1344 C1327 1.574 . S
C1344 H1338 0.949 1_545 S
C1344 C1348 1.368 . S
C1345 C1326 1.429 . S
C1345 C1339 1.429 . S
C1345 C1346 1.523 . S
C1346 C1327 1.368 . S
C1346 C1340 1.368 . S
C1346 C1345 1.523 . S
C1347 C1331 1.429 1_545 S
C1347 C1343 1.429 . S
C1347 C1348 1.523 . S
C1348 C1332 1.368 . S
C1348 C1344 1.368 . S
C1348 C1347 1.523 . S
H1349 C1324 0.950 . S
H1350 C1326 0.950 . S
H1351 C1327 0.949 . S
H1352 C1329 0.950 . S
H1353 C1331 0.950 . S
C1354 C1355 1.349 . S
C1354 C1356 1.353 . S
C1354 H1379 0.950 . S
C1355 C1354 1.349 . S
C1355 C1371 1.349 . S
C1356 C1354 1.353 . S
C1356 C1375 1.416 1_655 S
C1356 H1380 0.938 1_655 S
C1357 C1374 1.574 . S
C1357 C1376 1.368 . S
C1357 H1381 0.949 . S
H1358 C1362 0.949 . S
C1359 C1360 1.349 . S
C1359 C1361 1.327 . S
C1359 H1382 0.950 . S
C1360 C1359 1.349 . S
C1360 C1372 1.349 . S
C1361 C1359 1.327 . S
C1361 C1377 1.429 . S
C1361 H1383 0.950 . S
C1362 H1358 0.949 . S
C1362 C1370 1.574 . S
C1362 C1378 1.368 . S
H1363 C1371 0.950 . S
H1364 C1369 0.950 1_455 S
H1365 C1370 0.949 . S
H1366 C1372 0.950 . S
H1367 C1373 0.950 . S
H1368 C1374 0.949 . S
C1369 H1364 0.950 1_655 S
C1369 C1371 1.327 . S
C1369 C1375 1.429 1_655 S
C1370 C1362 1.574 . S
C1370 H1365 0.949 . S
C1370 C1376 1.368 . S
C1371 C1355 1.349 . S
C1371 H1363 0.950 . S
C1371 C1369 1.327 . S
C1372 C1360 1.349 . S
C1372 H1366 0.950 . S
C1372 C1373 1.327 . S
C1373 H1367 0.950 . S
C1373 C1372 1.327 . S
C1373 C1377 1.429 . S
C1374 C1357 1.574 . S
C1374 H1368 0.949 . S
C1374 C1378 1.368 . S
C1375 C1356 1.416 1_455 S
C1375 C1369 1.429 1_455 S
C1375 C1376 1.523 . S
C1376 C1357 1.368 . S
C1376 C1370 1.368 . S
C1376 C1375 1.523 . S
C1377 C1361 1.429 . S
C1377 C1373 1.429 . S
C1377 C1378 1.523 . S
C1378 C1362 1.368 . S
C1378 C1374 1.368 . S
C1378 C1377 1.523 . S
H1379 C1354 0.950 . S
H1380 C1356 0.938 1_455 S
H1381 C1357 0.949 . S
H1382 C1359 0.950 . S
H1383 C1361 0.950 . S
C1384 C1385 1.349 . S
C1384 C1386 1.327 . S
C1384 H1409 0.950 . S
C1385 C1384 1.349 . S
C1385 C1401 1.349 . S
C1386 C1384 1.327 . S
C1386 C1405 1.429 . S
C1386 H1410 0.950 . S
C1387 C1404 1.574 . S
C1387 C1406 1.368 . S
C1387 H1411 0.949 . S
H1388 C1392 0.949 . S
C1389 C1390 1.349 . S
C1389 C1391 1.327 . S
C1389 H1412 0.950 . S
C1390 C1389 1.349 . S
C1390 C1402 1.349 . S
C1391 C1389 1.327 . S
C1391 C1407 1.429 . S
C1391 H1413 0.950 . S
C1392 H1388 0.949 . S
C1392 C1400 1.574 . S
C1392 C1408 1.368 . S
H1393 C1401 0.950 . S
H1394 C1399 0.950 . S
H1395 C1400 0.949 . S
H1396 C1402 0.950 . S
H1397 C1403 0.950 . S
H1398 C1404 0.949 . S
C1399 H1394 0.950 . S
C1399 C1401 1.327 . S
C1399 C1405 1.429 . S
C1400 C1392 1.574 . S
C1400 H1395 0.949 . S
C1400 C1406 1.368 . S
C1401 C1385 1.349 . S
C1401 H1393 0.950 . S
C1401 C1399 1.327 . S
C1402 C1390 1.349 . S
C1402 H1396 0.950 . S
C1402 C1403 1.327 . S
C1403 H1397 0.950 . S
C1403 C1402 1.327 . S
C1403 C1407 1.429 . S
C1404 C1387 1.574 . S
C1404 H1398 0.949 . S
C1404 C1408 1.368 . S
C1405 C1386 1.429 . S
C1405 C1399 1.429 . S
C1405 C1406 1.523 . S
C1406 C1387 1.368 . S
C1406 C1400 1.368 . S
C1406 C1405 1.523 . S
C1407 C1391 1.429 . S
C1407 C1403 1.429 . S
C1407 C1408 1.523 . S
C1408 C1392 1.368 . S
C1408 C1404 1.368 . S
C1408 C1407 1.523 . S
H1409 C1384 0.950 . S
H1410 C1386 0.950 . S
H1411 C1387 0.949 . S
H1412 C1389 0.950 . S
H1413 C1391 0.950 . S
C1414 C1415 1.349 . S
C1414 C1416 1.327 . S
C1414 H1439 0.950 . S
C1415 C1414 1.349 . S
C1415 C1431 1.349 . S
C1416 C1414 1.327 . S
C1416 C1435 1.429 . S
C1416 H1440 0.950 . S
C1417 C1434 1.574 . S
C1417 C1436 1.368 . S
C1417 H1441 0.949 . S
H1418 C1422 0.949 . S
C1419 C1420 1.349 . S
C1419 C1421 1.327 . S
C1419 H1442 0.950 . S
C1420 C1419 1.349 . S
C1420 C1432 1.349 . S
C1421 C1419 1.327 . S
C1421 C1437 1.429 . S
C1421 H1443 0.950 . S
C1422 H1418 0.949 . S
C1422 C1430 1.574 . S
C1422 C1438 1.368 . S
H1423 C1431 0.950 . S
H1424 C1429 0.950 . S
H1425 C1430 0.949 . S
H1426 C1432 0.950 . S
H1427 C1433 0.950 . S
H1428 C1434 0.949 . S
C1429 H1424 0.950 . S
C1429 C1431 1.327 . S
C1429 C1435 1.429 . S
C1430 C1422 1.574 . S
C1430 H1425 0.949 . S
C1430 C1436 1.368 . S
C1431 C1415 1.349 . S
C1431 H1423 0.950 . S
C1431 C1429 1.327 . S
C1432 C1420 1.349 . S
C1432 H1426 0.950 . S
C1432 C1433 1.327 . S
C1433 H1427 0.950 . S
C1433 C1432 1.327 . S
C1433 C1437 1.429 . S
C1434 C1417 1.574 . S
C1434 H1428 0.949 . S
C1434 C1438 1.368 . S
C1435 C1416 1.429 . S
C1435 C1429 1.429 . S
C1435 C1436 1.523 . S
C1436 C1417 1.368 . S
C1436 C1430 1.368 . S
C1436 C1435 1.523 . S
C1437 C1421 1.429 . S
C1437 C1433 1.429 . S
C1437 C1438 1.523 . S
C1438 C1422 1.368 . S
C1438 C1434 1.368 . S
C1438 C1437 1.523 . S
H1439 C1414 0.950 . S
H1440 C1416 0.950 . S
H1441 C1417 0.949 . S
H1442 C1419 0.950 . S
H1443 C1421 0.950 . S
C1444 C1445 1.349 . S
C1444 C1446 1.327 . S
C1444 H1469 0.950 . S
C1445 C1444 1.349 . S
C1445 C1461 1.349 . S
C1446 C1444 1.327 . S
C1446 C1465 1.429 . S
C1446 H1470 0.950 . S
C1447 C1464 1.574 . S
C1447 C1466 1.368 . S
C1447 H1471 0.949 . S
H1448 C1452 0.949 . S
C1449 C1450 1.349 . S
C1449 C1451 1.327 . S
C1449 H1472 0.950 . S
C1450 C1449 1.349 . S
C1450 C1462 1.349 . S
C1451 C1449 1.327 . S
C1451 C1467 1.429 . S
C1451 H1473 0.950 . S
C1452 H1448 0.949 . S
C1452 C1460 1.574 . S
C1452 C1468 1.368 . S
H1453 C1461 0.950 . S
H1454 C1459 0.950 . S
H1455 C1460 0.949 . S
H1456 C1462 0.950 . S
H1457 C1463 0.950 . S
H1458 C1464 0.949 . S
C1459 H1454 0.950 . S
C1459 C1461 1.327 . S
C1459 C1465 1.429 . S
C1460 C1452 1.574 . S
C1460 H1455 0.949 . S
C1460 C1466 1.368 . S
C1461 C1445 1.349 . S
C1461 H1453 0.950 . S
C1461 C1459 1.327 . S
C1462 C1450 1.349 . S
C1462 H1456 0.950 . S
C1462 C1463 1.327 . S
C1463 H1457 0.950 . S
C1463 C1462 1.327 . S
C1463 C1467 1.429 . S
C1464 C1447 1.574 . S
C1464 H1458 0.949 . S
C1464 C1468 1.368 . S
C1465 C1446 1.429 . S
C1465 C1459 1.429 . S
C1465 C1466 1.523 . S
C1466 C1447 1.368 . S
C1466 C1460 1.368 . S
C1466 C1465 1.523 . S
C1467 C1451 1.429 . S
C1467 C1463 1.429 . S
C1467 C1468 1.523 . S
C1468 C1452 1.368 . S
C1468 C1464 1.368 . S
C1468 C1467 1.523 . S
H1469 C1444 0.950 . S
H1470 C1446 0.950 . S
H1471 C1447 0.949 . S
H1472 C1449 0.950 . S
H1473 C1451 0.950 . S
C1474 C1475 1.349 . S
C1474 C1476 1.327 . S
C1474 H1499 0.950 . S
C1475 C1474 1.349 . S
C1475 C1491 1.349 . S
C1476 C1474 1.327 . S
C1476 C1495 1.429 . S
C1476 H1500 0.950 . S
C1477 C1494 1.574 . S
C1477 C1496 1.368 . S
C1477 H1501 0.949 . S
H1478 C1482 0.949 . S
C1479 C1480 1.349 . S
C1479 C1481 1.327 . S
C1479 H1502 0.950 . S
C1480 C1479 1.349 . S
C1480 C1492 1.349 . S
C1481 C1479 1.327 . S
C1481 C1497 1.429 . S
C1481 H1503 0.950 . S
C1482 H1478 0.949 . S
C1482 C1490 1.574 . S
C1482 C1498 1.368 . S
H1483 C1491 0.950 . S
H1484 C1489 0.950 . S
H1485 C1490 0.949 . S
H1486 C1492 0.950 . S
H1487 C1493 0.950 . S
H1488 C1494 0.949 . S
C1489 H1484 0.950 . S
C1489 C1491 1.327 . S
C1489 C1495 1.429 . S
C1490 C1482 1.574 . S
C1490 H1485 0.949 . S
C1490 C1496 1.368 . S
C1491 C1475 1.349 . S
C1491 H1483 0.950 . S
C1491 C1489 1.327 . S
C1492 C1480 1.349 . S
C1492 H1486 0.950 . S
C1492 C1493 1.327 . S
C1493 H1487 0.950 . S
C1493 C1492 1.327 . S
C1493 C1497 1.429 . S
C1494 C1477 1.574 . S
C1494 H1488 0.949 . S
C1494 C1498 1.368 . S
C1495 C1476 1.429 . S
C1495 C1489 1.429 . S
C1495 C1496 1.523 . S
C1496 C1477 1.368 . S
C1496 C1490 1.368 . S
C1496 C1495 1.523 . S
C1497 C1481 1.429 . S
C1497 C1493 1.429 . S
C1497 C1498 1.523 . S
C1498 C1482 1.368 . S
C1498 C1494 1.368 . S
C1498 C1497 1.523 . S
H1499 C1474 0.950 . S
H1500 C1476 0.950 . S
H1501 C1477 0.949 . S
H1502 C1479 0.950 . S
H1503 C1481 0.950 . S
C1504 C1505 1.349 . S
C1504 C1506 1.327 . S
C1504 H1529 0.950 . S
C1505 C1504 1.349 . S
C1505 C1521 1.349 . S
C1506 C1504 1.327 . S
C1506 C1525 1.429 . S
C1506 H1530 0.950 . S
C1507 C1524 1.574 1_556 S
C1507 C1526 1.368 . S
C1507 H1531 0.949 . S
H1508 C1512 0.949 . S
C1509 C1510 1.349 . S
C1509 C1511 1.327 . S
C1509 H1532 0.950 . S
C1510 C1509 1.349 . S
C1510 C1522 1.349 . S
C1511 C1509 1.327 . S
C1511 C1527 1.429 . S
C1511 H1533 0.950 . S
C1512 H1508 0.949 . S
C1512 C1520 1.574 1_554 S
C1512 C1528 1.368 . S
H1513 C1521 0.950 . S
H1514 C1519 0.950 . S
H1515 C1520 0.949 . S
H1516 C1522 0.950 . S
H1517 C1523 0.950 . S
H1518 C1524 0.949 . S
C1519 H1514 0.950 . S
C1519 C1521 1.327 . S
C1519 C1525 1.429 . S
C1520 C1512 1.574 1_556 S
C1520 H1515 0.949 . S
C1520 C1526 1.368 . S
C1521 C1505 1.349 . S
C1521 H1513 0.950 . S
C1521 C1519 1.327 . S
C1522 C1510 1.349 . S
C1522 H1516 0.950 . S
C1522 C1523 1.327 . S
C1523 H1517 0.950 . S
C1523 C1522 1.327 . S
C1523 C1527 1.429 . S
C1524 C1507 1.574 1_554 S
C1524 H1518 0.949 . S
C1524 C1528 1.368 . S
C1525 C1506 1.429 . S
C1525 C1519 1.429 . S
C1525 C1526 1.523 . S
C1526 C1507 1.368 . S
C1526 C1520 1.368 . S
C1526 C1525 1.523 . S
C1527 C1511 1.429 . S
C1527 C1523 1.429 . S
C1527 C1528 1.523 . S
C1528 C1512 1.368 . S
C1528 C1524 1.368 . S
C1528 C1527 1.523 . S
H1529 C1504 0.950 . S
H1530 C1506 0.950 . S
H1531 C1507 0.949 . S
H1532 C1509 0.950 . S
H1533 C1511 0.950 . S
C1534 C1535 1.349 . S
C1534 C1536 1.327 . S
C1534 H1559 0.950 . S
C1535 C1534 1.349 . S
C1535 C1551 1.349 . S
C1536 C1534 1.327 . S
C1536 C1555 1.429 . S
C1536 H1560 0.950 . S
C1537 C1554 1.574 1_556 S
C1537 C1556 1.368 . S
C1537 H1561 0.949 . S
H1538 C1542 0.949 . S
C1539 C1540 1.349 . S
C1539 C1541 1.327 . S
C1539 H1562 0.950 . S
C1540 C1539 1.349 . S
C1540 C1552 1.349 . S
C1541 C1539 1.327 . S
C1541 C1557 1.429 . S
C1541 H1563 0.950 . S
C1542 H1538 0.949 . S
C1542 C1550 1.574 1_554 S
C1542 C1558 1.368 . S
H1543 C1551 0.950 . S
H1544 C1549 0.950 . S
H1545 C1550 0.949 . S
H1546 C1552 0.950 . S
H1547 C1553 0.950 . S
H1548 C1554 0.949 . S
C1549 H1544 0.950 . S
C1549 C1551 1.327 . S
C1549 C1555 1.429 . S
C1550 C1542 1.574 1_556 S
C1550 H1545 0.949 . S
C1550 C1556 1.368 . S
C1551 C1535 1.349 . S
C1551 H1543 0.950 . S
C1551 C1549 1.327 . S
C1552 C1540 1.349 . S
C1552 H1546 0.950 . S
C1552 C1553 1.327 . S
C1553 H1547 0.950 . S
C1553 C1552 1.327 . S
C1553 C1557 1.429 . S
C1554 C1537 1.574 1_554 S
C1554 H1548 0.949 . S
C1554 C1558 1.368 . S
C1555 C1536 1.429 . S
C1555 C1549 1.429 . S
C1555 C1556 1.523 . S
C1556 C1537 1.368 . S
C1556 C1550 1.368 . S
C1556 C1555 1.523 . S
C1557 C1541 1.429 . S
C1557 C1553 1.429 . S
C1557 C1558 1.523 . S
C1558 C1542 1.368 . S
C1558 C1554 1.368 . S
C1558 C1557 1.523 . S
H1559 C1534 0.950 . S
H1560 C1536 0.950 . S
H1561 C1537 0.949 . S
H1562 C1539 0.950 . S
H1563 C1541 0.950 . S
C1564 C1565 1.349 . S
C1564 C1566 1.327 . S
C1564 H1589 0.950 . S
C1565 C1564 1.349 . S
C1565 C1581 1.349 . S
C1566 C1564 1.327 . S
C1566 C1585 1.429 . S
C1566 H1590 0.950 . S
C1567 C1584 1.574 1_556 S
C1567 C1586 1.368 . S
C1567 H1591 0.949 . S
H1568 C1572 0.949 . S
C1569 C1570 1.349 . S
C1569 C1571 1.327 . S
C1569 H1592 0.950 . S
C1570 C1569 1.349 . S
C1570 C1582 1.349 . S
C1571 C1569 1.327 . S
C1571 C1587 1.429 . S
C1571 H1593 0.950 . S
C1572 H1568 0.949 . S
C1572 C1580 1.574 1_554 S
C1572 C1588 1.368 . S
H1573 C1581 0.950 . S
H1574 C1579 0.950 . S
H1575 C1580 0.949 . S
H1576 C1582 0.950 . S
H1577 C1583 0.950 . S
H1578 C1584 0.949 . S
C1579 H1574 0.950 . S
C1579 C1581 1.327 . S
C1579 C1585 1.429 . S
C1580 C1572 1.574 1_556 S
C1580 H1575 0.949 . S
C1580 C1586 1.368 . S
C1581 C1565 1.349 . S
C1581 H1573 0.950 . S
C1581 C1579 1.327 . S
C1582 C1570 1.349 . S
C1582 H1576 0.950 . S
C1582 C1583 1.327 . S
C1583 H1577 0.950 . S
C1583 C1582 1.327 . S
C1583 C1587 1.429 . S
C1584 C1567 1.574 1_554 S
C1584 H1578 0.949 . S
C1584 C1588 1.368 . S
C1585 C1566 1.429 . S
C1585 C1579 1.429 . S
C1585 C1586 1.523 . S
C1586 C1567 1.368 . S
C1586 C1580 1.368 . S
C1586 C1585 1.523 . S
C1587 C1571 1.429 . S
C1587 C1583 1.429 . S
C1587 C1588 1.523 . S
C1588 C1572 1.368 . S
C1588 C1584 1.368 . S
C1588 C1587 1.523 . S
H1589 C1564 0.950 . S
H1590 C1566 0.950 . S
H1591 C1567 0.949 . S
H1592 C1569 0.950 . S
H1593 C1571 0.950 . S
C1594 C1595 1.349 . S
C1594 C1596 1.327 . S
C1594 H1619 0.950 . S
C1595 C1594 1.349 . S
C1595 C1611 1.349 . S
C1596 C1594 1.327 . S
C1596 C1615 1.429 . S
C1596 H1620 0.950 . S
C1597 C1614 1.574 1_554 S
C1597 C1616 1.368 . S
C1597 H1621 0.949 . S
H1598 C1602 0.949 . S
C1599 C1600 1.349 . S
C1599 C1601 1.327 . S
C1599 H1622 0.950 . S
C1600 C1599 1.349 . S
C1600 C1612 1.349 . S
C1601 C1599 1.327 . S
C1601 C1617 1.429 . S
C1601 H1623 0.950 . S
C1602 H1598 0.949 . S
C1602 C1610 1.574 1_556 S
C1602 C1618 1.368 . S
H1603 C1611 0.950 . S
H1604 C1609 0.950 . S
H1605 C1610 0.949 . S
H1606 C1612 0.950 . S
H1607 C1613 0.950 . S
H1608 C1614 0.949 . S
C1609 H1604 0.950 . S
C1609 C1611 1.327 . S
C1609 C1615 1.429 . S
C1610 C1602 1.574 1_554 S
C1610 H1605 0.949 . S
C1610 C1616 1.368 . S
C1611 C1595 1.349 . S
C1611 H1603 0.950 . S
C1611 C1609 1.327 . S
C1612 C1600 1.349 . S
C1612 H1606 0.950 . S
C1612 C1613 1.327 . S
C1613 H1607 0.950 . S
C1613 C1612 1.327 . S
C1613 C1617 1.429 . S
C1614 C1597 1.574 1_556 S
C1614 H1608 0.949 . S
C1614 C1618 1.368 . S
C1615 C1596 1.429 . S
C1615 C1609 1.429 . S
C1615 C1616 1.523 . S
C1616 C1597 1.368 . S
C1616 C1610 1.368 . S
C1616 C1615 1.523 . S
C1617 C1601 1.429 . S
C1617 C1613 1.429 . S
C1617 C1618 1.523 . S
C1618 C1602 1.368 . S
C1618 C1614 1.368 . S
C1618 C1617 1.523 . S
H1619 C1594 0.950 . S
H1620 C1596 0.950 . S
H1621 C1597 0.949 . S
H1622 C1599 0.950 . S
H1623 C1601 0.950 . S
C1624 C1625 1.349 . S
C1624 C1626 1.327 . S
C1624 H1649 0.950 . S
C1625 C1624 1.349 . S
C1625 C1641 1.349 . S
C1626 C1624 1.327 . S
C1626 C1645 1.429 . S
C1626 H1650 0.950 . S
C1627 C1644 1.574 . S
C1627 C1646 1.368 . S
C1627 H1651 0.949 . S
H1628 C1632 0.949 1_565 S
C1629 C1630 1.349 1_545 S
C1629 C1631 1.327 . S
C1629 H1652 0.950 . S
C1630 C1629 1.349 1_565 S
C1630 C1642 1.349 . S
C1631 C1629 1.327 . S
C1631 C1647 1.429 . S
C1631 H1653 0.950 . S
C1632 H1628 0.949 1_545 S
C1632 C1640 1.574 . S
C1632 C1648 1.368 . S
H1633 C1641 0.950 . S
H1634 C1639 0.950 . S
H1635 C1640 0.949 . S
H1636 C1642 0.950 . S
H1637 C1643 0.950 . S
H1638 C1644 0.949 . S
C1639 H1634 0.950 . S
C1639 C1641 1.327 . S
C1639 C1645 1.429 . S
C1640 C1632 1.574 . S
C1640 H1635 0.949 . S
C1640 C1646 1.368 . S
C1641 C1625 1.349 . S
C1641 H1633 0.950 . S
C1641 C1639 1.327 . S
C1642 C1630 1.349 . S
C1642 H1636 0.950 . S
C1642 C1643 1.327 . S
C1643 H1637 0.950 . S
C1643 C1642 1.327 . S
C1643 C1647 1.429 1_565 S
C1644 C1627 1.574 . S
C1644 H1638 0.949 . S
C1644 C1648 1.368 . S
C1645 C1626 1.429 . S
C1645 C1639 1.429 . S
C1645 C1646 1.523 . S
C1646 C1627 1.368 . S
C1646 C1640 1.368 . S
C1646 C1645 1.523 . S
C1647 C1631 1.429 . S
C1647 C1643 1.429 1_545 S
C1647 C1648 1.523 . S
C1648 C1632 1.368 . S
C1648 C1644 1.368 . S
C1648 C1647 1.523 . S
H1649 C1624 0.950 . S
H1650 C1626 0.950 . S
H1651 C1627 0.949 . S
H1652 C1629 0.950 . S
H1653 C1631 0.950 . S
C1654 C1655 1.349 . S
C1654 C1656 1.327 . S
C1654 H1679 0.950 . S
C1655 C1654 1.349 . S
C1655 C1671 1.349 . S
C1656 C1654 1.327 . S
C1656 C1675 1.429 1_655 S
C1656 H1680 0.950 . S
C1657 C1674 1.574 . S
C1657 C1676 1.368 . S
C1657 H1681 0.949 . S
H1658 C1662 0.949 . S
C1659 C1660 1.349 . S
C1659 C1661 1.327 . S
C1659 H1682 0.950 . S
C1660 C1659 1.349 . S
C1660 C1672 1.349 . S
C1661 C1659 1.327 . S
C1661 C1677 1.429 . S
C1661 H1683 0.950 . S
C1662 H1658 0.949 . S
C1662 C1670 1.574 . S
C1662 C1678 1.368 . S
H1663 C1671 0.954 . S
H1664 C1669 0.950 . S
H1665 C1670 0.949 . S
H1666 C1672 0.950 . S
H1667 C1673 0.950 . S
H1668 C1674 0.949 . S
C1669 H1664 0.950 . S
C1669 C1671 1.327 1_455 S
C1669 C1675 1.429 . S
C1670 C1662 1.574 . S
C1670 H1665 0.949 . S
C1670 C1676 1.368 . S
C1671 C1655 1.349 . S
C1671 H1663 0.954 . S
C1671 C1669 1.327 1_655 S
C1672 C1660 1.349 . S
C1672 H1666 0.950 . S
C1672 C1673 1.327 . S
C1673 H1667 0.950 . S
C1673 C1672 1.327 . S
C1673 C1677 1.429 . S
C1674 C1657 1.574 . S
C1674 H1668 0.949 . S
C1674 C1678 1.368 . S
C1675 C1656 1.429 1_455 S
C1675 C1669 1.429 . S
C1675 C1676 1.523 . S
C1676 C1657 1.368 . S
C1676 C1670 1.368 . S
C1676 C1675 1.523 . S
C1677 C1661 1.429 . S
C1677 C1673 1.429 . S
C1677 C1678 1.523 . S
C1678 C1662 1.368 . S
C1678 C1674 1.368 . S
C1678 C1677 1.523 . S
H1679 C1654 0.950 . S
H1680 C1656 0.950 . S
H1681 C1657 0.949 . S
H1682 C1659 0.950 . S
H1683 C1661 0.950 . S
C1684 C1685 1.349 . S
C1684 C1686 1.327 . S
C1684 H1709 0.950 . S
C1685 C1684 1.349 . S
C1685 C1701 1.354 1_545 S
C1686 C1684 1.327 . S
C1686 C1705 1.429 1_545 S
C1686 H1710 0.950 . S
C1687 C1704 1.574 . S
C1687 C1706 1.368 . S
C1687 H1711 0.949 . S
H1688 C1692 0.949 . S
C1689 C1690 1.349 . S
C1689 C1691 1.327 . S
C1689 H1712 0.950 . S
C1690 C1689 1.349 . S
C1690 C1702 1.349 . S
C1691 C1689 1.327 . S
C1691 C1707 1.429 . S
C1691 H1713 0.950 . S
C1692 H1688 0.949 . S
C1692 C1700 1.574 . S
C1692 C1708 1.368 . S
H1693 C1701 0.948 . S
H1694 C1699 0.950 . S
H1695 C1700 0.949 1_545 S
H1696 C1702 0.950 . S
H1697 C1703 0.950 . S
H1698 C1704 0.949 . S
C1699 H1694 0.950 . S
C1699 C1701 1.324 . S
C1699 C1705 1.429 . S
C1700 C1692 1.574 . S
C1700 H1695 0.949 1_565 S
C1700 C1706 1.368 . S
C1701 C1685 1.354 1_565 S
C1701 H1693 0.948 . S
C1701 C1699 1.324 . S
C1702 C1690 1.349 . S
C1702 H1696 0.950 . S
C1702 C1703 1.327 . S
C1703 H1697 0.950 . S
C1703 C1702 1.327 . S
C1703 C1707 1.429 . S
C1704 C1687 1.574 . S
C1704 H1698 0.949 . S
C1704 C1708 1.368 . S
C1705 C1686 1.429 1_565 S
C1705 C1699 1.429 . S
C1705 C1706 1.523 . S
C1706 C1687 1.368 . S
C1706 C1700 1.368 . S
C1706 C1705 1.523 . S
C1707 C1691 1.429 . S
C1707 C1703 1.429 . S
C1707 C1708 1.523 . S
C1708 C1692 1.368 . S
C1708 C1704 1.368 . S
C1708 C1707 1.523 . S
H1709 C1684 0.950 . S
H1710 C1686 0.950 . S
H1711 C1687 0.949 . S
H1712 C1689 0.950 . S
H1713 C1691 0.950 . S
C1714 C1715 1.349 . S
C1714 C1716 1.327 1_455 S
C1714 H1739 0.950 . S
C1715 C1714 1.349 . S
C1715 C1731 1.349 . S
C1716 C1714 1.327 1_655 S
C1716 C1735 1.429 . S
C1716 H1740 0.950 . S
C1717 C1734 1.574 . S
C1717 C1736 1.368 . S
C1717 H1741 0.949 . S
H1718 C1722 0.949 . S
C1719 C1720 1.349 . S
C1719 C1721 1.327 . S
C1719 H1742 0.950 . S
C1720 C1719 1.349 . S
C1720 C1732 1.349 . S
C1721 C1719 1.327 . S
C1721 C1737 1.429 . S
C1721 H1743 0.950 . S
C1722 H1718 0.949 . S
C1722 C1730 1.574 . S
C1722 C1738 1.368 . S
H1723 C1731 0.950 . S
H1724 C1729 0.950 . S
H1725 C1730 0.949 . S
H1726 C1732 0.950 . S
H1727 C1733 0.950 . S
H1728 C1734 0.949 . S
C1729 H1724 0.950 . S
C1729 C1731 1.327 . S
C1729 C1735 1.429 1_455 S
C1730 C1722 1.574 . S
C1730 H1725 0.949 . S
C1730 C1736 1.368 . S
C1731 C1715 1.349 . S
C1731 H1723 0.950 . S
C1731 C1729 1.327 . S
C1732 C1720 1.349 . S
C1732 H1726 0.950 . S
C1732 C1733 1.327 . S
C1733 H1727 0.950 . S
C1733 C1732 1.327 . S
C1733 C1737 1.429 . S
C1734 C1717 1.574 . S
C1734 H1728 0.949 . S
C1734 C1738 1.368 . S
C1735 C1716 1.429 . S
C1735 C1729 1.429 1_655 S
C1735 C1736 1.523 . S
C1736 C1717 1.368 . S
C1736 C1730 1.368 . S
C1736 C1735 1.523 . S
C1737 C1721 1.429 . S
C1737 C1733 1.429 . S
C1737 C1738 1.523 . S
C1738 C1722 1.368 . S
C1738 C1734 1.368 . S
C1738 C1737 1.523 . S
H1739 C1714 0.950 . S
H1740 C1716 0.950 . S
H1741 C1717 0.949 . S
H1742 C1719 0.950 . S
H1743 C1721 0.950 . S
C545 C145 2.071 . S
C550 C9 2.071 . S
C575 C43 2.071 . S
C580 C179 2.071 . S
C605 C77 2.071 . S
C610 C213 2.071 . S
C635 C111 2.071 . S
C640 C247 2.071 . S
C665 C281 2.071 . S
C670 C417 2.071 . S
C695 C451 2.071 . S
C700 C315 2.071 . S
C725 C485 2.071 . S
C730 C349 2.071 . S
C755 C383 2.071 . S
C760 C519 2.071 . S
C785 C20 1.043 . S
C790 C496 1.043 . S
C815 C54 1.043 . S
C820 C530 1.043 . S
C845 C88 1.043 . S
C850 C428 1.043 . S
C875 C462 1.043 . S
C880 C122 1.043 . S
C905 C360 1.043 . S
C910 C156 1.043 . S
C935 C190 1.043 . S
C940 C394 1.043 . S
C965 C224 1.043 . S
C970 C292 1.043 . S
C995 C258 1.043 . S
C1000 C326 1.043 . S
C1025 C2 1.031 . S
C1030 C70 1.031 . S
C1055 C36 1.031 . S
C1060 C104 1.031 . S
C1085 C138 1.031 . S
C1090 C206 1.031 . S
C1115 C172 1.031 . S
C1120 C240 1.031 . S
C1145 C342 1.031 . S
C1150 C274 1.031 . S
C1175 C376 1.031 . S
C1180 C308 1.031 . S
C1205 C410 1.031 . S
C1210 C478 1.031 . S
C1235 C444 1.031 . S
C1240 C512 1.031 . S
C1265 C67 0.453 . S
C1270 C5 0.451 . S
C1295 C39 0.451 . S
C1300 C101 0.453 . S
C1325 C135 0.453 . S
C1330 C73 0.451 . S
C1355 C107 0.451 . S
C1360 C33 0.453 . S
C1385 C543 0.453 . S
C1390 C141 0.451 . S
C1415 C175 0.451 . S
C1420 C441 0.453 . S
C1445 C209 0.451 . S
C1450 C475 0.453 . S
C1475 C243 0.451 . S
C1480 C509 0.453 . S
C1505 C277 0.451 . S
C1510 C339 0.453 . S
C1535 C373 0.453 . S
C1540 C311 0.451 . S
C1565 C345 0.451 . S
C1570 C407 0.453 . S
C1595 C379 0.451 . S
C1600 C305 0.453 . S
C1625 C271 0.453 . S
C1630 C413 0.451 . S
C1655 C447 0.451 . S
C1660 C169 0.453 . S
C1685 C481 0.451 . S
C1690 C203 0.453 . S
C1715 C515 0.451 . S
C1720 C237 0.453 . S
