# Generated by pormake.
# Topology smm, (6)-cn, num edge types: 1
# Building blocks:
#     Node 0, Type 0, BuildingBlock: PAMTOO_clean_sbu_0, # of connection points: 6
#     Node 1, Type 0, BuildingBlock: PAMTOO_clean_sbu_0, # of connection points: 6
#     Node 2, Type 0, BuildingBlock: PAMTOO_clean_sbu_0, # of connection points: 6
#     Node 3, Type 0, BuildingBlock: PAMTOO_clean_sbu_0, # of connection points: 6
#     Node 4, Type 0, BuildingBlock: PAMTOO_clean_sbu_0, # of connection points: 6
#     Node 5, Type 0, BuildingBlock: PAMTOO_clean_sbu_0, # of connection points: 6
#     Node 6, Type 0, BuildingBlock: PAMTOO_clean_sbu_0, # of connection points: 6
#     Node 7, Type 0, BuildingBlock: PAMTOO_clean_sbu_0, # of connection points: 6
#     Node 8, Type 0, BuildingBlock: PAMTOO_clean_sbu_0, # of connection points: 6
#     Edge 9, Type (0, 0), None
#     Edge 10, Type (0, 0), None
#     Edge 11, Type (0, 0), None
#     Edge 12, Type (0, 0), None
#     Edge 13, Type (0, 0), None
#     Edge 14, Type (0, 0), None
#     Edge 15, Type (0, 0), None
#     Edge 16, Type (0, 0), None
#     Edge 17, Type (0, 0), None
#     Edge 18, Type (0, 0), None
#     Edge 19, Type (0, 0), None
#     Edge 20, Type (0, 0), None
#     Edge 21, Type (0, 0), None
#     Edge 22, Type (0, 0), None
#     Edge 23, Type (0, 0), None
#     Edge 24, Type (0, 0), None
#     Edge 25, Type (0, 0), None
#     Edge 26, Type (0, 0), None
#     Edge 27, Type (0, 0), None
#     Edge 28, Type (0, 0), None
#     Edge 29, Type (0, 0), None
#     Edge 30, Type (0, 0), None
#     Edge 31, Type (0, 0), None
#     Edge 32, Type (0, 0), None
#     Edge 33, Type (0, 0), None
#     Edge 34, Type (0, 0), None
#     Edge 35, Type (0, 0), None
# Relax obj value: 0.024
# Max RMSD: 0.109
# Mean RMSD: 0.109
data_MOF--net-smm--node1-PAMTOO_clean_sbu_0--edge1-none
_symmetry_space_group_name_H-M    P1
_symmetry_Int_Tables_number       1
_symmetry_cell_setting            triclinic
loop_
_symmetry_equiv_pos_as_xyz
'x, y, z'
_cell_length_a     42.888832
_cell_length_b     42.889119
_cell_length_c     6.089594
_cell_angle_alpha  90.003282
_cell_angle_beta   89.994741
_cell_angle_gamma 120.00204
loop_
_atom_site_label
_atom_site_type_symbol
_atom_site_fract_x
_atom_site_fract_y
_atom_site_fract_z
_atom_type_partial_charge
Dy0 Dy 0.99187 0.14241 0.02776 0.0
Dy1 Dy 0.07103 0.23894 0.05408 0.0
C2 C 0.03862 0.20031 0.44028 0.0
O3 O 0.97205 0.18237 0.06376 0.0
O4 O 1.02069 0.24258 0.09015 0.0
O5 O 0.97233 0.09966 0.26748 0.0
O6 O 0.93758 0.09787 3e-05 0.0
O7 O 0.0356 0.19462 0.83939 0.0
O8 O 0.99778 0.14837 0.65998 0.0
O9 O 0.09141 0.19935 0.06672 0.0
O10 O 0.04303 0.13973 0.0095 0.0
O11 O 0.09297 0.27469 0.77694 0.0
O12 O 0.12228 0.28793 0.08758 0.0
C13 C 0.98574 0.21789 0.08722 0.0
O14 O 0.02679 0.18628 0.2487 0.0
O15 O 0.06524 0.23319 0.42303 0.0
C16 C 0.92883 0.04221 0.12956 0.0
C17 C 0.90258 0.96788 0.0631 0.0
C18 C 0.9395 0.9931 0.03736 0.0
C19 C 0.95248 0.02995 0.06966 0.0
C20 C 0.89208 0.01732 0.15246 0.0
C21 C 0.87906 0.9806 0.11946 0.0
C22 C 0.94152 0.0807 0.16571 0.0
C23 C 0.02428 0.18122 0.64595 0.0
C24 C 0.07769 0.16387 0.0424 0.0
C25 C 0.13216 0.33655 0.85616 0.0
C26 C 0.15542 0.4102 0.7865 0.0
C27 C 0.11873 0.38518 0.82415 0.0
C28 C 0.10721 0.34865 0.8589 0.0
C29 C 0.16858 0.36127 0.8189 0.0
C30 C 0.18013 0.39765 0.78449 0.0
C31 C 0.12115 0.29836 0.88705 0.0
H32 H 0.95849 0.98445 0.99406 0.0
H33 H 0.98097 0.04881 0.04901 0.0
H34 H 0.87338 0.02629 0.19717 0.0
H35 H 0.85052 0.96221 0.14135 0.0
H36 H 0.09888 0.39373 0.82756 0.0
H37 H 0.07891 0.32991 0.88745 0.0
H38 H 0.18821 0.35239 0.81577 0.0
H39 H 0.20854 0.41588 0.75655 0.0
Dy40 Dy 0.91028 0.86417 0.02766 0.0
Dy41 Dy 0.81374 0.84675 0.05405 0.0
C42 C 0.85237 0.85299 0.44024 0.0
O43 O 0.87033 0.80439 0.06372 0.0
O44 O 0.81011 0.79278 0.09005 0.0
O45 O 0.95305 0.88743 0.26719 0.0
O46 O 0.95481 0.8544 -2e-05 0.0
O47 O 0.85806 0.85567 0.83936 0.0
O48 O 0.90431 0.86411 0.65989 0.0
O49 O 0.8533 0.90672 0.06678 0.0
O50 O 0.91293 0.918 0.00947 0.0
O51 O 0.778 0.83296 0.77685 0.0
O52 O 0.76472 0.84897 0.08764 0.0
C53 C 0.83481 0.78255 0.08715 0.0
O54 O 0.86641 0.8552 0.24865 0.0
O55 O 0.81949 0.84673 0.423 0.0
C56 C 1.01049 0.90132 0.12919 0.0
C57 C 0.08483 0.94936 0.06253 0.0
C58 C 0.05961 0.96107 0.03669 0.0
C59 C 1.02276 0.93722 0.06909 0.0
C60 C 0.03537 0.88945 0.15215 0.0
C61 C 0.07209 0.91312 0.11904 0.0
C62 C 0.97199 0.87553 0.16551 0.0
C63 C 0.87146 0.85775 0.64589 0.0
C64 C 0.88877 0.92849 0.04239 0.0
C65 C 0.71614 0.81025 0.85597 0.0
C66 C 0.64251 0.75984 0.78613 0.0
C67 C 0.66753 0.74819 0.82399 0.0
C68 C 0.70405 0.77321 0.85883 0.0
C69 C 0.69141 0.82193 0.81847 0.0
C70 C 0.65504 0.79709 0.78397 0.0
C71 C 0.75432 0.83745 0.88703 0.0
H72 H 0.06828 0.98871 0.99327 0.0
H73 H 1.00392 0.94686 0.04838 0.0
H74 H 0.02638 0.86177 0.197 0.0
H75 H 0.09047 0.90296 0.14101 0.0
H76 H 0.65898 0.71978 0.82752 0.0
H77 H 0.7228 0.76366 0.88758 0.0
H78 H 0.70028 0.85044 0.81524 0.0
H79 H 0.63681 0.80726 0.75585 0.0
Dy80 Dy 0.18854 0.06077 0.0275 0.0
Dy81 Dy 0.20596 0.98164 0.05377 0.0
C82 C 0.1997 1.01402 0.43999 0.0
O83 O 0.24832 0.08061 0.0637 0.0
O84 O 0.25992 0.03199 0.09001 0.0
O85 O 0.16524 0.08024 0.2671 0.0
O86 O 0.19826 0.11505 -4e-05 0.0
O87 O 0.19706 0.01706 0.83911 0.0
O88 O 0.18861 0.05487 0.65972 0.0
O89 O 0.14598 0.96122 0.06628 0.0
O90 O 0.13472 1.00958 0.00905 0.0
O91 O 0.21985 0.95974 0.7767 0.0
O92 O 0.20371 0.93039 0.08721 0.0
C93 C 0.27016 0.06693 0.08717 0.0
O94 O 0.19748 0.02584 0.24842 0.0
O95 O 0.20597 0.98741 0.42272 0.0
C96 C 0.15131 0.12377 0.12935 0.0
C97 C 0.10325 0.15005 0.06303 0.0
C98 C 0.09154 0.11313 0.0372 0.0
C99 C 0.1154 0.10013 0.06944 0.0
C100 C 0.16318 0.16052 0.15236 0.0
C101 C 0.1395 0.17356 0.11942 0.0
C102 C 0.17712 0.11107 0.16551 0.0
C103 C 0.19497 0.02837 0.64567 0.0
C104 C 0.12421 0.97493 0.04188 0.0
C105 C 0.24251 0.92055 0.85599 0.0
C106 C 0.29292 0.89731 0.78647 0.0
C107 C 0.30457 0.93399 0.824 0.0
C108 C 0.27956 0.94551 0.85868 0.0
C109 C 0.23082 0.88413 0.81887 0.0
C110 C 0.25566 0.87259 0.78454 0.0
C111 C 0.21531 0.93155 0.88675 0.0
H112 H 0.0639 0.09415 0.99389 0.0
H113 H 0.10577 0.07165 0.04872 0.0
H114 H 0.19086 0.17921 0.19711 0.0
H115 H 0.14966 0.20209 0.1414 0.0
H116 H 0.33298 0.95386 0.82735 0.0
H117 H 0.28911 0.97381 0.88712 0.0
H118 H 0.20231 0.86449 0.81579 0.0
H119 H 0.24548 0.84417 0.75669 0.0
Dy120 Dy 0.65863 0.47577 0.36098 0.0
Dy121 Dy 0.73776 0.57232 0.38731 0.0
C122 C 0.70537 0.53368 0.77352 0.0
O123 O 0.6388 0.51571 0.39707 0.0
O124 O 0.68741 0.57593 0.42339 0.0
O125 O 0.63912 0.433 0.60052 0.0
O126 O 0.60434 0.43124 0.33335 0.0
O127 O 0.70235 0.52799 0.17264 0.0
O128 O 0.66454 0.48174 0.99321 0.0
O129 O 0.75818 0.53276 0.39998 0.0
O130 O 0.70982 0.47313 0.34275 0.0
O131 O 0.75969 0.60807 0.11013 0.0
O132 O 0.789 0.62133 0.42082 0.0
C133 C 0.65247 0.55123 0.4205 0.0
O134 O 0.69354 0.51965 0.58194 0.0
O135 O 0.73198 0.56656 0.75626 0.0
C136 C 0.59558 0.37556 0.46257 0.0
C137 C 0.56929 0.30122 0.39591 0.0
C138 C 0.60621 0.32643 0.3701 0.0
C139 C 0.61921 0.36329 0.40251 0.0
C140 C 0.55883 0.35068 0.48551 0.0
C141 C 0.54578 0.31396 0.45241 0.0
C142 C 0.60829 0.41406 0.49887 0.0
C143 C 0.69104 0.51459 0.97919 0.0
C144 C 0.74447 0.49728 0.37566 0.0
C145 C 0.79885 0.66993 0.18932 0.0
C146 C 0.82207 0.74356 0.11966 0.0
C147 C 0.78539 0.71853 0.15742 0.0
C148 C 0.77389 0.68201 0.19218 0.0
C149 C 0.83527 0.69467 0.15192 0.0
C150 C 0.84679 0.73104 0.11751 0.0
C151 C 0.78787 0.63174 0.22026 0.0
H152 H 0.62519 0.31777 0.3267 0.0
H153 H 0.6477 0.38213 0.38181 0.0
H154 H 0.54014 0.35967 0.53035 0.0
H155 H 0.51724 0.29558 0.47436 0.0
H156 H 0.76553 0.72708 0.16094 0.0
H157 H 0.7456 0.66326 0.22084 0.0
H158 H 0.85491 0.6858 0.1487 0.0
H159 H 0.8752 0.74928 0.08946 0.0
Dy160 Dy 0.57698 0.19751 0.36069 0.0
Dy161 Dy 0.48042 0.18009 0.38707 0.0
C162 C 0.51906 0.18634 0.77325 0.0
O163 O 0.53703 0.13773 0.39684 0.0
O164 O 0.47681 0.12613 0.42324 0.0
O165 O 0.61973 0.22078 0.6003 0.0
O166 O 0.62153 0.18779 0.33303 0.0
O167 O 0.52474 0.18899 0.17235 0.0
O168 O 0.571 0.19744 0.99291 0.0
O169 O 0.51999 0.24007 0.39963 0.0
O170 O 0.57961 0.25133 0.34233 0.0
O171 O 0.44465 0.16622 0.11001 0.0
O172 O 0.43142 0.18233 0.4206 0.0
C173 C 0.50151 0.11589 0.42034 0.0
O174 O 0.5331 0.18856 0.58165 0.0
O175 O 0.48618 0.18007 0.75601 0.0
C176 C 0.67719 0.23473 0.4625 0.0
C177 C 0.75154 0.2828 0.39623 0.0
C178 C 0.72632 0.29451 0.37053 0.0
C179 C 0.68947 0.27065 0.40274 0.0
C180 C 0.70208 0.22286 0.48536 0.0
C181 C 0.7388 0.24654 0.45245 0.0
C182 C 0.63869 0.20892 0.49863 0.0
C183 C 0.53815 0.19108 0.9789 0.0
C184 C 0.55546 0.26184 0.37522 0.0
C185 C 0.38279 0.14356 0.18933 0.0
C186 C 0.30914 0.09316 0.11975 0.0
C187 C 0.33417 0.08151 0.15726 0.0
C188 C 0.37069 0.10651 0.19197 0.0
C189 C 0.35806 0.15525 0.15222 0.0
C190 C 0.32168 0.13042 0.11786 0.0
C191 C 0.42099 0.17076 0.22012 0.0
H192 H 0.73499 0.32216 0.32735 0.0
H193 H 0.67062 0.28028 0.38214 0.0
H194 H 0.69309 0.19517 0.52998 0.0
H195 H 0.75718 0.23639 0.47431 0.0
H196 H 0.32562 0.0531 0.16058 0.0
H197 H 0.38944 0.09696 0.22041 0.0
H198 H 0.36693 0.18376 0.14918 0.0
H199 H 0.30345 0.1406 0.09002 0.0
Dy200 Dy 0.85529 0.39419 0.36112 0.0
Dy201 Dy 0.87266 0.31504 0.3874 0.0
C202 C 0.86643 0.34743 0.77363 0.0
O203 O 0.91506 0.41401 0.39719 0.0
O204 O 0.92664 0.36538 0.42352 0.0
O205 O 0.83205 0.41371 0.60081 0.0
O206 O 0.86504 0.44848 0.33346 0.0
O207 O 0.86377 0.35047 0.17275 0.0
O208 O 0.85535 0.38829 0.99334 0.0
O209 O 0.81269 0.29465 0.40001 0.0
O210 O 0.80144 0.34302 0.34281 0.0
O211 O 0.88648 0.29311 0.11023 0.0
O212 O 0.8704 0.26378 0.42086 0.0
C213 C 0.93689 0.40032 0.42063 0.0
O214 O 0.86422 0.35926 0.58205 0.0
O215 O 0.87268 0.32081 0.75636 0.0
C216 C 0.81812 0.45722 0.46288 0.0
C217 C 0.77004 0.48347 0.39635 0.0
C218 C 0.75835 0.44656 0.37059 0.0
C219 C 0.78221 0.43357 0.40293 0.0
C220 C 0.82998 0.49397 0.48579 0.0
C221 C 0.80629 0.507 0.45275 0.0
C222 C 0.84393 0.44454 0.49908 0.0
C223 C 0.86169 0.36179 0.9793 0.0
C224 C 0.79093 0.30837 0.37564 0.0
C225 C 0.90913 0.25391 0.18938 0.0
C226 C 0.95953 0.23066 0.11972 0.0
C227 C 0.97119 0.26733 0.15748 0.0
C228 C 0.94619 0.27885 0.19223 0.0
C229 C 0.89744 0.21749 0.15196 0.0
C230 C 0.92227 0.20595 0.11756 0.0
C231 C 0.88195 0.26492 0.22031 0.0
H232 H 0.73071 0.42757 0.32726 0.0
H233 H 0.77259 0.40509 0.38226 0.0
H234 H 0.85766 0.51267 0.53054 0.0
H235 H 0.81643 0.53554 0.47466 0.0
H236 H 0.9996 0.28719 0.16099 0.0
H237 H 0.95575 0.30715 0.2209 0.0
H238 H 0.86893 0.19787 0.14874 0.0
H239 H 0.91208 0.17753 0.0895 0.0
Dy240 Dy 0.3253 0.8091 0.69436 0.0
Dy241 Dy 0.40444 0.90565 0.72068 0.0
C242 C 0.37205 0.86701 0.10689 0.0
O243 O 0.30547 0.84904 0.73053 0.0
O244 O 0.35409 0.90926 0.75679 0.0
O245 O 0.30582 0.76633 0.93394 0.0
O246 O 0.27102 0.76454 0.66677 0.0
O247 O 0.36902 0.86132 0.506 0.0
O248 O 0.33121 0.81507 0.32659 0.0
O249 O 0.42485 0.86608 0.73328 0.0
O250 O 0.37649 0.80646 0.67596 0.0
O251 O 0.42637 0.94141 0.44353 0.0
O252 O 0.45568 0.95467 0.75422 0.0
C253 C 0.31915 0.88456 0.75393 0.0
O254 O 0.36022 0.85297 0.91531 0.0
O255 O 0.39866 0.89989 0.08962 0.0
C256 C 0.26229 0.70887 0.7961 0.0
C257 C 0.23602 0.63453 0.72967 0.0
C258 C 0.27294 0.65975 0.70399 0.0
C259 C 0.28594 0.6966 0.73628 0.0
C260 C 0.22554 0.68399 0.81894 0.0
C261 C 0.2125 0.64727 0.78595 0.0
C262 C 0.27499 0.74737 0.83231 0.0
C263 C 0.3577 0.84792 0.31256 0.0
C264 C 0.41114 0.83061 0.70888 0.0
C265 C 0.46554 1.00327 0.5227 0.0
C266 C 0.48876 0.0769 0.45293 0.0
C267 C 0.45209 0.05188 0.49075 0.0
C268 C 0.44058 1.01536 0.52556 0.0
C269 C 0.50195 0.028 0.48524 0.0
C270 C 0.51348 0.06437 0.45078 0.0
C271 C 0.45455 0.96508 0.55366 0.0
H272 H 0.29192 0.65108 0.66076 0.0
H273 H 0.31442 0.71545 0.71568 0.0
H274 H 0.20684 0.69298 0.8636 0.0
H275 H 0.18396 0.62889 0.8078 0.0
H276 H 0.43223 0.06043 0.49427 0.0
H277 H 0.41229 0.99661 0.55426 0.0
H278 H 0.52159 0.01913 0.48202 0.0
H279 H 0.54189 0.0826 0.42269 0.0
Dy280 Dy 0.24367 0.53079 0.69443 0.0
Dy281 Dy 0.14713 0.51341 0.72081 0.0
C282 C 0.18576 0.51964 0.10699 0.0
O283 O 0.2037 0.47101 0.7305 0.0
O284 O 0.1435 0.45943 0.7569 0.0
O285 O 0.28642 0.55403 0.93408 0.0
O286 O 0.2882 0.52104 0.66672 0.0
O287 O 0.19145 0.5223 0.50611 0.0
O288 O 0.2377 0.53073 0.32665 0.0
O289 O 0.18672 0.57338 0.73341 0.0
O290 O 0.24634 0.58463 0.67615 0.0
O291 O 0.11138 0.49959 0.44367 0.0
O292 O 0.09813 0.51567 0.75432 0.0
C293 C 0.16818 0.44918 0.75395 0.0
O294 O 0.19979 0.52185 0.9154 0.0
O295 O 0.15289 0.51339 0.08976 0.0
C296 C 0.34387 0.56796 0.7961 0.0
C297 C 0.4182 0.61604 0.7295 0.0
C298 C 0.39297 0.62773 0.70377 0.0
C299 C 0.35612 0.60387 0.73614 0.0
C300 C 0.36875 0.55611 0.81899 0.0
C301 C 0.40547 0.57979 0.78592 0.0
C302 C 0.30537 0.54216 0.83233 0.0
C303 C 0.20485 0.52439 0.31265 0.0
C304 C 0.22219 0.59514 0.70903 0.0
C305 C 0.04953 0.47693 0.52286 0.0
C306 C 0.97588 0.42654 0.45318 0.0
C307 C 1.00089 0.41487 0.49087 0.0
C308 C 0.03742 0.43988 0.52563 0.0
C309 C 0.0248 0.48863 0.48554 0.0
C310 C 0.98843 0.4638 0.45112 0.0
C311 C 0.08772 0.50411 0.55378 0.0
H312 H 0.40163 0.65538 0.66043 0.0
H313 H 0.33727 0.61349 0.71549 0.0
H314 H 0.35978 0.52843 0.86375 0.0
H315 H 0.42386 0.56965 0.80781 0.0
H316 H 0.99233 0.38646 0.49431 0.0
H317 H 0.05615 0.43032 0.55423 0.0
H318 H 0.03369 0.51713 0.48238 0.0
H319 H 0.9702 0.47398 0.42313 0.0
Dy320 Dy 0.52191 0.72745 0.69413 0.0
Dy321 Dy 0.53932 0.64831 0.72042 0.0
C322 C 0.53308 0.68071 0.10664 0.0
O323 O 0.58169 0.74728 0.73014 0.0
O324 O 0.59329 0.69866 0.7565 0.0
O325 O 0.49866 0.74696 0.93376 0.0
O326 O 0.53167 0.78174 0.66647 0.0
O327 O 0.53041 0.68372 0.50575 0.0
O328 O 0.52197 0.72154 0.32635 0.0
O329 O 0.47935 0.62791 0.73309 0.0
O330 O 0.46808 0.67626 0.67592 0.0
O331 O 0.55316 0.62639 0.44328 0.0
O332 O 0.53707 0.59706 0.75391 0.0
C333 C 0.60353 0.7336 0.75357 0.0
O334 O 0.53087 0.69253 0.91506 0.0
O335 O 0.53935 0.6541 0.08937 0.0
C336 C 0.48476 0.7905 0.7959 0.0
C337 C 0.4367 0.81679 0.72949 0.0
C338 C 0.425 0.77987 0.70361 0.0
C339 C 0.44885 0.76686 0.7359 0.0
C340 C 0.49663 0.82725 0.81891 0.0
C341 C 0.47295 0.84029 0.78592 0.0
C342 C 0.51055 0.77779 0.83208 0.0
C343 C 0.52832 0.69504 0.31231 0.0
C344 C 0.45758 0.64161 0.70877 0.0
C345 C 0.57583 0.58721 0.52254 0.0
C346 C 0.62624 0.56398 0.453 0.0
C347 C 0.63789 0.60066 0.49065 0.0
C348 C 0.61288 0.61217 0.52534 0.0
C349 C 0.56415 0.55079 0.48526 0.0
C350 C 0.58899 0.53926 0.45092 0.0
C351 C 0.54863 0.5982 0.55339 0.0
H352 H 0.39735 0.76089 0.66025 0.0
H353 H 0.43921 0.73838 0.71516 0.0
H354 H 0.52431 0.84594 0.8637 0.0
H355 H 0.48311 0.86883 0.80792 0.0
H356 H 0.6663 0.62052 0.49411 0.0
H357 H 0.62243 0.64047 0.55392 0.0
H358 H 0.53564 0.53116 0.48209 0.0
H359 H 0.57881 0.51085 0.42296 0.0
loop_
_geom_bond_atom_site_label_1
_geom_bond_atom_site_label_2
_geom_bond_distance
_geom_bond_site_symmetry_2
_ccdc_geom_bond_type
Dy0 O3 2.307 . S
Dy0 O5 2.395 1_556 S
Dy0 O6 2.379 . S
Dy0 O8 2.339 . S
Dy0 O10 2.298 1_655 S
Dy0 O14 2.275 1_556 S
Dy0 C22 2.738 1_556 S
Dy1 O4 2.298 . S
Dy1 O7 2.275 1_554 S
Dy1 O9 2.307 . S
Dy1 O11 2.395 1_554 S
Dy1 O12 2.379 . S
Dy1 O15 2.339 . S
Dy1 C31 2.738 1_554 S
C2 O14 1.254 1_455 S
C2 O15 1.257 . S
O3 Dy0 2.307 . S
O3 C13 1.266 1_556 S
O4 Dy1 2.298 . S
O4 C13 1.236 1_455 S
O5 Dy0 2.395 1_554 S
O5 C22 1.255 . S
O6 Dy0 2.379 . S
O6 C22 1.249 1_556 S
O7 Dy1 2.275 1_556 S
O7 C23 1.254 1_455 S
O8 Dy0 2.339 . S
O8 C23 1.257 . S
O9 Dy1 2.307 . S
O9 C24 1.266 1_554 S
O10 Dy0 2.298 1_455 S
O10 C24 1.236 . S
O11 Dy1 2.395 1_556 S
O11 C31 1.255 . S
O12 Dy1 2.379 . S
O12 C31 1.249 1_554 S
C13 O3 1.266 1_554 S
C13 O4 1.236 1_655 S
O14 Dy0 2.275 1_554 S
O14 C2 1.254 1_655 S
O15 Dy1 2.339 . S
O15 C2 1.257 . S
C16 C19 1.344 . S
C16 C20 1.328 1_544 S
C16 C22 1.516 . S
C17 C18 1.304 . S
C17 C21 1.323 1_554 S
C18 C17 1.304 . S
C18 C19 1.371 1_565 S
C18 H32 0.930 . S
C19 C16 1.344 . S
C19 C18 1.371 1_545 S
C19 H33 0.931 . S
C20 C16 1.328 1_566 S
C20 C21 1.433 . S
C20 H34 0.931 1_565 S
C21 C17 1.323 1_556 S
C21 C20 1.433 . S
C21 H35 0.933 . S
C22 Dy0 2.738 1_554 S
C22 O5 1.255 . S
C22 O6 1.249 1_554 S
C22 C16 1.516 . S
C23 O7 1.254 1_655 S
C23 O8 1.257 . S
C24 O9 1.266 1_556 S
C24 O10 1.236 . S
C25 C28 1.344 . S
C25 C29 1.328 1_556 S
C25 C31 1.516 . S
C26 C27 1.304 . S
C26 C30 1.323 1_556 S
C27 C26 1.304 . S
C27 C28 1.371 . S
C27 H36 0.930 . S
C28 C25 1.344 . S
C28 C27 1.371 . S
C28 H37 0.931 . S
C29 C25 1.328 1_554 S
C29 C30 1.433 . S
C29 H38 0.931 . S
C30 C26 1.323 1_554 S
C30 C29 1.433 . S
C30 H39 0.933 . S
C31 Dy1 2.738 1_556 S
C31 O11 1.255 . S
C31 O12 1.249 1_556 S
C31 C25 1.516 . S
H32 C18 0.930 . S
H33 C19 0.931 . S
H34 C20 0.931 1_545 S
H35 C21 0.933 . S
H36 C27 0.930 . S
H37 C28 0.931 . S
H38 C29 0.931 . S
H39 C30 0.933 . S
Dy40 O43 2.307 . S
Dy40 O45 2.395 1_556 S
Dy40 O46 2.379 . S
Dy40 O48 2.339 . S
Dy40 O50 2.298 . S
Dy40 O54 2.275 1_556 S
Dy40 C62 2.738 1_556 S
Dy41 O44 2.298 . S
Dy41 O47 2.275 1_554 S
Dy41 O49 2.307 . S
Dy41 O51 2.395 1_554 S
Dy41 O52 2.379 . S
Dy41 O55 2.339 . S
Dy41 C71 2.738 1_554 S
C42 O54 1.254 . S
C42 O55 1.257 . S
O43 Dy40 2.307 . S
O43 C53 1.266 1_556 S
O44 Dy41 2.298 . S
O44 C53 1.236 . S
O45 Dy40 2.395 1_554 S
O45 C62 1.255 . S
O46 Dy40 2.379 . S
O46 C62 1.249 1_556 S
O47 Dy41 2.275 1_556 S
O47 C63 1.254 . S
O48 Dy40 2.339 . S
O48 C63 1.257 . S
O49 Dy41 2.307 . S
O49 C64 1.266 1_554 S
O50 Dy40 2.298 . S
O50 C64 1.236 . S
O51 Dy41 2.395 1_556 S
O51 C71 1.255 . S
O52 Dy41 2.379 . S
O52 C71 1.249 1_554 S
C53 O43 1.266 1_554 S
C53 O44 1.236 . S
O54 Dy40 2.275 1_554 S
O54 C42 1.254 . S
O55 Dy41 2.339 . S
O55 C42 1.257 . S
C56 C59 1.344 1_655 S
C56 C60 1.328 1_654 S
C56 C62 1.516 . S
C57 C58 1.304 . S
C57 C61 1.323 1_554 S
C58 C57 1.304 . S
C58 C59 1.371 . S
C58 H72 0.930 . S
C59 C56 1.344 1_455 S
C59 C58 1.371 . S
C59 H73 0.931 1_455 S
C60 C56 1.328 1_456 S
C60 C61 1.433 . S
C60 H74 0.931 . S
C61 C57 1.323 1_556 S
C61 C60 1.433 . S
C61 H75 0.933 . S
C62 Dy40 2.738 1_554 S
C62 O45 1.255 . S
C62 O46 1.249 1_554 S
C62 C56 1.516 . S
C63 O47 1.254 . S
C63 O48 1.257 . S
C64 O49 1.266 1_556 S
C64 O50 1.236 . S
C65 C68 1.344 . S
C65 C69 1.328 1_556 S
C65 C71 1.516 . S
C66 C67 1.304 . S
C66 C70 1.323 1_556 S
C67 C66 1.304 . S
C67 C68 1.371 . S
C67 H76 0.930 . S
C68 C65 1.344 . S
C68 C67 1.371 . S
C68 H77 0.931 . S
C69 C65 1.328 1_554 S
C69 C70 1.433 . S
C69 H78 0.931 . S
C70 C66 1.323 1_554 S
C70 C69 1.433 . S
C70 H79 0.933 . S
C71 Dy41 2.738 1_556 S
C71 O51 1.255 . S
C71 O52 1.249 1_556 S
C71 C65 1.516 . S
H72 C58 0.930 . S
H73 C59 0.931 1_655 S
H74 C60 0.931 . S
H75 C61 0.933 . S
H76 C67 0.930 . S
H77 C68 0.931 . S
H78 C69 0.931 . S
H79 C70 0.933 . S
Dy80 O83 2.307 . S
Dy80 O85 2.395 1_556 S
Dy80 O86 2.379 . S
Dy80 O88 2.339 . S
Dy80 O90 2.298 . S
Dy80 O94 2.275 1_556 S
Dy80 C102 2.738 1_556 S
Dy81 O84 2.298 1_565 S
Dy81 O87 2.275 1_554 S
Dy81 O89 2.307 . S
Dy81 O91 2.395 1_554 S
Dy81 O92 2.379 . S
Dy81 O95 2.339 . S
Dy81 C111 2.738 1_554 S
C82 O94 1.254 1_565 S
C82 O95 1.257 . S
O83 Dy80 2.307 . S
O83 C93 1.266 1_556 S
O84 Dy81 2.298 1_545 S
O84 C93 1.236 . S
O85 Dy80 2.395 1_554 S
O85 C102 1.255 . S
O86 Dy80 2.379 . S
O86 C102 1.249 1_556 S
O87 Dy81 2.275 1_556 S
O87 C103 1.254 1_565 S
O88 Dy80 2.339 . S
O88 C103 1.257 . S
O89 Dy81 2.307 . S
O89 C104 1.266 1_554 S
O90 Dy80 2.298 . S
O90 C104 1.236 1_545 S
O91 Dy81 2.395 1_556 S
O91 C111 1.255 . S
O92 Dy81 2.379 . S
O92 C111 1.249 1_554 S
C93 O83 1.266 1_554 S
C93 O84 1.236 . S
O94 Dy80 2.275 1_554 S
O94 C82 1.254 1_545 S
O95 Dy81 2.339 . S
O95 C82 1.257 . S
C96 C99 1.344 . S
C96 C100 1.328 1_554 S
C96 C102 1.516 . S
C97 C98 1.304 . S
C97 C101 1.323 1_554 S
C98 C97 1.304 . S
C98 C99 1.371 . S
C98 H112 0.930 . S
C99 C96 1.344 . S
C99 C98 1.371 . S
C99 H113 0.931 . S
C100 C96 1.328 1_556 S
C100 C101 1.433 . S
C100 H114 0.931 . S
C101 C97 1.323 1_556 S
C101 C100 1.433 . S
C101 H115 0.933 . S
C102 Dy80 2.738 1_554 S
C102 O85 1.255 . S
C102 O86 1.249 1_554 S
C102 C96 1.516 . S
C103 O87 1.254 1_545 S
C103 O88 1.257 . S
C104 O89 1.266 1_556 S
C104 O90 1.236 1_565 S
C105 C108 1.344 . S
C105 C109 1.328 1_556 S
C105 C111 1.516 . S
C106 C107 1.304 . S
C106 C110 1.323 1_556 S
C107 C106 1.304 . S
C107 C108 1.371 . S
C107 H116 0.930 . S
C108 C105 1.344 . S
C108 C107 1.371 . S
C108 H117 0.931 . S
C109 C105 1.328 1_554 S
C109 C110 1.433 . S
C109 H118 0.931 . S
C110 C106 1.323 1_554 S
C110 C109 1.433 . S
C110 H119 0.933 . S
C111 Dy81 2.738 1_556 S
C111 O91 1.255 . S
C111 O92 1.249 1_556 S
C111 C105 1.516 . S
H112 C98 0.930 . S
H113 C99 0.931 . S
H114 C100 0.931 . S
H115 C101 0.933 . S
H116 C107 0.930 . S
H117 C108 0.931 . S
H118 C109 0.931 . S
H119 C110 0.933 . S
Dy120 O123 2.307 . S
Dy120 O125 2.395 . S
Dy120 O126 2.379 . S
Dy120 O128 2.339 1_554 S
Dy120 O130 2.298 . S
Dy120 O134 2.275 . S
Dy120 C142 2.738 . S
Dy121 O124 2.298 . S
Dy121 O127 2.275 . S
Dy121 O129 2.307 . S
Dy121 O131 2.395 . S
Dy121 O132 2.379 . S
Dy121 O135 2.339 . S
Dy121 C151 2.738 . S
C122 O134 1.254 . S
C122 O135 1.257 . S
O123 Dy120 2.307 . S
O123 C133 1.266 . S
O124 Dy121 2.298 . S
O124 C133 1.236 . S
O125 Dy120 2.395 . S
O125 C142 1.255 . S
O126 Dy120 2.379 . S
O126 C142 1.249 . S
O127 Dy121 2.275 . S
O127 C143 1.254 1_554 S
O128 Dy120 2.339 1_556 S
O128 C143 1.257 . S
O129 Dy121 2.307 . S
O129 C144 1.266 . S
O130 Dy120 2.298 . S
O130 C144 1.236 . S
O131 Dy121 2.395 . S
O131 C151 1.255 . S
O132 Dy121 2.379 . S
O132 C151 1.249 . S
C133 O123 1.266 . S
C133 O124 1.236 . S
O134 Dy120 2.275 . S
O134 C122 1.254 . S
O135 Dy121 2.339 . S
O135 C122 1.257 . S
C136 C139 1.344 . S
C136 C140 1.328 . S
C136 C142 1.516 . S
C137 C138 1.304 . S
C137 C141 1.323 . S
C138 C137 1.304 . S
C138 C139 1.371 . S
C138 H152 0.930 . S
C139 C136 1.344 . S
C139 C138 1.371 . S
C139 H153 0.931 . S
C140 C136 1.328 . S
C140 C141 1.433 . S
C140 H154 0.931 . S
C141 C137 1.323 . S
C141 C140 1.433 . S
C141 H155 0.933 . S
C142 Dy120 2.738 . S
C142 O125 1.255 . S
C142 O126 1.249 . S
C142 C136 1.516 . S
C143 O127 1.254 1_556 S
C143 O128 1.257 . S
C144 O129 1.266 . S
C144 O130 1.236 . S
C145 C148 1.344 . S
C145 C149 1.328 . S
C145 C151 1.516 . S
C146 C147 1.304 . S
C146 C150 1.323 . S
C147 C146 1.304 . S
C147 C148 1.371 . S
C147 H156 0.930 1_554 S
C148 C145 1.344 . S
C148 C147 1.371 . S
C148 H157 0.931 1_554 S
C149 C145 1.328 . S
C149 C150 1.433 . S
C149 H158 0.931 . S
C150 C146 1.323 . S
C150 C149 1.433 . S
C150 H159 0.933 . S
C151 Dy121 2.738 . S
C151 O131 1.255 . S
C151 O132 1.249 . S
C151 C145 1.516 . S
H152 C138 0.930 . S
H153 C139 0.931 . S
H154 C140 0.931 . S
H155 C141 0.933 . S
H156 C147 0.930 1_556 S
H157 C148 0.931 1_556 S
H158 C149 0.931 . S
H159 C150 0.933 . S
Dy160 O163 2.307 . S
Dy160 O165 2.395 . S
Dy160 O166 2.379 . S
Dy160 O168 2.339 1_554 S
Dy160 O170 2.298 . S
Dy160 O174 2.275 . S
Dy160 C182 2.738 . S
Dy161 O164 2.298 . S
Dy161 O167 2.275 . S
Dy161 O169 2.307 . S
Dy161 O171 2.395 . S
Dy161 O172 2.379 . S
Dy161 O175 2.339 . S
Dy161 C191 2.738 . S
C162 O174 1.254 . S
C162 O175 1.257 . S
O163 Dy160 2.307 . S
O163 C173 1.266 . S
O164 Dy161 2.298 . S
O164 C173 1.236 . S
O165 Dy160 2.395 . S
O165 C182 1.255 . S
O166 Dy160 2.379 . S
O166 C182 1.249 . S
O167 Dy161 2.275 . S
O167 C183 1.254 1_554 S
O168 Dy160 2.339 1_556 S
O168 C183 1.257 . S
O169 Dy161 2.307 . S
O169 C184 1.266 . S
O170 Dy160 2.298 . S
O170 C184 1.236 . S
O171 Dy161 2.395 . S
O171 C191 1.255 . S
O172 Dy161 2.379 . S
O172 C191 1.249 . S
C173 O163 1.266 . S
C173 O164 1.236 . S
O174 Dy160 2.275 . S
O174 C162 1.254 . S
O175 Dy161 2.339 . S
O175 C162 1.257 . S
C176 C179 1.344 . S
C176 C180 1.328 . S
C176 C182 1.516 . S
C177 C178 1.304 . S
C177 C181 1.323 . S
C178 C177 1.304 . S
C178 C179 1.371 . S
C178 H192 0.930 . S
C179 C176 1.344 . S
C179 C178 1.371 . S
C179 H193 0.931 . S
C180 C176 1.328 . S
C180 C181 1.433 . S
C180 H194 0.931 . S
C181 C177 1.323 . S
C181 C180 1.433 . S
C181 H195 0.933 . S
C182 Dy160 2.738 . S
C182 O165 1.255 . S
C182 O166 1.249 . S
C182 C176 1.516 . S
C183 O167 1.254 1_556 S
C183 O168 1.257 . S
C184 O169 1.266 . S
C184 O170 1.236 . S
C185 C188 1.344 . S
C185 C189 1.328 . S
C185 C191 1.516 . S
C186 C187 1.304 . S
C186 C190 1.323 . S
C187 C186 1.304 . S
C187 C188 1.371 . S
C187 H196 0.930 1_554 S
C188 C185 1.344 . S
C188 C187 1.371 . S
C188 H197 0.931 1_554 S
C189 C185 1.328 . S
C189 C190 1.433 . S
C189 H198 0.931 . S
C190 C186 1.323 . S
C190 C189 1.433 . S
C190 H199 0.933 . S
C191 Dy161 2.738 . S
C191 O171 1.255 . S
C191 O172 1.249 . S
C191 C185 1.516 . S
H192 C178 0.930 . S
H193 C179 0.931 . S
H194 C180 0.931 . S
H195 C181 0.933 . S
H196 C187 0.930 1_556 S
H197 C188 0.931 1_556 S
H198 C189 0.931 . S
H199 C190 0.933 . S
Dy200 O203 2.307 . S
Dy200 O205 2.395 . S
Dy200 O206 2.379 . S
Dy200 O208 2.339 1_554 S
Dy200 O210 2.298 . S
Dy200 O214 2.275 . S
Dy200 C222 2.738 . S
Dy201 O204 2.298 . S
Dy201 O207 2.275 . S
Dy201 O209 2.307 . S
Dy201 O211 2.395 . S
Dy201 O212 2.379 . S
Dy201 O215 2.339 . S
Dy201 C231 2.738 . S
C202 O214 1.254 . S
C202 O215 1.257 . S
O203 Dy200 2.307 . S
O203 C213 1.266 . S
O204 Dy201 2.298 . S
O204 C213 1.236 . S
O205 Dy200 2.395 . S
O205 C222 1.255 . S
O206 Dy200 2.379 . S
O206 C222 1.249 . S
O207 Dy201 2.275 . S
O207 C223 1.254 1_554 S
O208 Dy200 2.339 1_556 S
O208 C223 1.257 . S
O209 Dy201 2.307 . S
O209 C224 1.266 . S
O210 Dy200 2.298 . S
O210 C224 1.236 . S
O211 Dy201 2.395 . S
O211 C231 1.255 . S
O212 Dy201 2.379 . S
O212 C231 1.249 . S
C213 O203 1.266 . S
C213 O204 1.236 . S
O214 Dy200 2.275 . S
O214 C202 1.254 . S
O215 Dy201 2.339 . S
O215 C202 1.257 . S
C216 C219 1.344 . S
C216 C220 1.328 . S
C216 C222 1.516 . S
C217 C218 1.304 . S
C217 C221 1.323 . S
C218 C217 1.304 . S
C218 C219 1.371 . S
C218 H232 0.930 . S
C219 C216 1.344 . S
C219 C218 1.371 . S
C219 H233 0.931 . S
C220 C216 1.328 . S
C220 C221 1.433 . S
C220 H234 0.931 . S
C221 C217 1.323 . S
C221 C220 1.433 . S
C221 H235 0.933 . S
C222 Dy200 2.738 . S
C222 O205 1.255 . S
C222 O206 1.249 . S
C222 C216 1.516 . S
C223 O207 1.254 1_556 S
C223 O208 1.257 . S
C224 O209 1.266 . S
C224 O210 1.236 . S
C225 C228 1.344 . S
C225 C229 1.328 . S
C225 C231 1.516 . S
C226 C227 1.304 . S
C226 C230 1.323 . S
C227 C226 1.304 . S
C227 C228 1.371 . S
C227 H236 0.930 1_554 S
C228 C225 1.344 . S
C228 C227 1.371 . S
C228 H237 0.931 1_554 S
C229 C225 1.328 . S
C229 C230 1.433 . S
C229 H238 0.931 . S
C230 C226 1.323 . S
C230 C229 1.433 . S
C230 H239 0.933 . S
C231 Dy201 2.738 . S
C231 O211 1.255 . S
C231 O212 1.249 . S
C231 C225 1.516 . S
H232 C218 0.930 . S
H233 C219 0.931 . S
H234 C220 0.931 . S
H235 C221 0.933 . S
H236 C227 0.930 1_556 S
H237 C228 0.931 1_556 S
H238 C229 0.931 . S
H239 C230 0.933 . S
Dy240 O243 2.307 . S
Dy240 O245 2.395 . S
Dy240 O246 2.379 . S
Dy240 O248 2.339 . S
Dy240 O250 2.298 . S
Dy240 O254 2.275 . S
Dy240 C262 2.738 . S
Dy241 O244 2.298 . S
Dy241 O247 2.275 . S
Dy241 O249 2.307 . S
Dy241 O251 2.395 . S
Dy241 O252 2.379 . S
Dy241 O255 2.339 1_556 S
Dy241 C271 2.738 . S
C242 O254 1.254 1_554 S
C242 O255 1.257 . S
O243 Dy240 2.307 . S
O243 C253 1.266 . S
O244 Dy241 2.298 . S
O244 C253 1.236 . S
O245 Dy240 2.395 . S
O245 C262 1.255 . S
O246 Dy240 2.379 . S
O246 C262 1.249 . S
O247 Dy241 2.275 . S
O247 C263 1.254 . S
O248 Dy240 2.339 . S
O248 C263 1.257 . S
O249 Dy241 2.307 . S
O249 C264 1.266 . S
O250 Dy240 2.298 . S
O250 C264 1.236 . S
O251 Dy241 2.395 . S
O251 C271 1.255 . S
O252 Dy241 2.379 . S
O252 C271 1.249 . S
C253 O243 1.266 . S
C253 O244 1.236 . S
O254 Dy240 2.275 . S
O254 C242 1.254 1_556 S
O255 Dy241 2.339 1_554 S
O255 C242 1.257 . S
C256 C259 1.344 . S
C256 C260 1.328 . S
C256 C262 1.516 . S
C257 C258 1.304 . S
C257 C261 1.323 . S
C258 C257 1.304 . S
C258 C259 1.371 . S
C258 H272 0.930 1_556 S
C259 C256 1.344 . S
C259 C258 1.371 . S
C259 H273 0.931 1_556 S
C260 C256 1.328 . S
C260 C261 1.433 . S
C260 H274 0.931 . S
C261 C257 1.323 . S
C261 C260 1.433 . S
C261 H275 0.933 . S
C262 Dy240 2.738 . S
C262 O245 1.255 . S
C262 O246 1.249 . S
C262 C256 1.516 . S
C263 O247 1.254 . S
C263 O248 1.257 . S
C264 O249 1.266 . S
C264 O250 1.236 . S
C265 C268 1.344 1_565 S
C265 C269 1.328 1_565 S
C265 C271 1.516 . S
C266 C267 1.304 . S
C266 C270 1.323 . S
C267 C266 1.304 . S
C267 C268 1.371 . S
C267 H276 0.930 . S
C268 C265 1.344 1_545 S
C268 C267 1.371 . S
C268 H277 0.931 1_545 S
C269 C265 1.328 1_545 S
C269 C270 1.433 . S
C269 H278 0.931 . S
C270 C266 1.323 . S
C270 C269 1.433 . S
C270 H279 0.933 . S
C271 Dy241 2.738 . S
C271 O251 1.255 . S
C271 O252 1.249 . S
C271 C265 1.516 . S
H272 C258 0.930 1_554 S
H273 C259 0.931 1_554 S
H274 C260 0.931 . S
H275 C261 0.933 . S
H276 C267 0.930 . S
H277 C268 0.931 1_565 S
H278 C269 0.931 . S
H279 C270 0.933 . S
Dy280 O283 2.307 . S
Dy280 O285 2.395 . S
Dy280 O286 2.379 . S
Dy280 O288 2.339 . S
Dy280 O290 2.298 . S
Dy280 O294 2.275 . S
Dy280 C302 2.738 . S
Dy281 O284 2.298 . S
Dy281 O287 2.275 . S
Dy281 O289 2.307 . S
Dy281 O291 2.395 . S
Dy281 O292 2.379 . S
Dy281 O295 2.339 1_556 S
Dy281 C311 2.738 . S
C282 O294 1.254 1_554 S
C282 O295 1.257 . S
O283 Dy280 2.307 . S
O283 C293 1.266 . S
O284 Dy281 2.298 . S
O284 C293 1.236 . S
O285 Dy280 2.395 . S
O285 C302 1.255 . S
O286 Dy280 2.379 . S
O286 C302 1.249 . S
O287 Dy281 2.275 . S
O287 C303 1.254 . S
O288 Dy280 2.339 . S
O288 C303 1.257 . S
O289 Dy281 2.307 . S
O289 C304 1.266 . S
O290 Dy280 2.298 . S
O290 C304 1.236 . S
O291 Dy281 2.395 . S
O291 C311 1.255 . S
O292 Dy281 2.379 . S
O292 C311 1.249 . S
C293 O283 1.266 . S
C293 O284 1.236 . S
O294 Dy280 2.275 . S
O294 C282 1.254 1_556 S
O295 Dy281 2.339 1_554 S
O295 C282 1.257 . S
C296 C299 1.344 . S
C296 C300 1.328 . S
C296 C302 1.516 . S
C297 C298 1.304 . S
C297 C301 1.323 . S
C298 C297 1.304 . S
C298 C299 1.371 . S
C298 H312 0.930 1_556 S
C299 C296 1.344 . S
C299 C298 1.371 . S
C299 H313 0.931 1_556 S
C300 C296 1.328 . S
C300 C301 1.433 . S
C300 H314 0.931 . S
C301 C297 1.323 . S
C301 C300 1.433 . S
C301 H315 0.933 . S
C302 Dy280 2.738 . S
C302 O285 1.255 . S
C302 O286 1.249 . S
C302 C296 1.516 . S
C303 O287 1.254 . S
C303 O288 1.257 . S
C304 O289 1.266 . S
C304 O290 1.236 . S
C305 C308 1.344 . S
C305 C309 1.328 1_455 S
C305 C311 1.516 . S
C306 C307 1.304 . S
C306 C310 1.323 . S
C307 C306 1.304 . S
C307 C308 1.371 1_655 S
C307 H316 0.930 . S
C308 C305 1.344 . S
C308 C307 1.371 1_455 S
C308 H317 0.931 . S
C309 C305 1.328 1_655 S
C309 C310 1.433 . S
C309 H318 0.931 1_655 S
C310 C306 1.323 . S
C310 C309 1.433 . S
C310 H319 0.933 . S
C311 Dy281 2.738 . S
C311 O291 1.255 . S
C311 O292 1.249 . S
C311 C305 1.516 . S
H312 C298 0.930 1_554 S
H313 C299 0.931 1_554 S
H314 C300 0.931 . S
H315 C301 0.933 . S
H316 C307 0.930 . S
H317 C308 0.931 . S
H318 C309 0.931 1_455 S
H319 C310 0.933 . S
Dy320 O323 2.307 . S
Dy320 O325 2.395 . S
Dy320 O326 2.379 . S
Dy320 O328 2.339 . S
Dy320 O330 2.298 . S
Dy320 O334 2.275 . S
Dy320 C342 2.738 . S
Dy321 O324 2.298 . S
Dy321 O327 2.275 . S
Dy321 O329 2.307 . S
Dy321 O331 2.395 . S
Dy321 O332 2.379 . S
Dy321 O335 2.339 1_556 S
Dy321 C351 2.738 . S
C322 O334 1.254 1_554 S
C322 O335 1.257 . S
O323 Dy320 2.307 . S
O323 C333 1.266 . S
O324 Dy321 2.298 . S
O324 C333 1.236 . S
O325 Dy320 2.395 . S
O325 C342 1.255 . S
O326 Dy320 2.379 . S
O326 C342 1.249 . S
O327 Dy321 2.275 . S
O327 C343 1.254 . S
O328 Dy320 2.339 . S
O328 C343 1.257 . S
O329 Dy321 2.307 . S
O329 C344 1.266 . S
O330 Dy320 2.298 . S
O330 C344 1.236 . S
O331 Dy321 2.395 . S
O331 C351 1.255 . S
O332 Dy321 2.379 . S
O332 C351 1.249 . S
C333 O323 1.266 . S
C333 O324 1.236 . S
O334 Dy320 2.275 . S
O334 C322 1.254 1_556 S
O335 Dy321 2.339 1_554 S
O335 C322 1.257 . S
C336 C339 1.344 . S
C336 C340 1.328 . S
C336 C342 1.516 . S
C337 C338 1.304 . S
C337 C341 1.323 . S
C338 C337 1.304 . S
C338 C339 1.371 . S
C338 H352 0.930 1_556 S
C339 C336 1.344 . S
C339 C338 1.371 . S
C339 H353 0.931 1_556 S
C340 C336 1.328 . S
C340 C341 1.433 . S
C340 H354 0.931 . S
C341 C337 1.323 . S
C341 C340 1.433 . S
C341 H355 0.933 . S
C342 Dy320 2.738 . S
C342 O325 1.255 . S
C342 O326 1.249 . S
C342 C336 1.516 . S
C343 O327 1.254 . S
C343 O328 1.257 . S
C344 O329 1.266 . S
C344 O330 1.236 . S
C345 C348 1.344 . S
C345 C349 1.328 . S
C345 C351 1.516 . S
C346 C347 1.304 . S
C346 C350 1.323 . S
C347 C346 1.304 . S
C347 C348 1.371 . S
C347 H356 0.930 . S
C348 C345 1.344 . S
C348 C347 1.371 . S
C348 H357 0.931 . S
C349 C345 1.328 . S
C349 C350 1.433 . S
C349 H358 0.931 . S
C350 C346 1.323 . S
C350 C349 1.433 . S
C350 H359 0.933 . S
C351 Dy321 2.738 . S
C351 O331 1.255 . S
C351 O332 1.249 . S
C351 C345 1.516 . S
H352 C338 0.930 1_554 S
H353 C339 0.931 1_554 S
H354 C340 0.931 . S
H355 C341 0.933 . S
H356 C347 0.930 . S
H357 C348 0.931 . S
H358 C349 0.931 . S
H359 C350 0.933 . S
C26 C293 1.805 . S
C66 C333 1.805 . S
C106 C253 1.804 . S
C186 C93 1.804 . S
C226 C13 1.803 . S
C53 C146 1.804 . S
C306 C213 1.805 . S
C346 C133 1.803 . S
C173 C266 1.805 . S
C97 C24 1.785 1_554 S
C64 C17 1.787 1_556 S
C57 C104 1.787 1_554 S
C144 C217 1.786 . S
C137 C184 1.787 . S
C177 C224 1.786 . S
C337 C264 1.786 . S
C304 C257 1.786 . S
C344 C297 1.788 . S
C23 C2 1.163 1_655 S
C63 C42 1.163 . S
C103 C82 1.163 1_545 S
C122 C143 1.163 . S
C162 C183 1.163 . S
C202 C223 1.163 . S
C263 C242 1.163 . S
C282 C303 1.163 . S
C343 C322 1.163 . S
