# Generated by pormake.
# Topology bva, (3)-cn, num edge types: 1
# Building blocks:
#     Node 0, Type 0, BuildingBlock: OLANEW_clean_sbu_2, # of connection points: 3
#     Node 1, Type 0, BuildingBlock: OLANEW_clean_sbu_2, # of connection points: 3
#     Node 2, Type 0, BuildingBlock: OLANEW_clean_sbu_2, # of connection points: 3
#     Node 3, Type 0, BuildingBlock: OLANEW_clean_sbu_2, # of connection points: 3
#     Node 4, Type 0, BuildingBlock: OLANEW_clean_sbu_2, # of connection points: 3
#     Node 5, Type 0, BuildingBlock: OLANEW_clean_sbu_2, # of connection points: 3
#     Node 6, Type 0, BuildingBlock: OLANEW_clean_sbu_2, # of connection points: 3
#     Node 7, Type 0, BuildingBlock: OLANEW_clean_sbu_2, # of connection points: 3
#     Node 8, Type 0, BuildingBlock: OLANEW_clean_sbu_2, # of connection points: 3
#     Node 9, Type 0, BuildingBlock: OLANEW_clean_sbu_2, # of connection points: 3
#     Node 10, Type 0, BuildingBlock: OLANEW_clean_sbu_2, # of connection points: 3
#     Node 11, Type 0, BuildingBlock: OLANEW_clean_sbu_2, # of connection points: 3
#     Node 12, Type 0, BuildingBlock: OLANEW_clean_sbu_2, # of connection points: 3
#     Node 13, Type 0, BuildingBlock: OLANEW_clean_sbu_2, # of connection points: 3
#     Node 14, Type 0, BuildingBlock: OLANEW_clean_sbu_2, # of connection points: 3
#     Node 15, Type 0, BuildingBlock: OLANEW_clean_sbu_2, # of connection points: 3
#     Node 16, Type 0, BuildingBlock: OLANEW_clean_sbu_2, # of connection points: 3
#     Node 17, Type 0, BuildingBlock: OLANEW_clean_sbu_2, # of connection points: 3
#     Node 18, Type 0, BuildingBlock: OLANEW_clean_sbu_2, # of connection points: 3
#     Node 19, Type 0, BuildingBlock: OLANEW_clean_sbu_2, # of connection points: 3
#     Node 20, Type 0, BuildingBlock: OLANEW_clean_sbu_2, # of connection points: 3
#     Node 21, Type 0, BuildingBlock: OLANEW_clean_sbu_2, # of connection points: 3
#     Node 22, Type 0, BuildingBlock: OLANEW_clean_sbu_2, # of connection points: 3
#     Node 23, Type 0, BuildingBlock: OLANEW_clean_sbu_2, # of connection points: 3
#     Node 24, Type 0, BuildingBlock: OLANEW_clean_sbu_2, # of connection points: 3
#     Node 25, Type 0, BuildingBlock: OLANEW_clean_sbu_2, # of connection points: 3
#     Node 26, Type 0, BuildingBlock: OLANEW_clean_sbu_2, # of connection points: 3
#     Node 27, Type 0, BuildingBlock: OLANEW_clean_sbu_2, # of connection points: 3
#     Node 28, Type 0, BuildingBlock: OLANEW_clean_sbu_2, # of connection points: 3
#     Node 29, Type 0, BuildingBlock: OLANEW_clean_sbu_2, # of connection points: 3
#     Node 30, Type 0, BuildingBlock: OLANEW_clean_sbu_2, # of connection points: 3
#     Node 31, Type 0, BuildingBlock: OLANEW_clean_sbu_2, # of connection points: 3
#     Node 32, Type 0, BuildingBlock: OLANEW_clean_sbu_2, # of connection points: 3
#     Node 33, Type 0, BuildingBlock: OLANEW_clean_sbu_2, # of connection points: 3
#     Node 34, Type 0, BuildingBlock: OLANEW_clean_sbu_2, # of connection points: 3
#     Node 35, Type 0, BuildingBlock: OLANEW_clean_sbu_2, # of connection points: 3
#     Node 36, Type 0, BuildingBlock: OLANEW_clean_sbu_2, # of connection points: 3
#     Node 37, Type 0, BuildingBlock: OLANEW_clean_sbu_2, # of connection points: 3
#     Node 38, Type 0, BuildingBlock: OLANEW_clean_sbu_2, # of connection points: 3
#     Node 39, Type 0, BuildingBlock: OLANEW_clean_sbu_2, # of connection points: 3
#     Node 40, Type 0, BuildingBlock: OLANEW_clean_sbu_2, # of connection points: 3
#     Node 41, Type 0, BuildingBlock: OLANEW_clean_sbu_2, # of connection points: 3
#     Node 42, Type 0, BuildingBlock: OLANEW_clean_sbu_2, # of connection points: 3
#     Node 43, Type 0, BuildingBlock: OLANEW_clean_sbu_2, # of connection points: 3
#     Node 44, Type 0, BuildingBlock: OLANEW_clean_sbu_2, # of connection points: 3
#     Node 45, Type 0, BuildingBlock: OLANEW_clean_sbu_2, # of connection points: 3
#     Node 46, Type 0, BuildingBlock: OLANEW_clean_sbu_2, # of connection points: 3
#     Node 47, Type 0, BuildingBlock: OLANEW_clean_sbu_2, # of connection points: 3
#     Edge 48, Type (0, 0), BuildingBlock: MIFKUJ_clean_linker_0, # of connection points: 2
#     Edge 49, Type (0, 0), BuildingBlock: MIFKUJ_clean_linker_0, # of connection points: 2
#     Edge 50, Type (0, 0), BuildingBlock: MIFKUJ_clean_linker_0, # of connection points: 2
#     Edge 51, Type (0, 0), BuildingBlock: MIFKUJ_clean_linker_0, # of connection points: 2
#     Edge 52, Type (0, 0), BuildingBlock: MIFKUJ_clean_linker_0, # of connection points: 2
#     Edge 53, Type (0, 0), BuildingBlock: MIFKUJ_clean_linker_0, # of connection points: 2
#     Edge 54, Type (0, 0), BuildingBlock: MIFKUJ_clean_linker_0, # of connection points: 2
#     Edge 55, Type (0, 0), BuildingBlock: MIFKUJ_clean_linker_0, # of connection points: 2
#     Edge 56, Type (0, 0), BuildingBlock: MIFKUJ_clean_linker_0, # of connection points: 2
#     Edge 57, Type (0, 0), BuildingBlock: MIFKUJ_clean_linker_0, # of connection points: 2
#     Edge 58, Type (0, 0), BuildingBlock: MIFKUJ_clean_linker_0, # of connection points: 2
#     Edge 59, Type (0, 0), BuildingBlock: MIFKUJ_clean_linker_0, # of connection points: 2
#     Edge 60, Type (0, 0), BuildingBlock: MIFKUJ_clean_linker_0, # of connection points: 2
#     Edge 61, Type (0, 0), BuildingBlock: MIFKUJ_clean_linker_0, # of connection points: 2
#     Edge 62, Type (0, 0), BuildingBlock: MIFKUJ_clean_linker_0, # of connection points: 2
#     Edge 63, Type (0, 0), BuildingBlock: MIFKUJ_clean_linker_0, # of connection points: 2
#     Edge 64, Type (0, 0), BuildingBlock: MIFKUJ_clean_linker_0, # of connection points: 2
#     Edge 65, Type (0, 0), BuildingBlock: MIFKUJ_clean_linker_0, # of connection points: 2
#     Edge 66, Type (0, 0), BuildingBlock: MIFKUJ_clean_linker_0, # of connection points: 2
#     Edge 67, Type (0, 0), BuildingBlock: MIFKUJ_clean_linker_0, # of connection points: 2
#     Edge 68, Type (0, 0), BuildingBlock: MIFKUJ_clean_linker_0, # of connection points: 2
#     Edge 69, Type (0, 0), BuildingBlock: MIFKUJ_clean_linker_0, # of connection points: 2
#     Edge 70, Type (0, 0), BuildingBlock: MIFKUJ_clean_linker_0, # of connection points: 2
#     Edge 71, Type (0, 0), BuildingBlock: MIFKUJ_clean_linker_0, # of connection points: 2
#     Edge 72, Type (0, 0), BuildingBlock: MIFKUJ_clean_linker_0, # of connection points: 2
#     Edge 73, Type (0, 0), BuildingBlock: MIFKUJ_clean_linker_0, # of connection points: 2
#     Edge 74, Type (0, 0), BuildingBlock: MIFKUJ_clean_linker_0, # of connection points: 2
#     Edge 75, Type (0, 0), BuildingBlock: MIFKUJ_clean_linker_0, # of connection points: 2
#     Edge 76, Type (0, 0), BuildingBlock: MIFKUJ_clean_linker_0, # of connection points: 2
#     Edge 77, Type (0, 0), BuildingBlock: MIFKUJ_clean_linker_0, # of connection points: 2
#     Edge 78, Type (0, 0), BuildingBlock: MIFKUJ_clean_linker_0, # of connection points: 2
#     Edge 79, Type (0, 0), BuildingBlock: MIFKUJ_clean_linker_0, # of connection points: 2
#     Edge 80, Type (0, 0), BuildingBlock: MIFKUJ_clean_linker_0, # of connection points: 2
#     Edge 81, Type (0, 0), BuildingBlock: MIFKUJ_clean_linker_0, # of connection points: 2
#     Edge 82, Type (0, 0), BuildingBlock: MIFKUJ_clean_linker_0, # of connection points: 2
#     Edge 83, Type (0, 0), BuildingBlock: MIFKUJ_clean_linker_0, # of connection points: 2
#     Edge 84, Type (0, 0), BuildingBlock: MIFKUJ_clean_linker_0, # of connection points: 2
#     Edge 85, Type (0, 0), BuildingBlock: MIFKUJ_clean_linker_0, # of connection points: 2
#     Edge 86, Type (0, 0), BuildingBlock: MIFKUJ_clean_linker_0, # of connection points: 2
#     Edge 87, Type (0, 0), BuildingBlock: MIFKUJ_clean_linker_0, # of connection points: 2
#     Edge 88, Type (0, 0), BuildingBlock: MIFKUJ_clean_linker_0, # of connection points: 2
#     Edge 89, Type (0, 0), BuildingBlock: MIFKUJ_clean_linker_0, # of connection points: 2
#     Edge 90, Type (0, 0), BuildingBlock: MIFKUJ_clean_linker_0, # of connection points: 2
#     Edge 91, Type (0, 0), BuildingBlock: MIFKUJ_clean_linker_0, # of connection points: 2
#     Edge 92, Type (0, 0), BuildingBlock: MIFKUJ_clean_linker_0, # of connection points: 2
#     Edge 93, Type (0, 0), BuildingBlock: MIFKUJ_clean_linker_0, # of connection points: 2
#     Edge 94, Type (0, 0), BuildingBlock: MIFKUJ_clean_linker_0, # of connection points: 2
#     Edge 95, Type (0, 0), BuildingBlock: MIFKUJ_clean_linker_0, # of connection points: 2
#     Edge 96, Type (0, 0), BuildingBlock: MIFKUJ_clean_linker_0, # of connection points: 2
#     Edge 97, Type (0, 0), BuildingBlock: MIFKUJ_clean_linker_0, # of connection points: 2
#     Edge 98, Type (0, 0), BuildingBlock: MIFKUJ_clean_linker_0, # of connection points: 2
#     Edge 99, Type (0, 0), BuildingBlock: MIFKUJ_clean_linker_0, # of connection points: 2
#     Edge 100, Type (0, 0), BuildingBlock: MIFKUJ_clean_linker_0, # of connection points: 2
#     Edge 101, Type (0, 0), BuildingBlock: MIFKUJ_clean_linker_0, # of connection points: 2
#     Edge 102, Type (0, 0), BuildingBlock: MIFKUJ_clean_linker_0, # of connection points: 2
#     Edge 103, Type (0, 0), BuildingBlock: MIFKUJ_clean_linker_0, # of connection points: 2
#     Edge 104, Type (0, 0), BuildingBlock: MIFKUJ_clean_linker_0, # of connection points: 2
#     Edge 105, Type (0, 0), BuildingBlock: MIFKUJ_clean_linker_0, # of connection points: 2
#     Edge 106, Type (0, 0), BuildingBlock: MIFKUJ_clean_linker_0, # of connection points: 2
#     Edge 107, Type (0, 0), BuildingBlock: MIFKUJ_clean_linker_0, # of connection points: 2
#     Edge 108, Type (0, 0), BuildingBlock: MIFKUJ_clean_linker_0, # of connection points: 2
#     Edge 109, Type (0, 0), BuildingBlock: MIFKUJ_clean_linker_0, # of connection points: 2
#     Edge 110, Type (0, 0), BuildingBlock: MIFKUJ_clean_linker_0, # of connection points: 2
#     Edge 111, Type (0, 0), BuildingBlock: MIFKUJ_clean_linker_0, # of connection points: 2
#     Edge 112, Type (0, 0), BuildingBlock: MIFKUJ_clean_linker_0, # of connection points: 2
#     Edge 113, Type (0, 0), BuildingBlock: MIFKUJ_clean_linker_0, # of connection points: 2
#     Edge 114, Type (0, 0), BuildingBlock: MIFKUJ_clean_linker_0, # of connection points: 2
#     Edge 115, Type (0, 0), BuildingBlock: MIFKUJ_clean_linker_0, # of connection points: 2
#     Edge 116, Type (0, 0), BuildingBlock: MIFKUJ_clean_linker_0, # of connection points: 2
#     Edge 117, Type (0, 0), BuildingBlock: MIFKUJ_clean_linker_0, # of connection points: 2
#     Edge 118, Type (0, 0), BuildingBlock: MIFKUJ_clean_linker_0, # of connection points: 2
#     Edge 119, Type (0, 0), BuildingBlock: MIFKUJ_clean_linker_0, # of connection points: 2
# Relax obj value: 0.055
# Max RMSD: 0.078
# Mean RMSD: 0.039
data_MOF--net-bva--node1-OLANEW_clean_sbu_2--edge1-MIFKUJ_clean_linker_0
_symmetry_space_group_name_H-M    P1
_symmetry_Int_Tables_number       1
_symmetry_cell_setting            triclinic
loop_
_symmetry_equiv_pos_as_xyz
'x, y, z'
_cell_length_a     78.462071
_cell_length_b     79.648461
_cell_length_c     79.565774
_cell_angle_alpha  104.11583
_cell_angle_beta   89.887374
_cell_angle_gamma 90.082605
loop_
_atom_site_label
_atom_site_type_symbol
_atom_site_fract_x
_atom_site_fract_y
_atom_site_fract_z
_atom_type_partial_charge
O0 O 0.22751 0.19892 0.48843 0.0
Cd1 Cd 0.23661 0.16938 0.47487 0.0
O2 O 0.20012 0.1933 0.48989 0.0
Cd3 Cd 0.20087 0.16607 0.47574 0.0
O4 O 0.1872 0.14528 0.45768 0.0
C5 C 0.17195 0.14247 0.46172 0.0
O6 O 0.16598 0.15117 0.47677 0.0
C7 C 0.21245 0.204 0.49289 0.0
C8 C 0.27132 0.16958 0.46688 0.0
O9 O 0.25992 0.17176 0.45609 0.0
O10 O 0.26631 0.16697 0.48138 0.0
O11 O 0.28926 0.47544 0.77313 0.0
Cd12 Cd 0.31964 0.47379 0.77921 0.0
O13 O 0.29353 0.48189 0.7481 0.0
Cd14 Cd 0.3202 0.48907 0.75344 0.0
O15 O 0.33801 0.51085 0.75777 0.0
C16 C 0.33081 0.52539 0.75899 0.0
O17 O 0.31411 0.52582 0.75783 0.0
C18 C 0.28342 0.47795 0.75905 0.0
C19 C 0.32535 0.44494 0.79253 0.0
O20 O 0.32291 0.45996 0.80261 0.0
O21 O 0.32543 0.44363 0.77615 0.0
O22 O 0.77065 0.93054 0.52957 0.0
Cd23 Cd 0.77034 0.96068 0.52754 0.0
O24 O 0.74348 0.92725 0.5232 0.0
Cd25 Cd 0.71998 0.91242 0.51566 0.0
O26 O 0.69687 0.89697 0.50848 0.0
C27 C 0.68239 0.9033 0.5137 0.0
O28 O 0.68157 0.91918 0.52345 0.0
C29 C 0.75752 0.92091 0.52677 0.0
C30 C 0.79943 0.96705 0.50982 0.0
O31 O 0.79942 0.96949 0.52635 0.0
O32 O 0.78556 0.96192 0.50169 0.0
O33 O 0.59507 0.47537 0.77927 0.0
Cd34 Cd 0.56445 0.48086 0.77872 0.0
O35 O 0.59467 0.44901 0.76224 0.0
Cd36 Cd 0.56711 0.44508 0.76071 0.0
O37 O 0.54843 0.42433 0.75914 0.0
C38 C 0.55366 0.41216 0.7656 0.0
O39 O 0.56881 0.41359 0.77282 0.0
C40 C 0.60294 0.46191 0.77105 0.0
C41 C 0.55875 0.51625 0.79219 0.0
O42 O 0.55788 0.50558 0.8019 0.0
O43 O 0.56194 0.51013 0.77606 0.0
O44 O 0.2255 0.7815 0.49511 0.0
Cd45 Cd 0.23654 0.81069 0.50716 0.0
O46 O 0.19868 0.78963 0.49882 0.0
Cd47 Cd 0.2031 0.81622 0.51351 0.0
O48 O 0.19227 0.83575 0.53503 0.0
C49 C 0.17766 0.84168 0.53272 0.0
O50 O 0.17071 0.83699 0.51726 0.0
C51 C 0.20971 0.77788 0.49338 0.0
C52 C 0.2713 0.80985 0.5144 0.0
O53 O 0.26004 0.80905 0.52587 0.0
O54 O 0.26613 0.81118 0.49951 0.0
O55 O 0.59616 0.52949 0.20124 0.0
Cd56 Cd 0.5657 0.52276 0.19938 0.0
O57 O 0.59719 0.53642 0.22972 0.0
Cd58 Cd 0.56967 0.54044 0.23141 0.0
O59 O 0.55053 0.56066 0.23281 0.0
C60 C 0.55284 0.57023 0.22235 0.0
O61 O 0.56546 0.56654 0.21117 0.0
C62 C 0.6048 0.53337 0.21516 0.0
C63 C 0.56216 0.4869 0.1874 0.0
O64 O 0.56345 0.49667 0.17682 0.0
O65 O 0.56208 0.49412 0.20366 0.0
O66 O 0.77927 0.05201 0.45749 0.0
Cd67 Cd 0.78447 0.02169 0.45725 0.0
O68 O 0.75679 0.05216 0.47394 0.0
Cd69 Cd 0.73378 0.06403 0.48734 0.0
O70 O 0.7118 0.07928 0.49906 0.0
C71 C 0.69705 0.07512 0.49289 0.0
O72 O 0.69541 0.06157 0.47972 0.0
C73 C 0.76681 0.06013 0.46595 0.0
C74 C 0.81101 0.01897 0.47969 0.0
O75 O 0.81393 0.01863 0.46375 0.0
O76 O 0.79551 0.02041 0.48495 0.0
O77 O 0.27613 0.51758 0.23842 0.0
Cd78 Cd 0.306 0.52206 0.23176 0.0
O79 O 0.28168 0.49576 0.25003 0.0
Cd80 Cd 0.30875 0.49277 0.24361 0.0
O81 O 0.32908 0.47342 0.2383 0.0
C82 C 0.32601 0.4602 0.24411 0.0
O83 O 0.31182 0.45983 0.25282 0.0
C84 C 0.27106 0.50624 0.24613 0.0
C85 C 0.30927 0.54888 0.21494 0.0
O86 O 0.30796 0.53309 0.20631 0.0
O87 O 0.30913 0.55198 0.23152 0.0
O88 O 0.44215 0.25988 0.21866 0.0
Cd89 Cd 0.42847 0.26487 0.19276 0.0
O90 O 0.42723 0.23613 0.21719 0.0
Cd91 Cd 0.41399 0.23386 0.19263 0.0
O92 O 0.39947 0.21391 0.17459 0.0
C93 C 0.38378 0.21185 0.17757 0.0
O94 O 0.37633 0.22297 0.19041 0.0
C95 C 0.43809 0.24719 0.22493 0.0
C96 C 0.41405 0.29788 0.20007 0.0
O97 O 0.40576 0.28488 0.20271 0.0
O98 O 0.42912 0.29525 0.19375 0.0
O99 O 0.50571 0.78434 0.59061 0.0
Cd100 Cd 0.50931 0.79596 0.56504 0.0
O101 O 0.48753 0.76413 0.57802 0.0
Cd102 Cd 0.48171 0.77552 0.55638 0.0
O103 O 0.45861 0.78419 0.54569 0.0
C104 C 0.44643 0.7875 0.55656 0.0
O105 O 0.4492 0.7861 0.57245 0.0
C106 C 0.49683 0.77105 0.59092 0.0
C107 C 0.53742 0.81817 0.5697 0.0
O108 O 0.53926 0.8018 0.56388 0.0
O109 O 0.52227 0.82408 0.57303 0.0
O110 O 0.4446 0.81707 0.22337 0.0
Cd111 Cd 0.44015 0.8156 0.1926 0.0
O112 O 0.45334 0.79018 0.21578 0.0
Cd113 Cd 0.46478 0.76663 0.22035 0.0
O114 O 0.47687 0.74249 0.22224 0.0
C115 C 0.47286 0.73485 0.23397 0.0
O116 O 0.46123 0.74176 0.24548 0.0
C117 C 0.45009 0.80369 0.22763 0.0
C118 C 0.46128 0.83816 0.18026 0.0
O119 O 0.44643 0.8429 0.18633 0.0
O120 O 0.46616 0.82277 0.18009 0.0
O121 O 0.50752 0.19318 0.59466 0.0
Cd122 Cd 0.51761 0.19417 0.56582 0.0
O123 O 0.49086 0.17106 0.58367 0.0
Cd124 Cd 0.47024 0.15323 0.58608 0.0
O125 O 0.44682 0.1386 0.58716 0.0
C126 C 0.44469 0.12365 0.57717 0.0
O127 O 0.45693 0.1169 0.56634 0.0
C128 C 0.49664 0.18205 0.59679 0.0
C129 C 0.54722 0.17492 0.55576 0.0
O130 O 0.54798 0.19068 0.56457 0.0
O131 O 0.53245 0.16821 0.55184 0.0
O132 O 0.44644 0.72274 0.75431 0.0
Cd133 Cd 0.43333 0.72032 0.78156 0.0
O134 O 0.4602 0.74672 0.76637 0.0
Cd135 Cd 0.4458 0.75093 0.79053 0.0
O136 O 0.42577 0.76594 0.80648 0.0
C137 C 0.42892 0.78171 0.81366 0.0
O138 O 0.44434 0.78771 0.81232 0.0
C139 C 0.457 0.73453 0.75313 0.0
C140 C 0.41798 0.68804 0.77826 0.0
O141 O 0.43379 0.69036 0.78218 0.0
O142 O 0.40943 0.701 0.77596 0.0
O143 O 0.49164 0.7934 0.40864 0.0
Cd144 Cd 0.49901 0.79246 0.43823 0.0
O145 O 0.47982 0.81877 0.41875 0.0
Cd146 Cd 0.46391 0.84068 0.41672 0.0
O147 O 0.4443 0.85998 0.41642 0.0
C148 C 0.42907 0.85474 0.41327 0.0
O149 O 0.42589 0.83806 0.41014 0.0
C150 C 0.48367 0.80636 0.40593 0.0
C151 C 0.52886 0.81054 0.45004 0.0
O152 O 0.52927 0.79451 0.44196 0.0
O153 O 0.51431 0.81806 0.45243 0.0
O154 O 0.44546 0.17 0.77602 0.0
Cd155 Cd 0.43993 0.17051 0.80642 0.0
O156 O 0.45256 0.19737 0.78446 0.0
Cd157 Cd 0.46332 0.22143 0.78045 0.0
O158 O 0.47484 0.245 0.77628 0.0
C159 C 0.46842 0.253 0.76581 0.0
O160 O 0.45458 0.24684 0.7572 0.0
C161 C 0.45052 0.18382 0.77229 0.0
C162 C 0.46219 0.14894 0.81868 0.0
O163 O 0.44767 0.1434 0.81229 0.0
O164 O 0.46616 0.16469 0.8193 0.0
O165 O 0.5015 0.21652 0.39408 0.0
Cd166 Cd 0.50755 0.2066 0.42016 0.0
O167 O 0.4848 0.19413 0.38402 0.0
Cd168 Cd 0.48107 0.18694 0.40854 0.0
O169 O 0.45819 0.18334 0.42303 0.0
C170 C 0.44465 0.18639 0.41554 0.0
O171 O 0.44606 0.19113 0.40089 0.0
C172 C 0.49258 0.20746 0.38185 0.0
C173 C 0.53428 0.18281 0.41297 0.0
O174 O 0.51873 0.17779 0.41098 0.0
O175 O 0.53717 0.19904 0.41871 0.0
O176 O 0.08574 0.46692 0.24308 0.0
Cd177 Cd 0.05791 0.45279 0.23837 0.0
O178 O 0.08751 0.45745 0.26662 0.0
Cd179 Cd 0.09883 0.45396 0.29065 0.0
O180 O 0.10649 0.44919 0.31544 0.0
C181 C 0.12073 0.45438 0.32241 0.0
O182 O 0.13119 0.46279 0.31446 0.0
C183 C 0.09427 0.46532 0.25615 0.0
C184 C 0.05687 0.43021 0.20556 0.0
O185 O 0.05031 0.44537 0.20827 0.0
O186 O 0.06369 0.42566 0.21838 0.0
O187 O 0.10404 0.53023 0.73935 0.0
Cd188 Cd 0.07917 0.54764 0.73631 0.0
O189 O 0.11276 0.52637 0.71235 0.0
Cd190 Cd 0.09298 0.54051 0.70234 0.0
O191 O 0.09078 0.54754 0.67756 0.0
C192 C 0.10214 0.54013 0.66691 0.0
O193 O 0.11283 0.52957 0.67184 0.0
C194 C 0.1147 0.52396 0.72744 0.0
C195 C 0.07281 0.57057 0.76829 0.0
O196 O 0.06627 0.55536 0.76445 0.0
O197 O 0.08204 0.5751 0.75683 0.0
O198 O 0.78387 0.72918 0.49967 0.0
Cd199 Cd 0.78807 0.69798 0.49487 0.0
O200 O 0.75607 0.72793 0.50264 0.0
Cd201 Cd 0.75594 0.70022 0.49044 0.0
O202 O 0.75513 0.67986 0.46641 0.0
C203 C 0.75094 0.68516 0.45316 0.0
O204 O 0.74731 0.70164 0.45521 0.0
C205 C 0.76965 0.73682 0.50347 0.0
C206 C 0.80668 0.69247 0.52289 0.0
O207 O 0.81418 0.69419 0.50908 0.0
O208 O 0.79035 0.69284 0.52324 0.0
O209 O 0.78669 0.43629 0.8089 0.0
Cd210 Cd 0.81532 0.42673 0.81415 0.0
O211 O 0.78939 0.42195 0.78179 0.0
Cd212 Cd 0.7813 0.41324 0.75472 0.0
O213 O 0.77376 0.40315 0.72772 0.0
C214 C 0.7827 0.40648 0.71559 0.0
O215 O 0.79635 0.41621 0.71958 0.0
C216 C 0.78037 0.43127 0.79382 0.0
C217 C 0.81388 0.4008 0.83219 0.0
O218 O 0.81538 0.41676 0.84024 0.0
O219 O 0.81319 0.39709 0.8156 0.0
O220 O 0.17319 0.39179 0.52261 0.0
Cd221 Cd 0.1633 0.42107 0.52348 0.0
O222 O 0.15329 0.38962 0.54131 0.0
Cd223 Cd 0.13931 0.37763 0.55921 0.0
O224 O 0.12386 0.36902 0.57843 0.0
C225 C 0.11484 0.38009 0.58894 0.0
O226 O 0.11514 0.3963 0.5879 0.0
C227 C 0.16568 0.38289 0.53166 0.0
C228 C 0.1577 0.42583 0.49032 0.0
O229 O 0.17215 0.42948 0.49784 0.0
O230 O 0.14593 0.41993 0.49849 0.0
O231 O 0.78743 0.5719 0.18466 0.0
Cd232 Cd 0.81579 0.58282 0.18017 0.0
O233 O 0.78934 0.58453 0.21231 0.0
Cd234 Cd 0.78002 0.5939 0.23892 0.0
O235 O 0.77191 0.60358 0.2658 0.0
C236 C 0.7723 0.59386 0.27632 0.0
O237 O 0.77745 0.57777 0.27074 0.0
C238 C 0.78089 0.57535 0.19974 0.0
C239 C 0.81527 0.60391 0.15682 0.0
O240 O 0.81753 0.58752 0.15159 0.0
O241 O 0.81325 0.61032 0.17311 0.0
O242 O 0.7626 0.25115 0.47592 0.0
Cd243 Cd 0.76653 0.28234 0.48021 0.0
O244 O 0.75195 0.25232 0.50179 0.0
Cd245 Cd 0.75447 0.28031 0.51166 0.0
O246 O 0.75731 0.30376 0.53247 0.0
C247 C 0.74658 0.30603 0.54481 0.0
O248 O 0.73407 0.29484 0.54383 0.0
C249 C 0.75646 0.24354 0.48688 0.0
C250 C 0.78875 0.28809 0.45476 0.0
O251 O 0.79431 0.28705 0.46961 0.0
O252 O 0.77264 0.28682 0.45211 0.0
O253 O 0.15778 0.59297 0.46399 0.0
Cd254 Cd 0.14545 0.56463 0.46323 0.0
O255 O 0.13472 0.59793 0.45058 0.0
Cd256 Cd 0.11822 0.61235 0.43699 0.0
O257 O 0.10076 0.62215 0.42033 0.0
C258 C 0.10651 0.62768 0.40774 0.0
O259 O 0.12306 0.62786 0.40527 0.0
C260 C 0.14898 0.60317 0.45749 0.0
C261 C 0.13622 0.56222 0.49641 0.0
O262 O 0.15079 0.55689 0.48996 0.0
O263 O 0.12594 0.5686 0.48712 0.0
O264 O 0.03008 0.87205 0.71078 0.0
Cd265 Cd 0.04488 0.89815 0.70752 0.0
O266 O 0.00933 0.87812 0.6949 0.0
Cd267 Cd 0.98365 0.87638 0.68398 0.0
O268 O 0.95868 0.88389 0.67618 0.0
C269 C 0.95632 0.90002 0.67799 0.0
O270 O 0.96881 0.91076 0.68414 0.0
C271 C 0.01556 0.86835 0.70379 0.0
C272 C 0.06685 0.89216 0.6791 0.0
O273 O 0.07211 0.89102 0.69402 0.0
O274 O 0.05116 0.89602 0.6776 0.0
O275 O 0.61638 0.26811 0.08993 0.0
Cd276 Cd 0.59175 0.26886 0.10899 0.0
O277 O 0.60848 0.24456 0.07069 0.0
Cd278 Cd 0.58841 0.23708 0.08646 0.0
O279 O 0.58024 0.21474 0.09589 0.0
C280 C 0.58837 0.20096 0.08907 0.0
O281 O 0.60009 0.20152 0.07739 0.0
C282 C 0.61871 0.2572 0.07552 0.0
C283 C 0.58303 0.30325 0.12417 0.0
O284 O 0.59389 0.29516 0.13128 0.0
O285 O 0.57606 0.295 0.10999 0.0
O286 O 0.98985 0.08764 0.62296 0.0
Cd287 Cd 0.99266 0.0581 0.60504 0.0
O288 O 0.97345 0.08017 0.6424 0.0
Cd289 Cd 0.97014 0.05411 0.62607 0.0
O290 O 0.95592 0.03777 0.60474 0.0
C291 C 0.94051 0.03449 0.6077 0.0
O292 O 0.93461 0.03975 0.62358 0.0
C293 C 0.98171 0.09172 0.63723 0.0
C294 C 0.02659 0.0475 0.60366 0.0
O295 O 0.02039 0.05428 0.59195 0.0
O296 O 0.01669 0.04559 0.61589 0.0
O297 O 0.28146 0.70052 0.08502 0.0
Cd298 Cd 0.30759 0.70697 0.1021 0.0
O299 O 0.28964 0.7126 0.06423 0.0
Cd300 Cd 0.31112 0.72619 0.07884 0.0
O301 O 0.32043 0.7522 0.09081 0.0
C302 C 0.32232 0.76246 0.08096 0.0
O303 O 0.31992 0.75652 0.06422 0.0
C304 C 0.27881 0.70381 0.07038 0.0
C305 C 0.31147 0.683 0.12229 0.0
O306 O 0.3171 0.67984 0.1067 0.0
O307 O 0.30425 0.69764 0.12846 0.0
O308 O 0.02737 0.11342 0.28737 0.0
Cd309 Cd 0.03784 0.08567 0.29146 0.0
O310 O 0.00489 0.1094 0.30217 0.0
Cd311 Cd 0.97866 0.11317 0.3116 0.0
O312 O 0.95269 0.10677 0.3177 0.0
C313 C 0.94704 0.09232 0.30895 0.0
O314 O 0.95686 0.08276 0.29697 0.0
C315 C 0.01282 0.11851 0.2936 0.0
C316 C 0.05886 0.08839 0.32025 0.0
O317 O 0.06515 0.08807 0.30529 0.0
O318 O 0.04262 0.08762 0.32163 0.0
O319 O 0.28884 0.27261 0.89496 0.0
Cd320 Cd 0.31527 0.26761 0.87813 0.0
O321 O 0.29987 0.26602 0.91791 0.0
Cd322 Cd 0.32136 0.25293 0.90283 0.0
O323 O 0.32768 0.22618 0.89001 0.0
C324 C 0.32316 0.21545 0.89866 0.0
O325 O 0.31654 0.22147 0.91415 0.0
C326 C 0.28748 0.27174 0.91066 0.0
C327 C 0.32115 0.29525 0.863 0.0
O328 O 0.32624 0.29577 0.87841 0.0
O329 O 0.3135 0.28153 0.85461 0.0
O330 O 0.00383 0.92055 0.36298 0.0
Cd331 Cd 0.00178 0.95153 0.37707 0.0
O332 O 0.99196 0.91273 0.38498 0.0
Cd333 Cd 0.98558 0.93874 0.39998 0.0
O334 O 0.96625 0.95455 0.41627 0.0
C335 C 0.95152 0.95447 0.40964 0.0
O336 O 0.94934 0.94619 0.39335 0.0
C337 C -0.00114 0.9087 0.37006 0.0
C338 C 0.03371 0.96744 0.38322 0.0
O339 O 0.02651 0.96079 0.39455 0.0
O340 O 0.02581 0.96657 0.36894 0.0
O341 O 0.59678 0.72912 0.91275 0.0
Cd342 Cd 0.57164 0.73088 0.89517 0.0
O343 O 0.59128 0.75223 0.93365 0.0
Cd344 Cd 0.572 0.76227 0.91894 0.0
O345 O 0.56577 0.78441 0.90837 0.0
C346 C 0.57481 0.79777 0.91447 0.0
O347 O 0.58625 0.79707 0.92633 0.0
C348 C 0.60032 0.7389 0.9275 0.0
C349 C 0.56409 0.69752 0.87562 0.0
O350 O 0.57337 0.7078 0.86939 0.0
O351 O 0.55803 0.70316 0.89093 0.0
O352 O 0.60682 0.97327 0.81147 0.0
Cd353 Cd 0.58435 0.9783 0.83354 0.0
O354 O 0.62599 0.98909 0.82839 0.0
Cd355 Cd 0.60653 -0.00019 0.84761 0.0
O356 O 0.58504 0.0176 0.85416 0.0
C357 C 0.58806 0.03361 0.85589 0.0
O358 O 0.60392 0.03865 0.855 0.0
C359 C 0.622 0.97898 0.81394 0.0
C360 C 0.57974 0.94963 0.84742 0.0
O361 O 0.57118 0.95128 0.83422 0.0
O362 O 0.59044 0.96157 0.85409 0.0
O363 O 0.73688 0.00442 0.31775 0.0
Cd364 Cd 0.75527 0.00205 0.34177 0.0
O365 O 0.72295 0.02565 0.33492 0.0
Cd366 Cd 0.70445 0.04677 0.34184 0.0
O367 O 0.68463 0.06612 0.35077 0.0
C368 C 0.66922 0.06125 0.35109 0.0
O369 O 0.66563 0.04468 0.34577 0.0
C370 C 0.7251 0.01567 0.31994 0.0
C371 C 0.78664 0.01756 0.33899 0.0
O372 O 0.7839 0.00165 0.3314 0.0
O373 O 0.77458 0.0261 0.34812 0.0
O374 O 0.28104 0.94321 0.80542 0.0
Cd375 Cd 0.2806 0.93939 0.83499 0.0
O376 O 0.29122 0.96932 0.81549 0.0
Cd377 Cd 0.29872 -0.00433 0.8149 0.0
O378 O 0.30446 0.02331 0.81996 0.0
C379 C 0.30173 0.03225 0.83527 0.0
O380 O 0.29578 0.02444 0.84683 0.0
C381 C 0.28635 0.95738 0.80266 0.0
C382 C 0.30241 0.91275 0.83815 0.0
O383 O 0.2867 0.90973 0.8341 0.0
O384 O 0.30773 0.92841 0.84085 0.0
O385 O 0.27622 0.00633 0.37781 0.0
Cd386 Cd 0.26801 -0.00249 0.40401 0.0
O387 O 0.26081 0.03007 0.38242 0.0
Cd388 Cd 0.24575 0.02339 0.4029 0.0
O389 O 0.21931 0.0171 0.40737 0.0
C390 C 0.20967 0.01711 0.39454 0.0
O391 O 0.2164 0.0207 0.38068 0.0
C392 C 0.27181 0.02002 0.37346 0.0
C393 C 0.29241 0.97403 0.4097 0.0
O394 O 0.29425 0.99035 0.41598 0.0
O395 O 0.2788 0.96878 0.40113 0.0
O396 O 0.59804 0.01717 0.18044 0.0
Cd397 Cd 0.57526 0.01395 0.15894 0.0
O398 O 0.61683 0.0025 0.16208 0.0
Cd399 Cd 0.59671 0.99213 0.14358 0.0
O400 O 0.57582 0.97348 0.13813 0.0
C401 C 0.57965 0.95767 0.13656 0.0
O402 O 0.5958 0.95344 0.13692 0.0
C403 C 0.61322 0.01175 0.17708 0.0
C404 C 0.57394 0.04335 0.14578 0.0
O405 O 0.5649 0.04226 0.15891 0.0
O406 O 0.58339 0.03043 0.13873 0.0
O407 O 0.27187 3e-05 0.62954 0.0
Cd408 Cd 0.26454 0.01098 0.60433 0.0
O409 O 0.25131 0.98067 0.62589 0.0
Cd410 Cd 0.23817 0.98971 0.60562 0.0
O411 O 0.21321 -0.00169 0.59896 0.0
C412 C 0.2023 -0.00042 0.61104 0.0
O413 O 0.20708 -0.00412 0.62554 0.0
C414 C 0.26437 0.9877 0.63413 0.0
C415 C 0.29204 0.02969 0.59591 0.0
O416 O 0.28048 0.03712 0.60654 0.0
O417 O 0.29044 0.01345 0.58903 0.0
O418 O 0.29785 0.01846 0.18713 0.0
Cd419 Cd 0.29919 0.01382 0.15566 0.0
O420 O 0.31371 -0.0039 0.18873 0.0
Cd421 Cd 0.31544 0.98368 0.16115 0.0
O422 O 0.3177 0.95715 0.14538 0.0
C423 C 0.31716 0.94594 0.15435 0.0
O424 O 0.31528 0.95134 0.17123 0.0
C425 C 0.3054 0.00958 0.19613 0.0
C426 C 0.31108 0.04439 0.14853 0.0
O427 O 0.29518 0.04217 0.15099 0.0
O428 O 0.3213 0.03195 0.14892 0.0
O429 O 0.74473 0.9863 0.67195 0.0
Cd430 Cd 0.76269 0.98759 0.64719 0.0
O431 O 0.7306 0.9656 0.65438 0.0
Cd432 Cd 0.71173 0.94495 0.64655 0.0
O433 O 0.69109 0.92691 0.6366 0.0
C434 C 0.67729 0.93287 0.63206 0.0
O435 O 0.6759 0.94963 0.63371 0.0
C436 C 0.73266 0.97533 0.6695 0.0
C437 C 0.79441 0.97268 0.64957 0.0
O438 O 0.79198 0.98894 0.65567 0.0
O439 O 0.78183 0.96347 0.64223 0.0
O440 O 0.77493 0.72961 0.00165 0.0
Cd441 Cd 0.80517 0.72809 0.00835 0.0
O442 O 0.77751 0.71096 0.97635 0.0
Cd443 Cd 0.80533 0.71 0.97593 0.0
O444 O 0.82898 0.70834 0.96107 0.0
C445 C 0.83183 0.7202 0.95323 0.0
O446 O 0.82116 0.73326 0.95547 0.0
C447 C 0.76818 0.72047 0.98793 0.0
C448 C 0.80932 0.70872 0.03294 0.0
O449 O 0.80712 0.72515 0.03757 0.0
O450 O 0.80981 0.7015 0.01668 0.0
O451 O 0.77377 0.24551 0.96227 0.0
Cd452 Cd 0.80026 0.24329 0.94568 0.0
O453 O 0.78909 0.25265 0.98589 0.0
Cd454 Cd 0.79483 0.25834 0.01364 0.0
O455 O 0.80729 0.26291 0.03892 0.0
C456 C 0.82322 0.26001 0.03896 0.0
O457 O 0.8311 0.25444 0.02405 0.0
C458 C 0.77454 0.24981 0.97872 0.0
C459 C 0.80247 0.26867 0.92704 0.0
O460 O 0.79619 0.25371 0.92015 0.0
O461 O 0.8077 0.2716 0.94274 0.0
O462 O 0.97772 0.28278 0.71709 0.0
Cd463 Cd 0.98068 0.31367 0.73061 0.0
O464 O 0.95474 0.27826 0.73127 0.0
Cd465 Cd 0.95646 0.30372 0.74914 0.0
O466 O 0.966 0.3174 0.7745 0.0
C467 C 0.98182 0.31556 0.77688 0.0
O468 O 0.99109 0.30694 0.76385 0.0
C469 C 0.96601 0.27268 0.71976 0.0
C470 C 0.00301 0.32811 0.71063 0.0
O471 O 0.0085 0.3221 0.72316 0.0
O472 O 0.98692 0.32763 0.70781 0.0
O473 O 0.10478 0.684 0.98946 0.0
Cd474 Cd 0.07499 0.6841 0.98056 0.0
O475 O 0.09975 0.66737 0.00731 0.0
Cd476 Cd 0.07206 0.66655 0.0049 0.0
O477 O 0.0494 0.66731 0.021 0.0
C478 C 0.04597 0.68168 0.0315 0.0
O479 O 0.0551 0.69535 0.03081 0.0
C480 C 0.11017 0.67574 0.00019 0.0
C481 C 0.07141 0.66789 0.94549 0.0
O482 O 0.07486 0.68408 0.95044 0.0
O483 O 0.06953 0.65941 0.95715 0.0
O484 O 0.95209 0.71338 0.75611 0.0
Cd485 Cd 0.94541 0.68693 0.7652 0.0
O486 O 0.93334 0.70631 0.73525 0.0
Cd487 Cd 0.91719 0.70859 0.71347 0.0
O488 O 0.90094 0.70662 0.69079 0.0
C489 C 0.90761 0.70406 0.67581 0.0
O490 O 0.92428 0.70299 0.67434 0.0
C491 C 0.9446 0.71682 0.74319 0.0
C492 C 0.93015 0.69346 0.79787 0.0
O493 O 0.94639 0.69248 0.79621 0.0
O494 O 0.92116 0.69145 0.78408 0.0
O495 O 0.11149 0.30086 0.99066 0.0
Cd496 Cd 0.08166 0.30859 -0.00269 0.0
O497 O 0.10796 0.30614 0.96502 0.0
Cd498 Cd 0.08096 0.31279 0.96639 0.0
O499 O 0.06162 0.31814 0.94876 0.0
C500 C 0.06724 0.3155 0.93335 0.0
O501 O 0.083 0.31003 0.93023 0.0
C502 C 0.11753 0.30167 0.97604 0.0
C503 C 0.0766 0.32668 0.03159 0.0
O504 O 0.07375 0.31036 0.02683 0.0
O505 O 0.08191 0.33439 0.02019 0.0
O506 O 0.97378 0.7214 0.27895 0.0
Cd507 Cd 0.97243 0.69053 0.26517 0.0
O508 O 0.98912 0.72712 0.25784 0.0
Cd509 Cd 0.98601 0.70218 0.23925 0.0
O510 O 0.98647 0.69151 0.21124 0.0
C511 C 0.98849 0.70318 0.203 0.0
O512 O 0.98975 0.71937 0.21189 0.0
C513 C 0.98235 0.73205 0.27275 0.0
C514 C 0.99308 0.67439 0.28496 0.0
O515 O -0.00084 0.67949 0.27209 0.0
O516 O 0.97707 0.67631 0.28805 0.0
O517 O 0.95183 0.27173 0.23399 0.0
Cd518 Cd 0.94384 0.29765 0.22452 0.0
O519 O 0.93222 0.27787 0.25409 0.0
Cd520 Cd 0.91551 0.27512 0.27533 0.0
O521 O 0.89819 0.2767 0.29717 0.0
C522 C 0.90384 0.28126 0.31258 0.0
O523 O 0.92018 0.28461 0.31503 0.0
C524 C 0.94423 0.26802 0.24674 0.0
C525 C 0.92331 0.29055 0.195 0.0
O526 O 0.9396 0.29017 0.19378 0.0
O527 O 0.9167 0.29414 0.21021 0.0
H528 H 0.04932 0.0933 0.35418 0.0
H529 H 0.0679 0.09768 0.37955 0.0
H530 H 0.11212 0.09105 0.34634 0.0
H531 H 0.09366 0.0867 0.32087 0.0
H532 H 0.115 0.07484 0.37465 0.0
H533 H 0.10033 0.13007 0.36339 0.0
H534 H 0.08052 0.15237 0.3584 0.0
H535 H 0.05723 0.15567 0.40799 0.0
H536 H 0.07676 0.13318 0.41315 0.0
H537 H 0.1795 0.12382 0.42874 0.0
H538 H 0.15932 0.10948 0.40639 0.0
H539 H 0.11803 0.12228 0.44312 0.0
H540 H 0.13804 0.13663 0.4655 0.0
H541 H 0.1121 0.13343 0.41437 0.0
H542 H 0.12843 0.08054 0.4273 0.0
H543 H 0.14847 0.05869 0.43284 0.0
H544 H 0.16836 0.05078 0.3812 0.0
H545 H 0.14854 0.0727 0.37538 0.0
C546 C 0.063 0.09262 0.35225 0.0
C547 C 0.07003 0.08987 0.33553 0.0
C548 C 0.07358 0.09509 0.36675 0.0
C549 C 0.09136 0.0948 0.36479 0.0
C550 C 0.09842 0.09128 0.3481 0.0
C551 C 0.08785 0.08894 0.33358 0.0
C552 C 0.10258 0.09968 0.38016 0.0
C553 C 0.11447 0.08766 0.38332 0.0
C554 C 0.10159 0.11628 0.39163 0.0
C555 C 0.08985 0.1298 0.38856 0.0
C556 C 0.09087 0.13544 0.37315 0.0
C557 C 0.07972 0.14813 0.37031 0.0
C558 C 0.06759 0.15539 0.38285 0.0
C559 C 0.06661 0.15001 0.39827 0.0
C560 C 0.07772 0.13729 0.40117 0.0
C561 C 0.16617 0.1233 0.43216 0.0
C562 C 0.16036 0.13154 0.44887 0.0
C563 C 0.15466 0.11501 0.41938 0.0
C564 C 0.13716 0.11482 0.42309 0.0
C565 C 0.13147 0.1223 0.43997 0.0
C566 C 0.14295 0.1305 0.45276 0.0
C567 C 0.12465 0.10863 0.40896 0.0
C568 C 0.11252 0.12048 0.40593 0.0
C569 C 0.12542 0.09187 0.39771 0.0
C570 C 0.13716 0.07845 0.40099 0.0
C571 C 0.13716 0.07423 0.41716 0.0
C572 C 0.14845 0.06181 0.42034 0.0
C573 C 0.15976 0.05347 0.40743 0.0
C574 C 0.15964 0.05732 0.39121 0.0
C575 C 0.14835 0.06972 0.38795 0.0
H576 H 0.16863 0.04405 0.41002 0.0
H577 H 0.05897 0.16523 0.38063 0.0
H578 H 0.3312 0.32797 0.87943 0.0
H579 H 0.33365 0.35317 0.8671 0.0
H580 H 0.3191 0.32178 0.817 0.0
H581 H 0.31646 0.29649 0.82925 0.0
H582 H 0.34722 0.34451 0.81625 0.0
H583 H 0.29014 0.34601 0.83907 0.0
H584 H 0.26856 0.34582 0.86159 0.0
H585 H 0.29048 0.3919 0.89393 0.0
H586 H 0.31236 0.39222 0.87168 0.0
H587 H 0.32528 0.41095 0.77465 0.0
H588 H 0.32656 0.38545 0.78651 0.0
H589 H 0.3315 0.41837 0.83809 0.0
H590 H 0.32968 0.44395 0.82635 0.0
H591 H 0.30897 0.39463 0.83833 0.0
H592 H 0.36559 0.3941 0.8159 0.0
H593 H 0.38783 0.39446 0.79405 0.0
H594 H 0.36802 0.3472 0.76188 0.0
H595 H 0.34551 0.34667 0.78344 0.0
C596 C 0.32863 0.32638 0.86576 0.0
C597 C 0.32356 0.31025 0.85532 0.0
C598 C 0.33 0.3408 0.85875 0.0
C599 C 0.32645 0.33933 0.84118 0.0
C600 C 0.32189 0.32315 0.8306 0.0
C601 C 0.32033 0.30875 0.83764 0.0
C602 C 0.32694 0.35482 0.83399 0.0
C603 C 0.33875 0.35542 0.8209 0.0
C604 C 0.31616 0.36918 0.84042 0.0
C605 C 0.303 0.36903 0.85379 0.0
C606 C 0.29046 0.35601 0.85105 0.0
C607 C 0.27815 0.3559 0.86375 0.0
C608 C 0.27818 0.36881 0.8792 0.0
C609 C 0.29049 0.38189 0.88196 0.0
C610 C 0.30284 0.38205 0.86931 0.0
C611 C 0.32679 0.41277 0.78851 0.0
C612 C 0.32737 0.42948 0.79956 0.0
C613 C 0.32761 0.39815 0.79527 0.0
C614 C 0.32932 0.39995 0.8132 0.0
C615 C 0.33017 0.41664 0.82422 0.0
C616 C 0.32918 0.43126 0.81749 0.0
C617 C 0.32935 0.38448 0.82054 0.0
C618 C 0.31755 0.38382 0.83367 0.0
C619 C 0.34026 0.37015 0.81423 0.0
C620 C 0.35376 0.37044 0.80122 0.0
C621 C 0.36589 0.38385 0.8041 0.0
C622 C 0.37856 0.38408 0.79178 0.0
C623 C 0.37931 0.37089 0.77657 0.0
C624 C 0.36741 0.35742 0.77366 0.0
C625 C 0.35471 0.35714 0.78593 0.0
H626 H 0.38914 0.37108 0.76705 0.0
H627 H 0.26863 0.3687 0.88902 0.0
H628 H 0.91822 0.95398 0.39974 0.0
H629 H 0.89328 0.96124 0.41833 0.0
H630 H 0.92586 0.97776 0.46296 0.0
H631 H 0.95098 0.97013 0.44441 0.0
H632 H 0.90297 0.9563 0.46905 0.0
H633 H 0.90072 0.00702 0.4486 0.0
H634 H 0.90132 0.02509 0.42748 0.0
H635 H 0.85623 -0.00021 0.40314 0.0
H636 H 0.8555 0.98135 0.42395 0.0
H637 H 0.83095 0.97647 0.52339 0.0
H638 H 0.85728 0.97851 0.50768 0.0
H639 H 0.83016 0.96438 0.45921 0.0
H640 H 0.80362 0.96276 0.47485 0.0
H641 H 0.85161 0.98765 0.4571 0.0
H642 H 0.85706 0.93508 0.47757 0.0
H643 H 0.8572 0.91854 0.50007 0.0
H644 H 0.89765 0.95055 0.52671 0.0
H645 H 0.89754 0.96749 0.50455 0.0
C646 C 0.92013 0.95943 0.41346 0.0
C647 C 0.93661 0.96134 0.4206 0.0
C648 C 0.90582 0.96369 0.42409 0.0
C649 C 0.90766 0.97014 0.44206 0.0
C650 C 0.92412 0.97278 0.44914 0.0
C651 C 0.93847 0.96846 0.4385 0.0
C652 C 0.89242 0.97242 0.45351 0.0
C653 C 0.89189 0.96355 0.46672 0.0
C654 C 0.87785 0.98162 0.45033 0.0
C655 C 0.87817 0.99266 0.43775 0.0
C656 C 0.89102 0.00519 0.43865 0.0
C657 C 0.89136 0.01552 0.42675 0.0
C658 C 0.87886 0.01354 0.41394 0.0
C659 C 0.86593 0.00128 0.41306 0.0
C660 C 0.86553 0.99089 0.42491 0.0
C661 C 0.83055 0.9739 0.50939 0.0
C662 C 0.8152 0.96933 0.50037 0.0
C663 C 0.84566 0.97496 0.50042 0.0
C664 C 0.84585 0.97129 0.48225 0.0
C665 C 0.83042 0.96722 0.47324 0.0
C666 C 0.81525 0.96625 0.4822 0.0
C667 C 0.86213 0.97153 0.47264 0.0
C668 C 0.86282 0.98076 0.45969 0.0
C669 C 0.87698 0.96295 0.4763 0.0
C670 C 0.87722 0.95259 0.48946 0.0
C671 C 0.86593 0.93862 0.48827 0.0
C672 C 0.86599 0.92921 0.50098 0.0
C673 C 0.87738 0.93355 0.51485 0.0
C674 C 0.88878 0.94726 0.51601 0.0
C675 C 0.88875 0.95676 0.50337 0.0
H676 H 0.87739 0.92625 0.52469 0.0
H677 H 0.8792 0.02151 0.40472 0.0
H678 H 0.54833 0.53287 0.82485 0.0
H679 H 0.5469 0.5641 0.83741 0.0
H680 H 0.5636 0.57355 0.78886 0.0
H681 H 0.565 0.54234 0.77617 0.0
H682 H 0.58202 0.59199 0.81701 0.0
H683 H 0.52338 0.58144 0.80086 0.0
H684 H 0.49545 0.56698 0.79975 0.0
H685 H 0.49154 0.58308 0.8552 0.0
H686 H 0.51957 0.59744 0.85666 0.0
H687 H 0.5722 0.68276 0.84179 0.0
H688 H 0.56903 0.65243 0.8262 0.0
H689 H 0.54665 0.6409 0.87169 0.0
H690 H 0.54932 0.67131 0.88719 0.0
H691 H 0.53048 0.62358 0.84387 0.0
H692 H 0.58914 0.6323 0.86077 0.0
H693 H 0.61741 0.64622 0.8629 0.0
H694 H 0.62181 0.63283 0.80742 0.0
H695 H 0.59345 0.61902 0.80495 0.0
C696 C 0.55155 0.54158 0.81679 0.0
C697 C 0.5568 0.53512 0.79951 0.0
C698 C 0.55066 0.55943 0.82397 0.0
C699 C 0.55507 0.57114 0.81404 0.0
C700 C 0.56013 0.56473 0.79674 0.0
C701 C 0.56087 0.54689 0.7895 0.0
C702 C 0.55519 0.59004 0.82196 0.0
C703 C 0.57069 0.59898 0.82263 0.0
C704 C 0.54052 0.599 0.82972 0.0
C705 C 0.52366 0.59038 0.82888 0.0
C706 C 0.51664 0.58177 0.81283 0.0
C707 C 0.50077 0.57362 0.81214 0.0
C708 C 0.49175 0.57408 0.8274 0.0
C709 C 0.49856 0.58272 0.84339 0.0
C710 C 0.51442 0.59089 0.84416 0.0
C711 C 0.56648 0.6738 0.84844 0.0
C712 C 0.56112 0.67943 0.86577 0.0
C713 C 0.56474 0.65644 0.83953 0.0
C714 C 0.5579 0.64429 0.84787 0.0
C715 C 0.55202 0.65 0.86499 0.0
C716 C 0.55359 0.6674 0.87385 0.0
C717 C 0.55734 0.62557 0.83896 0.0
C718 C 0.54179 0.61664 0.83815 0.0
C719 C 0.57202 0.61654 0.83123 0.0
C720 C 0.5891 0.6248 0.83267 0.0
C721 C 0.59608 0.63244 0.84902 0.0
C722 C 0.61213 0.64029 0.85029 0.0
C723 C 0.62138 0.64046 0.83531 0.0
C724 C 0.61462 0.63272 0.81902 0.0
C725 C 0.59856 0.62487 0.81768 0.0
H726 H 0.63381 0.64654 0.83632 0.0
H727 H 0.47947 0.56776 0.82683 0.0
H728 H 0.05937 0.89308 0.64578 0.0
H729 H 0.07863 0.88759 0.62086 0.0
H730 H 0.11999 0.87883 0.65331 0.0
H731 H 0.10086 0.88448 0.67837 0.0
H732 H 0.13002 0.89849 0.63126 0.0
H733 H 0.09974 0.84506 0.62747 0.0
H734 H 0.07425 0.82668 0.62638 0.0
H735 H 0.05746 0.84064 0.58028 0.0
H736 H 0.08275 0.8593 0.58124 0.0
H737 H 0.18635 0.84976 0.56711 0.0
H738 H 0.16786 0.86197 0.59179 0.0
H739 H 0.12754 0.8678 0.55688 0.0
H740 H 0.14584 0.85538 0.53213 0.0
H741 H 0.11649 0.85109 0.5798 0.0
H742 H 0.14773 0.90316 0.58243 0.0
H743 H 0.17318 0.92159 0.58354 0.0
H744 H 0.18826 0.91038 0.63148 0.0
H745 H 0.16301 0.89168 0.63055 0.0
C746 C 0.07257 0.89002 0.64764 0.0
C747 C 0.07855 0.88911 0.66404 0.0
C748 C 0.08355 0.88687 0.63337 0.0
C749 C 0.10071 0.88265 0.6352 0.0
C750 C 0.10681 0.88207 0.65162 0.0
C751 C 0.09583 0.88522 0.6659 0.0
C752 C 0.11218 0.87836 0.61992 0.0
C753 C 0.12718 0.88802 0.62005 0.0
C754 C 0.10823 0.86497 0.60516 0.0
C755 C 0.09304 0.85372 0.60454 0.0
C756 C 0.09054 0.84432 0.61718 0.0
C757 C 0.07615 0.83383 0.61658 0.0
C758 C 0.06422 0.83253 0.6033 0.0
C759 C 0.06669 0.84168 0.59058 0.0
C760 C 0.08106 0.85221 0.59114 0.0
C761 C 0.17366 0.85393 0.56467 0.0
C762 C 0.16753 0.85146 0.54763 0.0
C763 C 0.16311 0.86097 0.57881 0.0
C764 C 0.14631 0.86582 0.57619 0.0
C765 C 0.14044 0.86409 0.55921 0.0
C766 C 0.15095 0.85702 0.54507 0.0
C767 C 0.13441 0.87121 0.59106 0.0
C768 C 0.11932 0.86168 0.59089 0.0
C769 C 0.1383 0.88472 0.60576 0.0
C770 C 0.15355 0.89588 0.60633 0.0
C771 C 0.15655 0.9045 0.59313 0.0
C772 C 0.17092 0.91502 0.59374 0.0
C773 C 0.18235 0.91712 0.60755 0.0
C774 C 0.17941 0.90872 0.62079 0.0
C775 C 0.16506 0.89818 0.62023 0.0
H776 H 0.19347 0.92528 0.60801 0.0
H777 H 0.05308 0.8244 0.60285 0.0
H778 H 0.59811 0.32495 0.15213 0.0
H779 H 0.59262 0.35579 0.16389 0.0
H780 H 0.55377 0.35433 0.12529 0.0
H781 H 0.55916 0.32343 0.11343 0.0
H782 H 0.59628 0.38194 0.14767 0.0
H783 H 0.52285 0.38442 0.14366 0.0
H784 H 0.49796 0.36584 0.14511 0.0
H785 H 0.52644 0.33884 0.17635 0.0
H786 H 0.5514 0.3574 0.17529 0.0
H787 H 0.56806 0.46771 0.15446 0.0
H788 H 0.56971 0.43617 0.1445 0.0
H789 H 0.55682 0.43131 0.1958 0.0
H790 H 0.55527 0.4629 0.20595 0.0
H791 H 0.53995 0.40686 0.16862 0.0
H792 H 0.59637 0.42837 0.18565 0.0
H793 H 0.62149 0.44697 0.18546 0.0
H794 H 0.62772 0.42556 0.1308 0.0
H795 H 0.60247 0.407 0.13062 0.0
C796 C 0.58831 0.33114 0.14621 0.0
C797 C 0.57909 0.32173 0.13183 0.0
C798 C 0.58522 0.34878 0.15292 0.0
C799 C 0.57275 0.35734 0.14552 0.0
C800 C 0.56334 0.34794 0.13131 0.0
C801 C 0.56648 0.3303 0.12452 0.0
C802 C 0.57008 0.37623 0.15227 0.0
C803 C 0.58396 0.38736 0.15224 0.0
C804 C 0.55403 0.38332 0.15834 0.0
C805 C 0.53904 0.37219 0.15923 0.0
C806 C 0.52377 0.37455 0.15089 0.0
C807 C 0.50966 0.36402 0.15164 0.0
C808 C 0.51064 0.35113 0.16077 0.0
C809 C 0.52572 0.34878 0.16922 0.0
C810 C 0.53986 0.35929 0.16853 0.0
C811 C 0.56539 0.45995 0.1636 0.0
C812 C 0.56164 0.46781 0.18103 0.0
C813 C 0.56637 0.44193 0.15788 0.0
C814 C 0.5635 0.43145 0.16945 0.0
C815 C 0.55906 0.4392 0.18668 0.0
C816 C 0.55826 0.45724 0.19246 0.0
C817 C 0.5661 0.41248 0.16379 0.0
C818 C 0.55224 0.40138 0.164 0.0
C819 C 0.5822 0.40537 0.158 0.0
C820 C 0.59744 0.41643 0.15809 0.0
C821 C 0.60302 0.42773 0.17356 0.0
C822 C 0.61729 0.43825 0.17353 0.0
C823 C 0.62617 0.43748 0.15812 0.0
C824 C 0.62081 0.42616 0.14272 0.0
C825 C 0.60653 0.41563 0.14268 0.0
H826 H 0.63721 0.44563 0.15812 0.0
H827 H 0.4997 0.34299 0.16133 0.0
H828 H 0.90648 0.02805 0.60959 0.0
H829 H 0.88624 0.02098 0.58573 0.0
H830 H 0.92738 0.01794 0.54905 0.0
H831 H 0.94776 0.02536 0.57295 0.0
H832 H 0.90329 0.03833 0.54271 0.0
H833 H 0.90443 0.98166 0.55106 0.0
H834 H 0.90371 0.95843 0.56661 0.0
H835 H 0.85262 0.97267 0.58365 0.0
H836 H 0.85308 -0.00389 0.56835 0.0
H837 H 0.84515 0.01706 0.47266 0.0
H838 H 0.86846 0.01571 0.49256 0.0
H839 H 0.83226 0.01885 0.53414 0.0
H840 H 0.80884 0.01912 0.51402 0.0
H841 H 0.85561 -0.00364 0.5362 0.0
H842 H 0.85682 0.05481 0.52893 0.0
H843 H 0.85815 0.07706 0.51215 0.0
H844 H 0.90643 0.05713 0.49076 0.0
H845 H 0.9053 0.03465 0.50729 0.0
C846 C 0.9113 0.02557 0.59645 0.0
C847 C 0.92873 0.02743 0.59319 0.0
C848 C 0.89969 0.02142 0.58279 0.0
C849 C 0.90528 0.01887 0.56557 0.0
C850 C 0.92278 0.01989 0.56223 0.0
C851 C 0.93442 0.02408 0.57591 0.0
C852 C 0.89267 0.0169 0.55135 0.0
C853 C 0.89313 0.0288 0.54093 0.0
C854 C 0.8792 0.00474 0.54927 0.0
C855 C 0.87887 0.99078 0.55869 0.0
C856 C 0.8931 0.97997 0.55827 0.0
C857 C 0.89272 0.96672 0.567 0.0
C858 C 0.87815 0.9641 0.57615 0.0
C859 C 0.8639 0.9747 0.57656 0.0
C860 C 0.86421 0.98796 0.56783 0.0
C861 C 0.84214 0.01726 0.48599 0.0
C862 C 0.82514 0.01812 0.49174 0.0
C863 C 0.8555 0.01673 0.49743 0.0
C864 C 0.85216 0.01756 0.51496 0.0
C865 C 0.83518 0.01829 0.52069 0.0
C866 C 0.8218 0.0185 0.50919 0.0
C867 C 0.86632 0.01761 0.52735 0.0
C868 C 0.86603 0.00552 0.53758 0.0
C869 C 0.88013 0.02936 0.52901 0.0
C870 C 0.8809 0.04297 0.51922 0.0
C871 C 0.86768 0.05512 0.52057 0.0
C872 C 0.8684 0.06778 0.51112 0.0
C873 C 0.88235 0.06848 0.50037 0.0
C874 C 0.89563 0.05656 0.49908 0.0
C875 C 0.89497 0.04388 0.50851 0.0
H876 H 0.88288 0.07828 0.49305 0.0
H877 H 0.87791 0.95384 0.58291 0.0
H878 H 0.30761 0.58373 0.22937 0.0
H879 H 0.30919 0.60719 0.21447 0.0
H880 H 0.31576 0.56983 0.16559 0.0
H881 H 0.31413 0.54627 0.18036 0.0
H882 H 0.33828 0.59803 0.17026 0.0
H883 H 0.27803 0.58753 0.17524 0.0
H884 H 0.25162 0.58443 0.19107 0.0
H885 H 0.25705 0.63651 0.22187 0.0
H886 H 0.28364 0.63984 0.20638 0.0
H887 H 0.32072 0.64906 0.11108 0.0
H888 H 0.32163 0.62717 0.12783 0.0
H889 H 0.30662 0.66551 0.17378 0.0
H890 H 0.30512 0.68736 0.15691 0.0
H891 H 0.28917 0.63758 0.17197 0.0
H892 H 0.34839 0.64917 0.16716 0.0
H893 H 0.37534 0.65291 0.15248 0.0
H894 H 0.37292 0.60005 0.12304 0.0
H895 H 0.34583 0.59606 0.13738 0.0
C896 C 0.30944 0.58049 0.21545 0.0
C897 C 0.31068 0.56313 0.20603 0.0
C898 C 0.3103 0.59391 0.20697 0.0
C899 C 0.31248 0.59023 0.18892 0.0
C900 C 0.31407 0.57294 0.17953 0.0
C901 C 0.31307 0.5595 0.18798 0.0
C902 C 0.31283 0.60437 0.17978 0.0
C903 C 0.3275 0.60658 0.17046 0.0
C904 C 0.29894 0.61583 0.18052 0.0
C905 C 0.28291 0.61387 0.18978 0.0
C906 C 0.27367 0.59827 0.18549 0.0
C907 C 0.25865 0.59648 0.19438 0.0
C908 C 0.25269 0.61025 0.2075 0.0
C909 C 0.2617 0.62585 0.21173 0.0
C910 C 0.27674 0.6277 0.20289 0.0
C911 C 0.31773 0.65287 0.12478 0.0
C912 C 0.31287 0.66996 0.13267 0.0
C913 C 0.31834 0.64034 0.13438 0.0
C914 C 0.31444 0.64471 0.15216 0.0
C915 C 0.30971 0.66181 0.16009 0.0
C916 C 0.30889 0.67431 0.15045 0.0
C917 C 0.31465 0.63127 0.16229 0.0
C918 C 0.30005 0.62915 0.17182 0.0
C919 C 0.3287 0.62002 0.1619 0.0
C920 C 0.345 0.62237 0.15324 0.0
C921 C 0.35354 0.63838 0.15746 0.0
C922 C 0.36885 0.64054 0.14921 0.0
C923 C 0.37581 0.62674 0.1368 0.0
C924 C 0.3675 0.61074 0.13264 0.0
C925 C 0.35218 0.60851 0.14084 0.0
H926 H 0.38767 0.62844 0.13044 0.0
H927 H 0.24106 0.60884 0.21437 0.0
H928 H 0.29428 0.0753 0.15492 0.0
H929 H 0.30607 0.10361 0.15469 0.0
H930 H 0.35429 0.07979 0.13675 0.0
H931 H 0.34273 0.0515 0.13762 0.0
H932 H 0.3596 0.10571 0.16242 0.0
H933 H 0.32682 0.09826 0.11062 0.0
H934 H 0.30125 0.09199 0.09218 0.0
H935 H 0.27541 0.13521 0.12513 0.0
H936 H 0.30074 0.14161 0.14391 0.0
H937 H 0.39722 0.18358 0.1547 0.0
H938 H 0.384 0.15512 0.1445 0.0
H939 H 0.33731 0.17467 0.17068 0.0
H940 H 0.3504 0.20321 0.18096 0.0
H941 H 0.33206 0.15071 0.13825 0.0
H942 H 0.36399 0.15583 0.19125 0.0
H943 H 0.38962 0.16207 0.20961 0.0
H944 H 0.41719 0.12258 0.17342 0.0
H945 H 0.39176 0.11629 0.15471 0.0
C946 C 0.30732 0.07606 0.15068 0.0
C947 C 0.3176 0.06118 0.14636 0.0
C948 C 0.31403 0.09227 0.15045 0.0
C949 C 0.33105 0.09388 0.14553 0.0
C950 C 0.34114 0.07891 0.14061 0.0
C951 C 0.33451 0.06274 0.14108 0.0
C952 C 0.33875 0.11126 0.14701 0.0
C953 C 0.35373 0.11537 0.15677 0.0
C954 C 0.33091 0.12411 0.14005 0.0
C955 C 0.31565 0.12033 0.12875 0.0
C956 C 0.31565 0.10635 0.11401 0.0
C957 C 0.3012 0.10279 0.10348 0.0
C958 C 0.2867 0.11317 0.1075 0.0
C959 C 0.28664 0.12717 0.12204 0.0
C960 C 0.30105 0.13079 0.13262 0.0
C961 C 0.38403 0.18196 0.15801 0.0
C962 C 0.37494 0.19562 0.16886 0.0
C963 C 0.37651 0.16567 0.15218 0.0
C964 C 0.35977 0.16276 0.15705 0.0
C965 C 0.35026 0.17666 0.16681 0.0
C966 C 0.35779 0.19294 0.17273 0.0
C967 C 0.35282 0.14493 0.15353 0.0
C968 C 0.33798 0.14084 0.14357 0.0
C969 C 0.36079 0.13202 0.16021 0.0
C970 C 0.37605 0.13573 0.17149 0.0
C971 C 0.37556 0.14858 0.18714 0.0
C972 C 0.39004 0.15211 0.19762 0.0
C973 C 0.40504 0.14276 0.19266 0.0
C974 C 0.40557 0.12983 0.17723 0.0
C975 C 0.39113 0.12628 0.16668 0.0
H976 H 0.41624 0.14551 0.20079 0.0
H977 H 0.27553 0.11039 0.09933 0.0
H978 H 0.64634 0.9415 0.62087 0.0
H979 H 0.62298 0.92206 0.60864 0.0
H980 H 0.65256 0.87827 0.6146 0.0
H981 H 0.6761 0.8976 0.62665 0.0
H982 H 0.63728 0.87184 0.5833 0.0
H983 H 0.62062 0.89419 0.64267 0.0
H984 H 0.61438 0.91696 0.66906 0.0
H985 H 0.57484 0.937 0.64221 0.0
H986 H 0.58101 0.91447 0.61557 0.0
H987 H 0.57072 0.8094 0.57261 0.0
H988 H 0.5949 0.82887 0.58112 0.0
H989 H 0.56226 0.87274 0.58223 0.0
H990 H 0.53783 0.85334 0.57496 0.0
H991 H 0.57951 0.87957 0.60938 0.0
H992 H 0.59689 0.85679 0.54925 0.0
H993 H 0.60481 0.83444 0.52296 0.0
H994 H 0.64311 0.81486 0.55144 0.0
H995 H 0.63564 0.83711 0.57785 0.0
C996 C 0.64789 0.92774 0.61961 0.0
C997 C 0.66307 0.92111 0.62479 0.0
C998 C 0.6345 0.91665 0.61266 0.0
C999 C 0.63597 0.89874 0.61086 0.0
C1000 C 0.65116 0.89206 0.61587 0.0
C1001 C 0.66457 0.90314 0.62282 0.0
C1002 C 0.62169 0.88695 0.60373 0.0
C1003 C 0.62465 0.87341 0.58906 0.0
C1004 C 0.60517 0.88923 0.61106 0.0
C1005 C 0.6014 0.90275 0.62708 0.0
C1006 C 0.61069 0.90353 0.64236 0.0
C1007 C 0.60715 0.91638 0.65737 0.0
C1008 C 0.59425 0.92845 0.6573 0.0
C1009 C 0.58484 0.92766 0.64223 0.0
C1010 C 0.58835 0.91485 0.62718 0.0
C1011 C 0.56874 0.82319 0.5745 0.0
C1012 C 0.55236 0.82985 0.57315 0.0
C1013 C 0.58265 0.83434 0.5792 0.0
C1014 C 0.58057 0.85235 0.58208 0.0
C1015 C 0.56426 0.85893 0.58014 0.0
C1016 C 0.55028 0.84783 0.57596 0.0
C1017 C 0.59492 0.86442 0.58866 0.0
C1018 C 0.59202 0.87804 0.60338 0.0
C1019 C 0.61151 0.86217 0.58136 0.0
C1020 C 0.6156 0.84852 0.56556 0.0
C1021 C 0.6069 0.84763 0.54994 0.0
C1022 C 0.61132 0.83503 0.53501 0.0
C1023 C 0.62432 0.82321 0.53556 0.0
C1024 C 0.63301 0.824 0.55103 0.0
C1025 C 0.62875 0.83664 0.56596 0.0
H1026 H 0.62769 0.81348 0.52398 0.0
H1027 H 0.59153 0.93839 0.66893 0.0
H1028 H 0.54512 0.96271 0.13944 0.0
H1029 H 0.52352 0.94194 0.14366 0.0
H1030 H 0.56215 0.90257 0.13879 0.0
H1031 H 0.58379 0.92315 0.13436 0.0
H1032 H 0.53248 0.88932 0.12305 0.0
H1033 H 0.55003 0.92523 0.17823 0.0
H1034 H 0.55524 0.95295 0.1995 0.0
H1035 H 0.50229 0.96611 0.1981 0.0
H1036 H 0.49682 0.93855 0.17662 0.0
H1037 H 0.49402 0.83258 0.16836 0.0
H1038 H 0.51263 0.85259 0.15806 0.0
H1039 H 0.47245 0.89068 0.16665 0.0
H1040 H 0.45387 0.87086 0.1773 0.0
H1041 H 0.50161 0.90506 0.17919 0.0
H1042 H 0.4837 0.86775 0.1254 0.0
H1043 H 0.47881 0.83988 0.10426 0.0
H1044 H 0.53245 0.82904 0.10308 0.0
H1045 H 0.53764 0.85674 0.1244 0.0
C1046 C 0.54899 0.94956 0.13899 0.0
C1047 C 0.56621 0.94465 0.13676 0.0
C1048 C 0.53663 0.93773 0.14146 0.0
C1049 C 0.54129 0.9208 0.14183 0.0
C1050 C 0.5583 0.91558 0.13862 0.0
C1051 C 0.57066 0.9274 0.13614 0.0
C1052 C 0.52873 0.90889 0.14673 0.0
C1053 C 0.5258 0.89268 0.13536 0.0
C1054 C 0.51981 0.91342 0.16268 0.0
C1055 C 0.52305 0.92993 0.17568 0.0
C1056 C 0.53952 0.9341 0.18236 0.0
C1057 C 0.54252 0.94977 0.19447 0.0
C1058 C 0.52911 0.9613 0.20011 0.0
C1059 C 0.51267 0.95717 0.19369 0.0
C1060 C 0.50961 0.94153 0.18156 0.0
C1061 C 0.48911 0.84519 0.168 0.0
C1062 C 0.47246 0.85013 0.17366 0.0
C1063 C 0.49974 0.85658 0.162 0.0
C1064 C 0.49387 0.87306 0.16136 0.0
C1065 C 0.47724 0.87801 0.16698 0.0
C1066 C 0.46663 0.86665 0.17305 0.0
C1067 C 0.5053 0.8854 0.15551 0.0
C1068 C 0.5081 0.90171 0.16677 0.0
C1069 C 0.5141 0.88091 0.13948 0.0
C1070 C 0.51103 0.86426 0.12662 0.0
C1071 C 0.49444 0.85936 0.12074 0.0
C1072 C 0.49162 0.84361 0.1087 0.0
C1073 C 0.50531 0.83268 0.10236 0.0
C1074 C 0.52186 0.83751 0.10802 0.0
C1075 C 0.52475 0.85324 0.12006 0.0
H1076 H 0.5031 0.82049 0.09305 0.0
H1077 H 0.53146 0.97343 0.20948 0.0
H1078 H 0.29984 0.0637 0.60985 0.0
H1079 H 0.32531 0.07939 0.6047 0.0
H1080 H 0.34365 0.03364 0.56822 0.0
H1081 H 0.31832 0.01774 0.57353 0.0
H1082 H 0.36828 0.04803 0.59003 0.0
H1083 H 0.32781 0.06829 0.55451 0.0
H1084 H 0.30075 0.081 0.5479 0.0
H1085 H 0.31185 0.12792 0.58615 0.0
H1086 H 0.33888 0.1154 0.59316 0.0
H1087 H 0.43707 0.0905 0.55953 0.0
H1088 H 0.41071 0.07447 0.56084 0.0
H1089 H 0.38973 0.11874 0.59745 0.0
H1090 H 0.41582 0.13502 0.59577 0.0
H1091 H 0.36642 0.10444 0.57405 0.0
H1092 H 0.40611 0.08383 0.61048 0.0
H1093 H 0.43315 0.07124 0.61732 0.0
H1094 H 0.42339 0.02505 0.57759 0.0
H1095 H 0.39638 0.03747 0.57035 0.0
C1096 C 0.30923 0.05699 0.60063 0.0
C1097 C 0.30704 0.03946 0.59209 0.0
C1098 C 0.32376 0.06601 0.59764 0.0
C1099 C 0.33632 0.05775 0.58593 0.0
C1100 C 0.33411 0.04028 0.57729 0.0
C1101 C 0.3196 0.03123 0.58031 0.0
C1102 C 0.35206 0.06715 0.58323 0.0
C1103 C 0.36788 0.06022 0.58625 0.0
C1104 C 0.35153 0.08326 0.57869 0.0
C1105 C 0.33531 0.09084 0.57446 0.0
C1106 C 0.32442 0.08127 0.56161 0.0
C1107 C 0.3091 0.08845 0.55777 0.0
C1108 C 0.30456 0.10524 0.56662 0.0
C1109 C 0.31537 0.11491 0.57931 0.0
C1110 C 0.3307 0.10778 0.5832 0.0
C1111 C 0.42683 0.09685 0.56783 0.0
C1112 C 0.42864 0.11398 0.57773 0.0
C1113 C 0.41179 0.08764 0.56862 0.0
C1114 C 0.39833 0.09531 0.57946 0.0
C1115 C 0.39997 0.11253 0.58905 0.0
C1116 C 0.41495 0.12178 0.58817 0.0
C1117 C 0.38261 0.08537 0.58095 0.0
C1118 C 0.3668 0.0922 0.57773 0.0
C1119 C 0.38314 0.06918 0.58534 0.0
C1120 C 0.39931 0.06165 0.58976 0.0
C1121 C 0.40979 0.07104 0.60312 0.0
C1122 C 0.4251 0.06392 0.60708 0.0
C1123 C 0.43001 0.04737 0.59787 0.0
C1124 C 0.41958 0.03788 0.5847 0.0
C1125 C 0.40427 0.04494 0.58067 0.0
H1126 H 0.44187 0.04189 0.60095 0.0
H1127 H 0.29269 0.11078 0.56364 0.0
H1128 H 0.43128 0.8163 0.8288 0.0
H1129 H 0.40797 0.83685 0.83725 0.0
H1130 H 0.37158 0.79507 0.82387 0.0
H1131 H 0.39488 0.77439 0.81514 0.0
H1132 H 0.36392 0.82033 0.80861 0.0
H1133 H 0.37738 0.81732 0.86617 0.0
H1134 H 0.39572 0.81781 0.8914 0.0
H1135 H 0.41 0.87034 0.89351 0.0
H1136 H 0.39193 0.8701 0.86813 0.0
H1137 H 0.29488 0.87837 0.83346 0.0
H1138 H 0.31471 0.85469 0.83336 0.0
H1139 H 0.35631 0.89116 0.84469 0.0
H1140 H 0.33655 0.91493 0.84509 0.0
H1141 H 0.35912 0.86662 0.86288 0.0
H1142 H 0.34876 0.86829 0.8035 0.0
H1143 H 0.33089 0.86803 0.77797 0.0
H1144 H 0.31131 0.81798 0.77923 0.0
H1145 H 0.32892 0.81805 0.80493 0.0
C1146 C 0.41835 0.81141 0.82793 0.0
C1147 C 0.41495 0.79371 0.82117 0.0
C1148 C 0.40501 0.82319 0.83286 0.0
C1149 C 0.38801 0.8175 0.83127 0.0
C1150 C 0.3846 0.79974 0.82521 0.0
C1151 C 0.39794 0.78794 0.82026 0.0
C1152 C 0.37389 0.83027 0.83435 0.0
C1153 C 0.36264 0.83021 0.82064 0.0
C1154 C 0.37248 0.84343 0.84987 0.0
C1155 C 0.38339 0.84364 0.86514 0.0
C1156 C 0.38454 0.82893 0.87192 0.0
C1157 C 0.39486 0.82917 0.88627 0.0
C1158 C 0.40404 0.84408 0.89404 0.0
C1159 C 0.40289 0.8588 0.88748 0.0
C1160 C 0.39258 0.85862 0.87312 0.0
C1161 C 0.30823 0.88138 0.83607 0.0
C1162 C 0.31417 0.89852 0.83914 0.0
C1163 C 0.31954 0.86782 0.83597 0.0
C1164 C 0.33702 0.87115 0.8388 0.0
C1165 C 0.34288 0.88831 0.84247 0.0
C1166 C 0.33157 0.90187 0.84261 0.0
C1167 C 0.34935 0.85673 0.83709 0.0
C1168 C 0.36027 0.85654 0.85099 0.0
C1169 C 0.35053 0.84335 0.82173 0.0
C1170 C 0.34 0.84326 0.80624 0.0
C1171 C 0.34054 0.85729 0.79841 0.0
C1172 C 0.33048 0.85717 0.7839 0.0
C1173 C 0.31993 0.84302 0.77702 0.0
C1174 C 0.31946 0.82894 0.7846 0.0
C1175 C 0.32948 0.82901 0.79913 0.0
H1176 H 0.31216 0.84295 0.76578 0.0
H1177 H 0.41203 0.84424 0.90515 0.0
H1178 H 0.39581 0.84745 0.40428 0.0
H1179 H 0.37269 0.86794 0.40418 0.0
H1180 H 0.40739 0.91058 0.42201 0.0
H1181 H 0.43066 0.89016 0.42213 0.0
H1182 H 0.37666 0.9147 0.44013 0.0
H1183 H 0.39565 0.90144 0.38083 0.0
H1184 H 0.40353 0.88222 0.35263 0.0
H1185 H 0.35344 0.85981 0.34778 0.0
H1186 H 0.34524 0.87894 0.37596 0.0
H1187 H 0.32418 0.9815 0.42358 0.0
H1188 H 0.34715 0.96122 0.42493 0.0
H1189 H 0.31428 0.9184 0.4017 0.0
H1190 H 0.29136 0.93866 0.39991 0.0
H1191 H 0.34432 0.9143 0.38651 0.0
H1192 H 0.32491 0.9281 0.44546 0.0
H1193 H 0.31701 0.94714 0.47374 0.0
H1194 H 0.36775 0.96797 0.47982 0.0
H1195 H 0.3759 0.94921 0.45146 0.0
C1196 C 0.39855 0.86118 0.4082 0.0
C1197 C 0.41508 0.86717 0.41322 0.0
C1198 C 0.38533 0.87287 0.40806 0.0
C1199 C 0.38836 0.89077 0.41299 0.0
C1200 C 0.4048 0.89681 0.41817 0.0
C1201 C 0.41807 0.88512 0.41818 0.0
C1202 C 0.37433 0.90315 0.41281 0.0
C1203 C 0.36971 0.91481 0.42838 0.0
C1204 C 0.36504 0.90295 0.39755 0.0
C1205 C 0.36988 0.89151 0.38056 0.0
C1206 C 0.38635 0.89235 0.37379 0.0
C1207 C 0.39086 0.8815 0.3578 0.0
C1208 C 0.37903 0.86974 0.34847 0.0
C1209 C 0.36261 0.8689 0.35504 0.0
C1210 C 0.358 0.87979 0.37099 0.0
C1211 C 0.32178 0.96776 0.41889 0.0
C1212 C 0.30593 0.96169 0.41165 0.0
C1213 C 0.33492 0.95616 0.41973 0.0
C1214 C 0.3324 0.93825 0.41358 0.0
C1215 C 0.31652 0.93216 0.40653 0.0
C1216 C 0.30341 0.94375 0.40557 0.0
C1217 C 0.34652 0.92591 0.41389 0.0
C1218 C 0.3512 0.91424 0.39831 0.0
C1219 C 0.35583 0.92608 0.42918 0.0
C1220 C 0.35097 0.93737 0.44625 0.0
C1221 C 0.33435 0.93684 0.45276 0.0
C1222 C 0.32983 0.94756 0.46882 0.0
C1223 C 0.34186 0.95879 0.47855 0.0
C1224 C 0.35844 0.95929 0.47226 0.0
C1225 C 0.36302 0.9486 0.4562 0.0
H1226 H 0.33834 0.96708 0.49098 0.0
H1227 H 0.38258 0.86131 0.33611 0.0
H1228 H 0.59033 0.06843 0.8588 0.0
H1229 H 0.56735 0.08818 0.85601 0.0
H1230 H 0.53081 0.04681 0.85147 0.0
H1231 H 0.55378 0.02686 0.85406 0.0
H1232 H 0.52761 0.06288 0.82562 0.0
H1233 H 0.53171 0.08051 0.88747 0.0
H1234 H 0.54626 0.09043 0.91559 0.0
H1235 H 0.56241 0.13671 0.90154 0.0
H1236 H 0.54815 0.12696 0.87322 0.0
H1237 H 0.45629 0.11603 0.82193 0.0
H1238 H 0.47627 0.09674 0.83143 0.0
H1239 H 0.51509 0.13627 0.83876 0.0
H1240 H 0.49504 0.1558 0.82966 0.0
H1241 H 0.51584 0.12052 0.86461 0.0
H1242 H 0.51438 0.10234 0.80244 0.0
H1243 H 0.50095 0.09264 0.7737 0.0
H1244 H 0.48114 0.04766 0.78777 0.0
H1245 H 0.49427 0.05722 0.8167 0.0
C1246 C 0.57738 0.06357 0.85748 0.0
C1247 C 0.57391 0.04604 0.85654 0.0
C1248 C 0.56423 0.07492 0.85597 0.0
C1249 C 0.54734 0.06899 0.8536 0.0
C1250 C 0.54375 0.05164 0.85328 0.0
C1251 C 0.5569 0.04028 0.85481 0.0
C1252 C 0.5337 0.08052 0.85001 0.0
C1253 C 0.52479 0.07534 0.83432 0.0
C1254 C 0.53042 0.097 0.8611 0.0
C1255 C 0.53897 0.10293 0.87815 0.0
C1256 C 0.53847 0.09274 0.89031 0.0
C1257 C 0.54665 0.09834 0.9063 0.0
C1258 C 0.55528 0.11417 0.91033 0.0
C1259 C 0.55572 0.12445 0.89839 0.0
C1260 C 0.54758 0.1189 0.88238 0.0
C1261 C 0.46906 0.12065 0.82562 0.0
C1262 C 0.47411 0.13741 0.82492 0.0
C1263 C 0.48049 0.10958 0.83101 0.0
C1264 C 0.49726 0.11497 0.83557 0.0
C1265 C 0.50222 0.13184 0.83528 0.0
C1266 C 0.49076 0.14296 0.83001 0.0
C1267 C 0.50979 0.10288 0.84021 0.0
C1268 C 0.51854 0.10798 0.85603 0.0
C1269 C 0.51306 0.08636 0.82917 0.0
C1270 C 0.50514 0.0806 0.81179 0.0
C1271 C 0.50704 0.09045 0.79945 0.0
C1272 C 0.49951 0.08497 0.78312 0.0
C1273 C 0.49016 0.06957 0.77893 0.0
C1274 C 0.48836 0.0596 0.79105 0.0
C1275 C 0.49585 0.06504 0.80741 0.0
H1276 H 0.48434 0.06534 0.76627 0.0
H1277 H 0.5616 0.11849 0.92272 0.0
H1278 H 0.56844 0.18979 0.4135 0.0
H1279 H 0.59174 0.16929 0.40403 0.0
H1280 H 0.55565 0.12718 0.392 0.0
H1281 H 0.53226 0.14757 0.40154 0.0
H1282 H 0.58405 0.11909 0.40861 0.0
H1283 H 0.5715 0.14333 0.36015 0.0
H1284 H 0.56722 0.16691 0.34546 0.0
H1285 H 0.6185 0.18447 0.35781 0.0
H1286 H 0.62301 0.16112 0.3728 0.0
H1287 H 0.63521 0.05497 0.35396 0.0
H1288 H 0.61281 0.07591 0.3655 0.0
H1289 H 0.64989 0.11718 0.37506 0.0
H1290 H 0.67236 0.09634 0.36335 0.0
H1291 H 0.62155 0.12621 0.36052 0.0
H1292 H 0.63487 0.101 0.4074 0.0
H1293 H 0.63934 0.07767 0.42233 0.0
H1294 H 0.58703 0.06217 0.41363 0.0
H1295 H 0.58231 0.08522 0.39834 0.0
C1296 C 0.56545 0.17615 0.40894 0.0
C1297 C 0.54848 0.17032 0.40819 0.0
C1298 C 0.57879 0.16447 0.40348 0.0
C1299 C 0.5754 0.14675 0.39712 0.0
C1300 C 0.55853 0.14081 0.39683 0.0
C1301 C 0.54518 0.15249 0.40224 0.0
C1302 C 0.5894 0.13443 0.39039 0.0
C1303 C 0.59213 0.1205 0.39796 0.0
C1304 C 0.60021 0.13657 0.37679 0.0
C1305 C 0.59753 0.15059 0.36775 0.0
C1306 C 0.58182 0.15231 0.35986 0.0
C1307 C 0.57936 0.16562 0.35146 0.0
C1308 C 0.59257 0.17721 0.35075 0.0
C1309 C 0.60827 0.17549 0.3584 0.0
C1310 C 0.61079 0.16222 0.36684 0.0
C1311 C 0.63862 0.0685 0.3585 0.0
C1312 C 0.65559 0.07397 0.35779 0.0
C1313 C 0.6258 0.08044 0.36516 0.0
C1314 C 0.62971 0.09808 0.37134 0.0
C1315 C 0.64659 0.10362 0.3704 0.0
C1316 C 0.65943 0.09169 0.36373 0.0
C1317 C 0.61616 0.11075 0.37866 0.0
C1318 C 0.61351 0.12478 0.37121 0.0
C1319 C 0.60548 0.1087 0.3924 0.0
C1320 C 0.60829 0.09476 0.40155 0.0
C1321 C 0.62436 0.09251 0.40849 0.0
C1322 C 0.62694 0.07933 0.41703 0.0
C1323 C 0.61349 0.0684 0.41888 0.0
C1324 C 0.59744 0.07063 0.41217 0.0
C1325 C 0.59481 0.08375 0.40356 0.0
H1326 H 0.6155 0.05825 0.42555 0.0
H1327 H 0.59064 0.1875 0.34423 0.0
H1328 H 0.03511 0.43018 0.17884 0.0
H1329 H 0.03573 0.41106 0.14967 0.0
H1330 H 0.08036 0.38562 0.16332 0.0
H1331 H 0.07909 0.40398 0.19273 0.0
H1332 H 0.05592 0.40756 0.12504 0.0
H1333 H 0.08488 0.34528 0.13998 0.0
H1334 H 0.0835 0.32935 0.16293 0.0
H1335 H 0.03467 0.35192 0.17907 0.0
H1336 H 0.03565 0.36781 0.15608 0.0
H1337 H 0.09113 0.3572 0.04844 0.0
H1338 H 0.08601 0.37359 0.07819 0.0
H1339 H 0.04961 0.33506 0.08499 0.0
H1340 H 0.05549 0.31812 0.05551 0.0
H1341 H 0.06601 0.34427 0.11274 0.0
H1342 H 0.03759 0.37604 0.07801 0.0
H1343 H 0.03392 0.39109 0.0546 0.0
H1344 H 0.0724 0.42797 0.07743 0.0
H1345 H 0.07646 0.413 0.10086 0.0
C1346 C 0.04492 0.42036 0.17563 0.0
C1347 C 0.05699 0.41847 0.18805 0.0
C1348 C 0.04531 0.40946 0.15895 0.0
C1349 C 0.05796 0.39667 0.15426 0.0
C1350 C 0.07015 0.39497 0.16667 0.0
C1351 C 0.0695 0.40557 0.18347 0.0
C1352 C 0.05888 0.38566 0.13623 0.0
C1353 C 0.05803 0.39371 0.12239 0.0
C1354 C 0.06118 0.36748 0.13261 0.0
C1355 C 0.06042 0.35785 0.14639 0.0
C1356 C 0.07382 0.34679 0.14838 0.0
C1357 C 0.07311 0.33778 0.16141 0.0
C1358 C 0.05903 0.33966 0.17249 0.0
C1359 C 0.0456 0.35052 0.17053 0.0
C1360 C 0.04623 0.35955 0.15751 0.0
C1361 C 0.08206 0.35222 0.05631 0.0
C1362 C 0.07364 0.33645 0.04966 0.0
C1363 C 0.07905 0.36166 0.07329 0.0
C1364 C 0.06711 0.35581 0.08378 0.0
C1365 C 0.05885 0.3399 0.07719 0.0
C1366 C 0.06218 0.33024 0.06033 0.0
C1367 C 0.06336 0.36624 0.10162 0.0
C1368 C 0.06374 0.3581 0.11541 0.0
C1369 C 0.05984 0.38421 0.10515 0.0
C1370 C 0.05742 0.39331 0.09112 0.0
C1371 C 0.04535 0.38729 0.07798 0.0
C1372 C 0.04319 0.39582 0.06471 0.0
C1373 C 0.05295 0.41045 0.06451 0.0
C1374 C 0.06486 0.41662 0.0776 0.0
C1375 C 0.06708 0.40813 0.09089 0.0
H1376 H 0.05126 0.41703 0.05423 0.0
H1377 H 0.05851 0.33269 0.18257 0.0
H1378 H 0.05781 0.563 0.79657 0.0
H1379 H 0.05583 0.58149 0.82586 0.0
H1380 H 0.08018 0.62306 0.80881 0.0
H1381 H 0.08265 0.60443 0.77952 0.0
H1382 H 0.09419 0.61994 0.83752 0.0
H1383 H 0.03688 0.62388 0.81921 0.0
H1384 H 0.00898 0.61335 0.80674 0.0
H1385 H 0.00137 0.58642 0.84679 0.0
H1386 H 0.02934 0.59659 0.85938 0.0
H1387 H 0.07863 0.68129 0.91773 0.0
H1388 H 0.07722 0.66646 0.88696 0.0
H1389 H 0.05953 0.62007 0.90032 0.0
H1390 H 0.06092 0.63478 0.93111 0.0
H1391 H 0.04139 0.62779 0.87299 0.0
H1392 H 0.10001 0.62295 0.88985 0.0
H1393 H 0.12773 0.63432 0.90219 0.0
H1394 H 0.13229 0.66432 0.86429 0.0
H1395 H 0.10447 0.65331 0.85187 0.0
C1396 C 0.06259 0.57614 0.79899 0.0
C1397 C 0.0704 0.58225 0.78571 0.0
C1398 C 0.06137 0.58674 0.81576 0.0
C1399 C 0.06767 0.60376 0.81954 0.0
C1400 C 0.07522 0.60999 0.80621 0.0
C1401 C 0.07658 0.59933 0.78947 0.0
C1402 C 0.06722 0.61469 0.83758 0.0
C1403 C 0.08256 0.62192 0.84514 0.0
C1404 C 0.05213 0.61705 0.84768 0.0
C1405 C 0.03529 0.61088 0.84015 0.0
C1406 C 0.02932 0.6156 0.82528 0.0
C1407 C 0.01348 0.60972 0.81821 0.0
C1408 C 0.00342 0.59919 0.82594 0.0
C1409 C 0.00918 0.59456 0.8408 0.0
C1410 C 0.02502 0.6004 0.84792 0.0
C1411 C 0.07437 0.66796 0.91412 0.0
C1412 C 0.06996 0.65918 0.92686 0.0
C1413 C 0.07361 0.6595 0.89655 0.0
C1414 C 0.06839 0.64214 0.89139 0.0
C1415 C 0.06359 0.63348 0.90405 0.0
C1416 C 0.06446 0.64188 0.92163 0.0
C1417 C 0.06834 0.63283 0.87284 0.0
C1418 C 0.05294 0.62591 0.86523 0.0
C1419 C 0.08333 0.63089 0.86264 0.0
C1420 C 0.10008 0.63746 0.87005 0.0
C1421 C 0.10686 0.63209 0.88424 0.0
C1422 C 0.1226 0.63844 0.89123 0.0
C1423 C 0.13174 0.65007 0.88406 0.0
C1424 C 0.12518 0.65533 0.86985 0.0
C1425 C 0.10944 0.64903 0.86282 0.0
H1426 H 0.14393 0.65498 0.88949 0.0
H1427 H 0.99116 0.59465 0.82045 0.0
H1428 H 0.79453 0.69123 0.55482 0.0
H1429 H 0.81106 0.69134 0.58087 0.0
H1430 H 0.85772 0.69084 0.55202 0.0
H1431 H 0.84131 0.69061 0.52586 0.0
H1432 H 0.85919 0.66913 0.57403 0.0
H1433 H 0.84305 0.72819 0.57689 0.0
H1434 H 0.82277 0.75175 0.57663 0.0
H1435 H 0.79701 0.74196 0.62095 0.0
H1436 H 0.817 0.71816 0.62132 0.0
H1437 H 0.91791 0.69939 0.64213 0.0
H1438 H 0.90002 0.69568 0.6164 0.0
H1439 H 0.85494 0.69987 0.64828 0.0
H1440 H 0.87275 0.7039 0.67415 0.0
H1441 H 0.85163 0.71866 0.62515 0.0
H1442 H 0.86826 0.66058 0.62341 0.0
H1443 H 0.88815 0.63673 0.62375 0.0
H1444 H 0.91248 0.64409 0.57769 0.0
H1445 H 0.89288 0.66817 0.57721 0.0
C1446 C 0.80831 0.69097 0.55396 0.0
C1447 C 0.81661 0.69103 0.53829 0.0
C1448 C 0.81773 0.6911 0.56888 0.0
C1449 C 0.83561 0.69133 0.56842 0.0
C1450 C 0.84393 0.69071 0.55265 0.0
C1451 C 0.83452 0.69062 0.53773 0.0
C1452 C 0.84567 0.69289 0.5845 0.0
C1453 C 0.85768 0.68004 0.58516 0.0
C1454 C 0.84337 0.70691 0.59915 0.0
C1455 C 0.83141 0.72128 0.59901 0.0
C1456 C 0.83298 0.73097 0.58649 0.0
C1457 C 0.82155 0.74438 0.58634 0.0
C1458 C 0.80858 0.74832 0.59873 0.0
C1459 C 0.80704 0.73888 0.61134 0.0
C1460 C 0.81843 0.72544 0.61153 0.0
C1461 C 0.90419 0.69951 0.64369 0.0
C1462 C 0.89676 0.70191 0.66021 0.0
C1463 C 0.89397 0.69729 0.62894 0.0
C1464 C 0.87613 0.69725 0.63037 0.0
C1465 C 0.86868 0.6998 0.64686 0.0
C1466 C 0.87888 0.70208 0.66163 0.0
C1467 C 0.86527 0.69493 0.6147 0.0
C1468 C 0.8531 0.70767 0.6141 0.0
C1469 C 0.86739 0.68077 0.60013 0.0
C1470 C 0.8792 0.66629 0.60037 0.0
C1471 C 0.87794 0.65721 0.61343 0.0
C1472 C 0.88914 0.64363 0.61364 0.0
C1473 C 0.90159 0.63893 0.60077 0.0
C1474 C 0.90284 0.64777 0.58766 0.0
C1475 C 0.89167 0.66137 0.5874 0.0
H1476 H 0.91026 0.62841 0.60095 0.0
H1477 H 0.79974 0.75871 0.59859 0.0
H1478 H 0.79544 0.26542 0.89274 0.0
H1479 H 0.7975 0.28776 0.87649 0.0
H1480 H 0.81416 0.3247 0.92268 0.0
H1481 H 0.81212 0.30245 0.93904 0.0
H1482 H 0.78926 0.33778 0.90494 0.0
H1483 H 0.84259 0.30744 0.8923 0.0
H1484 H 0.86085 0.28174 0.8824 0.0
H1485 H 0.83749 0.27132 0.83215 0.0
H1486 H 0.81892 0.29684 0.84183 0.0
H1487 H 0.81827 0.40414 0.86693 0.0
H1488 H 0.8163 0.3815 0.88275 0.0
H1489 H 0.8048 0.34387 0.83513 0.0
H1490 H 0.80718 0.36638 0.81914 0.0
H1491 H 0.82675 0.33081 0.85341 0.0
H1492 H 0.7735 0.36057 0.86532 0.0
H1493 H 0.75446 0.38572 0.87478 0.0
H1494 H 0.77641 0.39657 0.92569 0.0
H1495 H 0.79575 0.37161 0.91647 0.0
C1496 C 0.79955 0.27829 0.89945 0.0
C1497 C 0.80366 0.28216 0.91718 0.0
C1498 C 0.80078 0.29102 0.89013 0.0
C1499 C 0.80612 0.30784 0.89836 0.0
C1500 C 0.81004 0.31179 0.91609 0.0
C1501 C 0.80891 0.29905 0.9254 0.0
C1502 C 0.80751 0.32136 0.88852 0.0
C1503 C 0.79762 0.33638 0.89381 0.0
C1504 C 0.81805 0.31927 0.87371 0.0
C1505 C 0.82925 0.30395 0.86784 0.0
C1506 C 0.84125 0.29959 0.87918 0.0
C1507 C 0.85167 0.28507 0.8736 0.0
C1508 C 0.8503 0.27488 0.85667 0.0
C1509 C 0.83853 0.27921 0.84527 0.0
C1510 C 0.82806 0.29371 0.85079 0.0
C1511 C 0.81532 0.39105 0.85981 0.0
C1512 C 0.81283 0.38707 0.84178 0.0
C1513 C 0.81412 0.37812 0.8689 0.0
C1514 C 0.81014 0.36102 0.86018 0.0
C1515 C 0.80784 0.35698 0.84214 0.0
C1516 C 0.80918 0.36987 0.83302 0.0
C1517 C 0.80852 0.34732 0.86985 0.0
C1518 C 0.81836 0.33224 0.86453 0.0
C1519 C 0.79781 0.3493 0.88455 0.0
C1520 C 0.78619 0.36432 0.89015 0.0
C1521 C 0.77436 0.3684 0.87849 0.0
C1522 C 0.7635 0.38261 0.88382 0.0
C1523 C 0.76426 0.39276 0.90081 0.0
C1524 C 0.77585 0.3887 0.91252 0.0
C1525 C 0.78676 0.37452 0.90726 0.0
H1526 H 0.75583 0.40375 0.90491 0.0
H1527 H 0.85838 0.26364 0.85237 0.0
H1528 H 0.09387 0.40052 0.61291 0.0
H1529 H 0.07585 0.3918 0.63438 0.0
H1530 H 0.09344 0.33917 0.6164 0.0
H1531 H 0.11134 0.34773 0.59471 0.0
H1532 H 0.05983 0.33995 0.62062 0.0
H1533 H 0.10801 0.36502 0.65436 0.0
H1534 H 0.12944 0.38752 0.66598 0.0
H1535 H 0.08978 0.42254 0.68958 0.0
H1536 H 0.06809 0.40032 0.6779 0.0
H1537 H 0.03778 0.33014 0.71287 0.0
H1538 H 0.05752 0.33921 0.69293 0.0
H1539 H 0.01506 0.35029 0.66302 0.0
H1540 H 0.99525 0.34105 0.68275 0.0
H1541 H 0.06259 0.36901 0.68327 0.0
H1542 H 0.02564 0.3386 0.6203 0.0
H1543 H 0.00586 0.31436 0.60906 0.0
H1544 H 0.02637 0.28679 0.64454 0.0
H1545 H 0.04642 0.31074 0.65582 0.0
C1546 C 0.09395 0.38709 0.61353 0.0
C1547 C 0.10407 0.37482 0.6021 0.0
C1548 C 0.08369 0.38214 0.62588 0.0
C1549 C 0.08343 0.36487 0.62712 0.0
C1550 C 0.09346 0.35257 0.61568 0.0
C1551 C 0.10371 0.3575 0.60331 0.0
C1552 C 0.07243 0.35954 0.64012 0.0
C1553 C 0.06044 0.34631 0.63431 0.0
C1554 C 0.07339 0.36766 0.65804 0.0
C1555 C 0.08641 0.38105 0.66512 0.0
C1556 C 0.10385 0.37756 0.66191 0.0
C1557 C 0.11604 0.39026 0.66853 0.0
C1558 C 0.11097 0.40646 0.67848 0.0
C1559 C 0.09369 0.40999 0.68186 0.0
C1560 C 0.08144 0.39734 0.67525 0.0
C1561 C 0.03263 0.3346 0.70211 0.0
C1562 C 0.01494 0.33476 0.69933 0.0
C1563 C 0.04394 0.33983 0.69075 0.0
C1564 C 0.03778 0.34522 0.67637 0.0
C1565 C 0.02011 0.34592 0.67389 0.0
C1566 C 0.00879 0.34069 0.68522 0.0
C1567 C 0.04983 0.34963 0.6637 0.0
C1568 C 0.06198 0.36269 0.66957 0.0
C1569 C 0.04925 0.34114 0.64587 0.0
C1570 C 0.0374 0.32655 0.63902 0.0
C1571 C 0.02596 0.32733 0.62566 0.0
C1572 C 0.0147 0.31365 0.61928 0.0
C1573 C 0.01482 0.29907 0.62612 0.0
C1574 C 0.02625 0.29811 0.6393 0.0
C1575 C 0.03755 0.31175 0.6457 0.0
H1576 H 0.00608 0.2885 0.62118 0.0
H1577 H 0.12044 0.41627 0.6836 0.0
H1578 H 0.81886 0.59403 0.12159 0.0
H1579 H 0.8185 0.61247 0.10115 0.0
H1580 H 0.81101 0.65744 0.14342 0.0
H1581 H 0.8111 0.63905 0.16396 0.0
H1582 H 0.79025 0.65818 0.1169 0.0
H1583 H 0.84982 0.64899 0.12388 0.0
H1584 H 0.87591 0.63192 0.12445 0.0
H1585 H 0.86904 0.60645 0.07075 0.0
H1586 H 0.84276 0.6232 0.06993 0.0
H1587 H 0.80776 0.72016 0.06825 0.0
H1588 H 0.80939 0.70284 0.08969 0.0
H1589 H 0.81577 0.65657 0.04869 0.0
H1590 H 0.81435 0.67381 0.02717 0.0
H1591 H 0.83756 0.65724 0.0752 0.0
H1592 H 0.77755 0.66614 0.0686 0.0
H1593 H 0.75155 0.68339 0.06819 0.0
H1594 H 0.75949 0.70972 0.12149 0.0
H1595 H 0.78568 0.69277 0.12214 0.0
C1596 C 0.81715 0.60785 0.12656 0.0
C1597 C 0.81506 0.61508 0.14442 0.0
C1598 C 0.81703 0.61838 0.11486 0.0
C1599 C 0.81495 0.63637 0.12078 0.0
C1600 C 0.81268 0.6436 0.13857 0.0
C1601 C 0.81278 0.63307 0.15029 0.0
C1602 C 0.81492 0.64758 0.10835 0.0
C1603 C 0.80071 0.65817 0.10796 0.0
C1604 C 0.82841 0.64731 0.09645 0.0
C1605 C 0.84423 0.63723 0.09689 0.0
C1606 C 0.85379 0.63965 0.11223 0.0
C1607 C 0.86863 0.63005 0.11259 0.0
C1608 C 0.8741 0.61808 0.09766 0.0
C1609 C 0.86477 0.61571 0.08232 0.0
C1610 C 0.84991 0.62526 0.08189 0.0
C1611 C 0.80957 0.7063 0.06378 0.0
C1612 C 0.81086 0.69835 0.04599 0.0
C1613 C 0.81042 0.69642 0.07606 0.0
C1614 C 0.8125 0.67839 0.07077 0.0
C1615 C 0.81414 0.67046 0.05305 0.0
C1616 C 0.81328 0.68033 0.04076 0.0
C1617 C 0.81286 0.66775 0.0837 0.0
C1618 C 0.82713 0.65727 0.08419 0.0
C1619 C 0.79944 0.66815 0.09572 0.0
C1620 C 0.78367 0.67831 0.09536 0.0
C1621 C 0.77382 0.67571 0.08019 0.0
C1622 C 0.75904 0.68541 0.07992 0.0
C1623 C 0.7539 0.69768 0.09479 0.0
C1624 C 0.76351 0.70023 0.10997 0.0
C1625 C 0.77831 0.69057 0.1103 0.0
H1626 H 0.74244 0.70517 0.09456 0.0
H1627 H 0.8856 0.61066 0.09796 0.0
H1628 H 0.91202 0.28932 0.34702 0.0
H1629 H 0.89268 0.29225 0.37169 0.0
H1630 H 0.84994 0.2802 0.3368 0.0
H1631 H 0.86916 0.27736 0.31203 0.0
H1632 H 0.84336 0.30771 0.36444 0.0
H1633 H 0.8657 0.24983 0.35503 0.0
H1634 H 0.88844 0.22788 0.35136 0.0
H1635 H 0.90776 0.25185 0.402 0.0
H1636 H 0.88526 0.2741 0.40587 0.0
H1637 H 0.78124 0.28656 0.42089 0.0
H1638 H 0.80114 0.28743 0.3975 0.0
H1639 H 0.84298 0.29487 0.43369 0.0
H1640 H 0.82318 0.29356 0.4571 0.0
H1641 H 0.85073 0.27083 0.40594 0.0
H1642 H 0.82795 0.32806 0.41617 0.0
H1643 H 0.80559 0.3504 0.42 0.0
H1644 H 0.7875 0.32849 0.3684 0.0
H1645 H 0.80962 0.30587 0.36433 0.0
C1646 C 0.89851 0.28729 0.34457 0.0
C1647 C 0.89215 0.28302 0.32754 0.0
C1648 C 0.88748 0.28894 0.35869 0.0
C1649 C 0.8699 0.2863 0.35606 0.0
C1650 C 0.86347 0.28229 0.3391 0.0
C1651 C 0.87449 0.28059 0.32497 0.0
C1652 C 0.85821 0.28751 0.37098 0.0
C1653 C 0.84483 0.29953 0.37343 0.0
C1654 C 0.86044 0.27715 0.38294 0.0
C1655 C 0.87391 0.26373 0.38067 0.0
C1656 C 0.87488 0.2505 0.36533 0.0
C1657 C 0.88771 0.23799 0.36322 0.0
C1658 C 0.89956 0.2385 0.37642 0.0
C1659 C 0.89858 0.25149 0.39177 0.0
C1660 C 0.88579 0.26404 0.39394 0.0
C1661 C 0.79466 0.28856 0.42392 0.0
C1662 C 0.80063 0.28998 0.44086 0.0
C1663 C 0.80602 0.28913 0.41053 0.0
C1664 C 0.82356 0.29139 0.41384 0.0
C1665 C 0.82951 0.29311 0.43081 0.0
C1666 C 0.81817 0.29241 0.44419 0.0
C1667 C 0.83577 0.29104 0.39946 0.0
C1668 C 0.84927 0.27913 0.39706 0.0
C1669 C 0.83367 0.30157 0.38761 0.0
C1670 C 0.82035 0.31517 0.39001 0.0
C1671 C 0.81912 0.32792 0.40568 0.0
C1672 C 0.80651 0.34065 0.40789 0.0
C1673 C 0.79511 0.34084 0.39447 0.0
C1674 C 0.79633 0.32832 0.37879 0.0
C1675 C 0.80891 0.31555 0.37652 0.0
H1676 H 0.78535 0.35071 0.3962 0.0
H1677 H 0.90948 0.2288 0.37476 0.0
H1678 H 0.07164 0.62802 0.40871 0.0
H1679 H 0.05215 0.63561 0.38782 0.0
H1680 H 0.09494 0.64671 0.35815 0.0
H1681 H 0.11456 0.63935 0.3791 0.0
H1682 H 0.07031 0.67113 0.36136 0.0
H1683 H 0.07328 0.60888 0.34521 0.0
H1684 H 0.07143 0.57958 0.35023 0.0
H1685 H 0.01879 0.58804 0.36465 0.0
H1686 H 0.02039 0.61749 0.35994 0.0
H1687 H 0.02778 0.67159 0.28348 0.0
H1688 H 0.04663 0.66305 0.30434 0.0
H1689 H 0.00302 0.65351 0.33377 0.0
H1690 H 0.98402 0.66197 0.31291 0.0
H1691 H 0.02759 0.62839 0.33101 0.0
H1692 H 0.02424 0.69025 0.34719 0.0
H1693 H 0.0257 0.71973 0.34257 0.0
H1694 H 0.07854 0.7123 0.32866 0.0
H1695 H 0.07734 0.68266 0.33297 0.0
C1696 C 0.07693 0.63214 0.39778 0.0
C1697 C 0.09467 0.63299 0.39552 0.0
C1698 C 0.06576 0.6364 0.38581 0.0
C1699 C 0.0721 0.64149 0.3713 0.0
C1700 C 0.08979 0.64276 0.36923 0.0
C1701 C 0.10097 0.63851 0.3812 0.0
C1702 C 0.0603 0.64535 0.35819 0.0
C1703 C 0.06112 0.66171 0.35455 0.0
C1704 C 0.04802 0.6332 0.34965 0.0
C1705 C 0.047 0.61545 0.35238 0.0
C1706 C 0.06134 0.60454 0.34957 0.0
C1707 C 0.06033 0.58789 0.35234 0.0
C1708 C 0.04501 0.58197 0.3578 0.0
C1709 C 0.03066 0.59265 0.36045 0.0
C1710 C 0.0316 0.60932 0.35771 0.0
C1711 C 0.02217 0.6675 0.29428 0.0
C1712 C 0.0044 0.66756 0.2966 0.0
C1713 C 0.03297 0.66271 0.30624 0.0
C1714 C 0.02622 0.6579 0.32073 0.0
C1715 C 0.00847 0.65725 0.3227 0.0
C1716 C -0.00235 0.6621 0.31078 0.0
C1717 C 0.0377 0.65411 0.3341 0.0
C1718 C 0.03679 0.63779 0.33781 0.0
C1719 C 0.04986 0.66632 0.34276 0.0
C1720 C 0.05065 0.68417 0.34023 0.0
C1721 C 0.03614 0.69485 0.34301 0.0
C1722 C 0.03692 0.7116 0.34047 0.0
C1723 C 0.05219 0.71787 0.33528 0.0
C1724 C 0.06672 0.70741 0.33266 0.0
C1725 C 0.066 0.69064 0.33516 0.0
H1726 H 0.05277 0.73084 0.33333 0.0
H1727 H 0.04426 0.56908 0.35994 0.0
H1728 H 0.414 0.19196 0.40194 0.0
H1729 H 0.38571 0.18925 0.41357 0.0
H1730 H 0.4079 0.17441 0.45736 0.0
H1731 H 0.43651 0.17687 0.4456 0.0
H1732 H 0.38084 0.154 0.44436 0.0
H1733 H 0.39158 0.21446 0.46263 0.0
H1734 H 0.40043 0.24331 0.45968 0.0
H1735 H 0.36027 0.24288 0.423 0.0
H1736 H 0.35131 0.2139 0.42554 0.0
H1737 H 0.2986 0.16376 0.48618 0.0
H1738 H 0.32891 0.1665 0.47992 0.0
H1739 H 0.31589 0.18041 0.43244 0.0
H1740 H 0.28563 0.17775 0.4386 0.0
H1741 H 0.33952 0.20235 0.45142 0.0
H1742 H 0.33072 0.14052 0.43165 0.0
H1743 H 0.32219 0.11166 0.43486 0.0
H1744 H 0.35902 0.11513 0.47541 0.0
H1745 H 0.36762 0.14413 0.47259 0.0
C1746 C 0.41295 0.18814 0.41407 0.0
C1747 C 0.42755 0.18471 0.42288 0.0
C1748 C 0.39672 0.18667 0.42074 0.0
C1749 C 0.39469 0.18189 0.43647 0.0
C1750 C 0.4092 0.17821 0.44524 0.0
C1751 C 0.42552 0.17966 0.43853 0.0
C1752 C 0.3773 0.18058 0.44344 0.0
C1753 C 0.37189 0.16468 0.44625 0.0
C1754 C 0.36557 0.19445 0.4457 0.0
C1755 C 0.37084 0.21194 0.44419 0.0
C1756 C 0.3847 0.22046 0.45384 0.0
C1757 C 0.38973 0.23685 0.45226 0.0
C1758 C 0.38094 0.24491 0.44114 0.0
C1759 C 0.36707 0.23661 0.43161 0.0
C1760 C 0.36199 0.22021 0.43313 0.0
C1761 C 0.30219 0.16732 0.47437 0.0
C1762 C 0.28969 0.17053 0.46288 0.0
C1763 C 0.31952 0.16884 0.47079 0.0
C1764 C 0.32465 0.1736 0.45568 0.0
C1765 C 0.3122 0.17675 0.44419 0.0
C1766 C 0.29491 0.17516 0.4477 0.0
C1767 C 0.34295 0.17565 0.45189 0.0
C1768 C 0.34853 0.19174 0.44973 0.0
C1769 C 0.35483 0.162 0.45034 0.0
C1770 C 0.34966 0.14458 0.45205 0.0
C1771 C 0.33689 0.1352 0.44136 0.0
C1772 C 0.33206 0.1188 0.44309 0.0
C1773 C 0.34002 0.11159 0.45537 0.0
C1774 C 0.35285 0.12074 0.46593 0.0
C1775 C 0.35771 0.13716 0.46426 0.0
H1776 H 0.33627 0.09888 0.45669 0.0
H1777 H 0.38485 0.2576 0.43993 0.0
H1778 H 0.36556 0.52956 0.76175 0.0
H1779 H 0.38176 0.5565 0.76489 0.0
H1780 H 0.33487 0.58464 0.76461 0.0
H1781 H 0.31867 0.5579 0.76132 0.0
H1782 H 0.35826 0.59333 0.74341 0.0
H1783 H 0.35653 0.58662 0.80213 0.0
H1784 H 0.3613 0.57132 0.82518 0.0
H1785 H 0.415 0.56911 0.81435 0.0
H1786 H 0.41051 0.5842 0.79107 0.0
H1787 H 0.38414 0.68005 0.77397 0.0
H1788 H 0.37075 0.65174 0.77059 0.0
H1789 H 0.41995 0.62885 0.77446 0.0
H1790 H 0.4334 0.65727 0.77834 0.0
H1791 H 0.39728 0.6163 0.79267 0.0
H1792 H 0.39956 0.62404 0.73498 0.0
H1793 H 0.39515 0.63917 0.71175 0.0
H1794 H 0.34106 0.63896 0.71999 0.0
H1795 H 0.34516 0.62403 0.74345 0.0
C1796 C 0.35871 0.5415 0.76241 0.0
C1797 C 0.34082 0.54158 0.76129 0.0
C1798 C 0.36798 0.55688 0.76425 0.0
C1799 C 0.3595 0.57259 0.76508 0.0
C1800 C 0.34167 0.57266 0.76397 0.0
C1801 C 0.33243 0.55735 0.76214 0.0
C1802 C 0.36909 0.58901 0.76685 0.0
C1803 C 0.36667 0.59844 0.75427 0.0
C1804 C 0.38046 0.59541 0.78073 0.0
C1805 C 0.38316 0.58636 0.79473 0.0
C1806 C 0.36934 0.58274 0.80457 0.0
C1807 C 0.37199 0.57413 0.81769 0.0
C1808 C 0.38843 0.5692 0.82119 0.0
C1809 C 0.40226 0.57291 0.81161 0.0
C1810 C 0.39968 0.5815 0.79845 0.0
C1811 C 0.39213 0.669 0.7741 0.0
C1812 C 0.40985 0.67089 0.77634 0.0
C1813 C 0.38446 0.65279 0.77208 0.0
C1814 C 0.39437 0.63809 0.77197 0.0
C1815 C 0.41205 0.63999 0.77445 0.0
C1816 C 0.41972 0.65624 0.77662 0.0
C1817 C 0.38624 0.62078 0.76937 0.0
C1818 C 0.38896 0.61115 0.78174 0.0
C1819 C 0.3752 0.61414 0.75524 0.0
C1820 C 0.37268 0.62304 0.74107 0.0
C1821 C 0.38673 0.62733 0.73192 0.0
C1822 C 0.38429 0.63585 0.7187 0.0
C1823 C 0.36784 0.64006 0.71442 0.0
C1824 C 0.35379 0.63571 0.72333 0.0
C1825 C 0.35617 0.6272 0.73658 0.0
H1826 H 0.36597 0.64666 0.70418 0.0
H1827 H 0.39046 0.56254 0.83136 0.0
H1828 H 0.67967 0.86957 0.49525 0.0
H1829 H 0.65361 0.85329 0.4855 0.0
H1830 H 0.62341 0.89775 0.51009 0.0
H1831 H 0.6494 0.91402 0.52022 0.0
H1832 H 0.60931 0.86874 0.51504 0.0
H1833 H 0.63117 0.88793 0.46644 0.0
H1834 H 0.65282 0.89146 0.44506 0.0
H1835 H 0.65646 0.83626 0.4264 0.0
H1836 H 0.63498 0.83239 0.44785 0.0
H1837 H 0.53198 0.84409 0.46884 0.0
H1838 H 0.55813 0.85941 0.48026 0.0
H1839 H 0.5876 0.81377 0.45774 0.0
H1840 H 0.56155 0.79839 0.44615 0.0
H1841 H 0.60212 0.84293 0.45207 0.0
H1842 H 0.57767 0.82443 0.49971 0.0
H1843 H 0.55521 0.82185 0.52061 0.0
H1844 H 0.55573 0.87693 0.54119 0.0
H1845 H 0.57797 0.87991 0.52017 0.0
C1846 C 0.66749 0.87588 0.49866 0.0
C1847 C 0.66662 0.89316 0.50838 0.0
C1848 C 0.6526 0.86656 0.49304 0.0
C1849 C 0.63656 0.87439 0.49683 0.0
C1850 C 0.63564 0.89146 0.50698 0.0
C1851 C 0.65053 0.90076 0.51269 0.0
C1852 C 0.62077 0.86499 0.48977 0.0
C1853 C 0.60763 0.86328 0.50125 0.0
C1854 C 0.61872 0.85758 0.47181 0.0
C1855 C 0.6316 0.85987 0.45887 0.0
C1856 C 0.63668 0.87654 0.45787 0.0
C1857 C 0.64891 0.87861 0.44572 0.0
C1858 C 0.65605 0.86409 0.43441 0.0
C1859 C 0.65094 0.84749 0.43519 0.0
C1860 C 0.63873 0.84535 0.44733 0.0
C1861 C 0.54403 0.83731 0.46628 0.0
C1862 C 0.54468 0.81999 0.45664 0.0
C1863 C 0.55895 0.84608 0.47287 0.0
C1864 C 0.57478 0.83766 0.47001 0.0
C1865 C 0.57551 0.82048 0.46013 0.0
C1866 C 0.5606 0.8117 0.45356 0.0
C1867 C 0.59062 0.84674 0.47731 0.0
C1868 C 0.60378 0.84838 0.46587 0.0
C1869 C 0.59257 0.85421 0.49528 0.0
C1870 C 0.57931 0.85243 0.50811 0.0
C1871 C 0.57284 0.83603 0.50851 0.0
C1872 C 0.56019 0.83449 0.52043 0.0
C1873 C 0.55394 0.84923 0.53209 0.0
C1874 C 0.56052 0.86553 0.53206 0.0
C1875 C 0.57316 0.86715 0.52015 0.0
H1876 H 0.54396 0.84802 0.5411 0.0
H1877 H 0.66551 0.86572 0.42501 0.0
H1878 H 0.52302 0.40326 0.74907 0.0
H1879 H 0.5071 0.37621 0.74628 0.0
H1880 H 0.54529 0.3582 0.77667 0.0
H1881 H 0.56132 0.38492 0.77928 0.0
H1882 H 0.53732 0.33338 0.74877 0.0
H1883 H 0.50638 0.37375 0.79376 0.0
H1884 H 0.49005 0.40033 0.80619 0.0
H1885 H 0.45202 0.38499 0.76666 0.0
H1886 H 0.46825 0.35841 0.75386 0.0
H1887 H 0.49803 0.26789 0.78013 0.0
H1888 H 0.51094 0.29481 0.77695 0.0
H1889 H 0.46984 0.30186 0.74343 0.0
H1890 H 0.45673 0.27482 0.74656 0.0
H1891 H 0.4775 0.33181 0.76867 0.0
H1892 H 0.50704 0.28966 0.72575 0.0
H1893 H 0.52302 0.26264 0.71431 0.0
H1894 H 0.56348 0.28101 0.75037 0.0
H1895 H 0.54767 0.30808 0.76219 0.0
C1896 C 0.52797 0.39356 0.75521 0.0
C1897 C 0.54344 0.39626 0.7644 0.0
C1898 C 0.51885 0.37812 0.75363 0.0
C1899 C 0.52497 0.36519 0.76132 0.0
C1900 C 0.54035 0.36794 0.77055 0.0
C1901 C 0.54947 0.38329 0.77209 0.0
C1902 C 0.51557 0.34869 0.75978 0.0
C1903 C 0.52427 0.33305 0.75322 0.0
C1904 C 0.49836 0.34822 0.76507 0.0
C1905 C 0.48863 0.36421 0.77273 0.0
C1906 C 0.49461 0.37612 0.78763 0.0
C1907 C 0.48536 0.39117 0.79476 0.0
C1908 C 0.47004 0.39437 0.78718 0.0
C1909 C 0.46391 0.38251 0.77249 0.0
C1910 C 0.47313 0.36745 0.7653 0.0
C1911 C 0.49171 0.27512 0.77206 0.0
C1912 C 0.47633 0.26921 0.76361 0.0
C1913 C 0.49915 0.29048 0.7702 0.0
C1914 C 0.49141 0.30025 0.75984 0.0
C1915 C 0.47601 0.29448 0.75146 0.0
C1916 C 0.46858 0.27902 0.75324 0.0
C1917 C 0.49942 0.3166 0.7581 0.0
C1918 C 0.49046 0.33216 0.76398 0.0
C1919 C 0.51639 0.31702 0.75221 0.0
C1920 C 0.52611 0.30088 0.74493 0.0
C1921 C 0.51931 0.28791 0.73131 0.0
C1922 C 0.52834 0.27259 0.72475 0.0
C1923 C 0.54423 0.27009 0.73164 0.0
C1924 C 0.55116 0.28296 0.74506 0.0
C1925 C 0.54219 0.29832 0.75167 0.0
H1926 H 0.55118 0.25821 0.72657 0.0
H1927 H 0.46289 0.40603 0.79273 0.0
H1928 H 0.41802 0.79369 0.57683 0.0
H1929 H 0.38902 0.79844 0.56815 0.0
H1930 H 0.40628 0.7953 0.51598 0.0
H1931 H 0.43557 0.79057 0.5246 0.0
H1932 H 0.38256 0.82194 0.52791 0.0
H1933 H 0.38759 0.76119 0.52392 0.0
H1934 H 0.3949 0.73528 0.53416 0.0
H1935 H 0.35911 0.75034 0.57601 0.0
H1936 H 0.35176 0.77649 0.56616 0.0
H1937 H 0.29823 0.80988 0.49243 0.0
H1938 H 0.32854 0.80722 0.49847 0.0
H1939 H 0.31634 0.80527 0.55085 0.0
H1940 H 0.28604 0.80765 0.54485 0.0
H1941 H 0.33819 0.7804 0.53665 0.0
H1942 H 0.33382 0.84161 0.54143 0.0
H1943 H 0.32671 0.86784 0.53164 0.0
H1944 H 0.36114 0.85221 0.48865 0.0
H1945 H 0.36828 0.82576 0.49807 0.0
C1946 C 0.41574 0.79411 0.56352 0.0
C1947 C 0.42911 0.79161 0.55137 0.0
C1948 C 0.39912 0.79679 0.55858 0.0
C1949 C 0.39547 0.79697 0.54137 0.0
C1950 C 0.40884 0.79513 0.52932 0.0
C1951 C 0.42554 0.79239 0.53425 0.0
C1952 C 0.37756 0.79853 0.53603 0.0
C1953 C 0.37287 0.81273 0.52954 0.0
C1954 C 0.36492 0.78665 0.53847 0.0
C1955 C 0.36923 0.77088 0.54438 0.0
C1956 C 0.38137 0.75905 0.53538 0.0
C1957 C 0.38551 0.74431 0.54111 0.0
C1958 C 0.3775 0.74119 0.55575 0.0
C1959 C 0.36531 0.75278 0.56468 0.0
C1960 C 0.36114 0.76756 0.55902 0.0
C1961 C 0.302 0.80897 0.50527 0.0
C1962 C 0.28971 0.80895 0.51816 0.0
C1963 C 0.31935 0.80753 0.50871 0.0
C1964 C 0.32473 0.80618 0.52515 0.0
C1965 C 0.31248 0.80629 0.53807 0.0
C1966 C 0.29516 0.80769 0.53463 0.0
C1967 C 0.34305 0.80401 0.5288 0.0
C1968 C 0.34784 0.78961 0.53493 0.0
C1969 C 0.35574 0.81573 0.52604 0.0
C1970 C 0.35144 0.83161 0.52035 0.0
C1971 C 0.33976 0.84369 0.5298 0.0
C1972 C 0.33575 0.85861 0.52434 0.0
C1973 C 0.34343 0.86166 0.5095 0.0
C1974 C 0.35518 0.84982 0.50013 0.0
C1975 C 0.35922 0.83486 0.50553 0.0
H1976 H 0.34031 0.87323 0.5053 0.0
H1977 H 0.38072 0.72977 0.56016 0.0
H1978 H 0.55507 0.59304 0.20187 0.0
H1979 H 0.54049 0.62072 0.20559 0.0
H1980 H 0.51342 0.61167 0.24979 0.0
H1981 H 0.5279 0.58374 0.24606 0.0
H1982 H 0.49277 0.6258 0.229 0.0
H1983 H 0.54712 0.63809 0.25628 0.0
H1984 H 0.57842 0.63683 0.25842 0.0
H1985 H 0.58365 0.6615 0.21634 0.0
H1986 H 0.55237 0.66268 0.21378 0.0
H1987 H 0.46643 0.71429 0.25633 0.0
H1988 H 0.47924 0.68622 0.2561 0.0
H1989 H 0.51014 0.68949 0.21211 0.0
H1990 H 0.4976 0.71756 0.21237 0.0
H1991 H 0.52853 0.67846 0.23571 0.0
H1992 H 0.47426 0.66442 0.20727 0.0
H1993 H 0.44296 0.66545 0.2049 0.0
H1994 H 0.43763 0.64413 0.24928 0.0
H1995 H 0.46892 0.64318 0.25204 0.0
C1996 C 0.54593 0.59683 0.21232 0.0
C1997 C 0.54276 0.58623 0.22376 0.0
C1998 C 0.53765 0.61271 0.21446 0.0
C1999 C 0.52611 0.6184 0.22816 0.0
C2000 C 0.52236 0.60756 0.2392 0.0
C2001 C 0.53066 0.59162 0.23705 0.0
C2002 C 0.51837 0.63587 0.23111 0.0
C2003 C 0.50057 0.63736 0.23076 0.0
C2004 C 0.52856 0.65092 0.23318 0.0
C2005 C 0.54739 0.65034 0.23475 0.0
C2006 C 0.55494 0.64313 0.2474 0.0
C2007 C 0.57268 0.64245 0.2487 0.0
C2008 C 0.58302 0.64905 0.2375 0.0
C2009 C 0.57563 0.65638 0.225 0.0
C2010 C 0.5579 0.65708 0.22363 0.0
C2011 C 0.47598 0.70905 0.24663 0.0
C2012 C 0.48091 0.71812 0.23429 0.0
C2013 C 0.48324 0.69298 0.24648 0.0
C2014 C 0.4955 0.68566 0.23395 0.0
C2015 C 0.50068 0.69487 0.22187 0.0
C2016 C 0.49345 0.71091 0.22201 0.0
C2017 C 0.50294 0.66837 0.23326 0.0
C2018 C 0.52072 0.66693 0.23409 0.0
C2019 C 0.49272 0.65339 0.23164 0.0
C2020 C 0.47392 0.65392 0.22997 0.0
C2021 C 0.46641 0.66008 0.2166 0.0
C2022 C 0.44867 0.66062 0.21518 0.0
C2023 C 0.43831 0.65491 0.22697 0.0
C2024 C 0.44567 0.64858 0.24018 0.0
C2025 C 0.4634 0.64803 0.24167 0.0
H2026 H 0.42458 0.65533 0.22584 0.0
H2027 H 0.59675 0.64851 0.23853 0.0
H2028 H 0.66381 0.06932 0.48301 0.0
H2029 H 0.63908 0.0871 0.49421 0.0
H2030 H 0.6714 0.12278 0.52982 0.0
H2031 H 0.6962 0.10481 0.51894 0.0
H2032 H 0.64339 0.11725 0.54575 0.0
H2033 H 0.65586 0.13276 0.49312 0.0
H2034 H 0.66193 0.12888 0.462 0.0
H2035 H 0.61314 0.10469 0.44926 0.0
H2036 H 0.60685 0.10822 0.48031 0.0
H2037 H 0.58014 0.18417 0.56493 0.0
H2038 H 0.60609 0.16771 0.55488 0.0
H2039 H 0.57586 0.12662 0.52346 0.0
H2040 H 0.54985 0.14294 0.53347 0.0
H2041 H 0.6036 0.13644 0.50577 0.0
H2042 H 0.59234 0.12152 0.56024 0.0
H2043 H 0.58704 0.12813 0.59174 0.0
H2044 H 0.63518 0.15442 0.60118 0.0
H2045 H 0.64067 0.14816 0.56971 0.0
C2046 C 0.66567 0.08091 0.49326 0.0
C2047 C 0.68199 0.08566 0.50005 0.0
C2048 C 0.65152 0.09114 0.49958 0.0
C2049 C 0.6534 0.10643 0.51268 0.0
C2050 C 0.66964 0.11105 0.51969 0.0
C2051 C 0.6838 0.10076 0.51345 0.0
C2052 C 0.63836 0.11744 0.51916 0.0
C2053 C 0.63484 0.12165 0.53701 0.0
C2054 C 0.6271 0.12308 0.50778 0.0
C2055 C 0.63095 0.12061 0.48906 0.0
C2056 C 0.64649 0.12644 0.48369 0.0
C2057 C 0.64997 0.12434 0.46606 0.0
C2058 C 0.63798 0.11647 0.45367 0.0
C2059 C 0.62246 0.11072 0.45887 0.0
C2060 C 0.61892 0.11279 0.47649 0.0
C2061 C 0.57901 0.17161 0.55593 0.0
C2062 C 0.56293 0.16485 0.55001 0.0
C2063 C 0.59384 0.16221 0.55024 0.0
C2064 C 0.59287 0.14592 0.5385 0.0
C2065 C 0.57687 0.13918 0.53253 0.0
C2066 C 0.56202 0.14849 0.53831 0.0
C2067 C 0.60855 0.13598 0.53225 0.0
C2068 C 0.6122 0.13202 0.51445 0.0
C2069 C 0.62008 0.13086 0.54371 0.0
C2070 C 0.61683 0.13452 0.56262 0.0
C2071 C 0.60173 0.12883 0.56903 0.0
C2072 C 0.59871 0.13249 0.58688 0.0
C2073 C 0.61075 0.14173 0.59845 0.0
C2074 C 0.62586 0.14729 0.5922 0.0
C2075 C 0.62894 0.14367 0.57436 0.0
H2076 H 0.60838 0.14456 0.61226 0.0
H2077 H 0.64069 0.11494 0.44004 0.0
H2078 H 0.32217 0.43027 0.25449 0.0
H2079 H 0.34009 0.4046 0.24744 0.0
H2080 H 0.374 0.42984 0.21857 0.0
H2081 H 0.35583 0.45567 0.22535 0.0
H2082 H 0.36701 0.39766 0.20065 0.0
H2083 H 0.38612 0.42325 0.25774 0.0
H2084 H 0.38376 0.43703 0.28896 0.0
H2085 H 0.35917 0.39158 0.2974 0.0
H2086 H 0.36116 0.3776 0.26618 0.0
H2087 H 0.42628 0.32716 0.19196 0.0
H2088 H 0.41384 0.35624 0.19964 0.0
H2089 H 0.37255 0.33742 0.22591 0.0
H2090 H 0.38481 0.30835 0.21824 0.0
H2091 H 0.38693 0.36825 0.24526 0.0
H2092 H 0.36573 0.34424 0.18728 0.0
H2093 H 0.36862 0.33075 0.15604 0.0
H2094 H 0.39844 0.37401 0.14957 0.0
H2095 H 0.39591 0.38764 0.18085 0.0
C2096 C 0.33349 0.43047 0.24674 0.0
C2097 C 0.33757 0.44505 0.2405 0.0
C2098 C 0.3438 0.41578 0.2428 0.0
C2099 C 0.35853 0.41535 0.23267 0.0
C2100 C 0.36273 0.42991 0.22646 0.0
C2101 C 0.35236 0.44467 0.23039 0.0
C2102 C 0.36901 0.39936 0.22803 0.0
C2103 C 0.37168 0.39143 0.21043 0.0
C2104 C 0.37492 0.39108 0.24077 0.0
C2105 C 0.37368 0.39942 0.25958 0.0
C2106 C 0.38009 0.41623 0.26623 0.0
C2107 C 0.37884 0.42407 0.28393 0.0
C2108 C 0.37129 0.4152 0.29515 0.0
C2109 C 0.36501 0.39844 0.28869 0.0
C2110 C 0.36622 0.39055 0.27099 0.0
C2111 C 0.41454 0.32921 0.19935 0.0
C2112 C 0.40651 0.31544 0.20446 0.0
C2113 C 0.40744 0.34582 0.20369 0.0
C2114 C 0.39225 0.34895 0.21329 0.0
C2115 C 0.38429 0.33527 0.21851 0.0
C2116 C 0.39128 0.31865 0.21405 0.0
C2117 C 0.38456 0.36646 0.21794 0.0
C2118 C 0.38245 0.37465 0.23554 0.0
C2119 C 0.3793 0.37503 0.20522 0.0
C2120 C 0.38081 0.36685 0.18643 0.0
C2121 C 0.37304 0.35079 0.17922 0.0
C2122 C 0.37458 0.34314 0.1615 0.0
C2123 C 0.38375 0.35149 0.15083 0.0
C2124 C 0.39136 0.36754 0.15786 0.0
C2125 C 0.38987 0.37524 0.17558 0.0
H2126 H 0.38493 0.34555 0.13712 0.0
H2127 H 0.37034 0.42129 0.30885 0.0
H2128 H 0.12948 0.41681 0.47002 0.0
H2129 H 0.12444 0.42126 0.44111 0.0
H2130 H 0.17392 0.4451 0.44193 0.0
H2131 H 0.17906 0.44076 0.47091 0.0
H2132 H 0.14893 0.46368 0.43061 0.0
H2133 H 0.16802 0.40482 0.41807 0.0
H2134 H 0.16821 0.37451 0.42039 0.0
H2135 H 0.11672 0.36798 0.40176 0.0
H2136 H 0.11613 0.39834 0.39956 0.0
H2137 H 0.14989 0.46396 0.34121 0.0
H2138 H 0.15713 0.45881 0.36941 0.0
H2139 H 0.10915 0.43253 0.37034 0.0
H2140 H 0.10191 0.43741 0.34208 0.0
H2141 H 0.13465 0.41501 0.38055 0.0
H2142 H 0.11498 0.47386 0.39411 0.0
H2143 H 0.1143 0.50426 0.39209 0.0
H2144 H 0.16633 0.51091 0.40906 0.0
H2145 H 0.1674 0.48046 0.41096 0.0
C2146 C 0.13931 0.42297 0.46406 0.0
C2147 C 0.15469 0.4284 0.47276 0.0
C2148 C 0.13644 0.42544 0.4475 0.0
C2149 C 0.14887 0.43337 0.43932 0.0
C2150 C 0.16417 0.43893 0.44801 0.0
C2151 C 0.1671 0.43639 0.46454 0.0
C2152 C 0.14577 0.43607 0.42178 0.0
C2153 C 0.14608 0.45302 0.41959 0.0
C2154 C 0.14166 0.42219 0.40752 0.0
C2155 C 0.14198 0.40391 0.40881 0.0
C2156 C 0.15669 0.39697 0.41461 0.0
C2157 C 0.15688 0.37977 0.41587 0.0
C2158 C 0.14247 0.36934 0.41127 0.0
C2159 C 0.12786 0.37608 0.40534 0.0
C2160 C 0.1276 0.39328 0.40407 0.0
C2161 C 0.14088 0.45707 0.3474 0.0
C2162 C 0.12529 0.45115 0.33941 0.0
C2163 C 0.14502 0.45419 0.36355 0.0
C2164 C 0.1336 0.44544 0.37207 0.0
C2165 C 0.11814 0.43932 0.36401 0.0
C2166 C 0.11401 0.44217 0.34787 0.0
C2167 C 0.13771 0.44265 0.38939 0.0
C2168 C 0.13759 0.42568 0.39154 0.0
C2169 C 0.14192 0.45652 0.40363 0.0
C2170 C 0.14132 0.47483 0.40249 0.0
C2171 C 0.12633 0.48176 0.39727 0.0
C2172 C 0.12586 0.49901 0.39617 0.0
C2173 C 0.14028 0.50949 0.40039 0.0
C2174 C 0.15518 0.50276 0.40577 0.0
C2175 C 0.15572 0.48551 0.40686 0.0
H2176 H 0.1399 0.52284 0.39955 0.0
H2177 H 0.14265 0.35602 0.41225 0.0
H2178 H 0.08266 0.56141 0.65214 0.0
H2179 H 0.08667 0.56739 0.62354 0.0
H2180 H 0.12959 0.53254 0.61397 0.0
H2181 H 0.12579 0.52662 0.64233 0.0
H2182 H 0.13677 0.56317 0.60622 0.0
H2183 H 0.09113 0.5206 0.5953 0.0
H2184 H 0.0626 0.50952 0.60002 0.0
H2185 H 0.03948 0.55381 0.5876 0.0
H2186 H 0.0679 0.56526 0.58302 0.0
H2187 H 0.15297 0.545 0.51714 0.0
H2188 H 0.14543 0.54345 0.54648 0.0
H2189 H 0.10154 0.57575 0.54537 0.0
H2190 H 0.10875 0.57691 0.51572 0.0
H2191 H 0.09321 0.55046 0.55972 0.0
H2192 H 0.13801 0.59206 0.56814 0.0
H2193 H 0.16622 0.60396 0.56366 0.0
H2194 H 0.19058 0.56325 0.58146 0.0
H2195 H 0.16251 0.55097 0.58582 0.0
C2196 C 0.0929 0.55499 0.64389 0.0
C2197 C 0.10392 0.54355 0.64952 0.0
C2198 C 0.09515 0.55839 0.62756 0.0
C2199 C 0.10841 0.55037 0.61662 0.0
C2200 C 0.11932 0.53892 0.62222 0.0
C2201 C 0.11708 0.53551 0.63845 0.0
C2202 C 0.11129 0.55395 0.59941 0.0
C2203 C 0.12729 0.56028 0.596 0.0
C2204 C 0.0987 0.55079 0.58631 0.0
C2205 C 0.08164 0.54388 0.58902 0.0
C2206 C 0.07997 0.52804 0.59372 0.0
C2207 C 0.06382 0.52168 0.59634 0.0
C2208 C 0.04924 0.53098 0.59417 0.0
C2209 C 0.05078 0.54664 0.58932 0.0
C2210 C 0.0669 0.55306 0.58669 0.0
C2211 C 0.14171 0.55179 0.52312 0.0
C2212 C 0.13151 0.56116 0.51414 0.0
C2213 C 0.13746 0.55097 0.53995 0.0
C2214 C 0.12309 0.55977 0.54828 0.0
C2215 C 0.11272 0.56892 0.53924 0.0
C2216 C 0.11687 0.5696 0.52231 0.0
C2217 C 0.1189 0.55921 0.56635 0.0
C2218 C 0.10265 0.55354 0.56996 0.0
C2219 C 0.13122 0.56314 0.57973 0.0
C2220 C 0.14814 0.57052 0.57719 0.0
C2221 C 0.14938 0.58558 0.57099 0.0
C2222 C 0.16535 0.5924 0.56848 0.0
C2223 C 0.18018 0.58435 0.57224 0.0
C2224 C 0.17908 0.56947 0.57854 0.0
C2225 C 0.16314 0.56259 0.58106 0.0
H2226 H 0.19253 0.58965 0.57029 0.0
H2227 H 0.03675 0.52603 0.5962 0.0
H2228 H 0.75776 0.65028 0.44391 0.0
H2229 H 0.75871 0.63139 0.41457 0.0
H2230 H 0.7451 0.67458 0.3935 0.0
H2231 H 0.74379 0.69336 0.42264 0.0
H2232 H 0.72834 0.64622 0.37708 0.0
H2233 H 0.78679 0.66088 0.39445 0.0
H2234 H 0.81197 0.66233 0.41327 0.0
H2235 H 0.81153 0.60698 0.40479 0.0
H2236 H 0.78621 0.60523 0.38608 0.0
H2237 H 0.76025 0.62615 0.29168 0.0
H2238 H 0.75398 0.63811 0.32231 0.0
H2239 H 0.76756 0.58948 0.33342 0.0
H2240 H 0.77404 0.57741 0.30274 0.0
H2241 H 0.78252 0.61645 0.35573 0.0
H2242 H 0.7263 0.6017 0.33487 0.0
H2243 H 0.70159 0.60051 0.31552 0.0
H2244 H 0.69785 0.65595 0.33014 0.0
H2245 H 0.72271 0.6575 0.34938 0.0
C2246 C 0.75487 0.65571 0.43303 0.0
C2247 C 0.75081 0.67335 0.43561 0.0
C2248 C 0.75546 0.64491 0.41626 0.0
C2249 C 0.75216 0.65162 0.40181 0.0
C2250 C 0.74767 0.6691 0.40443 0.0
C2251 C 0.74701 0.67986 0.42113 0.0
C2252 C 0.75395 0.64074 0.38387 0.0
C2253 C 0.74021 0.63977 0.37238 0.0
C2254 C 0.76927 0.6319 0.37785 0.0
C2255 C 0.7845 0.63295 0.38905 0.0
C2256 C 0.79199 0.64904 0.39671 0.0
C2257 C 0.8063 0.64991 0.40734 0.0
C2258 C 0.81331 0.63476 0.41027 0.0
C2259 C 0.80606 0.6187 0.40254 0.0
C2260 C 0.79174 0.61776 0.39192 0.0
C2261 C 0.7618 0.61793 0.3006 0.0
C2262 C 0.76767 0.60082 0.29476 0.0
C2263 C 0.75811 0.62477 0.3181 0.0
C2264 C 0.76013 0.61463 0.33013 0.0
C2265 C 0.76587 0.5975 0.32435 0.0
C2266 C 0.76953 0.59063 0.3068 0.0
C2267 C 0.75705 0.62228 0.34884 0.0
C2268 C 0.77055 0.62264 0.36047 0.0
C2269 C 0.74152 0.63058 0.35496 0.0
C2270 C 0.72646 0.62972 0.34349 0.0
C2271 C 0.72029 0.61365 0.33387 0.0
C2272 C 0.70624 0.61291 0.32293 0.0
C2273 C 0.69817 0.62815 0.32158 0.0
C2274 C 0.70411 0.64416 0.3312 0.0
C2275 C 0.71817 0.64497 0.34214 0.0
H2276 H 0.6873 0.62755 0.3131 0.0
H2277 H 0.82439 0.63546 0.4185 0.0
H2278 H 0.72675 0.31307 0.57391 0.0
H2279 H 0.73242 0.33374 0.6014 0.0
H2280 H 0.77762 0.35112 0.57966 0.0
H2281 H 0.77219 0.33017 0.5521 0.0
H2282 H 0.78448 0.34417 0.60982 0.0
H2283 H 0.74218 0.37721 0.58945 0.0
H2284 H 0.71459 0.38292 0.57715 0.0
H2285 H 0.68837 0.37171 0.62056 0.0
H2286 H 0.71579 0.36569 0.63302 0.0
H2287 H 0.80015 0.40947 0.68665 0.0
H2288 H 0.79346 0.39574 0.65642 0.0
H2289 H 0.74859 0.37256 0.6727 0.0
H2290 H 0.75508 0.38637 0.70295 0.0
H2291 H 0.74242 0.38508 0.64415 0.0
H2292 H 0.78448 0.34923 0.66268 0.0
H2293 H 0.81202 0.34327 0.67493 0.0
H2294 H 0.83861 0.35984 0.63458 0.0
H2295 H 0.81121 0.36612 0.62221 0.0
C2296 C 0.73779 0.32143 0.57487 0.0
C2297 C 0.74907 0.3199 0.56082 0.0
C2298 C 0.74096 0.33334 0.5906 0.0
C2299 C 0.75537 0.3441 0.59257 0.0
C2300 C 0.76641 0.34295 0.57842 0.0
C2301 C 0.76326 0.331 0.56267 0.0
C2302 C 0.75956 0.35552 0.60979 0.0
C2303 C 0.77541 0.35339 0.61716 0.0
C2304 C 0.74759 0.36726 0.61955 0.0
C2305 C 0.73105 0.37087 0.61211 0.0
C2306 C 0.73052 0.37583 0.59631 0.0
C2307 C 0.71491 0.37914 0.58932 0.0
C2308 C 0.69973 0.37764 0.59805 0.0
C2309 C 0.70014 0.37285 0.61381 0.0
C2310 C 0.71571 0.36951 0.62086 0.0
C2311 C 0.7888 0.40154 0.68381 0.0
C2312 C 0.77822 0.3989 0.69723 0.0
C2313 C 0.78501 0.39368 0.66652 0.0
C2314 C 0.77063 0.38298 0.66233 0.0
C2315 C 0.75976 0.38076 0.67565 0.0
C2316 C 0.76354 0.3886 0.69295 0.0
C2317 C 0.76723 0.37356 0.64415 0.0
C2318 C 0.75154 0.37603 0.63666 0.0
C2319 C 0.77933 0.36213 0.63424 0.0
C2320 C 0.79581 0.35833 0.64164 0.0
C2321 C 0.7962 0.35174 0.65651 0.0
C2322 C 0.81178 0.34828 0.66345 0.0
C2323 C 0.82706 0.35123 0.65557 0.0
C2324 C 0.82677 0.3576 0.64069 0.0
C2325 C 0.81122 0.3611 0.6337 0.0
H2326 H 0.83911 0.34853 0.66097 0.0
H2327 H 0.68766 0.38021 0.59262 0.0
H2328 H 0.9472 0.93378 0.68187 0.0
H2329 H 0.9196 0.9451 0.67587 0.0
H2330 H 0.90014 0.89308 0.65864 0.0
H2331 H 0.92786 0.88156 0.66451 0.0
H2332 H 0.8905 0.914 0.63717 0.0
H2333 H 0.88983 0.91621 0.69795 0.0
H2334 H 0.90084 0.92359 0.72786 0.0
H2335 H 0.89933 0.97766 0.7286 0.0
H2336 H 0.88853 0.97058 0.69859 0.0
H2337 H 0.80275 0.9383 0.64072 0.0
H2338 H 0.83024 0.92523 0.6444 0.0
H2339 H 0.85146 0.97598 0.66556 0.0
H2340 H 0.82394 0.98911 0.66227 0.0
H2341 H 0.85989 0.95458 0.68488 0.0
H2342 H 0.86017 0.9524 0.62403 0.0
H2343 H 0.84882 0.94492 0.59426 0.0
H2344 H 0.85118 0.89088 0.59336 0.0
H2345 H 0.8621 0.89802 0.62332 0.0
C2346 C 0.93709 0.92471 0.67675 0.0
C2347 C 0.9397 0.90676 0.67377 0.0
C2348 C 0.9213 0.93122 0.67337 0.0
C2349 C 0.90777 0.91993 0.66701 0.0
C2350 C 0.91042 0.902 0.66359 0.0
C2351 C 0.92624 0.89545 0.66701 0.0
C2352 C 0.8908 0.92697 0.66429 0.0
C2353 C 0.88366 0.92269 0.64763 0.0
C2354 C 0.88208 0.93855 0.67789 0.0
C2355 C 0.88852 0.94285 0.69596 0.0
C2356 C 0.89197 0.92967 0.70444 0.0
C2357 C 0.89815 0.9338 0.72142 0.0
C2358 C 0.90082 0.95108 0.73011 0.0
C2359 C 0.89727 0.96427 0.72185 0.0
C2360 C 0.89111 0.96021 0.70486 0.0
C2361 C 0.81329 0.94668 0.64608 0.0
C2362 C 0.81117 0.96474 0.6512 0.0
C2363 C 0.82902 0.93919 0.64811 0.0
C2364 C 0.84296 0.94964 0.65509 0.0
C2365 C 0.84088 0.96767 0.66014 0.0
C2366 C 0.82514 0.97516 0.65821 0.0
C2367 C 0.8596 0.9418 0.65769 0.0
C2368 C 0.86668 0.94589 0.67438 0.0
C2369 C 0.86823 0.93007 0.64409 0.0
C2370 C 0.86179 0.92576 0.62601 0.0
C2371 C 0.85813 0.93892 0.61755 0.0
C2372 C 0.85179 0.93475 0.60063 0.0
C2373 C 0.84929 0.91745 0.59192 0.0
C2374 C 0.85311 0.90428 0.60013 0.0
C2375 C 0.85936 0.90838 0.61709 0.0
H2376 H 0.84441 0.91425 0.57881 0.0
H2377 H 0.9056 0.95425 0.74326 0.0
H2378 H 0.59314 0.05026 0.11955 0.0
H2379 H 0.59408 0.07709 0.10986 0.0
H2380 H 0.55572 0.09935 0.14759 0.0
H2381 H 0.55459 0.07248 0.15731 0.0
H2382 H 0.55 0.10679 0.11609 0.0
H2383 H 0.59644 0.11003 0.15588 0.0
H2384 H 0.62235 0.09979 0.16776 0.0
H2385 H 0.64908 0.09836 0.12029 0.0
H2386 H 0.62324 0.10835 0.10802 0.0
H2387 H 0.56528 0.19488 0.11293 0.0
H2388 H 0.56132 0.16801 0.12231 0.0
H2389 H 0.60055 0.14343 0.08671 0.0
H2390 H 0.60467 0.17013 0.0774 0.0
H2391 H 0.60521 0.13768 0.1182 0.0
H2392 H 0.55885 0.13393 0.07813 0.0
H2393 H 0.53297 0.14389 0.06596 0.0
H2394 H 0.50615 0.14621 0.11357 0.0
H2395 H 0.53197 0.13649 0.12612 0.0
C2396 C 0.58482 0.06081 0.12574 0.0
C2397 C 0.57386 0.05927 0.13928 0.0
C2398 C 0.58542 0.07616 0.12021 0.0
C2399 C 0.57512 0.09028 0.12816 0.0
C2400 C 0.5638 0.08861 0.14132 0.0
C2401 C 0.56322 0.07327 0.14689 0.0
C2402 C 0.57653 0.10692 0.123 0.0
C2403 C 0.56201 0.11369 0.11676 0.0
C2404 C 0.59227 0.11574 0.12361 0.0
C2405 C 0.60785 0.10978 0.13098 0.0
C2406 C 0.6078 0.1074 0.14792 0.0
C2407 C 0.62248 0.10166 0.15473 0.0
C2408 C 0.63734 0.09838 0.14477 0.0
C2409 C 0.63756 0.10088 0.12798 0.0
C2410 C 0.6229 0.10659 0.1211 0.0
C2411 C 0.57299 0.18372 0.10705 0.0
C2412 C 0.58531 0.18466 0.09444 0.0
C2413 C 0.57067 0.16836 0.11237 0.0
C2414 C 0.58059 0.15369 0.10514 0.0
C2415 C 0.59278 0.1546 0.09249 0.0
C2416 C 0.59509 0.16988 0.08715 0.0
C2417 C 0.57872 0.1375 0.11108 0.0
C2418 C 0.59317 0.13082 0.11753 0.0
C2419 C 0.56293 0.12879 0.11063 0.0
C2420 C 0.5474 0.13467 0.10313 0.0
C2421 C 0.54749 0.13672 0.08607 0.0
C2422 C 0.53282 0.14229 0.07909 0.0
C2423 C 0.51794 0.14573 0.08901 0.0
C2424 C 0.51769 0.14357 0.10591 0.0
C2425 C 0.53234 0.13802 0.11296 0.0
H2426 H 0.50659 0.15003 0.08358 0.0
H2427 H 0.6487 0.09395 0.15007 0.0
H2428 H 0.04968 0.04581 0.57748 0.0
H2429 H 0.07985 0.03791 0.57725 0.0
H2430 H 0.07469 0.02985 0.62869 0.0
H2431 H 0.04453 0.03764 0.62901 0.0
H2432 H 0.10283 0.0499 0.62506 0.0
H2433 H 0.07702 -0.0041 0.59547 0.0
H2434 H 0.05945 0.97683 0.57302 0.0
H2435 H 0.09159 0.98785 0.53329 0.0
H2436 H 0.10923 0.00719 0.55552 0.0
H2437 H 0.17681 0.00396 0.63497 0.0
H2438 H 0.1475 0.01281 0.63198 0.0
H2439 H 0.15802 0.01648 0.57977 0.0
H2440 H 0.18754 0.00739 0.58258 0.0
H2441 H 0.12778 0.00015 0.58202 0.0
H2442 H 0.15464 0.05281 0.61147 0.0
H2443 H 0.1723 0.07191 0.6338 0.0
H2444 H 0.13831 0.06391 0.6735 0.0
H2445 H 0.12057 0.04455 0.65142 0.0
C2446 C 0.05496 0.0423 0.58872 0.0
C2447 C 0.04472 0.04233 0.60326 0.0
C2448 C 0.07217 0.03775 0.58854 0.0
C2449 C 0.07946 0.03324 0.60293 0.0
C2450 C 0.06929 0.0333 0.61746 0.0
C2451 C 0.05205 0.03769 0.61759 0.0
C2452 C 0.09777 0.02874 0.60301 0.0
C2453 C 0.10827 0.03892 0.61576 0.0
C2454 C 0.10491 0.01475 0.59052 0.0
C2455 C 0.09432 0.00315 0.57715 0.0
C2456 C 0.08025 0.99439 0.58194 0.0
C2457 C 0.0703 0.9835 0.56926 0.0
C2458 C 0.07437 0.98117 0.55174 0.0
C2459 C 0.08843 0.98969 0.54686 0.0
C2460 C 0.09842 0.00061 0.5595 0.0
C2461 C 0.17296 0.00666 0.62283 0.0
C2462 C 0.18455 0.00504 0.60903 0.0
C2463 C 0.15619 0.01179 0.62118 0.0
C2464 C 0.15064 0.01553 0.60574 0.0
C2465 C 0.16208 0.01372 0.59182 0.0
C2466 C 0.17893 0.00858 0.59347 0.0
C2467 C 0.13281 0.02116 0.60425 0.0
C2468 C 0.12239 0.01122 0.59123 0.0
C2469 C 0.12573 0.03542 0.61645 0.0
C2470 C 0.13635 0.0471 0.62979 0.0
C2471 C 0.151 0.05501 0.62498 0.0
C2472 C 0.16101 0.06591 0.63759 0.0
C2473 C 0.15645 0.0691 0.65506 0.0
C2474 C 0.14184 0.06142 0.65996 0.0
C2475 C 0.13178 0.0505 0.6474 0.0
H2476 H 0.16422 0.07754 0.66481 0.0
H2477 H 0.06665 0.97273 0.54193 0.0
H2478 H 0.32343 0.77979 0.1152 0.0
H2479 H 0.32429 0.81113 0.12714 0.0
H2480 H 0.32765 0.81898 0.07548 0.0
H2481 H 0.32692 0.78766 0.06342 0.0
H2482 H 0.34841 0.84136 0.09839 0.0
H2483 H 0.29004 0.82269 0.09517 0.0
H2484 H 0.26574 0.80494 0.10037 0.0
H2485 H 0.27239 0.82365 0.15532 0.0
H2486 H 0.29689 0.84134 0.15044 0.0
H2487 H 0.32165 0.92995 0.1199 0.0
H2488 H 0.32401 0.89881 0.10688 0.0
H2489 H 0.31859 0.88853 0.1574 0.0
H2490 H 0.31602 0.91945 0.17044 0.0
H2491 H 0.29886 0.86738 0.1342 0.0
H2492 H 0.35734 0.88602 0.13747 0.0
H2493 H 0.38167 0.90373 0.13225 0.0
H2494 H 0.37482 0.88522 0.0773 0.0
H2495 H 0.35029 0.86757 0.0822 0.0
C2496 C 0.32459 0.78816 0.10638 0.0
C2497 C 0.32494 0.78123 0.08835 0.0
C2498 C 0.32501 0.80607 0.11322 0.0
C2499 C 0.32575 0.81736 0.10217 0.0
C2500 C 0.327 0.81048 0.08423 0.0
C2501 C 0.32654 0.79257 0.07736 0.0
C2502 C 0.32434 0.83633 0.10927 0.0
C2503 C 0.3375 0.8471 0.10606 0.0
C2504 C 0.31019 0.84376 0.11946 0.0
C2505 C 0.29541 0.8332 0.12243 0.0
C2506 C 0.2864 0.82292 0.10836 0.0
C2507 C 0.27258 0.81288 0.11125 0.0
C2508 C 0.26755 0.81313 0.12816 0.0
C2509 C 0.27631 0.82345 0.14222 0.0
C2510 C 0.29016 0.83349 0.1394 0.0
C2511 C 0.32097 0.92105 0.12822 0.0
C2512 C 0.31866 0.92719 0.14621 0.0
C2513 C 0.3224 0.90327 0.12078 0.0
C2514 C 0.32163 0.89135 0.1312 0.0
C2515 C 0.31923 0.89748 0.14912 0.0
C2516 C 0.3178 0.91519 0.15655 0.0
C2517 C 0.32303 0.87246 0.12351 0.0
C2518 C 0.3098 0.86168 0.12656 0.0
C2519 C 0.3371 0.86506 0.11319 0.0
C2520 C 0.35187 0.87563 0.11021 0.0
C2521 C 0.36093 0.88584 0.12427 0.0
C2522 C 0.37478 0.89584 0.12137 0.0
C2523 C 0.37976 0.89564 0.10445 0.0
C2524 C 0.37093 0.88539 0.0904 0.0
C2525 C 0.35706 0.87538 0.09323 0.0
H2526 H 0.39048 0.90339 0.10223 0.0
H2527 H 0.25684 0.80535 0.13037 0.0
H2528 H 0.93164 0.06218 0.29226 0.0
H2529 H 0.90381 0.0513 0.29828 0.0
H2530 H 0.89577 0.09715 0.3394 0.0
H2531 H 0.92383 0.1081 0.33359 0.0
H2532 H 0.88691 0.06809 0.34935 0.0
H2533 H 0.875 0.09243 0.30151 0.0
H2534 H 0.87902 0.09768 0.27248 0.0
H2535 H 0.87053 0.04377 0.24916 0.0
H2536 H 0.86669 0.03815 0.27808 0.0
H2537 H 0.79791 0.04959 0.35646 0.0
H2538 H 0.82487 0.06359 0.3523 0.0
H2539 H 0.83939 0.01854 0.31266 0.0
H2540 H 0.81255 0.00442 0.31676 0.0
H2541 H 0.84397 0.04943 0.3028 0.0
H2542 H 0.85728 0.02517 0.35107 0.0
H2543 H 0.85296 0.02027 0.3802 0.0
H2544 H 0.85835 0.07474 0.40283 0.0
H2545 H 0.86246 0.08001 0.37378 0.0
C2546 C 0.92396 0.07001 0.30256 0.0
C2547 C 0.92994 0.08604 0.31242 0.0
C2548 C 0.90801 0.06379 0.30594 0.0
C2549 C 0.89764 0.0735 0.31916 0.0
C2550 C 0.90357 0.08947 0.32911 0.0
C2551 C 0.91957 0.09573 0.32573 0.0
C2552 C 0.88072 0.06674 0.32267 0.0
C2553 C 0.87739 0.0643 0.33926 0.0
C2554 C 0.86843 0.06153 0.30942 0.0
C2555 C 0.8707 0.06485 0.29198 0.0
C2556 C 0.87412 0.08167 0.2902 0.0
C2557 C 0.87634 0.08472 0.27376 0.0
C2558 C 0.87507 0.07106 0.25898 0.0
C2559 C 0.87153 0.05433 0.26062 0.0
C2560 C 0.86931 0.05121 0.27703 0.0
C2561 C 0.80687 0.04264 0.3469 0.0
C2562 C 0.80311 0.02589 0.33694 0.0
C2563 C 0.82228 0.05064 0.34458 0.0
C2564 C 0.83412 0.04206 0.33221 0.0
C2565 C 0.8304 0.02536 0.32226 0.0
C2566 C 0.81508 0.0173 0.32467 0.0
C2567 C 0.85029 0.05057 0.32937 0.0
C2568 C 0.85345 0.05336 0.31291 0.0
C2569 C 0.86236 0.05616 0.34275 0.0
C2570 C 0.85997 0.05301 0.36023 0.0
C2571 C 0.85738 0.03613 0.36224 0.0
C2572 C 0.855 0.03328 0.37874 0.0
C2573 C 0.85531 0.04719 0.39335 0.0
C2574 C 0.85807 0.06398 0.3915 0.0
C2575 C 0.86044 0.06691 0.37502 0.0
H2576 H 0.85347 0.04496 0.40612 0.0
H2577 H 0.87679 0.07345 0.24627 0.0
H2578 H 0.2964 0.05465 0.86668 0.0
H2579 H 0.3012 0.08581 0.87472 0.0
H2580 H 0.31904 0.08402 0.823 0.0
H2581 H 0.3144 0.05262 0.81482 0.0
H2582 H 0.33923 0.10471 0.84779 0.0
H2583 H 0.28011 0.09915 0.83436 0.0
H2584 H 0.25072 0.08838 0.83521 0.0
H2585 H 0.24831 0.11097 0.88998 0.0
H2586 H 0.27778 0.12166 0.88951 0.0
H2587 H 0.33298 0.19826 0.86578 0.0
H2588 H 0.33082 0.16709 0.85263 0.0
H2589 H 0.31202 0.15891 0.90099 0.0
H2590 H 0.31402 0.18985 0.91413 0.0
H2591 H 0.29187 0.14368 0.8739 0.0
H2592 H 0.35216 0.1473 0.88716 0.0
H2593 H 0.38149 0.15807 0.88579 0.0
H2594 H 0.38136 0.13948 0.83039 0.0
H2595 H 0.35193 0.12879 0.83142 0.0
C2596 C 0.30135 0.06082 0.85698 0.0
C2597 C 0.30493 0.05114 0.84008 0.0
C2598 C 0.30404 0.07867 0.86159 0.0
C2599 C 0.31026 0.08727 0.84939 0.0
C2600 C 0.31417 0.07763 0.83259 0.0
C2601 C 0.31146 0.05972 0.82793 0.0
C2602 C 0.31253 0.10633 0.85436 0.0
C2603 C 0.32882 0.11329 0.85322 0.0
C2604 C 0.29897 0.11748 0.86156 0.0
C2605 C 0.28122 0.11109 0.86192 0.0
C2606 C 0.27336 0.10171 0.84661 0.0
C2607 C 0.25668 0.09564 0.84702 0.0
C2608 C 0.24767 0.09896 0.86265 0.0
C2609 C 0.25531 0.10839 0.87789 0.0
C2610 C 0.272 0.11448 0.87756 0.0
C2611 C 0.32858 0.18978 0.87365 0.0
C2612 C 0.32359 0.19655 0.89098 0.0
C2613 C 0.32738 0.17199 0.86613 0.0
C2614 C 0.32123 0.1607 0.87584 0.0
C2615 C 0.3167 0.1674 0.89324 0.0
C2616 C 0.31791 0.18511 0.90075 0.0
C2617 C 0.31868 0.14201 0.86784 0.0
C2618 C 0.30226 0.13513 0.86833 0.0
C2619 C 0.3321 0.13101 0.85997 0.0
C2620 C 0.34978 0.13743 0.85935 0.0
C2621 C 0.35833 0.14565 0.87467 0.0
C2622 C 0.37498 0.15171 0.87396 0.0
C2623 C 0.38326 0.14951 0.85801 0.0
C2624 C 0.37492 0.1412 0.84274 0.0
C2625 C 0.35826 0.13513 0.84338 0.0
H2626 H 0.39616 0.15421 0.85749 0.0
H2627 H 0.23475 0.09425 0.86294 0.0
H2628 H 0.19126 0.00924 0.421 0.0
H2629 H 0.16067 0.0031 0.42139 0.0
H2630 H 0.15595 0.01005 0.3695 0.0
H2631 H 0.18633 0.01638 0.36907 0.0
H2632 H 0.13054 0.02616 0.39007 0.0
H2633 H 0.15711 0.96982 0.37684 0.0
H2634 H 0.17669 0.94737 0.38192 0.0
H2635 H 0.15193 0.94876 0.43041 0.0
H2636 H 0.13234 0.97139 0.42572 0.0
H2637 H 0.05277 0.98172 0.36135 0.0
H2638 H 0.08174 0.99326 0.36594 0.0
H2639 H 0.08222 0.98321 0.41682 0.0
H2640 H 0.05338 0.97143 0.41224 0.0
H2641 H 0.10958 0.97036 0.39939 0.0
H2642 H 0.0806 0.02459 0.41063 0.0
H2643 H 0.06181 0.04776 0.40587 0.0
H2644 H 0.09112 0.05106 0.36118 0.0
H2645 H 0.10994 0.02769 0.36546 0.0
C2646 C 0.18371 0.00944 0.40968 0.0
C2647 C 0.19124 0.01325 0.39499 0.0
C2648 C 0.16624 0.0059 0.40991 0.0
C2649 C 0.15607 0.006 0.39542 0.0
C2650 C 0.16356 0.00991 0.38082 0.0
C2651 C 0.18096 0.01346 0.38058 0.0
C2652 C 0.13764 0.00184 0.39527 0.0
C2653 C 0.1259 0.01389 0.39192 0.0
C2654 C 0.13164 0.98605 0.3982 0.0
C2655 C 0.1434 0.97243 0.40102 0.0
C2656 C 0.15594 0.96544 0.38865 0.0
C2657 C 0.16702 0.95266 0.39145 0.0
C2658 C 0.16559 0.94668 0.4065 0.0
C2659 C 0.15304 0.95343 0.41877 0.0
C2660 C 0.14194 0.96622 0.41605 0.0
C2661 C 0.05898 0.98212 0.37359 0.0
C2662 C 0.0508 0.97554 0.38639 0.0
C2663 C 0.0755 0.98885 0.37625 0.0
C2664 C 0.08413 0.98924 0.39179 0.0
C2665 C 0.07582 0.98306 0.40473 0.0
C2666 C 0.05932 0.97631 0.40208 0.0
C2667 C 0.10231 0.99459 0.39394 0.0
C2668 C 0.11407 0.98271 0.39765 0.0
C2669 C 0.10828 0.01054 0.39125 0.0
C2670 C 0.09657 0.02417 0.38825 0.0
C2671 C 0.08291 0.03005 0.39963 0.0
C2672 C 0.07228 0.04328 0.39705 0.0
C2673 C 0.07524 0.05084 0.3832 0.0
C2674 C 0.08882 0.04516 0.37188 0.0
C2675 C 0.09947 0.03192 0.37438 0.0
H2676 H 0.06705 0.06113 0.38128 0.0
H2677 H 0.17418 0.93678 0.40864 0.0
H2678 H 0.55306 0.80369 0.88951 0.0
H2679 H 0.55134 0.82973 0.87836 0.0
H2680 H 0.59118 0.85353 0.91349 0.0
H2681 H 0.59279 0.8278 0.92486 0.0
H2682 H 0.56639 0.87622 0.91272 0.0
H2683 H 0.59942 0.83513 0.8706 0.0
H2684 H 0.60482 0.8072 0.84973 0.0
H2685 H 0.56145 0.81524 0.8198 0.0
H2686 H 0.55566 0.84313 0.84064 0.0
H2687 H 0.59683 0.94191 0.8745 0.0
H2688 H 0.59343 0.91637 0.88606 0.0
H2689 H 0.55401 0.89723 0.84853 0.0
H2690 H 0.55753 0.92263 0.83669 0.0
H2691 H 0.57586 0.8721 0.85018 0.0
H2692 H 0.54427 0.91454 0.89133 0.0
H2693 H 0.53928 0.94254 0.91221 0.0
H2694 H 0.58015 0.93215 0.94401 0.0
H2695 H 0.58554 0.90417 0.9232 0.0
C2696 C 0.56139 0.81451 0.89491 0.0
C2697 C 0.57312 0.81363 0.90801 0.0
C2698 C 0.56044 0.82935 0.88849 0.0
C2699 C 0.57127 0.84351 0.89496 0.0
C2700 C 0.5827 0.84278 0.9083 0.0
C2701 C 0.58364 0.828 0.91474 0.0
C2702 C 0.57104 0.85902 0.88772 0.0
C2703 C 0.56859 0.87534 0.89906 0.0
C2704 C 0.5735 0.85783 0.86983 0.0
C2705 C 0.57699 0.84111 0.85728 0.0
C2706 C 0.59095 0.83087 0.85965 0.0
C2707 C 0.5941 0.81507 0.84781 0.0
C2708 C 0.58345 0.80943 0.83348 0.0
C2709 C 0.56966 0.81961 0.83093 0.0
C2710 C 0.56645 0.83542 0.84274 0.0
C2711 C 0.58738 0.93231 0.86874 0.0
C2712 C 0.57743 0.93433 0.85469 0.0
C2713 C 0.5854 0.91775 0.87542 0.0
C2714 C 0.57331 0.90498 0.86831 0.0
C2715 C 0.56338 0.90693 0.85425 0.0
C2716 C 0.56539 0.92148 0.84753 0.0
C2717 C 0.57142 0.88935 0.87522 0.0
C2718 C 0.57348 0.87299 0.8638 0.0
C2719 C 0.56864 0.89051 0.89305 0.0
C2720 C 0.5654 0.90732 0.90562 0.0
C2721 C 0.55228 0.91828 0.90271 0.0
C2722 C 0.54936 0.93414 0.91454 0.0
C2723 C 0.55941 0.93914 0.92941 0.0
C2724 C 0.57238 0.92826 0.93249 0.0
C2725 C 0.57536 0.9124 0.92069 0.0
H2726 H 0.55713 0.95142 0.93855 0.0
H2727 H 0.58591 0.79719 0.82432 0.0
H2728 H 0.9457 0.69853 0.82951 0.0
H2729 H 0.93203 0.70272 0.85792 0.0
H2730 H 0.88259 0.69976 0.83377 0.0
H2731 H 0.8961 0.6954 0.80535 0.0
H2732 H 0.91088 0.72741 0.87602 0.0
H2733 H 0.85537 0.67876 0.85449 0.0
H2734 H 0.84975 0.65146 0.83273 0.0
H2735 H 0.90309 0.63917 0.83076 0.0
H2736 H 0.90901 0.66627 0.85268 0.0
H2737 H 0.84031 0.74261 0.93348 0.0
H2738 H 0.86062 0.73793 0.90955 0.0
H2739 H 0.87492 0.6889 0.91932 0.0
H2740 H 0.8544 0.69337 0.94318 0.0
H2741 H 0.8679 0.68519 0.88619 0.0
H2742 H 0.90266 0.72317 0.92764 0.0
H2743 H 0.90987 0.74937 0.95024 0.0
H2744 H 0.90112 0.78086 0.91433 0.0
H2745 H 0.89362 0.75487 0.89157 0.0
C2746 C 0.93191 0.69879 0.83024 0.0
C2747 C 0.92198 0.69654 0.81515 0.0
C2748 C 0.92414 0.70123 0.8465 0.0
C2749 C 0.90631 0.70135 0.84794 0.0
C2750 C 0.89638 0.69944 0.83293 0.0
C2751 C 0.90412 0.69701 0.81669 0.0
C2752 C 0.898 0.70335 0.86508 0.0
C2753 C 0.90151 0.71817 0.87829 0.0
C2754 C 0.88609 0.69107 0.86817 0.0
C2755 C 0.88264 0.67463 0.85512 0.0
C2756 C 0.86589 0.6702 0.84947 0.0
C2757 C 0.86265 0.65476 0.8371 0.0
C2758 C 0.87606 0.64361 0.83033 0.0
C2759 C 0.89273 0.64784 0.83597 0.0
C2760 C 0.89603 0.66325 0.84835 0.0
C2761 C 0.84794 0.73093 0.93072 0.0
C2762 C 0.84565 0.71831 0.94019 0.0
C2763 C 0.85963 0.72832 0.91707 0.0
C2764 C 0.86936 0.71309 0.91267 0.0
C2765 C 0.86753 0.70073 0.92247 0.0
C2766 C 0.85582 0.70333 0.93614 0.0
C2767 C 0.8804 0.70952 0.89702 0.0
C2768 C 0.87736 0.69439 0.88403 0.0
C2769 C 0.89294 0.72138 0.89428 0.0
C2770 C 0.89745 0.73706 0.90793 0.0
C2771 C 0.90214 0.73569 0.9246 0.0
C2772 C 0.90631 0.7505 0.93743 0.0
C2773 C 0.90593 0.76677 0.93374 0.0
C2774 C 0.90141 0.76825 0.91718 0.0
C2775 C 0.89722 0.75348 0.9043 0.0
H2776 H 0.90916 0.77822 0.94369 0.0
H2777 H 0.87353 0.63167 0.82075 0.0
H2778 H 0.93343 0.27974 0.16121 0.0
H2779 H 0.91564 0.27474 0.13531 0.0
H2780 H 0.87097 0.28907 0.16728 0.0
H2781 H 0.88866 0.2937 0.19329 0.0
H2782 H 0.86443 0.26153 0.14187 0.0
H2783 H 0.88944 0.31716 0.14561 0.0
H2784 H 0.9127 0.3385 0.14823 0.0
H2785 H 0.93483 0.30897 0.10082 0.0
H2786 H 0.91182 0.28732 0.09803 0.0
H2787 H 0.81103 0.27143 0.07213 0.0
H2788 H 0.82729 0.27673 0.09915 0.0
H2789 H 0.87337 0.26062 0.07005 0.0
H2790 H 0.85729 0.25548 0.04304 0.0
H2791 H 0.87822 0.29009 0.09464 0.0
H2792 H 0.8532 0.2341 0.09154 0.0
H2793 H 0.82961 0.21315 0.08906 0.0
H2794 H 0.80699 0.24411 0.13552 0.0
H2795 H 0.83034 0.26537 0.13815 0.0
C2796 C 0.91982 0.28182 0.16275 0.0
C2797 C 0.91247 0.2872 0.17932 0.0
C2798 C 0.90967 0.27903 0.14791 0.0
C2799 C 0.89199 0.28181 0.14933 0.0
C2800 C 0.88458 0.2869 0.16586 0.0
C2801 C 0.89472 0.28957 0.18072 0.0
C2802 C 0.88126 0.27933 0.13354 0.0
C2803 C 0.8673 0.26798 0.13166 0.0
C2804 C 0.88515 0.28752 0.12007 0.0
C2805 C 0.89899 0.30054 0.1217 0.0
C2806 C 0.89934 0.31515 0.13581 0.0
C2807 C 0.91246 0.32731 0.13732 0.0
C2808 C 0.92525 0.32507 0.12472 0.0
C2809 C 0.92492 0.31068 0.11057 0.0
C2810 C 0.91184 0.29847 0.10901 0.0
C2811 C 0.82461 0.26898 0.07148 0.0
C2812 C 0.83286 0.26302 0.05542 0.0
C2813 C 0.83388 0.27196 0.08694 0.0
C2814 C 0.85152 0.26894 0.08662 0.0
C2815 C 0.85977 0.26304 0.0706 0.0
C2816 C 0.85053 0.26007 0.05517 0.0
C2817 C 0.86153 0.27216 0.10291 0.0
C2818 C 0.87534 0.28369 0.10489 0.0
C2819 C 0.85745 0.2642 0.11648 0.0
C2820 C 0.84342 0.25141 0.11494 0.0
C2821 C 0.84312 0.23651 0.10115 0.0
C2822 C 0.82981 0.22456 0.09973 0.0
C2823 C 0.81678 0.22732 0.1121 0.0
C2824 C 0.81707 0.242 0.12594 0.0
C2825 C 0.83035 0.254 0.1274 0.0
H2826 H 0.80649 0.21805 0.11098 0.0
H2827 H 0.9354 0.33451 0.12591 0.0
H2828 H 0.07621 0.31061 0.89948 0.0
H2829 H 0.05914 0.31581 0.87579 0.0
H2830 H 0.01717 0.33281 0.91089 0.0
H2831 H 0.03424 0.32739 0.93488 0.0
H2832 H 0.00688 0.31078 0.88069 0.0
H2833 H 0.03975 0.36243 0.89639 0.0
H2834 H 0.06577 0.37998 0.90413 0.0
H2835 H 0.08739 0.35677 0.85427 0.0
H2836 H 0.0616 0.33889 0.84632 0.0
H2837 H 0.96553 0.32978 0.80763 0.0
H2838 H 0.97761 0.3352 0.83683 0.0
H2839 H 0.02688 0.31842 0.81498 0.0
H2840 H 0.01505 0.31325 0.78589 0.0
H2841 H 0.02988 0.34589 0.84214 0.0
H2842 H -0.0003 0.2908 0.82903 0.0
H2843 H 0.97434 0.2722 0.82126 0.0
H2844 H 0.94812 0.30155 0.86631 0.0
H2845 H 0.97328 0.32046 0.87422 0.0
C2846 C 0.06337 0.3155 0.90225 0.0
C2847 C 0.05661 0.31866 0.9191 0.0
C2848 C 0.05365 0.31856 0.88868 0.0
C2849 C 0.037 0.325 0.89164 0.0
C2850 C 0.03006 0.32796 0.90838 0.0
C2851 C 0.03981 0.32488 0.92205 0.0
C2852 C 0.02689 0.32807 0.87695 0.0
C2853 C 0.01167 0.31881 0.87248 0.0
C2854 C 0.03326 0.33838 0.86616 0.0
C2855 C 0.04874 0.34926 0.87079 0.0
C2856 C 0.05009 0.361 0.88711 0.0
C2857 C 0.0648 0.37101 0.89153 0.0
C2858 C 0.07823 0.36948 0.87971 0.0
C2859 C 0.07697 0.35795 0.86342 0.0
C2860 C 0.06229 0.3479 0.85894 0.0
C2861 C 0.97899 0.3275 0.80905 0.0
C2862 C 0.9893 0.32092 0.79444 0.0
C2863 C 0.98585 0.33053 0.82574 0.0
C2864 C 0.00308 0.32697 0.82808 0.0
C2865 C 0.01354 0.32123 0.81349 0.0
C2866 C 0.00673 0.31822 0.79684 0.0
C2867 C 0.01021 0.32815 0.84558 0.0
C2868 C 0.02486 0.33822 0.85058 0.0
C2869 C 0.00335 0.31855 0.85683 0.0
C2870 C 0.98827 0.30717 0.85209 0.0
C2871 C 0.98847 0.29337 0.83719 0.0
C2872 C 0.97415 0.28275 0.83278 0.0
C2873 C 0.95961 0.28573 0.84325 0.0
C2874 C 0.95938 0.29929 0.85819 0.0
C2875 C 0.97366 0.30995 0.86264 0.0
H2876 H 0.94853 0.27749 0.83982 0.0
H2877 H 0.08961 0.37724 0.88316 0.0
H2878 H 0.99537 0.7253 0.18268 0.0
H2879 H -0.00073 0.71846 0.15144 0.0
H2880 H 0.98884 0.66461 0.14848 0.0
H2881 H 0.9853 0.67134 0.18007 0.0
H2882 H 0.01609 0.66776 0.12993 0.0
H2883 H 0.95978 0.68999 0.13304 0.0
H2884 H 0.93635 0.71039 0.14385 0.0
H2885 H 0.96318 0.75056 0.12727 0.0
H2886 H 0.98688 0.73048 0.11657 0.0
H2887 H 0.02803 0.65499 0.03935 0.0
H2888 H 0.01212 0.65568 0.06601 0.0
H2889 H 0.02141 0.71057 0.08349 0.0
H2890 H 0.03706 0.71006 0.05686 0.0
H2891 H 0.9897 0.70218 0.09261 0.0
H2892 H 0.0478 0.68133 0.0952 0.0
H2893 H 0.07169 0.66131 0.08499 0.0
H2894 H 0.04103 0.61851 0.09119 0.0
H2895 H 0.01688 0.63828 0.10125 0.0
C2896 C 0.99376 0.712 0.17543 0.0
C2897 C 0.99001 0.69886 0.18388 0.0
C2898 C -0.00414 0.70813 0.1575 0.0
C2899 C 0.99403 0.69107 0.14754 0.0
C2900 C 0.99019 0.67789 0.1559 0.0
C2901 C 0.98817 0.68175 0.17393 0.0
C2902 C -0.00273 0.68707 0.12858 0.0
C2903 C 0.00998 0.67497 0.12167 0.0
C2904 C 0.98948 0.69662 0.11782 0.0
C2905 C 0.97515 0.70873 0.12406 0.0
C2906 C 0.96073 0.7032 0.13178 0.0
C2907 C 0.94739 0.71471 0.13788 0.0
C2908 C 0.94829 0.73177 0.13627 0.0
C2909 C 0.9625 0.73734 0.12851 0.0
C2910 C 0.97588 0.72589 0.12239 0.0
C2911 C 0.0264 0.66727 0.04872 0.0
C2912 C 0.03402 0.68244 0.04609 0.0
C2913 C 0.01735 0.66762 0.06396 0.0
C2914 C 0.01585 0.68312 0.07685 0.0
C2915 C 0.02245 0.69846 0.07374 0.0
C2916 C 0.03147 0.69813 0.05851 0.0
C2917 C 0.00881 0.68327 0.09421 0.0
C2918 C 0.99544 0.69467 0.1008 0.0
C2919 C 0.01597 0.67307 0.10469 0.0
C2920 C 0.0305 0.66123 0.09876 0.0
C2921 C 0.04613 0.66763 0.09427 0.0
C2922 C 0.05971 0.65634 0.08853 0.0
C2923 C 0.05786 0.63864 0.08739 0.0
C2924 C 0.04243 0.63221 0.09204 0.0
C2925 C 0.0288 0.64345 0.09777 0.0
H2926 H 0.06839 0.62992 0.08294 0.0
H2927 H 0.93795 0.74066 0.14101 0.0
H2928 H 0.19795 0.37032 0.52646 0.0
H2929 H 0.20735 0.34039 0.52298 0.0
H2930 H 0.15567 0.32507 0.53048 0.0
H2931 H 0.14624 0.35499 0.53402 0.0
H2932 H 0.17762 0.30879 0.54692 0.0
H2933 H 0.17283 0.31879 0.48993 0.0
H2934 H 0.17839 0.33392 0.46687 0.0
H2935 H 0.23196 0.32391 0.46946 0.0
H2936 H 0.22674 0.30891 0.49271 0.0
H2937 H 0.18203 0.21912 0.50483 0.0
H2938 H 0.1758 0.24998 0.51468 0.0
H2939 H 0.22864 0.26195 0.50804 0.0
H2940 H 0.235 0.23107 0.49802 0.0
H2941 H 0.20761 0.28031 0.4925 0.0
H2942 H 0.21163 0.26812 0.54834 0.0
H2943 H 0.20534 0.25254 0.57087 0.0
H2944 H 0.15245 0.26603 0.56989 0.0
H2945 H 0.15838 0.28149 0.54716 0.0
C2946 C 0.18863 0.36058 0.52752 0.0
C2947 C 0.1714 0.36503 0.53076 0.0
C2948 C 0.194 0.34349 0.52549 0.0
C2949 C 0.18218 0.33045 0.5263 0.0
C2950 C 0.16503 0.33493 0.52992 0.0
C2951 C 0.15967 0.35207 0.53208 0.0
C2952 C 0.18757 0.31204 0.52266 0.0
C2953 C 0.18404 0.3025 0.53496 0.0
C2954 C 0.19625 0.30393 0.5072 0.0
C2955 C 0.19941 0.3129 0.49318 0.0
C2956 C 0.18581 0.31993 0.48567 0.0
C2957 C 0.1889 0.32846 0.47255 0.0
C2958 C 0.20552 0.32992 0.46674 0.0
C2959 C 0.21909 0.3228 0.474 0.0
C2960 C 0.21608 0.31427 0.48714 0.0
C2961 C 0.19239 0.22828 0.50566 0.0
C2962 C 0.20901 0.2226 0.50056 0.0
C2963 C 0.18881 0.24594 0.51138 0.0
C2964 C 0.20177 0.25827 0.51219 0.0
C2965 C 0.21845 0.25264 0.50753 0.0
C2966 C 0.22207 0.23498 0.50184 0.0
C2967 C 0.19766 0.27702 0.51674 0.0
C2968 C 0.20136 0.28662 0.50455 0.0
C2969 C 0.18904 0.28511 0.53223 0.0
C2970 C 0.18543 0.27584 0.54593 0.0
C2971 C 0.19863 0.26764 0.55282 0.0
C2972 C 0.19514 0.25886 0.56565 0.0
C2973 C 0.1785 0.25826 0.57178 0.0
C2974 C 0.16533 0.26649 0.56512 0.0
C2975 C 0.16876 0.27529 0.55227 0.0
H2976 H 0.17583 0.25145 0.58172 0.0
H2977 H 0.20789 0.33653 0.45658 0.0
H2978 H 0.14099 0.51127 0.70554 0.0
H2979 H 0.16732 0.49826 0.71226 0.0
H2980 H 0.14954 0.50211 0.76442 0.0
H2981 H 0.12316 0.51564 0.7579 0.0
H2982 H 0.18054 0.51427 0.76501 0.0
H2983 H 0.15382 0.46223 0.73469 0.0
H2984 H 0.13799 0.44264 0.71107 0.0
H2985 H 0.17832 0.44572 0.67539 0.0
H2986 H 0.19431 0.46552 0.69873 0.0
H2987 H 0.25775 0.47478 0.78147 0.0
H2988 H 0.22708 0.47731 0.77716 0.0
H2989 H 0.2363 0.48273 0.72529 0.0
H2990 H 0.26694 0.48017 0.72943 0.0
H2991 H 0.20781 0.46228 0.72743 0.0
H2992 H 0.23163 0.51796 0.75715 0.0
H2993 H 0.24729 0.5377 0.78079 0.0
H2994 H 0.21161 0.52714 0.81792 0.0
H2995 H 0.19586 0.50715 0.79448 0.0
C2996 C 0.14253 0.50918 0.7184 0.0
C2997 C 0.12996 0.51457 0.7312 0.0
C2998 C 0.15759 0.50159 0.72219 0.0
C2999 C 0.16035 0.49897 0.73878 0.0
C3000 C 0.14766 0.50395 0.7515 0.0
C3001 C 0.13259 0.51166 0.74775 0.0
C3002 C 0.17708 0.49245 0.74313 0.0
C3003 C 0.1863 0.50264 0.75704 0.0
C3004 C 0.18476 0.47744 0.73257 0.0
C3005 C 0.17523 0.46545 0.71847 0.0
C3006 C 0.15927 0.45883 0.72178 0.0
C3007 C 0.15028 0.44767 0.70844 0.0
C3008 C 0.15714 0.44296 0.69174 0.0
C3009 C 0.17303 0.44938 0.68834 0.0
C3010 C 0.18207 0.46055 0.70163 0.0
C3011 C 0.25325 0.47626 0.76906 0.0
C3012 C 0.26481 0.47746 0.75586 0.0
C3013 C 0.23572 0.47772 0.76663 0.0
C3014 C 0.22946 0.48038 0.75097 0.0
C3015 C 0.24089 0.48068 0.73747 0.0
C3016 C 0.2584 0.47931 0.73991 0.0
C3017 C 0.21121 0.48428 0.74905 0.0
C3018 C 0.2018 0.47365 0.73559 0.0
C3019 C 0.20329 0.49884 0.76004 0.0
C3020 C 0.2127 0.51091 0.77411 0.0
C3021 C 0.22721 0.51974 0.77037 0.0
C3022 C 0.23609 0.53099 0.78373 0.0
C3023 C 0.23048 0.53363 0.80086 0.0
C3024 C 0.21596 0.52505 0.80465 0.0
C3025 C 0.20705 0.51377 0.79134 0.0
H3026 H 0.23737 0.54234 0.81118 0.0
H3027 H 0.15015 0.43433 0.68143 0.0
H3028 H 0.78561 0.90065 0.51858 0.0
H3029 H 0.78818 0.86971 0.51679 0.0
H3030 H 0.73568 0.86824 0.53262 0.0
H3031 H 0.7334 0.89944 0.53552 0.0
H3032 H 0.7545 0.84858 0.54757 0.0
H3033 H 0.74787 0.85471 0.4894 0.0
H3034 H 0.75456 0.86598 0.4639 0.0
H3035 H 0.80485 0.84434 0.46164 0.0
H3036 H 0.79853 0.83313 0.48729 0.0
H3037 H 0.7419 0.75747 0.51443 0.0
H3038 H 0.74049 0.78907 0.52059 0.0
H3039 H 0.79411 0.79111 0.50924 0.0
H3040 H 0.79567 0.75956 0.50303 0.0
H3041 H 0.77481 0.81035 0.49227 0.0
H3042 H 0.78069 0.80341 0.55022 0.0
H3043 H 0.77335 0.79183 0.57536 0.0
H3044 H 0.72356 0.81456 0.57751 0.0
H3045 H 0.73051 0.82607 0.5522 0.0
C3046 C 0.77463 0.89376 0.52178 0.0
C3047 C 0.75908 0.90235 0.52653 0.0
C3048 C 0.77609 0.87605 0.52064 0.0
C3049 C 0.76198 0.86654 0.52408 0.0
C3050 C 0.74665 0.87525 0.52961 0.0
C3051 C 0.74525 0.89302 0.53092 0.0
C3052 C 0.76314 0.84749 0.5216 0.0
C3053 C 0.75873 0.8402 0.5354 0.0
C3054 C 0.76897 0.83656 0.50583 0.0
C3055 C 0.77278 0.84323 0.49036 0.0
C3056 C 0.76039 0.85246 0.48354 0.0
C3057 C 0.76411 0.85882 0.46905 0.0
C3058 C 0.78013 0.85592 0.46119 0.0
C3059 C 0.79245 0.8466 0.46777 0.0
C3060 C 0.78881 0.84023 0.48227 0.0
C3061 C 0.75343 0.76464 0.51337 0.0
C3062 C 0.76889 0.75598 0.5082 0.0
C3063 C 0.75261 0.7827 0.51696 0.0
C3064 C 0.76722 0.79242 0.51545 0.0
C3065 C 0.7827 0.78384 0.51049 0.0
C3066 C 0.78356 0.7658 0.50699 0.0
C3067 C 0.76621 0.81148 0.51823 0.0
C3068 C 0.77061 0.81875 0.50445 0.0
C3069 C 0.76027 0.82233 0.53396 0.0
C3070 C 0.75607 0.81546 0.5492 0.0
C3071 C 0.76812 0.80581 0.55595 0.0
C3072 C 0.76404 0.79929 0.57026 0.0
C3073 C 0.74798 0.80242 0.578 0.0
C3074 C 0.73598 0.81213 0.57148 0.0
C3075 C 0.73999 0.81867 0.55717 0.0
H3076 H 0.74485 0.79736 0.58908 0.0
H3077 H 0.78299 0.86085 0.44997 0.0
H3078 H 0.7639 0.46129 0.80869 0.0
H3079 H 0.73433 0.46895 0.80409 0.0
H3080 H 0.72741 0.41957 0.76761 0.0
H3081 H 0.75684 0.41185 0.77226 0.0
H3082 H 0.71321 0.44508 0.75573 0.0
H3083 H 0.71278 0.42677 0.80913 0.0
H3084 H 0.72178 0.42723 0.83892 0.0
H3085 H 0.70594 0.48025 0.85609 0.0
H3086 H 0.69705 0.48017 0.82634 0.0
H3087 H 0.62365 0.43533 0.75472 0.0
H3088 H 0.65438 0.43285 0.75782 0.0
H3089 H 0.65572 0.4835 0.79297 0.0
H3090 H 0.62483 0.48605 0.7901 0.0
H3091 H 0.67326 0.46014 0.80554 0.0
H3092 H 0.67136 0.47733 0.75205 0.0
H3093 H 0.66201 0.47618 0.72223 0.0
H3094 H 0.68188 0.42462 0.70507 0.0
H3095 H 0.69115 0.42536 0.73485 0.0
C3096 C 0.75607 0.45213 0.79961 0.0
C3097 C 0.76277 0.43614 0.79052 0.0
C3098 C 0.73919 0.4565 0.79703 0.0
C3099 C 0.72864 0.44481 0.78555 0.0
C3100 C 0.73537 0.42887 0.77639 0.0
C3101 C 0.75225 0.42454 0.77892 0.0
C3102 C 0.71047 0.44893 0.78334 0.0
C3103 C 0.70444 0.44823 0.76659 0.0
C3104 C 0.69912 0.45346 0.79758 0.0
C3105 C 0.70443 0.45352 0.81547 0.0
C3106 C 0.71135 0.43857 0.81923 0.0
C3107 C 0.7164 0.43875 0.83611 0.0
C3108 C 0.71448 0.45378 0.84938 0.0
C3109 C 0.70745 0.46863 0.8458 0.0
C3110 C 0.70239 0.46852 0.82893 0.0
C3111 C 0.63045 0.44603 0.76301 0.0
C3112 C 0.62175 0.4609 0.77217 0.0
C3113 C 0.64806 0.44461 0.7647 0.0
C3114 C 0.65737 0.45806 0.77549 0.0
C3115 C 0.64878 0.47299 0.78454 0.0
C3116 C 0.63113 0.47444 0.78285 0.0
C3117 C 0.67595 0.45611 0.77789 0.0
C3118 C 0.68206 0.45718 0.79468 0.0
C3119 C 0.68734 0.45184 0.76367 0.0
C3120 C 0.68183 0.45136 0.74573 0.0
C3121 C 0.67362 0.4657 0.74195 0.0
C3122 C 0.66836 0.46512 0.72504 0.0
C3123 C 0.67132 0.45032 0.71177 0.0
C3124 C 0.67959 0.43607 0.71537 0.0
C3125 C 0.68487 0.43657 0.73225 0.0
H3126 H 0.66723 0.4499 0.69869 0.0
H3127 H 0.7184 0.45389 0.86244 0.0
H3128 H 0.17701 0.76613 0.48775 0.0
H3129 H 0.16732 0.73619 0.47898 0.0
H3130 H 0.21946 0.71859 0.47417 0.0
H3131 H 0.22937 0.74866 0.48285 0.0
H3132 H 0.19871 0.69975 0.44783 0.0
H3133 H 0.19849 0.7179 0.50987 0.0
H3134 H 0.19158 0.73705 0.53839 0.0
H3135 H 0.13814 0.72927 0.52775 0.0
H3136 H 0.14473 0.71026 0.49904 0.0
H3137 H 0.18193 0.61354 0.4561 0.0
H3138 H 0.19251 0.64313 0.45933 0.0
H3139 H 0.14087 0.66222 0.4645 0.0
H3140 H 0.13028 0.63276 0.46159 0.0
H3141 H 0.16191 0.68012 0.49015 0.0
H3142 H 0.16227 0.6613 0.42819 0.0
H3143 H 0.16938 0.64198 0.39982 0.0
H3144 H 0.22274 0.6506 0.41047 0.0
H3145 H 0.21595 0.66979 0.43903 0.0
C3146 C 0.18647 0.75595 0.48466 0.0
C3147 C 0.20399 0.75981 0.48619 0.0
C3148 C 0.18088 0.73882 0.47967 0.0
C3149 C 0.19266 0.72518 0.4762 0.0
C3150 C 0.21016 0.72896 0.47686 0.0
C3151 C 0.21579 0.74614 0.48186 0.0
C3152 C 0.18662 0.70702 0.47287 0.0
C3153 C 0.19084 0.69537 0.45715 0.0
C3154 C 0.17612 0.70143 0.48494 0.0
C3155 C 0.17211 0.7128 0.50223 0.0
C3156 C 0.18527 0.72038 0.51355 0.0
C3157 C 0.18141 0.73119 0.52977 0.0
C3158 C 0.16443 0.73441 0.53486 0.0
C3159 C 0.15128 0.72678 0.52377 0.0
C3160 C 0.15507 0.71598 0.50753 0.0
C3161 C 0.17285 0.62405 0.45773 0.0
C3162 C 0.15527 0.62082 0.45823 0.0
C3163 C 0.1789 0.64091 0.45949 0.0
C3164 C 0.16746 0.65483 0.46196 0.0
C3165 C 0.14989 0.65163 0.46244 0.0
C3166 C 0.14384 0.63476 0.46055 0.0
C3167 C 0.17384 0.67285 0.46502 0.0
C3168 C 0.16974 0.68448 0.48078 0.0
C3169 C 0.18447 0.67835 0.45301 0.0
C3170 C 0.1886 0.66684 0.43583 0.0
C3171 C 0.17553 0.65895 0.42455 0.0
C3172 C 0.1795 0.64805 0.40842 0.0
C3173 C 0.1965 0.64503 0.40336 0.0
C3174 C 0.20957 0.65294 0.41441 0.0
C3175 C 0.20567 0.66384 0.43057 0.0
H3176 H 0.19956 0.63659 0.39087 0.0
H3177 H 0.16147 0.74278 0.54742 0.0
H3178 H 0.6278 0.53734 0.24175 0.0
H3179 H 0.65854 0.54209 0.2405 0.0
H3180 H 0.65477 0.53904 0.18573 0.0
H3181 H 0.62422 0.53373 0.18676 0.0
H3182 H 0.68201 0.52283 0.19149 0.0
H3183 H 0.65698 0.57837 0.21747 0.0
H3184 H 0.64016 0.59943 0.23899 0.0
H3185 H 0.67318 0.59216 0.2796 0.0
H3186 H 0.69004 0.57083 0.25835 0.0
H3187 H 0.75507 0.56942 0.17631 0.0
H3188 H 0.72604 0.55984 0.18029 0.0
H3189 H 0.7383 0.55766 0.23253 0.0
H3190 H 0.76754 0.56664 0.22842 0.0
H3191 H 0.70784 0.57499 0.2302 0.0
H3192 H 0.73434 0.52111 0.20298 0.0
H3193 H 0.75134 0.50106 0.18075 0.0
H3194 H 0.71557 0.50637 0.1416 0.0
H3195 H 0.69848 0.52666 0.16356 0.0
C3196 C 0.63354 0.53756 0.22942 0.0
C3197 C 0.62354 0.53525 0.21437 0.0
C3198 C 0.65111 0.54037 0.22874 0.0
C3199 C 0.65894 0.54122 0.21307 0.0
C3200 C 0.64903 0.53845 0.19797 0.0
C3201 C 0.63154 0.53545 0.1986 0.0
C3202 C 0.67737 0.54533 0.21233 0.0
C3203 C 0.6876 0.53432 0.19987 0.0
C3204 C 0.68482 0.5601 0.22355 0.0
C3205 C 0.67463 0.57284 0.23635 0.0
C3206 C 0.66055 0.58114 0.23101 0.0
C3207 C 0.65103 0.59314 0.24316 0.0
C3208 C 0.65556 0.59708 0.26066 0.0
C3209 C 0.66966 0.58905 0.26605 0.0
C3210 C 0.6792 0.57701 0.25396 0.0
C3211 C 0.75161 0.56684 0.18863 0.0
C3212 C 0.76346 0.56929 0.20224 0.0
C3213 C 0.73503 0.56135 0.19087 0.0
C3214 C 0.73003 0.55807 0.20672 0.0
C3215 C 0.74187 0.56031 0.22027 0.0
C3216 C 0.75851 0.56569 0.21799 0.0
C3217 C 0.71231 0.55267 0.20917 0.0
C3218 C 0.70224 0.56342 0.22196 0.0
C3219 C 0.70498 0.53777 0.19815 0.0
C3220 C 0.7152 0.52552 0.18491 0.0
C3221 C 0.73017 0.51811 0.18961 0.0
C3222 C 0.73981 0.50668 0.17706 0.0
C3223 C 0.73456 0.50247 0.15976 0.0
C3224 C 0.71963 0.50965 0.15499 0.0
C3225 C 0.70995 0.5211 0.1675 0.0
H3226 H 0.74204 0.49362 0.15006 0.0
H3227 H 0.64819 0.60639 0.27004 0.0
H3228 H 0.75475 0.08578 0.49271 0.0
H3229 H 0.75029 0.1162 0.49313 0.0
H3230 H 0.7699 0.10707 0.441 0.0
H3231 H 0.77382 0.07636 0.4403 0.0
H3232 H 0.78444 0.13511 0.46268 0.0
H3233 H 0.72847 0.11375 0.44808 0.0
H3234 H 0.70143 0.09866 0.45032 0.0
H3235 H 0.69157 0.13323 0.49987 0.0
H3236 H 0.71879 0.14824 0.49819 0.0
H3237 H 0.76546 0.22053 0.45657 0.0
H3238 H 0.7652 0.18892 0.45041 0.0
H3239 H 0.74482 0.19159 0.50138 0.0
H3240 H 0.74478 0.22315 0.50757 0.0
H3241 H 0.72959 0.16623 0.47722 0.0
H3242 H 0.78717 0.18513 0.49306 0.0
H3243 H 0.81399 0.20054 0.49058 0.0
H3244 H 0.8203 0.17057 0.43823 0.0
H3245 H 0.79338 0.15513 0.44033 0.0
C3246 C 0.75751 0.09008 0.4811 0.0
C3247 C 0.76404 0.07855 0.46624 0.0
C3248 C 0.75514 0.10753 0.48143 0.0
C3249 C 0.75947 0.11383 0.46698 0.0
C3250 C 0.76633 0.10242 0.45223 0.0
C3251 C 0.76858 0.08492 0.45186 0.0
C3252 C 0.75769 0.13251 0.46769 0.0
C3253 C 0.77237 0.14186 0.46554 0.0
C3254 C 0.742 0.14135 0.47177 0.0
C3255 C 0.72581 0.13203 0.47307 0.0
C3256 C 0.72068 0.11799 0.45958 0.0
C3257 C 0.7053 0.10946 0.46074 0.0
C3258 C 0.69482 0.11496 0.47524 0.0
C3259 C 0.69973 0.12895 0.48866 0.0
C3260 C 0.71515 0.13746 0.48762 0.0
C3261 C 0.76079 0.2144 0.46643 0.0
C3262 C 0.75526 0.22439 0.48262 0.0
C3263 C 0.7607 0.19633 0.4629 0.0
C3264 C 0.7552 0.18791 0.47552 0.0
C3265 C 0.74913 0.19782 0.49146 0.0
C3266 C 0.74919 0.21588 0.49499 0.0
C3267 C 0.75636 0.16881 0.47247 0.0
C3268 C 0.74159 0.15941 0.47421 0.0
C3269 C 0.77196 0.1599 0.46804 0.0
C3270 C 0.78817 0.16912 0.46679 0.0
C3271 C 0.79421 0.18192 0.48098 0.0
C3272 C 0.80944 0.19064 0.47965 0.0
C3273 C 0.81881 0.18658 0.46424 0.0
C3274 C 0.813 0.17373 0.45015 0.0
C3275 C 0.79777 0.16498 0.4514 0.0
H3276 H 0.8306 0.19334 0.46324 0.0
H3277 H 0.68286 0.10842 0.47603 0.0
H3278 H 0.2564 0.48397 0.26311 0.0
H3279 H 0.22613 0.47934 0.26724 0.0
H3280 H 0.21371 0.51966 0.24169 0.0
H3281 H 0.24412 0.52456 0.23763 0.0
H3282 H 0.19306 0.52052 0.27023 0.0
H3283 H 0.21166 0.47872 0.2193 0.0
H3284 H 0.23008 0.45565 0.20233 0.0
H3285 H 0.21708 0.42289 0.23605 0.0
H3286 H 0.19876 0.44588 0.25338 0.0
H3287 H 0.1075 0.49319 0.2465 0.0
H3288 H 0.13737 0.50238 0.24767 0.0
H3289 H 0.15084 0.46119 0.27169 0.0
H3290 H 0.12118 0.45164 0.27003 0.0
H3291 H 0.17091 0.46148 0.2444 0.0
H3292 H 0.1515 0.50304 0.29489 0.0
H3293 H 0.13299 0.5261 0.3117 0.0
H3294 H 0.14714 0.55926 0.27875 0.0
H3295 H 0.16556 0.53628 0.26157 0.0
C3296 C 0.24729 0.49199 0.25848 0.0
C3297 C 0.25271 0.50453 0.24987 0.0
C3298 C 0.22996 0.48929 0.26083 0.0
C3299 C 0.21768 0.49897 0.25454 0.0
C3300 C 0.223 0.51202 0.2466 0.0
C3301 C 0.24038 0.51475 0.24424 0.0
C3302 C 0.19933 0.49481 0.2555 0.0
C3303 C 0.18814 0.50768 0.26442 0.0
C3304 C 0.19302 0.47797 0.24818 0.0
C3305 C 0.20397 0.46409 0.23774 0.0
C3306 C 0.21283 0.46665 0.22318 0.0
C3307 C 0.22324 0.45358 0.21348 0.0
C3308 C 0.22479 0.43783 0.21814 0.0
C3309 C 0.21589 0.43511 0.23247 0.0
C3310 C 0.20548 0.44815 0.24223 0.0
C3311 C 0.11681 0.48627 0.25226 0.0
C3312 C 0.11193 0.47194 0.25854 0.0
C3313 C 0.13384 0.49158 0.253 0.0
C3314 C 0.1463 0.48259 0.25996 0.0
C3315 C 0.1414 0.46841 0.26643 0.0
C3316 C 0.12438 0.46313 0.26572 0.0
C3317 C 0.16459 0.48713 0.25928 0.0
C3318 C 0.17579 0.47432 0.2503 0.0
C3319 C 0.17085 0.50402 0.26652 0.0
C3320 C 0.15978 0.51787 0.27683 0.0
C3321 C 0.15055 0.51519 0.29113 0.0
C3322 C 0.14009 0.52826 0.30075 0.0
C3323 C 0.13885 0.54412 0.29627 0.0
C3324 C 0.1481 0.54696 0.28219 0.0
C3325 C 0.15856 0.53392 0.27251 0.0
H3326 H 0.13075 0.55423 0.30374 0.0
H3327 H 0.23285 0.42772 0.21061 0.0
H3328 H 0.46163 0.26811 0.24576 0.0
H3329 H 0.47338 0.26457 0.27326 0.0
H3330 H 0.4436 0.21808 0.26846 0.0
H3331 H 0.43177 0.22154 0.2413 0.0
H3332 H 0.44069 0.23927 0.30029 0.0
H3333 H 0.48619 0.21646 0.25981 0.0
H3334 H 0.50804 0.21806 0.23793 0.0
H3335 H 0.53253 0.26008 0.27398 0.0
H3336 H 0.51069 0.25885 0.29602 0.0
H3337 H 0.47426 0.19086 0.3536 0.0
H3338 H 0.46773 0.20098 0.32785 0.0
H3339 H 0.49862 0.24643 0.34696 0.0
H3340 H 0.50535 0.23634 0.37298 0.0
H3341 H 0.50221 0.23135 0.3105 0.0
H3342 H 0.45829 0.25166 0.35209 0.0
H3343 H 0.43676 0.24919 0.37397 0.0
H3344 H 0.40922 0.21169 0.3357 0.0
H3345 H 0.43074 0.21373 0.31364 0.0
C3346 C 0.45764 0.25712 0.25056 0.0
C3347 C 0.44573 0.24513 0.24133 0.0
C3348 C 0.4644 0.25509 0.26624 0.0
C3349 C 0.45938 0.24103 0.27288 0.0
C3350 C 0.44759 0.22906 0.26362 0.0
C3351 C 0.44087 0.23105 0.24804 0.0
C3352 C 0.46599 0.23872 0.28961 0.0
C3353 C 0.45414 0.23748 0.30248 0.0
C3354 C 0.48359 0.23697 0.29271 0.0
C3355 C 0.49669 0.23771 0.27947 0.0
C3356 C 0.49615 0.22614 0.26301 0.0
C3357 C 0.50855 0.22696 0.2506 0.0
C3358 C 0.52163 0.23921 0.25454 0.0
C3359 C 0.52237 0.25062 0.27093 0.0
C3360 C 0.50999 0.24987 0.28339 0.0
C3361 C 0.47984 0.20293 0.35233 0.0
C3362 C 0.49019 0.21288 0.36547 0.0
C3363 C 0.47606 0.20871 0.33759 0.0
C3364 C 0.48248 0.22457 0.33565 0.0
C3365 C 0.49349 0.23418 0.34828 0.0
C3366 C 0.49728 0.22841 0.36314 0.0
C3367 C 0.47682 0.2313 0.32081 0.0
C3368 C 0.4888 0.23344 0.30839 0.0
C3369 C 0.45932 0.23389 0.31806 0.0
C3370 C 0.4462 0.23278 0.33124 0.0
C3371 C 0.44771 0.2428 0.34837 0.0
C3372 C 0.43549 0.24149 0.3608 0.0
C3373 C 0.42164 0.23027 0.35624 0.0
C3374 C 0.41995 0.22037 0.33922 0.0
C3375 C 0.43215 0.22162 0.32674 0.0
H3376 H 0.4122 0.22926 0.36588 0.0
H3377 H 0.53122 0.23982 0.24491 0.0
H3378 H 0.48099 0.74174 0.5951 0.0
H3379 H 0.47729 0.73244 0.62192 0.0
H3380 H 0.50717 0.77595 0.64946 0.0
H3381 H 0.51124 0.78521 0.62258 0.0
H3382 H 0.51396 0.74725 0.66091 0.0
H3383 H 0.46419 0.77808 0.65008 0.0
H3384 H 0.43994 0.78441 0.63295 0.0
H3385 H 0.41932 0.7338 0.62994 0.0
H3386 H 0.4436 0.72707 0.64686 0.0
H3387 H 0.48052 0.75734 0.74618 0.0
H3388 H 0.49024 0.76006 0.7178 0.0
H3389 H 0.46016 0.71552 0.69313 0.0
H3390 H 0.45024 0.71276 0.72148 0.0
H3391 H 0.45407 0.74286 0.67955 0.0
H3392 H 0.50332 0.71322 0.69288 0.0
H3393 H 0.52746 0.70789 0.71068 0.0
H3394 H 0.5489 0.75733 0.70991 0.0
H3395 H 0.52475 0.76307 0.69231 0.0
C3396 C 0.48697 0.74924 0.6068 0.0
C3397 C 0.49625 0.76435 0.60673 0.0
C3398 C 0.4848 0.74391 0.62214 0.0
C3399 C 0.49169 0.75368 0.63774 0.0
C3400 C 0.50169 0.76826 0.63757 0.0
C3401 C 0.50396 0.77355 0.62219 0.0
C3402 C 0.48754 0.74932 0.65439 0.0
C3403 C 0.50087 0.74642 0.66507 0.0
C3404 C 0.47046 0.74796 0.65967 0.0
C3405 C 0.4558 0.752 0.64957 0.0
C3406 C 0.45455 0.76825 0.64565 0.0
C3407 C 0.4408 0.77192 0.636 0.0
C3408 C 0.42813 0.7595 0.63031 0.0
C3409 C 0.42916 0.74339 0.63432 0.0
C3410 C 0.44291 0.73965 0.64395 0.0
C3411 C 0.47616 0.74795 0.73475 0.0
C3412 C 0.46453 0.73488 0.73611 0.0
C3413 C 0.4818 0.74948 0.71852 0.0
C3414 C 0.47598 0.73795 0.70335 0.0
C3415 C 0.46481 0.72456 0.70468 0.0
C3416 C 0.45919 0.72298 0.72091 0.0
C3417 C 0.48047 0.74074 0.68611 0.0
C3418 C 0.46716 0.74347 0.67533 0.0
C3419 C 0.49756 0.74207 0.68086 0.0
C3420 C 0.51214 0.73863 0.69139 0.0
C3421 C 0.51311 0.72302 0.69662 0.0
C3422 C 0.52681 0.71991 0.70665 0.0
C3423 C 0.53968 0.73228 0.71145 0.0
C3424 C 0.5389 0.74776 0.7062 0.0
C3425 C 0.52522 0.75094 0.69617 0.0
H3426 H 0.55028 0.72985 0.71922 0.0
H3427 H 0.41748 0.76236 0.62284 0.0
H3428 H 0.48307 0.83402 0.39128 0.0
H3429 H 0.47609 0.8339 0.36131 0.0
H3430 H 0.46612 0.77898 0.35039 0.0
H3431 H 0.47359 0.77903 0.38023 0.0
H3432 H 0.48411 0.7849 0.32587 0.0
H3433 H 0.43304 0.81121 0.354 0.0
H3434 H 0.41544 0.83226 0.37472 0.0
H3435 H 0.43676 0.87384 0.35582 0.0
H3436 H 0.45446 0.85303 0.33495 0.0
H3437 H 0.44533 0.77744 0.24377 0.0
H3438 H 0.45047 0.77807 0.2742 0.0
H3439 H 0.46543 0.83172 0.28381 0.0
H3440 H 0.46036 0.8311 0.25328 0.0
H3441 H 0.44472 0.82645 0.3088 0.0
H3442 H 0.495 0.79893 0.27966 0.0
H3443 H 0.5107 0.77702 0.2579 0.0
H3444 H 0.48952 0.73662 0.2787 0.0
H3445 H 0.47343 0.75825 0.30038 0.0
C3446 C 0.47904 0.82201 0.38256 0.0
C3447 C 0.47861 0.80658 0.38812 0.0
C3448 C 0.47506 0.82194 0.36542 0.0
C3449 C 0.47028 0.80648 0.35359 0.0
C3450 C 0.46974 0.79108 0.35923 0.0
C3451 C 0.47399 0.79111 0.37628 0.0
C3452 C 0.46673 0.80611 0.33513 0.0
C3453 C 0.47528 0.79383 0.32217 0.0
C3454 C 0.45553 0.81801 0.33021 0.0
C3455 C 0.44519 0.83057 0.34303 0.0
C3456 C 0.43408 0.82485 0.35437 0.0
C3457 C 0.42405 0.83674 0.3661 0.0
C3458 C 0.42504 0.85438 0.36663 0.0
C3459 C 0.43603 0.86017 0.35541 0.0
C3460 C 0.44602 0.84834 0.34359 0.0
C3461 C 0.4501 0.78924 0.25227 0.0
C3462 C 0.45295 0.80407 0.24606 0.0
C3463 C 0.45289 0.78964 0.26969 0.0
C3464 C 0.45865 0.80485 0.28122 0.0
C3465 C 0.46108 0.81981 0.27513 0.0
C3466 C 0.45821 0.81944 0.2577 0.0
C3467 C 0.46202 0.80522 0.29966 0.0
C3468 C 0.4535 0.81752 0.31256 0.0
C3469 C 0.4731 0.79323 0.30453 0.0
C3470 C 0.48289 0.78022 0.29157 0.0
C3471 C 0.49359 0.78536 0.27952 0.0
C3472 C 0.50256 0.77299 0.2672 0.0
C3473 C 0.50109 0.75544 0.26691 0.0
C3474 C 0.49064 0.75022 0.27894 0.0
C3475 C 0.48159 0.76253 0.29124 0.0
H3476 H 0.50804 0.74588 0.25736 0.0
H3477 H 0.41723 0.86356 0.37566 0.0
H3478 H 0.49359 0.15461 0.61124 0.0
H3479 H 0.48529 0.1551 0.64099 0.0
H3480 H 0.47698 0.2103 0.65127 0.0
H3481 H 0.48663 0.2099 0.6219 0.0
H3482 H 0.49117 0.20505 0.67717 0.0
H3483 H 0.44332 0.1768 0.64462 0.0
H3484 H 0.42833 0.15503 0.62215 0.0
H3485 H 0.4474 0.11444 0.64389 0.0
H3486 H 0.46267 0.13596 0.6664 0.0
H3487 H 0.44556 0.20998 0.75605 0.0
H3488 H 0.45307 0.21019 0.72626 0.0
H3489 H 0.47095 0.15754 0.71741 0.0
H3490 H 0.4637 0.1574 0.74734 0.0
H3491 H 0.45117 0.16215 0.6912 0.0
H3492 H 0.49896 0.19197 0.724 0.0
H3493 H 0.51283 0.2147 0.74648 0.0
H3494 H 0.49141 0.25388 0.7242 0.0
H3495 H 0.47725 0.23139 0.70168 0.0
C3496 C 0.48986 0.16679 0.61988 0.0
C3497 C 0.49059 0.18219 0.61434 0.0
C3498 C 0.48499 0.16708 0.63686 0.0
C3499 C 0.48007 0.18269 0.6484 0.0
C3500 C 0.48068 0.19807 0.64271 0.0
C3501 C 0.48611 0.19785 0.62591 0.0
C3502 C 0.47492 0.18315 0.66656 0.0
C3503 C 0.48217 0.19582 0.68015 0.0
C3504 C 0.46343 0.17095 0.67065 0.0
C3505 C 0.45425 0.15799 0.65711 0.0
C3506 C 0.44441 0.16322 0.64454 0.0
C3507 C 0.43585 0.15092 0.6318 0.0
C3508 C 0.43695 0.13335 0.63156 0.0
C3509 C 0.44658 0.12805 0.64408 0.0
C3510 C 0.45517 0.14029 0.65685 0.0
C3511 C 0.4515 0.19862 0.7479 0.0
C3512 C 0.45455 0.18386 0.75416 0.0
C3513 C 0.45564 0.19869 0.73082 0.0
C3514 C 0.46287 0.18399 0.7197 0.0
C3515 C 0.46549 0.16907 0.72581 0.0
C3516 C 0.46134 0.169 0.74288 0.0
C3517 C 0.46741 0.18398 0.70159 0.0
C3518 C 0.46006 0.1714 0.68809 0.0
C3519 C 0.47854 0.19645 0.69757 0.0
C3520 C 0.48694 0.20999 0.71122 0.0
C3521 C 0.49709 0.20543 0.72397 0.0
C3522 C 0.50504 0.21828 0.73669 0.0
C3523 C 0.50302 0.23572 0.73675 0.0
C3524 C 0.493 0.24036 0.72411 0.0
C3525 C 0.48502 0.22757 0.71136 0.0
H3526 H 0.50925 0.24563 0.74656 0.0
H3527 H 0.43031 0.12383 0.62173 0.0
H3528 H 0.95827 0.74617 0.7634 0.0
H3529 H 0.9672 0.77222 0.7549 0.0
H3530 H 0.95012 0.75009 0.70266 0.0
H3531 H 0.9422 0.7235 0.71086 0.0
H3532 H 0.9795 0.76447 0.70159 0.0
H3533 H 0.92783 0.78372 0.73102 0.0
H3534 H 0.90654 0.78839 0.75453 0.0
H3535 H 0.94226 0.81972 0.78946 0.0
H3536 H 0.96387 0.81504 0.76623 0.0
H3537 H 0.99392 0.84672 0.68149 0.0
H3538 H 0.97869 0.82145 0.68652 0.0
H3539 H 0.00081 0.83061 0.73754 0.0
H3540 H 0.01598 0.85586 0.73261 0.0
H3541 H 0.96528 0.82334 0.73657 0.0
H3542 H 0.01755 0.80081 0.70654 0.0
H3543 H 0.03795 0.7962 0.68224 0.0
H3544 H -0.00107 0.77126 0.6471 0.0
H3545 H 0.97822 0.77595 0.67119 0.0
C3546 C 0.9563 0.74687 0.75011 0.0
C3547 C 0.94904 0.7329 0.73793 0.0
C3548 C 0.96128 0.76186 0.7453 0.0
C3549 C 0.95894 0.76336 0.72823 0.0
C3550 C 0.95181 0.74938 0.71598 0.0
C3551 C 0.94698 0.73426 0.72076 0.0
C3552 C 0.9648 0.77917 0.7231 0.0
C3553 C 0.97607 0.77733 0.70903 0.0
C3554 C 0.96049 0.79601 0.73287 0.0
C3555 C 0.94752 0.79893 0.7469 0.0
C3556 C 0.9312 0.79151 0.74375 0.0
C3557 C 0.91906 0.79417 0.75702 0.0
C3558 C 0.92305 0.80432 0.77348 0.0
C3559 C 0.93918 0.81186 0.7767 0.0
C3560 C 0.95138 0.80922 0.76348 0.0
C3561 C 0.99527 0.84352 0.69388 0.0
C3562 C 0.00595 0.85336 0.70675 0.0
C3563 C 0.9867 0.82901 0.69667 0.0
C3564 C 0.98863 0.8242 0.71241 0.0
C3565 C -0.0009 0.83416 0.72534 0.0
C3566 C 0.00782 0.84851 0.72248 0.0
C3567 C 0.98016 0.80853 0.71536 0.0
C3568 C 0.96842 0.81044 0.72901 0.0
C3569 C 0.98384 0.79178 0.70507 0.0
C3570 C -0.00371 0.78892 0.69062 0.0
C3571 C 0.01328 0.79449 0.69361 0.0
C3572 C 0.02491 0.79183 0.67988 0.0
C3573 C 0.01973 0.7835 0.66312 0.0
C3574 C 0.00292 0.77775 0.66008 0.0
C3575 C 0.99123 0.7804 0.67376 0.0
H3576 H 0.02875 0.78145 0.65251 0.0
H3577 H 0.91364 0.80636 0.78374 0.0
H3578 H 0.62606 0.23788 0.04294 0.0
H3579 H 0.65235 0.23795 0.02653 0.0
H3580 H 0.67243 0.27889 0.06762 0.0
H3581 H 0.64597 0.27918 0.08401 0.0
H3582 H 0.68075 0.284 0.03654 0.0
H3583 H 0.68388 0.23682 0.06403 0.0
H3584 H 0.6739 0.21033 0.07182 0.0
H3585 H 0.67377 0.18317 0.0181 0.0
H3586 H 0.68353 0.20959 0.00997 0.0
H3587 H 0.76779 0.27129 0.01059 0.0
H3588 H 0.74129 0.27335 0.02723 0.0
H3589 H 0.71863 0.23407 0.98625 0.0
H3590 H 0.74525 0.23163 0.96978 0.0
H3591 H 0.71209 0.22845 0.01805 0.0
H3592 H 0.70889 0.27599 0.99073 0.0
H3593 H 0.71902 0.30258 0.98323 0.0
H3594 H 0.71971 0.3291 0.03713 0.0
H3595 H 0.70981 0.30258 0.04497 0.0
C3596 C 0.63599 0.24703 0.04845 0.0
C3597 C 0.63397 0.25842 0.06487 0.0
C3598 C 0.65105 0.24699 0.03907 0.0
C3599 C 0.6645 0.25818 0.04601 0.0
C3600 C 0.66225 0.27008 0.06206 0.0
C3601 C 0.64712 0.27021 0.07142 0.0
C3602 C 0.68107 0.25702 0.03677 0.0
C3603 C 0.68772 0.27191 0.0327 0.0
C3604 C 0.69004 0.24118 0.03153 0.0
C3605 C 0.68429 0.22523 0.03639 0.0
C3606 C 0.68161 0.22524 0.05387 0.0
C3607 C 0.67601 0.21023 0.05835 0.0
C3608 C 0.67316 0.19509 0.04546 0.0
C3609 C 0.67596 0.19492 0.02807 0.0
C3610 C 0.68154 0.2099 0.02352 0.0
C3611 C 0.75731 0.26281 0.00531 0.0
C3612 C 0.75871 0.25104 0.98905 0.0
C3613 C 0.74208 0.2642 0.01471 0.0
C3614 C 0.72797 0.25391 0.00793 0.0
C3615 C 0.72938 0.2421 0.99173 0.0
C3616 C 0.74456 0.24077 0.98232 0.0
C3617 C 0.7117 0.25539 0.01771 0.0
C3618 C 0.70513 0.24054 0.02191 0.0
C3619 C 0.70287 0.27128 0.02313 0.0
C3620 C 0.70878 0.28725 0.01844 0.0
C3621 C 0.71134 0.28745 0.00099 0.0
C3622 C 0.71701 0.30252 -0.00332 0.0
C3623 C 0.72005 0.3175 0.0097 0.0
C3624 C 0.71738 0.31747 0.02706 0.0
C3625 C 0.71172 0.30243 0.03144 0.0
H3626 H 0.72444 0.32916 0.00634 0.0
H3627 H 0.66882 0.18349 0.04895 0.0
H3628 H 2e-05 0.11909 0.63162 0.0
H3629 H -0.00282 0.14961 0.64665 0.0
H3630 H 0.95885 0.1364 0.68019 0.0
H3631 H 0.96157 0.10582 0.66522 0.0
H3632 H 0.949 0.16324 0.66621 0.0
H3633 H -0.00274 0.14815 0.69612 0.0
H3634 H 0.0257 0.13597 0.69888 0.0
H3635 H 0.04824 0.17206 0.67312 0.0
H3636 H 0.01989 0.1843 0.66998 0.0
H3637 H 0.94566 0.24652 0.72516 0.0
H3638 H 0.94799 0.21563 0.71146 0.0
H3639 H 0.98917 0.22604 0.67942 0.0
H3640 H 0.98716 0.25691 0.69329 0.0
H3641 H -0.00275 0.20021 0.69355 0.0
H3642 H 0.949 0.21481 0.66288 0.0
H3643 H 0.92058 0.22692 0.65988 0.0
H3644 H 0.89802 0.19177 0.68676 0.0
H3645 H 0.92636 0.1796 0.69012 0.0
C3646 C 0.99109 0.12264 0.64229 0.0
C3647 C 0.98101 0.11001 0.64721 0.0
C3648 C 0.98952 0.14008 0.6509 0.0
C3649 C 0.97784 0.14524 0.66456 0.0
C3650 C 0.96792 0.13267 0.66966 0.0
C3651 C 0.96956 0.1152 0.66114 0.0
C3652 C 0.97557 0.16383 0.67307 0.0
C3653 C 0.95947 0.1713 0.67244 0.0
C3654 C 0.98935 0.17436 0.68081 0.0
C3655 C 0.00642 0.16703 0.68267 0.0
C3656 C 0.00826 0.15339 0.6909 0.0
C3657 C 0.02437 0.1465 0.69257 0.0
C3658 C 0.03876 0.15321 0.68614 0.0
C3659 C 0.03708 0.16686 0.67807 0.0
C3660 C 0.02099 0.17379 0.67636 0.0
C3661 C 0.95509 0.24227 0.71506 0.0
C3662 C 0.96624 0.25419 0.71033 0.0
C3663 C 0.95638 0.2246 0.70721 0.0
C3664 C 0.9687 0.21853 0.69435 0.0
C3665 C 0.9796 0.23044 0.68936 0.0
C3666 C 0.97838 0.24809 0.69725 0.0
C3667 C 0.9707 0.19972 0.68656 0.0
C3668 C 0.98675 0.19218 0.68735 0.0
C3669 C 0.95688 0.18914 0.67893 0.0
C3670 C 0.93982 0.19642 0.67691 0.0
C3671 C 0.938 0.20976 0.66827 0.0
C3672 C 0.9219 0.21662 0.66649 0.0
C3673 C 0.90751 0.21015 0.67317 0.0
C3674 C 0.90918 0.19678 0.68161 0.0
C3675 C 0.92526 0.18989 0.68345 0.0
H3676 H 0.89506 0.21547 0.67177 0.0
H3677 H 0.05122 0.14786 0.68744 0.0
H3678 H 0.13698 0.68908 0.98536 0.0
H3679 H 0.16664 0.69218 0.99533 0.0
H3680 H 0.15399 0.66789 0.03661 0.0
H3681 H 0.12449 0.66463 0.02674 0.0
H3682 H 0.1714 0.69924 0.04772 0.0
H3683 H 0.17605 0.64584 0.00368 0.0
H3684 H 0.17307 0.62712 0.97419 0.0
H3685 H 0.20614 0.66078 0.95435 0.0
H3686 H 0.20912 0.67985 0.98371 0.0
H3687 H 0.2519 0.68695 0.08084 0.0
H3688 H 0.22413 0.68078 0.06687 0.0
H3689 H 0.24104 0.70258 0.02511 0.0
H3690 H 0.26894 0.70869 0.03891 0.0
H3691 H 0.22179 0.67333 0.01326 0.0
H3692 H 0.2175 0.72663 0.05628 0.0
H3693 H 0.22045 0.74633 0.08529 0.0
H3694 H 0.18652 0.71439 0.10642 0.0
H3695 H 0.18357 0.69433 0.07756 0.0
C3696 C 0.14056 0.68426 -0.00354 0.0
C3697 C 0.12836 0.67663 0.00527 0.0
C3698 C 0.1575 0.686 0.0021 0.0
C3699 C 0.16246 0.68024 0.01669 0.0
C3700 C 0.15038 0.67243 0.02533 0.0
C3701 C 0.13353 0.67053 0.01962 0.0
C3702 C 0.18006 0.683 0.02348 0.0
C3703 C 0.1824 0.6934 0.04028 0.0
C3704 C 0.19442 0.67583 0.01351 0.0
C3705 C 0.19265 0.66438 -0.00414 0.0
C3706 C 0.18256 0.64934 0.99301 0.0
C3707 C 0.1809 0.63865 0.97632 0.0
C3708 C 0.18937 0.64279 0.9624 0.0
C3709 C 0.19956 0.65761 0.96515 0.0
C3710 C 0.20125 0.66836 0.98181 0.0
C3711 C 0.24981 0.69027 0.06859 0.0
C3712 C 0.26261 0.69847 0.06108 0.0
C3713 C 0.2339 0.68679 0.06065 0.0
C3714 C 0.23046 0.69147 0.0451 0.0
C3715 C 0.24343 0.69892 0.03715 0.0
C3716 C 0.25935 0.70244 0.04509 0.0
C3717 C 0.21308 0.68933 0.03762 0.0
C3718 C 0.21078 0.67916 0.0207 0.0
C3719 C 0.19873 0.69685 0.0474 0.0
C3720 C 0.20045 0.70888 0.06478 0.0
C3721 C 0.21078 0.72372 0.06714 0.0
C3722 C 0.21244 0.73497 0.08355 0.0
C3723 C 0.20372 0.73159 0.09769 0.0
C3724 C 0.19329 0.71697 0.09545 0.0
C3725 C 0.19161 0.70567 0.07907 0.0
H3726 H 0.20501 0.74032 0.11039 0.0
H3727 H 0.18807 0.63449 0.94949 0.0
H3728 H 0.96048 0.23961 0.22764 0.0
H3729 H 0.97036 0.21433 0.23694 0.0
H3730 H 0.94977 0.23561 0.28801 0.0
H3731 H 0.94088 0.26149 0.27908 0.0
H3732 H 0.97959 0.22286 0.29094 0.0
H3733 H 0.93023 0.20094 0.25831 0.0
H3734 H 0.91064 0.19512 0.23336 0.0
H3735 H 0.94941 0.16542 0.2012 0.0
H3736 H 0.96933 0.17125 0.2259 0.0
H3737 H 0.99121 0.14178 0.31421 0.0
H3738 H 0.97781 0.16714 0.30745 0.0
H3739 H 0.00366 0.156 0.25809 0.0
H3740 H 0.01698 0.13058 0.26472 0.0
H3741 H 0.96864 0.16318 0.256 0.0
H3742 H 0.01823 0.18724 0.28955 0.0
H3743 H 0.03681 0.19301 0.3153 0.0
H3744 H 0.99548 0.21839 0.34691 0.0
H3745 H 0.97658 0.21256 0.32138 0.0
C3746 C 0.95796 0.2389 0.24084 0.0
C3747 C 0.94939 0.25239 0.25246 0.0
C3748 C 0.9635 0.22433 0.24611 0.0
C3749 C 0.96043 0.2228 0.26307 0.0
C3750 C 0.95206 0.23635 0.27478 0.0
C3751 C 0.94666 0.25104 0.26955 0.0
C3752 C 0.96658 0.20734 0.26865 0.0
C3753 C 0.97691 0.20981 0.28346 0.0
C3754 C 0.96328 0.19027 0.25883 0.0
C3755 C 0.95132 0.18665 0.24394 0.0
C3756 C 0.93462 0.19326 0.24589 0.0
C3757 C 0.92345 0.18995 0.23179 0.0
C3758 C 0.92878 0.17994 0.2157 0.0
C3759 C 0.9453 0.17318 0.21367 0.0
C3760 C 0.95653 0.17647 0.22772 0.0
C3761 C 0.99384 0.14461 0.30183 0.0
C3762 C 0.00492 0.13406 0.28987 0.0
C3763 C 0.98632 0.15919 0.29806 0.0
C3764 C 0.98974 0.16342 0.28226 0.0
C3765 C 0.00082 0.15291 0.27033 0.0
C3766 C 0.00847 0.13847 0.27417 0.0
C3767 C 0.9818 0.17878 0.27805 0.0
C3768 C 0.97113 0.17625 0.26353 0.0
C3769 C 0.98458 0.19576 0.28827 0.0
C3770 C -0.00406 0.19928 0.3036 0.0
C3771 C 0.01306 0.19391 0.30203 0.0
C3772 C 0.02366 0.19722 0.31657 0.0
C3773 C 0.01731 0.20601 0.33274 0.0
C3774 C 0.00037 0.21155 0.33439 0.0
C3775 C 0.98971 0.20826 0.31988 0.0
H3776 H 0.02554 0.20857 0.34399 0.0
H3777 H 0.92012 0.17738 0.2048 0.0
H3778 H 0.1432 0.29439 -0.00321 0.0
H3779 H 0.1732 0.28819 0.98876 0.0
H3780 H 0.16258 0.29367 0.93719 0.0
H3781 H 0.13286 0.29967 0.94494 0.0
H3782 H 0.18159 0.26537 0.93643 0.0
H3783 H 0.18144 0.32602 0.96727 0.0
H3784 H 0.17629 0.35039 0.9926 0.0
H3785 H 0.21012 0.32763 0.02318 0.0
H3786 H 0.21529 0.303 -0.00194 0.0
H3787 H 0.25773 0.28153 0.89805 0.0
H3788 H 0.23 0.28572 0.91236 0.0
H3789 H 0.2521 0.27578 0.95856 0.0
H3790 H 0.28004 0.27157 0.94434 0.0
H3791 H 0.22857 0.30327 0.96545 0.0
H3792 H 0.23126 0.24429 0.93347 0.0
H3793 H 0.23661 0.2202 0.90796 0.0
H3794 H 0.19797 0.23962 0.87956 0.0
H3795 H 0.19256 0.264 0.90482 0.0
C3796 C 0.14728 0.29421 0.98374 0.0
C3797 C 0.13563 0.29756 0.97153 0.0
C3798 C 0.16442 0.29073 0.97919 0.0
C3799 C 0.17012 0.29056 0.9624 0.0
C3800 C 0.15846 0.29369 0.9502 0.0
C3801 C 0.14145 0.29719 0.95471 0.0
C3802 C 0.18821 0.28724 0.95724 0.0
C3803 C 0.19185 0.27369 0.94274 0.0
C3804 C 0.20166 0.29777 0.9658 0.0
C3805 C 0.19858 0.31258 0.98087 0.0
C3806 C 0.18766 0.32615 0.97944 0.0
C3807 C 0.18476 0.34002 0.99375 0.0
C3808 C 0.19282 0.34053 0.00951 0.0
C3809 C 0.20385 0.32719 0.01098 0.0
C3810 C 0.20677 0.31328 -0.00329 0.0
C3811 C 0.25679 0.28041 0.91132 0.0
C3812 C 0.2711 0.27607 0.91999 0.0
C3813 C 0.2409 0.28274 0.91945 0.0
C3814 C 0.23898 0.28079 0.93641 0.0
C3815 C 0.25334 0.27726 0.94543 0.0
C3816 C 0.26927 0.27483 0.93726 0.0
C3817 C 0.22178 0.28178 0.94431 0.0
C3818 C 0.21834 0.29479 0.95931 0.0
C3819 C 0.20847 0.27075 0.93623 0.0
C3820 C 0.2116 0.25605 0.92101 0.0
C3821 C 0.22399 0.2435 0.92175 0.0
C3822 C 0.22702 0.22978 0.90733 0.0
C3823 C 0.21766 0.2284 0.89214 0.0
C3824 C 0.20522 0.24072 0.89134 0.0
C3825 C 0.20215 0.25448 0.90571 0.0
H3826 H 0.22002 0.21777 0.88099 0.0
H3827 H 0.19057 0.35128 0.02057 0.0
H3828 H 0.01165 0.89495 0.33747 0.0
H3829 H 0.01091 0.86463 0.32115 0.0
H3830 H 0.98741 0.8504 0.36476 0.0
H3831 H 0.98839 0.88052 0.38124 0.0
H3832 H 0.01033 0.82663 0.34987 0.0
H3833 H 0.96358 0.85628 0.33073 0.0
H3834 H 0.94985 0.87879 0.31894 0.0
H3835 H 0.97929 0.86286 0.27222 0.0
H3836 H 0.99336 0.84039 0.28384 0.0
H3837 H 0.97239 0.74657 0.3062 0.0
H3838 H 0.97701 0.77637 0.32288 0.0
H3839 H 0.0025 0.78811 0.27903 0.0
H3840 H -0.00214 0.75846 0.26223 0.0
H3841 H 0.97962 0.81294 0.29371 0.0
H3842 H 0.0253 0.78202 0.31264 0.0
H3843 H 0.03777 0.75881 0.32429 0.0
H3844 H 0.0094 0.77658 0.37147 0.0
H3845 H -0.00345 0.79975 0.35999 0.0
C3846 C 0.0065 0.88534 0.34366 0.0
C3847 C -5e-05 0.89021 0.36062 0.0
C3848 C 0.00602 0.86803 0.33429 0.0
C3849 C -0.00115 0.85529 0.34164 0.0
C3850 C 0.99296 0.86 0.3588 0.0
C3851 C 0.99349 0.87727 0.36819 0.0
C3852 C -0.00324 0.83718 0.33127 0.0
C3853 C 0.0035 0.82363 0.33766 0.0
C3854 C 0.98806 0.83325 0.31521 0.0
C3855 C 0.97966 0.8468 0.30823 0.0
C3856 C 0.96723 0.85768 0.318 0.0
C3857 C 0.95937 0.87041 0.31134 0.0
C3858 C 0.96374 0.87229 0.29487 0.0
C3859 C 0.97595 0.86141 0.285 0.0
C3860 C 0.98387 0.84868 0.29161 0.0
C3861 C 0.97896 0.7555 0.30009 0.0
C3862 C 0.98478 0.75012 0.28289 0.0
C3863 C 0.98166 0.77249 0.30967 0.0
C3864 C 0.99026 0.78439 0.30224 0.0
C3865 C -0.00412 0.77912 0.28502 0.0
C3866 C 0.99324 0.76214 0.27546 0.0
C3867 C 0.99319 0.80242 0.31229 0.0
C3868 C 0.98657 0.81596 0.30586 0.0
C3869 C 0.00192 0.80629 0.32833 0.0
C3870 C 0.00984 0.79254 0.33538 0.0
C3871 C 0.02163 0.78091 0.32545 0.0
C3872 C 0.02878 0.76777 0.33203 0.0
C3873 C 0.02435 0.76619 0.34859 0.0
C3874 C 0.0128 0.7778 0.35863 0.0
C3875 C 0.0056 0.79096 0.3521 0.0
H3876 H 0.02989 0.756 0.35366 0.0
H3877 H 0.95763 0.88214 0.28973 0.0
H3878 H 0.61038 0.75545 0.96033 0.0
H3879 H 0.63691 0.7513 0.97486 0.0
H3880 H 0.65156 0.71073 0.93058 0.0
H3881 H 0.62491 0.71448 0.91617 0.0
H3882 H 0.66031 0.70233 0.9597 0.0
H3883 H 0.66606 0.753 0.93656 0.0
H3884 H 0.65796 0.7819 0.93317 0.0
H3885 H 0.66439 0.80308 0.98783 0.0
H3886 H 0.67233 0.77423 0.99157 0.0
H3887 H 0.7499 0.70198 0.96042 0.0
H3888 H 0.71964 0.7043 0.95465 0.0
H3889 H 0.71387 0.74285 0.00287 0.0
H3890 H 0.74435 0.74078 0.00871 0.0
H3891 H 0.6991 0.7529 0.97642 0.0
H3892 H 0.69748 0.70247 -0.00147 0.0
H3893 H 0.70621 0.67353 0.00126 0.0
H3894 H 0.69256 0.65175 0.94817 0.0
H3895 H 0.68397 0.6806 0.94504 0.0
C3896 C 0.61917 0.74552 0.95376 0.0
C3897 C 0.6156 0.73541 0.93701 0.0
C3898 C 0.63435 0.7432 0.96206 0.0
C3899 C 0.64636 0.73091 0.95368 0.0
C3900 C 0.6425 0.72032 0.93728 0.0
C3901 C 0.62727 0.72252 0.92903 0.0
C3902 C 0.66332 0.72959 0.9615 0.0
C3903 C 0.66884 0.71336 0.96328 0.0
C3904 C 0.67427 0.74409 0.96663 0.0
C3905 C 0.66959 0.76144 0.96437 0.0
C3906 C 0.66563 0.7638 0.94787 0.0
C3907 C 0.66109 0.78017 0.94589 0.0
C3908 C 0.66061 0.79431 0.96029 0.0
C3909 C 0.66473 0.79211 0.9767 0.0
C3910 C 0.66926 0.77576 0.97875 0.0
C3911 C 0.74222 0.71087 0.96991 0.0
C3912 C 0.74958 0.72122 0.98503 0.0
C3913 C 0.72486 0.7121 0.96662 0.0
C3914 C 0.71445 0.7236 0.97843 0.0
C3915 C 0.72168 0.73384 0.99363 0.0
C3916 C 0.73909 0.73261 -0.00305 0.0
C3917 C 0.69625 0.72555 0.97426 0.0
C3918 C 0.6905 0.74191 0.97314 0.0
C3919 C 0.68513 0.71116 0.96967 0.0
C3920 C 0.69018 0.69374 0.97152 0.0
C3921 C 0.69645 0.69153 0.9874 0.0
C3922 C 0.70135 0.67513 0.98902 0.0
C3923 C 0.69996 0.66081 0.97489 0.0
C3924 C 0.69363 0.66285 0.95911 0.0
C3925 C 0.68872 0.67922 0.95741 0.0
H3926 H 0.70377 0.64813 0.97617 0.0
H3927 H 0.65709 0.80697 0.95872 0.0
H3928 H 0.74099 0.98284 0.70369 0.0
H3929 H 0.72273 0.98122 0.72816 0.0
H3930 H 0.68111 0.96309 0.69301 0.0
H3931 H 0.69898 0.9658 0.66868 0.0
H3932 H 0.6701 0.98641 0.71934 0.0
H3933 H 0.70428 0.93555 0.71317 0.0
H3934 H 0.73084 0.91861 0.7107 0.0
H3935 H 0.74641 0.94789 0.76106 0.0
H3936 H 0.72003 0.96516 0.76373 0.0
H3937 H 0.61643 0.96165 0.78026 0.0
H3938 H 0.636 0.95862 0.75579 0.0
H3939 H 0.67532 0.98469 0.79026 0.0
H3940 H 0.65582 0.98783 0.81489 0.0
H3941 H 0.68736 0.95617 0.76426 0.0
H3942 H 0.65334 0.0076 0.76944 0.0
H3943 H 0.62642 0.02396 0.77174 0.0
H3944 H 0.61026 0.99244 0.72257 0.0
H3945 H 0.637 0.97572 0.72009 0.0
C3946 C 0.72796 0.97845 0.70118 0.0
C3947 C 0.7216 0.9739 0.68417 0.0
C3948 C 0.71758 0.97737 0.71517 0.0
C3949 C 0.70065 0.9716 0.71242 0.0
C3950 C 0.6942 0.96731 0.69545 0.0
C3951 C 0.70454 0.96855 0.68148 0.0
C3952 C 0.68945 0.97078 0.72729 0.0
C3953 C 0.67379 0.97953 0.72897 0.0
C3954 C 0.69438 0.96215 0.74013 0.0
C3955 C 0.71024 0.95176 0.73858 0.0
C3956 C 0.71342 0.93846 0.72366 0.0
C3957 C 0.72844 0.92879 0.72224 0.0
C3958 C 0.74033 0.9322 0.7357 0.0
C3959 C 0.7372 0.94527 0.75063 0.0
C3960 C 0.72221 0.955 0.75212 0.0
C3961 C 0.62931 0.96653 0.78272 0.0
C3962 C 0.63451 0.97514 0.79953 0.0
C3963 C 0.64046 0.96481 0.7687 0.0
C3964 C 0.65701 0.97163 0.77121 0.0
C3965 C 0.66257 0.97938 0.78807 0.0
C3966 C 0.65139 0.9812 0.80211 0.0
C3967 C 0.6681 0.9717 0.75614 0.0
C3968 C 0.68371 0.9629 0.7545 0.0
C3969 C 0.66311 0.98018 0.74326 0.0
C3970 C 0.64708 0.9903 0.74466 0.0
C3971 C 0.64398 0.00407 0.75918 0.0
C3972 C 0.62877 0.01342 0.76051 0.0
C3973 C 0.61662 0.00921 0.74733 0.0
C3974 C 0.61968 -0.00433 0.73277 0.0
C3975 C 0.63486 0.98626 0.7314 0.0
H3976 H 0.60485 0.01647 0.74838 0.0
H3977 H 0.75194 0.92469 0.73457 0.0
H3978 H 0.60881 0.02762 0.21135 0.0
H3979 H 0.62954 0.03053 0.23466 0.0
H3980 H 0.66795 0.0067 0.19765 0.0
H3981 H 0.64713 0.00334 0.17423 0.0
H3982 H 0.6677 0.9922 0.22381 0.0
H3983 H 0.66924 0.0504 0.2184 0.0
H3984 H 0.65767 0.0786 0.21637 0.0
H3985 H 0.63584 0.08613 0.26719 0.0
H3986 H 0.64708 0.05786 0.26944 0.0
H3987 H 0.73441 0.00829 0.28603 0.0
H3988 H 0.71681 0.00965 0.26105 0.0
H3989 H 0.67414 0.0272 0.29503 0.0
H3990 H 0.69152 0.02536 0.31999 0.0
H3991 H 0.67831 0.04586 0.26955 0.0
H3992 H 0.67571 0.98635 0.27352 0.0
H3993 H 0.68785 0.95825 0.27513 0.0
H3994 H 0.7127 0.95366 0.22609 0.0
H3995 H 0.70089 0.98188 0.2243 0.0
C3996 C 0.62172 0.02319 0.2081 0.0
C3997 C 0.62629 0.01519 0.19092 0.0
C3998 C 0.6336 0.02495 0.22147 0.0
C3999 C 0.65036 0.01897 0.21791 0.0
C4000 C 0.65509 0.0114 0.2007 0.0
C4001 C 0.64318 0.00953 0.18733 0.0
C4002 C 0.66257 0.01955 0.23229 0.0
C4003 C 0.67027 0.00402 0.23361 0.0
C4004 C 0.66566 0.03489 0.2453 0.0
C4005 C 0.65889 0.05193 0.24403 0.0
C4006 C 0.66186 0.058 0.22909 0.0
C4007 C 0.65538 0.07402 0.22791 0.0
C4008 C 0.646 0.08413 0.24163 0.0
C4009 C 0.6431 0.07828 0.25657 0.0
C4010 C 0.64954 0.06226 0.25782 0.0
C4011 C 0.72129 0.0125 0.28818 0.0
C4012 C 0.71446 0.01711 0.30503 0.0
C4013 C 0.71127 0.01329 0.27391 0.0
C4014 C 0.69419 0.01855 0.27621 0.0
C4015 C 0.68737 0.02331 0.29301 0.0
C4016 C 0.69737 0.02245 0.3073 0.0
C4017 C 0.68328 0.01853 0.26103 0.0
C4018 C 0.67582 0.03412 0.25961 0.0
C4019 C 0.68051 0.00329 0.24783 0.0
C4020 C 0.68757 0.98631 0.24887 0.0
C4021 C 0.68388 0.97942 0.26315 0.0
C4022 C 0.69068 0.96346 0.26408 0.0
C4023 C 0.70108 0.9542 0.25075 0.0
C4024 C 0.70467 0.96086 0.23642 0.0
C4025 C 0.69792 0.97683 0.23544 0.0
H4026 H 0.70633 0.94184 0.25149 0.0
H4027 H 0.64099 0.09653 0.24069 0.0
H4028 H 0.265 0.94241 0.77638 0.0
H4029 H 0.26454 0.94641 0.74688 0.0
H4030 H 0.30717 0.98153 0.75897 0.0
H4031 H 0.30791 0.97729 0.7884 0.0
H4032 H 0.28194 0.99439 0.74228 0.0
H4033 H 0.31299 0.94139 0.73403 0.0
H4034 H 0.31846 0.91157 0.73635 0.0
H4035 H 0.27319 0.89405 0.70704 0.0
H4036 H 0.2673 0.92382 0.70475 0.0
H4037 H 0.2912 0.00041 0.6555 0.0
H4038 H 0.29824 0.99394 0.68317 0.0
H4039 H 0.25701 0.95701 0.6763 0.0
H4040 H 0.25006 0.96315 0.64853 0.0
H4041 H 0.28438 0.94523 0.69019 0.0
H4042 H 0.25182 -0.00189 0.70088 0.0
H4043 H 0.24556 0.02788 0.69883 0.0
H4044 H 0.293 0.04545 0.72386 0.0
H4045 H 0.29965 0.01572 0.72586 0.0
C4046 C 0.2743 0.95096 0.77274 0.0
C4047 C 0.28622 0.95989 0.78485 0.0
C4048 C 0.27406 0.95319 0.75587 0.0
C4049 C 0.28586 0.96422 0.75072 0.0
C4050 C 0.29786 0.97306 0.76274 0.0
C4051 C 0.29813 0.97081 0.77962 0.0
C4052 C 0.28534 0.96686 0.73291 0.0
C4053 C 0.28281 0.98368 0.73088 0.0
C4054 C 0.2861 0.95283 0.71806 0.0
C4055 C 0.28963 0.93488 0.71934 0.0
C4056 C 0.30413 0.93121 0.72819 0.0
C4057 C 0.30731 0.9143 0.72948 0.0
C4058 C 0.29616 0.90093 0.72188 0.0
C4059 C 0.28181 0.90442 0.71293 0.0
C4060 C 0.27855 0.92131 0.71162 0.0
C4061 C 0.28377 0.99074 0.65976 0.0
C4062 C 0.26995 0.98243 0.64987 0.0
C4063 C 0.28777 0.98711 0.67561 0.0
C4064 C 0.27797 0.97521 0.68193 0.0
C4065 C 0.26472 0.96628 0.6717 0.0
C4066 C 0.26074 0.96985 0.65583 0.0
C4067 C 0.28082 0.97273 0.6996 0.0
C4068 C 0.28374 0.95595 0.7016 0.0
C4069 C 0.28033 0.98678 0.71445 0.0
C4070 C 0.27632 0.00467 0.71334 0.0
C4071 C 0.26098 0.0083 0.70583 0.0
C4072 C 0.25735 0.02517 0.70469 0.0
C4073 C 0.2689 0.03854 0.71116 0.0
C4074 C 0.28408 0.03508 0.71883 0.0
C4075 C 0.28778 0.01822 0.71997 0.0
H4076 H 0.26607 0.05159 0.71027 0.0
H4077 H 0.29865 0.88785 0.72289 0.0
H4078 H 0.29459 0.00073 0.35074 0.0
H4079 H 0.30265 0.00433 0.32224 0.0
H4080 H 0.27208 0.05062 0.33061 0.0
H4081 H 0.26369 0.04696 0.35913 0.0
H4082 H 0.26478 0.02898 0.30034 0.0
H4083 H 0.31569 0.05288 0.32897 0.0
H4084 H 0.34084 0.05428 0.34778 0.0
H4085 H 0.36043 0.00766 0.31424 0.0
H4086 H 0.33527 0.00584 0.29534 0.0
H4087 H 0.2894 0.03783 0.21676 0.0
H4088 H 0.28597 0.04473 0.24827 0.0
H4089 H 0.31467 -0.0009 0.25026 0.0
H4090 H 0.31845 0.99229 0.21891 0.0
H4091 H 0.32344 0.02564 0.27642 0.0
H4092 H 0.27083 -0.00059 0.25083 0.0
H4093 H 0.24532 -0.00301 0.23231 0.0
H4094 H 0.22886 0.04739 0.26057 0.0
H4095 H 0.2544 0.05019 0.27912 0.0
C4096 C 0.28978 0.01183 0.34667 0.0
C4097 C 0.27842 0.0235 0.35719 0.0
C4098 C 0.29448 0.01394 0.33038 0.0
C4099 C 0.28807 0.02782 0.32434 0.0
C4100 C 0.27719 0.03983 0.33504 0.0
C4101 C 0.27246 0.03772 0.35134 0.0
C4102 C 0.29155 0.02885 0.30629 0.0
C4103 C 0.27762 0.02868 0.29521 0.0
C4104 C 0.3083 0.02808 0.29952 0.0
C4105 C 0.32352 0.02918 0.31079 0.0
C4106 C 0.3253 0.04286 0.32566 0.0
C4107 C 0.33957 0.04374 0.33633 0.0
C4108 C 0.35221 0.03105 0.33222 0.0
C4109 C 0.35062 0.01748 0.31741 0.0
C4110 C 0.33637 0.01654 0.3067 0.0
C4111 C 0.29508 0.02935 0.22391 0.0
C4112 C 0.30408 0.01445 0.21528 0.0
C4113 C 0.29309 0.03328 0.24192 0.0
C4114 C 0.2999 0.02231 0.25159 0.0
C4115 C 0.30933 0.00775 0.24307 0.0
C4116 C 0.31139 0.00386 0.22512 0.0
C4117 C 0.29667 0.02541 0.27047 0.0
C4118 C 0.31062 0.02631 0.28167 0.0
C4119 C 0.27994 0.02677 0.27736 0.0
C4120 C 0.26462 0.0251 0.26621 0.0
C4121 C 0.26184 0.01003 0.25299 0.0
C4122 C 0.24737 0.00858 0.24251 0.0
C4123 C 0.23551 0.02205 0.24523 0.0
C4124 C 0.23807 0.03699 0.25846 0.0
C4125 C 0.25254 0.03851 0.26896 0.0
H4126 H 0.22431 0.0209 0.23711 0.0
H4127 H 0.36325 0.03175 0.3405 0.0
loop_
_geom_bond_atom_site_label_1
_geom_bond_atom_site_label_2
_geom_bond_distance
_geom_bond_site_symmetry_2
_ccdc_geom_bond_type
O0 Cd1 2.300 . S
O0 C7 1.275 . S
Cd1 O0 2.300 . S
Cd1 O9 2.381 . S
Cd1 O10 2.378 . S
O2 Cd3 2.385 . S
O2 C7 1.255 . S
Cd3 O2 2.385 . S
Cd3 O4 2.317 . S
O4 Cd3 2.317 . S
O4 C5 1.232 . S
C5 O4 1.232 . S
C5 O6 1.218 . S
O6 C5 1.218 . S
C7 O0 1.275 . S
C7 O2 1.255 . S
C8 O9 1.258 . S
C8 O10 1.256 . S
O9 Cd1 2.381 . S
O9 C8 1.258 . S
O10 Cd1 2.378 . S
O10 C8 1.256 . S
O11 Cd12 2.300 . S
O11 C18 1.275 . S
Cd12 O11 2.300 . S
Cd12 O20 2.381 . S
Cd12 O21 2.378 . S
O13 Cd14 2.385 . S
O13 C18 1.255 . S
Cd14 O13 2.385 . S
Cd14 O15 2.317 . S
O15 Cd14 2.317 . S
O15 C16 1.232 . S
C16 O15 1.232 . S
C16 O17 1.218 . S
O17 C16 1.218 . S
C18 O11 1.275 . S
C18 O13 1.255 . S
C19 O20 1.258 . S
C19 O21 1.256 . S
O20 Cd12 2.381 . S
O20 C19 1.258 . S
O21 Cd12 2.378 . S
O21 C19 1.256 . S
O22 Cd23 2.300 . S
O22 C29 1.275 . S
Cd23 O22 2.300 . S
Cd23 O31 2.381 . S
Cd23 O32 2.378 . S
O24 Cd25 2.385 . S
O24 C29 1.255 . S
Cd25 O24 2.385 . S
Cd25 O26 2.317 . S
O26 Cd25 2.317 . S
O26 C27 1.232 . S
C27 O26 1.232 . S
C27 O28 1.218 . S
O28 C27 1.218 . S
C29 O22 1.275 . S
C29 O24 1.255 . S
C30 O31 1.258 . S
C30 O32 1.256 . S
O31 Cd23 2.381 . S
O31 C30 1.258 . S
O32 Cd23 2.378 . S
O32 C30 1.256 . S
O33 Cd34 2.300 . S
O33 C40 1.275 . S
Cd34 O33 2.300 . S
Cd34 O42 2.381 . S
Cd34 O43 2.378 . S
O35 Cd36 2.385 . S
O35 C40 1.255 . S
Cd36 O35 2.385 . S
Cd36 O37 2.317 . S
O37 Cd36 2.317 . S
O37 C38 1.232 . S
C38 O37 1.232 . S
C38 O39 1.218 . S
O39 C38 1.218 . S
C40 O33 1.275 . S
C40 O35 1.255 . S
C41 O42 1.258 . S
C41 O43 1.256 . S
O42 Cd34 2.381 . S
O42 C41 1.258 . S
O43 Cd34 2.378 . S
O43 C41 1.256 . S
O44 Cd45 2.300 . S
O44 C51 1.275 . S
Cd45 O44 2.300 . S
Cd45 O53 2.381 . S
Cd45 O54 2.378 . S
O46 Cd47 2.385 . S
O46 C51 1.255 . S
Cd47 O46 2.385 . S
Cd47 O48 2.317 . S
O48 Cd47 2.317 . S
O48 C49 1.232 . S
C49 O48 1.232 . S
C49 O50 1.218 . S
O50 C49 1.218 . S
C51 O44 1.275 . S
C51 O46 1.255 . S
C52 O53 1.258 . S
C52 O54 1.256 . S
O53 Cd45 2.381 . S
O53 C52 1.258 . S
O54 Cd45 2.378 . S
O54 C52 1.256 . S
O55 Cd56 2.300 . S
O55 C62 1.275 . S
Cd56 O55 2.300 . S
Cd56 O64 2.381 . S
Cd56 O65 2.378 . S
O57 Cd58 2.385 . S
O57 C62 1.255 . S
Cd58 O57 2.385 . S
Cd58 O59 2.317 . S
O59 Cd58 2.317 . S
O59 C60 1.232 . S
C60 O59 1.232 . S
C60 O61 1.218 . S
O61 C60 1.218 . S
C62 O55 1.275 . S
C62 O57 1.255 . S
C63 O64 1.258 . S
C63 O65 1.256 . S
O64 Cd56 2.381 . S
O64 C63 1.258 . S
O65 Cd56 2.378 . S
O65 C63 1.256 . S
O66 Cd67 2.300 . S
O66 C73 1.275 . S
Cd67 O66 2.300 . S
Cd67 O75 2.381 . S
Cd67 O76 2.378 . S
O68 Cd69 2.385 . S
O68 C73 1.255 . S
Cd69 O68 2.385 . S
Cd69 O70 2.317 . S
O70 Cd69 2.317 . S
O70 C71 1.232 . S
C71 O70 1.232 . S
C71 O72 1.218 . S
O72 C71 1.218 . S
C73 O66 1.275 . S
C73 O68 1.255 . S
C74 O75 1.258 . S
C74 O76 1.256 . S
O75 Cd67 2.381 . S
O75 C74 1.258 . S
O76 Cd67 2.378 . S
O76 C74 1.256 . S
O77 Cd78 2.300 . S
O77 C84 1.275 . S
Cd78 O77 2.300 . S
Cd78 O86 2.381 . S
Cd78 O87 2.378 . S
O79 Cd80 2.385 . S
O79 C84 1.255 . S
Cd80 O79 2.385 . S
Cd80 O81 2.317 . S
O81 Cd80 2.317 . S
O81 C82 1.232 . S
C82 O81 1.232 . S
C82 O83 1.218 . S
O83 C82 1.218 . S
C84 O77 1.275 . S
C84 O79 1.255 . S
C85 O86 1.258 . S
C85 O87 1.256 . S
O86 Cd78 2.381 . S
O86 C85 1.258 . S
O87 Cd78 2.378 . S
O87 C85 1.256 . S
O88 Cd89 2.300 . S
O88 C95 1.275 . S
Cd89 O88 2.300 . S
Cd89 O97 2.381 . S
Cd89 O98 2.378 . S
O90 Cd91 2.385 . S
O90 C95 1.255 . S
Cd91 O90 2.385 . S
Cd91 O92 2.317 . S
O92 Cd91 2.317 . S
O92 C93 1.232 . S
C93 O92 1.232 . S
C93 O94 1.218 . S
O94 C93 1.218 . S
C95 O88 1.275 . S
C95 O90 1.255 . S
C96 O97 1.258 . S
C96 O98 1.256 . S
O97 Cd89 2.381 . S
O97 C96 1.258 . S
O98 Cd89 2.378 . S
O98 C96 1.256 . S
O99 Cd100 2.300 . S
O99 C106 1.275 . S
Cd100 O99 2.300 . S
Cd100 O108 2.381 . S
Cd100 O109 2.378 . S
O101 Cd102 2.385 . S
O101 C106 1.255 . S
Cd102 O101 2.385 . S
Cd102 O103 2.317 . S
O103 Cd102 2.317 . S
O103 C104 1.232 . S
C104 O103 1.232 . S
C104 O105 1.218 . S
O105 C104 1.218 . S
C106 O99 1.275 . S
C106 O101 1.255 . S
C107 O108 1.258 . S
C107 O109 1.256 . S
O108 Cd100 2.381 . S
O108 C107 1.258 . S
O109 Cd100 2.378 . S
O109 C107 1.256 . S
O110 Cd111 2.300 . S
O110 C117 1.275 . S
Cd111 O110 2.300 . S
Cd111 O119 2.381 . S
Cd111 O120 2.378 . S
O112 Cd113 2.385 . S
O112 C117 1.255 . S
Cd113 O112 2.385 . S
Cd113 O114 2.317 . S
O114 Cd113 2.317 . S
O114 C115 1.232 . S
C115 O114 1.232 . S
C115 O116 1.218 . S
O116 C115 1.218 . S
C117 O110 1.275 . S
C117 O112 1.255 . S
C118 O119 1.258 . S
C118 O120 1.256 . S
O119 Cd111 2.381 . S
O119 C118 1.258 . S
O120 Cd111 2.378 . S
O120 C118 1.256 . S
O121 Cd122 2.300 . S
O121 C128 1.275 . S
Cd122 O121 2.300 . S
Cd122 O130 2.381 . S
Cd122 O131 2.378 . S
O123 Cd124 2.385 . S
O123 C128 1.255 . S
Cd124 O123 2.385 . S
Cd124 O125 2.317 . S
O125 Cd124 2.317 . S
O125 C126 1.232 . S
C126 O125 1.232 . S
C126 O127 1.218 . S
O127 C126 1.218 . S
C128 O121 1.275 . S
C128 O123 1.255 . S
C129 O130 1.258 . S
C129 O131 1.256 . S
O130 Cd122 2.381 . S
O130 C129 1.258 . S
O131 Cd122 2.378 . S
O131 C129 1.256 . S
O132 Cd133 2.300 . S
O132 C139 1.275 . S
Cd133 O132 2.300 . S
Cd133 O141 2.381 . S
Cd133 O142 2.378 . S
O134 Cd135 2.385 . S
O134 C139 1.255 . S
Cd135 O134 2.385 . S
Cd135 O136 2.317 . S
O136 Cd135 2.317 . S
O136 C137 1.232 . S
C137 O136 1.232 . S
C137 O138 1.218 . S
O138 C137 1.218 . S
C139 O132 1.275 . S
C139 O134 1.255 . S
C140 O141 1.258 . S
C140 O142 1.256 . S
O141 Cd133 2.381 . S
O141 C140 1.258 . S
O142 Cd133 2.378 . S
O142 C140 1.256 . S
O143 Cd144 2.300 . S
O143 C150 1.275 . S
Cd144 O143 2.300 . S
Cd144 O152 2.381 . S
Cd144 O153 2.378 . S
O145 Cd146 2.385 . S
O145 C150 1.255 . S
Cd146 O145 2.385 . S
Cd146 O147 2.317 . S
O147 Cd146 2.317 . S
O147 C148 1.232 . S
C148 O147 1.232 . S
C148 O149 1.218 . S
O149 C148 1.218 . S
C150 O143 1.275 . S
C150 O145 1.255 . S
C151 O152 1.258 . S
C151 O153 1.256 . S
O152 Cd144 2.381 . S
O152 C151 1.258 . S
O153 Cd144 2.378 . S
O153 C151 1.256 . S
O154 Cd155 2.300 . S
O154 C161 1.275 . S
Cd155 O154 2.300 . S
Cd155 O163 2.381 . S
Cd155 O164 2.378 . S
O156 Cd157 2.385 . S
O156 C161 1.255 . S
Cd157 O156 2.385 . S
Cd157 O158 2.317 . S
O158 Cd157 2.317 . S
O158 C159 1.232 . S
C159 O158 1.232 . S
C159 O160 1.218 . S
O160 C159 1.218 . S
C161 O154 1.275 . S
C161 O156 1.255 . S
C162 O163 1.258 . S
C162 O164 1.256 . S
O163 Cd155 2.381 . S
O163 C162 1.258 . S
O164 Cd155 2.378 . S
O164 C162 1.256 . S
O165 Cd166 2.300 . S
O165 C172 1.275 . S
Cd166 O165 2.300 . S
Cd166 O174 2.381 . S
Cd166 O175 2.378 . S
O167 Cd168 2.385 . S
O167 C172 1.255 . S
Cd168 O167 2.385 . S
Cd168 O169 2.317 . S
O169 Cd168 2.317 . S
O169 C170 1.232 . S
C170 O169 1.232 . S
C170 O171 1.218 . S
O171 C170 1.218 . S
C172 O165 1.275 . S
C172 O167 1.255 . S
C173 O174 1.258 . S
C173 O175 1.256 . S
O174 Cd166 2.381 . S
O174 C173 1.258 . S
O175 Cd166 2.378 . S
O175 C173 1.256 . S
O176 Cd177 2.300 . S
O176 C183 1.275 . S
Cd177 O176 2.300 . S
Cd177 O185 2.381 . S
Cd177 O186 2.378 . S
O178 Cd179 2.385 . S
O178 C183 1.255 . S
Cd179 O178 2.385 . S
Cd179 O180 2.317 . S
O180 Cd179 2.317 . S
O180 C181 1.232 . S
C181 O180 1.232 . S
C181 O182 1.218 . S
O182 C181 1.218 . S
C183 O176 1.275 . S
C183 O178 1.255 . S
C184 O185 1.258 . S
C184 O186 1.256 . S
O185 Cd177 2.381 . S
O185 C184 1.258 . S
O186 Cd177 2.378 . S
O186 C184 1.256 . S
O187 Cd188 2.300 . S
O187 C194 1.275 . S
Cd188 O187 2.300 . S
Cd188 O196 2.381 . S
Cd188 O197 2.378 . S
O189 Cd190 2.385 . S
O189 C194 1.255 . S
Cd190 O189 2.385 . S
Cd190 O191 2.317 . S
O191 Cd190 2.317 . S
O191 C192 1.232 . S
C192 O191 1.232 . S
C192 O193 1.218 . S
O193 C192 1.218 . S
C194 O187 1.275 . S
C194 O189 1.255 . S
C195 O196 1.258 . S
C195 O197 1.256 . S
O196 Cd188 2.381 . S
O196 C195 1.258 . S
O197 Cd188 2.378 . S
O197 C195 1.256 . S
O198 Cd199 2.300 . S
O198 C205 1.275 . S
Cd199 O198 2.300 . S
Cd199 O207 2.381 . S
Cd199 O208 2.378 . S
O200 Cd201 2.385 . S
O200 C205 1.255 . S
Cd201 O200 2.385 . S
Cd201 O202 2.317 . S
O202 Cd201 2.317 . S
O202 C203 1.232 . S
C203 O202 1.232 . S
C203 O204 1.218 . S
O204 C203 1.218 . S
C205 O198 1.275 . S
C205 O200 1.255 . S
C206 O207 1.258 . S
C206 O208 1.256 . S
O207 Cd199 2.381 . S
O207 C206 1.258 . S
O208 Cd199 2.378 . S
O208 C206 1.256 . S
O209 Cd210 2.300 . S
O209 C216 1.275 . S
Cd210 O209 2.300 . S
Cd210 O218 2.381 . S
Cd210 O219 2.378 . S
O211 Cd212 2.385 . S
O211 C216 1.255 . S
Cd212 O211 2.385 . S
Cd212 O213 2.317 . S
O213 Cd212 2.317 . S
O213 C214 1.232 . S
C214 O213 1.232 . S
C214 O215 1.218 . S
O215 C214 1.218 . S
C216 O209 1.275 . S
C216 O211 1.255 . S
C217 O218 1.258 . S
C217 O219 1.256 . S
O218 Cd210 2.381 . S
O218 C217 1.258 . S
O219 Cd210 2.378 . S
O219 C217 1.256 . S
O220 Cd221 2.300 . S
O220 C227 1.275 . S
Cd221 O220 2.300 . S
Cd221 O229 2.381 . S
Cd221 O230 2.378 . S
O222 Cd223 2.385 . S
O222 C227 1.255 . S
Cd223 O222 2.385 . S
Cd223 O224 2.317 . S
O224 Cd223 2.317 . S
O224 C225 1.232 . S
C225 O224 1.232 . S
C225 O226 1.218 . S
O226 C225 1.218 . S
C227 O220 1.275 . S
C227 O222 1.255 . S
C228 O229 1.258 . S
C228 O230 1.256 . S
O229 Cd221 2.381 . S
O229 C228 1.258 . S
O230 Cd221 2.378 . S
O230 C228 1.256 . S
O231 Cd232 2.300 . S
O231 C238 1.275 . S
Cd232 O231 2.300 . S
Cd232 O240 2.381 . S
Cd232 O241 2.378 . S
O233 Cd234 2.385 . S
O233 C238 1.255 . S
Cd234 O233 2.385 . S
Cd234 O235 2.317 . S
O235 Cd234 2.317 . S
O235 C236 1.232 . S
C236 O235 1.232 . S
C236 O237 1.218 . S
O237 C236 1.218 . S
C238 O231 1.275 . S
C238 O233 1.255 . S
C239 O240 1.258 . S
C239 O241 1.256 . S
O240 Cd232 2.381 . S
O240 C239 1.258 . S
O241 Cd232 2.378 . S
O241 C239 1.256 . S
O242 Cd243 2.300 . S
O242 C249 1.275 . S
Cd243 O242 2.300 . S
Cd243 O251 2.381 . S
Cd243 O252 2.378 . S
O244 Cd245 2.385 . S
O244 C249 1.255 . S
Cd245 O244 2.385 . S
Cd245 O246 2.317 . S
O246 Cd245 2.317 . S
O246 C247 1.232 . S
C247 O246 1.232 . S
C247 O248 1.218 . S
O248 C247 1.218 . S
C249 O242 1.275 . S
C249 O244 1.255 . S
C250 O251 1.258 . S
C250 O252 1.256 . S
O251 Cd243 2.381 . S
O251 C250 1.258 . S
O252 Cd243 2.378 . S
O252 C250 1.256 . S
O253 Cd254 2.300 . S
O253 C260 1.275 . S
Cd254 O253 2.300 . S
Cd254 O262 2.381 . S
Cd254 O263 2.378 . S
O255 Cd256 2.385 . S
O255 C260 1.255 . S
Cd256 O255 2.385 . S
Cd256 O257 2.317 . S
O257 Cd256 2.317 . S
O257 C258 1.232 . S
C258 O257 1.232 . S
C258 O259 1.218 . S
O259 C258 1.218 . S
C260 O253 1.275 . S
C260 O255 1.255 . S
C261 O262 1.258 . S
C261 O263 1.256 . S
O262 Cd254 2.381 . S
O262 C261 1.258 . S
O263 Cd254 2.378 . S
O263 C261 1.256 . S
O264 Cd265 2.300 . S
O264 C271 1.275 1_455 S
Cd265 O264 2.300 . S
Cd265 O273 2.381 . S
Cd265 O274 2.378 . S
O266 Cd267 2.385 . S
O266 C271 1.255 . S
Cd267 O266 2.385 . S
Cd267 O268 2.317 . S
O268 Cd267 2.317 . S
O268 C269 1.232 . S
C269 O268 1.232 . S
C269 O270 1.218 . S
O270 C269 1.218 . S
C271 O264 1.275 1_655 S
C271 O266 1.255 . S
C272 O273 1.258 . S
C272 O274 1.256 . S
O273 Cd265 2.381 . S
O273 C272 1.258 . S
O274 Cd265 2.378 . S
O274 C272 1.256 . S
O275 Cd276 2.300 . S
O275 C282 1.275 . S
Cd276 O275 2.300 . S
Cd276 O284 2.381 . S
Cd276 O285 2.378 . S
O277 Cd278 2.385 . S
O277 C282 1.255 . S
Cd278 O277 2.385 . S
Cd278 O279 2.317 . S
O279 Cd278 2.317 . S
O279 C280 1.232 . S
C280 O279 1.232 . S
C280 O281 1.218 . S
O281 C280 1.218 . S
C282 O275 1.275 . S
C282 O277 1.255 . S
C283 O284 1.258 . S
C283 O285 1.256 . S
O284 Cd276 2.381 . S
O284 C283 1.258 . S
O285 Cd276 2.378 . S
O285 C283 1.256 . S
O286 Cd287 2.300 . S
O286 C293 1.275 1_455 S
Cd287 O286 2.300 . S
Cd287 O295 2.381 . S
Cd287 O296 2.378 . S
O288 Cd289 2.385 . S
O288 C293 1.255 . S
Cd289 O288 2.385 . S
Cd289 O290 2.317 . S
O290 Cd289 2.317 . S
O290 C291 1.232 . S
C291 O290 1.232 . S
C291 O292 1.218 . S
O292 C291 1.218 . S
C293 O286 1.275 1_655 S
C293 O288 1.255 . S
C294 O295 1.258 . S
C294 O296 1.256 . S
O295 Cd287 2.381 . S
O295 C294 1.258 . S
O296 Cd287 2.378 . S
O296 C294 1.256 . S
O297 Cd298 2.300 . S
O297 C304 1.275 . S
Cd298 O297 2.300 . S
Cd298 O306 2.381 . S
Cd298 O307 2.378 . S
O299 Cd300 2.385 . S
O299 C304 1.255 . S
Cd300 O299 2.385 . S
Cd300 O301 2.317 . S
O301 Cd300 2.317 . S
O301 C302 1.232 . S
C302 O301 1.232 . S
C302 O303 1.218 . S
O303 C302 1.218 . S
C304 O297 1.275 . S
C304 O299 1.255 . S
C305 O306 1.258 . S
C305 O307 1.256 . S
O306 Cd298 2.381 . S
O306 C305 1.258 . S
O307 Cd298 2.378 . S
O307 C305 1.256 . S
O308 Cd309 2.300 . S
O308 C315 1.275 1_455 S
Cd309 O308 2.300 . S
Cd309 O317 2.381 . S
Cd309 O318 2.378 . S
O310 Cd311 2.385 . S
O310 C315 1.255 . S
Cd311 O310 2.385 . S
Cd311 O312 2.317 . S
O312 Cd311 2.317 . S
O312 C313 1.232 . S
C313 O312 1.232 . S
C313 O314 1.218 . S
O314 C313 1.218 . S
C315 O308 1.275 1_655 S
C315 O310 1.255 . S
C316 O317 1.258 . S
C316 O318 1.256 . S
O317 Cd309 2.381 . S
O317 C316 1.258 . S
O318 Cd309 2.378 . S
O318 C316 1.256 . S
O319 Cd320 2.300 . S
O319 C326 1.275 . S
Cd320 O319 2.300 . S
Cd320 O328 2.381 . S
Cd320 O329 2.378 . S
O321 Cd322 2.385 . S
O321 C326 1.255 . S
Cd322 O321 2.385 . S
Cd322 O323 2.317 . S
O323 Cd322 2.317 . S
O323 C324 1.232 . S
C324 O323 1.232 . S
C324 O325 1.218 . S
O325 C324 1.218 . S
C326 O319 1.275 . S
C326 O321 1.255 . S
C327 O328 1.258 . S
C327 O329 1.256 . S
O328 Cd320 2.381 . S
O328 C327 1.258 . S
O329 Cd320 2.378 . S
O329 C327 1.256 . S
O330 Cd331 2.300 . S
O330 C337 1.275 1_455 S
Cd331 O330 2.300 . S
Cd331 O339 2.381 . S
Cd331 O340 2.378 . S
O332 Cd333 2.385 . S
O332 C337 1.255 . S
Cd333 O332 2.385 . S
Cd333 O334 2.317 . S
O334 Cd333 2.317 . S
O334 C335 1.232 . S
C335 O334 1.232 . S
C335 O336 1.218 . S
O336 C335 1.218 . S
C337 O330 1.275 1_655 S
C337 O332 1.255 . S
C338 O339 1.258 . S
C338 O340 1.256 . S
O339 Cd331 2.381 . S
O339 C338 1.258 . S
O340 Cd331 2.378 . S
O340 C338 1.256 . S
O341 Cd342 2.300 . S
O341 C348 1.275 . S
Cd342 O341 2.300 . S
Cd342 O350 2.381 . S
Cd342 O351 2.378 . S
O343 Cd344 2.385 . S
O343 C348 1.255 . S
Cd344 O343 2.385 . S
Cd344 O345 2.317 . S
O345 Cd344 2.317 . S
O345 C346 1.232 . S
C346 O345 1.232 . S
C346 O347 1.218 . S
O347 C346 1.218 . S
C348 O341 1.275 . S
C348 O343 1.255 . S
C349 O350 1.258 . S
C349 O351 1.256 . S
O350 Cd342 2.381 . S
O350 C349 1.258 . S
O351 Cd342 2.378 . S
O351 C349 1.256 . S
O352 Cd353 2.300 . S
O352 C359 1.275 . S
Cd353 O352 2.300 . S
Cd353 O361 2.381 . S
Cd353 O362 2.378 . S
O354 Cd355 2.385 . S
O354 C359 1.255 1_545 S
Cd355 O354 2.385 . S
Cd355 O356 2.317 . S
O356 Cd355 2.317 . S
O356 C357 1.232 . S
C357 O356 1.232 . S
C357 O358 1.218 . S
O358 C357 1.218 . S
C359 O352 1.275 . S
C359 O354 1.255 1_565 S
C360 O361 1.258 . S
C360 O362 1.256 . S
O361 Cd353 2.381 . S
O361 C360 1.258 . S
O362 Cd353 2.378 . S
O362 C360 1.256 . S
O363 Cd364 2.300 . S
O363 C370 1.275 . S
Cd364 O363 2.300 . S
Cd364 O372 2.381 . S
Cd364 O373 2.378 . S
O365 Cd366 2.385 . S
O365 C370 1.255 . S
Cd366 O365 2.385 . S
Cd366 O367 2.317 . S
O367 Cd366 2.317 . S
O367 C368 1.232 . S
C368 O367 1.232 . S
C368 O369 1.218 . S
O369 C368 1.218 . S
C370 O363 1.275 . S
C370 O365 1.255 . S
C371 O372 1.258 . S
C371 O373 1.256 . S
O372 Cd364 2.381 . S
O372 C371 1.258 . S
O373 Cd364 2.378 . S
O373 C371 1.256 . S
O374 Cd375 2.300 . S
O374 C381 1.311 . S
Cd375 O374 2.300 . S
Cd375 O383 2.381 . S
Cd375 O384 2.378 . S
O376 Cd377 2.385 . S
O376 C381 1.237 1_545 S
Cd377 O376 2.385 . S
Cd377 O378 2.317 . S
O378 Cd377 2.317 . S
O378 C379 1.232 . S
C379 O378 1.232 . S
C379 O380 1.218 . S
O380 C379 1.218 . S
C381 O374 1.311 . S
C381 O376 1.237 1_565 S
C382 O383 1.258 . S
C382 O384 1.256 . S
O383 Cd375 2.381 . S
O383 C382 1.258 . S
O384 Cd375 2.378 . S
O384 C382 1.256 . S
O385 Cd386 2.299 . S
O385 C392 1.275 1_565 S
Cd386 O385 2.299 . S
Cd386 O394 2.388 . S
Cd386 O395 2.383 . S
O387 Cd388 2.385 . S
O387 C392 1.255 . S
Cd388 O387 2.385 . S
Cd388 O389 2.317 . S
O389 Cd388 2.317 . S
O389 C390 1.232 . S
C390 O389 1.232 . S
C390 O391 1.218 . S
O391 C390 1.218 . S
C392 O385 1.275 1_545 S
C392 O387 1.255 . S
C393 O394 1.258 . S
C393 O395 1.256 . S
O394 Cd386 2.388 . S
O394 C393 1.258 . S
O395 Cd386 2.383 . S
O395 C393 1.256 . S
O396 Cd397 2.300 . S
O396 C403 1.275 . S
Cd397 O396 2.300 . S
Cd397 O405 2.381 . S
Cd397 O406 2.378 . S
O398 Cd399 2.385 . S
O398 C403 1.255 1_565 S
Cd399 O398 2.385 . S
Cd399 O400 2.317 . S
O400 Cd399 2.317 . S
O400 C401 1.232 . S
C401 O400 1.232 . S
C401 O402 1.218 . S
O402 C401 1.218 . S
C403 O396 1.275 . S
C403 O398 1.255 1_545 S
C404 O405 1.258 . S
C404 O406 1.256 . S
O405 Cd397 2.381 . S
O405 C404 1.258 . S
O406 Cd397 2.378 . S
O406 C404 1.256 . S
O407 Cd408 2.299 . S
O407 C414 1.275 1_545 S
Cd408 O407 2.299 . S
Cd408 O416 2.388 . S
Cd408 O417 2.383 . S
O409 Cd410 2.385 . S
O409 C414 1.255 . S
Cd410 O409 2.385 . S
Cd410 O411 2.317 . S
O411 Cd410 2.317 . S
O411 C412 1.232 . S
C412 O411 1.232 . S
C412 O413 1.218 . S
O413 C412 1.218 . S
C414 O407 1.275 1_565 S
C414 O409 1.255 . S
C415 O416 1.258 . S
C415 O417 1.256 . S
O416 Cd408 2.388 . S
O416 C415 1.258 . S
O417 Cd408 2.383 . S
O417 C415 1.256 . S
O418 Cd419 2.300 . S
O418 C425 1.311 . S
Cd419 O418 2.300 . S
Cd419 O427 2.381 . S
Cd419 O428 2.378 . S
O420 Cd421 2.385 . S
O420 C425 1.237 1_565 S
Cd421 O420 2.385 . S
Cd421 O422 2.317 . S
O422 Cd421 2.317 . S
O422 C423 1.232 . S
C423 O422 1.232 . S
C423 O424 1.218 . S
O424 C423 1.218 . S
C425 O418 1.311 . S
C425 O420 1.237 1_545 S
C426 O427 1.258 . S
C426 O428 1.256 . S
O427 Cd419 2.381 . S
O427 C426 1.258 . S
O428 Cd419 2.378 . S
O428 C426 1.256 . S
O429 Cd430 2.300 . S
O429 C436 1.275 . S
Cd430 O429 2.300 . S
Cd430 O438 2.381 . S
Cd430 O439 2.378 . S
O431 Cd432 2.385 . S
O431 C436 1.255 . S
Cd432 O431 2.385 . S
Cd432 O433 2.317 . S
O433 Cd432 2.317 . S
O433 C434 1.232 . S
C434 O433 1.232 . S
C434 O435 1.218 . S
O435 C434 1.218 . S
C436 O429 1.275 . S
C436 O431 1.255 . S
C437 O438 1.258 . S
C437 O439 1.256 . S
O438 Cd430 2.381 . S
O438 C437 1.258 . S
O439 Cd430 2.378 . S
O439 C437 1.256 . S
O440 Cd441 2.300 . S
O440 C447 1.275 1_554 S
Cd441 O440 2.300 . S
Cd441 O449 2.381 . S
Cd441 O450 2.378 . S
O442 Cd443 2.385 . S
O442 C447 1.255 . S
Cd443 O442 2.385 . S
Cd443 O444 2.317 . S
O444 Cd443 2.317 . S
O444 C445 1.232 . S
C445 O444 1.232 . S
C445 O446 1.218 . S
O446 C445 1.218 . S
C447 O440 1.275 1_556 S
C447 O442 1.255 . S
C448 O449 1.258 . S
C448 O450 1.256 . S
O449 Cd441 2.381 . S
O449 C448 1.258 . S
O450 Cd441 2.378 . S
O450 C448 1.256 . S
O451 Cd452 2.300 . S
O451 C458 1.275 1_556 S
Cd452 O451 2.300 . S
Cd452 O460 2.381 . S
Cd452 O461 2.378 . S
O453 Cd454 2.385 . S
O453 C458 1.255 . S
Cd454 O453 2.385 . S
Cd454 O455 2.317 . S
O455 Cd454 2.317 . S
O455 C456 1.232 . S
C456 O455 1.232 . S
C456 O457 1.218 . S
O457 C456 1.218 . S
C458 O451 1.275 1_554 S
C458 O453 1.255 . S
C459 O460 1.258 . S
C459 O461 1.256 . S
O460 Cd452 2.381 . S
O460 C459 1.258 . S
O461 Cd452 2.378 . S
O461 C459 1.256 . S
O462 Cd463 2.300 . S
O462 C469 1.275 . S
Cd463 O462 2.300 . S
Cd463 O471 2.381 1_655 S
Cd463 O472 2.384 . S
O464 Cd465 2.385 . S
O464 C469 1.255 . S
Cd465 O464 2.385 . S
Cd465 O466 2.317 . S
O466 Cd465 2.317 . S
O466 C467 1.232 . S
C467 O466 1.232 . S
C467 O468 1.218 . S
O468 C467 1.218 . S
C469 O462 1.275 . S
C469 O464 1.255 . S
C470 O471 1.258 . S
C470 O472 1.243 1_455 S
O471 Cd463 2.381 1_455 S
O471 C470 1.258 . S
O472 Cd463 2.384 . S
O472 C470 1.243 1_655 S
O473 Cd474 2.300 1_554 S
O473 C480 1.275 . S
Cd474 O473 2.300 1_556 S
Cd474 O482 2.381 . S
Cd474 O483 2.378 . S
O475 Cd476 2.385 . S
O475 C480 1.255 . S
Cd476 O475 2.385 . S
Cd476 O477 2.317 . S
O477 Cd476 2.317 . S
O477 C478 1.232 . S
C478 O477 1.232 . S
C478 O479 1.218 . S
O479 C478 1.218 . S
C480 O473 1.275 . S
C480 O475 1.255 . S
C481 O482 1.258 . S
C481 O483 1.256 . S
O482 Cd474 2.381 . S
O482 C481 1.258 . S
O483 Cd474 2.378 . S
O483 C481 1.256 . S
O484 Cd485 2.300 . S
O484 C491 1.275 . S
Cd485 O484 2.300 . S
Cd485 O493 2.381 . S
Cd485 O494 2.378 . S
O486 Cd487 2.385 . S
O486 C491 1.255 . S
Cd487 O486 2.385 . S
Cd487 O488 2.317 . S
O488 Cd487 2.317 . S
O488 C489 1.232 . S
C489 O488 1.232 . S
C489 O490 1.218 . S
O490 C489 1.218 . S
C491 O484 1.275 . S
C491 O486 1.255 . S
C492 O493 1.258 . S
C492 O494 1.256 . S
O493 Cd485 2.381 . S
O493 C492 1.258 . S
O494 Cd485 2.378 . S
O494 C492 1.256 . S
O495 Cd496 2.300 1_556 S
O495 C502 1.275 . S
Cd496 O495 2.300 1_554 S
Cd496 O504 2.381 . S
Cd496 O505 2.378 . S
O497 Cd498 2.385 . S
O497 C502 1.255 . S
Cd498 O497 2.385 . S
Cd498 O499 2.317 . S
O499 Cd498 2.317 . S
O499 C500 1.232 . S
C500 O499 1.232 . S
C500 O501 1.218 . S
O501 C500 1.218 . S
C502 O495 1.275 . S
C502 O497 1.255 . S
C503 O504 1.258 . S
C503 O505 1.256 . S
O504 Cd496 2.381 . S
O504 C503 1.258 . S
O505 Cd496 2.378 . S
O505 C503 1.256 . S
O506 Cd507 2.300 . S
O506 C513 1.275 . S
Cd507 O506 2.300 . S
Cd507 O515 2.381 1_655 S
Cd507 O516 2.384 . S
O508 Cd509 2.385 . S
O508 C513 1.255 . S
Cd509 O508 2.385 . S
Cd509 O510 2.317 . S
O510 Cd509 2.317 . S
O510 C511 1.232 . S
C511 O510 1.232 . S
C511 O512 1.218 . S
O512 C511 1.218 . S
C513 O506 1.275 . S
C513 O508 1.255 . S
C514 O515 1.258 . S
C514 O516 1.243 1_455 S
O515 Cd507 2.381 1_455 S
O515 C514 1.258 . S
O516 Cd507 2.384 . S
O516 C514 1.243 1_655 S
O517 Cd518 2.300 . S
O517 C524 1.275 . S
Cd518 O517 2.300 . S
Cd518 O526 2.381 . S
Cd518 O527 2.378 . S
O519 Cd520 2.385 . S
O519 C524 1.255 . S
Cd520 O519 2.385 . S
Cd520 O521 2.317 . S
O521 Cd520 2.317 . S
O521 C522 1.232 . S
C522 O521 1.232 . S
C522 O523 1.218 . S
O523 C522 1.218 . S
C524 O517 1.275 . S
C524 O519 1.255 . S
C525 O526 1.258 . S
C525 O527 1.256 . S
O526 Cd518 2.381 . S
O526 C525 1.258 . S
O527 Cd518 2.378 . S
O527 C525 1.256 . S
H528 C546 0.951 . S
H529 C548 0.951 . S
H530 C550 0.950 . S
H531 C551 0.950 . S
H532 C553 0.950 . S
H533 C556 0.950 . S
H534 C557 0.950 . S
H535 C559 0.950 . S
H536 C560 0.950 . S
H537 C561 0.951 . S
H538 C563 0.951 . S
H539 C565 0.950 . S
H540 C566 0.950 . S
H541 C568 0.950 . S
H542 C571 0.950 . S
H543 C572 0.950 . S
H544 C574 0.950 . S
H545 C575 0.950 . S
C546 H528 0.951 . S
C546 C547 1.366 . S
C546 C548 1.388 . S
C547 C546 1.366 . S
C547 C551 1.385 . S
C548 H529 0.951 . S
C548 C546 1.388 . S
C548 C549 1.366 . S
C549 C548 1.366 . S
C549 C550 1.414 . S
C549 C552 1.499 . S
C550 H530 0.950 . S
C550 C549 1.414 . S
C550 C551 1.374 . S
C551 H531 0.950 . S
C551 C547 1.385 . S
C551 C550 1.374 . S
C552 C549 1.499 . S
C552 C553 1.373 . S
C552 C554 1.389 . S
C553 H532 0.950 . S
C553 C552 1.373 . S
C553 C569 1.377 . S
C554 C552 1.389 . S
C554 C555 1.524 . S
C554 C568 1.377 . S
C555 C554 1.524 . S
C555 C556 1.397 . S
C555 C560 1.363 . S
C556 H533 0.950 . S
C556 C555 1.397 . S
C556 C557 1.334 . S
C557 H534 0.950 . S
C557 C556 1.334 . S
C557 C558 1.287 . S
C558 C557 1.287 . S
C558 C559 1.524 . S
C558 H577 0.913 . S
C559 H535 0.950 . S
C559 C558 1.524 . S
C559 C560 1.415 . S
C560 H536 0.950 . S
C560 C555 1.363 . S
C560 C559 1.415 . S
C561 H537 0.951 . S
C561 C562 1.366 . S
C561 C563 1.388 . S
C562 C561 1.366 . S
C562 C566 1.385 . S
C563 H538 0.951 . S
C563 C561 1.388 . S
C563 C564 1.366 . S
C564 C563 1.366 . S
C564 C565 1.414 . S
C564 C567 1.499 . S
C565 H539 0.950 . S
C565 C564 1.414 . S
C565 C566 1.374 . S
C566 H540 0.950 . S
C566 C562 1.385 . S
C566 C565 1.374 . S
C567 C564 1.499 . S
C567 C568 1.373 . S
C567 C569 1.389 . S
C568 H541 0.950 . S
C568 C554 1.377 . S
C568 C567 1.373 . S
C569 C553 1.377 . S
C569 C567 1.389 . S
C569 C570 1.524 . S
C570 C569 1.524 . S
C570 C571 1.397 . S
C570 C575 1.363 . S
C571 H542 0.950 . S
C571 C570 1.397 . S
C571 C572 1.334 . S
C572 H543 0.950 . S
C572 C571 1.334 . S
C572 C573 1.287 . S
C573 C572 1.287 . S
C573 C574 1.524 . S
C573 H576 0.999 . S
C574 H544 0.950 . S
C574 C573 1.524 . S
C574 C575 1.415 . S
C575 H545 0.950 . S
C575 C570 1.363 . S
C575 C574 1.415 . S
H576 C573 0.999 . S
H577 C558 0.913 . S
H578 C596 0.951 . S
H579 C598 0.951 . S
H580 C600 0.950 . S
H581 C601 0.950 . S
H582 C603 0.950 . S
H583 C606 0.950 . S
H584 C607 0.950 . S
H585 C609 0.950 . S
H586 C610 0.950 . S
H587 C611 0.951 . S
H588 C613 0.951 . S
H589 C615 0.950 . S
H590 C616 0.950 . S
H591 C618 0.950 . S
H592 C621 0.950 . S
H593 C622 0.950 . S
H594 C624 0.950 . S
H595 C625 0.950 . S
C596 H578 0.951 . S
C596 C597 1.366 . S
C596 C598 1.388 . S
C597 C596 1.366 . S
C597 C601 1.385 . S
C598 H579 0.951 . S
C598 C596 1.388 . S
C598 C599 1.366 . S
C599 C598 1.366 . S
C599 C600 1.414 . S
C599 C602 1.499 . S
C600 H580 0.950 . S
C600 C599 1.414 . S
C600 C601 1.374 . S
C601 H581 0.950 . S
C601 C597 1.385 . S
C601 C600 1.374 . S
C602 C599 1.499 . S
C602 C603 1.373 . S
C602 C604 1.389 . S
C603 H582 0.950 . S
C603 C602 1.373 . S
C603 C619 1.377 . S
C604 C602 1.389 . S
C604 C605 1.524 . S
C604 C618 1.377 . S
C605 C604 1.524 . S
C605 C606 1.397 . S
C605 C610 1.363 . S
C606 H583 0.950 . S
C606 C605 1.397 . S
C606 C607 1.334 . S
C607 H584 0.950 . S
C607 C606 1.334 . S
C607 C608 1.287 . S
C608 C607 1.287 . S
C608 C609 1.524 . S
C608 H627 0.913 . S
C609 H585 0.950 . S
C609 C608 1.524 . S
C609 C610 1.415 . S
C610 H586 0.950 . S
C610 C605 1.363 . S
C610 C609 1.415 . S
C611 H587 0.951 . S
C611 C612 1.366 . S
C611 C613 1.388 . S
C612 C611 1.366 . S
C612 C616 1.385 . S
C613 H588 0.951 . S
C613 C611 1.388 . S
C613 C614 1.366 . S
C614 C613 1.366 . S
C614 C615 1.414 . S
C614 C617 1.499 . S
C615 H589 0.950 . S
C615 C614 1.414 . S
C615 C616 1.374 . S
C616 H590 0.950 . S
C616 C612 1.385 . S
C616 C615 1.374 . S
C617 C614 1.499 . S
C617 C618 1.373 . S
C617 C619 1.389 . S
C618 H591 0.950 . S
C618 C604 1.377 . S
C618 C617 1.373 . S
C619 C603 1.377 . S
C619 C617 1.389 . S
C619 C620 1.524 . S
C620 C619 1.524 . S
C620 C621 1.397 . S
C620 C625 1.363 . S
C621 H592 0.950 . S
C621 C620 1.397 . S
C621 C622 1.334 . S
C622 H593 0.950 . S
C622 C621 1.334 . S
C622 C623 1.287 . S
C623 C622 1.287 . S
C623 C624 1.524 . S
C623 H626 0.999 . S
C624 H594 0.950 . S
C624 C623 1.524 . S
C624 C625 1.415 . S
C625 H595 0.950 . S
C625 C620 1.363 . S
C625 C624 1.415 . S
H626 C623 0.999 . S
H627 C608 0.913 . S
H628 C646 0.951 . S
H629 C648 0.951 . S
H630 C650 0.950 . S
H631 C651 0.950 . S
H632 C653 0.950 . S
H633 C656 0.950 . S
H634 C657 0.950 . S
H635 C659 0.950 . S
H636 C660 0.950 . S
H637 C661 0.951 . S
H638 C663 0.951 . S
H639 C665 0.950 . S
H640 C666 0.950 . S
H641 C668 0.950 . S
H642 C671 0.950 . S
H643 C672 0.950 . S
H644 C674 0.950 . S
H645 C675 0.950 . S
C646 H628 0.951 . S
C646 C647 1.366 . S
C646 C648 1.388 . S
C647 C646 1.366 . S
C647 C651 1.385 . S
C648 H629 0.951 . S
C648 C646 1.388 . S
C648 C649 1.366 . S
C649 C648 1.366 . S
C649 C650 1.414 . S
C649 C652 1.499 . S
C650 H630 0.950 . S
C650 C649 1.414 . S
C650 C651 1.374 . S
C651 H631 0.950 . S
C651 C647 1.385 . S
C651 C650 1.374 . S
C652 C649 1.499 . S
C652 C653 1.373 . S
C652 C654 1.389 . S
C653 H632 0.950 . S
C653 C652 1.373 . S
C653 C669 1.377 . S
C654 C652 1.389 . S
C654 C655 1.524 . S
C654 C668 1.377 . S
C655 C654 1.524 . S
C655 C656 1.397 . S
C655 C660 1.363 . S
C656 H633 0.950 . S
C656 C655 1.397 . S
C656 C657 1.334 . S
C657 H634 0.950 . S
C657 C656 1.334 . S
C657 C658 1.287 . S
C658 C657 1.287 . S
C658 C659 1.524 . S
C658 H677 0.913 . S
C659 H635 0.950 . S
C659 C658 1.524 . S
C659 C660 1.415 . S
C660 H636 0.950 . S
C660 C655 1.363 . S
C660 C659 1.415 . S
C661 H637 0.951 . S
C661 C662 1.366 . S
C661 C663 1.388 . S
C662 C661 1.366 . S
C662 C666 1.385 . S
C663 H638 0.951 . S
C663 C661 1.388 . S
C663 C664 1.366 . S
C664 C663 1.366 . S
C664 C665 1.414 . S
C664 C667 1.499 . S
C665 H639 0.950 . S
C665 C664 1.414 . S
C665 C666 1.374 . S
C666 H640 0.950 . S
C666 C662 1.385 . S
C666 C665 1.374 . S
C667 C664 1.499 . S
C667 C668 1.373 . S
C667 C669 1.389 . S
C668 H641 0.950 . S
C668 C654 1.377 . S
C668 C667 1.373 . S
C669 C653 1.377 . S
C669 C667 1.389 . S
C669 C670 1.524 . S
C670 C669 1.524 . S
C670 C671 1.397 . S
C670 C675 1.363 . S
C671 H642 0.950 . S
C671 C670 1.397 . S
C671 C672 1.334 . S
C672 H643 0.950 . S
C672 C671 1.334 . S
C672 C673 1.287 . S
C673 C672 1.287 . S
C673 C674 1.524 . S
C673 H676 0.999 . S
C674 H644 0.950 . S
C674 C673 1.524 . S
C674 C675 1.415 . S
C675 H645 0.950 . S
C675 C670 1.363 . S
C675 C674 1.415 . S
H676 C673 0.999 . S
H677 C658 0.913 . S
H678 C696 0.951 . S
H679 C698 0.951 . S
H680 C700 0.950 . S
H681 C701 0.950 . S
H682 C703 0.950 . S
H683 C706 0.950 . S
H684 C707 0.950 . S
H685 C709 0.950 . S
H686 C710 0.950 . S
H687 C711 0.951 . S
H688 C713 0.951 . S
H689 C715 0.950 . S
H690 C716 0.950 . S
H691 C718 0.950 . S
H692 C721 0.950 . S
H693 C722 0.950 . S
H694 C724 0.950 . S
H695 C725 0.950 . S
C696 H678 0.951 . S
C696 C697 1.366 . S
C696 C698 1.388 . S
C697 C696 1.366 . S
C697 C701 1.385 . S
C698 H679 0.951 . S
C698 C696 1.388 . S
C698 C699 1.366 . S
C699 C698 1.366 . S
C699 C700 1.414 . S
C699 C702 1.499 . S
C700 H680 0.950 . S
C700 C699 1.414 . S
C700 C701 1.374 . S
C701 H681 0.950 . S
C701 C697 1.385 . S
C701 C700 1.374 . S
C702 C699 1.499 . S
C702 C703 1.373 . S
C702 C704 1.389 . S
C703 H682 0.950 . S
C703 C702 1.373 . S
C703 C719 1.377 . S
C704 C702 1.389 . S
C704 C705 1.524 . S
C704 C718 1.377 . S
C705 C704 1.524 . S
C705 C706 1.397 . S
C705 C710 1.363 . S
C706 H683 0.950 . S
C706 C705 1.397 . S
C706 C707 1.334 . S
C707 H684 0.950 . S
C707 C706 1.334 . S
C707 C708 1.287 . S
C708 C707 1.287 . S
C708 C709 1.524 . S
C708 H727 0.913 . S
C709 H685 0.950 . S
C709 C708 1.524 . S
C709 C710 1.415 . S
C710 H686 0.950 . S
C710 C705 1.363 . S
C710 C709 1.415 . S
C711 H687 0.951 . S
C711 C712 1.366 . S
C711 C713 1.388 . S
C712 C711 1.366 . S
C712 C716 1.385 . S
C713 H688 0.951 . S
C713 C711 1.388 . S
C713 C714 1.366 . S
C714 C713 1.366 . S
C714 C715 1.414 . S
C714 C717 1.499 . S
C715 H689 0.950 . S
C715 C714 1.414 . S
C715 C716 1.374 . S
C716 H690 0.950 . S
C716 C712 1.385 . S
C716 C715 1.374 . S
C717 C714 1.499 . S
C717 C718 1.373 . S
C717 C719 1.389 . S
C718 H691 0.950 . S
C718 C704 1.377 . S
C718 C717 1.373 . S
C719 C703 1.377 . S
C719 C717 1.389 . S
C719 C720 1.524 . S
C720 C719 1.524 . S
C720 C721 1.397 . S
C720 C725 1.363 . S
C721 H692 0.950 . S
C721 C720 1.397 . S
C721 C722 1.334 . S
C722 H693 0.950 . S
C722 C721 1.334 . S
C722 C723 1.287 . S
C723 C722 1.287 . S
C723 C724 1.524 . S
C723 H726 0.999 . S
C724 H694 0.950 . S
C724 C723 1.524 . S
C724 C725 1.415 . S
C725 H695 0.950 . S
C725 C720 1.363 . S
C725 C724 1.415 . S
H726 C723 0.999 . S
H727 C708 0.913 . S
H728 C746 0.951 . S
H729 C748 0.951 . S
H730 C750 0.950 . S
H731 C751 0.950 . S
H732 C753 0.950 . S
H733 C756 0.950 . S
H734 C757 0.950 . S
H735 C759 0.950 . S
H736 C760 0.950 . S
H737 C761 0.951 . S
H738 C763 0.951 . S
H739 C765 0.950 . S
H740 C766 0.950 . S
H741 C768 0.950 . S
H742 C771 0.950 . S
H743 C772 0.950 . S
H744 C774 0.950 . S
H745 C775 0.950 . S
C746 H728 0.951 . S
C746 C747 1.366 . S
C746 C748 1.388 . S
C747 C746 1.366 . S
C747 C751 1.385 . S
C748 H729 0.951 . S
C748 C746 1.388 . S
C748 C749 1.366 . S
C749 C748 1.366 . S
C749 C750 1.414 . S
C749 C752 1.499 . S
C750 H730 0.950 . S
C750 C749 1.414 . S
C750 C751 1.374 . S
C751 H731 0.950 . S
C751 C747 1.385 . S
C751 C750 1.374 . S
C752 C749 1.499 . S
C752 C753 1.373 . S
C752 C754 1.389 . S
C753 H732 0.950 . S
C753 C752 1.373 . S
C753 C769 1.377 . S
C754 C752 1.389 . S
C754 C755 1.524 . S
C754 C768 1.377 . S
C755 C754 1.524 . S
C755 C756 1.397 . S
C755 C760 1.363 . S
C756 H733 0.950 . S
C756 C755 1.397 . S
C756 C757 1.334 . S
C757 H734 0.950 . S
C757 C756 1.334 . S
C757 C758 1.287 . S
C758 C757 1.287 . S
C758 C759 1.524 . S
C758 H777 0.913 . S
C759 H735 0.950 . S
C759 C758 1.524 . S
C759 C760 1.415 . S
C760 H736 0.950 . S
C760 C755 1.363 . S
C760 C759 1.415 . S
C761 H737 0.951 . S
C761 C762 1.366 . S
C761 C763 1.388 . S
C762 C761 1.366 . S
C762 C766 1.385 . S
C763 H738 0.951 . S
C763 C761 1.388 . S
C763 C764 1.366 . S
C764 C763 1.366 . S
C764 C765 1.414 . S
C764 C767 1.499 . S
C765 H739 0.950 . S
C765 C764 1.414 . S
C765 C766 1.374 . S
C766 H740 0.950 . S
C766 C762 1.385 . S
C766 C765 1.374 . S
C767 C764 1.499 . S
C767 C768 1.373 . S
C767 C769 1.389 . S
C768 H741 0.950 . S
C768 C754 1.377 . S
C768 C767 1.373 . S
C769 C753 1.377 . S
C769 C767 1.389 . S
C769 C770 1.524 . S
C770 C769 1.524 . S
C770 C771 1.397 . S
C770 C775 1.363 . S
C771 H742 0.950 . S
C771 C770 1.397 . S
C771 C772 1.334 . S
C772 H743 0.950 . S
C772 C771 1.334 . S
C772 C773 1.287 . S
C773 C772 1.287 . S
C773 C774 1.524 . S
C773 H776 0.999 . S
C774 H744 0.950 . S
C774 C773 1.524 . S
C774 C775 1.415 . S
C775 H745 0.950 . S
C775 C770 1.363 . S
C775 C774 1.415 . S
H776 C773 0.999 . S
H777 C758 0.913 . S
H778 C796 0.951 . S
H779 C798 0.951 . S
H780 C800 0.950 . S
H781 C801 0.950 . S
H782 C803 0.950 . S
H783 C806 0.950 . S
H784 C807 0.950 . S
H785 C809 0.950 . S
H786 C810 0.950 . S
H787 C811 0.951 . S
H788 C813 0.951 . S
H789 C815 0.950 . S
H790 C816 0.950 . S
H791 C818 0.950 . S
H792 C821 0.950 . S
H793 C822 0.950 . S
H794 C824 0.950 . S
H795 C825 0.950 . S
C796 H778 0.951 . S
C796 C797 1.366 . S
C796 C798 1.388 . S
C797 C796 1.366 . S
C797 C801 1.385 . S
C798 H779 0.951 . S
C798 C796 1.388 . S
C798 C799 1.366 . S
C799 C798 1.366 . S
C799 C800 1.414 . S
C799 C802 1.499 . S
C800 H780 0.950 . S
C800 C799 1.414 . S
C800 C801 1.374 . S
C801 H781 0.950 . S
C801 C797 1.385 . S
C801 C800 1.374 . S
C802 C799 1.499 . S
C802 C803 1.373 . S
C802 C804 1.389 . S
C803 H782 0.950 . S
C803 C802 1.373 . S
C803 C819 1.377 . S
C804 C802 1.389 . S
C804 C805 1.524 . S
C804 C818 1.377 . S
C805 C804 1.524 . S
C805 C806 1.397 . S
C805 C810 1.363 . S
C806 H783 0.950 . S
C806 C805 1.397 . S
C806 C807 1.334 . S
C807 H784 0.950 . S
C807 C806 1.334 . S
C807 C808 1.287 . S
C808 C807 1.287 . S
C808 C809 1.524 . S
C808 H827 0.913 . S
C809 H785 0.950 . S
C809 C808 1.524 . S
C809 C810 1.415 . S
C810 H786 0.950 . S
C810 C805 1.363 . S
C810 C809 1.415 . S
C811 H787 0.951 . S
C811 C812 1.366 . S
C811 C813 1.388 . S
C812 C811 1.366 . S
C812 C816 1.385 . S
C813 H788 0.951 . S
C813 C811 1.388 . S
C813 C814 1.366 . S
C814 C813 1.366 . S
C814 C815 1.414 . S
C814 C817 1.499 . S
C815 H789 0.950 . S
C815 C814 1.414 . S
C815 C816 1.374 . S
C816 H790 0.950 . S
C816 C812 1.385 . S
C816 C815 1.374 . S
C817 C814 1.499 . S
C817 C818 1.373 . S
C817 C819 1.389 . S
C818 H791 0.950 . S
C818 C804 1.377 . S
C818 C817 1.373 . S
C819 C803 1.377 . S
C819 C817 1.389 . S
C819 C820 1.524 . S
C820 C819 1.524 . S
C820 C821 1.397 . S
C820 C825 1.363 . S
C821 H792 0.950 . S
C821 C820 1.397 . S
C821 C822 1.334 . S
C822 H793 0.950 . S
C822 C821 1.334 . S
C822 C823 1.287 . S
C823 C822 1.287 . S
C823 C824 1.524 . S
C823 H826 0.999 . S
C824 H794 0.950 . S
C824 C823 1.524 . S
C824 C825 1.415 . S
C825 H795 0.950 . S
C825 C820 1.363 . S
C825 C824 1.415 . S
H826 C823 0.999 . S
H827 C808 0.913 . S
H828 C846 0.951 . S
H829 C848 0.951 . S
H830 C850 0.950 . S
H831 C851 0.950 . S
H832 C853 0.950 . S
H833 C856 0.950 . S
H834 C857 0.950 . S
H835 C859 0.950 . S
H836 C860 0.950 . S
H837 C861 0.951 . S
H838 C863 0.951 . S
H839 C865 0.950 . S
H840 C866 0.950 . S
H841 C868 0.950 . S
H842 C871 0.950 . S
H843 C872 0.950 . S
H844 C874 0.950 . S
H845 C875 0.950 . S
C846 H828 0.951 . S
C846 C847 1.366 . S
C846 C848 1.388 . S
C847 C846 1.366 . S
C847 C851 1.385 . S
C848 H829 0.951 . S
C848 C846 1.388 . S
C848 C849 1.366 . S
C849 C848 1.366 . S
C849 C850 1.414 . S
C849 C852 1.499 . S
C850 H830 0.950 . S
C850 C849 1.414 . S
C850 C851 1.374 . S
C851 H831 0.950 . S
C851 C847 1.385 . S
C851 C850 1.374 . S
C852 C849 1.499 . S
C852 C853 1.373 . S
C852 C854 1.389 . S
C853 H832 0.950 . S
C853 C852 1.373 . S
C853 C869 1.377 . S
C854 C852 1.389 . S
C854 C855 1.524 . S
C854 C868 1.377 . S
C855 C854 1.524 . S
C855 C856 1.397 . S
C855 C860 1.363 . S
C856 H833 0.950 . S
C856 C855 1.397 . S
C856 C857 1.334 . S
C857 H834 0.950 . S
C857 C856 1.334 . S
C857 C858 1.287 . S
C858 C857 1.287 . S
C858 C859 1.524 . S
C858 H877 0.874 1_545 S
C859 H835 0.950 . S
C859 C858 1.524 . S
C859 C860 1.415 . S
C860 H836 0.950 . S
C860 C855 1.363 . S
C860 C859 1.415 . S
C861 H837 0.951 . S
C861 C862 1.366 . S
C861 C863 1.388 . S
C862 C861 1.366 . S
C862 C866 1.385 . S
C863 H838 0.951 . S
C863 C861 1.388 . S
C863 C864 1.366 . S
C864 C863 1.366 . S
C864 C865 1.414 . S
C864 C867 1.499 . S
C865 H839 0.950 . S
C865 C864 1.414 . S
C865 C866 1.374 . S
C866 H840 0.950 . S
C866 C862 1.385 . S
C866 C865 1.374 . S
C867 C864 1.499 . S
C867 C868 1.373 . S
C867 C869 1.389 . S
C868 H841 0.950 . S
C868 C854 1.377 . S
C868 C867 1.373 . S
C869 C853 1.377 . S
C869 C867 1.389 . S
C869 C870 1.524 . S
C870 C869 1.524 . S
C870 C871 1.397 . S
C870 C875 1.363 . S
C871 H842 0.950 . S
C871 C870 1.397 . S
C871 C872 1.334 . S
C872 H843 0.950 . S
C872 C871 1.334 . S
C872 C873 1.287 . S
C873 C872 1.287 . S
C873 C874 1.524 . S
C873 H876 0.999 . S
C874 H844 0.950 . S
C874 C873 1.524 . S
C874 C875 1.415 . S
C875 H845 0.950 . S
C875 C870 1.363 . S
C875 C874 1.415 . S
H876 C873 0.999 . S
H877 C858 0.874 1_565 S
H878 C896 0.951 . S
H879 C898 0.951 . S
H880 C900 0.950 . S
H881 C901 0.950 . S
H882 C903 0.950 . S
H883 C906 0.950 . S
H884 C907 0.950 . S
H885 C909 0.950 . S
H886 C910 0.950 . S
H887 C911 0.951 . S
H888 C913 0.951 . S
H889 C915 0.950 . S
H890 C916 0.950 . S
H891 C918 0.950 . S
H892 C921 0.950 . S
H893 C922 0.950 . S
H894 C924 0.950 . S
H895 C925 0.950 . S
C896 H878 0.951 . S
C896 C897 1.366 . S
C896 C898 1.388 . S
C897 C896 1.366 . S
C897 C901 1.385 . S
C898 H879 0.951 . S
C898 C896 1.388 . S
C898 C899 1.366 . S
C899 C898 1.366 . S
C899 C900 1.414 . S
C899 C902 1.499 . S
C900 H880 0.950 . S
C900 C899 1.414 . S
C900 C901 1.374 . S
C901 H881 0.950 . S
C901 C897 1.385 . S
C901 C900 1.374 . S
C902 C899 1.499 . S
C902 C903 1.373 . S
C902 C904 1.389 . S
C903 H882 0.950 . S
C903 C902 1.373 . S
C903 C919 1.377 . S
C904 C902 1.389 . S
C904 C905 1.524 . S
C904 C918 1.377 . S
C905 C904 1.524 . S
C905 C906 1.397 . S
C905 C910 1.363 . S
C906 H883 0.950 . S
C906 C905 1.397 . S
C906 C907 1.334 . S
C907 H884 0.950 . S
C907 C906 1.334 . S
C907 C908 1.287 . S
C908 C907 1.287 . S
C908 C909 1.524 . S
C908 H927 0.913 . S
C909 H885 0.950 . S
C909 C908 1.524 . S
C909 C910 1.415 . S
C910 H886 0.950 . S
C910 C905 1.363 . S
C910 C909 1.415 . S
C911 H887 0.951 . S
C911 C912 1.366 . S
C911 C913 1.388 . S
C912 C911 1.366 . S
C912 C916 1.385 . S
C913 H888 0.951 . S
C913 C911 1.388 . S
C913 C914 1.366 . S
C914 C913 1.366 . S
C914 C915 1.414 . S
C914 C917 1.499 . S
C915 H889 0.950 . S
C915 C914 1.414 . S
C915 C916 1.374 . S
C916 H890 0.950 . S
C916 C912 1.385 . S
C916 C915 1.374 . S
C917 C914 1.499 . S
C917 C918 1.373 . S
C917 C919 1.389 . S
C918 H891 0.950 . S
C918 C904 1.377 . S
C918 C917 1.373 . S
C919 C903 1.377 . S
C919 C917 1.389 . S
C919 C920 1.524 . S
C920 C919 1.524 . S
C920 C921 1.397 . S
C920 C925 1.363 . S
C921 H892 0.950 . S
C921 C920 1.397 . S
C921 C922 1.334 . S
C922 H893 0.950 . S
C922 C921 1.334 . S
C922 C923 1.287 . S
C923 C922 1.287 . S
C923 C924 1.524 . S
C923 H926 0.999 . S
C924 H894 0.950 . S
C924 C923 1.524 . S
C924 C925 1.415 . S
C925 H895 0.950 . S
C925 C920 1.363 . S
C925 C924 1.415 . S
H926 C923 0.999 . S
H927 C908 0.913 . S
H928 C946 0.951 . S
H929 C948 0.951 . S
H930 C950 0.950 . S
H931 C951 0.950 . S
H932 C953 0.950 . S
H933 C956 0.950 . S
H934 C957 0.950 . S
H935 C959 0.950 . S
H936 C960 0.950 . S
H937 C961 0.951 . S
H938 C963 0.951 . S
H939 C965 0.950 . S
H940 C966 0.950 . S
H941 C968 0.950 . S
H942 C971 0.950 . S
H943 C972 0.950 . S
H944 C974 0.950 . S
H945 C975 0.950 . S
C946 H928 0.951 . S
C946 C947 1.366 . S
C946 C948 1.388 . S
C947 C946 1.366 . S
C947 C951 1.385 . S
C948 H929 0.951 . S
C948 C946 1.388 . S
C948 C949 1.366 . S
C949 C948 1.366 . S
C949 C950 1.414 . S
C949 C952 1.499 . S
C950 H930 0.950 . S
C950 C949 1.414 . S
C950 C951 1.374 . S
C951 H931 0.950 . S
C951 C947 1.385 . S
C951 C950 1.374 . S
C952 C949 1.499 . S
C952 C953 1.373 . S
C952 C954 1.389 . S
C953 H932 0.950 . S
C953 C952 1.373 . S
C953 C969 1.377 . S
C954 C952 1.389 . S
C954 C955 1.524 . S
C954 C968 1.377 . S
C955 C954 1.524 . S
C955 C956 1.397 . S
C955 C960 1.363 . S
C956 H933 0.950 . S
C956 C955 1.397 . S
C956 C957 1.334 . S
C957 H934 0.950 . S
C957 C956 1.334 . S
C957 C958 1.287 . S
C958 C957 1.287 . S
C958 C959 1.524 . S
C958 H977 0.913 . S
C959 H935 0.950 . S
C959 C958 1.524 . S
C959 C960 1.415 . S
C960 H936 0.950 . S
C960 C955 1.363 . S
C960 C959 1.415 . S
C961 H937 0.951 . S
C961 C962 1.366 . S
C961 C963 1.388 . S
C962 C961 1.366 . S
C962 C966 1.385 . S
C963 H938 0.951 . S
C963 C961 1.388 . S
C963 C964 1.366 . S
C964 C963 1.366 . S
C964 C965 1.414 . S
C964 C967 1.499 . S
C965 H939 0.950 . S
C965 C964 1.414 . S
C965 C966 1.374 . S
C966 H940 0.950 . S
C966 C962 1.385 . S
C966 C965 1.374 . S
C967 C964 1.499 . S
C967 C968 1.373 . S
C967 C969 1.389 . S
C968 H941 0.950 . S
C968 C954 1.377 . S
C968 C967 1.373 . S
C969 C953 1.377 . S
C969 C967 1.389 . S
C969 C970 1.524 . S
C970 C969 1.524 . S
C970 C971 1.397 . S
C970 C975 1.363 . S
C971 H942 0.950 . S
C971 C970 1.397 . S
C971 C972 1.334 . S
C972 H943 0.950 . S
C972 C971 1.334 . S
C972 C973 1.287 . S
C973 C972 1.287 . S
C973 C974 1.524 . S
C973 H976 0.999 . S
C974 H944 0.950 . S
C974 C973 1.524 . S
C974 C975 1.415 . S
C975 H945 0.950 . S
C975 C970 1.363 . S
C975 C974 1.415 . S
H976 C973 0.999 . S
H977 C958 0.913 . S
H978 C996 0.951 . S
H979 C998 0.951 . S
H980 C1000 0.950 . S
H981 C1001 0.950 . S
H982 C1003 0.950 . S
H983 C1006 0.950 . S
H984 C1007 0.950 . S
H985 C1009 0.950 . S
H986 C1010 0.950 . S
H987 C1011 0.951 . S
H988 C1013 0.951 . S
H989 C1015 0.950 . S
H990 C1016 0.950 . S
H991 C1018 0.950 . S
H992 C1021 0.950 . S
H993 C1022 0.950 . S
H994 C1024 0.950 . S
H995 C1025 0.950 . S
C996 H978 0.951 . S
C996 C997 1.366 . S
C996 C998 1.388 . S
C997 C996 1.366 . S
C997 C1001 1.385 . S
C998 H979 0.951 . S
C998 C996 1.388 . S
C998 C999 1.366 . S
C999 C998 1.366 . S
C999 C1000 1.414 . S
C999 C1002 1.499 . S
C1000 H980 0.950 . S
C1000 C999 1.414 . S
C1000 C1001 1.374 . S
C1001 H981 0.950 . S
C1001 C997 1.385 . S
C1001 C1000 1.374 . S
C1002 C999 1.499 . S
C1002 C1003 1.373 . S
C1002 C1004 1.389 . S
C1003 H982 0.950 . S
C1003 C1002 1.373 . S
C1003 C1019 1.377 . S
C1004 C1002 1.389 . S
C1004 C1005 1.524 . S
C1004 C1018 1.377 . S
C1005 C1004 1.524 . S
C1005 C1006 1.397 . S
C1005 C1010 1.363 . S
C1006 H983 0.950 . S
C1006 C1005 1.397 . S
C1006 C1007 1.334 . S
C1007 H984 0.950 . S
C1007 C1006 1.334 . S
C1007 C1008 1.287 . S
C1008 C1007 1.287 . S
C1008 C1009 1.524 . S
C1008 H1027 0.913 . S
C1009 H985 0.950 . S
C1009 C1008 1.524 . S
C1009 C1010 1.415 . S
C1010 H986 0.950 . S
C1010 C1005 1.363 . S
C1010 C1009 1.415 . S
C1011 H987 0.951 . S
C1011 C1012 1.366 . S
C1011 C1013 1.388 . S
C1012 C1011 1.366 . S
C1012 C1016 1.385 . S
C1013 H988 0.951 . S
C1013 C1011 1.388 . S
C1013 C1014 1.366 . S
C1014 C1013 1.366 . S
C1014 C1015 1.414 . S
C1014 C1017 1.499 . S
C1015 H989 0.950 . S
C1015 C1014 1.414 . S
C1015 C1016 1.374 . S
C1016 H990 0.950 . S
C1016 C1012 1.385 . S
C1016 C1015 1.374 . S
C1017 C1014 1.499 . S
C1017 C1018 1.373 . S
C1017 C1019 1.389 . S
C1018 H991 0.950 . S
C1018 C1004 1.377 . S
C1018 C1017 1.373 . S
C1019 C1003 1.377 . S
C1019 C1017 1.389 . S
C1019 C1020 1.524 . S
C1020 C1019 1.524 . S
C1020 C1021 1.397 . S
C1020 C1025 1.363 . S
C1021 H992 0.950 . S
C1021 C1020 1.397 . S
C1021 C1022 1.334 . S
C1022 H993 0.950 . S
C1022 C1021 1.334 . S
C1022 C1023 1.287 . S
C1023 C1022 1.287 . S
C1023 C1024 1.524 . S
C1023 H1026 0.999 . S
C1024 H994 0.950 . S
C1024 C1023 1.524 . S
C1024 C1025 1.415 . S
C1025 H995 0.950 . S
C1025 C1020 1.363 . S
C1025 C1024 1.415 . S
H1026 C1023 0.999 . S
H1027 C1008 0.913 . S
H1028 C1046 0.951 . S
H1029 C1048 0.951 . S
H1030 C1050 0.950 . S
H1031 C1051 0.950 . S
H1032 C1053 0.950 . S
H1033 C1056 0.950 . S
H1034 C1057 0.950 . S
H1035 C1059 0.950 . S
H1036 C1060 0.950 . S
H1037 C1061 0.951 . S
H1038 C1063 0.951 . S
H1039 C1065 0.950 . S
H1040 C1066 0.950 . S
H1041 C1068 0.950 . S
H1042 C1071 0.950 . S
H1043 C1072 0.950 . S
H1044 C1074 0.950 . S
H1045 C1075 0.950 . S
C1046 H1028 0.951 . S
C1046 C1047 1.366 . S
C1046 C1048 1.388 . S
C1047 C1046 1.366 . S
C1047 C1051 1.385 . S
C1048 H1029 0.951 . S
C1048 C1046 1.388 . S
C1048 C1049 1.366 . S
C1049 C1048 1.366 . S
C1049 C1050 1.414 . S
C1049 C1052 1.499 . S
C1050 H1030 0.950 . S
C1050 C1049 1.414 . S
C1050 C1051 1.374 . S
C1051 H1031 0.950 . S
C1051 C1047 1.385 . S
C1051 C1050 1.374 . S
C1052 C1049 1.499 . S
C1052 C1053 1.373 . S
C1052 C1054 1.389 . S
C1053 H1032 0.950 . S
C1053 C1052 1.373 . S
C1053 C1069 1.377 . S
C1054 C1052 1.389 . S
C1054 C1055 1.524 . S
C1054 C1068 1.377 . S
C1055 C1054 1.524 . S
C1055 C1056 1.397 . S
C1055 C1060 1.363 . S
C1056 H1033 0.950 . S
C1056 C1055 1.397 . S
C1056 C1057 1.334 . S
C1057 H1034 0.950 . S
C1057 C1056 1.334 . S
C1057 C1058 1.287 . S
C1058 C1057 1.287 . S
C1058 C1059 1.524 . S
C1058 H1077 0.913 . S
C1059 H1035 0.950 . S
C1059 C1058 1.524 . S
C1059 C1060 1.415 . S
C1060 H1036 0.950 . S
C1060 C1055 1.363 . S
C1060 C1059 1.415 . S
C1061 H1037 0.951 . S
C1061 C1062 1.366 . S
C1061 C1063 1.388 . S
C1062 C1061 1.366 . S
C1062 C1066 1.385 . S
C1063 H1038 0.951 . S
C1063 C1061 1.388 . S
C1063 C1064 1.366 . S
C1064 C1063 1.366 . S
C1064 C1065 1.414 . S
C1064 C1067 1.499 . S
C1065 H1039 0.950 . S
C1065 C1064 1.414 . S
C1065 C1066 1.374 . S
C1066 H1040 0.950 . S
C1066 C1062 1.385 . S
C1066 C1065 1.374 . S
C1067 C1064 1.499 . S
C1067 C1068 1.373 . S
C1067 C1069 1.389 . S
C1068 H1041 0.950 . S
C1068 C1054 1.377 . S
C1068 C1067 1.373 . S
C1069 C1053 1.377 . S
C1069 C1067 1.389 . S
C1069 C1070 1.524 . S
C1070 C1069 1.524 . S
C1070 C1071 1.397 . S
C1070 C1075 1.363 . S
C1071 H1042 0.950 . S
C1071 C1070 1.397 . S
C1071 C1072 1.334 . S
C1072 H1043 0.950 . S
C1072 C1071 1.334 . S
C1072 C1073 1.287 . S
C1073 C1072 1.287 . S
C1073 C1074 1.524 . S
C1073 H1076 0.999 . S
C1074 H1044 0.950 . S
C1074 C1073 1.524 . S
C1074 C1075 1.415 . S
C1075 H1045 0.950 . S
C1075 C1070 1.363 . S
C1075 C1074 1.415 . S
H1076 C1073 0.999 . S
H1077 C1058 0.913 . S
H1078 C1096 0.951 . S
H1079 C1098 0.951 . S
H1080 C1100 0.950 . S
H1081 C1101 0.950 . S
H1082 C1103 0.950 . S
H1083 C1106 0.950 . S
H1084 C1107 0.950 . S
H1085 C1109 0.950 . S
H1086 C1110 0.950 . S
H1087 C1111 0.951 . S
H1088 C1113 0.951 . S
H1089 C1115 0.950 . S
H1090 C1116 0.950 . S
H1091 C1118 0.950 . S
H1092 C1121 0.950 . S
H1093 C1122 0.950 . S
H1094 C1124 0.950 . S
H1095 C1125 0.950 . S
C1096 H1078 0.951 . S
C1096 C1097 1.366 . S
C1096 C1098 1.388 . S
C1097 C1096 1.366 . S
C1097 C1101 1.385 . S
C1098 H1079 0.951 . S
C1098 C1096 1.388 . S
C1098 C1099 1.366 . S
C1099 C1098 1.366 . S
C1099 C1100 1.414 . S
C1099 C1102 1.499 . S
C1100 H1080 0.950 . S
C1100 C1099 1.414 . S
C1100 C1101 1.374 . S
C1101 H1081 0.950 . S
C1101 C1097 1.385 . S
C1101 C1100 1.374 . S
C1102 C1099 1.499 . S
C1102 C1103 1.373 . S
C1102 C1104 1.389 . S
C1103 H1082 0.950 . S
C1103 C1102 1.373 . S
C1103 C1119 1.377 . S
C1104 C1102 1.389 . S
C1104 C1105 1.524 . S
C1104 C1118 1.377 . S
C1105 C1104 1.524 . S
C1105 C1106 1.397 . S
C1105 C1110 1.363 . S
C1106 H1083 0.950 . S
C1106 C1105 1.397 . S
C1106 C1107 1.334 . S
C1107 H1084 0.950 . S
C1107 C1106 1.334 . S
C1107 C1108 1.287 . S
C1108 C1107 1.287 . S
C1108 C1109 1.524 . S
C1108 H1127 0.913 . S
C1109 H1085 0.950 . S
C1109 C1108 1.524 . S
C1109 C1110 1.415 . S
C1110 H1086 0.950 . S
C1110 C1105 1.363 . S
C1110 C1109 1.415 . S
C1111 H1087 0.951 . S
C1111 C1112 1.366 . S
C1111 C1113 1.388 . S
C1112 C1111 1.366 . S
C1112 C1116 1.385 . S
C1113 H1088 0.951 . S
C1113 C1111 1.388 . S
C1113 C1114 1.366 . S
C1114 C1113 1.366 . S
C1114 C1115 1.414 . S
C1114 C1117 1.499 . S
C1115 H1089 0.950 . S
C1115 C1114 1.414 . S
C1115 C1116 1.374 . S
C1116 H1090 0.950 . S
C1116 C1112 1.385 . S
C1116 C1115 1.374 . S
C1117 C1114 1.499 . S
C1117 C1118 1.373 . S
C1117 C1119 1.389 . S
C1118 H1091 0.950 . S
C1118 C1104 1.377 . S
C1118 C1117 1.373 . S
C1119 C1103 1.377 . S
C1119 C1117 1.389 . S
C1119 C1120 1.524 . S
C1120 C1119 1.524 . S
C1120 C1121 1.397 . S
C1120 C1125 1.363 . S
C1121 H1092 0.950 . S
C1121 C1120 1.397 . S
C1121 C1122 1.334 . S
C1122 H1093 0.950 . S
C1122 C1121 1.334 . S
C1122 C1123 1.287 . S
C1123 C1122 1.287 . S
C1123 C1124 1.524 . S
C1123 H1126 0.999 . S
C1124 H1094 0.950 . S
C1124 C1123 1.524 . S
C1124 C1125 1.415 . S
C1125 H1095 0.950 . S
C1125 C1120 1.363 . S
C1125 C1124 1.415 . S
H1126 C1123 0.999 . S
H1127 C1108 0.913 . S
H1128 C1146 0.951 . S
H1129 C1148 0.951 . S
H1130 C1150 0.950 . S
H1131 C1151 0.950 . S
H1132 C1153 0.950 . S
H1133 C1156 0.950 . S
H1134 C1157 0.950 . S
H1135 C1159 0.950 . S
H1136 C1160 0.950 . S
H1137 C1161 0.951 . S
H1138 C1163 0.951 . S
H1139 C1165 0.950 . S
H1140 C1166 0.950 . S
H1141 C1168 0.950 . S
H1142 C1171 0.950 . S
H1143 C1172 0.950 . S
H1144 C1174 0.950 . S
H1145 C1175 0.950 . S
C1146 H1128 0.951 . S
C1146 C1147 1.366 . S
C1146 C1148 1.388 . S
C1147 C1146 1.366 . S
C1147 C1151 1.385 . S
C1148 H1129 0.951 . S
C1148 C1146 1.388 . S
C1148 C1149 1.366 . S
C1149 C1148 1.366 . S
C1149 C1150 1.414 . S
C1149 C1152 1.499 . S
C1150 H1130 0.950 . S
C1150 C1149 1.414 . S
C1150 C1151 1.374 . S
C1151 H1131 0.950 . S
C1151 C1147 1.385 . S
C1151 C1150 1.374 . S
C1152 C1149 1.499 . S
C1152 C1153 1.373 . S
C1152 C1154 1.389 . S
C1153 H1132 0.950 . S
C1153 C1152 1.373 . S
C1153 C1169 1.377 . S
C1154 C1152 1.389 . S
C1154 C1155 1.524 . S
C1154 C1168 1.377 . S
C1155 C1154 1.524 . S
C1155 C1156 1.397 . S
C1155 C1160 1.363 . S
C1156 H1133 0.950 . S
C1156 C1155 1.397 . S
C1156 C1157 1.334 . S
C1157 H1134 0.950 . S
C1157 C1156 1.334 . S
C1157 C1158 1.287 . S
C1158 C1157 1.287 . S
C1158 C1159 1.524 . S
C1158 H1177 0.913 . S
C1159 H1135 0.950 . S
C1159 C1158 1.524 . S
C1159 C1160 1.415 . S
C1160 H1136 0.950 . S
C1160 C1155 1.363 . S
C1160 C1159 1.415 . S
C1161 H1137 0.951 . S
C1161 C1162 1.366 . S
C1161 C1163 1.388 . S
C1162 C1161 1.366 . S
C1162 C1166 1.385 . S
C1163 H1138 0.951 . S
C1163 C1161 1.388 . S
C1163 C1164 1.366 . S
C1164 C1163 1.366 . S
C1164 C1165 1.414 . S
C1164 C1167 1.499 . S
C1165 H1139 0.950 . S
C1165 C1164 1.414 . S
C1165 C1166 1.374 . S
C1166 H1140 0.950 . S
C1166 C1162 1.385 . S
C1166 C1165 1.374 . S
C1167 C1164 1.499 . S
C1167 C1168 1.373 . S
C1167 C1169 1.389 . S
C1168 H1141 0.950 . S
C1168 C1154 1.377 . S
C1168 C1167 1.373 . S
C1169 C1153 1.377 . S
C1169 C1167 1.389 . S
C1169 C1170 1.524 . S
C1170 C1169 1.524 . S
C1170 C1171 1.397 . S
C1170 C1175 1.363 . S
C1171 H1142 0.950 . S
C1171 C1170 1.397 . S
C1171 C1172 1.334 . S
C1172 H1143 0.950 . S
C1172 C1171 1.334 . S
C1172 C1173 1.287 . S
C1173 C1172 1.287 . S
C1173 C1174 1.524 . S
C1173 H1176 0.999 . S
C1174 H1144 0.950 . S
C1174 C1173 1.524 . S
C1174 C1175 1.415 . S
C1175 H1145 0.950 . S
C1175 C1170 1.363 . S
C1175 C1174 1.415 . S
H1176 C1173 0.999 . S
H1177 C1158 0.913 . S
H1178 C1196 0.951 . S
H1179 C1198 0.951 . S
H1180 C1200 0.950 . S
H1181 C1201 0.950 . S
H1182 C1203 0.950 . S
H1183 C1206 0.950 . S
H1184 C1207 0.950 . S
H1185 C1209 0.950 . S
H1186 C1210 0.950 . S
H1187 C1211 0.951 . S
H1188 C1213 0.951 . S
H1189 C1215 0.950 . S
H1190 C1216 0.950 . S
H1191 C1218 0.950 . S
H1192 C1221 0.950 . S
H1193 C1222 0.950 . S
H1194 C1224 0.917 1_545 S
H1195 C1225 0.950 . S
C1196 H1178 0.951 . S
C1196 C1197 1.366 . S
C1196 C1198 1.388 . S
C1197 C1196 1.366 . S
C1197 C1201 1.385 . S
C1198 H1179 0.951 . S
C1198 C1196 1.388 . S
C1198 C1199 1.366 . S
C1199 C1198 1.366 . S
C1199 C1200 1.414 . S
C1199 C1202 1.499 . S
C1200 H1180 0.950 . S
C1200 C1199 1.414 . S
C1200 C1201 1.374 . S
C1201 H1181 0.950 . S
C1201 C1197 1.385 . S
C1201 C1200 1.374 . S
C1202 C1199 1.499 . S
C1202 C1203 1.373 . S
C1202 C1204 1.389 . S
C1203 H1182 0.950 . S
C1203 C1202 1.373 . S
C1203 C1219 1.377 . S
C1204 C1202 1.389 . S
C1204 C1205 1.524 . S
C1204 C1218 1.377 . S
C1205 C1204 1.524 . S
C1205 C1206 1.397 . S
C1205 C1210 1.363 . S
C1206 H1183 0.950 . S
C1206 C1205 1.397 . S
C1206 C1207 1.334 . S
C1207 H1184 0.950 . S
C1207 C1206 1.334 . S
C1207 C1208 1.287 . S
C1208 C1207 1.287 . S
C1208 C1209 1.524 . S
C1208 H1227 0.913 . S
C1209 H1185 0.950 . S
C1209 C1208 1.524 . S
C1209 C1210 1.415 . S
C1210 H1186 0.950 . S
C1210 C1205 1.363 . S
C1210 C1209 1.415 . S
C1211 H1187 0.951 . S
C1211 C1212 1.366 . S
C1211 C1213 1.388 . S
C1212 C1211 1.366 . S
C1212 C1216 1.385 . S
C1213 H1188 0.951 . S
C1213 C1211 1.388 . S
C1213 C1214 1.366 . S
C1214 C1213 1.366 . S
C1214 C1215 1.414 . S
C1214 C1217 1.499 . S
C1215 H1189 0.950 . S
C1215 C1214 1.414 . S
C1215 C1216 1.374 . S
C1216 H1190 0.950 . S
C1216 C1212 1.385 . S
C1216 C1215 1.374 . S
C1217 C1214 1.499 . S
C1217 C1218 1.373 . S
C1217 C1219 1.389 . S
C1218 H1191 0.950 . S
C1218 C1204 1.377 . S
C1218 C1217 1.373 . S
C1219 C1203 1.377 . S
C1219 C1217 1.389 . S
C1219 C1220 1.524 . S
C1220 C1219 1.524 . S
C1220 C1221 1.397 . S
C1220 C1225 1.363 . S
C1221 H1192 0.950 . S
C1221 C1220 1.397 . S
C1221 C1222 1.334 . S
C1222 H1193 0.950 . S
C1222 C1221 1.334 . S
C1222 C1223 1.287 . S
C1223 C1222 1.287 . S
C1223 C1224 1.524 . S
C1223 H1226 0.999 1_565 S
C1224 H1194 0.917 1_565 S
C1224 C1223 1.524 . S
C1224 C1225 1.415 . S
C1225 H1195 0.950 . S
C1225 C1220 1.363 . S
C1225 C1224 1.415 . S
H1226 C1223 0.999 1_545 S
H1227 C1208 0.913 . S
H1228 C1246 0.951 . S
H1229 C1248 0.951 . S
H1230 C1250 0.950 . S
H1231 C1251 0.950 . S
H1232 C1253 0.950 . S
H1233 C1256 0.950 . S
H1234 C1257 0.950 . S
H1235 C1259 0.950 . S
H1236 C1260 0.950 . S
H1237 C1261 0.951 . S
H1238 C1263 0.951 . S
H1239 C1265 0.950 . S
H1240 C1266 0.950 . S
H1241 C1268 0.950 . S
H1242 C1271 0.950 . S
H1243 C1272 0.950 . S
H1244 C1274 0.950 . S
H1245 C1275 0.950 . S
C1246 H1228 0.951 . S
C1246 C1247 1.366 . S
C1246 C1248 1.388 . S
C1247 C1246 1.366 . S
C1247 C1251 1.385 . S
C1248 H1229 0.951 . S
C1248 C1246 1.388 . S
C1248 C1249 1.366 . S
C1249 C1248 1.366 . S
C1249 C1250 1.414 . S
C1249 C1252 1.499 . S
C1250 H1230 0.950 . S
C1250 C1249 1.414 . S
C1250 C1251 1.374 . S
C1251 H1231 0.950 . S
C1251 C1247 1.385 . S
C1251 C1250 1.374 . S
C1252 C1249 1.499 . S
C1252 C1253 1.373 . S
C1252 C1254 1.389 . S
C1253 H1232 0.950 . S
C1253 C1252 1.373 . S
C1253 C1269 1.377 . S
C1254 C1252 1.389 . S
C1254 C1255 1.524 . S
C1254 C1268 1.377 . S
C1255 C1254 1.524 . S
C1255 C1256 1.397 . S
C1255 C1260 1.363 . S
C1256 H1233 0.950 . S
C1256 C1255 1.397 . S
C1256 C1257 1.334 . S
C1257 H1234 0.950 . S
C1257 C1256 1.334 . S
C1257 C1258 1.287 . S
C1258 C1257 1.287 . S
C1258 C1259 1.524 . S
C1258 H1277 0.913 . S
C1259 H1235 0.950 . S
C1259 C1258 1.524 . S
C1259 C1260 1.415 . S
C1260 H1236 0.950 . S
C1260 C1255 1.363 . S
C1260 C1259 1.415 . S
C1261 H1237 0.951 . S
C1261 C1262 1.366 . S
C1261 C1263 1.388 . S
C1262 C1261 1.366 . S
C1262 C1266 1.385 . S
C1263 H1238 0.951 . S
C1263 C1261 1.388 . S
C1263 C1264 1.366 . S
C1264 C1263 1.366 . S
C1264 C1265 1.414 . S
C1264 C1267 1.499 . S
C1265 H1239 0.950 . S
C1265 C1264 1.414 . S
C1265 C1266 1.374 . S
C1266 H1240 0.950 . S
C1266 C1262 1.385 . S
C1266 C1265 1.374 . S
C1267 C1264 1.499 . S
C1267 C1268 1.373 . S
C1267 C1269 1.389 . S
C1268 H1241 0.950 . S
C1268 C1254 1.377 . S
C1268 C1267 1.373 . S
C1269 C1253 1.377 . S
C1269 C1267 1.389 . S
C1269 C1270 1.524 . S
C1270 C1269 1.524 . S
C1270 C1271 1.397 . S
C1270 C1275 1.363 . S
C1271 H1242 0.950 . S
C1271 C1270 1.397 . S
C1271 C1272 1.334 . S
C1272 H1243 0.950 . S
C1272 C1271 1.334 . S
C1272 C1273 1.287 . S
C1273 C1272 1.287 . S
C1273 C1274 1.524 . S
C1273 H1276 0.999 . S
C1274 H1244 0.950 . S
C1274 C1273 1.524 . S
C1274 C1275 1.415 . S
C1275 H1245 0.950 . S
C1275 C1270 1.363 . S
C1275 C1274 1.415 . S
H1276 C1273 0.999 . S
H1277 C1258 0.913 . S
H1278 C1296 0.951 . S
H1279 C1298 0.951 . S
H1280 C1300 0.950 . S
H1281 C1301 0.950 . S
H1282 C1303 0.950 . S
H1283 C1306 0.950 . S
H1284 C1307 0.950 . S
H1285 C1309 0.950 . S
H1286 C1310 0.950 . S
H1287 C1311 0.951 . S
H1288 C1313 0.951 . S
H1289 C1315 0.950 . S
H1290 C1316 0.950 . S
H1291 C1318 0.950 . S
H1292 C1321 0.950 . S
H1293 C1322 0.950 . S
H1294 C1324 0.950 . S
H1295 C1325 0.950 . S
C1296 H1278 0.951 . S
C1296 C1297 1.366 . S
C1296 C1298 1.388 . S
C1297 C1296 1.366 . S
C1297 C1301 1.385 . S
C1298 H1279 0.951 . S
C1298 C1296 1.388 . S
C1298 C1299 1.366 . S
C1299 C1298 1.366 . S
C1299 C1300 1.414 . S
C1299 C1302 1.499 . S
C1300 H1280 0.950 . S
C1300 C1299 1.414 . S
C1300 C1301 1.374 . S
C1301 H1281 0.950 . S
C1301 C1297 1.385 . S
C1301 C1300 1.374 . S
C1302 C1299 1.499 . S
C1302 C1303 1.373 . S
C1302 C1304 1.389 . S
C1303 H1282 0.950 . S
C1303 C1302 1.373 . S
C1303 C1319 1.377 . S
C1304 C1302 1.389 . S
C1304 C1305 1.524 . S
C1304 C1318 1.377 . S
C1305 C1304 1.524 . S
C1305 C1306 1.397 . S
C1305 C1310 1.363 . S
C1306 H1283 0.950 . S
C1306 C1305 1.397 . S
C1306 C1307 1.334 . S
C1307 H1284 0.950 . S
C1307 C1306 1.334 . S
C1307 C1308 1.287 . S
C1308 C1307 1.287 . S
C1308 C1309 1.524 . S
C1308 H1327 0.913 . S
C1309 H1285 0.950 . S
C1309 C1308 1.524 . S
C1309 C1310 1.415 . S
C1310 H1286 0.950 . S
C1310 C1305 1.363 . S
C1310 C1309 1.415 . S
C1311 H1287 0.951 . S
C1311 C1312 1.366 . S
C1311 C1313 1.388 . S
C1312 C1311 1.366 . S
C1312 C1316 1.385 . S
C1313 H1288 0.951 . S
C1313 C1311 1.388 . S
C1313 C1314 1.366 . S
C1314 C1313 1.366 . S
C1314 C1315 1.414 . S
C1314 C1317 1.499 . S
C1315 H1289 0.950 . S
C1315 C1314 1.414 . S
C1315 C1316 1.374 . S
C1316 H1290 0.950 . S
C1316 C1312 1.385 . S
C1316 C1315 1.374 . S
C1317 C1314 1.499 . S
C1317 C1318 1.373 . S
C1317 C1319 1.389 . S
C1318 H1291 0.950 . S
C1318 C1304 1.377 . S
C1318 C1317 1.373 . S
C1319 C1303 1.377 . S
C1319 C1317 1.389 . S
C1319 C1320 1.524 . S
C1320 C1319 1.524 . S
C1320 C1321 1.397 . S
C1320 C1325 1.363 . S
C1321 H1292 0.950 . S
C1321 C1320 1.397 . S
C1321 C1322 1.334 . S
C1322 H1293 0.950 . S
C1322 C1321 1.334 . S
C1322 C1323 1.287 . S
C1323 C1322 1.287 . S
C1323 C1324 1.524 . S
C1323 H1326 0.999 . S
C1324 H1294 0.950 . S
C1324 C1323 1.524 . S
C1324 C1325 1.415 . S
C1325 H1295 0.950 . S
C1325 C1320 1.363 . S
C1325 C1324 1.415 . S
H1326 C1323 0.999 . S
H1327 C1308 0.913 . S
H1328 C1346 0.951 . S
H1329 C1348 0.951 . S
H1330 C1350 0.950 . S
H1331 C1351 0.950 . S
H1332 C1353 0.950 . S
H1333 C1356 0.950 . S
H1334 C1357 0.950 . S
H1335 C1359 0.950 . S
H1336 C1360 0.950 . S
H1337 C1361 0.951 . S
H1338 C1363 0.951 . S
H1339 C1365 0.950 . S
H1340 C1366 0.950 . S
H1341 C1368 0.950 . S
H1342 C1371 0.950 . S
H1343 C1372 0.950 . S
H1344 C1374 0.950 . S
H1345 C1375 0.950 . S
C1346 H1328 0.951 . S
C1346 C1347 1.366 . S
C1346 C1348 1.388 . S
C1347 C1346 1.366 . S
C1347 C1351 1.385 . S
C1348 H1329 0.951 . S
C1348 C1346 1.388 . S
C1348 C1349 1.366 . S
C1349 C1348 1.366 . S
C1349 C1350 1.414 . S
C1349 C1352 1.499 . S
C1350 H1330 0.950 . S
C1350 C1349 1.414 . S
C1350 C1351 1.374 . S
C1351 H1331 0.950 . S
C1351 C1347 1.385 . S
C1351 C1350 1.374 . S
C1352 C1349 1.499 . S
C1352 C1353 1.373 . S
C1352 C1354 1.389 . S
C1353 H1332 0.950 . S
C1353 C1352 1.373 . S
C1353 C1369 1.377 . S
C1354 C1352 1.389 . S
C1354 C1355 1.524 . S
C1354 C1368 1.377 . S
C1355 C1354 1.524 . S
C1355 C1356 1.397 . S
C1355 C1360 1.363 . S
C1356 H1333 0.950 . S
C1356 C1355 1.397 . S
C1356 C1357 1.334 . S
C1357 H1334 0.950 . S
C1357 C1356 1.334 . S
C1357 C1358 1.287 . S
C1358 C1357 1.287 . S
C1358 C1359 1.524 . S
C1358 H1377 0.913 . S
C1359 H1335 0.950 . S
C1359 C1358 1.524 . S
C1359 C1360 1.415 . S
C1360 H1336 0.950 . S
C1360 C1355 1.363 . S
C1360 C1359 1.415 . S
C1361 H1337 0.951 . S
C1361 C1362 1.366 . S
C1361 C1363 1.388 . S
C1362 C1361 1.366 . S
C1362 C1366 1.385 . S
C1363 H1338 0.951 . S
C1363 C1361 1.388 . S
C1363 C1364 1.366 . S
C1364 C1363 1.366 . S
C1364 C1365 1.414 . S
C1364 C1367 1.499 . S
C1365 H1339 0.950 . S
C1365 C1364 1.414 . S
C1365 C1366 1.374 . S
C1366 H1340 0.950 . S
C1366 C1362 1.385 . S
C1366 C1365 1.374 . S
C1367 C1364 1.499 . S
C1367 C1368 1.373 . S
C1367 C1369 1.389 . S
C1368 H1341 0.950 . S
C1368 C1354 1.377 . S
C1368 C1367 1.373 . S
C1369 C1353 1.377 . S
C1369 C1367 1.389 . S
C1369 C1370 1.524 . S
C1370 C1369 1.524 . S
C1370 C1371 1.397 . S
C1370 C1375 1.363 . S
C1371 H1342 0.950 . S
C1371 C1370 1.397 . S
C1371 C1372 1.334 . S
C1372 H1343 0.950 . S
C1372 C1371 1.334 . S
C1372 C1373 1.287 . S
C1373 C1372 1.287 . S
C1373 C1374 1.524 . S
C1373 H1376 0.999 . S
C1374 H1344 0.950 . S
C1374 C1373 1.524 . S
C1374 C1375 1.415 . S
C1375 H1345 0.950 . S
C1375 C1370 1.363 . S
C1375 C1374 1.415 . S
H1376 C1373 0.999 . S
H1377 C1358 0.913 . S
H1378 C1396 0.951 . S
H1379 C1398 0.951 . S
H1380 C1400 0.950 . S
H1381 C1401 0.950 . S
H1382 C1403 0.950 . S
H1383 C1406 0.950 . S
H1384 C1407 0.950 . S
H1385 C1409 0.926 1_655 S
H1386 C1410 0.950 . S
H1387 C1411 0.951 . S
H1388 C1413 0.951 . S
H1389 C1415 0.950 . S
H1390 C1416 0.950 . S
H1391 C1418 0.950 . S
H1392 C1421 0.950 . S
H1393 C1422 0.950 . S
H1394 C1424 0.950 . S
H1395 C1425 0.950 . S
C1396 H1378 0.951 . S
C1396 C1397 1.366 . S
C1396 C1398 1.388 . S
C1397 C1396 1.366 . S
C1397 C1401 1.385 . S
C1398 H1379 0.951 . S
C1398 C1396 1.388 . S
C1398 C1399 1.366 . S
C1399 C1398 1.366 . S
C1399 C1400 1.414 . S
C1399 C1402 1.499 . S
C1400 H1380 0.950 . S
C1400 C1399 1.414 . S
C1400 C1401 1.374 . S
C1401 H1381 0.950 . S
C1401 C1397 1.385 . S
C1401 C1400 1.374 . S
C1402 C1399 1.499 . S
C1402 C1403 1.373 . S
C1402 C1404 1.389 . S
C1403 H1382 0.950 . S
C1403 C1402 1.373 . S
C1403 C1419 1.377 . S
C1404 C1402 1.389 . S
C1404 C1405 1.524 . S
C1404 C1418 1.377 . S
C1405 C1404 1.524 . S
C1405 C1406 1.397 . S
C1405 C1410 1.363 . S
C1406 H1383 0.950 . S
C1406 C1405 1.397 . S
C1406 C1407 1.334 . S
C1407 H1384 0.950 . S
C1407 C1406 1.334 . S
C1407 C1408 1.287 . S
C1408 C1407 1.287 . S
C1408 C1409 1.524 . S
C1408 H1427 0.913 . S
C1409 H1385 0.926 1_455 S
C1409 C1408 1.524 . S
C1409 C1410 1.415 . S
C1410 H1386 0.950 . S
C1410 C1405 1.363 . S
C1410 C1409 1.415 . S
C1411 H1387 0.951 . S
C1411 C1412 1.366 . S
C1411 C1413 1.388 . S
C1412 C1411 1.366 . S
C1412 C1416 1.385 . S
C1413 H1388 0.951 . S
C1413 C1411 1.388 . S
C1413 C1414 1.366 . S
C1414 C1413 1.366 . S
C1414 C1415 1.414 . S
C1414 C1417 1.499 . S
C1415 H1389 0.950 . S
C1415 C1414 1.414 . S
C1415 C1416 1.374 . S
C1416 H1390 0.950 . S
C1416 C1412 1.385 . S
C1416 C1415 1.374 . S
C1417 C1414 1.499 . S
C1417 C1418 1.373 . S
C1417 C1419 1.389 . S
C1418 H1391 0.950 . S
C1418 C1404 1.377 . S
C1418 C1417 1.373 . S
C1419 C1403 1.377 . S
C1419 C1417 1.389 . S
C1419 C1420 1.524 . S
C1420 C1419 1.524 . S
C1420 C1421 1.397 . S
C1420 C1425 1.363 . S
C1421 H1392 0.950 . S
C1421 C1420 1.397 . S
C1421 C1422 1.334 . S
C1422 H1393 0.950 . S
C1422 C1421 1.334 . S
C1422 C1423 1.287 . S
C1423 C1422 1.287 . S
C1423 C1424 1.524 . S
C1423 H1426 0.999 . S
C1424 H1394 0.950 . S
C1424 C1423 1.524 . S
C1424 C1425 1.415 . S
C1425 H1395 0.950 . S
C1425 C1420 1.363 . S
C1425 C1424 1.415 . S
H1426 C1423 0.999 . S
H1427 C1408 0.913 . S
H1428 C1446 0.951 . S
H1429 C1448 0.951 . S
H1430 C1450 0.950 . S
H1431 C1451 0.950 . S
H1432 C1453 0.950 . S
H1433 C1456 0.950 . S
H1434 C1457 0.950 . S
H1435 C1459 0.950 . S
H1436 C1460 0.950 . S
H1437 C1461 0.951 . S
H1438 C1463 0.951 . S
H1439 C1465 0.950 . S
H1440 C1466 0.950 . S
H1441 C1468 0.950 . S
H1442 C1471 0.950 . S
H1443 C1472 0.950 . S
H1444 C1474 0.950 . S
H1445 C1475 0.950 . S
C1446 H1428 0.951 . S
C1446 C1447 1.366 . S
C1446 C1448 1.388 . S
C1447 C1446 1.366 . S
C1447 C1451 1.385 . S
C1448 H1429 0.951 . S
C1448 C1446 1.388 . S
C1448 C1449 1.366 . S
C1449 C1448 1.366 . S
C1449 C1450 1.414 . S
C1449 C1452 1.499 . S
C1450 H1430 0.950 . S
C1450 C1449 1.414 . S
C1450 C1451 1.374 . S
C1451 H1431 0.950 . S
C1451 C1447 1.385 . S
C1451 C1450 1.374 . S
C1452 C1449 1.499 . S
C1452 C1453 1.373 . S
C1452 C1454 1.389 . S
C1453 H1432 0.950 . S
C1453 C1452 1.373 . S
C1453 C1469 1.377 . S
C1454 C1452 1.389 . S
C1454 C1455 1.524 . S
C1454 C1468 1.377 . S
C1455 C1454 1.524 . S
C1455 C1456 1.397 . S
C1455 C1460 1.363 . S
C1456 H1433 0.950 . S
C1456 C1455 1.397 . S
C1456 C1457 1.334 . S
C1457 H1434 0.950 . S
C1457 C1456 1.334 . S
C1457 C1458 1.287 . S
C1458 C1457 1.287 . S
C1458 C1459 1.524 . S
C1458 H1477 0.913 . S
C1459 H1435 0.950 . S
C1459 C1458 1.524 . S
C1459 C1460 1.415 . S
C1460 H1436 0.950 . S
C1460 C1455 1.363 . S
C1460 C1459 1.415 . S
C1461 H1437 0.951 . S
C1461 C1462 1.366 . S
C1461 C1463 1.388 . S
C1462 C1461 1.366 . S
C1462 C1466 1.385 . S
C1463 H1438 0.951 . S
C1463 C1461 1.388 . S
C1463 C1464 1.366 . S
C1464 C1463 1.366 . S
C1464 C1465 1.414 . S
C1464 C1467 1.499 . S
C1465 H1439 0.950 . S
C1465 C1464 1.414 . S
C1465 C1466 1.374 . S
C1466 H1440 0.950 . S
C1466 C1462 1.385 . S
C1466 C1465 1.374 . S
C1467 C1464 1.499 . S
C1467 C1468 1.373 . S
C1467 C1469 1.389 . S
C1468 H1441 0.950 . S
C1468 C1454 1.377 . S
C1468 C1467 1.373 . S
C1469 C1453 1.377 . S
C1469 C1467 1.389 . S
C1469 C1470 1.524 . S
C1470 C1469 1.524 . S
C1470 C1471 1.397 . S
C1470 C1475 1.363 . S
C1471 H1442 0.950 . S
C1471 C1470 1.397 . S
C1471 C1472 1.334 . S
C1472 H1443 0.950 . S
C1472 C1471 1.334 . S
C1472 C1473 1.287 . S
C1473 C1472 1.287 . S
C1473 C1474 1.524 . S
C1473 H1476 0.999 . S
C1474 H1444 0.950 . S
C1474 C1473 1.524 . S
C1474 C1475 1.415 . S
C1475 H1445 0.950 . S
C1475 C1470 1.363 . S
C1475 C1474 1.415 . S
H1476 C1473 0.999 . S
H1477 C1458 0.913 . S
H1478 C1496 0.951 . S
H1479 C1498 0.951 . S
H1480 C1500 0.950 . S
H1481 C1501 0.950 . S
H1482 C1503 0.950 . S
H1483 C1506 0.950 . S
H1484 C1507 0.950 . S
H1485 C1509 0.950 . S
H1486 C1510 0.950 . S
H1487 C1511 0.951 . S
H1488 C1513 0.951 . S
H1489 C1515 0.950 . S
H1490 C1516 0.950 . S
H1491 C1518 0.950 . S
H1492 C1521 0.950 . S
H1493 C1522 0.950 . S
H1494 C1524 0.950 . S
H1495 C1525 0.950 . S
C1496 H1478 0.951 . S
C1496 C1497 1.366 . S
C1496 C1498 1.388 . S
C1497 C1496 1.366 . S
C1497 C1501 1.385 . S
C1498 H1479 0.951 . S
C1498 C1496 1.388 . S
C1498 C1499 1.366 . S
C1499 C1498 1.366 . S
C1499 C1500 1.414 . S
C1499 C1502 1.499 . S
C1500 H1480 0.950 . S
C1500 C1499 1.414 . S
C1500 C1501 1.374 . S
C1501 H1481 0.950 . S
C1501 C1497 1.385 . S
C1501 C1500 1.374 . S
C1502 C1499 1.499 . S
C1502 C1503 1.373 . S
C1502 C1504 1.389 . S
C1503 H1482 0.950 . S
C1503 C1502 1.373 . S
C1503 C1519 1.377 . S
C1504 C1502 1.389 . S
C1504 C1505 1.524 . S
C1504 C1518 1.377 . S
C1505 C1504 1.524 . S
C1505 C1506 1.397 . S
C1505 C1510 1.363 . S
C1506 H1483 0.950 . S
C1506 C1505 1.397 . S
C1506 C1507 1.334 . S
C1507 H1484 0.950 . S
C1507 C1506 1.334 . S
C1507 C1508 1.287 . S
C1508 C1507 1.287 . S
C1508 C1509 1.524 . S
C1508 H1527 0.913 . S
C1509 H1485 0.950 . S
C1509 C1508 1.524 . S
C1509 C1510 1.415 . S
C1510 H1486 0.950 . S
C1510 C1505 1.363 . S
C1510 C1509 1.415 . S
C1511 H1487 0.951 . S
C1511 C1512 1.366 . S
C1511 C1513 1.388 . S
C1512 C1511 1.366 . S
C1512 C1516 1.385 . S
C1513 H1488 0.951 . S
C1513 C1511 1.388 . S
C1513 C1514 1.366 . S
C1514 C1513 1.366 . S
C1514 C1515 1.414 . S
C1514 C1517 1.499 . S
C1515 H1489 0.950 . S
C1515 C1514 1.414 . S
C1515 C1516 1.374 . S
C1516 H1490 0.950 . S
C1516 C1512 1.385 . S
C1516 C1515 1.374 . S
C1517 C1514 1.499 . S
C1517 C1518 1.373 . S
C1517 C1519 1.389 . S
C1518 H1491 0.950 . S
C1518 C1504 1.377 . S
C1518 C1517 1.373 . S
C1519 C1503 1.377 . S
C1519 C1517 1.389 . S
C1519 C1520 1.524 . S
C1520 C1519 1.524 . S
C1520 C1521 1.397 . S
C1520 C1525 1.363 . S
C1521 H1492 0.950 . S
C1521 C1520 1.397 . S
C1521 C1522 1.334 . S
C1522 H1493 0.950 . S
C1522 C1521 1.334 . S
C1522 C1523 1.287 . S
C1523 C1522 1.287 . S
C1523 C1524 1.524 . S
C1523 H1526 0.999 . S
C1524 H1494 0.950 . S
C1524 C1523 1.524 . S
C1524 C1525 1.415 . S
C1525 H1495 0.950 . S
C1525 C1520 1.363 . S
C1525 C1524 1.415 . S
H1526 C1523 0.999 . S
H1527 C1508 0.913 . S
H1528 C1546 0.951 . S
H1529 C1548 0.951 . S
H1530 C1550 0.950 . S
H1531 C1551 0.950 . S
H1532 C1553 0.950 . S
H1533 C1556 0.950 . S
H1534 C1557 0.950 . S
H1535 C1559 0.950 . S
H1536 C1560 0.950 . S
H1537 C1561 0.951 . S
H1538 C1563 0.951 . S
H1539 C1565 0.950 . S
H1540 C1566 0.950 . S
H1541 C1568 0.950 . S
H1542 C1571 0.950 . S
H1543 C1572 0.985 . S
H1544 C1574 0.950 . S
H1545 C1575 0.950 . S
C1546 H1528 0.951 . S
C1546 C1547 1.366 . S
C1546 C1548 1.388 . S
C1547 C1546 1.366 . S
C1547 C1551 1.385 . S
C1548 H1529 0.951 . S
C1548 C1546 1.388 . S
C1548 C1549 1.366 . S
C1549 C1548 1.366 . S
C1549 C1550 1.414 . S
C1549 C1552 1.499 . S
C1550 H1530 0.950 . S
C1550 C1549 1.414 . S
C1550 C1551 1.374 . S
C1551 H1531 0.950 . S
C1551 C1547 1.385 . S
C1551 C1550 1.374 . S
C1552 C1549 1.499 . S
C1552 C1553 1.373 . S
C1552 C1554 1.389 . S
C1553 H1532 0.950 . S
C1553 C1552 1.373 . S
C1553 C1569 1.377 . S
C1554 C1552 1.389 . S
C1554 C1555 1.524 . S
C1554 C1568 1.377 . S
C1555 C1554 1.524 . S
C1555 C1556 1.397 . S
C1555 C1560 1.363 . S
C1556 H1533 0.950 . S
C1556 C1555 1.397 . S
C1556 C1557 1.334 . S
C1557 H1534 0.950 . S
C1557 C1556 1.334 . S
C1557 C1558 1.287 . S
C1558 C1557 1.287 . S
C1558 C1559 1.524 . S
C1558 H1577 0.913 . S
C1559 H1535 0.950 . S
C1559 C1558 1.524 . S
C1559 C1560 1.415 . S
C1560 H1536 0.950 . S
C1560 C1555 1.363 . S
C1560 C1559 1.415 . S
C1561 H1537 0.951 . S
C1561 C1562 1.366 . S
C1561 C1563 1.388 . S
C1562 C1561 1.366 . S
C1562 C1566 1.385 . S
C1563 H1538 0.951 . S
C1563 C1561 1.388 . S
C1563 C1564 1.366 . S
C1564 C1563 1.366 . S
C1564 C1565 1.414 . S
C1564 C1567 1.499 . S
C1565 H1539 0.950 . S
C1565 C1564 1.414 . S
C1565 C1566 1.374 . S
C1566 H1540 0.950 . S
C1566 C1562 1.385 . S
C1566 C1565 1.374 . S
C1567 C1564 1.499 . S
C1567 C1568 1.373 . S
C1567 C1569 1.389 . S
C1568 H1541 0.950 . S
C1568 C1554 1.377 . S
C1568 C1567 1.373 . S
C1569 C1553 1.377 . S
C1569 C1567 1.389 . S
C1569 C1570 1.524 . S
C1570 C1569 1.524 . S
C1570 C1571 1.397 . S
C1570 C1575 1.363 . S
C1571 H1542 0.950 . S
C1571 C1570 1.397 . S
C1571 C1572 1.297 1_455 S
C1572 H1543 0.985 . S
C1572 C1571 1.297 1_655 S
C1572 C1573 1.289 . S
C1573 C1572 1.289 . S
C1573 C1574 1.524 1_655 S
C1573 H1576 0.999 . S
C1574 H1544 0.950 . S
C1574 C1573 1.524 1_455 S
C1574 C1575 1.415 . S
C1575 H1545 0.950 . S
C1575 C1570 1.363 . S
C1575 C1574 1.415 . S
H1576 C1573 0.999 . S
H1577 C1558 0.913 . S
H1578 C1596 0.951 . S
H1579 C1598 0.951 . S
H1580 C1600 0.950 . S
H1581 C1601 0.950 . S
H1582 C1603 0.950 . S
H1583 C1606 0.950 . S
H1584 C1607 0.950 . S
H1585 C1609 0.950 . S
H1586 C1610 0.950 . S
H1587 C1611 0.951 . S
H1588 C1613 0.951 . S
H1589 C1615 0.950 . S
H1590 C1616 0.950 . S
H1591 C1618 0.950 . S
H1592 C1621 0.950 . S
H1593 C1622 0.950 . S
H1594 C1624 0.950 . S
H1595 C1625 0.950 . S
C1596 H1578 0.951 . S
C1596 C1597 1.366 . S
C1596 C1598 1.388 . S
C1597 C1596 1.366 . S
C1597 C1601 1.385 . S
C1598 H1579 0.951 . S
C1598 C1596 1.388 . S
C1598 C1599 1.366 . S
C1599 C1598 1.366 . S
C1599 C1600 1.414 . S
C1599 C1602 1.499 . S
C1600 H1580 0.950 . S
C1600 C1599 1.414 . S
C1600 C1601 1.374 . S
C1601 H1581 0.950 . S
C1601 C1597 1.385 . S
C1601 C1600 1.374 . S
C1602 C1599 1.499 . S
C1602 C1603 1.373 . S
C1602 C1604 1.389 . S
C1603 H1582 0.950 . S
C1603 C1602 1.373 . S
C1603 C1619 1.377 . S
C1604 C1602 1.389 . S
C1604 C1605 1.524 . S
C1604 C1618 1.377 . S
C1605 C1604 1.524 . S
C1605 C1606 1.397 . S
C1605 C1610 1.363 . S
C1606 H1583 0.950 . S
C1606 C1605 1.397 . S
C1606 C1607 1.334 . S
C1607 H1584 0.950 . S
C1607 C1606 1.334 . S
C1607 C1608 1.287 . S
C1608 C1607 1.287 . S
C1608 C1609 1.524 . S
C1608 H1627 0.913 . S
C1609 H1585 0.950 . S
C1609 C1608 1.524 . S
C1609 C1610 1.415 . S
C1610 H1586 0.950 . S
C1610 C1605 1.363 . S
C1610 C1609 1.415 . S
C1611 H1587 0.951 . S
C1611 C1612 1.366 . S
C1611 C1613 1.388 . S
C1612 C1611 1.366 . S
C1612 C1616 1.385 . S
C1613 H1588 0.951 . S
C1613 C1611 1.388 . S
C1613 C1614 1.366 . S
C1614 C1613 1.366 . S
C1614 C1615 1.414 . S
C1614 C1617 1.499 . S
C1615 H1589 0.950 . S
C1615 C1614 1.414 . S
C1615 C1616 1.374 . S
C1616 H1590 0.950 . S
C1616 C1612 1.385 . S
C1616 C1615 1.374 . S
C1617 C1614 1.499 . S
C1617 C1618 1.373 . S
C1617 C1619 1.389 . S
C1618 H1591 0.950 . S
C1618 C1604 1.377 . S
C1618 C1617 1.373 . S
C1619 C1603 1.377 . S
C1619 C1617 1.389 . S
C1619 C1620 1.524 . S
C1620 C1619 1.524 . S
C1620 C1621 1.397 . S
C1620 C1625 1.363 . S
C1621 H1592 0.950 . S
C1621 C1620 1.397 . S
C1621 C1622 1.334 . S
C1622 H1593 0.950 . S
C1622 C1621 1.334 . S
C1622 C1623 1.287 . S
C1623 C1622 1.287 . S
C1623 C1624 1.524 . S
C1623 H1626 0.999 . S
C1624 H1594 0.950 . S
C1624 C1623 1.524 . S
C1624 C1625 1.415 . S
C1625 H1595 0.950 . S
C1625 C1620 1.363 . S
C1625 C1624 1.415 . S
H1626 C1623 0.999 . S
H1627 C1608 0.913 . S
H1628 C1646 0.951 . S
H1629 C1648 0.951 . S
H1630 C1650 0.950 . S
H1631 C1651 0.950 . S
H1632 C1653 0.950 . S
H1633 C1656 0.950 . S
H1634 C1657 0.950 . S
H1635 C1659 0.950 . S
H1636 C1660 0.950 . S
H1637 C1661 0.951 . S
H1638 C1663 0.951 . S
H1639 C1665 0.950 . S
H1640 C1666 0.950 . S
H1641 C1668 0.950 . S
H1642 C1671 0.950 . S
H1643 C1672 0.950 . S
H1644 C1674 0.950 . S
H1645 C1675 0.950 . S
C1646 H1628 0.951 . S
C1646 C1647 1.366 . S
C1646 C1648 1.388 . S
C1647 C1646 1.366 . S
C1647 C1651 1.385 . S
C1648 H1629 0.951 . S
C1648 C1646 1.388 . S
C1648 C1649 1.366 . S
C1649 C1648 1.366 . S
C1649 C1650 1.414 . S
C1649 C1652 1.499 . S
C1650 H1630 0.950 . S
C1650 C1649 1.414 . S
C1650 C1651 1.374 . S
C1651 H1631 0.950 . S
C1651 C1647 1.385 . S
C1651 C1650 1.374 . S
C1652 C1649 1.499 . S
C1652 C1653 1.373 . S
C1652 C1654 1.389 . S
C1653 H1632 0.950 . S
C1653 C1652 1.373 . S
C1653 C1669 1.377 . S
C1654 C1652 1.389 . S
C1654 C1655 1.524 . S
C1654 C1668 1.377 . S
C1655 C1654 1.524 . S
C1655 C1656 1.397 . S
C1655 C1660 1.363 . S
C1656 H1633 0.950 . S
C1656 C1655 1.397 . S
C1656 C1657 1.334 . S
C1657 H1634 0.950 . S
C1657 C1656 1.334 . S
C1657 C1658 1.287 . S
C1658 C1657 1.287 . S
C1658 C1659 1.524 . S
C1658 H1677 0.913 . S
C1659 H1635 0.950 . S
C1659 C1658 1.524 . S
C1659 C1660 1.415 . S
C1660 H1636 0.950 . S
C1660 C1655 1.363 . S
C1660 C1659 1.415 . S
C1661 H1637 0.951 . S
C1661 C1662 1.366 . S
C1661 C1663 1.388 . S
C1662 C1661 1.366 . S
C1662 C1666 1.385 . S
C1663 H1638 0.951 . S
C1663 C1661 1.388 . S
C1663 C1664 1.366 . S
C1664 C1663 1.366 . S
C1664 C1665 1.414 . S
C1664 C1667 1.499 . S
C1665 H1639 0.950 . S
C1665 C1664 1.414 . S
C1665 C1666 1.374 . S
C1666 H1640 0.950 . S
C1666 C1662 1.385 . S
C1666 C1665 1.374 . S
C1667 C1664 1.499 . S
C1667 C1668 1.373 . S
C1667 C1669 1.389 . S
C1668 H1641 0.950 . S
C1668 C1654 1.377 . S
C1668 C1667 1.373 . S
C1669 C1653 1.377 . S
C1669 C1667 1.389 . S
C1669 C1670 1.524 . S
C1670 C1669 1.524 . S
C1670 C1671 1.397 . S
C1670 C1675 1.363 . S
C1671 H1642 0.950 . S
C1671 C1670 1.397 . S
C1671 C1672 1.334 . S
C1672 H1643 0.950 . S
C1672 C1671 1.334 . S
C1672 C1673 1.287 . S
C1673 C1672 1.287 . S
C1673 C1674 1.524 . S
C1673 H1676 0.999 . S
C1674 H1644 0.950 . S
C1674 C1673 1.524 . S
C1674 C1675 1.415 . S
C1675 H1645 0.950 . S
C1675 C1670 1.363 . S
C1675 C1674 1.415 . S
H1676 C1673 0.999 . S
H1677 C1658 0.913 . S
H1678 C1696 0.951 . S
H1679 C1698 0.951 . S
H1680 C1700 0.950 . S
H1681 C1701 0.950 . S
H1682 C1703 0.950 . S
H1683 C1706 0.950 . S
H1684 C1707 0.950 . S
H1685 C1709 0.950 . S
H1686 C1710 0.950 . S
H1687 C1711 0.951 . S
H1688 C1713 0.951 . S
H1689 C1715 0.950 . S
H1690 C1716 0.950 . S
H1691 C1718 0.950 . S
H1692 C1721 0.950 . S
H1693 C1722 0.950 . S
H1694 C1724 0.950 . S
H1695 C1725 0.950 . S
C1696 H1678 0.951 . S
C1696 C1697 1.366 . S
C1696 C1698 1.388 . S
C1697 C1696 1.366 . S
C1697 C1701 1.385 . S
C1698 H1679 0.951 . S
C1698 C1696 1.388 . S
C1698 C1699 1.366 . S
C1699 C1698 1.366 . S
C1699 C1700 1.414 . S
C1699 C1702 1.499 . S
C1700 H1680 0.950 . S
C1700 C1699 1.414 . S
C1700 C1701 1.374 . S
C1701 H1681 0.950 . S
C1701 C1697 1.385 . S
C1701 C1700 1.374 . S
C1702 C1699 1.499 . S
C1702 C1703 1.373 . S
C1702 C1704 1.389 . S
C1703 H1682 0.950 . S
C1703 C1702 1.373 . S
C1703 C1719 1.377 . S
C1704 C1702 1.389 . S
C1704 C1705 1.524 . S
C1704 C1718 1.377 . S
C1705 C1704 1.524 . S
C1705 C1706 1.397 . S
C1705 C1710 1.363 . S
C1706 H1683 0.950 . S
C1706 C1705 1.397 . S
C1706 C1707 1.334 . S
C1707 H1684 0.950 . S
C1707 C1706 1.334 . S
C1707 C1708 1.287 . S
C1708 C1707 1.287 . S
C1708 C1709 1.524 . S
C1708 H1727 0.913 . S
C1709 H1685 0.950 . S
C1709 C1708 1.524 . S
C1709 C1710 1.415 . S
C1710 H1686 0.950 . S
C1710 C1705 1.363 . S
C1710 C1709 1.415 . S
C1711 H1687 0.951 . S
C1711 C1712 1.366 . S
C1711 C1713 1.388 . S
C1712 C1711 1.366 . S
C1712 C1716 1.385 . S
C1713 H1688 0.951 . S
C1713 C1711 1.388 . S
C1713 C1714 1.366 . S
C1714 C1713 1.366 . S
C1714 C1715 1.414 . S
C1714 C1717 1.499 . S
C1715 H1689 0.950 . S
C1715 C1714 1.414 . S
C1715 C1716 1.374 . S
C1716 H1690 0.950 . S
C1716 C1712 1.385 . S
C1716 C1715 1.374 . S
C1717 C1714 1.499 . S
C1717 C1718 1.373 . S
C1717 C1719 1.389 . S
C1718 H1691 0.950 . S
C1718 C1704 1.377 . S
C1718 C1717 1.373 . S
C1719 C1703 1.377 . S
C1719 C1717 1.389 . S
C1719 C1720 1.524 . S
C1720 C1719 1.524 . S
C1720 C1721 1.397 . S
C1720 C1725 1.363 . S
C1721 H1692 0.950 . S
C1721 C1720 1.397 . S
C1721 C1722 1.334 . S
C1722 H1693 0.950 . S
C1722 C1721 1.334 . S
C1722 C1723 1.287 . S
C1723 C1722 1.287 . S
C1723 C1724 1.524 . S
C1723 H1726 0.999 . S
C1724 H1694 0.950 . S
C1724 C1723 1.524 . S
C1724 C1725 1.415 . S
C1725 H1695 0.950 . S
C1725 C1720 1.363 . S
C1725 C1724 1.415 . S
H1726 C1723 0.999 . S
H1727 C1708 0.913 . S
H1728 C1746 0.951 . S
H1729 C1748 0.951 . S
H1730 C1750 0.950 . S
H1731 C1751 0.950 . S
H1732 C1753 0.950 . S
H1733 C1756 0.950 . S
H1734 C1757 0.950 . S
H1735 C1759 0.950 . S
H1736 C1760 0.950 . S
H1737 C1761 0.951 . S
H1738 C1763 0.951 . S
H1739 C1765 0.950 . S
H1740 C1766 0.950 . S
H1741 C1768 0.950 . S
H1742 C1771 0.950 . S
H1743 C1772 0.950 . S
H1744 C1774 0.950 . S
H1745 C1775 0.950 . S
C1746 H1728 0.951 . S
C1746 C1747 1.366 . S
C1746 C1748 1.388 . S
C1747 C1746 1.366 . S
C1747 C1751 1.385 . S
C1748 H1729 0.951 . S
C1748 C1746 1.388 . S
C1748 C1749 1.366 . S
C1749 C1748 1.366 . S
C1749 C1750 1.414 . S
C1749 C1752 1.499 . S
C1750 H1730 0.950 . S
C1750 C1749 1.414 . S
C1750 C1751 1.374 . S
C1751 H1731 0.950 . S
C1751 C1747 1.385 . S
C1751 C1750 1.374 . S
C1752 C1749 1.499 . S
C1752 C1753 1.373 . S
C1752 C1754 1.389 . S
C1753 H1732 0.950 . S
C1753 C1752 1.373 . S
C1753 C1769 1.377 . S
C1754 C1752 1.389 . S
C1754 C1755 1.524 . S
C1754 C1768 1.377 . S
C1755 C1754 1.524 . S
C1755 C1756 1.397 . S
C1755 C1760 1.363 . S
C1756 H1733 0.950 . S
C1756 C1755 1.397 . S
C1756 C1757 1.334 . S
C1757 H1734 0.950 . S
C1757 C1756 1.334 . S
C1757 C1758 1.287 . S
C1758 C1757 1.287 . S
C1758 C1759 1.524 . S
C1758 H1777 0.913 . S
C1759 H1735 0.950 . S
C1759 C1758 1.524 . S
C1759 C1760 1.415 . S
C1760 H1736 0.950 . S
C1760 C1755 1.363 . S
C1760 C1759 1.415 . S
C1761 H1737 0.951 . S
C1761 C1762 1.366 . S
C1761 C1763 1.388 . S
C1762 C1761 1.366 . S
C1762 C1766 1.385 . S
C1763 H1738 0.951 . S
C1763 C1761 1.388 . S
C1763 C1764 1.366 . S
C1764 C1763 1.366 . S
C1764 C1765 1.414 . S
C1764 C1767 1.499 . S
C1765 H1739 0.950 . S
C1765 C1764 1.414 . S
C1765 C1766 1.374 . S
C1766 H1740 0.950 . S
C1766 C1762 1.385 . S
C1766 C1765 1.374 . S
C1767 C1764 1.499 . S
C1767 C1768 1.373 . S
C1767 C1769 1.389 . S
C1768 H1741 0.950 . S
C1768 C1754 1.377 . S
C1768 C1767 1.373 . S
C1769 C1753 1.377 . S
C1769 C1767 1.389 . S
C1769 C1770 1.524 . S
C1770 C1769 1.524 . S
C1770 C1771 1.397 . S
C1770 C1775 1.363 . S
C1771 H1742 0.950 . S
C1771 C1770 1.397 . S
C1771 C1772 1.334 . S
C1772 H1743 0.950 . S
C1772 C1771 1.334 . S
C1772 C1773 1.287 . S
C1773 C1772 1.287 . S
C1773 C1774 1.524 . S
C1773 H1776 0.999 . S
C1774 H1744 0.950 . S
C1774 C1773 1.524 . S
C1774 C1775 1.415 . S
C1775 H1745 0.950 . S
C1775 C1770 1.363 . S
C1775 C1774 1.415 . S
H1776 C1773 0.999 . S
H1777 C1758 0.913 . S
H1778 C1796 0.951 . S
H1779 C1798 0.951 . S
H1780 C1800 0.950 . S
H1781 C1801 0.950 . S
H1782 C1803 0.950 . S
H1783 C1806 0.950 . S
H1784 C1807 0.950 . S
H1785 C1809 0.950 . S
H1786 C1810 0.950 . S
H1787 C1811 0.951 . S
H1788 C1813 0.951 . S
H1789 C1815 0.950 . S
H1790 C1816 0.950 . S
H1791 C1818 0.950 . S
H1792 C1821 0.950 . S
H1793 C1822 0.950 . S
H1794 C1824 0.950 . S
H1795 C1825 0.950 . S
C1796 H1778 0.951 . S
C1796 C1797 1.366 . S
C1796 C1798 1.388 . S
C1797 C1796 1.366 . S
C1797 C1801 1.385 . S
C1798 H1779 0.951 . S
C1798 C1796 1.388 . S
C1798 C1799 1.366 . S
C1799 C1798 1.366 . S
C1799 C1800 1.414 . S
C1799 C1802 1.499 . S
C1800 H1780 0.950 . S
C1800 C1799 1.414 . S
C1800 C1801 1.374 . S
C1801 H1781 0.950 . S
C1801 C1797 1.385 . S
C1801 C1800 1.374 . S
C1802 C1799 1.499 . S
C1802 C1803 1.373 . S
C1802 C1804 1.389 . S
C1803 H1782 0.950 . S
C1803 C1802 1.373 . S
C1803 C1819 1.377 . S
C1804 C1802 1.389 . S
C1804 C1805 1.524 . S
C1804 C1818 1.377 . S
C1805 C1804 1.524 . S
C1805 C1806 1.397 . S
C1805 C1810 1.363 . S
C1806 H1783 0.950 . S
C1806 C1805 1.397 . S
C1806 C1807 1.334 . S
C1807 H1784 0.950 . S
C1807 C1806 1.334 . S
C1807 C1808 1.287 . S
C1808 C1807 1.287 . S
C1808 C1809 1.524 . S
C1808 H1827 0.913 . S
C1809 H1785 0.950 . S
C1809 C1808 1.524 . S
C1809 C1810 1.415 . S
C1810 H1786 0.950 . S
C1810 C1805 1.363 . S
C1810 C1809 1.415 . S
C1811 H1787 0.951 . S
C1811 C1812 1.366 . S
C1811 C1813 1.388 . S
C1812 C1811 1.366 . S
C1812 C1816 1.385 . S
C1813 H1788 0.951 . S
C1813 C1811 1.388 . S
C1813 C1814 1.366 . S
C1814 C1813 1.366 . S
C1814 C1815 1.414 . S
C1814 C1817 1.499 . S
C1815 H1789 0.950 . S
C1815 C1814 1.414 . S
C1815 C1816 1.374 . S
C1816 H1790 0.950 . S
C1816 C1812 1.385 . S
C1816 C1815 1.374 . S
C1817 C1814 1.499 . S
C1817 C1818 1.373 . S
C1817 C1819 1.389 . S
C1818 H1791 0.950 . S
C1818 C1804 1.377 . S
C1818 C1817 1.373 . S
C1819 C1803 1.377 . S
C1819 C1817 1.389 . S
C1819 C1820 1.524 . S
C1820 C1819 1.524 . S
C1820 C1821 1.397 . S
C1820 C1825 1.363 . S
C1821 H1792 0.950 . S
C1821 C1820 1.397 . S
C1821 C1822 1.334 . S
C1822 H1793 0.950 . S
C1822 C1821 1.334 . S
C1822 C1823 1.287 . S
C1823 C1822 1.287 . S
C1823 C1824 1.524 . S
C1823 H1826 0.999 . S
C1824 H1794 0.950 . S
C1824 C1823 1.524 . S
C1824 C1825 1.415 . S
C1825 H1795 0.950 . S
C1825 C1820 1.363 . S
C1825 C1824 1.415 . S
H1826 C1823 0.999 . S
H1827 C1808 0.913 . S
H1828 C1846 0.951 . S
H1829 C1848 0.951 . S
H1830 C1850 0.950 . S
H1831 C1851 0.950 . S
H1832 C1853 0.950 . S
H1833 C1856 0.950 . S
H1834 C1857 0.950 . S
H1835 C1859 0.950 . S
H1836 C1860 0.950 . S
H1837 C1861 0.951 . S
H1838 C1863 0.951 . S
H1839 C1865 0.950 . S
H1840 C1866 0.950 . S
H1841 C1868 0.950 . S
H1842 C1871 0.950 . S
H1843 C1872 0.950 . S
H1844 C1874 0.950 . S
H1845 C1875 0.950 . S
C1846 H1828 0.951 . S
C1846 C1847 1.366 . S
C1846 C1848 1.388 . S
C1847 C1846 1.366 . S
C1847 C1851 1.385 . S
C1848 H1829 0.951 . S
C1848 C1846 1.388 . S
C1848 C1849 1.366 . S
C1849 C1848 1.366 . S
C1849 C1850 1.414 . S
C1849 C1852 1.499 . S
C1850 H1830 0.950 . S
C1850 C1849 1.414 . S
C1850 C1851 1.374 . S
C1851 H1831 0.950 . S
C1851 C1847 1.385 . S
C1851 C1850 1.374 . S
C1852 C1849 1.499 . S
C1852 C1853 1.373 . S
C1852 C1854 1.389 . S
C1853 H1832 0.950 . S
C1853 C1852 1.373 . S
C1853 C1869 1.377 . S
C1854 C1852 1.389 . S
C1854 C1855 1.524 . S
C1854 C1868 1.377 . S
C1855 C1854 1.524 . S
C1855 C1856 1.397 . S
C1855 C1860 1.363 . S
C1856 H1833 0.950 . S
C1856 C1855 1.397 . S
C1856 C1857 1.334 . S
C1857 H1834 0.950 . S
C1857 C1856 1.334 . S
C1857 C1858 1.287 . S
C1858 C1857 1.287 . S
C1858 C1859 1.524 . S
C1858 H1877 0.913 . S
C1859 H1835 0.950 . S
C1859 C1858 1.524 . S
C1859 C1860 1.415 . S
C1860 H1836 0.950 . S
C1860 C1855 1.363 . S
C1860 C1859 1.415 . S
C1861 H1837 0.951 . S
C1861 C1862 1.366 . S
C1861 C1863 1.388 . S
C1862 C1861 1.366 . S
C1862 C1866 1.385 . S
C1863 H1838 0.951 . S
C1863 C1861 1.388 . S
C1863 C1864 1.366 . S
C1864 C1863 1.366 . S
C1864 C1865 1.414 . S
C1864 C1867 1.499 . S
C1865 H1839 0.950 . S
C1865 C1864 1.414 . S
C1865 C1866 1.374 . S
C1866 H1840 0.950 . S
C1866 C1862 1.385 . S
C1866 C1865 1.374 . S
C1867 C1864 1.499 . S
C1867 C1868 1.373 . S
C1867 C1869 1.389 . S
C1868 H1841 0.950 . S
C1868 C1854 1.377 . S
C1868 C1867 1.373 . S
C1869 C1853 1.377 . S
C1869 C1867 1.389 . S
C1869 C1870 1.524 . S
C1870 C1869 1.524 . S
C1870 C1871 1.397 . S
C1870 C1875 1.363 . S
C1871 H1842 0.950 . S
C1871 C1870 1.397 . S
C1871 C1872 1.334 . S
C1872 H1843 0.950 . S
C1872 C1871 1.334 . S
C1872 C1873 1.287 . S
C1873 C1872 1.287 . S
C1873 C1874 1.524 . S
C1873 H1876 0.999 . S
C1874 H1844 0.950 . S
C1874 C1873 1.524 . S
C1874 C1875 1.415 . S
C1875 H1845 0.950 . S
C1875 C1870 1.363 . S
C1875 C1874 1.415 . S
H1876 C1873 0.999 . S
H1877 C1858 0.913 . S
H1878 C1896 0.951 . S
H1879 C1898 0.951 . S
H1880 C1900 0.950 . S
H1881 C1901 0.950 . S
H1882 C1903 0.950 . S
H1883 C1906 0.950 . S
H1884 C1907 0.950 . S
H1885 C1909 0.950 . S
H1886 C1910 0.950 . S
H1887 C1911 0.951 . S
H1888 C1913 0.951 . S
H1889 C1915 0.950 . S
H1890 C1916 0.950 . S
H1891 C1918 0.950 . S
H1892 C1921 0.950 . S
H1893 C1922 0.950 . S
H1894 C1924 0.950 . S
H1895 C1925 0.950 . S
C1896 H1878 0.951 . S
C1896 C1897 1.366 . S
C1896 C1898 1.388 . S
C1897 C1896 1.366 . S
C1897 C1901 1.385 . S
C1898 H1879 0.951 . S
C1898 C1896 1.388 . S
C1898 C1899 1.366 . S
C1899 C1898 1.366 . S
C1899 C1900 1.414 . S
C1899 C1902 1.499 . S
C1900 H1880 0.950 . S
C1900 C1899 1.414 . S
C1900 C1901 1.374 . S
C1901 H1881 0.950 . S
C1901 C1897 1.385 . S
C1901 C1900 1.374 . S
C1902 C1899 1.499 . S
C1902 C1903 1.373 . S
C1902 C1904 1.389 . S
C1903 H1882 0.950 . S
C1903 C1902 1.373 . S
C1903 C1919 1.377 . S
C1904 C1902 1.389 . S
C1904 C1905 1.524 . S
C1904 C1918 1.377 . S
C1905 C1904 1.524 . S
C1905 C1906 1.397 . S
C1905 C1910 1.363 . S
C1906 H1883 0.950 . S
C1906 C1905 1.397 . S
C1906 C1907 1.334 . S
C1907 H1884 0.950 . S
C1907 C1906 1.334 . S
C1907 C1908 1.287 . S
C1908 C1907 1.287 . S
C1908 C1909 1.524 . S
C1908 H1927 0.913 . S
C1909 H1885 0.950 . S
C1909 C1908 1.524 . S
C1909 C1910 1.415 . S
C1910 H1886 0.950 . S
C1910 C1905 1.363 . S
C1910 C1909 1.415 . S
C1911 H1887 0.951 . S
C1911 C1912 1.366 . S
C1911 C1913 1.388 . S
C1912 C1911 1.366 . S
C1912 C1916 1.385 . S
C1913 H1888 0.951 . S
C1913 C1911 1.388 . S
C1913 C1914 1.366 . S
C1914 C1913 1.366 . S
C1914 C1915 1.414 . S
C1914 C1917 1.499 . S
C1915 H1889 0.950 . S
C1915 C1914 1.414 . S
C1915 C1916 1.374 . S
C1916 H1890 0.950 . S
C1916 C1912 1.385 . S
C1916 C1915 1.374 . S
C1917 C1914 1.499 . S
C1917 C1918 1.373 . S
C1917 C1919 1.389 . S
C1918 H1891 0.950 . S
C1918 C1904 1.377 . S
C1918 C1917 1.373 . S
C1919 C1903 1.377 . S
C1919 C1917 1.389 . S
C1919 C1920 1.524 . S
C1920 C1919 1.524 . S
C1920 C1921 1.397 . S
C1920 C1925 1.363 . S
C1921 H1892 0.950 . S
C1921 C1920 1.397 . S
C1921 C1922 1.334 . S
C1922 H1893 0.950 . S
C1922 C1921 1.334 . S
C1922 C1923 1.287 . S
C1923 C1922 1.287 . S
C1923 C1924 1.524 . S
C1923 H1926 0.999 . S
C1924 H1894 0.950 . S
C1924 C1923 1.524 . S
C1924 C1925 1.415 . S
C1925 H1895 0.950 . S
C1925 C1920 1.363 . S
C1925 C1924 1.415 . S
H1926 C1923 0.999 . S
H1927 C1908 0.913 . S
H1928 C1946 0.951 . S
H1929 C1948 0.951 . S
H1930 C1950 0.950 . S
H1931 C1951 0.950 . S
H1932 C1953 0.950 . S
H1933 C1956 0.950 . S
H1934 C1957 0.950 . S
H1935 C1959 0.950 . S
H1936 C1960 0.950 . S
H1937 C1961 0.951 . S
H1938 C1963 0.951 . S
H1939 C1965 0.950 . S
H1940 C1966 0.950 . S
H1941 C1968 0.950 . S
H1942 C1971 0.950 . S
H1943 C1972 0.950 . S
H1944 C1974 0.950 . S
H1945 C1975 0.950 . S
C1946 H1928 0.951 . S
C1946 C1947 1.366 . S
C1946 C1948 1.388 . S
C1947 C1946 1.366 . S
C1947 C1951 1.385 . S
C1948 H1929 0.951 . S
C1948 C1946 1.388 . S
C1948 C1949 1.366 . S
C1949 C1948 1.366 . S
C1949 C1950 1.414 . S
C1949 C1952 1.499 . S
C1950 H1930 0.950 . S
C1950 C1949 1.414 . S
C1950 C1951 1.374 . S
C1951 H1931 0.950 . S
C1951 C1947 1.385 . S
C1951 C1950 1.374 . S
C1952 C1949 1.499 . S
C1952 C1953 1.373 . S
C1952 C1954 1.389 . S
C1953 H1932 0.950 . S
C1953 C1952 1.373 . S
C1953 C1969 1.377 . S
C1954 C1952 1.389 . S
C1954 C1955 1.524 . S
C1954 C1968 1.377 . S
C1955 C1954 1.524 . S
C1955 C1956 1.397 . S
C1955 C1960 1.363 . S
C1956 H1933 0.950 . S
C1956 C1955 1.397 . S
C1956 C1957 1.334 . S
C1957 H1934 0.950 . S
C1957 C1956 1.334 . S
C1957 C1958 1.287 . S
C1958 C1957 1.287 . S
C1958 C1959 1.524 . S
C1958 H1977 0.913 . S
C1959 H1935 0.950 . S
C1959 C1958 1.524 . S
C1959 C1960 1.415 . S
C1960 H1936 0.950 . S
C1960 C1955 1.363 . S
C1960 C1959 1.415 . S
C1961 H1937 0.951 . S
C1961 C1962 1.366 . S
C1961 C1963 1.388 . S
C1962 C1961 1.366 . S
C1962 C1966 1.385 . S
C1963 H1938 0.951 . S
C1963 C1961 1.388 . S
C1963 C1964 1.366 . S
C1964 C1963 1.366 . S
C1964 C1965 1.414 . S
C1964 C1967 1.499 . S
C1965 H1939 0.950 . S
C1965 C1964 1.414 . S
C1965 C1966 1.374 . S
C1966 H1940 0.950 . S
C1966 C1962 1.385 . S
C1966 C1965 1.374 . S
C1967 C1964 1.499 . S
C1967 C1968 1.373 . S
C1967 C1969 1.389 . S
C1968 H1941 0.950 . S
C1968 C1954 1.377 . S
C1968 C1967 1.373 . S
C1969 C1953 1.377 . S
C1969 C1967 1.389 . S
C1969 C1970 1.524 . S
C1970 C1969 1.524 . S
C1970 C1971 1.397 . S
C1970 C1975 1.363 . S
C1971 H1942 0.950 . S
C1971 C1970 1.397 . S
C1971 C1972 1.334 . S
C1972 H1943 0.950 . S
C1972 C1971 1.334 . S
C1972 C1973 1.287 . S
C1973 C1972 1.287 . S
C1973 C1974 1.524 . S
C1973 H1976 0.999 . S
C1974 H1944 0.950 . S
C1974 C1973 1.524 . S
C1974 C1975 1.415 . S
C1975 H1945 0.950 . S
C1975 C1970 1.363 . S
C1975 C1974 1.415 . S
H1976 C1973 0.999 . S
H1977 C1958 0.913 . S
H1978 C1996 0.951 . S
H1979 C1998 0.951 . S
H1980 C2000 0.950 . S
H1981 C2001 0.950 . S
H1982 C2003 0.950 . S
H1983 C2006 0.950 . S
H1984 C2007 0.950 . S
H1985 C2009 0.950 . S
H1986 C2010 0.950 . S
H1987 C2011 0.951 . S
H1988 C2013 0.951 . S
H1989 C2015 0.950 . S
H1990 C2016 0.950 . S
H1991 C2018 0.950 . S
H1992 C2021 0.950 . S
H1993 C2022 0.950 . S
H1994 C2024 0.950 . S
H1995 C2025 0.950 . S
C1996 H1978 0.951 . S
C1996 C1997 1.366 . S
C1996 C1998 1.388 . S
C1997 C1996 1.366 . S
C1997 C2001 1.385 . S
C1998 H1979 0.951 . S
C1998 C1996 1.388 . S
C1998 C1999 1.366 . S
C1999 C1998 1.366 . S
C1999 C2000 1.414 . S
C1999 C2002 1.499 . S
C2000 H1980 0.950 . S
C2000 C1999 1.414 . S
C2000 C2001 1.374 . S
C2001 H1981 0.950 . S
C2001 C1997 1.385 . S
C2001 C2000 1.374 . S
C2002 C1999 1.499 . S
C2002 C2003 1.373 . S
C2002 C2004 1.389 . S
C2003 H1982 0.950 . S
C2003 C2002 1.373 . S
C2003 C2019 1.377 . S
C2004 C2002 1.389 . S
C2004 C2005 1.524 . S
C2004 C2018 1.377 . S
C2005 C2004 1.524 . S
C2005 C2006 1.397 . S
C2005 C2010 1.363 . S
C2006 H1983 0.950 . S
C2006 C2005 1.397 . S
C2006 C2007 1.334 . S
C2007 H1984 0.950 . S
C2007 C2006 1.334 . S
C2007 C2008 1.287 . S
C2008 C2007 1.287 . S
C2008 C2009 1.524 . S
C2008 H2027 0.913 . S
C2009 H1985 0.950 . S
C2009 C2008 1.524 . S
C2009 C2010 1.415 . S
C2010 H1986 0.950 . S
C2010 C2005 1.363 . S
C2010 C2009 1.415 . S
C2011 H1987 0.951 . S
C2011 C2012 1.366 . S
C2011 C2013 1.388 . S
C2012 C2011 1.366 . S
C2012 C2016 1.385 . S
C2013 H1988 0.951 . S
C2013 C2011 1.388 . S
C2013 C2014 1.366 . S
C2014 C2013 1.366 . S
C2014 C2015 1.414 . S
C2014 C2017 1.499 . S
C2015 H1989 0.950 . S
C2015 C2014 1.414 . S
C2015 C2016 1.374 . S
C2016 H1990 0.950 . S
C2016 C2012 1.385 . S
C2016 C2015 1.374 . S
C2017 C2014 1.499 . S
C2017 C2018 1.373 . S
C2017 C2019 1.389 . S
C2018 H1991 0.950 . S
C2018 C2004 1.377 . S
C2018 C2017 1.373 . S
C2019 C2003 1.377 . S
C2019 C2017 1.389 . S
C2019 C2020 1.524 . S
C2020 C2019 1.524 . S
C2020 C2021 1.397 . S
C2020 C2025 1.363 . S
C2021 H1992 0.950 . S
C2021 C2020 1.397 . S
C2021 C2022 1.334 . S
C2022 H1993 0.950 . S
C2022 C2021 1.334 . S
C2022 C2023 1.287 . S
C2023 C2022 1.287 . S
C2023 C2024 1.524 . S
C2023 H2026 0.999 . S
C2024 H1994 0.950 . S
C2024 C2023 1.524 . S
C2024 C2025 1.415 . S
C2025 H1995 0.950 . S
C2025 C2020 1.363 . S
C2025 C2024 1.415 . S
H2026 C2023 0.999 . S
H2027 C2008 0.913 . S
H2028 C2046 0.951 . S
H2029 C2048 0.951 . S
H2030 C2050 0.950 . S
H2031 C2051 0.950 . S
H2032 C2053 0.950 . S
H2033 C2056 0.950 . S
H2034 C2057 0.950 . S
H2035 C2059 0.950 . S
H2036 C2060 0.950 . S
H2037 C2061 0.951 . S
H2038 C2063 0.951 . S
H2039 C2065 0.950 . S
H2040 C2066 0.950 . S
H2041 C2068 0.950 . S
H2042 C2071 0.950 . S
H2043 C2072 0.950 . S
H2044 C2074 0.950 . S
H2045 C2075 0.950 . S
C2046 H2028 0.951 . S
C2046 C2047 1.366 . S
C2046 C2048 1.388 . S
C2047 C2046 1.366 . S
C2047 C2051 1.385 . S
C2048 H2029 0.951 . S
C2048 C2046 1.388 . S
C2048 C2049 1.366 . S
C2049 C2048 1.366 . S
C2049 C2050 1.414 . S
C2049 C2052 1.499 . S
C2050 H2030 0.950 . S
C2050 C2049 1.414 . S
C2050 C2051 1.374 . S
C2051 H2031 0.950 . S
C2051 C2047 1.385 . S
C2051 C2050 1.374 . S
C2052 C2049 1.499 . S
C2052 C2053 1.373 . S
C2052 C2054 1.389 . S
C2053 H2032 0.950 . S
C2053 C2052 1.373 . S
C2053 C2069 1.377 . S
C2054 C2052 1.389 . S
C2054 C2055 1.524 . S
C2054 C2068 1.377 . S
C2055 C2054 1.524 . S
C2055 C2056 1.397 . S
C2055 C2060 1.363 . S
C2056 H2033 0.950 . S
C2056 C2055 1.397 . S
C2056 C2057 1.334 . S
C2057 H2034 0.950 . S
C2057 C2056 1.334 . S
C2057 C2058 1.287 . S
C2058 C2057 1.287 . S
C2058 C2059 1.524 . S
C2058 H2077 0.913 . S
C2059 H2035 0.950 . S
C2059 C2058 1.524 . S
C2059 C2060 1.415 . S
C2060 H2036 0.950 . S
C2060 C2055 1.363 . S
C2060 C2059 1.415 . S
C2061 H2037 0.951 . S
C2061 C2062 1.366 . S
C2061 C2063 1.388 . S
C2062 C2061 1.366 . S
C2062 C2066 1.385 . S
C2063 H2038 0.951 . S
C2063 C2061 1.388 . S
C2063 C2064 1.366 . S
C2064 C2063 1.366 . S
C2064 C2065 1.414 . S
C2064 C2067 1.499 . S
C2065 H2039 0.950 . S
C2065 C2064 1.414 . S
C2065 C2066 1.374 . S
C2066 H2040 0.950 . S
C2066 C2062 1.385 . S
C2066 C2065 1.374 . S
C2067 C2064 1.499 . S
C2067 C2068 1.373 . S
C2067 C2069 1.389 . S
C2068 H2041 0.950 . S
C2068 C2054 1.377 . S
C2068 C2067 1.373 . S
C2069 C2053 1.377 . S
C2069 C2067 1.389 . S
C2069 C2070 1.524 . S
C2070 C2069 1.524 . S
C2070 C2071 1.397 . S
C2070 C2075 1.363 . S
C2071 H2042 0.950 . S
C2071 C2070 1.397 . S
C2071 C2072 1.334 . S
C2072 H2043 0.950 . S
C2072 C2071 1.334 . S
C2072 C2073 1.287 . S
C2073 C2072 1.287 . S
C2073 C2074 1.524 . S
C2073 H2076 0.999 . S
C2074 H2044 0.950 . S
C2074 C2073 1.524 . S
C2074 C2075 1.415 . S
C2075 H2045 0.950 . S
C2075 C2070 1.363 . S
C2075 C2074 1.415 . S
H2076 C2073 0.999 . S
H2077 C2058 0.913 . S
H2078 C2096 0.951 . S
H2079 C2098 0.951 . S
H2080 C2100 0.950 . S
H2081 C2101 0.950 . S
H2082 C2103 0.950 . S
H2083 C2106 0.950 . S
H2084 C2107 0.950 . S
H2085 C2109 0.950 . S
H2086 C2110 0.950 . S
H2087 C2111 0.951 . S
H2088 C2113 0.951 . S
H2089 C2115 0.950 . S
H2090 C2116 0.950 . S
H2091 C2118 0.950 . S
H2092 C2121 0.950 . S
H2093 C2122 0.950 . S
H2094 C2124 0.950 . S
H2095 C2125 0.950 . S
C2096 H2078 0.951 . S
C2096 C2097 1.366 . S
C2096 C2098 1.388 . S
C2097 C2096 1.366 . S
C2097 C2101 1.385 . S
C2098 H2079 0.951 . S
C2098 C2096 1.388 . S
C2098 C2099 1.366 . S
C2099 C2098 1.366 . S
C2099 C2100 1.414 . S
C2099 C2102 1.499 . S
C2100 H2080 0.950 . S
C2100 C2099 1.414 . S
C2100 C2101 1.374 . S
C2101 H2081 0.950 . S
C2101 C2097 1.385 . S
C2101 C2100 1.374 . S
C2102 C2099 1.499 . S
C2102 C2103 1.373 . S
C2102 C2104 1.389 . S
C2103 H2082 0.950 . S
C2103 C2102 1.373 . S
C2103 C2119 1.377 . S
C2104 C2102 1.389 . S
C2104 C2105 1.524 . S
C2104 C2118 1.377 . S
C2105 C2104 1.524 . S
C2105 C2106 1.397 . S
C2105 C2110 1.363 . S
C2106 H2083 0.950 . S
C2106 C2105 1.397 . S
C2106 C2107 1.334 . S
C2107 H2084 0.950 . S
C2107 C2106 1.334 . S
C2107 C2108 1.287 . S
C2108 C2107 1.287 . S
C2108 C2109 1.524 . S
C2108 H2127 0.913 . S
C2109 H2085 0.950 . S
C2109 C2108 1.524 . S
C2109 C2110 1.415 . S
C2110 H2086 0.950 . S
C2110 C2105 1.363 . S
C2110 C2109 1.415 . S
C2111 H2087 0.951 . S
C2111 C2112 1.366 . S
C2111 C2113 1.388 . S
C2112 C2111 1.366 . S
C2112 C2116 1.385 . S
C2113 H2088 0.951 . S
C2113 C2111 1.388 . S
C2113 C2114 1.366 . S
C2114 C2113 1.366 . S
C2114 C2115 1.414 . S
C2114 C2117 1.499 . S
C2115 H2089 0.950 . S
C2115 C2114 1.414 . S
C2115 C2116 1.374 . S
C2116 H2090 0.950 . S
C2116 C2112 1.385 . S
C2116 C2115 1.374 . S
C2117 C2114 1.499 . S
C2117 C2118 1.373 . S
C2117 C2119 1.389 . S
C2118 H2091 0.950 . S
C2118 C2104 1.377 . S
C2118 C2117 1.373 . S
C2119 C2103 1.377 . S
C2119 C2117 1.389 . S
C2119 C2120 1.524 . S
C2120 C2119 1.524 . S
C2120 C2121 1.397 . S
C2120 C2125 1.363 . S
C2121 H2092 0.950 . S
C2121 C2120 1.397 . S
C2121 C2122 1.334 . S
C2122 H2093 0.950 . S
C2122 C2121 1.334 . S
C2122 C2123 1.287 . S
C2123 C2122 1.287 . S
C2123 C2124 1.524 . S
C2123 H2126 0.999 . S
C2124 H2094 0.950 . S
C2124 C2123 1.524 . S
C2124 C2125 1.415 . S
C2125 H2095 0.950 . S
C2125 C2120 1.363 . S
C2125 C2124 1.415 . S
H2126 C2123 0.999 . S
H2127 C2108 0.913 . S
H2128 C2146 0.951 . S
H2129 C2148 0.951 . S
H2130 C2150 0.950 . S
H2131 C2151 0.950 . S
H2132 C2153 0.950 . S
H2133 C2156 0.950 . S
H2134 C2157 0.950 . S
H2135 C2159 0.950 . S
H2136 C2160 0.950 . S
H2137 C2161 0.951 . S
H2138 C2163 0.951 . S
H2139 C2165 0.950 . S
H2140 C2166 0.950 . S
H2141 C2168 0.950 . S
H2142 C2171 0.950 . S
H2143 C2172 0.950 . S
H2144 C2174 0.950 . S
H2145 C2175 0.950 . S
C2146 H2128 0.951 . S
C2146 C2147 1.366 . S
C2146 C2148 1.388 . S
C2147 C2146 1.366 . S
C2147 C2151 1.385 . S
C2148 H2129 0.951 . S
C2148 C2146 1.388 . S
C2148 C2149 1.366 . S
C2149 C2148 1.366 . S
C2149 C2150 1.414 . S
C2149 C2152 1.499 . S
C2150 H2130 0.950 . S
C2150 C2149 1.414 . S
C2150 C2151 1.374 . S
C2151 H2131 0.950 . S
C2151 C2147 1.385 . S
C2151 C2150 1.374 . S
C2152 C2149 1.499 . S
C2152 C2153 1.373 . S
C2152 C2154 1.389 . S
C2153 H2132 0.950 . S
C2153 C2152 1.373 . S
C2153 C2169 1.377 . S
C2154 C2152 1.389 . S
C2154 C2155 1.524 . S
C2154 C2168 1.377 . S
C2155 C2154 1.524 . S
C2155 C2156 1.397 . S
C2155 C2160 1.363 . S
C2156 H2133 0.950 . S
C2156 C2155 1.397 . S
C2156 C2157 1.334 . S
C2157 H2134 0.950 . S
C2157 C2156 1.334 . S
C2157 C2158 1.287 . S
C2158 C2157 1.287 . S
C2158 C2159 1.524 . S
C2158 H2177 0.913 . S
C2159 H2135 0.950 . S
C2159 C2158 1.524 . S
C2159 C2160 1.415 . S
C2160 H2136 0.950 . S
C2160 C2155 1.363 . S
C2160 C2159 1.415 . S
C2161 H2137 0.951 . S
C2161 C2162 1.366 . S
C2161 C2163 1.388 . S
C2162 C2161 1.366 . S
C2162 C2166 1.385 . S
C2163 H2138 0.951 . S
C2163 C2161 1.388 . S
C2163 C2164 1.366 . S
C2164 C2163 1.366 . S
C2164 C2165 1.414 . S
C2164 C2167 1.499 . S
C2165 H2139 0.950 . S
C2165 C2164 1.414 . S
C2165 C2166 1.374 . S
C2166 H2140 0.950 . S
C2166 C2162 1.385 . S
C2166 C2165 1.374 . S
C2167 C2164 1.499 . S
C2167 C2168 1.373 . S
C2167 C2169 1.389 . S
C2168 H2141 0.950 . S
C2168 C2154 1.377 . S
C2168 C2167 1.373 . S
C2169 C2153 1.377 . S
C2169 C2167 1.389 . S
C2169 C2170 1.524 . S
C2170 C2169 1.524 . S
C2170 C2171 1.397 . S
C2170 C2175 1.363 . S
C2171 H2142 0.950 . S
C2171 C2170 1.397 . S
C2171 C2172 1.334 . S
C2172 H2143 0.950 . S
C2172 C2171 1.334 . S
C2172 C2173 1.287 . S
C2173 C2172 1.287 . S
C2173 C2174 1.524 . S
C2173 H2176 0.999 . S
C2174 H2144 0.950 . S
C2174 C2173 1.524 . S
C2174 C2175 1.415 . S
C2175 H2145 0.950 . S
C2175 C2170 1.363 . S
C2175 C2174 1.415 . S
H2176 C2173 0.999 . S
H2177 C2158 0.913 . S
H2178 C2196 0.951 . S
H2179 C2198 0.951 . S
H2180 C2200 0.950 . S
H2181 C2201 0.950 . S
H2182 C2203 0.950 . S
H2183 C2206 0.950 . S
H2184 C2207 0.950 . S
H2185 C2209 0.950 . S
H2186 C2210 0.950 . S
H2187 C2211 0.951 . S
H2188 C2213 0.951 . S
H2189 C2215 0.950 . S
H2190 C2216 0.950 . S
H2191 C2218 0.950 . S
H2192 C2221 0.950 . S
H2193 C2222 0.950 . S
H2194 C2224 0.950 . S
H2195 C2225 0.950 . S
C2196 H2178 0.951 . S
C2196 C2197 1.366 . S
C2196 C2198 1.388 . S
C2197 C2196 1.366 . S
C2197 C2201 1.385 . S
C2198 H2179 0.951 . S
C2198 C2196 1.388 . S
C2198 C2199 1.366 . S
C2199 C2198 1.366 . S
C2199 C2200 1.414 . S
C2199 C2202 1.499 . S
C2200 H2180 0.950 . S
C2200 C2199 1.414 . S
C2200 C2201 1.374 . S
C2201 H2181 0.950 . S
C2201 C2197 1.385 . S
C2201 C2200 1.374 . S
C2202 C2199 1.499 . S
C2202 C2203 1.373 . S
C2202 C2204 1.389 . S
C2203 H2182 0.950 . S
C2203 C2202 1.373 . S
C2203 C2219 1.377 . S
C2204 C2202 1.389 . S
C2204 C2205 1.524 . S
C2204 C2218 1.377 . S
C2205 C2204 1.524 . S
C2205 C2206 1.397 . S
C2205 C2210 1.363 . S
C2206 H2183 0.950 . S
C2206 C2205 1.397 . S
C2206 C2207 1.334 . S
C2207 H2184 0.950 . S
C2207 C2206 1.334 . S
C2207 C2208 1.287 . S
C2208 C2207 1.287 . S
C2208 C2209 1.524 . S
C2208 H2227 0.913 . S
C2209 H2185 0.950 . S
C2209 C2208 1.524 . S
C2209 C2210 1.415 . S
C2210 H2186 0.950 . S
C2210 C2205 1.363 . S
C2210 C2209 1.415 . S
C2211 H2187 0.951 . S
C2211 C2212 1.366 . S
C2211 C2213 1.388 . S
C2212 C2211 1.366 . S
C2212 C2216 1.385 . S
C2213 H2188 0.951 . S
C2213 C2211 1.388 . S
C2213 C2214 1.366 . S
C2214 C2213 1.366 . S
C2214 C2215 1.414 . S
C2214 C2217 1.499 . S
C2215 H2189 0.950 . S
C2215 C2214 1.414 . S
C2215 C2216 1.374 . S
C2216 H2190 0.950 . S
C2216 C2212 1.385 . S
C2216 C2215 1.374 . S
C2217 C2214 1.499 . S
C2217 C2218 1.373 . S
C2217 C2219 1.389 . S
C2218 H2191 0.950 . S
C2218 C2204 1.377 . S
C2218 C2217 1.373 . S
C2219 C2203 1.377 . S
C2219 C2217 1.389 . S
C2219 C2220 1.524 . S
C2220 C2219 1.524 . S
C2220 C2221 1.397 . S
C2220 C2225 1.363 . S
C2221 H2192 0.950 . S
C2221 C2220 1.397 . S
C2221 C2222 1.334 . S
C2222 H2193 0.950 . S
C2222 C2221 1.334 . S
C2222 C2223 1.287 . S
C2223 C2222 1.287 . S
C2223 C2224 1.524 . S
C2223 H2226 0.999 . S
C2224 H2194 0.950 . S
C2224 C2223 1.524 . S
C2224 C2225 1.415 . S
C2225 H2195 0.950 . S
C2225 C2220 1.363 . S
C2225 C2224 1.415 . S
H2226 C2223 0.999 . S
H2227 C2208 0.913 . S
H2228 C2246 0.951 . S
H2229 C2248 0.951 . S
H2230 C2250 0.950 . S
H2231 C2251 0.950 . S
H2232 C2253 0.950 . S
H2233 C2256 0.950 . S
H2234 C2257 0.950 . S
H2235 C2259 0.950 . S
H2236 C2260 0.950 . S
H2237 C2261 0.951 . S
H2238 C2263 0.951 . S
H2239 C2265 0.950 . S
H2240 C2266 0.950 . S
H2241 C2268 0.950 . S
H2242 C2271 0.950 . S
H2243 C2272 0.950 . S
H2244 C2274 0.950 . S
H2245 C2275 0.950 . S
C2246 H2228 0.951 . S
C2246 C2247 1.366 . S
C2246 C2248 1.388 . S
C2247 C2246 1.366 . S
C2247 C2251 1.385 . S
C2248 H2229 0.951 . S
C2248 C2246 1.388 . S
C2248 C2249 1.366 . S
C2249 C2248 1.366 . S
C2249 C2250 1.414 . S
C2249 C2252 1.499 . S
C2250 H2230 0.950 . S
C2250 C2249 1.414 . S
C2250 C2251 1.374 . S
C2251 H2231 0.950 . S
C2251 C2247 1.385 . S
C2251 C2250 1.374 . S
C2252 C2249 1.499 . S
C2252 C2253 1.373 . S
C2252 C2254 1.389 . S
C2253 H2232 0.950 . S
C2253 C2252 1.373 . S
C2253 C2269 1.377 . S
C2254 C2252 1.389 . S
C2254 C2255 1.524 . S
C2254 C2268 1.377 . S
C2255 C2254 1.524 . S
C2255 C2256 1.397 . S
C2255 C2260 1.363 . S
C2256 H2233 0.950 . S
C2256 C2255 1.397 . S
C2256 C2257 1.334 . S
C2257 H2234 0.950 . S
C2257 C2256 1.334 . S
C2257 C2258 1.287 . S
C2258 C2257 1.287 . S
C2258 C2259 1.524 . S
C2258 H2277 0.913 . S
C2259 H2235 0.950 . S
C2259 C2258 1.524 . S
C2259 C2260 1.415 . S
C2260 H2236 0.950 . S
C2260 C2255 1.363 . S
C2260 C2259 1.415 . S
C2261 H2237 0.951 . S
C2261 C2262 1.366 . S
C2261 C2263 1.388 . S
C2262 C2261 1.366 . S
C2262 C2266 1.385 . S
C2263 H2238 0.951 . S
C2263 C2261 1.388 . S
C2263 C2264 1.366 . S
C2264 C2263 1.366 . S
C2264 C2265 1.414 . S
C2264 C2267 1.499 . S
C2265 H2239 0.950 . S
C2265 C2264 1.414 . S
C2265 C2266 1.374 . S
C2266 H2240 0.950 . S
C2266 C2262 1.385 . S
C2266 C2265 1.374 . S
C2267 C2264 1.499 . S
C2267 C2268 1.373 . S
C2267 C2269 1.389 . S
C2268 H2241 0.950 . S
C2268 C2254 1.377 . S
C2268 C2267 1.373 . S
C2269 C2253 1.377 . S
C2269 C2267 1.389 . S
C2269 C2270 1.524 . S
C2270 C2269 1.524 . S
C2270 C2271 1.397 . S
C2270 C2275 1.363 . S
C2271 H2242 0.950 . S
C2271 C2270 1.397 . S
C2271 C2272 1.334 . S
C2272 H2243 0.950 . S
C2272 C2271 1.334 . S
C2272 C2273 1.287 . S
C2273 C2272 1.287 . S
C2273 C2274 1.524 . S
C2273 H2276 0.999 . S
C2274 H2244 0.950 . S
C2274 C2273 1.524 . S
C2274 C2275 1.415 . S
C2275 H2245 0.950 . S
C2275 C2270 1.363 . S
C2275 C2274 1.415 . S
H2276 C2273 0.999 . S
H2277 C2258 0.913 . S
H2278 C2296 0.951 . S
H2279 C2298 0.951 . S
H2280 C2300 0.950 . S
H2281 C2301 0.950 . S
H2282 C2303 0.950 . S
H2283 C2306 0.950 . S
H2284 C2307 0.950 . S
H2285 C2309 0.950 . S
H2286 C2310 0.950 . S
H2287 C2311 0.951 . S
H2288 C2313 0.951 . S
H2289 C2315 0.950 . S
H2290 C2316 0.950 . S
H2291 C2318 0.950 . S
H2292 C2321 0.950 . S
H2293 C2322 0.950 . S
H2294 C2324 0.950 . S
H2295 C2325 0.950 . S
C2296 H2278 0.951 . S
C2296 C2297 1.366 . S
C2296 C2298 1.388 . S
C2297 C2296 1.366 . S
C2297 C2301 1.385 . S
C2298 H2279 0.951 . S
C2298 C2296 1.388 . S
C2298 C2299 1.366 . S
C2299 C2298 1.366 . S
C2299 C2300 1.414 . S
C2299 C2302 1.499 . S
C2300 H2280 0.950 . S
C2300 C2299 1.414 . S
C2300 C2301 1.374 . S
C2301 H2281 0.950 . S
C2301 C2297 1.385 . S
C2301 C2300 1.374 . S
C2302 C2299 1.499 . S
C2302 C2303 1.373 . S
C2302 C2304 1.389 . S
C2303 H2282 0.950 . S
C2303 C2302 1.373 . S
C2303 C2319 1.377 . S
C2304 C2302 1.389 . S
C2304 C2305 1.524 . S
C2304 C2318 1.377 . S
C2305 C2304 1.524 . S
C2305 C2306 1.397 . S
C2305 C2310 1.363 . S
C2306 H2283 0.950 . S
C2306 C2305 1.397 . S
C2306 C2307 1.334 . S
C2307 H2284 0.950 . S
C2307 C2306 1.334 . S
C2307 C2308 1.287 . S
C2308 C2307 1.287 . S
C2308 C2309 1.524 . S
C2308 H2327 0.913 . S
C2309 H2285 0.950 . S
C2309 C2308 1.524 . S
C2309 C2310 1.415 . S
C2310 H2286 0.950 . S
C2310 C2305 1.363 . S
C2310 C2309 1.415 . S
C2311 H2287 0.951 . S
C2311 C2312 1.366 . S
C2311 C2313 1.388 . S
C2312 C2311 1.366 . S
C2312 C2316 1.385 . S
C2313 H2288 0.951 . S
C2313 C2311 1.388 . S
C2313 C2314 1.366 . S
C2314 C2313 1.366 . S
C2314 C2315 1.414 . S
C2314 C2317 1.499 . S
C2315 H2289 0.950 . S
C2315 C2314 1.414 . S
C2315 C2316 1.374 . S
C2316 H2290 0.950 . S
C2316 C2312 1.385 . S
C2316 C2315 1.374 . S
C2317 C2314 1.499 . S
C2317 C2318 1.373 . S
C2317 C2319 1.389 . S
C2318 H2291 0.950 . S
C2318 C2304 1.377 . S
C2318 C2317 1.373 . S
C2319 C2303 1.377 . S
C2319 C2317 1.389 . S
C2319 C2320 1.524 . S
C2320 C2319 1.524 . S
C2320 C2321 1.397 . S
C2320 C2325 1.363 . S
C2321 H2292 0.950 . S
C2321 C2320 1.397 . S
C2321 C2322 1.334 . S
C2322 H2293 0.950 . S
C2322 C2321 1.334 . S
C2322 C2323 1.287 . S
C2323 C2322 1.287 . S
C2323 C2324 1.524 . S
C2323 H2326 0.999 . S
C2324 H2294 0.950 . S
C2324 C2323 1.524 . S
C2324 C2325 1.415 . S
C2325 H2295 0.950 . S
C2325 C2320 1.363 . S
C2325 C2324 1.415 . S
H2326 C2323 0.999 . S
H2327 C2308 0.913 . S
H2328 C2346 0.951 . S
H2329 C2348 0.951 . S
H2330 C2350 0.950 . S
H2331 C2351 0.950 . S
H2332 C2353 0.950 . S
H2333 C2356 0.950 . S
H2334 C2357 0.950 . S
H2335 C2359 0.950 . S
H2336 C2360 0.950 . S
H2337 C2361 0.951 . S
H2338 C2363 0.951 . S
H2339 C2365 0.950 . S
H2340 C2366 0.950 . S
H2341 C2368 0.950 . S
H2342 C2371 0.950 . S
H2343 C2372 0.950 . S
H2344 C2374 0.950 . S
H2345 C2375 0.950 . S
C2346 H2328 0.951 . S
C2346 C2347 1.366 . S
C2346 C2348 1.388 . S
C2347 C2346 1.366 . S
C2347 C2351 1.385 . S
C2348 H2329 0.951 . S
C2348 C2346 1.388 . S
C2348 C2349 1.366 . S
C2349 C2348 1.366 . S
C2349 C2350 1.414 . S
C2349 C2352 1.499 . S
C2350 H2330 0.950 . S
C2350 C2349 1.414 . S
C2350 C2351 1.374 . S
C2351 H2331 0.950 . S
C2351 C2347 1.385 . S
C2351 C2350 1.374 . S
C2352 C2349 1.499 . S
C2352 C2353 1.373 . S
C2352 C2354 1.389 . S
C2353 H2332 0.950 . S
C2353 C2352 1.373 . S
C2353 C2369 1.377 . S
C2354 C2352 1.389 . S
C2354 C2355 1.524 . S
C2354 C2368 1.377 . S
C2355 C2354 1.524 . S
C2355 C2356 1.397 . S
C2355 C2360 1.363 . S
C2356 H2333 0.950 . S
C2356 C2355 1.397 . S
C2356 C2357 1.334 . S
C2357 H2334 0.950 . S
C2357 C2356 1.334 . S
C2357 C2358 1.287 . S
C2358 C2357 1.287 . S
C2358 C2359 1.524 . S
C2358 H2377 0.913 . S
C2359 H2335 0.950 . S
C2359 C2358 1.524 . S
C2359 C2360 1.415 . S
C2360 H2336 0.950 . S
C2360 C2355 1.363 . S
C2360 C2359 1.415 . S
C2361 H2337 0.951 . S
C2361 C2362 1.366 . S
C2361 C2363 1.388 . S
C2362 C2361 1.366 . S
C2362 C2366 1.385 . S
C2363 H2338 0.951 . S
C2363 C2361 1.388 . S
C2363 C2364 1.366 . S
C2364 C2363 1.366 . S
C2364 C2365 1.414 . S
C2364 C2367 1.499 . S
C2365 H2339 0.950 . S
C2365 C2364 1.414 . S
C2365 C2366 1.374 . S
C2366 H2340 0.950 . S
C2366 C2362 1.385 . S
C2366 C2365 1.374 . S
C2367 C2364 1.499 . S
C2367 C2368 1.373 . S
C2367 C2369 1.389 . S
C2368 H2341 0.950 . S
C2368 C2354 1.377 . S
C2368 C2367 1.373 . S
C2369 C2353 1.377 . S
C2369 C2367 1.389 . S
C2369 C2370 1.524 . S
C2370 C2369 1.524 . S
C2370 C2371 1.397 . S
C2370 C2375 1.363 . S
C2371 H2342 0.950 . S
C2371 C2370 1.397 . S
C2371 C2372 1.334 . S
C2372 H2343 0.950 . S
C2372 C2371 1.334 . S
C2372 C2373 1.287 . S
C2373 C2372 1.287 . S
C2373 C2374 1.524 . S
C2373 H2376 0.999 . S
C2374 H2344 0.950 . S
C2374 C2373 1.524 . S
C2374 C2375 1.415 . S
C2375 H2345 0.950 . S
C2375 C2370 1.363 . S
C2375 C2374 1.415 . S
H2376 C2373 0.999 . S
H2377 C2358 0.913 . S
H2378 C2396 0.951 . S
H2379 C2398 0.951 . S
H2380 C2400 0.950 . S
H2381 C2401 0.950 . S
H2382 C2403 0.950 . S
H2383 C2406 0.950 . S
H2384 C2407 0.950 . S
H2385 C2409 0.950 . S
H2386 C2410 0.950 . S
H2387 C2411 0.951 . S
H2388 C2413 0.951 . S
H2389 C2415 0.950 . S
H2390 C2416 0.950 . S
H2391 C2418 0.950 . S
H2392 C2421 0.950 . S
H2393 C2422 0.950 . S
H2394 C2424 0.950 . S
H2395 C2425 0.950 . S
C2396 H2378 0.951 . S
C2396 C2397 1.366 . S
C2396 C2398 1.388 . S
C2397 C2396 1.366 . S
C2397 C2401 1.385 . S
C2398 H2379 0.951 . S
C2398 C2396 1.388 . S
C2398 C2399 1.366 . S
C2399 C2398 1.366 . S
C2399 C2400 1.414 . S
C2399 C2402 1.499 . S
C2400 H2380 0.950 . S
C2400 C2399 1.414 . S
C2400 C2401 1.374 . S
C2401 H2381 0.950 . S
C2401 C2397 1.385 . S
C2401 C2400 1.374 . S
C2402 C2399 1.499 . S
C2402 C2403 1.373 . S
C2402 C2404 1.389 . S
C2403 H2382 0.950 . S
C2403 C2402 1.373 . S
C2403 C2419 1.377 . S
C2404 C2402 1.389 . S
C2404 C2405 1.524 . S
C2404 C2418 1.377 . S
C2405 C2404 1.524 . S
C2405 C2406 1.397 . S
C2405 C2410 1.363 . S
C2406 H2383 0.950 . S
C2406 C2405 1.397 . S
C2406 C2407 1.334 . S
C2407 H2384 0.950 . S
C2407 C2406 1.334 . S
C2407 C2408 1.287 . S
C2408 C2407 1.287 . S
C2408 C2409 1.524 . S
C2408 H2427 0.913 . S
C2409 H2385 0.950 . S
C2409 C2408 1.524 . S
C2409 C2410 1.415 . S
C2410 H2386 0.950 . S
C2410 C2405 1.363 . S
C2410 C2409 1.415 . S
C2411 H2387 0.951 . S
C2411 C2412 1.366 . S
C2411 C2413 1.388 . S
C2412 C2411 1.366 . S
C2412 C2416 1.385 . S
C2413 H2388 0.951 . S
C2413 C2411 1.388 . S
C2413 C2414 1.366 . S
C2414 C2413 1.366 . S
C2414 C2415 1.414 . S
C2414 C2417 1.499 . S
C2415 H2389 0.950 . S
C2415 C2414 1.414 . S
C2415 C2416 1.374 . S
C2416 H2390 0.950 . S
C2416 C2412 1.385 . S
C2416 C2415 1.374 . S
C2417 C2414 1.499 . S
C2417 C2418 1.373 . S
C2417 C2419 1.389 . S
C2418 H2391 0.950 . S
C2418 C2404 1.377 . S
C2418 C2417 1.373 . S
C2419 C2403 1.377 . S
C2419 C2417 1.389 . S
C2419 C2420 1.524 . S
C2420 C2419 1.524 . S
C2420 C2421 1.397 . S
C2420 C2425 1.363 . S
C2421 H2392 0.950 . S
C2421 C2420 1.397 . S
C2421 C2422 1.334 . S
C2422 H2393 0.950 . S
C2422 C2421 1.334 . S
C2422 C2423 1.287 . S
C2423 C2422 1.287 . S
C2423 C2424 1.524 . S
C2423 H2426 0.999 . S
C2424 H2394 0.950 . S
C2424 C2423 1.524 . S
C2424 C2425 1.415 . S
C2425 H2395 0.950 . S
C2425 C2420 1.363 . S
C2425 C2424 1.415 . S
H2426 C2423 0.999 . S
H2427 C2408 0.913 . S
H2428 C2446 0.951 . S
H2429 C2448 0.951 . S
H2430 C2450 0.950 . S
H2431 C2451 0.950 . S
H2432 C2453 0.950 . S
H2433 C2456 0.950 . S
H2434 C2457 0.950 . S
H2435 C2459 0.950 . S
H2436 C2460 0.950 . S
H2437 C2461 0.951 . S
H2438 C2463 0.951 . S
H2439 C2465 0.950 . S
H2440 C2466 0.950 . S
H2441 C2468 0.950 1_565 S
H2442 C2471 0.950 . S
H2443 C2472 0.950 . S
H2444 C2474 0.950 . S
H2445 C2475 0.950 . S
C2446 H2428 0.951 . S
C2446 C2447 1.366 . S
C2446 C2448 1.388 . S
C2447 C2446 1.366 . S
C2447 C2451 1.385 . S
C2448 H2429 0.951 . S
C2448 C2446 1.388 . S
C2448 C2449 1.366 . S
C2449 C2448 1.366 . S
C2449 C2450 1.414 . S
C2449 C2452 1.499 . S
C2450 H2430 0.950 . S
C2450 C2449 1.414 . S
C2450 C2451 1.374 . S
C2451 H2431 0.950 . S
C2451 C2447 1.385 . S
C2451 C2450 1.374 . S
C2452 C2449 1.499 . S
C2452 C2453 1.373 . S
C2452 C2454 1.389 . S
C2453 H2432 0.950 . S
C2453 C2452 1.373 . S
C2453 C2469 1.377 . S
C2454 C2452 1.389 . S
C2454 C2455 1.524 1_545 S
C2454 C2468 1.377 . S
C2455 C2454 1.524 1_565 S
C2455 C2456 1.397 . S
C2455 C2460 1.363 . S
C2456 H2433 0.950 . S
C2456 C2455 1.397 . S
C2456 C2457 1.334 . S
C2457 H2434 0.950 . S
C2457 C2456 1.334 . S
C2457 C2458 1.287 . S
C2458 C2457 1.287 . S
C2458 C2459 1.524 . S
C2458 H2477 0.913 . S
C2459 H2435 0.950 . S
C2459 C2458 1.524 . S
C2459 C2460 1.415 . S
C2460 H2436 0.950 . S
C2460 C2455 1.363 . S
C2460 C2459 1.415 . S
C2461 H2437 0.951 . S
C2461 C2462 1.366 . S
C2461 C2463 1.388 . S
C2462 C2461 1.366 . S
C2462 C2466 1.385 . S
C2463 H2438 0.951 . S
C2463 C2461 1.388 . S
C2463 C2464 1.366 . S
C2464 C2463 1.366 . S
C2464 C2465 1.414 . S
C2464 C2467 1.499 . S
C2465 H2439 0.950 . S
C2465 C2464 1.414 . S
C2465 C2466 1.374 . S
C2466 H2440 0.950 . S
C2466 C2462 1.385 . S
C2466 C2465 1.374 . S
C2467 C2464 1.499 . S
C2467 C2468 1.373 . S
C2467 C2469 1.389 . S
C2468 H2441 0.950 1_545 S
C2468 C2454 1.377 . S
C2468 C2467 1.373 . S
C2469 C2453 1.377 . S
C2469 C2467 1.389 . S
C2469 C2470 1.524 . S
C2470 C2469 1.524 . S
C2470 C2471 1.397 . S
C2470 C2475 1.363 . S
C2471 H2442 0.950 . S
C2471 C2470 1.397 . S
C2471 C2472 1.334 . S
C2472 H2443 0.950 . S
C2472 C2471 1.334 . S
C2472 C2473 1.287 . S
C2473 C2472 1.287 . S
C2473 C2474 1.524 . S
C2473 H2476 0.999 . S
C2474 H2444 0.950 . S
C2474 C2473 1.524 . S
C2474 C2475 1.415 . S
C2475 H2445 0.950 . S
C2475 C2470 1.363 . S
C2475 C2474 1.415 . S
H2476 C2473 0.999 . S
H2477 C2458 0.913 . S
H2478 C2496 0.951 . S
H2479 C2498 0.951 . S
H2480 C2500 0.950 . S
H2481 C2501 0.950 . S
H2482 C2503 0.950 . S
H2483 C2506 0.950 . S
H2484 C2507 0.950 . S
H2485 C2509 0.950 . S
H2486 C2510 0.950 . S
H2487 C2511 0.951 . S
H2488 C2513 0.951 . S
H2489 C2515 0.950 . S
H2490 C2516 0.950 . S
H2491 C2518 0.950 . S
H2492 C2521 0.950 . S
H2493 C2522 0.950 . S
H2494 C2524 0.950 . S
H2495 C2525 0.950 . S
C2496 H2478 0.951 . S
C2496 C2497 1.366 . S
C2496 C2498 1.388 . S
C2497 C2496 1.366 . S
C2497 C2501 1.385 . S
C2498 H2479 0.951 . S
C2498 C2496 1.388 . S
C2498 C2499 1.366 . S
C2499 C2498 1.366 . S
C2499 C2500 1.414 . S
C2499 C2502 1.499 . S
C2500 H2480 0.950 . S
C2500 C2499 1.414 . S
C2500 C2501 1.374 . S
C2501 H2481 0.950 . S
C2501 C2497 1.385 . S
C2501 C2500 1.374 . S
C2502 C2499 1.499 . S
C2502 C2503 1.373 . S
C2502 C2504 1.389 . S
C2503 H2482 0.950 . S
C2503 C2502 1.373 . S
C2503 C2519 1.377 . S
C2504 C2502 1.389 . S
C2504 C2505 1.524 . S
C2504 C2518 1.377 . S
C2505 C2504 1.524 . S
C2505 C2506 1.397 . S
C2505 C2510 1.363 . S
C2506 H2483 0.950 . S
C2506 C2505 1.397 . S
C2506 C2507 1.334 . S
C2507 H2484 0.950 . S
C2507 C2506 1.334 . S
C2507 C2508 1.287 . S
C2508 C2507 1.287 . S
C2508 C2509 1.524 . S
C2508 H2527 0.913 . S
C2509 H2485 0.950 . S
C2509 C2508 1.524 . S
C2509 C2510 1.415 . S
C2510 H2486 0.950 . S
C2510 C2505 1.363 . S
C2510 C2509 1.415 . S
C2511 H2487 0.951 . S
C2511 C2512 1.366 . S
C2511 C2513 1.388 . S
C2512 C2511 1.366 . S
C2512 C2516 1.385 . S
C2513 H2488 0.951 . S
C2513 C2511 1.388 . S
C2513 C2514 1.366 . S
C2514 C2513 1.366 . S
C2514 C2515 1.414 . S
C2514 C2517 1.499 . S
C2515 H2489 0.950 . S
C2515 C2514 1.414 . S
C2515 C2516 1.374 . S
C2516 H2490 0.950 . S
C2516 C2512 1.385 . S
C2516 C2515 1.374 . S
C2517 C2514 1.499 . S
C2517 C2518 1.373 . S
C2517 C2519 1.389 . S
C2518 H2491 0.950 . S
C2518 C2504 1.377 . S
C2518 C2517 1.373 . S
C2519 C2503 1.377 . S
C2519 C2517 1.389 . S
C2519 C2520 1.524 . S
C2520 C2519 1.524 . S
C2520 C2521 1.397 . S
C2520 C2525 1.363 . S
C2521 H2492 0.950 . S
C2521 C2520 1.397 . S
C2521 C2522 1.334 . S
C2522 H2493 0.950 . S
C2522 C2521 1.334 . S
C2522 C2523 1.287 . S
C2523 C2522 1.287 . S
C2523 C2524 1.524 . S
C2523 H2526 0.999 . S
C2524 H2494 0.950 . S
C2524 C2523 1.524 . S
C2524 C2525 1.415 . S
C2525 H2495 0.950 . S
C2525 C2520 1.363 . S
C2525 C2524 1.415 . S
H2526 C2523 0.999 . S
H2527 C2508 0.913 . S
H2528 C2546 0.951 . S
H2529 C2548 0.951 . S
H2530 C2550 0.950 . S
H2531 C2551 0.950 . S
H2532 C2553 0.950 . S
H2533 C2556 0.950 . S
H2534 C2557 0.950 . S
H2535 C2559 0.950 . S
H2536 C2560 0.950 . S
H2537 C2561 0.951 . S
H2538 C2563 0.951 . S
H2539 C2565 0.950 . S
H2540 C2566 0.950 . S
H2541 C2568 0.950 . S
H2542 C2571 0.950 . S
H2543 C2572 0.950 1_565 S
H2544 C2574 0.950 . S
H2545 C2575 0.950 . S
C2546 H2528 0.951 . S
C2546 C2547 1.366 . S
C2546 C2548 1.388 . S
C2547 C2546 1.366 . S
C2547 C2551 1.385 . S
C2548 H2529 0.951 . S
C2548 C2546 1.388 . S
C2548 C2549 1.366 . S
C2549 C2548 1.366 . S
C2549 C2550 1.414 . S
C2549 C2552 1.499 . S
C2550 H2530 0.950 . S
C2550 C2549 1.414 . S
C2550 C2551 1.374 . S
C2551 H2531 0.950 . S
C2551 C2547 1.385 . S
C2551 C2550 1.374 . S
C2552 C2549 1.499 . S
C2552 C2553 1.373 . S
C2552 C2554 1.389 . S
C2553 H2532 0.950 . S
C2553 C2552 1.373 . S
C2553 C2569 1.377 . S
C2554 C2552 1.389 . S
C2554 C2555 1.524 . S
C2554 C2568 1.377 . S
C2555 C2554 1.524 . S
C2555 C2556 1.397 . S
C2555 C2560 1.363 . S
C2556 H2533 0.950 . S
C2556 C2555 1.397 . S
C2556 C2557 1.334 . S
C2557 H2534 0.950 . S
C2557 C2556 1.334 . S
C2557 C2558 1.287 . S
C2558 C2557 1.287 . S
C2558 C2559 1.524 . S
C2558 H2577 0.913 . S
C2559 H2535 0.950 . S
C2559 C2558 1.524 . S
C2559 C2560 1.415 . S
C2560 H2536 0.950 . S
C2560 C2555 1.363 . S
C2560 C2559 1.415 . S
C2561 H2537 0.951 . S
C2561 C2562 1.366 . S
C2561 C2563 1.388 . S
C2562 C2561 1.366 . S
C2562 C2566 1.385 . S
C2563 H2538 0.951 . S
C2563 C2561 1.388 . S
C2563 C2564 1.366 . S
C2564 C2563 1.366 . S
C2564 C2565 1.414 . S
C2564 C2567 1.499 . S
C2565 H2539 0.950 . S
C2565 C2564 1.414 . S
C2565 C2566 1.374 . S
C2566 H2540 0.950 . S
C2566 C2562 1.385 . S
C2566 C2565 1.374 . S
C2567 C2564 1.499 . S
C2567 C2568 1.373 . S
C2567 C2569 1.389 . S
C2568 H2541 0.950 . S
C2568 C2554 1.377 . S
C2568 C2567 1.373 . S
C2569 C2553 1.377 . S
C2569 C2567 1.389 . S
C2569 C2570 1.524 . S
C2570 C2569 1.524 . S
C2570 C2571 1.397 . S
C2570 C2575 1.363 . S
C2571 H2542 0.950 . S
C2571 C2570 1.397 . S
C2571 C2572 1.334 . S
C2572 H2543 0.950 1_545 S
C2572 C2571 1.334 . S
C2572 C2573 1.287 . S
C2573 C2572 1.287 . S
C2573 C2574 1.524 . S
C2573 H2576 0.999 1_545 S
C2574 H2544 0.950 . S
C2574 C2573 1.524 . S
C2574 C2575 1.415 . S
C2575 H2545 0.950 . S
C2575 C2570 1.363 . S
C2575 C2574 1.415 . S
H2576 C2573 0.999 1_565 S
H2577 C2558 0.913 . S
H2578 C2596 0.951 . S
H2579 C2598 0.951 . S
H2580 C2600 0.950 . S
H2581 C2601 0.950 . S
H2582 C2603 0.950 . S
H2583 C2606 0.950 . S
H2584 C2607 0.950 . S
H2585 C2609 0.950 . S
H2586 C2610 0.950 . S
H2587 C2611 0.951 . S
H2588 C2613 0.951 . S
H2589 C2615 0.950 . S
H2590 C2616 0.950 . S
H2591 C2618 0.950 . S
H2592 C2621 0.950 . S
H2593 C2622 0.950 . S
H2594 C2624 0.950 . S
H2595 C2625 0.950 . S
C2596 H2578 0.951 . S
C2596 C2597 1.366 . S
C2596 C2598 1.388 . S
C2597 C2596 1.366 . S
C2597 C2601 1.385 . S
C2598 H2579 0.951 . S
C2598 C2596 1.388 . S
C2598 C2599 1.366 . S
C2599 C2598 1.366 . S
C2599 C2600 1.414 . S
C2599 C2602 1.499 . S
C2600 H2580 0.950 . S
C2600 C2599 1.414 . S
C2600 C2601 1.374 . S
C2601 H2581 0.950 . S
C2601 C2597 1.385 . S
C2601 C2600 1.374 . S
C2602 C2599 1.499 . S
C2602 C2603 1.373 . S
C2602 C2604 1.389 . S
C2603 H2582 0.950 . S
C2603 C2602 1.373 . S
C2603 C2619 1.377 . S
C2604 C2602 1.389 . S
C2604 C2605 1.524 . S
C2604 C2618 1.377 . S
C2605 C2604 1.524 . S
C2605 C2606 1.397 . S
C2605 C2610 1.363 . S
C2606 H2583 0.950 . S
C2606 C2605 1.397 . S
C2606 C2607 1.334 . S
C2607 H2584 0.950 . S
C2607 C2606 1.334 . S
C2607 C2608 1.287 . S
C2608 C2607 1.287 . S
C2608 C2609 1.524 . S
C2608 H2627 0.913 . S
C2609 H2585 0.950 . S
C2609 C2608 1.524 . S
C2609 C2610 1.415 . S
C2610 H2586 0.950 . S
C2610 C2605 1.363 . S
C2610 C2609 1.415 . S
C2611 H2587 0.951 . S
C2611 C2612 1.366 . S
C2611 C2613 1.388 . S
C2612 C2611 1.366 . S
C2612 C2616 1.385 . S
C2613 H2588 0.951 . S
C2613 C2611 1.388 . S
C2613 C2614 1.366 . S
C2614 C2613 1.366 . S
C2614 C2615 1.414 . S
C2614 C2617 1.499 . S
C2615 H2589 0.950 . S
C2615 C2614 1.414 . S
C2615 C2616 1.374 . S
C2616 H2590 0.950 . S
C2616 C2612 1.385 . S
C2616 C2615 1.374 . S
C2617 C2614 1.499 . S
C2617 C2618 1.373 . S
C2617 C2619 1.389 . S
C2618 H2591 0.950 . S
C2618 C2604 1.377 . S
C2618 C2617 1.373 . S
C2619 C2603 1.377 . S
C2619 C2617 1.389 . S
C2619 C2620 1.524 . S
C2620 C2619 1.524 . S
C2620 C2621 1.397 . S
C2620 C2625 1.363 . S
C2621 H2592 0.950 . S
C2621 C2620 1.397 . S
C2621 C2622 1.334 . S
C2622 H2593 0.950 . S
C2622 C2621 1.334 . S
C2622 C2623 1.287 . S
C2623 C2622 1.287 . S
C2623 C2624 1.524 . S
C2623 H2626 0.999 . S
C2624 H2594 0.950 . S
C2624 C2623 1.524 . S
C2624 C2625 1.415 . S
C2625 H2595 0.950 . S
C2625 C2620 1.363 . S
C2625 C2624 1.415 . S
H2626 C2623 0.999 . S
H2627 C2608 0.913 . S
H2628 C2646 0.954 . S
H2629 C2648 0.951 . S
H2630 C2650 0.950 . S
H2631 C2651 0.950 . S
H2632 C2653 0.950 . S
H2633 C2656 0.950 . S
H2634 C2657 0.950 . S
H2635 C2659 0.950 . S
H2636 C2660 0.950 . S
H2637 C2661 0.951 . S
H2638 C2663 0.951 . S
H2639 C2665 0.950 . S
H2640 C2666 0.950 . S
H2641 C2668 0.950 . S
H2642 C2671 0.950 . S
H2643 C2672 0.950 . S
H2644 C2674 0.950 . S
H2645 C2675 0.950 . S
C2646 H2628 0.954 . S
C2646 C2647 1.366 . S
C2646 C2648 1.388 . S
C2647 C2646 1.366 . S
C2647 C2651 1.385 . S
C2648 H2629 0.951 . S
C2648 C2646 1.388 . S
C2648 C2649 1.366 . S
C2649 C2648 1.366 . S
C2649 C2650 1.414 . S
C2649 C2652 1.499 . S
C2650 H2630 0.950 . S
C2650 C2649 1.414 . S
C2650 C2651 1.374 . S
C2651 H2631 0.950 . S
C2651 C2647 1.385 . S
C2651 C2650 1.374 . S
C2652 C2649 1.499 . S
C2652 C2653 1.373 . S
C2652 C2654 1.389 . S
C2653 H2632 0.950 . S
C2653 C2652 1.373 . S
C2653 C2669 1.377 . S
C2654 C2652 1.389 . S
C2654 C2655 1.524 . S
C2654 C2668 1.377 . S
C2655 C2654 1.524 . S
C2655 C2656 1.397 . S
C2655 C2660 1.363 . S
C2656 H2633 0.950 . S
C2656 C2655 1.397 . S
C2656 C2657 1.334 . S
C2657 H2634 0.950 . S
C2657 C2656 1.334 . S
C2657 C2658 1.287 . S
C2658 C2657 1.287 . S
C2658 C2659 1.524 . S
C2658 H2677 0.913 . S
C2659 H2635 0.950 . S
C2659 C2658 1.524 . S
C2659 C2660 1.415 . S
C2660 H2636 0.950 . S
C2660 C2655 1.363 . S
C2660 C2659 1.415 . S
C2661 H2637 0.951 . S
C2661 C2662 1.366 . S
C2661 C2663 1.388 . S
C2662 C2661 1.366 . S
C2662 C2666 1.385 . S
C2663 H2638 0.951 . S
C2663 C2661 1.388 . S
C2663 C2664 1.366 . S
C2664 C2663 1.366 . S
C2664 C2665 1.414 . S
C2664 C2667 1.499 . S
C2665 H2639 0.950 . S
C2665 C2664 1.414 . S
C2665 C2666 1.374 . S
C2666 H2640 0.950 . S
C2666 C2662 1.385 . S
C2666 C2665 1.374 . S
C2667 C2664 1.499 . S
C2667 C2668 1.373 . S
C2667 C2669 1.389 . S
C2668 H2641 0.950 . S
C2668 C2654 1.377 . S
C2668 C2667 1.373 . S
C2669 C2653 1.377 . S
C2669 C2667 1.389 . S
C2669 C2670 1.524 . S
C2670 C2669 1.524 . S
C2670 C2671 1.397 1_565 S
C2670 C2675 1.363 . S
C2671 H2642 0.950 . S
C2671 C2670 1.397 1_545 S
C2671 C2672 1.334 . S
C2672 H2643 0.950 . S
C2672 C2671 1.334 . S
C2672 C2673 1.287 . S
C2673 C2672 1.287 . S
C2673 C2674 1.524 1_545 S
C2673 H2676 0.999 . S
C2674 H2644 0.950 . S
C2674 C2673 1.524 1_565 S
C2674 C2675 1.415 . S
C2675 H2645 0.950 . S
C2675 C2670 1.363 . S
C2675 C2674 1.415 . S
H2676 C2673 0.999 . S
H2677 C2658 0.913 . S
H2678 C2696 0.951 . S
H2679 C2698 0.951 . S
H2680 C2700 0.950 . S
H2681 C2701 0.950 . S
H2682 C2703 0.950 . S
H2683 C2706 0.950 . S
H2684 C2707 0.950 . S
H2685 C2709 0.950 . S
H2686 C2710 0.950 . S
H2687 C2711 0.951 . S
H2688 C2713 0.951 . S
H2689 C2715 0.950 . S
H2690 C2716 0.950 . S
H2691 C2718 0.950 . S
H2692 C2721 0.950 . S
H2693 C2722 0.950 . S
H2694 C2724 0.950 . S
H2695 C2725 0.950 . S
C2696 H2678 0.951 . S
C2696 C2697 1.366 . S
C2696 C2698 1.388 . S
C2697 C2696 1.366 . S
C2697 C2701 1.385 . S
C2698 H2679 0.951 . S
C2698 C2696 1.388 . S
C2698 C2699 1.366 . S
C2699 C2698 1.366 . S
C2699 C2700 1.414 . S
C2699 C2702 1.499 . S
C2700 H2680 0.950 . S
C2700 C2699 1.414 . S
C2700 C2701 1.374 . S
C2701 H2681 0.950 . S
C2701 C2697 1.385 . S
C2701 C2700 1.374 . S
C2702 C2699 1.499 . S
C2702 C2703 1.373 . S
C2702 C2704 1.389 . S
C2703 H2682 0.950 . S
C2703 C2702 1.373 . S
C2703 C2719 1.377 . S
C2704 C2702 1.389 . S
C2704 C2705 1.524 . S
C2704 C2718 1.377 . S
C2705 C2704 1.524 . S
C2705 C2706 1.397 . S
C2705 C2710 1.363 . S
C2706 H2683 0.950 . S
C2706 C2705 1.397 . S
C2706 C2707 1.334 . S
C2707 H2684 0.950 . S
C2707 C2706 1.334 . S
C2707 C2708 1.287 . S
C2708 C2707 1.287 . S
C2708 C2709 1.524 . S
C2708 H2727 0.913 . S
C2709 H2685 0.950 . S
C2709 C2708 1.524 . S
C2709 C2710 1.415 . S
C2710 H2686 0.950 . S
C2710 C2705 1.363 . S
C2710 C2709 1.415 . S
C2711 H2687 0.951 . S
C2711 C2712 1.366 . S
C2711 C2713 1.388 . S
C2712 C2711 1.366 . S
C2712 C2716 1.385 . S
C2713 H2688 0.951 . S
C2713 C2711 1.388 . S
C2713 C2714 1.366 . S
C2714 C2713 1.366 . S
C2714 C2715 1.414 . S
C2714 C2717 1.499 . S
C2715 H2689 0.950 . S
C2715 C2714 1.414 . S
C2715 C2716 1.374 . S
C2716 H2690 0.950 . S
C2716 C2712 1.385 . S
C2716 C2715 1.374 . S
C2717 C2714 1.499 . S
C2717 C2718 1.373 . S
C2717 C2719 1.389 . S
C2718 H2691 0.950 . S
C2718 C2704 1.377 . S
C2718 C2717 1.373 . S
C2719 C2703 1.377 . S
C2719 C2717 1.389 . S
C2719 C2720 1.524 . S
C2720 C2719 1.524 . S
C2720 C2721 1.397 . S
C2720 C2725 1.363 . S
C2721 H2692 0.950 . S
C2721 C2720 1.397 . S
C2721 C2722 1.334 . S
C2722 H2693 0.950 . S
C2722 C2721 1.334 . S
C2722 C2723 1.287 . S
C2723 C2722 1.287 . S
C2723 C2724 1.524 . S
C2723 H2726 0.999 . S
C2724 H2694 0.950 . S
C2724 C2723 1.524 . S
C2724 C2725 1.415 . S
C2725 H2695 0.950 . S
C2725 C2720 1.363 . S
C2725 C2724 1.415 . S
H2726 C2723 0.999 . S
H2727 C2708 0.913 . S
H2728 C2746 0.951 . S
H2729 C2748 0.951 . S
H2730 C2750 0.950 . S
H2731 C2751 0.950 . S
H2732 C2753 0.950 . S
H2733 C2756 0.950 . S
H2734 C2757 0.950 . S
H2735 C2759 0.950 . S
H2736 C2760 0.950 . S
H2737 C2761 0.951 . S
H2738 C2763 0.951 . S
H2739 C2765 0.950 . S
H2740 C2766 0.950 . S
H2741 C2768 0.950 . S
H2742 C2771 0.950 . S
H2743 C2772 0.950 . S
H2744 C2774 0.950 . S
H2745 C2775 0.950 . S
C2746 H2728 0.951 . S
C2746 C2747 1.366 . S
C2746 C2748 1.388 . S
C2747 C2746 1.366 . S
C2747 C2751 1.385 . S
C2748 H2729 0.951 . S
C2748 C2746 1.388 . S
C2748 C2749 1.366 . S
C2749 C2748 1.366 . S
C2749 C2750 1.414 . S
C2749 C2752 1.499 . S
C2750 H2730 0.950 . S
C2750 C2749 1.414 . S
C2750 C2751 1.374 . S
C2751 H2731 0.950 . S
C2751 C2747 1.385 . S
C2751 C2750 1.374 . S
C2752 C2749 1.499 . S
C2752 C2753 1.373 . S
C2752 C2754 1.389 . S
C2753 H2732 0.950 . S
C2753 C2752 1.373 . S
C2753 C2769 1.377 . S
C2754 C2752 1.389 . S
C2754 C2755 1.524 . S
C2754 C2768 1.377 . S
C2755 C2754 1.524 . S
C2755 C2756 1.397 . S
C2755 C2760 1.363 . S
C2756 H2733 0.950 . S
C2756 C2755 1.397 . S
C2756 C2757 1.334 . S
C2757 H2734 0.950 . S
C2757 C2756 1.334 . S
C2757 C2758 1.287 . S
C2758 C2757 1.287 . S
C2758 C2759 1.524 . S
C2758 H2777 0.913 . S
C2759 H2735 0.950 . S
C2759 C2758 1.524 . S
C2759 C2760 1.415 . S
C2760 H2736 0.950 . S
C2760 C2755 1.363 . S
C2760 C2759 1.415 . S
C2761 H2737 0.951 . S
C2761 C2762 1.366 . S
C2761 C2763 1.388 . S
C2762 C2761 1.366 . S
C2762 C2766 1.385 . S
C2763 H2738 0.951 . S
C2763 C2761 1.388 . S
C2763 C2764 1.366 . S
C2764 C2763 1.366 . S
C2764 C2765 1.414 . S
C2764 C2767 1.499 . S
C2765 H2739 0.950 . S
C2765 C2764 1.414 . S
C2765 C2766 1.374 . S
C2766 H2740 0.950 . S
C2766 C2762 1.385 . S
C2766 C2765 1.374 . S
C2767 C2764 1.499 . S
C2767 C2768 1.373 . S
C2767 C2769 1.389 . S
C2768 H2741 0.950 . S
C2768 C2754 1.377 . S
C2768 C2767 1.373 . S
C2769 C2753 1.377 . S
C2769 C2767 1.389 . S
C2769 C2770 1.524 . S
C2770 C2769 1.524 . S
C2770 C2771 1.397 . S
C2770 C2775 1.363 . S
C2771 H2742 0.950 . S
C2771 C2770 1.397 . S
C2771 C2772 1.334 . S
C2772 H2743 0.950 . S
C2772 C2771 1.334 . S
C2772 C2773 1.287 . S
C2773 C2772 1.287 . S
C2773 C2774 1.524 . S
C2773 H2776 0.999 . S
C2774 H2744 0.950 . S
C2774 C2773 1.524 . S
C2774 C2775 1.415 . S
C2775 H2745 0.950 . S
C2775 C2770 1.363 . S
C2775 C2774 1.415 . S
H2776 C2773 0.999 . S
H2777 C2758 0.913 . S
H2778 C2796 0.951 . S
H2779 C2798 0.951 . S
H2780 C2800 0.950 . S
H2781 C2801 0.950 . S
H2782 C2803 0.950 . S
H2783 C2806 0.950 . S
H2784 C2807 0.950 . S
H2785 C2809 0.950 . S
H2786 C2810 0.950 . S
H2787 C2811 0.951 . S
H2788 C2813 0.951 . S
H2789 C2815 0.950 . S
H2790 C2816 0.950 . S
H2791 C2818 0.950 . S
H2792 C2821 0.950 . S
H2793 C2822 0.950 . S
H2794 C2824 0.950 . S
H2795 C2825 0.950 . S
C2796 H2778 0.951 . S
C2796 C2797 1.366 . S
C2796 C2798 1.388 . S
C2797 C2796 1.366 . S
C2797 C2801 1.385 . S
C2798 H2779 0.951 . S
C2798 C2796 1.388 . S
C2798 C2799 1.366 . S
C2799 C2798 1.366 . S
C2799 C2800 1.414 . S
C2799 C2802 1.499 . S
C2800 H2780 0.950 . S
C2800 C2799 1.414 . S
C2800 C2801 1.374 . S
C2801 H2781 0.950 . S
C2801 C2797 1.385 . S
C2801 C2800 1.374 . S
C2802 C2799 1.499 . S
C2802 C2803 1.373 . S
C2802 C2804 1.389 . S
C2803 H2782 0.950 . S
C2803 C2802 1.373 . S
C2803 C2819 1.377 . S
C2804 C2802 1.389 . S
C2804 C2805 1.524 . S
C2804 C2818 1.377 . S
C2805 C2804 1.524 . S
C2805 C2806 1.397 . S
C2805 C2810 1.363 . S
C2806 H2783 0.950 . S
C2806 C2805 1.397 . S
C2806 C2807 1.334 . S
C2807 H2784 0.950 . S
C2807 C2806 1.334 . S
C2807 C2808 1.287 . S
C2808 C2807 1.287 . S
C2808 C2809 1.524 . S
C2808 H2827 0.913 . S
C2809 H2785 0.950 . S
C2809 C2808 1.524 . S
C2809 C2810 1.415 . S
C2810 H2786 0.950 . S
C2810 C2805 1.363 . S
C2810 C2809 1.415 . S
C2811 H2787 0.951 . S
C2811 C2812 1.366 . S
C2811 C2813 1.388 . S
C2812 C2811 1.366 . S
C2812 C2816 1.385 . S
C2813 H2788 0.951 . S
C2813 C2811 1.388 . S
C2813 C2814 1.366 . S
C2814 C2813 1.366 . S
C2814 C2815 1.414 . S
C2814 C2817 1.499 . S
C2815 H2789 0.950 . S
C2815 C2814 1.414 . S
C2815 C2816 1.374 . S
C2816 H2790 0.950 . S
C2816 C2812 1.385 . S
C2816 C2815 1.374 . S
C2817 C2814 1.499 . S
C2817 C2818 1.373 . S
C2817 C2819 1.389 . S
C2818 H2791 0.950 . S
C2818 C2804 1.377 . S
C2818 C2817 1.373 . S
C2819 C2803 1.377 . S
C2819 C2817 1.389 . S
C2819 C2820 1.524 . S
C2820 C2819 1.524 . S
C2820 C2821 1.397 . S
C2820 C2825 1.363 . S
C2821 H2792 0.950 . S
C2821 C2820 1.397 . S
C2821 C2822 1.334 . S
C2822 H2793 0.950 . S
C2822 C2821 1.334 . S
C2822 C2823 1.287 . S
C2823 C2822 1.287 . S
C2823 C2824 1.524 . S
C2823 H2826 0.999 . S
C2824 H2794 0.950 . S
C2824 C2823 1.524 . S
C2824 C2825 1.415 . S
C2825 H2795 0.950 . S
C2825 C2820 1.363 . S
C2825 C2824 1.415 . S
H2826 C2823 0.999 . S
H2827 C2808 0.913 . S
H2828 C2846 0.951 . S
H2829 C2848 0.951 . S
H2830 C2850 0.950 . S
H2831 C2851 0.950 . S
H2832 C2853 0.950 . S
H2833 C2856 0.950 . S
H2834 C2857 0.950 . S
H2835 C2859 0.950 . S
H2836 C2860 0.950 . S
H2837 C2861 0.951 . S
H2838 C2863 0.953 . S
H2839 C2865 0.950 . S
H2840 C2866 0.950 . S
H2841 C2868 0.950 . S
H2842 C2871 0.950 1_455 S
H2843 C2872 0.950 . S
H2844 C2874 0.950 . S
H2845 C2875 0.950 . S
C2846 H2828 0.951 . S
C2846 C2847 1.366 . S
C2846 C2848 1.388 . S
C2847 C2846 1.366 . S
C2847 C2851 1.385 . S
C2848 H2829 0.951 . S
C2848 C2846 1.388 . S
C2848 C2849 1.366 . S
C2849 C2848 1.366 . S
C2849 C2850 1.414 . S
C2849 C2852 1.499 . S
C2850 H2830 0.950 . S
C2850 C2849 1.414 . S
C2850 C2851 1.374 . S
C2851 H2831 0.950 . S
C2851 C2847 1.385 . S
C2851 C2850 1.374 . S
C2852 C2849 1.499 . S
C2852 C2853 1.373 . S
C2852 C2854 1.389 . S
C2853 H2832 0.950 . S
C2853 C2852 1.373 . S
C2853 C2869 1.377 . S
C2854 C2852 1.389 . S
C2854 C2855 1.524 . S
C2854 C2868 1.377 . S
C2855 C2854 1.524 . S
C2855 C2856 1.397 . S
C2855 C2860 1.363 . S
C2856 H2833 0.950 . S
C2856 C2855 1.397 . S
C2856 C2857 1.334 . S
C2857 H2834 0.950 . S
C2857 C2856 1.334 . S
C2857 C2858 1.287 . S
C2858 C2857 1.287 . S
C2858 C2859 1.524 . S
C2858 H2877 0.913 . S
C2859 H2835 0.950 . S
C2859 C2858 1.524 . S
C2859 C2860 1.415 . S
C2860 H2836 0.950 . S
C2860 C2855 1.363 . S
C2860 C2859 1.415 . S
C2861 H2837 0.951 . S
C2861 C2862 1.366 1_655 S
C2861 C2863 1.389 . S
C2862 C2861 1.366 1_455 S
C2862 C2866 1.385 . S
C2863 H2838 0.953 . S
C2863 C2861 1.389 . S
C2863 C2864 1.363 1_655 S
C2864 C2863 1.363 1_455 S
C2864 C2865 1.414 . S
C2864 C2867 1.499 . S
C2865 H2839 0.950 . S
C2865 C2864 1.414 . S
C2865 C2866 1.374 . S
C2866 H2840 0.950 . S
C2866 C2862 1.385 . S
C2866 C2865 1.374 . S
C2867 C2864 1.499 . S
C2867 C2868 1.373 . S
C2867 C2869 1.389 . S
C2868 H2841 0.950 . S
C2868 C2854 1.377 . S
C2868 C2867 1.373 . S
C2869 C2853 1.377 . S
C2869 C2867 1.389 . S
C2869 C2870 1.524 1_455 S
C2870 C2869 1.524 1_655 S
C2870 C2871 1.397 . S
C2870 C2875 1.363 . S
C2871 H2842 0.950 1_655 S
C2871 C2870 1.397 . S
C2871 C2872 1.334 . S
C2872 H2843 0.950 . S
C2872 C2871 1.334 . S
C2872 C2873 1.287 . S
C2873 C2872 1.287 . S
C2873 C2874 1.524 . S
C2873 H2876 0.999 . S
C2874 H2844 0.950 . S
C2874 C2873 1.524 . S
C2874 C2875 1.415 . S
C2875 H2845 0.950 . S
C2875 C2870 1.363 . S
C2875 C2874 1.415 . S
H2876 C2873 0.999 . S
H2877 C2858 0.913 . S
H2878 C2896 0.951 . S
H2879 C2898 0.951 . S
H2880 C2900 0.930 1_655 S
H2881 C2901 0.950 . S
H2882 C2903 0.950 . S
H2883 C2906 0.950 . S
H2884 C2907 0.950 . S
H2885 C2909 0.950 . S
H2886 C2910 0.950 . S
H2887 C2911 0.951 . S
H2888 C2913 0.951 . S
H2889 C2915 0.950 . S
H2890 C2916 0.950 . S
H2891 C2918 0.950 . S
H2892 C2921 0.950 . S
H2893 C2922 0.950 . S
H2894 C2924 0.950 . S
H2895 C2925 0.950 . S
C2896 H2878 0.951 . S
C2896 C2897 1.366 . S
C2896 C2898 1.388 . S
C2897 C2896 1.366 . S
C2897 C2901 1.385 1_455 S
C2898 H2879 0.951 . S
C2898 C2896 1.388 . S
C2898 C2899 1.366 . S
C2899 C2898 1.366 . S
C2899 C2900 1.414 . S
C2899 C2902 1.499 . S
C2900 H2880 0.930 1_455 S
C2900 C2899 1.414 . S
C2900 C2901 1.374 1_455 S
C2901 H2881 0.950 . S
C2901 C2897 1.385 1_655 S
C2901 C2900 1.374 1_655 S
C2902 C2899 1.499 . S
C2902 C2903 1.373 . S
C2902 C2904 1.389 . S
C2903 H2882 0.950 . S
C2903 C2902 1.373 . S
C2903 C2919 1.377 . S
C2904 C2902 1.389 . S
C2904 C2905 1.524 . S
C2904 C2918 1.377 . S
C2905 C2904 1.524 . S
C2905 C2906 1.397 1_455 S
C2905 C2910 1.363 . S
C2906 H2883 0.950 . S
C2906 C2905 1.397 1_655 S
C2906 C2907 1.334 . S
C2907 H2884 0.950 . S
C2907 C2906 1.334 . S
C2907 C2908 1.287 . S
C2908 C2907 1.287 . S
C2908 C2909 1.524 1_655 S
C2908 H2927 0.913 . S
C2909 H2885 0.950 . S
C2909 C2908 1.524 1_455 S
C2909 C2910 1.415 . S
C2910 H2886 0.950 . S
C2910 C2905 1.363 . S
C2910 C2909 1.415 . S
C2911 H2887 0.951 . S
C2911 C2912 1.366 . S
C2911 C2913 1.388 . S
C2912 C2911 1.366 . S
C2912 C2916 1.385 . S
C2913 H2888 0.951 . S
C2913 C2911 1.388 . S
C2913 C2914 1.366 . S
C2914 C2913 1.366 . S
C2914 C2915 1.414 . S
C2914 C2917 1.499 . S
C2915 H2889 0.950 . S
C2915 C2914 1.414 . S
C2915 C2916 1.374 . S
C2916 H2890 0.950 . S
C2916 C2912 1.385 . S
C2916 C2915 1.374 . S
C2917 C2914 1.499 . S
C2917 C2918 1.373 . S
C2917 C2919 1.389 . S
C2918 H2891 0.950 . S
C2918 C2904 1.377 . S
C2918 C2917 1.373 . S
C2919 C2903 1.377 . S
C2919 C2917 1.389 . S
C2919 C2920 1.524 . S
C2920 C2919 1.524 . S
C2920 C2921 1.397 . S
C2920 C2925 1.363 . S
C2921 H2892 0.950 . S
C2921 C2920 1.397 . S
C2921 C2922 1.334 . S
C2922 H2893 0.950 . S
C2922 C2921 1.334 . S
C2922 C2923 1.287 . S
C2923 C2922 1.287 . S
C2923 C2924 1.524 . S
C2923 H2926 0.999 . S
C2924 H2894 0.950 . S
C2924 C2923 1.524 . S
C2924 C2925 1.415 . S
C2925 H2895 0.950 . S
C2925 C2920 1.363 . S
C2925 C2924 1.415 . S
H2926 C2923 0.999 . S
H2927 C2908 0.913 . S
H2928 C2946 0.951 . S
H2929 C2948 0.951 . S
H2930 C2950 0.950 . S
H2931 C2951 0.950 . S
H2932 C2953 0.950 . S
H2933 C2956 0.950 . S
H2934 C2957 0.950 . S
H2935 C2959 0.950 . S
H2936 C2960 0.950 . S
H2937 C2961 0.951 . S
H2938 C2963 0.951 . S
H2939 C2965 0.950 . S
H2940 C2966 0.950 . S
H2941 C2968 0.950 . S
H2942 C2971 0.950 . S
H2943 C2972 0.950 . S
H2944 C2974 0.950 . S
H2945 C2975 0.950 . S
C2946 H2928 0.951 . S
C2946 C2947 1.366 . S
C2946 C2948 1.388 . S
C2947 C2946 1.366 . S
C2947 C2951 1.385 . S
C2948 H2929 0.951 . S
C2948 C2946 1.388 . S
C2948 C2949 1.366 . S
C2949 C2948 1.366 . S
C2949 C2950 1.414 . S
C2949 C2952 1.499 . S
C2950 H2930 0.950 . S
C2950 C2949 1.414 . S
C2950 C2951 1.374 . S
C2951 H2931 0.950 . S
C2951 C2947 1.385 . S
C2951 C2950 1.374 . S
C2952 C2949 1.499 . S
C2952 C2953 1.373 . S
C2952 C2954 1.389 . S
C2953 H2932 0.950 . S
C2953 C2952 1.373 . S
C2953 C2969 1.377 . S
C2954 C2952 1.389 . S
C2954 C2955 1.524 . S
C2954 C2968 1.377 . S
C2955 C2954 1.524 . S
C2955 C2956 1.397 . S
C2955 C2960 1.363 . S
C2956 H2933 0.950 . S
C2956 C2955 1.397 . S
C2956 C2957 1.334 . S
C2957 H2934 0.950 . S
C2957 C2956 1.334 . S
C2957 C2958 1.287 . S
C2958 C2957 1.287 . S
C2958 C2959 1.524 . S
C2958 H2977 0.913 . S
C2959 H2935 0.950 . S
C2959 C2958 1.524 . S
C2959 C2960 1.415 . S
C2960 H2936 0.950 . S
C2960 C2955 1.363 . S
C2960 C2959 1.415 . S
C2961 H2937 0.951 . S
C2961 C2962 1.366 . S
C2961 C2963 1.388 . S
C2962 C2961 1.366 . S
C2962 C2966 1.385 . S
C2963 H2938 0.951 . S
C2963 C2961 1.388 . S
C2963 C2964 1.366 . S
C2964 C2963 1.366 . S
C2964 C2965 1.414 . S
C2964 C2967 1.499 . S
C2965 H2939 0.950 . S
C2965 C2964 1.414 . S
C2965 C2966 1.374 . S
C2966 H2940 0.950 . S
C2966 C2962 1.385 . S
C2966 C2965 1.374 . S
C2967 C2964 1.499 . S
C2967 C2968 1.373 . S
C2967 C2969 1.389 . S
C2968 H2941 0.950 . S
C2968 C2954 1.377 . S
C2968 C2967 1.373 . S
C2969 C2953 1.377 . S
C2969 C2967 1.389 . S
C2969 C2970 1.524 . S
C2970 C2969 1.524 . S
C2970 C2971 1.397 . S
C2970 C2975 1.363 . S
C2971 H2942 0.950 . S
C2971 C2970 1.397 . S
C2971 C2972 1.334 . S
C2972 H2943 0.950 . S
C2972 C2971 1.334 . S
C2972 C2973 1.287 . S
C2973 C2972 1.287 . S
C2973 C2974 1.524 . S
C2973 H2976 0.999 . S
C2974 H2944 0.950 . S
C2974 C2973 1.524 . S
C2974 C2975 1.415 . S
C2975 H2945 0.950 . S
C2975 C2970 1.363 . S
C2975 C2974 1.415 . S
H2976 C2973 0.999 . S
H2977 C2958 0.913 . S
H2978 C2996 0.951 . S
H2979 C2998 0.951 . S
H2980 C3000 0.950 . S
H2981 C3001 0.950 . S
H2982 C3003 0.950 . S
H2983 C3006 0.950 . S
H2984 C3007 0.950 . S
H2985 C3009 0.950 . S
H2986 C3010 0.950 . S
H2987 C3011 0.951 . S
H2988 C3013 0.951 . S
H2989 C3015 0.950 . S
H2990 C3016 0.950 . S
H2991 C3018 0.950 . S
H2992 C3021 0.950 . S
H2993 C3022 0.950 . S
H2994 C3024 0.950 . S
H2995 C3025 0.950 . S
C2996 H2978 0.951 . S
C2996 C2997 1.366 . S
C2996 C2998 1.388 . S
C2997 C2996 1.366 . S
C2997 C3001 1.385 . S
C2998 H2979 0.951 . S
C2998 C2996 1.388 . S
C2998 C2999 1.366 . S
C2999 C2998 1.366 . S
C2999 C3000 1.414 . S
C2999 C3002 1.499 . S
C3000 H2980 0.950 . S
C3000 C2999 1.414 . S
C3000 C3001 1.374 . S
C3001 H2981 0.950 . S
C3001 C2997 1.385 . S
C3001 C3000 1.374 . S
C3002 C2999 1.499 . S
C3002 C3003 1.373 . S
C3002 C3004 1.389 . S
C3003 H2982 0.950 . S
C3003 C3002 1.373 . S
C3003 C3019 1.377 . S
C3004 C3002 1.389 . S
C3004 C3005 1.524 . S
C3004 C3018 1.377 . S
C3005 C3004 1.524 . S
C3005 C3006 1.397 . S
C3005 C3010 1.363 . S
C3006 H2983 0.950 . S
C3006 C3005 1.397 . S
C3006 C3007 1.334 . S
C3007 H2984 0.950 . S
C3007 C3006 1.334 . S
C3007 C3008 1.287 . S
C3008 C3007 1.287 . S
C3008 C3009 1.524 . S
C3008 H3027 0.913 . S
C3009 H2985 0.950 . S
C3009 C3008 1.524 . S
C3009 C3010 1.415 . S
C3010 H2986 0.950 . S
C3010 C3005 1.363 . S
C3010 C3009 1.415 . S
C3011 H2987 0.951 . S
C3011 C3012 1.366 . S
C3011 C3013 1.388 . S
C3012 C3011 1.366 . S
C3012 C3016 1.385 . S
C3013 H2988 0.951 . S
C3013 C3011 1.388 . S
C3013 C3014 1.366 . S
C3014 C3013 1.366 . S
C3014 C3015 1.414 . S
C3014 C3017 1.499 . S
C3015 H2989 0.950 . S
C3015 C3014 1.414 . S
C3015 C3016 1.374 . S
C3016 H2990 0.950 . S
C3016 C3012 1.385 . S
C3016 C3015 1.374 . S
C3017 C3014 1.499 . S
C3017 C3018 1.373 . S
C3017 C3019 1.389 . S
C3018 H2991 0.950 . S
C3018 C3004 1.377 . S
C3018 C3017 1.373 . S
C3019 C3003 1.377 . S
C3019 C3017 1.389 . S
C3019 C3020 1.524 . S
C3020 C3019 1.524 . S
C3020 C3021 1.397 . S
C3020 C3025 1.363 . S
C3021 H2992 0.950 . S
C3021 C3020 1.397 . S
C3021 C3022 1.334 . S
C3022 H2993 0.950 . S
C3022 C3021 1.334 . S
C3022 C3023 1.287 . S
C3023 C3022 1.287 . S
C3023 C3024 1.524 . S
C3023 H3026 0.999 . S
C3024 H2994 0.950 . S
C3024 C3023 1.524 . S
C3024 C3025 1.415 . S
C3025 H2995 0.950 . S
C3025 C3020 1.363 . S
C3025 C3024 1.415 . S
H3026 C3023 0.999 . S
H3027 C3008 0.913 . S
H3028 C3046 0.951 . S
H3029 C3048 0.951 . S
H3030 C3050 0.950 . S
H3031 C3051 0.950 . S
H3032 C3053 0.950 . S
H3033 C3056 0.950 . S
H3034 C3057 0.950 . S
H3035 C3059 0.950 . S
H3036 C3060 0.950 . S
H3037 C3061 0.951 . S
H3038 C3063 0.951 . S
H3039 C3065 0.950 . S
H3040 C3066 0.950 . S
H3041 C3068 0.950 . S
H3042 C3071 0.950 . S
H3043 C3072 0.950 . S
H3044 C3074 0.950 . S
H3045 C3075 0.950 . S
C3046 H3028 0.951 . S
C3046 C3047 1.366 . S
C3046 C3048 1.388 . S
C3047 C3046 1.366 . S
C3047 C3051 1.385 . S
C3048 H3029 0.951 . S
C3048 C3046 1.388 . S
C3048 C3049 1.366 . S
C3049 C3048 1.366 . S
C3049 C3050 1.414 . S
C3049 C3052 1.499 . S
C3050 H3030 0.950 . S
C3050 C3049 1.414 . S
C3050 C3051 1.374 . S
C3051 H3031 0.950 . S
C3051 C3047 1.385 . S
C3051 C3050 1.374 . S
C3052 C3049 1.499 . S
C3052 C3053 1.373 . S
C3052 C3054 1.389 . S
C3053 H3032 0.950 . S
C3053 C3052 1.373 . S
C3053 C3069 1.377 . S
C3054 C3052 1.389 . S
C3054 C3055 1.524 . S
C3054 C3068 1.377 . S
C3055 C3054 1.524 . S
C3055 C3056 1.397 . S
C3055 C3060 1.363 . S
C3056 H3033 0.950 . S
C3056 C3055 1.397 . S
C3056 C3057 1.334 . S
C3057 H3034 0.950 . S
C3057 C3056 1.334 . S
C3057 C3058 1.287 . S
C3058 C3057 1.287 . S
C3058 C3059 1.524 . S
C3058 H3077 0.913 . S
C3059 H3035 0.950 . S
C3059 C3058 1.524 . S
C3059 C3060 1.415 . S
C3060 H3036 0.950 . S
C3060 C3055 1.363 . S
C3060 C3059 1.415 . S
C3061 H3037 0.951 . S
C3061 C3062 1.366 . S
C3061 C3063 1.388 . S
C3062 C3061 1.366 . S
C3062 C3066 1.385 . S
C3063 H3038 0.951 . S
C3063 C3061 1.388 . S
C3063 C3064 1.366 . S
C3064 C3063 1.366 . S
C3064 C3065 1.414 . S
C3064 C3067 1.499 . S
C3065 H3039 0.950 . S
C3065 C3064 1.414 . S
C3065 C3066 1.374 . S
C3066 H3040 0.950 . S
C3066 C3062 1.385 . S
C3066 C3065 1.374 . S
C3067 C3064 1.499 . S
C3067 C3068 1.373 . S
C3067 C3069 1.389 . S
C3068 H3041 0.950 . S
C3068 C3054 1.377 . S
C3068 C3067 1.373 . S
C3069 C3053 1.377 . S
C3069 C3067 1.389 . S
C3069 C3070 1.524 . S
C3070 C3069 1.524 . S
C3070 C3071 1.397 . S
C3070 C3075 1.363 . S
C3071 H3042 0.950 . S
C3071 C3070 1.397 . S
C3071 C3072 1.334 . S
C3072 H3043 0.950 . S
C3072 C3071 1.334 . S
C3072 C3073 1.287 . S
C3073 C3072 1.287 . S
C3073 C3074 1.524 . S
C3073 H3076 0.999 . S
C3074 H3044 0.950 . S
C3074 C3073 1.524 . S
C3074 C3075 1.415 . S
C3075 H3045 0.950 . S
C3075 C3070 1.363 . S
C3075 C3074 1.415 . S
H3076 C3073 0.999 . S
H3077 C3058 0.913 . S
H3078 C3096 0.951 . S
H3079 C3098 0.951 . S
H3080 C3100 0.950 . S
H3081 C3101 0.950 . S
H3082 C3103 0.950 . S
H3083 C3106 0.950 . S
H3084 C3107 0.950 . S
H3085 C3109 0.950 . S
H3086 C3110 0.950 . S
H3087 C3111 0.951 . S
H3088 C3113 0.951 . S
H3089 C3115 0.950 . S
H3090 C3116 0.950 . S
H3091 C3118 0.950 . S
H3092 C3121 0.950 . S
H3093 C3122 0.950 . S
H3094 C3124 0.950 . S
H3095 C3125 0.950 . S
C3096 H3078 0.951 . S
C3096 C3097 1.366 . S
C3096 C3098 1.388 . S
C3097 C3096 1.366 . S
C3097 C3101 1.385 . S
C3098 H3079 0.951 . S
C3098 C3096 1.388 . S
C3098 C3099 1.366 . S
C3099 C3098 1.366 . S
C3099 C3100 1.414 . S
C3099 C3102 1.499 . S
C3100 H3080 0.950 . S
C3100 C3099 1.414 . S
C3100 C3101 1.374 . S
C3101 H3081 0.950 . S
C3101 C3097 1.385 . S
C3101 C3100 1.374 . S
C3102 C3099 1.499 . S
C3102 C3103 1.373 . S
C3102 C3104 1.389 . S
C3103 H3082 0.950 . S
C3103 C3102 1.373 . S
C3103 C3119 1.377 . S
C3104 C3102 1.389 . S
C3104 C3105 1.524 . S
C3104 C3118 1.377 . S
C3105 C3104 1.524 . S
C3105 C3106 1.397 . S
C3105 C3110 1.363 . S
C3106 H3083 0.950 . S
C3106 C3105 1.397 . S
C3106 C3107 1.334 . S
C3107 H3084 0.950 . S
C3107 C3106 1.334 . S
C3107 C3108 1.287 . S
C3108 C3107 1.287 . S
C3108 C3109 1.524 . S
C3108 H3127 0.913 . S
C3109 H3085 0.950 . S
C3109 C3108 1.524 . S
C3109 C3110 1.415 . S
C3110 H3086 0.950 . S
C3110 C3105 1.363 . S
C3110 C3109 1.415 . S
C3111 H3087 0.951 . S
C3111 C3112 1.366 . S
C3111 C3113 1.388 . S
C3112 C3111 1.366 . S
C3112 C3116 1.385 . S
C3113 H3088 0.951 . S
C3113 C3111 1.388 . S
C3113 C3114 1.366 . S
C3114 C3113 1.366 . S
C3114 C3115 1.414 . S
C3114 C3117 1.499 . S
C3115 H3089 0.950 . S
C3115 C3114 1.414 . S
C3115 C3116 1.374 . S
C3116 H3090 0.950 . S
C3116 C3112 1.385 . S
C3116 C3115 1.374 . S
C3117 C3114 1.499 . S
C3117 C3118 1.373 . S
C3117 C3119 1.389 . S
C3118 H3091 0.950 . S
C3118 C3104 1.377 . S
C3118 C3117 1.373 . S
C3119 C3103 1.377 . S
C3119 C3117 1.389 . S
C3119 C3120 1.524 . S
C3120 C3119 1.524 . S
C3120 C3121 1.397 . S
C3120 C3125 1.363 . S
C3121 H3092 0.950 . S
C3121 C3120 1.397 . S
C3121 C3122 1.334 . S
C3122 H3093 0.950 . S
C3122 C3121 1.334 . S
C3122 C3123 1.287 . S
C3123 C3122 1.287 . S
C3123 C3124 1.524 . S
C3123 H3126 0.999 . S
C3124 H3094 0.950 . S
C3124 C3123 1.524 . S
C3124 C3125 1.415 . S
C3125 H3095 0.950 . S
C3125 C3120 1.363 . S
C3125 C3124 1.415 . S
H3126 C3123 0.999 . S
H3127 C3108 0.913 . S
H3128 C3146 0.951 . S
H3129 C3148 0.951 . S
H3130 C3150 0.950 . S
H3131 C3151 0.950 . S
H3132 C3153 0.950 . S
H3133 C3156 0.950 . S
H3134 C3157 0.950 . S
H3135 C3159 0.950 . S
H3136 C3160 0.950 . S
H3137 C3161 0.951 . S
H3138 C3163 0.951 . S
H3139 C3165 0.950 . S
H3140 C3166 0.950 . S
H3141 C3168 0.950 . S
H3142 C3171 0.950 . S
H3143 C3172 0.950 . S
H3144 C3174 0.950 . S
H3145 C3175 0.950 . S
C3146 H3128 0.951 . S
C3146 C3147 1.366 . S
C3146 C3148 1.388 . S
C3147 C3146 1.366 . S
C3147 C3151 1.385 . S
C3148 H3129 0.951 . S
C3148 C3146 1.388 . S
C3148 C3149 1.366 . S
C3149 C3148 1.366 . S
C3149 C3150 1.414 . S
C3149 C3152 1.499 . S
C3150 H3130 0.950 . S
C3150 C3149 1.414 . S
C3150 C3151 1.374 . S
C3151 H3131 0.950 . S
C3151 C3147 1.385 . S
C3151 C3150 1.374 . S
C3152 C3149 1.499 . S
C3152 C3153 1.373 . S
C3152 C3154 1.389 . S
C3153 H3132 0.950 . S
C3153 C3152 1.373 . S
C3153 C3169 1.377 . S
C3154 C3152 1.389 . S
C3154 C3155 1.524 . S
C3154 C3168 1.377 . S
C3155 C3154 1.524 . S
C3155 C3156 1.397 . S
C3155 C3160 1.363 . S
C3156 H3133 0.950 . S
C3156 C3155 1.397 . S
C3156 C3157 1.334 . S
C3157 H3134 0.950 . S
C3157 C3156 1.334 . S
C3157 C3158 1.287 . S
C3158 C3157 1.287 . S
C3158 C3159 1.524 . S
C3158 H3177 0.913 . S
C3159 H3135 0.950 . S
C3159 C3158 1.524 . S
C3159 C3160 1.415 . S
C3160 H3136 0.950 . S
C3160 C3155 1.363 . S
C3160 C3159 1.415 . S
C3161 H3137 0.951 . S
C3161 C3162 1.366 . S
C3161 C3163 1.388 . S
C3162 C3161 1.366 . S
C3162 C3166 1.385 . S
C3163 H3138 0.951 . S
C3163 C3161 1.388 . S
C3163 C3164 1.366 . S
C3164 C3163 1.366 . S
C3164 C3165 1.414 . S
C3164 C3167 1.499 . S
C3165 H3139 0.950 . S
C3165 C3164 1.414 . S
C3165 C3166 1.374 . S
C3166 H3140 0.950 . S
C3166 C3162 1.385 . S
C3166 C3165 1.374 . S
C3167 C3164 1.499 . S
C3167 C3168 1.373 . S
C3167 C3169 1.389 . S
C3168 H3141 0.950 . S
C3168 C3154 1.377 . S
C3168 C3167 1.373 . S
C3169 C3153 1.377 . S
C3169 C3167 1.389 . S
C3169 C3170 1.524 . S
C3170 C3169 1.524 . S
C3170 C3171 1.397 . S
C3170 C3175 1.363 . S
C3171 H3142 0.950 . S
C3171 C3170 1.397 . S
C3171 C3172 1.334 . S
C3172 H3143 0.950 . S
C3172 C3171 1.334 . S
C3172 C3173 1.287 . S
C3173 C3172 1.287 . S
C3173 C3174 1.524 . S
C3173 H3176 0.999 . S
C3174 H3144 0.950 . S
C3174 C3173 1.524 . S
C3174 C3175 1.415 . S
C3175 H3145 0.950 . S
C3175 C3170 1.363 . S
C3175 C3174 1.415 . S
H3176 C3173 0.999 . S
H3177 C3158 0.913 . S
H3178 C3196 0.951 . S
H3179 C3198 0.951 . S
H3180 C3200 0.950 . S
H3181 C3201 0.950 . S
H3182 C3203 0.950 . S
H3183 C3206 0.950 . S
H3184 C3207 0.950 . S
H3185 C3209 0.950 . S
H3186 C3210 0.950 . S
H3187 C3211 0.951 . S
H3188 C3213 0.951 . S
H3189 C3215 0.950 . S
H3190 C3216 0.950 . S
H3191 C3218 0.950 . S
H3192 C3221 0.950 . S
H3193 C3222 0.950 . S
H3194 C3224 0.950 . S
H3195 C3225 0.950 . S
C3196 H3178 0.951 . S
C3196 C3197 1.366 . S
C3196 C3198 1.388 . S
C3197 C3196 1.366 . S
C3197 C3201 1.385 . S
C3198 H3179 0.951 . S
C3198 C3196 1.388 . S
C3198 C3199 1.366 . S
C3199 C3198 1.366 . S
C3199 C3200 1.414 . S
C3199 C3202 1.499 . S
C3200 H3180 0.950 . S
C3200 C3199 1.414 . S
C3200 C3201 1.374 . S
C3201 H3181 0.950 . S
C3201 C3197 1.385 . S
C3201 C3200 1.374 . S
C3202 C3199 1.499 . S
C3202 C3203 1.373 . S
C3202 C3204 1.389 . S
C3203 H3182 0.950 . S
C3203 C3202 1.373 . S
C3203 C3219 1.377 . S
C3204 C3202 1.389 . S
C3204 C3205 1.524 . S
C3204 C3218 1.377 . S
C3205 C3204 1.524 . S
C3205 C3206 1.397 . S
C3205 C3210 1.363 . S
C3206 H3183 0.950 . S
C3206 C3205 1.397 . S
C3206 C3207 1.334 . S
C3207 H3184 0.950 . S
C3207 C3206 1.334 . S
C3207 C3208 1.287 . S
C3208 C3207 1.287 . S
C3208 C3209 1.524 . S
C3208 H3227 0.913 . S
C3209 H3185 0.950 . S
C3209 C3208 1.524 . S
C3209 C3210 1.415 . S
C3210 H3186 0.950 . S
C3210 C3205 1.363 . S
C3210 C3209 1.415 . S
C3211 H3187 0.951 . S
C3211 C3212 1.366 . S
C3211 C3213 1.388 . S
C3212 C3211 1.366 . S
C3212 C3216 1.385 . S
C3213 H3188 0.951 . S
C3213 C3211 1.388 . S
C3213 C3214 1.366 . S
C3214 C3213 1.366 . S
C3214 C3215 1.414 . S
C3214 C3217 1.499 . S
C3215 H3189 0.950 . S
C3215 C3214 1.414 . S
C3215 C3216 1.374 . S
C3216 H3190 0.950 . S
C3216 C3212 1.385 . S
C3216 C3215 1.374 . S
C3217 C3214 1.499 . S
C3217 C3218 1.373 . S
C3217 C3219 1.389 . S
C3218 H3191 0.950 . S
C3218 C3204 1.377 . S
C3218 C3217 1.373 . S
C3219 C3203 1.377 . S
C3219 C3217 1.389 . S
C3219 C3220 1.524 . S
C3220 C3219 1.524 . S
C3220 C3221 1.397 . S
C3220 C3225 1.363 . S
C3221 H3192 0.950 . S
C3221 C3220 1.397 . S
C3221 C3222 1.334 . S
C3222 H3193 0.950 . S
C3222 C3221 1.334 . S
C3222 C3223 1.287 . S
C3223 C3222 1.287 . S
C3223 C3224 1.524 . S
C3223 H3226 0.999 . S
C3224 H3194 0.950 . S
C3224 C3223 1.524 . S
C3224 C3225 1.415 . S
C3225 H3195 0.950 . S
C3225 C3220 1.363 . S
C3225 C3224 1.415 . S
H3226 C3223 0.999 . S
H3227 C3208 0.913 . S
H3228 C3246 0.951 . S
H3229 C3248 0.951 . S
H3230 C3250 0.950 . S
H3231 C3251 0.950 . S
H3232 C3253 0.950 . S
H3233 C3256 0.950 . S
H3234 C3257 0.950 . S
H3235 C3259 0.950 . S
H3236 C3260 0.950 . S
H3237 C3261 0.951 . S
H3238 C3263 0.951 . S
H3239 C3265 0.950 . S
H3240 C3266 0.950 . S
H3241 C3268 0.950 . S
H3242 C3271 0.950 . S
H3243 C3272 0.950 . S
H3244 C3274 0.950 . S
H3245 C3275 0.950 . S
C3246 H3228 0.951 . S
C3246 C3247 1.366 . S
C3246 C3248 1.388 . S
C3247 C3246 1.366 . S
C3247 C3251 1.385 . S
C3248 H3229 0.951 . S
C3248 C3246 1.388 . S
C3248 C3249 1.366 . S
C3249 C3248 1.366 . S
C3249 C3250 1.414 . S
C3249 C3252 1.499 . S
C3250 H3230 0.950 . S
C3250 C3249 1.414 . S
C3250 C3251 1.374 . S
C3251 H3231 0.950 . S
C3251 C3247 1.385 . S
C3251 C3250 1.374 . S
C3252 C3249 1.499 . S
C3252 C3253 1.373 . S
C3252 C3254 1.389 . S
C3253 H3232 0.950 . S
C3253 C3252 1.373 . S
C3253 C3269 1.377 . S
C3254 C3252 1.389 . S
C3254 C3255 1.524 . S
C3254 C3268 1.377 . S
C3255 C3254 1.524 . S
C3255 C3256 1.397 . S
C3255 C3260 1.363 . S
C3256 H3233 0.950 . S
C3256 C3255 1.397 . S
C3256 C3257 1.334 . S
C3257 H3234 0.950 . S
C3257 C3256 1.334 . S
C3257 C3258 1.287 . S
C3258 C3257 1.287 . S
C3258 C3259 1.524 . S
C3258 H3277 0.913 . S
C3259 H3235 0.950 . S
C3259 C3258 1.524 . S
C3259 C3260 1.415 . S
C3260 H3236 0.950 . S
C3260 C3255 1.363 . S
C3260 C3259 1.415 . S
C3261 H3237 0.951 . S
C3261 C3262 1.366 . S
C3261 C3263 1.388 . S
C3262 C3261 1.366 . S
C3262 C3266 1.385 . S
C3263 H3238 0.951 . S
C3263 C3261 1.388 . S
C3263 C3264 1.366 . S
C3264 C3263 1.366 . S
C3264 C3265 1.414 . S
C3264 C3267 1.499 . S
C3265 H3239 0.950 . S
C3265 C3264 1.414 . S
C3265 C3266 1.374 . S
C3266 H3240 0.950 . S
C3266 C3262 1.385 . S
C3266 C3265 1.374 . S
C3267 C3264 1.499 . S
C3267 C3268 1.373 . S
C3267 C3269 1.389 . S
C3268 H3241 0.950 . S
C3268 C3254 1.377 . S
C3268 C3267 1.373 . S
C3269 C3253 1.377 . S
C3269 C3267 1.389 . S
C3269 C3270 1.524 . S
C3270 C3269 1.524 . S
C3270 C3271 1.397 . S
C3270 C3275 1.363 . S
C3271 H3242 0.950 . S
C3271 C3270 1.397 . S
C3271 C3272 1.334 . S
C3272 H3243 0.950 . S
C3272 C3271 1.334 . S
C3272 C3273 1.287 . S
C3273 C3272 1.287 . S
C3273 C3274 1.524 . S
C3273 H3276 0.999 . S
C3274 H3244 0.950 . S
C3274 C3273 1.524 . S
C3274 C3275 1.415 . S
C3275 H3245 0.950 . S
C3275 C3270 1.363 . S
C3275 C3274 1.415 . S
H3276 C3273 0.999 . S
H3277 C3258 0.913 . S
H3278 C3296 0.951 . S
H3279 C3298 0.951 . S
H3280 C3300 0.950 . S
H3281 C3301 0.950 . S
H3282 C3303 0.950 . S
H3283 C3306 0.950 . S
H3284 C3307 0.950 . S
H3285 C3309 0.950 . S
H3286 C3310 0.950 . S
H3287 C3311 0.951 . S
H3288 C3313 0.951 . S
H3289 C3315 0.950 . S
H3290 C3316 0.950 . S
H3291 C3318 0.950 . S
H3292 C3321 0.950 . S
H3293 C3322 0.950 . S
H3294 C3324 0.950 . S
H3295 C3325 0.950 . S
C3296 H3278 0.951 . S
C3296 C3297 1.366 . S
C3296 C3298 1.388 . S
C3297 C3296 1.366 . S
C3297 C3301 1.385 . S
C3298 H3279 0.951 . S
C3298 C3296 1.388 . S
C3298 C3299 1.366 . S
C3299 C3298 1.366 . S
C3299 C3300 1.414 . S
C3299 C3302 1.499 . S
C3300 H3280 0.950 . S
C3300 C3299 1.414 . S
C3300 C3301 1.374 . S
C3301 H3281 0.950 . S
C3301 C3297 1.385 . S
C3301 C3300 1.374 . S
C3302 C3299 1.499 . S
C3302 C3303 1.373 . S
C3302 C3304 1.389 . S
C3303 H3282 0.950 . S
C3303 C3302 1.373 . S
C3303 C3319 1.377 . S
C3304 C3302 1.389 . S
C3304 C3305 1.524 . S
C3304 C3318 1.377 . S
C3305 C3304 1.524 . S
C3305 C3306 1.397 . S
C3305 C3310 1.363 . S
C3306 H3283 0.950 . S
C3306 C3305 1.397 . S
C3306 C3307 1.334 . S
C3307 H3284 0.950 . S
C3307 C3306 1.334 . S
C3307 C3308 1.287 . S
C3308 C3307 1.287 . S
C3308 C3309 1.524 . S
C3308 H3327 0.913 . S
C3309 H3285 0.950 . S
C3309 C3308 1.524 . S
C3309 C3310 1.415 . S
C3310 H3286 0.950 . S
C3310 C3305 1.363 . S
C3310 C3309 1.415 . S
C3311 H3287 0.951 . S
C3311 C3312 1.366 . S
C3311 C3313 1.388 . S
C3312 C3311 1.366 . S
C3312 C3316 1.385 . S
C3313 H3288 0.951 . S
C3313 C3311 1.388 . S
C3313 C3314 1.366 . S
C3314 C3313 1.366 . S
C3314 C3315 1.414 . S
C3314 C3317 1.499 . S
C3315 H3289 0.950 . S
C3315 C3314 1.414 . S
C3315 C3316 1.374 . S
C3316 H3290 0.950 . S
C3316 C3312 1.385 . S
C3316 C3315 1.374 . S
C3317 C3314 1.499 . S
C3317 C3318 1.373 . S
C3317 C3319 1.389 . S
C3318 H3291 0.950 . S
C3318 C3304 1.377 . S
C3318 C3317 1.373 . S
C3319 C3303 1.377 . S
C3319 C3317 1.389 . S
C3319 C3320 1.524 . S
C3320 C3319 1.524 . S
C3320 C3321 1.397 . S
C3320 C3325 1.363 . S
C3321 H3292 0.950 . S
C3321 C3320 1.397 . S
C3321 C3322 1.334 . S
C3322 H3293 0.950 . S
C3322 C3321 1.334 . S
C3322 C3323 1.287 . S
C3323 C3322 1.287 . S
C3323 C3324 1.524 . S
C3323 H3326 0.999 . S
C3324 H3294 0.950 . S
C3324 C3323 1.524 . S
C3324 C3325 1.415 . S
C3325 H3295 0.950 . S
C3325 C3320 1.363 . S
C3325 C3324 1.415 . S
H3326 C3323 0.999 . S
H3327 C3308 0.913 . S
H3328 C3346 0.951 . S
H3329 C3348 0.951 . S
H3330 C3350 0.950 . S
H3331 C3351 0.950 . S
H3332 C3353 0.950 . S
H3333 C3356 0.950 . S
H3334 C3357 0.950 . S
H3335 C3359 0.950 . S
H3336 C3360 0.950 . S
H3337 C3361 0.951 . S
H3338 C3363 0.951 . S
H3339 C3365 0.950 . S
H3340 C3366 0.950 . S
H3341 C3368 0.950 . S
H3342 C3371 0.950 . S
H3343 C3372 0.950 . S
H3344 C3374 0.950 . S
H3345 C3375 0.950 . S
C3346 H3328 0.951 . S
C3346 C3347 1.366 . S
C3346 C3348 1.388 . S
C3347 C3346 1.366 . S
C3347 C3351 1.385 . S
C3348 H3329 0.951 . S
C3348 C3346 1.388 . S
C3348 C3349 1.366 . S
C3349 C3348 1.366 . S
C3349 C3350 1.414 . S
C3349 C3352 1.499 . S
C3350 H3330 0.950 . S
C3350 C3349 1.414 . S
C3350 C3351 1.374 . S
C3351 H3331 0.950 . S
C3351 C3347 1.385 . S
C3351 C3350 1.374 . S
C3352 C3349 1.499 . S
C3352 C3353 1.373 . S
C3352 C3354 1.389 . S
C3353 H3332 0.950 . S
C3353 C3352 1.373 . S
C3353 C3369 1.377 . S
C3354 C3352 1.389 . S
C3354 C3355 1.524 . S
C3354 C3368 1.377 . S
C3355 C3354 1.524 . S
C3355 C3356 1.397 . S
C3355 C3360 1.363 . S
C3356 H3333 0.950 . S
C3356 C3355 1.397 . S
C3356 C3357 1.334 . S
C3357 H3334 0.950 . S
C3357 C3356 1.334 . S
C3357 C3358 1.287 . S
C3358 C3357 1.287 . S
C3358 C3359 1.524 . S
C3358 H3377 0.913 . S
C3359 H3335 0.950 . S
C3359 C3358 1.524 . S
C3359 C3360 1.415 . S
C3360 H3336 0.950 . S
C3360 C3355 1.363 . S
C3360 C3359 1.415 . S
C3361 H3337 0.951 . S
C3361 C3362 1.366 . S
C3361 C3363 1.388 . S
C3362 C3361 1.366 . S
C3362 C3366 1.385 . S
C3363 H3338 0.951 . S
C3363 C3361 1.388 . S
C3363 C3364 1.366 . S
C3364 C3363 1.366 . S
C3364 C3365 1.414 . S
C3364 C3367 1.499 . S
C3365 H3339 0.950 . S
C3365 C3364 1.414 . S
C3365 C3366 1.374 . S
C3366 H3340 0.950 . S
C3366 C3362 1.385 . S
C3366 C3365 1.374 . S
C3367 C3364 1.499 . S
C3367 C3368 1.373 . S
C3367 C3369 1.389 . S
C3368 H3341 0.950 . S
C3368 C3354 1.377 . S
C3368 C3367 1.373 . S
C3369 C3353 1.377 . S
C3369 C3367 1.389 . S
C3369 C3370 1.524 . S
C3370 C3369 1.524 . S
C3370 C3371 1.397 . S
C3370 C3375 1.363 . S
C3371 H3342 0.950 . S
C3371 C3370 1.397 . S
C3371 C3372 1.334 . S
C3372 H3343 0.950 . S
C3372 C3371 1.334 . S
C3372 C3373 1.287 . S
C3373 C3372 1.287 . S
C3373 C3374 1.524 . S
C3373 H3376 0.999 . S
C3374 H3344 0.950 . S
C3374 C3373 1.524 . S
C3374 C3375 1.415 . S
C3375 H3345 0.950 . S
C3375 C3370 1.363 . S
C3375 C3374 1.415 . S
H3376 C3373 0.999 . S
H3377 C3358 0.913 . S
H3378 C3396 0.951 . S
H3379 C3398 0.951 . S
H3380 C3400 0.950 . S
H3381 C3401 0.950 . S
H3382 C3403 0.950 . S
H3383 C3406 0.950 . S
H3384 C3407 0.950 . S
H3385 C3409 0.950 . S
H3386 C3410 0.950 . S
H3387 C3411 0.951 . S
H3388 C3413 0.951 . S
H3389 C3415 0.950 . S
H3390 C3416 0.950 . S
H3391 C3418 0.950 . S
H3392 C3421 0.950 . S
H3393 C3422 0.950 . S
H3394 C3424 0.950 . S
H3395 C3425 0.950 . S
C3396 H3378 0.951 . S
C3396 C3397 1.366 . S
C3396 C3398 1.388 . S
C3397 C3396 1.366 . S
C3397 C3401 1.385 . S
C3398 H3379 0.951 . S
C3398 C3396 1.388 . S
C3398 C3399 1.366 . S
C3399 C3398 1.366 . S
C3399 C3400 1.414 . S
C3399 C3402 1.499 . S
C3400 H3380 0.950 . S
C3400 C3399 1.414 . S
C3400 C3401 1.374 . S
C3401 H3381 0.950 . S
C3401 C3397 1.385 . S
C3401 C3400 1.374 . S
C3402 C3399 1.499 . S
C3402 C3403 1.373 . S
C3402 C3404 1.389 . S
C3403 H3382 0.950 . S
C3403 C3402 1.373 . S
C3403 C3419 1.377 . S
C3404 C3402 1.389 . S
C3404 C3405 1.524 . S
C3404 C3418 1.377 . S
C3405 C3404 1.524 . S
C3405 C3406 1.397 . S
C3405 C3410 1.363 . S
C3406 H3383 0.950 . S
C3406 C3405 1.397 . S
C3406 C3407 1.334 . S
C3407 H3384 0.950 . S
C3407 C3406 1.334 . S
C3407 C3408 1.287 . S
C3408 C3407 1.287 . S
C3408 C3409 1.524 . S
C3408 H3427 0.913 . S
C3409 H3385 0.950 . S
C3409 C3408 1.524 . S
C3409 C3410 1.415 . S
C3410 H3386 0.950 . S
C3410 C3405 1.363 . S
C3410 C3409 1.415 . S
C3411 H3387 0.951 . S
C3411 C3412 1.366 . S
C3411 C3413 1.388 . S
C3412 C3411 1.366 . S
C3412 C3416 1.385 . S
C3413 H3388 0.951 . S
C3413 C3411 1.388 . S
C3413 C3414 1.366 . S
C3414 C3413 1.366 . S
C3414 C3415 1.414 . S
C3414 C3417 1.499 . S
C3415 H3389 0.950 . S
C3415 C3414 1.414 . S
C3415 C3416 1.374 . S
C3416 H3390 0.950 . S
C3416 C3412 1.385 . S
C3416 C3415 1.374 . S
C3417 C3414 1.499 . S
C3417 C3418 1.373 . S
C3417 C3419 1.389 . S
C3418 H3391 0.950 . S
C3418 C3404 1.377 . S
C3418 C3417 1.373 . S
C3419 C3403 1.377 . S
C3419 C3417 1.389 . S
C3419 C3420 1.524 . S
C3420 C3419 1.524 . S
C3420 C3421 1.397 . S
C3420 C3425 1.363 . S
C3421 H3392 0.950 . S
C3421 C3420 1.397 . S
C3421 C3422 1.334 . S
C3422 H3393 0.950 . S
C3422 C3421 1.334 . S
C3422 C3423 1.287 . S
C3423 C3422 1.287 . S
C3423 C3424 1.524 . S
C3423 H3426 0.999 . S
C3424 H3394 0.950 . S
C3424 C3423 1.524 . S
C3424 C3425 1.415 . S
C3425 H3395 0.950 . S
C3425 C3420 1.363 . S
C3425 C3424 1.415 . S
H3426 C3423 0.999 . S
H3427 C3408 0.913 . S
H3428 C3446 0.951 . S
H3429 C3448 0.951 . S
H3430 C3450 0.950 . S
H3431 C3451 0.950 . S
H3432 C3453 0.950 . S
H3433 C3456 0.950 . S
H3434 C3457 0.950 . S
H3435 C3459 0.950 . S
H3436 C3460 0.950 . S
H3437 C3461 0.951 . S
H3438 C3463 0.951 . S
H3439 C3465 0.950 . S
H3440 C3466 0.950 . S
H3441 C3468 0.950 . S
H3442 C3471 0.950 . S
H3443 C3472 0.950 . S
H3444 C3474 0.950 . S
H3445 C3475 0.950 . S
C3446 H3428 0.951 . S
C3446 C3447 1.366 . S
C3446 C3448 1.388 . S
C3447 C3446 1.366 . S
C3447 C3451 1.385 . S
C3448 H3429 0.951 . S
C3448 C3446 1.388 . S
C3448 C3449 1.366 . S
C3449 C3448 1.366 . S
C3449 C3450 1.414 . S
C3449 C3452 1.499 . S
C3450 H3430 0.950 . S
C3450 C3449 1.414 . S
C3450 C3451 1.374 . S
C3451 H3431 0.950 . S
C3451 C3447 1.385 . S
C3451 C3450 1.374 . S
C3452 C3449 1.499 . S
C3452 C3453 1.373 . S
C3452 C3454 1.389 . S
C3453 H3432 0.950 . S
C3453 C3452 1.373 . S
C3453 C3469 1.377 . S
C3454 C3452 1.389 . S
C3454 C3455 1.524 . S
C3454 C3468 1.377 . S
C3455 C3454 1.524 . S
C3455 C3456 1.397 . S
C3455 C3460 1.363 . S
C3456 H3433 0.950 . S
C3456 C3455 1.397 . S
C3456 C3457 1.334 . S
C3457 H3434 0.950 . S
C3457 C3456 1.334 . S
C3457 C3458 1.287 . S
C3458 C3457 1.287 . S
C3458 C3459 1.524 . S
C3458 H3477 0.913 . S
C3459 H3435 0.950 . S
C3459 C3458 1.524 . S
C3459 C3460 1.415 . S
C3460 H3436 0.950 . S
C3460 C3455 1.363 . S
C3460 C3459 1.415 . S
C3461 H3437 0.951 . S
C3461 C3462 1.366 . S
C3461 C3463 1.388 . S
C3462 C3461 1.366 . S
C3462 C3466 1.385 . S
C3463 H3438 0.951 . S
C3463 C3461 1.388 . S
C3463 C3464 1.366 . S
C3464 C3463 1.366 . S
C3464 C3465 1.414 . S
C3464 C3467 1.499 . S
C3465 H3439 0.950 . S
C3465 C3464 1.414 . S
C3465 C3466 1.374 . S
C3466 H3440 0.950 . S
C3466 C3462 1.385 . S
C3466 C3465 1.374 . S
C3467 C3464 1.499 . S
C3467 C3468 1.373 . S
C3467 C3469 1.389 . S
C3468 H3441 0.950 . S
C3468 C3454 1.377 . S
C3468 C3467 1.373 . S
C3469 C3453 1.377 . S
C3469 C3467 1.389 . S
C3469 C3470 1.524 . S
C3470 C3469 1.524 . S
C3470 C3471 1.397 . S
C3470 C3475 1.363 . S
C3471 H3442 0.950 . S
C3471 C3470 1.397 . S
C3471 C3472 1.334 . S
C3472 H3443 0.950 . S
C3472 C3471 1.334 . S
C3472 C3473 1.287 . S
C3473 C3472 1.287 . S
C3473 C3474 1.524 . S
C3473 H3476 0.999 . S
C3474 H3444 0.950 . S
C3474 C3473 1.524 . S
C3474 C3475 1.415 . S
C3475 H3445 0.950 . S
C3475 C3470 1.363 . S
C3475 C3474 1.415 . S
H3476 C3473 0.999 . S
H3477 C3458 0.913 . S
H3478 C3496 0.951 . S
H3479 C3498 0.951 . S
H3480 C3500 0.950 . S
H3481 C3501 0.950 . S
H3482 C3503 0.950 . S
H3483 C3506 0.950 . S
H3484 C3507 0.950 . S
H3485 C3509 0.950 . S
H3486 C3510 0.950 . S
H3487 C3511 0.951 . S
H3488 C3513 0.951 . S
H3489 C3515 0.950 . S
H3490 C3516 0.950 . S
H3491 C3518 0.950 . S
H3492 C3521 0.950 . S
H3493 C3522 0.950 . S
H3494 C3524 0.950 . S
H3495 C3525 0.950 . S
C3496 H3478 0.951 . S
C3496 C3497 1.366 . S
C3496 C3498 1.388 . S
C3497 C3496 1.366 . S
C3497 C3501 1.385 . S
C3498 H3479 0.951 . S
C3498 C3496 1.388 . S
C3498 C3499 1.366 . S
C3499 C3498 1.366 . S
C3499 C3500 1.414 . S
C3499 C3502 1.499 . S
C3500 H3480 0.950 . S
C3500 C3499 1.414 . S
C3500 C3501 1.374 . S
C3501 H3481 0.950 . S
C3501 C3497 1.385 . S
C3501 C3500 1.374 . S
C3502 C3499 1.499 . S
C3502 C3503 1.373 . S
C3502 C3504 1.389 . S
C3503 H3482 0.950 . S
C3503 C3502 1.373 . S
C3503 C3519 1.377 . S
C3504 C3502 1.389 . S
C3504 C3505 1.524 . S
C3504 C3518 1.377 . S
C3505 C3504 1.524 . S
C3505 C3506 1.397 . S
C3505 C3510 1.363 . S
C3506 H3483 0.950 . S
C3506 C3505 1.397 . S
C3506 C3507 1.334 . S
C3507 H3484 0.950 . S
C3507 C3506 1.334 . S
C3507 C3508 1.287 . S
C3508 C3507 1.287 . S
C3508 C3509 1.524 . S
C3508 H3527 0.913 . S
C3509 H3485 0.950 . S
C3509 C3508 1.524 . S
C3509 C3510 1.415 . S
C3510 H3486 0.950 . S
C3510 C3505 1.363 . S
C3510 C3509 1.415 . S
C3511 H3487 0.951 . S
C3511 C3512 1.366 . S
C3511 C3513 1.388 . S
C3512 C3511 1.366 . S
C3512 C3516 1.385 . S
C3513 H3488 0.951 . S
C3513 C3511 1.388 . S
C3513 C3514 1.366 . S
C3514 C3513 1.366 . S
C3514 C3515 1.414 . S
C3514 C3517 1.499 . S
C3515 H3489 0.950 . S
C3515 C3514 1.414 . S
C3515 C3516 1.374 . S
C3516 H3490 0.950 . S
C3516 C3512 1.385 . S
C3516 C3515 1.374 . S
C3517 C3514 1.499 . S
C3517 C3518 1.373 . S
C3517 C3519 1.389 . S
C3518 H3491 0.950 . S
C3518 C3504 1.377 . S
C3518 C3517 1.373 . S
C3519 C3503 1.377 . S
C3519 C3517 1.389 . S
C3519 C3520 1.524 . S
C3520 C3519 1.524 . S
C3520 C3521 1.397 . S
C3520 C3525 1.363 . S
C3521 H3492 0.950 . S
C3521 C3520 1.397 . S
C3521 C3522 1.334 . S
C3522 H3493 0.950 . S
C3522 C3521 1.334 . S
C3522 C3523 1.287 . S
C3523 C3522 1.287 . S
C3523 C3524 1.524 . S
C3523 H3526 0.999 . S
C3524 H3494 0.950 . S
C3524 C3523 1.524 . S
C3524 C3525 1.415 . S
C3525 H3495 0.950 . S
C3525 C3520 1.363 . S
C3525 C3524 1.415 . S
H3526 C3523 0.999 . S
H3527 C3508 0.913 . S
H3528 C3546 0.951 . S
H3529 C3548 0.951 . S
H3530 C3550 0.950 . S
H3531 C3551 0.950 . S
H3532 C3553 0.950 . S
H3533 C3556 0.950 . S
H3534 C3557 0.950 . S
H3535 C3559 0.950 . S
H3536 C3560 0.950 . S
H3537 C3561 0.951 . S
H3538 C3563 0.951 . S
H3539 C3565 0.950 . S
H3540 C3566 0.950 . S
H3541 C3568 0.950 . S
H3542 C3571 0.950 . S
H3543 C3572 0.950 . S
H3544 C3574 0.950 . S
H3545 C3575 0.950 . S
C3546 H3528 0.951 . S
C3546 C3547 1.366 . S
C3546 C3548 1.388 . S
C3547 C3546 1.366 . S
C3547 C3551 1.385 . S
C3548 H3529 0.951 . S
C3548 C3546 1.388 . S
C3548 C3549 1.366 . S
C3549 C3548 1.366 . S
C3549 C3550 1.414 . S
C3549 C3552 1.499 . S
C3550 H3530 0.950 . S
C3550 C3549 1.414 . S
C3550 C3551 1.374 . S
C3551 H3531 0.950 . S
C3551 C3547 1.385 . S
C3551 C3550 1.374 . S
C3552 C3549 1.499 . S
C3552 C3553 1.373 . S
C3552 C3554 1.389 . S
C3553 H3532 0.950 . S
C3553 C3552 1.373 . S
C3553 C3569 1.377 . S
C3554 C3552 1.389 . S
C3554 C3555 1.524 . S
C3554 C3568 1.377 . S
C3555 C3554 1.524 . S
C3555 C3556 1.397 . S
C3555 C3560 1.363 . S
C3556 H3533 0.950 . S
C3556 C3555 1.397 . S
C3556 C3557 1.334 . S
C3557 H3534 0.950 . S
C3557 C3556 1.334 . S
C3557 C3558 1.287 . S
C3558 C3557 1.287 . S
C3558 C3559 1.524 . S
C3558 H3577 0.913 . S
C3559 H3535 0.950 . S
C3559 C3558 1.524 . S
C3559 C3560 1.415 . S
C3560 H3536 0.950 . S
C3560 C3555 1.363 . S
C3560 C3559 1.415 . S
C3561 H3537 0.951 . S
C3561 C3562 1.366 . S
C3561 C3563 1.388 . S
C3562 C3561 1.366 . S
C3562 C3566 1.385 . S
C3563 H3538 0.951 . S
C3563 C3561 1.388 . S
C3563 C3564 1.366 . S
C3564 C3563 1.366 . S
C3564 C3565 1.414 . S
C3564 C3567 1.499 . S
C3565 H3539 0.950 . S
C3565 C3564 1.414 . S
C3565 C3566 1.374 . S
C3566 H3540 0.950 . S
C3566 C3562 1.385 . S
C3566 C3565 1.374 . S
C3567 C3564 1.499 . S
C3567 C3568 1.373 . S
C3567 C3569 1.389 . S
C3568 H3541 0.950 . S
C3568 C3554 1.377 . S
C3568 C3567 1.373 . S
C3569 C3553 1.377 . S
C3569 C3567 1.389 . S
C3569 C3570 1.524 . S
C3570 C3569 1.524 . S
C3570 C3571 1.397 1_655 S
C3570 C3575 1.363 . S
C3571 H3542 0.950 . S
C3571 C3570 1.397 1_455 S
C3571 C3572 1.334 . S
C3572 H3543 0.950 . S
C3572 C3571 1.334 . S
C3572 C3573 1.287 . S
C3573 C3572 1.287 . S
C3573 C3574 1.524 . S
C3573 H3576 0.999 . S
C3574 H3544 0.950 . S
C3574 C3573 1.524 . S
C3574 C3575 1.415 1_455 S
C3575 H3545 0.950 . S
C3575 C3570 1.363 . S
C3575 C3574 1.415 1_655 S
H3576 C3573 0.999 . S
H3577 C3558 0.913 . S
H3578 C3596 0.951 . S
H3579 C3598 0.951 . S
H3580 C3600 0.950 . S
H3581 C3601 0.950 . S
H3582 C3603 0.950 . S
H3583 C3606 0.950 . S
H3584 C3607 0.950 . S
H3585 C3609 0.950 . S
H3586 C3610 0.950 . S
H3587 C3611 0.951 . S
H3588 C3613 0.951 . S
H3589 C3615 0.938 1_556 S
H3590 C3616 0.950 1_556 S
H3591 C3618 0.950 . S
H3592 C3621 0.950 . S
H3593 C3622 0.950 . S
H3594 C3624 0.950 . S
H3595 C3625 0.950 . S
C3596 H3578 0.951 . S
C3596 C3597 1.366 . S
C3596 C3598 1.388 . S
C3597 C3596 1.366 . S
C3597 C3601 1.385 . S
C3598 H3579 0.951 . S
C3598 C3596 1.388 . S
C3598 C3599 1.366 . S
C3599 C3598 1.366 . S
C3599 C3600 1.414 . S
C3599 C3602 1.499 . S
C3600 H3580 0.950 . S
C3600 C3599 1.414 . S
C3600 C3601 1.374 . S
C3601 H3581 0.950 . S
C3601 C3597 1.385 . S
C3601 C3600 1.374 . S
C3602 C3599 1.499 . S
C3602 C3603 1.373 . S
C3602 C3604 1.389 . S
C3603 H3582 0.950 . S
C3603 C3602 1.373 . S
C3603 C3619 1.377 . S
C3604 C3602 1.389 . S
C3604 C3605 1.524 . S
C3604 C3618 1.377 . S
C3605 C3604 1.524 . S
C3605 C3606 1.397 . S
C3605 C3610 1.363 . S
C3606 H3583 0.950 . S
C3606 C3605 1.397 . S
C3606 C3607 1.334 . S
C3607 H3584 0.950 . S
C3607 C3606 1.334 . S
C3607 C3608 1.287 . S
C3608 C3607 1.287 . S
C3608 C3609 1.524 . S
C3608 H3627 0.913 . S
C3609 H3585 0.950 . S
C3609 C3608 1.524 . S
C3609 C3610 1.415 . S
C3610 H3586 0.950 . S
C3610 C3605 1.363 . S
C3610 C3609 1.415 . S
C3611 H3587 0.951 . S
C3611 C3612 1.366 . S
C3611 C3613 1.388 . S
C3612 C3611 1.366 . S
C3612 C3616 1.385 . S
C3613 H3588 0.951 . S
C3613 C3611 1.388 . S
C3613 C3614 1.366 . S
C3614 C3613 1.366 . S
C3614 C3615 1.414 . S
C3614 C3617 1.499 . S
C3615 H3589 0.938 1_554 S
C3615 C3614 1.414 . S
C3615 C3616 1.374 . S
C3616 H3590 0.950 1_554 S
C3616 C3612 1.385 . S
C3616 C3615 1.374 . S
C3617 C3614 1.499 . S
C3617 C3618 1.373 . S
C3617 C3619 1.389 . S
C3618 H3591 0.950 . S
C3618 C3604 1.377 . S
C3618 C3617 1.373 . S
C3619 C3603 1.377 . S
C3619 C3617 1.389 . S
C3619 C3620 1.524 . S
C3620 C3619 1.524 . S
C3620 C3621 1.397 . S
C3620 C3625 1.363 . S
C3621 H3592 0.950 . S
C3621 C3620 1.397 . S
C3621 C3622 1.334 . S
C3622 H3593 0.950 . S
C3622 C3621 1.334 . S
C3622 C3623 1.287 . S
C3623 C3622 1.287 . S
C3623 C3624 1.524 . S
C3623 H3626 0.999 . S
C3624 H3594 0.950 . S
C3624 C3623 1.524 . S
C3624 C3625 1.415 . S
C3625 H3595 0.950 . S
C3625 C3620 1.363 . S
C3625 C3624 1.415 . S
H3626 C3623 0.999 . S
H3627 C3608 0.913 . S
H3628 C3646 0.951 . S
H3629 C3648 0.951 . S
H3630 C3650 0.950 . S
H3631 C3651 0.950 . S
H3632 C3653 0.950 . S
H3633 C3656 0.950 . S
H3634 C3657 0.950 . S
H3635 C3659 0.950 . S
H3636 C3660 0.950 . S
H3637 C3661 0.951 . S
H3638 C3663 0.951 . S
H3639 C3665 0.950 1_455 S
H3640 C3666 0.950 1_455 S
H3641 C3668 0.950 . S
H3642 C3671 0.950 . S
H3643 C3672 0.950 . S
H3644 C3674 0.950 . S
H3645 C3675 0.950 . S
C3646 H3628 0.951 . S
C3646 C3647 1.366 1_455 S
C3646 C3648 1.388 . S
C3647 C3646 1.366 1_655 S
C3647 C3651 1.385 . S
C3648 H3629 0.951 . S
C3648 C3646 1.388 . S
C3648 C3649 1.366 1_455 S
C3649 C3648 1.366 1_655 S
C3649 C3650 1.414 . S
C3649 C3652 1.499 . S
C3650 H3630 0.950 . S
C3650 C3649 1.414 . S
C3650 C3651 1.374 . S
C3651 H3631 0.950 . S
C3651 C3647 1.385 . S
C3651 C3650 1.374 . S
C3652 C3649 1.499 . S
C3652 C3653 1.373 . S
C3652 C3654 1.389 1_655 S
C3653 H3632 0.950 . S
C3653 C3652 1.373 . S
C3653 C3669 1.377 . S
C3654 C3652 1.389 1_455 S
C3654 C3655 1.524 . S
C3654 C3668 1.377 . S
C3655 C3654 1.524 . S
C3655 C3656 1.397 . S
C3655 C3660 1.363 . S
C3656 H3633 0.950 . S
C3656 C3655 1.397 . S
C3656 C3657 1.334 . S
C3657 H3634 0.950 . S
C3657 C3656 1.334 . S
C3657 C3658 1.287 . S
C3658 C3657 1.287 . S
C3658 C3659 1.524 . S
C3658 H3677 0.913 . S
C3659 H3635 0.950 . S
C3659 C3658 1.524 . S
C3659 C3660 1.415 . S
C3660 H3636 0.950 . S
C3660 C3655 1.363 . S
C3660 C3659 1.415 . S
C3661 H3637 0.951 . S
C3661 C3662 1.366 . S
C3661 C3663 1.388 . S
C3662 C3661 1.366 . S
C3662 C3666 1.385 . S
C3663 H3638 0.951 . S
C3663 C3661 1.388 . S
C3663 C3664 1.366 . S
C3664 C3663 1.366 . S
C3664 C3665 1.414 . S
C3664 C3667 1.499 . S
C3665 H3639 0.950 1_655 S
C3665 C3664 1.414 . S
C3665 C3666 1.374 . S
C3666 H3640 0.950 1_655 S
C3666 C3662 1.385 . S
C3666 C3665 1.374 . S
C3667 C3664 1.499 . S
C3667 C3668 1.373 1_655 S
C3667 C3669 1.389 . S
C3668 H3641 0.950 . S
C3668 C3654 1.377 . S
C3668 C3667 1.373 1_455 S
C3669 C3653 1.377 . S
C3669 C3667 1.389 . S
C3669 C3670 1.524 . S
C3670 C3669 1.524 . S
C3670 C3671 1.397 . S
C3670 C3675 1.363 . S
C3671 H3642 0.950 . S
C3671 C3670 1.397 . S
C3671 C3672 1.334 . S
C3672 H3643 0.950 . S
C3672 C3671 1.334 . S
C3672 C3673 1.287 . S
C3673 C3672 1.287 . S
C3673 C3674 1.524 . S
C3673 H3676 0.999 . S
C3674 H3644 0.950 . S
C3674 C3673 1.524 . S
C3674 C3675 1.415 . S
C3675 H3645 0.950 . S
C3675 C3670 1.363 . S
C3675 C3674 1.415 . S
H3676 C3673 0.999 . S
H3677 C3658 0.913 . S
H3678 C3696 0.951 . S
H3679 C3698 0.951 . S
H3680 C3700 0.950 . S
H3681 C3701 0.950 . S
H3682 C3703 0.950 . S
H3683 C3706 0.950 . S
H3684 C3707 0.950 . S
H3685 C3709 0.950 1_556 S
H3686 C3710 0.950 . S
H3687 C3711 0.951 . S
H3688 C3713 0.951 . S
H3689 C3715 0.950 . S
H3690 C3716 0.950 . S
H3691 C3718 0.950 . S
H3692 C3721 0.950 . S
H3693 C3722 0.950 . S
H3694 C3724 0.950 . S
H3695 C3725 0.950 . S
C3696 H3678 0.951 . S
C3696 C3697 1.366 . S
C3696 C3698 1.388 . S
C3697 C3696 1.366 . S
C3697 C3701 1.385 . S
C3698 H3679 0.951 . S
C3698 C3696 1.388 . S
C3698 C3699 1.366 . S
C3699 C3698 1.366 . S
C3699 C3700 1.414 . S
C3699 C3702 1.499 . S
C3700 H3680 0.950 . S
C3700 C3699 1.414 . S
C3700 C3701 1.374 . S
C3701 H3681 0.950 . S
C3701 C3697 1.385 . S
C3701 C3700 1.374 . S
C3702 C3699 1.499 . S
C3702 C3703 1.373 . S
C3702 C3704 1.389 . S
C3703 H3682 0.950 . S
C3703 C3702 1.373 . S
C3703 C3719 1.377 . S
C3704 C3702 1.389 . S
C3704 C3705 1.524 . S
C3704 C3718 1.377 . S
C3705 C3704 1.524 . S
C3705 C3706 1.397 . S
C3705 C3710 1.363 . S
C3706 H3683 0.950 . S
C3706 C3705 1.397 . S
C3706 C3707 1.334 . S
C3707 H3684 0.950 . S
C3707 C3706 1.334 . S
C3707 C3708 1.287 . S
C3708 C3707 1.287 . S
C3708 C3709 1.524 . S
C3708 H3727 0.913 . S
C3709 H3685 0.950 1_554 S
C3709 C3708 1.524 . S
C3709 C3710 1.415 . S
C3710 H3686 0.950 . S
C3710 C3705 1.363 . S
C3710 C3709 1.415 . S
C3711 H3687 0.951 . S
C3711 C3712 1.366 . S
C3711 C3713 1.388 . S
C3712 C3711 1.366 . S
C3712 C3716 1.385 . S
C3713 H3688 0.951 . S
C3713 C3711 1.388 . S
C3713 C3714 1.366 . S
C3714 C3713 1.366 . S
C3714 C3715 1.414 . S
C3714 C3717 1.499 . S
C3715 H3689 0.950 . S
C3715 C3714 1.414 . S
C3715 C3716 1.374 . S
C3716 H3690 0.950 . S
C3716 C3712 1.385 . S
C3716 C3715 1.374 . S
C3717 C3714 1.499 . S
C3717 C3718 1.373 . S
C3717 C3719 1.389 . S
C3718 H3691 0.950 . S
C3718 C3704 1.377 . S
C3718 C3717 1.373 . S
C3719 C3703 1.377 . S
C3719 C3717 1.389 . S
C3719 C3720 1.524 . S
C3720 C3719 1.524 . S
C3720 C3721 1.397 . S
C3720 C3725 1.363 . S
C3721 H3692 0.950 . S
C3721 C3720 1.397 . S
C3721 C3722 1.334 . S
C3722 H3693 0.950 . S
C3722 C3721 1.334 . S
C3722 C3723 1.287 . S
C3723 C3722 1.287 . S
C3723 C3724 1.524 . S
C3723 H3726 0.999 . S
C3724 H3694 0.950 . S
C3724 C3723 1.524 . S
C3724 C3725 1.415 . S
C3725 H3695 0.950 . S
C3725 C3720 1.363 . S
C3725 C3724 1.415 . S
H3726 C3723 0.999 . S
H3727 C3708 0.913 . S
H3728 C3746 0.951 . S
H3729 C3748 0.951 . S
H3730 C3750 0.950 . S
H3731 C3751 0.950 . S
H3732 C3753 0.950 . S
H3733 C3756 0.950 . S
H3734 C3757 0.950 . S
H3735 C3759 0.950 . S
H3736 C3760 0.950 . S
H3737 C3761 0.951 . S
H3738 C3763 0.951 . S
H3739 C3765 0.950 . S
H3740 C3766 0.950 1_455 S
H3741 C3768 0.950 . S
H3742 C3771 0.950 . S
H3743 C3772 0.950 1_455 S
H3744 C3774 0.950 . S
H3745 C3775 0.950 . S
C3746 H3728 0.951 . S
C3746 C3747 1.366 . S
C3746 C3748 1.388 . S
C3747 C3746 1.366 . S
C3747 C3751 1.385 . S
C3748 H3729 0.951 . S
C3748 C3746 1.388 . S
C3748 C3749 1.366 . S
C3749 C3748 1.366 . S
C3749 C3750 1.414 . S
C3749 C3752 1.499 . S
C3750 H3730 0.950 . S
C3750 C3749 1.414 . S
C3750 C3751 1.374 . S
C3751 H3731 0.950 . S
C3751 C3747 1.385 . S
C3751 C3750 1.374 . S
C3752 C3749 1.499 . S
C3752 C3753 1.373 . S
C3752 C3754 1.389 . S
C3753 H3732 0.950 . S
C3753 C3752 1.373 . S
C3753 C3769 1.377 . S
C3754 C3752 1.389 . S
C3754 C3755 1.524 . S
C3754 C3768 1.377 . S
C3755 C3754 1.524 . S
C3755 C3756 1.397 . S
C3755 C3760 1.363 . S
C3756 H3733 0.950 . S
C3756 C3755 1.397 . S
C3756 C3757 1.334 . S
C3757 H3734 0.950 . S
C3757 C3756 1.334 . S
C3757 C3758 1.287 . S
C3758 C3757 1.287 . S
C3758 C3759 1.524 . S
C3758 H3777 0.913 . S
C3759 H3735 0.950 . S
C3759 C3758 1.524 . S
C3759 C3760 1.415 . S
C3760 H3736 0.950 . S
C3760 C3755 1.363 . S
C3760 C3759 1.415 . S
C3761 H3737 0.951 . S
C3761 C3762 1.366 . S
C3761 C3763 1.388 . S
C3762 C3761 1.366 . S
C3762 C3766 1.385 . S
C3763 H3738 0.951 . S
C3763 C3761 1.388 . S
C3763 C3764 1.366 . S
C3764 C3763 1.366 . S
C3764 C3765 1.414 . S
C3764 C3767 1.499 . S
C3765 H3739 0.950 . S
C3765 C3764 1.414 . S
C3765 C3766 1.374 . S
C3766 H3740 0.950 1_655 S
C3766 C3762 1.385 . S
C3766 C3765 1.374 . S
C3767 C3764 1.499 . S
C3767 C3768 1.373 . S
C3767 C3769 1.389 . S
C3768 H3741 0.950 . S
C3768 C3754 1.377 . S
C3768 C3767 1.373 . S
C3769 C3753 1.377 . S
C3769 C3767 1.389 . S
C3769 C3770 1.524 . S
C3770 C3769 1.524 . S
C3770 C3771 1.397 . S
C3770 C3775 1.363 . S
C3771 H3742 0.950 . S
C3771 C3770 1.397 . S
C3771 C3772 1.334 . S
C3772 H3743 0.950 1_655 S
C3772 C3771 1.334 . S
C3772 C3773 1.287 . S
C3773 C3772 1.287 . S
C3773 C3774 1.524 . S
C3773 H3776 0.999 . S
C3774 H3744 0.950 . S
C3774 C3773 1.524 . S
C3774 C3775 1.415 . S
C3775 H3745 0.950 . S
C3775 C3770 1.363 . S
C3775 C3774 1.415 . S
H3776 C3773 0.999 . S
H3777 C3758 0.913 . S
H3778 C3796 0.951 . S
H3779 C3798 0.951 . S
H3780 C3800 0.950 . S
H3781 C3801 0.950 . S
H3782 C3803 0.950 . S
H3783 C3806 0.950 . S
H3784 C3807 0.950 . S
H3785 C3809 0.950 . S
H3786 C3810 0.950 . S
H3787 C3811 0.951 . S
H3788 C3813 0.951 . S
H3789 C3815 0.950 . S
H3790 C3816 0.950 . S
H3791 C3818 0.950 . S
H3792 C3821 0.950 . S
H3793 C3822 0.950 . S
H3794 C3824 0.950 . S
H3795 C3825 0.950 . S
C3796 H3778 0.951 . S
C3796 C3797 1.366 . S
C3796 C3798 1.388 . S
C3797 C3796 1.366 . S
C3797 C3801 1.385 . S
C3798 H3779 0.951 . S
C3798 C3796 1.388 . S
C3798 C3799 1.366 . S
C3799 C3798 1.366 . S
C3799 C3800 1.414 . S
C3799 C3802 1.499 . S
C3800 H3780 0.950 . S
C3800 C3799 1.414 . S
C3800 C3801 1.374 . S
C3801 H3781 0.950 . S
C3801 C3797 1.385 . S
C3801 C3800 1.374 . S
C3802 C3799 1.499 . S
C3802 C3803 1.373 . S
C3802 C3804 1.389 . S
C3803 H3782 0.950 . S
C3803 C3802 1.373 . S
C3803 C3819 1.377 . S
C3804 C3802 1.389 . S
C3804 C3805 1.524 . S
C3804 C3818 1.377 . S
C3805 C3804 1.524 . S
C3805 C3806 1.397 . S
C3805 C3810 1.363 . S
C3806 H3783 0.950 . S
C3806 C3805 1.397 . S
C3806 C3807 1.334 . S
C3807 H3784 0.950 . S
C3807 C3806 1.334 . S
C3807 C3808 1.287 1_556 S
C3808 C3807 1.287 1_554 S
C3808 C3809 1.524 . S
C3808 H3827 0.913 . S
C3809 H3785 0.950 . S
C3809 C3808 1.524 . S
C3809 C3810 1.415 1_554 S
C3810 H3786 0.950 . S
C3810 C3805 1.363 . S
C3810 C3809 1.415 1_556 S
C3811 H3787 0.951 . S
C3811 C3812 1.366 . S
C3811 C3813 1.388 . S
C3812 C3811 1.366 . S
C3812 C3816 1.385 . S
C3813 H3788 0.951 . S
C3813 C3811 1.388 . S
C3813 C3814 1.366 . S
C3814 C3813 1.366 . S
C3814 C3815 1.414 . S
C3814 C3817 1.499 . S
C3815 H3789 0.950 . S
C3815 C3814 1.414 . S
C3815 C3816 1.374 . S
C3816 H3790 0.950 . S
C3816 C3812 1.385 . S
C3816 C3815 1.374 . S
C3817 C3814 1.499 . S
C3817 C3818 1.373 . S
C3817 C3819 1.389 . S
C3818 H3791 0.950 . S
C3818 C3804 1.377 . S
C3818 C3817 1.373 . S
C3819 C3803 1.377 . S
C3819 C3817 1.389 . S
C3819 C3820 1.524 . S
C3820 C3819 1.524 . S
C3820 C3821 1.397 . S
C3820 C3825 1.363 . S
C3821 H3792 0.950 . S
C3821 C3820 1.397 . S
C3821 C3822 1.334 . S
C3822 H3793 0.950 . S
C3822 C3821 1.334 . S
C3822 C3823 1.287 . S
C3823 C3822 1.287 . S
C3823 C3824 1.524 . S
C3823 H3826 0.999 . S
C3824 H3794 0.950 . S
C3824 C3823 1.524 . S
C3824 C3825 1.415 . S
C3825 H3795 0.950 . S
C3825 C3820 1.363 . S
C3825 C3824 1.415 . S
H3826 C3823 0.999 . S
H3827 C3808 0.913 . S
H3828 C3846 0.949 1_455 S
H3829 C3848 0.951 1_455 S
H3830 C3850 0.950 . S
H3831 C3851 0.950 . S
H3832 C3853 0.950 1_455 S
H3833 C3856 0.950 . S
H3834 C3857 0.950 . S
H3835 C3859 0.950 . S
H3836 C3860 0.950 . S
H3837 C3861 0.951 . S
H3838 C3863 0.951 . S
H3839 C3865 0.973 . S
H3840 C3866 0.950 . S
H3841 C3868 0.950 . S
H3842 C3871 0.950 . S
H3843 C3872 0.950 . S
H3844 C3874 0.950 . S
H3845 C3875 0.950 1_655 S
C3846 H3828 0.949 1_655 S
C3846 C3847 1.367 . S
C3846 C3848 1.388 . S
C3847 C3846 1.367 . S
C3847 C3851 1.385 . S
C3848 H3829 0.951 1_655 S
C3848 C3846 1.388 . S
C3848 C3849 1.366 . S
C3849 C3848 1.366 . S
C3849 C3850 1.414 . S
C3849 C3852 1.499 . S
C3850 H3830 0.950 . S
C3850 C3849 1.414 . S
C3850 C3851 1.374 . S
C3851 H3831 0.950 . S
C3851 C3847 1.385 . S
C3851 C3850 1.374 . S
C3852 C3849 1.499 . S
C3852 C3853 1.373 . S
C3852 C3854 1.389 . S
C3853 H3832 0.950 1_655 S
C3853 C3852 1.373 . S
C3853 C3869 1.377 . S
C3854 C3852 1.389 . S
C3854 C3855 1.524 . S
C3854 C3868 1.377 . S
C3855 C3854 1.524 . S
C3855 C3856 1.397 . S
C3855 C3860 1.363 . S
C3856 H3833 0.950 . S
C3856 C3855 1.397 . S
C3856 C3857 1.334 . S
C3857 H3834 0.950 . S
C3857 C3856 1.334 . S
C3857 C3858 1.287 . S
C3858 C3857 1.287 . S
C3858 C3859 1.524 . S
C3858 H3877 0.913 . S
C3859 H3835 0.950 . S
C3859 C3858 1.524 . S
C3859 C3860 1.415 . S
C3860 H3836 0.950 . S
C3860 C3855 1.363 . S
C3860 C3859 1.415 . S
C3861 H3837 0.951 . S
C3861 C3862 1.366 . S
C3861 C3863 1.388 . S
C3862 C3861 1.366 . S
C3862 C3866 1.385 . S
C3863 H3838 0.951 . S
C3863 C3861 1.388 . S
C3863 C3864 1.366 . S
C3864 C3863 1.366 . S
C3864 C3865 1.414 . S
C3864 C3867 1.499 . S
C3865 H3839 0.973 . S
C3865 C3864 1.414 . S
C3865 C3866 1.374 . S
C3866 H3840 0.950 . S
C3866 C3862 1.385 . S
C3866 C3865 1.374 . S
C3867 C3864 1.499 . S
C3867 C3868 1.373 . S
C3867 C3869 1.389 . S
C3868 H3841 0.950 . S
C3868 C3854 1.377 . S
C3868 C3867 1.373 . S
C3869 C3853 1.377 . S
C3869 C3867 1.389 . S
C3869 C3870 1.524 1_655 S
C3870 C3869 1.524 1_455 S
C3870 C3871 1.397 . S
C3870 C3875 1.363 . S
C3871 H3842 0.950 . S
C3871 C3870 1.397 . S
C3871 C3872 1.334 . S
C3872 H3843 0.950 . S
C3872 C3871 1.334 . S
C3872 C3873 1.287 . S
C3873 C3872 1.287 . S
C3873 C3874 1.524 . S
C3873 H3876 0.999 . S
C3874 H3844 0.950 . S
C3874 C3873 1.524 . S
C3874 C3875 1.415 . S
C3875 H3845 0.950 1_455 S
C3875 C3870 1.363 . S
C3875 C3874 1.415 . S
H3876 C3873 0.999 . S
H3877 C3858 0.913 . S
H3878 C3896 0.951 . S
H3879 C3898 0.951 . S
H3880 C3900 0.950 . S
H3881 C3901 0.950 . S
H3882 C3903 0.950 . S
H3883 C3906 0.950 . S
H3884 C3907 0.950 . S
H3885 C3909 0.950 . S
H3886 C3910 0.950 . S
H3887 C3911 0.951 . S
H3888 C3913 0.951 . S
H3889 C3915 0.950 1_554 S
H3890 C3916 0.950 1_554 S
H3891 C3918 0.950 . S
H3892 C3921 0.950 . S
H3893 C3922 0.950 . S
H3894 C3924 0.950 . S
H3895 C3925 0.950 . S
C3896 H3878 0.951 . S
C3896 C3897 1.366 . S
C3896 C3898 1.388 . S
C3897 C3896 1.366 . S
C3897 C3901 1.385 . S
C3898 H3879 0.951 . S
C3898 C3896 1.388 . S
C3898 C3899 1.366 . S
C3899 C3898 1.366 . S
C3899 C3900 1.414 . S
C3899 C3902 1.499 . S
C3900 H3880 0.950 . S
C3900 C3899 1.414 . S
C3900 C3901 1.374 . S
C3901 H3881 0.950 . S
C3901 C3897 1.385 . S
C3901 C3900 1.374 . S
C3902 C3899 1.499 . S
C3902 C3903 1.373 . S
C3902 C3904 1.389 . S
C3903 H3882 0.950 . S
C3903 C3902 1.373 . S
C3903 C3919 1.377 . S
C3904 C3902 1.389 . S
C3904 C3905 1.524 . S
C3904 C3918 1.377 . S
C3905 C3904 1.524 . S
C3905 C3906 1.397 . S
C3905 C3910 1.363 1_556 S
C3906 H3883 0.950 . S
C3906 C3905 1.397 . S
C3906 C3907 1.334 . S
C3907 H3884 0.950 . S
C3907 C3906 1.334 . S
C3907 C3908 1.287 1_556 S
C3908 C3907 1.287 1_554 S
C3908 C3909 1.524 . S
C3908 H3927 0.913 . S
C3909 H3885 0.950 . S
C3909 C3908 1.524 . S
C3909 C3910 1.415 . S
C3910 H3886 0.950 . S
C3910 C3905 1.363 1_554 S
C3910 C3909 1.415 . S
C3911 H3887 0.951 . S
C3911 C3912 1.366 . S
C3911 C3913 1.388 . S
C3912 C3911 1.366 . S
C3912 C3916 1.385 . S
C3913 H3888 0.951 . S
C3913 C3911 1.388 . S
C3913 C3914 1.366 . S
C3914 C3913 1.366 . S
C3914 C3915 1.414 . S
C3914 C3917 1.499 . S
C3915 H3889 0.950 1_556 S
C3915 C3914 1.414 . S
C3915 C3916 1.374 . S
C3916 H3890 0.950 1_556 S
C3916 C3912 1.385 . S
C3916 C3915 1.374 . S
C3917 C3914 1.499 . S
C3917 C3918 1.373 . S
C3917 C3919 1.389 . S
C3918 H3891 0.950 . S
C3918 C3904 1.377 . S
C3918 C3917 1.373 . S
C3919 C3903 1.377 . S
C3919 C3917 1.389 . S
C3919 C3920 1.524 . S
C3920 C3919 1.524 . S
C3920 C3921 1.397 . S
C3920 C3925 1.363 . S
C3921 H3892 0.950 . S
C3921 C3920 1.397 . S
C3921 C3922 1.334 . S
C3922 H3893 0.950 . S
C3922 C3921 1.334 . S
C3922 C3923 1.287 . S
C3923 C3922 1.287 . S
C3923 C3924 1.524 . S
C3923 H3926 0.999 . S
C3924 H3894 0.950 . S
C3924 C3923 1.524 . S
C3924 C3925 1.415 . S
C3925 H3895 0.950 . S
C3925 C3920 1.363 . S
C3925 C3924 1.415 . S
H3926 C3923 0.999 . S
H3927 C3908 0.913 . S
H3928 C3946 0.951 . S
H3929 C3948 0.951 . S
H3930 C3950 0.950 . S
H3931 C3951 0.950 . S
H3932 C3953 0.950 1_545 S
H3933 C3956 0.950 . S
H3934 C3957 0.950 . S
H3935 C3959 0.950 . S
H3936 C3960 0.950 . S
H3937 C3961 0.951 . S
H3938 C3963 0.951 . S
H3939 C3965 0.951 1_545 S
H3940 C3966 0.951 . S
H3941 C3968 0.950 . S
H3942 C3971 0.950 . S
H3943 C3972 0.950 . S
H3944 C3974 0.950 . S
H3945 C3975 0.950 . S
C3946 H3928 0.951 . S
C3946 C3947 1.366 . S
C3946 C3948 1.388 . S
C3947 C3946 1.366 . S
C3947 C3951 1.385 . S
C3948 H3929 0.951 . S
C3948 C3946 1.388 . S
C3948 C3949 1.366 . S
C3949 C3948 1.366 . S
C3949 C3950 1.414 . S
C3949 C3952 1.499 . S
C3950 H3930 0.950 . S
C3950 C3949 1.414 . S
C3950 C3951 1.374 . S
C3951 H3931 0.950 . S
C3951 C3947 1.385 . S
C3951 C3950 1.374 . S
C3952 C3949 1.499 . S
C3952 C3953 1.373 . S
C3952 C3954 1.389 . S
C3953 H3932 0.950 1_565 S
C3953 C3952 1.373 . S
C3953 C3969 1.378 1_565 S
C3954 C3952 1.389 . S
C3954 C3955 1.524 . S
C3954 C3968 1.377 . S
C3955 C3954 1.524 . S
C3955 C3956 1.397 . S
C3955 C3960 1.363 . S
C3956 H3933 0.950 . S
C3956 C3955 1.397 . S
C3956 C3957 1.334 . S
C3957 H3934 0.950 . S
C3957 C3956 1.334 . S
C3957 C3958 1.287 . S
C3958 C3957 1.287 . S
C3958 C3959 1.524 . S
C3958 H3977 0.913 . S
C3959 H3935 0.950 . S
C3959 C3958 1.524 . S
C3959 C3960 1.415 . S
C3960 H3936 0.950 . S
C3960 C3955 1.363 . S
C3960 C3959 1.415 . S
C3961 H3937 0.951 . S
C3961 C3962 1.366 . S
C3961 C3963 1.388 . S
C3962 C3961 1.366 . S
C3962 C3966 1.380 1_565 S
C3963 H3938 0.951 . S
C3963 C3961 1.388 . S
C3963 C3964 1.366 . S
C3964 C3963 1.366 . S
C3964 C3965 1.414 . S
C3964 C3967 1.499 . S
C3965 H3939 0.951 1_565 S
C3965 C3964 1.414 . S
C3965 C3966 1.378 1_565 S
C3966 H3940 0.951 . S
C3966 C3962 1.380 1_545 S
C3966 C3965 1.378 1_545 S
C3967 C3964 1.499 . S
C3967 C3968 1.373 . S
C3967 C3969 1.372 1_565 S
C3968 H3941 0.950 . S
C3968 C3954 1.377 . S
C3968 C3967 1.373 . S
C3969 C3953 1.378 1_545 S
C3969 C3967 1.372 1_545 S
C3969 C3970 1.543 . S
C3970 C3969 1.543 . S
C3970 C3971 1.397 . S
C3970 C3975 1.363 . S
C3971 H3942 0.950 . S
C3971 C3970 1.397 . S
C3971 C3972 1.334 . S
C3972 H3943 0.950 . S
C3972 C3971 1.334 . S
C3972 C3973 1.287 . S
C3973 C3972 1.287 . S
C3973 C3974 1.524 . S
C3973 H3976 0.999 . S
C3974 H3944 0.950 . S
C3974 C3973 1.524 . S
C3974 C3975 1.415 . S
C3975 H3945 0.950 . S
C3975 C3970 1.363 . S
C3975 C3974 1.415 . S
H3976 C3973 0.999 . S
H3977 C3958 0.913 . S
H3978 C3996 0.951 . S
H3979 C3998 0.951 . S
H3980 C4000 0.950 . S
H3981 C4001 0.953 1_565 S
H3982 C4003 0.950 . S
H3983 C4006 0.950 . S
H3984 C4007 0.950 . S
H3985 C4009 0.950 . S
H3986 C4010 0.950 . S
H3987 C4011 0.951 . S
H3988 C4013 0.951 . S
H3989 C4015 0.950 . S
H3990 C4016 0.950 . S
H3991 C4018 0.950 . S
H3992 C4021 0.950 . S
H3993 C4022 0.950 . S
H3994 C4024 0.950 . S
H3995 C4025 0.950 . S
C3996 H3978 0.951 . S
C3996 C3997 1.366 . S
C3996 C3998 1.388 . S
C3997 C3996 1.366 . S
C3997 C4001 1.385 . S
C3998 H3979 0.951 . S
C3998 C3996 1.388 . S
C3998 C3999 1.366 . S
C3999 C3998 1.366 . S
C3999 C4000 1.414 . S
C3999 C4002 1.499 . S
C4000 H3980 0.950 . S
C4000 C3999 1.414 . S
C4000 C4001 1.374 . S
C4001 H3981 0.953 1_545 S
C4001 C3997 1.385 . S
C4001 C4000 1.374 . S
C4002 C3999 1.499 . S
C4002 C4003 1.373 1_545 S
C4002 C4004 1.389 . S
C4003 H3982 0.950 . S
C4003 C4002 1.373 1_565 S
C4003 C4019 1.377 . S
C4004 C4002 1.389 . S
C4004 C4005 1.524 . S
C4004 C4018 1.377 . S
C4005 C4004 1.524 . S
C4005 C4006 1.397 . S
C4005 C4010 1.363 . S
C4006 H3983 0.950 . S
C4006 C4005 1.397 . S
C4006 C4007 1.334 . S
C4007 H3984 0.950 . S
C4007 C4006 1.334 . S
C4007 C4008 1.287 . S
C4008 C4007 1.287 . S
C4008 C4009 1.524 . S
C4008 H4027 0.913 . S
C4009 H3985 0.950 . S
C4009 C4008 1.524 . S
C4009 C4010 1.415 . S
C4010 H3986 0.950 . S
C4010 C4005 1.363 . S
C4010 C4009 1.415 . S
C4011 H3987 0.951 . S
C4011 C4012 1.366 . S
C4011 C4013 1.388 . S
C4012 C4011 1.366 . S
C4012 C4016 1.385 . S
C4013 H3988 0.951 . S
C4013 C4011 1.388 . S
C4013 C4014 1.366 . S
C4014 C4013 1.366 . S
C4014 C4015 1.414 . S
C4014 C4017 1.499 . S
C4015 H3989 0.950 . S
C4015 C4014 1.414 . S
C4015 C4016 1.374 . S
C4016 H3990 0.950 . S
C4016 C4012 1.385 . S
C4016 C4015 1.374 . S
C4017 C4014 1.499 . S
C4017 C4018 1.373 . S
C4017 C4019 1.389 1_545 S
C4018 H3991 0.950 . S
C4018 C4004 1.377 . S
C4018 C4017 1.373 . S
C4019 C4003 1.377 . S
C4019 C4017 1.389 1_565 S
C4019 C4020 1.524 . S
C4020 C4019 1.524 . S
C4020 C4021 1.397 . S
C4020 C4025 1.363 . S
C4021 H3992 0.950 . S
C4021 C4020 1.397 . S
C4021 C4022 1.334 . S
C4022 H3993 0.950 . S
C4022 C4021 1.334 . S
C4022 C4023 1.287 . S
C4023 C4022 1.287 . S
C4023 C4024 1.524 . S
C4023 H4026 0.999 . S
C4024 H3994 0.950 . S
C4024 C4023 1.524 . S
C4024 C4025 1.415 . S
C4025 H3995 0.950 . S
C4025 C4020 1.363 . S
C4025 C4024 1.415 . S
H4026 C4023 0.999 . S
H4027 C4008 0.913 . S
H4028 C4046 0.951 . S
H4029 C4048 0.951 . S
H4030 C4050 0.950 . S
H4031 C4051 0.950 . S
H4032 C4053 0.950 . S
H4033 C4056 0.950 . S
H4034 C4057 0.950 . S
H4035 C4059 0.950 . S
H4036 C4060 0.950 . S
H4037 C4061 0.951 . S
H4038 C4063 0.951 . S
H4039 C4065 0.950 . S
H4040 C4066 0.950 . S
H4041 C4068 0.950 . S
H4042 C4071 0.950 . S
H4043 C4072 0.950 . S
H4044 C4074 0.950 . S
H4045 C4075 0.950 . S
C4046 H4028 0.951 . S
C4046 C4047 1.366 1_565 S
C4046 C4048 1.388 . S
C4047 C4046 1.366 1_545 S
C4047 C4051 1.385 . S
C4048 H4029 0.951 . S
C4048 C4046 1.388 . S
C4048 C4049 1.389 . S
C4049 C4048 1.389 . S
C4049 C4050 1.400 1_565 S
C4049 C4052 1.489 . S
C4050 H4030 0.950 . S
C4050 C4049 1.400 1_545 S
C4050 C4051 1.374 . S
C4051 H4031 0.950 . S
C4051 C4047 1.385 . S
C4051 C4050 1.374 . S
C4052 C4049 1.489 . S
C4052 C4053 1.373 1_565 S
C4052 C4054 1.389 . S
C4053 H4032 0.950 . S
C4053 C4052 1.373 1_545 S
C4053 C4069 1.377 . S
C4054 C4052 1.389 . S
C4054 C4055 1.524 . S
C4054 C4068 1.377 . S
C4055 C4054 1.524 . S
C4055 C4056 1.397 . S
C4055 C4060 1.363 . S
C4056 H4033 0.950 . S
C4056 C4055 1.397 . S
C4056 C4057 1.334 . S
C4057 H4034 0.950 . S
C4057 C4056 1.334 . S
C4057 C4058 1.287 . S
C4058 C4057 1.287 . S
C4058 C4059 1.524 . S
C4058 H4077 0.913 . S
C4059 H4035 0.950 . S
C4059 C4058 1.524 . S
C4059 C4060 1.415 . S
C4060 H4036 0.950 . S
C4060 C4055 1.363 . S
C4060 C4059 1.415 . S
C4061 H4037 0.951 . S
C4061 C4062 1.366 1_545 S
C4061 C4063 1.388 . S
C4062 C4061 1.366 1_565 S
C4062 C4066 1.385 . S
C4063 H4038 0.951 . S
C4063 C4061 1.388 . S
C4063 C4064 1.366 1_545 S
C4064 C4063 1.366 1_565 S
C4064 C4065 1.414 . S
C4064 C4067 1.499 . S
C4065 H4039 0.950 . S
C4065 C4064 1.414 . S
C4065 C4066 1.374 . S
C4066 H4040 0.950 . S
C4066 C4062 1.385 . S
C4066 C4065 1.374 . S
C4067 C4064 1.499 . S
C4067 C4068 1.373 . S
C4067 C4069 1.389 1_565 S
C4068 H4041 0.950 . S
C4068 C4054 1.377 . S
C4068 C4067 1.373 . S
C4069 C4053 1.377 . S
C4069 C4067 1.389 1_545 S
C4069 C4070 1.524 . S
C4070 C4069 1.524 . S
C4070 C4071 1.397 . S
C4070 C4075 1.363 . S
C4071 H4042 0.950 . S
C4071 C4070 1.397 . S
C4071 C4072 1.334 . S
C4072 H4043 0.950 . S
C4072 C4071 1.334 . S
C4072 C4073 1.287 . S
C4073 C4072 1.287 . S
C4073 C4074 1.524 . S
C4073 H4076 0.999 . S
C4074 H4044 0.950 . S
C4074 C4073 1.524 . S
C4074 C4075 1.415 . S
C4075 H4045 0.950 . S
C4075 C4070 1.363 . S
C4075 C4074 1.415 . S
H4076 C4073 0.999 . S
H4077 C4058 0.913 . S
H4078 C4096 0.951 . S
H4079 C4098 0.951 . S
H4080 C4100 0.950 . S
H4081 C4101 0.950 . S
H4082 C4103 0.950 . S
H4083 C4106 0.950 1_545 S
H4084 C4107 0.972 . S
H4085 C4109 0.950 . S
H4086 C4110 0.950 . S
H4087 C4111 0.951 . S
H4088 C4113 0.951 . S
H4089 C4115 0.950 . S
H4090 C4116 0.950 . S
H4091 C4118 0.950 . S
H4092 C4121 0.950 1_565 S
H4093 C4122 0.950 . S
H4094 C4124 0.950 . S
H4095 C4125 0.950 . S
C4096 H4078 0.951 . S
C4096 C4097 1.366 1_565 S
C4096 C4098 1.388 . S
C4097 C4096 1.366 1_545 S
C4097 C4101 1.385 . S
C4098 H4079 0.951 . S
C4098 C4096 1.388 . S
C4098 C4099 1.366 1_565 S
C4099 C4098 1.366 1_545 S
C4099 C4100 1.414 . S
C4099 C4102 1.499 . S
C4100 H4080 0.950 . S
C4100 C4099 1.414 . S
C4100 C4101 1.374 . S
C4101 H4081 0.950 . S
C4101 C4097 1.385 . S
C4101 C4100 1.374 . S
C4102 C4099 1.499 . S
C4102 C4103 1.373 . S
C4102 C4104 1.389 1_545 S
C4103 H4082 0.950 . S
C4103 C4102 1.373 . S
C4103 C4119 1.377 . S
C4104 C4102 1.389 1_565 S
C4104 C4105 1.524 . S
C4104 C4118 1.377 . S
C4105 C4104 1.524 . S
C4105 C4106 1.397 . S
C4105 C4110 1.363 . S
C4106 H4083 0.950 1_565 S
C4106 C4105 1.397 . S
C4106 C4107 1.334 . S
C4107 H4084 0.972 . S
C4107 C4106 1.334 . S
C4107 C4108 1.287 . S
C4108 C4107 1.287 . S
C4108 C4109 1.524 . S
C4108 H4127 0.913 . S
C4109 H4085 0.950 . S
C4109 C4108 1.524 . S
C4109 C4110 1.415 . S
C4110 H4086 0.950 . S
C4110 C4105 1.363 . S
C4110 C4109 1.415 . S
C4111 H4087 0.951 . S
C4111 C4112 1.366 1_545 S
C4111 C4113 1.388 . S
C4112 C4111 1.366 1_565 S
C4112 C4116 1.385 . S
C4113 H4088 0.951 . S
C4113 C4111 1.388 . S
C4113 C4114 1.362 1_545 S
C4114 C4113 1.362 1_565 S
C4114 C4115 1.417 . S
C4114 C4117 1.503 1_565 S
C4115 H4089 0.950 . S
C4115 C4114 1.417 . S
C4115 C4116 1.374 . S
C4116 H4090 0.950 . S
C4116 C4112 1.385 . S
C4116 C4115 1.374 . S
C4117 C4114 1.503 1_545 S
C4117 C4118 1.365 1_545 S
C4117 C4119 1.395 . S
C4118 H4091 0.950 . S
C4118 C4104 1.377 . S
C4118 C4117 1.365 1_565 S
C4119 C4103 1.377 . S
C4119 C4117 1.395 . S
C4119 C4120 1.524 . S
C4120 C4119 1.524 . S
C4120 C4121 1.397 . S
C4120 C4125 1.363 . S
C4121 H4092 0.950 1_545 S
C4121 C4120 1.397 . S
C4121 C4122 1.334 . S
C4122 H4093 0.950 . S
C4122 C4121 1.334 . S
C4122 C4123 1.287 . S
C4123 C4122 1.287 . S
C4123 C4124 1.524 . S
C4123 H4126 0.999 . S
C4124 H4094 0.950 . S
C4124 C4123 1.524 . S
C4124 C4125 1.415 . S
C4125 H4095 0.950 . S
C4125 C4120 1.363 . S
C4125 C4124 1.415 . S
H4126 C4123 0.999 . S
H4127 C4108 0.913 . S
C547 C316 1.885 . S
C562 C5 1.849 . S
C597 C327 1.943 . S
C612 C19 1.938 . S
C647 C335 1.758 . S
C662 C30 1.791 . S
C697 C41 1.743 . S
C712 C349 1.738 . S
C747 C272 1.886 . S
C762 C49 1.848 . S
C797 C283 1.738 . S
C812 C63 1.744 . S
C847 C291 1.758 . S
C862 C74 1.791 . S
C897 C85 1.938 . S
C912 C305 1.943 . S
C947 C426 1.818 . S
C962 C93 1.776 . S
C997 C434 1.371 . S
C1012 C107 1.813 . S
C1047 C401 1.801 . S
C1062 C118 1.853 . S
C1097 C415 1.688 . S
C1112 C126 1.289 . S
C1147 C137 1.770 . S
C1162 C382 1.826 . S
C1197 C148 1.289 . S
C1212 C393 1.687 . S
C1247 C357 1.802 . S
C1262 C162 1.854 . S
C1297 C173 1.814 . S
C1312 C368 1.370 . S
C1347 C184 1.807 . S
C1362 C503 1.824 . S
C1397 C195 1.806 . S
C1412 C481 1.824 . S
C1447 C206 1.589 . S
C1462 C489 1.211 . S
C1497 C459 1.858 . S
C1512 C217 1.863 . S
C1547 C225 1.501 . S
C1562 C470 1.903 . S
C1597 C239 1.855 . S
C1612 C448 1.866 . S
C1647 C522 1.213 . S
C1662 C250 1.589 . S
C1697 C258 1.501 . S
C1712 C514 1.903 . S
C1747 C170 1.776 . S
C1762 C8 1.891 . S
C1797 C16 1.998 . S
C1812 C140 2.088 . S
C1847 C27 1.416 . S
C1862 C151 1.751 . S
C1897 C38 1.770 . S
C1912 C159 1.448 . S
C1947 C104 1.776 . S
C1962 C52 1.891 . S
C1997 C60 1.771 . S
C2012 C115 1.446 . S
C2047 C71 1.415 . S
C2062 C129 1.752 . S
C2097 C82 1.999 . S
C2112 C96 2.088 . S
C2147 C228 1.844 . S
C2162 C181 1.507 . S
C2197 C192 1.506 . S
C2212 C261 1.843 . S
C2247 C203 1.593 . S
C2262 C236 1.324 . S
C2297 C247 1.594 . S
C2312 C214 1.323 . S
C2347 C269 1.430 . S
C2362 C437 1.734 . S
C2397 C404 1.791 . S
C2412 C280 1.633 . S
C2447 C294 1.713 . S
C2462 C412 1.564 1_545 S
C2497 C302 1.476 . S
C2512 C423 1.211 . S
C2547 C313 1.432 . S
C2562 C371 1.734 . S
C2597 C379 1.215 . S
C2612 C324 1.470 . S
C2647 C390 1.570 1_565 S
C2662 C338 1.706 . S
C2697 C346 1.639 . S
C2712 C360 1.783 . S
C2747 C492 1.680 . S
C2762 C445 1.371 . S
C2797 C525 1.679 . S
C2812 C456 1.372 . S
C2847 C500 1.507 . S
C2862 C467 1.805 1_455 S
C2897 C511 1.809 1_455 S
C2912 C478 1.503 . S
C2947 C227 1.491 . S
C2962 C7 1.579 . S
C2997 C194 1.569 . S
C3012 C18 1.676 . S
C3047 C29 1.283 . S
C3062 C205 1.369 . S
C3097 C216 1.569 . S
C3112 C40 1.655 . S
C3147 C51 1.580 . S
C3162 C260 1.491 . S
C3197 C62 1.655 . S
C3212 C238 1.569 . S
C3247 C73 1.282 . S
C3262 C249 1.369 . S
C3297 C84 1.676 . S
C3312 C183 1.569 . S
C3347 C95 1.704 . S
C3362 C172 1.697 . S
C3397 C106 1.697 . S
C3412 C139 1.705 . S
C3447 C150 1.465 . S
C3462 C117 1.444 . S
C3497 C128 1.465 . S
C3512 C161 1.444 . S
C3547 C491 1.521 . S
C3562 C271 1.537 . S
C3597 C282 1.629 . S
C3612 C458 1.531 . S
C3647 C293 1.702 . S
C3662 C469 1.694 . S
C3697 C480 1.673 . S
C3712 C304 1.786 . S
C3747 C524 1.521 . S
C3762 C315 1.537 . S
C3797 C502 1.673 . S
C3812 C326 1.786 . S
C3847 C337 1.701 . S
C3862 C513 1.694 . S
C3897 C348 1.629 . S
C3912 C447 1.531 . S
C3947 C436 1.439 . S
C3962 C359 1.563 . S
C3997 C403 1.562 . S
C4012 C370 1.436 . S
C4047 C381 1.370 1_545 S
C4062 C414 1.477 . S
C4097 C392 1.479 . S
C4112 C425 1.367 1_565 S
