# Generated by pormake.
# Topology umq, (4)-cn, num edge types: 1
# Building blocks:
#     Node 0, Type 0, BuildingBlock: TATPOV_clean_sbu_0, # of connection points: 4
#     Node 1, Type 0, BuildingBlock: TATPOV_clean_sbu_0, # of connection points: 4
#     Node 2, Type 0, BuildingBlock: TATPOV_clean_sbu_0, # of connection points: 4
#     Node 3, Type 0, BuildingBlock: TATPOV_clean_sbu_0, # of connection points: 4
#     Node 4, Type 0, BuildingBlock: TATPOV_clean_sbu_0, # of connection points: 4
#     Node 5, Type 0, BuildingBlock: TATPOV_clean_sbu_0, # of connection points: 4
#     Node 6, Type 0, BuildingBlock: TATPOV_clean_sbu_0, # of connection points: 4
#     Node 7, Type 0, BuildingBlock: TATPOV_clean_sbu_0, # of connection points: 4
#     Node 8, Type 0, BuildingBlock: TATPOV_clean_sbu_0, # of connection points: 4
#     Node 9, Type 0, BuildingBlock: TATPOV_clean_sbu_0, # of connection points: 4
#     Node 10, Type 0, BuildingBlock: TATPOV_clean_sbu_0, # of connection points: 4
#     Node 11, Type 0, BuildingBlock: TATPOV_clean_sbu_0, # of connection points: 4
#     Node 12, Type 0, BuildingBlock: TATPOV_clean_sbu_0, # of connection points: 4
#     Node 13, Type 0, BuildingBlock: TATPOV_clean_sbu_0, # of connection points: 4
#     Node 14, Type 0, BuildingBlock: TATPOV_clean_sbu_0, # of connection points: 4
#     Node 15, Type 0, BuildingBlock: TATPOV_clean_sbu_0, # of connection points: 4
#     Node 16, Type 0, BuildingBlock: TATPOV_clean_sbu_0, # of connection points: 4
#     Node 17, Type 0, BuildingBlock: TATPOV_clean_sbu_0, # of connection points: 4
#     Node 18, Type 0, BuildingBlock: TATPOV_clean_sbu_0, # of connection points: 4
#     Node 19, Type 0, BuildingBlock: TATPOV_clean_sbu_0, # of connection points: 4
#     Node 20, Type 0, BuildingBlock: TATPOV_clean_sbu_0, # of connection points: 4
#     Node 21, Type 0, BuildingBlock: TATPOV_clean_sbu_0, # of connection points: 4
#     Node 22, Type 0, BuildingBlock: TATPOV_clean_sbu_0, # of connection points: 4
#     Node 23, Type 0, BuildingBlock: TATPOV_clean_sbu_0, # of connection points: 4
#     Node 24, Type 0, BuildingBlock: TATPOV_clean_sbu_0, # of connection points: 4
#     Node 25, Type 0, BuildingBlock: TATPOV_clean_sbu_0, # of connection points: 4
#     Node 26, Type 0, BuildingBlock: TATPOV_clean_sbu_0, # of connection points: 4
#     Node 27, Type 0, BuildingBlock: TATPOV_clean_sbu_0, # of connection points: 4
#     Node 28, Type 0, BuildingBlock: TATPOV_clean_sbu_0, # of connection points: 4
#     Node 29, Type 0, BuildingBlock: TATPOV_clean_sbu_0, # of connection points: 4
#     Node 30, Type 0, BuildingBlock: TATPOV_clean_sbu_0, # of connection points: 4
#     Node 31, Type 0, BuildingBlock: TATPOV_clean_sbu_0, # of connection points: 4
#     Edge 32, Type (0, 0), BuildingBlock: XIVTED_clean_linker_0, # of connection points: 2
#     Edge 33, Type (0, 0), BuildingBlock: XIVTED_clean_linker_0, # of connection points: 2
#     Edge 34, Type (0, 0), BuildingBlock: XIVTED_clean_linker_0, # of connection points: 2
#     Edge 35, Type (0, 0), BuildingBlock: XIVTED_clean_linker_0, # of connection points: 2
#     Edge 36, Type (0, 0), BuildingBlock: XIVTED_clean_linker_0, # of connection points: 2
#     Edge 37, Type (0, 0), BuildingBlock: XIVTED_clean_linker_0, # of connection points: 2
#     Edge 38, Type (0, 0), BuildingBlock: XIVTED_clean_linker_0, # of connection points: 2
#     Edge 39, Type (0, 0), BuildingBlock: XIVTED_clean_linker_0, # of connection points: 2
#     Edge 40, Type (0, 0), BuildingBlock: XIVTED_clean_linker_0, # of connection points: 2
#     Edge 41, Type (0, 0), BuildingBlock: XIVTED_clean_linker_0, # of connection points: 2
#     Edge 42, Type (0, 0), BuildingBlock: XIVTED_clean_linker_0, # of connection points: 2
#     Edge 43, Type (0, 0), BuildingBlock: XIVTED_clean_linker_0, # of connection points: 2
#     Edge 44, Type (0, 0), BuildingBlock: XIVTED_clean_linker_0, # of connection points: 2
#     Edge 45, Type (0, 0), BuildingBlock: XIVTED_clean_linker_0, # of connection points: 2
#     Edge 46, Type (0, 0), BuildingBlock: XIVTED_clean_linker_0, # of connection points: 2
#     Edge 47, Type (0, 0), BuildingBlock: XIVTED_clean_linker_0, # of connection points: 2
#     Edge 48, Type (0, 0), BuildingBlock: XIVTED_clean_linker_0, # of connection points: 2
#     Edge 49, Type (0, 0), BuildingBlock: XIVTED_clean_linker_0, # of connection points: 2
#     Edge 50, Type (0, 0), BuildingBlock: XIVTED_clean_linker_0, # of connection points: 2
#     Edge 51, Type (0, 0), BuildingBlock: XIVTED_clean_linker_0, # of connection points: 2
#     Edge 52, Type (0, 0), BuildingBlock: XIVTED_clean_linker_0, # of connection points: 2
#     Edge 53, Type (0, 0), BuildingBlock: XIVTED_clean_linker_0, # of connection points: 2
#     Edge 54, Type (0, 0), BuildingBlock: XIVTED_clean_linker_0, # of connection points: 2
#     Edge 55, Type (0, 0), BuildingBlock: XIVTED_clean_linker_0, # of connection points: 2
#     Edge 56, Type (0, 0), BuildingBlock: XIVTED_clean_linker_0, # of connection points: 2
#     Edge 57, Type (0, 0), BuildingBlock: XIVTED_clean_linker_0, # of connection points: 2
#     Edge 58, Type (0, 0), BuildingBlock: XIVTED_clean_linker_0, # of connection points: 2
#     Edge 59, Type (0, 0), BuildingBlock: XIVTED_clean_linker_0, # of connection points: 2
#     Edge 60, Type (0, 0), BuildingBlock: XIVTED_clean_linker_0, # of connection points: 2
#     Edge 61, Type (0, 0), BuildingBlock: XIVTED_clean_linker_0, # of connection points: 2
#     Edge 62, Type (0, 0), BuildingBlock: XIVTED_clean_linker_0, # of connection points: 2
#     Edge 63, Type (0, 0), BuildingBlock: XIVTED_clean_linker_0, # of connection points: 2
#     Edge 64, Type (0, 0), BuildingBlock: XIVTED_clean_linker_0, # of connection points: 2
#     Edge 65, Type (0, 0), BuildingBlock: XIVTED_clean_linker_0, # of connection points: 2
#     Edge 66, Type (0, 0), BuildingBlock: XIVTED_clean_linker_0, # of connection points: 2
#     Edge 67, Type (0, 0), BuildingBlock: XIVTED_clean_linker_0, # of connection points: 2
#     Edge 68, Type (0, 0), BuildingBlock: XIVTED_clean_linker_0, # of connection points: 2
#     Edge 69, Type (0, 0), BuildingBlock: XIVTED_clean_linker_0, # of connection points: 2
#     Edge 70, Type (0, 0), BuildingBlock: XIVTED_clean_linker_0, # of connection points: 2
#     Edge 71, Type (0, 0), BuildingBlock: XIVTED_clean_linker_0, # of connection points: 2
#     Edge 72, Type (0, 0), BuildingBlock: XIVTED_clean_linker_0, # of connection points: 2
#     Edge 73, Type (0, 0), BuildingBlock: XIVTED_clean_linker_0, # of connection points: 2
#     Edge 74, Type (0, 0), BuildingBlock: XIVTED_clean_linker_0, # of connection points: 2
#     Edge 75, Type (0, 0), BuildingBlock: XIVTED_clean_linker_0, # of connection points: 2
#     Edge 76, Type (0, 0), BuildingBlock: XIVTED_clean_linker_0, # of connection points: 2
#     Edge 77, Type (0, 0), BuildingBlock: XIVTED_clean_linker_0, # of connection points: 2
#     Edge 78, Type (0, 0), BuildingBlock: XIVTED_clean_linker_0, # of connection points: 2
#     Edge 79, Type (0, 0), BuildingBlock: XIVTED_clean_linker_0, # of connection points: 2
#     Edge 80, Type (0, 0), BuildingBlock: XIVTED_clean_linker_0, # of connection points: 2
#     Edge 81, Type (0, 0), BuildingBlock: XIVTED_clean_linker_0, # of connection points: 2
#     Edge 82, Type (0, 0), BuildingBlock: XIVTED_clean_linker_0, # of connection points: 2
#     Edge 83, Type (0, 0), BuildingBlock: XIVTED_clean_linker_0, # of connection points: 2
#     Edge 84, Type (0, 0), BuildingBlock: XIVTED_clean_linker_0, # of connection points: 2
#     Edge 85, Type (0, 0), BuildingBlock: XIVTED_clean_linker_0, # of connection points: 2
#     Edge 86, Type (0, 0), BuildingBlock: XIVTED_clean_linker_0, # of connection points: 2
#     Edge 87, Type (0, 0), BuildingBlock: XIVTED_clean_linker_0, # of connection points: 2
#     Edge 88, Type (0, 0), BuildingBlock: XIVTED_clean_linker_0, # of connection points: 2
#     Edge 89, Type (0, 0), BuildingBlock: XIVTED_clean_linker_0, # of connection points: 2
#     Edge 90, Type (0, 0), BuildingBlock: XIVTED_clean_linker_0, # of connection points: 2
#     Edge 91, Type (0, 0), BuildingBlock: XIVTED_clean_linker_0, # of connection points: 2
#     Edge 92, Type (0, 0), BuildingBlock: XIVTED_clean_linker_0, # of connection points: 2
#     Edge 93, Type (0, 0), BuildingBlock: XIVTED_clean_linker_0, # of connection points: 2
#     Edge 94, Type (0, 0), BuildingBlock: XIVTED_clean_linker_0, # of connection points: 2
#     Edge 95, Type (0, 0), BuildingBlock: XIVTED_clean_linker_0, # of connection points: 2
# Relax obj value: 0.062
# Max RMSD: 0.083
# Mean RMSD: 0.083
data_MOF--net-umq--node1-TATPOV_clean_sbu_0--edge1-XIVTED_clean_linker_0
_symmetry_space_group_name_H-M    P1
_symmetry_Int_Tables_number       1
_symmetry_cell_setting            triclinic
loop_
_symmetry_equiv_pos_as_xyz
'x, y, z'
_cell_length_a     66.132753
_cell_length_b     66.29907
_cell_length_c     44.870676
_cell_angle_alpha  90.002686
_cell_angle_beta   90.014547
_cell_angle_gamma 89.800221
loop_
_atom_site_label
_atom_site_type_symbol
_atom_site_fract_x
_atom_site_fract_y
_atom_site_fract_z
_atom_type_partial_charge
Zn0 Zn 0.2238 0.10998 0.11723 0.0
Zn1 Zn 0.24591 0.08727 0.15303 0.0
O2 O 0.24534 0.07257 0.11238 0.0
O3 O 0.22319 0.08908 0.08511 0.0
O4 O 0.25788 0.06562 0.17935 0.0
O5 O 0.20047 0.11206 0.14514 0.0
O6 O 0.21921 0.09386 0.17543 0.0
C7 C 0.23515 0.07436 0.08846 0.0
C8 C 0.26295 0.12745 0.13675 0.0
O9 O 0.26527 0.11139 0.15205 0.0
O10 O 0.24728 0.12974 0.12072 0.0
C11 C 0.24808 0.0492 0.17718 0.0
O12 O 0.23224 0.04861 0.1595 0.0
C13 C 0.20286 0.10346 0.17002 0.0
Zn14 Zn 0.89003 0.25132 0.12971 0.0
Zn15 Zn 0.92192 0.24631 0.16574 0.0
O16 O 0.93412 0.24455 0.12303 0.0
O17 O 0.90779 0.25007 0.09393 0.0
O18 O 0.94648 0.2433 0.19223 0.0
O19 O 0.87775 0.22587 0.14721 0.0
O20 O 0.90405 0.22219 0.17686 0.0
C21 C 0.92649 0.24675 0.09713 0.0
C22 C 0.89473 0.2842 0.16985 0.0
O23 O 0.90927 0.27344 0.1797 0.0
O24 O 0.88433 0.27831 0.14789 0.0
C25 C 0.95793 0.25835 0.19679 0.0
O26 O 0.95354 0.27567 0.18405 0.0
C27 C 0.88689 0.21615 0.1675 0.0
Zn28 Zn 0.78891 0.88454 0.11799 0.0
Zn29 Zn 0.76853 0.90924 0.15354 0.0
O30 O 0.77521 0.92598 0.11564 0.0
O31 O 0.79483 0.90635 0.0886 0.0
O32 O 0.75597 0.93042 0.18028 0.0
O33 O 0.80944 0.87832 0.14924 0.0
O34 O 0.79251 0.89852 0.17919 0.0
C35 C 0.78617 0.92314 0.09268 0.0
C36 C 0.74723 0.87209 0.1301 0.0
O37 O 0.7466 0.88767 0.14676 0.0
O38 O 0.76314 0.86806 0.11543 0.0
C39 C 0.74559 0.94485 0.16942 0.0
O40 O 0.74161 0.94499 0.14074 0.0
C41 C 0.80732 0.88652 0.17449 0.0
Zn42 Zn 0.11007 0.77166 0.12458 0.0
Zn43 Zn 0.08382 0.76022 0.16424 0.0
O44 O 0.06644 0.76743 0.12677 0.0
O45 O 0.08877 0.78167 0.09719 0.0
O46 O 0.06244 0.75492 0.19544 0.0
O47 O 0.12371 0.7913 0.15123 0.0
O48 O 0.10056 0.78311 0.18422 0.0
C49 C 0.07073 0.7768 0.1028 0.0
C50 C 0.11366 0.72945 0.14037 0.0
O51 O 0.10014 0.73367 0.1597 0.0
O52 O 0.1196 0.74282 0.12223 0.0
C53 C 0.04672 0.74452 0.19019 0.0
O54 O 0.04476 0.73576 0.16408 0.0
C55 C 0.11587 0.79363 0.17668 0.0
Zn56 Zn 0.22459 0.87012 0.37546 0.0
Zn57 Zn 0.239 0.89477 0.33453 0.0
O58 O 0.23253 0.91381 0.36985 0.0
O59 O 0.2165 0.89362 0.40072 0.0
O60 O 0.24772 0.91442 0.30299 0.0
O61 O 0.20403 0.85854 0.34784 0.0
O62 O 0.21469 0.88038 0.31446 0.0
C63 C 0.2226 0.91104 0.39377 0.0
C64 C 0.26669 0.86277 0.36098 0.0
O65 O 0.26376 0.87647 0.34151 0.0
O66 O 0.2526 0.8579 0.3787 0.0
C67 C 0.25934 0.92914 0.30883 0.0
O68 O 0.26687 0.93092 0.3358 0.0
C69 C 0.2026 0.86635 0.32222 0.0
Zn70 Zn 0.15898 0.21912 0.35148 0.0
Zn71 Zn 0.1222 0.22596 0.33621 0.0
O72 O 0.11884 0.22608 0.38199 0.0
O73 O 0.1512 0.22566 0.39349 0.0
O74 O 0.09403 0.2301 0.3197 0.0
O75 O 0.15934 0.19062 0.33772 0.0
O76 O 0.13024 0.19845 0.31701 0.0
C77 C 0.13288 0.22722 0.40138 0.0
C78 C 0.15675 0.25452 0.31801 0.0
O79 O 0.13799 0.25128 0.3224 0.0
O80 O 0.16968 0.24134 0.32545 0.0
C81 C 0.08598 0.24737 0.31607 0.0
O82 O 0.09594 0.26353 0.32439 0.0
C83 C 0.14473 0.18597 0.32096 0.0
Zn84 Zn 0.77905 0.1318 0.34816 0.0
Zn85 Zn 0.76268 0.10542 0.31168 0.0
O86 O 0.77031 0.08914 0.34986 0.0
O87 O 0.78698 0.11083 0.37761 0.0
O88 O 0.75251 0.08334 0.28449 0.0
O89 O 0.7995 0.14024 0.31831 0.0
O90 O 0.78629 0.11824 0.28716 0.0
C91 C 0.78043 0.0932 0.37325 0.0
C92 C 0.73665 0.13966 0.33546 0.0
O93 O 0.73831 0.12452 0.31808 0.0
O94 O 0.75169 0.14535 0.3508 0.0
C95 C 0.74271 0.06848 0.29508 0.0
O96 O 0.73807 0.06837 0.32354 0.0
C97 C 0.79945 0.13171 0.29313 0.0
Zn98 Zn 0.84986 0.76814 0.36278 0.0
Zn99 Zn 0.88415 0.75815 0.33987 0.0
O100 O 0.89173 0.75819 0.38462 0.0
O101 O 0.86097 0.76094 0.40301 0.0
O102 O 0.91015 0.75124 0.3184 0.0
O103 O 0.85049 0.79644 0.34785 0.0
O104 O 0.8763 0.78589 0.32118 0.0
C105 C 0.87973 0.75814 0.40682 0.0
C106 C 0.84615 0.73267 0.32916 0.0
O107 O 0.86537 0.73409 0.32968 0.0
O108 O 0.8353 0.74682 0.33934 0.0
C109 C 0.92668 0.76 0.32473 0.0
O110 O 0.92689 0.77348 0.3462 0.0
C111 C 0.86334 0.79955 0.32755 0.0
Zn112 Zn 0.77666 0.89514 0.86738 0.0
Zn113 Zn 0.7663 0.92338 0.82931 0.0
O114 O 0.7713 0.93859 0.86937 0.0
O115 O 0.78287 0.91484 0.89924 0.0
O116 O 0.75969 0.94671 0.80226 0.0
O117 O 0.79921 0.88575 0.84132 0.0
O118 O 0.79111 0.90952 0.80913 0.0
C119 C 0.77848 0.9331 0.89446 0.0
C120 C 0.73608 0.89049 0.84469 0.0
O121 O 0.74067 0.90563 0.82858 0.0
O122 O 0.7486 0.88365 0.86355 0.0
C123 C 0.75093 0.94549 0.77712 0.0
O124 O 0.74567 0.92772 0.7668 0.0
C125 C 0.80241 0.89478 0.81696 0.0
Zn126 Zn 0.12437 0.78616 0.88765 0.0
Zn127 Zn 0.1 0.76872 0.84861 0.0
O128 O 0.08172 0.77462 0.88513 0.0
O129 O 0.10096 0.79321 0.91413 0.0
O130 O 0.07946 0.75986 0.81825 0.0
O131 O 0.1345 0.80654 0.85832 0.0
O132 O 0.11347 0.79253 0.82657 0.0
C133 C 0.08403 0.78527 0.90849 0.0
C134 C 0.13433 0.74397 0.87371 0.0
O135 O 0.11985 0.74515 0.85501 0.0
O136 O 0.13837 0.75884 0.89046 0.0
C137 C 0.06721 0.74539 0.82223 0.0
O138 O 0.06879 0.73429 0.84638 0.0
C139 C 0.12679 0.8058 0.83256 0.0
Zn140 Zn 0.23824 0.10986 0.85676 0.0
Zn141 Zn 0.24987 0.0819 0.82078 0.0
O142 O 0.25135 0.06882 0.86249 0.0
O143 O 0.24721 0.09458 0.89282 0.0
O144 O 0.25659 0.05779 0.79562 0.0
O145 O 0.2095 0.109 0.84233 0.0
O146 O 0.22156 0.0906 0.80566 0.0
C147 C 0.25118 0.07614 0.88868 0.0
C148 C 0.27089 0.12206 0.81852 0.0
O149 O 0.27163 0.10343 0.81154 0.0
O150 O 0.25734 0.12856 0.836 0.0
C151 C 0.266 0.05703 0.77097 0.0
O152 O 0.27249 0.07377 0.75862 0.0
C153 C 0.20707 0.10066 0.81723 0.0
Zn154 Zn 0.87413 0.22302 0.86732 0.0
Zn155 Zn 0.90428 0.23053 0.82958 0.0
O156 O 0.91799 0.22901 0.87101 0.0
O157 O 0.89394 0.21767 0.90042 0.0
O158 O 0.92806 0.23386 0.8022 0.0
O159 O 0.86438 0.19995 0.84174 0.0
O160 O 0.89068 0.20514 0.81277 0.0
C161 C 0.91215 0.22274 0.89642 0.0
C162 C 0.87162 0.26205 0.83764 0.0
O163 O 0.88673 0.25557 0.82289 0.0
O164 O 0.8643 0.25169 0.85878 0.0
C165 C 0.9364 0.25071 0.79681 0.0
O166 O 0.9291 0.26717 0.8091 0.0
C167 C 0.87483 0.19516 0.81917 0.0
Zn168 Zn 0.78047 0.13412 0.60143 0.0
Zn169 Zn 0.76118 0.10697 0.63425 0.0
O170 O 0.76835 0.09167 0.59525 0.0
O171 O 0.78714 0.11337 0.57063 0.0
O172 O 0.75021 0.08484 0.66044 0.0
O173 O 0.80087 0.1397 0.63316 0.0
O174 O 0.78499 0.11713 0.66032 0.0
C175 C 0.77932 0.09606 0.57286 0.0
C176 C 0.73821 0.14421 0.61399 0.0
O177 O 0.7383 0.12794 0.62919 0.0
O178 O 0.75398 0.14959 0.60004 0.0
C179 C 0.74137 0.06919 0.65058 0.0
O180 O 0.73731 0.06785 0.62198 0.0
C181 C 0.79927 0.12984 0.65715 0.0
Zn182 Zn 0.86264 0.75837 0.6719 0.0
Zn183 Zn 0.89943 0.7572 0.68812 0.0
O184 O 0.90306 0.7561 0.64238 0.0
O185 O 0.87135 0.74976 0.63094 0.0
O186 O 0.92799 0.75597 0.70428 0.0
O187 O 0.85922 0.78756 0.68132 0.0
O188 O 0.88838 0.78464 0.70445 0.0
C189 C 0.88968 0.75132 0.62324 0.0
C190 C 0.868 0.72592 0.70961 0.0
O191 O 0.88625 0.73095 0.7044 0.0
O192 O 0.85372 0.73724 0.70102 0.0
C193 C 0.93692 0.7393 0.70947 0.0
O194 O 0.92756 0.72231 0.70361 0.0
C195 C 0.87266 0.79501 0.69798 0.0
Zn196 Zn 0.22264 0.86596 0.60944 0.0
Zn197 Zn 0.24152 0.89181 0.6449 0.0
O198 O 0.23298 0.90905 0.60867 0.0
O199 O 0.21427 0.88839 0.58214 0.0
O200 O 0.25349 0.913 0.67151 0.0
O201 O 0.20364 0.8578 0.64189 0.0
O202 O 0.21844 0.88011 0.67084 0.0
C203 C 0.22157 0.90576 0.58638 0.0
C204 C 0.26529 0.85681 0.61844 0.0
O205 O 0.26469 0.87185 0.63613 0.0
O206 O 0.2496 0.85174 0.60407 0.0
C207 C 0.26503 0.92651 0.66091 0.0
O208 O 0.27047 0.92546 0.63278 0.0
C209 C 0.20487 0.86677 0.6667 0.0
Zn210 Zn 0.14901 0.23476 0.67531 0.0
Zn211 Zn 0.11079 0.2348 0.68441 0.0
O212 O 0.11103 0.23466 0.63849 0.0
O213 O 0.14342 0.2408 0.63218 0.0
O214 O 0.08129 0.23517 0.6952 0.0
O215 O 0.1522 0.20611 0.68815 0.0
O216 O 0.12077 0.20807 0.70393 0.0
C217 C 0.12585 0.23869 0.62142 0.0
C218 C 0.13866 0.26838 0.70892 0.0
O219 O 0.12124 0.26194 0.70143 0.0
O220 O 0.15417 0.2578 0.70343 0.0
C221 C 0.07076 0.25125 0.69463 0.0
O222 O 0.07916 0.26817 0.68587 0.0
C223 C 0.13735 0.19831 0.70155 0.0
Zn224 Zn 0.75555 0.61939 0.62996 0.0
Zn225 Zn 0.75034 0.5886 0.6679 0.0
O226 O 0.7476 0.57562 0.62599 0.0
O227 O 0.75362 0.60074 0.5951 0.0
O228 O 0.74776 0.56456 0.69527 0.0
O229 O 0.73035 0.63243 0.64798 0.0
O230 O 0.72643 0.60684 0.67875 0.0
C231 C 0.7497 0.58234 0.59956 0.0
C232 C 0.78863 0.61531 0.66994 0.0
O233 O 0.77763 0.60136 0.68073 0.0
O234 O 0.7829 0.62506 0.64722 0.0
C235 C 0.76309 0.5533 0.69963 0.0
O236 O 0.78022 0.55775 0.68637 0.0
C237 C 0.72061 0.62391 0.66879 0.0
Zn238 Zn 0.38923 0.71511 0.60024 0.0
Zn239 Zn 0.41421 0.73417 0.63654 0.0
O240 O 0.43155 0.72665 0.59965 0.0
O241 O 0.41173 0.70726 0.57277 0.0
O242 O 0.43546 0.74579 0.66375 0.0
O243 O 0.38066 0.69581 0.63189 0.0
O244 O 0.40198 0.71107 0.66196 0.0
C245 C 0.42877 0.71529 0.57718 0.0
C246 C 0.37858 0.75725 0.6111 0.0
O247 O 0.39361 0.75691 0.62891 0.0
O248 O 0.37433 0.74177 0.59575 0.0
C249 C 0.44893 0.75762 0.65366 0.0
O250 O 0.44782 0.76359 0.62579 0.0
C251 C 0.38881 0.6974 0.65727 0.0
Zn252 Zn 0.24097 0.38387 0.6261 0.0
Zn253 Zn 0.24297 0.41599 0.66228 0.0
O254 O 0.24343 0.42789 0.61963 0.0
O255 O 0.23929 0.40164 0.59019 0.0
O256 O 0.24363 0.4413 0.68712 0.0
O257 O 0.26831 0.37496 0.64275 0.0
O258 O 0.26908 0.40105 0.67313 0.0
C259 C 0.24131 0.42044 0.59367 0.0
C260 C 0.20831 0.38511 0.66758 0.0
O261 O 0.21737 0.40086 0.6768 0.0
O262 O 0.21519 0.37522 0.64569 0.0
C263 C 0.23614 0.44292 0.7131 0.0
O264 O 0.22769 0.42714 0.7256 0.0
C265 C 0.27712 0.38493 0.66306 0.0
Zn266 Zn 0.61259 0.28805 0.60733 0.0
Zn267 Zn 0.58869 0.26678 0.64303 0.0
O268 O 0.57134 0.27257 0.60564 0.0
O269 O 0.58989 0.29313 0.57866 0.0
O270 O 0.56806 0.2541 0.66998 0.0
O271 O 0.61816 0.30864 0.63884 0.0
O272 O 0.5984 0.29103 0.66838 0.0
C273 C 0.57351 0.28377 0.58284 0.0
C274 C 0.62639 0.2466 0.61926 0.0
O275 O 0.6109 0.24556 0.6361 0.0
O276 O 0.62987 0.2626 0.60462 0.0
C277 C 0.55489 0.24192 0.65999 0.0
O278 O 0.55616 0.23582 0.63219 0.0
C279 C 0.60985 0.30619 0.66395 0.0
Zn280 Zn 0.72599 0.35091 0.8506 0.0
Zn281 Zn 0.73168 0.38758 0.83462 0.0
O282 O 0.7324 0.39123 0.88031 0.0
O283 O 0.73325 0.35903 0.89227 0.0
O284 O 0.73467 0.41573 0.8181 0.0
O285 O 0.69727 0.34968 0.83735 0.0
O286 O 0.70448 0.37843 0.81554 0.0
C287 C 0.7345 0.37738 0.89978 0.0
C288 C 0.7611 0.35395 0.81607 0.0
O289 O 0.75748 0.3726 0.82047 0.0
O290 O 0.74827 0.34085 0.82384 0.0
C291 C 0.75164 0.42452 0.8158 0.0
O292 O 0.76804 0.41528 0.82525 0.0
C293 C 0.69235 0.36377 0.81981 0.0
Zn294 Zn 0.63744 0.73957 0.84407 0.0
Zn295 Zn 0.60793 0.74987 0.80893 0.0
O296 O 0.5944 0.74256 0.84948 0.0
O297 O 0.61924 0.72944 0.87578 0.0
O298 O 0.58295 0.75513 0.78447 0.0
O299 O 0.64843 0.71964 0.81527 0.0
O300 O 0.62264 0.7266 0.7859 0.0
C301 C 0.60074 0.73381 0.873 0.0
C302 C 0.63811 0.78169 0.82738 0.0
O303 O 0.62349 0.77693 0.81028 0.0
O304 O 0.64603 0.76865 0.84441 0.0
C305 C 0.58126 0.76541 0.7607 0.0
O306 O 0.59731 0.7741 0.74926 0.0
C307 C 0.63858 0.71637 0.79164 0.0
Zn308 Zn 0.28958 0.63523 0.87549 0.0
Zn309 Zn 0.2719 0.60919 0.83903 0.0
O310 O 0.27909 0.59239 0.87632 0.0
O311 O 0.29748 0.61296 0.90349 0.0
O312 O 0.26117 0.58766 0.81171 0.0
O313 O 0.30936 0.6438 0.84433 0.0
O314 O 0.29576 0.62107 0.81481 0.0
C315 C 0.28998 0.59569 0.89917 0.0
C316 C 0.24701 0.64393 0.86366 0.0
O317 O 0.24825 0.62898 0.84586 0.0
O318 O 0.26223 0.64902 0.87911 0.0
C319 C 0.2492 0.57429 0.82164 0.0
O320 O 0.24267 0.5757 0.84922 0.0
C321 C 0.30899 0.63467 0.81959 0.0
Zn322 Zn 0.36249 0.28136 0.835 0.0
Zn323 Zn 0.39414 0.26843 0.80477 0.0
O324 O 0.40509 0.274 0.8473 0.0
O325 O 0.37855 0.28497 0.87219 0.0
O326 O 0.41988 0.26056 0.78401 0.0
O327 O 0.35896 0.30502 0.8083 0.0
O328 O 0.38321 0.29278 0.77983 0.0
C329 C 0.39714 0.28058 0.87126 0.0
C330 C 0.3579 0.24099 0.81068 0.0
O331 O 0.37605 0.24336 0.80191 0.0
O332 O 0.34891 0.25497 0.82471 0.0
C333 C 0.42142 0.2492 0.76132 0.0
O334 O 0.40501 0.2418 0.74903 0.0
C335 C 0.36957 0.30603 0.78494 0.0
Zn336 Zn 0.28271 0.37695 0.37079 0.0
Zn337 Zn 0.27222 0.40511 0.33096 0.0
O338 O 0.27185 0.41931 0.37202 0.0
O339 O 0.28525 0.39752 0.40336 0.0
O340 O 0.26528 0.42772 0.30251 0.0
O341 O 0.30716 0.36959 0.34635 0.0
O342 O 0.29949 0.39417 0.31532 0.0
C343 C 0.27817 0.41488 0.39803 0.0
C344 C 0.24452 0.36941 0.34053 0.0
O345 O 0.2494 0.38472 0.32506 0.0
O346 O 0.25546 0.36378 0.36222 0.0
C347 C 0.25354 0.44199 0.31046 0.0
O348 O 0.2455 0.44166 0.33721 0.0
C349 C 0.31119 0.3798 0.32329 0.0
Zn350 Zn 0.61058 0.27728 0.36776 0.0
Zn351 Zn 0.58662 0.26159 0.32717 0.0
O352 O 0.56806 0.26686 0.36394 0.0
O353 O 0.58794 0.28264 0.39558 0.0
O354 O 0.5662 0.25206 0.29687 0.0
O355 O 0.61934 0.29947 0.34093 0.0
O356 O 0.59957 0.2865 0.30646 0.0
C357 C 0.57073 0.27595 0.38863 0.0
C358 C 0.6217 0.23647 0.35065 0.0
O359 O 0.60704 0.23815 0.33233 0.0
O360 O 0.62569 0.25076 0.36846 0.0
C361 C 0.55221 0.24 0.3045 0.0
O362 O 0.55225 0.23255 0.33163 0.0
C363 C 0.61212 0.29995 0.31486 0.0
Zn364 Zn 0.70515 0.62534 0.37723 0.0
Zn365 Zn 0.71351 0.59625 0.33851 0.0
O366 O 0.713 0.58216 0.37969 0.0
O367 O 0.70042 0.60515 0.40987 0.0
O368 O 0.71741 0.57303 0.31025 0.0
O369 O 0.68181 0.63537 0.35236 0.0
O370 O 0.68768 0.6098 0.32232 0.0
C371 C 0.7066 0.58733 0.40537 0.0
C372 C 0.74446 0.62887 0.34807 0.0
O373 O 0.73838 0.61404 0.33249 0.0
O374 O 0.73375 0.63564 0.3693 0.0
C375 C 0.73288 0.56167 0.31182 0.0
O376 O 0.74682 0.56551 0.33188 0.0
C377 C 0.67727 0.62532 0.32934 0.0
Zn378 Zn 0.38612 0.71985 0.36872 0.0
Zn379 Zn 0.40913 0.73555 0.32702 0.0
O380 O 0.42914 0.72834 0.36119 0.0
O381 O 0.41009 0.71128 0.39243 0.0
O382 O 0.42807 0.74451 0.29446 0.0
O383 O 0.3734 0.70002 0.34125 0.0
O384 O 0.39329 0.71234 0.30647 0.0
C385 C 0.42723 0.71785 0.3848 0.0
C386 C 0.37767 0.76213 0.35657 0.0
O387 O 0.39091 0.76 0.33615 0.0
O388 O 0.37368 0.74757 0.37391 0.0
C389 C 0.44315 0.75587 0.29948 0.0
O390 O 0.44585 0.76314 0.32643 0.0
C391 C 0.37964 0.69994 0.31464 0.0
Zn392 Zn 0.26502 0.62918 0.11743 0.0
Zn393 Zn 0.25509 0.60039 0.15545 0.0
O394 O 0.26402 0.58489 0.11743 0.0
O395 O 0.27578 0.60902 0.08857 0.0
O396 O 0.24922 0.57765 0.18409 0.0
O397 O 0.28444 0.64137 0.14631 0.0
O398 O 0.27799 0.61615 0.17672 0.0
C399 C 0.27273 0.59053 0.09357 0.0
C400 C 0.2229 0.63013 0.13394 0.0
O401 O 0.22805 0.61606 0.1518 0.0
O402 O 0.23574 0.63759 0.11618 0.0
C403 C 0.24209 0.56104 0.17464 0.0
O404 O 0.23741 0.55925 0.14631 0.0
C405 C 0.28786 0.63211 0.17043 0.0
Zn406 Zn 0.37034 0.28501 0.11499 0.0
Zn407 Zn 0.39949 0.26571 0.14267 0.0
O408 O 0.4112 0.27164 0.10052 0.0
O409 O 0.38735 0.2899 0.07926 0.0
O410 O 0.42392 0.25403 0.1633 0.0
O411 O 0.36873 0.30667 0.14539 0.0
O412 O 0.39243 0.29026 0.16997 0.0
C413 C 0.4047 0.2819 0.07847 0.0
C414 C 0.35989 0.2439 0.13182 0.0
O415 O 0.37768 0.24338 0.1428 0.0
O416 O 0.3536 0.25974 0.11892 0.0
C417 C 0.42368 0.246 0.189 0.0
O418 O 0.40637 0.24404 0.20304 0.0
C419 C 0.38023 0.30515 0.16777 0.0
Zn420 Zn 0.75086 0.356 0.16586 0.0
Zn421 Zn 0.75029 0.3926 0.18196 0.0
O422 O 0.75008 0.39633 0.1363 0.0
O423 O 0.75785 0.36505 0.12442 0.0
O424 O 0.75051 0.42075 0.1986 0.0
O425 O 0.72199 0.35129 0.17638 0.0
O426 O 0.72354 0.38069 0.19887 0.0
C427 C 0.75493 0.38322 0.1168 0.0
C428 C 0.78359 0.3631 0.20278 0.0
O429 O 0.77757 0.38105 0.19763 0.0
O430 O 0.773 0.34834 0.19429 0.0
C431 C 0.73617 0.43319 0.19411 0.0
O432 O 0.72079 0.42774 0.17744 0.0
C433 C 0.71392 0.36456 0.19276 0.0
Zn434 Zn 0.62868 0.72344 0.11325 0.0
Zn435 Zn 0.60076 0.74426 0.14186 0.0
O436 O 0.58845 0.73914 0.09979 0.0
O437 O 0.61033 0.71849 0.0788 0.0
O438 O 0.57715 0.75629 0.16442 0.0
O439 O 0.63073 0.70222 0.14446 0.0
O440 O 0.60747 0.71946 0.16864 0.0
C441 C 0.5937 0.72793 0.07804 0.0
C442 C 0.64058 0.76471 0.12838 0.0
O443 O 0.62332 0.76577 0.14102 0.0
O444 O 0.64587 0.74864 0.11511 0.0
C445 C 0.56067 0.74658 0.16183 0.0
O446 O 0.56032 0.73052 0.14467 0.0
C447 C 0.61933 0.70428 0.16685 0.0
H448 H 0.32186 0.24097 0.10933 0.0
H449 H 0.29995 0.12856 0.16574 0.0
H450 H 0.36642 0.20666 0.15838 0.0
H451 H 0.26065 0.16388 0.10911 0.0
H452 H 0.32436 0.15654 0.16559 0.0
H453 H 0.29909 0.21258 0.11155 0.0
C454 C 0.32692 0.22742 0.12062 0.0
C455 C 0.34618 0.22627 0.13363 0.0
C456 C 0.31037 0.15806 0.15323 0.0
C457 C 0.31986 0.19328 0.13624 0.0
C458 C 0.29644 0.14213 0.15332 0.0
C459 C 0.27819 0.14382 0.13741 0.0
C460 C 0.30591 0.17576 0.13722 0.0
C461 C 0.27446 0.16176 0.1217 0.0
C462 C 0.31383 0.21111 0.12185 0.0
C463 C 0.35173 0.20821 0.14798 0.0
N464 N 0.28813 0.17692 0.12206 0.0
N465 N 0.3386 0.19237 0.14892 0.0
H466 H 0.88402 0.28718 0.22816 0.0
H467 H 0.81783 0.38394 0.18914 0.0
H468 H 0.8883 0.32153 0.14693 0.0
H469 H 0.79656 0.33231 0.23824 0.0
H470 H 0.8523 0.37022 0.19153 0.0
H471 H 0.86121 0.31304 0.24864 0.0
C472 C 0.88093 0.30065 0.21525 0.0
C473 C 0.88781 0.30228 0.18582 0.0
C474 C 0.84017 0.36233 0.20276 0.0
C475 C 0.86192 0.33163 0.20886 0.0
C476 C 0.82055 0.37018 0.20157 0.0
C477 C 0.80436 0.359 0.21306 0.0
C478 C 0.84351 0.34338 0.21589 0.0
C479 C 0.80865 0.34119 0.22872 0.0
C480 C 0.86784 0.31529 0.22683 0.0
C481 C 0.88314 0.31978 0.16969 0.0
N482 N 0.8278 0.33374 0.22928 0.0
N483 N 0.87024 0.33369 0.18127 0.0
H484 H 0.63815 0.80055 0.16 0.0
H485 H 0.74286 0.84029 0.09235 0.0
H486 H 0.67547 0.76834 0.09684 0.0
H487 H 0.71212 0.87154 0.1637 0.0
H488 H 0.71594 0.81561 0.09124 0.0
H489 H 0.66291 0.82824 0.15967 0.0
C490 C 0.65146 0.79931 0.14604 0.0
C491 C 0.65475 0.78202 0.12853 0.0
C492 C 0.71496 0.82785 0.10717 0.0
C493 C 0.68294 0.81355 0.12795 0.0
C494 C 0.73039 0.84203 0.10779 0.0
C495 C 0.72989 0.85799 0.12832 0.0
C496 C 0.69877 0.82942 0.12727 0.0
C497 C 0.71316 0.85945 0.14755 0.0
C498 C 0.66556 0.81508 0.14589 0.0
C499 C 0.67226 0.78124 0.11087 0.0
N500 N 0.69827 0.84525 0.14669 0.0
N501 N 0.68559 0.7967 0.11107 0.0
H502 H 0.20219 0.645 0.0868 0.0
H503 H 0.12155 0.70328 0.18674 0.0
H504 H 0.19696 0.63507 0.18144 0.0
H505 H 0.12903 0.71063 0.0919 0.0
H506 H 0.14445 0.67393 0.18497 0.0
H507 H 0.17089 0.6643 0.08774 0.0
C508 C 0.19426 0.64672 0.10778 0.0
C509 C 0.20227 0.63869 0.13414 0.0
C510 C 0.14073 0.68176 0.1645 0.0
C511 C 0.16652 0.66127 0.13563 0.0
C512 C 0.1276 0.69841 0.16549 0.0
C513 C 0.12368 0.70953 0.13949 0.0
C514 C 0.1498 0.67627 0.1373 0.0
C515 C 0.13193 0.70267 0.11255 0.0
C516 C 0.17635 0.65776 0.10835 0.0
C517 C 0.19126 0.64112 0.16065 0.0
N518 N 0.14471 0.68667 0.11223 0.0
N519 N 0.17409 0.65257 0.16086 0.0
H520 H 0.2809 0.84019 0.40709 0.0
H521 H 0.37255 0.79237 0.31507 0.0
H522 H 0.29676 0.86019 0.31862 0.0
H523 H 0.35497 0.77441 0.40379 0.0
H524 H 0.34816 0.82034 0.31771 0.0
H525 H 0.31105 0.81917 0.40807 0.0
C526 C 0.29082 0.84024 0.38787 0.0
C527 C 0.28615 0.85176 0.36257 0.0
C528 C 0.34987 0.81041 0.33671 0.0
C529 C 0.3208 0.82744 0.3634 0.0
C530 C 0.36383 0.7945 0.33526 0.0
C531 C 0.36558 0.78087 0.35908 0.0
C532 C 0.33769 0.81265 0.36219 0.0
C533 C 0.35393 0.78434 0.3847 0.0
C534 C 0.3081 0.82823 0.38846 0.0
C535 C 0.29975 0.85144 0.33852 0.0
N536 N 0.3404 0.79974 0.38544 0.0
N537 N 0.31636 0.83923 0.33935 0.0
H538 H 0.21572 0.35441 0.37745 0.0
H539 H 0.18881 0.26435 0.28275 0.0
H540 H 0.23377 0.35624 0.2852 0.0
H541 H 0.1421 0.29048 0.33769 0.0
H542 H 0.20629 0.29694 0.28234 0.0
H543 H 0.18925 0.33009 0.36454 0.0
C544 C 0.21384 0.3499 0.35441 0.0
C545 C 0.22683 0.35722 0.33231 0.0
C546 C 0.19189 0.29567 0.29369 0.0
C547 C 0.19716 0.32917 0.31761 0.0
C548 C 0.18194 0.27715 0.29391 0.0
C549 C 0.16404 0.27481 0.31029 0.0
C550 C 0.18426 0.31163 0.31092 0.0
C551 C 0.15582 0.29174 0.32466 0.0
C552 C 0.19872 0.33616 0.34704 0.0
C553 C 0.22391 0.35094 0.30277 0.0
N554 N 0.16633 0.30933 0.32543 0.0
N555 N 0.20968 0.33682 0.29634 0.0
H556 H 0.70352 0.13964 0.29782 0.0
H557 H 0.64708 0.22423 0.39469 0.0
H558 H 0.72579 0.16529 0.37988 0.0
H559 H 0.62732 0.2082 0.30615 0.0
H560 H 0.67276 0.19804 0.39222 0.0
H561 H 0.67278 0.16048 0.30268 0.0
C562 C 0.70188 0.14949 0.31692 0.0
C563 C 0.71734 0.15088 0.33831 0.0
C564 C 0.66277 0.20009 0.37332 0.0
C565 C 0.68234 0.1745 0.3441 0.0
C566 C 0.64804 0.21506 0.37474 0.0
C567 C 0.6352 0.21861 0.35042 0.0
C568 C 0.66494 0.18857 0.34725 0.0
C569 C 0.63699 0.20601 0.32536 0.0
C570 C 0.68439 0.16138 0.31965 0.0
C571 C 0.71443 0.16387 0.36263 0.0
N572 N 0.65181 0.19167 0.32424 0.0
N573 N 0.69737 0.17514 0.36478 0.0
H574 H 0.77408 0.6404 0.38631 0.0
H575 H 0.81312 0.7272 0.29398 0.0
H576 H 0.75756 0.64114 0.29339 0.0
H577 H 0.85575 0.69523 0.34936 0.0
H578 H 0.79161 0.6971 0.29298 0.0
H579 H 0.80337 0.66164 0.37481 0.0
C580 C 0.77686 0.64481 0.36343 0.0
C581 C 0.76351 0.63911 0.34072 0.0
C582 C 0.80597 0.6965 0.30458 0.0
C583 C 0.79643 0.6637 0.32763 0.0
C584 C 0.81821 0.7136 0.30512 0.0
C585 C 0.8362 0.71354 0.32163 0.0
C586 C 0.81142 0.67963 0.32168 0.0
C587 C 0.84206 0.69572 0.33612 0.0
C588 C 0.79356 0.65678 0.35687 0.0
C589 C 0.76764 0.6452 0.31142 0.0
N590 N 0.82939 0.67961 0.33656 0.0
N591 N 0.7835 0.65766 0.30576 0.0
H592 H 0.7135 0.8849 0.79373 0.0
H593 H 0.64595 0.80291 0.87705 0.0
H594 H 0.71453 0.87207 0.88793 0.0
H595 H 0.64839 0.8072 0.7813 0.0
H596 H 0.66482 0.8342 0.88094 0.0
H597 H 0.68426 0.8622 0.78836 0.0
C598 C 0.70728 0.87767 0.81332 0.0
C599 C 0.71655 0.88007 0.84125 0.0
C600 C 0.6611 0.82854 0.85898 0.0
C601 C 0.68335 0.85436 0.83536 0.0
C602 C 0.65027 0.81069 0.8568 0.0
C603 C 0.64589 0.80244 0.82885 0.0
C604 C 0.66812 0.83802 0.83301 0.0
C605 C 0.65159 0.81316 0.80326 0.0
C606 C 0.69071 0.86468 0.81024 0.0
C607 C 0.70802 0.87037 0.86593 0.0
N608 N 0.66283 0.83028 0.80591 0.0
N609 N 0.69205 0.85788 0.86235 0.0
H610 H 0.16075 0.7337 0.9177 0.0
H611 H 0.21348 0.64381 0.82693 0.0
H612 H 0.1386 0.71341 0.83235 0.0
H613 H 0.23734 0.67115 0.9068 0.0
H614 H 0.18346 0.66563 0.83105 0.0
H615 H 0.18596 0.70699 0.91694 0.0
C616 C 0.16107 0.7235 0.89885 0.0
C617 C 0.14768 0.72598 0.87487 0.0
C618 C 0.19524 0.6667 0.84773 0.0
C619 C 0.17687 0.6953 0.87367 0.0
C620 C 0.21235 0.65425 0.84542 0.0
C621 C 0.22806 0.65579 0.86638 0.0
C622 C 0.19383 0.68062 0.87128 0.0
C623 C 0.22577 0.66956 0.88991 0.0
C624 C 0.17555 0.70822 0.8984 0.0
C625 C 0.1487 0.71209 0.85125 0.0
N626 N 0.20907 0.68142 0.89163 0.0
N627 N 0.16324 0.69745 0.85106 0.0
H628 H 0.37297 0.20256 0.80192 0.0
H629 H 0.26117 0.15753 0.79351 0.0
H630 H 0.31746 0.23691 0.80447 0.0
H631 H 0.31252 0.12043 0.81635 0.0
H632 H 0.28378 0.18557 0.7834 0.0
H633 H 0.35298 0.17152 0.79532 0.0
C634 C 0.35664 0.20358 0.80073 0.0
C635 C 0.34679 0.22224 0.80418 0.0
C636 C 0.29024 0.17127 0.79023 0.0
C637 C 0.32408 0.18717 0.79616 0.0
C638 C 0.27734 0.15524 0.79583 0.0
C639 C 0.28506 0.13683 0.80604 0.0
C640 C 0.31104 0.16905 0.7955 0.0
C641 C 0.30608 0.1345 0.80851 0.0
C642 C 0.34529 0.18592 0.79701 0.0
C643 C 0.32566 0.22281 0.80241 0.0
N644 N 0.31843 0.15063 0.80384 0.0
N645 N 0.31506 0.20557 0.7986 0.0
H646 H 0.86108 0.27362 0.7815 0.0
H647 H 0.79688 0.36853 0.83636 0.0
H648 H 0.85788 0.29224 0.87343 0.0
H649 H 0.77145 0.32268 0.77959 0.0
H650 H 0.82917 0.3501 0.83625 0.0
H651 H 0.83772 0.30123 0.76822 0.0
C652 C 0.85596 0.28392 0.79868 0.0
C653 C 0.86119 0.2807 0.8286 0.0
C654 C 0.81669 0.34454 0.82298 0.0
C655 C 0.83516 0.31225 0.81355 0.0
C656 C 0.79837 0.35508 0.8228 0.0
C657 C 0.78154 0.34697 0.8081 0.0
C658 C 0.8182 0.32614 0.80772 0.0
C659 C 0.78411 0.32932 0.79129 0.0
C660 C 0.84267 0.29954 0.79111 0.0
C661 C 0.85403 0.29423 0.85015 0.0
N662 N 0.80209 0.31934 0.79176 0.0
N663 N 0.8413 0.30943 0.84222 0.0
H664 H 0.62781 0.21155 0.65252 0.0
H665 H 0.73154 0.17592 0.57673 0.0
H666 H 0.65823 0.24282 0.58112 0.0
H667 H 0.70358 0.14275 0.64844 0.0
H668 H 0.70312 0.19911 0.5765 0.0
H669 H 0.65367 0.18489 0.64996 0.0
C670 C 0.6398 0.21276 0.63619 0.0
C671 C 0.64091 0.22955 0.61715 0.0
C672 C 0.70306 0.18675 0.59228 0.0
C673 C 0.67046 0.19919 0.61414 0.0
C674 C 0.71937 0.17345 0.59244 0.0
C675 C 0.72008 0.1574 0.61281 0.0
C676 C 0.68723 0.18421 0.61277 0.0
C677 C 0.70368 0.15494 0.6324 0.0
C678 C 0.65456 0.19756 0.63478 0.0
C679 C 0.65679 0.23029 0.59643 0.0
N680 N 0.68796 0.16832 0.63206 0.0
N681 N 0.6709 0.21542 0.59559 0.0
H682 H 0.82579 0.62246 0.6467 0.0
H683 H 0.83578 0.71395 0.74302 0.0
H684 H 0.7917 0.62588 0.72833 0.0
H685 H 0.88815 0.69106 0.69672 0.0
H686 H 0.8217 0.67994 0.74391 0.0
H687 H 0.85144 0.64443 0.6685 0.0
C688 C 0.82413 0.62728 0.66965 0.0
C689 C 0.80667 0.6225 0.68578 0.0
C690 C 0.8366 0.68218 0.73448 0.0
C691 C 0.83538 0.64829 0.71039 0.0
C692 C 0.84463 0.7016 0.73399 0.0
C693 C 0.86298 0.70531 0.71939 0.0
C694 C 0.84668 0.66657 0.71932 0.0
C695 C 0.87388 0.68882 0.70804 0.0
C696 C 0.83875 0.63983 0.68211 0.0
C697 C 0.80505 0.62924 0.71529 0.0
N698 N 0.86525 0.67024 0.70734 0.0
N699 N 0.81891 0.64237 0.72639 0.0
H700 H 0.27345 0.82895 0.57548 0.0
H701 H 0.37661 0.79005 0.64885 0.0
H702 H 0.29981 0.85709 0.653 0.0
H703 H 0.3492 0.76477 0.56998 0.0
H704 H 0.35077 0.81675 0.64876 0.0
H705 H 0.30302 0.80733 0.57124 0.0
C706 C 0.28552 0.83064 0.59161 0.0
C707 C 0.28403 0.84474 0.61482 0.0
C708 C 0.35059 0.80545 0.63133 0.0
C709 C 0.31812 0.81979 0.61017 0.0
C710 C 0.36536 0.79026 0.6313 0.0
C711 C 0.36494 0.775 0.60957 0.0
C712 C 0.33536 0.80536 0.60945 0.0
C713 C 0.35001 0.77603 0.58739 0.0
C714 C 0.30248 0.81828 0.58914 0.0
C715 C 0.3003 0.84637 0.63482 0.0
N716 N 0.3358 0.79081 0.58806 0.0
N717 N 0.31662 0.83388 0.63222 0.0
H718 H 0.11532 0.30082 0.69375 0.0
H719 H 0.20708 0.37496 0.72626 0.0
H720 H 0.16908 0.28437 0.74258 0.0
H721 H 0.17169 0.37432 0.64565 0.0
H722 H 0.18371 0.35034 0.74832 0.0
H723 H 0.12666 0.33597 0.69342 0.0
C724 C 0.12907 0.30472 0.7055 0.0
C725 C 0.14153 0.28965 0.71767 0.0
C726 C 0.18065 0.35623 0.72625 0.0
C727 C 0.15445 0.32965 0.71741 0.0
C728 C 0.19386 0.37034 0.71377 0.0
C729 C 0.19125 0.37646 0.68412 0.0
C730 C 0.1647 0.34858 0.70899 0.0
C731 C 0.17416 0.36982 0.66857 0.0
C732 C 0.13557 0.32474 0.70513 0.0
C733 C 0.15924 0.29553 0.7325 0.0
N734 N 0.16163 0.35603 0.68107 0.0
N735 N 0.16537 0.31505 0.73153 0.0
H736 H 0.27164 0.05977 0.07013 0.0
H737 H 0.22642 0.04631 0.90781 0.0
H738 H 0.20823 0.06019 0.04781 0.0
H739 H 0.28131 0.0779 0.92937 0.0
H740 H 0.22494 0.03369 0.95926 0.0
H741 H 0.27939 0.04838 0.01935 0.0
C742 C 0.25931 0.05661 0.05493 0.0
C743 C 0.23932 0.06133 0.0627 0.0
C744 C 0.23775 0.04267 0.95231 0.0
C745 C 0.24802 0.04828 0.0052 0.0
C746 C 0.23864 0.04978 0.92305 0.0
C747 C 0.2539 0.06324 0.9148 0.0
C748 C 0.25231 0.04905 0.97302 0.0
C749 C 0.26926 0.06762 0.93522 0.0
C750 C 0.26375 0.05019 0.02602 0.0
C751 C 0.22387 0.05708 0.04231 0.0
N752 N 0.26793 0.06077 0.96363 0.0
N753 N 0.22857 0.0511 0.01423 0.0
H754 H 0.93901 0.25226 0.91131 0.0
H755 H 0.94276 0.21149 0.07803 0.0
H756 H 0.91524 0.19526 0.94111 0.0
H757 H 0.93518 0.27394 0.05397 0.0
H758 H 0.94955 0.20342 0.02555 0.0
H759 H 0.95381 0.25746 0.96099 0.0
C760 C 0.93758 0.24051 0.92796 0.0
C761 C 0.92568 0.22346 0.92246 0.0
C762 C 0.94725 0.21901 0.032 0.0
C763 C 0.94261 0.22918 0.97873 0.0
C764 C 0.94359 0.22363 0.0619 0.0
C765 C 0.93841 0.24337 0.07005 0.0
C766 C 0.94578 0.2343 0.01042 0.0
C767 C 0.93917 0.25854 0.04836 0.0
C768 C 0.94595 0.24352 0.95624 0.0
C769 C 0.92411 0.20874 0.94474 0.0
N770 N 0.94244 0.25365 0.01936 0.0
N771 N 0.93228 0.21204 0.97206 0.0
H772 H 0.74863 0.95189 0.92571 0.0
H773 H 0.81914 0.93453 0.06112 0.0
H774 H 0.81323 0.9444 0.92104 0.0
H775 H 0.75505 0.94504 0.06892 0.0
H776 H 0.81874 0.95051 0.01223 0.0
H777 H 0.75183 0.96182 0.97812 0.0
C778 C 0.76358 0.95337 0.93536 0.0
C779 C 0.7807 0.94719 0.91939 0.0
C780 C 0.80479 0.94985 0.02481 0.0
C781 C 0.78447 0.95771 0.97924 0.0
C782 C 0.80507 0.94077 0.05278 0.0
C783 C 0.78704 0.93816 0.06862 0.0
C784 C 0.78619 0.95557 0.0121 0.0
C785 C 0.76923 0.94663 0.05712 0.0
C786 C 0.76541 0.95882 0.96536 0.0
C787 C 0.79969 0.94897 0.93285 0.0
N788 N 0.76911 0.95441 0.02905 0.0
N789 N 0.80104 0.95365 0.9622 0.0
H790 H 0.07217 0.81849 0.93916 0.0
H791 H 0.05006 0.74817 0.07209 0.0
H792 H 0.06051 0.7549 0.93033 0.0
H793 H 0.0595 0.81224 0.07794 0.0
H794 H 0.04041 0.75213 0.01972 0.0
H795 H 0.05444 0.81854 0.98676 0.0
C796 C 0.06531 0.80464 0.94695 0.0
C797 C 0.0681 0.78659 0.93128 0.0
C798 C 0.04374 0.76547 0.03273 0.0
C799 C 0.04867 0.78622 0.9864 0.0
C800 C 0.04899 0.76321 0.06276 0.0
C801 C 0.05586 0.77989 0.07898 0.0
C802 C 0.04567 0.78449 0.01912 0.0
C803 C 0.05449 0.79901 0.06591 0.0
C804 C 0.05522 0.80461 0.97419 0.0
C805 C 0.0588 0.76908 0.94204 0.0
N806 N 0.05004 0.80075 0.03652 0.0
N807 N 0.05004 0.76917 0.96948 0.0
H808 H 0.2523 0.93346 0.41917 0.0
H809 H 0.24849 0.93419 0.56679 0.0
H810 H 0.18802 0.92366 0.42024 0.0
H811 H 0.18804 0.91204 0.55284 0.0
H812 H 0.24709 0.95088 0.51825 0.0
H813 H 0.25046 0.94643 0.46978 0.0
C814 C 0.23761 0.93509 0.42962 0.0
C815 C 0.22036 0.92703 0.4161 0.0
C816 C 0.23398 0.94266 0.52582 0.0
C817 C 0.21799 0.94133 0.47431 0.0
C818 C 0.2347 0.93335 0.5538 0.0
C819 C 0.21865 0.92111 0.56309 0.0
C820 C 0.21713 0.9394 0.50723 0.0
C821 C 0.20101 0.92079 0.54589 0.0
C822 C 0.23651 0.94238 0.45882 0.0
C823 C 0.20172 0.92937 0.43037 0.0
N824 N 0.20088 0.92943 0.51854 0.0
N825 N 0.20108 0.93586 0.459 0.0
H826 H 0.14968 0.25949 0.58348 0.0
H827 H 0.09801 0.21946 0.43355 0.0
H828 H 0.09613 0.2225 0.58542 0.0
H829 H 0.15791 0.2446 0.44117 0.0
H830 H 0.09312 0.22511 0.4875 0.0
H831 H 0.14841 0.25965 0.52951 0.0
C832 C 0.13756 0.25144 0.57247 0.0
C833 C 0.12321 0.24065 0.58891 0.0
C834 C 0.10723 0.22946 0.47714 0.0
C835 C 0.1218 0.2405 0.52675 0.0
C836 C 0.11001 0.22629 0.44648 0.0
C837 C 0.12849 0.23132 0.43303 0.0
C838 C 0.12295 0.23801 0.494 0.0
C839 C 0.14354 0.24017 0.45065 0.0
C840 C 0.13683 0.25152 0.54159 0.0
C841 C 0.10758 0.23086 0.57346 0.0
N842 N 0.14044 0.24318 0.48008 0.0
N843 N 0.10743 0.23076 0.54307 0.0
H844 H 0.75025 0.07288 0.54636 0.0
H845 H 0.81487 0.0818 0.40118 0.0
H846 H 0.81338 0.08836 0.54141 0.0
H847 H 0.7504 0.07304 0.40195 0.0
H848 H 0.81665 0.06955 0.45236 0.0
H849 H 0.75222 0.05931 0.49549 0.0
C850 C 0.7647 0.07267 0.53497 0.0
C851 C 0.78159 0.08211 0.5476 0.0
C852 C 0.80213 0.06967 0.44117 0.0
C853 C 0.78393 0.06692 0.48975 0.0
C854 C 0.80118 0.07651 0.41186 0.0
C855 C 0.78244 0.07866 0.39772 0.0
C856 C 0.78411 0.0658 0.45672 0.0
C857 C 0.76512 0.07167 0.41234 0.0
C858 C 0.7658 0.06504 0.50592 0.0
C859 C 0.79994 0.08155 0.53208 0.0
N860 N 0.76625 0.06615 0.44151 0.0
N861 N 0.80054 0.07443 0.50378 0.0
H862 H 0.87423 0.7225 0.58777 0.0
H863 H 0.91367 0.77198 0.43625 0.0
H864 H 0.91643 0.77191 0.58739 0.0
H865 H 0.86169 0.73347 0.44593 0.0
H866 H 0.92156 0.76664 0.48955 0.0
H867 H 0.87713 0.72008 0.53389 0.0
C868 C 0.88435 0.73268 0.57624 0.0
C869 C 0.89485 0.74763 0.59182 0.0
C870 C 0.90864 0.75915 0.47975 0.0
C871 C 0.89783 0.74539 0.52994 0.0
C872 C 0.9042 0.76213 0.44947 0.0
C873 C 0.88687 0.75335 0.43704 0.0
C874 C 0.89582 0.74702 0.49714 0.0
C875 C 0.87502 0.74075 0.45487 0.0
C876 C 0.88598 0.73135 0.54546 0.0
C877 C 0.90801 0.76026 0.57597 0.0
N878 N 0.87966 0.73804 0.48395 0.0
N879 N 0.90884 0.75915 0.54564 0.0
H880 H 0.7735 0.57566 0.5514 0.0
H881 H 0.6822 0.58346 0.45385 0.0
H882 H 0.71486 0.56221 0.5879 0.0
H883 H 0.73844 0.56222 0.4166 0.0
H884 H 0.69256 0.57058 0.50253 0.0
H885 H 0.76152 0.5654 0.50218 0.0
C886 C 0.75832 0.56976 0.54915 0.0
C887 C 0.74508 0.5698 0.57349 0.0
C888 C 0.70237 0.56808 0.48355 0.0
C889 C 0.73097 0.55899 0.51724 0.0
C890 C 0.69645 0.57546 0.45578 0.0
C891 C 0.70963 0.57413 0.4314 0.0
C892 C 0.7219 0.56003 0.4871 0.0
C893 C 0.72791 0.56361 0.43497 0.0
C894 C 0.75144 0.56394 0.52108 0.0
C895 C 0.72549 0.5623 0.56954 0.0
N896 N 0.73383 0.55754 0.46258 0.0
N897 N 0.71878 0.55779 0.54167 0.0
H898 H 0.45055 0.74735 0.40917 0.0
H899 H 0.44106 0.68113 0.54922 0.0
H900 H 0.44038 0.68325 0.41036 0.0
H901 H 0.45034 0.74539 0.55088 0.0
H902 H 0.45605 0.67975 0.49964 0.0
H903 H 0.46542 0.74503 0.45906 0.0
C904 C 0.45243 0.73264 0.41934 0.0
C905 C 0.44385 0.71551 0.40619 0.0
C906 C 0.45541 0.69413 0.51105 0.0
C907 C 0.46016 0.71279 0.46325 0.0
C908 C 0.44692 0.69487 0.53943 0.0
C909 C 0.44409 0.71345 0.55364 0.0
C910 C 0.46015 0.71224 0.49633 0.0
C911 C 0.45206 0.7308 0.54032 0.0
C912 C 0.46073 0.73132 0.44796 0.0
C913 C 0.44652 0.69684 0.42018 0.0
N914 N 0.45911 0.7299 0.51186 0.0
N915 N 0.454 0.69602 0.44828 0.0
H916 H 0.24451 0.43757 0.40847 0.0
H917 H 0.27319 0.44443 0.58015 0.0
H918 H 0.30267 0.42209 0.44554 0.0
H919 H 0.21619 0.42326 0.54603 0.0
H920 H 0.28289 0.45449 0.52943 0.0
H921 H 0.23405 0.45055 0.45737 0.0
C922 C 0.25536 0.43773 0.42656 0.0
C923 C 0.27433 0.42846 0.42333 0.0
C924 C 0.26793 0.44845 0.53335 0.0
C925 C 0.2626 0.44336 0.47873 0.0
C926 C 0.26235 0.44283 0.5622 0.0
C927 C 0.24398 0.43288 0.56694 0.0
C928 C 0.25486 0.44429 0.50948 0.0
C929 C 0.23055 0.4308 0.54303 0.0
C930 C 0.24936 0.44505 0.45439 0.0
C931 C 0.2878 0.42887 0.44741 0.0
N932 N 0.23636 0.4362 0.51515 0.0
N933 N 0.28158 0.43592 0.4743 0.0
H934 H 0.55995 0.3162 0.55178 0.0
H935 H 0.55156 0.2452 0.41701 0.0
H936 H 0.55335 0.25177 0.55901 0.0
H937 H 0.55513 0.30994 0.41262 0.0
H938 H 0.53835 0.24788 0.46785 0.0
H939 H 0.54426 0.31509 0.50267 0.0
C940 C 0.55461 0.30188 0.54327 0.0
C941 C 0.55833 0.284 0.55894 0.0
C942 C 0.54119 0.26156 0.45539 0.0
C943 C 0.54138 0.28238 0.50218 0.0
C944 C 0.54854 0.26001 0.42624 0.0
C945 C 0.55472 0.27738 0.4111 0.0
C946 C 0.54042 0.28061 0.46923 0.0
C947 C 0.55075 0.2962 0.42394 0.0
C948 C 0.54569 0.30119 0.51518 0.0
C949 C 0.55094 0.26585 0.54728 0.0
N950 N 0.54429 0.29732 0.45256 0.0
N951 N 0.54342 0.26538 0.51907 0.0
H952 H 0.75873 0.35512 0.93494 0.0
H953 H 0.73348 0.41197 0.08544 0.0
H954 H 0.72388 0.41024 0.93463 0.0
H955 H 0.77888 0.36559 0.07558 0.0
H956 H 0.73117 0.41438 0.03073 0.0
H957 H 0.76738 0.36082 0.98662 0.0
C958 C 0.75287 0.36849 0.94588 0.0
C959 C 0.74033 0.38208 0.93068 0.0
C960 C 0.74191 0.404 0.04065 0.0
C961 C 0.75011 0.38875 0.99038 0.0
C962 C 0.74329 0.40268 0.07178 0.0
C963 C 0.75612 0.38829 0.08489 0.0
C964 C 0.75348 0.39083 0.0229 0.0
C965 C 0.76849 0.3766 0.06634 0.0
C966 C 0.75794 0.37185 0.97543 0.0
C967 C 0.7335 0.39936 0.94576 0.0
N968 N 0.7667 0.37798 0.03638 0.0
N969 N 0.73821 0.40208 0.9751 0.0
H970 H 0.5742 0.75896 0.04967 0.0
H971 H 0.5726 0.7594 0.8974 0.0
H972 H 0.58723 0.69542 0.0429 0.0
H973 H 0.59941 0.70048 0.90747 0.0
H974 H 0.55932 0.75703 0.94827 0.0
H975 H 0.565 0.75938 -0.00299 0.0
C976 C 0.57429 0.74493 0.0373 0.0
C977 C 0.58189 0.72723 0.05027 0.0
C978 C 0.56784 0.74447 0.93934 0.0
C979 C 0.57148 0.72742 0.98999 0.0
C980 C 0.57513 0.74571 0.91008 0.0
C981 C 0.58744 0.73028 0.89869 0.0
C982 C 0.57308 0.72768 0.95701 0.0
C983 C 0.59029 0.71286 0.91578 0.0
C984 C 0.56907 0.74513 0.00705 0.0
C985 C 0.58183 0.70947 0.03343 0.0
N986 N 0.58344 0.71217 0.94419 0.0
N987 N 0.5771 0.7101 0.00406 0.0
H988 H 0.24797 0.5659 0.06163 0.0
H989 H 0.32287 0.58719 0.93318 0.0
H990 H 0.3101 0.58384 0.07156 0.0
H991 H 0.26049 0.57081 0.92032 0.0
H992 H 0.32206 0.57177 0.98247 0.0
H993 H 0.25557 0.55381 0.01119 0.0
C994 C 0.26342 0.56637 0.05365 0.0
C995 C 0.27841 0.57613 0.07026 0.0
C996 C 0.30864 0.57101 0.96867 0.0
C997 C 0.28711 0.56298 0.01276 0.0
C998 C 0.30916 0.57977 0.94049 0.0
C999 C 0.29157 0.5807 0.9232 0.0
C1000 C 0.29016 0.56396 0.98004 0.0
C1001 C 0.27428 0.57064 0.93333 0.0
C1002 C 0.26775 0.55963 0.0248 0.0
C1003 C 0.29813 0.57661 0.05908 0.0
N1004 N 0.27378 0.56326 0.9616 0.0
N1005 N 0.30184 0.57055 0.03075 0.0
H1006 H 0.42177 0.25277 0.89829 0.0
H1007 H 0.41246 0.31588 0.04752 0.0
H1008 H 0.39882 0.31341 0.9066 0.0
H1009 H 0.42185 0.25157 0.04568 0.0
H1010 H 0.42101 0.31756 -0.00528 0.0
H1011 H 0.43409 0.25457 0.95004 0.0
C1012 C 0.41997 0.26667 0.91072 0.0
C1013 C 0.4091 0.2829 0.89859 0.0
C1014 C 0.42173 0.30311 0.00592 0.0
C1015 C 0.42302 0.28509 0.95717 0.0
C1016 C 0.41698 0.30219 0.03608 0.0
C1017 C 0.41622 0.28354 0.05063 0.0
C1018 C 0.4251 0.28516 0.99003 0.0
C1019 C 0.42223 0.26622 0.03503 0.0
C1020 C 0.42689 0.26767 0.94019 0.0
C1021 C 0.40695 0.30052 0.91543 0.0
N1022 N 0.42589 0.26734 0.00521 0.0
N1023 N 0.41365 0.30108 0.94395 0.0
H1024 H 0.27383 0.04608 0.22531 0.0
H1025 H 0.24648 0.9298 0.25097 0.0
H1026 H 0.235 0.01091 0.16822 0.0
H1027 H 0.27823 0.96564 0.31617 0.0
H1028 H 0.2472 0.95827 0.2167 0.0
H1029 H 0.28028 0.01576 0.25543 0.0
C1030 C 0.26684 0.03197 0.21896 0.0
C1031 C 0.25368 0.03105 0.19446 0.0
C1032 C 0.25416 0.9599 0.23842 0.0
C1033 C 0.26101 0.99646 0.22855 0.0
C1034 C 0.25378 0.94361 0.258 0.0
C1035 C 0.26207 0.94541 0.28665 0.0
C1036 C 0.26279 0.97823 0.24751 0.0
C1037 C 0.27151 0.96363 0.29437 0.0
C1038 C 0.27048 0.01471 0.23615 0.0
C1039 C 0.24504 0.0124 0.18715 0.0
N1040 N 0.27144 0.97943 0.27502 0.0
N1041 N 0.24879 0.99591 0.20417 0.0
H1042 H 0.9735 0.22419 0.22284 0.0
H1043 H 0.06617 0.28198 0.29957 0.0
H1044 H 0.98377 0.28821 0.21448 0.0
H1045 H 0.06072 0.21712 0.29758 0.0
H1046 H 0.03442 0.28473 0.27199 0.0
H1047 H 0.00393 0.22149 0.25362 0.0
C1048 C 0.98211 0.23769 0.22752 0.0
C1049 C 0.97609 0.25645 0.21595 0.0
C1050 C 0.04014 0.2699 0.27766 0.0
C1051 C 0.01092 0.25347 0.25125 0.0
C1052 C 0.05825 0.26831 0.29349 0.0
C1053 C 0.06619 0.24929 0.30083 0.0
C1054 C 0.0298 0.25234 0.26914 0.0
C1055 C 0.05523 0.23211 0.29233 0.0
C1056 C 0.9995 0.23613 0.24508 0.0
C1057 C 0.98786 0.27342 0.2228 0.0
N1058 N 0.03762 0.23404 0.2769 0.0
N1059 N 0.00469 0.27152 0.23997 0.0
H1060 H 0.73236 0.03065 0.31376 0.0
H1061 H 0.73385 0.98234 0.15061 0.0
H1062 H 0.74446 0.06517 0.23421 0.0
H1063 H 0.74635 0.94806 0.23036 0.0
H1064 H 0.72972 0.01266 0.18111 0.0
H1065 H 0.72953 1.0002 0.28325 0.0
C1066 C 0.73416 0.03189 0.28984 0.0
C1067 C 0.73882 0.05047 0.27652 0.0
C1068 C 0.73318 0.99845 0.1919 0.0
C1069 C 0.7355 0.0157 0.24157 0.0
C1070 C 0.73544 0.98111 0.17457 0.0
C1071 C 0.74062 0.96265 0.18795 0.0
C1072 C 0.73584 0.99729 0.22288 0.0
C1073 C 0.74252 0.962 0.2191 0.0
C1074 C 0.73263 0.01448 0.27249 0.0
C1075 C 0.74102 0.05114 0.24542 0.0
N1076 N 0.74018 0.97909 0.23552 0.0
N1077 N 0.73938 0.03399 0.22899 0.0
H1078 H 0.01041 0.72488 0.18562 0.0
H1079 H 0.96462 0.77547 0.33303 0.0
H1080 H 0.04456 0.76342 0.24448 0.0
H1081 H 0.93102 0.73509 0.27626 0.0
H1082 H 0.99456 0.76981 0.30225 0.0
H1083 H 0.98178 0.72686 0.21996 0.0
C1084 C 0.01196 0.73363 0.20587 0.0
C1085 C 0.0299 0.7441 0.21204 0.0
C1086 C 0.98067 0.7621 0.29659 0.0
C1087 C 0.99709 0.74654 0.25143 0.0
C1088 C 0.96354 0.76534 0.31417 0.0
C1089 C 0.94521 0.75584 0.30716 0.0
C1090 C 0.9795 0.74931 0.27168 0.0
C1091 C 0.94479 0.7428 0.28248 0.0
C1092 C 0.99558 0.73478 0.22547 0.0
C1093 C 0.03102 0.75516 0.2387 0.0
N1094 N 0.96163 0.74001 0.26556 0.0
N1095 N 0.01481 0.75619 0.25727 0.0
H1096 H 0.75793 0.9845 0.79376 0.0
H1097 H 0.72735 0.03155 0.63589 0.0
H1098 H 0.73493 0.94887 0.72076 0.0
H1099 H 0.74949 0.06642 0.71025 0.0
H1100 H 0.72724 0.00152 0.66758 0.0
H1101 H 0.75255 0.01492 0.76434 0.0
C1102 C 0.75169 0.98305 0.77154 0.0
C1103 C 0.74701 0.96405 0.75965 0.0
C1104 C 0.73194 0.01578 0.67701 0.0
C1105 C 0.7408 0.99897 0.72571 0.0
C1106 C 0.73195 0.03296 0.65896 0.0
C1107 C 0.73862 0.05152 0.67033 0.0
C1108 C 0.73869 0.01716 0.70663 0.0
C1109 C 0.74437 0.05243 0.70042 0.0
C1110 C 0.74858 0.00048 0.75475 0.0
C1111 C 0.73884 0.96319 0.73078 0.0
N1112 N 0.74442 0.03548 0.71742 0.0
N1113 N 0.73611 0.9804 0.71473 0.0
H1114 H 0.95659 0.70727 0.73499 0.0
H1115 H 0.05529 0.77046 0.77704 0.0
H1116 H 0.96353 0.77062 0.71547 0.0
H1117 H 0.03921 0.7149 0.82116 0.0
H1118 H 0.02455 0.7681 0.7471 0.0
H1119 H 0.98957 0.70746 0.75978 0.0
C1120 C 0.9651 0.72119 0.73573 0.0
C1121 C 0.95724 0.739 0.72327 0.0
C1122 C 0.02782 0.75637 0.76321 0.0
C1123 C 0.99501 0.73924 0.75141 0.0
C1124 C 0.04542 0.75763 0.78023 0.0
C1125 C 0.04978 0.74292 0.80184 0.0
C1126 C 0.01454 0.74018 0.76756 0.0
C1127 C 0.0364 0.72665 0.80491 0.0
C1128 C 0.98388 0.72128 0.74996 0.0
C1129 C 0.96893 0.75659 0.72493 0.0
N1130 N 0.01934 0.72574 0.78801 0.0
N1131 N 0.98723 0.75626 0.73873 0.0
H1132 H 0.28418 0.96105 0.6428 0.0
H1133 H 0.25653 0.01986 0.79285 0.0
H1134 H 0.25604 0.93359 0.71948 0.0
H1135 H 0.28233 0.04905 0.71576 0.0
H1136 H 0.25975 0.98749 0.76784 0.0
H1137 H 0.28739 0.99253 0.67082 0.0
C1138 C 0.27892 0.96154 0.66564 0.0
C1139 C 0.26963 0.9447 0.67871 0.0
C1140 C 0.26481 0.00093 0.75638 0.0
C1141 C 0.27313 0.98071 0.71077 0.0
C1142 C 0.26295 0.01948 0.77065 0.0
C1143 C 0.26899 0.03727 0.75626 0.0
C1144 C 0.2727 1.00005 0.72738 0.0
C1145 C 0.27737 0.03574 0.72761 0.0
C1146 C 0.28069 0.97955 0.68158 0.0
C1147 C 0.26314 0.94622 0.7084 0.0
N1148 N 0.27885 0.01745 0.71399 0.0
N1149 N 0.26487 0.96394 0.72331 0.0
H1150 H 0.95816 0.28396 0.77983 0.0
H1151 H 0.04774 0.21853 0.70923 0.0
H1152 H 0.95684 0.21908 0.77168 0.0
H1153 H 0.04594 0.28359 0.70577 0.0
H1154 H 0.01398 0.21861 0.73105 0.0
H1155 H 0.98986 0.28439 0.75172 0.0
C1156 C 0.96446 0.26982 0.77201 0.0
C1157 C 0.95489 0.25145 0.7783 0.0
C1158 C 0.02089 0.23288 0.72535 0.0
C1159 C 0.99118 0.25183 0.74626 0.0
C1160 C 0.0402 0.23284 0.71291 0.0
C1161 C 0.04974 0.25109 0.70583 0.0
C1162 C 0.01107 0.2513 0.73103 0.0
C1163 C 0.03918 0.26917 0.71095 0.0
C1164 C 0.98255 0.27008 0.75593 0.0
C1165 C 0.96371 0.2336 0.76749 0.0
N1166 N 0.02046 0.26883 0.72347 0.0
N1167 N 0.98141 0.23424 0.75219 0.0
H1168 H 0.79374 0.52834 0.71766 0.0
H1169 H 0.72064 0.44889 0.79678 0.0
H1170 H 0.72918 0.53682 0.72501 0.0
H1171 H 0.78579 0.44557 0.80101 0.0
H1172 H 0.72335 0.48095 0.77024 0.0
H1173 H 0.79104 0.49781 0.74777 0.0
C1174 C 0.77898 0.52381 0.72565 0.0
C1175 C 0.76165 0.53514 0.7187 0.0
C1176 C 0.73705 0.47326 0.77711 0.0
C1177 C 0.75844 0.50009 0.75317 0.0
C1178 C 0.73552 0.45493 0.79225 0.0
C1179 C 0.75302 0.44446 0.80106 0.0
C1180 C 0.75622 0.48115 0.77051 0.0
C1181 C 0.77189 0.45308 0.79463 0.0
C1182 C 0.77746 0.50638 0.74292 0.0
C1183 C 0.74295 0.52856 0.7298 0.0
N1184 N 0.77298 0.47084 0.7796 0.0
N1185 N 0.74183 0.51141 0.74635 0.0
H1186 H 0.57176 0.78387 0.70754 0.0
H1187 H 0.45661 0.7469 0.71153 0.0
H1188 H 0.54513 0.75057 0.78023 0.0
H1189 H 0.48278 0.77854 0.63689 0.0
H1190 H 0.48818 0.75114 0.73889 0.0
H1191 H 0.53868 0.78477 0.68294 0.0
C1192 C 0.55897 0.77684 0.7184 0.0
C1193 C 0.56129 0.767 0.7459 0.0
C1194 C 0.48699 0.7573 0.71661 0.0
C1195 C 0.52342 0.768 0.71792 0.0
C1196 C 0.46892 0.75492 0.70098 0.0
C1197 C 0.46707 0.76222 0.67175 0.0
C1198 C 0.50343 0.76697 0.70292 0.0
C1199 C 0.48354 0.77257 0.65932 0.0
C1200 C 0.54009 0.77736 0.70435 0.0
C1201 C 0.54415 0.75821 0.75896 0.0
N1202 N 0.50109 0.77449 0.67487 0.0
N1203 N 0.52601 0.75885 0.74481 0.0
H1204 H 0.22078 0.45231 0.76819 0.0
H1205 H 0.2609 0.56609 0.76431 0.0
H1206 H 0.25262 0.47836 0.69362 0.0
H1207 H 0.22778 0.54084 0.83827 0.0
H1208 H 0.25643 0.53455 0.73708 0.0
H1209 H 0.222 0.48494 0.79352 0.0
C1210 C 0.22802 0.46488 0.75713 0.0
C1211 C 0.23668 0.46255 0.72877 0.0
C1212 C 0.25002 0.53594 0.75919 0.0
C1213 C 0.23809 0.49997 0.75761 0.0
C1214 C 0.25253 0.55398 0.77474 0.0
C1215 C 0.24481 0.55609 0.80371 0.0
C1216 C 0.23978 0.51982 0.77271 0.0
C1217 C 0.23405 0.53988 0.81603 0.0
C1218 C 0.22867 0.48352 0.77158 0.0
C1219 C 0.2458 0.47941 0.71549 0.0
N1220 N 0.23198 0.52239 0.80055 0.0
N1221 N 0.2463 0.49736 0.73005 0.0
H1222 H 0.45817 0.25954 0.78436 0.0
H1223 H 0.52063 0.22193 0.64248 0.0
H1224 H 0.43083 0.22882 0.70976 0.0
H1225 H 0.5469 0.2531 0.71751 0.0
H1226 H 0.48843 0.22048 0.66917 0.0
H1227 H 0.49134 0.25389 0.76237 0.0
C1228 C 0.45913 0.25154 0.76336 0.0
C1229 C 0.44164 0.24484 0.74872 0.0
C1230 C 0.50131 0.22742 0.67991 0.0
C1231 C 0.47974 0.23831 0.72332 0.0
C1232 C 0.51974 0.22819 0.66474 0.0
C1233 C 0.53644 0.23789 0.67762 0.0
C1234 C 0.49958 0.23645 0.70812 0.0
C1235 C 0.53439 0.24566 0.70656 0.0
C1236 C 0.47813 0.24826 0.75084 0.0
C1237 C 0.4439 0.23437 0.72172 0.0
N1238 N 0.51625 0.24495 0.72068 0.0
N1239 N 0.4626 0.23157 0.70975 0.0
H1240 H 0.23864 0.52141 0.15881 0.0
H1241 H 0.23871 0.47918 0.32523 0.0
H1242 H 0.24351 0.56025 0.23569 0.0
H1243 H 0.25984 0.44422 0.25021 0.0
H1244 H 0.23394 0.50818 0.29215 0.0
H1245 H 0.23976 0.49204 0.19177 0.0
C1246 C 0.23973 0.52378 0.18264 0.0
C1247 C 0.24108 0.54331 0.19454 0.0
C1248 C 0.23955 0.49413 0.28298 0.0
C1249 C 0.24228 0.50979 0.23226 0.0
C1250 C 0.2422 0.47756 0.30176 0.0
C1251 C 0.24977 0.45929 0.29044 0.0
C1252 C 0.24418 0.49231 0.25258 0.0
C1253 C 0.2541 0.45806 0.25988 0.0
C1254 C 0.24048 0.50701 0.20138 0.0
C1255 C 0.24254 0.54546 0.22558 0.0
N1256 N 0.25118 0.47435 0.24197 0.0
N1257 N 0.24308 0.52888 0.24341 0.0
H1258 H 0.54755 0.25197 0.2464 0.0
H1259 H 0.42929 0.2288 0.24407 0.0
H1260 H 0.51661 0.22093 0.31752 0.0
H1261 H 0.46216 0.25194 0.16838 0.0
H1262 H 0.46137 0.22387 0.27028 0.0
H1263 H 0.51683 0.25012 0.2163 0.0
C1264 C 0.53437 0.24457 0.25558 0.0
C1265 C 0.53462 0.23676 0.28465 0.0
C1266 C 0.46157 0.22984 0.24782 0.0
C1267 C 0.49929 0.23477 0.25039 0.0
C1268 C 0.44325 0.23268 0.23284 0.0
C1269 C 0.44299 0.24098 0.20407 0.0
C1270 C 0.47977 0.2355 0.23403 0.0
C1271 C 0.46158 0.24562 0.1906 0.0
C1272 C 0.51681 0.24352 0.23837 0.0
C1273 C 0.5171 0.22724 0.29529 0.0
N1274 N 0.47917 0.243 0.20579 0.0
N1275 N 0.50009 0.22672 0.2783 0.0
H1276 H 0.76353 0.53378 0.30984 0.0
H1277 H 0.7076 0.46319 0.19092 0.0
H1278 H 0.70609 0.54858 0.26947 0.0
H1279 H 0.76518 0.44869 0.23107 0.0
H1280 H 0.70755 0.49535 0.21758 0.0
H1281 H 0.76519 0.50335 0.27925 0.0
C1282 C 0.7513 0.53069 0.29445 0.0
C1283 C 0.7346 0.54372 0.29234 0.0
C1284 C 0.72024 0.48516 0.22046 0.0
C1285 C 0.73637 0.50883 0.25728 0.0
C1286 C 0.72028 0.46679 0.20522 0.0
C1287 C 0.73637 0.45316 0.20886 0.0
C1288 C 0.73638 0.48994 0.23953 0.0
C1289 C 0.75241 0.45868 0.22765 0.0
C1290 C 0.75226 0.51329 0.27698 0.0
C1291 C 0.71923 0.53895 0.27193 0.0
N1292 N 0.75197 0.47659 0.24236 0.0
N1293 N 0.72045 0.52186 0.2553 0.0
H1294 H 0.44271 0.74213 0.24198 0.0
H1295 H 0.55757 0.77287 0.20913 0.0
H1296 H 0.4794 0.77574 0.30404 0.0
H1297 H 0.52235 0.73257 0.15443 0.0
H1298 H 0.52771 0.77863 0.24051 0.0
H1299 H 0.47027 0.74325 0.20597 0.0
C1300 C 0.45649 0.74993 0.24796 0.0
C1301 C 0.45881 0.75864 0.27625 0.0
C1302 C 0.52652 0.76867 0.22147 0.0
C1303 C 0.49058 0.75986 0.23507 0.0
C1304 C 0.54352 0.76543 0.20352 0.0
C1305 C 0.5425 0.75205 0.17932 0.0
C1306 C 0.50839 0.75855 0.21502 0.0
C1307 C 0.52392 0.74283 0.17305 0.0
C1308 C 0.47227 0.75053 0.22738 0.0
C1309 C 0.47699 0.76868 0.28259 0.0
N1310 N 0.50766 0.74616 0.19086 0.0
N1311 N 0.49226 0.76885 0.26227 0.0
H1312 H 0.16503 0.11987 0.16477 0.0
H1313 H 0.16749 0.15267 0.33333 0.0
H1314 H 0.20678 0.09597 0.22987 0.0
H1315 H 0.12534 0.17646 0.26877 0.0
H1316 H 0.17586 0.12539 0.29906 0.0
H1317 H 0.14452 0.13373 0.20503 0.0
C1318 C 0.16968 0.11717 0.18758 0.0
C1319 C 0.18797 0.10723 0.19395 0.0
C1320 C 0.16449 0.13632 0.29254 0.0
C1321 C 0.16465 0.12331 0.24014 0.0
C1322 C 0.1597 0.15193 0.31211 0.0
C1323 C 0.14608 0.16713 0.30354 0.0
C1324 C 0.15584 0.1361 0.26397 0.0
C1325 C 0.13615 0.1652 0.27608 0.0
C1326 C 0.15793 0.12511 0.21058 0.0
C1327 C 0.193 0.10384 0.2239 0.0
N1328 N 0.14157 0.15023 0.25695 0.0
N1329 N 0.18164 0.11226 0.24588 0.0
H1330 H 0.89954 0.19458 0.2162 0.0
H1331 H 0.79576 0.13357 0.23206 0.0
H1332 H 0.85116 0.19811 0.15174 0.0
H1333 H 0.8374 0.14499 0.30406 0.0
H1334 H 0.81946 0.15003 0.19751 0.0
H1335 H 0.88044 0.16911 0.24348 0.0
C1336 C 0.88503 0.18983 0.20754 0.0
C1337 C 0.87681 0.19877 0.1819 0.0
C1338 C 0.82349 0.14862 0.22082 0.0
C1339 C 0.85482 0.16962 0.21312 0.0
C1340 C 0.81005 0.13915 0.24044 0.0
C1341 C 0.81456 0.1382 0.27094 0.0
C1342 C 0.84157 0.15687 0.23187 0.0
C1343 C 0.83322 0.1457 0.28075 0.0
C1344 C 0.87411 0.17531 0.22318 0.0
C1345 C 0.85797 0.19184 0.17164 0.0
N1346 N 0.84597 0.15481 0.26134 0.0
N1347 N 0.84751 0.17783 0.18745 0.0
H1348 H 0.84072 0.8332 0.33923 0.0
H1349 H 0.84362 0.86708 0.1699 0.0
H1350 H 0.88102 0.80768 0.2735 0.0
H1351 H 0.802 0.89136 0.23482 0.0
H1352 H 0.86253 0.85088 0.20994 0.0
H1353 H 0.83176 0.85987 0.30419 0.0
C1354 C 0.84797 0.83339 0.31758 0.0
C1355 C 0.86133 0.81791 0.30904 0.0
C1356 C 0.84946 0.86 0.21554 0.0
C1357 C 0.85092 0.84835 0.26867 0.0
C1358 C 0.83863 0.86927 0.19266 0.0
C1359 C 0.82094 0.88026 0.19897 0.0
C1360 C 0.84246 0.86151 0.24497 0.0
C1361 C 0.81541 0.88286 0.22891 0.0
C1362 C 0.84282 0.84865 0.29756 0.0
C1363 C 0.87047 0.81915 0.2809 0.0
N1364 N 0.82593 0.87323 0.25077 0.0
N1365 N 0.86482 0.83389 0.26152 0.0
H1366 H 0.17121 0.84108 0.33466 0.0
H1367 H 0.14352 0.82289 0.16435 0.0
H1368 H 0.19879 0.87387 0.26224 0.0
H1369 H 0.11029 0.79641 0.23723 0.0
H1370 H 0.1623 0.84336 0.19986 0.0
H1371 H 0.14742 0.82621 0.29959 0.0
C1372 C 0.17221 0.84525 0.31137 0.0
C1373 C 0.18719 0.85859 0.30132 0.0
C1374 C 0.15077 0.83324 0.20812 0.0
C1375 C 0.15993 0.84151 0.26096 0.0
C1376 C 0.14004 0.8215 0.18785 0.0
C1377 C 0.12546 0.80773 0.19788 0.0
C1378 C 0.14708 0.83108 0.23874 0.0
C1379 C 0.12146 0.80675 0.22854 0.0
C1380 C 0.15854 0.83678 0.29136 0.0
C1381 C 0.18757 0.86358 0.27094 0.0
N1382 N 0.1324 0.8181 0.24793 0.0
N1383 N 0.17427 0.85487 0.25178 0.0
H1384 H 0.88878 0.81059 0.74948 0.0
H1385 H 0.80498 0.89765 0.75598 0.0
H1386 H 0.84742 0.82458 0.67796 0.0
H1387 H 0.83582 0.87327 0.83277 0.0
H1388 H 0.82762 0.87802 0.72367 0.0
H1389 H 0.87666 0.8405 0.77635 0.0
C1390 C 0.8775 0.82019 0.73914 0.0
C1391 C 0.86879 0.8149 0.71176 0.0
C1392 C 0.82965 0.87729 0.7476 0.0
C1393 C 0.85485 0.84897 0.74228 0.0
C1394 C 0.81681 0.88856 0.766 0.0
C1395 C 0.8183 0.88675 0.79705 0.0
C1396 C 0.84409 0.86429 0.76043 0.0
C1397 C 0.83391 0.87478 0.8089 0.0
C1398 C 0.87053 0.8372 0.75452 0.0
C1399 C 0.85425 0.82791 0.69933 0.0
N1400 N 0.84603 0.86382 0.7906 0.0
N1401 N 0.84756 0.84419 0.71483 0.0
H1402 H 0.17105 0.84352 0.6623 0.0
H1403 H 0.15465 0.83608 0.83777 0.0
H1404 H 0.20635 0.87723 0.72599 0.0
H1405 H 0.11756 0.80534 0.773 0.0
H1406 H 0.17137 0.85413 0.79734 0.0
H1407 H 0.14924 0.83211 0.70251 0.0
C1408 C 0.17418 0.84862 0.68476 0.0
C1409 C 0.19073 0.86117 0.69083 0.0
C1410 C 0.15941 0.84362 0.79199 0.0
C1411 C 0.16573 0.84805 0.73714 0.0
C1412 C 0.14983 0.8333 0.81507 0.0
C1413 C 0.13484 0.81895 0.80875 0.0
C1414 C 0.15408 0.83948 0.76234 0.0
C1415 C 0.12913 0.81612 0.77893 0.0
C1416 C 0.16164 0.84212 0.70774 0.0
C1417 C 0.19384 0.86746 0.72033 0.0
N1418 N 0.13892 0.82611 0.75683 0.0
N1419 N 0.18158 0.86066 0.74246 0.0
H1420 H 0.11989 0.18344 0.75255 0.0
H1421 H 0.20082 0.09436 0.75755 0.0
H1422 H 0.16112 0.16774 0.68173 0.0
H1423 H 0.17271 0.12028 0.83555 0.0
H1424 H 0.17679 0.11275 0.72631 0.0
H1425 H 0.13019 0.1527 0.77932 0.0
C1426 C 0.13071 0.17327 0.74234 0.0
C1427 C 0.14002 0.17827 0.71527 0.0
C1428 C 0.17559 0.11404 0.75031 0.0
C1429 C 0.15169 0.14326 0.74541 0.0
C1430 C 0.18924 0.10343 0.76819 0.0
C1431 C 0.18918 0.10627 0.79918 0.0
C1432 C 0.16185 0.12755 0.76353 0.0
C1433 C 0.17364 0.11805 0.81169 0.0
C1434 C 0.13661 0.1558 0.7576 0.0
C1435 C 0.15391 0.16461 0.70289 0.0
N1436 N 0.16086 0.12862 0.79379 0.0
N1437 N 0.15949 0.14786 0.71819 0.0
H1438 H 0.8423 0.17007 0.8263 0.0
H1439 H 0.83632 0.14746 0.65346 0.0
H1440 H 0.88968 0.18522 0.76409 0.0
H1441 H 0.79449 0.12204 0.71686 0.0
H1442 H 0.85775 0.1584 0.69449 0.0
H1443 H 0.82642 0.14931 0.78796 0.0
C1444 C 0.84956 0.16878 0.80474 0.0
C1445 C 0.86718 0.17969 0.79826 0.0
C1446 C 0.84403 0.15021 0.69951 0.0
C1447 C 0.84894 0.15612 0.75419 0.0
C1448 C 0.83174 0.14401 0.67606 0.0
C1449 C 0.81345 0.13408 0.68179 0.0
C1450 C 0.83786 0.14677 0.72901 0.0
C1451 C 0.80841 0.12977 0.71149 0.0
C1452 C 0.84046 0.15691 0.78285 0.0
C1453 C 0.87599 0.17727 0.77003 0.0
N1454 N 0.8204 0.13644 0.73405 0.0
N1455 N 0.8666 0.16601 0.7489 0.0
H1456 H 0.69658 0.61066 0.71446 0.0
H1457 H 0.65655 0.68158 0.80834 0.0
H1458 H 0.7055 0.66159 0.65598 0.0
H1459 H 0.63729 0.7143 0.7302 0.0
H1460 H 0.6723 0.65636 0.77665 0.0
H1461 H 0.67174 0.63031 0.7424 0.0
C1462 C 0.69326 0.62593 0.70738 0.0
C1463 C 0.70353 0.63463 0.68325 0.0
C1464 C 0.66417 0.66868 0.76624 0.0
C1465 C 0.67546 0.6574 0.71567 0.0
C1466 C 0.65536 0.68325 0.78437 0.0
C1467 C 0.64567 0.70006 0.77183 0.0
C1468 C 0.66357 0.67099 0.73517 0.0
C1469 C 0.64456 0.70148 0.74067 0.0
C1470 C 0.67918 0.63721 0.7235 0.0
C1471 C 0.69824 0.65438 0.67477 0.0
N1472 N 0.6538 0.68729 0.72332 0.0
N1473 N 0.68472 0.6652 0.69118 0.0
H1474 H 0.31074 0.62164 0.76149 0.0
H1475 H 0.39679 0.70073 0.71717 0.0
H1476 H 0.34059 0.66091 0.8243 0.0
H1477 H 0.36364 0.66493 0.65346 0.0
H1478 H 0.38012 0.68242 0.75756 0.0
H1479 H 0.33352 0.63371 0.72245 0.0
C1480 C 0.32217 0.63267 0.76714 0.0
C1481 C 0.32358 0.64046 0.79613 0.0
C1482 C 0.37667 0.67844 0.73472 0.0
C1483 C 0.34967 0.65433 0.75161 0.0
C1484 C 0.38625 0.68883 0.71166 0.0
C1485 C 0.3814 0.68456 0.68189 0.0
C1486 C 0.36214 0.66369 0.72794 0.0
C1487 C 0.36765 0.66893 0.67608 0.0
C1488 C 0.33517 0.63956 0.74485 0.0
C1489 C 0.33877 0.65464 0.80219 0.0
N1490 N 0.35837 0.65921 0.69888 0.0
N1491 N 0.35111 0.66122 0.7801 0.0
H1492 H 0.3691 0.30261 0.72402 0.0
H1493 H 0.29835 0.40015 0.71044 0.0
H1494 H 0.35666 0.34417 0.79567 0.0
H1495 H 0.29913 0.35167 0.64617 0.0
H1496 H 0.32693 0.38442 0.73601 0.0
H1497 H 0.35112 0.32527 0.68959 0.0
C1498 C 0.36317 0.31681 0.73227 0.0
C1499 C 0.36411 0.32148 0.76271 0.0
C1500 C 0.321 0.37736 0.71609 0.0
C1501 C 0.34344 0.3472 0.72382 0.0
C1502 C 0.30467 0.38634 0.70146 0.0
C1503 C 0.29605 0.37702 0.67643 0.0
C1504 C 0.32881 0.35893 0.70566 0.0
C1505 C 0.30507 0.35923 0.66567 0.0
C1506 C 0.35275 0.32962 0.71272 0.0
C1507 C 0.35602 0.33994 0.77238 0.0
N1508 N 0.3208 0.35063 0.68055 0.0
N1509 N 0.34584 0.352 0.75309 0.0
H1510 H 0.62858 0.34277 0.66038 0.0
H1511 H 0.66036 0.33878 0.82991 0.0
H1512 H 0.60363 0.30078 0.7239 0.0
H1513 H 0.68258 0.3831 0.76768 0.0
H1514 H 0.63429 0.32936 0.79418 0.0
H1515 H 0.64305 0.36205 0.70136 0.0
C1516 C 0.62588 0.33776 0.68301 0.0
C1517 C 0.61524 0.31988 0.6887 0.0
C1518 C 0.6446 0.3414 0.78849 0.0
C1519 C 0.63199 0.34181 0.73577 0.0
C1520 C 0.65951 0.34681 0.80891 0.0
C1521 C 0.67394 0.36145 0.80148 0.0
C1522 C 0.64429 0.35049 0.76024 0.0
C1523 C 0.67191 0.37157 0.77419 0.0
C1524 C 0.63414 0.34881 0.70643 0.0
C1525 C 0.61194 0.31433 0.71846 0.0
N1526 N 0.65763 0.3656 0.75428 0.0
N1527 N 0.62062 0.32505 0.74088 0.0
H1528 H 0.36763 0.34401 0.16281 0.0
H1529 H 0.33928 0.35017 0.33385 0.0
H1530 H 0.38717 0.30007 0.22769 0.0
H1531 H 0.32158 0.39449 0.26824 0.0
H1532 H 0.36264 0.33541 0.2978 0.0
H1533 H 0.35694 0.36625 0.20306 0.0
C1534 C 0.36997 0.33919 0.18563 0.0
C1535 C 0.37794 0.32004 0.19198 0.0
C1536 C 0.35391 0.34857 0.29144 0.0
C1537 C 0.36535 0.34528 0.23826 0.0
C1538 C 0.34054 0.35703 0.31202 0.0
C1539 C 0.3281 0.37335 0.30385 0.0
C1540 C 0.35477 0.35638 0.2624 0.0
C1541 C 0.33063 0.38175 0.27541 0.0
C1542 C 0.36385 0.35191 0.20863 0.0
C1543 C 0.38094 0.31468 0.22188 0.0
N1544 N 0.34343 0.37296 0.25557 0.0
N1545 N 0.37424 0.32708 0.24398 0.0
H1546 H 0.62993 0.33585 0.32795 0.0
H1547 H 0.68569 0.33794 0.17298 0.0
H1548 H 0.61328 0.29794 0.2538 0.0
H1549 H 0.69665 0.38148 0.24257 0.0
H1550 H 0.65536 0.32695 0.19901 0.0
H1551 H 0.65006 0.35657 0.2944 0.0
C1552 C 0.63021 0.33211 0.30445 0.0
C1553 C 0.62026 0.31491 0.29371 0.0
C1554 C 0.66418 0.33913 0.20842 0.0
C1555 C 0.64356 0.3384 0.25524 0.0
C1556 C 0.68156 0.34537 0.19361 0.0
C1557 C 0.69393 0.36037 0.20598 0.0
C1558 C 0.65926 0.34769 0.2361 0.0
C1559 C 0.68765 0.36972 0.23244 0.0
C1560 C 0.64172 0.34397 0.28529 0.0
C1561 C 0.62088 0.31096 0.26304 0.0
N1562 N 0.67094 0.36295 0.24694 0.0
N1563 N 0.63273 0.32237 0.24495 0.0
H1564 H 0.65242 0.65816 0.33672 0.0
H1565 H 0.63254 0.66548 0.16346 0.0
H1566 H 0.66698 0.61073 0.27427 0.0
H1567 H 0.61016 0.70961 0.22607 0.0
H1568 H 0.64057 0.64301 0.20474 0.0
H1569 H 0.63226 0.67478 0.29825 0.0
C1570 C 0.65109 0.65103 0.31509 0.0
C1571 C 0.66177 0.63321 0.30855 0.0
C1572 C 0.63364 0.65747 0.20955 0.0
C1573 C 0.63887 0.65231 0.26431 0.0
C1574 C 0.62909 0.67034 0.18596 0.0
C1575 C 0.62099 0.68957 0.19142 0.0
C1576 C 0.63044 0.66398 0.23895 0.0
C1577 C 0.61654 0.69496 0.22093 0.0
C1578 C 0.63957 0.66056 0.29311 0.0
C1579 C 0.65927 0.62458 0.28024 0.0
N1580 N 0.62169 0.68237 0.24369 0.0
N1581 N 0.64837 0.63439 0.25904 0.0
H1582 H 0.31567 0.66137 0.15897 0.0
H1583 H 0.355 0.6679 0.32609 0.0
H1584 H 0.29602 0.62063 0.22815 0.0
H1585 H 0.38119 0.70168 0.25356 0.0
H1586 H 0.33474 0.64905 0.29031 0.0
H1587 H 0.34074 0.6752 0.19293 0.0
C1588 C 0.31663 0.65529 0.18134 0.0
C1589 C 0.30355 0.63993 0.19083 0.0
C1590 C 0.34508 0.66041 0.28216 0.0
C1591 C 0.33236 0.65578 0.22992 0.0
C1592 C 0.35667 0.6712 0.30258 0.0
C1593 C 0.36965 0.68657 0.29282 0.0
C1594 C 0.34629 0.66514 0.25175 0.0
C1595 C 0.37132 0.69004 0.26209 0.0
C1596 C 0.33106 0.66315 0.20068 0.0
C1597 C 0.30571 0.63253 0.21995 0.0
N1598 N 0.35956 0.67959 0.24267 0.0
N1599 N 0.31973 0.64065 0.23857 0.0
loop_
_geom_bond_atom_site_label_1
_geom_bond_atom_site_label_2
_geom_bond_distance
_geom_bond_site_symmetry_2
_ccdc_geom_bond_type
Zn0 O3 2.031 . S
Zn0 O5 2.049 . S
Zn0 O10 2.067 . S
Zn1 O2 1.962 . S
Zn1 O4 1.986 . S
Zn1 O6 1.996 . S
Zn1 O9 1.943 . S
O2 Zn1 1.962 . S
O2 C7 1.254 . S
O3 Zn0 2.031 . S
O3 C7 1.269 . S
O4 Zn1 1.986 . S
O4 C11 1.262 . S
O5 Zn0 2.049 . S
O5 C13 1.260 . S
O6 Zn1 1.996 . S
O6 C13 1.257 . S
C7 O2 1.254 . S
C7 O3 1.269 . S
C8 O9 1.249 . S
C8 O10 1.270 . S
O9 Zn1 1.943 . S
O9 C8 1.249 . S
O10 Zn0 2.067 . S
O10 C8 1.270 . S
C11 O4 1.262 . S
C11 O12 1.232 . S
O12 C11 1.232 . S
C13 O5 1.260 . S
C13 O6 1.257 . S
Zn14 O17 2.031 . S
Zn14 O19 2.049 . S
Zn14 O24 2.067 . S
Zn15 O16 1.962 . S
Zn15 O18 1.986 . S
Zn15 O20 1.996 . S
Zn15 O23 1.943 . S
O16 Zn15 1.962 . S
O16 C21 1.254 . S
O17 Zn14 2.031 . S
O17 C21 1.269 . S
O18 Zn15 1.986 . S
O18 C25 1.262 . S
O19 Zn14 2.049 . S
O19 C27 1.260 . S
O20 Zn15 1.996 . S
O20 C27 1.257 . S
C21 O16 1.254 . S
C21 O17 1.269 . S
C22 O23 1.249 . S
C22 O24 1.270 . S
O23 Zn15 1.943 . S
O23 C22 1.249 . S
O24 Zn14 2.067 . S
O24 C22 1.270 . S
C25 O18 1.262 . S
C25 O26 1.232 . S
O26 C25 1.232 . S
C27 O19 1.260 . S
C27 O20 1.257 . S
Zn28 O31 2.031 . S
Zn28 O33 2.049 . S
Zn28 O38 2.067 . S
Zn29 O30 1.962 . S
Zn29 O32 1.986 . S
Zn29 O34 1.996 . S
Zn29 O37 1.943 . S
O30 Zn29 1.962 . S
O30 C35 1.254 . S
O31 Zn28 2.031 . S
O31 C35 1.269 . S
O32 Zn29 1.986 . S
O32 C39 1.262 . S
O33 Zn28 2.049 . S
O33 C41 1.260 . S
O34 Zn29 1.996 . S
O34 C41 1.257 . S
C35 O30 1.254 . S
C35 O31 1.269 . S
C36 O37 1.249 . S
C36 O38 1.270 . S
O37 Zn29 1.943 . S
O37 C36 1.249 . S
O38 Zn28 2.067 . S
O38 C36 1.270 . S
C39 O32 1.262 . S
C39 O40 1.232 . S
O40 C39 1.232 . S
C41 O33 1.260 . S
C41 O34 1.257 . S
Zn42 O45 2.031 . S
Zn42 O47 2.049 . S
Zn42 O52 2.067 . S
Zn43 O44 1.962 . S
Zn43 O46 1.986 . S
Zn43 O48 1.996 . S
Zn43 O51 1.943 . S
O44 Zn43 1.962 . S
O44 C49 1.254 . S
O45 Zn42 2.031 . S
O45 C49 1.269 . S
O46 Zn43 1.986 . S
O46 C53 1.262 . S
O47 Zn42 2.049 . S
O47 C55 1.260 . S
O48 Zn43 1.996 . S
O48 C55 1.257 . S
C49 O44 1.254 . S
C49 O45 1.269 . S
C50 O51 1.249 . S
C50 O52 1.270 . S
O51 Zn43 1.943 . S
O51 C50 1.249 . S
O52 Zn42 2.067 . S
O52 C50 1.270 . S
C53 O46 1.262 . S
C53 O54 1.232 . S
O54 C53 1.232 . S
C55 O47 1.260 . S
C55 O48 1.257 . S
Zn56 O59 2.031 . S
Zn56 O61 2.049 . S
Zn56 O66 2.067 . S
Zn57 O58 1.962 . S
Zn57 O60 1.986 . S
Zn57 O62 1.996 . S
Zn57 O65 1.943 . S
O58 Zn57 1.962 . S
O58 C63 1.254 . S
O59 Zn56 2.031 . S
O59 C63 1.269 . S
O60 Zn57 1.986 . S
O60 C67 1.262 . S
O61 Zn56 2.049 . S
O61 C69 1.260 . S
O62 Zn57 1.996 . S
O62 C69 1.257 . S
C63 O58 1.254 . S
C63 O59 1.269 . S
C64 O65 1.249 . S
C64 O66 1.270 . S
O65 Zn57 1.943 . S
O65 C64 1.249 . S
O66 Zn56 2.067 . S
O66 C64 1.270 . S
C67 O60 1.262 . S
C67 O68 1.232 . S
O68 C67 1.232 . S
C69 O61 1.260 . S
C69 O62 1.257 . S
Zn70 O73 2.031 . S
Zn70 O75 2.049 . S
Zn70 O80 2.067 . S
Zn71 O72 1.962 . S
Zn71 O74 1.986 . S
Zn71 O76 1.996 . S
Zn71 O79 1.943 . S
O72 Zn71 1.962 . S
O72 C77 1.254 . S
O73 Zn70 2.031 . S
O73 C77 1.269 . S
O74 Zn71 1.986 . S
O74 C81 1.262 . S
O75 Zn70 2.049 . S
O75 C83 1.260 . S
O76 Zn71 1.996 . S
O76 C83 1.257 . S
C77 O72 1.254 . S
C77 O73 1.269 . S
C78 O79 1.249 . S
C78 O80 1.270 . S
O79 Zn71 1.943 . S
O79 C78 1.249 . S
O80 Zn70 2.067 . S
O80 C78 1.270 . S
C81 O74 1.262 . S
C81 O82 1.232 . S
O82 C81 1.232 . S
C83 O75 1.260 . S
C83 O76 1.257 . S
Zn84 O87 2.031 . S
Zn84 O89 2.049 . S
Zn84 O94 2.067 . S
Zn85 O86 1.962 . S
Zn85 O88 1.986 . S
Zn85 O90 1.996 . S
Zn85 O93 1.943 . S
O86 Zn85 1.962 . S
O86 C91 1.254 . S
O87 Zn84 2.031 . S
O87 C91 1.269 . S
O88 Zn85 1.986 . S
O88 C95 1.262 . S
O89 Zn84 2.049 . S
O89 C97 1.260 . S
O90 Zn85 1.996 . S
O90 C97 1.257 . S
C91 O86 1.254 . S
C91 O87 1.269 . S
C92 O93 1.249 . S
C92 O94 1.270 . S
O93 Zn85 1.943 . S
O93 C92 1.249 . S
O94 Zn84 2.067 . S
O94 C92 1.270 . S
C95 O88 1.262 . S
C95 O96 1.232 . S
O96 C95 1.232 . S
C97 O89 1.260 . S
C97 O90 1.257 . S
Zn98 O101 2.031 . S
Zn98 O103 2.049 . S
Zn98 O108 2.067 . S
Zn99 O100 1.962 . S
Zn99 O102 1.986 . S
Zn99 O104 1.996 . S
Zn99 O107 1.943 . S
O100 Zn99 1.962 . S
O100 C105 1.254 . S
O101 Zn98 2.031 . S
O101 C105 1.269 . S
O102 Zn99 1.986 . S
O102 C109 1.262 . S
O103 Zn98 2.049 . S
O103 C111 1.260 . S
O104 Zn99 1.996 . S
O104 C111 1.257 . S
C105 O100 1.254 . S
C105 O101 1.269 . S
C106 O107 1.249 . S
C106 O108 1.270 . S
O107 Zn99 1.943 . S
O107 C106 1.249 . S
O108 Zn98 2.067 . S
O108 C106 1.270 . S
C109 O102 1.262 . S
C109 O110 1.232 . S
O110 C109 1.232 . S
C111 O103 1.260 . S
C111 O104 1.257 . S
Zn112 O115 2.031 . S
Zn112 O117 2.049 . S
Zn112 O122 2.067 . S
Zn113 O114 1.962 . S
Zn113 O116 1.986 . S
Zn113 O118 1.996 . S
Zn113 O121 1.943 . S
O114 Zn113 1.962 . S
O114 C119 1.254 . S
O115 Zn112 2.031 . S
O115 C119 1.269 . S
O116 Zn113 1.986 . S
O116 C123 1.262 . S
O117 Zn112 2.049 . S
O117 C125 1.260 . S
O118 Zn113 1.996 . S
O118 C125 1.257 . S
C119 O114 1.254 . S
C119 O115 1.269 . S
C120 O121 1.249 . S
C120 O122 1.270 . S
O121 Zn113 1.943 . S
O121 C120 1.249 . S
O122 Zn112 2.067 . S
O122 C120 1.270 . S
C123 O116 1.262 . S
C123 O124 1.232 . S
O124 C123 1.232 . S
C125 O117 1.260 . S
C125 O118 1.257 . S
Zn126 O129 2.031 . S
Zn126 O131 2.049 . S
Zn126 O136 2.067 . S
Zn127 O128 1.962 . S
Zn127 O130 1.986 . S
Zn127 O132 1.996 . S
Zn127 O135 1.943 . S
O128 Zn127 1.962 . S
O128 C133 1.254 . S
O129 Zn126 2.031 . S
O129 C133 1.269 . S
O130 Zn127 1.986 . S
O130 C137 1.262 . S
O131 Zn126 2.049 . S
O131 C139 1.260 . S
O132 Zn127 1.996 . S
O132 C139 1.257 . S
C133 O128 1.254 . S
C133 O129 1.269 . S
C134 O135 1.249 . S
C134 O136 1.270 . S
O135 Zn127 1.943 . S
O135 C134 1.249 . S
O136 Zn126 2.067 . S
O136 C134 1.270 . S
C137 O130 1.262 . S
C137 O138 1.232 . S
O138 C137 1.232 . S
C139 O131 1.260 . S
C139 O132 1.257 . S
Zn140 O143 2.031 . S
Zn140 O145 2.049 . S
Zn140 O150 2.067 . S
Zn141 O142 1.962 . S
Zn141 O144 1.986 . S
Zn141 O146 1.996 . S
Zn141 O149 1.943 . S
O142 Zn141 1.962 . S
O142 C147 1.254 . S
O143 Zn140 2.031 . S
O143 C147 1.269 . S
O144 Zn141 1.986 . S
O144 C151 1.262 . S
O145 Zn140 2.049 . S
O145 C153 1.260 . S
O146 Zn141 1.996 . S
O146 C153 1.257 . S
C147 O142 1.254 . S
C147 O143 1.269 . S
C148 O149 1.249 . S
C148 O150 1.270 . S
O149 Zn141 1.943 . S
O149 C148 1.249 . S
O150 Zn140 2.067 . S
O150 C148 1.270 . S
C151 O144 1.262 . S
C151 O152 1.232 . S
O152 C151 1.232 . S
C153 O145 1.260 . S
C153 O146 1.257 . S
Zn154 O157 2.031 . S
Zn154 O159 2.049 . S
Zn154 O164 2.067 . S
Zn155 O156 1.962 . S
Zn155 O158 1.986 . S
Zn155 O160 1.996 . S
Zn155 O163 1.943 . S
O156 Zn155 1.962 . S
O156 C161 1.254 . S
O157 Zn154 2.031 . S
O157 C161 1.269 . S
O158 Zn155 1.986 . S
O158 C165 1.262 . S
O159 Zn154 2.049 . S
O159 C167 1.260 . S
O160 Zn155 1.996 . S
O160 C167 1.257 . S
C161 O156 1.254 . S
C161 O157 1.269 . S
C162 O163 1.249 . S
C162 O164 1.270 . S
O163 Zn155 1.943 . S
O163 C162 1.249 . S
O164 Zn154 2.067 . S
O164 C162 1.270 . S
C165 O158 1.262 . S
C165 O166 1.232 . S
O166 C165 1.232 . S
C167 O159 1.260 . S
C167 O160 1.257 . S
Zn168 O171 2.031 . S
Zn168 O173 2.049 . S
Zn168 O178 2.067 . S
Zn169 O170 1.962 . S
Zn169 O172 1.986 . S
Zn169 O174 1.996 . S
Zn169 O177 1.943 . S
O170 Zn169 1.962 . S
O170 C175 1.254 . S
O171 Zn168 2.031 . S
O171 C175 1.269 . S
O172 Zn169 1.986 . S
O172 C179 1.262 . S
O173 Zn168 2.049 . S
O173 C181 1.260 . S
O174 Zn169 1.996 . S
O174 C181 1.257 . S
C175 O170 1.254 . S
C175 O171 1.269 . S
C176 O177 1.249 . S
C176 O178 1.270 . S
O177 Zn169 1.943 . S
O177 C176 1.249 . S
O178 Zn168 2.067 . S
O178 C176 1.270 . S
C179 O172 1.262 . S
C179 O180 1.232 . S
O180 C179 1.232 . S
C181 O173 1.260 . S
C181 O174 1.257 . S
Zn182 O185 2.031 . S
Zn182 O187 2.049 . S
Zn182 O192 2.067 . S
Zn183 O184 1.962 . S
Zn183 O186 1.986 . S
Zn183 O188 1.996 . S
Zn183 O191 1.943 . S
O184 Zn183 1.962 . S
O184 C189 1.254 . S
O185 Zn182 2.031 . S
O185 C189 1.269 . S
O186 Zn183 1.986 . S
O186 C193 1.262 . S
O187 Zn182 2.049 . S
O187 C195 1.260 . S
O188 Zn183 1.996 . S
O188 C195 1.257 . S
C189 O184 1.254 . S
C189 O185 1.269 . S
C190 O191 1.249 . S
C190 O192 1.270 . S
O191 Zn183 1.943 . S
O191 C190 1.249 . S
O192 Zn182 2.067 . S
O192 C190 1.270 . S
C193 O186 1.262 . S
C193 O194 1.232 . S
O194 C193 1.232 . S
C195 O187 1.260 . S
C195 O188 1.257 . S
Zn196 O199 2.031 . S
Zn196 O201 2.049 . S
Zn196 O206 2.067 . S
Zn197 O198 1.962 . S
Zn197 O200 1.986 . S
Zn197 O202 1.996 . S
Zn197 O205 1.943 . S
O198 Zn197 1.962 . S
O198 C203 1.254 . S
O199 Zn196 2.031 . S
O199 C203 1.269 . S
O200 Zn197 1.986 . S
O200 C207 1.262 . S
O201 Zn196 2.049 . S
O201 C209 1.260 . S
O202 Zn197 1.996 . S
O202 C209 1.257 . S
C203 O198 1.254 . S
C203 O199 1.269 . S
C204 O205 1.249 . S
C204 O206 1.270 . S
O205 Zn197 1.943 . S
O205 C204 1.249 . S
O206 Zn196 2.067 . S
O206 C204 1.270 . S
C207 O200 1.262 . S
C207 O208 1.232 . S
O208 C207 1.232 . S
C209 O201 1.260 . S
C209 O202 1.257 . S
Zn210 O213 2.031 . S
Zn210 O215 2.049 . S
Zn210 O220 2.067 . S
Zn211 O212 1.962 . S
Zn211 O214 1.986 . S
Zn211 O216 1.996 . S
Zn211 O219 1.943 . S
O212 Zn211 1.962 . S
O212 C217 1.254 . S
O213 Zn210 2.031 . S
O213 C217 1.269 . S
O214 Zn211 1.986 . S
O214 C221 1.262 . S
O215 Zn210 2.049 . S
O215 C223 1.260 . S
O216 Zn211 1.996 . S
O216 C223 1.257 . S
C217 O212 1.254 . S
C217 O213 1.269 . S
C218 O219 1.249 . S
C218 O220 1.270 . S
O219 Zn211 1.943 . S
O219 C218 1.249 . S
O220 Zn210 2.067 . S
O220 C218 1.270 . S
C221 O214 1.262 . S
C221 O222 1.232 . S
O222 C221 1.232 . S
C223 O215 1.260 . S
C223 O216 1.257 . S
Zn224 O227 2.031 . S
Zn224 O229 2.049 . S
Zn224 O234 2.067 . S
Zn225 O226 1.962 . S
Zn225 O228 1.986 . S
Zn225 O230 1.996 . S
Zn225 O233 1.943 . S
O226 Zn225 1.962 . S
O226 C231 1.254 . S
O227 Zn224 2.031 . S
O227 C231 1.269 . S
O228 Zn225 1.986 . S
O228 C235 1.262 . S
O229 Zn224 2.049 . S
O229 C237 1.260 . S
O230 Zn225 1.996 . S
O230 C237 1.257 . S
C231 O226 1.254 . S
C231 O227 1.269 . S
C232 O233 1.249 . S
C232 O234 1.270 . S
O233 Zn225 1.943 . S
O233 C232 1.249 . S
O234 Zn224 2.067 . S
O234 C232 1.270 . S
C235 O228 1.262 . S
C235 O236 1.232 . S
O236 C235 1.232 . S
C237 O229 1.260 . S
C237 O230 1.257 . S
Zn238 O241 2.031 . S
Zn238 O243 2.049 . S
Zn238 O248 2.067 . S
Zn239 O240 1.962 . S
Zn239 O242 1.986 . S
Zn239 O244 1.996 . S
Zn239 O247 1.943 . S
O240 Zn239 1.962 . S
O240 C245 1.254 . S
O241 Zn238 2.031 . S
O241 C245 1.269 . S
O242 Zn239 1.986 . S
O242 C249 1.262 . S
O243 Zn238 2.049 . S
O243 C251 1.260 . S
O244 Zn239 1.996 . S
O244 C251 1.257 . S
C245 O240 1.254 . S
C245 O241 1.269 . S
C246 O247 1.249 . S
C246 O248 1.270 . S
O247 Zn239 1.943 . S
O247 C246 1.249 . S
O248 Zn238 2.067 . S
O248 C246 1.270 . S
C249 O242 1.262 . S
C249 O250 1.232 . S
O250 C249 1.232 . S
C251 O243 1.260 . S
C251 O244 1.257 . S
Zn252 O255 2.031 . S
Zn252 O257 2.049 . S
Zn252 O262 2.067 . S
Zn253 O254 1.962 . S
Zn253 O256 1.986 . S
Zn253 O258 1.996 . S
Zn253 O261 1.943 . S
O254 Zn253 1.962 . S
O254 C259 1.254 . S
O255 Zn252 2.031 . S
O255 C259 1.269 . S
O256 Zn253 1.986 . S
O256 C263 1.262 . S
O257 Zn252 2.049 . S
O257 C265 1.260 . S
O258 Zn253 1.996 . S
O258 C265 1.257 . S
C259 O254 1.254 . S
C259 O255 1.269 . S
C260 O261 1.249 . S
C260 O262 1.270 . S
O261 Zn253 1.943 . S
O261 C260 1.249 . S
O262 Zn252 2.067 . S
O262 C260 1.270 . S
C263 O256 1.262 . S
C263 O264 1.232 . S
O264 C263 1.232 . S
C265 O257 1.260 . S
C265 O258 1.257 . S
Zn266 O269 2.031 . S
Zn266 O271 2.049 . S
Zn266 O276 2.067 . S
Zn267 O268 1.962 . S
Zn267 O270 1.986 . S
Zn267 O272 1.996 . S
Zn267 O275 1.943 . S
O268 Zn267 1.962 . S
O268 C273 1.254 . S
O269 Zn266 2.031 . S
O269 C273 1.269 . S
O270 Zn267 1.986 . S
O270 C277 1.262 . S
O271 Zn266 2.049 . S
O271 C279 1.260 . S
O272 Zn267 1.996 . S
O272 C279 1.257 . S
C273 O268 1.254 . S
C273 O269 1.269 . S
C274 O275 1.249 . S
C274 O276 1.270 . S
O275 Zn267 1.943 . S
O275 C274 1.249 . S
O276 Zn266 2.067 . S
O276 C274 1.270 . S
C277 O270 1.262 . S
C277 O278 1.232 . S
O278 C277 1.232 . S
C279 O271 1.260 . S
C279 O272 1.257 . S
Zn280 O283 2.031 . S
Zn280 O285 2.049 . S
Zn280 O290 2.067 . S
Zn281 O282 1.962 . S
Zn281 O284 1.986 . S
Zn281 O286 1.996 . S
Zn281 O289 1.943 . S
O282 Zn281 1.962 . S
O282 C287 1.254 . S
O283 Zn280 2.031 . S
O283 C287 1.269 . S
O284 Zn281 1.986 . S
O284 C291 1.262 . S
O285 Zn280 2.049 . S
O285 C293 1.260 . S
O286 Zn281 1.996 . S
O286 C293 1.257 . S
C287 O282 1.254 . S
C287 O283 1.269 . S
C288 O289 1.249 . S
C288 O290 1.270 . S
O289 Zn281 1.943 . S
O289 C288 1.249 . S
O290 Zn280 2.067 . S
O290 C288 1.270 . S
C291 O284 1.262 . S
C291 O292 1.232 . S
O292 C291 1.232 . S
C293 O285 1.260 . S
C293 O286 1.257 . S
Zn294 O297 2.031 . S
Zn294 O299 2.049 . S
Zn294 O304 2.067 . S
Zn295 O296 1.962 . S
Zn295 O298 1.986 . S
Zn295 O300 1.996 . S
Zn295 O303 1.943 . S
O296 Zn295 1.962 . S
O296 C301 1.254 . S
O297 Zn294 2.031 . S
O297 C301 1.269 . S
O298 Zn295 1.986 . S
O298 C305 1.262 . S
O299 Zn294 2.049 . S
O299 C307 1.260 . S
O300 Zn295 1.996 . S
O300 C307 1.257 . S
C301 O296 1.254 . S
C301 O297 1.269 . S
C302 O303 1.249 . S
C302 O304 1.270 . S
O303 Zn295 1.943 . S
O303 C302 1.249 . S
O304 Zn294 2.067 . S
O304 C302 1.270 . S
C305 O298 1.262 . S
C305 O306 1.232 . S
O306 C305 1.232 . S
C307 O299 1.260 . S
C307 O300 1.257 . S
Zn308 O311 2.031 . S
Zn308 O313 2.049 . S
Zn308 O318 2.067 . S
Zn309 O310 1.962 . S
Zn309 O312 1.986 . S
Zn309 O314 1.996 . S
Zn309 O317 1.943 . S
O310 Zn309 1.962 . S
O310 C315 1.254 . S
O311 Zn308 2.031 . S
O311 C315 1.269 . S
O312 Zn309 1.986 . S
O312 C319 1.262 . S
O313 Zn308 2.049 . S
O313 C321 1.260 . S
O314 Zn309 1.996 . S
O314 C321 1.257 . S
C315 O310 1.254 . S
C315 O311 1.269 . S
C316 O317 1.249 . S
C316 O318 1.270 . S
O317 Zn309 1.943 . S
O317 C316 1.249 . S
O318 Zn308 2.067 . S
O318 C316 1.270 . S
C319 O312 1.262 . S
C319 O320 1.232 . S
O320 C319 1.232 . S
C321 O313 1.260 . S
C321 O314 1.257 . S
Zn322 O325 2.031 . S
Zn322 O327 2.049 . S
Zn322 O332 2.067 . S
Zn323 O324 1.962 . S
Zn323 O326 1.986 . S
Zn323 O328 1.996 . S
Zn323 O331 1.943 . S
O324 Zn323 1.962 . S
O324 C329 1.254 . S
O325 Zn322 2.031 . S
O325 C329 1.269 . S
O326 Zn323 1.986 . S
O326 C333 1.262 . S
O327 Zn322 2.049 . S
O327 C335 1.260 . S
O328 Zn323 1.996 . S
O328 C335 1.257 . S
C329 O324 1.254 . S
C329 O325 1.269 . S
C330 O331 1.249 . S
C330 O332 1.270 . S
O331 Zn323 1.943 . S
O331 C330 1.249 . S
O332 Zn322 2.067 . S
O332 C330 1.270 . S
C333 O326 1.262 . S
C333 O334 1.232 . S
O334 C333 1.232 . S
C335 O327 1.260 . S
C335 O328 1.257 . S
Zn336 O339 2.031 . S
Zn336 O341 2.049 . S
Zn336 O346 2.067 . S
Zn337 O338 1.962 . S
Zn337 O340 1.986 . S
Zn337 O342 1.996 . S
Zn337 O345 1.943 . S
O338 Zn337 1.962 . S
O338 C343 1.254 . S
O339 Zn336 2.031 . S
O339 C343 1.269 . S
O340 Zn337 1.986 . S
O340 C347 1.262 . S
O341 Zn336 2.049 . S
O341 C349 1.260 . S
O342 Zn337 1.996 . S
O342 C349 1.257 . S
C343 O338 1.254 . S
C343 O339 1.269 . S
C344 O345 1.249 . S
C344 O346 1.270 . S
O345 Zn337 1.943 . S
O345 C344 1.249 . S
O346 Zn336 2.067 . S
O346 C344 1.270 . S
C347 O340 1.262 . S
C347 O348 1.232 . S
O348 C347 1.232 . S
C349 O341 1.260 . S
C349 O342 1.257 . S
Zn350 O353 2.031 . S
Zn350 O355 2.049 . S
Zn350 O360 2.067 . S
Zn351 O352 1.962 . S
Zn351 O354 1.986 . S
Zn351 O356 1.996 . S
Zn351 O359 1.943 . S
O352 Zn351 1.962 . S
O352 C357 1.254 . S
O353 Zn350 2.031 . S
O353 C357 1.269 . S
O354 Zn351 1.986 . S
O354 C361 1.262 . S
O355 Zn350 2.049 . S
O355 C363 1.260 . S
O356 Zn351 1.996 . S
O356 C363 1.257 . S
C357 O352 1.254 . S
C357 O353 1.269 . S
C358 O359 1.249 . S
C358 O360 1.270 . S
O359 Zn351 1.943 . S
O359 C358 1.249 . S
O360 Zn350 2.067 . S
O360 C358 1.270 . S
C361 O354 1.262 . S
C361 O362 1.232 . S
O362 C361 1.232 . S
C363 O355 1.260 . S
C363 O356 1.257 . S
Zn364 O367 2.031 . S
Zn364 O369 2.049 . S
Zn364 O374 2.067 . S
Zn365 O366 1.962 . S
Zn365 O368 1.986 . S
Zn365 O370 1.996 . S
Zn365 O373 1.943 . S
O366 Zn365 1.962 . S
O366 C371 1.254 . S
O367 Zn364 2.031 . S
O367 C371 1.269 . S
O368 Zn365 1.986 . S
O368 C375 1.262 . S
O369 Zn364 2.049 . S
O369 C377 1.260 . S
O370 Zn365 1.996 . S
O370 C377 1.257 . S
C371 O366 1.254 . S
C371 O367 1.269 . S
C372 O373 1.249 . S
C372 O374 1.270 . S
O373 Zn365 1.943 . S
O373 C372 1.249 . S
O374 Zn364 2.067 . S
O374 C372 1.270 . S
C375 O368 1.262 . S
C375 O376 1.232 . S
O376 C375 1.232 . S
C377 O369 1.260 . S
C377 O370 1.257 . S
Zn378 O381 2.031 . S
Zn378 O383 2.049 . S
Zn378 O388 2.067 . S
Zn379 O380 1.962 . S
Zn379 O382 1.986 . S
Zn379 O384 1.996 . S
Zn379 O387 1.943 . S
O380 Zn379 1.962 . S
O380 C385 1.254 . S
O381 Zn378 2.031 . S
O381 C385 1.269 . S
O382 Zn379 1.986 . S
O382 C389 1.262 . S
O383 Zn378 2.049 . S
O383 C391 1.260 . S
O384 Zn379 1.996 . S
O384 C391 1.257 . S
C385 O380 1.254 . S
C385 O381 1.269 . S
C386 O387 1.249 . S
C386 O388 1.270 . S
O387 Zn379 1.943 . S
O387 C386 1.249 . S
O388 Zn378 2.067 . S
O388 C386 1.270 . S
C389 O382 1.262 . S
C389 O390 1.232 . S
O390 C389 1.232 . S
C391 O383 1.260 . S
C391 O384 1.257 . S
Zn392 O395 2.031 . S
Zn392 O397 2.049 . S
Zn392 O402 2.067 . S
Zn393 O394 1.962 . S
Zn393 O396 1.986 . S
Zn393 O398 1.996 . S
Zn393 O401 1.943 . S
O394 Zn393 1.962 . S
O394 C399 1.254 . S
O395 Zn392 2.031 . S
O395 C399 1.269 . S
O396 Zn393 1.986 . S
O396 C403 1.262 . S
O397 Zn392 2.049 . S
O397 C405 1.260 . S
O398 Zn393 1.996 . S
O398 C405 1.257 . S
C399 O394 1.254 . S
C399 O395 1.269 . S
C400 O401 1.249 . S
C400 O402 1.270 . S
O401 Zn393 1.943 . S
O401 C400 1.249 . S
O402 Zn392 2.067 . S
O402 C400 1.270 . S
C403 O396 1.262 . S
C403 O404 1.232 . S
O404 C403 1.232 . S
C405 O397 1.260 . S
C405 O398 1.257 . S
Zn406 O409 2.031 . S
Zn406 O411 2.049 . S
Zn406 O416 2.067 . S
Zn407 O408 1.962 . S
Zn407 O410 1.986 . S
Zn407 O412 1.996 . S
Zn407 O415 1.943 . S
O408 Zn407 1.962 . S
O408 C413 1.254 . S
O409 Zn406 2.031 . S
O409 C413 1.269 . S
O410 Zn407 1.986 . S
O410 C417 1.262 . S
O411 Zn406 2.049 . S
O411 C419 1.260 . S
O412 Zn407 1.996 . S
O412 C419 1.257 . S
C413 O408 1.254 . S
C413 O409 1.269 . S
C414 O415 1.249 . S
C414 O416 1.270 . S
O415 Zn407 1.943 . S
O415 C414 1.249 . S
O416 Zn406 2.067 . S
O416 C414 1.270 . S
C417 O410 1.262 . S
C417 O418 1.232 . S
O418 C417 1.232 . S
C419 O411 1.260 . S
C419 O412 1.257 . S
Zn420 O423 2.031 . S
Zn420 O425 2.049 . S
Zn420 O430 2.067 . S
Zn421 O422 1.962 . S
Zn421 O424 1.986 . S
Zn421 O426 1.996 . S
Zn421 O429 1.943 . S
O422 Zn421 1.962 . S
O422 C427 1.254 . S
O423 Zn420 2.031 . S
O423 C427 1.269 . S
O424 Zn421 1.986 . S
O424 C431 1.262 . S
O425 Zn420 2.049 . S
O425 C433 1.260 . S
O426 Zn421 1.996 . S
O426 C433 1.257 . S
C427 O422 1.254 . S
C427 O423 1.269 . S
C428 O429 1.249 . S
C428 O430 1.270 . S
O429 Zn421 1.943 . S
O429 C428 1.249 . S
O430 Zn420 2.067 . S
O430 C428 1.270 . S
C431 O424 1.262 . S
C431 O432 1.232 . S
O432 C431 1.232 . S
C433 O425 1.260 . S
C433 O426 1.257 . S
Zn434 O437 2.031 . S
Zn434 O439 2.049 . S
Zn434 O444 2.067 . S
Zn435 O436 1.962 . S
Zn435 O438 1.986 . S
Zn435 O440 1.996 . S
Zn435 O443 1.943 . S
O436 Zn435 1.962 . S
O436 C441 1.254 . S
O437 Zn434 2.031 . S
O437 C441 1.269 . S
O438 Zn435 1.986 . S
O438 C445 1.262 . S
O439 Zn434 2.049 . S
O439 C447 1.260 . S
O440 Zn435 1.996 . S
O440 C447 1.257 . S
C441 O436 1.254 . S
C441 O437 1.269 . S
C442 O443 1.249 . S
C442 O444 1.270 . S
O443 Zn435 1.943 . S
O443 C442 1.249 . S
O444 Zn434 2.067 . S
O444 C442 1.270 . S
C445 O438 1.262 . S
C445 O446 1.232 . S
O446 C445 1.232 . S
C447 O439 1.260 . S
C447 O440 1.257 . S
H448 C454 0.930 . S
H449 C458 0.930 . S
H450 C463 0.929 . S
H451 C461 0.929 . S
H452 C456 0.929 . S
H453 C462 0.929 . S
C454 H448 0.930 . S
C454 C455 1.367 . S
C454 C462 1.378 . S
C455 C454 1.367 . S
C455 C463 1.433 . S
C456 H452 0.929 . S
C456 C458 1.378 . S
C456 C460 1.350 . S
C457 C460 1.463 . S
C457 C462 1.350 . S
C457 N465 1.427 . S
C458 H449 0.930 . S
C458 C456 1.378 . S
C458 C459 1.367 . S
C459 C458 1.367 . S
C459 C461 1.433 . S
C460 C456 1.350 . S
C460 C457 1.463 . S
C460 N464 1.427 . S
C461 H451 0.929 . S
C461 C459 1.433 . S
C461 N464 1.384 . S
C462 H453 0.929 . S
C462 C454 1.378 . S
C462 C457 1.350 . S
C463 H450 0.929 . S
C463 C455 1.433 . S
C463 N465 1.384 . S
N464 C460 1.427 . S
N464 C461 1.384 . S
N465 C457 1.427 . S
N465 C463 1.384 . S
H466 C472 0.930 . S
H467 C476 0.930 . S
H468 C481 0.929 . S
H469 C479 0.929 . S
H470 C474 0.929 . S
H471 C480 0.929 . S
C472 H466 0.930 . S
C472 C473 1.367 . S
C472 C480 1.378 . S
C473 C472 1.367 . S
C473 C481 1.433 . S
C474 H470 0.929 . S
C474 C476 1.378 . S
C474 C478 1.350 . S
C475 C478 1.463 . S
C475 C480 1.350 . S
C475 N483 1.427 . S
C476 H467 0.930 . S
C476 C474 1.378 . S
C476 C477 1.367 . S
C477 C476 1.367 . S
C477 C479 1.433 . S
C478 C474 1.350 . S
C478 C475 1.463 . S
C478 N482 1.427 . S
C479 H469 0.929 . S
C479 C477 1.433 . S
C479 N482 1.384 . S
C480 H471 0.929 . S
C480 C472 1.378 . S
C480 C475 1.350 . S
C481 H468 0.929 . S
C481 C473 1.433 . S
C481 N483 1.384 . S
N482 C478 1.427 . S
N482 C479 1.384 . S
N483 C475 1.427 . S
N483 C481 1.384 . S
H484 C490 0.930 . S
H485 C494 0.930 . S
H486 C499 0.929 . S
H487 C497 0.929 . S
H488 C492 0.929 . S
H489 C498 0.929 . S
C490 H484 0.930 . S
C490 C491 1.367 . S
C490 C498 1.378 . S
C491 C490 1.367 . S
C491 C499 1.433 . S
C492 H488 0.929 . S
C492 C494 1.378 . S
C492 C496 1.350 . S
C493 C496 1.463 . S
C493 C498 1.350 . S
C493 N501 1.427 . S
C494 H485 0.930 . S
C494 C492 1.378 . S
C494 C495 1.367 . S
C495 C494 1.367 . S
C495 C497 1.433 . S
C496 C492 1.350 . S
C496 C493 1.463 . S
C496 N500 1.427 . S
C497 H487 0.929 . S
C497 C495 1.433 . S
C497 N500 1.384 . S
C498 H489 0.929 . S
C498 C490 1.378 . S
C498 C493 1.350 . S
C499 H486 0.929 . S
C499 C491 1.433 . S
C499 N501 1.384 . S
N500 C496 1.427 . S
N500 C497 1.384 . S
N501 C493 1.427 . S
N501 C499 1.384 . S
H502 C508 0.930 . S
H503 C512 0.930 . S
H504 C517 0.929 . S
H505 C515 0.929 . S
H506 C510 0.929 . S
H507 C516 0.929 . S
C508 H502 0.930 . S
C508 C509 1.367 . S
C508 C516 1.378 . S
C509 C508 1.367 . S
C509 C517 1.433 . S
C510 H506 0.929 . S
C510 C512 1.378 . S
C510 C514 1.350 . S
C511 C514 1.463 . S
C511 C516 1.350 . S
C511 N519 1.427 . S
C512 H503 0.930 . S
C512 C510 1.378 . S
C512 C513 1.367 . S
C513 C512 1.367 . S
C513 C515 1.433 . S
C514 C510 1.350 . S
C514 C511 1.463 . S
C514 N518 1.427 . S
C515 H505 0.929 . S
C515 C513 1.433 . S
C515 N518 1.384 . S
C516 H507 0.929 . S
C516 C508 1.378 . S
C516 C511 1.350 . S
C517 H504 0.929 . S
C517 C509 1.433 . S
C517 N519 1.384 . S
N518 C514 1.427 . S
N518 C515 1.384 . S
N519 C511 1.427 . S
N519 C517 1.384 . S
H520 C526 0.930 . S
H521 C530 0.930 . S
H522 C535 0.929 . S
H523 C533 0.929 . S
H524 C528 0.929 . S
H525 C534 0.929 . S
C526 H520 0.930 . S
C526 C527 1.367 . S
C526 C534 1.378 . S
C527 C526 1.367 . S
C527 C535 1.433 . S
C528 H524 0.929 . S
C528 C530 1.378 . S
C528 C532 1.350 . S
C529 C532 1.463 . S
C529 C534 1.350 . S
C529 N537 1.427 . S
C530 H521 0.930 . S
C530 C528 1.378 . S
C530 C531 1.367 . S
C531 C530 1.367 . S
C531 C533 1.433 . S
C532 C528 1.350 . S
C532 C529 1.463 . S
C532 N536 1.427 . S
C533 H523 0.929 . S
C533 C531 1.433 . S
C533 N536 1.384 . S
C534 H525 0.929 . S
C534 C526 1.378 . S
C534 C529 1.350 . S
C535 H522 0.929 . S
C535 C527 1.433 . S
C535 N537 1.384 . S
N536 C532 1.427 . S
N536 C533 1.384 . S
N537 C529 1.427 . S
N537 C535 1.384 . S
H538 C544 0.930 . S
H539 C548 0.930 . S
H540 C553 0.929 . S
H541 C551 0.929 . S
H542 C546 0.929 . S
H543 C552 0.929 . S
C544 H538 0.930 . S
C544 C545 1.367 . S
C544 C552 1.378 . S
C545 C544 1.367 . S
C545 C553 1.433 . S
C546 H542 0.929 . S
C546 C548 1.378 . S
C546 C550 1.350 . S
C547 C550 1.463 . S
C547 C552 1.350 . S
C547 N555 1.427 . S
C548 H539 0.930 . S
C548 C546 1.378 . S
C548 C549 1.367 . S
C549 C548 1.367 . S
C549 C551 1.433 . S
C550 C546 1.350 . S
C550 C547 1.463 . S
C550 N554 1.427 . S
C551 H541 0.929 . S
C551 C549 1.433 . S
C551 N554 1.384 . S
C552 H543 0.929 . S
C552 C544 1.378 . S
C552 C547 1.350 . S
C553 H540 0.929 . S
C553 C545 1.433 . S
C553 N555 1.384 . S
N554 C550 1.427 . S
N554 C551 1.384 . S
N555 C547 1.427 . S
N555 C553 1.384 . S
H556 C562 0.930 . S
H557 C566 0.930 . S
H558 C571 0.929 . S
H559 C569 0.929 . S
H560 C564 0.929 . S
H561 C570 0.929 . S
C562 H556 0.930 . S
C562 C563 1.367 . S
C562 C570 1.378 . S
C563 C562 1.367 . S
C563 C571 1.433 . S
C564 H560 0.929 . S
C564 C566 1.378 . S
C564 C568 1.350 . S
C565 C568 1.463 . S
C565 C570 1.350 . S
C565 N573 1.427 . S
C566 H557 0.930 . S
C566 C564 1.378 . S
C566 C567 1.367 . S
C567 C566 1.367 . S
C567 C569 1.433 . S
C568 C564 1.350 . S
C568 C565 1.463 . S
C568 N572 1.427 . S
C569 H559 0.929 . S
C569 C567 1.433 . S
C569 N572 1.384 . S
C570 H561 0.929 . S
C570 C562 1.378 . S
C570 C565 1.350 . S
C571 H558 0.929 . S
C571 C563 1.433 . S
C571 N573 1.384 . S
N572 C568 1.427 . S
N572 C569 1.384 . S
N573 C565 1.427 . S
N573 C571 1.384 . S
H574 C580 0.930 . S
H575 C584 0.930 . S
H576 C589 0.929 . S
H577 C587 0.929 . S
H578 C582 0.929 . S
H579 C588 0.929 . S
C580 H574 0.930 . S
C580 C581 1.367 . S
C580 C588 1.378 . S
C581 C580 1.367 . S
C581 C589 1.433 . S
C582 H578 0.929 . S
C582 C584 1.378 . S
C582 C586 1.350 . S
C583 C586 1.463 . S
C583 C588 1.350 . S
C583 N591 1.427 . S
C584 H575 0.930 . S
C584 C582 1.378 . S
C584 C585 1.367 . S
C585 C584 1.367 . S
C585 C587 1.433 . S
C586 C582 1.350 . S
C586 C583 1.463 . S
C586 N590 1.427 . S
C587 H577 0.929 . S
C587 C585 1.433 . S
C587 N590 1.384 . S
C588 H579 0.929 . S
C588 C580 1.378 . S
C588 C583 1.350 . S
C589 H576 0.929 . S
C589 C581 1.433 . S
C589 N591 1.384 . S
N590 C586 1.427 . S
N590 C587 1.384 . S
N591 C583 1.427 . S
N591 C589 1.384 . S
H592 C598 0.930 . S
H593 C602 0.930 . S
H594 C607 0.929 . S
H595 C605 0.929 . S
H596 C600 0.929 . S
H597 C606 0.929 . S
C598 H592 0.930 . S
C598 C599 1.367 . S
C598 C606 1.378 . S
C599 C598 1.367 . S
C599 C607 1.433 . S
C600 H596 0.929 . S
C600 C602 1.378 . S
C600 C604 1.350 . S
C601 C604 1.463 . S
C601 C606 1.350 . S
C601 N609 1.427 . S
C602 H593 0.930 . S
C602 C600 1.378 . S
C602 C603 1.367 . S
C603 C602 1.367 . S
C603 C605 1.433 . S
C604 C600 1.350 . S
C604 C601 1.463 . S
C604 N608 1.427 . S
C605 H595 0.929 . S
C605 C603 1.433 . S
C605 N608 1.384 . S
C606 H597 0.929 . S
C606 C598 1.378 . S
C606 C601 1.350 . S
C607 H594 0.929 . S
C607 C599 1.433 . S
C607 N609 1.384 . S
N608 C604 1.427 . S
N608 C605 1.384 . S
N609 C601 1.427 . S
N609 C607 1.384 . S
H610 C616 0.930 . S
H611 C620 0.930 . S
H612 C625 0.929 . S
H613 C623 0.929 . S
H614 C618 0.929 . S
H615 C624 0.929 . S
C616 H610 0.930 . S
C616 C617 1.367 . S
C616 C624 1.378 . S
C617 C616 1.367 . S
C617 C625 1.433 . S
C618 H614 0.929 . S
C618 C620 1.378 . S
C618 C622 1.350 . S
C619 C622 1.463 . S
C619 C624 1.350 . S
C619 N627 1.427 . S
C620 H611 0.930 . S
C620 C618 1.378 . S
C620 C621 1.367 . S
C621 C620 1.367 . S
C621 C623 1.433 . S
C622 C618 1.350 . S
C622 C619 1.463 . S
C622 N626 1.427 . S
C623 H613 0.929 . S
C623 C621 1.433 . S
C623 N626 1.384 . S
C624 H615 0.929 . S
C624 C616 1.378 . S
C624 C619 1.350 . S
C625 H612 0.929 . S
C625 C617 1.433 . S
C625 N627 1.384 . S
N626 C622 1.427 . S
N626 C623 1.384 . S
N627 C619 1.427 . S
N627 C625 1.384 . S
H628 C634 0.930 . S
H629 C638 0.930 . S
H630 C643 0.929 . S
H631 C641 0.929 . S
H632 C636 0.929 . S
H633 C642 0.929 . S
C634 H628 0.930 . S
C634 C635 1.367 . S
C634 C642 1.378 . S
C635 C634 1.367 . S
C635 C643 1.433 . S
C636 H632 0.929 . S
C636 C638 1.378 . S
C636 C640 1.350 . S
C637 C640 1.463 . S
C637 C642 1.350 . S
C637 N645 1.427 . S
C638 H629 0.930 . S
C638 C636 1.378 . S
C638 C639 1.367 . S
C639 C638 1.367 . S
C639 C641 1.433 . S
C640 C636 1.350 . S
C640 C637 1.463 . S
C640 N644 1.427 . S
C641 H631 0.929 . S
C641 C639 1.433 . S
C641 N644 1.384 . S
C642 H633 0.929 . S
C642 C634 1.378 . S
C642 C637 1.350 . S
C643 H630 0.929 . S
C643 C635 1.433 . S
C643 N645 1.384 . S
N644 C640 1.427 . S
N644 C641 1.384 . S
N645 C637 1.427 . S
N645 C643 1.384 . S
H646 C652 0.930 . S
H647 C656 0.930 . S
H648 C661 0.929 . S
H649 C659 0.929 . S
H650 C654 0.929 . S
H651 C660 0.929 . S
C652 H646 0.930 . S
C652 C653 1.367 . S
C652 C660 1.378 . S
C653 C652 1.367 . S
C653 C661 1.433 . S
C654 H650 0.929 . S
C654 C656 1.378 . S
C654 C658 1.350 . S
C655 C658 1.463 . S
C655 C660 1.350 . S
C655 N663 1.427 . S
C656 H647 0.930 . S
C656 C654 1.378 . S
C656 C657 1.367 . S
C657 C656 1.367 . S
C657 C659 1.433 . S
C658 C654 1.350 . S
C658 C655 1.463 . S
C658 N662 1.427 . S
C659 H649 0.929 . S
C659 C657 1.433 . S
C659 N662 1.384 . S
C660 H651 0.929 . S
C660 C652 1.378 . S
C660 C655 1.350 . S
C661 H648 0.929 . S
C661 C653 1.433 . S
C661 N663 1.384 . S
N662 C658 1.427 . S
N662 C659 1.384 . S
N663 C655 1.427 . S
N663 C661 1.384 . S
H664 C670 0.930 . S
H665 C674 0.930 . S
H666 C679 0.929 . S
H667 C677 0.929 . S
H668 C672 0.929 . S
H669 C678 0.929 . S
C670 H664 0.930 . S
C670 C671 1.367 . S
C670 C678 1.378 . S
C671 C670 1.367 . S
C671 C679 1.433 . S
C672 H668 0.929 . S
C672 C674 1.378 . S
C672 C676 1.350 . S
C673 C676 1.463 . S
C673 C678 1.350 . S
C673 N681 1.427 . S
C674 H665 0.930 . S
C674 C672 1.378 . S
C674 C675 1.367 . S
C675 C674 1.367 . S
C675 C677 1.433 . S
C676 C672 1.350 . S
C676 C673 1.463 . S
C676 N680 1.427 . S
C677 H667 0.929 . S
C677 C675 1.433 . S
C677 N680 1.384 . S
C678 H669 0.929 . S
C678 C670 1.378 . S
C678 C673 1.350 . S
C679 H666 0.929 . S
C679 C671 1.433 . S
C679 N681 1.384 . S
N680 C676 1.427 . S
N680 C677 1.384 . S
N681 C673 1.427 . S
N681 C679 1.384 . S
H682 C688 0.930 . S
H683 C692 0.930 . S
H684 C697 0.929 . S
H685 C695 0.929 . S
H686 C690 0.929 . S
H687 C696 0.929 . S
C688 H682 0.930 . S
C688 C689 1.367 . S
C688 C696 1.378 . S
C689 C688 1.367 . S
C689 C697 1.433 . S
C690 H686 0.929 . S
C690 C692 1.378 . S
C690 C694 1.350 . S
C691 C694 1.463 . S
C691 C696 1.350 . S
C691 N699 1.427 . S
C692 H683 0.930 . S
C692 C690 1.378 . S
C692 C693 1.367 . S
C693 C692 1.367 . S
C693 C695 1.433 . S
C694 C690 1.350 . S
C694 C691 1.463 . S
C694 N698 1.427 . S
C695 H685 0.929 . S
C695 C693 1.433 . S
C695 N698 1.384 . S
C696 H687 0.929 . S
C696 C688 1.378 . S
C696 C691 1.350 . S
C697 H684 0.929 . S
C697 C689 1.433 . S
C697 N699 1.384 . S
N698 C694 1.427 . S
N698 C695 1.384 . S
N699 C691 1.427 . S
N699 C697 1.384 . S
H700 C706 0.930 . S
H701 C710 0.930 . S
H702 C715 0.929 . S
H703 C713 0.929 . S
H704 C708 0.929 . S
H705 C714 0.929 . S
C706 H700 0.930 . S
C706 C707 1.367 . S
C706 C714 1.378 . S
C707 C706 1.367 . S
C707 C715 1.433 . S
C708 H704 0.929 . S
C708 C710 1.378 . S
C708 C712 1.350 . S
C709 C712 1.463 . S
C709 C714 1.350 . S
C709 N717 1.427 . S
C710 H701 0.930 . S
C710 C708 1.378 . S
C710 C711 1.367 . S
C711 C710 1.367 . S
C711 C713 1.433 . S
C712 C708 1.350 . S
C712 C709 1.463 . S
C712 N716 1.427 . S
C713 H703 0.929 . S
C713 C711 1.433 . S
C713 N716 1.384 . S
C714 H705 0.929 . S
C714 C706 1.378 . S
C714 C709 1.350 . S
C715 H702 0.929 . S
C715 C707 1.433 . S
C715 N717 1.384 . S
N716 C712 1.427 . S
N716 C713 1.384 . S
N717 C709 1.427 . S
N717 C715 1.384 . S
H718 C724 0.930 . S
H719 C728 0.930 . S
H720 C733 0.929 . S
H721 C731 0.929 . S
H722 C726 0.929 . S
H723 C732 0.929 . S
C724 H718 0.930 . S
C724 C725 1.367 . S
C724 C732 1.378 . S
C725 C724 1.367 . S
C725 C733 1.433 . S
C726 H722 0.929 . S
C726 C728 1.378 . S
C726 C730 1.350 . S
C727 C730 1.463 . S
C727 C732 1.350 . S
C727 N735 1.427 . S
C728 H719 0.930 . S
C728 C726 1.378 . S
C728 C729 1.367 . S
C729 C728 1.367 . S
C729 C731 1.433 . S
C730 C726 1.350 . S
C730 C727 1.463 . S
C730 N734 1.427 . S
C731 H721 0.929 . S
C731 C729 1.433 . S
C731 N734 1.384 . S
C732 H723 0.929 . S
C732 C724 1.378 . S
C732 C727 1.350 . S
C733 H720 0.929 . S
C733 C725 1.433 . S
C733 N735 1.384 . S
N734 C730 1.427 . S
N734 C731 1.384 . S
N735 C727 1.427 . S
N735 C733 1.384 . S
H736 C742 0.930 . S
H737 C746 0.930 . S
H738 C751 0.929 . S
H739 C749 0.929 . S
H740 C744 0.929 . S
H741 C750 0.929 . S
C742 H736 0.930 . S
C742 C743 1.367 . S
C742 C750 1.378 . S
C743 C742 1.367 . S
C743 C751 1.433 . S
C744 H740 0.929 . S
C744 C746 1.378 . S
C744 C748 1.350 . S
C745 C748 1.463 1_554 S
C745 C750 1.350 . S
C745 N753 1.427 . S
C746 H737 0.930 . S
C746 C744 1.378 . S
C746 C747 1.367 . S
C747 C746 1.367 . S
C747 C749 1.433 . S
C748 C744 1.350 . S
C748 C745 1.463 1_556 S
C748 N752 1.427 . S
C749 H739 0.929 . S
C749 C747 1.433 . S
C749 N752 1.384 . S
C750 H741 0.929 . S
C750 C742 1.378 . S
C750 C745 1.350 . S
C751 H738 0.929 . S
C751 C743 1.433 . S
C751 N753 1.384 . S
N752 C748 1.427 . S
N752 C749 1.384 . S
N753 C745 1.427 . S
N753 C751 1.384 . S
H754 C760 0.930 . S
H755 C764 0.930 . S
H756 C769 0.929 . S
H757 C767 0.929 . S
H758 C762 0.929 . S
H759 C768 0.929 . S
C760 H754 0.930 . S
C760 C761 1.367 . S
C760 C768 1.378 . S
C761 C760 1.367 . S
C761 C769 1.433 . S
C762 H758 0.929 . S
C762 C764 1.378 . S
C762 C766 1.350 . S
C763 C766 1.463 1_556 S
C763 C768 1.350 . S
C763 N771 1.427 . S
C764 H755 0.930 . S
C764 C762 1.378 . S
C764 C765 1.367 . S
C765 C764 1.367 . S
C765 C767 1.433 . S
C766 C762 1.350 . S
C766 C763 1.463 1_554 S
C766 N770 1.427 . S
C767 H757 0.929 . S
C767 C765 1.433 . S
C767 N770 1.384 . S
C768 H759 0.929 . S
C768 C760 1.378 . S
C768 C763 1.350 . S
C769 H756 0.929 . S
C769 C761 1.433 . S
C769 N771 1.384 . S
N770 C766 1.427 . S
N770 C767 1.384 . S
N771 C763 1.427 . S
N771 C769 1.384 . S
H772 C778 0.930 . S
H773 C782 0.930 . S
H774 C787 0.929 . S
H775 C785 0.929 . S
H776 C780 0.929 . S
H777 C786 0.929 . S
C778 H772 0.930 . S
C778 C779 1.367 . S
C778 C786 1.378 . S
C779 C778 1.367 . S
C779 C787 1.433 . S
C780 H776 0.929 . S
C780 C782 1.378 . S
C780 C784 1.350 . S
C781 C784 1.463 1_556 S
C781 C786 1.350 . S
C781 N789 1.427 . S
C782 H773 0.930 . S
C782 C780 1.378 . S
C782 C783 1.367 . S
C783 C782 1.367 . S
C783 C785 1.433 . S
C784 C780 1.350 . S
C784 C781 1.463 1_554 S
C784 N788 1.427 . S
C785 H775 0.929 . S
C785 C783 1.433 . S
C785 N788 1.384 . S
C786 H777 0.929 . S
C786 C778 1.378 . S
C786 C781 1.350 . S
C787 H774 0.929 . S
C787 C779 1.433 . S
C787 N789 1.384 . S
N788 C784 1.427 . S
N788 C785 1.384 . S
N789 C781 1.427 . S
N789 C787 1.384 . S
H790 C796 0.930 . S
H791 C800 0.930 . S
H792 C805 0.929 . S
H793 C803 0.929 . S
H794 C798 0.929 . S
H795 C804 0.929 . S
C796 H790 0.930 . S
C796 C797 1.367 . S
C796 C804 1.378 . S
C797 C796 1.367 . S
C797 C805 1.433 . S
C798 H794 0.929 . S
C798 C800 1.378 . S
C798 C802 1.350 . S
C799 C802 1.463 1_556 S
C799 C804 1.350 . S
C799 N807 1.427 . S
C800 H791 0.930 . S
C800 C798 1.378 . S
C800 C801 1.367 . S
C801 C800 1.367 . S
C801 C803 1.433 . S
C802 C798 1.350 . S
C802 C799 1.463 1_554 S
C802 N806 1.427 . S
C803 H793 0.929 . S
C803 C801 1.433 . S
C803 N806 1.384 . S
C804 H795 0.929 . S
C804 C796 1.378 . S
C804 C799 1.350 . S
C805 H792 0.929 . S
C805 C797 1.433 . S
C805 N807 1.384 . S
N806 C802 1.427 . S
N806 C803 1.384 . S
N807 C799 1.427 . S
N807 C805 1.384 . S
H808 C814 0.930 . S
H809 C818 0.930 . S
H810 C823 0.929 . S
H811 C821 0.929 . S
H812 C816 0.929 . S
H813 C822 0.929 . S
C814 H808 0.930 . S
C814 C815 1.367 . S
C814 C822 1.378 . S
C815 C814 1.367 . S
C815 C823 1.433 . S
C816 H812 0.929 . S
C816 C818 1.378 . S
C816 C820 1.350 . S
C817 C820 1.463 . S
C817 C822 1.350 . S
C817 N825 1.427 . S
C818 H809 0.930 . S
C818 C816 1.378 . S
C818 C819 1.367 . S
C819 C818 1.367 . S
C819 C821 1.433 . S
C820 C816 1.350 . S
C820 C817 1.463 . S
C820 N824 1.427 . S
C821 H811 0.929 . S
C821 C819 1.433 . S
C821 N824 1.384 . S
C822 H813 0.929 . S
C822 C814 1.378 . S
C822 C817 1.350 . S
C823 H810 0.929 . S
C823 C815 1.433 . S
C823 N825 1.384 . S
N824 C820 1.427 . S
N824 C821 1.384 . S
N825 C817 1.427 . S
N825 C823 1.384 . S
H826 C832 0.930 . S
H827 C836 0.930 . S
H828 C841 0.929 . S
H829 C839 0.929 . S
H830 C834 0.929 . S
H831 C840 0.929 . S
C832 H826 0.930 . S
C832 C833 1.367 . S
C832 C840 1.378 . S
C833 C832 1.367 . S
C833 C841 1.433 . S
C834 H830 0.929 . S
C834 C836 1.378 . S
C834 C838 1.350 . S
C835 C838 1.463 . S
C835 C840 1.350 . S
C835 N843 1.427 . S
C836 H827 0.930 . S
C836 C834 1.378 . S
C836 C837 1.367 . S
C837 C836 1.367 . S
C837 C839 1.433 . S
C838 C834 1.350 . S
C838 C835 1.463 . S
C838 N842 1.427 . S
C839 H829 0.929 . S
C839 C837 1.433 . S
C839 N842 1.384 . S
C840 H831 0.929 . S
C840 C832 1.378 . S
C840 C835 1.350 . S
C841 H828 0.929 . S
C841 C833 1.433 . S
C841 N843 1.384 . S
N842 C838 1.427 . S
N842 C839 1.384 . S
N843 C835 1.427 . S
N843 C841 1.384 . S
H844 C850 0.930 . S
H845 C854 0.930 . S
H846 C859 0.929 . S
H847 C857 0.929 . S
H848 C852 0.929 . S
H849 C858 0.929 . S
C850 H844 0.930 . S
C850 C851 1.367 . S
C850 C858 1.378 . S
C851 C850 1.367 . S
C851 C859 1.433 . S
C852 H848 0.929 . S
C852 C854 1.378 . S
C852 C856 1.350 . S
C853 C856 1.463 . S
C853 C858 1.350 . S
C853 N861 1.427 . S
C854 H845 0.930 . S
C854 C852 1.378 . S
C854 C855 1.367 . S
C855 C854 1.367 . S
C855 C857 1.433 . S
C856 C852 1.350 . S
C856 C853 1.463 . S
C856 N860 1.427 . S
C857 H847 0.929 . S
C857 C855 1.433 . S
C857 N860 1.384 . S
C858 H849 0.929 . S
C858 C850 1.378 . S
C858 C853 1.350 . S
C859 H846 0.929 . S
C859 C851 1.433 . S
C859 N861 1.384 . S
N860 C856 1.427 . S
N860 C857 1.384 . S
N861 C853 1.427 . S
N861 C859 1.384 . S
H862 C868 0.930 . S
H863 C872 0.930 . S
H864 C877 0.929 . S
H865 C875 0.929 . S
H866 C870 0.929 . S
H867 C876 0.929 . S
C868 H862 0.930 . S
C868 C869 1.367 . S
C868 C876 1.378 . S
C869 C868 1.367 . S
C869 C877 1.433 . S
C870 H866 0.929 . S
C870 C872 1.378 . S
C870 C874 1.350 . S
C871 C874 1.463 . S
C871 C876 1.350 . S
C871 N879 1.427 . S
C872 H863 0.930 . S
C872 C870 1.378 . S
C872 C873 1.367 . S
C873 C872 1.367 . S
C873 C875 1.433 . S
C874 C870 1.350 . S
C874 C871 1.463 . S
C874 N878 1.427 . S
C875 H865 0.929 . S
C875 C873 1.433 . S
C875 N878 1.384 . S
C876 H867 0.929 . S
C876 C868 1.378 . S
C876 C871 1.350 . S
C877 H864 0.929 . S
C877 C869 1.433 . S
C877 N879 1.384 . S
N878 C874 1.427 . S
N878 C875 1.384 . S
N879 C871 1.427 . S
N879 C877 1.384 . S
H880 C886 0.930 . S
H881 C890 0.930 . S
H882 C895 0.929 . S
H883 C893 0.929 . S
H884 C888 0.929 . S
H885 C894 0.929 . S
C886 H880 0.930 . S
C886 C887 1.367 . S
C886 C894 1.378 . S
C887 C886 1.367 . S
C887 C895 1.433 . S
C888 H884 0.929 . S
C888 C890 1.378 . S
C888 C892 1.350 . S
C889 C892 1.463 . S
C889 C894 1.350 . S
C889 N897 1.427 . S
C890 H881 0.930 . S
C890 C888 1.378 . S
C890 C891 1.367 . S
C891 C890 1.367 . S
C891 C893 1.433 . S
C892 C888 1.350 . S
C892 C889 1.463 . S
C892 N896 1.427 . S
C893 H883 0.929 . S
C893 C891 1.433 . S
C893 N896 1.384 . S
C894 H885 0.929 . S
C894 C886 1.378 . S
C894 C889 1.350 . S
C895 H882 0.929 . S
C895 C887 1.433 . S
C895 N897 1.384 . S
N896 C892 1.427 . S
N896 C893 1.384 . S
N897 C889 1.427 . S
N897 C895 1.384 . S
H898 C904 0.930 . S
H899 C908 0.930 . S
H900 C913 0.929 . S
H901 C911 0.929 . S
H902 C906 0.929 . S
H903 C912 0.929 . S
C904 H898 0.930 . S
C904 C905 1.367 . S
C904 C912 1.378 . S
C905 C904 1.367 . S
C905 C913 1.433 . S
C906 H902 0.929 . S
C906 C908 1.378 . S
C906 C910 1.350 . S
C907 C910 1.463 . S
C907 C912 1.350 . S
C907 N915 1.427 . S
C908 H899 0.930 . S
C908 C906 1.378 . S
C908 C909 1.367 . S
C909 C908 1.367 . S
C909 C911 1.433 . S
C910 C906 1.350 . S
C910 C907 1.463 . S
C910 N914 1.427 . S
C911 H901 0.929 . S
C911 C909 1.433 . S
C911 N914 1.384 . S
C912 H903 0.929 . S
C912 C904 1.378 . S
C912 C907 1.350 . S
C913 H900 0.929 . S
C913 C905 1.433 . S
C913 N915 1.384 . S
N914 C910 1.427 . S
N914 C911 1.384 . S
N915 C907 1.427 . S
N915 C913 1.384 . S
H916 C922 0.930 . S
H917 C926 0.930 . S
H918 C931 0.929 . S
H919 C929 0.929 . S
H920 C924 0.929 . S
H921 C930 0.929 . S
C922 H916 0.930 . S
C922 C923 1.367 . S
C922 C930 1.378 . S
C923 C922 1.367 . S
C923 C931 1.433 . S
C924 H920 0.929 . S
C924 C926 1.378 . S
C924 C928 1.350 . S
C925 C928 1.463 . S
C925 C930 1.350 . S
C925 N933 1.427 . S
C926 H917 0.930 . S
C926 C924 1.378 . S
C926 C927 1.367 . S
C927 C926 1.367 . S
C927 C929 1.433 . S
C928 C924 1.350 . S
C928 C925 1.463 . S
C928 N932 1.427 . S
C929 H919 0.929 . S
C929 C927 1.433 . S
C929 N932 1.384 . S
C930 H921 0.929 . S
C930 C922 1.378 . S
C930 C925 1.350 . S
C931 H918 0.929 . S
C931 C923 1.433 . S
C931 N933 1.384 . S
N932 C928 1.427 . S
N932 C929 1.384 . S
N933 C925 1.427 . S
N933 C931 1.384 . S
H934 C940 0.930 . S
H935 C944 0.930 . S
H936 C949 0.929 . S
H937 C947 0.929 . S
H938 C942 0.929 . S
H939 C948 0.929 . S
C940 H934 0.930 . S
C940 C941 1.367 . S
C940 C948 1.378 . S
C941 C940 1.367 . S
C941 C949 1.433 . S
C942 H938 0.929 . S
C942 C944 1.378 . S
C942 C946 1.350 . S
C943 C946 1.463 . S
C943 C948 1.350 . S
C943 N951 1.427 . S
C944 H935 0.930 . S
C944 C942 1.378 . S
C944 C945 1.367 . S
C945 C944 1.367 . S
C945 C947 1.433 . S
C946 C942 1.350 . S
C946 C943 1.463 . S
C946 N950 1.427 . S
C947 H937 0.929 . S
C947 C945 1.433 . S
C947 N950 1.384 . S
C948 H939 0.929 . S
C948 C940 1.378 . S
C948 C943 1.350 . S
C949 H936 0.929 . S
C949 C941 1.433 . S
C949 N951 1.384 . S
N950 C946 1.427 . S
N950 C947 1.384 . S
N951 C943 1.427 . S
N951 C949 1.384 . S
H952 C958 0.930 . S
H953 C962 0.930 . S
H954 C967 0.929 . S
H955 C965 0.929 . S
H956 C960 0.929 . S
H957 C966 0.929 . S
C958 H952 0.930 . S
C958 C959 1.367 . S
C958 C966 1.378 . S
C959 C958 1.367 . S
C959 C967 1.433 . S
C960 H956 0.929 . S
C960 C962 1.378 . S
C960 C964 1.350 . S
C961 C964 1.463 1_556 S
C961 C966 1.350 . S
C961 N969 1.427 . S
C962 H953 0.930 . S
C962 C960 1.378 . S
C962 C963 1.367 . S
C963 C962 1.367 . S
C963 C965 1.433 . S
C964 C960 1.350 . S
C964 C961 1.463 1_554 S
C964 N968 1.427 . S
C965 H955 0.929 . S
C965 C963 1.433 . S
C965 N968 1.384 . S
C966 H957 0.929 . S
C966 C958 1.378 . S
C966 C961 1.350 . S
C967 H954 0.929 . S
C967 C959 1.433 . S
C967 N969 1.384 . S
N968 C964 1.427 . S
N968 C965 1.384 . S
N969 C961 1.427 . S
N969 C967 1.384 . S
H970 C976 0.930 . S
H971 C980 0.930 . S
H972 C985 0.929 . S
H973 C983 0.929 . S
H974 C978 0.929 . S
H975 C984 0.929 . S
C976 H970 0.930 . S
C976 C977 1.367 . S
C976 C984 1.378 . S
C977 C976 1.367 . S
C977 C985 1.433 . S
C978 H974 0.929 . S
C978 C980 1.378 . S
C978 C982 1.350 . S
C979 C982 1.463 1_554 S
C979 C984 1.350 . S
C979 N987 1.427 . S
C980 H971 0.930 . S
C980 C978 1.378 . S
C980 C981 1.367 . S
C981 C980 1.367 . S
C981 C983 1.433 . S
C982 C978 1.350 . S
C982 C979 1.463 1_556 S
C982 N986 1.427 . S
C983 H973 0.929 . S
C983 C981 1.433 . S
C983 N986 1.384 . S
C984 H975 0.929 . S
C984 C976 1.378 . S
C984 C979 1.350 . S
C985 H972 0.929 . S
C985 C977 1.433 . S
C985 N987 1.384 . S
N986 C982 1.427 . S
N986 C983 1.384 . S
N987 C979 1.427 . S
N987 C985 1.384 . S
H988 C994 0.930 . S
H989 C998 0.930 . S
H990 C1003 0.929 . S
H991 C1001 0.929 . S
H992 C996 0.929 . S
H993 C1002 0.929 . S
C994 H988 0.930 . S
C994 C995 1.367 . S
C994 C1002 1.378 . S
C995 C994 1.367 . S
C995 C1003 1.433 . S
C996 H992 0.929 . S
C996 C998 1.378 . S
C996 C1000 1.350 . S
C997 C1000 1.463 1_554 S
C997 C1002 1.350 . S
C997 N1005 1.427 . S
C998 H989 0.930 . S
C998 C996 1.378 . S
C998 C999 1.367 . S
C999 C998 1.367 . S
C999 C1001 1.433 . S
C1000 C996 1.350 . S
C1000 C997 1.463 1_556 S
C1000 N1004 1.427 . S
C1001 H991 0.929 . S
C1001 C999 1.433 . S
C1001 N1004 1.384 . S
C1002 H993 0.929 . S
C1002 C994 1.378 . S
C1002 C997 1.350 . S
C1003 H990 0.929 . S
C1003 C995 1.433 . S
C1003 N1005 1.384 . S
N1004 C1000 1.427 . S
N1004 C1001 1.384 . S
N1005 C997 1.427 . S
N1005 C1003 1.384 . S
H1006 C1012 0.930 . S
H1007 C1016 0.930 . S
H1008 C1021 0.929 . S
H1009 C1019 0.929 . S
H1010 C1014 0.929 . S
H1011 C1020 0.929 . S
C1012 H1006 0.930 . S
C1012 C1013 1.367 . S
C1012 C1020 1.378 . S
C1013 C1012 1.367 . S
C1013 C1021 1.433 . S
C1014 H1010 0.929 . S
C1014 C1016 1.378 . S
C1014 C1018 1.350 . S
C1015 C1018 1.463 1_556 S
C1015 C1020 1.350 . S
C1015 N1023 1.427 . S
C1016 H1007 0.930 . S
C1016 C1014 1.378 . S
C1016 C1017 1.367 . S
C1017 C1016 1.367 . S
C1017 C1019 1.433 . S
C1018 C1014 1.350 . S
C1018 C1015 1.463 1_554 S
C1018 N1022 1.427 . S
C1019 H1009 0.929 . S
C1019 C1017 1.433 . S
C1019 N1022 1.384 . S
C1020 H1011 0.929 . S
C1020 C1012 1.378 . S
C1020 C1015 1.350 . S
C1021 H1008 0.929 . S
C1021 C1013 1.433 . S
C1021 N1023 1.384 . S
N1022 C1018 1.427 . S
N1022 C1019 1.384 . S
N1023 C1015 1.427 . S
N1023 C1021 1.384 . S
H1024 C1030 0.930 . S
H1025 C1034 0.930 . S
H1026 C1039 0.929 . S
H1027 C1037 0.929 . S
H1028 C1032 0.929 . S
H1029 C1038 0.929 . S
C1030 H1024 0.930 . S
C1030 C1031 1.367 . S
C1030 C1038 1.378 . S
C1031 C1030 1.367 . S
C1031 C1039 1.433 . S
C1032 H1028 0.929 . S
C1032 C1034 1.378 . S
C1032 C1036 1.350 . S
C1033 C1036 1.463 1_545 S
C1033 C1038 1.350 . S
C1033 N1041 1.427 . S
C1034 H1025 0.930 . S
C1034 C1032 1.378 . S
C1034 C1035 1.367 . S
C1035 C1034 1.367 . S
C1035 C1037 1.433 . S
C1036 C1032 1.350 . S
C1036 C1033 1.463 1_565 S
C1036 N1040 1.427 . S
C1037 H1027 0.929 . S
C1037 C1035 1.433 . S
C1037 N1040 1.384 . S
C1038 H1029 0.929 . S
C1038 C1030 1.378 . S
C1038 C1033 1.350 . S
C1039 H1026 0.929 . S
C1039 C1031 1.433 . S
C1039 N1041 1.384 . S
N1040 C1036 1.427 . S
N1040 C1037 1.384 . S
N1041 C1033 1.427 . S
N1041 C1039 1.384 . S
H1042 C1048 0.930 . S
H1043 C1052 0.930 . S
H1044 C1057 0.929 . S
H1045 C1055 0.929 . S
H1046 C1050 0.929 . S
H1047 C1056 0.929 . S
C1048 H1042 0.930 . S
C1048 C1049 1.367 . S
C1048 C1056 1.378 . S
C1049 C1048 1.367 . S
C1049 C1057 1.433 . S
C1050 H1046 0.929 . S
C1050 C1052 1.378 . S
C1050 C1054 1.350 . S
C1051 C1054 1.463 1_655 S
C1051 C1056 1.350 . S
C1051 N1059 1.427 . S
C1052 H1043 0.930 . S
C1052 C1050 1.378 . S
C1052 C1053 1.367 . S
C1053 C1052 1.367 . S
C1053 C1055 1.433 . S
C1054 C1050 1.350 . S
C1054 C1051 1.463 1_455 S
C1054 N1058 1.427 . S
C1055 H1045 0.929 . S
C1055 C1053 1.433 . S
C1055 N1058 1.384 . S
C1056 H1047 0.929 . S
C1056 C1048 1.378 . S
C1056 C1051 1.350 . S
C1057 H1044 0.929 . S
C1057 C1049 1.433 . S
C1057 N1059 1.384 . S
N1058 C1054 1.427 . S
N1058 C1055 1.384 . S
N1059 C1051 1.427 . S
N1059 C1057 1.384 . S
H1060 C1066 0.930 . S
H1061 C1070 0.930 . S
H1062 C1075 0.929 . S
H1063 C1073 0.929 . S
H1064 C1068 0.929 1_545 S
H1065 C1074 0.929 1_565 S
C1066 H1060 0.930 . S
C1066 C1067 1.367 . S
C1066 C1074 1.378 . S
C1067 C1066 1.367 . S
C1067 C1075 1.433 . S
C1068 H1064 0.929 1_565 S
C1068 C1070 1.378 . S
C1068 C1072 1.350 . S
C1069 C1072 1.463 1_545 S
C1069 C1074 1.350 . S
C1069 N1077 1.427 . S
C1070 H1061 0.930 . S
C1070 C1068 1.378 . S
C1070 C1071 1.367 . S
C1071 C1070 1.367 . S
C1071 C1073 1.433 . S
C1072 C1068 1.350 . S
C1072 C1069 1.463 1_565 S
C1072 N1076 1.427 . S
C1073 H1063 0.929 . S
C1073 C1071 1.433 . S
C1073 N1076 1.384 . S
C1074 H1065 0.929 1_545 S
C1074 C1066 1.378 . S
C1074 C1069 1.350 . S
C1075 H1062 0.929 . S
C1075 C1067 1.433 . S
C1075 N1077 1.384 . S
N1076 C1072 1.427 . S
N1076 C1073 1.384 . S
N1077 C1069 1.427 . S
N1077 C1075 1.384 . S
H1078 C1084 0.930 . S
H1079 C1088 0.930 . S
H1080 C1093 0.929 . S
H1081 C1091 0.929 . S
H1082 C1086 0.929 1_455 S
H1083 C1092 0.929 1_655 S
C1084 H1078 0.930 . S
C1084 C1085 1.367 . S
C1084 C1092 1.378 . S
C1085 C1084 1.367 . S
C1085 C1093 1.433 . S
C1086 H1082 0.929 1_655 S
C1086 C1088 1.378 . S
C1086 C1090 1.350 . S
C1087 C1090 1.463 1_455 S
C1087 C1092 1.350 . S
C1087 N1095 1.427 . S
C1088 H1079 0.930 . S
C1088 C1086 1.378 . S
C1088 C1089 1.367 . S
C1089 C1088 1.367 . S
C1089 C1091 1.433 . S
C1090 C1086 1.350 . S
C1090 C1087 1.463 1_655 S
C1090 N1094 1.427 . S
C1091 H1081 0.929 . S
C1091 C1089 1.433 . S
C1091 N1094 1.384 . S
C1092 H1083 0.929 1_455 S
C1092 C1084 1.378 . S
C1092 C1087 1.350 . S
C1093 H1080 0.929 . S
C1093 C1085 1.433 . S
C1093 N1095 1.384 . S
N1094 C1090 1.427 . S
N1094 C1091 1.384 . S
N1095 C1087 1.427 . S
N1095 C1093 1.384 . S
H1096 C1102 0.930 . S
H1097 C1106 0.930 . S
H1098 C1111 0.929 . S
H1099 C1109 0.929 . S
H1100 C1104 0.929 . S
H1101 C1110 0.929 . S
C1102 H1096 0.930 . S
C1102 C1103 1.367 . S
C1102 C1110 1.378 . S
C1103 C1102 1.367 . S
C1103 C1111 1.433 . S
C1104 H1100 0.929 . S
C1104 C1106 1.378 . S
C1104 C1108 1.350 . S
C1105 C1108 1.463 1_565 S
C1105 C1110 1.350 . S
C1105 N1113 1.427 . S
C1106 H1097 0.930 . S
C1106 C1104 1.378 . S
C1106 C1107 1.367 . S
C1107 C1106 1.367 . S
C1107 C1109 1.433 . S
C1108 C1104 1.350 . S
C1108 C1105 1.463 1_545 S
C1108 N1112 1.427 . S
C1109 H1099 0.929 . S
C1109 C1107 1.433 . S
C1109 N1112 1.384 . S
C1110 H1101 0.929 . S
C1110 C1102 1.378 . S
C1110 C1105 1.350 . S
C1111 H1098 0.929 . S
C1111 C1103 1.433 . S
C1111 N1113 1.384 . S
N1112 C1108 1.427 . S
N1112 C1109 1.384 . S
N1113 C1105 1.427 . S
N1113 C1111 1.384 . S
H1114 C1120 0.930 . S
H1115 C1124 0.930 . S
H1116 C1129 0.929 . S
H1117 C1127 0.929 . S
H1118 C1122 0.929 . S
H1119 C1128 0.929 . S
C1120 H1114 0.930 . S
C1120 C1121 1.367 . S
C1120 C1128 1.378 . S
C1121 C1120 1.367 . S
C1121 C1129 1.433 . S
C1122 H1118 0.929 . S
C1122 C1124 1.378 . S
C1122 C1126 1.350 . S
C1123 C1126 1.463 1_655 S
C1123 C1128 1.350 . S
C1123 N1131 1.427 . S
C1124 H1115 0.930 . S
C1124 C1122 1.378 . S
C1124 C1125 1.367 . S
C1125 C1124 1.367 . S
C1125 C1127 1.433 . S
C1126 C1122 1.350 . S
C1126 C1123 1.463 1_455 S
C1126 N1130 1.427 . S
C1127 H1117 0.929 . S
C1127 C1125 1.433 . S
C1127 N1130 1.384 . S
C1128 H1119 0.929 . S
C1128 C1120 1.378 . S
C1128 C1123 1.350 . S
C1129 H1116 0.929 . S
C1129 C1121 1.433 . S
C1129 N1131 1.384 . S
N1130 C1126 1.427 . S
N1130 C1127 1.384 . S
N1131 C1123 1.427 . S
N1131 C1129 1.384 . S
H1132 C1138 0.930 . S
H1133 C1142 0.930 . S
H1134 C1147 0.929 . S
H1135 C1145 0.929 . S
H1136 C1140 0.929 . S
H1137 C1146 0.929 . S
C1138 H1132 0.930 . S
C1138 C1139 1.367 . S
C1138 C1146 1.378 . S
C1139 C1138 1.367 . S
C1139 C1147 1.433 . S
C1140 H1136 0.929 . S
C1140 C1142 1.378 . S
C1140 C1144 1.350 . S
C1141 C1144 1.463 1_565 S
C1141 C1146 1.350 . S
C1141 N1149 1.427 . S
C1142 H1133 0.930 . S
C1142 C1140 1.378 . S
C1142 C1143 1.367 . S
C1143 C1142 1.367 . S
C1143 C1145 1.433 . S
C1144 C1140 1.350 . S
C1144 C1141 1.463 1_545 S
C1144 N1148 1.427 . S
C1145 H1135 0.929 . S
C1145 C1143 1.433 . S
C1145 N1148 1.384 . S
C1146 H1137 0.929 . S
C1146 C1138 1.378 . S
C1146 C1141 1.350 . S
C1147 H1134 0.929 . S
C1147 C1139 1.433 . S
C1147 N1149 1.384 . S
N1148 C1144 1.427 . S
N1148 C1145 1.384 . S
N1149 C1141 1.427 . S
N1149 C1147 1.384 . S
H1150 C1156 0.930 . S
H1151 C1160 0.930 . S
H1152 C1165 0.929 . S
H1153 C1163 0.929 . S
H1154 C1158 0.929 . S
H1155 C1164 0.929 . S
C1156 H1150 0.930 . S
C1156 C1157 1.367 . S
C1156 C1164 1.378 . S
C1157 C1156 1.367 . S
C1157 C1165 1.433 . S
C1158 H1154 0.929 . S
C1158 C1160 1.378 . S
C1158 C1162 1.350 . S
C1159 C1162 1.463 1_655 S
C1159 C1164 1.350 . S
C1159 N1167 1.427 . S
C1160 H1151 0.930 . S
C1160 C1158 1.378 . S
C1160 C1161 1.367 . S
C1161 C1160 1.367 . S
C1161 C1163 1.433 . S
C1162 C1158 1.350 . S
C1162 C1159 1.463 1_455 S
C1162 N1166 1.427 . S
C1163 H1153 0.929 . S
C1163 C1161 1.433 . S
C1163 N1166 1.384 . S
C1164 H1155 0.929 . S
C1164 C1156 1.378 . S
C1164 C1159 1.350 . S
C1165 H1152 0.929 . S
C1165 C1157 1.433 . S
C1165 N1167 1.384 . S
N1166 C1162 1.427 . S
N1166 C1163 1.384 . S
N1167 C1159 1.427 . S
N1167 C1165 1.384 . S
H1168 C1174 0.930 . S
H1169 C1178 0.930 . S
H1170 C1183 0.929 . S
H1171 C1181 0.929 . S
H1172 C1176 0.929 . S
H1173 C1182 0.929 . S
C1174 H1168 0.930 . S
C1174 C1175 1.367 . S
C1174 C1182 1.378 . S
C1175 C1174 1.367 . S
C1175 C1183 1.433 . S
C1176 H1172 0.929 . S
C1176 C1178 1.378 . S
C1176 C1180 1.350 . S
C1177 C1180 1.463 . S
C1177 C1182 1.350 . S
C1177 N1185 1.427 . S
C1178 H1169 0.930 . S
C1178 C1176 1.378 . S
C1178 C1179 1.367 . S
C1179 C1178 1.367 . S
C1179 C1181 1.433 . S
C1180 C1176 1.350 . S
C1180 C1177 1.463 . S
C1180 N1184 1.427 . S
C1181 H1171 0.929 . S
C1181 C1179 1.433 . S
C1181 N1184 1.384 . S
C1182 H1173 0.929 . S
C1182 C1174 1.378 . S
C1182 C1177 1.350 . S
C1183 H1170 0.929 . S
C1183 C1175 1.433 . S
C1183 N1185 1.384 . S
N1184 C1180 1.427 . S
N1184 C1181 1.384 . S
N1185 C1177 1.427 . S
N1185 C1183 1.384 . S
H1186 C1192 0.930 . S
H1187 C1196 0.930 . S
H1188 C1201 0.929 . S
H1189 C1199 0.929 . S
H1190 C1194 0.929 . S
H1191 C1200 0.929 . S
C1192 H1186 0.930 . S
C1192 C1193 1.367 . S
C1192 C1200 1.378 . S
C1193 C1192 1.367 . S
C1193 C1201 1.433 . S
C1194 H1190 0.929 . S
C1194 C1196 1.378 . S
C1194 C1198 1.350 . S
C1195 C1198 1.463 . S
C1195 C1200 1.350 . S
C1195 N1203 1.427 . S
C1196 H1187 0.930 . S
C1196 C1194 1.378 . S
C1196 C1197 1.367 . S
C1197 C1196 1.367 . S
C1197 C1199 1.433 . S
C1198 C1194 1.350 . S
C1198 C1195 1.463 . S
C1198 N1202 1.427 . S
C1199 H1189 0.929 . S
C1199 C1197 1.433 . S
C1199 N1202 1.384 . S
C1200 H1191 0.929 . S
C1200 C1192 1.378 . S
C1200 C1195 1.350 . S
C1201 H1188 0.929 . S
C1201 C1193 1.433 . S
C1201 N1203 1.384 . S
N1202 C1198 1.427 . S
N1202 C1199 1.384 . S
N1203 C1195 1.427 . S
N1203 C1201 1.384 . S
H1204 C1210 0.930 . S
H1205 C1214 0.930 . S
H1206 C1219 0.929 . S
H1207 C1217 0.929 . S
H1208 C1212 0.929 . S
H1209 C1218 0.929 . S
C1210 H1204 0.930 . S
C1210 C1211 1.367 . S
C1210 C1218 1.378 . S
C1211 C1210 1.367 . S
C1211 C1219 1.433 . S
C1212 H1208 0.929 . S
C1212 C1214 1.378 . S
C1212 C1216 1.350 . S
C1213 C1216 1.463 . S
C1213 C1218 1.350 . S
C1213 N1221 1.427 . S
C1214 H1205 0.930 . S
C1214 C1212 1.378 . S
C1214 C1215 1.367 . S
C1215 C1214 1.367 . S
C1215 C1217 1.433 . S
C1216 C1212 1.350 . S
C1216 C1213 1.463 . S
C1216 N1220 1.427 . S
C1217 H1207 0.929 . S
C1217 C1215 1.433 . S
C1217 N1220 1.384 . S
C1218 H1209 0.929 . S
C1218 C1210 1.378 . S
C1218 C1213 1.350 . S
C1219 H1206 0.929 . S
C1219 C1211 1.433 . S
C1219 N1221 1.384 . S
N1220 C1216 1.427 . S
N1220 C1217 1.384 . S
N1221 C1213 1.427 . S
N1221 C1219 1.384 . S
H1222 C1228 0.930 . S
H1223 C1232 0.930 . S
H1224 C1237 0.929 . S
H1225 C1235 0.929 . S
H1226 C1230 0.929 . S
H1227 C1236 0.929 . S
C1228 H1222 0.930 . S
C1228 C1229 1.367 . S
C1228 C1236 1.378 . S
C1229 C1228 1.367 . S
C1229 C1237 1.433 . S
C1230 H1226 0.929 . S
C1230 C1232 1.378 . S
C1230 C1234 1.350 . S
C1231 C1234 1.463 . S
C1231 C1236 1.350 . S
C1231 N1239 1.427 . S
C1232 H1223 0.930 . S
C1232 C1230 1.378 . S
C1232 C1233 1.367 . S
C1233 C1232 1.367 . S
C1233 C1235 1.433 . S
C1234 C1230 1.350 . S
C1234 C1231 1.463 . S
C1234 N1238 1.427 . S
C1235 H1225 0.929 . S
C1235 C1233 1.433 . S
C1235 N1238 1.384 . S
C1236 H1227 0.929 . S
C1236 C1228 1.378 . S
C1236 C1231 1.350 . S
C1237 H1224 0.929 . S
C1237 C1229 1.433 . S
C1237 N1239 1.384 . S
N1238 C1234 1.427 . S
N1238 C1235 1.384 . S
N1239 C1231 1.427 . S
N1239 C1237 1.384 . S
H1240 C1246 0.930 . S
H1241 C1250 0.930 . S
H1242 C1255 0.929 . S
H1243 C1253 0.929 . S
H1244 C1248 0.929 . S
H1245 C1254 0.929 . S
C1246 H1240 0.930 . S
C1246 C1247 1.367 . S
C1246 C1254 1.378 . S
C1247 C1246 1.367 . S
C1247 C1255 1.433 . S
C1248 H1244 0.929 . S
C1248 C1250 1.378 . S
C1248 C1252 1.350 . S
C1249 C1252 1.463 . S
C1249 C1254 1.350 . S
C1249 N1257 1.427 . S
C1250 H1241 0.930 . S
C1250 C1248 1.378 . S
C1250 C1251 1.367 . S
C1251 C1250 1.367 . S
C1251 C1253 1.433 . S
C1252 C1248 1.350 . S
C1252 C1249 1.463 . S
C1252 N1256 1.427 . S
C1253 H1243 0.929 . S
C1253 C1251 1.433 . S
C1253 N1256 1.384 . S
C1254 H1245 0.929 . S
C1254 C1246 1.378 . S
C1254 C1249 1.350 . S
C1255 H1242 0.929 . S
C1255 C1247 1.433 . S
C1255 N1257 1.384 . S
N1256 C1252 1.427 . S
N1256 C1253 1.384 . S
N1257 C1249 1.427 . S
N1257 C1255 1.384 . S
H1258 C1264 0.930 . S
H1259 C1268 0.930 . S
H1260 C1273 0.929 . S
H1261 C1271 0.929 . S
H1262 C1266 0.929 . S
H1263 C1272 0.929 . S
C1264 H1258 0.930 . S
C1264 C1265 1.367 . S
C1264 C1272 1.378 . S
C1265 C1264 1.367 . S
C1265 C1273 1.433 . S
C1266 H1262 0.929 . S
C1266 C1268 1.378 . S
C1266 C1270 1.350 . S
C1267 C1270 1.463 . S
C1267 C1272 1.350 . S
C1267 N1275 1.427 . S
C1268 H1259 0.930 . S
C1268 C1266 1.378 . S
C1268 C1269 1.367 . S
C1269 C1268 1.367 . S
C1269 C1271 1.433 . S
C1270 C1266 1.350 . S
C1270 C1267 1.463 . S
C1270 N1274 1.427 . S
C1271 H1261 0.929 . S
C1271 C1269 1.433 . S
C1271 N1274 1.384 . S
C1272 H1263 0.929 . S
C1272 C1264 1.378 . S
C1272 C1267 1.350 . S
C1273 H1260 0.929 . S
C1273 C1265 1.433 . S
C1273 N1275 1.384 . S
N1274 C1270 1.427 . S
N1274 C1271 1.384 . S
N1275 C1267 1.427 . S
N1275 C1273 1.384 . S
H1276 C1282 0.930 . S
H1277 C1286 0.930 . S
H1278 C1291 0.929 . S
H1279 C1289 0.929 . S
H1280 C1284 0.929 . S
H1281 C1290 0.929 . S
C1282 H1276 0.930 . S
C1282 C1283 1.367 . S
C1282 C1290 1.378 . S
C1283 C1282 1.367 . S
C1283 C1291 1.433 . S
C1284 H1280 0.929 . S
C1284 C1286 1.378 . S
C1284 C1288 1.350 . S
C1285 C1288 1.463 . S
C1285 C1290 1.350 . S
C1285 N1293 1.427 . S
C1286 H1277 0.930 . S
C1286 C1284 1.378 . S
C1286 C1287 1.367 . S
C1287 C1286 1.367 . S
C1287 C1289 1.433 . S
C1288 C1284 1.350 . S
C1288 C1285 1.463 . S
C1288 N1292 1.427 . S
C1289 H1279 0.929 . S
C1289 C1287 1.433 . S
C1289 N1292 1.384 . S
C1290 H1281 0.929 . S
C1290 C1282 1.378 . S
C1290 C1285 1.350 . S
C1291 H1278 0.929 . S
C1291 C1283 1.433 . S
C1291 N1293 1.384 . S
N1292 C1288 1.427 . S
N1292 C1289 1.384 . S
N1293 C1285 1.427 . S
N1293 C1291 1.384 . S
H1294 C1300 0.930 . S
H1295 C1304 0.930 . S
H1296 C1309 0.929 . S
H1297 C1307 0.929 . S
H1298 C1302 0.929 . S
H1299 C1308 0.929 . S
C1300 H1294 0.930 . S
C1300 C1301 1.367 . S
C1300 C1308 1.378 . S
C1301 C1300 1.367 . S
C1301 C1309 1.433 . S
C1302 H1298 0.929 . S
C1302 C1304 1.378 . S
C1302 C1306 1.350 . S
C1303 C1306 1.463 . S
C1303 C1308 1.350 . S
C1303 N1311 1.427 . S
C1304 H1295 0.930 . S
C1304 C1302 1.378 . S
C1304 C1305 1.367 . S
C1305 C1304 1.367 . S
C1305 C1307 1.433 . S
C1306 C1302 1.350 . S
C1306 C1303 1.463 . S
C1306 N1310 1.427 . S
C1307 H1297 0.929 . S
C1307 C1305 1.433 . S
C1307 N1310 1.384 . S
C1308 H1299 0.929 . S
C1308 C1300 1.378 . S
C1308 C1303 1.350 . S
C1309 H1296 0.929 . S
C1309 C1301 1.433 . S
C1309 N1311 1.384 . S
N1310 C1306 1.427 . S
N1310 C1307 1.384 . S
N1311 C1303 1.427 . S
N1311 C1309 1.384 . S
H1312 C1318 0.930 . S
H1313 C1322 0.930 . S
H1314 C1327 0.929 . S
H1315 C1325 0.929 . S
H1316 C1320 0.929 . S
H1317 C1326 0.929 . S
C1318 H1312 0.930 . S
C1318 C1319 1.367 . S
C1318 C1326 1.378 . S
C1319 C1318 1.367 . S
C1319 C1327 1.433 . S
C1320 H1316 0.929 . S
C1320 C1322 1.378 . S
C1320 C1324 1.350 . S
C1321 C1324 1.463 . S
C1321 C1326 1.350 . S
C1321 N1329 1.427 . S
C1322 H1313 0.930 . S
C1322 C1320 1.378 . S
C1322 C1323 1.367 . S
C1323 C1322 1.367 . S
C1323 C1325 1.433 . S
C1324 C1320 1.350 . S
C1324 C1321 1.463 . S
C1324 N1328 1.427 . S
C1325 H1315 0.929 . S
C1325 C1323 1.433 . S
C1325 N1328 1.384 . S
C1326 H1317 0.929 . S
C1326 C1318 1.378 . S
C1326 C1321 1.350 . S
C1327 H1314 0.929 . S
C1327 C1319 1.433 . S
C1327 N1329 1.384 . S
N1328 C1324 1.427 . S
N1328 C1325 1.384 . S
N1329 C1321 1.427 . S
N1329 C1327 1.384 . S
H1330 C1336 0.930 . S
H1331 C1340 0.930 . S
H1332 C1345 0.929 . S
H1333 C1343 0.929 . S
H1334 C1338 0.929 . S
H1335 C1344 0.929 . S
C1336 H1330 0.930 . S
C1336 C1337 1.367 . S
C1336 C1344 1.378 . S
C1337 C1336 1.367 . S
C1337 C1345 1.433 . S
C1338 H1334 0.929 . S
C1338 C1340 1.378 . S
C1338 C1342 1.350 . S
C1339 C1342 1.463 . S
C1339 C1344 1.350 . S
C1339 N1347 1.427 . S
C1340 H1331 0.930 . S
C1340 C1338 1.378 . S
C1340 C1341 1.367 . S
C1341 C1340 1.367 . S
C1341 C1343 1.433 . S
C1342 C1338 1.350 . S
C1342 C1339 1.463 . S
C1342 N1346 1.427 . S
C1343 H1333 0.929 . S
C1343 C1341 1.433 . S
C1343 N1346 1.384 . S
C1344 H1335 0.929 . S
C1344 C1336 1.378 . S
C1344 C1339 1.350 . S
C1345 H1332 0.929 . S
C1345 C1337 1.433 . S
C1345 N1347 1.384 . S
N1346 C1342 1.427 . S
N1346 C1343 1.384 . S
N1347 C1339 1.427 . S
N1347 C1345 1.384 . S
H1348 C1354 0.930 . S
H1349 C1358 0.930 . S
H1350 C1363 0.929 . S
H1351 C1361 0.929 . S
H1352 C1356 0.929 . S
H1353 C1362 0.929 . S
C1354 H1348 0.930 . S
C1354 C1355 1.367 . S
C1354 C1362 1.378 . S
C1355 C1354 1.367 . S
C1355 C1363 1.433 . S
C1356 H1352 0.929 . S
C1356 C1358 1.378 . S
C1356 C1360 1.350 . S
C1357 C1360 1.463 . S
C1357 C1362 1.350 . S
C1357 N1365 1.427 . S
C1358 H1349 0.930 . S
C1358 C1356 1.378 . S
C1358 C1359 1.367 . S
C1359 C1358 1.367 . S
C1359 C1361 1.433 . S
C1360 C1356 1.350 . S
C1360 C1357 1.463 . S
C1360 N1364 1.427 . S
C1361 H1351 0.929 . S
C1361 C1359 1.433 . S
C1361 N1364 1.384 . S
C1362 H1353 0.929 . S
C1362 C1354 1.378 . S
C1362 C1357 1.350 . S
C1363 H1350 0.929 . S
C1363 C1355 1.433 . S
C1363 N1365 1.384 . S
N1364 C1360 1.427 . S
N1364 C1361 1.384 . S
N1365 C1357 1.427 . S
N1365 C1363 1.384 . S
H1366 C1372 0.930 . S
H1367 C1376 0.930 . S
H1368 C1381 0.929 . S
H1369 C1379 0.929 . S
H1370 C1374 0.929 . S
H1371 C1380 0.929 . S
C1372 H1366 0.930 . S
C1372 C1373 1.367 . S
C1372 C1380 1.378 . S
C1373 C1372 1.367 . S
C1373 C1381 1.433 . S
C1374 H1370 0.929 . S
C1374 C1376 1.378 . S
C1374 C1378 1.350 . S
C1375 C1378 1.463 . S
C1375 C1380 1.350 . S
C1375 N1383 1.427 . S
C1376 H1367 0.930 . S
C1376 C1374 1.378 . S
C1376 C1377 1.367 . S
C1377 C1376 1.367 . S
C1377 C1379 1.433 . S
C1378 C1374 1.350 . S
C1378 C1375 1.463 . S
C1378 N1382 1.427 . S
C1379 H1369 0.929 . S
C1379 C1377 1.433 . S
C1379 N1382 1.384 . S
C1380 H1371 0.929 . S
C1380 C1372 1.378 . S
C1380 C1375 1.350 . S
C1381 H1368 0.929 . S
C1381 C1373 1.433 . S
C1381 N1383 1.384 . S
N1382 C1378 1.427 . S
N1382 C1379 1.384 . S
N1383 C1375 1.427 . S
N1383 C1381 1.384 . S
H1384 C1390 0.930 . S
H1385 C1394 0.930 . S
H1386 C1399 0.929 . S
H1387 C1397 0.929 . S
H1388 C1392 0.929 . S
H1389 C1398 0.929 . S
C1390 H1384 0.930 . S
C1390 C1391 1.367 . S
C1390 C1398 1.378 . S
C1391 C1390 1.367 . S
C1391 C1399 1.433 . S
C1392 H1388 0.929 . S
C1392 C1394 1.378 . S
C1392 C1396 1.350 . S
C1393 C1396 1.463 . S
C1393 C1398 1.350 . S
C1393 N1401 1.427 . S
C1394 H1385 0.930 . S
C1394 C1392 1.378 . S
C1394 C1395 1.367 . S
C1395 C1394 1.367 . S
C1395 C1397 1.433 . S
C1396 C1392 1.350 . S
C1396 C1393 1.463 . S
C1396 N1400 1.427 . S
C1397 H1387 0.929 . S
C1397 C1395 1.433 . S
C1397 N1400 1.384 . S
C1398 H1389 0.929 . S
C1398 C1390 1.378 . S
C1398 C1393 1.350 . S
C1399 H1386 0.929 . S
C1399 C1391 1.433 . S
C1399 N1401 1.384 . S
N1400 C1396 1.427 . S
N1400 C1397 1.384 . S
N1401 C1393 1.427 . S
N1401 C1399 1.384 . S
H1402 C1408 0.930 . S
H1403 C1412 0.930 . S
H1404 C1417 0.929 . S
H1405 C1415 0.929 . S
H1406 C1410 0.929 . S
H1407 C1416 0.929 . S
C1408 H1402 0.930 . S
C1408 C1409 1.367 . S
C1408 C1416 1.378 . S
C1409 C1408 1.367 . S
C1409 C1417 1.433 . S
C1410 H1406 0.929 . S
C1410 C1412 1.378 . S
C1410 C1414 1.350 . S
C1411 C1414 1.463 . S
C1411 C1416 1.350 . S
C1411 N1419 1.427 . S
C1412 H1403 0.930 . S
C1412 C1410 1.378 . S
C1412 C1413 1.367 . S
C1413 C1412 1.367 . S
C1413 C1415 1.433 . S
C1414 C1410 1.350 . S
C1414 C1411 1.463 . S
C1414 N1418 1.427 . S
C1415 H1405 0.929 . S
C1415 C1413 1.433 . S
C1415 N1418 1.384 . S
C1416 H1407 0.929 . S
C1416 C1408 1.378 . S
C1416 C1411 1.350 . S
C1417 H1404 0.929 . S
C1417 C1409 1.433 . S
C1417 N1419 1.384 . S
N1418 C1414 1.427 . S
N1418 C1415 1.384 . S
N1419 C1411 1.427 . S
N1419 C1417 1.384 . S
H1420 C1426 0.930 . S
H1421 C1430 0.930 . S
H1422 C1435 0.929 . S
H1423 C1433 0.929 . S
H1424 C1428 0.929 . S
H1425 C1434 0.929 . S
C1426 H1420 0.930 . S
C1426 C1427 1.367 . S
C1426 C1434 1.378 . S
C1427 C1426 1.367 . S
C1427 C1435 1.433 . S
C1428 H1424 0.929 . S
C1428 C1430 1.378 . S
C1428 C1432 1.350 . S
C1429 C1432 1.463 . S
C1429 C1434 1.350 . S
C1429 N1437 1.427 . S
C1430 H1421 0.930 . S
C1430 C1428 1.378 . S
C1430 C1431 1.367 . S
C1431 C1430 1.367 . S
C1431 C1433 1.433 . S
C1432 C1428 1.350 . S
C1432 C1429 1.463 . S
C1432 N1436 1.427 . S
C1433 H1423 0.929 . S
C1433 C1431 1.433 . S
C1433 N1436 1.384 . S
C1434 H1425 0.929 . S
C1434 C1426 1.378 . S
C1434 C1429 1.350 . S
C1435 H1422 0.929 . S
C1435 C1427 1.433 . S
C1435 N1437 1.384 . S
N1436 C1432 1.427 . S
N1436 C1433 1.384 . S
N1437 C1429 1.427 . S
N1437 C1435 1.384 . S
H1438 C1444 0.930 . S
H1439 C1448 0.930 . S
H1440 C1453 0.929 . S
H1441 C1451 0.929 . S
H1442 C1446 0.929 . S
H1443 C1452 0.929 . S
C1444 H1438 0.930 . S
C1444 C1445 1.367 . S
C1444 C1452 1.378 . S
C1445 C1444 1.367 . S
C1445 C1453 1.433 . S
C1446 H1442 0.929 . S
C1446 C1448 1.378 . S
C1446 C1450 1.350 . S
C1447 C1450 1.463 . S
C1447 C1452 1.350 . S
C1447 N1455 1.427 . S
C1448 H1439 0.930 . S
C1448 C1446 1.378 . S
C1448 C1449 1.367 . S
C1449 C1448 1.367 . S
C1449 C1451 1.433 . S
C1450 C1446 1.350 . S
C1450 C1447 1.463 . S
C1450 N1454 1.427 . S
C1451 H1441 0.929 . S
C1451 C1449 1.433 . S
C1451 N1454 1.384 . S
C1452 H1443 0.929 . S
C1452 C1444 1.378 . S
C1452 C1447 1.350 . S
C1453 H1440 0.929 . S
C1453 C1445 1.433 . S
C1453 N1455 1.384 . S
N1454 C1450 1.427 . S
N1454 C1451 1.384 . S
N1455 C1447 1.427 . S
N1455 C1453 1.384 . S
H1456 C1462 0.930 . S
H1457 C1466 0.930 . S
H1458 C1471 0.929 . S
H1459 C1469 0.929 . S
H1460 C1464 0.929 . S
H1461 C1470 0.929 . S
C1462 H1456 0.930 . S
C1462 C1463 1.367 . S
C1462 C1470 1.378 . S
C1463 C1462 1.367 . S
C1463 C1471 1.433 . S
C1464 H1460 0.929 . S
C1464 C1466 1.378 . S
C1464 C1468 1.350 . S
C1465 C1468 1.463 . S
C1465 C1470 1.350 . S
C1465 N1473 1.427 . S
C1466 H1457 0.930 . S
C1466 C1464 1.378 . S
C1466 C1467 1.367 . S
C1467 C1466 1.367 . S
C1467 C1469 1.433 . S
C1468 C1464 1.350 . S
C1468 C1465 1.463 . S
C1468 N1472 1.427 . S
C1469 H1459 0.929 . S
C1469 C1467 1.433 . S
C1469 N1472 1.384 . S
C1470 H1461 0.929 . S
C1470 C1462 1.378 . S
C1470 C1465 1.350 . S
C1471 H1458 0.929 . S
C1471 C1463 1.433 . S
C1471 N1473 1.384 . S
N1472 C1468 1.427 . S
N1472 C1469 1.384 . S
N1473 C1465 1.427 . S
N1473 C1471 1.384 . S
H1474 C1480 0.930 . S
H1475 C1484 0.930 . S
H1476 C1489 0.929 . S
H1477 C1487 0.929 . S
H1478 C1482 0.929 . S
H1479 C1488 0.929 . S
C1480 H1474 0.930 . S
C1480 C1481 1.367 . S
C1480 C1488 1.378 . S
C1481 C1480 1.367 . S
C1481 C1489 1.433 . S
C1482 H1478 0.929 . S
C1482 C1484 1.378 . S
C1482 C1486 1.350 . S
C1483 C1486 1.463 . S
C1483 C1488 1.350 . S
C1483 N1491 1.427 . S
C1484 H1475 0.930 . S
C1484 C1482 1.378 . S
C1484 C1485 1.367 . S
C1485 C1484 1.367 . S
C1485 C1487 1.433 . S
C1486 C1482 1.350 . S
C1486 C1483 1.463 . S
C1486 N1490 1.427 . S
C1487 H1477 0.929 . S
C1487 C1485 1.433 . S
C1487 N1490 1.384 . S
C1488 H1479 0.929 . S
C1488 C1480 1.378 . S
C1488 C1483 1.350 . S
C1489 H1476 0.929 . S
C1489 C1481 1.433 . S
C1489 N1491 1.384 . S
N1490 C1486 1.427 . S
N1490 C1487 1.384 . S
N1491 C1483 1.427 . S
N1491 C1489 1.384 . S
H1492 C1498 0.930 . S
H1493 C1502 0.930 . S
H1494 C1507 0.929 . S
H1495 C1505 0.929 . S
H1496 C1500 0.929 . S
H1497 C1506 0.929 . S
C1498 H1492 0.930 . S
C1498 C1499 1.367 . S
C1498 C1506 1.378 . S
C1499 C1498 1.367 . S
C1499 C1507 1.433 . S
C1500 H1496 0.929 . S
C1500 C1502 1.378 . S
C1500 C1504 1.350 . S
C1501 C1504 1.463 . S
C1501 C1506 1.350 . S
C1501 N1509 1.427 . S
C1502 H1493 0.930 . S
C1502 C1500 1.378 . S
C1502 C1503 1.367 . S
C1503 C1502 1.367 . S
C1503 C1505 1.433 . S
C1504 C1500 1.350 . S
C1504 C1501 1.463 . S
C1504 N1508 1.427 . S
C1505 H1495 0.929 . S
C1505 C1503 1.433 . S
C1505 N1508 1.384 . S
C1506 H1497 0.929 . S
C1506 C1498 1.378 . S
C1506 C1501 1.350 . S
C1507 H1494 0.929 . S
C1507 C1499 1.433 . S
C1507 N1509 1.384 . S
N1508 C1504 1.427 . S
N1508 C1505 1.384 . S
N1509 C1501 1.427 . S
N1509 C1507 1.384 . S
H1510 C1516 0.930 . S
H1511 C1520 0.930 . S
H1512 C1525 0.929 . S
H1513 C1523 0.929 . S
H1514 C1518 0.929 . S
H1515 C1524 0.929 . S
C1516 H1510 0.930 . S
C1516 C1517 1.367 . S
C1516 C1524 1.378 . S
C1517 C1516 1.367 . S
C1517 C1525 1.433 . S
C1518 H1514 0.929 . S
C1518 C1520 1.378 . S
C1518 C1522 1.350 . S
C1519 C1522 1.463 . S
C1519 C1524 1.350 . S
C1519 N1527 1.427 . S
C1520 H1511 0.930 . S
C1520 C1518 1.378 . S
C1520 C1521 1.367 . S
C1521 C1520 1.367 . S
C1521 C1523 1.433 . S
C1522 C1518 1.350 . S
C1522 C1519 1.463 . S
C1522 N1526 1.427 . S
C1523 H1513 0.929 . S
C1523 C1521 1.433 . S
C1523 N1526 1.384 . S
C1524 H1515 0.929 . S
C1524 C1516 1.378 . S
C1524 C1519 1.350 . S
C1525 H1512 0.929 . S
C1525 C1517 1.433 . S
C1525 N1527 1.384 . S
N1526 C1522 1.427 . S
N1526 C1523 1.384 . S
N1527 C1519 1.427 . S
N1527 C1525 1.384 . S
H1528 C1534 0.930 . S
H1529 C1538 0.930 . S
H1530 C1543 0.929 . S
H1531 C1541 0.929 . S
H1532 C1536 0.929 . S
H1533 C1542 0.929 . S
C1534 H1528 0.930 . S
C1534 C1535 1.367 . S
C1534 C1542 1.378 . S
C1535 C1534 1.367 . S
C1535 C1543 1.433 . S
C1536 H1532 0.929 . S
C1536 C1538 1.378 . S
C1536 C1540 1.350 . S
C1537 C1540 1.463 . S
C1537 C1542 1.350 . S
C1537 N1545 1.427 . S
C1538 H1529 0.930 . S
C1538 C1536 1.378 . S
C1538 C1539 1.367 . S
C1539 C1538 1.367 . S
C1539 C1541 1.433 . S
C1540 C1536 1.350 . S
C1540 C1537 1.463 . S
C1540 N1544 1.427 . S
C1541 H1531 0.929 . S
C1541 C1539 1.433 . S
C1541 N1544 1.384 . S
C1542 H1533 0.929 . S
C1542 C1534 1.378 . S
C1542 C1537 1.350 . S
C1543 H1530 0.929 . S
C1543 C1535 1.433 . S
C1543 N1545 1.384 . S
N1544 C1540 1.427 . S
N1544 C1541 1.384 . S
N1545 C1537 1.427 . S
N1545 C1543 1.384 . S
H1546 C1552 0.930 . S
H1547 C1556 0.930 . S
H1548 C1561 0.929 . S
H1549 C1559 0.929 . S
H1550 C1554 0.929 . S
H1551 C1560 0.929 . S
C1552 H1546 0.930 . S
C1552 C1553 1.367 . S
C1552 C1560 1.378 . S
C1553 C1552 1.367 . S
C1553 C1561 1.433 . S
C1554 H1550 0.929 . S
C1554 C1556 1.378 . S
C1554 C1558 1.350 . S
C1555 C1558 1.463 . S
C1555 C1560 1.350 . S
C1555 N1563 1.427 . S
C1556 H1547 0.930 . S
C1556 C1554 1.378 . S
C1556 C1557 1.367 . S
C1557 C1556 1.367 . S
C1557 C1559 1.433 . S
C1558 C1554 1.350 . S
C1558 C1555 1.463 . S
C1558 N1562 1.427 . S
C1559 H1549 0.929 . S
C1559 C1557 1.433 . S
C1559 N1562 1.384 . S
C1560 H1551 0.929 . S
C1560 C1552 1.378 . S
C1560 C1555 1.350 . S
C1561 H1548 0.929 . S
C1561 C1553 1.433 . S
C1561 N1563 1.384 . S
N1562 C1558 1.427 . S
N1562 C1559 1.384 . S
N1563 C1555 1.427 . S
N1563 C1561 1.384 . S
H1564 C1570 0.930 . S
H1565 C1574 0.930 . S
H1566 C1579 0.929 . S
H1567 C1577 0.929 . S
H1568 C1572 0.929 . S
H1569 C1578 0.929 . S
C1570 H1564 0.930 . S
C1570 C1571 1.367 . S
C1570 C1578 1.378 . S
C1571 C1570 1.367 . S
C1571 C1579 1.433 . S
C1572 H1568 0.929 . S
C1572 C1574 1.378 . S
C1572 C1576 1.350 . S
C1573 C1576 1.463 . S
C1573 C1578 1.350 . S
C1573 N1581 1.427 . S
C1574 H1565 0.930 . S
C1574 C1572 1.378 . S
C1574 C1575 1.367 . S
C1575 C1574 1.367 . S
C1575 C1577 1.433 . S
C1576 C1572 1.350 . S
C1576 C1573 1.463 . S
C1576 N1580 1.427 . S
C1577 H1567 0.929 . S
C1577 C1575 1.433 . S
C1577 N1580 1.384 . S
C1578 H1569 0.929 . S
C1578 C1570 1.378 . S
C1578 C1573 1.350 . S
C1579 H1566 0.929 . S
C1579 C1571 1.433 . S
C1579 N1581 1.384 . S
N1580 C1576 1.427 . S
N1580 C1577 1.384 . S
N1581 C1573 1.427 . S
N1581 C1579 1.384 . S
H1582 C1588 0.930 . S
H1583 C1592 0.930 . S
H1584 C1597 0.929 . S
H1585 C1595 0.929 . S
H1586 C1590 0.929 . S
H1587 C1596 0.929 . S
C1588 H1582 0.930 . S
C1588 C1589 1.367 . S
C1588 C1596 1.378 . S
C1589 C1588 1.367 . S
C1589 C1597 1.433 . S
C1590 H1586 0.929 . S
C1590 C1592 1.378 . S
C1590 C1594 1.350 . S
C1591 C1594 1.463 . S
C1591 C1596 1.350 . S
C1591 N1599 1.427 . S
C1592 H1583 0.930 . S
C1592 C1590 1.378 . S
C1592 C1593 1.367 . S
C1593 C1592 1.367 . S
C1593 C1595 1.433 . S
C1594 C1590 1.350 . S
C1594 C1591 1.463 . S
C1594 N1598 1.427 . S
C1595 H1585 0.929 . S
C1595 C1593 1.433 . S
C1595 N1598 1.384 . S
C1596 H1587 0.929 . S
C1596 C1588 1.378 . S
C1596 C1591 1.350 . S
C1597 H1584 0.929 . S
C1597 C1589 1.433 . S
C1597 N1599 1.384 . S
N1598 C1594 1.427 . S
N1598 C1595 1.384 . S
N1599 C1591 1.427 . S
N1599 C1597 1.384 . S
C455 C414 1.270 . S
C459 C8 1.287 . S
C473 C22 1.269 . S
C477 C428 1.288 . S
C491 C442 1.269 . S
C495 C36 1.288 . S
C509 C400 1.282 . S
C513 C50 1.275 . S
C527 C64 1.273 . S
C531 C386 1.284 . S
C545 C344 1.285 . S
C549 C78 1.272 . S
C563 C92 1.280 . S
C567 C358 1.277 . S
C581 C372 1.281 . S
C585 C106 1.277 . S
C599 C120 1.274 . S
C603 C302 1.284 . S
C617 C134 1.282 . S
C621 C316 1.275 . S
C635 C330 1.286 . S
C639 C148 1.271 . S
C653 C162 1.273 . S
C657 C288 1.284 . S
C671 C274 1.273 . S
C675 C176 1.284 . S
C689 C232 1.274 . S
C693 C190 1.283 . S
C707 C204 1.284 . S
C711 C246 1.273 . S
C725 C218 1.282 . S
C729 C260 1.275 . S
C743 C7 1.424 . S
C747 C147 1.430 . S
C761 C161 1.424 . S
C765 C21 1.430 . S
C779 C119 1.431 . S
C783 C35 1.423 . S
C797 C133 1.425 . S
C801 C49 1.430 . S
C815 C63 1.423 . S
C819 C203 1.431 . S
C833 C217 1.423 . S
C837 C77 1.431 . S
C851 C175 1.429 . S
C855 C91 1.425 . S
C869 C189 1.425 . S
C873 C105 1.429 . S
C887 C231 1.427 . S
C891 C371 1.428 . S
C905 C385 1.426 . S
C909 C245 1.429 . S
C923 C343 1.431 . S
C927 C259 1.423 . S
C941 C273 1.424 . S
C945 C357 1.430 . S
C959 C287 1.424 . S
C963 C427 1.431 . S
C977 C441 1.431 . S
C981 C301 1.423 . S
C995 C399 1.430 . S
C999 C315 1.424 . S
C1013 C329 1.430 . S
C1017 C413 1.424 . S
C1031 C11 1.272 . S
C1035 C67 1.273 . S
C1049 C25 1.268 . S
C1053 C81 1.269 . S
C1067 C95 1.268 . S
C1071 C39 1.267 . S
C1085 C53 1.267 . S
C1089 C109 1.268 . S
C1103 C123 1.268 . S
C1107 C179 1.269 . S
C1121 C193 1.272 . S
C1125 C137 1.270 . S
C1139 C207 1.272 . S
C1143 C151 1.270 . S
C1157 C165 1.269 . S
C1161 C221 1.268 . S
C1175 C235 1.272 . S
C1179 C291 1.271 . S
C1193 C305 1.271 . S
C1197 C249 1.269 . S
C1211 C263 1.270 . S
C1215 C319 1.268 . S
C1229 C333 1.268 . S
C1233 C277 1.270 . S
C1247 C403 1.267 . S
C1251 C347 1.268 . S
C1265 C361 1.268 . S
C1269 C417 1.269 . S
C1283 C375 1.267 . S
C1287 C431 1.268 . S
C1301 C389 1.273 . S
C1305 C445 1.272 . S
C1319 C13 1.387 . S
C1323 C83 1.389 . S
C1337 C27 1.395 . S
C1341 C97 1.406 . S
C1355 C111 1.398 . S
C1359 C41 1.386 . S
C1373 C69 1.400 . S
C1377 C55 1.388 . S
C1391 C195 1.404 . S
C1395 C125 1.405 . S
C1409 C209 1.386 . S
C1413 C139 1.396 . S
C1427 C223 1.406 . S
C1431 C153 1.401 . S
C1445 C167 1.388 . S
C1449 C181 1.388 . S
C1463 C237 1.402 . S
C1467 C307 1.389 . S
C1481 C321 1.403 . S
C1485 C251 1.406 . S
C1499 C335 1.406 . S
C1503 C265 1.393 . S
C1517 C279 1.389 . S
C1521 C293 1.387 . S
C1535 C419 1.387 . S
C1539 C349 1.388 . S
C1553 C363 1.394 . S
C1557 C433 1.386 . S
C1571 C377 1.387 . S
C1575 C447 1.389 . S
C1589 C405 1.399 . S
C1593 C391 1.387 . S
