# Generated by pormake.
# Topology sml, (6)-cn, num edge types: 1
# Building blocks:
#     Node 0, Type 0, BuildingBlock: BETGAK_clean_sbu_0, # of connection points: 6
#     Node 1, Type 0, BuildingBlock: BETGAK_clean_sbu_0, # of connection points: 6
#     Node 2, Type 0, BuildingBlock: BETGAK_clean_sbu_0, # of connection points: 6
#     Node 3, Type 0, BuildingBlock: BETGAK_clean_sbu_0, # of connection points: 6
#     Node 4, Type 0, BuildingBlock: BETGAK_clean_sbu_0, # of connection points: 6
#     Node 5, Type 0, BuildingBlock: BETGAK_clean_sbu_0, # of connection points: 6
#     Edge 6, Type (0, 0), BuildingBlock: FUNLAD_clean_linker_0, # of connection points: 2
#     Edge 7, Type (0, 0), BuildingBlock: FUNLAD_clean_linker_0, # of connection points: 2
#     Edge 8, Type (0, 0), BuildingBlock: FUNLAD_clean_linker_0, # of connection points: 2
#     Edge 9, Type (0, 0), BuildingBlock: FUNLAD_clean_linker_0, # of connection points: 2
#     Edge 10, Type (0, 0), BuildingBlock: FUNLAD_clean_linker_0, # of connection points: 2
#     Edge 11, Type (0, 0), BuildingBlock: FUNLAD_clean_linker_0, # of connection points: 2
#     Edge 12, Type (0, 0), BuildingBlock: FUNLAD_clean_linker_0, # of connection points: 2
#     Edge 13, Type (0, 0), BuildingBlock: FUNLAD_clean_linker_0, # of connection points: 2
#     Edge 14, Type (0, 0), BuildingBlock: FUNLAD_clean_linker_0, # of connection points: 2
#     Edge 15, Type (0, 0), BuildingBlock: FUNLAD_clean_linker_0, # of connection points: 2
#     Edge 16, Type (0, 0), BuildingBlock: FUNLAD_clean_linker_0, # of connection points: 2
#     Edge 17, Type (0, 0), BuildingBlock: FUNLAD_clean_linker_0, # of connection points: 2
#     Edge 18, Type (0, 0), BuildingBlock: FUNLAD_clean_linker_0, # of connection points: 2
#     Edge 19, Type (0, 0), BuildingBlock: FUNLAD_clean_linker_0, # of connection points: 2
#     Edge 20, Type (0, 0), BuildingBlock: FUNLAD_clean_linker_0, # of connection points: 2
#     Edge 21, Type (0, 0), BuildingBlock: FUNLAD_clean_linker_0, # of connection points: 2
#     Edge 22, Type (0, 0), BuildingBlock: FUNLAD_clean_linker_0, # of connection points: 2
#     Edge 23, Type (0, 0), BuildingBlock: FUNLAD_clean_linker_0, # of connection points: 2
# Relax obj value: 0.169
# Max RMSD: 0.207
# Mean RMSD: 0.207
data_MOF--net-sml--node1-BETGAK_clean_sbu_0--edge1-FUNLAD_clean_linker_0
_symmetry_space_group_name_H-M    P1
_symmetry_Int_Tables_number       1
_symmetry_cell_setting            triclinic
loop_
_symmetry_equiv_pos_as_xyz
'x, y, z'
_cell_length_a     38.687392
_cell_length_b     38.74799
_cell_length_c     27.674859
_cell_angle_alpha  89.942632
_cell_angle_beta   89.825562
_cell_angle_gamma 120.07097
loop_
_atom_site_label
_atom_site_type_symbol
_atom_site_fract_x
_atom_site_fract_y
_atom_site_fract_z
_atom_type_partial_charge
La0 La 0.19442 0.42472 0.11757 0.0
La1 La 0.22839 0.41144 0.2102 0.0
C2 C 0.18512 0.45148 0.03851 0.0
C3 C 0.19087 0.44644 0.98642 0.0
C4 C 0.15873 0.41847 0.95844 0.0
C5 C 0.16382 0.41394 0.90923 0.0
C6 C 0.20114 0.43738 0.88667 0.0
C7 C 0.23323 0.46557 0.91459 0.0
C8 C 0.2281 0.47021 0.96378 0.0
C9 C 0.14137 0.37467 0.18024 0.0
C10 C 0.21257 0.35457 0.11902 0.0
C11 C 0.23698 0.38447 0.28941 0.0
C12 C 0.23203 0.39043 0.34143 0.0
C13 C 0.26563 0.41459 0.36991 0.0
C14 C 0.26141 0.41999 0.41911 0.0
C15 C 0.22348 0.40116 0.44119 0.0
C16 C 0.18987 0.37679 0.41272 0.0
C17 C 0.19409 0.37137 0.36351 0.0
C18 C 0.28117 0.46276 0.14872 0.0
C19 C 0.21176 0.48223 0.20915 0.0
O20 O 0.15646 0.42058 0.06103 0.0
O21 O 0.2173 0.4701 0.06509 0.0
O22 O 0.13621 0.37201 0.13385 0.0
O23 O 0.17328 0.40621 0.18944 0.0
O24 O 0.20746 0.37957 0.09141 0.0
O25 O 0.21853 0.36011 0.16623 0.0
O26 O 0.26625 0.41453 0.26638 0.0
O27 O 0.20447 0.36663 0.26324 0.0
O28 O 0.28582 0.46526 0.19521 0.0
O29 O 0.24989 0.43082 0.13851 0.0
O30 O 0.21613 0.45671 0.23651 0.0
O31 O 0.20501 0.47665 0.16192 0.0
H32 H 0.12954 0.39998 0.97455 0.0
H33 H 0.13856 0.39169 0.88896 0.0
H34 H 0.26222 0.48457 0.89824 0.0
H35 H 0.25329 0.49262 0.98394 0.0
H36 H 0.2953 0.42939 0.35413 0.0
H37 H 0.28791 0.43931 0.43974 0.0
H38 H 0.16027 0.3613 0.42861 0.0
H39 H 0.16757 0.35202 0.34295 0.0
La40 La 0.79435 0.24371 0.50708 0.0
La41 La 0.76709 0.18809 0.41992 0.0
C42 C 0.80024 0.27478 0.58909 0.0
C43 C 0.7945 0.26296 0.64054 0.0
C44 C 0.81815 0.29117 0.67532 0.0
C45 C 0.81353 0.28112 0.72441 0.0
C46 C 0.78512 0.24246 0.73992 0.0
C47 C 0.7614 0.21413 0.7048 0.0
C48 C 0.76604 0.22429 0.65558 0.0
C49 C 0.85168 0.25097 0.44988 0.0
C50 C 0.7722 0.15197 0.51729 0.0
C51 C 0.75945 0.15657 0.33778 0.0
C52 C 0.76379 0.16818 0.2863 0.0
C53 C 0.74123 0.13916 0.25175 0.0
C54 C 0.74499 0.14896 0.2026 0.0
C55 C 0.77147 0.18813 0.18682 0.0
C56 C 0.79395 0.2173 0.22172 0.0
C57 C 0.79014 0.20742 0.27099 0.0
C58 C 0.71065 0.184 0.47712 0.0
C59 C 0.78832 0.27925 0.40882 0.0
O60 O 0.82992 0.27432 0.56688 0.0
O61 O 0.76821 0.26043 0.56212 0.0
O62 O 0.85272 0.28013 0.47401 0.0
O63 O 0.82067 0.21863 0.46095 0.0
O64 O 0.77587 0.18452 0.53805 0.0
O65 O 0.7733 0.14861 0.46985 0.0
O66 O 0.73012 0.1566 0.36139 0.0
O67 O 0.79218 0.17159 0.36345 0.0
O68 O 0.70835 0.15327 0.45539 0.0
O69 O 0.74218 0.21476 0.46453 0.0
O70 O 0.78446 0.24655 0.38839 0.0
O71 O 0.78854 0.28344 0.45636 0.0
H72 H 0.84018 0.32121 0.6645 0.0
H73 H 0.83186 0.30391 0.75028 0.0
H74 H 0.73955 0.18396 0.71526 0.0
H75 H 0.74744 0.20199 0.62934 0.0
H76 H 0.72081 0.10869 0.2628 0.0
H77 H 0.72763 0.12559 0.17688 0.0
H78 H 0.81426 0.24785 0.21103 0.0
H79 H 0.80782 0.23038 0.29704 0.0
La80 La 0.55669 0.7399 0.74617 0.0
La81 La 0.58046 0.7936 0.83343 0.0
C82 C 0.53624 0.70968 0.66305 0.0
C83 C 0.54438 0.72301 0.61199 0.0
C84 C 0.56674 0.71151 0.58303 0.0
C85 C 0.57361 0.72226 0.53427 0.0
C86 C 0.55795 0.74448 0.51309 0.0
C87 C 0.53561 0.75611 0.54207 0.0
C88 C 0.52894 0.74556 0.59106 0.0
C89 C 0.60764 0.73452 0.80354 0.0
C90 C 0.62298 0.83282 0.73769 0.0
C91 C 0.59952 0.82471 0.91631 0.0
C92 C 0.59143 0.81213 0.96764 0.0
C93 C 0.56878 0.82374 0.99585 0.0
C94 C 0.56208 0.81389 0.04489 0.0
C95 C 0.57821 0.79246 0.06708 0.0
C96 C 0.6008 0.78067 0.03883 0.0
C97 C 0.60731 0.79034 0.98958 0.0
C98 C 0.52857 0.79687 0.77498 0.0
C99 C 0.51366 0.70139 0.84262 0.0
O100 O 0.56604 0.7114 0.68726 0.0
O101 O 0.51551 0.72109 0.68916 0.0
O102 O 0.58005 0.7051 0.77927 0.0
O103 O 0.60776 0.76639 0.79324 0.0
O104 O 0.59537 0.79993 0.71622 0.0
O105 O 0.6266 0.8355 0.78521 0.0
O106 O 0.56945 0.8217 0.89146 0.0
O107 O 0.62112 0.81386 0.89105 0.0
O108 O 0.55614 0.82745 0.79772 0.0
O109 O 0.52976 0.76625 0.78714 0.0
O110 O 0.54204 0.73391 0.86381 0.0
O111 O 0.5101 0.69851 0.79501 0.0
H112 H 0.57861 0.69375 0.59802 0.0
H113 H 0.59044 0.71233 0.51283 0.0
H114 H 0.52342 0.77353 0.52692 0.0
H115 H 0.51146 0.75483 0.61232 0.0
H116 H 0.55658 0.84095 0.98007 0.0
H117 H 0.54504 0.82393 0.06571 0.0
H118 H 0.61334 0.76383 0.05475 0.0
H119 H 0.62503 0.78101 0.96893 0.0
La120 La 0.7517 0.57085 0.16284 0.0
La121 La 0.80485 0.59115 0.07481 0.0
C122 C 0.72065 0.55108 0.24591 0.0
C123 C 0.73316 0.55598 0.29676 0.0
C124 C 0.70607 0.55276 0.33259 0.0
C125 C 0.71676 0.55698 0.38129 0.0
C126 C 0.75487 0.56452 0.39519 0.0
C127 C 0.78217 0.56803 0.35901 0.0
C128 C 0.77138 0.56373 0.31014 0.0
C129 C 0.7437 0.61756 0.10064 0.0
C130 C 0.8441 0.63879 0.16707 0.0
C131 C 0.83674 0.60654 0.99198 0.0
C132 C 0.82468 0.60069 0.94064 0.0
C133 C 0.83832 0.58102 0.91028 0.0
C134 C 0.82901 0.57642 0.86112 0.0
C135 C 0.80604 0.59169 0.84098 0.0
C136 C 0.79194 0.611 0.87163 0.0
C137 C 0.80111 0.61542 0.92098 0.0
C138 C 0.80994 0.54349 0.13898 0.0
C139 C 0.71301 0.52435 0.06844 0.0
O140 O 0.7269 0.58338 0.2233 0.0
O141 O 0.72953 0.52878 0.21907 0.0
O142 O 0.71531 0.59158 0.12794 0.0
O143 O 0.77621 0.619 0.11107 0.0
O144 O 0.81214 0.61138 0.19071 0.0
O145 O 0.84573 0.6402 0.11944 0.0
O146 O 0.82827 0.5744 0.01661 0.0
O147 O 0.83058 0.63152 0.0172 0.0
O148 O 0.8402 0.5703 0.11472 0.0
O149 O 0.77894 0.54321 0.12536 0.0
O150 O 0.7451 0.55224 0.04573 0.0
O151 O 0.71034 0.52276 0.11617 0.0
H152 H 0.67653 0.54699 0.32288 0.0
H153 H 0.69526 0.55478 0.40805 0.0
H154 H 0.81163 0.57349 0.36848 0.0
H155 H 0.79272 0.56626 0.28291 0.0
H156 H 0.85648 0.56936 0.9246 0.0
H157 H 0.83973 0.56069 0.83893 0.0
H158 H 0.7745 0.62346 0.85735 0.0
H159 H 0.79015 0.63077 0.94348 0.0
La160 La 0.24245 0.82169 0.41882 0.0
La161 La 0.18863 0.78933 0.50829 0.0
C162 C 0.2744 0.83423 0.33624 0.0
C163 C 0.26268 0.82767 0.28506 0.0
C164 C 0.29 0.8529 0.25018 0.0
C165 C 0.28012 0.84745 0.20121 0.0
C166 C 0.24259 0.81658 0.18604 0.0
C167 C 0.21514 0.79128 0.22126 0.0
C168 C 0.22508 0.79683 0.2704 0.0
C169 C 0.24947 0.87545 0.48213 0.0
C170 C 0.14955 0.79557 0.41416 0.0
C171 C 0.15741 0.77804 0.59114 0.0
C172 C 0.16991 0.78491 0.64206 0.0
C173 C 0.14338 0.75946 0.67741 0.0
C174 C 0.15399 0.76521 0.72615 0.0
C175 C 0.19147 0.7966 0.74063 0.0
C176 C 0.21812 0.82215 0.70495 0.0
C177 C 0.20747 0.81629 0.65603 0.0
C178 C 0.18436 0.736 0.44582 0.0
C179 C 0.2806 0.81354 0.51378 0.0
O180 O 0.26805 0.86004 0.35929 0.0
O181 O 0.26501 0.80251 0.36239 0.0
O182 O 0.27842 0.87846 0.45542 0.0
O183 O 0.21768 0.84442 0.47029 0.0
O184 O 0.18184 0.80063 0.39084 0.0
O185 O 0.14766 0.79584 0.46179 0.0
O186 O 0.16263 0.75147 0.56816 0.0
O187 O 0.1671 0.80967 0.56462 0.0
O188 O 0.15412 0.73162 0.47109 0.0
O189 O 0.21502 0.76755 0.45829 0.0
O190 O 0.24845 0.80899 0.53676 0.0
O191 O 0.2831 0.81404 0.46597 0.0
H192 H 0.3192 0.8768 0.26084 0.0
H193 H 0.30219 0.86709 0.17513 0.0
H194 H 0.18584 0.76748 0.21088 0.0
H195 H 0.2035 0.77708 0.29687 0.0
H196 H 0.11423 0.73517 0.6673 0.0
H197 H 0.13248 0.74538 0.7526 0.0
H198 H 0.24736 0.84639 0.71477 0.0
H199 H 0.22846 0.83622 0.6292 0.0
La200 La 0.42165 0.17409 0.86355 0.0
La201 La 0.392 0.1973 0.77446 0.0
C202 C 0.44779 0.17071 0.94581 0.0
C203 C 0.44128 0.17642 0.99693 0.0
C204 C 0.44662 0.15349 0.03207 0.0
C205 C 0.44061 0.15789 0.08094 0.0
C206 C 0.42908 0.18539 0.09577 0.0
C207 C 0.42378 0.20847 0.06035 0.0
C208 C 0.42974 0.20396 1.01129 0.0
C209 C 0.37264 0.11454 0.80874 0.0
C210 C 0.34914 0.19188 0.87076 0.0
C211 C 0.36694 0.20281 0.69228 0.0
C212 C 0.37481 0.19937 0.64091 0.0
C213 C 0.36825 0.22217 0.60676 0.0
C214 C 0.37488 0.21934 0.55763 0.0
C215 C 0.38825 0.19357 0.54157 0.0
C216 C 0.39506 0.17086 0.57606 0.0
C217 C 0.38845 0.17377 0.62532 0.0
C218 C 0.44208 0.25615 0.83018 0.0
C219 C 0.46377 0.17874 0.76592 0.0
O220 O 0.41833 0.14006 0.92435 0.0
O221 O 0.46422 0.20246 0.91812 0.0
O222 O 0.4016 0.11538 0.83308 0.0
O223 O 0.37021 0.14511 0.81799 0.0
O224 O 0.37899 0.19073 0.89279 0.0
O225 O 0.34487 0.18895 0.82335 0.0
O226 O 0.39525 0.23312 0.71556 0.0
O227 O 0.35098 0.17004 0.71812 0.0
O228 O 0.41268 0.25593 0.80761 0.0
O229 O 0.44354 0.22546 0.81928 0.0
O230 O 0.43447 0.18116 0.74444 0.0
O231 O 0.46779 0.18018 0.81351 0.0
H232 H 0.45558 0.13214 0.02168 0.0
H233 H 0.44555 0.14008 0.1072 0.0
H234 H 0.41454 0.22964 0.07048 0.0
H235 H 0.42531 0.22189 0.98467 0.0
H236 H 0.35767 0.24205 0.61809 0.0
H237 H 0.36879 0.23683 0.53213 0.0
H238 H 0.40581 0.15108 0.56502 0.0
H239 H 0.39385 0.15599 0.65114 0.0
C240 C 0.32718 0.20713 0.94936 0.0
C241 C 0.32171 0.20011 0.89939 0.0
C242 C 0.30448 0.21991 0.97508 0.0
C243 C 0.27567 0.22577 0.95128 0.0
C244 C 0.26926 0.2173 0.90178 0.0
C245 C 0.29181 0.20442 0.87615 0.0
C246 C 0.25506 0.2448 0.97524 0.0
C247 C 0.24942 0.2444 0.02337 0.0
C248 C 0.23491 0.26901 0.0479 0.0
C249 C 0.24202 0.27625 0.09761 0.0
C250 C 0.23319 0.30276 0.12128 0.0
C251 C 0.21708 0.32272 0.09565 0.0
H252 H 0.20852 0.28118 0.98527 0.0
C253 C 0.20776 0.31378 0.0466 0.0
C254 C 0.21625 0.28701 0.02302 0.0
H255 H 0.19458 0.32807 0.02604 0.0
H256 H 0.35005 0.20426 0.96836 0.0
H257 H 0.31112 0.22706 1.01291 0.0
H258 H 0.24744 0.22173 0.8825 0.0
H259 H 0.28669 0.19924 0.83772 0.0
H260 H 0.2459 0.26113 0.95173 0.0
H261 H 0.25827 0.22743 0.04631 0.0
H262 H 0.25587 0.26251 0.11793 0.0
H263 H 0.24049 0.30872 0.15923 0.0
C264 C 0.07122 0.32309 0.20217 0.0
C265 C 0.10951 0.35292 0.2163 0.0
C266 C 0.03994 0.30614 0.23593 0.0
C267 C 0.04663 0.31868 0.28448 0.0
C268 C 0.08542 0.34725 0.29868 0.0
C269 C 0.11649 0.36419 0.26503 0.0
C270 C 0.01374 0.30649 0.32022 0.0
C271 C 0.97655 0.27505 0.31545 0.0
C272 C 0.9441 0.26848 0.34964 0.0
C273 C 0.91416 0.2296 0.36195 0.0
C274 C 0.88384 0.22344 0.39474 0.0
C275 C 0.88266 0.25612 0.41478 0.0
H276 H 0.96397 0.33135 0.35918 0.0
C277 C 0.912 0.29486 0.40144 0.0
C278 C 0.94227 0.301 0.36919 0.0
H279 H 0.91157 0.32063 0.41587 0.0
H280 H 0.06507 0.31397 0.16473 0.0
H281 H 0.01042 0.28475 0.22323 0.0
H282 H 0.09151 0.35759 0.33573 0.0
H283 H 0.14567 0.38722 0.27696 0.0
H284 H 0.02052 0.32518 0.35207 0.0
H285 H 0.96963 0.25358 0.28669 0.0
H286 H 0.91469 0.20406 0.34695 0.0
H287 H 0.86177 0.19327 0.40486 0.0
C288 C 0.76094 0.08268 0.52776 0.0
C289 C 0.76395 0.1173 0.54812 0.0
C290 C 0.74992 0.04881 0.5562 0.0
C291 C 0.74114 0.04862 0.6057 0.0
C292 C 0.74578 0.08382 0.62631 0.0
C293 C 0.75699 0.11771 0.59795 0.0
C294 C 0.7264 0.01252 0.637 0.0
C295 C 0.70976 0.97495 0.61983 0.0
C296 C 0.69047 0.93853 0.65089 0.0
C297 C 0.66321 0.90205 0.62947 0.0
C298 C 0.64226 0.86751 0.65739 0.0
C299 C 0.64818 0.86853 0.70759 0.0
H300 H 0.71952 0.96618 0.71871 0.0
C301 C 0.67671 0.9046 0.72884 0.0
C302 C 0.69778 0.93918 0.70083 0.0
H303 H 0.68237 0.90637 0.76732 0.0
H304 H 0.76662 0.08147 0.48963 0.0
H305 H 0.7483 0.02302 0.53897 0.0
H306 H 0.73972 0.08485 0.66437 0.0
H307 H 0.75925 0.14389 0.61501 0.0
H308 H 0.72644 0.0172 0.67563 0.0
H309 H 0.70701 0.97008 0.58112 0.0
H310 H 0.65724 0.90041 0.59106 0.0
H311 H 0.62069 0.84025 0.63965 0.0
C312 C 0.66548 0.7623 0.86153 0.0
C313 C 0.63777 0.73101 0.83242 0.0
C314 C 0.6913 0.7566 0.89164 0.0
C315 C 0.69075 0.72004 0.89142 0.0
C316 C 0.66483 0.6898 0.86011 0.0
C317 C 0.63818 0.69497 0.83149 0.0
C318 C 0.71482 0.71132 0.9254 0.0
C319 C 0.71402 0.71728 0.97309 0.0
C320 C 0.7251 0.6958 1.00837 0.0
C321 C 0.69833 0.67485 0.04592 0.0
C322 C 0.70492 0.64989 0.07608 0.0
C323 C 0.73912 0.64636 0.0703 0.0
H324 H 0.78135 0.70971 0.97486 0.0
C325 C 0.76727 0.66933 0.03469 0.0
C326 C 0.76 0.69338 1.0033 0.0
H327 H 0.79424 0.66794 0.03022 0.0
H328 H 0.66686 0.79082 0.86159 0.0
H329 H 0.71154 0.78058 0.9151 0.0
H330 H 0.66398 0.66141 0.85932 0.0
H331 H 0.61757 0.67044 0.80893 0.0
H332 H 0.72664 0.69275 0.91249 0.0
H333 H 0.69784 0.73161 0.98641 0.0
H334 H 0.67126 0.67632 0.05052 0.0
H335 H 0.68288 0.63293 0.10362 0.0
C336 C 0.1101 0.77582 0.33727 0.0
C337 C 0.11296 0.7855 0.38656 0.0
C338 C 0.0739 0.7617 0.3128 0.0
C339 C 0.03984 0.75738 0.33707 0.0
C340 C 0.0432 0.76828 0.3859 0.0
C341 C 0.07928 0.78224 0.41035 0.0
C342 C -0.00031 0.73868 0.31421 0.0
C343 C 0.99373 0.73527 0.26611 0.0
C344 C 0.9536 0.71287 0.24336 0.0
C345 C 0.94999 0.71957 0.19427 0.0
C346 C 0.91396 0.69659 0.17003 0.0
C347 C 0.88059 0.66615 0.19429 0.0
H348 H 0.92137 0.67606 0.30553 0.0
C349 C 0.88369 0.66015 0.24381 0.0
C350 C 0.91983 0.68308 0.26807 0.0
H351 H 0.85868 0.6367 0.2635 0.0
H352 H 0.13535 0.77763 0.31795 0.0
H353 H 0.07257 0.75273 0.27556 0.0
H354 H 0.01753 0.76515 0.4056 0.0
H355 H 0.08039 0.78949 0.44831 0.0
H356 H 0.97415 0.72749 0.33839 0.0
H357 H 0.01922 0.74957 0.24187 0.0
H358 H 0.97545 0.74213 0.17423 0.0
H359 H 0.91265 0.7021 0.13188 0.0
C360 C 0.3602 0.05591 0.76009 0.0
C361 C 0.34815 0.08309 0.77382 0.0
C362 C 0.33824 0.02618 0.72655 0.0
C363 C 0.30318 0.02247 0.70629 0.0
C364 C 0.29119 0.04985 0.71994 0.0
C365 C 0.31336 0.07982 0.75372 0.0
C366 C 0.28095 0.99258 0.66798 0.0
C367 C 0.28309 0.95916 0.66286 0.0
C368 C 0.27214 0.93616 0.61753 0.0
C369 C 0.29984 0.92706 0.59738 0.0
C370 C 0.29243 0.90789 0.55299 0.0
C371 C 0.25635 0.89585 0.52884 0.0
H372 H 0.21393 0.93067 0.60886 0.0
C373 C 0.22776 0.90355 0.54968 0.0
C374 C 0.23588 0.92423 0.59357 0.0
H375 H 0.19969 0.89435 0.53158 0.0
H376 H 0.3872 0.05806 0.77458 0.0
H377 H 0.34985 0.00715 0.71559 0.0
H378 H 0.2647 0.04811 0.70438 0.0
H379 H 0.30332 0.10031 0.7641 0.0
H380 H 0.26498 -0.0002 0.64126 0.0
H381 H 0.29866 0.95145 0.68948 0.0
H382 H 0.32792 0.93593 0.61536 0.0
H383 H 0.31487 0.90211 0.5378 0.0
C384 C 0.17695 0.42683 0.80063 0.0
C385 C 0.20652 0.43247 0.83426 0.0
C386 C 0.18183 0.42186 0.75146 0.0
C387 C 0.21659 0.42257 0.73463 0.0
C388 C 0.24592 0.42785 0.76835 0.0
C389 C 0.2411 0.43295 0.81747 0.0
C390 C 0.22284 0.4165 0.68278 0.0
C391 C 0.20449 0.42343 0.64568 0.0
C392 C 0.21033 0.41733 0.59362 0.0
C393 C 0.18292 0.41647 0.55973 0.0
C394 C 0.18709 0.41117 0.5105 0.0
C395 C 0.219 0.40677 0.49369 0.0
H396 H 0.26503 0.41467 0.60096 0.0
C397 C 0.24667 0.40794 0.52746 0.0
C398 C 0.24252 0.41327 0.57673 0.0
H399 H 0.27148 0.40439 0.51589 0.0
H400 H 0.15002 0.42647 0.81227 0.0
H401 H 0.15789 0.41672 0.72716 0.0
H402 H 0.27281 0.42811 0.75664 0.0
H403 H 0.2642 0.43661 0.84242 0.0
H404 H 0.24386 0.40637 0.67552 0.0
H405 H 0.18384 0.43398 0.65338 0.0
H406 H 0.15802 0.41988 0.57137 0.0
H407 H 0.16555 0.41107 0.4855 0.0
C408 C 0.74241 0.18149 0.10349 0.0
C409 C 0.77587 0.19816 0.13414 0.0
C410 C 0.7466 0.18996 0.05387 0.0
C411 C 0.78453 0.21525 0.03342 0.0
C412 C 0.81781 0.23242 0.06426 0.0
C413 C 0.81361 0.22396 0.11385 0.0
C414 C 0.79082 0.2254 0.98072 0.0
C415 C 0.76425 0.20422 0.94573 0.0
C416 C 0.77078 0.21453 0.8931 0.0
C417 C 0.7375 0.19901 0.86231 0.0
C418 C 0.74207 0.20775 0.81278 0.0
C419 C 0.78019 0.2321 0.79252 0.0
H420 H 0.8357 0.24976 0.89445 0.0
C421 C 0.81361 0.247 0.82315 0.0
C422 C 0.80904 0.2383 0.8727 0.0
H423 H 0.84351 0.26507 0.80872 0.0
H424 H 0.71275 0.16218 0.11796 0.0
H425 H 0.71985 0.17704 0.03215 0.0
H426 H 0.84739 0.25221 0.04983 0.0
H427 H 0.84013 0.23708 0.13612 0.0
H428 H 0.81895 0.25144 0.97072 0.0
H429 H 0.736 0.17828 0.95555 0.0
H430 H 0.70767 0.18037 0.87674 0.0
H431 H 0.71559 0.196 0.79053 0.0
C432 C 0.53269 0.75038 0.43158 0.0
C433 C 0.56427 0.75454 0.4607 0.0
C434 C 0.53818 0.75791 0.38183 0.0
C435 C 0.57547 0.76974 0.36005 0.0
C436 C 0.60725 0.77502 0.38948 0.0
C437 C 0.60171 0.7673 0.43911 0.0
C438 C 0.58279 0.77766 0.30719 0.0
C439 C 0.55376 0.76175 0.27354 0.0
C440 C 0.56108 0.76939 0.22063 0.0
C441 C 0.52918 0.76357 0.19102 0.0
C442 C 0.53462 0.77065 0.14126 0.0
C443 C 0.57207 0.78334 0.11973 0.0
H444 H 0.62351 0.7849 0.22 0.0
C445 C 0.6038 0.7882 0.14908 0.0
C446 C 0.59841 0.78128 0.19894 0.0
H447 H 0.63305 0.79802 0.13365 0.0
H448 H 0.50346 0.74055 0.44708 0.0
H449 H 0.51319 0.75473 0.36091 0.0
H450 H 0.63644 0.78464 0.37392 0.0
H451 H 0.62683 0.77143 0.46065 0.0
H452 H 0.61356 0.7968 0.29592 0.0
H453 H 0.52299 0.74261 0.28485 0.0
H454 H 0.49996 0.7539 0.20651 0.0
H455 H 0.50939 0.76601 0.11958 0.0
C456 C 0.82631 0.59176 0.75439 0.0
C457 C 0.79724 0.5877 0.78819 0.0
C458 C 0.81797 0.58728 0.70491 0.0
C459 C 0.78033 0.57903 0.68781 0.0
C460 C 0.75132 0.57497 0.7216 0.0
C461 C 0.75964 0.57933 0.77111 0.0
C462 C 0.76953 0.57295 0.63554 0.0
C463 C 0.79637 0.58502 0.59901 0.0
C464 C 0.78506 0.57867 0.54693 0.0
C465 C 0.81326 0.60321 0.51209 0.0
C466 C 0.80375 0.59842 0.46288 0.0
C467 C 0.7658 0.56877 0.44729 0.0
H468 H 0.72534 0.52762 0.55645 0.0
C469 C 0.73793 0.54352 0.48204 0.0
C470 C 0.74744 0.54827 0.53119 0.0
H471 H 0.70877 0.51972 0.4712 0.0
H472 H 0.85574 0.59857 0.76612 0.0
H473 H 0.84098 0.58966 0.68059 0.0
H474 H 0.72193 0.56824 0.70969 0.0
H475 H 0.7363 0.5754 0.79604 0.0
H476 H 0.73799 0.55917 0.62711 0.0
H477 H 0.82803 0.60189 0.60698 0.0
H478 H 0.84262 0.62659 0.52302 0.0
H479 H 0.82586 0.61851 0.43714 0.0
C480 C 0.19149 0.76974 0.82343 0.0
C481 C 0.20216 0.80264 0.79284 0.0
C482 C 0.19975 0.77507 0.8729 0.0
C483 C 0.21875 0.81354 0.89316 0.0
C484 C 0.23041 0.84645 0.86236 0.0
C485 C 0.22213 0.84112 0.81285 0.0
C486 C 0.22775 0.82071 0.94578 0.0
C487 C 0.20794 0.79308 0.98046 0.0
C488 C 0.2168 0.80018 0.03312 0.0
C489 C 0.20446 0.76716 0.06395 0.0
C490 C 0.21234 0.77235 0.11354 0.0
C491 C 0.2326 0.81078 0.13363 0.0
H492 H 0.24491 0.86489 0.03157 0.0
C493 C 0.2441 0.84381 0.10301 0.0
C494 C 0.23622 0.83864 0.05343 0.0
H495 H 0.25891 0.8738 0.11745 0.0
H496 H 0.17697 0.73974 0.80904 0.0
H497 H 0.19164 0.74893 0.89475 0.0
H498 H 0.24544 0.87646 0.87678 0.0
H499 H 0.23057 0.86711 0.79046 0.0
H500 H 0.25131 0.85026 0.95593 0.0
H501 H 0.18435 0.76356 0.97025 0.0
H502 H 0.18913 0.73716 0.0495 0.0
H503 H 0.2033 0.74625 0.13596 0.0
C504 C 0.41148 0.22401 0.45898 0.0
C505 C 0.39433 0.19006 0.48898 0.0
C506 C 0.41589 0.22062 0.40929 0.0
C507 C 0.403 0.18303 0.38825 0.0
C508 C 0.38667 0.14927 0.41845 0.0
C509 C 0.38226 0.15267 0.46813 0.0
C510 C 0.40681 0.17764 0.33549 0.0
C511 C 0.41099 0.2043 0.30114 0.0
C512 C 0.41453 0.19842 0.24846 0.0
C513 C 0.43254 0.23198 0.21794 0.0
C514 C 0.43685 0.22784 0.16838 0.0
C515 C 0.42299 0.18992 0.14806 0.0
H516 H 0.38412 0.13356 0.24947 0.0
C517 C 0.40398 0.15625 0.17836 0.0
C518 C 0.39966 0.16037 0.22786 0.0
H519 H 0.39205 0.12653 0.1637 0.0
H520 H 0.42192 0.25339 0.47401 0.0
H521 H 0.42997 0.24765 0.38792 0.0
H522 H 0.37672 0.11995 0.40346 0.0
H523 H 0.36862 0.12584 0.49001 0.0
H524 H 0.40556 0.1501 0.32485 0.0
H525 H 0.41251 0.232 0.31156 0.0
H526 H 0.44393 0.26163 0.23262 0.0
H527 H 0.45184 0.25443 0.14619 0.0
C528 C 0.19425 0.53666 0.2129 0.0
C529 C 0.21243 0.51653 0.23338 0.0
C530 C 0.1937 0.56782 0.23803 0.0
C531 C 0.2118 0.57954 0.28374 0.0
C532 C 0.23084 0.56006 0.30329 0.0
C533 C 0.23086 0.52874 0.27869 0.0
C534 C 0.21259 0.61242 0.31201 0.0
C535 C 0.1841 0.62268 0.30997 0.0
C536 C 0.1845 0.65328 0.34274 0.0
C537 C 0.14822 0.64979 0.35816 0.0
C538 C 0.14792 0.67675 0.39165 0.0
C539 C 0.18396 0.70788 0.40973 0.0
H540 H 0.24913 0.68989 0.34766 0.0
C541 C 0.22019 0.71205 0.39328 0.0
C542 C 0.22053 0.68534 0.35985 0.0
H543 H 0.24842 0.73566 0.40685 0.0
H544 H 0.17993 0.52794 0.17795 0.0
H545 H 0.17958 0.5829 0.22142 0.0
H546 H 0.24533 0.56871 0.33818 0.0
H547 H 0.2455 0.51415 0.29529 0.0
H548 H 0.23612 0.62646 0.33873 0.0
H549 H 0.15827 0.60606 0.28692 0.0
H550 H 0.12006 0.62559 0.34521 0.0
H551 H 0.11959 0.67312 0.40356 0.0
C552 C 0.65277 0.14881 0.53413 0.0
C553 C 0.68086 0.18386 0.51046 0.0
C554 C 0.62488 0.14944 0.56602 0.0
C555 C 0.62446 0.18511 0.57411 0.0
C556 C 0.65236 0.2199 0.54991 0.0
C557 C 0.68052 0.21939 0.5188 0.0
C558 C 0.59417 0.18688 0.60533 0.0
C559 C 0.57783 0.16376 0.64465 0.0
C560 C 0.54815 0.16717 0.6754 0.0
C561 C 0.54739 0.16083 0.72544 0.0
C562 C 0.52024 0.16486 0.75513 0.0
C563 C 0.49283 0.17459 0.73511 0.0
H564 H 0.51926 0.18022 0.61673 0.0
C565 C 0.49302 0.17993 0.68482 0.0
C566 C 0.52033 0.1763 0.65533 0.0
H567 H 0.47217 0.18717 0.66805 0.0
H568 H 0.6525 0.12105 0.52817 0.0
H569 H 0.60317 0.12189 0.58331 0.0
H570 H 0.65247 0.24766 0.55521 0.0
H571 H 0.70174 0.24679 0.50071 0.0
H572 H 0.58677 0.20983 0.59697 0.0
H573 H 0.5881 0.14362 0.65624 0.0
H574 H 0.56828 0.15338 0.7417 0.0
H575 H 0.52062 0.16015 0.79366 0.0
C576 C 0.30531 0.48351 0.06371 0.0
C577 C 0.30928 0.49196 0.11338 0.0
C578 C 0.332 0.51157 0.03044 0.0
C579 C 0.36329 0.54869 0.04639 0.0
C580 C 0.36693 0.55688 0.09617 0.0
C581 C 0.34039 0.52882 0.12929 0.0
C582 C 0.39237 0.5802 1.01303 0.0
C583 C 0.39845 0.57438 0.96639 0.0
C584 C 0.42879 0.60683 0.93504 0.0
C585 C 0.42364 0.60432 0.88465 0.0
C586 C 0.45132 0.63468 0.85433 0.0
C587 C 0.48492 0.66811 0.87383 0.0
H588 H 0.46928 0.64214 0.99263 0.0
C589 C 0.49062 0.67 0.92413 0.0
C590 C 0.46311 0.63972 0.95431 0.0
H591 H 0.51646 0.69497 0.94047 0.0
H592 H 0.28151 0.45522 0.05052 0.0
H593 H 0.3274 0.5041 0.99251 0.0
H594 H 0.39055 0.58517 0.10964 0.0
H595 H 0.34408 0.53615 0.1674 0.0
H596 H 0.40991 0.6098 0.02834 0.0
H597 H 0.38055 0.54532 0.94998 0.0
H598 H 0.3978 0.57909 0.86873 0.0
H599 H 0.4461 0.63216 0.81573 0.0
C600 C 0.8023 0.34929 0.3942 0.0
C601 C 0.79063 0.31094 0.37668 0.0
C602 C 0.80349 0.37857 0.36327 0.0
C603 C 0.79265 0.36979 0.3144 0.0
C604 C 0.78092 0.33148 0.29715 0.0
C605 C 0.78027 0.30253 0.3277 0.0
C606 C 0.79103 0.39881 0.28078 0.0
C607 C 0.8149 0.43863 0.28397 0.0
C608 C 0.8131 0.46617 0.24797 0.0
C609 C 0.84828 0.50108 0.23444 0.0
C610 C 0.84743 0.52635 0.19881 0.0
C611 C 0.81122 0.51746 0.17691 0.0
H612 H 0.74891 0.43185 0.23724 0.0
C613 C 0.77589 0.48326 0.19149 0.0
C614 C 0.77676 0.45788 0.22668 0.0
H615 H 0.74756 0.47579 0.1752 0.0
H616 H 0.81038 0.35666 0.43176 0.0
H617 H 0.81187 0.40759 0.37799 0.0
H618 H 0.77218 0.32385 0.25976 0.0
H619 H 0.77086 0.27327 0.31295 0.0
H620 H 0.77083 0.38653 0.25029 0.0
H621 H 0.83807 0.45114 0.3113 0.0
H622 H 0.87657 0.50833 0.25066 0.0
H623 H 0.87502 0.55281 0.18846 0.0
C624 C 0.34241 0.80866 0.52449 0.0
C625 C 0.31455 0.81837 0.54318 0.0
C626 C 0.37324 0.81148 0.55364 0.0
C627 C 0.37706 0.82472 0.6017 0.0
C628 C 0.35008 0.83576 0.61969 0.0
C629 C 0.31882 0.8321 0.591 0.0
C630 C 0.40876 0.82733 0.63404 0.0
C631 C 0.42062 0.80009 0.63361 0.0
C632 C 0.44894 0.80011 0.66966 0.0
C633 C 0.44377 0.76355 0.68608 0.0
C634 C 0.46923 0.76249 0.72099 0.0
C635 C 0.50112 0.79802 0.73903 0.0
H636 H 0.48606 0.86445 0.67524 0.0
C637 C 0.50669 0.83467 0.72224 0.0
C638 C 0.48079 0.83575 0.6879 0.0
H639 H 0.53118 0.86251 0.73545 0.0
H640 H 0.33988 0.79809 0.48774 0.0
H641 H 0.39416 0.80356 0.53849 0.0
H642 H 0.3526 0.84633 0.65646 0.0
H643 H 0.29804 0.84015 0.60633 0.0
H644 H 0.4197 0.85 0.66203 0.0
H645 H 0.40647 0.77496 0.60899 0.0
H646 H 0.41943 0.7357 0.67263 0.0
H647 H 0.46377 0.73384 0.73409 0.0
C648 C 0.64336 0.46586 0.05981 0.0
C649 C 0.68033 0.4933 0.03899 0.0
C650 C 0.61354 0.43544 0.03182 0.0
C651 C 0.62034 0.43179 0.98257 0.0
C652 C 0.65715 0.45934 0.9619 0.0
C653 C 0.68664 0.48993 0.98957 0.0
C654 C 0.59095 0.39846 0.95223 0.0
C655 C 0.55114 0.38008 0.95897 0.0
C656 C 0.52295 0.34749 0.92678 0.0
C657 C 0.48588 0.34392 0.91581 0.0
C658 C 0.45952 0.31429 0.88414 0.0
C659 C 0.4695 0.28723 0.86381 0.0
H660 H 0.56037 0.32107 0.9157 0.0
C661 C 0.50603 0.29005 0.8758 0.0
C662 C 0.53253 0.31988 0.90695 0.0
H663 H 0.51434 0.26943 0.86067 0.0
H664 H 0.63762 0.46756 0.09781 0.0
H665 H 0.58579 0.41417 0.04917 0.0
H666 H 0.66324 0.45708 0.92413 0.0
H667 H 0.71479 0.51038 0.97228 0.0
H668 H 0.60267 0.39016 0.92138 0.0
H669 H 0.53879 0.39078 0.98656 0.0
H670 H 0.47765 0.36458 0.931 0.0
H671 H 0.43131 0.31245 0.87573 0.0
loop_
_geom_bond_atom_site_label_1
_geom_bond_atom_site_label_2
_geom_bond_distance
_geom_bond_site_symmetry_2
_ccdc_geom_bond_type
La0 C2 2.928 . S
La0 O20 2.521 . S
La0 O21 2.628 . S
La0 O22 2.554 . S
La0 O23 2.757 . S
La0 O24 2.470 . S
La0 O29 2.482 . S
La0 O31 2.503 . S
La1 C11 2.928 . S
La1 O23 2.482 . S
La1 O25 2.503 . S
La1 O26 2.521 . S
La1 O27 2.628 . S
La1 O28 2.554 . S
La1 O29 2.757 . S
La1 O30 2.470 . S
C2 La0 2.928 . S
C2 C3 1.503 1_554 S
C2 O20 1.261 . S
C2 O21 1.243 . S
C3 C2 1.503 1_556 S
C3 C4 1.394 . S
C3 C8 1.373 . S
C4 C3 1.394 . S
C4 C5 1.380 . S
C4 H32 0.930 . S
C5 C4 1.380 . S
C5 C6 1.376 . S
C5 H33 0.930 . S
C6 C5 1.376 . S
C6 C7 1.370 . S
C7 C6 1.370 . S
C7 C8 1.396 . S
C7 H34 0.929 . S
C8 C3 1.373 . S
C8 C7 1.396 . S
C8 H35 0.929 . S
C9 O22 1.240 . S
C9 O23 1.289 . S
C10 O24 1.258 . S
C10 O25 1.256 . S
C11 La1 2.928 . S
C11 C12 1.503 . S
C11 O26 1.261 . S
C11 O27 1.243 . S
C12 C11 1.503 . S
C12 C13 1.394 . S
C12 C17 1.373 . S
C13 C12 1.394 . S
C13 C14 1.380 . S
C13 H36 0.930 . S
C14 C13 1.380 . S
C14 C15 1.376 . S
C14 H37 0.930 . S
C15 C14 1.376 . S
C15 C16 1.370 . S
C16 C15 1.370 . S
C16 C17 1.396 . S
C16 H38 0.929 . S
C17 C12 1.373 . S
C17 C16 1.396 . S
C17 H39 0.929 . S
C18 O28 1.240 . S
C18 O29 1.289 . S
C19 O30 1.258 . S
C19 O31 1.256 . S
O20 La0 2.521 . S
O20 C2 1.261 . S
O21 La0 2.628 . S
O21 C2 1.243 . S
O22 La0 2.554 . S
O22 C9 1.240 . S
O23 La0 2.757 . S
O23 La1 2.482 . S
O23 C9 1.289 . S
O24 La0 2.470 . S
O24 C10 1.258 . S
O25 La1 2.503 . S
O25 C10 1.256 . S
O26 La1 2.521 . S
O26 C11 1.261 . S
O27 La1 2.628 . S
O27 C11 1.243 . S
O28 La1 2.554 . S
O28 C18 1.240 . S
O29 La0 2.482 . S
O29 La1 2.757 . S
O29 C18 1.289 . S
O30 La1 2.470 . S
O30 C19 1.258 . S
O31 La0 2.503 . S
O31 C19 1.256 . S
H32 C4 0.930 . S
H33 C5 0.930 . S
H34 C7 0.929 . S
H35 C8 0.929 . S
H36 C13 0.930 . S
H37 C14 0.930 . S
H38 C16 0.929 . S
H39 C17 0.929 . S
La40 C42 2.928 . S
La40 O60 2.521 . S
La40 O61 2.628 . S
La40 O62 2.554 . S
La40 O63 2.757 . S
La40 O64 2.470 . S
La40 O69 2.482 . S
La40 O71 2.503 . S
La41 C51 2.928 . S
La41 O63 2.482 . S
La41 O65 2.503 . S
La41 O66 2.521 . S
La41 O67 2.628 . S
La41 O68 2.554 . S
La41 O69 2.757 . S
La41 O70 2.470 . S
C42 La40 2.928 . S
C42 C43 1.503 . S
C42 O60 1.261 . S
C42 O61 1.243 . S
C43 C42 1.503 . S
C43 C44 1.394 . S
C43 C48 1.373 . S
C44 C43 1.394 . S
C44 C45 1.380 . S
C44 H72 0.930 . S
C45 C44 1.380 . S
C45 C46 1.376 . S
C45 H73 0.930 . S
C46 C45 1.376 . S
C46 C47 1.370 . S
C47 C46 1.370 . S
C47 C48 1.396 . S
C47 H74 0.929 . S
C48 C43 1.373 . S
C48 C47 1.396 . S
C48 H75 0.929 . S
C49 O62 1.240 . S
C49 O63 1.289 . S
C50 O64 1.258 . S
C50 O65 1.256 . S
C51 La41 2.928 . S
C51 C52 1.503 . S
C51 O66 1.261 . S
C51 O67 1.243 . S
C52 C51 1.503 . S
C52 C53 1.394 . S
C52 C57 1.373 . S
C53 C52 1.394 . S
C53 C54 1.380 . S
C53 H76 0.930 . S
C54 C53 1.380 . S
C54 C55 1.376 . S
C54 H77 0.930 . S
C55 C54 1.376 . S
C55 C56 1.370 . S
C56 C55 1.370 . S
C56 C57 1.396 . S
C56 H78 0.929 . S
C57 C52 1.373 . S
C57 C56 1.396 . S
C57 H79 0.929 . S
C58 O68 1.240 . S
C58 O69 1.289 . S
C59 O70 1.258 . S
C59 O71 1.256 . S
O60 La40 2.521 . S
O60 C42 1.261 . S
O61 La40 2.628 . S
O61 C42 1.243 . S
O62 La40 2.554 . S
O62 C49 1.240 . S
O63 La40 2.757 . S
O63 La41 2.482 . S
O63 C49 1.289 . S
O64 La40 2.470 . S
O64 C50 1.258 . S
O65 La41 2.503 . S
O65 C50 1.256 . S
O66 La41 2.521 . S
O66 C51 1.261 . S
O67 La41 2.628 . S
O67 C51 1.243 . S
O68 La41 2.554 . S
O68 C58 1.240 . S
O69 La40 2.482 . S
O69 La41 2.757 . S
O69 C58 1.289 . S
O70 La41 2.470 . S
O70 C59 1.258 . S
O71 La40 2.503 . S
O71 C59 1.256 . S
H72 C44 0.930 . S
H73 C45 0.930 . S
H74 C47 0.929 . S
H75 C48 0.929 . S
H76 C53 0.930 . S
H77 C54 0.930 . S
H78 C56 0.929 . S
H79 C57 0.929 . S
La80 C82 2.928 . S
La80 O100 2.521 . S
La80 O101 2.628 . S
La80 O102 2.554 . S
La80 O103 2.757 . S
La80 O104 2.470 . S
La80 O109 2.482 . S
La80 O111 2.503 . S
La81 C91 2.928 1_556 S
La81 O103 2.482 . S
La81 O105 2.503 . S
La81 O106 2.521 1_556 S
La81 O107 2.628 1_556 S
La81 O108 2.554 . S
La81 O109 2.757 . S
La81 O110 2.470 . S
C82 La80 2.928 . S
C82 C83 1.503 . S
C82 O100 1.261 . S
C82 O101 1.243 . S
C83 C82 1.503 . S
C83 C84 1.394 . S
C83 C88 1.373 . S
C84 C83 1.394 . S
C84 C85 1.380 . S
C84 H112 0.930 . S
C85 C84 1.380 . S
C85 C86 1.376 . S
C85 H113 0.930 . S
C86 C85 1.376 . S
C86 C87 1.370 . S
C87 C86 1.370 . S
C87 C88 1.396 . S
C87 H114 0.929 . S
C88 C83 1.373 . S
C88 C87 1.396 . S
C88 H115 0.929 . S
C89 O102 1.240 . S
C89 O103 1.289 . S
C90 O104 1.258 . S
C90 O105 1.256 . S
C91 La81 2.928 1_554 S
C91 C92 1.503 . S
C91 O106 1.261 . S
C91 O107 1.243 . S
C92 C91 1.503 . S
C92 C93 1.394 . S
C92 C97 1.373 . S
C93 C92 1.394 . S
C93 C94 1.380 . S
C93 H116 0.930 . S
C94 C93 1.380 . S
C94 C95 1.376 . S
C94 H117 0.930 . S
C95 C94 1.376 . S
C95 C96 1.370 . S
C96 C95 1.370 . S
C96 C97 1.396 . S
C96 H118 0.929 . S
C97 C92 1.373 . S
C97 C96 1.396 . S
C97 H119 0.929 . S
C98 O108 1.240 . S
C98 O109 1.289 . S
C99 O110 1.258 . S
C99 O111 1.256 . S
O100 La80 2.521 . S
O100 C82 1.261 . S
O101 La80 2.628 . S
O101 C82 1.243 . S
O102 La80 2.554 . S
O102 C89 1.240 . S
O103 La80 2.757 . S
O103 La81 2.482 . S
O103 C89 1.289 . S
O104 La80 2.470 . S
O104 C90 1.258 . S
O105 La81 2.503 . S
O105 C90 1.256 . S
O106 La81 2.521 1_554 S
O106 C91 1.261 . S
O107 La81 2.628 1_554 S
O107 C91 1.243 . S
O108 La81 2.554 . S
O108 C98 1.240 . S
O109 La80 2.482 . S
O109 La81 2.757 . S
O109 C98 1.289 . S
O110 La81 2.470 . S
O110 C99 1.258 . S
O111 La80 2.503 . S
O111 C99 1.256 . S
H112 C84 0.930 . S
H113 C85 0.930 . S
H114 C87 0.929 . S
H115 C88 0.929 . S
H116 C93 0.930 . S
H117 C94 0.930 . S
H118 C96 0.929 . S
H119 C97 0.929 . S
La120 C122 2.928 . S
La120 O140 2.521 . S
La120 O141 2.628 . S
La120 O142 2.554 . S
La120 O143 2.757 . S
La120 O144 2.470 . S
La120 O149 2.482 . S
La120 O151 2.503 . S
La121 C131 2.928 . S
La121 O143 2.482 1_556 S
La121 O145 2.503 1_556 S
La121 O146 2.521 . S
La121 O147 2.628 . S
La121 O148 2.554 1_556 S
La121 O149 2.757 1_556 S
La121 O150 2.470 . S
C122 La120 2.928 . S
C122 C123 1.503 . S
C122 O140 1.261 . S
C122 O141 1.243 . S
C123 C122 1.503 . S
C123 C124 1.394 . S
C123 C128 1.373 . S
C124 C123 1.394 . S
C124 C125 1.380 . S
C124 H152 0.930 . S
C125 C124 1.380 . S
C125 C126 1.376 . S
C125 H153 0.930 . S
C126 C125 1.376 . S
C126 C127 1.370 . S
C127 C126 1.370 . S
C127 C128 1.396 . S
C127 H154 0.929 . S
C128 C123 1.373 . S
C128 C127 1.396 . S
C128 H155 0.929 . S
C129 O142 1.240 . S
C129 O143 1.289 . S
C130 O144 1.258 . S
C130 O145 1.256 . S
C131 La121 2.928 . S
C131 C132 1.503 . S
C131 O146 1.261 . S
C131 O147 1.243 . S
C132 C131 1.503 . S
C132 C133 1.394 . S
C132 C137 1.373 . S
C133 C132 1.394 . S
C133 C134 1.380 . S
C133 H156 0.930 . S
C134 C133 1.380 . S
C134 C135 1.376 . S
C134 H157 0.930 . S
C135 C134 1.376 . S
C135 C136 1.370 . S
C136 C135 1.370 . S
C136 C137 1.396 . S
C136 H158 0.929 . S
C137 C132 1.373 . S
C137 C136 1.396 . S
C137 H159 0.929 . S
C138 O148 1.240 . S
C138 O149 1.289 . S
C139 O150 1.258 . S
C139 O151 1.256 1_556 S
O140 La120 2.521 . S
O140 C122 1.261 . S
O141 La120 2.628 . S
O141 C122 1.243 . S
O142 La120 2.554 . S
O142 C129 1.240 . S
O143 La120 2.757 . S
O143 La121 2.482 1_554 S
O143 C129 1.289 . S
O144 La120 2.470 . S
O144 C130 1.258 . S
O145 La121 2.503 1_554 S
O145 C130 1.256 . S
O146 La121 2.521 . S
O146 C131 1.261 . S
O147 La121 2.628 . S
O147 C131 1.243 . S
O148 La121 2.554 1_554 S
O148 C138 1.240 . S
O149 La120 2.482 . S
O149 La121 2.757 1_554 S
O149 C138 1.289 . S
O150 La121 2.470 . S
O150 C139 1.258 . S
O151 La120 2.503 . S
O151 C139 1.256 1_554 S
H152 C124 0.930 . S
H153 C125 0.930 . S
H154 C127 0.929 . S
H155 C128 0.929 . S
H156 C133 0.930 . S
H157 C134 0.930 . S
H158 C136 0.929 . S
H159 C137 0.929 . S
La160 C162 2.928 . S
La160 O180 2.521 . S
La160 O181 2.628 . S
La160 O182 2.554 . S
La160 O183 2.757 . S
La160 O184 2.470 . S
La160 O189 2.482 . S
La160 O191 2.503 . S
La161 C171 2.928 . S
La161 O183 2.482 . S
La161 O185 2.503 . S
La161 O186 2.521 . S
La161 O187 2.628 . S
La161 O188 2.554 . S
La161 O189 2.757 . S
La161 O190 2.470 . S
C162 La160 2.928 . S
C162 C163 1.503 . S
C162 O180 1.261 . S
C162 O181 1.243 . S
C163 C162 1.503 . S
C163 C164 1.394 . S
C163 C168 1.373 . S
C164 C163 1.394 . S
C164 C165 1.380 . S
C164 H192 0.930 . S
C165 C164 1.380 . S
C165 C166 1.376 . S
C165 H193 0.930 . S
C166 C165 1.376 . S
C166 C167 1.370 . S
C167 C166 1.370 . S
C167 C168 1.396 . S
C167 H194 0.929 . S
C168 C163 1.373 . S
C168 C167 1.396 . S
C168 H195 0.929 . S
C169 O182 1.240 . S
C169 O183 1.289 . S
C170 O184 1.258 . S
C170 O185 1.256 . S
C171 La161 2.928 . S
C171 C172 1.503 . S
C171 O186 1.261 . S
C171 O187 1.243 . S
C172 C171 1.503 . S
C172 C173 1.394 . S
C172 C177 1.373 . S
C173 C172 1.394 . S
C173 C174 1.380 . S
C173 H196 0.930 . S
C174 C173 1.380 . S
C174 C175 1.376 . S
C174 H197 0.930 . S
C175 C174 1.376 . S
C175 C176 1.370 . S
C176 C175 1.370 . S
C176 C177 1.396 . S
C176 H198 0.929 . S
C177 C172 1.373 . S
C177 C176 1.396 . S
C177 H199 0.929 . S
C178 O188 1.240 . S
C178 O189 1.289 . S
C179 O190 1.258 . S
C179 O191 1.256 . S
O180 La160 2.521 . S
O180 C162 1.261 . S
O181 La160 2.628 . S
O181 C162 1.243 . S
O182 La160 2.554 . S
O182 C169 1.240 . S
O183 La160 2.757 . S
O183 La161 2.482 . S
O183 C169 1.289 . S
O184 La160 2.470 . S
O184 C170 1.258 . S
O185 La161 2.503 . S
O185 C170 1.256 . S
O186 La161 2.521 . S
O186 C171 1.261 . S
O187 La161 2.628 . S
O187 C171 1.243 . S
O188 La161 2.554 . S
O188 C178 1.240 . S
O189 La160 2.482 . S
O189 La161 2.757 . S
O189 C178 1.289 . S
O190 La161 2.470 . S
O190 C179 1.258 . S
O191 La160 2.503 . S
O191 C179 1.256 . S
H192 C164 0.930 . S
H193 C165 0.930 . S
H194 C167 0.929 . S
H195 C168 0.929 . S
H196 C173 0.930 . S
H197 C174 0.930 . S
H198 C176 0.929 . S
H199 C177 0.929 . S
La200 C202 2.928 . S
La200 O220 2.521 . S
La200 O221 2.628 . S
La200 O222 2.554 . S
La200 O223 2.757 . S
La200 O224 2.470 . S
La200 O229 2.482 . S
La200 O231 2.503 . S
La201 C211 2.928 . S
La201 O223 2.482 . S
La201 O225 2.503 . S
La201 O226 2.521 . S
La201 O227 2.628 . S
La201 O228 2.554 . S
La201 O229 2.757 . S
La201 O230 2.470 . S
C202 La200 2.928 . S
C202 C203 1.503 . S
C202 O220 1.261 . S
C202 O221 1.243 . S
C203 C202 1.503 . S
C203 C204 1.394 . S
C203 C208 1.373 . S
C204 C203 1.394 . S
C204 C205 1.380 . S
C204 H232 0.930 . S
C205 C204 1.380 . S
C205 C206 1.376 1_556 S
C205 H233 0.930 . S
C206 C205 1.376 1_554 S
C206 C207 1.370 1_554 S
C207 C206 1.370 1_556 S
C207 C208 1.396 . S
C207 H234 0.929 1_556 S
C208 C203 1.373 . S
C208 C207 1.396 . S
C208 H235 0.929 . S
C209 O222 1.240 . S
C209 O223 1.289 . S
C210 O224 1.258 . S
C210 O225 1.256 . S
C211 La201 2.928 . S
C211 C212 1.503 . S
C211 O226 1.261 . S
C211 O227 1.243 . S
C212 C211 1.503 . S
C212 C213 1.394 . S
C212 C217 1.373 . S
C213 C212 1.394 . S
C213 C214 1.380 . S
C213 H236 0.930 . S
C214 C213 1.380 . S
C214 C215 1.376 . S
C214 H237 0.930 . S
C215 C214 1.376 . S
C215 C216 1.370 . S
C216 C215 1.370 . S
C216 C217 1.396 . S
C216 H238 0.929 . S
C217 C212 1.373 . S
C217 C216 1.396 . S
C217 H239 0.929 . S
C218 O228 1.240 . S
C218 O229 1.289 . S
C219 O230 1.258 . S
C219 O231 1.256 . S
O220 La200 2.521 . S
O220 C202 1.261 . S
O221 La200 2.628 . S
O221 C202 1.243 . S
O222 La200 2.554 . S
O222 C209 1.240 . S
O223 La200 2.757 . S
O223 La201 2.482 . S
O223 C209 1.289 . S
O224 La200 2.470 . S
O224 C210 1.258 . S
O225 La201 2.503 . S
O225 C210 1.256 . S
O226 La201 2.521 . S
O226 C211 1.261 . S
O227 La201 2.628 . S
O227 C211 1.243 . S
O228 La201 2.554 . S
O228 C218 1.240 . S
O229 La200 2.482 . S
O229 La201 2.757 . S
O229 C218 1.289 . S
O230 La201 2.470 . S
O230 C219 1.258 . S
O231 La200 2.503 . S
O231 C219 1.256 . S
H232 C204 0.930 . S
H233 C205 0.930 . S
H234 C207 0.929 1_554 S
H235 C208 0.929 . S
H236 C213 0.930 . S
H237 C214 0.930 . S
H238 C216 0.929 . S
H239 C217 0.929 . S
C240 C241 1.386 . S
C240 C242 1.383 . S
C240 H256 0.951 . S
C241 C240 1.386 . S
C241 C245 1.383 . S
C242 C240 1.383 . S
C242 C243 1.402 . S
C242 H257 0.951 . S
C243 C242 1.402 . S
C243 C244 1.375 . S
C243 C246 1.481 . S
C244 C243 1.375 . S
C244 C245 1.367 . S
C244 H258 0.951 . S
C245 C241 1.383 . S
C245 C244 1.367 . S
C245 H259 0.950 . S
C246 C243 1.481 . S
C246 C247 1.297 . S
C246 H260 0.950 . S
C247 C246 1.297 . S
C247 C248 1.479 1_556 S
C247 H261 0.950 . S
C248 C247 1.479 1_554 S
C248 C249 1.375 . S
C248 C254 1.404 . S
C249 C248 1.375 . S
C249 C250 1.369 . S
C249 H262 0.950 1_554 S
C250 C249 1.369 . S
C250 C251 1.392 . S
C250 H263 0.951 . S
C251 C250 1.392 . S
C251 C253 1.384 . S
H252 C254 0.949 . S
C253 C251 1.384 . S
C253 C254 1.385 . S
C253 H255 0.950 . S
C254 C248 1.404 . S
C254 H252 0.949 . S
C254 C253 1.385 . S
H255 C253 0.950 . S
H256 C240 0.951 . S
H257 C242 0.951 . S
H258 C244 0.951 . S
H259 C245 0.950 . S
H260 C246 0.950 . S
H261 C247 0.950 . S
H262 C249 0.950 1_556 S
H263 C250 0.951 . S
C264 C265 1.386 . S
C264 C266 1.383 . S
C264 H280 0.951 . S
C265 C264 1.386 . S
C265 C269 1.383 . S
C266 C264 1.383 . S
C266 C267 1.402 . S
C266 H281 0.951 . S
C267 C266 1.402 . S
C267 C268 1.375 . S
C267 C270 1.481 . S
C268 C267 1.375 . S
C268 C269 1.367 . S
C268 H282 0.951 . S
C269 C265 1.383 . S
C269 C268 1.367 . S
C269 H283 0.950 . S
C270 C267 1.481 . S
C270 C271 1.297 1_455 S
C270 H284 0.950 . S
C271 C270 1.297 1_655 S
C271 C272 1.479 . S
C271 H285 0.950 1_655 S
C272 C271 1.479 . S
C272 C273 1.375 . S
C272 C278 1.404 . S
C273 C272 1.375 . S
C273 C274 1.369 . S
C273 H286 0.950 . S
C274 C273 1.369 . S
C274 C275 1.392 . S
C274 H287 0.951 . S
C275 C274 1.392 . S
C275 C277 1.384 . S
H276 C278 0.949 . S
C277 C275 1.384 . S
C277 C278 1.385 . S
C277 H279 0.950 . S
C278 C272 1.404 . S
C278 H276 0.949 . S
C278 C277 1.385 . S
H279 C277 0.950 . S
H280 C264 0.951 . S
H281 C266 0.951 . S
H282 C268 0.951 . S
H283 C269 0.950 . S
H284 C270 0.950 . S
H285 C271 0.950 1_455 S
H286 C273 0.950 . S
H287 C274 0.951 . S
C288 C289 1.386 . S
C288 C290 1.383 . S
C288 H304 0.951 . S
C289 C288 1.386 . S
C289 C293 1.383 . S
C290 C288 1.383 . S
C290 C291 1.402 . S
C290 H305 0.951 1_545 S
C291 C290 1.402 . S
C291 C292 1.375 . S
C291 C294 1.481 . S
C292 C291 1.375 . S
C292 C293 1.367 . S
C292 H306 0.951 . S
C293 C289 1.383 . S
C293 C292 1.367 . S
C293 H307 0.950 . S
C294 C291 1.481 . S
C294 C295 1.297 1_545 S
C294 H308 0.950 . S
C295 C294 1.297 1_565 S
C295 C296 1.479 . S
C295 H309 0.950 . S
C296 C295 1.479 . S
C296 C297 1.375 . S
C296 C302 1.404 . S
C297 C296 1.375 . S
C297 C298 1.369 . S
C297 H310 0.950 . S
C298 C297 1.369 . S
C298 C299 1.392 . S
C298 H311 0.951 . S
C299 C298 1.392 . S
C299 C301 1.384 . S
H300 C302 0.949 1_545 S
C301 C299 1.384 . S
C301 C302 1.385 . S
C301 H303 0.950 . S
C302 C296 1.404 . S
C302 H300 0.949 1_565 S
C302 C301 1.385 . S
H303 C301 0.950 . S
H304 C288 0.951 . S
H305 C290 0.951 1_565 S
H306 C292 0.951 . S
H307 C293 0.950 . S
H308 C294 0.950 . S
H309 C295 0.950 . S
H310 C297 0.950 . S
H311 C298 0.951 . S
C312 C313 1.386 . S
C312 C314 1.383 . S
C312 H328 0.951 . S
C313 C312 1.386 . S
C313 C317 1.383 . S
C314 C312 1.383 . S
C314 C315 1.402 . S
C314 H329 0.951 . S
C315 C314 1.402 . S
C315 C316 1.375 . S
C315 C318 1.481 . S
C316 C315 1.375 . S
C316 C317 1.367 . S
C316 H330 0.951 . S
C317 C313 1.383 . S
C317 C316 1.367 . S
C317 H331 0.950 . S
C318 C315 1.481 . S
C318 C319 1.297 . S
C318 H332 0.950 . S
C319 C318 1.297 . S
C319 C320 1.479 . S
C319 H333 0.950 1_556 S
C320 C319 1.479 . S
C320 C321 1.375 1_556 S
C320 C326 1.404 . S
C321 C320 1.375 1_554 S
C321 C322 1.369 . S
C321 H334 0.950 . S
C322 C321 1.369 . S
C322 C323 1.392 . S
C322 H335 0.951 . S
C323 C322 1.392 . S
C323 C325 1.384 1_554 S
H324 C326 0.949 . S
C325 C323 1.384 1_556 S
C325 C326 1.385 . S
C325 H327 0.950 . S
C326 C320 1.404 . S
C326 H324 0.949 . S
C326 C325 1.385 . S
H327 C325 0.950 . S
H328 C312 0.951 . S
H329 C314 0.951 . S
H330 C316 0.951 . S
H331 C317 0.950 . S
H332 C318 0.950 . S
H333 C319 0.950 1_554 S
H334 C321 0.950 . S
H335 C322 0.951 . S
C336 C337 1.386 . S
C336 C338 1.383 . S
C336 H352 0.951 . S
C337 C336 1.386 . S
C337 C341 1.383 . S
C338 C336 1.383 . S
C338 C339 1.402 . S
C338 H353 0.951 . S
C339 C338 1.402 . S
C339 C340 1.375 . S
C339 C342 1.481 1_455 S
C340 C339 1.375 . S
C340 C341 1.367 . S
C340 H354 0.951 1_455 S
C341 C337 1.383 . S
C341 C340 1.367 . S
C341 H355 0.950 . S
C342 C339 1.481 1_655 S
C342 C343 1.297 1_655 S
C342 H356 0.950 . S
C343 C342 1.297 1_455 S
C343 C344 1.479 1_455 S
C343 H357 0.950 . S
C344 C343 1.479 1_655 S
C344 C345 1.375 . S
C344 C350 1.404 . S
C345 C344 1.375 . S
C345 C346 1.369 . S
C345 H358 0.950 1_655 S
C346 C345 1.369 . S
C346 C347 1.392 . S
C346 H359 0.951 . S
C347 C346 1.392 . S
C347 C349 1.384 . S
H348 C350 0.949 . S
C349 C347 1.384 . S
C349 C350 1.385 . S
C349 H351 0.950 . S
C350 C344 1.404 . S
C350 H348 0.949 . S
C350 C349 1.385 . S
H351 C349 0.950 . S
H352 C336 0.951 . S
H353 C338 0.951 . S
H354 C340 0.951 1_655 S
H355 C341 0.950 . S
H356 C342 0.950 . S
H357 C343 0.950 . S
H358 C345 0.950 1_455 S
H359 C346 0.951 . S
C360 C361 1.386 . S
C360 C362 1.383 . S
C360 H376 0.951 . S
C361 C360 1.386 . S
C361 C365 1.383 . S
C362 C360 1.383 . S
C362 C363 1.402 . S
C362 H377 0.951 . S
C363 C362 1.402 . S
C363 C364 1.375 . S
C363 C366 1.481 . S
C364 C363 1.375 . S
C364 C365 1.367 . S
C364 H378 0.951 . S
C365 C361 1.383 . S
C365 C364 1.367 . S
C365 H379 0.950 . S
C366 C363 1.481 . S
C366 C367 1.297 1_545 S
C366 H380 0.950 1_545 S
C367 C366 1.297 1_565 S
C367 C368 1.479 . S
C367 H381 0.950 . S
C368 C367 1.479 . S
C368 C369 1.375 . S
C368 C374 1.404 . S
C369 C368 1.375 . S
C369 C370 1.369 . S
C369 H382 0.950 . S
C370 C369 1.369 . S
C370 C371 1.392 . S
C370 H383 0.951 . S
C371 C370 1.392 . S
C371 C373 1.384 . S
H372 C374 0.949 . S
C373 C371 1.384 . S
C373 C374 1.385 . S
C373 H375 0.950 . S
C374 C368 1.404 . S
C374 H372 0.949 . S
C374 C373 1.385 . S
H375 C373 0.950 . S
H376 C360 0.951 . S
H377 C362 0.951 . S
H378 C364 0.951 . S
H379 C365 0.950 . S
H380 C366 0.950 1_565 S
H381 C367 0.950 . S
H382 C369 0.950 . S
H383 C370 0.951 . S
C384 C385 1.386 . S
C384 C386 1.383 . S
C384 H400 0.951 . S
C385 C384 1.386 . S
C385 C389 1.383 . S
C386 C384 1.383 . S
C386 C387 1.402 . S
C386 H401 0.951 . S
C387 C386 1.402 . S
C387 C388 1.375 . S
C387 C390 1.481 . S
C388 C387 1.375 . S
C388 C389 1.367 . S
C388 H402 0.951 . S
C389 C385 1.383 . S
C389 C388 1.367 . S
C389 H403 0.950 . S
C390 C387 1.481 . S
C390 C391 1.297 . S
C390 H404 0.950 . S
C391 C390 1.297 . S
C391 C392 1.479 . S
C391 H405 0.950 . S
C392 C391 1.479 . S
C392 C393 1.375 . S
C392 C398 1.404 . S
C393 C392 1.375 . S
C393 C394 1.369 . S
C393 H406 0.950 . S
C394 C393 1.369 . S
C394 C395 1.392 . S
C394 H407 0.951 . S
C395 C394 1.392 . S
C395 C397 1.384 . S
H396 C398 0.949 . S
C397 C395 1.384 . S
C397 C398 1.385 . S
C397 H399 0.950 . S
C398 C392 1.404 . S
C398 H396 0.949 . S
C398 C397 1.385 . S
H399 C397 0.950 . S
H400 C384 0.951 . S
H401 C386 0.951 . S
H402 C388 0.951 . S
H403 C389 0.950 . S
H404 C390 0.950 . S
H405 C391 0.950 . S
H406 C393 0.950 . S
H407 C394 0.951 . S
C408 C409 1.386 1_556 S
C408 C410 1.383 . S
C408 H424 0.951 . S
C409 C408 1.386 1_554 S
C409 C413 1.383 . S
C410 C408 1.383 . S
C410 C411 1.402 . S
C410 H425 0.951 . S
C411 C410 1.402 . S
C411 C412 1.375 . S
C411 C414 1.481 . S
C412 C411 1.375 . S
C412 C413 1.367 1_556 S
C412 H426 0.951 . S
C413 C409 1.383 . S
C413 C412 1.367 1_554 S
C413 H427 0.950 . S
C414 C411 1.481 . S
C414 C415 1.297 . S
C414 H428 0.950 . S
C415 C414 1.297 . S
C415 C416 1.479 . S
C415 H429 0.950 . S
C416 C415 1.479 . S
C416 C417 1.375 . S
C416 C422 1.404 . S
C417 C416 1.375 . S
C417 C418 1.369 . S
C417 H430 0.950 . S
C418 C417 1.369 . S
C418 C419 1.392 . S
C418 H431 0.951 . S
C419 C418 1.392 . S
C419 C421 1.384 . S
H420 C422 0.949 . S
C421 C419 1.384 . S
C421 C422 1.385 . S
C421 H423 0.950 . S
C422 C416 1.404 . S
C422 H420 0.949 . S
C422 C421 1.385 . S
H423 C421 0.950 . S
H424 C408 0.951 . S
H425 C410 0.951 . S
H426 C412 0.951 . S
H427 C413 0.950 . S
H428 C414 0.950 . S
H429 C415 0.950 . S
H430 C417 0.950 . S
H431 C418 0.951 . S
C432 C433 1.386 . S
C432 C434 1.383 . S
C432 H448 0.951 . S
C433 C432 1.386 . S
C433 C437 1.383 . S
C434 C432 1.383 . S
C434 C435 1.402 . S
C434 H449 0.951 . S
C435 C434 1.402 . S
C435 C436 1.375 . S
C435 C438 1.481 . S
C436 C435 1.375 . S
C436 C437 1.367 . S
C436 H450 0.951 . S
C437 C433 1.383 . S
C437 C436 1.367 . S
C437 H451 0.950 . S
C438 C435 1.481 . S
C438 C439 1.297 . S
C438 H452 0.950 . S
C439 C438 1.297 . S
C439 C440 1.479 . S
C439 H453 0.950 . S
C440 C439 1.479 . S
C440 C441 1.375 . S
C440 C446 1.404 . S
C441 C440 1.375 . S
C441 C442 1.369 . S
C441 H454 0.950 . S
C442 C441 1.369 . S
C442 C443 1.392 . S
C442 H455 0.951 . S
C443 C442 1.392 . S
C443 C445 1.384 . S
H444 C446 0.949 . S
C445 C443 1.384 . S
C445 C446 1.385 . S
C445 H447 0.950 . S
C446 C440 1.404 . S
C446 H444 0.949 . S
C446 C445 1.385 . S
H447 C445 0.950 . S
H448 C432 0.951 . S
H449 C434 0.951 . S
H450 C436 0.951 . S
H451 C437 0.950 . S
H452 C438 0.950 . S
H453 C439 0.950 . S
H454 C441 0.950 . S
H455 C442 0.951 . S
C456 C457 1.386 . S
C456 C458 1.383 . S
C456 H472 0.951 . S
C457 C456 1.386 . S
C457 C461 1.383 . S
C458 C456 1.383 . S
C458 C459 1.402 . S
C458 H473 0.951 . S
C459 C458 1.402 . S
C459 C460 1.375 . S
C459 C462 1.481 . S
C460 C459 1.375 . S
C460 C461 1.367 . S
C460 H474 0.951 . S
C461 C457 1.383 . S
C461 C460 1.367 . S
C461 H475 0.950 . S
C462 C459 1.481 . S
C462 C463 1.297 . S
C462 H476 0.950 . S
C463 C462 1.297 . S
C463 C464 1.479 . S
C463 H477 0.950 . S
C464 C463 1.479 . S
C464 C465 1.375 . S
C464 C470 1.404 . S
C465 C464 1.375 . S
C465 C466 1.369 . S
C465 H478 0.950 . S
C466 C465 1.369 . S
C466 C467 1.392 . S
C466 H479 0.951 . S
C467 C466 1.392 . S
C467 C469 1.384 . S
H468 C470 0.949 . S
C469 C467 1.384 . S
C469 C470 1.385 . S
C469 H471 0.950 . S
C470 C464 1.404 . S
C470 H468 0.949 . S
C470 C469 1.385 . S
H471 C469 0.950 . S
H472 C456 0.951 . S
H473 C458 0.951 . S
H474 C460 0.951 . S
H475 C461 0.950 . S
H476 C462 0.950 . S
H477 C463 0.950 . S
H478 C465 0.950 . S
H479 C466 0.951 . S
C480 C481 1.386 . S
C480 C482 1.383 . S
C480 H496 0.951 . S
C481 C480 1.386 . S
C481 C485 1.383 . S
C482 C480 1.383 . S
C482 C483 1.402 . S
C482 H497 0.951 . S
C483 C482 1.402 . S
C483 C484 1.375 . S
C483 C486 1.481 1_556 S
C484 C483 1.375 . S
C484 C485 1.367 . S
C484 H498 0.951 . S
C485 C481 1.383 . S
C485 C484 1.367 . S
C485 H499 0.950 . S
C486 C483 1.481 1_554 S
C486 C487 1.297 . S
C486 H500 0.950 . S
C487 C486 1.297 . S
C487 C488 1.479 . S
C487 H501 0.950 . S
C488 C487 1.479 . S
C488 C489 1.375 . S
C488 C494 1.404 . S
C489 C488 1.375 . S
C489 C490 1.369 . S
C489 H502 0.950 . S
C490 C489 1.369 . S
C490 C491 1.392 . S
C490 H503 0.951 . S
C491 C490 1.392 . S
C491 C493 1.384 . S
H492 C494 0.949 . S
C493 C491 1.384 . S
C493 C494 1.385 . S
C493 H495 0.950 . S
C494 C488 1.404 . S
C494 H492 0.949 . S
C494 C493 1.385 . S
H495 C493 0.950 . S
H496 C480 0.951 . S
H497 C482 0.951 . S
H498 C484 0.951 . S
H499 C485 0.950 . S
H500 C486 0.950 . S
H501 C487 0.950 . S
H502 C489 0.950 . S
H503 C490 0.951 . S
C504 C505 1.386 . S
C504 C506 1.383 . S
C504 H520 0.951 . S
C505 C504 1.386 . S
C505 C509 1.383 . S
C506 C504 1.383 . S
C506 C507 1.402 . S
C506 H521 0.951 . S
C507 C506 1.402 . S
C507 C508 1.375 . S
C507 C510 1.481 . S
C508 C507 1.375 . S
C508 C509 1.367 . S
C508 H522 0.951 . S
C509 C505 1.383 . S
C509 C508 1.367 . S
C509 H523 0.950 . S
C510 C507 1.481 . S
C510 C511 1.297 . S
C510 H524 0.950 . S
C511 C510 1.297 . S
C511 C512 1.479 . S
C511 H525 0.950 . S
C512 C511 1.479 . S
C512 C513 1.375 . S
C512 C518 1.404 . S
C513 C512 1.375 . S
C513 C514 1.369 . S
C513 H526 0.950 . S
C514 C513 1.369 . S
C514 C515 1.392 . S
C514 H527 0.951 . S
C515 C514 1.392 . S
C515 C517 1.384 . S
H516 C518 0.949 . S
C517 C515 1.384 . S
C517 C518 1.385 . S
C517 H519 0.950 . S
C518 C512 1.404 . S
C518 H516 0.949 . S
C518 C517 1.385 . S
H519 C517 0.950 . S
H520 C504 0.951 . S
H521 C506 0.951 . S
H522 C508 0.951 . S
H523 C509 0.950 . S
H524 C510 0.950 . S
H525 C511 0.950 . S
H526 C513 0.950 . S
H527 C514 0.951 . S
C528 C529 1.386 . S
C528 C530 1.383 . S
C528 H544 0.951 . S
C529 C528 1.386 . S
C529 C533 1.383 . S
C530 C528 1.383 . S
C530 C531 1.402 . S
C530 H545 0.951 . S
C531 C530 1.402 . S
C531 C532 1.375 . S
C531 C534 1.481 . S
C532 C531 1.375 . S
C532 C533 1.367 . S
C532 H546 0.951 . S
C533 C529 1.383 . S
C533 C532 1.367 . S
C533 H547 0.950 . S
C534 C531 1.481 . S
C534 C535 1.297 . S
C534 H548 0.950 . S
C535 C534 1.297 . S
C535 C536 1.479 . S
C535 H549 0.950 . S
C536 C535 1.479 . S
C536 C537 1.375 . S
C536 C542 1.404 . S
C537 C536 1.375 . S
C537 C538 1.369 . S
C537 H550 0.950 . S
C538 C537 1.369 . S
C538 C539 1.392 . S
C538 H551 0.951 . S
C539 C538 1.392 . S
C539 C541 1.384 . S
H540 C542 0.949 . S
C541 C539 1.384 . S
C541 C542 1.385 . S
C541 H543 0.950 . S
C542 C536 1.404 . S
C542 H540 0.949 . S
C542 C541 1.385 . S
H543 C541 0.950 . S
H544 C528 0.951 . S
H545 C530 0.951 . S
H546 C532 0.951 . S
H547 C533 0.950 . S
H548 C534 0.950 . S
H549 C535 0.950 . S
H550 C537 0.950 . S
H551 C538 0.951 . S
C552 C553 1.386 . S
C552 C554 1.383 . S
C552 H568 0.951 . S
C553 C552 1.386 . S
C553 C557 1.383 . S
C554 C552 1.383 . S
C554 C555 1.402 . S
C554 H569 0.951 . S
C555 C554 1.402 . S
C555 C556 1.375 . S
C555 C558 1.481 . S
C556 C555 1.375 . S
C556 C557 1.367 . S
C556 H570 0.951 . S
C557 C553 1.383 . S
C557 C556 1.367 . S
C557 H571 0.950 . S
C558 C555 1.481 . S
C558 C559 1.297 . S
C558 H572 0.950 . S
C559 C558 1.297 . S
C559 C560 1.479 . S
C559 H573 0.950 . S
C560 C559 1.479 . S
C560 C561 1.375 . S
C560 C566 1.404 . S
C561 C560 1.375 . S
C561 C562 1.369 . S
C561 H574 0.950 . S
C562 C561 1.369 . S
C562 C563 1.392 . S
C562 H575 0.951 . S
C563 C562 1.392 . S
C563 C565 1.384 . S
H564 C566 0.949 . S
C565 C563 1.384 . S
C565 C566 1.385 . S
C565 H567 0.950 . S
C566 C560 1.404 . S
C566 H564 0.949 . S
C566 C565 1.385 . S
H567 C565 0.950 . S
H568 C552 0.951 . S
H569 C554 0.951 . S
H570 C556 0.951 . S
H571 C557 0.950 . S
H572 C558 0.950 . S
H573 C559 0.950 . S
H574 C561 0.950 . S
H575 C562 0.951 . S
C576 C577 1.386 . S
C576 C578 1.383 . S
C576 H592 0.951 . S
C577 C576 1.386 . S
C577 C581 1.383 . S
C578 C576 1.383 . S
C578 C579 1.402 . S
C578 H593 0.951 . S
C579 C578 1.402 . S
C579 C580 1.375 . S
C579 C582 1.481 . S
C580 C579 1.375 . S
C580 C581 1.367 . S
C580 H594 0.951 . S
C581 C577 1.383 . S
C581 C580 1.367 . S
C581 H595 0.950 . S
C582 C579 1.481 . S
C582 C583 1.297 . S
C582 H596 0.950 . S
C583 C582 1.297 . S
C583 C584 1.479 . S
C583 H597 0.950 . S
C584 C583 1.479 . S
C584 C585 1.375 1_554 S
C584 C590 1.404 . S
C585 C584 1.375 1_556 S
C585 C586 1.369 . S
C585 H598 0.950 . S
C586 C585 1.369 . S
C586 C587 1.392 . S
C586 H599 0.951 . S
C587 C586 1.392 . S
C587 C589 1.384 1_556 S
H588 C590 0.949 . S
C589 C587 1.384 1_554 S
C589 C590 1.385 . S
C589 H591 0.950 . S
C590 C584 1.404 . S
C590 H588 0.949 . S
C590 C589 1.385 . S
H591 C589 0.950 . S
H592 C576 0.951 . S
H593 C578 0.951 . S
H594 C580 0.951 . S
H595 C581 0.950 . S
H596 C582 0.950 . S
H597 C583 0.950 . S
H598 C585 0.950 . S
H599 C586 0.951 . S
C600 C601 1.386 . S
C600 C602 1.383 . S
C600 H616 0.951 . S
C601 C600 1.386 . S
C601 C605 1.383 . S
C602 C600 1.383 . S
C602 C603 1.402 . S
C602 H617 0.951 . S
C603 C602 1.402 . S
C603 C604 1.375 . S
C603 C606 1.481 . S
C604 C603 1.375 . S
C604 C605 1.367 . S
C604 H618 0.951 . S
C605 C601 1.383 . S
C605 C604 1.367 . S
C605 H619 0.950 . S
C606 C603 1.481 . S
C606 C607 1.297 . S
C606 H620 0.950 . S
C607 C606 1.297 . S
C607 C608 1.479 . S
C607 H621 0.950 . S
C608 C607 1.479 . S
C608 C609 1.375 . S
C608 C614 1.404 . S
C609 C608 1.375 . S
C609 C610 1.369 . S
C609 H622 0.950 . S
C610 C609 1.369 . S
C610 C611 1.392 . S
C610 H623 0.951 . S
C611 C610 1.392 . S
C611 C613 1.384 . S
H612 C614 0.949 . S
C613 C611 1.384 . S
C613 C614 1.385 . S
C613 H615 0.950 . S
C614 C608 1.404 . S
C614 H612 0.949 . S
C614 C613 1.385 . S
H615 C613 0.950 . S
H616 C600 0.951 . S
H617 C602 0.951 . S
H618 C604 0.951 . S
H619 C605 0.950 . S
H620 C606 0.950 . S
H621 C607 0.950 . S
H622 C609 0.950 . S
H623 C610 0.951 . S
C624 C625 1.386 . S
C624 C626 1.383 . S
C624 H640 0.951 . S
C625 C624 1.386 . S
C625 C629 1.383 . S
C626 C624 1.383 . S
C626 C627 1.402 . S
C626 H641 0.951 . S
C627 C626 1.402 . S
C627 C628 1.375 . S
C627 C630 1.481 . S
C628 C627 1.375 . S
C628 C629 1.367 . S
C628 H642 0.951 . S
C629 C625 1.383 . S
C629 C628 1.367 . S
C629 H643 0.950 . S
C630 C627 1.481 . S
C630 C631 1.297 . S
C630 H644 0.950 . S
C631 C630 1.297 . S
C631 C632 1.479 . S
C631 H645 0.950 . S
C632 C631 1.479 . S
C632 C633 1.375 . S
C632 C638 1.404 . S
C633 C632 1.375 . S
C633 C634 1.369 . S
C633 H646 0.950 . S
C634 C633 1.369 . S
C634 C635 1.392 . S
C634 H647 0.951 . S
C635 C634 1.392 . S
C635 C637 1.384 . S
H636 C638 0.949 . S
C637 C635 1.384 . S
C637 C638 1.385 . S
C637 H639 0.950 . S
C638 C632 1.404 . S
C638 H636 0.949 . S
C638 C637 1.385 . S
H639 C637 0.950 . S
H640 C624 0.951 . S
H641 C626 0.951 . S
H642 C628 0.951 . S
H643 C629 0.950 . S
H644 C630 0.950 . S
H645 C631 0.950 . S
H646 C633 0.950 . S
H647 C634 0.951 . S
C648 C649 1.386 . S
C648 C650 1.383 . S
C648 H664 0.951 . S
C649 C648 1.386 . S
C649 C653 1.383 . S
C650 C648 1.383 . S
C650 C651 1.402 . S
C650 H665 0.951 . S
C651 C650 1.402 . S
C651 C652 1.375 . S
C651 C654 1.481 . S
C652 C651 1.375 . S
C652 C653 1.367 . S
C652 H666 0.951 . S
C653 C649 1.383 . S
C653 C652 1.367 . S
C653 H667 0.950 . S
C654 C651 1.481 . S
C654 C655 1.297 . S
C654 H668 0.950 . S
C655 C654 1.297 . S
C655 C656 1.479 . S
C655 H669 0.950 . S
C656 C655 1.479 . S
C656 C657 1.375 . S
C656 C662 1.404 . S
C657 C656 1.375 . S
C657 C658 1.369 . S
C657 H670 0.950 . S
C658 C657 1.369 . S
C658 C659 1.392 . S
C658 H671 0.951 . S
C659 C658 1.392 . S
C659 C661 1.384 . S
H660 C662 0.949 . S
C661 C659 1.384 . S
C661 C662 1.385 . S
C661 H663 0.950 . S
C662 C656 1.404 . S
C662 H660 0.949 . S
C662 C661 1.385 . S
H663 C661 0.950 . S
H664 C648 0.951 . S
H665 C650 0.951 . S
H666 C652 0.951 . S
H667 C653 0.950 . S
H668 C654 0.950 . S
H669 C655 0.950 . S
H670 C657 0.950 . S
H671 C658 0.951 . S
C241 C210 1.688 . S
C251 C10 1.679 . S
C265 C9 1.358 . S
C275 C49 1.322 . S
C289 C50 1.686 . S
C299 C90 1.688 . S
C313 C89 1.337 . S
C323 C129 1.303 . S
C337 C170 1.707 . S
C347 C130 1.698 . S
C361 C209 1.379 . S
C371 C169 1.392 . S
C385 C6 1.094 . S
C395 C15 1.155 . S
C409 C55 1.103 . S
C419 C46 1.114 . S
C433 C86 1.128 . S
C443 C95 1.168 . S
C457 C135 1.107 . S
C467 C126 1.105 . S
C481 C175 1.094 . S
C491 C166 1.156 . S
C505 C215 1.094 . S
C515 C206 1.159 . S
C529 C19 1.798 . S
C539 C178 1.804 . S
C553 C58 1.815 . S
C563 C219 1.759 . S
C577 C18 1.814 . S
C587 C99 1.755 . S
C601 C59 1.794 . S
C611 C138 1.803 . S
C625 C179 1.794 . S
C635 C98 1.808 . S
C649 C139 1.805 . S
C659 C218 1.806 . S
