# Generated by pormake.
# Topology irl, (4)-cn, num edge types: 1
# Building blocks:
#     Node 0, Type 0, BuildingBlock: TATPOV_clean_sbu_0, # of connection points: 4
#     Node 1, Type 0, BuildingBlock: TATPOV_clean_sbu_0, # of connection points: 4
#     Node 2, Type 0, BuildingBlock: TATPOV_clean_sbu_0, # of connection points: 4
#     Node 3, Type 0, BuildingBlock: TATPOV_clean_sbu_0, # of connection points: 4
#     Node 4, Type 0, BuildingBlock: TATPOV_clean_sbu_0, # of connection points: 4
#     Node 5, Type 0, BuildingBlock: TATPOV_clean_sbu_0, # of connection points: 4
#     Node 6, Type 0, BuildingBlock: TATPOV_clean_sbu_0, # of connection points: 4
#     Node 7, Type 0, BuildingBlock: TATPOV_clean_sbu_0, # of connection points: 4
#     Edge 8, Type (0, 0), BuildingBlock: OJICUG_clean_linker_0, # of connection points: 2
#     Edge 9, Type (0, 0), BuildingBlock: OJICUG_clean_linker_0, # of connection points: 2
#     Edge 10, Type (0, 0), BuildingBlock: OJICUG_clean_linker_0, # of connection points: 2
#     Edge 11, Type (0, 0), BuildingBlock: OJICUG_clean_linker_0, # of connection points: 2
#     Edge 12, Type (0, 0), BuildingBlock: OJICUG_clean_linker_0, # of connection points: 2
#     Edge 13, Type (0, 0), BuildingBlock: OJICUG_clean_linker_0, # of connection points: 2
#     Edge 14, Type (0, 0), BuildingBlock: OJICUG_clean_linker_0, # of connection points: 2
#     Edge 15, Type (0, 0), BuildingBlock: OJICUG_clean_linker_0, # of connection points: 2
#     Edge 16, Type (0, 0), BuildingBlock: OJICUG_clean_linker_0, # of connection points: 2
#     Edge 17, Type (0, 0), BuildingBlock: OJICUG_clean_linker_0, # of connection points: 2
#     Edge 18, Type (0, 0), BuildingBlock: OJICUG_clean_linker_0, # of connection points: 2
#     Edge 19, Type (0, 0), BuildingBlock: OJICUG_clean_linker_0, # of connection points: 2
#     Edge 20, Type (0, 0), BuildingBlock: OJICUG_clean_linker_0, # of connection points: 2
#     Edge 21, Type (0, 0), BuildingBlock: OJICUG_clean_linker_0, # of connection points: 2
#     Edge 22, Type (0, 0), BuildingBlock: OJICUG_clean_linker_0, # of connection points: 2
#     Edge 23, Type (0, 0), BuildingBlock: OJICUG_clean_linker_0, # of connection points: 2
# Relax obj value: 0.139
# Max RMSD: 0.159
# Mean RMSD: 0.159
data_MOF--net-irl--node1-TATPOV_clean_sbu_0--edge1-OJICUG_clean_linker_0
_symmetry_space_group_name_H-M    P1
_symmetry_Int_Tables_number       1
_symmetry_cell_setting            triclinic
loop_
_symmetry_equiv_pos_as_xyz
'x, y, z'
_cell_length_a     28.531848
_cell_length_b     21.219194
_cell_length_c     20.766095
_cell_angle_alpha  90.02243
_cell_angle_beta   89.995929
_cell_angle_gamma 89.99634
loop_
_atom_site_label
_atom_site_type_symbol
_atom_site_fract_x
_atom_site_fract_y
_atom_site_fract_z
_atom_type_partial_charge
Zn0 Zn 0.99289 0.27912 -0.00427 0.0
Zn1 Zn 0.08829 0.27702 -0.00427 0.0
O2 O 0.07043 0.32171 0.91139 0.0
O3 O 0.99341 0.32633 0.91082 0.0
O4 O 0.15926 0.27761 -0.00419 0.0
O5 O 0.99379 0.32356 0.08222 0.0
O6 O 0.07082 0.31837 0.08198 0.0
C7 C 1.03231 0.33732 0.88363 0.0
C8 C 1.03363 0.15318 -0.00671 0.0
O9 O 0.07227 0.18325 -0.00616 0.0
O10 O 0.99505 0.18292 -0.00605 0.0
C11 C 0.18219 0.26796 0.9442 0.0
O12 O 0.15918 0.25802 0.89034 0.0
C13 C 1.03265 0.33334 0.11003 0.0
Zn14 Zn 0.07455 0.75422 -0.00686 0.0
Zn15 Zn 0.97915 0.75634 -0.00691 0.0
O16 O 0.99707 0.71182 0.90863 0.0
O17 O 0.07409 0.70726 0.90805 0.0
O18 O 0.90818 0.75578 -0.00693 0.0
O19 O 0.07357 0.70953 0.07946 0.0
O20 O 0.99654 0.71479 0.07922 0.0
C21 C 0.03519 0.69627 0.88083 0.0
C22 C 0.03383 0.88018 -0.00851 0.0
O23 O 0.99519 0.85011 -0.00823 0.0
O24 O 0.0724 0.85043 -0.00807 0.0
C25 C 0.88526 0.76545 0.94147 0.0
O26 O 0.90827 0.7754 0.88761 0.0
C27 C 0.0347 0.69975 0.10724 0.0
Zn28 Zn 0.99289 0.7542 0.49557 0.0
Zn29 Zn 0.08828 0.7563 0.49555 0.0
O30 O 0.07042 0.71161 0.57989 0.0
O31 O 0.99341 0.70699 0.58048 0.0
O32 O 0.15925 0.75571 0.49549 0.0
O33 O 0.9938 0.70976 0.40907 0.0
O34 O 0.07083 0.71494 0.40931 0.0
C35 C 1.03231 0.696 0.60766 0.0
C36 C 1.03361 0.88013 0.498 0.0
O37 O 0.07225 0.85005 0.49744 0.0
O38 O 0.99504 0.8504 0.49735 0.0
C39 C 0.18216 0.76546 0.5471 0.0
O40 O 0.15912 0.7755 0.60092 0.0
C41 C 1.03266 0.69997 0.38127 0.0
Zn42 Zn 0.07454 0.27908 0.49814 0.0
Zn43 Zn 0.97914 0.27698 0.49822 0.0
O44 O 0.99707 0.3215 0.58268 0.0
O45 O 0.07408 0.32604 0.58323 0.0
O46 O 0.90817 0.27756 0.49826 0.0
O47 O 0.07355 0.32378 0.41182 0.0
O48 O 0.99653 0.31853 0.41209 0.0
C49 C 0.03519 0.33704 0.61046 0.0
C50 C 0.03382 0.15314 0.4998 0.0
O51 O 0.99518 0.18322 0.49953 0.0
O52 O 0.07239 0.18288 0.49935 0.0
C53 C 0.88525 0.26789 0.54987 0.0
O54 O 0.90827 0.25793 0.60371 0.0
C55 C 0.03468 0.33356 0.38405 0.0
Zn56 Zn 0.49291 0.77914 -0.00658 0.0
Zn57 Zn 0.5883 0.77702 -0.00669 0.0
O58 O 0.57035 0.82155 0.9089 0.0
O59 O 0.49333 0.82611 0.90837 0.0
O60 O 0.65928 0.77761 -0.00678 0.0
O61 O 0.49391 0.82381 0.07978 0.0
O62 O 0.57094 0.81854 0.07949 0.0
C63 C 0.53222 0.83711 0.88114 0.0
C64 C 0.53363 0.65318 -0.00838 0.0
O65 O 0.57228 0.68326 -0.00809 0.0
O66 O 0.49506 0.68293 -0.00788 0.0
C67 C 0.68218 0.76797 0.94158 0.0
O68 O 0.65914 0.75804 0.88774 0.0
C69 C 0.53278 0.83358 0.10755 0.0
Zn70 Zn 0.57456 0.25424 -0.00442 0.0
Zn71 Zn 0.47917 0.25635 -0.00437 0.0
O72 O 0.497 0.21164 0.91126 0.0
O73 O 0.57402 0.20701 0.91065 0.0
O74 O 0.4082 0.25578 -0.00425 0.0
O75 O 0.57367 0.20982 0.08206 0.0
O76 O 0.49664 0.215 0.08184 0.0
C77 C 0.53511 0.19601 0.88347 0.0
C78 C 0.53384 0.38018 -0.00677 0.0
O79 O 0.4952 0.35011 -0.00621 0.0
O80 O 0.57241 0.35044 -0.00615 0.0
C81 C 0.38527 0.26553 0.94417 0.0
O82 O 0.40828 0.27556 0.89033 0.0
C83 C 0.53481 0.20003 0.10986 0.0
Zn84 Zn 0.4929 0.2542 0.49804 0.0
Zn85 Zn 0.5883 0.2563 0.49813 0.0
O86 O 0.57035 0.21177 0.58254 0.0
O87 O 0.49334 0.20723 0.58309 0.0
O88 O 0.65927 0.25572 0.49819 0.0
O89 O 0.4939 0.20952 0.41167 0.0
O90 O 0.57093 0.21478 0.41195 0.0
C91 C 0.53223 0.19622 0.61031 0.0
C92 C 0.53362 0.38014 0.49983 0.0
O93 O 0.57226 0.35007 0.49953 0.0
O94 O 0.49505 0.35041 0.49935 0.0
C95 C 0.68217 0.26536 0.54982 0.0
O96 O 0.65914 0.27529 0.60367 0.0
C97 C 0.53277 0.19975 0.3839 0.0
Zn98 Zn 0.57455 0.77908 0.49586 0.0
Zn99 Zn 0.47916 0.77699 0.49582 0.0
O100 O 0.49698 0.8217 0.5802 0.0
O101 O 0.574 0.82632 0.58079 0.0
O102 O 0.40818 0.77757 0.49569 0.0
O103 O 0.57367 0.8235 0.40939 0.0
O104 O 0.49664 0.81833 0.40961 0.0
C105 C 0.53509 0.83732 0.60798 0.0
C106 C 0.53383 0.65315 0.49822 0.0
O107 O 0.49519 0.68323 0.49767 0.0
O108 O 0.5724 0.68288 0.4976 0.0
C109 C 0.38523 0.76792 0.54727 0.0
O110 O 0.40822 0.75798 0.60114 0.0
C111 C 0.53481 0.83329 0.38158 0.0
C112 C 0.07618 0.98381 -0.00869 0.0
C113 C 0.03377 0.95003 -0.0088 0.0
H114 H 0.10945 0.07416 -0.00798 0.0
C115 C 0.99132 0.98369 -0.00872 0.0
H116 H 0.10953 0.95942 -0.00879 0.0
C117 C 0.99129 0.04956 -0.00823 0.0
C118 C 1.03369 0.08334 -0.00782 0.0
H119 H 0.95801 0.9592 -0.00884 0.0
H120 H 0.95794 0.07394 -0.008 0.0
C121 C 0.07614 0.04968 -0.00821 0.0
C122 C 0.99127 0.98376 0.49952 0.0
C123 C 1.03368 0.94998 0.49911 0.0
H124 H 0.958 0.07412 0.50014 0.0
C125 C 0.07612 0.98362 0.49949 0.0
H126 H 0.95792 0.95938 0.4993 0.0
C127 C 0.07616 0.04949 0.49997 0.0
C128 C 0.03376 0.08328 0.50009 0.0
H129 H 0.10943 0.95914 0.49926 0.0
H130 H 0.10951 0.07388 0.50006 0.0
C131 C 0.99131 0.04964 0.50001 0.0
C132 C 0.57614 0.54968 -0.00869 0.0
C133 C 0.5337 0.58333 -0.00872 0.0
H134 H 0.60953 0.45942 -0.00806 0.0
C135 C 0.49129 0.54955 -0.00861 0.0
H136 H 0.60946 0.57416 -0.00882 0.0
C137 C 0.49133 0.48368 -0.00818 0.0
C138 C 0.53378 0.45002 -0.00784 0.0
H139 H 0.45794 0.57394 -0.00867 0.0
H140 H 0.45802 0.4592 -0.00795 0.0
C141 C 0.57618 0.4838 -0.00825 0.0
C142 C 0.49128 0.48379 0.50007 0.0
C143 C 0.53368 0.45 0.50018 0.0
H144 H 0.458 0.57414 0.49941 0.0
C145 C 0.57613 0.48365 0.50014 0.0
H146 H 0.45793 0.4594 0.50014 0.0
C147 C 0.57617 0.54952 0.4997 0.0
C148 C 0.53376 0.58331 0.49929 0.0
H149 H 0.60944 0.45916 0.50026 0.0
H150 H 0.60952 0.5739 0.4995 0.0
C151 C 0.49132 0.54966 0.49964 0.0
C152 C 0.99103 0.35504 0.21396 0.0
C153 C 1.03321 0.3514 0.17904 0.0
H154 H 0.95832 0.35314 0.30664 0.0
C155 C 0.07584 0.35499 0.21279 0.0
H156 H 0.95752 0.35321 0.18954 0.0
C157 C 0.07628 0.35521 0.28011 0.0
C158 C 0.0341 0.35157 0.31504 0.0
H159 H 0.10899 0.35314 0.18743 0.0
H160 H 0.1098 0.35348 0.30453 0.0
C161 C 0.99147 0.355 0.28129 0.0
C162 C 0.07585 0.67833 0.2785 0.0
C163 C 1.03322 0.68191 0.31225 0.0
H164 H 0.10982 0.67984 0.18676 0.0
C165 C 0.99104 0.67827 0.27733 0.0
H166 H 0.109 0.68017 0.30385 0.0
C167 C 0.99149 0.67831 0.21001 0.0
C168 C 0.03412 0.68175 0.17625 0.0
H169 H 0.95753 0.6801 0.30175 0.0
H170 H 0.95834 0.68017 0.18466 0.0
C171 C 0.0763 0.67811 0.21118 0.0
C172 C 0.07583 0.67291 0.70975 0.0
C173 C 1.03308 0.67664 0.67629 0.0
H174 H 0.11009 0.67487 0.80126 0.0
C175 C 0.99102 0.67275 0.71145 0.0
H176 H 0.1089 0.67487 0.6842 0.0
C177 C 0.99169 0.67296 0.77876 0.0
C178 C 0.03444 0.67683 0.81222 0.0
H179 H 0.95742 0.67462 0.68724 0.0
H180 H 0.95862 0.67494 0.80431 0.0
C181 C 0.0765 0.6729 0.77707 0.0
C182 C 0.07583 0.36039 0.78153 0.0
C183 C 1.03308 0.35667 0.81501 0.0
H184 H 0.1101 0.35842 0.69001 0.0
C185 C 0.99103 0.36057 0.77986 0.0
H186 H 0.1089 0.35843 0.80707 0.0
C187 C 0.99169 0.36036 0.71254 0.0
C188 C 0.03444 0.35648 0.67907 0.0
H189 H 0.95743 0.35871 0.80407 0.0
H190 H 0.95862 0.35839 0.68701 0.0
C191 C 0.0765 0.36041 0.71421 0.0
C192 C 0.4912 0.85522 0.21152 0.0
C193 C 0.53337 0.85156 0.17659 0.0
H194 H 0.45848 0.85316 0.30419 0.0
C195 C 0.576 0.85494 0.21034 0.0
H196 H 0.45768 0.85353 0.1871 0.0
C197 C 0.57644 0.85497 0.27767 0.0
C198 C 0.53426 0.85135 0.31258 0.0
H199 H 0.60915 0.85307 0.18498 0.0
H200 H 0.60996 0.8531 0.30208 0.0
C201 C 0.49164 0.85499 0.27884 0.0
C202 C 0.57599 0.17837 0.2811 0.0
C203 C 0.53336 0.18177 0.31486 0.0
H204 H 0.60996 0.18021 0.18936 0.0
C205 C 0.49119 0.17812 0.27993 0.0
H206 H 0.60914 0.18024 0.30646 0.0
C207 C 0.49163 0.17836 0.21261 0.0
C208 C 0.53426 0.18197 0.17886 0.0
H209 H 0.45766 0.17982 0.30436 0.0
H210 H 0.45848 0.18019 0.18726 0.0
C211 C 0.57644 0.17834 0.21378 0.0
C212 C 0.49158 0.17294 0.78137 0.0
C213 C 0.53433 0.17663 0.81484 0.0
H214 H 0.45731 0.17491 0.68986 0.0
C215 C 0.57638 0.17269 0.77968 0.0
H216 H 0.45851 0.17494 0.80692 0.0
C217 C 0.57572 0.17288 0.71236 0.0
C218 C 0.53297 0.17679 0.67891 0.0
H219 H 0.60998 0.17454 0.80388 0.0
H220 H 0.60879 0.17483 0.68682 0.0
C221 C 0.49091 0.1729 0.71405 0.0
C222 C 0.4909 0.86042 0.77741 0.0
C223 C 0.53297 0.85654 0.81254 0.0
H224 H 0.45849 0.8584 0.68456 0.0
C225 C 0.5757 0.86044 0.77907 0.0
H226 H 0.45731 0.85843 0.80162 0.0
C227 C 0.57637 0.86064 0.71176 0.0
C228 C 0.53431 0.8567 0.67661 0.0
H229 H 0.60878 0.8585 0.80461 0.0
H230 H 0.60997 0.85879 0.68754 0.0
C231 C 0.49156 0.8604 0.71009 0.0
C232 C 0.30826 0.26613 0.00289 0.0
C233 C 0.33331 0.26597 0.94456 0.0
H234 H 0.24093 0.26745 0.04862 0.0
C235 C 0.30822 0.26659 0.88632 0.0
H236 H 0.32653 0.26583 0.04861 0.0
C237 C 0.25923 0.26704 0.88633 0.0
C238 C 0.23414 0.26754 0.94458 0.0
H239 H 0.32641 0.26637 0.84053 0.0
H240 H 0.24104 0.26736 0.84054 0.0
C241 C 0.2592 0.26725 0.0029 0.0
C242 C 0.7592 0.76696 0.88366 0.0
C243 C 0.73413 0.76752 0.94192 0.0
H244 H 0.82638 0.76622 0.83784 0.0
C245 C 0.7592 0.76727 0.00023 0.0
H246 H 0.741 0.76725 0.83788 0.0
C247 C 0.80826 0.76613 0.0002 0.0
C248 C 0.8333 0.7659 0.94187 0.0
H249 H 0.74094 0.76752 0.04596 0.0
H250 H 0.82654 0.76585 0.04591 0.0
C251 C 0.8082 0.76649 0.88363 0.0
C252 C 0.25919 0.76606 0.48846 0.0
C253 C 0.23411 0.7659 0.54675 0.0
H254 H 0.32655 0.76739 0.44279 0.0
C255 C 0.25917 0.76652 0.60502 0.0
H256 H 0.24095 0.76576 0.44272 0.0
C257 C 0.30816 0.76698 0.60507 0.0
C258 C 0.33328 0.76748 0.54684 0.0
H259 H 0.24095 0.7663 0.65079 0.0
H260 H 0.32633 0.7673 0.65087 0.0
C261 C 0.30825 0.76719 0.4885 0.0
C262 C 0.7592 0.26637 0.60772 0.0
C263 C 0.73413 0.26581 0.54946 0.0
H264 H 0.82638 0.26711 0.65352 0.0
C265 C 0.75919 0.26606 0.49115 0.0
H266 H 0.74101 0.26608 0.6535 0.0
C267 C 0.80825 0.26721 0.49117 0.0
C268 C 0.8333 0.26743 0.54949 0.0
H269 H 0.74093 0.26581 0.44543 0.0
H270 H 0.82653 0.26748 0.44545 0.0
C271 C 0.8082 0.26684 0.60773 0.0
loop_
_geom_bond_atom_site_label_1
_geom_bond_atom_site_label_2
_geom_bond_distance
_geom_bond_site_symmetry_2
_ccdc_geom_bond_type
Zn0 O3 2.031 1_554 S
Zn0 O5 2.049 . S
Zn0 O10 2.067 . S
Zn1 O2 1.962 1_554 S
Zn1 O4 1.986 . S
Zn1 O6 1.996 . S
Zn1 O9 1.943 . S
O2 Zn1 1.962 1_556 S
O2 C7 1.254 . S
O3 Zn0 2.031 1_556 S
O3 C7 1.269 1_655 S
O4 Zn1 1.986 . S
O4 C11 1.262 . S
O5 Zn0 2.049 . S
O5 C13 1.260 1_655 S
O6 Zn1 1.996 . S
O6 C13 1.257 . S
C7 O2 1.254 . S
C7 O3 1.269 1_455 S
C8 O9 1.249 . S
C8 O10 1.270 1_455 S
O9 Zn1 1.943 . S
O9 C8 1.249 . S
O10 Zn0 2.067 . S
O10 C8 1.270 1_655 S
C11 O4 1.262 . S
C11 O12 1.232 1_554 S
O12 C11 1.232 1_556 S
C13 O5 1.260 1_455 S
C13 O6 1.257 . S
Zn14 O17 2.031 1_554 S
Zn14 O19 2.049 . S
Zn14 O24 2.067 . S
Zn15 O16 1.962 1_554 S
Zn15 O18 1.986 . S
Zn15 O20 1.996 . S
Zn15 O23 1.943 . S
O16 Zn15 1.962 1_556 S
O16 C21 1.254 . S
O17 Zn14 2.031 1_556 S
O17 C21 1.269 1_455 S
O18 Zn15 1.986 . S
O18 C25 1.262 . S
O19 Zn14 2.049 . S
O19 C27 1.260 1_455 S
O20 Zn15 1.996 . S
O20 C27 1.257 . S
C21 O16 1.254 . S
C21 O17 1.269 1_655 S
C22 O23 1.249 . S
C22 O24 1.270 1_655 S
O23 Zn15 1.943 . S
O23 C22 1.249 . S
O24 Zn14 2.067 . S
O24 C22 1.270 1_455 S
C25 O18 1.262 . S
C25 O26 1.232 1_554 S
O26 C25 1.232 1_556 S
C27 O19 1.260 1_655 S
C27 O20 1.257 . S
Zn28 O31 2.031 . S
Zn28 O33 2.049 . S
Zn28 O38 2.067 . S
Zn29 O30 1.962 . S
Zn29 O32 1.986 . S
Zn29 O34 1.996 . S
Zn29 O37 1.943 . S
O30 Zn29 1.962 . S
O30 C35 1.254 . S
O31 Zn28 2.031 . S
O31 C35 1.269 1_655 S
O32 Zn29 1.986 . S
O32 C39 1.262 . S
O33 Zn28 2.049 . S
O33 C41 1.260 1_655 S
O34 Zn29 1.996 . S
O34 C41 1.257 . S
C35 O30 1.254 . S
C35 O31 1.269 1_455 S
C36 O37 1.249 . S
C36 O38 1.270 1_455 S
O37 Zn29 1.943 . S
O37 C36 1.249 . S
O38 Zn28 2.067 . S
O38 C36 1.270 1_655 S
C39 O32 1.262 . S
C39 O40 1.232 . S
O40 C39 1.232 . S
C41 O33 1.260 1_455 S
C41 O34 1.257 . S
Zn42 O45 2.031 . S
Zn42 O47 2.049 . S
Zn42 O52 2.067 . S
Zn43 O44 1.962 . S
Zn43 O46 1.986 . S
Zn43 O48 1.996 . S
Zn43 O51 1.943 . S
O44 Zn43 1.962 . S
O44 C49 1.254 . S
O45 Zn42 2.031 . S
O45 C49 1.269 1_455 S
O46 Zn43 1.986 . S
O46 C53 1.262 . S
O47 Zn42 2.049 . S
O47 C55 1.260 1_455 S
O48 Zn43 1.996 . S
O48 C55 1.257 . S
C49 O44 1.254 . S
C49 O45 1.269 1_655 S
C50 O51 1.249 . S
C50 O52 1.270 1_655 S
O51 Zn43 1.943 . S
O51 C50 1.249 . S
O52 Zn42 2.067 . S
O52 C50 1.270 1_455 S
C53 O46 1.262 . S
C53 O54 1.232 . S
O54 C53 1.232 . S
C55 O47 1.260 1_655 S
C55 O48 1.257 . S
Zn56 O59 2.031 1_554 S
Zn56 O61 2.049 . S
Zn56 O66 2.067 . S
Zn57 O58 1.962 1_554 S
Zn57 O60 1.986 . S
Zn57 O62 1.996 . S
Zn57 O65 1.943 . S
O58 Zn57 1.962 1_556 S
O58 C63 1.254 . S
O59 Zn56 2.031 1_556 S
O59 C63 1.269 . S
O60 Zn57 1.986 . S
O60 C67 1.262 . S
O61 Zn56 2.049 . S
O61 C69 1.260 . S
O62 Zn57 1.996 . S
O62 C69 1.257 . S
C63 O58 1.254 . S
C63 O59 1.269 . S
C64 O65 1.249 . S
C64 O66 1.270 . S
O65 Zn57 1.943 . S
O65 C64 1.249 . S
O66 Zn56 2.067 . S
O66 C64 1.270 . S
C67 O60 1.262 . S
C67 O68 1.232 1_554 S
O68 C67 1.232 1_556 S
C69 O61 1.260 . S
C69 O62 1.257 . S
Zn70 O73 2.031 1_554 S
Zn70 O75 2.049 . S
Zn70 O80 2.067 . S
Zn71 O72 1.962 1_554 S
Zn71 O74 1.986 . S
Zn71 O76 1.996 . S
Zn71 O79 1.943 . S
O72 Zn71 1.962 1_556 S
O72 C77 1.254 . S
O73 Zn70 2.031 1_556 S
O73 C77 1.269 . S
O74 Zn71 1.986 . S
O74 C81 1.262 . S
O75 Zn70 2.049 . S
O75 C83 1.260 . S
O76 Zn71 1.996 . S
O76 C83 1.257 . S
C77 O72 1.254 . S
C77 O73 1.269 . S
C78 O79 1.249 . S
C78 O80 1.270 . S
O79 Zn71 1.943 . S
O79 C78 1.249 . S
O80 Zn70 2.067 . S
O80 C78 1.270 . S
C81 O74 1.262 . S
C81 O82 1.232 1_554 S
O82 C81 1.232 1_556 S
C83 O75 1.260 . S
C83 O76 1.257 . S
Zn84 O87 2.031 . S
Zn84 O89 2.049 . S
Zn84 O94 2.067 . S
Zn85 O86 1.962 . S
Zn85 O88 1.986 . S
Zn85 O90 1.996 . S
Zn85 O93 1.943 . S
O86 Zn85 1.962 . S
O86 C91 1.254 . S
O87 Zn84 2.031 . S
O87 C91 1.269 . S
O88 Zn85 1.986 . S
O88 C95 1.262 . S
O89 Zn84 2.049 . S
O89 C97 1.260 . S
O90 Zn85 1.996 . S
O90 C97 1.257 . S
C91 O86 1.254 . S
C91 O87 1.269 . S
C92 O93 1.249 . S
C92 O94 1.270 . S
O93 Zn85 1.943 . S
O93 C92 1.249 . S
O94 Zn84 2.067 . S
O94 C92 1.270 . S
C95 O88 1.262 . S
C95 O96 1.232 . S
O96 C95 1.232 . S
C97 O89 1.260 . S
C97 O90 1.257 . S
Zn98 O101 2.031 . S
Zn98 O103 2.049 . S
Zn98 O108 2.067 . S
Zn99 O100 1.962 . S
Zn99 O102 1.986 . S
Zn99 O104 1.996 . S
Zn99 O107 1.943 . S
O100 Zn99 1.962 . S
O100 C105 1.254 . S
O101 Zn98 2.031 . S
O101 C105 1.269 . S
O102 Zn99 1.986 . S
O102 C109 1.262 . S
O103 Zn98 2.049 . S
O103 C111 1.260 . S
O104 Zn99 1.996 . S
O104 C111 1.257 . S
C105 O100 1.254 . S
C105 O101 1.269 . S
C106 O107 1.249 . S
C106 O108 1.270 . S
O107 Zn99 1.943 . S
O107 C106 1.249 . S
O108 Zn98 2.067 . S
O108 C106 1.270 . S
C109 O102 1.262 . S
C109 O110 1.232 . S
O110 C109 1.232 . S
C111 O103 1.260 . S
C111 O104 1.257 . S
C112 C113 1.387 . S
C112 H116 0.950 . S
C112 C121 1.390 1_665 S
C113 C112 1.387 . S
C113 C115 1.387 1_554 S
H114 C121 0.950 . S
C115 C113 1.387 1_556 S
C115 C117 1.390 1_665 S
C115 H119 0.950 . S
H116 C112 0.950 . S
C117 C115 1.390 1_445 S
C117 C118 1.387 1_556 S
C117 H120 0.950 . S
C118 C117 1.387 1_554 S
C118 C121 1.387 . S
H119 C115 0.950 . S
H120 C117 0.950 . S
C121 C112 1.390 1_445 S
C121 H114 0.950 . S
C121 C118 1.387 . S
C122 C123 1.387 . S
C122 H126 0.950 . S
C122 C131 1.390 1_465 S
C123 C122 1.387 . S
C123 C125 1.387 . S
H124 C131 0.950 . S
C125 C123 1.387 . S
C125 C127 1.390 1_465 S
C125 H129 0.950 . S
H126 C122 0.950 . S
C127 C125 1.390 1_645 S
C127 C128 1.387 . S
C127 H130 0.950 . S
C128 C127 1.387 . S
C128 C131 1.387 . S
H129 C125 0.950 . S
H130 C127 0.950 . S
C131 C122 1.390 1_645 S
C131 H124 0.950 . S
C131 C128 1.387 . S
C132 C133 1.387 1_556 S
C132 H136 0.950 . S
C132 C141 1.390 . S
C133 C132 1.387 1_554 S
C133 C135 1.387 . S
H134 C141 0.950 . S
C135 C133 1.387 . S
C135 C137 1.390 . S
C135 H139 0.950 . S
H136 C132 0.950 . S
C137 C135 1.390 . S
C137 C138 1.387 . S
C137 H140 0.950 . S
C138 C137 1.387 . S
C138 C141 1.387 1_554 S
H139 C135 0.950 . S
H140 C137 0.950 . S
C141 C132 1.390 . S
C141 H134 0.950 . S
C141 C138 1.387 1_556 S
C142 C143 1.387 . S
C142 H146 0.950 . S
C142 C151 1.390 . S
C143 C142 1.387 . S
C143 C145 1.387 . S
H144 C151 0.950 . S
C145 C143 1.387 . S
C145 C147 1.390 . S
C145 H149 0.950 . S
H146 C142 0.950 . S
C147 C145 1.390 . S
C147 C148 1.387 . S
C147 H150 0.950 . S
C148 C147 1.387 . S
C148 C151 1.387 . S
H149 C145 0.950 . S
H150 C147 0.950 . S
C151 C142 1.390 . S
C151 H144 0.950 . S
C151 C148 1.387 . S
C152 C153 1.387 . S
C152 H156 0.950 . S
C152 C161 1.390 1_455 S
C153 C152 1.387 . S
C153 C155 1.387 . S
H154 C161 0.950 . S
C155 C153 1.387 . S
C155 C157 1.390 1_455 S
C155 H159 0.950 . S
H156 C152 0.950 . S
C157 C155 1.390 1_655 S
C157 C158 1.387 . S
C157 H160 0.950 . S
C158 C157 1.387 . S
C158 C161 1.387 . S
H159 C155 0.950 . S
H160 C157 0.950 . S
C161 C152 1.390 1_655 S
C161 H154 0.950 . S
C161 C158 1.387 . S
C162 C163 1.387 . S
C162 H166 0.950 . S
C162 C171 1.390 1_455 S
C163 C162 1.387 . S
C163 C165 1.387 . S
H164 C171 0.950 . S
C165 C163 1.387 . S
C165 C167 1.390 1_455 S
C165 H169 0.950 . S
H166 C162 0.950 . S
C167 C165 1.390 1_655 S
C167 C168 1.387 . S
C167 H170 0.950 . S
C168 C167 1.387 . S
C168 C171 1.387 . S
H169 C165 0.950 . S
H170 C167 0.950 . S
C171 C162 1.390 1_655 S
C171 H164 0.950 . S
C171 C168 1.387 . S
C172 C173 1.387 . S
C172 H176 0.950 . S
C172 C181 1.390 1_455 S
C173 C172 1.387 . S
C173 C175 1.387 . S
H174 C181 0.950 . S
C175 C173 1.387 . S
C175 C177 1.390 1_455 S
C175 H179 0.950 . S
H176 C172 0.950 . S
C177 C175 1.390 1_655 S
C177 C178 1.387 . S
C177 H180 0.950 . S
C178 C177 1.387 . S
C178 C181 1.387 . S
H179 C175 0.950 . S
H180 C177 0.950 . S
C181 C172 1.390 1_655 S
C181 H174 0.950 . S
C181 C178 1.387 . S
C182 C183 1.387 . S
C182 H186 0.950 . S
C182 C191 1.390 1_455 S
C183 C182 1.387 . S
C183 C185 1.387 . S
H184 C191 0.950 . S
C185 C183 1.387 . S
C185 C187 1.390 1_455 S
C185 H189 0.950 . S
H186 C182 0.950 . S
C187 C185 1.390 1_655 S
C187 C188 1.387 . S
C187 H190 0.950 . S
C188 C187 1.387 . S
C188 C191 1.387 . S
H189 C185 0.950 . S
H190 C187 0.950 . S
C191 C182 1.390 1_655 S
C191 H184 0.950 . S
C191 C188 1.387 . S
C192 C193 1.387 . S
C192 H196 0.950 . S
C192 C201 1.390 . S
C193 C192 1.387 . S
C193 C195 1.387 . S
H194 C201 0.950 . S
C195 C193 1.387 . S
C195 C197 1.390 . S
C195 H199 0.950 . S
H196 C192 0.950 . S
C197 C195 1.390 . S
C197 C198 1.387 . S
C197 H200 0.950 . S
C198 C197 1.387 . S
C198 C201 1.387 . S
H199 C195 0.950 . S
H200 C197 0.950 . S
C201 C192 1.390 . S
C201 H194 0.950 . S
C201 C198 1.387 . S
C202 C203 1.387 . S
C202 H206 0.950 . S
C202 C211 1.390 . S
C203 C202 1.387 . S
C203 C205 1.387 . S
H204 C211 0.950 . S
C205 C203 1.387 . S
C205 C207 1.390 . S
C205 H209 0.950 . S
H206 C202 0.950 . S
C207 C205 1.390 . S
C207 C208 1.387 . S
C207 H210 0.950 . S
C208 C207 1.387 . S
C208 C211 1.387 . S
H209 C205 0.950 . S
H210 C207 0.950 . S
C211 C202 1.390 . S
C211 H204 0.950 . S
C211 C208 1.387 . S
C212 C213 1.387 . S
C212 H216 0.950 . S
C212 C221 1.390 . S
C213 C212 1.387 . S
C213 C215 1.387 . S
H214 C221 0.950 . S
C215 C213 1.387 . S
C215 C217 1.390 . S
C215 H219 0.950 . S
H216 C212 0.950 . S
C217 C215 1.390 . S
C217 C218 1.387 . S
C217 H220 0.950 . S
C218 C217 1.387 . S
C218 C221 1.387 . S
H219 C215 0.950 . S
H220 C217 0.950 . S
C221 C212 1.390 . S
C221 H214 0.950 . S
C221 C218 1.387 . S
C222 C223 1.387 . S
C222 H226 0.950 . S
C222 C231 1.390 . S
C223 C222 1.387 . S
C223 C225 1.387 . S
H224 C231 0.950 . S
C225 C223 1.387 . S
C225 C227 1.390 . S
C225 H229 0.950 . S
H226 C222 0.950 . S
C227 C225 1.390 . S
C227 C228 1.387 . S
C227 H230 0.950 . S
C228 C227 1.387 . S
C228 C231 1.387 . S
H229 C225 0.950 . S
H230 C227 0.950 . S
C231 C222 1.390 . S
C231 H224 0.950 . S
C231 C228 1.387 . S
C232 C233 1.387 . S
C232 H236 0.950 . S
C232 C241 1.390 . S
C233 C232 1.387 . S
C233 C235 1.387 1_554 S
H234 C241 0.950 . S
C235 C233 1.387 1_556 S
C235 C237 1.390 . S
C235 H239 0.950 . S
H236 C232 0.950 . S
C237 C235 1.390 . S
C237 C238 1.387 1_556 S
C237 H240 0.950 . S
C238 C237 1.387 1_554 S
C238 C241 1.387 . S
H239 C235 0.950 . S
H240 C237 0.950 . S
C241 C232 1.390 . S
C241 H234 0.950 . S
C241 C238 1.387 . S
C242 C243 1.387 1_556 S
C242 H246 0.950 . S
C242 C251 1.390 . S
C243 C242 1.387 1_554 S
C243 C245 1.387 . S
H244 C251 0.950 . S
C245 C243 1.387 . S
C245 C247 1.390 . S
C245 H249 0.950 . S
H246 C242 0.950 . S
C247 C245 1.390 . S
C247 C248 1.387 . S
C247 H250 0.950 . S
C248 C247 1.387 . S
C248 C251 1.387 1_554 S
H249 C245 0.950 . S
H250 C247 0.950 . S
C251 C242 1.390 . S
C251 H244 0.950 . S
C251 C248 1.387 1_556 S
C252 C253 1.387 . S
C252 H256 0.950 . S
C252 C261 1.390 . S
C253 C252 1.387 . S
C253 C255 1.387 . S
H254 C261 0.950 . S
C255 C253 1.387 . S
C255 C257 1.390 . S
C255 H259 0.950 . S
H256 C252 0.950 . S
C257 C255 1.390 . S
C257 C258 1.387 . S
C257 H260 0.950 . S
C258 C257 1.387 . S
C258 C261 1.387 . S
H259 C255 0.950 . S
H260 C257 0.950 . S
C261 C252 1.390 . S
C261 H254 0.950 . S
C261 C258 1.387 . S
C262 C263 1.387 . S
C262 H266 0.950 . S
C262 C271 1.390 . S
C263 C262 1.387 . S
C263 C265 1.387 . S
H264 C271 0.950 . S
C265 C263 1.387 . S
C265 C267 1.390 . S
C265 H269 0.950 . S
H266 C262 0.950 . S
C267 C265 1.390 . S
C267 C268 1.387 . S
C267 H270 0.950 . S
C268 C267 1.387 . S
C268 C271 1.387 . S
H269 C265 0.950 . S
H270 C267 0.950 . S
C271 C262 1.390 . S
C271 H264 0.950 . S
C271 C268 1.387 . S
C113 C22 1.455 . S
C118 C8 1.455 . S
C123 C36 1.452 . S
C128 C50 1.452 . S
C133 C64 1.452 . S
C138 C78 1.452 . S
C143 C92 1.455 . S
C148 C106 1.455 . S
C153 C13 1.356 . S
C158 C55 1.356 . S
C163 C41 1.360 . S
C168 C27 1.360 . S
C173 C35 1.358 . S
C178 C21 1.358 . S
C183 C7 1.358 . S
C188 C49 1.358 . S
C193 C69 1.360 . S
C198 C111 1.360 . S
C203 C97 1.357 . S
C208 C83 1.357 . S
C213 C77 1.358 . S
C218 C91 1.358 . S
C223 C63 1.358 . S
C228 C105 1.358 . S
C233 C81 1.544 . S
C238 C11 1.544 . S
C243 C67 1.543 . S
C248 C25 1.543 . S
C253 C39 1.544 . S
C258 C109 1.544 . S
C263 C95 1.543 . S
C268 C53 1.543 . S
