# Generated by pormake.
# Topology umo, (4)-cn, num edge types: 1
# Building blocks:
#     Node 0, Type 0, BuildingBlock: MUDLON_clean_sbu_0, # of connection points: 4
#     Node 1, Type 0, BuildingBlock: MUDLON_clean_sbu_0, # of connection points: 4
#     Node 2, Type 0, BuildingBlock: MUDLON_clean_sbu_0, # of connection points: 4
#     Node 3, Type 0, BuildingBlock: MUDLON_clean_sbu_0, # of connection points: 4
#     Node 4, Type 0, BuildingBlock: MUDLON_clean_sbu_0, # of connection points: 4
#     Node 5, Type 0, BuildingBlock: MUDLON_clean_sbu_0, # of connection points: 4
#     Node 6, Type 0, BuildingBlock: MUDLON_clean_sbu_0, # of connection points: 4
#     Node 7, Type 0, BuildingBlock: MUDLON_clean_sbu_0, # of connection points: 4
#     Node 8, Type 0, BuildingBlock: MUDLON_clean_sbu_0, # of connection points: 4
#     Node 9, Type 0, BuildingBlock: MUDLON_clean_sbu_0, # of connection points: 4
#     Node 10, Type 0, BuildingBlock: MUDLON_clean_sbu_0, # of connection points: 4
#     Node 11, Type 0, BuildingBlock: MUDLON_clean_sbu_0, # of connection points: 4
#     Edge 12, Type (0, 0), BuildingBlock: XUDNAN_clean_linker_2, # of connection points: 2
#     Edge 13, Type (0, 0), BuildingBlock: XUDNAN_clean_linker_2, # of connection points: 2
#     Edge 14, Type (0, 0), BuildingBlock: XUDNAN_clean_linker_2, # of connection points: 2
#     Edge 15, Type (0, 0), BuildingBlock: XUDNAN_clean_linker_2, # of connection points: 2
#     Edge 16, Type (0, 0), BuildingBlock: XUDNAN_clean_linker_2, # of connection points: 2
#     Edge 17, Type (0, 0), BuildingBlock: XUDNAN_clean_linker_2, # of connection points: 2
#     Edge 18, Type (0, 0), BuildingBlock: XUDNAN_clean_linker_2, # of connection points: 2
#     Edge 19, Type (0, 0), BuildingBlock: XUDNAN_clean_linker_2, # of connection points: 2
#     Edge 20, Type (0, 0), BuildingBlock: XUDNAN_clean_linker_2, # of connection points: 2
#     Edge 21, Type (0, 0), BuildingBlock: XUDNAN_clean_linker_2, # of connection points: 2
#     Edge 22, Type (0, 0), BuildingBlock: XUDNAN_clean_linker_2, # of connection points: 2
#     Edge 23, Type (0, 0), BuildingBlock: XUDNAN_clean_linker_2, # of connection points: 2
#     Edge 24, Type (0, 0), BuildingBlock: XUDNAN_clean_linker_2, # of connection points: 2
#     Edge 25, Type (0, 0), BuildingBlock: XUDNAN_clean_linker_2, # of connection points: 2
#     Edge 26, Type (0, 0), BuildingBlock: XUDNAN_clean_linker_2, # of connection points: 2
#     Edge 27, Type (0, 0), BuildingBlock: XUDNAN_clean_linker_2, # of connection points: 2
#     Edge 28, Type (0, 0), BuildingBlock: XUDNAN_clean_linker_2, # of connection points: 2
#     Edge 29, Type (0, 0), BuildingBlock: XUDNAN_clean_linker_2, # of connection points: 2
#     Edge 30, Type (0, 0), BuildingBlock: XUDNAN_clean_linker_2, # of connection points: 2
#     Edge 31, Type (0, 0), BuildingBlock: XUDNAN_clean_linker_2, # of connection points: 2
#     Edge 32, Type (0, 0), BuildingBlock: XUDNAN_clean_linker_2, # of connection points: 2
#     Edge 33, Type (0, 0), BuildingBlock: XUDNAN_clean_linker_2, # of connection points: 2
#     Edge 34, Type (0, 0), BuildingBlock: XUDNAN_clean_linker_2, # of connection points: 2
#     Edge 35, Type (0, 0), BuildingBlock: XUDNAN_clean_linker_2, # of connection points: 2
# Relax obj value: 0.142
# Max RMSD: 0.179
# Mean RMSD: 0.179
data_MOF--net-umo--node1-MUDLON_clean_sbu_0--edge1-XUDNAN_clean_linker_2
_symmetry_space_group_name_H-M    P1
_symmetry_Int_Tables_number       1
_symmetry_cell_setting            triclinic
loop_
_symmetry_equiv_pos_as_xyz
'x, y, z'
_cell_length_a     50.455741
_cell_length_b     50.471386
_cell_length_c     39.17452
_cell_angle_alpha  89.940099
_cell_angle_beta   90.129353
_cell_angle_gamma 119.90143
loop_
_atom_site_label
_atom_site_type_symbol
_atom_site_fract_x
_atom_site_fract_y
_atom_site_fract_z
_atom_type_partial_charge
Mg0 Mg 0.16705 0.53546 0.42329 0.0
C1 C 0.17342 0.55753 0.49326 0.0
O2 O 0.16949 0.57676 0.47427 0.0
C3 C 0.176 0.51248 0.35765 0.0
O4 O 0.15698 0.52237 0.35043 0.0
C5 C 0.10072 0.49571 0.4014 0.0
O6 O 0.10854 0.47449 0.40013 0.0
O7 O 0.12032 0.52253 0.4109 0.0
O8 O 0.17259 0.53444 0.47893 0.0
O9 O 0.19455 0.58352 0.41152 0.0
C10 C 0.22105 0.59379 0.39899 0.0
O11 O 0.23018 0.57449 0.39029 0.0
O12 O 0.18402 0.51312 0.38866 0.0
Mg13 Mg 0.63871 0.18057 0.57101 0.0
C14 C 0.62539 0.16643 0.64516 0.0
O15 O 0.60628 0.14007 0.63103 0.0
C16 C 0.67824 0.20637 0.50743 0.0
O17 O 0.65208 0.1873 0.49285 0.0
C18 C 0.59823 0.11975 0.5378 0.0
O19 O 0.59127 0.13675 0.51858 0.0
O20 O 0.61836 0.1323 0.56098 0.0
O21 O 0.64442 0.18806 0.62616 0.0
O22 O 0.6047 0.19372 0.56131 0.0
C23 C 0.60936 0.21552 0.54153 0.0
O24 O 0.6344 0.22853 0.52315 0.0
O25 O 0.67973 0.20794 0.53994 0.0
Mg26 Mg 0.43245 0.62398 0.73946 0.0
C27 C 0.40195 0.59944 0.80423 0.0
O28 O 0.38529 0.5794 0.78075 0.0
C29 C 0.4553 0.66701 0.68136 0.0
O30 O 0.43338 0.64152 0.66821 0.0
C31 C 0.44797 0.58067 0.70076 0.0
O32 O 0.43876 0.5895 0.67392 0.0
O33 O 0.44749 0.59129 0.72998 0.0
O34 O 0.42629 0.6235 0.79498 0.0
O35 O 0.38653 0.60785 0.72095 0.0
C36 C 0.37819 0.6278 0.72078 0.0
O37 O 0.39881 0.65643 0.7268 0.0
O38 O 0.46148 0.6674 0.71301 0.0
Mg39 Mg 0.81684 0.46866 0.90323 0.0
C40 C 0.82828 0.46355 0.97605 0.0
O41 O 0.83735 0.44647 0.96035 0.0
C42 C 0.79843 0.49235 0.84193 0.0
O43 O 0.82734 0.50229 0.83501 0.0
C44 C 0.87698 0.47567 0.87837 0.0
O45 O 0.86297 0.44617 0.88456 0.0
O46 O 0.86301 0.49037 0.88366 0.0
O47 O 0.81917 0.47861 0.95807 0.0
O48 O 0.79635 0.41953 0.90407 0.0
C49 C 0.77368 0.40788 0.92426 0.0
O50 O 0.76439 0.4257 0.93766 0.0
O51 O 0.7877 0.47875 0.87024 0.0
Mg52 Mg 0.39368 0.82639 0.07901 0.0
C53 C 0.42274 0.85948 0.14048 0.0
O54 O 0.44412 0.86859 0.11704 0.0
C55 C 0.34328 0.77052 0.04401 0.0
O56 O 0.36146 0.76019 0.05343 0.0
C57 C 0.41087 0.88635 0.0487 0.0
O58 O 0.38588 0.87994 0.06558 0.0
O59 O 0.41998 0.867 0.0487 0.0
O60 O 0.39508 0.84199 0.13134 0.0
O61 O 0.41726 0.80071 0.08547 0.0
C62 C 0.40983 0.78525 0.11297 0.0
O63 O 0.38895 0.78568 0.13254 0.0
O64 O 0.34986 0.79737 0.05309 0.0
Mg65 Mg 0.52414 0.35456 0.24175 0.0
C66 C 0.53247 0.37409 0.31429 0.0
O67 O 0.55501 0.39742 0.2986 0.0
C68 C 0.4961 0.3089 0.18451 0.0
O69 O 0.48616 0.32786 0.17734 0.0
C70 C 0.50144 0.40006 0.23147 0.0
O71 O 0.50861 0.40596 0.26389 0.0
O72 O 0.5062 0.38056 0.21634 0.0
O73 O 0.51353 0.3511 0.29661 0.0
O74 O 0.57343 0.37901 0.24193 0.0
C75 C 0.58398 0.36625 0.2613 0.0
O76 O 0.56478 0.33974 0.27507 0.0
O77 O 0.51104 0.31282 0.21211 0.0
Mg78 Mg 0.46337 0.83847 0.45902 0.0
C79 C 0.45114 0.84651 0.38681 0.0
O80 O 0.42594 0.8411 0.40245 0.0
C81 C 0.49909 0.82637 0.51313 0.0
O82 O 0.50806 0.85505 0.52024 0.0
C83 C 0.48055 0.90463 0.47006 0.0
O84 O 0.47439 0.90318 0.4373 0.0
O85 O 0.47652 0.88076 0.48549 0.0
O86 O 0.47296 0.84748 0.40435 0.0
O87 O 0.41488 0.80691 0.46066 0.0
C88 C 0.40846 0.78304 0.44364 0.0
O89 O 0.43099 0.78057 0.43021 0.0
O90 O 0.48269 0.81436 0.48667 0.0
Mg91 Mg 0.58956 0.43949 0.62378 0.0
C92 C 0.55658 0.4221 0.55989 0.0
O93 O 0.53666 0.40799 0.58439 0.0
C94 C 0.63483 0.4551 0.67875 0.0
O95 O 0.60862 0.43532 0.69263 0.0
C96 C 0.55309 0.4703 0.63357 0.0
O97 O 0.56422 0.47967 0.60284 0.0
O98 O 0.55974 0.45239 0.6494 0.0
O99 O 0.58404 0.4413 0.56836 0.0
O100 O 0.57422 0.3914 0.62781 0.0
C101 C 0.58951 0.3856 0.6064 0.0
O102 O 0.61235 0.40856 0.59052 0.0
O103 O 0.63484 0.46279 0.64772 0.0
Mg104 Mg 0.16087 0.58639 0.81616 0.0
C105 C 0.1647 0.57003 0.74243 0.0
O106 O 0.14844 0.54246 0.75531 0.0
C107 C 0.20141 0.62308 0.87585 0.0
O108 O 0.19708 0.59587 0.88352 0.0
C109 C 0.09209 0.55008 0.82228 0.0
O110 O 0.09747 0.52717 0.82107 0.0
O111 O 0.11438 0.57727 0.82049 0.0
O112 O 0.17306 0.59308 0.76193 0.0
O113 O 0.16253 0.54643 0.83496 0.0
C114 C 0.18154 0.53764 0.82761 0.0
O115 O 0.1772 0.51175 0.84054 0.0
O116 O 0.18932 0.62631 0.84871 0.0
Mg117 Mg 0.55753 0.16668 0.95864 0.0
C118 C 0.56047 0.15541 0.88375 0.0
O119 O 0.55733 0.12998 0.89667 0.0
C120 C 0.53261 0.18315 0.02093 0.0
O121 O 0.54418 0.16792 0.03604 0.0
C122 C 0.51198 0.10108 0.97794 0.0
O123 O 0.49381 0.11246 0.98243 0.0
O124 O 0.53938 0.11859 0.96857 0.0
O125 O 0.55883 0.1745 0.90363 0.0
O126 O 0.60589 0.19054 0.97015 0.0
C127 C 0.61824 0.21234 0.99143 0.0
O128 O 0.60071 0.21853 1.0106 0.0
O129 O 0.53415 0.18572 0.9885 0.0
Mg130 Mg 0.35935 0.53382 0.1225 0.0
C131 C 0.3751 0.55331 0.04986 0.0
O132 O 0.40196 0.56781 0.06487 0.0
C133 C 0.31807 0.5153 0.18552 0.0
O134 O 0.34253 0.51731 0.19994 0.0
C135 C 0.39732 0.51002 0.15511 0.0
O136 O 0.40463 0.53356 0.17512 0.0
O137 O 0.37833 0.50429 0.13101 0.0
O138 O 0.35172 0.53587 0.0678 0.0
O139 O 0.39391 0.5803 0.13392 0.0
C140 C 0.39373 0.59573 0.15937 0.0
O141 O 0.3725 0.58242 0.18276 0.0
O142 O 0.3184 0.52031 0.15356 0.0
Mg143 Mg 0.83091 0.40159 0.28821 0.0
C144 C 0.83414 0.43074 0.22337 0.0
O145 O 0.84235 0.45174 0.24717 0.0
C146 C 0.82073 0.35819 0.3447 0.0
O147 O 0.84425 0.38394 0.35511 0.0
C148 C 0.8959 0.41842 0.30334 0.0
O149 O 0.88568 0.39071 0.29126 0.0
O150 O 0.87799 0.42929 0.30442 0.0
O151 O 0.82829 0.40405 0.23233 0.0
O152 O 0.80524 0.42323 0.30395 0.0
C153 C 0.78487 0.41236 0.32695 0.0
O154 O 0.78218 0.38963 0.34583 0.0
O155 O 0.80985 0.35735 0.31504 0.0
H156 H 0.2795 0.62297 0.3751 0.0
H157 H 0.21323 0.6388 0.42817 0.0
H158 H 0.25356 0.69167 0.44074 0.0
H159 H 0.33708 0.65872 0.43216 0.0
H160 H 0.36795 0.67535 0.40178 0.0
H161 H 0.33315 0.641 0.39109 0.0
H162 H 0.32669 0.66684 0.33695 0.0
H163 H 0.36188 0.70123 0.34711 0.0
H164 H 0.32725 0.70271 0.34079 0.0
H165 H 0.30258 0.73985 0.45513 0.0
H166 H 0.35579 0.78045 0.46687 0.0
H167 H 0.38917 0.73215 0.40463 0.0
C168 C 0.27324 0.63781 0.38844 0.0
C169 C 0.24328 0.62679 0.40064 0.0
C170 C 0.23604 0.64683 0.41837 0.0
C171 C 0.2588 0.6769 0.42567 0.0
C172 C 0.28847 0.68661 0.41463 0.0
C173 C 0.2956 0.6678 0.39588 0.0
C174 C 0.32958 0.6826 0.38961 0.0
C175 C 0.34269 0.66327 0.40457 0.0
C176 C 0.33676 0.68872 0.35134 0.0
C177 C 0.3406 0.71203 0.40916 0.0
C178 C 0.31662 0.71423 0.42301 0.0
C179 C 0.32152 0.73865 0.44389 0.0
C180 C 0.35177 0.76146 0.4506 0.0
C181 C 0.37656 0.75941 0.4367 0.0
C182 C 0.37073 0.73445 0.41557 0.0
H183 H 0.61749 0.26674 0.50909 0.0
H184 H 0.56201 0.20037 0.58606 0.0
H185 H 0.54299 0.23435 0.60509 0.0
H186 H 0.64472 0.32692 0.55815 0.0
H187 H 0.64486 0.35392 0.52789 0.0
H188 H 0.64684 0.32139 0.51297 0.0
H189 H 0.59878 0.3046 0.47533 0.0
H190 H 0.59696 0.33764 0.48954 0.0
H191 H 0.56419 0.29998 0.49428 0.0
H192 H 0.53996 0.27999 0.62467 0.0
H193 H 0.55079 0.33208 0.64009 0.0
H194 H 0.60885 0.36824 0.55091 0.0
C195 C 0.60027 0.25872 0.52889 0.0
C196 C 0.59139 0.23105 0.54618 0.0
C197 C 0.56914 0.22151 0.57236 0.0
C198 C 0.55813 0.24065 0.58334 0.0
C199 C 0.56916 0.26892 0.56745 0.0
C200 C 0.58923 0.27762 0.54019 0.0
C201 C 0.60127 0.31071 0.53078 0.0
C202 C 0.63648 0.32929 0.5326 0.0
C203 C 0.58959 0.31338 0.49539 0.0
C204 C 0.58679 0.31987 0.55863 0.0
C205 C 0.56767 0.29539 0.57901 0.0
C206 C 0.55423 0.29918 0.60835 0.0
C207 C 0.56066 0.3288 0.61708 0.0
C208 C 0.5808 0.3541 0.59682 0.0
C209 C 0.59341 0.34933 0.56696 0.0
H210 H 0.21376 0.51679 0.79133 0.0
H211 H 0.21149 0.59934 0.815 0.0
H212 H 0.25492 0.62878 0.77716 0.0
H213 H 0.29177 0.5515 0.80017 0.0
H214 H 0.29775 0.52992 0.76749 0.0
H215 H 0.26164 0.51367 0.78911 0.0
H216 H 0.23382 0.50498 0.73099 0.0
H217 H 0.26996 0.52145 0.709 0.0
H218 H 0.24481 0.53676 0.70238 0.0
H219 H 0.30157 0.65052 0.74253 0.0
H220 H 0.35329 0.66485 0.72297 0.0
H221 H 0.32948 0.5695 0.72588 0.0
C222 C 0.22191 0.54093 0.7878 0.0
C223 C 0.20783 0.55543 0.80464 0.0
C224 C 0.22028 0.58728 0.80075 0.0
C225 C 0.24523 0.60429 0.77931 0.0
C226 C 0.25822 0.58926 0.76261 0.0
C227 C 0.24744 0.5584 0.76718 0.0
C228 C 0.26893 0.54898 0.75153 0.0
C229 C 0.28073 0.53523 0.77868 0.0
C230 C 0.25345 0.52672 0.7217 0.0
C231 C 0.29411 0.57966 0.73893 0.0
C232 C 0.28686 0.60234 0.74447 0.0
C233 C 0.30743 0.63296 0.73766 0.0
C234 C 0.33679 0.64088 0.72657 0.0
C235 C 0.34545 0.61831 0.72306 0.0
C236 C 0.32339 0.5872 0.72788 0.0
H237 H 0.73949 0.38322 0.98087 0.0
H238 H 0.77601 0.36043 0.8927 0.0
H239 H 0.74791 0.30592 0.90972 0.0
H240 H 0.73648 0.32166 0.03946 0.0
H241 H 0.70147 0.31598 0.05833 0.0
H242 H 0.72979 0.3534 0.04358 0.0
H243 H 0.68904 0.35592 1.00537 0.0
H244 H 0.66077 0.31885 0.02012 0.0
H245 H 0.66786 0.32574 0.975 0.0
H246 H 0.7085 0.25412 0.92968 0.0
H247 H 0.65978 0.21013 0.94819 0.0
H248 H 0.64993 0.26696 0.02433 0.0
C249 C 0.74209 0.36684 0.9655 0.0
C250 C 0.7596 0.37582 0.93534 0.0
C251 C 0.76263 0.35388 0.91593 0.0
C252 C 0.74698 0.32297 0.92559 0.0
C253 C 0.72912 0.31471 0.95509 0.0
C254 C 0.72693 0.33615 0.97495 0.0
C255 C 0.70334 0.32133 1.0028 0.0
C256 C 0.71869 0.32851 0.03814 0.0
C257 C 0.67881 0.33102 1.00064 0.0
C258 C 0.69055 0.28806 0.99368 0.0
C259 C 0.70643 0.28462 0.96688 0.0
C260 C 0.69637 0.25642 0.95118 0.0
C261 C 0.66858 0.23154 0.96186 0.0
C262 C 0.65098 0.23521 0.9876 0.0
C263 C 0.66304 0.26338 1.00489 0.0
H264 H 0.39647 0.74961 0.16936 0.0
H265 H 0.44919 0.77378 0.07574 0.0
H266 H 0.46211 0.73335 0.08693 0.0
H267 H 0.44369 0.72234 0.21932 0.0
H268 H 0.40937 0.69195 0.23815 0.0
H269 H 0.41181 0.728 0.22818 0.0
H270 H 0.3624 0.69975 0.19186 0.0
H271 H 0.35984 0.66388 0.20165 0.0
H272 H 0.36066 0.67497 0.15773 0.0
H273 H 0.45972 0.68441 0.10113 0.0
H274 H 0.43982 0.63011 0.1146 0.0
H275 H 0.38793 0.63709 0.19877 0.0
C276 C 0.4116 0.74711 0.15176 0.0
C277 C 0.42183 0.76477 0.12168 0.0
C278 C 0.44121 0.76055 0.09903 0.0
C279 C 0.44884 0.73779 0.10535 0.0
C280 C 0.43721 0.71981 0.13458 0.0
C281 C 0.41916 0.72443 0.15758 0.0
C282 C 0.40517 0.69905 0.18376 0.0
C283 C 0.41831 0.71106 0.21947 0.0
C284 C 0.36996 0.6835 0.18368 0.0
C285 C 0.41607 0.67809 0.17025 0.0
C286 C 0.43546 0.69098 0.14266 0.0
C287 C 0.44521 0.67438 0.12318 0.0
C288 C 0.43368 0.64347 0.13099 0.0
C289 C 0.41222 0.62938 0.1577 0.0
C290 C 0.40465 0.64736 0.17859 0.0
H291 H 0.72817 0.37919 0.35492 0.0
H292 H 0.78364 0.45876 0.29211 0.0
H293 H 0.7374 0.46009 0.27457 0.0
H294 H 0.67387 0.34205 0.29845 0.0
H295 H 0.6414 0.32541 0.32671 0.0
H296 H 0.6786 0.33552 0.34275 0.0
H297 H 0.67482 0.3701 0.38903 0.0
H298 H 0.63703 0.35942 0.37382 0.0
H299 H 0.66587 0.39919 0.37672 0.0
H300 H 0.68513 0.44607 0.2541 0.0
H301 H 0.63093 0.41999 0.23598 0.0
H302 H 0.60999 0.34879 0.31085 0.0
C303 C 0.73079 0.39781 0.33884 0.0
C304 C 0.75946 0.41886 0.3249 0.0
C305 C 0.76187 0.44244 0.3032 0.0
C306 C 0.73571 0.4434 0.2931 0.0
C307 C 0.70744 0.42087 0.30528 0.0
C308 C 0.70488 0.39888 0.32831 0.0
C309 C 0.67181 0.37473 0.33379 0.0
C310 C 0.66612 0.34256 0.32487 0.0
C311 C 0.6618 0.37595 0.37052 0.0
C312 C 0.65644 0.38539 0.30852 0.0
C313 C 0.6772 0.41242 0.29293 0.0
C314 C 0.66854 0.42528 0.26671 0.0
C315 C 0.63781 0.41019 0.25638 0.0
C316 C 0.61633 0.38233 0.27191 0.0
C317 C 0.62586 0.37006 0.29847 0.0
H318 H 0.15003 0.52532 0.69394 0.0
H319 H 0.19759 0.62381 0.70753 0.0
H320 H 0.20881 0.63064 0.64586 0.0
H321 H 0.20117 0.52443 0.62709 0.0
H322 H 0.17026 0.49353 0.60407 0.0
H323 H 0.16799 0.49616 0.64975 0.0
H324 H 0.11652 0.49539 0.64319 0.0
H325 H 0.11857 0.49273 0.59756 0.0
H326 H 0.11451 0.52321 0.61604 0.0
H327 H 0.21073 0.62708 0.58275 0.0
H328 H 0.20402 0.6136 0.52175 0.0
H329 H 0.15655 0.51724 0.54785 0.0
C330 C 0.16312 0.54834 0.68404 0.0
C331 C 0.17284 0.57407 0.70565 0.0
C332 C 0.18983 0.60377 0.69157 0.0
C333 C 0.19641 0.60787 0.65656 0.0
C334 C 0.18612 0.58207 0.63594 0.0
C335 C 0.17001 0.55287 0.6491 0.0
C336 C 0.16045 0.52907 0.62099 0.0
C337 C 0.17589 0.50965 0.62576 0.0
C338 C 0.12544 0.50892 0.61936 0.0
C339 C 0.17285 0.5495 0.5898 0.0
C340 C 0.18778 0.57999 0.5992 0.0
C341 C 0.19949 0.60333 0.57511 0.0
C342 C 0.19546 0.5954 0.5405 0.0
C343 C 0.17998 0.56439 0.53008 0.0
C344 C 0.16902 0.54111 0.5551 0.0
H345 H 0.5958 0.12333 0.6946 0.0
H346 H 0.64488 0.22133 0.67774 0.0
H347 H 0.63216 0.22934 0.73645 0.0
H348 H 0.53497 0.11944 0.7434 0.0
H349 H 0.53264 0.09053 0.77227 0.0
H350 H 0.54633 0.09255 0.7294 0.0
H351 H 0.5965 0.09698 0.7527 0.0
H352 H 0.58276 0.09447 0.79563 0.0
H353 H 0.61906 0.12644 0.78326 0.0
H354 H 0.61085 0.22608 0.79622 0.0
H355 H 0.58873 0.21237 0.85422 0.0
H356 H 0.55551 0.11665 0.83214 0.0
C357 C 0.60419 0.14652 0.70335 0.0
C358 C 0.62134 0.17172 0.68155 0.0
C359 C 0.63191 0.20169 0.69405 0.0
C360 C 0.62459 0.20644 0.72727 0.0
C361 C 0.60699 0.181 0.7478 0.0
C362 C 0.59742 0.15166 0.73648 0.0
C363 C 0.5792 0.1282 0.76363 0.0
C364 C 0.54634 0.1064 0.75143 0.0
C365 C 0.59535 0.11049 0.77445 0.0
C366 C 0.57977 0.14884 0.79197 0.0
C367 C 0.59561 0.17921 0.78229 0.0
C368 C 0.59861 0.20238 0.80411 0.0
C369 C 0.58576 0.19436 0.83693 0.0
C370 C 0.5704 0.16345 0.84776 0.0
C371 C 0.56716 0.14049 0.82469 0.0
H372 H 0.42089 0.59126 1.00612 0.0
H373 H 0.32357 0.52598 1.00969 0.0
H374 H 0.31969 0.53362 0.94793 0.0
H375 H 0.41651 0.64312 0.94445 0.0
H376 H 0.45148 0.65125 0.92335 0.0
H377 H 0.44646 0.64167 0.96809 0.0
H378 H 0.45753 0.59754 0.95693 0.0
H379 H 0.4627 0.60703 0.91223 0.0
H380 H 0.4352 0.56882 0.92555 0.0
H381 H 0.3268 0.5463 0.88566 0.0
H382 H 0.3442 0.56246 0.82672 0.0
H383 H 0.43698 0.62052 0.86311 0.0
C384 C 0.39869 0.57863 0.99401 0.0
C385 C 0.37248 0.55795 1.01283 0.0
C386 C 0.34393 0.54192 0.99589 0.0
C387 C 0.34151 0.54618 0.96083 0.0
C388 C 0.3678 0.56669 0.94309 0.0
C389 C 0.39584 0.5827 0.95908 0.0
C390 C 0.42072 0.60271 0.93391 0.0
C391 C 0.43461 0.63671 0.943 0.0
C392 C 0.44549 0.59346 0.93205 0.0
C393 C 0.40238 0.59504 0.90107 0.0
C394 C 0.37187 0.57432 0.90708 0.0
C395 C 0.35056 0.56268 0.88071 0.0
C396 C 0.36072 0.57199 0.84728 0.0
C397 C 0.39193 0.59286 0.8403 0.0
C398 C 0.41293 0.60492 0.8677 0.0
H399 H 0.83141 0.4004 0.16303 0.0
H400 H 0.82906 0.47941 0.20302 0.0
H401 H 0.82508 0.4951 0.14471 0.0
H402 H 0.87812 0.43834 0.09124 0.0
H403 H 0.85876 0.40647 0.0624 0.0
H404 H 0.8591 0.39979 0.10751 0.0
H405 H 0.79988 0.36849 0.10762 0.0
H406 H 0.79935 0.37509 0.06247 0.0
H407 H 0.77842 0.3856 0.09139 0.0
H408 H 0.82244 0.50335 0.08197 0.0
H409 H 0.82351 0.50419 1.01875 0.0
H410 H 0.82952 0.42134 1.0189 0.0
C411 C 0.82972 0.42078 0.15947 0.0
C412 C 0.83056 0.43863 0.18773 0.0
C413 C 0.82863 0.46537 0.18189 0.0
C414 C 0.82621 0.47448 0.1488 0.0
C415 C 0.82584 0.45672 0.12151 0.0
C416 C 0.82757 0.43046 0.12636 0.0
C417 C 0.8281 0.41639 0.09232 0.0
C418 C 0.85779 0.41519 0.08813 0.0
C419 C 0.79975 0.3845 0.08822 0.0
C420 C 0.82699 0.43918 0.06784 0.0
C421 C 0.82522 0.46201 0.08518 0.0
C422 C 0.82384 0.48558 0.06805 0.0
C423 C 0.82446 0.4859 0.03217 0.0
C424 C 0.82689 0.46306 1.01388 0.0
C425 C 0.828 0.43937 0.03212 0.0
H426 H 0.3866 0.83441 0.19767 0.0
H427 H 0.48014 0.89558 0.16576 0.0
H428 H 0.49772 0.89873 0.22503 0.0
H429 H 0.3928 0.87183 0.2802 0.0
H430 H 0.36865 0.83615 0.30168 0.0
H431 H 0.36324 0.83999 0.25685 0.0
H432 H 0.36931 0.79291 0.24416 0.0
H433 H 0.37523 0.78921 0.28885 0.0
H434 H 0.40337 0.79288 0.25807 0.0
H435 H 0.50602 0.8917 0.28699 0.0
H436 H 0.50313 0.87989 0.34879 0.0
H437 H 0.40438 0.8254 0.34089 0.0
C438 C 0.41067 0.84897 0.20326 0.0
C439 C 0.43194 0.86472 0.17695 0.0
C440 C 0.46333 0.88325 0.18538 0.0
C441 C 0.47363 0.88515 0.21901 0.0
C442 C 0.45227 0.86861 0.24415 0.0
C443 C 0.42139 0.8513 0.23685 0.0
C444 C 0.4033 0.83554 0.26864 0.0
C445 C 0.38066 0.84655 0.27736 0.0
C446 C 0.38684 0.80057 0.26468 0.0
C447 C 0.42886 0.84657 0.29476 0.0
C448 C 0.45699 0.86536 0.28007 0.0
C449 C 0.48408 0.87731 0.2989 0.0
C450 C 0.48228 0.87034 0.33387 0.0
C451 C 0.45358 0.85197 0.34959 0.0
C452 C 0.42664 0.83983 0.32961 0.0
H453 H 0.57773 0.41025 0.3589 0.0
H454 H 0.48159 0.34136 0.35442 0.0
H455 H 0.47741 0.34703 0.41672 0.0
H456 H 0.59286 0.38657 0.44106 0.0
H457 H 0.61965 0.42513 0.45399 0.0
H458 H 0.61487 0.41506 0.4094 0.0
H459 H 0.6028 0.45843 0.39701 0.0
H460 H 0.60717 0.46838 0.44161 0.0
H461 H 0.57216 0.45922 0.41972 0.0
H462 H 0.48338 0.36215 0.47867 0.0
H463 H 0.49939 0.3819 0.5369 0.0
H464 H 0.59244 0.44014 0.50154 0.0
C465 C 0.55576 0.39627 0.37101 0.0
C466 C 0.52985 0.37548 0.3518 0.0
C467 C 0.50168 0.35735 0.36866 0.0
C468 C 0.49911 0.36054 0.40396 0.0
C469 C 0.52502 0.38164 0.422 0.0
C470 C 0.55291 0.39888 0.40618 0.0
C471 C 0.57739 0.41956 0.43142 0.0
C472 C 0.60268 0.41107 0.43412 0.0
C473 C 0.59065 0.4534 0.42186 0.0
C474 C 0.55879 0.41175 0.46395 0.0
C475 C 0.52864 0.38986 0.45786 0.0
C476 C 0.50695 0.37913 0.48374 0.0
C477 C 0.51633 0.39064 0.51679 0.0
C478 C 0.54724 0.41265 0.52394 0.0
C479 C 0.56866 0.42348 0.49696 0.0
H480 H 0.93705 0.39862 0.31325 0.0
H481 H 0.92472 0.47713 0.3275 0.0
H482 H 0.97555 0.50517 0.35473 0.0
H483 H 0.97471 0.4052 0.39287 0.0
H484 H 0.00055 0.39367 0.37574 0.0
H485 H 0.96349 0.37993 0.35656 0.0
H486 H 0.98891 0.40119 0.29787 0.0
H487 H 0.02604 0.41482 0.31682 0.0
H488 H 0.01772 0.44093 0.29413 0.0
H489 H 0.02733 0.52446 0.38086 0.0
H490 H 0.07715 0.53417 0.40312 0.0
H491 H 0.05546 0.44284 0.37241 0.0
C492 C 0.9451 0.42179 0.32186 0.0
C493 C 0.92693 0.43571 0.31818 0.0
C494 C 0.93824 0.466 0.33002 0.0
C495 C 0.96706 0.48211 0.34556 0.0
C496 C 0.98423 0.46758 0.34911 0.0
C497 C 0.97374 0.43815 0.33754 0.0
C498 C -0.00339 0.42771 0.34478 0.0
C499 C 0.98302 0.39999 0.36893 0.0
C500 C 0.00799 0.42077 0.31141 0.0
C501 C 0.02164 0.45592 0.36216 0.0
C502 C 0.01402 0.47863 0.36442 0.0
C503 C 0.03357 0.50686 0.37925 0.0
C504 C 0.0618 0.51212 0.39185 0.0
C505 C 0.07022 0.48925 0.38956 0.0
C506 C 0.04968 0.46074 0.3747 0.0
H507 H 0.49241 0.96033 0.4452 0.0
H508 H 0.50371 0.91628 0.53497 0.0
H509 H 0.53398 0.96655 0.56254 0.0
H510 H 0.56644 0.02406 0.44481 0.0
H511 H 0.55499 0.05113 0.43167 0.0
H512 H 0.53225 0.01156 0.41969 0.0
H513 H 0.4845 0.00903 0.44754 0.0
H514 H 0.50701 0.04872 0.45931 0.0
H515 H 0.4862 0.02032 0.4915 0.0
H516 H 0.56663 0.02152 0.57833 0.0
H517 H 0.59604 0.07771 0.58338 0.0
H518 H 0.56237 0.08603 0.48413 0.0
C519 C 0.50085 0.9612 0.47086 0.0
C520 C 0.49572 0.93437 0.4879 0.0
C521 C 0.50726 0.9365 0.52142 0.0
C522 C 0.52455 0.96496 0.53729 0.0
C523 C 0.52981 0.991 0.51945 0.0
C524 C 0.51798 0.98939 0.48719 0.0
C525 C 0.5276 0.02093 0.47332 0.0
C526 C 0.54644 0.02728 0.44043 0.0
C527 C 0.49966 0.02498 0.4676 0.0
C528 C 0.54715 0.0405 0.5026 0.0
C529 C 0.54817 0.02278 0.52891 0.0
C530 C 0.56575 0.03567 0.55809 0.0
C531 C 0.58251 0.06758 0.56061 0.0
C532 C 0.58139 0.08619 0.53419 0.0
C533 C 0.56346 0.07238 0.50485 0.0
H534 H 0.46641 0.56541 0.64199 0.0
H535 H 0.45766 0.54896 0.75126 0.0
H536 H 0.48054 0.51586 0.74544 0.0
H537 H 0.45114 0.48939 0.61598 0.0
H538 H 0.47916 0.5043 0.58232 0.0
H539 H 0.45958 0.52443 0.59471 0.0
H540 H 0.5117 0.57342 0.60549 0.0
H541 H 0.53141 0.55345 0.59321 0.0
H542 H 0.53882 0.57188 0.63429 0.0
H543 H 0.50644 0.48639 0.72802 0.0
H544 H 0.53536 0.46456 0.70058 0.0
H545 H 0.52842 0.5018 0.60318 0.0
C546 C 0.46884 0.55446 0.66462 0.0
C547 C 0.46011 0.55959 0.69703 0.0
C548 C 0.46418 0.5453 0.72614 0.0
C549 C 0.47704 0.52637 0.72309 0.0
C550 C 0.48577 0.52209 0.69079 0.0
C551 C 0.48191 0.53578 0.66208 0.0
C552 C 0.49496 0.52908 0.63068 0.0
C553 C 0.4697 0.5107 0.60438 0.0
C554 C 0.52075 0.55872 0.61502 0.0
C555 C 0.5072 0.50989 0.64631 0.0
C556 C 0.50134 0.50577 0.68091 0.0
C557 C 0.51103 0.48932 0.7009 0.0
C558 C 0.52742 0.47701 0.6851 0.0
C559 C 0.53418 0.48155 0.64979 0.0
C560 C 0.52365 0.49797 0.63023 0.0
H561 H 0.04011 0.49528 0.83449 0.0
H562 H 0.07301 0.59221 0.82119 0.0
H563 H 0.02094 0.58321 0.83143 0.0
H564 H 0.96553 0.46786 0.79448 0.0
H565 H 0.94618 0.43688 0.82439 0.0
H566 H 0.98571 0.45067 0.81402 0.0
H567 H -0.00012 0.4601 0.87822 0.0
H568 H 0.96045 0.44641 0.88877 0.0
H569 H 0.98951 0.48387 0.90253 0.0
H570 H 0.96601 0.56416 0.84547 0.0
H571 H 0.91188 0.53641 0.86287 0.0
H572 H 0.91477 0.45189 0.86746 0.0
C573 C 0.03633 0.51458 0.83336 0.0
C574 C 0.06063 0.54445 0.82696 0.0
C575 C 0.05476 0.56912 0.82603 0.0
C576 C 0.02525 0.56424 0.83174 0.0
C577 C 0.00188 0.53457 0.83831 0.0
C578 C 0.00705 0.51014 0.83911 0.0
C579 C 0.97818 0.48071 0.84803 0.0
C580 C 0.96832 0.45768 0.81846 0.0
C581 C 0.98226 0.46698 0.88137 0.0
C582 C 0.95609 0.49251 0.85258 0.0
C583 C 0.97018 0.52359 0.84663 0.0
C584 C 0.95466 0.53978 0.85002 0.0
C585 C 0.92392 0.5238 0.85996 0.0
C586 C 0.90906 0.49196 0.86653 0.0
C587 C 0.92541 0.47618 0.86251 0.0
H588 H 0.45724 0.0584 1.00575 0.0
H589 H 0.5417 0.0696 0.96339 0.0
H590 H 0.52374 0.01506 0.97398 0.0
H591 H 0.45098 0.00838 0.07285 0.0
H592 H 0.40993 0.9854 0.07037 0.0
H593 H 0.42866 0.0249 0.05761 0.0
H594 H 0.40258 0.00907 0.99825 0.0
H595 H 0.38379 0.96947 1.01082 0.0
H596 H 0.40708 0.98177 0.97291 0.0
H597 H 0.49748 0.95981 0.99098 0.0
H598 H 0.46526 0.90806 1.01473 0.0
H599 H 0.39822 0.93314 0.04628 0.0
C600 C 0.47186 0.04934 0.99842 0.0
C601 C 0.50084 0.06825 0.98369 0.0
C602 C 0.5194 0.05556 0.97476 0.0
C603 C 0.50938 0.02458 0.98055 0.0
C604 C 0.48076 0.00661 0.99528 0.0
C605 C 0.46227 0.0185 1.00415 0.0
C606 C 0.43305 0.99456 0.02088 0.0
C607 C 0.43053 0.00387 0.0576 0.0
C608 C 0.40497 0.98835 0.99942 0.0
C609 C 0.43818 0.96746 0.02041 0.0
C610 C 0.46571 0.97481 1.0053 0.0
C611 C 0.47577 0.95371 1.0027 0.0
C612 C 0.45731 0.92438 1.01626 0.0
C613 C 0.42921 0.91653 0.03233 0.0
C614 C 0.4195 0.93836 0.03403 0.0
H615 H 0.43076 0.50959 0.2101 0.0
H616 H 0.39596 0.46705 0.11145 0.0
H617 H 0.42034 0.43551 0.11946 0.0
H618 H 0.50333 0.5121 0.20566 0.0
H619 H 0.50346 0.50319 0.25021 0.0
H620 H 0.48393 0.52301 0.23636 0.0
H621 H 0.43384 0.48124 0.26422 0.0
H622 H 0.45323 0.46135 0.27825 0.0
H623 H 0.41906 0.44176 0.25266 0.0
H624 H 0.44863 0.40881 0.13807 0.0
H625 H 0.47647 0.3867 0.16734 0.0
H626 H 0.49166 0.44579 0.25448 0.0
C627 C 0.42835 0.49373 0.19011 0.0
C628 C 0.41155 0.49084 0.16009 0.0
C629 C 0.40869 0.46961 0.13469 0.0
C630 C 0.42254 0.45167 0.13894 0.0
C631 C 0.43899 0.45514 0.16881 0.0
C632 C 0.44179 0.47548 0.19406 0.0
C633 C 0.45994 0.47412 0.22418 0.0
C634 C 0.48941 0.50494 0.22939 0.0
C635 C 0.44034 0.46401 0.25674 0.0
C636 C 0.46687 0.4498 0.21193 0.0
C637 C 0.45478 0.43931 0.17983 0.0
C638 C 0.45818 0.41681 0.16322 0.0
C639 C 0.47409 0.40444 0.18005 0.0
C640 C 0.48621 0.41447 0.21323 0.0
C641 C 0.48265 0.4376 0.22916 0.0
H642 H 0.23174 0.51451 0.35697 0.0
H643 H 0.15349 0.49495 0.29349 0.0
H644 H 0.17994 0.48985 0.24327 0.0
H645 H 0.28722 0.56089 0.29774 0.0
H646 H 0.31399 0.5482 0.30775 0.0
H647 H 0.28766 0.54651 0.33976 0.0
H648 H 0.26745 0.48861 0.34798 0.0
H649 H 0.29395 0.49017 0.31617 0.0
H650 H 0.25365 0.46347 0.31155 0.0
H651 H 0.21665 0.49234 0.19882 0.0
H652 H 0.26054 0.5001 0.16364 0.0
H653 H 0.31518 0.51767 0.25545 0.0
C654 C 0.21985 0.50824 0.3327 0.0
C655 C 0.19041 0.50486 0.32923 0.0
C656 C 0.17597 0.49753 0.29681 0.0
C657 C 0.19081 0.49456 0.26809 0.0
C658 C 0.22015 0.49894 0.27209 0.0
C659 C 0.23448 0.50536 0.3036 0.0
C660 C 0.26688 0.51106 0.30035 0.0
C661 C 0.29031 0.54359 0.31209 0.0
C662 C 0.2707 0.48688 0.32019 0.0
C663 C 0.26865 0.50739 0.2621 0.0
C664 C 0.24139 0.50028 0.24632 0.0
C665 C 0.23798 0.49746 0.21094 0.0
C666 C 0.26308 0.50202 0.19114 0.0
C667 C 0.29125 0.50925 0.20672 0.0
C668 C 0.29385 0.51171 0.24274 0.0
H669 H 0.76088 0.31042 0.34415 0.0
H670 H 0.84533 0.34938 0.40235 0.0
H671 H 0.81878 0.31252 0.44865 0.0
H672 H 0.71294 0.29985 0.4133 0.0
H673 H 0.6813 0.26408 0.39894 0.0
H674 H 0.70741 0.29104 0.36836 0.0
H675 H 0.71829 0.24969 0.34404 0.0
H676 H 0.69196 0.22248 0.37439 0.0
H677 H 0.73075 0.22988 0.37238 0.0
H678 H 0.78229 0.2757 0.49145 0.0
H679 H 0.73853 0.23887 0.52633 0.0
H680 H 0.67766 0.22247 0.44055 0.0
C681 C 0.77393 0.31057 0.3662 0.0
C682 C 0.80527 0.33271 0.36949 0.0
C683 C 0.82135 0.33263 0.39917 0.0
C684 C 0.80648 0.31176 0.42567 0.0
C685 C 0.77543 0.29088 0.42218 0.0
C686 C 0.75935 0.28983 0.39307 0.0
C687 C 0.72572 0.2662 0.39679 0.0
C688 C 0.70568 0.2812 0.3942 0.0
C689 C 0.71612 0.24054 0.37033 0.0
C690 C 0.72542 0.25466 0.4327 0.0
C691 C 0.75436 0.26919 0.44685 0.0
C692 C 0.75958 0.26378 0.48046 0.0
C693 C 0.73458 0.24291 0.50014 0.0
C694 C 0.70473 0.22753 0.48613 0.0
C695 C 0.70027 0.23343 0.45184 0.0
H696 H 0.44467 0.67153 0.61389 0.0
H697 H 0.49963 0.72542 0.69966 0.0
H698 H 0.5216 0.77185 0.66341 0.0
H699 H 0.50071 0.71368 0.54637 0.0
H700 H 0.47151 0.70994 0.51694 0.0
H701 H 0.46285 0.68079 0.54859 0.0
H702 H 0.41796 0.68713 0.57075 0.0
H703 H 0.42642 0.71617 0.5392 0.0
H704 H 0.42517 0.72442 0.58373 0.0
H705 H 0.53387 0.81297 0.61882 0.0
H706 H 0.53427 0.84515 0.57107 0.0
H707 H 0.4711 0.7637 0.51486 0.0
C708 C 0.46171 0.69297 0.62505 0.0
C709 C 0.47051 0.69479 0.65967 0.0
C710 C 0.49264 0.72342 0.6732 0.0
C711 C 0.50528 0.74988 0.65275 0.0
C712 C 0.49569 0.74726 0.61882 0.0
C713 C 0.47445 0.71944 0.6051 0.0
C714 C 0.46626 0.72284 0.56876 0.0
C715 C 0.47592 0.7058 0.54369 0.0
C716 C 0.43193 0.71201 0.56544 0.0
C717 C 0.48559 0.75709 0.56431 0.0
C718 C 0.5027 0.77077 0.59329 0.0
C719 C 0.52086 0.80243 0.59589 0.0
C720 C 0.52094 0.82053 0.56858 0.0
C721 C 0.50287 0.807 0.53905 0.0
C722 C 0.48558 0.77479 0.53675 0.0
H723 H 0.73536 0.4631 0.8406 0.0
H724 H 0.81592 0.52493 0.7824 0.0
H725 H 0.78303 0.52426 0.73534 0.0
H726 H 0.69304 0.41695 0.7712 0.0
H727 H 0.65659 0.41095 0.78579 0.0
H728 H 0.6863 0.41833 0.81618 0.0
H729 H 0.68277 0.46424 0.84032 0.0
H730 H 0.65289 0.45689 0.8101 0.0
H731 H 0.68675 0.49408 0.81183 0.0
H732 H 0.7412 0.51419 0.69271 0.0
H733 H 0.69376 0.49606 0.65882 0.0
H734 H 0.64078 0.44079 0.74475 0.0
C735 C 0.74609 0.47697 0.81825 0.0
C736 C 0.7783 0.4942 0.81537 0.0
C737 C 0.79134 0.5116 0.78535 0.0
C738 C 0.77283 0.51139 0.75841 0.0
C739 C 0.74121 0.49369 0.76176 0.0
C740 C 0.72793 0.47692 0.79101 0.0
C741 C 0.69343 0.45871 0.78754 0.0
C742 C 0.68166 0.4242 0.79033 0.0
C743 C 0.67806 0.46912 0.81402 0.0
C744 C 0.68944 0.46751 0.75165 0.0
C745 C 0.71723 0.48783 0.73723 0.0
C746 C 0.71928 0.49846 0.70387 0.0
C747 C 0.69222 0.48801 0.68477 0.0
C748 C 0.66348 0.46707 0.69904 0.0
C749 C 0.66229 0.45692 0.73303 0.0
H750 H 0.32125 0.71105 0.025 0.0
H751 H 0.30834 0.7888 1.00756 0.0
H752 H 0.26994 0.75952 0.96286 0.0
H753 H 0.31659 0.68875 0.93886 0.0
H754 H 0.29643 0.64833 0.94772 0.0
H755 H 0.32151 0.67481 0.97941 0.0
H756 H 0.27723 0.65327 0.02327 0.0
H757 H 0.25206 0.6265 0.9918 0.0
H758 H 0.24187 0.65204 1.01251 0.0
H759 H 0.23534 0.72227 0.91679 0.0
H760 H 0.20499 0.67935 0.87712 0.0
H761 H 0.24026 0.62624 0.9265 0.0
C762 C 0.31013 0.72189 1.01213 0.0
C763 C 0.31784 0.75227 0.01985 0.0
C764 C 0.30271 0.76551 1.00226 0.0
C765 C 0.28096 0.74909 0.97672 0.0
C766 C 0.27441 0.71938 0.96926 0.0
C767 C 0.28834 0.70583 0.9868 0.0
C768 C 0.27777 0.67383 0.9738 0.0
C769 C 0.30468 0.6713 0.95908 0.0
C770 C 0.26124 0.65001 1.00203 0.0
C771 C 0.25583 0.67146 0.94599 0.0
C772 C 0.25426 0.69797 0.94353 0.0
C773 C 0.23621 0.70133 0.91877 0.0
C774 C 0.21915 0.67688 0.89625 0.0
C775 C 0.22007 0.64934 0.8988 0.0
C776 C 0.23876 0.64682 0.92404 0.0
H777 H 0.52216 0.27187 0.18485 0.0
H778 H 0.46503 0.29576 0.1241 0.0
H779 H 0.46568 0.26385 0.077 0.0
H780 H 0.56953 0.27429 0.11818 0.0
H781 H 0.57285 0.24212 0.13246 0.0
H782 H 0.56573 0.26453 0.16287 0.0
H783 H 0.51725 0.21585 0.1839 0.0
H784 H 0.52435 0.19321 0.15368 0.0
H785 H 0.48808 0.19211 0.15356 0.0
H786 H 0.47689 0.23386 0.03408 0.0
H787 H 0.49519 0.20497 0.99997 0.0
H788 H 0.54344 0.19874 0.0887 0.0
C789 C 0.50923 0.26985 0.16194 0.0
C790 C 0.4935 0.28637 0.15832 0.0
C791 C 0.47724 0.28338 0.12765 0.0
C792 C 0.47745 0.26527 0.10065 0.0
C793 C 0.49381 0.24996 0.10466 0.0
C794 C 0.50909 0.2517 0.13467 0.0
C795 C 0.52591 0.23388 0.13175 0.0
C796 C 0.56055 0.25497 0.1366 0.0
C797 C 0.51313 0.20718 0.15724 0.0
C798 C 0.51822 0.22246 0.09525 0.0
C799 C 0.49966 0.23199 0.08007 0.0
C800 C 0.49102 0.22584 0.04585 0.0
C801 C 0.50161 0.20951 0.02663 0.0
C802 C 0.52046 0.1993 0.04169 0.0
C803 C 0.52861 0.20574 0.07657 0.0
loop_
_geom_bond_atom_site_label_1
_geom_bond_atom_site_label_2
_geom_bond_distance
_geom_bond_site_symmetry_2
_ccdc_geom_bond_type
Mg0 O7 2.141 . S
Mg0 O8 2.048 . S
Mg0 O9 2.048 . S
Mg0 O12 2.141 . S
C1 O2 1.313 . S
C1 O8 1.195 . S
O2 C1 1.313 . S
C3 O4 1.245 . S
C3 O12 1.289 . S
O4 C3 1.245 . S
C5 O6 1.245 . S
C5 O7 1.289 . S
O6 C5 1.245 . S
O7 Mg0 2.141 . S
O7 C5 1.289 . S
O8 Mg0 2.048 . S
O8 C1 1.195 . S
O9 Mg0 2.048 . S
O9 C10 1.195 . S
C10 O9 1.195 . S
C10 O11 1.313 . S
O11 C10 1.313 . S
O12 Mg0 2.141 . S
O12 C3 1.289 . S
Mg13 O20 2.141 . S
Mg13 O21 2.048 . S
Mg13 O22 2.048 . S
Mg13 O25 2.141 . S
C14 O15 1.313 . S
C14 O21 1.195 . S
O15 C14 1.313 . S
C16 O17 1.245 . S
C16 O25 1.289 . S
O17 C16 1.245 . S
C18 O19 1.245 . S
C18 O20 1.289 . S
O19 C18 1.245 . S
O20 Mg13 2.141 . S
O20 C18 1.289 . S
O21 Mg13 2.048 . S
O21 C14 1.195 . S
O22 Mg13 2.048 . S
O22 C23 1.195 . S
C23 O22 1.195 . S
C23 O24 1.313 . S
O24 C23 1.313 . S
O25 Mg13 2.141 . S
O25 C16 1.289 . S
Mg26 O33 2.141 . S
Mg26 O34 2.048 . S
Mg26 O35 2.048 . S
Mg26 O38 2.141 . S
C27 O28 1.313 . S
C27 O34 1.195 . S
O28 C27 1.313 . S
C29 O30 1.245 . S
C29 O38 1.289 . S
O30 C29 1.245 . S
C31 O32 1.245 . S
C31 O33 1.289 . S
O32 C31 1.245 . S
O33 Mg26 2.141 . S
O33 C31 1.289 . S
O34 Mg26 2.048 . S
O34 C27 1.195 . S
O35 Mg26 2.048 . S
O35 C36 1.195 . S
C36 O35 1.195 . S
C36 O37 1.313 . S
O37 C36 1.313 . S
O38 Mg26 2.141 . S
O38 C29 1.289 . S
Mg39 O46 2.141 . S
Mg39 O47 2.048 . S
Mg39 O48 2.048 . S
Mg39 O51 2.141 . S
C40 O41 1.313 . S
C40 O47 1.195 . S
O41 C40 1.313 . S
C42 O43 1.245 . S
C42 O51 1.289 . S
O43 C42 1.245 . S
C44 O45 1.245 . S
C44 O46 1.289 . S
O45 C44 1.245 . S
O46 Mg39 2.141 . S
O46 C44 1.289 . S
O47 Mg39 2.048 . S
O47 C40 1.195 . S
O48 Mg39 2.048 . S
O48 C49 1.195 . S
C49 O48 1.195 . S
C49 O50 1.313 . S
O50 C49 1.313 . S
O51 Mg39 2.141 . S
O51 C42 1.289 . S
Mg52 O59 2.141 . S
Mg52 O60 2.048 . S
Mg52 O61 2.048 . S
Mg52 O64 2.141 . S
C53 O54 1.313 . S
C53 O60 1.195 . S
O54 C53 1.313 . S
C55 O56 1.245 . S
C55 O64 1.289 . S
O56 C55 1.245 . S
C57 O58 1.245 . S
C57 O59 1.289 . S
O58 C57 1.245 . S
O59 Mg52 2.141 . S
O59 C57 1.289 . S
O60 Mg52 2.048 . S
O60 C53 1.195 . S
O61 Mg52 2.048 . S
O61 C62 1.195 . S
C62 O61 1.195 . S
C62 O63 1.313 . S
O63 C62 1.313 . S
O64 Mg52 2.141 . S
O64 C55 1.289 . S
Mg65 O72 2.141 . S
Mg65 O73 2.048 . S
Mg65 O74 2.048 . S
Mg65 O77 2.141 . S
C66 O67 1.313 . S
C66 O73 1.195 . S
O67 C66 1.313 . S
C68 O69 1.245 . S
C68 O77 1.289 . S
O69 C68 1.245 . S
C70 O71 1.245 . S
C70 O72 1.289 . S
O71 C70 1.245 . S
O72 Mg65 2.141 . S
O72 C70 1.289 . S
O73 Mg65 2.048 . S
O73 C66 1.195 . S
O74 Mg65 2.048 . S
O74 C75 1.195 . S
C75 O74 1.195 . S
C75 O76 1.313 . S
O76 C75 1.313 . S
O77 Mg65 2.141 . S
O77 C68 1.289 . S
Mg78 O85 2.141 . S
Mg78 O86 2.048 . S
Mg78 O87 2.048 . S
Mg78 O90 2.141 . S
C79 O80 1.313 . S
C79 O86 1.195 . S
O80 C79 1.313 . S
C81 O82 1.245 . S
C81 O90 1.289 . S
O82 C81 1.245 . S
C83 O84 1.245 . S
C83 O85 1.289 . S
O84 C83 1.245 . S
O85 Mg78 2.141 . S
O85 C83 1.289 . S
O86 Mg78 2.048 . S
O86 C79 1.195 . S
O87 Mg78 2.048 . S
O87 C88 1.195 . S
C88 O87 1.195 . S
C88 O89 1.313 . S
O89 C88 1.313 . S
O90 Mg78 2.141 . S
O90 C81 1.289 . S
Mg91 O98 2.141 . S
Mg91 O99 2.048 . S
Mg91 O100 2.048 . S
Mg91 O103 2.141 . S
C92 O93 1.313 . S
C92 O99 1.195 . S
O93 C92 1.313 . S
C94 O95 1.245 . S
C94 O103 1.289 . S
O95 C94 1.245 . S
C96 O97 1.245 . S
C96 O98 1.289 . S
O97 C96 1.245 . S
O98 Mg91 2.141 . S
O98 C96 1.289 . S
O99 Mg91 2.048 . S
O99 C92 1.195 . S
O100 Mg91 2.048 . S
O100 C101 1.195 . S
C101 O100 1.195 . S
C101 O102 1.313 . S
O102 C101 1.313 . S
O103 Mg91 2.141 . S
O103 C94 1.289 . S
Mg104 O111 2.141 . S
Mg104 O112 2.048 . S
Mg104 O113 2.048 . S
Mg104 O116 2.141 . S
C105 O106 1.313 . S
C105 O112 1.195 . S
O106 C105 1.313 . S
C107 O108 1.245 . S
C107 O116 1.289 . S
O108 C107 1.245 . S
C109 O110 1.245 . S
C109 O111 1.289 . S
O110 C109 1.245 . S
O111 Mg104 2.141 . S
O111 C109 1.289 . S
O112 Mg104 2.048 . S
O112 C105 1.195 . S
O113 Mg104 2.048 . S
O113 C114 1.195 . S
C114 O113 1.195 . S
C114 O115 1.313 . S
O115 C114 1.313 . S
O116 Mg104 2.141 . S
O116 C107 1.289 . S
Mg117 O124 2.141 . S
Mg117 O125 2.048 . S
Mg117 O126 2.048 . S
Mg117 O129 2.141 . S
C118 O119 1.313 . S
C118 O125 1.195 . S
O119 C118 1.313 . S
C120 O121 1.245 . S
C120 O129 1.289 . S
O121 C120 1.245 . S
C122 O123 1.245 . S
C122 O124 1.289 . S
O123 C122 1.245 . S
O124 Mg117 2.141 . S
O124 C122 1.289 . S
O125 Mg117 2.048 . S
O125 C118 1.195 . S
O126 Mg117 2.048 . S
O126 C127 1.195 . S
C127 O126 1.195 . S
C127 O128 1.313 . S
O128 C127 1.313 . S
O129 Mg117 2.141 . S
O129 C120 1.289 . S
Mg130 O137 2.141 . S
Mg130 O138 2.048 . S
Mg130 O139 2.048 . S
Mg130 O142 2.141 . S
C131 O132 1.313 . S
C131 O138 1.195 . S
O132 C131 1.313 . S
C133 O134 1.245 . S
C133 O142 1.289 . S
O134 C133 1.245 . S
C135 O136 1.245 . S
C135 O137 1.289 . S
O136 C135 1.245 . S
O137 Mg130 2.141 . S
O137 C135 1.289 . S
O138 Mg130 2.048 . S
O138 C131 1.195 . S
O139 Mg130 2.048 . S
O139 C140 1.195 . S
C140 O139 1.195 . S
C140 O141 1.313 . S
O141 C140 1.313 . S
O142 Mg130 2.141 . S
O142 C133 1.289 . S
Mg143 O150 2.141 . S
Mg143 O151 2.048 . S
Mg143 O152 2.048 . S
Mg143 O155 2.141 . S
C144 O145 1.313 . S
C144 O151 1.195 . S
O145 C144 1.313 . S
C146 O147 1.245 . S
C146 O155 1.289 . S
O147 C146 1.245 . S
C148 O149 1.245 . S
C148 O150 1.289 . S
O149 C148 1.245 . S
O150 Mg143 2.141 . S
O150 C148 1.289 . S
O151 Mg143 2.048 . S
O151 C144 1.195 . S
O152 Mg143 2.048 . S
O152 C153 1.195 . S
C153 O152 1.195 . S
C153 O154 1.313 . S
O154 C153 1.313 . S
O155 Mg143 2.141 . S
O155 C146 1.289 . S
H156 C168 0.930 . S
H157 C170 0.930 . S
H158 C171 0.930 . S
H159 C175 0.959 . S
H160 C175 0.959 . S
H161 C175 0.961 . S
H162 C176 0.960 . S
H163 C176 0.961 . S
H164 C176 0.959 . S
H165 C179 0.929 . S
H166 C180 0.931 . S
H167 C182 0.930 . S
C168 H156 0.930 . S
C168 C169 1.399 . S
C168 C173 1.399 . S
C169 C168 1.399 . S
C169 C170 1.376 . S
C170 H157 0.930 . S
C170 C169 1.376 . S
C170 C171 1.388 . S
C171 H158 0.930 . S
C171 C170 1.388 . S
C171 C172 1.390 . S
C172 C171 1.390 . S
C172 C173 1.394 . S
C172 C178 1.465 . S
C173 C168 1.399 . S
C173 C172 1.394 . S
C173 C174 1.516 . S
C174 C173 1.516 . S
C174 C175 1.502 . S
C174 C176 1.561 . S
C174 C177 1.526 . S
C175 H159 0.959 . S
C175 H160 0.959 . S
C175 H161 0.961 . S
C175 C174 1.502 . S
C176 H162 0.960 . S
C176 H163 0.961 . S
C176 H164 0.959 . S
C176 C174 1.561 . S
C177 C174 1.526 . S
C177 C178 1.396 . S
C177 C182 1.390 . S
C178 C172 1.465 . S
C178 C177 1.396 . S
C178 C179 1.399 . S
C179 H165 0.929 . S
C179 C178 1.399 . S
C179 C180 1.385 . S
C180 H166 0.931 . S
C180 C179 1.385 . S
C180 C181 1.389 . S
C181 C180 1.389 . S
C181 C182 1.387 . S
C182 H167 0.930 . S
C182 C177 1.390 . S
C182 C181 1.387 . S
H183 C195 0.930 . S
H184 C197 0.930 . S
H185 C198 0.930 . S
H186 C202 0.959 . S
H187 C202 0.959 . S
H188 C202 0.961 . S
H189 C203 0.960 . S
H190 C203 0.961 . S
H191 C203 0.959 . S
H192 C206 0.929 . S
H193 C207 0.931 . S
H194 C209 0.930 . S
C195 H183 0.930 . S
C195 C196 1.399 . S
C195 C200 1.399 . S
C196 C195 1.399 . S
C196 C197 1.376 . S
C197 H184 0.930 . S
C197 C196 1.376 . S
C197 C198 1.388 . S
C198 H185 0.930 . S
C198 C197 1.388 . S
C198 C199 1.390 . S
C199 C198 1.390 . S
C199 C200 1.394 . S
C199 C205 1.465 . S
C200 C195 1.399 . S
C200 C199 1.394 . S
C200 C201 1.516 . S
C201 C200 1.516 . S
C201 C202 1.502 . S
C201 C203 1.561 . S
C201 C204 1.526 . S
C202 H186 0.959 . S
C202 H187 0.959 . S
C202 H188 0.961 . S
C202 C201 1.502 . S
C203 H189 0.960 . S
C203 H190 0.961 . S
C203 H191 0.959 . S
C203 C201 1.561 . S
C204 C201 1.526 . S
C204 C205 1.396 . S
C204 C209 1.390 . S
C205 C199 1.465 . S
C205 C204 1.396 . S
C205 C206 1.399 . S
C206 H192 0.929 . S
C206 C205 1.399 . S
C206 C207 1.385 . S
C207 H193 0.931 . S
C207 C206 1.385 . S
C207 C208 1.389 . S
C208 C207 1.389 . S
C208 C209 1.387 . S
C209 H194 0.930 . S
C209 C204 1.390 . S
C209 C208 1.387 . S
H210 C222 0.930 . S
H211 C224 0.930 . S
H212 C225 0.930 . S
H213 C229 0.959 . S
H214 C229 0.959 . S
H215 C229 0.961 . S
H216 C230 0.960 . S
H217 C230 0.961 . S
H218 C230 0.959 . S
H219 C233 0.929 . S
H220 C234 0.931 . S
H221 C236 0.930 . S
C222 H210 0.930 . S
C222 C223 1.399 . S
C222 C227 1.399 . S
C223 C222 1.399 . S
C223 C224 1.376 . S
C224 H211 0.930 . S
C224 C223 1.376 . S
C224 C225 1.388 . S
C225 H212 0.930 . S
C225 C224 1.388 . S
C225 C226 1.390 . S
C226 C225 1.390 . S
C226 C227 1.394 . S
C226 C232 1.465 . S
C227 C222 1.399 . S
C227 C226 1.394 . S
C227 C228 1.516 . S
C228 C227 1.516 . S
C228 C229 1.502 . S
C228 C230 1.561 . S
C228 C231 1.526 . S
C229 H213 0.959 . S
C229 H214 0.959 . S
C229 H215 0.961 . S
C229 C228 1.502 . S
C230 H216 0.960 . S
C230 H217 0.961 . S
C230 H218 0.959 . S
C230 C228 1.561 . S
C231 C228 1.526 . S
C231 C232 1.396 . S
C231 C236 1.390 . S
C232 C226 1.465 . S
C232 C231 1.396 . S
C232 C233 1.399 . S
C233 H219 0.929 . S
C233 C232 1.399 . S
C233 C234 1.385 . S
C234 H220 0.931 . S
C234 C233 1.385 . S
C234 C235 1.389 . S
C235 C234 1.389 . S
C235 C236 1.387 . S
C236 H221 0.930 . S
C236 C231 1.390 . S
C236 C235 1.387 . S
H237 C249 0.930 . S
H238 C251 0.930 . S
H239 C252 0.930 . S
H240 C256 0.959 . S
H241 C256 0.959 . S
H242 C256 0.961 . S
H243 C257 0.960 . S
H244 C257 0.961 . S
H245 C257 0.959 . S
H246 C260 0.929 . S
H247 C261 0.931 . S
H248 C263 0.930 . S
C249 H237 0.930 . S
C249 C250 1.399 . S
C249 C254 1.399 . S
C250 C249 1.399 . S
C250 C251 1.376 . S
C251 H238 0.930 . S
C251 C250 1.376 . S
C251 C252 1.388 . S
C252 H239 0.930 . S
C252 C251 1.388 . S
C252 C253 1.390 . S
C253 C252 1.390 . S
C253 C254 1.394 . S
C253 C259 1.465 . S
C254 C249 1.399 . S
C254 C253 1.394 . S
C254 C255 1.516 . S
C255 C254 1.516 . S
C255 C256 1.502 . S
C255 C257 1.561 . S
C255 C258 1.526 . S
C256 H240 0.959 . S
C256 H241 0.959 . S
C256 H242 0.961 . S
C256 C255 1.502 . S
C257 H243 0.960 . S
C257 H244 0.961 . S
C257 H245 0.959 . S
C257 C255 1.561 . S
C258 C255 1.526 . S
C258 C259 1.396 . S
C258 C263 1.390 . S
C259 C253 1.465 . S
C259 C258 1.396 . S
C259 C260 1.399 . S
C260 H246 0.929 . S
C260 C259 1.399 . S
C260 C261 1.385 . S
C261 H247 0.931 . S
C261 C260 1.385 . S
C261 C262 1.389 . S
C262 C261 1.389 . S
C262 C263 1.387 . S
C263 H248 0.930 . S
C263 C258 1.390 . S
C263 C262 1.387 . S
H264 C276 0.930 . S
H265 C278 0.930 . S
H266 C279 0.930 . S
H267 C283 0.959 . S
H268 C283 0.959 . S
H269 C283 0.961 . S
H270 C284 0.960 . S
H271 C284 0.961 . S
H272 C284 0.959 . S
H273 C287 0.929 . S
H274 C288 0.931 . S
H275 C290 0.930 . S
C276 H264 0.930 . S
C276 C277 1.399 . S
C276 C281 1.399 . S
C277 C276 1.399 . S
C277 C278 1.376 . S
C278 H265 0.930 . S
C278 C277 1.376 . S
C278 C279 1.388 . S
C279 H266 0.930 . S
C279 C278 1.388 . S
C279 C280 1.390 . S
C280 C279 1.390 . S
C280 C281 1.394 . S
C280 C286 1.465 . S
C281 C276 1.399 . S
C281 C280 1.394 . S
C281 C282 1.516 . S
C282 C281 1.516 . S
C282 C283 1.502 . S
C282 C284 1.561 . S
C282 C285 1.526 . S
C283 H267 0.959 . S
C283 H268 0.959 . S
C283 H269 0.961 . S
C283 C282 1.502 . S
C284 H270 0.960 . S
C284 H271 0.961 . S
C284 H272 0.959 . S
C284 C282 1.561 . S
C285 C282 1.526 . S
C285 C286 1.396 . S
C285 C290 1.390 . S
C286 C280 1.465 . S
C286 C285 1.396 . S
C286 C287 1.399 . S
C287 H273 0.929 . S
C287 C286 1.399 . S
C287 C288 1.385 . S
C288 H274 0.931 . S
C288 C287 1.385 . S
C288 C289 1.389 . S
C289 C288 1.389 . S
C289 C290 1.387 . S
C290 H275 0.930 . S
C290 C285 1.390 . S
C290 C289 1.387 . S
H291 C303 0.930 . S
H292 C305 0.930 . S
H293 C306 0.930 . S
H294 C310 0.959 . S
H295 C310 0.959 . S
H296 C310 0.961 . S
H297 C311 0.960 . S
H298 C311 0.961 . S
H299 C311 0.959 . S
H300 C314 0.929 . S
H301 C315 0.931 . S
H302 C317 0.930 . S
C303 H291 0.930 . S
C303 C304 1.399 . S
C303 C308 1.399 . S
C304 C303 1.399 . S
C304 C305 1.376 . S
C305 H292 0.930 . S
C305 C304 1.376 . S
C305 C306 1.388 . S
C306 H293 0.930 . S
C306 C305 1.388 . S
C306 C307 1.390 . S
C307 C306 1.390 . S
C307 C308 1.394 . S
C307 C313 1.465 . S
C308 C303 1.399 . S
C308 C307 1.394 . S
C308 C309 1.516 . S
C309 C308 1.516 . S
C309 C310 1.502 . S
C309 C311 1.561 . S
C309 C312 1.526 . S
C310 H294 0.959 . S
C310 H295 0.959 . S
C310 H296 0.961 . S
C310 C309 1.502 . S
C311 H297 0.960 . S
C311 H298 0.961 . S
C311 H299 0.959 . S
C311 C309 1.561 . S
C312 C309 1.526 . S
C312 C313 1.396 . S
C312 C317 1.390 . S
C313 C307 1.465 . S
C313 C312 1.396 . S
C313 C314 1.399 . S
C314 H300 0.929 . S
C314 C313 1.399 . S
C314 C315 1.385 . S
C315 H301 0.931 . S
C315 C314 1.385 . S
C315 C316 1.389 . S
C316 C315 1.389 . S
C316 C317 1.387 . S
C317 H302 0.930 . S
C317 C312 1.390 . S
C317 C316 1.387 . S
H318 C330 0.930 . S
H319 C332 0.930 . S
H320 C333 0.930 . S
H321 C337 0.959 . S
H322 C337 0.959 . S
H323 C337 0.961 . S
H324 C338 0.960 . S
H325 C338 0.961 . S
H326 C338 0.959 . S
H327 C341 0.929 . S
H328 C342 0.931 . S
H329 C344 0.930 . S
C330 H318 0.930 . S
C330 C331 1.399 . S
C330 C335 1.399 . S
C331 C330 1.399 . S
C331 C332 1.376 . S
C332 H319 0.930 . S
C332 C331 1.376 . S
C332 C333 1.388 . S
C333 H320 0.930 . S
C333 C332 1.388 . S
C333 C334 1.390 . S
C334 C333 1.390 . S
C334 C335 1.394 . S
C334 C340 1.465 . S
C335 C330 1.399 . S
C335 C334 1.394 . S
C335 C336 1.516 . S
C336 C335 1.516 . S
C336 C337 1.502 . S
C336 C338 1.561 . S
C336 C339 1.526 . S
C337 H321 0.959 . S
C337 H322 0.959 . S
C337 H323 0.961 . S
C337 C336 1.502 . S
C338 H324 0.960 . S
C338 H325 0.961 . S
C338 H326 0.959 . S
C338 C336 1.561 . S
C339 C336 1.526 . S
C339 C340 1.396 . S
C339 C344 1.390 . S
C340 C334 1.465 . S
C340 C339 1.396 . S
C340 C341 1.399 . S
C341 H327 0.929 . S
C341 C340 1.399 . S
C341 C342 1.385 . S
C342 H328 0.931 . S
C342 C341 1.385 . S
C342 C343 1.389 . S
C343 C342 1.389 . S
C343 C344 1.387 . S
C344 H329 0.930 . S
C344 C339 1.390 . S
C344 C343 1.387 . S
H345 C357 0.930 . S
H346 C359 0.930 . S
H347 C360 0.930 . S
H348 C364 0.959 . S
H349 C364 0.959 . S
H350 C364 0.961 . S
H351 C365 0.960 . S
H352 C365 0.961 . S
H353 C365 0.959 . S
H354 C368 0.929 . S
H355 C369 0.931 . S
H356 C371 0.930 . S
C357 H345 0.930 . S
C357 C358 1.399 . S
C357 C362 1.399 . S
C358 C357 1.399 . S
C358 C359 1.376 . S
C359 H346 0.930 . S
C359 C358 1.376 . S
C359 C360 1.388 . S
C360 H347 0.930 . S
C360 C359 1.388 . S
C360 C361 1.390 . S
C361 C360 1.390 . S
C361 C362 1.394 . S
C361 C367 1.465 . S
C362 C357 1.399 . S
C362 C361 1.394 . S
C362 C363 1.516 . S
C363 C362 1.516 . S
C363 C364 1.502 . S
C363 C365 1.561 . S
C363 C366 1.526 . S
C364 H348 0.959 . S
C364 H349 0.959 . S
C364 H350 0.961 . S
C364 C363 1.502 . S
C365 H351 0.960 . S
C365 H352 0.961 . S
C365 H353 0.959 . S
C365 C363 1.561 . S
C366 C363 1.526 . S
C366 C367 1.396 . S
C366 C371 1.390 . S
C367 C361 1.465 . S
C367 C366 1.396 . S
C367 C368 1.399 . S
C368 H354 0.929 . S
C368 C367 1.399 . S
C368 C369 1.385 . S
C369 H355 0.931 . S
C369 C368 1.385 . S
C369 C370 1.389 . S
C370 C369 1.389 . S
C370 C371 1.387 . S
C371 H356 0.930 . S
C371 C366 1.390 . S
C371 C370 1.387 . S
H372 C384 0.930 . S
H373 C386 0.930 . S
H374 C387 0.930 . S
H375 C391 0.959 . S
H376 C391 0.959 . S
H377 C391 0.961 . S
H378 C392 0.960 . S
H379 C392 0.961 . S
H380 C392 0.959 . S
H381 C395 0.929 . S
H382 C396 0.931 . S
H383 C398 0.930 . S
C384 H372 0.930 . S
C384 C385 1.399 . S
C384 C389 1.399 . S
C385 C384 1.399 . S
C385 C386 1.376 . S
C386 H373 0.930 . S
C386 C385 1.376 . S
C386 C387 1.388 . S
C387 H374 0.930 . S
C387 C386 1.388 . S
C387 C388 1.390 . S
C388 C387 1.390 . S
C388 C389 1.394 . S
C388 C394 1.465 . S
C389 C384 1.399 . S
C389 C388 1.394 . S
C389 C390 1.516 . S
C390 C389 1.516 . S
C390 C391 1.502 . S
C390 C392 1.561 . S
C390 C393 1.526 . S
C391 H375 0.959 . S
C391 H376 0.959 . S
C391 H377 0.961 . S
C391 C390 1.502 . S
C392 H378 0.960 . S
C392 H379 0.961 . S
C392 H380 0.959 . S
C392 C390 1.561 . S
C393 C390 1.526 . S
C393 C394 1.396 . S
C393 C398 1.390 . S
C394 C388 1.465 . S
C394 C393 1.396 . S
C394 C395 1.399 . S
C395 H381 0.929 . S
C395 C394 1.399 . S
C395 C396 1.385 . S
C396 H382 0.931 . S
C396 C395 1.385 . S
C396 C397 1.389 . S
C397 C396 1.389 . S
C397 C398 1.387 . S
C398 H383 0.930 . S
C398 C393 1.390 . S
C398 C397 1.387 . S
H399 C411 0.930 . S
H400 C413 0.930 . S
H401 C414 0.930 . S
H402 C418 0.959 . S
H403 C418 0.959 . S
H404 C418 0.961 . S
H405 C419 0.960 . S
H406 C419 0.961 . S
H407 C419 0.959 . S
H408 C422 0.929 . S
H409 C423 0.931 . S
H410 C425 0.930 . S
C411 H399 0.930 . S
C411 C412 1.399 . S
C411 C416 1.399 . S
C412 C411 1.399 . S
C412 C413 1.376 . S
C413 H400 0.930 . S
C413 C412 1.376 . S
C413 C414 1.388 . S
C414 H401 0.930 . S
C414 C413 1.388 . S
C414 C415 1.390 . S
C415 C414 1.390 . S
C415 C416 1.394 . S
C415 C421 1.465 . S
C416 C411 1.399 . S
C416 C415 1.394 . S
C416 C417 1.516 . S
C417 C416 1.516 . S
C417 C418 1.502 . S
C417 C419 1.561 . S
C417 C420 1.526 . S
C418 H402 0.959 . S
C418 H403 0.959 . S
C418 H404 0.961 . S
C418 C417 1.502 . S
C419 H405 0.960 . S
C419 H406 0.961 . S
C419 H407 0.959 . S
C419 C417 1.561 . S
C420 C417 1.526 . S
C420 C421 1.396 . S
C420 C425 1.390 . S
C421 C415 1.465 . S
C421 C420 1.396 . S
C421 C422 1.399 . S
C422 H408 0.929 . S
C422 C421 1.399 . S
C422 C423 1.385 . S
C423 H409 0.931 . S
C423 C422 1.385 . S
C423 C424 1.389 . S
C424 C423 1.389 . S
C424 C425 1.387 . S
C425 H410 0.930 . S
C425 C420 1.390 . S
C425 C424 1.387 . S
H426 C438 0.930 . S
H427 C440 0.930 . S
H428 C441 0.930 . S
H429 C445 0.959 . S
H430 C445 0.959 . S
H431 C445 0.961 . S
H432 C446 0.960 . S
H433 C446 0.961 . S
H434 C446 0.959 . S
H435 C449 0.929 . S
H436 C450 0.931 . S
H437 C452 0.930 . S
C438 H426 0.930 . S
C438 C439 1.399 . S
C438 C443 1.399 . S
C439 C438 1.399 . S
C439 C440 1.376 . S
C440 H427 0.930 . S
C440 C439 1.376 . S
C440 C441 1.388 . S
C441 H428 0.930 . S
C441 C440 1.388 . S
C441 C442 1.390 . S
C442 C441 1.390 . S
C442 C443 1.394 . S
C442 C448 1.465 . S
C443 C438 1.399 . S
C443 C442 1.394 . S
C443 C444 1.516 . S
C444 C443 1.516 . S
C444 C445 1.502 . S
C444 C446 1.561 . S
C444 C447 1.526 . S
C445 H429 0.959 . S
C445 H430 0.959 . S
C445 H431 0.961 . S
C445 C444 1.502 . S
C446 H432 0.960 . S
C446 H433 0.961 . S
C446 H434 0.959 . S
C446 C444 1.561 . S
C447 C444 1.526 . S
C447 C448 1.396 . S
C447 C452 1.390 . S
C448 C442 1.465 . S
C448 C447 1.396 . S
C448 C449 1.399 . S
C449 H435 0.929 . S
C449 C448 1.399 . S
C449 C450 1.385 . S
C450 H436 0.931 . S
C450 C449 1.385 . S
C450 C451 1.389 . S
C451 C450 1.389 . S
C451 C452 1.387 . S
C452 H437 0.930 . S
C452 C447 1.390 . S
C452 C451 1.387 . S
H453 C465 0.930 . S
H454 C467 0.930 . S
H455 C468 0.930 . S
H456 C472 0.959 . S
H457 C472 0.959 . S
H458 C472 0.961 . S
H459 C473 0.960 . S
H460 C473 0.961 . S
H461 C473 0.959 . S
H462 C476 0.929 . S
H463 C477 0.931 . S
H464 C479 0.930 . S
C465 H453 0.930 . S
C465 C466 1.399 . S
C465 C470 1.399 . S
C466 C465 1.399 . S
C466 C467 1.376 . S
C467 H454 0.930 . S
C467 C466 1.376 . S
C467 C468 1.388 . S
C468 H455 0.930 . S
C468 C467 1.388 . S
C468 C469 1.390 . S
C469 C468 1.390 . S
C469 C470 1.394 . S
C469 C475 1.465 . S
C470 C465 1.399 . S
C470 C469 1.394 . S
C470 C471 1.516 . S
C471 C470 1.516 . S
C471 C472 1.502 . S
C471 C473 1.561 . S
C471 C474 1.526 . S
C472 H456 0.959 . S
C472 H457 0.959 . S
C472 H458 0.961 . S
C472 C471 1.502 . S
C473 H459 0.960 . S
C473 H460 0.961 . S
C473 H461 0.959 . S
C473 C471 1.561 . S
C474 C471 1.526 . S
C474 C475 1.396 . S
C474 C479 1.390 . S
C475 C469 1.465 . S
C475 C474 1.396 . S
C475 C476 1.399 . S
C476 H462 0.929 . S
C476 C475 1.399 . S
C476 C477 1.385 . S
C477 H463 0.931 . S
C477 C476 1.385 . S
C477 C478 1.389 . S
C478 C477 1.389 . S
C478 C479 1.387 . S
C479 H464 0.930 . S
C479 C474 1.390 . S
C479 C478 1.387 . S
H480 C492 0.930 . S
H481 C494 0.930 . S
H482 C495 0.930 1_455 S
H483 C499 0.959 . S
H484 C499 0.959 . S
H485 C499 0.961 . S
H486 C500 0.960 . S
H487 C500 0.961 . S
H488 C500 0.959 . S
H489 C503 0.929 . S
H490 C504 0.931 . S
H491 C506 0.930 . S
C492 H480 0.930 . S
C492 C493 1.399 . S
C492 C497 1.399 . S
C493 C492 1.399 . S
C493 C494 1.376 . S
C494 H481 0.930 . S
C494 C493 1.376 . S
C494 C495 1.388 . S
C495 H482 0.930 1_655 S
C495 C494 1.388 . S
C495 C496 1.390 . S
C496 C495 1.390 . S
C496 C497 1.394 . S
C496 C502 1.465 1_655 S
C497 C492 1.399 . S
C497 C496 1.394 . S
C497 C498 1.516 . S
C498 C497 1.516 . S
C498 C499 1.502 . S
C498 C500 1.561 . S
C498 C501 1.526 1_655 S
C499 H483 0.959 . S
C499 H484 0.959 . S
C499 H485 0.961 . S
C499 C498 1.502 . S
C500 H486 0.960 . S
C500 H487 0.961 . S
C500 H488 0.959 . S
C500 C498 1.561 . S
C501 C498 1.526 1_455 S
C501 C502 1.396 . S
C501 C506 1.390 . S
C502 C496 1.465 1_455 S
C502 C501 1.396 . S
C502 C503 1.399 . S
C503 H489 0.929 . S
C503 C502 1.399 . S
C503 C504 1.385 . S
C504 H490 0.931 . S
C504 C503 1.385 . S
C504 C505 1.389 . S
C505 C504 1.389 . S
C505 C506 1.387 . S
C506 H491 0.930 . S
C506 C501 1.390 . S
C506 C505 1.387 . S
H507 C519 0.930 . S
H508 C521 0.930 . S
H509 C522 0.930 . S
H510 C526 0.959 . S
H511 C526 0.959 . S
H512 C526 0.961 . S
H513 C527 0.960 . S
H514 C527 0.961 . S
H515 C527 0.959 . S
H516 C530 0.929 1_565 S
H517 C531 0.931 . S
H518 C533 0.930 . S
C519 H507 0.930 . S
C519 C520 1.399 . S
C519 C524 1.399 . S
C520 C519 1.399 . S
C520 C521 1.376 . S
C521 H508 0.930 . S
C521 C520 1.376 . S
C521 C522 1.388 . S
C522 H509 0.930 . S
C522 C521 1.388 . S
C522 C523 1.390 . S
C523 C522 1.390 . S
C523 C524 1.394 . S
C523 C529 1.465 1_565 S
C524 C519 1.399 . S
C524 C523 1.394 . S
C524 C525 1.516 1_565 S
C525 C524 1.516 1_545 S
C525 C526 1.502 . S
C525 C527 1.561 . S
C525 C528 1.526 . S
C526 H510 0.959 . S
C526 H511 0.959 . S
C526 H512 0.961 . S
C526 C525 1.502 . S
C527 H513 0.960 . S
C527 H514 0.961 . S
C527 H515 0.959 . S
C527 C525 1.561 . S
C528 C525 1.526 . S
C528 C529 1.396 . S
C528 C533 1.390 . S
C529 C523 1.465 1_545 S
C529 C528 1.396 . S
C529 C530 1.399 . S
C530 H516 0.929 1_545 S
C530 C529 1.399 . S
C530 C531 1.385 . S
C531 H517 0.931 . S
C531 C530 1.385 . S
C531 C532 1.389 . S
C532 C531 1.389 . S
C532 C533 1.387 . S
C533 H518 0.930 . S
C533 C528 1.390 . S
C533 C532 1.387 . S
H534 C546 0.930 . S
H535 C548 0.930 . S
H536 C549 0.930 . S
H537 C553 0.959 . S
H538 C553 0.959 . S
H539 C553 0.961 . S
H540 C554 0.960 . S
H541 C554 0.961 . S
H542 C554 0.959 . S
H543 C557 0.929 . S
H544 C558 0.931 . S
H545 C560 0.930 . S
C546 H534 0.930 . S
C546 C547 1.399 . S
C546 C551 1.399 . S
C547 C546 1.399 . S
C547 C548 1.376 . S
C548 H535 0.930 . S
C548 C547 1.376 . S
C548 C549 1.388 . S
C549 H536 0.930 . S
C549 C548 1.388 . S
C549 C550 1.390 . S
C550 C549 1.390 . S
C550 C551 1.394 . S
C550 C556 1.465 . S
C551 C546 1.399 . S
C551 C550 1.394 . S
C551 C552 1.516 . S
C552 C551 1.516 . S
C552 C553 1.502 . S
C552 C554 1.561 . S
C552 C555 1.526 . S
C553 H537 0.959 . S
C553 H538 0.959 . S
C553 H539 0.961 . S
C553 C552 1.502 . S
C554 H540 0.960 . S
C554 H541 0.961 . S
C554 H542 0.959 . S
C554 C552 1.561 . S
C555 C552 1.526 . S
C555 C556 1.396 . S
C555 C560 1.390 . S
C556 C550 1.465 . S
C556 C555 1.396 . S
C556 C557 1.399 . S
C557 H543 0.929 . S
C557 C556 1.399 . S
C557 C558 1.385 . S
C558 H544 0.931 . S
C558 C557 1.385 . S
C558 C559 1.389 . S
C559 C558 1.389 . S
C559 C560 1.387 . S
C560 H545 0.930 . S
C560 C555 1.390 . S
C560 C559 1.387 . S
H561 C573 0.930 . S
H562 C575 0.930 . S
H563 C576 0.930 . S
H564 C580 0.959 . S
H565 C580 0.959 . S
H566 C580 0.961 1_455 S
H567 C581 0.960 . S
H568 C581 0.961 . S
H569 C581 0.959 . S
H570 C584 0.929 . S
H571 C585 0.931 . S
H572 C587 0.930 . S
C573 H561 0.930 . S
C573 C574 1.399 . S
C573 C578 1.399 . S
C574 C573 1.399 . S
C574 C575 1.376 . S
C575 H562 0.930 . S
C575 C574 1.376 . S
C575 C576 1.388 . S
C576 H563 0.930 . S
C576 C575 1.388 . S
C576 C577 1.390 . S
C577 C576 1.390 . S
C577 C578 1.394 . S
C577 C583 1.465 1_455 S
C578 C573 1.399 . S
C578 C577 1.394 . S
C578 C579 1.526 . S
C579 C578 1.526 . S
C579 C580 1.501 1_455 S
C579 C581 1.586 . S
C579 C582 1.492 1_455 S
C580 H564 0.959 . S
C580 H565 0.959 . S
C580 H566 0.961 1_655 S
C580 C579 1.501 1_655 S
C581 H567 0.960 . S
C581 H568 0.961 . S
C581 H569 0.959 . S
C581 C579 1.586 . S
C582 C579 1.492 1_655 S
C582 C583 1.396 . S
C582 C587 1.390 . S
C583 C577 1.465 1_655 S
C583 C582 1.396 . S
C583 C584 1.399 . S
C584 H570 0.929 . S
C584 C583 1.399 . S
C584 C585 1.385 . S
C585 H571 0.931 . S
C585 C584 1.385 . S
C585 C586 1.389 . S
C586 C585 1.389 . S
C586 C587 1.387 . S
C587 H572 0.930 . S
C587 C582 1.390 . S
C587 C586 1.387 . S
H588 C600 0.930 . S
H589 C602 0.930 . S
H590 C603 0.930 . S
H591 C607 0.959 . S
H592 C607 0.959 . S
H593 C607 0.961 . S
H594 C608 0.960 . S
H595 C608 0.961 . S
H596 C608 0.959 . S
H597 C611 0.929 . S
H598 C612 0.931 . S
H599 C614 0.930 . S
C600 H588 0.930 . S
C600 C601 1.399 . S
C600 C605 1.399 . S
C601 C600 1.399 . S
C601 C602 1.376 . S
C602 H589 0.930 . S
C602 C601 1.376 . S
C602 C603 1.388 1_556 S
C603 H590 0.930 . S
C603 C602 1.388 1_554 S
C603 C604 1.390 1_554 S
C604 C603 1.390 1_556 S
C604 C605 1.394 . S
C604 C610 1.465 1_546 S
C605 C600 1.399 . S
C605 C604 1.394 . S
C605 C606 1.516 1_545 S
C606 C605 1.516 1_565 S
C606 C607 1.502 . S
C606 C608 1.561 . S
C606 C609 1.526 1_556 S
C607 H591 0.959 . S
C607 H592 0.959 . S
C607 H593 0.961 . S
C607 C606 1.502 . S
C608 H594 0.960 . S
C608 H595 0.961 . S
C608 H596 0.959 . S
C608 C606 1.561 . S
C609 C606 1.526 1_554 S
C609 C610 1.396 . S
C609 C614 1.390 . S
C610 C604 1.465 1_564 S
C610 C609 1.396 . S
C610 C611 1.399 . S
C611 H597 0.929 . S
C611 C610 1.399 . S
C611 C612 1.385 . S
C612 H598 0.931 . S
C612 C611 1.385 . S
C612 C613 1.389 . S
C613 C612 1.389 . S
C613 C614 1.387 . S
C614 H599 0.930 . S
C614 C609 1.390 . S
C614 C613 1.387 . S
H615 C627 0.930 . S
H616 C629 0.930 . S
H617 C630 0.930 . S
H618 C634 0.959 . S
H619 C634 0.959 . S
H620 C634 0.961 . S
H621 C635 0.960 . S
H622 C635 0.961 . S
H623 C635 0.959 . S
H624 C638 0.929 . S
H625 C639 0.931 . S
H626 C641 0.930 . S
C627 H615 0.930 . S
C627 C628 1.399 . S
C627 C632 1.399 . S
C628 C627 1.399 . S
C628 C629 1.376 . S
C629 H616 0.930 . S
C629 C628 1.376 . S
C629 C630 1.388 . S
C630 H617 0.930 . S
C630 C629 1.388 . S
C630 C631 1.390 . S
C631 C630 1.390 . S
C631 C632 1.394 . S
C631 C637 1.465 . S
C632 C627 1.399 . S
C632 C631 1.394 . S
C632 C633 1.516 . S
C633 C632 1.516 . S
C633 C634 1.502 . S
C633 C635 1.561 . S
C633 C636 1.526 . S
C634 H618 0.959 . S
C634 H619 0.959 . S
C634 H620 0.961 . S
C634 C633 1.502 . S
C635 H621 0.960 . S
C635 H622 0.961 . S
C635 H623 0.959 . S
C635 C633 1.561 . S
C636 C633 1.526 . S
C636 C637 1.396 . S
C636 C641 1.390 . S
C637 C631 1.465 . S
C637 C636 1.396 . S
C637 C638 1.399 . S
C638 H624 0.929 . S
C638 C637 1.399 . S
C638 C639 1.385 . S
C639 H625 0.931 . S
C639 C638 1.385 . S
C639 C640 1.389 . S
C640 C639 1.389 . S
C640 C641 1.387 . S
C641 H626 0.930 . S
C641 C636 1.390 . S
C641 C640 1.387 . S
H642 C654 0.930 . S
H643 C656 0.930 . S
H644 C657 0.930 . S
H645 C661 0.959 . S
H646 C661 0.959 . S
H647 C661 0.961 . S
H648 C662 0.960 . S
H649 C662 0.961 . S
H650 C662 0.959 . S
H651 C665 0.929 . S
H652 C666 0.931 . S
H653 C668 0.930 . S
C654 H642 0.930 . S
C654 C655 1.399 . S
C654 C659 1.399 . S
C655 C654 1.399 . S
C655 C656 1.376 . S
C656 H643 0.930 . S
C656 C655 1.376 . S
C656 C657 1.388 . S
C657 H644 0.930 . S
C657 C656 1.388 . S
C657 C658 1.390 . S
C658 C657 1.390 . S
C658 C659 1.394 . S
C658 C664 1.465 . S
C659 C654 1.399 . S
C659 C658 1.394 . S
C659 C660 1.516 . S
C660 C659 1.516 . S
C660 C661 1.502 . S
C660 C662 1.561 . S
C660 C663 1.526 . S
C661 H645 0.959 . S
C661 H646 0.959 . S
C661 H647 0.961 . S
C661 C660 1.502 . S
C662 H648 0.960 . S
C662 H649 0.961 . S
C662 H650 0.959 . S
C662 C660 1.561 . S
C663 C660 1.526 . S
C663 C664 1.396 . S
C663 C668 1.390 . S
C664 C658 1.465 . S
C664 C663 1.396 . S
C664 C665 1.399 . S
C665 H651 0.929 . S
C665 C664 1.399 . S
C665 C666 1.385 . S
C666 H652 0.931 . S
C666 C665 1.385 . S
C666 C667 1.389 . S
C667 C666 1.389 . S
C667 C668 1.387 . S
C668 H653 0.930 . S
C668 C663 1.390 . S
C668 C667 1.387 . S
H669 C681 0.930 . S
H670 C683 0.930 . S
H671 C684 0.930 . S
H672 C688 0.959 . S
H673 C688 0.959 . S
H674 C688 0.961 . S
H675 C689 0.960 . S
H676 C689 0.961 . S
H677 C689 0.959 . S
H678 C692 0.929 . S
H679 C693 0.931 . S
H680 C695 0.930 . S
C681 H669 0.930 . S
C681 C682 1.399 . S
C681 C686 1.399 . S
C682 C681 1.399 . S
C682 C683 1.376 . S
C683 H670 0.930 . S
C683 C682 1.376 . S
C683 C684 1.388 . S
C684 H671 0.930 . S
C684 C683 1.388 . S
C684 C685 1.390 . S
C685 C684 1.390 . S
C685 C686 1.394 . S
C685 C691 1.465 . S
C686 C681 1.399 . S
C686 C685 1.394 . S
C686 C687 1.516 . S
C687 C686 1.516 . S
C687 C688 1.502 . S
C687 C689 1.561 . S
C687 C690 1.526 . S
C688 H672 0.959 . S
C688 H673 0.959 . S
C688 H674 0.961 . S
C688 C687 1.502 . S
C689 H675 0.960 . S
C689 H676 0.961 . S
C689 H677 0.959 . S
C689 C687 1.561 . S
C690 C687 1.526 . S
C690 C691 1.396 . S
C690 C695 1.390 . S
C691 C685 1.465 . S
C691 C690 1.396 . S
C691 C692 1.399 . S
C692 H678 0.929 . S
C692 C691 1.399 . S
C692 C693 1.385 . S
C693 H679 0.931 . S
C693 C692 1.385 . S
C693 C694 1.389 . S
C694 C693 1.389 . S
C694 C695 1.387 . S
C695 H680 0.930 . S
C695 C690 1.390 . S
C695 C694 1.387 . S
H696 C708 0.930 . S
H697 C710 0.930 . S
H698 C711 0.930 . S
H699 C715 0.959 . S
H700 C715 0.959 . S
H701 C715 0.961 . S
H702 C716 0.960 . S
H703 C716 0.961 . S
H704 C716 0.959 . S
H705 C719 0.929 . S
H706 C720 0.931 . S
H707 C722 0.930 . S
C708 H696 0.930 . S
C708 C709 1.399 . S
C708 C713 1.399 . S
C709 C708 1.399 . S
C709 C710 1.376 . S
C710 H697 0.930 . S
C710 C709 1.376 . S
C710 C711 1.388 . S
C711 H698 0.930 . S
C711 C710 1.388 . S
C711 C712 1.390 . S
C712 C711 1.390 . S
C712 C713 1.394 . S
C712 C718 1.465 . S
C713 C708 1.399 . S
C713 C712 1.394 . S
C713 C714 1.516 . S
C714 C713 1.516 . S
C714 C715 1.502 . S
C714 C716 1.561 . S
C714 C717 1.526 . S
C715 H699 0.959 . S
C715 H700 0.959 . S
C715 H701 0.961 . S
C715 C714 1.502 . S
C716 H702 0.960 . S
C716 H703 0.961 . S
C716 H704 0.959 . S
C716 C714 1.561 . S
C717 C714 1.526 . S
C717 C718 1.396 . S
C717 C722 1.390 . S
C718 C712 1.465 . S
C718 C717 1.396 . S
C718 C719 1.399 . S
C719 H705 0.929 . S
C719 C718 1.399 . S
C719 C720 1.385 . S
C720 H706 0.931 . S
C720 C719 1.385 . S
C720 C721 1.389 . S
C721 C720 1.389 . S
C721 C722 1.387 . S
C722 H707 0.930 . S
C722 C717 1.390 . S
C722 C721 1.387 . S
H723 C735 0.930 . S
H724 C737 0.930 . S
H725 C738 0.930 . S
H726 C742 0.959 . S
H727 C742 0.959 . S
H728 C742 0.961 . S
H729 C743 0.960 . S
H730 C743 0.961 . S
H731 C743 0.959 . S
H732 C746 0.929 . S
H733 C747 0.931 . S
H734 C749 0.930 . S
C735 H723 0.930 . S
C735 C736 1.399 . S
C735 C740 1.399 . S
C736 C735 1.399 . S
C736 C737 1.376 . S
C737 H724 0.930 . S
C737 C736 1.376 . S
C737 C738 1.388 . S
C738 H725 0.930 . S
C738 C737 1.388 . S
C738 C739 1.390 . S
C739 C738 1.390 . S
C739 C740 1.394 . S
C739 C745 1.465 . S
C740 C735 1.399 . S
C740 C739 1.394 . S
C740 C741 1.516 . S
C741 C740 1.516 . S
C741 C742 1.502 . S
C741 C743 1.561 . S
C741 C744 1.526 . S
C742 H726 0.959 . S
C742 H727 0.959 . S
C742 H728 0.961 . S
C742 C741 1.502 . S
C743 H729 0.960 . S
C743 H730 0.961 . S
C743 H731 0.959 . S
C743 C741 1.561 . S
C744 C741 1.526 . S
C744 C745 1.396 . S
C744 C749 1.390 . S
C745 C739 1.465 . S
C745 C744 1.396 . S
C745 C746 1.399 . S
C746 H732 0.929 . S
C746 C745 1.399 . S
C746 C747 1.385 . S
C747 H733 0.931 . S
C747 C746 1.385 . S
C747 C748 1.389 . S
C748 C747 1.389 . S
C748 C749 1.387 . S
C749 H734 0.930 . S
C749 C744 1.390 . S
C749 C748 1.387 . S
H750 C762 0.930 . S
H751 C764 0.930 1_554 S
H752 C765 0.930 . S
H753 C769 0.959 . S
H754 C769 0.959 . S
H755 C769 0.961 . S
H756 C770 0.960 . S
H757 C770 0.961 . S
H758 C770 0.959 . S
H759 C773 0.929 . S
H760 C774 0.931 . S
H761 C776 0.930 . S
C762 H750 0.930 . S
C762 C763 1.399 . S
C762 C767 1.399 . S
C763 C762 1.399 . S
C763 C764 1.376 . S
C764 H751 0.930 1_556 S
C764 C763 1.376 . S
C764 C765 1.388 . S
C765 H752 0.930 . S
C765 C764 1.388 . S
C765 C766 1.390 . S
C766 C765 1.390 . S
C766 C767 1.394 . S
C766 C772 1.465 . S
C767 C762 1.399 . S
C767 C766 1.394 . S
C767 C768 1.516 . S
C768 C767 1.516 . S
C768 C769 1.502 . S
C768 C770 1.561 . S
C768 C771 1.526 . S
C769 H753 0.959 . S
C769 H754 0.959 . S
C769 H755 0.961 . S
C769 C768 1.502 . S
C770 H756 0.960 . S
C770 H757 0.961 . S
C770 H758 0.959 . S
C770 C768 1.561 . S
C771 C768 1.526 . S
C771 C772 1.396 . S
C771 C776 1.390 . S
C772 C766 1.465 . S
C772 C771 1.396 . S
C772 C773 1.399 . S
C773 H759 0.929 . S
C773 C772 1.399 . S
C773 C774 1.385 . S
C774 H760 0.931 . S
C774 C773 1.385 . S
C774 C775 1.389 . S
C775 C774 1.389 . S
C775 C776 1.387 . S
C776 H761 0.930 . S
C776 C771 1.390 . S
C776 C775 1.387 . S
H777 C789 0.930 . S
H778 C791 0.930 . S
H779 C792 0.930 . S
H780 C796 0.959 . S
H781 C796 0.959 . S
H782 C796 0.961 . S
H783 C797 0.960 . S
H784 C797 0.961 . S
H785 C797 0.959 . S
H786 C800 0.929 . S
H787 C801 0.931 1_556 S
H788 C803 0.930 . S
C789 H777 0.930 . S
C789 C790 1.399 . S
C789 C794 1.399 . S
C790 C789 1.399 . S
C790 C791 1.376 . S
C791 H778 0.930 . S
C791 C790 1.376 . S
C791 C792 1.388 . S
C792 H779 0.930 . S
C792 C791 1.388 . S
C792 C793 1.390 . S
C793 C792 1.390 . S
C793 C794 1.394 . S
C793 C799 1.465 . S
C794 C789 1.399 . S
C794 C793 1.394 . S
C794 C795 1.516 . S
C795 C794 1.516 . S
C795 C796 1.502 . S
C795 C797 1.561 . S
C795 C798 1.526 . S
C796 H780 0.959 . S
C796 H781 0.959 . S
C796 H782 0.961 . S
C796 C795 1.502 . S
C797 H783 0.960 . S
C797 H784 0.961 . S
C797 H785 0.959 . S
C797 C795 1.561 . S
C798 C795 1.526 . S
C798 C799 1.396 . S
C798 C803 1.390 . S
C799 C793 1.465 . S
C799 C798 1.396 . S
C799 C800 1.399 . S
C800 H786 0.929 . S
C800 C799 1.399 . S
C800 C801 1.385 . S
C801 H787 0.931 1_554 S
C801 C800 1.385 . S
C801 C802 1.389 . S
C802 C801 1.389 . S
C802 C803 1.387 . S
C803 H788 0.930 . S
C803 C798 1.390 . S
C803 C802 1.387 . S
C169 C10 1.491 . S
C181 C88 1.467 . S
C196 C23 1.492 . S
C208 C101 1.467 . S
C223 C114 1.531 . S
C235 C36 1.511 . S
C250 C49 1.506 . S
C262 C127 1.529 . S
C277 C62 1.509 . S
C289 C140 1.530 . S
C304 C153 1.466 . S
C316 C75 1.461 . S
C331 C105 1.724 . S
C343 C1 1.694 . S
C358 C14 1.695 . S
C370 C118 1.674 . S
C385 C131 1.723 1_556 S
C397 C27 1.704 . S
C412 C144 1.672 . S
C424 C40 1.708 1_554 S
C439 C53 1.704 . S
C451 C79 1.722 . S
C466 C66 1.719 . S
C478 C92 1.680 . S
C493 C148 1.890 . S
C505 C5 1.837 . S
C520 C83 1.818 . S
C532 C18 1.866 . S
C547 C31 1.887 . S
C559 C96 1.831 . S
C574 C109 1.865 . S
C586 C44 1.885 . S
C601 C122 1.821 . S
C613 C57 1.851 . S
C628 C135 1.887 . S
C640 C70 1.861 . S
C655 C3 1.397 . S
C667 C133 1.390 . S
C682 C146 1.405 . S
C694 C16 1.394 . S
C709 C29 1.389 . S
C721 C81 1.396 . S
C736 C42 1.394 . S
C748 C94 1.389 . S
C763 C55 1.421 1_556 S
C775 C107 1.431 . S
C790 C68 1.411 . S
C802 C120 1.398 1_554 S
