# Generated by pormake.
# Topology umh, (4)-cn, num edge types: 1
# Building blocks:
#     Node 0, Type 0, BuildingBlock: ICAMEG_clean_sbu_1, # of connection points: 4
#     Node 1, Type 0, BuildingBlock: ICAMEG_clean_sbu_1, # of connection points: 4
#     Node 2, Type 0, BuildingBlock: ICAMEG_clean_sbu_1, # of connection points: 4
#     Node 3, Type 0, BuildingBlock: ICAMEG_clean_sbu_1, # of connection points: 4
#     Node 4, Type 0, BuildingBlock: ICAMEG_clean_sbu_1, # of connection points: 4
#     Node 5, Type 0, BuildingBlock: ICAMEG_clean_sbu_1, # of connection points: 4
#     Node 6, Type 0, BuildingBlock: ICAMEG_clean_sbu_1, # of connection points: 4
#     Node 7, Type 0, BuildingBlock: ICAMEG_clean_sbu_1, # of connection points: 4
#     Node 8, Type 0, BuildingBlock: ICAMEG_clean_sbu_1, # of connection points: 4
#     Node 9, Type 0, BuildingBlock: ICAMEG_clean_sbu_1, # of connection points: 4
#     Node 10, Type 0, BuildingBlock: ICAMEG_clean_sbu_1, # of connection points: 4
#     Node 11, Type 0, BuildingBlock: ICAMEG_clean_sbu_1, # of connection points: 4
#     Node 12, Type 0, BuildingBlock: ICAMEG_clean_sbu_1, # of connection points: 4
#     Node 13, Type 0, BuildingBlock: ICAMEG_clean_sbu_1, # of connection points: 4
#     Node 14, Type 0, BuildingBlock: ICAMEG_clean_sbu_1, # of connection points: 4
#     Node 15, Type 0, BuildingBlock: ICAMEG_clean_sbu_1, # of connection points: 4
#     Edge 16, Type (0, 0), BuildingBlock: UVAHIK_clean_linker_0, # of connection points: 2
#     Edge 17, Type (0, 0), BuildingBlock: UVAHIK_clean_linker_0, # of connection points: 2
#     Edge 18, Type (0, 0), BuildingBlock: UVAHIK_clean_linker_0, # of connection points: 2
#     Edge 19, Type (0, 0), BuildingBlock: UVAHIK_clean_linker_0, # of connection points: 2
#     Edge 20, Type (0, 0), BuildingBlock: UVAHIK_clean_linker_0, # of connection points: 2
#     Edge 21, Type (0, 0), BuildingBlock: UVAHIK_clean_linker_0, # of connection points: 2
#     Edge 22, Type (0, 0), BuildingBlock: UVAHIK_clean_linker_0, # of connection points: 2
#     Edge 23, Type (0, 0), BuildingBlock: UVAHIK_clean_linker_0, # of connection points: 2
#     Edge 24, Type (0, 0), BuildingBlock: UVAHIK_clean_linker_0, # of connection points: 2
#     Edge 25, Type (0, 0), BuildingBlock: UVAHIK_clean_linker_0, # of connection points: 2
#     Edge 26, Type (0, 0), BuildingBlock: UVAHIK_clean_linker_0, # of connection points: 2
#     Edge 27, Type (0, 0), BuildingBlock: UVAHIK_clean_linker_0, # of connection points: 2
#     Edge 28, Type (0, 0), BuildingBlock: UVAHIK_clean_linker_0, # of connection points: 2
#     Edge 29, Type (0, 0), BuildingBlock: UVAHIK_clean_linker_0, # of connection points: 2
#     Edge 30, Type (0, 0), BuildingBlock: UVAHIK_clean_linker_0, # of connection points: 2
#     Edge 31, Type (0, 0), BuildingBlock: UVAHIK_clean_linker_0, # of connection points: 2
#     Edge 32, Type (0, 0), BuildingBlock: UVAHIK_clean_linker_0, # of connection points: 2
#     Edge 33, Type (0, 0), BuildingBlock: UVAHIK_clean_linker_0, # of connection points: 2
#     Edge 34, Type (0, 0), BuildingBlock: UVAHIK_clean_linker_0, # of connection points: 2
#     Edge 35, Type (0, 0), BuildingBlock: UVAHIK_clean_linker_0, # of connection points: 2
#     Edge 36, Type (0, 0), BuildingBlock: UVAHIK_clean_linker_0, # of connection points: 2
#     Edge 37, Type (0, 0), BuildingBlock: UVAHIK_clean_linker_0, # of connection points: 2
#     Edge 38, Type (0, 0), BuildingBlock: UVAHIK_clean_linker_0, # of connection points: 2
#     Edge 39, Type (0, 0), BuildingBlock: UVAHIK_clean_linker_0, # of connection points: 2
#     Edge 40, Type (0, 0), BuildingBlock: UVAHIK_clean_linker_0, # of connection points: 2
#     Edge 41, Type (0, 0), BuildingBlock: UVAHIK_clean_linker_0, # of connection points: 2
#     Edge 42, Type (0, 0), BuildingBlock: UVAHIK_clean_linker_0, # of connection points: 2
#     Edge 43, Type (0, 0), BuildingBlock: UVAHIK_clean_linker_0, # of connection points: 2
#     Edge 44, Type (0, 0), BuildingBlock: UVAHIK_clean_linker_0, # of connection points: 2
#     Edge 45, Type (0, 0), BuildingBlock: UVAHIK_clean_linker_0, # of connection points: 2
#     Edge 46, Type (0, 0), BuildingBlock: UVAHIK_clean_linker_0, # of connection points: 2
#     Edge 47, Type (0, 0), BuildingBlock: UVAHIK_clean_linker_0, # of connection points: 2
# Relax obj value: 0.087
# Max RMSD: 0.249
# Mean RMSD: 0.249
data_MOF--net-umh--node1-ICAMEG_clean_sbu_1--edge1-UVAHIK_clean_linker_0
_symmetry_space_group_name_H-M    P1
_symmetry_Int_Tables_number       1
_symmetry_cell_setting            triclinic
loop_
_symmetry_equiv_pos_as_xyz
'x, y, z'
_cell_length_a     54.543059
_cell_length_b     54.520298
_cell_length_c     72.815813
_cell_angle_alpha  89.990531
_cell_angle_beta   90.016275
_cell_angle_gamma 90.04352
loop_
_atom_site_label
_atom_site_type_symbol
_atom_site_fract_x
_atom_site_fract_y
_atom_site_fract_z
_atom_type_partial_charge
Co0 Co 0.29498 0.079 0.1274 0.0
Co1 Co 0.34355 0.09552 0.15526 0.0
O2 O 0.32975 0.08058 0.13331 0.0
C3 C 0.31804 0.10767 0.09793 0.0
O4 O 0.32902 0.11948 0.1113 0.0
C5 C 0.35762 0.04397 0.15685 0.0
O6 O 0.33477 0.03928 0.15248 0.0
O7 O 0.31841 0.0799 0.17101 0.0
O8 O 0.28684 0.06812 0.15312 0.0
H9 H 0.34112 0.14081 0.21533 0.0
H10 H 0.33101 0.05308 0.10385 0.0
O11 O 0.30296 0.09043 0.10169 0.0
H12 H 0.27573 0.98872 0.12737 0.0
H13 H 0.22343 0.05998 0.08616 0.0
H14 H 0.24889 0.09329 0.14618 0.0
H15 H 0.26919 0.0321 0.13566 0.0
H16 H 0.2672 0.06176 0.09466 0.0
O17 O 0.36491 0.06608 0.15849 0.0
H18 H 0.3235 0.12249 0.1873 0.0
H19 H 0.39417 0.099 0.17034 0.0
H20 H 0.20491 0.09168 0.13832 0.0
H21 H 0.33812 0.00995 0.09511 0.0
H22 H 0.19195 0.07492 0.10811 0.0
H23 H 0.31041 0.97742 0.10696 0.0
O24 O 0.28991 0.11355 0.13496 0.0
H25 H 0.40698 0.09745 0.10526 0.0
H26 H 0.3629 0.14643 0.15162 0.0
H27 H 0.39301 0.16665 0.13136 0.0
H28 H 0.41527 0.1421 0.10796 0.0
H29 H 0.37661 0.07801 0.12572 0.0
H30 H 0.41255 0.1169 0.19826 0.0
H31 H 0.38596 0.13808 0.22095 0.0
O32 O 0.32196 0.12473 0.15254 0.0
C33 C 0.2974 0.07008 0.16876 0.0
C34 C 0.35291 0.13172 0.20551 0.0
C35 C 0.393 0.11827 0.19594 0.0
N36 N 0.35784 0.10993 0.17712 0.0
C37 C 0.34305 0.12139 0.18959 0.0
C38 C 0.38249 0.10814 0.18018 0.0
C39 C 0.37807 0.13016 0.20867 0.0
C40 C 0.31872 0.03906 0.1089 0.0
N41 N 0.29962 0.0451 0.12014 0.0
C42 C 0.3229 0.01466 0.10397 0.0
C43 C 0.30737 -0.00359 0.11064 0.0
C44 C 0.28791 0.00273 0.1221 0.0
C45 C 0.28432 0.02732 0.12676 0.0
C46 C 0.22884 0.06726 0.09938 0.0
C47 C 0.24336 0.08581 0.13307 0.0
C48 C 0.25359 0.06835 0.10425 0.0
N49 N 0.26054 0.0774 0.12096 0.0
C50 C 0.21845 0.08502 0.12867 0.0
C51 C 0.21119 0.07564 0.11171 0.0
C52 C 0.30145 0.1291 0.14478 0.0
C53 C 0.39746 0.10832 0.11543 0.0
C54 C 0.37254 0.13563 0.14148 0.0
C55 C 0.38958 0.14717 0.13006 0.0
C56 C 0.40207 0.13339 0.11694 0.0
N57 N 0.36813 0.11104 0.13992 0.0
C58 C 0.38033 0.09739 0.12711 0.0
Co59 Co 0.40683 0.29038 0.62663 0.0
Co60 Co 0.39322 0.34145 0.65271 0.0
O61 O 0.40508 0.32557 0.63055 0.0
C62 C 0.37457 0.30963 0.59775 0.0
O63 O 0.36316 0.32083 0.6112 0.0
C64 C 0.44363 0.35811 0.6479 0.0
O65 O 0.44907 0.33489 0.64556 0.0
O66 O 0.41271 0.31916 0.66848 0.0
O67 O 0.42042 0.28505 0.65202 0.0
H68 H 0.35879 0.34503 0.71666 0.0
H69 H 0.42952 0.32429 0.59963 0.0
O70 O 0.39274 0.29562 0.6013 0.0
H71 H 0.49716 0.2726 0.62243 0.0
H72 H 0.42294 0.21507 0.5886 0.0
H73 H 0.3954 0.24612 0.64876 0.0
H74 H 0.45491 0.26625 0.63356 0.0
H75 H 0.42119 0.25957 0.59467 0.0
O76 O 0.42163 0.3645 0.65131 0.0
H77 H 0.37311 0.32458 0.68842 0.0
H78 H 0.38951 0.39364 0.66437 0.0
H79 H 0.39705 0.20148 0.64335 0.0
H80 H 0.47146 0.33117 0.58804 0.0
H81 H 0.4109 0.1857 0.61309 0.0
H82 H 0.50564 0.30527 0.59951 0.0
O83 O 0.37334 0.28561 0.63658 0.0
H84 H 0.37899 0.3976 0.59901 0.0
H85 H 0.34113 0.35789 0.65286 0.0
H86 H 0.31587 0.38411 0.63275 0.0
H87 H 0.3348 0.40415 0.6056 0.0
H88 H 0.40354 0.37113 0.61941 0.0
H89 H 0.37553 0.41485 0.69241 0.0
H90 H 0.35995 0.39049 0.71878 0.0
O91 O 0.36505 0.31825 0.65446 0.0
C92 C 0.42145 0.29757 0.66688 0.0
C93 C 0.36545 0.35585 0.70524 0.0
C94 C 0.37488 0.39504 0.69164 0.0
N95 N 0.38189 0.35793 0.67471 0.0
C96 C 0.3735 0.34438 0.68919 0.0
C97 C 0.3828 0.38294 0.67581 0.0
C98 C 0.36613 0.38136 0.70642 0.0
C99 C 0.44425 0.31277 0.60453 0.0
N100 N 0.43976 0.29478 0.61716 0.0
C101 C 0.46798 0.31682 0.59798 0.0
C102 C 0.48716 0.30231 0.60444 0.0
C103 C 0.48242 0.28398 0.61731 0.0
C104 C 0.45847 0.28049 0.62358 0.0
C105 C 0.41693 0.22172 0.60186 0.0
C106 C 0.40162 0.23938 0.63561 0.0
C107 C 0.41587 0.24688 0.60536 0.0
N108 N 0.40844 0.25539 0.6221 0.0
C109 C 0.40244 0.21409 0.6326 0.0
C110 C 0.41018 0.20525 0.61561 0.0
C111 C 0.35962 0.29733 0.64772 0.0
C112 C 0.37056 0.38904 0.61084 0.0
C113 C 0.3495 0.36658 0.64108 0.0
C114 C 0.33511 0.38143 0.62976 0.0
C115 C 0.34575 0.39268 0.61453 0.0
N116 N 0.37381 0.36311 0.63738 0.0
C117 C 0.38439 0.37412 0.62249 0.0
Co118 Co 0.19712 0.41595 0.12537 0.0
Co119 Co 0.14807 0.39907 0.15261 0.0
O120 O 0.16224 0.41383 0.13076 0.0
C121 C 0.17523 0.38662 0.09583 0.0
O122 O 0.16487 0.37433 0.10922 0.0
C123 C 0.1323 0.45013 0.15304 0.0
O124 O 0.15517 0.45547 0.14916 0.0
O125 O 0.17205 0.41604 0.16855 0.0
O126 O 0.20454 0.42701 0.15123 0.0
H127 H 0.14966 0.35575 0.21351 0.0
H128 H 0.16125 0.44126 0.10126 0.0
O129 O 0.18975 0.40435 0.09958 0.0
H130 H 0.21497 0.50651 0.12542 0.0
H131 H 0.26921 0.43598 0.08497 0.0
H132 H 0.24302 0.40228 0.14469 0.0
H133 H 0.22196 0.46326 0.13389 0.0
H134 H 0.2253 0.43359 0.09297 0.0
O135 O 0.12565 0.42785 0.15484 0.0
H136 H 0.16775 0.37381 0.18555 0.0
H137 H 0.09702 0.39433 0.16663 0.0
H138 H 0.28712 0.4045 0.13734 0.0
H139 H 0.15371 0.48424 0.09233 0.0
H140 H 0.30046 0.42145 0.10729 0.0
H141 H 0.18064 0.51722 0.10449 0.0
O142 O 0.20258 0.38154 0.13312 0.0
H143 H 0.08684 0.39349 0.10121 0.0
H144 H 0.13052 0.34745 0.14947 0.0
H145 H 0.10195 0.32562 0.12889 0.0
H146 H 0.07991 0.34868 0.10453 0.0
H147 H 0.11568 0.41456 0.12203 0.0
H148 H 0.07816 0.37667 0.19446 0.0
H149 H 0.10455 0.35711 0.2181 0.0
O150 O 0.1707 0.3705 0.1509 0.0
C151 C 0.19316 0.42576 0.16659 0.0
C152 C 0.13796 0.36413 0.20328 0.0
C153 C 0.09783 0.3759 0.1926 0.0
N154 N 0.13342 0.38486 0.1744 0.0
C155 C 0.14809 0.37431 0.18739 0.0
C156 C 0.10861 0.38589 0.17688 0.0
C157 C 0.11265 0.36492 0.20585 0.0
C158 C 0.17321 0.45548 0.10645 0.0
N159 N 0.19212 0.44975 0.11798 0.0
C160 C 0.16878 0.47979 0.10141 0.0
C161 C 0.18387 0.49829 0.10826 0.0
C162 C 0.20313 0.4923 0.12001 0.0
C163 C 0.20698 0.46779 0.12478 0.0
C164 C 0.26364 0.42863 0.09813 0.0
C165 C 0.24871 0.40987 0.13166 0.0
C166 C 0.23881 0.4272 0.10272 0.0
N167 N 0.23166 0.41806 0.11935 0.0
C168 C 0.27369 0.41099 0.12754 0.0
C169 C 0.28116 0.42048 0.11066 0.0
C170 C 0.19129 0.36618 0.14326 0.0
C171 C 0.09628 0.38326 0.11181 0.0
C172 C 0.12096 0.35761 0.13892 0.0
C173 C 0.10479 0.34516 0.12732 0.0
C174 C 0.09242 0.35811 0.11366 0.0
N175 N 0.12463 0.38228 0.13701 0.0
C176 C 0.11254 0.39511 0.12369 0.0
Co177 Co 0.07957 0.1993 0.62529 0.0
Co178 Co 0.09053 0.1484 0.65234 0.0
O179 O 0.07992 0.16408 0.6297 0.0
C180 C 0.11136 0.17799 0.59706 0.0
O181 O 0.12153 0.16599 0.61068 0.0
C182 C 0.04008 0.13225 0.64647 0.0
O183 O 0.03489 0.15545 0.6437 0.0
O184 O 0.07058 0.17127 0.66723 0.0
O185 O 0.06579 0.20576 0.65049 0.0
H186 H 0.12193 0.14581 0.71719 0.0
H187 H 0.05616 0.16572 0.59843 0.0
O188 O 0.094 0.19312 0.60022 0.0
H189 H 0.99002 0.22025 0.61991 0.0
H190 H 0.06662 0.27428 0.5862 0.0
H191 H 0.09281 0.24359 0.64681 0.0
H192 H 0.03226 0.22528 0.63146 0.0
H193 H 0.06656 0.2299 0.59288 0.0
O194 O 0.06186 0.12579 0.65049 0.0
H195 H 0.10928 0.16578 0.6883 0.0
H196 H 0.09275 0.09641 0.66481 0.0
H197 H 0.09297 0.28812 0.6408 0.0
H198 H 0.01422 0.16014 0.58644 0.0
H199 H 0.0798 0.30373 0.6103 0.0
H200 H 0.9808 0.18748 0.59723 0.0
O201 O 0.11298 0.20298 0.63546 0.0
H202 H 0.10579 0.08957 0.60046 0.0
H203 H 0.14235 0.13117 0.65402 0.0
H204 H 0.1678 0.10338 0.6353 0.0
H205 H 0.1495 0.08231 0.60833 0.0
H206 H 0.08111 0.11778 0.61938 0.0
H207 H 0.10504 0.07569 0.6935 0.0
H208 H 0.11984 0.10044 0.71991 0.0
O209 O 0.11913 0.17112 0.65455 0.0
C210 C 0.0631 0.19325 0.66523 0.0
C211 C 0.1156 0.13482 0.70575 0.0
C212 C 0.10609 0.09546 0.69246 0.0
N213 N 0.10053 0.13225 0.67484 0.0
C214 C 0.10849 0.14602 0.68934 0.0
C215 C 0.09912 0.1073 0.67627 0.0
C216 C 0.1144 0.10936 0.70728 0.0
C217 C 0.04176 0.17786 0.60304 0.0
N218 N 0.04667 0.19591 0.61553 0.0
C219 C 0.01803 0.17454 0.59627 0.0
C220 C -0.00072 0.18986 0.60235 0.0
C221 C 0.00444 0.20824 0.61508 0.0
C222 C 0.02837 0.21098 0.62159 0.0
C223 C 0.07231 0.26772 0.59957 0.0
C224 C 0.08683 0.25027 0.63358 0.0
C225 C 0.07233 0.24262 0.60342 0.0
N226 N 0.07936 0.23422 0.6203 0.0
C227 C 0.08706 0.27549 0.63022 0.0
C228 C 0.0797 0.28423 0.6131 0.0
C229 C 0.12572 0.19138 0.64728 0.0
C230 C 0.11394 0.09856 0.61222 0.0
C231 C 0.13429 0.12214 0.64226 0.0
C232 C 0.14876 0.10638 0.63174 0.0
C233 C 0.13848 0.09453 0.61663 0.0
N234 N 0.11023 0.12599 0.63785 0.0
C235 C 0.10003 0.11448 0.62303 0.0
Co236 Co 0.2912 0.40452 0.38239 0.0
Co237 Co 0.34166 0.38777 0.35669 0.0
O238 O 0.32625 0.40079 0.37865 0.0
C239 C 0.3086 0.37169 0.41154 0.0
O240 O 0.31892 0.35937 0.39815 0.0
C241 C 0.36058 0.43736 0.36115 0.0
O242 O 0.33759 0.44371 0.36344 0.0
O243 O 0.32053 0.4081 0.34065 0.0
O244 O 0.28678 0.41803 0.35685 0.0
H245 H 0.34395 0.35218 0.29306 0.0
H246 H 0.32612 0.42578 0.40935 0.0
O247 O 0.29561 0.39056 0.40786 0.0
H248 H 0.27835 0.49579 0.38577 0.0
H249 H 0.21672 0.42527 0.42002 0.0
H250 H 0.24653 0.39525 0.36017 0.0
H251 H 0.26977 0.45376 0.37497 0.0
H252 H 0.26107 0.42097 0.41414 0.0
O253 O 0.3661 0.41506 0.35792 0.0
H254 H 0.32406 0.36801 0.32107 0.0
H255 H 0.39365 0.38117 0.34534 0.0
H256 H 0.20204 0.39945 0.3654 0.0
H257 H 0.33519 0.46748 0.4206 0.0
H258 H 0.18688 0.41456 0.39551 0.0
H259 H 0.31128 0.50285 0.40874 0.0
O260 O 0.28469 0.37119 0.37267 0.0
H261 H 0.39647 0.37158 0.41084 0.0
H262 H 0.35536 0.33488 0.35712 0.0
H263 H 0.38 0.30862 0.37762 0.0
H264 H 0.40074 0.32697 0.40472 0.0
H265 H 0.37155 0.39713 0.39003 0.0
H266 H 0.41432 0.36565 0.31753 0.0
H267 H 0.38941 0.35093 0.29117 0.0
O268 O 0.31701 0.3608 0.35509 0.0
C269 C 0.29947 0.41808 0.34204 0.0
C270 C 0.35501 0.35845 0.30448 0.0
C271 C 0.3945 0.36604 0.31821 0.0
N272 N 0.35769 0.37524 0.33488 0.0
C273 C 0.34385 0.36735 0.3204 0.0
C274 C 0.38271 0.37483 0.3339 0.0
C275 C 0.38051 0.35777 0.30342 0.0
C276 C 0.31544 0.44104 0.40428 0.0
N277 N 0.29732 0.43733 0.39162 0.0
C278 C 0.32074 0.46462 0.41064 0.0
C279 C 0.30734 0.48447 0.40396 0.0
C280 C 0.28887 0.48052 0.39106 0.0
C281 C 0.28411 0.45669 0.38498 0.0
C282 C 0.2231 0.41873 0.40683 0.0
C283 C 0.24007 0.40201 0.37326 0.0
C284 C 0.24818 0.41622 0.40343 0.0
N285 N 0.25635 0.4081 0.38677 0.0
C286 C 0.21486 0.40427 0.37616 0.0
C287 C 0.20637 0.41272 0.39306 0.0
C288 C 0.29575 0.35667 0.36172 0.0
C289 C 0.3876 0.36339 0.39904 0.0
C290 C 0.36437 0.343 0.36886 0.0
C291 C 0.37831 0.32805 0.38041 0.0
C292 C 0.38995 0.33835 0.39561 0.0
N293 N 0.36216 0.36754 0.37231 0.0
C294 C 0.37356 0.37779 0.38716 0.0
Co295 Co 0.07547 0.29434 0.88336 0.0
Co296 Co 0.08874 0.34146 0.85315 0.0
O297 O 0.07526 0.32871 0.87599 0.0
C298 C 0.10383 0.32058 0.91149 0.0
O299 O 0.11489 0.33113 0.89759 0.0
C300 C 0.03681 0.35423 0.85204 0.0
O301 O 0.03265 0.33169 0.85754 0.0
O302 O 0.07284 0.315 0.83882 0.0
O303 O 0.06447 0.28375 0.85818 0.0
H304 H 0.13113 0.33606 0.79203 0.0
H305 H 0.04843 0.33079 0.9058 0.0
O306 O 0.08706 0.30468 0.90852 0.0
H307 H 0.98625 0.27093 0.8855 0.0
H308 H 0.06072 0.22513 0.92773 0.0
H309 H 0.09167 0.24762 0.86636 0.0
H310 H 0.02967 0.26585 0.8768 0.0
H311 H 0.06017 0.26825 0.91739 0.0
O312 O 0.0587 0.36185 0.8499 0.0
H313 H 0.1146 0.31992 0.82116 0.0
H314 H 0.09022 0.39112 0.83614 0.0
H315 H 0.0924 0.20427 0.87607 0.0
H316 H 0.00525 0.33648 0.91493 0.0
H317 H 0.07684 0.1928 0.90696 0.0
H318 H 0.97382 0.30645 0.90471 0.0
O319 O 0.11002 0.29032 0.87555 0.0
H320 H 0.09141 0.40824 0.90064 0.0
H321 H 0.13927 0.3623 0.85464 0.0
H322 H 0.15963 0.39425 0.87317 0.0
H323 H 0.13565 0.41745 0.89638 0.0
H324 H 0.07183 0.37602 0.88189 0.0
H325 H 0.10629 0.40801 0.80709 0.0
H326 H 0.12701 0.38041 0.78484 0.0
O327 O 0.11866 0.32085 0.85582 0.0
C328 C 0.06456 0.29362 0.84224 0.0
C329 C 0.12222 0.34829 0.80164 0.0
C330 C 0.10826 0.38866 0.81009 0.0
N331 N 0.1017 0.35461 0.8304 0.0
C332 C 0.11291 0.33927 0.81819 0.0
C333 C 0.09916 0.37899 0.82649 0.0
C334 C 0.11988 0.37317 0.79761 0.0
C335 C 0.03489 0.31752 0.90146 0.0
N336 N 0.04157 0.29793 0.89088 0.0
C337 C 0.01046 0.32089 0.9066 0.0
C338 C 0.99282 0.30405 0.90084 0.0
C339 C -0.00021 0.28412 0.89005 0.0
C340 C 0.02438 0.28136 0.88515 0.0
C341 C 0.06749 0.22989 0.91422 0.0
C342 C 0.08469 0.24274 0.87976 0.0
C343 C 0.06725 0.25427 0.9083 0.0
N344 N 0.07565 0.26038 0.89122 0.0
C345 C 0.08523 0.21818 0.88521 0.0
C346 C 0.07653 0.21176 0.90255 0.0
C347 C 0.12445 0.30148 0.86461 0.0
C348 C 0.10204 0.3983 0.89053 0.0
C349 C 0.12872 0.37233 0.8647 0.0
C350 C 0.14033 0.39042 0.87514 0.0
C351 C 0.12687 0.40344 0.88815 0.0
N352 N 0.10436 0.3674 0.86713 0.0
C353 C 0.09102 0.38012 0.87983 0.0
Co354 Co 0.19476 0.07737 0.38277 0.0
Co355 Co 0.14218 0.08912 0.3578 0.0
O356 O 0.15934 0.07764 0.37957 0.0
C357 C 0.17482 0.10856 0.41192 0.0
O358 O 0.1619 0.11867 0.39876 0.0
C359 C 0.12799 0.03788 0.36266 0.0
O360 O 0.15148 0.03338 0.36455 0.0
O361 O 0.16479 0.07088 0.34154 0.0
O362 O 0.19968 0.06391 0.35727 0.0
H363 H 0.13504 0.12429 0.29424 0.0
H364 H 0.16286 0.05343 0.4105 0.0
O365 O 0.19003 0.09147 0.40816 0.0
H366 H 0.21633 0.98781 0.38674 0.0
H367 H 0.27208 0.06439 0.41917 0.0
H368 H 0.2376 0.0908 0.35976 0.0
H369 H 0.22055 0.03026 0.37541 0.0
H370 H 0.22735 0.06424 0.41404 0.0
O371 O 0.12059 0.0596 0.35936 0.0
H372 H 0.15697 0.11061 0.32204 0.0
H373 H 0.08954 0.09036 0.34697 0.0
H374 H 0.28244 0.09106 0.36422 0.0
H375 H 0.1581 0.01127 0.42229 0.0
H376 H 0.29995 0.07778 0.39411 0.0
H377 H 0.18491 0.97811 0.41034 0.0
O378 O 0.19771 0.11095 0.37274 0.0
H379 H 0.08571 0.09936 0.4118 0.0
H380 H 0.12337 0.14042 0.35843 0.0
H381 H 0.09579 0.16382 0.37876 0.0
H382 H 0.07669 0.14324 0.40563 0.0
H383 H 0.11368 0.07676 0.39128 0.0
H384 H 0.06688 0.10366 0.31938 0.0
H385 H 0.08966 0.12086 0.29279 0.0
O386 O 0.16394 0.11849 0.35591 0.0
C387 C 0.18662 0.06267 0.34268 0.0
C388 C 0.1249 0.11693 0.30576 0.0
C389 C 0.08664 0.10531 0.31987 0.0
N390 N 0.12452 0.09994 0.33617 0.0
C391 C 0.13721 0.10922 0.32156 0.0
C392 C 0.09957 0.09778 0.33543 0.0
C393 C 0.09944 0.11497 0.30495 0.0
C394 C 0.17477 0.03915 0.40539 0.0
N395 N 0.19208 0.04431 0.39238 0.0
C396 C 0.17192 0.01529 0.41205 0.0
C397 C 0.18694 -0.00332 0.40532 0.0
C398 C 0.20457 0.00211 0.39207 0.0
C399 C 0.20686 0.02617 0.3857 0.0
C400 C 0.26468 0.07014 0.40607 0.0
C401 C 0.24511 0.08479 0.37274 0.0
C402 C 0.23938 0.07012 0.4031 0.0
N403 N 0.22993 0.07723 0.38655 0.0
C404 C 0.2705 0.08507 0.37522 0.0
C405 C 0.28031 0.07765 0.392 0.0
C406 C 0.18496 0.12453 0.36216 0.0
C407 C 0.09383 0.1085 0.40008 0.0
C408 C 0.1152 0.13138 0.37014 0.0
C409 C 0.09955 0.1447 0.38158 0.0
C410 C 0.08882 0.13313 0.39664 0.0
N411 N 0.12001 0.10721 0.37361 0.0
C412 C 0.10961 0.09577 0.38838 0.0
Co413 Co 0.41043 0.1944 0.88227 0.0
Co414 Co 0.39107 0.14587 0.85543 0.0
O415 O 0.40607 0.15958 0.87735 0.0
C416 C 0.37933 0.17532 0.91187 0.0
O417 O 0.36622 0.16584 0.89854 0.0
C418 C 0.44049 0.12555 0.85653 0.0
O419 O 0.4478 0.14802 0.85996 0.0
O420 O 0.41068 0.16778 0.83948 0.0
O421 O 0.42228 0.20041 0.85643 0.0
H422 H 0.35072 0.14888 0.79343 0.0
H423 H 0.433 0.15756 0.90709 0.0
O424 O 0.39809 0.18842 0.90804 0.0
H425 H 0.50191 0.20635 0.8828 0.0
H426 H 0.43464 0.26606 0.92185 0.0
H427 H 0.40011 0.24063 0.86221 0.0
H428 H 0.45935 0.21586 0.8738 0.0
H429 H 0.42944 0.22219 0.91444 0.0
O430 O 0.41778 0.12093 0.85435 0.0
H431 H 0.36906 0.1664 0.82149 0.0
H432 H 0.38243 0.09487 0.84229 0.0
H433 H 0.40517 0.28469 0.86898 0.0
H434 H 0.47524 0.14753 0.91655 0.0
H435 H 0.42255 0.29764 0.89899 0.0
H436 H 0.51006 0.17197 0.90433 0.0
O437 O 0.37655 0.20196 0.87416 0.0
H438 H 0.37807 0.08749 0.90793 0.0
H439 H 0.33804 0.13284 0.85758 0.0
H440 H 0.31299 0.10712 0.87821 0.0
H441 H 0.33301 0.08425 0.90362 0.0
H442 H 0.40241 0.11351 0.88705 0.0
H443 H 0.36441 0.07656 0.81439 0.0
H444 H 0.34831 0.10365 0.78975 0.0
O445 O 0.36449 0.17085 0.856 0.0
C446 C 0.42127 0.1885 0.84128 0.0
C447 C 0.35758 0.13689 0.8041 0.0
C448 C 0.36529 0.09629 0.81585 0.0
N449 N 0.37656 0.13166 0.83358 0.0
C450 C 0.36791 0.1467 0.82004 0.0
C451 C 0.37551 0.10676 0.8316 0.0
C452 C 0.35626 0.1115 0.80203 0.0
C453 C 0.44803 0.16844 0.90186 0.0
N454 N 0.44372 0.18737 0.89 0.0
C455 C 0.47192 0.1626 0.9072 0.0
C456 C 0.49145 0.1763 0.90032 0.0
C457 C 0.48689 0.19559 0.88823 0.0
C458 C 0.46277 0.20086 0.88316 0.0
C459 C 0.42712 0.26065 0.90871 0.0
C460 C 0.40788 0.24614 0.87524 0.0
C461 C 0.4241 0.23585 0.90445 0.0
N462 N 0.41474 0.22889 0.88784 0.0
C463 C 0.41061 0.2711 0.87902 0.0
C464 C 0.42033 0.27836 0.89587 0.0
C465 C 0.36107 0.19167 0.86354 0.0
C466 C 0.36915 0.09729 0.89687 0.0
C467 C 0.34689 0.1229 0.86858 0.0
C468 C 0.33262 0.10835 0.88021 0.0
C469 C 0.34386 0.09552 0.89446 0.0
N470 N 0.37168 0.12454 0.87105 0.0
C471 C 0.38285 0.11196 0.88495 0.0
Co472 Co 0.69014 0.91071 0.8817 0.0
Co473 Co 0.64362 0.88946 0.8536 0.0
O474 O 0.6557 0.90611 0.87545 0.0
C475 C 0.6683 0.88195 0.91159 0.0
O476 O 0.65809 0.86901 0.89847 0.0
C477 C 0.62465 0.93938 0.85149 0.0
O478 O 0.64706 0.94635 0.85543 0.0
O479 O 0.66742 0.90705 0.83784 0.0
O480 O 0.69794 0.92118 0.85582 0.0
H481 H 0.65114 0.8433 0.79414 0.0
H482 H 0.6516 0.93461 0.90417 0.0
O483 O 0.68261 0.89972 0.90759 0.0
H484 H 0.7021 0.0022 0.87974 0.0
H485 H 0.75911 0.93706 0.92315 0.0
H486 H 0.73758 0.89931 0.86374 0.0
H487 H 0.71232 0.95916 0.87262 0.0
H488 H 0.71579 0.9315 0.91426 0.0
O489 O 0.61958 0.91666 0.84997 0.0
H490 H 0.66656 0.86378 0.82206 0.0
H491 H 0.59375 0.88101 0.83817 0.0
H492 H 0.78113 0.90469 0.872 0.0
H493 H 0.6408 0.97737 0.91172 0.0
H494 H 0.79212 0.92368 0.9019 0.0
H495 H 0.6661 0.01152 0.89941 0.0
O496 O 0.69805 0.8764 0.87507 0.0
H497 H 0.5791 0.88269 0.9026 0.0
H498 H 0.62912 0.83702 0.85776 0.0
H499 H 0.60025 0.81455 0.8777 0.0
H500 H 0.57496 0.83743 0.90029 0.0
H501 H 0.60841 0.9044 0.88256 0.0
H502 H 0.57754 0.86089 0.81035 0.0
H503 H 0.60633 0.84177 0.78814 0.0
O504 O 0.66781 0.86241 0.85684 0.0
C505 C 0.68768 0.91833 0.84014 0.0
C506 C 0.63841 0.85148 0.80375 0.0
C507 C 0.5971 0.86138 0.81283 0.0
N508 N 0.63105 0.87334 0.83181 0.0
C509 C 0.64702 0.86303 0.81961 0.0
C510 C 0.60638 0.87278 0.82854 0.0
C511 C 0.61326 0.85065 0.80038 0.0
C512 C 0.66284 0.94937 0.89894 0.0
N513 N 0.68266 0.94441 0.88808 0.0
C514 C 0.65658 0.97354 0.90319 0.0
C515 C 0.67076 0.99269 0.89625 0.0
C516 C 0.69096 0.98748 0.8852 0.0
C517 C 0.69664 0.96308 0.88121 0.0
C518 C 0.75456 0.92882 0.91006 0.0
C519 C 0.74224 0.90776 0.87671 0.0
C520 C 0.73007 0.92559 0.90497 0.0
N521 N 0.72421 0.91532 0.88843 0.0
C522 C 0.76692 0.91068 0.88134 0.0
C523 C 0.77307 0.92131 0.89813 0.0
C524 C 0.68822 0.85981 0.86518 0.0
C525 C 0.58995 0.87253 0.89276 0.0
C526 C 0.61822 0.84709 0.86759 0.0
C527 C 0.60187 0.83428 0.87882 0.0
C528 C 0.58767 0.84713 0.89148 0.0
N529 N 0.62034 0.87201 0.86892 0.0
C530 C 0.6065 0.88474 0.88132 0.0
Co531 Co 0.58117 0.69373 0.38126 0.0
Co532 Co 0.59507 0.64207 0.35581 0.0
O533 O 0.58362 0.65836 0.37797 0.0
C534 C 0.61464 0.67591 0.40982 0.0
O535 O 0.62529 0.66376 0.39649 0.0
C536 C 0.54546 0.62379 0.36203 0.0
O537 O 0.5393 0.6468 0.36455 0.0
O538 O 0.57416 0.6632 0.34023 0.0
O539 O 0.56643 0.69782 0.35609 0.0
H540 H 0.62672 0.63781 0.29109 0.0
H541 H 0.56044 0.66033 0.40946 0.0
O542 O 0.59644 0.6899 0.40634 0.0
H543 H 0.49063 0.70949 0.38722 0.0
H544 H 0.56448 0.77 0.41808 0.0
H545 H 0.5909 0.73743 0.35809 0.0
H546 H 0.53222 0.71639 0.37493 0.0
H547 H 0.5671 0.72534 0.41287 0.0
O548 O 0.56752 0.61818 0.35816 0.0
H549 H 0.613 0.65856 0.31938 0.0
H550 H 0.6 0.58967 0.34484 0.0
H551 H 0.58835 0.7822 0.36263 0.0
H552 H 0.5192 0.65293 0.42221 0.0
H553 H 0.57505 0.79874 0.39281 0.0
H554 H 0.48393 0.67756 0.41104 0.0
O555 O 0.61412 0.69894 0.37054 0.0
H556 H 0.61285 0.58659 0.4093 0.0
H557 H 0.64768 0.62738 0.35476 0.0
H558 H 0.67433 0.60177 0.37428 0.0
H559 H 0.6569 0.5811 0.40174 0.0
H560 H 0.58694 0.61265 0.38956 0.0
H561 H 0.61341 0.56817 0.31677 0.0
H562 H 0.62698 0.59229 0.28967 0.0
O563 O 0.62245 0.66602 0.353 0.0
C564 C 0.56491 0.68458 0.34161 0.0
C565 C 0.62094 0.6271 0.30283 0.0
C566 C 0.61344 0.58801 0.31724 0.0
N567 N 0.60597 0.62533 0.3338 0.0
C568 C 0.61324 0.63874 0.31891 0.0
C569 C 0.60584 0.60028 0.33308 0.0
C570 C 0.62106 0.60156 0.30204 0.0
C571 C 0.54523 0.6713 0.40468 0.0
N572 N 0.54875 0.68888 0.39156 0.0
C573 C 0.5219 0.66695 0.41188 0.0
C574 C 0.50211 0.68075 0.40559 0.0
C575 C 0.50586 0.69866 0.39221 0.0
C576 C 0.52943 0.70247 0.38529 0.0
C577 C 0.57022 0.76301 0.40485 0.0
C578 C 0.5849 0.7445 0.3712 0.0
C579 C 0.57176 0.73776 0.40183 0.0
N580 N 0.57886 0.72883 0.38513 0.0
C581 C 0.58358 0.76986 0.37372 0.0
C582 C 0.57615 0.77913 0.39066 0.0
C583 C 0.62765 0.68724 0.35928 0.0
C584 C 0.62063 0.59541 0.39732 0.0
C585 C 0.63999 0.61853 0.36673 0.0
C586 C 0.65515 0.60399 0.3777 0.0
C587 C 0.64536 0.59238 0.3931 0.0
N588 N 0.61575 0.62139 0.37096 0.0
C589 C 0.60603 0.61011 0.38605 0.0
Co590 Co 0.79754 0.57485 0.88199 0.0
Co591 Co 0.84654 0.59133 0.85451 0.0
O592 O 0.83227 0.57478 0.87568 0.0
C593 C 0.82336 0.59868 0.91259 0.0
O594 O 0.83615 0.60981 0.89983 0.0
C595 C 0.85662 0.53921 0.84912 0.0
O596 O 0.83373 0.53555 0.85388 0.0
O597 O 0.81981 0.57964 0.83831 0.0
O598 O 0.7884 0.56673 0.85589 0.0
H599 H 0.84574 0.64392 0.79783 0.0
H600 H 0.83227 0.5448 0.9038 0.0
O601 O 0.80639 0.58365 0.90813 0.0
H602 H 0.77282 0.48608 0.87786 0.0
H603 H 0.72548 0.55664 0.92292 0.0
H604 H 0.75221 0.59358 0.86442 0.0
H605 H 0.76879 0.53042 0.87178 0.0
H606 H 0.76917 0.55645 0.91409 0.0
O607 O 0.86541 0.56087 0.84876 0.0
H608 H 0.82765 0.62356 0.82488 0.0
H609 H 0.8968 0.59283 0.83858 0.0
H610 H 0.70833 0.59402 0.87263 0.0
H611 H 0.83691 0.50064 0.91033 0.0
H612 H 0.69472 0.57545 0.90207 0.0
H613 H 0.80708 0.47094 0.89726 0.0
O614 O 0.79456 0.61021 0.87629 0.0
H615 H 0.91196 0.58198 0.90259 0.0
H616 H 0.86995 0.63994 0.8612 0.0
H617 H 0.90248 0.65508 0.88185 0.0
H618 H 0.92372 0.626 0.90274 0.0
H619 H 0.87919 0.56767 0.88183 0.0
H620 H 0.91562 0.61269 0.81158 0.0
H621 H 0.89004 0.63854 0.79104 0.0
O622 O 0.8274 0.62168 0.8597 0.0
C623 C 0.79854 0.57028 0.84026 0.0
C624 C 0.8571 0.63279 0.80672 0.0
C625 C 0.89632 0.61524 0.81443 0.0
N626 N 0.86122 0.60727 0.8334 0.0
C627 C 0.84698 0.6213 0.82209 0.0
C628 C 0.88556 0.60402 0.82967 0.0
C629 C 0.88195 0.62974 0.80291 0.0
C630 C 0.81908 0.53201 0.89823 0.0
N631 N 0.80019 0.54017 0.88754 0.0
C632 C 0.82186 0.50702 0.9019 0.0
C633 C 0.80513 0.49036 0.89455 0.0
C634 C 0.78591 0.49884 0.88365 0.0
C635 C 0.78373 0.52396 0.88025 0.0
C636 C 0.73117 0.56474 0.91003 0.0
C637 C 0.74639 0.58531 0.87719 0.0
C638 C 0.75588 0.56471 0.90498 0.0
N639 N 0.76316 0.57479 0.88868 0.0
C640 C 0.72154 0.58568 0.88179 0.0
C641 C 0.71392 0.57529 0.89833 0.0
C642 C 0.80715 0.62626 0.86775 0.0
C643 C 0.90289 0.59482 0.89351 0.0
C644 C 0.87911 0.62719 0.87026 0.0
C645 C 0.89753 0.63586 0.8819 0.0
C646 C 0.90946 0.61952 0.8936 0.0
N647 N 0.87279 0.60292 0.87025 0.0
C648 C 0.8844 0.5868 0.88167 0.0
Co649 Co 0.90465 0.78349 0.38629 0.0
Co650 Co 0.895 0.83535 0.36014 0.0
O651 O 0.90455 0.81877 0.38261 0.0
C652 C 0.87139 0.80363 0.41406 0.0
O653 O 0.86096 0.81484 0.40017 0.0
C654 C 0.94514 0.85113 0.36764 0.0
O655 O 0.95013 0.8278 0.36996 0.0
O656 O 0.91566 0.8131 0.34525 0.0
O657 O 0.91929 0.77783 0.36124 0.0
H658 H 0.86682 0.84086 0.29456 0.0
H659 H 0.92722 0.81603 0.4143 0.0
O660 O 0.88941 0.78916 0.41119 0.0
H661 H -0.00614 0.76192 0.39312 0.0
H662 H 0.91578 0.70729 0.42435 0.0
H663 H 0.89214 0.73993 0.36372 0.0
H664 H 0.95205 0.75755 0.38059 0.0
H665 H 0.91624 0.75187 0.41844 0.0
O666 O 0.92353 0.85786 0.36332 0.0
H667 H 0.87808 0.81959 0.32325 0.0
H668 H 0.89321 0.88785 0.34897 0.0
H669 H 0.8916 0.69522 0.36896 0.0
H670 H 0.9687 0.82092 0.42729 0.0
H671 H 0.90348 0.67864 0.39946 0.0
H672 H 0.00239 0.79379 0.41665 0.0
O673 O 0.87165 0.78022 0.37526 0.0
H674 H 0.87662 0.89044 0.41372 0.0
H675 H 0.84332 0.85274 0.35742 0.0
H676 H 0.81665 0.87889 0.3765 0.0
H677 H 0.83328 0.89792 0.40489 0.0
H678 H 0.90261 0.86406 0.39429 0.0
H679 H 0.88228 0.90988 0.32052 0.0
H680 H 0.86888 0.88634 0.29308 0.0
O681 O 0.86662 0.81271 0.35657 0.0
C682 C 0.92276 0.79093 0.34687 0.0
C683 C 0.87253 0.85133 0.30645 0.0
C684 C 0.88124 0.89006 0.32101 0.0
N685 N 0.88605 0.85249 0.33781 0.0
C686 C 0.87886 0.83939 0.32275 0.0
C687 C 0.88744 0.8775 0.33707 0.0
C688 C 0.87372 0.87684 0.30562 0.0
C689 C 0.94172 0.80398 0.40975 0.0
N690 N 0.93719 0.78642 0.3968 0.0
C691 C 0.9652 0.80691 0.41709 0.0
C692 C 0.9841 0.79171 0.41109 0.0
C693 C 0.97933 0.77383 0.39788 0.0
C694 C 0.95563 0.77146 0.39082 0.0
C695 C 0.91065 0.71428 0.41098 0.0
C696 C 0.89757 0.73282 0.37696 0.0
C697 C 0.91086 0.73949 0.40756 0.0
N698 N 0.90454 0.74843 0.39068 0.0
C699 C 0.89712 0.70751 0.37988 0.0
C700 C 0.90375 0.69822 0.39701 0.0
C701 C 0.85963 0.79221 0.36322 0.0
C702 C 0.86919 0.88232 0.40134 0.0
C703 C 0.8507 0.86099 0.36973 0.0
C704 C 0.83552 0.8758 0.38048 0.0
C705 C 0.84486 0.88648 0.3964 0.0
N706 N 0.87454 0.857 0.37468 0.0
C707 C 0.88385 0.86747 0.39024 0.0
Co708 Co 0.69691 0.58214 0.62565 0.0
Co709 Co 0.64456 0.59481 0.65064 0.0
O710 O 0.66146 0.58323 0.62878 0.0
C711 C 0.67788 0.6139 0.59647 0.0
O712 O 0.66518 0.62438 0.60958 0.0
C713 C 0.62853 0.54417 0.6454 0.0
O714 O 0.6518 0.53887 0.64319 0.0
O715 O 0.66647 0.57546 0.66672 0.0
O716 O 0.70144 0.56844 0.65113 0.0
H717 H 0.63846 0.62868 0.71465 0.0
H718 H 0.66459 0.55909 0.59776 0.0
O719 O 0.69261 0.59642 0.60028 0.0
H720 H 0.71643 0.49212 0.62148 0.0
H721 H 0.77401 0.56742 0.58939 0.0
H722 H 0.74 0.59446 0.64877 0.0
H723 H 0.72153 0.53438 0.63298 0.0
H724 H 0.72927 0.56833 0.59442 0.0
O725 O 0.62196 0.56612 0.64879 0.0
H726 H 0.65998 0.61485 0.68672 0.0
H727 H 0.59195 0.59779 0.66135 0.0
H728 H 0.78484 0.59364 0.6444 0.0
H729 H 0.65898 0.51713 0.58579 0.0
H730 H 0.80212 0.58004 0.61453 0.0
H731 H 0.68497 0.48329 0.59771 0.0
O732 O 0.70067 0.61563 0.63576 0.0
H733 H 0.58861 0.60805 0.5967 0.0
H734 H 0.62758 0.64676 0.65052 0.0
H735 H 0.60089 0.67149 0.6304 0.0
H736 H 0.58113 0.6521 0.6033 0.0
H737 H 0.61573 0.5841 0.61701 0.0
H738 H 0.56968 0.61127 0.68906 0.0
H739 H 0.59298 0.62694 0.71593 0.0
O740 O 0.66728 0.62335 0.65294 0.0
C741 C 0.68819 0.56699 0.66561 0.0
C742 C 0.6281 0.62199 0.703 0.0
C743 C 0.5895 0.61219 0.68865 0.0
N744 N 0.62721 0.60579 0.67236 0.0
C745 C 0.64018 0.61422 0.68713 0.0
C746 C 0.6022 0.60456 0.67301 0.0
C747 C 0.60258 0.62098 0.70372 0.0
C748 C 0.67614 0.5445 0.60287 0.0
N749 N 0.69348 0.54919 0.61596 0.0
C750 C 0.67281 0.52076 0.5961 0.0
C751 C 0.68737 0.50178 0.60282 0.0
C752 C 0.70502 0.50672 0.61616 0.0
C753 C 0.7078 0.53067 0.62264 0.0
C754 C 0.76671 0.5733 0.60249 0.0
C755 C 0.74739 0.58832 0.63579 0.0
C756 C 0.74141 0.57389 0.6054 0.0
N757 N 0.73208 0.58117 0.62194 0.0
C758 C 0.77279 0.58799 0.63337 0.0
C759 C 0.78247 0.58038 0.6166 0.0
C760 C 0.68833 0.62913 0.64664 0.0
C761 C 0.59703 0.61668 0.60851 0.0
C762 C 0.61914 0.63823 0.6387 0.0
C763 C 0.60398 0.6523 0.62739 0.0
C764 C 0.59288 0.64141 0.6122 0.0
N765 N 0.62309 0.61398 0.635 0.0
C766 C 0.61233 0.60318 0.6201 0.0
Co767 Co 0.91155 0.69732 0.12665 0.0
Co768 Co 0.89637 0.65007 0.15625 0.0
O769 O 0.91067 0.66284 0.1337 0.0
C770 C 0.88399 0.67172 0.09781 0.0
O771 O 0.87241 0.66096 0.11138 0.0
C772 C 0.94777 0.63541 0.15725 0.0
O773 O 0.95273 0.65815 0.15266 0.0
O774 O 0.91294 0.67565 0.17103 0.0
O775 O 0.92198 0.70723 0.15214 0.0
H776 H 0.85319 0.65557 0.21706 0.0
H777 H 0.93847 0.66051 0.10447 0.0
O778 O 0.90054 0.68768 0.10118 0.0
H779 H 0.00136 0.71854 0.12645 0.0
H780 H 0.92933 0.76688 0.08323 0.0
H781 H 0.8959 0.74411 0.14381 0.0
H782 H 0.95778 0.72463 0.13428 0.0
H783 H 0.92858 0.7236 0.09317 0.0
O784 O 0.92563 0.62853 0.15934 0.0
H785 H 0.87072 0.67177 0.18827 0.0
H786 H 0.89302 0.60013 0.17266 0.0
H787 H 0.89644 0.78762 0.13449 0.0
H788 H 0.98182 0.65381 0.09622 0.0
H789 H 0.91326 0.79923 0.104 0.0
H790 H 0.01361 0.68291 0.10729 0.0
O791 O 0.87689 0.70197 0.13382 0.0
H792 H 0.89218 0.5839 0.10832 0.0
H793 H 0.84515 0.63109 0.15409 0.0
H794 H 0.82405 0.59994 0.13526 0.0
H795 H 0.84762 0.57608 0.1122 0.0
H796 H 0.9125 0.61539 0.1273 0.0
H797 H 0.87592 0.58317 0.20135 0.0
H798 H 0.85574 0.61096 0.22374 0.0
O799 O 0.86718 0.67179 0.15359 0.0
C800 C 0.92158 0.69697 0.16794 0.0
C801 C 0.86185 0.64326 0.20738 0.0
C802 C 0.87464 0.60263 0.19857 0.0
N803 N 0.88264 0.63687 0.17873 0.0
C804 C 0.87174 0.65232 0.19103 0.0
C805 C 0.88432 0.61234 0.18237 0.0
C806 C 0.86331 0.61823 0.21113 0.0
C807 C 0.95217 0.6734 0.10917 0.0
N808 N 0.9456 0.69302 0.11974 0.0
C809 C 0.9767 0.66945 0.10452 0.0
C810 C -0.00547 0.68576 0.11076 0.0
C811 C 0.98767 0.70575 0.12153 0.0
C812 C 0.96298 0.70909 0.12593 0.0
C813 C 0.92202 0.76205 0.09657 0.0
C814 C 0.90341 0.74905 0.13058 0.0
C815 C 0.92152 0.73759 0.10225 0.0
N816 N 0.91243 0.7314 0.11912 0.0
C817 C 0.9036 0.7737 0.12535 0.0
C818 C 0.913 0.7802 0.10823 0.0
C819 C 0.86201 0.69123 0.14465 0.0
C820 C 0.88174 0.59411 0.11838 0.0
C821 C 0.85552 0.62081 0.14406 0.0
C822 C 0.84348 0.60316 0.13346 0.0
C823 C 0.85672 0.58976 0.12054 0.0
N824 N 0.88006 0.62495 0.14186 0.0
C825 C 0.89316 0.61189 0.12922 0.0
Co826 Co 0.78688 0.90893 0.62637 0.0
Co827 Co 0.8389 0.89576 0.6515 0.0
O828 O 0.82219 0.90703 0.62953 0.0
C829 C 0.80476 0.8754 0.59789 0.0
O830 O 0.8161 0.86434 0.61145 0.0
C831 C 0.85575 0.94585 0.64528 0.0
O832 O 0.8325 0.95133 0.64319 0.0
O833 O 0.8175 0.91606 0.66734 0.0
O834 O 0.78263 0.92339 0.65164 0.0
H835 H 0.84487 0.86357 0.71601 0.0
H836 H 0.81979 0.93045 0.59816 0.0
O837 O 0.79111 0.89391 0.60123 0.0
H838 H 0.76958 -0.00073 0.62081 0.0
H839 H 0.71032 0.92443 0.58964 0.0
H840 H 0.74342 0.89831 0.64956 0.0
H841 H 0.76343 0.95744 0.63293 0.0
H842 H 0.755 0.92258 0.59483 0.0
O843 O 0.86212 0.92393 0.64901 0.0
H844 H 0.82338 0.87708 0.68797 0.0
H845 H 0.89151 0.89194 0.66201 0.0
H846 H 0.69863 0.90008 0.64504 0.0
H847 H 0.82643 0.97193 0.58558 0.0
H848 H 0.68181 0.91322 0.61489 0.0
H849 H 0.80128 0.0067 0.59696 0.0
O850 O 0.78228 0.87586 0.63708 0.0
H851 H 0.89245 0.87909 0.59676 0.0
H852 H 0.85489 0.84351 0.65232 0.0
H853 H 0.87993 0.81728 0.63209 0.0
H854 H 0.89888 0.83506 0.60406 0.0
H855 H 0.86718 0.90462 0.61732 0.0
H856 H 0.91376 0.87876 0.68982 0.0
H857 H 0.89039 0.86436 0.71705 0.0
O858 O 0.81553 0.86783 0.65436 0.0
C859 C 0.79592 0.92491 0.66611 0.0
C860 C 0.85526 0.86971 0.70421 0.0
C861 C 0.89392 0.87827 0.68952 0.0
N862 N 0.8562 0.88504 0.67332 0.0
C863 C 0.8432 0.87731 0.68828 0.0
C864 C 0.88123 0.88574 0.67383 0.0
C865 C 0.8808 0.87019 0.70479 0.0
C866 C 0.80858 0.94544 0.60303 0.0
N867 N 0.79113 0.94151 0.61617 0.0
C868 C 0.81251 0.9689 0.59592 0.0
C869 C 0.79841 0.98841 0.60234 0.0
C870 C 0.78063 0.98426 0.61573 0.0
C871 C 0.77725 0.96055 0.62255 0.0
C872 C 0.71742 0.91876 0.60285 0.0
C873 C 0.73623 0.90426 0.63646 0.0
C874 C 0.74269 0.91765 0.60586 0.0
N875 N 0.75176 0.91064 0.62255 0.0
C876 C 0.71086 0.90512 0.63396 0.0
C877 C 0.70144 0.91247 0.61703 0.0
C878 C 0.7943 0.8624 0.64822 0.0
C879 C 0.88436 0.87115 0.60897 0.0
C880 C 0.86312 0.85139 0.64017 0.0
C881 C 0.87729 0.83645 0.62877 0.0
C882 C 0.88793 0.84644 0.61306 0.0
N883 N 0.85971 0.87561 0.63606 0.0
C884 C 0.87013 0.88555 0.6207 0.0
Co885 Co 0.57393 0.79386 0.12722 0.0
Co886 Co 0.59063 0.84219 0.15534 0.0
O887 O 0.57531 0.82863 0.13341 0.0
C888 C 0.60133 0.81798 0.09756 0.0
O889 O 0.61271 0.82977 0.11073 0.0
C890 C 0.53913 0.8565 0.15761 0.0
O891 O 0.53402 0.83374 0.15318 0.0
O892 O 0.57529 0.81678 0.17102 0.0
O893 O 0.56351 0.78537 0.15297 0.0
H894 H 0.63694 0.83882 0.21496 0.0
H895 H 0.54739 0.83003 0.10418 0.0
O896 O 0.58492 0.80207 0.10146 0.0
H897 H 0.48382 0.77398 0.12786 0.0
H898 H 0.55468 0.72256 0.08579 0.0
H899 H 0.58888 0.74768 0.14561 0.0
H900 H 0.52736 0.76763 0.13573 0.0
H901 H 0.55628 0.76627 0.0945 0.0
O902 O 0.56133 0.8635 0.15904 0.0
H903 H 0.61814 0.82165 0.18694 0.0
H904 H 0.59435 0.89262 0.17083 0.0
H905 H 0.58746 0.70376 0.13753 0.0
H906 H 0.50409 0.83696 0.09587 0.0
H907 H 0.57026 0.69096 0.10742 0.0
H908 H 0.47196 0.80885 0.1078 0.0
O909 O 0.60864 0.78895 0.13436 0.0
H910 H 0.59135 0.90705 0.10631 0.0
H911 H 0.64143 0.86171 0.15133 0.0
H912 H 0.6611 0.89257 0.13139 0.0
H913 H 0.63599 0.91549 0.10869 0.0
H914 H 0.57248 0.87587 0.12638 0.0
H915 H 0.61273 0.91055 0.19875 0.0
H916 H 0.63429 0.88358 0.22099 0.0
O917 O 0.61983 0.82075 0.15216 0.0
C918 C 0.56554 0.79576 0.16866 0.0
C919 C 0.62768 0.85077 0.20533 0.0
C920 C 0.61406 0.89103 0.19624 0.0
N921 N 0.6054 0.85616 0.17719 0.0
C922 C 0.61708 0.84117 0.18942 0.0
C923 C 0.60367 0.88077 0.18048 0.0
C924 C 0.62616 0.87589 0.20872 0.0
C925 C 0.53353 0.81758 0.10926 0.0
N926 N 0.53989 0.79836 0.12031 0.0
C927 C 0.50904 0.82165 0.10458 0.0
C928 C 0.49102 0.8059 0.1113 0.0
C929 C 0.49766 0.78633 0.12256 0.0
C930 C 0.52233 0.78284 0.12698 0.0
C931 C 0.56216 0.7279 0.09896 0.0
C932 C 0.5812 0.74222 0.13254 0.0
C933 C 0.56315 0.75261 0.10395 0.0
N934 N 0.57245 0.75946 0.12061 0.0
C935 C 0.58052 0.71734 0.12801 0.0
C936 C 0.5709 0.71018 0.11111 0.0
C937 C 0.62425 0.80045 0.14413 0.0
C938 C 0.60247 0.89724 0.11619 0.0
C939 C 0.6304 0.87159 0.14147 0.0
C940 C 0.64163 0.88907 0.13024 0.0
C941 C 0.62753 0.90194 0.11752 0.0
N942 N 0.60581 0.8671 0.14009 0.0
C943 C 0.59186 0.87964 0.12765 0.0
C944 C 0.38601 0.17931 0.94597 0.0
C945 C 0.37285 0.16938 0.93113 0.0
C946 C 0.37997 0.17287 0.96405 0.0
C947 C 0.34873 0.12448 0.99097 0.0
H948 H 0.34652 0.17381 0.02925 0.0
C949 C 0.31117 0.10381 0.06385 0.0
C950 C 0.32384 0.11435 0.07869 0.0
C951 C 0.31689 0.11053 0.04577 0.0
C952 C 0.34731 0.15974 0.01877 0.0
H953 H 0.34295 0.14496 0.92369 0.0
H954 H 0.33244 0.13401 0.95503 0.0
H955 H 0.35757 0.18567 0.99803 0.0
H956 H 0.35276 0.1399 0.08613 0.0
H957 H 0.36285 0.15125 0.05481 0.0
H958 H 0.33861 0.09852 0.01169 0.0
C959 C 0.34756 0.14654 0.95276 0.0
C960 C 0.35366 0.16656 1.00087 0.0
C961 C 0.3535 0.15301 0.93476 0.0
C962 C 0.34243 0.13157 0.07506 0.0
C963 C 0.34817 0.13821 0.05705 0.0
C964 C 0.34244 0.11765 0.00887 0.0
C965 C 0.36075 0.15628 0.96763 0.0
C966 C 0.35442 0.14902 0.98675 0.0
C967 C 0.33543 0.12788 0.04217 0.0
C968 C 0.34166 0.13518 0.02301 0.0
H969 H 0.40106 0.1919 0.94363 0.0
H970 H 0.39063 0.18055 0.97521 0.0
H971 H 0.34948 0.11044 0.98047 0.0
H972 H 0.29674 0.09051 0.0662 0.0
H973 H 0.30656 0.10237 0.03463 0.0
C974 C 0.33018 0.34518 0.43441 0.0
C975 C 0.31369 0.36442 0.43078 0.0
C976 C 0.33608 0.33874 0.45243 0.0
C977 C 0.31468 0.34317 0.50033 0.0
H978 H 0.38282 0.32995 0.51194 0.0
C979 C 0.34881 0.33219 0.57491 0.0
C980 C 0.36696 0.31452 0.57855 0.0
C981 C 0.34192 0.33759 0.55689 0.0
C982 C 0.36366 0.33323 0.5089 0.0
H983 H 0.29028 0.39182 0.44333 0.0
H984 H 0.30062 0.38051 0.47493 0.0
H985 H 0.37135 0.34099 0.48067 0.0
H986 H 0.39197 0.28853 0.56607 0.0
H987 H 0.37964 0.29769 0.53453 0.0
H988 H 0.30696 0.33532 0.52855 0.0
C989 C 0.30884 0.37033 0.46375 0.0
C990 C 0.35709 0.33962 0.49097 0.0
C991 C 0.30299 0.37688 0.44565 0.0
C992 C 0.37795 0.30225 0.56373 0.0
C993 C 0.37099 0.30762 0.54565 0.0
C994 C 0.32124 0.33668 0.51827 0.0
C995 C 0.32562 0.35132 0.46732 0.0
C996 C 0.33252 0.34469 0.48647 0.0
C997 C 0.35293 0.32543 0.542 0.0
C998 C 0.34583 0.33168 0.5228 0.0
H999 H 0.33881 0.33516 0.42331 0.0
H1000 H 0.34879 0.32379 0.45469 0.0
H1001 H 0.29556 0.34662 0.49726 0.0
H1002 H 0.34008 0.34217 0.58598 0.0
H1003 H 0.32828 0.35169 0.55462 0.0
C1004 C 0.12826 0.34623 0.93331 0.0
C1005 C 0.11094 0.32748 0.93044 0.0
C1006 C 0.13538 0.35281 0.95106 0.0
C1007 C 0.13764 0.32955 0.99861 0.0
H1008 H 0.1468 0.39811 0.01112 0.0
C1009 C 0.17958 0.39256 0.06165 0.0
C1010 C 0.16903 0.38015 0.07662 0.0
C1011 C 0.17309 0.3863 0.04361 0.0
C1012 C 0.14465 0.37888 0.00778 0.0
H1013 H 0.08734 0.30111 0.94402 0.0
H1014 H 0.09969 0.31274 0.97511 0.0
H1015 H 0.13359 0.38692 0.98021 0.0
H1016 H 0.14317 0.35162 0.08432 0.0
H1017 H 0.13184 0.34099 0.05313 0.0
H1018 H 0.14866 0.32149 0.02615 0.0
C1019 C 0.10796 0.32214 0.96357 0.0
C1020 C 0.13702 0.37245 0.99007 0.0
C1021 C 0.10078 0.31557 0.94576 0.0
C1022 C 0.15187 0.36144 0.07315 0.0
C1023 C 0.14542 0.35522 0.05521 0.0
C1024 C 0.14528 0.33597 0.01629 0.0
C1025 C 0.12539 0.34083 0.96642 0.0
C1026 C 0.13335 0.3477 0.98529 0.0
C1027 C 0.15595 0.3675 0.0402 0.0
C1028 C 0.14876 0.36072 0.02114 0.0
H1029 H 0.13645 0.35585 0.92183 0.0
H1030 H 0.14905 0.36706 0.95273 0.0
H1031 H 0.13544 0.31031 0.9953 0.0
H1032 H 0.19283 0.40707 0.06386 0.0
H1033 H 0.18168 0.39599 0.03234 0.0
C1034 C 0.12883 0.1494 0.57387 0.0
C1035 C 0.11923 0.17259 0.57809 0.0
C1036 C 0.13617 0.14377 0.55601 0.0
C1037 C 0.13102 0.1659 0.50751 0.0
H1038 H 0.18073 0.11618 0.49996 0.0
C1039 C 0.18868 0.11522 0.44445 0.0
C1040 C 0.17022 0.11617 0.43106 0.0
C1041 C 0.18403 0.12349 0.46235 0.0
C1042 C 0.16712 0.13042 0.50169 0.0
H1043 H 0.11025 0.20834 0.56709 0.0
H1044 H 0.12445 0.19918 0.53606 0.0
H1045 H 0.17104 0.12936 0.53082 0.0
H1046 H 0.13225 0.12556 0.42595 0.0
H1047 H 0.1236 0.13826 0.4571 0.0
H1048 H 0.1283 0.16823 0.47837 0.0
C1049 C 0.12542 0.18484 0.54631 0.0
C1050 C 0.16113 0.13768 0.51955 0.0
C1051 C 0.11741 0.19023 0.56414 0.0
C1052 C 0.14694 0.12491 0.43595 0.0
C1053 C 0.14208 0.13249 0.45386 0.0
C1054 C 0.13747 0.15913 0.48965 0.0
C1055 C 0.1348 0.16143 0.54193 0.0
C1056 C 0.14257 0.15513 0.52279 0.0
C1057 C 0.1606 0.13227 0.46733 0.0
C1058 C 0.15521 0.14085 0.48643 0.0
H1059 H 0.13021 0.13534 0.58432 0.0
H1060 H 0.14252 0.12533 0.55328 0.0
H1061 H 0.11649 0.17921 0.50924 0.0
H1062 H 0.20685 0.10867 0.44098 0.0
H1063 H 0.19895 0.12331 0.47214 0.0
C1064 C 0.60653 0.80611 0.06451 0.0
C1065 C 0.60728 0.82401 0.07832 0.0
C1066 C 0.61377 0.8119 0.04656 0.0
C1067 C 0.6466 0.86089 0.01963 0.0
H1068 H 0.61826 0.8262 0.9784 0.0
C1069 C 0.63872 0.86679 0.93496 0.0
C1070 C 0.66198 0.87629 0.93083 0.0
C1071 C 0.63249 0.86061 0.95295 0.0
C1072 C 0.62613 0.83647 0.98967 0.0
H1073 H 0.61508 0.86217 0.08417 0.0
H1074 H 0.62598 0.87275 0.05288 0.0
H1075 H 0.60535 0.81599 0.00919 0.0
H1076 H 0.69712 0.88671 0.9422 0.0
H1077 H 0.68694 0.87456 0.97357 0.0
H1078 H 0.66602 0.8826 1.00005 0.0
C1079 C 0.62117 0.8539 0.05582 0.0
C1080 C 0.61905 0.83018 0.00751 0.0
C1081 C 0.61463 0.84793 0.0738 0.0
C1082 C 0.67898 0.87956 0.94508 0.0
C1083 C 0.673 0.8727 0.96309 0.0
C1084 C 0.65319 0.86763 1.00177 0.0
C1085 C 0.62127 0.83592 0.04193 0.0
C1086 C 0.62912 0.84232 0.02281 0.0
C1087 C 0.64963 0.86306 0.9673 0.0
C1088 C 0.64302 0.85558 0.98647 0.0
H1089 H 0.6011 0.78748 0.06771 0.0
H1090 H 0.61393 0.79735 0.03647 0.0
H1091 H 0.65536 0.87035 0.03093 0.0
H1092 H 0.62514 0.86437 0.92425 0.0
H1093 H 0.61407 0.85408 0.95553 0.0
C1094 C 0.65027 0.63023 0.57222 0.0
C1095 C 0.67345 0.62138 0.57728 0.0
C1096 C 0.64552 0.63737 0.55418 0.0
C1097 C 0.64082 0.66239 0.51771 0.0
H1098 H 0.67508 0.63143 0.47739 0.0
C1099 C 0.62033 0.68979 0.44241 0.0
C1100 C 0.62272 0.67163 0.4289 0.0
C1101 C 0.62841 0.68538 0.46039 0.0
C1102 C 0.66495 0.64006 0.48841 0.0
H1103 H 0.71006 0.6134 0.56756 0.0
H1104 H 0.70241 0.62735 0.5362 0.0
H1105 H 0.68463 0.61956 0.50853 0.0
H1106 H 0.63477 0.63447 0.42359 0.0
H1107 H 0.64712 0.62609 0.45487 0.0
H1108 H 0.61969 0.68137 0.49759 0.0
C1109 C 0.68743 0.62788 0.54593 0.0
C1110 C 0.67088 0.63357 0.50645 0.0
C1111 C 0.69196 0.62002 0.56395 0.0
C1112 C 0.63295 0.64892 0.4337 0.0
C1113 C 0.64032 0.64424 0.4517 0.0
C1114 C 0.63438 0.66834 0.49967 0.0
C1115 C 0.66407 0.63661 0.54073 0.0
C1116 C 0.65873 0.64445 0.52142 0.0
C1117 C 0.63838 0.66242 0.46536 0.0
C1118 C 0.64617 0.6571 0.48469 0.0
H1119 H 0.63556 0.63121 0.58217 0.0
H1120 H 0.62708 0.64313 0.55082 0.0
H1121 H 0.63146 0.67184 0.52873 0.0
H1122 H 0.61265 0.70754 0.43901 0.0
H1123 H 0.62698 0.70011 0.47028 0.0
C1124 C 0.81071 0.60421 0.94545 0.0
C1125 C 0.8291 0.60388 0.932 0.0
C1126 C 0.8162 0.61151 0.96345 0.0
C1127 C 0.83348 0.61764 1.00279 0.0
H1128 H 0.88645 0.66413 0.00982 0.0
C1129 C 0.8687 0.64092 0.07528 0.0
C1130 C 0.87817 0.66442 0.07877 0.0
C1131 C 0.86273 0.63374 0.05743 0.0
C1132 C 0.87134 0.65144 0.00821 0.0
H1133 H 0.8678 0.60956 0.92689 0.0
H1134 H 0.87775 0.62065 0.95828 0.0
H1135 H 0.87514 0.65185 0.97907 0.0
H1136 H 0.88863 0.69896 0.06639 0.0
H1137 H 0.87697 0.68703 0.03528 0.0
H1138 H 0.82859 0.61851 0.03186 0.0
C1139 C 0.85882 0.61662 0.95499 0.0
C1140 C 0.86513 0.64393 0.99045 0.0
C1141 C 0.8532 0.60997 0.93697 0.0
C1142 C 0.88151 0.68066 0.06404 0.0
C1143 C 0.87494 0.67369 0.04618 0.0
C1144 C 0.83932 0.62559 0.02053 0.0
C1145 C 0.84035 0.61806 0.96845 0.0
C1146 C 0.84633 0.62664 0.98745 0.0
C1147 C 0.86545 0.65008 0.0426 0.0
C1148 C 0.85856 0.64238 0.02355 0.0
H1149 H 0.79193 0.59976 0.9419 0.0
H1150 H 0.80134 0.61264 0.97325 0.0
H1151 H 0.81907 0.60415 1.00122 0.0
H1152 H 0.8662 0.62789 0.08635 0.0
H1153 H 0.8562 0.6152 0.05533 0.0
C1154 C 0.87372 0.79795 0.44833 0.0
C1155 C 0.86303 0.80928 0.43295 0.0
C1156 C 0.86624 0.80432 0.46611 0.0
C1157 C 0.83649 0.85452 0.4919 0.0
H1158 H 0.82754 0.80511 0.52958 0.0
C1159 C 0.79778 0.87833 0.56378 0.0
C1160 C 0.8093 0.86705 0.57883 0.0
C1161 C 0.80307 0.87075 0.54582 0.0
C1162 C 0.83017 0.81917 0.51926 0.0
H1163 H 0.83588 0.836 0.42422 0.0
H1164 H 0.82282 0.84683 0.45506 0.0
H1165 H 0.83974 0.79274 0.49871 0.0
H1166 H 0.8354 0.83891 0.58679 0.0
H1167 H 0.84474 0.82601 0.55569 0.0
H1168 H 0.82721 0.88099 0.51245 0.0
C1169 C 0.83716 0.83326 0.45345 0.0
C1170 C 0.83718 0.81206 0.50157 0.0
C1171 C 0.84455 0.82688 0.43574 0.0
C1172 C 0.82602 0.84792 0.57555 0.0
C1173 C 0.83131 0.84039 0.55767 0.0
C1174 C 0.82954 0.86164 0.50959 0.0
C1175 C 0.848 0.82221 0.46886 0.0
C1176 C 0.84048 0.82966 0.48769 0.0
C1177 C 0.82 0.85174 0.54256 0.0
C1178 C 0.82639 0.84407 0.52352 0.0
H1179 H 0.88805 0.78439 0.44665 0.0
H1180 H 0.87511 0.79561 0.47771 0.0
H1181 H 0.83922 0.86859 0.48159 0.0
H1182 H 0.78481 0.89311 0.56584 0.0
H1183 H 0.79383 0.87971 0.5345 0.0
C1184 C 0.22423 0.33569 0.13664 0.0
C1185 C 0.20268 0.34196 0.14612 0.0
C1186 C 0.23516 0.31292 0.13933 0.0
C1187 C 0.22122 0.25037 0.15426 0.0
H1188 H 0.29206 0.24404 0.15377 0.0
C1189 C 0.26894 0.1598 0.13755 0.0
C1190 C 0.29039 0.15357 0.14717 0.0
C1191 C 0.2582 0.18272 0.13992 0.0
C1192 C 0.27227 0.24551 0.15422 0.0
H1193 H 0.17591 0.32931 0.16608 0.0
H1194 H 0.19525 0.28955 0.1709 0.0
H1195 H 0.27357 0.28469 0.15409 0.0
H1196 H 0.31726 0.16648 0.16697 0.0
H1197 H 0.29825 0.20652 0.17121 0.0
H1198 H 0.21991 0.21119 0.15449 0.0
C1199 C 0.20344 0.30221 0.16121 0.0
C1200 C 0.26168 0.26877 0.15417 0.0
C1201 C 0.19241 0.325 0.15847 0.0
C1202 C 0.30082 0.17076 0.15927 0.0
C1203 C 0.28997 0.1937 0.16168 0.0
C1204 C 0.23181 0.22711 0.15439 0.0
C1205 C 0.22488 0.29594 0.15163 0.0
C1206 C 0.23606 0.27141 0.15376 0.0
C1207 C 0.26856 0.19989 0.15202 0.0
C1208 C 0.25742 0.22446 0.15394 0.0
H1209 H 0.23262 0.34828 0.12699 0.0
H1210 H 0.25141 0.30843 0.13147 0.0
H1211 H 0.20143 0.25181 0.15385 0.0
H1212 H 0.26045 0.14705 0.12808 0.0
H1213 H 0.24198 0.18714 0.132 0.0
C1214 C 0.32868 0.26379 0.64494 0.0
C1215 C 0.33614 0.28593 0.65308 0.0
C1216 C 0.30649 0.25299 0.64982 0.0
C1217 C 0.24619 0.26893 0.66781 0.0
H1218 H 0.23771 0.1983 0.66637 0.0
C1219 C 0.15714 0.22447 0.64498 0.0
C1220 C 0.14939 0.20222 0.65282 0.0
C1221 C 0.17947 0.23483 0.64997 0.0
C1222 C 0.23975 0.21803 0.66722 0.0
H1223 H 0.32643 0.31373 0.67317 0.0
H1224 H 0.28764 0.29468 0.68177 0.0
H1225 H 0.27887 0.21561 0.66684 0.0
H1226 H 0.15882 0.17372 0.67244 0.0
H1227 H 0.19802 0.192 0.68116 0.0
H1228 H 0.20708 0.27136 0.66796 0.0
C1229 C 0.29891 0.28589 0.67144 0.0
C1230 C 0.26333 0.22795 0.66726 0.0
C1231 C 0.32112 0.29679 0.6665 0.0
C1232 C 0.16434 0.19079 0.66603 0.0
C1233 C 0.18677 0.20123 0.67104 0.0
C1234 C 0.22263 0.25901 0.66791 0.0
C1235 C 0.29128 0.26398 0.66303 0.0
C1236 C 0.26675 0.2535 0.66676 0.0
C1237 C 0.19459 0.22329 0.66296 0.0
C1238 C 0.21919 0.2335 0.6668 0.0
H1239 H 0.33979 0.25488 0.63457 0.0
H1240 H 0.30092 0.2364 0.64278 0.0
H1241 H 0.24818 0.28868 0.66741 0.0
H1242 H 0.14612 0.23384 0.63479 0.0
H1243 H 0.1852 0.25156 0.64318 0.0
C1244 C 0.26137 0.32684 0.36544 0.0
C1245 C 0.28314 0.33375 0.35652 0.0
C1246 C 0.24948 0.30513 0.36073 0.0
C1247 C 0.26223 0.24486 0.34103 0.0
H1248 H 0.19177 0.23793 0.34607 0.0
C1249 C 0.1829 0.16434 0.34487 0.0
C1250 C 0.19536 0.14854 0.35696 0.0
C1251 C 0.19312 0.18696 0.34005 0.0
C1252 C 0.2114 0.23957 0.34421 0.0
H1253 H 0.30906 0.32366 0.33518 0.0
H1254 H 0.28805 0.28582 0.32681 0.0
H1255 H 0.21 0.27873 0.34548 0.0
H1256 H 0.22845 0.14406 0.37329 0.0
H1257 H 0.24579 0.18341 0.36523 0.0
H1258 H 0.26366 0.20573 0.3399 0.0
C1259 C 0.28043 0.29706 0.33766 0.0
C1260 C 0.22188 0.26292 0.34412 0.0
C1261 C 0.29246 0.31873 0.34247 0.0
C1262 C 0.21829 0.15571 0.36394 0.0
C1263 C 0.22842 0.17821 0.35915 0.0
C1264 C 0.25174 0.22155 0.34096 0.0
C1265 C 0.25895 0.2899 0.34688 0.0
C1266 C 0.24748 0.26574 0.34331 0.0
C1267 C 0.21597 0.19411 0.34719 0.0
C1268 C 0.22635 0.21865 0.34337 0.0
H1269 H 0.25366 0.33797 0.37633 0.0
H1270 H 0.23328 0.29993 0.3684 0.0
H1271 H 0.28201 0.24634 0.34041 0.0
H1272 H 0.16527 0.15929 0.33916 0.0
H1273 H 0.18316 0.19884 0.33075 0.0
C1274 C 0.33199 0.22618 0.86946 0.0
C1275 C 0.3376 0.20431 0.86015 0.0
C1276 C 0.30952 0.23772 0.86671 0.0
C1277 C 0.26477 0.26447 0.85269 0.0
H1278 H 0.20755 0.22223 0.85353 0.0
C1279 C 0.16568 0.3019 0.84943 0.0
C1280 C 0.14924 0.29127 0.86201 0.0
C1281 C 0.18885 0.29168 0.8467 0.0
C1282 C 0.22337 0.23425 0.85328 0.0
H1283 H 0.32434 0.17792 0.8401 0.0
H1284 H 0.28519 0.19828 0.83521 0.0
H1285 H 0.24826 0.20406 0.85313 0.0
H1286 H 0.14437 0.26168 0.88169 0.0
H1287 H 0.18478 0.24424 0.87713 0.0
H1288 H 0.23978 0.29466 0.85376 0.0
C1289 C 0.29806 0.20622 0.84485 0.0
C1290 C 0.24667 0.22386 0.85281 0.0
C1291 C 0.32051 0.1946 0.84765 0.0
C1292 C 0.1565 0.27032 0.87185 0.0
C1293 C 0.17961 0.26017 0.86913 0.0
C1294 C 0.24143 0.27488 0.85321 0.0
C1295 C 0.29222 0.22772 0.85453 0.0
C1296 C 0.26761 0.23885 0.8529 0.0
C1297 C 0.19596 0.27066 0.85648 0.0
C1298 C 0.22054 0.25983 0.85393 0.0
H1299 H 0.34476 0.2342 0.87916 0.0
H1300 H 0.3054 0.25406 0.87458 0.0
H1301 H 0.28061 0.27647 0.85251 0.0
H1302 H 0.16063 0.318 0.84157 0.0
H1303 H 0.20108 0.30005 0.83679 0.0
C1304 C 0.69255 0.81786 0.85156 0.0
C1305 C 0.70129 0.83625 0.86341 0.0
C1306 C 0.7051 0.79568 0.8499 0.0
C1307 C 0.72551 0.74567 0.85937 0.0
H1308 H 0.79659 0.74311 0.86064 0.0
C1309 C 0.77639 0.65755 0.87725 0.0
C1310 C 0.79717 0.65136 0.86683 0.0
C1311 C 0.76561 0.68053 0.87545 0.0
C1312 C 0.77675 0.74355 0.86006 0.0
H1313 H 0.73019 0.8458 0.8827 0.0
H1314 H 0.75163 0.807 0.88009 0.0
H1315 H 0.77594 0.78274 0.85888 0.0
H1316 H 0.82336 0.66473 0.84672 0.0
H1317 H 0.80427 0.70499 0.84348 0.0
H1318 H 0.72626 0.70653 0.8604 0.0
C1319 C 0.73538 0.80989 0.87182 0.0
C1320 C 0.76493 0.76621 0.85925 0.0
C1321 C 0.72292 0.83206 0.87343 0.0
C1322 C 0.80737 0.66894 0.85494 0.0
C1323 C 0.79648 0.69199 0.8531 0.0
C1324 C 0.73731 0.72305 0.86013 0.0
C1325 C 0.72657 0.79145 0.86009 0.0
C1326 C 0.73918 0.76749 0.85922 0.0
C1327 C 0.77528 0.69783 0.86315 0.0
C1328 C 0.76302 0.72179 0.86085 0.0
H1329 H 0.67605 0.82056 0.84353 0.0
H1330 H 0.69803 0.78187 0.84061 0.0
H1331 H 0.70565 0.74605 0.85951 0.0
H1332 H 0.76819 0.64455 0.88668 0.0
H1333 H 0.74964 0.68473 0.8837 0.0
C1334 C 0.66541 0.68814 0.33968 0.0
C1335 C 0.65066 0.69899 0.35327 0.0
C1336 C 0.68738 0.69919 0.33434 0.0
C1337 C 0.72327 0.75709 0.33846 0.0
H1338 H 0.77918 0.71324 0.3384 0.0
C1339 C 0.82226 0.79352 0.34313 0.0
C1340 C 0.83631 0.78161 0.35666 0.0
C1341 C 0.80016 0.78332 0.33714 0.0
C1342 C 0.76373 0.72572 0.33826 0.0
H1343 H 0.64712 0.7303 0.37154 0.0
H1344 H 0.68558 0.74902 0.3627 0.0
H1345 H 0.73798 0.69624 0.33811 0.0
H1346 H 0.83838 0.74941 0.3742 0.0
H1347 H 0.79982 0.73212 0.36412 0.0
H1348 H 0.74907 0.7865 0.34013 0.0
C1349 C 0.68 0.73231 0.35581 0.0
C1350 C 0.74011 0.71599 0.33786 0.0
C1351 C 0.65804 0.72137 0.36107 0.0
C1352 C 0.82804 0.75914 0.3638 0.0
C1353 C 0.80602 0.74903 0.35783 0.0
C1354 C 0.74691 0.76681 0.33902 0.0
C1355 C 0.69505 0.72123 0.34254 0.0
C1356 C 0.71964 0.73156 0.33878 0.0
C1357 C 0.79176 0.76105 0.34453 0.0
C1358 C 0.76732 0.75116 0.33976 0.0
H1359 H 0.66012 0.67103 0.33324 0.0
H1360 H 0.69851 0.69034 0.32397 0.0
H1361 H 0.70782 0.76955 0.33876 0.0
H1362 H 0.82822 0.81076 0.33724 0.0
H1363 H 0.78957 0.79293 0.32681 0.0
C1364 C 0.76033 0.83183 0.6466 0.0
C1365 C 0.78297 0.83907 0.65404 0.0
C1366 C 0.74972 0.80963 0.65165 0.0
C1367 C 0.76656 0.74891 0.66826 0.0
H1368 H 0.69594 0.7405 0.66812 0.0
C1369 C 0.72142 0.66058 0.64443 0.0
C1370 C 0.69926 0.65272 0.6523 0.0
C1371 C 0.73196 0.68273 0.6497 0.0
C1372 C 0.71568 0.74248 0.66861 0.0
H1373 H 0.81184 0.82899 0.67316 0.0
H1374 H 0.79309 0.79012 0.68208 0.0
H1375 H 0.71326 0.78159 0.66928 0.0
H1376 H 0.67107 0.66171 0.67226 0.0
H1377 H 0.68969 0.70048 0.68155 0.0
H1378 H 0.76898 0.70981 0.66742 0.0
C1379 C 0.78376 0.80159 0.67216 0.0
C1380 C 0.72561 0.76604 0.66905 0.0
C1381 C 0.79448 0.82385 0.66704 0.0
C1382 C 0.68805 0.66735 0.6658 0.0
C1383 C 0.6987 0.68954 0.67115 0.0
C1384 C 0.75663 0.72534 0.66799 0.0
C1385 C 0.76139 0.79416 0.66436 0.0
C1386 C 0.75111 0.7695 0.66802 0.0
C1387 C 0.7207 0.69751 0.66306 0.0
C1388 C 0.7311 0.72194 0.66731 0.0
H1389 H 0.75089 0.84309 0.63658 0.0
H1390 H 0.73274 0.80424 0.64508 0.0
H1391 H 0.78628 0.75092 0.66746 0.0
H1392 H 0.73058 0.6498 0.63399 0.0
H1393 H 0.74861 0.68858 0.64288 0.0
C1394 C 0.82054 0.69218 0.15947 0.0
C1395 C 0.83744 0.70211 0.14692 0.0
C1396 C 0.79753 0.70294 0.16175 0.0
C1397 C 0.76385 0.76061 0.15342 0.0
H1398 H 0.70629 0.71886 0.15429 0.0
C1399 C 0.66605 0.79996 0.15835 0.0
C1400 C 0.64875 0.78943 0.14639 0.0
C1401 C 0.68896 0.78908 0.16077 0.0
C1402 C 0.72221 0.73074 0.15404 0.0
H1403 H 0.84335 0.73109 0.12688 0.0
H1404 H 0.80321 0.74943 0.13064 0.0
H1405 H 0.74694 0.70033 0.15403 0.0
H1406 H 0.64201 0.75923 0.12757 0.0
H1407 H 0.68209 0.74066 0.13152 0.0
H1408 H 0.73916 0.79099 0.15256 0.0
C1409 C 0.80789 0.73365 0.13897 0.0
C1410 C 0.74547 0.72014 0.15411 0.0
C1411 C 0.83084 0.72297 0.13671 0.0
C1412 C 0.65486 0.76782 0.13692 0.0
C1413 C 0.67776 0.75702 0.1393 0.0
C1414 C 0.74061 0.7712 0.15329 0.0
C1415 C 0.79103 0.72381 0.15153 0.0
C1416 C 0.76649 0.73498 0.15342 0.0
C1417 C 0.69503 0.76751 0.15127 0.0
C1418 C 0.71957 0.75636 0.15322 0.0
H1419 H 0.8251 0.67619 0.16761 0.0
H1420 H 0.78492 0.69508 0.17162 0.0
H1421 H 0.77977 0.7725 0.15316 0.0
H1422 H 0.66188 0.81652 0.16595 0.0
H1423 H 0.70186 0.79745 0.1702 0.0
C1424 C 0.22296 0.05193 0.32304 0.0
C1425 C 0.19744 0.05267 0.3256 0.0
C1426 C 0.23278 0.04681 0.30568 0.0
C1427 C 0.21536 0.05316 0.2572 0.0
H1428 H 0.27716 0.02032 0.24813 0.0
C1429 C 0.26004 0.05417 0.18535 0.0
C1430 C 0.285 0.06063 0.18546 0.0
C1431 C 0.24824 0.04751 0.20172 0.0
C1432 C 0.25986 0.02956 0.25045 0.0
H1433 H 0.16229 0.0464 0.31236 0.0
H1434 H 0.1794 0.0371 0.28237 0.0
H1435 H 0.25883 0.01862 0.27872 0.0
H1436 H 0.31737 0.06389 0.20273 0.0
H1437 H 0.29687 0.05268 0.23095 0.0
H1438 H 0.21674 0.06486 0.2292 0.0
C1439 C 0.19183 0.04116 0.29356 0.0
C1440 C 0.2494 0.0286 0.26798 0.0
C1441 C 0.18205 0.04639 0.31081 0.0
C1442 C 0.29808 0.05922 0.20209 0.0
C1443 C 0.28636 0.05252 0.21833 0.0
C1444 C 0.22582 0.05415 0.23972 0.0
C1445 C 0.21725 0.04219 0.29061 0.0
C1446 C 0.22725 0.04079 0.27164 0.0
C1447 C 0.26122 0.04701 0.21844 0.0
C1448 C 0.24847 0.04284 0.23623 0.0
H1449 H 0.23531 0.05666 0.33414 0.0
H1450 H 0.25245 0.04784 0.30387 0.0
H1451 H 0.19847 0.06309 0.25959 0.0
H1452 H 0.24946 0.05496 0.17278 0.0
H1453 H 0.22888 0.04313 0.20133 0.0
C1454 C 0.43752 0.261 0.68421 0.0
C1455 C 0.43175 0.28612 0.68368 0.0
C1456 C 0.44359 0.24968 0.70087 0.0
C1457 C 0.45954 0.26187 0.74998 0.0
H1458 H 0.42329 0.20176 0.75839 0.0
C1459 C 0.43375 0.22487 0.8222 0.0
C1460 C 0.43189 0.19934 0.82443 0.0
C1461 C 0.43964 0.23485 0.80501 0.0
C1462 C 0.43397 0.21827 0.75624 0.0
H1463 H 0.42956 0.31932 0.70013 0.0
H1464 H 0.43974 0.2996 0.72894 0.0
H1465 H 0.42362 0.21988 0.72799 0.0
H1466 H 0.43698 0.16424 0.81091 0.0
H1467 H 0.44775 0.18155 0.78124 0.0
H1468 H 0.46916 0.26054 0.77853 0.0
C1469 C 0.43976 0.28861 0.71656 0.0
C1470 C 0.43419 0.22866 0.73873 0.0
C1471 C 0.43371 0.2999 0.69997 0.0
C1472 C 0.43782 0.18401 0.80956 0.0
C1473 C 0.44389 0.19393 0.79251 0.0
C1474 C 0.4593 0.25145 0.76756 0.0
C1475 C 0.44409 0.26324 0.71732 0.0
C1476 C 0.44662 0.25079 0.73542 0.0
C1477 C 0.44396 0.21944 0.78982 0.0
C1478 C 0.44622 0.22969 0.77095 0.0
H1479 H 0.43636 0.24984 0.67193 0.0
H1480 H 0.44722 0.23015 0.70094 0.0
H1481 H 0.46954 0.2788 0.74785 0.0
H1482 H 0.42929 0.23714 0.8334 0.0
H1483 H 0.43946 0.25459 0.8034 0.0
C1484 C 0.18979 0.44267 0.19822 0.0
C1485 C 0.20474 0.43549 0.18345 0.0
C1486 C 0.19996 0.44786 0.21534 0.0
C1487 C 0.25798 0.4586 0.24081 0.0
H1488 H 0.22318 0.42512 0.27994 0.0
C1489 C 0.30313 0.43 0.30897 0.0
C1490 C 0.28893 0.4289 0.32509 0.0
C1491 C 0.2926 0.4367 0.29225 0.0
C1492 C 0.2329 0.43507 0.26932 0.0
H1493 H 0.24224 0.42976 0.17468 0.0
H1494 H 0.26014 0.43844 0.20485 0.0
H1495 H 0.20572 0.42616 0.24932 0.0
H1496 H 0.25277 0.43566 0.33641 0.0
H1497 H 0.2344 0.4477 0.30716 0.0
H1498 H 0.28553 0.4669 0.26086 0.0
C1499 C 0.24051 0.44025 0.2031 0.0
C1500 C 0.22289 0.43563 0.25169 0.0
C1501 C 0.23029 0.43524 0.18582 0.0
C1502 C 0.26422 0.43613 0.32426 0.0
C1503 C 0.25366 0.44288 0.30747 0.0
C1504 C 0.26801 0.45809 0.25852 0.0
C1505 C 0.22533 0.44579 0.2182 0.0
C1506 C 0.23543 0.44711 0.23715 0.0
C1507 C 0.26758 0.44258 0.29118 0.0
C1508 C 0.25575 0.44596 0.27292 0.0
H1509 H 0.17004 0.44347 0.19673 0.0
H1510 H 0.18781 0.4527 0.22653 0.0
H1511 H 0.26796 0.46782 0.22996 0.0
H1512 H 0.32228 0.42472 0.30904 0.0
H1513 H 0.30385 0.43601 0.28001 0.0
C1514 C 0.05889 0.22931 0.68609 0.0
C1515 C 0.0526 0.2051 0.68164 0.0
C1516 C 0.05358 0.23869 0.70352 0.0
C1517 C 0.04082 0.21617 0.75084 0.0
H1518 H 0.03644 0.28579 0.76067 0.0
C1519 C 0.06438 0.2571 0.8217 0.0
C1520 C 0.05465 0.27997 0.82652 0.0
C1521 C 0.05881 0.2467 0.80462 0.0
C1522 C 0.03709 0.26621 0.75833 0.0
H1523 H 0.03397 0.17239 0.69115 0.0
H1524 H 0.02328 0.18917 0.72108 0.0
H1525 H 0.03439 0.27133 0.72932 0.0
H1526 H 0.03018 0.30915 0.81824 0.0
H1527 H 0.01901 0.29034 0.78908 0.0
H1528 H 0.04257 0.21097 0.77989 0.0
C1529 C 0.03338 0.20064 0.71159 0.0
C1530 C 0.0364 0.25792 0.74018 0.0
C1531 C 0.03921 0.19109 0.69434 0.0
C1532 C 0.03796 0.29148 0.8147 0.0
C1533 C 0.03186 0.28083 0.79788 0.0
C1534 C 0.04099 0.22442 0.76902 0.0
C1535 C 0.04138 0.22421 0.71673 0.0
C1536 C 0.03891 0.23284 0.73612 0.0
C1537 C 0.04299 0.25879 0.79223 0.0
C1538 C 0.03978 0.24962 0.77303 0.0
H1539 H 0.06945 0.2404 0.67662 0.0
H1540 H 0.06035 0.2568 0.7069 0.0
H1541 H 0.04312 0.19673 0.74842 0.0
H1542 H 0.07757 0.24811 0.83056 0.0
H1543 H 0.06804 0.2299 0.80081 0.0
C1544 C 0.72439 0.93557 0.82352 0.0
C1545 C 0.69965 0.92832 0.82345 0.0
C1546 C 0.73595 0.94252 0.80713 0.0
C1547 C 0.72388 0.95987 0.75836 0.0
H1548 H 0.78566 0.92709 0.74916 0.0
C1549 C 0.76001 0.9368 0.68578 0.0
C1550 C 0.78549 0.93574 0.68304 0.0
C1551 C 0.75048 0.94239 0.70314 0.0
C1552 C 0.76868 0.93685 0.75156 0.0
H1553 H 0.66735 0.92404 0.80625 0.0
H1554 H 0.68744 0.93584 0.77796 0.0
H1555 H 0.76765 0.92542 0.77963 0.0
H1556 H 0.82087 0.94203 0.69589 0.0
H1557 H 0.80425 0.95224 0.7259 0.0
H1558 H 0.72456 0.97057 0.73004 0.0
C1559 C 0.69796 0.93634 0.79058 0.0
C1560 C 0.75835 0.9359 0.76909 0.0
C1561 C 0.68649 0.92931 0.80684 0.0
C1562 C 0.80114 0.94229 0.6976 0.0
C1563 C 0.79163 0.94802 0.71486 0.0
C1564 C 0.73422 0.96083 0.74079 0.0
C1565 C 0.72293 0.94256 0.79042 0.0
C1566 C 0.73555 0.94688 0.7726 0.0
C1567 C 0.76624 0.9472 0.71804 0.0
C1568 C 0.7565 0.94888 0.73709 0.0
H1569 H 0.73503 0.93511 0.83607 0.0
H1570 H 0.75519 0.94744 0.80747 0.0
H1571 H 0.70644 0.96884 0.7607 0.0
H1572 H 0.74747 0.93187 0.67486 0.0
H1573 H 0.73082 0.94148 0.70511 0.0
C1574 C 0.54715 0.6792 0.31025 0.0
C1575 C 0.5535 0.69488 0.32484 0.0
C1576 C 0.54078 0.68873 0.29313 0.0
C1577 C 0.52564 0.74594 0.26769 0.0
H1578 H 0.56194 0.71441 0.22845 0.0
C1579 C 0.55483 0.79591 0.20202 0.0
C1580 C 0.5563 0.78306 0.18529 0.0
C1581 C 0.54833 0.78389 0.21819 0.0
C1582 C 0.5512 0.72316 0.2391 0.0
H1583 H 0.55634 0.73293 0.33324 0.0
H1584 H 0.54559 0.74962 0.3032 0.0
H1585 H 0.56118 0.6959 0.25877 0.0
H1586 H 0.55094 0.74762 0.17236 0.0
H1587 H 0.53953 0.72651 0.20079 0.0
H1588 H 0.51643 0.77369 0.24805 0.0
C1589 C 0.54535 0.72991 0.30506 0.0
C1590 C 0.55077 0.71254 0.25655 0.0
C1591 C 0.55159 0.72035 0.32229 0.0
C1592 C 0.5501 0.75803 0.18502 0.0
C1593 C 0.54367 0.74593 0.20131 0.0
C1594 C 0.52605 0.75657 0.2502 0.0
C1595 C 0.54074 0.71417 0.29012 0.0
C1596 C 0.53845 0.72408 0.27116 0.0
C1597 C 0.54313 0.75867 0.21812 0.0
C1598 C 0.53937 0.7456 0.23583 0.0
H1599 H 0.54804 0.65946 0.31183 0.0
H1600 H 0.53675 0.67611 0.28204 0.0
H1601 H 0.51567 0.75509 0.27858 0.0
H1602 H 0.55929 0.81525 0.20278 0.0
H1603 H 0.54845 0.79422 0.23089 0.0
C1604 C 0.79857 0.56239 0.80648 0.0
C1605 C 0.78572 0.56258 0.82324 0.0
C1606 C 0.78677 0.55635 0.79014 0.0
C1607 C 0.72631 0.55731 0.76874 0.0
H1608 H 0.75982 0.52242 0.72967 0.0
C1609 C 0.68322 0.55024 0.69731 0.0
C1610 C 0.69878 0.55666 0.68266 0.0
C1611 C 0.69281 0.54484 0.7146 0.0
C1612 C 0.75025 0.53223 0.74043 0.0
H1613 H 0.7504 0.55583 0.83595 0.0
H1614 H 0.72961 0.5453 0.80716 0.0
H1615 H 0.77802 0.52409 0.7603 0.0
H1616 H 0.73675 0.56069 0.6744 0.0
H1617 H 0.75354 0.5516 0.70472 0.0
H1618 H 0.69897 0.56619 0.74882 0.0
C1619 C 0.7489 0.54999 0.8068 0.0
C1620 C 0.76063 0.53316 0.75798 0.0
C1621 C 0.76081 0.55595 0.82328 0.0
C1622 C 0.72427 0.55585 0.68538 0.0
C1623 C 0.73389 0.55057 0.70277 0.0
C1624 C 0.71593 0.55638 0.75121 0.0
C1625 C 0.76175 0.55034 0.79002 0.0
C1626 C 0.74906 0.54622 0.77222 0.0
C1627 C 0.71819 0.54583 0.71772 0.0
C1628 C 0.72802 0.54427 0.73675 0.0
H1629 H 0.81782 0.56725 0.80586 0.0
H1630 H 0.79714 0.5572 0.77747 0.0
H1631 H 0.71708 0.56781 0.77931 0.0
H1632 H 0.66348 0.5503 0.69562 0.0
H1633 H 0.68025 0.54067 0.72569 0.0
C1634 C 0.94703 0.79393 0.31796 0.0
C1635 C 0.93347 0.77956 0.33034 0.0
C1636 C 0.95286 0.78498 0.30053 0.0
C1637 C 0.94955 0.72883 0.27073 0.0
H1638 H 0.94363 0.77727 0.23201 0.0
C1639 C 0.94816 0.69809 0.19553 0.0
C1640 C 0.93153 0.71007 0.18391 0.0
C1641 C 0.95421 0.7081 0.21258 0.0
C1642 C 0.94514 0.76342 0.2426 0.0
H1643 H 0.91635 0.74419 0.33456 0.0
H1644 H 0.9255 0.72885 0.30399 0.0
H1645 H 0.94312 0.79034 0.26378 0.0
H1646 H 0.90868 0.7421 0.1805 0.0
H1647 H 0.91815 0.75919 0.21064 0.0
H1648 H 0.94943 0.70174 0.24965 0.0
C1649 C 0.93238 0.74678 0.30776 0.0
C1650 C 0.94534 0.77098 0.26095 0.0
C1651 C 0.92705 0.75556 0.32536 0.0
C1652 C 0.92183 0.73276 0.18919 0.0
C1653 C 0.92736 0.74252 0.20649 0.0
C1654 C 0.94885 0.72123 0.25241 0.0
C1655 C 0.94472 0.76167 0.29488 0.0
C1656 C 0.94715 0.75376 0.27532 0.0
C1657 C 0.94311 0.72994 0.21866 0.0
C1658 C 0.94627 0.73838 0.23806 0.0
H1659 H 0.95236 0.81248 0.32154 0.0
H1660 H 0.96306 0.79673 0.2913 0.0
H1661 H 0.95147 0.71501 0.2813 0.0
H1662 H 0.9559 0.68053 0.19164 0.0
H1663 H 0.96701 0.69823 0.2212 0.0
C1664 C 0.39941 0.02816 0.16426 0.0
C1665 C 0.37486 0.02357 0.15957 0.0
C1666 C 0.4158 0.00876 0.16635 0.0
C1667 C 0.42541 0.9456 0.15137 0.0
H1668 H 0.47476 0.94491 0.18974 0.0
C1669 C 0.49462 0.8669 0.15814 0.0
C1670 C 0.51914 0.87417 0.16044 0.0
C1671 C 0.47573 0.88388 0.16014 0.0
C1672 C 0.46111 0.94494 0.17893 0.0
H1673 H 0.34804 -0.00487 0.15377 0.0
H1674 H 0.37668 0.9613 0.15755 0.0
H1675 H 0.44378 0.97725 0.1894 0.0
H1676 H 0.54313 0.90474 0.16703 0.0
H1677 H 0.51013 0.93444 0.17025 0.0
H1678 H 0.44295 0.91366 0.14065 0.0
C1679 C 0.38328 0.97988 0.15941 0.0
C1680 C 0.44344 0.96341 0.17873 0.0
C1681 C 0.36689 -0.00075 0.15732 0.0
C1682 C 0.5244 0.8986 0.16515 0.0
C1683 C 0.5055 0.91556 0.16714 0.0
C1684 C 0.44305 0.92717 0.15156 0.0
C1685 C 0.40792 0.98446 0.16378 0.0
C1686 C 0.42563 0.96406 0.16481 0.0
C1687 C 0.48103 0.90842 0.16446 0.0
C1688 C 0.46125 0.92685 0.1652 0.0
H1689 H 0.40606 0.04673 0.16609 0.0
H1690 H 0.43479 0.01281 0.1695 0.0
H1691 H 0.4121 0.94587 0.14033 0.0
H1692 H 0.48999 0.84817 0.15458 0.0
H1693 H 0.45698 0.87786 0.15819 0.0
C1694 C 0.61681 0.50068 0.63925 0.0
C1695 C 0.60992 0.52474 0.6438 0.0
C1696 C 0.59919 0.48222 0.63799 0.0
C1697 C 0.53287 0.47196 0.63237 0.0
H1698 H 0.54629 0.40984 0.6563 0.0
C1699 C 0.45751 0.40171 0.64903 0.0
C1700 C 0.46292 0.37684 0.64611 0.0
C1701 C 0.47581 0.41942 0.64731 0.0
C1702 C 0.54242 0.42696 0.64933 0.0
H1703 H 0.57918 0.54845 0.65037 0.0
H1704 H 0.54849 0.51614 0.64838 0.0
H1705 H 0.57783 0.44151 0.65566 0.0
H1706 H 0.49158 0.35099 0.63882 0.0
H1707 H 0.52352 0.38199 0.63579 0.0
H1708 H 0.49732 0.45751 0.62627 0.0
C1709 C 0.56746 0.51162 0.64557 0.0
C1710 C 0.56046 0.44507 0.64896 0.0
C1711 C 0.58506 0.53007 0.64684 0.0
C1712 C 0.4869 0.37001 0.6413 0.0
C1713 C 0.5052 0.38772 0.63961 0.0
C1714 C 0.51482 0.45386 0.63274 0.0
C1715 C 0.57437 0.4875 0.64123 0.0
C1716 C 0.55576 0.46783 0.64065 0.0
C1717 C 0.49984 0.41257 0.64265 0.0
C1718 C 0.51935 0.43129 0.6414 0.0
H1719 H 0.63582 0.49605 0.63668 0.0
H1720 H 0.60496 0.46382 0.63441 0.0
H1721 H 0.52891 0.48922 0.62562 0.0
H1722 H 0.43918 0.40753 0.65274 0.0
H1723 H 0.47125 0.43842 0.64997 0.0
C1724 C 0.08996 0.46473 0.16002 0.0
C1725 C 0.11435 0.47001 0.15526 0.0
C1726 C 0.07297 0.48364 0.16196 0.0
C1727 C 0.06124 0.54651 0.14701 0.0
H1728 H 0.01353 0.54636 0.18651 0.0
C1729 C 0.99221 0.62488 0.15632 0.0
C1730 C 0.96782 0.61763 0.15932 0.0
C1731 C 0.01113 0.6078 0.15751 0.0
C1732 C 0.02668 0.54654 0.17537 0.0
H1733 H 0.14019 0.49916 0.14899 0.0
H1734 H 0.11051 0.53214 0.15249 0.0
H1735 H 0.04489 0.51445 0.18536 0.0
H1736 H 0.94411 0.58701 0.16629 0.0
H1737 H 0.97718 0.55714 0.16814 0.0
H1738 H 0.04286 0.57831 0.13682 0.0
C1739 C 0.10451 0.51339 0.15455 0.0
C1740 C 0.04457 0.52831 0.17471 0.0
C1741 C 0.1215 0.49451 0.15262 0.0
C1742 C 0.96274 0.59313 0.1639 0.0
C1743 C 0.98168 0.57606 0.16509 0.0
C1744 C 0.04336 0.56471 0.14766 0.0
C1745 C 0.08008 0.50812 0.15914 0.0
C1746 C 0.06186 0.52803 0.16042 0.0
C1747 C 0.006 0.5832 0.16172 0.0
C1748 C 0.02579 0.56476 0.16175 0.0
H1749 H 0.08393 0.44601 0.16214 0.0
H1750 H 0.05416 0.47906 0.16528 0.0
H1751 H 0.07414 0.54652 0.1357 0.0
H1752 H -0.0033 0.64367 0.15283 0.0
H1753 H 0.02978 0.61383 0.15506 0.0
C1754 C 0.86757 0.98895 0.63797 0.0
C1755 C 0.87445 0.96511 0.64318 0.0
C1756 C 0.88517 0.00737 0.63634 0.0
C1757 C 0.95151 0.01779 0.6311 0.0
H1758 H 0.93727 0.08065 0.65364 0.0
C1759 C 0.02614 0.0887 0.64775 0.0
C1760 C 0.02081 0.11352 0.64448 0.0
C1761 C 0.00792 0.07095 0.6459 0.0
C1762 C 0.94137 0.06333 0.64704 0.0
H1763 H 0.90513 0.94172 0.65045 0.0
H1764 H 0.93583 0.97401 0.64782 0.0
H1765 H 0.90595 0.04876 0.65331 0.0
H1766 H 0.99238 0.13921 0.6364 0.0
H1767 H 0.96055 0.10808 0.63313 0.0
H1768 H 0.98708 0.03227 0.6251 0.0
C1769 C 0.91688 0.97836 0.6448 0.0
C1770 C 0.92346 0.04508 0.64685 0.0
C1771 C 0.89929 0.95993 0.64643 0.0
C1772 C -0.00301 0.12023 0.63916 0.0
C1773 C 0.97876 0.10245 0.63732 0.0
C1774 C 0.96943 0.03604 0.63129 0.0
C1775 C 0.90996 0.00229 0.63988 0.0
C1776 C 0.92846 0.02206 0.63906 0.0
C1777 C 0.98405 0.07766 0.64073 0.0
C1778 C 0.96461 0.05887 0.63946 0.0
H1779 H 0.84858 -0.00655 0.63519 0.0
H1780 H 0.87938 0.02558 0.63229 0.0
H1781 H 0.95571 0.00033 0.62475 0.0
H1782 H 0.04434 0.08296 0.65187 0.0
H1783 H 0.01243 0.05201 0.64886 0.0
C1784 C 0.50267 0.61029 0.36867 0.0
C1785 C 0.5268 0.6044 0.3636 0.0
C1786 C 0.48485 0.59202 0.3697 0.0
C1787 C 0.47642 0.52525 0.37364 0.0
H1788 H 0.41329 0.53873 0.3513 0.0
C1789 C 0.40448 0.45016 0.35894 0.0
C1790 C 0.37991 0.45609 0.36259 0.0
C1791 C 0.42262 0.46815 0.36008 0.0
C1792 C 0.43072 0.5348 0.3578 0.0
H1793 H 0.55135 0.57476 0.35598 0.0
H1794 H 0.52009 0.54291 0.35759 0.0
H1795 H 0.44464 0.57053 0.35172 0.0
H1796 H 0.3551 0.48526 0.37075 0.0
H1797 H 0.38679 0.51653 0.37283 0.0
H1798 H 0.46249 0.48941 0.37959 0.0
C1799 C 0.51504 0.5616 0.36094 0.0
C1800 C 0.44865 0.553 0.35805 0.0
C1801 C 0.53288 0.57986 0.3599 0.0
C1802 C 0.37385 0.48019 0.36766 0.0
C1803 C 0.39197 0.49812 0.3688 0.0
C1804 C 0.45847 0.50702 0.3734 0.0
C1805 C 0.49082 0.56754 0.36569 0.0
C1806 C 0.47168 0.54838 0.36593 0.0
C1807 C 0.41648 0.49233 0.3649 0.0
C1808 C 0.43547 0.51164 0.36544 0.0
H1809 H 0.49749 0.62901 0.37176 0.0
H1810 H 0.46637 0.59704 0.37365 0.0
H1811 H 0.49394 0.52132 0.38 0.0
H1812 H 0.40968 0.43172 0.35502 0.0
H1813 H 0.44137 0.46325 0.35683 0.0
C1814 C 0.02034 0.39487 0.84239 0.0
C1815 C 0.01609 0.37064 0.84809 0.0
C1816 C 0.00073 0.41055 0.83895 0.0
C1817 C 0.93705 0.42005 0.85211 0.0
H1818 H 0.93881 0.46889 0.81338 0.0
C1819 C 0.86305 0.49412 0.84632 0.0
C1820 C 0.87235 0.51808 0.84485 0.0
C1821 C 0.87829 0.47401 0.84335 0.0
C1822 C 0.93809 0.45531 0.82422 0.0
H1823 H 0.98803 0.34356 0.85417 0.0
H1824 H 0.95374 0.37101 0.84806 0.0
H1825 H 0.97005 0.43682 0.81432 0.0
H1826 H 0.90457 0.53986 0.83846 0.0
H1827 H 0.93126 0.50469 0.83355 0.0
H1828 H 0.90561 0.4389 0.86237 0.0
C1829 C 0.97225 0.3779 0.84645 0.0
C1830 C 0.95593 0.43702 0.82478 0.0
C1831 C 0.99187 0.36221 0.84993 0.0
C1832 C 0.89692 0.52159 0.83976 0.0
C1833 C 0.91214 0.50147 0.83677 0.0
C1834 C 0.91921 0.43828 0.85154 0.0
C1835 C 0.97651 0.40228 0.8411 0.0
C1836 C 0.95591 0.4196 0.839 0.0
C1837 C 0.90306 0.47752 0.83885 0.0
C1838 C 0.91993 0.45642 0.83786 0.0
H1839 H 0.03882 0.40188 0.84083 0.0
H1840 H 0.00457 0.42937 0.83513 0.0
H1841 H 0.93675 0.40706 0.86336 0.0
H1842 H 0.84413 0.49083 0.85011 0.0
H1843 H 0.8708 0.45571 0.84486 0.0
C1844 C 0.98846 0.86244 0.37481 0.0
C1845 C 0.96456 0.8696 0.37002 0.0
C1846 C 0.00699 0.87994 0.37655 0.0
C1847 C 0.01766 0.94615 0.38276 0.0
H1848 H 0.07896 0.93335 0.35754 0.0
C1849 C 0.08492 0.02254 0.36307 0.0
C1850 C 0.11009 0.01798 0.36519 0.0
C1851 C 0.06793 0.00377 0.36571 0.0
C1852 C 0.0621 0.93703 0.3649 0.0
H1853 H 0.94114 0.90067 0.36371 0.0
H1854 H 0.97353 0.93112 0.36659 0.0
H1855 H 0.04768 0.90144 0.35891 0.0
H1856 H 0.13725 0.99032 0.372 0.0
H1857 H 0.10747 0.95753 0.37664 0.0
H1858 H 0.0319 0.98191 0.38843 0.0
C1859 C 0.97789 0.91205 0.36917 0.0
C1860 C 0.04422 0.91878 0.36569 0.0
C1861 C 0.9594 0.89459 0.36738 0.0
C1862 C 0.11796 -0.00566 0.37011 0.0
C1863 C 0.10096 0.97556 0.37275 0.0
C1864 C 0.03554 0.96439 0.38197 0.0
C1865 C 0.00189 0.90487 0.37362 0.0
C1866 C 0.02168 0.92333 0.37435 0.0
C1867 C 0.07579 0.98011 0.37055 0.0
C1868 C 0.05774 0.96014 0.37275 0.0
H1869 H 0.99294 0.84333 0.37707 0.0
H1870 H 0.0253 0.87397 0.38018 0.0
H1871 H 0.00058 0.94998 0.38978 0.0
H1872 H 0.07829 0.04058 0.35929 0.0
H1873 H 0.04866 0.0077 0.36366 0.0
C1874 C 0.61055 0.98278 0.85249 0.0
C1875 C 0.60517 0.95786 0.84973 0.0
C1876 C 0.59203 0.00029 0.85153 0.0
C1877 C 0.52579 0.00722 0.85665 0.0
H1878 H 0.53736 0.07024 0.83348 0.0
C1879 C 0.45118 0.08173 0.85062 0.0
C1880 C 0.45863 0.10572 0.85493 0.0
C1881 C 0.46848 0.06307 0.84883 0.0
C1882 C 0.53396 0.05277 0.84009 0.0
H1883 H 0.57628 0.93172 0.84352 0.0
H1884 H 0.54388 0.96248 0.84174 0.0
H1885 H 0.56876 0.03849 0.83188 0.0
H1886 H 0.48995 0.12897 0.86098 0.0
H1887 H 0.52009 0.09632 0.858 0.0
H1888 H 0.4911 0.02163 0.86506 0.0
C1889 C 0.56241 0.96836 0.84481 0.0
C1890 C 0.55188 0.03463 0.83917 0.0
C1891 C 0.58096 0.9508 0.84575 0.0
C1892 C 0.48366 0.11069 0.85754 0.0
C1893 C 0.50093 0.09204 0.85572 0.0
C1894 C 0.50784 0.02537 0.85756 0.0
C1895 C 0.56778 0.99324 0.84779 0.0
C1896 C 0.54809 0.0118 0.84763 0.0
C1897 C 0.49351 0.06809 0.85131 0.0
C1898 C 0.51191 0.04841 0.84949 0.0
H1899 H 0.62901 0.98879 0.85567 0.0
H1900 H 0.59662 0.01931 0.85416 0.0
H1901 H 0.52252 0.98988 0.8635 0.0
H1902 H 0.432 0.07736 0.84851 0.0
H1903 H 0.46231 0.04478 0.84529 0.0
loop_
_geom_bond_atom_site_label_1
_geom_bond_atom_site_label_2
_geom_bond_distance
_geom_bond_site_symmetry_2
_ccdc_geom_bond_type
Co0 O2 2.143 . S
Co0 O8 2.074 . S
Co0 O11 2.093 . S
Co0 O24 2.097 . S
Co0 N41 2.151 . S
Co0 N49 2.214 . S
Co1 O2 2.160 . S
Co1 O7 2.058 . S
Co1 O17 2.057 . S
Co1 O32 2.037 . S
Co1 N36 2.145 . S
Co1 N57 2.257 . S
O2 Co0 2.143 . S
O2 Co1 2.160 . S
C3 O4 1.278 . S
C3 O11 1.224 . S
O4 C3 1.278 . S
C5 O6 1.245 . S
C5 O17 1.232 . S
O6 C5 1.245 . S
O7 Co1 2.058 . S
O7 C33 1.269 . S
O8 Co0 2.074 . S
O8 C33 1.257 . S
H9 C34 0.930 . S
H10 C40 0.930 . S
O11 Co0 2.093 . S
O11 C3 1.224 . S
H12 C44 0.929 . S
H13 C46 0.930 . S
H14 C47 0.930 . S
H15 C45 0.929 . S
H16 C48 0.928 . S
O17 Co1 2.057 . S
O17 C5 1.232 . S
H18 C37 0.929 . S
H19 C38 0.929 . S
H20 C50 0.931 . S
H21 C42 0.929 . S
H22 C51 0.930 . S
H23 C43 0.931 1_565 S
O24 Co0 2.097 . S
O24 C52 1.214 . S
H25 C53 0.929 . S
H26 C54 0.929 . S
H27 C55 0.930 . S
H28 C56 0.929 . S
H29 C58 0.930 . S
H30 C35 0.930 . S
H31 C39 0.930 . S
O32 Co1 2.037 . S
O32 C52 1.234 . S
C33 O7 1.269 . S
C33 O8 1.257 . S
C34 H9 0.930 . S
C34 C37 1.388 . S
C34 C39 1.418 . S
C35 H30 0.930 . S
C35 C38 1.404 . S
C35 C39 1.353 . S
N36 Co1 2.145 . S
N36 C37 1.397 . S
N36 C38 1.334 . S
C37 H18 0.929 . S
C37 C34 1.388 . S
C37 N36 1.397 . S
C38 H19 0.929 . S
C38 C35 1.404 . S
C38 N36 1.334 . S
C39 H31 0.930 . S
C39 C34 1.418 . S
C39 C35 1.353 . S
C40 H10 0.930 . S
C40 N41 1.330 . S
C40 C42 1.446 . S
N41 Co0 2.151 . S
N41 C40 1.330 . S
N41 C45 1.418 . S
C42 H21 0.929 . S
C42 C40 1.446 . S
C42 C43 1.332 . S
C43 H23 0.931 1_545 S
C43 C42 1.332 . S
C43 C44 1.267 . S
C44 H12 0.929 . S
C44 C43 1.267 . S
C44 C45 1.251 . S
C45 H15 0.929 . S
C45 N41 1.418 . S
C45 C44 1.251 . S
C46 H13 0.930 . S
C46 C48 1.406 . S
C46 C51 1.261 . S
C47 H14 0.930 . S
C47 N49 1.325 . S
C47 C50 1.357 . S
C48 H16 0.928 . S
C48 C46 1.406 . S
C48 N49 1.261 . S
N49 Co0 2.214 . S
N49 C47 1.325 . S
N49 C48 1.261 . S
C50 H20 0.931 . S
C50 C47 1.357 . S
C50 C51 1.312 . S
C51 H22 0.930 . S
C51 C46 1.261 . S
C51 C50 1.312 . S
C52 O24 1.214 . S
C52 O32 1.234 . S
C53 H25 0.929 . S
C53 C56 1.391 . S
C53 C58 1.391 . S
C54 H26 0.929 . S
C54 C55 1.390 . S
C54 N57 1.391 . S
C55 H27 0.930 . S
C55 C54 1.390 . S
C55 C56 1.392 . S
C56 H28 0.929 . S
C56 C53 1.391 . S
C56 C55 1.392 . S
N57 Co1 2.257 . S
N57 C54 1.391 . S
N57 C58 1.388 . S
C58 H29 0.930 . S
C58 C53 1.391 . S
C58 N57 1.388 . S
Co59 O61 2.143 . S
Co59 O67 2.074 . S
Co59 O70 2.093 . S
Co59 O83 2.097 . S
Co59 N100 2.151 . S
Co59 N108 2.214 . S
Co60 O61 2.160 . S
Co60 O66 2.058 . S
Co60 O76 2.057 . S
Co60 O91 2.037 . S
Co60 N95 2.145 . S
Co60 N116 2.257 . S
O61 Co59 2.143 . S
O61 Co60 2.160 . S
C62 O63 1.278 . S
C62 O70 1.224 . S
O63 C62 1.278 . S
C64 O65 1.245 . S
C64 O76 1.232 . S
O65 C64 1.245 . S
O66 Co60 2.058 . S
O66 C92 1.269 . S
O67 Co59 2.074 . S
O67 C92 1.257 . S
H68 C93 0.930 . S
H69 C99 0.930 . S
O70 Co59 2.093 . S
O70 C62 1.224 . S
H71 C103 0.929 . S
H72 C105 0.930 . S
H73 C106 0.930 . S
H74 C104 0.929 . S
H75 C107 0.928 . S
O76 Co60 2.057 . S
O76 C64 1.232 . S
H77 C96 0.929 . S
H78 C97 0.929 . S
H79 C109 0.931 . S
H80 C101 0.929 . S
H81 C110 0.930 . S
H82 C102 0.931 . S
O83 Co59 2.097 . S
O83 C111 1.214 . S
H84 C112 0.929 . S
H85 C113 0.929 . S
H86 C114 0.930 . S
H87 C115 0.929 . S
H88 C117 0.930 . S
H89 C94 0.930 . S
H90 C98 0.930 . S
O91 Co60 2.037 . S
O91 C111 1.234 . S
C92 O66 1.269 . S
C92 O67 1.257 . S
C93 H68 0.930 . S
C93 C96 1.388 . S
C93 C98 1.418 . S
C94 H89 0.930 . S
C94 C97 1.404 . S
C94 C98 1.353 . S
N95 Co60 2.145 . S
N95 C96 1.397 . S
N95 C97 1.334 . S
C96 H77 0.929 . S
C96 C93 1.388 . S
C96 N95 1.397 . S
C97 H78 0.929 . S
C97 C94 1.404 . S
C97 N95 1.334 . S
C98 H90 0.930 . S
C98 C93 1.418 . S
C98 C94 1.353 . S
C99 H69 0.930 . S
C99 N100 1.330 . S
C99 C101 1.446 . S
N100 Co59 2.151 . S
N100 C99 1.330 . S
N100 C104 1.418 . S
C101 H80 0.929 . S
C101 C99 1.446 . S
C101 C102 1.332 . S
C102 H82 0.931 . S
C102 C101 1.332 . S
C102 C103 1.267 . S
C103 H71 0.929 . S
C103 C102 1.267 . S
C103 C104 1.251 . S
C104 H74 0.929 . S
C104 N100 1.418 . S
C104 C103 1.251 . S
C105 H72 0.930 . S
C105 C107 1.406 . S
C105 C110 1.261 . S
C106 H73 0.930 . S
C106 N108 1.325 . S
C106 C109 1.357 . S
C107 H75 0.928 . S
C107 C105 1.406 . S
C107 N108 1.261 . S
N108 Co59 2.214 . S
N108 C106 1.325 . S
N108 C107 1.261 . S
C109 H79 0.931 . S
C109 C106 1.357 . S
C109 C110 1.312 . S
C110 H81 0.930 . S
C110 C105 1.261 . S
C110 C109 1.312 . S
C111 O83 1.214 . S
C111 O91 1.234 . S
C112 H84 0.929 . S
C112 C115 1.391 . S
C112 C117 1.391 . S
C113 H85 0.929 . S
C113 C114 1.390 . S
C113 N116 1.391 . S
C114 H86 0.930 . S
C114 C113 1.390 . S
C114 C115 1.392 . S
C115 H87 0.929 . S
C115 C112 1.391 . S
C115 C114 1.392 . S
N116 Co60 2.257 . S
N116 C113 1.391 . S
N116 C117 1.388 . S
C117 H88 0.930 . S
C117 C112 1.391 . S
C117 N116 1.388 . S
Co118 O120 2.143 . S
Co118 O126 2.074 . S
Co118 O129 2.093 . S
Co118 O142 2.097 . S
Co118 N159 2.151 . S
Co118 N167 2.214 . S
Co119 O120 2.160 . S
Co119 O125 2.058 . S
Co119 O135 2.057 . S
Co119 O150 2.037 . S
Co119 N154 2.145 . S
Co119 N175 2.257 . S
O120 Co118 2.143 . S
O120 Co119 2.160 . S
C121 O122 1.278 . S
C121 O129 1.224 . S
O122 C121 1.278 . S
C123 O124 1.245 . S
C123 O135 1.232 . S
O124 C123 1.245 . S
O125 Co119 2.058 . S
O125 C151 1.269 . S
O126 Co118 2.074 . S
O126 C151 1.257 . S
H127 C152 0.930 . S
H128 C158 0.930 . S
O129 Co118 2.093 . S
O129 C121 1.224 . S
H130 C162 0.929 . S
H131 C164 0.930 . S
H132 C165 0.930 . S
H133 C163 0.929 . S
H134 C166 0.928 . S
O135 Co119 2.057 . S
O135 C123 1.232 . S
H136 C155 0.929 . S
H137 C156 0.929 . S
H138 C168 0.931 . S
H139 C160 0.929 . S
H140 C169 0.930 . S
H141 C161 0.931 . S
O142 Co118 2.097 . S
O142 C170 1.214 . S
H143 C171 0.929 . S
H144 C172 0.929 . S
H145 C173 0.930 . S
H146 C174 0.929 . S
H147 C176 0.930 . S
H148 C153 0.930 . S
H149 C157 0.930 . S
O150 Co119 2.037 . S
O150 C170 1.234 . S
C151 O125 1.269 . S
C151 O126 1.257 . S
C152 H127 0.930 . S
C152 C155 1.388 . S
C152 C157 1.418 . S
C153 H148 0.930 . S
C153 C156 1.404 . S
C153 C157 1.353 . S
N154 Co119 2.145 . S
N154 C155 1.397 . S
N154 C156 1.334 . S
C155 H136 0.929 . S
C155 C152 1.388 . S
C155 N154 1.397 . S
C156 H137 0.929 . S
C156 C153 1.404 . S
C156 N154 1.334 . S
C157 H149 0.930 . S
C157 C152 1.418 . S
C157 C153 1.353 . S
C158 H128 0.930 . S
C158 N159 1.330 . S
C158 C160 1.446 . S
N159 Co118 2.151 . S
N159 C158 1.330 . S
N159 C163 1.418 . S
C160 H139 0.929 . S
C160 C158 1.446 . S
C160 C161 1.332 . S
C161 H141 0.931 . S
C161 C160 1.332 . S
C161 C162 1.267 . S
C162 H130 0.929 . S
C162 C161 1.267 . S
C162 C163 1.251 . S
C163 H133 0.929 . S
C163 N159 1.418 . S
C163 C162 1.251 . S
C164 H131 0.930 . S
C164 C166 1.406 . S
C164 C169 1.261 . S
C165 H132 0.930 . S
C165 N167 1.325 . S
C165 C168 1.357 . S
C166 H134 0.928 . S
C166 C164 1.406 . S
C166 N167 1.261 . S
N167 Co118 2.214 . S
N167 C165 1.325 . S
N167 C166 1.261 . S
C168 H138 0.931 . S
C168 C165 1.357 . S
C168 C169 1.312 . S
C169 H140 0.930 . S
C169 C164 1.261 . S
C169 C168 1.312 . S
C170 O142 1.214 . S
C170 O150 1.234 . S
C171 H143 0.929 . S
C171 C174 1.391 . S
C171 C176 1.391 . S
C172 H144 0.929 . S
C172 C173 1.390 . S
C172 N175 1.391 . S
C173 H145 0.930 . S
C173 C172 1.390 . S
C173 C174 1.392 . S
C174 H146 0.929 . S
C174 C171 1.391 . S
C174 C173 1.392 . S
N175 Co119 2.257 . S
N175 C172 1.391 . S
N175 C176 1.388 . S
C176 H147 0.930 . S
C176 C171 1.391 . S
C176 N175 1.388 . S
Co177 O179 2.143 . S
Co177 O185 2.074 . S
Co177 O188 2.093 . S
Co177 O201 2.097 . S
Co177 N218 2.151 . S
Co177 N226 2.214 . S
Co178 O179 2.160 . S
Co178 O184 2.058 . S
Co178 O194 2.057 . S
Co178 O209 2.037 . S
Co178 N213 2.145 . S
Co178 N234 2.257 . S
O179 Co177 2.143 . S
O179 Co178 2.160 . S
C180 O181 1.278 . S
C180 O188 1.224 . S
O181 C180 1.278 . S
C182 O183 1.245 . S
C182 O194 1.232 . S
O183 C182 1.245 . S
O184 Co178 2.058 . S
O184 C210 1.269 . S
O185 Co177 2.074 . S
O185 C210 1.257 . S
H186 C211 0.930 . S
H187 C217 0.930 . S
O188 Co177 2.093 . S
O188 C180 1.224 . S
H189 C221 0.929 . S
H190 C223 0.930 . S
H191 C224 0.930 . S
H192 C222 0.929 . S
H193 C225 0.928 . S
O194 Co178 2.057 . S
O194 C182 1.232 . S
H195 C214 0.929 . S
H196 C215 0.929 . S
H197 C227 0.931 . S
H198 C219 0.929 . S
H199 C228 0.930 . S
H200 C220 0.931 1_655 S
O201 Co177 2.097 . S
O201 C229 1.214 . S
H202 C230 0.929 . S
H203 C231 0.929 . S
H204 C232 0.930 . S
H205 C233 0.929 . S
H206 C235 0.930 . S
H207 C212 0.930 . S
H208 C216 0.930 . S
O209 Co178 2.037 . S
O209 C229 1.234 . S
C210 O184 1.269 . S
C210 O185 1.257 . S
C211 H186 0.930 . S
C211 C214 1.388 . S
C211 C216 1.418 . S
C212 H207 0.930 . S
C212 C215 1.404 . S
C212 C216 1.353 . S
N213 Co178 2.145 . S
N213 C214 1.397 . S
N213 C215 1.334 . S
C214 H195 0.929 . S
C214 C211 1.388 . S
C214 N213 1.397 . S
C215 H196 0.929 . S
C215 C212 1.404 . S
C215 N213 1.334 . S
C216 H208 0.930 . S
C216 C211 1.418 . S
C216 C212 1.353 . S
C217 H187 0.930 . S
C217 N218 1.330 . S
C217 C219 1.446 . S
N218 Co177 2.151 . S
N218 C217 1.330 . S
N218 C222 1.418 . S
C219 H198 0.929 . S
C219 C217 1.446 . S
C219 C220 1.332 . S
C220 H200 0.931 1_455 S
C220 C219 1.332 . S
C220 C221 1.267 . S
C221 H189 0.929 . S
C221 C220 1.267 . S
C221 C222 1.251 . S
C222 H192 0.929 . S
C222 N218 1.418 . S
C222 C221 1.251 . S
C223 H190 0.930 . S
C223 C225 1.406 . S
C223 C228 1.261 . S
C224 H191 0.930 . S
C224 N226 1.325 . S
C224 C227 1.357 . S
C225 H193 0.928 . S
C225 C223 1.406 . S
C225 N226 1.261 . S
N226 Co177 2.214 . S
N226 C224 1.325 . S
N226 C225 1.261 . S
C227 H197 0.931 . S
C227 C224 1.357 . S
C227 C228 1.312 . S
C228 H199 0.930 . S
C228 C223 1.261 . S
C228 C227 1.312 . S
C229 O201 1.214 . S
C229 O209 1.234 . S
C230 H202 0.929 . S
C230 C233 1.391 . S
C230 C235 1.391 . S
C231 H203 0.929 . S
C231 C232 1.390 . S
C231 N234 1.391 . S
C232 H204 0.930 . S
C232 C231 1.390 . S
C232 C233 1.392 . S
C233 H205 0.929 . S
C233 C230 1.391 . S
C233 C232 1.392 . S
N234 Co178 2.257 . S
N234 C231 1.391 . S
N234 C235 1.388 . S
C235 H206 0.930 . S
C235 C230 1.391 . S
C235 N234 1.388 . S
Co236 O238 2.143 . S
Co236 O244 2.074 . S
Co236 O247 2.093 . S
Co236 O260 2.097 . S
Co236 N277 2.151 . S
Co236 N285 2.214 . S
Co237 O238 2.160 . S
Co237 O243 2.058 . S
Co237 O253 2.057 . S
Co237 O268 2.037 . S
Co237 N272 2.145 . S
Co237 N293 2.257 . S
O238 Co236 2.143 . S
O238 Co237 2.160 . S
C239 O240 1.278 . S
C239 O247 1.224 . S
O240 C239 1.278 . S
C241 O242 1.245 . S
C241 O253 1.232 . S
O242 C241 1.245 . S
O243 Co237 2.058 . S
O243 C269 1.269 . S
O244 Co236 2.074 . S
O244 C269 1.257 . S
H245 C270 0.930 . S
H246 C276 0.930 . S
O247 Co236 2.093 . S
O247 C239 1.224 . S
H248 C280 0.929 . S
H249 C282 0.930 . S
H250 C283 0.930 . S
H251 C281 0.929 . S
H252 C284 0.928 . S
O253 Co237 2.057 . S
O253 C241 1.232 . S
H254 C273 0.929 . S
H255 C274 0.929 . S
H256 C286 0.931 . S
H257 C278 0.929 . S
H258 C287 0.930 . S
H259 C279 0.931 . S
O260 Co236 2.097 . S
O260 C288 1.214 . S
H261 C289 0.929 . S
H262 C290 0.929 . S
H263 C291 0.930 . S
H264 C292 0.929 . S
H265 C294 0.930 . S
H266 C271 0.930 . S
H267 C275 0.930 . S
O268 Co237 2.037 . S
O268 C288 1.234 . S
C269 O243 1.269 . S
C269 O244 1.257 . S
C270 H245 0.930 . S
C270 C273 1.388 . S
C270 C275 1.418 . S
C271 H266 0.930 . S
C271 C274 1.404 . S
C271 C275 1.353 . S
N272 Co237 2.145 . S
N272 C273 1.397 . S
N272 C274 1.334 . S
C273 H254 0.929 . S
C273 C270 1.388 . S
C273 N272 1.397 . S
C274 H255 0.929 . S
C274 C271 1.404 . S
C274 N272 1.334 . S
C275 H267 0.930 . S
C275 C270 1.418 . S
C275 C271 1.353 . S
C276 H246 0.930 . S
C276 N277 1.330 . S
C276 C278 1.446 . S
N277 Co236 2.151 . S
N277 C276 1.330 . S
N277 C281 1.418 . S
C278 H257 0.929 . S
C278 C276 1.446 . S
C278 C279 1.332 . S
C279 H259 0.931 . S
C279 C278 1.332 . S
C279 C280 1.267 . S
C280 H248 0.929 . S
C280 C279 1.267 . S
C280 C281 1.251 . S
C281 H251 0.929 . S
C281 N277 1.418 . S
C281 C280 1.251 . S
C282 H249 0.930 . S
C282 C284 1.406 . S
C282 C287 1.261 . S
C283 H250 0.930 . S
C283 N285 1.325 . S
C283 C286 1.357 . S
C284 H252 0.928 . S
C284 C282 1.406 . S
C284 N285 1.261 . S
N285 Co236 2.214 . S
N285 C283 1.325 . S
N285 C284 1.261 . S
C286 H256 0.931 . S
C286 C283 1.357 . S
C286 C287 1.312 . S
C287 H258 0.930 . S
C287 C282 1.261 . S
C287 C286 1.312 . S
C288 O260 1.214 . S
C288 O268 1.234 . S
C289 H261 0.929 . S
C289 C292 1.391 . S
C289 C294 1.391 . S
C290 H262 0.929 . S
C290 C291 1.390 . S
C290 N293 1.391 . S
C291 H263 0.930 . S
C291 C290 1.390 . S
C291 C292 1.392 . S
C292 H264 0.929 . S
C292 C289 1.391 . S
C292 C291 1.392 . S
N293 Co237 2.257 . S
N293 C290 1.391 . S
N293 C294 1.388 . S
C294 H265 0.930 . S
C294 C289 1.391 . S
C294 N293 1.388 . S
Co295 O297 2.143 . S
Co295 O303 2.074 . S
Co295 O306 2.093 . S
Co295 O319 2.097 . S
Co295 N336 2.151 . S
Co295 N344 2.214 . S
Co296 O297 2.160 . S
Co296 O302 2.058 . S
Co296 O312 2.057 . S
Co296 O327 2.037 . S
Co296 N331 2.145 . S
Co296 N352 2.257 . S
O297 Co295 2.143 . S
O297 Co296 2.160 . S
C298 O299 1.278 . S
C298 O306 1.224 . S
O299 C298 1.278 . S
C300 O301 1.245 . S
C300 O312 1.232 . S
O301 C300 1.245 . S
O302 Co296 2.058 . S
O302 C328 1.269 . S
O303 Co295 2.074 . S
O303 C328 1.257 . S
H304 C329 0.930 . S
H305 C335 0.930 . S
O306 Co295 2.093 . S
O306 C298 1.224 . S
H307 C339 0.929 . S
H308 C341 0.930 . S
H309 C342 0.930 . S
H310 C340 0.929 . S
H311 C343 0.928 . S
O312 Co296 2.057 . S
O312 C300 1.232 . S
H313 C332 0.929 . S
H314 C333 0.929 . S
H315 C345 0.931 . S
H316 C337 0.929 . S
H317 C346 0.930 . S
H318 C338 0.931 1_655 S
O319 Co295 2.097 . S
O319 C347 1.214 . S
H320 C348 0.929 . S
H321 C349 0.929 . S
H322 C350 0.930 . S
H323 C351 0.929 . S
H324 C353 0.930 . S
H325 C330 0.930 . S
H326 C334 0.930 . S
O327 Co296 2.037 . S
O327 C347 1.234 . S
C328 O302 1.269 . S
C328 O303 1.257 . S
C329 H304 0.930 . S
C329 C332 1.388 . S
C329 C334 1.418 . S
C330 H325 0.930 . S
C330 C333 1.404 . S
C330 C334 1.353 . S
N331 Co296 2.145 . S
N331 C332 1.397 . S
N331 C333 1.334 . S
C332 H313 0.929 . S
C332 C329 1.388 . S
C332 N331 1.397 . S
C333 H314 0.929 . S
C333 C330 1.404 . S
C333 N331 1.334 . S
C334 H326 0.930 . S
C334 C329 1.418 . S
C334 C330 1.353 . S
C335 H305 0.930 . S
C335 N336 1.330 . S
C335 C337 1.446 . S
N336 Co295 2.151 . S
N336 C335 1.330 . S
N336 C340 1.418 . S
C337 H316 0.929 . S
C337 C335 1.446 . S
C337 C338 1.332 . S
C338 H318 0.931 1_455 S
C338 C337 1.332 . S
C338 C339 1.267 . S
C339 H307 0.929 . S
C339 C338 1.267 . S
C339 C340 1.251 . S
C340 H310 0.929 . S
C340 N336 1.418 . S
C340 C339 1.251 . S
C341 H308 0.930 . S
C341 C343 1.406 . S
C341 C346 1.261 . S
C342 H309 0.930 . S
C342 N344 1.325 . S
C342 C345 1.357 . S
C343 H311 0.928 . S
C343 C341 1.406 . S
C343 N344 1.261 . S
N344 Co295 2.214 . S
N344 C342 1.325 . S
N344 C343 1.261 . S
C345 H315 0.931 . S
C345 C342 1.357 . S
C345 C346 1.312 . S
C346 H317 0.930 . S
C346 C341 1.261 . S
C346 C345 1.312 . S
C347 O319 1.214 . S
C347 O327 1.234 . S
C348 H320 0.929 . S
C348 C351 1.391 . S
C348 C353 1.391 . S
C349 H321 0.929 . S
C349 C350 1.390 . S
C349 N352 1.391 . S
C350 H322 0.930 . S
C350 C349 1.390 . S
C350 C351 1.392 . S
C351 H323 0.929 . S
C351 C348 1.391 . S
C351 C350 1.392 . S
N352 Co296 2.257 . S
N352 C349 1.391 . S
N352 C353 1.388 . S
C353 H324 0.930 . S
C353 C348 1.391 . S
C353 N352 1.388 . S
Co354 O356 2.143 . S
Co354 O362 2.074 . S
Co354 O365 2.093 . S
Co354 O378 2.097 . S
Co354 N395 2.151 . S
Co354 N403 2.214 . S
Co355 O356 2.160 . S
Co355 O361 2.058 . S
Co355 O371 2.057 . S
Co355 O386 2.037 . S
Co355 N390 2.145 . S
Co355 N411 2.257 . S
O356 Co354 2.143 . S
O356 Co355 2.160 . S
C357 O358 1.278 . S
C357 O365 1.224 . S
O358 C357 1.278 . S
C359 O360 1.245 . S
C359 O371 1.232 . S
O360 C359 1.245 . S
O361 Co355 2.058 . S
O361 C387 1.269 . S
O362 Co354 2.074 . S
O362 C387 1.257 . S
H363 C388 0.930 . S
H364 C394 0.930 . S
O365 Co354 2.093 . S
O365 C357 1.224 . S
H366 C398 0.929 . S
H367 C400 0.930 . S
H368 C401 0.930 . S
H369 C399 0.929 . S
H370 C402 0.928 . S
O371 Co355 2.057 . S
O371 C359 1.232 . S
H372 C391 0.929 . S
H373 C392 0.929 . S
H374 C404 0.931 . S
H375 C396 0.929 . S
H376 C405 0.930 . S
H377 C397 0.931 1_565 S
O378 Co354 2.097 . S
O378 C406 1.214 . S
H379 C407 0.929 . S
H380 C408 0.929 . S
H381 C409 0.930 . S
H382 C410 0.929 . S
H383 C412 0.930 . S
H384 C389 0.930 . S
H385 C393 0.930 . S
O386 Co355 2.037 . S
O386 C406 1.234 . S
C387 O361 1.269 . S
C387 O362 1.257 . S
C388 H363 0.930 . S
C388 C391 1.388 . S
C388 C393 1.418 . S
C389 H384 0.930 . S
C389 C392 1.404 . S
C389 C393 1.353 . S
N390 Co355 2.145 . S
N390 C391 1.397 . S
N390 C392 1.334 . S
C391 H372 0.929 . S
C391 C388 1.388 . S
C391 N390 1.397 . S
C392 H373 0.929 . S
C392 C389 1.404 . S
C392 N390 1.334 . S
C393 H385 0.930 . S
C393 C388 1.418 . S
C393 C389 1.353 . S
C394 H364 0.930 . S
C394 N395 1.330 . S
C394 C396 1.446 . S
N395 Co354 2.151 . S
N395 C394 1.330 . S
N395 C399 1.418 . S
C396 H375 0.929 . S
C396 C394 1.446 . S
C396 C397 1.332 . S
C397 H377 0.931 1_545 S
C397 C396 1.332 . S
C397 C398 1.267 . S
C398 H366 0.929 . S
C398 C397 1.267 . S
C398 C399 1.251 . S
C399 H369 0.929 . S
C399 N395 1.418 . S
C399 C398 1.251 . S
C400 H367 0.930 . S
C400 C402 1.406 . S
C400 C405 1.261 . S
C401 H368 0.930 . S
C401 N403 1.325 . S
C401 C404 1.357 . S
C402 H370 0.928 . S
C402 C400 1.406 . S
C402 N403 1.261 . S
N403 Co354 2.214 . S
N403 C401 1.325 . S
N403 C402 1.261 . S
C404 H374 0.931 . S
C404 C401 1.357 . S
C404 C405 1.312 . S
C405 H376 0.930 . S
C405 C400 1.261 . S
C405 C404 1.312 . S
C406 O378 1.214 . S
C406 O386 1.234 . S
C407 H379 0.929 . S
C407 C410 1.391 . S
C407 C412 1.391 . S
C408 H380 0.929 . S
C408 C409 1.390 . S
C408 N411 1.391 . S
C409 H381 0.930 . S
C409 C408 1.390 . S
C409 C410 1.392 . S
C410 H382 0.929 . S
C410 C407 1.391 . S
C410 C409 1.392 . S
N411 Co355 2.257 . S
N411 C408 1.391 . S
N411 C412 1.388 . S
C412 H383 0.930 . S
C412 C407 1.391 . S
C412 N411 1.388 . S
Co413 O415 2.143 . S
Co413 O421 2.074 . S
Co413 O424 2.093 . S
Co413 O437 2.097 . S
Co413 N454 2.151 . S
Co413 N462 2.214 . S
Co414 O415 2.160 . S
Co414 O420 2.058 . S
Co414 O430 2.057 . S
Co414 O445 2.037 . S
Co414 N449 2.145 . S
Co414 N470 2.257 . S
O415 Co413 2.143 . S
O415 Co414 2.160 . S
C416 O417 1.278 . S
C416 O424 1.224 . S
O417 C416 1.278 . S
C418 O419 1.245 . S
C418 O430 1.232 . S
O419 C418 1.245 . S
O420 Co414 2.058 . S
O420 C446 1.269 . S
O421 Co413 2.074 . S
O421 C446 1.257 . S
H422 C447 0.930 . S
H423 C453 0.930 . S
O424 Co413 2.093 . S
O424 C416 1.224 . S
H425 C457 0.929 . S
H426 C459 0.930 . S
H427 C460 0.930 . S
H428 C458 0.929 . S
H429 C461 0.928 . S
O430 Co414 2.057 . S
O430 C418 1.232 . S
H431 C450 0.929 . S
H432 C451 0.929 . S
H433 C463 0.931 . S
H434 C455 0.929 . S
H435 C464 0.930 . S
H436 C456 0.931 . S
O437 Co413 2.097 . S
O437 C465 1.214 . S
H438 C466 0.929 . S
H439 C467 0.929 . S
H440 C468 0.930 . S
H441 C469 0.929 . S
H442 C471 0.930 . S
H443 C448 0.930 . S
H444 C452 0.930 . S
O445 Co414 2.037 . S
O445 C465 1.234 . S
C446 O420 1.269 . S
C446 O421 1.257 . S
C447 H422 0.930 . S
C447 C450 1.388 . S
C447 C452 1.418 . S
C448 H443 0.930 . S
C448 C451 1.404 . S
C448 C452 1.353 . S
N449 Co414 2.145 . S
N449 C450 1.397 . S
N449 C451 1.334 . S
C450 H431 0.929 . S
C450 C447 1.388 . S
C450 N449 1.397 . S
C451 H432 0.929 . S
C451 C448 1.404 . S
C451 N449 1.334 . S
C452 H444 0.930 . S
C452 C447 1.418 . S
C452 C448 1.353 . S
C453 H423 0.930 . S
C453 N454 1.330 . S
C453 C455 1.446 . S
N454 Co413 2.151 . S
N454 C453 1.330 . S
N454 C458 1.418 . S
C455 H434 0.929 . S
C455 C453 1.446 . S
C455 C456 1.332 . S
C456 H436 0.931 . S
C456 C455 1.332 . S
C456 C457 1.267 . S
C457 H425 0.929 . S
C457 C456 1.267 . S
C457 C458 1.251 . S
C458 H428 0.929 . S
C458 N454 1.418 . S
C458 C457 1.251 . S
C459 H426 0.930 . S
C459 C461 1.406 . S
C459 C464 1.261 . S
C460 H427 0.930 . S
C460 N462 1.325 . S
C460 C463 1.357 . S
C461 H429 0.928 . S
C461 C459 1.406 . S
C461 N462 1.261 . S
N462 Co413 2.214 . S
N462 C460 1.325 . S
N462 C461 1.261 . S
C463 H433 0.931 . S
C463 C460 1.357 . S
C463 C464 1.312 . S
C464 H435 0.930 . S
C464 C459 1.261 . S
C464 C463 1.312 . S
C465 O437 1.214 . S
C465 O445 1.234 . S
C466 H438 0.929 . S
C466 C469 1.391 . S
C466 C471 1.391 . S
C467 H439 0.929 . S
C467 C468 1.390 . S
C467 N470 1.391 . S
C468 H440 0.930 . S
C468 C467 1.390 . S
C468 C469 1.392 . S
C469 H441 0.929 . S
C469 C466 1.391 . S
C469 C468 1.392 . S
N470 Co414 2.257 . S
N470 C467 1.391 . S
N470 C471 1.388 . S
C471 H442 0.930 . S
C471 C466 1.391 . S
C471 N470 1.388 . S
Co472 O474 2.143 . S
Co472 O480 2.074 . S
Co472 O483 2.093 . S
Co472 O496 2.097 . S
Co472 N513 2.151 . S
Co472 N521 2.214 . S
Co473 O474 2.160 . S
Co473 O479 2.058 . S
Co473 O489 2.057 . S
Co473 O504 2.037 . S
Co473 N508 2.145 . S
Co473 N529 2.257 . S
O474 Co472 2.143 . S
O474 Co473 2.160 . S
C475 O476 1.278 . S
C475 O483 1.224 . S
O476 C475 1.278 . S
C477 O478 1.245 . S
C477 O489 1.232 . S
O478 C477 1.245 . S
O479 Co473 2.058 . S
O479 C505 1.269 . S
O480 Co472 2.074 . S
O480 C505 1.257 . S
H481 C506 0.930 . S
H482 C512 0.930 . S
O483 Co472 2.093 . S
O483 C475 1.224 . S
H484 C516 0.929 . S
H485 C518 0.930 . S
H486 C519 0.930 . S
H487 C517 0.929 . S
H488 C520 0.928 . S
O489 Co473 2.057 . S
O489 C477 1.232 . S
H490 C509 0.929 . S
H491 C510 0.929 . S
H492 C522 0.931 . S
H493 C514 0.929 . S
H494 C523 0.930 . S
H495 C515 0.931 1_545 S
O496 Co472 2.097 . S
O496 C524 1.214 . S
H497 C525 0.929 . S
H498 C526 0.929 . S
H499 C527 0.930 . S
H500 C528 0.929 . S
H501 C530 0.930 . S
H502 C507 0.930 . S
H503 C511 0.930 . S
O504 Co473 2.037 . S
O504 C524 1.234 . S
C505 O479 1.269 . S
C505 O480 1.257 . S
C506 H481 0.930 . S
C506 C509 1.388 . S
C506 C511 1.418 . S
C507 H502 0.930 . S
C507 C510 1.404 . S
C507 C511 1.353 . S
N508 Co473 2.145 . S
N508 C509 1.397 . S
N508 C510 1.334 . S
C509 H490 0.929 . S
C509 C506 1.388 . S
C509 N508 1.397 . S
C510 H491 0.929 . S
C510 C507 1.404 . S
C510 N508 1.334 . S
C511 H503 0.930 . S
C511 C506 1.418 . S
C511 C507 1.353 . S
C512 H482 0.930 . S
C512 N513 1.330 . S
C512 C514 1.446 . S
N513 Co472 2.151 . S
N513 C512 1.330 . S
N513 C517 1.418 . S
C514 H493 0.929 . S
C514 C512 1.446 . S
C514 C515 1.332 . S
C515 H495 0.931 1_565 S
C515 C514 1.332 . S
C515 C516 1.267 . S
C516 H484 0.929 . S
C516 C515 1.267 . S
C516 C517 1.251 . S
C517 H487 0.929 . S
C517 N513 1.418 . S
C517 C516 1.251 . S
C518 H485 0.930 . S
C518 C520 1.406 . S
C518 C523 1.261 . S
C519 H486 0.930 . S
C519 N521 1.325 . S
C519 C522 1.357 . S
C520 H488 0.928 . S
C520 C518 1.406 . S
C520 N521 1.261 . S
N521 Co472 2.214 . S
N521 C519 1.325 . S
N521 C520 1.261 . S
C522 H492 0.931 . S
C522 C519 1.357 . S
C522 C523 1.312 . S
C523 H494 0.930 . S
C523 C518 1.261 . S
C523 C522 1.312 . S
C524 O496 1.214 . S
C524 O504 1.234 . S
C525 H497 0.929 . S
C525 C528 1.391 . S
C525 C530 1.391 . S
C526 H498 0.929 . S
C526 C527 1.390 . S
C526 N529 1.391 . S
C527 H499 0.930 . S
C527 C526 1.390 . S
C527 C528 1.392 . S
C528 H500 0.929 . S
C528 C525 1.391 . S
C528 C527 1.392 . S
N529 Co473 2.257 . S
N529 C526 1.391 . S
N529 C530 1.388 . S
C530 H501 0.930 . S
C530 C525 1.391 . S
C530 N529 1.388 . S
Co531 O533 2.143 . S
Co531 O539 2.074 . S
Co531 O542 2.093 . S
Co531 O555 2.097 . S
Co531 N572 2.151 . S
Co531 N580 2.214 . S
Co532 O533 2.160 . S
Co532 O538 2.058 . S
Co532 O548 2.057 . S
Co532 O563 2.037 . S
Co532 N567 2.145 . S
Co532 N588 2.257 . S
O533 Co531 2.143 . S
O533 Co532 2.160 . S
C534 O535 1.278 . S
C534 O542 1.224 . S
O535 C534 1.278 . S
C536 O537 1.245 . S
C536 O548 1.232 . S
O537 C536 1.245 . S
O538 Co532 2.058 . S
O538 C564 1.269 . S
O539 Co531 2.074 . S
O539 C564 1.257 . S
H540 C565 0.930 . S
H541 C571 0.930 . S
O542 Co531 2.093 . S
O542 C534 1.224 . S
H543 C575 0.929 . S
H544 C577 0.930 . S
H545 C578 0.930 . S
H546 C576 0.929 . S
H547 C579 0.928 . S
O548 Co532 2.057 . S
O548 C536 1.232 . S
H549 C568 0.929 . S
H550 C569 0.929 . S
H551 C581 0.931 . S
H552 C573 0.929 . S
H553 C582 0.930 . S
H554 C574 0.931 . S
O555 Co531 2.097 . S
O555 C583 1.214 . S
H556 C584 0.929 . S
H557 C585 0.929 . S
H558 C586 0.930 . S
H559 C587 0.929 . S
H560 C589 0.930 . S
H561 C566 0.930 . S
H562 C570 0.930 . S
O563 Co532 2.037 . S
O563 C583 1.234 . S
C564 O538 1.269 . S
C564 O539 1.257 . S
C565 H540 0.930 . S
C565 C568 1.388 . S
C565 C570 1.418 . S
C566 H561 0.930 . S
C566 C569 1.404 . S
C566 C570 1.353 . S
N567 Co532 2.145 . S
N567 C568 1.397 . S
N567 C569 1.334 . S
C568 H549 0.929 . S
C568 C565 1.388 . S
C568 N567 1.397 . S
C569 H550 0.929 . S
C569 C566 1.404 . S
C569 N567 1.334 . S
C570 H562 0.930 . S
C570 C565 1.418 . S
C570 C566 1.353 . S
C571 H541 0.930 . S
C571 N572 1.330 . S
C571 C573 1.446 . S
N572 Co531 2.151 . S
N572 C571 1.330 . S
N572 C576 1.418 . S
C573 H552 0.929 . S
C573 C571 1.446 . S
C573 C574 1.332 . S
C574 H554 0.931 . S
C574 C573 1.332 . S
C574 C575 1.267 . S
C575 H543 0.929 . S
C575 C574 1.267 . S
C575 C576 1.251 . S
C576 H546 0.929 . S
C576 N572 1.418 . S
C576 C575 1.251 . S
C577 H544 0.930 . S
C577 C579 1.406 . S
C577 C582 1.261 . S
C578 H545 0.930 . S
C578 N580 1.325 . S
C578 C581 1.357 . S
C579 H547 0.928 . S
C579 C577 1.406 . S
C579 N580 1.261 . S
N580 Co531 2.214 . S
N580 C578 1.325 . S
N580 C579 1.261 . S
C581 H551 0.931 . S
C581 C578 1.357 . S
C581 C582 1.312 . S
C582 H553 0.930 . S
C582 C577 1.261 . S
C582 C581 1.312 . S
C583 O555 1.214 . S
C583 O563 1.234 . S
C584 H556 0.929 . S
C584 C587 1.391 . S
C584 C589 1.391 . S
C585 H557 0.929 . S
C585 C586 1.390 . S
C585 N588 1.391 . S
C586 H558 0.930 . S
C586 C585 1.390 . S
C586 C587 1.392 . S
C587 H559 0.929 . S
C587 C584 1.391 . S
C587 C586 1.392 . S
N588 Co532 2.257 . S
N588 C585 1.391 . S
N588 C589 1.388 . S
C589 H560 0.930 . S
C589 C584 1.391 . S
C589 N588 1.388 . S
Co590 O592 2.143 . S
Co590 O598 2.074 . S
Co590 O601 2.093 . S
Co590 O614 2.097 . S
Co590 N631 2.151 . S
Co590 N639 2.214 . S
Co591 O592 2.160 . S
Co591 O597 2.058 . S
Co591 O607 2.057 . S
Co591 O622 2.037 . S
Co591 N626 2.145 . S
Co591 N647 2.257 . S
O592 Co590 2.143 . S
O592 Co591 2.160 . S
C593 O594 1.278 . S
C593 O601 1.224 . S
O594 C593 1.278 . S
C595 O596 1.245 . S
C595 O607 1.232 . S
O596 C595 1.245 . S
O597 Co591 2.058 . S
O597 C623 1.269 . S
O598 Co590 2.074 . S
O598 C623 1.257 . S
H599 C624 0.930 . S
H600 C630 0.930 . S
O601 Co590 2.093 . S
O601 C593 1.224 . S
H602 C634 0.929 . S
H603 C636 0.930 . S
H604 C637 0.930 . S
H605 C635 0.929 . S
H606 C638 0.928 . S
O607 Co591 2.057 . S
O607 C595 1.232 . S
H608 C627 0.929 . S
H609 C628 0.929 . S
H610 C640 0.931 . S
H611 C632 0.929 . S
H612 C641 0.930 . S
H613 C633 0.931 . S
O614 Co590 2.097 . S
O614 C642 1.214 . S
H615 C643 0.929 . S
H616 C644 0.929 . S
H617 C645 0.930 . S
H618 C646 0.929 . S
H619 C648 0.930 . S
H620 C625 0.930 . S
H621 C629 0.930 . S
O622 Co591 2.037 . S
O622 C642 1.234 . S
C623 O597 1.269 . S
C623 O598 1.257 . S
C624 H599 0.930 . S
C624 C627 1.388 . S
C624 C629 1.418 . S
C625 H620 0.930 . S
C625 C628 1.404 . S
C625 C629 1.353 . S
N626 Co591 2.145 . S
N626 C627 1.397 . S
N626 C628 1.334 . S
C627 H608 0.929 . S
C627 C624 1.388 . S
C627 N626 1.397 . S
C628 H609 0.929 . S
C628 C625 1.404 . S
C628 N626 1.334 . S
C629 H621 0.930 . S
C629 C624 1.418 . S
C629 C625 1.353 . S
C630 H600 0.930 . S
C630 N631 1.330 . S
C630 C632 1.446 . S
N631 Co590 2.151 . S
N631 C630 1.330 . S
N631 C635 1.418 . S
C632 H611 0.929 . S
C632 C630 1.446 . S
C632 C633 1.332 . S
C633 H613 0.931 . S
C633 C632 1.332 . S
C633 C634 1.267 . S
C634 H602 0.929 . S
C634 C633 1.267 . S
C634 C635 1.251 . S
C635 H605 0.929 . S
C635 N631 1.418 . S
C635 C634 1.251 . S
C636 H603 0.930 . S
C636 C638 1.406 . S
C636 C641 1.261 . S
C637 H604 0.930 . S
C637 N639 1.325 . S
C637 C640 1.357 . S
C638 H606 0.928 . S
C638 C636 1.406 . S
C638 N639 1.261 . S
N639 Co590 2.214 . S
N639 C637 1.325 . S
N639 C638 1.261 . S
C640 H610 0.931 . S
C640 C637 1.357 . S
C640 C641 1.312 . S
C641 H612 0.930 . S
C641 C636 1.261 . S
C641 C640 1.312 . S
C642 O614 1.214 . S
C642 O622 1.234 . S
C643 H615 0.929 . S
C643 C646 1.391 . S
C643 C648 1.391 . S
C644 H616 0.929 . S
C644 C645 1.390 . S
C644 N647 1.391 . S
C645 H617 0.930 . S
C645 C644 1.390 . S
C645 C646 1.392 . S
C646 H618 0.929 . S
C646 C643 1.391 . S
C646 C645 1.392 . S
N647 Co591 2.257 . S
N647 C644 1.391 . S
N647 C648 1.388 . S
C648 H619 0.930 . S
C648 C643 1.391 . S
C648 N647 1.388 . S
Co649 O651 2.143 . S
Co649 O657 2.074 . S
Co649 O660 2.093 . S
Co649 O673 2.097 . S
Co649 N690 2.151 . S
Co649 N698 2.214 . S
Co650 O651 2.160 . S
Co650 O656 2.058 . S
Co650 O666 2.057 . S
Co650 O681 2.037 . S
Co650 N685 2.145 . S
Co650 N706 2.257 . S
O651 Co649 2.143 . S
O651 Co650 2.160 . S
C652 O653 1.278 . S
C652 O660 1.224 . S
O653 C652 1.278 . S
C654 O655 1.245 . S
C654 O666 1.232 . S
O655 C654 1.245 . S
O656 Co650 2.058 . S
O656 C682 1.269 . S
O657 Co649 2.074 . S
O657 C682 1.257 . S
H658 C683 0.930 . S
H659 C689 0.930 . S
O660 Co649 2.093 . S
O660 C652 1.224 . S
H661 C693 0.929 . S
H662 C695 0.930 . S
H663 C696 0.930 . S
H664 C694 0.929 . S
H665 C697 0.928 . S
O666 Co650 2.057 . S
O666 C654 1.232 . S
H667 C686 0.929 . S
H668 C687 0.929 . S
H669 C699 0.931 . S
H670 C691 0.929 . S
H671 C700 0.930 . S
H672 C692 0.931 1_455 S
O673 Co649 2.097 . S
O673 C701 1.214 . S
H674 C702 0.929 . S
H675 C703 0.929 . S
H676 C704 0.930 . S
H677 C705 0.929 . S
H678 C707 0.930 . S
H679 C684 0.930 . S
H680 C688 0.930 . S
O681 Co650 2.037 . S
O681 C701 1.234 . S
C682 O656 1.269 . S
C682 O657 1.257 . S
C683 H658 0.930 . S
C683 C686 1.388 . S
C683 C688 1.418 . S
C684 H679 0.930 . S
C684 C687 1.404 . S
C684 C688 1.353 . S
N685 Co650 2.145 . S
N685 C686 1.397 . S
N685 C687 1.334 . S
C686 H667 0.929 . S
C686 C683 1.388 . S
C686 N685 1.397 . S
C687 H668 0.929 . S
C687 C684 1.404 . S
C687 N685 1.334 . S
C688 H680 0.930 . S
C688 C683 1.418 . S
C688 C684 1.353 . S
C689 H659 0.930 . S
C689 N690 1.330 . S
C689 C691 1.446 . S
N690 Co649 2.151 . S
N690 C689 1.330 . S
N690 C694 1.418 . S
C691 H670 0.929 . S
C691 C689 1.446 . S
C691 C692 1.332 . S
C692 H672 0.931 1_655 S
C692 C691 1.332 . S
C692 C693 1.267 . S
C693 H661 0.929 . S
C693 C692 1.267 . S
C693 C694 1.251 . S
C694 H664 0.929 . S
C694 N690 1.418 . S
C694 C693 1.251 . S
C695 H662 0.930 . S
C695 C697 1.406 . S
C695 C700 1.261 . S
C696 H663 0.930 . S
C696 N698 1.325 . S
C696 C699 1.357 . S
C697 H665 0.928 . S
C697 C695 1.406 . S
C697 N698 1.261 . S
N698 Co649 2.214 . S
N698 C696 1.325 . S
N698 C697 1.261 . S
C699 H669 0.931 . S
C699 C696 1.357 . S
C699 C700 1.312 . S
C700 H671 0.930 . S
C700 C695 1.261 . S
C700 C699 1.312 . S
C701 O673 1.214 . S
C701 O681 1.234 . S
C702 H674 0.929 . S
C702 C705 1.391 . S
C702 C707 1.391 . S
C703 H675 0.929 . S
C703 C704 1.390 . S
C703 N706 1.391 . S
C704 H676 0.930 . S
C704 C703 1.390 . S
C704 C705 1.392 . S
C705 H677 0.929 . S
C705 C702 1.391 . S
C705 C704 1.392 . S
N706 Co650 2.257 . S
N706 C703 1.391 . S
N706 C707 1.388 . S
C707 H678 0.930 . S
C707 C702 1.391 . S
C707 N706 1.388 . S
Co708 O710 2.143 . S
Co708 O716 2.074 . S
Co708 O719 2.093 . S
Co708 O732 2.097 . S
Co708 N749 2.151 . S
Co708 N757 2.214 . S
Co709 O710 2.160 . S
Co709 O715 2.058 . S
Co709 O725 2.057 . S
Co709 O740 2.037 . S
Co709 N744 2.145 . S
Co709 N765 2.257 . S
O710 Co708 2.143 . S
O710 Co709 2.160 . S
C711 O712 1.278 . S
C711 O719 1.224 . S
O712 C711 1.278 . S
C713 O714 1.245 . S
C713 O725 1.232 . S
O714 C713 1.245 . S
O715 Co709 2.058 . S
O715 C741 1.269 . S
O716 Co708 2.074 . S
O716 C741 1.257 . S
H717 C742 0.930 . S
H718 C748 0.930 . S
O719 Co708 2.093 . S
O719 C711 1.224 . S
H720 C752 0.929 . S
H721 C754 0.930 . S
H722 C755 0.930 . S
H723 C753 0.929 . S
H724 C756 0.928 . S
O725 Co709 2.057 . S
O725 C713 1.232 . S
H726 C745 0.929 . S
H727 C746 0.929 . S
H728 C758 0.931 . S
H729 C750 0.929 . S
H730 C759 0.930 . S
H731 C751 0.931 . S
O732 Co708 2.097 . S
O732 C760 1.214 . S
H733 C761 0.929 . S
H734 C762 0.929 . S
H735 C763 0.930 . S
H736 C764 0.929 . S
H737 C766 0.930 . S
H738 C743 0.930 . S
H739 C747 0.930 . S
O740 Co709 2.037 . S
O740 C760 1.234 . S
C741 O715 1.269 . S
C741 O716 1.257 . S
C742 H717 0.930 . S
C742 C745 1.388 . S
C742 C747 1.418 . S
C743 H738 0.930 . S
C743 C746 1.404 . S
C743 C747 1.353 . S
N744 Co709 2.145 . S
N744 C745 1.397 . S
N744 C746 1.334 . S
C745 H726 0.929 . S
C745 C742 1.388 . S
C745 N744 1.397 . S
C746 H727 0.929 . S
C746 C743 1.404 . S
C746 N744 1.334 . S
C747 H739 0.930 . S
C747 C742 1.418 . S
C747 C743 1.353 . S
C748 H718 0.930 . S
C748 N749 1.330 . S
C748 C750 1.446 . S
N749 Co708 2.151 . S
N749 C748 1.330 . S
N749 C753 1.418 . S
C750 H729 0.929 . S
C750 C748 1.446 . S
C750 C751 1.332 . S
C751 H731 0.931 . S
C751 C750 1.332 . S
C751 C752 1.267 . S
C752 H720 0.929 . S
C752 C751 1.267 . S
C752 C753 1.251 . S
C753 H723 0.929 . S
C753 N749 1.418 . S
C753 C752 1.251 . S
C754 H721 0.930 . S
C754 C756 1.406 . S
C754 C759 1.261 . S
C755 H722 0.930 . S
C755 N757 1.325 . S
C755 C758 1.357 . S
C756 H724 0.928 . S
C756 C754 1.406 . S
C756 N757 1.261 . S
N757 Co708 2.214 . S
N757 C755 1.325 . S
N757 C756 1.261 . S
C758 H728 0.931 . S
C758 C755 1.357 . S
C758 C759 1.312 . S
C759 H730 0.930 . S
C759 C754 1.261 . S
C759 C758 1.312 . S
C760 O732 1.214 . S
C760 O740 1.234 . S
C761 H733 0.929 . S
C761 C764 1.391 . S
C761 C766 1.391 . S
C762 H734 0.929 . S
C762 C763 1.390 . S
C762 N765 1.391 . S
C763 H735 0.930 . S
C763 C762 1.390 . S
C763 C764 1.392 . S
C764 H736 0.929 . S
C764 C761 1.391 . S
C764 C763 1.392 . S
N765 Co709 2.257 . S
N765 C762 1.391 . S
N765 C766 1.388 . S
C766 H737 0.930 . S
C766 C761 1.391 . S
C766 N765 1.388 . S
Co767 O769 2.143 . S
Co767 O775 2.074 . S
Co767 O778 2.093 . S
Co767 O791 2.097 . S
Co767 N808 2.151 . S
Co767 N816 2.214 . S
Co768 O769 2.160 . S
Co768 O774 2.058 . S
Co768 O784 2.057 . S
Co768 O799 2.037 . S
Co768 N803 2.145 . S
Co768 N824 2.257 . S
O769 Co767 2.143 . S
O769 Co768 2.160 . S
C770 O771 1.278 . S
C770 O778 1.224 . S
O771 C770 1.278 . S
C772 O773 1.245 . S
C772 O784 1.232 . S
O773 C772 1.245 . S
O774 Co768 2.058 . S
O774 C800 1.269 . S
O775 Co767 2.074 . S
O775 C800 1.257 . S
H776 C801 0.930 . S
H777 C807 0.930 . S
O778 Co767 2.093 . S
O778 C770 1.224 . S
H779 C811 0.929 . S
H780 C813 0.930 . S
H781 C814 0.930 . S
H782 C812 0.929 . S
H783 C815 0.928 . S
O784 Co768 2.057 . S
O784 C772 1.232 . S
H785 C804 0.929 . S
H786 C805 0.929 . S
H787 C817 0.931 . S
H788 C809 0.929 . S
H789 C818 0.930 . S
H790 C810 0.931 1_455 S
O791 Co767 2.097 . S
O791 C819 1.214 . S
H792 C820 0.929 . S
H793 C821 0.929 . S
H794 C822 0.930 . S
H795 C823 0.929 . S
H796 C825 0.930 . S
H797 C802 0.930 . S
H798 C806 0.930 . S
O799 Co768 2.037 . S
O799 C819 1.234 . S
C800 O774 1.269 . S
C800 O775 1.257 . S
C801 H776 0.930 . S
C801 C804 1.388 . S
C801 C806 1.418 . S
C802 H797 0.930 . S
C802 C805 1.404 . S
C802 C806 1.353 . S
N803 Co768 2.145 . S
N803 C804 1.397 . S
N803 C805 1.334 . S
C804 H785 0.929 . S
C804 C801 1.388 . S
C804 N803 1.397 . S
C805 H786 0.929 . S
C805 C802 1.404 . S
C805 N803 1.334 . S
C806 H798 0.930 . S
C806 C801 1.418 . S
C806 C802 1.353 . S
C807 H777 0.930 . S
C807 N808 1.330 . S
C807 C809 1.446 . S
N808 Co767 2.151 . S
N808 C807 1.330 . S
N808 C812 1.418 . S
C809 H788 0.929 . S
C809 C807 1.446 . S
C809 C810 1.332 . S
C810 H790 0.931 1_655 S
C810 C809 1.332 . S
C810 C811 1.267 . S
C811 H779 0.929 . S
C811 C810 1.267 . S
C811 C812 1.251 . S
C812 H782 0.929 . S
C812 N808 1.418 . S
C812 C811 1.251 . S
C813 H780 0.930 . S
C813 C815 1.406 . S
C813 C818 1.261 . S
C814 H781 0.930 . S
C814 N816 1.325 . S
C814 C817 1.357 . S
C815 H783 0.928 . S
C815 C813 1.406 . S
C815 N816 1.261 . S
N816 Co767 2.214 . S
N816 C814 1.325 . S
N816 C815 1.261 . S
C817 H787 0.931 . S
C817 C814 1.357 . S
C817 C818 1.312 . S
C818 H789 0.930 . S
C818 C813 1.261 . S
C818 C817 1.312 . S
C819 O791 1.214 . S
C819 O799 1.234 . S
C820 H792 0.929 . S
C820 C823 1.391 . S
C820 C825 1.391 . S
C821 H793 0.929 . S
C821 C822 1.390 . S
C821 N824 1.391 . S
C822 H794 0.930 . S
C822 C821 1.390 . S
C822 C823 1.392 . S
C823 H795 0.929 . S
C823 C820 1.391 . S
C823 C822 1.392 . S
N824 Co768 2.257 . S
N824 C821 1.391 . S
N824 C825 1.388 . S
C825 H796 0.930 . S
C825 C820 1.391 . S
C825 N824 1.388 . S
Co826 O828 2.143 . S
Co826 O834 2.074 . S
Co826 O837 2.093 . S
Co826 O850 2.097 . S
Co826 N867 2.151 . S
Co826 N875 2.214 . S
Co827 O828 2.160 . S
Co827 O833 2.058 . S
Co827 O843 2.057 . S
Co827 O858 2.037 . S
Co827 N862 2.145 . S
Co827 N883 2.257 . S
O828 Co826 2.143 . S
O828 Co827 2.160 . S
C829 O830 1.278 . S
C829 O837 1.224 . S
O830 C829 1.278 . S
C831 O832 1.245 . S
C831 O843 1.232 . S
O832 C831 1.245 . S
O833 Co827 2.058 . S
O833 C859 1.269 . S
O834 Co826 2.074 . S
O834 C859 1.257 . S
H835 C860 0.930 . S
H836 C866 0.930 . S
O837 Co826 2.093 . S
O837 C829 1.224 . S
H838 C870 0.929 . S
H839 C872 0.930 . S
H840 C873 0.930 . S
H841 C871 0.929 . S
H842 C874 0.928 . S
O843 Co827 2.057 . S
O843 C831 1.232 . S
H844 C863 0.929 . S
H845 C864 0.929 . S
H846 C876 0.931 . S
H847 C868 0.929 . S
H848 C877 0.930 . S
H849 C869 0.931 1_545 S
O850 Co826 2.097 . S
O850 C878 1.214 . S
H851 C879 0.929 . S
H852 C880 0.929 . S
H853 C881 0.930 . S
H854 C882 0.929 . S
H855 C884 0.930 . S
H856 C861 0.930 . S
H857 C865 0.930 . S
O858 Co827 2.037 . S
O858 C878 1.234 . S
C859 O833 1.269 . S
C859 O834 1.257 . S
C860 H835 0.930 . S
C860 C863 1.388 . S
C860 C865 1.418 . S
C861 H856 0.930 . S
C861 C864 1.404 . S
C861 C865 1.353 . S
N862 Co827 2.145 . S
N862 C863 1.397 . S
N862 C864 1.334 . S
C863 H844 0.929 . S
C863 C860 1.388 . S
C863 N862 1.397 . S
C864 H845 0.929 . S
C864 C861 1.404 . S
C864 N862 1.334 . S
C865 H857 0.930 . S
C865 C860 1.418 . S
C865 C861 1.353 . S
C866 H836 0.930 . S
C866 N867 1.330 . S
C866 C868 1.446 . S
N867 Co826 2.151 . S
N867 C866 1.330 . S
N867 C871 1.418 . S
C868 H847 0.929 . S
C868 C866 1.446 . S
C868 C869 1.332 . S
C869 H849 0.931 1_565 S
C869 C868 1.332 . S
C869 C870 1.267 . S
C870 H838 0.929 . S
C870 C869 1.267 . S
C870 C871 1.251 . S
C871 H841 0.929 . S
C871 N867 1.418 . S
C871 C870 1.251 . S
C872 H839 0.930 . S
C872 C874 1.406 . S
C872 C877 1.261 . S
C873 H840 0.930 . S
C873 N875 1.325 . S
C873 C876 1.357 . S
C874 H842 0.928 . S
C874 C872 1.406 . S
C874 N875 1.261 . S
N875 Co826 2.214 . S
N875 C873 1.325 . S
N875 C874 1.261 . S
C876 H846 0.931 . S
C876 C873 1.357 . S
C876 C877 1.312 . S
C877 H848 0.930 . S
C877 C872 1.261 . S
C877 C876 1.312 . S
C878 O850 1.214 . S
C878 O858 1.234 . S
C879 H851 0.929 . S
C879 C882 1.391 . S
C879 C884 1.391 . S
C880 H852 0.929 . S
C880 C881 1.390 . S
C880 N883 1.391 . S
C881 H853 0.930 . S
C881 C880 1.390 . S
C881 C882 1.392 . S
C882 H854 0.929 . S
C882 C879 1.391 . S
C882 C881 1.392 . S
N883 Co827 2.257 . S
N883 C880 1.391 . S
N883 C884 1.388 . S
C884 H855 0.930 . S
C884 C879 1.391 . S
C884 N883 1.388 . S
Co885 O887 2.143 . S
Co885 O893 2.074 . S
Co885 O896 2.093 . S
Co885 O909 2.097 . S
Co885 N926 2.151 . S
Co885 N934 2.214 . S
Co886 O887 2.160 . S
Co886 O892 2.058 . S
Co886 O902 2.057 . S
Co886 O917 2.037 . S
Co886 N921 2.145 . S
Co886 N942 2.257 . S
O887 Co885 2.143 . S
O887 Co886 2.160 . S
C888 O889 1.278 . S
C888 O896 1.224 . S
O889 C888 1.278 . S
C890 O891 1.245 . S
C890 O902 1.232 . S
O891 C890 1.245 . S
O892 Co886 2.058 . S
O892 C918 1.269 . S
O893 Co885 2.074 . S
O893 C918 1.257 . S
H894 C919 0.930 . S
H895 C925 0.930 . S
O896 Co885 2.093 . S
O896 C888 1.224 . S
H897 C929 0.929 . S
H898 C931 0.930 . S
H899 C932 0.930 . S
H900 C930 0.929 . S
H901 C933 0.928 . S
O902 Co886 2.057 . S
O902 C890 1.232 . S
H903 C922 0.929 . S
H904 C923 0.929 . S
H905 C935 0.931 . S
H906 C927 0.929 . S
H907 C936 0.930 . S
H908 C928 0.931 . S
O909 Co885 2.097 . S
O909 C937 1.214 . S
H910 C938 0.929 . S
H911 C939 0.929 . S
H912 C940 0.930 . S
H913 C941 0.929 . S
H914 C943 0.930 . S
H915 C920 0.930 . S
H916 C924 0.930 . S
O917 Co886 2.037 . S
O917 C937 1.234 . S
C918 O892 1.269 . S
C918 O893 1.257 . S
C919 H894 0.930 . S
C919 C922 1.388 . S
C919 C924 1.418 . S
C920 H915 0.930 . S
C920 C923 1.404 . S
C920 C924 1.353 . S
N921 Co886 2.145 . S
N921 C922 1.397 . S
N921 C923 1.334 . S
C922 H903 0.929 . S
C922 C919 1.388 . S
C922 N921 1.397 . S
C923 H904 0.929 . S
C923 C920 1.404 . S
C923 N921 1.334 . S
C924 H916 0.930 . S
C924 C919 1.418 . S
C924 C920 1.353 . S
C925 H895 0.930 . S
C925 N926 1.330 . S
C925 C927 1.446 . S
N926 Co885 2.151 . S
N926 C925 1.330 . S
N926 C930 1.418 . S
C927 H906 0.929 . S
C927 C925 1.446 . S
C927 C928 1.332 . S
C928 H908 0.931 . S
C928 C927 1.332 . S
C928 C929 1.267 . S
C929 H897 0.929 . S
C929 C928 1.267 . S
C929 C930 1.251 . S
C930 H900 0.929 . S
C930 N926 1.418 . S
C930 C929 1.251 . S
C931 H898 0.930 . S
C931 C933 1.406 . S
C931 C936 1.261 . S
C932 H899 0.930 . S
C932 N934 1.325 . S
C932 C935 1.357 . S
C933 H901 0.928 . S
C933 C931 1.406 . S
C933 N934 1.261 . S
N934 Co885 2.214 . S
N934 C932 1.325 . S
N934 C933 1.261 . S
C935 H905 0.931 . S
C935 C932 1.357 . S
C935 C936 1.312 . S
C936 H907 0.930 . S
C936 C931 1.261 . S
C936 C935 1.312 . S
C937 O909 1.214 . S
C937 O917 1.234 . S
C938 H910 0.929 . S
C938 C941 1.391 . S
C938 C943 1.391 . S
C939 H911 0.929 . S
C939 C940 1.390 . S
C939 N942 1.391 . S
C940 H912 0.930 . S
C940 C939 1.390 . S
C940 C941 1.392 . S
C941 H913 0.929 . S
C941 C938 1.391 . S
C941 C940 1.392 . S
N942 Co886 2.257 . S
N942 C939 1.391 . S
N942 C943 1.388 . S
C943 H914 0.930 . S
C943 C938 1.391 . S
C943 N942 1.388 . S
C944 C945 1.349 . S
C944 C946 1.327 . S
C944 H969 0.950 . S
C945 C944 1.349 . S
C945 C961 1.349 . S
C946 C944 1.327 . S
C946 C965 1.429 . S
C946 H970 0.950 . S
C947 C964 1.574 1_556 S
C947 C966 1.368 . S
C947 H971 0.949 . S
H948 C952 0.949 . S
C949 C950 1.349 . S
C949 C951 1.327 . S
C949 H972 0.950 . S
C950 C949 1.349 . S
C950 C962 1.349 . S
C951 C949 1.327 . S
C951 C967 1.429 . S
C951 H973 0.950 . S
C952 H948 0.949 . S
C952 C960 1.574 1_554 S
C952 C968 1.368 . S
H953 C961 0.950 . S
H954 C959 0.950 . S
H955 C960 0.949 . S
H956 C962 0.950 . S
H957 C963 0.950 . S
H958 C964 0.949 . S
C959 H954 0.950 . S
C959 C961 1.327 . S
C959 C965 1.429 . S
C960 C952 1.574 1_556 S
C960 H955 0.949 . S
C960 C966 1.368 . S
C961 C945 1.349 . S
C961 H953 0.950 . S
C961 C959 1.327 . S
C962 C950 1.349 . S
C962 H956 0.950 . S
C962 C963 1.327 . S
C963 H957 0.950 . S
C963 C962 1.327 . S
C963 C967 1.429 . S
C964 C947 1.574 1_554 S
C964 H958 0.949 . S
C964 C968 1.368 . S
C965 C946 1.429 . S
C965 C959 1.429 . S
C965 C966 1.523 . S
C966 C947 1.368 . S
C966 C960 1.368 . S
C966 C965 1.523 . S
C967 C951 1.429 . S
C967 C963 1.429 . S
C967 C968 1.523 . S
C968 C952 1.368 . S
C968 C964 1.368 . S
C968 C967 1.523 . S
H969 C944 0.950 . S
H970 C946 0.950 . S
H971 C947 0.949 . S
H972 C949 0.950 . S
H973 C951 0.950 . S
C974 C975 1.349 . S
C974 C976 1.327 . S
C974 H999 0.950 . S
C975 C974 1.349 . S
C975 C991 1.349 . S
C976 C974 1.327 . S
C976 C995 1.429 . S
C976 H1000 0.950 . S
C977 C994 1.574 . S
C977 C996 1.368 . S
C977 H1001 0.949 . S
H978 C982 0.949 . S
C979 C980 1.349 . S
C979 C981 1.327 . S
C979 H1002 0.950 . S
C980 C979 1.349 . S
C980 C992 1.349 . S
C981 C979 1.327 . S
C981 C997 1.429 . S
C981 H1003 0.950 . S
C982 H978 0.949 . S
C982 C990 1.574 . S
C982 C998 1.368 . S
H983 C991 0.950 . S
H984 C989 0.950 . S
H985 C990 0.949 . S
H986 C992 0.950 . S
H987 C993 0.950 . S
H988 C994 0.949 . S
C989 H984 0.950 . S
C989 C991 1.327 . S
C989 C995 1.429 . S
C990 C982 1.574 . S
C990 H985 0.949 . S
C990 C996 1.368 . S
C991 C975 1.349 . S
C991 H983 0.950 . S
C991 C989 1.327 . S
C992 C980 1.349 . S
C992 H986 0.950 . S
C992 C993 1.327 . S
C993 H987 0.950 . S
C993 C992 1.327 . S
C993 C997 1.429 . S
C994 C977 1.574 . S
C994 H988 0.949 . S
C994 C998 1.368 . S
C995 C976 1.429 . S
C995 C989 1.429 . S
C995 C996 1.523 . S
C996 C977 1.368 . S
C996 C990 1.368 . S
C996 C995 1.523 . S
C997 C981 1.429 . S
C997 C993 1.429 . S
C997 C998 1.523 . S
C998 C982 1.368 . S
C998 C994 1.368 . S
C998 C997 1.523 . S
H999 C974 0.950 . S
H1000 C976 0.950 . S
H1001 C977 0.949 . S
H1002 C979 0.950 . S
H1003 C981 0.950 . S
C1004 C1005 1.349 . S
C1004 C1006 1.327 . S
C1004 H1029 0.950 . S
C1005 C1004 1.349 . S
C1005 C1021 1.349 . S
C1006 C1004 1.327 . S
C1006 C1025 1.429 . S
C1006 H1030 0.950 . S
C1007 C1024 1.574 1_556 S
C1007 C1026 1.368 . S
C1007 H1031 0.949 . S
H1008 C1012 0.949 . S
C1009 C1010 1.349 . S
C1009 C1011 1.327 . S
C1009 H1032 0.950 . S
C1010 C1009 1.349 . S
C1010 C1022 1.349 . S
C1011 C1009 1.327 . S
C1011 C1027 1.429 . S
C1011 H1033 0.950 . S
C1012 H1008 0.949 . S
C1012 C1020 1.574 1_554 S
C1012 C1028 1.368 . S
H1013 C1021 0.950 . S
H1014 C1019 0.950 . S
H1015 C1020 0.949 . S
H1016 C1022 0.950 . S
H1017 C1023 0.950 . S
H1018 C1024 0.949 . S
C1019 H1014 0.950 . S
C1019 C1021 1.327 . S
C1019 C1025 1.429 . S
C1020 C1012 1.574 1_556 S
C1020 H1015 0.949 . S
C1020 C1026 1.368 . S
C1021 C1005 1.349 . S
C1021 H1013 0.950 . S
C1021 C1019 1.327 . S
C1022 C1010 1.349 . S
C1022 H1016 0.950 . S
C1022 C1023 1.327 . S
C1023 H1017 0.950 . S
C1023 C1022 1.327 . S
C1023 C1027 1.429 . S
C1024 C1007 1.574 1_554 S
C1024 H1018 0.949 . S
C1024 C1028 1.368 . S
C1025 C1006 1.429 . S
C1025 C1019 1.429 . S
C1025 C1026 1.523 . S
C1026 C1007 1.368 . S
C1026 C1020 1.368 . S
C1026 C1025 1.523 . S
C1027 C1011 1.429 . S
C1027 C1023 1.429 . S
C1027 C1028 1.523 . S
C1028 C1012 1.368 . S
C1028 C1024 1.368 . S
C1028 C1027 1.523 . S
H1029 C1004 0.950 . S
H1030 C1006 0.950 . S
H1031 C1007 0.949 . S
H1032 C1009 0.950 . S
H1033 C1011 0.950 . S
C1034 C1035 1.349 . S
C1034 C1036 1.327 . S
C1034 H1059 0.950 . S
C1035 C1034 1.349 . S
C1035 C1051 1.349 . S
C1036 C1034 1.327 . S
C1036 C1055 1.429 . S
C1036 H1060 0.950 . S
C1037 C1054 1.574 . S
C1037 C1056 1.368 . S
C1037 H1061 0.949 . S
H1038 C1042 0.949 . S
C1039 C1040 1.349 . S
C1039 C1041 1.327 . S
C1039 H1062 0.950 . S
C1040 C1039 1.349 . S
C1040 C1052 1.349 . S
C1041 C1039 1.327 . S
C1041 C1057 1.429 . S
C1041 H1063 0.950 . S
C1042 H1038 0.949 . S
C1042 C1050 1.574 . S
C1042 C1058 1.368 . S
H1043 C1051 0.950 . S
H1044 C1049 0.950 . S
H1045 C1050 0.949 . S
H1046 C1052 0.950 . S
H1047 C1053 0.950 . S
H1048 C1054 0.949 . S
C1049 H1044 0.950 . S
C1049 C1051 1.327 . S
C1049 C1055 1.429 . S
C1050 C1042 1.574 . S
C1050 H1045 0.949 . S
C1050 C1056 1.368 . S
C1051 C1035 1.349 . S
C1051 H1043 0.950 . S
C1051 C1049 1.327 . S
C1052 C1040 1.349 . S
C1052 H1046 0.950 . S
C1052 C1053 1.327 . S
C1053 H1047 0.950 . S
C1053 C1052 1.327 . S
C1053 C1057 1.429 . S
C1054 C1037 1.574 . S
C1054 H1048 0.949 . S
C1054 C1058 1.368 . S
C1055 C1036 1.429 . S
C1055 C1049 1.429 . S
C1055 C1056 1.523 . S
C1056 C1037 1.368 . S
C1056 C1050 1.368 . S
C1056 C1055 1.523 . S
C1057 C1041 1.429 . S
C1057 C1053 1.429 . S
C1057 C1058 1.523 . S
C1058 C1042 1.368 . S
C1058 C1054 1.368 . S
C1058 C1057 1.523 . S
H1059 C1034 0.950 . S
H1060 C1036 0.950 . S
H1061 C1037 0.949 . S
H1062 C1039 0.950 . S
H1063 C1041 0.950 . S
C1064 C1065 1.349 . S
C1064 C1066 1.327 . S
C1064 H1089 0.950 . S
C1065 C1064 1.349 . S
C1065 C1081 1.349 . S
C1066 C1064 1.327 . S
C1066 C1085 1.429 . S
C1066 H1090 0.950 . S
C1067 C1084 1.574 1_554 S
C1067 C1086 1.368 . S
C1067 H1091 0.949 . S
H1068 C1072 0.949 . S
C1069 C1070 1.349 . S
C1069 C1071 1.327 . S
C1069 H1092 0.950 . S
C1070 C1069 1.349 . S
C1070 C1082 1.349 . S
C1071 C1069 1.327 . S
C1071 C1087 1.429 . S
C1071 H1093 0.950 . S
C1072 H1068 0.949 . S
C1072 C1080 1.574 1_556 S
C1072 C1088 1.368 . S
H1073 C1081 0.950 . S
H1074 C1079 0.950 . S
H1075 C1080 0.949 . S
H1076 C1082 0.950 . S
H1077 C1083 0.950 . S
H1078 C1084 0.949 . S
C1079 H1074 0.950 . S
C1079 C1081 1.327 . S
C1079 C1085 1.429 . S
C1080 C1072 1.574 1_554 S
C1080 H1075 0.949 . S
C1080 C1086 1.368 . S
C1081 C1065 1.349 . S
C1081 H1073 0.950 . S
C1081 C1079 1.327 . S
C1082 C1070 1.349 . S
C1082 H1076 0.950 . S
C1082 C1083 1.327 . S
C1083 H1077 0.950 . S
C1083 C1082 1.327 . S
C1083 C1087 1.429 . S
C1084 C1067 1.574 1_556 S
C1084 H1078 0.949 . S
C1084 C1088 1.368 . S
C1085 C1066 1.429 . S
C1085 C1079 1.429 . S
C1085 C1086 1.523 . S
C1086 C1067 1.368 . S
C1086 C1080 1.368 . S
C1086 C1085 1.523 . S
C1087 C1071 1.429 . S
C1087 C1083 1.429 . S
C1087 C1088 1.523 . S
C1088 C1072 1.368 . S
C1088 C1084 1.368 . S
C1088 C1087 1.523 . S
H1089 C1064 0.950 . S
H1090 C1066 0.950 . S
H1091 C1067 0.949 . S
H1092 C1069 0.950 . S
H1093 C1071 0.950 . S
C1094 C1095 1.349 . S
C1094 C1096 1.327 . S
C1094 H1119 0.950 . S
C1095 C1094 1.349 . S
C1095 C1111 1.349 . S
C1096 C1094 1.327 . S
C1096 C1115 1.429 . S
C1096 H1120 0.950 . S
C1097 C1114 1.574 . S
C1097 C1116 1.368 . S
C1097 H1121 0.949 . S
H1098 C1102 0.949 . S
C1099 C1100 1.349 . S
C1099 C1101 1.327 . S
C1099 H1122 0.950 . S
C1100 C1099 1.349 . S
C1100 C1112 1.349 . S
C1101 C1099 1.327 . S
C1101 C1117 1.429 . S
C1101 H1123 0.950 . S
C1102 H1098 0.949 . S
C1102 C1110 1.574 . S
C1102 C1118 1.368 . S
H1103 C1111 0.950 . S
H1104 C1109 0.950 . S
H1105 C1110 0.949 . S
H1106 C1112 0.950 . S
H1107 C1113 0.950 . S
H1108 C1114 0.949 . S
C1109 H1104 0.950 . S
C1109 C1111 1.327 . S
C1109 C1115 1.429 . S
C1110 C1102 1.574 . S
C1110 H1105 0.949 . S
C1110 C1116 1.368 . S
C1111 C1095 1.349 . S
C1111 H1103 0.950 . S
C1111 C1109 1.327 . S
C1112 C1100 1.349 . S
C1112 H1106 0.950 . S
C1112 C1113 1.327 . S
C1113 H1107 0.950 . S
C1113 C1112 1.327 . S
C1113 C1117 1.429 . S
C1114 C1097 1.574 . S
C1114 H1108 0.949 . S
C1114 C1118 1.368 . S
C1115 C1096 1.429 . S
C1115 C1109 1.429 . S
C1115 C1116 1.523 . S
C1116 C1097 1.368 . S
C1116 C1110 1.368 . S
C1116 C1115 1.523 . S
C1117 C1101 1.429 . S
C1117 C1113 1.429 . S
C1117 C1118 1.523 . S
C1118 C1102 1.368 . S
C1118 C1114 1.368 . S
C1118 C1117 1.523 . S
H1119 C1094 0.950 . S
H1120 C1096 0.950 . S
H1121 C1097 0.949 . S
H1122 C1099 0.950 . S
H1123 C1101 0.950 . S
C1124 C1125 1.349 . S
C1124 C1126 1.327 . S
C1124 H1149 0.950 . S
C1125 C1124 1.349 . S
C1125 C1141 1.349 . S
C1126 C1124 1.327 . S
C1126 C1145 1.429 . S
C1126 H1150 0.950 . S
C1127 C1144 1.574 1_556 S
C1127 C1146 1.368 . S
C1127 H1151 0.949 . S
H1128 C1132 0.949 . S
C1129 C1130 1.349 . S
C1129 C1131 1.327 . S
C1129 H1152 0.950 . S
C1130 C1129 1.349 . S
C1130 C1142 1.349 . S
C1131 C1129 1.327 . S
C1131 C1147 1.429 . S
C1131 H1153 0.950 . S
C1132 H1128 0.949 . S
C1132 C1140 1.574 1_554 S
C1132 C1148 1.368 . S
H1133 C1141 0.950 . S
H1134 C1139 0.950 . S
H1135 C1140 0.949 . S
H1136 C1142 0.950 . S
H1137 C1143 0.950 . S
H1138 C1144 0.949 . S
C1139 H1134 0.950 . S
C1139 C1141 1.327 . S
C1139 C1145 1.429 . S
C1140 C1132 1.574 1_556 S
C1140 H1135 0.949 . S
C1140 C1146 1.368 . S
C1141 C1125 1.349 . S
C1141 H1133 0.950 . S
C1141 C1139 1.327 . S
C1142 C1130 1.349 . S
C1142 H1136 0.950 . S
C1142 C1143 1.327 . S
C1143 H1137 0.950 . S
C1143 C1142 1.327 . S
C1143 C1147 1.429 . S
C1144 C1127 1.574 1_554 S
C1144 H1138 0.949 . S
C1144 C1148 1.368 . S
C1145 C1126 1.429 . S
C1145 C1139 1.429 . S
C1145 C1146 1.523 . S
C1146 C1127 1.368 . S
C1146 C1140 1.368 . S
C1146 C1145 1.523 . S
C1147 C1131 1.429 . S
C1147 C1143 1.429 . S
C1147 C1148 1.523 . S
C1148 C1132 1.368 . S
C1148 C1144 1.368 . S
C1148 C1147 1.523 . S
H1149 C1124 0.950 . S
H1150 C1126 0.950 . S
H1151 C1127 0.949 . S
H1152 C1129 0.950 . S
H1153 C1131 0.950 . S
C1154 C1155 1.349 . S
C1154 C1156 1.327 . S
C1154 H1179 0.950 . S
C1155 C1154 1.349 . S
C1155 C1171 1.349 . S
C1156 C1154 1.327 . S
C1156 C1175 1.429 . S
C1156 H1180 0.950 . S
C1157 C1174 1.574 . S
C1157 C1176 1.368 . S
C1157 H1181 0.949 . S
H1158 C1162 0.949 . S
C1159 C1160 1.349 . S
C1159 C1161 1.327 . S
C1159 H1182 0.950 . S
C1160 C1159 1.349 . S
C1160 C1172 1.349 . S
C1161 C1159 1.327 . S
C1161 C1177 1.429 . S
C1161 H1183 0.950 . S
C1162 H1158 0.949 . S
C1162 C1170 1.574 . S
C1162 C1178 1.368 . S
H1163 C1171 0.950 . S
H1164 C1169 0.950 . S
H1165 C1170 0.949 . S
H1166 C1172 0.950 . S
H1167 C1173 0.950 . S
H1168 C1174 0.949 . S
C1169 H1164 0.950 . S
C1169 C1171 1.327 . S
C1169 C1175 1.429 . S
C1170 C1162 1.574 . S
C1170 H1165 0.949 . S
C1170 C1176 1.368 . S
C1171 C1155 1.349 . S
C1171 H1163 0.950 . S
C1171 C1169 1.327 . S
C1172 C1160 1.349 . S
C1172 H1166 0.950 . S
C1172 C1173 1.327 . S
C1173 H1167 0.950 . S
C1173 C1172 1.327 . S
C1173 C1177 1.429 . S
C1174 C1157 1.574 . S
C1174 H1168 0.949 . S
C1174 C1178 1.368 . S
C1175 C1156 1.429 . S
C1175 C1169 1.429 . S
C1175 C1176 1.523 . S
C1176 C1157 1.368 . S
C1176 C1170 1.368 . S
C1176 C1175 1.523 . S
C1177 C1161 1.429 . S
C1177 C1173 1.429 . S
C1177 C1178 1.523 . S
C1178 C1162 1.368 . S
C1178 C1174 1.368 . S
C1178 C1177 1.523 . S
H1179 C1154 0.950 . S
H1180 C1156 0.950 . S
H1181 C1157 0.949 . S
H1182 C1159 0.950 . S
H1183 C1161 0.950 . S
C1184 C1185 1.349 . S
C1184 C1186 1.327 . S
C1184 H1209 0.950 . S
C1185 C1184 1.349 . S
C1185 C1201 1.349 . S
C1186 C1184 1.327 . S
C1186 C1205 1.429 . S
C1186 H1210 0.950 . S
C1187 C1204 1.574 . S
C1187 C1206 1.368 . S
C1187 H1211 0.949 . S
H1188 C1192 0.949 . S
C1189 C1190 1.349 . S
C1189 C1191 1.327 . S
C1189 H1212 0.950 . S
C1190 C1189 1.349 . S
C1190 C1202 1.349 . S
C1191 C1189 1.327 . S
C1191 C1207 1.429 . S
C1191 H1213 0.950 . S
C1192 H1188 0.949 . S
C1192 C1200 1.574 . S
C1192 C1208 1.368 . S
H1193 C1201 0.950 . S
H1194 C1199 0.950 . S
H1195 C1200 0.949 . S
H1196 C1202 0.950 . S
H1197 C1203 0.950 . S
H1198 C1204 0.949 . S
C1199 H1194 0.950 . S
C1199 C1201 1.327 . S
C1199 C1205 1.429 . S
C1200 C1192 1.574 . S
C1200 H1195 0.949 . S
C1200 C1206 1.368 . S
C1201 C1185 1.349 . S
C1201 H1193 0.950 . S
C1201 C1199 1.327 . S
C1202 C1190 1.349 . S
C1202 H1196 0.950 . S
C1202 C1203 1.327 . S
C1203 H1197 0.950 . S
C1203 C1202 1.327 . S
C1203 C1207 1.429 . S
C1204 C1187 1.574 . S
C1204 H1198 0.949 . S
C1204 C1208 1.368 . S
C1205 C1186 1.429 . S
C1205 C1199 1.429 . S
C1205 C1206 1.523 . S
C1206 C1187 1.368 . S
C1206 C1200 1.368 . S
C1206 C1205 1.523 . S
C1207 C1191 1.429 . S
C1207 C1203 1.429 . S
C1207 C1208 1.523 . S
C1208 C1192 1.368 . S
C1208 C1204 1.368 . S
C1208 C1207 1.523 . S
H1209 C1184 0.950 . S
H1210 C1186 0.950 . S
H1211 C1187 0.949 . S
H1212 C1189 0.950 . S
H1213 C1191 0.950 . S
C1214 C1215 1.349 . S
C1214 C1216 1.327 . S
C1214 H1239 0.950 . S
C1215 C1214 1.349 . S
C1215 C1231 1.349 . S
C1216 C1214 1.327 . S
C1216 C1235 1.429 . S
C1216 H1240 0.950 . S
C1217 C1234 1.574 . S
C1217 C1236 1.368 . S
C1217 H1241 0.949 . S
H1218 C1222 0.949 . S
C1219 C1220 1.349 . S
C1219 C1221 1.327 . S
C1219 H1242 0.950 . S
C1220 C1219 1.349 . S
C1220 C1232 1.349 . S
C1221 C1219 1.327 . S
C1221 C1237 1.429 . S
C1221 H1243 0.950 . S
C1222 H1218 0.949 . S
C1222 C1230 1.574 . S
C1222 C1238 1.368 . S
H1223 C1231 0.950 . S
H1224 C1229 0.950 . S
H1225 C1230 0.949 . S
H1226 C1232 0.950 . S
H1227 C1233 0.950 . S
H1228 C1234 0.949 . S
C1229 H1224 0.950 . S
C1229 C1231 1.327 . S
C1229 C1235 1.429 . S
C1230 C1222 1.574 . S
C1230 H1225 0.949 . S
C1230 C1236 1.368 . S
C1231 C1215 1.349 . S
C1231 H1223 0.950 . S
C1231 C1229 1.327 . S
C1232 C1220 1.349 . S
C1232 H1226 0.950 . S
C1232 C1233 1.327 . S
C1233 H1227 0.950 . S
C1233 C1232 1.327 . S
C1233 C1237 1.429 . S
C1234 C1217 1.574 . S
C1234 H1228 0.949 . S
C1234 C1238 1.368 . S
C1235 C1216 1.429 . S
C1235 C1229 1.429 . S
C1235 C1236 1.523 . S
C1236 C1217 1.368 . S
C1236 C1230 1.368 . S
C1236 C1235 1.523 . S
C1237 C1221 1.429 . S
C1237 C1233 1.429 . S
C1237 C1238 1.523 . S
C1238 C1222 1.368 . S
C1238 C1234 1.368 . S
C1238 C1237 1.523 . S
H1239 C1214 0.950 . S
H1240 C1216 0.950 . S
H1241 C1217 0.949 . S
H1242 C1219 0.950 . S
H1243 C1221 0.950 . S
C1244 C1245 1.349 . S
C1244 C1246 1.327 . S
C1244 H1269 0.950 . S
C1245 C1244 1.349 . S
C1245 C1261 1.349 . S
C1246 C1244 1.327 . S
C1246 C1265 1.429 . S
C1246 H1270 0.950 . S
C1247 C1264 1.574 . S
C1247 C1266 1.368 . S
C1247 H1271 0.949 . S
H1248 C1252 0.949 . S
C1249 C1250 1.349 . S
C1249 C1251 1.327 . S
C1249 H1272 0.950 . S
C1250 C1249 1.349 . S
C1250 C1262 1.349 . S
C1251 C1249 1.327 . S
C1251 C1267 1.429 . S
C1251 H1273 0.950 . S
C1252 H1248 0.949 . S
C1252 C1260 1.574 . S
C1252 C1268 1.368 . S
H1253 C1261 0.950 . S
H1254 C1259 0.950 . S
H1255 C1260 0.949 . S
H1256 C1262 0.950 . S
H1257 C1263 0.950 . S
H1258 C1264 0.949 . S
C1259 H1254 0.950 . S
C1259 C1261 1.327 . S
C1259 C1265 1.429 . S
C1260 C1252 1.574 . S
C1260 H1255 0.949 . S
C1260 C1266 1.368 . S
C1261 C1245 1.349 . S
C1261 H1253 0.950 . S
C1261 C1259 1.327 . S
C1262 C1250 1.349 . S
C1262 H1256 0.950 . S
C1262 C1263 1.327 . S
C1263 H1257 0.950 . S
C1263 C1262 1.327 . S
C1263 C1267 1.429 . S
C1264 C1247 1.574 . S
C1264 H1258 0.949 . S
C1264 C1268 1.368 . S
C1265 C1246 1.429 . S
C1265 C1259 1.429 . S
C1265 C1266 1.523 . S
C1266 C1247 1.368 . S
C1266 C1260 1.368 . S
C1266 C1265 1.523 . S
C1267 C1251 1.429 . S
C1267 C1263 1.429 . S
C1267 C1268 1.523 . S
C1268 C1252 1.368 . S
C1268 C1264 1.368 . S
C1268 C1267 1.523 . S
H1269 C1244 0.950 . S
H1270 C1246 0.950 . S
H1271 C1247 0.949 . S
H1272 C1249 0.950 . S
H1273 C1251 0.950 . S
C1274 C1275 1.349 . S
C1274 C1276 1.327 . S
C1274 H1299 0.950 . S
C1275 C1274 1.349 . S
C1275 C1291 1.349 . S
C1276 C1274 1.327 . S
C1276 C1295 1.429 . S
C1276 H1300 0.950 . S
C1277 C1294 1.574 . S
C1277 C1296 1.368 . S
C1277 H1301 0.949 . S
H1278 C1282 0.949 . S
C1279 C1280 1.349 . S
C1279 C1281 1.327 . S
C1279 H1302 0.950 . S
C1280 C1279 1.349 . S
C1280 C1292 1.349 . S
C1281 C1279 1.327 . S
C1281 C1297 1.429 . S
C1281 H1303 0.950 . S
C1282 H1278 0.949 . S
C1282 C1290 1.574 . S
C1282 C1298 1.368 . S
H1283 C1291 0.950 . S
H1284 C1289 0.950 . S
H1285 C1290 0.949 . S
H1286 C1292 0.950 . S
H1287 C1293 0.950 . S
H1288 C1294 0.949 . S
C1289 H1284 0.950 . S
C1289 C1291 1.327 . S
C1289 C1295 1.429 . S
C1290 C1282 1.574 . S
C1290 H1285 0.949 . S
C1290 C1296 1.368 . S
C1291 C1275 1.349 . S
C1291 H1283 0.950 . S
C1291 C1289 1.327 . S
C1292 C1280 1.349 . S
C1292 H1286 0.950 . S
C1292 C1293 1.327 . S
C1293 H1287 0.950 . S
C1293 C1292 1.327 . S
C1293 C1297 1.429 . S
C1294 C1277 1.574 . S
C1294 H1288 0.949 . S
C1294 C1298 1.368 . S
C1295 C1276 1.429 . S
C1295 C1289 1.429 . S
C1295 C1296 1.523 . S
C1296 C1277 1.368 . S
C1296 C1290 1.368 . S
C1296 C1295 1.523 . S
C1297 C1281 1.429 . S
C1297 C1293 1.429 . S
C1297 C1298 1.523 . S
C1298 C1282 1.368 . S
C1298 C1294 1.368 . S
C1298 C1297 1.523 . S
H1299 C1274 0.950 . S
H1300 C1276 0.950 . S
H1301 C1277 0.949 . S
H1302 C1279 0.950 . S
H1303 C1281 0.950 . S
C1304 C1305 1.349 . S
C1304 C1306 1.327 . S
C1304 H1329 0.950 . S
C1305 C1304 1.349 . S
C1305 C1321 1.349 . S
C1306 C1304 1.327 . S
C1306 C1325 1.429 . S
C1306 H1330 0.950 . S
C1307 C1324 1.574 . S
C1307 C1326 1.368 . S
C1307 H1331 0.949 . S
H1308 C1312 0.949 . S
C1309 C1310 1.349 . S
C1309 C1311 1.327 . S
C1309 H1332 0.950 . S
C1310 C1309 1.349 . S
C1310 C1322 1.349 . S
C1311 C1309 1.327 . S
C1311 C1327 1.429 . S
C1311 H1333 0.950 . S
C1312 H1308 0.949 . S
C1312 C1320 1.574 . S
C1312 C1328 1.368 . S
H1313 C1321 0.950 . S
H1314 C1319 0.950 . S
H1315 C1320 0.949 . S
H1316 C1322 0.950 . S
H1317 C1323 0.950 . S
H1318 C1324 0.949 . S
C1319 H1314 0.950 . S
C1319 C1321 1.327 . S
C1319 C1325 1.429 . S
C1320 C1312 1.574 . S
C1320 H1315 0.949 . S
C1320 C1326 1.368 . S
C1321 C1305 1.349 . S
C1321 H1313 0.950 . S
C1321 C1319 1.327 . S
C1322 C1310 1.349 . S
C1322 H1316 0.950 . S
C1322 C1323 1.327 . S
C1323 H1317 0.950 . S
C1323 C1322 1.327 . S
C1323 C1327 1.429 . S
C1324 C1307 1.574 . S
C1324 H1318 0.949 . S
C1324 C1328 1.368 . S
C1325 C1306 1.429 . S
C1325 C1319 1.429 . S
C1325 C1326 1.523 . S
C1326 C1307 1.368 . S
C1326 C1320 1.368 . S
C1326 C1325 1.523 . S
C1327 C1311 1.429 . S
C1327 C1323 1.429 . S
C1327 C1328 1.523 . S
C1328 C1312 1.368 . S
C1328 C1324 1.368 . S
C1328 C1327 1.523 . S
H1329 C1304 0.950 . S
H1330 C1306 0.950 . S
H1331 C1307 0.949 . S
H1332 C1309 0.950 . S
H1333 C1311 0.950 . S
C1334 C1335 1.349 . S
C1334 C1336 1.327 . S
C1334 H1359 0.950 . S
C1335 C1334 1.349 . S
C1335 C1351 1.349 . S
C1336 C1334 1.327 . S
C1336 C1355 1.429 . S
C1336 H1360 0.950 . S
C1337 C1354 1.574 . S
C1337 C1356 1.368 . S
C1337 H1361 0.949 . S
H1338 C1342 0.949 . S
C1339 C1340 1.349 . S
C1339 C1341 1.327 . S
C1339 H1362 0.950 . S
C1340 C1339 1.349 . S
C1340 C1352 1.349 . S
C1341 C1339 1.327 . S
C1341 C1357 1.429 . S
C1341 H1363 0.950 . S
C1342 H1338 0.949 . S
C1342 C1350 1.574 . S
C1342 C1358 1.368 . S
H1343 C1351 0.950 . S
H1344 C1349 0.950 . S
H1345 C1350 0.949 . S
H1346 C1352 0.950 . S
H1347 C1353 0.950 . S
H1348 C1354 0.949 . S
C1349 H1344 0.950 . S
C1349 C1351 1.327 . S
C1349 C1355 1.429 . S
C1350 C1342 1.574 . S
C1350 H1345 0.949 . S
C1350 C1356 1.368 . S
C1351 C1335 1.349 . S
C1351 H1343 0.950 . S
C1351 C1349 1.327 . S
C1352 C1340 1.349 . S
C1352 H1346 0.950 . S
C1352 C1353 1.327 . S
C1353 H1347 0.950 . S
C1353 C1352 1.327 . S
C1353 C1357 1.429 . S
C1354 C1337 1.574 . S
C1354 H1348 0.949 . S
C1354 C1358 1.368 . S
C1355 C1336 1.429 . S
C1355 C1349 1.429 . S
C1355 C1356 1.523 . S
C1356 C1337 1.368 . S
C1356 C1350 1.368 . S
C1356 C1355 1.523 . S
C1357 C1341 1.429 . S
C1357 C1353 1.429 . S
C1357 C1358 1.523 . S
C1358 C1342 1.368 . S
C1358 C1354 1.368 . S
C1358 C1357 1.523 . S
H1359 C1334 0.950 . S
H1360 C1336 0.950 . S
H1361 C1337 0.949 . S
H1362 C1339 0.950 . S
H1363 C1341 0.950 . S
C1364 C1365 1.349 . S
C1364 C1366 1.327 . S
C1364 H1389 0.950 . S
C1365 C1364 1.349 . S
C1365 C1381 1.349 . S
C1366 C1364 1.327 . S
C1366 C1385 1.429 . S
C1366 H1390 0.950 . S
C1367 C1384 1.574 . S
C1367 C1386 1.368 . S
C1367 H1391 0.949 . S
H1368 C1372 0.949 . S
C1369 C1370 1.349 . S
C1369 C1371 1.327 . S
C1369 H1392 0.950 . S
C1370 C1369 1.349 . S
C1370 C1382 1.349 . S
C1371 C1369 1.327 . S
C1371 C1387 1.429 . S
C1371 H1393 0.950 . S
C1372 H1368 0.949 . S
C1372 C1380 1.574 . S
C1372 C1388 1.368 . S
H1373 C1381 0.950 . S
H1374 C1379 0.950 . S
H1375 C1380 0.949 . S
H1376 C1382 0.950 . S
H1377 C1383 0.950 . S
H1378 C1384 0.949 . S
C1379 H1374 0.950 . S
C1379 C1381 1.327 . S
C1379 C1385 1.429 . S
C1380 C1372 1.574 . S
C1380 H1375 0.949 . S
C1380 C1386 1.368 . S
C1381 C1365 1.349 . S
C1381 H1373 0.950 . S
C1381 C1379 1.327 . S
C1382 C1370 1.349 . S
C1382 H1376 0.950 . S
C1382 C1383 1.327 . S
C1383 H1377 0.950 . S
C1383 C1382 1.327 . S
C1383 C1387 1.429 . S
C1384 C1367 1.574 . S
C1384 H1378 0.949 . S
C1384 C1388 1.368 . S
C1385 C1366 1.429 . S
C1385 C1379 1.429 . S
C1385 C1386 1.523 . S
C1386 C1367 1.368 . S
C1386 C1380 1.368 . S
C1386 C1385 1.523 . S
C1387 C1371 1.429 . S
C1387 C1383 1.429 . S
C1387 C1388 1.523 . S
C1388 C1372 1.368 . S
C1388 C1384 1.368 . S
C1388 C1387 1.523 . S
H1389 C1364 0.950 . S
H1390 C1366 0.950 . S
H1391 C1367 0.949 . S
H1392 C1369 0.950 . S
H1393 C1371 0.950 . S
C1394 C1395 1.349 . S
C1394 C1396 1.327 . S
C1394 H1419 0.950 . S
C1395 C1394 1.349 . S
C1395 C1411 1.349 . S
C1396 C1394 1.327 . S
C1396 C1415 1.429 . S
C1396 H1420 0.950 . S
C1397 C1414 1.574 . S
C1397 C1416 1.368 . S
C1397 H1421 0.949 . S
H1398 C1402 0.949 . S
C1399 C1400 1.349 . S
C1399 C1401 1.327 . S
C1399 H1422 0.950 . S
C1400 C1399 1.349 . S
C1400 C1412 1.349 . S
C1401 C1399 1.327 . S
C1401 C1417 1.429 . S
C1401 H1423 0.950 . S
C1402 H1398 0.949 . S
C1402 C1410 1.574 . S
C1402 C1418 1.368 . S
H1403 C1411 0.950 . S
H1404 C1409 0.950 . S
H1405 C1410 0.949 . S
H1406 C1412 0.950 . S
H1407 C1413 0.950 . S
H1408 C1414 0.949 . S
C1409 H1404 0.950 . S
C1409 C1411 1.327 . S
C1409 C1415 1.429 . S
C1410 C1402 1.574 . S
C1410 H1405 0.949 . S
C1410 C1416 1.368 . S
C1411 C1395 1.349 . S
C1411 H1403 0.950 . S
C1411 C1409 1.327 . S
C1412 C1400 1.349 . S
C1412 H1406 0.950 . S
C1412 C1413 1.327 . S
C1413 H1407 0.950 . S
C1413 C1412 1.327 . S
C1413 C1417 1.429 . S
C1414 C1397 1.574 . S
C1414 H1408 0.949 . S
C1414 C1418 1.368 . S
C1415 C1396 1.429 . S
C1415 C1409 1.429 . S
C1415 C1416 1.523 . S
C1416 C1397 1.368 . S
C1416 C1410 1.368 . S
C1416 C1415 1.523 . S
C1417 C1401 1.429 . S
C1417 C1413 1.429 . S
C1417 C1418 1.523 . S
C1418 C1402 1.368 . S
C1418 C1414 1.368 . S
C1418 C1417 1.523 . S
H1419 C1394 0.950 . S
H1420 C1396 0.950 . S
H1421 C1397 0.949 . S
H1422 C1399 0.950 . S
H1423 C1401 0.950 . S
C1424 C1425 1.349 . S
C1424 C1426 1.327 . S
C1424 H1449 0.950 . S
C1425 C1424 1.349 . S
C1425 C1441 1.349 . S
C1426 C1424 1.327 . S
C1426 C1445 1.429 . S
C1426 H1450 0.950 . S
C1427 C1444 1.574 . S
C1427 C1446 1.368 . S
C1427 H1451 0.949 . S
H1428 C1432 0.949 . S
C1429 C1430 1.349 . S
C1429 C1431 1.327 . S
C1429 H1452 0.950 . S
C1430 C1429 1.349 . S
C1430 C1442 1.349 . S
C1431 C1429 1.327 . S
C1431 C1447 1.429 . S
C1431 H1453 0.950 . S
C1432 H1428 0.949 . S
C1432 C1440 1.574 . S
C1432 C1448 1.368 . S
H1433 C1441 0.950 . S
H1434 C1439 0.950 . S
H1435 C1440 0.949 . S
H1436 C1442 0.950 . S
H1437 C1443 0.950 . S
H1438 C1444 0.949 . S
C1439 H1434 0.950 . S
C1439 C1441 1.327 . S
C1439 C1445 1.429 . S
C1440 C1432 1.574 . S
C1440 H1435 0.949 . S
C1440 C1446 1.368 . S
C1441 C1425 1.349 . S
C1441 H1433 0.950 . S
C1441 C1439 1.327 . S
C1442 C1430 1.349 . S
C1442 H1436 0.950 . S
C1442 C1443 1.327 . S
C1443 H1437 0.950 . S
C1443 C1442 1.327 . S
C1443 C1447 1.429 . S
C1444 C1427 1.574 . S
C1444 H1438 0.949 . S
C1444 C1448 1.368 . S
C1445 C1426 1.429 . S
C1445 C1439 1.429 . S
C1445 C1446 1.523 . S
C1446 C1427 1.368 . S
C1446 C1440 1.368 . S
C1446 C1445 1.523 . S
C1447 C1431 1.429 . S
C1447 C1443 1.429 . S
C1447 C1448 1.523 . S
C1448 C1432 1.368 . S
C1448 C1444 1.368 . S
C1448 C1447 1.523 . S
H1449 C1424 0.950 . S
H1450 C1426 0.950 . S
H1451 C1427 0.949 . S
H1452 C1429 0.950 . S
H1453 C1431 0.950 . S
C1454 C1455 1.349 . S
C1454 C1456 1.327 . S
C1454 H1479 0.950 . S
C1455 C1454 1.349 . S
C1455 C1471 1.349 . S
C1456 C1454 1.327 . S
C1456 C1475 1.429 . S
C1456 H1480 0.950 . S
C1457 C1474 1.574 . S
C1457 C1476 1.368 . S
C1457 H1481 0.949 . S
H1458 C1462 0.949 . S
C1459 C1460 1.349 . S
C1459 C1461 1.327 . S
C1459 H1482 0.950 . S
C1460 C1459 1.349 . S
C1460 C1472 1.349 . S
C1461 C1459 1.327 . S
C1461 C1477 1.429 . S
C1461 H1483 0.950 . S
C1462 H1458 0.949 . S
C1462 C1470 1.574 . S
C1462 C1478 1.368 . S
H1463 C1471 0.950 . S
H1464 C1469 0.950 . S
H1465 C1470 0.949 . S
H1466 C1472 0.950 . S
H1467 C1473 0.950 . S
H1468 C1474 0.949 . S
C1469 H1464 0.950 . S
C1469 C1471 1.327 . S
C1469 C1475 1.429 . S
C1470 C1462 1.574 . S
C1470 H1465 0.949 . S
C1470 C1476 1.368 . S
C1471 C1455 1.349 . S
C1471 H1463 0.950 . S
C1471 C1469 1.327 . S
C1472 C1460 1.349 . S
C1472 H1466 0.950 . S
C1472 C1473 1.327 . S
C1473 H1467 0.950 . S
C1473 C1472 1.327 . S
C1473 C1477 1.429 . S
C1474 C1457 1.574 . S
C1474 H1468 0.949 . S
C1474 C1478 1.368 . S
C1475 C1456 1.429 . S
C1475 C1469 1.429 . S
C1475 C1476 1.523 . S
C1476 C1457 1.368 . S
C1476 C1470 1.368 . S
C1476 C1475 1.523 . S
C1477 C1461 1.429 . S
C1477 C1473 1.429 . S
C1477 C1478 1.523 . S
C1478 C1462 1.368 . S
C1478 C1474 1.368 . S
C1478 C1477 1.523 . S
H1479 C1454 0.950 . S
H1480 C1456 0.950 . S
H1481 C1457 0.949 . S
H1482 C1459 0.950 . S
H1483 C1461 0.950 . S
C1484 C1485 1.349 . S
C1484 C1486 1.327 . S
C1484 H1509 0.950 . S
C1485 C1484 1.349 . S
C1485 C1501 1.349 . S
C1486 C1484 1.327 . S
C1486 C1505 1.429 . S
C1486 H1510 0.950 . S
C1487 C1504 1.574 . S
C1487 C1506 1.368 . S
C1487 H1511 0.949 . S
H1488 C1492 0.949 . S
C1489 C1490 1.349 . S
C1489 C1491 1.327 . S
C1489 H1512 0.950 . S
C1490 C1489 1.349 . S
C1490 C1502 1.349 . S
C1491 C1489 1.327 . S
C1491 C1507 1.429 . S
C1491 H1513 0.950 . S
C1492 H1488 0.949 . S
C1492 C1500 1.574 . S
C1492 C1508 1.368 . S
H1493 C1501 0.950 . S
H1494 C1499 0.950 . S
H1495 C1500 0.949 . S
H1496 C1502 0.950 . S
H1497 C1503 0.950 . S
H1498 C1504 0.949 . S
C1499 H1494 0.950 . S
C1499 C1501 1.327 . S
C1499 C1505 1.429 . S
C1500 C1492 1.574 . S
C1500 H1495 0.949 . S
C1500 C1506 1.368 . S
C1501 C1485 1.349 . S
C1501 H1493 0.950 . S
C1501 C1499 1.327 . S
C1502 C1490 1.349 . S
C1502 H1496 0.950 . S
C1502 C1503 1.327 . S
C1503 H1497 0.950 . S
C1503 C1502 1.327 . S
C1503 C1507 1.429 . S
C1504 C1487 1.574 . S
C1504 H1498 0.949 . S
C1504 C1508 1.368 . S
C1505 C1486 1.429 . S
C1505 C1499 1.429 . S
C1505 C1506 1.523 . S
C1506 C1487 1.368 . S
C1506 C1500 1.368 . S
C1506 C1505 1.523 . S
C1507 C1491 1.429 . S
C1507 C1503 1.429 . S
C1507 C1508 1.523 . S
C1508 C1492 1.368 . S
C1508 C1504 1.368 . S
C1508 C1507 1.523 . S
H1509 C1484 0.950 . S
H1510 C1486 0.950 . S
H1511 C1487 0.949 . S
H1512 C1489 0.950 . S
H1513 C1491 0.950 . S
C1514 C1515 1.349 . S
C1514 C1516 1.327 . S
C1514 H1539 0.950 . S
C1515 C1514 1.349 . S
C1515 C1531 1.349 . S
C1516 C1514 1.327 . S
C1516 C1535 1.429 . S
C1516 H1540 0.950 . S
C1517 C1534 1.574 . S
C1517 C1536 1.368 . S
C1517 H1541 0.949 . S
H1518 C1522 0.949 . S
C1519 C1520 1.349 . S
C1519 C1521 1.327 . S
C1519 H1542 0.950 . S
C1520 C1519 1.349 . S
C1520 C1532 1.349 . S
C1521 C1519 1.327 . S
C1521 C1537 1.429 . S
C1521 H1543 0.950 . S
C1522 H1518 0.949 . S
C1522 C1530 1.574 . S
C1522 C1538 1.368 . S
H1523 C1531 0.950 . S
H1524 C1529 0.950 . S
H1525 C1530 0.949 . S
H1526 C1532 0.950 . S
H1527 C1533 0.950 . S
H1528 C1534 0.949 . S
C1529 H1524 0.950 . S
C1529 C1531 1.327 . S
C1529 C1535 1.429 . S
C1530 C1522 1.574 . S
C1530 H1525 0.949 . S
C1530 C1536 1.368 . S
C1531 C1515 1.349 . S
C1531 H1523 0.950 . S
C1531 C1529 1.327 . S
C1532 C1520 1.349 . S
C1532 H1526 0.950 . S
C1532 C1533 1.327 . S
C1533 H1527 0.950 . S
C1533 C1532 1.327 . S
C1533 C1537 1.429 . S
C1534 C1517 1.574 . S
C1534 H1528 0.949 . S
C1534 C1538 1.368 . S
C1535 C1516 1.429 . S
C1535 C1529 1.429 . S
C1535 C1536 1.523 . S
C1536 C1517 1.368 . S
C1536 C1530 1.368 . S
C1536 C1535 1.523 . S
C1537 C1521 1.429 . S
C1537 C1533 1.429 . S
C1537 C1538 1.523 . S
C1538 C1522 1.368 . S
C1538 C1534 1.368 . S
C1538 C1537 1.523 . S
H1539 C1514 0.950 . S
H1540 C1516 0.950 . S
H1541 C1517 0.949 . S
H1542 C1519 0.950 . S
H1543 C1521 0.950 . S
C1544 C1545 1.349 . S
C1544 C1546 1.327 . S
C1544 H1569 0.950 . S
C1545 C1544 1.349 . S
C1545 C1561 1.349 . S
C1546 C1544 1.327 . S
C1546 C1565 1.429 . S
C1546 H1570 0.950 . S
C1547 C1564 1.574 . S
C1547 C1566 1.368 . S
C1547 H1571 0.949 . S
H1548 C1552 0.949 . S
C1549 C1550 1.349 . S
C1549 C1551 1.327 . S
C1549 H1572 0.950 . S
C1550 C1549 1.349 . S
C1550 C1562 1.349 . S
C1551 C1549 1.327 . S
C1551 C1567 1.429 . S
C1551 H1573 0.950 . S
C1552 H1548 0.949 . S
C1552 C1560 1.574 . S
C1552 C1568 1.368 . S
H1553 C1561 0.950 . S
H1554 C1559 0.950 . S
H1555 C1560 0.949 . S
H1556 C1562 0.950 . S
H1557 C1563 0.950 . S
H1558 C1564 0.949 . S
C1559 H1554 0.950 . S
C1559 C1561 1.327 . S
C1559 C1565 1.429 . S
C1560 C1552 1.574 . S
C1560 H1555 0.949 . S
C1560 C1566 1.368 . S
C1561 C1545 1.349 . S
C1561 H1553 0.950 . S
C1561 C1559 1.327 . S
C1562 C1550 1.349 . S
C1562 H1556 0.950 . S
C1562 C1563 1.327 . S
C1563 H1557 0.950 . S
C1563 C1562 1.327 . S
C1563 C1567 1.429 . S
C1564 C1547 1.574 . S
C1564 H1558 0.949 . S
C1564 C1568 1.368 . S
C1565 C1546 1.429 . S
C1565 C1559 1.429 . S
C1565 C1566 1.523 . S
C1566 C1547 1.368 . S
C1566 C1560 1.368 . S
C1566 C1565 1.523 . S
C1567 C1551 1.429 . S
C1567 C1563 1.429 . S
C1567 C1568 1.523 . S
C1568 C1552 1.368 . S
C1568 C1564 1.368 . S
C1568 C1567 1.523 . S
H1569 C1544 0.950 . S
H1570 C1546 0.950 . S
H1571 C1547 0.949 . S
H1572 C1549 0.950 . S
H1573 C1551 0.950 . S
C1574 C1575 1.349 . S
C1574 C1576 1.327 . S
C1574 H1599 0.950 . S
C1575 C1574 1.349 . S
C1575 C1591 1.349 . S
C1576 C1574 1.327 . S
C1576 C1595 1.429 . S
C1576 H1600 0.950 . S
C1577 C1594 1.574 . S
C1577 C1596 1.368 . S
C1577 H1601 0.949 . S
H1578 C1582 0.949 . S
C1579 C1580 1.349 . S
C1579 C1581 1.327 . S
C1579 H1602 0.950 . S
C1580 C1579 1.349 . S
C1580 C1592 1.349 . S
C1581 C1579 1.327 . S
C1581 C1597 1.429 . S
C1581 H1603 0.950 . S
C1582 H1578 0.949 . S
C1582 C1590 1.574 . S
C1582 C1598 1.368 . S
H1583 C1591 0.950 . S
H1584 C1589 0.950 . S
H1585 C1590 0.949 . S
H1586 C1592 0.950 . S
H1587 C1593 0.950 . S
H1588 C1594 0.949 . S
C1589 H1584 0.950 . S
C1589 C1591 1.327 . S
C1589 C1595 1.429 . S
C1590 C1582 1.574 . S
C1590 H1585 0.949 . S
C1590 C1596 1.368 . S
C1591 C1575 1.349 . S
C1591 H1583 0.950 . S
C1591 C1589 1.327 . S
C1592 C1580 1.349 . S
C1592 H1586 0.950 . S
C1592 C1593 1.327 . S
C1593 H1587 0.950 . S
C1593 C1592 1.327 . S
C1593 C1597 1.429 . S
C1594 C1577 1.574 . S
C1594 H1588 0.949 . S
C1594 C1598 1.368 . S
C1595 C1576 1.429 . S
C1595 C1589 1.429 . S
C1595 C1596 1.523 . S
C1596 C1577 1.368 . S
C1596 C1590 1.368 . S
C1596 C1595 1.523 . S
C1597 C1581 1.429 . S
C1597 C1593 1.429 . S
C1597 C1598 1.523 . S
C1598 C1582 1.368 . S
C1598 C1594 1.368 . S
C1598 C1597 1.523 . S
H1599 C1574 0.950 . S
H1600 C1576 0.950 . S
H1601 C1577 0.949 . S
H1602 C1579 0.950 . S
H1603 C1581 0.950 . S
C1604 C1605 1.349 . S
C1604 C1606 1.327 . S
C1604 H1629 0.950 . S
C1605 C1604 1.349 . S
C1605 C1621 1.349 . S
C1606 C1604 1.327 . S
C1606 C1625 1.429 . S
C1606 H1630 0.950 . S
C1607 C1624 1.574 . S
C1607 C1626 1.368 . S
C1607 H1631 0.949 . S
H1608 C1612 0.949 . S
C1609 C1610 1.349 . S
C1609 C1611 1.327 . S
C1609 H1632 0.950 . S
C1610 C1609 1.349 . S
C1610 C1622 1.349 . S
C1611 C1609 1.327 . S
C1611 C1627 1.429 . S
C1611 H1633 0.950 . S
C1612 H1608 0.949 . S
C1612 C1620 1.574 . S
C1612 C1628 1.368 . S
H1613 C1621 0.950 . S
H1614 C1619 0.950 . S
H1615 C1620 0.949 . S
H1616 C1622 0.950 . S
H1617 C1623 0.950 . S
H1618 C1624 0.949 . S
C1619 H1614 0.950 . S
C1619 C1621 1.327 . S
C1619 C1625 1.429 . S
C1620 C1612 1.574 . S
C1620 H1615 0.949 . S
C1620 C1626 1.368 . S
C1621 C1605 1.349 . S
C1621 H1613 0.950 . S
C1621 C1619 1.327 . S
C1622 C1610 1.349 . S
C1622 H1616 0.950 . S
C1622 C1623 1.327 . S
C1623 H1617 0.950 . S
C1623 C1622 1.327 . S
C1623 C1627 1.429 . S
C1624 C1607 1.574 . S
C1624 H1618 0.949 . S
C1624 C1628 1.368 . S
C1625 C1606 1.429 . S
C1625 C1619 1.429 . S
C1625 C1626 1.523 . S
C1626 C1607 1.368 . S
C1626 C1620 1.368 . S
C1626 C1625 1.523 . S
C1627 C1611 1.429 . S
C1627 C1623 1.429 . S
C1627 C1628 1.523 . S
C1628 C1612 1.368 . S
C1628 C1624 1.368 . S
C1628 C1627 1.523 . S
H1629 C1604 0.950 . S
H1630 C1606 0.950 . S
H1631 C1607 0.949 . S
H1632 C1609 0.950 . S
H1633 C1611 0.950 . S
C1634 C1635 1.349 . S
C1634 C1636 1.327 . S
C1634 H1659 0.950 . S
C1635 C1634 1.349 . S
C1635 C1651 1.349 . S
C1636 C1634 1.327 . S
C1636 C1655 1.429 . S
C1636 H1660 0.950 . S
C1637 C1654 1.574 . S
C1637 C1656 1.368 . S
C1637 H1661 0.949 . S
H1638 C1642 0.949 . S
C1639 C1640 1.349 . S
C1639 C1641 1.327 . S
C1639 H1662 0.950 . S
C1640 C1639 1.349 . S
C1640 C1652 1.349 . S
C1641 C1639 1.327 . S
C1641 C1657 1.429 . S
C1641 H1663 0.950 . S
C1642 H1638 0.949 . S
C1642 C1650 1.574 . S
C1642 C1658 1.368 . S
H1643 C1651 0.950 . S
H1644 C1649 0.950 . S
H1645 C1650 0.949 . S
H1646 C1652 0.950 . S
H1647 C1653 0.950 . S
H1648 C1654 0.949 . S
C1649 H1644 0.950 . S
C1649 C1651 1.327 . S
C1649 C1655 1.429 . S
C1650 C1642 1.574 . S
C1650 H1645 0.949 . S
C1650 C1656 1.368 . S
C1651 C1635 1.349 . S
C1651 H1643 0.950 . S
C1651 C1649 1.327 . S
C1652 C1640 1.349 . S
C1652 H1646 0.950 . S
C1652 C1653 1.327 . S
C1653 H1647 0.950 . S
C1653 C1652 1.327 . S
C1653 C1657 1.429 . S
C1654 C1637 1.574 . S
C1654 H1648 0.949 . S
C1654 C1658 1.368 . S
C1655 C1636 1.429 . S
C1655 C1649 1.429 . S
C1655 C1656 1.523 . S
C1656 C1637 1.368 . S
C1656 C1650 1.368 . S
C1656 C1655 1.523 . S
C1657 C1641 1.429 . S
C1657 C1653 1.429 . S
C1657 C1658 1.523 . S
C1658 C1642 1.368 . S
C1658 C1654 1.368 . S
C1658 C1657 1.523 . S
H1659 C1634 0.950 . S
H1660 C1636 0.950 . S
H1661 C1637 0.949 . S
H1662 C1639 0.950 . S
H1663 C1641 0.950 . S
C1664 C1665 1.349 . S
C1664 C1666 1.327 . S
C1664 H1689 0.950 . S
C1665 C1664 1.349 . S
C1665 C1681 1.349 . S
C1666 C1664 1.327 . S
C1666 C1685 1.446 . S
C1666 H1690 0.950 . S
C1667 C1684 1.574 . S
C1667 C1686 1.368 . S
C1667 H1691 0.949 . S
H1668 C1672 0.949 . S
C1669 C1670 1.349 . S
C1669 C1671 1.327 . S
C1669 H1692 0.950 . S
C1670 C1669 1.349 . S
C1670 C1682 1.349 . S
C1671 C1669 1.327 . S
C1671 C1687 1.429 . S
C1671 H1693 0.950 . S
C1672 H1668 0.949 . S
C1672 C1680 1.574 . S
C1672 C1688 1.368 . S
H1673 C1681 0.950 . S
H1674 C1679 0.950 1_565 S
H1675 C1680 0.949 . S
H1676 C1682 0.950 . S
H1677 C1683 0.950 . S
H1678 C1684 0.949 . S
C1679 H1674 0.950 1_545 S
C1679 C1681 1.327 . S
C1679 C1685 1.430 . S
C1680 C1672 1.574 . S
C1680 H1675 0.949 . S
C1680 C1686 1.368 . S
C1681 C1665 1.349 . S
C1681 H1673 0.950 . S
C1681 C1679 1.327 . S
C1682 C1670 1.349 . S
C1682 H1676 0.950 . S
C1682 C1683 1.327 . S
C1683 H1677 0.950 . S
C1683 C1682 1.327 . S
C1683 C1687 1.429 . S
C1684 C1667 1.574 . S
C1684 H1678 0.949 . S
C1684 C1688 1.368 . S
C1685 C1666 1.446 . S
C1685 C1679 1.430 . S
C1685 C1686 1.506 1_545 S
C1686 C1667 1.368 . S
C1686 C1680 1.368 . S
C1686 C1685 1.506 1_565 S
C1687 C1671 1.429 . S
C1687 C1683 1.429 . S
C1687 C1688 1.523 . S
C1688 C1672 1.368 . S
C1688 C1684 1.368 . S
C1688 C1687 1.523 . S
H1689 C1664 0.950 . S
H1690 C1666 0.950 . S
H1691 C1667 0.949 . S
H1692 C1669 0.950 . S
H1693 C1671 0.950 . S
C1694 C1695 1.349 . S
C1694 C1696 1.327 . S
C1694 H1719 0.950 . S
C1695 C1694 1.349 . S
C1695 C1711 1.349 . S
C1696 C1694 1.327 . S
C1696 C1715 1.429 . S
C1696 H1720 0.950 . S
C1697 C1714 1.574 . S
C1697 C1716 1.368 . S
C1697 H1721 0.949 . S
H1698 C1702 0.949 . S
C1699 C1700 1.349 . S
C1699 C1701 1.327 . S
C1699 H1722 0.950 . S
C1700 C1699 1.349 . S
C1700 C1712 1.349 . S
C1701 C1699 1.327 . S
C1701 C1717 1.429 . S
C1701 H1723 0.950 . S
C1702 H1698 0.949 . S
C1702 C1710 1.574 . S
C1702 C1718 1.368 . S
H1703 C1711 0.950 . S
H1704 C1709 0.950 . S
H1705 C1710 0.949 . S
H1706 C1712 0.950 . S
H1707 C1713 0.950 . S
H1708 C1714 0.949 . S
C1709 H1704 0.950 . S
C1709 C1711 1.327 . S
C1709 C1715 1.429 . S
C1710 C1702 1.574 . S
C1710 H1705 0.949 . S
C1710 C1716 1.368 . S
C1711 C1695 1.349 . S
C1711 H1703 0.950 . S
C1711 C1709 1.327 . S
C1712 C1700 1.349 . S
C1712 H1706 0.950 . S
C1712 C1713 1.327 . S
C1713 H1707 0.950 . S
C1713 C1712 1.327 . S
C1713 C1717 1.429 . S
C1714 C1697 1.574 . S
C1714 H1708 0.949 . S
C1714 C1718 1.368 . S
C1715 C1696 1.429 . S
C1715 C1709 1.429 . S
C1715 C1716 1.523 . S
C1716 C1697 1.368 . S
C1716 C1710 1.368 . S
C1716 C1715 1.523 . S
C1717 C1701 1.429 . S
C1717 C1713 1.429 . S
C1717 C1718 1.523 . S
C1718 C1702 1.368 . S
C1718 C1714 1.368 . S
C1718 C1717 1.523 . S
H1719 C1694 0.950 . S
H1720 C1696 0.950 . S
H1721 C1697 0.949 . S
H1722 C1699 0.950 . S
H1723 C1701 0.950 . S
C1724 C1725 1.349 . S
C1724 C1726 1.327 . S
C1724 H1749 0.950 . S
C1725 C1724 1.349 . S
C1725 C1741 1.349 . S
C1726 C1724 1.327 . S
C1726 C1745 1.429 . S
C1726 H1750 0.950 . S
C1727 C1744 1.574 . S
C1727 C1746 1.368 . S
C1727 H1751 0.949 . S
H1728 C1732 0.949 . S
C1729 C1730 1.349 . S
C1729 C1731 1.327 . S
C1729 H1752 0.950 . S
C1730 C1729 1.349 . S
C1730 C1742 1.349 . S
C1731 C1729 1.327 . S
C1731 C1747 1.430 . S
C1731 H1753 0.950 1_655 S
C1732 H1728 0.949 . S
C1732 C1740 1.574 . S
C1732 C1748 1.368 . S
H1733 C1741 0.950 . S
H1734 C1739 0.950 . S
H1735 C1740 0.949 . S
H1736 C1742 0.950 . S
H1737 C1743 0.950 . S
H1738 C1744 0.949 . S
C1739 H1734 0.950 . S
C1739 C1741 1.327 . S
C1739 C1745 1.429 . S
C1740 C1732 1.574 . S
C1740 H1735 0.949 . S
C1740 C1746 1.368 . S
C1741 C1725 1.349 . S
C1741 H1733 0.950 . S
C1741 C1739 1.327 . S
C1742 C1730 1.349 . S
C1742 H1736 0.950 . S
C1742 C1743 1.327 . S
C1743 H1737 0.950 . S
C1743 C1742 1.327 . S
C1743 C1747 1.446 . S
C1744 C1727 1.574 . S
C1744 H1738 0.949 . S
C1744 C1748 1.368 . S
C1745 C1726 1.429 . S
C1745 C1739 1.429 . S
C1745 C1746 1.523 . S
C1746 C1727 1.368 . S
C1746 C1740 1.368 . S
C1746 C1745 1.523 . S
C1747 C1731 1.430 . S
C1747 C1743 1.446 . S
C1747 C1748 1.506 1_655 S
C1748 C1732 1.368 . S
C1748 C1744 1.368 . S
C1748 C1747 1.506 1_455 S
H1749 C1724 0.950 . S
H1750 C1726 0.950 . S
H1751 C1727 0.949 . S
H1752 C1729 0.950 . S
H1753 C1731 0.950 1_455 S
C1754 C1755 1.349 . S
C1754 C1756 1.327 . S
C1754 H1779 0.950 . S
C1755 C1754 1.349 . S
C1755 C1771 1.349 . S
C1756 C1754 1.327 . S
C1756 C1775 1.430 . S
C1756 H1780 0.950 1_565 S
C1757 C1774 1.574 . S
C1757 C1776 1.368 . S
C1757 H1781 0.949 . S
H1758 C1762 0.949 . S
C1759 C1760 1.349 . S
C1759 C1761 1.327 . S
C1759 H1782 0.950 . S
C1760 C1759 1.349 . S
C1760 C1772 1.349 . S
C1761 C1759 1.327 . S
C1761 C1777 1.446 . S
C1761 H1783 0.950 . S
C1762 H1758 0.949 . S
C1762 C1770 1.574 . S
C1762 C1778 1.368 . S
H1763 C1771 0.950 . S
H1764 C1769 0.950 . S
H1765 C1770 0.949 . S
H1766 C1772 0.950 . S
H1767 C1773 0.950 1_655 S
H1768 C1774 0.949 . S
C1769 H1764 0.950 . S
C1769 C1771 1.327 . S
C1769 C1775 1.446 . S
C1770 C1762 1.574 . S
C1770 H1765 0.949 . S
C1770 C1776 1.368 . S
C1771 C1755 1.349 . S
C1771 H1763 0.950 . S
C1771 C1769 1.327 . S
C1772 C1760 1.349 . S
C1772 H1766 0.950 . S
C1772 C1773 1.327 . S
C1773 H1767 0.950 1_455 S
C1773 C1772 1.327 . S
C1773 C1777 1.430 . S
C1774 C1757 1.574 . S
C1774 H1768 0.949 . S
C1774 C1778 1.368 . S
C1775 C1756 1.430 . S
C1775 C1769 1.446 . S
C1775 C1776 1.506 1_565 S
C1776 C1757 1.368 . S
C1776 C1770 1.368 . S
C1776 C1775 1.506 1_545 S
C1777 C1761 1.446 . S
C1777 C1773 1.430 . S
C1777 C1778 1.506 1_455 S
C1778 C1762 1.368 . S
C1778 C1774 1.368 . S
C1778 C1777 1.506 1_655 S
H1779 C1754 0.950 . S
H1780 C1756 0.950 1_545 S
H1781 C1757 0.949 . S
H1782 C1759 0.950 . S
H1783 C1761 0.950 . S
C1784 C1785 1.349 . S
C1784 C1786 1.327 . S
C1784 H1809 0.950 . S
C1785 C1784 1.349 . S
C1785 C1801 1.349 . S
C1786 C1784 1.327 . S
C1786 C1805 1.429 . S
C1786 H1810 0.950 . S
C1787 C1804 1.574 . S
C1787 C1806 1.368 . S
C1787 H1811 0.949 . S
H1788 C1792 0.949 . S
C1789 C1790 1.349 . S
C1789 C1791 1.327 . S
C1789 H1812 0.950 . S
C1790 C1789 1.349 . S
C1790 C1802 1.349 . S
C1791 C1789 1.327 . S
C1791 C1807 1.429 . S
C1791 H1813 0.950 . S
C1792 H1788 0.949 . S
C1792 C1800 1.574 . S
C1792 C1808 1.368 . S
H1793 C1801 0.950 . S
H1794 C1799 0.950 . S
H1795 C1800 0.949 . S
H1796 C1802 0.950 . S
H1797 C1803 0.950 . S
H1798 C1804 0.949 . S
C1799 H1794 0.950 . S
C1799 C1801 1.327 . S
C1799 C1805 1.429 . S
C1800 C1792 1.574 . S
C1800 H1795 0.949 . S
C1800 C1806 1.368 . S
C1801 C1785 1.349 . S
C1801 H1793 0.950 . S
C1801 C1799 1.327 . S
C1802 C1790 1.349 . S
C1802 H1796 0.950 . S
C1802 C1803 1.327 . S
C1803 H1797 0.950 . S
C1803 C1802 1.327 . S
C1803 C1807 1.429 . S
C1804 C1787 1.574 . S
C1804 H1798 0.949 . S
C1804 C1808 1.368 . S
C1805 C1786 1.429 . S
C1805 C1799 1.429 . S
C1805 C1806 1.523 . S
C1806 C1787 1.368 . S
C1806 C1800 1.368 . S
C1806 C1805 1.523 . S
C1807 C1791 1.429 . S
C1807 C1803 1.429 . S
C1807 C1808 1.523 . S
C1808 C1792 1.368 . S
C1808 C1804 1.368 . S
C1808 C1807 1.523 . S
H1809 C1784 0.950 . S
H1810 C1786 0.950 . S
H1811 C1787 0.949 . S
H1812 C1789 0.950 . S
H1813 C1791 0.950 . S
C1814 C1815 1.349 . S
C1814 C1816 1.327 . S
C1814 H1839 0.950 . S
C1815 C1814 1.349 . S
C1815 C1831 1.349 . S
C1816 C1814 1.327 . S
C1816 C1835 1.446 . S
C1816 H1840 0.950 . S
C1817 C1834 1.574 . S
C1817 C1836 1.368 . S
C1817 H1841 0.949 . S
H1818 C1822 0.949 . S
C1819 C1820 1.349 . S
C1819 C1821 1.327 . S
C1819 H1842 0.950 . S
C1820 C1819 1.349 . S
C1820 C1832 1.349 . S
C1821 C1819 1.327 . S
C1821 C1837 1.429 . S
C1821 H1843 0.950 . S
C1822 H1818 0.949 . S
C1822 C1830 1.574 . S
C1822 C1838 1.368 . S
H1823 C1831 0.950 . S
H1824 C1829 0.950 1_655 S
H1825 C1830 0.949 . S
H1826 C1832 0.950 . S
H1827 C1833 0.950 . S
H1828 C1834 0.949 . S
C1829 H1824 0.950 1_455 S
C1829 C1831 1.327 . S
C1829 C1835 1.430 . S
C1830 C1822 1.574 . S
C1830 H1825 0.949 . S
C1830 C1836 1.368 . S
C1831 C1815 1.349 . S
C1831 H1823 0.950 . S
C1831 C1829 1.327 . S
C1832 C1820 1.349 . S
C1832 H1826 0.950 . S
C1832 C1833 1.327 . S
C1833 H1827 0.950 . S
C1833 C1832 1.327 . S
C1833 C1837 1.429 . S
C1834 C1817 1.574 . S
C1834 H1828 0.949 . S
C1834 C1838 1.368 . S
C1835 C1816 1.446 . S
C1835 C1829 1.430 . S
C1835 C1836 1.506 1_455 S
C1836 C1817 1.368 . S
C1836 C1830 1.368 . S
C1836 C1835 1.506 1_655 S
C1837 C1821 1.429 . S
C1837 C1833 1.429 . S
C1837 C1838 1.523 . S
C1838 C1822 1.368 . S
C1838 C1834 1.368 . S
C1838 C1837 1.523 . S
H1839 C1814 0.950 . S
H1840 C1816 0.950 . S
H1841 C1817 0.949 . S
H1842 C1819 0.950 . S
H1843 C1821 0.950 . S
C1844 C1845 1.349 . S
C1844 C1846 1.327 . S
C1844 H1869 0.950 . S
C1845 C1844 1.349 . S
C1845 C1861 1.349 . S
C1846 C1844 1.327 . S
C1846 C1865 1.430 . S
C1846 H1870 0.950 1_655 S
C1847 C1864 1.574 . S
C1847 C1866 1.368 . S
C1847 H1871 0.949 . S
H1848 C1852 0.949 . S
C1849 C1850 1.349 . S
C1849 C1851 1.327 . S
C1849 H1872 0.950 . S
C1850 C1849 1.349 . S
C1850 C1862 1.349 . S
C1851 C1849 1.327 . S
C1851 C1867 1.446 . S
C1851 H1873 0.950 . S
C1852 H1848 0.949 . S
C1852 C1860 1.574 . S
C1852 C1868 1.368 . S
H1853 C1861 0.950 . S
H1854 C1859 0.950 . S
H1855 C1860 0.949 . S
H1856 C1862 0.950 . S
H1857 C1863 0.950 1_565 S
H1858 C1864 0.949 . S
C1859 H1854 0.950 . S
C1859 C1861 1.327 . S
C1859 C1865 1.446 . S
C1860 C1852 1.574 . S
C1860 H1855 0.949 . S
C1860 C1866 1.368 . S
C1861 C1845 1.349 . S
C1861 H1853 0.950 . S
C1861 C1859 1.327 . S
C1862 C1850 1.349 . S
C1862 H1856 0.950 . S
C1862 C1863 1.327 . S
C1863 H1857 0.950 1_545 S
C1863 C1862 1.327 . S
C1863 C1867 1.430 . S
C1864 C1847 1.574 . S
C1864 H1858 0.949 . S
C1864 C1868 1.368 . S
C1865 C1846 1.430 . S
C1865 C1859 1.446 . S
C1865 C1866 1.506 1_655 S
C1866 C1847 1.368 . S
C1866 C1860 1.368 . S
C1866 C1865 1.506 1_455 S
C1867 C1851 1.446 . S
C1867 C1863 1.430 . S
C1867 C1868 1.506 1_545 S
C1868 C1852 1.368 . S
C1868 C1864 1.368 . S
C1868 C1867 1.506 1_565 S
H1869 C1844 0.950 . S
H1870 C1846 0.950 1_455 S
H1871 C1847 0.949 . S
H1872 C1849 0.950 . S
H1873 C1851 0.950 . S
C1874 C1875 1.349 . S
C1874 C1876 1.327 . S
C1874 H1899 0.950 . S
C1875 C1874 1.349 . S
C1875 C1891 1.349 . S
C1876 C1874 1.327 . S
C1876 C1895 1.430 . S
C1876 H1900 0.950 1_565 S
C1877 C1894 1.574 . S
C1877 C1896 1.368 . S
C1877 H1901 0.949 . S
H1878 C1882 0.949 . S
C1879 C1880 1.349 . S
C1879 C1881 1.327 . S
C1879 H1902 0.950 . S
C1880 C1879 1.349 . S
C1880 C1892 1.349 . S
C1881 C1879 1.327 . S
C1881 C1897 1.429 . S
C1881 H1903 0.950 . S
C1882 H1878 0.949 . S
C1882 C1890 1.574 . S
C1882 C1898 1.368 . S
H1883 C1891 0.950 . S
H1884 C1889 0.950 . S
H1885 C1890 0.949 . S
H1886 C1892 0.950 . S
H1887 C1893 0.950 . S
H1888 C1894 0.949 . S
C1889 H1884 0.950 . S
C1889 C1891 1.327 . S
C1889 C1895 1.446 . S
C1890 C1882 1.574 . S
C1890 H1885 0.949 . S
C1890 C1896 1.368 . S
C1891 C1875 1.349 . S
C1891 H1883 0.950 . S
C1891 C1889 1.327 . S
C1892 C1880 1.349 . S
C1892 H1886 0.950 . S
C1892 C1893 1.327 . S
C1893 H1887 0.950 . S
C1893 C1892 1.327 . S
C1893 C1897 1.429 . S
C1894 C1877 1.574 . S
C1894 H1888 0.949 . S
C1894 C1898 1.368 . S
C1895 C1876 1.430 . S
C1895 C1889 1.446 . S
C1895 C1896 1.506 1_565 S
C1896 C1877 1.368 . S
C1896 C1890 1.368 . S
C1896 C1895 1.506 1_545 S
C1897 C1881 1.429 . S
C1897 C1893 1.429 . S
C1897 C1898 1.523 . S
C1898 C1882 1.368 . S
C1898 C1894 1.368 . S
C1898 C1897 1.523 . S
H1899 C1874 0.950 . S
H1900 C1876 0.950 1_545 S
H1901 C1877 0.949 . S
H1902 C1879 0.950 . S
H1903 C1881 0.950 . S
C945 C416 1.486 . S
C950 C3 1.486 . S
C975 C239 1.486 . S
C980 C62 1.486 . S
C1005 C298 1.486 . S
C1010 C121 1.486 . S
C1035 C180 1.486 . S
C1040 C357 1.486 . S
C1065 C888 1.486 . S
C1070 C475 1.486 . S
C1095 C711 1.486 . S
C1100 C534 1.486 . S
C1125 C593 1.486 . S
C1130 C770 1.486 . S
C1155 C652 1.486 . S
C1160 C829 1.486 . S
C1185 C170 1.042 . S
C1190 C52 1.042 . S
C1215 C111 1.042 . S
C1220 C229 1.042 . S
C1245 C288 1.042 . S
C1250 C406 1.042 . S
C1275 C465 1.042 . S
C1280 C347 1.042 . S
C1305 C524 1.042 . S
C1310 C642 1.042 . S
C1335 C583 1.042 . S
C1340 C701 1.042 . S
C1365 C878 1.042 . S
C1370 C760 1.042 . S
C1395 C819 1.042 . S
C1400 C937 1.042 . S
C1425 C387 1.292 . S
C1430 C33 1.292 . S
C1455 C92 1.292 . S
C1460 C446 1.292 . S
C1485 C151 1.292 . S
C1490 C269 1.292 . S
C1515 C210 1.292 . S
C1520 C328 1.292 . S
C1545 C505 1.292 . S
C1550 C859 1.292 . S
C1575 C564 1.292 . S
C1580 C918 1.292 . S
C1605 C623 1.292 . S
C1610 C741 1.292 . S
C1635 C682 1.292 . S
C1640 C800 1.292 . S
C1665 C5 1.306 . S
C1670 C890 1.306 . S
C1695 C713 1.306 . S
C1700 C64 1.306 . S
C1725 C123 1.306 . S
C1730 C772 1.306 . S
C1755 C831 1.306 . S
C1760 C182 1.306 . S
C1785 C536 1.306 . S
C1790 C241 1.306 . S
C1815 C300 1.306 . S
C1820 C595 1.306 . S
C1845 C654 1.306 . S
C1850 C359 1.306 . S
C1875 C477 1.306 . S
C1880 C418 1.306 . S
