# Generated by pormake.
# Topology uob, (4)-cn, num edge types: 1
# Building blocks:
#     Node 0, Type 0, BuildingBlock: QUQFOY_clean_sbu_1, # of connection points: 4
#     Node 1, Type 0, BuildingBlock: QUQFOY_clean_sbu_1, # of connection points: 4
#     Node 2, Type 0, BuildingBlock: QUQFOY_clean_sbu_1, # of connection points: 4
#     Node 3, Type 0, BuildingBlock: QUQFOY_clean_sbu_1, # of connection points: 4
#     Node 4, Type 0, BuildingBlock: QUQFOY_clean_sbu_1, # of connection points: 4
#     Node 5, Type 0, BuildingBlock: QUQFOY_clean_sbu_1, # of connection points: 4
#     Node 6, Type 0, BuildingBlock: QUQFOY_clean_sbu_1, # of connection points: 4
#     Node 7, Type 0, BuildingBlock: QUQFOY_clean_sbu_1, # of connection points: 4
#     Node 8, Type 0, BuildingBlock: QUQFOY_clean_sbu_1, # of connection points: 4
#     Node 9, Type 0, BuildingBlock: QUQFOY_clean_sbu_1, # of connection points: 4
#     Node 10, Type 0, BuildingBlock: QUQFOY_clean_sbu_1, # of connection points: 4
#     Node 11, Type 0, BuildingBlock: QUQFOY_clean_sbu_1, # of connection points: 4
#     Node 12, Type 0, BuildingBlock: QUQFOY_clean_sbu_1, # of connection points: 4
#     Node 13, Type 0, BuildingBlock: QUQFOY_clean_sbu_1, # of connection points: 4
#     Node 14, Type 0, BuildingBlock: QUQFOY_clean_sbu_1, # of connection points: 4
#     Node 15, Type 0, BuildingBlock: QUQFOY_clean_sbu_1, # of connection points: 4
#     Edge 16, Type (0, 0), BuildingBlock: OJICUG_clean_linker_0, # of connection points: 2
#     Edge 17, Type (0, 0), BuildingBlock: OJICUG_clean_linker_0, # of connection points: 2
#     Edge 18, Type (0, 0), BuildingBlock: OJICUG_clean_linker_0, # of connection points: 2
#     Edge 19, Type (0, 0), BuildingBlock: OJICUG_clean_linker_0, # of connection points: 2
#     Edge 20, Type (0, 0), BuildingBlock: OJICUG_clean_linker_0, # of connection points: 2
#     Edge 21, Type (0, 0), BuildingBlock: OJICUG_clean_linker_0, # of connection points: 2
#     Edge 22, Type (0, 0), BuildingBlock: OJICUG_clean_linker_0, # of connection points: 2
#     Edge 23, Type (0, 0), BuildingBlock: OJICUG_clean_linker_0, # of connection points: 2
#     Edge 24, Type (0, 0), BuildingBlock: OJICUG_clean_linker_0, # of connection points: 2
#     Edge 25, Type (0, 0), BuildingBlock: OJICUG_clean_linker_0, # of connection points: 2
#     Edge 26, Type (0, 0), BuildingBlock: OJICUG_clean_linker_0, # of connection points: 2
#     Edge 27, Type (0, 0), BuildingBlock: OJICUG_clean_linker_0, # of connection points: 2
#     Edge 28, Type (0, 0), BuildingBlock: OJICUG_clean_linker_0, # of connection points: 2
#     Edge 29, Type (0, 0), BuildingBlock: OJICUG_clean_linker_0, # of connection points: 2
#     Edge 30, Type (0, 0), BuildingBlock: OJICUG_clean_linker_0, # of connection points: 2
#     Edge 31, Type (0, 0), BuildingBlock: OJICUG_clean_linker_0, # of connection points: 2
#     Edge 32, Type (0, 0), BuildingBlock: OJICUG_clean_linker_0, # of connection points: 2
#     Edge 33, Type (0, 0), BuildingBlock: OJICUG_clean_linker_0, # of connection points: 2
#     Edge 34, Type (0, 0), BuildingBlock: OJICUG_clean_linker_0, # of connection points: 2
#     Edge 35, Type (0, 0), BuildingBlock: OJICUG_clean_linker_0, # of connection points: 2
#     Edge 36, Type (0, 0), BuildingBlock: OJICUG_clean_linker_0, # of connection points: 2
#     Edge 37, Type (0, 0), BuildingBlock: OJICUG_clean_linker_0, # of connection points: 2
#     Edge 38, Type (0, 0), BuildingBlock: OJICUG_clean_linker_0, # of connection points: 2
#     Edge 39, Type (0, 0), BuildingBlock: OJICUG_clean_linker_0, # of connection points: 2
#     Edge 40, Type (0, 0), BuildingBlock: OJICUG_clean_linker_0, # of connection points: 2
#     Edge 41, Type (0, 0), BuildingBlock: OJICUG_clean_linker_0, # of connection points: 2
#     Edge 42, Type (0, 0), BuildingBlock: OJICUG_clean_linker_0, # of connection points: 2
#     Edge 43, Type (0, 0), BuildingBlock: OJICUG_clean_linker_0, # of connection points: 2
#     Edge 44, Type (0, 0), BuildingBlock: OJICUG_clean_linker_0, # of connection points: 2
#     Edge 45, Type (0, 0), BuildingBlock: OJICUG_clean_linker_0, # of connection points: 2
#     Edge 46, Type (0, 0), BuildingBlock: OJICUG_clean_linker_0, # of connection points: 2
#     Edge 47, Type (0, 0), BuildingBlock: OJICUG_clean_linker_0, # of connection points: 2
# Relax obj value: 0.039
# Max RMSD: 0.118
# Mean RMSD: 0.118
data_MOF--net-uob--node1-QUQFOY_clean_sbu_1--edge1-OJICUG_clean_linker_0
_symmetry_space_group_name_H-M    P1
_symmetry_Int_Tables_number       1
_symmetry_cell_setting            triclinic
loop_
_symmetry_equiv_pos_as_xyz
'x, y, z'
_cell_length_a     41.055368
_cell_length_b     40.980381
_cell_length_c     20.669028
_cell_angle_alpha  89.882224
_cell_angle_beta   89.886556
_cell_angle_gamma 90.028731
loop_
_atom_site_label
_atom_site_type_symbol
_atom_site_fract_x
_atom_site_fract_y
_atom_site_fract_z
_atom_type_partial_charge
O0 O 0.15199 0.08576 0.41233 0.0
Cd1 Cd 0.15226 0.04631 0.35192 0.0
Cd2 Cd 0.12497 0.09976 0.27615 0.0
O3 O 0.13816 0.12843 0.3532 0.0
O4 O 0.17527 1.01558 0.41196 0.0
O5 O 0.19675 0.0325 0.31994 0.0
C6 C 0.20027 0.01745 0.37447 0.0
C7 C 0.13203 0.11803 0.16972 0.0
C8 C 0.14753 0.11623 0.40649 0.0
C9 C 0.08211 0.04121 0.31123 0.0
O10 O 0.08484 0.0704 0.29091 0.0
O11 O 0.10693 0.02559 0.33181 0.0
O12 O 0.11034 0.13061 0.20726 0.0
O13 O 0.1508 0.09576 0.19356 0.0
O14 O 0.94576 0.65376 0.68108 0.0
Cd15 Cd 0.98424 0.65346 0.618 0.0
Cd16 Cd 0.92978 0.62678 0.5457 0.0
O17 O 0.90216 0.64156 0.62374 0.0
O18 O 0.01615 0.67621 0.67561 0.0
O19 O 0.99773 0.69797 0.58512 0.0
C20 C 1.0137 0.70135 0.63851 0.0
C21 C 0.91222 0.63378 0.43887 0.0
C22 C 0.91514 0.65045 0.67659 0.0
C23 C 0.98799 0.58318 0.577 0.0
O24 O 0.95839 0.58604 0.55988 0.0
O25 O 1.00423 0.60802 0.59558 0.0
O26 O 0.89864 0.61282 0.4769 0.0
O27 O 0.93487 0.6521 0.46262 0.0
O28 O 0.37848 0.44887 0.94034 0.0
Cd29 Cd 0.37917 0.48687 0.87596 0.0
Cd30 Cd 0.40526 0.43207 0.80542 0.0
O31 O 0.38897 0.40473 0.88306 0.0
O32 O 0.35523 0.51915 0.93113 0.0
O33 O 0.3349 0.49916 0.84076 0.0
C34 C 0.33058 0.51567 0.89331 0.0
C35 C 0.39873 0.41543 0.69777 0.0
C36 C 0.38066 0.41808 0.93601 0.0
C37 C 0.44963 0.48964 0.83672 0.0
O38 O 0.44645 0.45979 0.82114 0.0
O39 O 0.42486 0.50656 0.85328 0.0
O40 O 0.41887 0.40094 0.736 0.0
O41 O 0.38086 0.4384 0.72176 0.0
O42 O 0.58467 0.88054 0.16362 0.0
Cd43 Cd 0.54509 0.88081 0.10377 0.0
Cd44 Cd 0.59875 0.90787 0.02767 0.0
O45 O 0.62744 0.89333 0.10388 0.0
O46 O 0.51448 0.85744 0.16388 0.0
O47 O 0.53122 0.83628 0.07164 0.0
C48 C 0.51637 0.83248 0.12634 0.0
C49 C 0.61602 0.90139 0.92036 0.0
C50 C 0.61518 0.88419 0.15737 0.0
C51 C 0.54107 0.95148 0.06426 0.0
O52 O 0.57024 0.94844 0.04433 0.0
O53 O 0.52492 0.92665 0.08375 0.0
O54 O 0.62932 0.92253 0.95808 0.0
O55 O 0.59361 0.88281 0.94446 0.0
O56 O 0.1514 0.44721 0.94909 0.0
Cd57 Cd 0.1511 0.48685 1.00896 0.0
Cd58 Cd 0.1239 0.43329 0.08497 0.0
O59 O 0.13829 0.40446 1.00881 0.0
O60 O 0.1747 0.51747 0.94919 0.0
O61 O 0.19542 0.50068 0.0418 0.0
C62 C 0.19944 0.51557 0.98717 0.0
C63 C 0.13036 0.41593 0.19225 0.0
C64 C 0.14756 0.41666 0.95535 0.0
C65 C 0.0805 0.49109 0.04775 0.0
O66 O 0.08348 0.46193 0.06815 0.0
O67 O 0.10532 0.50716 0.02817 0.0
O68 O 0.10919 0.4027 0.15456 0.0
O69 O 0.14896 0.43835 0.16816 0.0
O70 O 0.58371 0.65388 0.17786 0.0
Cd71 Cd 0.5455 0.65312 0.24156 0.0
Cd72 Cd 0.60024 0.62697 0.31286 0.0
O73 O 0.62766 0.64321 0.23537 0.0
O74 O 0.51341 0.6767 0.18535 0.0
O75 O 0.53274 0.69754 0.2758 0.0
C76 C 0.51653 0.70157 0.22283 0.0
C77 C 0.61676 0.63355 0.42055 0.0
C78 C 0.61442 0.65163 0.18238 0.0
C79 C 0.54281 0.5825 0.28113 0.0
O80 O 0.57255 0.58572 0.29704 0.0
O81 O 0.52594 0.60728 0.26424 0.0
O82 O 0.63121 0.61332 0.38243 0.0
O83 O 0.59387 0.65147 0.39643 0.0
O84 O 0.37818 0.08503 0.42456 0.0
Cd85 Cd 0.37856 0.04707 0.48905 0.0
Cd86 Cd 0.40465 0.10187 0.55977 0.0
O87 O 0.3894 0.1291 0.48145 0.0
O88 O 0.35535 1.01463 0.43334 0.0
O89 O 0.33422 0.03432 0.5234 0.0
C90 C 0.33044 0.01776 0.47078 0.0
C91 C 0.39752 0.11939 0.66659 0.0
C92 C 0.38092 0.11578 0.42865 0.0
C93 C 0.44866 0.04382 0.53 0.0
O94 O 0.44564 0.07363 0.54592 0.0
O95 O 0.42392 0.02724 0.51219 0.0
O96 O 0.41817 0.13331 0.62844 0.0
O97 O 0.37951 0.09646 0.64292 0.0
O98 O 0.94609 0.87944 0.70148 0.0
Cd99 Cd 0.98557 0.87907 0.76163 0.0
Cd100 Cd 0.9322 0.90634 0.83784 0.0
O101 O 0.90354 0.8932 0.76079 0.0
O102 O 0.01618 0.85633 0.70101 0.0
O103 O 0.9995 0.83439 0.79278 0.0
C104 C 1.01442 0.83112 0.73807 0.0
C105 C 0.91394 0.89932 0.94429 0.0
C106 C 0.91568 0.88389 0.70743 0.0
C107 C 0.99066 0.94929 0.80275 0.0
O108 O 0.96154 0.94653 0.82312 0.0
O109 O 1.00625 0.92444 0.78202 0.0
O110 O 0.90142 0.92105 0.90672 0.0
O111 O 0.93615 0.88048 0.92048 0.0
O112 O 0.65138 0.58573 0.93926 0.0
Cd113 Cd 0.65047 0.54777 0.87513 0.0
Cd114 Cd 0.62448 0.6026 0.80459 0.0
O115 O 0.64083 0.6299 0.88187 0.0
O116 O 0.67462 0.51551 0.93004 0.0
O117 O 0.69452 0.5354 0.83884 0.0
C118 C 0.69907 0.51893 0.89146 0.0
C119 C 0.63115 0.61916 0.69677 0.0
C120 C 0.64923 0.61652 0.93478 0.0
C121 C 0.57999 0.54511 0.83656 0.0
O122 O 0.58321 0.57495 0.82074 0.0
O123 O 0.60472 0.52816 0.85314 0.0
O124 O 0.61101 0.63372 0.73494 0.0
O125 O 0.64894 0.59615 0.72092 0.0
O126 O 0.447 0.15241 0.18384 0.0
Cd127 Cd 0.48417 0.1522 0.11763 0.0
Cd128 Cd 0.42892 0.12717 0.049 0.0
O129 O 0.40236 0.14324 0.12748 0.0
O130 O 0.51704 0.1762 0.17111 0.0
O131 O 0.49569 0.19668 0.0819 0.0
C132 C 0.51289 0.20097 0.13352 0.0
C133 C 0.41175 0.13457 0.94208 0.0
C134 C 0.4162 0.15078 0.1803 0.0
C135 C 0.48616 0.08204 0.07608 0.0
O136 O 0.45614 0.08548 0.06273 0.0
O137 O 0.50346 0.10665 0.09216 0.0
O138 O 0.39722 0.11437 0.98035 0.0
O139 O 0.43503 0.1521 0.96576 0.0
O140 O 0.88962 0.95344 0.45917 0.0
Cd141 Cd 0.88498 0.98351 0.38081 0.0
Cd142 Cd 0.90631 0.92913 0.32453 0.0
O143 O 0.8879 0.90679 0.40631 0.0
O144 O 0.85356 0.01727 0.41222 0.0
O145 O 0.84094 0.9782 0.34223 0.0
C146 C 0.83159 1.0011 0.38116 0.0
C147 C 0.89681 0.91155 0.2192 0.0
C148 C 0.88583 0.92268 0.45889 0.0
C149 C 0.95262 0.9852 0.33395 0.0
O150 O 0.9495 0.95435 0.33375 0.0
O151 O 0.92767 1.00327 0.34221 0.0
O152 O 0.91576 0.89551 0.25752 0.0
O153 O 0.88132 0.93639 0.24248 0.0
O154 O 0.07829 0.38958 0.70953 0.0
Cd155 Cd 0.04744 0.38533 0.63273 0.0
Cd156 Cd 0.10114 0.40769 0.57416 0.0
O157 O 0.12442 0.38911 0.65471 0.0
O158 O 1.01421 0.35369 0.66576 0.0
O159 O 0.05211 0.34141 0.59293 0.0
C160 C 0.02988 0.33183 0.63328 0.0
C161 C 0.11812 0.3991 0.46783 0.0
C162 C 0.10903 0.38631 0.70787 0.0
C163 C 0.04469 0.45348 0.5885 0.0
O164 O 0.07547 0.45056 0.58574 0.0
O165 O 0.02691 0.42831 0.59728 0.0
O166 O 0.13406 0.41813 0.50606 0.0
O167 O 0.0937 0.38308 0.4916 0.0
O168 O 0.64263 0.95343 0.40279 0.0
Cd169 Cd 0.64659 0.98455 0.47929 0.0
Cd170 Cd 0.62412 0.93084 0.53825 0.0
O171 O 0.6427 0.90732 0.45795 0.0
O172 O 0.67827 0.01775 0.44628 0.0
O173 O 0.69029 0.98004 0.51977 0.0
C174 C 0.69998 1.00218 0.47926 0.0
C175 C 0.63255 0.9139 0.64471 0.0
C176 C 0.64572 0.92263 0.40472 0.0
C177 C 0.57838 0.98739 0.52251 0.0
O178 O 0.58137 0.95657 0.52612 0.0
O179 O 0.60349 1.00521 0.51357 0.0
O180 O 0.61354 0.89796 0.60647 0.0
O181 O 0.64859 0.93833 0.62094 0.0
O182 O 0.07819 0.14207 0.65481 0.0
Cd183 Cd 0.04818 0.14675 0.73316 0.0
Cd184 Cd 0.10244 0.12548 0.78947 0.0
O185 O 0.12473 0.14394 0.7077 0.0
O186 O 1.01449 0.1782 0.70167 0.0
O187 O 0.05349 0.19088 0.77164 0.0
C188 C 0.03065 0.20023 0.73264 0.0
C189 C 0.11992 0.13508 0.89479 0.0
C190 C 0.10887 0.14595 0.65511 0.0
C191 C 0.04652 0.07902 0.78012 0.0
O192 O 0.07731 0.08217 0.78027 0.0
O193 O 0.02847 0.10401 0.77188 0.0
O194 O 0.13598 0.1161 0.85654 0.0
O195 O 0.09512 0.15054 0.87143 0.0
O196 O 0.88003 0.58372 0.92237 0.0
Cd197 Cd 0.88026 0.54739 0.99059 0.0
Cd198 Cd 0.90469 0.60291 0.05667 0.0
O199 O 0.88818 0.62891 0.97778 0.0
O200 O 0.85567 0.51388 0.93983 0.0
O201 O 0.83602 0.53696 0.02813 0.0
C202 C 0.83124 0.51895 0.97773 0.0
C203 C 0.89688 0.62003 0.1634 0.0
C204 C 0.88108 0.61462 0.92519 0.0
C205 C 0.95018 0.54586 0.03204 0.0
O206 O 0.94668 0.57612 0.0436 0.0
O207 O 0.92564 0.52827 1.0171 0.0
O208 O 0.91681 0.63495 0.12519 0.0
O209 O 0.87979 0.59641 0.13967 0.0
O210 O 0.44652 0.38063 0.17871 0.0
Cd211 Cd 0.4847 0.3813 0.24219 0.0
Cd212 Cd 0.43002 0.40741 0.31377 0.0
O213 O 0.40258 0.39125 0.23655 0.0
O214 O 0.51666 0.3574 0.18619 0.0
O215 O 0.49724 0.33696 0.27727 0.0
C216 C 0.51342 0.33268 0.22425 0.0
C217 C 0.41339 0.40087 0.42161 0.0
C218 C 0.41581 0.38289 0.18348 0.0
C219 C 0.4875 0.45186 0.28136 0.0
O220 O 0.45777 0.44863 0.29756 0.0
O221 O 0.50435 0.42709 0.26438 0.0
O222 O 0.399 0.42112 0.38337 0.0
O223 O 0.43626 0.38291 0.39755 0.0
C224 C 0.29161 1.00596 0.38068 0.0
C225 C 0.29748 1.00861 0.44761 0.0
H226 H 0.25609 1.00685 0.30464 0.0
C227 C 0.27077 1.00829 0.49012 0.0
H228 H 0.31163 1.00629 0.34647 0.0
C229 C 0.2389 1.00782 0.46602 0.0
C230 C 0.23308 1.00853 0.39887 0.0
H231 H 0.27446 1.01031 0.54184 0.0
H232 H 0.2189 1.0096 0.50009 0.0
C233 C 0.25975 1.00636 0.35652 0.0
C234 C 0.02511 0.77136 0.75472 0.0
C235 C 0.02329 0.79837 0.713 0.0
H236 H 0.02477 0.71934 0.76351 0.0
C237 C 0.02426 0.79295 0.64572 0.0
H238 H 0.02443 0.7747 0.80668 0.0
C239 C 0.02369 0.76118 0.62082 0.0
C240 C 0.02297 0.73416 0.66267 0.0
H241 H 0.02277 0.81321 0.61212 0.0
H242 H 0.02187 0.75783 0.56898 0.0
C243 C 0.02538 0.7396 0.72979 0.0
C244 C 0.29095 0.52701 0.98271 0.0
C245 C 0.29732 0.52442 0.91589 0.0
H246 H 0.25487 0.52606 0.05803 0.0
C247 C 0.2709 0.52456 0.87288 0.0
H248 H 0.31072 0.52679 1.01732 0.0
C249 C 0.23884 0.52493 0.89634 0.0
C250 C 0.23251 0.52431 0.96337 0.0
H251 H 0.27496 0.52254 0.82123 0.0
H252 H 0.21909 0.52309 0.86187 0.0
C253 C 0.2589 0.52652 1.00623 0.0
C254 C 0.50566 0.77279 0.1084 0.0
C255 C 0.50768 0.79945 0.15074 0.0
H256 H 0.50561 0.72082 0.09832 0.0
C257 C 0.50694 0.79344 0.21789 0.0
H258 H 0.5062 0.77656 0.05652 0.0
C259 C 0.50737 0.76143 0.24199 0.0
C260 C 0.5077 0.73474 0.19951 0.0
H261 H 0.50863 0.8134 0.25198 0.0
H262 H 0.50928 0.75764 0.29373 0.0
C263 C 0.50524 0.74079 0.13254 0.0
C264 C 0.73955 0.50942 0.97982 0.0
C265 C 0.73241 0.51018 0.91317 0.0
H266 H 0.77658 0.51186 0.05289 0.0
C267 C 0.75827 0.50824 0.86881 0.0
H268 H 0.72021 0.51113 1.01538 0.0
C269 C 0.79059 0.50775 0.89053 0.0
C270 C 0.79775 0.51018 0.957 0.0
H271 H 0.75359 0.50887 0.81726 0.0
H272 H 0.80995 0.50815 0.85486 0.0
C273 C 0.77188 0.50991 1.00148 0.0
C274 C 0.52311 0.29278 0.13473 0.0
C275 C 0.52203 0.29939 0.20159 0.0
H276 H 0.52083 0.25633 0.06039 0.0
C277 C 0.52354 0.2731 0.24512 0.0
H278 H 0.52176 0.31246 0.09977 0.0
C279 C 0.52388 0.24089 0.22235 0.0
C280 C 0.52176 0.23429 0.1556 0.0
H281 H 0.52268 0.27735 0.29681 0.0
H282 H 0.52313 0.22121 0.25738 0.0
C283 C 0.5225 0.26058 0.11199 0.0
C284 C 0.78159 0.03256 0.41541 0.0
C285 C 0.79727 1.00276 0.40249 0.0
H286 H 0.73767 0.05595 0.44902 0.0
C287 C 0.78139 0.9735 0.41845 0.0
H288 H 0.79364 0.05545 0.4046 0.0
C289 C 0.75063 0.97384 0.44715 0.0
C290 C 0.73445 1.00343 0.45871 0.0
H291 H 0.79323 0.95021 0.41051 0.0
H292 H 0.73897 0.95076 0.4583 0.0
C293 C 0.74994 0.03285 0.44166 0.0
C294 C 0.05807 0.28119 0.66629 0.0
C295 C 0.02857 0.29737 0.65424 0.0
H296 H 0.08154 0.23858 0.70357 0.0
C297 C 0.99915 0.28192 0.67115 0.0
H298 H 0.08114 0.29282 0.65525 0.0
C299 C 0.99936 0.25027 0.69773 0.0
C300 C 0.02906 0.23457 0.7111 0.0
H301 H 0.97612 0.29419 0.66342 0.0
H302 H 0.97648 0.23823 0.7084 0.0
C303 C 0.05832 0.25044 0.6953 0.0
C304 C 0.04485 0.99297 0.32663 0.0
C305 C 0.04906 0.02641 0.31432 0.0
H306 H 1.01123 0.95378 0.34186 0.0
C307 C 0.02116 0.04616 0.30741 0.0
H308 H 0.06573 0.97707 0.33228 0.0
C309 C 0.98987 0.03293 0.31373 0.0
C310 C 0.98567 0.99952 0.32624 0.0
H311 H 0.02344 0.0721 0.29825 0.0
H312 H 0.969 0.04888 0.30879 0.0
C313 C 1.01354 0.97966 0.33206 0.0
C314 C 0.98301 0.52212 0.57193 0.0
C315 C 1.00282 0.55008 0.57773 0.0
H316 H 0.98047 0.46985 0.5713 0.0
C317 C 0.03649 0.54588 0.5859 0.0
H318 H 0.95691 0.52439 0.56585 0.0
C319 C 0.05 0.51454 0.58838 0.0
C320 C 0.03012 0.48659 0.58362 0.0
H321 H 0.05245 0.5668 0.59048 0.0
H322 H 0.07606 0.51226 0.59504 0.0
C323 C 0.99646 0.49078 0.57527 0.0
C324 C 0.51054 0.48362 0.83672 0.0
C325 C 0.4829 0.50404 0.83679 0.0
H326 H 0.56271 0.48038 0.83739 0.0
C327 C 0.48756 0.53797 0.83714 0.0
H328 H 0.50788 0.45732 0.83686 0.0
C329 C 0.51907 0.55114 0.83658 0.0
C330 C 0.54671 0.53072 0.83677 0.0
H331 H 0.46689 0.55438 0.83719 0.0
H332 H 0.52173 0.57744 0.83659 0.0
C333 C 0.54204 0.49679 0.83726 0.0
C334 C 0.54719 1.01247 0.06535 0.0
C335 C 0.52677 0.98479 0.06702 0.0
H336 H 0.55062 0.06472 0.06784 0.0
C337 C 0.49301 0.98947 0.07226 0.0
H338 H 0.57338 1.00979 0.06186 0.0
C339 C 0.47998 0.02104 0.07483 0.0
C340 C 0.50042 0.04871 0.07345 0.0
H341 H 0.47661 0.96877 0.07376 0.0
H342 H 0.4538 0.02374 0.07851 0.0
C343 C 0.53421 0.04402 0.06911 0.0
C344 C 0.04258 0.53913 0.0373 0.0
C345 C 0.04725 0.50538 0.04426 0.0
H346 H 1.00838 0.57831 0.02862 0.0
C347 C 0.01962 0.48494 0.04664 0.0
H348 H 0.06324 0.55554 0.03517 0.0
C349 C 0.98814 0.49788 0.04186 0.0
C350 C 0.98346 0.53166 0.03571 0.0
H351 H 0.02228 0.45875 0.05146 0.0
H352 H 0.96748 0.48145 0.04373 0.0
C353 C 1.01107 0.55213 0.03365 0.0
C354 C 0.53573 0.4899 0.28057 0.0
C355 C 0.50187 0.4852 0.28111 0.0
H356 H 0.5751 0.52416 0.28094 0.0
C357 C 0.48147 0.51288 0.28131 0.0
H358 H 0.55213 0.4692 0.28044 0.0
C359 C 0.49459 0.54445 0.2807 0.0
C360 C 0.52845 0.54915 0.28103 0.0
H361 H 0.45522 0.5102 0.28132 0.0
H362 H 0.4782 0.56516 0.28066 0.0
C363 C 0.54885 0.52147 0.2811 0.0
C364 C 0.4861 0.99529 0.52353 0.0
C365 C 0.48176 0.0291 0.53009 0.0
H366 H 0.51983 0.95568 0.51671 0.0
C367 C 0.50958 0.04911 0.53532 0.0
H368 H 0.46529 0.97917 0.51945 0.0
C369 C 0.54093 0.03571 0.53307 0.0
C370 C 0.54526 1.00192 0.52637 0.0
H371 H 0.5072 0.07532 0.54018 0.0
H372 H 0.56175 0.05186 0.53656 0.0
C373 C 0.51744 0.98185 0.52212 0.0
C374 C 0.99891 0.04169 0.80043 0.0
C375 C 0.03225 0.04591 0.78786 0.0
H376 H 0.95983 1.00805 0.81593 0.0
C377 C 0.05208 0.018 0.78198 0.0
H378 H 0.98298 0.0626 0.80542 0.0
C379 C 0.0388 0.98663 0.78739 0.0
C380 C 1.00543 0.98239 0.79974 0.0
H381 H 0.07791 0.02032 0.77214 0.0
H382 H 0.05467 0.96572 0.78167 0.0
C383 C 0.98571 1.01034 0.80674 0.0
C384 C 0.10943 0.16273 0.53973 0.0
C385 C 0.12577 0.14879 0.59269 0.0
H386 H 0.10485 0.16437 0.43676 0.0
C387 C 0.15519 0.13225 0.58247 0.0
H388 H 0.08694 0.17611 0.54678 0.0
C389 C 0.16529 0.12532 0.51947 0.0
C390 C 0.1463 0.13533 0.46645 0.0
H391 H 0.16833 0.12153 0.62263 0.0
H392 H 0.18593 0.10922 0.51246 0.0
C393 C 0.11987 0.15634 0.47678 0.0
C394 C 0.90848 0.66859 0.79041 0.0
C395 C 0.89628 0.65102 0.73725 0.0
H396 H 0.91238 0.67114 0.89352 0.0
C397 C 0.87172 0.6278 0.74747 0.0
H398 H 0.92719 0.68695 0.78358 0.0
C399 C 0.86351 0.61854 0.81047 0.0
C400 C 0.87945 0.63273 0.86367 0.0
H401 H 0.86179 0.61403 0.7074 0.0
H402 H 0.84716 0.59804 0.81731 0.0
C403 C 0.89995 0.65962 0.85341 0.0
C404 C 0.37125 0.40349 0.11315 0.0
C405 C 0.39695 0.38154 0.12296 0.0
H406 H 0.3453 0.43216 0.04378 0.0
C407 C 0.40992 0.36467 0.06953 0.0
H408 H 0.36067 0.41666 0.15343 0.0
C409 C 0.40099 0.37338 1.00666 0.0
C410 C 0.37927 0.39928 0.99681 0.0
H411 H 0.42948 0.34723 0.07602 0.0
H412 H 0.41403 0.36264 0.96637 0.0
C413 C 0.36257 0.41244 0.05029 0.0
C414 C 0.6632 0.92075 0.28986 0.0
C415 C 0.64858 0.90509 0.34307 0.0
H416 H 0.66502 0.92507 0.18681 0.0
C417 C 0.63107 0.87616 0.33333 0.0
H418 H 0.67732 0.94284 0.29653 0.0
C419 C 0.62386 0.86613 0.27048 0.0
C420 C 0.63447 0.88472 0.21714 0.0
H421 H 0.6198 0.86353 0.37367 0.0
H422 H 0.60704 0.84603 0.2638 0.0
C423 C 0.65646 0.91039 0.22705 0.0
C424 C 0.11063 0.36894 0.82284 0.0
C425 C 0.12643 0.38343 0.76964 0.0
H426 H 0.1063 0.36714 0.92588 0.0
C427 C 0.15546 0.40069 0.77941 0.0
H428 H 0.08846 0.355 0.81615 0.0
C429 C 0.16554 0.40782 0.84227 0.0
C430 C 0.14688 0.39735 0.89559 0.0
H431 H 0.16819 0.41185 0.73907 0.0
H432 H 0.18576 0.42448 0.84896 0.0
C433 C 0.12104 0.37558 0.88565 0.0
C434 C 0.62029 0.66995 0.06832 0.0
C435 C 0.63327 0.65301 0.12169 0.0
H436 H 0.61606 0.67206 0.96521 0.0
C437 C 0.6589 0.63101 0.11169 0.0
H438 H 0.60078 0.68744 0.07496 0.0
C439 C 0.66748 0.62207 0.04877 0.0
C440 C 0.65075 0.6353 0.99542 0.0
H441 H 0.66949 0.61778 0.15191 0.0
H442 H 0.6847 0.60231 0.04217 0.0
C443 C 0.62912 0.66126 1.0054 0.0
C444 C 0.36297 0.12169 0.31452 0.0
C445 C 0.37999 0.13451 0.36779 0.0
H446 H 0.36072 0.1177 0.2114 0.0
C447 C 0.4023 0.15992 0.35771 0.0
H448 H 0.34527 0.10234 0.32124 0.0
C449 C 0.41132 0.16849 0.29476 0.0
C450 C 0.39781 0.15203 0.24147 0.0
H451 H 0.41562 0.17036 0.39786 0.0
H452 H 0.43123 0.18555 0.28803 0.0
C453 C 0.37169 0.13057 0.25158 0.0
C454 C 0.90651 0.86614 0.59446 0.0
C455 C 0.89657 0.88515 0.64752 0.0
H456 H 0.91021 0.86309 0.4913 0.0
C457 C 0.87562 0.91164 0.63727 0.0
H458 H 0.92257 0.84545 0.60142 0.0
C459 C 0.86919 0.92212 0.57434 0.0
C460 C 0.88304 0.90575 0.52133 0.0
H461 H 0.86764 0.92668 0.67734 0.0
H462 H 0.85584 0.94466 0.56736 0.0
C463 C 0.89955 0.87627 0.53149 0.0
C464 C 0.15152 0.11516 0.99067 0.0
C465 C 0.12728 0.13568 0.96496 0.0
H466 H 0.17221 0.09358 0.07567 0.0
C467 C 0.1075 0.15347 1.00773 0.0
H468 H 0.16727 0.10117 0.95909 0.0
C469 C 0.11037 0.14911 0.0746 0.0
C470 C 0.13304 0.12682 0.10014 0.0
H471 H 0.08868 0.16956 0.98958 0.0
H472 H 0.09373 0.1621 0.10607 0.0
C473 C 0.15435 0.11075 0.05758 0.0
C474 C 0.92152 0.65456 0.326 0.0
C475 C 0.90421 0.63432 0.36891 0.0
H476 H 0.93246 0.66622 0.22735 0.0
C477 C 0.88144 0.61211 0.34348 0.0
H478 H 0.93913 0.67201 0.34394 0.0
C479 C 0.87762 0.60874 0.27655 0.0
C480 C 0.89645 0.62753 0.23358 0.0
H481 H 0.86756 0.59624 0.37516 0.0
H482 H 0.86099 0.59036 0.25859 0.0
C483 C 0.91766 0.65122 0.25908 0.0
C484 C 0.42035 0.3848 0.60182 0.0
C485 C 0.39861 0.40799 0.62747 0.0
H486 H 0.44192 0.36412 0.51678 0.0
C487 C 0.37921 0.42614 0.5846 0.0
H488 H 0.43561 0.3703 0.63345 0.0
C489 C 0.38281 0.42254 0.51761 0.0
C490 C 0.40593 0.40073 0.49195 0.0
H491 H 0.36216 0.44413 0.60265 0.0
H492 H 0.36838 0.43787 0.48599 0.0
C493 C 0.42399 0.38122 0.53484 0.0
C494 C 0.61198 0.88273 0.74103 0.0
C495 C 0.63282 0.90672 0.71509 0.0
H496 H 0.59041 0.86206 0.82626 0.0
C497 C 0.65093 0.92624 0.75772 0.0
H498 H 0.59773 0.8672 0.70958 0.0
C499 C 0.64674 0.92324 0.82467 0.0
C500 C 0.62429 0.90071 0.85048 0.0
H501 H 0.66727 0.94487 0.73942 0.0
H502 H 0.66007 0.93962 0.85603 0.0
C503 C 0.60773 0.87979 0.808 0.0
C504 C 0.10568 0.3808 0.35482 0.0
C505 C 0.12526 0.39884 0.39745 0.0
H506 H 0.09217 0.37181 0.25654 0.0
C507 C 0.14923 0.41969 0.3715 0.0
H508 H 0.08706 0.36446 0.37313 0.0
C509 C 0.15209 0.42403 0.30454 0.0
C510 C 0.1311 0.40755 0.26209 0.0
H511 H 0.1648 0.43389 0.40295 0.0
H512 H 0.16981 0.44136 0.28628 0.0
C513 C 0.1086 0.38508 0.28789 0.0
C514 C 0.65078 0.60836 0.58364 0.0
C515 C 0.63135 0.62656 0.62641 0.0
H516 H 0.66168 0.59656 0.48512 0.0
C517 C 0.60966 0.64976 0.60061 0.0
H518 H 0.66779 0.59037 0.60182 0.0
C519 C 0.60608 0.65329 0.5336 0.0
C520 C 0.62416 0.63374 0.49085 0.0
H521 H 0.59439 0.66429 0.63214 0.0
H522 H 0.58818 0.6704 0.51543 0.0
C523 C 0.64724 0.61193 0.51664 0.0
C524 C 0.41896 0.15039 0.76196 0.0
C525 C 0.39705 0.1273 0.73661 0.0
H526 H 0.4406 0.17107 0.84674 0.0
C527 C 0.37726 0.10956 0.77963 0.0
H528 H 0.43449 0.1646 0.73018 0.0
C529 C 0.38075 0.11335 0.84655 0.0
C530 C 0.40413 0.13492 0.87193 0.0
H531 H 0.36007 0.09168 0.76177 0.0
H532 H 0.36609 0.09825 0.87834 0.0
C533 C 0.42247 0.15415 0.82887 0.0
C534 C 0.87849 0.92393 0.1062 0.0
C535 C 0.89626 0.90416 0.14904 0.0
H536 H 0.86989 0.93766 1.00781 0.0
C537 C 0.91678 0.87989 0.1234 0.0
H538 H 0.86239 0.94277 0.12428 0.0
C539 C 0.92121 0.87703 0.0565 0.0
C540 C 0.90515 0.89833 1.01387 0.0
H541 H 0.93075 0.86414 0.15504 0.0
H542 H 0.93838 0.85915 0.03847 0.0
C543 C 0.88287 0.92102 0.03933 0.0
loop_
_geom_bond_atom_site_label_1
_geom_bond_atom_site_label_2
_geom_bond_distance
_geom_bond_site_symmetry_2
_ccdc_geom_bond_type
O0 Cd1 2.223 . S
O0 C8 1.315 . S
Cd1 O0 2.223 . S
Cd1 O4 2.297 . S
Cd1 O5 2.439 . S
Cd1 O11 2.240 . S
Cd2 O3 2.240 . S
Cd2 O10 2.223 . S
Cd2 O12 2.297 . S
Cd2 O13 2.439 . S
O3 Cd2 2.240 . S
O3 C8 1.279 . S
O4 Cd1 2.297 . S
O4 C6 1.247 . S
O5 Cd1 2.439 . S
O5 C6 1.208 . S
C6 O4 1.247 . S
C6 O5 1.208 . S
C7 O12 1.247 . S
C7 O13 1.208 . S
C8 O0 1.315 . S
C8 O3 1.279 . S
C9 O10 1.315 . S
C9 O11 1.279 . S
O10 Cd2 2.223 . S
O10 C9 1.315 . S
O11 Cd1 2.240 . S
O11 C9 1.279 . S
O12 Cd2 2.297 . S
O12 C7 1.247 . S
O13 Cd2 2.439 . S
O13 C7 1.208 . S
O14 Cd15 2.223 . S
O14 C22 1.315 . S
Cd15 O14 2.223 . S
Cd15 O18 2.297 . S
Cd15 O19 2.439 . S
Cd15 O25 2.240 . S
Cd16 O17 2.240 . S
Cd16 O24 2.223 . S
Cd16 O26 2.297 . S
Cd16 O27 2.439 . S
O17 Cd16 2.240 . S
O17 C22 1.279 . S
O18 Cd15 2.297 . S
O18 C20 1.247 . S
O19 Cd15 2.439 . S
O19 C20 1.208 . S
C20 O18 1.247 . S
C20 O19 1.208 . S
C21 O26 1.247 . S
C21 O27 1.208 . S
C22 O14 1.315 . S
C22 O17 1.279 . S
C23 O24 1.315 . S
C23 O25 1.279 . S
O24 Cd16 2.223 . S
O24 C23 1.315 . S
O25 Cd15 2.240 . S
O25 C23 1.279 . S
O26 Cd16 2.297 . S
O26 C21 1.247 . S
O27 Cd16 2.439 . S
O27 C21 1.208 . S
O28 Cd29 2.223 . S
O28 C36 1.315 . S
Cd29 O28 2.223 . S
Cd29 O32 2.297 . S
Cd29 O33 2.439 . S
Cd29 O39 2.240 . S
Cd30 O31 2.240 . S
Cd30 O38 2.223 . S
Cd30 O40 2.297 . S
Cd30 O41 2.439 . S
O31 Cd30 2.240 . S
O31 C36 1.279 . S
O32 Cd29 2.297 . S
O32 C34 1.247 . S
O33 Cd29 2.439 . S
O33 C34 1.208 . S
C34 O32 1.247 . S
C34 O33 1.208 . S
C35 O40 1.247 . S
C35 O41 1.208 . S
C36 O28 1.315 . S
C36 O31 1.279 . S
C37 O38 1.315 . S
C37 O39 1.279 . S
O38 Cd30 2.223 . S
O38 C37 1.315 . S
O39 Cd29 2.240 . S
O39 C37 1.279 . S
O40 Cd30 2.297 . S
O40 C35 1.247 . S
O41 Cd30 2.439 . S
O41 C35 1.208 . S
O42 Cd43 2.223 . S
O42 C50 1.315 . S
Cd43 O42 2.223 . S
Cd43 O46 2.297 . S
Cd43 O47 2.439 . S
Cd43 O53 2.240 . S
Cd44 O45 2.240 . S
Cd44 O52 2.223 . S
Cd44 O54 2.297 1_554 S
Cd44 O55 2.439 1_554 S
O45 Cd44 2.240 . S
O45 C50 1.279 . S
O46 Cd43 2.297 . S
O46 C48 1.247 . S
O47 Cd43 2.439 . S
O47 C48 1.208 . S
C48 O46 1.247 . S
C48 O47 1.208 . S
C49 O54 1.247 . S
C49 O55 1.208 . S
C50 O42 1.315 . S
C50 O45 1.279 . S
C51 O52 1.315 . S
C51 O53 1.279 . S
O52 Cd44 2.223 . S
O52 C51 1.315 . S
O53 Cd43 2.240 . S
O53 C51 1.279 . S
O54 Cd44 2.297 1_556 S
O54 C49 1.247 . S
O55 Cd44 2.439 1_556 S
O55 C49 1.208 . S
O56 Cd57 2.223 . S
O56 C64 1.315 . S
Cd57 O56 2.223 . S
Cd57 O60 2.297 . S
Cd57 O61 2.439 . S
Cd57 O67 2.240 1_556 S
Cd58 O59 2.240 1_554 S
Cd58 O66 2.223 . S
Cd58 O68 2.297 . S
Cd58 O69 2.439 . S
O59 Cd58 2.240 1_556 S
O59 C64 1.279 . S
O60 Cd57 2.297 . S
O60 C62 1.247 . S
O61 Cd57 2.439 . S
O61 C62 1.208 . S
C62 O60 1.247 . S
C62 O61 1.208 . S
C63 O68 1.247 . S
C63 O69 1.208 . S
C64 O56 1.315 . S
C64 O59 1.279 . S
C65 O66 1.315 . S
C65 O67 1.279 . S
O66 Cd58 2.223 . S
O66 C65 1.315 . S
O67 Cd57 2.240 1_554 S
O67 C65 1.279 . S
O68 Cd58 2.297 . S
O68 C63 1.247 . S
O69 Cd58 2.439 . S
O69 C63 1.208 . S
O70 Cd71 2.223 . S
O70 C78 1.315 . S
Cd71 O70 2.223 . S
Cd71 O74 2.297 . S
Cd71 O75 2.439 . S
Cd71 O81 2.240 . S
Cd72 O73 2.240 . S
Cd72 O80 2.223 . S
Cd72 O82 2.297 . S
Cd72 O83 2.439 . S
O73 Cd72 2.240 . S
O73 C78 1.279 . S
O74 Cd71 2.297 . S
O74 C76 1.247 . S
O75 Cd71 2.439 . S
O75 C76 1.208 . S
C76 O74 1.247 . S
C76 O75 1.208 . S
C77 O82 1.247 . S
C77 O83 1.208 . S
C78 O70 1.315 . S
C78 O73 1.279 . S
C79 O80 1.315 . S
C79 O81 1.279 . S
O80 Cd72 2.223 . S
O80 C79 1.315 . S
O81 Cd71 2.240 . S
O81 C79 1.279 . S
O82 Cd72 2.297 . S
O82 C77 1.247 . S
O83 Cd72 2.439 . S
O83 C77 1.208 . S
O84 Cd85 2.223 . S
O84 C92 1.315 . S
Cd85 O84 2.223 . S
Cd85 O88 2.297 . S
Cd85 O89 2.439 . S
Cd85 O95 2.240 . S
Cd86 O87 2.240 . S
Cd86 O94 2.223 . S
Cd86 O96 2.297 . S
Cd86 O97 2.439 . S
O87 Cd86 2.240 . S
O87 C92 1.279 . S
O88 Cd85 2.297 . S
O88 C90 1.247 . S
O89 Cd85 2.439 . S
O89 C90 1.208 . S
C90 O88 1.247 . S
C90 O89 1.208 . S
C91 O96 1.247 . S
C91 O97 1.208 . S
C92 O84 1.315 . S
C92 O87 1.279 . S
C93 O94 1.315 . S
C93 O95 1.279 . S
O94 Cd86 2.223 . S
O94 C93 1.315 . S
O95 Cd85 2.240 . S
O95 C93 1.279 . S
O96 Cd86 2.297 . S
O96 C91 1.247 . S
O97 Cd86 2.439 . S
O97 C91 1.208 . S
O98 Cd99 2.223 . S
O98 C106 1.315 . S
Cd99 O98 2.223 . S
Cd99 O102 2.297 . S
Cd99 O103 2.439 . S
Cd99 O109 2.240 . S
Cd100 O101 2.240 . S
Cd100 O108 2.223 . S
Cd100 O110 2.297 . S
Cd100 O111 2.439 . S
O101 Cd100 2.240 . S
O101 C106 1.279 . S
O102 Cd99 2.297 . S
O102 C104 1.247 . S
O103 Cd99 2.439 . S
O103 C104 1.208 . S
C104 O102 1.247 . S
C104 O103 1.208 . S
C105 O110 1.247 . S
C105 O111 1.208 . S
C106 O98 1.315 . S
C106 O101 1.279 . S
C107 O108 1.315 . S
C107 O109 1.279 . S
O108 Cd100 2.223 . S
O108 C107 1.315 . S
O109 Cd99 2.240 . S
O109 C107 1.279 . S
O110 Cd100 2.297 . S
O110 C105 1.247 . S
O111 Cd100 2.439 . S
O111 C105 1.208 . S
O112 Cd113 2.223 . S
O112 C120 1.315 . S
Cd113 O112 2.223 . S
Cd113 O116 2.297 . S
Cd113 O117 2.439 . S
Cd113 O123 2.240 . S
Cd114 O115 2.240 . S
Cd114 O122 2.223 . S
Cd114 O124 2.297 . S
Cd114 O125 2.439 . S
O115 Cd114 2.240 . S
O115 C120 1.279 . S
O116 Cd113 2.297 . S
O116 C118 1.247 . S
O117 Cd113 2.439 . S
O117 C118 1.208 . S
C118 O116 1.247 . S
C118 O117 1.208 . S
C119 O124 1.247 . S
C119 O125 1.208 . S
C120 O112 1.315 . S
C120 O115 1.279 . S
C121 O122 1.315 . S
C121 O123 1.279 . S
O122 Cd114 2.223 . S
O122 C121 1.315 . S
O123 Cd113 2.240 . S
O123 C121 1.279 . S
O124 Cd114 2.297 . S
O124 C119 1.247 . S
O125 Cd114 2.439 . S
O125 C119 1.208 . S
O126 Cd127 2.223 . S
O126 C134 1.315 . S
Cd127 O126 2.223 . S
Cd127 O130 2.297 . S
Cd127 O131 2.439 . S
Cd127 O137 2.240 . S
Cd128 O129 2.240 . S
Cd128 O136 2.223 . S
Cd128 O138 2.297 1_554 S
Cd128 O139 2.439 1_554 S
O129 Cd128 2.240 . S
O129 C134 1.279 . S
O130 Cd127 2.297 . S
O130 C132 1.247 . S
O131 Cd127 2.439 . S
O131 C132 1.208 . S
C132 O130 1.247 . S
C132 O131 1.208 . S
C133 O138 1.247 . S
C133 O139 1.208 . S
C134 O126 1.315 . S
C134 O129 1.279 . S
C135 O136 1.315 . S
C135 O137 1.279 . S
O136 Cd128 2.223 . S
O136 C135 1.315 . S
O137 Cd127 2.240 . S
O137 C135 1.279 . S
O138 Cd128 2.297 1_556 S
O138 C133 1.247 . S
O139 Cd128 2.439 1_556 S
O139 C133 1.208 . S
O140 Cd141 2.223 . S
O140 C148 1.315 . S
Cd141 O140 2.223 . S
Cd141 O144 2.297 . S
Cd141 O145 2.439 . S
Cd141 O151 2.240 . S
Cd142 O143 2.240 . S
Cd142 O150 2.223 . S
Cd142 O152 2.297 . S
Cd142 O153 2.439 . S
O143 Cd142 2.240 . S
O143 C148 1.279 . S
O144 Cd141 2.297 . S
O144 C146 1.247 . S
O145 Cd141 2.439 . S
O145 C146 1.208 . S
C146 O144 1.247 . S
C146 O145 1.208 . S
C147 O152 1.247 . S
C147 O153 1.208 . S
C148 O140 1.315 . S
C148 O143 1.279 . S
C149 O150 1.315 . S
C149 O151 1.279 . S
O150 Cd142 2.223 . S
O150 C149 1.315 . S
O151 Cd141 2.240 . S
O151 C149 1.279 . S
O152 Cd142 2.297 . S
O152 C147 1.247 . S
O153 Cd142 2.439 . S
O153 C147 1.208 . S
O154 Cd155 2.223 . S
O154 C162 1.315 . S
Cd155 O154 2.223 . S
Cd155 O158 2.297 . S
Cd155 O159 2.439 . S
Cd155 O165 2.240 . S
Cd156 O157 2.240 . S
Cd156 O164 2.223 . S
Cd156 O166 2.297 . S
Cd156 O167 2.439 . S
O157 Cd156 2.240 . S
O157 C162 1.279 . S
O158 Cd155 2.297 . S
O158 C160 1.247 . S
O159 Cd155 2.439 . S
O159 C160 1.208 . S
C160 O158 1.247 . S
C160 O159 1.208 . S
C161 O166 1.247 . S
C161 O167 1.208 . S
C162 O154 1.315 . S
C162 O157 1.279 . S
C163 O164 1.315 . S
C163 O165 1.279 . S
O164 Cd156 2.223 . S
O164 C163 1.315 . S
O165 Cd155 2.240 . S
O165 C163 1.279 . S
O166 Cd156 2.297 . S
O166 C161 1.247 . S
O167 Cd156 2.439 . S
O167 C161 1.208 . S
O168 Cd169 2.223 . S
O168 C176 1.315 . S
Cd169 O168 2.223 . S
Cd169 O172 2.297 . S
Cd169 O173 2.439 . S
Cd169 O179 2.240 . S
Cd170 O171 2.240 . S
Cd170 O178 2.223 . S
Cd170 O180 2.297 . S
Cd170 O181 2.439 . S
O171 Cd170 2.240 . S
O171 C176 1.279 . S
O172 Cd169 2.297 . S
O172 C174 1.247 . S
O173 Cd169 2.439 . S
O173 C174 1.208 . S
C174 O172 1.247 . S
C174 O173 1.208 . S
C175 O180 1.247 . S
C175 O181 1.208 . S
C176 O168 1.315 . S
C176 O171 1.279 . S
C177 O178 1.315 . S
C177 O179 1.279 . S
O178 Cd170 2.223 . S
O178 C177 1.315 . S
O179 Cd169 2.240 . S
O179 C177 1.279 . S
O180 Cd170 2.297 . S
O180 C175 1.247 . S
O181 Cd170 2.439 . S
O181 C175 1.208 . S
O182 Cd183 2.223 . S
O182 C190 1.315 . S
Cd183 O182 2.223 . S
Cd183 O186 2.297 . S
Cd183 O187 2.439 . S
Cd183 O193 2.240 . S
Cd184 O185 2.240 . S
Cd184 O192 2.223 . S
Cd184 O194 2.297 . S
Cd184 O195 2.439 . S
O185 Cd184 2.240 . S
O185 C190 1.279 . S
O186 Cd183 2.297 . S
O186 C188 1.247 . S
O187 Cd183 2.439 . S
O187 C188 1.208 . S
C188 O186 1.247 . S
C188 O187 1.208 . S
C189 O194 1.247 . S
C189 O195 1.208 . S
C190 O182 1.315 . S
C190 O185 1.279 . S
C191 O192 1.315 . S
C191 O193 1.279 . S
O192 Cd184 2.223 . S
O192 C191 1.315 . S
O193 Cd183 2.240 . S
O193 C191 1.279 . S
O194 Cd184 2.297 . S
O194 C189 1.247 . S
O195 Cd184 2.439 . S
O195 C189 1.208 . S
O196 Cd197 2.223 . S
O196 C204 1.315 . S
Cd197 O196 2.223 . S
Cd197 O200 2.297 . S
Cd197 O201 2.439 . S
Cd197 O207 2.240 1_556 S
Cd198 O199 2.240 1_554 S
Cd198 O206 2.223 . S
Cd198 O208 2.297 . S
Cd198 O209 2.439 . S
O199 Cd198 2.240 1_556 S
O199 C204 1.279 . S
O200 Cd197 2.297 . S
O200 C202 1.247 . S
O201 Cd197 2.439 . S
O201 C202 1.208 . S
C202 O200 1.247 . S
C202 O201 1.208 . S
C203 O208 1.247 . S
C203 O209 1.208 . S
C204 O196 1.315 . S
C204 O199 1.279 . S
C205 O206 1.315 . S
C205 O207 1.279 . S
O206 Cd198 2.223 . S
O206 C205 1.315 . S
O207 Cd197 2.240 1_554 S
O207 C205 1.279 . S
O208 Cd198 2.297 . S
O208 C203 1.247 . S
O209 Cd198 2.439 . S
O209 C203 1.208 . S
O210 Cd211 2.223 . S
O210 C218 1.315 . S
Cd211 O210 2.223 . S
Cd211 O214 2.297 . S
Cd211 O215 2.439 . S
Cd211 O221 2.240 . S
Cd212 O213 2.240 . S
Cd212 O220 2.223 . S
Cd212 O222 2.297 . S
Cd212 O223 2.439 . S
O213 Cd212 2.240 . S
O213 C218 1.279 . S
O214 Cd211 2.297 . S
O214 C216 1.247 . S
O215 Cd211 2.439 . S
O215 C216 1.208 . S
C216 O214 1.247 . S
C216 O215 1.208 . S
C217 O222 1.247 . S
C217 O223 1.208 . S
C218 O210 1.315 . S
C218 O213 1.279 . S
C219 O220 1.315 . S
C219 O221 1.279 . S
O220 Cd212 2.223 . S
O220 C219 1.315 . S
O221 Cd211 2.240 . S
O221 C219 1.279 . S
O222 Cd212 2.297 . S
O222 C217 1.247 . S
O223 Cd212 2.439 . S
O223 C217 1.208 . S
C224 C225 1.387 . S
C224 H228 0.938 1_545 S
C224 C233 1.390 . S
C225 C224 1.387 . S
C225 C227 1.387 . S
H226 C233 0.939 1_565 S
C227 C225 1.387 . S
C227 C229 1.390 . S
C227 H231 0.950 . S
H228 C224 0.938 1_565 S
C229 C227 1.390 . S
C229 C230 1.387 . S
C229 H232 0.950 . S
C230 C229 1.387 . S
C230 C233 1.387 . S
H231 C227 0.950 . S
H232 C229 0.950 . S
C233 C224 1.390 . S
C233 H226 0.939 1_545 S
C233 C230 1.387 . S
C234 C235 1.387 . S
C234 H238 0.938 1_655 S
C234 C243 1.390 . S
C235 C234 1.387 . S
C235 C237 1.387 . S
H236 C243 0.938 1_455 S
C237 C235 1.387 . S
C237 C239 1.390 . S
C237 H241 0.950 . S
H238 C234 0.938 1_455 S
C239 C237 1.390 . S
C239 C240 1.387 . S
C239 H242 0.950 . S
C240 C239 1.387 . S
C240 C243 1.387 . S
H241 C237 0.950 . S
H242 C239 0.950 . S
C243 C234 1.390 . S
C243 H236 0.938 1_655 S
C243 C240 1.387 . S
C244 C245 1.387 . S
C244 H248 0.950 . S
C244 C253 1.390 . S
C245 C244 1.387 . S
C245 C247 1.387 . S
H246 C253 0.950 . S
C247 C245 1.387 . S
C247 C249 1.390 . S
C247 H251 0.950 . S
H248 C244 0.950 . S
C249 C247 1.390 . S
C249 C250 1.387 . S
C249 H252 0.950 . S
C250 C249 1.387 . S
C250 C253 1.387 . S
H251 C247 0.950 . S
H252 C249 0.950 . S
C253 C244 1.390 . S
C253 H246 0.950 . S
C253 C250 1.387 . S
C254 C255 1.387 . S
C254 H258 0.950 . S
C254 C263 1.390 . S
C255 C254 1.387 . S
C255 C257 1.387 . S
H256 C263 0.950 . S
C257 C255 1.387 . S
C257 C259 1.390 . S
C257 H261 0.950 . S
H258 C254 0.950 . S
C259 C257 1.390 . S
C259 C260 1.387 . S
C259 H262 0.950 . S
C260 C259 1.387 . S
C260 C263 1.387 . S
H261 C257 0.950 . S
H262 C259 0.950 . S
C263 C254 1.390 . S
C263 H256 0.950 . S
C263 C260 1.387 . S
C264 C265 1.387 . S
C264 H268 0.950 . S
C264 C273 1.390 . S
C265 C264 1.387 . S
C265 C267 1.387 . S
H266 C273 0.950 . S
C267 C265 1.387 . S
C267 C269 1.390 . S
C267 H271 0.950 . S
H268 C264 0.950 . S
C269 C267 1.390 . S
C269 C270 1.387 . S
C269 H272 0.950 . S
C270 C269 1.387 . S
C270 C273 1.387 . S
H271 C267 0.950 . S
H272 C269 0.950 . S
C273 C264 1.390 . S
C273 H266 0.950 . S
C273 C270 1.387 . S
C274 C275 1.387 . S
C274 H278 0.950 . S
C274 C283 1.390 . S
C275 C274 1.387 . S
C275 C277 1.387 . S
H276 C283 0.950 . S
C277 C275 1.387 . S
C277 C279 1.390 . S
C277 H281 0.950 . S
H278 C274 0.950 . S
C279 C277 1.390 . S
C279 C280 1.387 . S
C279 H282 0.950 . S
C280 C279 1.387 . S
C280 C283 1.387 . S
H281 C277 0.950 . S
H282 C279 0.950 . S
C283 C274 1.390 . S
C283 H276 0.950 . S
C283 C280 1.387 . S
C284 C285 1.387 . S
C284 H288 0.939 1_565 S
C284 C293 1.390 . S
C285 C284 1.387 . S
C285 C287 1.387 . S
H286 C293 0.938 1_545 S
C287 C285 1.387 . S
C287 C289 1.390 . S
C287 H291 0.950 . S
H288 C284 0.939 1_545 S
C289 C287 1.390 . S
C289 C290 1.387 . S
C289 H292 0.950 . S
C290 C289 1.387 . S
C290 C293 1.387 . S
H291 C287 0.950 . S
H292 C289 0.950 . S
C293 C284 1.390 . S
C293 H286 0.938 1_565 S
C293 C290 1.387 . S
C294 C295 1.387 . S
C294 H298 0.950 . S
C294 C303 1.390 . S
C295 C294 1.387 . S
C295 C297 1.387 . S
H296 C303 0.950 . S
C297 C295 1.387 . S
C297 C299 1.390 . S
C297 H301 0.938 1_455 S
H298 C294 0.950 . S
C299 C297 1.390 . S
C299 C300 1.387 . S
C299 H302 0.939 1_455 S
C300 C299 1.387 . S
C300 C303 1.387 . S
H301 C297 0.938 1_655 S
H302 C299 0.939 1_655 S
C303 C294 1.390 . S
C303 H296 0.950 . S
C303 C300 1.387 . S
C304 C305 1.387 . S
C304 H308 0.950 . S
C304 C313 1.390 1_445 S
C305 C304 1.387 . S
C305 C307 1.387 . S
H306 C313 0.950 . S
C307 C305 1.387 . S
C307 C309 1.390 1_445 S
C307 H311 0.950 . S
H308 C304 0.950 . S
C309 C307 1.390 1_665 S
C309 C310 1.387 . S
C309 H312 0.950 . S
C310 C309 1.387 . S
C310 C313 1.387 . S
H311 C307 0.950 . S
H312 C309 0.950 . S
C313 C304 1.390 1_665 S
C313 H306 0.950 . S
C313 C310 1.387 . S
C314 C315 1.387 . S
C314 H318 0.950 . S
C314 C323 1.390 1_655 S
C315 C314 1.387 . S
C315 C317 1.387 . S
H316 C323 0.950 . S
C317 C315 1.387 . S
C317 C319 1.390 1_655 S
C317 H321 0.950 . S
H318 C314 0.950 . S
C319 C317 1.390 1_455 S
C319 C320 1.387 . S
C319 H322 0.950 . S
C320 C319 1.387 . S
C320 C323 1.387 . S
H321 C317 0.950 . S
H322 C319 0.950 . S
C323 C314 1.390 1_455 S
C323 H316 0.950 . S
C323 C320 1.387 . S
C324 C325 1.387 . S
C324 H328 0.950 . S
C324 C333 1.390 . S
C325 C324 1.387 . S
C325 C327 1.387 . S
H326 C333 0.950 . S
C327 C325 1.387 . S
C327 C329 1.390 . S
C327 H331 0.950 . S
H328 C324 0.950 . S
C329 C327 1.390 . S
C329 C330 1.387 . S
C329 H332 0.950 . S
C330 C329 1.387 . S
C330 C333 1.387 . S
H331 C327 0.950 . S
H332 C329 0.950 . S
C333 C324 1.390 . S
C333 H326 0.950 . S
C333 C330 1.387 . S
C334 C335 1.387 . S
C334 H338 0.950 1_554 S
C334 C343 1.390 1_565 S
C335 C334 1.387 . S
C335 C337 1.387 . S
H336 C343 0.950 1_556 S
C337 C335 1.387 . S
C337 C339 1.390 1_565 S
C337 H341 0.950 . S
H338 C334 0.950 1_556 S
C339 C337 1.390 1_545 S
C339 C340 1.387 . S
C339 H342 0.950 . S
C340 C339 1.387 . S
C340 C343 1.387 . S
H341 C337 0.950 . S
H342 C339 0.950 . S
C343 C334 1.390 1_545 S
C343 H336 0.950 1_554 S
C343 C340 1.387 . S
C344 C345 1.387 . S
C344 H348 0.950 . S
C344 C353 1.390 1_455 S
C345 C344 1.387 . S
C345 C347 1.387 1_556 S
H346 C353 0.950 . S
C347 C345 1.387 1_554 S
C347 C349 1.390 1_455 S
C347 H351 0.950 . S
H348 C344 0.950 . S
C349 C347 1.390 1_655 S
C349 C350 1.387 1_554 S
C349 H352 0.950 . S
C350 C349 1.387 1_556 S
C350 C353 1.387 . S
H351 C347 0.950 . S
H352 C349 0.950 . S
C353 C344 1.390 1_655 S
C353 H346 0.950 . S
C353 C350 1.387 . S
C354 C355 1.387 . S
C354 H358 0.950 . S
C354 C363 1.390 . S
C355 C354 1.387 . S
C355 C357 1.387 . S
H356 C363 0.950 . S
C357 C355 1.387 . S
C357 C359 1.390 . S
C357 H361 0.950 . S
H358 C354 0.950 . S
C359 C357 1.390 . S
C359 C360 1.387 . S
C359 H362 0.950 . S
C360 C359 1.387 . S
C360 C363 1.387 . S
H361 C357 0.950 . S
H362 C359 0.950 . S
C363 C354 1.390 . S
C363 H356 0.950 . S
C363 C360 1.387 . S
C364 C365 1.387 . S
C364 H368 0.950 . S
C364 C373 1.390 1_545 S
C365 C364 1.387 . S
C365 C367 1.387 . S
H366 C373 0.950 . S
C367 C365 1.387 . S
C367 C369 1.390 1_545 S
C367 H371 0.950 . S
H368 C364 0.950 . S
C369 C367 1.390 1_565 S
C369 C370 1.387 . S
C369 H372 0.950 . S
C370 C369 1.387 . S
C370 C373 1.387 . S
H371 C367 0.950 . S
H372 C369 0.950 . S
C373 C364 1.390 1_565 S
C373 H366 0.950 . S
C373 C370 1.387 . S
C374 C375 1.387 . S
C374 H378 0.950 . S
C374 C383 1.390 1_445 S
C375 C374 1.387 . S
C375 C377 1.387 . S
H376 C383 0.950 . S
C377 C375 1.387 . S
C377 C379 1.390 1_445 S
C377 H381 0.950 . S
H378 C374 0.950 . S
C379 C377 1.390 1_665 S
C379 C380 1.387 . S
C379 H382 0.950 . S
C380 C379 1.387 . S
C380 C383 1.387 . S
H381 C377 0.950 . S
H382 C379 0.950 . S
C383 C374 1.390 1_665 S
C383 H376 0.950 . S
C383 C380 1.387 . S
C384 C385 1.387 . S
C384 H388 0.950 . S
C384 C393 1.390 . S
C385 C384 1.387 . S
C385 C387 1.387 . S
H386 C393 0.950 . S
C387 C385 1.387 . S
C387 C389 1.390 . S
C387 H391 0.950 . S
H388 C384 0.950 . S
C389 C387 1.390 . S
C389 C390 1.387 . S
C389 H392 0.950 . S
C390 C389 1.387 . S
C390 C393 1.387 . S
H391 C387 0.950 . S
H392 C389 0.950 . S
C393 C384 1.390 . S
C393 H386 0.950 . S
C393 C390 1.387 . S
C394 C395 1.387 . S
C394 H398 0.950 . S
C394 C403 1.390 . S
C395 C394 1.387 . S
C395 C397 1.387 . S
H396 C403 0.950 . S
C397 C395 1.387 . S
C397 C399 1.390 . S
C397 H401 0.950 . S
H398 C394 0.950 . S
C399 C397 1.390 . S
C399 C400 1.387 . S
C399 H402 0.950 . S
C400 C399 1.387 . S
C400 C403 1.387 . S
H401 C397 0.950 . S
H402 C399 0.950 . S
C403 C394 1.390 . S
C403 H396 0.950 . S
C403 C400 1.387 . S
C404 C405 1.387 . S
C404 H408 0.950 . S
C404 C413 1.390 . S
C405 C404 1.387 . S
C405 C407 1.387 . S
H406 C413 0.950 1_556 S
C407 C405 1.387 . S
C407 C409 1.390 . S
C407 H411 0.950 . S
H408 C404 0.950 . S
C409 C407 1.390 . S
C409 C410 1.387 1_554 S
C409 H412 0.950 1_554 S
C410 C409 1.387 1_556 S
C410 C413 1.387 1_556 S
H411 C407 0.950 . S
H412 C409 0.950 1_556 S
C413 C404 1.390 . S
C413 H406 0.950 1_554 S
C413 C410 1.387 1_554 S
C414 C415 1.387 . S
C414 H418 0.950 . S
C414 C423 1.390 . S
C415 C414 1.387 . S
C415 C417 1.387 . S
H416 C423 0.950 . S
C417 C415 1.387 . S
C417 C419 1.390 . S
C417 H421 0.950 . S
H418 C414 0.950 . S
C419 C417 1.390 . S
C419 C420 1.387 . S
C419 H422 0.950 . S
C420 C419 1.387 . S
C420 C423 1.387 . S
H421 C417 0.950 . S
H422 C419 0.950 . S
C423 C414 1.390 . S
C423 H416 0.950 . S
C423 C420 1.387 . S
C424 C425 1.387 . S
C424 H428 0.950 . S
C424 C433 1.390 . S
C425 C424 1.387 . S
C425 C427 1.387 . S
H426 C433 0.950 . S
C427 C425 1.387 . S
C427 C429 1.390 . S
C427 H431 0.950 . S
H428 C424 0.950 . S
C429 C427 1.390 . S
C429 C430 1.387 . S
C429 H432 0.950 . S
C430 C429 1.387 . S
C430 C433 1.387 . S
H431 C427 0.950 . S
H432 C429 0.950 . S
C433 C424 1.390 . S
C433 H426 0.950 . S
C433 C430 1.387 . S
C434 C435 1.387 . S
C434 H438 0.950 . S
C434 C443 1.390 1_554 S
C435 C434 1.387 . S
C435 C437 1.387 . S
H436 C443 0.950 . S
C437 C435 1.387 . S
C437 C439 1.390 . S
C437 H441 0.950 . S
H438 C434 0.950 . S
C439 C437 1.390 . S
C439 C440 1.387 1_554 S
C439 H442 0.950 1_554 S
C440 C439 1.387 1_556 S
C440 C443 1.387 . S
H441 C437 0.950 . S
H442 C439 0.950 1_556 S
C443 C434 1.390 1_556 S
C443 H436 0.950 . S
C443 C440 1.387 . S
C444 C445 1.387 . S
C444 H448 0.950 . S
C444 C453 1.390 . S
C445 C444 1.387 . S
C445 C447 1.387 . S
H446 C453 0.950 . S
C447 C445 1.387 . S
C447 C449 1.390 . S
C447 H451 0.950 . S
H448 C444 0.950 . S
C449 C447 1.390 . S
C449 C450 1.387 . S
C449 H452 0.950 . S
C450 C449 1.387 . S
C450 C453 1.387 . S
H451 C447 0.950 . S
H452 C449 0.950 . S
C453 C444 1.390 . S
C453 H446 0.950 . S
C453 C450 1.387 . S
C454 C455 1.387 . S
C454 H458 0.950 . S
C454 C463 1.390 . S
C455 C454 1.387 . S
C455 C457 1.387 . S
H456 C463 0.950 . S
C457 C455 1.387 . S
C457 C459 1.390 . S
C457 H461 0.950 . S
H458 C454 0.950 . S
C459 C457 1.390 . S
C459 C460 1.387 . S
C459 H462 0.950 . S
C460 C459 1.387 . S
C460 C463 1.387 . S
H461 C457 0.950 . S
H462 C459 0.950 . S
C463 C454 1.390 . S
C463 H456 0.950 . S
C463 C460 1.387 . S
C464 C465 1.387 1_554 S
C464 H468 0.950 1_554 S
C464 C473 1.390 . S
C465 C464 1.387 1_556 S
C465 C467 1.387 1_556 S
H466 C473 0.950 . S
C467 C465 1.387 1_554 S
C467 C469 1.390 . S
C467 H471 0.950 1_554 S
H468 C464 0.950 1_556 S
C469 C467 1.390 . S
C469 C470 1.387 . S
C469 H472 0.950 . S
C470 C469 1.387 . S
C470 C473 1.387 . S
H471 C467 0.950 1_556 S
H472 C469 0.950 . S
C473 C464 1.390 . S
C473 H466 0.950 . S
C473 C470 1.387 . S
C474 C475 1.387 . S
C474 H478 0.950 . S
C474 C483 1.390 . S
C475 C474 1.387 . S
C475 C477 1.387 . S
H476 C483 0.950 . S
C477 C475 1.387 . S
C477 C479 1.390 . S
C477 H481 0.950 . S
H478 C474 0.950 . S
C479 C477 1.390 . S
C479 C480 1.387 . S
C479 H482 0.950 . S
C480 C479 1.387 . S
C480 C483 1.387 . S
H481 C477 0.950 . S
H482 C479 0.950 . S
C483 C474 1.390 . S
C483 H476 0.950 . S
C483 C480 1.387 . S
C484 C485 1.387 . S
C484 H488 0.950 . S
C484 C493 1.390 . S
C485 C484 1.387 . S
C485 C487 1.387 . S
H486 C493 0.950 . S
C487 C485 1.387 . S
C487 C489 1.390 . S
C487 H491 0.950 . S
H488 C484 0.950 . S
C489 C487 1.390 . S
C489 C490 1.387 . S
C489 H492 0.950 . S
C490 C489 1.387 . S
C490 C493 1.387 . S
H491 C487 0.950 . S
H492 C489 0.950 . S
C493 C484 1.390 . S
C493 H486 0.950 . S
C493 C490 1.387 . S
C494 C495 1.387 . S
C494 H498 0.950 . S
C494 C503 1.390 . S
C495 C494 1.387 . S
C495 C497 1.387 . S
H496 C503 0.950 . S
C497 C495 1.387 . S
C497 C499 1.390 . S
C497 H501 0.950 . S
H498 C494 0.950 . S
C499 C497 1.390 . S
C499 C500 1.387 . S
C499 H502 0.950 . S
C500 C499 1.387 . S
C500 C503 1.387 . S
H501 C497 0.950 . S
H502 C499 0.950 . S
C503 C494 1.390 . S
C503 H496 0.950 . S
C503 C500 1.387 . S
C504 C505 1.387 . S
C504 H508 0.950 . S
C504 C513 1.390 . S
C505 C504 1.387 . S
C505 C507 1.387 . S
H506 C513 0.950 . S
C507 C505 1.387 . S
C507 C509 1.390 . S
C507 H511 0.950 . S
H508 C504 0.950 . S
C509 C507 1.390 . S
C509 C510 1.387 . S
C509 H512 0.950 . S
C510 C509 1.387 . S
C510 C513 1.387 . S
H511 C507 0.950 . S
H512 C509 0.950 . S
C513 C504 1.390 . S
C513 H506 0.950 . S
C513 C510 1.387 . S
C514 C515 1.387 . S
C514 H518 0.950 . S
C514 C523 1.390 . S
C515 C514 1.387 . S
C515 C517 1.387 . S
H516 C523 0.950 . S
C517 C515 1.387 . S
C517 C519 1.390 . S
C517 H521 0.950 . S
H518 C514 0.950 . S
C519 C517 1.390 . S
C519 C520 1.387 . S
C519 H522 0.950 . S
C520 C519 1.387 . S
C520 C523 1.387 . S
H521 C517 0.950 . S
H522 C519 0.950 . S
C523 C514 1.390 . S
C523 H516 0.950 . S
C523 C520 1.387 . S
C524 C525 1.387 . S
C524 H528 0.950 . S
C524 C533 1.390 . S
C525 C524 1.387 . S
C525 C527 1.387 . S
H526 C533 0.950 . S
C527 C525 1.387 . S
C527 C529 1.390 . S
C527 H531 0.950 . S
H528 C524 0.950 . S
C529 C527 1.390 . S
C529 C530 1.387 . S
C529 H532 0.950 . S
C530 C529 1.387 . S
C530 C533 1.387 . S
H531 C527 0.950 . S
H532 C529 0.950 . S
C533 C524 1.390 . S
C533 H526 0.950 . S
C533 C530 1.387 . S
C534 C535 1.387 . S
C534 H538 0.950 . S
C534 C543 1.390 . S
C535 C534 1.387 . S
C535 C537 1.387 . S
H536 C543 0.950 1_556 S
C537 C535 1.387 . S
C537 C539 1.390 . S
C537 H541 0.950 . S
H538 C534 0.950 . S
C539 C537 1.390 . S
C539 C540 1.387 1_554 S
C539 H542 0.950 1_554 S
C540 C539 1.387 1_556 S
C540 C543 1.387 1_556 S
H541 C537 0.950 . S
H542 C539 0.950 1_556 S
C543 C534 1.390 . S
C543 H536 0.950 1_554 S
C543 C540 1.387 1_554 S
C225 C90 1.431 . S
C230 C6 1.431 . S
C235 C104 1.431 . S
C240 C20 1.431 . S
C245 C34 1.431 . S
C250 C62 1.431 . S
C255 C48 1.431 . S
C260 C76 1.431 . S
C265 C118 1.434 . S
C270 C202 1.434 . S
C275 C216 1.434 . S
C280 C132 1.434 . S
C285 C146 1.431 . S
C290 C174 1.431 . S
C295 C160 1.434 . S
C300 C188 1.434 . S
C305 C9 1.371 . S
C310 C149 1.371 . S
C315 C23 1.367 . S
C320 C163 1.367 . S
C325 C37 1.371 . S
C330 C121 1.371 . S
C335 C51 1.367 . S
C340 C135 1.367 . S
C345 C65 1.371 1_556 S
C350 C205 1.371 1_556 S
C355 C219 1.371 . S
C360 C79 1.371 . S
C365 C93 1.371 . S
C370 C177 1.371 . S
C375 C191 1.367 . S
C380 C107 1.367 . S
C385 C190 1.034 . S
C390 C8 1.035 . S
C395 C22 1.034 . S
C400 C204 1.035 . S
C405 C218 1.037 . S
C410 C36 1.037 . S
C415 C176 1.037 . S
C420 C50 1.037 . S
C425 C162 1.036 . S
C430 C64 1.036 . S
C435 C78 1.034 . S
C440 C120 1.035 . S
C445 C92 1.032 . S
C450 C134 1.033 . S
C455 C106 1.032 . S
C460 C148 1.032 . S
C465 C189 1.508 . S
C470 C7 1.508 . S
C475 C21 1.508 . S
C480 C203 1.508 . S
C485 C35 1.508 . S
C490 C217 1.508 . S
C495 C175 1.508 . S
C500 C49 1.508 . S
C505 C161 1.508 . S
C510 C63 1.508 . S
C515 C119 1.509 . S
C520 C77 1.508 . S
C525 C91 1.508 . S
C530 C133 1.508 . S
C535 C147 1.509 . S
C540 C105 1.509 . S
