# Generated by pormake.
# Topology vcd, (5)-cn, num edge types: 1
# Building blocks:
#     Node 0, Type 0, BuildingBlock: BEQFEK_clean_sbu_0, # of connection points: 5
#     Node 1, Type 0, BuildingBlock: BEQFEK_clean_sbu_0, # of connection points: 5
#     Node 2, Type 0, BuildingBlock: BEQFEK_clean_sbu_0, # of connection points: 5
#     Node 3, Type 0, BuildingBlock: BEQFEK_clean_sbu_0, # of connection points: 5
#     Node 4, Type 0, BuildingBlock: BEQFEK_clean_sbu_0, # of connection points: 5
#     Node 5, Type 0, BuildingBlock: BEQFEK_clean_sbu_0, # of connection points: 5
#     Node 6, Type 0, BuildingBlock: BEQFEK_clean_sbu_0, # of connection points: 5
#     Node 7, Type 0, BuildingBlock: BEQFEK_clean_sbu_0, # of connection points: 5
#     Node 8, Type 0, BuildingBlock: BEQFEK_clean_sbu_0, # of connection points: 5
#     Node 9, Type 0, BuildingBlock: BEQFEK_clean_sbu_0, # of connection points: 5
#     Node 10, Type 0, BuildingBlock: BEQFEK_clean_sbu_0, # of connection points: 5
#     Node 11, Type 0, BuildingBlock: BEQFEK_clean_sbu_0, # of connection points: 5
#     Node 12, Type 0, BuildingBlock: BEQFEK_clean_sbu_0, # of connection points: 5
#     Node 13, Type 0, BuildingBlock: BEQFEK_clean_sbu_0, # of connection points: 5
#     Node 14, Type 0, BuildingBlock: BEQFEK_clean_sbu_0, # of connection points: 5
#     Node 15, Type 0, BuildingBlock: BEQFEK_clean_sbu_0, # of connection points: 5
#     Node 16, Type 0, BuildingBlock: BEQFEK_clean_sbu_0, # of connection points: 5
#     Node 17, Type 0, BuildingBlock: BEQFEK_clean_sbu_0, # of connection points: 5
#     Node 18, Type 0, BuildingBlock: BEQFEK_clean_sbu_0, # of connection points: 5
#     Node 19, Type 0, BuildingBlock: BEQFEK_clean_sbu_0, # of connection points: 5
#     Node 20, Type 0, BuildingBlock: BEQFEK_clean_sbu_0, # of connection points: 5
#     Node 21, Type 0, BuildingBlock: BEQFEK_clean_sbu_0, # of connection points: 5
#     Node 22, Type 0, BuildingBlock: BEQFEK_clean_sbu_0, # of connection points: 5
#     Node 23, Type 0, BuildingBlock: BEQFEK_clean_sbu_0, # of connection points: 5
#     Node 24, Type 0, BuildingBlock: BEQFEK_clean_sbu_0, # of connection points: 5
#     Node 25, Type 0, BuildingBlock: BEQFEK_clean_sbu_0, # of connection points: 5
#     Node 26, Type 0, BuildingBlock: BEQFEK_clean_sbu_0, # of connection points: 5
#     Node 27, Type 0, BuildingBlock: BEQFEK_clean_sbu_0, # of connection points: 5
#     Node 28, Type 0, BuildingBlock: BEQFEK_clean_sbu_0, # of connection points: 5
#     Node 29, Type 0, BuildingBlock: BEQFEK_clean_sbu_0, # of connection points: 5
#     Node 30, Type 0, BuildingBlock: BEQFEK_clean_sbu_0, # of connection points: 5
#     Node 31, Type 0, BuildingBlock: BEQFEK_clean_sbu_0, # of connection points: 5
#     Edge 32, Type (0, 0), BuildingBlock: UVAHIK_clean_linker_0, # of connection points: 2
#     Edge 33, Type (0, 0), BuildingBlock: UVAHIK_clean_linker_0, # of connection points: 2
#     Edge 34, Type (0, 0), BuildingBlock: UVAHIK_clean_linker_0, # of connection points: 2
#     Edge 35, Type (0, 0), BuildingBlock: UVAHIK_clean_linker_0, # of connection points: 2
#     Edge 36, Type (0, 0), BuildingBlock: UVAHIK_clean_linker_0, # of connection points: 2
#     Edge 37, Type (0, 0), BuildingBlock: UVAHIK_clean_linker_0, # of connection points: 2
#     Edge 38, Type (0, 0), BuildingBlock: UVAHIK_clean_linker_0, # of connection points: 2
#     Edge 39, Type (0, 0), BuildingBlock: UVAHIK_clean_linker_0, # of connection points: 2
#     Edge 40, Type (0, 0), BuildingBlock: UVAHIK_clean_linker_0, # of connection points: 2
#     Edge 41, Type (0, 0), BuildingBlock: UVAHIK_clean_linker_0, # of connection points: 2
#     Edge 42, Type (0, 0), BuildingBlock: UVAHIK_clean_linker_0, # of connection points: 2
#     Edge 43, Type (0, 0), BuildingBlock: UVAHIK_clean_linker_0, # of connection points: 2
#     Edge 44, Type (0, 0), BuildingBlock: UVAHIK_clean_linker_0, # of connection points: 2
#     Edge 45, Type (0, 0), BuildingBlock: UVAHIK_clean_linker_0, # of connection points: 2
#     Edge 46, Type (0, 0), BuildingBlock: UVAHIK_clean_linker_0, # of connection points: 2
#     Edge 47, Type (0, 0), BuildingBlock: UVAHIK_clean_linker_0, # of connection points: 2
#     Edge 48, Type (0, 0), BuildingBlock: UVAHIK_clean_linker_0, # of connection points: 2
#     Edge 49, Type (0, 0), BuildingBlock: UVAHIK_clean_linker_0, # of connection points: 2
#     Edge 50, Type (0, 0), BuildingBlock: UVAHIK_clean_linker_0, # of connection points: 2
#     Edge 51, Type (0, 0), BuildingBlock: UVAHIK_clean_linker_0, # of connection points: 2
#     Edge 52, Type (0, 0), BuildingBlock: UVAHIK_clean_linker_0, # of connection points: 2
#     Edge 53, Type (0, 0), BuildingBlock: UVAHIK_clean_linker_0, # of connection points: 2
#     Edge 54, Type (0, 0), BuildingBlock: UVAHIK_clean_linker_0, # of connection points: 2
#     Edge 55, Type (0, 0), BuildingBlock: UVAHIK_clean_linker_0, # of connection points: 2
#     Edge 56, Type (0, 0), BuildingBlock: UVAHIK_clean_linker_0, # of connection points: 2
#     Edge 57, Type (0, 0), BuildingBlock: UVAHIK_clean_linker_0, # of connection points: 2
#     Edge 58, Type (0, 0), BuildingBlock: UVAHIK_clean_linker_0, # of connection points: 2
#     Edge 59, Type (0, 0), BuildingBlock: UVAHIK_clean_linker_0, # of connection points: 2
#     Edge 60, Type (0, 0), BuildingBlock: UVAHIK_clean_linker_0, # of connection points: 2
#     Edge 61, Type (0, 0), BuildingBlock: UVAHIK_clean_linker_0, # of connection points: 2
#     Edge 62, Type (0, 0), BuildingBlock: UVAHIK_clean_linker_0, # of connection points: 2
#     Edge 63, Type (0, 0), BuildingBlock: UVAHIK_clean_linker_0, # of connection points: 2
#     Edge 64, Type (0, 0), BuildingBlock: UVAHIK_clean_linker_0, # of connection points: 2
#     Edge 65, Type (0, 0), BuildingBlock: UVAHIK_clean_linker_0, # of connection points: 2
#     Edge 66, Type (0, 0), BuildingBlock: UVAHIK_clean_linker_0, # of connection points: 2
#     Edge 67, Type (0, 0), BuildingBlock: UVAHIK_clean_linker_0, # of connection points: 2
#     Edge 68, Type (0, 0), BuildingBlock: UVAHIK_clean_linker_0, # of connection points: 2
#     Edge 69, Type (0, 0), BuildingBlock: UVAHIK_clean_linker_0, # of connection points: 2
#     Edge 70, Type (0, 0), BuildingBlock: UVAHIK_clean_linker_0, # of connection points: 2
#     Edge 71, Type (0, 0), BuildingBlock: UVAHIK_clean_linker_0, # of connection points: 2
#     Edge 72, Type (0, 0), BuildingBlock: UVAHIK_clean_linker_0, # of connection points: 2
#     Edge 73, Type (0, 0), BuildingBlock: UVAHIK_clean_linker_0, # of connection points: 2
#     Edge 74, Type (0, 0), BuildingBlock: UVAHIK_clean_linker_0, # of connection points: 2
#     Edge 75, Type (0, 0), BuildingBlock: UVAHIK_clean_linker_0, # of connection points: 2
#     Edge 76, Type (0, 0), BuildingBlock: UVAHIK_clean_linker_0, # of connection points: 2
#     Edge 77, Type (0, 0), BuildingBlock: UVAHIK_clean_linker_0, # of connection points: 2
#     Edge 78, Type (0, 0), BuildingBlock: UVAHIK_clean_linker_0, # of connection points: 2
#     Edge 79, Type (0, 0), BuildingBlock: UVAHIK_clean_linker_0, # of connection points: 2
#     Edge 80, Type (0, 0), BuildingBlock: UVAHIK_clean_linker_0, # of connection points: 2
#     Edge 81, Type (0, 0), BuildingBlock: UVAHIK_clean_linker_0, # of connection points: 2
#     Edge 82, Type (0, 0), BuildingBlock: UVAHIK_clean_linker_0, # of connection points: 2
#     Edge 83, Type (0, 0), BuildingBlock: UVAHIK_clean_linker_0, # of connection points: 2
#     Edge 84, Type (0, 0), BuildingBlock: UVAHIK_clean_linker_0, # of connection points: 2
#     Edge 85, Type (0, 0), BuildingBlock: UVAHIK_clean_linker_0, # of connection points: 2
#     Edge 86, Type (0, 0), BuildingBlock: UVAHIK_clean_linker_0, # of connection points: 2
#     Edge 87, Type (0, 0), BuildingBlock: UVAHIK_clean_linker_0, # of connection points: 2
#     Edge 88, Type (0, 0), BuildingBlock: UVAHIK_clean_linker_0, # of connection points: 2
#     Edge 89, Type (0, 0), BuildingBlock: UVAHIK_clean_linker_0, # of connection points: 2
#     Edge 90, Type (0, 0), BuildingBlock: UVAHIK_clean_linker_0, # of connection points: 2
#     Edge 91, Type (0, 0), BuildingBlock: UVAHIK_clean_linker_0, # of connection points: 2
#     Edge 92, Type (0, 0), BuildingBlock: UVAHIK_clean_linker_0, # of connection points: 2
#     Edge 93, Type (0, 0), BuildingBlock: UVAHIK_clean_linker_0, # of connection points: 2
#     Edge 94, Type (0, 0), BuildingBlock: UVAHIK_clean_linker_0, # of connection points: 2
#     Edge 95, Type (0, 0), BuildingBlock: UVAHIK_clean_linker_0, # of connection points: 2
#     Edge 96, Type (0, 0), BuildingBlock: UVAHIK_clean_linker_0, # of connection points: 2
#     Edge 97, Type (0, 0), BuildingBlock: UVAHIK_clean_linker_0, # of connection points: 2
#     Edge 98, Type (0, 0), BuildingBlock: UVAHIK_clean_linker_0, # of connection points: 2
#     Edge 99, Type (0, 0), BuildingBlock: UVAHIK_clean_linker_0, # of connection points: 2
#     Edge 100, Type (0, 0), BuildingBlock: UVAHIK_clean_linker_0, # of connection points: 2
#     Edge 101, Type (0, 0), BuildingBlock: UVAHIK_clean_linker_0, # of connection points: 2
#     Edge 102, Type (0, 0), BuildingBlock: UVAHIK_clean_linker_0, # of connection points: 2
#     Edge 103, Type (0, 0), BuildingBlock: UVAHIK_clean_linker_0, # of connection points: 2
#     Edge 104, Type (0, 0), BuildingBlock: UVAHIK_clean_linker_0, # of connection points: 2
#     Edge 105, Type (0, 0), BuildingBlock: UVAHIK_clean_linker_0, # of connection points: 2
#     Edge 106, Type (0, 0), BuildingBlock: UVAHIK_clean_linker_0, # of connection points: 2
#     Edge 107, Type (0, 0), BuildingBlock: UVAHIK_clean_linker_0, # of connection points: 2
#     Edge 108, Type (0, 0), BuildingBlock: UVAHIK_clean_linker_0, # of connection points: 2
#     Edge 109, Type (0, 0), BuildingBlock: UVAHIK_clean_linker_0, # of connection points: 2
#     Edge 110, Type (0, 0), BuildingBlock: UVAHIK_clean_linker_0, # of connection points: 2
#     Edge 111, Type (0, 0), BuildingBlock: UVAHIK_clean_linker_0, # of connection points: 2
# Relax obj value: 0.029
# Max RMSD: 0.078
# Mean RMSD: 0.078
data_MOF--net-vcd--node1-BEQFEK_clean_sbu_0--edge1-UVAHIK_clean_linker_0
_symmetry_space_group_name_H-M    P1
_symmetry_Int_Tables_number       1
_symmetry_cell_setting            triclinic
loop_
_symmetry_equiv_pos_as_xyz
'x, y, z'
_cell_length_a     187.37106
_cell_length_b     69.533789
_cell_length_c     28.105739
_cell_angle_alpha  89.994427
_cell_angle_beta   89.994744
_cell_angle_gamma 90.005584
loop_
_atom_site_label
_atom_site_type_symbol
_atom_site_fract_x
_atom_site_fract_y
_atom_site_fract_z
_atom_type_partial_charge
Co0 Co 0.07348 0.46254 0.11995 0.0
Co1 Co 0.05666 0.46459 0.11762 0.0
C2 C 0.06511 0.44947 0.03518 0.0
O3 O 0.07103 0.4524 0.05633 0.0
O4 O 0.05917 0.45359 0.05478 0.0
C5 C 0.08821 0.46666 0.0906 0.0
O6 O 0.08552 0.46773 0.04752 0.0
C7 C 0.04216 0.47409 0.08455 0.0
C8 C 0.03597 0.4717 0.15121 0.0
C9 C 0.0353 0.47569 0.10309 0.0
N10 N 0.04663 0.4693 0.12007 0.0
N11 N 0.04289 0.46784 0.15977 0.0
C12 C 0.04458 0.47819 0.03484 0.0
H13 H 0.05023 0.48295 0.03481 0.0
H14 H 0.04119 0.48941 0.01817 0.0
H15 H 0.04419 0.46483 0.01342 0.0
C16 C 0.07164 0.50437 0.13401 0.0
N17 N 0.06895 0.48649 0.12996 0.0
N18 N 0.06193 0.48741 0.12932 0.0
C19 C 0.05993 0.50593 0.13331 0.0
C20 C 0.066 0.51731 0.1361 0.0
C21 C 0.07942 0.50893 0.13001 0.0
H22 H 0.08238 0.50125 0.15844 0.0
H23 H 0.08143 0.50367 0.09525 0.0
H24 H 0.0805 0.52456 0.13263 0.0
O25 O 0.07048 0.44337 0.16784 0.0
O26 O 0.05866 0.4449 0.16619 0.0
H27 H 0.04919 0.50382 0.1587 0.0
H28 H 0.05193 0.52798 0.14435 0.0
C29 C 0.05234 0.51267 0.13357 0.0
H30 H 0.05004 0.51093 0.09748 0.0
H31 H 0.04507 0.46425 0.19276 0.0
O32 O 0.08403 0.46483 0.12594 0.0
C33 C 0.0644 0.43766 0.18231 0.0
Co34 Co 0.17978 0.77933 0.11882 0.0
Co35 Co 0.19653 0.77635 0.12012 0.0
C36 C 0.18868 0.79501 0.03931 0.0
O37 O 0.18262 0.79159 0.05806 0.0
O38 O 0.19446 0.78977 0.05944 0.0
C39 C 0.16518 0.7761 0.08547 0.0
O40 O 0.168 0.77633 0.04268 0.0
C41 C 0.21103 0.76716 0.08729 0.0
C42 C 0.21701 0.76618 0.15499 0.0
C43 C 0.2178 0.7642 0.10619 0.0
N44 N 0.2065 0.77081 0.12326 0.0
N45 N 0.21011 0.77026 0.1636 0.0
C46 C 0.20872 0.76508 0.03658 0.0
H47 H 0.20929 0.77915 0.01833 0.0
H48 H 0.20303 0.7607 0.03482 0.0
H49 H 0.21206 0.75429 0.01779 0.0
C50 C 0.18118 0.73733 0.13263 0.0
N51 N 0.18405 0.75489 0.12615 0.0
N52 N 0.19105 0.75348 0.12637 0.0
C53 C 0.19287 0.7349 0.13274 0.0
C54 C 0.18667 0.72405 0.137 0.0
C55 C 0.17334 0.73365 0.13743 0.0
H56 H 0.17099 0.74417 0.1626 0.0
H57 H 0.17075 0.73569 0.1023 0.0
H58 H 0.17222 0.71891 0.1505 0.0
O59 O 0.1826 0.79653 0.17131 0.0
O60 O 0.19442 0.79444 0.17278 0.0
H61 H 0.20323 0.73336 0.16438 0.0
H62 H 0.20064 0.71172 0.13305 0.0
C63 C 0.20039 0.72764 0.13274 0.0
H64 H 0.20318 0.73292 0.10054 0.0
H65 H 0.20785 0.77259 0.19707 0.0
O66 O 0.16923 0.77715 0.12163 0.0
C67 C 0.18861 0.80134 0.18886 0.0
Co68 Co 0.07426 0.77817 0.12173 0.0
Co69 Co 0.05745 0.77505 0.1246 0.0
C70 C 0.06573 0.79079 0.20675 0.0
O71 O 0.07165 0.78824 0.18521 0.0
O72 O 0.0598 0.7862 0.18764 0.0
C73 C 0.08891 0.7741 0.15238 0.0
O74 O 0.08613 0.77284 0.19518 0.0
C75 C 0.04256 0.76692 0.15394 0.0
C76 C 0.03732 0.76333 0.084 0.0
C77 C 0.03603 0.76293 0.1325 0.0
N78 N 0.04748 0.76928 0.11957 0.0
N79 N 0.0443 0.76717 0.07791 0.0
C80 C 0.04405 0.77002 0.20567 0.0
H81 H 0.04647 0.78442 0.21042 0.0
H82 H 0.04798 0.75918 0.21808 0.0
H83 H 0.03916 0.76931 0.22775 0.0
C84 C 0.07279 0.7364 0.10568 0.0
N85 N 0.06996 0.75402 0.11142 0.0
N86 N 0.06296 0.75258 0.11347 0.0
C87 C 0.06112 0.73391 0.10958 0.0
C88 C 0.06729 0.72307 0.10436 0.0
C89 C 0.08063 0.73245 0.10214 0.0
H90 H 0.08313 0.74286 0.07731 0.0
H91 H 0.0831 0.73437 0.13768 0.0
H92 H 0.08168 0.71763 0.08938 0.0
O93 O 0.07119 0.79705 0.07373 0.0
O94 O 0.05938 0.79498 0.07608 0.0
H95 H 0.05044 0.73038 0.08451 0.0
H96 H 0.05356 0.71067 0.12077 0.0
C97 C 0.05368 0.72649 0.11608 0.0
H98 H 0.05124 0.7333 0.1478 0.0
H99 H 0.04691 0.76837 0.04523 0.0
O100 O 0.0848 0.77624 0.11676 0.0
C101 C 0.06507 0.80247 0.0596 0.0
Co102 Co 0.17922 0.46394 0.11476 0.0
Co103 Co 0.19599 0.46784 0.11646 0.0
C104 C 0.18835 0.43883 0.17672 0.0
O105 O 0.18227 0.44421 0.16124 0.0
O106 O 0.1941 0.44688 0.16285 0.0
C107 C 0.16465 0.46105 0.14888 0.0
O108 O 0.16759 0.45511 0.18869 0.0
C109 C 0.21048 0.47523 0.15354 0.0
C110 C 0.21626 0.48251 0.08742 0.0
C111 C 0.21715 0.48061 0.13615 0.0
N112 N 0.20592 0.47405 0.11671 0.0
N113 N 0.20942 0.4783 0.0773 0.0
C114 C 0.20828 0.47253 0.20426 0.0
H115 H 0.20246 0.47503 0.20823 0.0
H116 H 0.21127 0.48245 0.22789 0.0
H117 H 0.20944 0.45752 0.21517 0.0
C118 C 0.18034 0.50526 0.13901 0.0
N119 N 0.18333 0.48808 0.12953 0.0
N120 N 0.19033 0.48987 0.12991 0.0
C121 C 0.19201 0.50834 0.1393 0.0
C122 C 0.18573 0.51868 0.14555 0.0
C123 C 0.17246 0.50849 0.14284 0.0
H124 H 0.1702 0.49823 0.16899 0.0
H125 H 0.17118 0.52332 0.15446 0.0
H126 H 0.16993 0.5056 0.10788 0.0
O127 O 0.1821 0.4553 0.05049 0.0
O128 O 0.1939 0.45791 0.05218 0.0
H129 H 0.20223 0.51099 0.10599 0.0
H130 H 0.19951 0.53214 0.13813 0.0
C131 C 0.19945 0.51619 0.13827 0.0
H132 H 0.2024 0.51095 0.16991 0.0
H133 H 0.20712 0.47856 0.04352 0.0
O134 O 0.16863 0.46566 0.11404 0.0
C135 C 0.18817 0.45348 0.03053 0.0
Co136 Co 0.92921 0.53023 0.87558 0.0
Co137 Co 0.94599 0.52722 0.87282 0.0
C138 C 0.93817 0.54224 0.95849 0.0
O139 O 0.93208 0.53966 0.93925 0.0
O140 O 0.94392 0.53799 0.93672 0.0
C141 C 0.91459 0.52538 0.90752 0.0
O142 O 0.9174 0.52325 0.95002 0.0
C143 C 0.96055 0.51707 0.90296 0.0
C144 C 0.96645 0.5185 0.83501 0.0
C145 C 0.96731 0.51494 0.88321 0.0
N146 N 0.95596 0.52179 0.86808 0.0
N147 N 0.95953 0.52264 0.82758 0.0
C148 C 0.95832 0.51331 0.95323 0.0
H149 H 0.95265 0.50871 0.95443 0.0
H150 H 0.96172 0.50206 0.96967 0.0
H151 H 0.95885 0.52676 0.97413 0.0
C152 C 0.93058 0.4889 0.85249 0.0
N153 N 0.93347 0.50622 0.86175 0.0
N154 N 0.94047 0.50478 0.86101 0.0
C155 C 0.94227 0.48639 0.85159 0.0
C156 C 0.93605 0.47572 0.84584 0.0
C157 C 0.92273 0.48527 0.84858 0.0
H158 H 0.92024 0.49654 0.82614 0.0
H159 H 0.9203 0.48605 0.88453 0.0
H160 H 0.92158 0.47099 0.83275 0.0
O161 O 0.93205 0.54963 0.82816 0.0
O162 O 0.94386 0.54748 0.82514 0.0
H163 H 0.95273 0.48563 0.82133 0.0
H164 H 0.95001 0.46317 0.84832 0.0
C165 C 0.94978 0.47905 0.85142 0.0
H166 H 0.95246 0.48335 0.88488 0.0
H167 H 0.95722 0.52606 0.79483 0.0
O168 O 0.91866 0.52833 0.87208 0.0
C169 C 0.93803 0.55513 0.81154 0.0
Co170 Co 0.82392 0.21114 0.86524 0.0
Co171 Co 0.80712 0.2144 0.86861 0.0
C172 C 0.81513 0.18508 0.92629 0.0
O173 O 0.82116 0.19092 0.91108 0.0
O174 O 0.80933 0.19296 0.91297 0.0
C175 C 0.8385 0.20961 0.89878 0.0
O176 O 0.83559 0.20508 0.9398 0.0
C177 C 0.7927 0.2219 0.90849 0.0
C178 C 0.78638 0.22439 0.8424 0.0
C179 C 0.78581 0.22486 0.89152 0.0
N180 N 0.79711 0.21988 0.87097 0.0
N181 N 0.79329 0.22145 0.83166 0.0
C182 C 0.79501 0.21985 0.95921 0.0
H183 H 0.80027 0.21264 0.96154 0.0
H184 H 0.79551 0.23431 0.97548 0.0
H185 H 0.79097 0.21162 0.97973 0.0
C186 C 0.82262 0.25239 0.88979 0.0
N187 N 0.8197 0.23503 0.8814 0.0
N188 N 0.8127 0.23658 0.88209 0.0
C189 C 0.81094 0.25509 0.89029 0.0
C190 C 0.81717 0.26569 0.89571 0.0
C191 C 0.83049 0.25599 0.89239 0.0
H192 H 0.83288 0.24611 0.91888 0.0
H193 H 0.83172 0.27098 0.90298 0.0
H194 H 0.83294 0.25287 0.85729 0.0
O195 O 0.82089 0.20295 0.8009 0.0
O196 O 0.80909 0.2053 0.80346 0.0
H197 H 0.80064 0.25625 0.85722 0.0
H198 H 0.80341 0.27864 0.88366 0.0
C199 C 0.80349 0.26278 0.88777 0.0
H200 H 0.8006 0.25891 0.92084 0.0
H201 H 0.79538 0.22029 0.79741 0.0
O202 O 0.8345 0.21306 0.86327 0.0
C203 C 0.8148 0.20123 0.7812 0.0
Co204 Co 0.92965 0.21555 0.8806 0.0
Co205 Co 0.9464 0.21972 0.87968 0.0
C206 C 0.93883 0.19237 0.81451 0.0
O207 O 0.93275 0.19723 0.83091 0.0
O208 O 0.94457 0.20006 0.82975 0.0
C209 C 0.91507 0.2138 0.84609 0.0
O210 O 0.91801 0.21024 0.80457 0.0
C211 C 0.96093 0.22788 0.84428 0.0
C212 C 0.96657 0.23457 0.91131 0.0
C213 C 0.96755 0.23322 0.86254 0.0
N214 N 0.95631 0.22618 0.88065 0.0
N215 N 0.95973 0.23009 0.9206 0.0
C216 C 0.95883 0.22572 0.79321 0.0
H217 H 0.95302 0.22833 0.78888 0.0
H218 H 0.96188 0.23585 0.77045 0.0
H219 H 0.95999 0.21081 0.78149 0.0
C220 C 0.93067 0.2573 0.86089 0.0
N221 N 0.93369 0.24009 0.86969 0.0
N222 N 0.94068 0.24197 0.86956 0.0
C223 C 0.94233 0.26052 0.86092 0.0
C224 C 0.93604 0.27082 0.85492 0.0
C225 C 0.9228 0.26032 0.85566 0.0
H226 H 0.92009 0.25634 0.88935 0.0
H227 H 0.92075 0.25074 0.82724 0.0
H228 H 0.92147 0.27538 0.84627 0.0
O229 O 0.93255 0.20518 0.94309 0.0
O230 O 0.94434 0.20786 0.94213 0.0
H231 H 0.95268 0.26304 0.8926 0.0
H232 H 0.94981 0.28435 0.86167 0.0
C233 C 0.94976 0.26841 0.86098 0.0
H234 H 0.9526 0.26338 0.82866 0.0
H235 H 0.95737 0.22991 0.95421 0.0
O236 O 0.91905 0.21679 0.88197 0.0
C237 C 0.9386 0.20276 0.96277 0.0
Co238 Co 0.82367 0.527 0.87615 0.0
Co239 Co 0.80687 0.52438 0.87514 0.0
C240 C 0.8149 0.5456 0.79944 0.0
O241 O 0.82089 0.54144 0.8183 0.0
O242 O 0.80904 0.53976 0.81745 0.0
C243 C 0.83826 0.52488 0.84235 0.0
O244 O 0.8354 0.52656 0.79986 0.0
C245 C 0.79225 0.51645 0.84158 0.0
C246 C 0.7865 0.51271 0.9096 0.0
C247 C 0.78555 0.51252 0.86069 0.0
N248 N 0.79689 0.51887 0.8776 0.0
N249 N 0.7934 0.5167 0.91813 0.0
C250 C 0.79439 0.51637 0.7903 0.0
H251 H 0.80009 0.51229 0.78674 0.0
H252 H 0.79104 0.50621 0.76959 0.0
H253 H 0.7937 0.53104 0.77546 0.0
C254 C 0.82211 0.48477 0.88171 0.0
N255 N 0.81931 0.50253 0.87784 0.0
N256 N 0.8123 0.50129 0.87696 0.0
C257 C 0.81042 0.48262 0.87995 0.0
C258 C 0.81657 0.47155 0.88321 0.0
C259 C 0.82992 0.48082 0.88741 0.0
H260 H 0.83218 0.4906 0.91472 0.0
H261 H 0.83267 0.48379 0.85323 0.0
H262 H 0.83096 0.46573 0.89815 0.0
O263 O 0.82083 0.54225 0.93209 0.0
O264 O 0.809 0.5406 0.93138 0.0
H265 H 0.80007 0.48003 0.9113 0.0
H266 H 0.80261 0.45966 0.875 0.0
C267 C 0.80288 0.47553 0.87839 0.0
H268 H 0.8001 0.48205 0.8476 0.0
H269 H 0.79577 0.51778 0.95164 0.0
O270 O 0.83422 0.52461 0.87869 0.0
C271 C 0.81479 0.54665 0.94976 0.0
Co272 Co 0.07459 0.96209 0.62881 0.0
Co273 Co 0.0578 0.96467 0.62333 0.0
C274 C 0.06616 0.93755 0.56186 0.0
O275 O 0.07207 0.94311 0.57947 0.0
O276 O 0.06024 0.94482 0.57522 0.0
C277 C 0.08925 0.96191 0.59687 0.0
O278 O 0.08648 0.95798 0.55505 0.0
C279 C 0.04337 0.97261 0.58403 0.0
C280 C 0.03701 0.9733 0.65023 0.0
C281 C 0.03645 0.97492 0.60126 0.0
N282 N 0.04777 0.96985 0.62129 0.0
N283 N 0.04392 0.97035 0.66069 0.0
C284 C 0.0457 0.97188 0.53315 0.0
H285 H 0.05099 0.96491 0.52986 0.0
H286 H 0.04615 0.98674 0.51912 0.0
H287 H 0.04171 0.96405 0.51134 0.0
C288 C 0.07311 0.00378 0.61137 0.0
N289 N 0.07027 0.98612 0.61625 0.0
N290 N 0.06326 0.9874 0.61474 0.0
C291 C 0.06142 0.00601 0.60949 0.0
C292 C 0.0676 0.01698 0.60697 0.0
C293 C 0.08096 0.00776 0.61052 0.0
H294 H 0.08332 0.00379 0.64538 0.0
H295 H 0.0835 -0.00128 0.58281 0.0
H296 H 0.08214 0.02306 0.60263 0.0
O297 O 0.07147 0.95206 0.69112 0.0
O298 O 0.05966 0.95369 0.68681 0.0
H299 H 0.05102 0.00601 0.64127 0.0
H300 H 0.05371 0.02905 0.61807 0.0
C301 C 0.05391 0.0133 0.61197 0.0
H302 H 0.05115 0.00998 0.57809 0.0
H303 H 0.046 0.96846 0.69473 0.0
O304 O 0.08514 0.96447 0.63226 0.0
C305 C 0.06533 0.94939 0.70935 0.0
Co306 Co 0.17967 0.28245 0.61713 0.0
Co307 Co 0.19647 0.27902 0.6167 0.0
C308 C 0.18842 0.2929 0.53123 0.0
O309 O 0.18243 0.29101 0.55231 0.0
O310 O 0.19427 0.28859 0.55184 0.0
C311 C 0.16502 0.2769 0.58683 0.0
O312 O 0.16783 0.27348 0.54484 0.0
C313 C 0.21128 0.26951 0.58867 0.0
C314 C 0.21675 0.26971 0.65836 0.0
C315 C 0.2179 0.267 0.61015 0.0
N316 N 0.20644 0.27335 0.62276 0.0
N317 N 0.20975 0.27341 0.6643 0.0
C318 C 0.20961 0.27023 0.53665 0.0
H319 H 0.20482 0.26135 0.52915 0.0
H320 H 0.21413 0.26544 0.51423 0.0
H321 H 0.20834 0.28529 0.52703 0.0
C322 C 0.18104 0.24123 0.64212 0.0
N323 N 0.18391 0.25851 0.63211 0.0
N324 N 0.19091 0.25693 0.63111 0.0
C325 C 0.19271 0.23849 0.63983 0.0
C326 C 0.18651 0.22794 0.64728 0.0
C327 C 0.1732 0.23764 0.6472 0.0
H328 H 0.17075 0.24924 0.66881 0.0
H329 H 0.17069 0.23783 0.61146 0.0
H330 H 0.17212 0.22359 0.66443 0.0
O331 O 0.18268 0.30245 0.66256 0.0
O332 O 0.19449 0.3002 0.66206 0.0
H333 H 0.20331 0.23622 0.66729 0.0
H334 H 0.20031 0.21495 0.63621 0.0
C335 C 0.20017 0.23089 0.63655 0.0
H336 H 0.20271 0.23626 0.60351 0.0
H337 H 0.20724 0.27618 0.69671 0.0
O338 O 0.1691 0.28082 0.62163 0.0
C339 C 0.18877 0.30815 0.67669 0.0
Co340 Co 0.07401 0.2779 0.61447 0.0
Co341 Co 0.0572 0.27531 0.6198 0.0
C342 C 0.06538 0.30191 0.68258 0.0
O343 O 0.07129 0.29652 0.66446 0.0
O344 O 0.05946 0.29468 0.66923 0.0
C345 C 0.08858 0.27794 0.64864 0.0
O346 O 0.08568 0.28183 0.69008 0.0
C347 C 0.04259 0.2689 0.65657 0.0
C348 C 0.03688 0.26136 0.59034 0.0
C349 C 0.03592 0.26364 0.63891 0.0
N350 N 0.04722 0.26962 0.62004 0.0
N351 N 0.04376 0.26523 0.58054 0.0
C352 C 0.04472 0.27166 0.7074 0.0
H353 H 0.05051 0.26874 0.71191 0.0
H354 H 0.04159 0.26206 0.73106 0.0
H355 H 0.04369 0.2868 0.71781 0.0
C356 C 0.0725 0.23595 0.6264 0.0
N357 N 0.0697 0.25375 0.62499 0.0
N358 N 0.0627 0.25259 0.62778 0.0
C359 C 0.06083 0.23395 0.63133 0.0
C360 C 0.06697 0.2228 0.63037 0.0
C361 C 0.08025 0.23169 0.61867 0.0
H362 H 0.08219 0.23973 0.58713 0.0
H363 H 0.08333 0.2367 0.65003 0.0
H364 H 0.08124 0.21613 0.61326 0.0
O365 O 0.07101 0.2883 0.55246 0.0
O366 O 0.0592 0.28685 0.55691 0.0
H367 H 0.05053 0.22972 0.60036 0.0
H368 H 0.05305 0.21131 0.6426 0.0
C369 C 0.05329 0.22691 0.63454 0.0
H370 H 0.05046 0.23483 0.66304 0.0
H371 H 0.04612 0.26462 0.54703 0.0
O372 O 0.08458 0.27556 0.61259 0.0
C373 C 0.06488 0.29118 0.53445 0.0
Co374 Co 0.1802 0.96707 0.6201 0.0
Co375 Co 0.19697 0.96975 0.61897 0.0
C376 C 0.18917 0.94491 0.68918 0.0
O377 O 0.18312 0.94989 0.67263 0.0
O378 O 0.19497 0.95163 0.67212 0.0
C379 C 0.16566 0.96702 0.65494 0.0
O380 O 0.16858 0.96376 0.69666 0.0
C381 C 0.21151 0.97745 0.65374 0.0
C382 C 0.2174 0.98145 0.58634 0.0
C383 C 0.21825 0.98142 0.63534 0.0
N384 N 0.20695 0.97522 0.61725 0.0
N385 N 0.21051 0.97753 0.57709 0.0
C386 C 0.20926 0.97708 0.70481 0.0
H387 H 0.2035 0.98062 0.70797 0.0
H388 H 0.21246 0.98739 0.7261 0.0
H389 H 0.21009 0.9624 0.71925 0.0
C390 C 0.18174 0.00911 0.63277 0.0
N391 N 0.18455 0.99148 0.62643 0.0
N392 N 0.19155 0.99277 0.62549 0.0
C393 C 0.19343 0.01137 0.63086 0.0
C394 C 0.18727 0.02232 0.63584 0.0
C395 C 0.17392 0.01285 0.63889 0.0
H396 H 0.17186 0.00376 0.66824 0.0
H397 H 0.17279 0.02811 0.64737 0.0
H398 H 0.17106 0.00871 0.60586 0.0
O399 O 0.18291 0.95465 0.55958 0.0
O400 O 0.19472 0.95633 0.55875 0.0
H401 H 0.20378 0.01195 0.59863 0.0
H402 H 0.20115 0.03447 0.62503 0.0
C403 C 0.20094 0.01861 0.62904 0.0
H404 H 0.20374 0.01449 0.66227 0.0
H405 H 0.20821 0.97661 0.54333 0.0
O406 O 0.16964 0.96923 0.61875 0.0
C407 C 0.18887 0.95111 0.53976 0.0
Co408 Co 0.93002 0.03045 0.37903 0.0
Co409 Co 0.94686 0.02745 0.37831 0.0
C410 C 0.93885 0.0445 0.46079 0.0
O411 O 0.9328 0.04142 0.44148 0.0
O412 O 0.94464 0.03972 0.44019 0.0
C413 C 0.91535 0.02771 0.41148 0.0
O414 O 0.91812 0.02846 0.45437 0.0
C415 C 0.96173 0.01696 0.4065 0.0
C416 C 0.96721 0.01961 0.33722 0.0
C417 C 0.96836 0.01518 0.38464 0.0
N418 N 0.95689 0.02201 0.37326 0.0
N419 N 0.96023 0.02352 0.332 0.0
C420 C 0.96008 0.01469 0.45834 0.0
H421 H 0.95514 0.0224 0.46804 0.0
H422 H 0.95928 -0.00077 0.46643 0.0
H423 H 0.96457 0.0201 0.48038 0.0
C424 C 0.93149 0.98872 0.36103 0.0
N425 N 0.93434 0.00621 0.36887 0.0
N426 N 0.94135 0.00481 0.36894 0.0
C427 C 0.94318 0.98631 0.36133 0.0
C428 C 0.93699 0.9755 0.35601 0.0
C429 C 0.92365 0.98503 0.35641 0.0
H430 H 0.92127 0.99573 0.33181 0.0
H431 H 0.92108 0.98682 0.39171 0.0
H432 H 0.92253 0.97038 0.34273 0.0
O433 O 0.93289 0.04889 0.32917 0.0
O434 O 0.94471 0.0467 0.32835 0.0
H435 H 0.95368 0.98536 0.33172 0.0
H436 H 0.95097 0.96316 0.36011 0.0
C437 C 0.9507 0.97906 0.36205 0.0
H438 H 0.95332 0.98377 0.39538 0.0
H439 H 0.95773 0.02739 0.30021 0.0
O440 O 0.91945 0.02823 0.37548 0.0
C441 C 0.93894 0.05406 0.31289 0.0
Co442 Co 0.82414 0.71574 0.37484 0.0
Co443 Co 0.80736 0.71833 0.37498 0.0
C444 C 0.81538 0.69614 0.4495 0.0
O445 O 0.82141 0.70053 0.43144 0.0
O446 O 0.80955 0.70218 0.43147 0.0
C447 C 0.83888 0.71693 0.40662 0.0
O448 O 0.83619 0.71479 0.44948 0.0
C449 C 0.79287 0.72684 0.40964 0.0
C450 C 0.78684 0.72856 0.3422 0.0
C451 C 0.78608 0.73002 0.39113 0.0
N452 N 0.79738 0.72361 0.37327 0.0
N453 N 0.79373 0.72458 0.3331 0.0
C454 C 0.79521 0.72808 0.46042 0.0
H455 H 0.79445 0.71387 0.47767 0.0
H456 H 0.80097 0.73181 0.46241 0.0
H457 H 0.79203 0.73897 0.47997 0.0
C458 C 0.82258 0.75803 0.3799 0.0
N459 N 0.81978 0.74026 0.37642 0.0
N460 N 0.81277 0.74148 0.37595 0.0
C461 C 0.81089 0.76016 0.37871 0.0
C462 C 0.81704 0.77125 0.38156 0.0
C463 C 0.83039 0.76193 0.38569 0.0
H464 H 0.83327 0.75693 0.3535 0.0
H465 H 0.83243 0.75364 0.41652 0.0
H466 H 0.83153 0.77738 0.39168 0.0
O467 O 0.82127 0.7011 0.31775 0.0
O468 O 0.80946 0.70291 0.31766 0.0
H469 H 0.80037 0.75979 0.34883 0.0
H470 H 0.80311 0.783 0.37079 0.0
C471 C 0.80335 0.76728 0.37739 0.0
H472 H 0.80073 0.76408 0.41186 0.0
H473 H 0.79597 0.72266 0.29943 0.0
O474 O 0.83469 0.718 0.37113 0.0
C475 C 0.81526 0.69694 0.29938 0.0
Co476 Co 0.92977 0.71495 0.3732 0.0
Co477 Co 0.94657 0.71739 0.37361 0.0
C478 C 0.93859 0.68985 0.31025 0.0
O479 O 0.93252 0.69563 0.32497 0.0
O480 O 0.94437 0.69714 0.32589 0.0
C481 C 0.91514 0.714 0.33974 0.0
O482 O 0.91794 0.70888 0.29881 0.0
C483 C 0.96109 0.725 0.33622 0.0
C484 C 0.96728 0.72619 0.40306 0.0
C485 C 0.96796 0.72748 0.35408 0.0
N486 N 0.9566 0.72248 0.3731 0.0
N487 N 0.96034 0.72326 0.41289 0.0
C488 C 0.95888 0.72388 0.28512 0.0
H489 H 0.95359 0.7169 0.28154 0.0
H490 H 0.95845 0.73862 0.27034 0.0
H491 H 0.96292 0.71588 0.2641 0.0
C492 C 0.93141 0.75648 0.3531 0.0
N493 N 0.93419 0.73892 0.36107 0.0
N494 N 0.9412 0.74018 0.36222 0.0
C495 C 0.9431 0.75871 0.35566 0.0
C496 C 0.93696 0.76962 0.34941 0.0
C497 C 0.92359 0.76033 0.34793 0.0
H498 H 0.92132 0.75034 0.32119 0.0
H499 H 0.92252 0.7753 0.33641 0.0
H500 H 0.92089 0.75756 0.38239 0.0
O501 O 0.93252 0.70501 0.43646 0.0
O502 O 0.94434 0.70666 0.43701 0.0
H503 H 0.95335 0.75887 0.38954 0.0
H504 H 0.95072 0.78182 0.36542 0.0
C505 C 0.95059 0.76605 0.35957 0.0
H506 H 0.9535 0.76272 0.32627 0.0
H507 H 0.95817 0.7216 0.44679 0.0
O508 O 0.91922 0.71752 0.37478 0.0
C509 C 0.93848 0.70232 0.45718 0.0
Co510 Co 0.82439 0.03158 0.36926 0.0
Co511 Co 0.8076 0.02744 0.36755 0.0
C512 C 0.81574 0.04049 0.28177 0.0
O513 O 0.82168 0.03926 0.30371 0.0
O514 O 0.80986 0.03614 0.30203 0.0
C515 C 0.83913 0.02733 0.33967 0.0
O516 O 0.83644 0.02498 0.29691 0.0
C517 C 0.79259 0.01949 0.34065 0.0
C518 C 0.78768 0.01447 0.41105 0.0
C519 C 0.78618 0.01489 0.36282 0.0
N520 N 0.79766 0.02137 0.37426 0.0
N521 N 0.79466 0.01845 0.41624 0.0
C522 C 0.79381 0.02393 0.28923 0.0
H523 H 0.79616 0.03851 0.28638 0.0
H524 H 0.7977 0.01353 0.27425 0.0
H525 H 0.78881 0.02367 0.26821 0.0
C526 C 0.82322 0.99051 0.39543 0.0
N527 N 0.82025 0.00765 0.38529 0.0
N528 N 0.81326 0.00571 0.38349 0.0
C529 C 0.81158 0.98715 0.3916 0.0
C530 C 0.81783 0.97693 0.39974 0.0
C531 C 0.83108 0.98727 0.40061 0.0
H532 H 0.83343 -0.00118 0.42283 0.0
H533 H 0.83361 0.98786 0.36497 0.0
H534 H 0.83224 0.97314 0.41723 0.0
O535 O 0.82122 0.05194 0.41311 0.0
O536 O 0.80942 0.04922 0.41139 0.0
H537 H 0.80108 0.98233 0.41856 0.0
H538 H 0.80434 0.96317 0.38126 0.0
C539 C 0.80423 0.97899 0.38621 0.0
H540 H 0.80155 0.98559 0.3551 0.0
H541 H 0.79741 0.01915 0.4485 0.0
O542 O 0.83495 0.03022 0.37459 0.0
C543 C 0.81506 0.05756 0.4261 0.0
Co544 Co 0.57375 0.46265 0.62008 0.0
Co545 Co 0.55697 0.46589 0.61773 0.0
C546 C 0.5652 0.45085 0.53442 0.0
O547 O 0.57113 0.45333 0.55575 0.0
O548 O 0.55929 0.45519 0.55417 0.0
C549 C 0.58835 0.46898 0.59043 0.0
O550 O 0.58549 0.47348 0.54922 0.0
C551 C 0.54228 0.47489 0.58688 0.0
C552 C 0.53663 0.47604 0.65581 0.0
C553 C 0.5356 0.47784 0.60719 0.0
N554 N 0.547 0.47141 0.62193 0.0
N555 N 0.54358 0.47208 0.663 0.0
C556 C 0.54431 0.47677 0.5356 0.0
H557 H 0.54988 0.48203 0.53245 0.0
H558 H 0.54068 0.4868 0.51676 0.0
H559 H 0.54399 0.46243 0.51842 0.0
C560 C 0.57229 0.50405 0.64331 0.0
N561 N 0.56947 0.48673 0.63304 0.0
N562 N 0.56247 0.48826 0.63092 0.0
C563 C 0.56063 0.50671 0.63914 0.0
C564 C 0.56679 0.51732 0.64744 0.0
C565 C 0.58009 0.50762 0.65047 0.0
H566 H 0.58245 0.49575 0.67161 0.0
H567 H 0.58278 0.50799 0.61531 0.0
H568 H 0.58106 0.52144 0.6691 0.0
O569 O 0.57067 0.44315 0.66668 0.0
O570 O 0.55886 0.44543 0.66522 0.0
H571 H 0.55004 0.50921 0.66658 0.0
H572 H 0.55301 0.53014 0.63404 0.0
C573 C 0.55316 0.51422 0.63543 0.0
H574 H 0.55061 0.50849 0.6028 0.0
H575 H 0.54599 0.46989 0.69599 0.0
O576 O 0.5843 0.46423 0.6248 0.0
C577 C 0.56455 0.43766 0.68086 0.0
Co578 Co 0.67968 0.7798 0.6226 0.0
Co579 Co 0.69646 0.77721 0.62254 0.0
C580 C 0.68835 0.79261 0.53883 0.0
O581 O 0.68236 0.78964 0.55903 0.0
O582 O 0.69421 0.78845 0.55937 0.0
C583 C 0.66507 0.77361 0.59229 0.0
O584 O 0.66789 0.76967 0.55062 0.0
C585 C 0.71108 0.76801 0.59119 0.0
C586 C 0.71691 0.76782 0.65954 0.0
C587 C 0.71782 0.76538 0.61097 0.0
N588 N 0.70645 0.77192 0.62647 0.0
N589 N 0.70998 0.77182 0.66719 0.0
C590 C 0.70891 0.76542 0.54036 0.0
H591 H 0.70932 0.77944 0.52168 0.0
H592 H 0.70329 0.76046 0.53829 0.0
H593 H 0.71242 0.75487 0.52222 0.0
C594 C 0.68125 0.73837 0.64416 0.0
N595 N 0.68403 0.75581 0.63489 0.0
N596 N 0.69104 0.75453 0.63403 0.0
C597 C 0.69294 0.73612 0.64223 0.0
C598 C 0.68679 0.72528 0.64902 0.0
C599 C 0.67343 0.73454 0.64992 0.0
H600 H 0.67097 0.74604 0.67174 0.0
H601 H 0.67086 0.73462 0.61439 0.0
H602 H 0.67244 0.72045 0.66725 0.0
O603 O 0.6826 0.79894 0.67035 0.0
O604 O 0.69442 0.79707 0.67139 0.0
H605 H 0.70347 0.73468 0.67108 0.0
H606 H 0.70072 0.71298 0.64075 0.0
C607 C 0.70046 0.72891 0.64027 0.0
H608 H 0.70305 0.73413 0.60729 0.0
H609 H 0.70763 0.77442 0.70026 0.0
O610 O 0.66914 0.77795 0.62685 0.0
C611 C 0.68862 0.80447 0.68624 0.0
Co612 Co 0.57409 0.77754 0.62279 0.0
Co613 Co 0.55729 0.77523 0.62077 0.0
C614 C 0.56518 0.80226 0.68609 0.0
O615 O 0.57126 0.79658 0.67156 0.0
O616 O 0.55942 0.79511 0.66965 0.0
C617 C 0.58875 0.77963 0.6557 0.0
O618 O 0.58597 0.78673 0.69485 0.0
C619 C 0.54267 0.76756 0.65632 0.0
C620 C 0.53662 0.76695 0.58882 0.0
C621 C 0.53584 0.76533 0.63766 0.0
N622 N 0.54725 0.77026 0.62001 0.0
N623 N 0.54359 0.76982 0.57982 0.0
C624 C 0.54476 0.7683 0.70768 0.0
H625 H 0.55007 0.77507 0.71207 0.0
H626 H 0.54507 0.75348 0.72203 0.0
H627 H 0.54071 0.77634 0.72852 0.0
C628 C 0.57235 0.73605 0.64272 0.0
N629 N 0.56961 0.75357 0.63386 0.0
N630 N 0.5626 0.75233 0.63182 0.0
C631 C 0.56068 0.73383 0.63847 0.0
C632 C 0.56679 0.72292 0.6459 0.0
C633 C 0.58014 0.73228 0.6499 0.0
H634 H 0.58234 0.74295 0.67527 0.0
H635 H 0.58114 0.71763 0.66401 0.0
H636 H 0.58298 0.73406 0.6155 0.0
O637 O 0.57149 0.788 0.55969 0.0
O638 O 0.55967 0.78641 0.55813 0.0
H639 H 0.55043 0.73392 0.60435 0.0
H640 H 0.55309 0.71079 0.62732 0.0
C641 C 0.55319 0.72651 0.634 0.0
H642 H 0.55026 0.72952 0.66743 0.0
H643 H 0.54585 0.7717 0.54621 0.0
O644 O 0.58464 0.77463 0.62187 0.0
C645 C 0.56557 0.79089 0.53864 0.0
Co646 Co 0.67942 0.46568 0.61584 0.0
Co647 Co 0.69622 0.46804 0.61694 0.0
C648 C 0.68826 0.44114 0.68105 0.0
O649 O 0.68226 0.44666 0.66449 0.0
O650 O 0.69412 0.4484 0.66648 0.0
C651 C 0.66479 0.46318 0.64873 0.0
O652 O 0.66763 0.45617 0.68778 0.0
C653 C 0.71075 0.47524 0.6532 0.0
C654 C 0.71666 0.48037 0.58632 0.0
C655 C 0.71749 0.47969 0.6353 0.0
N656 N 0.70621 0.47342 0.61641 0.0
N657 N 0.70979 0.47639 0.57657 0.0
C658 C 0.70848 0.47408 0.70413 0.0
H659 H 0.70267 0.47699 0.70735 0.0
H660 H 0.71152 0.48448 0.72618 0.0
H661 H 0.70951 0.45934 0.71763 0.0
C662 C 0.68102 0.50705 0.63691 0.0
N663 N 0.68382 0.48962 0.62779 0.0
N664 N 0.69083 0.49087 0.62748 0.0
C665 C 0.69272 0.50928 0.63585 0.0
C666 C 0.68656 0.52012 0.64233 0.0
C667 C 0.6732 0.51074 0.64263 0.0
H668 H 0.67094 0.50022 0.66819 0.0
H669 H 0.6721 0.52546 0.65587 0.0
H670 H 0.6705 0.50859 0.60791 0.0
O671 O 0.68217 0.45552 0.55292 0.0
O672 O 0.694 0.45665 0.55419 0.0
H673 H 0.70308 0.51035 0.60369 0.0
H674 H 0.70043 0.53248 0.63189 0.0
C675 C 0.70023 0.51657 0.63461 0.0
H676 H 0.70303 0.51205 0.66753 0.0
H677 H 0.70751 0.47594 0.5427 0.0
O678 O 0.66885 0.4683 0.61475 0.0
C679 C 0.68818 0.45243 0.53327 0.0
Co680 Co 0.42905 0.52709 0.36937 0.0
Co681 Co 0.44581 0.52301 0.37192 0.0
C682 C 0.43795 0.54632 0.44424 0.0
O683 O 0.43193 0.54237 0.42548 0.0
O684 O 0.44375 0.53966 0.42733 0.0
C685 C 0.41446 0.5247 0.40265 0.0
O686 O 0.41735 0.52345 0.44513 0.0
C687 C 0.46031 0.51462 0.40734 0.0
C688 C 0.4661 0.50936 0.3401 0.0
C689 C 0.467 0.51 0.38904 0.0
N690 N 0.45573 0.51664 0.37082 0.0
N691 N 0.45923 0.51355 0.33077 0.0
C692 C 0.4581 0.51565 0.45845 0.0
H693 H 0.45899 0.53047 0.4718 0.0
H694 H 0.45234 0.51225 0.46209 0.0
H695 H 0.46127 0.50549 0.48038 0.0
C696 C 0.4301 0.48463 0.37168 0.0
N697 N 0.43308 0.50224 0.37156 0.0
N698 N 0.44008 0.50049 0.37295 0.0
C699 C 0.44176 0.48167 0.37417 0.0
C700 C 0.4355 0.47104 0.37332 0.0
C701 C 0.42225 0.48095 0.36792 0.0
H702 H 0.4199 0.49038 0.34021 0.0
H703 H 0.41968 0.48444 0.40241 0.0
H704 H 0.42111 0.46572 0.35892 0.0
O705 O 0.43218 0.54077 0.31176 0.0
O706 O 0.44398 0.53813 0.31365 0.0
H707 H 0.45223 0.4777 0.34548 0.0
H708 H 0.44934 0.45834 0.3839 0.0
C709 C 0.44922 0.47412 0.37829 0.0
H710 H 0.45192 0.48112 0.40876 0.0
H711 H 0.45692 0.5142 0.29703 0.0
O712 O 0.41848 0.52604 0.36638 0.0
C713 C 0.4383 0.54423 0.29402 0.0
Co714 Co 0.32439 0.21266 0.38372 0.0
Co715 Co 0.3076 0.2161 0.3841 0.0
C716 C 0.31556 0.19864 0.4659 0.0
O717 O 0.32158 0.20151 0.44593 0.0
O718 O 0.30975 0.20379 0.44613 0.0
C719 C 0.33897 0.21672 0.41641 0.0
O720 O 0.33609 0.21812 0.45888 0.0
C721 C 0.29297 0.22565 0.41533 0.0
C722 C 0.28716 0.22567 0.34687 0.0
C723 C 0.28624 0.22821 0.39537 0.0
N724 N 0.29763 0.22192 0.38009 0.0
N725 N 0.29412 0.22201 0.33929 0.0
C726 C 0.29492 0.22492 0.46694 0.0
H727 H 0.29985 0.23341 0.47307 0.0
H728 H 0.29058 0.23015 0.49032 0.0
H729 H 0.29608 0.2098 0.47664 0.0
C730 C 0.32305 0.25443 0.36518 0.0
N731 N 0.32016 0.23705 0.37398 0.0
N732 N 0.31317 0.23862 0.37478 0.0
C733 C 0.31138 0.25713 0.36695 0.0
C734 C 0.31758 0.26775 0.36043 0.0
C735 C 0.33088 0.25787 0.35888 0.0
H736 H 0.33317 0.24663 0.33539 0.0
H737 H 0.33356 0.25684 0.394 0.0
H738 H 0.33197 0.2722 0.34316 0.0
O739 O 0.32141 0.19456 0.33346 0.0
O740 O 0.30959 0.1969 0.33364 0.0
H741 H 0.30093 0.25909 0.3368 0.0
H742 H 0.30371 0.28053 0.36824 0.0
C743 C 0.30388 0.26459 0.36819 0.0
H744 H 0.30118 0.25927 0.40067 0.0
H745 H 0.29647 0.21934 0.3063 0.0
O746 O 0.33496 0.21449 0.38037 0.0
C747 C 0.31533 0.18954 0.3175 0.0
Co748 Co 0.43006 0.21087 0.37723 0.0
Co749 Co 0.44689 0.21395 0.37574 0.0
C750 C 0.43861 0.20066 0.29072 0.0
O751 O 0.43267 0.20267 0.31216 0.0
O752 O 0.44452 0.20453 0.31111 0.0
C753 C 0.41525 0.21323 0.3481 0.0
O754 O 0.41785 0.21233 0.30476 0.0
C755 C 0.46141 0.22461 0.34523 0.0
C756 C 0.4674 0.22224 0.4127 0.0
C757 C 0.46818 0.2266 0.36487 0.0
N758 N 0.45687 0.21925 0.37987 0.0
N759 N 0.4605 0.2178 0.42004 0.0
C760 C 0.45913 0.22888 0.29531 0.0
H761 H 0.45349 0.23375 0.29475 0.0
H762 H 0.46259 0.24008 0.27916 0.0
H763 H 0.45954 0.21556 0.27375 0.0
C764 C 0.43156 0.25227 0.3974 0.0
N765 N 0.43441 0.23468 0.39124 0.0
N766 N 0.44142 0.23605 0.39084 0.0
C767 C 0.44325 0.2546 0.3971 0.0
C768 C 0.43708 0.26549 0.40119 0.0
C769 C 0.42375 0.25642 0.39332 0.0
H770 H 0.42084 0.24852 0.4216 0.0
H771 H 0.42178 0.25114 0.35846 0.0
H772 H 0.42256 0.27199 0.39628 0.0
O773 O 0.43317 0.19062 0.42198 0.0
O774 O 0.44498 0.19289 0.42074 0.0
H775 H 0.45401 0.25311 0.42236 0.0
H776 H 0.45105 0.27713 0.40876 0.0
C777 C 0.45077 0.26186 0.39749 0.0
H778 H 0.45309 0.26043 0.36135 0.0
H779 H 0.45824 0.21385 0.45257 0.0
O780 O 0.4195 0.21294 0.38335 0.0
C781 C 0.43929 0.18489 0.43553 0.0
Co782 Co 0.32337 0.52775 0.37989 0.0
Co783 Co 0.30663 0.52359 0.37886 0.0
C784 C 0.31418 0.55221 0.31689 0.0
O785 O 0.32027 0.54705 0.33258 0.0
O786 O 0.30845 0.5442 0.33124 0.0
C787 C 0.33798 0.53108 0.34657 0.0
O788 O 0.33509 0.53717 0.30674 0.0
C789 C 0.29213 0.51577 0.34247 0.0
C790 C 0.28642 0.50863 0.40893 0.0
C791 C 0.28549 0.51034 0.36019 0.0
N792 N 0.29672 0.51716 0.37913 0.0
N793 N 0.29325 0.51298 0.41874 0.0
C794 C 0.29429 0.51831 0.29162 0.0
H795 H 0.29314 0.5333 0.2805 0.0
H796 H 0.30011 0.51577 0.28749 0.0
H797 H 0.29127 0.50833 0.26827 0.0
C798 C 0.32236 0.48636 0.35668 0.0
N799 N 0.31932 0.50347 0.36622 0.0
N800 N 0.31233 0.50152 0.36629 0.0
C801 C 0.31071 0.48298 0.35723 0.0
C802 C 0.31701 0.47278 0.35067 0.0
C803 C 0.33024 0.48339 0.35178 0.0
H804 H 0.3324 0.49394 0.32595 0.0
H805 H 0.33156 0.4687 0.33922 0.0
H806 H 0.33285 0.48603 0.38661 0.0
O807 O 0.3205 0.53684 0.44367 0.0
O808 O 0.30872 0.53417 0.44264 0.0
H809 H 0.30048 0.48029 0.3905 0.0
H810 H 0.30328 0.45903 0.35911 0.0
C811 C 0.30329 0.47497 0.35844 0.0
H812 H 0.30033 0.47997 0.32659 0.0
H813 H 0.29558 0.51289 0.45245 0.0
O814 O 0.33396 0.5262 0.38096 0.0
C815 C 0.31447 0.53883 0.46378 0.0
Co816 Co 0.57416 0.96354 0.11989 0.0
Co817 Co 0.55739 0.96633 0.12356 0.0
C818 C 0.56507 0.95024 0.03864 0.0
O819 O 0.57117 0.95322 0.05731 0.0
O820 O 0.55933 0.9547 0.06033 0.0
C821 C 0.58873 0.96917 0.08703 0.0
O822 O 0.58584 0.97267 0.04533 0.0
C823 C 0.54264 0.9757 0.09512 0.0
C824 C 0.53718 0.97683 0.16474 0.0
C825 C 0.53604 0.9789 0.1163 0.0
N826 N 0.54743 0.97184 0.12949 0.0
N827 N 0.54412 0.97247 0.17099 0.0
C828 C 0.54456 0.97781 0.04369 0.0
H829 H 0.55019 0.98248 0.04002 0.0
H830 H 0.54101 0.98839 0.0259 0.0
H831 H 0.54395 0.96368 0.02579 0.0
C832 C 0.57276 0.00519 0.1399 0.0
N833 N 0.56991 0.9877 0.13206 0.0
N834 N 0.5629 0.98902 0.13291 0.0
C835 C 0.56107 0.0075 0.14085 0.0
C836 C 0.56725 0.01835 0.14567 0.0
C837 C 0.5806 0.00901 0.14352 0.0
H838 H 0.58316 -0.00226 0.16559 0.0
H839 H 0.58299 0.00845 0.10742 0.0
H840 H 0.5817 0.02329 0.15953 0.0
O841 O 0.57145 0.94477 0.16912 0.0
O842 O 0.55965 0.9467 0.17263 0.0
H843 H 0.5507 0.0092 0.17222 0.0
H844 H 0.5533 0.03069 0.14045 0.0
C845 C 0.55355 0.01477 0.14048 0.0
H846 H 0.55077 0.00939 0.10833 0.0
H847 H 0.54662 0.97007 0.20364 0.0
O848 O 0.58472 0.9653 0.12225 0.0
C849 C 0.56551 0.93936 0.18651 0.0
Co850 Co 0.67962 0.2797 0.11643 0.0
Co851 Co 0.69646 0.27713 0.11735 0.0
C852 C 0.68842 0.2927 0.03337 0.0
O853 O 0.68241 0.28969 0.05322 0.0
O854 O 0.69426 0.28844 0.05411 0.0
C855 C 0.66504 0.27368 0.08502 0.0
O856 O 0.66791 0.26987 0.04344 0.0
C857 C 0.71138 0.26819 0.08914 0.0
C858 C 0.71662 0.26648 0.15946 0.0
C859 C 0.71791 0.26467 0.11115 0.0
N860 N 0.70647 0.2716 0.12307 0.0
N861 N 0.70966 0.27062 0.16496 0.0
C862 C 0.70987 0.2696 0.03696 0.0
H863 H 0.70709 0.28331 0.02956 0.0
H864 H 0.70627 0.25768 0.0263 0.0
H865 H 0.7148 0.26923 0.01527 0.0
C866 C 0.68118 0.23832 0.13829 0.0
N867 N 0.68398 0.25574 0.12886 0.0
N868 N 0.69099 0.25446 0.12821 0.0
C869 C 0.69287 0.23604 0.13652 0.0
C870 C 0.68671 0.22523 0.14341 0.0
C871 C 0.67336 0.23455 0.14424 0.0
H872 H 0.67092 0.24616 0.16584 0.0
H873 H 0.67078 0.23454 0.10874 0.0
H874 H 0.67236 0.22054 0.16189 0.0
O875 O 0.68247 0.29873 0.16453 0.0
O876 O 0.69429 0.29697 0.16613 0.0
H877 H 0.70331 0.23374 0.16653 0.0
H878 H 0.70059 0.21283 0.13294 0.0
C879 C 0.70038 0.22875 0.13454 0.0
H880 H 0.70308 0.23463 0.10263 0.0
H881 H 0.70706 0.27275 0.19736 0.0
O882 O 0.66906 0.27786 0.11994 0.0
C883 C 0.68846 0.30429 0.18076 0.0
Co884 Co 0.57393 0.27857 0.11435 0.0
Co885 Co 0.55716 0.27587 0.11904 0.0
C886 C 0.56532 0.30341 0.18028 0.0
O887 O 0.57125 0.29791 0.16278 0.0
O888 O 0.55942 0.29591 0.16722 0.0
C889 C 0.58863 0.28093 0.14547 0.0
O890 O 0.58587 0.28748 0.18527 0.0
C891 C 0.54277 0.26845 0.1579 0.0
C892 C 0.5366 0.26402 0.09183 0.0
C893 C 0.53595 0.2643 0.14098 0.0
N894 N 0.54717 0.27048 0.1204 0.0
N895 N 0.54344 0.26791 0.08107 0.0
C896 C 0.54526 0.26925 0.20842 0.0
H897 H 0.5511 0.26658 0.21036 0.0
H898 H 0.54238 0.2585 0.23041 0.0
H899 H 0.5442 0.2838 0.22298 0.0
C900 C 0.57251 0.23713 0.13618 0.0
N901 N 0.56964 0.25456 0.12801 0.0
N902 N 0.56263 0.2532 0.1293 0.0
C903 C 0.56083 0.23473 0.13777 0.0
C904 C 0.56703 0.22396 0.14262 0.0
C905 C 0.58037 0.23349 0.1395 0.0
H906 H 0.58277 0.24382 0.16494 0.0
H907 H 0.58157 0.21867 0.15168 0.0
H908 H 0.58285 0.23596 0.10417 0.0
O909 O 0.5709 0.28823 0.05136 0.0
O910 O 0.5591 0.2867 0.05535 0.0
H911 H 0.55034 0.23368 0.10741 0.0
H912 H 0.55315 0.21142 0.1343 0.0
C913 C 0.55333 0.22731 0.13757 0.0
H914 H 0.55065 0.23157 0.17114 0.0
H915 H 0.54558 0.26863 0.04683 0.0
O916 O 0.5845 0.27612 0.11162 0.0
C917 C 0.56478 0.29091 0.03288 0.0
Co918 Co 0.67979 0.96561 0.12058 0.0
Co919 Co 0.69661 0.96771 0.12329 0.0
C920 C 0.68832 0.94054 0.18563 0.0
O921 O 0.68236 0.94634 0.16921 0.0
O922 O 0.69421 0.94769 0.17135 0.0
C923 C 0.66506 0.96362 0.15126 0.0
O924 O 0.66775 0.95688 0.19106 0.0
C925 C 0.71111 0.97523 0.16177 0.0
C926 C 0.71733 0.97693 0.09513 0.0
C927 C 0.71798 0.97799 0.14417 0.0
N928 N 0.70664 0.97278 0.12468 0.0
N929 N 0.71041 0.97386 0.08504 0.0
C930 C 0.70886 0.97385 0.21277 0.0
H931 H 0.70363 0.96655 0.21604 0.0
H932 H 0.70832 0.98852 0.22778 0.0
H933 H 0.71295 0.966 0.2338 0.0
C934 C 0.68144 0.00692 0.14206 0.0
N935 N 0.68423 0.98942 0.13356 0.0
N936 N 0.69124 0.9906 0.13353 0.0
C937 C 0.69314 0.00906 0.14118 0.0
C938 C 0.68699 0.01998 0.14713 0.0
C939 C 0.67361 0.01073 0.14706 0.0
H940 H 0.67126 0.00013 0.17203 0.0
H941 H 0.67253 0.02541 0.16066 0.0
H942 H 0.67099 0.00884 0.11197 0.0
O943 O 0.68273 0.95558 0.05789 0.0
O944 O 0.69455 0.95673 0.05982 0.0
H945 H 0.70354 0.00927 0.10939 0.0
H946 H 0.70082 0.03214 0.13353 0.0
C947 C 0.70065 0.01635 0.13897 0.0
H948 H 0.7034 0.01286 0.17276 0.0
H949 H 0.70827 0.97236 0.051 0.0
O950 O 0.66924 0.96844 0.11768 0.0
C951 C 0.68876 0.95259 0.03849 0.0
Co952 Co 0.42977 0.03011 0.87034 0.0
Co953 Co 0.44652 0.02727 0.87712 0.0
C954 C 0.4384 0.0555 0.93536 0.0
O955 O 0.43251 0.04984 0.91761 0.0
O956 O 0.44431 0.04781 0.92355 0.0
C957 C 0.4153 0.02844 0.90561 0.0
O958 O 0.41832 0.02943 0.94773 0.0
C959 C 0.46107 0.02085 0.91516 0.0
C960 C 0.46682 0.01277 0.84951 0.0
C961 C 0.46775 0.01531 0.89805 0.0
N962 N 0.45648 0.02143 0.87836 0.0
N963 N 0.45998 0.01672 0.83922 0.0
C964 C 0.45887 0.02404 0.96572 0.0
H965 H 0.45303 0.02188 0.96973 0.0
H966 H 0.46178 0.01411 0.98981 0.0
H967 H 0.46015 0.03906 0.97601 0.0
C968 C 0.43111 0.98837 0.88804 0.0
N969 N 0.43396 0.0061 0.88461 0.0
N970 N 0.44095 0.00491 0.88825 0.0
C971 C 0.44277 0.98635 0.89454 0.0
C972 C 0.43661 0.97528 0.89444 0.0
C973 C 0.4234 0.98394 0.87963 0.0
H974 H 0.42142 0.99231 0.84873 0.0
H975 H 0.42028 0.98828 0.9114 0.0
H976 H 0.42251 0.96841 0.87289 0.0
O977 O 0.43283 0.03879 0.80696 0.0
O978 O 0.44463 0.03723 0.81248 0.0
H979 H 0.45315 0.9816 0.8652 0.0
H980 H 0.45049 0.96383 0.90877 0.0
C981 C 0.45028 0.9793 0.89925 0.0
H982 H 0.45304 0.98759 0.92739 0.0
H983 H 0.45766 0.01595 0.8056 0.0
O984 O 0.41921 0.02833 0.86864 0.0
C985 C 0.439 0.04105 0.78894 0.0
Co986 Co 0.32392 0.71015 0.87886 0.0
Co987 Co 0.30719 0.71424 0.87722 0.0
C988 C 0.31491 0.69867 0.96236 0.0
O989 O 0.32099 0.70077 0.94267 0.0
O990 O 0.30917 0.70342 0.94104 0.0
C991 C 0.33853 0.71489 0.91078 0.0
O992 O 0.33567 0.71805 0.95274 0.0
C993 C 0.29259 0.72438 0.90665 0.0
C994 C 0.28689 0.72435 0.83782 0.0
C995 C 0.2859 0.72704 0.88623 0.0
N996 N 0.29727 0.72017 0.87193 0.0
N997 N 0.29383 0.72017 0.83089 0.0
C998 C 0.29466 0.72714 0.95762 0.0
H999 H 0.29411 0.71325 0.9767 0.0
H1000 H 0.3003 0.73185 0.96015 0.0
H1001 H 0.29117 0.73794 0.97503 0.0
C1002 C 0.32285 0.75182 0.85722 0.0
N1003 N 0.31986 0.73452 0.86558 0.0
N1004 N 0.31287 0.73634 0.86542 0.0
C1005 C 0.31119 0.75491 0.85731 0.0
C1006 C 0.31746 0.76533 0.85176 0.0
C1007 C 0.33072 0.75519 0.85364 0.0
H1008 H 0.33319 0.74383 0.83134 0.0
H1009 H 0.33311 0.75437 0.88971 0.0
H1010 H 0.33194 0.76945 0.8379 0.0
O1011 O 0.32092 0.69087 0.83129 0.0
O1012 O 0.30913 0.6938 0.82997 0.0
H1013 H 0.30069 0.75696 0.82799 0.0
H1014 H 0.30362 0.77859 0.85792 0.0
C1015 C 0.30374 0.76266 0.85877 0.0
H1016 H 0.30107 0.75773 0.89176 0.0
H1017 H 0.29622 0.71729 0.79813 0.0
O1018 O 0.33449 0.71142 0.87548 0.0
C1019 C 0.31484 0.68574 0.81562 0.0
Co1020 Co 0.42953 0.71379 0.87193 0.0
Co1021 Co 0.44638 0.71674 0.8721 0.0
C1022 C 0.43833 0.69568 0.79558 0.0
O1023 O 0.43228 0.69974 0.81375 0.0
O1024 O 0.44414 0.70137 0.81453 0.0
C1025 C 0.41476 0.71324 0.84118 0.0
O1026 O 0.41741 0.7088 0.79932 0.0
C1027 C 0.46098 0.72714 0.83965 0.0
C1028 C 0.46696 0.72442 0.90707 0.0
C1029 C 0.46778 0.72873 0.85926 0.0
N1030 N 0.45639 0.72221 0.87448 0.0
N1031 N 0.46001 0.72069 0.91464 0.0
C1032 C 0.45892 0.7292 0.78845 0.0
H1033 H 0.4537 0.72236 0.78137 0.0
H1034 H 0.45844 0.74469 0.77958 0.0
H1035 H 0.46306 0.72278 0.76512 0.0
C1036 C 0.431 0.756 0.87397 0.0
N1037 N 0.43387 0.73826 0.87333 0.0
N1038 N 0.44087 0.73964 0.87413 0.0
C1039 C 0.44269 0.75836 0.87594 0.0
C1040 C 0.4365 0.76933 0.87565 0.0
C1041 C 0.42317 0.75993 0.87031 0.0
H1042 H 0.42048 0.75487 0.90321 0.0
H1043 H 0.42092 0.75174 0.83994 0.0
H1044 H 0.42203 0.77543 0.86502 0.0
O1045 O 0.43248 0.69824 0.92727 0.0
O1046 O 0.44429 0.70044 0.92775 0.0
H1047 H 0.4531 0.75683 0.90726 0.0
H1048 H 0.45035 0.78085 0.89174 0.0
C1049 C 0.45019 0.76555 0.8806 0.0
H1050 H 0.45294 0.76408 0.84587 0.0
H1051 H 0.45775 0.71689 0.94719 0.0
O1052 O 0.41898 0.71614 0.87589 0.0
C1053 C 0.4385 0.69401 0.94531 0.0
Co1054 Co 0.32415 0.02633 0.88561 0.0
Co1055 Co 0.3074 0.02323 0.88374 0.0
C1056 C 0.31532 0.04917 0.81685 0.0
O1057 O 0.32134 0.04417 0.83406 0.0
O1058 O 0.3095 0.04203 0.83234 0.0
C1059 C 0.33877 0.02734 0.85244 0.0
O1060 O 0.33592 0.03155 0.81103 0.0
C1061 C 0.29295 0.01558 0.8469 0.0
C1062 C 0.28694 0.01085 0.91353 0.0
C1063 C 0.28618 0.01132 0.86448 0.0
N1064 N 0.29743 0.01755 0.88392 0.0
N1065 N 0.2938 0.0148 0.92361 0.0
C1066 C 0.29529 0.01652 0.79608 0.0
H1067 H 0.30108 0.01325 0.79324 0.0
H1068 H 0.2922 0.00627 0.77395 0.0
H1069 H 0.2944 0.03129 0.78237 0.0
C1070 C 0.3228 0.98437 0.86999 0.0
N1071 N 0.31991 0.00189 0.87667 0.0
N1072 N 0.31291 0.00044 0.87627 0.0
C1073 C 0.31111 0.98185 0.86964 0.0
C1074 C 0.31732 0.97106 0.86524 0.0
C1075 C 0.33065 0.98079 0.86556 0.0
H1076 H 0.33331 0.98463 0.89952 0.0
H1077 H 0.33285 0.9902 0.83732 0.0
H1078 H 0.33185 0.96563 0.85646 0.0
O1079 O 0.32123 0.03783 0.9469 0.0
O1080 O 0.30943 0.03583 0.9453 0.0
H1081 H 0.30067 0.98072 0.90056 0.0
H1082 H 0.30343 0.95855 0.87302 0.0
C1083 C 0.30361 0.97444 0.87007 0.0
H1084 H 0.30089 0.97887 0.8368 0.0
H1085 H 0.29602 0.01545 0.95762 0.0
O1086 O 0.33472 0.02428 0.88793 0.0
C1087 C 0.31517 0.04091 0.96588 0.0
C1088 C 0.07028 0.54911 0.16613 0.0
C1089 C 0.06637 0.53842 0.13279 0.0
C1090 C 0.07066 0.56912 0.16224 0.0
C1091 C 0.06123 0.61042 0.11035 0.0
H1092 H 0.07928 0.63695 0.12669 0.0
C1093 C 0.06401 0.6911 0.07094 0.0
C1094 C 0.06788 0.70196 0.10403 0.0
C1095 C 0.06417 0.67104 0.07273 0.0
C1096 C 0.07419 0.62976 0.12247 0.0
H1097 H 0.0599 0.5399 0.06909 0.0
H1098 H 0.06052 0.57487 0.06233 0.0
H1099 H 0.07879 0.60199 0.13467 0.0
H1100 H 0.07503 0.70073 0.16444 0.0
H1101 H 0.07529 0.66563 0.16803 0.0
H1102 H 0.0566 0.63809 0.09868 0.0
C1103 C 0.06322 0.5679 0.09175 0.0
C1104 C 0.07391 0.60977 0.12707 0.0
C1105 C 0.06286 0.54794 0.09556 0.0
C1106 C 0.07206 0.69256 0.13827 0.0
C1107 C 0.07221 0.67251 0.14021 0.0
C1108 C 0.0615 0.63038 0.10592 0.0
C1109 C 0.06712 0.5787 0.12505 0.0
C1110 C 0.06743 0.59991 0.12093 0.0
C1111 C 0.0682 0.66153 0.10784 0.0
C1112 C 0.06798 0.64027 0.11181 0.0
H1113 H 0.07298 0.54199 0.19526 0.0
H1114 H 0.07365 0.57711 0.18868 0.0
H1115 H 0.05614 0.60323 0.10616 0.0
H1116 H 0.0608 0.69814 0.04405 0.0
H1117 H 0.06112 0.66299 0.04678 0.0
C1118 C 0.18865 0.54881 0.18988 0.0
C1119 C 0.18499 0.5396 0.1528 0.0
C1120 C 0.18831 0.56879 0.19477 0.0
C1121 C 0.17805 0.61176 0.15711 0.0
H1122 H 0.19598 0.63845 0.17701 0.0
C1123 C 0.18181 0.69203 0.11372 0.0
C1124 C 0.18604 0.70311 0.14437 0.0
C1125 C 0.18128 0.67217 0.12008 0.0
C1126 C 0.19091 0.63124 0.17221 0.0
H1127 H 0.17805 0.54375 0.09211 0.0
H1128 H 0.17743 0.57865 0.10044 0.0
H1129 H 0.19568 0.60345 0.17945 0.0
H1130 H 0.1929 0.70246 0.20629 0.0
H1131 H 0.192 0.66763 0.21756 0.0
H1132 H 0.17331 0.63958 0.14895 0.0
C1133 C 0.18049 0.57051 0.12622 0.0
C1134 C 0.19073 0.61117 0.17364 0.0
C1135 C 0.18085 0.55056 0.12133 0.0
C1136 C 0.18967 0.6941 0.18187 0.0
C1137 C 0.18916 0.67422 0.18825 0.0
C1138 C 0.17822 0.63184 0.15568 0.0
C1139 C 0.18429 0.57988 0.16264 0.0
C1140 C 0.18432 0.6012 0.16536 0.0
C1141 C 0.18498 0.66301 0.15726 0.0
C1142 C 0.18468 0.64179 0.16247 0.0
H1143 H 0.19184 0.54056 0.21473 0.0
H1144 H 0.19122 0.57557 0.22352 0.0
H1145 H 0.17301 0.6045 0.15138 0.0
H1146 H 0.179 0.69871 0.08435 0.0
H1147 H 0.17811 0.66392 0.09514 0.0
C1148 C 0.93118 0.44377 0.86935 0.0
C1149 C 0.93538 0.45479 0.83835 0.0
C1150 C 0.9307 0.42389 0.86352 0.0
C1151 C 0.94055 0.383 0.81402 0.0
H1152 H 0.92285 0.3557 0.83774 0.0
C1153 C 0.93891 0.30015 0.80733 0.0
C1154 C 0.93528 0.29159 0.84547 0.0
C1155 C 0.93845 0.31998 0.79977 0.0
C1156 C 0.92784 0.36312 0.83119 0.0
H1157 H 0.9422 0.45402 0.77626 0.0
H1158 H 0.94139 0.41909 0.76597 0.0
H1159 H 0.92289 0.39078 0.83611 0.0
H1160 H 0.92829 0.29671 0.90543 0.0
H1161 H 0.92747 0.33138 0.8925 0.0
H1162 H 0.94554 0.35537 0.8102 0.0
C1163 C 0.93853 0.42578 0.79507 0.0
C1164 C 0.92786 0.3832 0.83025 0.0
C1165 C 0.939 0.4457 0.80089 0.0
C1166 C 0.93107 0.30303 0.87546 0.0
C1167 C 0.93059 0.32283 0.86792 0.0
C1168 C 0.94053 0.36292 0.81497 0.0
C1169 C 0.93441 0.41464 0.82657 0.0
C1170 C 0.93424 0.39336 0.8226 0.0
C1171 C 0.93433 0.33156 0.83026 0.0
C1172 C 0.9342 0.35277 0.8245 0.0
H1173 H 0.9284 0.45049 0.89876 0.0
H1174 H 0.92758 0.4157 0.88886 0.0
H1175 H 0.94557 0.3904 0.80856 0.0
H1176 H 0.94214 0.29151 0.78356 0.0
H1177 H 0.94133 0.32625 0.77017 0.0
C1178 C 0.81332 0.4413 0.92577 0.0
C1179 C 0.81709 0.45052 0.88922 0.0
C1180 C 0.81373 0.42136 0.93111 0.0
C1181 C 0.82458 0.37896 0.89798 0.0
H1182 H 0.80703 0.35094 0.92131 0.0
C1183 C 0.82193 0.2973 0.86831 0.0
C1184 C 0.81781 0.28674 0.90077 0.0
C1185 C 0.82224 0.31732 0.8714 0.0
C1186 C 0.812 0.35856 0.91555 0.0
H1187 H 0.82427 0.44646 0.82979 0.0
H1188 H 0.82497 0.41152 0.83867 0.0
H1189 H 0.80681 0.38593 0.91809 0.0
H1190 H 0.8109 0.28849 0.96226 0.0
H1191 H 0.81144 0.32362 0.96791 0.0
H1192 H 0.82974 0.35152 0.89466 0.0
C1193 C 0.82177 0.41965 0.86367 0.0
C1194 C 0.81187 0.37862 0.91367 0.0
C1195 C 0.82135 0.4396 0.8584 0.0
C1196 C 0.81408 0.29643 0.93676 0.0
C1197 C 0.81438 0.31647 0.93985 0.0
C1198 C 0.8247 0.35889 0.89982 0.0
C1199 C 0.81793 0.4103 0.89995 0.0
C1200 C 0.81815 0.38904 0.90437 0.0
C1201 C 0.81842 0.32714 0.90691 0.0
C1202 C 0.8184 0.34847 0.90812 0.0
H1203 H 0.81008 0.44953 0.95033 0.0
H1204 H 0.81079 0.41463 0.95981 0.0
H1205 H 0.82953 0.3866 0.89156 0.0
H1206 H 0.82476 0.29011 0.83979 0.0
H1207 H 0.82531 0.32513 0.84504 0.0
C1208 C 0.06452 0.04856 0.57037 0.0
C1209 C 0.06815 0.0381 0.60548 0.0
C1210 C 0.06476 0.06862 0.57037 0.0
C1211 C 0.07488 0.11009 0.61679 0.0
H1212 H 0.057 0.13728 0.59942 0.0
C1213 C 0.07163 0.19104 0.65757 0.0
C1214 C 0.06741 0.20175 0.62604 0.0
C1215 C 0.07199 0.17105 0.65336 0.0
C1216 C 0.06206 0.12993 0.60371 0.0
H1217 H 0.07484 0.04007 0.66806 0.0
H1218 H 0.0753 0.07519 0.66812 0.0
H1219 H 0.05723 0.10235 0.59387 0.0
H1220 H 0.06045 0.20041 0.56469 0.0
H1221 H 0.06109 0.16549 0.55695 0.0
H1222 H 0.0797 0.13771 0.62682 0.0
C1223 C 0.07236 0.06795 0.6402 0.0
C1224 C 0.06219 0.10992 0.60049 0.0
C1225 C 0.07209 0.0479 0.64023 0.0
C1226 C 0.06365 0.19232 0.58985 0.0
C1227 C 0.06401 0.17237 0.58552 0.0
C1228 C 0.07476 0.13013 0.61989 0.0
C1229 C 0.06864 0.07852 0.60553 0.0
C1230 C 0.06859 0.0998 0.60718 0.0
C1231 C 0.06814 0.1615 0.61741 0.0
C1232 C 0.06834 0.14025 0.61354 0.0
H1233 H 0.06148 0.0412 0.54313 0.0
H1234 H 0.06192 0.0764 0.54291 0.0
H1235 H 0.07991 0.10266 0.62157 0.0
H1236 H 0.07457 0.19814 0.68575 0.0
H1237 H 0.07516 0.16304 0.67877 0.0
C1238 C 0.18242 0.05446 0.61302 0.0
C1239 C 0.18674 0.0433 0.64302 0.0
C1240 C 0.18199 0.07434 0.61932 0.0
C1241 C 0.19192 0.11518 0.66921 0.0
H1242 H 0.17392 0.14201 0.65367 0.0
C1243 C 0.18982 0.19755 0.68934 0.0
C1244 C 0.18587 0.20695 0.65392 0.0
C1245 C 0.18952 0.17754 0.69365 0.0
C1246 C 0.17899 0.13473 0.65786 0.0
H1247 H 0.1939 0.0439 0.70339 0.0
H1248 H 0.19317 0.07876 0.71451 0.0
H1249 H 0.17419 0.10695 0.6505 0.0
H1250 H 0.17846 0.2031 0.59564 0.0
H1251 H 0.17793 0.16816 0.60288 0.0
H1252 H 0.19674 0.14293 0.6756 0.0
C1253 C 0.19017 0.0722 0.68587 0.0
C1254 C 0.17915 0.11466 0.65603 0.0
C1255 C 0.19059 0.05229 0.67959 0.0
C1256 C 0.18149 0.19614 0.62358 0.0
C1257 C 0.18118 0.17616 0.62785 0.0
C1258 C 0.19176 0.13525 0.67098 0.0
C1259 C 0.18588 0.08345 0.65569 0.0
C1260 C 0.18563 0.10467 0.661 0.0
C1261 C 0.18526 0.1666 0.66257 0.0
C1262 C 0.18531 0.14526 0.66464 0.0
H1263 H 0.17947 0.04781 0.58423 0.0
H1264 H 0.17873 0.08263 0.59499 0.0
H1265 H 0.19701 0.10792 0.6726 0.0
H1266 H 0.19318 0.20568 0.7134 0.0
H1267 H 0.19265 0.17062 0.72116 0.0
C1268 C 0.94015 0.94548 0.31183 0.0
C1269 C 0.93639 0.95453 0.34874 0.0
C1270 C 0.93981 0.92552 0.30628 0.0
C1271 C 0.92922 0.88265 0.33957 0.0
H1272 H 0.94704 0.85536 0.32033 0.0
C1273 C 0.93211 0.80146 0.37446 0.0
C1274 C 0.93645 0.79069 0.34379 0.0
C1275 C 0.93177 0.82144 0.37022 0.0
C1276 C 0.942 0.86275 0.32492 0.0
H1277 H 0.92927 0.95011 0.40837 0.0
H1278 H 0.92865 0.91522 0.39882 0.0
H1279 H 0.94698 0.8904 0.32116 0.0
H1280 H 0.94376 0.79207 0.28435 0.0
H1281 H 0.94317 0.8271 0.27656 0.0
H1282 H 0.92425 0.855 0.34393 0.0
C1283 C 0.9318 0.92349 0.37381 0.0
C1284 C 0.94197 0.88284 0.32541 0.0
C1285 C 0.93217 0.94342 0.37941 0.0
C1286 C 0.94041 0.80016 0.30855 0.0
C1287 C 0.94008 0.82017 0.30423 0.0
C1288 C 0.92925 0.86257 0.33898 0.0
C1289 C 0.93567 0.91429 0.33746 0.0
C1290 C 0.9356 0.89301 0.33342 0.0
C1291 C 0.93578 0.83105 0.33522 0.0
C1292 C 0.93566 0.85238 0.33233 0.0
H1293 H 0.94337 0.95384 0.28741 0.0
H1294 H 0.94277 0.91889 0.27757 0.0
H1295 H 0.92421 0.89009 0.34503 0.0
H1296 H 0.92908 0.79445 0.40237 0.0
H1297 H 0.92851 0.8294 0.39521 0.0
C1298 C 0.81455 0.94609 0.43958 0.0
C1299 C 0.81858 0.95594 0.40532 0.0
C1300 C 0.81486 0.92605 0.44243 0.0
C1301 C 0.82539 0.8836 0.4038 0.0
H1302 H 0.80731 0.85693 0.41689 0.0
C1303 C 0.8218 0.80335 0.35752 0.0
C1304 C 0.81754 0.79227 0.38799 0.0
C1305 C 0.82225 0.82326 0.36354 0.0
C1306 C 0.81242 0.86415 0.41386 0.0
H1307 H 0.82614 0.95285 0.34757 0.0
H1308 H 0.82666 0.91784 0.35216 0.0
H1309 H 0.80764 0.89188 0.42156 0.0
H1310 H 0.81047 0.793 0.44889 0.0
H1311 H 0.8112 0.82786 0.45942 0.0
H1312 H 0.83013 0.8558 0.39511 0.0
C1313 C 0.82335 0.92551 0.37743 0.0
C1314 C 0.81261 0.88418 0.41664 0.0
C1315 C 0.82305 0.94554 0.3747 0.0
C1316 C 0.81374 0.80134 0.42467 0.0
C1317 C 0.81416 0.82124 0.43064 0.0
C1318 C 0.82519 0.86355 0.40088 0.0
C1319 C 0.81919 0.91551 0.41091 0.0
C1320 C 0.81909 0.89416 0.41117 0.0
C1321 C 0.81841 0.83242 0.40007 0.0
C1322 C 0.81869 0.85363 0.40543 0.0
H1323 H 0.8111 0.9539 0.46374 0.0
H1324 H 0.81166 0.9188 0.46908 0.0
H1325 H 0.83048 0.89083 0.40018 0.0
H1326 H 0.82472 0.79663 0.3287 0.0
H1327 H 0.82548 0.83152 0.33899 0.0
C1328 C 0.56304 0.69284 0.68775 0.0
C1329 C 0.56727 0.70193 0.65322 0.0
C1330 C 0.56336 0.6729 0.69369 0.0
C1331 C 0.57449 0.63023 0.6665 0.0
H1332 H 0.55662 0.60245 0.6775 0.0
C1333 C 0.57201 0.54929 0.62708 0.0
C1334 C 0.56739 0.53826 0.65531 0.0
C1335 C 0.57235 0.56921 0.63282 0.0
C1336 C 0.56167 0.60999 0.67527 0.0
H1337 H 0.5751 0.69752 0.59768 0.0
H1338 H 0.57567 0.66268 0.60781 0.0
H1339 H 0.55655 0.63748 0.67667 0.0
H1340 H 0.55968 0.53909 0.71262 0.0
H1341 H 0.56026 0.57404 0.7228 0.0
H1342 H 0.57959 0.6027 0.66416 0.0
C1343 C 0.5722 0.67091 0.63093 0.0
C1344 C 0.56163 0.63008 0.67478 0.0
C1345 C 0.57187 0.69083 0.625 0.0
C1346 C 0.56322 0.54739 0.69008 0.0
C1347 C 0.56355 0.56734 0.69582 0.0
C1348 C 0.57453 0.61014 0.66698 0.0
C1349 C 0.56792 0.6617 0.66516 0.0
C1350 C 0.56803 0.64042 0.66961 0.0
C1351 C 0.56807 0.57849 0.66692 0.0
C1352 C 0.56811 0.59979 0.6706 0.0
H1353 H 0.5595 0.70118 0.71017 0.0
H1354 H 0.56006 0.66626 0.7207 0.0
H1355 H 0.57952 0.63779 0.66335 0.0
H1356 H 0.57522 0.54255 0.59968 0.0
H1357 H 0.57581 0.57739 0.6095 0.0
C1358 C 0.68995 0.54966 0.68768 0.0
C1359 C 0.68603 0.541 0.65094 0.0
C1360 C 0.68961 0.56953 0.6947 0.0
C1361 C 0.67884 0.61261 0.66575 0.0
H1362 H 0.69671 0.63995 0.68238 0.0
C1363 C 0.68182 0.6933 0.62669 0.0
C1364 C 0.68622 0.70433 0.65638 0.0
C1365 C 0.68142 0.6734 0.63245 0.0
C1366 C 0.69166 0.63253 0.6786 0.0
H1367 H 0.67869 0.54605 0.5928 0.0
H1368 H 0.67809 0.58078 0.60485 0.0
H1369 H 0.69667 0.6049 0.68114 0.0
H1370 H 0.69351 0.70353 0.71606 0.0
H1371 H 0.69284 0.66858 0.72625 0.0
H1372 H 0.67385 0.64026 0.66221 0.0
C1373 C 0.68134 0.57227 0.62876 0.0
C1374 C 0.69164 0.61244 0.67787 0.0
C1375 C 0.68169 0.55243 0.62173 0.0
C1376 C 0.69014 0.69522 0.69243 0.0
C1377 C 0.68976 0.67528 0.69819 0.0
C1378 C 0.67886 0.63269 0.66649 0.0
C1379 C 0.68533 0.58106 0.66511 0.0
C1380 C 0.68525 0.60228 0.67052 0.0
C1381 C 0.68542 0.66414 0.66803 0.0
C1382 C 0.68529 0.64287 0.672 0.0
H1383 H 0.69328 0.54104 0.71088 0.0
H1384 H 0.69269 0.57587 0.72328 0.0
H1385 H 0.67382 0.60517 0.66091 0.0
H1386 H 0.6788 0.70003 0.59834 0.0
H1387 H 0.67812 0.66521 0.60813 0.0
C1388 C 0.43072 0.44092 0.4093 0.0
C1389 C 0.43479 0.44998 0.37396 0.0
C1390 C 0.43048 0.42087 0.41187 0.0
C1391 C 0.44103 0.37863 0.3771 0.0
H1392 H 0.42383 0.34999 0.40671 0.0
C1393 C 0.43985 0.29662 0.36205 0.0
C1394 C 0.43651 0.28658 0.39914 0.0
C1395 C 0.43935 0.31657 0.35954 0.0
C1396 C 0.42868 0.35785 0.39891 0.0
H1397 H 0.44148 0.44565 0.31221 0.0
H1398 H 0.44104 0.41057 0.31616 0.0
H1399 H 0.4233 0.38503 0.39984 0.0
H1400 H 0.42999 0.28915 0.46235 0.0
H1401 H 0.42912 0.32433 0.45816 0.0
H1402 H 0.44642 0.35156 0.37604 0.0
C1403 C 0.43816 0.41884 0.34258 0.0
C1404 C 0.42838 0.37787 0.39494 0.0
C1405 C 0.4384 0.43885 0.34015 0.0
C1406 C 0.4326 0.29671 0.43345 0.0
C1407 C 0.43208 0.31674 0.43091 0.0
C1408 C 0.44133 0.35869 0.38098 0.0
C1409 C 0.43431 0.40964 0.37899 0.0
C1410 C 0.43455 0.38844 0.38365 0.0
C1411 C 0.4355 0.32685 0.39405 0.0
C1412 C 0.43515 0.34808 0.39158 0.0
H1413 H 0.4279 0.44934 0.43575 0.0
H1414 H 0.42751 0.41418 0.44049 0.0
H1415 H 0.44591 0.38641 0.36946 0.0
H1416 H 0.44279 0.28899 0.33477 0.0
H1417 H 0.44193 0.32395 0.33027 0.0
C1418 C 0.31435 0.2972 0.31425 0.0
C1419 C 0.31822 0.28858 0.35124 0.0
C1420 C 0.31475 0.31704 0.30678 0.0
C1421 C 0.32552 0.36024 0.33582 0.0
H1422 H 0.30767 0.38738 0.3165 0.0
C1423 C 0.32219 0.44105 0.37333 0.0
C1424 C 0.31783 0.4519 0.34295 0.0
C1425 C 0.32273 0.42116 0.36768 0.0
C1426 C 0.31272 0.38002 0.32104 0.0
H1427 H 0.32562 0.29363 0.40901 0.0
H1428 H 0.32631 0.32833 0.39635 0.0
H1429 H 0.30774 0.35237 0.31861 0.0
H1430 H 0.31075 0.45079 0.2822 0.0
H1431 H 0.31165 0.41586 0.2722 0.0
H1432 H 0.33047 0.38795 0.3394 0.0
C1433 C 0.32304 0.31982 0.37261 0.0
C1434 C 0.31276 0.35994 0.32225 0.0
C1435 C 0.32263 0.29999 0.38004 0.0
C1436 C 0.3141 0.44262 0.30627 0.0
C1437 C 0.31461 0.4227 0.30064 0.0
C1438 C 0.32548 0.38033 0.33465 0.0
C1439 C 0.31905 0.3286 0.33618 0.0
C1440 C 0.31914 0.34983 0.33051 0.0
C1441 C 0.31888 0.41173 0.33159 0.0
C1442 C 0.31906 0.39044 0.32811 0.0
H1443 H 0.31099 0.28858 0.29124 0.0
H1444 H 0.31169 0.32333 0.27803 0.0
H1445 H 0.33054 0.35286 0.34136 0.0
H1446 H 0.32505 0.4479 0.40224 0.0
H1447 H 0.32597 0.4131 0.39259 0.0
C1448 C 0.57181 0.19188 0.1189 0.0
C1449 C 0.56764 0.203 0.14989 0.0
C1450 C 0.57222 0.17198 0.12467 0.0
C1451 C 0.5623 0.1312 0.17481 0.0
H1452 H 0.58004 0.10378 0.15329 0.0
C1453 C 0.56413 0.0485 0.18941 0.0
C1454 C 0.56785 0.03933 0.15252 0.0
C1455 C 0.56449 0.06847 0.19462 0.0
C1456 C 0.57504 0.11123 0.15916 0.0
H1457 H 0.56074 0.20232 0.21157 0.0
H1458 H 0.56143 0.16738 0.22184 0.0
H1459 H 0.57997 0.13887 0.15262 0.0
H1460 H 0.57491 0.04356 0.09248 0.0
H1461 H 0.57555 0.07845 0.10129 0.0
H1462 H 0.55734 0.10358 0.18044 0.0
C1463 C 0.56434 0.17401 0.19283 0.0
C1464 C 0.575 0.13132 0.15878 0.0
C1465 C 0.56394 0.19395 0.18706 0.0
C1466 C 0.57205 0.05034 0.12147 0.0
C1467 C 0.57242 0.07028 0.12665 0.0
C1468 C 0.56234 0.11111 0.17518 0.0
C1469 C 0.56845 0.16279 0.1615 0.0
C1470 C 0.56861 0.14152 0.16584 0.0
C1471 C 0.5686 0.0796 0.16304 0.0
C1472 C 0.56869 0.1009 0.1666 0.0
H1473 H 0.57463 0.19856 0.08958 0.0
H1474 H 0.57534 0.16372 0.09944 0.0
H1475 H 0.55728 0.13862 0.17981 0.0
H1476 H 0.56093 0.04022 0.2141 0.0
H1477 H 0.56156 0.0752 0.22336 0.0
C1478 C 0.69044 0.05001 0.19023 0.0
C1479 C 0.68647 0.04095 0.15435 0.0
C1480 C 0.69007 0.06995 0.19614 0.0
C1481 C 0.6791 0.11251 0.16583 0.0
H1482 H 0.69689 0.14044 0.1799 0.0
C1483 C 0.68172 0.19303 0.12311 0.0
C1484 C 0.68617 0.20434 0.15186 0.0
C1485 C 0.68138 0.17316 0.1298 0.0
C1486 C 0.69186 0.13286 0.17682 0.0
H1487 H 0.67904 0.04537 0.09637 0.0
H1488 H 0.67838 0.08018 0.10651 0.0
H1489 H 0.69698 0.1054 0.18029 0.0
H1490 H 0.69357 0.20409 0.21093 0.0
H1491 H 0.693 0.16923 0.22277 0.0
H1492 H 0.674 0.13998 0.1614 0.0
C1493 C 0.68168 0.07194 0.13067 0.0
C1494 C 0.69191 0.11278 0.17703 0.0
C1495 C 0.68207 0.05205 0.12473 0.0
C1496 C 0.69017 0.19556 0.18799 0.0
C1497 C 0.68984 0.17566 0.19469 0.0
C1498 C 0.67904 0.13259 0.16565 0.0
C1499 C 0.68571 0.08113 0.16626 0.0
C1500 C 0.68555 0.10239 0.17063 0.0
C1501 C 0.68548 0.16423 0.16539 0.0
C1502 C 0.68544 0.14298 0.17024 0.0
H1503 H 0.69382 0.04167 0.2137 0.0
H1504 H 0.69318 0.0766 0.22415 0.0
H1505 H 0.67409 0.10489 0.16171 0.0
H1506 H 0.67864 0.1995 0.0947 0.0
H1507 H 0.67806 0.16474 0.10613 0.0
C1508 C 0.43178 0.94408 0.92442 0.0
C1509 C 0.43614 0.95418 0.89245 0.0
C1510 C 0.43146 0.92402 0.92262 0.0
C1511 C 0.44177 0.88231 0.88057 0.0
H1512 H 0.4239 0.85469 0.89372 0.0
C1513 C 0.43978 0.80146 0.84348 0.0
C1514 C 0.43593 0.79044 0.87639 0.0
C1515 C 0.43948 0.82148 0.84512 0.0
C1516 C 0.42893 0.86223 0.89044 0.0
H1517 H 0.44331 0.95167 0.83242 0.0
H1518 H 0.44275 0.91666 0.829 0.0
H1519 H 0.42396 0.88982 0.89766 0.0
H1520 H 0.42871 0.79135 0.93644 0.0
H1521 H 0.42817 0.82651 0.93953 0.0
H1522 H 0.44675 0.85483 0.87332 0.0
C1523 C 0.43971 0.92408 0.85615 0.0
C1524 C 0.42897 0.8823 0.89274 0.0
C1525 C 0.44003 0.94407 0.85802 0.0
C1526 C 0.43168 0.79965 0.9105 0.0
C1527 C 0.43136 0.81971 0.91216 0.0
C1528 C 0.44173 0.8623 0.87822 0.0
C1529 C 0.43548 0.91382 0.88871 0.0
C1530 C 0.43539 0.89254 0.88751 0.0
C1531 C 0.43533 0.83081 0.87978 0.0
C1532 C 0.43531 0.85206 0.88284 0.0
H1533 H 0.42873 0.95171 0.95115 0.0
H1534 H 0.42819 0.91648 0.94835 0.0
H1535 H 0.44682 0.88978 0.87738 0.0
H1536 H 0.44303 0.79457 0.81653 0.0
H1537 H 0.4425 0.82966 0.81921 0.0
C1538 C 0.31454 0.79601 0.80965 0.0
C1539 C 0.31822 0.78633 0.84592 0.0
C1540 C 0.31495 0.81602 0.80596 0.0
C1541 C 0.32543 0.85838 0.84547 0.0
H1542 H 0.30765 0.88578 0.82582 0.0
C1543 C 0.32209 0.93891 0.8887 0.0
C1544 C 0.31793 0.9501 0.85784 0.0
C1545 C 0.32252 0.91901 0.88256 0.0
C1546 C 0.31268 0.87837 0.8306 0.0
H1547 H 0.32529 0.7897 0.90625 0.0
H1548 H 0.326 0.82468 0.90009 0.0
H1549 H 0.30777 0.85079 0.82279 0.0
H1550 H 0.31106 0.94958 0.79597 0.0
H1551 H 0.31179 0.91471 0.78502 0.0
H1552 H 0.33031 0.886 0.85413 0.0
C1553 C 0.32287 0.81688 0.87406 0.0
C1554 C 0.31275 0.8583 0.82883 0.0
C1555 C 0.32246 0.79688 0.87772 0.0
C1556 C 0.31425 0.94115 0.82043 0.0
C1557 C 0.31467 0.92124 0.81427 0.0
C1558 C 0.32536 0.87846 0.84726 0.0
C1559 C 0.31905 0.82671 0.83849 0.0
C1560 C 0.31911 0.84806 0.83685 0.0
C1561 C 0.31877 0.90993 0.84545 0.0
C1562 C 0.31896 0.88867 0.84045 0.0
H1563 H 0.31131 0.78808 0.78444 0.0
H1564 H 0.31203 0.82314 0.77775 0.0
H1565 H 0.33043 0.85093 0.85102 0.0
H1566 H 0.3249 0.94553 0.91813 0.0
H1567 H 0.32563 0.91069 0.90764 0.0
C1568 C 0.02709 0.47383 0.0324 0.0
C1569 C 0.02852 0.48042 0.07868 0.0
C1570 C 0.0205 0.47758 0.01089 0.0
C1571 C 1.00181 0.48993 0.04005 0.0
H1572 H 1.0007 0.50397 0.90675 0.0
C1573 C 0.97575 0.51694 0.95265 0.0
C1574 C 0.97417 0.51017 0.90676 0.0
C1575 C 0.98235 0.51297 0.97363 0.0
C1576 C 1.00091 0.49985 0.94388 0.0
H1577 H 0.02415 0.49598 0.1388 0.0
H1578 H 0.0127 0.50273 0.10117 0.0
H1579 H 0.01232 0.49798 0.94301 0.0
H1580 H 0.97831 0.49419 0.84659 0.0
H1581 H 0.98982 0.48714 0.88328 0.0
H1582 H 0.99041 0.49186 0.04096 0.0
C1583 C 0.01664 0.49452 0.08157 0.0
C1584 C 0.00757 0.49642 0.96467 0.0
C1585 C 0.02321 0.49075 0.10304 0.0
C1586 C 0.97936 0.49953 0.8821 0.0
C1587 C 0.98597 0.49558 0.90303 0.0
C1588 C 0.99515 0.49338 0.01929 0.0
C1589 C 0.01518 0.48789 0.03532 0.0
C1590 C 0.0081 0.49146 0.01304 0.0
C1591 C 0.98755 0.50228 0.94902 0.0
C1592 C 0.99463 0.49841 0.97097 0.0
H1593 H 0.03095 0.46524 0.01328 0.0
H1594 H 0.01951 0.47195 0.97559 0.0
H1595 H 0.00201 0.48581 0.07719 0.0
H1596 H 0.972 0.52582 0.97192 0.0
H1597 H 0.98346 0.51869 0.00871 0.0
C1598 C 0.22969 0.74803 0.10359 0.0
C1599 C 0.22459 0.75981 0.08144 0.0
C1600 C 0.23623 0.74431 0.08162 0.0
C1601 C 0.2486 0.76378 0.99153 0.0
H1602 H 0.25687 0.7127 0.9965 0.0
C1603 C 0.27394 0.74291 0.88601 0.0
C1604 C 0.279 0.73139 0.90948 0.0
C1605 C 0.26729 0.74653 0.90669 0.0
C1606 C 0.25467 0.72709 0.99525 0.0
H1607 H 0.2225 0.77764 0.01966 0.0
H1608 H 0.23382 0.77072 0.98063 0.0
H1609 H 0.24522 0.7185 0.03241 0.0
H1610 H 0.2809 0.7139 0.97209 0.0
H1611 H 0.26939 0.72064 0.0088 0.0
H1612 H 0.25806 0.77236 0.9544 0.0
C1613 C 0.23275 0.76429 0.015 0.0
C1614 C 0.24799 0.73042 0.0158 0.0
C1615 C 0.2262 0.76799 0.03701 0.0
C1616 C 0.27723 0.72336 0.95379 0.0
C1617 C 0.27058 0.72694 0.97445 0.0
C1618 C 0.25528 0.76045 0.97095 0.0
C1619 C 0.23785 0.75244 0.0371 0.0
C1620 C 0.24489 0.74881 0.01432 0.0
C1621 C 0.26552 0.73854 0.95111 0.0
C1622 C 0.2584 0.74208 0.97271 0.0
H1623 H 0.22862 0.74166 0.13805 0.0
H1624 H 0.24008 0.73537 0.09998 0.0
H1625 H 0.24641 0.77819 0.99039 0.0
H1626 H 0.27513 0.74914 0.85158 0.0
H1627 H 0.26349 0.7553 0.88745 0.0
C1628 C 0.97519 0.74146 0.28695 0.0
C1629 C 0.97478 0.7302 0.32835 0.0
C1630 C 0.98177 0.74458 0.26459 0.0
C1631 C 1.00115 0.74407 0.28888 0.0
H1632 H 0.00288 0.74361 0.15141 0.0
C1633 C 0.02847 0.74687 0.19449 0.0
C1634 C 0.02904 0.75905 0.15483 0.0
C1635 C 0.02182 0.74313 0.21499 0.0
C1636 C 0.00247 0.74397 0.18984 0.0
H1637 H 0.98092 0.7134 0.3788 0.0
H1638 H 0.99235 0.71865 0.33963 0.0
H1639 H 0.9913 0.73743 0.1882 0.0
H1640 H 0.02309 0.77621 0.1042 0.0
H1641 H 0.01145 0.76979 0.14011 0.0
H1642 H 0.01231 0.7506 0.29058 0.0
C1643 C 0.98762 0.72524 0.3246 0.0
C1644 C 0.99583 0.74044 0.21091 0.0
C1645 C 0.98107 0.72216 0.34693 0.0
C1646 C 0.0228 0.76692 0.1351 0.0
C1647 C 0.01614 0.76316 0.15551 0.0
C1648 C 0.00778 0.74757 0.26784 0.0
C1649 C 0.98807 0.7366 0.28334 0.0
C1650 C 0.9951 0.74041 0.2607 0.0
C1651 C 0.01558 0.75131 0.19587 0.0
C1652 C 0.00852 0.74754 0.21809 0.0
H1653 H 0.97051 0.74843 0.27263 0.0
H1654 H 0.98194 0.7537 0.23336 0.0
H1655 H 1.00075 0.74452 0.32731 0.0
H1656 H 0.03316 0.73997 0.20922 0.0
H1657 H 0.02155 0.73359 0.24539 0.0
C1658 C 0.27667 0.51765 0.29499 0.0
C1659 C 0.2787 0.50667 0.33469 0.0
C1660 C 0.27004 0.5147 0.27326 0.0
C1661 C 0.2553 0.47942 0.26279 0.0
H1662 H 0.24421 0.52393 0.22485 0.0
C1663 C 0.2259 0.47315 0.20164 0.0
C1664 C 0.22392 0.4842 0.16194 0.0
C1665 C 0.23252 0.47606 0.22366 0.0
C1666 C 0.24726 0.51134 0.23484 0.0
H1667 H 0.27535 0.48406 0.3829 0.0
H1668 H 0.26379 0.47901 0.34534 0.0
H1669 H 0.256 0.52841 0.25975 0.0
H1670 H 0.22732 0.50686 0.11406 0.0
H1671 H 0.23885 0.51182 0.1521 0.0
H1672 H 0.24656 0.46235 0.23784 0.0
C1673 C 0.26735 0.48969 0.33042 0.0
C1674 C 0.25403 0.51391 0.25474 0.0
C1675 C 0.27396 0.49268 0.35215 0.0
C1676 C 0.22868 0.49819 0.14479 0.0
C1677 C 0.23527 0.50113 0.16681 0.0
C1678 C 0.24852 0.47685 0.24287 0.0
C1679 C 0.26529 0.50074 0.29088 0.0
C1680 C 0.25813 0.49798 0.26894 0.0
C1681 C 0.23729 0.49004 0.20636 0.0
C1682 C 0.24443 0.49278 0.22861 0.0
H1683 H 0.28009 0.52893 0.28147 0.0
H1684 H 0.26863 0.52339 0.24271 0.0
H1685 H 0.25835 0.46683 0.27276 0.0
H1686 H 0.22247 0.46187 0.21494 0.0
H1687 H 0.2339 0.46732 0.25421 0.0
C1688 C 0.7727 0.21969 0.89938 0.0
C1689 C 0.77904 0.22741 0.91802 0.0
C1690 C 0.76617 0.2229 0.92196 0.0
C1691 C 0.75801 0.23876 0.03568 0.0
H1692 H 0.74164 0.24918 0.95523 0.0
C1693 C 0.73118 0.26778 0.10871 0.0
C1694 C 0.7249 0.25996 0.08954 0.0
C1695 C 0.73783 0.26332 0.08895 0.0
C1696 C 0.74614 0.24609 0.97819 0.0
H1697 H 0.78346 0.24502 0.97441 0.0
H1698 H 0.77206 0.25066 0.01395 0.0
H1699 H 0.75317 0.24236 0.91903 0.0
H1700 H 0.72068 0.24018 0.037 0.0
H1701 H 0.73227 0.23269 0.00174 0.0
H1702 H 0.75095 0.24277 0.09487 0.0
C1703 C 0.77216 0.24168 0.98248 0.0
C1704 C 0.75275 0.24214 0.95746 0.0
C1705 C 0.77872 0.23836 0.95994 0.0
C1706 C 0.7254 0.2471 0.05117 0.0
C1707 C 0.73205 0.2427 0.03124 0.0
C1708 C 0.75139 0.2428 0.05644 0.0
C1709 C 0.7658 0.23413 0.96348 0.0
C1710 C 0.75877 0.23837 0.9859 0.0
C1711 C 0.73833 0.25084 0.04974 0.0
C1712 C 0.74537 0.24647 0.02791 0.0
H1713 H 0.77279 0.21115 0.86716 0.0
H1714 H 0.76141 0.21658 0.90676 0.0
H1715 H 0.76251 0.23568 0.05865 0.0
H1716 H 0.73095 0.27758 0.13863 0.0
H1717 H 0.74256 0.26992 0.10385 0.0
C1718 C 0.02432 0.24638 0.64718 0.0
C1719 C 0.0291 0.2603 0.66439 0.0
C1720 C 0.0177 0.24361 0.66892 0.0
C1721 C 0.00769 0.25244 0.78008 0.0
H1722 H 0.99116 0.24453 0.69936 0.0
C1723 C 0.97906 0.25108 0.8556 0.0
C1724 C 0.97436 0.23714 0.83747 0.0
C1725 C 0.98567 0.25432 0.83411 0.0
C1726 C 0.99573 0.24651 0.72243 0.0
H1727 H 0.03055 0.28272 0.71714 0.0
H1728 H 0.01902 0.27776 0.75552 0.0
H1729 H 0.00286 0.24928 0.66338 0.0
H1730 H 0.97306 0.21515 0.78348 0.0
H1731 H 0.98457 0.22089 0.74567 0.0
H1732 H 1.00056 0.24961 0.83915 0.0
C1733 C 0.02047 0.26867 0.72575 0.0
C1734 C 0.00244 0.24924 0.70181 0.0
C1735 C 0.02711 0.27144 0.70392 0.0
C1736 C 0.97643 0.22645 0.79738 0.0
C1737 C 0.98306 0.22967 0.77587 0.0
C1738 C 1.00098 0.2497 0.80071 0.0
C1739 C 0.01566 0.25481 0.70827 0.0
C1740 C 0.00851 0.25218 0.73037 0.0
C1741 C 0.98778 0.24358 0.79414 0.0
C1742 C 0.99491 0.24666 0.77214 0.0
H1743 H 0.0257 0.23754 0.61679 0.0
H1744 H 0.01418 0.23262 0.65497 0.0
H1745 H 0.01227 0.25441 0.80311 0.0
H1746 H 0.97762 0.25955 0.8865 0.0
H1747 H 0.98913 0.26532 0.84873 0.0
C1748 C 0.7738 0.49569 0.85633 0.0
C1749 C 0.77871 0.50859 0.83611 0.0
C1750 C 0.76719 0.49237 0.83478 0.0
C1751 C 0.75755 0.49745 0.72058 0.0
H1752 H 0.74071 0.49314 0.80014 0.0
C1753 C 0.72918 0.49666 0.64158 0.0
C1754 C 0.72426 0.48354 0.66084 0.0
C1755 C 0.73576 0.49982 0.66358 0.0
C1756 C 0.74537 0.4941 0.77747 0.0
H1757 H 0.78039 0.52878 0.77841 0.0
H1758 H 0.76889 0.52292 0.74053 0.0
H1759 H 0.75234 0.49833 0.83683 0.0
H1760 H 0.72253 0.46291 0.71756 0.0
H1761 H 0.73398 0.46859 0.75634 0.0
H1762 H 0.75057 0.49327 0.66122 0.0
C1763 C 0.77023 0.51496 0.77243 0.0
C1764 C 0.75204 0.49707 0.79848 0.0
C1765 C 0.77685 0.51825 0.79401 0.0
C1766 C 0.72607 0.4736 0.70265 0.0
C1767 C 0.73267 0.47677 0.72473 0.0
C1768 C 0.75088 0.49451 0.69958 0.0
C1769 C 0.76531 0.50202 0.79265 0.0
C1770 C 0.75821 0.49879 0.77029 0.0
C1771 C 0.7376 0.48983 0.70525 0.0
C1772 C 0.7447 0.49284 0.72776 0.0
H1773 H 0.77508 0.48805 0.88883 0.0
H1774 H 0.76358 0.48213 0.85099 0.0
H1775 H 0.7622 0.4984 0.69786 0.0
H1776 H 0.72794 0.50455 0.60939 0.0
H1777 H 0.73939 0.51018 0.64799 0.0
C1778 C 0.02338 0.9694 0.59247 0.0
C1779 C 0.02968 0.97779 0.57505 0.0
C1780 C 0.01685 0.97282 0.57022 0.0
C1781 C 0.00865 0.99056 0.4585 0.0
H1782 H 0.99216 -0.00147 0.53963 0.0
C1783 C 0.98161 0.01905 0.38792 0.0
C1784 C 0.97539 0.01043 0.40592 0.0
C1785 C 0.98828 0.01475 0.40745 0.0
C1786 C 0.9967 0.99613 0.51646 0.0
H1787 H 0.03402 -0.00317 0.52124 0.0
H1788 H 0.0226 0.00281 0.48222 0.0
H1789 H 0.00373 0.99169 0.57531 0.0
H1790 H 0.97137 0.98946 0.4564 0.0
H1791 H 0.98298 0.98227 0.49117 0.0
H1792 H 1.00159 0.99524 0.39964 0.0
C1793 C 0.02275 0.99316 0.51245 0.0
C1794 C 0.00333 0.99218 0.53689 0.0
C1795 C 0.02931 0.98965 0.53468 0.0
C1796 C 0.976 -0.00299 0.44306 0.0
C1797 C 0.98267 0.99276 0.46274 0.0
C1798 C 0.00201 0.99459 0.43805 0.0
C1799 C 0.01643 0.98492 0.53026 0.0
C1800 C 0.00939 0.98927 0.50819 0.0
C1801 C 0.98888 0.00165 0.44531 0.0
C1802 C 0.99595 -0.00263 0.46682 0.0
H1803 H 0.02351 0.96015 0.62349 0.0
H1804 H 0.01212 0.96595 0.58442 0.0
H1805 H 0.01318 0.98816 0.43532 0.0
H1806 H 0.98132 0.02937 0.3591 0.0
H1807 H 0.99296 0.02194 0.39343 0.0
C1808 C 0.22564 0.24843 0.55375 0.0
C1809 C 0.22489 0.263 0.58793 0.0
C1810 C 0.23231 0.24463 0.53339 0.0
C1811 C 0.25168 0.25114 0.55314 0.0
H1812 H 0.25294 0.24145 0.41754 0.0
C1813 C 0.27867 0.24649 0.45351 0.0
C1814 C 0.27934 0.23198 0.41908 0.0
C1815 C 0.27206 0.25024 0.47466 0.0
C1816 C 0.25267 0.24392 0.45555 0.0
H1817 H 0.23052 0.28452 0.62907 0.0
H1818 H 0.24216 0.27804 0.5933 0.0
H1819 H 0.24135 0.2479 0.45359 0.0
H1820 H 0.27363 0.2104 0.37866 0.0
H1821 H 0.26209 0.21678 0.41577 0.0
H1822 H 0.26301 0.24717 0.55505 0.0
C1823 C 0.23762 0.26953 0.58211 0.0
C1824 C 0.24603 0.24761 0.47622 0.0
C1825 C 0.23095 0.27332 0.60243 0.0
C1826 C 0.27326 0.22157 0.40542 0.0
C1827 C 0.26665 0.22531 0.4265 0.0
C1828 C 0.25833 0.24745 0.53246 0.0
C1829 C 0.23837 0.25519 0.54719 0.0
C1830 C 0.24545 0.25125 0.52527 0.0
C1831 C 0.26597 0.23969 0.46139 0.0
C1832 C 0.25891 0.24376 0.48342 0.0
H1833 H 0.22111 0.23974 0.54336 0.0
H1834 H 0.23273 0.23318 0.50741 0.0
H1835 H 0.25142 0.25361 0.59115 0.0
H1836 H 0.28322 0.25524 0.46329 0.0
H1837 H 0.27168 0.26169 0.50067 0.0
C1838 C 0.27771 0.0177 0.79671 0.0
C1839 C 0.27943 0.00768 0.83859 0.0
C1840 C 0.27113 0.0148 0.77432 0.0
C1841 C 0.2528 -0.00215 0.79862 0.0
H1842 H 0.25145 0.99423 0.66128 0.0
C1843 C 0.22681 0.9753 0.70261 0.0
C1844 C 0.22505 0.98512 0.66055 0.0
C1845 C 0.23342 0.97831 0.72461 0.0
C1846 C 0.25172 0.99544 0.69965 0.0
H1847 H 0.27558 0.98683 0.88989 0.0
H1848 H 0.26414 0.98166 0.85071 0.0
H1849 H 0.26308 -0.00118 0.69852 0.0
H1850 H 0.22884 0.00568 0.60838 0.0
H1851 H 0.24032 0.01109 0.64695 0.0
H1852 H 0.24145 0.99449 0.79978 0.0
C1853 C 0.26785 0.99187 0.83531 0.0
C1854 C 0.25839 -0.00194 0.72098 0.0
C1855 C 0.27442 0.99476 0.85762 0.0
C1856 C 0.23005 -0.00207 0.64083 0.0
C1857 C 0.23664 0.00095 0.6628 0.0
C1858 C 0.24613 0.99525 0.77729 0.0
C1859 C 0.2661 0.00194 0.79355 0.0
C1860 C 0.25901 -0.00074 0.77073 0.0
C1861 C 0.23842 0.99112 0.70485 0.0
C1862 C 0.24551 0.99399 0.72755 0.0
H1863 H 0.28133 0.02825 0.78199 0.0
H1864 H 0.2699 0.02304 0.74266 0.0
H1865 H 0.25307 -0.00095 0.83699 0.0
H1866 H 0.22321 0.96483 0.71782 0.0
H1867 H 0.23467 0.97023 0.75646 0.0
C1868 C 0.7264 0.76917 0.54284 0.0
C1869 C 0.72469 0.76106 0.58717 0.0
C1870 C 0.73305 0.76568 0.5219 0.0
C1871 C 0.74846 0.73249 0.52487 0.0
H1872 H 0.75844 0.77492 0.46489 0.0
C1873 C 0.77766 0.7259 0.46025 0.0
C1874 C 0.7793 0.73429 0.41609 0.0
C1875 C 0.77108 0.72938 0.48205 0.0
C1876 C 0.7557 0.76287 0.48108 0.0
H1877 H 0.72862 0.74319 0.64464 0.0
H1878 H 0.74024 0.73721 0.60829 0.0
H1879 H 0.74672 0.78028 0.50015 0.0
H1880 H 0.77527 0.75266 0.35987 0.0
H1881 H 0.76376 0.75854 0.39754 0.0
H1882 H 0.75743 0.71507 0.50566 0.0
C1883 C 0.7364 0.74597 0.58927 0.0
C1884 C 0.74897 0.76594 0.50123 0.0
C1885 C 0.72977 0.7495 0.61024 0.0
C1886 C 0.77419 0.74611 0.39411 0.0
C1887 C 0.76761 0.74959 0.41586 0.0
C1888 C 0.75519 0.72942 0.50466 0.0
C1889 C 0.73814 0.75409 0.54495 0.0
C1890 C 0.74527 0.75078 0.5233 0.0
C1891 C 0.76596 0.74122 0.46003 0.0
C1892 C 0.75888 0.74456 0.48245 0.0
H1893 H 0.7227 0.77862 0.52481 0.0
H1894 H 0.7342 0.77208 0.48761 0.0
H1895 H 0.74571 0.72045 0.54106 0.0
H1896 H 0.78137 0.71623 0.47748 0.0
H1897 H 0.76999 0.72276 0.51618 0.0
C1898 C 0.7729 0.01816 0.36268 0.0
C1899 C 0.77913 0.01102 0.34121 0.0
C1900 C 0.76621 0.01443 0.34272 0.0
C1901 C 0.75765 0.00025 0.22962 0.0
H1902 H 0.74143 0.98796 0.30981 0.0
C1903 C 0.73114 0.97346 0.15088 0.0
C1904 C 0.72479 0.9809 0.17003 0.0
C1905 C 0.73768 0.97684 0.17309 0.0
C1906 C 0.74589 0.99157 0.28698 0.0
H1907 H 0.78322 0.99325 0.2841 0.0
H1908 H 0.77155 0.98686 0.24887 0.0
H1909 H 0.75303 0.99441 0.34608 0.0
H1910 H 0.72039 -0.00163 0.22682 0.0
H1911 H 0.7318 0.00411 0.26597 0.0
H1912 H 0.75054 -0.00255 0.17055 0.0
C1913 C 0.77184 0.99585 0.28027 0.0
C1914 C 0.75254 0.99527 0.30775 0.0
C1915 C 0.77853 -0.00042 0.30027 0.0
C1916 C 0.72513 0.99184 0.212 0.0
C1917 C 0.73169 0.99525 0.23429 0.0
C1918 C 0.75102 -0.00344 0.20889 0.0
C1919 C 0.7656 0.00333 0.30109 0.0
C1920 C 0.7585 -0.00042 0.27928 0.0
C1921 C 0.73805 0.98791 0.21486 0.0
C1922 C 0.74507 0.99208 0.23727 0.0
H1923 H 0.77322 0.02687 0.39457 0.0
H1924 H 0.76151 0.0205 0.35948 0.0
H1925 H 0.7621 0.00387 0.20671 0.0
H1926 H 0.73105 0.96496 0.11858 0.0
H1927 H 0.74246 0.97073 0.15755 0.0
C1928 C 0.5237 0.49395 0.60594 0.0
C1929 C 0.52868 0.4818 0.58379 0.0
C1930 C 0.51701 0.49717 0.58539 0.0
C1931 C 0.50408 0.47552 0.50253 0.0
H1932 H 0.49599 0.52682 0.49844 0.0
C1933 C 0.47873 0.49318 0.39463 0.0
C1934 C 0.4738 0.50618 0.41423 0.0
C1935 C 0.48532 0.49001 0.41649 0.0
C1936 C 0.49813 0.51236 0.4999 0.0
H1937 H 0.53044 0.46285 0.52367 0.0
H1938 H 0.51883 0.46874 0.48726 0.0
H1939 H 0.50775 0.52187 0.53365 0.0
H1940 H 0.47208 0.52664 0.47134 0.0
H1941 H 0.48346 0.52061 0.51046 0.0
H1942 H 0.49447 0.46596 0.46905 0.0
C1943 C 0.52011 0.47588 0.52043 0.0
C1944 C 0.50487 0.50954 0.51996 0.0
C1945 C 0.52681 0.47275 0.54088 0.0
C1946 C 0.47564 0.51605 0.4561 0.0
C1947 C 0.48223 0.51286 0.47808 0.0
C1948 C 0.49733 0.47832 0.48264 0.0
C1949 C 0.51512 0.48809 0.54251 0.0
C1950 C 0.50794 0.4911 0.52133 0.0
C1951 C 0.48717 0.49984 0.45843 0.0
C1952 C 0.49428 0.49679 0.48087 0.0
H1953 H 0.52497 0.50099 0.63926 0.0
H1954 H 0.51326 0.50645 0.60361 0.0
H1955 H 0.50625 0.46108 0.50379 0.0
H1956 H 0.47751 0.48546 0.36217 0.0
H1957 H 0.48903 0.48013 0.3999 0.0
C1958 C 0.52274 0.77102 0.64426 0.0
C1959 C 0.52896 0.76255 0.66265 0.0
C1960 C 0.51614 0.76798 0.6661 0.0
C1961 C 0.50781 0.75182 0.77878 0.0
H1962 H 0.49122 0.7436 0.69881 0.0
C1963 C 0.48097 0.72439 0.85315 0.0
C1964 C 0.4747 0.73295 0.83578 0.0
C1965 C 0.48757 0.72837 0.83226 0.0
C1966 C 0.49579 0.74609 0.72163 0.0
H1967 H 0.53307 0.74354 0.71729 0.0
H1968 H 0.52157 0.73829 0.75563 0.0
H1969 H 0.50279 0.74979 0.66225 0.0
H1970 H 0.47054 0.75335 0.78438 0.0
H1971 H 0.48203 0.75998 0.74726 0.0
H1972 H 0.5008 0.74792 0.83815 0.0
C1973 C 0.52182 0.74775 0.72505 0.0
C1974 C 0.50242 0.74965 0.7007 0.0
C1975 C 0.52843 0.75084 0.70322 0.0
C1976 C 0.47519 0.74587 0.79746 0.0
C1977 C 0.4818 0.74981 0.7764 0.0
C1978 C 0.50118 0.74819 0.7997 0.0
C1979 C 0.51559 0.75622 0.70663 0.0
C1980 C 0.50852 0.75255 0.72901 0.0
C1981 C 0.48806 0.7411 0.79359 0.0
C1982 C 0.49509 0.74525 0.77136 0.0
H1983 H 0.52297 0.78011 0.61299 0.0
H1984 H 0.51147 0.77495 0.65133 0.0
H1985 H 0.51237 0.75429 0.80165 0.0
H1986 H 0.48078 0.7144 0.88272 0.0
H1987 H 0.49228 0.72127 0.84605 0.0
C1988 C 0.47666 0.22493 0.29582 0.0
C1989 C 0.47498 0.23183 0.3414 0.0
C1990 C 0.48325 0.22916 0.27502 0.0
C1991 C 0.50166 0.24444 0.30527 0.0
H1992 H 0.50288 0.25449 0.16983 0.0
C1993 C 0.52767 0.26937 0.2108 0.0
C1994 C 0.52924 0.26037 0.16725 0.0
C1995 C 0.52111 0.26619 0.23339 0.0
C1996 C 0.50263 0.25156 0.20765 0.0
H1997 H 0.4789 0.24844 0.40115 0.0
H1998 H 0.49036 0.25618 0.36456 0.0
H1999 H 0.49127 0.24886 0.20622 0.0
H2000 H 0.52513 0.24098 0.11333 0.0
H2001 H 0.51373 0.23551 0.15255 0.0
H2002 H 0.51305 0.2473 0.30651 0.0
C2003 C 0.48662 0.24731 0.345 0.0
C2004 C 0.49597 0.2483 0.22852 0.0
C2005 C 0.48004 0.24298 0.36586 0.0
C2006 C 0.5241 0.24817 0.14683 0.0
C2007 C 0.51755 0.24507 0.16919 0.0
C2008 C 0.50832 0.24783 0.28439 0.0
C2009 C 0.48833 0.24038 0.29937 0.0
C2010 C 0.4954 0.24453 0.27753 0.0
C2011 C 0.51596 0.25415 0.21255 0.0
C2012 C 0.50888 0.25124 0.23527 0.0
H2013 H 0.47298 0.21574 0.27674 0.0
H2014 H 0.48444 0.22321 0.24031 0.0
H2015 H 0.50144 0.24132 0.34299 0.0
H2016 H 0.53138 0.27938 0.22678 0.0
H2017 H 0.52 0.27359 0.26646 0.0
C2018 C 0.47935 -0.00194 0.90589 0.0
C2019 C 0.47453 0.01173 0.92387 0.0
C2020 C 0.48594 0.99507 0.92776 0.0
C2021 C 0.49576 0.00138 0.03986 0.0
H2022 H 0.51242 -0.00322 0.9587 0.0
C2023 C 0.52437 -0.00374 0.11635 0.0
C2024 C 0.52912 0.98361 0.09371 0.0
C2025 C 0.51773 0.00042 0.09606 0.0
C2026 C 0.50782 -0.0022 0.9819 0.0
H2027 H 0.473 0.03343 0.9784 0.0
H2028 H 0.48446 0.02786 0.01734 0.0
H2029 H 0.50075 0.00249 0.92324 0.0
H2030 H 0.5305 0.96462 0.03328 0.0
H2031 H 0.51894 0.97177 0.99788 0.0
H2032 H 0.5028 -0.00361 0.09851 0.0
C2033 C 0.48305 0.01925 0.98661 0.0
C2034 C 0.50113 0.00111 0.96155 0.0
C2035 C 0.47645 0.02233 0.96449 0.0
C2036 C 0.52707 0.97495 0.05073 0.0
C2037 C 0.52042 0.97901 0.03055 0.0
C2038 C 0.50245 -0.00205 0.06025 0.0
C2039 C 0.48789 0.00571 0.96818 0.0
C2040 C 0.49502 0.00281 0.99025 0.0
C2041 C 0.51566 0.99182 0.05291 0.0
C2042 C 0.50856 0.99599 0.03148 0.0
H2043 H 0.47803 0.98961 0.87471 0.0
H2044 H 0.48951 0.98434 0.91308 0.0
H2045 H 0.49114 0.00245 0.06286 0.0
H2046 H 0.52581 0.0031 0.14963 0.0
H2047 H 0.51425 0.01051 0.11402 0.0
C2048 C 0.05733 0.41406 0.23032 0.0
C2049 C 0.06399 0.4214 0.21608 0.0
C2050 C 0.05693 0.39792 0.25973 0.0
C2051 C 0.06742 0.3561 0.30037 0.0
H2052 H 0.05432 0.3565 0.40713 0.0
C2053 C 0.07049 0.30779 0.46493 0.0
C2054 C 0.06431 0.30136 0.48845 0.0
C2055 C 0.06995 0.31978 0.42531 0.0
C2056 C 0.05791 0.35597 0.37693 0.0
H2057 H 0.07546 0.41767 0.22216 0.0
H2058 H 0.07475 0.38973 0.27413 0.0
H2059 H 0.05436 0.38332 0.35153 0.0
H2060 H 0.05272 0.30132 0.48663 0.0
H2061 H 0.05181 0.32217 0.4172 0.0
H2062 H 0.07109 0.32893 0.32659 0.0
C2063 C 0.06984 0.39626 0.2618 0.0
C2064 C 0.05794 0.37137 0.34516 0.0
C2065 C 0.07024 0.41239 0.23241 0.0
C2066 C 0.05759 0.30619 0.46968 0.0
C2067 C 0.05706 0.3182 0.43004 0.0
C2068 C 0.06739 0.34068 0.33218 0.0
C2069 C 0.06318 0.38879 0.27553 0.0
C2070 C 0.06279 0.37176 0.30706 0.0
C2071 C 0.06324 0.32557 0.40835 0.0
C2072 C 0.06272 0.34063 0.37126 0.0
H2073 H 0.0524 0.42059 0.21822 0.0
H2074 H 0.05172 0.39241 0.26947 0.0
H2075 H 0.07112 0.35585 0.27077 0.0
H2076 H 0.07575 0.30426 0.47828 0.0
H2077 H 0.07481 0.32533 0.40958 0.0
C2078 C 0.18245 0.82421 0.24398 0.0
C2079 C 0.18882 0.81617 0.2266 0.0
C2080 C 0.18262 0.83918 0.27698 0.0
C2081 C 0.19419 0.87798 0.32156 0.0
H2082 H 0.1806 0.87914 0.42558 0.0
C2083 C 0.19552 0.93198 0.47852 0.0
C2084 C 0.18901 0.93884 0.49674 0.0
C2085 C 0.1956 0.91807 0.44263 0.0
C2086 C 0.18437 0.87917 0.39633 0.0
H2087 H 0.20038 0.81731 0.23121 0.0
H2088 H 0.20066 0.84335 0.28938 0.0
H2089 H 0.18066 0.85195 0.3711 0.0
H2090 H 0.17749 0.93743 0.4892 0.0
H2091 H 0.17765 0.91341 0.42627 0.0
H2092 H 0.19791 0.90522 0.34714 0.0
C2093 C 0.19554 0.83821 0.27683 0.0
C2094 C 0.18441 0.86355 0.3652 0.0
C2095 C 0.19537 0.82319 0.24379 0.0
C2096 C 0.1826 0.93232 0.47636 0.0
C2097 C 0.18269 0.91845 0.44052 0.0
C2098 C 0.19415 0.89362 0.3528 0.0
C2099 C 0.18917 0.84647 0.29346 0.0
C2100 C 0.1893 0.86281 0.32735 0.0
C2101 C 0.18918 0.91077 0.42423 0.0
C2102 C 0.18921 0.89442 0.39037 0.0
H2103 H 0.17731 0.81921 0.23146 0.0
H2104 H 0.17762 0.84537 0.2887 0.0
H2105 H 0.19796 0.87793 0.29234 0.0
H2106 H 0.20056 0.93671 0.49334 0.0
H2107 H 0.20069 0.91239 0.4309 0.0
C2108 C 0.05784 0.82601 0.01227 0.0
C2109 C 0.06454 0.81875 0.02594 0.0
C2110 C 0.05737 0.84224 0.98316 0.0
C2111 C 0.06775 0.88438 0.9432 0.0
H2112 H 0.05463 0.8843 0.83655 0.0
C2113 C 0.0709 0.93286 0.77914 0.0
C2114 C 0.06474 0.93936 0.75555 0.0
C2115 C 0.07033 0.92087 0.81875 0.0
C2116 C 0.05822 0.88475 0.86674 0.0
H2117 H 0.07599 0.82267 0.01901 0.0
H2118 H 0.07515 0.85074 0.96769 0.0
H2119 H 0.05467 0.85732 0.8917 0.0
H2120 H 0.05315 0.93955 0.75727 0.0
H2121 H 0.05219 0.9187 0.82666 0.0
H2122 H 0.07142 0.91162 0.91743 0.0
C2123 C 0.07027 0.8441 0.98023 0.0
C2124 C 0.05825 0.86925 0.89825 0.0
C2125 C 0.07074 0.82789 0.00926 0.0
C2126 C 0.05801 0.93463 0.77428 0.0
C2127 C 0.05744 0.92262 0.8139 0.0
C2128 C 0.06771 0.89989 0.91168 0.0
C2129 C 0.06358 0.85154 0.96718 0.0
C2130 C 0.06312 0.86873 0.93623 0.0
C2131 C 0.0636 0.91516 0.83563 0.0
C2132 C 0.06304 0.90005 0.87259 0.0
H2133 H 0.05295 0.81936 0.02464 0.0
H2134 H 0.05213 0.8477 0.97386 0.0
H2135 H 0.07146 0.88454 0.97275 0.0
H2136 H 0.07617 0.93631 0.76581 0.0
H2137 H 0.07518 0.91525 0.83451 0.0
C2138 C 0.19587 0.33276 0.72166 0.0
C2139 C 0.18921 0.32497 0.70881 0.0
C2140 C 0.19625 0.34914 0.75034 0.0
C2141 C 0.18548 0.39037 0.79322 0.0
H2142 H 0.19905 0.3908 0.8973 0.0
C2143 C 0.18245 0.4372 0.96077 0.0
C2144 C 0.18863 0.44409 0.98337 0.0
C2145 C 0.18297 0.42563 0.92032 0.0
C2146 C 0.19532 0.39112 0.86785 0.0
H2147 H 0.17775 0.32827 0.71635 0.0
H2148 H 0.17843 0.35654 0.76703 0.0
H2149 H 0.19914 0.36427 0.84092 0.0
H2150 H 0.20019 0.44548 0.97895 0.0
H2151 H 0.20108 0.42538 0.9082 0.0
H2152 H 0.18153 0.41697 0.8212 0.0
C2153 C 0.18335 0.35022 0.75418 0.0
C2154 C 0.19537 0.37588 0.83556 0.0
C2155 C 0.18296 0.33388 0.72549 0.0
C2156 C 0.19532 0.44023 0.96277 0.0
C2157 C 0.19584 0.42865 0.92235 0.0
C2158 C 0.18543 0.40561 0.8256 0.0
C2159 C 0.18999 0.35807 0.76684 0.0
C2160 C 0.19036 0.37514 0.79844 0.0
C2161 C 0.18968 0.42073 0.90161 0.0
C2162 C 0.19027 0.40596 0.86377 0.0
H2163 H 0.20079 0.32634 0.70919 0.0
H2164 H 0.20145 0.35494 0.75917 0.0
H2165 H 0.18164 0.39039 0.76442 0.0
H2166 H 0.17721 0.43996 0.97554 0.0
H2167 H 0.17813 0.41966 0.90534 0.0
C2168 C 0.94468 0.57824 0.75906 0.0
C2169 C 0.93819 0.57133 0.7774 0.0
C2170 C 0.94478 0.594 0.72816 0.0
C2171 C 0.93325 0.62084 0.64547 0.0
H2172 H 0.94764 0.66069 0.65669 0.0
C2173 C 0.93218 0.68721 0.52618 0.0
C2174 C 0.9386 0.69192 0.5031 0.0
C2175 C 0.93217 0.67464 0.56487 0.0
C2176 C 0.94361 0.64962 0.65305 0.0
H2177 H 0.92671 0.57568 0.77777 0.0
H2178 H 0.9269 0.60312 0.72434 0.0
H2179 H 0.94762 0.63378 0.71275 0.0
H2180 H 0.9501 0.68821 0.50476 0.0
H2181 H 0.95006 0.66607 0.57192 0.0
H2182 H 0.92929 0.63641 0.58559 0.0
C2183 C 0.93191 0.59623 0.73332 0.0
C2184 C 0.94361 0.6342 0.68501 0.0
C2185 C 0.93181 0.58051 0.7641 0.0
C2186 C 0.94506 0.68482 0.5216 0.0
C2187 C 0.94504 0.67217 0.56025 0.0
C2188 C 0.93325 0.63621 0.61365 0.0
C2189 C 0.93839 0.60314 0.71495 0.0
C2190 C 0.93843 0.61963 0.68146 0.0
C2191 C 0.93857 0.66645 0.58123 0.0
C2192 C 0.93843 0.65077 0.617 0.0
H2193 H 0.9497 0.57152 0.76863 0.0
H2194 H 0.94986 0.59887 0.71412 0.0
H2195 H 0.92927 0.60968 0.64121 0.0
H2196 H 0.92712 0.69262 0.51325 0.0
H2197 H 0.92711 0.67084 0.58103 0.0
C2198 C 0.8076 0.18866 0.71287 0.0
C2199 C 0.81431 0.19243 0.73338 0.0
C2200 C 0.80708 0.17758 0.6716 0.0
C2201 C 0.81748 0.15573 0.57303 0.0
H2202 H 0.80406 0.11366 0.58754 0.0
C2203 C 0.82059 0.08406 0.47373 0.0
C2204 C 0.81444 0.07466 0.45714 0.0
C2205 C 0.82003 0.10055 0.50176 0.0
C2206 C 0.80774 0.12548 0.58238 0.0
H2207 H 0.82574 0.18877 0.72452 0.0
H2208 H 0.8248 0.16932 0.65291 0.0
H2209 H 0.80399 0.13995 0.64456 0.0
H2210 H 0.80285 0.07536 0.45672 0.0
H2211 H 0.80189 0.10421 0.50558 0.0
H2212 H 0.82137 0.14091 0.5115 0.0
C2213 C 0.81996 0.17497 0.66859 0.0
C2214 C 0.80769 0.14059 0.61503 0.0
C2215 C 0.82049 0.18603 0.70987 0.0
C2216 C 0.8077 0.08216 0.46918 0.0
C2217 C 0.80715 0.09868 0.49721 0.0
C2218 C 0.81753 0.14062 0.54029 0.0
C2219 C 0.81324 0.1701 0.64993 0.0
C2220 C 0.81267 0.15565 0.61134 0.0
C2221 C 0.81331 0.10805 0.51381 0.0
C2222 C 0.81277 0.12511 0.54528 0.0
H2223 H 0.80273 0.19354 0.72976 0.0
H2224 H 0.80183 0.17432 0.65754 0.0
H2225 H 0.82131 0.16728 0.56892 0.0
H2226 H 0.82586 0.0787 0.46516 0.0
H2227 H 0.82488 0.10722 0.51471 0.0
C2228 C 0.94567 0.18665 0.02707 0.0
C2229 C 0.93901 0.1919 0.00799 0.0
C2230 C 0.94608 0.17388 0.06533 0.0
C2231 C 0.9355 0.15017 0.16012 0.0
H2232 H 0.9487 0.10795 0.14025 0.0
C2233 C 0.93297 0.07863 0.26129 0.0
C2234 C 0.93927 0.0699 0.27778 0.0
C2235 C 0.93328 0.0945 0.23095 0.0
C2236 C 0.94506 0.11976 0.14674 0.0
H2237 H 0.92755 0.18885 0.01627 0.0
H2238 H 0.92827 0.16654 0.08274 0.0
H2239 H 0.94873 0.13511 0.08555 0.0
H2240 H 0.95085 0.07087 0.27461 0.0
H2241 H 0.95137 0.09862 0.22179 0.0
H2242 H 0.93175 0.13464 0.22091 0.0
C2243 C 0.93318 0.17231 0.06822 0.0
C2244 C 0.94509 0.13536 0.11547 0.0
C2245 C 0.93277 0.18504 0.02992 0.0
C2246 C 0.94589 0.07719 0.26246 0.0
C2247 C 0.94619 0.09309 0.23211 0.0
C2248 C 0.93548 0.13458 0.19145 0.0
C2249 C 0.93984 0.16616 0.08543 0.0
C2250 C 0.94025 0.15061 0.12144 0.0
C2251 C 0.93989 0.10202 0.21639 0.0
C2252 C 0.94018 0.11907 0.18468 0.0
H2253 H 0.95059 0.19177 0.01129 0.0
H2254 H 0.95129 0.16964 0.0784 0.0
H2255 H 0.93177 0.16183 0.16597 0.0
H2256 H 0.92778 0.07337 0.27223 0.0
H2257 H 0.92833 0.10083 0.21872 0.0
C2258 C 0.8084 0.67677 0.24126 0.0
C2259 C 0.81499 0.6833 0.25901 0.0
C2260 C 0.80815 0.66205 0.20747 0.0
C2261 C 0.81877 0.62107 0.16529 0.0
H2262 H 0.80568 0.62118 0.05847 0.0
C2263 C 0.82085 0.5673 0.01041 0.0
C2264 C 0.81451 0.56023 0.99023 0.0
C2265 C 0.82064 0.58154 0.04532 0.0
C2266 C 0.80929 0.62082 0.08855 0.0
H2267 H 0.82649 0.68013 0.25324 0.0
H2268 H 0.82603 0.65466 0.19394 0.0
H2269 H 0.8059 0.64854 0.11287 0.0
H2270 H 0.80294 0.5621 0.9923 0.0
H2271 H 0.80259 0.58688 0.05369 0.0
H2272 H 0.82218 0.59342 0.14098 0.0
C2273 C 0.82106 0.66067 0.20691 0.0
C2274 C 0.80943 0.63651 0.11958 0.0
C2275 C 0.82132 0.67538 0.24062 0.0
C2276 C 0.80793 0.56727 0.00696 0.0
C2277 C 0.80773 0.58156 0.04187 0.0
C2278 C 0.81862 0.60539 0.13434 0.0
C2279 C 0.81447 0.65356 0.19076 0.0
C2280 C 0.81422 0.63687 0.15801 0.0
C2281 C 0.81408 0.58905 0.06088 0.0
C2282 C 0.81393 0.60516 0.0954 0.0
H2283 H 0.80342 0.68256 0.25463 0.0
H2284 H 0.80299 0.65683 0.19581 0.0
H2285 H 0.82241 0.62075 0.1952 0.0
H2286 H 0.82601 0.5622 -0.00159 0.0
H2287 H 0.82563 0.58713 0.05893 0.0
C2288 C 0.57041 0.30741 0.96312 0.0
C2289 C 0.56423 0.30095 0.98659 0.0
C2290 C 0.56988 0.31942 0.92347 0.0
C2291 C 0.55779 0.35554 0.87444 0.0
H2292 H 0.57108 0.35541 0.76867 0.0
C2293 C 0.55735 0.41389 0.72789 0.0
C2294 C 0.56404 0.42117 0.71397 0.0
C2295 C 0.5569 0.39767 0.7571 0.0
C2296 C 0.56736 0.35567 0.79815 0.0
H2297 H 0.55264 0.30091 0.98462 0.0
H2298 H 0.55174 0.32176 0.9152 0.0
H2299 H 0.57106 0.3286 0.82479 0.0
H2300 H 0.5755 0.41717 0.72032 0.0
H2301 H 0.57469 0.38914 0.77178 0.0
H2302 H 0.55421 0.38281 0.84863 0.0
C2303 C 0.55699 0.31781 0.92807 0.0
C2304 C 0.56733 0.34031 0.83016 0.0
C2305 C 0.55751 0.30578 0.96771 0.0
C2306 C 0.57026 0.41196 0.73028 0.0
C2307 C 0.5698 0.39576 0.75942 0.0
C2308 C 0.55782 0.37089 0.84246 0.0
C2309 C 0.56316 0.32521 0.90642 0.0
C2310 C 0.56264 0.34025 0.86915 0.0
C2311 C 0.56312 0.38837 0.77297 0.0
C2312 C 0.56269 0.37131 0.8045 0.0
H2313 H 0.57567 0.30391 0.97656 0.0
H2314 H 0.57474 0.32498 0.90779 0.0
H2315 H 0.55419 0.35608 0.90452 0.0
H2316 H 0.55246 0.42057 0.71579 0.0
H2317 H 0.55168 0.39224 0.76668 0.0
C2318 C 0.69536 0.82734 0.73883 0.0
C2319 C 0.68883 0.82048 0.72091 0.0
C2320 C 0.69552 0.843 0.77005 0.0
C2321 C 0.68407 0.86984 0.85355 0.0
H2322 H 0.6984 0.90981 0.84118 0.0
C2323 C 0.68269 0.93713 0.96911 0.0
C2324 C 0.68904 0.94197 0.99291 0.0
C2325 C 0.68279 0.92427 0.93104 0.0
C2326 C 0.69439 0.89871 0.84512 0.0
H2327 H 0.67735 0.82477 0.72168 0.0
H2328 H 0.67764 0.85203 0.77553 0.0
H2329 H 0.6984 0.88267 0.78576 0.0
H2330 H 0.70054 0.93823 0.99298 0.0
H2331 H 0.7007 0.91562 0.92672 0.0
H2332 H 0.68008 0.88567 0.91292 0.0
C2333 C 0.68263 0.84518 0.76606 0.0
C2334 C 0.6944 0.88315 0.81356 0.0
C2335 C 0.68248 0.82956 0.73502 0.0
C2336 C 0.69555 0.93473 0.97559 0.0
C2337 C 0.69565 0.92182 0.93749 0.0
C2338 C 0.68405 0.88536 0.8849 0.0
C2339 C 0.68915 0.85208 0.78396 0.0
C2340 C 0.68924 0.86856 0.81746 0.0
C2341 C 0.68924 0.91595 0.91597 0.0
C2342 C 0.68919 0.89998 0.88102 0.0
H2343 H 0.70036 0.82069 0.72865 0.0
H2344 H 0.70061 0.84785 0.7837 0.0
H2345 H 0.68011 0.85866 0.85813 0.0
H2346 H 0.67759 0.94263 0.9811 0.0
H2347 H 0.67779 0.92034 0.91439 0.0
C2348 C 0.57197 0.80723 0.47172 0.0
C2349 C 0.56552 0.80173 0.49332 0.0
C2350 C 0.57198 0.82016 0.43374 0.0
C2351 C 0.56056 0.84469 0.34454 0.0
H2352 H 0.57436 0.88582 0.35981 0.0
C2353 C 0.55899 0.91613 0.23935 0.0
C2354 C 0.56545 0.92349 0.22162 0.0
C2355 C 0.55897 0.90046 0.27055 0.0
C2356 C 0.57053 0.87433 0.35464 0.0
H2357 H 0.55398 0.80445 0.48969 0.0
H2358 H 0.55402 0.82717 0.42378 0.0
H2359 H 0.57447 0.8588 0.41465 0.0
H2360 H 0.57698 0.92016 0.22303 0.0
H2361 H 0.57694 0.89289 0.27705 0.0
H2362 H 0.55657 0.86047 0.28471 0.0
C2363 C 0.55907 0.82143 0.43608 0.0
C2364 C 0.57061 0.8588 0.38599 0.0
C2365 C 0.55905 0.80845 0.47402 0.0
C2366 C 0.5719 0.91495 0.23614 0.0
C2367 C 0.57188 0.89933 0.26727 0.0
C2368 C 0.56048 0.86027 0.31309 0.0
C2369 C 0.56554 0.8279 0.41658 0.0
C2370 C 0.56562 0.84381 0.38138 0.0
C2371 C 0.56542 0.89187 0.28472 0.0
C2372 C 0.56546 0.87528 0.31789 0.0
H2373 H 0.57704 0.80217 0.48531 0.0
H2374 H 0.57705 0.82455 0.41872 0.0
H2375 H 0.55669 0.83328 0.33988 0.0
H2376 H 0.55393 0.92235 0.22886 0.0
H2377 H 0.55392 0.89518 0.28389 0.0
C2378 C 0.68221 0.32905 0.22992 0.0
C2379 C 0.68861 0.32025 0.21557 0.0
C2380 C 0.68229 0.34464 0.26107 0.0
C2381 C 0.69385 0.3831 0.3082 0.0
H2382 H 0.67964 0.38489 0.40835 0.0
C2383 C 0.69493 0.43472 0.46997 0.0
C2384 C 0.68841 0.44167 0.48788 0.0
C2385 C 0.69504 0.42178 0.43195 0.0
C2386 C 0.68357 0.38479 0.3801 0.0
H2387 H 0.70014 0.32092 0.22303 0.0
H2388 H 0.70027 0.34805 0.27824 0.0
H2389 H 0.67977 0.35792 0.35343 0.0
H2390 H 0.67694 0.44173 0.47728 0.0
H2391 H 0.67714 0.41939 0.41065 0.0
H2392 H 0.6977 0.40994 0.33564 0.0
C2393 C 0.69519 0.34299 0.2647 0.0
C2394 C 0.68366 0.36929 0.3487 0.0
C2395 C 0.69511 0.32736 0.2334 0.0
C2396 C 0.68205 0.43647 0.4648 0.0
C2397 C 0.68215 0.42358 0.42679 0.0
C2398 C 0.69377 0.39864 0.33978 0.0
C2399 C 0.68878 0.3518 0.27883 0.0
C2400 C 0.68879 0.36827 0.31235 0.0
C2401 C 0.68862 0.41558 0.41106 0.0
C2402 C 0.68861 0.39965 0.37601 0.0
H2403 H 0.6771 0.32406 0.21669 0.0
H2404 H 0.67727 0.35127 0.27072 0.0
H2405 H 0.69782 0.38282 0.28018 0.0
H2406 H 0.69994 0.43849 0.48679 0.0
H2407 H 0.70011 0.41583 0.4207 0.0
C2408 C 0.44549 0.56355 0.23599 0.0
C2409 C 0.43881 0.55696 0.25206 0.0
C2410 C 0.4459 0.57737 0.20005 0.0
C2411 C 0.43549 0.60082 0.10464 0.0
H2412 H 0.44788 0.64442 0.12927 0.0
C2413 C 0.43253 0.67146 0.002 0.0
C2414 C 0.43883 0.67988 0.98453 0.0
C2415 C 0.43286 0.6564 0.0347 0.0
C2416 C 0.44445 0.63225 0.12166 0.0
H2417 H 0.42736 0.55902 0.24137 0.0
H2418 H 0.42809 0.58313 0.17901 0.0
H2419 H 0.44802 0.61691 0.18323 0.0
H2420 H 0.4504 0.67968 0.98943 0.0
H2421 H 0.45094 0.65335 0.04656 0.0
H2422 H 0.43186 0.61624 0.04346 0.0
C2423 C 0.433 0.57758 0.19399 0.0
C2424 C 0.44455 0.61648 0.15241 0.0
C2425 C 0.43259 0.56382 0.22995 0.0
C2426 C 0.44544 0.67349 0.00211 0.0
C2427 C 0.44576 0.65843 0.03491 0.0
C2428 C 0.43539 0.61658 0.07397 0.0
C2429 C 0.43966 0.58478 0.17934 0.0
C2430 C 0.44 0.60072 0.14451 0.0
C2431 C 0.43948 0.64947 0.05068 0.0
C2432 C 0.4398 0.63255 0.08253 0.0
H2433 H 0.45039 0.5585 0.25214 0.0
H2434 H 0.4511 0.58248 0.18895 0.0
H2435 H 0.43201 0.58875 0.09726 0.0
H2436 H 0.42735 0.6761 0.98947 0.0
H2437 H 0.42792 0.65002 0.04704 0.0
C2438 C 0.30813 0.05811 0.02862 0.0
C2439 C 0.31477 0.05234 0.01023 0.0
C2440 C 0.30776 0.07114 0.06636 0.0
C2441 C 0.31839 0.09428 0.16163 0.0
H2442 H 0.30541 0.13702 0.14228 0.0
C2443 C 0.32119 0.1652 0.26474 0.0
C2444 C 0.31492 0.17395 0.28174 0.0
C2445 C 0.32082 0.14957 0.23372 0.0
C2446 C 0.30899 0.12506 0.14858 0.0
H2447 H 0.32625 0.05492 0.01897 0.0
H2448 H 0.3256 0.07767 0.08453 0.0
H2449 H 0.3053 0.11006 0.08689 0.0
H2450 H 0.30334 0.17332 0.27863 0.0
H2451 H 0.30272 0.14596 0.22451 0.0
H2452 H 0.32216 0.10944 0.22292 0.0
C2453 C 0.32067 0.07208 0.06991 0.0
C2454 C 0.30892 0.10959 0.11692 0.0
C2455 C 0.32104 0.05909 0.03213 0.0
C2456 C 0.30828 0.16695 0.26615 0.0
C2457 C 0.30791 0.1513 0.23506 0.0
C2458 C 0.31846 0.10974 0.1933 0.0
C2459 C 0.31403 0.07862 0.08664 0.0
C2460 C 0.31368 0.09414 0.12275 0.0
C2461 C 0.31418 0.14231 0.21892 0.0
C2462 C 0.31383 0.12543 0.18673 0.0
H2463 H 0.30319 0.05311 0.01281 0.0
H2464 H 0.30257 0.07568 0.07903 0.0
H2465 H 0.32206 0.08246 0.16743 0.0
H2466 H 0.32639 0.17025 0.27584 0.0
H2467 H 0.32575 0.14319 0.22118 0.0
C2468 C 0.44643 0.05398 0.72221 0.0
C2469 C 0.43967 0.04991 0.74137 0.0
C2470 C 0.44707 0.065 0.68092 0.0
C2471 C 0.43692 0.08639 0.58055 0.0
H2472 H 0.44991 0.12921 0.59839 0.0
C2473 C 0.43367 0.15835 0.48264 0.0
C2474 C 0.43984 0.1679 0.46689 0.0
C2475 C 0.43421 0.14182 0.51054 0.0
C2476 C 0.44635 0.11718 0.59234 0.0
H2477 H 0.42826 0.05292 0.73015 0.0
H2478 H 0.42937 0.07231 0.65864 0.0
H2479 H 0.44999 0.10272 0.6548 0.0
H2480 H 0.45144 0.16749 0.46794 0.0
H2481 H 0.45236 0.13862 0.51656 0.0
H2482 H 0.43313 0.10124 0.51879 0.0
C2483 C 0.43419 0.06693 0.67531 0.0
C2484 C 0.44641 0.10196 0.6246 0.0
C2485 C 0.43355 0.05592 0.71656 0.0
C2486 C 0.44657 0.16057 0.47973 0.0
C2487 C 0.4471 0.14403 0.5076 0.0
C2488 C 0.43686 0.10163 0.54822 0.0
C2489 C 0.44095 0.07211 0.65798 0.0
C2490 C 0.44158 0.08662 0.61967 0.0
C2491 C 0.44093 0.13448 0.52327 0.0
C2492 C 0.44147 0.11739 0.55445 0.0
H2493 H 0.45126 0.04937 0.74013 0.0
H2494 H 0.45235 0.06851 0.66787 0.0
H2495 H 0.4332 0.07462 0.57554 0.0
H2496 H 0.42841 0.1636 0.47337 0.0
H2497 H 0.42935 0.13497 0.52279 0.0
C2498 C 0.32032 0.55526 0.53279 0.0
C2499 C 0.31407 0.54873 0.51032 0.0
C2500 C 0.31992 0.5673 0.57244 0.0
C2501 C 0.308 0.60354 0.62229 0.0
H2502 H 0.3215 0.60366 0.7268 0.0
C2503 C 0.30769 0.66205 0.76812 0.0
C2504 C 0.31437 0.6693 0.78231 0.0
C2505 C 0.30725 0.64585 0.73887 0.0
C2506 C 0.31772 0.60388 0.69765 0.0
H2507 H 0.30249 0.54857 0.51414 0.0
H2508 H 0.30181 0.56951 0.58353 0.0
H2509 H 0.32137 0.57673 0.67105 0.0
H2510 H 0.32582 0.66528 0.77634 0.0
H2511 H 0.32505 0.6373 0.72463 0.0
H2512 H 0.30448 0.63088 0.64793 0.0
C2513 C 0.30701 0.56557 0.56989 0.0
C2514 C 0.31764 0.58843 0.66587 0.0
C2515 C 0.30741 0.55349 0.53028 0.0
C2516 C 0.32059 0.66009 0.76617 0.0
C2517 C 0.32015 0.64392 0.73689 0.0
C2518 C 0.3081 0.61899 0.65398 0.0
C2519 C 0.31326 0.57307 0.59045 0.0
C2520 C 0.31285 0.58825 0.62742 0.0
C2521 C 0.31348 0.63656 0.7231 0.0
C2522 C 0.31304 0.61949 0.69154 0.0
H2523 H 0.32553 0.5518 0.51853 0.0
H2524 H 0.32482 0.57292 0.5873 0.0
H2525 H 0.30432 0.60399 0.59257 0.0
H2526 H 0.30278 0.66872 0.78012 0.0
H2527 H 0.30203 0.64044 0.72921 0.0
C2528 C 0.07187 0.32654 0.73093 0.0
C2529 C 0.06541 0.31778 0.71762 0.0
C2530 C 0.0719 0.34232 0.76156 0.0
C2531 C 0.06046 0.38125 0.8076 0.0
H2532 H 0.07462 0.38354 0.90799 0.0
C2533 C 0.05872 0.43213 0.96975 0.0
C2534 C 0.06513 0.43911 0.98926 0.0
C2535 C 0.05885 0.41951 0.93109 0.0
C2536 C 0.07071 0.38333 0.87961 0.0
H2537 H 0.0539 0.3186 0.72672 0.0
H2538 H 0.05398 0.34602 0.78087 0.0
H2539 H 0.0746 0.35648 0.8533 0.0
H2540 H 0.07665 0.43968 0.9808 0.0
H2541 H 0.07684 0.41793 0.91297 0.0
H2542 H 0.05651 0.40803 0.8346 0.0
C2543 C 0.05901 0.34083 0.76689 0.0
C2544 C 0.07069 0.36776 0.84836 0.0
C2545 C 0.05898 0.32501 0.73621 0.0
C2546 C 0.07162 0.43435 0.9671 0.0
C2547 C 0.07174 0.4218 0.92838 0.0
C2548 C 0.06048 0.39686 0.83894 0.0
C2549 C 0.06547 0.3497 0.77969 0.0
C2550 C 0.06554 0.36648 0.81221 0.0
C2551 C 0.06537 0.41371 0.91107 0.0
C2552 C 0.06559 0.398 0.87544 0.0
H2553 H 0.07692 0.32142 0.71715 0.0
H2554 H 0.07696 0.34896 0.77038 0.0
H2555 H 0.05649 0.38079 0.77961 0.0
H2556 H 0.05363 0.43558 0.98581 0.0
H2557 H 0.05385 0.41349 0.91868 0.0
C2558 C 0.18278 0.81421 0.97494 0.0
C2559 C 0.18905 0.80704 0.99587 0.0
C2560 C 0.18313 0.82768 0.93817 0.0
C2561 C 0.195 0.86531 0.89214 0.0
H2562 H 0.1816 0.86645 0.78709 0.0
C2563 C 0.19605 0.92257 0.74237 0.0
C2564 C 0.18947 0.92988 0.72647 0.0
C2565 C 0.19627 0.90714 0.77424 0.0
C2566 C 0.18534 0.86641 0.81649 0.0
H2567 H 0.20063 0.80762 0.9926 0.0
H2568 H 0.20123 0.83098 0.92808 0.0
H2569 H 0.18157 0.8392 0.84175 0.0
H2570 H 0.17796 0.92711 0.73307 0.0
H2571 H 0.17838 0.90046 0.78901 0.0
H2572 H 0.19871 0.89263 0.86721 0.0
C2573 C 0.19604 0.82642 0.94077 0.0
C2574 C 0.18533 0.85079 0.8477 0.0
C2575 C 0.19569 0.81292 0.97753 0.0
C2576 C 0.18313 0.92179 0.7443 0.0
C2577 C 0.18336 0.90639 0.77608 0.0
C2578 C 0.19501 0.88094 0.8609 0.0
C2579 C 0.18977 0.83429 0.92147 0.0
C2580 C 0.19011 0.85015 0.88617 0.0
C2581 C 0.18993 0.89869 0.79087 0.0
C2582 C 0.19012 0.88177 0.82306 0.0
H2583 H 0.17758 0.80997 0.9881 0.0
H2584 H 0.1782 0.83355 0.92431 0.0
H2585 H 0.19868 0.8654 0.92186 0.0
H2586 H 0.20103 0.92844 0.72933 0.0
H2587 H 0.20142 0.90148 0.7848 0.0
C2588 C 0.07262 0.91276 0.51386 0.0
C2589 C 0.06617 0.92161 0.52701 0.0
C2590 C 0.07264 0.89707 0.48295 0.0
C2591 C 0.06113 0.85858 0.43527 0.0
H2592 H 0.07539 0.85644 0.33548 0.0
C2593 C 0.05936 0.80849 0.27174 0.0
C2594 C 0.06575 0.80123 0.2526 0.0
C2595 C 0.0595 0.82104 0.31053 0.0
C2596 C 0.07145 0.85662 0.36368 0.0
H2597 H 0.05467 0.92102 0.51747 0.0
H2598 H 0.05473 0.89376 0.46286 0.0
H2599 H 0.07541 0.88323 0.39103 0.0
H2600 H 0.07725 0.80025 0.26161 0.0
H2601 H 0.07748 0.82193 0.32961 0.0
H2602 H 0.05711 0.83205 0.40723 0.0
C2603 C 0.05976 0.8988 0.47715 0.0
C2604 C 0.07145 0.87202 0.39543 0.0
C2605 C 0.05974 0.91452 0.50812 0.0
C2606 C 0.07224 0.80577 0.27507 0.0
C2607 C 0.07238 0.81827 0.31389 0.0
C2608 C 0.06113 0.84314 0.40343 0.0
C2609 C 0.06621 0.88987 0.46439 0.0
C2610 C 0.06626 0.87324 0.43138 0.0
C2611 C 0.06603 0.82654 0.33102 0.0
C2612 C 0.06627 0.84206 0.36713 0.0
H2613 H 0.07767 0.91777 0.52788 0.0
H2614 H 0.07769 0.89037 0.47419 0.0
H2615 H 0.05713 0.85899 0.46309 0.0
H2616 H 0.05428 0.80534 0.25533 0.0
H2617 H 0.05453 0.82724 0.32271 0.0
C2618 C 0.1952 0.30641 0.462 0.0
C2619 C 0.18863 0.30241 0.48406 0.0
C2620 C 0.19551 0.31827 0.42197 0.0
C2621 C 0.18469 0.34207 0.32849 0.0
H2622 H 0.19861 0.38298 0.34239 0.0
C2623 C 0.18243 0.4136 0.22662 0.0
C2624 C 0.18872 0.42224 0.20966 0.0
C2625 C 0.18275 0.39742 0.25596 0.0
C2626 C 0.19477 0.37151 0.33741 0.0
H2627 H 0.17717 0.30657 0.47896 0.0
H2628 H 0.17773 0.32736 0.4094 0.0
H2629 H 0.19861 0.3563 0.3983 0.0
H2630 H 0.20029 0.42061 0.21029 0.0
H2631 H 0.20084 0.39226 0.26116 0.0
H2632 H 0.18078 0.35749 0.26797 0.0
C2633 C 0.18265 0.32129 0.42303 0.0
C2634 C 0.19478 0.35618 0.36945 0.0
C2635 C 0.18233 0.30943 0.4631 0.0
C2636 C 0.19534 0.41438 0.22294 0.0
C2637 C 0.19566 0.39815 0.25218 0.0
C2638 C 0.1847 0.35738 0.29629 0.0
C2639 C 0.18926 0.32636 0.40305 0.0
C2640 C 0.18967 0.34144 0.3658 0.0
C2641 C 0.18936 0.38945 0.26894 0.0
C2642 C 0.18967 0.37245 0.30087 0.0
H2643 H 0.20015 0.3011 0.47675 0.0
H2644 H 0.20068 0.32162 0.40677 0.0
H2645 H 0.18074 0.3308 0.32447 0.0
H2646 H 0.17724 0.41929 0.21722 0.0
H2647 H 0.1778 0.39131 0.26897 0.0
C2648 C 0.93235 0.559 0.02723 0.0
C2649 C 0.93859 0.55243 0.00469 0.0
C2650 C 0.93277 0.57133 0.06636 0.0
C2651 C 0.94477 0.60784 0.11508 0.0
H2652 H 0.93131 0.6085 0.21986 0.0
C2653 C 0.94554 0.66603 0.2618 0.0
C2654 C 0.93892 0.67355 0.27639 0.0
C2655 C 0.94584 0.64995 0.23205 0.0
C2656 C 0.93508 0.60857 0.19061 0.0
H2657 H 0.95017 0.5525 0.00796 0.0
H2658 H 0.95088 0.57382 0.07654 0.0
H2659 H 0.93131 0.58149 0.16434 0.0
H2660 H 0.92743 0.67018 0.27051 0.0
H2661 H 0.92798 0.64238 0.21805 0.0
H2662 H 0.94843 0.63508 0.14056 0.0
C2663 C 0.94567 0.56975 0.06327 0.0
C2664 C 0.93509 0.59308 0.15893 0.0
C2665 C 0.94525 0.55742 0.02414 0.0
C2666 C 0.93262 0.66476 0.26007 0.0
C2667 C 0.93293 0.6487 0.23034 0.0
C2668 C 0.94475 0.62332 0.14669 0.0
C2669 C 0.93944 0.57732 0.08385 0.0
C2670 C 0.93987 0.59267 0.12043 0.0
C2671 C 0.93954 0.64103 0.21621 0.0
C2672 C 0.93984 0.624 0.18441 0.0
H2673 H 0.92713 0.55538 0.01336 0.0
H2674 H 0.92787 0.57697 0.08123 0.0
H2675 H 0.94844 0.60815 0.08532 0.0
H2676 H 0.9505 0.67239 0.27383 0.0
H2677 H 0.95102 0.6443 0.22211 0.0
C2678 C 0.8212 0.16007 0.97605 0.0
C2679 C 0.81487 0.16821 0.95834 0.0
C2680 C 0.82099 0.14373 0.00486 0.0
C2681 C 0.80894 0.11645 0.08355 0.0
H2682 H 0.82369 0.07747 0.07413 0.0
C2683 C 0.80908 0.05191 0.20971 0.0
C2684 C 0.81559 0.04931 0.23379 0.0
C2685 C 0.80874 0.06331 0.16889 0.0
C2686 C 0.81954 0.08823 0.07709 0.0
H2687 H 0.80333 0.16543 0.95684 0.0
H2688 H 0.80297 0.13678 0.00662 0.0
H2689 H 0.82349 0.10406 0.01735 0.0
H2690 H 0.82696 0.05528 0.23128 0.0
H2691 H 0.82635 0.07521 0.16026 0.0
H2692 H 0.80505 0.10084 0.14367 0.0
C2693 C 0.8081 0.14321 -0.00122 0.0
C2694 C 0.81944 0.1035 0.04476 0.0
C2695 C 0.80831 0.15963 0.97015 0.0
C2696 C 0.82184 0.0571 0.21391 0.0
C2697 C 0.82151 0.06846 0.17301 0.0
C2698 C 0.80902 0.10115 0.11566 0.0
C2699 C 0.81443 0.13507 0.01648 0.0
C2700 C 0.81422 0.11799 0.0482 0.0
C2701 C 0.81491 0.07226 0.15112 0.0
C2702 C 0.81439 0.08706 0.11331 0.0
H2703 H 0.82635 0.16634 0.96776 0.0
H2704 H 0.82596 0.13806 0.01862 0.0
H2705 H 0.80491 0.12746 0.08767 0.0
H2706 H 0.80418 0.04585 0.22342 0.0
H2707 H 0.80361 0.06569 0.15218 0.0
C2708 C 0.93291 0.06247 0.52721 0.0
C2709 C 0.93919 0.05563 0.50566 0.0
C2710 C 0.93326 0.07528 0.56542 0.0
C2711 C 0.94511 0.11225 0.61409 0.0
H2712 H 0.93172 0.1123 0.71926 0.0
C2713 C 0.94584 0.16953 0.7635 0.0
C2714 C 0.93922 0.17665 0.77906 0.0
C2715 C 0.94617 0.15383 0.7325 0.0
C2716 C 0.93546 0.11256 0.68987 0.0
H2717 H 0.95077 0.05599 0.50943 0.0
H2718 H 0.95136 0.07822 0.57631 0.0
H2719 H 0.93174 0.0855 0.6632 0.0
H2720 H 0.92773 0.17309 0.77322 0.0
H2721 H 0.92832 0.14601 0.71869 0.0
H2722 H 0.94873 0.13946 0.64012 0.0
C2723 C 0.94617 0.07391 0.56304 0.0
C2724 C 0.93548 0.09718 0.65788 0.0
C2725 C 0.94582 0.06107 0.52489 0.0
C2726 C 0.93293 0.16795 0.76218 0.0
C2727 C 0.93326 0.15229 0.73121 0.0
C2728 C 0.94508 0.12763 0.64603 0.0
C2729 C 0.9399 0.08154 0.58291 0.0
C2730 C 0.94025 0.09697 0.61931 0.0
C2731 C 0.93988 0.14492 0.71637 0.0
C2732 C 0.94019 0.12809 0.68392 0.0
H2733 H 0.92771 0.05854 0.51342 0.0
H2734 H 0.92833 0.08098 0.57974 0.0
H2735 H 0.94877 0.11267 0.58431 0.0
H2736 H 0.95079 0.17585 0.7759 0.0
H2737 H 0.95136 0.14842 0.72196 0.0
C2738 C 0.8082 0.56576 0.74037 0.0
C2739 C 0.81473 0.55897 0.75842 0.0
C2740 C 0.80807 0.58011 0.70556 0.0
C2741 C 0.81922 0.6048 0.61566 0.0
H2742 H 0.80599 0.64701 0.63481 0.0
C2743 C 0.82151 0.6748 0.50851 0.0
C2744 C 0.81515 0.68234 0.48961 0.0
C2745 C 0.82131 0.66011 0.54232 0.0
C2746 C 0.80966 0.63524 0.62872 0.0
H2747 H 0.82625 0.56142 0.75248 0.0
H2748 H 0.82601 0.58643 0.69207 0.0
H2749 H 0.80581 0.61962 0.68911 0.0
H2750 H 0.80358 0.68091 0.49314 0.0
H2751 H 0.80326 0.65519 0.55201 0.0
H2752 H 0.82309 0.62042 0.55544 0.0
C2753 C 0.82099 0.58061 0.70462 0.0
C2754 C 0.80955 0.61953 0.65972 0.0
C2755 C 0.82112 0.5663 0.73945 0.0
C2756 C 0.80859 0.67542 0.50687 0.0
C2757 C 0.8084 0.66071 0.54073 0.0
C2758 C 0.81933 0.6205 0.58471 0.0
C2759 C 0.81446 0.58793 0.68792 0.0
C2760 C 0.81435 0.60417 0.65366 0.0
C2761 C 0.81476 0.65262 0.55806 0.0
C2762 C 0.81459 0.63595 0.59106 0.0
H2763 H 0.80317 0.56039 0.75404 0.0
H2764 H 0.80295 0.58523 0.69281 0.0
H2765 H 0.82291 0.59307 0.60962 0.0
H2766 H 0.82666 0.67988 0.49633 0.0
H2767 H 0.82631 0.65445 0.55574 0.0
C2768 C 0.55871 0.4336 0.46914 0.0
C2769 C 0.56514 0.44055 0.48831 0.0
C2770 C 0.55876 0.42096 0.43047 0.0
C2771 C 0.57058 0.38483 0.37749 0.0
H2772 H 0.55617 0.38234 0.2787 0.0
C2773 C 0.57172 0.32852 0.22772 0.0
C2774 C 0.56529 0.31955 0.21471 0.0
C2775 C 0.57172 0.34429 0.25841 0.0
C2776 C 0.5602 0.38277 0.30635 0.0
H2777 H 0.57665 0.44101 0.4792 0.0
H2778 H 0.57673 0.41927 0.41132 0.0
H2779 H 0.55622 0.40936 0.33434 0.0
H2780 H 0.55379 0.32009 0.22415 0.0
H2781 H 0.55381 0.34751 0.27839 0.0
H2782 H 0.57451 0.35818 0.35016 0.0
C2783 C 0.57165 0.42316 0.42703 0.0
C2784 C 0.56023 0.39827 0.33809 0.0
C2785 C 0.5716 0.43572 0.46577 0.0
C2786 C 0.55885 0.32666 0.23343 0.0
C2787 C 0.55885 0.34247 0.26418 0.0
C2788 C 0.57055 0.36938 0.34584 0.0
C2789 C 0.56526 0.4151 0.41003 0.0
C2790 C 0.56542 0.39942 0.37415 0.0
C2791 C 0.56529 0.35147 0.27695 0.0
C2792 C 0.56534 0.36812 0.31003 0.0
H2793 H 0.55363 0.43707 0.48553 0.0
H2794 H 0.55375 0.41498 0.41836 0.0
H2795 H 0.57455 0.38502 0.4055 0.0
H2796 H 0.57679 0.32353 0.2138 0.0
H2797 H 0.57677 0.35104 0.26709 0.0
C2798 C 0.68196 0.91561 0.23386 0.0
C2799 C 0.68839 0.9245 0.22026 0.0
C2800 C 0.682 0.89991 0.26477 0.0
C2801 C 0.69358 0.86148 0.31237 0.0
H2802 H 0.67925 0.85918 0.41173 0.0
C2803 C 0.69495 0.81032 0.47479 0.0
C2804 C 0.68849 0.80318 0.49313 0.0
C2805 C 0.69495 0.82313 0.43646 0.0
C2806 C 0.68322 0.85941 0.38368 0.0
H2807 H 0.6999 0.9239 0.22894 0.0
H2808 H 0.69994 0.89663 0.2836 0.0
H2809 H 0.67929 0.88609 0.35658 0.0
H2810 H 0.677 0.80262 0.48293 0.0
H2811 H 0.67703 0.82471 0.41574 0.0
H2812 H 0.69756 0.83486 0.34022 0.0
C2813 C 0.69488 0.90167 0.26965 0.0
C2814 C 0.68325 0.87488 0.35214 0.0
C2815 C 0.69485 0.91739 0.23864 0.0
C2816 C 0.68207 0.80805 0.47014 0.0
C2817 C 0.68208 0.8208 0.4318 0.0
C2818 C 0.69355 0.84597 0.34406 0.0
C2819 C 0.68845 0.89274 0.28298 0.0
C2820 C 0.68844 0.87614 0.31619 0.0
C2821 C 0.68849 0.829 0.41562 0.0
C2822 C 0.68837 0.84479 0.38012 0.0
H2823 H 0.67688 0.92061 0.2202 0.0
H2824 H 0.67696 0.89321 0.27385 0.0
H2825 H 0.69759 0.86191 0.28463 0.0
H2826 H 0.69999 0.80683 0.49154 0.0
H2827 H 0.69998 0.82923 0.42491 0.0
C2828 C 0.55799 0.93379 0.97477 0.0
C2829 C 0.56464 0.93948 0.99324 0.0
C2830 C 0.55762 0.92113 0.93624 0.0
C2831 C 0.56826 0.89841 0.83995 0.0
H2832 H 0.55528 0.85562 0.85891 0.0
C2833 C 0.57106 0.82721 0.73714 0.0
C2834 C 0.56479 0.81828 0.72073 0.0
C2835 C 0.57069 0.84306 0.76755 0.0
C2836 C 0.55886 0.86759 0.85267 0.0
H2837 H 0.57611 0.93728 0.9836 0.0
H2838 H 0.57545 0.91513 0.91681 0.0
H2839 H 0.55516 0.88248 0.91446 0.0
H2840 H 0.55321 0.81893 0.72401 0.0
H2841 H 0.5526 0.84663 0.77699 0.0
H2842 H 0.57204 0.8833 0.77859 0.0
C2843 C 0.57052 0.9205 0.93194 0.0
C2844 C 0.55878 0.88302 0.88444 0.0
C2845 C 0.5709 0.93314 0.97047 0.0
C2846 C 0.55815 0.82541 0.73604 0.0
C2847 C 0.55779 0.84127 0.76652 0.0
C2848 C 0.56834 0.88296 0.80815 0.0
C2849 C 0.56388 0.91392 0.91527 0.0
C2850 C 0.56354 0.89849 0.87882 0.0
C2851 C 0.56406 0.85035 0.78233 0.0
C2852 C 0.56371 0.86725 0.81454 0.0
H2853 H 0.55306 0.9385 0.9912 0.0
H2854 H 0.55242 0.9166 0.92363 0.0
H2855 H 0.57192 0.91023 0.83428 0.0
H2856 H 0.57626 0.82209 0.72616 0.0
H2857 H 0.57562 0.84952 0.77978 0.0
C2858 C 0.69486 0.4184 0.7348 0.0
C2859 C 0.68838 0.42523 0.71606 0.0
C2860 C 0.69494 0.40273 0.76601 0.0
C2861 C 0.68331 0.37543 0.84777 0.0
H2862 H 0.69785 0.33597 0.83663 0.0
C2863 C 0.68223 0.30808 0.96424 0.0
C2864 C 0.68861 0.30347 0.98792 0.0
C2865 C 0.68224 0.32098 0.9262 0.0
C2866 C 0.69377 0.34692 0.84024 0.0
H2867 H 0.6769 0.42093 0.71561 0.0
H2868 H 0.67705 0.39364 0.76946 0.0
H2869 H 0.69785 0.36315 0.78142 0.0
H2870 H 0.70008 0.30787 0.98802 0.0
H2871 H 0.70009 0.33042 0.92182 0.0
H2872 H 0.67926 0.35941 0.90669 0.0
C2873 C 0.68207 0.40051 0.76059 0.0
C2874 C 0.69379 0.36251 0.80879 0.0
C2875 C 0.68199 0.41615 0.72954 0.0
C2876 C 0.69507 0.31107 0.97063 0.0
C2877 C 0.69508 0.32399 0.93256 0.0
C2878 C 0.68328 0.35987 0.87905 0.0
C2879 C 0.68854 0.39358 0.77913 0.0
C2880 C 0.68856 0.37697 0.8123 0.0
C2881 C 0.68864 0.32957 0.91099 0.0
C2882 C 0.68852 0.34545 0.87574 0.0
H2883 H 0.69988 0.42507 0.72519 0.0
H2884 H 0.7 0.39789 0.78019 0.0
H2885 H 0.67928 0.38648 0.85201 0.0
H2886 H 0.67716 0.30233 0.97626 0.0
H2887 H 0.67721 0.32469 0.90959 0.0
C2888 C 0.44482 0.5668 0.50157 0.0
C2889 C 0.43823 0.56029 0.48387 0.0
C2890 C 0.44508 0.58164 0.53503 0.0
C2891 C 0.43446 0.62273 0.57696 0.0
H2892 H 0.44753 0.62251 0.6839 0.0
C2893 C 0.43228 0.6757 0.73352 0.0
C2894 C 0.43862 0.68271 0.75393 0.0
C2895 C 0.43252 0.66177 0.69786 0.0
C2896 C 0.44393 0.62291 0.65377 0.0
H2897 H 0.42673 0.5636 0.4893 0.0
H2898 H 0.4272 0.58925 0.54806 0.0
H2899 H 0.44733 0.59523 0.62932 0.0
H2900 H 0.45019 0.68122 0.75124 0.0
H2901 H 0.45058 0.65696 0.68862 0.0
H2902 H 0.43102 0.65032 0.60156 0.0
C2903 C 0.43217 0.58318 0.53527 0.0
C2904 C 0.4438 0.60726 0.62264 0.0
C2905 C 0.4319 0.56837 0.50186 0.0
C2906 C 0.4452 0.67605 0.73648 0.0
C2907 C 0.44543 0.66206 0.70085 0.0
C2908 C 0.43459 0.63835 0.60806 0.0
C2909 C 0.43876 0.59024 0.55146 0.0
C2910 C 0.43902 0.60693 0.58417 0.0
C2911 C 0.43909 0.65453 0.68181 0.0
C2912 C 0.43928 0.63854 0.64702 0.0
H2913 H 0.4498 0.56089 0.4885 0.0
H2914 H 0.45024 0.58683 0.54672 0.0
H2915 H 0.43082 0.62307 0.54703 0.0
H2916 H 0.42711 0.68052 0.74604 0.0
H2917 H 0.42753 0.65614 0.68417 0.0
C2918 C 0.32161 0.18037 0.53142 0.0
C2919 C 0.31529 0.18712 0.51023 0.0
C2920 C 0.32134 0.16709 0.5687 0.0
C2921 C 0.30967 0.12905 0.61473 0.0
H2922 H 0.32294 0.12847 0.72054 0.0
C2923 C 0.30854 0.07174 0.7638 0.0
C2924 C 0.3151 0.06455 0.78041 0.0
C2925 C 0.30835 0.08729 0.73231 0.0
C2926 C 0.31925 0.12834 0.69092 0.0
H2927 H 0.30372 0.186 0.51369 0.0
H2928 H 0.30327 0.16309 0.57905 0.0
H2929 H 0.32293 0.15564 0.66558 0.0
H2930 H 0.32661 0.06777 0.77574 0.0
H2931 H 0.32626 0.09463 0.72033 0.0
H2932 H 0.30606 0.10165 0.63957 0.0
C2933 C 0.30843 0.16781 0.5662 0.0
C2934 C 0.31923 0.14394 0.65955 0.0
C2935 C 0.30869 0.18109 0.52897 0.0
C2936 C 0.32146 0.07298 0.76389 0.0
C2937 C 0.32126 0.0885 0.73242 0.0
C2938 C 0.3097 0.11346 0.64605 0.0
C2939 C 0.31475 0.16026 0.58559 0.0
C2940 C 0.31448 0.1444 0.6209 0.0
C2941 C 0.31471 0.09598 0.71669 0.0
C2942 C 0.31453 0.11284 0.68426 0.0
H2943 H 0.32678 0.18473 0.518 0.0
H2944 H 0.32631 0.16148 0.58269 0.0
H2945 H 0.30603 0.1288 0.58482 0.0
H2946 H 0.30354 0.06563 0.77587 0.0
H2947 H 0.30321 0.09279 0.7211 0.0
C2948 C 0.44508 0.18448 0.22385 0.0
C2949 C 0.43868 0.19154 0.24323 0.0
C2950 C 0.44497 0.17267 0.18366 0.0
C2951 C 0.43287 0.13829 0.12765 0.0
H2952 H 0.44755 0.1351 0.03076 0.0
C2953 C 0.43193 0.08142 0.97948 0.0
C2954 C 0.43837 0.07203 0.96848 0.0
C2955 C 0.4319 0.09752 0.00905 0.0
C2956 C 0.44344 0.13577 0.05781 0.0
H2957 H 0.42722 0.19333 0.23289 0.0
H2958 H 0.42705 0.17303 0.16237 0.0
H2959 H 0.44757 0.16204 0.0867 0.0
H2960 H 0.44982 0.07218 0.98017 0.0
H2961 H 0.44973 0.10016 0.03255 0.0
H2962 H 0.42882 0.11191 0.09966 0.0
C2963 C 0.43213 0.17616 0.17905 0.0
C2964 C 0.44344 0.15121 0.0897 0.0
C2965 C 0.43223 0.18786 0.21934 0.0
C2966 C 0.44477 0.07907 0.98793 0.0
C2967 C 0.44473 0.0952 0.01758 0.0
C2968 C 0.43287 0.12292 0.09587 0.0
C2969 C 0.43846 0.1678 0.16196 0.0
C2970 C 0.43818 0.15253 0.1252 0.0
C2971 C 0.43829 0.10459 0.02843 0.0
C2972 C 0.43819 0.12138 0.06088 0.0
H2973 H 0.45014 0.18712 0.24126 0.0
H2974 H 0.44994 0.16643 0.17146 0.0
H2975 H 0.42883 0.13863 0.15524 0.0
H2976 H 0.42691 0.07647 0.96491 0.0
H2977 H 0.42686 0.10457 0.01632 0.0
C2978 C 0.30715 0.57591 0.26838 0.0
C2979 C 0.31378 0.56856 0.28319 0.0
C2980 C 0.30682 0.59198 0.23856 0.0
C2981 C 0.31758 0.63342 0.19667 0.0
H2982 H 0.30433 0.63342 0.09078 0.0
C2983 C 0.32064 0.68178 0.03131 0.0
C2984 C 0.31444 0.68856 0.00865 0.0
C2985 C 0.32014 0.66965 0.07078 0.0
C2986 C 0.30797 0.63384 0.12068 0.0
H2987 H 0.32526 0.57223 0.27762 0.0
H2988 H 0.32467 0.59993 0.22509 0.0
H2989 H 0.30423 0.6068 0.14699 0.0
H2990 H 0.30286 0.68894 0.01188 0.0
H2991 H 0.30202 0.66791 0.08094 0.0
H2992 H 0.32145 0.66025 0.16948 0.0
C2993 C 0.31972 0.59354 0.23727 0.0
C2994 C 0.30792 0.61855 0.15288 0.0
C2995 C 0.32006 0.57752 0.26707 0.0
C2996 C 0.30774 0.68388 0.02818 0.0
C2997 C 0.30725 0.67173 0.06759 0.0
C2998 C 0.31765 0.6487 0.16438 0.0
C2999 C 0.3131 0.60104 0.22288 0.0
C3000 C 0.3128 0.618 0.19079 0.0
C3001 C 0.31344 0.66402 0.08844 0.0
C3002 C 0.31291 0.64893 0.12563 0.0
H3003 H 0.30221 0.56941 0.28028 0.0
H3004 H 0.30163 0.59749 0.22838 0.0
H3005 H 0.32132 0.63361 0.22606 0.0
H3006 H 0.32588 0.68515 0.01736 0.0
H3007 H 0.32501 0.66387 0.08587 0.0
C3008 C 0.15234 0.45849 0.18352 0.0
C3009 C 0.15679 0.46245 0.14447 0.0
C3010 C 0.14491 0.45964 0.17904 0.0
C3011 C 0.13065 0.48012 0.10244 0.0
H3012 H 0.11881 0.44167 0.16377 0.0
C3013 C 0.10068 0.47054 0.05952 0.0
C3014 C 0.09604 0.46727 0.09798 0.0
C3015 C 0.10807 0.47064 0.06632 0.0
C3016 C 0.12204 0.45264 0.14686 0.0
H3017 H 0.15691 0.47073 0.07003 0.0
H3018 H 0.144 0.47239 0.06202 0.0
H3019 H 0.13174 0.44047 0.17355 0.0
H3020 H 0.09554 0.46173 0.17391 0.0
H3021 H 0.10844 0.46188 0.18567 0.0
H3022 H 0.12095 0.49209 0.0752 0.0
C3023 C 0.14623 0.46873 0.09638 0.0
C3024 C 0.12945 0.45198 0.15251 0.0
C3025 C 0.15365 0.46765 0.1009 0.0
C3026 C 0.09896 0.46425 0.14347 0.0
C3027 C 0.10635 0.46423 0.1502 0.0
C3028 C 0.12325 0.48072 0.0966 0.0
C3029 C 0.14176 0.46473 0.13537 0.0
C3030 C 0.13386 0.46568 0.13025 0.0
C3031 C 0.111 0.46736 0.11168 0.0
C3032 C 0.11886 0.46695 0.11863 0.0
H3033 H 0.15458 0.45452 0.21764 0.0
H3034 H 0.14165 0.45672 0.20999 0.0
H3035 H 0.13386 0.49111 0.08547 0.0
H3036 H 0.09861 0.47291 0.02403 0.0
H3037 H 0.11151 0.47291 0.03584 0.0
C3038 C 0.10135 0.77193 0.18479 0.0
C3039 C 0.09674 0.77324 0.14551 0.0
C3040 C 0.10875 0.77157 0.17826 0.0
C3041 C 0.12271 0.76187 0.08838 0.0
H3042 H 0.1346 0.79252 0.17204 0.0
C3043 C 0.15274 0.77505 0.05242 0.0
C3044 C 0.15735 0.77484 0.09186 0.0
C3045 C 0.14534 0.77432 0.05879 0.0
C3046 C 0.13137 0.78369 0.14872 0.0
H3047 H 0.09628 0.77498 0.06846 0.0
H3048 H 0.10917 0.77449 0.05715 0.0
H3049 H 0.12172 0.79207 0.18376 0.0
H3050 H 0.15779 0.77331 0.16895 0.0
H3051 H 0.14492 0.77183 0.17996 0.0
H3052 H 0.13237 0.75352 0.0533 0.0
C3053 C 0.10707 0.77357 0.09299 0.0
C3054 C 0.12398 0.78343 0.15545 0.0
C3055 C 0.09968 0.77397 0.09952 0.0
C3056 C 0.1544 0.77365 0.13777 0.0
C3057 C 0.14701 0.7729 0.14412 0.0
C3058 C 0.1301 0.76211 0.08167 0.0
C3059 C 0.1117 0.77246 0.13229 0.0
C3060 C 0.11956 0.77253 0.12537 0.0
C3061 C 0.14239 0.77335 0.10476 0.0
C3062 C 0.13452 0.77303 0.11177 0.0
H3063 H 0.09926 0.77128 0.22068 0.0
H3064 H 0.11216 0.77046 0.20924 0.0
H3065 H 0.11946 0.75312 0.06497 0.0
H3066 H 0.15484 0.776 0.01658 0.0
H3067 H 0.14193 0.7749 0.02773 0.0
C3068 C 0.90381 0.52613 0.85483 0.0
C3069 C 0.90676 0.5244 0.90063 0.0
C3070 C 0.89642 0.52552 0.84817 0.0
C3071 C 0.87962 0.50987 0.90525 0.0
H3072 H 0.87095 0.54577 0.81683 0.0
C3073 C 0.84912 0.52134 0.89363 0.0
C3074 C 0.8461 0.52372 0.8482 0.0
C3075 C 0.85652 0.52078 0.89948 0.0
C3076 C 0.87329 0.53548 0.8412 0.0
H3077 H 0.90424 0.52054 0.97536 0.0
H3078 H 0.89134 0.51967 0.96377 0.0
H3079 H 0.88384 0.54609 0.8284 0.0
H3080 H 0.84851 0.52708 0.77317 0.0
H3081 H 0.86144 0.52595 0.78336 0.0
H3082 H 0.86905 0.49934 0.91818 0.0
C3083 C 0.89475 0.52128 0.93292 0.0
C3084 C 0.88068 0.53567 0.84786 0.0
C3085 C 0.90215 0.52189 0.9396 0.0
C3086 C 0.85066 0.5253 0.80868 0.0
C3087 C 0.85807 0.52477 0.81455 0.0
C3088 C 0.87222 0.50969 0.8986 0.0
C3089 C 0.8918 0.52318 0.88713 0.0
C3090 C 0.88394 0.52288 0.87999 0.0
C3091 C 0.86109 0.52259 0.86005 0.0
C3092 C 0.86897 0.52252 0.86654 0.0
H3093 H 0.9072 0.52796 0.82396 0.0
H3094 H 0.89434 0.52673 0.81236 0.0
H3095 H 0.88196 0.49964 0.92973 0.0
H3096 H 0.84577 0.52008 0.92487 0.0
H3097 H 0.85867 0.5193 0.93507 0.0
C3098 C 0.90408 0.21519 0.89683 0.0
C3099 C 0.9072 0.2142 0.85139 0.0
C3100 C 0.89666 0.21507 0.90206 0.0
C3101 C 0.87994 0.2253 0.83884 0.0
H3102 H 0.87143 0.19174 0.93337 0.0
C3103 C 0.8495 0.21286 0.84869 0.0
C3104 C 0.84636 0.21075 0.89381 0.0
C3105 C 0.85692 0.21357 0.84377 0.0
C3106 C 0.87371 0.20142 0.90729 0.0
H3107 H 0.90497 0.21257 0.77577 0.0
H3108 H 0.892 0.21252 0.78498 0.0
H3109 H 0.88437 0.19267 0.92439 0.0
H3110 H 0.84856 0.20804 0.96926 0.0
H3111 H 0.86149 0.20979 0.96087 0.0
H3112 H 0.86932 0.23431 0.82211 0.0
C3113 C 0.89531 0.2134 0.81651 0.0
C3114 C 0.88113 0.20189 0.90206 0.0
C3115 C 0.90274 0.21333 0.81127 0.0
C3116 C 0.85081 0.20956 0.93396 0.0
C3117 C 0.85823 0.21044 0.92908 0.0
C3118 C 0.87252 0.22496 0.84433 0.0
C3119 C 0.8922 0.21414 0.86198 0.0
C3120 C 0.88432 0.21379 0.8677 0.0
C3121 C 0.86139 0.21237 0.88389 0.0
C3122 C 0.8693 0.21297 0.87852 0.0
H3123 H 0.90737 0.21589 0.92849 0.0
H3124 H 0.89442 0.21586 0.93753 0.0
H3125 H 0.88225 0.23479 0.81246 0.0
H3126 H 0.84623 0.21371 0.81697 0.0
H3127 H 0.85915 0.21475 0.80834 0.0
C3128 C 0.15334 0.96726 0.68987 0.0
C3129 C 0.1578 0.9678 0.64972 0.0
C3130 C 0.14591 0.9675 0.68468 0.0
C3131 C 0.13153 0.97877 0.59779 0.0
H3132 H 0.1201 0.94644 0.68047 0.0
C3133 C 0.10166 0.96262 0.56335 0.0
C3134 C 0.09708 0.96342 0.60293 0.0
C3135 C 0.10906 0.96382 0.5693 0.0
C3136 C 0.12321 0.95568 0.65741 0.0
H3137 H 0.15796 0.96908 0.57258 0.0
H3138 H 0.14505 0.96904 0.56351 0.0
H3139 H 0.13301 0.94736 0.69054 0.0
H3140 H 0.09669 0.96618 0.67981 0.0
H3141 H 0.10959 0.96816 0.69011 0.0
H3142 H 0.12171 0.98677 0.56415 0.0
C3143 C 0.14726 0.96883 0.5991 0.0
C3144 C 0.13062 0.95627 0.66325 0.0
C3145 C 0.15468 0.96873 0.6043 0.0
C3146 C 0.10007 0.96549 0.64856 0.0
C3147 C 0.10746 0.96652 0.65452 0.0
C3148 C 0.12413 0.97806 0.59174 0.0
C3149 C 0.14278 0.96815 0.6392 0.0
C3150 C 0.13488 0.96781 0.6335 0.0
C3151 C 0.11204 0.96567 0.61499 0.0
C3152 C 0.11989 0.96651 0.62148 0.0
H3153 H 0.15557 0.96666 0.72538 0.0
H3154 H 0.14263 0.96728 0.7164 0.0
H3155 H 0.13462 0.98807 0.57474 0.0
H3156 H 0.09954 0.96104 0.52772 0.0
H3157 H 0.11246 0.96295 0.5382 0.0
C3158 C 0.10094 0.28021 0.6826 0.0
C3159 C 0.09644 0.27674 0.64352 0.0
C3160 C 0.10837 0.2796 0.67733 0.0
C3161 C 0.12267 0.26123 0.59841 0.0
H3162 H 0.13414 0.30045 0.65977 0.0
C3163 C 0.15259 0.27218 0.55553 0.0
C3164 C 0.15718 0.27621 0.59381 0.0
C3165 C 0.14519 0.27178 0.56216 0.0
C3166 C 0.13103 0.28925 0.64285 0.0
H3167 H 0.09623 0.26972 0.5683 0.0
H3168 H 0.10915 0.26883 0.55906 0.0
H3169 H 0.12124 0.30043 0.67067 0.0
H3170 H 0.15758 0.28278 0.66926 0.0
H3171 H 0.1447 0.28194 0.68082 0.0
H3172 H 0.13246 0.25011 0.57041 0.0
C3173 C 0.10695 0.27182 0.59393 0.0
C3174 C 0.12363 0.28924 0.64913 0.0
C3175 C 0.09953 0.27244 0.59918 0.0
C3176 C 0.1542 0.27972 0.63892 0.0
C3177 C 0.14681 0.27934 0.64553 0.0
C3178 C 0.13007 0.26125 0.59212 0.0
C3179 C 0.11146 0.27548 0.63287 0.0
C3180 C 0.11935 0.27525 0.62691 0.0
C3181 C 0.14221 0.27542 0.60721 0.0
C3182 C 0.13434 0.27528 0.61418 0.0
H3183 H 0.09874 0.2835 0.71729 0.0
H3184 H 0.11168 0.28223 0.7082 0.0
H3185 H 0.11955 0.25008 0.58136 0.0
H3186 H 0.15471 0.26945 0.52031 0.0
H3187 H 0.1418 0.26894 0.53177 0.0
C3188 C 0.84979 0.02819 0.39354 0.0
C3189 C 0.84695 0.02661 0.3474 0.0
C3190 C 0.85716 0.02774 0.40092 0.0
C3191 C 0.87414 0.0128 0.34456 0.0
H3192 H 0.88255 0.04799 0.43574 0.0
C3193 C 0.90458 0.02483 0.35906 0.0
C3194 C 0.90751 0.02661 0.40489 0.0
C3195 C 0.89718 0.02424 0.35262 0.0
C3196 C 0.88028 0.03791 0.41058 0.0
H3197 H 0.84965 0.02324 0.27282 0.0
H3198 H 0.86252 0.02266 0.28564 0.0
H3199 H 0.86968 0.04818 0.42317 0.0
H3200 H 0.90497 0.02895 0.47997 0.0
H3201 H 0.89206 0.02782 0.4687 0.0
H3202 H 0.88475 0.00264 0.33177 0.0
C3203 C 0.85903 0.02401 0.31622 0.0
C3204 C 0.8729 0.03801 0.40336 0.0
C3205 C 0.85165 0.02445 0.30883 0.0
C3206 C 0.90288 0.02762 0.44417 0.0
C3207 C 0.89548 0.02709 0.4377 0.0
C3208 C 0.88152 0.01272 0.35173 0.0
C3209 C 0.86188 0.0257 0.36235 0.0
C3210 C 0.86973 0.02548 0.37022 0.0
C3211 C 0.89255 0.02546 0.39183 0.0
C3212 C 0.88468 0.0253 0.38477 0.0
H3213 H 0.84631 0.02977 0.42411 0.0
H3214 H 0.85916 0.02879 0.43698 0.0
H3215 H 0.87187 0.00275 0.31932 0.0
H3216 H 0.90799 0.02401 0.328 0.0
H3217 H 0.8951 0.0232 0.31677 0.0
C3218 C 0.84956 0.71768 0.35309 0.0
C3219 C 0.8467 0.71787 0.39933 0.0
C3220 C 0.85694 0.71797 0.34604 0.0
C3221 C 0.87391 0.73106 0.40325 0.0
H3222 H 0.88219 0.69525 0.31301 0.0
C3223 C 0.9043 0.71871 0.39058 0.0
C3224 C 0.9073 0.71548 0.34544 0.0
C3225 C 0.8969 0.71961 0.39639 0.0
C3226 C 0.87996 0.70555 0.33781 0.0
H3227 H 0.84934 0.71882 0.47443 0.0
H3228 H 0.86225 0.71945 0.46202 0.0
H3229 H 0.8693 0.69587 0.32458 0.0
H3230 H 0.90487 0.711 0.27082 0.0
H3231 H 0.89197 0.71299 0.28075 0.0
H3232 H 0.88454 0.74091 0.41621 0.0
C3233 C 0.85877 0.7191 0.43127 0.0
C3234 C 0.87257 0.70586 0.34452 0.0
C3235 C 0.85138 0.71864 0.43836 0.0
C3236 C 0.90273 0.7134 0.30612 0.0
C3237 C 0.89533 0.71443 0.31189 0.0
C3238 C 0.88129 0.73086 0.39629 0.0
C3239 C 0.86163 0.71863 0.38503 0.0
C3240 C 0.86947 0.71855 0.37745 0.0
C3241 C 0.89231 0.71744 0.35716 0.0
C3242 C 0.88443 0.71803 0.36365 0.0
H3243 H 0.84611 0.71711 0.32221 0.0
H3244 H 0.85899 0.71781 0.30999 0.0
H3245 H 0.87166 0.74117 0.42841 0.0
H3246 H 0.90766 0.72029 0.42169 0.0
H3247 H 0.89478 0.72163 0.43189 0.0
C3248 C 0.65241 0.45928 0.68128 0.0
C3249 C 0.65694 0.46482 0.64386 0.0
C3250 C 0.645 0.46035 0.67616 0.0
C3251 C 0.63077 0.48305 0.60365 0.0
H3252 H 0.61918 0.44139 0.65307 0.0
C3253 C 0.60073 0.47481 0.55955 0.0
C3254 C 0.59619 0.46929 0.59696 0.0
C3255 C 0.60814 0.47475 0.56566 0.0
C3256 C 0.62233 0.45325 0.63952 0.0
H3257 H 0.65722 0.476 0.57179 0.0
H3258 H 0.64431 0.47761 0.56267 0.0
H3259 H 0.63209 0.44047 0.66324 0.0
H3260 H 0.59589 0.45958 0.67034 0.0
H3261 H 0.60879 0.45956 0.68095 0.0
H3262 H 0.62099 0.49573 0.5796 0.0
C3263 C 0.64648 0.47268 0.59623 0.0
C3264 C 0.62973 0.45274 0.6454 0.0
C3265 C 0.65389 0.47164 0.60138 0.0
C3266 C 0.59923 0.46384 0.64069 0.0
C3267 C 0.60663 0.46373 0.64673 0.0
C3268 C 0.62336 0.48354 0.59765 0.0
C3269 C 0.64194 0.46696 0.63347 0.0
C3270 C 0.63405 0.46763 0.62756 0.0
C3271 C 0.61118 0.46911 0.60925 0.0
C3272 C 0.61905 0.46864 0.61555 0.0
H3273 H 0.65458 0.45404 0.71456 0.0
H3274 H 0.64166 0.4561 0.70582 0.0
H3275 H 0.63392 0.49491 0.59006 0.0
H3276 H 0.59857 0.47907 0.5254 0.0
H3277 H 0.6115 0.47879 0.53593 0.0
C3278 C 0.59956 0.77114 0.60754 0.0
C3279 C 0.59658 0.7778 0.65041 0.0
C3280 C 0.60696 0.77 0.60187 0.0
C3281 C 0.6238 0.78949 0.65058 0.0
H3282 H 0.63239 0.74693 0.58217 0.0
C3283 C 0.65426 0.77816 0.64344 0.0
C3284 C 0.65724 0.77318 0.5992 0.0
C3285 C 0.64687 0.77823 0.64991 0.0
C3286 C 0.63006 0.759 0.60096 0.0
H3287 H 0.59907 0.78814 0.72131 0.0
H3288 H 0.61197 0.78588 0.7117 0.0
H3289 H 0.61948 0.74775 0.59375 0.0
H3290 H 0.65477 0.76414 0.52719 0.0
H3291 H 0.64184 0.76431 0.53852 0.0
H3292 H 0.63438 0.80071 0.65791 0.0
C3293 C 0.60858 0.78186 0.68211 0.0
C3294 C 0.62267 0.75948 0.6076 0.0
C3295 C 0.60118 0.78304 0.68774 0.0
C3296 C 0.65265 0.76805 0.56172 0.0
C3297 C 0.64525 0.76805 0.56827 0.0
C3298 C 0.63119 0.78898 0.64408 0.0
C3299 C 0.61156 0.77545 0.63899 0.0
C3300 C 0.61944 0.77474 0.63246 0.0
C3301 C 0.64227 0.77326 0.61237 0.0
C3302 C 0.63441 0.77374 0.61919 0.0
H3303 H 0.59618 0.76701 0.578 0.0
H3304 H 0.60906 0.76523 0.56799 0.0
H3305 H 0.62149 0.80164 0.66912 0.0
H3306 H 0.65763 0.78212 0.67316 0.0
H3307 H 0.64475 0.78205 0.68451 0.0
C3308 C 0.40354 0.52792 0.3518 0.0
C3309 C 0.4066 0.52471 0.3968 0.0
C3310 C 0.39614 0.52834 0.34622 0.0
C3311 C 0.37936 0.51228 0.40149 0.0
H3312 H 0.37084 0.55257 0.32478 0.0
C3313 C 0.34891 0.5247 0.39543 0.0
C3314 C 0.34584 0.52987 0.35163 0.0
C3315 C 0.35632 0.52384 0.4006 0.0
C3316 C 0.37313 0.54106 0.34578 0.0
H3317 H 0.40426 0.51923 0.47116 0.0
H3318 H 0.39131 0.5199 0.46132 0.0
H3319 H 0.38376 0.55141 0.33451 0.0
H3320 H 0.34815 0.53796 0.27872 0.0
H3321 H 0.36108 0.53611 0.28747 0.0
H3322 H 0.36875 0.5018 0.41245 0.0
C3323 C 0.39466 0.52203 0.43035 0.0
C3324 C 0.38054 0.54043 0.35144 0.0
C3325 C 0.40208 0.52174 0.43602 0.0
C3326 C 0.35034 0.53402 0.31301 0.0
C3327 C 0.35776 0.53307 0.31812 0.0
C3328 C 0.37195 0.51285 0.39563 0.0
C3329 C 0.39161 0.52543 0.38542 0.0
C3330 C 0.38374 0.52605 0.37941 0.0
C3331 C 0.36085 0.52803 0.36204 0.0
C3332 C 0.36874 0.52727 0.36777 0.0
H3333 H 0.40687 0.53024 0.3208 0.0
H3334 H 0.39395 0.53076 0.31105 0.0
H3335 H 0.38167 0.50088 0.42273 0.0
H3336 H 0.3456 0.52149 0.426 0.0
H3337 H 0.3585 0.5202 0.43513 0.0
C3338 C 0.4027 0.21425 0.31718 0.0
C3339 C 0.40744 0.21457 0.35591 0.0
C3340 C 0.39533 0.21527 0.32456 0.0
C3341 C 0.3815 0.2071 0.41613 0.0
H3342 H 0.36967 0.23746 0.33144 0.0
C3343 C 0.35136 0.21891 0.4501 0.0
C3344 C 0.34683 0.21753 0.41039 0.0
C3345 C 0.35877 0.21926 0.44429 0.0
C3346 C 0.37289 0.22877 0.35515 0.0
H3347 H 0.40815 0.21644 0.43284 0.0
H3348 H 0.3953 0.21838 0.44565 0.0
H3349 H 0.38256 0.23675 0.31974 0.0
H3350 H 0.34655 0.21562 0.33333 0.0
H3351 H 0.35945 0.21608 0.32328 0.0
H3352 H 0.37182 0.19906 0.45141 0.0
C3353 C 0.39727 0.21707 0.40958 0.0
C3354 C 0.38028 0.22836 0.34843 0.0
C3355 C 0.40464 0.21606 0.4022 0.0
C3356 C 0.34988 0.2167 0.36472 0.0
C3357 C 0.35728 0.21708 0.35891 0.0
C3358 C 0.3741 0.20753 0.42287 0.0
C3359 C 0.39252 0.21664 0.37086 0.0
C3360 C 0.38467 0.21744 0.37869 0.0
C3361 C 0.36182 0.2183 0.39862 0.0
C3362 C 0.36971 0.21829 0.39231 0.0
H3363 H 0.40467 0.21307 0.28107 0.0
H3364 H 0.39182 0.21465 0.29398 0.0
H3365 H 0.38471 0.19832 0.43967 0.0
H3366 H 0.34918 0.21963 0.48577 0.0
H3367 H 0.36212 0.22043 0.47558 0.0
C3368 C 0.65257 0.96038 0.1824 0.0
C3369 C 0.65723 0.96527 0.14512 0.0
C3370 C 0.64518 0.96141 0.1761 0.0
C3371 C 0.63119 0.98284 0.09924 0.0
H3372 H 0.61945 0.94223 0.1523 0.0
C3373 C 0.60112 0.97415 0.05515 0.0
C3374 C 0.59658 0.96952 0.09329 0.0
C3375 C 0.60854 0.97409 0.06119 0.0
C3376 C 0.62264 0.95379 0.13766 0.0
H3377 H 0.65776 0.97526 0.07204 0.0
H3378 H 0.64488 0.97677 0.06087 0.0
H3379 H 0.63233 0.94136 0.16361 0.0
H3380 H 0.59628 0.96144 0.16788 0.0
H3381 H 0.60917 0.9614 0.17833 0.0
H3382 H 0.62147 0.99515 0.07298 0.0
C3383 C 0.64693 0.97239 0.09522 0.0
C3384 C 0.63003 0.95331 0.14422 0.0
C3385 C 0.65433 0.97141 0.10156 0.0
C3386 C 0.59961 0.96499 0.13765 0.0
C3387 C 0.60701 0.96486 0.14362 0.0
C3388 C 0.62379 0.98328 0.09255 0.0
C3389 C 0.64227 0.9673 0.13233 0.0
C3390 C 0.6344 0.96786 0.12524 0.0
C3391 C 0.61156 0.96932 0.10544 0.0
C3392 C 0.61943 0.96879 0.11184 0.0
H3393 H 0.65463 0.95568 0.21649 0.0
H3394 H 0.64175 0.95768 0.2057 0.0
H3395 H 0.63438 0.99441 0.08466 0.0
H3396 H 0.59896 0.97771 0.02052 0.0
H3397 H 0.6119 0.97743 0.03098 0.0
C3398 C 0.60107 0.28426 0.1773 0.0
C3399 C 0.59647 0.27928 0.13981 0.0
C3400 C 0.60847 0.28309 0.17157 0.0
C3401 C 0.62252 0.26094 0.09646 0.0
H3402 H 0.63434 0.30145 0.14913 0.0
C3403 C 0.65264 0.26863 0.05333 0.0
C3404 C 0.65718 0.27344 0.09133 0.0
C3405 C 0.64523 0.26887 0.05925 0.0
C3406 C 0.63113 0.28992 0.13463 0.0
H3407 H 0.59604 0.26904 0.06692 0.0
H3408 H 0.60894 0.26728 0.05675 0.0
H3409 H 0.62145 0.30273 0.15958 0.0
H3410 H 0.65748 0.28202 0.16556 0.0
H3411 H 0.64458 0.28235 0.17583 0.0
H3412 H 0.63223 0.24823 0.0712 0.0
C3413 C 0.60683 0.27183 0.09083 0.0
C3414 C 0.62373 0.29063 0.14068 0.0
C3415 C 0.59943 0.27296 0.09659 0.0
C3416 C 0.65414 0.27832 0.13546 0.0
C3417 C 0.64674 0.27862 0.14131 0.0
C3418 C 0.62993 0.26026 0.09029 0.0
C3419 C 0.61145 0.27696 0.12819 0.0
C3420 C 0.61933 0.27613 0.12176 0.0
C3421 C 0.64219 0.27399 0.10324 0.0
C3422 C 0.63431 0.27472 0.10941 0.0
H3423 H 0.59897 0.2891 0.21114 0.0
H3424 H 0.61187 0.28687 0.20134 0.0
H3425 H 0.61931 0.24939 0.08199 0.0
H3426 H 0.65481 0.26482 0.01887 0.0
H3427 H 0.64186 0.26539 0.02911 0.0
C3428 C 0.34968 0.02356 0.90323 0.0
C3429 C 0.34662 0.02636 0.85805 0.0
C3430 C 0.35708 0.02316 0.90885 0.0
C3431 C 0.37387 0.01522 0.84354 0.0
H3432 H 0.38239 0.04393 0.94728 0.0
C3433 C 0.40422 0.028 0.85576 0.0
C3434 C 0.40743 0.02748 0.90094 0.0
C3435 C 0.3968 0.02735 0.85113 0.0
C3436 C 0.3801 0.03561 0.91853 0.0
H3437 H 0.34897 0.03069 0.78323 0.0
H3438 H 0.36191 0.02995 0.79308 0.0
H3439 H 0.36945 0.04357 0.93801 0.0
H3440 H 0.40536 0.02564 0.97672 0.0
H3441 H 0.39241 0.02417 0.96862 0.0
H3442 H 0.38449 0.00713 0.82415 0.0
C3443 C 0.35856 0.02798 0.82411 0.0
C3444 C 0.37268 0.03544 0.91317 0.0
C3445 C 0.35115 0.02851 0.81852 0.0
C3446 C 0.40306 0.02616 0.9414 0.0
C3447 C 0.39563 0.02543 0.93676 0.0
C3448 C 0.38128 0.01529 0.84903 0.0
C3449 C 0.36161 0.02542 0.86938 0.0
C3450 C 0.36949 0.02531 0.8755 0.0
C3451 C 0.39241 0.02606 0.89155 0.0
C3452 C 0.3845 0.02557 0.88645 0.0
H3453 H 0.34635 0.02181 0.93444 0.0
H3454 H 0.35927 0.02093 0.94409 0.0
H3455 H 0.37156 0.00705 0.81456 0.0
H3456 H 0.40743 0.02909 0.82383 0.0
H3457 H 0.39452 0.02819 0.81581 0.0
C3458 C 0.40411 0.71902 0.89327 0.0
C3459 C 0.40694 0.71454 0.84828 0.0
C3460 C 0.39674 0.71975 0.90036 0.0
C3461 C 0.37961 0.72487 0.83649 0.0
H3462 H 0.37163 0.70164 0.95011 0.0
C3463 C 0.34938 0.71215 0.85918 0.0
C3464 C 0.34637 0.71552 0.90424 0.0
C3465 C 0.35677 0.71259 0.85283 0.0
C3466 C 0.37377 0.70841 0.9185 0.0
H3467 H 0.40422 0.70748 0.77531 0.0
H3468 H 0.39135 0.70865 0.78777 0.0
H3469 H 0.38451 0.70147 0.93799 0.0
H3470 H 0.34878 0.72213 0.97792 0.0
H3471 H 0.36169 0.72309 0.96672 0.0
H3472 H 0.36887 0.73178 0.81694 0.0
C3473 C 0.39484 0.71178 0.81748 0.0
C3474 C 0.38116 0.70831 0.91153 0.0
C3475 C 0.40222 0.71101 0.8104 0.0
C3476 C 0.35092 0.71941 0.94278 0.0
C3477 C 0.35833 0.71986 0.93641 0.0
C3478 C 0.37222 0.725 0.84349 0.0
C3479 C 0.39201 0.71606 0.8626 0.0
C3480 C 0.38416 0.71647 0.87036 0.0
C3481 C 0.36134 0.71644 0.89135 0.0
C3482 C 0.36921 0.7167 0.88448 0.0
H3483 H 0.4076 0.7219 0.9232 0.0
H3484 H 0.39473 0.72335 0.93539 0.0
H3485 H 0.38176 0.73154 0.80475 0.0
H3486 H 0.34603 0.70907 0.8287 0.0
H3487 H 0.35891 0.70962 0.81779 0.0
loop_
_geom_bond_atom_site_label_1
_geom_bond_atom_site_label_2
_geom_bond_distance
_geom_bond_site_symmetry_2
_ccdc_geom_bond_type
Co0 O3 1.970 . S
Co0 N17 1.989 . S
Co0 O25 1.967 . S
Co0 O32 1.920 . S
Co1 O4 1.966 . S
Co1 N10 2.022 . S
Co1 N18 1.993 . S
Co1 O26 1.941 . S
C2 O3 1.258 . S
C2 O4 1.263 . S
O3 Co0 1.970 . S
O3 C2 1.258 . S
O4 Co1 1.966 . S
O4 C2 1.263 . S
C5 O6 1.235 . S
C5 O32 1.289 . S
O6 C5 1.235 . S
C7 C9 1.400 . S
C7 N10 1.351 . S
C7 C12 1.501 . S
C8 C9 1.387 . S
C8 N11 1.341 . S
C9 C7 1.400 . S
C9 C8 1.387 . S
N10 Co1 2.022 . S
N10 C7 1.351 . S
N10 N11 1.365 . S
N11 C8 1.341 . S
N11 N10 1.365 . S
N11 H31 0.862 . S
C12 C7 1.501 . S
C12 H13 0.961 . S
C12 H14 0.961 1_554 S
C12 H15 0.960 . S
H13 C12 0.961 . S
H14 C12 0.961 1_556 S
H15 C12 0.960 . S
C16 N17 1.342 . S
C16 C20 1.401 . S
C16 C21 1.499 . S
N17 Co0 1.989 . S
N17 C16 1.342 . S
N17 N18 1.388 . S
N18 Co1 1.993 . S
N18 N17 1.388 . S
N18 C19 1.346 . S
C19 N18 1.346 . S
C19 C20 1.396 . S
C19 C29 1.510 . S
C20 C16 1.401 . S
C20 C19 1.396 . S
C21 C16 1.499 . S
C21 H22 0.959 . S
C21 H23 0.960 . S
C21 H24 0.961 . S
H22 C21 0.959 . S
H23 C21 0.960 . S
H24 C21 0.961 . S
O25 Co0 1.967 . S
O25 C33 1.258 . S
O26 Co1 1.941 . S
O26 C33 1.266 . S
H27 C29 0.959 . S
H28 C29 0.961 . S
C29 C19 1.510 . S
C29 H27 0.959 . S
C29 H28 0.961 . S
C29 H30 0.960 . S
H30 C29 0.960 . S
H31 N11 0.862 . S
O32 Co0 1.920 . S
O32 C5 1.289 . S
C33 O25 1.258 . S
C33 O26 1.266 . S
Co34 O37 1.970 . S
Co34 N51 1.989 . S
Co34 O59 1.967 . S
Co34 O66 1.920 . S
Co35 O38 1.966 . S
Co35 N44 2.022 . S
Co35 N52 1.993 . S
Co35 O60 1.941 . S
C36 O37 1.258 . S
C36 O38 1.263 . S
O37 Co34 1.970 . S
O37 C36 1.258 . S
O38 Co35 1.966 . S
O38 C36 1.263 . S
C39 O40 1.235 . S
C39 O66 1.289 . S
O40 C39 1.235 . S
C41 C43 1.400 . S
C41 N44 1.351 . S
C41 C46 1.501 . S
C42 C43 1.387 . S
C42 N45 1.341 . S
C43 C41 1.400 . S
C43 C42 1.387 . S
N44 Co35 2.022 . S
N44 C41 1.351 . S
N44 N45 1.365 . S
N45 C42 1.341 . S
N45 N44 1.365 . S
N45 H65 0.862 . S
C46 C41 1.501 . S
C46 H47 0.961 . S
C46 H48 0.961 1_554 S
C46 H49 0.960 . S
H47 C46 0.961 . S
H48 C46 0.961 1_556 S
H49 C46 0.960 . S
C50 N51 1.342 . S
C50 C54 1.401 . S
C50 C55 1.499 . S
N51 Co34 1.989 . S
N51 C50 1.342 . S
N51 N52 1.388 . S
N52 Co35 1.993 . S
N52 N51 1.388 . S
N52 C53 1.346 . S
C53 N52 1.346 . S
C53 C54 1.396 . S
C53 C63 1.510 . S
C54 C50 1.401 . S
C54 C53 1.396 . S
C55 C50 1.499 . S
C55 H56 0.959 . S
C55 H57 0.960 . S
C55 H58 0.961 . S
H56 C55 0.959 . S
H57 C55 0.960 . S
H58 C55 0.961 . S
O59 Co34 1.967 . S
O59 C67 1.258 . S
O60 Co35 1.941 . S
O60 C67 1.266 . S
H61 C63 0.959 . S
H62 C63 0.961 . S
C63 C53 1.510 . S
C63 H61 0.959 . S
C63 H62 0.961 . S
C63 H64 0.960 . S
H64 C63 0.960 . S
H65 N45 0.862 . S
O66 Co34 1.920 . S
O66 C39 1.289 . S
C67 O59 1.258 . S
C67 O60 1.266 . S
Co68 O71 1.970 . S
Co68 N85 1.989 . S
Co68 O93 1.967 . S
Co68 O100 1.920 . S
Co69 O72 1.966 . S
Co69 N78 2.022 . S
Co69 N86 1.993 . S
Co69 O94 1.941 . S
C70 O71 1.258 . S
C70 O72 1.263 . S
O71 Co68 1.970 . S
O71 C70 1.258 . S
O72 Co69 1.966 . S
O72 C70 1.263 . S
C73 O74 1.235 . S
C73 O100 1.289 . S
O74 C73 1.235 . S
C75 C77 1.400 . S
C75 N78 1.351 . S
C75 C80 1.501 . S
C76 C77 1.387 . S
C76 N79 1.341 . S
C77 C75 1.400 . S
C77 C76 1.387 . S
N78 Co69 2.022 . S
N78 C75 1.351 . S
N78 N79 1.365 . S
N79 C76 1.341 . S
N79 N78 1.365 . S
N79 H99 0.862 . S
C80 C75 1.501 . S
C80 H81 0.961 . S
C80 H82 0.961 . S
C80 H83 0.960 . S
H81 C80 0.961 . S
H82 C80 0.961 . S
H83 C80 0.960 . S
C84 N85 1.342 . S
C84 C88 1.401 . S
C84 C89 1.499 . S
N85 Co68 1.989 . S
N85 C84 1.342 . S
N85 N86 1.388 . S
N86 Co69 1.993 . S
N86 N85 1.388 . S
N86 C87 1.346 . S
C87 N86 1.346 . S
C87 C88 1.396 . S
C87 C97 1.510 . S
C88 C84 1.401 . S
C88 C87 1.396 . S
C89 C84 1.499 . S
C89 H90 0.959 . S
C89 H91 0.960 . S
C89 H92 0.961 . S
H90 C89 0.959 . S
H91 C89 0.960 . S
H92 C89 0.961 . S
O93 Co68 1.967 . S
O93 C101 1.258 . S
O94 Co69 1.941 . S
O94 C101 1.266 . S
H95 C97 0.959 . S
H96 C97 0.961 . S
C97 C87 1.510 . S
C97 H95 0.959 . S
C97 H96 0.961 . S
C97 H98 0.960 . S
H98 C97 0.960 . S
H99 N79 0.862 . S
O100 Co68 1.920 . S
O100 C73 1.289 . S
C101 O93 1.258 . S
C101 O94 1.266 . S
Co102 O105 1.970 . S
Co102 N119 1.989 . S
Co102 O127 1.967 . S
Co102 O134 1.920 . S
Co103 O106 1.966 . S
Co103 N112 2.022 . S
Co103 N120 1.993 . S
Co103 O128 1.941 . S
C104 O105 1.258 . S
C104 O106 1.263 . S
O105 Co102 1.970 . S
O105 C104 1.258 . S
O106 Co103 1.966 . S
O106 C104 1.263 . S
C107 O108 1.235 . S
C107 O134 1.289 . S
O108 C107 1.235 . S
C109 C111 1.400 . S
C109 N112 1.351 . S
C109 C114 1.501 . S
C110 C111 1.387 . S
C110 N113 1.341 . S
C111 C109 1.400 . S
C111 C110 1.387 . S
N112 Co103 2.022 . S
N112 C109 1.351 . S
N112 N113 1.365 . S
N113 C110 1.341 . S
N113 N112 1.365 . S
N113 H133 0.862 . S
C114 C109 1.501 . S
C114 H115 0.961 . S
C114 H116 0.961 . S
C114 H117 0.960 . S
H115 C114 0.961 . S
H116 C114 0.961 . S
H117 C114 0.960 . S
C118 N119 1.342 . S
C118 C122 1.401 . S
C118 C123 1.499 . S
N119 Co102 1.989 . S
N119 C118 1.342 . S
N119 N120 1.388 . S
N120 Co103 1.993 . S
N120 N119 1.388 . S
N120 C121 1.346 . S
C121 N120 1.346 . S
C121 C122 1.396 . S
C121 C131 1.510 . S
C122 C118 1.401 . S
C122 C121 1.396 . S
C123 C118 1.499 . S
C123 H124 0.959 . S
C123 H125 0.960 . S
C123 H126 0.961 . S
H124 C123 0.959 . S
H125 C123 0.960 . S
H126 C123 0.961 . S
O127 Co102 1.967 . S
O127 C135 1.258 . S
O128 Co103 1.941 . S
O128 C135 1.266 . S
H129 C131 0.959 . S
H130 C131 0.961 . S
C131 C121 1.510 . S
C131 H129 0.959 . S
C131 H130 0.961 . S
C131 H132 0.960 . S
H132 C131 0.960 . S
H133 N113 0.862 . S
O134 Co102 1.920 . S
O134 C107 1.289 . S
C135 O127 1.258 . S
C135 O128 1.266 . S
Co136 O139 1.970 . S
Co136 N153 1.989 . S
Co136 O161 1.967 . S
Co136 O168 1.920 . S
Co137 O140 1.966 . S
Co137 N146 2.022 . S
Co137 N154 1.993 . S
Co137 O162 1.941 . S
C138 O139 1.258 . S
C138 O140 1.263 . S
O139 Co136 1.970 . S
O139 C138 1.258 . S
O140 Co137 1.966 . S
O140 C138 1.263 . S
C141 O142 1.235 . S
C141 O168 1.289 . S
O142 C141 1.235 . S
C143 C145 1.400 . S
C143 N146 1.351 . S
C143 C148 1.501 . S
C144 C145 1.387 . S
C144 N147 1.341 . S
C145 C143 1.400 . S
C145 C144 1.387 . S
N146 Co137 2.022 . S
N146 C143 1.351 . S
N146 N147 1.365 . S
N147 C144 1.341 . S
N147 N146 1.365 . S
N147 H167 0.862 . S
C148 C143 1.501 . S
C148 H149 0.961 . S
C148 H150 0.961 1_556 S
C148 H151 0.960 . S
H149 C148 0.961 . S
H150 C148 0.961 1_554 S
H151 C148 0.960 . S
C152 N153 1.342 . S
C152 C156 1.401 . S
C152 C157 1.499 . S
N153 Co136 1.989 . S
N153 C152 1.342 . S
N153 N154 1.388 . S
N154 Co137 1.993 . S
N154 N153 1.388 . S
N154 C155 1.346 . S
C155 N154 1.346 . S
C155 C156 1.396 . S
C155 C165 1.510 . S
C156 C152 1.401 . S
C156 C155 1.396 . S
C157 C152 1.499 . S
C157 H158 0.959 . S
C157 H159 0.960 . S
C157 H160 0.961 . S
H158 C157 0.959 . S
H159 C157 0.960 . S
H160 C157 0.961 . S
O161 Co136 1.967 . S
O161 C169 1.258 . S
O162 Co137 1.941 . S
O162 C169 1.266 . S
H163 C165 0.959 . S
H164 C165 0.961 . S
C165 C155 1.510 . S
C165 H163 0.959 . S
C165 H164 0.961 . S
C165 H166 0.960 . S
H166 C165 0.960 . S
H167 N147 0.862 . S
O168 Co136 1.920 . S
O168 C141 1.289 . S
C169 O161 1.258 . S
C169 O162 1.266 . S
Co170 O173 1.970 . S
Co170 N187 1.989 . S
Co170 O195 1.967 . S
Co170 O202 1.920 . S
Co171 O174 1.966 . S
Co171 N180 2.022 . S
Co171 N188 1.993 . S
Co171 O196 1.941 . S
C172 O173 1.258 . S
C172 O174 1.263 . S
O173 Co170 1.970 . S
O173 C172 1.258 . S
O174 Co171 1.966 . S
O174 C172 1.263 . S
C175 O176 1.235 . S
C175 O202 1.289 . S
O176 C175 1.235 . S
C177 C179 1.400 . S
C177 N180 1.351 . S
C177 C182 1.501 . S
C178 C179 1.387 . S
C178 N181 1.341 . S
C179 C177 1.400 . S
C179 C178 1.387 . S
N180 Co171 2.022 . S
N180 C177 1.351 . S
N180 N181 1.365 . S
N181 C178 1.341 . S
N181 N180 1.365 . S
N181 H201 0.862 . S
C182 C177 1.501 . S
C182 H183 0.961 . S
C182 H184 0.961 1_556 S
C182 H185 0.960 . S
H183 C182 0.961 . S
H184 C182 0.961 1_554 S
H185 C182 0.960 . S
C186 N187 1.342 . S
C186 C190 1.401 . S
C186 C191 1.499 . S
N187 Co170 1.989 . S
N187 C186 1.342 . S
N187 N188 1.388 . S
N188 Co171 1.993 . S
N188 N187 1.388 . S
N188 C189 1.346 . S
C189 N188 1.346 . S
C189 C190 1.396 . S
C189 C199 1.510 . S
C190 C186 1.401 . S
C190 C189 1.396 . S
C191 C186 1.499 . S
C191 H192 0.959 . S
C191 H193 0.960 . S
C191 H194 0.961 . S
H192 C191 0.959 . S
H193 C191 0.960 . S
H194 C191 0.961 . S
O195 Co170 1.967 . S
O195 C203 1.258 . S
O196 Co171 1.941 . S
O196 C203 1.266 . S
H197 C199 0.959 . S
H198 C199 0.961 . S
C199 C189 1.510 . S
C199 H197 0.959 . S
C199 H198 0.961 . S
C199 H200 0.960 . S
H200 C199 0.960 . S
H201 N181 0.862 . S
O202 Co170 1.920 . S
O202 C175 1.289 . S
C203 O195 1.258 . S
C203 O196 1.266 . S
Co204 O207 1.970 . S
Co204 N221 1.989 . S
Co204 O229 1.967 . S
Co204 O236 1.920 . S
Co205 O208 1.966 . S
Co205 N214 2.022 . S
Co205 N222 1.993 . S
Co205 O230 1.941 . S
C206 O207 1.258 . S
C206 O208 1.263 . S
O207 Co204 1.970 . S
O207 C206 1.258 . S
O208 Co205 1.966 . S
O208 C206 1.263 . S
C209 O210 1.235 . S
C209 O236 1.289 . S
O210 C209 1.235 . S
C211 C213 1.400 . S
C211 N214 1.351 . S
C211 C216 1.501 . S
C212 C213 1.387 . S
C212 N215 1.341 . S
C213 C211 1.400 . S
C213 C212 1.387 . S
N214 Co205 2.022 . S
N214 C211 1.351 . S
N214 N215 1.365 . S
N215 C212 1.341 . S
N215 N214 1.365 . S
N215 H235 0.862 . S
C216 C211 1.501 . S
C216 H217 0.961 . S
C216 H218 0.961 . S
C216 H219 0.960 . S
H217 C216 0.961 . S
H218 C216 0.961 . S
H219 C216 0.960 . S
C220 N221 1.342 . S
C220 C224 1.401 . S
C220 C225 1.499 . S
N221 Co204 1.989 . S
N221 C220 1.342 . S
N221 N222 1.388 . S
N222 Co205 1.993 . S
N222 N221 1.388 . S
N222 C223 1.346 . S
C223 N222 1.346 . S
C223 C224 1.396 . S
C223 C233 1.510 . S
C224 C220 1.401 . S
C224 C223 1.396 . S
C225 C220 1.499 . S
C225 H226 0.959 . S
C225 H227 0.960 . S
C225 H228 0.961 . S
H226 C225 0.959 . S
H227 C225 0.960 . S
H228 C225 0.961 . S
O229 Co204 1.967 . S
O229 C237 1.258 . S
O230 Co205 1.941 . S
O230 C237 1.266 . S
H231 C233 0.959 . S
H232 C233 0.961 . S
C233 C223 1.510 . S
C233 H231 0.959 . S
C233 H232 0.961 . S
C233 H234 0.960 . S
H234 C233 0.960 . S
H235 N215 0.862 . S
O236 Co204 1.920 . S
O236 C209 1.289 . S
C237 O229 1.258 . S
C237 O230 1.266 . S
Co238 O241 1.970 . S
Co238 N255 1.989 . S
Co238 O263 1.967 . S
Co238 O270 1.920 . S
Co239 O242 1.966 . S
Co239 N248 2.022 . S
Co239 N256 1.993 . S
Co239 O264 1.941 . S
C240 O241 1.258 . S
C240 O242 1.263 . S
O241 Co238 1.970 . S
O241 C240 1.258 . S
O242 Co239 1.966 . S
O242 C240 1.263 . S
C243 O244 1.235 . S
C243 O270 1.289 . S
O244 C243 1.235 . S
C245 C247 1.400 . S
C245 N248 1.351 . S
C245 C250 1.501 . S
C246 C247 1.387 . S
C246 N249 1.341 . S
C247 C245 1.400 . S
C247 C246 1.387 . S
N248 Co239 2.022 . S
N248 C245 1.351 . S
N248 N249 1.365 . S
N249 C246 1.341 . S
N249 N248 1.365 . S
N249 H269 0.862 . S
C250 C245 1.501 . S
C250 H251 0.961 . S
C250 H252 0.961 . S
C250 H253 0.960 . S
H251 C250 0.961 . S
H252 C250 0.961 . S
H253 C250 0.960 . S
C254 N255 1.342 . S
C254 C258 1.401 . S
C254 C259 1.499 . S
N255 Co238 1.989 . S
N255 C254 1.342 . S
N255 N256 1.388 . S
N256 Co239 1.993 . S
N256 N255 1.388 . S
N256 C257 1.346 . S
C257 N256 1.346 . S
C257 C258 1.396 . S
C257 C267 1.510 . S
C258 C254 1.401 . S
C258 C257 1.396 . S
C259 C254 1.499 . S
C259 H260 0.959 . S
C259 H261 0.960 . S
C259 H262 0.961 . S
H260 C259 0.959 . S
H261 C259 0.960 . S
H262 C259 0.961 . S
O263 Co238 1.967 . S
O263 C271 1.258 . S
O264 Co239 1.941 . S
O264 C271 1.266 . S
H265 C267 0.959 . S
H266 C267 0.961 . S
C267 C257 1.510 . S
C267 H265 0.959 . S
C267 H266 0.961 . S
C267 H268 0.960 . S
H268 C267 0.960 . S
H269 N249 0.862 . S
O270 Co238 1.920 . S
O270 C243 1.289 . S
C271 O263 1.258 . S
C271 O264 1.266 . S
Co272 O275 1.970 . S
Co272 N289 1.989 . S
Co272 O297 1.967 . S
Co272 O304 1.920 . S
Co273 O276 1.966 . S
Co273 N282 2.022 . S
Co273 N290 1.993 . S
Co273 O298 1.941 . S
C274 O275 1.258 . S
C274 O276 1.263 . S
O275 Co272 1.970 . S
O275 C274 1.258 . S
O276 Co273 1.966 . S
O276 C274 1.263 . S
C277 O278 1.235 . S
C277 O304 1.289 . S
O278 C277 1.235 . S
C279 C281 1.400 . S
C279 N282 1.351 . S
C279 C284 1.501 . S
C280 C281 1.387 . S
C280 N283 1.341 . S
C281 C279 1.400 . S
C281 C280 1.387 . S
N282 Co273 2.022 . S
N282 C279 1.351 . S
N282 N283 1.365 . S
N283 C280 1.341 . S
N283 N282 1.365 . S
N283 H303 0.862 . S
C284 C279 1.501 . S
C284 H285 0.961 . S
C284 H286 0.961 . S
C284 H287 0.960 . S
H285 C284 0.961 . S
H286 C284 0.961 . S
H287 C284 0.960 . S
C288 N289 1.342 1_545 S
C288 C292 1.401 . S
C288 C293 1.499 . S
N289 Co272 1.989 . S
N289 C288 1.342 1_565 S
N289 N290 1.388 . S
N290 Co273 1.993 . S
N290 N289 1.388 . S
N290 C291 1.346 1_565 S
C291 N290 1.346 1_545 S
C291 C292 1.396 . S
C291 C301 1.510 . S
C292 C288 1.401 . S
C292 C291 1.396 . S
C293 C288 1.499 . S
C293 H294 0.959 . S
C293 H295 0.960 . S
C293 H296 0.961 . S
H294 C293 0.959 . S
H295 C293 0.960 . S
H296 C293 0.961 . S
O297 Co272 1.967 . S
O297 C305 1.258 . S
O298 Co273 1.941 . S
O298 C305 1.266 . S
H299 C301 0.959 . S
H300 C301 0.961 . S
C301 C291 1.510 . S
C301 H299 0.959 . S
C301 H300 0.961 . S
C301 H302 0.960 . S
H302 C301 0.960 . S
H303 N283 0.862 . S
O304 Co272 1.920 . S
O304 C277 1.289 . S
C305 O297 1.258 . S
C305 O298 1.266 . S
Co306 O309 1.970 . S
Co306 N323 1.989 . S
Co306 O331 1.967 . S
Co306 O338 1.920 . S
Co307 O310 1.966 . S
Co307 N316 2.022 . S
Co307 N324 1.993 . S
Co307 O332 1.941 . S
C308 O309 1.258 . S
C308 O310 1.263 . S
O309 Co306 1.970 . S
O309 C308 1.258 . S
O310 Co307 1.966 . S
O310 C308 1.263 . S
C311 O312 1.235 . S
C311 O338 1.289 . S
O312 C311 1.235 . S
C313 C315 1.400 . S
C313 N316 1.351 . S
C313 C318 1.501 . S
C314 C315 1.387 . S
C314 N317 1.341 . S
C315 C313 1.400 . S
C315 C314 1.387 . S
N316 Co307 2.022 . S
N316 C313 1.351 . S
N316 N317 1.365 . S
N317 C314 1.341 . S
N317 N316 1.365 . S
N317 H337 0.862 . S
C318 C313 1.501 . S
C318 H319 0.961 . S
C318 H320 0.961 . S
C318 H321 0.960 . S
H319 C318 0.961 . S
H320 C318 0.961 . S
H321 C318 0.960 . S
C322 N323 1.342 . S
C322 C326 1.401 . S
C322 C327 1.499 . S
N323 Co306 1.989 . S
N323 C322 1.342 . S
N323 N324 1.388 . S
N324 Co307 1.993 . S
N324 N323 1.388 . S
N324 C325 1.346 . S
C325 N324 1.346 . S
C325 C326 1.396 . S
C325 C335 1.510 . S
C326 C322 1.401 . S
C326 C325 1.396 . S
C327 C322 1.499 . S
C327 H328 0.959 . S
C327 H329 0.960 . S
C327 H330 0.961 . S
H328 C327 0.959 . S
H329 C327 0.960 . S
H330 C327 0.961 . S
O331 Co306 1.967 . S
O331 C339 1.258 . S
O332 Co307 1.941 . S
O332 C339 1.266 . S
H333 C335 0.959 . S
H334 C335 0.961 . S
C335 C325 1.510 . S
C335 H333 0.959 . S
C335 H334 0.961 . S
C335 H336 0.960 . S
H336 C335 0.960 . S
H337 N317 0.862 . S
O338 Co306 1.920 . S
O338 C311 1.289 . S
C339 O331 1.258 . S
C339 O332 1.266 . S
Co340 O343 1.970 . S
Co340 N357 1.989 . S
Co340 O365 1.967 . S
Co340 O372 1.920 . S
Co341 O344 1.966 . S
Co341 N350 2.022 . S
Co341 N358 1.993 . S
Co341 O366 1.941 . S
C342 O343 1.258 . S
C342 O344 1.263 . S
O343 Co340 1.970 . S
O343 C342 1.258 . S
O344 Co341 1.966 . S
O344 C342 1.263 . S
C345 O346 1.235 . S
C345 O372 1.289 . S
O346 C345 1.235 . S
C347 C349 1.400 . S
C347 N350 1.351 . S
C347 C352 1.501 . S
C348 C349 1.387 . S
C348 N351 1.341 . S
C349 C347 1.400 . S
C349 C348 1.387 . S
N350 Co341 2.022 . S
N350 C347 1.351 . S
N350 N351 1.365 . S
N351 C348 1.341 . S
N351 N350 1.365 . S
N351 H371 0.862 . S
C352 C347 1.501 . S
C352 H353 0.961 . S
C352 H354 0.961 . S
C352 H355 0.960 . S
H353 C352 0.961 . S
H354 C352 0.961 . S
H355 C352 0.960 . S
C356 N357 1.342 . S
C356 C360 1.401 . S
C356 C361 1.499 . S
N357 Co340 1.989 . S
N357 C356 1.342 . S
N357 N358 1.388 . S
N358 Co341 1.993 . S
N358 N357 1.388 . S
N358 C359 1.346 . S
C359 N358 1.346 . S
C359 C360 1.396 . S
C359 C369 1.510 . S
C360 C356 1.401 . S
C360 C359 1.396 . S
C361 C356 1.499 . S
C361 H362 0.959 . S
C361 H363 0.960 . S
C361 H364 0.961 . S
H362 C361 0.959 . S
H363 C361 0.960 . S
H364 C361 0.961 . S
O365 Co340 1.967 . S
O365 C373 1.258 . S
O366 Co341 1.941 . S
O366 C373 1.266 . S
H367 C369 0.959 . S
H368 C369 0.961 . S
C369 C359 1.510 . S
C369 H367 0.959 . S
C369 H368 0.961 . S
C369 H370 0.960 . S
H370 C369 0.960 . S
H371 N351 0.862 . S
O372 Co340 1.920 . S
O372 C345 1.289 . S
C373 O365 1.258 . S
C373 O366 1.266 . S
Co374 O377 1.970 . S
Co374 N391 1.989 . S
Co374 O399 1.967 . S
Co374 O406 1.920 . S
Co375 O378 1.966 . S
Co375 N384 2.022 . S
Co375 N392 1.993 . S
Co375 O400 1.941 . S
C376 O377 1.258 . S
C376 O378 1.263 . S
O377 Co374 1.970 . S
O377 C376 1.258 . S
O378 Co375 1.966 . S
O378 C376 1.263 . S
C379 O380 1.235 . S
C379 O406 1.289 . S
O380 C379 1.235 . S
C381 C383 1.400 . S
C381 N384 1.351 . S
C381 C386 1.501 . S
C382 C383 1.387 . S
C382 N385 1.341 . S
C383 C381 1.400 . S
C383 C382 1.387 . S
N384 Co375 2.022 . S
N384 C381 1.351 . S
N384 N385 1.365 . S
N385 C382 1.341 . S
N385 N384 1.365 . S
N385 H405 0.862 . S
C386 C381 1.501 . S
C386 H387 0.961 . S
C386 H388 0.961 . S
C386 H389 0.960 . S
H387 C386 0.961 . S
H388 C386 0.961 . S
H389 C386 0.960 . S
C390 N391 1.342 1_545 S
C390 C394 1.401 . S
C390 C395 1.499 . S
N391 Co374 1.989 . S
N391 C390 1.342 1_565 S
N391 N392 1.388 . S
N392 Co375 1.993 . S
N392 N391 1.388 . S
N392 C393 1.346 1_565 S
C393 N392 1.346 1_545 S
C393 C394 1.396 . S
C393 C403 1.510 . S
C394 C390 1.401 . S
C394 C393 1.396 . S
C395 C390 1.499 . S
C395 H396 0.959 . S
C395 H397 0.960 . S
C395 H398 0.961 . S
H396 C395 0.959 . S
H397 C395 0.960 . S
H398 C395 0.961 . S
O399 Co374 1.967 . S
O399 C407 1.258 . S
O400 Co375 1.941 . S
O400 C407 1.266 . S
H401 C403 0.959 . S
H402 C403 0.961 . S
C403 C393 1.510 . S
C403 H401 0.959 . S
C403 H402 0.961 . S
C403 H404 0.960 . S
H404 C403 0.960 . S
H405 N385 0.862 . S
O406 Co374 1.920 . S
O406 C379 1.289 . S
C407 O399 1.258 . S
C407 O400 1.266 . S
Co408 O411 1.970 . S
Co408 N425 1.989 . S
Co408 O433 1.967 . S
Co408 O440 1.920 . S
Co409 O412 1.966 . S
Co409 N418 2.022 . S
Co409 N426 1.993 . S
Co409 O434 1.941 . S
C410 O411 1.258 . S
C410 O412 1.263 . S
O411 Co408 1.970 . S
O411 C410 1.258 . S
O412 Co409 1.966 . S
O412 C410 1.263 . S
C413 O414 1.235 . S
C413 O440 1.289 . S
O414 C413 1.235 . S
C415 C417 1.400 . S
C415 N418 1.351 . S
C415 C420 1.501 . S
C416 C417 1.387 . S
C416 N419 1.341 . S
C417 C415 1.400 . S
C417 C416 1.387 . S
N418 Co409 2.022 . S
N418 C415 1.351 . S
N418 N419 1.365 . S
N419 C416 1.341 . S
N419 N418 1.365 . S
N419 H439 0.862 . S
C420 C415 1.501 . S
C420 H421 0.961 . S
C420 H422 0.961 . S
C420 H423 0.960 . S
H421 C420 0.961 . S
H422 C420 0.961 . S
H423 C420 0.960 . S
C424 N425 1.342 1_565 S
C424 C428 1.401 . S
C424 C429 1.499 . S
N425 Co408 1.989 . S
N425 C424 1.342 1_545 S
N425 N426 1.388 . S
N426 Co409 1.993 . S
N426 N425 1.388 . S
N426 C427 1.346 1_545 S
C427 N426 1.346 1_565 S
C427 C428 1.396 . S
C427 C437 1.510 . S
C428 C424 1.401 . S
C428 C427 1.396 . S
C429 C424 1.499 . S
C429 H430 0.959 . S
C429 H431 0.960 . S
C429 H432 0.961 . S
H430 C429 0.959 . S
H431 C429 0.960 . S
H432 C429 0.961 . S
O433 Co408 1.967 . S
O433 C441 1.258 . S
O434 Co409 1.941 . S
O434 C441 1.266 . S
H435 C437 0.959 . S
H436 C437 0.961 . S
C437 C427 1.510 . S
C437 H435 0.959 . S
C437 H436 0.961 . S
C437 H438 0.960 . S
H438 C437 0.960 . S
H439 N419 0.862 . S
O440 Co408 1.920 . S
O440 C413 1.289 . S
C441 O433 1.258 . S
C441 O434 1.266 . S
Co442 O445 1.970 . S
Co442 N459 1.989 . S
Co442 O467 1.967 . S
Co442 O474 1.920 . S
Co443 O446 1.966 . S
Co443 N452 2.022 . S
Co443 N460 1.993 . S
Co443 O468 1.941 . S
C444 O445 1.258 . S
C444 O446 1.263 . S
O445 Co442 1.970 . S
O445 C444 1.258 . S
O446 Co443 1.966 . S
O446 C444 1.263 . S
C447 O448 1.235 . S
C447 O474 1.289 . S
O448 C447 1.235 . S
C449 C451 1.400 . S
C449 N452 1.351 . S
C449 C454 1.501 . S
C450 C451 1.387 . S
C450 N453 1.341 . S
C451 C449 1.400 . S
C451 C450 1.387 . S
N452 Co443 2.022 . S
N452 C449 1.351 . S
N452 N453 1.365 . S
N453 C450 1.341 . S
N453 N452 1.365 . S
N453 H473 0.862 . S
C454 C449 1.501 . S
C454 H455 0.961 . S
C454 H456 0.961 . S
C454 H457 0.960 . S
H455 C454 0.961 . S
H456 C454 0.961 . S
H457 C454 0.960 . S
C458 N459 1.342 . S
C458 C462 1.401 . S
C458 C463 1.499 . S
N459 Co442 1.989 . S
N459 C458 1.342 . S
N459 N460 1.388 . S
N460 Co443 1.993 . S
N460 N459 1.388 . S
N460 C461 1.346 . S
C461 N460 1.346 . S
C461 C462 1.396 . S
C461 C471 1.510 . S
C462 C458 1.401 . S
C462 C461 1.396 . S
C463 C458 1.499 . S
C463 H464 0.959 . S
C463 H465 0.960 . S
C463 H466 0.961 . S
H464 C463 0.959 . S
H465 C463 0.960 . S
H466 C463 0.961 . S
O467 Co442 1.967 . S
O467 C475 1.258 . S
O468 Co443 1.941 . S
O468 C475 1.266 . S
H469 C471 0.959 . S
H470 C471 0.961 . S
C471 C461 1.510 . S
C471 H469 0.959 . S
C471 H470 0.961 . S
C471 H472 0.960 . S
H472 C471 0.960 . S
H473 N453 0.862 . S
O474 Co442 1.920 . S
O474 C447 1.289 . S
C475 O467 1.258 . S
C475 O468 1.266 . S
Co476 O479 1.970 . S
Co476 N493 1.989 . S
Co476 O501 1.967 . S
Co476 O508 1.920 . S
Co477 O480 1.966 . S
Co477 N486 2.022 . S
Co477 N494 1.993 . S
Co477 O502 1.941 . S
C478 O479 1.258 . S
C478 O480 1.263 . S
O479 Co476 1.970 . S
O479 C478 1.258 . S
O480 Co477 1.966 . S
O480 C478 1.263 . S
C481 O482 1.235 . S
C481 O508 1.289 . S
O482 C481 1.235 . S
C483 C485 1.400 . S
C483 N486 1.351 . S
C483 C488 1.501 . S
C484 C485 1.387 . S
C484 N487 1.341 . S
C485 C483 1.400 . S
C485 C484 1.387 . S
N486 Co477 2.022 . S
N486 C483 1.351 . S
N486 N487 1.365 . S
N487 C484 1.341 . S
N487 N486 1.365 . S
N487 H507 0.862 . S
C488 C483 1.501 . S
C488 H489 0.961 . S
C488 H490 0.961 . S
C488 H491 0.960 . S
H489 C488 0.961 . S
H490 C488 0.961 . S
H491 C488 0.960 . S
C492 N493 1.342 . S
C492 C496 1.401 . S
C492 C497 1.499 . S
N493 Co476 1.989 . S
N493 C492 1.342 . S
N493 N494 1.388 . S
N494 Co477 1.993 . S
N494 N493 1.388 . S
N494 C495 1.346 . S
C495 N494 1.346 . S
C495 C496 1.396 . S
C495 C505 1.510 . S
C496 C492 1.401 . S
C496 C495 1.396 . S
C497 C492 1.499 . S
C497 H498 0.959 . S
C497 H499 0.960 . S
C497 H500 0.961 . S
H498 C497 0.959 . S
H499 C497 0.960 . S
H500 C497 0.961 . S
O501 Co476 1.967 . S
O501 C509 1.258 . S
O502 Co477 1.941 . S
O502 C509 1.266 . S
H503 C505 0.959 . S
H504 C505 0.961 . S
C505 C495 1.510 . S
C505 H503 0.959 . S
C505 H504 0.961 . S
C505 H506 0.960 . S
H506 C505 0.960 . S
H507 N487 0.862 . S
O508 Co476 1.920 . S
O508 C481 1.289 . S
C509 O501 1.258 . S
C509 O502 1.266 . S
Co510 O513 1.970 . S
Co510 N527 1.989 . S
Co510 O535 1.967 . S
Co510 O542 1.920 . S
Co511 O514 1.966 . S
Co511 N520 2.022 . S
Co511 N528 1.993 . S
Co511 O536 1.941 . S
C512 O513 1.258 . S
C512 O514 1.263 . S
O513 Co510 1.970 . S
O513 C512 1.258 . S
O514 Co511 1.966 . S
O514 C512 1.263 . S
C515 O516 1.235 . S
C515 O542 1.289 . S
O516 C515 1.235 . S
C517 C519 1.400 . S
C517 N520 1.351 . S
C517 C522 1.501 . S
C518 C519 1.387 . S
C518 N521 1.341 . S
C519 C517 1.400 . S
C519 C518 1.387 . S
N520 Co511 2.022 . S
N520 C517 1.351 . S
N520 N521 1.365 . S
N521 C518 1.341 . S
N521 N520 1.365 . S
N521 H541 0.862 . S
C522 C517 1.501 . S
C522 H523 0.961 . S
C522 H524 0.961 . S
C522 H525 0.960 . S
H523 C522 0.961 . S
H524 C522 0.961 . S
H525 C522 0.960 . S
C526 N527 1.342 1_565 S
C526 C530 1.401 . S
C526 C531 1.499 . S
N527 Co510 1.989 . S
N527 C526 1.342 1_545 S
N527 N528 1.388 . S
N528 Co511 1.993 . S
N528 N527 1.388 . S
N528 C529 1.346 1_545 S
C529 N528 1.346 1_565 S
C529 C530 1.396 . S
C529 C539 1.510 . S
C530 C526 1.401 . S
C530 C529 1.396 . S
C531 C526 1.499 . S
C531 H532 0.959 . S
C531 H533 0.960 . S
C531 H534 0.961 . S
H532 C531 0.959 . S
H533 C531 0.960 . S
H534 C531 0.961 . S
O535 Co510 1.967 . S
O535 C543 1.258 . S
O536 Co511 1.941 . S
O536 C543 1.266 . S
H537 C539 0.959 . S
H538 C539 0.961 . S
C539 C529 1.510 . S
C539 H537 0.959 . S
C539 H538 0.961 . S
C539 H540 0.960 . S
H540 C539 0.960 . S
H541 N521 0.862 . S
O542 Co510 1.920 . S
O542 C515 1.289 . S
C543 O535 1.258 . S
C543 O536 1.266 . S
Co544 O547 1.970 . S
Co544 N561 1.989 . S
Co544 O569 1.967 . S
Co544 O576 1.920 . S
Co545 O548 1.966 . S
Co545 N554 2.022 . S
Co545 N562 1.993 . S
Co545 O570 1.941 . S
C546 O547 1.258 . S
C546 O548 1.263 . S
O547 Co544 1.970 . S
O547 C546 1.258 . S
O548 Co545 1.966 . S
O548 C546 1.263 . S
C549 O550 1.235 . S
C549 O576 1.289 . S
O550 C549 1.235 . S
C551 C553 1.400 . S
C551 N554 1.351 . S
C551 C556 1.501 . S
C552 C553 1.387 . S
C552 N555 1.341 . S
C553 C551 1.400 . S
C553 C552 1.387 . S
N554 Co545 2.022 . S
N554 C551 1.351 . S
N554 N555 1.365 . S
N555 C552 1.341 . S
N555 N554 1.365 . S
N555 H575 0.862 . S
C556 C551 1.501 . S
C556 H557 0.961 . S
C556 H558 0.961 . S
C556 H559 0.960 . S
H557 C556 0.961 . S
H558 C556 0.961 . S
H559 C556 0.960 . S
C560 N561 1.342 . S
C560 C564 1.401 . S
C560 C565 1.499 . S
N561 Co544 1.989 . S
N561 C560 1.342 . S
N561 N562 1.388 . S
N562 Co545 1.993 . S
N562 N561 1.388 . S
N562 C563 1.346 . S
C563 N562 1.346 . S
C563 C564 1.396 . S
C563 C573 1.510 . S
C564 C560 1.401 . S
C564 C563 1.396 . S
C565 C560 1.499 . S
C565 H566 0.959 . S
C565 H567 0.960 . S
C565 H568 0.961 . S
H566 C565 0.959 . S
H567 C565 0.960 . S
H568 C565 0.961 . S
O569 Co544 1.967 . S
O569 C577 1.258 . S
O570 Co545 1.941 . S
O570 C577 1.266 . S
H571 C573 0.959 . S
H572 C573 0.961 . S
C573 C563 1.510 . S
C573 H571 0.959 . S
C573 H572 0.961 . S
C573 H574 0.960 . S
H574 C573 0.960 . S
H575 N555 0.862 . S
O576 Co544 1.920 . S
O576 C549 1.289 . S
C577 O569 1.258 . S
C577 O570 1.266 . S
Co578 O581 1.970 . S
Co578 N595 1.989 . S
Co578 O603 1.967 . S
Co578 O610 1.920 . S
Co579 O582 1.966 . S
Co579 N588 2.022 . S
Co579 N596 1.993 . S
Co579 O604 1.941 . S
C580 O581 1.258 . S
C580 O582 1.263 . S
O581 Co578 1.970 . S
O581 C580 1.258 . S
O582 Co579 1.966 . S
O582 C580 1.263 . S
C583 O584 1.235 . S
C583 O610 1.289 . S
O584 C583 1.235 . S
C585 C587 1.400 . S
C585 N588 1.351 . S
C585 C590 1.501 . S
C586 C587 1.387 . S
C586 N589 1.341 . S
C587 C585 1.400 . S
C587 C586 1.387 . S
N588 Co579 2.022 . S
N588 C585 1.351 . S
N588 N589 1.365 . S
N589 C586 1.341 . S
N589 N588 1.365 . S
N589 H609 0.862 . S
C590 C585 1.501 . S
C590 H591 0.961 . S
C590 H592 0.961 . S
C590 H593 0.960 . S
H591 C590 0.961 . S
H592 C590 0.961 . S
H593 C590 0.960 . S
C594 N595 1.342 . S
C594 C598 1.401 . S
C594 C599 1.499 . S
N595 Co578 1.989 . S
N595 C594 1.342 . S
N595 N596 1.388 . S
N596 Co579 1.993 . S
N596 N595 1.388 . S
N596 C597 1.346 . S
C597 N596 1.346 . S
C597 C598 1.396 . S
C597 C607 1.510 . S
C598 C594 1.401 . S
C598 C597 1.396 . S
C599 C594 1.499 . S
C599 H600 0.959 . S
C599 H601 0.960 . S
C599 H602 0.961 . S
H600 C599 0.959 . S
H601 C599 0.960 . S
H602 C599 0.961 . S
O603 Co578 1.967 . S
O603 C611 1.258 . S
O604 Co579 1.941 . S
O604 C611 1.266 . S
H605 C607 0.959 . S
H606 C607 0.961 . S
C607 C597 1.510 . S
C607 H605 0.959 . S
C607 H606 0.961 . S
C607 H608 0.960 . S
H608 C607 0.960 . S
H609 N589 0.862 . S
O610 Co578 1.920 . S
O610 C583 1.289 . S
C611 O603 1.258 . S
C611 O604 1.266 . S
Co612 O615 1.970 . S
Co612 N629 1.989 . S
Co612 O637 1.967 . S
Co612 O644 1.920 . S
Co613 O616 1.966 . S
Co613 N622 2.022 . S
Co613 N630 1.993 . S
Co613 O638 1.941 . S
C614 O615 1.258 . S
C614 O616 1.263 . S
O615 Co612 1.970 . S
O615 C614 1.258 . S
O616 Co613 1.966 . S
O616 C614 1.263 . S
C617 O618 1.235 . S
C617 O644 1.289 . S
O618 C617 1.235 . S
C619 C621 1.400 . S
C619 N622 1.351 . S
C619 C624 1.501 . S
C620 C621 1.387 . S
C620 N623 1.341 . S
C621 C619 1.400 . S
C621 C620 1.387 . S
N622 Co613 2.022 . S
N622 C619 1.351 . S
N622 N623 1.365 . S
N623 C620 1.341 . S
N623 N622 1.365 . S
N623 H643 0.862 . S
C624 C619 1.501 . S
C624 H625 0.961 . S
C624 H626 0.961 . S
C624 H627 0.960 . S
H625 C624 0.961 . S
H626 C624 0.961 . S
H627 C624 0.960 . S
C628 N629 1.342 . S
C628 C632 1.401 . S
C628 C633 1.499 . S
N629 Co612 1.989 . S
N629 C628 1.342 . S
N629 N630 1.388 . S
N630 Co613 1.993 . S
N630 N629 1.388 . S
N630 C631 1.346 . S
C631 N630 1.346 . S
C631 C632 1.396 . S
C631 C641 1.510 . S
C632 C628 1.401 . S
C632 C631 1.396 . S
C633 C628 1.499 . S
C633 H634 0.959 . S
C633 H635 0.960 . S
C633 H636 0.961 . S
H634 C633 0.959 . S
H635 C633 0.960 . S
H636 C633 0.961 . S
O637 Co612 1.967 . S
O637 C645 1.258 . S
O638 Co613 1.941 . S
O638 C645 1.266 . S
H639 C641 0.959 . S
H640 C641 0.961 . S
C641 C631 1.510 . S
C641 H639 0.959 . S
C641 H640 0.961 . S
C641 H642 0.960 . S
H642 C641 0.960 . S
H643 N623 0.862 . S
O644 Co612 1.920 . S
O644 C617 1.289 . S
C645 O637 1.258 . S
C645 O638 1.266 . S
Co646 O649 1.970 . S
Co646 N663 1.989 . S
Co646 O671 1.967 . S
Co646 O678 1.920 . S
Co647 O650 1.966 . S
Co647 N656 2.022 . S
Co647 N664 1.993 . S
Co647 O672 1.941 . S
C648 O649 1.258 . S
C648 O650 1.263 . S
O649 Co646 1.970 . S
O649 C648 1.258 . S
O650 Co647 1.966 . S
O650 C648 1.263 . S
C651 O652 1.235 . S
C651 O678 1.289 . S
O652 C651 1.235 . S
C653 C655 1.400 . S
C653 N656 1.351 . S
C653 C658 1.501 . S
C654 C655 1.387 . S
C654 N657 1.341 . S
C655 C653 1.400 . S
C655 C654 1.387 . S
N656 Co647 2.022 . S
N656 C653 1.351 . S
N656 N657 1.365 . S
N657 C654 1.341 . S
N657 N656 1.365 . S
N657 H677 0.862 . S
C658 C653 1.501 . S
C658 H659 0.961 . S
C658 H660 0.961 . S
C658 H661 0.960 . S
H659 C658 0.961 . S
H660 C658 0.961 . S
H661 C658 0.960 . S
C662 N663 1.342 . S
C662 C666 1.401 . S
C662 C667 1.499 . S
N663 Co646 1.989 . S
N663 C662 1.342 . S
N663 N664 1.388 . S
N664 Co647 1.993 . S
N664 N663 1.388 . S
N664 C665 1.346 . S
C665 N664 1.346 . S
C665 C666 1.396 . S
C665 C675 1.510 . S
C666 C662 1.401 . S
C666 C665 1.396 . S
C667 C662 1.499 . S
C667 H668 0.959 . S
C667 H669 0.960 . S
C667 H670 0.961 . S
H668 C667 0.959 . S
H669 C667 0.960 . S
H670 C667 0.961 . S
O671 Co646 1.967 . S
O671 C679 1.258 . S
O672 Co647 1.941 . S
O672 C679 1.266 . S
H673 C675 0.959 . S
H674 C675 0.961 . S
C675 C665 1.510 . S
C675 H673 0.959 . S
C675 H674 0.961 . S
C675 H676 0.960 . S
H676 C675 0.960 . S
H677 N657 0.862 . S
O678 Co646 1.920 . S
O678 C651 1.289 . S
C679 O671 1.258 . S
C679 O672 1.266 . S
Co680 O683 1.970 . S
Co680 N697 1.989 . S
Co680 O705 1.967 . S
Co680 O712 1.920 . S
Co681 O684 1.966 . S
Co681 N690 2.022 . S
Co681 N698 1.993 . S
Co681 O706 1.941 . S
C682 O683 1.258 . S
C682 O684 1.263 . S
O683 Co680 1.970 . S
O683 C682 1.258 . S
O684 Co681 1.966 . S
O684 C682 1.263 . S
C685 O686 1.235 . S
C685 O712 1.289 . S
O686 C685 1.235 . S
C687 C689 1.400 . S
C687 N690 1.351 . S
C687 C692 1.501 . S
C688 C689 1.387 . S
C688 N691 1.341 . S
C689 C687 1.400 . S
C689 C688 1.387 . S
N690 Co681 2.022 . S
N690 C687 1.351 . S
N690 N691 1.365 . S
N691 C688 1.341 . S
N691 N690 1.365 . S
N691 H711 0.862 . S
C692 C687 1.501 . S
C692 H693 0.961 . S
C692 H694 0.961 . S
C692 H695 0.960 . S
H693 C692 0.961 . S
H694 C692 0.961 . S
H695 C692 0.960 . S
C696 N697 1.342 . S
C696 C700 1.401 . S
C696 C701 1.499 . S
N697 Co680 1.989 . S
N697 C696 1.342 . S
N697 N698 1.388 . S
N698 Co681 1.993 . S
N698 N697 1.388 . S
N698 C699 1.346 . S
C699 N698 1.346 . S
C699 C700 1.396 . S
C699 C709 1.510 . S
C700 C696 1.401 . S
C700 C699 1.396 . S
C701 C696 1.499 . S
C701 H702 0.959 . S
C701 H703 0.960 . S
C701 H704 0.961 . S
H702 C701 0.959 . S
H703 C701 0.960 . S
H704 C701 0.961 . S
O705 Co680 1.967 . S
O705 C713 1.258 . S
O706 Co681 1.941 . S
O706 C713 1.266 . S
H707 C709 0.959 . S
H708 C709 0.961 . S
C709 C699 1.510 . S
C709 H707 0.959 . S
C709 H708 0.961 . S
C709 H710 0.960 . S
H710 C709 0.960 . S
H711 N691 0.862 . S
O712 Co680 1.920 . S
O712 C685 1.289 . S
C713 O705 1.258 . S
C713 O706 1.266 . S
Co714 O717 1.970 . S
Co714 N731 1.989 . S
Co714 O739 1.967 . S
Co714 O746 1.920 . S
Co715 O718 1.966 . S
Co715 N724 2.022 . S
Co715 N732 1.993 . S
Co715 O740 1.941 . S
C716 O717 1.258 . S
C716 O718 1.263 . S
O717 Co714 1.970 . S
O717 C716 1.258 . S
O718 Co715 1.966 . S
O718 C716 1.263 . S
C719 O720 1.235 . S
C719 O746 1.289 . S
O720 C719 1.235 . S
C721 C723 1.400 . S
C721 N724 1.351 . S
C721 C726 1.501 . S
C722 C723 1.387 . S
C722 N725 1.341 . S
C723 C721 1.400 . S
C723 C722 1.387 . S
N724 Co715 2.022 . S
N724 C721 1.351 . S
N724 N725 1.365 . S
N725 C722 1.341 . S
N725 N724 1.365 . S
N725 H745 0.862 . S
C726 C721 1.501 . S
C726 H727 0.961 . S
C726 H728 0.961 . S
C726 H729 0.960 . S
H727 C726 0.961 . S
H728 C726 0.961 . S
H729 C726 0.960 . S
C730 N731 1.342 . S
C730 C734 1.401 . S
C730 C735 1.499 . S
N731 Co714 1.989 . S
N731 C730 1.342 . S
N731 N732 1.388 . S
N732 Co715 1.993 . S
N732 N731 1.388 . S
N732 C733 1.346 . S
C733 N732 1.346 . S
C733 C734 1.396 . S
C733 C743 1.510 . S
C734 C730 1.401 . S
C734 C733 1.396 . S
C735 C730 1.499 . S
C735 H736 0.959 . S
C735 H737 0.960 . S
C735 H738 0.961 . S
H736 C735 0.959 . S
H737 C735 0.960 . S
H738 C735 0.961 . S
O739 Co714 1.967 . S
O739 C747 1.258 . S
O740 Co715 1.941 . S
O740 C747 1.266 . S
H741 C743 0.959 . S
H742 C743 0.961 . S
C743 C733 1.510 . S
C743 H741 0.959 . S
C743 H742 0.961 . S
C743 H744 0.960 . S
H744 C743 0.960 . S
H745 N725 0.862 . S
O746 Co714 1.920 . S
O746 C719 1.289 . S
C747 O739 1.258 . S
C747 O740 1.266 . S
Co748 O751 1.970 . S
Co748 N765 1.989 . S
Co748 O773 1.967 . S
Co748 O780 1.920 . S
Co749 O752 1.966 . S
Co749 N758 2.022 . S
Co749 N766 1.993 . S
Co749 O774 1.941 . S
C750 O751 1.258 . S
C750 O752 1.263 . S
O751 Co748 1.970 . S
O751 C750 1.258 . S
O752 Co749 1.966 . S
O752 C750 1.263 . S
C753 O754 1.235 . S
C753 O780 1.289 . S
O754 C753 1.235 . S
C755 C757 1.400 . S
C755 N758 1.351 . S
C755 C760 1.501 . S
C756 C757 1.387 . S
C756 N759 1.341 . S
C757 C755 1.400 . S
C757 C756 1.387 . S
N758 Co749 2.022 . S
N758 C755 1.351 . S
N758 N759 1.365 . S
N759 C756 1.341 . S
N759 N758 1.365 . S
N759 H779 0.862 . S
C760 C755 1.501 . S
C760 H761 0.961 . S
C760 H762 0.961 . S
C760 H763 0.960 . S
H761 C760 0.961 . S
H762 C760 0.961 . S
H763 C760 0.960 . S
C764 N765 1.342 . S
C764 C768 1.401 . S
C764 C769 1.499 . S
N765 Co748 1.989 . S
N765 C764 1.342 . S
N765 N766 1.388 . S
N766 Co749 1.993 . S
N766 N765 1.388 . S
N766 C767 1.346 . S
C767 N766 1.346 . S
C767 C768 1.396 . S
C767 C777 1.510 . S
C768 C764 1.401 . S
C768 C767 1.396 . S
C769 C764 1.499 . S
C769 H770 0.959 . S
C769 H771 0.960 . S
C769 H772 0.961 . S
H770 C769 0.959 . S
H771 C769 0.960 . S
H772 C769 0.961 . S
O773 Co748 1.967 . S
O773 C781 1.258 . S
O774 Co749 1.941 . S
O774 C781 1.266 . S
H775 C777 0.959 . S
H776 C777 0.961 . S
C777 C767 1.510 . S
C777 H775 0.959 . S
C777 H776 0.961 . S
C777 H778 0.960 . S
H778 C777 0.960 . S
H779 N759 0.862 . S
O780 Co748 1.920 . S
O780 C753 1.289 . S
C781 O773 1.258 . S
C781 O774 1.266 . S
Co782 O785 1.970 . S
Co782 N799 1.989 . S
Co782 O807 1.967 . S
Co782 O814 1.920 . S
Co783 O786 1.966 . S
Co783 N792 2.022 . S
Co783 N800 1.993 . S
Co783 O808 1.941 . S
C784 O785 1.258 . S
C784 O786 1.263 . S
O785 Co782 1.970 . S
O785 C784 1.258 . S
O786 Co783 1.966 . S
O786 C784 1.263 . S
C787 O788 1.235 . S
C787 O814 1.289 . S
O788 C787 1.235 . S
C789 C791 1.400 . S
C789 N792 1.351 . S
C789 C794 1.501 . S
C790 C791 1.387 . S
C790 N793 1.341 . S
C791 C789 1.400 . S
C791 C790 1.387 . S
N792 Co783 2.022 . S
N792 C789 1.351 . S
N792 N793 1.365 . S
N793 C790 1.341 . S
N793 N792 1.365 . S
N793 H813 0.862 . S
C794 C789 1.501 . S
C794 H795 0.961 . S
C794 H796 0.961 . S
C794 H797 0.960 . S
H795 C794 0.961 . S
H796 C794 0.961 . S
H797 C794 0.960 . S
C798 N799 1.342 . S
C798 C802 1.401 . S
C798 C803 1.499 . S
N799 Co782 1.989 . S
N799 C798 1.342 . S
N799 N800 1.388 . S
N800 Co783 1.993 . S
N800 N799 1.388 . S
N800 C801 1.346 . S
C801 N800 1.346 . S
C801 C802 1.396 . S
C801 C811 1.510 . S
C802 C798 1.401 . S
C802 C801 1.396 . S
C803 C798 1.499 . S
C803 H804 0.959 . S
C803 H805 0.960 . S
C803 H806 0.961 . S
H804 C803 0.959 . S
H805 C803 0.960 . S
H806 C803 0.961 . S
O807 Co782 1.967 . S
O807 C815 1.258 . S
O808 Co783 1.941 . S
O808 C815 1.266 . S
H809 C811 0.959 . S
H810 C811 0.961 . S
C811 C801 1.510 . S
C811 H809 0.959 . S
C811 H810 0.961 . S
C811 H812 0.960 . S
H812 C811 0.960 . S
H813 N793 0.862 . S
O814 Co782 1.920 . S
O814 C787 1.289 . S
C815 O807 1.258 . S
C815 O808 1.266 . S
Co816 O819 1.970 . S
Co816 N833 1.989 . S
Co816 O841 1.967 . S
Co816 O848 1.920 . S
Co817 O820 1.966 . S
Co817 N826 2.022 . S
Co817 N834 1.993 . S
Co817 O842 1.941 . S
C818 O819 1.258 . S
C818 O820 1.263 . S
O819 Co816 1.970 . S
O819 C818 1.258 . S
O820 Co817 1.966 . S
O820 C818 1.263 . S
C821 O822 1.235 . S
C821 O848 1.289 . S
O822 C821 1.235 . S
C823 C825 1.400 . S
C823 N826 1.351 . S
C823 C828 1.501 . S
C824 C825 1.387 . S
C824 N827 1.341 . S
C825 C823 1.400 . S
C825 C824 1.387 . S
N826 Co817 2.022 . S
N826 C823 1.351 . S
N826 N827 1.365 . S
N827 C824 1.341 . S
N827 N826 1.365 . S
N827 H847 0.862 . S
C828 C823 1.501 . S
C828 H829 0.961 . S
C828 H830 0.961 1_554 S
C828 H831 0.960 . S
H829 C828 0.961 . S
H830 C828 0.961 1_556 S
H831 C828 0.960 . S
C832 N833 1.342 1_545 S
C832 C836 1.401 . S
C832 C837 1.499 . S
N833 Co816 1.989 . S
N833 C832 1.342 1_565 S
N833 N834 1.388 . S
N834 Co817 1.993 . S
N834 N833 1.388 . S
N834 C835 1.346 1_565 S
C835 N834 1.346 1_545 S
C835 C836 1.396 . S
C835 C845 1.510 . S
C836 C832 1.401 . S
C836 C835 1.396 . S
C837 C832 1.499 . S
C837 H838 0.959 . S
C837 H839 0.960 . S
C837 H840 0.961 . S
H838 C837 0.959 . S
H839 C837 0.960 . S
H840 C837 0.961 . S
O841 Co816 1.967 . S
O841 C849 1.258 . S
O842 Co817 1.941 . S
O842 C849 1.266 . S
H843 C845 0.959 . S
H844 C845 0.961 . S
C845 C835 1.510 . S
C845 H843 0.959 . S
C845 H844 0.961 . S
C845 H846 0.960 . S
H846 C845 0.960 . S
H847 N827 0.862 . S
O848 Co816 1.920 . S
O848 C821 1.289 . S
C849 O841 1.258 . S
C849 O842 1.266 . S
Co850 O853 1.970 . S
Co850 N867 1.989 . S
Co850 O875 1.967 . S
Co850 O882 1.920 . S
Co851 O854 1.966 . S
Co851 N860 2.022 . S
Co851 N868 1.993 . S
Co851 O876 1.941 . S
C852 O853 1.258 . S
C852 O854 1.263 . S
O853 Co850 1.970 . S
O853 C852 1.258 . S
O854 Co851 1.966 . S
O854 C852 1.263 . S
C855 O856 1.235 . S
C855 O882 1.289 . S
O856 C855 1.235 . S
C857 C859 1.400 . S
C857 N860 1.351 . S
C857 C862 1.501 . S
C858 C859 1.387 . S
C858 N861 1.341 . S
C859 C857 1.400 . S
C859 C858 1.387 . S
N860 Co851 2.022 . S
N860 C857 1.351 . S
N860 N861 1.365 . S
N861 C858 1.341 . S
N861 N860 1.365 . S
N861 H881 0.862 . S
C862 C857 1.501 . S
C862 H863 0.961 . S
C862 H864 0.961 1_554 S
C862 H865 0.960 . S
H863 C862 0.961 . S
H864 C862 0.961 1_556 S
H865 C862 0.960 . S
C866 N867 1.342 . S
C866 C870 1.401 . S
C866 C871 1.499 . S
N867 Co850 1.989 . S
N867 C866 1.342 . S
N867 N868 1.388 . S
N868 Co851 1.993 . S
N868 N867 1.388 . S
N868 C869 1.346 . S
C869 N868 1.346 . S
C869 C870 1.396 . S
C869 C879 1.510 . S
C870 C866 1.401 . S
C870 C869 1.396 . S
C871 C866 1.499 . S
C871 H872 0.959 . S
C871 H873 0.960 . S
C871 H874 0.961 . S
H872 C871 0.959 . S
H873 C871 0.960 . S
H874 C871 0.961 . S
O875 Co850 1.967 . S
O875 C883 1.258 . S
O876 Co851 1.941 . S
O876 C883 1.266 . S
H877 C879 0.959 . S
H878 C879 0.961 . S
C879 C869 1.510 . S
C879 H877 0.959 . S
C879 H878 0.961 . S
C879 H880 0.960 . S
H880 C879 0.960 . S
H881 N861 0.862 . S
O882 Co850 1.920 . S
O882 C855 1.289 . S
C883 O875 1.258 . S
C883 O876 1.266 . S
Co884 O887 1.970 . S
Co884 N901 1.989 . S
Co884 O909 1.967 . S
Co884 O916 1.920 . S
Co885 O888 1.966 . S
Co885 N894 2.022 . S
Co885 N902 1.993 . S
Co885 O910 1.941 . S
C886 O887 1.258 . S
C886 O888 1.263 . S
O887 Co884 1.970 . S
O887 C886 1.258 . S
O888 Co885 1.966 . S
O888 C886 1.263 . S
C889 O890 1.235 . S
C889 O916 1.289 . S
O890 C889 1.235 . S
C891 C893 1.400 . S
C891 N894 1.351 . S
C891 C896 1.501 . S
C892 C893 1.387 . S
C892 N895 1.341 . S
C893 C891 1.400 . S
C893 C892 1.387 . S
N894 Co885 2.022 . S
N894 C891 1.351 . S
N894 N895 1.365 . S
N895 C892 1.341 . S
N895 N894 1.365 . S
N895 H915 0.862 . S
C896 C891 1.501 . S
C896 H897 0.961 . S
C896 H898 0.961 . S
C896 H899 0.960 . S
H897 C896 0.961 . S
H898 C896 0.961 . S
H899 C896 0.960 . S
C900 N901 1.342 . S
C900 C904 1.401 . S
C900 C905 1.499 . S
N901 Co884 1.989 . S
N901 C900 1.342 . S
N901 N902 1.388 . S
N902 Co885 1.993 . S
N902 N901 1.388 . S
N902 C903 1.346 . S
C903 N902 1.346 . S
C903 C904 1.396 . S
C903 C913 1.510 . S
C904 C900 1.401 . S
C904 C903 1.396 . S
C905 C900 1.499 . S
C905 H906 0.959 . S
C905 H907 0.960 . S
C905 H908 0.961 . S
H906 C905 0.959 . S
H907 C905 0.960 . S
H908 C905 0.961 . S
O909 Co884 1.967 . S
O909 C917 1.258 . S
O910 Co885 1.941 . S
O910 C917 1.266 . S
H911 C913 0.959 . S
H912 C913 0.961 . S
C913 C903 1.510 . S
C913 H911 0.959 . S
C913 H912 0.961 . S
C913 H914 0.960 . S
H914 C913 0.960 . S
H915 N895 0.862 . S
O916 Co884 1.920 . S
O916 C889 1.289 . S
C917 O909 1.258 . S
C917 O910 1.266 . S
Co918 O921 1.970 . S
Co918 N935 1.989 . S
Co918 O943 1.967 . S
Co918 O950 1.920 . S
Co919 O922 1.966 . S
Co919 N928 2.022 . S
Co919 N936 1.993 . S
Co919 O944 1.941 . S
C920 O921 1.258 . S
C920 O922 1.263 . S
O921 Co918 1.970 . S
O921 C920 1.258 . S
O922 Co919 1.966 . S
O922 C920 1.263 . S
C923 O924 1.235 . S
C923 O950 1.289 . S
O924 C923 1.235 . S
C925 C927 1.400 . S
C925 N928 1.351 . S
C925 C930 1.501 . S
C926 C927 1.387 . S
C926 N929 1.341 . S
C927 C925 1.400 . S
C927 C926 1.387 . S
N928 Co919 2.022 . S
N928 C925 1.351 . S
N928 N929 1.365 . S
N929 C926 1.341 . S
N929 N928 1.365 . S
N929 H949 0.862 . S
C930 C925 1.501 . S
C930 H931 0.961 . S
C930 H932 0.961 . S
C930 H933 0.960 . S
H931 C930 0.961 . S
H932 C930 0.961 . S
H933 C930 0.960 . S
C934 N935 1.342 1_545 S
C934 C938 1.401 . S
C934 C939 1.499 . S
N935 Co918 1.989 . S
N935 C934 1.342 1_565 S
N935 N936 1.388 . S
N936 Co919 1.993 . S
N936 N935 1.388 . S
N936 C937 1.346 1_565 S
C937 N936 1.346 1_545 S
C937 C938 1.396 . S
C937 C947 1.510 . S
C938 C934 1.401 . S
C938 C937 1.396 . S
C939 C934 1.499 . S
C939 H940 0.959 . S
C939 H941 0.960 . S
C939 H942 0.961 . S
H940 C939 0.959 . S
H941 C939 0.960 . S
H942 C939 0.961 . S
O943 Co918 1.967 . S
O943 C951 1.258 . S
O944 Co919 1.941 . S
O944 C951 1.266 . S
H945 C947 0.959 . S
H946 C947 0.961 . S
C947 C937 1.510 . S
C947 H945 0.959 . S
C947 H946 0.961 . S
C947 H948 0.960 . S
H948 C947 0.960 . S
H949 N929 0.862 . S
O950 Co918 1.920 . S
O950 C923 1.289 . S
C951 O943 1.258 . S
C951 O944 1.266 . S
Co952 O955 1.970 . S
Co952 N969 1.989 . S
Co952 O977 1.967 . S
Co952 O984 1.920 . S
Co953 O956 1.966 . S
Co953 N962 2.022 . S
Co953 N970 1.993 . S
Co953 O978 1.941 . S
C954 O955 1.258 . S
C954 O956 1.263 . S
O955 Co952 1.970 . S
O955 C954 1.258 . S
O956 Co953 1.966 . S
O956 C954 1.263 . S
C957 O958 1.235 . S
C957 O984 1.289 . S
O958 C957 1.235 . S
C959 C961 1.400 . S
C959 N962 1.351 . S
C959 C964 1.501 . S
C960 C961 1.387 . S
C960 N963 1.341 . S
C961 C959 1.400 . S
C961 C960 1.387 . S
N962 Co953 2.022 . S
N962 C959 1.351 . S
N962 N963 1.365 . S
N963 C960 1.341 . S
N963 N962 1.365 . S
N963 H983 0.862 . S
C964 C959 1.501 . S
C964 H965 0.961 . S
C964 H966 0.961 1_556 S
C964 H967 0.960 . S
H965 C964 0.961 . S
H966 C964 0.961 1_554 S
H967 C964 0.960 . S
C968 N969 1.342 1_565 S
C968 C972 1.401 . S
C968 C973 1.499 . S
N969 Co952 1.989 . S
N969 C968 1.342 1_545 S
N969 N970 1.388 . S
N970 Co953 1.993 . S
N970 N969 1.388 . S
N970 C971 1.346 1_545 S
C971 N970 1.346 1_565 S
C971 C972 1.396 . S
C971 C981 1.510 . S
C972 C968 1.401 . S
C972 C971 1.396 . S
C973 C968 1.499 . S
C973 H974 0.959 . S
C973 H975 0.960 . S
C973 H976 0.961 . S
H974 C973 0.959 . S
H975 C973 0.960 . S
H976 C973 0.961 . S
O977 Co952 1.967 . S
O977 C985 1.258 . S
O978 Co953 1.941 . S
O978 C985 1.266 . S
H979 C981 0.959 . S
H980 C981 0.961 . S
C981 C971 1.510 . S
C981 H979 0.959 . S
C981 H980 0.961 . S
C981 H982 0.960 . S
H982 C981 0.960 . S
H983 N963 0.862 . S
O984 Co952 1.920 . S
O984 C957 1.289 . S
C985 O977 1.258 . S
C985 O978 1.266 . S
Co986 O989 1.970 . S
Co986 N1003 1.989 . S
Co986 O1011 1.967 . S
Co986 O1018 1.920 . S
Co987 O990 1.966 . S
Co987 N996 2.022 . S
Co987 N1004 1.993 . S
Co987 O1012 1.941 . S
C988 O989 1.258 . S
C988 O990 1.263 . S
O989 Co986 1.970 . S
O989 C988 1.258 . S
O990 Co987 1.966 . S
O990 C988 1.263 . S
C991 O992 1.235 . S
C991 O1018 1.289 . S
O992 C991 1.235 . S
C993 C995 1.400 . S
C993 N996 1.351 . S
C993 C998 1.501 . S
C994 C995 1.387 . S
C994 N997 1.341 . S
C995 C993 1.400 . S
C995 C994 1.387 . S
N996 Co987 2.022 . S
N996 C993 1.351 . S
N996 N997 1.365 . S
N997 C994 1.341 . S
N997 N996 1.365 . S
N997 H1017 0.862 . S
C998 C993 1.501 . S
C998 H999 0.961 . S
C998 H1000 0.961 1_556 S
C998 H1001 0.960 . S
H999 C998 0.961 . S
H1000 C998 0.961 1_554 S
H1001 C998 0.960 . S
C1002 N1003 1.342 . S
C1002 C1006 1.401 . S
C1002 C1007 1.499 . S
N1003 Co986 1.989 . S
N1003 C1002 1.342 . S
N1003 N1004 1.388 . S
N1004 Co987 1.993 . S
N1004 N1003 1.388 . S
N1004 C1005 1.346 . S
C1005 N1004 1.346 . S
C1005 C1006 1.396 . S
C1005 C1015 1.510 . S
C1006 C1002 1.401 . S
C1006 C1005 1.396 . S
C1007 C1002 1.499 . S
C1007 H1008 0.959 . S
C1007 H1009 0.960 . S
C1007 H1010 0.961 . S
H1008 C1007 0.959 . S
H1009 C1007 0.960 . S
H1010 C1007 0.961 . S
O1011 Co986 1.967 . S
O1011 C1019 1.258 . S
O1012 Co987 1.941 . S
O1012 C1019 1.266 . S
H1013 C1015 0.959 . S
H1014 C1015 0.961 . S
C1015 C1005 1.510 . S
C1015 H1013 0.959 . S
C1015 H1014 0.961 . S
C1015 H1016 0.960 . S
H1016 C1015 0.960 . S
H1017 N997 0.862 . S
O1018 Co986 1.920 . S
O1018 C991 1.289 . S
C1019 O1011 1.258 . S
C1019 O1012 1.266 . S
Co1020 O1023 1.970 . S
Co1020 N1037 1.989 . S
Co1020 O1045 1.967 . S
Co1020 O1052 1.920 . S
Co1021 O1024 1.966 . S
Co1021 N1030 2.022 . S
Co1021 N1038 1.993 . S
Co1021 O1046 1.941 . S
C1022 O1023 1.258 . S
C1022 O1024 1.263 . S
O1023 Co1020 1.970 . S
O1023 C1022 1.258 . S
O1024 Co1021 1.966 . S
O1024 C1022 1.263 . S
C1025 O1026 1.235 . S
C1025 O1052 1.289 . S
O1026 C1025 1.235 . S
C1027 C1029 1.400 . S
C1027 N1030 1.351 . S
C1027 C1032 1.501 . S
C1028 C1029 1.387 . S
C1028 N1031 1.341 . S
C1029 C1027 1.400 . S
C1029 C1028 1.387 . S
N1030 Co1021 2.022 . S
N1030 C1027 1.351 . S
N1030 N1031 1.365 . S
N1031 C1028 1.341 . S
N1031 N1030 1.365 . S
N1031 H1051 0.862 . S
C1032 C1027 1.501 . S
C1032 H1033 0.961 . S
C1032 H1034 0.961 . S
C1032 H1035 0.960 . S
H1033 C1032 0.961 . S
H1034 C1032 0.961 . S
H1035 C1032 0.960 . S
C1036 N1037 1.342 . S
C1036 C1040 1.401 . S
C1036 C1041 1.499 . S
N1037 Co1020 1.989 . S
N1037 C1036 1.342 . S
N1037 N1038 1.388 . S
N1038 Co1021 1.993 . S
N1038 N1037 1.388 . S
N1038 C1039 1.346 . S
C1039 N1038 1.346 . S
C1039 C1040 1.396 . S
C1039 C1049 1.510 . S
C1040 C1036 1.401 . S
C1040 C1039 1.396 . S
C1041 C1036 1.499 . S
C1041 H1042 0.959 . S
C1041 H1043 0.960 . S
C1041 H1044 0.961 . S
H1042 C1041 0.959 . S
H1043 C1041 0.960 . S
H1044 C1041 0.961 . S
O1045 Co1020 1.967 . S
O1045 C1053 1.258 . S
O1046 Co1021 1.941 . S
O1046 C1053 1.266 . S
H1047 C1049 0.959 . S
H1048 C1049 0.961 . S
C1049 C1039 1.510 . S
C1049 H1047 0.959 . S
C1049 H1048 0.961 . S
C1049 H1050 0.960 . S
H1050 C1049 0.960 . S
H1051 N1031 0.862 . S
O1052 Co1020 1.920 . S
O1052 C1025 1.289 . S
C1053 O1045 1.258 . S
C1053 O1046 1.266 . S
Co1054 O1057 1.970 . S
Co1054 N1071 1.989 . S
Co1054 O1079 1.967 . S
Co1054 O1086 1.920 . S
Co1055 O1058 1.966 . S
Co1055 N1064 2.022 . S
Co1055 N1072 1.993 . S
Co1055 O1080 1.941 . S
C1056 O1057 1.258 . S
C1056 O1058 1.263 . S
O1057 Co1054 1.970 . S
O1057 C1056 1.258 . S
O1058 Co1055 1.966 . S
O1058 C1056 1.263 . S
C1059 O1060 1.235 . S
C1059 O1086 1.289 . S
O1060 C1059 1.235 . S
C1061 C1063 1.400 . S
C1061 N1064 1.351 . S
C1061 C1066 1.501 . S
C1062 C1063 1.387 . S
C1062 N1065 1.341 . S
C1063 C1061 1.400 . S
C1063 C1062 1.387 . S
N1064 Co1055 2.022 . S
N1064 C1061 1.351 . S
N1064 N1065 1.365 . S
N1065 C1062 1.341 . S
N1065 N1064 1.365 . S
N1065 H1085 0.862 . S
C1066 C1061 1.501 . S
C1066 H1067 0.961 . S
C1066 H1068 0.961 . S
C1066 H1069 0.960 . S
H1067 C1066 0.961 . S
H1068 C1066 0.961 . S
H1069 C1066 0.960 . S
C1070 N1071 1.342 1_565 S
C1070 C1074 1.401 . S
C1070 C1075 1.499 . S
N1071 Co1054 1.989 . S
N1071 C1070 1.342 1_545 S
N1071 N1072 1.388 . S
N1072 Co1055 1.993 . S
N1072 N1071 1.388 . S
N1072 C1073 1.346 1_545 S
C1073 N1072 1.346 1_565 S
C1073 C1074 1.396 . S
C1073 C1083 1.510 . S
C1074 C1070 1.401 . S
C1074 C1073 1.396 . S
C1075 C1070 1.499 . S
C1075 H1076 0.959 . S
C1075 H1077 0.960 . S
C1075 H1078 0.961 . S
H1076 C1075 0.959 . S
H1077 C1075 0.960 . S
H1078 C1075 0.961 . S
O1079 Co1054 1.967 . S
O1079 C1087 1.258 . S
O1080 Co1055 1.941 . S
O1080 C1087 1.266 . S
H1081 C1083 0.959 . S
H1082 C1083 0.961 . S
C1083 C1073 1.510 . S
C1083 H1081 0.959 . S
C1083 H1082 0.961 . S
C1083 H1084 0.960 . S
H1084 C1083 0.960 . S
H1085 N1065 0.862 . S
O1086 Co1054 1.920 . S
O1086 C1059 1.289 . S
C1087 O1079 1.258 . S
C1087 O1080 1.266 . S
C1088 C1089 1.349 . S
C1088 C1090 1.327 . S
C1088 H1113 0.950 . S
C1089 C1088 1.349 . S
C1089 C1105 1.349 . S
C1090 C1088 1.327 . S
C1090 C1109 1.429 . S
C1090 H1114 0.950 . S
C1091 C1108 1.574 . S
C1091 C1110 1.368 . S
C1091 H1115 0.949 . S
H1092 C1096 0.949 . S
C1093 C1094 1.349 . S
C1093 C1095 1.327 . S
C1093 H1116 0.950 . S
C1094 C1093 1.349 . S
C1094 C1106 1.349 . S
C1095 C1093 1.327 . S
C1095 C1111 1.429 . S
C1095 H1117 0.950 . S
C1096 H1092 0.949 . S
C1096 C1104 1.574 . S
C1096 C1112 1.368 . S
H1097 C1105 0.950 . S
H1098 C1103 0.950 . S
H1099 C1104 0.949 . S
H1100 C1106 0.950 . S
H1101 C1107 0.950 . S
H1102 C1108 0.949 . S
C1103 H1098 0.950 . S
C1103 C1105 1.327 . S
C1103 C1109 1.429 . S
C1104 C1096 1.574 . S
C1104 H1099 0.949 . S
C1104 C1110 1.368 . S
C1105 C1089 1.349 . S
C1105 H1097 0.950 . S
C1105 C1103 1.327 . S
C1106 C1094 1.349 . S
C1106 H1100 0.950 . S
C1106 C1107 1.327 . S
C1107 H1101 0.950 . S
C1107 C1106 1.327 . S
C1107 C1111 1.429 . S
C1108 C1091 1.574 . S
C1108 H1102 0.949 . S
C1108 C1112 1.368 . S
C1109 C1090 1.429 . S
C1109 C1103 1.429 . S
C1109 C1110 1.523 . S
C1110 C1091 1.368 . S
C1110 C1104 1.368 . S
C1110 C1109 1.523 . S
C1111 C1095 1.429 . S
C1111 C1107 1.429 . S
C1111 C1112 1.523 . S
C1112 C1096 1.368 . S
C1112 C1108 1.368 . S
C1112 C1111 1.523 . S
H1113 C1088 0.950 . S
H1114 C1090 0.950 . S
H1115 C1091 0.949 . S
H1116 C1093 0.950 . S
H1117 C1095 0.950 . S
C1118 C1119 1.349 . S
C1118 C1120 1.327 . S
C1118 H1143 0.950 . S
C1119 C1118 1.349 . S
C1119 C1135 1.349 . S
C1120 C1118 1.327 . S
C1120 C1139 1.429 . S
C1120 H1144 0.950 . S
C1121 C1138 1.574 . S
C1121 C1140 1.368 . S
C1121 H1145 0.949 . S
H1122 C1126 0.949 . S
C1123 C1124 1.349 . S
C1123 C1125 1.327 . S
C1123 H1146 0.950 . S
C1124 C1123 1.349 . S
C1124 C1136 1.349 . S
C1125 C1123 1.327 . S
C1125 C1141 1.429 . S
C1125 H1147 0.950 . S
C1126 H1122 0.949 . S
C1126 C1134 1.574 . S
C1126 C1142 1.368 . S
H1127 C1135 0.950 . S
H1128 C1133 0.950 . S
H1129 C1134 0.949 . S
H1130 C1136 0.950 . S
H1131 C1137 0.950 . S
H1132 C1138 0.949 . S
C1133 H1128 0.950 . S
C1133 C1135 1.327 . S
C1133 C1139 1.429 . S
C1134 C1126 1.574 . S
C1134 H1129 0.949 . S
C1134 C1140 1.368 . S
C1135 C1119 1.349 . S
C1135 H1127 0.950 . S
C1135 C1133 1.327 . S
C1136 C1124 1.349 . S
C1136 H1130 0.950 . S
C1136 C1137 1.327 . S
C1137 H1131 0.950 . S
C1137 C1136 1.327 . S
C1137 C1141 1.429 . S
C1138 C1121 1.574 . S
C1138 H1132 0.949 . S
C1138 C1142 1.368 . S
C1139 C1120 1.429 . S
C1139 C1133 1.429 . S
C1139 C1140 1.523 . S
C1140 C1121 1.368 . S
C1140 C1134 1.368 . S
C1140 C1139 1.523 . S
C1141 C1125 1.429 . S
C1141 C1137 1.429 . S
C1141 C1142 1.523 . S
C1142 C1126 1.368 . S
C1142 C1138 1.368 . S
C1142 C1141 1.523 . S
H1143 C1118 0.950 . S
H1144 C1120 0.950 . S
H1145 C1121 0.949 . S
H1146 C1123 0.950 . S
H1147 C1125 0.950 . S
C1148 C1149 1.349 . S
C1148 C1150 1.327 . S
C1148 H1173 0.950 . S
C1149 C1148 1.349 . S
C1149 C1165 1.349 . S
C1150 C1148 1.327 . S
C1150 C1169 1.429 . S
C1150 H1174 0.950 . S
C1151 C1168 1.574 . S
C1151 C1170 1.368 . S
C1151 H1175 0.949 . S
H1152 C1156 0.949 . S
C1153 C1154 1.349 . S
C1153 C1155 1.327 . S
C1153 H1176 0.950 . S
C1154 C1153 1.349 . S
C1154 C1166 1.349 . S
C1155 C1153 1.327 . S
C1155 C1171 1.429 . S
C1155 H1177 0.950 . S
C1156 H1152 0.949 . S
C1156 C1164 1.574 . S
C1156 C1172 1.368 . S
H1157 C1165 0.950 . S
H1158 C1163 0.950 . S
H1159 C1164 0.949 . S
H1160 C1166 0.950 . S
H1161 C1167 0.950 . S
H1162 C1168 0.949 . S
C1163 H1158 0.950 . S
C1163 C1165 1.327 . S
C1163 C1169 1.429 . S
C1164 C1156 1.574 . S
C1164 H1159 0.949 . S
C1164 C1170 1.368 . S
C1165 C1149 1.349 . S
C1165 H1157 0.950 . S
C1165 C1163 1.327 . S
C1166 C1154 1.349 . S
C1166 H1160 0.950 . S
C1166 C1167 1.327 . S
C1167 H1161 0.950 . S
C1167 C1166 1.327 . S
C1167 C1171 1.429 . S
C1168 C1151 1.574 . S
C1168 H1162 0.949 . S
C1168 C1172 1.368 . S
C1169 C1150 1.429 . S
C1169 C1163 1.429 . S
C1169 C1170 1.523 . S
C1170 C1151 1.368 . S
C1170 C1164 1.368 . S
C1170 C1169 1.523 . S
C1171 C1155 1.429 . S
C1171 C1167 1.429 . S
C1171 C1172 1.523 . S
C1172 C1156 1.368 . S
C1172 C1168 1.368 . S
C1172 C1171 1.523 . S
H1173 C1148 0.950 . S
H1174 C1150 0.950 . S
H1175 C1151 0.949 . S
H1176 C1153 0.950 . S
H1177 C1155 0.950 . S
C1178 C1179 1.349 . S
C1178 C1180 1.327 . S
C1178 H1203 0.950 . S
C1179 C1178 1.349 . S
C1179 C1195 1.349 . S
C1180 C1178 1.327 . S
C1180 C1199 1.429 . S
C1180 H1204 0.950 . S
C1181 C1198 1.574 . S
C1181 C1200 1.368 . S
C1181 H1205 0.949 . S
H1182 C1186 0.949 . S
C1183 C1184 1.349 . S
C1183 C1185 1.327 . S
C1183 H1206 0.950 . S
C1184 C1183 1.349 . S
C1184 C1196 1.349 . S
C1185 C1183 1.327 . S
C1185 C1201 1.429 . S
C1185 H1207 0.950 . S
C1186 H1182 0.949 . S
C1186 C1194 1.574 . S
C1186 C1202 1.368 . S
H1187 C1195 0.950 . S
H1188 C1193 0.950 . S
H1189 C1194 0.949 . S
H1190 C1196 0.950 . S
H1191 C1197 0.950 . S
H1192 C1198 0.949 . S
C1193 H1188 0.950 . S
C1193 C1195 1.327 . S
C1193 C1199 1.429 . S
C1194 C1186 1.574 . S
C1194 H1189 0.949 . S
C1194 C1200 1.368 . S
C1195 C1179 1.349 . S
C1195 H1187 0.950 . S
C1195 C1193 1.327 . S
C1196 C1184 1.349 . S
C1196 H1190 0.950 . S
C1196 C1197 1.327 . S
C1197 H1191 0.950 . S
C1197 C1196 1.327 . S
C1197 C1201 1.429 . S
C1198 C1181 1.574 . S
C1198 H1192 0.949 . S
C1198 C1202 1.368 . S
C1199 C1180 1.429 . S
C1199 C1193 1.429 . S
C1199 C1200 1.523 . S
C1200 C1181 1.368 . S
C1200 C1194 1.368 . S
C1200 C1199 1.523 . S
C1201 C1185 1.429 . S
C1201 C1197 1.429 . S
C1201 C1202 1.523 . S
C1202 C1186 1.368 . S
C1202 C1198 1.368 . S
C1202 C1201 1.523 . S
H1203 C1178 0.950 . S
H1204 C1180 0.950 . S
H1205 C1181 0.949 . S
H1206 C1183 0.950 . S
H1207 C1185 0.950 . S
C1208 C1209 1.349 . S
C1208 C1210 1.327 . S
C1208 H1233 0.950 . S
C1209 C1208 1.349 . S
C1209 C1225 1.349 . S
C1210 C1208 1.327 . S
C1210 C1229 1.429 . S
C1210 H1234 0.950 . S
C1211 C1228 1.574 . S
C1211 C1230 1.368 . S
C1211 H1235 0.949 . S
H1212 C1216 0.949 . S
C1213 C1214 1.349 . S
C1213 C1215 1.327 . S
C1213 H1236 0.950 . S
C1214 C1213 1.349 . S
C1214 C1226 1.349 . S
C1215 C1213 1.327 . S
C1215 C1231 1.429 . S
C1215 H1237 0.950 . S
C1216 H1212 0.949 . S
C1216 C1224 1.574 . S
C1216 C1232 1.368 . S
H1217 C1225 0.950 . S
H1218 C1223 0.950 . S
H1219 C1224 0.949 . S
H1220 C1226 0.950 . S
H1221 C1227 0.950 . S
H1222 C1228 0.949 . S
C1223 H1218 0.950 . S
C1223 C1225 1.327 . S
C1223 C1229 1.429 . S
C1224 C1216 1.574 . S
C1224 H1219 0.949 . S
C1224 C1230 1.368 . S
C1225 C1209 1.349 . S
C1225 H1217 0.950 . S
C1225 C1223 1.327 . S
C1226 C1214 1.349 . S
C1226 H1220 0.950 . S
C1226 C1227 1.327 . S
C1227 H1221 0.950 . S
C1227 C1226 1.327 . S
C1227 C1231 1.429 . S
C1228 C1211 1.574 . S
C1228 H1222 0.949 . S
C1228 C1232 1.368 . S
C1229 C1210 1.429 . S
C1229 C1223 1.429 . S
C1229 C1230 1.523 . S
C1230 C1211 1.368 . S
C1230 C1224 1.368 . S
C1230 C1229 1.523 . S
C1231 C1215 1.429 . S
C1231 C1227 1.429 . S
C1231 C1232 1.523 . S
C1232 C1216 1.368 . S
C1232 C1228 1.368 . S
C1232 C1231 1.523 . S
H1233 C1208 0.950 . S
H1234 C1210 0.950 . S
H1235 C1211 0.949 . S
H1236 C1213 0.950 . S
H1237 C1215 0.950 . S
C1238 C1239 1.349 . S
C1238 C1240 1.327 . S
C1238 H1263 0.950 . S
C1239 C1238 1.349 . S
C1239 C1255 1.349 . S
C1240 C1238 1.327 . S
C1240 C1259 1.429 . S
C1240 H1264 0.950 . S
C1241 C1258 1.574 . S
C1241 C1260 1.368 . S
C1241 H1265 0.949 . S
H1242 C1246 0.949 . S
C1243 C1244 1.349 . S
C1243 C1245 1.327 . S
C1243 H1266 0.950 . S
C1244 C1243 1.349 . S
C1244 C1256 1.349 . S
C1245 C1243 1.327 . S
C1245 C1261 1.429 . S
C1245 H1267 0.950 . S
C1246 H1242 0.949 . S
C1246 C1254 1.574 . S
C1246 C1262 1.368 . S
H1247 C1255 0.950 . S
H1248 C1253 0.950 . S
H1249 C1254 0.949 . S
H1250 C1256 0.950 . S
H1251 C1257 0.950 . S
H1252 C1258 0.949 . S
C1253 H1248 0.950 . S
C1253 C1255 1.327 . S
C1253 C1259 1.429 . S
C1254 C1246 1.574 . S
C1254 H1249 0.949 . S
C1254 C1260 1.368 . S
C1255 C1239 1.349 . S
C1255 H1247 0.950 . S
C1255 C1253 1.327 . S
C1256 C1244 1.349 . S
C1256 H1250 0.950 . S
C1256 C1257 1.327 . S
C1257 H1251 0.950 . S
C1257 C1256 1.327 . S
C1257 C1261 1.429 . S
C1258 C1241 1.574 . S
C1258 H1252 0.949 . S
C1258 C1262 1.368 . S
C1259 C1240 1.429 . S
C1259 C1253 1.429 . S
C1259 C1260 1.523 . S
C1260 C1241 1.368 . S
C1260 C1254 1.368 . S
C1260 C1259 1.523 . S
C1261 C1245 1.429 . S
C1261 C1257 1.429 . S
C1261 C1262 1.523 . S
C1262 C1246 1.368 . S
C1262 C1258 1.368 . S
C1262 C1261 1.523 . S
H1263 C1238 0.950 . S
H1264 C1240 0.950 . S
H1265 C1241 0.949 . S
H1266 C1243 0.950 . S
H1267 C1245 0.950 . S
C1268 C1269 1.349 . S
C1268 C1270 1.327 . S
C1268 H1293 0.950 . S
C1269 C1268 1.349 . S
C1269 C1285 1.349 . S
C1270 C1268 1.327 . S
C1270 C1289 1.429 . S
C1270 H1294 0.950 . S
C1271 C1288 1.574 . S
C1271 C1290 1.368 . S
C1271 H1295 0.949 . S
H1272 C1276 0.949 . S
C1273 C1274 1.349 . S
C1273 C1275 1.327 . S
C1273 H1296 0.950 . S
C1274 C1273 1.349 . S
C1274 C1286 1.349 . S
C1275 C1273 1.327 . S
C1275 C1291 1.429 . S
C1275 H1297 0.950 . S
C1276 H1272 0.949 . S
C1276 C1284 1.574 . S
C1276 C1292 1.368 . S
H1277 C1285 0.950 . S
H1278 C1283 0.950 . S
H1279 C1284 0.949 . S
H1280 C1286 0.950 . S
H1281 C1287 0.950 . S
H1282 C1288 0.949 . S
C1283 H1278 0.950 . S
C1283 C1285 1.327 . S
C1283 C1289 1.429 . S
C1284 C1276 1.574 . S
C1284 H1279 0.949 . S
C1284 C1290 1.368 . S
C1285 C1269 1.349 . S
C1285 H1277 0.950 . S
C1285 C1283 1.327 . S
C1286 C1274 1.349 . S
C1286 H1280 0.950 . S
C1286 C1287 1.327 . S
C1287 H1281 0.950 . S
C1287 C1286 1.327 . S
C1287 C1291 1.429 . S
C1288 C1271 1.574 . S
C1288 H1282 0.949 . S
C1288 C1292 1.368 . S
C1289 C1270 1.429 . S
C1289 C1283 1.429 . S
C1289 C1290 1.523 . S
C1290 C1271 1.368 . S
C1290 C1284 1.368 . S
C1290 C1289 1.523 . S
C1291 C1275 1.429 . S
C1291 C1287 1.429 . S
C1291 C1292 1.523 . S
C1292 C1276 1.368 . S
C1292 C1288 1.368 . S
C1292 C1291 1.523 . S
H1293 C1268 0.950 . S
H1294 C1270 0.950 . S
H1295 C1271 0.949 . S
H1296 C1273 0.950 . S
H1297 C1275 0.950 . S
C1298 C1299 1.349 . S
C1298 C1300 1.327 . S
C1298 H1323 0.950 . S
C1299 C1298 1.349 . S
C1299 C1315 1.349 . S
C1300 C1298 1.327 . S
C1300 C1319 1.429 . S
C1300 H1324 0.950 . S
C1301 C1318 1.574 . S
C1301 C1320 1.368 . S
C1301 H1325 0.949 . S
H1302 C1306 0.949 . S
C1303 C1304 1.349 . S
C1303 C1305 1.327 . S
C1303 H1326 0.950 . S
C1304 C1303 1.349 . S
C1304 C1316 1.349 . S
C1305 C1303 1.327 . S
C1305 C1321 1.429 . S
C1305 H1327 0.950 . S
C1306 H1302 0.949 . S
C1306 C1314 1.574 . S
C1306 C1322 1.368 . S
H1307 C1315 0.950 . S
H1308 C1313 0.950 . S
H1309 C1314 0.949 . S
H1310 C1316 0.950 . S
H1311 C1317 0.950 . S
H1312 C1318 0.949 . S
C1313 H1308 0.950 . S
C1313 C1315 1.327 . S
C1313 C1319 1.429 . S
C1314 C1306 1.574 . S
C1314 H1309 0.949 . S
C1314 C1320 1.368 . S
C1315 C1299 1.349 . S
C1315 H1307 0.950 . S
C1315 C1313 1.327 . S
C1316 C1304 1.349 . S
C1316 H1310 0.950 . S
C1316 C1317 1.327 . S
C1317 H1311 0.950 . S
C1317 C1316 1.327 . S
C1317 C1321 1.429 . S
C1318 C1301 1.574 . S
C1318 H1312 0.949 . S
C1318 C1322 1.368 . S
C1319 C1300 1.429 . S
C1319 C1313 1.429 . S
C1319 C1320 1.523 . S
C1320 C1301 1.368 . S
C1320 C1314 1.368 . S
C1320 C1319 1.523 . S
C1321 C1305 1.429 . S
C1321 C1317 1.429 . S
C1321 C1322 1.523 . S
C1322 C1306 1.368 . S
C1322 C1318 1.368 . S
C1322 C1321 1.523 . S
H1323 C1298 0.950 . S
H1324 C1300 0.950 . S
H1325 C1301 0.949 . S
H1326 C1303 0.950 . S
H1327 C1305 0.950 . S
C1328 C1329 1.349 . S
C1328 C1330 1.327 . S
C1328 H1353 0.950 . S
C1329 C1328 1.349 . S
C1329 C1345 1.349 . S
C1330 C1328 1.327 . S
C1330 C1349 1.429 . S
C1330 H1354 0.950 . S
C1331 C1348 1.574 . S
C1331 C1350 1.368 . S
C1331 H1355 0.949 . S
H1332 C1336 0.949 . S
C1333 C1334 1.349 . S
C1333 C1335 1.327 . S
C1333 H1356 0.950 . S
C1334 C1333 1.349 . S
C1334 C1346 1.349 . S
C1335 C1333 1.327 . S
C1335 C1351 1.429 . S
C1335 H1357 0.950 . S
C1336 H1332 0.949 . S
C1336 C1344 1.574 . S
C1336 C1352 1.368 . S
H1337 C1345 0.950 . S
H1338 C1343 0.950 . S
H1339 C1344 0.949 . S
H1340 C1346 0.950 . S
H1341 C1347 0.950 . S
H1342 C1348 0.949 . S
C1343 H1338 0.950 . S
C1343 C1345 1.327 . S
C1343 C1349 1.429 . S
C1344 C1336 1.574 . S
C1344 H1339 0.949 . S
C1344 C1350 1.368 . S
C1345 C1329 1.349 . S
C1345 H1337 0.950 . S
C1345 C1343 1.327 . S
C1346 C1334 1.349 . S
C1346 H1340 0.950 . S
C1346 C1347 1.327 . S
C1347 H1341 0.950 . S
C1347 C1346 1.327 . S
C1347 C1351 1.429 . S
C1348 C1331 1.574 . S
C1348 H1342 0.949 . S
C1348 C1352 1.368 . S
C1349 C1330 1.429 . S
C1349 C1343 1.429 . S
C1349 C1350 1.523 . S
C1350 C1331 1.368 . S
C1350 C1344 1.368 . S
C1350 C1349 1.523 . S
C1351 C1335 1.429 . S
C1351 C1347 1.429 . S
C1351 C1352 1.523 . S
C1352 C1336 1.368 . S
C1352 C1348 1.368 . S
C1352 C1351 1.523 . S
H1353 C1328 0.950 . S
H1354 C1330 0.950 . S
H1355 C1331 0.949 . S
H1356 C1333 0.950 . S
H1357 C1335 0.950 . S
C1358 C1359 1.349 . S
C1358 C1360 1.327 . S
C1358 H1383 0.950 . S
C1359 C1358 1.349 . S
C1359 C1375 1.349 . S
C1360 C1358 1.327 . S
C1360 C1379 1.429 . S
C1360 H1384 0.950 . S
C1361 C1378 1.574 . S
C1361 C1380 1.368 . S
C1361 H1385 0.949 . S
H1362 C1366 0.949 . S
C1363 C1364 1.349 . S
C1363 C1365 1.327 . S
C1363 H1386 0.950 . S
C1364 C1363 1.349 . S
C1364 C1376 1.349 . S
C1365 C1363 1.327 . S
C1365 C1381 1.429 . S
C1365 H1387 0.950 . S
C1366 H1362 0.949 . S
C1366 C1374 1.574 . S
C1366 C1382 1.368 . S
H1367 C1375 0.950 . S
H1368 C1373 0.950 . S
H1369 C1374 0.949 . S
H1370 C1376 0.950 . S
H1371 C1377 0.950 . S
H1372 C1378 0.949 . S
C1373 H1368 0.950 . S
C1373 C1375 1.327 . S
C1373 C1379 1.429 . S
C1374 C1366 1.574 . S
C1374 H1369 0.949 . S
C1374 C1380 1.368 . S
C1375 C1359 1.349 . S
C1375 H1367 0.950 . S
C1375 C1373 1.327 . S
C1376 C1364 1.349 . S
C1376 H1370 0.950 . S
C1376 C1377 1.327 . S
C1377 H1371 0.950 . S
C1377 C1376 1.327 . S
C1377 C1381 1.429 . S
C1378 C1361 1.574 . S
C1378 H1372 0.949 . S
C1378 C1382 1.368 . S
C1379 C1360 1.429 . S
C1379 C1373 1.429 . S
C1379 C1380 1.523 . S
C1380 C1361 1.368 . S
C1380 C1374 1.368 . S
C1380 C1379 1.523 . S
C1381 C1365 1.429 . S
C1381 C1377 1.429 . S
C1381 C1382 1.523 . S
C1382 C1366 1.368 . S
C1382 C1378 1.368 . S
C1382 C1381 1.523 . S
H1383 C1358 0.950 . S
H1384 C1360 0.950 . S
H1385 C1361 0.949 . S
H1386 C1363 0.950 . S
H1387 C1365 0.950 . S
C1388 C1389 1.349 . S
C1388 C1390 1.327 . S
C1388 H1413 0.950 . S
C1389 C1388 1.349 . S
C1389 C1405 1.349 . S
C1390 C1388 1.327 . S
C1390 C1409 1.429 . S
C1390 H1414 0.950 . S
C1391 C1408 1.574 . S
C1391 C1410 1.368 . S
C1391 H1415 0.949 . S
H1392 C1396 0.949 . S
C1393 C1394 1.349 . S
C1393 C1395 1.327 . S
C1393 H1416 0.950 . S
C1394 C1393 1.349 . S
C1394 C1406 1.349 . S
C1395 C1393 1.327 . S
C1395 C1411 1.429 . S
C1395 H1417 0.950 . S
C1396 H1392 0.949 . S
C1396 C1404 1.574 . S
C1396 C1412 1.368 . S
H1397 C1405 0.950 . S
H1398 C1403 0.950 . S
H1399 C1404 0.949 . S
H1400 C1406 0.950 . S
H1401 C1407 0.950 . S
H1402 C1408 0.949 . S
C1403 H1398 0.950 . S
C1403 C1405 1.327 . S
C1403 C1409 1.429 . S
C1404 C1396 1.574 . S
C1404 H1399 0.949 . S
C1404 C1410 1.368 . S
C1405 C1389 1.349 . S
C1405 H1397 0.950 . S
C1405 C1403 1.327 . S
C1406 C1394 1.349 . S
C1406 H1400 0.950 . S
C1406 C1407 1.327 . S
C1407 H1401 0.950 . S
C1407 C1406 1.327 . S
C1407 C1411 1.429 . S
C1408 C1391 1.574 . S
C1408 H1402 0.949 . S
C1408 C1412 1.368 . S
C1409 C1390 1.429 . S
C1409 C1403 1.429 . S
C1409 C1410 1.523 . S
C1410 C1391 1.368 . S
C1410 C1404 1.368 . S
C1410 C1409 1.523 . S
C1411 C1395 1.429 . S
C1411 C1407 1.429 . S
C1411 C1412 1.523 . S
C1412 C1396 1.368 . S
C1412 C1408 1.368 . S
C1412 C1411 1.523 . S
H1413 C1388 0.950 . S
H1414 C1390 0.950 . S
H1415 C1391 0.949 . S
H1416 C1393 0.950 . S
H1417 C1395 0.950 . S
C1418 C1419 1.349 . S
C1418 C1420 1.327 . S
C1418 H1443 0.950 . S
C1419 C1418 1.349 . S
C1419 C1435 1.349 . S
C1420 C1418 1.327 . S
C1420 C1439 1.429 . S
C1420 H1444 0.950 . S
C1421 C1438 1.574 . S
C1421 C1440 1.368 . S
C1421 H1445 0.949 . S
H1422 C1426 0.949 . S
C1423 C1424 1.349 . S
C1423 C1425 1.327 . S
C1423 H1446 0.950 . S
C1424 C1423 1.349 . S
C1424 C1436 1.349 . S
C1425 C1423 1.327 . S
C1425 C1441 1.429 . S
C1425 H1447 0.950 . S
C1426 H1422 0.949 . S
C1426 C1434 1.574 . S
C1426 C1442 1.368 . S
H1427 C1435 0.950 . S
H1428 C1433 0.950 . S
H1429 C1434 0.949 . S
H1430 C1436 0.950 . S
H1431 C1437 0.950 . S
H1432 C1438 0.949 . S
C1433 H1428 0.950 . S
C1433 C1435 1.327 . S
C1433 C1439 1.429 . S
C1434 C1426 1.574 . S
C1434 H1429 0.949 . S
C1434 C1440 1.368 . S
C1435 C1419 1.349 . S
C1435 H1427 0.950 . S
C1435 C1433 1.327 . S
C1436 C1424 1.349 . S
C1436 H1430 0.950 . S
C1436 C1437 1.327 . S
C1437 H1431 0.950 . S
C1437 C1436 1.327 . S
C1437 C1441 1.429 . S
C1438 C1421 1.574 . S
C1438 H1432 0.949 . S
C1438 C1442 1.368 . S
C1439 C1420 1.429 . S
C1439 C1433 1.429 . S
C1439 C1440 1.523 . S
C1440 C1421 1.368 . S
C1440 C1434 1.368 . S
C1440 C1439 1.523 . S
C1441 C1425 1.429 . S
C1441 C1437 1.429 . S
C1441 C1442 1.523 . S
C1442 C1426 1.368 . S
C1442 C1438 1.368 . S
C1442 C1441 1.523 . S
H1443 C1418 0.950 . S
H1444 C1420 0.950 . S
H1445 C1421 0.949 . S
H1446 C1423 0.950 . S
H1447 C1425 0.950 . S
C1448 C1449 1.349 . S
C1448 C1450 1.327 . S
C1448 H1473 0.950 . S
C1449 C1448 1.349 . S
C1449 C1465 1.349 . S
C1450 C1448 1.327 . S
C1450 C1469 1.429 . S
C1450 H1474 0.950 . S
C1451 C1468 1.574 . S
C1451 C1470 1.368 . S
C1451 H1475 0.949 . S
H1452 C1456 0.949 . S
C1453 C1454 1.349 . S
C1453 C1455 1.327 . S
C1453 H1476 0.950 . S
C1454 C1453 1.349 . S
C1454 C1466 1.349 . S
C1455 C1453 1.327 . S
C1455 C1471 1.429 . S
C1455 H1477 0.950 . S
C1456 H1452 0.949 . S
C1456 C1464 1.574 . S
C1456 C1472 1.368 . S
H1457 C1465 0.950 . S
H1458 C1463 0.950 . S
H1459 C1464 0.949 . S
H1460 C1466 0.950 . S
H1461 C1467 0.950 . S
H1462 C1468 0.949 . S
C1463 H1458 0.950 . S
C1463 C1465 1.327 . S
C1463 C1469 1.429 . S
C1464 C1456 1.574 . S
C1464 H1459 0.949 . S
C1464 C1470 1.368 . S
C1465 C1449 1.349 . S
C1465 H1457 0.950 . S
C1465 C1463 1.327 . S
C1466 C1454 1.349 . S
C1466 H1460 0.950 . S
C1466 C1467 1.327 . S
C1467 H1461 0.950 . S
C1467 C1466 1.327 . S
C1467 C1471 1.429 . S
C1468 C1451 1.574 . S
C1468 H1462 0.949 . S
C1468 C1472 1.368 . S
C1469 C1450 1.429 . S
C1469 C1463 1.429 . S
C1469 C1470 1.523 . S
C1470 C1451 1.368 . S
C1470 C1464 1.368 . S
C1470 C1469 1.523 . S
C1471 C1455 1.429 . S
C1471 C1467 1.429 . S
C1471 C1472 1.523 . S
C1472 C1456 1.368 . S
C1472 C1468 1.368 . S
C1472 C1471 1.523 . S
H1473 C1448 0.950 . S
H1474 C1450 0.950 . S
H1475 C1451 0.949 . S
H1476 C1453 0.950 . S
H1477 C1455 0.950 . S
C1478 C1479 1.349 . S
C1478 C1480 1.327 . S
C1478 H1503 0.950 . S
C1479 C1478 1.349 . S
C1479 C1495 1.349 . S
C1480 C1478 1.327 . S
C1480 C1499 1.429 . S
C1480 H1504 0.950 . S
C1481 C1498 1.574 . S
C1481 C1500 1.368 . S
C1481 H1505 0.949 . S
H1482 C1486 0.949 . S
C1483 C1484 1.349 . S
C1483 C1485 1.327 . S
C1483 H1506 0.950 . S
C1484 C1483 1.349 . S
C1484 C1496 1.349 . S
C1485 C1483 1.327 . S
C1485 C1501 1.429 . S
C1485 H1507 0.950 . S
C1486 H1482 0.949 . S
C1486 C1494 1.574 . S
C1486 C1502 1.368 . S
H1487 C1495 0.950 . S
H1488 C1493 0.950 . S
H1489 C1494 0.949 . S
H1490 C1496 0.950 . S
H1491 C1497 0.950 . S
H1492 C1498 0.949 . S
C1493 H1488 0.950 . S
C1493 C1495 1.327 . S
C1493 C1499 1.429 . S
C1494 C1486 1.574 . S
C1494 H1489 0.949 . S
C1494 C1500 1.368 . S
C1495 C1479 1.349 . S
C1495 H1487 0.950 . S
C1495 C1493 1.327 . S
C1496 C1484 1.349 . S
C1496 H1490 0.950 . S
C1496 C1497 1.327 . S
C1497 H1491 0.950 . S
C1497 C1496 1.327 . S
C1497 C1501 1.429 . S
C1498 C1481 1.574 . S
C1498 H1492 0.949 . S
C1498 C1502 1.368 . S
C1499 C1480 1.429 . S
C1499 C1493 1.429 . S
C1499 C1500 1.523 . S
C1500 C1481 1.368 . S
C1500 C1494 1.368 . S
C1500 C1499 1.523 . S
C1501 C1485 1.429 . S
C1501 C1497 1.429 . S
C1501 C1502 1.523 . S
C1502 C1486 1.368 . S
C1502 C1498 1.368 . S
C1502 C1501 1.523 . S
H1503 C1478 0.950 . S
H1504 C1480 0.950 . S
H1505 C1481 0.949 . S
H1506 C1483 0.950 . S
H1507 C1485 0.950 . S
C1508 C1509 1.349 . S
C1508 C1510 1.327 . S
C1508 H1533 0.950 . S
C1509 C1508 1.349 . S
C1509 C1525 1.349 . S
C1510 C1508 1.327 . S
C1510 C1529 1.429 . S
C1510 H1534 0.950 . S
C1511 C1528 1.574 . S
C1511 C1530 1.368 . S
C1511 H1535 0.949 . S
H1512 C1516 0.949 . S
C1513 C1514 1.349 . S
C1513 C1515 1.327 . S
C1513 H1536 0.950 . S
C1514 C1513 1.349 . S
C1514 C1526 1.349 . S
C1515 C1513 1.327 . S
C1515 C1531 1.429 . S
C1515 H1537 0.950 . S
C1516 H1512 0.949 . S
C1516 C1524 1.574 . S
C1516 C1532 1.368 . S
H1517 C1525 0.950 . S
H1518 C1523 0.950 . S
H1519 C1524 0.949 . S
H1520 C1526 0.950 . S
H1521 C1527 0.950 . S
H1522 C1528 0.949 . S
C1523 H1518 0.950 . S
C1523 C1525 1.327 . S
C1523 C1529 1.429 . S
C1524 C1516 1.574 . S
C1524 H1519 0.949 . S
C1524 C1530 1.368 . S
C1525 C1509 1.349 . S
C1525 H1517 0.950 . S
C1525 C1523 1.327 . S
C1526 C1514 1.349 . S
C1526 H1520 0.950 . S
C1526 C1527 1.327 . S
C1527 H1521 0.950 . S
C1527 C1526 1.327 . S
C1527 C1531 1.429 . S
C1528 C1511 1.574 . S
C1528 H1522 0.949 . S
C1528 C1532 1.368 . S
C1529 C1510 1.429 . S
C1529 C1523 1.429 . S
C1529 C1530 1.523 . S
C1530 C1511 1.368 . S
C1530 C1524 1.368 . S
C1530 C1529 1.523 . S
C1531 C1515 1.429 . S
C1531 C1527 1.429 . S
C1531 C1532 1.523 . S
C1532 C1516 1.368 . S
C1532 C1528 1.368 . S
C1532 C1531 1.523 . S
H1533 C1508 0.950 . S
H1534 C1510 0.950 . S
H1535 C1511 0.949 . S
H1536 C1513 0.950 . S
H1537 C1515 0.950 . S
C1538 C1539 1.349 . S
C1538 C1540 1.327 . S
C1538 H1563 0.950 . S
C1539 C1538 1.349 . S
C1539 C1555 1.349 . S
C1540 C1538 1.327 . S
C1540 C1559 1.429 . S
C1540 H1564 0.950 . S
C1541 C1558 1.574 . S
C1541 C1560 1.368 . S
C1541 H1565 0.949 . S
H1542 C1546 0.949 . S
C1543 C1544 1.349 . S
C1543 C1545 1.327 . S
C1543 H1566 0.950 . S
C1544 C1543 1.349 . S
C1544 C1556 1.349 . S
C1545 C1543 1.327 . S
C1545 C1561 1.429 . S
C1545 H1567 0.950 . S
C1546 H1542 0.949 . S
C1546 C1554 1.574 . S
C1546 C1562 1.368 . S
H1547 C1555 0.950 . S
H1548 C1553 0.950 . S
H1549 C1554 0.949 . S
H1550 C1556 0.950 . S
H1551 C1557 0.950 . S
H1552 C1558 0.949 . S
C1553 H1548 0.950 . S
C1553 C1555 1.327 . S
C1553 C1559 1.429 . S
C1554 C1546 1.574 . S
C1554 H1549 0.949 . S
C1554 C1560 1.368 . S
C1555 C1539 1.349 . S
C1555 H1547 0.950 . S
C1555 C1553 1.327 . S
C1556 C1544 1.349 . S
C1556 H1550 0.950 . S
C1556 C1557 1.327 . S
C1557 H1551 0.950 . S
C1557 C1556 1.327 . S
C1557 C1561 1.429 . S
C1558 C1541 1.574 . S
C1558 H1552 0.949 . S
C1558 C1562 1.368 . S
C1559 C1540 1.429 . S
C1559 C1553 1.429 . S
C1559 C1560 1.523 . S
C1560 C1541 1.368 . S
C1560 C1554 1.368 . S
C1560 C1559 1.523 . S
C1561 C1545 1.429 . S
C1561 C1557 1.429 . S
C1561 C1562 1.523 . S
C1562 C1546 1.368 . S
C1562 C1558 1.368 . S
C1562 C1561 1.523 . S
H1563 C1538 0.950 . S
H1564 C1540 0.950 . S
H1565 C1541 0.949 . S
H1566 C1543 0.950 . S
H1567 C1545 0.950 . S
C1568 C1569 1.349 . S
C1568 C1570 1.327 . S
C1568 H1593 0.950 . S
C1569 C1568 1.349 . S
C1569 C1585 1.349 . S
C1570 C1568 1.327 . S
C1570 C1589 1.429 . S
C1570 H1594 0.950 1_554 S
C1571 C1588 1.574 1_455 S
C1571 C1590 1.368 . S
C1571 H1595 0.949 . S
H1572 C1576 0.949 . S
C1573 C1574 1.349 . S
C1573 C1575 1.327 . S
C1573 H1596 0.950 . S
C1574 C1573 1.349 . S
C1574 C1586 1.349 . S
C1575 C1573 1.327 . S
C1575 C1591 1.429 . S
C1575 H1597 0.950 1_556 S
C1576 H1572 0.949 . S
C1576 C1584 1.574 1_655 S
C1576 C1592 1.368 . S
H1577 C1585 0.950 . S
H1578 C1583 0.950 . S
H1579 C1584 0.949 . S
H1580 C1586 0.950 . S
H1581 C1587 0.950 . S
H1582 C1588 0.949 . S
C1583 H1578 0.950 . S
C1583 C1585 1.327 . S
C1583 C1589 1.429 . S
C1584 C1576 1.574 1_455 S
C1584 H1579 0.949 . S
C1584 C1590 1.368 1_556 S
C1585 C1569 1.349 . S
C1585 H1577 0.950 . S
C1585 C1583 1.327 . S
C1586 C1574 1.349 . S
C1586 H1580 0.950 . S
C1586 C1587 1.327 . S
C1587 H1581 0.950 . S
C1587 C1586 1.327 . S
C1587 C1591 1.429 . S
C1588 C1571 1.574 1_655 S
C1588 H1582 0.949 . S
C1588 C1592 1.368 1_554 S
C1589 C1570 1.429 . S
C1589 C1583 1.429 . S
C1589 C1590 1.523 . S
C1590 C1571 1.368 . S
C1590 C1584 1.368 1_554 S
C1590 C1589 1.523 . S
C1591 C1575 1.429 . S
C1591 C1587 1.429 . S
C1591 C1592 1.523 . S
C1592 C1576 1.368 . S
C1592 C1588 1.368 1_556 S
C1592 C1591 1.523 . S
H1593 C1568 0.950 . S
H1594 C1570 0.950 1_556 S
H1595 C1571 0.949 . S
H1596 C1573 0.950 . S
H1597 C1575 0.950 1_554 S
C1598 C1599 1.349 . S
C1598 C1600 1.327 . S
C1598 H1623 0.950 . S
C1599 C1598 1.349 . S
C1599 C1615 1.349 . S
C1600 C1598 1.327 . S
C1600 C1619 1.429 . S
C1600 H1624 0.950 . S
C1601 C1618 1.574 1_554 S
C1601 C1620 1.368 . S
C1601 H1625 0.949 . S
H1602 C1606 0.949 . S
C1603 C1604 1.349 . S
C1603 C1605 1.327 . S
C1603 H1626 0.950 . S
C1604 C1603 1.349 . S
C1604 C1616 1.349 . S
C1605 C1603 1.327 . S
C1605 C1621 1.429 . S
C1605 H1627 0.950 . S
C1606 H1602 0.949 . S
C1606 C1614 1.574 1_556 S
C1606 C1622 1.368 . S
H1607 C1615 0.950 . S
H1608 C1613 0.950 . S
H1609 C1614 0.949 . S
H1610 C1616 0.950 . S
H1611 C1617 0.950 . S
H1612 C1618 0.949 . S
C1613 H1608 0.950 . S
C1613 C1615 1.327 . S
C1613 C1619 1.429 . S
C1614 C1606 1.574 1_554 S
C1614 H1609 0.949 . S
C1614 C1620 1.368 . S
C1615 C1599 1.349 . S
C1615 H1607 0.950 . S
C1615 C1613 1.327 . S
C1616 C1604 1.349 . S
C1616 H1610 0.950 . S
C1616 C1617 1.327 . S
C1617 H1611 0.950 . S
C1617 C1616 1.327 . S
C1617 C1621 1.429 . S
C1618 C1601 1.574 1_556 S
C1618 H1612 0.949 . S
C1618 C1622 1.368 . S
C1619 C1600 1.429 . S
C1619 C1613 1.429 . S
C1619 C1620 1.523 . S
C1620 C1601 1.368 . S
C1620 C1614 1.368 . S
C1620 C1619 1.523 . S
C1621 C1605 1.429 . S
C1621 C1617 1.429 . S
C1621 C1622 1.523 . S
C1622 C1606 1.368 . S
C1622 C1618 1.368 . S
C1622 C1621 1.523 . S
H1623 C1598 0.950 . S
H1624 C1600 0.950 . S
H1625 C1601 0.949 . S
H1626 C1603 0.950 . S
H1627 C1605 0.950 . S
C1628 C1629 1.349 . S
C1628 C1630 1.327 . S
C1628 H1653 0.950 . S
C1629 C1628 1.349 . S
C1629 C1645 1.349 . S
C1630 C1628 1.327 . S
C1630 C1649 1.429 . S
C1630 H1654 0.950 . S
C1631 C1648 1.574 1_655 S
C1631 C1650 1.368 . S
C1631 H1655 0.949 . S
H1632 C1636 0.949 . S
C1633 C1634 1.349 . S
C1633 C1635 1.327 . S
C1633 H1656 0.950 . S
C1634 C1633 1.349 . S
C1634 C1646 1.349 . S
C1635 C1633 1.327 . S
C1635 C1651 1.429 . S
C1635 H1657 0.950 . S
C1636 H1632 0.949 . S
C1636 C1644 1.574 1_455 S
C1636 C1652 1.368 . S
H1637 C1645 0.950 . S
H1638 C1643 0.950 . S
H1639 C1644 0.949 . S
H1640 C1646 0.950 . S
H1641 C1647 0.950 . S
H1642 C1648 0.949 . S
C1643 H1638 0.950 . S
C1643 C1645 1.327 . S
C1643 C1649 1.429 . S
C1644 C1636 1.574 1_655 S
C1644 H1639 0.949 . S
C1644 C1650 1.368 . S
C1645 C1629 1.349 . S
C1645 H1637 0.950 . S
C1645 C1643 1.327 . S
C1646 C1634 1.349 . S
C1646 H1640 0.950 . S
C1646 C1647 1.327 . S
C1647 H1641 0.950 . S
C1647 C1646 1.327 . S
C1647 C1651 1.429 . S
C1648 C1631 1.574 1_455 S
C1648 H1642 0.949 . S
C1648 C1652 1.368 . S
C1649 C1630 1.429 . S
C1649 C1643 1.429 . S
C1649 C1650 1.523 . S
C1650 C1631 1.368 . S
C1650 C1644 1.368 . S
C1650 C1649 1.523 . S
C1651 C1635 1.429 . S
C1651 C1647 1.429 . S
C1651 C1652 1.523 . S
C1652 C1636 1.368 . S
C1652 C1648 1.368 . S
C1652 C1651 1.523 . S
H1653 C1628 0.950 . S
H1654 C1630 0.950 . S
H1655 C1631 0.949 . S
H1656 C1633 0.950 . S
H1657 C1635 0.950 . S
C1658 C1659 1.349 . S
C1658 C1660 1.327 . S
C1658 H1683 0.950 . S
C1659 C1658 1.349 . S
C1659 C1675 1.349 . S
C1660 C1658 1.327 . S
C1660 C1679 1.429 . S
C1660 H1684 0.950 . S
C1661 C1678 1.574 . S
C1661 C1680 1.368 . S
C1661 H1685 0.949 . S
H1662 C1666 0.949 . S
C1663 C1664 1.349 . S
C1663 C1665 1.327 . S
C1663 H1686 0.950 . S
C1664 C1663 1.349 . S
C1664 C1676 1.349 . S
C1665 C1663 1.327 . S
C1665 C1681 1.429 . S
C1665 H1687 0.950 . S
C1666 H1662 0.949 . S
C1666 C1674 1.574 . S
C1666 C1682 1.368 . S
H1667 C1675 0.950 . S
H1668 C1673 0.950 . S
H1669 C1674 0.949 . S
H1670 C1676 0.950 . S
H1671 C1677 0.950 . S
H1672 C1678 0.949 . S
C1673 H1668 0.950 . S
C1673 C1675 1.327 . S
C1673 C1679 1.429 . S
C1674 C1666 1.574 . S
C1674 H1669 0.949 . S
C1674 C1680 1.368 . S
C1675 C1659 1.349 . S
C1675 H1667 0.950 . S
C1675 C1673 1.327 . S
C1676 C1664 1.349 . S
C1676 H1670 0.950 . S
C1676 C1677 1.327 . S
C1677 H1671 0.950 . S
C1677 C1676 1.327 . S
C1677 C1681 1.429 . S
C1678 C1661 1.574 . S
C1678 H1672 0.949 . S
C1678 C1682 1.368 . S
C1679 C1660 1.429 . S
C1679 C1673 1.429 . S
C1679 C1680 1.523 . S
C1680 C1661 1.368 . S
C1680 C1674 1.368 . S
C1680 C1679 1.523 . S
C1681 C1665 1.429 . S
C1681 C1677 1.429 . S
C1681 C1682 1.523 . S
C1682 C1666 1.368 . S
C1682 C1678 1.368 . S
C1682 C1681 1.523 . S
H1683 C1658 0.950 . S
H1684 C1660 0.950 . S
H1685 C1661 0.949 . S
H1686 C1663 0.950 . S
H1687 C1665 0.950 . S
C1688 C1689 1.349 . S
C1688 C1690 1.327 . S
C1688 H1713 0.950 . S
C1689 C1688 1.349 . S
C1689 C1705 1.349 1_556 S
C1690 C1688 1.327 . S
C1690 C1709 1.429 . S
C1690 H1714 0.950 . S
C1691 C1708 1.574 . S
C1691 C1710 1.368 1_554 S
C1691 H1715 0.949 . S
H1692 C1696 0.949 . S
C1693 C1694 1.349 . S
C1693 C1695 1.327 . S
C1693 H1716 0.950 . S
C1694 C1693 1.349 . S
C1694 C1706 1.349 1_554 S
C1695 C1693 1.327 . S
C1695 C1711 1.429 . S
C1695 H1717 0.950 . S
C1696 H1692 0.949 . S
C1696 C1704 1.574 . S
C1696 C1712 1.368 1_556 S
H1697 C1705 0.950 . S
H1698 C1703 0.950 . S
H1699 C1704 0.949 . S
H1700 C1706 0.950 . S
H1701 C1707 0.950 . S
H1702 C1708 0.949 . S
C1703 H1698 0.950 . S
C1703 C1705 1.327 . S
C1703 C1709 1.429 1_554 S
C1704 C1696 1.574 . S
C1704 H1699 0.949 . S
C1704 C1710 1.368 . S
C1705 C1689 1.349 1_554 S
C1705 H1697 0.950 . S
C1705 C1703 1.327 . S
C1706 C1694 1.349 1_556 S
C1706 H1700 0.950 . S
C1706 C1707 1.327 . S
C1707 H1701 0.950 . S
C1707 C1706 1.327 . S
C1707 C1711 1.429 1_556 S
C1708 C1691 1.574 . S
C1708 H1702 0.949 . S
C1708 C1712 1.368 . S
C1709 C1690 1.429 . S
C1709 C1703 1.429 1_556 S
C1709 C1710 1.523 . S
C1710 C1691 1.368 1_556 S
C1710 C1704 1.368 . S
C1710 C1709 1.523 . S
C1711 C1695 1.429 . S
C1711 C1707 1.429 1_554 S
C1711 C1712 1.523 . S
C1712 C1696 1.368 1_554 S
C1712 C1708 1.368 . S
C1712 C1711 1.523 . S
H1713 C1688 0.950 . S
H1714 C1690 0.950 . S
H1715 C1691 0.949 . S
H1716 C1693 0.950 . S
H1717 C1695 0.950 . S
C1718 C1719 1.349 . S
C1718 C1720 1.327 . S
C1718 H1743 0.950 . S
C1719 C1718 1.349 . S
C1719 C1735 1.349 . S
C1720 C1718 1.327 . S
C1720 C1739 1.429 . S
C1720 H1744 0.950 . S
C1721 C1738 1.574 1_455 S
C1721 C1740 1.368 . S
C1721 H1745 0.949 . S
H1722 C1726 0.949 . S
C1723 C1724 1.349 . S
C1723 C1725 1.327 . S
C1723 H1746 0.950 . S
C1724 C1723 1.349 . S
C1724 C1736 1.349 . S
C1725 C1723 1.327 . S
C1725 C1741 1.429 . S
C1725 H1747 0.950 . S
C1726 H1722 0.949 . S
C1726 C1734 1.574 1_655 S
C1726 C1742 1.368 . S
H1727 C1735 0.950 . S
H1728 C1733 0.950 . S
H1729 C1734 0.949 . S
H1730 C1736 0.950 . S
H1731 C1737 0.950 . S
H1732 C1738 0.949 . S
C1733 H1728 0.950 . S
C1733 C1735 1.327 . S
C1733 C1739 1.429 . S
C1734 C1726 1.574 1_455 S
C1734 H1729 0.949 . S
C1734 C1740 1.368 . S
C1735 C1719 1.349 . S
C1735 H1727 0.950 . S
C1735 C1733 1.327 . S
C1736 C1724 1.349 . S
C1736 H1730 0.950 . S
C1736 C1737 1.327 . S
C1737 H1731 0.950 . S
C1737 C1736 1.327 . S
C1737 C1741 1.429 . S
C1738 C1721 1.574 1_655 S
C1738 H1732 0.949 . S
C1738 C1742 1.368 . S
C1739 C1720 1.429 . S
C1739 C1733 1.429 . S
C1739 C1740 1.523 . S
C1740 C1721 1.368 . S
C1740 C1734 1.368 . S
C1740 C1739 1.523 . S
C1741 C1725 1.429 . S
C1741 C1737 1.429 . S
C1741 C1742 1.523 . S
C1742 C1726 1.368 . S
C1742 C1738 1.368 . S
C1742 C1741 1.523 . S
H1743 C1718 0.950 . S
H1744 C1720 0.950 . S
H1745 C1721 0.949 . S
H1746 C1723 0.950 . S
H1747 C1725 0.950 . S
C1748 C1749 1.349 . S
C1748 C1750 1.327 . S
C1748 H1773 0.950 . S
C1749 C1748 1.349 . S
C1749 C1765 1.349 . S
C1750 C1748 1.327 . S
C1750 C1769 1.429 . S
C1750 H1774 0.950 . S
C1751 C1768 1.574 . S
C1751 C1770 1.368 . S
C1751 H1775 0.949 . S
H1752 C1756 0.949 . S
C1753 C1754 1.349 . S
C1753 C1755 1.327 . S
C1753 H1776 0.950 . S
C1754 C1753 1.349 . S
C1754 C1766 1.349 . S
C1755 C1753 1.327 . S
C1755 C1771 1.429 . S
C1755 H1777 0.950 . S
C1756 H1752 0.949 . S
C1756 C1764 1.574 . S
C1756 C1772 1.368 . S
H1757 C1765 0.950 . S
H1758 C1763 0.950 . S
H1759 C1764 0.949 . S
H1760 C1766 0.950 . S
H1761 C1767 0.950 . S
H1762 C1768 0.949 . S
C1763 H1758 0.950 . S
C1763 C1765 1.327 . S
C1763 C1769 1.429 . S
C1764 C1756 1.574 . S
C1764 H1759 0.949 . S
C1764 C1770 1.368 . S
C1765 C1749 1.349 . S
C1765 H1757 0.950 . S
C1765 C1763 1.327 . S
C1766 C1754 1.349 . S
C1766 H1760 0.950 . S
C1766 C1767 1.327 . S
C1767 H1761 0.950 . S
C1767 C1766 1.327 . S
C1767 C1771 1.429 . S
C1768 C1751 1.574 . S
C1768 H1762 0.949 . S
C1768 C1772 1.368 . S
C1769 C1750 1.429 . S
C1769 C1763 1.429 . S
C1769 C1770 1.523 . S
C1770 C1751 1.368 . S
C1770 C1764 1.368 . S
C1770 C1769 1.523 . S
C1771 C1755 1.429 . S
C1771 C1767 1.429 . S
C1771 C1772 1.523 . S
C1772 C1756 1.368 . S
C1772 C1768 1.368 . S
C1772 C1771 1.523 . S
H1773 C1748 0.950 . S
H1774 C1750 0.950 . S
H1775 C1751 0.949 . S
H1776 C1753 0.950 . S
H1777 C1755 0.950 . S
C1778 C1779 1.349 . S
C1778 C1780 1.327 . S
C1778 H1803 0.950 . S
C1779 C1778 1.349 . S
C1779 C1795 1.334 1_565 S
C1780 C1778 1.327 . S
C1780 C1799 1.429 . S
C1780 H1804 0.950 . S
C1781 C1798 1.574 1_455 S
C1781 C1800 1.368 1_545 S
C1781 H1805 0.949 . S
H1782 C1786 0.949 . S
C1783 C1784 1.349 . S
C1783 C1785 1.327 . S
C1783 H1806 0.950 . S
C1784 C1783 1.349 . S
C1784 C1796 1.334 1_545 S
C1785 C1783 1.327 . S
C1785 C1801 1.429 . S
C1785 H1807 0.950 . S
C1786 H1782 0.949 . S
C1786 C1794 1.574 1_655 S
C1786 C1802 1.368 1_565 S
H1787 C1795 0.961 . S
H1788 C1793 0.950 . S
H1789 C1794 0.949 . S
H1790 C1796 0.961 . S
H1791 C1797 0.950 . S
H1792 C1798 0.949 . S
C1793 H1788 0.950 . S
C1793 C1795 1.331 . S
C1793 C1799 1.429 1_545 S
C1794 C1786 1.574 1_455 S
C1794 H1789 0.949 . S
C1794 C1800 1.368 . S
C1795 C1779 1.334 1_545 S
C1795 H1787 0.961 . S
C1795 C1793 1.331 . S
C1796 C1784 1.334 1_565 S
C1796 H1790 0.961 . S
C1796 C1797 1.331 . S
C1797 H1791 0.950 . S
C1797 C1796 1.331 . S
C1797 C1801 1.429 1_565 S
C1798 C1781 1.574 1_655 S
C1798 H1792 0.949 . S
C1798 C1802 1.368 . S
C1799 C1780 1.429 . S
C1799 C1793 1.429 1_565 S
C1799 C1800 1.523 . S
C1800 C1781 1.368 1_565 S
C1800 C1794 1.368 . S
C1800 C1799 1.523 . S
C1801 C1785 1.429 . S
C1801 C1797 1.429 1_545 S
C1801 C1802 1.523 . S
C1802 C1786 1.368 1_545 S
C1802 C1798 1.368 . S
C1802 C1801 1.523 . S
H1803 C1778 0.950 . S
H1804 C1780 0.950 . S
H1805 C1781 0.949 . S
H1806 C1783 0.950 . S
H1807 C1785 0.950 . S
C1808 C1809 1.349 . S
C1808 C1810 1.327 . S
C1808 H1833 0.950 . S
C1809 C1808 1.349 . S
C1809 C1825 1.349 . S
C1810 C1808 1.327 . S
C1810 C1829 1.429 . S
C1810 H1834 0.950 . S
C1811 C1828 1.574 . S
C1811 C1830 1.368 . S
C1811 H1835 0.949 . S
H1812 C1816 0.949 . S
C1813 C1814 1.349 . S
C1813 C1815 1.327 . S
C1813 H1836 0.950 . S
C1814 C1813 1.349 . S
C1814 C1826 1.349 . S
C1815 C1813 1.327 . S
C1815 C1831 1.429 . S
C1815 H1837 0.950 . S
C1816 H1812 0.949 . S
C1816 C1824 1.574 . S
C1816 C1832 1.368 . S
H1817 C1825 0.950 . S
H1818 C1823 0.950 . S
H1819 C1824 0.949 . S
H1820 C1826 0.950 . S
H1821 C1827 0.950 . S
H1822 C1828 0.949 . S
C1823 H1818 0.950 . S
C1823 C1825 1.327 . S
C1823 C1829 1.429 . S
C1824 C1816 1.574 . S
C1824 H1819 0.949 . S
C1824 C1830 1.368 . S
C1825 C1809 1.349 . S
C1825 H1817 0.950 . S
C1825 C1823 1.327 . S
C1826 C1814 1.349 . S
C1826 H1820 0.950 . S
C1826 C1827 1.327 . S
C1827 H1821 0.950 . S
C1827 C1826 1.327 . S
C1827 C1831 1.429 . S
C1828 C1811 1.574 . S
C1828 H1822 0.949 . S
C1828 C1832 1.368 . S
C1829 C1810 1.429 . S
C1829 C1823 1.429 . S
C1829 C1830 1.523 . S
C1830 C1811 1.368 . S
C1830 C1824 1.368 . S
C1830 C1829 1.523 . S
C1831 C1815 1.429 . S
C1831 C1827 1.429 . S
C1831 C1832 1.523 . S
C1832 C1816 1.368 . S
C1832 C1828 1.368 . S
C1832 C1831 1.523 . S
H1833 C1808 0.950 . S
H1834 C1810 0.950 . S
H1835 C1811 0.949 . S
H1836 C1813 0.950 . S
H1837 C1815 0.950 . S
C1838 C1839 1.349 . S
C1838 C1840 1.327 . S
C1838 H1863 0.950 . S
C1839 C1838 1.349 . S
C1839 C1855 1.349 . S
C1840 C1838 1.327 . S
C1840 C1859 1.429 . S
C1840 H1864 0.950 . S
C1841 C1858 1.574 . S
C1841 C1860 1.368 1_565 S
C1841 H1865 0.949 . S
H1842 C1846 0.949 . S
C1843 C1844 1.349 . S
C1843 C1845 1.327 . S
C1843 H1866 0.950 . S
C1844 C1843 1.349 . S
C1844 C1856 1.349 . S
C1845 C1843 1.327 . S
C1845 C1861 1.429 . S
C1845 H1867 0.950 . S
C1846 H1842 0.949 . S
C1846 C1854 1.574 . S
C1846 C1862 1.368 1_545 S
H1847 C1855 0.950 . S
H1848 C1853 0.950 1_565 S
H1849 C1854 0.949 . S
H1850 C1856 0.950 . S
H1851 C1857 0.950 1_545 S
H1852 C1858 0.949 . S
C1853 H1848 0.950 1_545 S
C1853 C1855 1.327 . S
C1853 C1859 1.429 . S
C1854 C1846 1.574 . S
C1854 H1849 0.949 . S
C1854 C1860 1.368 . S
C1855 C1839 1.349 . S
C1855 H1847 0.950 . S
C1855 C1853 1.327 . S
C1856 C1844 1.349 . S
C1856 H1850 0.950 . S
C1856 C1857 1.327 . S
C1857 H1851 0.950 1_565 S
C1857 C1856 1.327 . S
C1857 C1861 1.429 . S
C1858 C1841 1.574 . S
C1858 H1852 0.949 . S
C1858 C1862 1.368 . S
C1859 C1840 1.429 . S
C1859 C1853 1.429 . S
C1859 C1860 1.523 . S
C1860 C1841 1.368 1_545 S
C1860 C1854 1.368 . S
C1860 C1859 1.523 . S
C1861 C1845 1.429 . S
C1861 C1857 1.429 . S
C1861 C1862 1.523 . S
C1862 C1846 1.368 1_565 S
C1862 C1858 1.368 . S
C1862 C1861 1.523 . S
H1863 C1838 0.950 . S
H1864 C1840 0.950 . S
H1865 C1841 0.949 . S
H1866 C1843 0.950 . S
H1867 C1845 0.950 . S
C1868 C1869 1.349 . S
C1868 C1870 1.327 . S
C1868 H1893 0.950 . S
C1869 C1868 1.349 . S
C1869 C1885 1.349 . S
C1870 C1868 1.327 . S
C1870 C1889 1.429 . S
C1870 H1894 0.950 . S
C1871 C1888 1.574 . S
C1871 C1890 1.368 . S
C1871 H1895 0.949 . S
H1872 C1876 0.949 . S
C1873 C1874 1.349 . S
C1873 C1875 1.327 . S
C1873 H1896 0.950 . S
C1874 C1873 1.349 . S
C1874 C1886 1.349 . S
C1875 C1873 1.327 . S
C1875 C1891 1.429 . S
C1875 H1897 0.950 . S
C1876 H1872 0.949 . S
C1876 C1884 1.574 . S
C1876 C1892 1.368 . S
H1877 C1885 0.950 . S
H1878 C1883 0.950 . S
H1879 C1884 0.949 . S
H1880 C1886 0.950 . S
H1881 C1887 0.950 . S
H1882 C1888 0.949 . S
C1883 H1878 0.950 . S
C1883 C1885 1.327 . S
C1883 C1889 1.429 . S
C1884 C1876 1.574 . S
C1884 H1879 0.949 . S
C1884 C1890 1.368 . S
C1885 C1869 1.349 . S
C1885 H1877 0.950 . S
C1885 C1883 1.327 . S
C1886 C1874 1.349 . S
C1886 H1880 0.950 . S
C1886 C1887 1.327 . S
C1887 H1881 0.950 . S
C1887 C1886 1.327 . S
C1887 C1891 1.429 . S
C1888 C1871 1.574 . S
C1888 H1882 0.949 . S
C1888 C1892 1.368 . S
C1889 C1870 1.429 . S
C1889 C1883 1.429 . S
C1889 C1890 1.523 . S
C1890 C1871 1.368 . S
C1890 C1884 1.368 . S
C1890 C1889 1.523 . S
C1891 C1875 1.429 . S
C1891 C1887 1.429 . S
C1891 C1892 1.523 . S
C1892 C1876 1.368 . S
C1892 C1888 1.368 . S
C1892 C1891 1.523 . S
H1893 C1868 0.950 . S
H1894 C1870 0.950 . S
H1895 C1871 0.949 . S
H1896 C1873 0.950 . S
H1897 C1875 0.950 . S
C1898 C1899 1.349 . S
C1898 C1900 1.327 . S
C1898 H1923 0.950 . S
C1899 C1898 1.349 . S
C1899 C1915 1.349 . S
C1900 C1898 1.327 . S
C1900 C1919 1.429 . S
C1900 H1924 0.950 . S
C1901 C1918 1.574 . S
C1901 C1920 1.368 1_565 S
C1901 H1925 0.949 . S
H1902 C1906 0.949 . S
C1903 C1904 1.349 . S
C1903 C1905 1.327 . S
C1903 H1926 0.950 . S
C1904 C1903 1.349 . S
C1904 C1916 1.349 . S
C1905 C1903 1.327 . S
C1905 C1921 1.429 . S
C1905 H1927 0.950 . S
C1906 H1902 0.949 . S
C1906 C1914 1.574 . S
C1906 C1922 1.368 1_545 S
H1907 C1915 0.950 . S
H1908 C1913 0.950 1_565 S
H1909 C1914 0.949 . S
H1910 C1916 0.950 . S
H1911 C1917 0.950 1_545 S
H1912 C1918 0.949 . S
C1913 H1908 0.950 1_545 S
C1913 C1915 1.327 . S
C1913 C1919 1.429 . S
C1914 C1906 1.574 . S
C1914 H1909 0.949 . S
C1914 C1920 1.368 . S
C1915 C1899 1.349 . S
C1915 H1907 0.950 . S
C1915 C1913 1.327 . S
C1916 C1904 1.349 . S
C1916 H1910 0.950 . S
C1916 C1917 1.327 . S
C1917 H1911 0.950 1_565 S
C1917 C1916 1.327 . S
C1917 C1921 1.429 . S
C1918 C1901 1.574 . S
C1918 H1912 0.949 . S
C1918 C1922 1.368 . S
C1919 C1900 1.429 . S
C1919 C1913 1.429 . S
C1919 C1920 1.523 . S
C1920 C1901 1.368 1_545 S
C1920 C1914 1.368 . S
C1920 C1919 1.523 . S
C1921 C1905 1.429 . S
C1921 C1917 1.429 . S
C1921 C1922 1.523 . S
C1922 C1906 1.368 1_565 S
C1922 C1918 1.368 . S
C1922 C1921 1.523 . S
H1923 C1898 0.950 . S
H1924 C1900 0.950 . S
H1925 C1901 0.949 . S
H1926 C1903 0.950 . S
H1927 C1905 0.950 . S
C1928 C1929 1.349 . S
C1928 C1930 1.327 . S
C1928 H1953 0.950 . S
C1929 C1928 1.349 . S
C1929 C1945 1.349 . S
C1930 C1928 1.327 . S
C1930 C1949 1.429 . S
C1930 H1954 0.950 . S
C1931 C1948 1.574 . S
C1931 C1950 1.368 . S
C1931 H1955 0.949 . S
H1932 C1936 0.949 . S
C1933 C1934 1.349 . S
C1933 C1935 1.327 . S
C1933 H1956 0.950 . S
C1934 C1933 1.349 . S
C1934 C1946 1.349 . S
C1935 C1933 1.327 . S
C1935 C1951 1.429 . S
C1935 H1957 0.950 . S
C1936 H1932 0.949 . S
C1936 C1944 1.574 . S
C1936 C1952 1.368 . S
H1937 C1945 0.950 . S
H1938 C1943 0.950 . S
H1939 C1944 0.949 . S
H1940 C1946 0.950 . S
H1941 C1947 0.950 . S
H1942 C1948 0.949 . S
C1943 H1938 0.950 . S
C1943 C1945 1.327 . S
C1943 C1949 1.429 . S
C1944 C1936 1.574 . S
C1944 H1939 0.949 . S
C1944 C1950 1.368 . S
C1945 C1929 1.349 . S
C1945 H1937 0.950 . S
C1945 C1943 1.327 . S
C1946 C1934 1.349 . S
C1946 H1940 0.950 . S
C1946 C1947 1.327 . S
C1947 H1941 0.950 . S
C1947 C1946 1.327 . S
C1947 C1951 1.429 . S
C1948 C1931 1.574 . S
C1948 H1942 0.949 . S
C1948 C1952 1.368 . S
C1949 C1930 1.429 . S
C1949 C1943 1.429 . S
C1949 C1950 1.523 . S
C1950 C1931 1.368 . S
C1950 C1944 1.368 . S
C1950 C1949 1.523 . S
C1951 C1935 1.429 . S
C1951 C1947 1.429 . S
C1951 C1952 1.523 . S
C1952 C1936 1.368 . S
C1952 C1948 1.368 . S
C1952 C1951 1.523 . S
H1953 C1928 0.950 . S
H1954 C1930 0.950 . S
H1955 C1931 0.949 . S
H1956 C1933 0.950 . S
H1957 C1935 0.950 . S
C1958 C1959 1.349 . S
C1958 C1960 1.327 . S
C1958 H1983 0.950 . S
C1959 C1958 1.349 . S
C1959 C1975 1.349 . S
C1960 C1958 1.327 . S
C1960 C1979 1.429 . S
C1960 H1984 0.950 . S
C1961 C1978 1.574 . S
C1961 C1980 1.368 . S
C1961 H1985 0.949 . S
H1962 C1966 0.949 . S
C1963 C1964 1.349 . S
C1963 C1965 1.327 . S
C1963 H1986 0.950 . S
C1964 C1963 1.349 . S
C1964 C1976 1.349 . S
C1965 C1963 1.327 . S
C1965 C1981 1.429 . S
C1965 H1987 0.950 . S
C1966 H1962 0.949 . S
C1966 C1974 1.574 . S
C1966 C1982 1.368 . S
H1967 C1975 0.950 . S
H1968 C1973 0.950 . S
H1969 C1974 0.949 . S
H1970 C1976 0.950 . S
H1971 C1977 0.950 . S
H1972 C1978 0.949 . S
C1973 H1968 0.950 . S
C1973 C1975 1.327 . S
C1973 C1979 1.429 . S
C1974 C1966 1.574 . S
C1974 H1969 0.949 . S
C1974 C1980 1.368 . S
C1975 C1959 1.349 . S
C1975 H1967 0.950 . S
C1975 C1973 1.327 . S
C1976 C1964 1.349 . S
C1976 H1970 0.950 . S
C1976 C1977 1.327 . S
C1977 H1971 0.950 . S
C1977 C1976 1.327 . S
C1977 C1981 1.429 . S
C1978 C1961 1.574 . S
C1978 H1972 0.949 . S
C1978 C1982 1.368 . S
C1979 C1960 1.429 . S
C1979 C1973 1.429 . S
C1979 C1980 1.523 . S
C1980 C1961 1.368 . S
C1980 C1974 1.368 . S
C1980 C1979 1.523 . S
C1981 C1965 1.429 . S
C1981 C1977 1.429 . S
C1981 C1982 1.523 . S
C1982 C1966 1.368 . S
C1982 C1978 1.368 . S
C1982 C1981 1.523 . S
H1983 C1958 0.950 . S
H1984 C1960 0.950 . S
H1985 C1961 0.949 . S
H1986 C1963 0.950 . S
H1987 C1965 0.950 . S
C1988 C1989 1.349 . S
C1988 C1990 1.327 . S
C1988 H2013 0.950 . S
C1989 C1988 1.349 . S
C1989 C2005 1.349 . S
C1990 C1988 1.327 . S
C1990 C2009 1.429 . S
C1990 H2014 0.950 . S
C1991 C2008 1.574 . S
C1991 C2010 1.368 . S
C1991 H2015 0.949 . S
H1992 C1996 0.949 . S
C1993 C1994 1.349 . S
C1993 C1995 1.327 . S
C1993 H2016 0.950 . S
C1994 C1993 1.349 . S
C1994 C2006 1.349 . S
C1995 C1993 1.327 . S
C1995 C2011 1.429 . S
C1995 H2017 0.950 . S
C1996 H1992 0.949 . S
C1996 C2004 1.574 . S
C1996 C2012 1.368 . S
H1997 C2005 0.950 . S
H1998 C2003 0.950 . S
H1999 C2004 0.949 . S
H2000 C2006 0.950 . S
H2001 C2007 0.950 . S
H2002 C2008 0.949 . S
C2003 H1998 0.950 . S
C2003 C2005 1.327 . S
C2003 C2009 1.429 . S
C2004 C1996 1.574 . S
C2004 H1999 0.949 . S
C2004 C2010 1.368 . S
C2005 C1989 1.349 . S
C2005 H1997 0.950 . S
C2005 C2003 1.327 . S
C2006 C1994 1.349 . S
C2006 H2000 0.950 . S
C2006 C2007 1.327 . S
C2007 H2001 0.950 . S
C2007 C2006 1.327 . S
C2007 C2011 1.429 . S
C2008 C1991 1.574 . S
C2008 H2002 0.949 . S
C2008 C2012 1.368 . S
C2009 C1990 1.429 . S
C2009 C2003 1.429 . S
C2009 C2010 1.523 . S
C2010 C1991 1.368 . S
C2010 C2004 1.368 . S
C2010 C2009 1.523 . S
C2011 C1995 1.429 . S
C2011 C2007 1.429 . S
C2011 C2012 1.523 . S
C2012 C1996 1.368 . S
C2012 C2008 1.368 . S
C2012 C2011 1.523 . S
H2013 C1988 0.950 . S
H2014 C1990 0.950 . S
H2015 C1991 0.949 . S
H2016 C1993 0.950 . S
H2017 C1995 0.950 . S
C2018 C2019 1.349 . S
C2018 C2020 1.327 . S
C2018 H2043 0.950 . S
C2019 C2018 1.349 . S
C2019 C2035 1.349 1_556 S
C2020 C2018 1.327 . S
C2020 C2039 1.429 . S
C2020 H2044 0.950 . S
C2021 C2038 1.574 . S
C2021 C2040 1.368 1_554 S
C2021 H2045 0.949 . S
H2022 C2026 0.949 . S
C2023 C2024 1.349 . S
C2023 C2025 1.327 . S
C2023 H2046 0.950 . S
C2024 C2023 1.349 . S
C2024 C2036 1.349 1_554 S
C2025 C2023 1.327 . S
C2025 C2041 1.429 . S
C2025 H2047 0.950 . S
C2026 H2022 0.949 . S
C2026 C2034 1.574 . S
C2026 C2042 1.368 1_556 S
H2027 C2035 0.950 . S
H2028 C2033 0.950 . S
H2029 C2034 0.949 . S
H2030 C2036 0.950 . S
H2031 C2037 0.950 . S
H2032 C2038 0.949 . S
C2033 H2028 0.950 . S
C2033 C2035 1.327 . S
C2033 C2039 1.429 1_554 S
C2034 C2026 1.574 . S
C2034 H2029 0.949 . S
C2034 C2040 1.368 1_565 S
C2035 C2019 1.349 1_554 S
C2035 H2027 0.950 . S
C2035 C2033 1.327 . S
C2036 C2024 1.349 1_556 S
C2036 H2030 0.950 . S
C2036 C2037 1.327 . S
C2037 H2031 0.950 . S
C2037 C2036 1.327 . S
C2037 C2041 1.429 1_556 S
C2038 C2021 1.574 . S
C2038 H2032 0.949 . S
C2038 C2042 1.368 1_545 S
C2039 C2020 1.429 . S
C2039 C2033 1.429 1_556 S
C2039 C2040 1.523 . S
C2040 C2021 1.368 1_556 S
C2040 C2034 1.368 1_545 S
C2040 C2039 1.523 . S
C2041 C2025 1.429 . S
C2041 C2037 1.429 1_554 S
C2041 C2042 1.523 . S
C2042 C2026 1.368 1_554 S
C2042 C2038 1.368 1_565 S
C2042 C2041 1.523 . S
H2043 C2018 0.950 . S
H2044 C2020 0.950 . S
H2045 C2021 0.949 . S
H2046 C2023 0.950 . S
H2047 C2025 0.950 . S
C2048 C2049 1.349 . S
C2048 C2050 1.327 . S
C2048 H2073 0.950 . S
C2049 C2048 1.349 . S
C2049 C2065 1.349 . S
C2050 C2048 1.327 . S
C2050 C2069 1.429 . S
C2050 H2074 0.950 . S
C2051 C2068 1.574 . S
C2051 C2070 1.368 . S
C2051 H2075 0.949 . S
H2052 C2056 0.949 . S
C2053 C2054 1.349 . S
C2053 C2055 1.327 . S
C2053 H2076 0.950 . S
C2054 C2053 1.349 . S
C2054 C2066 1.349 . S
C2055 C2053 1.327 . S
C2055 C2071 1.429 . S
C2055 H2077 0.950 . S
C2056 H2052 0.949 . S
C2056 C2064 1.574 . S
C2056 C2072 1.368 . S
H2057 C2065 0.950 . S
H2058 C2063 0.950 . S
H2059 C2064 0.949 . S
H2060 C2066 0.950 . S
H2061 C2067 0.950 . S
H2062 C2068 0.949 . S
C2063 H2058 0.950 . S
C2063 C2065 1.327 . S
C2063 C2069 1.429 . S
C2064 C2056 1.574 . S
C2064 H2059 0.949 . S
C2064 C2070 1.368 . S
C2065 C2049 1.349 . S
C2065 H2057 0.950 . S
C2065 C2063 1.327 . S
C2066 C2054 1.349 . S
C2066 H2060 0.950 . S
C2066 C2067 1.327 . S
C2067 H2061 0.950 . S
C2067 C2066 1.327 . S
C2067 C2071 1.429 . S
C2068 C2051 1.574 . S
C2068 H2062 0.949 . S
C2068 C2072 1.368 . S
C2069 C2050 1.429 . S
C2069 C2063 1.429 . S
C2069 C2070 1.523 . S
C2070 C2051 1.368 . S
C2070 C2064 1.368 . S
C2070 C2069 1.523 . S
C2071 C2055 1.429 . S
C2071 C2067 1.429 . S
C2071 C2072 1.523 . S
C2072 C2056 1.368 . S
C2072 C2068 1.368 . S
C2072 C2071 1.523 . S
H2073 C2048 0.950 . S
H2074 C2050 0.950 . S
H2075 C2051 0.949 . S
H2076 C2053 0.950 . S
H2077 C2055 0.950 . S
C2078 C2079 1.349 . S
C2078 C2080 1.327 . S
C2078 H2103 0.950 . S
C2079 C2078 1.349 . S
C2079 C2095 1.349 . S
C2080 C2078 1.327 . S
C2080 C2099 1.429 . S
C2080 H2104 0.950 . S
C2081 C2098 1.574 . S
C2081 C2100 1.368 . S
C2081 H2105 0.949 . S
H2082 C2086 0.949 . S
C2083 C2084 1.349 . S
C2083 C2085 1.327 . S
C2083 H2106 0.950 . S
C2084 C2083 1.349 . S
C2084 C2096 1.349 . S
C2085 C2083 1.327 . S
C2085 C2101 1.429 . S
C2085 H2107 0.950 . S
C2086 H2082 0.949 . S
C2086 C2094 1.574 . S
C2086 C2102 1.368 . S
H2087 C2095 0.950 . S
H2088 C2093 0.950 . S
H2089 C2094 0.949 . S
H2090 C2096 0.950 . S
H2091 C2097 0.950 . S
H2092 C2098 0.949 . S
C2093 H2088 0.950 . S
C2093 C2095 1.327 . S
C2093 C2099 1.429 . S
C2094 C2086 1.574 . S
C2094 H2089 0.949 . S
C2094 C2100 1.368 . S
C2095 C2079 1.349 . S
C2095 H2087 0.950 . S
C2095 C2093 1.327 . S
C2096 C2084 1.349 . S
C2096 H2090 0.950 . S
C2096 C2097 1.327 . S
C2097 H2091 0.950 . S
C2097 C2096 1.327 . S
C2097 C2101 1.429 . S
C2098 C2081 1.574 . S
C2098 H2092 0.949 . S
C2098 C2102 1.368 . S
C2099 C2080 1.429 . S
C2099 C2093 1.429 . S
C2099 C2100 1.523 . S
C2100 C2081 1.368 . S
C2100 C2094 1.368 . S
C2100 C2099 1.523 . S
C2101 C2085 1.429 . S
C2101 C2097 1.429 . S
C2101 C2102 1.523 . S
C2102 C2086 1.368 . S
C2102 C2098 1.368 . S
C2102 C2101 1.523 . S
H2103 C2078 0.950 . S
H2104 C2080 0.950 . S
H2105 C2081 0.949 . S
H2106 C2083 0.950 . S
H2107 C2085 0.950 . S
C2108 C2109 1.349 1_556 S
C2108 C2110 1.327 . S
C2108 H2133 0.950 . S
C2109 C2108 1.349 1_554 S
C2109 C2125 1.349 . S
C2110 C2108 1.327 . S
C2110 C2129 1.429 . S
C2110 H2134 0.950 . S
C2111 C2128 1.574 . S
C2111 C2130 1.368 . S
C2111 H2135 0.949 . S
H2112 C2116 0.949 . S
C2113 C2114 1.349 . S
C2113 C2115 1.327 . S
C2113 H2136 0.950 . S
C2114 C2113 1.349 . S
C2114 C2126 1.349 . S
C2115 C2113 1.327 . S
C2115 C2131 1.429 . S
C2115 H2137 0.950 . S
C2116 H2112 0.949 . S
C2116 C2124 1.574 . S
C2116 C2132 1.368 . S
H2117 C2125 0.950 . S
H2118 C2123 0.950 . S
H2119 C2124 0.949 . S
H2120 C2126 0.950 . S
H2121 C2127 0.950 . S
H2122 C2128 0.949 . S
C2123 H2118 0.950 . S
C2123 C2125 1.327 1_556 S
C2123 C2129 1.429 . S
C2124 C2116 1.574 . S
C2124 H2119 0.949 . S
C2124 C2130 1.368 . S
C2125 C2109 1.349 . S
C2125 H2117 0.950 . S
C2125 C2123 1.327 1_554 S
C2126 C2114 1.349 . S
C2126 H2120 0.950 . S
C2126 C2127 1.327 . S
C2127 H2121 0.950 . S
C2127 C2126 1.327 . S
C2127 C2131 1.429 . S
C2128 C2111 1.574 . S
C2128 H2122 0.949 . S
C2128 C2132 1.368 . S
C2129 C2110 1.429 . S
C2129 C2123 1.429 . S
C2129 C2130 1.523 . S
C2130 C2111 1.368 . S
C2130 C2124 1.368 . S
C2130 C2129 1.523 . S
C2131 C2115 1.429 . S
C2131 C2127 1.429 . S
C2131 C2132 1.523 . S
C2132 C2116 1.368 . S
C2132 C2128 1.368 . S
C2132 C2131 1.523 . S
H2133 C2108 0.950 . S
H2134 C2110 0.950 . S
H2135 C2111 0.949 . S
H2136 C2113 0.950 . S
H2137 C2115 0.950 . S
C2138 C2139 1.349 . S
C2138 C2140 1.327 . S
C2138 H2163 0.950 . S
C2139 C2138 1.349 . S
C2139 C2155 1.349 . S
C2140 C2138 1.327 . S
C2140 C2159 1.429 . S
C2140 H2164 0.950 . S
C2141 C2158 1.574 . S
C2141 C2160 1.368 . S
C2141 H2165 0.949 . S
H2142 C2146 0.949 . S
C2143 C2144 1.349 1_556 S
C2143 C2145 1.327 . S
C2143 H2166 0.950 . S
C2144 C2143 1.349 1_554 S
C2144 C2156 1.349 . S
C2145 C2143 1.327 . S
C2145 C2161 1.429 . S
C2145 H2167 0.950 . S
C2146 H2142 0.949 . S
C2146 C2154 1.574 . S
C2146 C2162 1.368 . S
H2147 C2155 0.950 . S
H2148 C2153 0.950 . S
H2149 C2154 0.949 . S
H2150 C2156 0.950 . S
H2151 C2157 0.954 . S
H2152 C2158 0.949 . S
C2153 H2148 0.950 . S
C2153 C2155 1.327 . S
C2153 C2159 1.429 . S
C2154 C2146 1.574 . S
C2154 H2149 0.949 . S
C2154 C2160 1.368 . S
C2155 C2139 1.349 . S
C2155 H2147 0.950 . S
C2155 C2153 1.327 . S
C2156 C2144 1.349 . S
C2156 H2150 0.950 . S
C2156 C2157 1.327 1_554 S
C2157 H2151 0.954 . S
C2157 C2156 1.327 1_556 S
C2157 C2161 1.429 . S
C2158 C2141 1.574 . S
C2158 H2152 0.949 . S
C2158 C2162 1.368 . S
C2159 C2140 1.429 . S
C2159 C2153 1.429 . S
C2159 C2160 1.523 . S
C2160 C2141 1.368 . S
C2160 C2154 1.368 . S
C2160 C2159 1.523 . S
C2161 C2145 1.429 . S
C2161 C2157 1.429 . S
C2161 C2162 1.523 . S
C2162 C2146 1.368 . S
C2162 C2158 1.368 . S
C2162 C2161 1.523 . S
H2163 C2138 0.950 . S
H2164 C2140 0.950 . S
H2165 C2141 0.949 . S
H2166 C2143 0.950 . S
H2167 C2145 0.950 . S
C2168 C2169 1.349 . S
C2168 C2170 1.327 . S
C2168 H2193 0.950 . S
C2169 C2168 1.349 . S
C2169 C2185 1.349 . S
C2170 C2168 1.327 . S
C2170 C2189 1.429 . S
C2170 H2194 0.950 . S
C2171 C2188 1.574 . S
C2171 C2190 1.368 . S
C2171 H2195 0.949 . S
H2172 C2176 0.949 . S
C2173 C2174 1.349 . S
C2173 C2175 1.327 . S
C2173 H2196 0.950 . S
C2174 C2173 1.349 . S
C2174 C2186 1.349 . S
C2175 C2173 1.327 . S
C2175 C2191 1.429 . S
C2175 H2197 0.950 . S
C2176 H2172 0.949 . S
C2176 C2184 1.574 . S
C2176 C2192 1.368 . S
H2177 C2185 0.950 . S
H2178 C2183 0.950 . S
H2179 C2184 0.949 . S
H2180 C2186 0.950 . S
H2181 C2187 0.950 . S
H2182 C2188 0.949 . S
C2183 H2178 0.950 . S
C2183 C2185 1.327 . S
C2183 C2189 1.429 . S
C2184 C2176 1.574 . S
C2184 H2179 0.949 . S
C2184 C2190 1.368 . S
C2185 C2169 1.349 . S
C2185 H2177 0.950 . S
C2185 C2183 1.327 . S
C2186 C2174 1.349 . S
C2186 H2180 0.950 . S
C2186 C2187 1.327 . S
C2187 H2181 0.950 . S
C2187 C2186 1.327 . S
C2187 C2191 1.429 . S
C2188 C2171 1.574 . S
C2188 H2182 0.949 . S
C2188 C2192 1.368 . S
C2189 C2170 1.429 . S
C2189 C2183 1.429 . S
C2189 C2190 1.523 . S
C2190 C2171 1.368 . S
C2190 C2184 1.368 . S
C2190 C2189 1.523 . S
C2191 C2175 1.429 . S
C2191 C2187 1.429 . S
C2191 C2192 1.523 . S
C2192 C2176 1.368 . S
C2192 C2188 1.368 . S
C2192 C2191 1.523 . S
H2193 C2168 0.950 . S
H2194 C2170 0.950 . S
H2195 C2171 0.949 . S
H2196 C2173 0.950 . S
H2197 C2175 0.950 . S
C2198 C2199 1.349 . S
C2198 C2200 1.327 . S
C2198 H2223 0.950 . S
C2199 C2198 1.349 . S
C2199 C2215 1.349 . S
C2200 C2198 1.327 . S
C2200 C2219 1.429 . S
C2200 H2224 0.950 . S
C2201 C2218 1.574 . S
C2201 C2220 1.368 . S
C2201 H2225 0.949 . S
H2202 C2206 0.949 . S
C2203 C2204 1.349 . S
C2203 C2205 1.327 . S
C2203 H2226 0.950 . S
C2204 C2203 1.349 . S
C2204 C2216 1.349 . S
C2205 C2203 1.327 . S
C2205 C2221 1.429 . S
C2205 H2227 0.950 . S
C2206 H2202 0.949 . S
C2206 C2214 1.574 . S
C2206 C2222 1.368 . S
H2207 C2215 0.950 . S
H2208 C2213 0.950 . S
H2209 C2214 0.949 . S
H2210 C2216 0.950 . S
H2211 C2217 0.950 . S
H2212 C2218 0.949 . S
C2213 H2208 0.950 . S
C2213 C2215 1.327 . S
C2213 C2219 1.429 . S
C2214 C2206 1.574 . S
C2214 H2209 0.949 . S
C2214 C2220 1.368 . S
C2215 C2199 1.349 . S
C2215 H2207 0.950 . S
C2215 C2213 1.327 . S
C2216 C2204 1.349 . S
C2216 H2210 0.950 . S
C2216 C2217 1.327 . S
C2217 H2211 0.950 . S
C2217 C2216 1.327 . S
C2217 C2221 1.429 . S
C2218 C2201 1.574 . S
C2218 H2212 0.949 . S
C2218 C2222 1.368 . S
C2219 C2200 1.429 . S
C2219 C2213 1.429 . S
C2219 C2220 1.523 . S
C2220 C2201 1.368 . S
C2220 C2214 1.368 . S
C2220 C2219 1.523 . S
C2221 C2205 1.429 . S
C2221 C2217 1.429 . S
C2221 C2222 1.523 . S
C2222 C2206 1.368 . S
C2222 C2218 1.368 . S
C2222 C2221 1.523 . S
H2223 C2198 0.950 . S
H2224 C2200 0.950 . S
H2225 C2201 0.949 . S
H2226 C2203 0.950 . S
H2227 C2205 0.950 . S
C2228 C2229 1.349 . S
C2228 C2230 1.327 1_556 S
C2228 H2253 0.950 . S
C2229 C2228 1.349 . S
C2229 C2245 1.349 1_556 S
C2230 C2228 1.327 1_554 S
C2230 C2249 1.429 . S
C2230 H2254 0.950 . S
C2231 C2248 1.574 . S
C2231 C2250 1.368 . S
C2231 H2255 0.949 . S
H2232 C2236 0.949 . S
C2233 C2234 1.349 . S
C2233 C2235 1.327 . S
C2233 H2256 0.950 . S
C2234 C2233 1.349 . S
C2234 C2246 1.349 . S
C2235 C2233 1.327 . S
C2235 C2251 1.429 . S
C2235 H2257 0.950 . S
C2236 H2232 0.949 . S
C2236 C2244 1.574 . S
C2236 C2252 1.368 . S
H2237 C2245 0.950 . S
H2238 C2243 0.950 . S
H2239 C2244 0.949 . S
H2240 C2246 0.950 . S
H2241 C2247 0.950 . S
H2242 C2248 0.949 . S
C2243 H2238 0.950 . S
C2243 C2245 1.327 . S
C2243 C2249 1.429 . S
C2244 C2236 1.574 . S
C2244 H2239 0.949 . S
C2244 C2250 1.368 . S
C2245 C2229 1.349 1_554 S
C2245 H2237 0.950 . S
C2245 C2243 1.327 . S
C2246 C2234 1.349 . S
C2246 H2240 0.950 . S
C2246 C2247 1.327 . S
C2247 H2241 0.950 . S
C2247 C2246 1.327 . S
C2247 C2251 1.429 . S
C2248 C2231 1.574 . S
C2248 H2242 0.949 . S
C2248 C2252 1.368 . S
C2249 C2230 1.429 . S
C2249 C2243 1.429 . S
C2249 C2250 1.523 . S
C2250 C2231 1.368 . S
C2250 C2244 1.368 . S
C2250 C2249 1.523 . S
C2251 C2235 1.429 . S
C2251 C2247 1.429 . S
C2251 C2252 1.523 . S
C2252 C2236 1.368 . S
C2252 C2248 1.368 . S
C2252 C2251 1.523 . S
H2253 C2228 0.950 . S
H2254 C2230 0.950 . S
H2255 C2231 0.949 . S
H2256 C2233 0.950 . S
H2257 C2235 0.950 . S
C2258 C2259 1.349 . S
C2258 C2260 1.327 . S
C2258 H2283 0.950 . S
C2259 C2258 1.349 . S
C2259 C2275 1.349 . S
C2260 C2258 1.327 . S
C2260 C2279 1.429 . S
C2260 H2284 0.950 . S
C2261 C2278 1.574 . S
C2261 C2280 1.368 . S
C2261 H2285 0.949 . S
H2262 C2266 0.949 . S
C2263 C2264 1.349 1_554 S
C2263 C2265 1.327 . S
C2263 H2286 0.950 . S
C2264 C2263 1.349 1_556 S
C2264 C2276 1.349 . S
C2265 C2263 1.327 . S
C2265 C2281 1.429 . S
C2265 H2287 0.950 . S
C2266 H2262 0.949 . S
C2266 C2274 1.574 . S
C2266 C2282 1.368 . S
H2267 C2275 0.950 . S
H2268 C2273 0.950 . S
H2269 C2274 0.949 . S
H2270 C2276 0.950 . S
H2271 C2277 0.950 . S
H2272 C2278 0.949 . S
C2273 H2268 0.950 . S
C2273 C2275 1.327 . S
C2273 C2279 1.429 . S
C2274 C2266 1.574 . S
C2274 H2269 0.949 . S
C2274 C2280 1.368 . S
C2275 C2259 1.349 . S
C2275 H2267 0.950 . S
C2275 C2273 1.327 . S
C2276 C2264 1.349 . S
C2276 H2270 0.950 . S
C2276 C2277 1.327 1_556 S
C2277 H2271 0.950 . S
C2277 C2276 1.327 1_554 S
C2277 C2281 1.429 . S
C2278 C2261 1.574 . S
C2278 H2272 0.949 . S
C2278 C2282 1.368 . S
C2279 C2260 1.429 . S
C2279 C2273 1.429 . S
C2279 C2280 1.523 . S
C2280 C2261 1.368 . S
C2280 C2274 1.368 . S
C2280 C2279 1.523 . S
C2281 C2265 1.429 . S
C2281 C2277 1.429 . S
C2281 C2282 1.523 . S
C2282 C2266 1.368 . S
C2282 C2278 1.368 . S
C2282 C2281 1.523 . S
H2283 C2258 0.950 . S
H2284 C2260 0.950 . S
H2285 C2261 0.949 . S
H2286 C2263 0.950 . S
H2287 C2265 0.950 . S
C2288 C2289 1.349 1_556 S
C2288 C2290 1.327 . S
C2288 H2313 0.950 . S
C2289 C2288 1.349 1_554 S
C2289 C2305 1.349 . S
C2290 C2288 1.327 . S
C2290 C2309 1.429 . S
C2290 H2314 0.950 . S
C2291 C2308 1.574 . S
C2291 C2310 1.368 . S
C2291 H2315 0.949 . S
H2292 C2296 0.949 . S
C2293 C2294 1.349 . S
C2293 C2295 1.327 . S
C2293 H2316 0.950 . S
C2294 C2293 1.349 . S
C2294 C2306 1.349 . S
C2295 C2293 1.327 . S
C2295 C2311 1.429 . S
C2295 H2317 0.950 . S
C2296 H2292 0.949 . S
C2296 C2304 1.574 . S
C2296 C2312 1.368 . S
H2297 C2305 0.950 . S
H2298 C2303 0.950 . S
H2299 C2304 0.949 . S
H2300 C2306 0.950 . S
H2301 C2307 0.950 . S
H2302 C2308 0.949 . S
C2303 H2298 0.950 . S
C2303 C2305 1.327 1_556 S
C2303 C2309 1.429 . S
C2304 C2296 1.574 . S
C2304 H2299 0.949 . S
C2304 C2310 1.368 . S
C2305 C2289 1.349 . S
C2305 H2297 0.950 . S
C2305 C2303 1.327 1_554 S
C2306 C2294 1.349 . S
C2306 H2300 0.950 . S
C2306 C2307 1.327 . S
C2307 H2301 0.950 . S
C2307 C2306 1.327 . S
C2307 C2311 1.429 . S
C2308 C2291 1.574 . S
C2308 H2302 0.949 . S
C2308 C2312 1.368 . S
C2309 C2290 1.429 . S
C2309 C2303 1.429 . S
C2309 C2310 1.523 . S
C2310 C2291 1.368 . S
C2310 C2304 1.368 . S
C2310 C2309 1.523 . S
C2311 C2295 1.429 . S
C2311 C2307 1.429 . S
C2311 C2312 1.523 . S
C2312 C2296 1.368 . S
C2312 C2308 1.368 . S
C2312 C2311 1.523 . S
H2313 C2288 0.950 . S
H2314 C2290 0.950 . S
H2315 C2291 0.949 . S
H2316 C2293 0.950 . S
H2317 C2295 0.950 . S
C2318 C2319 1.349 . S
C2318 C2320 1.327 . S
C2318 H2343 0.950 . S
C2319 C2318 1.349 . S
C2319 C2335 1.349 . S
C2320 C2318 1.327 . S
C2320 C2339 1.429 . S
C2320 H2344 0.950 . S
C2321 C2338 1.574 . S
C2321 C2340 1.368 . S
C2321 H2345 0.949 . S
H2322 C2326 0.949 . S
C2323 C2324 1.349 . S
C2323 C2325 1.327 1_554 S
C2323 H2346 0.950 . S
C2324 C2323 1.349 . S
C2324 C2336 1.349 1_554 S
C2325 C2323 1.327 1_556 S
C2325 C2341 1.429 . S
C2325 H2347 0.950 . S
C2326 H2322 0.949 . S
C2326 C2334 1.574 . S
C2326 C2342 1.368 . S
H2327 C2335 0.950 . S
H2328 C2333 0.950 . S
H2329 C2334 0.949 . S
H2330 C2336 0.950 . S
H2331 C2337 0.950 . S
H2332 C2338 0.949 . S
C2333 H2328 0.950 . S
C2333 C2335 1.327 . S
C2333 C2339 1.429 . S
C2334 C2326 1.574 . S
C2334 H2329 0.949 . S
C2334 C2340 1.368 . S
C2335 C2319 1.349 . S
C2335 H2327 0.950 . S
C2335 C2333 1.327 . S
C2336 C2324 1.349 1_556 S
C2336 H2330 0.950 . S
C2336 C2337 1.327 . S
C2337 H2331 0.950 . S
C2337 C2336 1.327 . S
C2337 C2341 1.429 . S
C2338 C2321 1.574 . S
C2338 H2332 0.949 . S
C2338 C2342 1.368 . S
C2339 C2320 1.429 . S
C2339 C2333 1.429 . S
C2339 C2340 1.523 . S
C2340 C2321 1.368 . S
C2340 C2334 1.368 . S
C2340 C2339 1.523 . S
C2341 C2325 1.429 . S
C2341 C2337 1.429 . S
C2341 C2342 1.523 . S
C2342 C2326 1.368 . S
C2342 C2338 1.368 . S
C2342 C2341 1.523 . S
H2343 C2318 0.950 . S
H2344 C2320 0.950 . S
H2345 C2321 0.949 . S
H2346 C2323 0.950 . S
H2347 C2325 0.950 . S
C2348 C2349 1.349 . S
C2348 C2350 1.327 . S
C2348 H2373 0.950 . S
C2349 C2348 1.349 . S
C2349 C2365 1.349 . S
C2350 C2348 1.327 . S
C2350 C2369 1.429 . S
C2350 H2374 0.950 . S
C2351 C2368 1.574 . S
C2351 C2370 1.368 . S
C2351 H2375 0.949 . S
H2352 C2356 0.949 . S
C2353 C2354 1.349 . S
C2353 C2355 1.327 . S
C2353 H2376 0.950 . S
C2354 C2353 1.349 . S
C2354 C2366 1.349 . S
C2355 C2353 1.327 . S
C2355 C2371 1.429 . S
C2355 H2377 0.950 . S
C2356 H2352 0.949 . S
C2356 C2364 1.574 . S
C2356 C2372 1.368 . S
H2357 C2365 0.950 . S
H2358 C2363 0.950 . S
H2359 C2364 0.949 . S
H2360 C2366 0.950 . S
H2361 C2367 0.950 . S
H2362 C2368 0.949 . S
C2363 H2358 0.950 . S
C2363 C2365 1.327 . S
C2363 C2369 1.429 . S
C2364 C2356 1.574 . S
C2364 H2359 0.949 . S
C2364 C2370 1.368 . S
C2365 C2349 1.349 . S
C2365 H2357 0.950 . S
C2365 C2363 1.327 . S
C2366 C2354 1.349 . S
C2366 H2360 0.950 . S
C2366 C2367 1.327 . S
C2367 H2361 0.950 . S
C2367 C2366 1.327 . S
C2367 C2371 1.429 . S
C2368 C2351 1.574 . S
C2368 H2362 0.949 . S
C2368 C2372 1.368 . S
C2369 C2350 1.429 . S
C2369 C2363 1.429 . S
C2369 C2370 1.523 . S
C2370 C2351 1.368 . S
C2370 C2364 1.368 . S
C2370 C2369 1.523 . S
C2371 C2355 1.429 . S
C2371 C2367 1.429 . S
C2371 C2372 1.523 . S
C2372 C2356 1.368 . S
C2372 C2368 1.368 . S
C2372 C2371 1.523 . S
H2373 C2348 0.950 . S
H2374 C2350 0.950 . S
H2375 C2351 0.949 . S
H2376 C2353 0.950 . S
H2377 C2355 0.950 . S
C2378 C2379 1.349 . S
C2378 C2380 1.327 . S
C2378 H2403 0.950 . S
C2379 C2378 1.349 . S
C2379 C2395 1.349 . S
C2380 C2378 1.327 . S
C2380 C2399 1.429 . S
C2380 H2404 0.950 . S
C2381 C2398 1.574 . S
C2381 C2400 1.368 . S
C2381 H2405 0.949 . S
H2382 C2386 0.949 . S
C2383 C2384 1.349 . S
C2383 C2385 1.327 . S
C2383 H2406 0.950 . S
C2384 C2383 1.349 . S
C2384 C2396 1.349 . S
C2385 C2383 1.327 . S
C2385 C2401 1.429 . S
C2385 H2407 0.950 . S
C2386 H2382 0.949 . S
C2386 C2394 1.574 . S
C2386 C2402 1.368 . S
H2387 C2395 0.950 . S
H2388 C2393 0.950 . S
H2389 C2394 0.949 . S
H2390 C2396 0.950 . S
H2391 C2397 0.950 . S
H2392 C2398 0.949 . S
C2393 H2388 0.950 . S
C2393 C2395 1.327 . S
C2393 C2399 1.429 . S
C2394 C2386 1.574 . S
C2394 H2389 0.949 . S
C2394 C2400 1.368 . S
C2395 C2379 1.349 . S
C2395 H2387 0.950 . S
C2395 C2393 1.327 . S
C2396 C2384 1.349 . S
C2396 H2390 0.950 . S
C2396 C2397 1.327 . S
C2397 H2391 0.950 . S
C2397 C2396 1.327 . S
C2397 C2401 1.429 . S
C2398 C2381 1.574 . S
C2398 H2392 0.949 . S
C2398 C2402 1.368 . S
C2399 C2380 1.429 . S
C2399 C2393 1.429 . S
C2399 C2400 1.523 . S
C2400 C2381 1.368 . S
C2400 C2394 1.368 . S
C2400 C2399 1.523 . S
C2401 C2385 1.429 . S
C2401 C2397 1.429 . S
C2401 C2402 1.523 . S
C2402 C2386 1.368 . S
C2402 C2398 1.368 . S
C2402 C2401 1.523 . S
H2403 C2378 0.950 . S
H2404 C2380 0.950 . S
H2405 C2381 0.949 . S
H2406 C2383 0.950 . S
H2407 C2385 0.950 . S
C2408 C2409 1.349 . S
C2408 C2410 1.327 . S
C2408 H2433 0.950 . S
C2409 C2408 1.349 . S
C2409 C2425 1.349 . S
C2410 C2408 1.327 . S
C2410 C2429 1.429 . S
C2410 H2434 0.950 . S
C2411 C2428 1.574 . S
C2411 C2430 1.368 . S
C2411 H2435 0.949 . S
H2412 C2416 0.949 . S
C2413 C2414 1.349 . S
C2413 C2415 1.327 1_556 S
C2413 H2436 0.950 . S
C2414 C2413 1.349 . S
C2414 C2426 1.349 1_556 S
C2415 C2413 1.327 1_554 S
C2415 C2431 1.429 . S
C2415 H2437 0.950 1_554 S
C2416 H2412 0.949 . S
C2416 C2424 1.574 . S
C2416 C2432 1.368 . S
H2417 C2425 0.950 . S
H2418 C2423 0.950 . S
H2419 C2424 0.949 . S
H2420 C2426 0.950 . S
H2421 C2427 0.950 . S
H2422 C2428 0.949 . S
C2423 H2418 0.950 . S
C2423 C2425 1.327 . S
C2423 C2429 1.429 . S
C2424 C2416 1.574 . S
C2424 H2419 0.949 . S
C2424 C2430 1.368 . S
C2425 C2409 1.349 . S
C2425 H2417 0.950 . S
C2425 C2423 1.327 . S
C2426 C2414 1.349 1_554 S
C2426 H2420 0.950 . S
C2426 C2427 1.327 . S
C2427 H2421 0.950 . S
C2427 C2426 1.327 . S
C2427 C2431 1.429 . S
C2428 C2411 1.574 . S
C2428 H2422 0.949 . S
C2428 C2432 1.368 . S
C2429 C2410 1.429 . S
C2429 C2423 1.429 . S
C2429 C2430 1.523 . S
C2430 C2411 1.368 . S
C2430 C2424 1.368 . S
C2430 C2429 1.523 . S
C2431 C2415 1.429 . S
C2431 C2427 1.429 . S
C2431 C2432 1.523 . S
C2432 C2416 1.368 . S
C2432 C2428 1.368 . S
C2432 C2431 1.523 . S
H2433 C2408 0.950 . S
H2434 C2410 0.950 . S
H2435 C2411 0.949 . S
H2436 C2413 0.950 . S
H2437 C2415 0.950 1_556 S
C2438 C2439 1.349 . S
C2438 C2440 1.327 1_556 S
C2438 H2463 0.950 . S
C2439 C2438 1.349 . S
C2439 C2455 1.349 1_556 S
C2440 C2438 1.327 1_554 S
C2440 C2459 1.429 . S
C2440 H2464 0.950 . S
C2441 C2458 1.574 . S
C2441 C2460 1.368 . S
C2441 H2465 0.949 . S
H2442 C2446 0.949 . S
C2443 C2444 1.349 . S
C2443 C2445 1.327 . S
C2443 H2466 0.950 . S
C2444 C2443 1.349 . S
C2444 C2456 1.349 . S
C2445 C2443 1.327 . S
C2445 C2461 1.429 . S
C2445 H2467 0.950 . S
C2446 H2442 0.949 . S
C2446 C2454 1.574 . S
C2446 C2462 1.368 . S
H2447 C2455 0.950 . S
H2448 C2453 0.950 . S
H2449 C2454 0.949 . S
H2450 C2456 0.950 . S
H2451 C2457 0.950 . S
H2452 C2458 0.949 . S
C2453 H2448 0.950 . S
C2453 C2455 1.327 . S
C2453 C2459 1.429 . S
C2454 C2446 1.574 . S
C2454 H2449 0.949 . S
C2454 C2460 1.368 . S
C2455 C2439 1.349 1_554 S
C2455 H2447 0.950 . S
C2455 C2453 1.327 . S
C2456 C2444 1.349 . S
C2456 H2450 0.950 . S
C2456 C2457 1.327 . S
C2457 H2451 0.950 . S
C2457 C2456 1.327 . S
C2457 C2461 1.429 . S
C2458 C2441 1.574 . S
C2458 H2452 0.949 . S
C2458 C2462 1.368 . S
C2459 C2440 1.429 . S
C2459 C2453 1.429 . S
C2459 C2460 1.523 . S
C2460 C2441 1.368 . S
C2460 C2454 1.368 . S
C2460 C2459 1.523 . S
C2461 C2445 1.429 . S
C2461 C2457 1.429 . S
C2461 C2462 1.523 . S
C2462 C2446 1.368 . S
C2462 C2458 1.368 . S
C2462 C2461 1.523 . S
H2463 C2438 0.950 . S
H2464 C2440 0.950 . S
H2465 C2441 0.949 . S
H2466 C2443 0.950 . S
H2467 C2445 0.950 . S
C2468 C2469 1.349 . S
C2468 C2470 1.327 . S
C2468 H2493 0.950 . S
C2469 C2468 1.349 . S
C2469 C2485 1.349 . S
C2470 C2468 1.327 . S
C2470 C2489 1.429 . S
C2470 H2494 0.950 . S
C2471 C2488 1.574 . S
C2471 C2490 1.368 . S
C2471 H2495 0.949 . S
H2472 C2476 0.949 . S
C2473 C2474 1.349 . S
C2473 C2475 1.327 . S
C2473 H2496 0.950 . S
C2474 C2473 1.349 . S
C2474 C2486 1.349 . S
C2475 C2473 1.327 . S
C2475 C2491 1.429 . S
C2475 H2497 0.950 . S
C2476 H2472 0.949 . S
C2476 C2484 1.574 . S
C2476 C2492 1.368 . S
H2477 C2485 0.950 . S
H2478 C2483 0.950 . S
H2479 C2484 0.949 . S
H2480 C2486 0.950 . S
H2481 C2487 0.950 . S
H2482 C2488 0.949 . S
C2483 H2478 0.950 . S
C2483 C2485 1.327 . S
C2483 C2489 1.429 . S
C2484 C2476 1.574 . S
C2484 H2479 0.949 . S
C2484 C2490 1.368 . S
C2485 C2469 1.349 . S
C2485 H2477 0.950 . S
C2485 C2483 1.327 . S
C2486 C2474 1.349 . S
C2486 H2480 0.950 . S
C2486 C2487 1.327 . S
C2487 H2481 0.950 . S
C2487 C2486 1.327 . S
C2487 C2491 1.429 . S
C2488 C2471 1.574 . S
C2488 H2482 0.949 . S
C2488 C2492 1.368 . S
C2489 C2470 1.429 . S
C2489 C2483 1.429 . S
C2489 C2490 1.523 . S
C2490 C2471 1.368 . S
C2490 C2484 1.368 . S
C2490 C2489 1.523 . S
C2491 C2475 1.429 . S
C2491 C2487 1.429 . S
C2491 C2492 1.523 . S
C2492 C2476 1.368 . S
C2492 C2488 1.368 . S
C2492 C2491 1.523 . S
H2493 C2468 0.950 . S
H2494 C2470 0.950 . S
H2495 C2471 0.949 . S
H2496 C2473 0.950 . S
H2497 C2475 0.950 . S
C2498 C2499 1.349 . S
C2498 C2500 1.327 . S
C2498 H2523 0.950 . S
C2499 C2498 1.349 . S
C2499 C2515 1.349 . S
C2500 C2498 1.327 . S
C2500 C2519 1.429 . S
C2500 H2524 0.950 . S
C2501 C2518 1.574 . S
C2501 C2520 1.368 . S
C2501 H2525 0.949 . S
H2502 C2506 0.949 . S
C2503 C2504 1.349 . S
C2503 C2505 1.327 . S
C2503 H2526 0.950 . S
C2504 C2503 1.349 . S
C2504 C2516 1.349 . S
C2505 C2503 1.327 . S
C2505 C2521 1.429 . S
C2505 H2527 0.950 . S
C2506 H2502 0.949 . S
C2506 C2514 1.574 . S
C2506 C2522 1.368 . S
H2507 C2515 0.950 . S
H2508 C2513 0.950 . S
H2509 C2514 0.949 . S
H2510 C2516 0.950 . S
H2511 C2517 0.950 . S
H2512 C2518 0.949 . S
C2513 H2508 0.950 . S
C2513 C2515 1.327 . S
C2513 C2519 1.429 . S
C2514 C2506 1.574 . S
C2514 H2509 0.949 . S
C2514 C2520 1.368 . S
C2515 C2499 1.349 . S
C2515 H2507 0.950 . S
C2515 C2513 1.327 . S
C2516 C2504 1.349 . S
C2516 H2510 0.950 . S
C2516 C2517 1.327 . S
C2517 H2511 0.950 . S
C2517 C2516 1.327 . S
C2517 C2521 1.429 . S
C2518 C2501 1.574 . S
C2518 H2512 0.949 . S
C2518 C2522 1.368 . S
C2519 C2500 1.429 . S
C2519 C2513 1.429 . S
C2519 C2520 1.523 . S
C2520 C2501 1.368 . S
C2520 C2514 1.368 . S
C2520 C2519 1.523 . S
C2521 C2505 1.429 . S
C2521 C2517 1.429 . S
C2521 C2522 1.523 . S
C2522 C2506 1.368 . S
C2522 C2518 1.368 . S
C2522 C2521 1.523 . S
H2523 C2498 0.950 . S
H2524 C2500 0.950 . S
H2525 C2501 0.949 . S
H2526 C2503 0.950 . S
H2527 C2505 0.950 . S
C2528 C2529 1.349 . S
C2528 C2530 1.327 . S
C2528 H2553 0.950 . S
C2529 C2528 1.349 . S
C2529 C2545 1.349 . S
C2530 C2528 1.327 . S
C2530 C2549 1.429 . S
C2530 H2554 0.950 . S
C2531 C2548 1.574 . S
C2531 C2550 1.368 . S
C2531 H2555 0.949 . S
H2532 C2536 0.949 . S
C2533 C2534 1.349 1_556 S
C2533 C2535 1.327 . S
C2533 H2556 0.950 . S
C2534 C2533 1.349 1_554 S
C2534 C2546 1.349 . S
C2535 C2533 1.327 . S
C2535 C2551 1.429 . S
C2535 H2557 0.950 . S
C2536 H2532 0.949 . S
C2536 C2544 1.574 . S
C2536 C2552 1.368 . S
H2537 C2545 0.950 . S
H2538 C2543 0.950 . S
H2539 C2544 0.949 . S
H2540 C2546 0.950 . S
H2541 C2547 0.950 . S
H2542 C2548 0.949 . S
C2543 H2538 0.950 . S
C2543 C2545 1.327 . S
C2543 C2549 1.429 . S
C2544 C2536 1.574 . S
C2544 H2539 0.949 . S
C2544 C2550 1.368 . S
C2545 C2529 1.349 . S
C2545 H2537 0.950 . S
C2545 C2543 1.327 . S
C2546 C2534 1.349 . S
C2546 H2540 0.950 . S
C2546 C2547 1.327 1_554 S
C2547 H2541 0.950 . S
C2547 C2546 1.327 1_556 S
C2547 C2551 1.429 . S
C2548 C2531 1.574 . S
C2548 H2542 0.949 . S
C2548 C2552 1.368 . S
C2549 C2530 1.429 . S
C2549 C2543 1.429 . S
C2549 C2550 1.523 . S
C2550 C2531 1.368 . S
C2550 C2544 1.368 . S
C2550 C2549 1.523 . S
C2551 C2535 1.429 . S
C2551 C2547 1.429 . S
C2551 C2552 1.523 . S
C2552 C2536 1.368 . S
C2552 C2548 1.368 . S
C2552 C2551 1.523 . S
H2553 C2528 0.950 . S
H2554 C2530 0.950 . S
H2555 C2531 0.949 . S
H2556 C2533 0.950 . S
H2557 C2535 0.950 . S
C2558 C2559 1.349 1_556 S
C2558 C2560 1.327 . S
C2558 H2583 0.950 . S
C2559 C2558 1.349 1_554 S
C2559 C2575 1.349 . S
C2560 C2558 1.327 . S
C2560 C2579 1.429 . S
C2560 H2584 0.950 . S
C2561 C2578 1.574 . S
C2561 C2580 1.368 . S
C2561 H2585 0.949 . S
H2562 C2566 0.949 . S
C2563 C2564 1.349 . S
C2563 C2565 1.327 . S
C2563 H2586 0.950 . S
C2564 C2563 1.349 . S
C2564 C2576 1.349 . S
C2565 C2563 1.327 . S
C2565 C2581 1.429 . S
C2565 H2587 0.950 . S
C2566 H2562 0.949 . S
C2566 C2574 1.574 . S
C2566 C2582 1.368 . S
H2567 C2575 0.950 . S
H2568 C2573 0.946 1_554 S
H2569 C2574 0.949 . S
H2570 C2576 0.950 . S
H2571 C2577 0.950 . S
H2572 C2578 0.949 . S
C2573 H2568 0.946 1_556 S
C2573 C2575 1.327 1_556 S
C2573 C2579 1.429 . S
C2574 C2566 1.574 . S
C2574 H2569 0.949 . S
C2574 C2580 1.368 . S
C2575 C2559 1.349 . S
C2575 H2567 0.950 . S
C2575 C2573 1.327 1_554 S
C2576 C2564 1.349 . S
C2576 H2570 0.950 . S
C2576 C2577 1.327 . S
C2577 H2571 0.950 . S
C2577 C2576 1.327 . S
C2577 C2581 1.429 . S
C2578 C2561 1.574 . S
C2578 H2572 0.949 . S
C2578 C2582 1.368 . S
C2579 C2560 1.429 . S
C2579 C2573 1.429 . S
C2579 C2580 1.523 . S
C2580 C2561 1.368 . S
C2580 C2574 1.368 . S
C2580 C2579 1.523 . S
C2581 C2565 1.429 . S
C2581 C2577 1.429 . S
C2581 C2582 1.523 . S
C2582 C2566 1.368 . S
C2582 C2578 1.368 . S
C2582 C2581 1.523 . S
H2583 C2558 0.950 . S
H2584 C2560 0.950 . S
H2585 C2561 0.949 . S
H2586 C2563 0.950 . S
H2587 C2565 0.950 . S
C2588 C2589 1.349 . S
C2588 C2590 1.327 . S
C2588 H2613 0.950 . S
C2589 C2588 1.349 . S
C2589 C2605 1.349 . S
C2590 C2588 1.327 . S
C2590 C2609 1.429 . S
C2590 H2614 0.950 . S
C2591 C2608 1.574 . S
C2591 C2610 1.368 . S
C2591 H2615 0.949 . S
H2592 C2596 0.949 . S
C2593 C2594 1.349 . S
C2593 C2595 1.327 . S
C2593 H2616 0.950 . S
C2594 C2593 1.349 . S
C2594 C2606 1.349 . S
C2595 C2593 1.327 . S
C2595 C2611 1.429 . S
C2595 H2617 0.950 . S
C2596 H2592 0.949 . S
C2596 C2604 1.574 . S
C2596 C2612 1.368 . S
H2597 C2605 0.950 . S
H2598 C2603 0.950 . S
H2599 C2604 0.949 . S
H2600 C2606 0.950 . S
H2601 C2607 0.950 . S
H2602 C2608 0.949 . S
C2603 H2598 0.950 . S
C2603 C2605 1.327 . S
C2603 C2609 1.429 . S
C2604 C2596 1.574 . S
C2604 H2599 0.949 . S
C2604 C2610 1.368 . S
C2605 C2589 1.349 . S
C2605 H2597 0.950 . S
C2605 C2603 1.327 . S
C2606 C2594 1.349 . S
C2606 H2600 0.950 . S
C2606 C2607 1.327 . S
C2607 H2601 0.950 . S
C2607 C2606 1.327 . S
C2607 C2611 1.429 . S
C2608 C2591 1.574 . S
C2608 H2602 0.949 . S
C2608 C2612 1.368 . S
C2609 C2590 1.429 . S
C2609 C2603 1.429 . S
C2609 C2610 1.523 . S
C2610 C2591 1.368 . S
C2610 C2604 1.368 . S
C2610 C2609 1.523 . S
C2611 C2595 1.429 . S
C2611 C2607 1.429 . S
C2611 C2612 1.523 . S
C2612 C2596 1.368 . S
C2612 C2608 1.368 . S
C2612 C2611 1.523 . S
H2613 C2588 0.950 . S
H2614 C2590 0.950 . S
H2615 C2591 0.949 . S
H2616 C2593 0.950 . S
H2617 C2595 0.950 . S
C2618 C2619 1.349 . S
C2618 C2620 1.327 . S
C2618 H2643 0.950 . S
C2619 C2618 1.349 . S
C2619 C2635 1.349 . S
C2620 C2618 1.327 . S
C2620 C2639 1.429 . S
C2620 H2644 0.950 . S
C2621 C2638 1.574 . S
C2621 C2640 1.368 . S
C2621 H2645 0.949 . S
H2622 C2626 0.949 . S
C2623 C2624 1.349 . S
C2623 C2625 1.327 . S
C2623 H2646 0.950 . S
C2624 C2623 1.349 . S
C2624 C2636 1.349 . S
C2625 C2623 1.327 . S
C2625 C2641 1.429 . S
C2625 H2647 0.950 . S
C2626 H2622 0.949 . S
C2626 C2634 1.574 . S
C2626 C2642 1.368 . S
H2627 C2635 0.950 . S
H2628 C2633 0.950 . S
H2629 C2634 0.949 . S
H2630 C2636 0.950 . S
H2631 C2637 0.950 . S
H2632 C2638 0.949 . S
C2633 H2628 0.950 . S
C2633 C2635 1.327 . S
C2633 C2639 1.429 . S
C2634 C2626 1.574 . S
C2634 H2629 0.949 . S
C2634 C2640 1.368 . S
C2635 C2619 1.349 . S
C2635 H2627 0.950 . S
C2635 C2633 1.327 . S
C2636 C2624 1.349 . S
C2636 H2630 0.950 . S
C2636 C2637 1.327 . S
C2637 H2631 0.950 . S
C2637 C2636 1.327 . S
C2637 C2641 1.429 . S
C2638 C2621 1.574 . S
C2638 H2632 0.949 . S
C2638 C2642 1.368 . S
C2639 C2620 1.429 . S
C2639 C2633 1.429 . S
C2639 C2640 1.523 . S
C2640 C2621 1.368 . S
C2640 C2634 1.368 . S
C2640 C2639 1.523 . S
C2641 C2625 1.429 . S
C2641 C2637 1.429 . S
C2641 C2642 1.523 . S
C2642 C2626 1.368 . S
C2642 C2638 1.368 . S
C2642 C2641 1.523 . S
H2643 C2618 0.950 . S
H2644 C2620 0.950 . S
H2645 C2621 0.949 . S
H2646 C2623 0.950 . S
H2647 C2625 0.950 . S
C2648 C2649 1.349 . S
C2648 C2650 1.327 1_556 S
C2648 H2673 0.950 . S
C2649 C2648 1.349 . S
C2649 C2665 1.349 1_556 S
C2650 C2648 1.327 1_554 S
C2650 C2669 1.429 . S
C2650 H2674 0.950 . S
C2651 C2668 1.574 . S
C2651 C2670 1.368 . S
C2651 H2675 0.949 . S
H2652 C2656 0.949 . S
C2653 C2654 1.349 . S
C2653 C2655 1.327 . S
C2653 H2676 0.950 . S
C2654 C2653 1.349 . S
C2654 C2666 1.349 . S
C2655 C2653 1.327 . S
C2655 C2671 1.429 . S
C2655 H2677 0.950 . S
C2656 H2652 0.949 . S
C2656 C2664 1.574 . S
C2656 C2672 1.368 . S
H2657 C2665 0.950 . S
H2658 C2663 0.950 . S
H2659 C2664 0.949 . S
H2660 C2666 0.950 . S
H2661 C2667 0.950 . S
H2662 C2668 0.949 . S
C2663 H2658 0.950 . S
C2663 C2665 1.327 . S
C2663 C2669 1.429 . S
C2664 C2656 1.574 . S
C2664 H2659 0.949 . S
C2664 C2670 1.368 . S
C2665 C2649 1.349 1_554 S
C2665 H2657 0.950 . S
C2665 C2663 1.327 . S
C2666 C2654 1.349 . S
C2666 H2660 0.950 . S
C2666 C2667 1.327 . S
C2667 H2661 0.950 . S
C2667 C2666 1.327 . S
C2667 C2671 1.429 . S
C2668 C2651 1.574 . S
C2668 H2662 0.949 . S
C2668 C2672 1.368 . S
C2669 C2650 1.429 . S
C2669 C2663 1.429 . S
C2669 C2670 1.523 . S
C2670 C2651 1.368 . S
C2670 C2664 1.368 . S
C2670 C2669 1.523 . S
C2671 C2655 1.429 . S
C2671 C2667 1.429 . S
C2671 C2672 1.523 . S
C2672 C2656 1.368 . S
C2672 C2668 1.368 . S
C2672 C2671 1.523 . S
H2673 C2648 0.950 . S
H2674 C2650 0.950 . S
H2675 C2651 0.949 . S
H2676 C2653 0.950 . S
H2677 C2655 0.950 . S
C2678 C2679 1.349 . S
C2678 C2680 1.327 1_556 S
C2678 H2703 0.950 . S
C2679 C2678 1.349 . S
C2679 C2695 1.349 1_556 S
C2680 C2678 1.327 1_554 S
C2680 C2699 1.429 . S
C2680 H2704 0.950 . S
C2681 C2698 1.574 . S
C2681 C2700 1.368 . S
C2681 H2705 0.949 . S
H2682 C2686 0.949 . S
C2683 C2684 1.349 . S
C2683 C2685 1.327 . S
C2683 H2706 0.950 . S
C2684 C2683 1.349 . S
C2684 C2696 1.349 . S
C2685 C2683 1.327 . S
C2685 C2701 1.429 . S
C2685 H2707 0.950 . S
C2686 H2682 0.949 . S
C2686 C2694 1.574 . S
C2686 C2702 1.368 . S
H2687 C2695 0.950 . S
H2688 C2693 0.950 . S
H2689 C2694 0.949 . S
H2690 C2696 0.950 . S
H2691 C2697 0.950 . S
H2692 C2698 0.949 . S
C2693 H2688 0.950 . S
C2693 C2695 1.327 . S
C2693 C2699 1.429 . S
C2694 C2686 1.574 . S
C2694 H2689 0.949 . S
C2694 C2700 1.368 . S
C2695 C2679 1.349 1_554 S
C2695 H2687 0.950 . S
C2695 C2693 1.327 . S
C2696 C2684 1.349 . S
C2696 H2690 0.950 . S
C2696 C2697 1.327 . S
C2697 H2691 0.950 . S
C2697 C2696 1.327 . S
C2697 C2701 1.429 . S
C2698 C2681 1.574 . S
C2698 H2692 0.949 . S
C2698 C2702 1.368 . S
C2699 C2680 1.429 . S
C2699 C2693 1.429 . S
C2699 C2700 1.523 . S
C2700 C2681 1.368 . S
C2700 C2694 1.368 . S
C2700 C2699 1.523 . S
C2701 C2685 1.429 . S
C2701 C2697 1.429 . S
C2701 C2702 1.523 . S
C2702 C2686 1.368 . S
C2702 C2698 1.368 . S
C2702 C2701 1.523 . S
H2703 C2678 0.950 . S
H2704 C2680 0.950 . S
H2705 C2681 0.949 . S
H2706 C2683 0.950 . S
H2707 C2685 0.950 . S
C2708 C2709 1.349 . S
C2708 C2710 1.327 . S
C2708 H2733 0.950 . S
C2709 C2708 1.349 . S
C2709 C2725 1.349 . S
C2710 C2708 1.327 . S
C2710 C2729 1.429 . S
C2710 H2734 0.950 . S
C2711 C2728 1.574 . S
C2711 C2730 1.368 . S
C2711 H2735 0.949 . S
H2712 C2716 0.949 . S
C2713 C2714 1.349 . S
C2713 C2715 1.327 . S
C2713 H2736 0.950 . S
C2714 C2713 1.349 . S
C2714 C2726 1.349 . S
C2715 C2713 1.327 . S
C2715 C2731 1.429 . S
C2715 H2737 0.950 . S
C2716 H2712 0.949 . S
C2716 C2724 1.574 . S
C2716 C2732 1.368 . S
H2717 C2725 0.950 . S
H2718 C2723 0.950 . S
H2719 C2724 0.949 . S
H2720 C2726 0.950 . S
H2721 C2727 0.950 . S
H2722 C2728 0.949 . S
C2723 H2718 0.950 . S
C2723 C2725 1.327 . S
C2723 C2729 1.429 . S
C2724 C2716 1.574 . S
C2724 H2719 0.949 . S
C2724 C2730 1.368 . S
C2725 C2709 1.349 . S
C2725 H2717 0.950 . S
C2725 C2723 1.327 . S
C2726 C2714 1.349 . S
C2726 H2720 0.950 . S
C2726 C2727 1.327 . S
C2727 H2721 0.950 . S
C2727 C2726 1.327 . S
C2727 C2731 1.429 . S
C2728 C2711 1.574 . S
C2728 H2722 0.949 . S
C2728 C2732 1.368 . S
C2729 C2710 1.429 . S
C2729 C2723 1.429 . S
C2729 C2730 1.523 . S
C2730 C2711 1.368 . S
C2730 C2724 1.368 . S
C2730 C2729 1.523 . S
C2731 C2715 1.429 . S
C2731 C2727 1.429 . S
C2731 C2732 1.523 . S
C2732 C2716 1.368 . S
C2732 C2728 1.368 . S
C2732 C2731 1.523 . S
H2733 C2708 0.950 . S
H2734 C2710 0.950 . S
H2735 C2711 0.949 . S
H2736 C2713 0.950 . S
H2737 C2715 0.950 . S
C2738 C2739 1.349 . S
C2738 C2740 1.327 . S
C2738 H2763 0.950 . S
C2739 C2738 1.349 . S
C2739 C2755 1.349 . S
C2740 C2738 1.327 . S
C2740 C2759 1.429 . S
C2740 H2764 0.950 . S
C2741 C2758 1.574 . S
C2741 C2760 1.368 . S
C2741 H2765 0.949 . S
H2742 C2746 0.949 . S
C2743 C2744 1.349 . S
C2743 C2745 1.327 . S
C2743 H2766 0.950 . S
C2744 C2743 1.349 . S
C2744 C2756 1.349 . S
C2745 C2743 1.327 . S
C2745 C2761 1.429 . S
C2745 H2767 0.950 . S
C2746 H2742 0.949 . S
C2746 C2754 1.574 . S
C2746 C2762 1.368 . S
H2747 C2755 0.950 . S
H2748 C2753 0.950 . S
H2749 C2754 0.949 . S
H2750 C2756 0.950 . S
H2751 C2757 0.950 . S
H2752 C2758 0.949 . S
C2753 H2748 0.950 . S
C2753 C2755 1.327 . S
C2753 C2759 1.429 . S
C2754 C2746 1.574 . S
C2754 H2749 0.949 . S
C2754 C2760 1.368 . S
C2755 C2739 1.349 . S
C2755 H2747 0.950 . S
C2755 C2753 1.327 . S
C2756 C2744 1.349 . S
C2756 H2750 0.950 . S
C2756 C2757 1.327 . S
C2757 H2751 0.950 . S
C2757 C2756 1.327 . S
C2757 C2761 1.429 . S
C2758 C2741 1.574 . S
C2758 H2752 0.949 . S
C2758 C2762 1.368 . S
C2759 C2740 1.429 . S
C2759 C2753 1.429 . S
C2759 C2760 1.523 . S
C2760 C2741 1.368 . S
C2760 C2754 1.368 . S
C2760 C2759 1.523 . S
C2761 C2745 1.429 . S
C2761 C2757 1.429 . S
C2761 C2762 1.523 . S
C2762 C2746 1.368 . S
C2762 C2758 1.368 . S
C2762 C2761 1.523 . S
H2763 C2738 0.950 . S
H2764 C2740 0.950 . S
H2765 C2741 0.949 . S
H2766 C2743 0.950 . S
H2767 C2745 0.950 . S
C2768 C2769 1.349 . S
C2768 C2770 1.327 . S
C2768 H2793 0.950 . S
C2769 C2768 1.349 . S
C2769 C2785 1.349 . S
C2770 C2768 1.327 . S
C2770 C2789 1.429 . S
C2770 H2794 0.950 . S
C2771 C2788 1.574 . S
C2771 C2790 1.368 . S
C2771 H2795 0.949 . S
H2772 C2776 0.949 . S
C2773 C2774 1.349 . S
C2773 C2775 1.327 . S
C2773 H2796 0.950 . S
C2774 C2773 1.349 . S
C2774 C2786 1.349 . S
C2775 C2773 1.327 . S
C2775 C2791 1.429 . S
C2775 H2797 0.950 . S
C2776 H2772 0.949 . S
C2776 C2784 1.574 . S
C2776 C2792 1.368 . S
H2777 C2785 0.950 . S
H2778 C2783 0.950 . S
H2779 C2784 0.949 . S
H2780 C2786 0.950 . S
H2781 C2787 0.950 . S
H2782 C2788 0.949 . S
C2783 H2778 0.950 . S
C2783 C2785 1.327 . S
C2783 C2789 1.429 . S
C2784 C2776 1.574 . S
C2784 H2779 0.949 . S
C2784 C2790 1.368 . S
C2785 C2769 1.349 . S
C2785 H2777 0.950 . S
C2785 C2783 1.327 . S
C2786 C2774 1.349 . S
C2786 H2780 0.950 . S
C2786 C2787 1.327 . S
C2787 H2781 0.950 . S
C2787 C2786 1.327 . S
C2787 C2791 1.429 . S
C2788 C2771 1.574 . S
C2788 H2782 0.949 . S
C2788 C2792 1.368 . S
C2789 C2770 1.429 . S
C2789 C2783 1.429 . S
C2789 C2790 1.523 . S
C2790 C2771 1.368 . S
C2790 C2784 1.368 . S
C2790 C2789 1.523 . S
C2791 C2775 1.429 . S
C2791 C2787 1.429 . S
C2791 C2792 1.523 . S
C2792 C2776 1.368 . S
C2792 C2788 1.368 . S
C2792 C2791 1.523 . S
H2793 C2768 0.950 . S
H2794 C2770 0.950 . S
H2795 C2771 0.949 . S
H2796 C2773 0.950 . S
H2797 C2775 0.950 . S
C2798 C2799 1.349 . S
C2798 C2800 1.327 . S
C2798 H2823 0.950 . S
C2799 C2798 1.349 . S
C2799 C2815 1.349 . S
C2800 C2798 1.327 . S
C2800 C2819 1.429 . S
C2800 H2824 0.950 . S
C2801 C2818 1.574 . S
C2801 C2820 1.368 . S
C2801 H2825 0.949 . S
H2802 C2806 0.949 . S
C2803 C2804 1.349 . S
C2803 C2805 1.327 . S
C2803 H2826 0.950 . S
C2804 C2803 1.349 . S
C2804 C2816 1.349 . S
C2805 C2803 1.327 . S
C2805 C2821 1.429 . S
C2805 H2827 0.950 . S
C2806 H2802 0.949 . S
C2806 C2814 1.574 . S
C2806 C2822 1.368 . S
H2807 C2815 0.950 . S
H2808 C2813 0.950 . S
H2809 C2814 0.949 . S
H2810 C2816 0.950 . S
H2811 C2817 0.950 . S
H2812 C2818 0.949 . S
C2813 H2808 0.950 . S
C2813 C2815 1.327 . S
C2813 C2819 1.429 . S
C2814 C2806 1.574 . S
C2814 H2809 0.949 . S
C2814 C2820 1.368 . S
C2815 C2799 1.349 . S
C2815 H2807 0.950 . S
C2815 C2813 1.327 . S
C2816 C2804 1.349 . S
C2816 H2810 0.950 . S
C2816 C2817 1.327 . S
C2817 H2811 0.950 . S
C2817 C2816 1.327 . S
C2817 C2821 1.429 . S
C2818 C2801 1.574 . S
C2818 H2812 0.949 . S
C2818 C2822 1.368 . S
C2819 C2800 1.429 . S
C2819 C2813 1.429 . S
C2819 C2820 1.523 . S
C2820 C2801 1.368 . S
C2820 C2814 1.368 . S
C2820 C2819 1.523 . S
C2821 C2805 1.429 . S
C2821 C2817 1.429 . S
C2821 C2822 1.523 . S
C2822 C2806 1.368 . S
C2822 C2818 1.368 . S
C2822 C2821 1.523 . S
H2823 C2798 0.950 . S
H2824 C2800 0.950 . S
H2825 C2801 0.949 . S
H2826 C2803 0.950 . S
H2827 C2805 0.950 . S
C2828 C2829 1.349 . S
C2828 C2830 1.327 1_554 S
C2828 H2853 0.950 . S
C2829 C2828 1.349 . S
C2829 C2845 1.349 1_554 S
C2830 C2828 1.327 1_556 S
C2830 C2849 1.429 . S
C2830 H2854 0.950 1_556 S
C2831 C2848 1.574 . S
C2831 C2850 1.368 . S
C2831 H2855 0.949 . S
H2832 C2836 0.949 . S
C2833 C2834 1.349 . S
C2833 C2835 1.327 . S
C2833 H2856 0.950 . S
C2834 C2833 1.349 . S
C2834 C2846 1.349 . S
C2835 C2833 1.327 . S
C2835 C2851 1.429 . S
C2835 H2857 0.950 . S
C2836 H2832 0.949 . S
C2836 C2844 1.574 . S
C2836 C2852 1.368 . S
H2837 C2845 0.950 . S
H2838 C2843 0.950 . S
H2839 C2844 0.949 . S
H2840 C2846 0.950 . S
H2841 C2847 0.950 . S
H2842 C2848 0.949 . S
C2843 H2838 0.950 . S
C2843 C2845 1.327 . S
C2843 C2849 1.429 . S
C2844 C2836 1.574 . S
C2844 H2839 0.949 . S
C2844 C2850 1.368 . S
C2845 C2829 1.349 1_556 S
C2845 H2837 0.950 . S
C2845 C2843 1.327 . S
C2846 C2834 1.349 . S
C2846 H2840 0.950 . S
C2846 C2847 1.327 . S
C2847 H2841 0.950 . S
C2847 C2846 1.327 . S
C2847 C2851 1.429 . S
C2848 C2831 1.574 . S
C2848 H2842 0.949 . S
C2848 C2852 1.368 . S
C2849 C2830 1.429 . S
C2849 C2843 1.429 . S
C2849 C2850 1.523 . S
C2850 C2831 1.368 . S
C2850 C2844 1.368 . S
C2850 C2849 1.523 . S
C2851 C2835 1.429 . S
C2851 C2847 1.429 . S
C2851 C2852 1.523 . S
C2852 C2836 1.368 . S
C2852 C2848 1.368 . S
C2852 C2851 1.523 . S
H2853 C2828 0.950 . S
H2854 C2830 0.950 1_554 S
H2855 C2831 0.949 . S
H2856 C2833 0.950 . S
H2857 C2835 0.950 . S
C2858 C2859 1.349 . S
C2858 C2860 1.327 . S
C2858 H2883 0.950 . S
C2859 C2858 1.349 . S
C2859 C2875 1.349 . S
C2860 C2858 1.327 . S
C2860 C2879 1.429 . S
C2860 H2884 0.950 . S
C2861 C2878 1.574 . S
C2861 C2880 1.368 . S
C2861 H2885 0.949 . S
H2862 C2866 0.949 . S
C2863 C2864 1.349 . S
C2863 C2865 1.327 1_554 S
C2863 H2886 0.950 . S
C2864 C2863 1.349 . S
C2864 C2876 1.349 1_554 S
C2865 C2863 1.327 1_556 S
C2865 C2881 1.429 . S
C2865 H2887 0.950 . S
C2866 H2862 0.949 . S
C2866 C2874 1.574 . S
C2866 C2882 1.368 . S
H2867 C2875 0.950 . S
H2868 C2873 0.950 . S
H2869 C2874 0.949 . S
H2870 C2876 0.950 . S
H2871 C2877 0.950 . S
H2872 C2878 0.949 . S
C2873 H2868 0.950 . S
C2873 C2875 1.327 . S
C2873 C2879 1.429 . S
C2874 C2866 1.574 . S
C2874 H2869 0.949 . S
C2874 C2880 1.368 . S
C2875 C2859 1.349 . S
C2875 H2867 0.950 . S
C2875 C2873 1.327 . S
C2876 C2864 1.349 1_556 S
C2876 H2870 0.950 . S
C2876 C2877 1.327 . S
C2877 H2871 0.950 . S
C2877 C2876 1.327 . S
C2877 C2881 1.429 . S
C2878 C2861 1.574 . S
C2878 H2872 0.949 . S
C2878 C2882 1.368 . S
C2879 C2860 1.429 . S
C2879 C2873 1.429 . S
C2879 C2880 1.523 . S
C2880 C2861 1.368 . S
C2880 C2874 1.368 . S
C2880 C2879 1.523 . S
C2881 C2865 1.429 . S
C2881 C2877 1.429 . S
C2881 C2882 1.523 . S
C2882 C2866 1.368 . S
C2882 C2878 1.368 . S
C2882 C2881 1.523 . S
H2883 C2858 0.950 . S
H2884 C2860 0.950 . S
H2885 C2861 0.949 . S
H2886 C2863 0.950 . S
H2887 C2865 0.950 . S
C2888 C2889 1.349 . S
C2888 C2890 1.327 . S
C2888 H2913 0.950 . S
C2889 C2888 1.349 . S
C2889 C2905 1.349 . S
C2890 C2888 1.327 . S
C2890 C2909 1.429 . S
C2890 H2914 0.950 . S
C2891 C2908 1.574 . S
C2891 C2910 1.368 . S
C2891 H2915 0.949 . S
H2892 C2896 0.949 . S
C2893 C2894 1.349 . S
C2893 C2895 1.327 . S
C2893 H2916 0.950 . S
C2894 C2893 1.349 . S
C2894 C2906 1.349 . S
C2895 C2893 1.327 . S
C2895 C2911 1.429 . S
C2895 H2917 0.950 . S
C2896 H2892 0.949 . S
C2896 C2904 1.574 . S
C2896 C2912 1.368 . S
H2897 C2905 0.950 . S
H2898 C2903 0.950 . S
H2899 C2904 0.949 . S
H2900 C2906 0.950 . S
H2901 C2907 0.950 . S
H2902 C2908 0.949 . S
C2903 H2898 0.950 . S
C2903 C2905 1.327 . S
C2903 C2909 1.429 . S
C2904 C2896 1.574 . S
C2904 H2899 0.949 . S
C2904 C2910 1.368 . S
C2905 C2889 1.349 . S
C2905 H2897 0.950 . S
C2905 C2903 1.327 . S
C2906 C2894 1.349 . S
C2906 H2900 0.950 . S
C2906 C2907 1.327 . S
C2907 H2901 0.950 . S
C2907 C2906 1.327 . S
C2907 C2911 1.429 . S
C2908 C2891 1.574 . S
C2908 H2902 0.949 . S
C2908 C2912 1.368 . S
C2909 C2890 1.429 . S
C2909 C2903 1.429 . S
C2909 C2910 1.523 . S
C2910 C2891 1.368 . S
C2910 C2904 1.368 . S
C2910 C2909 1.523 . S
C2911 C2895 1.429 . S
C2911 C2907 1.429 . S
C2911 C2912 1.523 . S
C2912 C2896 1.368 . S
C2912 C2908 1.368 . S
C2912 C2911 1.523 . S
H2913 C2888 0.950 . S
H2914 C2890 0.950 . S
H2915 C2891 0.949 . S
H2916 C2893 0.950 . S
H2917 C2895 0.950 . S
C2918 C2919 1.349 . S
C2918 C2920 1.327 . S
C2918 H2943 0.950 . S
C2919 C2918 1.349 . S
C2919 C2935 1.349 . S
C2920 C2918 1.327 . S
C2920 C2939 1.429 . S
C2920 H2944 0.950 . S
C2921 C2938 1.574 . S
C2921 C2940 1.368 . S
C2921 H2945 0.949 . S
H2922 C2926 0.949 . S
C2923 C2924 1.349 . S
C2923 C2925 1.327 . S
C2923 H2946 0.950 . S
C2924 C2923 1.349 . S
C2924 C2936 1.349 . S
C2925 C2923 1.327 . S
C2925 C2941 1.429 . S
C2925 H2947 0.950 . S
C2926 H2922 0.949 . S
C2926 C2934 1.574 . S
C2926 C2942 1.368 . S
H2927 C2935 0.950 . S
H2928 C2933 0.950 . S
H2929 C2934 0.949 . S
H2930 C2936 0.950 . S
H2931 C2937 0.950 . S
H2932 C2938 0.949 . S
C2933 H2928 0.950 . S
C2933 C2935 1.327 . S
C2933 C2939 1.429 . S
C2934 C2926 1.574 . S
C2934 H2929 0.949 . S
C2934 C2940 1.368 . S
C2935 C2919 1.349 . S
C2935 H2927 0.950 . S
C2935 C2933 1.327 . S
C2936 C2924 1.349 . S
C2936 H2930 0.950 . S
C2936 C2937 1.327 . S
C2937 H2931 0.950 . S
C2937 C2936 1.327 . S
C2937 C2941 1.429 . S
C2938 C2921 1.574 . S
C2938 H2932 0.949 . S
C2938 C2942 1.368 . S
C2939 C2920 1.429 . S
C2939 C2933 1.429 . S
C2939 C2940 1.523 . S
C2940 C2921 1.368 . S
C2940 C2934 1.368 . S
C2940 C2939 1.523 . S
C2941 C2925 1.429 . S
C2941 C2937 1.429 . S
C2941 C2942 1.523 . S
C2942 C2926 1.368 . S
C2942 C2938 1.368 . S
C2942 C2941 1.523 . S
H2943 C2918 0.950 . S
H2944 C2920 0.950 . S
H2945 C2921 0.949 . S
H2946 C2923 0.950 . S
H2947 C2925 0.950 . S
C2948 C2949 1.349 . S
C2948 C2950 1.327 . S
C2948 H2973 0.950 . S
C2949 C2948 1.349 . S
C2949 C2965 1.349 . S
C2950 C2948 1.327 . S
C2950 C2969 1.429 . S
C2950 H2974 0.950 . S
C2951 C2968 1.574 . S
C2951 C2970 1.368 . S
C2951 H2975 0.949 . S
H2952 C2956 0.949 . S
C2953 C2954 1.349 1_554 S
C2953 C2955 1.327 . S
C2953 H2976 0.950 . S
C2954 C2953 1.349 1_556 S
C2954 C2966 1.349 . S
C2955 C2953 1.327 . S
C2955 C2971 1.429 . S
C2955 H2977 0.950 . S
C2956 H2952 0.949 . S
C2956 C2964 1.574 . S
C2956 C2972 1.368 . S
H2957 C2965 0.950 . S
H2958 C2963 0.950 . S
H2959 C2964 0.949 . S
H2960 C2966 0.950 . S
H2961 C2967 0.950 1_556 S
H2962 C2968 0.949 . S
C2963 H2958 0.950 . S
C2963 C2965 1.327 . S
C2963 C2969 1.429 . S
C2964 C2956 1.574 . S
C2964 H2959 0.949 . S
C2964 C2970 1.368 . S
C2965 C2949 1.349 . S
C2965 H2957 0.950 . S
C2965 C2963 1.327 . S
C2966 C2954 1.349 . S
C2966 H2960 0.950 . S
C2966 C2967 1.327 1_556 S
C2967 H2961 0.950 1_554 S
C2967 C2966 1.327 1_554 S
C2967 C2971 1.429 . S
C2968 C2951 1.574 . S
C2968 H2962 0.949 . S
C2968 C2972 1.368 . S
C2969 C2950 1.429 . S
C2969 C2963 1.429 . S
C2969 C2970 1.523 . S
C2970 C2951 1.368 . S
C2970 C2964 1.368 . S
C2970 C2969 1.523 . S
C2971 C2955 1.429 . S
C2971 C2967 1.429 . S
C2971 C2972 1.523 . S
C2972 C2956 1.368 . S
C2972 C2968 1.368 . S
C2972 C2971 1.523 . S
H2973 C2948 0.950 . S
H2974 C2950 0.950 . S
H2975 C2951 0.949 . S
H2976 C2953 0.950 . S
H2977 C2955 0.950 . S
C2978 C2979 1.349 . S
C2978 C2980 1.327 . S
C2978 H3003 0.950 . S
C2979 C2978 1.349 . S
C2979 C2995 1.349 . S
C2980 C2978 1.327 . S
C2980 C2999 1.429 . S
C2980 H3004 0.950 . S
C2981 C2998 1.574 . S
C2981 C3000 1.368 . S
C2981 H3005 0.949 . S
H2982 C2986 0.949 . S
C2983 C2984 1.349 1_554 S
C2983 C2985 1.327 . S
C2983 H3006 0.950 . S
C2984 C2983 1.349 1_556 S
C2984 C2996 1.349 . S
C2985 C2983 1.327 . S
C2985 C3001 1.429 . S
C2985 H3007 0.950 . S
C2986 H2982 0.949 . S
C2986 C2994 1.574 . S
C2986 C3002 1.368 . S
H2987 C2995 0.950 . S
H2988 C2993 0.950 . S
H2989 C2994 0.949 . S
H2990 C2996 0.950 . S
H2991 C2997 0.950 . S
H2992 C2998 0.949 . S
C2993 H2988 0.950 . S
C2993 C2995 1.327 . S
C2993 C2999 1.429 . S
C2994 C2986 1.574 . S
C2994 H2989 0.949 . S
C2994 C3000 1.368 . S
C2995 C2979 1.349 . S
C2995 H2987 0.950 . S
C2995 C2993 1.327 . S
C2996 C2984 1.349 . S
C2996 H2990 0.950 . S
C2996 C2997 1.327 1_556 S
C2997 H2991 0.950 . S
C2997 C2996 1.327 1_554 S
C2997 C3001 1.429 . S
C2998 C2981 1.574 . S
C2998 H2992 0.949 . S
C2998 C3002 1.368 . S
C2999 C2980 1.429 . S
C2999 C2993 1.429 . S
C2999 C3000 1.523 . S
C3000 C2981 1.368 . S
C3000 C2994 1.368 . S
C3000 C2999 1.523 . S
C3001 C2985 1.429 . S
C3001 C2997 1.429 . S
C3001 C3002 1.523 . S
C3002 C2986 1.368 . S
C3002 C2998 1.368 . S
C3002 C3001 1.523 . S
H3003 C2978 0.950 . S
H3004 C2980 0.950 . S
H3005 C2981 0.949 . S
H3006 C2983 0.950 . S
H3007 C2985 0.950 . S
C3008 C3009 1.349 . S
C3008 C3010 1.327 . S
C3008 H3033 0.950 . S
C3009 C3008 1.349 . S
C3009 C3025 1.349 . S
C3010 C3008 1.327 . S
C3010 C3029 1.429 . S
C3010 H3034 0.950 . S
C3011 C3028 1.574 . S
C3011 C3030 1.368 . S
C3011 H3035 0.949 . S
H3012 C3016 0.949 . S
C3013 C3014 1.349 . S
C3013 C3015 1.327 . S
C3013 H3036 0.950 . S
C3014 C3013 1.349 . S
C3014 C3026 1.349 . S
C3015 C3013 1.327 . S
C3015 C3031 1.429 . S
C3015 H3037 0.950 . S
C3016 H3012 0.949 . S
C3016 C3024 1.574 . S
C3016 C3032 1.368 . S
H3017 C3025 0.950 . S
H3018 C3023 0.950 . S
H3019 C3024 0.949 . S
H3020 C3026 0.950 . S
H3021 C3027 0.950 . S
H3022 C3028 0.949 . S
C3023 H3018 0.950 . S
C3023 C3025 1.327 . S
C3023 C3029 1.429 . S
C3024 C3016 1.574 . S
C3024 H3019 0.949 . S
C3024 C3030 1.368 . S
C3025 C3009 1.349 . S
C3025 H3017 0.950 . S
C3025 C3023 1.327 . S
C3026 C3014 1.349 . S
C3026 H3020 0.950 . S
C3026 C3027 1.327 . S
C3027 H3021 0.950 . S
C3027 C3026 1.327 . S
C3027 C3031 1.429 . S
C3028 C3011 1.574 . S
C3028 H3022 0.949 . S
C3028 C3032 1.368 . S
C3029 C3010 1.429 . S
C3029 C3023 1.429 . S
C3029 C3030 1.523 . S
C3030 C3011 1.368 . S
C3030 C3024 1.368 . S
C3030 C3029 1.523 . S
C3031 C3015 1.429 . S
C3031 C3027 1.429 . S
C3031 C3032 1.523 . S
C3032 C3016 1.368 . S
C3032 C3028 1.368 . S
C3032 C3031 1.523 . S
H3033 C3008 0.950 . S
H3034 C3010 0.950 . S
H3035 C3011 0.949 . S
H3036 C3013 0.950 . S
H3037 C3015 0.950 . S
C3038 C3039 1.349 . S
C3038 C3040 1.327 . S
C3038 H3063 0.950 . S
C3039 C3038 1.349 . S
C3039 C3055 1.349 . S
C3040 C3038 1.327 . S
C3040 C3059 1.429 . S
C3040 H3064 0.950 . S
C3041 C3058 1.574 . S
C3041 C3060 1.368 . S
C3041 H3065 0.949 . S
H3042 C3046 0.949 . S
C3043 C3044 1.349 . S
C3043 C3045 1.327 . S
C3043 H3066 0.950 . S
C3044 C3043 1.349 . S
C3044 C3056 1.349 . S
C3045 C3043 1.327 . S
C3045 C3061 1.429 . S
C3045 H3067 0.950 . S
C3046 H3042 0.949 . S
C3046 C3054 1.574 . S
C3046 C3062 1.368 . S
H3047 C3055 0.950 . S
H3048 C3053 0.950 . S
H3049 C3054 0.949 . S
H3050 C3056 0.950 . S
H3051 C3057 0.950 . S
H3052 C3058 0.949 . S
C3053 H3048 0.950 . S
C3053 C3055 1.327 . S
C3053 C3059 1.429 . S
C3054 C3046 1.574 . S
C3054 H3049 0.949 . S
C3054 C3060 1.368 . S
C3055 C3039 1.349 . S
C3055 H3047 0.950 . S
C3055 C3053 1.327 . S
C3056 C3044 1.349 . S
C3056 H3050 0.950 . S
C3056 C3057 1.327 . S
C3057 H3051 0.950 . S
C3057 C3056 1.327 . S
C3057 C3061 1.429 . S
C3058 C3041 1.574 . S
C3058 H3052 0.949 . S
C3058 C3062 1.368 . S
C3059 C3040 1.429 . S
C3059 C3053 1.429 . S
C3059 C3060 1.523 . S
C3060 C3041 1.368 . S
C3060 C3054 1.368 . S
C3060 C3059 1.523 . S
C3061 C3045 1.429 . S
C3061 C3057 1.429 . S
C3061 C3062 1.523 . S
C3062 C3046 1.368 . S
C3062 C3058 1.368 . S
C3062 C3061 1.523 . S
H3063 C3038 0.950 . S
H3064 C3040 0.950 . S
H3065 C3041 0.949 . S
H3066 C3043 0.950 . S
H3067 C3045 0.950 . S
C3068 C3069 1.349 . S
C3068 C3070 1.327 . S
C3068 H3093 0.950 . S
C3069 C3068 1.349 . S
C3069 C3085 1.349 . S
C3070 C3068 1.327 . S
C3070 C3089 1.429 . S
C3070 H3094 0.950 . S
C3071 C3088 1.574 . S
C3071 C3090 1.368 . S
C3071 H3095 0.949 . S
H3072 C3076 0.949 . S
C3073 C3074 1.349 . S
C3073 C3075 1.327 . S
C3073 H3096 0.950 . S
C3074 C3073 1.349 . S
C3074 C3086 1.349 . S
C3075 C3073 1.327 . S
C3075 C3091 1.429 . S
C3075 H3097 0.950 . S
C3076 H3072 0.949 . S
C3076 C3084 1.574 . S
C3076 C3092 1.368 . S
H3077 C3085 0.950 . S
H3078 C3083 0.950 . S
H3079 C3084 0.949 . S
H3080 C3086 0.950 . S
H3081 C3087 0.950 . S
H3082 C3088 0.949 . S
C3083 H3078 0.950 . S
C3083 C3085 1.327 . S
C3083 C3089 1.429 . S
C3084 C3076 1.574 . S
C3084 H3079 0.949 . S
C3084 C3090 1.368 . S
C3085 C3069 1.349 . S
C3085 H3077 0.950 . S
C3085 C3083 1.327 . S
C3086 C3074 1.349 . S
C3086 H3080 0.950 . S
C3086 C3087 1.327 . S
C3087 H3081 0.950 . S
C3087 C3086 1.327 . S
C3087 C3091 1.429 . S
C3088 C3071 1.574 . S
C3088 H3082 0.949 . S
C3088 C3092 1.368 . S
C3089 C3070 1.429 . S
C3089 C3083 1.429 . S
C3089 C3090 1.523 . S
C3090 C3071 1.368 . S
C3090 C3084 1.368 . S
C3090 C3089 1.523 . S
C3091 C3075 1.429 . S
C3091 C3087 1.429 . S
C3091 C3092 1.523 . S
C3092 C3076 1.368 . S
C3092 C3088 1.368 . S
C3092 C3091 1.523 . S
H3093 C3068 0.950 . S
H3094 C3070 0.950 . S
H3095 C3071 0.949 . S
H3096 C3073 0.950 . S
H3097 C3075 0.950 . S
C3098 C3099 1.349 . S
C3098 C3100 1.327 . S
C3098 H3123 0.950 . S
C3099 C3098 1.349 . S
C3099 C3115 1.349 . S
C3100 C3098 1.327 . S
C3100 C3119 1.429 . S
C3100 H3124 0.950 . S
C3101 C3118 1.574 . S
C3101 C3120 1.368 . S
C3101 H3125 0.949 . S
H3102 C3106 0.949 . S
C3103 C3104 1.349 . S
C3103 C3105 1.327 . S
C3103 H3126 0.950 . S
C3104 C3103 1.349 . S
C3104 C3116 1.349 . S
C3105 C3103 1.327 . S
C3105 C3121 1.429 . S
C3105 H3127 0.950 . S
C3106 H3102 0.949 . S
C3106 C3114 1.574 . S
C3106 C3122 1.368 . S
H3107 C3115 0.950 . S
H3108 C3113 0.950 . S
H3109 C3114 0.949 . S
H3110 C3116 0.950 . S
H3111 C3117 0.950 . S
H3112 C3118 0.949 . S
C3113 H3108 0.950 . S
C3113 C3115 1.327 . S
C3113 C3119 1.429 . S
C3114 C3106 1.574 . S
C3114 H3109 0.949 . S
C3114 C3120 1.368 . S
C3115 C3099 1.349 . S
C3115 H3107 0.950 . S
C3115 C3113 1.327 . S
C3116 C3104 1.349 . S
C3116 H3110 0.950 . S
C3116 C3117 1.327 . S
C3117 H3111 0.950 . S
C3117 C3116 1.327 . S
C3117 C3121 1.429 . S
C3118 C3101 1.574 . S
C3118 H3112 0.949 . S
C3118 C3122 1.368 . S
C3119 C3100 1.429 . S
C3119 C3113 1.429 . S
C3119 C3120 1.523 . S
C3120 C3101 1.368 . S
C3120 C3114 1.368 . S
C3120 C3119 1.523 . S
C3121 C3105 1.429 . S
C3121 C3117 1.429 . S
C3121 C3122 1.523 . S
C3122 C3106 1.368 . S
C3122 C3118 1.368 . S
C3122 C3121 1.523 . S
H3123 C3098 0.950 . S
H3124 C3100 0.950 . S
H3125 C3101 0.949 . S
H3126 C3103 0.950 . S
H3127 C3105 0.950 . S
C3128 C3129 1.349 . S
C3128 C3130 1.327 . S
C3128 H3153 0.950 . S
C3129 C3128 1.349 . S
C3129 C3145 1.349 . S
C3130 C3128 1.327 . S
C3130 C3149 1.429 . S
C3130 H3154 0.950 . S
C3131 C3148 1.574 . S
C3131 C3150 1.368 . S
C3131 H3155 0.949 . S
H3132 C3136 0.949 . S
C3133 C3134 1.349 . S
C3133 C3135 1.327 . S
C3133 H3156 0.950 . S
C3134 C3133 1.349 . S
C3134 C3146 1.349 . S
C3135 C3133 1.327 . S
C3135 C3151 1.429 . S
C3135 H3157 0.950 . S
C3136 H3132 0.949 . S
C3136 C3144 1.574 . S
C3136 C3152 1.368 . S
H3137 C3145 0.950 . S
H3138 C3143 0.950 . S
H3139 C3144 0.949 . S
H3140 C3146 0.950 . S
H3141 C3147 0.950 . S
H3142 C3148 0.949 . S
C3143 H3138 0.950 . S
C3143 C3145 1.327 . S
C3143 C3149 1.429 . S
C3144 C3136 1.574 . S
C3144 H3139 0.949 . S
C3144 C3150 1.368 . S
C3145 C3129 1.349 . S
C3145 H3137 0.950 . S
C3145 C3143 1.327 . S
C3146 C3134 1.349 . S
C3146 H3140 0.950 . S
C3146 C3147 1.327 . S
C3147 H3141 0.950 . S
C3147 C3146 1.327 . S
C3147 C3151 1.429 . S
C3148 C3131 1.574 . S
C3148 H3142 0.949 . S
C3148 C3152 1.368 . S
C3149 C3130 1.429 . S
C3149 C3143 1.429 . S
C3149 C3150 1.523 . S
C3150 C3131 1.368 . S
C3150 C3144 1.368 . S
C3150 C3149 1.523 . S
C3151 C3135 1.429 . S
C3151 C3147 1.429 . S
C3151 C3152 1.523 . S
C3152 C3136 1.368 . S
C3152 C3148 1.368 . S
C3152 C3151 1.523 . S
H3153 C3128 0.950 . S
H3154 C3130 0.950 . S
H3155 C3131 0.949 . S
H3156 C3133 0.950 . S
H3157 C3135 0.950 . S
C3158 C3159 1.349 . S
C3158 C3160 1.327 . S
C3158 H3183 0.950 . S
C3159 C3158 1.349 . S
C3159 C3175 1.349 . S
C3160 C3158 1.327 . S
C3160 C3179 1.429 . S
C3160 H3184 0.950 . S
C3161 C3178 1.574 . S
C3161 C3180 1.368 . S
C3161 H3185 0.949 . S
H3162 C3166 0.949 . S
C3163 C3164 1.349 . S
C3163 C3165 1.327 . S
C3163 H3186 0.950 . S
C3164 C3163 1.349 . S
C3164 C3176 1.349 . S
C3165 C3163 1.327 . S
C3165 C3181 1.429 . S
C3165 H3187 0.950 . S
C3166 H3162 0.949 . S
C3166 C3174 1.574 . S
C3166 C3182 1.368 . S
H3167 C3175 0.950 . S
H3168 C3173 0.950 . S
H3169 C3174 0.949 . S
H3170 C3176 0.950 . S
H3171 C3177 0.950 . S
H3172 C3178 0.949 . S
C3173 H3168 0.950 . S
C3173 C3175 1.327 . S
C3173 C3179 1.429 . S
C3174 C3166 1.574 . S
C3174 H3169 0.949 . S
C3174 C3180 1.368 . S
C3175 C3159 1.349 . S
C3175 H3167 0.950 . S
C3175 C3173 1.327 . S
C3176 C3164 1.349 . S
C3176 H3170 0.950 . S
C3176 C3177 1.327 . S
C3177 H3171 0.950 . S
C3177 C3176 1.327 . S
C3177 C3181 1.429 . S
C3178 C3161 1.574 . S
C3178 H3172 0.949 . S
C3178 C3182 1.368 . S
C3179 C3160 1.429 . S
C3179 C3173 1.429 . S
C3179 C3180 1.523 . S
C3180 C3161 1.368 . S
C3180 C3174 1.368 . S
C3180 C3179 1.523 . S
C3181 C3165 1.429 . S
C3181 C3177 1.429 . S
C3181 C3182 1.523 . S
C3182 C3166 1.368 . S
C3182 C3178 1.368 . S
C3182 C3181 1.523 . S
H3183 C3158 0.950 . S
H3184 C3160 0.950 . S
H3185 C3161 0.949 . S
H3186 C3163 0.950 . S
H3187 C3165 0.950 . S
C3188 C3189 1.349 . S
C3188 C3190 1.327 . S
C3188 H3213 0.950 . S
C3189 C3188 1.349 . S
C3189 C3205 1.349 . S
C3190 C3188 1.327 . S
C3190 C3209 1.429 . S
C3190 H3214 0.950 . S
C3191 C3208 1.574 . S
C3191 C3210 1.368 . S
C3191 H3215 0.949 . S
H3192 C3196 0.949 . S
C3193 C3194 1.349 . S
C3193 C3195 1.327 . S
C3193 H3216 0.950 . S
C3194 C3193 1.349 . S
C3194 C3206 1.349 . S
C3195 C3193 1.327 . S
C3195 C3211 1.429 . S
C3195 H3217 0.950 . S
C3196 H3192 0.949 . S
C3196 C3204 1.574 . S
C3196 C3212 1.368 . S
H3197 C3205 0.950 . S
H3198 C3203 0.950 . S
H3199 C3204 0.949 . S
H3200 C3206 0.950 . S
H3201 C3207 0.950 . S
H3202 C3208 0.949 . S
C3203 H3198 0.950 . S
C3203 C3205 1.327 . S
C3203 C3209 1.429 . S
C3204 C3196 1.574 . S
C3204 H3199 0.949 . S
C3204 C3210 1.368 . S
C3205 C3189 1.349 . S
C3205 H3197 0.950 . S
C3205 C3203 1.327 . S
C3206 C3194 1.349 . S
C3206 H3200 0.950 . S
C3206 C3207 1.327 . S
C3207 H3201 0.950 . S
C3207 C3206 1.327 . S
C3207 C3211 1.429 . S
C3208 C3191 1.574 . S
C3208 H3202 0.949 . S
C3208 C3212 1.368 . S
C3209 C3190 1.429 . S
C3209 C3203 1.429 . S
C3209 C3210 1.523 . S
C3210 C3191 1.368 . S
C3210 C3204 1.368 . S
C3210 C3209 1.523 . S
C3211 C3195 1.429 . S
C3211 C3207 1.429 . S
C3211 C3212 1.523 . S
C3212 C3196 1.368 . S
C3212 C3208 1.368 . S
C3212 C3211 1.523 . S
H3213 C3188 0.950 . S
H3214 C3190 0.950 . S
H3215 C3191 0.949 . S
H3216 C3193 0.950 . S
H3217 C3195 0.950 . S
C3218 C3219 1.349 . S
C3218 C3220 1.327 . S
C3218 H3243 0.950 . S
C3219 C3218 1.349 . S
C3219 C3235 1.349 . S
C3220 C3218 1.327 . S
C3220 C3239 1.429 . S
C3220 H3244 0.950 . S
C3221 C3238 1.574 . S
C3221 C3240 1.368 . S
C3221 H3245 0.949 . S
H3222 C3226 0.949 . S
C3223 C3224 1.349 . S
C3223 C3225 1.327 . S
C3223 H3246 0.950 . S
C3224 C3223 1.349 . S
C3224 C3236 1.349 . S
C3225 C3223 1.327 . S
C3225 C3241 1.429 . S
C3225 H3247 0.950 . S
C3226 H3222 0.949 . S
C3226 C3234 1.574 . S
C3226 C3242 1.368 . S
H3227 C3235 0.950 . S
H3228 C3233 0.950 . S
H3229 C3234 0.949 . S
H3230 C3236 0.950 . S
H3231 C3237 0.950 . S
H3232 C3238 0.949 . S
C3233 H3228 0.950 . S
C3233 C3235 1.327 . S
C3233 C3239 1.429 . S
C3234 C3226 1.574 . S
C3234 H3229 0.949 . S
C3234 C3240 1.368 . S
C3235 C3219 1.349 . S
C3235 H3227 0.950 . S
C3235 C3233 1.327 . S
C3236 C3224 1.349 . S
C3236 H3230 0.950 . S
C3236 C3237 1.327 . S
C3237 H3231 0.950 . S
C3237 C3236 1.327 . S
C3237 C3241 1.429 . S
C3238 C3221 1.574 . S
C3238 H3232 0.949 . S
C3238 C3242 1.368 . S
C3239 C3220 1.429 . S
C3239 C3233 1.429 . S
C3239 C3240 1.523 . S
C3240 C3221 1.368 . S
C3240 C3234 1.368 . S
C3240 C3239 1.523 . S
C3241 C3225 1.429 . S
C3241 C3237 1.429 . S
C3241 C3242 1.523 . S
C3242 C3226 1.368 . S
C3242 C3238 1.368 . S
C3242 C3241 1.523 . S
H3243 C3218 0.950 . S
H3244 C3220 0.950 . S
H3245 C3221 0.949 . S
H3246 C3223 0.950 . S
H3247 C3225 0.950 . S
C3248 C3249 1.349 . S
C3248 C3250 1.327 . S
C3248 H3273 0.950 . S
C3249 C3248 1.349 . S
C3249 C3265 1.349 . S
C3250 C3248 1.327 . S
C3250 C3269 1.429 . S
C3250 H3274 0.950 . S
C3251 C3268 1.574 . S
C3251 C3270 1.368 . S
C3251 H3275 0.949 . S
H3252 C3256 0.949 . S
C3253 C3254 1.349 . S
C3253 C3255 1.327 . S
C3253 H3276 0.950 . S
C3254 C3253 1.349 . S
C3254 C3266 1.349 . S
C3255 C3253 1.327 . S
C3255 C3271 1.429 . S
C3255 H3277 0.950 . S
C3256 H3252 0.949 . S
C3256 C3264 1.574 . S
C3256 C3272 1.368 . S
H3257 C3265 0.950 . S
H3258 C3263 0.950 . S
H3259 C3264 0.949 . S
H3260 C3266 0.950 . S
H3261 C3267 0.950 . S
H3262 C3268 0.949 . S
C3263 H3258 0.950 . S
C3263 C3265 1.327 . S
C3263 C3269 1.429 . S
C3264 C3256 1.574 . S
C3264 H3259 0.949 . S
C3264 C3270 1.368 . S
C3265 C3249 1.349 . S
C3265 H3257 0.950 . S
C3265 C3263 1.327 . S
C3266 C3254 1.349 . S
C3266 H3260 0.950 . S
C3266 C3267 1.327 . S
C3267 H3261 0.950 . S
C3267 C3266 1.327 . S
C3267 C3271 1.429 . S
C3268 C3251 1.574 . S
C3268 H3262 0.949 . S
C3268 C3272 1.368 . S
C3269 C3250 1.429 . S
C3269 C3263 1.429 . S
C3269 C3270 1.523 . S
C3270 C3251 1.368 . S
C3270 C3264 1.368 . S
C3270 C3269 1.523 . S
C3271 C3255 1.429 . S
C3271 C3267 1.429 . S
C3271 C3272 1.523 . S
C3272 C3256 1.368 . S
C3272 C3268 1.368 . S
C3272 C3271 1.523 . S
H3273 C3248 0.950 . S
H3274 C3250 0.950 . S
H3275 C3251 0.949 . S
H3276 C3253 0.950 . S
H3277 C3255 0.950 . S
C3278 C3279 1.349 . S
C3278 C3280 1.327 . S
C3278 H3303 0.950 . S
C3279 C3278 1.349 . S
C3279 C3295 1.349 . S
C3280 C3278 1.327 . S
C3280 C3299 1.429 . S
C3280 H3304 0.950 . S
C3281 C3298 1.574 . S
C3281 C3300 1.368 . S
C3281 H3305 0.949 . S
H3282 C3286 0.949 . S
C3283 C3284 1.349 . S
C3283 C3285 1.327 . S
C3283 H3306 0.950 . S
C3284 C3283 1.349 . S
C3284 C3296 1.349 . S
C3285 C3283 1.327 . S
C3285 C3301 1.429 . S
C3285 H3307 0.950 . S
C3286 H3282 0.949 . S
C3286 C3294 1.574 . S
C3286 C3302 1.368 . S
H3287 C3295 0.950 . S
H3288 C3293 0.950 . S
H3289 C3294 0.949 . S
H3290 C3296 0.950 . S
H3291 C3297 0.950 . S
H3292 C3298 0.949 . S
C3293 H3288 0.950 . S
C3293 C3295 1.327 . S
C3293 C3299 1.429 . S
C3294 C3286 1.574 . S
C3294 H3289 0.949 . S
C3294 C3300 1.368 . S
C3295 C3279 1.349 . S
C3295 H3287 0.950 . S
C3295 C3293 1.327 . S
C3296 C3284 1.349 . S
C3296 H3290 0.950 . S
C3296 C3297 1.327 . S
C3297 H3291 0.950 . S
C3297 C3296 1.327 . S
C3297 C3301 1.429 . S
C3298 C3281 1.574 . S
C3298 H3292 0.949 . S
C3298 C3302 1.368 . S
C3299 C3280 1.429 . S
C3299 C3293 1.429 . S
C3299 C3300 1.523 . S
C3300 C3281 1.368 . S
C3300 C3294 1.368 . S
C3300 C3299 1.523 . S
C3301 C3285 1.429 . S
C3301 C3297 1.429 . S
C3301 C3302 1.523 . S
C3302 C3286 1.368 . S
C3302 C3298 1.368 . S
C3302 C3301 1.523 . S
H3303 C3278 0.950 . S
H3304 C3280 0.950 . S
H3305 C3281 0.949 . S
H3306 C3283 0.950 . S
H3307 C3285 0.950 . S
C3308 C3309 1.349 . S
C3308 C3310 1.327 . S
C3308 H3333 0.950 . S
C3309 C3308 1.349 . S
C3309 C3325 1.349 . S
C3310 C3308 1.327 . S
C3310 C3329 1.429 . S
C3310 H3334 0.950 . S
C3311 C3328 1.574 . S
C3311 C3330 1.368 . S
C3311 H3335 0.949 . S
H3312 C3316 0.949 . S
C3313 C3314 1.349 . S
C3313 C3315 1.327 . S
C3313 H3336 0.950 . S
C3314 C3313 1.349 . S
C3314 C3326 1.349 . S
C3315 C3313 1.327 . S
C3315 C3331 1.429 . S
C3315 H3337 0.950 . S
C3316 H3312 0.949 . S
C3316 C3324 1.574 . S
C3316 C3332 1.368 . S
H3317 C3325 0.950 . S
H3318 C3323 0.950 . S
H3319 C3324 0.949 . S
H3320 C3326 0.950 . S
H3321 C3327 0.950 . S
H3322 C3328 0.949 . S
C3323 H3318 0.950 . S
C3323 C3325 1.327 . S
C3323 C3329 1.429 . S
C3324 C3316 1.574 . S
C3324 H3319 0.949 . S
C3324 C3330 1.368 . S
C3325 C3309 1.349 . S
C3325 H3317 0.950 . S
C3325 C3323 1.327 . S
C3326 C3314 1.349 . S
C3326 H3320 0.950 . S
C3326 C3327 1.327 . S
C3327 H3321 0.950 . S
C3327 C3326 1.327 . S
C3327 C3331 1.429 . S
C3328 C3311 1.574 . S
C3328 H3322 0.949 . S
C3328 C3332 1.368 . S
C3329 C3310 1.429 . S
C3329 C3323 1.429 . S
C3329 C3330 1.523 . S
C3330 C3311 1.368 . S
C3330 C3324 1.368 . S
C3330 C3329 1.523 . S
C3331 C3315 1.429 . S
C3331 C3327 1.429 . S
C3331 C3332 1.523 . S
C3332 C3316 1.368 . S
C3332 C3328 1.368 . S
C3332 C3331 1.523 . S
H3333 C3308 0.950 . S
H3334 C3310 0.950 . S
H3335 C3311 0.949 . S
H3336 C3313 0.950 . S
H3337 C3315 0.950 . S
C3338 C3339 1.349 . S
C3338 C3340 1.327 . S
C3338 H3363 0.950 . S
C3339 C3338 1.349 . S
C3339 C3355 1.349 . S
C3340 C3338 1.327 . S
C3340 C3359 1.429 . S
C3340 H3364 0.950 . S
C3341 C3358 1.574 . S
C3341 C3360 1.368 . S
C3341 H3365 0.949 . S
H3342 C3346 0.949 . S
C3343 C3344 1.349 . S
C3343 C3345 1.327 . S
C3343 H3366 0.950 . S
C3344 C3343 1.349 . S
C3344 C3356 1.349 . S
C3345 C3343 1.327 . S
C3345 C3361 1.429 . S
C3345 H3367 0.950 . S
C3346 H3342 0.949 . S
C3346 C3354 1.574 . S
C3346 C3362 1.368 . S
H3347 C3355 0.950 . S
H3348 C3353 0.950 . S
H3349 C3354 0.949 . S
H3350 C3356 0.950 . S
H3351 C3357 0.950 . S
H3352 C3358 0.949 . S
C3353 H3348 0.950 . S
C3353 C3355 1.327 . S
C3353 C3359 1.429 . S
C3354 C3346 1.574 . S
C3354 H3349 0.949 . S
C3354 C3360 1.368 . S
C3355 C3339 1.349 . S
C3355 H3347 0.950 . S
C3355 C3353 1.327 . S
C3356 C3344 1.349 . S
C3356 H3350 0.950 . S
C3356 C3357 1.327 . S
C3357 H3351 0.950 . S
C3357 C3356 1.327 . S
C3357 C3361 1.429 . S
C3358 C3341 1.574 . S
C3358 H3352 0.949 . S
C3358 C3362 1.368 . S
C3359 C3340 1.429 . S
C3359 C3353 1.429 . S
C3359 C3360 1.523 . S
C3360 C3341 1.368 . S
C3360 C3354 1.368 . S
C3360 C3359 1.523 . S
C3361 C3345 1.429 . S
C3361 C3357 1.429 . S
C3361 C3362 1.523 . S
C3362 C3346 1.368 . S
C3362 C3358 1.368 . S
C3362 C3361 1.523 . S
H3363 C3338 0.950 . S
H3364 C3340 0.950 . S
H3365 C3341 0.949 . S
H3366 C3343 0.950 . S
H3367 C3345 0.950 . S
C3368 C3369 1.349 . S
C3368 C3370 1.327 . S
C3368 H3393 0.950 . S
C3369 C3368 1.349 . S
C3369 C3385 1.349 . S
C3370 C3368 1.327 . S
C3370 C3389 1.429 . S
C3370 H3394 0.950 . S
C3371 C3388 1.574 . S
C3371 C3390 1.368 . S
C3371 H3395 0.949 . S
H3372 C3376 0.949 . S
C3373 C3374 1.349 . S
C3373 C3375 1.327 . S
C3373 H3396 0.950 . S
C3374 C3373 1.349 . S
C3374 C3386 1.349 . S
C3375 C3373 1.327 . S
C3375 C3391 1.429 . S
C3375 H3397 0.950 . S
C3376 H3372 0.949 . S
C3376 C3384 1.574 . S
C3376 C3392 1.368 . S
H3377 C3385 0.950 . S
H3378 C3383 0.950 . S
H3379 C3384 0.949 . S
H3380 C3386 0.950 . S
H3381 C3387 0.950 . S
H3382 C3388 0.949 . S
C3383 H3378 0.950 . S
C3383 C3385 1.327 . S
C3383 C3389 1.429 . S
C3384 C3376 1.574 . S
C3384 H3379 0.949 . S
C3384 C3390 1.368 . S
C3385 C3369 1.349 . S
C3385 H3377 0.950 . S
C3385 C3383 1.327 . S
C3386 C3374 1.349 . S
C3386 H3380 0.950 . S
C3386 C3387 1.327 . S
C3387 H3381 0.950 . S
C3387 C3386 1.327 . S
C3387 C3391 1.429 . S
C3388 C3371 1.574 . S
C3388 H3382 0.949 . S
C3388 C3392 1.368 . S
C3389 C3370 1.429 . S
C3389 C3383 1.429 . S
C3389 C3390 1.523 . S
C3390 C3371 1.368 . S
C3390 C3384 1.368 . S
C3390 C3389 1.523 . S
C3391 C3375 1.429 . S
C3391 C3387 1.429 . S
C3391 C3392 1.523 . S
C3392 C3376 1.368 . S
C3392 C3388 1.368 . S
C3392 C3391 1.523 . S
H3393 C3368 0.950 . S
H3394 C3370 0.950 . S
H3395 C3371 0.949 . S
H3396 C3373 0.950 . S
H3397 C3375 0.950 . S
C3398 C3399 1.349 . S
C3398 C3400 1.327 . S
C3398 H3423 0.950 . S
C3399 C3398 1.349 . S
C3399 C3415 1.349 . S
C3400 C3398 1.327 . S
C3400 C3419 1.429 . S
C3400 H3424 0.950 . S
C3401 C3418 1.574 . S
C3401 C3420 1.368 . S
C3401 H3425 0.949 . S
H3402 C3406 0.949 . S
C3403 C3404 1.349 . S
C3403 C3405 1.327 . S
C3403 H3426 0.950 . S
C3404 C3403 1.349 . S
C3404 C3416 1.349 . S
C3405 C3403 1.327 . S
C3405 C3421 1.429 . S
C3405 H3427 0.950 . S
C3406 H3402 0.949 . S
C3406 C3414 1.574 . S
C3406 C3422 1.368 . S
H3407 C3415 0.950 . S
H3408 C3413 0.950 . S
H3409 C3414 0.949 . S
H3410 C3416 0.950 . S
H3411 C3417 0.950 . S
H3412 C3418 0.949 . S
C3413 H3408 0.950 . S
C3413 C3415 1.327 . S
C3413 C3419 1.429 . S
C3414 C3406 1.574 . S
C3414 H3409 0.949 . S
C3414 C3420 1.368 . S
C3415 C3399 1.349 . S
C3415 H3407 0.950 . S
C3415 C3413 1.327 . S
C3416 C3404 1.349 . S
C3416 H3410 0.950 . S
C3416 C3417 1.327 . S
C3417 H3411 0.950 . S
C3417 C3416 1.327 . S
C3417 C3421 1.429 . S
C3418 C3401 1.574 . S
C3418 H3412 0.949 . S
C3418 C3422 1.368 . S
C3419 C3400 1.429 . S
C3419 C3413 1.429 . S
C3419 C3420 1.523 . S
C3420 C3401 1.368 . S
C3420 C3414 1.368 . S
C3420 C3419 1.523 . S
C3421 C3405 1.429 . S
C3421 C3417 1.429 . S
C3421 C3422 1.523 . S
C3422 C3406 1.368 . S
C3422 C3418 1.368 . S
C3422 C3421 1.523 . S
H3423 C3398 0.950 . S
H3424 C3400 0.950 . S
H3425 C3401 0.949 . S
H3426 C3403 0.950 . S
H3427 C3405 0.950 . S
C3428 C3429 1.349 . S
C3428 C3430 1.327 . S
C3428 H3453 0.950 . S
C3429 C3428 1.349 . S
C3429 C3445 1.349 . S
C3430 C3428 1.327 . S
C3430 C3449 1.429 . S
C3430 H3454 0.950 . S
C3431 C3448 1.574 . S
C3431 C3450 1.368 . S
C3431 H3455 0.949 . S
H3432 C3436 0.949 . S
C3433 C3434 1.349 . S
C3433 C3435 1.327 . S
C3433 H3456 0.950 . S
C3434 C3433 1.349 . S
C3434 C3446 1.349 . S
C3435 C3433 1.327 . S
C3435 C3451 1.429 . S
C3435 H3457 0.950 . S
C3436 H3432 0.949 . S
C3436 C3444 1.574 . S
C3436 C3452 1.368 . S
H3437 C3445 0.950 . S
H3438 C3443 0.950 . S
H3439 C3444 0.949 . S
H3440 C3446 0.950 . S
H3441 C3447 0.950 . S
H3442 C3448 0.949 . S
C3443 H3438 0.950 . S
C3443 C3445 1.327 . S
C3443 C3449 1.429 . S
C3444 C3436 1.574 . S
C3444 H3439 0.949 . S
C3444 C3450 1.368 . S
C3445 C3429 1.349 . S
C3445 H3437 0.950 . S
C3445 C3443 1.327 . S
C3446 C3434 1.349 . S
C3446 H3440 0.950 . S
C3446 C3447 1.327 . S
C3447 H3441 0.950 . S
C3447 C3446 1.327 . S
C3447 C3451 1.429 . S
C3448 C3431 1.574 . S
C3448 H3442 0.949 . S
C3448 C3452 1.368 . S
C3449 C3430 1.429 . S
C3449 C3443 1.429 . S
C3449 C3450 1.523 . S
C3450 C3431 1.368 . S
C3450 C3444 1.368 . S
C3450 C3449 1.523 . S
C3451 C3435 1.429 . S
C3451 C3447 1.429 . S
C3451 C3452 1.523 . S
C3452 C3436 1.368 . S
C3452 C3448 1.368 . S
C3452 C3451 1.523 . S
H3453 C3428 0.950 . S
H3454 C3430 0.950 . S
H3455 C3431 0.949 . S
H3456 C3433 0.950 . S
H3457 C3435 0.950 . S
C3458 C3459 1.349 . S
C3458 C3460 1.327 . S
C3458 H3483 0.950 . S
C3459 C3458 1.349 . S
C3459 C3475 1.349 . S
C3460 C3458 1.327 . S
C3460 C3479 1.429 . S
C3460 H3484 0.950 . S
C3461 C3478 1.574 . S
C3461 C3480 1.368 . S
C3461 H3485 0.949 . S
H3462 C3466 0.949 . S
C3463 C3464 1.349 . S
C3463 C3465 1.327 . S
C3463 H3486 0.950 . S
C3464 C3463 1.349 . S
C3464 C3476 1.349 . S
C3465 C3463 1.327 . S
C3465 C3481 1.429 . S
C3465 H3487 0.950 . S
C3466 H3462 0.949 . S
C3466 C3474 1.574 . S
C3466 C3482 1.368 . S
H3467 C3475 0.950 . S
H3468 C3473 0.950 . S
H3469 C3474 0.949 . S
H3470 C3476 0.950 . S
H3471 C3477 0.950 . S
H3472 C3478 0.949 . S
C3473 H3468 0.950 . S
C3473 C3475 1.327 . S
C3473 C3479 1.429 . S
C3474 C3466 1.574 . S
C3474 H3469 0.949 . S
C3474 C3480 1.368 . S
C3475 C3459 1.349 . S
C3475 H3467 0.950 . S
C3475 C3473 1.327 . S
C3476 C3464 1.349 . S
C3476 H3470 0.950 . S
C3476 C3477 1.327 . S
C3477 H3471 0.950 . S
C3477 C3476 1.327 . S
C3477 C3481 1.429 . S
C3478 C3461 1.574 . S
C3478 H3472 0.949 . S
C3478 C3482 1.368 . S
C3479 C3460 1.429 . S
C3479 C3473 1.429 . S
C3479 C3480 1.523 . S
C3480 C3461 1.368 . S
C3480 C3474 1.368 . S
C3480 C3479 1.523 . S
C3481 C3465 1.429 . S
C3481 C3477 1.429 . S
C3481 C3482 1.523 . S
C3482 C3466 1.368 . S
C3482 C3478 1.368 . S
C3482 C3481 1.523 . S
H3483 C3458 0.950 . S
H3484 C3460 0.950 . S
H3485 C3461 0.949 . S
H3486 C3463 0.950 . S
H3487 C3465 0.950 . S
C1089 C20 1.332 . S
C1094 C88 1.332 . S
C1119 C122 1.332 . S
C1124 C54 1.332 . S
C1149 C156 1.332 . S
C1154 C224 1.332 . S
C1179 C258 1.332 . S
C1184 C190 1.332 . S
C1209 C292 1.331 . S
C1214 C360 1.331 . S
C1239 C394 1.331 . S
C1244 C326 1.331 . S
C1269 C428 1.331 . S
C1274 C496 1.331 . S
C1299 C530 1.331 . S
C1304 C462 1.331 . S
C1329 C632 1.332 . S
C1334 C564 1.332 . S
C1359 C666 1.332 . S
C1364 C598 1.332 . S
C1389 C700 1.332 . S
C1394 C768 1.332 . S
C1419 C734 1.332 . S
C1424 C802 1.332 . S
C1449 C904 1.331 . S
C1454 C836 1.331 . S
C1479 C938 1.331 . S
C1484 C870 1.331 . S
C1509 C972 1.331 . S
C1514 C1040 1.331 . S
C1539 C1006 1.331 . S
C1544 C1074 1.331 . S
C1569 C9 1.428 . S
C1574 C145 1.428 . S
C1599 C43 1.428 . S
C1604 C995 1.428 . S
C1629 C485 1.428 . S
C1634 C77 1.428 . S
C1659 C791 1.428 . S
C1664 C111 1.428 . S
C1689 C179 1.428 . S
C1694 C859 1.428 . S
C1719 C349 1.428 . S
C1724 C213 1.428 . S
C1749 C247 1.428 . S
C1754 C655 1.428 . S
C1779 C281 1.428 . S
C1784 C417 1.428 . S
C1809 C315 1.428 . S
C1814 C723 1.428 . S
C1839 C1063 1.428 . S
C1844 C383 1.428 . S
C1869 C587 1.428 . S
C1874 C451 1.428 . S
C1899 C519 1.428 . S
C1904 C927 1.428 . S
C1929 C553 1.428 . S
C1934 C689 1.428 . S
C1959 C621 1.428 . S
C1964 C1029 1.428 . S
C1989 C757 1.428 . S
C1994 C893 1.428 . S
C2019 C961 1.428 . S
C2024 C825 1.428 . S
C2049 C33 1.782 . S
C2054 C373 1.782 . S
C2079 C67 1.782 . S
C2084 C407 1.782 . S
C2109 C101 1.782 . S
C2114 C305 1.782 . S
C2139 C339 1.782 . S
C2144 C135 1.782 . S
C2169 C169 1.782 . S
C2174 C509 1.782 . S
C2199 C203 1.782 . S
C2204 C543 1.782 . S
C2229 C237 1.782 . S
C2234 C441 1.782 . S
C2259 C475 1.782 . S
C2264 C271 1.782 . S
C2289 C917 1.782 . S
C2294 C577 1.782 . S
C2319 C611 1.782 . S
C2324 C951 1.782 . S
C2349 C645 1.782 . S
C2354 C849 1.782 . S
C2379 C883 1.782 . S
C2384 C679 1.782 . S
C2409 C713 1.782 . S
C2414 C1053 1.782 . S
C2439 C1087 1.782 . S
C2444 C747 1.782 . S
C2469 C985 1.782 . S
C2474 C781 1.782 . S
C2499 C815 1.782 . S
C2504 C1019 1.782 . S
C2529 C342 1.142 . S
C2534 C2 1.142 . S
C2559 C36 1.142 . S
C2564 C376 1.142 . S
C2589 C274 1.142 . S
C2594 C70 1.142 . S
C2619 C308 1.142 . S
C2624 C104 1.142 . S
C2649 C138 1.142 . S
C2654 C478 1.142 . S
C2679 C172 1.142 . S
C2684 C512 1.142 . S
C2709 C410 1.142 . S
C2714 C206 1.142 . S
C2739 C240 1.142 . S
C2744 C444 1.142 . S
C2769 C546 1.142 . S
C2774 C886 1.142 . S
C2799 C920 1.142 . S
C2804 C580 1.142 . S
C2829 C818 1.142 . S
C2834 C614 1.142 . S
C2859 C648 1.142 . S
C2864 C852 1.142 . S
C2889 C682 1.142 . S
C2894 C1022 1.142 . S
C2919 C716 1.142 . S
C2924 C1056 1.142 . S
C2949 C750 1.142 . S
C2954 C954 1.142 . S
C2979 C784 1.142 . S
C2984 C988 1.142 . S
C3009 C107 1.493 . S
C3014 C5 1.493 . S
C3039 C73 1.493 . S
C3044 C39 1.493 . S
C3069 C141 1.493 . S
C3074 C243 1.493 . S
C3099 C209 1.493 . S
C3104 C175 1.493 . S
C3129 C379 1.493 . S
C3134 C277 1.493 . S
C3159 C345 1.493 . S
C3164 C311 1.493 . S
C3189 C515 1.493 . S
C3194 C413 1.493 . S
C3219 C447 1.493 . S
C3224 C481 1.493 . S
C3249 C651 1.493 . S
C3254 C549 1.493 . S
C3279 C617 1.493 . S
C3284 C583 1.493 . S
C3309 C685 1.493 . S
C3314 C787 1.493 . S
C3339 C753 1.493 . S
C3344 C719 1.493 . S
C3369 C923 1.493 . S
C3374 C821 1.493 . S
C3399 C889 1.493 . S
C3404 C855 1.493 . S
C3429 C1059 1.493 . S
C3434 C957 1.493 . S
C3459 C1025 1.493 . S
C3464 C991 1.493 . S
