# Generated by pormake.
# Topology uni, (4)-cn, num edge types: 1
# Building blocks:
#     Node 0, Type 0, BuildingBlock: QUQFOY_clean_sbu_3, # of connection points: 4
#     Node 1, Type 0, BuildingBlock: QUQFOY_clean_sbu_3, # of connection points: 4
#     Node 2, Type 0, BuildingBlock: QUQFOY_clean_sbu_3, # of connection points: 4
#     Node 3, Type 0, BuildingBlock: QUQFOY_clean_sbu_3, # of connection points: 4
#     Node 4, Type 0, BuildingBlock: QUQFOY_clean_sbu_3, # of connection points: 4
#     Node 5, Type 0, BuildingBlock: QUQFOY_clean_sbu_3, # of connection points: 4
#     Edge 6, Type (0, 0), BuildingBlock: CIFDUS_clean_linker_0, # of connection points: 2
#     Edge 7, Type (0, 0), BuildingBlock: CIFDUS_clean_linker_0, # of connection points: 2
#     Edge 8, Type (0, 0), BuildingBlock: CIFDUS_clean_linker_0, # of connection points: 2
#     Edge 9, Type (0, 0), BuildingBlock: CIFDUS_clean_linker_0, # of connection points: 2
#     Edge 10, Type (0, 0), BuildingBlock: CIFDUS_clean_linker_0, # of connection points: 2
#     Edge 11, Type (0, 0), BuildingBlock: CIFDUS_clean_linker_0, # of connection points: 2
#     Edge 12, Type (0, 0), BuildingBlock: CIFDUS_clean_linker_0, # of connection points: 2
#     Edge 13, Type (0, 0), BuildingBlock: CIFDUS_clean_linker_0, # of connection points: 2
#     Edge 14, Type (0, 0), BuildingBlock: CIFDUS_clean_linker_0, # of connection points: 2
#     Edge 15, Type (0, 0), BuildingBlock: CIFDUS_clean_linker_0, # of connection points: 2
#     Edge 16, Type (0, 0), BuildingBlock: CIFDUS_clean_linker_0, # of connection points: 2
#     Edge 17, Type (0, 0), BuildingBlock: CIFDUS_clean_linker_0, # of connection points: 2
# Relax obj value: 0.064
# Max RMSD: 0.097
# Mean RMSD: 0.087
data_MOF--net-uni--node1-QUQFOY_clean_sbu_3--edge1-CIFDUS_clean_linker_0
_symmetry_space_group_name_H-M    P1
_symmetry_Int_Tables_number       1
_symmetry_cell_setting            triclinic
loop_
_symmetry_equiv_pos_as_xyz
'x, y, z'
_cell_length_a     35.512407
_cell_length_b     36.502137
_cell_length_c     20.68361
_cell_angle_alpha  89.90864
_cell_angle_beta   89.626163
_cell_angle_gamma 119.97799
loop_
_atom_site_label
_atom_site_type_symbol
_atom_site_fract_x
_atom_site_fract_y
_atom_site_fract_z
_atom_type_partial_charge
C0 C 0.7 0.12064 0.08532 0.0
O1 O 0.67425 0.13188 0.10886 0.0
Cd2 Cd 0.60892 0.08881 0.16919 0.0
O3 O 0.6922 0.08279 0.09223 0.0
Cd4 Cd 0.62837 0.01837 0.13754 0.0
C5 C 0.55692 0.02822 0.04187 0.0
O6 O 0.61789 0.04281 0.24223 0.0
O7 O 0.56198 -0.0125 0.20419 0.0
O8 O 0.66601 0.98326 0.18194 0.0
C9 C 0.58021 0.01152 0.25199 0.0
O10 O 0.55496 0.05163 0.08573 0.0
C11 C 0.64916 0.95228 0.14324 0.0
O12 O 0.58393 0.01503 0.04559 0.0
O13 O 0.62391 0.95275 0.10052 0.0
C14 C 0.72244 0.63318 0.16485 0.0
O15 O 0.70546 0.59996 0.1307 0.0
Cd16 Cd 0.63155 0.56798 0.09343 0.0
O17 O 0.70285 0.65399 0.17346 0.0
Cd18 Cd 0.63544 0.65108 0.13554 0.0
C19 C 0.58154 0.56846 0.23595 0.0
O20 O 0.619 0.6157 0.03067 0.0
O21 O 0.56437 0.60989 0.08605 0.0
O22 O 0.6668 0.72129 0.08724 0.0
C23 C 0.57884 0.60418 0.03303 0.0
O24 O 0.58548 0.54652 0.19133 0.0
C25 C 0.65089 0.73556 0.12857 0.0
O26 O 0.59945 0.60852 0.23093 0.0
O27 O 0.62865 0.71095 0.17458 0.0
C28 C 0.90437 0.61633 0.35447 0.0
O29 O 0.88179 0.58516 0.39162 0.0
Cd30 Cd 0.91269 0.5464 0.43898 0.0
O31 O 0.94542 0.63229 0.3507 0.0
Cd32 Cd -0.00011 0.62258 0.41277 0.0
C33 C 0.97662 0.54262 0.31547 0.0
O34 O 0.96751 0.5862 0.5165 0.0
O35 O 0.01483 0.57378 0.47064 0.0
O36 O 0.04023 0.69435 0.45667 0.0
C37 C -0.00801 0.57017 0.52007 0.0
O38 O 0.94271 0.52307 0.35096 0.0
C39 C 0.07646 0.70223 0.43228 0.0
O40 O 0.00347 0.58165 0.32426 0.0
O41 O 0.07634 0.67385 0.39673 0.0
C42 C 0.27464 0.90042 0.59697 0.0
O43 O 0.29985 0.88773 0.61713 0.0
Cd44 Cd 0.36658 0.92979 0.67233 0.0
O45 O 0.28489 0.93906 0.60254 0.0
Cd46 Cd 0.35394 0.00152 0.63891 0.0
C47 C 0.41793 0.98339 0.53973 0.0
O48 O 0.35941 0.97656 0.74659 0.0
O49 O 0.41915 0.0261 0.70583 0.0
O50 O 0.31476 0.04039 0.66001 0.0
C51 C 0.39854 0.0048 0.75525 0.0
O52 O 0.42145 0.96306 0.58708 0.0
C53 C 0.34531 0.07535 0.63839 0.0
O54 O 0.39094 -0.00336 0.54203 0.0
O55 O 0.37845 0.07528 0.61535 0.0
C56 C 0.29914 0.4032 0.68375 0.0
O57 O 0.3107 0.43206 0.64131 0.0
Cd58 Cd 0.38061 0.4633 0.58883 0.0
O59 O 0.32208 0.38598 0.69437 0.0
Cd60 Cd 0.38801 0.38972 0.64556 0.0
C61 C 0.445 0.48172 0.72162 0.0
O62 O 0.38927 0.41098 0.53227 0.0
O63 O 0.45115 0.42826 0.57507 0.0
O64 O 0.35153 0.31263 0.63352 0.0
C65 C 0.42975 0.42541 0.5247 0.0
O66 O 0.4361 0.49768 0.6733 0.0
C67 C 0.38183 0.30901 0.65949 0.0
O68 O 0.42845 0.44189 0.72765 0.0
O69 O 0.41406 0.34261 0.68078 0.0
C70 C 0.09833 0.39414 0.86715 0.0
O71 O 0.11407 0.42586 0.90454 0.0
Cd72 Cd 0.07233 0.45215 0.95988 0.0
O73 O 0.0574 0.37072 0.86093 0.0
Cd74 Cd -0.00773 0.36693 0.91193 0.0
C75 C 0.01259 0.456 0.83315 0.0
O76 O 0.01562 0.39683 0.02094 0.0
O77 O 0.95644 0.39181 0.98344 0.0
O78 O 0.95913 0.29204 0.94062 0.0
C79 C -0.01799 0.40006 0.03046 0.0
O80 O 0.04024 0.47586 0.87723 0.0
C81 C 0.92276 0.28203 0.91527 0.0
O82 O -0.00725 0.41573 0.8304 0.0
O83 O 0.92068 0.3105 0.88266 0.0
H84 H 0.49738 -0.00517 0.26221 0.0
H85 H 0.60962 0.02106 0.375 0.0
H86 H 0.569 0.01385 0.47511 0.0
H87 H 0.50097 -0.00067 0.53014 0.0
H88 H 0.39153 0.98062 0.41628 0.0
H89 H 0.43155 0.98592 0.31675 0.0
C90 C 0.51275 -0.00119 0.30885 0.0
C91 C 0.556 0.00781 0.31183 0.0
C92 C 0.48976 -0.00384 0.36571 0.0
C93 C 0.57617 0.01391 0.37206 0.0
C94 C 0.55299 0.00978 0.42908 0.0
C95 C 0.48609 -0.00344 0.48343 0.0
C96 C 0.4434 -0.01067 0.48023 0.0
C97 C 0.50972 0.00082 0.42647 0.0
C98 C 0.42447 0.98635 0.41967 0.0
C99 C 0.44723 -0.01082 0.36286 0.0
H100 H 0.50689 0.49292 0.24589 0.0
H101 H 0.60199 0.597 0.35874 0.0
H102 H 0.56404 0.56101 0.45846 0.0
H103 H 0.50433 0.49968 0.51344 0.0
H104 H 0.40483 0.39874 0.40129 0.0
H105 H 0.44379 0.43364 0.30103 0.0
C106 C 0.51914 0.50759 0.29244 0.0
C107 C 0.55724 0.54728 0.29536 0.0
C108 C 0.49643 0.48727 0.34937 0.0
C109 C 0.57261 0.56646 0.35558 0.0
C110 C 0.55104 0.54587 0.41249 0.0
C111 C 0.49133 0.48535 0.46695 0.0
C112 C 0.45228 0.44655 0.46428 0.0
C113 C 0.51307 0.50623 0.40994 0.0
C114 C 0.43504 0.42858 0.40407 0.0
C115 C 0.45729 0.44848 0.34698 0.0
H116 H -0.00936 0.43446 0.70831 0.0
H117 H 0.01764 0.5325 0.84697 0.0
H118 H 0.00879 0.57499 0.76326 0.0
H119 H -0.00195 0.58619 0.64855 0.0
H120 H -0.02088 0.49121 0.50875 0.0
H121 H -0.02042 0.44533 0.59464 0.0
C122 C -0.00593 0.46491 0.72024 0.0
C123 C 0.00468 0.48036 0.7835 0.0
C124 C -0.00955 0.48971 0.67151 0.0
C125 C 0.00968 0.52011 0.79833 0.0
C126 C 0.00457 0.54436 0.75059 0.0
C127 C -0.00657 0.55518 0.63744 0.0
C128 C -0.0117 0.54174 0.57302 0.0
C129 C -0.0044 0.52978 0.68676 0.0
C130 C -0.01689 0.50195 0.55837 0.0
C131 C -0.01657 0.47582 0.60731 0.0
H132 H 0.47632 0.01892 0.03301 0.0
H133 H 0.57861 0.01875 0.91958 0.0
H134 H 0.53876 0.01214 0.82042 0.0
H135 H 0.47633 0.00955 0.76565 0.0
H136 H 0.37079 0.00314 0.8785 0.0
H137 H 0.41029 0.00924 0.97853 0.0
C138 C 0.48961 0.0171 0.98654 0.0
C139 C 0.53039 0.01962 0.98335 0.0
C140 C 0.46612 0.01246 0.92984 0.0
C141 C 0.54716 0.0167 0.92312 0.0
C142 C 0.52454 0.01318 0.86643 0.0
C143 C 0.46211 0.00949 0.81228 0.0
C144 C 0.42127 0.00665 0.81527 0.0
C145 C 0.48432 0.01161 0.86918 0.0
C146 C 0.40244 0.00558 0.87556 0.0
C147 C 0.42498 0.00908 0.93251 0.0
H148 H 0.59134 0.61487 0.90342 0.0
H149 H 0.49946 0.53475 0.04909 0.0
H150 H 0.45037 0.48882 0.96534 0.0
H151 H 0.43393 0.47106 0.8506 0.0
H152 H 0.52166 0.55495 0.70424 0.0
H153 H 0.57211 0.60002 0.78795 0.0
C154 C 0.5605 0.58735 0.91648 0.0
C155 C 0.54898 0.57786 0.98195 0.0
C156 C 0.53184 0.56189 0.86802 0.0
C157 C 0.50881 0.54259 -0.00122 0.0
C158 C 0.48084 0.5163 0.95102 0.0
C159 C 0.46414 0.49924 0.83728 0.0
C160 C 0.47452 0.50964 0.77178 0.0
C161 C 0.49208 0.52557 0.88553 0.0
C162 C 0.51323 0.54652 0.75464 0.0
C163 C 0.54202 0.57214 0.80238 0.0
H164 H 0.04272 0.46676 0.09771 0.0
H165 H 0.90595 0.37495 0.09283 0.0
H166 H 0.89234 0.40983 0.18349 0.0
H167 H 0.91869 0.46885 0.25933 0.0
H168 H 0.0545 0.5645 0.25807 0.0
H169 H 0.0692 0.52606 0.17431 0.0
C170 C 0.01016 0.45413 0.1175 0.0
C171 C 0.9754 0.41827 0.08965 0.0
C172 C 0.00236 0.4754 0.16768 0.0
C173 C 0.93312 0.40251 0.11417 0.0
C174 C 0.92533 0.4225 0.16565 0.0
C175 C 0.95153 0.48117 0.24092 0.0
C176 C -0.0146 0.51945 0.26469 0.0
C177 C 0.95958 0.4594 0.19198 0.0
C178 C 0.02777 0.53523 0.24009 0.0
C179 C 0.03626 0.51319 0.19244 0.0
H180 H 0.65743 0.78991 0.22309 0.0
H181 H 0.65439 0.77527 0.01607 0.0
H182 H 0.65474 0.84195 0.00171 0.0
H183 H 0.6515 0.90231 0.04852 0.0
H184 H 0.66104 0.92034 0.25494 0.0
H185 H 0.66303 0.85476 0.26926 0.0
C186 C 0.6572 0.80162 0.17493 0.0
C187 C 0.65541 0.7777 0.12073 0.0
C188 C 0.65852 0.84048 0.16702 0.0
C189 C 0.65578 0.79329 0.05847 0.0
C190 C 0.65581 0.83128 0.05024 0.0
C191 C 0.65447 0.892 0.09649 0.0
C192 C 0.65572 0.9157 0.15064 0.0
C193 C 0.65654 0.85482 0.10419 0.0
C194 C 0.66013 0.90251 0.21256 0.0
C195 C 0.66103 0.86495 0.22079 0.0
H196 H 0.84937 0.64517 0.38299 0.0
H197 H 0.90775 0.61476 0.22418 0.0
H198 H 0.8584 0.6208 0.14832 0.0
H199 H 0.79238 0.62578 0.13013 0.0
H200 H 0.73781 0.66158 0.28803 0.0
H201 H 0.79234 0.66328 0.3612 0.0
C202 C 0.85188 0.64101 0.33152 0.0
C203 C 0.88171 0.62938 0.30884 0.0
C204 C 0.82392 0.6452 0.28826 0.0
C205 C 0.88504 0.62403 0.24229 0.0
C206 C 0.85666 0.62715 0.19909 0.0
C207 C 0.79318 0.63489 0.18022 0.0
C208 C 0.76097 0.64309 0.20392 0.0
C209 C 0.82505 0.63641 0.22186 0.0
C210 C 0.76241 0.65526 0.26869 0.0
C211 C 0.79336 0.65592 0.31069 0.0
H212 H 0.08693 0.77233 0.49553 0.0
H213 H 0.15843 0.71768 0.40886 0.0
H214 H 0.22615 0.77528 0.45049 0.0
H215 H 0.26434 0.83779 0.51841 0.0
H216 H 0.19503 0.89535 0.60179 0.0
H217 H 0.12703 0.84006 0.55432 0.0
C218 C 0.11742 0.77337 0.48512 0.0
C219 C 0.11756 0.7405 0.44978 0.0
C220 C 0.15648 0.80681 0.50908 0.0
C221 C 0.15735 0.74248 0.43607 0.0
C222 C 0.19612 0.77531 0.46011 0.0
C223 C 0.23433 0.83829 0.52592 0.0
C224 C 0.23428 0.86994 0.5643 0.0
C225 C 0.19589 0.80702 0.49785 0.0
C226 C 0.19559 0.87101 0.57259 0.0
C227 C 0.15681 0.83941 0.54563 0.0
H228 H 0.31164 0.22971 0.64875 0.0
H229 H 0.45087 0.297 0.67296 0.0
H230 H 0.45171 0.23068 0.66695 0.0
H231 H 0.41341 0.15397 0.65201 0.0
H232 H 0.2738 0.08515 0.63586 0.0
H233 H 0.27245 0.15163 0.64138 0.0
C234 C 0.34208 0.22974 0.65303 0.0
C235 C 0.38117 0.26821 0.66091 0.0
C236 C 0.34226 0.19131 0.65057 0.0
C237 C 0.42033 0.2678 0.66705 0.0
C238 C 0.42089 0.22993 0.66332 0.0
C239 C 0.3827 0.15358 0.64949 0.0
C240 C 0.34382 0.11495 0.6426 0.0
C241 C 0.38215 0.1916 0.65449 0.0
C242 C 0.30415 0.11465 0.64084 0.0
C243 C 0.3034 0.1526 0.64399 0.0
H244 H 0.1706 0.3923 0.90284 0.0
H245 H 0.0924 0.38176 0.73787 0.0
H246 H 0.14703 0.38157 0.66524 0.0
H247 H 0.22025 0.39092 0.64866 0.0
H248 H 0.29536 0.39483 0.81402 0.0
H249 H 0.23865 0.39054 0.88679 0.0
C250 C 0.16538 0.38927 0.85104 0.0
C251 C 0.12799 0.38742 0.82538 0.0
C252 C 0.1964 0.38817 0.80984 0.0
C253 C 0.12104 0.38308 0.75842 0.0
C254 C 0.15233 0.38322 0.71695 0.0
C255 C 0.22369 0.39009 0.70064 0.0
C256 C 0.26184 0.39352 0.72622 0.0
C257 C 0.19057 0.38669 0.74206 0.0
C258 C 0.26605 0.39204 0.79348 0.0
C259 C 0.23381 0.38987 0.83503 0.0
H260 H 0.84147 0.26933 0.91576 0.0
H261 H 0.91512 0.20829 0.96252 0.0
H262 H 0.85106 0.15049 0.01606 0.0
H263 H 0.77609 0.1214 0.05913 0.0
H264 H 0.70683 0.18822 0.02073 0.0
H265 H 0.76728 0.23984 0.95507 0.0
C266 C 0.8433 0.24288 0.93624 0.0
C267 C 0.88283 0.24288 0.93479 0.0
C268 C 0.80731 0.21126 0.96985 0.0
C269 C 0.88488 0.2088 0.9627 0.0
C270 C 0.8484 0.17599 -0.00619 0.0
C271 C 0.77429 0.14718 0.03609 0.0
C272 C 0.73723 0.15122 0.04538 0.0
C273 C 0.8098 0.17757 -0.00059 0.0
C274 C 0.73526 0.18477 0.01526 0.0
C275 C 0.76969 0.21418 0.97728 0.0
loop_
_geom_bond_atom_site_label_1
_geom_bond_atom_site_label_2
_geom_bond_distance
_geom_bond_site_symmetry_2
_ccdc_geom_bond_type
C0 O1 1.306 . S
C0 O3 1.160 . S
O1 C0 1.306 . S
O1 Cd2 2.228 . S
Cd2 O1 2.228 . S
Cd2 O6 2.273 . S
Cd2 O10 2.277 . S
O3 C0 1.160 . S
O3 Cd4 2.203 . S
Cd4 O3 2.203 . S
Cd4 O6 2.411 . S
Cd4 O7 2.333 1_545 S
Cd4 O8 2.352 1_545 S
Cd4 O12 2.277 1_544 S
Cd4 O13 2.356 1_545 S
C5 O10 1.209 1_556 S
C5 O12 1.226 1_545 S
O6 Cd2 2.273 . S
O6 Cd4 2.411 . S
O6 C9 1.320 . S
O7 Cd4 2.333 1_565 S
O7 C9 1.214 1_565 S
O8 Cd4 2.352 1_565 S
O8 C11 1.258 . S
C9 O6 1.320 . S
C9 O7 1.214 1_545 S
O10 Cd2 2.277 . S
O10 C5 1.209 1_554 S
C11 O8 1.258 . S
C11 O13 1.282 . S
O12 Cd4 2.277 1_566 S
O12 C5 1.226 1_565 S
O13 Cd4 2.356 1_565 S
O13 C11 1.282 . S
C14 O15 1.306 . S
C14 O17 1.160 . S
O15 C14 1.306 . S
O15 Cd16 2.228 . S
Cd16 O15 2.228 . S
Cd16 O20 2.273 . S
Cd16 O24 2.277 . S
O17 C14 1.160 . S
O17 Cd18 2.203 . S
Cd18 O17 2.203 . S
Cd18 O20 2.411 . S
Cd18 O21 2.333 . S
Cd18 O22 2.352 . S
Cd18 O26 2.277 . S
Cd18 O27 2.356 . S
C19 O24 1.209 . S
C19 O26 1.226 . S
O20 Cd16 2.273 . S
O20 Cd18 2.411 . S
O20 C23 1.320 . S
O21 Cd18 2.333 . S
O21 C23 1.214 . S
O22 Cd18 2.352 . S
O22 C25 1.258 . S
C23 O20 1.320 . S
C23 O21 1.214 . S
O24 Cd16 2.277 . S
O24 C19 1.209 . S
C25 O22 1.258 . S
C25 O27 1.282 . S
O26 Cd18 2.277 . S
O26 C19 1.226 . S
O27 Cd18 2.356 . S
O27 C25 1.282 . S
C28 O29 1.306 . S
C28 O31 1.160 . S
O29 C28 1.306 . S
O29 Cd30 2.228 . S
Cd30 O29 2.228 . S
Cd30 O34 2.273 . S
Cd30 O38 2.277 . S
O31 C28 1.160 . S
O31 Cd32 2.203 1_655 S
Cd32 O31 2.203 1_455 S
Cd32 O34 2.411 1_455 S
Cd32 O35 2.333 . S
Cd32 O36 2.352 . S
Cd32 O40 2.277 . S
Cd32 O41 2.356 . S
C33 O38 1.209 1_455 S
C33 O40 1.226 . S
O34 Cd30 2.273 . S
O34 Cd32 2.411 1_655 S
O34 C37 1.320 1_655 S
O35 Cd32 2.333 . S
O35 C37 1.214 . S
O36 Cd32 2.352 . S
O36 C39 1.258 . S
C37 O34 1.320 1_455 S
C37 O35 1.214 . S
O38 Cd30 2.277 . S
O38 C33 1.209 1_655 S
C39 O36 1.258 . S
C39 O41 1.282 . S
O40 Cd32 2.277 . S
O40 C33 1.226 . S
O41 Cd32 2.356 . S
O41 C39 1.282 . S
C42 O43 1.306 . S
C42 O45 1.160 . S
O43 C42 1.306 . S
O43 Cd44 2.228 . S
Cd44 O43 2.228 . S
Cd44 O48 2.273 . S
Cd44 O52 2.277 . S
O45 C42 1.160 . S
O45 Cd46 2.203 1_565 S
Cd46 O45 2.203 1_545 S
Cd46 O48 2.411 1_545 S
Cd46 O49 2.333 . S
Cd46 O50 2.352 . S
Cd46 O54 2.277 . S
Cd46 O55 2.356 . S
C47 O52 1.209 1_545 S
C47 O54 1.226 . S
O48 Cd44 2.273 . S
O48 Cd46 2.411 1_565 S
O48 C51 1.320 1_565 S
O49 Cd46 2.333 . S
O49 C51 1.214 . S
O50 Cd46 2.352 . S
O50 C53 1.258 . S
C51 O48 1.320 1_545 S
C51 O49 1.214 . S
O52 Cd44 2.277 . S
O52 C47 1.209 1_565 S
C53 O50 1.258 . S
C53 O55 1.282 . S
O54 Cd46 2.277 . S
O54 C47 1.226 . S
O55 Cd46 2.356 . S
O55 C53 1.282 . S
C56 O57 1.306 . S
C56 O59 1.160 . S
O57 C56 1.306 . S
O57 Cd58 2.228 . S
Cd58 O57 2.228 . S
Cd58 O62 2.273 . S
Cd58 O66 2.277 . S
O59 C56 1.160 . S
O59 Cd60 2.203 . S
Cd60 O59 2.203 . S
Cd60 O62 2.411 . S
Cd60 O63 2.333 . S
Cd60 O64 2.352 . S
Cd60 O68 2.277 . S
Cd60 O69 2.356 . S
C61 O66 1.209 . S
C61 O68 1.226 . S
O62 Cd58 2.273 . S
O62 Cd60 2.411 . S
O62 C65 1.320 . S
O63 Cd60 2.333 . S
O63 C65 1.214 . S
O64 Cd60 2.352 . S
O64 C67 1.258 . S
C65 O62 1.320 . S
C65 O63 1.214 . S
O66 Cd58 2.277 . S
O66 C61 1.209 . S
C67 O64 1.258 . S
C67 O69 1.282 . S
O68 Cd60 2.277 . S
O68 C61 1.226 . S
O69 Cd60 2.356 . S
O69 C67 1.282 . S
C70 O71 1.306 . S
C70 O73 1.160 . S
O71 C70 1.306 . S
O71 Cd72 2.228 . S
Cd72 O71 2.228 . S
Cd72 O76 2.273 . S
Cd72 O80 2.277 . S
O73 C70 1.160 . S
O73 Cd74 2.203 . S
Cd74 O73 2.203 . S
Cd74 O76 2.411 . S
Cd74 O77 2.333 1_455 S
Cd74 O78 2.352 1_455 S
Cd74 O82 2.277 1_455 S
Cd74 O83 2.356 1_455 S
C75 O80 1.209 . S
C75 O82 1.226 1_455 S
O76 Cd72 2.273 . S
O76 Cd74 2.411 . S
O76 C79 1.320 . S
O77 Cd74 2.333 1_655 S
O77 C79 1.214 1_655 S
O78 Cd74 2.352 1_655 S
O78 C81 1.258 . S
C79 O76 1.320 . S
C79 O77 1.214 1_455 S
O80 Cd72 2.277 . S
O80 C75 1.209 . S
C81 O78 1.258 . S
C81 O83 1.282 . S
O82 Cd74 2.277 1_655 S
O82 C75 1.226 1_655 S
O83 Cd74 2.356 1_655 S
O83 C81 1.282 . S
H84 C90 0.930 1_565 S
H85 C93 0.930 . S
H86 C94 0.930 . S
H87 C95 0.930 . S
H88 C98 0.930 . S
H89 C99 0.930 . S
C90 H84 0.930 1_545 S
C90 C91 1.355 . S
C90 C92 1.415 . S
C91 C90 1.355 . S
C91 C93 1.419 . S
C92 C90 1.415 . S
C92 C97 1.425 . S
C92 C99 1.409 1_545 S
C93 H85 0.930 . S
C93 C91 1.419 . S
C93 C94 1.362 . S
C94 H86 0.930 . S
C94 C93 1.362 . S
C94 C97 1.409 . S
C95 H87 0.930 . S
C95 C96 1.355 . S
C95 C97 1.415 . S
C96 C95 1.355 . S
C96 C98 1.419 1_545 S
C97 C92 1.425 . S
C97 C94 1.409 . S
C97 C95 1.415 . S
C98 H88 0.930 . S
C98 C96 1.419 1_565 S
C98 C99 1.362 . S
C99 H89 0.930 . S
C99 C92 1.409 1_565 S
C99 C98 1.362 . S
H100 C106 0.930 . S
H101 C109 0.930 . S
H102 C110 0.930 . S
H103 C111 0.930 . S
H104 C114 0.930 . S
H105 C115 0.930 . S
C106 H100 0.930 . S
C106 C107 1.355 . S
C106 C108 1.415 . S
C107 C106 1.355 . S
C107 C109 1.419 . S
C108 C106 1.415 . S
C108 C113 1.425 . S
C108 C115 1.409 . S
C109 H101 0.930 . S
C109 C107 1.419 . S
C109 C110 1.362 . S
C110 H102 0.930 . S
C110 C109 1.362 . S
C110 C113 1.409 . S
C111 H103 0.930 . S
C111 C112 1.355 . S
C111 C113 1.415 . S
C112 C111 1.355 . S
C112 C114 1.419 . S
C113 C108 1.425 . S
C113 C110 1.409 . S
C113 C111 1.415 . S
C114 H104 0.930 . S
C114 C112 1.419 . S
C114 C115 1.362 . S
C115 H105 0.930 . S
C115 C108 1.409 . S
C115 C114 1.362 . S
H116 C122 0.930 . S
H117 C125 0.930 . S
H118 C126 0.930 . S
H119 C127 0.930 . S
H120 C130 0.930 . S
H121 C131 0.930 . S
C122 H116 0.930 . S
C122 C123 1.355 . S
C122 C124 1.415 . S
C123 C122 1.355 . S
C123 C125 1.419 . S
C124 C122 1.415 . S
C124 C129 1.425 . S
C124 C131 1.409 . S
C125 H117 0.930 . S
C125 C123 1.419 . S
C125 C126 1.362 . S
C126 H118 0.930 . S
C126 C125 1.362 . S
C126 C129 1.409 . S
C127 H119 0.930 . S
C127 C128 1.355 . S
C127 C129 1.415 . S
C128 C127 1.355 . S
C128 C130 1.419 . S
C129 C124 1.425 . S
C129 C126 1.409 . S
C129 C127 1.415 . S
C130 H120 0.930 . S
C130 C128 1.419 . S
C130 C131 1.362 . S
C131 H121 0.930 . S
C131 C124 1.409 . S
C131 C130 1.362 . S
H132 C138 0.930 . S
H133 C141 0.930 . S
H134 C142 0.930 . S
H135 C143 0.930 . S
H136 C146 0.930 . S
H137 C147 0.930 . S
C138 H132 0.930 . S
C138 C139 1.355 . S
C138 C140 1.415 . S
C139 C138 1.355 . S
C139 C141 1.419 . S
C140 C138 1.415 . S
C140 C145 1.425 . S
C140 C147 1.409 . S
C141 H133 0.930 . S
C141 C139 1.419 . S
C141 C142 1.362 . S
C142 H134 0.930 . S
C142 C141 1.362 . S
C142 C145 1.409 . S
C143 H135 0.930 . S
C143 C144 1.355 . S
C143 C145 1.415 . S
C144 C143 1.355 . S
C144 C146 1.419 . S
C145 C140 1.425 . S
C145 C142 1.409 . S
C145 C143 1.415 . S
C146 H136 0.930 . S
C146 C144 1.419 . S
C146 C147 1.362 . S
C147 H137 0.930 . S
C147 C140 1.409 . S
C147 C146 1.362 . S
H148 C154 0.930 . S
H149 C157 0.930 . S
H150 C158 0.930 . S
H151 C159 0.930 . S
H152 C162 0.930 . S
H153 C163 0.930 . S
C154 H148 0.930 . S
C154 C155 1.355 . S
C154 C156 1.415 1_554 S
C155 C154 1.355 . S
C155 C157 1.419 . S
C156 C154 1.415 1_556 S
C156 C161 1.425 1_556 S
C156 C163 1.409 . S
C157 H149 0.930 . S
C157 C155 1.419 . S
C157 C158 1.362 . S
C158 H150 0.930 . S
C158 C157 1.362 . S
C158 C161 1.409 . S
C159 H151 0.930 . S
C159 C160 1.355 . S
C159 C161 1.415 1_556 S
C160 C159 1.355 . S
C160 C162 1.419 . S
C161 C156 1.425 1_554 S
C161 C158 1.409 . S
C161 C159 1.415 1_554 S
C162 H152 0.930 . S
C162 C160 1.419 . S
C162 C163 1.362 . S
C163 H153 0.930 . S
C163 C156 1.409 . S
C163 C162 1.362 . S
H164 C170 0.930 . S
H165 C173 0.930 . S
H166 C174 0.930 . S
H167 C175 0.930 . S
H168 C178 0.930 . S
H169 C179 0.930 . S
C170 H164 0.930 . S
C170 C171 1.355 . S
C170 C172 1.415 . S
C171 C170 1.355 . S
C171 C173 1.419 1_455 S
C172 C170 1.415 . S
C172 C177 1.425 . S
C172 C179 1.409 . S
C173 H165 0.930 . S
C173 C171 1.419 1_655 S
C173 C174 1.362 . S
C174 H166 0.930 . S
C174 C173 1.362 . S
C174 C177 1.409 1_655 S
C175 H167 0.930 . S
C175 C176 1.355 1_655 S
C175 C177 1.415 1_655 S
C176 C175 1.355 1_455 S
C176 C178 1.419 . S
C177 C172 1.425 . S
C177 C174 1.409 1_455 S
C177 C175 1.415 1_455 S
C178 H168 0.930 . S
C178 C176 1.419 . S
C178 C179 1.362 . S
C179 H169 0.930 . S
C179 C172 1.409 . S
C179 C178 1.362 . S
H180 C186 0.930 . S
H181 C189 0.930 . S
H182 C190 0.930 . S
H183 C191 0.930 . S
H184 C194 0.930 . S
H185 C195 0.930 . S
C186 H180 0.930 . S
C186 C187 1.355 . S
C186 C188 1.415 . S
C187 C186 1.355 . S
C187 C189 1.419 . S
C188 C186 1.415 . S
C188 C193 1.425 . S
C188 C195 1.409 . S
C189 H181 0.930 . S
C189 C187 1.419 . S
C189 C190 1.362 . S
C190 H182 0.930 . S
C190 C189 1.362 . S
C190 C193 1.409 . S
C191 H183 0.930 . S
C191 C192 1.355 . S
C191 C193 1.415 . S
C192 C191 1.355 . S
C192 C194 1.419 . S
C193 C188 1.425 . S
C193 C190 1.409 . S
C193 C191 1.415 . S
C194 H184 0.930 . S
C194 C192 1.419 . S
C194 C195 1.362 . S
C195 H185 0.930 . S
C195 C188 1.409 . S
C195 C194 1.362 . S
H196 C202 0.930 . S
H197 C205 0.930 . S
H198 C206 0.930 . S
H199 C207 0.930 . S
H200 C210 0.930 . S
H201 C211 0.930 . S
C202 H196 0.930 . S
C202 C203 1.355 . S
C202 C204 1.415 . S
C203 C202 1.355 . S
C203 C205 1.419 . S
C204 C202 1.415 . S
C204 C209 1.425 . S
C204 C211 1.409 . S
C205 H197 0.930 . S
C205 C203 1.419 . S
C205 C206 1.362 . S
C206 H198 0.930 . S
C206 C205 1.362 . S
C206 C209 1.409 . S
C207 H199 0.930 . S
C207 C208 1.355 . S
C207 C209 1.415 . S
C208 C207 1.355 . S
C208 C210 1.419 . S
C209 C204 1.425 . S
C209 C206 1.409 . S
C209 C207 1.415 . S
C210 H200 0.930 . S
C210 C208 1.419 . S
C210 C211 1.362 . S
C211 H201 0.930 . S
C211 C204 1.409 . S
C211 C210 1.362 . S
H212 C218 0.930 . S
H213 C221 0.930 . S
H214 C222 0.930 . S
H215 C223 0.930 . S
H216 C226 0.930 . S
H217 C227 0.930 . S
C218 H212 0.930 . S
C218 C219 1.355 . S
C218 C220 1.415 . S
C219 C218 1.355 . S
C219 C221 1.419 . S
C220 C218 1.415 . S
C220 C225 1.425 . S
C220 C227 1.409 . S
C221 H213 0.930 . S
C221 C219 1.419 . S
C221 C222 1.362 . S
C222 H214 0.930 . S
C222 C221 1.362 . S
C222 C225 1.409 . S
C223 H215 0.930 . S
C223 C224 1.355 . S
C223 C225 1.415 . S
C224 C223 1.355 . S
C224 C226 1.419 . S
C225 C220 1.425 . S
C225 C222 1.409 . S
C225 C223 1.415 . S
C226 H216 0.930 . S
C226 C224 1.419 . S
C226 C227 1.362 . S
C227 H217 0.930 . S
C227 C220 1.409 . S
C227 C226 1.362 . S
H228 C234 0.930 . S
H229 C237 0.930 . S
H230 C238 0.930 . S
H231 C239 0.930 . S
H232 C242 0.930 . S
H233 C243 0.930 . S
C234 H228 0.930 . S
C234 C235 1.355 . S
C234 C236 1.415 . S
C235 C234 1.355 . S
C235 C237 1.419 . S
C236 C234 1.415 . S
C236 C241 1.425 . S
C236 C243 1.409 . S
C237 H229 0.930 . S
C237 C235 1.419 . S
C237 C238 1.362 . S
C238 H230 0.930 . S
C238 C237 1.362 . S
C238 C241 1.409 . S
C239 H231 0.930 . S
C239 C240 1.355 . S
C239 C241 1.415 . S
C240 C239 1.355 . S
C240 C242 1.419 . S
C241 C236 1.425 . S
C241 C238 1.409 . S
C241 C239 1.415 . S
C242 H232 0.930 . S
C242 C240 1.419 . S
C242 C243 1.362 . S
C243 H233 0.930 . S
C243 C236 1.409 . S
C243 C242 1.362 . S
H244 C250 0.930 . S
H245 C253 0.930 . S
H246 C254 0.930 . S
H247 C255 0.930 . S
H248 C258 0.930 . S
H249 C259 0.930 . S
C250 H244 0.930 . S
C250 C251 1.355 . S
C250 C252 1.415 . S
C251 C250 1.355 . S
C251 C253 1.419 . S
C252 C250 1.415 . S
C252 C257 1.425 . S
C252 C259 1.409 . S
C253 H245 0.930 . S
C253 C251 1.419 . S
C253 C254 1.362 . S
C254 H246 0.930 . S
C254 C253 1.362 . S
C254 C257 1.409 . S
C255 H247 0.930 . S
C255 C256 1.355 . S
C255 C257 1.415 . S
C256 C255 1.355 . S
C256 C258 1.419 . S
C257 C252 1.425 . S
C257 C254 1.409 . S
C257 C255 1.415 . S
C258 H248 0.930 . S
C258 C256 1.419 . S
C258 C259 1.362 . S
C259 H249 0.930 . S
C259 C252 1.409 . S
C259 C258 1.362 . S
H260 C266 0.930 . S
H261 C269 0.930 . S
H262 C270 0.930 . S
H263 C271 0.930 . S
H264 C274 0.930 . S
H265 C275 0.930 . S
C266 H260 0.930 . S
C266 C267 1.355 . S
C266 C268 1.415 . S
C267 C266 1.355 . S
C267 C269 1.419 1_556 S
C268 C266 1.415 . S
C268 C273 1.425 1_556 S
C268 C275 1.409 . S
C269 H261 0.930 . S
C269 C267 1.419 1_554 S
C269 C270 1.362 . S
C270 H262 0.930 . S
C270 C269 1.362 . S
C270 C273 1.409 . S
C271 H263 0.930 . S
C271 C272 1.355 . S
C271 C273 1.415 . S
C272 C271 1.355 . S
C272 C274 1.419 1_554 S
C273 C268 1.425 1_554 S
C273 C270 1.409 . S
C273 C271 1.415 . S
C274 H264 0.930 . S
C274 C272 1.419 1_556 S
C274 C275 1.362 . S
C275 H265 0.930 . S
C275 C268 1.409 . S
C275 C274 1.362 . S
C91 C9 1.616 . S
C96 C47 1.616 . S
C107 C19 1.639 . S
C112 C65 1.630 . S
C123 C75 1.660 . S
C128 C37 1.661 . S
C139 C5 1.615 . S
C144 C51 1.609 . S
C155 C23 1.635 . S
C160 C61 1.634 . S
C171 C79 1.662 1_554 S
C176 C33 1.668 . S
C187 C25 1.373 . S
C192 C11 1.369 . S
C203 C28 1.402 . S
C208 C14 1.424 . S
C219 C39 1.372 . S
C224 C42 1.401 . S
C235 C67 1.346 . S
C240 C53 1.385 . S
C251 C70 1.397 . S
C256 C56 1.428 . S
C267 C81 1.400 . S
C272 C0 1.381 . S
