# Generated by pormake.
# Topology ukx, (4)-cn, num edge types: 1
# Building blocks:
#     Node 0, Type 0, BuildingBlock: GALJAG_clean_sbu_0, # of connection points: 4
#     Node 1, Type 0, BuildingBlock: GALJAG_clean_sbu_0, # of connection points: 4
#     Node 2, Type 0, BuildingBlock: GALJAG_clean_sbu_0, # of connection points: 4
#     Node 3, Type 0, BuildingBlock: GALJAG_clean_sbu_0, # of connection points: 4
#     Node 4, Type 0, BuildingBlock: GALJAG_clean_sbu_0, # of connection points: 4
#     Node 5, Type 0, BuildingBlock: GALJAG_clean_sbu_0, # of connection points: 4
#     Node 6, Type 0, BuildingBlock: GALJAG_clean_sbu_0, # of connection points: 4
#     Node 7, Type 0, BuildingBlock: GALJAG_clean_sbu_0, # of connection points: 4
#     Node 8, Type 0, BuildingBlock: GALJAG_clean_sbu_0, # of connection points: 4
#     Node 9, Type 0, BuildingBlock: GALJAG_clean_sbu_0, # of connection points: 4
#     Node 10, Type 0, BuildingBlock: GALJAG_clean_sbu_0, # of connection points: 4
#     Node 11, Type 0, BuildingBlock: GALJAG_clean_sbu_0, # of connection points: 4
#     Node 12, Type 0, BuildingBlock: GALJAG_clean_sbu_0, # of connection points: 4
#     Node 13, Type 0, BuildingBlock: GALJAG_clean_sbu_0, # of connection points: 4
#     Node 14, Type 0, BuildingBlock: GALJAG_clean_sbu_0, # of connection points: 4
#     Node 15, Type 0, BuildingBlock: GALJAG_clean_sbu_0, # of connection points: 4
#     Node 16, Type 0, BuildingBlock: GALJAG_clean_sbu_0, # of connection points: 4
#     Node 17, Type 0, BuildingBlock: GALJAG_clean_sbu_0, # of connection points: 4
#     Node 18, Type 0, BuildingBlock: GALJAG_clean_sbu_0, # of connection points: 4
#     Node 19, Type 0, BuildingBlock: GALJAG_clean_sbu_0, # of connection points: 4
#     Node 20, Type 0, BuildingBlock: GALJAG_clean_sbu_0, # of connection points: 4
#     Node 21, Type 0, BuildingBlock: GALJAG_clean_sbu_0, # of connection points: 4
#     Node 22, Type 0, BuildingBlock: GALJAG_clean_sbu_0, # of connection points: 4
#     Node 23, Type 0, BuildingBlock: GALJAG_clean_sbu_0, # of connection points: 4
#     Node 24, Type 0, BuildingBlock: GALJAG_clean_sbu_0, # of connection points: 4
#     Node 25, Type 0, BuildingBlock: GALJAG_clean_sbu_0, # of connection points: 4
#     Node 26, Type 0, BuildingBlock: GALJAG_clean_sbu_0, # of connection points: 4
#     Node 27, Type 0, BuildingBlock: GALJAG_clean_sbu_0, # of connection points: 4
#     Node 28, Type 0, BuildingBlock: GALJAG_clean_sbu_0, # of connection points: 4
#     Node 29, Type 0, BuildingBlock: GALJAG_clean_sbu_0, # of connection points: 4
#     Node 30, Type 0, BuildingBlock: GALJAG_clean_sbu_0, # of connection points: 4
#     Node 31, Type 0, BuildingBlock: GALJAG_clean_sbu_0, # of connection points: 4
#     Node 32, Type 0, BuildingBlock: GALJAG_clean_sbu_0, # of connection points: 4
#     Node 33, Type 0, BuildingBlock: GALJAG_clean_sbu_0, # of connection points: 4
#     Node 34, Type 0, BuildingBlock: GALJAG_clean_sbu_0, # of connection points: 4
#     Node 35, Type 0, BuildingBlock: GALJAG_clean_sbu_0, # of connection points: 4
#     Node 36, Type 0, BuildingBlock: GALJAG_clean_sbu_0, # of connection points: 4
#     Node 37, Type 0, BuildingBlock: GALJAG_clean_sbu_0, # of connection points: 4
#     Node 38, Type 0, BuildingBlock: GALJAG_clean_sbu_0, # of connection points: 4
#     Node 39, Type 0, BuildingBlock: GALJAG_clean_sbu_0, # of connection points: 4
#     Node 40, Type 0, BuildingBlock: GALJAG_clean_sbu_0, # of connection points: 4
#     Node 41, Type 0, BuildingBlock: GALJAG_clean_sbu_0, # of connection points: 4
#     Node 42, Type 0, BuildingBlock: GALJAG_clean_sbu_0, # of connection points: 4
#     Node 43, Type 0, BuildingBlock: GALJAG_clean_sbu_0, # of connection points: 4
#     Node 44, Type 0, BuildingBlock: GALJAG_clean_sbu_0, # of connection points: 4
#     Node 45, Type 0, BuildingBlock: GALJAG_clean_sbu_0, # of connection points: 4
#     Node 46, Type 0, BuildingBlock: GALJAG_clean_sbu_0, # of connection points: 4
#     Node 47, Type 0, BuildingBlock: GALJAG_clean_sbu_0, # of connection points: 4
#     Node 48, Type 0, BuildingBlock: GALJAG_clean_sbu_0, # of connection points: 4
#     Node 49, Type 0, BuildingBlock: GALJAG_clean_sbu_0, # of connection points: 4
#     Node 50, Type 0, BuildingBlock: GALJAG_clean_sbu_0, # of connection points: 4
#     Node 51, Type 0, BuildingBlock: GALJAG_clean_sbu_0, # of connection points: 4
#     Node 52, Type 0, BuildingBlock: GALJAG_clean_sbu_0, # of connection points: 4
#     Node 53, Type 0, BuildingBlock: GALJAG_clean_sbu_0, # of connection points: 4
#     Node 54, Type 0, BuildingBlock: GALJAG_clean_sbu_0, # of connection points: 4
#     Node 55, Type 0, BuildingBlock: GALJAG_clean_sbu_0, # of connection points: 4
#     Node 56, Type 0, BuildingBlock: GALJAG_clean_sbu_0, # of connection points: 4
#     Node 57, Type 0, BuildingBlock: GALJAG_clean_sbu_0, # of connection points: 4
#     Node 58, Type 0, BuildingBlock: GALJAG_clean_sbu_0, # of connection points: 4
#     Node 59, Type 0, BuildingBlock: GALJAG_clean_sbu_0, # of connection points: 4
#     Node 60, Type 0, BuildingBlock: GALJAG_clean_sbu_0, # of connection points: 4
#     Node 61, Type 0, BuildingBlock: GALJAG_clean_sbu_0, # of connection points: 4
#     Node 62, Type 0, BuildingBlock: GALJAG_clean_sbu_0, # of connection points: 4
#     Node 63, Type 0, BuildingBlock: GALJAG_clean_sbu_0, # of connection points: 4
#     Node 64, Type 0, BuildingBlock: GALJAG_clean_sbu_0, # of connection points: 4
#     Node 65, Type 0, BuildingBlock: GALJAG_clean_sbu_0, # of connection points: 4
#     Node 66, Type 0, BuildingBlock: GALJAG_clean_sbu_0, # of connection points: 4
#     Node 67, Type 0, BuildingBlock: GALJAG_clean_sbu_0, # of connection points: 4
#     Node 68, Type 0, BuildingBlock: GALJAG_clean_sbu_0, # of connection points: 4
#     Node 69, Type 0, BuildingBlock: GALJAG_clean_sbu_0, # of connection points: 4
#     Node 70, Type 0, BuildingBlock: GALJAG_clean_sbu_0, # of connection points: 4
#     Node 71, Type 0, BuildingBlock: GALJAG_clean_sbu_0, # of connection points: 4
#     Node 72, Type 0, BuildingBlock: GALJAG_clean_sbu_0, # of connection points: 4
#     Node 73, Type 0, BuildingBlock: GALJAG_clean_sbu_0, # of connection points: 4
#     Node 74, Type 0, BuildingBlock: GALJAG_clean_sbu_0, # of connection points: 4
#     Node 75, Type 0, BuildingBlock: GALJAG_clean_sbu_0, # of connection points: 4
#     Node 76, Type 0, BuildingBlock: GALJAG_clean_sbu_0, # of connection points: 4
#     Node 77, Type 0, BuildingBlock: GALJAG_clean_sbu_0, # of connection points: 4
#     Node 78, Type 0, BuildingBlock: GALJAG_clean_sbu_0, # of connection points: 4
#     Node 79, Type 0, BuildingBlock: GALJAG_clean_sbu_0, # of connection points: 4
#     Node 80, Type 0, BuildingBlock: GALJAG_clean_sbu_0, # of connection points: 4
#     Node 81, Type 0, BuildingBlock: GALJAG_clean_sbu_0, # of connection points: 4
#     Node 82, Type 0, BuildingBlock: GALJAG_clean_sbu_0, # of connection points: 4
#     Node 83, Type 0, BuildingBlock: GALJAG_clean_sbu_0, # of connection points: 4
#     Node 84, Type 0, BuildingBlock: GALJAG_clean_sbu_0, # of connection points: 4
#     Node 85, Type 0, BuildingBlock: GALJAG_clean_sbu_0, # of connection points: 4
#     Node 86, Type 0, BuildingBlock: GALJAG_clean_sbu_0, # of connection points: 4
#     Node 87, Type 0, BuildingBlock: GALJAG_clean_sbu_0, # of connection points: 4
#     Node 88, Type 0, BuildingBlock: GALJAG_clean_sbu_0, # of connection points: 4
#     Node 89, Type 0, BuildingBlock: GALJAG_clean_sbu_0, # of connection points: 4
#     Node 90, Type 0, BuildingBlock: GALJAG_clean_sbu_0, # of connection points: 4
#     Node 91, Type 0, BuildingBlock: GALJAG_clean_sbu_0, # of connection points: 4
#     Node 92, Type 0, BuildingBlock: GALJAG_clean_sbu_0, # of connection points: 4
#     Node 93, Type 0, BuildingBlock: GALJAG_clean_sbu_0, # of connection points: 4
#     Node 94, Type 0, BuildingBlock: GALJAG_clean_sbu_0, # of connection points: 4
#     Node 95, Type 0, BuildingBlock: GALJAG_clean_sbu_0, # of connection points: 4
#     Edge 96, Type (0, 0), BuildingBlock: CIFDUS_clean_linker_0, # of connection points: 2
#     Edge 97, Type (0, 0), BuildingBlock: CIFDUS_clean_linker_0, # of connection points: 2
#     Edge 98, Type (0, 0), BuildingBlock: CIFDUS_clean_linker_0, # of connection points: 2
#     Edge 99, Type (0, 0), BuildingBlock: CIFDUS_clean_linker_0, # of connection points: 2
#     Edge 100, Type (0, 0), BuildingBlock: CIFDUS_clean_linker_0, # of connection points: 2
#     Edge 101, Type (0, 0), BuildingBlock: CIFDUS_clean_linker_0, # of connection points: 2
#     Edge 102, Type (0, 0), BuildingBlock: CIFDUS_clean_linker_0, # of connection points: 2
#     Edge 103, Type (0, 0), BuildingBlock: CIFDUS_clean_linker_0, # of connection points: 2
#     Edge 104, Type (0, 0), BuildingBlock: CIFDUS_clean_linker_0, # of connection points: 2
#     Edge 105, Type (0, 0), BuildingBlock: CIFDUS_clean_linker_0, # of connection points: 2
#     Edge 106, Type (0, 0), BuildingBlock: CIFDUS_clean_linker_0, # of connection points: 2
#     Edge 107, Type (0, 0), BuildingBlock: CIFDUS_clean_linker_0, # of connection points: 2
#     Edge 108, Type (0, 0), BuildingBlock: CIFDUS_clean_linker_0, # of connection points: 2
#     Edge 109, Type (0, 0), BuildingBlock: CIFDUS_clean_linker_0, # of connection points: 2
#     Edge 110, Type (0, 0), BuildingBlock: CIFDUS_clean_linker_0, # of connection points: 2
#     Edge 111, Type (0, 0), BuildingBlock: CIFDUS_clean_linker_0, # of connection points: 2
#     Edge 112, Type (0, 0), BuildingBlock: CIFDUS_clean_linker_0, # of connection points: 2
#     Edge 113, Type (0, 0), BuildingBlock: CIFDUS_clean_linker_0, # of connection points: 2
#     Edge 114, Type (0, 0), BuildingBlock: CIFDUS_clean_linker_0, # of connection points: 2
#     Edge 115, Type (0, 0), BuildingBlock: CIFDUS_clean_linker_0, # of connection points: 2
#     Edge 116, Type (0, 0), BuildingBlock: CIFDUS_clean_linker_0, # of connection points: 2
#     Edge 117, Type (0, 0), BuildingBlock: CIFDUS_clean_linker_0, # of connection points: 2
#     Edge 118, Type (0, 0), BuildingBlock: CIFDUS_clean_linker_0, # of connection points: 2
#     Edge 119, Type (0, 0), BuildingBlock: CIFDUS_clean_linker_0, # of connection points: 2
#     Edge 120, Type (0, 0), BuildingBlock: CIFDUS_clean_linker_0, # of connection points: 2
#     Edge 121, Type (0, 0), BuildingBlock: CIFDUS_clean_linker_0, # of connection points: 2
#     Edge 122, Type (0, 0), BuildingBlock: CIFDUS_clean_linker_0, # of connection points: 2
#     Edge 123, Type (0, 0), BuildingBlock: CIFDUS_clean_linker_0, # of connection points: 2
#     Edge 124, Type (0, 0), BuildingBlock: CIFDUS_clean_linker_0, # of connection points: 2
#     Edge 125, Type (0, 0), BuildingBlock: CIFDUS_clean_linker_0, # of connection points: 2
#     Edge 126, Type (0, 0), BuildingBlock: CIFDUS_clean_linker_0, # of connection points: 2
#     Edge 127, Type (0, 0), BuildingBlock: CIFDUS_clean_linker_0, # of connection points: 2
#     Edge 128, Type (0, 0), BuildingBlock: CIFDUS_clean_linker_0, # of connection points: 2
#     Edge 129, Type (0, 0), BuildingBlock: CIFDUS_clean_linker_0, # of connection points: 2
#     Edge 130, Type (0, 0), BuildingBlock: CIFDUS_clean_linker_0, # of connection points: 2
#     Edge 131, Type (0, 0), BuildingBlock: CIFDUS_clean_linker_0, # of connection points: 2
#     Edge 132, Type (0, 0), BuildingBlock: CIFDUS_clean_linker_0, # of connection points: 2
#     Edge 133, Type (0, 0), BuildingBlock: CIFDUS_clean_linker_0, # of connection points: 2
#     Edge 134, Type (0, 0), BuildingBlock: CIFDUS_clean_linker_0, # of connection points: 2
#     Edge 135, Type (0, 0), BuildingBlock: CIFDUS_clean_linker_0, # of connection points: 2
#     Edge 136, Type (0, 0), BuildingBlock: CIFDUS_clean_linker_0, # of connection points: 2
#     Edge 137, Type (0, 0), BuildingBlock: CIFDUS_clean_linker_0, # of connection points: 2
#     Edge 138, Type (0, 0), BuildingBlock: CIFDUS_clean_linker_0, # of connection points: 2
#     Edge 139, Type (0, 0), BuildingBlock: CIFDUS_clean_linker_0, # of connection points: 2
#     Edge 140, Type (0, 0), BuildingBlock: CIFDUS_clean_linker_0, # of connection points: 2
#     Edge 141, Type (0, 0), BuildingBlock: CIFDUS_clean_linker_0, # of connection points: 2
#     Edge 142, Type (0, 0), BuildingBlock: CIFDUS_clean_linker_0, # of connection points: 2
#     Edge 143, Type (0, 0), BuildingBlock: CIFDUS_clean_linker_0, # of connection points: 2
#     Edge 144, Type (0, 0), BuildingBlock: CIFDUS_clean_linker_0, # of connection points: 2
#     Edge 145, Type (0, 0), BuildingBlock: CIFDUS_clean_linker_0, # of connection points: 2
#     Edge 146, Type (0, 0), BuildingBlock: CIFDUS_clean_linker_0, # of connection points: 2
#     Edge 147, Type (0, 0), BuildingBlock: CIFDUS_clean_linker_0, # of connection points: 2
#     Edge 148, Type (0, 0), BuildingBlock: CIFDUS_clean_linker_0, # of connection points: 2
#     Edge 149, Type (0, 0), BuildingBlock: CIFDUS_clean_linker_0, # of connection points: 2
#     Edge 150, Type (0, 0), BuildingBlock: CIFDUS_clean_linker_0, # of connection points: 2
#     Edge 151, Type (0, 0), BuildingBlock: CIFDUS_clean_linker_0, # of connection points: 2
#     Edge 152, Type (0, 0), BuildingBlock: CIFDUS_clean_linker_0, # of connection points: 2
#     Edge 153, Type (0, 0), BuildingBlock: CIFDUS_clean_linker_0, # of connection points: 2
#     Edge 154, Type (0, 0), BuildingBlock: CIFDUS_clean_linker_0, # of connection points: 2
#     Edge 155, Type (0, 0), BuildingBlock: CIFDUS_clean_linker_0, # of connection points: 2
#     Edge 156, Type (0, 0), BuildingBlock: CIFDUS_clean_linker_0, # of connection points: 2
#     Edge 157, Type (0, 0), BuildingBlock: CIFDUS_clean_linker_0, # of connection points: 2
#     Edge 158, Type (0, 0), BuildingBlock: CIFDUS_clean_linker_0, # of connection points: 2
#     Edge 159, Type (0, 0), BuildingBlock: CIFDUS_clean_linker_0, # of connection points: 2
#     Edge 160, Type (0, 0), BuildingBlock: CIFDUS_clean_linker_0, # of connection points: 2
#     Edge 161, Type (0, 0), BuildingBlock: CIFDUS_clean_linker_0, # of connection points: 2
#     Edge 162, Type (0, 0), BuildingBlock: CIFDUS_clean_linker_0, # of connection points: 2
#     Edge 163, Type (0, 0), BuildingBlock: CIFDUS_clean_linker_0, # of connection points: 2
#     Edge 164, Type (0, 0), BuildingBlock: CIFDUS_clean_linker_0, # of connection points: 2
#     Edge 165, Type (0, 0), BuildingBlock: CIFDUS_clean_linker_0, # of connection points: 2
#     Edge 166, Type (0, 0), BuildingBlock: CIFDUS_clean_linker_0, # of connection points: 2
#     Edge 167, Type (0, 0), BuildingBlock: CIFDUS_clean_linker_0, # of connection points: 2
#     Edge 168, Type (0, 0), BuildingBlock: CIFDUS_clean_linker_0, # of connection points: 2
#     Edge 169, Type (0, 0), BuildingBlock: CIFDUS_clean_linker_0, # of connection points: 2
#     Edge 170, Type (0, 0), BuildingBlock: CIFDUS_clean_linker_0, # of connection points: 2
#     Edge 171, Type (0, 0), BuildingBlock: CIFDUS_clean_linker_0, # of connection points: 2
#     Edge 172, Type (0, 0), BuildingBlock: CIFDUS_clean_linker_0, # of connection points: 2
#     Edge 173, Type (0, 0), BuildingBlock: CIFDUS_clean_linker_0, # of connection points: 2
#     Edge 174, Type (0, 0), BuildingBlock: CIFDUS_clean_linker_0, # of connection points: 2
#     Edge 175, Type (0, 0), BuildingBlock: CIFDUS_clean_linker_0, # of connection points: 2
#     Edge 176, Type (0, 0), BuildingBlock: CIFDUS_clean_linker_0, # of connection points: 2
#     Edge 177, Type (0, 0), BuildingBlock: CIFDUS_clean_linker_0, # of connection points: 2
#     Edge 178, Type (0, 0), BuildingBlock: CIFDUS_clean_linker_0, # of connection points: 2
#     Edge 179, Type (0, 0), BuildingBlock: CIFDUS_clean_linker_0, # of connection points: 2
#     Edge 180, Type (0, 0), BuildingBlock: CIFDUS_clean_linker_0, # of connection points: 2
#     Edge 181, Type (0, 0), BuildingBlock: CIFDUS_clean_linker_0, # of connection points: 2
#     Edge 182, Type (0, 0), BuildingBlock: CIFDUS_clean_linker_0, # of connection points: 2
#     Edge 183, Type (0, 0), BuildingBlock: CIFDUS_clean_linker_0, # of connection points: 2
#     Edge 184, Type (0, 0), BuildingBlock: CIFDUS_clean_linker_0, # of connection points: 2
#     Edge 185, Type (0, 0), BuildingBlock: CIFDUS_clean_linker_0, # of connection points: 2
#     Edge 186, Type (0, 0), BuildingBlock: CIFDUS_clean_linker_0, # of connection points: 2
#     Edge 187, Type (0, 0), BuildingBlock: CIFDUS_clean_linker_0, # of connection points: 2
#     Edge 188, Type (0, 0), BuildingBlock: CIFDUS_clean_linker_0, # of connection points: 2
#     Edge 189, Type (0, 0), BuildingBlock: CIFDUS_clean_linker_0, # of connection points: 2
#     Edge 190, Type (0, 0), BuildingBlock: CIFDUS_clean_linker_0, # of connection points: 2
#     Edge 191, Type (0, 0), BuildingBlock: CIFDUS_clean_linker_0, # of connection points: 2
#     Edge 192, Type (0, 0), BuildingBlock: CIFDUS_clean_linker_0, # of connection points: 2
#     Edge 193, Type (0, 0), BuildingBlock: CIFDUS_clean_linker_0, # of connection points: 2
#     Edge 194, Type (0, 0), BuildingBlock: CIFDUS_clean_linker_0, # of connection points: 2
#     Edge 195, Type (0, 0), BuildingBlock: CIFDUS_clean_linker_0, # of connection points: 2
#     Edge 196, Type (0, 0), BuildingBlock: CIFDUS_clean_linker_0, # of connection points: 2
#     Edge 197, Type (0, 0), BuildingBlock: CIFDUS_clean_linker_0, # of connection points: 2
#     Edge 198, Type (0, 0), BuildingBlock: CIFDUS_clean_linker_0, # of connection points: 2
#     Edge 199, Type (0, 0), BuildingBlock: CIFDUS_clean_linker_0, # of connection points: 2
#     Edge 200, Type (0, 0), BuildingBlock: CIFDUS_clean_linker_0, # of connection points: 2
#     Edge 201, Type (0, 0), BuildingBlock: CIFDUS_clean_linker_0, # of connection points: 2
#     Edge 202, Type (0, 0), BuildingBlock: CIFDUS_clean_linker_0, # of connection points: 2
#     Edge 203, Type (0, 0), BuildingBlock: CIFDUS_clean_linker_0, # of connection points: 2
#     Edge 204, Type (0, 0), BuildingBlock: CIFDUS_clean_linker_0, # of connection points: 2
#     Edge 205, Type (0, 0), BuildingBlock: CIFDUS_clean_linker_0, # of connection points: 2
#     Edge 206, Type (0, 0), BuildingBlock: CIFDUS_clean_linker_0, # of connection points: 2
#     Edge 207, Type (0, 0), BuildingBlock: CIFDUS_clean_linker_0, # of connection points: 2
#     Edge 208, Type (0, 0), BuildingBlock: CIFDUS_clean_linker_0, # of connection points: 2
#     Edge 209, Type (0, 0), BuildingBlock: CIFDUS_clean_linker_0, # of connection points: 2
#     Edge 210, Type (0, 0), BuildingBlock: CIFDUS_clean_linker_0, # of connection points: 2
#     Edge 211, Type (0, 0), BuildingBlock: CIFDUS_clean_linker_0, # of connection points: 2
#     Edge 212, Type (0, 0), BuildingBlock: CIFDUS_clean_linker_0, # of connection points: 2
#     Edge 213, Type (0, 0), BuildingBlock: CIFDUS_clean_linker_0, # of connection points: 2
#     Edge 214, Type (0, 0), BuildingBlock: CIFDUS_clean_linker_0, # of connection points: 2
#     Edge 215, Type (0, 0), BuildingBlock: CIFDUS_clean_linker_0, # of connection points: 2
#     Edge 216, Type (0, 0), BuildingBlock: CIFDUS_clean_linker_0, # of connection points: 2
#     Edge 217, Type (0, 0), BuildingBlock: CIFDUS_clean_linker_0, # of connection points: 2
#     Edge 218, Type (0, 0), BuildingBlock: CIFDUS_clean_linker_0, # of connection points: 2
#     Edge 219, Type (0, 0), BuildingBlock: CIFDUS_clean_linker_0, # of connection points: 2
#     Edge 220, Type (0, 0), BuildingBlock: CIFDUS_clean_linker_0, # of connection points: 2
#     Edge 221, Type (0, 0), BuildingBlock: CIFDUS_clean_linker_0, # of connection points: 2
#     Edge 222, Type (0, 0), BuildingBlock: CIFDUS_clean_linker_0, # of connection points: 2
#     Edge 223, Type (0, 0), BuildingBlock: CIFDUS_clean_linker_0, # of connection points: 2
#     Edge 224, Type (0, 0), BuildingBlock: CIFDUS_clean_linker_0, # of connection points: 2
#     Edge 225, Type (0, 0), BuildingBlock: CIFDUS_clean_linker_0, # of connection points: 2
#     Edge 226, Type (0, 0), BuildingBlock: CIFDUS_clean_linker_0, # of connection points: 2
#     Edge 227, Type (0, 0), BuildingBlock: CIFDUS_clean_linker_0, # of connection points: 2
#     Edge 228, Type (0, 0), BuildingBlock: CIFDUS_clean_linker_0, # of connection points: 2
#     Edge 229, Type (0, 0), BuildingBlock: CIFDUS_clean_linker_0, # of connection points: 2
#     Edge 230, Type (0, 0), BuildingBlock: CIFDUS_clean_linker_0, # of connection points: 2
#     Edge 231, Type (0, 0), BuildingBlock: CIFDUS_clean_linker_0, # of connection points: 2
#     Edge 232, Type (0, 0), BuildingBlock: CIFDUS_clean_linker_0, # of connection points: 2
#     Edge 233, Type (0, 0), BuildingBlock: CIFDUS_clean_linker_0, # of connection points: 2
#     Edge 234, Type (0, 0), BuildingBlock: CIFDUS_clean_linker_0, # of connection points: 2
#     Edge 235, Type (0, 0), BuildingBlock: CIFDUS_clean_linker_0, # of connection points: 2
#     Edge 236, Type (0, 0), BuildingBlock: CIFDUS_clean_linker_0, # of connection points: 2
#     Edge 237, Type (0, 0), BuildingBlock: CIFDUS_clean_linker_0, # of connection points: 2
#     Edge 238, Type (0, 0), BuildingBlock: CIFDUS_clean_linker_0, # of connection points: 2
#     Edge 239, Type (0, 0), BuildingBlock: CIFDUS_clean_linker_0, # of connection points: 2
#     Edge 240, Type (0, 0), BuildingBlock: CIFDUS_clean_linker_0, # of connection points: 2
#     Edge 241, Type (0, 0), BuildingBlock: CIFDUS_clean_linker_0, # of connection points: 2
#     Edge 242, Type (0, 0), BuildingBlock: CIFDUS_clean_linker_0, # of connection points: 2
#     Edge 243, Type (0, 0), BuildingBlock: CIFDUS_clean_linker_0, # of connection points: 2
#     Edge 244, Type (0, 0), BuildingBlock: CIFDUS_clean_linker_0, # of connection points: 2
#     Edge 245, Type (0, 0), BuildingBlock: CIFDUS_clean_linker_0, # of connection points: 2
#     Edge 246, Type (0, 0), BuildingBlock: CIFDUS_clean_linker_0, # of connection points: 2
#     Edge 247, Type (0, 0), BuildingBlock: CIFDUS_clean_linker_0, # of connection points: 2
#     Edge 248, Type (0, 0), BuildingBlock: CIFDUS_clean_linker_0, # of connection points: 2
#     Edge 249, Type (0, 0), BuildingBlock: CIFDUS_clean_linker_0, # of connection points: 2
#     Edge 250, Type (0, 0), BuildingBlock: CIFDUS_clean_linker_0, # of connection points: 2
#     Edge 251, Type (0, 0), BuildingBlock: CIFDUS_clean_linker_0, # of connection points: 2
#     Edge 252, Type (0, 0), BuildingBlock: CIFDUS_clean_linker_0, # of connection points: 2
#     Edge 253, Type (0, 0), BuildingBlock: CIFDUS_clean_linker_0, # of connection points: 2
#     Edge 254, Type (0, 0), BuildingBlock: CIFDUS_clean_linker_0, # of connection points: 2
#     Edge 255, Type (0, 0), BuildingBlock: CIFDUS_clean_linker_0, # of connection points: 2
#     Edge 256, Type (0, 0), BuildingBlock: CIFDUS_clean_linker_0, # of connection points: 2
#     Edge 257, Type (0, 0), BuildingBlock: CIFDUS_clean_linker_0, # of connection points: 2
#     Edge 258, Type (0, 0), BuildingBlock: CIFDUS_clean_linker_0, # of connection points: 2
#     Edge 259, Type (0, 0), BuildingBlock: CIFDUS_clean_linker_0, # of connection points: 2
#     Edge 260, Type (0, 0), BuildingBlock: CIFDUS_clean_linker_0, # of connection points: 2
#     Edge 261, Type (0, 0), BuildingBlock: CIFDUS_clean_linker_0, # of connection points: 2
#     Edge 262, Type (0, 0), BuildingBlock: CIFDUS_clean_linker_0, # of connection points: 2
#     Edge 263, Type (0, 0), BuildingBlock: CIFDUS_clean_linker_0, # of connection points: 2
#     Edge 264, Type (0, 0), BuildingBlock: CIFDUS_clean_linker_0, # of connection points: 2
#     Edge 265, Type (0, 0), BuildingBlock: CIFDUS_clean_linker_0, # of connection points: 2
#     Edge 266, Type (0, 0), BuildingBlock: CIFDUS_clean_linker_0, # of connection points: 2
#     Edge 267, Type (0, 0), BuildingBlock: CIFDUS_clean_linker_0, # of connection points: 2
#     Edge 268, Type (0, 0), BuildingBlock: CIFDUS_clean_linker_0, # of connection points: 2
#     Edge 269, Type (0, 0), BuildingBlock: CIFDUS_clean_linker_0, # of connection points: 2
#     Edge 270, Type (0, 0), BuildingBlock: CIFDUS_clean_linker_0, # of connection points: 2
#     Edge 271, Type (0, 0), BuildingBlock: CIFDUS_clean_linker_0, # of connection points: 2
#     Edge 272, Type (0, 0), BuildingBlock: CIFDUS_clean_linker_0, # of connection points: 2
#     Edge 273, Type (0, 0), BuildingBlock: CIFDUS_clean_linker_0, # of connection points: 2
#     Edge 274, Type (0, 0), BuildingBlock: CIFDUS_clean_linker_0, # of connection points: 2
#     Edge 275, Type (0, 0), BuildingBlock: CIFDUS_clean_linker_0, # of connection points: 2
#     Edge 276, Type (0, 0), BuildingBlock: CIFDUS_clean_linker_0, # of connection points: 2
#     Edge 277, Type (0, 0), BuildingBlock: CIFDUS_clean_linker_0, # of connection points: 2
#     Edge 278, Type (0, 0), BuildingBlock: CIFDUS_clean_linker_0, # of connection points: 2
#     Edge 279, Type (0, 0), BuildingBlock: CIFDUS_clean_linker_0, # of connection points: 2
#     Edge 280, Type (0, 0), BuildingBlock: CIFDUS_clean_linker_0, # of connection points: 2
#     Edge 281, Type (0, 0), BuildingBlock: CIFDUS_clean_linker_0, # of connection points: 2
#     Edge 282, Type (0, 0), BuildingBlock: CIFDUS_clean_linker_0, # of connection points: 2
#     Edge 283, Type (0, 0), BuildingBlock: CIFDUS_clean_linker_0, # of connection points: 2
#     Edge 284, Type (0, 0), BuildingBlock: CIFDUS_clean_linker_0, # of connection points: 2
#     Edge 285, Type (0, 0), BuildingBlock: CIFDUS_clean_linker_0, # of connection points: 2
#     Edge 286, Type (0, 0), BuildingBlock: CIFDUS_clean_linker_0, # of connection points: 2
#     Edge 287, Type (0, 0), BuildingBlock: CIFDUS_clean_linker_0, # of connection points: 2
# Relax obj value: 0.225
# Max RMSD: 0.135
# Mean RMSD: 0.135
data_MOF--net-ukx--node1-GALJAG_clean_sbu_0--edge1-CIFDUS_clean_linker_0
_symmetry_space_group_name_H-M    P1
_symmetry_Int_Tables_number       1
_symmetry_cell_setting            triclinic
loop_
_symmetry_equiv_pos_as_xyz
'x, y, z'
_cell_length_a     69.669647
_cell_length_b     69.721921
_cell_length_c     69.691528
_cell_angle_alpha  89.993445
_cell_angle_beta   90.005521
_cell_angle_gamma 89.991973
loop_
_atom_site_label
_atom_site_type_symbol
_atom_site_fract_x
_atom_site_fract_y
_atom_site_fract_z
_atom_type_partial_charge
In0 In 0.04471 0.15586 0.33256 0.0
O1 O 0.05576 0.1278 0.34511 0.0
O2 O 0.07085 0.14027 0.32157 0.0
C3 C 0.0164 0.16558 0.3572 0.0
C4 C 0.07129 0.18167 0.34315 0.0
C5 C 0.02608 0.15032 0.29915 0.0
O6 O 0.02284 0.14866 0.3563 0.0
O7 O 0.02384 0.17712 0.34545 0.0
O8 O 0.03401 0.1661 0.30322 0.0
O9 O 0.02763 0.13752 0.31183 0.0
C10 C 0.07008 0.12706 0.33395 0.0
O11 O 0.06337 0.18241 0.3268 0.0
O12 O 0.06561 0.16819 0.35379 0.0
In13 In 0.1121 0.79883 0.58095 0.0
O14 O 0.08239 0.81365 0.58041 0.0
O15 O 0.09688 0.80961 0.60706 0.0
C16 C 0.12131 0.78545 0.54605 0.0
C17 C 0.13706 0.82766 0.58419 0.0
C18 C 0.10757 0.76535 0.5993 0.0
O19 O 0.10461 0.79165 0.54979 0.0
O20 O 0.13315 0.7865 0.55972 0.0
O21 O 0.12031 0.77725 0.60437 0.0
O22 O 0.09791 0.77015 0.58475 0.0
C23 C 0.08214 0.81566 0.59851 0.0
O24 O 0.13986 0.81155 0.59209 0.0
O25 O 0.12187 0.82895 0.57434 0.0
In26 In 0.45992 0.85107 0.82887 0.0
O27 O 0.46274 0.82033 0.83942 0.0
O28 O 0.43512 0.82953 0.83059 0.0
C29 C 0.47444 0.85302 0.79295 0.0
C30 C 0.43145 0.87653 0.83483 0.0
C31 C 0.48939 0.85641 0.85355 0.0
O32 O 0.47185 0.8373 0.80154 0.0
O33 O 0.46924 0.8676 0.80228 0.0
O34 O 0.47336 0.84982 0.8588 0.0
O35 O 0.49017 0.86123 0.83611 0.0
C36 C 0.44519 0.81632 0.83773 0.0
O37 O 0.44664 0.87655 0.84471 0.0
O38 O 0.43098 0.86409 0.82173 0.0
In39 In 0.39374 0.19944 0.07657 0.0
O40 O 0.42329 0.18523 0.07226 0.0
O41 O 0.40778 0.18022 0.0982 0.0
C42 C 0.38502 0.21722 0.04326 0.0
C43 C 0.36867 0.17036 0.0782 0.0
C44 C 0.39923 0.22873 0.10131 0.0
O45 O 0.40184 0.21142 0.04685 0.0
O46 O 0.37291 0.21386 0.05625 0.0
O47 O 0.3831 0.22064 0.09953 0.0
O48 O 0.41212 0.22245 0.0903 0.0
C49 C 0.42273 0.17702 0.08851 0.0
O50 O 0.36747 0.18487 0.08907 0.0
O51 O 0.382 0.17105 0.06591 0.0
In52 In 0.0417 0.85464 0.15881 0.0
O53 O 0.05711 0.8254 0.15814 0.0
O54 O 0.05008 0.83907 0.13177 0.0
C55 C 0.0317 0.85947 0.19574 0.0
C56 C 0.07028 0.88014 0.15514 0.0
C57 C 0.00668 0.85287 0.14255 0.0
O58 O 0.03689 0.84336 0.18917 0.0
O59 O 0.03182 0.87304 0.18372 0.0
O60 O 0.01916 0.86479 0.13696 0.0
O61 O 0.01172 0.84257 0.15655 0.0
C62 C 0.05746 0.82478 0.14 0.0
O63 O 0.05388 0.88299 0.14787 0.0
O64 O 0.07195 0.86471 0.16445 0.0
In65 In 0.37942 0.79004 0.41417 0.0
O66 O 0.35354 0.80636 0.40242 0.0
O67 O 0.37376 0.8214 0.4197 0.0
C68 C 0.37699 0.75692 0.39454 0.0
C69 C 0.41331 0.80128 0.39926 0.0
C70 C 0.37076 0.77792 0.44976 0.0
O71 O 0.36926 0.77219 0.3885 0.0
O72 O 0.38497 0.75828 0.41074 0.0
O73 O 0.38787 0.781 0.44447 0.0
O74 O 0.35814 0.78128 0.43718 0.0
C75 C 0.35857 0.8221 0.40989 0.0
O76 O 0.40979 0.8032 0.41697 0.0
O77 O 0.39999 0.79387 0.38962 0.0
In78 In 0.46012 0.14199 0.66406 0.0
O79 O 0.46051 0.17488 0.66662 0.0
O80 O 0.43561 0.16158 0.6553 0.0
C81 C 0.475 0.13096 0.69792 0.0
C82 C 0.43112 0.11696 0.66159 0.0
C83 C 0.48864 0.14236 0.63753 0.0
O84 O 0.46993 0.14812 0.69482 0.0
O85 O 0.47229 0.11961 0.6841 0.0
O86 O 0.47117 0.1429 0.63283 0.0
O87 O 0.4915 0.14089 0.65529 0.0
C88 C 0.44402 0.17699 0.65939 0.0
O89 O 0.44518 0.11653 0.65006 0.0
O90 O 0.43207 0.1297 0.67442 0.0
In91 In 0.0915 0.19471 0.92428 0.0
O92 O 0.11911 0.18303 0.91159 0.0
O93 O 0.10501 0.16664 0.93332 0.0
C94 C 0.08233 0.2247 0.90171 0.0
C95 C 0.06259 0.17222 0.91222 0.0
C96 C 0.10096 0.2124 0.95727 0.0
O97 O 0.09774 0.21539 0.89936 0.0
O98 O 0.07224 0.21927 0.9157 0.0
O99 O 0.08472 0.20461 0.95492 0.0
O100 O 0.11225 0.21094 0.94321 0.0
C101 C 0.1188 0.16788 0.92159 0.0
O102 O 0.06314 0.17851 0.92929 0.0
O103 O 0.07665 0.17701 0.90188 0.0
In104 In 0.32288 0.05072 0.15433 0.0
O105 O 0.32183 0.06365 0.18471 0.0
O106 O 0.34893 0.05959 0.17123 0.0
C107 C 0.2872 0.03774 0.14793 0.0
C108 C 0.32422 0.08156 0.1313 0.0
C109 C 0.34077 0.0165 0.15292 0.0
O110 O 0.293 0.04215 0.16458 0.0
O111 O 0.29919 0.04061 0.13463 0.0
O112 O 0.34693 0.03073 0.14349 0.0
O113 O 0.32585 0.01962 0.16265 0.0
C114 C 0.33989 0.06538 0.18577 0.0
O115 O 0.33258 0.06602 0.12702 0.0
O116 O 0.31498 0.08124 0.14687 0.0
In117 In 0.20274 0.08588 0.38742 0.0
O118 O 0.17977 0.0857 0.41091 0.0
O119 O 0.20886 0.08872 0.41938 0.0
C120 C 0.21857 0.05195 0.37723 0.0
C121 C 0.17243 0.09178 0.36425 0.0
C122 C 0.22848 0.11493 0.38625 0.0
O123 O 0.21449 0.056 0.39438 0.0
O124 O 0.21432 0.06481 0.36528 0.0
O125 O 0.21123 0.11741 0.39114 0.0
O126 O 0.23243 0.09805 0.38107 0.0
C127 C 0.19149 0.08835 0.42444 0.0
O128 O 0.18775 0.10135 0.36281 0.0
O129 O 0.17255 0.07912 0.37718 0.0
In130 In 0.17571 0.9507 0.65392 0.0
O131 O 0.18042 0.93259 0.68115 0.0
O132 O 0.15263 0.93356 0.66848 0.0
C133 C 0.21013 0.96474 0.64402 0.0
C134 C 0.17089 0.9262 0.62487 0.0
C135 C 0.15731 0.98305 0.66424 0.0
O136 O 0.20744 0.95646 0.65997 0.0
O137 O 0.19556 0.96577 0.63331 0.0
O138 O 0.15155 0.97284 0.6504 0.0
O139 O 0.17226 0.97703 0.67246 0.0
C140 C 0.16313 0.92702 0.68166 0.0
O141 O 0.16139 0.94164 0.62604 0.0
O142 O 0.18306 0.92359 0.63806 0.0
In143 In 0.29851 0.91584 0.89012 0.0
O144 O 0.31309 0.90175 0.86447 0.0
O145 O 0.32866 0.92286 0.88008 0.0
C146 C 0.27305 0.88669 0.88747 0.0
C147 C 0.31079 0.91051 0.92652 0.0
C148 C 0.28157 0.94997 0.88255 0.0
O149 O 0.26885 0.90383 0.88345 0.0
O150 O 0.29045 0.88404 0.89171 0.0
O151 O 0.28482 0.94426 0.89941 0.0
O152 O 0.2874 0.93879 0.86961 0.0
C153 C 0.32859 0.91092 0.86649 0.0
O154 O 0.29345 0.90906 0.9216 0.0
O155 O 0.32187 0.91607 0.91334 0.0
In156 In 0.3337 0.9599 0.3582 0.0
O157 O 0.34464 0.94426 0.38475 0.0
O158 O 0.32635 0.92923 0.36535 0.0
C159 C 0.35196 0.99378 0.35949 0.0
C160 C 0.35027 0.94649 0.326 0.0
C161 C 0.29835 0.97273 0.36639 0.0
O162 O 0.35824 0.97932 0.36849 0.0
O163 O 0.3365 0.99115 0.35047 0.0
O164 O 0.30349 0.96894 0.34937 0.0
O165 O 0.31087 0.96946 0.3791 0.0
C166 C 0.33619 0.92875 0.38054 0.0
O167 O 0.33219 0.94674 0.32781 0.0
O168 O 0.35943 0.95291 0.34018 0.0
In169 In 0.3076 0.06716 0.59614 0.0
O170 O 0.32559 0.07798 0.62109 0.0
O171 O 0.33821 0.05773 0.60206 0.0
C172 C 0.2842 0.09685 0.60474 0.0
C173 C 0.31627 0.07547 0.55933 0.0
C174 C 0.28943 0.03345 0.60193 0.0
O175 O 0.27971 0.07958 0.60776 0.0
O176 O 0.30099 0.09922 0.59838 0.0
O177 O 0.29723 0.04283 0.61526 0.0
O178 O 0.29133 0.04074 0.58548 0.0
C179 C 0.34024 0.06832 0.61659 0.0
O180 O 0.29985 0.07808 0.56643 0.0
O181 O 0.32806 0.0674 0.57043 0.0
In182 In 0.1633 0.04078 0.86204 0.0
O183 O 0.14899 0.05243 0.88895 0.0
O184 O 0.17043 0.06949 0.8753 0.0
C185 C 0.14255 0.00932 0.85345 0.0
C186 C 0.15202 0.06218 0.83193 0.0
C187 C 0.19696 0.02489 0.87252 0.0
O188 O 0.1386 0.01968 0.8678 0.0
O189 O 0.15709 0.01461 0.84405 0.0
O190 O 0.19456 0.03243 0.85618 0.0
O191 O 0.18257 0.02574 0.88347 0.0
C192 C 0.15822 0.06806 0.88861 0.0
O193 O 0.16941 0.05733 0.8341 0.0
O194 O 0.14082 0.0563 0.84485 0.0
In195 In 0.20341 0.92338 0.10466 0.0
O196 O 0.18909 0.91204 0.13182 0.0
O197 O 0.17203 0.92775 0.11198 0.0
C198 C 0.23709 0.90448 0.10717 0.0
C199 C 0.19093 0.90866 0.07109 0.0
C200 C 0.21507 0.95953 0.11137 0.0
O201 O 0.22174 0.89768 0.11401 0.0
O202 O 0.23548 0.92089 0.09973 0.0
O203 O 0.21178 0.95333 0.09463 0.0
O204 O 0.21193 0.94762 0.12467 0.0
C205 C 0.17269 0.91845 0.12748 0.0
O206 O 0.18993 0.92643 0.07455 0.0
O207 O 0.1982 0.8988 0.08434 0.0
In208 In 0.12155 0.32981 0.04812 0.0
O209 O 0.15031 0.3274 0.06431 0.0
O210 O 0.13656 0.35465 0.06175 0.0
C211 C 0.11178 0.29582 0.03299 0.0
C212 C 0.09657 0.33278 0.077 0.0
C213 C 0.12962 0.34954 0.01606 0.0
O214 O 0.12824 0.29875 0.04016 0.0
O215 O 0.10039 0.3099 0.03376 0.0
O216 O 0.11516 0.35367 0.02629 0.0
O217 O 0.13907 0.33513 0.02163 0.0
C218 C 0.15073 0.34524 0.06793 0.0
O219 O 0.09449 0.3422 0.06157 0.0
O220 O 0.11067 0.32138 0.07726 0.0
In221 In 0.65029 0.17367 0.95236 0.0
O222 O 0.6798 0.17727 0.93791 0.0
O223 O 0.66633 0.14984 0.93791 0.0
C224 C 0.64125 0.20804 0.96724 0.0
C225 C 0.62483 0.16994 0.92389 0.0
C226 C 0.65669 0.15325 0.9845 0.0
O227 O 0.65735 0.20483 0.95948 0.0
O228 O 0.62972 0.19408 0.96702 0.0
O229 O 0.64296 0.14926 0.97332 0.0
O230 O 0.66646 0.16769 0.9797 0.0
C231 C 0.68069 0.15975 0.93316 0.0
O232 O 0.62287 0.1613 0.93973 0.0
O233 O 0.63915 0.181 0.92287 0.0
In234 In 0.07217 0.39355 0.20955 0.0
O235 O 0.06418 0.42339 0.19791 0.0
O236 O 0.09135 0.4114 0.19065 0.0
C237 C 0.04083 0.38088 0.228 0.0
C238 C 0.0732 0.36811 0.18089 0.0
C239 C 0.09547 0.40015 0.23974 0.0
O240 O 0.0419 0.39774 0.22134 0.0
O241 O 0.05529 0.37044 0.22486 0.0
O242 O 0.10033 0.38882 0.22643 0.0
O243 O 0.07918 0.40769 0.23769 0.0
C244 C 0.07994 0.42535 0.1891 0.0
O245 O 0.08442 0.36705 0.19515 0.0
O246 O 0.06126 0.38175 0.18141 0.0
In247 In 0.84613 0.82004 0.43664 0.0
O248 O 0.87457 0.83223 0.42647 0.0
O249 O 0.8619 0.8095 0.41029 0.0
C250 C 0.8352 0.84338 0.4655 0.0
C251 C 0.81984 0.83269 0.41143 0.0
C252 C 0.85272 0.78668 0.45496 0.0
O253 O 0.85177 0.84447 0.45816 0.0
O254 O 0.82478 0.83026 0.45873 0.0
O255 O 0.83763 0.78947 0.44527 0.0
O256 O 0.86436 0.80053 0.45514 0.0
C257 C 0.87546 0.82146 0.41186 0.0
O258 O 0.81824 0.81639 0.41934 0.0
O259 O 0.83467 0.84198 0.41601 0.0
In260 In 0.91913 0.1081 0.20239 0.0
O261 O 0.91917 0.0761 0.20864 0.0
O262 O 0.91206 0.08493 0.18035 0.0
C263 C 0.95305 0.11539 0.21962 0.0
C264 C 0.91812 0.13223 0.17235 0.0
C265 C 0.88919 0.11038 0.22704 0.0
O266 O 0.94877 0.09902 0.21319 0.0
O267 O 0.94053 0.12812 0.21679 0.0
O268 O 0.88705 0.10627 0.20958 0.0
O269 O 0.90618 0.11443 0.2317 0.0
C270 C 0.9137 0.07124 0.19208 0.0
O271 O 0.90824 0.13483 0.18731 0.0
O272 O 0.92869 0.11752 0.17263 0.0
In273 In 0.35064 0.67115 0.54964 0.0
O274 O 0.32075 0.67442 0.56356 0.0
O275 O 0.33516 0.64751 0.56511 0.0
C276 C 0.36079 0.70541 0.53542 0.0
C277 C 0.37709 0.66826 0.57734 0.0
C278 C 0.34518 0.65313 0.5159 0.0
O279 O 0.34416 0.70241 0.54214 0.0
O280 O 0.37223 0.69141 0.53661 0.0
O281 O 0.35642 0.64638 0.52845 0.0
O282 O 0.33698 0.66856 0.52047 0.0
C283 C 0.3205 0.6572 0.56938 0.0
O284 O 0.37821 0.65873 0.5619 0.0
O285 O 0.3629 0.67951 0.57845 0.0
In286 In 0.07606 0.60529 0.29642 0.0
O287 O 0.07619 0.57793 0.3147 0.0
O288 O 0.10121 0.59564 0.31402 0.0
C289 C 0.04217 0.60676 0.27816 0.0
C290 C 0.07254 0.63237 0.32336 0.0
C291 C 0.10007 0.5999 0.26667 0.0
O292 O 0.04804 0.59152 0.28609 0.0
O293 O 0.05331 0.62094 0.2796 0.0
O294 O 0.097 0.61648 0.27343 0.0
O295 O 0.09068 0.58658 0.27451 0.0
C296 C 0.09331 0.58061 0.32031 0.0
O297 O 0.08407 0.63413 0.30941 0.0
O298 O 0.06241 0.61735 0.32312 0.0
In299 In 0.42145 0.40668 0.79609 0.0
O300 O 0.42709 0.43637 0.80941 0.0
O301 O 0.39933 0.42392 0.81213 0.0
C302 C 0.45582 0.39502 0.78316 0.0
C303 C 0.41598 0.38019 0.82339 0.0
C304 C 0.40363 0.41321 0.76232 0.0
O305 O 0.45336 0.4115 0.79038 0.0
O306 O 0.44112 0.38443 0.78306 0.0
O307 O 0.39625 0.40253 0.77498 0.0
O308 O 0.41963 0.42032 0.76678 0.0
C309 C 0.41017 0.43789 0.81582 0.0
O310 O 0.40718 0.37962 0.8075 0.0
O311 O 0.42781 0.39382 0.82516 0.0
In312 In 0.95191 0.85491 0.66601 0.0
O313 O 0.93862 0.82491 0.6701 0.0
O314 O 0.9393 0.83732 0.64219 0.0
C315 C 0.96613 0.86564 0.70014 0.0
C316 C 0.92129 0.87788 0.66344 0.0
C317 C 0.98459 0.85219 0.64556 0.0
O318 O 0.96076 0.84859 0.6969 0.0
O319 O 0.96403 0.87711 0.68627 0.0
O320 O 0.97132 0.86363 0.64082 0.0
O321 O 0.98143 0.84266 0.66063 0.0
C322 C 0.93441 0.8233 0.65248 0.0
O323 O 0.93646 0.88096 0.65391 0.0
O324 O 0.92201 0.86369 0.67467 0.0
In325 In 0.88951 0.19792 0.42739 0.0
O326 O 0.86555 0.18622 0.40857 0.0
O327 O 0.87723 0.16811 0.4303 0.0
C328 C 0.8906 0.22778 0.40275 0.0
C329 C 0.92583 0.18458 0.42343 0.0
C330 C 0.87648 0.20955 0.46201 0.0
O331 O 0.89203 0.21062 0.39715 0.0
O332 O 0.88764 0.22967 0.4205 0.0
O333 O 0.89403 0.20605 0.45902 0.0
O334 O 0.86574 0.20681 0.44776 0.0
C335 C 0.86537 0.17003 0.41674 0.0
O336 O 0.92192 0.20214 0.42509 0.0
O337 O 0.9116 0.17361 0.42532 0.0
In338 In 0.54689 0.14302 0.16378 0.0
O339 O 0.54265 0.17549 0.16583 0.0
O340 O 0.57007 0.16513 0.15759 0.0
C341 C 0.53386 0.13189 0.19843 0.0
C342 C 0.57657 0.11927 0.15825 0.0
C343 C 0.51919 0.14259 0.13653 0.0
O344 O 0.53829 0.14909 0.19484 0.0
O345 O 0.53602 0.12046 0.18459 0.0
O346 O 0.53653 0.14601 0.13271 0.0
O347 O 0.51602 0.13859 0.15388 0.0
C348 C 0.55945 0.17949 0.16036 0.0
O349 O 0.5616 0.1185 0.14803 0.0
O350 O 0.57629 0.13177 0.17134 0.0
In351 In 0.60762 0.79865 0.92441 0.0
O352 O 0.57774 0.81061 0.93202 0.0
O353 O 0.58973 0.81706 0.90469 0.0
C354 C 0.6203 0.78186 0.95682 0.0
C355 C 0.6337 0.82651 0.92042 0.0
C356 C 0.60042 0.76813 0.9017 0.0
O357 O 0.60375 0.78923 0.95564 0.0
O358 O 0.63042 0.78343 0.94191 0.0
O359 O 0.61225 0.78098 0.89691 0.0
O360 O 0.59271 0.7706 0.91785 0.0
C361 C 0.57573 0.81888 0.91598 0.0
O362 O 0.6346 0.81096 0.91113 0.0
O363 O 0.61989 0.82773 0.93214 0.0
In364 In 0.94592 0.14466 0.82398 0.0
O365 O 0.93577 0.17603 0.82029 0.0
O366 O 0.94051 0.16503 0.84834 0.0
C367 C 0.95801 0.13509 0.78866 0.0
C368 C 0.91367 0.12398 0.82765 0.0
C369 C 0.97891 0.14021 0.84368 0.0
O370 O 0.95614 0.1524 0.79384 0.0
O371 O 0.95318 0.12285 0.80111 0.0
O372 O 0.96301 0.13448 0.85023 0.0
O373 O 0.97814 0.1476 0.82719 0.0
C374 C 0.93565 0.17914 0.83818 0.0
O375 O 0.92949 0.11868 0.83477 0.0
O376 O 0.91423 0.13961 0.81854 0.0
In377 In 0.61389 0.20016 0.57658 0.0
O378 O 0.64188 0.1883 0.58821 0.0
O379 O 0.62693 0.17224 0.56677 0.0
C380 C 0.60561 0.2307 0.59858 0.0
C381 C 0.58518 0.1779 0.58971 0.0
C382 C 0.62311 0.21763 0.54349 0.0
O383 O 0.61971 0.2199 0.60234 0.0
O384 O 0.59638 0.2263 0.58366 0.0
O385 O 0.60707 0.2094 0.54583 0.0
O386 O 0.63441 0.21658 0.55761 0.0
C387 C 0.64107 0.17321 0.57812 0.0
O388 O 0.58481 0.18467 0.57282 0.0
O389 O 0.59984 0.18228 0.59935 0.0
In390 In 0.53767 0.8576 0.33228 0.0
O391 O 0.55002 0.88508 0.34479 0.0
O392 O 0.5654 0.87066 0.32247 0.0
C393 C 0.50592 0.849 0.35237 0.0
C394 C 0.56038 0.83009 0.34698 0.0
C395 C 0.52216 0.86727 0.29838 0.0
O396 O 0.51557 0.86398 0.35587 0.0
O397 O 0.51208 0.83899 0.33859 0.0
O398 O 0.52931 0.85079 0.30121 0.0
O399 O 0.5229 0.87853 0.31255 0.0
C400 C 0.56485 0.88443 0.33426 0.0
O401 O 0.55525 0.82967 0.3295 0.0
O402 O 0.55391 0.84406 0.35647 0.0
In403 In 0.87793 0.79453 0.08519 0.0
O404 O 0.90699 0.81043 0.08353 0.0
O405 O 0.89455 0.80462 0.11083 0.0
C406 C 0.86807 0.78325 0.04972 0.0
C407 C 0.85272 0.82279 0.09092 0.0
C408 C 0.88344 0.76034 0.10197 0.0
O409 O 0.88478 0.7893 0.05355 0.0
O410 O 0.85655 0.78313 0.06369 0.0
O411 O 0.87047 0.77172 0.10762 0.0
O412 O 0.89284 0.76596 0.08755 0.0
C413 C 0.90838 0.81172 0.10162 0.0
O414 O 0.85088 0.80659 0.09891 0.0
O415 O 0.86693 0.82434 0.07976 0.0
In416 In 0.67107 0.9469 0.84622 0.0
O417 O 0.65705 0.93838 0.8744 0.0
O418 O 0.67996 0.92109 0.86363 0.0
C419 C 0.64879 0.97632 0.8344 0.0
C420 C 0.65953 0.92039 0.8207 0.0
C421 C 0.70537 0.96341 0.85289 0.0
O422 O 0.64819 0.97019 0.85145 0.0
O423 O 0.66085 0.96801 0.82382 0.0
O424 O 0.70174 0.95492 0.8373 0.0
O425 O 0.69183 0.96351 0.86486 0.0
C426 C 0.66742 0.92361 0.8765 0.0
O427 O 0.67601 0.928 0.81969 0.0
O428 O 0.64934 0.92605 0.83454 0.0
In429 In 0.79983 0.92117 0.58834 0.0
O430 O 0.79419 0.91312 0.55716 0.0
O431 O 0.82295 0.91916 0.56512 0.0
C432 C 0.78188 0.95514 0.59361 0.0
C433 C 0.83103 0.91979 0.61087 0.0
C434 C 0.77492 0.89233 0.59576 0.0
O435 O 0.78943 0.94574 0.60704 0.0
O436 O 0.78386 0.94773 0.5772 0.0
O437 O 0.77228 0.90929 0.60143 0.0
O438 O 0.79063 0.88966 0.58721 0.0
C439 C 0.8116 0.91356 0.55219 0.0
O440 O 0.81695 0.90859 0.61311 0.0
O441 O 0.82923 0.93175 0.59742 0.0
In442 In 0.82615 0.04603 0.34659 0.0
O443 O 0.82162 0.06249 0.31818 0.0
O444 O 0.8485 0.06446 0.33267 0.0
C445 C 0.79255 0.03072 0.35744 0.0
C446 C 0.82962 0.07199 0.37443 0.0
C447 C 0.84642 0.01431 0.33795 0.0
O448 O 0.79485 0.03777 0.34084 0.0
O449 O 0.80699 0.03172 0.3683 0.0
O450 O 0.85151 0.02552 0.35125 0.0
O451 O 0.83124 0.01908 0.32934 0.0
C452 C 0.83836 0.0696 0.31862 0.0
O453 O 0.83912 0.05648 0.37451 0.0
O454 O 0.81796 0.07392 0.36065 0.0
In455 In 0.71322 0.08571 0.10935 0.0
O456 O 0.69757 0.096 0.13619 0.0
O457 O 0.68189 0.08036 0.11511 0.0
C458 C 0.74733 0.10327 0.11277 0.0
C459 C 0.70199 0.1031 0.07671 0.0
C460 C 0.72416 0.04952 0.11631 0.0
O461 O 0.73227 0.11018 0.12018 0.0
O462 O 0.74519 0.08742 0.10431 0.0
O463 O 0.72093 0.05554 0.09946 0.0
O464 O 0.72143 0.06168 0.12946 0.0
C465 C 0.68164 0.08907 0.13096 0.0
O466 O 0.70047 0.08512 0.07873 0.0
O467 O 0.70909 0.11177 0.09085 0.0
In468 In 0.67166 0.0455 0.6425 0.0
O469 O 0.65939 0.05803 0.6151 0.0
O470 O 0.68257 0.07277 0.62867 0.0
C471 C 0.64793 0.01563 0.64894 0.0
C472 C 0.65962 0.06879 0.67083 0.0
C473 C 0.70517 0.02806 0.63434 0.0
O474 O 0.64854 0.02411 0.63294 0.0
O475 O 0.6594 0.02202 0.66137 0.0
O476 O 0.70233 0.03612 0.65035 0.0
O477 O 0.69125 0.02888 0.62285 0.0
C478 C 0.67059 0.07231 0.61506 0.0
O479 O 0.67564 0.06022 0.67177 0.0
O480 O 0.65013 0.06561 0.65575 0.0
In481 In 0.70027 0.91597 0.38346 0.0
O482 O 0.68401 0.90439 0.35773 0.0
O483 O 0.67044 0.92567 0.37503 0.0
C484 C 0.72645 0.88734 0.38054 0.0
C485 C 0.68869 0.9108 0.42011 0.0
C486 C 0.71516 0.95005 0.37295 0.0
O487 O 0.70887 0.88418 0.38323 0.0
O488 O 0.73066 0.90479 0.37865 0.0
O489 O 0.71125 0.94614 0.39022 0.0
O490 O 0.71133 0.9369 0.36114 0.0
C491 C 0.66931 0.91459 0.36074 0.0
O492 O 0.7046 0.91847 0.41603 0.0
O493 O 0.67849 0.90662 0.4058 0.0
In494 In 0.82791 0.95138 0.15785 0.0
O495 O 0.83818 0.93822 0.13001 0.0
O496 O 0.81645 0.92347 0.1458 0.0
C497 C 0.8524 0.98126 0.16006 0.0
C498 C 0.84181 0.92911 0.18612 0.0
C499 C 0.7939 0.9692 0.15323 0.0
O500 O 0.84892 0.97288 0.14439 0.0
O501 O 0.84334 0.97481 0.17431 0.0
O502 O 0.79964 0.96378 0.16956 0.0
O503 O 0.80513 0.96537 0.13962 0.0
C504 C 0.82725 0.92379 0.13123 0.0
O505 O 0.82498 0.93597 0.18686 0.0
O506 O 0.85114 0.93335 0.17119 0.0
In507 In 0.79761 0.06936 0.90124 0.0
O508 O 0.80605 0.06557 0.93297 0.0
O509 O 0.81529 0.0906 0.91826 0.0
C510 C 0.78371 0.03466 0.89201 0.0
C511 C 0.82647 0.07164 0.87606 0.0
C512 C 0.76506 0.09036 0.90247 0.0
O513 O 0.78993 0.03845 0.90865 0.0
O514 O 0.78524 0.04813 0.88 0.0
O515 O 0.78006 0.09659 0.89448 0.0
O516 O 0.76657 0.07385 0.90956 0.0
C517 C 0.8151 0.08127 0.93371 0.0
O518 O 0.81107 0.08107 0.87408 0.0
O519 O 0.82692 0.06054 0.89039 0.0
In520 In 0.84911 0.67996 0.9462 0.0
O521 O 0.87773 0.66945 0.93491 0.0
O522 O 0.86179 0.68965 0.91813 0.0
C523 C 0.84285 0.66008 0.97861 0.0
C524 C 0.82131 0.66465 0.92422 0.0
C525 C 0.85773 0.71404 0.96171 0.0
O526 O 0.85548 0.65491 0.96665 0.0
O527 O 0.83377 0.67507 0.97421 0.0
O528 O 0.84123 0.71065 0.9548 0.0
O529 O 0.86966 0.70051 0.96025 0.0
C530 C 0.87654 0.67916 0.91958 0.0
O531 O 0.81987 0.68162 0.93061 0.0
O532 O 0.83637 0.65592 0.92909 0.0
In533 In 0.3466 0.82325 0.0464 0.0
O534 O 0.31929 0.81874 0.06448 0.0
O535 O 0.33239 0.84636 0.06376 0.0
C536 C 0.35503 0.78916 0.03027 0.0
C537 C 0.37472 0.82796 0.07209 0.0
C538 C 0.33579 0.84436 0.01589 0.0
O539 O 0.33914 0.79226 0.03848 0.0
O540 O 0.36658 0.80309 0.03049 0.0
O541 O 0.35202 0.84661 0.02372 0.0
O542 O 0.32572 0.83113 0.02298 0.0
C543 C 0.31886 0.83608 0.06996 0.0
O544 O 0.37423 0.83729 0.0565 0.0
O545 O 0.36149 0.81573 0.07416 0.0
In546 In 0.91561 0.61681 0.79367 0.0
O547 O 0.90183 0.64405 0.80491 0.0
O548 O 0.92446 0.63126 0.82121 0.0
C549 C 0.89289 0.60879 0.76329 0.0
C550 C 0.90833 0.58546 0.81516 0.0
C551 C 0.94878 0.62842 0.77779 0.0
O552 O 0.88737 0.61986 0.77653 0.0
O553 O 0.90961 0.60232 0.76539 0.0
O554 O 0.94737 0.61269 0.78671 0.0
O555 O 0.93359 0.63826 0.77719 0.0
C556 C 0.91215 0.64452 0.81986 0.0
O557 O 0.92216 0.5861 0.80347 0.0
O558 O 0.89851 0.60058 0.81617 0.0
In559 In 0.16141 0.16116 0.55464 0.0
O560 O 0.1898 0.16635 0.57073 0.0
O561 O 0.1751 0.13974 0.5744 0.0
C562 C 0.14953 0.19441 0.53913 0.0
C563 C 0.1334 0.15615 0.58026 0.0
C564 C 0.17227 0.14082 0.5236 0.0
O565 O 0.16568 0.19306 0.54736 0.0
O566 O 0.13982 0.17918 0.53879 0.0
O567 O 0.15624 0.13811 0.53166 0.0
O568 O 0.18238 0.15385 0.531 0.0
C569 C 0.18944 0.14995 0.5786 0.0
O570 O 0.13489 0.14573 0.56543 0.0
O571 O 0.14584 0.16928 0.58181 0.0
In572 In 0.07819 0.88418 0.79399 0.0
O573 O 0.08958 0.8569 0.80783 0.0
O574 O 0.07472 0.87697 0.82542 0.0
C575 C 0.09655 0.88143 0.76017 0.0
C576 C 0.09384 0.91764 0.80559 0.0
C577 C 0.04212 0.87697 0.78243 0.0
O578 O 0.10359 0.87464 0.77545 0.0
O579 O 0.0801 0.88879 0.76192 0.0
O580 O 0.04825 0.89388 0.78489 0.0
O581 O 0.05397 0.8639 0.78652 0.0
C582 C 0.08362 0.86125 0.82439 0.0
O583 O 0.07636 0.91389 0.80879 0.0
O584 O 0.10285 0.90476 0.79675 0.0
In585 In 0.63518 0.33799 0.45478 0.0
O586 O 0.60773 0.35107 0.44308 0.0
O587 O 0.62215 0.32993 0.42625 0.0
C588 C 0.64132 0.35918 0.48643 0.0
C589 C 0.66316 0.3537 0.43338 0.0
C590 C 0.6288 0.30275 0.46934 0.0
O591 O 0.62497 0.35829 0.47862 0.0
O592 O 0.65404 0.34888 0.47877 0.0
O593 O 0.64506 0.30763 0.46292 0.0
O594 O 0.61605 0.31551 0.46825 0.0
C595 C 0.60836 0.34164 0.42758 0.0
O596 O 0.66355 0.33608 0.43791 0.0
O597 O 0.64869 0.36278 0.43935 0.0
In598 In 0.9272 0.39712 0.69513 0.0
O599 O 0.91753 0.36929 0.68132 0.0
O600 O 0.93484 0.38833 0.6648 0.0
C601 C 0.90604 0.39723 0.72751 0.0
C602 C 0.91237 0.42858 0.67825 0.0
C603 C 0.96222 0.38961 0.70937 0.0
O604 O 0.90115 0.38766 0.71293 0.0
O605 O 0.92161 0.40629 0.72581 0.0
O606 O 0.95723 0.40637 0.70447 0.0
O607 O 0.94969 0.37681 0.70665 0.0
C608 C 0.92551 0.37282 0.66542 0.0
O609 O 0.93014 0.42729 0.68182 0.0
O610 O 0.90257 0.4143 0.68336 0.0
In611 In 0.57435 0.59939 0.19751 0.0
O612 O 0.58949 0.62621 0.18697 0.0
O613 O 0.56314 0.61837 0.17356 0.0
C614 C 0.60513 0.58561 0.21637 0.0
C615 C 0.5742 0.56909 0.17354 0.0
C616 C 0.54836 0.6084 0.22483 0.0
O617 O 0.60436 0.60288 0.21081 0.0
O618 O 0.59045 0.57575 0.21265 0.0
O619 O 0.54316 0.60252 0.20849 0.0
O620 O 0.5662 0.60995 0.22698 0.0
C621 C 0.57729 0.62968 0.174 0.0
O622 O 0.56446 0.56938 0.18886 0.0
O623 O 0.58272 0.58457 0.16974 0.0
In624 In 0.54898 0.64192 0.83216 0.0
O625 O 0.55978 0.67328 0.83286 0.0
O626 O 0.55568 0.65835 0.85912 0.0
C627 C 0.53218 0.63962 0.79748 0.0
C628 C 0.58166 0.62159 0.82918 0.0
C629 C 0.51821 0.6349 0.85451 0.0
O630 O 0.53671 0.65547 0.80508 0.0
O631 O 0.5368 0.62496 0.80712 0.0
O632 O 0.53458 0.62816 0.85848 0.0
O633 O 0.51739 0.64432 0.83909 0.0
C634 C 0.56056 0.67369 0.85099 0.0
O635 O 0.56678 0.61483 0.83705 0.0
O636 O 0.57974 0.63823 0.82237 0.0
In637 In 0.60293 0.29933 0.07937 0.0
O638 O 0.57437 0.31539 0.07568 0.0
O639 O 0.5902 0.31903 0.1016 0.0
C640 C 0.60633 0.28262 0.04458 0.0
C641 C 0.63078 0.32569 0.08141 0.0
C642 C 0.59876 0.26925 0.10348 0.0
O643 O 0.59024 0.28743 0.05137 0.0
O644 O 0.62045 0.28658 0.05512 0.0
O645 O 0.61508 0.27539 0.09862 0.0
O646 O 0.58487 0.27801 0.09599 0.0
C647 C 0.57536 0.32316 0.09208 0.0
O648 O 0.63074 0.31081 0.09179 0.0
O649 O 0.61708 0.32686 0.06957 0.0
In650 In 0.95835 0.35248 0.35099 0.0
O651 O 0.94568 0.37921 0.36483 0.0
O652 O 0.9306 0.36602 0.3416 0.0
C653 C 0.99006 0.34376 0.37136 0.0
C654 C 0.93545 0.32388 0.363 0.0
C655 C 0.97327 0.36326 0.31714 0.0
O656 O 0.98029 0.35864 0.37492 0.0
O657 O 0.984 0.33387 0.35749 0.0
O658 O 0.9662 0.34672 0.31963 0.0
O659 O 0.97286 0.37405 0.33166 0.0
C660 C 0.93098 0.37914 0.3541 0.0
O661 O 0.9423 0.32403 0.34616 0.0
O662 O 0.94039 0.33784 0.37338 0.0
In663 In 0.89069 0.70361 0.57241 0.0
O664 O 0.91921 0.68668 0.57413 0.0
O665 O 0.90487 0.69481 0.59985 0.0
C666 C 0.88554 0.71519 0.53606 0.0
C667 C 0.86438 0.67592 0.57593 0.0
C668 C 0.89437 0.73841 0.58839 0.0
O669 O 0.90166 0.70926 0.54207 0.0
O670 O 0.87209 0.71456 0.54821 0.0
O671 O 0.88209 0.72649 0.59445 0.0
O672 O 0.90416 0.73292 0.57421 0.0
C673 C 0.91903 0.6865 0.59232 0.0
O674 O 0.86197 0.69239 0.58318 0.0
O675 O 0.87966 0.67385 0.56639 0.0
In676 In 0.54128 0.34865 0.67086 0.0
O677 O 0.55835 0.37562 0.6638 0.0
O678 O 0.57187 0.35347 0.68006 0.0
C679 C 0.50858 0.35205 0.65072 0.0
C680 C 0.555 0.31813 0.65179 0.0
C681 C 0.52701 0.35388 0.70619 0.0
O682 O 0.52334 0.36175 0.64648 0.0
O683 O 0.51027 0.34145 0.6653 0.0
O684 O 0.53032 0.33729 0.69955 0.0
O685 O 0.53129 0.36759 0.69514 0.0
C686 C 0.57336 0.3697 0.67217 0.0
O687 O 0.55417 0.31819 0.66995 0.0
O688 O 0.54895 0.33313 0.64378 0.0
In689 In 0.9086 0.30306 0.92361 0.0
O690 O 0.88164 0.31446 0.90928 0.0
O691 O 0.89538 0.33201 0.93027 0.0
C692 C 0.91551 0.27033 0.90417 0.0
C693 C 0.9402 0.32259 0.91276 0.0
C694 C 0.89704 0.2884 0.95741 0.0
O695 O 0.90367 0.28265 0.89811 0.0
O696 O 0.92357 0.27459 0.91977 0.0
O697 O 0.91288 0.29711 0.95563 0.0
O698 O 0.88697 0.28776 0.94238 0.0
C699 C 0.88193 0.33024 0.91823 0.0
O700 O 0.93867 0.31552 0.92942 0.0
O701 O 0.92589 0.31993 0.90204 0.0
In702 In 0.95109 0.63896 0.16494 0.0
O703 O 0.93664 0.61139 0.15469 0.0
O704 O 0.92158 0.62963 0.1741 0.0
C705 C 0.98544 0.64066 0.1476 0.0
C706 C 0.93462 0.66879 0.14685 0.0
C707 C 0.96467 0.63363 0.20049 0.0
O708 O 0.97256 0.62923 0.14179 0.0
O709 O 0.981 0.65066 0.16199 0.0
O710 O 0.95837 0.64973 0.19484 0.0
O711 O 0.96348 0.6202 0.18834 0.0
C712 C 0.92139 0.61459 0.16406 0.0
O713 O 0.93546 0.66805 0.16498 0.0
O714 O 0.94209 0.65476 0.13828 0.0
In715 In 0.60786 0.70429 0.41057 0.0
O716 O 0.63061 0.6858 0.39576 0.0
O717 O 0.61056 0.67218 0.41432 0.0
C718 C 0.60865 0.73668 0.38956 0.0
C719 C 0.57084 0.69645 0.40301 0.0
C720 C 0.62382 0.71685 0.44345 0.0
O721 O 0.61427 0.72079 0.38278 0.0
O722 O 0.60363 0.73618 0.40696 0.0
O723 O 0.60598 0.71382 0.44187 0.0
O724 O 0.63352 0.71296 0.42865 0.0
C725 C 0.62464 0.67034 0.40313 0.0
O726 O 0.57787 0.6933 0.41945 0.0
O727 O 0.58233 0.70329 0.39091 0.0
In728 In 0.8277 0.54707 0.63941 0.0
O729 O 0.82704 0.5624 0.66887 0.0
O730 O 0.85385 0.55608 0.65566 0.0
C731 C 0.79206 0.5349 0.63158 0.0
C732 C 0.83141 0.57556 0.61395 0.0
C733 C 0.84495 0.51269 0.64187 0.0
O734 O 0.79702 0.53974 0.6484 0.0
O735 O 0.80489 0.53682 0.61893 0.0
O736 O 0.85135 0.52577 0.63105 0.0
O737 O 0.82977 0.51684 0.65081 0.0
C738 C 0.84519 0.56318 0.66983 0.0
O739 O 0.839 0.55927 0.61138 0.0
O740 O 0.82172 0.57724 0.62919 0.0
In741 In 0.70658 0.57631 0.8937 0.0
O742 O 0.71154 0.57978 0.92589 0.0
O743 O 0.68283 0.58087 0.91585 0.0
C744 C 0.72524 0.54283 0.88773 0.0
C745 C 0.6762 0.57646 0.8699 0.0
C746 C 0.73056 0.60673 0.89018 0.0
O747 O 0.71956 0.54805 0.90412 0.0
O748 O 0.72105 0.55424 0.87433 0.0
O749 O 0.71317 0.60852 0.89478 0.0
O750 O 0.7355 0.58978 0.88627 0.0
C751 C 0.69409 0.58247 0.92991 0.0
O752 O 0.68999 0.5881 0.86814 0.0
O753 O 0.67812 0.56438 0.88325 0.0
In754 In 0.66578 0.45226 0.1458 0.0
O755 O 0.6718 0.43712 0.1744 0.0
O756 O 0.6449 0.43256 0.16056 0.0
C757 C 0.69928 0.47052 0.13932 0.0
C758 C 0.66413 0.42551 0.11822 0.0
C759 C 0.63993 0.48018 0.15311 0.0
O760 O 0.69549 0.4628 0.15525 0.0
O761 O 0.68622 0.46912 0.12691 0.0
O762 O 0.6419 0.4732 0.13651 0.0
O763 O 0.65149 0.47381 0.16543 0.0
C764 C 0.65541 0.42927 0.17493 0.0
O765 O 0.65361 0.44028 0.11807 0.0
O766 O 0.67579 0.42453 0.13207 0.0
In767 In 0.79487 0.41724 0.39938 0.0
O768 O 0.80624 0.4208 0.43028 0.0
O769 O 0.80313 0.39276 0.41865 0.0
C770 C 0.78207 0.45222 0.38956 0.0
C771 C 0.82667 0.41399 0.37797 0.0
C772 C 0.76173 0.39744 0.39806 0.0
O773 O 0.78588 0.44785 0.40678 0.0
O774 O 0.78518 0.4391 0.37747 0.0
O775 O 0.77664 0.39163 0.38951 0.0
O776 O 0.76352 0.41324 0.40666 0.0
C777 C 0.80799 0.4029 0.43279 0.0
O778 O 0.81101 0.40614 0.37322 0.0
O779 O 0.82603 0.42377 0.39319 0.0
In780 In 0.84121 0.45456 0.85067 0.0
O781 O 0.85364 0.44419 0.87897 0.0
O782 O 0.83304 0.4265 0.8648 0.0
C783 C 0.86232 0.48582 0.84264 0.0
C784 C 0.85801 0.43216 0.82423 0.0
C785 C 0.806 0.46997 0.85529 0.0
O786 O 0.86058 0.47975 0.85965 0.0
O787 O 0.85301 0.47662 0.83019 0.0
O788 O 0.81096 0.46206 0.83972 0.0
O789 O 0.81857 0.46969 0.86828 0.0
C790 C 0.84441 0.42856 0.87879 0.0
O791 O 0.84033 0.43647 0.82306 0.0
O792 O 0.86654 0.43873 0.83879 0.0
In793 In 0.79701 0.57455 0.09528 0.0
O794 O 0.81432 0.58153 0.12208 0.0
O795 O 0.82721 0.56388 0.1007 0.0
C796 C 0.76583 0.59716 0.09845 0.0
C797 C 0.81144 0.59028 0.06313 0.0
C798 C 0.78002 0.54071 0.10189 0.0
O799 O 0.78136 0.60121 0.10692 0.0
O800 O 0.76609 0.58179 0.08894 0.0
O801 O 0.78459 0.5461 0.08515 0.0
O802 O 0.78471 0.55211 0.11518 0.0
C803 C 0.82898 0.57233 0.11661 0.0
O804 O 0.80801 0.57248 0.06414 0.0
O805 O 0.80756 0.59963 0.07809 0.0
In806 In 0.67874 0.54602 0.33621 0.0
O807 O 0.66097 0.56323 0.35772 0.0
O808 O 0.68712 0.57532 0.34772 0.0
C809 C 0.6512 0.51902 0.34117 0.0
C810 C 0.67543 0.55834 0.2996 0.0
C811 C 0.7128 0.52935 0.3443 0.0
O812 O 0.66767 0.51783 0.34859 0.0
O813 O 0.64825 0.53431 0.33195 0.0
O814 O 0.70665 0.53113 0.32736 0.0
O815 O 0.70208 0.5365 0.35697 0.0
C816 C 0.67233 0.57734 0.35793 0.0
O817 O 0.68035 0.56923 0.31316 0.0
O818 O 0.67333 0.54101 0.30433 0.0
In819 In 0.69762 0.42095 0.61032 0.0
O820 O 0.68091 0.40742 0.63487 0.0
O821 O 0.66854 0.43132 0.62035 0.0
C822 C 0.72297 0.39149 0.61193 0.0
C823 C 0.68555 0.41676 0.57374 0.0
C824 C 0.71379 0.45448 0.62077 0.0
O825 O 0.70529 0.38892 0.6091 0.0
O826 O 0.72759 0.40871 0.61494 0.0
O827 O 0.70877 0.45107 0.60368 0.0
O828 O 0.71045 0.44108 0.63246 0.0
C829 C 0.66676 0.41867 0.63317 0.0
O830 O 0.70277 0.42057 0.57788 0.0
O831 O 0.67437 0.41626 0.58791 0.0
In832 In 0.65613 0.82571 0.54063 0.0
O833 O 0.63162 0.84343 0.55293 0.0
O834 O 0.64175 0.8195 0.5691 0.0
C835 C 0.65643 0.85164 0.51151 0.0
C836 C 0.68961 0.82915 0.55997 0.0
C837 C 0.64797 0.79081 0.5256 0.0
O838 O 0.6693 0.85082 0.52413 0.0
O839 O 0.64312 0.83962 0.5137 0.0
O840 O 0.66404 0.79882 0.52332 0.0
O841 O 0.63644 0.80006 0.53597 0.0
C842 C 0.63027 0.83351 0.56807 0.0
O843 O 0.68781 0.81785 0.5459 0.0
O844 O 0.67449 0.83795 0.56447 0.0
In845 In 0.13917 0.67602 0.44466 0.0
O846 O 0.16936 0.67608 0.43123 0.0
O847 O 0.15115 0.65163 0.42771 0.0
C848 C 0.1314 0.7087 0.4635 0.0
C849 C 0.116 0.67918 0.4143 0.0
C850 C 0.14313 0.65115 0.47377 0.0
O851 O 0.14791 0.70546 0.45657 0.0
O852 O 0.11922 0.69559 0.46081 0.0
O853 O 0.12751 0.65247 0.46455 0.0
O854 O 0.15601 0.66289 0.46888 0.0
C855 C 0.1673 0.65922 0.42458 0.0
O856 O 0.11221 0.66816 0.42826 0.0
O857 O 0.13113 0.68904 0.4161 0.0
In858 In 0.58427 0.8886 0.69899 0.0
O859 O 0.5976 0.86244 0.68474 0.0
O860 O 0.57862 0.87964 0.66814 0.0
C861 C 0.61169 0.88408 0.72603 0.0
C862 C 0.59162 0.92545 0.68957 0.0
C863 C 0.54861 0.88238 0.71303 0.0
O864 O 0.61556 0.88844 0.7089 0.0
O865 O 0.59413 0.88111 0.72922 0.0
O866 O 0.55431 0.89874 0.70785 0.0
O867 O 0.56062 0.86912 0.71043 0.0
C868 C 0.5897 0.86534 0.6687 0.0
O869 O 0.58926 0.91254 0.67711 0.0
O870 O 0.58932 0.91994 0.70664 0.0
In871 In 0.35694 0.33157 0.9507 0.0
O872 O 0.32848 0.32579 0.93477 0.0
O873 O 0.33888 0.35444 0.93707 0.0
C874 C 0.36979 0.29823 0.96537 0.0
C875 C 0.38241 0.33854 0.92283 0.0
C876 C 0.34776 0.34984 0.98343 0.0
O877 O 0.35322 0.29978 0.95806 0.0
O878 O 0.37986 0.31326 0.96471 0.0
O879 O 0.36123 0.35574 0.97277 0.0
O880 O 0.33962 0.33472 0.97775 0.0
C881 C 0.32587 0.34341 0.93105 0.0
O882 O 0.38306 0.34708 0.93885 0.0
O883 O 0.36936 0.32604 0.92127 0.0
In884 In 0.41551 0.612 0.70653 0.0
O885 O 0.41612 0.58407 0.68897 0.0
O886 O 0.39003 0.59998 0.69094 0.0
C887 C 0.45056 0.61476 0.72272 0.0
C888 C 0.41441 0.63881 0.67895 0.0
C889 C 0.39288 0.60673 0.73742 0.0
O890 O 0.44469 0.59939 0.71508 0.0
O891 O 0.43891 0.62858 0.72186 0.0
O892 O 0.39531 0.62319 0.73016 0.0
O893 O 0.40234 0.59347 0.72959 0.0
C894 C 0.39852 0.58537 0.68448 0.0
O895 O 0.40487 0.64036 0.69433 0.0
O896 O 0.4252 0.62428 0.67809 0.0
In897 In 0.85986 0.17283 0.0452 0.0
O898 O 0.88731 0.15831 0.05561 0.0
O899 O 0.87593 0.18142 0.07201 0.0
C900 C 0.85692 0.14749 0.01584 0.0
C901 C 0.83103 0.16452 0.06958 0.0
C902 C 0.86149 0.20771 0.02836 0.0
O903 O 0.87097 0.1588 0.01736 0.0
O904 O 0.84469 0.14895 0.029 0.0
O905 O 0.87566 0.20003 0.03655 0.0
O906 O 0.8462 0.19801 0.02906 0.0
C907 C 0.88855 0.16852 0.07055 0.0
O908 O 0.83116 0.17998 0.06004 0.0
O909 O 0.84534 0.15382 0.06684 0.0
In910 In 0.58589 0.10584 0.79474 0.0
O911 O 0.58897 0.07346 0.79142 0.0
O912 O 0.58667 0.08442 0.81966 0.0
C913 C 0.5515 0.11557 0.7797 0.0
C914 C 0.5931 0.13097 0.82301 0.0
C915 C 0.61315 0.10603 0.7671 0.0
O916 O 0.56404 0.12769 0.78438 0.0
O917 O 0.55606 0.09836 0.78303 0.0
O918 O 0.59591 0.11059 0.76402 0.0
O919 O 0.61693 0.10228 0.78441 0.0
C920 C 0.5893 0.06996 0.80915 0.0
O921 O 0.60288 0.13054 0.80774 0.0
O922 O 0.57965 0.11887 0.82382 0.0
In923 In 0.93347 0.89592 0.29852 0.0
O924 O 0.93527 0.9264 0.31147 0.0
O925 O 0.90795 0.91458 0.30482 0.0
C926 C 0.96868 0.89085 0.28358 0.0
C927 C 0.93155 0.87298 0.3295 0.0
C928 C 0.91296 0.89269 0.26589 0.0
O929 O 0.96235 0.90725 0.28811 0.0
O930 O 0.95762 0.87706 0.28763 0.0
O931 O 0.90716 0.88559 0.28154 0.0
O932 O 0.92909 0.9008 0.26672 0.0
C933 C 0.91724 0.92863 0.31129 0.0
O934 O 0.9248 0.86815 0.31339 0.0
O935 O 0.93984 0.88907 0.32974 0.0
In936 In 0.45097 0.35185 0.16776 0.0
O937 O 0.45754 0.31964 0.16635 0.0
O938 O 0.4286 0.32839 0.16331 0.0
C939 C 0.4634 0.36448 0.20218 0.0
C940 C 0.41984 0.37342 0.16156 0.0
C941 C 0.47878 0.35497 0.1409 0.0
O942 O 0.46065 0.34687 0.19886 0.0
O943 O 0.4597 0.37544 0.18831 0.0
O944 O 0.46146 0.35199 0.13659 0.0
O945 O 0.48183 0.35715 0.15859 0.0
C946 C 0.44044 0.31476 0.16295 0.0
O947 O 0.43492 0.3752 0.15161 0.0
O948 O 0.42074 0.36105 0.17475 0.0
In949 In 0.40119 0.69688 0.92191 0.0
O950 O 0.42718 0.67645 0.92381 0.0
O951 O 0.41204 0.67936 0.89734 0.0
C952 C 0.39394 0.71322 0.95605 0.0
C953 C 0.37119 0.67335 0.91855 0.0
C954 C 0.41416 0.72724 0.90202 0.0
O955 O 0.40934 0.70405 0.95301 0.0
O956 O 0.38243 0.71379 0.9421 0.0
O957 O 0.39741 0.72067 0.89943 0.0
O958 O 0.42373 0.71891 0.91491 0.0
C959 C 0.42572 0.67161 0.9063 0.0
O960 O 0.37242 0.68879 0.90901 0.0
O961 O 0.38474 0.67037 0.93027 0.0
In962 In 0.04376 0.64317 0.6645 0.0
O963 O 0.05815 0.67293 0.66452 0.0
O964 O 0.05318 0.65862 0.63794 0.0
C965 C 0.02967 0.6368 0.69968 0.0
C966 C 0.07477 0.62067 0.66393 0.0
C967 C 0.01063 0.64364 0.64485 0.0
O968 O 0.03416 0.65346 0.694 0.0
O969 O 0.03273 0.62349 0.68776 0.0
O970 O 0.02377 0.63171 0.64091 0.0
O971 O 0.01409 0.65449 0.65892 0.0
C972 C 0.05963 0.67322 0.6464 0.0
O973 O 0.0595 0.61619 0.65512 0.0
O974 O 0.07395 0.63606 0.67344 0.0
In975 In 0.12036 0.28827 0.42851 0.0
O976 O 0.09017 0.30171 0.43279 0.0
O977 O 0.09746 0.2897 0.40577 0.0
C978 C 0.13063 0.27579 0.46353 0.0
C979 C 0.14082 0.3203 0.42282 0.0
C980 C 0.12417 0.25564 0.40838 0.0
O981 O 0.11323 0.27754 0.45858 0.0
O982 O 0.14268 0.28091 0.45101 0.0
O983 O 0.12935 0.27168 0.40169 0.0
O984 O 0.11798 0.25608 0.42539 0.0
C985 C 0.08503 0.2981 0.41576 0.0
O986 O 0.14548 0.30449 0.41531 0.0
O987 O 0.1261 0.31974 0.43334 0.0
In988 In 0.44894 0.63894 0.33555 0.0
O989 O 0.43907 0.60998 0.34688 0.0
O990 O 0.42396 0.62245 0.32338 0.0
C991 C 0.4777 0.64976 0.35869 0.0
C992 C 0.42359 0.66421 0.34991 0.0
C993 C 0.46886 0.63354 0.30303 0.0
O994 O 0.4704 0.63315 0.35969 0.0
O995 O 0.47063 0.66051 0.34591 0.0
O996 O 0.45526 0.64557 0.30381 0.0
O997 O 0.47199 0.62445 0.31836 0.0
C998 C 0.42509 0.60889 0.33534 0.0
O999 O 0.43061 0.66638 0.33325 0.0
O1000 O 0.42926 0.64945 0.3587 0.0
In1001 In 0.10465 0.69657 0.07376 0.0
O1002 O 0.13084 0.68349 0.08802 0.0
O1003 O 0.11513 0.66654 0.06788 0.0
C1004 C 0.09967 0.72945 0.09338 0.0
C1005 C 0.07284 0.67804 0.08555 0.0
C1006 C 0.11731 0.71021 0.03997 0.0
O1007 O 0.11144 0.71677 0.09883 0.0
O1008 O 0.09093 0.72563 0.078 0.0
O1009 O 0.09993 0.70559 0.04254 0.0
O1010 O 0.12813 0.70752 0.05423 0.0
C1011 C 0.12889 0.6675 0.07965 0.0
O1012 O 0.07546 0.68192 0.06798 0.0
O1013 O 0.08599 0.68366 0.0966 0.0
In1014 In 0.05245 0.34681 0.81958 0.0
O1015 O 0.06824 0.37165 0.83378 0.0
O1016 O 0.0832 0.35532 0.81282 0.0
C1017 C 0.02428 0.35499 0.84494 0.0
C1018 C 0.06213 0.31054 0.82933 0.0
C1019 C 0.03809 0.35175 0.78392 0.0
O1020 O 0.02257 0.35763 0.82711 0.0
O1021 O 0.04062 0.34915 0.85015 0.0
O1022 O 0.03989 0.33538 0.79145 0.0
O1023 O 0.04415 0.36539 0.79411 0.0
C1024 C 0.08369 0.36892 0.82473 0.0
O1025 O 0.04535 0.31708 0.83089 0.0
O1026 O 0.07391 0.32189 0.82163 0.0
In1027 In 0.38627 0.29415 0.58409 0.0
O1028 O 0.35928 0.30805 0.59593 0.0
O1029 O 0.37529 0.32276 0.57423 0.0
C1030 C 0.39332 0.26253 0.60479 0.0
C1031 C 0.41347 0.31514 0.60136 0.0
C1032 C 0.37786 0.27902 0.54969 0.0
O1033 O 0.37689 0.27032 0.6048 0.0
O1034 O 0.40555 0.27022 0.59389 0.0
O1035 O 0.39449 0.28539 0.55342 0.0
O1036 O 0.36589 0.28035 0.5632 0.0
C1037 C 0.3612 0.32295 0.58566 0.0
O1038 O 0.41491 0.31068 0.58373 0.0
O1039 O 0.39847 0.3092 0.6096 0.0
In1040 In 0.16117 0.45606 0.36599 0.0
O1041 O 0.1519 0.44123 0.39346 0.0
O1042 O 0.17 0.42602 0.37395 0.0
C1043 C 0.14131 0.48903 0.36601 0.0
C1044 C 0.14366 0.44058 0.33525 0.0
C1045 C 0.19615 0.47005 0.37356 0.0
O1046 O 0.13642 0.47501 0.37643 0.0
O1047 O 0.15636 0.4865 0.35628 0.0
O1048 O 0.1912 0.46532 0.35671 0.0
O1049 O 0.18361 0.4673 0.38635 0.0
C1050 C 0.16078 0.42589 0.38956 0.0
O1051 O 0.16168 0.44306 0.33542 0.0
O1052 O 0.13515 0.44566 0.35035 0.0
In1053 In 0.28256 0.40403 0.11055 0.0
O1054 O 0.29818 0.39094 0.13612 0.0
O1055 O 0.31337 0.41019 0.11777 0.0
C1056 C 0.24858 0.38597 0.10934 0.0
C1057 C 0.29642 0.38968 0.07753 0.0
C1058 C 0.2708 0.43871 0.12239 0.0
O1059 O 0.26236 0.37962 0.11933 0.0
O1060 O 0.25189 0.40152 0.10065 0.0
O1061 O 0.27502 0.43544 0.105 0.0
O1062 O 0.27276 0.42458 0.13355 0.0
C1063 C 0.3138 0.39938 0.13228 0.0
O1064 O 0.29595 0.40761 0.08046 0.0
O1065 O 0.28995 0.37956 0.09102 0.0
In1066 In 0.31999 0.54961 0.85583 0.0
O1067 O 0.32324 0.5463 0.82343 0.0
O1068 O 0.32779 0.57395 0.83524 0.0
C1069 C 0.28373 0.53701 0.86152 0.0
C1070 C 0.32672 0.57714 0.88188 0.0
C1071 C 0.34481 0.51984 0.85828 0.0
O1072 O 0.29009 0.54101 0.84504 0.0
O1073 O 0.29535 0.54018 0.87499 0.0
O1074 O 0.32725 0.51842 0.86232 0.0
O1075 O 0.35013 0.53653 0.85384 0.0
C1076 C 0.32814 0.56347 0.82051 0.0
O1077 O 0.33514 0.56109 0.88231 0.0
O1078 O 0.31462 0.57909 0.86852 0.0
In1079 In 0.19721 0.57779 0.59146 0.0
O1080 O 0.18018 0.59006 0.61635 0.0
O1081 O 0.16804 0.56685 0.60045 0.0
C1082 C 0.2234 0.60617 0.59627 0.0
C1083 C 0.18517 0.58422 0.55512 0.0
C1084 C 0.21319 0.54385 0.60082 0.0
O1085 O 0.2062 0.60958 0.59181 0.0
O1086 O 0.22697 0.58872 0.5992 0.0
O1087 O 0.21103 0.54896 0.58354 0.0
O1088 O 0.20685 0.55556 0.61302 0.0
C1089 C 0.16619 0.57872 0.61402 0.0
O1090 O 0.20227 0.57969 0.55901 0.0
O1091 O 0.17404 0.58422 0.56934 0.0
In1092 In 0.16568 0.53929 0.14682 0.0
O1093 O 0.14886 0.55205 0.12197 0.0
O1094 O 0.17238 0.568 0.13336 0.0
C1095 C 0.14013 0.51005 0.14504 0.0
C1096 C 0.16078 0.55443 0.18224 0.0
C1097 C 0.20099 0.52554 0.13862 0.0
O1098 O 0.13579 0.5263 0.15164 0.0
O1099 O 0.15697 0.50888 0.13861 0.0
O1100 O 0.1951 0.52741 0.15565 0.0
O1101 O 0.18943 0.53133 0.12601 0.0
C1102 C 0.1589 0.56714 0.12127 0.0
O1103 O 0.16575 0.53723 0.17957 0.0
O1104 O 0.15938 0.56422 0.16712 0.0
In1105 In 0.20067 0.42135 0.90155 0.0
O1106 O 0.18674 0.41038 0.87401 0.0
O1107 O 0.17004 0.42742 0.89314 0.0
C1108 C 0.23577 0.40537 0.90078 0.0
C1109 C 0.18618 0.40253 0.93204 0.0
C1110 C 0.21173 0.45783 0.89601 0.0
O1111 O 0.22223 0.39898 0.8905 0.0
O1112 O 0.23161 0.41976 0.91093 0.0
O1113 O 0.20765 0.4514 0.91252 0.0
O1114 O 0.20964 0.44599 0.88245 0.0
C1115 C 0.17063 0.41791 0.87777 0.0
O1116 O 0.18467 0.42056 0.93056 0.0
O1117 O 0.19514 0.39451 0.91857 0.0
In1118 In 0.3318 0.45929 0.6367 0.0
O1119 O 0.3258 0.44842 0.66745 0.0
O1120 O 0.35425 0.44723 0.65636 0.0
C1121 C 0.29879 0.47326 0.62267 0.0
C1122 C 0.33501 0.42831 0.61431 0.0
C1123 C 0.35247 0.4917 0.63951 0.0
O1124 O 0.30034 0.46797 0.64 0.0
O1125 O 0.31377 0.47132 0.61267 0.0
O1126 O 0.35837 0.47747 0.62993 0.0
O1127 O 0.33613 0.48965 0.64703 0.0
C1128 C 0.34323 0.44405 0.67033 0.0
O1129 O 0.34463 0.4434 0.61128 0.0
O1130 O 0.32372 0.42906 0.62847 0.0
In1131 In 0.29331 0.58224 0.3924 0.0
O1132 O 0.30786 0.5911 0.36459 0.0
O1133 O 0.32277 0.57206 0.38331 0.0
C1134 C 0.26304 0.60635 0.39319 0.0
C1135 C 0.31047 0.59344 0.42524 0.0
C1136 C 0.27639 0.54898 0.38299 0.0
O1137 O 0.27861 0.61083 0.38509 0.0
O1138 O 0.26271 0.58978 0.40042 0.0
O1139 O 0.28174 0.55258 0.39999 0.0
O1140 O 0.27981 0.56205 0.37094 0.0
C1141 C 0.32284 0.58137 0.36778 0.0
O1142 O 0.30462 0.57641 0.42299 0.0
O1143 O 0.30772 0.6043 0.41106 0.0
In1144 In 0.3512 0.17231 0.44722 0.0
O1145 O 0.37885 0.15849 0.43741 0.0
O1146 O 0.36776 0.18196 0.42103 0.0
C1147 C 0.3392 0.14827 0.47499 0.0
C1148 C 0.32366 0.16362 0.42154 0.0
C1149 C 0.36257 0.20373 0.46661 0.0
O1150 O 0.35483 0.1457 0.46617 0.0
O1151 O 0.33012 0.16314 0.47016 0.0
O1152 O 0.34692 0.20343 0.45737 0.0
O1153 O 0.3721 0.1884 0.46597 0.0
C1154 C 0.38068 0.16934 0.42296 0.0
O1155 O 0.32304 0.17906 0.43112 0.0
O1156 O 0.33811 0.15323 0.42476 0.0
In1157 In 0.84291 0.31947 0.55549 0.0
O1158 O 0.81349 0.31778 0.57078 0.0
O1159 O 0.82945 0.3439 0.57132 0.0
C1160 C 0.85447 0.28546 0.5419 0.0
C1161 C 0.86946 0.32202 0.58287 0.0
C1162 C 0.83622 0.33747 0.52208 0.0
O1163 O 0.83753 0.28784 0.54818 0.0
O1164 O 0.86517 0.30004 0.54275 0.0
O1165 O 0.84889 0.34338 0.53366 0.0
O1166 O 0.82729 0.32264 0.52735 0.0
C1167 C 0.81454 0.33505 0.57645 0.0
O1168 O 0.87049 0.3317 0.56749 0.0
O1169 O 0.8552 0.31084 0.58411 0.0
In1170 In 0.4306 0.10704 0.30062 0.0
O1171 O 0.41729 0.13492 0.31083 0.0
O1172 O 0.43696 0.12046 0.32938 0.0
C1173 C 0.41125 0.09988 0.26797 0.0
C1174 C 0.41808 0.07722 0.32171 0.0
C1175 C 0.46464 0.11733 0.28596 0.0
O1176 O 0.40516 0.11175 0.28024 0.0
O1177 O 0.42704 0.09208 0.27207 0.0
O1178 O 0.46154 0.10046 0.29194 0.0
O1179 O 0.45085 0.12887 0.28798 0.0
C1180 C 0.42567 0.13445 0.32694 0.0
O1181 O 0.43566 0.0789 0.31736 0.0
O1182 O 0.40741 0.09034 0.31536 0.0
In1183 In 0.64117 0.66324 0.04662 0.0
O1184 O 0.67006 0.66425 0.06269 0.0
O1185 O 0.65351 0.63849 0.06298 0.0
C1186 C 0.63381 0.69786 0.03125 0.0
C1187 C 0.61455 0.66217 0.07422 0.0
C1188 C 0.64763 0.64143 0.01544 0.0
O1189 O 0.65021 0.69379 0.03796 0.0
O1190 O 0.6216 0.68458 0.03229 0.0
O1191 O 0.63153 0.64144 0.02384 0.0
O1192 O 0.65984 0.65287 0.02229 0.0
C1193 C 0.66871 0.64691 0.06808 0.0
O1194 O 0.61307 0.65235 0.05899 0.0
O1195 O 0.62927 0.67272 0.07522 0.0
In1196 In 0.57121 0.39995 0.2961 0.0
O1197 O 0.56639 0.432 0.30313 0.0
O1198 O 0.59261 0.41883 0.31142 0.0
C1199 C 0.53669 0.38742 0.28438 0.0
C1200 C 0.57525 0.37627 0.32599 0.0
C1201 C 0.59083 0.39945 0.26271 0.0
O1202 O 0.53969 0.40493 0.2882 0.0
O1203 O 0.55083 0.37647 0.28713 0.0
O1204 O 0.59804 0.39314 0.27806 0.0
O1205 O 0.57404 0.40588 0.2643 0.0
C1206 C 0.58263 0.43387 0.31104 0.0
O1207 O 0.584 0.37371 0.31029 0.0
O1208 O 0.56427 0.39071 0.32647 0.0
In1209 In 0.15197 0.82411 0.95004 0.0
O1210 O 0.12502 0.83913 0.93973 0.0
O1211 O 0.13695 0.81671 0.92245 0.0
C1212 C 0.16184 0.84249 0.98252 0.0
C1213 C 0.18016 0.8364 0.9267 0.0
C1214 C 0.13931 0.79059 0.96412 0.0
O1215 O 0.1483 0.84837 0.97196 0.0
O1216 O 0.17003 0.82744 0.97675 0.0
O1217 O 0.15592 0.79216 0.95688 0.0
O1218 O 0.12942 0.80575 0.96408 0.0
C1219 C 0.1241 0.8294 0.92439 0.0
O1220 O 0.18029 0.81947 0.93334 0.0
O1221 O 0.16627 0.84662 0.9321 0.0
In1222 In 0.41483 0.89415 0.19864 0.0
O1223 O 0.42075 0.92322 0.18392 0.0
O1224 O 0.39226 0.91218 0.18434 0.0
C1225 C 0.44812 0.88238 0.21423 0.0
C1226 C 0.41023 0.86812 0.17081 0.0
C1227 C 0.39481 0.90117 0.23093 0.0
O1228 O 0.44604 0.89916 0.20762 0.0
O1229 O 0.43369 0.87161 0.21243 0.0
O1230 O 0.38928 0.8888 0.21886 0.0
O1231 O 0.41039 0.90936 0.2268 0.0
C1232 C 0.40328 0.92565 0.17945 0.0
O1233 O 0.40123 0.86719 0.18656 0.0
O1234 O 0.42178 0.88203 0.16933 0.0
In1235 In 0.07761 0.10474 0.7086 0.0
O1236 O 0.09291 0.13053 0.69567 0.0
O1237 O 0.07583 0.11294 0.67735 0.0
C1238 C 0.0925 0.10274 0.74414 0.0
C1239 C 0.09151 0.07122 0.6954 0.0
C1240 C 0.04216 0.11719 0.71702 0.0
O1241 O 0.10088 0.1117 0.73078 0.0
O1242 O 0.07657 0.09541 0.73965 0.0
O1243 O 0.04558 0.09972 0.71337 0.0
O1244 O 0.05651 0.12819 0.71594 0.0
C1245 C 0.08681 0.12726 0.67888 0.0
O1246 O 0.07373 0.07497 0.69458 0.0
O1247 O 0.10166 0.08418 0.70283 0.0
H1248 H 0.09251 0.17935 0.37532 0.0
H1249 H 0.08117 0.21607 0.32681 0.0
H1250 H 0.10034 0.24161 0.34154 0.0
H1251 H 0.11597 0.25487 0.37043 0.0
H1252 H 0.12471 0.21851 0.41973 0.0
H1253 H 0.11131 0.19123 0.4023 0.0
C1254 C 0.09444 0.19285 0.36782 0.0
C1255 C 0.08518 0.196 0.35019 0.0
C1256 C 0.10504 0.2075 0.37655 0.0
C1257 C 0.08805 0.21341 0.34049 0.0
C1258 C 0.09896 0.22801 0.34893 0.0
C1259 C 0.11552 0.2408 0.37708 0.0
C1260 C 0.12126 0.2386 0.3963 0.0
C1261 C 0.10695 0.22542 0.36726 0.0
C1262 C 0.12035 0.22045 0.40493 0.0
C1263 C 0.11256 0.20493 0.39503 0.0
H1264 H 0.01798 0.83757 0.65796 0.0
H1265 H 0.99021 0.85959 0.60729 0.0
H1266 H 0.0182 0.85059 0.58784 0.0
H1267 H 0.05006 0.83457 0.5852 0.0
H1268 H 0.07734 0.81378 0.63684 0.0
H1269 H 0.05012 0.82418 0.65586 0.0
C1270 C 0.01811 0.84054 0.64267 0.0
C1271 C 0.00207 0.84906 0.63402 0.0
C1272 C 0.03415 0.83542 0.63172 0.0
C1273 C 0.00248 0.85306 0.61426 0.0
C1274 C 0.01842 0.84782 0.60314 0.0
C1275 C 0.05002 0.83244 0.60061 0.0
C1276 C 0.06566 0.82327 0.60953 0.0
C1277 C 0.03425 0.83868 0.61167 0.0
C1278 C 0.06551 0.82076 0.62956 0.0
C1279 C 0.04992 0.82668 0.64051 0.0
H1280 H 0.39637 0.74997 0.8754 0.0
H1281 H 0.45108 0.73926 0.90248 0.0
H1282 H 0.46579 0.76462 0.88357 0.0
H1283 H 0.46304 0.79064 0.86045 0.0
H1284 H 0.40836 0.80304 0.83421 0.0
H1285 H 0.39379 0.77606 0.85142 0.0
C1286 C 0.4115 0.75322 0.87711 0.0
C1287 C 0.42257 0.74283 0.89041 0.0
C1288 C 0.41991 0.76803 0.86627 0.0
C1289 C 0.44218 0.74714 0.89247 0.0
C1290 C 0.45065 0.7616 0.8816 0.0
C1291 C 0.44799 0.78729 0.85827 0.0
C1292 C 0.4368 0.79874 0.84604 0.0
C1293 C 0.43964 0.7722 0.86858 0.0
C1294 C 0.41728 0.79435 0.84352 0.0
C1295 C 0.40893 0.77901 0.85343 0.0
H1296 H 0.48158 0.13474 0.14151 0.0
H1297 H 0.52162 0.15822 0.10061 0.0
H1298 H 0.49498 0.16919 0.08051 0.0
H1299 H 0.46022 0.1757 0.07684 0.0
H1300 H 0.42074 0.15286 0.11874 0.0
H1301 H 0.44716 0.13793 0.13601 0.0
C1302 C 0.48448 0.14195 0.12803 0.0
C1303 C 0.50349 0.14586 0.12266 0.0
C1304 C 0.46915 0.14852 0.11679 0.0
C1305 C 0.50707 0.15509 0.10508 0.0
C1306 C 0.49184 0.16147 0.09364 0.0
C1307 C 0.45742 0.16714 0.08953 0.0
C1308 C 0.43861 0.16561 0.09665 0.0
C1309 C 0.4728 0.15882 0.09967 0.0
C1310 C 0.43514 0.15446 0.1131 0.0
C1311 C 0.45024 0.14591 0.12302 0.0
H1312 H 0.07967 0.79498 0.15273 0.0
H1313 H 0.05261 0.81828 0.10209 0.0
H1314 H 0.0641 0.79134 0.08314 0.0
H1315 H 0.08067 0.76067 0.08102 0.0
H1316 H 0.10861 0.73706 0.13091 0.0
H1317 H 0.09818 0.76469 0.15004 0.0
C1318 C 0.07636 0.79412 0.13755 0.0
C1319 C 0.0652 0.80852 0.12887 0.0
C1320 C 0.0832 0.77859 0.12659 0.0
C1321 C 0.06115 0.80737 0.10914 0.0
C1322 C 0.0677 0.79196 0.09826 0.0
C1323 C 0.08459 0.76163 0.09605 0.0
C1324 C 0.09526 0.74685 0.10459 0.0
C1325 C 0.07858 0.77745 0.10686 0.0
C1326 C 0.10041 0.74833 0.12403 0.0
C1327 C 0.09437 0.76406 0.13497 0.0
H1328 H 0.43747 0.83057 0.40936 0.0
H1329 H 0.42901 0.78545 0.36784 0.0
H1330 H 0.45692 0.79626 0.34984 0.0
H1331 H 0.4829 0.81893 0.34514 0.0
H1332 H 0.49152 0.86513 0.38537 0.0
H1333 H 0.46427 0.85368 0.40454 0.0
C1334 C 0.44197 0.82303 0.39651 0.0
C1335 C 0.43131 0.80721 0.38994 0.0
C1336 C 0.45784 0.82965 0.38588 0.0
C1337 C 0.43702 0.79768 0.37313 0.0
C1338 C 0.45293 0.80387 0.3628 0.0
C1339 C 0.47885 0.82655 0.3581 0.0
C1340 C 0.48916 0.84287 0.36381 0.0
C1341 C 0.46327 0.81995 0.3689 0.0
C1342 C 0.48371 0.85257 0.38063 0.0
C1343 C 0.46819 0.84598 0.39162 0.0
H1344 H 0.42719 0.25709 0.6222 0.0
H1345 H 0.37112 0.23195 0.61526 0.0
H1346 H 0.38148 0.20354 0.63336 0.0
H1347 H 0.40748 0.18495 0.64861 0.0
H1348 H 0.46316 0.21092 0.65643 0.0
H1349 H 0.45184 0.24023 0.64087 0.0
C1350 C 0.41723 0.24541 0.62479 0.0
C1351 C 0.39857 0.24631 0.61721 0.0
C1352 C 0.4232 0.22941 0.63539 0.0
C1353 C 0.38558 0.23141 0.62094 0.0
C1354 C 0.39153 0.21521 0.63122 0.0
C1355 C 0.41703 0.19716 0.64719 0.0
C1356 C 0.43619 0.19574 0.65345 0.0
C1357 C 0.41043 0.21392 0.63817 0.0
C1358 C 0.44836 0.21168 0.65171 0.0
C1359 C 0.44194 0.22838 0.64269 0.0
H1360 H 0.06035 0.15702 0.87682 0.0
H1361 H 0.02763 0.1645 0.92883 0.0
H1362 H 0.9989 0.15218 0.91264 0.0
H1363 H 0.98236 0.1434 0.88241 0.0
H1364 H 0.01523 0.1388 0.83017 0.0
H1365 H 0.04472 0.14564 0.84777 0.0
C1366 C 0.04701 0.15571 0.88474 0.0
C1367 C 0.04604 0.16187 0.90392 0.0
C1368 C 0.03056 0.14921 0.87522 0.0
C1369 C 0.0287 0.15991 0.91402 0.0
C1370 C 0.01227 0.15295 0.90474 0.0
C1371 C 0.99607 0.14343 0.87504 0.0
C1372 C 0.99671 0.14065 0.85506 0.0
C1373 C 0.01291 0.14814 0.88516 0.0
C1374 C 0.01446 0.14097 0.84555 0.0
C1375 C 0.03129 0.14495 0.85558 0.0
H1376 H 0.37809 0.06671 0.19115 0.0
H1377 H 0.32446 0.08247 0.21777 0.0
H1378 H 0.34194 0.09598 0.24518 0.0
H1379 H 0.37268 0.10235 0.26193 0.0
H1380 H 0.42581 0.08488 0.23533 0.0
H1381 H 0.4083 0.07319 0.20739 0.0
C1382 C 0.37018 0.07313 0.20292 0.0
C1383 C 0.35002 0.07357 0.20248 0.0
C1384 C 0.38026 0.08064 0.21857 0.0
C1385 C 0.34 0.0819 0.21784 0.0
C1386 C 0.34998 0.08966 0.23347 0.0
C1387 C 0.38037 0.09619 0.24988 0.0
C1388 C 0.40048 0.09451 0.2506 0.0
C1389 C 0.37014 0.08903 0.23402 0.0
C1390 C 0.41032 0.08628 0.23507 0.0
C1391 C 0.40033 0.07957 0.21912 0.0
H1392 H 0.15107 0.11831 0.49958 0.0
H1393 H 0.20862 0.13866 0.51006 0.0
H1394 H 0.22002 0.12213 0.48145 0.0
H1395 H 0.21334 0.10402 0.45226 0.0
H1396 H 0.1556 0.08536 0.44009 0.0
H1397 H 0.14461 0.09878 0.47066 0.0
C1398 C 0.16611 0.11895 0.49564 0.0
C1399 C 0.17896 0.12978 0.50682 0.0
C1400 C 0.17254 0.1097 0.47889 0.0
C1401 C 0.19841 0.13056 0.50158 0.0
C1402 C 0.20497 0.12107 0.48525 0.0
C1403 C 0.19841 0.10258 0.45644 0.0
C1404 C 0.18531 0.0937 0.44398 0.0
C1405 C 0.19212 0.11088 0.47364 0.0
C1406 C 0.16597 0.09212 0.44949 0.0
C1407 C 0.15967 0.09988 0.46691 0.0
H1408 H 0.12816 0.9107 0.68199 0.0
H1409 H 0.18009 0.91556 0.71534 0.0
H1410 H 0.16469 0.89849 0.74199 0.0
H1411 H 0.13506 0.88608 0.75707 0.0
H1412 H 0.08282 0.88365 0.72394 0.0
H1413 H 0.09984 0.89552 0.69572 0.0
C1414 C 0.13621 0.90785 0.69501 0.0
C1415 C 0.15512 0.91462 0.69685 0.0
C1416 C 0.12718 0.89844 0.71027 0.0
C1417 C 0.16546 0.91059 0.71367 0.0
C1418 C 0.15664 0.90088 0.72889 0.0
C1419 C 0.12759 0.88763 0.74349 0.0
C1420 C 0.10775 0.88403 0.74248 0.0
C1421 C 0.13732 0.89524 0.72754 0.0
C1422 C 0.0981 0.88636 0.72497 0.0
C1423 C 0.10779 0.89325 0.7089 0.0
H1424 H 0.29092 0.88892 0.95159 0.0
H1425 H 0.34684 0.91364 0.942 0.0
H1426 H 0.35961 0.89587 0.96956 0.0
H1427 H 0.35523 0.8713 0.99491 0.0
H1428 H 0.29943 0.8454 0.00236 0.0
H1429 H 0.28634 0.86549 0.97701 0.0
C1430 C 0.30583 0.89072 0.95572 0.0
C1431 C 0.3179 0.90263 0.94485 0.0
C1432 C 0.31318 0.87995 0.97101 0.0
C1433 C 0.33724 0.90461 0.95024 0.0
C1434 C 0.34457 0.89434 0.96589 0.0
C1435 C 0.34022 0.87012 0.99097 0.0
C1436 C 0.32837 0.85677 0.00039 0.0
C1437 C 0.33276 0.88161 0.97611 0.0
C1438 C 0.30892 0.85541 0.9952 0.0
C1439 C 0.30137 0.86696 0.98076 0.0
H1440 H 0.3368 0.92299 0.29741 0.0
H1441 H 0.3869 0.95414 0.31636 0.0
H1442 H 0.40505 0.94233 0.28904 0.0
H1443 H 0.40691 0.9235 0.25986 0.0
H1444 H 0.35772 0.89145 0.24032 0.0
H1445 H 0.33906 0.90304 0.26787 0.0
C1446 C 0.35165 0.92722 0.29543 0.0
C1447 C 0.36047 0.93947 0.30883 0.0
C1448 C 0.3622 0.92012 0.27971 0.0
C1449 C 0.37978 0.9447 0.30626 0.0
C1450 C 0.3902 0.93796 0.29065 0.0
C1451 C 0.39211 0.91896 0.26163 0.0
C1452 C 0.38368 0.9067 0.24809 0.0
C1453 C 0.38159 0.92566 0.27734 0.0
C1454 C 0.36454 0.90086 0.25064 0.0
C1455 C 0.35386 0.90756 0.26632 0.0
H1456 H 0.29608 0.10114 0.53863 0.0
H1457 H 0.34996 0.07067 0.53973 0.0
H1458 H 0.36163 0.08999 0.51279 0.0
H1459 H 0.35737 0.11744 0.49078 0.0
H1460 H 0.30399 0.14887 0.49154 0.0
H1461 H 0.29132 0.12736 0.516 0.0
C1462 C 0.31024 0.09845 0.53275 0.0
C1463 C 0.32213 0.08449 0.5411 0.0
C1464 C 0.31706 0.11003 0.51781 0.0
C1465 C 0.34052 0.08132 0.53346 0.0
C1466 C 0.34724 0.09245 0.51817 0.0
C1467 C 0.34295 0.11949 0.49627 0.0
C1468 C 0.3317 0.13481 0.4895 0.0
C1469 C 0.33581 0.10718 0.51055 0.0
C1470 C 0.31301 0.1373 0.49666 0.0
C1471 C 0.30571 0.12496 0.51059 0.0
H1472 H 0.11553 0.07326 0.8257 0.0
H1473 H 0.17209 0.07526 0.80059 0.0
H1474 H 0.15883 0.09048 0.77175 0.0
H1475 H 0.13054 0.10042 0.75262 0.0
H1476 H 0.07406 0.09607 0.77759 0.0
H1477 H 0.08793 0.08482 0.80771 0.0
C1478 C 0.12504 0.07717 0.81401 0.0
C1479 C 0.14474 0.07299 0.81519 0.0
C1480 C 0.11729 0.0855 0.79746 0.0
C1481 C 0.15685 0.07825 0.79996 0.0
C1482 C 0.14927 0.08693 0.78348 0.0
C1483 C 0.12137 0.09738 0.76483 0.0
C1484 C 0.10133 0.09906 0.76298 0.0
C1485 C 0.12943 0.09026 0.78192 0.0
C1486 C 0.08952 0.09483 0.77873 0.0
C1487 C 0.09743 0.08834 0.7959 0.0
H1488 H 0.19717 0.87234 0.05986 0.0
H1489 H 0.16917 0.92467 0.04235 0.0
H1490 H 0.15697 0.90861 0.01346 0.0
H1491 H 0.15434 0.8794 0.9933 0.0
H1492 H 0.18359 0.82778 0.01106 0.0
H1493 H 0.19512 0.84385 0.03987 0.0
C1494 C 0.18839 0.88028 0.04973 0.0
C1495 C 0.18401 0.89962 0.05322 0.0
C1496 C 0.18159 0.87103 0.03327 0.0
C1497 C 0.17276 0.90975 0.03992 0.0
C1498 C 0.16574 0.90056 0.02346 0.0
C1499 C 0.16314 0.8717 0.00357 0.0
C1500 C 0.16805 0.85242 0.00013 0.0
C1501 C 0.17003 0.88116 0.02002 0.0
C1502 C 0.17964 0.84263 0.01339 0.0
C1503 C 0.18625 0.85179 0.02986 0.0
H1504 H 0.21483 0.40074 0.0982 0.0
H1505 H 0.24229 0.34735 0.1129 0.0
H1506 H 0.21387 0.32957 0.10211 0.0
H1507 H 0.18217 0.32936 0.0857 0.0
H1508 H 0.15532 0.38348 0.07185 0.0
H1509 H 0.18248 0.40075 0.08509 0.0
C1510 C 0.21448 0.38522 0.09929 0.0
C1511 C 0.23059 0.37533 0.10615 0.0
C1512 C 0.19826 0.3752 0.093 0.0
C1513 C 0.22995 0.35525 0.1077 0.0
C1514 C 0.21378 0.34509 0.10139 0.0
C1515 C 0.18225 0.34492 0.08576 0.0
C1516 C 0.16684 0.35508 0.07758 0.0
C1517 C 0.19801 0.35491 0.09356 0.0
C1518 C 0.16703 0.37525 0.07793 0.0
C1519 C 0.18257 0.3852 0.0855 0.0
H1520 H 0.68389 0.12301 0.92214 0.0
H1521 H 0.71538 0.17624 0.9239 0.0
H1522 H 0.7442 0.15969 0.9122 0.0
H1523 H 0.76107 0.12924 0.90449 0.0
H1524 H 0.72922 0.07618 0.90528 0.0
H1525 H 0.69981 0.09354 0.9128 0.0
C1526 C 0.69699 0.13109 0.9198 0.0
C1527 C 0.69758 0.15077 0.92403 0.0
C1528 C 0.71345 0.12145 0.91359 0.0
C1529 C 0.71462 0.16104 0.9208 0.0
C1530 C 0.73109 0.15157 0.91417 0.0
C1531 C 0.74759 0.12162 0.90598 0.0
C1532 C 0.74723 0.10151 0.90441 0.0
C1533 C 0.73078 0.13167 0.91093 0.0
C1534 C 0.7298 0.09166 0.90655 0.0
C1535 C 0.713 0.10156 0.91087 0.0
H1536 H 0.10708 0.42846 0.16186 0.0
H1537 H 0.06566 0.46167 0.1936 0.0
H1538 H 0.07928 0.49137 0.18056 0.0
H1539 H 0.10569 0.50773 0.16344 0.0
H1540 H 0.14721 0.47395 0.13225 0.0
H1541 H 0.13062 0.44461 0.14152 0.0
C1542 C 0.10085 0.4422 0.16569 0.0
C1543 C 0.08562 0.44297 0.17887 0.0
C1544 C 0.10885 0.45909 0.15831 0.0
C1545 C 0.07746 0.46078 0.18352 0.0
C1546 C 0.0853 0.47774 0.17614 0.0
C1547 C 0.11084 0.49397 0.15834 0.0
C1548 C 0.12779 0.49299 0.1474 0.0
C1549 C 0.1014 0.47707 0.164 0.0
C1550 C 0.13428 0.47508 0.14082 0.0
C1551 C 0.12486 0.45828 0.14617 0.0
H1552 H 0.76411 0.89053 0.37197 0.0
H1553 H 0.72205 0.8506 0.39353 0.0
H1554 H 0.7476 0.8283 0.40263 0.0
H1555 H 0.78209 0.82251 0.40877 0.0
H1556 H 0.82373 0.86335 0.388 0.0
H1557 H 0.79822 0.88274 0.37404 0.0
C1558 C 0.76052 0.87678 0.37832 0.0
C1559 C 0.74129 0.87233 0.38233 0.0
C1560 C 0.77525 0.86424 0.38381 0.0
C1561 C 0.7368 0.85439 0.39037 0.0
C1562 C 0.75141 0.84168 0.39568 0.0
C1563 C 0.78556 0.83539 0.40076 0.0
C1564 C 0.8047 0.84164 0.39964 0.0
C1565 C 0.77073 0.84677 0.39311 0.0
C1566 C 0.80905 0.85837 0.38924 0.0
C1567 C 0.79448 0.8695 0.3813 0.0
H1568 H 0.90093 0.05738 0.15786 0.0
H1569 H 0.90997 0.04155 0.21706 0.0
H1570 H 0.89247 0.0117 0.212 0.0
H1571 H 0.87186 0.99174 0.19172 0.0
H1572 H 0.86325 0.00674 0.13234 0.0
H1573 H 0.88336 0.03531 0.13645 0.0
C1574 C 0.89937 0.04722 0.16954 0.0
C1575 C 0.90656 0.05176 0.18785 0.0
C1576 C 0.88915 0.0301 0.16657 0.0
C1577 C 0.90454 0.03842 0.20284 0.0
C1578 C 0.89442 0.0214 0.2 0.0
C1579 C 0.87451 0.00121 0.17966 0.0
C1580 C 0.86589 0.99742 0.16185 0.0
C1581 C 0.8862 0.01739 0.1821 0.0
C1582 C 0.86969 0.00951 0.14621 0.0
C1583 C 0.88114 0.02583 0.14857 0.0
H1584 H 0.26054 0.60144 0.60599 0.0
H1585 H 0.221 0.64313 0.58304 0.0
H1586 H 0.24786 0.66421 0.57466 0.0
H1587 H 0.28289 0.6686 0.56992 0.0
H1588 H 0.32177 0.62553 0.59156 0.0
H1589 H 0.29494 0.60731 0.60449 0.0
C1590 C 0.25775 0.61531 0.59949 0.0
C1591 C 0.23886 0.62063 0.59495 0.0
C1592 C 0.27321 0.62703 0.59425 0.0
C1593 C 0.23546 0.63869 0.58665 0.0
C1594 C 0.25082 0.65069 0.58173 0.0
C1595 C 0.28543 0.65543 0.5778 0.0
C1596 C 0.30423 0.64828 0.57958 0.0
C1597 C 0.26981 0.6447 0.58485 0.0
C1598 C 0.30739 0.63119 0.58979 0.0
C1599 C 0.29206 0.62074 0.5972 0.0
H1600 H 0.07982 0.54888 0.3391 0.0
H1601 H 0.13146 0.58108 0.32741 0.0
H1602 H 0.15075 0.55642 0.34276 0.0
H1603 H 0.1534 0.52419 0.35615 0.0
H1604 H 0.10231 0.49174 0.36874 0.0
H1605 H 0.08231 0.51812 0.3568 0.0
C1606 C 0.09526 0.55056 0.34016 0.0
C1607 C 0.10421 0.56661 0.33185 0.0
C1608 C 0.10636 0.53629 0.34914 0.0
C1609 C 0.12421 0.56877 0.33354 0.0
C1610 C 0.13529 0.55467 0.3423 0.0
C1611 C 0.13786 0.52309 0.35663 0.0
C1612 C 0.12928 0.50611 0.3631 0.0
C1613 C 0.12658 0.53816 0.34967 0.0
C1614 C 0.10918 0.5048 0.36387 0.0
C1615 C 0.09778 0.51978 0.35687 0.0
H1616 H 0.3812 0.51851 0.84399 0.0
H1617 H 0.336 0.48291 0.86694 0.0
H1618 H 0.35347 0.45418 0.85736 0.0
H1619 H 0.37942 0.43938 0.83904 0.0
H1620 H 0.42466 0.47443 0.81556 0.0
H1621 H 0.40945 0.50322 0.82893 0.0
C1622 C 0.37539 0.50445 0.84724 0.0
C1623 C 0.35723 0.50283 0.85595 0.0
C1624 C 0.38538 0.48794 0.84139 0.0
C1625 C 0.34988 0.48454 0.86013 0.0
C1626 C 0.35982 0.4681 0.85459 0.0
C1627 C 0.38607 0.45331 0.83704 0.0
C1628 C 0.40292 0.4549 0.8261 0.0
C1629 C 0.37722 0.46967 0.84463 0.0
C1630 C 0.41161 0.47293 0.82388 0.0
C1631 C 0.40288 0.48936 0.83145 0.0
H1632 H 0.89518 0.74561 0.6267 0.0
H1633 H 0.90394 0.77168 0.57128 0.0
H1634 H 0.91605 0.80078 0.58654 0.0
H1635 H 0.92652 0.81763 0.61518 0.0
H1636 H 0.92025 0.79137 0.67087 0.0
H1637 H 0.90487 0.76338 0.65601 0.0
C1638 C 0.89936 0.75787 0.61808 0.0
C1639 C 0.89856 0.75671 0.59795 0.0
C1640 C 0.90705 0.77429 0.62696 0.0
C1641 C 0.90439 0.7724 0.58681 0.0
C1642 C 0.91139 0.78896 0.59551 0.0
C1643 C 0.92171 0.80585 0.62414 0.0
C1644 C 0.92462 0.80649 0.64408 0.0
C1645 C 0.91321 0.78986 0.61551 0.0
C1646 C 0.91828 0.79112 0.65546 0.0
C1647 C 0.90945 0.77517 0.64697 0.0
H1648 H 0.99334 0.14328 0.37983 0.0
H1649 H 0.00635 0.20213 0.36566 0.0
H1650 H 0.98119 0.2132 0.38721 0.0
H1651 H 0.9539 0.2063 0.40798 0.0
H1652 H 0.93892 0.14766 0.42071 0.0
H1653 H 0.96664 0.13639 0.40226 0.0
C1654 C 0.99072 0.15851 0.3816 0.0
C1655 C 0.00157 0.17184 0.37103 0.0
C1656 C 0.97593 0.16483 0.39385 0.0
C1657 C 0.99806 0.19155 0.37346 0.0
C1658 C 0.98371 0.19792 0.38585 0.0
C1659 C 0.95692 0.19106 0.40708 0.0
C1660 C 0.94442 0.17784 0.41573 0.0
C1661 C 0.97237 0.18471 0.39586 0.0
C1662 C 0.9484 0.15813 0.41422 0.0
C1663 C 0.96416 0.15168 0.40355 0.0
H1664 H 0.5946 0.19101 0.14814 0.0
H1665 H 0.53717 0.21156 0.15899 0.0
H1666 H 0.54489 0.24193 0.14337 0.0
H1667 H 0.56673 0.26107 0.12354 0.0
H1668 H 0.62419 0.24084 0.11262 0.0
H1669 H 0.61773 0.21186 0.13144 0.0
C1670 C 0.58389 0.20228 0.1474 0.0
C1671 C 0.56527 0.19898 0.15451 0.0
C1672 C 0.58835 0.21961 0.13816 0.0
C1673 C 0.55158 0.21373 0.15358 0.0
C1674 C 0.55594 0.23105 0.14453 0.0
C1675 C 0.57788 0.25038 0.12543 0.0
C1676 C 0.59579 0.25286 0.11649 0.0
C1677 C 0.57407 0.23388 0.13625 0.0
C1678 C 0.61026 0.23913 0.1193 0.0
C1679 C 0.60655 0.22257 0.13001 0.0
H1680 H 0.57182 0.84388 0.88676 0.0
H1681 H 0.53964 0.81521 0.93114 0.0
H1682 H 0.50955 0.82667 0.91694 0.0
H1683 H 0.49255 0.84123 0.88944 0.0
H1684 H 0.52523 0.86917 0.84486 0.0
H1685 H 0.55498 0.86188 0.86178 0.0
C1686 C 0.55822 0.84039 0.8935 0.0
C1687 C 0.55788 0.8285 0.90978 0.0
C1688 C 0.54109 0.84681 0.88514 0.0
C1689 C 0.54023 0.8243 0.91855 0.0
C1690 C 0.52304 0.83076 0.91037 0.0
C1691 C 0.50616 0.84608 0.88366 0.0
C1692 C 0.5067 0.85552 0.8658 0.0
C1693 C 0.52329 0.84151 0.89331 0.0
C1694 C 0.52442 0.86178 0.85851 0.0
C1695 C 0.54146 0.85753 0.86813 0.0
H1696 H 0.94129 0.1892 0.87487 0.0
H1697 H 0.91856 0.2106 0.82144 0.0
H1698 H 0.9096 0.24081 0.83727 0.0
H1699 H 0.90838 0.26103 0.86666 0.0
H1700 H 0.93254 0.23904 0.91931 0.0
H1701 H 0.94069 0.20907 0.90341 0.0
C1702 C 0.93434 0.20044 0.86663 0.0
C1703 C 0.93049 0.19767 0.84705 0.0
C1704 C 0.92945 0.21763 0.87573 0.0
C1705 C 0.92167 0.21244 0.83656 0.0
C1706 C 0.91652 0.22966 0.84561 0.0
C1707 C 0.91535 0.24961 0.8746 0.0
C1708 C 0.91981 0.2522 0.89413 0.0
C1709 C 0.92032 0.2324 0.86525 0.0
C1710 C 0.929 0.2374 0.90426 0.0
C1711 C 0.93366 0.22025 0.89519 0.0
H1712 H 0.52636 0.13789 0.64459 0.0
H1713 H 0.4867 0.15473 0.60019 0.0
H1714 H 0.51351 0.16557 0.58014 0.0
H1715 H 0.5481 0.17367 0.57703 0.0
H1716 H 0.58695 0.15728 0.62244 0.0
H1717 H 0.56065 0.14279 0.64017 0.0
C1718 C 0.52358 0.14365 0.63039 0.0
C1719 C 0.5046 0.14569 0.62396 0.0
C1720 C 0.53895 0.15013 0.61918 0.0
C1721 C 0.50122 0.15303 0.60548 0.0
C1722 C 0.51654 0.15934 0.59406 0.0
C1723 C 0.5508 0.16661 0.59063 0.0
C1724 C 0.56941 0.16676 0.5985 0.0
C1725 C 0.53545 0.15848 0.60101 0.0
C1726 C 0.57273 0.15756 0.61615 0.0
C1727 C 0.55769 0.14926 0.62634 0.0
H1728 H 0.57519 0.797 0.33141 0.0
H1729 H 0.57279 0.83018 0.3837 0.0
H1730 H 0.58993 0.80516 0.4008 0.0
H1731 H 0.60264 0.77269 0.40195 0.0
H1732 H 0.60504 0.73859 0.35043 0.0
H1733 H 0.59136 0.76522 0.33194 0.0
C1734 C 0.57862 0.79879 0.34648 0.0
C1735 C 0.57244 0.81531 0.3563 0.0
C1736 C 0.58852 0.78419 0.3564 0.0
C1737 C 0.57715 0.81752 0.3758 0.0
C1738 C 0.587 0.80322 0.38565 0.0
C1739 C 0.60051 0.7712 0.3866 0.0
C1740 C 0.60468 0.7537 0.37759 0.0
C1741 C 0.59233 0.78634 0.37622 0.0
C1742 C 0.60199 0.75199 0.35767 0.0
C1743 C 0.59399 0.76714 0.34714 0.0
H1744 H 0.93757 0.83389 0.08704 0.0
H1745 H 0.91657 0.80795 0.13926 0.0
H1746 H 0.94437 0.81965 0.15669 0.0
H1747 H 0.97543 0.83556 0.157 0.0
H1748 H 0.99694 0.86245 0.10564 0.0
H1749 H 0.96809 0.85242 0.08809 0.0
C1750 C 0.93911 0.83091 0.10224 0.0
C1751 C 0.92511 0.81991 0.11177 0.0
C1752 C 0.95517 0.8379 0.11237 0.0
C1753 C 0.92714 0.81632 0.13153 0.0
C1754 C 0.94305 0.82301 0.14156 0.0
C1755 C 0.97371 0.83942 0.14201 0.0
C1756 C 0.98828 0.84959 0.13257 0.0
C1757 C 0.95724 0.83358 0.1321 0.0
C1758 C 0.98583 0.85466 0.11321 0.0
C1759 C 0.96941 0.8488 0.10316 0.0
H1760 H 0.67259 0.91483 0.78427 0.0
H1761 H 0.62832 0.89748 0.82393 0.0
H1762 H 0.611 0.8815 0.7981 0.0
H1763 H 0.60589 0.87703 0.76372 0.0
H1764 H 0.64903 0.89585 0.72352 0.0
H1765 H 0.6695 0.90627 0.75004 0.0
C1766 C 0.6594 0.90714 0.78729 0.0
C1767 C 0.65158 0.90757 0.80587 0.0
C1768 C 0.64921 0.89841 0.77223 0.0
C1769 C 0.63449 0.89756 0.80965 0.0
C1770 C 0.62455 0.88844 0.7949 0.0
C1771 C 0.61996 0.883 0.76077 0.0
C1772 C 0.62581 0.88594 0.74172 0.0
C1773 C 0.63137 0.88947 0.77602 0.0
C1774 C 0.64414 0.89355 0.7381 0.0
C1775 C 0.65581 0.89963 0.75325 0.0
H1776 H 0.85516 0.87062 0.48555 0.0
H1777 H 0.79868 0.84614 0.47848 0.0
H1778 H 0.78599 0.86747 0.50302 0.0
H1779 H 0.79111 0.89159 0.52781 0.0
H1780 H 0.84767 0.91507 0.53673 0.0
H1781 H 0.86005 0.89597 0.50995 0.0
C1782 C 0.84008 0.87004 0.48937 0.0
C1783 C 0.82794 0.85671 0.48032 0.0
C1784 C 0.83284 0.88226 0.50374 0.0
C1785 C 0.8084 0.85613 0.48536 0.0
C1786 C 0.80108 0.86839 0.49934 0.0
C1787 C 0.80608 0.89282 0.52367 0.0
C1788 C 0.81844 0.90477 0.53416 0.0
C1789 C 0.81319 0.88134 0.50877 0.0
C1790 C 0.83785 0.90602 0.52879 0.0
C1791 C 0.84496 0.895 0.51357 0.0
H1792 H 0.82775 0.07291 0.28094 0.0
H1793 H 0.86694 0.09514 0.32341 0.0
H1794 H 0.88429 0.11274 0.29875 0.0
H1795 H 0.89122 0.11794 0.26493 0.0
H1796 H 0.85366 0.09442 0.22175 0.0
H1797 H 0.83257 0.08164 0.24676 0.0
C1798 C 0.83983 0.08195 0.28476 0.0
C1799 C 0.84626 0.08252 0.30386 0.0
C1800 C 0.85013 0.0917 0.27036 0.0
C1801 C 0.86192 0.09425 0.30871 0.0
C1802 C 0.87186 0.10434 0.29464 0.0
C1803 C 0.87819 0.1104 0.26097 0.0
C1804 C 0.87414 0.10692 0.24156 0.0
C1805 C 0.86654 0.10259 0.27536 0.0
C1806 C 0.85713 0.09724 0.23664 0.0
C1807 C 0.84514 0.08979 0.25094 0.0
H1808 H 0.68353 0.1616 0.01088 0.0
H1809 H 0.64213 0.11828 0.99549 0.0
H1810 H 0.65311 0.09814 0.02223 0.0
H1811 H 0.67486 0.093 0.05009 0.0
H1812 H 0.71536 0.13737 0.0651 0.0
H1813 H 0.70454 0.15682 0.03822 0.0
C1814 C 0.67683 0.14778 0.01338 0.0
C1815 C 0.66205 0.14143 0.00126 0.0
C1816 C 0.68321 0.13639 0.02862 0.0
C1817 C 0.65349 0.12351 0.00472 0.0
C1818 C 0.65983 0.11197 0.01993 0.0
C1819 C 0.68137 0.10684 0.04729 0.0
C1820 C 0.69592 0.11373 0.05947 0.0
C1821 C 0.67478 0.11822 0.03193 0.0
C1822 C 0.70412 0.13179 0.05592 0.0
C1823 C 0.69793 0.14295 0.04058 0.0
H1824 H 0.67166 0.07094 0.70811 0.0
H1825 H 0.62923 0.09287 0.66867 0.0
H1826 H 0.61249 0.10867 0.69495 0.0
H1827 H 0.60766 0.11299 0.72936 0.0
H1828 H 0.64902 0.09019 0.76937 0.0
H1829 H 0.66857 0.07834 0.74271 0.0
C1830 C 0.65896 0.07947 0.70528 0.0
C1831 C 0.65156 0.08053 0.68653 0.0
C1832 C 0.64912 0.08827 0.72058 0.0
C1833 C 0.63509 0.09164 0.68302 0.0
C1834 C 0.62549 0.10069 0.69804 0.0
C1835 C 0.62114 0.10575 0.73225 0.0
C1836 C 0.62679 0.10231 0.75129 0.0
C1837 C 0.63203 0.0986 0.71692 0.0
C1838 C 0.64433 0.09299 0.75481 0.0
C1839 C 0.65546 0.0861 0.73958 0.0
H1840 H 0.65628 0.89241 0.43109 0.0
H1841 H 0.70964 0.91492 0.45303 0.0
H1842 H 0.70336 0.89993 0.48413 0.0
H1843 H 0.68439 0.87764 0.50383 0.0
H1844 H 0.63163 0.85425 0.48136 0.0
H1845 H 0.63594 0.87249 0.45173 0.0
C1846 C 0.6664 0.8943 0.44277 0.0
C1847 C 0.68348 0.90463 0.43972 0.0
C1848 C 0.66289 0.88532 0.46044 0.0
C1849 C 0.69641 0.90701 0.455 0.0
C1850 C 0.69287 0.89836 0.47276 0.0
C1851 C 0.67371 0.87673 0.49254 0.0
C1852 C 0.65781 0.86447 0.49469 0.0
C1853 C 0.67643 0.88704 0.47545 0.0
C1854 C 0.64404 0.86351 0.48 0.0
C1855 C 0.64652 0.8739 0.46304 0.0
H1856 H 0.87742 0.91406 0.1866 0.0
H1857 H 0.8266 0.92031 0.2214 0.0
H1858 H 0.84361 0.90646 0.24891 0.0
H1859 H 0.8742 0.89635 0.26391 0.0
H1860 H 0.92531 0.89292 0.22917 0.0
H1861 H 0.90686 0.90158 0.20067 0.0
C1862 C 0.86994 0.91217 0.20012 0.0
C1863 C 0.85085 0.91839 0.20204 0.0
C1864 C 0.87992 0.90472 0.21589 0.0
C1865 C 0.84134 0.91572 0.21961 0.0
C1866 C 0.85108 0.90785 0.23534 0.0
C1867 C 0.88112 0.89701 0.24998 0.0
C1868 C 0.90102 0.89399 0.24853 0.0
C1869 C 0.87055 0.9028 0.23378 0.0
C1870 C 0.90998 0.8952 0.23054 0.0
C1871 C 0.89947 0.90024 0.21429 0.0
H1872 H 0.83442 0.11593 0.01461 0.0
H1873 H 0.87272 0.15023 0.98017 0.0
H1874 H 0.86413 0.13155 0.95169 0.0
H1875 H 0.84339 0.10759 0.93621 0.0
H1876 H 0.8058 0.07261 0.97074 0.0
H1877 H 0.81663 0.08929 -0.00028 0.0
C1878 C 0.84106 0.11913 0.00089 0.0
C1879 C 0.85398 0.13455 -0.00064 0.0
C1880 C 0.83611 0.1083 0.98467 0.0
C1881 C 0.86271 0.13844 0.98164 0.0
C1882 C 0.85773 0.12783 0.96537 0.0
C1883 C 0.83776 0.10347 0.95013 0.0
C1884 C 0.82366 0.0891 0.95139 0.0
C1885 C 0.8441 0.11306 0.96665 0.0
C1886 C 0.81666 0.08366 0.96947 0.0
C1887 C 0.82277 0.09326 0.98599 0.0
H1888 H 0.76853 0.60535 0.88242 0.0
H1889 H 0.72439 0.64293 0.90406 0.0
H1890 H 0.7488 0.66588 0.91456 0.0
H1891 H 0.78297 0.67297 0.92159 0.0
H1892 H 0.82657 0.63408 0.9011 0.0
H1893 H 0.8022 0.61412 0.88606 0.0
C1894 C 0.76422 0.61875 0.88907 0.0
C1895 C 0.74472 0.62234 0.89263 0.0
C1896 C 0.7783 0.63158 0.89552 0.0
C1897 C 0.73935 0.6398 0.90119 0.0
C1898 C 0.75331 0.65288 0.90732 0.0
C1899 C 0.78708 0.66035 0.91349 0.0
C1900 C 0.80648 0.65487 0.91267 0.0
C1901 C 0.77288 0.64859 0.90518 0.0
C1902 C 0.81168 0.63846 0.90216 0.0
C1903 C 0.79776 0.62701 0.89353 0.0
H1904 H 0.24087 0.86576 0.10463 0.0
H1905 H 0.2732 0.91851 0.10504 0.0
H1906 H 0.30223 0.90113 0.09598 0.0
H1907 H 0.31726 0.87199 0.08401 0.0
H1908 H 0.28485 0.81937 0.08093 0.0
H1909 H 0.25702 0.83555 0.0952 0.0
C1910 C 0.2544 0.87331 0.10319 0.0
C1911 C 0.25498 0.89336 0.10545 0.0
C1912 C 0.2709 0.8633 0.09725 0.0
C1913 C 0.27247 0.90308 0.1033 0.0
C1914 C 0.28903 0.89317 0.09806 0.0
C1915 C 0.3042 0.86395 0.08668 0.0
C1916 C 0.30301 0.84458 0.08121 0.0
C1917 C 0.28824 0.87343 0.09435 0.0
C1918 C 0.28606 0.83433 0.08494 0.0
C1919 C 0.27015 0.8436 0.09302 0.0
H1920 H 0.86715 0.51974 0.86125 0.0
H1921 H 0.88495 0.48775 0.81142 0.0
H1922 H 0.90348 0.51518 0.79993 0.0
H1923 H 0.91189 0.5492 0.80234 0.0
H1924 H 0.89074 0.5826 0.84986 0.0
H1925 H 0.87649 0.55383 0.86415 0.0
C1926 C 0.87536 0.5188 0.84806 0.0
C1927 C 0.87478 0.5019 0.83715 0.0
C1928 C 0.8853 0.53492 0.84111 0.0
C1929 C 0.88518 0.50075 0.81994 0.0
C1930 C 0.89577 0.51639 0.81338 0.0
C1931 C 0.90452 0.55004 0.81603 0.0
C1932 C 0.90243 0.56784 0.82515 0.0
C1933 C 0.89557 0.53369 0.82361 0.0
C1934 C 0.89251 0.56894 0.84266 0.0
C1935 C 0.88432 0.55254 0.85078 0.0
H1936 H 0.22708 0.16077 0.57872 0.0
H1937 H 0.18713 0.12095 0.60419 0.0
H1938 H 0.21358 0.10265 0.61788 0.0
H1939 H 0.24773 0.09485 0.6178 0.0
H1940 H 0.28801 0.13335 0.59089 0.0
H1941 H 0.26193 0.15545 0.583 0.0
C1942 C 0.22422 0.1484 0.58772 0.0
C1943 C 0.20525 0.14202 0.59022 0.0
C1944 C 0.23958 0.13756 0.59511 0.0
C1945 C 0.20167 0.12597 0.60186 0.0
C1946 C 0.21678 0.11546 0.60967 0.0
C1947 C 0.25087 0.10831 0.61064 0.0
C1948 C 0.26969 0.11231 0.60466 0.0
C1949 C 0.23577 0.12063 0.60565 0.0
C1950 C 0.27359 0.12988 0.59556 0.0
C1951 C 0.25866 0.14247 0.59091 0.0
H1952 H 0.08427 0.94197 0.83501 0.0
H1953 H 0.12577 0.93266 0.78996 0.0
H1954 H 0.14434 0.96009 0.80088 0.0
H1955 H 0.1495 0.986 0.82352 0.0
H1956 H 0.10909 0.99575 0.86937 0.0
H1957 H 0.08948 0.9688 0.85799 0.0
C1958 C 0.09726 0.94615 0.82752 0.0
C1959 C 0.10364 0.93535 0.81171 0.0
C1960 C 0.10818 0.96184 0.83413 0.0
C1961 C 0.1206 0.94072 0.80222 0.0
C1962 C 0.13127 0.95639 0.80845 0.0
C1963 C 0.13642 0.98225 0.83109 0.0
C1964 C 0.13079 0.99279 0.84729 0.0
C1965 C 0.12532 0.96688 0.82449 0.0
C1966 C 0.11378 0.98776 0.85689 0.0
C1967 C 0.10254 0.97241 0.85035 0.0
H1968 H 0.69655 0.33859 0.41892 0.0
H1969 H 0.66521 0.39163 0.42562 0.0
H1970 H 0.69242 0.40963 0.4134 0.0
H1971 H 0.72611 0.41083 0.40404 0.0
H1972 H 0.75796 0.35841 0.39646 0.0
H1973 H 0.72955 0.33964 0.40545 0.0
C1974 C 0.69564 0.35405 0.41743 0.0
C1975 C 0.67898 0.36375 0.42346 0.0
C1976 C 0.71144 0.36445 0.41031 0.0
C1977 C 0.67791 0.38378 0.42127 0.0
C1978 C 0.69348 0.39414 0.4143 0.0
C1979 C 0.72672 0.39527 0.40406 0.0
C1980 C 0.74404 0.38598 0.39982 0.0
C1981 C 0.71046 0.38469 0.40927 0.0
C1982 C 0.74468 0.36584 0.39966 0.0
C1983 C 0.7285 0.35513 0.40494 0.0
H1984 H 0.8835 0.50664 0.64204 0.0
H1985 H 0.82903 0.47857 0.65077 0.0
H1986 H 0.8454 0.4496 0.66168 0.0
H1987 H 0.87475 0.43329 0.67111 0.0
H1988 H 0.92951 0.46142 0.66465 0.0
H1989 H 0.91351 0.48944 0.65052 0.0
C1990 C 0.87532 0.494 0.64598 0.0
C1991 C 0.85514 0.49459 0.64554 0.0
C1992 C 0.88483 0.4776 0.65291 0.0
C1993 C 0.84459 0.47835 0.65099 0.0
C1994 C 0.85392 0.46185 0.6573 0.0
C1995 C 0.88325 0.44549 0.66653 0.0
C1996 C 0.90327 0.44535 0.66902 0.0
C1997 C 0.87398 0.46149 0.65873 0.0
C1998 C 0.91406 0.46126 0.66296 0.0
C1999 C 0.90491 0.47723 0.65487 0.0
H2000 H 0.58072 0.53588 0.19161 0.0
H2001 H 0.58375 0.56282 0.13607 0.0
H2002 H 0.60297 0.53599 0.12385 0.0
H2003 H 0.62269 0.50715 0.1305 0.0
H2004 H 0.62286 0.48338 0.18764 0.0
H2005 H 0.59881 0.50665 0.19779 0.0
C2006 C 0.58501 0.53552 0.17664 0.0
C2007 C 0.58061 0.55106 0.16463 0.0
C2008 C 0.59712 0.52083 0.17019 0.0
C2009 C 0.58677 0.55079 0.14545 0.0
C2010 C 0.59795 0.5356 0.13856 0.0
C2011 C 0.61725 0.50701 0.14508 0.0
C2012 C 0.6246 0.49375 0.15837 0.0
C2013 C 0.60385 0.52091 0.15103 0.0
C2014 C 0.61757 0.49367 0.17725 0.0
C2015 C 0.60375 0.50688 0.18304 0.0
H2016 H 0.57958 0.73732 0.91185 0.0
H2017 H 0.60959 0.76223 0.86383 0.0
H2018 H 0.59938 0.73546 0.84337 0.0
H2019 H 0.58157 0.70482 0.8393 0.0
H2020 H 0.55273 0.68019 0.88828 0.0
H2021 H 0.56271 0.70706 0.90813 0.0
C2022 C 0.58394 0.7369 0.89691 0.0
C2023 C 0.59527 0.75171 0.88934 0.0
C2024 C 0.57812 0.72154 0.88538 0.0
C2025 C 0.60089 0.75092 0.86999 0.0
C2026 C 0.595 0.73567 0.85829 0.0
C2027 C 0.57744 0.70547 0.85428 0.0
C2028 C 0.5664 0.69059 0.8623 0.0
C2029 C 0.58352 0.72091 0.86582 0.0
C2030 C 0.56127 0.69144 0.88178 0.0
C2031 C 0.56696 0.7068 0.89317 0.0
H2032 H 0.51632 0.36241 0.14701 0.0
H2033 H 0.47678 0.3427 0.10368 0.0
H2034 H 0.50367 0.33323 0.08317 0.0
H2035 H 0.53833 0.32645 0.07972 0.0
H2036 H 0.57737 0.34523 0.12398 0.0
H2037 H 0.55084 0.35934 0.14182 0.0
C2038 C 0.51359 0.35639 0.13292 0.0
C2039 C 0.49463 0.35302 0.12697 0.0
C2040 C 0.52906 0.35061 0.12144 0.0
C2041 C 0.49128 0.34536 0.10861 0.0
C2042 C 0.50665 0.33984 0.09693 0.0
C2043 C 0.54103 0.33399 0.09306 0.0
C2044 C 0.55971 0.33456 0.10066 0.0
C2045 C 0.5256 0.34177 0.1035 0.0
C2046 C 0.56306 0.34439 0.11795 0.0
C2047 C 0.5479 0.35246 0.12818 0.0
H2048 H 0.92877 0.28828 0.34781 0.0
H2049 H 0.91435 0.32507 0.3955 0.0
H2050 H 0.89676 0.29906 0.41071 0.0
H2051 H 0.88851 0.26518 0.41231 0.0
H2052 H 0.90384 0.22745 0.36573 0.0
H2053 H 0.91763 0.25452 0.34808 0.0
C2054 C 0.92153 0.29062 0.36138 0.0
C2055 C 0.92308 0.30848 0.37064 0.0
C2056 C 0.91164 0.27543 0.37029 0.0
C2057 C 0.9136 0.31137 0.3882 0.0
C2058 C 0.9035 0.29652 0.39692 0.0
C2059 C 0.89455 0.26292 0.39814 0.0
C2060 C 0.89531 0.24435 0.39041 0.0
C2061 C 0.90287 0.27837 0.38837 0.0
C2062 C 0.9031 0.24165 0.372 0.0
C2063 C 0.91111 0.2571 0.36196 0.0
H2064 H 0.97811 0.66119 0.65545 0.0
H2065 H 0.00497 0.63329 0.60725 0.0
H2066 H 0.97857 0.64367 0.58633 0.0
H2067 H 0.94895 0.66311 0.58148 0.0
H2068 H 0.92289 0.69052 0.63059 0.0
H2069 H 0.94789 0.678 0.65132 0.0
C2070 C 0.97806 0.65715 0.64041 0.0
C2071 C 0.99345 0.64663 0.63285 0.0
C2072 C 0.96308 0.66332 0.62856 0.0
C2073 C 0.99317 0.64133 0.6134 0.0
C2074 C 0.97818 0.64742 0.60142 0.0
C2075 C 0.94878 0.66624 0.59672 0.0
C2076 C 0.93419 0.6779 0.60441 0.0
C2077 C 0.96326 0.65884 0.60876 0.0
C2078 C 0.93398 0.68167 0.62423 0.0
C2079 C 0.94827 0.67451 0.63616 0.0
H2080 H 0.58155 0.29103 0.66203 0.0
H2081 H 0.54524 0.3097 0.61545 0.0
H2082 H 0.55819 0.28469 0.59484 0.0
H2083 H 0.5797 0.25779 0.58984 0.0
H2084 H 0.61715 0.23898 0.63536 0.0
H2085 H 0.60416 0.26396 0.65654 0.0
C2086 C 0.57642 0.28943 0.64743 0.0
C2087 C 0.5624 0.30205 0.64027 0.0
C2088 C 0.58427 0.2752 0.63542 0.0
C2089 C 0.55603 0.30012 0.62125 0.0
C2090 C 0.56344 0.28586 0.60944 0.0
C2091 C 0.5851 0.25917 0.60438 0.0
C2092 C 0.5993 0.24658 0.61107 0.0
C2093 C 0.5776 0.27342 0.61633 0.0
C2094 C 0.60625 0.24861 0.62988 0.0
C2095 C 0.59875 0.26279 0.64201 0.0
H2096 H 0.02246 0.34258 0.88199 0.0
H2097 H 0.98833 0.36775 0.83683 0.0
H2098 H 0.95918 0.36195 0.85529 0.0
H2099 H 0.94316 0.34569 0.88193 0.0
H2100 H 0.97676 0.31974 0.92694 0.0
H2101 H 0.00638 0.33008 0.91101 0.0
C2102 C 0.00868 0.3472 0.87641 0.0
C2103 C 0.00752 0.35536 0.85796 0.0
C2104 C 0.99188 0.34345 0.88695 0.0
C2105 C 0.98959 0.36131 0.85092 0.0
C2106 C 0.97289 0.35792 0.86143 0.0
C2107 C 0.95697 0.34257 0.88842 0.0
C2108 C 0.95784 0.33173 0.9054 0.0
C2109 C 0.97383 0.34834 0.87909 0.0
C2110 C 0.97577 0.32801 0.91382 0.0
C2111 C 0.99268 0.33384 0.90466 0.0
H2112 H 0.90871 0.6953 0.15968 0.0
H2113 H 0.94069 0.67767 0.10966 0.0
H2114 H 0.9266 0.70365 0.09107 0.0
H2115 H 0.90621 0.73194 0.08917 0.0
H2116 H 0.87338 0.7498 0.13848 0.0
H2117 H 0.88645 0.72296 0.15711 0.0
C2118 C 0.91256 0.69723 0.14473 0.0
C2119 C 0.92583 0.68473 0.13609 0.0
C2120 C 0.90415 0.7121 0.13396 0.0
C2121 C 0.93054 0.68715 0.11664 0.0
C2122 C 0.92248 0.70198 0.10597 0.0
C2123 C 0.90175 0.72985 0.10394 0.0
C2124 C 0.88894 0.74282 0.11248 0.0
C2125 C 0.90937 0.71457 0.1145 0.0
C2126 C 0.88318 0.7399 0.13158 0.0
C2127 C 0.89076 0.72467 0.14227 0.0
H2128 H 0.49381 0.68483 0.35912 0.0
H2129 H 0.49721 0.62925 0.38609 0.0
H2130 H 0.52513 0.63981 0.40471 0.0
H2131 H 0.55047 0.66409 0.41087 0.0
H2132 H 0.54759 0.71859 0.3818 0.0
H2133 H 0.51734 0.70942 0.36675 0.0
C2134 C 0.50055 0.67504 0.36918 0.0
C2135 C 0.49362 0.65624 0.37108 0.0
C2136 C 0.51665 0.6811 0.37953 0.0
C2137 C 0.5024 0.64378 0.38428 0.0
C2138 C 0.51835 0.64982 0.39493 0.0
C2139 C 0.54287 0.67405 0.40164 0.0
C2140 C 0.55102 0.692 0.39747 0.0
C2141 C 0.52584 0.66835 0.39239 0.0
C2142 C 0.54141 0.70473 0.3852 0.0
C2143 C 0.52422 0.69945 0.37651 0.0
H2144 H 0.90463 0.58981 0.732 0.0
H2145 H 0.85417 0.61467 0.75775 0.0
H2146 H 0.8345 0.60272 0.73103 0.0
H2147 H 0.83181 0.58423 0.7005 0.0
H2148 H 0.88327 0.56015 0.67566 0.0
H2149 H 0.9023 0.57269 0.70191 0.0
C2150 C 0.88933 0.5927 0.73179 0.0
C2151 C 0.88084 0.60302 0.74683 0.0
C2152 C 0.87825 0.58582 0.71655 0.0
C2153 C 0.86103 0.60677 0.74626 0.0
C2154 C 0.84979 0.59987 0.73104 0.0
C2155 C 0.84717 0.58177 0.70091 0.0
C2156 C 0.85607 0.57122 0.68615 0.0
C2157 C 0.85824 0.5892 0.71614 0.0
C2158 C 0.87602 0.56823 0.68678 0.0
C2159 C 0.88697 0.57539 0.70181 0.0
H2160 H 0.65756 0.59013 0.94156 0.0
H2161 H 0.71664 0.59256 0.96009 0.0
H2162 H 0.70721 0.61066 0.9885 0.0
H2163 H 0.6827 0.62813 0.00657 0.0
H2164 H 0.62343 0.6252 0.98906 0.0
H2165 H 0.63238 0.60497 0.96166 0.0
C2166 C 0.66831 0.59434 0.952 0.0
C2167 C 0.6878 0.59014 0.94864 0.0
C2168 C 0.66279 0.60489 0.96828 0.0
C2169 C 0.70156 0.59562 0.96232 0.0
C2170 C 0.6962 0.60609 0.9785 0.0
C2171 C 0.67174 0.62302 0.99675 0.0
C2172 C 0.6525 0.62838 -0.00047 0.0
C2173 C 0.67696 0.61123 0.98134 0.0
C2174 C 0.63835 0.62134 0.98705 0.0
C2175 C 0.64348 0.6098 0.97143 0.0
H2176 H 0.62938 0.4027 0.25719 0.0
H2177 H 0.57534 0.39871 0.22725 0.0
H2178 H 0.59142 0.40477 0.19677 0.0
H2179 H 0.61985 0.4149 0.17932 0.0
H2180 H 0.67369 0.42195 0.20907 0.0
H2181 H 0.65882 0.41068 0.2389 0.0
C2182 C 0.62127 0.4028 0.24391 0.0
C2183 C 0.60124 0.40038 0.24437 0.0
C2184 C 0.63054 0.40698 0.22647 0.0
C2185 C 0.59077 0.4007 0.22718 0.0
C2186 C 0.59994 0.40417 0.20977 0.0
C2187 C 0.62846 0.41368 0.19224 0.0
C2188 C 0.64779 0.41939 0.19205 0.0
C2189 C 0.61968 0.4079 0.20935 0.0
C2190 C 0.65874 0.41768 0.20889 0.0
C2191 C 0.65022 0.41134 0.22595 0.0
H2192 H 0.80703 0.36545 0.44168 0.0
H2193 H 0.82466 0.42038 0.46402 0.0
H2194 H 0.83629 0.40479 0.49342 0.0
H2195 H 0.84065 0.37532 0.513 0.0
H2196 H 0.82109 0.32108 0.49048 0.0
H2197 H 0.8112 0.33662 0.46076 0.0
C2198 C 0.81347 0.37407 0.45294 0.0
C2199 C 0.81501 0.39403 0.45071 0.0
C2200 C 0.81984 0.36509 0.46972 0.0
C2201 C 0.82327 0.40498 0.46547 0.0
C2202 C 0.82995 0.39606 0.48222 0.0
C2203 C 0.8344 0.36695 0.50147 0.0
C2204 C 0.83164 0.3471 0.50383 0.0
C2205 C 0.82825 0.3761 0.48453 0.0
C2206 C 0.8233 0.33639 0.48896 0.0
C2207 C 0.81763 0.34525 0.47198 0.0
H2208 H 0.91806 0.40411 0.76346 0.0
H2209 H 0.86694 0.39506 0.72988 0.0
H2210 H 0.84695 0.4037 0.75756 0.0
H2211 H 0.84441 0.41714 0.79045 0.0
H2212 H 0.89614 0.42497 0.82371 0.0
H2213 H 0.91542 0.41329 0.79715 0.0
C2214 C 0.90253 0.40376 0.76232 0.0
C2215 C 0.89394 0.39921 0.74472 0.0
C2216 C 0.89124 0.40865 0.77821 0.0
C2217 C 0.87383 0.39854 0.74338 0.0
C2218 C 0.86242 0.40359 0.75914 0.0
C2219 C 0.85986 0.41599 0.79194 0.0
C2220 C 0.86881 0.42221 0.80893 0.0
C2221 C 0.871 0.40917 0.77651 0.0
C2222 C 0.88885 0.42046 0.81074 0.0
C2223 C 0.89995 0.41381 0.79553 0.0
H2224 H 0.8138 0.62824 0.05743 0.0
H2225 H 0.82623 0.57405 0.03031 0.0
H2226 H 0.83873 0.59096 0.00202 0.0
H2227 H 0.845 0.62149 0.98468 0.0
H2228 H 0.83028 0.6751 0.01187 0.0
H2229 H 0.82002 0.65808 0.04065 0.0
C2230 C 0.81931 0.62007 0.04538 0.0
C2231 C 0.81912 0.59995 0.04592 0.0
C2232 C 0.82613 0.62983 0.02924 0.0
C2233 C 0.82619 0.58958 0.03016 0.0
C2234 C 0.83337 0.59924 0.01404 0.0
C2235 C 0.83977 0.62936 0.99704 0.0
C2236 C 0.83844 0.64947 0.99629 0.0
C2237 C 0.8333 0.6194 0.01338 0.0
C2238 C 0.83138 0.65959 0.01219 0.0
C2239 C 0.82549 0.64989 0.02861 0.0
H2240 H 0.63304 0.60493 0.23578 0.0
H2241 H 0.61302 0.54802 0.22195 0.0
H2242 H 0.63601 0.53415 0.24436 0.0
H2243 H 0.65818 0.53845 0.27114 0.0
H2244 H 0.67685 0.59534 0.28675 0.0
H2245 H 0.65846 0.6089 0.26013 0.0
C2246 C 0.63402 0.58949 0.23743 0.0
C2247 C 0.62119 0.57753 0.22751 0.0
C2248 C 0.64697 0.5816 0.25074 0.0
C2249 C 0.62258 0.55753 0.22969 0.0
C2250 C 0.63572 0.54958 0.24248 0.0
C2251 C 0.65862 0.55377 0.26843 0.0
C2252 C 0.66864 0.56589 0.28101 0.0
C2253 C 0.64747 0.56151 0.25359 0.0
C2254 C 0.66913 0.58571 0.2773 0.0
C2255 C 0.65851 0.59349 0.26217 0.0
H2256 H 0.6758 0.37407 0.49527 0.0
H2257 H 0.6167 0.37313 0.51361 0.0
H2258 H 0.62491 0.39288 0.54156 0.0
H2259 H 0.64946 0.40817 0.56189 0.0
H2260 H 0.70842 0.40948 0.5429 0.0
H2261 H 0.6996 0.39218 0.51375 0.0
C2262 C 0.66471 0.37824 0.50539 0.0
C2263 C 0.64576 0.37192 0.50268 0.0
C2264 C 0.6695 0.38974 0.52115 0.0
C2265 C 0.63142 0.37774 0.51556 0.0
C2266 C 0.63611 0.38901 0.53149 0.0
C2267 C 0.66031 0.40498 0.5512 0.0
C2268 C 0.67959 0.40995 0.5546 0.0
C2269 C 0.65517 0.39483 0.53458 0.0
C2270 C 0.69349 0.40581 0.54061 0.0
C2271 C 0.68849 0.39578 0.52401 0.0
H2272 H 0.77273 0.85955 0.57478 0.0
H2273 H 0.74194 0.89325 0.6166 0.0
H2274 H 0.71318 0.87396 0.61133 0.0
H2275 H 0.69558 0.85132 0.59115 0.0
H2276 H 0.72556 0.81897 0.54773 0.0
H2277 H 0.75593 0.83365 0.55753 0.0
C2278 C 0.75988 0.86232 0.58311 0.0
C2279 C 0.75937 0.87793 0.5959 0.0
C2280 C 0.74319 0.85157 0.57952 0.0
C2281 C 0.74262 0.88141 0.60656 0.0
C2282 C 0.72615 0.87044 0.60349 0.0
C2283 C 0.70882 0.84717 0.58409 0.0
C2284 C 0.70831 0.83432 0.56855 0.0
C2285 C 0.72606 0.85607 0.58942 0.0
C2286 C 0.72558 0.82891 0.55968 0.0
C2287 C 0.74293 0.83739 0.5652 0.0
H2288 H 0.22586 0.59694 0.39645 0.0
H2289 H 0.26402 0.64553 0.39524 0.0
H2290 H 0.23738 0.66691 0.40387 0.0
H2291 H 0.20359 0.67107 0.41461 0.0
H2292 H 0.16588 0.6219 0.41434 0.0
H2293 H 0.19188 0.60157 0.40331 0.0
C2294 C 0.22827 0.61226 0.39784 0.0
C2295 C 0.24679 0.61968 0.39544 0.0
C2296 C 0.21297 0.62435 0.40267 0.0
C2297 C 0.24979 0.63954 0.39702 0.0
C2298 C 0.2346 0.65172 0.40206 0.0
C2299 C 0.20107 0.65597 0.41188 0.0
C2300 C 0.18288 0.648 0.41554 0.0
C2301 C 0.21618 0.64421 0.40536 0.0
C2302 C 0.17975 0.62843 0.41178 0.0
C2303 C 0.19463 0.61671 0.40549 0.0
H2304 H 0.59758 0.94071 0.6541 0.0
H2305 H 0.60314 0.95308 0.71454 0.0
H2306 H 0.62047 0.98255 0.70715 0.0
H2307 H 0.63632 0.00337 0.68372 0.0
H2308 H 0.63038 0.99179 0.62324 0.0
H2309 H 0.61086 0.96343 0.63041 0.0
C2310 C 0.60233 0.95002 0.66562 0.0
C2311 C 0.59921 0.94465 0.68483 0.0
C2312 C 0.61239 0.96694 0.66128 0.0
C2313 C 0.60536 0.95688 0.69963 0.0
C2314 C 0.61538 0.97368 0.69543 0.0
C2315 C 0.63067 0.99467 0.67211 0.0
C2316 C 0.63497 -0.00057 0.65301 0.0
C2317 C 0.61937 0.97859 0.67634 0.0
C2318 C 0.6273 0.9883 0.63807 0.0
C2319 C 0.61619 0.9721 0.64217 0.0
H2320 H 0.31912 0.38033 0.92224 0.0
H2321 H 0.29364 0.32406 0.9188 0.0
H2322 H 0.26383 0.33823 0.90644 0.0
H2323 H 0.24407 0.36718 0.89977 0.0
H2324 H 0.26967 0.42315 0.90598 0.0
H2325 H 0.30051 0.40854 0.91385 0.0
C2326 C 0.30713 0.37108 0.91862 0.0
C2327 C 0.30852 0.35119 0.92159 0.0
C2328 C 0.29006 0.37934 0.91202 0.0
C2329 C 0.29289 0.33943 0.91671 0.0
C2330 C 0.27585 0.34754 0.90969 0.0
C2331 C 0.25656 0.37608 0.90244 0.0
C2332 C 0.25473 0.39618 0.90227 0.0
C2333 C 0.27412 0.36754 0.9077 0.0
C2334 C 0.27083 0.40765 0.90606 0.0
C2335 C 0.28841 0.39931 0.91062 0.0
H2336 H 0.33978 0.52653 0.64999 0.0
H2337 H 0.39162 0.49488 0.63831 0.0
H2338 H 0.41097 0.52173 0.65029 0.0
H2339 H 0.41275 0.55312 0.667 0.0
H2340 H 0.36031 0.58434 0.67785 0.0
H2341 H 0.34165 0.55881 0.66323 0.0
C2342 C 0.35533 0.52563 0.64982 0.0
C2343 C 0.36429 0.50877 0.64348 0.0
C2344 C 0.36625 0.54098 0.65676 0.0
C2345 C 0.38443 0.50779 0.64311 0.0
C2346 C 0.39547 0.52307 0.65009 0.0
C2347 C 0.39727 0.55437 0.66596 0.0
C2348 C 0.38793 0.57049 0.67374 0.0
C2349 C 0.3865 0.53956 0.65742 0.0
C2350 C 0.36787 0.57203 0.67212 0.0
C2351 C 0.35714 0.55743 0.66377 0.0
H2352 H 0.75152 0.1411 0.10533 0.0
H2353 H 0.78324 0.08896 0.11529 0.0
H2354 H 0.81293 0.10475 0.10534 0.0
H2355 H 0.8287 0.13158 0.08956 0.0
H2356 H 0.79672 0.18284 0.07612 0.0
H2357 H 0.76828 0.16935 0.09185 0.0
C2358 C 0.76508 0.13346 0.10585 0.0
C2359 C 0.76538 0.114 0.11112 0.0
C2360 C 0.7819 0.14237 0.09917 0.0
C2361 C 0.78283 0.10399 0.11135 0.0
C2362 C 0.79973 0.11297 0.10556 0.0
C2363 C 0.8156 0.13997 0.0903 0.0
C2364 C 0.81472 0.15809 0.0815 0.0
C2365 C 0.79927 0.13189 0.09874 0.0
C2366 C 0.7977 0.1688 0.0827 0.0
C2367 C 0.78144 0.16107 0.09164 0.0
H2368 H 0.6265 0.00138 0.85476 0.0
H2369 H 0.64301 0.98568 0.79716 0.0
H2370 H 0.62381 0.01181 0.78418 0.0
H2371 H 0.60451 0.04054 0.78915 0.0
H2372 H 0.58946 0.05802 0.84657 0.0
H2373 H 0.60553 0.02962 0.85963 0.0
C2374 C 0.62575 0.00364 0.83938 0.0
C2375 C 0.6363 0.99174 0.82696 0.0
C2376 C 0.61489 0.01897 0.83197 0.0
C2377 C 0.6352 0.99478 0.80705 0.0
C2378 C 0.62417 0.00968 0.79959 0.0
C2379 C 0.60441 0.03796 0.8045 0.0
C2380 C 0.59582 0.05133 0.81687 0.0
C2381 C 0.61424 0.02205 0.81191 0.0
C2382 C 0.59597 0.04788 0.83675 0.0
C2383 C 0.60526 0.03172 0.84422 0.0
H2384 H 0.88403 0.006 0.34538 0.0
H2385 H 0.83305 0.98398 0.31792 0.0
H2386 H 0.85058 0.95562 0.30749 0.0
H2387 H 0.88016 0.93733 0.3057 0.0
H2388 H 0.93195 0.95908 0.33168 0.0
H2389 H 0.91439 0.98744 0.34307 0.0
C2390 C 0.8768 0.9949 0.33722 0.0
C2391 C 0.85727 0.99701 0.33247 0.0
C2392 C 0.8871 0.97872 0.33091 0.0
C2393 C 0.84807 0.98268 0.32171 0.0
C2394 C 0.85808 0.96647 0.31574 0.0
C2395 C 0.88765 0.94824 0.31389 0.0
C2396 C 0.90729 0.94611 0.31792 0.0
C2397 C 0.87757 0.9644 0.32017 0.0
C2398 C 0.91682 0.96045 0.32838 0.0
C2399 C 0.90677 0.9766 0.33492 0.0
H2400 H 0.40472 0.30145 0.15467 0.0
H2401 H 0.46456 0.2854 0.1538 0.0
H2402 H 0.45679 0.25674 0.13524 0.0
H2403 H 0.43354 0.23813 0.11649 0.0
H2404 H 0.37362 0.25356 0.11763 0.0
H2405 H 0.38086 0.28066 0.13886 0.0
C2406 C 0.41601 0.29147 0.15074 0.0
C2407 C 0.43522 0.29563 0.15546 0.0
C2408 C 0.41146 0.27513 0.13986 0.0
C2409 C 0.44967 0.28254 0.15035 0.0
C2410 C 0.44526 0.26623 0.1396 0.0
C2411 C 0.42206 0.24738 0.12148 0.0
C2412 C 0.40313 0.24413 0.11529 0.0
C2413 C 0.42631 0.26272 0.13379 0.0
C2414 C 0.38831 0.25592 0.12213 0.0
C2415 C 0.39246 0.27139 0.13424 0.0
H2416 H 0.46053 0.65812 0.91902 0.0
H2417 H 0.42222 0.65773 0.8703 0.0
H2418 H 0.44696 0.64323 0.85051 0.0
H2419 H 0.48075 0.63548 0.84564 0.0
H2420 H 0.51967 0.63559 0.89366 0.0
H2421 H 0.49344 0.64492 0.91518 0.0
C2422 C 0.45751 0.65445 0.9042 0.0
C2423 C 0.43971 0.6594 0.89605 0.0
C2424 C 0.47196 0.64618 0.89272 0.0
C2425 C 0.43592 0.6544 0.87687 0.0
C2426 C 0.45006 0.6461 0.86549 0.0
C2427 C 0.48333 0.63703 0.86092 0.0
C2428 C 0.50202 0.63505 0.86808 0.0
C2429 C 0.46833 0.64265 0.87305 0.0
C2430 C 0.5053 0.63696 0.88788 0.0
C2431 C 0.49035 0.64251 0.90014 0.0
H2432 H 0.08411 0.7013 0.65893 0.0
H2433 H 0.05372 0.68082 0.60898 0.0
H2434 H 0.06697 0.70675 0.58981 0.0
H2435 H 0.08622 0.73568 0.58727 0.0
H2436 H 0.11748 0.75659 0.63638 0.0
H2437 H 0.10522 0.72988 0.65576 0.0
C2438 C 0.08041 0.70262 0.64387 0.0
C2439 C 0.06786 0.68928 0.63541 0.0
C2440 C 0.08836 0.71749 0.63275 0.0
C2441 C 0.06334 0.69092 0.61582 0.0
C2442 C 0.07092 0.70573 0.60482 0.0
C2443 C 0.09051 0.7343 0.60217 0.0
C2444 C 0.10264 0.74806 0.61043 0.0
C2445 C 0.08335 0.71911 0.61314 0.0
C2446 C 0.1082 0.74606 0.6297 0.0
C2447 C 0.10108 0.73089 0.64081 0.0
H2448 H 0.0613 0.32787 0.42579 0.0
H2449 H 0.06721 0.28036 0.38653 0.0
H2450 H 0.03824 0.29018 0.3697 0.0
H2451 H 0.01219 0.3128 0.36506 0.0
H2452 H 0.00594 0.36124 0.40302 0.0
H2453 H 0.03411 0.35064 0.42136 0.0
C2454 C 0.05602 0.31958 0.41373 0.0
C2455 C 0.06631 0.3034 0.40742 0.0
C2456 C 0.03947 0.32559 0.40374 0.0
C2457 C 0.05953 0.29289 0.39162 0.0
C2458 C 0.043 0.29851 0.38194 0.0
C2459 C 0.01694 0.32108 0.37736 0.0
C2460 C 0.00705 0.33782 0.38262 0.0
C2461 C 0.03305 0.31497 0.38768 0.0
C2462 C 0.01339 0.34833 0.39862 0.0
C2463 C 0.02945 0.34225 0.40913 0.0
H2464 H 0.38261 0.7207 0.40654 0.0
H2465 H 0.37872 0.75526 0.35543 0.0
H2466 H 0.39158 0.72875 0.33624 0.0
H2467 H 0.40799 0.69716 0.33501 0.0
H2468 H 0.41107 0.66299 0.38661 0.0
H2469 H 0.3944 0.68781 0.40449 0.0
C2470 C 0.38415 0.72224 0.39112 0.0
C2471 C 0.37991 0.73986 0.38241 0.0
C2472 C 0.39171 0.70709 0.3803 0.0
C2473 C 0.38182 0.74173 0.36242 0.0
C2474 C 0.38937 0.72665 0.35149 0.0
C2475 C 0.40474 0.69508 0.35009 0.0
C2476 C 0.4111 0.67841 0.35952 0.0
C2477 C 0.39502 0.70949 0.36041 0.0
C2478 C 0.40657 0.67578 0.37901 0.0
C2479 C 0.39702 0.68997 0.38931 0.0
H2480 H 0.99261 0.64256 0.10919 0.0
H2481 H 0.01953 0.64584 0.1648 0.0
H2482 H 0.04956 0.65615 0.15005 0.0
H2483 H 0.06702 0.66724 0.12207 0.0
H2484 H 0.0403 0.66645 0.06625 0.0
H2485 H 0.01129 0.65213 0.08027 0.0
C2486 C 0.00524 0.64511 0.11792 0.0
C2487 C 0.00403 0.64337 0.138 0.0
C2488 C 0.02231 0.65178 0.10936 0.0
C2489 C 0.02026 0.64706 0.14931 0.0
C2490 C 0.03736 0.65304 0.14091 0.0
C2491 C 0.05492 0.66384 0.11288 0.0
C2492 C 0.05571 0.66808 0.09319 0.0
C2493 C 0.03836 0.65597 0.12105 0.0
C2494 C 0.03997 0.66342 0.08149 0.0
C2495 C 0.02341 0.65524 0.08951 0.0
H2496 H 0.10212 0.24161 0.87232 0.0
H2497 H 0.04759 0.24207 0.90177 0.0
H2498 H 0.03594 0.26715 0.88049 0.0
H2499 H 0.0415 0.28992 0.85464 0.0
H2500 H 0.09637 0.29146 0.82604 0.0
H2501 H 0.1075 0.26441 0.84558 0.0
C2502 C 0.0877 0.24722 0.87402 0.0
C2503 C 0.0758 0.24007 0.88868 0.0
C2504 C 0.08109 0.26188 0.86181 0.0
C2505 C 0.05712 0.24742 0.89072 0.0
C2506 C 0.05038 0.26172 0.8785 0.0
C2507 C 0.0558 0.28415 0.85243 0.0
C2508 C 0.06807 0.29258 0.83886 0.0
C2509 C 0.06227 0.26914 0.86411 0.0
C2510 C 0.08663 0.28512 0.83636 0.0
C2511 C 0.09303 0.26975 0.84761 0.0
H2512 H 0.47265 0.34473 0.66229 0.0
H2513 H 0.50636 0.3559 0.6117 0.0
H2514 H 0.4792 0.34654 0.59129 0.0
H2515 H 0.44694 0.33148 0.58823 0.0
H2516 H 0.4138 0.32122 0.63961 0.0
H2517 H 0.43956 0.33397 0.65922 0.0
C2518 C 0.47389 0.3455 0.64678 0.0
C2519 C 0.4914 0.35083 0.63846 0.0
C2520 C 0.45838 0.33999 0.63527 0.0
C2521 C 0.4929 0.35193 0.61839 0.0
C2522 C 0.47745 0.34639 0.60674 0.0
C2523 C 0.44533 0.33229 0.60369 0.0
C2524 C 0.42859 0.32511 0.61242 0.0
C2525 C 0.46029 0.33979 0.61506 0.0
C2526 C 0.42658 0.32646 0.63247 0.0
C2527 C 0.44132 0.33375 0.64377 0.0
H2528 H 0.1571 0.42234 0.30283 0.0
H2529 H 0.10533 0.44199 0.33074 0.0
H2530 H 0.08615 0.43058 0.30407 0.0
H2531 H 0.08377 0.41592 0.2727 0.0
H2532 H 0.13447 0.39512 0.24403 0.0
H2533 H 0.15435 0.40584 0.27115 0.0
C2534 C 0.14164 0.42407 0.303 0.0
C2535 C 0.13269 0.43308 0.31872 0.0
C2536 C 0.13048 0.41723 0.28755 0.0
C2537 C 0.11261 0.4351 0.31885 0.0
C2538 C 0.10157 0.42859 0.30359 0.0
C2539 C 0.09918 0.41365 0.27237 0.0
C2540 C 0.10768 0.40489 0.25639 0.0
C2541 C 0.11034 0.41976 0.28787 0.0
C2542 C 0.12761 0.40183 0.25626 0.0
C2543 C 0.13896 0.40804 0.2717 0.0
H2544 H 0.32196 0.33714 0.00907 0.0
H2545 H 0.35808 0.3857 0.99626 0.0
H2546 H 0.34475 0.40303 0.0239 0.0
H2547 H 0.32244 0.40418 0.05179 0.0
H2548 H 0.28737 0.35465 0.06414 0.0
H2549 H 0.3005 0.33801 0.03644 0.0
C2550 C 0.327 0.35151 0.01232 0.0
C2551 C 0.34097 0.36014 0.00067 0.0
C2552 C 0.31931 0.36127 0.02807 0.0
C2553 C 0.34738 0.37872 0.00511 0.0
C2554 C 0.33969 0.38865 0.02084 0.0
C2555 C 0.31762 0.38982 0.04824 0.0
C2556 C 0.30392 0.38067 0.05992 0.0
C2557 C 0.32554 0.38009 0.03239 0.0
C2558 C 0.29792 0.36198 0.05538 0.0
C2559 C 0.30543 0.35242 0.03956 0.0
H2560 H 0.34096 0.59924 0.81124 0.0
H2561 H 0.33503 0.5418 0.78885 0.0
H2562 H 0.35419 0.55047 0.7609 0.0
H2563 H 0.37479 0.57342 0.74421 0.0
H2564 H 0.38032 0.63118 0.76554 0.0
H2565 H 0.35915 0.62336 0.79261 0.0
C2566 C 0.34359 0.58873 0.80007 0.0
C2567 C 0.3367 0.56986 0.80219 0.0
C2568 C 0.35476 0.59379 0.78404 0.0
C2569 C 0.34017 0.55641 0.78759 0.0
C2570 C 0.35124 0.56131 0.77165 0.0
C2571 C 0.37132 0.58432 0.75478 0.0
C2572 C 0.37931 0.60274 0.75316 0.0
C2573 C 0.359 0.57979 0.77 0.0
C2574 C 0.3744 0.61686 0.76664 0.0
C2575 C 0.36232 0.61238 0.78207 0.0
H2576 H 0.14923 0.59417 0.54362 0.0
H2577 H 0.20837 0.59365 0.52515 0.0
H2578 H 0.20017 0.61381 0.49772 0.0
H2579 H 0.17698 0.63435 0.4811 0.0
H2580 H 0.11766 0.6345 0.49864 0.0
H2581 H 0.12511 0.6117 0.52446 0.0
C2582 C 0.16024 0.59815 0.53337 0.0
C2583 C 0.17942 0.59259 0.53651 0.0
C2584 C 0.15545 0.60993 0.51772 0.0
C2585 C 0.19352 0.59774 0.52306 0.0
C2586 C 0.18887 0.60941 0.50747 0.0
C2587 C 0.16567 0.62931 0.49055 0.0
C2588 C 0.1469 0.63632 0.48834 0.0
C2589 C 0.17003 0.61608 0.50504 0.0
C2590 C 0.13225 0.62937 0.50027 0.0
C2591 C 0.13652 0.61637 0.51498 0.0
H2592 H 0.11934 0.56704 0.26097 0.0
H2593 H 0.11154 0.62374 0.23759 0.0
H2594 H 0.13166 0.61525 0.20994 0.0
H2595 H 0.1488 0.59054 0.19113 0.0
H2596 H 0.15679 0.53408 0.21529 0.0
H2597 H 0.13956 0.54377 0.24417 0.0
C2598 C 0.12217 0.57758 0.24987 0.0
C2599 C 0.11375 0.59586 0.25105 0.0
C2600 C 0.1338 0.57264 0.23424 0.0
C2601 C 0.11781 0.60954 0.23686 0.0
C2602 C 0.12926 0.60467 0.22107 0.0
C2603 C 0.14708 0.58048 0.20288 0.0
C2604 C 0.15388 0.56154 0.20099 0.0
C2605 C 0.13698 0.58611 0.21942 0.0
C2606 C 0.15165 0.54871 0.21636 0.0
C2607 C 0.14169 0.5542 0.23283 0.0
H2608 H 0.15858 0.34129 0.99198 0.0
H2609 H 0.11654 0.38492 0.00452 0.0
H2610 H 0.13082 0.40585 0.98005 0.0
H2611 H 0.15599 0.41183 0.95544 0.0
H2612 H 0.19734 0.36733 0.94338 0.0
H2613 H 0.1828 0.34679 0.96756 0.0
C2614 C 0.15242 0.35533 0.9893 0.0
C2615 C 0.13653 0.36155 1e-05 0.0
C2616 C 0.16077 0.36723 0.97547 0.0
C2617 C 0.12871 0.37977 0.99634 0.0
C2618 C 0.13696 0.39177 0.98247 0.0
C2619 C 0.16186 0.39771 0.9583 0.0
C2620 C 0.17778 0.39113 0.94776 0.0
C2621 C 0.15316 0.38573 0.97207 0.0
C2622 C 0.18511 0.3727 0.95133 0.0
C2623 C 0.17678 0.36092 0.96511 0.0
H2624 H 0.3803 0.43878 0.67932 0.0
H2625 H 0.32325 0.43249 0.70248 0.0
H2626 H 0.33683 0.4209 0.7329 0.0
H2627 H 0.36537 0.4138 0.75326 0.0
H2628 H 0.42197 0.4223 0.7296 0.0
H2629 H 0.40811 0.43161 0.69892 0.0
C2630 C 0.37076 0.43479 0.69095 0.0
C2631 C 0.3508 0.43648 0.68866 0.0
C2632 C 0.37863 0.42851 0.70831 0.0
C2633 C 0.33868 0.43133 0.70393 0.0
C2634 C 0.34645 0.4247 0.72129 0.0
C2635 C 0.37458 0.4175 0.74128 0.0
C2636 C 0.39465 0.41736 0.74363 0.0
C2637 C 0.36645 0.42337 0.7237 0.0
C2638 C 0.40649 0.42239 0.72813 0.0
C2639 C 0.39858 0.42772 0.71059 0.0
H2640 H 0.34244 0.61491 0.50761 0.0
H2641 H 0.33913 0.67136 0.4825 0.0
H2642 H 0.32946 0.65757 0.45186 0.0
H2643 H 0.31979 0.63002 0.43293 0.0
H2644 H 0.32046 0.57338 0.45779 0.0
H2645 H 0.3333 0.58661 0.48783 0.0
C2646 C 0.33988 0.62406 0.49529 0.0
C2647 C 0.34152 0.64408 0.49719 0.0
C2648 C 0.33364 0.61604 0.4778 0.0
C2649 C 0.3379 0.65591 0.48131 0.0
C2650 C 0.33234 0.64805 0.46382 0.0
C2651 C 0.32286 0.62049 0.44485 0.0
C2652 C 0.31914 0.60077 0.44317 0.0
C2653 C 0.3298 0.62821 0.46203 0.0
C2654 C 0.32316 0.58865 0.45878 0.0
C2655 C 0.33049 0.59621 0.47593 0.0
H2656 H 0.28595 0.17445 0.42172 0.0
H2657 H 0.32628 0.13676 0.39371 0.0
H2658 H 0.30007 0.11998 0.37782 0.0
H2659 H 0.26579 0.11292 0.37571 0.0
H2660 H 0.22504 0.14944 0.4046 0.0
H2661 H 0.25117 0.16992 0.41599 0.0
C2662 C 0.28896 0.1629 0.41175 0.0
C2663 C 0.30798 0.1567 0.40907 0.0
C2664 C 0.27371 0.15293 0.40298 0.0
C2665 C 0.31173 0.14166 0.39616 0.0
C2666 C 0.29674 0.13201 0.3871 0.0
C2667 C 0.26259 0.1256 0.38416 0.0
C2668 C 0.24356 0.12951 0.38951 0.0
C2669 C 0.27768 0.13703 0.391 0.0
C2670 C 0.2396 0.14606 0.40034 0.0
C2671 C 0.25456 0.15772 0.40696 0.0
H2672 H 0.77634 0.32599 0.57997 0.0
H2673 H 0.81937 0.36662 0.59818 0.0
H2674 H 0.79487 0.38642 0.61316 0.0
H2675 H 0.76114 0.39426 0.61777 0.0
H2676 H 0.71741 0.35491 0.59866 0.0
H2677 H 0.74214 0.33245 0.58774 0.0
C2678 C 0.78031 0.33899 0.58754 0.0
C2679 C 0.79959 0.34496 0.58776 0.0
C2680 C 0.76601 0.35063 0.59587 0.0
C2681 C 0.80459 0.36184 0.59759 0.0
C2682 C 0.79059 0.3732 0.60618 0.0
C2683 C 0.757 0.38061 0.61154 0.0
C2684 C 0.7375 0.37634 0.60886 0.0
C2685 C 0.77123 0.36805 0.6049 0.0
C2686 C 0.73236 0.35855 0.60086 0.0
C2687 C 0.7465 0.34575 0.59449 0.0
H2688 H 0.39063 0.99858 0.35711 0.0
H2689 H 0.33686 0.02922 0.35655 0.0
H2690 H 0.35332 0.05854 0.34686 0.0
H2691 H 0.382 0.07424 0.33486 0.0
H2692 H 0.4358 0.04369 0.33279 0.0
H2693 H 0.42043 0.01553 0.34734 0.0
C2694 C 0.38269 0.01184 0.35534 0.0
C2695 C 0.36262 0.01187 0.35755 0.0
C2696 C 0.39219 0.02849 0.349 0.0
C2697 C 0.35233 0.02896 0.35491 0.0
C2698 C 0.36171 0.04566 0.34929 0.0
C2699 C 0.39047 0.0615 0.33775 0.0
C2700 C 0.40994 0.06093 0.33254 0.0
C2701 C 0.38149 0.0454 0.34567 0.0
C2702 C 0.42074 0.04441 0.33659 0.0
C2703 C 0.41194 0.02832 0.34486 0.0
H2704 H 0.70401 0.66009 0.0798 0.0
H2705 H 0.66828 0.60948 0.07816 0.0
H2706 H 0.69482 0.58998 0.08947 0.0
H2707 H 0.72898 0.58647 0.09618 0.0
H2708 H 0.76525 0.6364 0.09886 0.0
H2709 H 0.73773 0.65703 0.09114 0.0
C2710 C 0.702 0.64486 0.08224 0.0
C2711 C 0.68427 0.63623 0.07781 0.0
C2712 C 0.71744 0.63357 0.08884 0.0
C2713 C 0.68181 0.6165 0.08122 0.0
C2714 C 0.697 0.60527 0.08769 0.0
C2715 C 0.73075 0.60192 0.09543 0.0
C2716 C 0.74902 0.60995 0.09787 0.0
C2717 C 0.71498 0.61354 0.09098 0.0
C2718 C 0.75122 0.62996 0.09708 0.0
C2719 C 0.73553 0.6417 0.09251 0.0
H2720 H 0.61643 0.5167 0.3232 0.0
H2721 H 0.65583 0.48441 0.35847 0.0
H2722 H 0.63676 0.45551 0.35371 0.0
H2723 H 0.6112 0.43865 0.33659 0.0
H2724 H 0.57159 0.47031 0.30116 0.0
H2725 H 0.58826 0.50028 0.30908 0.0
C2726 C 0.62062 0.50341 0.33013 0.0
C2727 C 0.63766 0.50266 0.341 0.0
C2728 C 0.60966 0.48671 0.32715 0.0
C2729 C 0.64286 0.48537 0.34995 0.0
C2730 C 0.632 0.4688 0.34717 0.0
C2731 C 0.60605 0.45216 0.33081 0.0
C2732 C 0.59037 0.45229 0.31812 0.0
C2733 C 0.61574 0.46919 0.33533 0.0
C2734 C 0.58366 0.46988 0.31094 0.0
C2735 C 0.59326 0.48697 0.31539 0.0
H2736 H 0.21774 0.82533 0.92327 0.0
H2737 H 0.17605 0.8659 0.90208 0.0
H2738 H 0.2011 0.8834 0.8852 0.0
H2739 H 0.2351 0.88985 0.88024 0.0
H2740 H 0.2775 0.85075 0.90267 0.0
H2741 H 0.25205 0.82984 0.91486 0.0
C2742 C 0.21417 0.83775 0.9146 0.0
C2743 C 0.19516 0.84448 0.91412 0.0
C2744 C 0.2288 0.84812 0.90526 0.0
C2745 C 0.19065 0.86061 0.90289 0.0
C2746 C 0.20496 0.87064 0.89321 0.0
C2747 C 0.23879 0.87653 0.88742 0.0
C2748 C 0.25812 0.87197 0.89073 0.0
C2749 C 0.22414 0.86494 0.89487 0.0
C2750 C 0.26268 0.85462 0.89997 0.0
C2751 C 0.24813 0.84272 0.90708 0.0
H2752 H 0.36663 0.93233 0.16943 0.0
H2753 H 0.42255 0.95884 0.17 0.0
H2754 H 0.40832 0.98921 0.15921 0.0
H2755 H 0.37924 0.00896 0.15289 0.0
H2756 H 0.32353 0.98209 0.15513 0.0
H2757 H 0.33841 0.95104 0.16132 0.0
C2758 C 0.3758 0.94466 0.167 0.0
C2759 C 0.39559 0.94339 0.17066 0.0
C2760 C 0.36749 0.96204 0.16133 0.0
C2761 C 0.40725 0.95949 0.16733 0.0
C2762 C 0.3991 0.97685 0.16122 0.0
C2763 C 0.37048 0.99618 0.15434 0.0
C2764 C 0.35036 0.99769 0.15355 0.0
C2765 C 0.37914 0.97842 0.15862 0.0
C2766 C 0.33905 0.98119 0.15573 0.0
C2767 C 0.34754 0.96347 0.15932 0.0
H2768 H 0.12765 0.05947 0.70146 0.0
H2769 H 0.07522 0.04308 0.67294 0.0
H2770 H 0.09115 0.01441 0.66002 0.0
H2771 H 0.12036 0.99416 0.65688 0.0
H2772 H 0.17204 0.01099 0.68665 0.0
H2773 H 0.15603 0.03949 0.69891 0.0
C2774 C 0.11965 0.04965 0.69241 0.0
C2775 C 0.10032 0.05339 0.68809 0.0
C2776 C 0.12882 0.03334 0.68519 0.0
C2777 C 0.09012 0.04045 0.67649 0.0
C2778 C 0.09925 0.02413 0.66907 0.0
C2779 C 0.12809 0.00417 0.66596 0.0
C2780 C 0.14737 0.00054 0.6708 0.0
C2781 C 0.11866 0.02047 0.67327 0.0
C2782 C 0.15719 0.01346 0.68274 0.0
C2783 C 0.14806 0.02976 0.68977 0.0
H2784 H 0.10535 0.12967 0.31818 0.0
H2785 H 0.07193 0.09634 0.35824 0.0
H2786 H 0.10107 0.0802 0.36933 0.0
H2787 H 0.13627 0.07924 0.37093 0.0
H2788 H 0.16964 0.1149 0.33287 0.0
H2789 H 0.14026 0.12641 0.31758 0.0
C2790 C 0.10437 0.11855 0.32902 0.0
C2791 C 0.08657 0.1143 0.33751 0.0
C2792 C 0.12121 0.10999 0.33588 0.0
C2793 C 0.08551 0.0999 0.35156 0.0
C2794 C 0.10217 0.09077 0.35798 0.0
C2795 C 0.13711 0.08926 0.35905 0.0
C2796 C 0.15503 0.09639 0.35314 0.0
C2797 C 0.12015 0.09627 0.35077 0.0
C2798 C 0.15596 0.10936 0.33776 0.0
C2799 C 0.13918 0.11595 0.32904 0.0
H2800 H 0.12977 0.86458 0.57476 0.0
H2801 H 0.1712 0.82841 0.60326 0.0
H2802 H 0.18763 0.85672 0.61575 0.0
H2803 H 0.18698 0.89106 0.62269 0.0
H2804 H 0.14398 0.92703 0.59637 0.0
H2805 H 0.13158 0.89949 0.57855 0.0
C2806 C 0.14264 0.86291 0.58336 0.0
C2807 C 0.14912 0.84448 0.58835 0.0
C2808 C 0.15159 0.87919 0.59101 0.0
C2809 C 0.16584 0.84249 0.59942 0.0
C2810 C 0.1752 0.85865 0.6066 0.0
C2811 C 0.17515 0.89296 0.61275 0.0
C2812 C 0.16618 0.91094 0.61106 0.0
C2813 C 0.1677 0.87699 0.60314 0.0
C2814 C 0.15099 0.91326 0.59802 0.0
C2815 C 0.14385 0.89751 0.58792 0.0
H2816 H 0.36486 0.92255 0.87404 0.0
H2817 H 0.33141 0.88866 0.83447 0.0
H2818 H 0.36081 0.87703 0.8193 0.0
H2819 H 0.39577 0.8735 0.81994 0.0
H2820 H 0.42918 0.90548 0.86111 0.0
H2821 H 0.40003 0.92109 0.87287 0.0
C2822 C 0.36401 0.91289 0.86187 0.0
C2823 C 0.34604 0.90633 0.85545 0.0
C2824 C 0.38095 0.90582 0.85363 0.0
C2825 C 0.34511 0.8938 0.83972 0.0
C2826 C 0.3619 0.88712 0.83108 0.0
C2827 C 0.39672 0.88415 0.83126 0.0
C2828 C 0.41454 0.88824 0.83977 0.0
C2829 C 0.37988 0.89257 0.83832 0.0
C2830 C 0.41558 0.90203 0.85442 0.0
C2831 C 0.39892 0.9109 0.86117 0.0
H2832 H 0.3395 0.16549 0.10342 0.0
H2833 H 0.3738 0.1353 0.06166 0.0
H2834 H 0.36112 0.1047 0.07304 0.0
H2835 H 0.34398 0.08647 0.09797 0.0
H2836 H 0.31022 0.11687 0.14006 0.0
H2837 H 0.31884 0.14738 0.12533 0.0
C2838 C 0.34387 0.15224 0.09654 0.0
C2839 C 0.35776 0.15262 0.08195 0.0
C2840 C 0.33682 0.13469 0.10339 0.0
C2841 C 0.36318 0.13537 0.07301 0.0
C2842 C 0.35604 0.11785 0.0796 0.0
C2843 C 0.33825 0.09976 0.10369 0.0
C2844 C 0.32677 0.09944 0.12026 0.0
C2845 C 0.34344 0.11731 0.09527 0.0
C2846 C 0.31926 0.11674 0.12741 0.0
C2847 C 0.32421 0.13421 0.11903 0.0
H2848 H 0.13631 0.92977 0.11984 0.0
H2849 H 0.16983 0.89538 0.15895 0.0
H2850 H 0.14044 0.8822 0.1728 0.0
H2851 H 0.10568 0.87733 0.17076 0.0
H2852 H 0.0722 0.9108 0.13083 0.0
H2853 H 0.10115 0.92769 0.12048 0.0
C2854 C 0.13717 0.91965 0.13163 0.0
C2855 C 0.15518 0.91333 0.13819 0.0
C2856 C 0.12026 0.91185 0.13923 0.0
C2857 C 0.15611 0.90035 0.15357 0.0
C2858 C 0.13933 0.89275 0.16143 0.0
C2859 C 0.10467 0.88854 0.16 0.0
C2860 C 0.08692 0.89263 0.15134 0.0
C2861 C 0.12138 0.8979 0.1539 0.0
C2862 C 0.08575 0.90732 0.13761 0.0
C2863 C 0.1023 0.91692 0.13164 0.0
H2864 H 0.36739 0.8569 0.42448 0.0
H2865 H 0.32828 0.8284 0.38583 0.0
H2866 H 0.3161 0.85945 0.37498 0.0
H2867 H 0.31953 0.89442 0.37365 0.0
H2868 H 0.35964 0.92282 0.41135 0.0
H2869 H 0.36834 0.892 0.42562 0.0
C2870 C 0.35598 0.85748 0.4139 0.0
C2871 C 0.34891 0.84044 0.40575 0.0
C2872 C 0.34937 0.87532 0.40747 0.0
C2873 C 0.33403 0.84136 0.39221 0.0
C2874 C 0.32712 0.85909 0.38595 0.0
C2875 C 0.32997 0.89389 0.38519 0.0
C2876 C 0.33914 0.91079 0.39127 0.0
C2877 C 0.33515 0.87613 0.39304 0.0
C2878 C 0.35249 0.90996 0.40635 0.0
C2879 C 0.35751 0.89235 0.41446 0.0
H2880 H 0.42552 0.08829 0.63581 0.0
H2881 H 0.39753 0.11983 0.68116 0.0
H2882 H 0.36684 0.10535 0.67272 0.0
H2883 H 0.34737 0.08741 0.6496 0.0
H2884 H 0.37515 0.05602 0.60405 0.0
H2885 H 0.40654 0.06647 0.61563 0.0
C2886 C 0.41276 0.09169 0.64406 0.0
C2887 C 0.41369 0.10535 0.65882 0.0
C2888 C 0.3951 0.08347 0.639 0.0
C2889 C 0.39713 0.10948 0.66958 0.0
C2890 C 0.37955 0.10126 0.66473 0.0
C2891 C 0.36033 0.08257 0.64245 0.0
C2892 C 0.35899 0.07129 0.62584 0.0
C2893 C 0.37827 0.08881 0.64902 0.0
C2894 C 0.37584 0.06486 0.61682 0.0
C2895 C 0.39379 0.0709 0.62336 0.0
H2896 H 0.17073 0.10459 0.8851 0.0
H2897 H 0.13365 0.06851 0.91911 0.0
H2898 H 0.12019 0.09682 0.93482 0.0
H2899 H 0.11563 0.13168 0.93522 0.0
H2900 H 0.15088 0.16764 0.8992 0.0
H2901 H 0.16862 0.13951 0.88811 0.0
C2902 C 0.16 0.10289 0.89625 0.0
C2903 C 0.15301 0.08454 0.9008 0.0
C2904 C 0.15187 0.11923 0.90469 0.0
C2905 C 0.13914 0.08253 0.91528 0.0
C2906 C 0.13139 0.09871 0.9242 0.0
C2907 C 0.12747 0.1334 0.92526 0.0
C2908 C 0.13182 0.15164 0.91785 0.0
C2909 C 0.13713 0.11713 0.91847 0.0
C2910 C 0.14718 0.15369 0.90497 0.0
C2911 C 0.15727 0.13762 0.89859 0.0
H2912 H 0.05636 0.37294 0.14622 0.0
H2913 H 0.09534 0.33609 0.17719 0.0
H2914 H 0.10342 0.31936 0.14747 0.0
H2915 H 0.10297 0.31854 0.11244 0.0
H2916 H 0.06616 0.35725 0.0811 0.0
H2917 H 0.0533 0.36968 0.11129 0.0
C2918 C 0.06633 0.36099 0.14652 0.0
C2919 C 0.07544 0.35588 0.16379 0.0
C2920 C 0.07137 0.35189 0.12931 0.0
C2921 C 0.0883 0.34038 0.16401 0.0
C2922 C 0.09294 0.33085 0.14703 0.0
C2923 C 0.09182 0.3294 0.11218 0.0
C2924 C 0.08568 0.33715 0.0946 0.0
C2925 C 0.0851 0.33697 0.12953 0.0
C2926 C 0.07119 0.35115 0.09448 0.0
C2927 C 0.06393 0.35833 0.11173 0.0
H2928 H 0.63191 0.18034 0.88725 0.0
H2929 H 0.59225 0.14825 0.92232 0.0
H2930 H 0.5771 0.13516 0.89351 0.0
H2931 H 0.5781 0.12959 0.85878 0.0
H2932 H 0.6195 0.1598 0.82402 0.0
H2933 H 0.63095 0.17704 0.85232 0.0
C2934 C 0.61969 0.1708 0.88859 0.0
C2935 C 0.61329 0.16512 0.90685 0.0
C2936 C 0.61156 0.16282 0.87203 0.0
C2937 C 0.59747 0.15274 0.90839 0.0
C2938 C 0.58888 0.14518 0.89194 0.0
C2939 C 0.58942 0.14017 0.85735 0.0
C2940 C 0.59811 0.14329 0.83942 0.0
C2941 C 0.59627 0.1496 0.87374 0.0
C2942 C 0.61272 0.15705 0.83773 0.0
C2943 C 0.61928 0.16688 0.8539 0.0
H2944 H 0.91355 0.83862 0.33268 0.0
H2945 H 0.94017 0.88335 0.36619 0.0
H2946 H 0.92738 0.8693 0.39559 0.0
H2947 H 0.90447 0.84742 0.41098 0.0
H2948 H 0.8771 0.80326 0.37732 0.0
H2949 H 0.89462 0.81373 0.34888 0.0
C2950 C 0.91689 0.84504 0.34646 0.0
C2951 C 0.92747 0.86217 0.34725 0.0
C2952 C 0.90919 0.83709 0.36328 0.0
C2953 C 0.93189 0.87024 0.36519 0.0
C2954 C 0.92451 0.86227 0.38202 0.0
C2955 C 0.90268 0.83982 0.39752 0.0
C2956 C 0.88927 0.82483 0.39616 0.0
C2957 C 0.9125 0.84616 0.38113 0.0
C2958 C 0.88722 0.81497 0.37869 0.0
C2959 C 0.89716 0.82101 0.36239 0.0
H2960 H 0.9304 0.12444 0.13626 0.0
H2961 H 0.90041 0.16689 0.1699 0.0
H2962 H 0.8917 0.18419 0.14072 0.0
H2963 H 0.88845 0.18441 0.10585 0.0
H2964 H 0.91596 0.14047 0.07203 0.0
H2965 H 0.93025 0.12685 0.10105 0.0
C2966 C 0.9223 0.13769 0.1372 0.0
C2967 C 0.91582 0.14427 0.15513 0.0
C2968 C 0.91683 0.14722 0.12033 0.0
C2969 C 0.90536 0.16145 0.1562 0.0
C2970 C 0.90037 0.17133 0.13954 0.0
C2971 C 0.89795 0.17213 0.10476 0.0
C2972 C 0.90096 0.1633 0.08689 0.0
C2973 C 0.9054 0.16394 0.12152 0.0
C2974 C 0.91334 0.14745 0.08567 0.0
C2975 C 0.9214 0.13958 0.10226 0.0
H2976 H 0.42736 0.6331 0.64281 0.0
H2977 H 0.39194 0.67082 0.67681 0.0
H2978 H 0.37928 0.68554 0.64761 0.0
H2979 H 0.37453 0.68396 0.61278 0.0
H2980 H 0.4082 0.6445 0.57897 0.0
H2981 H 0.42547 0.63431 0.60773 0.0
C2982 C 0.41722 0.64486 0.64384 0.0
C2983 C 0.4104 0.65071 0.66191 0.0
C2984 C 0.40949 0.65273 0.62702 0.0
C2985 C 0.39731 0.66599 0.66304 0.0
C2986 C 0.38998 0.67432 0.64635 0.0
C2987 C 0.3859 0.6734 0.61165 0.0
C2988 C 0.3899 0.66477 0.59385 0.0
C2989 C 0.39536 0.66722 0.6283 0.0
C2990 C 0.40474 0.65121 0.59256 0.0
C2991 C 0.41458 0.64535 0.609 0.0
H2992 H 0.09524 0.66354 0.32903 0.0
H2993 H 0.05195 0.62867 0.35631 0.0
H2994 H 0.05952 0.643 0.38729 0.0
H2995 H 0.08257 0.66062 0.40719 0.0
H2996 H 0.12643 0.69487 0.38007 0.0
H2997 H 0.11426 0.68593 0.34849 0.0
C2998 C 0.08712 0.65948 0.34167 0.0
C2999 C 0.07342 0.64476 0.34049 0.0
C3000 C 0.09183 0.66747 0.35953 0.0
C3001 C 0.06279 0.63979 0.35691 0.0
C3002 C 0.06717 0.64791 0.37466 0.0
C3003 C 0.08915 0.6665 0.39437 0.0
C3004 C 0.10562 0.67799 0.39591 0.0
C3005 C 0.08232 0.66101 0.37626 0.0
C3006 C 0.11384 0.6858 0.37923 0.0
C3007 C 0.10696 0.68061 0.36115 0.0
H3008 H 0.42882 0.38282 0.85992 0.0
H3009 H 0.39224 0.34905 0.8231 0.0
H3010 H 0.3806 0.33107 0.85087 0.0
H3011 H 0.37789 0.32783 0.88579 0.0
H3012 H 0.41278 0.36324 0.92272 0.0
H3013 H 0.42825 0.37753 0.89468 0.0
C3014 C 0.41854 0.3713 0.85793 0.0
C3015 C 0.41124 0.36737 0.83954 0.0
C3016 C 0.41153 0.36143 0.87399 0.0
C3017 C 0.39797 0.35241 0.83715 0.0
C3018 C 0.39127 0.34217 0.85302 0.0
C3019 C 0.38915 0.33841 0.88771 0.0
C3020 C 0.39409 0.34461 0.90626 0.0
C3021 C 0.39752 0.34698 0.87155 0.0
C3022 C 0.40867 0.35833 0.90855 0.0
C3023 C 0.41746 0.36655 0.89254 0.0
H3024 H 0.91546 0.90754 0.63891 0.0
H3025 H 0.88632 0.87053 0.67911 0.0
H3026 H 0.85533 0.88206 0.6677 0.0
H3027 H 0.83666 0.89907 0.64321 0.0
H3028 H 0.86568 0.93588 0.60278 0.0
H3029 H 0.89654 0.92818 0.6175 0.0
C3030 C 0.90233 0.90232 0.64544 0.0
C3031 C 0.90314 0.88798 0.65955 0.0
C3032 C 0.88453 0.90878 0.63861 0.0
C3033 C 0.88605 0.88146 0.66807 0.0
C3034 C 0.86831 0.88796 0.66149 0.0
C3035 C 0.84973 0.90563 0.63784 0.0
C3036 C 0.849 0.91771 0.62176 0.0
C3037 C 0.8674 0.90104 0.64626 0.0
C3038 C 0.86594 0.92638 0.61508 0.0
C3039 C 0.88359 0.92195 0.62344 0.0
H3040 H 0.81836 0.10883 0.37079 0.0
H3041 H 0.85105 0.07083 0.40716 0.0
H3042 H 0.86311 0.09829 0.42534 0.0
H3043 H 0.86759 0.13303 0.428 0.0
H3044 H 0.83696 0.17099 0.38984 0.0
H3045 H 0.82069 0.14355 0.37528 0.0
C3046 C 0.82781 0.10653 0.38296 0.0
C3047 C 0.83396 0.0879 0.38758 0.0
C3048 C 0.83522 0.12237 0.39282 0.0
C3049 C 0.84623 0.08509 0.4033 0.0
C3050 C 0.85318 0.10077 0.41363 0.0
C3051 C 0.85712 0.13531 0.41671 0.0
C3052 C 0.8536 0.15393 0.40983 0.0
C3053 C 0.84829 0.11948 0.40807 0.0
C3054 C 0.84 0.15673 0.39523 0.0
C3055 C 0.83073 0.14107 0.38691 0.0
H3056 H 0.64626 0.07706 0.12078 0.0
H3057 H 0.67659 0.10908 0.16427 0.0
H3058 H 0.64605 0.11915 0.17834 0.0
H3059 H 0.61113 0.12216 0.1756 0.0
H3060 H 0.58102 0.09173 0.13084 0.0
H3061 H 0.61118 0.07746 0.12005 0.0
C3062 C 0.6462 0.086 0.13352 0.0
C3063 C 0.66359 0.09257 0.14134 0.0
C3064 C 0.62867 0.09211 0.14118 0.0
C3065 C 0.66334 0.10399 0.15792 0.0
C3066 C 0.64591 0.10979 0.16592 0.0
C3067 C 0.61112 0.11214 0.16369 0.0
C3068 C 0.59397 0.10817 0.15385 0.0
C3069 C 0.62853 0.10445 0.15726 0.0
C3070 C 0.59411 0.09511 0.13852 0.0
C3071 C 0.61133 0.087 0.13232 0.0
H3072 H 0.62751 0.86369 0.92966 0.0
H3073 H 0.6671 0.82632 0.90019 0.0
H3074 H 0.68356 0.8541 0.88657 0.0
H3075 H 0.68319 0.88831 0.87894 0.0
H3076 H 0.64169 0.92544 0.90601 0.0
H3077 H 0.62968 0.89851 0.92499 0.0
C3078 C 0.64003 0.86166 0.92064 0.0
C3079 C 0.64598 0.84304 0.91572 0.0
C3080 C 0.64892 0.87765 0.91228 0.0
C3081 C 0.66218 0.84056 0.904 0.0
C3082 C 0.67154 0.85642 0.89618 0.0
C3083 C 0.67181 0.89061 0.88931 0.0
C3084 C 0.66314 0.90873 0.8909 0.0
C3085 C 0.66451 0.87495 0.89957 0.0
C3086 C 0.64847 0.91155 0.90443 0.0
C3087 C 0.64155 0.89614 0.91521 0.0
H3088 H 0.83008 0.09777 0.84754 0.0
H3089 H 0.86153 0.05455 0.87882 0.0
H3090 H 0.89151 0.06567 0.86452 0.0
H3091 H 0.90908 0.09047 0.84678 0.0
H3092 H 0.8777 0.13446 0.81655 0.0
H3093 H 0.84737 0.12014 0.82666 0.0
C3094 C 0.84345 0.09053 0.85092 0.0
C3095 C 0.84366 0.07557 0.86441 0.0
C3096 C 0.86066 0.09731 0.84304 0.0
C3097 C 0.86104 0.06623 0.86857 0.0
C3098 C 0.8782 0.07263 0.86048 0.0
C3099 C 0.8956 0.09674 0.84217 0.0
C3100 C 0.89559 0.11365 0.83122 0.0
C3101 C 0.87824 0.08862 0.84828 0.0
C3102 C 0.87805 0.12153 0.82515 0.0
C3103 C 0.86071 0.11338 0.83095 0.0
H3104 H 0.63668 0.13737 0.5641 0.0
H3105 H 0.67278 0.17148 0.60108 0.0
H3106 H 0.68793 0.14239 0.61346 0.0
H3107 H 0.68662 0.10753 0.61786 0.0
H3108 H 0.64824 0.07367 0.58301 0.0
H3109 H 0.63845 0.10239 0.56549 0.0
C3110 C 0.64821 0.13847 0.57452 0.0
C3111 C 0.65342 0.15648 0.58191 0.0
C3112 C 0.65623 0.12171 0.58214 0.0
C3113 C 0.66841 0.15773 0.59532 0.0
C3114 C 0.677 0.14111 0.60247 0.0
C3115 C 0.67646 0.10638 0.60612 0.0
C3116 C 0.66792 0.08861 0.6019 0.0
C3117 C 0.67037 0.12303 0.59664 0.0
C3118 C 0.65483 0.08727 0.58664 0.0
C3119 C 0.64919 0.10368 0.57667 0.0
H3120 H 0.63417 0.92824 0.37004 0.0
H3121 H 0.66421 0.8947 0.32753 0.0
H3122 H 0.63368 0.8852 0.31319 0.0
H3123 H 0.59889 0.88239 0.31598 0.0
H3124 H 0.56881 0.91357 0.36023 0.0
H3125 H 0.59894 0.92842 0.37041 0.0
C3126 C 0.63403 0.91918 0.35739 0.0
C3127 C 0.65134 0.91194 0.34999 0.0
C3128 C 0.61644 0.91326 0.34965 0.0
C3129 C 0.65101 0.90027 0.33358 0.0
C3130 C 0.63358 0.89481 0.32541 0.0
C3131 C 0.59884 0.89275 0.3276 0.0
C3132 C 0.58175 0.89667 0.33756 0.0
C3133 C 0.61624 0.90059 0.33382 0.0
C3134 C 0.58185 0.91022 0.35245 0.0
C3135 C 0.59908 0.91862 0.35834 0.0
H3136 H 0.85624 0.8588 0.07726 0.0
H3137 H 0.82362 0.82449 0.11717 0.0
H3138 H 0.81 0.85356 0.13131 0.0
H3139 H 0.81182 0.88845 0.13574 0.0
H3140 H 0.84663 0.92239 0.09739 0.0
H3141 H 0.85479 0.89372 0.07902 0.0
C3142 C 0.84584 0.85766 0.08879 0.0
C3143 C 0.84118 0.8396 0.09642 0.0
C3144 C 0.83867 0.87437 0.09726 0.0
C3145 C 0.82754 0.83829 0.11119 0.0
C3146 C 0.81985 0.85489 0.11934 0.0
C3147 C 0.82084 0.88961 0.12311 0.0
C3148 C 0.82889 0.90739 0.11806 0.0
C3149 C 0.82598 0.87299 0.11303 0.0
C3150 C 0.84048 0.90878 0.10165 0.0
C3151 C 0.84517 0.8924 0.09118 0.0
H3152 H 0.92709 0.64286 0.85559 0.0
H3153 H 0.88775 0.6751 0.82026 0.0
H3154 H 0.87566 0.69177 0.84862 0.0
H3155 H 0.87241 0.6928 0.88355 0.0
H3156 H 0.90964 0.65823 0.91897 0.0
H3157 H 0.92672 0.64709 0.89045 0.0
C3158 C 0.91619 0.65386 0.85404 0.0
C3159 C 0.90807 0.65755 0.83596 0.0
C3160 C 0.9088 0.66279 0.87045 0.0
C3161 C 0.89405 0.67189 0.83411 0.0
C3162 C 0.88709 0.68136 0.85031 0.0
C3163 C 0.88456 0.68319 0.88507 0.0
C3164 C 0.88958 0.67608 0.90325 0.0
C3165 C 0.89375 0.67627 0.86861 0.0
C3166 C 0.9054 0.66373 0.90506 0.0
C3167 C 0.9151 0.65729 0.88876 0.0
H3168 H 0.3729 0.8153 0.10868 0.0
H3169 H 0.40477 0.8531 0.07141 0.0
H3170 H 0.42096 0.86712 0.09919 0.0
H3171 H 0.42226 0.87187 0.13406 0.0
H3172 H 0.38835 0.83574 0.1712 0.0
H3173 H 0.37686 0.81767 0.14346 0.0
C3174 C 0.38371 0.8263 0.10659 0.0
C3175 C 0.38749 0.83333 0.08807 0.0
C3176 C 0.39238 0.83476 0.12263 0.0
C3177 C 0.40154 0.84756 0.08557 0.0
C3178 C 0.41071 0.85564 0.10144 0.0
C3179 C 0.41265 0.8598 0.1361 0.0
C3180 C 0.40595 0.85527 0.15458 0.0
C3181 C 0.40566 0.84988 0.12006 0.0
C3182 C 0.39354 0.8396 0.15706 0.0
C3183 C 0.38695 0.82929 0.14122 0.0
H3184 H 0.1326 0.17184 0.61571 0.0
H3185 H 0.10393 0.13044 0.57969 0.0
H3186 H 0.08488 0.11957 0.60704 0.0
H3187 H 0.07942 0.11915 0.64172 0.0
H3188 H 0.10974 0.159 0.67815 0.0
H3189 H 0.12498 0.17337 0.65001 0.0
C3190 C 0.12194 0.16068 0.61378 0.0
C3191 C 0.11977 0.15181 0.5958 0.0
C3192 C 0.11149 0.15413 0.62965 0.0
C3193 C 0.10592 0.13738 0.59346 0.0
C3194 C 0.09508 0.13112 0.60908 0.0
C3195 C 0.08912 0.13119 0.64348 0.0
C3196 C 0.09364 0.13789 0.66195 0.0
C3197 C 0.09821 0.13898 0.62734 0.0
C3198 C 0.10617 0.15352 0.66405 0.0
C3199 C 0.11491 0.1617 0.64799 0.0
H3200 H 0.12269 0.81313 0.88923 0.0
H3201 H 0.09618 0.85686 0.92416 0.0
H3202 H 0.07894 0.86902 0.89616 0.0
H3203 H 0.07513 0.86998 0.86122 0.0
H3204 H 0.10329 0.82748 0.82607 0.0
H3205 H 0.11602 0.8119 0.85478 0.0
C3206 C 0.11285 0.82509 0.8908 0.0
C3207 C 0.11089 0.83427 0.90864 0.0
C3208 C 0.10347 0.83234 0.87457 0.0
C3209 C 0.09802 0.84966 0.91051 0.0
C3210 C 0.08824 0.85667 0.8945 0.0
C3211 C 0.08378 0.85711 0.85986 0.0
C3212 C 0.08852 0.85002 0.84159 0.0
C3213 C 0.09143 0.84856 0.87636 0.0
C3214 C 0.09961 0.83328 0.84001 0.0
C3215 C 0.10692 0.82441 0.8564 0.0
H3216 H 0.56265 0.38244 0.36223 0.0
H3217 H 0.59668 0.34368 0.32796 0.0
H3218 H 0.60748 0.32721 0.35692 0.0
H3219 H 0.61084 0.32691 0.39183 0.0
H3220 H 0.57857 0.36704 0.4262 0.0
H3221 H 0.56314 0.37964 0.39734 0.0
C3222 C 0.57215 0.37016 0.3611 0.0
C3223 C 0.57911 0.36444 0.34306 0.0
C3224 C 0.57869 0.3611 0.37782 0.0
C3225 C 0.59131 0.34847 0.34174 0.0
C3226 C 0.59751 0.33907 0.35828 0.0
C3227 C 0.60013 0.33813 0.39305 0.0
C3228 C 0.59603 0.34623 0.41104 0.0
C3229 C 0.59184 0.34571 0.37639 0.0
C3230 C 0.58206 0.36068 0.41245 0.0
C3231 C 0.57331 0.36796 0.39596 0.0
H3232 H 0.90039 0.34558 0.58407 0.0
H3233 H 0.86748 0.30589 0.61837 0.0
H3234 H 0.8846 0.31614 0.64712 0.0
H3235 H 0.90502 0.33992 0.66301 0.0
H3236 H 0.9371 0.38041 0.62887 0.0
H3237 H 0.92451 0.36603 0.59953 0.0
C3238 C 0.89725 0.33891 0.59778 0.0
C3239 C 0.88246 0.32532 0.5992 0.0
C3240 C 0.90688 0.34512 0.6143 0.0
C3241 C 0.87868 0.31658 0.61697 0.0
C3242 C 0.88841 0.32247 0.63343 0.0
C3243 C 0.90958 0.34531 0.64913 0.0
C3244 C 0.92163 0.36141 0.64807 0.0
C3245 C 0.90195 0.33728 0.63236 0.0
C3246 C 0.92765 0.36813 0.63004 0.0
C3247 C 0.92038 0.35999 0.61326 0.0
H3248 H 0.6196 0.67539 0.11031 0.0
H3249 H 0.58059 0.6427 0.07507 0.0
H3250 H 0.56267 0.63296 0.1036 0.0
H3251 H 0.56174 0.62925 0.13853 0.0
H3252 H 0.60299 0.65913 0.17371 0.0
H3253 H 0.61613 0.67489 0.14526 0.0
C3254 C 0.60692 0.66649 0.10884 0.0
C3255 C 0.60156 0.65952 0.09069 0.0
C3256 C 0.59719 0.66036 0.12533 0.0
C3257 C 0.58509 0.64805 0.08895 0.0
C3258 C 0.57488 0.64246 0.10525 0.0
C3259 C 0.57322 0.63966 0.14003 0.0
C3260 C 0.58154 0.64292 0.1581 0.0
C3261 C 0.58131 0.64786 0.12355 0.0
C3262 C 0.59646 0.65633 0.15987 0.0
C3263 C 0.60405 0.66523 0.14362 0.0
H3264 H 0.66826 0.60217 0.84182 0.0
H3265 H 0.64316 0.55609 0.87465 0.0
H3266 H 0.61137 0.56438 0.86247 0.0
H3267 H 0.59035 0.58778 0.84652 0.0
H3268 H 0.6155 0.63448 0.8146 0.0
H3269 H 0.64759 0.62272 0.82213 0.0
C3270 C 0.65588 0.59369 0.84598 0.0
C3271 C 0.65798 0.57877 0.85935 0.0
C3272 C 0.63761 0.59878 0.83924 0.0
C3273 C 0.64187 0.56777 0.86449 0.0
C3274 C 0.62367 0.57255 0.8576 0.0
C3275 C 0.60286 0.59512 0.84088 0.0
C3276 C 0.60058 0.61214 0.83032 0.0
C3277 C 0.62129 0.58851 0.84558 0.0
C3278 C 0.61689 0.62145 0.82295 0.0
C3279 C 0.63526 0.61478 0.8273 0.0
H3280 H 0.67867 0.38967 0.12122 0.0
H3281 H 0.64195 0.42498 0.08602 0.0
H3282 H 0.63101 0.39662 0.06859 0.0
H3283 H 0.62775 0.3617 0.06736 0.0
H3284 H 0.66229 0.3263 0.10463 0.0
H3285 H 0.67853 0.35478 0.117 0.0
C3286 C 0.66863 0.3912 0.10943 0.0
C3287 C 0.66089 0.4093 0.10508 0.0
C3288 C 0.66187 0.37479 0.09999 0.0
C3289 C 0.64794 0.41113 0.08975 0.0
C3290 C 0.64163 0.39492 0.07983 0.0
C3291 C 0.63918 0.36018 0.07783 0.0
C3292 C 0.64364 0.342 0.0853 0.0
C3293 C 0.64786 0.37663 0.08542 0.0
C3294 C 0.65849 0.3402 0.09881 0.0
C3295 C 0.66771 0.35648 0.10595 0.0
H3296 H 0.86223 0.42506 0.38894 0.0
H3297 H 0.83195 0.39391 0.3448 0.0
H3298 H 0.86244 0.38271 0.33157 0.0
H3299 H 0.89705 0.37821 0.33538 0.0
H3300 H 0.92713 0.40748 0.38091 0.0
H3301 H 0.89734 0.42329 0.3906 0.0
C3302 C 0.86232 0.41611 0.37621 0.0
C3303 C 0.8449 0.41009 0.36798 0.0
C3304 C 0.87983 0.40929 0.36905 0.0
C3305 C 0.8452 0.39858 0.35146 0.0
C3306 C 0.86261 0.39214 0.34394 0.0
C3307 C 0.89717 0.38833 0.3472 0.0
C3308 C 0.91418 0.3915 0.35759 0.0
C3309 C 0.87993 0.39685 0.35304 0.0
C3310 C 0.91416 0.40472 0.37279 0.0
C3311 C 0.89713 0.41368 0.37838 0.0
H3312 H 0.86795 0.63957 0.56295 0.0
H3313 H 0.83347 0.67522 0.60002 0.0
H3314 H 0.81799 0.64672 0.61333 0.0
H3315 H 0.81799 0.61181 0.61782 0.0
H3316 H 0.85381 0.57629 0.58189 0.0
H3317 H 0.8649 0.60465 0.56457 0.0
C3318 C 0.85676 0.64113 0.57366 0.0
C3319 C 0.85206 0.65941 0.58073 0.0
C3320 C 0.84836 0.62471 0.58161 0.0
C3321 C 0.83742 0.66126 0.59446 0.0
C3322 C 0.82865 0.64497 0.60215 0.0
C3323 C 0.82796 0.61025 0.60597 0.0
C3324 C 0.83534 0.59206 0.60134 0.0
C3325 C 0.83459 0.62663 0.59638 0.0
C3326 C 0.84808 0.59019 0.58584 0.0
C3327 C 0.85447 0.60639 0.57597 0.0
H3328 H 0.581 0.40355 0.65445 0.0
H3329 H 0.60746 0.35805 0.68708 0.0
H3330 H 0.63916 0.37105 0.68008 0.0
H3331 H 0.65933 0.39247 0.66088 0.0
H3332 H 0.633 0.43755 0.62761 0.0
H3333 H 0.60133 0.42782 0.63896 0.0
C3334 C 0.59369 0.39671 0.66032 0.0
C3335 C 0.59194 0.3797 0.67094 0.0
C3336 C 0.61192 0.40409 0.656 0.0
C3337 C 0.60847 0.37107 0.67865 0.0
C3338 C 0.62661 0.37845 0.67463 0.0
C3339 C 0.64669 0.4004 0.65643 0.0
C3340 C 0.64843 0.41545 0.64319 0.0
C3341 C 0.62852 0.39452 0.66272 0.0
C3342 C 0.63199 0.42577 0.63769 0.0
C3343 C 0.61386 0.42017 0.64409 0.0
H3344 H 0.88468 0.3671 0.93019 0.0
H3345 H 0.85092 0.32953 0.89438 0.0
H3346 H 0.83382 0.35712 0.88116 0.0
H3347 H 0.83195 0.39188 0.87639 0.0
H3348 H 0.86743 0.42948 0.91046 0.0
H3349 H 0.88014 0.40192 0.92802 0.0
C3350 C 0.8733 0.36493 0.91979 0.0
C3351 C 0.86922 0.34636 0.91308 0.0
C3352 C 0.86397 0.38088 0.91183 0.0
C3353 C 0.85443 0.34373 0.89963 0.0
C3354 C 0.84469 0.35949 0.89203 0.0
C3355 C 0.84214 0.39408 0.88795 0.0
C3356 C 0.84893 0.41264 0.89199 0.0
C3357 C 0.84986 0.37815 0.8975 0.0
C3358 C 0.8621 0.41529 0.90701 0.0
C3359 C 0.86944 0.39954 0.91698 0.0
H3360 H 0.91487 0.58589 0.13847 0.0
H3361 H 0.88785 0.61871 0.18349 0.0
H3362 H 0.85656 0.60601 0.17441 0.0
H3363 H 0.83651 0.58984 0.1505 0.0
H3364 H 0.86331 0.55783 0.10479 0.0
H3365 H 0.89499 0.56567 0.11749 0.0
C3366 C 0.90219 0.58988 0.14657 0.0
C3367 C 0.9036 0.60347 0.16137 0.0
C3368 C 0.88415 0.58286 0.141 0.0
C3369 C 0.88709 0.60844 0.17186 0.0
C3370 C 0.86917 0.60125 0.16664 0.0
C3371 C 0.84928 0.58426 0.14356 0.0
C3372 C 0.84761 0.57361 0.12656 0.0
C3373 C 0.86745 0.58912 0.15072 0.0
C3374 C 0.86424 0.56625 0.11782 0.0
C3375 C 0.88238 0.57079 0.12502 0.0
H3376 H 0.65754 0.66254 0.38367 0.0
H3377 H 0.60936 0.63554 0.41167 0.0
H3378 H 0.62063 0.60407 0.40132 0.0
H3379 H 0.64287 0.58445 0.38236 0.0
H3380 H 0.69136 0.61128 0.35474 0.0
H3381 H 0.68142 0.64251 0.36709 0.0
C3382 C 0.64962 0.64974 0.38761 0.0
C3383 C 0.63257 0.65135 0.39822 0.0
C3384 C 0.65621 0.63166 0.38167 0.0
C3385 C 0.62252 0.63466 0.40343 0.0
C3386 C 0.62892 0.61666 0.3975 0.0
C3387 C 0.65138 0.59711 0.37925 0.0
C3388 C 0.6677 0.59561 0.36754 0.0
C3389 C 0.64556 0.61502 0.38634 0.0
C3390 C 0.67869 0.61208 0.36372 0.0
C3391 C 0.67298 0.62996 0.37069 0.0
H3392 H 0.58171 0.8745 0.63182 0.0
H3393 H 0.60994 0.83197 0.66685 0.0
H3394 H 0.62315 0.81679 0.63814 0.0
H3395 H 0.62969 0.81796 0.60362 0.0
H3396 H 0.60324 0.86182 0.56883 0.0
H3397 H 0.58612 0.87403 0.59689 0.0
C3398 C 0.59045 0.86169 0.63313 0.0
C3399 C 0.59498 0.85442 0.65138 0.0
C3400 C 0.59845 0.85341 0.61663 0.0
C3401 C 0.60637 0.83787 0.65292 0.0
C3402 C 0.61396 0.82923 0.63653 0.0
C3403 C 0.61994 0.83 0.60212 0.0
C3404 C 0.61784 0.83909 0.58425 0.0
C3405 C 0.61058 0.83724 0.61838 0.0
C3406 C 0.60517 0.85466 0.58249 0.0
C3407 C 0.59542 0.86167 0.59853 0.0
H3408 H 0.34884 0.41351 0.1239 0.0
H3409 H 0.31906 0.37669 0.16381 0.0
H3410 H 0.34968 0.36723 0.17814 0.0
H3411 H 0.38483 0.36676 0.17681 0.0
H3412 H 0.41451 0.40202 0.13543 0.0
H3413 H 0.38388 0.41499 0.12428 0.0
C3414 C 0.34902 0.40361 0.13591 0.0
C3415 C 0.33179 0.39563 0.14269 0.0
C3416 C 0.36662 0.3979 0.1437 0.0
C3417 C 0.33219 0.38291 0.15829 0.0
C3418 C 0.34967 0.37747 0.16644 0.0
C3419 C 0.38461 0.37752 0.16556 0.0
C3420 C 0.40183 0.38333 0.15681 0.0
C3421 C 0.36698 0.38447 0.15889 0.0
C3422 C 0.40138 0.39726 0.14228 0.0
C3423 C 0.3839 0.40463 0.13587 0.0
H3424 H 0.37047 0.63706 0.93208 0.0
H3425 H 0.3404 0.67595 0.89443 0.0
H3426 H 0.32145 0.64931 0.88173 0.0
H3427 H 0.3172 0.61457 0.87786 0.0
H3428 H 0.34937 0.57562 0.91368 0.0
H3429 H 0.36361 0.60271 0.93074 0.0
C3430 C 0.35947 0.63978 0.9214 0.0
C3431 C 0.35697 0.65837 0.91402 0.0
C3432 C 0.3492 0.62434 0.91368 0.0
C3433 C 0.34265 0.66171 0.90023 0.0
C3434 C 0.3319 0.64648 0.8929 0.0
C3435 C 0.32702 0.61202 0.88968 0.0
C3436 C 0.33243 0.59318 0.89438 0.0
C3437 C 0.33562 0.62765 0.89897 0.0
C3438 C 0.34514 0.59004 0.9097 0.0
C3439 C 0.35331 0.60551 0.91942 0.0
H3440 H 0.15991 0.60026 0.6457 0.0
H3441 H 0.13204 0.56131 0.60648 0.0
H3442 H 0.10093 0.56874 0.62076 0.0
H3443 H 0.08139 0.58985 0.64109 0.0
H3444 H 0.10934 0.62925 0.67983 0.0
H3445 H 0.14068 0.61779 0.66934 0.0
C3446 C 0.14706 0.59317 0.64052 0.0
C3447 C 0.14816 0.58058 0.62486 0.0
C3448 C 0.12922 0.59766 0.64864 0.0
C3449 C 0.13149 0.57123 0.61843 0.0
C3450 C 0.11369 0.5755 0.62654 0.0
C3451 C 0.09434 0.5956 0.64754 0.0
C3452 C 0.09309 0.6106 0.66091 0.0
C3453 C 0.11233 0.58922 0.64117 0.0
C3454 C 0.10995 0.61781 0.66932 0.0
C3455 C 0.12789 0.61135 0.66327 0.0
H3456 H 0.17783 0.39166 0.38315 0.0
H3457 H 0.1392 0.42083 0.42181 0.0
H3458 H 0.13162 0.39043 0.43748 0.0
H3459 H 0.13267 0.35534 0.43717 0.0
H3460 H 0.17012 0.32603 0.3975 0.0
H3461 H 0.18172 0.35682 0.38539 0.0
C3462 C 0.16799 0.39141 0.39522 0.0
C3463 C 0.15883 0.40836 0.40114 0.0
C3464 C 0.16339 0.37387 0.40384 0.0
C3465 C 0.14629 0.4079 0.4169 0.0
C3466 C 0.1419 0.39053 0.42581 0.0
C3467 C 0.14361 0.35569 0.4261 0.0
C3468 C 0.15033 0.33851 0.418 0.0
C3469 C 0.14985 0.37338 0.41894 0.0
C3470 C 0.16463 0.33912 0.40382 0.0
C3471 C 0.1712 0.3567 0.39686 0.0
H3472 H 0.35796 0.5665 0.37503 0.0
H3473 H 0.32616 0.59921 0.33314 0.0
H3474 H 0.35591 0.60691 0.3163 0.0
H3475 H 0.39085 0.60937 0.31725 0.0
H3476 H 0.42273 0.57943 0.36109 0.0
H3477 H 0.39306 0.56505 0.37304 0.0
C3478 C 0.35751 0.57496 0.36198 0.0
C3479 C 0.34 0.58263 0.35553 0.0
C3480 C 0.3747 0.57989 0.35279 0.0
C3481 C 0.33955 0.5934 0.33852 0.0
C3482 C 0.35654 0.59782 0.32891 0.0
C3483 C 0.39139 0.59927 0.32908 0.0
C3484 C 0.40885 0.59576 0.33855 0.0
C3485 C 0.37423 0.5919 0.33646 0.0
C3486 C 0.40939 0.5825 0.35371 0.0
C3487 C 0.39242 0.57442 0.36065 0.0
H3488 H 0.17415 0.60277 0.12223 0.0
H3489 H 0.13281 0.56784 0.09215 0.0
H3490 H 0.12181 0.5959 0.07424 0.0
H3491 H 0.12131 0.63075 0.07016 0.0
H3492 H 0.16091 0.66602 0.10212 0.0
H3493 H 0.17552 0.63734 0.11607 0.0
C3494 C 0.16295 0.60125 0.11153 0.0
C3495 C 0.15414 0.58336 0.10862 0.0
C3496 C 0.15635 0.6175 0.10173 0.0
C3497 C 0.13967 0.58154 0.09472 0.0
C3498 C 0.13337 0.59756 0.08451 0.0
C3499 C 0.13339 0.63214 0.07989 0.0
C3500 C 0.13995 0.65042 0.08526 0.0
C3501 C 0.14122 0.61569 0.08833 0.0
C3502 C 0.15557 0.65206 0.09788 0.0
C3503 C 0.16386 0.63569 0.10591 0.0
H3504 H 0.16705 0.39496 0.84643 0.0
H3505 H 0.13492 0.43223 0.88403 0.0
H3506 H 0.10498 0.42186 0.86924 0.0
H3507 H 0.08778 0.39934 0.8485 0.0
H3508 H 0.11967 0.36153 0.81128 0.0
H3509 H 0.14983 0.37514 0.82285 0.0
C3510 C 0.15352 0.40105 0.85113 0.0
C3511 C 0.15316 0.4141 0.86647 0.0
C3512 C 0.13629 0.3948 0.84276 0.0
C3513 C 0.13555 0.422 0.87235 0.0
C3514 C 0.11841 0.41605 0.86395 0.0
C3515 C 0.10132 0.3943 0.84271 0.0
C3516 C 0.10154 0.37929 0.8293 0.0
C3517 C 0.11858 0.402 0.84959 0.0
C3518 C 0.11916 0.37301 0.82174 0.0
C3519 C 0.13641 0.38073 0.82839 0.0
H3520 H 0.31944 0.39353 0.62156 0.0
H3521 H 0.35761 0.42313 0.5828 0.0
H3522 H 0.36661 0.39263 0.56807 0.0
H3523 H 0.36701 0.35761 0.56941 0.0
H3524 H 0.33075 0.32788 0.60987 0.0
H3525 H 0.31725 0.35846 0.62048 0.0
C3526 C 0.32948 0.39334 0.60967 0.0
C3527 C 0.33808 0.41047 0.60343 0.0
C3528 C 0.33497 0.37574 0.60167 0.0
C3529 C 0.35097 0.41006 0.58796 0.0
C3530 C 0.35613 0.39265 0.57956 0.0
C3531 C 0.35586 0.35777 0.58027 0.0
C3532 C 0.35004 0.34058 0.58904 0.0
C3533 C 0.34873 0.37538 0.58677 0.0
C3534 C 0.33553 0.34098 0.60301 0.0
C3535 C 0.3279 0.35845 0.60915 0.0
H3536 H 0.43606 0.13122 0.36412 0.0
H3537 H 0.40294 0.16628 0.32528 0.0
H3538 H 0.38839 0.18298 0.35246 0.0
H3539 H 0.38113 0.18357 0.38687 0.0
H3540 H 0.41213 0.1463 0.42539 0.0
H3541 H 0.43172 0.13469 0.39875 0.0
C3542 C 0.42599 0.14283 0.36159 0.0
C3543 C 0.42033 0.14734 0.34279 0.0
C3544 C 0.41715 0.15179 0.37725 0.0
C3545 C 0.40736 0.16244 0.33968 0.0
C3546 C 0.39898 0.17192 0.35521 0.0
C3547 C 0.39249 0.17325 0.3895 0.0
C3548 C 0.39505 0.16558 0.40796 0.0
C3549 C 0.40315 0.16611 0.37402 0.0
C3550 C 0.4098 0.15225 0.41122 0.0
C3551 C 0.42094 0.14556 0.396 0.0
H3552 H 0.01729 0.11638 0.28267 0.0
H3553 H 0.00955 0.17741 0.27628 0.0
H3554 H 0.98733 0.17201 0.2496 0.0
H3555 H 0.96777 0.14977 0.23035 0.0
H3556 H 0.97622 0.08875 0.23632 0.0
H3557 H 0.00076 0.0943 0.26073 0.0
C3558 C 0.01089 0.12849 0.27527 0.0
C3559 C 0.01478 0.14724 0.28154 0.0
C3560 C 0.99825 0.12527 0.25994 0.0
C3561 C 0.00668 0.16284 0.27171 0.0
C3562 C 0.99394 0.15976 0.25652 0.0
C3563 C 0.97522 0.13771 0.23679 0.0
C3564 C 0.97006 0.11888 0.23174 0.0
C3565 C 0.98927 0.14101 0.25084 0.0
C3566 C 0.97993 0.10338 0.24001 0.0
C3567 C 0.99387 0.10654 0.25405 0.0
H3568 H 0.15608 0.7329 0.4817 0.0
H3569 H 0.0959 0.72239 0.47166 0.0
H3570 H 0.08735 0.74746 0.49453 0.0
H3571 H 0.0969 0.76959 0.52019 0.0
H3572 H 0.15701 0.77844 0.53199 0.0
H3573 H 0.16566 0.75714 0.50554 0.0
C3574 C 0.14112 0.73638 0.48428 0.0
C3575 C 0.12665 0.72574 0.47515 0.0
C3576 C 0.13628 0.75046 0.49789 0.0
C3577 C 0.10731 0.73029 0.47867 0.0
C3578 C 0.10239 0.74461 0.49175 0.0
C3579 C 0.11188 0.76718 0.51668 0.0
C3580 C 0.12629 0.77547 0.52804 0.0
C3581 C 0.11674 0.75439 0.50188 0.0
C3582 C 0.14565 0.77211 0.52347 0.0
C3583 C 0.15061 0.75988 0.5084 0.0
H3584 H 0.53402 0.84863 0.72575 0.0
H3585 H 0.52321 0.90957 0.72511 0.0
H3586 H 0.49731 0.90544 0.74836 0.0
H3587 H 0.48083 0.88512 0.77195 0.0
H3588 H 0.49219 0.82429 0.77318 0.0
H3589 H 0.51459 0.82773 0.74643 0.0
C3590 C 0.52575 0.86096 0.73042 0.0
C3591 C 0.53069 0.87941 0.72394 0.0
C3592 C 0.5111 0.85852 0.74404 0.0
C3593 C 0.51976 0.89523 0.72998 0.0
C3594 C 0.50501 0.89289 0.74335 0.0
C3595 C 0.48796 0.87257 0.76614 0.0
C3596 C 0.48509 0.85453 0.77469 0.0
C3597 C 0.50102 0.8747 0.75096 0.0
C3598 C 0.49426 0.83836 0.76691 0.0
C3599 C 0.50713 0.84033 0.75167 0.0
H3600 H 0.34764 0.27001 0.98045 0.0
H3601 H 0.40643 0.28847 0.97474 0.0
H3602 H 0.41682 0.26316 0.99668 0.0
H3603 H 0.4087 0.23816 0.02034 0.0
H3604 H 0.34953 0.2217 0.02793 0.0
H3605 H 0.33981 0.24359 0.00237 0.0
C3606 C 0.36276 0.26822 0.98371 0.0
C3607 C 0.37624 0.28108 0.97604 0.0
C3608 C 0.36854 0.25407 0.99686 0.0
C3609 C 0.39577 0.27875 0.98054 0.0
C3610 C 0.40172 0.26432 0.99313 0.0
C3611 C 0.39375 0.23913 0.01611 0.0
C3612 C 0.37984 0.22841 0.02602 0.0
C3613 C 0.38817 0.25225 0.00181 0.0
C3614 C 0.36048 0.22991 0.02057 0.0
C3615 C 0.3549 0.24244 0.00597 0.0
H3616 H 0.98482 0.85726 0.27239 0.0
H3617 H 0.98987 0.91861 0.26594 0.0
H3618 H 0.01194 0.91418 0.23909 0.0
H3619 H 0.02576 0.89293 0.21458 0.0
H3620 H 0.02041 0.8316 0.22075 0.0
H3621 H 0.00264 0.83595 0.25068 0.0
C3622 C 0.99111 0.86966 0.2654 0.0
C3623 C 0.9855 0.88823 0.27095 0.0
C3624 C 0.0035 0.867 0.24974 0.0
C3625 C 0.99389 0.90416 0.26189 0.0
C3626 C 0.0064 0.90164 0.24643 0.0
C3627 C 0.02097 0.88052 0.22266 0.0
C3628 C 0.02407 0.86199 0.21534 0.0
C3629 C 0.01066 0.88314 0.23976 0.0
C3630 C 0.01807 0.84602 0.22605 0.0
C3631 C 0.00785 0.8485 0.24312 0.0
H3632 H 0.39537 0.76287 0.47592 0.0
H3633 H 0.33519 0.77267 0.46513 0.0
H3634 H 0.32677 0.75337 0.49314 0.0
H3635 H 0.33639 0.73015 0.51789 0.0
H3636 H 0.3965 0.71857 0.52706 0.0
H3637 H 0.40509 0.74235 0.50281 0.0
C3638 C 0.38044 0.76108 0.47992 0.0
C3639 C 0.36593 0.76899 0.46837 0.0
C3640 C 0.37568 0.74954 0.49573 0.0
C3641 C 0.34663 0.76657 0.47371 0.0
C3642 C 0.34179 0.75551 0.48971 0.0
C3643 C 0.35137 0.73323 0.51493 0.0
C3644 C 0.3658 0.7226 0.52414 0.0
C3645 C 0.35617 0.7464 0.50044 0.0
C3646 C 0.38515 0.72655 0.52006 0.0
C3647 C 0.39006 0.74007 0.50613 0.0
H3648 H 0.49039 0.15358 0.7257 0.0
H3649 H 0.4827 0.09445 0.70915 0.0
H3650 H 0.50384 0.08414 0.73509 0.0
H3651 H 0.52762 0.09221 0.75976 0.0
H3652 H 0.53688 0.15145 0.775 0.0
H3653 H 0.51185 0.16141 0.75257 0.0
C3654 C 0.49307 0.13843 0.72802 0.0
C3655 C 0.48518 0.12482 0.71544 0.0
C3656 C 0.50565 0.13263 0.74266 0.0
C3657 C 0.48876 0.10522 0.71857 0.0
C3658 C 0.50088 0.09931 0.73338 0.0
C3659 C 0.52387 0.10725 0.75845 0.0
C3660 C 0.53417 0.12108 0.76886 0.0
C3661 C 0.50988 0.11292 0.74511 0.0
C3662 C 0.52922 0.14054 0.76701 0.0
C3663 C 0.51496 0.14626 0.75414 0.0
H3664 H 0.07657 0.23095 0.98125 0.0
H3665 H 0.13663 0.22048 0.97064 0.0
H3666 H 0.14538 0.24377 0.99533 0.0
H3667 H 0.13597 0.26978 0.01718 0.0
H3668 H 0.07595 0.28238 0.0255 0.0
H3669 H 0.06713 0.25556 0.00471 0.0
C3670 C 0.09154 0.2335 0.98467 0.0
C3671 C 0.10594 0.22408 0.97419 0.0
C3672 C 0.09647 0.24746 0.99835 0.0
C3673 C 0.12531 0.22765 0.97852 0.0
C3674 C 0.13032 0.24099 0.99259 0.0
C3675 C 0.12097 0.26639 0.01472 0.0
C3676 C 0.10663 0.27802 0.02277 0.0
C3677 C 0.11603 0.25139 0.0022 0.0
C3678 C 0.08724 0.27364 0.01934 0.0
C3679 C 0.08219 0.25834 0.00744 0.0
H3680 H 0.2708 0.02977 0.11363 0.0
H3681 H 0.26361 0.02135 0.17454 0.0
H3682 H 0.23835 0.99779 0.16849 0.0
H3683 H 0.22195 0.97627 0.14584 0.0
H3684 H 0.22971 0.98433 0.08494 0.0
H3685 H 0.25092 0.01153 0.09103 0.0
C3686 C 0.26342 0.02307 0.12559 0.0
C3687 C 0.26924 0.02705 0.14449 0.0
C3688 C 0.24917 0.00932 0.12199 0.0
C3689 C 0.25943 0.01845 0.15985 0.0
C3690 C 0.24508 0.00488 0.1564 0.0
C3691 C 0.22799 0.98422 0.13391 0.0
C3692 C 0.22454 0.97812 0.11499 0.0
C3693 C 0.24038 -0.00032 0.13752 0.0
C3694 C 0.23227 0.98867 0.09965 0.0
C3695 C 0.24447 0.00417 0.10312 0.0
H3696 H 0.23433 0.02542 0.40096 0.0
H3697 H 0.22752 0.03987 0.34114 0.0
H3698 H 0.24979 0.01435 0.33219 0.0
H3699 H 0.27428 0.99082 0.34167 0.0
H3700 H 0.28242 0.97778 0.40164 0.0
H3701 H 0.25637 -0.00042 0.41019 0.0
C3702 C 0.23746 0.02275 0.38594 0.0
C3703 C 0.22948 0.03463 0.37175 0.0
C3704 C 0.25063 0.00837 0.38093 0.0
C3705 C 0.23362 0.031 0.35235 0.0
C3706 C 0.24638 0.01643 0.34722 0.0
C3707 C 0.27005 0.99244 0.35656 0.0
C3708 C 0.28034 0.98286 0.37101 0.0
C3709 C 0.25544 0.00544 0.36142 0.0
C3710 C 0.27477 0.98512 0.39026 0.0
C3711 C 0.25993 0.99764 0.39517 0.0
H3712 H 0.22127 0.97537 0.60852 0.0
H3713 H 0.23979 0.97481 0.66757 0.0
H3714 H 0.26767 0.99448 0.6592 0.0
H3715 H 0.28445 0.01484 0.63575 0.0
H3716 H 0.26565 0.01538 0.57674 0.0
H3717 H 0.24034 0.9924 0.58438 0.0
C3718 C 0.23156 0.97935 0.6195 0.0
C3719 C 0.22839 0.97394 0.63866 0.0
C3720 C 0.24742 0.99069 0.6146 0.0
C3721 C 0.24193 0.9789 0.65273 0.0
C3722 C 0.2578 0.9902 0.64797 0.0
C3723 C 0.27502 0.00966 0.6245 0.0
C3724 C 0.27673 0.01697 0.60577 0.0
C3725 C 0.26037 0.99663 0.62905 0.0
C3726 C 0.26456 0.01002 0.59129 0.0
C3727 C 0.25002 0.99697 0.59566 0.0
H3728 H 0.22528 0.01197 0.849 0.0
H3729 H 0.20764 0.01372 0.90831 0.0
H3730 H 0.23406 0.99245 0.91708 0.0
H3731 H 0.25991 0.97062 0.9074 0.0
H3732 H 0.27624 0.96711 0.84781 0.0
H3733 H 0.25284 0.99193 0.83968 0.0
C3734 C 0.22745 0.00795 0.86388 0.0
C3735 C 0.21448 0.01429 0.87797 0.0
C3736 C 0.24237 0.99528 0.86875 0.0
C3737 C 0.21737 0.00891 0.89718 0.0
C3738 C 0.23246 0.99672 0.90221 0.0
C3739 C 0.25859 0.97555 0.8927 0.0
C3740 C 0.2697 0.96699 0.87822 0.0
C3741 C 0.24471 0.98941 0.88805 0.0
C3742 C 0.26777 0.97344 0.8592 0.0
C3743 C 0.25435 0.98759 0.85453 0.0
H3744 H 0.63882 0.27762 0.02401 0.0
H3745 H 0.57894 0.262 0.02569 0.0
H3746 H 0.58413 0.23864 1e-05 0.0
H3747 H 0.60656 0.22 0.98011 0.0
H3748 H 0.66642 0.23578 0.97844 0.0
H3749 H 0.66033 0.26197 0.00093 0.0
C3750 C 0.62685 0.26932 0.01852 0.0
C3751 C 0.60859 0.27129 0.02686 0.0
C3752 C 0.62998 0.25588 0.00389 0.0
C3753 C 0.59314 0.26067 0.01949 0.0
C3754 C 0.59613 0.24725 0.0049 0.0
C3755 C 0.6182 0.22938 0.98443 0.0
C3756 C 0.63696 0.22582 0.97788 0.0
C3757 C 0.61461 0.24431 0.99745 0.0
C3758 C 0.65187 0.2382 0.98337 0.0
C3759 C 0.64842 0.25311 0.99629 0.0
H3760 H 0.01773 0.4032 0.2497 0.0
H3761 H 0.02969 0.34424 0.2354 0.0
H3762 H 0.00772 0.33341 0.26055 0.0
H3763 H 0.98802 0.34077 0.28895 0.0
H3764 H 0.97875 0.39978 0.305 0.0
H3765 H 0.9966 0.41056 0.27684 0.0
C3766 C 0.01517 0.388 0.25183 0.0
C3767 C 0.02523 0.37452 0.24077 0.0
C3768 C 0.00318 0.3819 0.26682 0.0
C3769 C 0.02207 0.35486 0.24382 0.0
C3770 C 0.00959 0.34867 0.25823 0.0
C3771 C 0.98968 0.35597 0.28606 0.0
C3772 C 0.9822 0.36947 0.29901 0.0
C3773 C 0.00051 0.36206 0.27019 0.0
C3774 C 0.98454 0.38913 0.29527 0.0
C3775 C 0.99472 0.39531 0.27918 0.0
H3776 H 0.88679 0.77246 0.46691 0.0
H3777 H 0.82577 0.7625 0.4697 0.0
H3778 H 0.83077 0.73754 0.49391 0.0
H3779 H 0.85223 0.72159 0.51704 0.0
H3780 H 0.91332 0.73103 0.51361 0.0
H3781 H 0.90862 0.75292 0.48661 0.0
C3782 C 0.87463 0.76458 0.47261 0.0
C3783 C 0.85593 0.76944 0.4668 0.0
C3784 C 0.87763 0.75025 0.48643 0.0
C3785 C 0.84029 0.759 0.47402 0.0
C3786 C 0.84314 0.74481 0.48792 0.0
C3787 C 0.86453 0.72816 0.51011 0.0
C3788 C 0.88306 0.72493 0.51742 0.0
C3789 C 0.8617 0.74076 0.49465 0.0
C3790 C 0.89891 0.73331 0.50823 0.0
C3791 C 0.89622 0.74594 0.49289 0.0
H3792 H 0.97675 0.60036 0.21672 0.0
H3793 H 0.97659 0.66173 0.22485 0.0
H3794 H -0.00065 0.65848 0.25128 0.0
H3795 H 0.02228 0.63867 0.26915 0.0
H3796 H 0.02258 0.57732 0.26129 0.0
H3797 H 0.99658 0.58004 0.23779 0.0
C3798 C 0.98144 0.61298 0.22452 0.0
C3799 C 0.97524 0.63128 0.21868 0.0
C3800 C 0.99467 0.61102 0.23958 0.0
C3801 C 0.98123 0.64749 0.22902 0.0
C3802 C 0.99433 0.64566 0.24406 0.0
C3803 C 0.01644 0.62587 0.26249 0.0
C3804 C 0.02446 0.60786 0.26665 0.0
C3805 C 0.00162 0.62758 0.24901 0.0
C3806 C 0.01663 0.59135 0.25821 0.0
C3807 C 0.00185 0.59291 0.24472 0.0
H3808 H 0.46615 0.35931 0.77193 0.0
H3809 H 0.48503 0.41823 0.77143 0.0
H3810 H 0.5107 0.41003 0.74897 0.0
H3811 H 0.52465 0.38706 0.72615 0.0
H3812 H 0.50573 0.32816 0.72657 0.0
H3813 H 0.48336 0.33532 0.75264 0.0
C3814 C 0.47613 0.37027 0.76719 0.0
C3815 C 0.47355 0.38939 0.77306 0.0
C3816 C 0.4907 0.36548 0.75415 0.0
C3817 C 0.48669 0.40342 0.76703 0.0
C3818 C 0.50129 0.39876 0.75411 0.0
C3819 C 0.51587 0.37573 0.73221 0.0
C3820 C 0.51658 0.35719 0.7243 0.0
C3821 C 0.50296 0.37999 0.74705 0.0
C3822 C 0.50537 0.34255 0.7324 0.0
C3823 C 0.4925 0.34667 0.74722 0.0
H3824 H 0.97897 0.84258 0.72883 0.0
H3825 H 0.97573 0.90181 0.71117 0.0
H3826 H 0.99677 0.9111 0.73757 0.0
H3827 H 0.01963 0.90178 0.76265 0.0
H3828 H 0.02449 0.8423 0.77899 0.0
H3829 H 0.99903 0.83378 0.75646 0.0
C3830 C 0.98258 0.85755 0.731 0.0
C3831 C 0.97604 0.87144 0.71794 0.0
C3832 C 0.99509 0.86274 0.74593 0.0
C3833 C 0.98077 0.89081 0.72093 0.0
C3834 C 0.99282 0.89614 0.73601 0.0
C3835 C 0.01477 0.88704 0.76162 0.0
C3836 C 0.02403 0.87267 0.77229 0.0
C3837 C 0.0006 0.88215 0.74817 0.0
C3838 C 0.01765 0.85361 0.7708 0.0
C3839 C 0.00316 0.8487 0.75785 0.0
H3840 H 0.83286 0.25906 0.52305 0.0
H3841 H 0.8911 0.27301 0.5386 0.0
H3842 H 0.90318 0.24814 0.51713 0.0
H3843 H 0.89738 0.226 0.49043 0.0
H3844 H 0.83925 0.21383 0.47297 0.0
H3845 H 0.82694 0.23411 0.49875 0.0
C3846 C 0.84814 0.25626 0.52209 0.0
C3847 C 0.86109 0.26787 0.53224 0.0
C3848 C 0.85503 0.24241 0.50914 0.0
C3849 C 0.88089 0.26429 0.53078 0.0
C3850 C 0.88781 0.25012 0.51846 0.0
C3851 C 0.88202 0.22745 0.49256 0.0
C3852 C 0.86925 0.21863 0.47973 0.0
C3853 C 0.87505 0.23963 0.50701 0.0
C3854 C 0.84938 0.22064 0.4826 0.0
C3855 C 0.84232 0.23228 0.4973 0.0
H3856 H 0.4874 0.09361 0.26532 0.0
H3857 H 0.47917 0.15301 0.28042 0.0
H3858 H 0.50231 0.16273 0.25594 0.0
H3859 H 0.52109 0.15463 0.22729 0.0
H3860 H 0.52716 0.09538 0.21051 0.0
H3861 H 0.50881 0.08528 0.2386 0.0
C3862 C 0.4911 0.10862 0.26358 0.0
C3863 C 0.48161 0.1226 0.27453 0.0
C3864 C 0.50377 0.11415 0.24893 0.0
C3865 C 0.4863 0.14203 0.27204 0.0
C3866 C 0.49943 0.14759 0.25799 0.0
C3867 C 0.51867 0.1395 0.22998 0.0
C3868 C 0.52524 0.12579 0.21677 0.0
C3869 C 0.50766 0.13383 0.24586 0.0
C3870 C 0.52205 0.10622 0.2204 0.0
C3871 C 0.51156 0.10043 0.23645 0.0
H3872 H 0.65815 0.72207 0.01266 0.0
H3873 H 0.59877 0.71427 0.02826 0.0
H3874 H 0.58962 0.74178 0.00863 0.0
H3875 H 0.59792 0.76543 0.98398 0.0
H3876 H 0.65682 0.77145 0.96601 0.0
H3877 H 0.6668 0.74757 0.9897 0.0
C3878 C 0.6433 0.72669 0.01203 0.0
C3879 C 0.62914 0.71617 0.02177 0.0
C3880 C 0.63803 0.74212 0.00014 0.0
C3881 C 0.60989 0.72212 0.02074 0.0
C3882 C 0.60464 0.73782 0.00951 0.0
C3883 C 0.61298 0.7618 0.98556 0.0
C3884 C 0.6266 0.77009 0.97326 0.0
C3885 C 0.6185 0.74755 0.99868 0.0
C3886 C 0.64606 0.76516 0.9753 0.0
C3887 C 0.65177 0.75147 0.98879 0.0
H3888 H 0.97818 0.15801 0.76455 0.0
H3889 H 0.96106 0.09924 0.77354 0.0
H3890 H 0.98388 0.08859 0.74919 0.0
H3891 H 0.01231 0.09551 0.72957 0.0
H3892 H 0.03078 0.15413 0.72228 0.0
H3893 H 0.00369 0.16532 0.74143 0.0
C3894 C 0.97909 0.14294 0.76081 0.0
C3895 C 0.96819 0.12941 0.771 0.0
C3896 C 0.9927 0.13685 0.74726 0.0
C3897 C 0.96948 0.10991 0.76601 0.0
C3898 C 0.98258 0.1038 0.75215 0.0
C3899 C 0.01012 0.11076 0.73178 0.0
C3900 C 0.02366 0.12395 0.7248 0.0
C3901 C 0.99485 0.11706 0.74331 0.0
C3902 C 0.02065 0.14367 0.72772 0.0
C3903 C 0.0052 0.15009 0.73872 0.0
H3904 H 0.59804 0.23404 0.5187 0.0
H3905 H 0.65843 0.22861 0.53111 0.0
H3906 H 0.66587 0.25293 0.50698 0.0
H3907 H 0.65486 0.27859 0.48537 0.0
H3908 H 0.59423 0.28582 0.4752 0.0
H3909 H 0.58723 0.25793 0.49518 0.0
C3910 C 0.61284 0.23789 0.51579 0.0
C3911 C 0.62765 0.22964 0.52667 0.0
C3912 C 0.61695 0.2524 0.50243 0.0
C3913 C 0.64677 0.23487 0.52294 0.0
C3914 C 0.65104 0.24881 0.50919 0.0
C3915 C 0.64017 0.27379 0.48725 0.0
C3916 C 0.62508 0.28427 0.47896 0.0
C3917 C 0.6362 0.25812 0.4993 0.0
C3918 C 0.60608 0.27804 0.48158 0.0
C3919 C 0.60206 0.26211 0.49302 0.0
H3920 H 0.50579 0.84393 0.27176 0.0
H3921 H 0.51645 0.90337 0.28515 0.0
H3922 H 0.49663 0.91336 0.25805 0.0
H3923 H 0.47319 0.9053 0.23306 0.0
H3924 H 0.46009 0.84598 0.22154 0.0
H3925 H 0.48407 0.83582 0.24506 0.0
C3926 C 0.50404 0.85904 0.26847 0.0
C3927 C 0.51244 0.8729 0.28044 0.0
C3928 C 0.49206 0.86471 0.25325 0.0
C3929 C 0.50997 0.89245 0.27619 0.0
C3930 C 0.49864 0.89818 0.26071 0.0
C3931 C 0.47593 0.89016 0.2354 0.0
C3932 C 0.46493 0.87641 0.22565 0.0
C3933 C 0.48916 0.88445 0.24949 0.0
C3934 C 0.4684 0.85683 0.22895 0.0
C3935 C 0.48204 0.85101 0.24245 0.0
H3936 H 0.89199 0.77154 0.0213 0.0
H3937 H 0.83212 0.77613 0.03636 0.0
H3938 H 0.82324 0.75764 0.00797 0.0
H3939 H 0.83283 0.73631 0.98159 0.0
H3940 H 0.89287 0.72941 0.96831 0.0
H3941 H 0.90134 0.75288 0.99291 0.0
C3942 C 0.87699 0.76883 0.01811 0.0
C3943 C 0.86275 0.775 0.03096 0.0
C3944 C 0.87203 0.75764 0.00211 0.0
C3945 C 0.84336 0.77135 0.02674 0.0
C3946 C 0.83827 0.76076 0.01053 0.0
C3947 C 0.84771 0.74038 0.98375 0.0
C3948 C 0.86222 0.73116 0.97326 0.0
C3949 C 0.85252 0.75326 0.99848 0.0
C3950 C 0.88147 0.73632 0.97631 0.0
C3951 C 0.88633 0.74966 0.99043 0.0
H3952 H 0.72174 0.96998 0.88732 0.0
H3953 H 0.72926 0.98 0.82675 0.0
H3954 H 0.75613 0.00165 0.83347 0.0
H3955 H 0.77465 0.02062 0.85687 0.0
H3956 H 0.76755 0.00981 0.91741 0.0
H3957 H 0.74358 0.98522 0.91042 0.0
C3958 C 0.72949 0.97669 0.8756 0.0
C3959 C 0.72344 0.97372 0.85661 0.0
C3960 C 0.74491 0.98897 0.87959 0.0
C3961 C 0.73369 0.98218 0.84149 0.0
C3962 C 0.74897 0.9946 0.84534 0.0
C3963 C 0.76813 0.01259 0.86849 0.0
C3964 C 0.77263 0.01717 0.88762 0.0
C3965 C 0.75431 0.99854 0.86436 0.0
C3966 C 0.76428 0.00655 0.90257 0.0
C3967 C 0.75047 0.99259 0.89859 0.0
H3968 H 0.77666 0.9735 0.62751 0.0
H3969 H 0.7592 0.97425 0.56809 0.0
H3970 H 0.73484 0.99839 0.57537 0.0
H3971 H 0.71637 0.01653 0.59914 0.0
H3972 H 0.73342 0.01568 0.65864 0.0
H3973 H 0.76027 0.99439 0.65079 0.0
C3974 C 0.76772 0.97918 0.6161 0.0
C3975 C 0.76956 0.97196 0.59732 0.0
C3976 C 0.7536 0.99286 0.62044 0.0
C3977 C 0.75801 0.97953 0.58266 0.0
C3978 C 0.74402 0.99326 0.58683 0.0
C3979 C 0.7261 0.01185 0.61037 0.0
C3980 C 0.72281 0.01741 0.62948 0.0
C3981 C 0.74134 -0.00042 0.60575 0.0
C3982 C 0.73564 0.0115 0.64384 0.0
C3983 C 0.75093 -0.00071 0.63936 0.0
H3984 H 0.73276 0.97595 0.39599 0.0
H3985 H 0.72056 0.96337 0.33663 0.0
H3986 H 0.74149 0.98957 0.32648 0.0
H3987 H 0.76644 0.01327 0.33442 0.0
H3988 H 0.78039 0.02397 0.39375 0.0
H3989 H 0.75545 0.0016 0.40398 0.0
C3990 C 0.73442 0.97919 0.38085 0.0
C3991 C 0.72531 0.96767 0.36708 0.0
C3992 C 0.74691 0.99389 0.37511 0.0
C3993 C 0.72758 0.97197 0.34751 0.0
C3994 C 0.73957 0.98693 0.34169 0.0
C3995 C 0.76367 0.01101 0.34957 0.0
C3996 C 0.77524 0.02011 0.36332 0.0
C3997 C 0.74978 0.99759 0.35534 0.0
C3998 C 0.77169 0.01698 0.38292 0.0
C3999 C 0.75749 0.00416 0.38878 0.0
H4000 H 0.73169 0.03389 0.15112 0.0
H4001 H 0.73684 0.02316 0.09034 0.0
H4002 H 0.75708 0.99529 0.0968 0.0
H4003 H 0.77681 0.977 0.1194 0.0
H4004 H 0.77258 0.9882 0.18013 0.0
H4005 H 0.74818 0.01273 0.17405 0.0
C4006 C 0.73696 0.02524 0.1393 0.0
C4007 C 0.73306 0.03073 0.12027 0.0
C4008 C 0.74886 0.00946 0.14312 0.0
C4009 C 0.73977 0.0193 0.10511 0.0
C4010 C 0.75141 0.00342 0.10879 0.0
C4011 C 0.7703 0.98459 0.13134 0.0
C4012 C 0.77666 0.98107 0.15016 0.0
C4013 C 0.7566 -0.00117 0.12769 0.0
C4014 C 0.76795 0.99076 0.16551 0.0
C4015 C 0.7541 0.00485 0.16202 0.0
H4016 H 0.35938 0.72124 0.9715 0.0
H4017 H 0.42004 0.73025 0.97969 0.0
H4018 H 0.41332 0.75378 0.00493 0.0
H4019 H 0.39001 0.77447 0.02175 0.0
H4020 H 0.32937 0.76443 0.01438 0.0
H4021 H 0.33622 0.7384 0.99186 0.0
C4022 C 0.37111 0.72811 0.9791 0.0
C4023 C 0.39015 0.72426 0.97368 0.0
C4024 C 0.36712 0.74151 0.99357 0.0
C4025 C 0.40527 0.73301 0.98369 0.0
C4026 C 0.40142 0.74655 0.99799 0.0
C4027 C 0.37833 0.76634 0.01543 0.0
C4028 C 0.35922 0.77147 0.01946 0.0
C4029 C 0.38239 0.75133 0.00262 0.0
C4030 C 0.34419 0.76073 0.01144 0.0
C4031 C 0.34809 0.74593 0.9985 0.0
H4032 H 0.97767 0.60532 0.76587 0.0
H4033 H 0.95823 0.66405 0.76512 0.0
H4034 H 0.98393 0.67255 0.74284 0.0
H4035 H 0.00911 0.66237 0.72042 0.0
H4036 H 0.02649 0.60303 0.71891 0.0
H4037 H 0.00468 0.59569 0.74538 0.0
C4038 C 0.97934 0.62005 0.76112 0.0
C4039 C 0.96607 0.63402 0.76699 0.0
C4040 C 0.9937 0.62467 0.74777 0.0
C4041 C 0.96824 0.65303 0.76066 0.0
C4042 C 0.9829 0.65788 0.7479 0.0
C4043 C 0.00842 0.64794 0.7262 0.0
C4044 C 0.01928 0.63324 0.71774 0.0
C4045 C 0.99531 0.6437 0.74088 0.0
C4046 C 0.01816 0.61455 0.72519 0.0
C4047 C 0.00566 0.61034 0.74026 0.0
H4048 H 0.10817 0.25481 0.48722 0.0
H4049 H 0.16657 0.27352 0.47886 0.0
H4050 H 0.17748 0.25158 0.50395 0.0
H4051 H 0.17091 0.22386 0.52497 0.0
H4052 H 0.11271 0.20369 0.5311 0.0
H4053 H 0.10121 0.22946 0.51042 0.0
C4054 C 0.12322 0.2544 0.4912 0.0
C4055 C 0.13656 0.26562 0.48112 0.0
C4056 C 0.12946 0.24128 0.50511 0.0
C4057 C 0.15604 0.26491 0.48636 0.0
C4058 C 0.1623 0.2523 0.50065 0.0
C4059 C 0.15569 0.22541 0.52207 0.0
C4060 C 0.14269 0.21186 0.52936 0.0
C4061 C 0.14923 0.23992 0.50963 0.0
C4062 C 0.12301 0.21389 0.52546 0.0
C4063 C 0.11641 0.2286 0.51363 0.0
H4064 H 0.97642 0.3547 0.71869 0.0
H4065 H 0.98833 0.41525 0.72335 0.0
H4066 H 0.01496 0.40851 0.74519 0.0
H4067 H 0.03191 0.38574 0.76607 0.0
H4068 H 0.01926 0.32527 0.7621 0.0
H4069 H 0.99604 0.33162 0.7366 0.0
C4070 C 0.98505 0.3664 0.72424 0.0
C4071 C 0.98027 0.38546 0.71966 0.0
C4072 C 0.0001 0.36243 0.73699 0.0
C4073 C 0.99168 0.40046 0.72676 0.0
C4074 C 0.00684 0.39662 0.73931 0.0
C4075 C 0.02434 0.37391 0.75937 0.0
C4076 C 0.02709 0.35509 0.76612 0.0
C4077 C 0.01076 0.37771 0.745 0.0
C4078 C 0.01731 0.3399 0.75722 0.0
C4079 C 0.00396 0.34353 0.74271 0.0
H4080 H 0.50469 0.61978 0.30271 0.0
H4081 H 0.46013 0.64047 0.26514 0.0
H4082 H 0.48048 0.63372 0.23711 0.0
H4083 H 0.5113 0.62163 0.22347 0.0
H4084 H 0.55605 0.60341 0.26224 0.0
H4085 H 0.53523 0.60936 0.28963 0.0
C4086 C 0.49939 0.62279 0.28838 0.0
C4087 C 0.48093 0.63043 0.28592 0.0
C4088 C 0.51121 0.61924 0.27257 0.0
C4089 C 0.47435 0.63458 0.26733 0.0
C4090 C 0.48594 0.63065 0.25134 0.0
C4091 C 0.51636 0.61893 0.23794 0.0
C4092 C 0.5351 0.612 0.24089 0.0
C4093 C 0.50443 0.62291 0.25379 0.0
C4094 C 0.54168 0.60879 0.25966 0.0
C4095 C 0.5298 0.61216 0.27533 0.0
H4096 H 0.52102 0.60739 0.77857 0.0
H4097 H 0.51554 0.66905 0.77788 0.0
H4098 H 0.49084 0.6668 0.75314 0.0
H4099 H 0.46832 0.64718 0.7345 0.0
H4100 H 0.47356 0.58554 0.73512 0.0
H4101 H 0.50098 0.58791 0.75695 0.0
C4102 C 0.51465 0.62035 0.77276 0.0
C4103 C 0.51993 0.63835 0.78021 0.0
C4104 C 0.5003 0.61893 0.75867 0.0
C4105 C 0.51167 0.65502 0.77245 0.0
C4106 C 0.49747 0.65374 0.75836 0.0
C4107 C 0.47563 0.63428 0.73922 0.0
C4108 C 0.46879 0.61621 0.73344 0.0
C4109 C 0.49127 0.63576 0.75181 0.0
C4110 C 0.47853 0.59962 0.73944 0.0
C4111 C 0.49415 0.60096 0.75198 0.0
H4112 H 0.8628 0.27169 0.9651 0.0
H4113 H 0.9195 0.28027 0.98849 0.0
H4114 H 0.91261 0.25729 0.01409 0.0
H4115 H 0.89193 0.23193 0.02728 0.0
H4116 H 0.8354 0.2231 0.00357 0.0
H4117 H 0.84068 0.24919 0.98075 0.0
C4118 C 0.87354 0.26878 0.976 0.0
C4119 C 0.89172 0.27747 0.97478 0.0
C4120 C 0.86956 0.25538 0.99049 0.0
C4121 C 0.90542 0.27372 0.98908 0.0
C4122 C 0.90152 0.2605 0.00366 0.0
C4123 C 0.88065 0.23593 0.01732 0.0
C4124 C 0.8634 0.22545 0.01692 0.0
C4125 C 0.88387 0.2508 0.00412 0.0
C4126 C 0.84884 0.2309 0.00409 0.0
C4127 C 0.85188 0.24575 0.99098 0.0
H4128 H 0.60564 0.72906 0.47573 0.0
H4129 H 0.66124 0.72693 0.44854 0.0
H4130 H 0.6744 0.74799 0.47322 0.0
H4131 H 0.66908 0.77021 0.50007 0.0
H4132 H 0.61328 0.77289 0.52679 0.0
H4133 H 0.60135 0.74826 0.50497 0.0
C4134 C 0.62071 0.73292 0.47541 0.0
C4135 C 0.63237 0.72666 0.4602 0.0
C4136 C 0.62813 0.74529 0.48949 0.0
C4137 C 0.65191 0.73169 0.46003 0.0
C4138 C 0.65945 0.74379 0.4741 0.0
C4139 C 0.65442 0.76513 0.50134 0.0
C4140 C 0.64203 0.77354 0.51484 0.0
C4141 C 0.64754 0.75118 0.48853 0.0
C4142 C 0.62309 0.76675 0.51641 0.0
C4143 C 0.61621 0.75271 0.50389 0.0
H4144 H 0.72818 0.48206 0.59738 0.0
H4145 H 0.72357 0.46569 0.6569 0.0
H4146 H 0.74531 0.49161 0.66599 0.0
H4147 H 0.7689 0.51605 0.65652 0.0
H4148 H 0.77511 0.53082 0.59675 0.0
H4149 H 0.74925 0.50874 0.5883 0.0
C4150 C 0.73167 0.48439 0.61236 0.0
C4151 C 0.72448 0.47186 0.62641 0.0
C4152 C 0.74456 0.49901 0.61744 0.0
C4153 C 0.72909 0.47505 0.64579 0.0
C4154 C 0.74153 0.48986 0.651 0.0
C4155 C 0.76423 0.51478 0.64172 0.0
C4156 C 0.77392 0.52492 0.62726 0.0
C4157 C 0.74983 0.50153 0.63689 0.0
C4158 C 0.76789 0.52305 0.60811 0.0
C4159 C 0.75318 0.51037 0.60326 0.0
H4160 H 0.73601 0.52685 0.85377 0.0
H4161 H 0.74266 0.52107 0.91507 0.0
H4162 H 0.76714 0.49648 0.91032 0.0
H4163 H 0.78901 0.47924 0.88882 0.0
H4164 H 0.78235 0.48446 0.82753 0.0
H4165 H 0.75532 0.50646 0.83217 0.0
C4166 C 0.74263 0.51999 0.86608 0.0
C4167 C 0.73772 0.52594 0.88475 0.0
C4168 C 0.75675 0.50586 0.86324 0.0
C4169 C 0.74625 0.51681 0.90056 0.0
C4170 C 0.7603 0.50279 0.89786 0.0
C4171 C 0.78145 0.48498 0.87648 0.0
C4172 C 0.78777 0.48046 0.85787 0.0
C4173 C 0.76603 0.49761 0.87928 0.0
C4174 C 0.77773 0.48776 0.842 0.0
C4175 C 0.76236 0.50042 0.84466 0.0
H4176 H 0.77093 0.52515 0.13635 0.0
H4177 H 0.76087 0.51909 0.07554 0.0
H4178 H 0.73566 0.49558 0.08186 0.0
H4179 H 0.71423 0.47953 0.10473 0.0
H4180 H 0.72434 0.48527 0.16552 0.0
H4181 H 0.7519 0.5061 0.15916 0.0
C4182 C 0.76343 0.51843 0.12448 0.0
C4183 C 0.76757 0.52399 0.10552 0.0
C4184 C 0.74885 0.50508 0.12822 0.0
C4185 C 0.7579 0.51507 0.09026 0.0
C4186 C 0.74341 0.50172 0.09386 0.0
C4187 C 0.72259 0.48521 0.11657 0.0
C4188 C 0.71715 0.48117 0.13556 0.0
C4189 C 0.73838 0.49708 0.11279 0.0
C4190 C 0.72825 0.4883 0.15078 0.0
C4191 C 0.74395 0.50023 0.14715 0.0
H4192 H 0.77508 0.46517 0.35362 0.0
H4193 H 0.7674 0.47971 0.4133 0.0
H4194 H 0.74687 0.50669 0.40426 0.0
H4195 H 0.72805 0.5235 0.37963 0.0
H4196 H 0.73519 0.50838 0.32001 0.0
H4197 H 0.75923 0.48442 0.32878 0.0
C4198 C 0.76916 0.47443 0.36463 0.0
C4199 C 0.77253 0.47033 0.3841 0.0
C4200 C 0.75718 0.48971 0.35934 0.0
C4201 C 0.76494 0.48254 0.39822 0.0
C4202 C 0.75313 0.4979 0.39306 0.0
C4203 C 0.73511 0.51519 0.36853 0.0
C4204 C 0.72968 0.51752 0.34923 0.0
C4205 C 0.74868 0.50124 0.3737 0.0
C4206 C 0.73905 0.50677 0.33498 0.0
C4207 C 0.75273 0.49301 0.33999 0.0
H4208 H 0.5106 0.40857 0.2647 0.0
H4209 H 0.52447 0.35057 0.28116 0.0
H4210 H 0.5006 0.33819 0.2587 0.0
H4211 H 0.47951 0.34372 0.231 0.0
H4212 H 0.46727 0.4017 0.21316 0.0
H4213 H 0.48654 0.41419 0.23957 0.0
C4214 C 0.508 0.39326 0.26373 0.0
C4215 C 0.51935 0.38049 0.27441 0.0
C4216 C 0.49475 0.38621 0.25029 0.0
C4217 C 0.51596 0.36067 0.27296 0.0
C4218 C 0.50239 0.35357 0.26005 0.0
C4219 C 0.48076 0.35908 0.23315 0.0
C4220 C 0.47222 0.37175 0.22002 0.0
C4221 C 0.49227 0.36618 0.24809 0.0
C4222 C 0.4739 0.39163 0.22297 0.0
C4223 C 0.48494 0.39881 0.23806 0.0
H4224 H 0.09598 0.72979 0.01405 0.0
H4225 H 0.15419 0.7139 0.02776 0.0
H4226 H 0.16627 0.73556 0.00298 0.0
H4227 H 0.1604 0.76227 0.9806 0.0
H4228 H 0.10224 0.78012 0.96924 0.0
H4229 H 0.09 0.75439 0.98962 0.0
C4230 C 0.11127 0.73075 0.01127 0.0
C4231 C 0.12419 0.72038 0.02273 0.0
C4232 C 0.11813 0.74379 0.99753 0.0
C4233 C 0.14398 0.72186 0.01915 0.0
C4234 C 0.1509 0.73428 0.00503 0.0
C4235 C 0.14506 0.7602 0.98227 0.0
C4236 C 0.13223 0.77306 0.97357 0.0
C4237 C 0.13814 0.74582 0.9946 0.0
C4238 C 0.11238 0.77041 0.97595 0.0
C4239 C 0.10537 0.75575 0.98761 0.0
H4240 H 0.40151 0.25965 0.52555 0.0
H4241 H 0.34251 0.27635 0.53372 0.0
H4242 H 0.33272 0.25638 0.50664 0.0
H4243 H 0.34043 0.23121 0.48314 0.0
H4244 H 0.39903 0.21227 0.47708 0.0
H4245 H 0.40953 0.23609 0.50054 0.0
C4246 C 0.3866 0.25919 0.5211 0.0
C4247 C 0.37274 0.26936 0.53158 0.0
C4248 C 0.38098 0.24709 0.50598 0.0
C4249 C 0.35341 0.26852 0.52588 0.0
C4250 C 0.3478 0.25708 0.51043 0.0
C4251 C 0.35553 0.2326 0.4867 0.0
C4252 C 0.36893 0.22002 0.4785 0.0
C4253 C 0.36137 0.24585 0.50074 0.0
C4254 C 0.38844 0.22177 0.48335 0.0
C4255 C 0.39445 0.23536 0.49677 0.0
H4256 H 0.26073 0.52273 0.4071 0.0
H4257 H 0.26675 0.53691 0.34714 0.0
H4258 H 0.24423 0.5115 0.33858 0.0
H4259 H 0.21984 0.48806 0.34846 0.0
H4260 H 0.2124 0.47536 0.40858 0.0
H4261 H 0.23862 0.4971 0.41673 0.0
C4262 C 0.25737 0.52002 0.39215 0.0
C4263 C 0.26521 0.53178 0.37781 0.0
C4264 C 0.24404 0.50571 0.38736 0.0
C4265 C 0.26075 0.52813 0.35847 0.0
C4266 C 0.24785 0.51362 0.35356 0.0
C4267 C 0.22426 0.48975 0.36329 0.0
C4268 C 0.21414 0.48028 0.37791 0.0
C4269 C 0.23896 0.50272 0.36792 0.0
C4270 C 0.21992 0.48264 0.39709 0.0
C4271 C 0.23486 0.4951 0.40177 0.0
H4272 H 0.22272 0.5034 0.16213 0.0
H4273 H 0.21749 0.52219 0.10338 0.0
H4274 H 0.24101 0.49825 0.09335 0.0
H4275 H 0.25924 0.46895 0.1006 0.0
H4276 H 0.26302 0.44918 0.15915 0.0
H4277 H 0.2441 0.47656 0.16992 0.0
C4278 C 0.2271 0.50256 0.14721 0.0
C4279 C 0.21824 0.51436 0.13349 0.0
C4280 C 0.24017 0.48837 0.14145 0.0
C4281 C 0.22402 0.51313 0.11421 0.0
C4282 C 0.23739 0.49938 0.10843 0.0
C4283 C 0.25623 0.47085 0.11575 0.0
C4284 C 0.26226 0.45693 0.12901 0.0
C4285 C 0.24496 0.48642 0.12181 0.0
C4286 C 0.25834 0.4596 0.14861 0.0
C4287 C 0.2475 0.47525 0.1548 0.0
H4288 H 0.26703 0.52848 0.89559 0.0
H4289 H 0.26026 0.52115 0.83448 0.0
H4290 H 0.23501 0.49746 0.83993 0.0
H4291 H 0.21858 0.47545 0.86203 0.0
H4292 H 0.22594 0.48223 0.92313 0.0
H4293 H 0.24702 0.50971 0.91773 0.0
C4294 C 0.25973 0.522 0.88346 0.0
C4295 C 0.2657 0.52632 0.86467 0.0
C4296 C 0.24549 0.50814 0.88671 0.0
C4297 C 0.25599 0.51799 0.84909 0.0
C4298 C 0.24164 0.50435 0.8522 0.0
C4299 C 0.2245 0.48319 0.87417 0.0
C4300 C 0.22097 0.47665 0.89294 0.0
C4301 C 0.23684 0.49877 0.87094 0.0
C4302 C 0.22853 0.48693 0.90854 0.0
C4303 C 0.24067 0.50258 0.90546 0.0
H4304 H 0.23773 0.523 0.57891 0.0
H4305 H 0.21462 0.52746 0.63615 0.0
H4306 H 0.23788 0.50395 0.64769 0.0
H4307 H 0.26735 0.48536 0.64235 0.0
H4308 H 0.29154 0.48236 0.58543 0.0
H4309 H 0.26528 0.50186 0.57293 0.0
C4310 C 0.23753 0.51848 0.5938 0.0
C4311 C 0.22462 0.52703 0.60668 0.0
C4312 C 0.25132 0.5054 0.60047 0.0
C4313 C 0.22454 0.52114 0.62598 0.0
C4314 C 0.23788 0.50776 0.63261 0.0
C4315 C 0.26668 0.48871 0.62716 0.0
C4316 C 0.28145 0.48263 0.61489 0.0
C4317 C 0.25176 0.5003 0.62013 0.0
C4318 C 0.28041 0.48705 0.59523 0.0
C4319 C 0.26541 0.49821 0.58805 0.0
loop_
_geom_bond_atom_site_label_1
_geom_bond_atom_site_label_2
_geom_bond_distance
_geom_bond_site_symmetry_2
_ccdc_geom_bond_type
In0 O1 2.294 . S
In0 O2 2.326 . S
In0 O6 2.266 . S
In0 O7 2.326 . S
In0 O8 2.266 . S
In0 O9 2.326 . S
In0 O11 2.294 . S
In0 O12 2.326 . S
O1 In0 2.294 . S
O1 C10 1.240 . S
O2 In0 2.326 . S
O2 C10 1.252 . S
C3 O6 1.252 . S
C3 O7 1.260 . S
C4 O11 1.240 . S
C4 O12 1.252 . S
C5 O8 1.252 . S
C5 O9 1.260 . S
O6 In0 2.266 . S
O6 C3 1.252 . S
O7 In0 2.326 . S
O7 C3 1.260 . S
O8 In0 2.266 . S
O8 C5 1.252 . S
O9 In0 2.326 . S
O9 C5 1.260 . S
C10 O1 1.240 . S
C10 O2 1.252 . S
O11 In0 2.294 . S
O11 C4 1.240 . S
O12 In0 2.326 . S
O12 C4 1.252 . S
In13 O14 2.294 . S
In13 O15 2.326 . S
In13 O19 2.266 . S
In13 O20 2.326 . S
In13 O21 2.266 . S
In13 O22 2.326 . S
In13 O24 2.294 . S
In13 O25 2.326 . S
O14 In13 2.294 . S
O14 C23 1.240 . S
O15 In13 2.326 . S
O15 C23 1.252 . S
C16 O19 1.252 . S
C16 O20 1.260 . S
C17 O24 1.240 . S
C17 O25 1.252 . S
C18 O21 1.252 . S
C18 O22 1.260 . S
O19 In13 2.266 . S
O19 C16 1.252 . S
O20 In13 2.326 . S
O20 C16 1.260 . S
O21 In13 2.266 . S
O21 C18 1.252 . S
O22 In13 2.326 . S
O22 C18 1.260 . S
C23 O14 1.240 . S
C23 O15 1.252 . S
O24 In13 2.294 . S
O24 C17 1.240 . S
O25 In13 2.326 . S
O25 C17 1.252 . S
In26 O27 2.294 . S
In26 O28 2.326 . S
In26 O32 2.266 . S
In26 O33 2.326 . S
In26 O34 2.266 . S
In26 O35 2.326 . S
In26 O37 2.294 . S
In26 O38 2.326 . S
O27 In26 2.294 . S
O27 C36 1.240 . S
O28 In26 2.326 . S
O28 C36 1.252 . S
C29 O32 1.252 . S
C29 O33 1.260 . S
C30 O37 1.240 . S
C30 O38 1.252 . S
C31 O34 1.252 . S
C31 O35 1.260 . S
O32 In26 2.266 . S
O32 C29 1.252 . S
O33 In26 2.326 . S
O33 C29 1.260 . S
O34 In26 2.266 . S
O34 C31 1.252 . S
O35 In26 2.326 . S
O35 C31 1.260 . S
C36 O27 1.240 . S
C36 O28 1.252 . S
O37 In26 2.294 . S
O37 C30 1.240 . S
O38 In26 2.326 . S
O38 C30 1.252 . S
In39 O40 2.294 . S
In39 O41 2.326 . S
In39 O45 2.266 . S
In39 O46 2.326 . S
In39 O47 2.266 . S
In39 O48 2.326 . S
In39 O50 2.294 . S
In39 O51 2.326 . S
O40 In39 2.294 . S
O40 C49 1.240 . S
O41 In39 2.326 . S
O41 C49 1.252 . S
C42 O45 1.252 . S
C42 O46 1.260 . S
C43 O50 1.240 . S
C43 O51 1.252 . S
C44 O47 1.252 . S
C44 O48 1.260 . S
O45 In39 2.266 . S
O45 C42 1.252 . S
O46 In39 2.326 . S
O46 C42 1.260 . S
O47 In39 2.266 . S
O47 C44 1.252 . S
O48 In39 2.326 . S
O48 C44 1.260 . S
C49 O40 1.240 . S
C49 O41 1.252 . S
O50 In39 2.294 . S
O50 C43 1.240 . S
O51 In39 2.326 . S
O51 C43 1.252 . S
In52 O53 2.294 . S
In52 O54 2.326 . S
In52 O58 2.266 . S
In52 O59 2.326 . S
In52 O60 2.266 . S
In52 O61 2.326 . S
In52 O63 2.294 . S
In52 O64 2.326 . S
O53 In52 2.294 . S
O53 C62 1.240 . S
O54 In52 2.326 . S
O54 C62 1.252 . S
C55 O58 1.252 . S
C55 O59 1.260 . S
C56 O63 1.240 . S
C56 O64 1.252 . S
C57 O60 1.252 . S
C57 O61 1.260 . S
O58 In52 2.266 . S
O58 C55 1.252 . S
O59 In52 2.326 . S
O59 C55 1.260 . S
O60 In52 2.266 . S
O60 C57 1.252 . S
O61 In52 2.326 . S
O61 C57 1.260 . S
C62 O53 1.240 . S
C62 O54 1.252 . S
O63 In52 2.294 . S
O63 C56 1.240 . S
O64 In52 2.326 . S
O64 C56 1.252 . S
In65 O66 2.294 . S
In65 O67 2.326 . S
In65 O71 2.266 . S
In65 O72 2.326 . S
In65 O73 2.266 . S
In65 O74 2.326 . S
In65 O76 2.294 . S
In65 O77 2.326 . S
O66 In65 2.294 . S
O66 C75 1.240 . S
O67 In65 2.326 . S
O67 C75 1.252 . S
C68 O71 1.252 . S
C68 O72 1.260 . S
C69 O76 1.240 . S
C69 O77 1.252 . S
C70 O73 1.252 . S
C70 O74 1.260 . S
O71 In65 2.266 . S
O71 C68 1.252 . S
O72 In65 2.326 . S
O72 C68 1.260 . S
O73 In65 2.266 . S
O73 C70 1.252 . S
O74 In65 2.326 . S
O74 C70 1.260 . S
C75 O66 1.240 . S
C75 O67 1.252 . S
O76 In65 2.294 . S
O76 C69 1.240 . S
O77 In65 2.326 . S
O77 C69 1.252 . S
In78 O79 2.294 . S
In78 O80 2.326 . S
In78 O84 2.266 . S
In78 O85 2.326 . S
In78 O86 2.266 . S
In78 O87 2.326 . S
In78 O89 2.294 . S
In78 O90 2.326 . S
O79 In78 2.294 . S
O79 C88 1.240 . S
O80 In78 2.326 . S
O80 C88 1.252 . S
C81 O84 1.252 . S
C81 O85 1.260 . S
C82 O89 1.240 . S
C82 O90 1.252 . S
C83 O86 1.252 . S
C83 O87 1.260 . S
O84 In78 2.266 . S
O84 C81 1.252 . S
O85 In78 2.326 . S
O85 C81 1.260 . S
O86 In78 2.266 . S
O86 C83 1.252 . S
O87 In78 2.326 . S
O87 C83 1.260 . S
C88 O79 1.240 . S
C88 O80 1.252 . S
O89 In78 2.294 . S
O89 C82 1.240 . S
O90 In78 2.326 . S
O90 C82 1.252 . S
In91 O92 2.294 . S
In91 O93 2.326 . S
In91 O97 2.266 . S
In91 O98 2.326 . S
In91 O99 2.266 . S
In91 O100 2.326 . S
In91 O102 2.294 . S
In91 O103 2.326 . S
O92 In91 2.294 . S
O92 C101 1.240 . S
O93 In91 2.326 . S
O93 C101 1.252 . S
C94 O97 1.252 . S
C94 O98 1.260 . S
C95 O102 1.240 . S
C95 O103 1.252 . S
C96 O99 1.252 . S
C96 O100 1.260 . S
O97 In91 2.266 . S
O97 C94 1.252 . S
O98 In91 2.326 . S
O98 C94 1.260 . S
O99 In91 2.266 . S
O99 C96 1.252 . S
O100 In91 2.326 . S
O100 C96 1.260 . S
C101 O92 1.240 . S
C101 O93 1.252 . S
O102 In91 2.294 . S
O102 C95 1.240 . S
O103 In91 2.326 . S
O103 C95 1.252 . S
In104 O105 2.294 . S
In104 O106 2.326 . S
In104 O110 2.266 . S
In104 O111 2.326 . S
In104 O112 2.266 . S
In104 O113 2.326 . S
In104 O115 2.294 . S
In104 O116 2.326 . S
O105 In104 2.294 . S
O105 C114 1.240 . S
O106 In104 2.326 . S
O106 C114 1.252 . S
C107 O110 1.252 . S
C107 O111 1.260 . S
C108 O115 1.240 . S
C108 O116 1.252 . S
C109 O112 1.252 . S
C109 O113 1.260 . S
O110 In104 2.266 . S
O110 C107 1.252 . S
O111 In104 2.326 . S
O111 C107 1.260 . S
O112 In104 2.266 . S
O112 C109 1.252 . S
O113 In104 2.326 . S
O113 C109 1.260 . S
C114 O105 1.240 . S
C114 O106 1.252 . S
O115 In104 2.294 . S
O115 C108 1.240 . S
O116 In104 2.326 . S
O116 C108 1.252 . S
In117 O118 2.294 . S
In117 O119 2.326 . S
In117 O123 2.266 . S
In117 O124 2.326 . S
In117 O125 2.266 . S
In117 O126 2.326 . S
In117 O128 2.294 . S
In117 O129 2.326 . S
O118 In117 2.294 . S
O118 C127 1.240 . S
O119 In117 2.326 . S
O119 C127 1.252 . S
C120 O123 1.252 . S
C120 O124 1.260 . S
C121 O128 1.240 . S
C121 O129 1.252 . S
C122 O125 1.252 . S
C122 O126 1.260 . S
O123 In117 2.266 . S
O123 C120 1.252 . S
O124 In117 2.326 . S
O124 C120 1.260 . S
O125 In117 2.266 . S
O125 C122 1.252 . S
O126 In117 2.326 . S
O126 C122 1.260 . S
C127 O118 1.240 . S
C127 O119 1.252 . S
O128 In117 2.294 . S
O128 C121 1.240 . S
O129 In117 2.326 . S
O129 C121 1.252 . S
In130 O131 2.294 . S
In130 O132 2.326 . S
In130 O136 2.266 . S
In130 O137 2.326 . S
In130 O138 2.266 . S
In130 O139 2.326 . S
In130 O141 2.294 . S
In130 O142 2.326 . S
O131 In130 2.294 . S
O131 C140 1.240 . S
O132 In130 2.326 . S
O132 C140 1.252 . S
C133 O136 1.252 . S
C133 O137 1.260 . S
C134 O141 1.240 . S
C134 O142 1.252 . S
C135 O138 1.252 . S
C135 O139 1.260 . S
O136 In130 2.266 . S
O136 C133 1.252 . S
O137 In130 2.326 . S
O137 C133 1.260 . S
O138 In130 2.266 . S
O138 C135 1.252 . S
O139 In130 2.326 . S
O139 C135 1.260 . S
C140 O131 1.240 . S
C140 O132 1.252 . S
O141 In130 2.294 . S
O141 C134 1.240 . S
O142 In130 2.326 . S
O142 C134 1.252 . S
In143 O144 2.294 . S
In143 O145 2.326 . S
In143 O149 2.266 . S
In143 O150 2.326 . S
In143 O151 2.266 . S
In143 O152 2.326 . S
In143 O154 2.294 . S
In143 O155 2.326 . S
O144 In143 2.294 . S
O144 C153 1.240 . S
O145 In143 2.326 . S
O145 C153 1.252 . S
C146 O149 1.252 . S
C146 O150 1.260 . S
C147 O154 1.240 . S
C147 O155 1.252 . S
C148 O151 1.252 . S
C148 O152 1.260 . S
O149 In143 2.266 . S
O149 C146 1.252 . S
O150 In143 2.326 . S
O150 C146 1.260 . S
O151 In143 2.266 . S
O151 C148 1.252 . S
O152 In143 2.326 . S
O152 C148 1.260 . S
C153 O144 1.240 . S
C153 O145 1.252 . S
O154 In143 2.294 . S
O154 C147 1.240 . S
O155 In143 2.326 . S
O155 C147 1.252 . S
In156 O157 2.294 . S
In156 O158 2.326 . S
In156 O162 2.266 . S
In156 O163 2.326 . S
In156 O164 2.266 . S
In156 O165 2.326 . S
In156 O167 2.294 . S
In156 O168 2.326 . S
O157 In156 2.294 . S
O157 C166 1.240 . S
O158 In156 2.326 . S
O158 C166 1.252 . S
C159 O162 1.252 . S
C159 O163 1.260 . S
C160 O167 1.240 . S
C160 O168 1.252 . S
C161 O164 1.252 . S
C161 O165 1.260 . S
O162 In156 2.266 . S
O162 C159 1.252 . S
O163 In156 2.326 . S
O163 C159 1.260 . S
O164 In156 2.266 . S
O164 C161 1.252 . S
O165 In156 2.326 . S
O165 C161 1.260 . S
C166 O157 1.240 . S
C166 O158 1.252 . S
O167 In156 2.294 . S
O167 C160 1.240 . S
O168 In156 2.326 . S
O168 C160 1.252 . S
In169 O170 2.294 . S
In169 O171 2.326 . S
In169 O175 2.266 . S
In169 O176 2.326 . S
In169 O177 2.266 . S
In169 O178 2.326 . S
In169 O180 2.294 . S
In169 O181 2.326 . S
O170 In169 2.294 . S
O170 C179 1.240 . S
O171 In169 2.326 . S
O171 C179 1.252 . S
C172 O175 1.252 . S
C172 O176 1.260 . S
C173 O180 1.240 . S
C173 O181 1.252 . S
C174 O177 1.252 . S
C174 O178 1.260 . S
O175 In169 2.266 . S
O175 C172 1.252 . S
O176 In169 2.326 . S
O176 C172 1.260 . S
O177 In169 2.266 . S
O177 C174 1.252 . S
O178 In169 2.326 . S
O178 C174 1.260 . S
C179 O170 1.240 . S
C179 O171 1.252 . S
O180 In169 2.294 . S
O180 C173 1.240 . S
O181 In169 2.326 . S
O181 C173 1.252 . S
In182 O183 2.294 . S
In182 O184 2.326 . S
In182 O188 2.266 . S
In182 O189 2.326 . S
In182 O190 2.266 . S
In182 O191 2.326 . S
In182 O193 2.294 . S
In182 O194 2.326 . S
O183 In182 2.294 . S
O183 C192 1.240 . S
O184 In182 2.326 . S
O184 C192 1.252 . S
C185 O188 1.252 . S
C185 O189 1.260 . S
C186 O193 1.240 . S
C186 O194 1.252 . S
C187 O190 1.252 . S
C187 O191 1.260 . S
O188 In182 2.266 . S
O188 C185 1.252 . S
O189 In182 2.326 . S
O189 C185 1.260 . S
O190 In182 2.266 . S
O190 C187 1.252 . S
O191 In182 2.326 . S
O191 C187 1.260 . S
C192 O183 1.240 . S
C192 O184 1.252 . S
O193 In182 2.294 . S
O193 C186 1.240 . S
O194 In182 2.326 . S
O194 C186 1.252 . S
In195 O196 2.294 . S
In195 O197 2.326 . S
In195 O201 2.266 . S
In195 O202 2.326 . S
In195 O203 2.266 . S
In195 O204 2.326 . S
In195 O206 2.294 . S
In195 O207 2.326 . S
O196 In195 2.294 . S
O196 C205 1.240 . S
O197 In195 2.326 . S
O197 C205 1.252 . S
C198 O201 1.252 . S
C198 O202 1.260 . S
C199 O206 1.240 . S
C199 O207 1.252 . S
C200 O203 1.252 . S
C200 O204 1.260 . S
O201 In195 2.266 . S
O201 C198 1.252 . S
O202 In195 2.326 . S
O202 C198 1.260 . S
O203 In195 2.266 . S
O203 C200 1.252 . S
O204 In195 2.326 . S
O204 C200 1.260 . S
C205 O196 1.240 . S
C205 O197 1.252 . S
O206 In195 2.294 . S
O206 C199 1.240 . S
O207 In195 2.326 . S
O207 C199 1.252 . S
In208 O209 2.294 . S
In208 O210 2.326 . S
In208 O214 2.266 . S
In208 O215 2.326 . S
In208 O216 2.266 . S
In208 O217 2.326 . S
In208 O219 2.294 . S
In208 O220 2.326 . S
O209 In208 2.294 . S
O209 C218 1.240 . S
O210 In208 2.326 . S
O210 C218 1.252 . S
C211 O214 1.252 . S
C211 O215 1.260 . S
C212 O219 1.240 . S
C212 O220 1.252 . S
C213 O216 1.252 . S
C213 O217 1.260 . S
O214 In208 2.266 . S
O214 C211 1.252 . S
O215 In208 2.326 . S
O215 C211 1.260 . S
O216 In208 2.266 . S
O216 C213 1.252 . S
O217 In208 2.326 . S
O217 C213 1.260 . S
C218 O209 1.240 . S
C218 O210 1.252 . S
O219 In208 2.294 . S
O219 C212 1.240 . S
O220 In208 2.326 . S
O220 C212 1.252 . S
In221 O222 2.294 . S
In221 O223 2.326 . S
In221 O227 2.266 . S
In221 O228 2.326 . S
In221 O229 2.266 . S
In221 O230 2.326 . S
In221 O232 2.294 . S
In221 O233 2.326 . S
O222 In221 2.294 . S
O222 C231 1.240 . S
O223 In221 2.326 . S
O223 C231 1.252 . S
C224 O227 1.252 . S
C224 O228 1.260 . S
C225 O232 1.240 . S
C225 O233 1.252 . S
C226 O229 1.252 . S
C226 O230 1.260 . S
O227 In221 2.266 . S
O227 C224 1.252 . S
O228 In221 2.326 . S
O228 C224 1.260 . S
O229 In221 2.266 . S
O229 C226 1.252 . S
O230 In221 2.326 . S
O230 C226 1.260 . S
C231 O222 1.240 . S
C231 O223 1.252 . S
O232 In221 2.294 . S
O232 C225 1.240 . S
O233 In221 2.326 . S
O233 C225 1.252 . S
In234 O235 2.294 . S
In234 O236 2.326 . S
In234 O240 2.266 . S
In234 O241 2.326 . S
In234 O242 2.266 . S
In234 O243 2.326 . S
In234 O245 2.294 . S
In234 O246 2.326 . S
O235 In234 2.294 . S
O235 C244 1.240 . S
O236 In234 2.326 . S
O236 C244 1.252 . S
C237 O240 1.252 . S
C237 O241 1.260 . S
C238 O245 1.240 . S
C238 O246 1.252 . S
C239 O242 1.252 . S
C239 O243 1.260 . S
O240 In234 2.266 . S
O240 C237 1.252 . S
O241 In234 2.326 . S
O241 C237 1.260 . S
O242 In234 2.266 . S
O242 C239 1.252 . S
O243 In234 2.326 . S
O243 C239 1.260 . S
C244 O235 1.240 . S
C244 O236 1.252 . S
O245 In234 2.294 . S
O245 C238 1.240 . S
O246 In234 2.326 . S
O246 C238 1.252 . S
In247 O248 2.294 . S
In247 O249 2.326 . S
In247 O253 2.266 . S
In247 O254 2.326 . S
In247 O255 2.266 . S
In247 O256 2.326 . S
In247 O258 2.294 . S
In247 O259 2.326 . S
O248 In247 2.294 . S
O248 C257 1.240 . S
O249 In247 2.326 . S
O249 C257 1.252 . S
C250 O253 1.252 . S
C250 O254 1.260 . S
C251 O258 1.240 . S
C251 O259 1.252 . S
C252 O255 1.252 . S
C252 O256 1.260 . S
O253 In247 2.266 . S
O253 C250 1.252 . S
O254 In247 2.326 . S
O254 C250 1.260 . S
O255 In247 2.266 . S
O255 C252 1.252 . S
O256 In247 2.326 . S
O256 C252 1.260 . S
C257 O248 1.240 . S
C257 O249 1.252 . S
O258 In247 2.294 . S
O258 C251 1.240 . S
O259 In247 2.326 . S
O259 C251 1.252 . S
In260 O261 2.294 . S
In260 O262 2.326 . S
In260 O266 2.266 . S
In260 O267 2.326 . S
In260 O268 2.266 . S
In260 O269 2.326 . S
In260 O271 2.294 . S
In260 O272 2.326 . S
O261 In260 2.294 . S
O261 C270 1.240 . S
O262 In260 2.326 . S
O262 C270 1.252 . S
C263 O266 1.252 . S
C263 O267 1.260 . S
C264 O271 1.240 . S
C264 O272 1.252 . S
C265 O268 1.252 . S
C265 O269 1.260 . S
O266 In260 2.266 . S
O266 C263 1.252 . S
O267 In260 2.326 . S
O267 C263 1.260 . S
O268 In260 2.266 . S
O268 C265 1.252 . S
O269 In260 2.326 . S
O269 C265 1.260 . S
C270 O261 1.240 . S
C270 O262 1.252 . S
O271 In260 2.294 . S
O271 C264 1.240 . S
O272 In260 2.326 . S
O272 C264 1.252 . S
In273 O274 2.294 . S
In273 O275 2.326 . S
In273 O279 2.266 . S
In273 O280 2.326 . S
In273 O281 2.266 . S
In273 O282 2.326 . S
In273 O284 2.294 . S
In273 O285 2.326 . S
O274 In273 2.294 . S
O274 C283 1.240 . S
O275 In273 2.326 . S
O275 C283 1.252 . S
C276 O279 1.252 . S
C276 O280 1.260 . S
C277 O284 1.240 . S
C277 O285 1.252 . S
C278 O281 1.252 . S
C278 O282 1.260 . S
O279 In273 2.266 . S
O279 C276 1.252 . S
O280 In273 2.326 . S
O280 C276 1.260 . S
O281 In273 2.266 . S
O281 C278 1.252 . S
O282 In273 2.326 . S
O282 C278 1.260 . S
C283 O274 1.240 . S
C283 O275 1.252 . S
O284 In273 2.294 . S
O284 C277 1.240 . S
O285 In273 2.326 . S
O285 C277 1.252 . S
In286 O287 2.294 . S
In286 O288 2.326 . S
In286 O292 2.266 . S
In286 O293 2.326 . S
In286 O294 2.266 . S
In286 O295 2.326 . S
In286 O297 2.294 . S
In286 O298 2.326 . S
O287 In286 2.294 . S
O287 C296 1.240 . S
O288 In286 2.326 . S
O288 C296 1.252 . S
C289 O292 1.252 . S
C289 O293 1.260 . S
C290 O297 1.240 . S
C290 O298 1.252 . S
C291 O294 1.252 . S
C291 O295 1.260 . S
O292 In286 2.266 . S
O292 C289 1.252 . S
O293 In286 2.326 . S
O293 C289 1.260 . S
O294 In286 2.266 . S
O294 C291 1.252 . S
O295 In286 2.326 . S
O295 C291 1.260 . S
C296 O287 1.240 . S
C296 O288 1.252 . S
O297 In286 2.294 . S
O297 C290 1.240 . S
O298 In286 2.326 . S
O298 C290 1.252 . S
In299 O300 2.294 . S
In299 O301 2.326 . S
In299 O305 2.266 . S
In299 O306 2.326 . S
In299 O307 2.266 . S
In299 O308 2.326 . S
In299 O310 2.294 . S
In299 O311 2.326 . S
O300 In299 2.294 . S
O300 C309 1.240 . S
O301 In299 2.326 . S
O301 C309 1.252 . S
C302 O305 1.252 . S
C302 O306 1.260 . S
C303 O310 1.240 . S
C303 O311 1.252 . S
C304 O307 1.252 . S
C304 O308 1.260 . S
O305 In299 2.266 . S
O305 C302 1.252 . S
O306 In299 2.326 . S
O306 C302 1.260 . S
O307 In299 2.266 . S
O307 C304 1.252 . S
O308 In299 2.326 . S
O308 C304 1.260 . S
C309 O300 1.240 . S
C309 O301 1.252 . S
O310 In299 2.294 . S
O310 C303 1.240 . S
O311 In299 2.326 . S
O311 C303 1.252 . S
In312 O313 2.294 . S
In312 O314 2.326 . S
In312 O318 2.266 . S
In312 O319 2.326 . S
In312 O320 2.266 . S
In312 O321 2.326 . S
In312 O323 2.294 . S
In312 O324 2.326 . S
O313 In312 2.294 . S
O313 C322 1.240 . S
O314 In312 2.326 . S
O314 C322 1.252 . S
C315 O318 1.252 . S
C315 O319 1.260 . S
C316 O323 1.240 . S
C316 O324 1.252 . S
C317 O320 1.252 . S
C317 O321 1.260 . S
O318 In312 2.266 . S
O318 C315 1.252 . S
O319 In312 2.326 . S
O319 C315 1.260 . S
O320 In312 2.266 . S
O320 C317 1.252 . S
O321 In312 2.326 . S
O321 C317 1.260 . S
C322 O313 1.240 . S
C322 O314 1.252 . S
O323 In312 2.294 . S
O323 C316 1.240 . S
O324 In312 2.326 . S
O324 C316 1.252 . S
In325 O326 2.294 . S
In325 O327 2.326 . S
In325 O331 2.266 . S
In325 O332 2.326 . S
In325 O333 2.266 . S
In325 O334 2.326 . S
In325 O336 2.294 . S
In325 O337 2.326 . S
O326 In325 2.294 . S
O326 C335 1.240 . S
O327 In325 2.326 . S
O327 C335 1.252 . S
C328 O331 1.252 . S
C328 O332 1.260 . S
C329 O336 1.240 . S
C329 O337 1.252 . S
C330 O333 1.252 . S
C330 O334 1.260 . S
O331 In325 2.266 . S
O331 C328 1.252 . S
O332 In325 2.326 . S
O332 C328 1.260 . S
O333 In325 2.266 . S
O333 C330 1.252 . S
O334 In325 2.326 . S
O334 C330 1.260 . S
C335 O326 1.240 . S
C335 O327 1.252 . S
O336 In325 2.294 . S
O336 C329 1.240 . S
O337 In325 2.326 . S
O337 C329 1.252 . S
In338 O339 2.294 . S
In338 O340 2.326 . S
In338 O344 2.266 . S
In338 O345 2.326 . S
In338 O346 2.266 . S
In338 O347 2.326 . S
In338 O349 2.294 . S
In338 O350 2.326 . S
O339 In338 2.294 . S
O339 C348 1.240 . S
O340 In338 2.326 . S
O340 C348 1.252 . S
C341 O344 1.252 . S
C341 O345 1.260 . S
C342 O349 1.240 . S
C342 O350 1.252 . S
C343 O346 1.252 . S
C343 O347 1.260 . S
O344 In338 2.266 . S
O344 C341 1.252 . S
O345 In338 2.326 . S
O345 C341 1.260 . S
O346 In338 2.266 . S
O346 C343 1.252 . S
O347 In338 2.326 . S
O347 C343 1.260 . S
C348 O339 1.240 . S
C348 O340 1.252 . S
O349 In338 2.294 . S
O349 C342 1.240 . S
O350 In338 2.326 . S
O350 C342 1.252 . S
In351 O352 2.294 . S
In351 O353 2.326 . S
In351 O357 2.266 . S
In351 O358 2.326 . S
In351 O359 2.266 . S
In351 O360 2.326 . S
In351 O362 2.294 . S
In351 O363 2.326 . S
O352 In351 2.294 . S
O352 C361 1.240 . S
O353 In351 2.326 . S
O353 C361 1.252 . S
C354 O357 1.252 . S
C354 O358 1.260 . S
C355 O362 1.240 . S
C355 O363 1.252 . S
C356 O359 1.252 . S
C356 O360 1.260 . S
O357 In351 2.266 . S
O357 C354 1.252 . S
O358 In351 2.326 . S
O358 C354 1.260 . S
O359 In351 2.266 . S
O359 C356 1.252 . S
O360 In351 2.326 . S
O360 C356 1.260 . S
C361 O352 1.240 . S
C361 O353 1.252 . S
O362 In351 2.294 . S
O362 C355 1.240 . S
O363 In351 2.326 . S
O363 C355 1.252 . S
In364 O365 2.294 . S
In364 O366 2.326 . S
In364 O370 2.266 . S
In364 O371 2.326 . S
In364 O372 2.266 . S
In364 O373 2.326 . S
In364 O375 2.294 . S
In364 O376 2.326 . S
O365 In364 2.294 . S
O365 C374 1.240 . S
O366 In364 2.326 . S
O366 C374 1.252 . S
C367 O370 1.252 . S
C367 O371 1.260 . S
C368 O375 1.240 . S
C368 O376 1.252 . S
C369 O372 1.252 . S
C369 O373 1.260 . S
O370 In364 2.266 . S
O370 C367 1.252 . S
O371 In364 2.326 . S
O371 C367 1.260 . S
O372 In364 2.266 . S
O372 C369 1.252 . S
O373 In364 2.326 . S
O373 C369 1.260 . S
C374 O365 1.240 . S
C374 O366 1.252 . S
O375 In364 2.294 . S
O375 C368 1.240 . S
O376 In364 2.326 . S
O376 C368 1.252 . S
In377 O378 2.294 . S
In377 O379 2.326 . S
In377 O383 2.266 . S
In377 O384 2.326 . S
In377 O385 2.266 . S
In377 O386 2.326 . S
In377 O388 2.294 . S
In377 O389 2.326 . S
O378 In377 2.294 . S
O378 C387 1.240 . S
O379 In377 2.326 . S
O379 C387 1.252 . S
C380 O383 1.252 . S
C380 O384 1.260 . S
C381 O388 1.240 . S
C381 O389 1.252 . S
C382 O385 1.252 . S
C382 O386 1.260 . S
O383 In377 2.266 . S
O383 C380 1.252 . S
O384 In377 2.326 . S
O384 C380 1.260 . S
O385 In377 2.266 . S
O385 C382 1.252 . S
O386 In377 2.326 . S
O386 C382 1.260 . S
C387 O378 1.240 . S
C387 O379 1.252 . S
O388 In377 2.294 . S
O388 C381 1.240 . S
O389 In377 2.326 . S
O389 C381 1.252 . S
In390 O391 2.294 . S
In390 O392 2.326 . S
In390 O396 2.266 . S
In390 O397 2.326 . S
In390 O398 2.266 . S
In390 O399 2.326 . S
In390 O401 2.294 . S
In390 O402 2.326 . S
O391 In390 2.294 . S
O391 C400 1.240 . S
O392 In390 2.326 . S
O392 C400 1.252 . S
C393 O396 1.252 . S
C393 O397 1.260 . S
C394 O401 1.240 . S
C394 O402 1.252 . S
C395 O398 1.252 . S
C395 O399 1.260 . S
O396 In390 2.266 . S
O396 C393 1.252 . S
O397 In390 2.326 . S
O397 C393 1.260 . S
O398 In390 2.266 . S
O398 C395 1.252 . S
O399 In390 2.326 . S
O399 C395 1.260 . S
C400 O391 1.240 . S
C400 O392 1.252 . S
O401 In390 2.294 . S
O401 C394 1.240 . S
O402 In390 2.326 . S
O402 C394 1.252 . S
In403 O404 2.294 . S
In403 O405 2.326 . S
In403 O409 2.266 . S
In403 O410 2.326 . S
In403 O411 2.266 . S
In403 O412 2.326 . S
In403 O414 2.294 . S
In403 O415 2.326 . S
O404 In403 2.294 . S
O404 C413 1.240 . S
O405 In403 2.326 . S
O405 C413 1.252 . S
C406 O409 1.252 . S
C406 O410 1.260 . S
C407 O414 1.240 . S
C407 O415 1.252 . S
C408 O411 1.252 . S
C408 O412 1.260 . S
O409 In403 2.266 . S
O409 C406 1.252 . S
O410 In403 2.326 . S
O410 C406 1.260 . S
O411 In403 2.266 . S
O411 C408 1.252 . S
O412 In403 2.326 . S
O412 C408 1.260 . S
C413 O404 1.240 . S
C413 O405 1.252 . S
O414 In403 2.294 . S
O414 C407 1.240 . S
O415 In403 2.326 . S
O415 C407 1.252 . S
In416 O417 2.294 . S
In416 O418 2.326 . S
In416 O422 2.266 . S
In416 O423 2.326 . S
In416 O424 2.266 . S
In416 O425 2.326 . S
In416 O427 2.294 . S
In416 O428 2.326 . S
O417 In416 2.294 . S
O417 C426 1.240 . S
O418 In416 2.326 . S
O418 C426 1.252 . S
C419 O422 1.252 . S
C419 O423 1.260 . S
C420 O427 1.240 . S
C420 O428 1.252 . S
C421 O424 1.252 . S
C421 O425 1.260 . S
O422 In416 2.266 . S
O422 C419 1.252 . S
O423 In416 2.326 . S
O423 C419 1.260 . S
O424 In416 2.266 . S
O424 C421 1.252 . S
O425 In416 2.326 . S
O425 C421 1.260 . S
C426 O417 1.240 . S
C426 O418 1.252 . S
O427 In416 2.294 . S
O427 C420 1.240 . S
O428 In416 2.326 . S
O428 C420 1.252 . S
In429 O430 2.294 . S
In429 O431 2.326 . S
In429 O435 2.266 . S
In429 O436 2.326 . S
In429 O437 2.266 . S
In429 O438 2.326 . S
In429 O440 2.294 . S
In429 O441 2.326 . S
O430 In429 2.294 . S
O430 C439 1.240 . S
O431 In429 2.326 . S
O431 C439 1.252 . S
C432 O435 1.252 . S
C432 O436 1.260 . S
C433 O440 1.240 . S
C433 O441 1.252 . S
C434 O437 1.252 . S
C434 O438 1.260 . S
O435 In429 2.266 . S
O435 C432 1.252 . S
O436 In429 2.326 . S
O436 C432 1.260 . S
O437 In429 2.266 . S
O437 C434 1.252 . S
O438 In429 2.326 . S
O438 C434 1.260 . S
C439 O430 1.240 . S
C439 O431 1.252 . S
O440 In429 2.294 . S
O440 C433 1.240 . S
O441 In429 2.326 . S
O441 C433 1.252 . S
In442 O443 2.294 . S
In442 O444 2.326 . S
In442 O448 2.266 . S
In442 O449 2.326 . S
In442 O450 2.266 . S
In442 O451 2.326 . S
In442 O453 2.294 . S
In442 O454 2.326 . S
O443 In442 2.294 . S
O443 C452 1.240 . S
O444 In442 2.326 . S
O444 C452 1.252 . S
C445 O448 1.252 . S
C445 O449 1.260 . S
C446 O453 1.240 . S
C446 O454 1.252 . S
C447 O450 1.252 . S
C447 O451 1.260 . S
O448 In442 2.266 . S
O448 C445 1.252 . S
O449 In442 2.326 . S
O449 C445 1.260 . S
O450 In442 2.266 . S
O450 C447 1.252 . S
O451 In442 2.326 . S
O451 C447 1.260 . S
C452 O443 1.240 . S
C452 O444 1.252 . S
O453 In442 2.294 . S
O453 C446 1.240 . S
O454 In442 2.326 . S
O454 C446 1.252 . S
In455 O456 2.294 . S
In455 O457 2.326 . S
In455 O461 2.266 . S
In455 O462 2.326 . S
In455 O463 2.266 . S
In455 O464 2.326 . S
In455 O466 2.294 . S
In455 O467 2.326 . S
O456 In455 2.294 . S
O456 C465 1.240 . S
O457 In455 2.326 . S
O457 C465 1.252 . S
C458 O461 1.252 . S
C458 O462 1.260 . S
C459 O466 1.240 . S
C459 O467 1.252 . S
C460 O463 1.252 . S
C460 O464 1.260 . S
O461 In455 2.266 . S
O461 C458 1.252 . S
O462 In455 2.326 . S
O462 C458 1.260 . S
O463 In455 2.266 . S
O463 C460 1.252 . S
O464 In455 2.326 . S
O464 C460 1.260 . S
C465 O456 1.240 . S
C465 O457 1.252 . S
O466 In455 2.294 . S
O466 C459 1.240 . S
O467 In455 2.326 . S
O467 C459 1.252 . S
In468 O469 2.294 . S
In468 O470 2.326 . S
In468 O474 2.266 . S
In468 O475 2.326 . S
In468 O476 2.266 . S
In468 O477 2.326 . S
In468 O479 2.294 . S
In468 O480 2.326 . S
O469 In468 2.294 . S
O469 C478 1.240 . S
O470 In468 2.326 . S
O470 C478 1.252 . S
C471 O474 1.252 . S
C471 O475 1.260 . S
C472 O479 1.240 . S
C472 O480 1.252 . S
C473 O476 1.252 . S
C473 O477 1.260 . S
O474 In468 2.266 . S
O474 C471 1.252 . S
O475 In468 2.326 . S
O475 C471 1.260 . S
O476 In468 2.266 . S
O476 C473 1.252 . S
O477 In468 2.326 . S
O477 C473 1.260 . S
C478 O469 1.240 . S
C478 O470 1.252 . S
O479 In468 2.294 . S
O479 C472 1.240 . S
O480 In468 2.326 . S
O480 C472 1.252 . S
In481 O482 2.294 . S
In481 O483 2.326 . S
In481 O487 2.266 . S
In481 O488 2.326 . S
In481 O489 2.266 . S
In481 O490 2.326 . S
In481 O492 2.294 . S
In481 O493 2.326 . S
O482 In481 2.294 . S
O482 C491 1.240 . S
O483 In481 2.326 . S
O483 C491 1.252 . S
C484 O487 1.252 . S
C484 O488 1.260 . S
C485 O492 1.240 . S
C485 O493 1.252 . S
C486 O489 1.252 . S
C486 O490 1.260 . S
O487 In481 2.266 . S
O487 C484 1.252 . S
O488 In481 2.326 . S
O488 C484 1.260 . S
O489 In481 2.266 . S
O489 C486 1.252 . S
O490 In481 2.326 . S
O490 C486 1.260 . S
C491 O482 1.240 . S
C491 O483 1.252 . S
O492 In481 2.294 . S
O492 C485 1.240 . S
O493 In481 2.326 . S
O493 C485 1.252 . S
In494 O495 2.294 . S
In494 O496 2.326 . S
In494 O500 2.266 . S
In494 O501 2.326 . S
In494 O502 2.266 . S
In494 O503 2.326 . S
In494 O505 2.294 . S
In494 O506 2.326 . S
O495 In494 2.294 . S
O495 C504 1.240 . S
O496 In494 2.326 . S
O496 C504 1.252 . S
C497 O500 1.252 . S
C497 O501 1.260 . S
C498 O505 1.240 . S
C498 O506 1.252 . S
C499 O502 1.252 . S
C499 O503 1.260 . S
O500 In494 2.266 . S
O500 C497 1.252 . S
O501 In494 2.326 . S
O501 C497 1.260 . S
O502 In494 2.266 . S
O502 C499 1.252 . S
O503 In494 2.326 . S
O503 C499 1.260 . S
C504 O495 1.240 . S
C504 O496 1.252 . S
O505 In494 2.294 . S
O505 C498 1.240 . S
O506 In494 2.326 . S
O506 C498 1.252 . S
In507 O508 2.294 . S
In507 O509 2.326 . S
In507 O513 2.266 . S
In507 O514 2.326 . S
In507 O515 2.266 . S
In507 O516 2.326 . S
In507 O518 2.294 . S
In507 O519 2.326 . S
O508 In507 2.294 . S
O508 C517 1.240 . S
O509 In507 2.326 . S
O509 C517 1.252 . S
C510 O513 1.252 . S
C510 O514 1.260 . S
C511 O518 1.240 . S
C511 O519 1.252 . S
C512 O515 1.252 . S
C512 O516 1.260 . S
O513 In507 2.266 . S
O513 C510 1.252 . S
O514 In507 2.326 . S
O514 C510 1.260 . S
O515 In507 2.266 . S
O515 C512 1.252 . S
O516 In507 2.326 . S
O516 C512 1.260 . S
C517 O508 1.240 . S
C517 O509 1.252 . S
O518 In507 2.294 . S
O518 C511 1.240 . S
O519 In507 2.326 . S
O519 C511 1.252 . S
In520 O521 2.294 . S
In520 O522 2.326 . S
In520 O526 2.266 . S
In520 O527 2.326 . S
In520 O528 2.266 . S
In520 O529 2.326 . S
In520 O531 2.294 . S
In520 O532 2.326 . S
O521 In520 2.294 . S
O521 C530 1.240 . S
O522 In520 2.326 . S
O522 C530 1.252 . S
C523 O526 1.252 . S
C523 O527 1.260 . S
C524 O531 1.240 . S
C524 O532 1.252 . S
C525 O528 1.252 . S
C525 O529 1.260 . S
O526 In520 2.266 . S
O526 C523 1.252 . S
O527 In520 2.326 . S
O527 C523 1.260 . S
O528 In520 2.266 . S
O528 C525 1.252 . S
O529 In520 2.326 . S
O529 C525 1.260 . S
C530 O521 1.240 . S
C530 O522 1.252 . S
O531 In520 2.294 . S
O531 C524 1.240 . S
O532 In520 2.326 . S
O532 C524 1.252 . S
In533 O534 2.294 . S
In533 O535 2.326 . S
In533 O539 2.266 . S
In533 O540 2.326 . S
In533 O541 2.266 . S
In533 O542 2.326 . S
In533 O544 2.294 . S
In533 O545 2.326 . S
O534 In533 2.294 . S
O534 C543 1.240 . S
O535 In533 2.326 . S
O535 C543 1.252 . S
C536 O539 1.252 . S
C536 O540 1.260 . S
C537 O544 1.240 . S
C537 O545 1.252 . S
C538 O541 1.252 . S
C538 O542 1.260 . S
O539 In533 2.266 . S
O539 C536 1.252 . S
O540 In533 2.326 . S
O540 C536 1.260 . S
O541 In533 2.266 . S
O541 C538 1.252 . S
O542 In533 2.326 . S
O542 C538 1.260 . S
C543 O534 1.240 . S
C543 O535 1.252 . S
O544 In533 2.294 . S
O544 C537 1.240 . S
O545 In533 2.326 . S
O545 C537 1.252 . S
In546 O547 2.294 . S
In546 O548 2.326 . S
In546 O552 2.266 . S
In546 O553 2.326 . S
In546 O554 2.266 . S
In546 O555 2.326 . S
In546 O557 2.294 . S
In546 O558 2.326 . S
O547 In546 2.294 . S
O547 C556 1.240 . S
O548 In546 2.326 . S
O548 C556 1.252 . S
C549 O552 1.252 . S
C549 O553 1.260 . S
C550 O557 1.240 . S
C550 O558 1.252 . S
C551 O554 1.252 . S
C551 O555 1.260 . S
O552 In546 2.266 . S
O552 C549 1.252 . S
O553 In546 2.326 . S
O553 C549 1.260 . S
O554 In546 2.266 . S
O554 C551 1.252 . S
O555 In546 2.326 . S
O555 C551 1.260 . S
C556 O547 1.240 . S
C556 O548 1.252 . S
O557 In546 2.294 . S
O557 C550 1.240 . S
O558 In546 2.326 . S
O558 C550 1.252 . S
In559 O560 2.294 . S
In559 O561 2.326 . S
In559 O565 2.266 . S
In559 O566 2.326 . S
In559 O567 2.266 . S
In559 O568 2.326 . S
In559 O570 2.294 . S
In559 O571 2.326 . S
O560 In559 2.294 . S
O560 C569 1.240 . S
O561 In559 2.326 . S
O561 C569 1.252 . S
C562 O565 1.252 . S
C562 O566 1.260 . S
C563 O570 1.240 . S
C563 O571 1.252 . S
C564 O567 1.252 . S
C564 O568 1.260 . S
O565 In559 2.266 . S
O565 C562 1.252 . S
O566 In559 2.326 . S
O566 C562 1.260 . S
O567 In559 2.266 . S
O567 C564 1.252 . S
O568 In559 2.326 . S
O568 C564 1.260 . S
C569 O560 1.240 . S
C569 O561 1.252 . S
O570 In559 2.294 . S
O570 C563 1.240 . S
O571 In559 2.326 . S
O571 C563 1.252 . S
In572 O573 2.294 . S
In572 O574 2.326 . S
In572 O578 2.266 . S
In572 O579 2.326 . S
In572 O580 2.266 . S
In572 O581 2.326 . S
In572 O583 2.294 . S
In572 O584 2.326 . S
O573 In572 2.294 . S
O573 C582 1.240 . S
O574 In572 2.326 . S
O574 C582 1.252 . S
C575 O578 1.252 . S
C575 O579 1.260 . S
C576 O583 1.240 . S
C576 O584 1.252 . S
C577 O580 1.252 . S
C577 O581 1.260 . S
O578 In572 2.266 . S
O578 C575 1.252 . S
O579 In572 2.326 . S
O579 C575 1.260 . S
O580 In572 2.266 . S
O580 C577 1.252 . S
O581 In572 2.326 . S
O581 C577 1.260 . S
C582 O573 1.240 . S
C582 O574 1.252 . S
O583 In572 2.294 . S
O583 C576 1.240 . S
O584 In572 2.326 . S
O584 C576 1.252 . S
In585 O586 2.294 . S
In585 O587 2.326 . S
In585 O591 2.266 . S
In585 O592 2.326 . S
In585 O593 2.266 . S
In585 O594 2.326 . S
In585 O596 2.294 . S
In585 O597 2.326 . S
O586 In585 2.294 . S
O586 C595 1.240 . S
O587 In585 2.326 . S
O587 C595 1.252 . S
C588 O591 1.252 . S
C588 O592 1.260 . S
C589 O596 1.240 . S
C589 O597 1.252 . S
C590 O593 1.252 . S
C590 O594 1.260 . S
O591 In585 2.266 . S
O591 C588 1.252 . S
O592 In585 2.326 . S
O592 C588 1.260 . S
O593 In585 2.266 . S
O593 C590 1.252 . S
O594 In585 2.326 . S
O594 C590 1.260 . S
C595 O586 1.240 . S
C595 O587 1.252 . S
O596 In585 2.294 . S
O596 C589 1.240 . S
O597 In585 2.326 . S
O597 C589 1.252 . S
In598 O599 2.294 . S
In598 O600 2.326 . S
In598 O604 2.266 . S
In598 O605 2.326 . S
In598 O606 2.266 . S
In598 O607 2.326 . S
In598 O609 2.294 . S
In598 O610 2.326 . S
O599 In598 2.294 . S
O599 C608 1.240 . S
O600 In598 2.326 . S
O600 C608 1.252 . S
C601 O604 1.252 . S
C601 O605 1.260 . S
C602 O609 1.240 . S
C602 O610 1.252 . S
C603 O606 1.252 . S
C603 O607 1.260 . S
O604 In598 2.266 . S
O604 C601 1.252 . S
O605 In598 2.326 . S
O605 C601 1.260 . S
O606 In598 2.266 . S
O606 C603 1.252 . S
O607 In598 2.326 . S
O607 C603 1.260 . S
C608 O599 1.240 . S
C608 O600 1.252 . S
O609 In598 2.294 . S
O609 C602 1.240 . S
O610 In598 2.326 . S
O610 C602 1.252 . S
In611 O612 2.294 . S
In611 O613 2.326 . S
In611 O617 2.266 . S
In611 O618 2.326 . S
In611 O619 2.266 . S
In611 O620 2.326 . S
In611 O622 2.294 . S
In611 O623 2.326 . S
O612 In611 2.294 . S
O612 C621 1.240 . S
O613 In611 2.326 . S
O613 C621 1.252 . S
C614 O617 1.252 . S
C614 O618 1.260 . S
C615 O622 1.240 . S
C615 O623 1.252 . S
C616 O619 1.252 . S
C616 O620 1.260 . S
O617 In611 2.266 . S
O617 C614 1.252 . S
O618 In611 2.326 . S
O618 C614 1.260 . S
O619 In611 2.266 . S
O619 C616 1.252 . S
O620 In611 2.326 . S
O620 C616 1.260 . S
C621 O612 1.240 . S
C621 O613 1.252 . S
O622 In611 2.294 . S
O622 C615 1.240 . S
O623 In611 2.326 . S
O623 C615 1.252 . S
In624 O625 2.294 . S
In624 O626 2.326 . S
In624 O630 2.266 . S
In624 O631 2.326 . S
In624 O632 2.266 . S
In624 O633 2.326 . S
In624 O635 2.294 . S
In624 O636 2.326 . S
O625 In624 2.294 . S
O625 C634 1.240 . S
O626 In624 2.326 . S
O626 C634 1.252 . S
C627 O630 1.252 . S
C627 O631 1.260 . S
C628 O635 1.240 . S
C628 O636 1.252 . S
C629 O632 1.252 . S
C629 O633 1.260 . S
O630 In624 2.266 . S
O630 C627 1.252 . S
O631 In624 2.326 . S
O631 C627 1.260 . S
O632 In624 2.266 . S
O632 C629 1.252 . S
O633 In624 2.326 . S
O633 C629 1.260 . S
C634 O625 1.240 . S
C634 O626 1.252 . S
O635 In624 2.294 . S
O635 C628 1.240 . S
O636 In624 2.326 . S
O636 C628 1.252 . S
In637 O638 2.294 . S
In637 O639 2.326 . S
In637 O643 2.266 . S
In637 O644 2.326 . S
In637 O645 2.266 . S
In637 O646 2.326 . S
In637 O648 2.294 . S
In637 O649 2.326 . S
O638 In637 2.294 . S
O638 C647 1.240 . S
O639 In637 2.326 . S
O639 C647 1.252 . S
C640 O643 1.252 . S
C640 O644 1.260 . S
C641 O648 1.240 . S
C641 O649 1.252 . S
C642 O645 1.252 . S
C642 O646 1.260 . S
O643 In637 2.266 . S
O643 C640 1.252 . S
O644 In637 2.326 . S
O644 C640 1.260 . S
O645 In637 2.266 . S
O645 C642 1.252 . S
O646 In637 2.326 . S
O646 C642 1.260 . S
C647 O638 1.240 . S
C647 O639 1.252 . S
O648 In637 2.294 . S
O648 C641 1.240 . S
O649 In637 2.326 . S
O649 C641 1.252 . S
In650 O651 2.294 . S
In650 O652 2.326 . S
In650 O656 2.266 . S
In650 O657 2.326 . S
In650 O658 2.266 . S
In650 O659 2.326 . S
In650 O661 2.294 . S
In650 O662 2.326 . S
O651 In650 2.294 . S
O651 C660 1.240 . S
O652 In650 2.326 . S
O652 C660 1.252 . S
C653 O656 1.252 . S
C653 O657 1.260 . S
C654 O661 1.240 . S
C654 O662 1.252 . S
C655 O658 1.252 . S
C655 O659 1.260 . S
O656 In650 2.266 . S
O656 C653 1.252 . S
O657 In650 2.326 . S
O657 C653 1.260 . S
O658 In650 2.266 . S
O658 C655 1.252 . S
O659 In650 2.326 . S
O659 C655 1.260 . S
C660 O651 1.240 . S
C660 O652 1.252 . S
O661 In650 2.294 . S
O661 C654 1.240 . S
O662 In650 2.326 . S
O662 C654 1.252 . S
In663 O664 2.294 . S
In663 O665 2.326 . S
In663 O669 2.266 . S
In663 O670 2.326 . S
In663 O671 2.266 . S
In663 O672 2.326 . S
In663 O674 2.294 . S
In663 O675 2.326 . S
O664 In663 2.294 . S
O664 C673 1.240 . S
O665 In663 2.326 . S
O665 C673 1.252 . S
C666 O669 1.252 . S
C666 O670 1.260 . S
C667 O674 1.240 . S
C667 O675 1.252 . S
C668 O671 1.252 . S
C668 O672 1.260 . S
O669 In663 2.266 . S
O669 C666 1.252 . S
O670 In663 2.326 . S
O670 C666 1.260 . S
O671 In663 2.266 . S
O671 C668 1.252 . S
O672 In663 2.326 . S
O672 C668 1.260 . S
C673 O664 1.240 . S
C673 O665 1.252 . S
O674 In663 2.294 . S
O674 C667 1.240 . S
O675 In663 2.326 . S
O675 C667 1.252 . S
In676 O677 2.294 . S
In676 O678 2.326 . S
In676 O682 2.266 . S
In676 O683 2.326 . S
In676 O684 2.266 . S
In676 O685 2.326 . S
In676 O687 2.294 . S
In676 O688 2.326 . S
O677 In676 2.294 . S
O677 C686 1.240 . S
O678 In676 2.326 . S
O678 C686 1.252 . S
C679 O682 1.252 . S
C679 O683 1.260 . S
C680 O687 1.240 . S
C680 O688 1.252 . S
C681 O684 1.252 . S
C681 O685 1.260 . S
O682 In676 2.266 . S
O682 C679 1.252 . S
O683 In676 2.326 . S
O683 C679 1.260 . S
O684 In676 2.266 . S
O684 C681 1.252 . S
O685 In676 2.326 . S
O685 C681 1.260 . S
C686 O677 1.240 . S
C686 O678 1.252 . S
O687 In676 2.294 . S
O687 C680 1.240 . S
O688 In676 2.326 . S
O688 C680 1.252 . S
In689 O690 2.294 . S
In689 O691 2.326 . S
In689 O695 2.266 . S
In689 O696 2.326 . S
In689 O697 2.266 . S
In689 O698 2.326 . S
In689 O700 2.294 . S
In689 O701 2.326 . S
O690 In689 2.294 . S
O690 C699 1.240 . S
O691 In689 2.326 . S
O691 C699 1.252 . S
C692 O695 1.252 . S
C692 O696 1.260 . S
C693 O700 1.240 . S
C693 O701 1.252 . S
C694 O697 1.252 . S
C694 O698 1.260 . S
O695 In689 2.266 . S
O695 C692 1.252 . S
O696 In689 2.326 . S
O696 C692 1.260 . S
O697 In689 2.266 . S
O697 C694 1.252 . S
O698 In689 2.326 . S
O698 C694 1.260 . S
C699 O690 1.240 . S
C699 O691 1.252 . S
O700 In689 2.294 . S
O700 C693 1.240 . S
O701 In689 2.326 . S
O701 C693 1.252 . S
In702 O703 2.294 . S
In702 O704 2.326 . S
In702 O708 2.266 . S
In702 O709 2.326 . S
In702 O710 2.266 . S
In702 O711 2.326 . S
In702 O713 2.294 . S
In702 O714 2.326 . S
O703 In702 2.294 . S
O703 C712 1.240 . S
O704 In702 2.326 . S
O704 C712 1.252 . S
C705 O708 1.252 . S
C705 O709 1.260 . S
C706 O713 1.240 . S
C706 O714 1.252 . S
C707 O710 1.252 . S
C707 O711 1.260 . S
O708 In702 2.266 . S
O708 C705 1.252 . S
O709 In702 2.326 . S
O709 C705 1.260 . S
O710 In702 2.266 . S
O710 C707 1.252 . S
O711 In702 2.326 . S
O711 C707 1.260 . S
C712 O703 1.240 . S
C712 O704 1.252 . S
O713 In702 2.294 . S
O713 C706 1.240 . S
O714 In702 2.326 . S
O714 C706 1.252 . S
In715 O716 2.294 . S
In715 O717 2.326 . S
In715 O721 2.266 . S
In715 O722 2.326 . S
In715 O723 2.266 . S
In715 O724 2.326 . S
In715 O726 2.294 . S
In715 O727 2.326 . S
O716 In715 2.294 . S
O716 C725 1.240 . S
O717 In715 2.326 . S
O717 C725 1.252 . S
C718 O721 1.252 . S
C718 O722 1.260 . S
C719 O726 1.240 . S
C719 O727 1.252 . S
C720 O723 1.252 . S
C720 O724 1.260 . S
O721 In715 2.266 . S
O721 C718 1.252 . S
O722 In715 2.326 . S
O722 C718 1.260 . S
O723 In715 2.266 . S
O723 C720 1.252 . S
O724 In715 2.326 . S
O724 C720 1.260 . S
C725 O716 1.240 . S
C725 O717 1.252 . S
O726 In715 2.294 . S
O726 C719 1.240 . S
O727 In715 2.326 . S
O727 C719 1.252 . S
In728 O729 2.294 . S
In728 O730 2.326 . S
In728 O734 2.266 . S
In728 O735 2.326 . S
In728 O736 2.266 . S
In728 O737 2.326 . S
In728 O739 2.294 . S
In728 O740 2.326 . S
O729 In728 2.294 . S
O729 C738 1.240 . S
O730 In728 2.326 . S
O730 C738 1.252 . S
C731 O734 1.252 . S
C731 O735 1.260 . S
C732 O739 1.240 . S
C732 O740 1.252 . S
C733 O736 1.252 . S
C733 O737 1.260 . S
O734 In728 2.266 . S
O734 C731 1.252 . S
O735 In728 2.326 . S
O735 C731 1.260 . S
O736 In728 2.266 . S
O736 C733 1.252 . S
O737 In728 2.326 . S
O737 C733 1.260 . S
C738 O729 1.240 . S
C738 O730 1.252 . S
O739 In728 2.294 . S
O739 C732 1.240 . S
O740 In728 2.326 . S
O740 C732 1.252 . S
In741 O742 2.294 . S
In741 O743 2.326 . S
In741 O747 2.266 . S
In741 O748 2.326 . S
In741 O749 2.266 . S
In741 O750 2.326 . S
In741 O752 2.294 . S
In741 O753 2.326 . S
O742 In741 2.294 . S
O742 C751 1.240 . S
O743 In741 2.326 . S
O743 C751 1.252 . S
C744 O747 1.252 . S
C744 O748 1.260 . S
C745 O752 1.240 . S
C745 O753 1.252 . S
C746 O749 1.252 . S
C746 O750 1.260 . S
O747 In741 2.266 . S
O747 C744 1.252 . S
O748 In741 2.326 . S
O748 C744 1.260 . S
O749 In741 2.266 . S
O749 C746 1.252 . S
O750 In741 2.326 . S
O750 C746 1.260 . S
C751 O742 1.240 . S
C751 O743 1.252 . S
O752 In741 2.294 . S
O752 C745 1.240 . S
O753 In741 2.326 . S
O753 C745 1.252 . S
In754 O755 2.294 . S
In754 O756 2.326 . S
In754 O760 2.266 . S
In754 O761 2.326 . S
In754 O762 2.266 . S
In754 O763 2.326 . S
In754 O765 2.294 . S
In754 O766 2.326 . S
O755 In754 2.294 . S
O755 C764 1.240 . S
O756 In754 2.326 . S
O756 C764 1.252 . S
C757 O760 1.252 . S
C757 O761 1.260 . S
C758 O765 1.240 . S
C758 O766 1.252 . S
C759 O762 1.252 . S
C759 O763 1.260 . S
O760 In754 2.266 . S
O760 C757 1.252 . S
O761 In754 2.326 . S
O761 C757 1.260 . S
O762 In754 2.266 . S
O762 C759 1.252 . S
O763 In754 2.326 . S
O763 C759 1.260 . S
C764 O755 1.240 . S
C764 O756 1.252 . S
O765 In754 2.294 . S
O765 C758 1.240 . S
O766 In754 2.326 . S
O766 C758 1.252 . S
In767 O768 2.294 . S
In767 O769 2.326 . S
In767 O773 2.266 . S
In767 O774 2.326 . S
In767 O775 2.266 . S
In767 O776 2.326 . S
In767 O778 2.294 . S
In767 O779 2.326 . S
O768 In767 2.294 . S
O768 C777 1.240 . S
O769 In767 2.326 . S
O769 C777 1.252 . S
C770 O773 1.252 . S
C770 O774 1.260 . S
C771 O778 1.240 . S
C771 O779 1.252 . S
C772 O775 1.252 . S
C772 O776 1.260 . S
O773 In767 2.266 . S
O773 C770 1.252 . S
O774 In767 2.326 . S
O774 C770 1.260 . S
O775 In767 2.266 . S
O775 C772 1.252 . S
O776 In767 2.326 . S
O776 C772 1.260 . S
C777 O768 1.240 . S
C777 O769 1.252 . S
O778 In767 2.294 . S
O778 C771 1.240 . S
O779 In767 2.326 . S
O779 C771 1.252 . S
In780 O781 2.294 . S
In780 O782 2.326 . S
In780 O786 2.266 . S
In780 O787 2.326 . S
In780 O788 2.266 . S
In780 O789 2.326 . S
In780 O791 2.294 . S
In780 O792 2.326 . S
O781 In780 2.294 . S
O781 C790 1.240 . S
O782 In780 2.326 . S
O782 C790 1.252 . S
C783 O786 1.252 . S
C783 O787 1.260 . S
C784 O791 1.240 . S
C784 O792 1.252 . S
C785 O788 1.252 . S
C785 O789 1.260 . S
O786 In780 2.266 . S
O786 C783 1.252 . S
O787 In780 2.326 . S
O787 C783 1.260 . S
O788 In780 2.266 . S
O788 C785 1.252 . S
O789 In780 2.326 . S
O789 C785 1.260 . S
C790 O781 1.240 . S
C790 O782 1.252 . S
O791 In780 2.294 . S
O791 C784 1.240 . S
O792 In780 2.326 . S
O792 C784 1.252 . S
In793 O794 2.294 . S
In793 O795 2.326 . S
In793 O799 2.266 . S
In793 O800 2.326 . S
In793 O801 2.266 . S
In793 O802 2.326 . S
In793 O804 2.294 . S
In793 O805 2.326 . S
O794 In793 2.294 . S
O794 C803 1.240 . S
O795 In793 2.326 . S
O795 C803 1.252 . S
C796 O799 1.252 . S
C796 O800 1.260 . S
C797 O804 1.240 . S
C797 O805 1.252 . S
C798 O801 1.252 . S
C798 O802 1.260 . S
O799 In793 2.266 . S
O799 C796 1.252 . S
O800 In793 2.326 . S
O800 C796 1.260 . S
O801 In793 2.266 . S
O801 C798 1.252 . S
O802 In793 2.326 . S
O802 C798 1.260 . S
C803 O794 1.240 . S
C803 O795 1.252 . S
O804 In793 2.294 . S
O804 C797 1.240 . S
O805 In793 2.326 . S
O805 C797 1.252 . S
In806 O807 2.294 . S
In806 O808 2.326 . S
In806 O812 2.266 . S
In806 O813 2.326 . S
In806 O814 2.266 . S
In806 O815 2.326 . S
In806 O817 2.294 . S
In806 O818 2.326 . S
O807 In806 2.294 . S
O807 C816 1.240 . S
O808 In806 2.326 . S
O808 C816 1.252 . S
C809 O812 1.252 . S
C809 O813 1.260 . S
C810 O817 1.240 . S
C810 O818 1.252 . S
C811 O814 1.252 . S
C811 O815 1.260 . S
O812 In806 2.266 . S
O812 C809 1.252 . S
O813 In806 2.326 . S
O813 C809 1.260 . S
O814 In806 2.266 . S
O814 C811 1.252 . S
O815 In806 2.326 . S
O815 C811 1.260 . S
C816 O807 1.240 . S
C816 O808 1.252 . S
O817 In806 2.294 . S
O817 C810 1.240 . S
O818 In806 2.326 . S
O818 C810 1.252 . S
In819 O820 2.294 . S
In819 O821 2.326 . S
In819 O825 2.266 . S
In819 O826 2.326 . S
In819 O827 2.266 . S
In819 O828 2.326 . S
In819 O830 2.294 . S
In819 O831 2.326 . S
O820 In819 2.294 . S
O820 C829 1.240 . S
O821 In819 2.326 . S
O821 C829 1.252 . S
C822 O825 1.252 . S
C822 O826 1.260 . S
C823 O830 1.240 . S
C823 O831 1.252 . S
C824 O827 1.252 . S
C824 O828 1.260 . S
O825 In819 2.266 . S
O825 C822 1.252 . S
O826 In819 2.326 . S
O826 C822 1.260 . S
O827 In819 2.266 . S
O827 C824 1.252 . S
O828 In819 2.326 . S
O828 C824 1.260 . S
C829 O820 1.240 . S
C829 O821 1.252 . S
O830 In819 2.294 . S
O830 C823 1.240 . S
O831 In819 2.326 . S
O831 C823 1.252 . S
In832 O833 2.294 . S
In832 O834 2.326 . S
In832 O838 2.266 . S
In832 O839 2.326 . S
In832 O840 2.266 . S
In832 O841 2.326 . S
In832 O843 2.294 . S
In832 O844 2.326 . S
O833 In832 2.294 . S
O833 C842 1.240 . S
O834 In832 2.326 . S
O834 C842 1.252 . S
C835 O838 1.252 . S
C835 O839 1.260 . S
C836 O843 1.240 . S
C836 O844 1.252 . S
C837 O840 1.252 . S
C837 O841 1.260 . S
O838 In832 2.266 . S
O838 C835 1.252 . S
O839 In832 2.326 . S
O839 C835 1.260 . S
O840 In832 2.266 . S
O840 C837 1.252 . S
O841 In832 2.326 . S
O841 C837 1.260 . S
C842 O833 1.240 . S
C842 O834 1.252 . S
O843 In832 2.294 . S
O843 C836 1.240 . S
O844 In832 2.326 . S
O844 C836 1.252 . S
In845 O846 2.294 . S
In845 O847 2.326 . S
In845 O851 2.266 . S
In845 O852 2.326 . S
In845 O853 2.266 . S
In845 O854 2.326 . S
In845 O856 2.294 . S
In845 O857 2.326 . S
O846 In845 2.294 . S
O846 C855 1.240 . S
O847 In845 2.326 . S
O847 C855 1.252 . S
C848 O851 1.252 . S
C848 O852 1.260 . S
C849 O856 1.240 . S
C849 O857 1.252 . S
C850 O853 1.252 . S
C850 O854 1.260 . S
O851 In845 2.266 . S
O851 C848 1.252 . S
O852 In845 2.326 . S
O852 C848 1.260 . S
O853 In845 2.266 . S
O853 C850 1.252 . S
O854 In845 2.326 . S
O854 C850 1.260 . S
C855 O846 1.240 . S
C855 O847 1.252 . S
O856 In845 2.294 . S
O856 C849 1.240 . S
O857 In845 2.326 . S
O857 C849 1.252 . S
In858 O859 2.294 . S
In858 O860 2.326 . S
In858 O864 2.266 . S
In858 O865 2.326 . S
In858 O866 2.266 . S
In858 O867 2.326 . S
In858 O869 2.294 . S
In858 O870 2.326 . S
O859 In858 2.294 . S
O859 C868 1.240 . S
O860 In858 2.326 . S
O860 C868 1.252 . S
C861 O864 1.252 . S
C861 O865 1.260 . S
C862 O869 1.240 . S
C862 O870 1.252 . S
C863 O866 1.252 . S
C863 O867 1.260 . S
O864 In858 2.266 . S
O864 C861 1.252 . S
O865 In858 2.326 . S
O865 C861 1.260 . S
O866 In858 2.266 . S
O866 C863 1.252 . S
O867 In858 2.326 . S
O867 C863 1.260 . S
C868 O859 1.240 . S
C868 O860 1.252 . S
O869 In858 2.294 . S
O869 C862 1.240 . S
O870 In858 2.326 . S
O870 C862 1.252 . S
In871 O872 2.294 . S
In871 O873 2.326 . S
In871 O877 2.266 . S
In871 O878 2.326 . S
In871 O879 2.266 . S
In871 O880 2.326 . S
In871 O882 2.294 . S
In871 O883 2.326 . S
O872 In871 2.294 . S
O872 C881 1.240 . S
O873 In871 2.326 . S
O873 C881 1.252 . S
C874 O877 1.252 . S
C874 O878 1.260 . S
C875 O882 1.240 . S
C875 O883 1.252 . S
C876 O879 1.252 . S
C876 O880 1.260 . S
O877 In871 2.266 . S
O877 C874 1.252 . S
O878 In871 2.326 . S
O878 C874 1.260 . S
O879 In871 2.266 . S
O879 C876 1.252 . S
O880 In871 2.326 . S
O880 C876 1.260 . S
C881 O872 1.240 . S
C881 O873 1.252 . S
O882 In871 2.294 . S
O882 C875 1.240 . S
O883 In871 2.326 . S
O883 C875 1.252 . S
In884 O885 2.294 . S
In884 O886 2.326 . S
In884 O890 2.266 . S
In884 O891 2.326 . S
In884 O892 2.266 . S
In884 O893 2.326 . S
In884 O895 2.294 . S
In884 O896 2.326 . S
O885 In884 2.294 . S
O885 C894 1.240 . S
O886 In884 2.326 . S
O886 C894 1.252 . S
C887 O890 1.252 . S
C887 O891 1.260 . S
C888 O895 1.240 . S
C888 O896 1.252 . S
C889 O892 1.252 . S
C889 O893 1.260 . S
O890 In884 2.266 . S
O890 C887 1.252 . S
O891 In884 2.326 . S
O891 C887 1.260 . S
O892 In884 2.266 . S
O892 C889 1.252 . S
O893 In884 2.326 . S
O893 C889 1.260 . S
C894 O885 1.240 . S
C894 O886 1.252 . S
O895 In884 2.294 . S
O895 C888 1.240 . S
O896 In884 2.326 . S
O896 C888 1.252 . S
In897 O898 2.294 . S
In897 O899 2.326 . S
In897 O903 2.266 . S
In897 O904 2.326 . S
In897 O905 2.266 . S
In897 O906 2.326 . S
In897 O908 2.294 . S
In897 O909 2.326 . S
O898 In897 2.294 . S
O898 C907 1.240 . S
O899 In897 2.326 . S
O899 C907 1.252 . S
C900 O903 1.252 . S
C900 O904 1.260 . S
C901 O908 1.240 . S
C901 O909 1.252 . S
C902 O905 1.252 . S
C902 O906 1.260 . S
O903 In897 2.266 . S
O903 C900 1.252 . S
O904 In897 2.326 . S
O904 C900 1.260 . S
O905 In897 2.266 . S
O905 C902 1.252 . S
O906 In897 2.326 . S
O906 C902 1.260 . S
C907 O898 1.240 . S
C907 O899 1.252 . S
O908 In897 2.294 . S
O908 C901 1.240 . S
O909 In897 2.326 . S
O909 C901 1.252 . S
In910 O911 2.294 . S
In910 O912 2.326 . S
In910 O916 2.266 . S
In910 O917 2.326 . S
In910 O918 2.266 . S
In910 O919 2.326 . S
In910 O921 2.294 . S
In910 O922 2.326 . S
O911 In910 2.294 . S
O911 C920 1.240 . S
O912 In910 2.326 . S
O912 C920 1.252 . S
C913 O916 1.252 . S
C913 O917 1.260 . S
C914 O921 1.240 . S
C914 O922 1.252 . S
C915 O918 1.252 . S
C915 O919 1.260 . S
O916 In910 2.266 . S
O916 C913 1.252 . S
O917 In910 2.326 . S
O917 C913 1.260 . S
O918 In910 2.266 . S
O918 C915 1.252 . S
O919 In910 2.326 . S
O919 C915 1.260 . S
C920 O911 1.240 . S
C920 O912 1.252 . S
O921 In910 2.294 . S
O921 C914 1.240 . S
O922 In910 2.326 . S
O922 C914 1.252 . S
In923 O924 2.294 . S
In923 O925 2.326 . S
In923 O929 2.266 . S
In923 O930 2.326 . S
In923 O931 2.266 . S
In923 O932 2.326 . S
In923 O934 2.294 . S
In923 O935 2.326 . S
O924 In923 2.294 . S
O924 C933 1.240 . S
O925 In923 2.326 . S
O925 C933 1.252 . S
C926 O929 1.252 . S
C926 O930 1.260 . S
C927 O934 1.240 . S
C927 O935 1.252 . S
C928 O931 1.252 . S
C928 O932 1.260 . S
O929 In923 2.266 . S
O929 C926 1.252 . S
O930 In923 2.326 . S
O930 C926 1.260 . S
O931 In923 2.266 . S
O931 C928 1.252 . S
O932 In923 2.326 . S
O932 C928 1.260 . S
C933 O924 1.240 . S
C933 O925 1.252 . S
O934 In923 2.294 . S
O934 C927 1.240 . S
O935 In923 2.326 . S
O935 C927 1.252 . S
In936 O937 2.294 . S
In936 O938 2.326 . S
In936 O942 2.266 . S
In936 O943 2.326 . S
In936 O944 2.266 . S
In936 O945 2.326 . S
In936 O947 2.294 . S
In936 O948 2.326 . S
O937 In936 2.294 . S
O937 C946 1.240 . S
O938 In936 2.326 . S
O938 C946 1.252 . S
C939 O942 1.252 . S
C939 O943 1.260 . S
C940 O947 1.240 . S
C940 O948 1.252 . S
C941 O944 1.252 . S
C941 O945 1.260 . S
O942 In936 2.266 . S
O942 C939 1.252 . S
O943 In936 2.326 . S
O943 C939 1.260 . S
O944 In936 2.266 . S
O944 C941 1.252 . S
O945 In936 2.326 . S
O945 C941 1.260 . S
C946 O937 1.240 . S
C946 O938 1.252 . S
O947 In936 2.294 . S
O947 C940 1.240 . S
O948 In936 2.326 . S
O948 C940 1.252 . S
In949 O950 2.294 . S
In949 O951 2.326 . S
In949 O955 2.266 . S
In949 O956 2.326 . S
In949 O957 2.266 . S
In949 O958 2.326 . S
In949 O960 2.294 . S
In949 O961 2.326 . S
O950 In949 2.294 . S
O950 C959 1.240 . S
O951 In949 2.326 . S
O951 C959 1.252 . S
C952 O955 1.252 . S
C952 O956 1.260 . S
C953 O960 1.240 . S
C953 O961 1.252 . S
C954 O957 1.252 . S
C954 O958 1.260 . S
O955 In949 2.266 . S
O955 C952 1.252 . S
O956 In949 2.326 . S
O956 C952 1.260 . S
O957 In949 2.266 . S
O957 C954 1.252 . S
O958 In949 2.326 . S
O958 C954 1.260 . S
C959 O950 1.240 . S
C959 O951 1.252 . S
O960 In949 2.294 . S
O960 C953 1.240 . S
O961 In949 2.326 . S
O961 C953 1.252 . S
In962 O963 2.294 . S
In962 O964 2.326 . S
In962 O968 2.266 . S
In962 O969 2.326 . S
In962 O970 2.266 . S
In962 O971 2.326 . S
In962 O973 2.294 . S
In962 O974 2.326 . S
O963 In962 2.294 . S
O963 C972 1.240 . S
O964 In962 2.326 . S
O964 C972 1.252 . S
C965 O968 1.252 . S
C965 O969 1.260 . S
C966 O973 1.240 . S
C966 O974 1.252 . S
C967 O970 1.252 . S
C967 O971 1.260 . S
O968 In962 2.266 . S
O968 C965 1.252 . S
O969 In962 2.326 . S
O969 C965 1.260 . S
O970 In962 2.266 . S
O970 C967 1.252 . S
O971 In962 2.326 . S
O971 C967 1.260 . S
C972 O963 1.240 . S
C972 O964 1.252 . S
O973 In962 2.294 . S
O973 C966 1.240 . S
O974 In962 2.326 . S
O974 C966 1.252 . S
In975 O976 2.294 . S
In975 O977 2.326 . S
In975 O981 2.266 . S
In975 O982 2.326 . S
In975 O983 2.266 . S
In975 O984 2.326 . S
In975 O986 2.294 . S
In975 O987 2.326 . S
O976 In975 2.294 . S
O976 C985 1.240 . S
O977 In975 2.326 . S
O977 C985 1.252 . S
C978 O981 1.252 . S
C978 O982 1.260 . S
C979 O986 1.240 . S
C979 O987 1.252 . S
C980 O983 1.252 . S
C980 O984 1.260 . S
O981 In975 2.266 . S
O981 C978 1.252 . S
O982 In975 2.326 . S
O982 C978 1.260 . S
O983 In975 2.266 . S
O983 C980 1.252 . S
O984 In975 2.326 . S
O984 C980 1.260 . S
C985 O976 1.240 . S
C985 O977 1.252 . S
O986 In975 2.294 . S
O986 C979 1.240 . S
O987 In975 2.326 . S
O987 C979 1.252 . S
In988 O989 2.294 . S
In988 O990 2.326 . S
In988 O994 2.266 . S
In988 O995 2.326 . S
In988 O996 2.266 . S
In988 O997 2.326 . S
In988 O999 2.294 . S
In988 O1000 2.326 . S
O989 In988 2.294 . S
O989 C998 1.240 . S
O990 In988 2.326 . S
O990 C998 1.252 . S
C991 O994 1.252 . S
C991 O995 1.260 . S
C992 O999 1.240 . S
C992 O1000 1.252 . S
C993 O996 1.252 . S
C993 O997 1.260 . S
O994 In988 2.266 . S
O994 C991 1.252 . S
O995 In988 2.326 . S
O995 C991 1.260 . S
O996 In988 2.266 . S
O996 C993 1.252 . S
O997 In988 2.326 . S
O997 C993 1.260 . S
C998 O989 1.240 . S
C998 O990 1.252 . S
O999 In988 2.294 . S
O999 C992 1.240 . S
O1000 In988 2.326 . S
O1000 C992 1.252 . S
In1001 O1002 2.294 . S
In1001 O1003 2.326 . S
In1001 O1007 2.266 . S
In1001 O1008 2.326 . S
In1001 O1009 2.266 . S
In1001 O1010 2.326 . S
In1001 O1012 2.294 . S
In1001 O1013 2.326 . S
O1002 In1001 2.294 . S
O1002 C1011 1.240 . S
O1003 In1001 2.326 . S
O1003 C1011 1.252 . S
C1004 O1007 1.252 . S
C1004 O1008 1.260 . S
C1005 O1012 1.240 . S
C1005 O1013 1.252 . S
C1006 O1009 1.252 . S
C1006 O1010 1.260 . S
O1007 In1001 2.266 . S
O1007 C1004 1.252 . S
O1008 In1001 2.326 . S
O1008 C1004 1.260 . S
O1009 In1001 2.266 . S
O1009 C1006 1.252 . S
O1010 In1001 2.326 . S
O1010 C1006 1.260 . S
C1011 O1002 1.240 . S
C1011 O1003 1.252 . S
O1012 In1001 2.294 . S
O1012 C1005 1.240 . S
O1013 In1001 2.326 . S
O1013 C1005 1.252 . S
In1014 O1015 2.294 . S
In1014 O1016 2.326 . S
In1014 O1020 2.266 . S
In1014 O1021 2.326 . S
In1014 O1022 2.266 . S
In1014 O1023 2.326 . S
In1014 O1025 2.294 . S
In1014 O1026 2.326 . S
O1015 In1014 2.294 . S
O1015 C1024 1.240 . S
O1016 In1014 2.326 . S
O1016 C1024 1.252 . S
C1017 O1020 1.252 . S
C1017 O1021 1.260 . S
C1018 O1025 1.240 . S
C1018 O1026 1.252 . S
C1019 O1022 1.252 . S
C1019 O1023 1.260 . S
O1020 In1014 2.266 . S
O1020 C1017 1.252 . S
O1021 In1014 2.326 . S
O1021 C1017 1.260 . S
O1022 In1014 2.266 . S
O1022 C1019 1.252 . S
O1023 In1014 2.326 . S
O1023 C1019 1.260 . S
C1024 O1015 1.240 . S
C1024 O1016 1.252 . S
O1025 In1014 2.294 . S
O1025 C1018 1.240 . S
O1026 In1014 2.326 . S
O1026 C1018 1.252 . S
In1027 O1028 2.294 . S
In1027 O1029 2.326 . S
In1027 O1033 2.266 . S
In1027 O1034 2.326 . S
In1027 O1035 2.266 . S
In1027 O1036 2.326 . S
In1027 O1038 2.294 . S
In1027 O1039 2.326 . S
O1028 In1027 2.294 . S
O1028 C1037 1.240 . S
O1029 In1027 2.326 . S
O1029 C1037 1.252 . S
C1030 O1033 1.252 . S
C1030 O1034 1.260 . S
C1031 O1038 1.240 . S
C1031 O1039 1.252 . S
C1032 O1035 1.252 . S
C1032 O1036 1.260 . S
O1033 In1027 2.266 . S
O1033 C1030 1.252 . S
O1034 In1027 2.326 . S
O1034 C1030 1.260 . S
O1035 In1027 2.266 . S
O1035 C1032 1.252 . S
O1036 In1027 2.326 . S
O1036 C1032 1.260 . S
C1037 O1028 1.240 . S
C1037 O1029 1.252 . S
O1038 In1027 2.294 . S
O1038 C1031 1.240 . S
O1039 In1027 2.326 . S
O1039 C1031 1.252 . S
In1040 O1041 2.294 . S
In1040 O1042 2.326 . S
In1040 O1046 2.266 . S
In1040 O1047 2.326 . S
In1040 O1048 2.266 . S
In1040 O1049 2.326 . S
In1040 O1051 2.294 . S
In1040 O1052 2.326 . S
O1041 In1040 2.294 . S
O1041 C1050 1.240 . S
O1042 In1040 2.326 . S
O1042 C1050 1.252 . S
C1043 O1046 1.252 . S
C1043 O1047 1.260 . S
C1044 O1051 1.240 . S
C1044 O1052 1.252 . S
C1045 O1048 1.252 . S
C1045 O1049 1.260 . S
O1046 In1040 2.266 . S
O1046 C1043 1.252 . S
O1047 In1040 2.326 . S
O1047 C1043 1.260 . S
O1048 In1040 2.266 . S
O1048 C1045 1.252 . S
O1049 In1040 2.326 . S
O1049 C1045 1.260 . S
C1050 O1041 1.240 . S
C1050 O1042 1.252 . S
O1051 In1040 2.294 . S
O1051 C1044 1.240 . S
O1052 In1040 2.326 . S
O1052 C1044 1.252 . S
In1053 O1054 2.294 . S
In1053 O1055 2.326 . S
In1053 O1059 2.266 . S
In1053 O1060 2.326 . S
In1053 O1061 2.266 . S
In1053 O1062 2.326 . S
In1053 O1064 2.294 . S
In1053 O1065 2.326 . S
O1054 In1053 2.294 . S
O1054 C1063 1.240 . S
O1055 In1053 2.326 . S
O1055 C1063 1.252 . S
C1056 O1059 1.252 . S
C1056 O1060 1.260 . S
C1057 O1064 1.240 . S
C1057 O1065 1.252 . S
C1058 O1061 1.252 . S
C1058 O1062 1.260 . S
O1059 In1053 2.266 . S
O1059 C1056 1.252 . S
O1060 In1053 2.326 . S
O1060 C1056 1.260 . S
O1061 In1053 2.266 . S
O1061 C1058 1.252 . S
O1062 In1053 2.326 . S
O1062 C1058 1.260 . S
C1063 O1054 1.240 . S
C1063 O1055 1.252 . S
O1064 In1053 2.294 . S
O1064 C1057 1.240 . S
O1065 In1053 2.326 . S
O1065 C1057 1.252 . S
In1066 O1067 2.294 . S
In1066 O1068 2.326 . S
In1066 O1072 2.266 . S
In1066 O1073 2.326 . S
In1066 O1074 2.266 . S
In1066 O1075 2.326 . S
In1066 O1077 2.294 . S
In1066 O1078 2.326 . S
O1067 In1066 2.294 . S
O1067 C1076 1.240 . S
O1068 In1066 2.326 . S
O1068 C1076 1.252 . S
C1069 O1072 1.252 . S
C1069 O1073 1.260 . S
C1070 O1077 1.240 . S
C1070 O1078 1.252 . S
C1071 O1074 1.252 . S
C1071 O1075 1.260 . S
O1072 In1066 2.266 . S
O1072 C1069 1.252 . S
O1073 In1066 2.326 . S
O1073 C1069 1.260 . S
O1074 In1066 2.266 . S
O1074 C1071 1.252 . S
O1075 In1066 2.326 . S
O1075 C1071 1.260 . S
C1076 O1067 1.240 . S
C1076 O1068 1.252 . S
O1077 In1066 2.294 . S
O1077 C1070 1.240 . S
O1078 In1066 2.326 . S
O1078 C1070 1.252 . S
In1079 O1080 2.294 . S
In1079 O1081 2.326 . S
In1079 O1085 2.266 . S
In1079 O1086 2.326 . S
In1079 O1087 2.266 . S
In1079 O1088 2.326 . S
In1079 O1090 2.294 . S
In1079 O1091 2.326 . S
O1080 In1079 2.294 . S
O1080 C1089 1.240 . S
O1081 In1079 2.326 . S
O1081 C1089 1.252 . S
C1082 O1085 1.252 . S
C1082 O1086 1.260 . S
C1083 O1090 1.240 . S
C1083 O1091 1.252 . S
C1084 O1087 1.252 . S
C1084 O1088 1.260 . S
O1085 In1079 2.266 . S
O1085 C1082 1.252 . S
O1086 In1079 2.326 . S
O1086 C1082 1.260 . S
O1087 In1079 2.266 . S
O1087 C1084 1.252 . S
O1088 In1079 2.326 . S
O1088 C1084 1.260 . S
C1089 O1080 1.240 . S
C1089 O1081 1.252 . S
O1090 In1079 2.294 . S
O1090 C1083 1.240 . S
O1091 In1079 2.326 . S
O1091 C1083 1.252 . S
In1092 O1093 2.294 . S
In1092 O1094 2.326 . S
In1092 O1098 2.266 . S
In1092 O1099 2.326 . S
In1092 O1100 2.266 . S
In1092 O1101 2.326 . S
In1092 O1103 2.294 . S
In1092 O1104 2.326 . S
O1093 In1092 2.294 . S
O1093 C1102 1.240 . S
O1094 In1092 2.326 . S
O1094 C1102 1.252 . S
C1095 O1098 1.252 . S
C1095 O1099 1.260 . S
C1096 O1103 1.240 . S
C1096 O1104 1.252 . S
C1097 O1100 1.252 . S
C1097 O1101 1.260 . S
O1098 In1092 2.266 . S
O1098 C1095 1.252 . S
O1099 In1092 2.326 . S
O1099 C1095 1.260 . S
O1100 In1092 2.266 . S
O1100 C1097 1.252 . S
O1101 In1092 2.326 . S
O1101 C1097 1.260 . S
C1102 O1093 1.240 . S
C1102 O1094 1.252 . S
O1103 In1092 2.294 . S
O1103 C1096 1.240 . S
O1104 In1092 2.326 . S
O1104 C1096 1.252 . S
In1105 O1106 2.294 . S
In1105 O1107 2.326 . S
In1105 O1111 2.266 . S
In1105 O1112 2.326 . S
In1105 O1113 2.266 . S
In1105 O1114 2.326 . S
In1105 O1116 2.294 . S
In1105 O1117 2.326 . S
O1106 In1105 2.294 . S
O1106 C1115 1.240 . S
O1107 In1105 2.326 . S
O1107 C1115 1.252 . S
C1108 O1111 1.252 . S
C1108 O1112 1.260 . S
C1109 O1116 1.240 . S
C1109 O1117 1.252 . S
C1110 O1113 1.252 . S
C1110 O1114 1.260 . S
O1111 In1105 2.266 . S
O1111 C1108 1.252 . S
O1112 In1105 2.326 . S
O1112 C1108 1.260 . S
O1113 In1105 2.266 . S
O1113 C1110 1.252 . S
O1114 In1105 2.326 . S
O1114 C1110 1.260 . S
C1115 O1106 1.240 . S
C1115 O1107 1.252 . S
O1116 In1105 2.294 . S
O1116 C1109 1.240 . S
O1117 In1105 2.326 . S
O1117 C1109 1.252 . S
In1118 O1119 2.294 . S
In1118 O1120 2.326 . S
In1118 O1124 2.266 . S
In1118 O1125 2.326 . S
In1118 O1126 2.266 . S
In1118 O1127 2.326 . S
In1118 O1129 2.294 . S
In1118 O1130 2.326 . S
O1119 In1118 2.294 . S
O1119 C1128 1.240 . S
O1120 In1118 2.326 . S
O1120 C1128 1.252 . S
C1121 O1124 1.252 . S
C1121 O1125 1.260 . S
C1122 O1129 1.240 . S
C1122 O1130 1.252 . S
C1123 O1126 1.252 . S
C1123 O1127 1.260 . S
O1124 In1118 2.266 . S
O1124 C1121 1.252 . S
O1125 In1118 2.326 . S
O1125 C1121 1.260 . S
O1126 In1118 2.266 . S
O1126 C1123 1.252 . S
O1127 In1118 2.326 . S
O1127 C1123 1.260 . S
C1128 O1119 1.240 . S
C1128 O1120 1.252 . S
O1129 In1118 2.294 . S
O1129 C1122 1.240 . S
O1130 In1118 2.326 . S
O1130 C1122 1.252 . S
In1131 O1132 2.294 . S
In1131 O1133 2.326 . S
In1131 O1137 2.266 . S
In1131 O1138 2.326 . S
In1131 O1139 2.266 . S
In1131 O1140 2.326 . S
In1131 O1142 2.294 . S
In1131 O1143 2.326 . S
O1132 In1131 2.294 . S
O1132 C1141 1.240 . S
O1133 In1131 2.326 . S
O1133 C1141 1.252 . S
C1134 O1137 1.252 . S
C1134 O1138 1.260 . S
C1135 O1142 1.240 . S
C1135 O1143 1.252 . S
C1136 O1139 1.252 . S
C1136 O1140 1.260 . S
O1137 In1131 2.266 . S
O1137 C1134 1.252 . S
O1138 In1131 2.326 . S
O1138 C1134 1.260 . S
O1139 In1131 2.266 . S
O1139 C1136 1.252 . S
O1140 In1131 2.326 . S
O1140 C1136 1.260 . S
C1141 O1132 1.240 . S
C1141 O1133 1.252 . S
O1142 In1131 2.294 . S
O1142 C1135 1.240 . S
O1143 In1131 2.326 . S
O1143 C1135 1.252 . S
In1144 O1145 2.294 . S
In1144 O1146 2.326 . S
In1144 O1150 2.266 . S
In1144 O1151 2.326 . S
In1144 O1152 2.266 . S
In1144 O1153 2.326 . S
In1144 O1155 2.294 . S
In1144 O1156 2.326 . S
O1145 In1144 2.294 . S
O1145 C1154 1.240 . S
O1146 In1144 2.326 . S
O1146 C1154 1.252 . S
C1147 O1150 1.252 . S
C1147 O1151 1.260 . S
C1148 O1155 1.240 . S
C1148 O1156 1.252 . S
C1149 O1152 1.252 . S
C1149 O1153 1.260 . S
O1150 In1144 2.266 . S
O1150 C1147 1.252 . S
O1151 In1144 2.326 . S
O1151 C1147 1.260 . S
O1152 In1144 2.266 . S
O1152 C1149 1.252 . S
O1153 In1144 2.326 . S
O1153 C1149 1.260 . S
C1154 O1145 1.240 . S
C1154 O1146 1.252 . S
O1155 In1144 2.294 . S
O1155 C1148 1.240 . S
O1156 In1144 2.326 . S
O1156 C1148 1.252 . S
In1157 O1158 2.294 . S
In1157 O1159 2.326 . S
In1157 O1163 2.266 . S
In1157 O1164 2.326 . S
In1157 O1165 2.266 . S
In1157 O1166 2.326 . S
In1157 O1168 2.294 . S
In1157 O1169 2.326 . S
O1158 In1157 2.294 . S
O1158 C1167 1.240 . S
O1159 In1157 2.326 . S
O1159 C1167 1.252 . S
C1160 O1163 1.252 . S
C1160 O1164 1.260 . S
C1161 O1168 1.240 . S
C1161 O1169 1.252 . S
C1162 O1165 1.252 . S
C1162 O1166 1.260 . S
O1163 In1157 2.266 . S
O1163 C1160 1.252 . S
O1164 In1157 2.326 . S
O1164 C1160 1.260 . S
O1165 In1157 2.266 . S
O1165 C1162 1.252 . S
O1166 In1157 2.326 . S
O1166 C1162 1.260 . S
C1167 O1158 1.240 . S
C1167 O1159 1.252 . S
O1168 In1157 2.294 . S
O1168 C1161 1.240 . S
O1169 In1157 2.326 . S
O1169 C1161 1.252 . S
In1170 O1171 2.294 . S
In1170 O1172 2.326 . S
In1170 O1176 2.266 . S
In1170 O1177 2.326 . S
In1170 O1178 2.266 . S
In1170 O1179 2.326 . S
In1170 O1181 2.294 . S
In1170 O1182 2.326 . S
O1171 In1170 2.294 . S
O1171 C1180 1.240 . S
O1172 In1170 2.326 . S
O1172 C1180 1.252 . S
C1173 O1176 1.252 . S
C1173 O1177 1.260 . S
C1174 O1181 1.240 . S
C1174 O1182 1.252 . S
C1175 O1178 1.252 . S
C1175 O1179 1.260 . S
O1176 In1170 2.266 . S
O1176 C1173 1.252 . S
O1177 In1170 2.326 . S
O1177 C1173 1.260 . S
O1178 In1170 2.266 . S
O1178 C1175 1.252 . S
O1179 In1170 2.326 . S
O1179 C1175 1.260 . S
C1180 O1171 1.240 . S
C1180 O1172 1.252 . S
O1181 In1170 2.294 . S
O1181 C1174 1.240 . S
O1182 In1170 2.326 . S
O1182 C1174 1.252 . S
In1183 O1184 2.294 . S
In1183 O1185 2.326 . S
In1183 O1189 2.266 . S
In1183 O1190 2.326 . S
In1183 O1191 2.266 . S
In1183 O1192 2.326 . S
In1183 O1194 2.294 . S
In1183 O1195 2.326 . S
O1184 In1183 2.294 . S
O1184 C1193 1.240 . S
O1185 In1183 2.326 . S
O1185 C1193 1.252 . S
C1186 O1189 1.252 . S
C1186 O1190 1.260 . S
C1187 O1194 1.240 . S
C1187 O1195 1.252 . S
C1188 O1191 1.252 . S
C1188 O1192 1.260 . S
O1189 In1183 2.266 . S
O1189 C1186 1.252 . S
O1190 In1183 2.326 . S
O1190 C1186 1.260 . S
O1191 In1183 2.266 . S
O1191 C1188 1.252 . S
O1192 In1183 2.326 . S
O1192 C1188 1.260 . S
C1193 O1184 1.240 . S
C1193 O1185 1.252 . S
O1194 In1183 2.294 . S
O1194 C1187 1.240 . S
O1195 In1183 2.326 . S
O1195 C1187 1.252 . S
In1196 O1197 2.294 . S
In1196 O1198 2.326 . S
In1196 O1202 2.266 . S
In1196 O1203 2.326 . S
In1196 O1204 2.266 . S
In1196 O1205 2.326 . S
In1196 O1207 2.294 . S
In1196 O1208 2.326 . S
O1197 In1196 2.294 . S
O1197 C1206 1.240 . S
O1198 In1196 2.326 . S
O1198 C1206 1.252 . S
C1199 O1202 1.252 . S
C1199 O1203 1.260 . S
C1200 O1207 1.240 . S
C1200 O1208 1.252 . S
C1201 O1204 1.252 . S
C1201 O1205 1.260 . S
O1202 In1196 2.266 . S
O1202 C1199 1.252 . S
O1203 In1196 2.326 . S
O1203 C1199 1.260 . S
O1204 In1196 2.266 . S
O1204 C1201 1.252 . S
O1205 In1196 2.326 . S
O1205 C1201 1.260 . S
C1206 O1197 1.240 . S
C1206 O1198 1.252 . S
O1207 In1196 2.294 . S
O1207 C1200 1.240 . S
O1208 In1196 2.326 . S
O1208 C1200 1.252 . S
In1209 O1210 2.294 . S
In1209 O1211 2.326 . S
In1209 O1215 2.266 . S
In1209 O1216 2.326 . S
In1209 O1217 2.266 . S
In1209 O1218 2.326 . S
In1209 O1220 2.294 . S
In1209 O1221 2.326 . S
O1210 In1209 2.294 . S
O1210 C1219 1.240 . S
O1211 In1209 2.326 . S
O1211 C1219 1.252 . S
C1212 O1215 1.252 . S
C1212 O1216 1.260 . S
C1213 O1220 1.240 . S
C1213 O1221 1.252 . S
C1214 O1217 1.252 . S
C1214 O1218 1.260 . S
O1215 In1209 2.266 . S
O1215 C1212 1.252 . S
O1216 In1209 2.326 . S
O1216 C1212 1.260 . S
O1217 In1209 2.266 . S
O1217 C1214 1.252 . S
O1218 In1209 2.326 . S
O1218 C1214 1.260 . S
C1219 O1210 1.240 . S
C1219 O1211 1.252 . S
O1220 In1209 2.294 . S
O1220 C1213 1.240 . S
O1221 In1209 2.326 . S
O1221 C1213 1.252 . S
In1222 O1223 2.294 . S
In1222 O1224 2.326 . S
In1222 O1228 2.266 . S
In1222 O1229 2.326 . S
In1222 O1230 2.266 . S
In1222 O1231 2.326 . S
In1222 O1233 2.294 . S
In1222 O1234 2.326 . S
O1223 In1222 2.294 . S
O1223 C1232 1.240 . S
O1224 In1222 2.326 . S
O1224 C1232 1.252 . S
C1225 O1228 1.252 . S
C1225 O1229 1.260 . S
C1226 O1233 1.240 . S
C1226 O1234 1.252 . S
C1227 O1230 1.252 . S
C1227 O1231 1.260 . S
O1228 In1222 2.266 . S
O1228 C1225 1.252 . S
O1229 In1222 2.326 . S
O1229 C1225 1.260 . S
O1230 In1222 2.266 . S
O1230 C1227 1.252 . S
O1231 In1222 2.326 . S
O1231 C1227 1.260 . S
C1232 O1223 1.240 . S
C1232 O1224 1.252 . S
O1233 In1222 2.294 . S
O1233 C1226 1.240 . S
O1234 In1222 2.326 . S
O1234 C1226 1.252 . S
In1235 O1236 2.294 . S
In1235 O1237 2.326 . S
In1235 O1241 2.266 . S
In1235 O1242 2.326 . S
In1235 O1243 2.266 . S
In1235 O1244 2.326 . S
In1235 O1246 2.294 . S
In1235 O1247 2.326 . S
O1236 In1235 2.294 . S
O1236 C1245 1.240 . S
O1237 In1235 2.326 . S
O1237 C1245 1.252 . S
C1238 O1241 1.252 . S
C1238 O1242 1.260 . S
C1239 O1246 1.240 . S
C1239 O1247 1.252 . S
C1240 O1243 1.252 . S
C1240 O1244 1.260 . S
O1241 In1235 2.266 . S
O1241 C1238 1.252 . S
O1242 In1235 2.326 . S
O1242 C1238 1.260 . S
O1243 In1235 2.266 . S
O1243 C1240 1.252 . S
O1244 In1235 2.326 . S
O1244 C1240 1.260 . S
C1245 O1236 1.240 . S
C1245 O1237 1.252 . S
O1246 In1235 2.294 . S
O1246 C1239 1.240 . S
O1247 In1235 2.326 . S
O1247 C1239 1.252 . S
H1248 C1254 0.930 . S
H1249 C1257 0.930 . S
H1250 C1258 0.930 . S
H1251 C1259 0.930 . S
H1252 C1262 0.930 . S
H1253 C1263 0.930 . S
C1254 H1248 0.930 . S
C1254 C1255 1.355 . S
C1254 C1256 1.415 . S
C1255 C1254 1.355 . S
C1255 C1257 1.419 . S
C1256 C1254 1.415 . S
C1256 C1261 1.425 . S
C1256 C1263 1.409 . S
C1257 H1249 0.930 . S
C1257 C1255 1.419 . S
C1257 C1258 1.362 . S
C1258 H1250 0.930 . S
C1258 C1257 1.362 . S
C1258 C1261 1.409 . S
C1259 H1251 0.930 . S
C1259 C1260 1.355 . S
C1259 C1261 1.415 . S
C1260 C1259 1.355 . S
C1260 C1262 1.419 . S
C1261 C1256 1.425 . S
C1261 C1258 1.409 . S
C1261 C1259 1.415 . S
C1262 H1252 0.930 . S
C1262 C1260 1.419 . S
C1262 C1263 1.362 . S
C1263 H1253 0.930 . S
C1263 C1256 1.409 . S
C1263 C1262 1.362 . S
H1264 C1270 0.930 . S
H1265 C1273 0.930 . S
H1266 C1274 0.930 . S
H1267 C1275 0.930 . S
H1268 C1278 0.930 . S
H1269 C1279 0.930 . S
C1270 H1264 0.930 . S
C1270 C1271 1.355 . S
C1270 C1272 1.415 . S
C1271 C1270 1.355 . S
C1271 C1273 1.419 1_455 S
C1272 C1270 1.415 . S
C1272 C1277 1.425 . S
C1272 C1279 1.409 . S
C1273 H1265 0.930 . S
C1273 C1271 1.419 1_655 S
C1273 C1274 1.362 1_655 S
C1274 H1266 0.930 . S
C1274 C1273 1.362 1_455 S
C1274 C1277 1.409 . S
C1275 H1267 0.930 . S
C1275 C1276 1.355 . S
C1275 C1277 1.415 . S
C1276 C1275 1.355 . S
C1276 C1278 1.419 . S
C1277 C1272 1.425 . S
C1277 C1274 1.409 . S
C1277 C1275 1.415 . S
C1278 H1268 0.930 . S
C1278 C1276 1.419 . S
C1278 C1279 1.362 . S
C1279 H1269 0.930 . S
C1279 C1272 1.409 . S
C1279 C1278 1.362 . S
H1280 C1286 0.930 . S
H1281 C1289 0.930 . S
H1282 C1290 0.930 . S
H1283 C1291 0.930 . S
H1284 C1294 0.930 . S
H1285 C1295 0.930 . S
C1286 H1280 0.930 . S
C1286 C1287 1.355 . S
C1286 C1288 1.415 . S
C1287 C1286 1.355 . S
C1287 C1289 1.419 . S
C1288 C1286 1.415 . S
C1288 C1293 1.425 . S
C1288 C1295 1.409 . S
C1289 H1281 0.930 . S
C1289 C1287 1.419 . S
C1289 C1290 1.362 . S
C1290 H1282 0.930 . S
C1290 C1289 1.362 . S
C1290 C1293 1.409 . S
C1291 H1283 0.930 . S
C1291 C1292 1.355 . S
C1291 C1293 1.415 . S
C1292 C1291 1.355 . S
C1292 C1294 1.419 . S
C1293 C1288 1.425 . S
C1293 C1290 1.409 . S
C1293 C1291 1.415 . S
C1294 H1284 0.930 . S
C1294 C1292 1.419 . S
C1294 C1295 1.362 . S
C1295 H1285 0.930 . S
C1295 C1288 1.409 . S
C1295 C1294 1.362 . S
H1296 C1302 0.930 . S
H1297 C1305 0.930 . S
H1298 C1306 0.930 . S
H1299 C1307 0.930 . S
H1300 C1310 0.930 . S
H1301 C1311 0.930 . S
C1302 H1296 0.930 . S
C1302 C1303 1.355 . S
C1302 C1304 1.415 . S
C1303 C1302 1.355 . S
C1303 C1305 1.419 . S
C1304 C1302 1.415 . S
C1304 C1309 1.425 . S
C1304 C1311 1.409 . S
C1305 H1297 0.930 . S
C1305 C1303 1.419 . S
C1305 C1306 1.362 . S
C1306 H1298 0.930 . S
C1306 C1305 1.362 . S
C1306 C1309 1.409 . S
C1307 H1299 0.930 . S
C1307 C1308 1.355 . S
C1307 C1309 1.415 . S
C1308 C1307 1.355 . S
C1308 C1310 1.419 . S
C1309 C1304 1.425 . S
C1309 C1306 1.409 . S
C1309 C1307 1.415 . S
C1310 H1300 0.930 . S
C1310 C1308 1.419 . S
C1310 C1311 1.362 . S
C1311 H1301 0.930 . S
C1311 C1304 1.409 . S
C1311 C1310 1.362 . S
H1312 C1318 0.930 . S
H1313 C1321 0.930 . S
H1314 C1322 0.930 . S
H1315 C1323 0.930 . S
H1316 C1326 0.930 . S
H1317 C1327 0.930 . S
C1318 H1312 0.930 . S
C1318 C1319 1.355 . S
C1318 C1320 1.415 . S
C1319 C1318 1.355 . S
C1319 C1321 1.419 . S
C1320 C1318 1.415 . S
C1320 C1325 1.425 . S
C1320 C1327 1.409 . S
C1321 H1313 0.930 . S
C1321 C1319 1.419 . S
C1321 C1322 1.362 . S
C1322 H1314 0.930 . S
C1322 C1321 1.362 . S
C1322 C1325 1.409 . S
C1323 H1315 0.930 . S
C1323 C1324 1.355 . S
C1323 C1325 1.415 . S
C1324 C1323 1.355 . S
C1324 C1326 1.419 . S
C1325 C1320 1.425 . S
C1325 C1322 1.409 . S
C1325 C1323 1.415 . S
C1326 H1316 0.930 . S
C1326 C1324 1.419 . S
C1326 C1327 1.362 . S
C1327 H1317 0.930 . S
C1327 C1320 1.409 . S
C1327 C1326 1.362 . S
H1328 C1334 0.930 . S
H1329 C1337 0.930 . S
H1330 C1338 0.930 . S
H1331 C1339 0.930 . S
H1332 C1342 0.930 . S
H1333 C1343 0.930 . S
C1334 H1328 0.930 . S
C1334 C1335 1.355 . S
C1334 C1336 1.415 . S
C1335 C1334 1.355 . S
C1335 C1337 1.419 . S
C1336 C1334 1.415 . S
C1336 C1341 1.425 . S
C1336 C1343 1.409 . S
C1337 H1329 0.930 . S
C1337 C1335 1.419 . S
C1337 C1338 1.362 . S
C1338 H1330 0.930 . S
C1338 C1337 1.362 . S
C1338 C1341 1.409 . S
C1339 H1331 0.930 . S
C1339 C1340 1.355 . S
C1339 C1341 1.415 . S
C1340 C1339 1.355 . S
C1340 C1342 1.419 . S
C1341 C1336 1.425 . S
C1341 C1338 1.409 . S
C1341 C1339 1.415 . S
C1342 H1332 0.930 . S
C1342 C1340 1.419 . S
C1342 C1343 1.362 . S
C1343 H1333 0.930 . S
C1343 C1336 1.409 . S
C1343 C1342 1.362 . S
H1344 C1350 0.930 . S
H1345 C1353 0.930 . S
H1346 C1354 0.930 . S
H1347 C1355 0.930 . S
H1348 C1358 0.930 . S
H1349 C1359 0.930 . S
C1350 H1344 0.930 . S
C1350 C1351 1.355 . S
C1350 C1352 1.415 . S
C1351 C1350 1.355 . S
C1351 C1353 1.419 . S
C1352 C1350 1.415 . S
C1352 C1357 1.425 . S
C1352 C1359 1.409 . S
C1353 H1345 0.930 . S
C1353 C1351 1.419 . S
C1353 C1354 1.362 . S
C1354 H1346 0.930 . S
C1354 C1353 1.362 . S
C1354 C1357 1.409 . S
C1355 H1347 0.930 . S
C1355 C1356 1.355 . S
C1355 C1357 1.415 . S
C1356 C1355 1.355 . S
C1356 C1358 1.419 . S
C1357 C1352 1.425 . S
C1357 C1354 1.409 . S
C1357 C1355 1.415 . S
C1358 H1348 0.930 . S
C1358 C1356 1.419 . S
C1358 C1359 1.362 . S
C1359 H1349 0.930 . S
C1359 C1352 1.409 . S
C1359 C1358 1.362 . S
H1360 C1366 0.930 . S
H1361 C1369 0.930 . S
H1362 C1370 0.930 . S
H1363 C1371 0.930 . S
H1364 C1374 0.930 . S
H1365 C1375 0.930 . S
C1366 H1360 0.930 . S
C1366 C1367 1.355 . S
C1366 C1368 1.415 . S
C1367 C1366 1.355 . S
C1367 C1369 1.419 . S
C1368 C1366 1.415 . S
C1368 C1373 1.425 . S
C1368 C1375 1.409 . S
C1369 H1361 0.930 . S
C1369 C1367 1.419 . S
C1369 C1370 1.362 . S
C1370 H1362 0.930 . S
C1370 C1369 1.362 . S
C1370 C1373 1.409 . S
C1371 H1363 0.930 . S
C1371 C1372 1.355 . S
C1371 C1373 1.415 . S
C1372 C1371 1.355 . S
C1372 C1374 1.419 . S
C1373 C1368 1.425 . S
C1373 C1370 1.409 . S
C1373 C1371 1.415 . S
C1374 H1364 0.930 . S
C1374 C1372 1.419 . S
C1374 C1375 1.362 . S
C1375 H1365 0.930 . S
C1375 C1368 1.409 . S
C1375 C1374 1.362 . S
H1376 C1382 0.930 . S
H1377 C1385 0.930 . S
H1378 C1386 0.930 . S
H1379 C1387 0.930 . S
H1380 C1390 0.930 . S
H1381 C1391 0.930 . S
C1382 H1376 0.930 . S
C1382 C1383 1.355 . S
C1382 C1384 1.415 . S
C1383 C1382 1.355 . S
C1383 C1385 1.419 . S
C1384 C1382 1.415 . S
C1384 C1389 1.425 . S
C1384 C1391 1.409 . S
C1385 H1377 0.930 . S
C1385 C1383 1.419 . S
C1385 C1386 1.362 . S
C1386 H1378 0.930 . S
C1386 C1385 1.362 . S
C1386 C1389 1.409 . S
C1387 H1379 0.930 . S
C1387 C1388 1.355 . S
C1387 C1389 1.415 . S
C1388 C1387 1.355 . S
C1388 C1390 1.419 . S
C1389 C1384 1.425 . S
C1389 C1386 1.409 . S
C1389 C1387 1.415 . S
C1390 H1380 0.930 . S
C1390 C1388 1.419 . S
C1390 C1391 1.362 . S
C1391 H1381 0.930 . S
C1391 C1384 1.409 . S
C1391 C1390 1.362 . S
H1392 C1398 0.930 . S
H1393 C1401 0.930 . S
H1394 C1402 0.930 . S
H1395 C1403 0.930 . S
H1396 C1406 0.930 . S
H1397 C1407 0.930 . S
C1398 H1392 0.930 . S
C1398 C1399 1.355 . S
C1398 C1400 1.415 . S
C1399 C1398 1.355 . S
C1399 C1401 1.419 . S
C1400 C1398 1.415 . S
C1400 C1405 1.425 . S
C1400 C1407 1.409 . S
C1401 H1393 0.930 . S
C1401 C1399 1.419 . S
C1401 C1402 1.362 . S
C1402 H1394 0.930 . S
C1402 C1401 1.362 . S
C1402 C1405 1.409 . S
C1403 H1395 0.930 . S
C1403 C1404 1.355 . S
C1403 C1405 1.415 . S
C1404 C1403 1.355 . S
C1404 C1406 1.419 . S
C1405 C1400 1.425 . S
C1405 C1402 1.409 . S
C1405 C1403 1.415 . S
C1406 H1396 0.930 . S
C1406 C1404 1.419 . S
C1406 C1407 1.362 . S
C1407 H1397 0.930 . S
C1407 C1400 1.409 . S
C1407 C1406 1.362 . S
H1408 C1414 0.930 . S
H1409 C1417 0.930 . S
H1410 C1418 0.930 . S
H1411 C1419 0.930 . S
H1412 C1422 0.930 . S
H1413 C1423 0.930 . S
C1414 H1408 0.930 . S
C1414 C1415 1.355 . S
C1414 C1416 1.415 . S
C1415 C1414 1.355 . S
C1415 C1417 1.419 . S
C1416 C1414 1.415 . S
C1416 C1421 1.425 . S
C1416 C1423 1.409 . S
C1417 H1409 0.930 . S
C1417 C1415 1.419 . S
C1417 C1418 1.362 . S
C1418 H1410 0.930 . S
C1418 C1417 1.362 . S
C1418 C1421 1.409 . S
C1419 H1411 0.930 . S
C1419 C1420 1.355 . S
C1419 C1421 1.415 . S
C1420 C1419 1.355 . S
C1420 C1422 1.419 . S
C1421 C1416 1.425 . S
C1421 C1418 1.409 . S
C1421 C1419 1.415 . S
C1422 H1412 0.930 . S
C1422 C1420 1.419 . S
C1422 C1423 1.362 . S
C1423 H1413 0.930 . S
C1423 C1416 1.409 . S
C1423 C1422 1.362 . S
H1424 C1430 0.930 . S
H1425 C1433 0.930 . S
H1426 C1434 0.930 . S
H1427 C1435 0.930 . S
H1428 C1438 0.930 . S
H1429 C1439 0.930 . S
C1430 H1424 0.930 . S
C1430 C1431 1.355 . S
C1430 C1432 1.415 . S
C1431 C1430 1.355 . S
C1431 C1433 1.419 . S
C1432 C1430 1.415 . S
C1432 C1437 1.425 . S
C1432 C1439 1.409 . S
C1433 H1425 0.930 . S
C1433 C1431 1.419 . S
C1433 C1434 1.362 . S
C1434 H1426 0.930 . S
C1434 C1433 1.362 . S
C1434 C1437 1.409 . S
C1435 H1427 0.930 . S
C1435 C1436 1.355 . S
C1435 C1437 1.415 . S
C1436 C1435 1.355 . S
C1436 C1438 1.419 1_556 S
C1437 C1432 1.425 . S
C1437 C1434 1.409 . S
C1437 C1435 1.415 . S
C1438 H1428 0.930 . S
C1438 C1436 1.419 1_554 S
C1438 C1439 1.362 1_554 S
C1439 H1429 0.930 . S
C1439 C1432 1.409 . S
C1439 C1438 1.362 1_556 S
H1440 C1446 0.930 . S
H1441 C1449 0.930 . S
H1442 C1450 0.930 . S
H1443 C1451 0.930 . S
H1444 C1454 0.930 . S
H1445 C1455 0.930 . S
C1446 H1440 0.930 . S
C1446 C1447 1.355 . S
C1446 C1448 1.415 . S
C1447 C1446 1.355 . S
C1447 C1449 1.419 . S
C1448 C1446 1.415 . S
C1448 C1453 1.425 . S
C1448 C1455 1.409 . S
C1449 H1441 0.930 . S
C1449 C1447 1.419 . S
C1449 C1450 1.362 . S
C1450 H1442 0.930 . S
C1450 C1449 1.362 . S
C1450 C1453 1.409 . S
C1451 H1443 0.930 . S
C1451 C1452 1.355 . S
C1451 C1453 1.415 . S
C1452 C1451 1.355 . S
C1452 C1454 1.419 . S
C1453 C1448 1.425 . S
C1453 C1450 1.409 . S
C1453 C1451 1.415 . S
C1454 H1444 0.930 . S
C1454 C1452 1.419 . S
C1454 C1455 1.362 . S
C1455 H1445 0.930 . S
C1455 C1448 1.409 . S
C1455 C1454 1.362 . S
H1456 C1462 0.930 . S
H1457 C1465 0.930 . S
H1458 C1466 0.930 . S
H1459 C1467 0.930 . S
H1460 C1470 0.930 . S
H1461 C1471 0.930 . S
C1462 H1456 0.930 . S
C1462 C1463 1.355 . S
C1462 C1464 1.415 . S
C1463 C1462 1.355 . S
C1463 C1465 1.419 . S
C1464 C1462 1.415 . S
C1464 C1469 1.425 . S
C1464 C1471 1.409 . S
C1465 H1457 0.930 . S
C1465 C1463 1.419 . S
C1465 C1466 1.362 . S
C1466 H1458 0.930 . S
C1466 C1465 1.362 . S
C1466 C1469 1.409 . S
C1467 H1459 0.930 . S
C1467 C1468 1.355 . S
C1467 C1469 1.415 . S
C1468 C1467 1.355 . S
C1468 C1470 1.419 . S
C1469 C1464 1.425 . S
C1469 C1466 1.409 . S
C1469 C1467 1.415 . S
C1470 H1460 0.930 . S
C1470 C1468 1.419 . S
C1470 C1471 1.362 . S
C1471 H1461 0.930 . S
C1471 C1464 1.409 . S
C1471 C1470 1.362 . S
H1472 C1478 0.930 . S
H1473 C1481 0.930 . S
H1474 C1482 0.930 . S
H1475 C1483 0.930 . S
H1476 C1486 0.930 . S
H1477 C1487 0.930 . S
C1478 H1472 0.930 . S
C1478 C1479 1.355 . S
C1478 C1480 1.415 . S
C1479 C1478 1.355 . S
C1479 C1481 1.419 . S
C1480 C1478 1.415 . S
C1480 C1485 1.425 . S
C1480 C1487 1.409 . S
C1481 H1473 0.930 . S
C1481 C1479 1.419 . S
C1481 C1482 1.362 . S
C1482 H1474 0.930 . S
C1482 C1481 1.362 . S
C1482 C1485 1.409 . S
C1483 H1475 0.930 . S
C1483 C1484 1.355 . S
C1483 C1485 1.415 . S
C1484 C1483 1.355 . S
C1484 C1486 1.419 . S
C1485 C1480 1.425 . S
C1485 C1482 1.409 . S
C1485 C1483 1.415 . S
C1486 H1476 0.930 . S
C1486 C1484 1.419 . S
C1486 C1487 1.362 . S
C1487 H1477 0.930 . S
C1487 C1480 1.409 . S
C1487 C1486 1.362 . S
H1488 C1494 0.930 . S
H1489 C1497 0.930 . S
H1490 C1498 0.930 . S
H1491 C1499 0.930 . S
H1492 C1502 0.930 1_556 S
H1493 C1503 0.930 . S
C1494 H1488 0.930 . S
C1494 C1495 1.355 . S
C1494 C1496 1.415 . S
C1495 C1494 1.355 . S
C1495 C1497 1.419 . S
C1496 C1494 1.415 . S
C1496 C1501 1.425 . S
C1496 C1503 1.409 . S
C1497 H1489 0.930 . S
C1497 C1495 1.419 . S
C1497 C1498 1.362 . S
C1498 H1490 0.930 . S
C1498 C1497 1.362 . S
C1498 C1501 1.409 . S
C1499 H1491 0.930 . S
C1499 C1500 1.355 . S
C1499 C1501 1.415 . S
C1500 C1499 1.355 . S
C1500 C1502 1.419 . S
C1501 C1496 1.425 . S
C1501 C1498 1.409 . S
C1501 C1499 1.415 . S
C1502 H1492 0.930 1_554 S
C1502 C1500 1.419 . S
C1502 C1503 1.362 . S
C1503 H1493 0.930 . S
C1503 C1496 1.409 . S
C1503 C1502 1.362 . S
H1504 C1510 0.930 . S
H1505 C1513 0.930 . S
H1506 C1514 0.930 . S
H1507 C1515 0.930 . S
H1508 C1518 0.930 . S
H1509 C1519 0.930 . S
C1510 H1504 0.930 . S
C1510 C1511 1.355 . S
C1510 C1512 1.415 . S
C1511 C1510 1.355 . S
C1511 C1513 1.419 . S
C1512 C1510 1.415 . S
C1512 C1517 1.425 . S
C1512 C1519 1.409 . S
C1513 H1505 0.930 . S
C1513 C1511 1.419 . S
C1513 C1514 1.362 . S
C1514 H1506 0.930 . S
C1514 C1513 1.362 . S
C1514 C1517 1.409 . S
C1515 H1507 0.930 . S
C1515 C1516 1.355 . S
C1515 C1517 1.415 . S
C1516 C1515 1.355 . S
C1516 C1518 1.419 . S
C1517 C1512 1.425 . S
C1517 C1514 1.409 . S
C1517 C1515 1.415 . S
C1518 H1508 0.930 . S
C1518 C1516 1.419 . S
C1518 C1519 1.362 . S
C1519 H1509 0.930 . S
C1519 C1512 1.409 . S
C1519 C1518 1.362 . S
H1520 C1526 0.930 . S
H1521 C1529 0.930 . S
H1522 C1530 0.930 . S
H1523 C1531 0.930 . S
H1524 C1534 0.930 . S
H1525 C1535 0.930 . S
C1526 H1520 0.930 . S
C1526 C1527 1.355 . S
C1526 C1528 1.415 . S
C1527 C1526 1.355 . S
C1527 C1529 1.419 . S
C1528 C1526 1.415 . S
C1528 C1533 1.425 . S
C1528 C1535 1.409 . S
C1529 H1521 0.930 . S
C1529 C1527 1.419 . S
C1529 C1530 1.362 . S
C1530 H1522 0.930 . S
C1530 C1529 1.362 . S
C1530 C1533 1.409 . S
C1531 H1523 0.930 . S
C1531 C1532 1.355 . S
C1531 C1533 1.415 . S
C1532 C1531 1.355 . S
C1532 C1534 1.419 . S
C1533 C1528 1.425 . S
C1533 C1530 1.409 . S
C1533 C1531 1.415 . S
C1534 H1524 0.930 . S
C1534 C1532 1.419 . S
C1534 C1535 1.362 . S
C1535 H1525 0.930 . S
C1535 C1528 1.409 . S
C1535 C1534 1.362 . S
H1536 C1542 0.930 . S
H1537 C1545 0.930 . S
H1538 C1546 0.930 . S
H1539 C1547 0.930 . S
H1540 C1550 0.930 . S
H1541 C1551 0.930 . S
C1542 H1536 0.930 . S
C1542 C1543 1.355 . S
C1542 C1544 1.415 . S
C1543 C1542 1.355 . S
C1543 C1545 1.419 . S
C1544 C1542 1.415 . S
C1544 C1549 1.425 . S
C1544 C1551 1.409 . S
C1545 H1537 0.930 . S
C1545 C1543 1.419 . S
C1545 C1546 1.362 . S
C1546 H1538 0.930 . S
C1546 C1545 1.362 . S
C1546 C1549 1.409 . S
C1547 H1539 0.930 . S
C1547 C1548 1.355 . S
C1547 C1549 1.415 . S
C1548 C1547 1.355 . S
C1548 C1550 1.419 . S
C1549 C1544 1.425 . S
C1549 C1546 1.409 . S
C1549 C1547 1.415 . S
C1550 H1540 0.930 . S
C1550 C1548 1.419 . S
C1550 C1551 1.362 . S
C1551 H1541 0.930 . S
C1551 C1544 1.409 . S
C1551 C1550 1.362 . S
H1552 C1558 0.930 . S
H1553 C1561 0.930 . S
H1554 C1562 0.930 . S
H1555 C1563 0.930 . S
H1556 C1566 0.930 . S
H1557 C1567 0.930 . S
C1558 H1552 0.930 . S
C1558 C1559 1.355 . S
C1558 C1560 1.415 . S
C1559 C1558 1.355 . S
C1559 C1561 1.419 . S
C1560 C1558 1.415 . S
C1560 C1565 1.425 . S
C1560 C1567 1.409 . S
C1561 H1553 0.930 . S
C1561 C1559 1.419 . S
C1561 C1562 1.362 . S
C1562 H1554 0.930 . S
C1562 C1561 1.362 . S
C1562 C1565 1.409 . S
C1563 H1555 0.930 . S
C1563 C1564 1.355 . S
C1563 C1565 1.415 . S
C1564 C1563 1.355 . S
C1564 C1566 1.419 . S
C1565 C1560 1.425 . S
C1565 C1562 1.409 . S
C1565 C1563 1.415 . S
C1566 H1556 0.930 . S
C1566 C1564 1.419 . S
C1566 C1567 1.362 . S
C1567 H1557 0.930 . S
C1567 C1560 1.409 . S
C1567 C1566 1.362 . S
H1568 C1574 0.930 . S
H1569 C1577 0.930 . S
H1570 C1578 0.930 . S
H1571 C1579 0.930 . S
H1572 C1582 0.930 . S
H1573 C1583 0.930 . S
C1574 H1568 0.930 . S
C1574 C1575 1.355 . S
C1574 C1576 1.415 . S
C1575 C1574 1.355 . S
C1575 C1577 1.419 . S
C1576 C1574 1.415 . S
C1576 C1581 1.425 . S
C1576 C1583 1.409 . S
C1577 H1569 0.930 . S
C1577 C1575 1.419 . S
C1577 C1578 1.362 . S
C1578 H1570 0.930 . S
C1578 C1577 1.362 . S
C1578 C1581 1.409 . S
C1579 H1571 0.930 . S
C1579 C1580 1.355 . S
C1579 C1581 1.415 . S
C1580 C1579 1.355 . S
C1580 C1582 1.419 . S
C1581 C1576 1.425 . S
C1581 C1578 1.409 . S
C1581 C1579 1.415 . S
C1582 H1572 0.930 . S
C1582 C1580 1.419 . S
C1582 C1583 1.362 . S
C1583 H1573 0.930 . S
C1583 C1576 1.409 . S
C1583 C1582 1.362 . S
H1584 C1590 0.930 . S
H1585 C1593 0.930 . S
H1586 C1594 0.930 . S
H1587 C1595 0.930 . S
H1588 C1598 0.930 . S
H1589 C1599 0.930 . S
C1590 H1584 0.930 . S
C1590 C1591 1.355 . S
C1590 C1592 1.415 . S
C1591 C1590 1.355 . S
C1591 C1593 1.419 . S
C1592 C1590 1.415 . S
C1592 C1597 1.425 . S
C1592 C1599 1.409 . S
C1593 H1585 0.930 . S
C1593 C1591 1.419 . S
C1593 C1594 1.362 . S
C1594 H1586 0.930 . S
C1594 C1593 1.362 . S
C1594 C1597 1.409 . S
C1595 H1587 0.930 . S
C1595 C1596 1.355 . S
C1595 C1597 1.415 . S
C1596 C1595 1.355 . S
C1596 C1598 1.419 . S
C1597 C1592 1.425 . S
C1597 C1594 1.409 . S
C1597 C1595 1.415 . S
C1598 H1588 0.930 . S
C1598 C1596 1.419 . S
C1598 C1599 1.362 . S
C1599 H1589 0.930 . S
C1599 C1592 1.409 . S
C1599 C1598 1.362 . S
H1600 C1606 0.930 . S
H1601 C1609 0.930 . S
H1602 C1610 0.930 . S
H1603 C1611 0.930 . S
H1604 C1614 0.930 . S
H1605 C1615 0.930 . S
C1606 H1600 0.930 . S
C1606 C1607 1.355 . S
C1606 C1608 1.415 . S
C1607 C1606 1.355 . S
C1607 C1609 1.419 . S
C1608 C1606 1.415 . S
C1608 C1613 1.425 . S
C1608 C1615 1.409 . S
C1609 H1601 0.930 . S
C1609 C1607 1.419 . S
C1609 C1610 1.362 . S
C1610 H1602 0.930 . S
C1610 C1609 1.362 . S
C1610 C1613 1.409 . S
C1611 H1603 0.930 . S
C1611 C1612 1.355 . S
C1611 C1613 1.415 . S
C1612 C1611 1.355 . S
C1612 C1614 1.419 . S
C1613 C1608 1.425 . S
C1613 C1610 1.409 . S
C1613 C1611 1.415 . S
C1614 H1604 0.930 . S
C1614 C1612 1.419 . S
C1614 C1615 1.362 . S
C1615 H1605 0.930 . S
C1615 C1608 1.409 . S
C1615 C1614 1.362 . S
H1616 C1622 0.930 . S
H1617 C1625 0.930 . S
H1618 C1626 0.930 . S
H1619 C1627 0.930 . S
H1620 C1630 0.930 . S
H1621 C1631 0.930 . S
C1622 H1616 0.930 . S
C1622 C1623 1.355 . S
C1622 C1624 1.415 . S
C1623 C1622 1.355 . S
C1623 C1625 1.419 . S
C1624 C1622 1.415 . S
C1624 C1629 1.425 . S
C1624 C1631 1.409 . S
C1625 H1617 0.930 . S
C1625 C1623 1.419 . S
C1625 C1626 1.362 . S
C1626 H1618 0.930 . S
C1626 C1625 1.362 . S
C1626 C1629 1.409 . S
C1627 H1619 0.930 . S
C1627 C1628 1.355 . S
C1627 C1629 1.415 . S
C1628 C1627 1.355 . S
C1628 C1630 1.419 . S
C1629 C1624 1.425 . S
C1629 C1626 1.409 . S
C1629 C1627 1.415 . S
C1630 H1620 0.930 . S
C1630 C1628 1.419 . S
C1630 C1631 1.362 . S
C1631 H1621 0.930 . S
C1631 C1624 1.409 . S
C1631 C1630 1.362 . S
H1632 C1638 0.930 . S
H1633 C1641 0.930 . S
H1634 C1642 0.930 . S
H1635 C1643 0.930 . S
H1636 C1646 0.930 . S
H1637 C1647 0.930 . S
C1638 H1632 0.930 . S
C1638 C1639 1.355 . S
C1638 C1640 1.415 . S
C1639 C1638 1.355 . S
C1639 C1641 1.419 . S
C1640 C1638 1.415 . S
C1640 C1645 1.425 . S
C1640 C1647 1.409 . S
C1641 H1633 0.930 . S
C1641 C1639 1.419 . S
C1641 C1642 1.362 . S
C1642 H1634 0.930 . S
C1642 C1641 1.362 . S
C1642 C1645 1.409 . S
C1643 H1635 0.930 . S
C1643 C1644 1.355 . S
C1643 C1645 1.415 . S
C1644 C1643 1.355 . S
C1644 C1646 1.419 . S
C1645 C1640 1.425 . S
C1645 C1642 1.409 . S
C1645 C1643 1.415 . S
C1646 H1636 0.930 . S
C1646 C1644 1.419 . S
C1646 C1647 1.362 . S
C1647 H1637 0.930 . S
C1647 C1640 1.409 . S
C1647 C1646 1.362 . S
H1648 C1654 0.930 . S
H1649 C1657 0.930 . S
H1650 C1658 0.930 . S
H1651 C1659 0.930 . S
H1652 C1662 0.930 . S
H1653 C1663 0.930 . S
C1654 H1648 0.930 . S
C1654 C1655 1.355 . S
C1654 C1656 1.415 . S
C1655 C1654 1.355 . S
C1655 C1657 1.419 1_655 S
C1656 C1654 1.415 . S
C1656 C1661 1.425 . S
C1656 C1663 1.409 . S
C1657 H1649 0.930 . S
C1657 C1655 1.419 1_455 S
C1657 C1658 1.362 1_455 S
C1658 H1650 0.930 . S
C1658 C1657 1.362 1_655 S
C1658 C1661 1.409 . S
C1659 H1651 0.930 . S
C1659 C1660 1.355 . S
C1659 C1661 1.415 . S
C1660 C1659 1.355 . S
C1660 C1662 1.419 . S
C1661 C1656 1.425 . S
C1661 C1658 1.409 . S
C1661 C1659 1.415 . S
C1662 H1652 0.930 . S
C1662 C1660 1.419 . S
C1662 C1663 1.362 . S
C1663 H1653 0.930 . S
C1663 C1656 1.409 . S
C1663 C1662 1.362 . S
H1664 C1670 0.930 . S
H1665 C1673 0.930 . S
H1666 C1674 0.930 . S
H1667 C1675 0.930 . S
H1668 C1678 0.930 . S
H1669 C1679 0.930 . S
C1670 H1664 0.930 . S
C1670 C1671 1.355 . S
C1670 C1672 1.415 . S
C1671 C1670 1.355 . S
C1671 C1673 1.419 . S
C1672 C1670 1.415 . S
C1672 C1677 1.425 . S
C1672 C1679 1.409 . S
C1673 H1665 0.930 . S
C1673 C1671 1.419 . S
C1673 C1674 1.362 . S
C1674 H1666 0.930 . S
C1674 C1673 1.362 . S
C1674 C1677 1.409 . S
C1675 H1667 0.930 . S
C1675 C1676 1.355 . S
C1675 C1677 1.415 . S
C1676 C1675 1.355 . S
C1676 C1678 1.419 . S
C1677 C1672 1.425 . S
C1677 C1674 1.409 . S
C1677 C1675 1.415 . S
C1678 H1668 0.930 . S
C1678 C1676 1.419 . S
C1678 C1679 1.362 . S
C1679 H1669 0.930 . S
C1679 C1672 1.409 . S
C1679 C1678 1.362 . S
H1680 C1686 0.930 . S
H1681 C1689 0.930 . S
H1682 C1690 0.930 . S
H1683 C1691 0.930 . S
H1684 C1694 0.930 . S
H1685 C1695 0.930 . S
C1686 H1680 0.930 . S
C1686 C1687 1.355 . S
C1686 C1688 1.415 . S
C1687 C1686 1.355 . S
C1687 C1689 1.419 . S
C1688 C1686 1.415 . S
C1688 C1693 1.425 . S
C1688 C1695 1.409 . S
C1689 H1681 0.930 . S
C1689 C1687 1.419 . S
C1689 C1690 1.362 . S
C1690 H1682 0.930 . S
C1690 C1689 1.362 . S
C1690 C1693 1.409 . S
C1691 H1683 0.930 . S
C1691 C1692 1.355 . S
C1691 C1693 1.415 . S
C1692 C1691 1.355 . S
C1692 C1694 1.419 . S
C1693 C1688 1.425 . S
C1693 C1690 1.409 . S
C1693 C1691 1.415 . S
C1694 H1684 0.930 . S
C1694 C1692 1.419 . S
C1694 C1695 1.362 . S
C1695 H1685 0.930 . S
C1695 C1688 1.409 . S
C1695 C1694 1.362 . S
H1696 C1702 0.930 . S
H1697 C1705 0.930 . S
H1698 C1706 0.930 . S
H1699 C1707 0.930 . S
H1700 C1710 0.930 . S
H1701 C1711 0.930 . S
C1702 H1696 0.930 . S
C1702 C1703 1.355 . S
C1702 C1704 1.415 . S
C1703 C1702 1.355 . S
C1703 C1705 1.419 . S
C1704 C1702 1.415 . S
C1704 C1709 1.425 . S
C1704 C1711 1.409 . S
C1705 H1697 0.930 . S
C1705 C1703 1.419 . S
C1705 C1706 1.362 . S
C1706 H1698 0.930 . S
C1706 C1705 1.362 . S
C1706 C1709 1.409 . S
C1707 H1699 0.930 . S
C1707 C1708 1.355 . S
C1707 C1709 1.415 . S
C1708 C1707 1.355 . S
C1708 C1710 1.419 . S
C1709 C1704 1.425 . S
C1709 C1706 1.409 . S
C1709 C1707 1.415 . S
C1710 H1700 0.930 . S
C1710 C1708 1.419 . S
C1710 C1711 1.362 . S
C1711 H1701 0.930 . S
C1711 C1704 1.409 . S
C1711 C1710 1.362 . S
H1712 C1718 0.930 . S
H1713 C1721 0.930 . S
H1714 C1722 0.930 . S
H1715 C1723 0.930 . S
H1716 C1726 0.930 . S
H1717 C1727 0.930 . S
C1718 H1712 0.930 . S
C1718 C1719 1.355 . S
C1718 C1720 1.415 . S
C1719 C1718 1.355 . S
C1719 C1721 1.419 . S
C1720 C1718 1.415 . S
C1720 C1725 1.425 . S
C1720 C1727 1.409 . S
C1721 H1713 0.930 . S
C1721 C1719 1.419 . S
C1721 C1722 1.362 . S
C1722 H1714 0.930 . S
C1722 C1721 1.362 . S
C1722 C1725 1.409 . S
C1723 H1715 0.930 . S
C1723 C1724 1.355 . S
C1723 C1725 1.415 . S
C1724 C1723 1.355 . S
C1724 C1726 1.419 . S
C1725 C1720 1.425 . S
C1725 C1722 1.409 . S
C1725 C1723 1.415 . S
C1726 H1716 0.930 . S
C1726 C1724 1.419 . S
C1726 C1727 1.362 . S
C1727 H1717 0.930 . S
C1727 C1720 1.409 . S
C1727 C1726 1.362 . S
H1728 C1734 0.930 . S
H1729 C1737 0.930 . S
H1730 C1738 0.930 . S
H1731 C1739 0.930 . S
H1732 C1742 0.930 . S
H1733 C1743 0.930 . S
C1734 H1728 0.930 . S
C1734 C1735 1.355 . S
C1734 C1736 1.415 . S
C1735 C1734 1.355 . S
C1735 C1737 1.419 . S
C1736 C1734 1.415 . S
C1736 C1741 1.425 . S
C1736 C1743 1.409 . S
C1737 H1729 0.930 . S
C1737 C1735 1.419 . S
C1737 C1738 1.362 . S
C1738 H1730 0.930 . S
C1738 C1737 1.362 . S
C1738 C1741 1.409 . S
C1739 H1731 0.930 . S
C1739 C1740 1.355 . S
C1739 C1741 1.415 . S
C1740 C1739 1.355 . S
C1740 C1742 1.419 . S
C1741 C1736 1.425 . S
C1741 C1738 1.409 . S
C1741 C1739 1.415 . S
C1742 H1732 0.930 . S
C1742 C1740 1.419 . S
C1742 C1743 1.362 . S
C1743 H1733 0.930 . S
C1743 C1736 1.409 . S
C1743 C1742 1.362 . S
H1744 C1750 0.930 . S
H1745 C1753 0.930 . S
H1746 C1754 0.930 . S
H1747 C1755 0.930 . S
H1748 C1758 0.930 . S
H1749 C1759 0.930 . S
C1750 H1744 0.930 . S
C1750 C1751 1.355 . S
C1750 C1752 1.415 . S
C1751 C1750 1.355 . S
C1751 C1753 1.419 . S
C1752 C1750 1.415 . S
C1752 C1757 1.425 . S
C1752 C1759 1.409 . S
C1753 H1745 0.930 . S
C1753 C1751 1.419 . S
C1753 C1754 1.362 . S
C1754 H1746 0.930 . S
C1754 C1753 1.362 . S
C1754 C1757 1.409 . S
C1755 H1747 0.930 . S
C1755 C1756 1.355 . S
C1755 C1757 1.415 . S
C1756 C1755 1.355 . S
C1756 C1758 1.419 1_655 S
C1757 C1752 1.425 . S
C1757 C1754 1.409 . S
C1757 C1755 1.415 . S
C1758 H1748 0.930 . S
C1758 C1756 1.419 1_455 S
C1758 C1759 1.362 1_455 S
C1759 H1749 0.930 . S
C1759 C1752 1.409 . S
C1759 C1758 1.362 1_655 S
H1760 C1766 0.930 . S
H1761 C1769 0.930 . S
H1762 C1770 0.930 . S
H1763 C1771 0.930 . S
H1764 C1774 0.930 . S
H1765 C1775 0.930 . S
C1766 H1760 0.930 . S
C1766 C1767 1.355 . S
C1766 C1768 1.415 . S
C1767 C1766 1.355 . S
C1767 C1769 1.419 . S
C1768 C1766 1.415 . S
C1768 C1773 1.425 . S
C1768 C1775 1.409 . S
C1769 H1761 0.930 . S
C1769 C1767 1.419 . S
C1769 C1770 1.362 . S
C1770 H1762 0.930 . S
C1770 C1769 1.362 . S
C1770 C1773 1.409 . S
C1771 H1763 0.930 . S
C1771 C1772 1.355 . S
C1771 C1773 1.415 . S
C1772 C1771 1.355 . S
C1772 C1774 1.419 . S
C1773 C1768 1.425 . S
C1773 C1770 1.409 . S
C1773 C1771 1.415 . S
C1774 H1764 0.930 . S
C1774 C1772 1.419 . S
C1774 C1775 1.362 . S
C1775 H1765 0.930 . S
C1775 C1768 1.409 . S
C1775 C1774 1.362 . S
H1776 C1782 0.930 . S
H1777 C1785 0.930 . S
H1778 C1786 0.930 . S
H1779 C1787 0.930 . S
H1780 C1790 0.930 . S
H1781 C1791 0.930 . S
C1782 H1776 0.930 . S
C1782 C1783 1.355 . S
C1782 C1784 1.415 . S
C1783 C1782 1.355 . S
C1783 C1785 1.419 . S
C1784 C1782 1.415 . S
C1784 C1789 1.425 . S
C1784 C1791 1.409 . S
C1785 H1777 0.930 . S
C1785 C1783 1.419 . S
C1785 C1786 1.362 . S
C1786 H1778 0.930 . S
C1786 C1785 1.362 . S
C1786 C1789 1.409 . S
C1787 H1779 0.930 . S
C1787 C1788 1.355 . S
C1787 C1789 1.415 . S
C1788 C1787 1.355 . S
C1788 C1790 1.419 . S
C1789 C1784 1.425 . S
C1789 C1786 1.409 . S
C1789 C1787 1.415 . S
C1790 H1780 0.930 . S
C1790 C1788 1.419 . S
C1790 C1791 1.362 . S
C1791 H1781 0.930 . S
C1791 C1784 1.409 . S
C1791 C1790 1.362 . S
H1792 C1798 0.930 . S
H1793 C1801 0.930 . S
H1794 C1802 0.930 . S
H1795 C1803 0.930 . S
H1796 C1806 0.930 . S
H1797 C1807 0.930 . S
C1798 H1792 0.930 . S
C1798 C1799 1.355 . S
C1798 C1800 1.415 . S
C1799 C1798 1.355 . S
C1799 C1801 1.419 . S
C1800 C1798 1.415 . S
C1800 C1805 1.425 . S
C1800 C1807 1.409 . S
C1801 H1793 0.930 . S
C1801 C1799 1.419 . S
C1801 C1802 1.362 . S
C1802 H1794 0.930 . S
C1802 C1801 1.362 . S
C1802 C1805 1.409 . S
C1803 H1795 0.930 . S
C1803 C1804 1.355 . S
C1803 C1805 1.415 . S
C1804 C1803 1.355 . S
C1804 C1806 1.419 . S
C1805 C1800 1.425 . S
C1805 C1802 1.409 . S
C1805 C1803 1.415 . S
C1806 H1796 0.930 . S
C1806 C1804 1.419 . S
C1806 C1807 1.362 . S
C1807 H1797 0.930 . S
C1807 C1800 1.409 . S
C1807 C1806 1.362 . S
H1808 C1814 0.930 . S
H1809 C1817 0.930 . S
H1810 C1818 0.930 . S
H1811 C1819 0.930 . S
H1812 C1822 0.930 . S
H1813 C1823 0.930 . S
C1814 H1808 0.930 . S
C1814 C1815 1.355 . S
C1814 C1816 1.415 . S
C1815 C1814 1.355 . S
C1815 C1817 1.419 . S
C1816 C1814 1.415 . S
C1816 C1821 1.425 . S
C1816 C1823 1.409 . S
C1817 H1809 0.930 . S
C1817 C1815 1.419 . S
C1817 C1818 1.362 . S
C1818 H1810 0.930 . S
C1818 C1817 1.362 . S
C1818 C1821 1.409 . S
C1819 H1811 0.930 . S
C1819 C1820 1.355 . S
C1819 C1821 1.415 . S
C1820 C1819 1.355 . S
C1820 C1822 1.419 . S
C1821 C1816 1.425 . S
C1821 C1818 1.409 . S
C1821 C1819 1.415 . S
C1822 H1812 0.930 . S
C1822 C1820 1.419 . S
C1822 C1823 1.362 . S
C1823 H1813 0.930 . S
C1823 C1816 1.409 . S
C1823 C1822 1.362 . S
H1824 C1830 0.930 . S
H1825 C1833 0.930 . S
H1826 C1834 0.930 . S
H1827 C1835 0.930 . S
H1828 C1838 0.930 . S
H1829 C1839 0.930 . S
C1830 H1824 0.930 . S
C1830 C1831 1.355 . S
C1830 C1832 1.415 . S
C1831 C1830 1.355 . S
C1831 C1833 1.419 . S
C1832 C1830 1.415 . S
C1832 C1837 1.425 . S
C1832 C1839 1.409 . S
C1833 H1825 0.930 . S
C1833 C1831 1.419 . S
C1833 C1834 1.362 . S
C1834 H1826 0.930 . S
C1834 C1833 1.362 . S
C1834 C1837 1.409 . S
C1835 H1827 0.930 . S
C1835 C1836 1.355 . S
C1835 C1837 1.415 . S
C1836 C1835 1.355 . S
C1836 C1838 1.419 . S
C1837 C1832 1.425 . S
C1837 C1834 1.409 . S
C1837 C1835 1.415 . S
C1838 H1828 0.930 . S
C1838 C1836 1.419 . S
C1838 C1839 1.362 . S
C1839 H1829 0.930 . S
C1839 C1832 1.409 . S
C1839 C1838 1.362 . S
H1840 C1846 0.930 . S
H1841 C1849 0.930 . S
H1842 C1850 0.930 . S
H1843 C1851 0.930 . S
H1844 C1854 0.930 . S
H1845 C1855 0.930 . S
C1846 H1840 0.930 . S
C1846 C1847 1.355 . S
C1846 C1848 1.415 . S
C1847 C1846 1.355 . S
C1847 C1849 1.419 . S
C1848 C1846 1.415 . S
C1848 C1853 1.425 . S
C1848 C1855 1.409 . S
C1849 H1841 0.930 . S
C1849 C1847 1.419 . S
C1849 C1850 1.362 . S
C1850 H1842 0.930 . S
C1850 C1849 1.362 . S
C1850 C1853 1.409 . S
C1851 H1843 0.930 . S
C1851 C1852 1.355 . S
C1851 C1853 1.415 . S
C1852 C1851 1.355 . S
C1852 C1854 1.419 . S
C1853 C1848 1.425 . S
C1853 C1850 1.409 . S
C1853 C1851 1.415 . S
C1854 H1844 0.930 . S
C1854 C1852 1.419 . S
C1854 C1855 1.362 . S
C1855 H1845 0.930 . S
C1855 C1848 1.409 . S
C1855 C1854 1.362 . S
H1856 C1862 0.930 . S
H1857 C1865 0.930 . S
H1858 C1866 0.930 . S
H1859 C1867 0.930 . S
H1860 C1870 0.930 . S
H1861 C1871 0.930 . S
C1862 H1856 0.930 . S
C1862 C1863 1.355 . S
C1862 C1864 1.415 . S
C1863 C1862 1.355 . S
C1863 C1865 1.419 . S
C1864 C1862 1.415 . S
C1864 C1869 1.425 . S
C1864 C1871 1.409 . S
C1865 H1857 0.930 . S
C1865 C1863 1.419 . S
C1865 C1866 1.362 . S
C1866 H1858 0.930 . S
C1866 C1865 1.362 . S
C1866 C1869 1.409 . S
C1867 H1859 0.930 . S
C1867 C1868 1.355 . S
C1867 C1869 1.415 . S
C1868 C1867 1.355 . S
C1868 C1870 1.419 . S
C1869 C1864 1.425 . S
C1869 C1866 1.409 . S
C1869 C1867 1.415 . S
C1870 H1860 0.930 . S
C1870 C1868 1.419 . S
C1870 C1871 1.362 . S
C1871 H1861 0.930 . S
C1871 C1864 1.409 . S
C1871 C1870 1.362 . S
H1872 C1878 0.932 1_554 S
H1873 C1881 0.930 . S
H1874 C1882 0.930 . S
H1875 C1883 0.930 . S
H1876 C1886 0.930 . S
H1877 C1887 0.930 . S
C1878 H1872 0.932 1_556 S
C1878 C1879 1.355 . S
C1878 C1880 1.415 . S
C1879 C1878 1.355 . S
C1879 C1881 1.419 . S
C1880 C1878 1.415 . S
C1880 C1885 1.425 . S
C1880 C1887 1.409 . S
C1881 H1873 0.930 . S
C1881 C1879 1.419 . S
C1881 C1882 1.362 . S
C1882 H1874 0.930 . S
C1882 C1881 1.362 . S
C1882 C1885 1.409 . S
C1883 H1875 0.930 . S
C1883 C1884 1.355 . S
C1883 C1885 1.415 . S
C1884 C1883 1.355 . S
C1884 C1886 1.419 . S
C1885 C1880 1.425 . S
C1885 C1882 1.409 . S
C1885 C1883 1.415 . S
C1886 H1876 0.930 . S
C1886 C1884 1.419 . S
C1886 C1887 1.362 . S
C1887 H1877 0.930 . S
C1887 C1880 1.409 . S
C1887 C1886 1.362 . S
H1888 C1894 0.930 . S
H1889 C1897 0.930 . S
H1890 C1898 0.930 . S
H1891 C1899 0.930 . S
H1892 C1902 0.930 . S
H1893 C1903 0.930 . S
C1894 H1888 0.930 . S
C1894 C1895 1.355 . S
C1894 C1896 1.415 . S
C1895 C1894 1.355 . S
C1895 C1897 1.419 . S
C1896 C1894 1.415 . S
C1896 C1901 1.425 . S
C1896 C1903 1.409 . S
C1897 H1889 0.930 . S
C1897 C1895 1.419 . S
C1897 C1898 1.362 . S
C1898 H1890 0.930 . S
C1898 C1897 1.362 . S
C1898 C1901 1.409 . S
C1899 H1891 0.930 . S
C1899 C1900 1.355 . S
C1899 C1901 1.415 . S
C1900 C1899 1.355 . S
C1900 C1902 1.419 . S
C1901 C1896 1.425 . S
C1901 C1898 1.409 . S
C1901 C1899 1.415 . S
C1902 H1892 0.930 . S
C1902 C1900 1.419 . S
C1902 C1903 1.362 . S
C1903 H1893 0.930 . S
C1903 C1896 1.409 . S
C1903 C1902 1.362 . S
H1904 C1910 0.930 . S
H1905 C1913 0.930 . S
H1906 C1914 0.930 . S
H1907 C1915 0.930 . S
H1908 C1918 0.930 . S
H1909 C1919 0.930 . S
C1910 H1904 0.930 . S
C1910 C1911 1.355 . S
C1910 C1912 1.415 . S
C1911 C1910 1.355 . S
C1911 C1913 1.419 . S
C1912 C1910 1.415 . S
C1912 C1917 1.425 . S
C1912 C1919 1.409 . S
C1913 H1905 0.930 . S
C1913 C1911 1.419 . S
C1913 C1914 1.362 . S
C1914 H1906 0.930 . S
C1914 C1913 1.362 . S
C1914 C1917 1.409 . S
C1915 H1907 0.930 . S
C1915 C1916 1.355 . S
C1915 C1917 1.415 . S
C1916 C1915 1.355 . S
C1916 C1918 1.419 . S
C1917 C1912 1.425 . S
C1917 C1914 1.409 . S
C1917 C1915 1.415 . S
C1918 H1908 0.930 . S
C1918 C1916 1.419 . S
C1918 C1919 1.362 . S
C1919 H1909 0.930 . S
C1919 C1912 1.409 . S
C1919 C1918 1.362 . S
H1920 C1926 0.930 . S
H1921 C1929 0.930 . S
H1922 C1930 0.930 . S
H1923 C1931 0.930 . S
H1924 C1934 0.930 . S
H1925 C1935 0.930 . S
C1926 H1920 0.930 . S
C1926 C1927 1.355 . S
C1926 C1928 1.415 . S
C1927 C1926 1.355 . S
C1927 C1929 1.419 . S
C1928 C1926 1.415 . S
C1928 C1933 1.425 . S
C1928 C1935 1.409 . S
C1929 H1921 0.930 . S
C1929 C1927 1.419 . S
C1929 C1930 1.362 . S
C1930 H1922 0.930 . S
C1930 C1929 1.362 . S
C1930 C1933 1.409 . S
C1931 H1923 0.930 . S
C1931 C1932 1.355 . S
C1931 C1933 1.415 . S
C1932 C1931 1.355 . S
C1932 C1934 1.419 . S
C1933 C1928 1.425 . S
C1933 C1930 1.409 . S
C1933 C1931 1.415 . S
C1934 H1924 0.930 . S
C1934 C1932 1.419 . S
C1934 C1935 1.362 . S
C1935 H1925 0.930 . S
C1935 C1928 1.409 . S
C1935 C1934 1.362 . S
H1936 C1942 0.930 . S
H1937 C1945 0.930 . S
H1938 C1946 0.930 . S
H1939 C1947 0.930 . S
H1940 C1950 0.930 . S
H1941 C1951 0.930 . S
C1942 H1936 0.930 . S
C1942 C1943 1.355 . S
C1942 C1944 1.415 . S
C1943 C1942 1.355 . S
C1943 C1945 1.419 . S
C1944 C1942 1.415 . S
C1944 C1949 1.425 . S
C1944 C1951 1.409 . S
C1945 H1937 0.930 . S
C1945 C1943 1.419 . S
C1945 C1946 1.362 . S
C1946 H1938 0.930 . S
C1946 C1945 1.362 . S
C1946 C1949 1.409 . S
C1947 H1939 0.930 . S
C1947 C1948 1.355 . S
C1947 C1949 1.415 . S
C1948 C1947 1.355 . S
C1948 C1950 1.419 . S
C1949 C1944 1.425 . S
C1949 C1946 1.409 . S
C1949 C1947 1.415 . S
C1950 H1940 0.930 . S
C1950 C1948 1.419 . S
C1950 C1951 1.362 . S
C1951 H1941 0.930 . S
C1951 C1944 1.409 . S
C1951 C1950 1.362 . S
H1952 C1958 0.930 . S
H1953 C1961 0.930 . S
H1954 C1962 0.930 . S
H1955 C1963 0.930 . S
H1956 C1966 0.930 1_545 S
H1957 C1967 0.930 . S
C1958 H1952 0.930 . S
C1958 C1959 1.355 . S
C1958 C1960 1.415 . S
C1959 C1958 1.355 . S
C1959 C1961 1.419 . S
C1960 C1958 1.415 . S
C1960 C1965 1.425 . S
C1960 C1967 1.409 . S
C1961 H1953 0.930 . S
C1961 C1959 1.419 . S
C1961 C1962 1.362 . S
C1962 H1954 0.930 . S
C1962 C1961 1.362 . S
C1962 C1965 1.409 . S
C1963 H1955 0.930 . S
C1963 C1964 1.355 . S
C1963 C1965 1.415 . S
C1964 C1963 1.355 . S
C1964 C1966 1.419 . S
C1965 C1960 1.425 . S
C1965 C1962 1.409 . S
C1965 C1963 1.415 . S
C1966 H1956 0.930 1_565 S
C1966 C1964 1.419 . S
C1966 C1967 1.362 . S
C1967 H1957 0.930 . S
C1967 C1960 1.409 . S
C1967 C1966 1.362 . S
H1968 C1974 0.930 . S
H1969 C1977 0.930 . S
H1970 C1978 0.930 . S
H1971 C1979 0.930 . S
H1972 C1982 0.930 . S
H1973 C1983 0.930 . S
C1974 H1968 0.930 . S
C1974 C1975 1.355 . S
C1974 C1976 1.415 . S
C1975 C1974 1.355 . S
C1975 C1977 1.419 . S
C1976 C1974 1.415 . S
C1976 C1981 1.425 . S
C1976 C1983 1.409 . S
C1977 H1969 0.930 . S
C1977 C1975 1.419 . S
C1977 C1978 1.362 . S
C1978 H1970 0.930 . S
C1978 C1977 1.362 . S
C1978 C1981 1.409 . S
C1979 H1971 0.930 . S
C1979 C1980 1.355 . S
C1979 C1981 1.415 . S
C1980 C1979 1.355 . S
C1980 C1982 1.419 . S
C1981 C1976 1.425 . S
C1981 C1978 1.409 . S
C1981 C1979 1.415 . S
C1982 H1972 0.930 . S
C1982 C1980 1.419 . S
C1982 C1983 1.362 . S
C1983 H1973 0.930 . S
C1983 C1976 1.409 . S
C1983 C1982 1.362 . S
H1984 C1990 0.930 . S
H1985 C1993 0.930 . S
H1986 C1994 0.930 . S
H1987 C1995 0.930 . S
H1988 C1998 0.930 . S
H1989 C1999 0.930 . S
C1990 H1984 0.930 . S
C1990 C1991 1.355 . S
C1990 C1992 1.415 . S
C1991 C1990 1.355 . S
C1991 C1993 1.419 . S
C1992 C1990 1.415 . S
C1992 C1997 1.425 . S
C1992 C1999 1.409 . S
C1993 H1985 0.930 . S
C1993 C1991 1.419 . S
C1993 C1994 1.362 . S
C1994 H1986 0.930 . S
C1994 C1993 1.362 . S
C1994 C1997 1.409 . S
C1995 H1987 0.930 . S
C1995 C1996 1.355 . S
C1995 C1997 1.415 . S
C1996 C1995 1.355 . S
C1996 C1998 1.419 . S
C1997 C1992 1.425 . S
C1997 C1994 1.409 . S
C1997 C1995 1.415 . S
C1998 H1988 0.930 . S
C1998 C1996 1.419 . S
C1998 C1999 1.362 . S
C1999 H1989 0.930 . S
C1999 C1992 1.409 . S
C1999 C1998 1.362 . S
H2000 C2006 0.930 . S
H2001 C2009 0.930 . S
H2002 C2010 0.930 . S
H2003 C2011 0.930 . S
H2004 C2014 0.930 . S
H2005 C2015 0.930 . S
C2006 H2000 0.930 . S
C2006 C2007 1.355 . S
C2006 C2008 1.415 . S
C2007 C2006 1.355 . S
C2007 C2009 1.419 . S
C2008 C2006 1.415 . S
C2008 C2013 1.425 . S
C2008 C2015 1.409 . S
C2009 H2001 0.930 . S
C2009 C2007 1.419 . S
C2009 C2010 1.362 . S
C2010 H2002 0.930 . S
C2010 C2009 1.362 . S
C2010 C2013 1.409 . S
C2011 H2003 0.930 . S
C2011 C2012 1.355 . S
C2011 C2013 1.415 . S
C2012 C2011 1.355 . S
C2012 C2014 1.419 . S
C2013 C2008 1.425 . S
C2013 C2010 1.409 . S
C2013 C2011 1.415 . S
C2014 H2004 0.930 . S
C2014 C2012 1.419 . S
C2014 C2015 1.362 . S
C2015 H2005 0.930 . S
C2015 C2008 1.409 . S
C2015 C2014 1.362 . S
H2016 C2022 0.930 . S
H2017 C2025 0.930 . S
H2018 C2026 0.930 . S
H2019 C2027 0.930 . S
H2020 C2030 0.930 . S
H2021 C2031 0.930 . S
C2022 H2016 0.930 . S
C2022 C2023 1.355 . S
C2022 C2024 1.415 . S
C2023 C2022 1.355 . S
C2023 C2025 1.419 . S
C2024 C2022 1.415 . S
C2024 C2029 1.425 . S
C2024 C2031 1.409 . S
C2025 H2017 0.930 . S
C2025 C2023 1.419 . S
C2025 C2026 1.362 . S
C2026 H2018 0.930 . S
C2026 C2025 1.362 . S
C2026 C2029 1.409 . S
C2027 H2019 0.930 . S
C2027 C2028 1.355 . S
C2027 C2029 1.415 . S
C2028 C2027 1.355 . S
C2028 C2030 1.419 . S
C2029 C2024 1.425 . S
C2029 C2026 1.409 . S
C2029 C2027 1.415 . S
C2030 H2020 0.930 . S
C2030 C2028 1.419 . S
C2030 C2031 1.362 . S
C2031 H2021 0.930 . S
C2031 C2024 1.409 . S
C2031 C2030 1.362 . S
H2032 C2038 0.930 . S
H2033 C2041 0.930 . S
H2034 C2042 0.930 . S
H2035 C2043 0.930 . S
H2036 C2046 0.930 . S
H2037 C2047 0.930 . S
C2038 H2032 0.930 . S
C2038 C2039 1.355 . S
C2038 C2040 1.415 . S
C2039 C2038 1.355 . S
C2039 C2041 1.419 . S
C2040 C2038 1.415 . S
C2040 C2045 1.425 . S
C2040 C2047 1.409 . S
C2041 H2033 0.930 . S
C2041 C2039 1.419 . S
C2041 C2042 1.362 . S
C2042 H2034 0.930 . S
C2042 C2041 1.362 . S
C2042 C2045 1.409 . S
C2043 H2035 0.930 . S
C2043 C2044 1.355 . S
C2043 C2045 1.415 . S
C2044 C2043 1.355 . S
C2044 C2046 1.419 . S
C2045 C2040 1.425 . S
C2045 C2042 1.409 . S
C2045 C2043 1.415 . S
C2046 H2036 0.930 . S
C2046 C2044 1.419 . S
C2046 C2047 1.362 . S
C2047 H2037 0.930 . S
C2047 C2040 1.409 . S
C2047 C2046 1.362 . S
H2048 C2054 0.930 . S
H2049 C2057 0.930 . S
H2050 C2058 0.930 . S
H2051 C2059 0.930 . S
H2052 C2062 0.930 . S
H2053 C2063 0.930 . S
C2054 H2048 0.930 . S
C2054 C2055 1.355 . S
C2054 C2056 1.415 . S
C2055 C2054 1.355 . S
C2055 C2057 1.419 . S
C2056 C2054 1.415 . S
C2056 C2061 1.425 . S
C2056 C2063 1.409 . S
C2057 H2049 0.930 . S
C2057 C2055 1.419 . S
C2057 C2058 1.362 . S
C2058 H2050 0.930 . S
C2058 C2057 1.362 . S
C2058 C2061 1.409 . S
C2059 H2051 0.930 . S
C2059 C2060 1.355 . S
C2059 C2061 1.415 . S
C2060 C2059 1.355 . S
C2060 C2062 1.419 . S
C2061 C2056 1.425 . S
C2061 C2058 1.409 . S
C2061 C2059 1.415 . S
C2062 H2052 0.930 . S
C2062 C2060 1.419 . S
C2062 C2063 1.362 . S
C2063 H2053 0.930 . S
C2063 C2056 1.409 . S
C2063 C2062 1.362 . S
H2064 C2070 0.930 . S
H2065 C2073 0.912 1_455 S
H2066 C2074 0.930 . S
H2067 C2075 0.930 . S
H2068 C2078 0.930 . S
H2069 C2079 0.930 . S
C2070 H2064 0.930 . S
C2070 C2071 1.355 . S
C2070 C2072 1.415 . S
C2071 C2070 1.355 . S
C2071 C2073 1.424 . S
C2072 C2070 1.415 . S
C2072 C2077 1.425 . S
C2072 C2079 1.409 . S
C2073 H2065 0.912 1_655 S
C2073 C2071 1.424 . S
C2073 C2074 1.376 . S
C2074 H2066 0.930 . S
C2074 C2073 1.376 . S
C2074 C2077 1.409 . S
C2075 H2067 0.930 . S
C2075 C2076 1.355 . S
C2075 C2077 1.415 . S
C2076 C2075 1.355 . S
C2076 C2078 1.419 . S
C2077 C2072 1.425 . S
C2077 C2074 1.409 . S
C2077 C2075 1.415 . S
C2078 H2068 0.930 . S
C2078 C2076 1.419 . S
C2078 C2079 1.362 . S
C2079 H2069 0.930 . S
C2079 C2072 1.409 . S
C2079 C2078 1.362 . S
H2080 C2086 0.930 . S
H2081 C2089 0.930 . S
H2082 C2090 0.930 . S
H2083 C2091 0.930 . S
H2084 C2094 0.930 . S
H2085 C2095 0.930 . S
C2086 H2080 0.930 . S
C2086 C2087 1.355 . S
C2086 C2088 1.415 . S
C2087 C2086 1.355 . S
C2087 C2089 1.419 . S
C2088 C2086 1.415 . S
C2088 C2093 1.425 . S
C2088 C2095 1.409 . S
C2089 H2081 0.930 . S
C2089 C2087 1.419 . S
C2089 C2090 1.362 . S
C2090 H2082 0.930 . S
C2090 C2089 1.362 . S
C2090 C2093 1.409 . S
C2091 H2083 0.930 . S
C2091 C2092 1.355 . S
C2091 C2093 1.415 . S
C2092 C2091 1.355 . S
C2092 C2094 1.419 . S
C2093 C2088 1.425 . S
C2093 C2090 1.409 . S
C2093 C2091 1.415 . S
C2094 H2084 0.930 . S
C2094 C2092 1.419 . S
C2094 C2095 1.362 . S
C2095 H2085 0.930 . S
C2095 C2088 1.409 . S
C2095 C2094 1.362 . S
H2096 C2102 0.930 1_455 S
H2097 C2105 0.930 . S
H2098 C2106 0.930 . S
H2099 C2107 0.930 . S
H2100 C2110 0.930 . S
H2101 C2111 0.930 . S
C2102 H2096 0.930 1_655 S
C2102 C2103 1.355 . S
C2102 C2104 1.415 . S
C2103 C2102 1.355 . S
C2103 C2105 1.419 . S
C2104 C2102 1.415 . S
C2104 C2109 1.425 . S
C2104 C2111 1.409 . S
C2105 H2097 0.930 . S
C2105 C2103 1.419 . S
C2105 C2106 1.362 . S
C2106 H2098 0.930 . S
C2106 C2105 1.362 . S
C2106 C2109 1.409 . S
C2107 H2099 0.930 . S
C2107 C2108 1.355 . S
C2107 C2109 1.415 . S
C2108 C2107 1.355 . S
C2108 C2110 1.419 . S
C2109 C2104 1.425 . S
C2109 C2106 1.409 . S
C2109 C2107 1.415 . S
C2110 H2100 0.930 . S
C2110 C2108 1.419 . S
C2110 C2111 1.362 . S
C2111 H2101 0.930 . S
C2111 C2104 1.409 . S
C2111 C2110 1.362 . S
H2112 C2118 0.930 . S
H2113 C2121 0.930 . S
H2114 C2122 0.930 . S
H2115 C2123 0.930 . S
H2116 C2126 0.930 . S
H2117 C2127 0.930 . S
C2118 H2112 0.930 . S
C2118 C2119 1.355 . S
C2118 C2120 1.415 . S
C2119 C2118 1.355 . S
C2119 C2121 1.419 . S
C2120 C2118 1.415 . S
C2120 C2125 1.425 . S
C2120 C2127 1.409 . S
C2121 H2113 0.930 . S
C2121 C2119 1.419 . S
C2121 C2122 1.362 . S
C2122 H2114 0.930 . S
C2122 C2121 1.362 . S
C2122 C2125 1.409 . S
C2123 H2115 0.930 . S
C2123 C2124 1.355 . S
C2123 C2125 1.415 . S
C2124 C2123 1.355 . S
C2124 C2126 1.419 . S
C2125 C2120 1.425 . S
C2125 C2122 1.409 . S
C2125 C2123 1.415 . S
C2126 H2116 0.930 . S
C2126 C2124 1.419 . S
C2126 C2127 1.362 . S
C2127 H2117 0.930 . S
C2127 C2120 1.409 . S
C2127 C2126 1.362 . S
H2128 C2134 0.930 . S
H2129 C2137 0.930 . S
H2130 C2138 0.930 . S
H2131 C2139 0.930 . S
H2132 C2142 0.930 . S
H2133 C2143 0.930 . S
C2134 H2128 0.930 . S
C2134 C2135 1.355 . S
C2134 C2136 1.415 . S
C2135 C2134 1.355 . S
C2135 C2137 1.419 . S
C2136 C2134 1.415 . S
C2136 C2141 1.425 . S
C2136 C2143 1.409 . S
C2137 H2129 0.930 . S
C2137 C2135 1.419 . S
C2137 C2138 1.362 . S
C2138 H2130 0.930 . S
C2138 C2137 1.362 . S
C2138 C2141 1.409 . S
C2139 H2131 0.930 . S
C2139 C2140 1.355 . S
C2139 C2141 1.415 . S
C2140 C2139 1.355 . S
C2140 C2142 1.419 . S
C2141 C2136 1.425 . S
C2141 C2138 1.409 . S
C2141 C2139 1.415 . S
C2142 H2132 0.930 . S
C2142 C2140 1.419 . S
C2142 C2143 1.362 . S
C2143 H2133 0.930 . S
C2143 C2136 1.409 . S
C2143 C2142 1.362 . S
H2144 C2150 0.930 . S
H2145 C2153 0.930 . S
H2146 C2154 0.930 . S
H2147 C2155 0.930 . S
H2148 C2158 0.930 . S
H2149 C2159 0.930 . S
C2150 H2144 0.930 . S
C2150 C2151 1.355 . S
C2150 C2152 1.415 . S
C2151 C2150 1.355 . S
C2151 C2153 1.419 . S
C2152 C2150 1.415 . S
C2152 C2157 1.425 . S
C2152 C2159 1.409 . S
C2153 H2145 0.930 . S
C2153 C2151 1.419 . S
C2153 C2154 1.362 . S
C2154 H2146 0.930 . S
C2154 C2153 1.362 . S
C2154 C2157 1.409 . S
C2155 H2147 0.930 . S
C2155 C2156 1.355 . S
C2155 C2157 1.415 . S
C2156 C2155 1.355 . S
C2156 C2158 1.419 . S
C2157 C2152 1.425 . S
C2157 C2154 1.409 . S
C2157 C2155 1.415 . S
C2158 H2148 0.930 . S
C2158 C2156 1.419 . S
C2158 C2159 1.362 . S
C2159 H2149 0.930 . S
C2159 C2152 1.409 . S
C2159 C2158 1.362 . S
H2160 C2166 0.930 . S
H2161 C2169 0.930 . S
H2162 C2170 0.930 . S
H2163 C2171 0.930 1_554 S
H2164 C2174 0.930 . S
H2165 C2175 0.930 . S
C2166 H2160 0.930 . S
C2166 C2167 1.355 . S
C2166 C2168 1.415 . S
C2167 C2166 1.355 . S
C2167 C2169 1.419 . S
C2168 C2166 1.415 . S
C2168 C2173 1.425 . S
C2168 C2175 1.409 . S
C2169 H2161 0.930 . S
C2169 C2167 1.419 . S
C2169 C2170 1.362 . S
C2170 H2162 0.930 . S
C2170 C2169 1.362 . S
C2170 C2173 1.409 . S
C2171 H2163 0.930 1_556 S
C2171 C2172 1.355 . S
C2171 C2173 1.415 . S
C2172 C2171 1.355 . S
C2172 C2174 1.419 . S
C2173 C2168 1.425 . S
C2173 C2170 1.409 . S
C2173 C2171 1.415 . S
C2174 H2164 0.930 . S
C2174 C2172 1.419 . S
C2174 C2175 1.362 . S
C2175 H2165 0.930 . S
C2175 C2168 1.409 . S
C2175 C2174 1.362 . S
H2176 C2182 0.930 . S
H2177 C2185 0.930 . S
H2178 C2186 0.930 . S
H2179 C2187 0.930 . S
H2180 C2190 0.930 . S
H2181 C2191 0.930 . S
C2182 H2176 0.930 . S
C2182 C2183 1.355 . S
C2182 C2184 1.415 . S
C2183 C2182 1.355 . S
C2183 C2185 1.419 . S
C2184 C2182 1.415 . S
C2184 C2189 1.425 . S
C2184 C2191 1.409 . S
C2185 H2177 0.930 . S
C2185 C2183 1.419 . S
C2185 C2186 1.362 . S
C2186 H2178 0.930 . S
C2186 C2185 1.362 . S
C2186 C2189 1.409 . S
C2187 H2179 0.930 . S
C2187 C2188 1.355 . S
C2187 C2189 1.415 . S
C2188 C2187 1.355 . S
C2188 C2190 1.419 . S
C2189 C2184 1.425 . S
C2189 C2186 1.409 . S
C2189 C2187 1.415 . S
C2190 H2180 0.930 . S
C2190 C2188 1.419 . S
C2190 C2191 1.362 . S
C2191 H2181 0.930 . S
C2191 C2184 1.409 . S
C2191 C2190 1.362 . S
H2192 C2198 0.930 . S
H2193 C2201 0.930 . S
H2194 C2202 0.930 . S
H2195 C2203 0.930 . S
H2196 C2206 0.930 . S
H2197 C2207 0.930 . S
C2198 H2192 0.930 . S
C2198 C2199 1.355 . S
C2198 C2200 1.415 . S
C2199 C2198 1.355 . S
C2199 C2201 1.419 . S
C2200 C2198 1.415 . S
C2200 C2205 1.425 . S
C2200 C2207 1.409 . S
C2201 H2193 0.930 . S
C2201 C2199 1.419 . S
C2201 C2202 1.362 . S
C2202 H2194 0.930 . S
C2202 C2201 1.362 . S
C2202 C2205 1.409 . S
C2203 H2195 0.930 . S
C2203 C2204 1.355 . S
C2203 C2205 1.415 . S
C2204 C2203 1.355 . S
C2204 C2206 1.419 . S
C2205 C2200 1.425 . S
C2205 C2202 1.409 . S
C2205 C2203 1.415 . S
C2206 H2196 0.930 . S
C2206 C2204 1.419 . S
C2206 C2207 1.362 . S
C2207 H2197 0.930 . S
C2207 C2200 1.409 . S
C2207 C2206 1.362 . S
H2208 C2214 0.930 . S
H2209 C2217 0.930 . S
H2210 C2218 0.930 . S
H2211 C2219 0.930 . S
H2212 C2222 0.930 . S
H2213 C2223 0.930 . S
C2214 H2208 0.930 . S
C2214 C2215 1.355 . S
C2214 C2216 1.415 . S
C2215 C2214 1.355 . S
C2215 C2217 1.419 . S
C2216 C2214 1.415 . S
C2216 C2221 1.425 . S
C2216 C2223 1.409 . S
C2217 H2209 0.930 . S
C2217 C2215 1.419 . S
C2217 C2218 1.362 . S
C2218 H2210 0.930 . S
C2218 C2217 1.362 . S
C2218 C2221 1.409 . S
C2219 H2211 0.930 . S
C2219 C2220 1.355 . S
C2219 C2221 1.415 . S
C2220 C2219 1.355 . S
C2220 C2222 1.419 . S
C2221 C2216 1.425 . S
C2221 C2218 1.409 . S
C2221 C2219 1.415 . S
C2222 H2212 0.930 . S
C2222 C2220 1.419 . S
C2222 C2223 1.362 . S
C2223 H2213 0.930 . S
C2223 C2216 1.409 . S
C2223 C2222 1.362 . S
H2224 C2230 0.930 . S
H2225 C2233 0.930 . S
H2226 C2234 0.930 . S
H2227 C2235 0.930 . S
H2228 C2238 0.930 . S
H2229 C2239 0.930 . S
C2230 H2224 0.930 . S
C2230 C2231 1.355 . S
C2230 C2232 1.415 . S
C2231 C2230 1.355 . S
C2231 C2233 1.419 . S
C2232 C2230 1.415 . S
C2232 C2237 1.425 . S
C2232 C2239 1.409 . S
C2233 H2225 0.930 . S
C2233 C2231 1.419 . S
C2233 C2234 1.362 . S
C2234 H2226 0.930 . S
C2234 C2233 1.362 . S
C2234 C2237 1.409 . S
C2235 H2227 0.930 . S
C2235 C2236 1.355 . S
C2235 C2237 1.415 . S
C2236 C2235 1.355 . S
C2236 C2238 1.419 . S
C2237 C2232 1.425 . S
C2237 C2234 1.409 . S
C2237 C2235 1.415 . S
C2238 H2228 0.930 . S
C2238 C2236 1.419 . S
C2238 C2239 1.362 . S
C2239 H2229 0.930 . S
C2239 C2232 1.409 . S
C2239 C2238 1.362 . S
H2240 C2246 0.930 . S
H2241 C2249 0.930 . S
H2242 C2250 0.930 . S
H2243 C2251 0.930 . S
H2244 C2254 0.930 . S
H2245 C2255 0.930 . S
C2246 H2240 0.930 . S
C2246 C2247 1.355 . S
C2246 C2248 1.415 . S
C2247 C2246 1.355 . S
C2247 C2249 1.419 . S
C2248 C2246 1.415 . S
C2248 C2253 1.425 . S
C2248 C2255 1.409 . S
C2249 H2241 0.930 . S
C2249 C2247 1.419 . S
C2249 C2250 1.362 . S
C2250 H2242 0.930 . S
C2250 C2249 1.362 . S
C2250 C2253 1.409 . S
C2251 H2243 0.930 . S
C2251 C2252 1.355 . S
C2251 C2253 1.415 . S
C2252 C2251 1.355 . S
C2252 C2254 1.419 . S
C2253 C2248 1.425 . S
C2253 C2250 1.409 . S
C2253 C2251 1.415 . S
C2254 H2244 0.930 . S
C2254 C2252 1.419 . S
C2254 C2255 1.362 . S
C2255 H2245 0.930 . S
C2255 C2248 1.409 . S
C2255 C2254 1.362 . S
H2256 C2262 0.930 . S
H2257 C2265 0.930 . S
H2258 C2266 0.930 . S
H2259 C2267 0.930 . S
H2260 C2270 0.930 . S
H2261 C2271 0.930 . S
C2262 H2256 0.930 . S
C2262 C2263 1.355 . S
C2262 C2264 1.415 . S
C2263 C2262 1.355 . S
C2263 C2265 1.419 . S
C2264 C2262 1.415 . S
C2264 C2269 1.425 . S
C2264 C2271 1.409 . S
C2265 H2257 0.930 . S
C2265 C2263 1.419 . S
C2265 C2266 1.362 . S
C2266 H2258 0.930 . S
C2266 C2265 1.362 . S
C2266 C2269 1.409 . S
C2267 H2259 0.930 . S
C2267 C2268 1.355 . S
C2267 C2269 1.415 . S
C2268 C2267 1.355 . S
C2268 C2270 1.419 . S
C2269 C2264 1.425 . S
C2269 C2266 1.409 . S
C2269 C2267 1.415 . S
C2270 H2260 0.930 . S
C2270 C2268 1.419 . S
C2270 C2271 1.362 . S
C2271 H2261 0.930 . S
C2271 C2264 1.409 . S
C2271 C2270 1.362 . S
H2272 C2278 0.930 . S
H2273 C2281 0.930 . S
H2274 C2282 0.930 . S
H2275 C2283 0.930 . S
H2276 C2286 0.930 . S
H2277 C2287 0.930 . S
C2278 H2272 0.930 . S
C2278 C2279 1.355 . S
C2278 C2280 1.415 . S
C2279 C2278 1.355 . S
C2279 C2281 1.419 . S
C2280 C2278 1.415 . S
C2280 C2285 1.425 . S
C2280 C2287 1.409 . S
C2281 H2273 0.930 . S
C2281 C2279 1.419 . S
C2281 C2282 1.362 . S
C2282 H2274 0.930 . S
C2282 C2281 1.362 . S
C2282 C2285 1.409 . S
C2283 H2275 0.930 . S
C2283 C2284 1.355 . S
C2283 C2285 1.415 . S
C2284 C2283 1.355 . S
C2284 C2286 1.419 . S
C2285 C2280 1.425 . S
C2285 C2282 1.409 . S
C2285 C2283 1.415 . S
C2286 H2276 0.930 . S
C2286 C2284 1.419 . S
C2286 C2287 1.362 . S
C2287 H2277 0.930 . S
C2287 C2280 1.409 . S
C2287 C2286 1.362 . S
H2288 C2294 0.930 . S
H2289 C2297 0.930 . S
H2290 C2298 0.930 . S
H2291 C2299 0.930 . S
H2292 C2302 0.930 . S
H2293 C2303 0.930 . S
C2294 H2288 0.930 . S
C2294 C2295 1.355 . S
C2294 C2296 1.415 . S
C2295 C2294 1.355 . S
C2295 C2297 1.419 . S
C2296 C2294 1.415 . S
C2296 C2301 1.425 . S
C2296 C2303 1.409 . S
C2297 H2289 0.930 . S
C2297 C2295 1.419 . S
C2297 C2298 1.362 . S
C2298 H2290 0.930 . S
C2298 C2297 1.362 . S
C2298 C2301 1.409 . S
C2299 H2291 0.930 . S
C2299 C2300 1.355 . S
C2299 C2301 1.415 . S
C2300 C2299 1.355 . S
C2300 C2302 1.419 . S
C2301 C2296 1.425 . S
C2301 C2298 1.409 . S
C2301 C2299 1.415 . S
C2302 H2292 0.930 . S
C2302 C2300 1.419 . S
C2302 C2303 1.362 . S
C2303 H2293 0.930 . S
C2303 C2296 1.409 . S
C2303 C2302 1.362 . S
H2304 C2310 0.930 . S
H2305 C2313 0.930 . S
H2306 C2314 0.930 . S
H2307 C2315 0.930 . S
H2308 C2318 0.930 . S
H2309 C2319 0.930 . S
C2310 H2304 0.930 . S
C2310 C2311 1.355 . S
C2310 C2312 1.415 . S
C2311 C2310 1.355 . S
C2311 C2313 1.419 . S
C2312 C2310 1.415 . S
C2312 C2317 1.425 . S
C2312 C2319 1.409 . S
C2313 H2305 0.930 . S
C2313 C2311 1.419 . S
C2313 C2314 1.362 . S
C2314 H2306 0.930 . S
C2314 C2313 1.362 . S
C2314 C2317 1.409 . S
C2315 H2307 0.930 . S
C2315 C2316 1.355 . S
C2315 C2317 1.415 . S
C2316 C2315 1.355 . S
C2316 C2318 1.419 1_565 S
C2317 C2312 1.425 . S
C2317 C2314 1.409 . S
C2317 C2315 1.415 . S
C2318 H2308 0.930 . S
C2318 C2316 1.419 1_545 S
C2318 C2319 1.362 1_545 S
C2319 H2309 0.930 . S
C2319 C2312 1.409 . S
C2319 C2318 1.362 1_565 S
H2320 C2326 0.930 . S
H2321 C2329 0.930 . S
H2322 C2330 0.930 . S
H2323 C2331 0.930 . S
H2324 C2334 0.930 . S
H2325 C2335 0.930 . S
C2326 H2320 0.930 . S
C2326 C2327 1.355 . S
C2326 C2328 1.415 . S
C2327 C2326 1.355 . S
C2327 C2329 1.419 . S
C2328 C2326 1.415 . S
C2328 C2333 1.425 . S
C2328 C2335 1.409 . S
C2329 H2321 0.930 . S
C2329 C2327 1.419 . S
C2329 C2330 1.362 . S
C2330 H2322 0.930 . S
C2330 C2329 1.362 . S
C2330 C2333 1.409 . S
C2331 H2323 0.930 . S
C2331 C2332 1.355 . S
C2331 C2333 1.415 . S
C2332 C2331 1.355 . S
C2332 C2334 1.419 . S
C2333 C2328 1.425 . S
C2333 C2330 1.409 . S
C2333 C2331 1.415 . S
C2334 H2324 0.930 . S
C2334 C2332 1.419 . S
C2334 C2335 1.362 . S
C2335 H2325 0.930 . S
C2335 C2328 1.409 . S
C2335 C2334 1.362 . S
H2336 C2342 0.930 . S
H2337 C2345 0.930 . S
H2338 C2346 0.930 . S
H2339 C2347 0.930 . S
H2340 C2350 0.930 . S
H2341 C2351 0.930 . S
C2342 H2336 0.930 . S
C2342 C2343 1.355 . S
C2342 C2344 1.415 . S
C2343 C2342 1.355 . S
C2343 C2345 1.419 . S
C2344 C2342 1.415 . S
C2344 C2349 1.425 . S
C2344 C2351 1.409 . S
C2345 H2337 0.930 . S
C2345 C2343 1.419 . S
C2345 C2346 1.362 . S
C2346 H2338 0.930 . S
C2346 C2345 1.362 . S
C2346 C2349 1.409 . S
C2347 H2339 0.930 . S
C2347 C2348 1.355 . S
C2347 C2349 1.415 . S
C2348 C2347 1.355 . S
C2348 C2350 1.419 . S
C2349 C2344 1.425 . S
C2349 C2346 1.409 . S
C2349 C2347 1.415 . S
C2350 H2340 0.930 . S
C2350 C2348 1.419 . S
C2350 C2351 1.362 . S
C2351 H2341 0.930 . S
C2351 C2344 1.409 . S
C2351 C2350 1.362 . S
H2352 C2358 0.930 . S
H2353 C2361 0.930 . S
H2354 C2362 0.930 . S
H2355 C2363 0.930 . S
H2356 C2366 0.930 . S
H2357 C2367 0.930 . S
C2358 H2352 0.930 . S
C2358 C2359 1.355 . S
C2358 C2360 1.415 . S
C2359 C2358 1.355 . S
C2359 C2361 1.419 . S
C2360 C2358 1.415 . S
C2360 C2365 1.425 . S
C2360 C2367 1.409 . S
C2361 H2353 0.930 . S
C2361 C2359 1.419 . S
C2361 C2362 1.362 . S
C2362 H2354 0.930 . S
C2362 C2361 1.362 . S
C2362 C2365 1.409 . S
C2363 H2355 0.930 . S
C2363 C2364 1.355 . S
C2363 C2365 1.415 . S
C2364 C2363 1.355 . S
C2364 C2366 1.419 . S
C2365 C2360 1.425 . S
C2365 C2362 1.409 . S
C2365 C2363 1.415 . S
C2366 H2356 0.930 . S
C2366 C2364 1.419 . S
C2366 C2367 1.362 . S
C2367 H2357 0.930 . S
C2367 C2360 1.409 . S
C2367 C2366 1.362 . S
H2368 C2374 0.930 . S
H2369 C2377 0.930 1_565 S
H2370 C2378 0.930 . S
H2371 C2379 0.930 . S
H2372 C2382 0.930 . S
H2373 C2383 0.930 . S
C2374 H2368 0.930 . S
C2374 C2375 1.355 . S
C2374 C2376 1.415 . S
C2375 C2374 1.355 . S
C2375 C2377 1.419 . S
C2376 C2374 1.415 . S
C2376 C2381 1.425 . S
C2376 C2383 1.409 . S
C2377 H2369 0.930 1_545 S
C2377 C2375 1.419 . S
C2377 C2378 1.362 . S
C2378 H2370 0.930 . S
C2378 C2377 1.362 . S
C2378 C2381 1.409 . S
C2379 H2371 0.930 . S
C2379 C2380 1.355 . S
C2379 C2381 1.415 . S
C2380 C2379 1.355 . S
C2380 C2382 1.419 . S
C2381 C2376 1.425 . S
C2381 C2378 1.409 . S
C2381 C2379 1.415 . S
C2382 H2372 0.930 . S
C2382 C2380 1.419 . S
C2382 C2383 1.362 . S
C2383 H2373 0.930 . S
C2383 C2376 1.409 . S
C2383 C2382 1.362 . S
H2384 C2390 0.930 . S
H2385 C2393 0.930 . S
H2386 C2394 0.930 . S
H2387 C2395 0.930 . S
H2388 C2398 0.930 . S
H2389 C2399 0.930 . S
C2390 H2384 0.930 . S
C2390 C2391 1.355 . S
C2390 C2392 1.415 . S
C2391 C2390 1.355 . S
C2391 C2393 1.419 . S
C2392 C2390 1.415 . S
C2392 C2397 1.425 . S
C2392 C2399 1.409 . S
C2393 H2385 0.930 . S
C2393 C2391 1.419 . S
C2393 C2394 1.362 . S
C2394 H2386 0.930 . S
C2394 C2393 1.362 . S
C2394 C2397 1.409 . S
C2395 H2387 0.930 . S
C2395 C2396 1.355 . S
C2395 C2397 1.415 . S
C2396 C2395 1.355 . S
C2396 C2398 1.419 . S
C2397 C2392 1.425 . S
C2397 C2394 1.409 . S
C2397 C2395 1.415 . S
C2398 H2388 0.930 . S
C2398 C2396 1.419 . S
C2398 C2399 1.362 . S
C2399 H2389 0.930 . S
C2399 C2392 1.409 . S
C2399 C2398 1.362 . S
H2400 C2406 0.930 . S
H2401 C2409 0.930 . S
H2402 C2410 0.930 . S
H2403 C2411 0.930 . S
H2404 C2414 0.930 . S
H2405 C2415 0.930 . S
C2406 H2400 0.930 . S
C2406 C2407 1.355 . S
C2406 C2408 1.415 . S
C2407 C2406 1.355 . S
C2407 C2409 1.419 . S
C2408 C2406 1.415 . S
C2408 C2413 1.425 . S
C2408 C2415 1.409 . S
C2409 H2401 0.930 . S
C2409 C2407 1.419 . S
C2409 C2410 1.362 . S
C2410 H2402 0.930 . S
C2410 C2409 1.362 . S
C2410 C2413 1.409 . S
C2411 H2403 0.930 . S
C2411 C2412 1.355 . S
C2411 C2413 1.415 . S
C2412 C2411 1.355 . S
C2412 C2414 1.419 . S
C2413 C2408 1.425 . S
C2413 C2410 1.409 . S
C2413 C2411 1.415 . S
C2414 H2404 0.930 . S
C2414 C2412 1.419 . S
C2414 C2415 1.362 . S
C2415 H2405 0.930 . S
C2415 C2408 1.409 . S
C2415 C2414 1.362 . S
H2416 C2422 0.930 . S
H2417 C2425 0.930 . S
H2418 C2426 0.930 . S
H2419 C2427 0.930 . S
H2420 C2430 0.930 . S
H2421 C2431 0.930 . S
C2422 H2416 0.930 . S
C2422 C2423 1.355 . S
C2422 C2424 1.415 . S
C2423 C2422 1.355 . S
C2423 C2425 1.419 . S
C2424 C2422 1.415 . S
C2424 C2429 1.425 . S
C2424 C2431 1.409 . S
C2425 H2417 0.930 . S
C2425 C2423 1.419 . S
C2425 C2426 1.362 . S
C2426 H2418 0.930 . S
C2426 C2425 1.362 . S
C2426 C2429 1.409 . S
C2427 H2419 0.930 . S
C2427 C2428 1.355 . S
C2427 C2429 1.415 . S
C2428 C2427 1.355 . S
C2428 C2430 1.419 . S
C2429 C2424 1.425 . S
C2429 C2426 1.409 . S
C2429 C2427 1.415 . S
C2430 H2420 0.930 . S
C2430 C2428 1.419 . S
C2430 C2431 1.362 . S
C2431 H2421 0.930 . S
C2431 C2424 1.409 . S
C2431 C2430 1.362 . S
H2432 C2438 0.930 . S
H2433 C2441 0.930 . S
H2434 C2442 0.930 . S
H2435 C2443 0.930 . S
H2436 C2446 0.930 . S
H2437 C2447 0.930 . S
C2438 H2432 0.930 . S
C2438 C2439 1.355 . S
C2438 C2440 1.415 . S
C2439 C2438 1.355 . S
C2439 C2441 1.419 . S
C2440 C2438 1.415 . S
C2440 C2445 1.425 . S
C2440 C2447 1.409 . S
C2441 H2433 0.930 . S
C2441 C2439 1.419 . S
C2441 C2442 1.362 . S
C2442 H2434 0.930 . S
C2442 C2441 1.362 . S
C2442 C2445 1.409 . S
C2443 H2435 0.930 . S
C2443 C2444 1.355 . S
C2443 C2445 1.415 . S
C2444 C2443 1.355 . S
C2444 C2446 1.419 . S
C2445 C2440 1.425 . S
C2445 C2442 1.409 . S
C2445 C2443 1.415 . S
C2446 H2436 0.930 . S
C2446 C2444 1.419 . S
C2446 C2447 1.362 . S
C2447 H2437 0.930 . S
C2447 C2440 1.409 . S
C2447 C2446 1.362 . S
H2448 C2454 0.930 . S
H2449 C2457 0.930 . S
H2450 C2458 0.930 . S
H2451 C2459 0.930 . S
H2452 C2462 0.930 . S
H2453 C2463 0.930 . S
C2454 H2448 0.930 . S
C2454 C2455 1.355 . S
C2454 C2456 1.415 . S
C2455 C2454 1.355 . S
C2455 C2457 1.419 . S
C2456 C2454 1.415 . S
C2456 C2461 1.425 . S
C2456 C2463 1.409 . S
C2457 H2449 0.930 . S
C2457 C2455 1.419 . S
C2457 C2458 1.362 . S
C2458 H2450 0.930 . S
C2458 C2457 1.362 . S
C2458 C2461 1.409 . S
C2459 H2451 0.930 . S
C2459 C2460 1.355 . S
C2459 C2461 1.415 . S
C2460 C2459 1.355 . S
C2460 C2462 1.419 1_455 S
C2461 C2456 1.425 . S
C2461 C2458 1.409 . S
C2461 C2459 1.415 . S
C2462 H2452 0.930 . S
C2462 C2460 1.419 1_655 S
C2462 C2463 1.362 1_655 S
C2463 H2453 0.930 . S
C2463 C2456 1.409 . S
C2463 C2462 1.362 1_455 S
H2464 C2470 0.930 . S
H2465 C2473 0.930 . S
H2466 C2474 0.930 . S
H2467 C2475 0.930 . S
H2468 C2478 0.930 . S
H2469 C2479 0.930 . S
C2470 H2464 0.930 . S
C2470 C2471 1.355 . S
C2470 C2472 1.415 . S
C2471 C2470 1.355 . S
C2471 C2473 1.419 . S
C2472 C2470 1.415 . S
C2472 C2477 1.425 . S
C2472 C2479 1.409 . S
C2473 H2465 0.930 . S
C2473 C2471 1.419 . S
C2473 C2474 1.362 . S
C2474 H2466 0.930 . S
C2474 C2473 1.362 . S
C2474 C2477 1.409 . S
C2475 H2467 0.930 . S
C2475 C2476 1.355 . S
C2475 C2477 1.415 . S
C2476 C2475 1.355 . S
C2476 C2478 1.419 . S
C2477 C2472 1.425 . S
C2477 C2474 1.409 . S
C2477 C2475 1.415 . S
C2478 H2468 0.930 . S
C2478 C2476 1.419 . S
C2478 C2479 1.362 . S
C2479 H2469 0.930 . S
C2479 C2472 1.409 . S
C2479 C2478 1.362 . S
H2480 C2486 0.930 . S
H2481 C2489 0.930 . S
H2482 C2490 0.930 . S
H2483 C2491 0.930 . S
H2484 C2494 0.930 . S
H2485 C2495 0.930 . S
C2486 H2480 0.930 . S
C2486 C2487 1.355 . S
C2486 C2488 1.415 . S
C2487 C2486 1.355 . S
C2487 C2489 1.419 . S
C2488 C2486 1.415 . S
C2488 C2493 1.425 . S
C2488 C2495 1.409 . S
C2489 H2481 0.930 . S
C2489 C2487 1.419 . S
C2489 C2490 1.362 . S
C2490 H2482 0.930 . S
C2490 C2489 1.362 . S
C2490 C2493 1.409 . S
C2491 H2483 0.930 . S
C2491 C2492 1.355 . S
C2491 C2493 1.415 . S
C2492 C2491 1.355 . S
C2492 C2494 1.419 . S
C2493 C2488 1.425 . S
C2493 C2490 1.409 . S
C2493 C2491 1.415 . S
C2494 H2484 0.930 . S
C2494 C2492 1.419 . S
C2494 C2495 1.362 . S
C2495 H2485 0.930 . S
C2495 C2488 1.409 . S
C2495 C2494 1.362 . S
H2496 C2502 0.930 . S
H2497 C2505 0.930 . S
H2498 C2506 0.930 . S
H2499 C2507 0.930 . S
H2500 C2510 0.930 . S
H2501 C2511 0.930 . S
C2502 H2496 0.930 . S
C2502 C2503 1.355 . S
C2502 C2504 1.415 . S
C2503 C2502 1.355 . S
C2503 C2505 1.419 . S
C2504 C2502 1.415 . S
C2504 C2509 1.425 . S
C2504 C2511 1.409 . S
C2505 H2497 0.930 . S
C2505 C2503 1.419 . S
C2505 C2506 1.362 . S
C2506 H2498 0.930 . S
C2506 C2505 1.362 . S
C2506 C2509 1.409 . S
C2507 H2499 0.930 . S
C2507 C2508 1.355 . S
C2507 C2509 1.415 . S
C2508 C2507 1.355 . S
C2508 C2510 1.419 . S
C2509 C2504 1.425 . S
C2509 C2506 1.409 . S
C2509 C2507 1.415 . S
C2510 H2500 0.930 . S
C2510 C2508 1.419 . S
C2510 C2511 1.362 . S
C2511 H2501 0.930 . S
C2511 C2504 1.409 . S
C2511 C2510 1.362 . S
H2512 C2518 0.930 . S
H2513 C2521 0.930 . S
H2514 C2522 0.930 . S
H2515 C2523 0.930 . S
H2516 C2526 0.930 . S
H2517 C2527 0.930 . S
C2518 H2512 0.930 . S
C2518 C2519 1.355 . S
C2518 C2520 1.415 . S
C2519 C2518 1.355 . S
C2519 C2521 1.419 . S
C2520 C2518 1.415 . S
C2520 C2525 1.425 . S
C2520 C2527 1.409 . S
C2521 H2513 0.930 . S
C2521 C2519 1.419 . S
C2521 C2522 1.362 . S
C2522 H2514 0.930 . S
C2522 C2521 1.362 . S
C2522 C2525 1.409 . S
C2523 H2515 0.930 . S
C2523 C2524 1.355 . S
C2523 C2525 1.415 . S
C2524 C2523 1.355 . S
C2524 C2526 1.419 . S
C2525 C2520 1.425 . S
C2525 C2522 1.409 . S
C2525 C2523 1.415 . S
C2526 H2516 0.930 . S
C2526 C2524 1.419 . S
C2526 C2527 1.362 . S
C2527 H2517 0.930 . S
C2527 C2520 1.409 . S
C2527 C2526 1.362 . S
H2528 C2534 0.930 . S
H2529 C2537 0.930 . S
H2530 C2538 0.930 . S
H2531 C2539 0.930 . S
H2532 C2542 0.930 . S
H2533 C2543 0.930 . S
C2534 H2528 0.930 . S
C2534 C2535 1.355 . S
C2534 C2536 1.415 . S
C2535 C2534 1.355 . S
C2535 C2537 1.419 . S
C2536 C2534 1.415 . S
C2536 C2541 1.425 . S
C2536 C2543 1.409 . S
C2537 H2529 0.930 . S
C2537 C2535 1.419 . S
C2537 C2538 1.362 . S
C2538 H2530 0.930 . S
C2538 C2537 1.362 . S
C2538 C2541 1.409 . S
C2539 H2531 0.930 . S
C2539 C2540 1.355 . S
C2539 C2541 1.415 . S
C2540 C2539 1.355 . S
C2540 C2542 1.419 . S
C2541 C2536 1.425 . S
C2541 C2538 1.409 . S
C2541 C2539 1.415 . S
C2542 H2532 0.930 . S
C2542 C2540 1.419 . S
C2542 C2543 1.362 . S
C2543 H2533 0.930 . S
C2543 C2536 1.409 . S
C2543 C2542 1.362 . S
H2544 C2550 0.930 . S
H2545 C2553 0.930 1_556 S
H2546 C2554 0.930 . S
H2547 C2555 0.930 . S
H2548 C2558 0.930 . S
H2549 C2559 0.930 . S
C2550 H2544 0.930 . S
C2550 C2551 1.355 . S
C2550 C2552 1.415 . S
C2551 C2550 1.355 . S
C2551 C2553 1.419 . S
C2552 C2550 1.415 . S
C2552 C2557 1.425 . S
C2552 C2559 1.409 . S
C2553 H2545 0.930 1_554 S
C2553 C2551 1.419 . S
C2553 C2554 1.362 . S
C2554 H2546 0.930 . S
C2554 C2553 1.362 . S
C2554 C2557 1.409 . S
C2555 H2547 0.930 . S
C2555 C2556 1.355 . S
C2555 C2557 1.415 . S
C2556 C2555 1.355 . S
C2556 C2558 1.419 . S
C2557 C2552 1.425 . S
C2557 C2554 1.409 . S
C2557 C2555 1.415 . S
C2558 H2548 0.930 . S
C2558 C2556 1.419 . S
C2558 C2559 1.362 . S
C2559 H2549 0.930 . S
C2559 C2552 1.409 . S
C2559 C2558 1.362 . S
H2560 C2566 0.930 . S
H2561 C2569 0.930 . S
H2562 C2570 0.930 . S
H2563 C2571 0.930 . S
H2564 C2574 0.930 . S
H2565 C2575 0.930 . S
C2566 H2560 0.930 . S
C2566 C2567 1.355 . S
C2566 C2568 1.415 . S
C2567 C2566 1.355 . S
C2567 C2569 1.419 . S
C2568 C2566 1.415 . S
C2568 C2573 1.425 . S
C2568 C2575 1.409 . S
C2569 H2561 0.930 . S
C2569 C2567 1.419 . S
C2569 C2570 1.362 . S
C2570 H2562 0.930 . S
C2570 C2569 1.362 . S
C2570 C2573 1.409 . S
C2571 H2563 0.930 . S
C2571 C2572 1.355 . S
C2571 C2573 1.415 . S
C2572 C2571 1.355 . S
C2572 C2574 1.419 . S
C2573 C2568 1.425 . S
C2573 C2570 1.409 . S
C2573 C2571 1.415 . S
C2574 H2564 0.930 . S
C2574 C2572 1.419 . S
C2574 C2575 1.362 . S
C2575 H2565 0.930 . S
C2575 C2568 1.409 . S
C2575 C2574 1.362 . S
H2576 C2582 0.930 . S
H2577 C2585 0.930 . S
H2578 C2586 0.930 . S
H2579 C2587 0.930 . S
H2580 C2590 0.930 . S
H2581 C2591 0.930 . S
C2582 H2576 0.930 . S
C2582 C2583 1.355 . S
C2582 C2584 1.415 . S
C2583 C2582 1.355 . S
C2583 C2585 1.419 . S
C2584 C2582 1.415 . S
C2584 C2589 1.425 . S
C2584 C2591 1.409 . S
C2585 H2577 0.930 . S
C2585 C2583 1.419 . S
C2585 C2586 1.362 . S
C2586 H2578 0.930 . S
C2586 C2585 1.362 . S
C2586 C2589 1.409 . S
C2587 H2579 0.930 . S
C2587 C2588 1.355 . S
C2587 C2589 1.415 . S
C2588 C2587 1.355 . S
C2588 C2590 1.419 . S
C2589 C2584 1.425 . S
C2589 C2586 1.409 . S
C2589 C2587 1.415 . S
C2590 H2580 0.930 . S
C2590 C2588 1.419 . S
C2590 C2591 1.362 . S
C2591 H2581 0.930 . S
C2591 C2584 1.409 . S
C2591 C2590 1.362 . S
H2592 C2598 0.930 . S
H2593 C2601 0.930 . S
H2594 C2602 0.930 . S
H2595 C2603 0.930 . S
H2596 C2606 0.930 . S
H2597 C2607 0.930 . S
C2598 H2592 0.930 . S
C2598 C2599 1.355 . S
C2598 C2600 1.415 . S
C2599 C2598 1.355 . S
C2599 C2601 1.419 . S
C2600 C2598 1.415 . S
C2600 C2605 1.425 . S
C2600 C2607 1.409 . S
C2601 H2593 0.930 . S
C2601 C2599 1.419 . S
C2601 C2602 1.362 . S
C2602 H2594 0.930 . S
C2602 C2601 1.362 . S
C2602 C2605 1.409 . S
C2603 H2595 0.930 . S
C2603 C2604 1.355 . S
C2603 C2605 1.415 . S
C2604 C2603 1.355 . S
C2604 C2606 1.419 . S
C2605 C2600 1.425 . S
C2605 C2602 1.409 . S
C2605 C2603 1.415 . S
C2606 H2596 0.930 . S
C2606 C2604 1.419 . S
C2606 C2607 1.362 . S
C2607 H2597 0.930 . S
C2607 C2600 1.409 . S
C2607 C2606 1.362 . S
H2608 C2614 0.930 . S
H2609 C2617 0.930 1_554 S
H2610 C2618 0.930 . S
H2611 C2619 0.930 . S
H2612 C2622 0.930 . S
H2613 C2623 0.930 . S
C2614 H2608 0.930 . S
C2614 C2615 1.355 . S
C2614 C2616 1.415 . S
C2615 C2614 1.355 . S
C2615 C2617 1.419 . S
C2616 C2614 1.415 . S
C2616 C2621 1.425 . S
C2616 C2623 1.409 . S
C2617 H2609 0.930 1_556 S
C2617 C2615 1.419 . S
C2617 C2618 1.362 . S
C2618 H2610 0.930 . S
C2618 C2617 1.362 . S
C2618 C2621 1.409 . S
C2619 H2611 0.930 . S
C2619 C2620 1.355 . S
C2619 C2621 1.415 . S
C2620 C2619 1.355 . S
C2620 C2622 1.419 . S
C2621 C2616 1.425 . S
C2621 C2618 1.409 . S
C2621 C2619 1.415 . S
C2622 H2612 0.930 . S
C2622 C2620 1.419 . S
C2622 C2623 1.362 . S
C2623 H2613 0.930 . S
C2623 C2616 1.409 . S
C2623 C2622 1.362 . S
H2624 C2630 0.930 . S
H2625 C2633 0.930 . S
H2626 C2634 0.930 . S
H2627 C2635 0.930 . S
H2628 C2638 0.930 . S
H2629 C2639 0.930 . S
C2630 H2624 0.930 . S
C2630 C2631 1.355 . S
C2630 C2632 1.415 . S
C2631 C2630 1.355 . S
C2631 C2633 1.419 . S
C2632 C2630 1.415 . S
C2632 C2637 1.425 . S
C2632 C2639 1.409 . S
C2633 H2625 0.930 . S
C2633 C2631 1.419 . S
C2633 C2634 1.362 . S
C2634 H2626 0.930 . S
C2634 C2633 1.362 . S
C2634 C2637 1.409 . S
C2635 H2627 0.930 . S
C2635 C2636 1.355 . S
C2635 C2637 1.415 . S
C2636 C2635 1.355 . S
C2636 C2638 1.419 . S
C2637 C2632 1.425 . S
C2637 C2634 1.409 . S
C2637 C2635 1.415 . S
C2638 H2628 0.930 . S
C2638 C2636 1.419 . S
C2638 C2639 1.362 . S
C2639 H2629 0.930 . S
C2639 C2632 1.409 . S
C2639 C2638 1.362 . S
H2640 C2646 0.930 . S
H2641 C2649 0.930 . S
H2642 C2650 0.930 . S
H2643 C2651 0.930 . S
H2644 C2654 0.930 . S
H2645 C2655 0.930 . S
C2646 H2640 0.930 . S
C2646 C2647 1.355 . S
C2646 C2648 1.415 . S
C2647 C2646 1.355 . S
C2647 C2649 1.419 . S
C2648 C2646 1.415 . S
C2648 C2653 1.425 . S
C2648 C2655 1.409 . S
C2649 H2641 0.930 . S
C2649 C2647 1.419 . S
C2649 C2650 1.362 . S
C2650 H2642 0.930 . S
C2650 C2649 1.362 . S
C2650 C2653 1.409 . S
C2651 H2643 0.930 . S
C2651 C2652 1.355 . S
C2651 C2653 1.415 . S
C2652 C2651 1.355 . S
C2652 C2654 1.419 . S
C2653 C2648 1.425 . S
C2653 C2650 1.409 . S
C2653 C2651 1.415 . S
C2654 H2644 0.930 . S
C2654 C2652 1.419 . S
C2654 C2655 1.362 . S
C2655 H2645 0.930 . S
C2655 C2648 1.409 . S
C2655 C2654 1.362 . S
H2656 C2662 0.930 . S
H2657 C2665 0.930 . S
H2658 C2666 0.930 . S
H2659 C2667 0.930 . S
H2660 C2670 0.930 . S
H2661 C2671 0.930 . S
C2662 H2656 0.930 . S
C2662 C2663 1.355 . S
C2662 C2664 1.415 . S
C2663 C2662 1.355 . S
C2663 C2665 1.419 . S
C2664 C2662 1.415 . S
C2664 C2669 1.425 . S
C2664 C2671 1.409 . S
C2665 H2657 0.930 . S
C2665 C2663 1.419 . S
C2665 C2666 1.362 . S
C2666 H2658 0.930 . S
C2666 C2665 1.362 . S
C2666 C2669 1.409 . S
C2667 H2659 0.930 . S
C2667 C2668 1.355 . S
C2667 C2669 1.415 . S
C2668 C2667 1.355 . S
C2668 C2670 1.419 . S
C2669 C2664 1.425 . S
C2669 C2666 1.409 . S
C2669 C2667 1.415 . S
C2670 H2660 0.930 . S
C2670 C2668 1.419 . S
C2670 C2671 1.362 . S
C2671 H2661 0.930 . S
C2671 C2664 1.409 . S
C2671 C2670 1.362 . S
H2672 C2678 0.930 . S
H2673 C2681 0.930 . S
H2674 C2682 0.930 . S
H2675 C2683 0.930 . S
H2676 C2686 0.930 . S
H2677 C2687 0.930 . S
C2678 H2672 0.930 . S
C2678 C2679 1.355 . S
C2678 C2680 1.415 . S
C2679 C2678 1.355 . S
C2679 C2681 1.419 . S
C2680 C2678 1.415 . S
C2680 C2685 1.425 . S
C2680 C2687 1.409 . S
C2681 H2673 0.930 . S
C2681 C2679 1.419 . S
C2681 C2682 1.362 . S
C2682 H2674 0.930 . S
C2682 C2681 1.362 . S
C2682 C2685 1.409 . S
C2683 H2675 0.930 . S
C2683 C2684 1.355 . S
C2683 C2685 1.415 . S
C2684 C2683 1.355 . S
C2684 C2686 1.419 . S
C2685 C2680 1.425 . S
C2685 C2682 1.409 . S
C2685 C2683 1.415 . S
C2686 H2676 0.930 . S
C2686 C2684 1.419 . S
C2686 C2687 1.362 . S
C2687 H2677 0.930 . S
C2687 C2680 1.409 . S
C2687 C2686 1.362 . S
H2688 C2694 0.930 . S
H2689 C2697 0.930 . S
H2690 C2698 0.930 . S
H2691 C2699 0.930 . S
H2692 C2702 0.930 . S
H2693 C2703 0.930 . S
C2694 H2688 0.930 . S
C2694 C2695 1.355 . S
C2694 C2696 1.415 . S
C2695 C2694 1.355 . S
C2695 C2697 1.419 . S
C2696 C2694 1.415 . S
C2696 C2701 1.425 . S
C2696 C2703 1.409 . S
C2697 H2689 0.930 . S
C2697 C2695 1.419 . S
C2697 C2698 1.362 . S
C2698 H2690 0.930 . S
C2698 C2697 1.362 . S
C2698 C2701 1.409 . S
C2699 H2691 0.930 . S
C2699 C2700 1.355 . S
C2699 C2701 1.415 . S
C2700 C2699 1.355 . S
C2700 C2702 1.419 . S
C2701 C2696 1.425 . S
C2701 C2698 1.409 . S
C2701 C2699 1.415 . S
C2702 H2692 0.930 . S
C2702 C2700 1.419 . S
C2702 C2703 1.362 . S
C2703 H2693 0.930 . S
C2703 C2696 1.409 . S
C2703 C2702 1.362 . S
H2704 C2710 0.930 . S
H2705 C2713 0.930 . S
H2706 C2714 0.930 . S
H2707 C2715 0.930 . S
H2708 C2718 0.930 . S
H2709 C2719 0.930 . S
C2710 H2704 0.930 . S
C2710 C2711 1.355 . S
C2710 C2712 1.415 . S
C2711 C2710 1.355 . S
C2711 C2713 1.419 . S
C2712 C2710 1.415 . S
C2712 C2717 1.425 . S
C2712 C2719 1.409 . S
C2713 H2705 0.930 . S
C2713 C2711 1.419 . S
C2713 C2714 1.362 . S
C2714 H2706 0.930 . S
C2714 C2713 1.362 . S
C2714 C2717 1.409 . S
C2715 H2707 0.930 . S
C2715 C2716 1.355 . S
C2715 C2717 1.415 . S
C2716 C2715 1.355 . S
C2716 C2718 1.419 . S
C2717 C2712 1.425 . S
C2717 C2714 1.409 . S
C2717 C2715 1.415 . S
C2718 H2708 0.930 . S
C2718 C2716 1.419 . S
C2718 C2719 1.362 . S
C2719 H2709 0.930 . S
C2719 C2712 1.409 . S
C2719 C2718 1.362 . S
H2720 C2726 0.930 . S
H2721 C2729 0.930 . S
H2722 C2730 0.930 . S
H2723 C2731 0.930 . S
H2724 C2734 0.930 . S
H2725 C2735 0.930 . S
C2726 H2720 0.930 . S
C2726 C2727 1.355 . S
C2726 C2728 1.415 . S
C2727 C2726 1.355 . S
C2727 C2729 1.419 . S
C2728 C2726 1.415 . S
C2728 C2733 1.425 . S
C2728 C2735 1.409 . S
C2729 H2721 0.930 . S
C2729 C2727 1.419 . S
C2729 C2730 1.362 . S
C2730 H2722 0.930 . S
C2730 C2729 1.362 . S
C2730 C2733 1.409 . S
C2731 H2723 0.930 . S
C2731 C2732 1.355 . S
C2731 C2733 1.415 . S
C2732 C2731 1.355 . S
C2732 C2734 1.419 . S
C2733 C2728 1.425 . S
C2733 C2730 1.409 . S
C2733 C2731 1.415 . S
C2734 H2724 0.930 . S
C2734 C2732 1.419 . S
C2734 C2735 1.362 . S
C2735 H2725 0.930 . S
C2735 C2728 1.409 . S
C2735 C2734 1.362 . S
H2736 C2742 0.930 . S
H2737 C2745 0.930 . S
H2738 C2746 0.930 . S
H2739 C2747 0.930 . S
H2740 C2750 0.930 . S
H2741 C2751 0.930 . S
C2742 H2736 0.930 . S
C2742 C2743 1.355 . S
C2742 C2744 1.415 . S
C2743 C2742 1.355 . S
C2743 C2745 1.419 . S
C2744 C2742 1.415 . S
C2744 C2749 1.425 . S
C2744 C2751 1.409 . S
C2745 H2737 0.930 . S
C2745 C2743 1.419 . S
C2745 C2746 1.362 . S
C2746 H2738 0.930 . S
C2746 C2745 1.362 . S
C2746 C2749 1.409 . S
C2747 H2739 0.930 . S
C2747 C2748 1.355 . S
C2747 C2749 1.415 . S
C2748 C2747 1.355 . S
C2748 C2750 1.419 . S
C2749 C2744 1.425 . S
C2749 C2746 1.409 . S
C2749 C2747 1.415 . S
C2750 H2740 0.930 . S
C2750 C2748 1.419 . S
C2750 C2751 1.362 . S
C2751 H2741 0.930 . S
C2751 C2744 1.409 . S
C2751 C2750 1.362 . S
H2752 C2758 0.930 . S
H2753 C2761 0.930 . S
H2754 C2762 0.930 . S
H2755 C2763 0.930 . S
H2756 C2766 0.930 . S
H2757 C2767 0.930 . S
C2758 H2752 0.930 . S
C2758 C2759 1.355 . S
C2758 C2760 1.415 . S
C2759 C2758 1.355 . S
C2759 C2761 1.419 . S
C2760 C2758 1.415 . S
C2760 C2765 1.425 . S
C2760 C2767 1.409 . S
C2761 H2753 0.930 . S
C2761 C2759 1.419 . S
C2761 C2762 1.362 . S
C2762 H2754 0.930 . S
C2762 C2761 1.362 . S
C2762 C2765 1.409 . S
C2763 H2755 0.930 . S
C2763 C2764 1.355 . S
C2763 C2765 1.415 . S
C2764 C2763 1.355 . S
C2764 C2766 1.419 . S
C2765 C2760 1.425 . S
C2765 C2762 1.409 . S
C2765 C2763 1.415 . S
C2766 H2756 0.930 . S
C2766 C2764 1.419 . S
C2766 C2767 1.362 . S
C2767 H2757 0.930 . S
C2767 C2760 1.409 . S
C2767 C2766 1.362 . S
H2768 C2774 0.930 . S
H2769 C2777 0.930 . S
H2770 C2778 0.930 . S
H2771 C2779 0.930 . S
H2772 C2782 0.930 1_565 S
H2773 C2783 0.930 . S
C2774 H2768 0.930 . S
C2774 C2775 1.355 . S
C2774 C2776 1.415 . S
C2775 C2774 1.355 . S
C2775 C2777 1.419 . S
C2776 C2774 1.415 . S
C2776 C2781 1.425 . S
C2776 C2783 1.409 . S
C2777 H2769 0.930 . S
C2777 C2775 1.419 . S
C2777 C2778 1.362 . S
C2778 H2770 0.930 . S
C2778 C2777 1.362 . S
C2778 C2781 1.409 . S
C2779 H2771 0.930 . S
C2779 C2780 1.355 . S
C2779 C2781 1.415 . S
C2780 C2779 1.355 . S
C2780 C2782 1.419 . S
C2781 C2776 1.425 . S
C2781 C2778 1.409 . S
C2781 C2779 1.415 . S
C2782 H2772 0.930 1_545 S
C2782 C2780 1.419 . S
C2782 C2783 1.362 . S
C2783 H2773 0.930 . S
C2783 C2776 1.409 . S
C2783 C2782 1.362 . S
H2784 C2790 0.930 . S
H2785 C2793 0.930 . S
H2786 C2794 0.930 . S
H2787 C2795 0.930 . S
H2788 C2798 0.930 . S
H2789 C2799 0.930 . S
C2790 H2784 0.930 . S
C2790 C2791 1.355 . S
C2790 C2792 1.415 . S
C2791 C2790 1.355 . S
C2791 C2793 1.419 . S
C2792 C2790 1.415 . S
C2792 C2797 1.425 . S
C2792 C2799 1.409 . S
C2793 H2785 0.930 . S
C2793 C2791 1.419 . S
C2793 C2794 1.362 . S
C2794 H2786 0.930 . S
C2794 C2793 1.362 . S
C2794 C2797 1.409 . S
C2795 H2787 0.930 . S
C2795 C2796 1.355 . S
C2795 C2797 1.415 . S
C2796 C2795 1.355 . S
C2796 C2798 1.419 . S
C2797 C2792 1.425 . S
C2797 C2794 1.409 . S
C2797 C2795 1.415 . S
C2798 H2788 0.930 . S
C2798 C2796 1.419 . S
C2798 C2799 1.362 . S
C2799 H2789 0.930 . S
C2799 C2792 1.409 . S
C2799 C2798 1.362 . S
H2800 C2806 0.930 . S
H2801 C2809 0.930 . S
H2802 C2810 0.930 . S
H2803 C2811 0.930 . S
H2804 C2814 0.930 . S
H2805 C2815 0.930 . S
C2806 H2800 0.930 . S
C2806 C2807 1.355 . S
C2806 C2808 1.415 . S
C2807 C2806 1.355 . S
C2807 C2809 1.419 . S
C2808 C2806 1.415 . S
C2808 C2813 1.425 . S
C2808 C2815 1.409 . S
C2809 H2801 0.930 . S
C2809 C2807 1.419 . S
C2809 C2810 1.362 . S
C2810 H2802 0.930 . S
C2810 C2809 1.362 . S
C2810 C2813 1.409 . S
C2811 H2803 0.930 . S
C2811 C2812 1.355 . S
C2811 C2813 1.415 . S
C2812 C2811 1.355 . S
C2812 C2814 1.419 . S
C2813 C2808 1.425 . S
C2813 C2810 1.409 . S
C2813 C2811 1.415 . S
C2814 H2804 0.930 . S
C2814 C2812 1.419 . S
C2814 C2815 1.362 . S
C2815 H2805 0.930 . S
C2815 C2808 1.409 . S
C2815 C2814 1.362 . S
H2816 C2822 0.930 . S
H2817 C2825 0.930 . S
H2818 C2826 0.930 . S
H2819 C2827 0.930 . S
H2820 C2830 0.930 . S
H2821 C2831 0.930 . S
C2822 H2816 0.930 . S
C2822 C2823 1.355 . S
C2822 C2824 1.415 . S
C2823 C2822 1.355 . S
C2823 C2825 1.419 . S
C2824 C2822 1.415 . S
C2824 C2829 1.425 . S
C2824 C2831 1.409 . S
C2825 H2817 0.930 . S
C2825 C2823 1.419 . S
C2825 C2826 1.362 . S
C2826 H2818 0.930 . S
C2826 C2825 1.362 . S
C2826 C2829 1.409 . S
C2827 H2819 0.930 . S
C2827 C2828 1.355 . S
C2827 C2829 1.415 . S
C2828 C2827 1.355 . S
C2828 C2830 1.419 . S
C2829 C2824 1.425 . S
C2829 C2826 1.409 . S
C2829 C2827 1.415 . S
C2830 H2820 0.930 . S
C2830 C2828 1.419 . S
C2830 C2831 1.362 . S
C2831 H2821 0.930 . S
C2831 C2824 1.409 . S
C2831 C2830 1.362 . S
H2832 C2838 0.930 . S
H2833 C2841 0.930 . S
H2834 C2842 0.930 . S
H2835 C2843 0.930 . S
H2836 C2846 0.930 . S
H2837 C2847 0.930 . S
C2838 H2832 0.930 . S
C2838 C2839 1.355 . S
C2838 C2840 1.415 . S
C2839 C2838 1.355 . S
C2839 C2841 1.419 . S
C2840 C2838 1.415 . S
C2840 C2845 1.425 . S
C2840 C2847 1.409 . S
C2841 H2833 0.930 . S
C2841 C2839 1.419 . S
C2841 C2842 1.362 . S
C2842 H2834 0.930 . S
C2842 C2841 1.362 . S
C2842 C2845 1.409 . S
C2843 H2835 0.930 . S
C2843 C2844 1.355 . S
C2843 C2845 1.415 . S
C2844 C2843 1.355 . S
C2844 C2846 1.419 . S
C2845 C2840 1.425 . S
C2845 C2842 1.409 . S
C2845 C2843 1.415 . S
C2846 H2836 0.930 . S
C2846 C2844 1.419 . S
C2846 C2847 1.362 . S
C2847 H2837 0.930 . S
C2847 C2840 1.409 . S
C2847 C2846 1.362 . S
H2848 C2854 0.930 . S
H2849 C2857 0.930 . S
H2850 C2858 0.930 . S
H2851 C2859 0.930 . S
H2852 C2862 0.930 . S
H2853 C2863 0.930 . S
C2854 H2848 0.930 . S
C2854 C2855 1.355 . S
C2854 C2856 1.415 . S
C2855 C2854 1.355 . S
C2855 C2857 1.419 . S
C2856 C2854 1.415 . S
C2856 C2861 1.425 . S
C2856 C2863 1.409 . S
C2857 H2849 0.930 . S
C2857 C2855 1.419 . S
C2857 C2858 1.362 . S
C2858 H2850 0.930 . S
C2858 C2857 1.362 . S
C2858 C2861 1.409 . S
C2859 H2851 0.930 . S
C2859 C2860 1.355 . S
C2859 C2861 1.415 . S
C2860 C2859 1.355 . S
C2860 C2862 1.419 . S
C2861 C2856 1.425 . S
C2861 C2858 1.409 . S
C2861 C2859 1.415 . S
C2862 H2852 0.930 . S
C2862 C2860 1.419 . S
C2862 C2863 1.362 . S
C2863 H2853 0.930 . S
C2863 C2856 1.409 . S
C2863 C2862 1.362 . S
H2864 C2870 0.930 . S
H2865 C2873 0.930 . S
H2866 C2874 0.930 . S
H2867 C2875 0.930 . S
H2868 C2878 0.930 . S
H2869 C2879 0.930 . S
C2870 H2864 0.930 . S
C2870 C2871 1.355 . S
C2870 C2872 1.415 . S
C2871 C2870 1.355 . S
C2871 C2873 1.419 . S
C2872 C2870 1.415 . S
C2872 C2877 1.425 . S
C2872 C2879 1.409 . S
C2873 H2865 0.930 . S
C2873 C2871 1.419 . S
C2873 C2874 1.362 . S
C2874 H2866 0.930 . S
C2874 C2873 1.362 . S
C2874 C2877 1.409 . S
C2875 H2867 0.930 . S
C2875 C2876 1.355 . S
C2875 C2877 1.415 . S
C2876 C2875 1.355 . S
C2876 C2878 1.419 . S
C2877 C2872 1.425 . S
C2877 C2874 1.409 . S
C2877 C2875 1.415 . S
C2878 H2868 0.930 . S
C2878 C2876 1.419 . S
C2878 C2879 1.362 . S
C2879 H2869 0.930 . S
C2879 C2872 1.409 . S
C2879 C2878 1.362 . S
H2880 C2886 0.930 . S
H2881 C2889 0.930 . S
H2882 C2890 0.930 . S
H2883 C2891 0.930 . S
H2884 C2894 0.930 . S
H2885 C2895 0.930 . S
C2886 H2880 0.930 . S
C2886 C2887 1.355 . S
C2886 C2888 1.415 . S
C2887 C2886 1.355 . S
C2887 C2889 1.419 . S
C2888 C2886 1.415 . S
C2888 C2893 1.425 . S
C2888 C2895 1.409 . S
C2889 H2881 0.930 . S
C2889 C2887 1.419 . S
C2889 C2890 1.362 . S
C2890 H2882 0.930 . S
C2890 C2889 1.362 . S
C2890 C2893 1.409 . S
C2891 H2883 0.930 . S
C2891 C2892 1.355 . S
C2891 C2893 1.415 . S
C2892 C2891 1.355 . S
C2892 C2894 1.419 . S
C2893 C2888 1.425 . S
C2893 C2890 1.409 . S
C2893 C2891 1.415 . S
C2894 H2884 0.930 . S
C2894 C2892 1.419 . S
C2894 C2895 1.362 . S
C2895 H2885 0.930 . S
C2895 C2888 1.409 . S
C2895 C2894 1.362 . S
H2896 C2902 0.930 . S
H2897 C2905 0.930 . S
H2898 C2906 0.930 . S
H2899 C2907 0.930 . S
H2900 C2910 0.930 . S
H2901 C2911 0.930 . S
C2902 H2896 0.930 . S
C2902 C2903 1.355 . S
C2902 C2904 1.415 . S
C2903 C2902 1.355 . S
C2903 C2905 1.419 . S
C2904 C2902 1.415 . S
C2904 C2909 1.425 . S
C2904 C2911 1.409 . S
C2905 H2897 0.930 . S
C2905 C2903 1.419 . S
C2905 C2906 1.362 . S
C2906 H2898 0.930 . S
C2906 C2905 1.362 . S
C2906 C2909 1.409 . S
C2907 H2899 0.930 . S
C2907 C2908 1.355 . S
C2907 C2909 1.415 . S
C2908 C2907 1.355 . S
C2908 C2910 1.419 . S
C2909 C2904 1.425 . S
C2909 C2906 1.409 . S
C2909 C2907 1.415 . S
C2910 H2900 0.930 . S
C2910 C2908 1.419 . S
C2910 C2911 1.362 . S
C2911 H2901 0.930 . S
C2911 C2904 1.409 . S
C2911 C2910 1.362 . S
H2912 C2918 0.930 . S
H2913 C2921 0.930 . S
H2914 C2922 0.930 . S
H2915 C2923 0.930 . S
H2916 C2926 0.930 . S
H2917 C2927 0.930 . S
C2918 H2912 0.930 . S
C2918 C2919 1.355 . S
C2918 C2920 1.415 . S
C2919 C2918 1.355 . S
C2919 C2921 1.419 . S
C2920 C2918 1.415 . S
C2920 C2925 1.425 . S
C2920 C2927 1.409 . S
C2921 H2913 0.930 . S
C2921 C2919 1.419 . S
C2921 C2922 1.362 . S
C2922 H2914 0.930 . S
C2922 C2921 1.362 . S
C2922 C2925 1.409 . S
C2923 H2915 0.930 . S
C2923 C2924 1.355 . S
C2923 C2925 1.415 . S
C2924 C2923 1.355 . S
C2924 C2926 1.419 . S
C2925 C2920 1.425 . S
C2925 C2922 1.409 . S
C2925 C2923 1.415 . S
C2926 H2916 0.930 . S
C2926 C2924 1.419 . S
C2926 C2927 1.362 . S
C2927 H2917 0.930 . S
C2927 C2920 1.409 . S
C2927 C2926 1.362 . S
H2928 C2934 0.930 . S
H2929 C2937 0.930 . S
H2930 C2938 0.930 . S
H2931 C2939 0.930 . S
H2932 C2942 0.930 . S
H2933 C2943 0.930 . S
C2934 H2928 0.930 . S
C2934 C2935 1.355 . S
C2934 C2936 1.415 . S
C2935 C2934 1.355 . S
C2935 C2937 1.419 . S
C2936 C2934 1.415 . S
C2936 C2941 1.425 . S
C2936 C2943 1.409 . S
C2937 H2929 0.930 . S
C2937 C2935 1.419 . S
C2937 C2938 1.362 . S
C2938 H2930 0.930 . S
C2938 C2937 1.362 . S
C2938 C2941 1.409 . S
C2939 H2931 0.930 . S
C2939 C2940 1.355 . S
C2939 C2941 1.415 . S
C2940 C2939 1.355 . S
C2940 C2942 1.419 . S
C2941 C2936 1.425 . S
C2941 C2938 1.409 . S
C2941 C2939 1.415 . S
C2942 H2932 0.930 . S
C2942 C2940 1.419 . S
C2942 C2943 1.362 . S
C2943 H2933 0.930 . S
C2943 C2936 1.409 . S
C2943 C2942 1.362 . S
H2944 C2950 0.930 . S
H2945 C2953 0.930 . S
H2946 C2954 0.930 . S
H2947 C2955 0.930 . S
H2948 C2958 0.930 . S
H2949 C2959 0.930 . S
C2950 H2944 0.930 . S
C2950 C2951 1.355 . S
C2950 C2952 1.415 . S
C2951 C2950 1.355 . S
C2951 C2953 1.419 . S
C2952 C2950 1.415 . S
C2952 C2957 1.425 . S
C2952 C2959 1.409 . S
C2953 H2945 0.930 . S
C2953 C2951 1.419 . S
C2953 C2954 1.362 . S
C2954 H2946 0.930 . S
C2954 C2953 1.362 . S
C2954 C2957 1.409 . S
C2955 H2947 0.930 . S
C2955 C2956 1.355 . S
C2955 C2957 1.415 . S
C2956 C2955 1.355 . S
C2956 C2958 1.419 . S
C2957 C2952 1.425 . S
C2957 C2954 1.409 . S
C2957 C2955 1.415 . S
C2958 H2948 0.930 . S
C2958 C2956 1.419 . S
C2958 C2959 1.362 . S
C2959 H2949 0.930 . S
C2959 C2952 1.409 . S
C2959 C2958 1.362 . S
H2960 C2966 0.930 . S
H2961 C2969 0.930 . S
H2962 C2970 0.930 . S
H2963 C2971 0.930 . S
H2964 C2974 0.930 . S
H2965 C2975 0.930 . S
C2966 H2960 0.930 . S
C2966 C2967 1.355 . S
C2966 C2968 1.415 . S
C2967 C2966 1.355 . S
C2967 C2969 1.419 . S
C2968 C2966 1.415 . S
C2968 C2973 1.425 . S
C2968 C2975 1.409 . S
C2969 H2961 0.930 . S
C2969 C2967 1.419 . S
C2969 C2970 1.362 . S
C2970 H2962 0.930 . S
C2970 C2969 1.362 . S
C2970 C2973 1.409 . S
C2971 H2963 0.930 . S
C2971 C2972 1.355 . S
C2971 C2973 1.415 . S
C2972 C2971 1.355 . S
C2972 C2974 1.419 . S
C2973 C2968 1.425 . S
C2973 C2970 1.409 . S
C2973 C2971 1.415 . S
C2974 H2964 0.930 . S
C2974 C2972 1.419 . S
C2974 C2975 1.362 . S
C2975 H2965 0.930 . S
C2975 C2968 1.409 . S
C2975 C2974 1.362 . S
H2976 C2982 0.930 . S
H2977 C2985 0.930 . S
H2978 C2986 0.930 . S
H2979 C2987 0.930 . S
H2980 C2990 0.930 . S
H2981 C2991 0.930 . S
C2982 H2976 0.930 . S
C2982 C2983 1.355 . S
C2982 C2984 1.415 . S
C2983 C2982 1.355 . S
C2983 C2985 1.419 . S
C2984 C2982 1.415 . S
C2984 C2989 1.425 . S
C2984 C2991 1.409 . S
C2985 H2977 0.930 . S
C2985 C2983 1.419 . S
C2985 C2986 1.362 . S
C2986 H2978 0.930 . S
C2986 C2985 1.362 . S
C2986 C2989 1.409 . S
C2987 H2979 0.930 . S
C2987 C2988 1.355 . S
C2987 C2989 1.415 . S
C2988 C2987 1.355 . S
C2988 C2990 1.419 . S
C2989 C2984 1.425 . S
C2989 C2986 1.409 . S
C2989 C2987 1.415 . S
C2990 H2980 0.930 . S
C2990 C2988 1.419 . S
C2990 C2991 1.362 . S
C2991 H2981 0.930 . S
C2991 C2984 1.409 . S
C2991 C2990 1.362 . S
H2992 C2998 0.930 . S
H2993 C3001 0.930 . S
H2994 C3002 0.930 . S
H2995 C3003 0.930 . S
H2996 C3006 0.930 . S
H2997 C3007 0.930 . S
C2998 H2992 0.930 . S
C2998 C2999 1.355 . S
C2998 C3000 1.415 . S
C2999 C2998 1.355 . S
C2999 C3001 1.419 . S
C3000 C2998 1.415 . S
C3000 C3005 1.425 . S
C3000 C3007 1.409 . S
C3001 H2993 0.930 . S
C3001 C2999 1.419 . S
C3001 C3002 1.362 . S
C3002 H2994 0.930 . S
C3002 C3001 1.362 . S
C3002 C3005 1.409 . S
C3003 H2995 0.930 . S
C3003 C3004 1.355 . S
C3003 C3005 1.415 . S
C3004 C3003 1.355 . S
C3004 C3006 1.419 . S
C3005 C3000 1.425 . S
C3005 C3002 1.409 . S
C3005 C3003 1.415 . S
C3006 H2996 0.930 . S
C3006 C3004 1.419 . S
C3006 C3007 1.362 . S
C3007 H2997 0.930 . S
C3007 C3000 1.409 . S
C3007 C3006 1.362 . S
H3008 C3014 0.930 . S
H3009 C3017 0.930 . S
H3010 C3018 0.930 . S
H3011 C3019 0.930 . S
H3012 C3022 0.930 . S
H3013 C3023 0.930 . S
C3014 H3008 0.930 . S
C3014 C3015 1.355 . S
C3014 C3016 1.415 . S
C3015 C3014 1.355 . S
C3015 C3017 1.419 . S
C3016 C3014 1.415 . S
C3016 C3021 1.425 . S
C3016 C3023 1.409 . S
C3017 H3009 0.930 . S
C3017 C3015 1.419 . S
C3017 C3018 1.362 . S
C3018 H3010 0.930 . S
C3018 C3017 1.362 . S
C3018 C3021 1.409 . S
C3019 H3011 0.930 . S
C3019 C3020 1.355 . S
C3019 C3021 1.415 . S
C3020 C3019 1.355 . S
C3020 C3022 1.419 . S
C3021 C3016 1.425 . S
C3021 C3018 1.409 . S
C3021 C3019 1.415 . S
C3022 H3012 0.930 . S
C3022 C3020 1.419 . S
C3022 C3023 1.362 . S
C3023 H3013 0.930 . S
C3023 C3016 1.409 . S
C3023 C3022 1.362 . S
H3024 C3030 0.930 . S
H3025 C3033 0.930 . S
H3026 C3034 0.930 . S
H3027 C3035 0.930 . S
H3028 C3038 0.930 . S
H3029 C3039 0.930 . S
C3030 H3024 0.930 . S
C3030 C3031 1.355 . S
C3030 C3032 1.415 . S
C3031 C3030 1.355 . S
C3031 C3033 1.419 . S
C3032 C3030 1.415 . S
C3032 C3037 1.425 . S
C3032 C3039 1.409 . S
C3033 H3025 0.930 . S
C3033 C3031 1.419 . S
C3033 C3034 1.362 . S
C3034 H3026 0.930 . S
C3034 C3033 1.362 . S
C3034 C3037 1.409 . S
C3035 H3027 0.930 . S
C3035 C3036 1.355 . S
C3035 C3037 1.415 . S
C3036 C3035 1.355 . S
C3036 C3038 1.419 . S
C3037 C3032 1.425 . S
C3037 C3034 1.409 . S
C3037 C3035 1.415 . S
C3038 H3028 0.930 . S
C3038 C3036 1.419 . S
C3038 C3039 1.362 . S
C3039 H3029 0.930 . S
C3039 C3032 1.409 . S
C3039 C3038 1.362 . S
H3040 C3046 0.930 . S
H3041 C3049 0.930 . S
H3042 C3050 0.930 . S
H3043 C3051 0.930 . S
H3044 C3054 0.930 . S
H3045 C3055 0.930 . S
C3046 H3040 0.930 . S
C3046 C3047 1.355 . S
C3046 C3048 1.415 . S
C3047 C3046 1.355 . S
C3047 C3049 1.419 . S
C3048 C3046 1.415 . S
C3048 C3053 1.425 . S
C3048 C3055 1.409 . S
C3049 H3041 0.930 . S
C3049 C3047 1.419 . S
C3049 C3050 1.362 . S
C3050 H3042 0.930 . S
C3050 C3049 1.362 . S
C3050 C3053 1.409 . S
C3051 H3043 0.930 . S
C3051 C3052 1.355 . S
C3051 C3053 1.415 . S
C3052 C3051 1.355 . S
C3052 C3054 1.419 . S
C3053 C3048 1.425 . S
C3053 C3050 1.409 . S
C3053 C3051 1.415 . S
C3054 H3044 0.930 . S
C3054 C3052 1.419 . S
C3054 C3055 1.362 . S
C3055 H3045 0.930 . S
C3055 C3048 1.409 . S
C3055 C3054 1.362 . S
H3056 C3062 0.930 . S
H3057 C3065 0.930 . S
H3058 C3066 0.930 . S
H3059 C3067 0.930 . S
H3060 C3070 0.930 . S
H3061 C3071 0.930 . S
C3062 H3056 0.930 . S
C3062 C3063 1.355 . S
C3062 C3064 1.415 . S
C3063 C3062 1.355 . S
C3063 C3065 1.419 . S
C3064 C3062 1.415 . S
C3064 C3069 1.425 . S
C3064 C3071 1.409 . S
C3065 H3057 0.930 . S
C3065 C3063 1.419 . S
C3065 C3066 1.362 . S
C3066 H3058 0.930 . S
C3066 C3065 1.362 . S
C3066 C3069 1.409 . S
C3067 H3059 0.930 . S
C3067 C3068 1.355 . S
C3067 C3069 1.415 . S
C3068 C3067 1.355 . S
C3068 C3070 1.419 . S
C3069 C3064 1.425 . S
C3069 C3066 1.409 . S
C3069 C3067 1.415 . S
C3070 H3060 0.930 . S
C3070 C3068 1.419 . S
C3070 C3071 1.362 . S
C3071 H3061 0.930 . S
C3071 C3064 1.409 . S
C3071 C3070 1.362 . S
H3072 C3078 0.930 . S
H3073 C3081 0.930 . S
H3074 C3082 0.930 . S
H3075 C3083 0.930 . S
H3076 C3086 0.930 . S
H3077 C3087 0.930 . S
C3078 H3072 0.930 . S
C3078 C3079 1.355 . S
C3078 C3080 1.415 . S
C3079 C3078 1.355 . S
C3079 C3081 1.419 . S
C3080 C3078 1.415 . S
C3080 C3085 1.425 . S
C3080 C3087 1.409 . S
C3081 H3073 0.930 . S
C3081 C3079 1.419 . S
C3081 C3082 1.362 . S
C3082 H3074 0.930 . S
C3082 C3081 1.362 . S
C3082 C3085 1.409 . S
C3083 H3075 0.930 . S
C3083 C3084 1.355 . S
C3083 C3085 1.415 . S
C3084 C3083 1.355 . S
C3084 C3086 1.419 . S
C3085 C3080 1.425 . S
C3085 C3082 1.409 . S
C3085 C3083 1.415 . S
C3086 H3076 0.930 . S
C3086 C3084 1.419 . S
C3086 C3087 1.362 . S
C3087 H3077 0.930 . S
C3087 C3080 1.409 . S
C3087 C3086 1.362 . S
H3088 C3094 0.930 . S
H3089 C3097 0.930 . S
H3090 C3098 0.930 . S
H3091 C3099 0.930 . S
H3092 C3102 0.930 . S
H3093 C3103 0.930 . S
C3094 H3088 0.930 . S
C3094 C3095 1.355 . S
C3094 C3096 1.415 . S
C3095 C3094 1.355 . S
C3095 C3097 1.419 . S
C3096 C3094 1.415 . S
C3096 C3101 1.425 . S
C3096 C3103 1.409 . S
C3097 H3089 0.930 . S
C3097 C3095 1.419 . S
C3097 C3098 1.362 . S
C3098 H3090 0.930 . S
C3098 C3097 1.362 . S
C3098 C3101 1.409 . S
C3099 H3091 0.930 . S
C3099 C3100 1.355 . S
C3099 C3101 1.415 . S
C3100 C3099 1.355 . S
C3100 C3102 1.419 . S
C3101 C3096 1.425 . S
C3101 C3098 1.409 . S
C3101 C3099 1.415 . S
C3102 H3092 0.930 . S
C3102 C3100 1.419 . S
C3102 C3103 1.362 . S
C3103 H3093 0.930 . S
C3103 C3096 1.409 . S
C3103 C3102 1.362 . S
H3104 C3110 0.930 . S
H3105 C3113 0.930 . S
H3106 C3114 0.930 . S
H3107 C3115 0.930 . S
H3108 C3118 0.930 . S
H3109 C3119 0.930 . S
C3110 H3104 0.930 . S
C3110 C3111 1.355 . S
C3110 C3112 1.415 . S
C3111 C3110 1.355 . S
C3111 C3113 1.419 . S
C3112 C3110 1.415 . S
C3112 C3117 1.425 . S
C3112 C3119 1.409 . S
C3113 H3105 0.930 . S
C3113 C3111 1.419 . S
C3113 C3114 1.362 . S
C3114 H3106 0.930 . S
C3114 C3113 1.362 . S
C3114 C3117 1.409 . S
C3115 H3107 0.930 . S
C3115 C3116 1.355 . S
C3115 C3117 1.415 . S
C3116 C3115 1.355 . S
C3116 C3118 1.419 . S
C3117 C3112 1.425 . S
C3117 C3114 1.409 . S
C3117 C3115 1.415 . S
C3118 H3108 0.930 . S
C3118 C3116 1.419 . S
C3118 C3119 1.362 . S
C3119 H3109 0.930 . S
C3119 C3112 1.409 . S
C3119 C3118 1.362 . S
H3120 C3126 0.930 . S
H3121 C3129 0.930 . S
H3122 C3130 0.930 . S
H3123 C3131 0.930 . S
H3124 C3134 0.930 . S
H3125 C3135 0.930 . S
C3126 H3120 0.930 . S
C3126 C3127 1.355 . S
C3126 C3128 1.415 . S
C3127 C3126 1.355 . S
C3127 C3129 1.419 . S
C3128 C3126 1.415 . S
C3128 C3133 1.425 . S
C3128 C3135 1.409 . S
C3129 H3121 0.930 . S
C3129 C3127 1.419 . S
C3129 C3130 1.362 . S
C3130 H3122 0.930 . S
C3130 C3129 1.362 . S
C3130 C3133 1.409 . S
C3131 H3123 0.930 . S
C3131 C3132 1.355 . S
C3131 C3133 1.415 . S
C3132 C3131 1.355 . S
C3132 C3134 1.419 . S
C3133 C3128 1.425 . S
C3133 C3130 1.409 . S
C3133 C3131 1.415 . S
C3134 H3124 0.930 . S
C3134 C3132 1.419 . S
C3134 C3135 1.362 . S
C3135 H3125 0.930 . S
C3135 C3128 1.409 . S
C3135 C3134 1.362 . S
H3136 C3142 0.930 . S
H3137 C3145 0.930 . S
H3138 C3146 0.930 . S
H3139 C3147 0.930 . S
H3140 C3150 0.930 . S
H3141 C3151 0.930 . S
C3142 H3136 0.930 . S
C3142 C3143 1.355 . S
C3142 C3144 1.415 . S
C3143 C3142 1.355 . S
C3143 C3145 1.419 . S
C3144 C3142 1.415 . S
C3144 C3149 1.425 . S
C3144 C3151 1.409 . S
C3145 H3137 0.930 . S
C3145 C3143 1.419 . S
C3145 C3146 1.362 . S
C3146 H3138 0.930 . S
C3146 C3145 1.362 . S
C3146 C3149 1.409 . S
C3147 H3139 0.930 . S
C3147 C3148 1.355 . S
C3147 C3149 1.415 . S
C3148 C3147 1.355 . S
C3148 C3150 1.419 . S
C3149 C3144 1.425 . S
C3149 C3146 1.409 . S
C3149 C3147 1.415 . S
C3150 H3140 0.930 . S
C3150 C3148 1.419 . S
C3150 C3151 1.362 . S
C3151 H3141 0.930 . S
C3151 C3144 1.409 . S
C3151 C3150 1.362 . S
H3152 C3158 0.930 . S
H3153 C3161 0.930 . S
H3154 C3162 0.930 . S
H3155 C3163 0.930 . S
H3156 C3166 0.930 . S
H3157 C3167 0.930 . S
C3158 H3152 0.930 . S
C3158 C3159 1.355 . S
C3158 C3160 1.415 . S
C3159 C3158 1.355 . S
C3159 C3161 1.419 . S
C3160 C3158 1.415 . S
C3160 C3165 1.425 . S
C3160 C3167 1.409 . S
C3161 H3153 0.930 . S
C3161 C3159 1.419 . S
C3161 C3162 1.362 . S
C3162 H3154 0.930 . S
C3162 C3161 1.362 . S
C3162 C3165 1.409 . S
C3163 H3155 0.930 . S
C3163 C3164 1.355 . S
C3163 C3165 1.415 . S
C3164 C3163 1.355 . S
C3164 C3166 1.419 . S
C3165 C3160 1.425 . S
C3165 C3162 1.409 . S
C3165 C3163 1.415 . S
C3166 H3156 0.930 . S
C3166 C3164 1.419 . S
C3166 C3167 1.362 . S
C3167 H3157 0.930 . S
C3167 C3160 1.409 . S
C3167 C3166 1.362 . S
H3168 C3174 0.930 . S
H3169 C3177 0.930 . S
H3170 C3178 0.930 . S
H3171 C3179 0.930 . S
H3172 C3182 0.930 . S
H3173 C3183 0.930 . S
C3174 H3168 0.930 . S
C3174 C3175 1.355 . S
C3174 C3176 1.415 . S
C3175 C3174 1.355 . S
C3175 C3177 1.419 . S
C3176 C3174 1.415 . S
C3176 C3181 1.425 . S
C3176 C3183 1.409 . S
C3177 H3169 0.930 . S
C3177 C3175 1.419 . S
C3177 C3178 1.362 . S
C3178 H3170 0.930 . S
C3178 C3177 1.362 . S
C3178 C3181 1.409 . S
C3179 H3171 0.930 . S
C3179 C3180 1.355 . S
C3179 C3181 1.415 . S
C3180 C3179 1.355 . S
C3180 C3182 1.419 . S
C3181 C3176 1.425 . S
C3181 C3178 1.409 . S
C3181 C3179 1.415 . S
C3182 H3172 0.930 . S
C3182 C3180 1.419 . S
C3182 C3183 1.362 . S
C3183 H3173 0.930 . S
C3183 C3176 1.409 . S
C3183 C3182 1.362 . S
H3184 C3190 0.930 . S
H3185 C3193 0.930 . S
H3186 C3194 0.930 . S
H3187 C3195 0.930 . S
H3188 C3198 0.930 . S
H3189 C3199 0.930 . S
C3190 H3184 0.930 . S
C3190 C3191 1.355 . S
C3190 C3192 1.415 . S
C3191 C3190 1.355 . S
C3191 C3193 1.419 . S
C3192 C3190 1.415 . S
C3192 C3197 1.425 . S
C3192 C3199 1.409 . S
C3193 H3185 0.930 . S
C3193 C3191 1.419 . S
C3193 C3194 1.362 . S
C3194 H3186 0.930 . S
C3194 C3193 1.362 . S
C3194 C3197 1.409 . S
C3195 H3187 0.930 . S
C3195 C3196 1.355 . S
C3195 C3197 1.415 . S
C3196 C3195 1.355 . S
C3196 C3198 1.419 . S
C3197 C3192 1.425 . S
C3197 C3194 1.409 . S
C3197 C3195 1.415 . S
C3198 H3188 0.930 . S
C3198 C3196 1.419 . S
C3198 C3199 1.362 . S
C3199 H3189 0.930 . S
C3199 C3192 1.409 . S
C3199 C3198 1.362 . S
H3200 C3206 0.930 . S
H3201 C3209 0.930 . S
H3202 C3210 0.930 . S
H3203 C3211 0.930 . S
H3204 C3214 0.930 . S
H3205 C3215 0.930 . S
C3206 H3200 0.930 . S
C3206 C3207 1.355 . S
C3206 C3208 1.415 . S
C3207 C3206 1.355 . S
C3207 C3209 1.419 . S
C3208 C3206 1.415 . S
C3208 C3213 1.425 . S
C3208 C3215 1.409 . S
C3209 H3201 0.930 . S
C3209 C3207 1.419 . S
C3209 C3210 1.362 . S
C3210 H3202 0.930 . S
C3210 C3209 1.362 . S
C3210 C3213 1.409 . S
C3211 H3203 0.930 . S
C3211 C3212 1.355 . S
C3211 C3213 1.415 . S
C3212 C3211 1.355 . S
C3212 C3214 1.419 . S
C3213 C3208 1.425 . S
C3213 C3210 1.409 . S
C3213 C3211 1.415 . S
C3214 H3204 0.930 . S
C3214 C3212 1.419 . S
C3214 C3215 1.362 . S
C3215 H3205 0.930 . S
C3215 C3208 1.409 . S
C3215 C3214 1.362 . S
H3216 C3222 0.930 . S
H3217 C3225 0.930 . S
H3218 C3226 0.930 . S
H3219 C3227 0.930 . S
H3220 C3230 0.930 . S
H3221 C3231 0.930 . S
C3222 H3216 0.930 . S
C3222 C3223 1.355 . S
C3222 C3224 1.415 . S
C3223 C3222 1.355 . S
C3223 C3225 1.419 . S
C3224 C3222 1.415 . S
C3224 C3229 1.425 . S
C3224 C3231 1.409 . S
C3225 H3217 0.930 . S
C3225 C3223 1.419 . S
C3225 C3226 1.362 . S
C3226 H3218 0.930 . S
C3226 C3225 1.362 . S
C3226 C3229 1.409 . S
C3227 H3219 0.930 . S
C3227 C3228 1.355 . S
C3227 C3229 1.415 . S
C3228 C3227 1.355 . S
C3228 C3230 1.419 . S
C3229 C3224 1.425 . S
C3229 C3226 1.409 . S
C3229 C3227 1.415 . S
C3230 H3220 0.930 . S
C3230 C3228 1.419 . S
C3230 C3231 1.362 . S
C3231 H3221 0.930 . S
C3231 C3224 1.409 . S
C3231 C3230 1.362 . S
H3232 C3238 0.930 . S
H3233 C3241 0.930 . S
H3234 C3242 0.930 . S
H3235 C3243 0.930 . S
H3236 C3246 0.930 . S
H3237 C3247 0.930 . S
C3238 H3232 0.930 . S
C3238 C3239 1.355 . S
C3238 C3240 1.415 . S
C3239 C3238 1.355 . S
C3239 C3241 1.419 . S
C3240 C3238 1.415 . S
C3240 C3245 1.425 . S
C3240 C3247 1.409 . S
C3241 H3233 0.930 . S
C3241 C3239 1.419 . S
C3241 C3242 1.362 . S
C3242 H3234 0.930 . S
C3242 C3241 1.362 . S
C3242 C3245 1.409 . S
C3243 H3235 0.930 . S
C3243 C3244 1.355 . S
C3243 C3245 1.415 . S
C3244 C3243 1.355 . S
C3244 C3246 1.419 . S
C3245 C3240 1.425 . S
C3245 C3242 1.409 . S
C3245 C3243 1.415 . S
C3246 H3236 0.930 . S
C3246 C3244 1.419 . S
C3246 C3247 1.362 . S
C3247 H3237 0.930 . S
C3247 C3240 1.409 . S
C3247 C3246 1.362 . S
H3248 C3254 0.930 . S
H3249 C3257 0.930 . S
H3250 C3258 0.930 . S
H3251 C3259 0.930 . S
H3252 C3262 0.930 . S
H3253 C3263 0.930 . S
C3254 H3248 0.930 . S
C3254 C3255 1.355 . S
C3254 C3256 1.415 . S
C3255 C3254 1.355 . S
C3255 C3257 1.419 . S
C3256 C3254 1.415 . S
C3256 C3261 1.425 . S
C3256 C3263 1.409 . S
C3257 H3249 0.930 . S
C3257 C3255 1.419 . S
C3257 C3258 1.362 . S
C3258 H3250 0.930 . S
C3258 C3257 1.362 . S
C3258 C3261 1.409 . S
C3259 H3251 0.930 . S
C3259 C3260 1.355 . S
C3259 C3261 1.415 . S
C3260 C3259 1.355 . S
C3260 C3262 1.419 . S
C3261 C3256 1.425 . S
C3261 C3258 1.409 . S
C3261 C3259 1.415 . S
C3262 H3252 0.930 . S
C3262 C3260 1.419 . S
C3262 C3263 1.362 . S
C3263 H3253 0.930 . S
C3263 C3256 1.409 . S
C3263 C3262 1.362 . S
H3264 C3270 0.930 . S
H3265 C3273 0.930 . S
H3266 C3274 0.930 . S
H3267 C3275 0.930 . S
H3268 C3278 0.930 . S
H3269 C3279 0.930 . S
C3270 H3264 0.930 . S
C3270 C3271 1.355 . S
C3270 C3272 1.415 . S
C3271 C3270 1.355 . S
C3271 C3273 1.419 . S
C3272 C3270 1.415 . S
C3272 C3277 1.425 . S
C3272 C3279 1.409 . S
C3273 H3265 0.930 . S
C3273 C3271 1.419 . S
C3273 C3274 1.362 . S
C3274 H3266 0.930 . S
C3274 C3273 1.362 . S
C3274 C3277 1.409 . S
C3275 H3267 0.930 . S
C3275 C3276 1.355 . S
C3275 C3277 1.415 . S
C3276 C3275 1.355 . S
C3276 C3278 1.419 . S
C3277 C3272 1.425 . S
C3277 C3274 1.409 . S
C3277 C3275 1.415 . S
C3278 H3268 0.930 . S
C3278 C3276 1.419 . S
C3278 C3279 1.362 . S
C3279 H3269 0.930 . S
C3279 C3272 1.409 . S
C3279 C3278 1.362 . S
H3280 C3286 0.930 . S
H3281 C3289 0.930 . S
H3282 C3290 0.930 . S
H3283 C3291 0.930 . S
H3284 C3294 0.930 . S
H3285 C3295 0.930 . S
C3286 H3280 0.930 . S
C3286 C3287 1.355 . S
C3286 C3288 1.415 . S
C3287 C3286 1.355 . S
C3287 C3289 1.419 . S
C3288 C3286 1.415 . S
C3288 C3293 1.425 . S
C3288 C3295 1.409 . S
C3289 H3281 0.930 . S
C3289 C3287 1.419 . S
C3289 C3290 1.362 . S
C3290 H3282 0.930 . S
C3290 C3289 1.362 . S
C3290 C3293 1.409 . S
C3291 H3283 0.930 . S
C3291 C3292 1.355 . S
C3291 C3293 1.415 . S
C3292 C3291 1.355 . S
C3292 C3294 1.419 . S
C3293 C3288 1.425 . S
C3293 C3290 1.409 . S
C3293 C3291 1.415 . S
C3294 H3284 0.930 . S
C3294 C3292 1.419 . S
C3294 C3295 1.362 . S
C3295 H3285 0.930 . S
C3295 C3288 1.409 . S
C3295 C3294 1.362 . S
H3296 C3302 0.930 . S
H3297 C3305 0.930 . S
H3298 C3306 0.930 . S
H3299 C3307 0.930 . S
H3300 C3310 0.930 . S
H3301 C3311 0.930 . S
C3302 H3296 0.930 . S
C3302 C3303 1.355 . S
C3302 C3304 1.415 . S
C3303 C3302 1.355 . S
C3303 C3305 1.419 . S
C3304 C3302 1.415 . S
C3304 C3309 1.425 . S
C3304 C3311 1.409 . S
C3305 H3297 0.930 . S
C3305 C3303 1.419 . S
C3305 C3306 1.362 . S
C3306 H3298 0.930 . S
C3306 C3305 1.362 . S
C3306 C3309 1.409 . S
C3307 H3299 0.930 . S
C3307 C3308 1.355 . S
C3307 C3309 1.415 . S
C3308 C3307 1.355 . S
C3308 C3310 1.419 . S
C3309 C3304 1.425 . S
C3309 C3306 1.409 . S
C3309 C3307 1.415 . S
C3310 H3300 0.930 . S
C3310 C3308 1.419 . S
C3310 C3311 1.362 . S
C3311 H3301 0.930 . S
C3311 C3304 1.409 . S
C3311 C3310 1.362 . S
H3312 C3318 0.930 . S
H3313 C3321 0.930 . S
H3314 C3322 0.930 . S
H3315 C3323 0.930 . S
H3316 C3326 0.930 . S
H3317 C3327 0.930 . S
C3318 H3312 0.930 . S
C3318 C3319 1.355 . S
C3318 C3320 1.415 . S
C3319 C3318 1.355 . S
C3319 C3321 1.419 . S
C3320 C3318 1.415 . S
C3320 C3325 1.425 . S
C3320 C3327 1.409 . S
C3321 H3313 0.930 . S
C3321 C3319 1.419 . S
C3321 C3322 1.362 . S
C3322 H3314 0.930 . S
C3322 C3321 1.362 . S
C3322 C3325 1.409 . S
C3323 H3315 0.930 . S
C3323 C3324 1.355 . S
C3323 C3325 1.415 . S
C3324 C3323 1.355 . S
C3324 C3326 1.419 . S
C3325 C3320 1.425 . S
C3325 C3322 1.409 . S
C3325 C3323 1.415 . S
C3326 H3316 0.930 . S
C3326 C3324 1.419 . S
C3326 C3327 1.362 . S
C3327 H3317 0.930 . S
C3327 C3320 1.409 . S
C3327 C3326 1.362 . S
H3328 C3334 0.930 . S
H3329 C3337 0.930 . S
H3330 C3338 0.930 . S
H3331 C3339 0.930 . S
H3332 C3342 0.930 . S
H3333 C3343 0.930 . S
C3334 H3328 0.930 . S
C3334 C3335 1.355 . S
C3334 C3336 1.415 . S
C3335 C3334 1.355 . S
C3335 C3337 1.419 . S
C3336 C3334 1.415 . S
C3336 C3341 1.425 . S
C3336 C3343 1.409 . S
C3337 H3329 0.930 . S
C3337 C3335 1.419 . S
C3337 C3338 1.362 . S
C3338 H3330 0.930 . S
C3338 C3337 1.362 . S
C3338 C3341 1.409 . S
C3339 H3331 0.930 . S
C3339 C3340 1.355 . S
C3339 C3341 1.415 . S
C3340 C3339 1.355 . S
C3340 C3342 1.419 . S
C3341 C3336 1.425 . S
C3341 C3338 1.409 . S
C3341 C3339 1.415 . S
C3342 H3332 0.930 . S
C3342 C3340 1.419 . S
C3342 C3343 1.362 . S
C3343 H3333 0.930 . S
C3343 C3336 1.409 . S
C3343 C3342 1.362 . S
H3344 C3350 0.930 . S
H3345 C3353 0.930 . S
H3346 C3354 0.930 . S
H3347 C3355 0.930 . S
H3348 C3358 0.930 . S
H3349 C3359 0.930 . S
C3350 H3344 0.930 . S
C3350 C3351 1.355 . S
C3350 C3352 1.415 . S
C3351 C3350 1.355 . S
C3351 C3353 1.419 . S
C3352 C3350 1.415 . S
C3352 C3357 1.425 . S
C3352 C3359 1.409 . S
C3353 H3345 0.930 . S
C3353 C3351 1.419 . S
C3353 C3354 1.362 . S
C3354 H3346 0.930 . S
C3354 C3353 1.362 . S
C3354 C3357 1.409 . S
C3355 H3347 0.930 . S
C3355 C3356 1.355 . S
C3355 C3357 1.415 . S
C3356 C3355 1.355 . S
C3356 C3358 1.419 . S
C3357 C3352 1.425 . S
C3357 C3354 1.409 . S
C3357 C3355 1.415 . S
C3358 H3348 0.930 . S
C3358 C3356 1.419 . S
C3358 C3359 1.362 . S
C3359 H3349 0.930 . S
C3359 C3352 1.409 . S
C3359 C3358 1.362 . S
H3360 C3366 0.930 . S
H3361 C3369 0.930 . S
H3362 C3370 0.930 . S
H3363 C3371 0.930 . S
H3364 C3374 0.930 . S
H3365 C3375 0.930 . S
C3366 H3360 0.930 . S
C3366 C3367 1.355 . S
C3366 C3368 1.415 . S
C3367 C3366 1.355 . S
C3367 C3369 1.419 . S
C3368 C3366 1.415 . S
C3368 C3373 1.425 . S
C3368 C3375 1.409 . S
C3369 H3361 0.930 . S
C3369 C3367 1.419 . S
C3369 C3370 1.362 . S
C3370 H3362 0.930 . S
C3370 C3369 1.362 . S
C3370 C3373 1.409 . S
C3371 H3363 0.930 . S
C3371 C3372 1.355 . S
C3371 C3373 1.415 . S
C3372 C3371 1.355 . S
C3372 C3374 1.419 . S
C3373 C3368 1.425 . S
C3373 C3370 1.409 . S
C3373 C3371 1.415 . S
C3374 H3364 0.930 . S
C3374 C3372 1.419 . S
C3374 C3375 1.362 . S
C3375 H3365 0.930 . S
C3375 C3368 1.409 . S
C3375 C3374 1.362 . S
H3376 C3382 0.930 . S
H3377 C3385 0.930 . S
H3378 C3386 0.930 . S
H3379 C3387 0.930 . S
H3380 C3390 0.930 . S
H3381 C3391 0.930 . S
C3382 H3376 0.930 . S
C3382 C3383 1.355 . S
C3382 C3384 1.415 . S
C3383 C3382 1.355 . S
C3383 C3385 1.419 . S
C3384 C3382 1.415 . S
C3384 C3389 1.425 . S
C3384 C3391 1.409 . S
C3385 H3377 0.930 . S
C3385 C3383 1.419 . S
C3385 C3386 1.362 . S
C3386 H3378 0.930 . S
C3386 C3385 1.362 . S
C3386 C3389 1.409 . S
C3387 H3379 0.930 . S
C3387 C3388 1.355 . S
C3387 C3389 1.415 . S
C3388 C3387 1.355 . S
C3388 C3390 1.419 . S
C3389 C3384 1.425 . S
C3389 C3386 1.409 . S
C3389 C3387 1.415 . S
C3390 H3380 0.930 . S
C3390 C3388 1.419 . S
C3390 C3391 1.362 . S
C3391 H3381 0.930 . S
C3391 C3384 1.409 . S
C3391 C3390 1.362 . S
H3392 C3398 0.930 . S
H3393 C3401 0.930 . S
H3394 C3402 0.930 . S
H3395 C3403 0.930 . S
H3396 C3406 0.930 . S
H3397 C3407 0.930 . S
C3398 H3392 0.930 . S
C3398 C3399 1.355 . S
C3398 C3400 1.415 . S
C3399 C3398 1.355 . S
C3399 C3401 1.419 . S
C3400 C3398 1.415 . S
C3400 C3405 1.425 . S
C3400 C3407 1.409 . S
C3401 H3393 0.930 . S
C3401 C3399 1.419 . S
C3401 C3402 1.362 . S
C3402 H3394 0.930 . S
C3402 C3401 1.362 . S
C3402 C3405 1.409 . S
C3403 H3395 0.930 . S
C3403 C3404 1.355 . S
C3403 C3405 1.415 . S
C3404 C3403 1.355 . S
C3404 C3406 1.419 . S
C3405 C3400 1.425 . S
C3405 C3402 1.409 . S
C3405 C3403 1.415 . S
C3406 H3396 0.930 . S
C3406 C3404 1.419 . S
C3406 C3407 1.362 . S
C3407 H3397 0.930 . S
C3407 C3400 1.409 . S
C3407 C3406 1.362 . S
H3408 C3414 0.930 . S
H3409 C3417 0.930 . S
H3410 C3418 0.930 . S
H3411 C3419 0.930 . S
H3412 C3422 0.930 . S
H3413 C3423 0.930 . S
C3414 H3408 0.930 . S
C3414 C3415 1.355 . S
C3414 C3416 1.415 . S
C3415 C3414 1.355 . S
C3415 C3417 1.419 . S
C3416 C3414 1.415 . S
C3416 C3421 1.425 . S
C3416 C3423 1.409 . S
C3417 H3409 0.930 . S
C3417 C3415 1.419 . S
C3417 C3418 1.362 . S
C3418 H3410 0.930 . S
C3418 C3417 1.362 . S
C3418 C3421 1.409 . S
C3419 H3411 0.930 . S
C3419 C3420 1.355 . S
C3419 C3421 1.415 . S
C3420 C3419 1.355 . S
C3420 C3422 1.419 . S
C3421 C3416 1.425 . S
C3421 C3418 1.409 . S
C3421 C3419 1.415 . S
C3422 H3412 0.930 . S
C3422 C3420 1.419 . S
C3422 C3423 1.362 . S
C3423 H3413 0.930 . S
C3423 C3416 1.409 . S
C3423 C3422 1.362 . S
H3424 C3430 0.930 . S
H3425 C3433 0.930 . S
H3426 C3434 0.930 . S
H3427 C3435 0.930 . S
H3428 C3438 0.930 . S
H3429 C3439 0.930 . S
C3430 H3424 0.930 . S
C3430 C3431 1.355 . S
C3430 C3432 1.415 . S
C3431 C3430 1.355 . S
C3431 C3433 1.419 . S
C3432 C3430 1.415 . S
C3432 C3437 1.425 . S
C3432 C3439 1.409 . S
C3433 H3425 0.930 . S
C3433 C3431 1.419 . S
C3433 C3434 1.362 . S
C3434 H3426 0.930 . S
C3434 C3433 1.362 . S
C3434 C3437 1.409 . S
C3435 H3427 0.930 . S
C3435 C3436 1.355 . S
C3435 C3437 1.415 . S
C3436 C3435 1.355 . S
C3436 C3438 1.419 . S
C3437 C3432 1.425 . S
C3437 C3434 1.409 . S
C3437 C3435 1.415 . S
C3438 H3428 0.930 . S
C3438 C3436 1.419 . S
C3438 C3439 1.362 . S
C3439 H3429 0.930 . S
C3439 C3432 1.409 . S
C3439 C3438 1.362 . S
H3440 C3446 0.930 . S
H3441 C3449 0.930 . S
H3442 C3450 0.930 . S
H3443 C3451 0.930 . S
H3444 C3454 0.930 . S
H3445 C3455 0.930 . S
C3446 H3440 0.930 . S
C3446 C3447 1.355 . S
C3446 C3448 1.415 . S
C3447 C3446 1.355 . S
C3447 C3449 1.419 . S
C3448 C3446 1.415 . S
C3448 C3453 1.425 . S
C3448 C3455 1.409 . S
C3449 H3441 0.930 . S
C3449 C3447 1.419 . S
C3449 C3450 1.362 . S
C3450 H3442 0.930 . S
C3450 C3449 1.362 . S
C3450 C3453 1.409 . S
C3451 H3443 0.930 . S
C3451 C3452 1.355 . S
C3451 C3453 1.415 . S
C3452 C3451 1.355 . S
C3452 C3454 1.419 . S
C3453 C3448 1.425 . S
C3453 C3450 1.409 . S
C3453 C3451 1.415 . S
C3454 H3444 0.930 . S
C3454 C3452 1.419 . S
C3454 C3455 1.362 . S
C3455 H3445 0.930 . S
C3455 C3448 1.409 . S
C3455 C3454 1.362 . S
H3456 C3462 0.930 . S
H3457 C3465 0.930 . S
H3458 C3466 0.930 . S
H3459 C3467 0.930 . S
H3460 C3470 0.930 . S
H3461 C3471 0.930 . S
C3462 H3456 0.930 . S
C3462 C3463 1.355 . S
C3462 C3464 1.415 . S
C3463 C3462 1.355 . S
C3463 C3465 1.419 . S
C3464 C3462 1.415 . S
C3464 C3469 1.425 . S
C3464 C3471 1.409 . S
C3465 H3457 0.930 . S
C3465 C3463 1.419 . S
C3465 C3466 1.362 . S
C3466 H3458 0.930 . S
C3466 C3465 1.362 . S
C3466 C3469 1.409 . S
C3467 H3459 0.930 . S
C3467 C3468 1.355 . S
C3467 C3469 1.415 . S
C3468 C3467 1.355 . S
C3468 C3470 1.419 . S
C3469 C3464 1.425 . S
C3469 C3466 1.409 . S
C3469 C3467 1.415 . S
C3470 H3460 0.930 . S
C3470 C3468 1.419 . S
C3470 C3471 1.362 . S
C3471 H3461 0.930 . S
C3471 C3464 1.409 . S
C3471 C3470 1.362 . S
H3472 C3478 0.930 . S
H3473 C3481 0.930 . S
H3474 C3482 0.930 . S
H3475 C3483 0.930 . S
H3476 C3486 0.930 . S
H3477 C3487 0.930 . S
C3478 H3472 0.930 . S
C3478 C3479 1.355 . S
C3478 C3480 1.415 . S
C3479 C3478 1.355 . S
C3479 C3481 1.419 . S
C3480 C3478 1.415 . S
C3480 C3485 1.425 . S
C3480 C3487 1.409 . S
C3481 H3473 0.930 . S
C3481 C3479 1.419 . S
C3481 C3482 1.362 . S
C3482 H3474 0.930 . S
C3482 C3481 1.362 . S
C3482 C3485 1.409 . S
C3483 H3475 0.930 . S
C3483 C3484 1.355 . S
C3483 C3485 1.415 . S
C3484 C3483 1.355 . S
C3484 C3486 1.419 . S
C3485 C3480 1.425 . S
C3485 C3482 1.409 . S
C3485 C3483 1.415 . S
C3486 H3476 0.930 . S
C3486 C3484 1.419 . S
C3486 C3487 1.362 . S
C3487 H3477 0.930 . S
C3487 C3480 1.409 . S
C3487 C3486 1.362 . S
H3488 C3494 0.930 . S
H3489 C3497 0.930 . S
H3490 C3498 0.930 . S
H3491 C3499 0.930 . S
H3492 C3502 0.930 . S
H3493 C3503 0.930 . S
C3494 H3488 0.930 . S
C3494 C3495 1.355 . S
C3494 C3496 1.415 . S
C3495 C3494 1.355 . S
C3495 C3497 1.419 . S
C3496 C3494 1.415 . S
C3496 C3501 1.425 . S
C3496 C3503 1.409 . S
C3497 H3489 0.930 . S
C3497 C3495 1.419 . S
C3497 C3498 1.362 . S
C3498 H3490 0.930 . S
C3498 C3497 1.362 . S
C3498 C3501 1.409 . S
C3499 H3491 0.930 . S
C3499 C3500 1.355 . S
C3499 C3501 1.415 . S
C3500 C3499 1.355 . S
C3500 C3502 1.419 . S
C3501 C3496 1.425 . S
C3501 C3498 1.409 . S
C3501 C3499 1.415 . S
C3502 H3492 0.930 . S
C3502 C3500 1.419 . S
C3502 C3503 1.362 . S
C3503 H3493 0.930 . S
C3503 C3496 1.409 . S
C3503 C3502 1.362 . S
H3504 C3510 0.930 . S
H3505 C3513 0.930 . S
H3506 C3514 0.930 . S
H3507 C3515 0.930 . S
H3508 C3518 0.930 . S
H3509 C3519 0.930 . S
C3510 H3504 0.930 . S
C3510 C3511 1.355 . S
C3510 C3512 1.415 . S
C3511 C3510 1.355 . S
C3511 C3513 1.419 . S
C3512 C3510 1.415 . S
C3512 C3517 1.425 . S
C3512 C3519 1.409 . S
C3513 H3505 0.930 . S
C3513 C3511 1.419 . S
C3513 C3514 1.362 . S
C3514 H3506 0.930 . S
C3514 C3513 1.362 . S
C3514 C3517 1.409 . S
C3515 H3507 0.930 . S
C3515 C3516 1.355 . S
C3515 C3517 1.415 . S
C3516 C3515 1.355 . S
C3516 C3518 1.419 . S
C3517 C3512 1.425 . S
C3517 C3514 1.409 . S
C3517 C3515 1.415 . S
C3518 H3508 0.930 . S
C3518 C3516 1.419 . S
C3518 C3519 1.362 . S
C3519 H3509 0.930 . S
C3519 C3512 1.409 . S
C3519 C3518 1.362 . S
H3520 C3526 0.930 . S
H3521 C3529 0.930 . S
H3522 C3530 0.930 . S
H3523 C3531 0.930 . S
H3524 C3534 0.930 . S
H3525 C3535 0.930 . S
C3526 H3520 0.930 . S
C3526 C3527 1.355 . S
C3526 C3528 1.415 . S
C3527 C3526 1.355 . S
C3527 C3529 1.419 . S
C3528 C3526 1.415 . S
C3528 C3533 1.425 . S
C3528 C3535 1.409 . S
C3529 H3521 0.930 . S
C3529 C3527 1.419 . S
C3529 C3530 1.362 . S
C3530 H3522 0.930 . S
C3530 C3529 1.362 . S
C3530 C3533 1.409 . S
C3531 H3523 0.930 . S
C3531 C3532 1.355 . S
C3531 C3533 1.415 . S
C3532 C3531 1.355 . S
C3532 C3534 1.419 . S
C3533 C3528 1.425 . S
C3533 C3530 1.409 . S
C3533 C3531 1.415 . S
C3534 H3524 0.930 . S
C3534 C3532 1.419 . S
C3534 C3535 1.362 . S
C3535 H3525 0.930 . S
C3535 C3528 1.409 . S
C3535 C3534 1.362 . S
H3536 C3542 0.930 . S
H3537 C3545 0.930 . S
H3538 C3546 0.930 . S
H3539 C3547 0.930 . S
H3540 C3550 0.930 . S
H3541 C3551 0.930 . S
C3542 H3536 0.930 . S
C3542 C3543 1.355 . S
C3542 C3544 1.415 . S
C3543 C3542 1.355 . S
C3543 C3545 1.419 . S
C3544 C3542 1.415 . S
C3544 C3549 1.425 . S
C3544 C3551 1.409 . S
C3545 H3537 0.930 . S
C3545 C3543 1.419 . S
C3545 C3546 1.362 . S
C3546 H3538 0.930 . S
C3546 C3545 1.362 . S
C3546 C3549 1.409 . S
C3547 H3539 0.930 . S
C3547 C3548 1.355 . S
C3547 C3549 1.415 . S
C3548 C3547 1.355 . S
C3548 C3550 1.419 . S
C3549 C3544 1.425 . S
C3549 C3546 1.409 . S
C3549 C3547 1.415 . S
C3550 H3540 0.930 . S
C3550 C3548 1.419 . S
C3550 C3551 1.362 . S
C3551 H3541 0.930 . S
C3551 C3544 1.409 . S
C3551 C3550 1.362 . S
H3552 C3558 0.930 . S
H3553 C3561 0.930 . S
H3554 C3562 0.930 . S
H3555 C3563 0.930 . S
H3556 C3566 0.930 . S
H3557 C3567 0.930 . S
C3558 H3552 0.930 . S
C3558 C3559 1.355 . S
C3558 C3560 1.415 1_455 S
C3559 C3558 1.355 . S
C3559 C3561 1.419 . S
C3560 C3558 1.415 1_655 S
C3560 C3565 1.425 . S
C3560 C3567 1.409 . S
C3561 H3553 0.930 . S
C3561 C3559 1.419 . S
C3561 C3562 1.362 1_455 S
C3562 H3554 0.930 . S
C3562 C3561 1.362 1_655 S
C3562 C3565 1.409 . S
C3563 H3555 0.930 . S
C3563 C3564 1.355 . S
C3563 C3565 1.415 . S
C3564 C3563 1.355 . S
C3564 C3566 1.419 . S
C3565 C3560 1.425 . S
C3565 C3562 1.409 . S
C3565 C3563 1.415 . S
C3566 H3556 0.930 . S
C3566 C3564 1.419 . S
C3566 C3567 1.362 . S
C3567 H3557 0.930 . S
C3567 C3560 1.409 . S
C3567 C3566 1.362 . S
H3568 C3574 0.930 . S
H3569 C3577 0.930 . S
H3570 C3578 0.930 . S
H3571 C3579 0.930 . S
H3572 C3582 0.930 . S
H3573 C3583 0.930 . S
C3574 H3568 0.930 . S
C3574 C3575 1.355 . S
C3574 C3576 1.415 . S
C3575 C3574 1.355 . S
C3575 C3577 1.419 . S
C3576 C3574 1.415 . S
C3576 C3581 1.425 . S
C3576 C3583 1.409 . S
C3577 H3569 0.930 . S
C3577 C3575 1.419 . S
C3577 C3578 1.362 . S
C3578 H3570 0.930 . S
C3578 C3577 1.362 . S
C3578 C3581 1.409 . S
C3579 H3571 0.930 . S
C3579 C3580 1.355 . S
C3579 C3581 1.415 . S
C3580 C3579 1.355 . S
C3580 C3582 1.419 . S
C3581 C3576 1.425 . S
C3581 C3578 1.409 . S
C3581 C3579 1.415 . S
C3582 H3572 0.930 . S
C3582 C3580 1.419 . S
C3582 C3583 1.362 . S
C3583 H3573 0.930 . S
C3583 C3576 1.409 . S
C3583 C3582 1.362 . S
H3584 C3590 0.930 . S
H3585 C3593 0.930 . S
H3586 C3594 0.930 . S
H3587 C3595 0.930 . S
H3588 C3598 0.930 . S
H3589 C3599 0.930 . S
C3590 H3584 0.930 . S
C3590 C3591 1.355 . S
C3590 C3592 1.415 . S
C3591 C3590 1.355 . S
C3591 C3593 1.419 . S
C3592 C3590 1.415 . S
C3592 C3597 1.425 . S
C3592 C3599 1.409 . S
C3593 H3585 0.930 . S
C3593 C3591 1.419 . S
C3593 C3594 1.362 . S
C3594 H3586 0.930 . S
C3594 C3593 1.362 . S
C3594 C3597 1.409 . S
C3595 H3587 0.930 . S
C3595 C3596 1.355 . S
C3595 C3597 1.415 . S
C3596 C3595 1.355 . S
C3596 C3598 1.419 . S
C3597 C3592 1.425 . S
C3597 C3594 1.409 . S
C3597 C3595 1.415 . S
C3598 H3588 0.930 . S
C3598 C3596 1.419 . S
C3598 C3599 1.362 . S
C3599 H3589 0.930 . S
C3599 C3592 1.409 . S
C3599 C3598 1.362 . S
H3600 C3606 0.930 . S
H3601 C3609 0.929 . S
H3602 C3610 0.930 . S
H3603 C3611 0.930 . S
H3604 C3614 0.930 . S
H3605 C3615 0.930 1_556 S
C3606 H3600 0.930 . S
C3606 C3607 1.355 . S
C3606 C3608 1.415 1_556 S
C3607 C3606 1.355 . S
C3607 C3609 1.419 1_556 S
C3608 C3606 1.415 1_554 S
C3608 C3613 1.425 . S
C3608 C3615 1.409 . S
C3609 H3601 0.929 . S
C3609 C3607 1.419 1_554 S
C3609 C3610 1.362 . S
C3610 H3602 0.930 . S
C3610 C3609 1.362 . S
C3610 C3613 1.409 . S
C3611 H3603 0.930 . S
C3611 C3612 1.355 . S
C3611 C3613 1.415 . S
C3612 C3611 1.355 . S
C3612 C3614 1.419 . S
C3613 C3608 1.425 . S
C3613 C3610 1.409 . S
C3613 C3611 1.415 . S
C3614 H3604 0.930 . S
C3614 C3612 1.419 . S
C3614 C3615 1.362 . S
C3615 H3605 0.930 1_554 S
C3615 C3608 1.409 . S
C3615 C3614 1.362 . S
H3616 C3622 0.930 . S
H3617 C3625 0.930 . S
H3618 C3626 0.930 1_455 S
H3619 C3627 0.930 . S
H3620 C3630 0.930 . S
H3621 C3631 0.930 . S
C3622 H3616 0.930 . S
C3622 C3623 1.355 . S
C3622 C3624 1.415 . S
C3623 C3622 1.355 . S
C3623 C3625 1.419 . S
C3624 C3622 1.415 . S
C3624 C3629 1.425 . S
C3624 C3631 1.409 . S
C3625 H3617 0.930 . S
C3625 C3623 1.419 . S
C3625 C3626 1.362 . S
C3626 H3618 0.930 1_655 S
C3626 C3625 1.362 . S
C3626 C3629 1.409 . S
C3627 H3619 0.930 . S
C3627 C3628 1.355 . S
C3627 C3629 1.415 1_455 S
C3628 C3627 1.355 . S
C3628 C3630 1.419 1_455 S
C3629 C3624 1.425 . S
C3629 C3626 1.409 . S
C3629 C3627 1.415 1_655 S
C3630 H3620 0.930 . S
C3630 C3628 1.419 1_655 S
C3630 C3631 1.362 . S
C3631 H3621 0.930 . S
C3631 C3624 1.409 . S
C3631 C3630 1.362 . S
H3632 C3638 0.930 . S
H3633 C3641 0.930 . S
H3634 C3642 0.930 . S
H3635 C3643 0.930 . S
H3636 C3646 0.930 . S
H3637 C3647 0.930 . S
C3638 H3632 0.930 . S
C3638 C3639 1.355 . S
C3638 C3640 1.415 . S
C3639 C3638 1.355 . S
C3639 C3641 1.419 . S
C3640 C3638 1.415 . S
C3640 C3645 1.425 . S
C3640 C3647 1.409 . S
C3641 H3633 0.930 . S
C3641 C3639 1.419 . S
C3641 C3642 1.362 . S
C3642 H3634 0.930 . S
C3642 C3641 1.362 . S
C3642 C3645 1.409 . S
C3643 H3635 0.930 . S
C3643 C3644 1.355 . S
C3643 C3645 1.415 . S
C3644 C3643 1.355 . S
C3644 C3646 1.419 . S
C3645 C3640 1.425 . S
C3645 C3642 1.409 . S
C3645 C3643 1.415 . S
C3646 H3636 0.930 . S
C3646 C3644 1.419 . S
C3646 C3647 1.362 . S
C3647 H3637 0.930 . S
C3647 C3640 1.409 . S
C3647 C3646 1.362 . S
H3648 C3654 0.930 . S
H3649 C3657 0.930 . S
H3650 C3658 0.930 . S
H3651 C3659 0.930 . S
H3652 C3662 0.930 . S
H3653 C3663 0.930 . S
C3654 H3648 0.930 . S
C3654 C3655 1.355 . S
C3654 C3656 1.415 . S
C3655 C3654 1.355 . S
C3655 C3657 1.419 . S
C3656 C3654 1.415 . S
C3656 C3661 1.425 . S
C3656 C3663 1.409 . S
C3657 H3649 0.930 . S
C3657 C3655 1.419 . S
C3657 C3658 1.362 . S
C3658 H3650 0.930 . S
C3658 C3657 1.362 . S
C3658 C3661 1.409 . S
C3659 H3651 0.930 . S
C3659 C3660 1.355 . S
C3659 C3661 1.415 . S
C3660 C3659 1.355 . S
C3660 C3662 1.419 . S
C3661 C3656 1.425 . S
C3661 C3658 1.409 . S
C3661 C3659 1.415 . S
C3662 H3652 0.930 . S
C3662 C3660 1.419 . S
C3662 C3663 1.362 . S
C3663 H3653 0.930 . S
C3663 C3656 1.409 . S
C3663 C3662 1.362 . S
H3664 C3670 0.930 . S
H3665 C3673 0.930 . S
H3666 C3674 0.930 . S
H3667 C3675 0.930 . S
H3668 C3678 0.930 . S
H3669 C3679 0.930 . S
C3670 H3664 0.930 . S
C3670 C3671 1.355 . S
C3670 C3672 1.415 . S
C3671 C3670 1.355 . S
C3671 C3673 1.419 . S
C3672 C3670 1.415 . S
C3672 C3677 1.425 . S
C3672 C3679 1.409 . S
C3673 H3665 0.930 . S
C3673 C3671 1.419 . S
C3673 C3674 1.362 . S
C3674 H3666 0.930 . S
C3674 C3673 1.362 . S
C3674 C3677 1.409 . S
C3675 H3667 0.930 . S
C3675 C3676 1.355 . S
C3675 C3677 1.415 1_554 S
C3676 C3675 1.355 . S
C3676 C3678 1.419 . S
C3677 C3672 1.425 . S
C3677 C3674 1.409 . S
C3677 C3675 1.415 1_556 S
C3678 H3668 0.930 . S
C3678 C3676 1.419 . S
C3678 C3679 1.362 1_554 S
C3679 H3669 0.930 . S
C3679 C3672 1.409 . S
C3679 C3678 1.362 1_556 S
H3680 C3686 0.930 . S
H3681 C3689 0.930 . S
H3682 C3690 0.930 . S
H3683 C3691 0.930 . S
H3684 C3694 0.930 . S
H3685 C3695 0.930 . S
C3686 H3680 0.930 . S
C3686 C3687 1.355 1_565 S
C3686 C3688 1.415 . S
C3687 C3686 1.355 1_545 S
C3687 C3689 1.419 . S
C3688 C3686 1.415 . S
C3688 C3693 1.425 . S
C3688 C3695 1.409 . S
C3689 H3681 0.930 . S
C3689 C3687 1.419 . S
C3689 C3690 1.362 . S
C3690 H3682 0.930 . S
C3690 C3689 1.362 . S
C3690 C3693 1.409 1_545 S
C3691 H3683 0.930 . S
C3691 C3692 1.355 . S
C3691 C3693 1.415 . S
C3692 C3691 1.355 . S
C3692 C3694 1.419 . S
C3693 C3688 1.425 . S
C3693 C3690 1.409 1_565 S
C3693 C3691 1.415 . S
C3694 H3684 0.930 . S
C3694 C3692 1.419 . S
C3694 C3695 1.362 . S
C3695 H3685 0.930 . S
C3695 C3688 1.409 . S
C3695 C3694 1.362 . S
H3696 C3702 0.930 . S
H3697 C3705 0.930 . S
H3698 C3706 0.930 . S
H3699 C3707 0.930 . S
H3700 C3710 0.930 . S
H3701 C3711 0.930 . S
C3702 H3696 0.930 . S
C3702 C3703 1.355 . S
C3702 C3704 1.415 . S
C3703 C3702 1.355 . S
C3703 C3705 1.419 . S
C3704 C3702 1.415 . S
C3704 C3709 1.425 . S
C3704 C3711 1.409 . S
C3705 H3697 0.930 . S
C3705 C3703 1.419 . S
C3705 C3706 1.362 . S
C3706 H3698 0.930 . S
C3706 C3705 1.362 . S
C3706 C3709 1.409 . S
C3707 H3699 0.930 . S
C3707 C3708 1.355 . S
C3707 C3709 1.415 1_565 S
C3708 C3707 1.355 . S
C3708 C3710 1.419 . S
C3709 C3704 1.425 . S
C3709 C3706 1.409 . S
C3709 C3707 1.415 1_545 S
C3710 H3700 0.930 . S
C3710 C3708 1.419 . S
C3710 C3711 1.362 1_565 S
C3711 H3701 0.930 . S
C3711 C3704 1.409 . S
C3711 C3710 1.362 1_545 S
H3712 C3718 0.930 . S
H3713 C3721 0.930 . S
H3714 C3722 0.930 . S
H3715 C3723 0.930 . S
H3716 C3726 0.930 . S
H3717 C3727 0.930 . S
C3718 H3712 0.930 . S
C3718 C3719 1.355 1_545 S
C3718 C3720 1.415 . S
C3719 C3718 1.355 1_565 S
C3719 C3721 1.419 . S
C3720 C3718 1.415 . S
C3720 C3725 1.425 . S
C3720 C3727 1.409 . S
C3721 H3713 0.930 . S
C3721 C3719 1.419 . S
C3721 C3722 1.362 . S
C3722 H3714 0.930 . S
C3722 C3721 1.362 . S
C3722 C3725 1.409 1_565 S
C3723 H3715 0.930 . S
C3723 C3724 1.355 . S
C3723 C3725 1.415 . S
C3724 C3723 1.355 . S
C3724 C3726 1.419 . S
C3725 C3720 1.425 . S
C3725 C3722 1.409 1_545 S
C3725 C3723 1.415 . S
C3726 H3716 0.930 . S
C3726 C3724 1.419 . S
C3726 C3727 1.362 . S
C3727 H3717 0.930 . S
C3727 C3720 1.409 . S
C3727 C3726 1.362 . S
H3728 C3734 0.930 . S
H3729 C3737 0.930 . S
H3730 C3738 0.930 . S
H3731 C3739 0.930 . S
H3732 C3742 0.930 . S
H3733 C3743 0.930 . S
C3734 H3728 0.930 . S
C3734 C3735 1.355 1_565 S
C3734 C3736 1.415 . S
C3735 C3734 1.355 1_545 S
C3735 C3737 1.419 . S
C3736 C3734 1.415 . S
C3736 C3741 1.425 . S
C3736 C3743 1.409 . S
C3737 H3729 0.930 . S
C3737 C3735 1.419 . S
C3737 C3738 1.362 . S
C3738 H3730 0.930 . S
C3738 C3737 1.362 . S
C3738 C3741 1.409 1_545 S
C3739 H3731 0.930 . S
C3739 C3740 1.355 . S
C3739 C3741 1.415 . S
C3740 C3739 1.355 . S
C3740 C3742 1.419 . S
C3741 C3736 1.425 . S
C3741 C3738 1.409 1_565 S
C3741 C3739 1.415 . S
C3742 H3732 0.930 . S
C3742 C3740 1.419 . S
C3742 C3743 1.362 . S
C3743 H3733 0.930 . S
C3743 C3736 1.409 . S
C3743 C3742 1.362 . S
H3744 C3750 0.930 . S
H3745 C3753 0.930 . S
H3746 C3754 0.930 . S
H3747 C3755 0.930 . S
H3748 C3758 0.930 . S
H3749 C3759 0.930 . S
C3750 H3744 0.930 . S
C3750 C3751 1.355 . S
C3750 C3752 1.415 . S
C3751 C3750 1.355 . S
C3751 C3753 1.419 . S
C3752 C3750 1.415 . S
C3752 C3757 1.425 . S
C3752 C3759 1.409 1_554 S
C3753 H3745 0.930 . S
C3753 C3751 1.419 . S
C3753 C3754 1.362 . S
C3754 H3746 0.930 . S
C3754 C3753 1.362 . S
C3754 C3757 1.409 . S
C3755 H3747 0.930 . S
C3755 C3756 1.355 1_554 S
C3755 C3757 1.415 . S
C3756 C3755 1.355 1_556 S
C3756 C3758 1.419 . S
C3757 C3752 1.425 . S
C3757 C3754 1.409 . S
C3757 C3755 1.415 . S
C3758 H3748 0.930 . S
C3758 C3756 1.419 . S
C3758 C3759 1.362 . S
C3759 H3749 0.930 . S
C3759 C3752 1.409 1_556 S
C3759 C3758 1.362 . S
H3760 C3766 0.930 . S
H3761 C3769 0.930 . S
H3762 C3770 0.930 1_655 S
H3763 C3771 0.930 . S
H3764 C3774 0.930 . S
H3765 C3775 0.930 . S
C3766 H3760 0.930 . S
C3766 C3767 1.355 . S
C3766 C3768 1.415 . S
C3767 C3766 1.355 . S
C3767 C3769 1.419 . S
C3768 C3766 1.415 . S
C3768 C3773 1.425 . S
C3768 C3775 1.409 . S
C3769 H3761 0.930 . S
C3769 C3767 1.419 . S
C3769 C3770 1.362 . S
C3770 H3762 0.930 1_455 S
C3770 C3769 1.362 . S
C3770 C3773 1.409 . S
C3771 H3763 0.930 . S
C3771 C3772 1.355 . S
C3771 C3773 1.415 1_655 S
C3772 C3771 1.355 . S
C3772 C3774 1.419 1_655 S
C3773 C3768 1.425 . S
C3773 C3770 1.409 . S
C3773 C3771 1.415 1_455 S
C3774 H3764 0.930 . S
C3774 C3772 1.419 1_455 S
C3774 C3775 1.362 . S
C3775 H3765 0.930 . S
C3775 C3768 1.409 . S
C3775 C3774 1.362 . S
H3776 C3782 0.930 . S
H3777 C3785 0.930 . S
H3778 C3786 0.930 . S
H3779 C3787 0.930 . S
H3780 C3790 0.930 . S
H3781 C3791 0.930 . S
C3782 H3776 0.930 . S
C3782 C3783 1.355 . S
C3782 C3784 1.415 . S
C3783 C3782 1.355 . S
C3783 C3785 1.419 . S
C3784 C3782 1.415 . S
C3784 C3789 1.425 . S
C3784 C3791 1.409 . S
C3785 H3777 0.930 . S
C3785 C3783 1.419 . S
C3785 C3786 1.362 . S
C3786 H3778 0.930 . S
C3786 C3785 1.362 . S
C3786 C3789 1.409 . S
C3787 H3779 0.930 . S
C3787 C3788 1.355 . S
C3787 C3789 1.415 . S
C3788 C3787 1.355 . S
C3788 C3790 1.419 . S
C3789 C3784 1.425 . S
C3789 C3786 1.409 . S
C3789 C3787 1.415 . S
C3790 H3780 0.930 . S
C3790 C3788 1.419 . S
C3790 C3791 1.362 . S
C3791 H3781 0.930 . S
C3791 C3784 1.409 . S
C3791 C3790 1.362 . S
H3792 C3798 0.930 . S
H3793 C3801 0.928 1_655 S
H3794 C3802 0.930 . S
H3795 C3803 0.930 . S
H3796 C3806 0.930 . S
H3797 C3807 0.930 1_655 S
C3798 H3792 0.930 . S
C3798 C3799 1.355 . S
C3798 C3800 1.415 1_655 S
C3799 C3798 1.355 . S
C3799 C3801 1.408 1_655 S
C3800 C3798 1.415 1_455 S
C3800 C3805 1.425 . S
C3800 C3807 1.409 . S
C3801 H3793 0.928 1_455 S
C3801 C3799 1.408 1_455 S
C3801 C3802 1.375 . S
C3802 H3794 0.930 . S
C3802 C3801 1.375 . S
C3802 C3805 1.409 . S
C3803 H3795 0.930 . S
C3803 C3804 1.355 . S
C3803 C3805 1.415 . S
C3804 C3803 1.355 . S
C3804 C3806 1.419 . S
C3805 C3800 1.425 . S
C3805 C3802 1.409 . S
C3805 C3803 1.415 . S
C3806 H3796 0.930 . S
C3806 C3804 1.419 . S
C3806 C3807 1.362 . S
C3807 H3797 0.930 1_455 S
C3807 C3800 1.409 . S
C3807 C3806 1.362 . S
H3808 C3814 0.930 . S
H3809 C3817 0.930 . S
H3810 C3818 0.930 . S
H3811 C3819 0.930 . S
H3812 C3822 0.930 . S
H3813 C3823 0.930 . S
C3814 H3808 0.930 . S
C3814 C3815 1.355 . S
C3814 C3816 1.415 . S
C3815 C3814 1.355 . S
C3815 C3817 1.419 . S
C3816 C3814 1.415 . S
C3816 C3821 1.425 . S
C3816 C3823 1.409 . S
C3817 H3809 0.930 . S
C3817 C3815 1.419 . S
C3817 C3818 1.362 . S
C3818 H3810 0.930 . S
C3818 C3817 1.362 . S
C3818 C3821 1.409 . S
C3819 H3811 0.930 . S
C3819 C3820 1.355 . S
C3819 C3821 1.415 . S
C3820 C3819 1.355 . S
C3820 C3822 1.419 . S
C3821 C3816 1.425 . S
C3821 C3818 1.409 . S
C3821 C3819 1.415 . S
C3822 H3812 0.930 . S
C3822 C3820 1.419 . S
C3822 C3823 1.362 . S
C3823 H3813 0.930 . S
C3823 C3816 1.409 . S
C3823 C3822 1.362 . S
H3824 C3830 0.930 . S
H3825 C3833 0.931 . S
H3826 C3834 0.930 . S
H3827 C3835 0.930 . S
H3828 C3838 0.930 . S
H3829 C3839 0.930 1_655 S
C3830 H3824 0.930 . S
C3830 C3831 1.355 . S
C3830 C3832 1.415 1_655 S
C3831 C3830 1.355 . S
C3831 C3833 1.419 1_655 S
C3832 C3830 1.415 1_455 S
C3832 C3837 1.425 . S
C3832 C3839 1.409 . S
C3833 H3825 0.931 . S
C3833 C3831 1.419 1_455 S
C3833 C3834 1.362 . S
C3834 H3826 0.930 . S
C3834 C3833 1.362 . S
C3834 C3837 1.409 . S
C3835 H3827 0.930 . S
C3835 C3836 1.355 . S
C3835 C3837 1.415 . S
C3836 C3835 1.355 . S
C3836 C3838 1.419 . S
C3837 C3832 1.425 . S
C3837 C3834 1.409 . S
C3837 C3835 1.415 . S
C3838 H3828 0.930 . S
C3838 C3836 1.419 . S
C3838 C3839 1.362 . S
C3839 H3829 0.930 1_455 S
C3839 C3832 1.409 . S
C3839 C3838 1.362 . S
H3840 C3846 0.930 . S
H3841 C3849 0.930 . S
H3842 C3850 0.930 . S
H3843 C3851 0.930 . S
H3844 C3854 0.930 . S
H3845 C3855 0.930 . S
C3846 H3840 0.930 . S
C3846 C3847 1.355 . S
C3846 C3848 1.415 . S
C3847 C3846 1.355 . S
C3847 C3849 1.419 . S
C3848 C3846 1.415 . S
C3848 C3853 1.425 . S
C3848 C3855 1.409 . S
C3849 H3841 0.930 . S
C3849 C3847 1.419 . S
C3849 C3850 1.362 . S
C3850 H3842 0.930 . S
C3850 C3849 1.362 . S
C3850 C3853 1.409 . S
C3851 H3843 0.930 . S
C3851 C3852 1.355 . S
C3851 C3853 1.415 . S
C3852 C3851 1.355 . S
C3852 C3854 1.419 . S
C3853 C3848 1.425 . S
C3853 C3850 1.409 . S
C3853 C3851 1.415 . S
C3854 H3844 0.930 . S
C3854 C3852 1.419 . S
C3854 C3855 1.362 . S
C3855 H3845 0.930 . S
C3855 C3848 1.409 . S
C3855 C3854 1.362 . S
H3856 C3862 0.930 . S
H3857 C3865 0.930 . S
H3858 C3866 0.930 . S
H3859 C3867 0.930 . S
H3860 C3870 0.930 . S
H3861 C3871 0.930 . S
C3862 H3856 0.930 . S
C3862 C3863 1.355 . S
C3862 C3864 1.415 . S
C3863 C3862 1.355 . S
C3863 C3865 1.419 . S
C3864 C3862 1.415 . S
C3864 C3869 1.425 . S
C3864 C3871 1.409 . S
C3865 H3857 0.930 . S
C3865 C3863 1.419 . S
C3865 C3866 1.362 . S
C3866 H3858 0.930 . S
C3866 C3865 1.362 . S
C3866 C3869 1.409 . S
C3867 H3859 0.930 . S
C3867 C3868 1.355 . S
C3867 C3869 1.415 . S
C3868 C3867 1.355 . S
C3868 C3870 1.419 . S
C3869 C3864 1.425 . S
C3869 C3866 1.409 . S
C3869 C3867 1.415 . S
C3870 H3860 0.930 . S
C3870 C3868 1.419 . S
C3870 C3871 1.362 . S
C3871 H3861 0.930 . S
C3871 C3864 1.409 . S
C3871 C3870 1.362 . S
H3872 C3878 0.930 . S
H3873 C3881 0.930 . S
H3874 C3882 0.930 . S
H3875 C3883 0.930 . S
H3876 C3886 0.930 . S
H3877 C3887 0.930 . S
C3878 H3872 0.930 . S
C3878 C3879 1.355 . S
C3878 C3880 1.415 1_554 S
C3879 C3878 1.355 . S
C3879 C3881 1.419 . S
C3880 C3878 1.415 1_556 S
C3880 C3885 1.425 . S
C3880 C3887 1.409 . S
C3881 H3873 0.930 . S
C3881 C3879 1.419 . S
C3881 C3882 1.362 1_554 S
C3882 H3874 0.930 . S
C3882 C3881 1.362 1_556 S
C3882 C3885 1.409 . S
C3883 H3875 0.930 . S
C3883 C3884 1.355 . S
C3883 C3885 1.415 . S
C3884 C3883 1.355 . S
C3884 C3886 1.419 . S
C3885 C3880 1.425 . S
C3885 C3882 1.409 . S
C3885 C3883 1.415 . S
C3886 H3876 0.930 . S
C3886 C3884 1.419 . S
C3886 C3887 1.362 . S
C3887 H3877 0.930 . S
C3887 C3880 1.409 . S
C3887 C3886 1.362 . S
H3888 C3894 0.930 . S
H3889 C3897 0.930 . S
H3890 C3898 0.930 . S
H3891 C3899 0.930 . S
H3892 C3902 0.930 . S
H3893 C3903 0.930 1_655 S
C3894 H3888 0.930 . S
C3894 C3895 1.355 . S
C3894 C3896 1.415 1_655 S
C3895 C3894 1.355 . S
C3895 C3897 1.419 1_655 S
C3896 C3894 1.415 1_455 S
C3896 C3901 1.425 . S
C3896 C3903 1.409 . S
C3897 H3889 0.930 . S
C3897 C3895 1.419 1_455 S
C3897 C3898 1.362 . S
C3898 H3890 0.930 . S
C3898 C3897 1.362 . S
C3898 C3901 1.409 . S
C3899 H3891 0.930 . S
C3899 C3900 1.355 . S
C3899 C3901 1.415 . S
C3900 C3899 1.355 . S
C3900 C3902 1.419 . S
C3901 C3896 1.425 . S
C3901 C3898 1.409 . S
C3901 C3899 1.415 . S
C3902 H3892 0.930 . S
C3902 C3900 1.419 . S
C3902 C3903 1.362 . S
C3903 H3893 0.930 1_455 S
C3903 C3896 1.409 . S
C3903 C3902 1.362 . S
H3904 C3910 0.930 . S
H3905 C3913 0.930 . S
H3906 C3914 0.930 . S
H3907 C3915 0.930 . S
H3908 C3918 0.930 . S
H3909 C3919 0.930 . S
C3910 H3904 0.930 . S
C3910 C3911 1.355 . S
C3910 C3912 1.415 . S
C3911 C3910 1.355 . S
C3911 C3913 1.419 . S
C3912 C3910 1.415 . S
C3912 C3917 1.425 . S
C3912 C3919 1.409 . S
C3913 H3905 0.930 . S
C3913 C3911 1.419 . S
C3913 C3914 1.362 . S
C3914 H3906 0.930 . S
C3914 C3913 1.362 . S
C3914 C3917 1.409 . S
C3915 H3907 0.930 . S
C3915 C3916 1.355 . S
C3915 C3917 1.415 . S
C3916 C3915 1.355 . S
C3916 C3918 1.419 . S
C3917 C3912 1.425 . S
C3917 C3914 1.409 . S
C3917 C3915 1.415 . S
C3918 H3908 0.930 . S
C3918 C3916 1.419 . S
C3918 C3919 1.362 . S
C3919 H3909 0.930 . S
C3919 C3912 1.409 . S
C3919 C3918 1.362 . S
H3920 C3926 0.930 . S
H3921 C3929 0.930 . S
H3922 C3930 0.930 . S
H3923 C3931 0.930 . S
H3924 C3934 0.930 . S
H3925 C3935 0.930 . S
C3926 H3920 0.930 . S
C3926 C3927 1.355 . S
C3926 C3928 1.415 . S
C3927 C3926 1.355 . S
C3927 C3929 1.419 . S
C3928 C3926 1.415 . S
C3928 C3933 1.425 . S
C3928 C3935 1.409 . S
C3929 H3921 0.930 . S
C3929 C3927 1.419 . S
C3929 C3930 1.362 . S
C3930 H3922 0.930 . S
C3930 C3929 1.362 . S
C3930 C3933 1.409 . S
C3931 H3923 0.930 . S
C3931 C3932 1.355 . S
C3931 C3933 1.415 . S
C3932 C3931 1.355 . S
C3932 C3934 1.419 . S
C3933 C3928 1.425 . S
C3933 C3930 1.409 . S
C3933 C3931 1.415 . S
C3934 H3924 0.930 . S
C3934 C3932 1.419 . S
C3934 C3935 1.362 . S
C3935 H3925 0.930 . S
C3935 C3928 1.409 . S
C3935 C3934 1.362 . S
H3936 C3942 0.930 . S
H3937 C3945 0.930 . S
H3938 C3946 0.930 . S
H3939 C3947 0.930 . S
H3940 C3950 0.930 . S
H3941 C3951 0.930 . S
C3942 H3936 0.930 . S
C3942 C3943 1.355 . S
C3942 C3944 1.415 . S
C3943 C3942 1.355 . S
C3943 C3945 1.419 . S
C3944 C3942 1.415 . S
C3944 C3949 1.425 . S
C3944 C3951 1.409 . S
C3945 H3937 0.930 . S
C3945 C3943 1.419 . S
C3945 C3946 1.362 . S
C3946 H3938 0.930 . S
C3946 C3945 1.362 . S
C3946 C3949 1.409 . S
C3947 H3939 0.930 . S
C3947 C3948 1.355 . S
C3947 C3949 1.415 1_556 S
C3948 C3947 1.355 . S
C3948 C3950 1.419 . S
C3949 C3944 1.425 . S
C3949 C3946 1.409 . S
C3949 C3947 1.415 1_554 S
C3950 H3940 0.930 . S
C3950 C3948 1.419 . S
C3950 C3951 1.362 1_556 S
C3951 H3941 0.930 . S
C3951 C3944 1.409 . S
C3951 C3950 1.362 1_554 S
H3952 C3958 0.930 . S
H3953 C3961 0.930 . S
H3954 C3962 0.930 . S
H3955 C3963 0.930 . S
H3956 C3966 0.930 . S
H3957 C3967 0.930 1_565 S
C3958 H3952 0.930 . S
C3958 C3959 1.355 . S
C3958 C3960 1.415 1_565 S
C3959 C3958 1.355 . S
C3959 C3961 1.419 1_565 S
C3960 C3958 1.415 1_545 S
C3960 C3965 1.425 . S
C3960 C3967 1.409 . S
C3961 H3953 0.930 . S
C3961 C3959 1.419 1_545 S
C3961 C3962 1.362 . S
C3962 H3954 0.930 . S
C3962 C3961 1.362 . S
C3962 C3965 1.409 . S
C3963 H3955 0.930 . S
C3963 C3964 1.355 . S
C3963 C3965 1.415 . S
C3964 C3963 1.355 . S
C3964 C3966 1.419 . S
C3965 C3960 1.425 . S
C3965 C3962 1.409 . S
C3965 C3963 1.415 . S
C3966 H3956 0.930 . S
C3966 C3964 1.419 . S
C3966 C3967 1.362 . S
C3967 H3957 0.930 1_545 S
C3967 C3960 1.409 . S
C3967 C3966 1.362 . S
H3968 C3974 0.930 . S
H3969 C3977 0.930 . S
H3970 C3978 0.930 . S
H3971 C3979 0.930 . S
H3972 C3982 0.930 . S
H3973 C3983 0.930 . S
C3974 H3968 0.930 . S
C3974 C3975 1.355 . S
C3974 C3976 1.415 . S
C3975 C3974 1.355 . S
C3975 C3977 1.419 . S
C3976 C3974 1.415 . S
C3976 C3981 1.425 . S
C3976 C3983 1.409 1_565 S
C3977 H3969 0.930 . S
C3977 C3975 1.419 . S
C3977 C3978 1.362 . S
C3978 H3970 0.930 . S
C3978 C3977 1.362 . S
C3978 C3981 1.409 . S
C3979 H3971 0.930 . S
C3979 C3980 1.355 1_565 S
C3979 C3981 1.415 . S
C3980 C3979 1.355 1_545 S
C3980 C3982 1.419 . S
C3981 C3976 1.425 . S
C3981 C3978 1.409 . S
C3981 C3979 1.415 . S
C3982 H3972 0.930 . S
C3982 C3980 1.419 . S
C3982 C3983 1.362 . S
C3983 H3973 0.930 . S
C3983 C3976 1.409 1_545 S
C3983 C3982 1.362 . S
H3984 C3990 0.930 . S
H3985 C3993 0.930 . S
H3986 C3994 0.930 . S
H3987 C3995 0.930 . S
H3988 C3998 0.930 . S
H3989 C3999 0.930 . S
C3990 H3984 0.930 . S
C3990 C3991 1.355 . S
C3990 C3992 1.415 . S
C3991 C3990 1.355 . S
C3991 C3993 1.419 . S
C3992 C3990 1.415 . S
C3992 C3997 1.425 . S
C3992 C3999 1.409 1_565 S
C3993 H3985 0.930 . S
C3993 C3991 1.419 . S
C3993 C3994 1.362 . S
C3994 H3986 0.930 . S
C3994 C3993 1.362 . S
C3994 C3997 1.409 . S
C3995 H3987 0.930 . S
C3995 C3996 1.355 1_565 S
C3995 C3997 1.415 . S
C3996 C3995 1.355 1_545 S
C3996 C3998 1.419 . S
C3997 C3992 1.425 . S
C3997 C3994 1.409 . S
C3997 C3995 1.415 . S
C3998 H3988 0.930 . S
C3998 C3996 1.419 . S
C3998 C3999 1.362 . S
C3999 H3989 0.930 . S
C3999 C3992 1.409 1_545 S
C3999 C3998 1.362 . S
H4000 C4006 0.930 . S
H4001 C4009 0.930 . S
H4002 C4010 0.930 . S
H4003 C4011 0.930 . S
H4004 C4014 0.930 . S
H4005 C4015 0.930 . S
C4006 H4000 0.930 . S
C4006 C4007 1.355 . S
C4006 C4008 1.415 . S
C4007 C4006 1.355 . S
C4007 C4009 1.419 . S
C4008 C4006 1.415 . S
C4008 C4013 1.425 . S
C4008 C4015 1.409 1_545 S
C4009 H4001 0.930 . S
C4009 C4007 1.419 . S
C4009 C4010 1.362 . S
C4010 H4002 0.930 . S
C4010 C4009 1.362 . S
C4010 C4013 1.409 . S
C4011 H4003 0.930 . S
C4011 C4012 1.355 1_545 S
C4011 C4013 1.415 . S
C4012 C4011 1.355 1_565 S
C4012 C4014 1.419 . S
C4013 C4008 1.425 . S
C4013 C4010 1.409 . S
C4013 C4011 1.415 . S
C4014 H4004 0.930 . S
C4014 C4012 1.419 . S
C4014 C4015 1.362 . S
C4015 H4005 0.930 . S
C4015 C4008 1.409 1_565 S
C4015 C4014 1.362 . S
H4016 C4022 0.930 . S
H4017 C4025 0.930 . S
H4018 C4026 0.930 . S
H4019 C4027 0.930 . S
H4020 C4030 0.930 . S
H4021 C4031 0.930 . S
C4022 H4016 0.930 . S
C4022 C4023 1.355 . S
C4022 C4024 1.415 . S
C4023 C4022 1.355 . S
C4023 C4025 1.419 . S
C4024 C4022 1.415 . S
C4024 C4029 1.425 . S
C4024 C4031 1.409 1_556 S
C4025 H4017 0.930 . S
C4025 C4023 1.419 . S
C4025 C4026 1.362 . S
C4026 H4018 0.930 . S
C4026 C4025 1.362 . S
C4026 C4029 1.409 . S
C4027 H4019 0.930 . S
C4027 C4028 1.355 1_556 S
C4027 C4029 1.415 . S
C4028 C4027 1.355 1_554 S
C4028 C4030 1.419 . S
C4029 C4024 1.425 . S
C4029 C4026 1.409 . S
C4029 C4027 1.415 . S
C4030 H4020 0.930 . S
C4030 C4028 1.419 . S
C4030 C4031 1.362 . S
C4031 H4021 0.930 . S
C4031 C4024 1.409 1_554 S
C4031 C4030 1.362 . S
H4032 C4038 0.930 . S
H4033 C4041 0.930 . S
H4034 C4042 0.930 1_455 S
H4035 C4043 0.930 . S
H4036 C4046 0.930 . S
H4037 C4047 0.930 . S
C4038 H4032 0.930 . S
C4038 C4039 1.355 . S
C4038 C4040 1.415 . S
C4039 C4038 1.355 . S
C4039 C4041 1.419 . S
C4040 C4038 1.415 . S
C4040 C4045 1.425 . S
C4040 C4047 1.409 . S
C4041 H4033 0.930 . S
C4041 C4039 1.419 . S
C4041 C4042 1.362 . S
C4042 H4034 0.930 1_655 S
C4042 C4041 1.362 . S
C4042 C4045 1.409 . S
C4043 H4035 0.930 . S
C4043 C4044 1.355 . S
C4043 C4045 1.415 1_455 S
C4044 C4043 1.355 . S
C4044 C4046 1.419 1_455 S
C4045 C4040 1.425 . S
C4045 C4042 1.409 . S
C4045 C4043 1.415 1_655 S
C4046 H4036 0.930 . S
C4046 C4044 1.419 1_655 S
C4046 C4047 1.362 . S
C4047 H4037 0.930 . S
C4047 C4040 1.409 . S
C4047 C4046 1.362 . S
H4048 C4054 0.930 . S
H4049 C4057 0.930 . S
H4050 C4058 0.930 . S
H4051 C4059 0.930 . S
H4052 C4062 0.930 . S
H4053 C4063 0.930 . S
C4054 H4048 0.930 . S
C4054 C4055 1.355 . S
C4054 C4056 1.415 . S
C4055 C4054 1.355 . S
C4055 C4057 1.419 . S
C4056 C4054 1.415 . S
C4056 C4061 1.425 . S
C4056 C4063 1.409 . S
C4057 H4049 0.930 . S
C4057 C4055 1.419 . S
C4057 C4058 1.362 . S
C4058 H4050 0.930 . S
C4058 C4057 1.362 . S
C4058 C4061 1.409 . S
C4059 H4051 0.930 . S
C4059 C4060 1.355 . S
C4059 C4061 1.415 . S
C4060 C4059 1.355 . S
C4060 C4062 1.419 . S
C4061 C4056 1.425 . S
C4061 C4058 1.409 . S
C4061 C4059 1.415 . S
C4062 H4052 0.930 . S
C4062 C4060 1.419 . S
C4062 C4063 1.362 . S
C4063 H4053 0.930 . S
C4063 C4056 1.409 . S
C4063 C4062 1.362 . S
H4064 C4070 0.930 . S
H4065 C4073 0.930 . S
H4066 C4074 0.930 . S
H4067 C4075 0.930 . S
H4068 C4078 0.930 . S
H4069 C4079 0.930 . S
C4070 H4064 0.930 . S
C4070 C4071 1.355 . S
C4070 C4072 1.415 . S
C4071 C4070 1.355 . S
C4071 C4073 1.419 . S
C4072 C4070 1.415 . S
C4072 C4077 1.425 . S
C4072 C4079 1.409 1_655 S
C4073 H4065 0.930 . S
C4073 C4071 1.419 . S
C4073 C4074 1.362 . S
C4074 H4066 0.930 . S
C4074 C4073 1.362 . S
C4074 C4077 1.409 . S
C4075 H4067 0.930 . S
C4075 C4076 1.355 1_655 S
C4075 C4077 1.415 . S
C4076 C4075 1.355 1_455 S
C4076 C4078 1.419 . S
C4077 C4072 1.425 . S
C4077 C4074 1.409 . S
C4077 C4075 1.415 . S
C4078 H4068 0.930 . S
C4078 C4076 1.419 . S
C4078 C4079 1.362 . S
C4079 H4069 0.930 . S
C4079 C4072 1.409 1_455 S
C4079 C4078 1.362 . S
H4080 C4086 0.930 . S
H4081 C4089 0.930 . S
H4082 C4090 0.930 . S
H4083 C4091 0.930 . S
H4084 C4094 0.930 . S
H4085 C4095 0.930 . S
C4086 H4080 0.930 . S
C4086 C4087 1.355 . S
C4086 C4088 1.415 . S
C4087 C4086 1.355 . S
C4087 C4089 1.419 . S
C4088 C4086 1.415 . S
C4088 C4093 1.425 . S
C4088 C4095 1.409 . S
C4089 H4081 0.930 . S
C4089 C4087 1.419 . S
C4089 C4090 1.362 . S
C4090 H4082 0.930 . S
C4090 C4089 1.362 . S
C4090 C4093 1.409 . S
C4091 H4083 0.930 . S
C4091 C4092 1.355 . S
C4091 C4093 1.415 . S
C4092 C4091 1.355 . S
C4092 C4094 1.419 . S
C4093 C4088 1.425 . S
C4093 C4090 1.409 . S
C4093 C4091 1.415 . S
C4094 H4084 0.930 . S
C4094 C4092 1.419 . S
C4094 C4095 1.362 . S
C4095 H4085 0.930 . S
C4095 C4088 1.409 . S
C4095 C4094 1.362 . S
H4096 C4102 0.930 . S
H4097 C4105 0.930 . S
H4098 C4106 0.930 . S
H4099 C4107 0.930 . S
H4100 C4110 0.930 . S
H4101 C4111 0.930 . S
C4102 H4096 0.930 . S
C4102 C4103 1.355 . S
C4102 C4104 1.415 . S
C4103 C4102 1.355 . S
C4103 C4105 1.419 . S
C4104 C4102 1.415 . S
C4104 C4109 1.425 . S
C4104 C4111 1.409 . S
C4105 H4097 0.930 . S
C4105 C4103 1.419 . S
C4105 C4106 1.362 . S
C4106 H4098 0.930 . S
C4106 C4105 1.362 . S
C4106 C4109 1.409 . S
C4107 H4099 0.930 . S
C4107 C4108 1.355 . S
C4107 C4109 1.415 . S
C4108 C4107 1.355 . S
C4108 C4110 1.419 . S
C4109 C4104 1.425 . S
C4109 C4106 1.409 . S
C4109 C4107 1.415 . S
C4110 H4100 0.930 . S
C4110 C4108 1.419 . S
C4110 C4111 1.362 . S
C4111 H4101 0.930 . S
C4111 C4104 1.409 . S
C4111 C4110 1.362 . S
H4112 C4118 0.930 . S
H4113 C4121 0.930 . S
H4114 C4122 0.930 1_554 S
H4115 C4123 0.930 . S
H4116 C4126 0.930 . S
H4117 C4127 0.930 . S
C4118 H4112 0.930 . S
C4118 C4119 1.355 . S
C4118 C4120 1.415 . S
C4119 C4118 1.355 . S
C4119 C4121 1.419 . S
C4120 C4118 1.415 . S
C4120 C4125 1.425 . S
C4120 C4127 1.409 . S
C4121 H4113 0.930 . S
C4121 C4119 1.419 . S
C4121 C4122 1.362 . S
C4122 H4114 0.930 1_556 S
C4122 C4121 1.362 . S
C4122 C4125 1.409 . S
C4123 H4115 0.930 . S
C4123 C4124 1.355 . S
C4123 C4125 1.415 1_554 S
C4124 C4123 1.355 . S
C4124 C4126 1.419 1_554 S
C4125 C4120 1.425 . S
C4125 C4122 1.409 . S
C4125 C4123 1.415 1_556 S
C4126 H4116 0.930 . S
C4126 C4124 1.419 1_556 S
C4126 C4127 1.362 . S
C4127 H4117 0.930 . S
C4127 C4120 1.409 . S
C4127 C4126 1.362 . S
H4128 C4134 0.930 . S
H4129 C4137 0.930 . S
H4130 C4138 0.930 . S
H4131 C4139 0.930 . S
H4132 C4142 0.930 . S
H4133 C4143 0.930 . S
C4134 H4128 0.930 . S
C4134 C4135 1.355 . S
C4134 C4136 1.415 . S
C4135 C4134 1.355 . S
C4135 C4137 1.419 . S
C4136 C4134 1.415 . S
C4136 C4141 1.425 . S
C4136 C4143 1.409 . S
C4137 H4129 0.930 . S
C4137 C4135 1.419 . S
C4137 C4138 1.362 . S
C4138 H4130 0.930 . S
C4138 C4137 1.362 . S
C4138 C4141 1.409 . S
C4139 H4131 0.930 . S
C4139 C4140 1.355 . S
C4139 C4141 1.415 . S
C4140 C4139 1.355 . S
C4140 C4142 1.419 . S
C4141 C4136 1.425 . S
C4141 C4138 1.409 . S
C4141 C4139 1.415 . S
C4142 H4132 0.930 . S
C4142 C4140 1.419 . S
C4142 C4143 1.362 . S
C4143 H4133 0.930 . S
C4143 C4136 1.409 . S
C4143 C4142 1.362 . S
H4144 C4150 0.930 . S
H4145 C4153 0.930 . S
H4146 C4154 0.930 . S
H4147 C4155 0.930 . S
H4148 C4158 0.930 . S
H4149 C4159 0.930 . S
C4150 H4144 0.930 . S
C4150 C4151 1.355 . S
C4150 C4152 1.415 . S
C4151 C4150 1.355 . S
C4151 C4153 1.419 . S
C4152 C4150 1.415 . S
C4152 C4157 1.425 . S
C4152 C4159 1.409 . S
C4153 H4145 0.930 . S
C4153 C4151 1.419 . S
C4153 C4154 1.362 . S
C4154 H4146 0.930 . S
C4154 C4153 1.362 . S
C4154 C4157 1.409 . S
C4155 H4147 0.930 . S
C4155 C4156 1.355 . S
C4155 C4157 1.415 . S
C4156 C4155 1.355 . S
C4156 C4158 1.419 . S
C4157 C4152 1.425 . S
C4157 C4154 1.409 . S
C4157 C4155 1.415 . S
C4158 H4148 0.930 . S
C4158 C4156 1.419 . S
C4158 C4159 1.362 . S
C4159 H4149 0.930 . S
C4159 C4152 1.409 . S
C4159 C4158 1.362 . S
H4160 C4166 0.930 . S
H4161 C4169 0.930 . S
H4162 C4170 0.930 . S
H4163 C4171 0.930 . S
H4164 C4174 0.930 . S
H4165 C4175 0.930 . S
C4166 H4160 0.930 . S
C4166 C4167 1.355 . S
C4166 C4168 1.415 . S
C4167 C4166 1.355 . S
C4167 C4169 1.419 . S
C4168 C4166 1.415 . S
C4168 C4173 1.425 . S
C4168 C4175 1.409 . S
C4169 H4161 0.930 . S
C4169 C4167 1.419 . S
C4169 C4170 1.362 . S
C4170 H4162 0.930 . S
C4170 C4169 1.362 . S
C4170 C4173 1.409 . S
C4171 H4163 0.930 . S
C4171 C4172 1.355 . S
C4171 C4173 1.415 . S
C4172 C4171 1.355 . S
C4172 C4174 1.419 . S
C4173 C4168 1.425 . S
C4173 C4170 1.409 . S
C4173 C4171 1.415 . S
C4174 H4164 0.930 . S
C4174 C4172 1.419 . S
C4174 C4175 1.362 . S
C4175 H4165 0.930 . S
C4175 C4168 1.409 . S
C4175 C4174 1.362 . S
H4176 C4182 0.930 . S
H4177 C4185 0.930 . S
H4178 C4186 0.930 . S
H4179 C4187 0.930 . S
H4180 C4190 0.930 . S
H4181 C4191 0.930 . S
C4182 H4176 0.930 . S
C4182 C4183 1.355 . S
C4182 C4184 1.415 . S
C4183 C4182 1.355 . S
C4183 C4185 1.419 . S
C4184 C4182 1.415 . S
C4184 C4189 1.425 . S
C4184 C4191 1.409 . S
C4185 H4177 0.930 . S
C4185 C4183 1.419 . S
C4185 C4186 1.362 . S
C4186 H4178 0.930 . S
C4186 C4185 1.362 . S
C4186 C4189 1.409 . S
C4187 H4179 0.930 . S
C4187 C4188 1.355 . S
C4187 C4189 1.415 . S
C4188 C4187 1.355 . S
C4188 C4190 1.419 . S
C4189 C4184 1.425 . S
C4189 C4186 1.409 . S
C4189 C4187 1.415 . S
C4190 H4180 0.930 . S
C4190 C4188 1.419 . S
C4190 C4191 1.362 . S
C4191 H4181 0.930 . S
C4191 C4184 1.409 . S
C4191 C4190 1.362 . S
H4192 C4198 0.930 . S
H4193 C4201 0.930 . S
H4194 C4202 0.930 . S
H4195 C4203 0.930 . S
H4196 C4206 0.930 . S
H4197 C4207 0.930 . S
C4198 H4192 0.930 . S
C4198 C4199 1.355 . S
C4198 C4200 1.415 . S
C4199 C4198 1.355 . S
C4199 C4201 1.419 . S
C4200 C4198 1.415 . S
C4200 C4205 1.425 . S
C4200 C4207 1.409 . S
C4201 H4193 0.930 . S
C4201 C4199 1.419 . S
C4201 C4202 1.362 . S
C4202 H4194 0.930 . S
C4202 C4201 1.362 . S
C4202 C4205 1.409 . S
C4203 H4195 0.930 . S
C4203 C4204 1.355 . S
C4203 C4205 1.415 . S
C4204 C4203 1.355 . S
C4204 C4206 1.419 . S
C4205 C4200 1.425 . S
C4205 C4202 1.409 . S
C4205 C4203 1.415 . S
C4206 H4196 0.930 . S
C4206 C4204 1.419 . S
C4206 C4207 1.362 . S
C4207 H4197 0.930 . S
C4207 C4200 1.409 . S
C4207 C4206 1.362 . S
H4208 C4214 0.930 . S
H4209 C4217 0.930 . S
H4210 C4218 0.930 . S
H4211 C4219 0.930 . S
H4212 C4222 0.930 . S
H4213 C4223 0.930 . S
C4214 H4208 0.930 . S
C4214 C4215 1.355 . S
C4214 C4216 1.415 . S
C4215 C4214 1.355 . S
C4215 C4217 1.419 . S
C4216 C4214 1.415 . S
C4216 C4221 1.425 . S
C4216 C4223 1.409 . S
C4217 H4209 0.930 . S
C4217 C4215 1.419 . S
C4217 C4218 1.362 . S
C4218 H4210 0.930 . S
C4218 C4217 1.362 . S
C4218 C4221 1.409 . S
C4219 H4211 0.930 . S
C4219 C4220 1.355 . S
C4219 C4221 1.415 . S
C4220 C4219 1.355 . S
C4220 C4222 1.419 . S
C4221 C4216 1.425 . S
C4221 C4218 1.409 . S
C4221 C4219 1.415 . S
C4222 H4212 0.930 . S
C4222 C4220 1.419 . S
C4222 C4223 1.362 . S
C4223 H4213 0.930 . S
C4223 C4216 1.409 . S
C4223 C4222 1.362 . S
H4224 C4230 0.930 . S
H4225 C4233 0.930 . S
H4226 C4234 0.930 . S
H4227 C4235 0.930 . S
H4228 C4238 0.930 . S
H4229 C4239 0.930 . S
C4230 H4224 0.930 . S
C4230 C4231 1.355 . S
C4230 C4232 1.415 . S
C4231 C4230 1.355 . S
C4231 C4233 1.419 . S
C4232 C4230 1.415 . S
C4232 C4237 1.425 . S
C4232 C4239 1.409 1_554 S
C4233 H4225 0.930 . S
C4233 C4231 1.419 . S
C4233 C4234 1.362 . S
C4234 H4226 0.930 . S
C4234 C4233 1.362 . S
C4234 C4237 1.409 . S
C4235 H4227 0.930 . S
C4235 C4236 1.355 1_554 S
C4235 C4237 1.415 . S
C4236 C4235 1.355 1_556 S
C4236 C4238 1.419 . S
C4237 C4232 1.425 . S
C4237 C4234 1.409 . S
C4237 C4235 1.415 . S
C4238 H4228 0.930 . S
C4238 C4236 1.419 . S
C4238 C4239 1.362 . S
C4239 H4229 0.930 . S
C4239 C4232 1.409 1_556 S
C4239 C4238 1.362 . S
H4240 C4246 0.930 . S
H4241 C4249 0.930 . S
H4242 C4250 0.930 . S
H4243 C4251 0.930 . S
H4244 C4254 0.930 . S
H4245 C4255 0.930 . S
C4246 H4240 0.930 . S
C4246 C4247 1.355 . S
C4246 C4248 1.415 . S
C4247 C4246 1.355 . S
C4247 C4249 1.419 . S
C4248 C4246 1.415 . S
C4248 C4253 1.425 . S
C4248 C4255 1.409 . S
C4249 H4241 0.930 . S
C4249 C4247 1.419 . S
C4249 C4250 1.362 . S
C4250 H4242 0.930 . S
C4250 C4249 1.362 . S
C4250 C4253 1.409 . S
C4251 H4243 0.930 . S
C4251 C4252 1.355 . S
C4251 C4253 1.415 . S
C4252 C4251 1.355 . S
C4252 C4254 1.419 . S
C4253 C4248 1.425 . S
C4253 C4250 1.409 . S
C4253 C4251 1.415 . S
C4254 H4244 0.930 . S
C4254 C4252 1.419 . S
C4254 C4255 1.362 . S
C4255 H4245 0.930 . S
C4255 C4248 1.409 . S
C4255 C4254 1.362 . S
H4256 C4262 0.930 . S
H4257 C4265 0.930 . S
H4258 C4266 0.930 . S
H4259 C4267 0.930 . S
H4260 C4270 0.930 . S
H4261 C4271 0.930 . S
C4262 H4256 0.930 . S
C4262 C4263 1.355 . S
C4262 C4264 1.415 . S
C4263 C4262 1.355 . S
C4263 C4265 1.419 . S
C4264 C4262 1.415 . S
C4264 C4269 1.425 . S
C4264 C4271 1.409 . S
C4265 H4257 0.930 . S
C4265 C4263 1.419 . S
C4265 C4266 1.362 . S
C4266 H4258 0.930 . S
C4266 C4265 1.362 . S
C4266 C4269 1.409 . S
C4267 H4259 0.930 . S
C4267 C4268 1.355 . S
C4267 C4269 1.415 . S
C4268 C4267 1.355 . S
C4268 C4270 1.419 . S
C4269 C4264 1.425 . S
C4269 C4266 1.409 . S
C4269 C4267 1.415 . S
C4270 H4260 0.930 . S
C4270 C4268 1.419 . S
C4270 C4271 1.362 . S
C4271 H4261 0.930 . S
C4271 C4264 1.409 . S
C4271 C4270 1.362 . S
H4272 C4278 0.930 . S
H4273 C4281 0.930 . S
H4274 C4282 0.930 . S
H4275 C4283 0.930 . S
H4276 C4286 0.930 . S
H4277 C4287 0.930 . S
C4278 H4272 0.930 . S
C4278 C4279 1.355 . S
C4278 C4280 1.415 . S
C4279 C4278 1.355 . S
C4279 C4281 1.419 . S
C4280 C4278 1.415 . S
C4280 C4285 1.425 . S
C4280 C4287 1.409 . S
C4281 H4273 0.930 . S
C4281 C4279 1.419 . S
C4281 C4282 1.362 . S
C4282 H4274 0.930 . S
C4282 C4281 1.362 . S
C4282 C4285 1.409 . S
C4283 H4275 0.930 . S
C4283 C4284 1.355 . S
C4283 C4285 1.415 . S
C4284 C4283 1.355 . S
C4284 C4286 1.419 . S
C4285 C4280 1.425 . S
C4285 C4282 1.409 . S
C4285 C4283 1.415 . S
C4286 H4276 0.930 . S
C4286 C4284 1.419 . S
C4286 C4287 1.362 . S
C4287 H4277 0.930 . S
C4287 C4280 1.409 . S
C4287 C4286 1.362 . S
H4288 C4294 0.930 . S
H4289 C4297 0.930 . S
H4290 C4298 0.930 . S
H4291 C4299 0.930 . S
H4292 C4302 0.930 . S
H4293 C4303 0.930 . S
C4294 H4288 0.930 . S
C4294 C4295 1.355 . S
C4294 C4296 1.415 . S
C4295 C4294 1.355 . S
C4295 C4297 1.419 . S
C4296 C4294 1.415 . S
C4296 C4301 1.425 . S
C4296 C4303 1.409 . S
C4297 H4289 0.930 . S
C4297 C4295 1.419 . S
C4297 C4298 1.362 . S
C4298 H4290 0.930 . S
C4298 C4297 1.362 . S
C4298 C4301 1.409 . S
C4299 H4291 0.930 . S
C4299 C4300 1.355 . S
C4299 C4301 1.415 . S
C4300 C4299 1.355 . S
C4300 C4302 1.419 . S
C4301 C4296 1.425 . S
C4301 C4298 1.409 . S
C4301 C4299 1.415 . S
C4302 H4292 0.930 . S
C4302 C4300 1.419 . S
C4302 C4303 1.362 . S
C4303 H4293 0.930 . S
C4303 C4296 1.409 . S
C4303 C4302 1.362 . S
H4304 C4310 0.930 . S
H4305 C4313 0.930 . S
H4306 C4314 0.930 . S
H4307 C4315 0.930 . S
H4308 C4318 0.930 . S
H4309 C4319 0.930 . S
C4310 H4304 0.930 . S
C4310 C4311 1.355 . S
C4310 C4312 1.415 . S
C4311 C4310 1.355 . S
C4311 C4313 1.419 . S
C4312 C4310 1.415 . S
C4312 C4317 1.425 . S
C4312 C4319 1.409 . S
C4313 H4305 0.930 . S
C4313 C4311 1.419 . S
C4313 C4314 1.362 . S
C4314 H4306 0.930 . S
C4314 C4313 1.362 . S
C4314 C4317 1.409 . S
C4315 H4307 0.930 . S
C4315 C4316 1.355 . S
C4315 C4317 1.415 . S
C4316 C4315 1.355 . S
C4316 C4318 1.419 . S
C4317 C4312 1.425 . S
C4317 C4314 1.409 . S
C4317 C4315 1.415 . S
C4318 H4308 0.930 . S
C4318 C4316 1.419 . S
C4318 C4319 1.362 . S
C4319 H4309 0.930 . S
C4319 C4312 1.409 . S
C4319 C4318 1.362 . S
C1255 C4 1.309 . S
C1260 C980 1.278 . S
C1271 C317 1.273 1_455 S
C1276 C23 1.261 . S
C1287 C954 1.260 . S
C1292 C36 1.278 . S
C1303 C343 1.298 . S
C1308 C49 1.260 . S
C1319 C62 1.275 . S
C1324 C1004 1.261 . S
C1335 C69 1.257 . S
C1340 C393 1.285 . S
C1351 C1030 1.301 . S
C1356 C88 1.301 . S
C1367 C95 1.309 . S
C1372 C369 1.281 1_455 S
C1383 C114 1.293 . S
C1388 C1173 1.306 . S
C1399 C564 1.259 . S
C1404 C127 1.285 . S
C1415 C140 1.286 . S
C1420 C575 1.309 . S
C1431 C147 1.284 . S
C1436 C538 1.259 1_556 S
C1447 C160 1.260 . S
C1452 C1227 1.298 . S
C1463 C173 1.292 . S
C1468 C1147 1.260 . S
C1479 C186 1.308 . S
C1484 C1238 1.275 . S
C1495 C199 1.302 . S
C1500 C1212 1.265 1_554 S
C1511 C1056 1.288 . S
C1516 C218 1.257 . S
C1527 C231 1.288 . S
C1532 C512 1.308 . S
C1543 C244 1.308 . S
C1548 C1095 1.290 . S
C1559 C484 1.281 . S
C1564 C251 1.258 . S
C1575 C270 1.262 . S
C1580 C497 1.301 1_545 S
C1591 C1082 1.275 . S
C1596 C283 1.260 . S
C1607 C296 1.275 . S
C1612 C1043 1.261 . S
C1623 C1071 1.303 . S
C1628 C309 1.299 . S
C1639 C668 1.294 . S
C1644 C322 1.306 . S
C1655 C3 1.259 1_655 S
C1660 C329 1.288 . S
C1671 C348 1.300 . S
C1676 C642 1.302 . S
C1687 C361 1.295 . S
C1692 C31 1.261 . S
C1703 C374 1.305 . S
C1708 C692 1.269 . S
C1719 C83 1.288 . S
C1724 C381 1.257 . S
C1735 C394 1.257 . S
C1740 C718 1.282 . S
C1751 C413 1.257 . S
C1756 C57 1.285 1_655 S
C1767 C420 1.257 . S
C1772 C861 1.287 . S
C1783 C250 1.259 . S
C1788 C439 1.287 . S
C1799 C452 1.258 . S
C1804 C265 1.282 . S
C1815 C226 1.290 1_554 S
C1820 C459 1.257 . S
C1831 C472 1.282 . S
C1836 C915 1.259 . S
C1847 C485 1.305 . S
C1852 C835 1.269 . S
C1863 C498 1.299 . S
C1868 C928 1.263 . S
C1879 C900 1.307 1_556 S
C1884 C517 1.270 . S
C1895 C746 1.265 . S
C1900 C524 1.268 . S
C1911 C198 1.298 . S
C1916 C543 1.304 . S
C1927 C783 1.259 . S
C1932 C550 1.286 . S
C1943 C569 1.266 . S
C1948 C172 1.267 . S
C1959 C576 1.258 . S
C1964 C185 1.294 1_565 S
C1975 C589 1.259 . S
C1980 C772 1.276 . S
C1991 C733 1.294 . S
C1996 C602 1.306 . S
C2007 C615 1.272 . S
C2012 C759 1.262 . S
C2023 C356 1.263 . S
C2028 C634 1.271 . S
C2039 C941 1.282 . S
C2044 C647 1.257 . S
C2055 C654 1.274 . S
C2060 C328 1.261 . S
C2071 C967 1.286 1_655 S
C2076 C673 1.257 . S
C2087 C680 1.257 . S
C2092 C380 1.286 . S
C2103 C1017 1.301 1_655 S
C2108 C693 1.301 . S
C2119 C706 1.268 . S
C2124 C408 1.265 . S
C2135 C991 1.286 . S
C2140 C719 1.257 . S
C2151 C549 1.303 . S
C2156 C738 1.264 . S
C2167 C751 1.280 . S
C2172 C1188 1.309 1_556 S
C2183 C1201 1.266 . S
C2188 C764 1.303 . S
C2199 C777 1.308 . S
C2204 C1162 1.275 . S
C2215 C601 1.278 . S
C2220 C784 1.258 . S
C2231 C797 1.307 . S
C2236 C523 1.273 1_554 S
C2247 C614 1.259 . S
C2252 C810 1.291 . S
C2263 C588 1.309 . S
C2268 C823 1.282 . S
C2279 C434 1.309 . S
C2284 C836 1.284 . S
C2295 C1134 1.276 . S
C2300 C855 1.259 . S
C2311 C862 1.275 . S
C2316 C471 1.261 1_565 S
C2327 C881 1.308 . S
C2332 C1108 1.274 . S
C2343 C1123 1.290 . S
C2348 C894 1.257 . S
C2359 C458 1.282 . S
C2364 C901 1.309 . S
C2375 C419 1.259 1_545 S
C2380 C920 1.285 . S
C2391 C447 1.269 1_565 S
C2396 C933 1.305 . S
C2407 C946 1.285 . S
C2412 C44 1.309 . S
C2423 C959 1.258 . S
C2428 C629 1.278 . S
C2439 C972 1.258 . S
C2444 C18 1.291 . S
C2455 C985 1.267 . S
C2460 C653 1.266 1_455 S
C2471 C68 1.274 . S
C2476 C992 1.261 . S
C2487 C705 1.277 1_455 S
C2492 C1005 1.309 . S
C2503 C94 1.262 . S
C2508 C1018 1.298 . S
C2519 C679 1.261 . S
C2524 C1031 1.274 . S
C2535 C1044 1.262 . S
C2540 C239 1.271 . S
C2551 C876 1.277 1_554 S
C2556 C1057 1.259 . S
C2567 C1076 1.297 . S
C2572 C889 1.304 . S
C2583 C1083 1.293 . S
C2588 C850 1.307 . S
C2599 C291 1.307 . S
C2604 C1096 1.270 . S
C2615 C213 1.284 1_556 S
C2620 C1109 1.257 . S
C2631 C1128 1.309 . S
C2636 C304 1.284 . S
C2647 C278 1.304 . S
C2652 C1135 1.297 . S
C2663 C1148 1.259 . S
C2668 C122 1.277 . S
C2679 C1167 1.258 . S
C2684 C822 1.282 . S
C2695 C159 1.274 1_545 S
C2700 C1174 1.308 . S
C2711 C1193 1.262 . S
C2716 C796 1.271 . S
C2727 C809 1.305 . S
C2732 C1206 1.268 . S
C2743 C1213 1.276 . S
C2748 C146 1.260 . S
C2759 C1232 1.306 . S
C2764 C109 1.271 1_565 S
C2775 C1239 1.285 . S
C2780 C135 1.259 1_545 S
C2791 C10 1.272 . S
C2796 C121 1.227 . S
C2807 C17 1.267 . S
C2812 C134 1.279 . S
C2823 C153 1.276 . S
C2828 C30 1.227 . S
C2839 C43 1.228 . S
C2844 C108 1.281 . S
C2855 C205 1.277 . S
C2860 C56 1.269 . S
C2871 C75 1.283 . S
C2876 C166 1.229 . S
C2887 C82 1.258 . S
C2892 C179 1.231 . S
C2903 C192 1.276 . S
C2908 C101 1.271 . S
C2919 C238 1.287 . S
C2924 C212 1.253 . S
C2935 C225 1.287 . S
C2940 C914 1.253 . S
C2951 C927 1.228 . S
C2956 C257 1.281 . S
C2967 C264 1.288 . S
C2972 C907 1.241 . S
C2983 C888 1.263 . S
C2988 C277 1.282 . S
C2999 C290 1.230 . S
C3004 C849 1.259 . S
C3015 C303 1.238 . S
C3020 C875 1.288 . S
C3031 C316 1.269 . S
C3036 C433 1.227 . S
C3047 C446 1.287 . S
C3052 C335 1.235 . S
C3063 C465 1.241 . S
C3068 C342 1.288 . S
C3079 C355 1.288 . S
C3084 C426 1.239 . S
C3095 C511 1.232 . S
C3100 C368 1.256 . S
C3111 C387 1.264 . S
C3116 C478 1.281 . S
C3127 C491 1.277 . S
C3132 C400 1.269 . S
C3143 C407 1.272 . S
C3148 C504 1.275 . S
C3159 C556 1.277 . S
C3164 C530 1.270 . S
C3175 C537 1.287 . S
C3180 C1226 1.251 . S
C3191 C563 1.286 . S
C3196 C1245 1.232 . S
C3207 C1219 1.228 . S
C3212 C582 1.281 . S
C3223 C1200 1.278 . S
C3228 C595 1.268 . S
C3239 C1161 1.256 . S
C3244 C608 1.232 . S
C3255 C1187 1.288 . S
C3260 C621 1.242 . S
C3271 C745 1.259 . S
C3276 C628 1.230 . S
C3287 C758 1.250 . S
C3292 C641 1.287 . S
C3303 C771 1.261 . S
C3308 C660 1.283 . S
C3319 C667 1.285 . S
C3324 C732 1.232 . S
C3335 C686 1.271 . S
C3340 C829 1.227 . S
C3351 C699 1.283 . S
C3356 C790 1.230 . S
C3367 C712 1.232 . S
C3372 C803 1.255 . S
C3383 C725 1.228 . S
C3388 C816 1.264 . S
C3399 C868 1.283 . S
C3404 C842 1.262 . S
C3415 C1063 1.233 . S
C3420 C940 1.286 . S
C3431 C953 1.227 . S
C3436 C1070 1.273 . S
C3447 C1089 1.236 . S
C3452 C966 1.249 . S
C3463 C1050 1.286 . S
C3468 C979 1.253 . S
C3479 C1141 1.239 . S
C3484 C998 1.288 . S
C3495 C1102 1.238 . S
C3500 C1011 1.288 . S
C3511 C1115 1.227 . S
C3516 C1024 1.268 . S
C3527 C1122 1.275 . S
C3532 C1037 1.272 . S
C3543 C1180 1.269 . S
C3548 C1154 1.277 . S
C3559 C5 1.486 . S
C3564 C263 1.481 . S
C3575 C848 1.529 . S
C3580 C16 1.504 . S
C3591 C863 1.476 . S
C3596 C29 1.497 . S
C3607 C874 1.492 . S
C3612 C42 1.528 . S
C3623 C926 1.513 . S
C3628 C55 1.477 . S
C3639 C70 1.529 . S
C3644 C276 1.500 . S
C3655 C81 1.481 . S
C3660 C913 1.520 . S
C3671 C96 1.512 . S
C3676 C211 1.526 . S
C3687 C107 1.526 . S
C3692 C200 1.488 . S
C3703 C120 1.515 . S
C3708 C161 1.525 . S
C3719 C133 1.525 . S
C3724 C174 1.487 . S
C3735 C187 1.526 . S
C3740 C148 1.512 . S
C3751 C640 1.476 . S
C3756 C224 1.494 . S
C3767 C237 1.529 . S
C3772 C655 1.499 . S
C3783 C252 1.480 . S
C3788 C666 1.488 . S
C3799 C707 1.478 . S
C3804 C289 1.491 . S
C3815 C302 1.528 . S
C3820 C681 1.493 . S
C3831 C315 1.508 . S
C3836 C577 1.528 . S
C3847 C1160 1.505 . S
C3852 C330 1.529 . S
C3863 C1175 1.524 . S
C3868 C341 1.485 . S
C3879 C1186 1.518 . S
C3884 C354 1.523 . S
C3895 C367 1.507 . S
C3900 C1240 1.528 . S
C3911 C382 1.516 . S
C3916 C590 1.524 . S
C3927 C395 1.527 . S
C3932 C1225 1.491 . S
C3943 C406 1.529 . S
C3948 C525 1.497 . S
C3959 C421 1.490 . S
C3964 C510 1.527 . S
C3975 C432 1.493 . S
C3980 C473 1.528 . S
C3991 C486 1.492 . S
C3996 C445 1.528 . S
C4007 C460 1.481 . S
C4012 C499 1.521 . S
C4023 C952 1.480 . S
C4028 C536 1.519 . S
C4039 C551 1.521 . S
C4044 C965 1.481 . S
C4055 C978 1.520 . S
C4060 C562 1.520 . S
C4071 C603 1.479 . S
C4076 C1019 1.519 . S
C4087 C993 1.510 . S
C4092 C616 1.476 . S
C4103 C627 1.487 . S
C4108 C887 1.480 . S
C4119 C694 1.526 . S
C4124 C902 1.488 . S
C4135 C720 1.481 . S
C4140 C837 1.521 . S
C4151 C824 1.478 . S
C4156 C731 1.516 . S
C4167 C744 1.526 . S
C4172 C785 1.488 . S
C4183 C798 1.477 . S
C4188 C757 1.492 . S
C4199 C770 1.523 . S
C4204 C811 1.483 . S
C4215 C1199 1.518 . S
C4220 C939 1.479 . S
C4231 C1006 1.507 . S
C4236 C1214 1.528 . S
C4247 C1032 1.529 . S
C4252 C1149 1.504 . S
C4263 C1136 1.520 . S
C4268 C1045 1.521 . S
C4279 C1097 1.522 . S
C4284 C1058 1.482 . S
C4295 C1069 1.475 . S
C4300 C1110 1.500 . S
C4311 C1084 1.518 . S
C4316 C1121 1.479 . S
