# Generated by pormake.
# Topology mmt, (4)-cn, num edge types: 1
# Building blocks:
#     Node 0, Type 0, BuildingBlock: AZAVOO_clean_sbu_0, # of connection points: 4
#     Node 1, Type 0, BuildingBlock: AZAVOO_clean_sbu_0, # of connection points: 4
#     Node 2, Type 0, BuildingBlock: AZAVOO_clean_sbu_0, # of connection points: 4
#     Node 3, Type 0, BuildingBlock: AZAVOO_clean_sbu_0, # of connection points: 4
#     Node 4, Type 0, BuildingBlock: AZAVOO_clean_sbu_0, # of connection points: 4
#     Node 5, Type 0, BuildingBlock: AZAVOO_clean_sbu_0, # of connection points: 4
#     Node 6, Type 0, BuildingBlock: AZAVOO_clean_sbu_0, # of connection points: 4
#     Node 7, Type 0, BuildingBlock: AZAVOO_clean_sbu_0, # of connection points: 4
#     Edge 8, Type (0, 0), BuildingBlock: MIFKUJ_clean_linker_0, # of connection points: 2
#     Edge 9, Type (0, 0), BuildingBlock: MIFKUJ_clean_linker_0, # of connection points: 2
#     Edge 10, Type (0, 0), BuildingBlock: MIFKUJ_clean_linker_0, # of connection points: 2
#     Edge 11, Type (0, 0), BuildingBlock: MIFKUJ_clean_linker_0, # of connection points: 2
#     Edge 12, Type (0, 0), BuildingBlock: MIFKUJ_clean_linker_0, # of connection points: 2
#     Edge 13, Type (0, 0), BuildingBlock: MIFKUJ_clean_linker_0, # of connection points: 2
#     Edge 14, Type (0, 0), BuildingBlock: MIFKUJ_clean_linker_0, # of connection points: 2
#     Edge 15, Type (0, 0), BuildingBlock: MIFKUJ_clean_linker_0, # of connection points: 2
#     Edge 16, Type (0, 0), BuildingBlock: MIFKUJ_clean_linker_0, # of connection points: 2
#     Edge 17, Type (0, 0), BuildingBlock: MIFKUJ_clean_linker_0, # of connection points: 2
#     Edge 18, Type (0, 0), BuildingBlock: MIFKUJ_clean_linker_0, # of connection points: 2
#     Edge 19, Type (0, 0), BuildingBlock: MIFKUJ_clean_linker_0, # of connection points: 2
#     Edge 20, Type (0, 0), BuildingBlock: MIFKUJ_clean_linker_0, # of connection points: 2
#     Edge 21, Type (0, 0), BuildingBlock: MIFKUJ_clean_linker_0, # of connection points: 2
#     Edge 22, Type (0, 0), BuildingBlock: MIFKUJ_clean_linker_0, # of connection points: 2
#     Edge 23, Type (0, 0), BuildingBlock: MIFKUJ_clean_linker_0, # of connection points: 2
# Relax obj value: 0.101
# Max RMSD: 0.150
# Mean RMSD: 0.150
data_MOF--net-mmt--node1-AZAVOO_clean_sbu_0--edge1-MIFKUJ_clean_linker_0
_symmetry_space_group_name_H-M    P1
_symmetry_Int_Tables_number       1
_symmetry_cell_setting            triclinic
loop_
_symmetry_equiv_pos_as_xyz
'x, y, z'
_cell_length_a     26.577795
_cell_length_b     51.921356
_cell_length_c     55.899758
_cell_angle_alpha  89.973805
_cell_angle_beta   90.022412
_cell_angle_gamma 89.967186
loop_
_atom_site_label
_atom_site_type_symbol
_atom_site_fract_x
_atom_site_fract_y
_atom_site_fract_z
_atom_type_partial_charge
Mg0 Mg 0.24586 0.55437 0.37 0.0
O1 O 0.1837 0.55335 0.3413 0.0
O2 O 0.21558 0.56982 0.3075 0.0
Mg3 Mg 0.29812 0.57964 0.31388 0.0
C4 C 0.17923 0.56014 0.31941 0.0
C5 C 0.18952 0.5268 0.41165 0.0
O6 O 0.22603 0.51033 0.40747 0.0
O7 O 0.23771 0.59827 0.37373 0.0
O8 O 0.2725 0.61129 0.33939 0.0
O9 O 0.27174 0.51502 0.35892 0.0
O10 O 0.29996 0.55112 0.343 0.0
C11 C 0.25166 0.61612 0.35945 0.0
C12 C 0.29933 0.52631 0.343 0.0
O13 O 0.18719 0.54731 0.39925 0.0
Mg14 Mg 0.25194 0.94798 0.36855 0.0
O15 O 0.31124 0.94862 0.33845 0.0
O16 O 0.27417 0.93432 0.30509 0.0
Mg17 Mg 0.19319 0.92302 0.31386 0.0
C18 C 0.31255 0.94309 0.31616 0.0
C19 C 0.3371 0.97602 0.39812 0.0
O20 O 0.32847 0.99414 0.38223 0.0
O21 O 0.26096 0.90422 0.37203 0.0
O22 O 0.22329 0.89117 0.33837 0.0
O23 O 0.2239 0.98722 0.35705 0.0
O24 O 0.19411 0.95037 0.3436 0.0
C25 C 0.24624 0.88635 0.35796 0.0
C26 C 0.19373 0.97508 0.34278 0.0
O27 O 0.3128 0.95498 0.39676 0.0
Mg28 Mg 0.74203 0.44129 0.13711 0.0
O29 O 0.68256 0.43946 0.16699 0.0
O30 O 0.7179 0.42119 0.19908 0.0
Mg31 Mg 0.79982 0.41212 0.19023 0.0
C32 C 0.68019 0.43138 0.18855 0.0
C33 C 0.68817 0.44869 0.08764 0.0
O34 O 0.73189 0.44003 0.08018 0.0
O35 O 0.73503 0.39782 0.13028 0.0
O36 O 0.77408 0.38244 0.16268 0.0
O37 O 0.7676 0.47971 0.15064 0.0
O38 O 0.7991 0.44265 0.16289 0.0
C39 C 0.75174 0.379 0.14271 0.0
C40 C 0.79755 0.46735 0.16487 0.0
O41 O 0.68039 0.45076 0.10999 0.0
Mg42 Mg 0.75901 0.0523 0.13133 0.0
O43 O 0.81488 0.05743 0.16237 0.0
O44 O 0.77269 0.07412 0.19332 0.0
Mg45 Mg 0.69109 0.08133 0.18183 0.0
C46 C 0.81315 0.06547 0.18396 0.0
C47 C 0.84101 0.02155 0.10228 0.0
O48 O 0.82315 0.00265 0.11538 0.0
O49 O 0.76209 0.09567 0.12332 0.0
O50 O 0.71646 0.1108 0.15386 0.0
O51 O 0.73494 0.01377 0.1467 0.0
O52 O 0.69901 0.05086 0.15519 0.0
C53 C 0.74091 0.11426 0.13445 0.0
C54 C 0.70177 0.02652 0.15883 0.0
O55 O 0.82357 0.04416 0.10522 0.0
Mg56 Mg 0.75941 0.4475 0.63437 0.0
O57 O 0.82016 0.44724 0.66374 0.0
O58 O 0.78491 0.43241 0.69738 0.0
Mg59 Mg 0.70197 0.42398 0.69006 0.0
C60 C 0.82285 0.44098 0.68584 0.0
C61 C 0.8176 0.47331 0.59263 0.0
O62 O 0.78079 0.4898 0.59608 0.0
O63 O 0.76383 0.40345 0.63097 0.0
O64 O 0.72503 0.39164 0.66467 0.0
O65 O 0.73613 0.48753 0.6451 0.0
O66 O 0.70466 0.45199 0.66075 0.0
C67 C 0.74652 0.38607 0.64492 0.0
C68 C 0.70733 0.47671 0.66081 0.0
O69 O 0.81966 0.45321 0.60561 0.0
Mg70 Mg 0.73961 0.05534 0.63183 0.0
O71 O 0.67804 0.05472 0.66088 0.0
O72 O 0.71148 0.07066 0.69446 0.0
Mg73 Mg 0.79299 0.08196 0.68709 0.0
C74 C 0.67451 0.06105 0.68292 0.0
C75 C 0.65733 0.02651 0.60101 0.0
O76 O 0.66516 0.00855 0.61716 0.0
O77 O 0.73038 0.09892 0.62735 0.0
O78 O 0.76451 0.1132 0.66146 0.0
O79 O 0.76692 0.01653 0.64433 0.0
O80 O 0.79512 0.05364 0.65801 0.0
C81 C 0.74332 0.11726 0.64129 0.0
C82 C 0.79546 0.02893 0.65916 0.0
O83 O 0.68116 0.04767 0.6026 0.0
Mg84 Mg 0.26569 0.55168 0.8705 0.0
O85 O 0.32252 0.55346 0.83932 0.0
O86 O 0.28367 0.57134 0.80789 0.0
Mg87 Mg 0.203 0.58096 0.81853 0.0
C88 C 0.32256 0.56136 0.81763 0.0
C89 C 0.32206 0.54425 0.91911 0.0
O90 O 0.27869 0.55307 0.92687 0.0
O91 O 0.27466 0.5951 0.87676 0.0
O92 O 0.23464 0.61074 0.84465 0.0
O93 O 0.23816 0.51319 0.85775 0.0
O94 O 0.20749 0.55057 0.84565 0.0
C95 C 0.25893 0.61398 0.86413 0.0
C96 C 0.20855 0.5259 0.84364 0.0
O97 O 0.32898 0.54205 0.8967 0.0
Mg98 Mg 0.23958 0.9429 0.86636 0.0
O99 O 0.17737 0.94151 0.83744 0.0
O100 O 0.21307 0.92546 0.80438 0.0
Mg101 Mg 0.29639 0.9177 0.81111 0.0
C102 C 0.17488 0.93428 0.81558 0.0
C103 C 0.16332 0.97117 0.90032 0.0
O104 O 0.17705 0.99055 0.8867 0.0
O105 O 0.23625 0.8989 0.87102 0.0
O106 O 0.27508 0.88613 0.83764 0.0
O107 O 0.26246 0.98273 0.85421 0.0
O108 O 0.29316 0.94664 0.83941 0.0
C109 C 0.25403 0.88114 0.85763 0.0
C110 C 0.29052 0.97132 0.83856 0.0
O111 O 0.18136 0.94892 0.89612 0.0
H112 H 0.33665 0.47766 0.34806 0.0
H113 H 0.3932 0.45475 0.32063 0.0
H114 H 0.38464 0.51813 0.27092 0.0
H115 H 0.32866 0.54099 0.2981 0.0
H116 H 0.38131 0.46861 0.2488 0.0
H117 H 0.47929 0.51688 0.30699 0.0
H118 H 0.50472 0.5288 0.34795 0.0
H119 H 0.54671 0.4504 0.3622 0.0
H120 H 0.52082 0.43796 0.32138 0.0
H121 H 0.60269 0.46448 0.1788 0.0
H122 H 0.52995 0.47396 0.20393 0.0
H123 H 0.57793 0.41599 0.25441 0.0
H124 H 0.65179 0.40712 0.22978 0.0
H125 H 0.55659 0.45698 0.27741 0.0
H126 H 0.46986 0.40909 0.21777 0.0
H127 H 0.44401 0.39635 0.1771 0.0
H128 H 0.37964 0.4712 0.16561 0.0
H129 H 0.40571 0.48454 0.2061 0.0
C130 C 0.34632 0.48653 0.33113 0.0
C131 C 0.32888 0.51135 0.32543 0.0
C132 C 0.37862 0.47345 0.31553 0.0
C133 C 0.39333 0.48487 0.29385 0.0
C134 C 0.37378 0.50902 0.28758 0.0
C135 C 0.34217 0.52221 0.30329 0.0
C136 C 0.43213 0.47281 0.27851 0.0
C137 C 0.41972 0.46607 0.25494 0.0
C138 C 0.4818 0.46895 0.2868 0.0
C139 C 0.49755 0.47644 0.31127 0.0
C140 C 0.49353 0.50215 0.31894 0.0
C141 C 0.5081 0.509 0.3421 0.0
C142 C 0.52716 0.49035 0.3577 0.0
C143 C 0.53183 0.46481 0.35012 0.0
C144 C 0.51723 0.45785 0.32697 0.0
C145 C 0.59739 0.45349 0.19508 0.0
C146 C 0.63318 0.43513 0.20235 0.0
C147 C 0.55554 0.45882 0.2094 0.0
C148 C 0.54802 0.44551 0.23101 0.0
C149 C 0.58288 0.42656 0.23786 0.0
C150 C 0.6251 0.42149 0.22374 0.0
C151 C 0.50623 0.45283 0.24736 0.0
C152 C 0.51808 0.4589 0.2712 0.0
C153 C 0.45598 0.45581 0.23931 0.0
C154 C 0.4401 0.44787 0.21494 0.0
C155 C 0.45052 0.4229 0.20652 0.0
C156 C 0.43577 0.41556 0.1835 0.0
C157 C 0.41029 0.43297 0.16877 0.0
C158 C 0.3994 0.45774 0.17704 0.0
C159 C 0.4141 0.46519 0.20004 0.0
H160 H 0.39891 0.42725 0.15095 0.0
H161 H 0.53844 0.49569 0.37562 0.0
H162 H 0.91163 0.06248 0.1697 0.0
H163 H 0.98544 0.05453 0.19485 0.0
H164 H 0.89053 0.05349 0.25749 0.0
H165 H 0.81734 0.06275 0.23264 0.0
H166 H 0.9747 0.07379 0.26942 0.0
H167 H 0.92804 0.99682 0.2256 0.0
H168 H 0.9109 0.97165 0.18907 0.0
H169 H 0.06111 0.98601 0.16414 0.0
H170 H 0.07891 0.01152 0.20044 0.0
H171 H 0.11541 0.95469 0.31823 0.0
H172 H 0.05989 0.97586 0.28987 0.0
H173 H 0.1418 0.04695 0.29892 0.0
H174 H 0.19731 0.02576 0.32812 0.0
H175 H 0.0738 0.99607 0.24843 0.0
H176 H 0.0593 0.0975 0.28905 0.0
H177 H 0.06768 0.11928 0.3281 0.0
H178 H 0.02589 0.04945 0.36416 0.0
H179 H 0.01671 0.02739 0.32534 0.0
C180 C 0.90668 0.06089 0.18887 0.0
C181 C 0.85858 0.063 0.19916 0.0
C182 C 0.94887 0.05627 0.20324 0.0
C183 C 0.94354 0.05283 0.22807 0.0
C184 C 0.8958 0.05605 0.23842 0.0
C185 C 0.85385 0.06125 0.22415 0.0
C186 C 0.98646 0.04401 0.24315 0.0
C187 C 0.99665 0.05692 0.26471 0.0
C188 C 0.01505 0.02187 0.23722 0.0
C189 C 0.0046 0.00629 0.21557 0.0
C190 C 0.9573 0.9947 0.21226 0.0
C191 C 0.94748 0.98037 0.19161 0.0
C192 C 0.98484 0.9773 0.17426 0.0
C193 C 0.03218 0.98845 0.17757 0.0
C194 C 0.04217 0.00283 0.19818 0.0
C195 C 0.12194 0.97481 0.31417 0.0
C196 C 0.16091 0.98853 0.32539 0.0
C197 C 0.09011 0.98691 0.29786 0.0
C198 C 0.09646 0.01303 0.2922 0.0
C199 C 0.13573 0.02684 0.30318 0.0
C200 C 0.16749 0.01473 0.31981 0.0
C201 C 0.06104 0.02538 0.27504 0.0
C202 C 0.0525 0.01322 0.25297 0.0
C203 C 0.0329 0.04767 0.28089 0.0
C204 C 0.03801 0.06074 0.30432 0.0
C205 C 0.05186 0.08683 0.30533 0.0
C206 C 0.05673 0.09922 0.32741 0.0
C207 C 0.04753 0.08573 0.3486 0.0
C208 C 0.03323 0.05985 0.34775 0.0
C209 C 0.02824 0.04739 0.32571 0.0
H210 H 0.05135 0.09535 0.36568 0.0
H211 H 0.97715 0.96622 0.15827 0.0
H212 H 0.81168 0.51935 0.16988 0.0
H213 H 0.86676 0.54133 0.19863 0.0
H214 H 0.90646 0.4682 0.2299 0.0
H215 H 0.85354 0.44616 0.20097 0.0
H216 H 0.88363 0.51083 0.26391 0.0
H217 H 0.98312 0.4891 0.19276 0.0
H218 H 1.00014 0.49091 0.14942 0.0
H219 H 0.00421 0.57353 0.15234 0.0
H220 H 0.98651 0.57218 0.19568 0.0
H221 H 0.11341 0.52055 0.32589 0.0
H222 H 0.03901 0.51071 0.30195 0.0
H223 H 0.06079 0.58082 0.26161 0.0
H224 H 0.13719 0.5897 0.28453 0.0
H225 H 0.04338 0.54645 0.23219 0.0
H226 H 0.95814 0.56993 0.30341 0.0
H227 H 0.93829 0.57058 0.34649 0.0
H228 H 0.90181 0.49008 0.3442 0.0
H229 H 0.92211 0.48883 0.30118 0.0
C230 C 0.83178 0.50797 0.18303 0.0
C231 C 0.82791 0.48094 0.18316 0.0
C232 C 0.86308 0.52057 0.19943 0.0
C233 C 0.8903 0.50633 0.21642 0.0
C234 C 0.88527 0.4795 0.21707 0.0
C235 C 0.8549 0.46692 0.20044 0.0
C236 C 0.92719 0.51889 0.23239 0.0
C237 C 0.91867 0.51867 0.25713 0.0
C238 C 0.97192 0.5298 0.22333 0.0
C239 C 0.98288 0.53055 0.19735 0.0
C240 C 0.98719 0.50765 0.18411 0.0
C241 C 0.99705 0.50859 0.15956 0.0
C242 C 0.00308 0.53232 0.14811 0.0
C243 C 0.99942 0.55516 0.16122 0.0
C244 C 0.9895 0.55432 0.18577 0.0
C245 C 0.10182 0.534 0.31212 0.0
C246 C 0.13102 0.55582 0.30697 0.0
C247 C 0.059 0.5285 0.29853 0.0
C248 C 0.04354 0.5452 0.28009 0.0
C249 C 0.07183 0.56755 0.27563 0.0
C250 C 0.11542 0.57266 0.28875 0.0
C251 C 0.00068 0.53822 0.26418 0.0
C252 C 0.00806 0.5393 0.23929 0.0
C253 C 0.95443 0.52862 0.27317 0.0
C254 C 0.94199 0.52926 0.29907 0.0
C255 C 0.94621 0.55232 0.31212 0.0
C256 C 0.93483 0.5528 0.33653 0.0
C257 C 0.91889 0.53038 0.34808 0.0
C258 C 0.91418 0.50743 0.33523 0.0
C259 C 0.92554 0.50683 0.31082 0.0
H260 H 0.91011 0.53079 0.36698 0.0
H261 H 0.01072 0.53301 0.12911 0.0
H262 H 0.71247 0.97932 0.18101 0.0
H263 H 0.65712 0.96071 0.21176 0.0
H264 H 0.56138 0.02775 0.20753 0.0
H265 H 0.61668 0.04649 0.17772 0.0
H266 H 0.57274 0.01589 0.25184 0.0
H267 H 0.53421 0.96815 0.17914 0.0
H268 H 0.55477 0.93979 0.14511 0.0
H269 H 0.60296 0.88064 0.19372 0.0
H270 H 0.58316 0.90879 0.22803 0.0
H271 H 0.32484 0.94193 0.26768 0.0
H272 H 0.40058 0.95136 0.24484 0.0
H273 H 0.48338 0.96258 0.31042 0.0
H274 H 0.40697 0.95397 0.33352 0.0
H275 H 0.4899 0.93129 0.23998 0.0
H276 H 0.57138 0.00892 0.30184 0.0
H277 H 0.5434 0.03954 0.33291 0.0
H278 H 0.39689 0.04305 0.30063 0.0
H279 H 0.4242 0.01267 0.26928 0.0
C280 C 0.6796 0.99 0.18673 0.0
C281 C 0.66903 0.0144 0.17703 0.0
C282 C 0.64798 0.97937 0.20426 0.0
C283 C 0.6049 0.9928 0.21197 0.0
C284 C 0.59456 0.0171 0.20215 0.0
C285 C 0.62624 0.02778 0.18499 0.0
C286 C 0.56933 0.98184 0.22983 0.0
C287 C 0.55507 0.99724 0.24936 0.0
C288 C 0.54603 0.95756 0.2267 0.0
C289 C 0.5578 0.94066 0.2061 0.0
C290 C 0.54952 0.94916 0.18254 0.0
C291 C 0.56097 0.93312 0.16322 0.0
C292 C 0.58031 0.90846 0.16725 0.0
C293 C 0.58809 0.89976 0.19062 0.0
C294 C 0.57674 0.91574 0.21001 0.0
C295 C 0.35914 0.94629 0.27733 0.0
C296 C 0.35961 0.94745 0.30247 0.0
C297 C 0.4026 0.95154 0.2642 0.0
C298 C 0.44768 0.95792 0.27585 0.0
C299 C 0.44886 0.95812 0.30099 0.0
C300 C 0.40513 0.95317 0.31418 0.0
C301 C 0.49216 0.96576 0.26143 0.0
C302 C 0.50834 0.9497 0.24272 0.0
C303 C 0.5163 0.98978 0.26489 0.0
C304 C 0.49967 0.00831 0.28344 0.0
C305 C 0.53325 0.01629 0.30137 0.0
C306 C 0.5175 0.03359 0.31902 0.0
C307 C 0.46834 0.04316 0.31879 0.0
C308 C 0.43489 0.03554 0.30085 0.0
C309 C 0.45046 0.01827 0.28315 0.0
H310 H 0.45621 0.05652 0.33249 0.0
H311 H 0.58916 0.89607 0.15226 0.0
H312 H 0.40683 0.53283 0.8278 0.0
H313 H 0.47947 0.52535 0.80194 0.0
H314 H 0.41558 0.57575 0.74855 0.0
H315 H 0.34235 0.58279 0.77398 0.0
H316 H 0.44458 0.53339 0.72845 0.0
H317 H 0.52115 0.59284 0.78205 0.0
H318 H 0.54587 0.61114 0.82101 0.0
H319 H 0.63135 0.54303 0.83685 0.0
H320 H 0.60655 0.52415 0.79812 0.0
H321 H 0.65919 0.52237 0.65362 0.0
H322 H 0.60116 0.54405 0.68131 0.0
H323 H 0.63372 0.487 0.73526 0.0
H324 H 0.6915 0.46548 0.70781 0.0
H325 H 0.62337 0.53791 0.75369 0.0
H326 H 0.53658 0.47727 0.70202 0.0
H327 H 0.51188 0.45942 0.66287 0.0
H328 H 0.44563 0.5319 0.64334 0.0
H329 H 0.47063 0.55029 0.68229 0.0
C330 C 0.40847 0.54254 0.81066 0.0
C331 C 0.36858 0.55829 0.80292 0.0
C332 C 0.45021 0.53837 0.79593 0.0
C333 C 0.45328 0.55017 0.77335 0.0
C334 C 0.41408 0.5664 0.76587 0.0
C335 C 0.37218 0.5704 0.78046 0.0
C336 C 0.49544 0.54414 0.75682 0.0
C337 C 0.48367 0.53495 0.73387 0.0
C338 C 0.54653 0.54571 0.76393 0.0
C339 C 0.56163 0.55699 0.78724 0.0
C340 C 0.54489 0.58167 0.79392 0.0
C341 C 0.55898 0.59217 0.81595 0.0
C342 C 0.59007 0.57823 0.83142 0.0
C343 C 0.60723 0.5538 0.82486 0.0
C344 C 0.59322 0.5432 0.80285 0.0
C345 C 0.65458 0.51481 0.67155 0.0
C346 C 0.6788 0.49194 0.67844 0.0
C347 C 0.62146 0.52713 0.68729 0.0
C348 C 0.61279 0.51691 0.7102 0.0
C349 C 0.63973 0.49511 0.71763 0.0
C350 C 0.67221 0.48263 0.70181 0.0
C351 C 0.57215 0.52717 0.7256 0.0
C352 C 0.58421 0.53692 0.74829 0.0
C353 C 0.52127 0.5263 0.71826 0.0
C354 C 0.50601 0.51523 0.69492 0.0
C355 C 0.51713 0.48946 0.68929 0.0
C356 C 0.50302 0.47923 0.66716 0.0
C357 C 0.47735 0.49454 0.65059 0.0
C358 C 0.46562 0.52008 0.65616 0.0
C359 C 0.47974 0.53042 0.67826 0.0
H360 H 0.46643 0.48659 0.63347 0.0
H361 H 0.60094 0.58639 0.84847 0.0
H362 H 0.86882 0.04996 0.6868 0.0
H363 H 0.92468 0.0282 0.71482 0.0
H364 H 0.85055 0.95601 0.70046 0.0
H365 H 0.7939 0.97779 0.6721 0.0
H366 H 0.8752 0.96611 0.75127 0.0
H367 H 0.95204 0.963 0.67349 0.0
H368 H 0.98056 0.98128 0.6351 0.0
H369 H 0.07876 0.03315 0.67247 0.0
H370 H 0.05023 0.01543 0.71112 0.0
H371 H 0.1504 0.91341 0.77235 0.0
H372 H 0.07732 0.92299 0.74757 0.0
H373 H 0.01909 0.97294 0.80266 0.0
H374 H 0.09196 0.96305 0.82787 0.0
H375 H 0.05625 0.96816 0.72967 0.0
H376 H 0.89072 0.97803 0.79658 0.0
H377 H 0.86196 0.95854 0.83444 0.0
H378 H 0.94128 0.8888 0.81761 0.0
H379 H 0.96995 0.90773 0.77952 0.0
C380 C 0.86375 0.02952 0.68977 0.0
C381 C 0.82694 0.01559 0.67717 0.0
C382 C 0.89583 0.01712 0.70579 0.0
C383 C 0.89182 0.99052 0.70962 0.0
C384 C 0.85406 0.97659 0.69776 0.0
C385 C 0.82201 0.98901 0.68149 0.0
C386 C 0.92965 0.97736 0.72476 0.0
C387 C 0.9148 0.96636 0.74658 0.0
C388 C 0.98111 0.97746 0.71841 0.0
C389 C 0.9987 0.98802 0.69519 0.0
C390 C 0.97943 0.97844 0.67352 0.0
C391 C 0.99565 0.98868 0.65172 0.0
C392 C 0.03138 0.0084 0.65135 0.0
C393 C 0.05106 0.01788 0.67279 0.0
C394 C 0.03492 0.00773 0.69465 0.0
C395 C 0.12175 0.92615 0.77941 0.0
C396 C 0.12732 0.93765 0.80204 0.0
C397 C 0.07993 0.9316 0.76518 0.0
C398 C 0.04269 0.94869 0.7732 0.0
C399 C 0.04699 0.95942 0.7962 0.0
C400 C 0.0888 0.95382 0.81056 0.0
C401 C 0.00226 0.95711 0.75656 0.0
C402 C 0.01669 0.96749 0.73441 0.0
C403 C 0.95052 0.95613 0.76258 0.0
C404 C 0.93283 0.9444 0.78528 0.0
C405 C 0.90183 0.95849 0.8009 0.0
C406 C 0.88558 0.94755 0.82242 0.0
C407 C 0.89991 0.92248 0.82846 0.0
C408 C 0.93036 0.90826 0.81295 0.0
C409 C 0.94669 0.9191 0.79141 0.0
H410 H 0.88734 0.91406 0.84513 0.0
H411 H 0.04389 0.0163 0.63445 0.0
H412 H 0.19856 0.53993 0.79707 0.0
H413 H 0.14207 0.52141 0.76728 0.0
H414 H 0.09414 0.46423 0.8185 0.0
H415 H 0.1525 0.4823 0.84816 0.0
H416 H 0.09704 0.44347 0.77567 0.0
H417 H 0.02602 0.52088 0.80829 0.0
H418 H 0.02472 0.56682 0.81946 0.0
H419 H 0.04396 0.58819 0.74581 0.0
H420 H 0.04605 0.54234 0.73424 0.0
H421 H 0.84933 0.42193 0.72969 0.0
H422 H 0.92422 0.43229 0.75311 0.0
H423 H 0.97899 0.48004 0.69562 0.0
H424 H 0.9042 0.46971 0.67193 0.0
H425 H 0.9756 0.50489 0.73961 0.0
H426 H 0.0383 0.42557 0.70745 0.0
H427 H 0.03583 0.37925 0.69787 0.0
H428 H 0.0266 0.36096 0.77266 0.0
H429 H 0.02827 0.40721 0.78269 0.0
C430 C 0.17605 0.5234 0.80194 0.0
C431 C 0.17883 0.51288 0.82502 0.0
C432 C 0.14385 0.51277 0.7849 0.0
C433 C 0.11267 0.4919 0.79085 0.0
C434 C 0.11751 0.48046 0.81354 0.0
C435 C 0.15068 0.49078 0.83047 0.0
C436 C 0.07312 0.48309 0.77393 0.0
C437 C 0.0702 0.45686 0.76796 0.0
C438 C 0.03844 0.50059 0.76356 0.0
C439 C 0.03669 0.52818 0.77044 0.0
C440 C 0.03028 0.53538 0.7945 0.0
C441 C 0.02937 0.5614 0.8009 0.0
C442 C 0.03439 0.58041 0.78337 0.0
C443 C 0.04015 0.57344 0.75938 0.0
C444 C 0.04117 0.54744 0.75289 0.0
C445 C 0.87756 0.43439 0.72186 0.0
C446 C 0.8706 0.44512 0.69898 0.0
C447 C 0.92049 0.44016 0.73524 0.0
C448 C 0.95719 0.45685 0.72605 0.0
C449 C 0.95109 0.46706 0.70298 0.0
C450 C 0.90839 0.46108 0.68947 0.0
C451 C 0.9996 0.46533 0.74134 0.0
C452 C 0.00279 0.49154 0.74713 0.0
C453 C 0.03385 0.44773 0.75178 0.0
C454 C 0.03297 0.41989 0.74581 0.0
C455 C 0.0353 0.41169 0.72185 0.0
C456 C 0.03414 0.38544 0.71634 0.0
C457 C 0.03095 0.36717 0.73464 0.0
C458 C 0.02903 0.37513 0.7585 0.0
C459 C 0.03014 0.40136 0.76411 0.0
H460 H 0.03005 0.34686 0.73034 0.0
H461 H 0.0337 0.60055 0.78836 0.0
H462 H 0.34504 0.0154 0.8436 0.0
H463 H 0.40094 0.03494 0.81379 0.0
H464 H 0.35137 0.97933 0.76143 0.0
H465 H 0.29697 0.95947 0.79136 0.0
H466 H 0.44721 0.9799 0.76167 0.0
H467 H 0.32255 0.04596 0.75821 0.0
H468 H 0.26449 0.07897 0.77382 0.0
H469 H 0.38931 0.12137 0.80252 0.0
H470 H 0.44811 0.08844 0.78736 0.0
H471 H 0.59239 0.03344 0.66778 0.0
H472 H 0.51723 0.02249 0.69095 0.0
H473 H 0.57348 0.06657 0.75059 0.0
H474 H 0.64849 0.07771 0.72765 0.0
H475 H 0.46993 0.07275 0.74379 0.0
H476 H 0.59231 0.00376 0.74984 0.0
H477 H 0.64944 0.97077 0.73339 0.0
H478 H 0.5249 0.9339 0.69845 0.0
H479 H 0.46713 0.96691 0.71444 0.0
C480 C 0.34555 0.00773 0.82558 0.0
C481 C 0.31753 0.98569 0.81982 0.0
C482 C 0.37732 0.01893 0.80851 0.0
C483 C 0.38049 0.00863 0.78527 0.0
C484 C 0.35011 0.98748 0.77926 0.0
C485 C 0.31916 0.97605 0.7964 0.0
C486 C 0.41859 0.01822 0.76791 0.0
C487 C 0.4513 0.00019 0.75743 0.0
C488 C 0.42495 0.04472 0.76268 0.0
C489 C 0.38971 0.0646 0.77182 0.0
C490 C 0.3376 0.06222 0.76801 0.0
C491 C 0.30456 0.08094 0.77675 0.0
C492 C 0.32319 0.10222 0.7892 0.0
C493 C 0.37492 0.10486 0.79289 0.0
C494 C 0.40814 0.08619 0.7842 0.0
C495 C 0.58853 0.04108 0.68571 0.0
C496 C 0.6268 0.05622 0.69593 0.0
C497 C 0.54557 0.03478 0.69893 0.0
C498 C 0.54006 0.04354 0.72255 0.0
C499 C 0.577 0.05962 0.73239 0.0
C500 C 0.62003 0.06582 0.71927 0.0
C501 C 0.49792 0.0344 0.73771 0.0
C502 C 0.46493 0.05248 0.74785 0.0
C503 C 0.49089 0.00792 0.74253 0.0
C504 C 0.52552 0.98795 0.73311 0.0
C505 C 0.57719 0.98873 0.7385 0.0
C506 C 0.60967 0.97001 0.72929 0.0
C507 C 0.59084 0.9503 0.71483 0.0
C508 C 0.53945 0.94921 0.70962 0.0
C509 C 0.50682 0.96791 0.71876 0.0
H510 H 0.61604 0.93583 0.70771 0.0
H511 H 0.29754 0.11669 0.79595 0.0
H512 H 0.10938 0.55668 0.42527 0.0
H513 H 0.04689 0.54724 0.45617 0.0
H514 H 0.12132 0.47525 0.47148 0.0
H515 H 0.18355 0.48436 0.44046 0.0
H516 H 0.02114 0.46891 0.46922 0.0
H517 H 0.13494 0.52664 0.50856 0.0
H518 H 0.18428 0.56647 0.5136 0.0
H519 H 0.04832 0.61118 0.51335 0.0
H520 H 0.99817 0.57162 0.50797 0.0
H521 H 0.89775 0.44293 0.57989 0.0
H522 H 0.96123 0.45175 0.54924 0.0
H523 H 0.88805 0.52374 0.53263 0.0
H524 H 0.82486 0.51524 0.56332 0.0
H525 H 0.98845 0.52974 0.53585 0.0
H526 H 0.87479 0.47184 0.49618 0.0
H527 H 0.8257 0.43191 0.49127 0.0
H528 H 0.96187 0.38737 0.49237 0.0
H529 H 0.01175 0.42704 0.49762 0.0
C530 C 0.11251 0.53885 0.43522 0.0
C531 C 0.1516 0.52132 0.43043 0.0
C532 C 0.07685 0.53352 0.45295 0.0
C533 C 0.07971 0.51065 0.46632 0.0
C534 C 0.11838 0.49302 0.46141 0.0
C535 C 0.15404 0.49832 0.4437 0.0
C536 C 0.04225 0.505 0.48534 0.0
C537 C 0.01447 0.48205 0.48397 0.0
C538 C 0.03281 0.52237 0.50434 0.0
C539 C 0.06284 0.54618 0.50762 0.0
C540 C 0.11559 0.54498 0.50938 0.0
C541 C 0.1437 0.5675 0.51234 0.0
C542 C 0.11946 0.59134 0.51373 0.0
C543 C 0.06704 0.5927 0.51223 0.0
C544 C 0.03875 0.57023 0.50925 0.0
C545 C 0.89513 0.46063 0.5697 0.0
C546 C 0.85612 0.47834 0.57402 0.0
C547 C 0.93135 0.4656 0.55212 0.0
C548 C 0.92914 0.48831 0.53848 0.0
C549 C 0.89051 0.5061 0.54292 0.0
C550 C 0.85429 0.50114 0.56044 0.0
C551 C 0.96724 0.49369 0.51969 0.0
C552 C 0.99515 0.51659 0.52111 0.0
C553 C 0.97684 0.47626 0.50077 0.0
C554 C 0.94695 0.45239 0.49754 0.0
C555 C 0.89424 0.45352 0.49557 0.0
C556 C 0.86628 0.43093 0.49269 0.0
C557 C 0.89064 0.40711 0.49157 0.0
C558 C 0.94304 0.40583 0.49327 0.0
C559 C 0.97118 0.42836 0.49618 0.0
H560 H 0.86893 0.38965 0.48934 0.0
H561 H 0.14129 0.60876 0.51602 0.0
H562 H 0.39339 0.01914 0.40698 0.0
H563 H 0.44834 0.02739 0.44119 0.0
H564 H 0.416 0.95168 0.46899 0.0
H565 H 0.36045 0.94337 0.43499 0.0
H566 H 0.40938 0.98747 0.50353 0.0
H567 H 0.52885 0.96501 0.44269 0.0
H568 H 0.56929 0.96798 0.40309 0.0
H569 H 0.60903 0.04673 0.41691 0.0
H570 H 0.56817 0.04434 0.45648 0.0
H571 H 0.60205 0.98316 0.59173 0.0
H572 H 0.54809 0.97472 0.5572 0.0
H573 H 0.5808 0.05039 0.5294 0.0
H574 H 0.63536 0.05888 0.56373 0.0
H575 H 0.58736 0.01464 0.4948 0.0
H576 H 0.46778 0.03726 0.55546 0.0
H577 H 0.42665 0.03459 0.59491 0.0
H578 H 0.38671 0.95582 0.58135 0.0
H579 H 0.42824 0.95791 0.54193 0.0
C580 C 0.39815 0.00416 0.42028 0.0
C581 C 0.37249 0.98058 0.41821 0.0
C582 C 0.42974 0.00889 0.43981 0.0
C583 C 0.43662 0.99008 0.45759 0.0
C584 C 0.41125 0.96648 0.45551 0.0
C585 C 0.37965 0.96174 0.43599 0.0
C586 C 0.46934 0.99522 0.47864 0.0
C587 C 0.44851 0.99305 0.50163 0.0
C588 C 0.52004 0.00314 0.47616 0.0
C589 C 0.54501 0.00456 0.45246 0.0
C590 C 0.54588 0.98302 0.43721 0.0
C591 C 0.56893 0.98459 0.41478 0.0
C592 C 0.59159 0.00755 0.40746 0.0
C593 C 0.5914 0.02896 0.42259 0.0
C594 C 0.56834 0.02751 0.44503 0.0
C595 C 0.59763 0.99807 0.57834 0.0
C596 C 0.62301 0.02172 0.58055 0.0
C597 C 0.56661 0.99324 0.55863 0.0
C598 C 0.56004 0.012 0.54078 0.0
C599 C 0.58531 0.03562 0.54293 0.0
C600 C 0.61634 0.04048 0.56264 0.0
C601 C 0.52741 0.00686 0.5197 0.0
C602 C 0.54824 0.00904 0.4967 0.0
C603 C 0.47669 0.99897 0.52217 0.0
C604 C 0.45157 0.99767 0.54584 0.0
C605 C 0.45059 0.01931 0.56097 0.0
C606 C 0.42714 0.01791 0.58331 0.0
C607 C 0.4042 0.99503 0.59066 0.0
C608 C 0.40455 0.97352 0.57565 0.0
C609 C 0.42801 0.9748 0.5533 0.0
H610 H 0.38606 0.99399 0.60797 0.0
H611 H 0.60939 0.00873 0.39008 0.0
H612 H 0.69208 0.44611 0.03877 0.0
H613 H 0.63007 0.46213 0.0101 0.0
H614 H 0.53546 0.48735 0.06824 0.0
H615 H 0.59686 0.47096 0.09705 0.0
H616 H 0.48052 0.46493 0.03424 0.0
H617 H 0.6087 0.53009 0.03656 0.0
H618 H 0.69518 0.54705 0.03398 0.0
H619 H 0.70576 0.52129 0.96117 0.0
H620 H 0.61953 0.50386 0.96342 0.0
H621 H 0.31951 0.54691 0.96797 0.0
H622 H 0.38203 0.53074 0.99629 0.0
H623 H 0.47504 0.50532 0.93764 0.0
H624 H 0.41305 0.52185 0.90915 0.0
H625 H 0.53094 0.52762 0.97167 0.0
H626 H 0.40249 0.46266 0.96933 0.0
H627 H 0.31593 0.44582 0.97194 0.0
H628 H 0.30583 0.47131 0.04485 0.0
H629 H 0.39213 0.48862 0.04257 0.0
C630 C 0.65801 0.45498 0.04549 0.0
C631 C 0.64959 0.45736 0.07023 0.0
C632 C 0.62268 0.46425 0.02905 0.0
C633 C 0.57844 0.47633 0.037 0.0
C634 C 0.56938 0.47819 0.06168 0.0
C635 C 0.6046 0.46884 0.07813 0.0
C636 C 0.54167 0.48711 0.01961 0.0
C637 C 0.49143 0.47889 0.02076 0.0
C638 C 0.55606 0.5049 0.00166 0.0
C639 C 0.60785 0.51545 1.00024 0.0
C640 C 0.62961 0.52787 0.02006 0.0
C641 C 0.67855 0.53759 0.01864 0.0
C642 C 0.70599 0.53519 0.99745 0.0
C643 C 0.68448 0.52311 0.97759 0.0
C644 C 0.63556 0.51332 0.97891 0.0
C645 C 0.35334 0.53798 0.96106 0.0
C646 C 0.36111 0.53555 0.93627 0.0
C647 C 0.38896 0.52862 0.97729 0.0
C648 C 0.43288 0.51643 0.96911 0.0
C649 C 0.44136 0.51456 0.94438 0.0
C650 C 0.40581 0.52399 0.92811 0.0
C651 C 0.46979 0.50547 0.98632 0.0
C652 C 0.52005 0.51365 0.98514 0.0
C653 C 0.45542 0.48765 0.00426 0.0
C654 C 0.4036 0.47716 0.0057 0.0
C655 C 0.38167 0.46485 0.98586 0.0
C656 C 0.33268 0.45518 0.98729 0.0
C657 C 0.30535 0.45755 0.00853 0.0
C658 C 0.32702 0.46952 0.0284 0.0
C659 C 0.37599 0.47924 0.02706 0.0
H660 H 0.26743 0.45005 0.0096 0.0
H661 H 0.74388 0.54273 0.99639 0.0
H662 H 0.12947 0.93579 0.93304 0.0
H663 H 0.07636 0.94366 0.96802 0.0
H664 H 0.06734 0.02418 0.94948 0.0
H665 H 0.12084 0.01656 0.91467 0.0
H666 H 0.08644 0.01809 0.99639 0.0
H667 H 0.9685 0.98355 0.93953 0.0
H668 H 0.93625 0.95164 0.91068 0.0
H669 H 0.93331 0.89404 0.96582 0.0
H670 H 0.96619 0.92554 0.99493 0.0
H671 H 0.8816 0.05561 0.07018 0.0
H672 H 0.93841 0.04615 0.03698 0.0
H673 H 0.94144 0.96609 0.05757 0.0
H674 H 0.88403 0.97532 0.09064 0.0
H675 H 0.92709 0.97075 0.01047 0.0
H676 H 0.04255 0.00536 0.06766 0.0
H677 H 0.07507 0.03705 0.09663 0.0
H678 H 0.08336 0.09417 0.0412 0.0
H679 H 0.0502 0.06291 0.01195 0.0
C680 C 0.116 0.95515 0.93633 0.0
C681 C 0.12939 0.97554 0.921 0.0
C682 C 0.08552 0.95961 0.95632 0.0
C683 C 0.06755 0.98449 0.96131 0.0
C684 C 0.0808 0.00484 0.94602 0.0
C685 C 0.11126 0.00041 0.92605 0.0
C686 C 0.03548 0.98946 0.98261 0.0
C687 C 0.05128 0.00797 0.99932 0.0
C688 C 0.99029 0.97576 0.9868 0.0
C689 C 0.97029 0.95683 0.96935 0.0
C690 C 0.96134 0.96402 0.94546 0.0
C691 C 0.94288 0.94602 0.92907 0.0
C692 C 0.93286 0.92081 0.9364 0.0
C693 C 0.94115 0.91357 0.96016 0.0
C694 C 0.95966 0.93149 0.97661 0.0
C695 C 0.89463 0.03602 0.06779 0.0
C696 C 0.87818 0.01622 0.0831 0.0
C697 C 0.92728 0.03064 0.04882 0.0
C698 C 0.94454 0.00542 0.04485 0.0
C699 C 0.92861 0.98568 0.06025 0.0
C700 C 0.8959 0.99103 0.07922 0.0
C701 C 0.97787 -0.00048 0.02419 0.0
C702 C 0.96233 0.98083 0.0076 0.0
C703 C 0.02335 0.01302 0.02013 0.0
C704 C 0.04344 0.03185 0.03766 0.0
C705 C 0.05093 0.02474 0.06169 0.0
C706 C 0.06955 0.04262 0.07815 0.0
C707 C 0.08116 0.06763 0.07077 0.0
C708 C 0.0743 0.0748 0.0469 0.0
C709 C 0.05563 0.057 0.03036 0.0
H710 H 0.09558 0.08144 0.08355 0.0
H711 H 0.91858 0.9069 0.92368 0.0
H712 H 0.23761 0.65617 0.32933 0.0
H713 H 0.24205 0.70187 0.33859 0.0
H714 H 0.25864 0.68424 0.4136 0.0
H715 H 0.25321 0.63789 0.40438 0.0
H716 H 0.19837 0.7288 0.40431 0.0
H717 H 0.36158 0.69762 0.385 0.0
H718 H 0.42433 0.67285 0.36206 0.0
H719 H 0.3928 0.7182 0.29958 0.0
H720 H 0.3293 0.74299 0.32201 0.0
H721 H 0.26632 0.86514 0.4022 0.0
H722 H 0.2745 0.81905 0.41187 0.0
H723 H 0.25363 0.80017 0.33739 0.0
H724 H 0.24546 0.84557 0.32767 0.0
H725 H 0.33217 0.77341 0.35828 0.0
H726 H 0.15683 0.79691 0.37594 0.0
H727 H 0.09225 0.82108 0.39832 0.0
H728 H 0.14852 0.79025 0.46443 0.0
H729 H 0.21384 0.76613 0.44242 0.0
C730 C 0.24147 0.66195 0.34786 0.0
C731 C 0.2458 0.64348 0.3661 0.0
C732 C 0.24411 0.68808 0.35312 0.0
C733 C 0.25202 0.69638 0.37669 0.0
C734 C 0.25299 0.67815 0.39526 0.0
C735 C 0.24978 0.65176 0.38999 0.0
C736 C 0.26232 0.72403 0.38107 0.0
C737 C 0.22841 0.73854 0.39479 0.0
C738 C 0.3017 0.73669 0.36873 0.0
C739 C 0.34057 0.72214 0.35521 0.0
C740 C 0.36787 0.70225 0.36634 0.0
C741 C 0.40358 0.6882 0.35342 0.0
C742 C 0.41253 0.69394 0.32938 0.0
C743 C 0.38587 0.71379 0.31821 0.0
C744 C 0.35008 0.72788 0.33104 0.0
C745 C 0.26399 0.85111 0.38792 0.0
C746 C 0.25498 0.85899 0.36419 0.0
C747 C 0.26844 0.82485 0.39348 0.0
C748 C 0.26446 0.80624 0.37533 0.0
C749 C 0.25692 0.81421 0.35165 0.0
C750 C 0.25202 0.84022 0.34615 0.0
C751 C 0.26666 0.77827 0.38043 0.0
C752 C 0.30318 0.76365 0.3685 0.0
C753 C 0.2299 0.76561 0.39447 0.0
C754 C 0.19055 0.78001 0.4076 0.0
C755 C 0.15567 0.79547 0.39527 0.0
C756 C 0.11889 0.80912 0.40787 0.0
C757 C 0.1164 0.80728 0.43279 0.0
C758 C 0.15057 0.79171 0.44514 0.0
C759 C 0.18746 0.77804 0.43261 0.0
H760 H 0.0879 0.81786 0.44252 0.0
H761 H 0.44016 0.68303 0.3194 0.0
H762 H 0.67849 0.15391 0.14522 0.0
H763 H 0.68366 0.19831 0.13202 0.0
H764 H 0.81259 0.17982 0.08841 0.0
H765 H 0.80771 0.1347 0.10176 0.0
H766 H 0.83003 0.22098 0.11615 0.0
H767 H 0.70587 0.1989 0.06071 0.0
H768 H 0.6293 0.17843 0.04471 0.0
H769 H 0.53813 0.22372 0.09213 0.0
H770 H 0.61415 0.24419 0.10871 0.0
H771 H 0.72971 0.36233 0.09698 0.0
H772 H 0.73289 0.31773 0.08215 0.0
H773 H 0.7683 0.29105 0.15327 0.0
H774 H 0.76568 0.33495 0.16805 0.0
H775 H 0.68139 0.27371 0.09376 0.0
H776 H 0.85578 0.24671 0.15245 0.0
H777 H 0.93372 0.26745 0.16658 0.0
H778 H 0.92859 0.32019 0.10745 0.0
H779 H 0.85104 0.29953 0.09273 0.0
C780 C 0.70781 0.1591 0.13265 0.0
C781 C 0.74302 0.14078 0.12471 0.0
C782 C 0.7103 0.18452 0.12487 0.0
C783 C 0.74802 0.19236 0.10894 0.0
C784 C 0.78285 0.17409 0.10053 0.0
C785 C 0.78007 0.14838 0.10818 0.0
C786 C 0.75346 0.22021 0.10361 0.0
C787 C 0.79789 0.23251 0.1108 0.0
C788 C 0.71203 0.23525 0.09586 0.0
C789 C 0.66588 0.22309 0.08598 0.0
C790 C 0.66953 0.2044 0.06784 0.0
C791 C 0.62619 0.1928 0.05865 0.0
C792 C 0.57888 0.19977 0.0674 0.0
C793 C 0.57481 0.21837 0.08534 0.0
C794 C 0.61804 0.23003 0.09461 0.0
C795 C 0.73777 0.34689 0.10944 0.0
C796 C 0.74802 0.35225 0.13365 0.0
C797 C 0.73975 0.32147 0.10093 0.0
C798 C 0.75219 0.30119 0.1165 0.0
C799 C 0.76009 0.30648 0.1408 0.0
C800 C 0.75828 0.33165 0.14925 0.0
C801 C 0.75658 0.27422 0.10803 0.0
C802 C 0.71407 0.26217 0.09828 0.0
C803 C 0.8001 0.2594 0.113 0.0
C804 C 0.84746 0.27156 0.12149 0.0
C805 C 0.87149 0.26257 0.14232 0.0
C806 C 0.91556 0.27436 0.15047 0.0
C807 C 0.93607 0.29513 0.13793 0.0
C808 C 0.91262 0.30412 0.11717 0.0
C809 C 0.86857 0.29239 0.10893 0.0
H810 H 0.97015 0.30425 0.1443 0.0
H811 H 0.54537 0.19076 0.06026 0.0
H812 H 0.72684 0.15782 0.67064 0.0
H813 H 0.72025 0.20317 0.65989 0.0
H814 H 0.73569 0.18374 0.58525 0.0
H815 H 0.7415 0.13776 0.59595 0.0
H816 H 0.80328 0.22465 0.60399 0.0
H817 H 0.62963 0.2047 0.5977 0.0
H818 H 0.54921 0.18478 0.6095 0.0
H819 H 0.54883 0.22875 0.67453 0.0
H820 H 0.62965 0.24865 0.66332 0.0
H821 H 0.76937 0.36486 0.6009 0.0
H822 H 0.76392 0.31914 0.5896 0.0
H823 H 0.72276 0.29978 0.66205 0.0
H824 H 0.72783 0.34477 0.67336 0.0
H825 H 0.65886 0.27845 0.62975 0.0
H826 H 0.84045 0.28877 0.6407 0.0
H827 H 0.92313 0.30763 0.63098 0.0
H828 H 0.90916 0.28135 0.55845 0.0
H829 H 0.82606 0.26259 0.56771 0.0
C830 C 0.72831 0.1631 0.6519 0.0
C831 C 0.73474 0.14428 0.63413 0.0
C832 C 0.72442 0.18901 0.64578 0.0
C833 C 0.72738 0.19673 0.62179 0.0
C834 C 0.73321 0.17806 0.60386 0.0
C835 C 0.73622 0.15189 0.60997 0.0
C836 C 0.72644 0.22458 0.61624 0.0
C837 C 0.77123 0.23649 0.60888 0.0
C838 C 0.68476 0.23989 0.62284 0.0
C839 C 0.63585 0.22814 0.62966 0.0
C840 C 0.61257 0.21002 0.61459 0.0
C841 C 0.56688 0.19874 0.62117 0.0
C842 C 0.54393 0.20549 0.64276 0.0
C843 C 0.56662 0.22356 0.6578 0.0
C844 C 0.61234 0.23489 0.65131 0.0
C845 C 0.75968 0.35077 0.61443 0.0
C846 C 0.74864 0.35853 0.63799 0.0
C847 C 0.75645 0.32471 0.60793 0.0
C848 C 0.74238 0.30613 0.62495 0.0
C849 C 0.73296 0.31383 0.64855 0.0
C850 C 0.7361 0.33963 0.655 0.0
C851 C 0.73654 0.27853 0.61877 0.0
C852 C 0.69033 0.26669 0.62395 0.0
C853 C 0.777 0.26335 0.61031 0.0
C854 C 0.82682 0.27462 0.6048 0.0
C855 C 0.85483 0.28723 0.62263 0.0
C856 C 0.9018 0.29785 0.61722 0.0
C857 C 0.9213 0.29578 0.59408 0.0
C858 C 0.89394 0.283 0.57634 0.0
C859 C 0.84693 0.27237 0.58166 0.0
H860 H 0.95767 0.30401 0.58993 0.0
H861 H 0.50856 0.19673 0.64782 0.0
H862 H 0.27697 0.65479 0.83551 0.0
H863 H 0.28391 0.69994 0.84687 0.0
H864 H 0.26702 0.67936 0.92119 0.0
H865 H 0.26107 0.63352 0.90984 0.0
H866 H 0.19878 0.72074 0.90141 0.0
H867 H 0.37195 0.70095 0.91089 0.0
H868 H 0.45317 0.68093 0.90049 0.0
H869 H 0.45824 0.72461 0.83531 0.0
H870 H 0.37667 0.74461 0.8451 0.0
H871 H 0.22922 0.86123 0.902 0.0
H872 H 0.23554 0.81597 0.91479 0.0
H873 H 0.28289 0.79456 0.84373 0.0
H874 H 0.27693 0.83905 0.83093 0.0
H875 H 0.34468 0.77457 0.87779 0.0
H876 H 0.16385 0.78374 0.86304 0.0
H877 H 0.08008 0.80245 0.87075 0.0
H878 H 0.0885 0.77815 0.94409 0.0
H879 H 0.17265 0.75955 0.93684 0.0
C880 C 0.27538 0.65978 0.85431 0.0
C881 C 0.26844 0.64071 0.87181 0.0
C882 C 0.27944 0.68557 0.86078 0.0
C883 C 0.27602 0.69291 0.88485 0.0
C884 C 0.26985 0.67396 0.90253 0.0
C885 C 0.26678 0.64789 0.89605 0.0
C886 C 0.27658 0.7207 0.89065 0.0
C887 C 0.23112 0.73259 0.89706 0.0
C888 C 0.31864 0.73603 0.88469 0.0
C889 C 0.36806 0.72426 0.87875 0.0
C890 C 0.39022 0.70619 0.89427 0.0
C891 C 0.43636 0.69485 0.88849 0.0
C892 C 0.46085 0.70149 0.86725 0.0
C893 C 0.43927 0.71951 0.85177 0.0
C894 C 0.39311 0.7309 0.85746 0.0
C895 C 0.24054 0.84679 0.88909 0.0
C896 C 0.25291 0.85384 0.86548 0.0
C897 C 0.24426 0.821 0.89645 0.0
C898 C 0.26024 0.80197 0.88025 0.0
C899 C 0.27121 0.80896 0.85662 0.0
C900 C 0.26754 0.83449 0.84931 0.0
C901 C 0.26613 0.77459 0.88728 0.0
C902 C 0.31291 0.76281 0.88319 0.0
C903 C 0.22518 0.75942 0.89518 0.0
C904 C 0.17475 0.77061 0.89949 0.0
C905 C 0.148 0.7826 0.88086 0.0
C906 C 0.10043 0.79314 0.88513 0.0
C907 C 0.07906 0.79158 0.90792 0.0
C908 C 0.10516 0.77941 0.92647 0.0
C909 C 0.15278 0.76887 0.92228 0.0
H910 H 0.04222 0.79974 0.9112 0.0
H911 H 0.49655 0.69268 0.8628 0.0
loop_
_geom_bond_atom_site_label_1
_geom_bond_atom_site_label_2
_geom_bond_distance
_geom_bond_site_symmetry_2
_ccdc_geom_bond_type
Mg0 O1 2.028 . S
Mg0 O7 1.986 . S
Mg0 O9 2.114 . S
Mg0 O10 2.251 . S
Mg0 O13 2.010 . S
O1 Mg0 2.028 . S
O1 C4 1.250 . S
O2 Mg3 2.028 . S
O2 C4 1.248 . S
Mg3 O2 2.028 . S
Mg3 O8 2.032 . S
Mg3 O10 2.079 . S
C4 O1 1.250 . S
C4 O2 1.248 . S
C5 O6 1.264 . S
C5 O13 1.249 . S
O6 C5 1.264 . S
O7 Mg0 1.986 . S
O7 C11 1.246 . S
O8 Mg3 2.032 . S
O8 C11 1.259 . S
O9 Mg0 2.114 . S
O9 C12 1.252 . S
O10 Mg0 2.251 . S
O10 Mg3 2.079 . S
O10 C12 1.273 . S
C11 O7 1.246 . S
C11 O8 1.259 . S
C12 O9 1.252 . S
C12 O10 1.273 . S
O13 Mg0 2.010 . S
O13 C5 1.249 . S
Mg14 O15 2.028 . S
Mg14 O21 1.986 . S
Mg14 O23 2.114 . S
Mg14 O24 2.251 . S
Mg14 O27 2.010 . S
O15 Mg14 2.028 . S
O15 C18 1.250 . S
O16 Mg17 2.028 . S
O16 C18 1.248 . S
Mg17 O16 2.028 . S
Mg17 O22 2.032 . S
Mg17 O24 2.079 . S
C18 O15 1.250 . S
C18 O16 1.248 . S
C19 O20 1.264 . S
C19 O27 1.249 . S
O20 C19 1.264 . S
O21 Mg14 1.986 . S
O21 C25 1.246 . S
O22 Mg17 2.032 . S
O22 C25 1.259 . S
O23 Mg14 2.114 . S
O23 C26 1.252 . S
O24 Mg14 2.251 . S
O24 Mg17 2.079 . S
O24 C26 1.273 . S
C25 O21 1.246 . S
C25 O22 1.259 . S
C26 O23 1.252 . S
C26 O24 1.273 . S
O27 Mg14 2.010 . S
O27 C19 1.249 . S
Mg28 O29 2.028 . S
Mg28 O35 1.986 . S
Mg28 O37 2.114 . S
Mg28 O38 2.251 . S
Mg28 O41 2.010 . S
O29 Mg28 2.028 . S
O29 C32 1.250 . S
O30 Mg31 2.028 . S
O30 C32 1.248 . S
Mg31 O30 2.028 . S
Mg31 O36 2.032 . S
Mg31 O38 2.079 . S
C32 O29 1.250 . S
C32 O30 1.248 . S
C33 O34 1.264 . S
C33 O41 1.249 . S
O34 C33 1.264 . S
O35 Mg28 1.986 . S
O35 C39 1.246 . S
O36 Mg31 2.032 . S
O36 C39 1.259 . S
O37 Mg28 2.114 . S
O37 C40 1.252 . S
O38 Mg28 2.251 . S
O38 Mg31 2.079 . S
O38 C40 1.273 . S
C39 O35 1.246 . S
C39 O36 1.259 . S
C40 O37 1.252 . S
C40 O38 1.273 . S
O41 Mg28 2.010 . S
O41 C33 1.249 . S
Mg42 O43 2.028 . S
Mg42 O49 1.986 . S
Mg42 O51 2.114 . S
Mg42 O52 2.251 . S
Mg42 O55 2.010 . S
O43 Mg42 2.028 . S
O43 C46 1.250 . S
O44 Mg45 2.028 . S
O44 C46 1.248 . S
Mg45 O44 2.028 . S
Mg45 O50 2.032 . S
Mg45 O52 2.079 . S
C46 O43 1.250 . S
C46 O44 1.248 . S
C47 O48 1.264 . S
C47 O55 1.249 . S
O48 C47 1.264 . S
O49 Mg42 1.986 . S
O49 C53 1.246 . S
O50 Mg45 2.032 . S
O50 C53 1.259 . S
O51 Mg42 2.114 . S
O51 C54 1.252 . S
O52 Mg42 2.251 . S
O52 Mg45 2.079 . S
O52 C54 1.273 . S
C53 O49 1.246 . S
C53 O50 1.259 . S
C54 O51 1.252 . S
C54 O52 1.273 . S
O55 Mg42 2.010 . S
O55 C47 1.249 . S
Mg56 O57 2.028 . S
Mg56 O63 1.986 . S
Mg56 O65 2.114 . S
Mg56 O66 2.251 . S
Mg56 O69 2.010 . S
O57 Mg56 2.028 . S
O57 C60 1.250 . S
O58 Mg59 2.028 . S
O58 C60 1.248 . S
Mg59 O58 2.028 . S
Mg59 O64 2.032 . S
Mg59 O66 2.079 . S
C60 O57 1.250 . S
C60 O58 1.248 . S
C61 O62 1.264 . S
C61 O69 1.249 . S
O62 C61 1.264 . S
O63 Mg56 1.986 . S
O63 C67 1.246 . S
O64 Mg59 2.032 . S
O64 C67 1.259 . S
O65 Mg56 2.114 . S
O65 C68 1.252 . S
O66 Mg56 2.251 . S
O66 Mg59 2.079 . S
O66 C68 1.273 . S
C67 O63 1.246 . S
C67 O64 1.259 . S
C68 O65 1.252 . S
C68 O66 1.273 . S
O69 Mg56 2.010 . S
O69 C61 1.249 . S
Mg70 O71 2.028 . S
Mg70 O77 1.986 . S
Mg70 O79 2.114 . S
Mg70 O80 2.251 . S
Mg70 O83 2.010 . S
O71 Mg70 2.028 . S
O71 C74 1.250 . S
O72 Mg73 2.028 . S
O72 C74 1.248 . S
Mg73 O72 2.028 . S
Mg73 O78 2.032 . S
Mg73 O80 2.079 . S
C74 O71 1.250 . S
C74 O72 1.248 . S
C75 O76 1.264 . S
C75 O83 1.249 . S
O76 C75 1.264 . S
O77 Mg70 1.986 . S
O77 C81 1.246 . S
O78 Mg73 2.032 . S
O78 C81 1.259 . S
O79 Mg70 2.114 . S
O79 C82 1.252 . S
O80 Mg70 2.251 . S
O80 Mg73 2.079 . S
O80 C82 1.273 . S
C81 O77 1.246 . S
C81 O78 1.259 . S
C82 O79 1.252 . S
C82 O80 1.273 . S
O83 Mg70 2.010 . S
O83 C75 1.249 . S
Mg84 O85 2.028 . S
Mg84 O91 1.986 . S
Mg84 O93 2.114 . S
Mg84 O94 2.251 . S
Mg84 O97 2.010 . S
O85 Mg84 2.028 . S
O85 C88 1.250 . S
O86 Mg87 2.028 . S
O86 C88 1.248 . S
Mg87 O86 2.028 . S
Mg87 O92 2.032 . S
Mg87 O94 2.079 . S
C88 O85 1.250 . S
C88 O86 1.248 . S
C89 O90 1.264 . S
C89 O97 1.249 . S
O90 C89 1.264 . S
O91 Mg84 1.986 . S
O91 C95 1.246 . S
O92 Mg87 2.032 . S
O92 C95 1.259 . S
O93 Mg84 2.114 . S
O93 C96 1.252 . S
O94 Mg84 2.251 . S
O94 Mg87 2.079 . S
O94 C96 1.273 . S
C95 O91 1.246 . S
C95 O92 1.259 . S
C96 O93 1.252 . S
C96 O94 1.273 . S
O97 Mg84 2.010 . S
O97 C89 1.249 . S
Mg98 O99 2.028 . S
Mg98 O105 1.986 . S
Mg98 O107 2.114 . S
Mg98 O108 2.251 . S
Mg98 O111 2.010 . S
O99 Mg98 2.028 . S
O99 C102 1.250 . S
O100 Mg101 2.028 . S
O100 C102 1.248 . S
Mg101 O100 2.028 . S
Mg101 O106 2.032 . S
Mg101 O108 2.079 . S
C102 O99 1.250 . S
C102 O100 1.248 . S
C103 O104 1.264 . S
C103 O111 1.249 . S
O104 C103 1.264 . S
O105 Mg98 1.986 . S
O105 C109 1.246 . S
O106 Mg101 2.032 . S
O106 C109 1.259 . S
O107 Mg98 2.114 . S
O107 C110 1.252 . S
O108 Mg98 2.251 . S
O108 Mg101 2.079 . S
O108 C110 1.273 . S
C109 O105 1.246 . S
C109 O106 1.259 . S
C110 O107 1.252 . S
C110 O108 1.273 . S
O111 Mg98 2.010 . S
O111 C103 1.249 . S
H112 C130 0.951 . S
H113 C132 0.951 . S
H114 C134 0.950 . S
H115 C135 0.950 . S
H116 C137 0.950 . S
H117 C140 0.950 . S
H118 C141 0.950 . S
H119 C143 0.950 . S
H120 C144 0.950 . S
H121 C145 0.951 . S
H122 C147 0.951 . S
H123 C149 0.950 . S
H124 C150 0.950 . S
H125 C152 0.950 . S
H126 C155 0.950 . S
H127 C156 0.950 . S
H128 C158 0.950 . S
H129 C159 0.950 . S
C130 H112 0.951 . S
C130 C131 1.366 . S
C130 C132 1.388 . S
C131 C130 1.366 . S
C131 C135 1.385 . S
C132 H113 0.951 . S
C132 C130 1.388 . S
C132 C133 1.366 . S
C133 C132 1.366 . S
C133 C134 1.414 . S
C133 C136 1.499 . S
C134 H114 0.950 . S
C134 C133 1.414 . S
C134 C135 1.374 . S
C135 H115 0.950 . S
C135 C131 1.385 . S
C135 C134 1.374 . S
C136 C133 1.499 . S
C136 C137 1.373 . S
C136 C138 1.389 . S
C137 H116 0.950 . S
C137 C136 1.373 . S
C137 C153 1.377 . S
C138 C136 1.389 . S
C138 C139 1.524 . S
C138 C152 1.377 . S
C139 C138 1.524 . S
C139 C140 1.397 . S
C139 C144 1.363 . S
C140 H117 0.950 . S
C140 C139 1.397 . S
C140 C141 1.334 . S
C141 H118 0.950 . S
C141 C140 1.334 . S
C141 C142 1.287 . S
C142 C141 1.287 . S
C142 C143 1.524 . S
C142 H161 0.913 . S
C143 H119 0.950 . S
C143 C142 1.524 . S
C143 C144 1.415 . S
C144 H120 0.950 . S
C144 C139 1.363 . S
C144 C143 1.415 . S
C145 H121 0.951 . S
C145 C146 1.366 . S
C145 C147 1.388 . S
C146 C145 1.366 . S
C146 C150 1.385 . S
C147 H122 0.951 . S
C147 C145 1.388 . S
C147 C148 1.366 . S
C148 C147 1.366 . S
C148 C149 1.414 . S
C148 C151 1.499 . S
C149 H123 0.950 . S
C149 C148 1.414 . S
C149 C150 1.374 . S
C150 H124 0.950 . S
C150 C146 1.385 . S
C150 C149 1.374 . S
C151 C148 1.499 . S
C151 C152 1.373 . S
C151 C153 1.389 . S
C152 H125 0.950 . S
C152 C138 1.377 . S
C152 C151 1.373 . S
C153 C137 1.377 . S
C153 C151 1.389 . S
C153 C154 1.524 . S
C154 C153 1.524 . S
C154 C155 1.397 . S
C154 C159 1.363 . S
C155 H126 0.950 . S
C155 C154 1.397 . S
C155 C156 1.334 . S
C156 H127 0.950 . S
C156 C155 1.334 . S
C156 C157 1.287 . S
C157 C156 1.287 . S
C157 C158 1.524 . S
C157 H160 0.999 . S
C158 H128 0.950 . S
C158 C157 1.524 . S
C158 C159 1.415 . S
C159 H129 0.950 . S
C159 C154 1.363 . S
C159 C158 1.415 . S
H160 C157 0.999 . S
H161 C142 0.913 . S
H162 C180 0.951 1_455 S
H163 C182 0.951 . S
H164 C184 0.950 . S
H165 C185 0.950 . S
H166 C187 0.950 . S
H167 C190 0.950 . S
H168 C191 0.950 . S
H169 C193 0.950 . S
H170 C194 0.950 1_545 S
H171 C195 0.951 . S
H172 C197 0.951 . S
H173 C199 0.940 1_545 S
H174 C200 0.950 . S
H175 C202 0.950 . S
H176 C205 0.950 . S
H177 C206 0.950 . S
H178 C208 0.950 . S
H179 C209 0.950 . S
C180 H162 0.951 1_655 S
C180 C181 1.366 . S
C180 C182 1.388 1_655 S
C181 C180 1.366 . S
C181 C185 1.385 . S
C182 H163 0.951 . S
C182 C180 1.388 1_455 S
C182 C183 1.366 . S
C183 C182 1.366 . S
C183 C184 1.414 1_455 S
C183 C186 1.499 . S
C184 H164 0.950 . S
C184 C183 1.414 1_655 S
C184 C185 1.374 . S
C185 H165 0.950 . S
C185 C181 1.385 . S
C185 C184 1.374 . S
C186 C183 1.499 . S
C186 C187 1.373 . S
C186 C188 1.389 . S
C187 H166 0.950 . S
C187 C186 1.373 . S
C187 C203 1.377 . S
C188 C186 1.389 . S
C188 C189 1.524 1_545 S
C188 C202 1.377 1_545 S
C189 C188 1.524 1_565 S
C189 C190 1.397 . S
C189 C194 1.363 . S
C190 H167 0.950 . S
C190 C189 1.397 . S
C190 C191 1.334 . S
C191 H168 0.950 . S
C191 C190 1.334 . S
C191 C192 1.287 . S
C192 C191 1.287 . S
C192 C193 1.524 . S
C192 H211 0.913 . S
C193 H169 0.950 . S
C193 C192 1.524 . S
C193 C194 1.415 . S
C194 H170 0.950 1_565 S
C194 C189 1.363 . S
C194 C193 1.415 . S
C195 H171 0.951 . S
C195 C196 1.366 . S
C195 C197 1.388 . S
C196 C195 1.366 . S
C196 C200 1.385 . S
C197 H172 0.951 . S
C197 C195 1.388 . S
C197 C198 1.366 . S
C198 C197 1.366 . S
C198 C199 1.414 . S
C198 C201 1.492 1_565 S
C199 H173 0.940 1_565 S
C199 C198 1.414 . S
C199 C200 1.374 . S
C200 H174 0.950 . S
C200 C196 1.385 . S
C200 C199 1.374 . S
C201 C198 1.492 1_545 S
C201 C202 1.370 1_545 S
C201 C203 1.398 . S
C202 H175 0.950 . S
C202 C188 1.377 1_565 S
C202 C201 1.370 1_565 S
C203 C187 1.377 . S
C203 C201 1.398 . S
C203 C204 1.524 . S
C204 C203 1.524 . S
C204 C205 1.397 . S
C204 C209 1.363 . S
C205 H176 0.950 . S
C205 C204 1.397 . S
C205 C206 1.334 . S
C206 H177 0.950 . S
C206 C205 1.334 . S
C206 C207 1.287 . S
C207 C206 1.287 . S
C207 C208 1.524 . S
C207 H210 0.999 . S
C208 H178 0.950 . S
C208 C207 1.524 . S
C208 C209 1.415 . S
C209 H179 0.950 . S
C209 C204 1.363 . S
C209 C208 1.415 . S
H210 C207 0.999 . S
H211 C192 0.913 . S
H212 C230 0.951 . S
H213 C232 0.951 . S
H214 C234 0.950 . S
H215 C235 0.950 . S
H216 C237 0.950 . S
H217 C240 0.950 . S
H218 C241 0.950 . S
H219 C243 0.950 . S
H220 C244 0.950 . S
H221 C245 0.951 . S
H222 C247 0.951 . S
H223 C249 0.950 . S
H224 C250 0.950 . S
H225 C252 0.950 . S
H226 C255 0.950 . S
H227 C256 0.950 . S
H228 C258 0.950 . S
H229 C259 0.950 . S
C230 H212 0.951 . S
C230 C231 1.366 . S
C230 C232 1.388 . S
C231 C230 1.366 . S
C231 C235 1.385 . S
C232 H213 0.951 . S
C232 C230 1.388 . S
C232 C233 1.366 . S
C233 C232 1.366 . S
C233 C234 1.414 . S
C233 C236 1.499 . S
C234 H214 0.950 . S
C234 C233 1.414 . S
C234 C235 1.374 . S
C235 H215 0.950 . S
C235 C231 1.385 . S
C235 C234 1.374 . S
C236 C233 1.499 . S
C236 C237 1.373 . S
C236 C238 1.389 . S
C237 H216 0.950 . S
C237 C236 1.373 . S
C237 C253 1.377 . S
C238 C236 1.389 . S
C238 C239 1.524 . S
C238 C252 1.377 . S
C239 C238 1.524 . S
C239 C240 1.397 . S
C239 C244 1.363 . S
C240 H217 0.950 . S
C240 C239 1.397 . S
C240 C241 1.334 . S
C241 H218 0.950 . S
C241 C240 1.334 . S
C241 C242 1.287 . S
C242 C241 1.287 . S
C242 C243 1.524 . S
C242 H261 0.913 . S
C243 H219 0.950 . S
C243 C242 1.524 . S
C243 C244 1.415 . S
C244 H220 0.950 . S
C244 C239 1.363 . S
C244 C243 1.415 . S
C245 H221 0.951 . S
C245 C246 1.366 . S
C245 C247 1.388 . S
C246 C245 1.366 . S
C246 C250 1.385 . S
C247 H222 0.951 . S
C247 C245 1.388 . S
C247 C248 1.366 1_455 S
C248 C247 1.366 1_655 S
C248 C249 1.414 . S
C248 C251 1.499 . S
C249 H223 0.950 . S
C249 C248 1.414 . S
C249 C250 1.374 1_655 S
C250 H224 0.950 . S
C250 C246 1.385 . S
C250 C249 1.374 1_455 S
C251 C248 1.499 . S
C251 C252 1.373 . S
C251 C253 1.389 . S
C252 H225 0.950 . S
C252 C238 1.377 . S
C252 C251 1.373 . S
C253 C237 1.377 . S
C253 C251 1.389 . S
C253 C254 1.524 . S
C254 C253 1.524 . S
C254 C255 1.397 . S
C254 C259 1.363 . S
C255 H226 0.950 . S
C255 C254 1.397 . S
C255 C256 1.334 . S
C256 H227 0.950 . S
C256 C255 1.334 . S
C256 C257 1.287 . S
C257 C256 1.287 . S
C257 C258 1.524 . S
C257 H260 0.999 . S
C258 H228 0.950 . S
C258 C257 1.524 . S
C258 C259 1.415 . S
C259 H229 0.950 . S
C259 C254 1.363 . S
C259 C258 1.415 . S
H260 C257 0.999 . S
H261 C242 0.913 . S
H262 C280 0.951 . S
H263 C282 0.953 . S
H264 C284 0.950 . S
H265 C285 0.950 . S
H266 C287 0.950 . S
H267 C290 0.950 . S
H268 C291 0.950 . S
H269 C293 0.950 . S
H270 C294 0.950 . S
H271 C295 0.951 . S
H272 C297 0.951 . S
H273 C299 0.950 . S
H274 C300 0.950 . S
H275 C302 0.950 . S
H276 C305 0.950 . S
H277 C306 0.950 . S
H278 C308 0.950 . S
H279 C309 0.950 . S
C280 H262 0.951 . S
C280 C281 1.366 . S
C280 C282 1.388 . S
C281 C280 1.366 . S
C281 C285 1.385 . S
C282 H263 0.953 . S
C282 C280 1.388 . S
C282 C283 1.366 . S
C283 C282 1.366 . S
C283 C284 1.414 . S
C283 C286 1.500 . S
C284 H264 0.950 . S
C284 C283 1.414 . S
C284 C285 1.374 . S
C285 H265 0.950 . S
C285 C281 1.385 . S
C285 C284 1.374 . S
C286 C283 1.500 . S
C286 C287 1.375 . S
C286 C288 1.387 1_545 S
C287 H266 0.950 . S
C287 C286 1.375 . S
C287 C303 1.377 . S
C288 C286 1.387 1_565 S
C288 C289 1.524 . S
C288 C302 1.377 . S
C289 C288 1.524 . S
C289 C290 1.397 . S
C289 C294 1.363 . S
C290 H267 0.950 . S
C290 C289 1.397 . S
C290 C291 1.334 . S
C291 H268 0.950 . S
C291 C290 1.334 . S
C291 C292 1.287 . S
C292 C291 1.287 . S
C292 C293 1.524 . S
C292 H311 0.913 . S
C293 H269 0.950 . S
C293 C292 1.524 . S
C293 C294 1.415 . S
C294 H270 0.950 . S
C294 C289 1.363 . S
C294 C293 1.415 . S
C295 H271 0.951 . S
C295 C296 1.366 . S
C295 C297 1.388 . S
C296 C295 1.366 . S
C296 C300 1.385 . S
C297 H272 0.951 . S
C297 C295 1.388 . S
C297 C298 1.366 . S
C298 C297 1.366 . S
C298 C299 1.414 . S
C298 C301 1.499 . S
C299 H273 0.950 . S
C299 C298 1.414 . S
C299 C300 1.374 . S
C300 H274 0.950 . S
C300 C296 1.385 . S
C300 C299 1.374 . S
C301 C298 1.499 . S
C301 C302 1.373 . S
C301 C303 1.389 1_565 S
C302 H275 0.950 . S
C302 C288 1.377 . S
C302 C301 1.373 . S
C303 C287 1.377 . S
C303 C301 1.389 1_545 S
C303 C304 1.524 . S
C304 C303 1.524 . S
C304 C305 1.397 . S
C304 C309 1.363 . S
C305 H276 0.950 . S
C305 C304 1.397 . S
C305 C306 1.334 . S
C306 H277 0.950 . S
C306 C305 1.334 . S
C306 C307 1.287 . S
C307 C306 1.287 . S
C307 C308 1.524 . S
C307 H310 0.999 . S
C308 H278 0.950 . S
C308 C307 1.524 . S
C308 C309 1.415 . S
C309 H279 0.950 . S
C309 C304 1.363 . S
C309 C308 1.415 . S
H310 C307 0.999 . S
H311 C292 0.913 . S
H312 C330 0.951 . S
H313 C332 0.951 . S
H314 C334 0.950 . S
H315 C335 0.950 . S
H316 C337 0.950 . S
H317 C340 0.950 . S
H318 C341 0.950 . S
H319 C343 0.950 . S
H320 C344 0.950 . S
H321 C345 0.951 . S
H322 C347 0.951 . S
H323 C349 0.950 . S
H324 C350 0.950 . S
H325 C352 0.950 . S
H326 C355 0.950 . S
H327 C356 0.950 . S
H328 C358 0.950 . S
H329 C359 0.950 . S
C330 H312 0.951 . S
C330 C331 1.366 . S
C330 C332 1.388 . S
C331 C330 1.366 . S
C331 C335 1.385 . S
C332 H313 0.951 . S
C332 C330 1.388 . S
C332 C333 1.366 . S
C333 C332 1.366 . S
C333 C334 1.414 . S
C333 C336 1.499 . S
C334 H314 0.950 . S
C334 C333 1.414 . S
C334 C335 1.374 . S
C335 H315 0.950 . S
C335 C331 1.385 . S
C335 C334 1.374 . S
C336 C333 1.499 . S
C336 C337 1.373 . S
C336 C338 1.389 . S
C337 H316 0.950 . S
C337 C336 1.373 . S
C337 C353 1.377 . S
C338 C336 1.389 . S
C338 C339 1.524 . S
C338 C352 1.377 . S
C339 C338 1.524 . S
C339 C340 1.397 . S
C339 C344 1.363 . S
C340 H317 0.950 . S
C340 C339 1.397 . S
C340 C341 1.334 . S
C341 H318 0.950 . S
C341 C340 1.334 . S
C341 C342 1.287 . S
C342 C341 1.287 . S
C342 C343 1.524 . S
C342 H361 0.913 . S
C343 H319 0.950 . S
C343 C342 1.524 . S
C343 C344 1.415 . S
C344 H320 0.950 . S
C344 C339 1.363 . S
C344 C343 1.415 . S
C345 H321 0.951 . S
C345 C346 1.366 . S
C345 C347 1.388 . S
C346 C345 1.366 . S
C346 C350 1.385 . S
C347 H322 0.951 . S
C347 C345 1.388 . S
C347 C348 1.366 . S
C348 C347 1.366 . S
C348 C349 1.414 . S
C348 C351 1.499 . S
C349 H323 0.950 . S
C349 C348 1.414 . S
C349 C350 1.374 . S
C350 H324 0.950 . S
C350 C346 1.385 . S
C350 C349 1.374 . S
C351 C348 1.499 . S
C351 C352 1.373 . S
C351 C353 1.389 . S
C352 H325 0.950 . S
C352 C338 1.377 . S
C352 C351 1.373 . S
C353 C337 1.377 . S
C353 C351 1.389 . S
C353 C354 1.524 . S
C354 C353 1.524 . S
C354 C355 1.397 . S
C354 C359 1.363 . S
C355 H326 0.950 . S
C355 C354 1.397 . S
C355 C356 1.334 . S
C356 H327 0.950 . S
C356 C355 1.334 . S
C356 C357 1.287 . S
C357 C356 1.287 . S
C357 C358 1.524 . S
C357 H360 0.999 . S
C358 H328 0.950 . S
C358 C357 1.524 . S
C358 C359 1.415 . S
C359 H329 0.950 . S
C359 C354 1.363 . S
C359 C358 1.415 . S
H360 C357 0.999 . S
H361 C342 0.913 . S
H362 C380 0.951 . S
H363 C382 0.951 . S
H364 C384 0.950 . S
H365 C385 0.950 1_565 S
H366 C387 0.950 . S
H367 C390 0.950 . S
H368 C391 0.950 1_565 S
H369 C393 0.949 . S
H370 C394 0.950 . S
H371 C395 0.951 . S
H372 C397 0.951 . S
H373 C399 0.950 1_545 S
H374 C400 0.950 . S
H375 C402 0.950 . S
H376 C405 0.950 . S
H377 C406 0.950 . S
H378 C408 0.950 . S
H379 C409 0.950 . S
C380 H362 0.951 . S
C380 C381 1.366 . S
C380 C382 1.388 . S
C381 C380 1.366 . S
C381 C385 1.385 . S
C382 H363 0.951 . S
C382 C380 1.388 . S
C382 C383 1.366 . S
C383 C382 1.366 . S
C383 C384 1.414 1_545 S
C383 C386 1.497 1_545 S
C384 H364 0.950 . S
C384 C383 1.414 1_565 S
C384 C385 1.374 1_565 S
C385 H365 0.950 1_545 S
C385 C381 1.385 . S
C385 C384 1.374 1_545 S
C386 C383 1.497 1_565 S
C386 C387 1.374 . S
C386 C388 1.389 1_565 S
C387 H366 0.950 . S
C387 C386 1.374 . S
C387 C403 1.377 . S
C388 C386 1.389 1_545 S
C388 C389 1.531 . S
C388 C402 1.369 1_545 S
C389 C388 1.531 . S
C389 C390 1.397 1_545 S
C389 C394 1.363 . S
C390 H367 0.950 . S
C390 C389 1.397 1_565 S
C390 C391 1.334 1_565 S
C391 H368 0.950 1_545 S
C391 C390 1.334 1_545 S
C391 C392 1.287 . S
C392 C391 1.287 . S
C392 C393 1.524 1_655 S
C392 H411 0.913 . S
C393 H369 0.949 . S
C393 C392 1.524 1_455 S
C393 C394 1.415 1_455 S
C394 H370 0.950 . S
C394 C389 1.363 . S
C394 C393 1.415 1_655 S
C395 H371 0.951 . S
C395 C396 1.366 . S
C395 C397 1.388 1_455 S
C396 C395 1.366 . S
C396 C400 1.385 . S
C397 H372 0.951 . S
C397 C395 1.388 1_655 S
C397 C398 1.366 . S
C398 C397 1.366 . S
C398 C399 1.414 1_655 S
C398 C401 1.499 . S
C399 H373 0.950 1_565 S
C399 C398 1.414 1_455 S
C399 C400 1.374 . S
C400 H374 0.950 . S
C400 C396 1.385 . S
C400 C399 1.374 . S
C401 C398 1.499 . S
C401 C402 1.373 . S
C401 C403 1.389 . S
C402 H375 0.950 . S
C402 C388 1.369 1_565 S
C402 C401 1.373 . S
C403 C387 1.377 . S
C403 C401 1.389 . S
C403 C404 1.524 . S
C404 C403 1.524 . S
C404 C405 1.397 . S
C404 C409 1.363 . S
C405 H376 0.950 . S
C405 C404 1.397 . S
C405 C406 1.334 . S
C406 H377 0.950 . S
C406 C405 1.334 . S
C406 C407 1.287 . S
C407 C406 1.287 . S
C407 C408 1.524 . S
C407 H410 0.999 . S
C408 H378 0.950 . S
C408 C407 1.524 . S
C408 C409 1.415 . S
C409 H379 0.950 . S
C409 C404 1.363 . S
C409 C408 1.415 . S
H410 C407 0.999 . S
H411 C392 0.913 . S
H412 C430 0.951 . S
H413 C432 0.951 . S
H414 C434 0.950 . S
H415 C435 0.950 . S
H416 C437 0.950 . S
H417 C440 0.950 . S
H418 C441 0.950 . S
H419 C443 0.950 . S
H420 C444 0.950 . S
H421 C445 0.951 . S
H422 C447 0.951 . S
H423 C449 0.950 . S
H424 C450 0.950 . S
H425 C452 0.950 . S
H426 C455 0.950 . S
H427 C456 0.950 . S
H428 C458 0.950 . S
H429 C459 0.950 . S
C430 H412 0.951 . S
C430 C431 1.366 . S
C430 C432 1.388 . S
C431 C430 1.366 . S
C431 C435 1.385 . S
C432 H413 0.951 . S
C432 C430 1.388 . S
C432 C433 1.366 . S
C433 C432 1.366 . S
C433 C434 1.414 . S
C433 C436 1.499 . S
C434 H414 0.950 . S
C434 C433 1.414 . S
C434 C435 1.374 . S
C435 H415 0.950 . S
C435 C431 1.385 . S
C435 C434 1.374 . S
C436 C433 1.499 . S
C436 C437 1.373 . S
C436 C438 1.389 . S
C437 H416 0.950 . S
C437 C436 1.373 . S
C437 C453 1.377 . S
C438 C436 1.389 . S
C438 C439 1.524 . S
C438 C452 1.377 . S
C439 C438 1.524 . S
C439 C440 1.397 . S
C439 C444 1.363 . S
C440 H417 0.950 . S
C440 C439 1.397 . S
C440 C441 1.334 . S
C441 H418 0.950 . S
C441 C440 1.334 . S
C441 C442 1.287 . S
C442 C441 1.287 . S
C442 C443 1.524 . S
C442 H461 0.913 . S
C443 H419 0.950 . S
C443 C442 1.524 . S
C443 C444 1.415 . S
C444 H420 0.950 . S
C444 C439 1.363 . S
C444 C443 1.415 . S
C445 H421 0.951 . S
C445 C446 1.366 . S
C445 C447 1.388 . S
C446 C445 1.366 . S
C446 C450 1.385 . S
C447 H422 0.951 . S
C447 C445 1.388 . S
C447 C448 1.366 1_655 S
C448 C447 1.366 1_455 S
C448 C449 1.414 . S
C448 C451 1.499 . S
C449 H423 0.950 . S
C449 C448 1.414 . S
C449 C450 1.374 1_455 S
C450 H424 0.950 . S
C450 C446 1.385 . S
C450 C449 1.374 1_655 S
C451 C448 1.499 . S
C451 C452 1.373 . S
C451 C453 1.389 . S
C452 H425 0.950 . S
C452 C438 1.377 . S
C452 C451 1.373 . S
C453 C437 1.377 . S
C453 C451 1.389 . S
C453 C454 1.524 . S
C454 C453 1.524 . S
C454 C455 1.397 . S
C454 C459 1.363 . S
C455 H426 0.950 . S
C455 C454 1.397 . S
C455 C456 1.334 . S
C456 H427 0.950 . S
C456 C455 1.334 . S
C456 C457 1.287 . S
C457 C456 1.287 . S
C457 C458 1.524 . S
C457 H460 0.999 . S
C458 H428 0.950 . S
C458 C457 1.524 . S
C458 C459 1.415 . S
C459 H429 0.950 . S
C459 C454 1.363 . S
C459 C458 1.415 . S
H460 C457 0.999 . S
H461 C442 0.913 . S
H462 C480 0.951 . S
H463 C482 0.951 . S
H464 C484 0.950 . S
H465 C485 0.950 . S
H466 C487 0.950 . S
H467 C490 0.950 . S
H468 C491 0.950 . S
H469 C493 0.950 . S
H470 C494 0.950 . S
H471 C495 0.951 . S
H472 C497 0.951 . S
H473 C499 0.950 . S
H474 C500 0.950 . S
H475 C502 0.950 . S
H476 C505 0.950 . S
H477 C506 0.950 . S
H478 C508 0.950 . S
H479 C509 0.950 . S
C480 H462 0.951 . S
C480 C481 1.366 . S
C480 C482 1.388 . S
C481 C480 1.366 . S
C481 C485 1.385 . S
C482 H463 0.951 . S
C482 C480 1.388 . S
C482 C483 1.366 . S
C483 C482 1.366 . S
C483 C484 1.414 . S
C483 C486 1.497 1_565 S
C484 H464 0.950 . S
C484 C483 1.414 . S
C484 C485 1.374 . S
C485 H465 0.950 . S
C485 C481 1.385 . S
C485 C484 1.374 . S
C486 C483 1.497 1_545 S
C486 C487 1.371 1_545 S
C486 C488 1.393 . S
C487 H466 0.950 . S
C487 C486 1.371 1_565 S
C487 C503 1.377 . S
C488 C486 1.393 . S
C488 C489 1.524 . S
C488 C502 1.377 . S
C489 C488 1.524 . S
C489 C490 1.397 . S
C489 C494 1.363 . S
C490 H467 0.950 . S
C490 C489 1.397 . S
C490 C491 1.334 . S
C491 H468 0.950 . S
C491 C490 1.334 . S
C491 C492 1.287 . S
C492 C491 1.287 . S
C492 C493 1.524 . S
C492 H511 0.913 . S
C493 H469 0.950 . S
C493 C492 1.524 . S
C493 C494 1.415 . S
C494 H470 0.950 . S
C494 C489 1.363 . S
C494 C493 1.415 . S
C495 H471 0.951 . S
C495 C496 1.366 . S
C495 C497 1.388 . S
C496 C495 1.366 . S
C496 C500 1.385 . S
C497 H472 0.951 . S
C497 C495 1.388 . S
C497 C498 1.366 . S
C498 C497 1.366 . S
C498 C499 1.414 . S
C498 C501 1.499 . S
C499 H473 0.950 . S
C499 C498 1.414 . S
C499 C500 1.374 . S
C500 H474 0.950 . S
C500 C496 1.385 . S
C500 C499 1.374 . S
C501 C498 1.499 . S
C501 C502 1.373 . S
C501 C503 1.389 1_545 S
C502 H475 0.950 . S
C502 C488 1.377 . S
C502 C501 1.373 . S
C503 C487 1.377 . S
C503 C501 1.389 1_565 S
C503 C504 1.524 . S
C504 C503 1.524 . S
C504 C505 1.397 . S
C504 C509 1.363 . S
C505 H476 0.950 . S
C505 C504 1.397 . S
C505 C506 1.334 . S
C506 H477 0.950 . S
C506 C505 1.334 . S
C506 C507 1.287 . S
C507 C506 1.287 . S
C507 C508 1.524 . S
C507 H510 0.999 . S
C508 H478 0.950 . S
C508 C507 1.524 . S
C508 C509 1.415 . S
C509 H479 0.950 . S
C509 C504 1.363 . S
C509 C508 1.415 . S
H510 C507 0.999 . S
H511 C492 0.913 . S
H512 C530 0.951 . S
H513 C532 0.951 . S
H514 C534 0.950 . S
H515 C535 0.950 . S
H516 C537 0.950 . S
H517 C540 0.950 . S
H518 C541 0.950 . S
H519 C543 0.950 . S
H520 C544 0.950 . S
H521 C545 0.951 . S
H522 C547 0.951 . S
H523 C549 0.950 . S
H524 C550 0.950 . S
H525 C552 0.950 . S
H526 C555 0.950 . S
H527 C556 0.950 . S
H528 C558 0.950 . S
H529 C559 0.950 . S
C530 H512 0.951 . S
C530 C531 1.366 . S
C530 C532 1.388 . S
C531 C530 1.366 . S
C531 C535 1.385 . S
C532 H513 0.951 . S
C532 C530 1.388 . S
C532 C533 1.366 . S
C533 C532 1.366 . S
C533 C534 1.414 . S
C533 C536 1.499 . S
C534 H514 0.950 . S
C534 C533 1.414 . S
C534 C535 1.374 . S
C535 H515 0.950 . S
C535 C531 1.385 . S
C535 C534 1.374 . S
C536 C533 1.499 . S
C536 C537 1.373 1_455 S
C536 C538 1.389 . S
C537 H516 0.950 . S
C537 C536 1.373 1_655 S
C537 C553 1.377 . S
C538 C536 1.389 . S
C538 C539 1.524 . S
C538 C552 1.377 . S
C539 C538 1.524 . S
C539 C540 1.397 . S
C539 C544 1.363 . S
C540 H517 0.950 . S
C540 C539 1.397 . S
C540 C541 1.334 . S
C541 H518 0.950 . S
C541 C540 1.334 . S
C541 C542 1.287 . S
C542 C541 1.287 . S
C542 C543 1.524 . S
C542 H561 0.913 . S
C543 H519 0.950 . S
C543 C542 1.524 . S
C543 C544 1.415 . S
C544 H520 0.950 . S
C544 C539 1.363 . S
C544 C543 1.415 . S
C545 H521 0.951 . S
C545 C546 1.366 . S
C545 C547 1.388 . S
C546 C545 1.366 . S
C546 C550 1.385 . S
C547 H522 0.951 . S
C547 C545 1.388 . S
C547 C548 1.366 . S
C548 C547 1.366 . S
C548 C549 1.414 . S
C548 C551 1.499 . S
C549 H523 0.950 . S
C549 C548 1.414 . S
C549 C550 1.374 . S
C550 H524 0.950 . S
C550 C546 1.385 . S
C550 C549 1.374 . S
C551 C548 1.499 . S
C551 C552 1.373 1_655 S
C551 C553 1.389 . S
C552 H525 0.950 . S
C552 C538 1.377 . S
C552 C551 1.373 1_455 S
C553 C537 1.377 . S
C553 C551 1.389 . S
C553 C554 1.524 . S
C554 C553 1.524 . S
C554 C555 1.397 . S
C554 C559 1.363 . S
C555 H526 0.950 . S
C555 C554 1.397 . S
C555 C556 1.334 . S
C556 H527 0.950 . S
C556 C555 1.334 . S
C556 C557 1.287 . S
C557 C556 1.287 . S
C557 C558 1.524 . S
C557 H560 0.999 . S
C558 H528 0.950 . S
C558 C557 1.524 . S
C558 C559 1.415 . S
C559 H529 0.950 . S
C559 C554 1.363 . S
C559 C558 1.415 . S
H560 C557 0.999 . S
H561 C542 0.913 . S
H562 C580 0.951 1_545 S
H563 C582 0.951 1_545 S
H564 C584 0.950 . S
H565 C585 0.950 . S
H566 C587 0.950 . S
H567 C590 0.950 . S
H568 C591 0.950 . S
H569 C593 0.950 . S
H570 C594 0.950 . S
H571 C595 0.951 1_565 S
H572 C597 0.951 1_565 S
H573 C599 0.950 . S
H574 C600 0.950 . S
H575 C602 0.950 . S
H576 C605 0.950 . S
H577 C606 0.950 . S
H578 C608 0.950 . S
H579 C609 0.950 . S
C580 H562 0.951 1_565 S
C580 C581 1.366 . S
C580 C582 1.388 . S
C581 C580 1.366 . S
C581 C585 1.385 . S
C582 H563 0.951 1_565 S
C582 C580 1.388 . S
C582 C583 1.366 . S
C583 C582 1.366 . S
C583 C584 1.414 . S
C583 C586 1.499 . S
C584 H564 0.950 . S
C584 C583 1.414 . S
C584 C585 1.374 . S
C585 H565 0.950 . S
C585 C581 1.385 . S
C585 C584 1.374 . S
C586 C583 1.499 . S
C586 C587 1.373 . S
C586 C588 1.389 1_565 S
C587 H566 0.950 . S
C587 C586 1.373 . S
C587 C603 1.377 . S
C588 C586 1.389 1_545 S
C588 C589 1.524 . S
C588 C602 1.377 . S
C589 C588 1.524 . S
C589 C590 1.397 1_545 S
C589 C594 1.363 . S
C590 H567 0.950 . S
C590 C589 1.397 1_565 S
C590 C591 1.334 . S
C591 H568 0.950 . S
C591 C590 1.334 . S
C591 C592 1.287 . S
C592 C591 1.287 . S
C592 C593 1.524 1_565 S
C592 H611 0.913 . S
C593 H569 0.950 . S
C593 C592 1.524 1_545 S
C593 C594 1.415 . S
C594 H570 0.950 . S
C594 C589 1.363 . S
C594 C593 1.415 . S
C595 H571 0.951 1_545 S
C595 C596 1.366 . S
C595 C597 1.388 . S
C596 C595 1.366 . S
C596 C600 1.385 . S
C597 H572 0.951 1_545 S
C597 C595 1.388 . S
C597 C598 1.366 . S
C598 C597 1.366 . S
C598 C599 1.414 . S
C598 C601 1.499 . S
C599 H573 0.950 . S
C599 C598 1.414 . S
C599 C600 1.374 . S
C600 H574 0.950 . S
C600 C596 1.385 . S
C600 C599 1.374 . S
C601 C598 1.499 . S
C601 C602 1.373 . S
C601 C603 1.389 1_545 S
C602 H575 0.950 . S
C602 C588 1.377 . S
C602 C601 1.373 . S
C603 C587 1.377 . S
C603 C601 1.389 1_565 S
C603 C604 1.524 . S
C604 C603 1.524 . S
C604 C605 1.397 1_565 S
C604 C609 1.363 . S
C605 H576 0.950 . S
C605 C604 1.397 1_545 S
C605 C606 1.334 . S
C606 H577 0.950 . S
C606 C605 1.334 . S
C606 C607 1.287 . S
C607 C606 1.287 . S
C607 C608 1.524 1_545 S
C607 H610 0.999 . S
C608 H578 0.950 . S
C608 C607 1.524 1_565 S
C608 C609 1.415 . S
C609 H579 0.950 . S
C609 C604 1.363 . S
C609 C608 1.415 . S
H610 C607 0.999 . S
H611 C592 0.913 . S
H612 C630 0.951 . S
H613 C632 0.951 . S
H614 C634 0.950 . S
H615 C635 0.950 . S
H616 C637 0.950 . S
H617 C640 0.950 . S
H618 C641 0.950 . S
H619 C643 0.950 . S
H620 C644 0.950 . S
H621 C645 0.951 . S
H622 C647 0.951 . S
H623 C649 0.950 . S
H624 C650 0.950 . S
H625 C652 0.950 . S
H626 C655 0.950 . S
H627 C656 0.950 . S
H628 C658 0.950 . S
H629 C659 0.950 . S
C630 H612 0.951 . S
C630 C631 1.366 . S
C630 C632 1.388 . S
C631 C630 1.366 . S
C631 C635 1.385 . S
C632 H613 0.951 . S
C632 C630 1.388 . S
C632 C633 1.366 . S
C633 C632 1.366 . S
C633 C634 1.414 . S
C633 C636 1.499 . S
C634 H614 0.950 . S
C634 C633 1.414 . S
C634 C635 1.374 . S
C635 H615 0.950 . S
C635 C631 1.385 . S
C635 C634 1.374 . S
C636 C633 1.499 . S
C636 C637 1.373 . S
C636 C638 1.385 1_554 S
C637 H616 0.950 . S
C637 C636 1.373 . S
C637 C653 1.381 . S
C638 C636 1.385 1_556 S
C638 C639 1.525 . S
C638 C652 1.381 . S
C639 C638 1.525 . S
C639 C640 1.397 1_556 S
C639 C644 1.363 . S
C640 H617 0.950 . S
C640 C639 1.397 1_554 S
C640 C641 1.334 . S
C641 H618 0.950 . S
C641 C640 1.334 . S
C641 C642 1.287 1_554 S
C642 C641 1.287 1_556 S
C642 C643 1.524 . S
C642 H661 0.913 . S
C643 H619 0.950 . S
C643 C642 1.524 . S
C643 C644 1.415 . S
C644 H620 0.950 . S
C644 C639 1.363 . S
C644 C643 1.415 . S
C645 H621 0.951 . S
C645 C646 1.366 . S
C645 C647 1.388 . S
C646 C645 1.366 . S
C646 C650 1.385 . S
C647 H622 0.951 . S
C647 C645 1.388 . S
C647 C648 1.366 . S
C648 C647 1.366 . S
C648 C649 1.414 . S
C648 C651 1.499 . S
C649 H623 0.950 . S
C649 C648 1.414 . S
C649 C650 1.374 . S
C650 H624 0.950 . S
C650 C646 1.385 . S
C650 C649 1.374 . S
C651 C648 1.499 . S
C651 C652 1.373 . S
C651 C653 1.385 1_556 S
C652 H625 0.950 . S
C652 C638 1.381 . S
C652 C651 1.373 . S
C653 C637 1.381 . S
C653 C651 1.385 1_554 S
C653 C654 1.525 . S
C654 C653 1.525 . S
C654 C655 1.397 1_554 S
C654 C659 1.363 . S
C655 H626 0.950 . S
C655 C654 1.397 1_556 S
C655 C656 1.334 . S
C656 H627 0.950 . S
C656 C655 1.334 . S
C656 C657 1.287 1_556 S
C657 C656 1.287 1_554 S
C657 C658 1.524 . S
C657 H660 0.999 . S
C658 H628 0.950 . S
C658 C657 1.524 . S
C658 C659 1.415 . S
C659 H629 0.950 . S
C659 C654 1.363 . S
C659 C658 1.415 . S
H660 C657 0.999 . S
H661 C642 0.913 . S
H662 C680 0.951 . S
H663 C682 0.951 . S
H664 C684 0.988 . S
H665 C685 0.950 1_545 S
H666 C687 0.950 . S
H667 C690 0.950 . S
H668 C691 0.950 . S
H669 C693 0.950 . S
H670 C694 0.913 1_554 S
H671 C695 0.951 . S
H672 C697 0.951 . S
H673 C699 0.988 . S
H674 C700 0.950 1_565 S
H675 C702 0.950 . S
H676 C705 0.950 . S
H677 C706 0.950 . S
H678 C708 0.950 . S
H679 C709 0.913 1_556 S
C680 H662 0.951 . S
C680 C681 1.366 . S
C680 C682 1.388 . S
C681 C680 1.366 . S
C681 C685 1.385 . S
C682 H663 0.951 . S
C682 C680 1.388 . S
C682 C683 1.366 . S
C683 C682 1.366 . S
C683 C684 1.389 1_565 S
C683 C686 1.499 . S
C684 H664 0.988 . S
C684 C683 1.389 1_545 S
C684 C685 1.362 1_545 S
C685 H665 0.950 1_565 S
C685 C681 1.385 . S
C685 C684 1.362 1_565 S
C686 C683 1.499 . S
C686 C687 1.373 1_565 S
C686 C688 1.389 1_455 S
C687 H666 0.950 . S
C687 C686 1.373 1_545 S
C687 C703 1.377 1_556 S
C688 C686 1.389 1_655 S
C688 C689 1.524 . S
C688 C702 1.377 1_556 S
C689 C688 1.524 . S
C689 C690 1.397 . S
C689 C694 1.363 . S
C690 H667 0.950 . S
C690 C689 1.397 . S
C690 C691 1.334 . S
C691 H668 0.950 . S
C691 C690 1.334 . S
C691 C692 1.287 . S
C692 C691 1.287 . S
C692 C693 1.524 . S
C692 H711 0.913 . S
C693 H669 0.950 . S
C693 C692 1.524 . S
C693 C694 1.415 . S
C694 H670 0.913 1_556 S
C694 C689 1.363 . S
C694 C693 1.415 . S
C695 H671 0.951 . S
C695 C696 1.366 . S
C695 C697 1.388 . S
C696 C695 1.366 . S
C696 C700 1.385 . S
C697 H672 0.951 . S
C697 C695 1.388 . S
C697 C698 1.366 . S
C698 C697 1.366 . S
C698 C699 1.389 1_545 S
C698 C701 1.499 . S
C699 H673 0.988 . S
C699 C698 1.389 1_565 S
C699 C700 1.362 1_565 S
C700 H674 0.950 1_545 S
C700 C696 1.385 . S
C700 C699 1.362 1_545 S
C701 C698 1.499 . S
C701 C702 1.373 1_545 S
C701 C703 1.389 1_655 S
C702 H675 0.950 . S
C702 C688 1.377 1_554 S
C702 C701 1.373 1_565 S
C703 C687 1.377 1_554 S
C703 C701 1.389 1_455 S
C703 C704 1.524 . S
C704 C703 1.524 . S
C704 C705 1.397 . S
C704 C709 1.363 . S
C705 H676 0.950 . S
C705 C704 1.397 . S
C705 C706 1.334 . S
C706 H677 0.950 . S
C706 C705 1.334 . S
C706 C707 1.287 . S
C707 C706 1.287 . S
C707 C708 1.524 . S
C707 H710 0.999 . S
C708 H678 0.950 . S
C708 C707 1.524 . S
C708 C709 1.415 . S
C709 H679 0.913 1_554 S
C709 C704 1.363 . S
C709 C708 1.415 . S
H710 C707 0.999 . S
H711 C692 0.913 . S
H712 C730 0.951 . S
H713 C732 0.951 . S
H714 C734 0.950 . S
H715 C735 0.950 . S
H716 C737 0.950 . S
H717 C740 0.950 . S
H718 C741 0.950 . S
H719 C743 0.950 . S
H720 C744 0.950 . S
H721 C745 0.951 . S
H722 C747 0.951 . S
H723 C749 0.950 . S
H724 C750 0.950 . S
H725 C752 0.950 . S
H726 C755 0.950 . S
H727 C756 0.950 . S
H728 C758 0.950 . S
H729 C759 0.950 . S
C730 H712 0.951 . S
C730 C731 1.366 . S
C730 C732 1.388 . S
C731 C730 1.366 . S
C731 C735 1.385 . S
C732 H713 0.951 . S
C732 C730 1.388 . S
C732 C733 1.366 . S
C733 C732 1.366 . S
C733 C734 1.414 . S
C733 C736 1.499 . S
C734 H714 0.950 . S
C734 C733 1.414 . S
C734 C735 1.374 . S
C735 H715 0.950 . S
C735 C731 1.385 . S
C735 C734 1.374 . S
C736 C733 1.499 . S
C736 C737 1.373 . S
C736 C738 1.389 . S
C737 H716 0.950 . S
C737 C736 1.373 . S
C737 C753 1.377 . S
C738 C736 1.389 . S
C738 C739 1.524 . S
C738 C752 1.377 . S
C739 C738 1.524 . S
C739 C740 1.397 . S
C739 C744 1.363 . S
C740 H717 0.950 . S
C740 C739 1.397 . S
C740 C741 1.334 . S
C741 H718 0.950 . S
C741 C740 1.334 . S
C741 C742 1.287 . S
C742 C741 1.287 . S
C742 C743 1.524 . S
C742 H761 0.913 . S
C743 H719 0.950 . S
C743 C742 1.524 . S
C743 C744 1.415 . S
C744 H720 0.950 . S
C744 C739 1.363 . S
C744 C743 1.415 . S
C745 H721 0.951 . S
C745 C746 1.366 . S
C745 C747 1.388 . S
C746 C745 1.366 . S
C746 C750 1.385 . S
C747 H722 0.951 . S
C747 C745 1.388 . S
C747 C748 1.366 . S
C748 C747 1.366 . S
C748 C749 1.414 . S
C748 C751 1.499 . S
C749 H723 0.950 . S
C749 C748 1.414 . S
C749 C750 1.374 . S
C750 H724 0.950 . S
C750 C746 1.385 . S
C750 C749 1.374 . S
C751 C748 1.499 . S
C751 C752 1.373 . S
C751 C753 1.389 . S
C752 H725 0.950 . S
C752 C738 1.377 . S
C752 C751 1.373 . S
C753 C737 1.377 . S
C753 C751 1.389 . S
C753 C754 1.524 . S
C754 C753 1.524 . S
C754 C755 1.397 . S
C754 C759 1.363 . S
C755 H726 0.950 . S
C755 C754 1.397 . S
C755 C756 1.334 . S
C756 H727 0.950 . S
C756 C755 1.334 . S
C756 C757 1.287 . S
C757 C756 1.287 . S
C757 C758 1.524 . S
C757 H760 0.999 . S
C758 H728 0.950 . S
C758 C757 1.524 . S
C758 C759 1.415 . S
C759 H729 0.950 . S
C759 C754 1.363 . S
C759 C758 1.415 . S
H760 C757 0.999 . S
H761 C742 0.913 . S
H762 C780 0.951 . S
H763 C782 0.951 . S
H764 C784 0.950 . S
H765 C785 0.950 . S
H766 C787 0.950 . S
H767 C790 0.950 . S
H768 C791 0.950 . S
H769 C793 0.950 . S
H770 C794 0.950 . S
H771 C795 0.951 . S
H772 C797 0.951 . S
H773 C799 0.950 . S
H774 C800 0.950 . S
H775 C802 0.950 . S
H776 C805 0.950 . S
H777 C806 0.950 . S
H778 C808 0.950 . S
H779 C809 0.950 . S
C780 H762 0.951 . S
C780 C781 1.366 . S
C780 C782 1.388 . S
C781 C780 1.366 . S
C781 C785 1.385 . S
C782 H763 0.951 . S
C782 C780 1.388 . S
C782 C783 1.366 . S
C783 C782 1.366 . S
C783 C784 1.414 . S
C783 C786 1.499 . S
C784 H764 0.950 . S
C784 C783 1.414 . S
C784 C785 1.374 . S
C785 H765 0.950 . S
C785 C781 1.385 . S
C785 C784 1.374 . S
C786 C783 1.499 . S
C786 C787 1.373 . S
C786 C788 1.389 . S
C787 H766 0.950 . S
C787 C786 1.373 . S
C787 C803 1.377 . S
C788 C786 1.389 . S
C788 C789 1.524 . S
C788 C802 1.377 . S
C789 C788 1.524 . S
C789 C790 1.397 . S
C789 C794 1.363 . S
C790 H767 0.950 . S
C790 C789 1.397 . S
C790 C791 1.334 . S
C791 H768 0.950 . S
C791 C790 1.334 . S
C791 C792 1.287 . S
C792 C791 1.287 . S
C792 C793 1.524 . S
C792 H811 0.913 . S
C793 H769 0.950 . S
C793 C792 1.524 . S
C793 C794 1.415 . S
C794 H770 0.950 . S
C794 C789 1.363 . S
C794 C793 1.415 . S
C795 H771 0.951 . S
C795 C796 1.366 . S
C795 C797 1.388 . S
C796 C795 1.366 . S
C796 C800 1.385 . S
C797 H772 0.951 . S
C797 C795 1.388 . S
C797 C798 1.366 . S
C798 C797 1.366 . S
C798 C799 1.414 . S
C798 C801 1.499 . S
C799 H773 0.950 . S
C799 C798 1.414 . S
C799 C800 1.374 . S
C800 H774 0.950 . S
C800 C796 1.385 . S
C800 C799 1.374 . S
C801 C798 1.499 . S
C801 C802 1.373 . S
C801 C803 1.389 . S
C802 H775 0.950 . S
C802 C788 1.377 . S
C802 C801 1.373 . S
C803 C787 1.377 . S
C803 C801 1.389 . S
C803 C804 1.524 . S
C804 C803 1.524 . S
C804 C805 1.397 . S
C804 C809 1.363 . S
C805 H776 0.950 . S
C805 C804 1.397 . S
C805 C806 1.334 . S
C806 H777 0.950 . S
C806 C805 1.334 . S
C806 C807 1.287 . S
C807 C806 1.287 . S
C807 C808 1.524 . S
C807 H810 0.999 . S
C808 H778 0.950 . S
C808 C807 1.524 . S
C808 C809 1.415 . S
C809 H779 0.950 . S
C809 C804 1.363 . S
C809 C808 1.415 . S
H810 C807 0.999 . S
H811 C792 0.913 . S
H812 C830 0.951 . S
H813 C832 0.951 . S
H814 C834 0.950 . S
H815 C835 0.950 . S
H816 C837 0.950 . S
H817 C840 0.950 . S
H818 C841 0.950 . S
H819 C843 0.950 . S
H820 C844 0.950 . S
H821 C845 0.951 . S
H822 C847 0.951 . S
H823 C849 0.950 . S
H824 C850 0.950 . S
H825 C852 0.950 . S
H826 C855 0.950 . S
H827 C856 0.950 . S
H828 C858 0.950 . S
H829 C859 0.950 . S
C830 H812 0.951 . S
C830 C831 1.366 . S
C830 C832 1.388 . S
C831 C830 1.366 . S
C831 C835 1.385 . S
C832 H813 0.951 . S
C832 C830 1.388 . S
C832 C833 1.366 . S
C833 C832 1.366 . S
C833 C834 1.414 . S
C833 C836 1.499 . S
C834 H814 0.950 . S
C834 C833 1.414 . S
C834 C835 1.374 . S
C835 H815 0.950 . S
C835 C831 1.385 . S
C835 C834 1.374 . S
C836 C833 1.499 . S
C836 C837 1.373 . S
C836 C838 1.389 . S
C837 H816 0.950 . S
C837 C836 1.373 . S
C837 C853 1.377 . S
C838 C836 1.389 . S
C838 C839 1.524 . S
C838 C852 1.377 . S
C839 C838 1.524 . S
C839 C840 1.397 . S
C839 C844 1.363 . S
C840 H817 0.950 . S
C840 C839 1.397 . S
C840 C841 1.334 . S
C841 H818 0.950 . S
C841 C840 1.334 . S
C841 C842 1.287 . S
C842 C841 1.287 . S
C842 C843 1.524 . S
C842 H861 0.913 . S
C843 H819 0.950 . S
C843 C842 1.524 . S
C843 C844 1.415 . S
C844 H820 0.950 . S
C844 C839 1.363 . S
C844 C843 1.415 . S
C845 H821 0.951 . S
C845 C846 1.366 . S
C845 C847 1.388 . S
C846 C845 1.366 . S
C846 C850 1.385 . S
C847 H822 0.951 . S
C847 C845 1.388 . S
C847 C848 1.366 . S
C848 C847 1.366 . S
C848 C849 1.414 . S
C848 C851 1.499 . S
C849 H823 0.950 . S
C849 C848 1.414 . S
C849 C850 1.374 . S
C850 H824 0.950 . S
C850 C846 1.385 . S
C850 C849 1.374 . S
C851 C848 1.499 . S
C851 C852 1.373 . S
C851 C853 1.389 . S
C852 H825 0.950 . S
C852 C838 1.377 . S
C852 C851 1.373 . S
C853 C837 1.377 . S
C853 C851 1.389 . S
C853 C854 1.524 . S
C854 C853 1.524 . S
C854 C855 1.397 . S
C854 C859 1.363 . S
C855 H826 0.950 . S
C855 C854 1.397 . S
C855 C856 1.334 . S
C856 H827 0.950 . S
C856 C855 1.334 . S
C856 C857 1.287 . S
C857 C856 1.287 . S
C857 C858 1.524 . S
C857 H860 0.999 . S
C858 H828 0.950 . S
C858 C857 1.524 . S
C858 C859 1.415 . S
C859 H829 0.950 . S
C859 C854 1.363 . S
C859 C858 1.415 . S
H860 C857 0.999 . S
H861 C842 0.913 . S
H862 C880 0.951 . S
H863 C882 0.951 . S
H864 C884 0.950 . S
H865 C885 0.950 . S
H866 C887 0.950 . S
H867 C890 0.950 . S
H868 C891 0.950 . S
H869 C893 0.950 . S
H870 C894 0.950 . S
H871 C895 0.951 . S
H872 C897 0.951 . S
H873 C899 0.950 . S
H874 C900 0.950 . S
H875 C902 0.950 . S
H876 C905 0.950 . S
H877 C906 0.950 . S
H878 C908 0.950 . S
H879 C909 0.950 . S
C880 H862 0.951 . S
C880 C881 1.366 . S
C880 C882 1.388 . S
C881 C880 1.366 . S
C881 C885 1.385 . S
C882 H863 0.951 . S
C882 C880 1.388 . S
C882 C883 1.366 . S
C883 C882 1.366 . S
C883 C884 1.414 . S
C883 C886 1.499 . S
C884 H864 0.950 . S
C884 C883 1.414 . S
C884 C885 1.374 . S
C885 H865 0.950 . S
C885 C881 1.385 . S
C885 C884 1.374 . S
C886 C883 1.499 . S
C886 C887 1.373 . S
C886 C888 1.389 . S
C887 H866 0.950 . S
C887 C886 1.373 . S
C887 C903 1.377 . S
C888 C886 1.389 . S
C888 C889 1.524 . S
C888 C902 1.377 . S
C889 C888 1.524 . S
C889 C890 1.397 . S
C889 C894 1.363 . S
C890 H867 0.950 . S
C890 C889 1.397 . S
C890 C891 1.334 . S
C891 H868 0.950 . S
C891 C890 1.334 . S
C891 C892 1.287 . S
C892 C891 1.287 . S
C892 C893 1.524 . S
C892 H911 0.913 . S
C893 H869 0.950 . S
C893 C892 1.524 . S
C893 C894 1.415 . S
C894 H870 0.950 . S
C894 C889 1.363 . S
C894 C893 1.415 . S
C895 H871 0.951 . S
C895 C896 1.366 . S
C895 C897 1.388 . S
C896 C895 1.366 . S
C896 C900 1.385 . S
C897 H872 0.951 . S
C897 C895 1.388 . S
C897 C898 1.366 . S
C898 C897 1.366 . S
C898 C899 1.414 . S
C898 C901 1.499 . S
C899 H873 0.950 . S
C899 C898 1.414 . S
C899 C900 1.374 . S
C900 H874 0.950 . S
C900 C896 1.385 . S
C900 C899 1.374 . S
C901 C898 1.499 . S
C901 C902 1.373 . S
C901 C903 1.389 . S
C902 H875 0.950 . S
C902 C888 1.377 . S
C902 C901 1.373 . S
C903 C887 1.377 . S
C903 C901 1.389 . S
C903 C904 1.524 . S
C904 C903 1.524 . S
C904 C905 1.397 . S
C904 C909 1.363 . S
C905 H876 0.950 . S
C905 C904 1.397 . S
C905 C906 1.334 . S
C906 H877 0.950 . S
C906 C905 1.334 . S
C906 C907 1.287 . S
C907 C906 1.287 . S
C907 C908 1.524 . S
C907 H910 0.999 . S
C908 H878 0.950 . S
C908 C907 1.524 . S
C908 C909 1.415 . S
C909 H879 0.950 . S
C909 C904 1.363 . S
C909 C908 1.415 . S
H910 C907 0.999 . S
H911 C892 0.913 . S
C131 C12 1.031 . S
C146 C32 1.012 . S
C181 C46 1.012 . S
C196 C26 1.031 . S
C231 C40 1.031 . S
C246 C4 1.012 . S
C281 C54 1.031 . S
C296 C18 1.012 . S
C331 C88 1.013 . S
C346 C68 1.031 . S
C381 C82 1.030 . S
C396 C102 1.012 . S
C431 C96 1.031 . S
C446 C60 1.013 . S
C481 C110 1.031 . S
C496 C74 1.012 . S
C531 C5 1.357 . S
C546 C61 1.357 . S
C581 C19 1.355 . S
C596 C75 1.355 . S
C631 C33 1.357 . S
C646 C89 1.357 . S
C681 C103 1.355 . S
C696 C47 1.355 . S
C731 C11 1.483 . S
C746 C25 1.482 . S
C781 C53 1.482 . S
C796 C39 1.483 . S
C831 C81 1.482 . S
C846 C67 1.482 . S
C881 C95 1.482 . S
C896 C109 1.483 . S
