# Generated by pormake.
# Topology wgc, (5)-cn, num edge types: 1
# Building blocks:
#     Node 0, Type 0, BuildingBlock: XOMCOT_clean_sbu_1, # of connection points: 5
#     Node 1, Type 0, BuildingBlock: XOMCOT_clean_sbu_1, # of connection points: 5
#     Node 2, Type 0, BuildingBlock: XOMCOT_clean_sbu_1, # of connection points: 5
#     Node 3, Type 0, BuildingBlock: XOMCOT_clean_sbu_1, # of connection points: 5
#     Node 4, Type 0, BuildingBlock: XOMCOT_clean_sbu_1, # of connection points: 5
#     Node 5, Type 0, BuildingBlock: XOMCOT_clean_sbu_1, # of connection points: 5
#     Node 6, Type 0, BuildingBlock: XOMCOT_clean_sbu_1, # of connection points: 5
#     Node 7, Type 0, BuildingBlock: XOMCOT_clean_sbu_1, # of connection points: 5
#     Node 8, Type 0, BuildingBlock: XOMCOT_clean_sbu_1, # of connection points: 5
#     Node 9, Type 0, BuildingBlock: XOMCOT_clean_sbu_1, # of connection points: 5
#     Node 10, Type 0, BuildingBlock: XOMCOT_clean_sbu_1, # of connection points: 5
#     Node 11, Type 0, BuildingBlock: XOMCOT_clean_sbu_1, # of connection points: 5
#     Node 12, Type 0, BuildingBlock: XOMCOT_clean_sbu_1, # of connection points: 5
#     Node 13, Type 0, BuildingBlock: XOMCOT_clean_sbu_1, # of connection points: 5
#     Node 14, Type 0, BuildingBlock: XOMCOT_clean_sbu_1, # of connection points: 5
#     Node 15, Type 0, BuildingBlock: XOMCOT_clean_sbu_1, # of connection points: 5
#     Edge 16, Type (0, 0), BuildingBlock: MIFKUJ_clean_linker_0, # of connection points: 2
#     Edge 17, Type (0, 0), BuildingBlock: MIFKUJ_clean_linker_0, # of connection points: 2
#     Edge 18, Type (0, 0), BuildingBlock: MIFKUJ_clean_linker_0, # of connection points: 2
#     Edge 19, Type (0, 0), BuildingBlock: MIFKUJ_clean_linker_0, # of connection points: 2
#     Edge 20, Type (0, 0), BuildingBlock: MIFKUJ_clean_linker_0, # of connection points: 2
#     Edge 21, Type (0, 0), BuildingBlock: MIFKUJ_clean_linker_0, # of connection points: 2
#     Edge 22, Type (0, 0), BuildingBlock: MIFKUJ_clean_linker_0, # of connection points: 2
#     Edge 23, Type (0, 0), BuildingBlock: MIFKUJ_clean_linker_0, # of connection points: 2
#     Edge 24, Type (0, 0), BuildingBlock: MIFKUJ_clean_linker_0, # of connection points: 2
#     Edge 25, Type (0, 0), BuildingBlock: MIFKUJ_clean_linker_0, # of connection points: 2
#     Edge 26, Type (0, 0), BuildingBlock: MIFKUJ_clean_linker_0, # of connection points: 2
#     Edge 27, Type (0, 0), BuildingBlock: MIFKUJ_clean_linker_0, # of connection points: 2
#     Edge 28, Type (0, 0), BuildingBlock: MIFKUJ_clean_linker_0, # of connection points: 2
#     Edge 29, Type (0, 0), BuildingBlock: MIFKUJ_clean_linker_0, # of connection points: 2
#     Edge 30, Type (0, 0), BuildingBlock: MIFKUJ_clean_linker_0, # of connection points: 2
#     Edge 31, Type (0, 0), BuildingBlock: MIFKUJ_clean_linker_0, # of connection points: 2
#     Edge 32, Type (0, 0), BuildingBlock: MIFKUJ_clean_linker_0, # of connection points: 2
#     Edge 33, Type (0, 0), BuildingBlock: MIFKUJ_clean_linker_0, # of connection points: 2
#     Edge 34, Type (0, 0), BuildingBlock: MIFKUJ_clean_linker_0, # of connection points: 2
#     Edge 35, Type (0, 0), BuildingBlock: MIFKUJ_clean_linker_0, # of connection points: 2
#     Edge 36, Type (0, 0), BuildingBlock: MIFKUJ_clean_linker_0, # of connection points: 2
#     Edge 37, Type (0, 0), BuildingBlock: MIFKUJ_clean_linker_0, # of connection points: 2
#     Edge 38, Type (0, 0), BuildingBlock: MIFKUJ_clean_linker_0, # of connection points: 2
#     Edge 39, Type (0, 0), BuildingBlock: MIFKUJ_clean_linker_0, # of connection points: 2
#     Edge 40, Type (0, 0), BuildingBlock: MIFKUJ_clean_linker_0, # of connection points: 2
#     Edge 41, Type (0, 0), BuildingBlock: MIFKUJ_clean_linker_0, # of connection points: 2
#     Edge 42, Type (0, 0), BuildingBlock: MIFKUJ_clean_linker_0, # of connection points: 2
#     Edge 43, Type (0, 0), BuildingBlock: MIFKUJ_clean_linker_0, # of connection points: 2
#     Edge 44, Type (0, 0), BuildingBlock: MIFKUJ_clean_linker_0, # of connection points: 2
#     Edge 45, Type (0, 0), BuildingBlock: MIFKUJ_clean_linker_0, # of connection points: 2
#     Edge 46, Type (0, 0), BuildingBlock: MIFKUJ_clean_linker_0, # of connection points: 2
#     Edge 47, Type (0, 0), BuildingBlock: MIFKUJ_clean_linker_0, # of connection points: 2
#     Edge 48, Type (0, 0), BuildingBlock: MIFKUJ_clean_linker_0, # of connection points: 2
#     Edge 49, Type (0, 0), BuildingBlock: MIFKUJ_clean_linker_0, # of connection points: 2
#     Edge 50, Type (0, 0), BuildingBlock: MIFKUJ_clean_linker_0, # of connection points: 2
#     Edge 51, Type (0, 0), BuildingBlock: MIFKUJ_clean_linker_0, # of connection points: 2
#     Edge 52, Type (0, 0), BuildingBlock: MIFKUJ_clean_linker_0, # of connection points: 2
#     Edge 53, Type (0, 0), BuildingBlock: MIFKUJ_clean_linker_0, # of connection points: 2
#     Edge 54, Type (0, 0), BuildingBlock: MIFKUJ_clean_linker_0, # of connection points: 2
#     Edge 55, Type (0, 0), BuildingBlock: MIFKUJ_clean_linker_0, # of connection points: 2
# Relax obj value: 0.233
# Max RMSD: 0.164
# Mean RMSD: 0.164
data_MOF--net-wgc--node1-XOMCOT_clean_sbu_1--edge1-MIFKUJ_clean_linker_0
_symmetry_space_group_name_H-M    P1
_symmetry_Int_Tables_number       1
_symmetry_cell_setting            triclinic
loop_
_symmetry_equiv_pos_as_xyz
'x, y, z'
_cell_length_a     48.7665
_cell_length_b     48.842713
_cell_length_c     65.930046
_cell_angle_alpha  89.801422
_cell_angle_beta   89.868199
_cell_angle_gamma 90.022489
loop_
_atom_site_label
_atom_site_type_symbol
_atom_site_fract_x
_atom_site_fract_y
_atom_site_fract_z
_atom_type_partial_charge
C0 C 0.35594 0.11096 0.04838 0.0
C1 C 0.38153 0.09933 0.04833 0.0
N2 N 0.3863 0.08871 0.02986 0.0
N3 N 0.34432 0.1082 0.02993 0.0
C4 C 0.36342 0.09433 0.01898 0.0
H5 H 0.34607 0.11939 0.06158 0.0
Co6 Co 0.30723 0.1166 0.02406 0.0
C7 C 0.32762 0.13017 0.97906 0.0
O8 O 0.35454 0.13002 0.97874 0.0
N9 N 0.27022 0.12413 0.01762 0.0
C10 C 0.23108 0.12094 1.00044 0.0
C11 C 0.25763 0.11239 1.00154 0.0
C12 C 0.25059 0.14027 0.02589 0.0
N13 N 0.22663 0.13836 0.01575 0.0
O14 O 0.31287 0.15433 0.03327 0.0
H15 H 0.26724 0.09882 0.99077 0.0
H16 H 0.25349 0.15308 0.03904 0.0
O17 O 0.31492 0.12513 0.99562 0.0
C18 C 0.30575 0.15345 0.05202 0.0
O19 O 0.29498 0.13052 0.05885 0.0
N20 N 0.30093 0.0799 0.01861 0.0
C21 C 0.28122 0.02687 0.01622 0.0
C22 C 0.2975 0.03763 1.00052 0.0
C23 C 0.30715 0.06457 1.00194 0.0
C24 C 0.28659 0.069 0.03442 0.0
C25 C 0.27621 0.04263 0.03344 0.0
H26 H 0.31846 0.07333 0.9894 0.0
H27 H 0.28209 0.08143 0.04752 0.0
H28 H 0.36034 0.08758 1.00358 0.0
H29 H 0.39491 0.09741 0.06133 0.0
H30 H 0.21633 0.11544 0.98892 0.0
H31 H 0.30163 0.0258 0.98699 0.0
H32 H 0.26387 0.0348 0.04587 0.0
C33 C 0.12267 0.6399 0.97828 0.0
C34 C 0.11183 0.61405 0.97907 0.0
N35 N 0.0961 0.61178 0.99579 0.0
N36 N 0.1142 0.65453 0.99446 0.0
C37 C 0.09807 0.63658 1.00493 0.0
H38 H 0.1345 0.64766 0.96571 0.0
Co39 Co 0.11825 0.6933 0.99705 0.0
C40 C 0.13519 0.6779 0.04141 0.0
O41 O 0.13621 0.65106 0.04073 0.0
N42 N 0.12165 0.73197 1.00005 0.0
C43 C 0.11526 0.77331 0.01359 0.0
C44 C 0.10753 0.74651 0.01411 0.0
C45 C 0.13861 0.75086 0.99155 0.0
N46 N 0.13481 0.77607 0.99944 0.0
O47 O 0.15622 0.69116 0.98688 0.0
H48 H 0.09357 0.73822 0.02519 0.0
H49 H 0.15406 0.74643 0.98028 0.0
O50 O 0.12896 0.69148 0.02551 0.0
C51 C 0.15441 0.696 0.96776 0.0
O52 O 0.12991 0.7016 0.96057 0.0
N53 N 0.08112 0.69601 1.0037 0.0
C54 C 0.02795 0.71513 1.00832 0.0
C55 C 0.0414 0.70238 0.02462 0.0
C56 C 0.06824 0.69283 0.022 0.0
C57 C 0.06726 0.70573 0.98731 0.0
C58 C 0.04072 0.71562 0.9893 0.0
H59 H 0.07916 0.68494 0.03498 0.0
H60 H 0.07771 0.70769 0.9729 0.0
H61 H 0.08712 0.64182 0.01859 0.0
H62 H 0.11398 0.59881 0.96731 0.0
H63 H 0.10836 0.78922 0.0238 0.0
H64 H 0.03204 0.70152 0.03952 0.0
H65 H 0.03072 0.72473 0.97626 0.0
C66 C 0.64896 0.89222 0.05191 0.0
C67 C 0.62446 0.90607 0.05279 0.0
N68 N 0.61712 0.91301 0.03381 0.0
N69 N 0.65729 0.89037 0.03243 0.0
C70 C 0.63724 0.90315 0.02172 0.0
H71 H 0.66083 0.88575 0.06486 0.0
Co72 Co 0.69319 0.88044 0.0249 0.0
C73 C 0.6699 0.86713 0.98068 0.0
O74 O 0.64302 0.8657 0.98061 0.0
N75 N 0.72932 0.87148 0.01687 0.0
C76 C 0.76696 0.87346 0.99775 0.0
C77 C 0.74044 0.88187 0.99967 0.0
C78 C 0.74996 0.85672 0.02524 0.0
N79 N 0.7731 0.85777 0.01387 0.0
O80 O 0.68637 0.84316 0.03375 0.0
H81 H 0.72992 0.89486 0.98894 0.0
H82 H 0.74846 0.8459 0.0395 0.0
O83 O 0.68249 0.87244 0.99715 0.0
C84 C 0.69487 0.8407 0.05203 0.0
O85 O 0.70704 0.86169 0.06056 0.0
N86 N 0.70058 0.91673 0.01904 0.0
C87 C 0.72117 0.96919 0.01508 0.0
C88 C 0.70302 0.95886 1.00052 0.0
C89 C 0.69293 0.9322 1.00273 0.0
C90 C 0.71695 0.92717 0.03379 0.0
C91 C 0.72784 0.95329 0.03198 0.0
H92 H 0.67988 0.92382 0.99109 0.0
H93 H 0.72246 0.91454 0.04666 0.0
H94 H 0.63841 0.90734 1.00564 0.0
H95 H 0.61354 0.91184 0.06644 0.0
H96 H 0.78054 0.87827 0.98523 0.0
H97 H 0.69757 0.97089 0.9873 0.0
H98 H 0.74169 0.96087 0.0435 0.0
C99 C 0.89211 0.35469 0.97485 0.0
C100 C 0.90541 0.37942 0.97519 0.0
N101 N 0.91279 0.38477 0.99439 0.0
N102 N 0.89095 0.34411 0.99377 0.0
C103 C 0.90357 0.36322 1.00547 0.0
H104 H 0.88597 0.34418 0.96124 0.0
Co105 Co 0.8827 0.30686 0.99864 0.0
C106 C 0.85997 0.32242 0.04089 0.0
O107 O 0.83918 0.33799 0.03568 0.0
N108 N 0.87514 0.26919 1.0041 0.0
C109 C 0.87984 0.22828 0.01888 0.0
C110 C 0.88936 0.25448 0.01804 0.0
C111 C 0.8562 0.25115 0.99713 0.0
N112 N 0.85902 0.2262 1.0058 0.0
O113 O 0.84492 0.31294 0.98997 0.0
H114 H 0.90582 0.26205 0.0273 0.0
H115 H 0.84076 0.25587 0.98593 0.0
O116 O 0.87544 0.31236 0.02724 0.0
C117 C 0.84589 0.30667 0.97109 0.0
O118 O 0.86868 0.29578 0.96413 0.0
N119 N 0.91953 0.30068 1.00368 0.0
C120 C 0.97232 0.28061 1.00717 0.0
C121 C 0.96127 0.29715 0.0225 0.0
C122 C 0.93456 0.30713 0.02046 0.0
C123 C 0.93087 0.28656 0.98803 0.0
C124 C 0.95717 0.27603 0.98954 0.0
H125 H 0.92563 0.31869 0.03273 0.0
H126 H 0.91875 0.28214 0.97473 0.0
H127 H 0.90812 0.36038 0.02137 0.0
H128 H 0.91102 0.39165 0.96209 0.0
H129 H 0.88737 0.212 0.02856 0.0
H130 H 0.97261 0.30115 0.03629 0.0
H131 H 0.96532 0.26377 0.97726 0.0
C132 C 0.34578 0.40867 0.21999 0.0
C133 C 0.37017 0.42269 0.21989 0.0
N134 N 0.3826 0.41854 0.23781 0.0
N135 N 0.34254 0.3957 0.23794 0.0
C136 C 0.36553 0.40208 0.2485 0.0
H137 H 0.33024 0.41004 0.20838 0.0
Co138 Co 0.30805 0.38222 0.24605 0.0
C139 C 0.32959 0.37044 0.29178 0.0
O140 O 0.35606 0.37136 0.29526 0.0
N141 N 0.27334 0.36984 0.25438 0.0
C142 C 0.23419 0.36997 0.27172 0.0
C143 C 0.26044 0.3797 0.27102 0.0
C144 C 0.2545 0.35346 0.24546 0.0
N145 N 0.23064 0.35338 0.25582 0.0
O146 O 0.31755 0.34575 0.23601 0.0
H147 H 0.26919 0.39405 0.28163 0.0
H148 H 0.25772 0.34243 0.23148 0.0
O149 O 0.32081 0.37507 0.2738 0.0
C150 C 0.31009 0.34724 0.21737 0.0
O151 O 0.29775 0.36978 0.21147 0.0
N152 N 0.29794 0.41764 0.25236 0.0
C153 C 0.2772 0.47024 0.25583 0.0
C154 C 0.29731 0.46077 0.26941 0.0
C155 C 0.3076 0.43417 0.26735 0.0
C156 C 0.27947 0.42703 0.23855 0.0
C157 C 0.26871 0.45318 0.24005 0.0
H158 H 0.32306 0.42689 0.27776 0.0
H159 H 0.27276 0.41382 0.22641 0.0
H160 H 0.3686 0.39722 0.26427 0.0
H161 H 0.3774 0.4364 0.2081 0.0
H162 H 0.21868 0.37517 0.28276 0.0
H163 H 0.30449 0.47353 0.2817 0.0
H164 H 0.25378 0.45996 0.22897 0.0
C165 C 0.37484 0.63837 0.78699 0.0
C166 C 0.38487 0.61203 0.78707 0.0
N167 N 0.40633 0.61085 0.77426 0.0
N168 N 0.39058 0.65441 0.7749 0.0
C169 C 0.40856 0.63637 0.76651 0.0
H170 H 0.35684 0.64495 0.79516 0.0
Co171 Co 0.38789 0.69305 0.76941 0.0
C172 C 0.3702 0.68358 0.73319 0.0
O173 O 0.39647 0.67772 0.73261 0.0
N174 N 0.38547 0.72983 0.76282 0.0
C175 C 0.39611 0.7694 0.74848 0.0
C176 C 0.40404 0.74271 0.7511 0.0
C177 C 0.36621 0.74886 0.76695 0.0
N178 N 0.37218 0.7734 0.75839 0.0
O179 O 0.36117 0.698 0.79248 0.0
H180 H 0.4222 0.73318 0.74487 0.0
H181 H 0.34822 0.74461 0.77602 0.0
O182 O 0.35899 0.68684 0.75054 0.0
C183 C 0.36451 0.69261 0.81142 0.0
O184 O 0.38774 0.68166 0.81742 0.0
N185 N 0.41885 0.70147 0.78572 0.0
C186 C 0.46754 0.73051 0.79081 0.0
C187 C 0.46741 0.70549 0.78072 0.0
C188 C 0.44286 0.6917 0.77797 0.0
C189 C 0.41926 0.72433 0.79779 0.0
C190 C 0.44355 0.73931 0.80046 0.0
H191 H 0.44299 0.67588 0.7669 0.0
H192 H 0.40031 0.73343 0.80295 0.0
H193 H 0.42312 0.64159 0.75477 0.0
H194 H 0.37683 0.59499 0.79578 0.0
H195 H 0.40731 0.78446 0.73981 0.0
H196 H 0.48561 0.69828 0.77292 0.0
H197 H 0.44291 0.75886 0.80815 0.0
C198 C 0.64276 0.61584 0.22418 0.0
C199 C 0.61722 0.60375 0.22442 0.0
N200 N 0.61433 0.59011 0.24204 0.0
N201 N 0.65592 0.61015 0.2417 0.0
C202 C 0.63788 0.59443 0.25225 0.0
H203 H 0.65153 0.62684 0.2115 0.0
Co204 Co 0.69298 0.6176 0.24779 0.0
C205 C 0.67116 0.63191 0.292 0.0
O206 O 0.64424 0.63179 0.29179 0.0
N207 N 0.73006 0.62427 0.25474 0.0
C208 C 0.76719 0.622 0.27418 0.0
C209 C 0.74085 0.61358 0.27189 0.0
C210 C 0.75095 0.63911 0.24669 0.0
N211 N 0.77386 0.63802 0.25831 0.0
O212 O 0.68834 0.65534 0.23888 0.0
H213 H 0.72996 0.60127 0.28286 0.0
H214 H 0.74946 0.6506 0.23273 0.0
O215 O 0.68447 0.62654 0.27583 0.0
C216 C 0.69685 0.65672 0.2205 0.0
O217 O 0.70685 0.63445 0.21217 0.0
N218 N 0.69846 0.58075 0.25357 0.0
C219 C 0.71827 0.52792 0.25701 0.0
C220 C 0.70294 0.53937 0.27284 0.0
C221 C 0.69319 0.56617 0.27087 0.0
C222 C 0.71192 0.56915 0.23767 0.0
C223 C 0.72233 0.54278 0.23915 0.0
H224 H 0.68282 0.57553 0.28356 0.0
H225 H 0.71583 0.58112 0.22415 0.0
H226 H 0.64202 0.58559 0.26695 0.0
H227 H 0.60257 0.60362 0.2121 0.0
H228 H 0.7799 0.61736 0.28715 0.0
H229 H 0.69969 0.52821 0.28687 0.0
H230 H 0.73416 0.53436 0.22671 0.0
C231 C 0.60006 0.34626 0.80267 0.0
C232 C 0.58734 0.37117 0.8037 0.0
N233 N 0.58566 0.38194 0.78486 0.0
N234 N 0.60688 0.34083 0.78331 0.0
C235 C 0.59772 0.36293 0.77273 0.0
H236 H 0.60258 0.33234 0.81526 0.0
Co237 Co 0.62025 0.30633 0.7753 0.0
C238 C 0.63477 0.32841 0.73017 0.0
O239 O 0.63785 0.35485 0.72736 0.0
N240 N 0.63279 0.27179 0.76707 0.0
C241 C 0.63652 0.23458 0.74795 0.0
C242 C 0.62461 0.25977 0.74965 0.0
C243 C 0.6495 0.25307 0.77587 0.0
N244 N 0.652 0.23048 0.7644 0.0
O245 O 0.6563 0.31554 0.78616 0.0
H246 H 0.61059 0.26865 0.73881 0.0
H247 H 0.65964 0.25564 0.79029 0.0
O248 O 0.62903 0.31965 0.748 0.0
C249 C 0.65487 0.3069 0.80452 0.0
O250 O 0.63295 0.2929 0.8098 0.0
N251 N 0.58503 0.29649 0.76805 0.0
C252 C 0.53258 0.27521 0.76382 0.0
C253 C 0.54281 0.29434 0.74969 0.0
C254 C 0.56933 0.30492 0.75212 0.0
C255 C 0.57496 0.27886 0.78223 0.0
C256 C 0.54889 0.26791 0.7804 0.0
H257 H 0.57723 0.31952 0.74124 0.0
H258 H 0.58754 0.27298 0.79499 0.0
H259 H 0.5987 0.36438 0.7564 0.0
H260 H 0.57862 0.37967 0.81737 0.0
H261 H 0.63397 0.22023 0.73574 0.0
H262 H 0.5307 0.30062 0.73674 0.0
H263 H 0.54157 0.25386 0.79196 0.0
C264 C 0.85492 0.61787 0.54671 0.0
C265 C 0.8806 0.60647 0.54632 0.0
N266 N 0.88411 0.59337 0.52854 0.0
N267 N 0.84178 0.61246 0.52922 0.0
C268 C 0.86016 0.59738 0.51841 0.0
H269 H 0.8459 0.62783 0.55968 0.0
Co270 Co 0.80366 0.61873 0.52587 0.0
C271 C 0.82039 0.63543 0.48188 0.0
O272 O 0.84643 0.6419 0.48356 0.0
N273 N 0.76471 0.62457 0.52232 0.0
C274 C 0.72132 0.61714 0.51284 0.0
C275 C 0.74713 0.60651 0.51364 0.0
C276 C 0.74845 0.64672 0.52604 0.0
N277 N 0.72203 0.6423 0.52074 0.0
O278 O 0.8085 0.65656 0.53422 0.0
H279 H 0.75216 0.58676 0.50759 0.0
H280 H 0.75555 0.66585 0.5323 0.0
O281 O 0.80694 0.62754 0.49741 0.0
C282 C 0.80144 0.65823 0.5529 0.0
O283 O 0.79133 0.63635 0.56183 0.0
N284 N 0.79928 0.58165 0.52041 0.0
C285 C 0.78098 0.52777 0.51754 0.0
C286 C 0.79151 0.54161 0.50041 0.0
C287 C 0.80107 0.56848 0.50222 0.0
C288 C 0.7914 0.56799 0.53744 0.0
C289 C 0.78237 0.54101 0.53641 0.0
H290 H 0.80796 0.57908 0.48876 0.0
H291 H 0.79082 0.57868 0.55178 0.0
H292 H 0.8556 0.58849 0.50381 0.0
H293 H 0.89482 0.60637 0.55889 0.0
H294 H 0.70339 0.60741 0.5064 0.0
H295 H 0.79103 0.53257 0.48547 0.0
H296 H 0.77582 0.53106 0.55028 0.0
C297 C 0.59382 0.15356 0.47156 0.0
C298 C 0.58116 0.12861 0.47032 0.0
N299 N 0.58275 0.11613 0.48851 0.0
N300 N 0.60376 0.15728 0.49042 0.0
C301 C 0.59739 0.13356 0.50028 0.0
H302 H 0.59369 0.16897 0.45979 0.0
Co303 Co 0.61509 0.19302 0.49797 0.0
C304 C 0.61492 0.17503 0.54352 0.0
O305 O 0.59271 0.16003 0.54363 0.0
N306 N 0.62606 0.22877 0.50592 0.0
C307 C 0.62543 0.26617 0.52507 0.0
C308 C 0.61662 0.23985 0.52339 0.0
C309 C 0.64101 0.24915 0.49729 0.0
N310 N 0.64059 0.27219 0.50864 0.0
O311 O 0.65202 0.18537 0.48771 0.0
H312 H 0.60293 0.22984 0.53397 0.0
H313 H 0.65111 0.24766 0.48273 0.0
O314 O 0.62508 0.18355 0.52666 0.0
C315 C 0.65055 0.19404 0.46932 0.0
O316 O 0.62779 0.20639 0.46384 0.0
N317 N 0.57804 0.20227 0.50378 0.0
C318 C 0.52504 0.22352 0.50657 0.0
C319 C 0.53134 0.19807 0.51528 0.0
C320 C 0.55792 0.18747 0.51328 0.0
C321 C 0.57098 0.22539 0.49329 0.0
C322 C 0.54504 0.23678 0.49497 0.0
H323 H 0.56145 0.16695 0.51839 0.0
H324 H 0.5857 0.23538 0.48348 0.0
H325 H 0.60139 0.12983 0.51609 0.0
H326 H 0.57004 0.121 0.45731 0.0
H327 H 0.62066 0.27995 0.53737 0.0
H328 H 0.51591 0.18643 0.52342 0.0
H329 H 0.54057 0.25565 0.48696 0.0
C330 C 0.13793 0.37943 0.53818 0.0
C331 C 0.11176 0.38998 0.53706 0.0
N332 N 0.11064 0.40728 0.52123 0.0
N333 N 0.15385 0.3908 0.52356 0.0
C334 C 0.13603 0.40689 0.51303 0.0
H335 H 0.1446 0.36497 0.54948 0.0
Co336 Co 0.19281 0.38867 0.51893 0.0
C337 C 0.18739 0.37545 0.48143 0.0
O338 O 0.18489 0.40217 0.48279 0.0
N339 N 0.23014 0.38688 0.51311 0.0
C340 C 0.2715 0.3993 0.50246 0.0
C341 C 0.24467 0.40736 0.5045 0.0
C342 C 0.24822 0.3662 0.51548 0.0
N343 N 0.27362 0.37336 0.50924 0.0
O344 O 0.19707 0.35953 0.54095 0.0
H345 H 0.23628 0.42709 0.50034 0.0
H346 H 0.24297 0.34643 0.52186 0.0
O347 O 0.18763 0.36162 0.49798 0.0
C348 C 0.19505 0.36133 0.56041 0.0
O349 O 0.18768 0.38469 0.56857 0.0
N350 N 0.2 0.41854 0.53705 0.0
C351 C 0.22706 0.46858 0.5412 0.0
C352 C 0.20012 0.46756 0.53413 0.0
C353 C 0.18711 0.44243 0.53199 0.0
C354 C 0.2243 0.41977 0.54751 0.0
C355 C 0.23846 0.44467 0.54945 0.0
H356 H 0.16845 0.44261 0.5236 0.0
H357 H 0.23505 0.40114 0.55144 0.0
H358 H 0.14206 0.41996 0.50051 0.0
H359 H 0.09516 0.38622 0.54764 0.0
H360 H 0.28812 0.41149 0.49639 0.0
H361 H 0.19021 0.48575 0.5282 0.0
H362 H 0.25921 0.44461 0.55526 0.0
C363 C 0.37566 0.85746 0.48561 0.0
C364 C 0.38562 0.88379 0.48636 0.0
N365 N 0.4056 0.88505 0.50043 0.0
N366 N 0.38963 0.84141 0.49872 0.0
C367 C 0.40666 0.85933 0.5082 0.0
H368 H 0.3591 0.85095 0.47599 0.0
Co369 Co 0.38697 0.80255 0.50369 0.0
C370 C 0.37522 0.80914 0.54059 0.0
O371 O 0.40186 0.81102 0.53784 0.0
N372 N 0.3844 0.76523 0.5097 0.0
C373 C 0.39568 0.725 0.52288 0.0
C374 C 0.40399 0.75154 0.51994 0.0
C375 C 0.36423 0.74666 0.50663 0.0
N376 N 0.37068 0.72192 0.51454 0.0
O377 O 0.35811 0.79855 0.482 0.0
H378 H 0.42309 0.76045 0.52498 0.0
H379 H 0.34496 0.75131 0.49928 0.0
O380 O 0.36012 0.8087 0.52473 0.0
C381 C 0.36029 0.80146 0.46265 0.0
O382 O 0.38363 0.80973 0.45478 0.0
N383 N 0.4167 0.79456 0.48555 0.0
C384 C 0.46668 0.76876 0.47747 0.0
C385 C 0.46601 0.79508 0.48558 0.0
C386 C 0.44093 0.80728 0.48989 0.0
C387 C 0.41717 0.77043 0.47494 0.0
C388 C 0.44199 0.75681 0.47123 0.0
H389 H 0.4417 0.82514 0.4991 0.0
H390 H 0.39828 0.75974 0.47169 0.0
H391 H 0.42029 0.85333 0.52031 0.0
H392 H 0.37882 0.90044 0.47678 0.0
H393 H 0.40717 0.70914 0.53061 0.0
H394 H 0.48461 0.80485 0.49087 0.0
H395 H 0.44173 0.73638 0.46489 0.0
C396 C 0.86012 0.87614 0.73126 0.0
C397 C 0.88572 0.88767 0.73297 0.0
N398 N 0.88489 0.9066 0.7477 0.0
N399 N 0.84295 0.88734 0.74503 0.0
C400 C 0.8588 0.90605 0.75479 0.0
H401 H 0.85428 0.86147 0.71987 0.0
Co402 Co 0.80449 0.88106 0.74626 0.0
C403 C 0.81797 0.86338 0.79012 0.0
O404 O 0.84292 0.85369 0.78799 0.0
N405 N 0.76559 0.87498 0.74785 0.0
C406 C 0.72057 0.88135 0.7523 0.0
C407 C 0.74538 0.89395 0.74965 0.0
C408 C 0.75199 0.85076 0.74966 0.0
N409 N 0.72476 0.85431 0.75212 0.0
O410 O 0.80995 0.8432 0.7384 0.0
H411 H 0.74792 0.91583 0.74967 0.0
H412 H 0.76177 0.83088 0.74967 0.0
O413 O 0.80517 0.87276 0.7748 0.0
C414 C 0.80298 0.84143 0.71975 0.0
O415 O 0.79387 0.8635 0.71054 0.0
N416 N 0.7992 0.91798 0.75128 0.0
C417 C 0.7784 0.97066 0.75221 0.0
C418 C 0.78541 0.95718 0.77031 0.0
C419 C 0.79584 0.93063 0.76955 0.0
C420 C 0.79525 0.9318 0.73356 0.0
C421 C 0.78451 0.95818 0.73365 0.0
H422 H 0.79982 0.92005 0.78362 0.0
H423 H 0.79818 0.92131 0.7193 0.0
H424 H 0.85129 0.91961 0.76648 0.0
H425 H 0.90323 0.88357 0.72332 0.0
H426 H 0.70092 0.89124 0.75457 0.0
H427 H 0.78179 0.96663 0.78491 0.0
H428 H 0.77938 0.9679 0.71937 0.0
C429 C 0.89611 0.15001 0.3027 0.0
C430 C 0.90968 0.12547 0.30367 0.0
N431 N 0.91617 0.11767 0.28471 0.0
N432 N 0.89351 0.15794 0.28319 0.0
C433 C 0.90595 0.13762 0.27252 0.0
H434 H 0.89012 0.16197 0.31568 0.0
Co435 Co 0.88133 0.19332 0.27562 0.0
C436 C 0.87086 0.17141 0.23025 0.0
O437 O 0.87112 0.14461 0.22876 0.0
N438 N 0.87 0.22864 0.26772 0.0
C439 C 0.87056 0.26754 0.25007 0.0
C440 C 0.88073 0.24158 0.25133 0.0
C441 C 0.85285 0.24735 0.27602 0.0
N442 N 0.85315 0.27111 0.26556 0.0
O443 O 0.84428 0.18416 0.28449 0.0
H444 H 0.89547 0.23283 0.24094 0.0
H445 H 0.84101 0.2442 0.2897 0.0
O446 O 0.8749 0.18248 0.24752 0.0
C447 C 0.8437 0.19192 0.30306 0.0
O448 O 0.86507 0.20521 0.31012 0.0
N449 N 0.9173 0.20314 0.27026 0.0
C450 C 0.96947 0.225 0.26745 0.0
C451 C 0.96061 0.20563 0.25325 0.0
C452 C 0.93409 0.19489 0.25486 0.0
C453 C 0.92619 0.22111 0.28456 0.0
C454 C 0.95214 0.23265 0.28328 0.0
H455 H 0.92701 0.18048 0.24366 0.0
H456 H 0.91262 0.2271 0.29675 0.0
H457 H 0.9093 0.13831 0.25633 0.0
H458 H 0.91529 0.11474 0.31744 0.0
H459 H 0.87551 0.28275 0.23874 0.0
H460 H 0.97384 0.19937 0.24089 0.0
H461 H 0.95856 0.24754 0.29446 0.0
C462 C 0.14178 0.11418 0.72516 0.0
C463 C 0.11584 0.10324 0.72628 0.0
N464 N 0.11326 0.08992 0.74405 0.0
N465 N 0.15575 0.10822 0.74228 0.0
C466 C 0.13763 0.09331 0.75352 0.0
H467 H 0.15001 0.12482 0.71217 0.0
Co468 Co 0.19336 0.11591 0.74722 0.0
C469 C 0.18487 0.14259 0.788 0.0
O470 O 0.18311 0.16733 0.78025 0.0
N471 N 0.23091 0.12303 0.753 0.0
C472 C 0.27031 0.11923 0.7698 0.0
C473 C 0.24397 0.11029 0.76847 0.0
C474 C 0.25017 0.14039 0.74539 0.0
N475 N 0.27436 0.13817 0.75535 0.0
O476 O 0.18804 0.15442 0.73865 0.0
H477 H 0.23499 0.09562 0.77869 0.0
H478 H 0.24672 0.15442 0.73295 0.0
O479 O 0.18634 0.122 0.77618 0.0
C480 C 0.19409 0.15516 0.71964 0.0
O481 O 0.20281 0.13239 0.71123 0.0
N482 N 0.19955 0.07855 0.75197 0.0
C483 C 0.22193 0.02627 0.75531 0.0
C484 C 0.20604 0.03722 0.77114 0.0
C485 C 0.19475 0.06344 0.7691 0.0
C486 C 0.21296 0.06736 0.7359 0.0
C487 C 0.22432 0.0413 0.73723 0.0
H488 H 0.18378 0.07207 0.78178 0.0
H489 H 0.21615 0.07945 0.72233 0.0
H490 H 0.14217 0.08473 0.76824 0.0
H491 H 0.10047 0.10386 0.71446 0.0
H492 H 0.28517 0.11282 0.78101 0.0
H493 H 0.20353 0.02632 0.78535 0.0
H494 H 0.23559 0.03335 0.72436 0.0
C495 C 0.10768 0.85217 0.30128 0.0
C496 C 0.09542 0.87739 0.30176 0.0
N497 N 0.08885 0.88479 0.28268 0.0
N498 N 0.10933 0.84329 0.28198 0.0
C499 C 0.09747 0.86366 0.27095 0.0
H500 H 0.11318 0.8404 0.31451 0.0
Co501 Co 0.11865 0.80677 0.27559 0.0
C502 C 0.13385 0.82812 0.23101 0.0
O503 O 0.13667 0.85485 0.23128 0.0
N504 N 0.1269 0.7702 0.26889 0.0
C505 C 0.12387 0.7311 0.25181 0.0
C506 C 0.1154 0.75764 0.25273 0.0
C507 C 0.14265 0.75055 0.27752 0.0
N508 N 0.14089 0.7266 0.26741 0.0
O509 O 0.15625 0.81285 0.28497 0.0
H510 H 0.10186 0.76722 0.2419 0.0
H511 H 0.15484 0.75338 0.29101 0.0
O512 O 0.12764 0.81536 0.24733 0.0
C513 C 0.15723 0.80606 0.30377 0.0
O514 O 0.1352 0.79527 0.31207 0.0
N515 N 0.08222 0.80008 0.26947 0.0
C516 C 0.0297 0.77917 0.26436 0.0
C517 C 0.04084 0.79772 0.25015 0.0
C518 C 0.06738 0.80791 0.25293 0.0
C519 C 0.07115 0.78359 0.28397 0.0
C520 C 0.04523 0.77245 0.28155 0.0
H521 H 0.07621 0.82116 0.24153 0.0
H522 H 0.08333 0.77779 0.29699 0.0
H523 H 0.09397 0.8625 0.25482 0.0
H524 H 0.09015 0.88853 0.31538 0.0
H525 H 0.11839 0.71636 0.24027 0.0
H526 H 0.02943 0.80396 0.23686 0.0
H527 H 0.03801 0.75786 0.29274 0.0
H528 H 0.27595 0.15096 0.97348 0.0
H529 H 0.24887 0.15202 0.94231 0.0
H530 H 0.31642 0.11604 0.90953 0.0
H531 H 0.34362 0.11517 0.94075 0.0
H532 H 0.29464 0.15207 0.88607 0.0
H533 H 0.25846 0.07741 0.92303 0.0
H534 H 0.24036 0.05281 0.95292 0.0
H535 H 0.17106 0.10687 0.95479 0.0
H536 H 0.18902 0.13208 0.92495 0.0
H537 H 0.20627 0.09714 0.80707 0.0
H538 H 0.22626 0.09441 0.84085 0.0
H539 H 0.19906 0.17649 0.85333 0.0
H540 H 0.17987 0.17993 0.81902 0.0
H541 H 0.19975 0.11503 0.88635 0.0
H542 H 0.24983 0.19353 0.84917 0.0
H543 H 0.2662 0.20644 0.81497 0.0
H544 H 0.31074 0.13083 0.81082 0.0
H545 H 0.29408 0.11729 0.84481 0.0
C546 C 0.28494 0.14302 0.95969 0.0
C547 C 0.31181 0.13254 0.95975 0.0
C548 C 0.26943 0.14367 0.94179 0.0
C549 C 0.28026 0.13363 0.92344 0.0
C550 C 0.30743 0.1239 0.92337 0.0
C551 C 0.32301 0.12342 0.94128 0.0
C552 C 0.26318 0.1331 0.90449 0.0
C553 C 0.27391 0.14404 0.88635 0.0
C554 C 0.23626 0.12195 0.90425 0.0
C555 C 0.22512 0.10672 0.9219 0.0
C556 C 0.23941 0.08412 0.92987 0.0
C557 C 0.22918 0.07006 0.94676 0.0
C558 C 0.20453 0.07827 0.9557 0.0
C559 C 0.19007 0.10054 0.94776 0.0
C560 C 0.20024 0.1147 0.93087 0.0
C561 C 0.20403 0.11456 0.81696 0.0
C562 C 0.19175 0.13897 0.80999 0.0
C563 C 0.21541 0.11284 0.83643 0.0
C564 C 0.21425 0.13524 0.84963 0.0
C565 C 0.20022 0.15893 0.84338 0.0
C566 C 0.18929 0.16088 0.82371 0.0
C567 C 0.23086 0.13518 0.86862 0.0
C568 C 0.22025 0.12364 0.88648 0.0
C569 C 0.25814 0.14491 0.86852 0.0
C570 C 0.27079 0.15448 0.84942 0.0
C571 C 0.26327 0.1798 0.84097 0.0
C572 C 0.27236 0.18708 0.82157 0.0
C573 C 0.28918 0.16928 0.81061 0.0
C574 C 0.29737 0.1444 0.81919 0.0
C575 C 0.28821 0.13697 0.83855 0.0
H576 H 0.29621 0.17496 0.7956 0.0
H577 H 0.19668 0.06742 0.96882 0.0
H578 H 0.14179 0.73299 0.04774 0.0
H579 H 0.14176 0.75769 0.07985 0.0
H580 H 0.13344 0.68137 0.11235 0.0
H581 H 0.13278 0.6565 0.0801 0.0
H582 H 0.10032 0.71836 0.12875 0.0
H583 H 0.19493 0.71679 0.1107 0.0
H584 H 0.23572 0.72322 0.08905 0.0
H585 H 0.21961 0.80955 0.08568 0.0
H586 H 0.17847 0.80357 0.10709 0.0
H587 H 0.15014 0.77506 0.22448 0.0
H588 H 0.14876 0.74906 0.19277 0.0
H589 H 0.1226 0.82146 0.16076 0.0
H590 H 0.12202 0.8471 0.19278 0.0
H591 H 0.17312 0.78575 0.14506 0.0
H592 H 0.07618 0.7852 0.16212 0.0
H593 H 0.03707 0.77748 0.18525 0.0
H594 H 0.06038 0.69319 0.19209 0.0
H595 H 0.09985 0.70053 0.16918 0.0
C596 C 0.13993 0.72137 0.06168 0.0
C597 C 0.13728 0.69265 0.06121 0.0
C598 C 0.14011 0.73558 0.08013 0.0
C599 C 0.13788 0.7215 0.09871 0.0
C600 C 0.13525 0.69281 0.09831 0.0
C601 C 0.1351 0.67855 0.07981 0.0
C602 C 0.13808 0.73678 0.11843 0.0
C603 C 0.11647 0.73283 0.13233 0.0
C604 C 0.15887 0.75602 0.12328 0.0
C605 C 0.18346 0.75968 0.1103 0.0
C606 C 0.19995 0.73711 0.10519 0.0
C607 C 0.22315 0.74068 0.09299 0.0
C608 C 0.23021 0.76677 0.08594 0.0
C609 C 0.21409 0.78935 0.09112 0.0
C610 C 0.19084 0.78588 0.10329 0.0
C611 C 0.14316 0.78522 0.21087 0.0
C612 C 0.13525 0.81293 0.21139 0.0
C613 C 0.1428 0.77043 0.19266 0.0
C614 C 0.13527 0.78321 0.17441 0.0
C615 C 0.12833 0.81112 0.17469 0.0
C616 C 0.12815 0.82579 0.19299 0.0
C617 C 0.13528 0.76754 0.15501 0.0
C618 C 0.15701 0.77131 0.14132 0.0
C619 C 0.1148 0.748 0.15045 0.0
C620 C 0.09113 0.7435 0.16417 0.0
C621 C 0.07312 0.7651 0.16874 0.0
C622 C 0.05085 0.76077 0.18175 0.0
C623 C 0.0463 0.73488 0.19019 0.0
C624 C 0.06396 0.71324 0.18557 0.0
C625 C 0.08627 0.71747 0.17256 0.0
H626 H 0.02904 0.73156 0.20026 0.0
H627 H 0.2482 0.76949 0.07651 0.0
H628 H 0.65484 0.88747 0.94374 0.0
H629 H 0.68141 0.88745 0.91214 0.0
H630 H 0.74685 0.84407 0.94218 0.0
H631 H 0.71997 0.84352 0.97368 0.0
H632 H 0.76698 0.88557 0.91822 0.0
H633 H 0.70402 0.81071 0.9106 0.0
H634 H 0.65875 0.78821 0.91026 0.0
H635 H 0.63196 0.84276 0.8631 0.0
H636 H 0.67697 0.86586 0.86337 0.0
H637 H 0.83767 0.84593 0.82719 0.0
H638 H 0.81412 0.84735 0.86009 0.0
H639 H 0.74406 0.88533 0.8318 0.0
H640 H 0.76698 0.88337 0.79902 0.0
H641 H 0.72738 0.84612 0.85555 0.0
H642 H 0.78926 0.92155 0.86291 0.0
H643 H 0.83394 0.9452 0.86312 0.0
H644 H 0.86242 0.89126 0.91012 0.0
H645 H 0.81798 0.86707 0.91003 0.0
C646 C 0.67479 0.87774 0.94356 0.0
C647 C 0.68549 0.86587 0.9613 0.0
C648 C 0.69004 0.87783 0.9255 0.0
C649 C 0.7162 0.86574 0.9247 0.0
C650 C 0.72687 0.85376 0.94241 0.0
C651 C 0.71156 0.8536 0.96044 0.0
C652 C 0.73207 0.86507 0.90528 0.0
C653 C 0.75848 0.87661 0.90457 0.0
C654 C 0.72085 0.85396 0.88731 0.0
C655 C 0.69377 0.84016 0.88714 0.0
C656 C 0.6884 0.81805 0.90028 0.0
C657 C 0.6628 0.80517 0.90008 0.0
C658 C 0.64247 0.81409 0.8867 0.0
C659 C 0.64771 0.8359 0.87347 0.0
C660 C 0.67326 0.84888 0.87363 0.0
C661 C 0.81727 0.85462 0.82799 0.0
C662 C 0.8043 0.86445 0.81037 0.0
C663 C 0.80387 0.85561 0.84686 0.0
C664 C 0.77731 0.86666 0.84856 0.0
C665 C 0.76447 0.87665 0.83099 0.0
C666 C 0.77773 0.87555 0.81218 0.0
C667 C 0.76226 0.86684 0.86834 0.0
C668 C 0.73597 0.85512 0.86916 0.0
C669 C 0.77357 0.87795 0.88632 0.0
C670 C 0.80038 0.89231 0.88631 0.0
C671 C 0.80513 0.91457 0.87317 0.0
C672 C 0.83039 0.92811 0.87329 0.0
C673 C 0.85103 0.91969 0.88658 0.0
C674 C 0.84642 0.89773 0.89981 0.0
C675 C 0.82119 0.88412 0.89974 0.0
H676 H 0.87057 0.93021 0.88667 0.0
H677 H 0.62267 0.80407 0.88655 0.0
H678 H 0.89991 0.28867 0.05609 0.0
H679 H 0.9009 0.26522 0.08867 0.0
H680 H 0.82779 0.30801 0.10708 0.0
H681 H 0.82614 0.33124 0.07396 0.0
H682 H 0.87163 0.30352 0.13789 0.0
H683 H 0.81743 0.24436 0.0937 0.0
H684 H 0.811 0.22097 0.06089 0.0
H685 H 0.88725 0.17844 0.06904 0.0
H686 H 0.89389 0.20127 0.10201 0.0
H687 H 0.84267 0.21935 0.22389 0.0
H688 H 0.84101 0.24717 0.19291 0.0
H689 H 0.8948 0.18972 0.16312 0.0
H690 H 0.89584 0.16168 0.19394 0.0
H691 H 0.85959 0.20265 0.13745 0.0
H692 H 0.91528 0.25745 0.18031 0.0
H693 H 0.93014 0.2845 0.20982 0.0
H694 H 0.86089 0.33789 0.20247 0.0
H695 H 0.84547 0.31096 0.17302 0.0
C696 C 0.88396 0.29326 0.06693 0.0
C697 C 0.86263 0.3116 0.06206 0.0
C698 C 0.88463 0.27978 0.08567 0.0
C699 C 0.86419 0.28448 0.10024 0.0
C700 C 0.84369 0.30391 0.09601 0.0
C701 C 0.84281 0.31723 0.07706 0.0
C702 C 0.86385 0.26825 0.11947 0.0
C703 C 0.86845 0.28153 0.13794 0.0
C704 C 0.8609 0.23945 0.11941 0.0
C705 C 0.85612 0.22445 0.10027 0.0
C706 C 0.83271 0.22987 0.08852 0.0
C707 C 0.82901 0.2167 0.06993 0.0
C708 C 0.84864 0.19815 0.06293 0.0
C709 C 0.87197 0.19268 0.07454 0.0
C710 C 0.87561 0.20556 0.09324 0.0
C711 C 0.85443 0.21291 0.2108 0.0
C712 C 0.8697 0.18852 0.21148 0.0
C713 C 0.85351 0.22885 0.19303 0.0
C714 C 0.86816 0.22101 0.17553 0.0
C715 C 0.88324 0.19644 0.17624 0.0
C716 C 0.88387 0.18036 0.19392 0.0
C717 C 0.86725 0.23785 0.15637 0.0
C718 C 0.86249 0.22466 0.13774 0.0
C719 C 0.87076 0.26675 0.15627 0.0
C720 C 0.87909 0.28204 0.17461 0.0
C721 C 0.90306 0.27476 0.18514 0.0
C722 C 0.91168 0.29018 0.20176 0.0
C723 C 0.8966 0.31304 0.20789 0.0
C724 C 0.87265 0.3203 0.1976 0.0
C725 C 0.86395 0.30496 0.18096 0.0
H726 H 0.90331 0.32496 0.22077 0.0
H727 H 0.84578 0.18802 0.04852 0.0
H728 H 0.30036 0.32567 0.30393 0.0
H729 H 0.2764 0.31909 0.33627 0.0
H730 H 0.2927 0.40337 0.35187 0.0
H731 H 0.31844 0.40901 0.3202 0.0
H732 H 0.29963 0.37821 0.38335 0.0
H733 H 0.22196 0.37266 0.337 0.0
H734 H 0.19551 0.35457 0.3081 0.0
H735 H 0.20149 0.2733 0.33243 0.0
H736 H 0.22723 0.29092 0.36184 0.0
H737 H 0.17538 0.39577 0.44441 0.0
H738 H 0.19947 0.38734 0.41261 0.0
H739 H 0.24577 0.32275 0.4411 0.0
H740 H 0.22224 0.33186 0.47355 0.0
H741 H 0.20947 0.33194 0.38955 0.0
H742 H 0.29031 0.3438 0.43738 0.0
H743 H 0.31156 0.36838 0.46596 0.0
H744 H 0.29482 0.4453 0.43679 0.0
H745 H 0.27295 0.42111 0.40825 0.0
C746 C 0.29831 0.34285 0.31416 0.0
C747 C 0.31076 0.36798 0.3094 0.0
C748 C 0.28445 0.33918 0.3327 0.0
C749 C 0.28199 0.36083 0.34671 0.0
C750 C 0.29409 0.38617 0.3416 0.0
C751 C 0.30854 0.38957 0.32332 0.0
C752 C 0.26775 0.35711 0.36689 0.0
C753 C 0.27996 0.36795 0.38449 0.0
C754 C 0.2421 0.34356 0.36902 0.0
C755 C 0.22679 0.33302 0.3514 0.0
C756 C 0.21774 0.35092 0.3361 0.0
C757 C 0.20289 0.34077 0.31966 0.0
C758 C 0.19725 0.31281 0.31824 0.0
C759 C 0.20603 0.29494 0.33348 0.0
C760 C 0.22057 0.30499 0.3501 0.0
C761 C 0.19026 0.37932 0.44389 0.0
C762 C 0.19678 0.36445 0.46157 0.0
C763 C 0.20413 0.37463 0.42566 0.0
C764 C 0.22487 0.35487 0.42454 0.0
C765 C 0.2302 0.33852 0.44172 0.0
C766 C 0.21638 0.34338 0.46017 0.0
C767 C 0.24148 0.35288 0.40556 0.0
C768 C 0.22952 0.34143 0.38824 0.0
C769 C 0.26705 0.36628 0.40359 0.0
C770 C 0.27971 0.38069 0.42088 0.0
C771 C 0.29078 0.36596 0.43724 0.0
C772 C 0.30299 0.37981 0.4534 0.0
C773 C 0.30454 0.40838 0.45319 0.0
C774 C 0.29362 0.42317 0.43693 0.0
C775 C 0.28128 0.40941 0.42079 0.0
H776 H 0.31435 0.41907 0.46555 0.0
H777 H 0.18594 0.305 0.30541 0.0
H778 H 0.37848 0.66576 0.69499 0.0
H779 H 0.36957 0.69075 0.66355 0.0
H780 H 0.32841 0.75408 0.69739 0.0
H781 H 0.33723 0.72887 0.72905 0.0
H782 H 0.32439 0.70802 0.64385 0.0
H783 H 0.3454 0.80978 0.68079 0.0
H784 H 0.37581 0.83227 0.70562 0.0
H785 H 0.43948 0.77424 0.69235 0.0
H786 H 0.40931 0.75139 0.66755 0.0
H787 H 0.32319 0.79258 0.55353 0.0
H788 H 0.31093 0.77504 0.58741 0.0
H789 H 0.39441 0.78749 0.60706 0.0
H790 H 0.40576 0.80701 0.57462 0.0
H791 H 0.36692 0.7996 0.63606 0.0
H792 H 0.36393 0.70512 0.60112 0.0
H793 H 0.34694 0.6722 0.57595 0.0
H794 H 0.26571 0.70535 0.58153 0.0
H795 H 0.28207 0.73723 0.60793 0.0
C796 C 0.36671 0.68455 0.69566 0.0
C797 C 0.35811 0.69506 0.71444 0.0
C798 C 0.36182 0.69894 0.6777 0.0
C799 C 0.34853 0.72442 0.6781 0.0
C800 C 0.33887 0.73454 0.69674 0.0
C801 C 0.3435 0.71989 0.71478 0.0
C802 C 0.34587 0.74049 0.65898 0.0
C803 C 0.33329 0.72829 0.6422 0.0
C804 C 0.35797 0.76655 0.65659 0.0
C805 C 0.3751 0.77883 0.67258 0.0
C806 C 0.3658 0.80174 0.68335 0.0
C807 C 0.383 0.81456 0.69736 0.0
C808 C 0.4096 0.80477 0.70048 0.0
C809 C 0.41889 0.78181 0.6899 0.0
C810 C 0.40171 0.76884 0.67597 0.0
C811 C 0.33864 0.79208 0.56529 0.0
C812 C 0.36544 0.80131 0.56124 0.0
C813 C 0.33181 0.78146 0.58459 0.0
C814 C 0.35182 0.7792 0.59995 0.0
C815 C 0.37831 0.78899 0.59581 0.0
C816 C 0.38487 0.80016 0.57698 0.0
C817 C 0.34616 0.76681 0.6204 0.0
C818 C 0.3571 0.77977 0.63765 0.0
C819 C 0.33377 0.74078 0.62297 0.0
C820 C 0.32435 0.7241 0.60582 0.0
C821 C 0.34256 0.70568 0.59665 0.0
C822 C 0.333 0.68706 0.58231 0.0
C823 C 0.30539 0.68716 0.57663 0.0
C824 C 0.28716 0.70554 0.58569 0.0
C825 C 0.2965 0.7237 0.6005 0.0
H826 H 0.29806 0.67274 0.56547 0.0
H827 H 0.42299 0.81492 0.71115 0.0
H828 H 0.76621 0.6257 0.47405 0.0
H829 H 0.74295 0.62496 0.44142 0.0
H830 H 0.81899 0.64439 0.41115 0.0
H831 H 0.84258 0.64544 0.44401 0.0
H832 H 0.77684 0.67461 0.39621 0.0
H833 H 0.79274 0.57957 0.40965 0.0
H834 H 0.79166 0.53723 0.43013 0.0
H835 H 0.70371 0.54063 0.43224 0.0
H836 H 0.70429 0.58324 0.41204 0.0
H837 H 0.72291 0.65197 0.29783 0.0
H838 H 0.75022 0.65078 0.32875 0.0
H839 H 0.6803 0.61975 0.36189 0.0
H840 H 0.65381 0.61836 0.33037 0.0
H841 H 0.72213 0.59419 0.37472 0.0
H842 H 0.70591 0.69055 0.36368 0.0
H843 H 0.70647 0.73377 0.34421 0.0
H844 H 0.79404 0.72858 0.3384 0.0
H845 H 0.79396 0.6852 0.35769 0.0
C846 C 0.77814 0.62979 0.46051 0.0
C847 C 0.8064 0.63559 0.46176 0.0
C848 C 0.76474 0.62922 0.44178 0.0
C849 C 0.77922 0.63422 0.42371 0.0
C850 C 0.80736 0.64038 0.42485 0.0
C851 C 0.82084 0.64097 0.44367 0.0
C852 C 0.76473 0.63347 0.40377 0.0
C853 C 0.76522 0.65686 0.39136 0.0
C854 C 0.749 0.61058 0.39757 0.0
C855 C 0.74858 0.58474 0.40948 0.0
C856 C 0.77318 0.57139 0.41459 0.0
C857 C 0.77265 0.54733 0.42614 0.0
C858 C 0.74764 0.53629 0.43253 0.0
C859 C 0.72308 0.54923 0.42731 0.0
C860 C 0.72349 0.57332 0.41579 0.0
C861 C 0.71355 0.64429 0.3116 0.0
C862 C 0.6864 0.63459 0.31147 0.0
C863 C 0.72904 0.6442 0.32947 0.0
C864 C 0.71738 0.63556 0.34796 0.0
C865 C 0.68995 0.62652 0.34793 0.0
C866 C 0.67465 0.62602 0.32992 0.0
C867 C 0.73376 0.63559 0.36721 0.0
C868 C 0.73373 0.61198 0.37949 0.0
C869 C 0.74978 0.65837 0.37337 0.0
C870 C 0.74988 0.68454 0.36195 0.0
C871 C 0.72526 0.69857 0.35816 0.0
C872 C 0.7255 0.7231 0.34717 0.0
C873 C 0.75027 0.73388 0.34002 0.0
C874 C 0.77487 0.7202 0.34392 0.0
C875 C 0.77474 0.69567 0.35491 0.0
H876 H 0.7504 0.75285 0.3315 0.0
H877 H 0.74728 0.51768 0.44149 0.0
H878 H 0.58465 0.17851 0.5782 0.0
H879 H 0.59391 0.2048 0.60862 0.0
H880 H 0.67207 0.22955 0.58409 0.0
H881 H 0.66227 0.20417 0.55274 0.0
H882 H 0.63787 0.19838 0.63572 0.0
H883 H 0.67986 0.27633 0.59231 0.0
H884 H 0.67765 0.30768 0.56287 0.0
H885 H 0.59292 0.32417 0.57584 0.0
H886 H 0.59449 0.29222 0.60494 0.0
H887 H 0.66639 0.28281 0.72273 0.0
H888 H 0.66846 0.25574 0.69146 0.0
H889 H 0.60486 0.3062 0.66542 0.0
H890 H 0.60368 0.33368 0.69634 0.0
H891 H 0.63888 0.29974 0.63805 0.0
H892 H 0.59602 0.23126 0.68204 0.0
H893 H 0.59128 0.1996 0.71112 0.0
H894 H 0.67046 0.16535 0.69804 0.0
H895 H 0.67539 0.19651 0.66868 0.0
C896 C 0.60397 0.18935 0.57915 0.0
C897 C 0.62281 0.18888 0.5629 0.0
C898 C 0.60913 0.20465 0.59662 0.0
C899 C 0.63339 0.21984 0.59862 0.0
C900 C 0.65272 0.21892 0.58272 0.0
C901 C 0.64733 0.20392 0.56492 0.0
C902 C 0.63825 0.23529 0.61789 0.0
C903 C 0.63867 0.22058 0.63621 0.0
C904 C 0.63864 0.26423 0.61878 0.0
C905 C 0.6371 0.2814 0.60036 0.0
C906 C 0.6606 0.28611 0.58852 0.0
C907 C 0.65952 0.30411 0.57201 0.0
C908 C 0.63518 0.31794 0.56754 0.0
C909 C 0.61174 0.3134 0.5793 0.0
C910 C 0.61266 0.29521 0.5957 0.0
C911 C 0.65255 0.28774 0.71042 0.0
C912 C 0.63453 0.31008 0.71213 0.0
C913 C 0.65366 0.27219 0.69248 0.0
C914 C 0.63658 0.27845 0.67585 0.0
C915 C 0.61842 0.30074 0.67778 0.0
C916 C 0.6176 0.31642 0.69556 0.0
C917 C 0.63813 0.26284 0.65615 0.0
C918 C 0.63872 0.27753 0.63772 0.0
C919 C 0.63842 0.23382 0.65517 0.0
C920 C 0.6362 0.21636 0.67342 0.0
C921 C 0.61246 0.2171 0.6855 0.0
C922 C 0.60962 0.19905 0.70186 0.0
C923 C 0.63052 0.18041 0.70638 0.0
C924 C 0.65428 0.17974 0.69451 0.0
C925 C 0.65705 0.19749 0.67796 0.0
H926 H 0.62839 0.16662 0.71917 0.0
H927 H 0.63449 0.33227 0.55501 0.0
H928 H 0.22682 0.01672 0.01747 0.0
H929 H 0.2038 0.97244 0.01496 0.0
H930 H 0.28242 0.93238 1.00948 0.0
H931 H 0.30542 0.97708 1.01113 0.0
H932 H 0.24919 0.91344 0.98254 0.0
H933 H 0.2409 0.92972 0.05419 0.0
H934 H 0.22847 0.95486 0.08526 0.0
H935 H 0.14402 0.95573 0.06699 0.0
H936 H 0.15598 0.93098 0.03567 0.0
H937 H 0.1898 0.77949 0.99472 0.0
H938 H 0.2172 0.82156 0.99677 0.0
H939 H 0.14289 0.86938 1.00002 0.0
H940 H 0.11569 0.82743 0.99827 0.0
H941 H 0.17649 0.88226 0.02998 0.0
H942 H 0.18389 0.87067 0.95796 0.0
H943 H 0.19451 0.84616 0.92627 0.0
H944 H 0.27845 0.83756 0.9448 0.0
H945 H 0.26823 0.86177 0.97672 0.0
C946 C 0.2391 0.99838 0.01574 0.0
C947 C 0.26777 6e-05 0.01439 0.0
C948 C 0.22599 0.97311 0.01453 0.0
C949 C 0.24141 0.94901 0.01245 0.0
C950 C 0.27015 0.95072 1.01116 0.0
C951 C 0.28325 0.97613 0.01201 0.0
C952 C 0.2274 0.92229 1.01024 0.0
C953 C 0.23368 0.90638 0.99317 0.0
C954 C 0.20654 0.91346 0.02375 0.0
C955 C 0.19941 0.92868 0.04249 0.0
C956 C 0.21972 0.93549 0.0567 0.0
C957 C 0.21274 0.94963 0.07438 0.0
C958 C 0.18548 0.95693 0.07808 0.0
C959 C 0.16513 0.95009 0.0641 0.0
C960 C 0.172 0.93599 0.0464 0.0
C961 C 0.17945 0.79908 0.99528 0.0
C962 C 0.15074 0.8004 0.99639 0.0
C963 C 0.19504 0.82304 0.99656 0.0
C964 C 0.18203 0.84855 0.99867 0.0
C965 C 0.15332 0.84989 0.99861 0.0
C966 C 0.13783 0.82603 0.9975 0.0
C967 C 0.19809 0.87377 1.00219 0.0
C968 C 0.19221 0.88929 0.01951 0.0
C969 C 0.21909 0.8824 0.98886 0.0
C970 C 0.22524 0.86773 0.96978 0.0
C971 C 0.20456 0.86333 0.95534 0.0
C972 C 0.21052 0.84956 0.93732 0.0
C973 C 0.23713 0.84024 0.93355 0.0
C974 C 0.25784 0.84474 0.94776 0.0
C975 C 0.25199 0.85851 0.9658 0.0
H976 H 0.2417 0.82958 0.91958 0.0
H977 H 0.18012 0.96784 0.09178 0.0
H978 H 0.98133 0.69747 0.02759 0.0
H979 H 0.93804 0.72262 0.03143 0.0
H980 H 0.97308 0.79168 0.99963 0.0
H981 H 0.01626 0.76684 0.99596 0.0
H982 H 0.94427 0.80844 0.0318 0.0
H983 H 0.93116 0.75179 0.97507 0.0
H984 H 0.93087 0.7096 0.9547 0.0
H985 H 0.87077 0.67428 0.99467 0.0
H986 H 0.87104 0.71618 0.01551 0.0
H987 H 0.82264 0.87622 1.00165 0.0
H988 H 0.86612 0.85214 1.00373 0.0
H989 H 0.82704 0.78664 0.03705 0.0
H990 H 0.78279 0.81025 0.03412 0.0
H991 H 0.858 0.76808 1.00558 0.0
H992 H 0.87125 0.83386 0.06007 0.0
H993 H 0.87175 0.88077 0.07382 0.0
H994 H 0.9327 0.9042 0.02997 0.0
H995 H 0.93232 0.85754 0.0158 0.0
C996 C 0.97975 0.71806 0.02156 0.0
C997 C 0.00193 0.73011 1.01128 0.0
C998 C 0.95507 0.73235 0.02367 0.0
C999 C 0.95235 0.75892 0.01567 0.0
C1000 C 0.97476 0.77121 1.00589 0.0
C1001 C 0.99928 0.7569 1.00365 0.0
C1002 C 0.92594 0.7737 0.01702 0.0
C1003 C 0.92539 0.79966 0.02605 0.0
C1004 C 0.90144 0.76236 1.00929 0.0
C1005 C 0.90143 0.73695 0.99703 0.0
C1006 C 0.91813 0.7349 0.97967 0.0
C1007 C 0.91792 0.71107 0.96801 0.0
C1008 C 0.9009 0.68922 0.97344 0.0
C1009 C 0.88401 0.69119 0.99053 0.0
C1010 C 0.88418 0.71498 1.00228 0.0
C1011 C 0.82321 0.85668 1.00942 0.0
C1012 C 0.79919 0.84496 0.01752 0.0
C1013 C 0.84821 0.8431 1.01083 0.0
C1014 C 0.84989 0.81775 0.02074 0.0
C1015 C 0.82615 0.80629 0.02941 0.0
C1016 C 0.80096 0.81985 0.02788 0.0
C1017 C 0.87612 0.80252 0.02086 0.0
C1018 C 0.87673 0.77657 0.01181 0.0
C1019 C 0.90084 0.81439 0.02787 0.0
C1020 C 0.90168 0.84221 0.03684 0.0
C1021 C 0.88471 0.84903 0.05334 0.0
C1022 C 0.88497 0.87559 0.06119 0.0
C1023 C 0.90223 0.89546 0.05277 0.0
C1024 C 0.91936 0.88879 0.0365 0.0
C1025 C 0.91918 0.86228 0.02858 0.0
H1026 H 0.90235 0.91601 0.05884 0.0
H1027 H 0.90072 0.6708 0.96436 0.0
H1028 H 0.69734 0.01929 0.01725 0.0
H1029 H 0.72044 0.06386 0.01531 0.0
H1030 H 0.7978 0.02311 1.00493 0.0
H1031 H 0.77481 0.97864 1.00789 0.0
H1032 H 0.80492 0.06314 0.03028 0.0
H1033 H 0.76101 0.05405 0.96579 0.0
H1034 H 0.72138 0.04435 0.94381 0.0
H1035 H 0.67839 0.11317 0.96883 0.0
H1036 H 0.71766 0.12303 0.9912 0.0
H1037 H 0.8794 0.17736 0.99598 0.0
H1038 H 0.85485 0.13368 0.99619 0.0
H1039 H 0.77961 0.17597 1.0106 0.0
H1040 H 0.80431 0.21999 1.00953 0.0
H1041 H 0.7713 0.1354 0.9834 0.0
H1042 H 0.8109 0.13354 0.05397 0.0
H1043 H 0.84887 0.1385 0.07839 0.0
H1044 H 0.90104 0.09022 0.04005 0.0
H1045 H 0.86285 0.08382 0.01594 0.0
C1046 C 0.71921 0.02006 0.01439 0.0
C1047 C 0.7344 0.99591 0.01243 0.0
C1048 C 0.73239 0.04539 0.01328 0.0
C1049 C 0.76079 0.04681 1.00962 0.0
C1050 C 0.7759 0.02251 1.00772 0.0
C1051 C 0.76281 0.99722 1.00923 0.0
C1052 C 0.77476 0.07362 1.0077 0.0
C1053 C 0.79774 0.07876 0.01983 0.0
C1054 C 0.76523 0.09421 0.99431 0.0
C1055 C 0.74218 0.0892 0.9802 0.0
C1056 C 0.74309 0.06711 0.96659 0.0
C1057 C 0.72069 0.06155 0.9541 0.0
C1058 C 0.69736 0.07812 0.95494 0.0
C1059 C 0.69647 0.10037 0.9682 0.0
C1060 C 0.71881 0.10598 0.98077 0.0
C1061 C 0.85751 0.17721 0.99876 0.0
C1062 C 0.84355 0.20175 1.00257 0.0
C1063 C 0.8436 0.15233 0.99923 0.0
C1064 C 0.81559 0.15151 1.00405 0.0
C1065 C 0.8013 0.17618 1.00701 0.0
C1066 C 0.81523 0.20123 1.00622 0.0
C1067 C 0.8014 0.12484 1.00598 0.0
C1068 C 0.77842 0.11972 0.99382 0.0
C1069 C 0.81111 0.10408 0.01913 0.0
C1070 C 0.83427 0.10855 0.03312 0.0
C1071 C 0.83053 0.1241 0.05076 0.0
C1072 C 0.852 0.127 0.06459 0.0
C1073 C 0.87748 0.115 0.06065 0.0
C1074 C 0.88136 0.09961 0.04304 0.0
C1075 C 0.85973 0.09608 0.02941 0.0
H1076 H 0.89414 0.11751 0.07129 0.0
H1077 H 0.67999 0.07374 0.94529 0.0
H1078 H 0.17612 0.11727 0.01261 0.0
H1079 H 0.13293 0.14252 0.01323 0.0
H1080 H 0.17694 0.21696 0.02668 0.0
H1081 H 0.22036 0.19137 0.02646 0.0
H1082 H 0.12901 0.21357 0.04764 0.0
H1083 H 0.15768 0.20153 0.97798 0.0
H1084 H 0.1714 0.17625 0.94725 0.0
H1085 H 0.09596 0.13095 0.94908 0.0
H1086 H 0.08198 0.15562 0.97998 0.0
H1087 H 0.02134 0.30311 0.01795 0.0
H1088 H 0.06557 0.27948 0.02082 0.0
H1089 H 0.02642 0.20297 1.00556 0.0
H1090 H 0.9825 0.2266 1.00225 0.0
H1091 H 0.07276 0.20892 0.98509 0.0
H1092 H 0.04454 0.21632 0.05439 0.0
H1093 H 0.02708 0.24167 0.084 0.0
H1094 H 0.0985 0.29317 0.08296 0.0
H1095 H 0.11621 0.26827 0.05316 0.0
C1096 C 0.17646 0.13896 0.01597 0.0
C1097 C 0.2014 0.15254 0.01932 0.0
C1098 C 0.15188 0.15336 0.01622 0.0
C1099 C 0.15188 0.1817 0.01946 0.0
C1100 C 0.17661 0.1951 0.02399 0.0
C1101 C 0.2013 0.18054 0.02396 0.0
C1102 C 0.12615 0.19733 0.01736 0.0
C1103 C 0.11692 0.21287 0.03386 0.0
C1104 C 0.11001 0.19578 0.99957 0.0
C1105 C 0.11885 0.18035 0.98134 0.0
C1106 C 0.14414 0.186 0.97194 0.0
C1107 C 0.15192 0.17183 0.95446 0.0
C1108 C 0.13447 0.15213 0.94617 0.0
C1109 C 0.10938 0.1463 0.95547 0.0
C1110 C 0.10153 0.16036 0.97296 0.0
C1111 C 0.0223 0.28124 0.01536 0.0
C1112 C 0.99876 0.26661 1.00984 0.0
C1113 C 0.04744 0.26778 0.01698 0.0
C1114 C 0.04916 0.23946 0.01352 0.0
C1115 C 0.02554 0.22485 1.00818 0.0
C1116 C 1.00053 0.23832 1.00633 0.0
C1117 C 0.07559 0.22495 0.01537 0.0
C1118 C 0.08493 0.20965 0.99883 0.0
C1119 C 0.09157 0.22632 0.03318 0.0
C1120 C 0.0816 0.24058 0.05154 0.0
C1121 C 0.05649 0.23308 0.06048 0.0
C1122 C 0.04654 0.24737 0.07727 0.0
C1123 C 0.06165 0.26905 0.08534 0.0
C1124 C 0.08682 0.27637 0.0767 0.0
C1125 C 0.09685 0.26215 0.05988 0.0
H1126 H 0.05388 0.28015 0.09831 0.0
H1127 H 0.14035 0.14136 0.93253 0.0
H1128 H 0.1198 0.67633 0.26276 0.0
H1129 H 0.14478 0.63316 0.26387 0.0
H1130 H 0.21801 0.67608 0.28213 0.0
H1131 H 0.19294 0.71975 0.28056 0.0
H1132 H 0.22513 0.64168 0.24859 0.0
H1133 H 0.18411 0.6351 0.31579 0.0
H1134 H 0.14485 0.63635 0.33943 0.0
H1135 H 0.10591 0.57126 0.30665 0.0
H1136 H 0.14478 0.56985 0.28269 0.0
H1137 H 0.30208 0.51933 0.26373 0.0
H1138 H 0.27982 0.56407 0.26751 0.0
H1139 H 0.201 0.52675 0.25657 0.0
H1140 H 0.22293 0.48214 0.25334 0.0
H1141 H 0.19817 0.55923 0.28802 0.0
H1142 H 0.22984 0.56501 0.22069 0.0
H1143 H 0.26167 0.56315 0.19166 0.0
H1144 H 0.30978 0.62777 0.2176 0.0
H1145 H 0.27843 0.62971 0.247 0.0
C1146 C 0.14114 0.67649 0.26725 0.0
C1147 C 0.15459 0.70124 0.27145 0.0
C1148 C 0.15532 0.65184 0.26802 0.0
C1149 C 0.18316 0.65148 0.2732 0.0
C1150 C 0.19646 0.67605 0.27817 0.0
C1151 C 0.18217 0.70084 0.27745 0.0
C1152 C 0.19859 0.6256 0.2719 0.0
C1153 C 0.21981 0.6238 0.25759 0.0
C1154 C 0.19037 0.60198 0.28276 0.0
C1155 C 0.16731 0.60244 0.29744 0.0
C1156 C 0.16713 0.62112 0.3136 0.0
C1157 C 0.14494 0.62186 0.32705 0.0
C1158 C 0.12289 0.60391 0.32454 0.0
C1159 C 0.12301 0.58513 0.3086 0.0
C1160 C 0.14513 0.58432 0.29511 0.0
C1161 C 0.28 0.52074 0.26229 0.0
C1162 C 0.26421 0.49734 0.25826 0.0
C1163 C 0.26736 0.54626 0.26424 0.0
C1164 C 0.23881 0.54866 0.26221 0.0
C1165 C 0.22306 0.5253 0.25821 0.0
C1166 C 0.23564 0.49989 0.25624 0.0
C1167 C 0.2251 0.57535 0.26492 0.0
C1168 C 0.20401 0.57723 0.27933 0.0
C1169 C 0.23268 0.59875 0.25354 0.0
C1170 C 0.25206 0.59718 0.23622 0.0
C1171 C 0.24743 0.57855 0.22036 0.0
C1172 C 0.26533 0.57755 0.2038 0.0
C1173 C 0.28781 0.59524 0.20283 0.0
C1174 C 0.29241 0.614 0.21841 0.0
C1175 C 0.27459 0.61506 0.23504 0.0
H1176 H 0.3016 0.59449 0.18996 0.0
H1177 H 0.10572 0.60454 0.33495 0.0
H1178 H 0.6935 0.83244 0.72308 0.0
H1179 H 0.64945 0.80899 0.72852 0.0
H1180 H 0.66325 0.81046 0.79315 0.0
H1181 H 0.70738 0.83357 0.78749 0.0
H1182 H 0.6369 0.76349 0.78137 0.0
H1183 H 0.62845 0.86146 0.76979 0.0
H1184 H 0.63481 0.90386 0.74991 0.0
H1185 H 0.58809 0.86968 0.701 0.0
H1186 H 0.58185 0.82688 0.72048 0.0
H1187 H 0.5031 0.75122 0.81906 0.0
H1188 H 0.54719 0.77387 0.81185 0.0
H1189 H 0.52912 0.77255 0.7478 0.0
H1190 H 0.48515 0.75052 0.75501 0.0
H1191 H 0.55737 0.81834 0.7577 0.0
H1192 H 0.56493 0.72156 0.76778 0.0
H1193 H 0.55703 0.6786 0.78667 0.0
H1194 H 0.60466 0.70915 0.83642 0.0
H1195 H 0.61243 0.75251 0.81793 0.0
C1196 C 0.68746 0.82666 0.73832 0.0
C1197 C 0.70369 0.83428 0.75489 0.0
C1198 C 0.66227 0.81361 0.74146 0.0
C1199 C 0.65286 0.80845 0.76128 0.0
C1200 C 0.6701 0.81427 0.77775 0.0
C1201 C 0.6953 0.82726 0.77457 0.0
C1202 C 0.62419 0.79957 0.76507 0.0
C1203 C 0.61955 0.77562 0.77634 0.0
C1204 C 0.60146 0.81505 0.7581 0.0
C1205 C 0.60493 0.84089 0.7465 0.0
C1206 C 0.61969 0.86293 0.75474 0.0
C1207 C 0.62327 0.88703 0.74355 0.0
C1208 C 0.61191 0.88944 0.72418 0.0
C1209 C 0.59691 0.86777 0.71599 0.0
C1210 C 0.59335 0.84359 0.72709 0.0
C1211 C 0.50834 0.75652 0.80356 0.0
C1212 C 0.49115 0.74889 0.78756 0.0
C1213 C 0.53348 0.76927 0.79941 0.0
C1214 C 0.54164 0.77433 0.77923 0.0
C1215 C 0.52335 0.76872 0.76343 0.0
C1216 C 0.49834 0.75605 0.76756 0.0
C1217 C 0.57018 0.7826 0.77436 0.0
C1218 C 0.57475 0.80627 0.76274 0.0
C1219 C 0.59285 0.76671 0.78076 0.0
C1220 C 0.5891 0.74031 0.79156 0.0
C1221 C 0.57365 0.71913 0.78277 0.0
C1222 C 0.56917 0.69473 0.79341 0.0
C1223 C 0.5803 0.69116 0.81275 0.0
C1224 C 0.59604 0.71195 0.82144 0.0
C1225 C 0.6005 0.73643 0.81089 0.0
H1226 H 0.57677 0.67228 0.82098 0.0
H1227 H 0.6147 0.90813 0.71554 0.0
H1228 H 0.8762 0.32019 0.27058 0.0
H1229 H 0.85229 0.36433 0.27199 0.0
H1230 H 0.77451 0.3223 0.26997 0.0
H1231 H 0.79865 0.27796 0.26908 0.0
H1232 H 0.78639 0.36537 0.23837 0.0
H1233 H 0.78707 0.35034 0.31127 0.0
H1234 H 0.80996 0.34008 0.34371 0.0
H1235 H 0.8618 0.41052 0.33603 0.0
H1236 H 0.83945 0.42094 0.30337 0.0
H1237 H 0.69567 0.47729 0.25419 0.0
H1238 H 0.7198 0.43316 0.2565 0.0
H1239 H 0.79593 0.47568 0.26739 0.0
H1240 H 0.77188 0.51973 0.26473 0.0
H1241 H 0.78623 0.43275 0.29455 0.0
H1242 H 0.7906 0.44962 0.22462 0.0
H1243 H 0.77581 0.46129 0.18996 0.0
H1244 H 0.72385 0.39031 0.18888 0.0
H1245 H 0.73796 0.37847 0.22374 0.0
C1246 C 0.854 0.32052 0.27099 0.0
C1247 C 0.83907 0.29603 0.2699 0.0
C1248 C 0.84042 0.34557 0.27173 0.0
C1249 C 0.81173 0.34639 0.27105 0.0
C1250 C 0.7967 0.32189 0.27057 0.0
C1251 C 0.81035 0.29673 0.27024 0.0
C1252 C 0.7977 0.37298 0.26937 0.0
C1253 C 0.7857 0.37991 0.25077 0.0
C1254 C 0.79851 0.39239 0.28517 0.0
C1255 C 0.81175 0.38628 0.30484 0.0
C1256 C 0.80349 0.36351 0.31643 0.0
C1257 C 0.81634 0.35769 0.33487 0.0
C1258 C 0.83736 0.37461 0.34192 0.0
C1259 C 0.84553 0.39742 0.33055 0.0
C1260 C 0.83276 0.40331 0.3121 0.0
C1261 C 0.71751 0.47701 0.25718 0.0
C1262 C 0.73207 0.5015 0.2595 0.0
C1263 C 0.73125 0.45199 0.25836 0.0
C1264 C 0.75959 0.45131 0.26206 0.0
C1265 C 0.77405 0.47588 0.26458 0.0
C1266 C 0.76039 0.50087 0.26311 0.0
C1267 C 0.77396 0.42486 0.26375 0.0
C1268 C 0.78642 0.41809 0.28222 0.0
C1269 C 0.77435 0.40592 0.24759 0.0
C1270 C 0.76496 0.41342 0.22694 0.0
C1271 C 0.77566 0.43674 0.21714 0.0
C1272 C 0.76749 0.44333 0.19742 0.0
C1273 C 0.7488 0.42662 0.18726 0.0
C1274 C 0.73825 0.40329 0.19681 0.0
C1275 C 0.7463 0.39664 0.21655 0.0
H1276 H 0.74257 0.43169 0.17195 0.0
H1277 H 0.84728 0.37008 0.3562 0.0
H1278 H 0.32542 0.11879 0.76019 0.0
H1279 H 0.3677 0.1453 0.76147 0.0
H1280 H 0.32282 0.21858 0.74625 0.0
H1281 H 0.27993 0.19185 0.74515 0.0
H1282 H 0.37405 0.21114 0.72471 0.0
H1283 H 0.34848 0.22092 0.79843 0.0
H1284 H 0.33297 0.20322 0.83169 0.0
H1285 H 0.38887 0.13565 0.8266 0.0
H1286 H 0.40544 0.15366 0.79371 0.0
H1287 H 0.48428 0.29984 0.75293 0.0
H1288 H 0.43885 0.27844 0.75081 0.0
H1289 H 0.47379 0.20069 0.76807 0.0
H1290 H 0.51915 0.22164 0.76976 0.0
H1291 H 0.42589 0.21335 0.78944 0.0
H1292 H 0.45851 0.20741 0.72147 0.0
H1293 H 0.47996 0.22625 0.69053 0.0
H1294 H 0.413 0.2826 0.68359 0.0
H1295 H 0.39136 0.2643 0.71471 0.0
C1296 C 0.32454 0.14054 0.75704 0.0
C1297 C 0.29939 0.15334 0.75275 0.0
C1298 C 0.34867 0.15567 0.75789 0.0
C1299 C 0.34822 0.18396 0.75448 0.0
C1300 C 0.32343 0.19674 0.74915 0.0
C1301 C 0.29908 0.1815 0.74831 0.0
C1302 C 0.37395 0.19975 0.75632 0.0
C1303 C 0.38509 0.21217 0.73895 0.0
C1304 C 0.38888 0.20019 0.77467 0.0
C1305 C 0.3779 0.18841 0.79365 0.0
C1306 C 0.35731 0.20223 0.80441 0.0
C1307 C 0.34859 0.19232 0.82327 0.0
C1308 C 0.35986 0.16827 0.83122 0.0
C1309 C 0.38012 0.15424 0.82042 0.0
C1310 C 0.38936 0.16441 0.80178 0.0
C1311 C 0.48229 0.27813 0.756 0.0
C1312 C 0.50523 0.26243 0.76153 0.0
C1313 C 0.45637 0.26601 0.75493 0.0
C1314 C 0.45307 0.23805 0.75935 0.0
C1315 C 0.47592 0.22235 0.76481 0.0
C1316 C 0.50179 0.23437 0.76576 0.0
C1317 C 0.42587 0.22493 0.7579 0.0
C1318 C 0.41462 0.21279 0.77527 0.0
C1319 C 0.41116 0.22431 0.73948 0.0
C1320 C 0.42345 0.23467 0.72042 0.0
C1321 C 0.44843 0.22389 0.71336 0.0
C1322 C 0.46062 0.23446 0.69581 0.0
C1323 C 0.44787 0.25564 0.68511 0.0
C1324 C 0.42285 0.2662 0.6919 0.0
C1325 C 0.41059 0.25572 0.70947 0.0
H1326 H 0.45737 0.26386 0.67155 0.0
H1327 H 0.35286 0.1605 0.84573 0.0
H1328 H 0.7391 0.50649 0.54104 0.0
H1329 H 0.71636 0.46254 0.53771 0.0
H1330 H 0.7663 0.4438 0.48559 0.0
H1331 H 0.79078 0.4869 0.4895 0.0
H1332 H 0.70986 0.43449 0.4796 0.0
H1333 H 0.78018 0.4138 0.52872 0.0
H1334 H 0.80601 0.41941 0.56053 0.0
H1335 H 0.73253 0.40527 0.59504 0.0
H1336 H 0.70615 0.40009 0.56342 0.0
H1337 H 0.68891 0.28229 0.48955 0.0
H1338 H 0.71249 0.32686 0.48769 0.0
H1339 H 0.64394 0.36513 0.51767 0.0
H1340 H 0.61987 0.32138 0.51859 0.0
H1341 H 0.71048 0.36367 0.53377 0.0
H1342 H 0.63918 0.39373 0.486 0.0
H1343 H 0.61173 0.38757 0.45498 0.0
H1344 H 0.68547 0.38381 0.41934 0.0
H1345 H 0.71334 0.38943 0.45029 0.0
C1346 C 0.746 0.49292 0.52915 0.0
C1347 C 0.76724 0.50053 0.51568 0.0
C1348 C 0.73262 0.46782 0.52717 0.0
C1349 C 0.73975 0.44994 0.51146 0.0
C1350 C 0.76052 0.45742 0.49781 0.0
C1351 C 0.77437 0.48226 0.50003 0.0
C1352 C 0.72531 0.42353 0.50916 0.0
C1353 C 0.71028 0.41891 0.49136 0.0
C1354 C 0.72535 0.40345 0.52469 0.0
C1355 C 0.74115 0.40689 0.54369 0.0
C1356 C 0.76947 0.41221 0.54308 0.0
C1357 C 0.78422 0.41525 0.56109 0.0
C1358 C 0.77091 0.41278 0.5798 0.0
C1359 C 0.74281 0.40724 0.58054 0.0
C1360 C 0.72795 0.40426 0.56259 0.0
C1361 C 0.67863 0.30041 0.49515 0.0
C1362 C 0.65282 0.29838 0.50452 0.0
C1363 C 0.6921 0.32571 0.49418 0.0
C1364 C 0.67981 0.34908 0.50255 0.0
C1365 C 0.6536 0.34729 0.51105 0.0
C1366 C 0.64005 0.32225 0.51174 0.0
C1367 C 0.69524 0.37484 0.50431 0.0
C1368 C 0.71032 0.37929 0.52202 0.0
C1369 C 0.6949 0.39491 0.48893 0.0
C1370 C 0.67829 0.39149 0.47041 0.0
C1371 C 0.64952 0.39118 0.47158 0.0
C1372 C 0.63389 0.38789 0.45401 0.0
C1373 C 0.64685 0.38517 0.4352 0.0
C1374 C 0.67546 0.38581 0.43392 0.0
C1375 C 0.69118 0.38903 0.45146 0.0
H1376 H 0.63472 0.38266 0.42161 0.0
H1377 H 0.78238 0.41508 0.59372 0.0
H1378 H 0.51428 0.27639 0.51599 0.0
H1379 H 0.46978 0.29916 0.51703 0.0
H1380 H 0.42965 0.22275 0.50325 0.0
H1381 H 0.47448 0.19977 0.50185 0.0
H1382 H 0.41139 0.26814 0.47956 0.0
H1383 H 0.42634 0.24549 0.54983 0.0
H1384 H 0.45438 0.24388 0.58087 0.0
H1385 H 0.4585 0.3317 0.58153 0.0
H1386 H 0.43087 0.33382 0.55027 0.0
H1387 H 0.27742 0.319 0.50238 0.0
H1388 H 0.31941 0.29128 0.50252 0.0
H1389 H 0.3669 0.36305 0.51713 0.0
H1390 H 0.32503 0.39077 0.51691 0.0
H1391 H 0.37999 0.31741 0.54113 0.0
H1392 H 0.37309 0.34216 0.47134 0.0
H1393 H 0.35094 0.34805 0.43805 0.0
H1394 H 0.33519 0.26164 0.43526 0.0
H1395 H 0.35764 0.25521 0.46848 0.0
C1396 C 0.49596 0.26441 0.51323 0.0
C1397 C 0.49776 0.23634 0.50885 0.0
C1398 C 0.47059 0.27742 0.51389 0.0
C1399 C 0.44648 0.26258 0.51032 0.0
C1400 C 0.44809 0.23448 0.50607 0.0
C1401 C 0.4736 0.22137 0.50548 0.0
C1402 C 0.41971 0.27676 0.51096 0.0
C1403 C 0.40416 0.27835 0.49315 0.0
C1404 C 0.41093 0.29098 0.52847 0.0
C1405 C 0.42663 0.2898 0.54768 0.0
C1406 C 0.43329 0.26445 0.55657 0.0
C1407 C 0.44913 0.26345 0.57418 0.0
C1408 C 0.45824 0.28767 0.58316 0.0
C1409 C 0.45142 0.31296 0.57457 0.0
C1410 C 0.43564 0.31407 0.55692 0.0
C1411 C 0.29682 0.32873 0.50577 0.0
C1412 C 0.29806 0.35694 0.5097 0.0
C1413 C 0.32074 0.31298 0.50571 0.0
C1414 C 0.34619 0.32518 0.50982 0.0
C1415 C 0.34743 0.35329 0.51396 0.0
C1416 C 0.32359 0.36909 0.51373 0.0
C1417 C 0.37157 0.30861 0.50977 0.0
C1418 C 0.38693 0.30672 0.52766 0.0
C1419 C 0.38046 0.29456 0.49225 0.0
C1420 C 0.36668 0.29826 0.47246 0.0
C1421 C 0.3647 0.32445 0.46369 0.0
C1422 C 0.3522 0.32788 0.44481 0.0
C1423 C 0.34142 0.30528 0.43463 0.0
C1424 C 0.34343 0.27915 0.44321 0.0
C1425 C 0.35616 0.27557 0.46201 0.0
H1426 H 0.33162 0.30801 0.42005 0.0
H1427 H 0.47055 0.28685 0.59678 0.0
H1428 H 0.33649 0.70249 0.48536 0.0
H1429 H 0.31201 0.65843 0.48595 0.0
H1430 H 0.34286 0.64283 0.5462 0.0
H1431 H 0.36817 0.6858 0.54507 0.0
H1432 H 0.34969 0.60014 0.52581 0.0
H1433 H 0.27134 0.66338 0.53194 0.0
H1434 H 0.24043 0.69995 0.51987 0.0
H1435 H 0.22376 0.65406 0.46583 0.0
H1436 H 0.25477 0.61739 0.4775 0.0
H1437 H 0.26295 0.496 0.56624 0.0
H1438 H 0.28872 0.53797 0.55824 0.0
H1439 H 0.25569 0.53759 0.49758 0.0
H1440 H 0.22999 0.49613 0.5055 0.0
H1441 H 0.25066 0.58647 0.5127 0.0
H1442 H 0.32322 0.52226 0.50652 0.0
H1443 H 0.35458 0.48474 0.51591 0.0
H1444 H 0.38325 0.53118 0.56683 0.0
H1445 H 0.35177 0.56883 0.55791 0.0
C1446 C 0.33767 0.68968 0.49876 0.0
C1447 C 0.35421 0.69745 0.51521 0.0
C1448 C 0.32362 0.66456 0.49915 0.0
C1449 C 0.32532 0.64725 0.51624 0.0
C1450 C 0.34125 0.65562 0.5328 0.0
C1451 C 0.35566 0.68022 0.53221 0.0
C1452 C 0.31193 0.6198 0.51701 0.0
C1453 C 0.32791 0.59731 0.52321 0.0
C1454 C 0.28387 0.61553 0.51253 0.0
C1455 C 0.26561 0.63783 0.50549 0.0
C1456 C 0.26126 0.66123 0.51742 0.0
C1457 C 0.24368 0.68194 0.51066 0.0
C1458 C 0.23021 0.67937 0.49207 0.0
C1459 C 0.23425 0.65607 0.4802 0.0
C1460 C 0.25181 0.63532 0.48688 0.0
C1461 C 0.26139 0.50486 0.5512 0.0
C1462 C 0.24399 0.49316 0.53668 0.0
C1463 C 0.27617 0.52874 0.54659 0.0
C1464 C 0.27409 0.54101 0.52728 0.0
C1465 C 0.2574 0.52876 0.51262 0.0
C1466 C 0.24261 0.50511 0.51723 0.0
C1467 C 0.28815 0.56733 0.52261 0.0
C1468 C 0.27241 0.58939 0.51539 0.0
C1469 C 0.3165 0.57118 0.52594 0.0
C1470 C 0.33491 0.54826 0.53167 0.0
C1471 C 0.33597 0.52435 0.51986 0.0
C1472 C 0.35383 0.50308 0.52506 0.0
C1473 C 0.37084 0.50554 0.54199 0.0
C1474 C 0.37003 0.52928 0.55374 0.0
C1475 C 0.35219 0.55059 0.54862 0.0
H1476 H 0.3847 0.48909 0.54596 0.0
H1477 H 0.21658 0.6954 0.48688 0.0
H1478 H 0.51746 0.78289 0.46361 0.0
H1479 H 0.56117 0.7614 0.47263 0.0
H1480 H 0.51787 0.69855 0.50585 0.0
H1481 H 0.47401 0.71994 0.49669 0.0
H1482 H 0.56074 0.72283 0.5282 0.0
H1483 H 0.54732 0.67966 0.46483 0.0
H1484 H 0.53602 0.67703 0.42847 0.0
H1485 H 0.60508 0.72823 0.41416 0.0
H1486 H 0.61653 0.7315 0.45051 0.0
H1487 H 0.67391 0.63022 0.53796 0.0
H1488 H 0.63054 0.65432 0.53264 0.0
H1489 H 0.67336 0.71756 0.49946 0.0
H1490 H 0.71703 0.69323 0.50499 0.0
H1491 H 0.63027 0.69297 0.47785 0.0
H1492 H 0.64369 0.73342 0.54349 0.0
H1493 H 0.65385 0.73227 0.5801 0.0
H1494 H 0.58344 0.68123 0.59049 0.0
H1495 H 0.57308 0.68178 0.55388 0.0
C1496 C 0.51729 0.76408 0.47237 0.0
C1497 C 0.4924 0.7528 0.47916 0.0
C1498 C 0.54222 0.75193 0.47764 0.0
C1499 C 0.54275 0.72844 0.48997 0.0
C1500 C 0.5179 0.7167 0.49636 0.0
C1501 C 0.49289 0.72867 0.49086 0.0
C1502 C 0.56942 0.71673 0.49649 0.0
C1503 C 0.57584 0.716 0.51722 0.0
C1504 C 0.58921 0.70811 0.4822 0.0
C1505 C 0.58261 0.70605 0.46036 0.0
C1506 C 0.55996 0.69054 0.45393 0.0
C1507 C 0.55355 0.6889 0.43333 0.0
C1508 C 0.56978 0.70251 0.41901 0.0
C1509 C 0.59251 0.71773 0.42527 0.0
C1510 C 0.59898 0.71947 0.44586 0.0
C1511 C 0.67409 0.64977 0.53016 0.0
C1512 C 0.69865 0.66005 0.522 0.0
C1513 C 0.64936 0.66349 0.52708 0.0
C1514 C 0.6487 0.68772 0.51563 0.0
C1515 C 0.67347 0.69889 0.50837 0.0
C1516 C 0.69837 0.68523 0.51169 0.0
C1517 C 0.62189 0.69956 0.50954 0.0
C1518 C 0.61532 0.70007 0.48884 0.0
C1519 C 0.60184 0.70748 0.52392 0.0
C1520 C 0.60773 0.70749 0.54595 0.0
C1521 C 0.63048 0.72182 0.55357 0.0
C1522 C 0.63625 0.7213 0.57432 0.0
C1523 C 0.61933 0.70665 0.58761 0.0
C1524 C 0.59653 0.69257 0.58018 0.0
C1525 C 0.59067 0.69301 0.55944 0.0
H1526 H 0.62385 0.70624 0.60367 0.0
H1527 H 0.56479 0.70123 0.40306 0.0
H1528 H 0.73478 0.98347 0.77622 0.0
H1529 H 0.71023 0.02712 0.77787 0.0
H1530 H 0.76214 0.05972 0.73055 0.0
H1531 H 0.78692 0.01619 0.72887 0.0
H1532 H 0.76128 0.089 0.76807 0.0
H1533 H 0.70038 0.0511 0.71891 0.0
H1534 H 0.66805 0.01793 0.70416 0.0
H1535 H 0.61286 0.02994 0.75417 0.0
H1536 H 0.64508 0.06287 0.76942 0.0
H1537 H 0.69983 0.21738 0.74755 0.0
H1538 H 0.72127 0.17198 0.74795 0.0
H1539 H 0.65846 0.14312 0.78907 0.0
H1540 H 0.63718 0.18884 0.78853 0.0
H1541 H 0.66334 0.11073 0.75602 0.0
H1542 H 0.7242 0.14755 0.80562 0.0
H1543 H 0.75792 0.17803 0.82185 0.0
H1544 H 0.81321 0.16682 0.77179 0.0
H1545 H 0.77976 0.13644 0.75518 0.0
C1546 C 0.74094 -4e-05 0.76617 0.0
C1547 C 0.76307 0.99671 0.75268 0.0
C1548 C 0.72664 0.02465 0.76692 0.0
C1549 C 0.73436 0.0464 0.75425 0.0
C1550 C 0.75588 0.04297 0.74034 0.0
C1551 C 0.77003 0.01821 0.73946 0.0
C1552 C 0.72255 0.07376 0.75742 0.0
C1553 C 0.73995 0.09395 0.76514 0.0
C1554 C 0.69449 0.07955 0.75434 0.0
C1555 C 0.67539 0.05918 0.74548 0.0
C1556 C 0.68156 0.04637 0.72694 0.0
C1557 C 0.66318 0.02769 0.71844 0.0
C1558 C 0.63847 0.02174 0.72826 0.0
C1559 C 0.63205 0.0345 0.7466 0.0
C1560 C 0.65037 0.05319 0.75518 0.0
C1561 C 0.69138 0.20148 0.7572 0.0
C1562 C 0.66744 0.20632 0.76835 0.0
C1563 C 0.70344 0.17564 0.7574 0.0
C1564 C 0.69152 0.15427 0.76866 0.0
C1565 C 0.66803 0.15942 0.7804 0.0
C1566 C 0.65609 0.18541 0.78028 0.0
C1567 C 0.70222 0.12616 0.76654 0.0
C1568 C 0.68463 0.10578 0.75903 0.0
C1569 C 0.73014 0.12004 0.76988 0.0
C1570 C 0.74939 0.13989 0.7791 0.0
C1571 C 0.74337 0.15193 0.79792 0.0
C1572 C 0.76249 0.16908 0.80723 0.0
C1573 C 0.7877 0.17431 0.79786 0.0
C1574 C 0.7937 0.16271 0.77904 0.0
C1575 C 0.77469 0.14551 0.76969 0.0
H1576 H 0.80268 0.18722 0.80522 0.0
H1577 H 0.62424 0.00732 0.72163 0.0
H1578 H 0.18499 0.37323 0.23879 0.0
H1579 H 0.13988 0.35078 0.23865 0.0
H1580 H 0.17594 0.2787 0.26574 0.0
H1581 H 0.22105 0.30105 0.26513 0.0
H1582 H 0.13808 0.26445 0.23917 0.0
H1583 H 0.14303 0.32853 0.29491 0.0
H1584 H 0.14978 0.37379 0.31074 0.0
H1585 H 0.08457 0.40712 0.27473 0.0
H1586 H 0.07742 0.3621 0.2587 0.0
H1587 H 0.01841 0.20406 0.279 0.0
H1588 H 0.06332 0.22663 0.27697 0.0
H1589 H 0.02533 0.29778 0.24994 0.0
H1590 H 0.98033 0.27553 0.25281 0.0
H1591 H 0.06373 0.31288 0.27601 0.0
H1592 H 0.05784 0.24894 0.22088 0.0
H1593 H 0.04889 0.2032 0.20663 0.0
H1594 H 0.11519 0.16978 0.24159 0.0
H1595 H 0.12424 0.21529 0.25631 0.0
C1596 C 0.18318 0.35228 0.24404 0.0
C1597 C 0.20615 0.3385 0.25168 0.0
C1598 C 0.15751 0.33962 0.24424 0.0
C1599 C 0.15447 0.31328 0.2526 0.0
C1600 C 0.17781 0.29902 0.25924 0.0
C1601 C 0.2035 0.3116 0.2588 0.0
C1602 C 0.12692 0.30106 0.25536 0.0
C1603 C 0.12193 0.27495 0.24739 0.0
C1604 C 0.10566 0.31496 0.26579 0.0
C1605 C 0.10993 0.34203 0.27545 0.0
C1606 C 0.1303 0.34557 0.29027 0.0
C1607 C 0.13418 0.37115 0.29928 0.0
C1608 C 0.11778 0.39333 0.29363 0.0
C1609 C 0.09733 0.38994 0.27905 0.0
C1610 C 0.0933 0.36438 0.27003 0.0
C1611 C 0.01987 0.22446 0.27259 0.0
C1612 C 0.99641 0.23801 0.26563 0.0
C1613 C 0.04536 0.23735 0.27146 0.0
C1614 C 0.04771 0.26366 0.2629 0.0
C1615 C 0.024 0.27744 0.25648 0.0
C1616 C 0.99846 0.2647 0.25791 0.0
C1617 C 0.07498 0.27633 0.25982 0.0
C1618 C 0.0799 0.30248 0.26774 0.0
C1619 C 0.09615 0.26254 0.2493 0.0
C1620 C 0.09164 0.23547 0.23974 0.0
C1621 C 0.0705 0.23183 0.22552 0.0
C1622 C 0.06538 0.20594 0.2174 0.0
C1623 C 0.08145 0.18359 0.22322 0.0
C1624 C 0.10277 0.18712 0.2371 0.0
C1625 C 0.10793 0.21296 0.24532 0.0
H1626 H 0.0774 0.16355 0.21695 0.0
H1627 H 0.12085 0.41311 0.30061 0.0
H1628 H 0.32041 0.78051 0.77367 0.0
H1629 H 0.29456 0.82293 0.77542 0.0
H1630 H 0.361 0.8659 0.74601 0.0
H1631 H 0.38774 0.82426 0.74537 0.0
H1632 H 0.34325 0.89555 0.77487 0.0
H1633 H 0.3 0.84611 0.72123 0.0
H1634 H 0.2765 0.80733 0.70491 0.0
H1635 H 0.20977 0.8144 0.74719 0.0
H1636 H 0.23312 0.85295 0.764 0.0
H1637 H 0.27365 0.01445 0.74199 0.0
H1638 H 0.29828 0.97129 0.74462 0.0
H1639 H 0.23065 0.93609 0.77801 0.0
H1640 H 0.2051 0.97901 0.77448 0.0
H1641 H 0.24786 0.90212 0.74943 0.0
H1642 H 0.29289 0.95593 0.80097 0.0
H1643 H 0.31786 0.99589 0.81434 0.0
H1644 H 0.38319 0.982 0.77183 0.0
H1645 H 0.35844 0.94222 0.758 0.0
C1646 C 0.32981 0.79888 0.76771 0.0
C1647 C 0.35641 0.7985 0.75929 0.0
C1648 C 0.31474 0.82321 0.76854 0.0
C1649 C 0.32563 0.84762 0.76059 0.0
C1650 C 0.35209 0.84736 0.75224 0.0
C1651 C 0.36733 0.82322 0.75171 0.0
C1652 C 0.30977 0.8736 0.76118 0.0
C1653 C 0.32248 0.89702 0.7691 0.0
C1654 C 0.28247 0.87548 0.75403 0.0
C1655 C 0.26847 0.8522 0.74403 0.0
C1656 C 0.28044 0.83923 0.72717 0.0
C1657 C 0.26713 0.81732 0.71781 0.0
C1658 C 0.24169 0.80836 0.72504 0.0
C1659 C 0.2295 0.82133 0.74163 0.0
C1660 C 0.24277 0.8432 0.75108 0.0
C1661 C 0.26381 0.99747 0.74972 0.0
C1662 C 0.23721 0.00013 0.75782 0.0
C1663 C 0.27816 0.9729 0.75149 0.0
C1664 C 0.26652 0.95053 0.76177 0.0
C1665 C 0.2401 0.95314 0.7701 0.0
C1666 C 0.22559 0.97773 0.76819 0.0
C1667 C 0.28144 0.92408 0.76295 0.0
C1668 C 0.26854 0.90056 0.75535 0.0
C1669 C 0.3088 0.92225 0.76998 0.0
C1670 C 0.32369 0.94619 0.77836 0.0
C1671 C 0.31248 0.96151 0.79438 0.0
C1672 C 0.32662 0.98412 0.80205 0.0
C1673 C 0.35207 0.99151 0.79392 0.0
C1674 C 0.36347 0.97628 0.77811 0.0
C1675 C 0.34941 0.95368 0.77037 0.0
H1676 H 0.36297 0.00901 0.79989 0.0
H1677 H 0.23139 0.79141 0.71776 0.0
H1678 H 0.99169 0.76398 0.29308 0.0
H1679 H 0.94955 0.73818 0.28796 0.0
H1680 H 0.96271 0.73989 0.22333 0.0
H1681 H 0.0062 0.76388 0.22823 0.0
H1682 H 0.9043 0.7594 0.25383 0.0
H1683 H 0.97111 0.68937 0.22712 0.0
H1684 H 0.01213 0.6606 0.23198 0.0
H1685 H 0.97802 0.62826 0.28718 0.0
H1686 H 0.93714 0.65744 0.28293 0.0
H1687 H 0.78596 0.68002 0.23217 0.0
H1688 H 0.82982 0.70384 0.22899 0.0
H1689 H 0.86387 0.65222 0.27586 0.0
H1690 H 0.8217 0.62696 0.27776 0.0
H1691 H 0.90019 0.65806 0.25071 0.0
H1692 H 0.84068 0.72031 0.28403 0.0
H1693 H 0.80009 0.74933 0.28991 0.0
H1694 H 0.81904 0.79619 0.23644 0.0
H1695 H 0.85957 0.76718 0.2301 0.0
C1696 C 0.98606 0.75849 0.27776 0.0
C1697 C 0.00268 0.76582 0.26108 0.0
C1698 C 0.96185 0.74389 0.2749 0.0
C1699 C 0.9535 0.73684 0.25534 0.0
C1700 C 0.96925 0.74488 0.23857 0.0
C1701 C 0.99387 0.75896 0.24141 0.0
C1702 C 0.92756 0.72205 0.25257 0.0
C1703 C 0.90322 0.73726 0.25266 0.0
C1704 C 0.92648 0.6932 0.25233 0.0
C1705 C 0.95132 0.67602 0.25489 0.0
C1706 C 0.97259 0.67656 0.24049 0.0
C1707 C 0.99577 0.66006 0.2431 0.0
C1708 C 0.99775 0.64272 0.25993 0.0
C1709 C 0.97653 0.6418 0.27419 0.0
C1710 C 0.95339 0.65834 0.2717 0.0
C1711 C 0.80288 0.67341 0.24155 0.0
C1712 C 0.79984 0.6517 0.25547 0.0
C1713 C 0.82791 0.68731 0.23989 0.0
C1714 C 0.85008 0.68014 0.25242 0.0
C1715 C 0.84718 0.65821 0.26598 0.0
C1716 C 0.82261 0.64397 0.26728 0.0
C1717 C 0.8764 0.69534 0.25178 0.0
C1718 C 0.90093 0.68024 0.2513 0.0
C1719 C 0.8776 0.72426 0.25294 0.0
C1720 C 0.85289 0.74131 0.2564 0.0
C1721 C 0.836 0.73659 0.27339 0.0
C1722 C 0.81305 0.75309 0.27684 0.0
C1723 C 0.80692 0.77451 0.26351 0.0
C1724 C 0.82375 0.77952 0.24671 0.0
C1725 C 0.84671 0.76306 0.24318 0.0
H1726 H 0.78918 0.7873 0.26623 0.0
H1727 H 0.01566 0.6299 0.26188 0.0
H1728 H 0.43788 0.09371 0.0442 0.0
H1729 H 0.47667 0.06346 0.03798 0.0
H1730 H 0.42764 0.01595 0.99665 0.0
H1731 H 0.38826 0.04613 1.00319 0.0
H1732 H 0.45514 0.9829 0.02247 0.0
H1733 H 0.47873 0.05432 0.97839 0.0
H1734 H 0.48613 0.10145 0.96615 0.0
H1735 H 0.55018 0.11252 1.00994 0.0
H1736 H 0.54282 0.06558 0.02275 0.0
H1737 H 0.58076 0.907 1.00309 0.0
H1738 H 0.54095 0.93663 0.99574 0.0
H1739 H 0.56448 0.99 0.04467 0.0
H1740 H 0.60357 0.96021 0.05225 0.0
H1741 H 0.54859 0.01785 1.00746 0.0
H1742 H 0.51722 0.94578 0.05359 0.0
H1743 H 0.50915 0.89755 0.06305 0.0
H1744 H 0.45895 0.8868 1.01024 0.0
H1745 H 0.46711 0.9349 1.0003 0.0
C1746 C 0.4353 0.07692 0.0337 0.0
C1747 C 0.40987 0.07235 0.02427 0.0
C1748 C 0.45763 0.05971 0.03002 0.0
C1749 C 0.45526 0.03744 0.01672 0.0
C1750 C 0.43004 0.03301 1.00694 0.0
C1751 C 0.4076 0.05042 1.01056 0.0
C1752 C 0.47893 0.01835 0.01403 0.0
C1753 C 0.47544 0.99048 0.01872 0.0
C1754 C 0.50554 0.02806 1.00912 0.0
C1755 C 0.51005 0.05644 1.00165 0.0
C1756 C 0.49422 0.06687 0.98557 0.0
C1757 C 0.49843 0.09356 0.9785 0.0
C1758 C 0.51858 0.10999 0.98729 0.0
C1759 C 0.53456 0.09976 1.00316 0.0
C1760 C 0.53038 0.0731 1.01033 0.0
C1761 C 0.57742 0.92519 0.0121 0.0
C1762 C 0.59502 0.93123 0.02834 0.0
C1763 C 0.55473 0.94205 1.00795 0.0
C1764 C 0.54968 0.96551 0.01971 0.0
C1765 C 0.56793 0.97205 0.0354 0.0
C1766 C 0.59015 0.95495 0.0398 0.0
C1767 C 0.52483 0.98276 0.01653 0.0
C1768 C 0.52816 0.01028 1.0108 0.0
C1769 C 0.49802 0.97261 0.02003 0.0
C1770 C 0.49307 0.94379 0.02606 0.0
C1771 C 0.50469 0.93305 0.04389 0.0
C1772 C 0.50006 0.90576 0.04936 0.0
C1773 C 0.48363 0.88909 0.03722 0.0
C1774 C 0.47173 0.89971 0.0196 0.0
C1775 C 0.47635 0.92698 0.01405 0.0
H1776 H 0.48005 0.86797 0.04148 0.0
H1777 H 0.52185 0.13064 0.98177 0.0
H1778 H 0.05095 0.61119 0.02081 0.0
H1779 H 0.0186 0.57322 0.02575 0.0
H1780 H 0.06741 0.52255 0.98637 0.0
H1781 H 0.10026 0.55949 0.98206 0.0
H1782 H 0.01049 0.52634 0.97559 0.0
H1783 H 0.06858 0.50938 0.03379 0.0
H1784 H 0.09046 0.52175 0.06616 0.0
H1785 H 0.01128 0.53401 0.09329 0.0
H1786 H 0.98894 0.52218 0.06094 0.0
H1787 H 0.96216 0.39373 0.97771 0.0
H1788 H 0.9923 0.43298 0.98327 0.0
H1789 H 0.93691 0.46333 0.02907 0.0
H1790 H 0.90691 0.42318 0.02376 0.0
H1791 H 0.99149 0.47424 0.03885 0.0
H1792 H 0.93277 0.48906 0.98247 0.0
H1793 H 0.90953 0.47705 0.95055 0.0
H1794 H 0.98738 0.47126 0.9203 0.0
H1795 H 0.01113 0.48276 0.95215 0.0
C1796 C 0.05518 0.59186 0.01349 0.0
C1797 C 0.07823 0.58883 1.00071 0.0
C1798 C 0.03652 0.57016 0.01628 0.0
C1799 C 0.04041 0.5451 1.00624 0.0
C1800 C 0.06378 0.54177 0.99409 0.0
C1801 C 0.08254 0.56314 0.99155 0.0
C1802 C 0.01977 0.52258 1.00735 0.0
C1803 C 0.00647 0.51489 0.98942 0.0
C1804 C 0.01369 0.5082 0.0255 0.0
C1805 C 0.02711 0.51526 0.0449 0.0
C1806 C 0.05585 0.51501 0.04659 0.0
C1807 C 0.06833 0.52187 0.06495 0.0
C1808 C 0.05228 0.52875 0.08175 0.0
C1809 C 0.0237 0.52874 0.08025 0.0
C1810 C 0.01111 0.52196 0.06191 0.0
C1811 C 0.95669 0.40856 0.9892 0.0
C1812 C 0.93214 0.40565 1.00018 0.0
C1813 C 0.97385 0.43103 0.99235 0.0
C1814 C 0.96663 0.45155 1.00626 0.0
C1815 C 0.94289 0.44788 0.01818 0.0
C1816 C 0.92578 0.42501 0.01518 0.0
C1817 C 0.98291 0.47749 1.0069 0.0
C1818 C 0.99525 0.4859 0.02509 0.0
C1819 C 0.98791 0.49291 0.98902 0.0
C1820 C 0.97372 0.48662 0.96972 0.0
C1821 C 0.94493 0.4851 0.96903 0.0
C1822 C 0.93167 0.47837 0.95096 0.0
C1823 C 0.94697 0.47336 0.93342 0.0
C1824 C 0.97556 0.47514 0.9339 0.0
C1825 C 0.98893 0.48179 0.95196 0.0
H1826 H 0.93666 0.46813 0.91944 0.0
H1827 H 0.06198 0.53403 0.09596 0.0
H1828 H 0.56015 0.59925 0.23793 0.0
H1829 H 0.52274 0.56676 0.24464 0.0
H1830 H 0.5816 0.50618 0.26387 0.0
H1831 H 0.619 0.53902 0.25763 0.0
H1832 H 0.54342 0.48668 0.23495 0.0
H1833 H 0.5437 0.53055 0.29835 0.0
H1834 H 0.54431 0.56856 0.3228 0.0
H1835 H 0.46604 0.59604 0.30108 0.0
H1836 H 0.4652 0.55849 0.27617 0.0
H1837 H 0.42896 0.39805 0.25458 0.0
H1838 H 0.47095 0.424 0.2627 0.0
H1839 H 0.43033 0.499 0.24551 0.0
H1840 H 0.38885 0.4731 0.23728 0.0
H1841 H 0.46347 0.50594 0.27936 0.0
H1842 H 0.46899 0.46604 0.21197 0.0
H1843 H 0.46839 0.42706 0.18831 0.0
H1844 H 0.53688 0.39102 0.21932 0.0
H1845 H 0.53756 0.42964 0.24339 0.0
C1846 C 0.56498 0.5791 0.24381 0.0
C1847 C 0.59236 0.57166 0.24736 0.0
C1848 C 0.54366 0.56058 0.2477 0.0
C1849 C 0.54934 0.53403 0.25483 0.0
C1850 C 0.57672 0.52657 0.25846 0.0
C1851 C 0.59802 0.54534 0.25501 0.0
C1852 C 0.52664 0.51388 0.25741 0.0
C1853 C 0.52624 0.49058 0.24501 0.0
C1854 C 0.5041 0.51898 0.27043 0.0
C1855 C 0.50453 0.54182 0.28522 0.0
C1856 C 0.52675 0.54487 0.2986 0.0
C1857 C 0.52712 0.56631 0.31258 0.0
C1858 C 0.50526 0.58474 0.31346 0.0
C1859 C 0.48298 0.58176 0.30036 0.0
C1860 C 0.48255 0.56039 0.2863 0.0
C1861 C 0.42903 0.42011 0.25294 0.0
C1862 C 0.40592 0.43364 0.24514 0.0
C1863 C 0.45294 0.43491 0.2575 0.0
C1864 C 0.45389 0.46349 0.25457 0.0
C1865 C 0.43016 0.47704 0.24792 0.0
C1866 C 0.40655 0.46226 0.24309 0.0
C1867 C 0.47996 0.47924 0.25648 0.0
C1868 C 0.48095 0.50177 0.26965 0.0
C1869 C 0.50314 0.47338 0.24427 0.0
C1870 C 0.50312 0.45051 0.22959 0.0
C1871 C 0.48381 0.44971 0.21381 0.0
C1872 C 0.48345 0.4277 0.20033 0.0
C1873 C 0.50253 0.40653 0.20235 0.0
C1874 C 0.52208 0.4074 0.21781 0.0
C1875 C 0.52246 0.42934 0.23137 0.0
H1876 H 0.50222 0.38949 0.1919 0.0
H1877 H 0.50555 0.6013 0.32432 0.0
H1878 H 0.57251 0.40081 0.74664 0.0
H1879 H 0.54403 0.44073 0.73833 0.0
H1880 H 0.53653 0.45953 0.80184 0.0
H1881 H 0.56554 0.42118 0.81033 0.0
H1882 H 0.48433 0.45138 0.77655 0.0
H1883 H 0.57403 0.49835 0.77869 0.0
H1884 H 0.62089 0.50574 0.7656 0.0
H1885 H 0.58865 0.52286 0.70635 0.0
H1886 H 0.54161 0.51519 0.71905 0.0
H1887 H 0.42055 0.57259 0.80193 0.0
H1888 H 0.45238 0.53466 0.79761 0.0
H1889 H 0.46658 0.55905 0.73552 0.0
H1890 H 0.43496 0.59779 0.74003 0.0
H1891 H 0.51355 0.54268 0.75129 0.0
H1892 H 0.42617 0.50289 0.7467 0.0
H1893 H 0.3779 0.49354 0.75548 0.0
H1894 H 0.40281 0.45904 0.81252 0.0
H1895 H 0.45123 0.46857 0.80423 0.0
C1896 C 0.56519 0.41354 0.75889 0.0
C1897 C 0.57105 0.40687 0.77929 0.0
C1898 C 0.54884 0.43641 0.75405 0.0
C1899 C 0.53791 0.45289 0.76951 0.0
C1900 C 0.54452 0.44694 0.78968 0.0
C1901 C 0.56109 0.42459 0.79449 0.0
C1902 C 0.5181 0.47536 0.76531 0.0
C1903 C 0.49069 0.47137 0.77105 0.0
C1904 C 0.52611 0.501 0.7572 0.0
C1905 C 0.55436 0.50588 0.74975 0.0
C1906 C 0.57696 0.50343 0.76283 0.0
C1907 C 0.60355 0.50773 0.7555 0.0
C1908 C 0.60775 0.51467 0.73514 0.0
C1909 C 0.58537 0.51743 0.7221 0.0
C1910 C 0.55875 0.51314 0.72936 0.0
C1911 C 0.43014 0.56975 0.78727 0.0
C1912 C 0.42479 0.588 0.77124 0.0
C1913 C 0.44846 0.54802 0.7848 0.0
C1914 C 0.46154 0.54344 0.76608 0.0
C1915 C 0.4567 0.56195 0.75009 0.0
C1916 C 0.43856 0.58406 0.75266 0.0
C1917 C 0.47991 0.51911 0.76356 0.0
C1918 C 0.50695 0.52264 0.75649 0.0
C1919 C 0.4714 0.49264 0.76984 0.0
C1920 C 0.44234 0.48658 0.77488 0.0
C1921 C 0.42135 0.49345 0.76117 0.0
C1922 C 0.39396 0.48811 0.76605 0.0
C1923 C 0.38729 0.47574 0.78456 0.0
C1924 C 0.40801 0.46862 0.79819 0.0
C1925 C 0.43545 0.47395 0.7934 0.0
H1926 H 0.36607 0.47163 0.78832 0.0
H1927 H 0.62835 0.51799 0.72949 0.0
H1928 H 0.88648 0.55192 0.50058 0.0
H1929 H 0.92524 0.52127 0.49401 0.0
H1930 H 0.97325 0.56418 0.53862 0.0
H1931 H 0.93554 0.5956 0.54435 0.0
H1932 H 0.00498 0.55233 0.50871 0.0
H1933 H 0.93792 0.49957 0.54736 0.0
H1934 H 0.89253 0.47858 0.55319 0.0
H1935 H 0.90036 0.43313 0.49784 0.0
H1936 H 0.94567 0.4541 0.49158 0.0
H1937 H 0.10362 0.45463 0.54108 0.0
H1938 H 0.06577 0.48741 0.53715 0.0
H1939 H 0.03161 0.43742 0.48964 0.0
H1940 H 0.06968 0.40462 0.49379 0.0
H1941 H 0.99239 0.452 0.51569 0.0
H1942 H 0.06098 0.49934 0.47885 0.0
H1943 H 0.10585 0.52033 0.47137 0.0
H1944 H 0.09518 0.57605 0.52098 0.0
H1945 H 0.0504 0.55509 0.529 0.0
C1946 C 0.90539 0.55514 0.50878 0.0
C1947 C 0.90745 0.57622 0.52326 0.0
C1948 C 0.92755 0.53731 0.50518 0.0
C1949 C 0.95222 0.53985 0.51612 0.0
C1950 C 0.95456 0.56146 0.53001 0.0
C1951 C 0.93265 0.57937 0.53345 0.0
C1952 C 0.97559 0.52006 0.51363 0.0
C1953 C 0.0022 0.53041 0.51045 0.0
C1954 C 0.97214 0.49126 0.51506 0.0
C1955 C 0.945 0.47861 0.5189 0.0
C1956 C 0.92986 0.48523 0.53638 0.0
C1957 C 0.90418 0.47332 0.53977 0.0
C1958 C 0.89353 0.4546 0.52587 0.0
C1959 C 0.9086 0.44768 0.50857 0.0
C1960 C 0.93428 0.45955 0.5051 0.0
C1961 C 0.08814 0.45096 0.52966 0.0
C1962 C 0.08948 0.42731 0.51766 0.0
C1963 C 0.06656 0.46968 0.52734 0.0
C1964 C 0.04577 0.46515 0.51295 0.0
C1965 C 0.04732 0.4415 0.50081 0.0
C1966 C 0.06905 0.42283 0.50309 0.0
C1967 C 0.02185 0.48437 0.51141 0.0
C1968 C 0.99518 0.4739 0.51381 0.0
C1969 C 0.02524 0.51305 0.50914 0.0
C1970 C 0.05242 0.52542 0.50466 0.0
C1971 C 0.06832 0.51586 0.48832 0.0
C1972 C 0.09372 0.5278 0.48395 0.0
C1973 C 0.10339 0.54946 0.49572 0.0
C1974 C 0.08767 0.55923 0.5119 0.0
C1975 C 0.06227 0.54733 0.51635 0.0
H1976 H 0.12304 0.55871 0.49229 0.0
H1977 H 0.87364 0.44541 0.52851 0.0
H1978 H 0.53237 0.10253 0.47492 0.0
H1979 H 0.50508 0.06272 0.48386 0.0
H1980 H 0.56753 0.03649 0.52584 0.0
H1981 H 0.5956 0.07677 0.5165 0.0
H1982 H 0.54858 0.99355 0.50294 0.0
H1983 H 0.50828 0.06124 0.54392 0.0
H1984 H 0.48876 0.10608 0.55304 0.0
H1985 H 0.42284 0.09379 0.51098 0.0
H1986 H 0.44222 0.04907 0.5013 0.0
H1987 H 0.45194 0.88587 0.5242 0.0
H1988 H 0.48349 0.9239 0.52915 0.0
H1989 H 0.43376 0.97468 0.49031 0.0
H1990 H 0.40139 0.93758 0.48616 0.0
H1991 H 0.45009 0.00397 0.52015 0.0
H1992 H 0.49755 0.93865 0.47574 0.0
H1993 H 0.51837 0.89382 0.46801 0.0
H1994 H 0.57171 0.90166 0.5194 0.0
H1995 H 0.55097 0.94638 0.52757 0.0
C1996 C 0.54057 0.08827 0.48594 0.0
C1997 C 0.56646 0.09272 0.49476 0.0
C1998 C 0.52469 0.06557 0.49125 0.0
C1999 C 0.534 0.04658 0.50568 0.0
C2000 C 0.55982 0.05087 0.51469 0.0
C2001 C 0.5758 0.07392 0.50943 0.0
C2002 C 0.51665 0.02213 0.51058 0.0
C2003 C 0.52717 0.99579 0.50712 0.0
C2004 C 0.48866 0.02487 0.51606 0.0
C2005 C 0.47683 0.05181 0.52179 0.0
C2006 C 0.48974 0.06817 0.53648 0.0
C2007 C 0.47868 0.09357 0.54177 0.0
C2008 C 0.4546 0.1028 0.53257 0.0
C2009 C 0.44151 0.08662 0.51808 0.0
C2010 C 0.45251 0.06122 0.51271 0.0
C2011 C 0.44731 0.90511 0.51685 0.0
C2012 C 0.42379 0.90808 0.50455 0.0
C2013 C 0.46575 0.92694 0.51956 0.0
C2014 C 0.46153 0.95223 0.50977 0.0
C2015 C 0.43776 0.95546 0.49799 0.0
C2016 C 0.41919 0.93387 0.49549 0.0
C2017 C 0.48159 0.97545 0.5114 0.0
C2018 C 0.47157 0.00164 0.51622 0.0
C2019 C 0.51007 0.97248 0.50739 0.0
C2020 C 0.5225 0.94567 0.50239 0.0
C2021 C 0.5136 0.93071 0.48546 0.0
C2022 C 0.5254 0.90534 0.48099 0.0
C2023 C 0.54629 0.89486 0.49324 0.0
C2024 C 0.55548 0.90977 0.50995 0.0
C2025 C 0.54372 0.93512 0.5145 0.0
H2026 H 0.55539 0.87522 0.48976 0.0
H2027 H 0.44606 0.12246 0.5367 0.0
H2028 H 0.88121 0.96162 0.75244 0.0
H2029 H 0.91967 0.99399 0.75587 0.0
H2030 H 0.97651 0.92644 0.75697 0.0
H2031 H 0.93821 0.89425 0.75302 0.0
H2032 H 0.98844 0.96951 0.78612 0.0
H2033 H 0.96954 0.95639 0.71519 0.0
H2034 H 0.94087 0.95602 0.68446 0.0
H2035 H 0.92419 0.04175 0.69183 0.0
H2036 H 0.95232 0.04247 0.72289 0.0
H2037 H 0.11429 0.039 0.76072 0.0
H2038 H 0.07497 0.00823 0.76557 0.0
H2039 H 0.02045 0.07269 0.74596 0.0
H2040 H 0.05986 0.10267 0.74016 0.0
H2041 H 0.00638 0.03079 0.72748 0.0
H2042 H 0.02646 0.04544 0.79768 0.0
H2043 H 0.05439 0.04625 0.8288 0.0
H2044 H 0.06801 0.95966 0.82397 0.0
H2045 H 0.04057 0.95841 0.79261 0.0
C2046 C 0.90188 0.95375 0.75382 0.0
C2047 C 0.90677 0.92543 0.75253 0.0
C2048 C 0.92384 0.97221 0.75567 0.0
C2049 C 0.95105 0.96267 0.75665 0.0
C2050 C 0.95577 0.93432 0.75633 0.0
C2051 C 0.93391 0.91595 0.75402 0.0
C2052 C 0.97472 0.98214 0.75659 0.0
C2053 C 0.99253 0.98285 0.77328 0.0
C2054 C 0.97984 -0.00013 0.74001 0.0
C2055 C 0.96268 0.99938 0.72151 0.0
C2056 C 0.95946 0.97507 0.71041 0.0
C2057 C 0.94336 0.97481 0.69291 0.0
C2058 C 0.93063 0.99882 0.68623 0.0
C2059 C 0.93399 0.02315 0.69705 0.0
C2060 C 0.94998 0.02348 0.71461 0.0
C2061 C 0.09383 0.04665 0.75784 0.0
C2062 C 0.09011 0.07322 0.75004 0.0
C2063 C 0.07125 0.02908 0.76066 0.0
C2064 C 0.04438 0.03796 0.75625 0.0
C2065 C 0.04078 0.06502 0.74934 0.0
C2066 C 0.06331 0.08228 0.74612 0.0
C2067 C 0.02023 0.01883 0.75726 0.0
C2068 C 0.00233 0.01789 0.74057 0.0
C2069 C 0.01496 0.00113 0.77397 0.0
C2070 C 0.03171 0.0019 0.79268 0.0
C2071 C 0.03564 0.02662 0.80315 0.0
C2072 C 0.05135 0.02715 0.82084 0.0
C2073 C 0.06303 0.00304 0.82833 0.0
C2074 C 0.059 0.97833 0.81813 0.0
C2075 C 0.04338 0.9777 0.8004 0.0
H2076 H 0.07514 0.00349 0.84205 0.0
H2077 H 0.91824 0.9986 0.67264 0.0
H2078 H 0.91499 0.08693 0.25022 0.0
H2079 H 0.94441 0.04732 0.2422 0.0
H2080 H 0.98613 0.05732 0.29931 0.0
H2081 H 0.95754 0.09665 0.30707 0.0
H2082 H 0.02207 0.04962 0.26888 0.0
H2083 H 0.93497 0.00723 0.29072 0.0
H2084 H 0.88557 0.99755 0.28689 0.0
H2085 H 0.89999 0.96622 0.22703 0.0
H2086 H 0.94942 0.97596 0.23045 0.0
H2087 H 0.08544 0.93234 0.30354 0.0
H2088 H 0.05638 0.97139 0.29645 0.0
H2089 H 0.02816 0.93297 0.24152 0.0
H2090 H 0.05657 0.89266 0.24915 0.0
H2091 H 0.98584 0.95544 0.26061 0.0
H2092 H 0.07158 0.98865 0.23962 0.0
H2093 H 0.1212 0.99814 0.24036 0.0
H2094 H 0.11051 0.04799 0.2933 0.0
H2095 H 0.06087 0.03842 0.29312 0.0
C2096 C 0.93057 0.08068 0.26094 0.0
C2097 C 0.93368 0.09483 0.27938 0.0
C2098 C 0.94723 0.05793 0.25644 0.0
C2099 C 0.96742 0.04909 0.27023 0.0
C2100 C 0.97073 0.06357 0.28842 0.0
C2101 C 0.95412 0.08601 0.29293 0.0
C2102 C 0.98563 0.02509 0.26615 0.0
C2103 C 0.01413 0.02901 0.26715 0.0
C2104 C 0.97548 0.99831 0.26271 0.0
C2105 C 0.94579 0.99262 0.26074 0.0
C2106 C 0.92755 0.99849 0.27668 0.0
C2107 C 0.89956 0.99293 0.2746 0.0
C2108 C 0.88963 0.98136 0.2567 0.0
C2109 C 0.90768 0.97523 0.24087 0.0
C2110 C 0.93567 0.98075 0.24287 0.0
C2111 C 0.07306 0.93192 0.28996 0.0
C2112 C 0.07336 0.90902 0.27704 0.0
C2113 C 0.05659 0.9546 0.28576 0.0
C2114 C 0.04024 0.95551 0.26827 0.0
C2115 C 0.04065 0.93289 0.25509 0.0
C2116 C 0.05713 0.90992 0.25938 0.0
C2117 C 0.02225 0.97985 0.26456 0.0
C2118 C 0.99389 0.97606 0.26199 0.0
C2119 C 0.03254 0.00692 0.26609 0.0
C2120 C 0.06246 0.01268 0.2664 0.0
C2121 C 0.07982 0.00146 0.25152 0.0
C2122 C 0.10796 0.00688 0.25183 0.0
C2123 C 0.119 0.02363 0.26688 0.0
C2124 C 0.10192 0.03501 0.28165 0.0
C2125 C 0.07376 0.02962 0.28144 0.0
H2126 H 0.1408 0.02783 0.26707 0.0
H2127 H 0.86797 0.97707 0.25512 0.0
H2128 H 0.31725 0.29054 0.22195 0.0
H2129 H 0.31831 0.25634 0.19435 0.0
H2130 H 0.31246 0.32131 0.15012 0.0
H2131 H 0.31144 0.35483 0.17701 0.0
H2132 H 0.2768 0.28189 0.14117 0.0
H2133 H 0.37351 0.28638 0.16023 0.0
H2134 H 0.4116 0.28145 0.18454 0.0
H2135 H 0.39012 0.19712 0.19426 0.0
H2136 H 0.3517 0.20168 0.17019 0.0
H2137 H 0.30413 0.21052 0.04841 0.0
H2138 H 0.30747 0.24367 0.07656 0.0
H2139 H 0.32281 0.17726 0.11834 0.0
H2140 H 0.32027 0.14488 0.09071 0.0
H2141 H 0.35264 0.2163 0.12948 0.0
H2142 H 0.25833 0.2083 0.11182 0.0
H2143 H 0.21741 0.21009 0.08996 0.0
H2144 H 0.22959 0.29629 0.0806 0.0
H2145 H 0.27094 0.29491 0.10209 0.0
C2146 C 0.31661 0.29741 0.20633 0.0
C2147 C 0.31416 0.32548 0.20179 0.0
C2148 C 0.31709 0.27789 0.19053 0.0
C2149 C 0.31529 0.28618 0.17001 0.0
C2150 C 0.31354 0.3142 0.16568 0.0
C2151 C 0.31307 0.33343 0.18123 0.0
C2152 C 0.31507 0.26635 0.15268 0.0
C2153 C 0.29354 0.26772 0.13852 0.0
C2154 C 0.33635 0.2472 0.14939 0.0
C2155 C 0.35963 0.24444 0.16359 0.0
C2156 C 0.37684 0.26684 0.16765 0.0
C2157 C 0.39849 0.26411 0.18137 0.0
C2158 C 0.40323 0.23901 0.19098 0.0
C2159 C 0.3864 0.21656 0.18683 0.0
C2160 C 0.36471 0.2192 0.17315 0.0
C2161 C 0.30883 0.20323 0.06354 0.0
C2162 C 0.31181 0.17504 0.06729 0.0
C2163 C 0.3104 0.2221 0.0797 0.0
C2164 C 0.31496 0.21304 0.09982 0.0
C2165 C 0.31924 0.18502 0.10316 0.0
C2166 C 0.31766 0.16641 0.08723 0.0
C2167 C 0.31453 0.23205 0.1177 0.0
C2168 C 0.33588 0.23049 0.13201 0.0
C2169 C 0.29269 0.25055 0.12138 0.0
C2170 C 0.26798 0.25142 0.10831 0.0
C2171 C 0.25247 0.22758 0.10492 0.0
C2172 C 0.22917 0.22853 0.09262 0.0
C2173 C 0.22097 0.25326 0.08383 0.0
C2174 C 0.23603 0.27712 0.08736 0.0
C2175 C 0.25941 0.27627 0.09958 0.0
H2176 H 0.2029 0.25396 0.07434 0.0
H2177 H 0.41999 0.23694 0.20161 0.0
H2178 H 0.37053 0.69452 0.85227 0.0
H2179 H 0.3354 0.69671 0.87841 0.0
H2180 H 0.27276 0.70153 0.83251 0.0
H2181 H 0.30838 0.69985 0.80588 0.0
H2182 H 0.26058 0.73484 0.86473 0.0
H2183 H 0.28526 0.64085 0.85696 0.0
H2184 H 0.31742 0.60211 0.85398 0.0
H2185 H 0.34816 0.61847 0.9137 0.0
H2186 H 0.31639 0.65754 0.91695 0.0
H2187 H 0.15061 0.69603 0.92686 0.0
H2188 H 0.18656 0.69656 0.90157 0.0
H2189 H 0.24771 0.69402 0.94863 0.0
H2190 H 0.21106 0.69314 0.97464 0.0
H2191 H 0.26089 0.66022 0.91608 0.0
H2192 H 0.23333 0.75364 0.92395 0.0
H2193 H 0.19959 0.79099 0.92639 0.0
H2194 H 0.17305 0.77518 0.8655 0.0
H2195 H 0.20606 0.73707 0.86291 0.0
C2196 C 0.34932 0.69617 0.84759 0.0
C2197 C 0.34237 0.69666 0.82687 0.0
C2198 C 0.32915 0.69735 0.86266 0.0
C2199 C 0.30124 0.69863 0.85759 0.0
C2200 C 0.29412 0.70034 0.83689 0.0
C2201 C 0.3145 0.69937 0.82166 0.0
C2202 C 0.27992 0.69728 0.87404 0.0
C2203 C 0.26045 0.71833 0.87577 0.0
C2204 C 0.2799 0.67606 0.88883 0.0
C2205 C 0.29858 0.65221 0.88715 0.0
C2206 C 0.29896 0.63625 0.86943 0.0
C2207 C 0.31711 0.61423 0.86769 0.0
C2208 C 0.33485 0.60786 0.88363 0.0
C2209 C 0.3344 0.62343 0.90137 0.0
C2210 C 0.3163 0.64548 0.90318 0.0
C2211 C 0.17164 0.69561 0.93209 0.0
C2212 C 0.17777 0.69486 0.95299 0.0
C2213 C 0.19231 0.69599 0.91743 0.0
C2214 C 0.21999 0.69596 0.92303 0.0
C2215 C 0.22648 0.69431 0.94387 0.0
C2216 C 0.20554 0.69381 0.95875 0.0
C2217 C 0.24165 0.69787 0.90686 0.0
C2218 C 0.26112 0.67684 0.90512 0.0
C2219 C 0.2415 0.71901 0.89198 0.0
C2220 C 0.22211 0.74239 0.89328 0.0
C2221 C 0.22022 0.75802 0.91111 0.0
C2222 C 0.20122 0.77934 0.91252 0.0
C2223 C 0.18427 0.78556 0.89608 0.0
C2224 C 0.18624 0.77038 0.87821 0.0
C2225 C 0.20508 0.74889 0.87676 0.0
H2226 H 0.1696 0.80211 0.89721 0.0
H2227 H 0.34892 0.59084 0.88224 0.0
H2228 H 0.64809 0.82336 0.07059 0.0
H2229 H 0.6455 0.79178 0.09965 0.0
H2230 H 0.73149 0.77336 0.09257 0.0
H2231 H 0.73393 0.80476 0.06359 0.0
H2232 H 0.70524 0.72864 0.10388 0.0
H2233 H 0.70973 0.82077 0.12632 0.0
H2234 H 0.69632 0.86928 0.12896 0.0
H2235 H 0.61834 0.84568 0.15386 0.0
H2236 H 0.63113 0.79694 0.15104 0.0
H2237 H 0.73877 0.67957 0.19996 0.0
H2238 H 0.73584 0.71159 0.17154 0.0
H2239 H 0.64887 0.72001 0.18174 0.0
H2240 H 0.65201 0.68827 0.21081 0.0
H2241 H 0.67278 0.76888 0.16866 0.0
H2242 H 0.67377 0.67399 0.14693 0.0
H2243 H 0.69304 0.62733 0.14558 0.0
H2244 H 0.76798 0.6591 0.12055 0.0
H2245 H 0.74929 0.70598 0.122 0.0
C2246 C 0.66607 0.81159 0.07472 0.0
C2247 C 0.69103 0.81585 0.06451 0.0
C2248 C 0.66474 0.79393 0.09156 0.0
C2249 C 0.68841 0.78041 0.09858 0.0
C2250 C 0.71292 0.78344 0.08753 0.0
C2251 C 0.71427 0.80119 0.07082 0.0
C2252 C 0.68824 0.76448 0.11802 0.0
C2253 C 0.69823 0.73754 0.11803 0.0
C2254 C 0.67912 0.77594 0.13661 0.0
C2255 C 0.67123 0.80519 0.13821 0.0
C2256 C 0.6896 0.8259 0.13216 0.0
C2257 C 0.68214 0.85344 0.13372 0.0
C2258 C 0.65646 0.86055 0.14151 0.0
C2259 C 0.6382 0.84013 0.14778 0.0
C2260 C 0.64554 0.81254 0.1462 0.0
C2261 C 0.71919 0.68903 0.19662 0.0
C2262 C 0.69569 0.68171 0.20776 0.0
C2263 C 0.71746 0.70708 0.18018 0.0
C2264 C 0.69201 0.71772 0.17408 0.0
C2265 C 0.66873 0.71198 0.18606 0.0
C2266 C 0.67054 0.69406 0.20279 0.0
C2267 C 0.68969 0.73305 0.15446 0.0
C2268 C 0.67936 0.75989 0.15444 0.0
C2269 C 0.69916 0.72176 0.13591 0.0
C2270 C 0.71017 0.6935 0.13468 0.0
C2271 C 0.69439 0.67103 0.14121 0.0
C2272 C 0.70521 0.64454 0.14043 0.0
C2273 C 0.73172 0.64026 0.133 0.0
C2274 C 0.74745 0.66244 0.12629 0.0
C2275 C 0.73674 0.68896 0.12707 0.0
H2276 H 0.74007 0.61975 0.13243 0.0
H2277 H 0.65073 0.88189 0.14274 0.0
H2278 H 0.71072 0.31954 0.80106 0.0
H2279 H 0.74378 0.3234 0.82928 0.0
H2280 H 0.67836 0.30876 0.87217 0.0
H2281 H 0.64588 0.30592 0.8447 0.0
H2282 H 0.70841 0.34528 0.88714 0.0
H2283 H 0.72557 0.2582 0.85626 0.0
H2284 H 0.73721 0.22731 0.82802 0.0
H2285 H 0.81597 0.26587 0.822 0.0
H2286 H 0.80457 0.29739 0.84995 0.0
H2287 H 0.78901 0.30254 0.97453 0.0
H2288 H 0.75583 0.30554 0.94632 0.0
H2289 H 0.82149 0.32706 0.9053 0.0
H2290 H 0.85414 0.32378 0.93292 0.0
H2291 H 0.7919 0.28757 0.88926 0.0
H2292 H 0.77202 0.37443 0.92228 0.0
H2293 H 0.75768 0.40331 0.95104 0.0
H2294 H 0.68108 0.3601 0.95461 0.0
H2295 H 0.69513 0.33079 0.92602 0.0
C2296 C 0.70349 0.31758 0.81654 0.0
C2297 C 0.67567 0.31217 0.82055 0.0
C2298 C 0.72239 0.31951 0.83268 0.0
C2299 C 0.71371 0.316 0.85301 0.0
C2300 C 0.6858 0.31156 0.8568 0.0
C2301 C 0.66717 0.30975 0.84091 0.0
C2302 C 0.73313 0.31633 0.8706 0.0
C2303 C 0.72657 0.33247 0.88757 0.0
C2304 C 0.75692 0.29973 0.87142 0.0
C2305 C 0.76403 0.28045 0.85494 0.0
C2306 C 0.74529 0.26022 0.84881 0.0
C2307 C 0.75185 0.24259 0.83288 0.0
C2308 C 0.77723 0.24478 0.82314 0.0
C2309 C 0.79626 0.26433 0.82949 0.0
C2310 C 0.78975 0.2821 0.84535 0.0
C2311 C 0.7961 0.30853 0.95958 0.0
C2312 C 0.82418 0.31296 0.95598 0.0
C2313 C 0.77721 0.31011 0.94342 0.0
C2314 C 0.78613 0.31642 0.92353 0.0
C2315 C 0.814 0.32188 0.92032 0.0
C2316 C 0.83267 0.32016 0.93625 0.0
C2317 C 0.76714 0.31656 0.90571 0.0
C2318 C 0.77378 0.30044 0.88874 0.0
C2319 C 0.74307 0.33268 0.90505 0.0
C2320 C 0.73473 0.35029 0.92219 0.0
C2321 C 0.75221 0.37099 0.92931 0.0
C2322 C 0.74412 0.38745 0.94556 0.0
C2323 C 0.71852 0.38349 0.95469 0.0
C2324 C 0.70092 0.36312 0.94755 0.0
C2325 C 0.70893 0.3466 0.93133 0.0
H2326 H 0.7123 0.39626 0.96726 0.0
H2327 H 0.78214 0.23143 0.81063 0.0
H2328 H 0.76039 0.68533 0.57119 0.0
H2329 H 0.7643 0.71742 0.59936 0.0
H2330 H 0.8523 0.71748 0.59262 0.0
H2331 H 0.84826 0.68511 0.56417 0.0
H2332 H 0.83575 0.707 0.63219 0.0
H2333 H 0.81528 0.77545 0.58157 0.0
H2334 H 0.78897 0.79538 0.55323 0.0
H2335 H 0.71635 0.79637 0.59019 0.0
H2336 H 0.74216 0.77617 0.61867 0.0
H2337 H 0.84881 0.81258 0.70874 0.0
H2338 H 0.85185 0.78093 0.67993 0.0
H2339 H 0.76376 0.78308 0.67391 0.0
H2340 H 0.76097 0.81529 0.70209 0.0
H2341 H 0.78499 0.79435 0.63946 0.0
H2342 H 0.80023 0.72412 0.68838 0.0
H2343 H 0.82201 0.7007 0.71733 0.0
H2344 H 0.89874 0.69899 0.68525 0.0
H2345 H 0.87747 0.72278 0.65619 0.0
C2346 C 0.78049 0.69308 0.57518 0.0
C2347 C 0.80395 0.68335 0.56516 0.0
C2348 C 0.78275 0.71129 0.5914 0.0
C2349 C 0.8086 0.72006 0.59813 0.0
C2350 C 0.83212 0.71113 0.58766 0.0
C2351 C 0.82981 0.69302 0.5712 0.0
C2352 C 0.81074 0.73694 0.61693 0.0
C2353 C 0.82516 0.72643 0.63367 0.0
C2354 C 0.79606 0.76173 0.6192 0.0
C2355 C 0.78062 0.77416 0.60218 0.0
C2356 C 0.79367 0.77979 0.5836 0.0
C2357 C 0.77885 0.79116 0.56753 0.0
C2358 C 0.75099 0.79709 0.56989 0.0
C2359 C 0.73792 0.79176 0.58837 0.0
C2360 C 0.75264 0.78041 0.60449 0.0
C2361 C 0.83009 0.80536 0.70175 0.0
C2362 C 0.8046 0.816 0.7078 0.0
C2363 C 0.83182 0.78739 0.68518 0.0
C2364 C 0.80802 0.77962 0.67455 0.0
C2365 C 0.78246 0.78885 0.68164 0.0
C2366 C 0.78081 0.80697 0.69795 0.0
C2367 C 0.8096 0.76424 0.65498 0.0
C2368 C 0.7959 0.77509 0.63803 0.0
C2369 C 0.82438 0.73946 0.65272 0.0
C2370 C 0.83737 0.72558 0.67024 0.0
C2371 C 0.82183 0.71904 0.68759 0.0
C2372 C 0.83406 0.70564 0.704 0.0
C2373 C 0.86177 0.69846 0.70316 0.0
C2374 C 0.87729 0.70464 0.6859 0.0
C2375 C 0.86517 0.71808 0.66946 0.0
H2376 H 0.87119 0.68804 0.71587 0.0
H2377 H 0.73955 0.80586 0.55742 0.0
H2378 H 0.78734 0.19883 0.30004 0.0
H2379 H 0.75439 0.19679 0.32849 0.0
H2380 H 0.81915 0.16968 0.36829 0.0
H2381 H 0.85131 0.17094 0.34014 0.0
H2382 H 0.77657 0.1449 0.37933 0.0
H2383 H 0.79671 0.23843 0.36465 0.0
H2384 H 0.80008 0.28072 0.34424 0.0
H2385 H 0.71289 0.28021 0.33533 0.0
H2386 H 0.70905 0.23765 0.35542 0.0
H2387 H 0.70608 0.17976 0.47322 0.0
H2388 H 0.74044 0.17761 0.44564 0.0
H2389 H 0.67792 0.19881 0.40217 0.0
H2390 H 0.64438 0.20137 0.42903 0.0
H2391 H 0.72144 0.22765 0.39419 0.0
H2392 H 0.70454 0.1308 0.40965 0.0
H2393 H 0.70472 0.09039 0.43223 0.0
H2394 H 0.79108 0.10071 0.44236 0.0
H2395 H 0.7913 0.14134 0.42001 0.0
C2396 C 0.79415 0.19154 0.31471 0.0
C2397 C 0.82183 0.18482 0.31783 0.0
C2398 C 0.77548 0.19083 0.33109 0.0
C2399 C 0.7843 0.1836 0.3508 0.0
C2400 C 0.81162 0.17539 0.35342 0.0
C2401 C 0.83006 0.17606 0.33722 0.0
C2402 C 0.76584 0.18541 0.36899 0.0
C2403 C 0.7647 0.16315 0.38258 0.0
C2404 C 0.75038 0.20919 0.37358 0.0
C2405 C 0.75264 0.23463 0.36131 0.0
C2406 C 0.77829 0.24718 0.35816 0.0
C2407 C 0.78028 0.27123 0.34668 0.0
C2408 C 0.75673 0.28309 0.33843 0.0
C2409 C 0.73113 0.27095 0.34168 0.0
C2410 C 0.72903 0.24686 0.35311 0.0
C2411 C 0.69976 0.1838 0.45777 0.0
C2412 C 0.67238 0.19083 0.45351 0.0
C2413 C 0.71939 0.18256 0.44196 0.0
C2414 C 0.71187 0.18803 0.42164 0.0
C2415 C 0.68452 0.19474 0.41758 0.0
C2416 C 0.66521 0.1961 0.43315 0.0
C2417 C 0.73178 0.18693 0.40426 0.0
C2418 C 0.7333 0.20942 0.39086 0.0
C2419 C 0.74808 0.16364 0.40007 0.0
C2420 C 0.74786 0.13921 0.41337 0.0
C2421 C 0.72351 0.12452 0.41681 0.0
C2422 C 0.72355 0.10158 0.42954 0.0
C2423 C 0.74788 0.09304 0.43877 0.0
C2424 C 0.77224 0.10737 0.43523 0.0
C2425 C 0.7723 0.13033 0.42254 0.0
H2426 H 0.74786 0.07528 0.44863 0.0
H2427 H 0.75832 0.30172 0.32956 0.0
H2428 H 0.16929 0.15419 0.68324 0.0
H2429 H 0.16978 0.18881 0.65661 0.0
H2430 H 0.21174 0.24446 0.69658 0.0
H2431 H 0.21052 0.20954 0.7238 0.0
H2432 H 0.17712 0.27262 0.67328 0.0
H2433 H 0.24609 0.20607 0.65892 0.0
H2434 H 0.26493 0.15978 0.65373 0.0
H2435 H 0.21057 0.14767 0.60341 0.0
H2436 H 0.19111 0.19378 0.60848 0.0
H2437 H 0.22074 0.36231 0.59665 0.0
H2438 H 0.22178 0.32716 0.62298 0.0
H2439 H 0.17839 0.27183 0.58361 0.0
H2440 H 0.17839 0.30706 0.55664 0.0
H2441 H 0.2142 0.24347 0.60658 0.0
H2442 H 0.14495 0.31058 0.62183 0.0
H2443 H 0.12812 0.35772 0.62671 0.0
H2444 H 0.18517 0.36913 0.67548 0.0
H2445 H 0.20257 0.32215 0.67072 0.0
C2446 C 0.17805 0.17404 0.68662 0.0
C2447 C 0.18961 0.17909 0.70581 0.0
C2448 C 0.17867 0.1938 0.67118 0.0
C2449 C 0.19153 0.21922 0.67414 0.0
C2450 C 0.20186 0.225 0.69369 0.0
C2451 C 0.20095 0.20513 0.70938 0.0
C2452 C 0.19463 0.23908 0.65664 0.0
C2453 C 0.18561 0.26623 0.65884 0.0
C2454 C 0.20519 0.23097 0.63741 0.0
C2455 C 0.21699 0.20331 0.63419 0.0
C2456 C 0.23803 0.19348 0.64683 0.0
C2457 C 0.24884 0.16727 0.6439 0.0
C2458 C 0.23892 0.15077 0.62827 0.0
C2459 C 0.21822 0.16047 0.61552 0.0
C2460 C 0.20731 0.18665 0.6184 0.0
C2461 C 0.21184 0.34248 0.5934 0.0
C2462 C 0.19942 0.33762 0.5745 0.0
C2463 C 0.2122 0.32237 0.60862 0.0
C2464 C 0.19937 0.29689 0.60576 0.0
C2465 C 0.18824 0.29132 0.58644 0.0
C2466 C 0.18833 0.31145 0.57094 0.0
C2467 C 0.19664 0.27695 0.62325 0.0
C2468 C 0.20569 0.24979 0.62104 0.0
C2469 C 0.18624 0.28505 0.6425 0.0
C2470 C 0.17513 0.31292 0.64586 0.0
C2471 C 0.15392 0.32317 0.63358 0.0
C2472 C 0.1443 0.34986 0.63631 0.0
C2473 C 0.15558 0.36642 0.65138 0.0
C2474 C 0.17644 0.35628 0.66382 0.0
C2475 C 0.18615 0.32961 0.66114 0.0
H2476 H 0.14816 0.38711 0.65344 0.0
H2477 H 0.24731 0.13049 0.62603 0.0
H2478 H 0.36143 0.77525 0.42672 0.0
H2479 H 0.3266 0.77498 0.40021 0.0
H2480 H 0.27196 0.82046 0.43905 0.0
H2481 H 0.3067 0.81951 0.46618 0.0
H2482 H 0.24293 0.78582 0.41637 0.0
H2483 H 0.31335 0.85219 0.40098 0.0
H2484 H 0.36127 0.867 0.39598 0.0
H2485 H 0.37061 0.80916 0.34755 0.0
H2486 H 0.32283 0.79379 0.35242 0.0
H2487 H 0.15646 0.83318 0.33916 0.0
H2488 H 0.19097 0.83265 0.3659 0.0
H2489 H 0.24546 0.78705 0.32701 0.0
H2490 H 0.21083 0.78834 0.29979 0.0
H2491 H 0.27447 0.82153 0.34969 0.0
H2492 H 0.20476 0.75548 0.36408 0.0
H2493 H 0.15747 0.73886 0.3691 0.0
H2494 H 0.14709 0.7939 0.41917 0.0
H2495 H 0.19421 0.81116 0.41426 0.0
C2496 C 0.34176 0.7847 0.42978 0.0
C2497 C 0.33685 0.79743 0.44853 0.0
C2498 C 0.32189 0.78481 0.4145 0.0
C2499 C 0.29681 0.79852 0.4172 0.0
C2500 C 0.29118 0.80995 0.4364 0.0
C2501 C 0.31099 0.80931 0.45197 0.0
C2502 C 0.27734 0.80192 0.39968 0.0
C2503 C 0.24979 0.79402 0.40191 0.0
C2504 C 0.28617 0.81194 0.38048 0.0
C2505 C 0.31459 0.82177 0.37712 0.0
C2506 C 0.32565 0.84262 0.38928 0.0
C2507 C 0.35278 0.85109 0.38648 0.0
C2508 C 0.36898 0.83901 0.37147 0.0
C2509 C 0.35804 0.81851 0.35916 0.0
C2510 C 0.33092 0.80994 0.36191 0.0
C2511 C 0.17613 0.82372 0.33608 0.0
C2512 C 0.18105 0.81109 0.31728 0.0
C2513 C 0.19576 0.82308 0.35152 0.0
C2514 C 0.22068 0.80912 0.34884 0.0
C2515 C 0.22636 0.79782 0.3296 0.0
C2516 C 0.20669 0.79876 0.31395 0.0
C2517 C 0.24004 0.80551 0.36638 0.0
C2518 C 0.26758 0.81338 0.36416 0.0
C2519 C 0.2312 0.79532 0.38554 0.0
C2520 C 0.20295 0.78476 0.3887 0.0
C2521 C 0.19234 0.76415 0.37609 0.0
C2522 C 0.16557 0.75461 0.37892 0.0
C2523 C 0.14927 0.76536 0.39442 0.0
C2524 C 0.15974 0.78562 0.40716 0.0
C2525 C 0.18649 0.79527 0.40437 0.0
H2526 H 0.12855 0.75794 0.39658 0.0
H2527 H 0.39 0.84555 0.36936 0.0
loop_
_geom_bond_atom_site_label_1
_geom_bond_atom_site_label_2
_geom_bond_distance
_geom_bond_site_symmetry_2
_ccdc_geom_bond_type
C0 C1 1.351 . S
C0 N3 1.368 . S
C0 H5 0.931 . S
C1 C0 1.351 . S
C1 N2 1.339 1_554 S
C1 H29 0.930 . S
N2 C1 1.339 1_556 S
N2 C4 1.356 . S
N3 C0 1.368 . S
N3 C4 1.321 1_554 S
N3 Co6 2.128 1_554 S
C4 N2 1.356 . S
C4 N3 1.321 1_556 S
C4 H28 0.930 . S
H5 C0 0.931 . S
Co6 N3 2.128 1_556 S
Co6 N9 2.129 . S
Co6 O14 2.028 1_556 S
Co6 O17 2.084 . S
Co6 N20 2.132 1_556 S
C7 O8 1.227 . S
C7 O17 1.265 . S
O8 C7 1.227 . S
N9 Co6 2.129 . S
N9 C11 1.375 . S
N9 C12 1.313 1_556 S
C10 C11 1.338 . S
C10 N13 1.421 . S
C10 H30 0.930 . S
C11 N9 1.375 . S
C11 C10 1.338 . S
C11 H15 0.931 . S
C12 N9 1.313 1_554 S
C12 N13 1.327 1_554 S
C12 H16 0.930 . S
N13 C10 1.421 . S
N13 C12 1.327 1_556 S
O14 Co6 2.028 1_554 S
O14 C18 1.253 . S
H15 C11 0.931 . S
H16 C12 0.930 . S
O17 Co6 2.084 . S
O17 C7 1.265 . S
C18 O14 1.253 . S
C18 O19 1.227 . S
O19 C18 1.227 . S
N20 Co6 2.132 1_554 S
N20 C23 1.346 1_554 S
N20 C24 1.345 . S
C21 C22 1.381 1_554 S
C21 C25 1.391 . S
C22 C21 1.381 1_556 S
C22 C23 1.371 . S
C22 H31 0.934 . S
C23 N20 1.346 1_556 S
C23 C22 1.371 . S
C23 H26 0.928 . S
C24 N20 1.345 . S
C24 C25 1.371 . S
C24 H27 0.931 . S
C25 C21 1.391 . S
C25 C24 1.371 . S
C25 H32 0.930 . S
H26 C23 0.928 . S
H27 C24 0.931 . S
H28 C4 0.930 . S
H29 C1 0.930 . S
H30 C10 0.930 . S
H31 C22 0.934 . S
H32 C25 0.930 . S
C33 C34 1.351 . S
C33 N36 1.368 . S
C33 H38 0.931 . S
C34 C33 1.351 . S
C34 N35 1.339 1_556 S
C34 H62 0.930 . S
N35 C34 1.339 1_554 S
N35 C37 1.356 . S
N36 C33 1.368 . S
N36 C37 1.321 1_556 S
N36 Co39 2.128 1_556 S
C37 N35 1.356 . S
C37 N36 1.321 1_554 S
C37 H61 0.930 . S
H38 C33 0.931 . S
Co39 N36 2.128 1_554 S
Co39 N42 2.129 . S
Co39 O47 2.028 1_554 S
Co39 O50 2.084 . S
Co39 N53 2.132 1_554 S
C40 O41 1.227 . S
C40 O50 1.265 . S
O41 C40 1.227 . S
N42 Co39 2.129 . S
N42 C44 1.375 . S
N42 C45 1.313 1_554 S
C43 C44 1.338 . S
C43 N46 1.421 . S
C43 H63 0.930 . S
C44 N42 1.375 . S
C44 C43 1.338 . S
C44 H48 0.931 . S
C45 N42 1.313 1_556 S
C45 N46 1.327 1_556 S
C45 H49 0.930 . S
N46 C43 1.421 . S
N46 C45 1.327 1_554 S
O47 Co39 2.028 1_556 S
O47 C51 1.253 . S
H48 C44 0.931 . S
H49 C45 0.930 . S
O50 Co39 2.084 . S
O50 C40 1.265 . S
C51 O47 1.253 . S
C51 O52 1.227 . S
O52 C51 1.227 . S
N53 Co39 2.132 1_556 S
N53 C56 1.346 1_556 S
N53 C57 1.345 . S
C54 C55 1.381 1_556 S
C54 C58 1.391 . S
C55 C54 1.381 1_554 S
C55 C56 1.371 . S
C55 H64 0.934 . S
C56 N53 1.346 1_554 S
C56 C55 1.371 . S
C56 H59 0.928 . S
C57 N53 1.345 . S
C57 C58 1.371 . S
C57 H60 0.931 . S
C58 C54 1.391 . S
C58 C57 1.371 . S
C58 H65 0.930 . S
H59 C56 0.928 . S
H60 C57 0.931 . S
H61 C37 0.930 . S
H62 C34 0.930 . S
H63 C43 0.930 . S
H64 C55 0.934 . S
H65 C58 0.930 . S
C66 C67 1.351 . S
C66 N69 1.368 . S
C66 H71 0.931 . S
C67 C66 1.351 . S
C67 N68 1.339 1_554 S
C67 H95 0.930 . S
N68 C67 1.339 1_556 S
N68 C70 1.356 . S
N69 C66 1.368 . S
N69 C70 1.321 1_554 S
N69 Co72 2.128 1_554 S
C70 N68 1.356 . S
C70 N69 1.321 1_556 S
C70 H94 0.930 . S
H71 C66 0.931 . S
Co72 N69 2.128 1_556 S
Co72 N75 2.129 . S
Co72 O80 2.028 1_556 S
Co72 O83 2.084 . S
Co72 N86 2.132 1_556 S
C73 O74 1.227 . S
C73 O83 1.265 . S
O74 C73 1.227 . S
N75 Co72 2.129 . S
N75 C77 1.375 . S
N75 C78 1.313 1_556 S
C76 C77 1.338 . S
C76 N79 1.421 . S
C76 H96 0.930 . S
C77 N75 1.375 . S
C77 C76 1.338 . S
C77 H81 0.931 . S
C78 N75 1.313 1_554 S
C78 N79 1.327 1_554 S
C78 H82 0.930 . S
N79 C76 1.421 . S
N79 C78 1.327 1_556 S
O80 Co72 2.028 1_554 S
O80 C84 1.253 . S
H81 C77 0.931 . S
H82 C78 0.930 . S
O83 Co72 2.084 . S
O83 C73 1.265 . S
C84 O80 1.253 . S
C84 O85 1.227 . S
O85 C84 1.227 . S
N86 Co72 2.132 1_554 S
N86 C89 1.346 1_554 S
N86 C90 1.345 . S
C87 C88 1.381 1_554 S
C87 C91 1.391 . S
C88 C87 1.381 1_556 S
C88 C89 1.371 . S
C88 H97 0.934 . S
C89 N86 1.346 1_556 S
C89 C88 1.371 . S
C89 H92 0.928 . S
C90 N86 1.345 . S
C90 C91 1.371 . S
C90 H93 0.931 . S
C91 C87 1.391 . S
C91 C90 1.371 . S
C91 H98 0.930 . S
H92 C89 0.928 . S
H93 C90 0.931 . S
H94 C70 0.930 . S
H95 C67 0.930 . S
H96 C76 0.930 . S
H97 C88 0.934 . S
H98 C91 0.930 . S
C99 C100 1.351 . S
C99 N102 1.368 . S
C99 H104 0.931 . S
C100 C99 1.351 . S
C100 N101 1.339 1_556 S
C100 H128 0.930 . S
N101 C100 1.339 1_554 S
N101 C103 1.356 . S
N102 C99 1.368 . S
N102 C103 1.321 1_556 S
N102 Co105 2.128 1_556 S
C103 N101 1.356 . S
C103 N102 1.321 1_554 S
C103 H127 0.930 . S
H104 C99 0.931 . S
Co105 N102 2.128 1_554 S
Co105 N108 2.129 . S
Co105 O113 2.028 1_554 S
Co105 O116 2.084 . S
Co105 N119 2.132 1_554 S
C106 O107 1.227 . S
C106 O116 1.265 . S
O107 C106 1.227 . S
N108 Co105 2.129 . S
N108 C110 1.375 . S
N108 C111 1.313 1_554 S
C109 C110 1.338 . S
C109 N112 1.421 . S
C109 H129 0.930 . S
C110 N108 1.375 . S
C110 C109 1.338 . S
C110 H114 0.931 . S
C111 N108 1.313 1_556 S
C111 N112 1.327 1_556 S
C111 H115 0.930 . S
N112 C109 1.421 . S
N112 C111 1.327 1_554 S
O113 Co105 2.028 1_556 S
O113 C117 1.253 . S
H114 C110 0.931 . S
H115 C111 0.930 . S
O116 Co105 2.084 . S
O116 C106 1.265 . S
C117 O113 1.253 . S
C117 O118 1.227 . S
O118 C117 1.227 . S
N119 Co105 2.132 1_556 S
N119 C122 1.346 1_556 S
N119 C123 1.345 . S
C120 C121 1.381 1_556 S
C120 C124 1.391 . S
C121 C120 1.381 1_554 S
C121 C122 1.371 . S
C121 H130 0.934 . S
C122 N119 1.346 1_554 S
C122 C121 1.371 . S
C122 H125 0.928 . S
C123 N119 1.345 . S
C123 C124 1.371 . S
C123 H126 0.931 . S
C124 C120 1.391 . S
C124 C123 1.371 . S
C124 H131 0.930 . S
H125 C122 0.928 . S
H126 C123 0.931 . S
H127 C103 0.930 . S
H128 C100 0.930 . S
H129 C109 0.930 . S
H130 C121 0.934 . S
H131 C124 0.930 . S
C132 C133 1.351 . S
C132 N135 1.368 . S
C132 H137 0.931 . S
C133 C132 1.351 . S
C133 N134 1.373 . S
C133 H161 0.930 . S
N134 C133 1.373 . S
N134 C136 1.340 . S
N135 C132 1.368 . S
N135 C136 1.321 . S
N135 Co138 2.135 . S
C136 N134 1.340 . S
C136 N135 1.321 . S
C136 H160 0.930 . S
H137 C132 0.931 . S
Co138 N135 2.135 . S
Co138 N141 2.121 . S
Co138 O146 2.055 . S
Co138 O149 2.039 . S
Co138 N152 2.140 . S
C139 O140 1.227 . S
C139 O149 1.265 . S
O140 C139 1.227 . S
N141 Co138 2.121 . S
N141 C143 1.375 . S
N141 C144 1.313 . S
C142 C143 1.338 . S
C142 N145 1.377 . S
C142 H162 0.930 . S
C143 N141 1.375 . S
C143 C142 1.338 . S
C143 H147 0.931 . S
C144 N141 1.313 . S
C144 N145 1.344 . S
C144 H148 0.930 . S
N145 C142 1.377 . S
N145 C144 1.344 . S
O146 Co138 2.055 . S
O146 C150 1.253 . S
H147 C143 0.931 . S
H148 C144 0.930 . S
O149 Co138 2.039 . S
O149 C139 1.265 . S
C150 O146 1.253 . S
C150 O151 1.227 . S
O151 C150 1.227 . S
N152 Co138 2.140 . S
N152 C155 1.346 . S
N152 C156 1.345 . S
C153 C154 1.387 . S
C153 C157 1.391 . S
C154 C153 1.387 . S
C154 C155 1.369 . S
C154 H163 0.929 . S
C155 N152 1.346 . S
C155 C154 1.369 . S
C155 H158 0.928 . S
C156 N152 1.345 . S
C156 C157 1.371 . S
C156 H159 0.931 . S
C157 C153 1.391 . S
C157 C156 1.371 . S
C157 H164 0.930 . S
H158 C155 0.928 . S
H159 C156 0.931 . S
H160 C136 0.930 . S
H161 C133 0.930 . S
H162 C142 0.930 . S
H163 C154 0.929 . S
H164 C157 0.930 . S
C165 C166 1.351 . S
C165 N168 1.368 . S
C165 H170 0.931 . S
C166 C165 1.351 . S
C166 N167 1.373 . S
C166 H194 0.930 . S
N167 C166 1.373 . S
N167 C169 1.340 . S
N168 C165 1.368 . S
N168 C169 1.321 . S
N168 Co171 2.135 . S
C169 N167 1.340 . S
C169 N168 1.321 . S
C169 H193 0.930 . S
H170 C165 0.931 . S
Co171 N168 2.135 . S
Co171 N174 2.121 . S
Co171 O179 2.055 . S
Co171 O182 2.039 . S
Co171 N185 2.140 . S
C172 O173 1.227 . S
C172 O182 1.265 . S
O173 C172 1.227 . S
N174 Co171 2.121 . S
N174 C176 1.375 . S
N174 C177 1.313 . S
C175 C176 1.338 . S
C175 N178 1.377 . S
C175 H195 0.930 . S
C176 N174 1.375 . S
C176 C175 1.338 . S
C176 H180 0.931 . S
C177 N174 1.313 . S
C177 N178 1.344 . S
C177 H181 0.930 . S
N178 C175 1.377 . S
N178 C177 1.344 . S
O179 Co171 2.055 . S
O179 C183 1.253 . S
H180 C176 0.931 . S
H181 C177 0.930 . S
O182 Co171 2.039 . S
O182 C172 1.265 . S
C183 O179 1.253 . S
C183 O184 1.227 . S
O184 C183 1.227 . S
N185 Co171 2.140 . S
N185 C188 1.346 . S
N185 C189 1.345 . S
C186 C187 1.387 . S
C186 C190 1.391 . S
C187 C186 1.387 . S
C187 C188 1.369 . S
C187 H196 0.929 . S
C188 N185 1.346 . S
C188 C187 1.369 . S
C188 H191 0.928 . S
C189 N185 1.345 . S
C189 C190 1.371 . S
C189 H192 0.931 . S
C190 C186 1.391 . S
C190 C189 1.371 . S
C190 H197 0.930 . S
H191 C188 0.928 . S
H192 C189 0.931 . S
H193 C169 0.930 . S
H194 C166 0.930 . S
H195 C175 0.930 . S
H196 C187 0.929 . S
H197 C190 0.930 . S
C198 C199 1.351 . S
C198 N201 1.368 . S
C198 H203 0.931 . S
C199 C198 1.351 . S
C199 N200 1.373 . S
C199 H227 0.930 . S
N200 C199 1.373 . S
N200 C202 1.340 . S
N201 C198 1.368 . S
N201 C202 1.321 . S
N201 Co204 2.135 . S
C202 N200 1.340 . S
C202 N201 1.321 . S
C202 H226 0.930 . S
H203 C198 0.931 . S
Co204 N201 2.135 . S
Co204 N207 2.121 . S
Co204 O212 2.055 . S
Co204 O215 2.039 . S
Co204 N218 2.140 . S
C205 O206 1.227 . S
C205 O215 1.265 . S
O206 C205 1.227 . S
N207 Co204 2.121 . S
N207 C209 1.375 . S
N207 C210 1.313 . S
C208 C209 1.338 . S
C208 N211 1.377 . S
C208 H228 0.930 . S
C209 N207 1.375 . S
C209 C208 1.338 . S
C209 H213 0.931 . S
C210 N207 1.313 . S
C210 N211 1.344 . S
C210 H214 0.930 . S
N211 C208 1.377 . S
N211 C210 1.344 . S
O212 Co204 2.055 . S
O212 C216 1.253 . S
H213 C209 0.931 . S
H214 C210 0.930 . S
O215 Co204 2.039 . S
O215 C205 1.265 . S
C216 O212 1.253 . S
C216 O217 1.227 . S
O217 C216 1.227 . S
N218 Co204 2.140 . S
N218 C221 1.346 . S
N218 C222 1.345 . S
C219 C220 1.387 . S
C219 C223 1.391 . S
C220 C219 1.387 . S
C220 C221 1.369 . S
C220 H229 0.929 . S
C221 N218 1.346 . S
C221 C220 1.369 . S
C221 H224 0.928 . S
C222 N218 1.345 . S
C222 C223 1.371 . S
C222 H225 0.931 . S
C223 C219 1.391 . S
C223 C222 1.371 . S
C223 H230 0.930 . S
H224 C221 0.928 . S
H225 C222 0.931 . S
H226 C202 0.930 . S
H227 C199 0.930 . S
H228 C208 0.930 . S
H229 C220 0.929 . S
H230 C223 0.930 . S
C231 C232 1.351 . S
C231 N234 1.368 . S
C231 H236 0.931 . S
C232 C231 1.351 . S
C232 N233 1.373 . S
C232 H260 0.930 . S
N233 C232 1.373 . S
N233 C235 1.340 . S
N234 C231 1.368 . S
N234 C235 1.321 . S
N234 Co237 2.135 . S
C235 N233 1.340 . S
C235 N234 1.321 . S
C235 H259 0.930 . S
H236 C231 0.931 . S
Co237 N234 2.135 . S
Co237 N240 2.121 . S
Co237 O245 2.055 . S
Co237 O248 2.039 . S
Co237 N251 2.140 . S
C238 O239 1.227 . S
C238 O248 1.265 . S
O239 C238 1.227 . S
N240 Co237 2.121 . S
N240 C242 1.375 . S
N240 C243 1.313 . S
C241 C242 1.338 . S
C241 N244 1.377 . S
C241 H261 0.930 . S
C242 N240 1.375 . S
C242 C241 1.338 . S
C242 H246 0.931 . S
C243 N240 1.313 . S
C243 N244 1.344 . S
C243 H247 0.930 . S
N244 C241 1.377 . S
N244 C243 1.344 . S
O245 Co237 2.055 . S
O245 C249 1.253 . S
H246 C242 0.931 . S
H247 C243 0.930 . S
O248 Co237 2.039 . S
O248 C238 1.265 . S
C249 O245 1.253 . S
C249 O250 1.227 . S
O250 C249 1.227 . S
N251 Co237 2.140 . S
N251 C254 1.346 . S
N251 C255 1.345 . S
C252 C253 1.387 . S
C252 C256 1.391 . S
C253 C252 1.387 . S
C253 C254 1.369 . S
C253 H262 0.929 . S
C254 N251 1.346 . S
C254 C253 1.369 . S
C254 H257 0.928 . S
C255 N251 1.345 . S
C255 C256 1.371 . S
C255 H258 0.931 . S
C256 C252 1.391 . S
C256 C255 1.371 . S
C256 H263 0.930 . S
H257 C254 0.928 . S
H258 C255 0.931 . S
H259 C235 0.930 . S
H260 C232 0.930 . S
H261 C241 0.930 . S
H262 C253 0.929 . S
H263 C256 0.930 . S
C264 C265 1.351 . S
C264 N267 1.368 . S
C264 H269 0.931 . S
C265 C264 1.351 . S
C265 N266 1.373 . S
C265 H293 0.930 . S
N266 C265 1.373 . S
N266 C268 1.340 . S
N267 C264 1.368 . S
N267 C268 1.321 . S
N267 Co270 2.135 . S
C268 N266 1.340 . S
C268 N267 1.321 . S
C268 H292 0.930 . S
H269 C264 0.931 . S
Co270 N267 2.135 . S
Co270 N273 2.121 . S
Co270 O278 2.055 . S
Co270 O281 2.039 . S
Co270 N284 2.140 . S
C271 O272 1.227 . S
C271 O281 1.265 . S
O272 C271 1.227 . S
N273 Co270 2.121 . S
N273 C275 1.375 . S
N273 C276 1.313 . S
C274 C275 1.338 . S
C274 N277 1.377 . S
C274 H294 0.930 . S
C275 N273 1.375 . S
C275 C274 1.338 . S
C275 H279 0.931 . S
C276 N273 1.313 . S
C276 N277 1.344 . S
C276 H280 0.930 . S
N277 C274 1.377 . S
N277 C276 1.344 . S
O278 Co270 2.055 . S
O278 C282 1.253 . S
H279 C275 0.931 . S
H280 C276 0.930 . S
O281 Co270 2.039 . S
O281 C271 1.265 . S
C282 O278 1.253 . S
C282 O283 1.227 . S
O283 C282 1.227 . S
N284 Co270 2.140 . S
N284 C287 1.346 . S
N284 C288 1.345 . S
C285 C286 1.387 . S
C285 C289 1.391 . S
C286 C285 1.387 . S
C286 C287 1.369 . S
C286 H295 0.929 . S
C287 N284 1.346 . S
C287 C286 1.369 . S
C287 H290 0.928 . S
C288 N284 1.345 . S
C288 C289 1.371 . S
C288 H291 0.931 . S
C289 C285 1.391 . S
C289 C288 1.371 . S
C289 H296 0.930 . S
H290 C287 0.928 . S
H291 C288 0.931 . S
H292 C268 0.930 . S
H293 C265 0.930 . S
H294 C274 0.930 . S
H295 C286 0.929 . S
H296 C289 0.930 . S
C297 C298 1.351 . S
C297 N300 1.368 . S
C297 H302 0.931 . S
C298 C297 1.351 . S
C298 N299 1.373 . S
C298 H326 0.930 . S
N299 C298 1.373 . S
N299 C301 1.340 . S
N300 C297 1.368 . S
N300 C301 1.321 . S
N300 Co303 2.135 . S
C301 N299 1.340 . S
C301 N300 1.321 . S
C301 H325 0.930 . S
H302 C297 0.931 . S
Co303 N300 2.135 . S
Co303 N306 2.121 . S
Co303 O311 2.055 . S
Co303 O314 2.039 . S
Co303 N317 2.140 . S
C304 O305 1.227 . S
C304 O314 1.265 . S
O305 C304 1.227 . S
N306 Co303 2.121 . S
N306 C308 1.375 . S
N306 C309 1.313 . S
C307 C308 1.338 . S
C307 N310 1.377 . S
C307 H327 0.930 . S
C308 N306 1.375 . S
C308 C307 1.338 . S
C308 H312 0.931 . S
C309 N306 1.313 . S
C309 N310 1.344 . S
C309 H313 0.930 . S
N310 C307 1.377 . S
N310 C309 1.344 . S
O311 Co303 2.055 . S
O311 C315 1.253 . S
H312 C308 0.931 . S
H313 C309 0.930 . S
O314 Co303 2.039 . S
O314 C304 1.265 . S
C315 O311 1.253 . S
C315 O316 1.227 . S
O316 C315 1.227 . S
N317 Co303 2.140 . S
N317 C320 1.346 . S
N317 C321 1.345 . S
C318 C319 1.387 . S
C318 C322 1.391 . S
C319 C318 1.387 . S
C319 C320 1.369 . S
C319 H328 0.929 . S
C320 N317 1.346 . S
C320 C319 1.369 . S
C320 H323 0.928 . S
C321 N317 1.345 . S
C321 C322 1.371 . S
C321 H324 0.931 . S
C322 C318 1.391 . S
C322 C321 1.371 . S
C322 H329 0.930 . S
H323 C320 0.928 . S
H324 C321 0.931 . S
H325 C301 0.930 . S
H326 C298 0.930 . S
H327 C307 0.930 . S
H328 C319 0.929 . S
H329 C322 0.930 . S
C330 C331 1.351 . S
C330 N333 1.368 . S
C330 H335 0.931 . S
C331 C330 1.351 . S
C331 N332 1.373 . S
C331 H359 0.930 . S
N332 C331 1.373 . S
N332 C334 1.340 . S
N333 C330 1.368 . S
N333 C334 1.321 . S
N333 Co336 2.135 . S
C334 N332 1.340 . S
C334 N333 1.321 . S
C334 H358 0.930 . S
H335 C330 0.931 . S
Co336 N333 2.135 . S
Co336 N339 2.121 . S
Co336 O344 2.055 . S
Co336 O347 2.039 . S
Co336 N350 2.140 . S
C337 O338 1.227 . S
C337 O347 1.265 . S
O338 C337 1.227 . S
N339 Co336 2.121 . S
N339 C341 1.375 . S
N339 C342 1.313 . S
C340 C341 1.338 . S
C340 N343 1.377 . S
C340 H360 0.930 . S
C341 N339 1.375 . S
C341 C340 1.338 . S
C341 H345 0.931 . S
C342 N339 1.313 . S
C342 N343 1.344 . S
C342 H346 0.930 . S
N343 C340 1.377 . S
N343 C342 1.344 . S
O344 Co336 2.055 . S
O344 C348 1.253 . S
H345 C341 0.931 . S
H346 C342 0.930 . S
O347 Co336 2.039 . S
O347 C337 1.265 . S
C348 O344 1.253 . S
C348 O349 1.227 . S
O349 C348 1.227 . S
N350 Co336 2.140 . S
N350 C353 1.346 . S
N350 C354 1.345 . S
C351 C352 1.387 . S
C351 C355 1.391 . S
C352 C351 1.387 . S
C352 C353 1.369 . S
C352 H361 0.929 . S
C353 N350 1.346 . S
C353 C352 1.369 . S
C353 H356 0.928 . S
C354 N350 1.345 . S
C354 C355 1.371 . S
C354 H357 0.931 . S
C355 C351 1.391 . S
C355 C354 1.371 . S
C355 H362 0.930 . S
H356 C353 0.928 . S
H357 C354 0.931 . S
H358 C334 0.930 . S
H359 C331 0.930 . S
H360 C340 0.930 . S
H361 C352 0.929 . S
H362 C355 0.930 . S
C363 C364 1.351 . S
C363 N366 1.368 . S
C363 H368 0.931 . S
C364 C363 1.351 . S
C364 N365 1.373 . S
C364 H392 0.930 . S
N365 C364 1.373 . S
N365 C367 1.340 . S
N366 C363 1.368 . S
N366 C367 1.321 . S
N366 Co369 2.135 . S
C367 N365 1.340 . S
C367 N366 1.321 . S
C367 H391 0.930 . S
H368 C363 0.931 . S
Co369 N366 2.135 . S
Co369 N372 2.121 . S
Co369 O377 2.055 . S
Co369 O380 2.039 . S
Co369 N383 2.140 . S
C370 O371 1.227 . S
C370 O380 1.265 . S
O371 C370 1.227 . S
N372 Co369 2.121 . S
N372 C374 1.375 . S
N372 C375 1.313 . S
C373 C374 1.338 . S
C373 N376 1.377 . S
C373 H393 0.930 . S
C374 N372 1.375 . S
C374 C373 1.338 . S
C374 H378 0.931 . S
C375 N372 1.313 . S
C375 N376 1.344 . S
C375 H379 0.930 . S
N376 C373 1.377 . S
N376 C375 1.344 . S
O377 Co369 2.055 . S
O377 C381 1.253 . S
H378 C374 0.931 . S
H379 C375 0.930 . S
O380 Co369 2.039 . S
O380 C370 1.265 . S
C381 O377 1.253 . S
C381 O382 1.227 . S
O382 C381 1.227 . S
N383 Co369 2.140 . S
N383 C386 1.346 . S
N383 C387 1.345 . S
C384 C385 1.387 . S
C384 C388 1.391 . S
C385 C384 1.387 . S
C385 C386 1.369 . S
C385 H394 0.929 . S
C386 N383 1.346 . S
C386 C385 1.369 . S
C386 H389 0.928 . S
C387 N383 1.345 . S
C387 C388 1.371 . S
C387 H390 0.931 . S
C388 C384 1.391 . S
C388 C387 1.371 . S
C388 H395 0.930 . S
H389 C386 0.928 . S
H390 C387 0.931 . S
H391 C367 0.930 . S
H392 C364 0.930 . S
H393 C373 0.930 . S
H394 C385 0.929 . S
H395 C388 0.930 . S
C396 C397 1.351 . S
C396 N399 1.368 . S
C396 H401 0.931 . S
C397 C396 1.351 . S
C397 N398 1.373 . S
C397 H425 0.930 . S
N398 C397 1.373 . S
N398 C400 1.340 . S
N399 C396 1.368 . S
N399 C400 1.321 . S
N399 Co402 2.135 . S
C400 N398 1.340 . S
C400 N399 1.321 . S
C400 H424 0.930 . S
H401 C396 0.931 . S
Co402 N399 2.135 . S
Co402 N405 2.121 . S
Co402 O410 2.055 . S
Co402 O413 2.039 . S
Co402 N416 2.140 . S
C403 O404 1.227 . S
C403 O413 1.265 . S
O404 C403 1.227 . S
N405 Co402 2.121 . S
N405 C407 1.375 . S
N405 C408 1.313 . S
C406 C407 1.338 . S
C406 N409 1.377 . S
C406 H426 0.930 . S
C407 N405 1.375 . S
C407 C406 1.338 . S
C407 H411 0.931 . S
C408 N405 1.313 . S
C408 N409 1.344 . S
C408 H412 0.930 . S
N409 C406 1.377 . S
N409 C408 1.344 . S
O410 Co402 2.055 . S
O410 C414 1.253 . S
H411 C407 0.931 . S
H412 C408 0.930 . S
O413 Co402 2.039 . S
O413 C403 1.265 . S
C414 O410 1.253 . S
C414 O415 1.227 . S
O415 C414 1.227 . S
N416 Co402 2.140 . S
N416 C419 1.346 . S
N416 C420 1.345 . S
C417 C418 1.387 . S
C417 C421 1.391 . S
C418 C417 1.387 . S
C418 C419 1.369 . S
C418 H427 0.929 . S
C419 N416 1.346 . S
C419 C418 1.369 . S
C419 H422 0.928 . S
C420 N416 1.345 . S
C420 C421 1.371 . S
C420 H423 0.931 . S
C421 C417 1.391 . S
C421 C420 1.371 . S
C421 H428 0.930 . S
H422 C419 0.928 . S
H423 C420 0.931 . S
H424 C400 0.930 . S
H425 C397 0.930 . S
H426 C406 0.930 . S
H427 C418 0.929 . S
H428 C421 0.930 . S
C429 C430 1.351 . S
C429 N432 1.368 . S
C429 H434 0.931 . S
C430 C429 1.351 . S
C430 N431 1.373 . S
C430 H458 0.930 . S
N431 C430 1.373 . S
N431 C433 1.340 . S
N432 C429 1.368 . S
N432 C433 1.321 . S
N432 Co435 2.135 . S
C433 N431 1.340 . S
C433 N432 1.321 . S
C433 H457 0.930 . S
H434 C429 0.931 . S
Co435 N432 2.135 . S
Co435 N438 2.121 . S
Co435 O443 2.055 . S
Co435 O446 2.039 . S
Co435 N449 2.140 . S
C436 O437 1.227 . S
C436 O446 1.265 . S
O437 C436 1.227 . S
N438 Co435 2.121 . S
N438 C440 1.375 . S
N438 C441 1.313 . S
C439 C440 1.338 . S
C439 N442 1.377 . S
C439 H459 0.930 . S
C440 N438 1.375 . S
C440 C439 1.338 . S
C440 H444 0.931 . S
C441 N438 1.313 . S
C441 N442 1.344 . S
C441 H445 0.930 . S
N442 C439 1.377 . S
N442 C441 1.344 . S
O443 Co435 2.055 . S
O443 C447 1.253 . S
H444 C440 0.931 . S
H445 C441 0.930 . S
O446 Co435 2.039 . S
O446 C436 1.265 . S
C447 O443 1.253 . S
C447 O448 1.227 . S
O448 C447 1.227 . S
N449 Co435 2.140 . S
N449 C452 1.346 . S
N449 C453 1.345 . S
C450 C451 1.387 . S
C450 C454 1.391 . S
C451 C450 1.387 . S
C451 C452 1.369 . S
C451 H460 0.929 . S
C452 N449 1.346 . S
C452 C451 1.369 . S
C452 H455 0.928 . S
C453 N449 1.345 . S
C453 C454 1.371 . S
C453 H456 0.931 . S
C454 C450 1.391 . S
C454 C453 1.371 . S
C454 H461 0.930 . S
H455 C452 0.928 . S
H456 C453 0.931 . S
H457 C433 0.930 . S
H458 C430 0.930 . S
H459 C439 0.930 . S
H460 C451 0.929 . S
H461 C454 0.930 . S
C462 C463 1.351 . S
C462 N465 1.368 . S
C462 H467 0.931 . S
C463 C462 1.351 . S
C463 N464 1.373 . S
C463 H491 0.930 . S
N464 C463 1.373 . S
N464 C466 1.340 . S
N465 C462 1.368 . S
N465 C466 1.321 . S
N465 Co468 2.135 . S
C466 N464 1.340 . S
C466 N465 1.321 . S
C466 H490 0.930 . S
H467 C462 0.931 . S
Co468 N465 2.135 . S
Co468 N471 2.121 . S
Co468 O476 2.055 . S
Co468 O479 2.039 . S
Co468 N482 2.140 . S
C469 O470 1.227 . S
C469 O479 1.265 . S
O470 C469 1.227 . S
N471 Co468 2.121 . S
N471 C473 1.375 . S
N471 C474 1.313 . S
C472 C473 1.338 . S
C472 N475 1.377 . S
C472 H492 0.930 . S
C473 N471 1.375 . S
C473 C472 1.338 . S
C473 H477 0.931 . S
C474 N471 1.313 . S
C474 N475 1.344 . S
C474 H478 0.930 . S
N475 C472 1.377 . S
N475 C474 1.344 . S
O476 Co468 2.055 . S
O476 C480 1.253 . S
H477 C473 0.931 . S
H478 C474 0.930 . S
O479 Co468 2.039 . S
O479 C469 1.265 . S
C480 O476 1.253 . S
C480 O481 1.227 . S
O481 C480 1.227 . S
N482 Co468 2.140 . S
N482 C485 1.346 . S
N482 C486 1.345 . S
C483 C484 1.387 . S
C483 C487 1.391 . S
C484 C483 1.387 . S
C484 C485 1.369 . S
C484 H493 0.929 . S
C485 N482 1.346 . S
C485 C484 1.369 . S
C485 H488 0.928 . S
C486 N482 1.345 . S
C486 C487 1.371 . S
C486 H489 0.931 . S
C487 C483 1.391 . S
C487 C486 1.371 . S
C487 H494 0.930 . S
H488 C485 0.928 . S
H489 C486 0.931 . S
H490 C466 0.930 . S
H491 C463 0.930 . S
H492 C472 0.930 . S
H493 C484 0.929 . S
H494 C487 0.930 . S
C495 C496 1.351 . S
C495 N498 1.368 . S
C495 H500 0.931 . S
C496 C495 1.351 . S
C496 N497 1.373 . S
C496 H524 0.930 . S
N497 C496 1.373 . S
N497 C499 1.340 . S
N498 C495 1.368 . S
N498 C499 1.321 . S
N498 Co501 2.135 . S
C499 N497 1.340 . S
C499 N498 1.321 . S
C499 H523 0.930 . S
H500 C495 0.931 . S
Co501 N498 2.135 . S
Co501 N504 2.121 . S
Co501 O509 2.055 . S
Co501 O512 2.039 . S
Co501 N515 2.140 . S
C502 O503 1.227 . S
C502 O512 1.265 . S
O503 C502 1.227 . S
N504 Co501 2.121 . S
N504 C506 1.375 . S
N504 C507 1.313 . S
C505 C506 1.338 . S
C505 N508 1.377 . S
C505 H525 0.930 . S
C506 N504 1.375 . S
C506 C505 1.338 . S
C506 H510 0.931 . S
C507 N504 1.313 . S
C507 N508 1.344 . S
C507 H511 0.930 . S
N508 C505 1.377 . S
N508 C507 1.344 . S
O509 Co501 2.055 . S
O509 C513 1.253 . S
H510 C506 0.931 . S
H511 C507 0.930 . S
O512 Co501 2.039 . S
O512 C502 1.265 . S
C513 O509 1.253 . S
C513 O514 1.227 . S
O514 C513 1.227 . S
N515 Co501 2.140 . S
N515 C518 1.346 . S
N515 C519 1.345 . S
C516 C517 1.387 . S
C516 C520 1.391 . S
C517 C516 1.387 . S
C517 C518 1.369 . S
C517 H526 0.929 . S
C518 N515 1.346 . S
C518 C517 1.369 . S
C518 H521 0.928 . S
C519 N515 1.345 . S
C519 C520 1.371 . S
C519 H522 0.931 . S
C520 C516 1.391 . S
C520 C519 1.371 . S
C520 H527 0.930 . S
H521 C518 0.928 . S
H522 C519 0.931 . S
H523 C499 0.930 . S
H524 C496 0.930 . S
H525 C505 0.930 . S
H526 C517 0.929 . S
H527 C520 0.930 . S
H528 C546 0.951 . S
H529 C548 0.951 . S
H530 C550 0.950 . S
H531 C551 0.950 . S
H532 C553 0.950 . S
H533 C556 0.950 . S
H534 C557 0.950 . S
H535 C559 0.950 . S
H536 C560 0.950 . S
H537 C561 0.951 . S
H538 C563 0.951 . S
H539 C565 0.950 . S
H540 C566 0.950 . S
H541 C568 0.950 . S
H542 C571 0.950 . S
H543 C572 0.950 . S
H544 C574 0.950 . S
H545 C575 0.950 . S
C546 H528 0.951 . S
C546 C547 1.366 . S
C546 C548 1.388 . S
C547 C546 1.366 . S
C547 C551 1.385 . S
C548 H529 0.951 . S
C548 C546 1.388 . S
C548 C549 1.366 . S
C549 C548 1.366 . S
C549 C550 1.414 . S
C549 C552 1.499 . S
C550 H530 0.950 . S
C550 C549 1.414 . S
C550 C551 1.374 . S
C551 H531 0.950 . S
C551 C547 1.385 . S
C551 C550 1.374 . S
C552 C549 1.499 . S
C552 C553 1.373 . S
C552 C554 1.389 . S
C553 H532 0.950 . S
C553 C552 1.373 . S
C553 C569 1.377 . S
C554 C552 1.389 . S
C554 C555 1.524 . S
C554 C568 1.377 . S
C555 C554 1.524 . S
C555 C556 1.397 . S
C555 C560 1.363 . S
C556 H533 0.950 . S
C556 C555 1.397 . S
C556 C557 1.334 . S
C557 H534 0.950 . S
C557 C556 1.334 . S
C557 C558 1.287 . S
C558 C557 1.287 . S
C558 C559 1.524 . S
C558 H577 0.913 . S
C559 H535 0.950 . S
C559 C558 1.524 . S
C559 C560 1.415 . S
C560 H536 0.950 . S
C560 C555 1.363 . S
C560 C559 1.415 . S
C561 H537 0.951 . S
C561 C562 1.366 . S
C561 C563 1.388 . S
C562 C561 1.366 . S
C562 C566 1.385 . S
C563 H538 0.951 . S
C563 C561 1.388 . S
C563 C564 1.366 . S
C564 C563 1.366 . S
C564 C565 1.414 . S
C564 C567 1.499 . S
C565 H539 0.950 . S
C565 C564 1.414 . S
C565 C566 1.374 . S
C566 H540 0.950 . S
C566 C562 1.385 . S
C566 C565 1.374 . S
C567 C564 1.499 . S
C567 C568 1.373 . S
C567 C569 1.389 . S
C568 H541 0.950 . S
C568 C554 1.377 . S
C568 C567 1.373 . S
C569 C553 1.377 . S
C569 C567 1.389 . S
C569 C570 1.524 . S
C570 C569 1.524 . S
C570 C571 1.397 . S
C570 C575 1.363 . S
C571 H542 0.950 . S
C571 C570 1.397 . S
C571 C572 1.334 . S
C572 H543 0.950 . S
C572 C571 1.334 . S
C572 C573 1.287 . S
C573 C572 1.287 . S
C573 C574 1.524 . S
C573 H576 0.999 . S
C574 H544 0.950 . S
C574 C573 1.524 . S
C574 C575 1.415 . S
C575 H545 0.950 . S
C575 C570 1.363 . S
C575 C574 1.415 . S
H576 C573 0.999 . S
H577 C558 0.913 . S
H578 C596 0.951 . S
H579 C598 0.951 . S
H580 C600 0.950 . S
H581 C601 0.950 . S
H582 C603 0.950 . S
H583 C606 0.950 . S
H584 C607 0.950 . S
H585 C609 0.950 . S
H586 C610 0.950 . S
H587 C611 0.951 . S
H588 C613 0.951 . S
H589 C615 0.950 . S
H590 C616 0.950 . S
H591 C618 0.950 . S
H592 C621 0.950 . S
H593 C622 0.950 . S
H594 C624 0.950 . S
H595 C625 0.950 . S
C596 H578 0.951 . S
C596 C597 1.366 . S
C596 C598 1.388 . S
C597 C596 1.366 . S
C597 C601 1.385 . S
C598 H579 0.951 . S
C598 C596 1.388 . S
C598 C599 1.366 . S
C599 C598 1.366 . S
C599 C600 1.414 . S
C599 C602 1.499 . S
C600 H580 0.950 . S
C600 C599 1.414 . S
C600 C601 1.374 . S
C601 H581 0.950 . S
C601 C597 1.385 . S
C601 C600 1.374 . S
C602 C599 1.499 . S
C602 C603 1.373 . S
C602 C604 1.389 . S
C603 H582 0.950 . S
C603 C602 1.373 . S
C603 C619 1.377 . S
C604 C602 1.389 . S
C604 C605 1.524 . S
C604 C618 1.377 . S
C605 C604 1.524 . S
C605 C606 1.397 . S
C605 C610 1.363 . S
C606 H583 0.950 . S
C606 C605 1.397 . S
C606 C607 1.334 . S
C607 H584 0.950 . S
C607 C606 1.334 . S
C607 C608 1.287 . S
C608 C607 1.287 . S
C608 C609 1.524 . S
C608 H627 0.913 . S
C609 H585 0.950 . S
C609 C608 1.524 . S
C609 C610 1.415 . S
C610 H586 0.950 . S
C610 C605 1.363 . S
C610 C609 1.415 . S
C611 H587 0.951 . S
C611 C612 1.366 . S
C611 C613 1.388 . S
C612 C611 1.366 . S
C612 C616 1.385 . S
C613 H588 0.951 . S
C613 C611 1.388 . S
C613 C614 1.366 . S
C614 C613 1.366 . S
C614 C615 1.414 . S
C614 C617 1.499 . S
C615 H589 0.950 . S
C615 C614 1.414 . S
C615 C616 1.374 . S
C616 H590 0.950 . S
C616 C612 1.385 . S
C616 C615 1.374 . S
C617 C614 1.499 . S
C617 C618 1.373 . S
C617 C619 1.389 . S
C618 H591 0.950 . S
C618 C604 1.377 . S
C618 C617 1.373 . S
C619 C603 1.377 . S
C619 C617 1.389 . S
C619 C620 1.524 . S
C620 C619 1.524 . S
C620 C621 1.397 . S
C620 C625 1.363 . S
C621 H592 0.950 . S
C621 C620 1.397 . S
C621 C622 1.334 . S
C622 H593 0.950 . S
C622 C621 1.334 . S
C622 C623 1.287 . S
C623 C622 1.287 . S
C623 C624 1.524 . S
C623 H626 0.999 . S
C624 H594 0.950 . S
C624 C623 1.524 . S
C624 C625 1.415 . S
C625 H595 0.950 . S
C625 C620 1.363 . S
C625 C624 1.415 . S
H626 C623 0.999 . S
H627 C608 0.913 . S
H628 C646 0.951 . S
H629 C648 0.951 . S
H630 C650 0.950 . S
H631 C651 0.950 . S
H632 C653 0.950 . S
H633 C656 0.950 . S
H634 C657 0.950 . S
H635 C659 0.950 . S
H636 C660 0.950 . S
H637 C661 0.951 . S
H638 C663 0.951 . S
H639 C665 0.950 . S
H640 C666 0.950 . S
H641 C668 0.950 . S
H642 C671 0.950 . S
H643 C672 0.950 . S
H644 C674 0.950 . S
H645 C675 0.950 . S
C646 H628 0.951 . S
C646 C647 1.366 . S
C646 C648 1.388 . S
C647 C646 1.366 . S
C647 C651 1.385 . S
C648 H629 0.951 . S
C648 C646 1.388 . S
C648 C649 1.366 . S
C649 C648 1.366 . S
C649 C650 1.414 . S
C649 C652 1.499 . S
C650 H630 0.950 . S
C650 C649 1.414 . S
C650 C651 1.374 . S
C651 H631 0.950 . S
C651 C647 1.385 . S
C651 C650 1.374 . S
C652 C649 1.499 . S
C652 C653 1.373 . S
C652 C654 1.389 . S
C653 H632 0.950 . S
C653 C652 1.373 . S
C653 C669 1.377 . S
C654 C652 1.389 . S
C654 C655 1.524 . S
C654 C668 1.377 . S
C655 C654 1.524 . S
C655 C656 1.397 . S
C655 C660 1.363 . S
C656 H633 0.950 . S
C656 C655 1.397 . S
C656 C657 1.334 . S
C657 H634 0.950 . S
C657 C656 1.334 . S
C657 C658 1.287 . S
C658 C657 1.287 . S
C658 C659 1.524 . S
C658 H677 0.913 . S
C659 H635 0.950 . S
C659 C658 1.524 . S
C659 C660 1.415 . S
C660 H636 0.950 . S
C660 C655 1.363 . S
C660 C659 1.415 . S
C661 H637 0.951 . S
C661 C662 1.366 . S
C661 C663 1.388 . S
C662 C661 1.366 . S
C662 C666 1.385 . S
C663 H638 0.951 . S
C663 C661 1.388 . S
C663 C664 1.366 . S
C664 C663 1.366 . S
C664 C665 1.414 . S
C664 C667 1.499 . S
C665 H639 0.950 . S
C665 C664 1.414 . S
C665 C666 1.374 . S
C666 H640 0.950 . S
C666 C662 1.385 . S
C666 C665 1.374 . S
C667 C664 1.499 . S
C667 C668 1.373 . S
C667 C669 1.389 . S
C668 H641 0.950 . S
C668 C654 1.377 . S
C668 C667 1.373 . S
C669 C653 1.377 . S
C669 C667 1.389 . S
C669 C670 1.524 . S
C670 C669 1.524 . S
C670 C671 1.397 . S
C670 C675 1.363 . S
C671 H642 0.950 . S
C671 C670 1.397 . S
C671 C672 1.334 . S
C672 H643 0.950 . S
C672 C671 1.334 . S
C672 C673 1.287 . S
C673 C672 1.287 . S
C673 C674 1.524 . S
C673 H676 0.999 . S
C674 H644 0.950 . S
C674 C673 1.524 . S
C674 C675 1.415 . S
C675 H645 0.950 . S
C675 C670 1.363 . S
C675 C674 1.415 . S
H676 C673 0.999 . S
H677 C658 0.913 . S
H678 C696 0.951 . S
H679 C698 0.951 . S
H680 C700 0.950 . S
H681 C701 0.950 . S
H682 C703 0.950 . S
H683 C706 0.950 . S
H684 C707 0.950 . S
H685 C709 0.950 . S
H686 C710 0.950 . S
H687 C711 0.951 . S
H688 C713 0.951 . S
H689 C715 0.950 . S
H690 C716 0.950 . S
H691 C718 0.950 . S
H692 C721 0.950 . S
H693 C722 0.950 . S
H694 C724 0.950 . S
H695 C725 0.950 . S
C696 H678 0.951 . S
C696 C697 1.366 . S
C696 C698 1.388 . S
C697 C696 1.366 . S
C697 C701 1.385 . S
C698 H679 0.951 . S
C698 C696 1.388 . S
C698 C699 1.366 . S
C699 C698 1.366 . S
C699 C700 1.414 . S
C699 C702 1.499 . S
C700 H680 0.950 . S
C700 C699 1.414 . S
C700 C701 1.374 . S
C701 H681 0.950 . S
C701 C697 1.385 . S
C701 C700 1.374 . S
C702 C699 1.499 . S
C702 C703 1.373 . S
C702 C704 1.389 . S
C703 H682 0.950 . S
C703 C702 1.373 . S
C703 C719 1.377 . S
C704 C702 1.389 . S
C704 C705 1.524 . S
C704 C718 1.377 . S
C705 C704 1.524 . S
C705 C706 1.397 . S
C705 C710 1.363 . S
C706 H683 0.950 . S
C706 C705 1.397 . S
C706 C707 1.334 . S
C707 H684 0.950 . S
C707 C706 1.334 . S
C707 C708 1.287 . S
C708 C707 1.287 . S
C708 C709 1.524 . S
C708 H727 0.913 . S
C709 H685 0.950 . S
C709 C708 1.524 . S
C709 C710 1.415 . S
C710 H686 0.950 . S
C710 C705 1.363 . S
C710 C709 1.415 . S
C711 H687 0.951 . S
C711 C712 1.366 . S
C711 C713 1.388 . S
C712 C711 1.366 . S
C712 C716 1.385 . S
C713 H688 0.951 . S
C713 C711 1.388 . S
C713 C714 1.366 . S
C714 C713 1.366 . S
C714 C715 1.414 . S
C714 C717 1.499 . S
C715 H689 0.950 . S
C715 C714 1.414 . S
C715 C716 1.374 . S
C716 H690 0.950 . S
C716 C712 1.385 . S
C716 C715 1.374 . S
C717 C714 1.499 . S
C717 C718 1.373 . S
C717 C719 1.389 . S
C718 H691 0.950 . S
C718 C704 1.377 . S
C718 C717 1.373 . S
C719 C703 1.377 . S
C719 C717 1.389 . S
C719 C720 1.524 . S
C720 C719 1.524 . S
C720 C721 1.397 . S
C720 C725 1.363 . S
C721 H692 0.950 . S
C721 C720 1.397 . S
C721 C722 1.334 . S
C722 H693 0.950 . S
C722 C721 1.334 . S
C722 C723 1.287 . S
C723 C722 1.287 . S
C723 C724 1.524 . S
C723 H726 0.999 . S
C724 H694 0.950 . S
C724 C723 1.524 . S
C724 C725 1.415 . S
C725 H695 0.950 . S
C725 C720 1.363 . S
C725 C724 1.415 . S
H726 C723 0.999 . S
H727 C708 0.913 . S
H728 C746 0.951 . S
H729 C748 0.951 . S
H730 C750 0.950 . S
H731 C751 0.950 . S
H732 C753 0.950 . S
H733 C756 0.950 . S
H734 C757 0.950 . S
H735 C759 0.950 . S
H736 C760 0.950 . S
H737 C761 0.951 . S
H738 C763 0.951 . S
H739 C765 0.950 . S
H740 C766 0.950 . S
H741 C768 0.950 . S
H742 C771 0.950 . S
H743 C772 0.950 . S
H744 C774 0.950 . S
H745 C775 0.950 . S
C746 H728 0.951 . S
C746 C747 1.366 . S
C746 C748 1.388 . S
C747 C746 1.366 . S
C747 C751 1.385 . S
C748 H729 0.951 . S
C748 C746 1.388 . S
C748 C749 1.366 . S
C749 C748 1.366 . S
C749 C750 1.414 . S
C749 C752 1.499 . S
C750 H730 0.950 . S
C750 C749 1.414 . S
C750 C751 1.374 . S
C751 H731 0.950 . S
C751 C747 1.385 . S
C751 C750 1.374 . S
C752 C749 1.499 . S
C752 C753 1.373 . S
C752 C754 1.389 . S
C753 H732 0.950 . S
C753 C752 1.373 . S
C753 C769 1.377 . S
C754 C752 1.389 . S
C754 C755 1.524 . S
C754 C768 1.377 . S
C755 C754 1.524 . S
C755 C756 1.397 . S
C755 C760 1.363 . S
C756 H733 0.950 . S
C756 C755 1.397 . S
C756 C757 1.334 . S
C757 H734 0.950 . S
C757 C756 1.334 . S
C757 C758 1.287 . S
C758 C757 1.287 . S
C758 C759 1.524 . S
C758 H777 0.913 . S
C759 H735 0.950 . S
C759 C758 1.524 . S
C759 C760 1.415 . S
C760 H736 0.950 . S
C760 C755 1.363 . S
C760 C759 1.415 . S
C761 H737 0.951 . S
C761 C762 1.366 . S
C761 C763 1.388 . S
C762 C761 1.366 . S
C762 C766 1.385 . S
C763 H738 0.951 . S
C763 C761 1.388 . S
C763 C764 1.366 . S
C764 C763 1.366 . S
C764 C765 1.414 . S
C764 C767 1.499 . S
C765 H739 0.950 . S
C765 C764 1.414 . S
C765 C766 1.374 . S
C766 H740 0.950 . S
C766 C762 1.385 . S
C766 C765 1.374 . S
C767 C764 1.499 . S
C767 C768 1.373 . S
C767 C769 1.389 . S
C768 H741 0.950 . S
C768 C754 1.377 . S
C768 C767 1.373 . S
C769 C753 1.377 . S
C769 C767 1.389 . S
C769 C770 1.524 . S
C770 C769 1.524 . S
C770 C771 1.397 . S
C770 C775 1.363 . S
C771 H742 0.950 . S
C771 C770 1.397 . S
C771 C772 1.334 . S
C772 H743 0.950 . S
C772 C771 1.334 . S
C772 C773 1.287 . S
C773 C772 1.287 . S
C773 C774 1.524 . S
C773 H776 0.999 . S
C774 H744 0.950 . S
C774 C773 1.524 . S
C774 C775 1.415 . S
C775 H745 0.950 . S
C775 C770 1.363 . S
C775 C774 1.415 . S
H776 C773 0.999 . S
H777 C758 0.913 . S
H778 C796 0.951 . S
H779 C798 0.951 . S
H780 C800 0.950 . S
H781 C801 0.950 . S
H782 C803 0.950 . S
H783 C806 0.950 . S
H784 C807 0.950 . S
H785 C809 0.950 . S
H786 C810 0.950 . S
H787 C811 0.951 . S
H788 C813 0.951 . S
H789 C815 0.950 . S
H790 C816 0.950 . S
H791 C818 0.950 . S
H792 C821 0.950 . S
H793 C822 0.950 . S
H794 C824 0.950 . S
H795 C825 0.950 . S
C796 H778 0.951 . S
C796 C797 1.366 . S
C796 C798 1.388 . S
C797 C796 1.366 . S
C797 C801 1.385 . S
C798 H779 0.951 . S
C798 C796 1.388 . S
C798 C799 1.366 . S
C799 C798 1.366 . S
C799 C800 1.414 . S
C799 C802 1.499 . S
C800 H780 0.950 . S
C800 C799 1.414 . S
C800 C801 1.374 . S
C801 H781 0.950 . S
C801 C797 1.385 . S
C801 C800 1.374 . S
C802 C799 1.499 . S
C802 C803 1.373 . S
C802 C804 1.389 . S
C803 H782 0.950 . S
C803 C802 1.373 . S
C803 C819 1.377 . S
C804 C802 1.389 . S
C804 C805 1.524 . S
C804 C818 1.377 . S
C805 C804 1.524 . S
C805 C806 1.397 . S
C805 C810 1.363 . S
C806 H783 0.950 . S
C806 C805 1.397 . S
C806 C807 1.334 . S
C807 H784 0.950 . S
C807 C806 1.334 . S
C807 C808 1.287 . S
C808 C807 1.287 . S
C808 C809 1.524 . S
C808 H827 0.913 . S
C809 H785 0.950 . S
C809 C808 1.524 . S
C809 C810 1.415 . S
C810 H786 0.950 . S
C810 C805 1.363 . S
C810 C809 1.415 . S
C811 H787 0.951 . S
C811 C812 1.366 . S
C811 C813 1.388 . S
C812 C811 1.366 . S
C812 C816 1.385 . S
C813 H788 0.951 . S
C813 C811 1.388 . S
C813 C814 1.366 . S
C814 C813 1.366 . S
C814 C815 1.414 . S
C814 C817 1.499 . S
C815 H789 0.950 . S
C815 C814 1.414 . S
C815 C816 1.374 . S
C816 H790 0.950 . S
C816 C812 1.385 . S
C816 C815 1.374 . S
C817 C814 1.499 . S
C817 C818 1.373 . S
C817 C819 1.389 . S
C818 H791 0.950 . S
C818 C804 1.377 . S
C818 C817 1.373 . S
C819 C803 1.377 . S
C819 C817 1.389 . S
C819 C820 1.524 . S
C820 C819 1.524 . S
C820 C821 1.397 . S
C820 C825 1.363 . S
C821 H792 0.950 . S
C821 C820 1.397 . S
C821 C822 1.334 . S
C822 H793 0.950 . S
C822 C821 1.334 . S
C822 C823 1.287 . S
C823 C822 1.287 . S
C823 C824 1.524 . S
C823 H826 0.999 . S
C824 H794 0.950 . S
C824 C823 1.524 . S
C824 C825 1.415 . S
C825 H795 0.950 . S
C825 C820 1.363 . S
C825 C824 1.415 . S
H826 C823 0.999 . S
H827 C808 0.913 . S
H828 C846 0.951 . S
H829 C848 0.951 . S
H830 C850 0.950 . S
H831 C851 0.950 . S
H832 C853 0.950 . S
H833 C856 0.950 . S
H834 C857 0.950 . S
H835 C859 0.950 . S
H836 C860 0.950 . S
H837 C861 0.951 . S
H838 C863 0.951 . S
H839 C865 0.950 . S
H840 C866 0.950 . S
H841 C868 0.950 . S
H842 C871 0.950 . S
H843 C872 0.950 . S
H844 C874 0.950 . S
H845 C875 0.950 . S
C846 H828 0.951 . S
C846 C847 1.366 . S
C846 C848 1.388 . S
C847 C846 1.366 . S
C847 C851 1.385 . S
C848 H829 0.951 . S
C848 C846 1.388 . S
C848 C849 1.366 . S
C849 C848 1.366 . S
C849 C850 1.414 . S
C849 C852 1.499 . S
C850 H830 0.950 . S
C850 C849 1.414 . S
C850 C851 1.374 . S
C851 H831 0.950 . S
C851 C847 1.385 . S
C851 C850 1.374 . S
C852 C849 1.499 . S
C852 C853 1.373 . S
C852 C854 1.389 . S
C853 H832 0.950 . S
C853 C852 1.373 . S
C853 C869 1.377 . S
C854 C852 1.389 . S
C854 C855 1.524 . S
C854 C868 1.377 . S
C855 C854 1.524 . S
C855 C856 1.397 . S
C855 C860 1.363 . S
C856 H833 0.950 . S
C856 C855 1.397 . S
C856 C857 1.334 . S
C857 H834 0.950 . S
C857 C856 1.334 . S
C857 C858 1.287 . S
C858 C857 1.287 . S
C858 C859 1.524 . S
C858 H877 0.913 . S
C859 H835 0.950 . S
C859 C858 1.524 . S
C859 C860 1.415 . S
C860 H836 0.950 . S
C860 C855 1.363 . S
C860 C859 1.415 . S
C861 H837 0.951 . S
C861 C862 1.366 . S
C861 C863 1.388 . S
C862 C861 1.366 . S
C862 C866 1.385 . S
C863 H838 0.951 . S
C863 C861 1.388 . S
C863 C864 1.366 . S
C864 C863 1.366 . S
C864 C865 1.414 . S
C864 C867 1.499 . S
C865 H839 0.950 . S
C865 C864 1.414 . S
C865 C866 1.374 . S
C866 H840 0.950 . S
C866 C862 1.385 . S
C866 C865 1.374 . S
C867 C864 1.499 . S
C867 C868 1.373 . S
C867 C869 1.389 . S
C868 H841 0.950 . S
C868 C854 1.377 . S
C868 C867 1.373 . S
C869 C853 1.377 . S
C869 C867 1.389 . S
C869 C870 1.524 . S
C870 C869 1.524 . S
C870 C871 1.397 . S
C870 C875 1.363 . S
C871 H842 0.950 . S
C871 C870 1.397 . S
C871 C872 1.334 . S
C872 H843 0.950 . S
C872 C871 1.334 . S
C872 C873 1.287 . S
C873 C872 1.287 . S
C873 C874 1.524 . S
C873 H876 0.999 . S
C874 H844 0.950 . S
C874 C873 1.524 . S
C874 C875 1.415 . S
C875 H845 0.950 . S
C875 C870 1.363 . S
C875 C874 1.415 . S
H876 C873 0.999 . S
H877 C858 0.913 . S
H878 C896 0.951 . S
H879 C898 0.951 . S
H880 C900 0.950 . S
H881 C901 0.950 . S
H882 C903 0.950 . S
H883 C906 0.950 . S
H884 C907 0.950 . S
H885 C909 0.950 . S
H886 C910 0.950 . S
H887 C911 0.951 . S
H888 C913 0.951 . S
H889 C915 0.950 . S
H890 C916 0.950 . S
H891 C918 0.950 . S
H892 C921 0.950 . S
H893 C922 0.950 . S
H894 C924 0.950 . S
H895 C925 0.950 . S
C896 H878 0.951 . S
C896 C897 1.366 . S
C896 C898 1.388 . S
C897 C896 1.366 . S
C897 C901 1.385 . S
C898 H879 0.951 . S
C898 C896 1.388 . S
C898 C899 1.366 . S
C899 C898 1.366 . S
C899 C900 1.414 . S
C899 C902 1.499 . S
C900 H880 0.950 . S
C900 C899 1.414 . S
C900 C901 1.374 . S
C901 H881 0.950 . S
C901 C897 1.385 . S
C901 C900 1.374 . S
C902 C899 1.499 . S
C902 C903 1.373 . S
C902 C904 1.389 . S
C903 H882 0.950 . S
C903 C902 1.373 . S
C903 C919 1.377 . S
C904 C902 1.389 . S
C904 C905 1.524 . S
C904 C918 1.377 . S
C905 C904 1.524 . S
C905 C906 1.397 . S
C905 C910 1.363 . S
C906 H883 0.950 . S
C906 C905 1.397 . S
C906 C907 1.334 . S
C907 H884 0.950 . S
C907 C906 1.334 . S
C907 C908 1.287 . S
C908 C907 1.287 . S
C908 C909 1.524 . S
C908 H927 0.913 . S
C909 H885 0.950 . S
C909 C908 1.524 . S
C909 C910 1.415 . S
C910 H886 0.950 . S
C910 C905 1.363 . S
C910 C909 1.415 . S
C911 H887 0.951 . S
C911 C912 1.366 . S
C911 C913 1.388 . S
C912 C911 1.366 . S
C912 C916 1.385 . S
C913 H888 0.951 . S
C913 C911 1.388 . S
C913 C914 1.366 . S
C914 C913 1.366 . S
C914 C915 1.414 . S
C914 C917 1.499 . S
C915 H889 0.950 . S
C915 C914 1.414 . S
C915 C916 1.374 . S
C916 H890 0.950 . S
C916 C912 1.385 . S
C916 C915 1.374 . S
C917 C914 1.499 . S
C917 C918 1.373 . S
C917 C919 1.389 . S
C918 H891 0.950 . S
C918 C904 1.377 . S
C918 C917 1.373 . S
C919 C903 1.377 . S
C919 C917 1.389 . S
C919 C920 1.524 . S
C920 C919 1.524 . S
C920 C921 1.397 . S
C920 C925 1.363 . S
C921 H892 0.950 . S
C921 C920 1.397 . S
C921 C922 1.334 . S
C922 H893 0.950 . S
C922 C921 1.334 . S
C922 C923 1.287 . S
C923 C922 1.287 . S
C923 C924 1.524 . S
C923 H926 0.999 . S
C924 H894 0.950 . S
C924 C923 1.524 . S
C924 C925 1.415 . S
C925 H895 0.950 . S
C925 C920 1.363 . S
C925 C924 1.415 . S
H926 C923 0.999 . S
H927 C908 0.913 . S
H928 C946 0.951 . S
H929 C948 0.951 . S
H930 C950 0.950 . S
H931 C951 0.956 . S
H932 C953 0.950 . S
H933 C956 0.950 . S
H934 C957 0.950 . S
H935 C959 0.950 . S
H936 C960 0.950 . S
H937 C961 0.951 . S
H938 C963 0.951 . S
H939 C965 0.956 . S
H940 C966 0.954 . S
H941 C968 0.950 . S
H942 C971 0.950 . S
H943 C972 0.950 . S
H944 C974 0.950 . S
H945 C975 0.950 . S
C946 H928 0.951 . S
C946 C947 1.366 . S
C946 C948 1.388 1_545 S
C947 C946 1.366 . S
C947 C951 1.385 1_545 S
C948 H929 0.951 . S
C948 C946 1.388 1_565 S
C948 C949 1.366 . S
C949 C948 1.366 . S
C949 C950 1.414 . S
C949 C952 1.499 . S
C950 H930 0.950 . S
C950 C949 1.414 . S
C950 C951 1.374 . S
C951 H931 0.956 . S
C951 C947 1.385 1_565 S
C951 C950 1.374 . S
C952 C949 1.499 . S
C952 C953 1.373 1_554 S
C952 C954 1.389 . S
C953 H932 0.950 . S
C953 C952 1.373 1_556 S
C953 C969 1.377 . S
C954 C952 1.389 . S
C954 C955 1.524 . S
C954 C968 1.377 . S
C955 C954 1.524 . S
C955 C956 1.397 . S
C955 C960 1.363 . S
C956 H933 0.950 . S
C956 C955 1.397 . S
C956 C957 1.334 . S
C957 H934 0.950 . S
C957 C956 1.334 . S
C957 C958 1.287 . S
C958 C957 1.287 . S
C958 C959 1.524 . S
C958 H977 0.913 . S
C959 H935 0.950 . S
C959 C958 1.524 . S
C959 C960 1.415 . S
C960 H936 0.950 . S
C960 C955 1.363 . S
C960 C959 1.415 . S
C961 H937 0.951 . S
C961 C962 1.366 . S
C961 C963 1.388 . S
C962 C961 1.366 . S
C962 C966 1.385 . S
C963 H938 0.951 . S
C963 C961 1.388 . S
C963 C964 1.372 . S
C964 C963 1.372 . S
C964 C965 1.411 1_556 S
C964 C967 1.495 1_556 S
C965 H939 0.956 . S
C965 C964 1.411 1_554 S
C965 C966 1.371 1_554 S
C966 H940 0.954 . S
C966 C962 1.385 . S
C966 C965 1.371 1_556 S
C967 C964 1.495 1_554 S
C967 C968 1.373 . S
C967 C969 1.389 1_554 S
C968 H941 0.950 . S
C968 C954 1.377 . S
C968 C967 1.373 . S
C969 C953 1.377 . S
C969 C967 1.389 1_556 S
C969 C970 1.524 . S
C970 C969 1.524 . S
C970 C971 1.397 . S
C970 C975 1.363 . S
C971 H942 0.950 . S
C971 C970 1.397 . S
C971 C972 1.334 . S
C972 H943 0.950 . S
C972 C971 1.334 . S
C972 C973 1.287 . S
C973 C972 1.287 . S
C973 C974 1.524 . S
C973 H976 0.999 . S
C974 H944 0.950 . S
C974 C973 1.524 . S
C974 C975 1.415 . S
C975 H945 0.950 . S
C975 C970 1.363 . S
C975 C974 1.415 . S
H976 C973 0.999 . S
H977 C958 0.913 . S
H978 C996 0.951 1_454 S
H979 C998 0.951 1_554 S
H980 C1000 0.950 . S
H981 C1001 0.950 . S
H982 C1003 0.951 . S
H983 C1006 0.950 . S
H984 C1007 0.950 . S
H985 C1009 0.950 . S
H986 C1010 0.940 1_554 S
H987 C1011 0.951 . S
H988 C1013 0.951 . S
H989 C1015 0.950 . S
H990 C1016 0.950 . S
H991 C1018 0.950 . S
H992 C1021 0.950 . S
H993 C1022 0.950 . S
H994 C1024 0.950 . S
H995 C1025 0.950 1_556 S
C996 H978 0.951 1_656 S
C996 C997 1.366 1_655 S
C996 C998 1.388 . S
C997 C996 1.366 1_455 S
C997 C1001 1.385 . S
C998 H979 0.951 1_556 S
C998 C996 1.388 . S
C998 C999 1.366 . S
C999 C998 1.366 . S
C999 C1000 1.414 . S
C999 C1002 1.499 . S
C1000 H980 0.950 . S
C1000 C999 1.414 . S
C1000 C1001 1.374 1_655 S
C1001 H981 0.950 . S
C1001 C997 1.385 . S
C1001 C1000 1.374 1_455 S
C1002 C999 1.499 . S
C1002 C1003 1.373 . S
C1002 C1004 1.389 . S
C1003 H982 0.951 . S
C1003 C1002 1.373 . S
C1003 C1019 1.377 1_556 S
C1004 C1002 1.389 . S
C1004 C1005 1.524 . S
C1004 C1018 1.377 . S
C1005 C1004 1.524 . S
C1005 C1006 1.397 . S
C1005 C1010 1.363 . S
C1006 H983 0.950 . S
C1006 C1005 1.397 . S
C1006 C1007 1.334 . S
C1007 H984 0.950 . S
C1007 C1006 1.334 . S
C1007 C1008 1.287 . S
C1008 C1007 1.287 . S
C1008 C1009 1.524 . S
C1008 H1027 0.913 . S
C1009 H985 0.950 . S
C1009 C1008 1.524 . S
C1009 C1010 1.415 . S
C1010 H986 0.940 1_556 S
C1010 C1005 1.363 . S
C1010 C1009 1.415 . S
C1011 H987 0.951 . S
C1011 C1012 1.366 1_556 S
C1011 C1013 1.388 . S
C1012 C1011 1.366 1_554 S
C1012 C1016 1.385 . S
C1013 H988 0.951 . S
C1013 C1011 1.388 . S
C1013 C1014 1.351 1_556 S
C1014 C1013 1.351 1_554 S
C1014 C1015 1.432 . S
C1014 C1017 1.496 1_554 S
C1015 H989 0.950 . S
C1015 C1014 1.432 . S
C1015 C1016 1.374 . S
C1016 H990 0.950 . S
C1016 C1012 1.385 . S
C1016 C1015 1.374 . S
C1017 C1014 1.496 1_556 S
C1017 C1018 1.373 . S
C1017 C1019 1.389 1_556 S
C1018 H991 0.950 . S
C1018 C1004 1.377 . S
C1018 C1017 1.373 . S
C1019 C1003 1.377 1_554 S
C1019 C1017 1.389 1_554 S
C1019 C1020 1.524 . S
C1020 C1019 1.524 . S
C1020 C1021 1.397 . S
C1020 C1025 1.363 . S
C1021 H992 0.950 . S
C1021 C1020 1.397 . S
C1021 C1022 1.334 . S
C1022 H993 0.950 . S
C1022 C1021 1.334 . S
C1022 C1023 1.287 . S
C1023 C1022 1.287 . S
C1023 C1024 1.524 . S
C1023 H1026 0.999 . S
C1024 H994 0.950 . S
C1024 C1023 1.524 . S
C1024 C1025 1.415 . S
C1025 H995 0.950 1_554 S
C1025 C1020 1.363 . S
C1025 C1024 1.415 . S
H1026 C1023 0.999 . S
H1027 C1008 0.913 . S
H1028 C1046 0.951 . S
H1029 C1048 0.951 . S
H1030 C1050 0.950 . S
H1031 C1051 0.950 . S
H1032 C1053 0.950 . S
H1033 C1056 0.950 . S
H1034 C1057 0.950 . S
H1035 C1059 0.950 . S
H1036 C1060 0.950 . S
H1037 C1061 0.951 . S
H1038 C1063 0.951 . S
H1039 C1065 0.950 . S
H1040 C1066 0.950 . S
H1041 C1068 0.950 . S
H1042 C1071 0.950 . S
H1043 C1072 0.950 . S
H1044 C1074 0.950 . S
H1045 C1075 0.950 . S
C1046 H1028 0.951 . S
C1046 C1047 1.366 1_545 S
C1046 C1048 1.388 . S
C1047 C1046 1.366 1_565 S
C1047 C1051 1.385 . S
C1048 H1029 0.951 . S
C1048 C1046 1.388 . S
C1048 C1049 1.366 . S
C1049 C1048 1.366 . S
C1049 C1050 1.414 . S
C1049 C1052 1.499 . S
C1050 H1030 0.950 . S
C1050 C1049 1.414 . S
C1050 C1051 1.374 1_545 S
C1051 H1031 0.950 . S
C1051 C1047 1.385 . S
C1051 C1050 1.374 1_565 S
C1052 C1049 1.499 . S
C1052 C1053 1.373 . S
C1052 C1054 1.389 1_554 S
C1053 H1032 0.950 . S
C1053 C1052 1.373 . S
C1053 C1069 1.377 . S
C1054 C1052 1.389 1_556 S
C1054 C1055 1.524 . S
C1054 C1068 1.377 . S
C1055 C1054 1.524 . S
C1055 C1056 1.397 . S
C1055 C1060 1.363 . S
C1056 H1033 0.950 . S
C1056 C1055 1.397 . S
C1056 C1057 1.334 . S
C1057 H1034 0.950 . S
C1057 C1056 1.334 . S
C1057 C1058 1.287 . S
C1058 C1057 1.287 . S
C1058 C1059 1.524 . S
C1058 H1077 0.913 . S
C1059 H1035 0.950 . S
C1059 C1058 1.524 . S
C1059 C1060 1.415 . S
C1060 H1036 0.950 . S
C1060 C1055 1.363 . S
C1060 C1059 1.415 . S
C1061 H1037 0.951 . S
C1061 C1062 1.366 . S
C1061 C1063 1.388 . S
C1062 C1061 1.366 . S
C1062 C1066 1.385 1_556 S
C1063 H1038 0.951 . S
C1063 C1061 1.388 . S
C1063 C1064 1.366 1_556 S
C1064 C1063 1.366 1_554 S
C1064 C1065 1.414 . S
C1064 C1067 1.499 . S
C1065 H1039 0.950 . S
C1065 C1064 1.414 . S
C1065 C1066 1.374 . S
C1066 H1040 0.950 . S
C1066 C1062 1.385 1_554 S
C1066 C1065 1.374 . S
C1067 C1064 1.499 . S
C1067 C1068 1.373 1_554 S
C1067 C1069 1.389 . S
C1068 H1041 0.950 . S
C1068 C1054 1.377 . S
C1068 C1067 1.373 1_556 S
C1069 C1053 1.377 . S
C1069 C1067 1.389 . S
C1069 C1070 1.524 . S
C1070 C1069 1.524 . S
C1070 C1071 1.397 . S
C1070 C1075 1.363 . S
C1071 H1042 0.950 . S
C1071 C1070 1.397 . S
C1071 C1072 1.334 . S
C1072 H1043 0.950 . S
C1072 C1071 1.334 . S
C1072 C1073 1.287 . S
C1073 C1072 1.287 . S
C1073 C1074 1.524 . S
C1073 H1076 0.999 . S
C1074 H1044 0.950 . S
C1074 C1073 1.524 . S
C1074 C1075 1.415 . S
C1075 H1045 0.950 . S
C1075 C1070 1.363 . S
C1075 C1074 1.415 . S
H1076 C1073 0.999 . S
H1077 C1058 0.913 . S
H1078 C1096 0.954 . S
H1079 C1098 0.951 . S
H1080 C1100 0.950 . S
H1081 C1101 0.950 . S
H1082 C1103 0.950 . S
H1083 C1106 0.950 . S
H1084 C1107 0.950 . S
H1085 C1109 0.950 . S
H1086 C1110 0.950 . S
H1087 C1111 0.954 . S
H1088 C1113 0.951 . S
H1089 C1115 0.950 . S
H1090 C1116 0.950 . S
H1091 C1118 0.950 . S
H1092 C1121 0.950 . S
H1093 C1122 0.950 . S
H1094 C1124 0.950 . S
H1095 C1125 0.950 . S
C1096 H1078 0.954 . S
C1096 C1097 1.360 1_556 S
C1096 C1098 1.391 . S
C1097 C1096 1.360 1_554 S
C1097 C1101 1.385 . S
C1098 H1079 0.951 . S
C1098 C1096 1.391 . S
C1098 C1099 1.366 . S
C1099 C1098 1.366 . S
C1099 C1100 1.414 1_556 S
C1099 C1102 1.499 . S
C1100 H1080 0.950 . S
C1100 C1099 1.414 1_554 S
C1100 C1101 1.374 . S
C1101 H1081 0.950 . S
C1101 C1097 1.385 . S
C1101 C1100 1.374 . S
C1102 C1099 1.499 . S
C1102 C1103 1.373 1_556 S
C1102 C1104 1.389 . S
C1103 H1082 0.950 . S
C1103 C1102 1.373 1_554 S
C1103 C1119 1.377 . S
C1104 C1102 1.389 . S
C1104 C1105 1.524 . S
C1104 C1118 1.377 . S
C1105 C1104 1.524 . S
C1105 C1106 1.397 . S
C1105 C1110 1.363 . S
C1106 H1083 0.950 . S
C1106 C1105 1.397 . S
C1106 C1107 1.334 . S
C1107 H1084 0.950 . S
C1107 C1106 1.334 . S
C1107 C1108 1.287 . S
C1108 C1107 1.287 . S
C1108 C1109 1.524 . S
C1108 H1127 0.913 . S
C1109 H1085 0.950 . S
C1109 C1108 1.524 . S
C1109 C1110 1.415 . S
C1110 H1086 0.950 . S
C1110 C1105 1.363 . S
C1110 C1109 1.415 . S
C1111 H1087 0.954 . S
C1111 C1112 1.366 1_455 S
C1111 C1113 1.388 . S
C1112 C1111 1.366 1_655 S
C1112 C1116 1.385 . S
C1113 H1088 0.951 . S
C1113 C1111 1.388 . S
C1113 C1114 1.366 . S
C1114 C1113 1.366 . S
C1114 C1115 1.414 . S
C1114 C1117 1.499 . S
C1115 H1089 0.950 . S
C1115 C1114 1.414 . S
C1115 C1116 1.374 1_455 S
C1116 H1090 0.950 . S
C1116 C1112 1.385 . S
C1116 C1115 1.374 1_655 S
C1117 C1114 1.499 . S
C1117 C1118 1.373 . S
C1117 C1119 1.389 1_556 S
C1118 H1091 0.950 . S
C1118 C1104 1.377 . S
C1118 C1117 1.373 . S
C1119 C1103 1.377 . S
C1119 C1117 1.389 1_554 S
C1119 C1120 1.524 . S
C1120 C1119 1.524 . S
C1120 C1121 1.397 . S
C1120 C1125 1.363 . S
C1121 H1092 0.950 . S
C1121 C1120 1.397 . S
C1121 C1122 1.334 . S
C1122 H1093 0.950 . S
C1122 C1121 1.334 . S
C1122 C1123 1.287 . S
C1123 C1122 1.287 . S
C1123 C1124 1.524 . S
C1123 H1126 0.999 . S
C1124 H1094 0.950 . S
C1124 C1123 1.524 . S
C1124 C1125 1.415 . S
C1125 H1095 0.950 . S
C1125 C1120 1.363 . S
C1125 C1124 1.415 . S
H1126 C1123 0.999 . S
H1127 C1108 0.913 . S
H1128 C1146 0.951 . S
H1129 C1148 0.951 . S
H1130 C1150 0.950 . S
H1131 C1151 0.950 . S
H1132 C1153 0.950 . S
H1133 C1156 0.950 . S
H1134 C1157 0.950 . S
H1135 C1159 0.950 . S
H1136 C1160 0.950 . S
H1137 C1161 0.951 . S
H1138 C1163 0.951 . S
H1139 C1165 0.950 . S
H1140 C1166 0.950 . S
H1141 C1168 0.950 . S
H1142 C1171 0.950 . S
H1143 C1172 0.950 . S
H1144 C1174 0.950 . S
H1145 C1175 0.950 . S
C1146 H1128 0.951 . S
C1146 C1147 1.366 . S
C1146 C1148 1.388 . S
C1147 C1146 1.366 . S
C1147 C1151 1.385 . S
C1148 H1129 0.951 . S
C1148 C1146 1.388 . S
C1148 C1149 1.366 . S
C1149 C1148 1.366 . S
C1149 C1150 1.414 . S
C1149 C1152 1.499 . S
C1150 H1130 0.950 . S
C1150 C1149 1.414 . S
C1150 C1151 1.374 . S
C1151 H1131 0.950 . S
C1151 C1147 1.385 . S
C1151 C1150 1.374 . S
C1152 C1149 1.499 . S
C1152 C1153 1.373 . S
C1152 C1154 1.389 . S
C1153 H1132 0.950 . S
C1153 C1152 1.373 . S
C1153 C1169 1.377 . S
C1154 C1152 1.389 . S
C1154 C1155 1.524 . S
C1154 C1168 1.377 . S
C1155 C1154 1.524 . S
C1155 C1156 1.397 . S
C1155 C1160 1.363 . S
C1156 H1133 0.950 . S
C1156 C1155 1.397 . S
C1156 C1157 1.334 . S
C1157 H1134 0.950 . S
C1157 C1156 1.334 . S
C1157 C1158 1.287 . S
C1158 C1157 1.287 . S
C1158 C1159 1.524 . S
C1158 H1177 0.913 . S
C1159 H1135 0.950 . S
C1159 C1158 1.524 . S
C1159 C1160 1.415 . S
C1160 H1136 0.950 . S
C1160 C1155 1.363 . S
C1160 C1159 1.415 . S
C1161 H1137 0.951 . S
C1161 C1162 1.366 . S
C1161 C1163 1.388 . S
C1162 C1161 1.366 . S
C1162 C1166 1.385 . S
C1163 H1138 0.951 . S
C1163 C1161 1.388 . S
C1163 C1164 1.366 . S
C1164 C1163 1.366 . S
C1164 C1165 1.414 . S
C1164 C1167 1.499 . S
C1165 H1139 0.950 . S
C1165 C1164 1.414 . S
C1165 C1166 1.374 . S
C1166 H1140 0.950 . S
C1166 C1162 1.385 . S
C1166 C1165 1.374 . S
C1167 C1164 1.499 . S
C1167 C1168 1.373 . S
C1167 C1169 1.389 . S
C1168 H1141 0.950 . S
C1168 C1154 1.377 . S
C1168 C1167 1.373 . S
C1169 C1153 1.377 . S
C1169 C1167 1.389 . S
C1169 C1170 1.524 . S
C1170 C1169 1.524 . S
C1170 C1171 1.397 . S
C1170 C1175 1.363 . S
C1171 H1142 0.950 . S
C1171 C1170 1.397 . S
C1171 C1172 1.334 . S
C1172 H1143 0.950 . S
C1172 C1171 1.334 . S
C1172 C1173 1.287 . S
C1173 C1172 1.287 . S
C1173 C1174 1.524 . S
C1173 H1176 0.999 . S
C1174 H1144 0.950 . S
C1174 C1173 1.524 . S
C1174 C1175 1.415 . S
C1175 H1145 0.950 . S
C1175 C1170 1.363 . S
C1175 C1174 1.415 . S
H1176 C1173 0.999 . S
H1177 C1158 0.913 . S
H1178 C1196 0.951 . S
H1179 C1198 0.951 . S
H1180 C1200 0.950 . S
H1181 C1201 0.950 . S
H1182 C1203 0.950 . S
H1183 C1206 0.950 . S
H1184 C1207 0.950 . S
H1185 C1209 0.950 . S
H1186 C1210 0.950 . S
H1187 C1211 0.951 . S
H1188 C1213 0.951 . S
H1189 C1215 0.950 . S
H1190 C1216 0.950 . S
H1191 C1218 0.950 . S
H1192 C1221 0.950 . S
H1193 C1222 0.950 . S
H1194 C1224 0.950 . S
H1195 C1225 0.950 . S
C1196 H1178 0.951 . S
C1196 C1197 1.366 . S
C1196 C1198 1.388 . S
C1197 C1196 1.366 . S
C1197 C1201 1.385 . S
C1198 H1179 0.951 . S
C1198 C1196 1.388 . S
C1198 C1199 1.366 . S
C1199 C1198 1.366 . S
C1199 C1200 1.414 . S
C1199 C1202 1.499 . S
C1200 H1180 0.950 . S
C1200 C1199 1.414 . S
C1200 C1201 1.374 . S
C1201 H1181 0.950 . S
C1201 C1197 1.385 . S
C1201 C1200 1.374 . S
C1202 C1199 1.499 . S
C1202 C1203 1.373 . S
C1202 C1204 1.389 . S
C1203 H1182 0.950 . S
C1203 C1202 1.373 . S
C1203 C1219 1.377 . S
C1204 C1202 1.389 . S
C1204 C1205 1.524 . S
C1204 C1218 1.377 . S
C1205 C1204 1.524 . S
C1205 C1206 1.397 . S
C1205 C1210 1.363 . S
C1206 H1183 0.950 . S
C1206 C1205 1.397 . S
C1206 C1207 1.334 . S
C1207 H1184 0.950 . S
C1207 C1206 1.334 . S
C1207 C1208 1.287 . S
C1208 C1207 1.287 . S
C1208 C1209 1.524 . S
C1208 H1227 0.913 . S
C1209 H1185 0.950 . S
C1209 C1208 1.524 . S
C1209 C1210 1.415 . S
C1210 H1186 0.950 . S
C1210 C1205 1.363 . S
C1210 C1209 1.415 . S
C1211 H1187 0.951 . S
C1211 C1212 1.366 . S
C1211 C1213 1.388 . S
C1212 C1211 1.366 . S
C1212 C1216 1.385 . S
C1213 H1188 0.951 . S
C1213 C1211 1.388 . S
C1213 C1214 1.366 . S
C1214 C1213 1.366 . S
C1214 C1215 1.414 . S
C1214 C1217 1.499 . S
C1215 H1189 0.950 . S
C1215 C1214 1.414 . S
C1215 C1216 1.374 . S
C1216 H1190 0.950 . S
C1216 C1212 1.385 . S
C1216 C1215 1.374 . S
C1217 C1214 1.499 . S
C1217 C1218 1.373 . S
C1217 C1219 1.389 . S
C1218 H1191 0.950 . S
C1218 C1204 1.377 . S
C1218 C1217 1.373 . S
C1219 C1203 1.377 . S
C1219 C1217 1.389 . S
C1219 C1220 1.524 . S
C1220 C1219 1.524 . S
C1220 C1221 1.397 . S
C1220 C1225 1.363 . S
C1221 H1192 0.950 . S
C1221 C1220 1.397 . S
C1221 C1222 1.334 . S
C1222 H1193 0.950 . S
C1222 C1221 1.334 . S
C1222 C1223 1.287 . S
C1223 C1222 1.287 . S
C1223 C1224 1.524 . S
C1223 H1226 0.999 . S
C1224 H1194 0.950 . S
C1224 C1223 1.524 . S
C1224 C1225 1.415 . S
C1225 H1195 0.950 . S
C1225 C1220 1.363 . S
C1225 C1224 1.415 . S
H1226 C1223 0.999 . S
H1227 C1208 0.913 . S
H1228 C1246 0.951 . S
H1229 C1248 0.951 . S
H1230 C1250 0.950 . S
H1231 C1251 0.950 . S
H1232 C1253 0.950 . S
H1233 C1256 0.950 . S
H1234 C1257 0.950 . S
H1235 C1259 0.950 . S
H1236 C1260 0.950 . S
H1237 C1261 0.951 . S
H1238 C1263 0.951 . S
H1239 C1265 0.950 . S
H1240 C1266 0.950 . S
H1241 C1268 0.950 . S
H1242 C1271 0.950 . S
H1243 C1272 0.950 . S
H1244 C1274 0.950 . S
H1245 C1275 0.950 . S
C1246 H1228 0.951 . S
C1246 C1247 1.366 . S
C1246 C1248 1.388 . S
C1247 C1246 1.366 . S
C1247 C1251 1.385 . S
C1248 H1229 0.951 . S
C1248 C1246 1.388 . S
C1248 C1249 1.366 . S
C1249 C1248 1.366 . S
C1249 C1250 1.414 . S
C1249 C1252 1.499 . S
C1250 H1230 0.950 . S
C1250 C1249 1.414 . S
C1250 C1251 1.374 . S
C1251 H1231 0.950 . S
C1251 C1247 1.385 . S
C1251 C1250 1.374 . S
C1252 C1249 1.499 . S
C1252 C1253 1.373 . S
C1252 C1254 1.389 . S
C1253 H1232 0.950 . S
C1253 C1252 1.373 . S
C1253 C1269 1.377 . S
C1254 C1252 1.389 . S
C1254 C1255 1.524 . S
C1254 C1268 1.377 . S
C1255 C1254 1.524 . S
C1255 C1256 1.397 . S
C1255 C1260 1.363 . S
C1256 H1233 0.950 . S
C1256 C1255 1.397 . S
C1256 C1257 1.334 . S
C1257 H1234 0.950 . S
C1257 C1256 1.334 . S
C1257 C1258 1.287 . S
C1258 C1257 1.287 . S
C1258 C1259 1.524 . S
C1258 H1277 0.913 . S
C1259 H1235 0.950 . S
C1259 C1258 1.524 . S
C1259 C1260 1.415 . S
C1260 H1236 0.950 . S
C1260 C1255 1.363 . S
C1260 C1259 1.415 . S
C1261 H1237 0.951 . S
C1261 C1262 1.366 . S
C1261 C1263 1.388 . S
C1262 C1261 1.366 . S
C1262 C1266 1.385 . S
C1263 H1238 0.951 . S
C1263 C1261 1.388 . S
C1263 C1264 1.366 . S
C1264 C1263 1.366 . S
C1264 C1265 1.414 . S
C1264 C1267 1.499 . S
C1265 H1239 0.950 . S
C1265 C1264 1.414 . S
C1265 C1266 1.374 . S
C1266 H1240 0.950 . S
C1266 C1262 1.385 . S
C1266 C1265 1.374 . S
C1267 C1264 1.499 . S
C1267 C1268 1.373 . S
C1267 C1269 1.389 . S
C1268 H1241 0.950 . S
C1268 C1254 1.377 . S
C1268 C1267 1.373 . S
C1269 C1253 1.377 . S
C1269 C1267 1.389 . S
C1269 C1270 1.524 . S
C1270 C1269 1.524 . S
C1270 C1271 1.397 . S
C1270 C1275 1.363 . S
C1271 H1242 0.950 . S
C1271 C1270 1.397 . S
C1271 C1272 1.334 . S
C1272 H1243 0.950 . S
C1272 C1271 1.334 . S
C1272 C1273 1.287 . S
C1273 C1272 1.287 . S
C1273 C1274 1.524 . S
C1273 H1276 0.999 . S
C1274 H1244 0.950 . S
C1274 C1273 1.524 . S
C1274 C1275 1.415 . S
C1275 H1245 0.950 . S
C1275 C1270 1.363 . S
C1275 C1274 1.415 . S
H1276 C1273 0.999 . S
H1277 C1258 0.913 . S
H1278 C1296 0.951 . S
H1279 C1298 0.951 . S
H1280 C1300 0.950 . S
H1281 C1301 0.950 . S
H1282 C1303 0.950 . S
H1283 C1306 0.950 . S
H1284 C1307 0.950 . S
H1285 C1309 0.950 . S
H1286 C1310 0.950 . S
H1287 C1311 0.951 . S
H1288 C1313 0.951 . S
H1289 C1315 0.950 . S
H1290 C1316 0.950 . S
H1291 C1318 0.950 . S
H1292 C1321 0.950 . S
H1293 C1322 0.950 . S
H1294 C1324 0.950 . S
H1295 C1325 0.950 . S
C1296 H1278 0.951 . S
C1296 C1297 1.366 . S
C1296 C1298 1.388 . S
C1297 C1296 1.366 . S
C1297 C1301 1.385 . S
C1298 H1279 0.951 . S
C1298 C1296 1.388 . S
C1298 C1299 1.366 . S
C1299 C1298 1.366 . S
C1299 C1300 1.414 . S
C1299 C1302 1.499 . S
C1300 H1280 0.950 . S
C1300 C1299 1.414 . S
C1300 C1301 1.374 . S
C1301 H1281 0.950 . S
C1301 C1297 1.385 . S
C1301 C1300 1.374 . S
C1302 C1299 1.499 . S
C1302 C1303 1.373 . S
C1302 C1304 1.389 . S
C1303 H1282 0.950 . S
C1303 C1302 1.373 . S
C1303 C1319 1.377 . S
C1304 C1302 1.389 . S
C1304 C1305 1.524 . S
C1304 C1318 1.377 . S
C1305 C1304 1.524 . S
C1305 C1306 1.397 . S
C1305 C1310 1.363 . S
C1306 H1283 0.950 . S
C1306 C1305 1.397 . S
C1306 C1307 1.334 . S
C1307 H1284 0.950 . S
C1307 C1306 1.334 . S
C1307 C1308 1.287 . S
C1308 C1307 1.287 . S
C1308 C1309 1.524 . S
C1308 H1327 0.913 . S
C1309 H1285 0.950 . S
C1309 C1308 1.524 . S
C1309 C1310 1.415 . S
C1310 H1286 0.950 . S
C1310 C1305 1.363 . S
C1310 C1309 1.415 . S
C1311 H1287 0.951 . S
C1311 C1312 1.366 . S
C1311 C1313 1.388 . S
C1312 C1311 1.366 . S
C1312 C1316 1.385 . S
C1313 H1288 0.951 . S
C1313 C1311 1.388 . S
C1313 C1314 1.366 . S
C1314 C1313 1.366 . S
C1314 C1315 1.414 . S
C1314 C1317 1.499 . S
C1315 H1289 0.950 . S
C1315 C1314 1.414 . S
C1315 C1316 1.374 . S
C1316 H1290 0.950 . S
C1316 C1312 1.385 . S
C1316 C1315 1.374 . S
C1317 C1314 1.499 . S
C1317 C1318 1.373 . S
C1317 C1319 1.389 . S
C1318 H1291 0.950 . S
C1318 C1304 1.377 . S
C1318 C1317 1.373 . S
C1319 C1303 1.377 . S
C1319 C1317 1.389 . S
C1319 C1320 1.524 . S
C1320 C1319 1.524 . S
C1320 C1321 1.397 . S
C1320 C1325 1.363 . S
C1321 H1292 0.950 . S
C1321 C1320 1.397 . S
C1321 C1322 1.334 . S
C1322 H1293 0.950 . S
C1322 C1321 1.334 . S
C1322 C1323 1.287 . S
C1323 C1322 1.287 . S
C1323 C1324 1.524 . S
C1323 H1326 0.999 . S
C1324 H1294 0.950 . S
C1324 C1323 1.524 . S
C1324 C1325 1.415 . S
C1325 H1295 0.950 . S
C1325 C1320 1.363 . S
C1325 C1324 1.415 . S
H1326 C1323 0.999 . S
H1327 C1308 0.913 . S
H1328 C1346 0.951 . S
H1329 C1348 0.951 . S
H1330 C1350 0.950 . S
H1331 C1351 0.950 . S
H1332 C1353 0.950 . S
H1333 C1356 0.950 . S
H1334 C1357 0.950 . S
H1335 C1359 0.950 . S
H1336 C1360 0.950 . S
H1337 C1361 0.951 . S
H1338 C1363 0.951 . S
H1339 C1365 0.950 . S
H1340 C1366 0.950 . S
H1341 C1368 0.950 . S
H1342 C1371 0.950 . S
H1343 C1372 0.950 . S
H1344 C1374 0.950 . S
H1345 C1375 0.950 . S
C1346 H1328 0.951 . S
C1346 C1347 1.366 . S
C1346 C1348 1.388 . S
C1347 C1346 1.366 . S
C1347 C1351 1.385 . S
C1348 H1329 0.951 . S
C1348 C1346 1.388 . S
C1348 C1349 1.366 . S
C1349 C1348 1.366 . S
C1349 C1350 1.414 . S
C1349 C1352 1.499 . S
C1350 H1330 0.950 . S
C1350 C1349 1.414 . S
C1350 C1351 1.374 . S
C1351 H1331 0.950 . S
C1351 C1347 1.385 . S
C1351 C1350 1.374 . S
C1352 C1349 1.499 . S
C1352 C1353 1.373 . S
C1352 C1354 1.389 . S
C1353 H1332 0.950 . S
C1353 C1352 1.373 . S
C1353 C1369 1.377 . S
C1354 C1352 1.389 . S
C1354 C1355 1.524 . S
C1354 C1368 1.377 . S
C1355 C1354 1.524 . S
C1355 C1356 1.397 . S
C1355 C1360 1.363 . S
C1356 H1333 0.950 . S
C1356 C1355 1.397 . S
C1356 C1357 1.334 . S
C1357 H1334 0.950 . S
C1357 C1356 1.334 . S
C1357 C1358 1.287 . S
C1358 C1357 1.287 . S
C1358 C1359 1.524 . S
C1358 H1377 0.913 . S
C1359 H1335 0.950 . S
C1359 C1358 1.524 . S
C1359 C1360 1.415 . S
C1360 H1336 0.950 . S
C1360 C1355 1.363 . S
C1360 C1359 1.415 . S
C1361 H1337 0.951 . S
C1361 C1362 1.366 . S
C1361 C1363 1.388 . S
C1362 C1361 1.366 . S
C1362 C1366 1.385 . S
C1363 H1338 0.951 . S
C1363 C1361 1.388 . S
C1363 C1364 1.366 . S
C1364 C1363 1.366 . S
C1364 C1365 1.414 . S
C1364 C1367 1.499 . S
C1365 H1339 0.950 . S
C1365 C1364 1.414 . S
C1365 C1366 1.374 . S
C1366 H1340 0.950 . S
C1366 C1362 1.385 . S
C1366 C1365 1.374 . S
C1367 C1364 1.499 . S
C1367 C1368 1.373 . S
C1367 C1369 1.389 . S
C1368 H1341 0.950 . S
C1368 C1354 1.377 . S
C1368 C1367 1.373 . S
C1369 C1353 1.377 . S
C1369 C1367 1.389 . S
C1369 C1370 1.524 . S
C1370 C1369 1.524 . S
C1370 C1371 1.397 . S
C1370 C1375 1.363 . S
C1371 H1342 0.950 . S
C1371 C1370 1.397 . S
C1371 C1372 1.334 . S
C1372 H1343 0.950 . S
C1372 C1371 1.334 . S
C1372 C1373 1.287 . S
C1373 C1372 1.287 . S
C1373 C1374 1.524 . S
C1373 H1376 0.999 . S
C1374 H1344 0.950 . S
C1374 C1373 1.524 . S
C1374 C1375 1.415 . S
C1375 H1345 0.950 . S
C1375 C1370 1.363 . S
C1375 C1374 1.415 . S
H1376 C1373 0.999 . S
H1377 C1358 0.913 . S
H1378 C1396 0.951 . S
H1379 C1398 0.951 . S
H1380 C1400 0.950 . S
H1381 C1401 0.950 . S
H1382 C1403 0.950 . S
H1383 C1406 0.950 . S
H1384 C1407 0.950 . S
H1385 C1409 0.950 . S
H1386 C1410 0.950 . S
H1387 C1411 0.951 . S
H1388 C1413 0.951 . S
H1389 C1415 0.950 . S
H1390 C1416 0.950 . S
H1391 C1418 0.950 . S
H1392 C1421 0.950 . S
H1393 C1422 0.950 . S
H1394 C1424 0.950 . S
H1395 C1425 0.950 . S
C1396 H1378 0.951 . S
C1396 C1397 1.366 . S
C1396 C1398 1.388 . S
C1397 C1396 1.366 . S
C1397 C1401 1.385 . S
C1398 H1379 0.951 . S
C1398 C1396 1.388 . S
C1398 C1399 1.366 . S
C1399 C1398 1.366 . S
C1399 C1400 1.414 . S
C1399 C1402 1.499 . S
C1400 H1380 0.950 . S
C1400 C1399 1.414 . S
C1400 C1401 1.374 . S
C1401 H1381 0.950 . S
C1401 C1397 1.385 . S
C1401 C1400 1.374 . S
C1402 C1399 1.499 . S
C1402 C1403 1.373 . S
C1402 C1404 1.389 . S
C1403 H1382 0.950 . S
C1403 C1402 1.373 . S
C1403 C1419 1.377 . S
C1404 C1402 1.389 . S
C1404 C1405 1.524 . S
C1404 C1418 1.377 . S
C1405 C1404 1.524 . S
C1405 C1406 1.397 . S
C1405 C1410 1.363 . S
C1406 H1383 0.950 . S
C1406 C1405 1.397 . S
C1406 C1407 1.334 . S
C1407 H1384 0.950 . S
C1407 C1406 1.334 . S
C1407 C1408 1.287 . S
C1408 C1407 1.287 . S
C1408 C1409 1.524 . S
C1408 H1427 0.913 . S
C1409 H1385 0.950 . S
C1409 C1408 1.524 . S
C1409 C1410 1.415 . S
C1410 H1386 0.950 . S
C1410 C1405 1.363 . S
C1410 C1409 1.415 . S
C1411 H1387 0.951 . S
C1411 C1412 1.366 . S
C1411 C1413 1.388 . S
C1412 C1411 1.366 . S
C1412 C1416 1.385 . S
C1413 H1388 0.951 . S
C1413 C1411 1.388 . S
C1413 C1414 1.366 . S
C1414 C1413 1.366 . S
C1414 C1415 1.414 . S
C1414 C1417 1.499 . S
C1415 H1389 0.950 . S
C1415 C1414 1.414 . S
C1415 C1416 1.374 . S
C1416 H1390 0.950 . S
C1416 C1412 1.385 . S
C1416 C1415 1.374 . S
C1417 C1414 1.499 . S
C1417 C1418 1.373 . S
C1417 C1419 1.389 . S
C1418 H1391 0.950 . S
C1418 C1404 1.377 . S
C1418 C1417 1.373 . S
C1419 C1403 1.377 . S
C1419 C1417 1.389 . S
C1419 C1420 1.524 . S
C1420 C1419 1.524 . S
C1420 C1421 1.397 . S
C1420 C1425 1.363 . S
C1421 H1392 0.950 . S
C1421 C1420 1.397 . S
C1421 C1422 1.334 . S
C1422 H1393 0.950 . S
C1422 C1421 1.334 . S
C1422 C1423 1.287 . S
C1423 C1422 1.287 . S
C1423 C1424 1.524 . S
C1423 H1426 0.999 . S
C1424 H1394 0.950 . S
C1424 C1423 1.524 . S
C1424 C1425 1.415 . S
C1425 H1395 0.950 . S
C1425 C1420 1.363 . S
C1425 C1424 1.415 . S
H1426 C1423 0.999 . S
H1427 C1408 0.913 . S
H1428 C1446 0.951 . S
H1429 C1448 0.951 . S
H1430 C1450 0.950 . S
H1431 C1451 0.950 . S
H1432 C1453 0.950 . S
H1433 C1456 0.950 . S
H1434 C1457 0.950 . S
H1435 C1459 0.950 . S
H1436 C1460 0.950 . S
H1437 C1461 0.951 . S
H1438 C1463 0.951 . S
H1439 C1465 0.950 . S
H1440 C1466 0.950 . S
H1441 C1468 0.950 . S
H1442 C1471 0.950 . S
H1443 C1472 0.950 . S
H1444 C1474 0.950 . S
H1445 C1475 0.950 . S
C1446 H1428 0.951 . S
C1446 C1447 1.366 . S
C1446 C1448 1.388 . S
C1447 C1446 1.366 . S
C1447 C1451 1.385 . S
C1448 H1429 0.951 . S
C1448 C1446 1.388 . S
C1448 C1449 1.366 . S
C1449 C1448 1.366 . S
C1449 C1450 1.414 . S
C1449 C1452 1.499 . S
C1450 H1430 0.950 . S
C1450 C1449 1.414 . S
C1450 C1451 1.374 . S
C1451 H1431 0.950 . S
C1451 C1447 1.385 . S
C1451 C1450 1.374 . S
C1452 C1449 1.499 . S
C1452 C1453 1.373 . S
C1452 C1454 1.389 . S
C1453 H1432 0.950 . S
C1453 C1452 1.373 . S
C1453 C1469 1.377 . S
C1454 C1452 1.389 . S
C1454 C1455 1.524 . S
C1454 C1468 1.377 . S
C1455 C1454 1.524 . S
C1455 C1456 1.397 . S
C1455 C1460 1.363 . S
C1456 H1433 0.950 . S
C1456 C1455 1.397 . S
C1456 C1457 1.334 . S
C1457 H1434 0.950 . S
C1457 C1456 1.334 . S
C1457 C1458 1.287 . S
C1458 C1457 1.287 . S
C1458 C1459 1.524 . S
C1458 H1477 0.913 . S
C1459 H1435 0.950 . S
C1459 C1458 1.524 . S
C1459 C1460 1.415 . S
C1460 H1436 0.950 . S
C1460 C1455 1.363 . S
C1460 C1459 1.415 . S
C1461 H1437 0.951 . S
C1461 C1462 1.366 . S
C1461 C1463 1.388 . S
C1462 C1461 1.366 . S
C1462 C1466 1.385 . S
C1463 H1438 0.951 . S
C1463 C1461 1.388 . S
C1463 C1464 1.366 . S
C1464 C1463 1.366 . S
C1464 C1465 1.414 . S
C1464 C1467 1.499 . S
C1465 H1439 0.950 . S
C1465 C1464 1.414 . S
C1465 C1466 1.374 . S
C1466 H1440 0.950 . S
C1466 C1462 1.385 . S
C1466 C1465 1.374 . S
C1467 C1464 1.499 . S
C1467 C1468 1.373 . S
C1467 C1469 1.389 . S
C1468 H1441 0.950 . S
C1468 C1454 1.377 . S
C1468 C1467 1.373 . S
C1469 C1453 1.377 . S
C1469 C1467 1.389 . S
C1469 C1470 1.524 . S
C1470 C1469 1.524 . S
C1470 C1471 1.397 . S
C1470 C1475 1.363 . S
C1471 H1442 0.950 . S
C1471 C1470 1.397 . S
C1471 C1472 1.334 . S
C1472 H1443 0.950 . S
C1472 C1471 1.334 . S
C1472 C1473 1.287 . S
C1473 C1472 1.287 . S
C1473 C1474 1.524 . S
C1473 H1476 0.999 . S
C1474 H1444 0.950 . S
C1474 C1473 1.524 . S
C1474 C1475 1.415 . S
C1475 H1445 0.950 . S
C1475 C1470 1.363 . S
C1475 C1474 1.415 . S
H1476 C1473 0.999 . S
H1477 C1458 0.913 . S
H1478 C1496 0.951 . S
H1479 C1498 0.951 . S
H1480 C1500 0.950 . S
H1481 C1501 0.950 . S
H1482 C1503 0.950 . S
H1483 C1506 0.950 . S
H1484 C1507 0.950 . S
H1485 C1509 0.950 . S
H1486 C1510 0.950 . S
H1487 C1511 0.951 . S
H1488 C1513 0.951 . S
H1489 C1515 0.950 . S
H1490 C1516 0.950 . S
H1491 C1518 0.950 . S
H1492 C1521 0.950 . S
H1493 C1522 0.950 . S
H1494 C1524 0.950 . S
H1495 C1525 0.950 . S
C1496 H1478 0.951 . S
C1496 C1497 1.366 . S
C1496 C1498 1.388 . S
C1497 C1496 1.366 . S
C1497 C1501 1.385 . S
C1498 H1479 0.951 . S
C1498 C1496 1.388 . S
C1498 C1499 1.366 . S
C1499 C1498 1.366 . S
C1499 C1500 1.414 . S
C1499 C1502 1.499 . S
C1500 H1480 0.950 . S
C1500 C1499 1.414 . S
C1500 C1501 1.374 . S
C1501 H1481 0.950 . S
C1501 C1497 1.385 . S
C1501 C1500 1.374 . S
C1502 C1499 1.499 . S
C1502 C1503 1.373 . S
C1502 C1504 1.389 . S
C1503 H1482 0.950 . S
C1503 C1502 1.373 . S
C1503 C1519 1.377 . S
C1504 C1502 1.389 . S
C1504 C1505 1.524 . S
C1504 C1518 1.377 . S
C1505 C1504 1.524 . S
C1505 C1506 1.397 . S
C1505 C1510 1.363 . S
C1506 H1483 0.950 . S
C1506 C1505 1.397 . S
C1506 C1507 1.334 . S
C1507 H1484 0.950 . S
C1507 C1506 1.334 . S
C1507 C1508 1.287 . S
C1508 C1507 1.287 . S
C1508 C1509 1.524 . S
C1508 H1527 0.913 . S
C1509 H1485 0.950 . S
C1509 C1508 1.524 . S
C1509 C1510 1.415 . S
C1510 H1486 0.950 . S
C1510 C1505 1.363 . S
C1510 C1509 1.415 . S
C1511 H1487 0.951 . S
C1511 C1512 1.366 . S
C1511 C1513 1.388 . S
C1512 C1511 1.366 . S
C1512 C1516 1.385 . S
C1513 H1488 0.951 . S
C1513 C1511 1.388 . S
C1513 C1514 1.366 . S
C1514 C1513 1.366 . S
C1514 C1515 1.414 . S
C1514 C1517 1.499 . S
C1515 H1489 0.950 . S
C1515 C1514 1.414 . S
C1515 C1516 1.374 . S
C1516 H1490 0.950 . S
C1516 C1512 1.385 . S
C1516 C1515 1.374 . S
C1517 C1514 1.499 . S
C1517 C1518 1.373 . S
C1517 C1519 1.389 . S
C1518 H1491 0.950 . S
C1518 C1504 1.377 . S
C1518 C1517 1.373 . S
C1519 C1503 1.377 . S
C1519 C1517 1.389 . S
C1519 C1520 1.524 . S
C1520 C1519 1.524 . S
C1520 C1521 1.397 . S
C1520 C1525 1.363 . S
C1521 H1492 0.950 . S
C1521 C1520 1.397 . S
C1521 C1522 1.334 . S
C1522 H1493 0.950 . S
C1522 C1521 1.334 . S
C1522 C1523 1.287 . S
C1523 C1522 1.287 . S
C1523 C1524 1.524 . S
C1523 H1526 0.999 . S
C1524 H1494 0.950 . S
C1524 C1523 1.524 . S
C1524 C1525 1.415 . S
C1525 H1495 0.950 . S
C1525 C1520 1.363 . S
C1525 C1524 1.415 . S
H1526 C1523 0.999 . S
H1527 C1508 0.913 . S
H1528 C1546 0.951 . S
H1529 C1548 0.951 . S
H1530 C1550 0.950 . S
H1531 C1551 0.950 . S
H1532 C1553 0.950 . S
H1533 C1556 0.950 . S
H1534 C1557 0.950 . S
H1535 C1559 0.950 . S
H1536 C1560 0.950 . S
H1537 C1561 0.951 . S
H1538 C1563 0.951 . S
H1539 C1565 0.950 . S
H1540 C1566 0.950 . S
H1541 C1568 0.950 . S
H1542 C1571 0.950 . S
H1543 C1572 0.950 . S
H1544 C1574 0.950 . S
H1545 C1575 0.950 . S
C1546 H1528 0.951 . S
C1546 C1547 1.366 . S
C1546 C1548 1.388 1_565 S
C1547 C1546 1.366 . S
C1547 C1551 1.385 1_565 S
C1548 H1529 0.951 . S
C1548 C1546 1.388 1_545 S
C1548 C1549 1.366 . S
C1549 C1548 1.366 . S
C1549 C1550 1.414 . S
C1549 C1552 1.499 . S
C1550 H1530 0.950 . S
C1550 C1549 1.414 . S
C1550 C1551 1.374 . S
C1551 H1531 0.950 . S
C1551 C1547 1.385 1_545 S
C1551 C1550 1.374 . S
C1552 C1549 1.499 . S
C1552 C1553 1.373 . S
C1552 C1554 1.389 . S
C1553 H1532 0.950 . S
C1553 C1552 1.373 . S
C1553 C1569 1.377 . S
C1554 C1552 1.389 . S
C1554 C1555 1.524 . S
C1554 C1568 1.377 . S
C1555 C1554 1.524 . S
C1555 C1556 1.397 . S
C1555 C1560 1.363 . S
C1556 H1533 0.950 . S
C1556 C1555 1.397 . S
C1556 C1557 1.334 . S
C1557 H1534 0.950 . S
C1557 C1556 1.334 . S
C1557 C1558 1.287 . S
C1558 C1557 1.287 . S
C1558 C1559 1.524 . S
C1558 H1577 0.913 . S
C1559 H1535 0.950 . S
C1559 C1558 1.524 . S
C1559 C1560 1.415 . S
C1560 H1536 0.950 . S
C1560 C1555 1.363 . S
C1560 C1559 1.415 . S
C1561 H1537 0.951 . S
C1561 C1562 1.366 . S
C1561 C1563 1.388 . S
C1562 C1561 1.366 . S
C1562 C1566 1.385 . S
C1563 H1538 0.951 . S
C1563 C1561 1.388 . S
C1563 C1564 1.366 . S
C1564 C1563 1.366 . S
C1564 C1565 1.414 . S
C1564 C1567 1.499 . S
C1565 H1539 0.950 . S
C1565 C1564 1.414 . S
C1565 C1566 1.374 . S
C1566 H1540 0.950 . S
C1566 C1562 1.385 . S
C1566 C1565 1.374 . S
C1567 C1564 1.499 . S
C1567 C1568 1.373 . S
C1567 C1569 1.389 . S
C1568 H1541 0.950 . S
C1568 C1554 1.377 . S
C1568 C1567 1.373 . S
C1569 C1553 1.377 . S
C1569 C1567 1.389 . S
C1569 C1570 1.524 . S
C1570 C1569 1.524 . S
C1570 C1571 1.397 . S
C1570 C1575 1.363 . S
C1571 H1542 0.950 . S
C1571 C1570 1.397 . S
C1571 C1572 1.334 . S
C1572 H1543 0.950 . S
C1572 C1571 1.334 . S
C1572 C1573 1.287 . S
C1573 C1572 1.287 . S
C1573 C1574 1.524 . S
C1573 H1576 0.999 . S
C1574 H1544 0.950 . S
C1574 C1573 1.524 . S
C1574 C1575 1.415 . S
C1575 H1545 0.950 . S
C1575 C1570 1.363 . S
C1575 C1574 1.415 . S
H1576 C1573 0.999 . S
H1577 C1558 0.913 . S
H1578 C1596 0.951 . S
H1579 C1598 0.951 . S
H1580 C1600 0.950 . S
H1581 C1601 0.950 . S
H1582 C1603 0.950 . S
H1583 C1606 0.950 . S
H1584 C1607 0.950 . S
H1585 C1609 0.950 . S
H1586 C1610 0.950 . S
H1587 C1611 0.951 . S
H1588 C1613 0.951 . S
H1589 C1615 0.950 . S
H1590 C1616 0.950 . S
H1591 C1618 0.950 . S
H1592 C1621 0.950 . S
H1593 C1622 0.950 . S
H1594 C1624 0.950 . S
H1595 C1625 0.950 . S
C1596 H1578 0.951 . S
C1596 C1597 1.366 . S
C1596 C1598 1.388 . S
C1597 C1596 1.366 . S
C1597 C1601 1.385 . S
C1598 H1579 0.951 . S
C1598 C1596 1.388 . S
C1598 C1599 1.366 . S
C1599 C1598 1.366 . S
C1599 C1600 1.414 . S
C1599 C1602 1.499 . S
C1600 H1580 0.950 . S
C1600 C1599 1.414 . S
C1600 C1601 1.374 . S
C1601 H1581 0.950 . S
C1601 C1597 1.385 . S
C1601 C1600 1.374 . S
C1602 C1599 1.499 . S
C1602 C1603 1.373 . S
C1602 C1604 1.389 . S
C1603 H1582 0.950 . S
C1603 C1602 1.373 . S
C1603 C1619 1.377 . S
C1604 C1602 1.389 . S
C1604 C1605 1.524 . S
C1604 C1618 1.377 . S
C1605 C1604 1.524 . S
C1605 C1606 1.397 . S
C1605 C1610 1.363 . S
C1606 H1583 0.950 . S
C1606 C1605 1.397 . S
C1606 C1607 1.334 . S
C1607 H1584 0.950 . S
C1607 C1606 1.334 . S
C1607 C1608 1.287 . S
C1608 C1607 1.287 . S
C1608 C1609 1.524 . S
C1608 H1627 0.913 . S
C1609 H1585 0.950 . S
C1609 C1608 1.524 . S
C1609 C1610 1.415 . S
C1610 H1586 0.950 . S
C1610 C1605 1.363 . S
C1610 C1609 1.415 . S
C1611 H1587 0.951 . S
C1611 C1612 1.366 1_455 S
C1611 C1613 1.388 . S
C1612 C1611 1.366 1_655 S
C1612 C1616 1.385 . S
C1613 H1588 0.951 . S
C1613 C1611 1.388 . S
C1613 C1614 1.366 . S
C1614 C1613 1.366 . S
C1614 C1615 1.414 . S
C1614 C1617 1.499 . S
C1615 H1589 0.950 . S
C1615 C1614 1.414 . S
C1615 C1616 1.374 1_455 S
C1616 H1590 0.950 . S
C1616 C1612 1.385 . S
C1616 C1615 1.374 1_655 S
C1617 C1614 1.499 . S
C1617 C1618 1.373 . S
C1617 C1619 1.389 . S
C1618 H1591 0.950 . S
C1618 C1604 1.377 . S
C1618 C1617 1.373 . S
C1619 C1603 1.377 . S
C1619 C1617 1.389 . S
C1619 C1620 1.524 . S
C1620 C1619 1.524 . S
C1620 C1621 1.397 . S
C1620 C1625 1.363 . S
C1621 H1592 0.950 . S
C1621 C1620 1.397 . S
C1621 C1622 1.334 . S
C1622 H1593 0.950 . S
C1622 C1621 1.334 . S
C1622 C1623 1.287 . S
C1623 C1622 1.287 . S
C1623 C1624 1.524 . S
C1623 H1626 0.999 . S
C1624 H1594 0.950 . S
C1624 C1623 1.524 . S
C1624 C1625 1.415 . S
C1625 H1595 0.950 . S
C1625 C1620 1.363 . S
C1625 C1624 1.415 . S
H1626 C1623 0.999 . S
H1627 C1608 0.913 . S
H1628 C1646 0.951 . S
H1629 C1648 0.951 . S
H1630 C1650 0.950 . S
H1631 C1651 0.950 . S
H1632 C1653 0.950 . S
H1633 C1656 0.950 . S
H1634 C1657 0.950 . S
H1635 C1659 0.950 . S
H1636 C1660 0.950 . S
H1637 C1661 0.951 . S
H1638 C1663 0.951 . S
H1639 C1665 0.950 . S
H1640 C1666 0.950 1_545 S
H1641 C1668 0.950 . S
H1642 C1671 0.950 . S
H1643 C1672 0.950 1_545 S
H1644 C1674 0.950 . S
H1645 C1675 0.950 . S
C1646 H1628 0.951 . S
C1646 C1647 1.366 . S
C1646 C1648 1.388 . S
C1647 C1646 1.366 . S
C1647 C1651 1.385 . S
C1648 H1629 0.951 . S
C1648 C1646 1.388 . S
C1648 C1649 1.366 . S
C1649 C1648 1.366 . S
C1649 C1650 1.414 . S
C1649 C1652 1.499 . S
C1650 H1630 0.950 . S
C1650 C1649 1.414 . S
C1650 C1651 1.374 . S
C1651 H1631 0.950 . S
C1651 C1647 1.385 . S
C1651 C1650 1.374 . S
C1652 C1649 1.499 . S
C1652 C1653 1.373 . S
C1652 C1654 1.389 . S
C1653 H1632 0.950 . S
C1653 C1652 1.373 . S
C1653 C1669 1.377 . S
C1654 C1652 1.389 . S
C1654 C1655 1.524 . S
C1654 C1668 1.377 . S
C1655 C1654 1.524 . S
C1655 C1656 1.397 . S
C1655 C1660 1.363 . S
C1656 H1633 0.950 . S
C1656 C1655 1.397 . S
C1656 C1657 1.334 . S
C1657 H1634 0.950 . S
C1657 C1656 1.334 . S
C1657 C1658 1.287 . S
C1658 C1657 1.287 . S
C1658 C1659 1.524 . S
C1658 H1677 0.913 . S
C1659 H1635 0.950 . S
C1659 C1658 1.524 . S
C1659 C1660 1.415 . S
C1660 H1636 0.950 . S
C1660 C1655 1.363 . S
C1660 C1659 1.415 . S
C1661 H1637 0.951 . S
C1661 C1662 1.366 . S
C1661 C1663 1.388 1_545 S
C1662 C1661 1.366 . S
C1662 C1666 1.385 1_545 S
C1663 H1638 0.951 . S
C1663 C1661 1.388 1_565 S
C1663 C1664 1.366 . S
C1664 C1663 1.366 . S
C1664 C1665 1.414 . S
C1664 C1667 1.499 . S
C1665 H1639 0.950 . S
C1665 C1664 1.414 . S
C1665 C1666 1.374 . S
C1666 H1640 0.950 1_565 S
C1666 C1662 1.385 1_565 S
C1666 C1665 1.374 . S
C1667 C1664 1.499 . S
C1667 C1668 1.373 . S
C1667 C1669 1.389 . S
C1668 H1641 0.950 . S
C1668 C1654 1.377 . S
C1668 C1667 1.373 . S
C1669 C1653 1.377 . S
C1669 C1667 1.389 . S
C1669 C1670 1.524 . S
C1670 C1669 1.524 . S
C1670 C1671 1.397 . S
C1670 C1675 1.363 . S
C1671 H1642 0.950 . S
C1671 C1670 1.397 . S
C1671 C1672 1.334 . S
C1672 H1643 0.950 1_565 S
C1672 C1671 1.334 . S
C1672 C1673 1.287 . S
C1673 C1672 1.287 . S
C1673 C1674 1.524 . S
C1673 H1676 0.999 1_565 S
C1674 H1644 0.950 . S
C1674 C1673 1.524 . S
C1674 C1675 1.415 . S
C1675 H1645 0.950 . S
C1675 C1670 1.363 . S
C1675 C1674 1.415 . S
H1676 C1673 0.999 1_545 S
H1677 C1658 0.913 . S
H1678 C1696 0.951 . S
H1679 C1698 0.951 . S
H1680 C1700 0.950 . S
H1681 C1701 0.950 . S
H1682 C1703 0.950 . S
H1683 C1706 0.950 . S
H1684 C1707 0.950 1_455 S
H1685 C1709 0.950 . S
H1686 C1710 0.950 . S
H1687 C1711 0.951 . S
H1688 C1713 0.951 . S
H1689 C1715 0.950 . S
H1690 C1716 0.950 . S
H1691 C1718 0.950 . S
H1692 C1721 0.950 . S
H1693 C1722 0.950 . S
H1694 C1724 0.950 . S
H1695 C1725 0.950 . S
C1696 H1678 0.951 . S
C1696 C1697 1.366 . S
C1696 C1698 1.388 1_455 S
C1697 C1696 1.366 . S
C1697 C1701 1.385 . S
C1698 H1679 0.951 . S
C1698 C1696 1.388 1_655 S
C1698 C1699 1.366 . S
C1699 C1698 1.366 . S
C1699 C1700 1.414 . S
C1699 C1702 1.499 . S
C1700 H1680 0.950 . S
C1700 C1699 1.414 . S
C1700 C1701 1.374 1_655 S
C1701 H1681 0.950 . S
C1701 C1697 1.385 . S
C1701 C1700 1.374 1_455 S
C1702 C1699 1.499 . S
C1702 C1703 1.373 . S
C1702 C1704 1.389 . S
C1703 H1682 0.950 . S
C1703 C1702 1.373 . S
C1703 C1719 1.377 . S
C1704 C1702 1.389 . S
C1704 C1705 1.524 . S
C1704 C1718 1.377 . S
C1705 C1704 1.524 . S
C1705 C1706 1.397 . S
C1705 C1710 1.363 . S
C1706 H1683 0.950 . S
C1706 C1705 1.397 . S
C1706 C1707 1.334 . S
C1707 H1684 0.950 1_655 S
C1707 C1706 1.334 . S
C1707 C1708 1.287 . S
C1708 C1707 1.287 . S
C1708 C1709 1.524 . S
C1708 H1727 0.913 1_655 S
C1709 H1685 0.950 . S
C1709 C1708 1.524 . S
C1709 C1710 1.415 . S
C1710 H1686 0.950 . S
C1710 C1705 1.363 . S
C1710 C1709 1.415 . S
C1711 H1687 0.951 . S
C1711 C1712 1.366 . S
C1711 C1713 1.388 . S
C1712 C1711 1.366 . S
C1712 C1716 1.385 . S
C1713 H1688 0.951 . S
C1713 C1711 1.388 . S
C1713 C1714 1.366 . S
C1714 C1713 1.366 . S
C1714 C1715 1.414 . S
C1714 C1717 1.499 . S
C1715 H1689 0.950 . S
C1715 C1714 1.414 . S
C1715 C1716 1.374 . S
C1716 H1690 0.950 . S
C1716 C1712 1.385 . S
C1716 C1715 1.374 . S
C1717 C1714 1.499 . S
C1717 C1718 1.373 . S
C1717 C1719 1.389 . S
C1718 H1691 0.950 . S
C1718 C1704 1.377 . S
C1718 C1717 1.373 . S
C1719 C1703 1.377 . S
C1719 C1717 1.389 . S
C1719 C1720 1.524 . S
C1720 C1719 1.524 . S
C1720 C1721 1.397 . S
C1720 C1725 1.363 . S
C1721 H1692 0.950 . S
C1721 C1720 1.397 . S
C1721 C1722 1.334 . S
C1722 H1693 0.950 . S
C1722 C1721 1.334 . S
C1722 C1723 1.287 . S
C1723 C1722 1.287 . S
C1723 C1724 1.524 . S
C1723 H1726 0.999 . S
C1724 H1694 0.950 . S
C1724 C1723 1.524 . S
C1724 C1725 1.415 . S
C1725 H1695 0.950 . S
C1725 C1720 1.363 . S
C1725 C1724 1.415 . S
H1726 C1723 0.999 . S
H1727 C1708 0.913 1_455 S
H1728 C1746 0.951 . S
H1729 C1748 0.951 . S
H1730 C1750 0.950 . S
H1731 C1751 0.950 . S
H1732 C1753 0.950 . S
H1733 C1756 0.950 . S
H1734 C1757 0.950 . S
H1735 C1759 0.950 . S
H1736 C1760 0.950 1_554 S
H1737 C1761 0.951 . S
H1738 C1763 0.951 . S
H1739 C1765 0.950 . S
H1740 C1766 0.950 . S
H1741 C1768 0.950 . S
H1742 C1771 0.950 . S
H1743 C1772 0.950 . S
H1744 C1774 0.950 1_556 S
H1745 C1775 0.950 . S
C1746 H1728 0.951 . S
C1746 C1747 1.366 1_554 S
C1746 C1748 1.388 . S
C1747 C1746 1.366 1_556 S
C1747 C1751 1.385 . S
C1748 H1729 0.951 . S
C1748 C1746 1.388 . S
C1748 C1749 1.366 1_554 S
C1749 C1748 1.366 1_556 S
C1749 C1750 1.414 . S
C1749 C1752 1.499 . S
C1750 H1730 0.950 . S
C1750 C1749 1.414 . S
C1750 C1751 1.374 . S
C1751 H1731 0.950 . S
C1751 C1747 1.385 . S
C1751 C1750 1.374 . S
C1752 C1749 1.499 . S
C1752 C1753 1.373 1_545 S
C1752 C1754 1.389 . S
C1753 H1732 0.950 . S
C1753 C1752 1.373 1_565 S
C1753 C1769 1.381 . S
C1754 C1752 1.389 . S
C1754 C1755 1.524 . S
C1754 C1768 1.377 . S
C1755 C1754 1.524 . S
C1755 C1756 1.397 . S
C1755 C1760 1.363 . S
C1756 H1733 0.950 . S
C1756 C1755 1.397 . S
C1756 C1757 1.334 . S
C1757 H1734 0.950 . S
C1757 C1756 1.334 . S
C1757 C1758 1.287 . S
C1758 C1757 1.287 . S
C1758 C1759 1.524 . S
C1758 H1777 0.913 . S
C1759 H1735 0.950 . S
C1759 C1758 1.524 . S
C1759 C1760 1.415 . S
C1760 H1736 0.950 1_556 S
C1760 C1755 1.363 . S
C1760 C1759 1.415 . S
C1761 H1737 0.951 . S
C1761 C1762 1.366 . S
C1761 C1763 1.388 . S
C1762 C1761 1.366 . S
C1762 C1766 1.385 1_556 S
C1763 H1738 0.951 . S
C1763 C1761 1.388 . S
C1763 C1764 1.366 . S
C1764 C1763 1.366 . S
C1764 C1765 1.414 1_556 S
C1764 C1767 1.499 . S
C1765 H1739 0.950 . S
C1765 C1764 1.414 1_554 S
C1765 C1766 1.374 . S
C1766 H1740 0.950 . S
C1766 C1762 1.385 1_554 S
C1766 C1765 1.374 . S
C1767 C1764 1.499 . S
C1767 C1768 1.373 1_565 S
C1767 C1769 1.399 . S
C1768 H1741 0.950 . S
C1768 C1754 1.377 . S
C1768 C1767 1.373 1_545 S
C1769 C1753 1.381 . S
C1769 C1767 1.399 . S
C1769 C1770 1.509 1_556 S
C1770 C1769 1.509 1_554 S
C1770 C1771 1.397 . S
C1770 C1775 1.363 1_554 S
C1771 H1742 0.950 . S
C1771 C1770 1.397 . S
C1771 C1772 1.334 . S
C1772 H1743 0.950 . S
C1772 C1771 1.334 . S
C1772 C1773 1.287 . S
C1773 C1772 1.287 . S
C1773 C1774 1.524 . S
C1773 H1776 0.999 . S
C1774 H1744 0.950 1_554 S
C1774 C1773 1.524 . S
C1774 C1775 1.415 1_554 S
C1775 H1745 0.950 . S
C1775 C1770 1.363 1_556 S
C1775 C1774 1.415 1_556 S
H1776 C1773 0.999 . S
H1777 C1758 0.913 . S
H1778 C1796 0.951 . S
H1779 C1798 0.951 . S
H1780 C1800 0.950 . S
H1781 C1801 0.950 . S
H1782 C1803 0.950 . S
H1783 C1806 0.950 . S
H1784 C1807 0.950 . S
H1785 C1809 0.950 . S
H1786 C1810 0.950 1_655 S
H1787 C1811 0.951 . S
H1788 C1813 0.951 . S
H1789 C1815 0.950 . S
H1790 C1816 0.950 . S
H1791 C1818 0.950 . S
H1792 C1821 0.950 . S
H1793 C1822 0.950 . S
H1794 C1824 0.950 . S
H1795 C1825 0.950 1_455 S
C1796 H1778 0.951 . S
C1796 C1797 1.366 . S
C1796 C1798 1.388 . S
C1797 C1796 1.366 . S
C1797 C1801 1.385 1_554 S
C1798 H1779 0.951 . S
C1798 C1796 1.388 . S
C1798 C1799 1.366 . S
C1799 C1798 1.366 . S
C1799 C1800 1.414 1_554 S
C1799 C1802 1.499 . S
C1800 H1780 0.950 . S
C1800 C1799 1.414 1_556 S
C1800 C1801 1.374 . S
C1801 H1781 0.950 . S
C1801 C1797 1.385 1_556 S
C1801 C1800 1.374 . S
C1802 C1799 1.499 . S
C1802 C1803 1.373 1_554 S
C1802 C1804 1.389 . S
C1803 H1782 0.950 . S
C1803 C1802 1.373 1_556 S
C1803 C1819 1.377 1_455 S
C1804 C1802 1.389 . S
C1804 C1805 1.524 . S
C1804 C1818 1.377 1_455 S
C1805 C1804 1.524 . S
C1805 C1806 1.397 . S
C1805 C1810 1.363 . S
C1806 H1783 0.950 . S
C1806 C1805 1.397 . S
C1806 C1807 1.334 . S
C1807 H1784 0.950 . S
C1807 C1806 1.334 . S
C1807 C1808 1.287 . S
C1808 C1807 1.287 . S
C1808 C1809 1.524 . S
C1808 H1827 0.913 . S
C1809 H1785 0.950 . S
C1809 C1808 1.524 . S
C1809 C1810 1.415 . S
C1810 H1786 0.950 1_455 S
C1810 C1805 1.363 . S
C1810 C1809 1.415 . S
C1811 H1787 0.951 . S
C1811 C1812 1.366 1_556 S
C1811 C1813 1.388 . S
C1812 C1811 1.366 1_554 S
C1812 C1816 1.385 . S
C1813 H1788 0.951 . S
C1813 C1811 1.388 . S
C1813 C1814 1.366 1_556 S
C1814 C1813 1.366 1_554 S
C1814 C1815 1.414 . S
C1814 C1817 1.499 . S
C1815 H1789 0.950 . S
C1815 C1814 1.414 . S
C1815 C1816 1.374 . S
C1816 H1790 0.950 . S
C1816 C1812 1.385 . S
C1816 C1815 1.374 . S
C1817 C1814 1.499 . S
C1817 C1818 1.373 . S
C1817 C1819 1.389 1_554 S
C1818 H1791 0.950 . S
C1818 C1804 1.377 1_655 S
C1818 C1817 1.373 . S
C1819 C1803 1.377 1_655 S
C1819 C1817 1.389 1_556 S
C1819 C1820 1.524 . S
C1820 C1819 1.524 . S
C1820 C1821 1.397 . S
C1820 C1825 1.363 . S
C1821 H1792 0.950 . S
C1821 C1820 1.397 . S
C1821 C1822 1.334 . S
C1822 H1793 0.950 . S
C1822 C1821 1.334 . S
C1822 C1823 1.287 . S
C1823 C1822 1.287 . S
C1823 C1824 1.524 . S
C1823 H1826 0.999 . S
C1824 H1794 0.950 . S
C1824 C1823 1.524 . S
C1824 C1825 1.415 . S
C1825 H1795 0.950 1_655 S
C1825 C1820 1.363 . S
C1825 C1824 1.415 . S
H1826 C1823 0.999 . S
H1827 C1808 0.913 . S
H1828 C1846 0.951 . S
H1829 C1848 0.951 . S
H1830 C1850 0.950 . S
H1831 C1851 0.950 . S
H1832 C1853 0.950 . S
H1833 C1856 0.950 . S
H1834 C1857 0.950 . S
H1835 C1859 0.950 . S
H1836 C1860 0.950 . S
H1837 C1861 0.951 . S
H1838 C1863 0.951 . S
H1839 C1865 0.950 . S
H1840 C1866 0.950 . S
H1841 C1868 0.950 . S
H1842 C1871 0.950 . S
H1843 C1872 0.950 . S
H1844 C1874 0.950 . S
H1845 C1875 0.950 . S
C1846 H1828 0.951 . S
C1846 C1847 1.366 . S
C1846 C1848 1.388 . S
C1847 C1846 1.366 . S
C1847 C1851 1.385 . S
C1848 H1829 0.951 . S
C1848 C1846 1.388 . S
C1848 C1849 1.366 . S
C1849 C1848 1.366 . S
C1849 C1850 1.414 . S
C1849 C1852 1.499 . S
C1850 H1830 0.950 . S
C1850 C1849 1.414 . S
C1850 C1851 1.374 . S
C1851 H1831 0.950 . S
C1851 C1847 1.385 . S
C1851 C1850 1.374 . S
C1852 C1849 1.499 . S
C1852 C1853 1.373 . S
C1852 C1854 1.389 . S
C1853 H1832 0.950 . S
C1853 C1852 1.373 . S
C1853 C1869 1.377 . S
C1854 C1852 1.389 . S
C1854 C1855 1.524 . S
C1854 C1868 1.377 . S
C1855 C1854 1.524 . S
C1855 C1856 1.397 . S
C1855 C1860 1.363 . S
C1856 H1833 0.950 . S
C1856 C1855 1.397 . S
C1856 C1857 1.334 . S
C1857 H1834 0.950 . S
C1857 C1856 1.334 . S
C1857 C1858 1.287 . S
C1858 C1857 1.287 . S
C1858 C1859 1.524 . S
C1858 H1877 0.913 . S
C1859 H1835 0.950 . S
C1859 C1858 1.524 . S
C1859 C1860 1.415 . S
C1860 H1836 0.950 . S
C1860 C1855 1.363 . S
C1860 C1859 1.415 . S
C1861 H1837 0.951 . S
C1861 C1862 1.366 . S
C1861 C1863 1.388 . S
C1862 C1861 1.366 . S
C1862 C1866 1.385 . S
C1863 H1838 0.951 . S
C1863 C1861 1.388 . S
C1863 C1864 1.366 . S
C1864 C1863 1.366 . S
C1864 C1865 1.414 . S
C1864 C1867 1.499 . S
C1865 H1839 0.950 . S
C1865 C1864 1.414 . S
C1865 C1866 1.374 . S
C1866 H1840 0.950 . S
C1866 C1862 1.385 . S
C1866 C1865 1.374 . S
C1867 C1864 1.499 . S
C1867 C1868 1.373 . S
C1867 C1869 1.389 . S
C1868 H1841 0.950 . S
C1868 C1854 1.377 . S
C1868 C1867 1.373 . S
C1869 C1853 1.377 . S
C1869 C1867 1.389 . S
C1869 C1870 1.524 . S
C1870 C1869 1.524 . S
C1870 C1871 1.397 . S
C1870 C1875 1.363 . S
C1871 H1842 0.950 . S
C1871 C1870 1.397 . S
C1871 C1872 1.334 . S
C1872 H1843 0.950 . S
C1872 C1871 1.334 . S
C1872 C1873 1.287 . S
C1873 C1872 1.287 . S
C1873 C1874 1.524 . S
C1873 H1876 0.999 . S
C1874 H1844 0.950 . S
C1874 C1873 1.524 . S
C1874 C1875 1.415 . S
C1875 H1845 0.950 . S
C1875 C1870 1.363 . S
C1875 C1874 1.415 . S
H1876 C1873 0.999 . S
H1877 C1858 0.913 . S
H1878 C1896 0.951 . S
H1879 C1898 0.951 . S
H1880 C1900 0.950 . S
H1881 C1901 0.950 . S
H1882 C1903 0.950 . S
H1883 C1906 0.950 . S
H1884 C1907 0.950 . S
H1885 C1909 0.950 . S
H1886 C1910 0.950 . S
H1887 C1911 0.951 . S
H1888 C1913 0.951 . S
H1889 C1915 0.950 . S
H1890 C1916 0.950 . S
H1891 C1918 0.950 . S
H1892 C1921 0.950 . S
H1893 C1922 0.950 . S
H1894 C1924 0.950 . S
H1895 C1925 0.950 . S
C1896 H1878 0.951 . S
C1896 C1897 1.366 . S
C1896 C1898 1.388 . S
C1897 C1896 1.366 . S
C1897 C1901 1.385 . S
C1898 H1879 0.951 . S
C1898 C1896 1.388 . S
C1898 C1899 1.366 . S
C1899 C1898 1.366 . S
C1899 C1900 1.414 . S
C1899 C1902 1.499 . S
C1900 H1880 0.950 . S
C1900 C1899 1.414 . S
C1900 C1901 1.374 . S
C1901 H1881 0.950 . S
C1901 C1897 1.385 . S
C1901 C1900 1.374 . S
C1902 C1899 1.499 . S
C1902 C1903 1.373 . S
C1902 C1904 1.389 . S
C1903 H1882 0.950 . S
C1903 C1902 1.373 . S
C1903 C1919 1.377 . S
C1904 C1902 1.389 . S
C1904 C1905 1.524 . S
C1904 C1918 1.377 . S
C1905 C1904 1.524 . S
C1905 C1906 1.397 . S
C1905 C1910 1.363 . S
C1906 H1883 0.950 . S
C1906 C1905 1.397 . S
C1906 C1907 1.334 . S
C1907 H1884 0.950 . S
C1907 C1906 1.334 . S
C1907 C1908 1.287 . S
C1908 C1907 1.287 . S
C1908 C1909 1.524 . S
C1908 H1927 0.913 . S
C1909 H1885 0.950 . S
C1909 C1908 1.524 . S
C1909 C1910 1.415 . S
C1910 H1886 0.950 . S
C1910 C1905 1.363 . S
C1910 C1909 1.415 . S
C1911 H1887 0.951 . S
C1911 C1912 1.366 . S
C1911 C1913 1.388 . S
C1912 C1911 1.366 . S
C1912 C1916 1.385 . S
C1913 H1888 0.951 . S
C1913 C1911 1.388 . S
C1913 C1914 1.366 . S
C1914 C1913 1.366 . S
C1914 C1915 1.414 . S
C1914 C1917 1.499 . S
C1915 H1889 0.950 . S
C1915 C1914 1.414 . S
C1915 C1916 1.374 . S
C1916 H1890 0.950 . S
C1916 C1912 1.385 . S
C1916 C1915 1.374 . S
C1917 C1914 1.499 . S
C1917 C1918 1.373 . S
C1917 C1919 1.389 . S
C1918 H1891 0.950 . S
C1918 C1904 1.377 . S
C1918 C1917 1.373 . S
C1919 C1903 1.377 . S
C1919 C1917 1.389 . S
C1919 C1920 1.524 . S
C1920 C1919 1.524 . S
C1920 C1921 1.397 . S
C1920 C1925 1.363 . S
C1921 H1892 0.950 . S
C1921 C1920 1.397 . S
C1921 C1922 1.334 . S
C1922 H1893 0.950 . S
C1922 C1921 1.334 . S
C1922 C1923 1.287 . S
C1923 C1922 1.287 . S
C1923 C1924 1.524 . S
C1923 H1926 0.999 . S
C1924 H1894 0.950 . S
C1924 C1923 1.524 . S
C1924 C1925 1.415 . S
C1925 H1895 0.950 . S
C1925 C1920 1.363 . S
C1925 C1924 1.415 . S
H1926 C1923 0.999 . S
H1927 C1908 0.913 . S
H1928 C1946 0.951 . S
H1929 C1948 0.951 . S
H1930 C1950 0.950 . S
H1931 C1951 0.950 . S
H1932 C1953 0.953 . S
H1933 C1956 0.950 . S
H1934 C1957 0.950 . S
H1935 C1959 0.950 . S
H1936 C1960 0.950 . S
H1937 C1961 0.951 . S
H1938 C1963 0.951 . S
H1939 C1965 0.950 . S
H1940 C1966 0.950 . S
H1941 C1968 0.953 . S
H1942 C1971 0.950 . S
H1943 C1972 0.950 . S
H1944 C1974 0.950 . S
H1945 C1975 0.950 . S
C1946 H1928 0.951 . S
C1946 C1947 1.366 . S
C1946 C1948 1.388 . S
C1947 C1946 1.366 . S
C1947 C1951 1.385 . S
C1948 H1929 0.951 . S
C1948 C1946 1.388 . S
C1948 C1949 1.366 . S
C1949 C1948 1.366 . S
C1949 C1950 1.414 . S
C1949 C1952 1.499 . S
C1950 H1930 0.950 . S
C1950 C1949 1.414 . S
C1950 C1951 1.374 . S
C1951 H1931 0.950 . S
C1951 C1947 1.385 . S
C1951 C1950 1.374 . S
C1952 C1949 1.499 . S
C1952 C1953 1.335 1_655 S
C1952 C1954 1.389 . S
C1953 H1932 0.953 . S
C1953 C1952 1.335 1_455 S
C1953 C1969 1.413 . S
C1954 C1952 1.389 . S
C1954 C1955 1.524 . S
C1954 C1968 1.413 . S
C1955 C1954 1.524 . S
C1955 C1956 1.397 . S
C1955 C1960 1.363 . S
C1956 H1933 0.950 . S
C1956 C1955 1.397 . S
C1956 C1957 1.334 . S
C1957 H1934 0.950 . S
C1957 C1956 1.334 . S
C1957 C1958 1.287 . S
C1958 C1957 1.287 . S
C1958 C1959 1.524 . S
C1958 H1977 0.913 . S
C1959 H1935 0.950 . S
C1959 C1958 1.524 . S
C1959 C1960 1.415 . S
C1960 H1936 0.950 . S
C1960 C1955 1.363 . S
C1960 C1959 1.415 . S
C1961 H1937 0.951 . S
C1961 C1962 1.366 . S
C1961 C1963 1.388 . S
C1962 C1961 1.366 . S
C1962 C1966 1.385 . S
C1963 H1938 0.951 . S
C1963 C1961 1.388 . S
C1963 C1964 1.366 . S
C1964 C1963 1.366 . S
C1964 C1965 1.414 . S
C1964 C1967 1.499 . S
C1965 H1939 0.950 . S
C1965 C1964 1.414 . S
C1965 C1966 1.374 . S
C1966 H1940 0.950 . S
C1966 C1962 1.385 . S
C1966 C1965 1.374 . S
C1967 C1964 1.499 . S
C1967 C1968 1.335 1_455 S
C1967 C1969 1.389 . S
C1968 H1941 0.953 . S
C1968 C1954 1.413 . S
C1968 C1967 1.335 1_655 S
C1969 C1953 1.413 . S
C1969 C1967 1.389 . S
C1969 C1970 1.524 . S
C1970 C1969 1.524 . S
C1970 C1971 1.397 . S
C1970 C1975 1.363 . S
C1971 H1942 0.950 . S
C1971 C1970 1.397 . S
C1971 C1972 1.334 . S
C1972 H1943 0.950 . S
C1972 C1971 1.334 . S
C1972 C1973 1.287 . S
C1973 C1972 1.287 . S
C1973 C1974 1.524 . S
C1973 H1976 0.999 . S
C1974 H1944 0.950 . S
C1974 C1973 1.524 . S
C1974 C1975 1.415 . S
C1975 H1945 0.950 . S
C1975 C1970 1.363 . S
C1975 C1974 1.415 . S
H1976 C1973 0.999 . S
H1977 C1958 0.913 . S
H1978 C1996 0.951 . S
H1979 C1998 0.951 . S
H1980 C2000 0.950 . S
H1981 C2001 0.950 . S
H1982 C2003 0.953 . S
H1983 C2006 0.950 . S
H1984 C2007 0.950 . S
H1985 C2009 0.950 . S
H1986 C2010 0.950 . S
H1987 C2011 0.951 . S
H1988 C2013 0.951 . S
H1989 C2015 0.950 . S
H1990 C2016 0.950 . S
H1991 C2018 0.953 . S
H1992 C2021 0.950 . S
H1993 C2022 0.950 . S
H1994 C2024 0.950 . S
H1995 C2025 0.950 . S
C1996 H1978 0.951 . S
C1996 C1997 1.366 . S
C1996 C1998 1.388 . S
C1997 C1996 1.366 . S
C1997 C2001 1.385 . S
C1998 H1979 0.951 . S
C1998 C1996 1.388 . S
C1998 C1999 1.366 . S
C1999 C1998 1.366 . S
C1999 C2000 1.414 . S
C1999 C2002 1.499 . S
C2000 H1980 0.950 . S
C2000 C1999 1.414 . S
C2000 C2001 1.374 . S
C2001 H1981 0.950 . S
C2001 C1997 1.385 . S
C2001 C2000 1.374 . S
C2002 C1999 1.499 . S
C2002 C2003 1.336 1_545 S
C2002 C2004 1.389 . S
C2003 H1982 0.953 . S
C2003 C2002 1.336 1_565 S
C2003 C2019 1.412 . S
C2004 C2002 1.389 . S
C2004 C2005 1.524 . S
C2004 C2018 1.412 . S
C2005 C2004 1.524 . S
C2005 C2006 1.397 . S
C2005 C2010 1.363 . S
C2006 H1983 0.950 . S
C2006 C2005 1.397 . S
C2006 C2007 1.334 . S
C2007 H1984 0.950 . S
C2007 C2006 1.334 . S
C2007 C2008 1.287 . S
C2008 C2007 1.287 . S
C2008 C2009 1.524 . S
C2008 H2027 0.913 . S
C2009 H1985 0.950 . S
C2009 C2008 1.524 . S
C2009 C2010 1.415 . S
C2010 H1986 0.950 . S
C2010 C2005 1.363 . S
C2010 C2009 1.415 . S
C2011 H1987 0.951 . S
C2011 C2012 1.366 . S
C2011 C2013 1.388 . S
C2012 C2011 1.366 . S
C2012 C2016 1.385 . S
C2013 H1988 0.951 . S
C2013 C2011 1.388 . S
C2013 C2014 1.366 . S
C2014 C2013 1.366 . S
C2014 C2015 1.414 . S
C2014 C2017 1.499 . S
C2015 H1989 0.950 . S
C2015 C2014 1.414 . S
C2015 C2016 1.374 . S
C2016 H1990 0.950 . S
C2016 C2012 1.385 . S
C2016 C2015 1.374 . S
C2017 C2014 1.499 . S
C2017 C2018 1.336 1_565 S
C2017 C2019 1.389 . S
C2018 H1991 0.953 . S
C2018 C2004 1.412 . S
C2018 C2017 1.336 1_545 S
C2019 C2003 1.412 . S
C2019 C2017 1.389 . S
C2019 C2020 1.524 . S
C2020 C2019 1.524 . S
C2020 C2021 1.397 . S
C2020 C2025 1.363 . S
C2021 H1992 0.950 . S
C2021 C2020 1.397 . S
C2021 C2022 1.334 . S
C2022 H1993 0.950 . S
C2022 C2021 1.334 . S
C2022 C2023 1.287 . S
C2023 C2022 1.287 . S
C2023 C2024 1.524 . S
C2023 H2026 0.999 . S
C2024 H1994 0.950 . S
C2024 C2023 1.524 . S
C2024 C2025 1.415 . S
C2025 H1995 0.950 . S
C2025 C2020 1.363 . S
C2025 C2024 1.415 . S
H2026 C2023 0.999 . S
H2027 C2008 0.913 . S
H2028 C2046 0.951 . S
H2029 C2048 0.951 . S
H2030 C2050 0.950 . S
H2031 C2051 0.950 . S
H2032 C2053 0.950 . S
H2033 C2056 0.950 . S
H2034 C2057 0.950 . S
H2035 C2059 0.950 . S
H2036 C2060 0.950 . S
H2037 C2061 0.951 . S
H2038 C2063 0.951 . S
H2039 C2065 0.950 . S
H2040 C2066 0.950 . S
H2041 C2068 0.950 . S
H2042 C2071 0.950 . S
H2043 C2072 0.950 . S
H2044 C2074 0.950 . S
H2045 C2075 0.950 . S
C2046 H2028 0.951 . S
C2046 C2047 1.366 . S
C2046 C2048 1.388 . S
C2047 C2046 1.366 . S
C2047 C2051 1.385 . S
C2048 H2029 0.951 . S
C2048 C2046 1.388 . S
C2048 C2049 1.366 . S
C2049 C2048 1.366 . S
C2049 C2050 1.414 . S
C2049 C2052 1.499 . S
C2050 H2030 0.950 . S
C2050 C2049 1.414 . S
C2050 C2051 1.374 . S
C2051 H2031 0.950 . S
C2051 C2047 1.385 . S
C2051 C2050 1.374 . S
C2052 C2049 1.499 . S
C2052 C2053 1.373 . S
C2052 C2054 1.389 1_565 S
C2053 H2032 0.950 . S
C2053 C2052 1.373 . S
C2053 C2069 1.377 1_655 S
C2054 C2052 1.389 1_545 S
C2054 C2055 1.524 . S
C2054 C2068 1.377 1_655 S
C2055 C2054 1.524 . S
C2055 C2056 1.397 1_545 S
C2055 C2060 1.363 . S
C2056 H2033 0.950 . S
C2056 C2055 1.397 1_565 S
C2056 C2057 1.334 . S
C2057 H2034 0.950 . S
C2057 C2056 1.334 . S
C2057 C2058 1.316 . S
C2058 C2057 1.316 . S
C2058 C2059 1.493 1_565 S
C2058 H2077 0.915 . S
C2059 H2035 0.950 . S
C2059 C2058 1.493 1_545 S
C2059 C2060 1.415 . S
C2060 H2036 0.950 . S
C2060 C2055 1.363 . S
C2060 C2059 1.415 . S
C2061 H2037 0.951 . S
C2061 C2062 1.366 . S
C2061 C2063 1.388 . S
C2062 C2061 1.366 . S
C2062 C2066 1.385 . S
C2063 H2038 0.951 . S
C2063 C2061 1.388 . S
C2063 C2064 1.366 . S
C2064 C2063 1.366 . S
C2064 C2065 1.414 . S
C2064 C2067 1.499 . S
C2065 H2039 0.950 . S
C2065 C2064 1.414 . S
C2065 C2066 1.374 . S
C2066 H2040 0.950 . S
C2066 C2062 1.385 . S
C2066 C2065 1.374 . S
C2067 C2064 1.499 . S
C2067 C2068 1.373 . S
C2067 C2069 1.389 1_545 S
C2068 H2041 0.950 . S
C2068 C2054 1.377 1_455 S
C2068 C2067 1.373 . S
C2069 C2053 1.377 1_455 S
C2069 C2067 1.389 1_565 S
C2069 C2070 1.524 . S
C2070 C2069 1.524 . S
C2070 C2071 1.397 1_565 S
C2070 C2075 1.363 . S
C2071 H2042 0.950 . S
C2071 C2070 1.397 1_545 S
C2071 C2072 1.334 . S
C2072 H2043 0.950 . S
C2072 C2071 1.334 . S
C2072 C2073 1.316 . S
C2073 C2072 1.316 . S
C2073 C2074 1.493 1_545 S
C2073 H2076 0.999 . S
C2074 H2044 0.950 . S
C2074 C2073 1.493 1_565 S
C2074 C2075 1.415 . S
C2075 H2045 0.950 . S
C2075 C2070 1.363 . S
C2075 C2074 1.415 . S
H2076 C2073 0.999 . S
H2077 C2058 0.915 . S
H2078 C2096 0.951 . S
H2079 C2098 0.951 . S
H2080 C2100 0.950 . S
H2081 C2101 0.950 . S
H2082 C2103 0.950 . S
H2083 C2106 0.950 . S
H2084 C2107 0.950 1_545 S
H2085 C2109 0.950 . S
H2086 C2110 0.950 . S
H2087 C2111 0.951 . S
H2088 C2113 0.951 . S
H2089 C2115 0.950 . S
H2090 C2116 0.950 . S
H2091 C2118 0.950 . S
H2092 C2121 0.950 . S
H2093 C2122 0.950 1_565 S
H2094 C2124 0.950 . S
H2095 C2125 0.950 . S
C2096 H2078 0.951 . S
C2096 C2097 1.366 . S
C2096 C2098 1.388 . S
C2097 C2096 1.366 . S
C2097 C2101 1.385 . S
C2098 H2079 0.951 . S
C2098 C2096 1.388 . S
C2098 C2099 1.366 . S
C2099 C2098 1.366 . S
C2099 C2100 1.414 . S
C2099 C2102 1.499 . S
C2100 H2080 0.950 . S
C2100 C2099 1.414 . S
C2100 C2101 1.374 . S
C2101 H2081 0.950 . S
C2101 C2097 1.385 . S
C2101 C2100 1.374 . S
C2102 C2099 1.499 . S
C2102 C2103 1.373 1_655 S
C2102 C2104 1.389 1_545 S
C2103 H2082 0.950 . S
C2103 C2102 1.373 1_455 S
C2103 C2119 1.377 . S
C2104 C2102 1.389 1_565 S
C2104 C2105 1.524 . S
C2104 C2118 1.377 . S
C2105 C2104 1.524 . S
C2105 C2106 1.397 1_565 S
C2105 C2110 1.363 . S
C2106 H2083 0.950 . S
C2106 C2105 1.397 1_545 S
C2106 C2107 1.334 1_545 S
C2107 H2084 0.950 1_565 S
C2107 C2106 1.334 1_565 S
C2107 C2108 1.287 . S
C2108 C2107 1.287 . S
C2108 C2109 1.524 . S
C2108 H2127 0.913 . S
C2109 H2085 0.950 . S
C2109 C2108 1.524 . S
C2109 C2110 1.415 . S
C2110 H2086 0.950 . S
C2110 C2105 1.363 . S
C2110 C2109 1.415 . S
C2111 H2087 0.951 . S
C2111 C2112 1.366 . S
C2111 C2113 1.388 . S
C2112 C2111 1.366 . S
C2112 C2116 1.385 . S
C2113 H2088 0.951 . S
C2113 C2111 1.388 . S
C2113 C2114 1.366 . S
C2114 C2113 1.366 . S
C2114 C2115 1.414 . S
C2114 C2117 1.499 . S
C2115 H2089 0.950 . S
C2115 C2114 1.414 . S
C2115 C2116 1.374 . S
C2116 H2090 0.950 . S
C2116 C2112 1.385 . S
C2116 C2115 1.374 . S
C2117 C2114 1.499 . S
C2117 C2118 1.373 1_455 S
C2117 C2119 1.389 1_565 S
C2118 H2091 0.950 . S
C2118 C2104 1.377 . S
C2118 C2117 1.373 1_655 S
C2119 C2103 1.377 . S
C2119 C2117 1.389 1_545 S
C2119 C2120 1.524 . S
C2120 C2119 1.524 . S
C2120 C2121 1.397 1_545 S
C2120 C2125 1.363 . S
C2121 H2092 0.950 . S
C2121 C2120 1.397 1_565 S
C2121 C2122 1.334 1_565 S
C2122 H2093 0.950 1_545 S
C2122 C2121 1.334 1_545 S
C2122 C2123 1.287 . S
C2123 C2122 1.287 . S
C2123 C2124 1.524 . S
C2123 H2126 0.999 . S
C2124 H2094 0.950 . S
C2124 C2123 1.524 . S
C2124 C2125 1.415 . S
C2125 H2095 0.950 . S
C2125 C2120 1.363 . S
C2125 C2124 1.415 . S
H2126 C2123 0.999 . S
H2127 C2108 0.913 . S
H2128 C2146 0.951 . S
H2129 C2148 0.951 . S
H2130 C2150 0.950 . S
H2131 C2151 0.950 . S
H2132 C2153 0.950 . S
H2133 C2156 0.950 . S
H2134 C2157 0.950 . S
H2135 C2159 0.950 . S
H2136 C2160 0.950 . S
H2137 C2161 0.951 . S
H2138 C2163 0.951 . S
H2139 C2165 0.950 . S
H2140 C2166 0.950 . S
H2141 C2168 0.950 . S
H2142 C2171 0.950 . S
H2143 C2172 0.950 . S
H2144 C2174 0.950 . S
H2145 C2175 0.950 . S
C2146 H2128 0.951 . S
C2146 C2147 1.366 . S
C2146 C2148 1.388 . S
C2147 C2146 1.366 . S
C2147 C2151 1.385 . S
C2148 H2129 0.951 . S
C2148 C2146 1.388 . S
C2148 C2149 1.366 . S
C2149 C2148 1.366 . S
C2149 C2150 1.414 . S
C2149 C2152 1.499 . S
C2150 H2130 0.950 . S
C2150 C2149 1.414 . S
C2150 C2151 1.374 . S
C2151 H2131 0.950 . S
C2151 C2147 1.385 . S
C2151 C2150 1.374 . S
C2152 C2149 1.499 . S
C2152 C2153 1.373 . S
C2152 C2154 1.389 . S
C2153 H2132 0.950 . S
C2153 C2152 1.373 . S
C2153 C2169 1.377 . S
C2154 C2152 1.389 . S
C2154 C2155 1.524 . S
C2154 C2168 1.377 . S
C2155 C2154 1.524 . S
C2155 C2156 1.397 . S
C2155 C2160 1.363 . S
C2156 H2133 0.950 . S
C2156 C2155 1.397 . S
C2156 C2157 1.334 . S
C2157 H2134 0.950 . S
C2157 C2156 1.334 . S
C2157 C2158 1.287 . S
C2158 C2157 1.287 . S
C2158 C2159 1.524 . S
C2158 H2177 0.913 . S
C2159 H2135 0.950 . S
C2159 C2158 1.524 . S
C2159 C2160 1.415 . S
C2160 H2136 0.950 . S
C2160 C2155 1.363 . S
C2160 C2159 1.415 . S
C2161 H2137 0.951 . S
C2161 C2162 1.366 . S
C2161 C2163 1.388 . S
C2162 C2161 1.366 . S
C2162 C2166 1.385 . S
C2163 H2138 0.951 . S
C2163 C2161 1.388 . S
C2163 C2164 1.366 . S
C2164 C2163 1.366 . S
C2164 C2165 1.414 . S
C2164 C2167 1.499 . S
C2165 H2139 0.950 . S
C2165 C2164 1.414 . S
C2165 C2166 1.374 . S
C2166 H2140 0.950 . S
C2166 C2162 1.385 . S
C2166 C2165 1.374 . S
C2167 C2164 1.499 . S
C2167 C2168 1.373 . S
C2167 C2169 1.389 . S
C2168 H2141 0.950 . S
C2168 C2154 1.377 . S
C2168 C2167 1.373 . S
C2169 C2153 1.377 . S
C2169 C2167 1.389 . S
C2169 C2170 1.524 . S
C2170 C2169 1.524 . S
C2170 C2171 1.397 . S
C2170 C2175 1.363 . S
C2171 H2142 0.950 . S
C2171 C2170 1.397 . S
C2171 C2172 1.334 . S
C2172 H2143 0.950 . S
C2172 C2171 1.334 . S
C2172 C2173 1.287 . S
C2173 C2172 1.287 . S
C2173 C2174 1.524 . S
C2173 H2176 0.999 . S
C2174 H2144 0.950 . S
C2174 C2173 1.524 . S
C2174 C2175 1.415 . S
C2175 H2145 0.950 . S
C2175 C2170 1.363 . S
C2175 C2174 1.415 . S
H2176 C2173 0.999 . S
H2177 C2158 0.913 . S
H2178 C2196 0.951 . S
H2179 C2198 0.951 . S
H2180 C2200 0.950 . S
H2181 C2201 0.950 . S
H2182 C2203 0.950 . S
H2183 C2206 0.950 . S
H2184 C2207 0.950 . S
H2185 C2209 0.950 . S
H2186 C2210 0.950 . S
H2187 C2211 0.951 . S
H2188 C2213 0.951 . S
H2189 C2215 0.950 . S
H2190 C2216 0.950 . S
H2191 C2218 0.950 . S
H2192 C2221 0.950 . S
H2193 C2222 0.950 . S
H2194 C2224 0.950 . S
H2195 C2225 0.950 . S
C2196 H2178 0.951 . S
C2196 C2197 1.366 . S
C2196 C2198 1.388 . S
C2197 C2196 1.366 . S
C2197 C2201 1.385 . S
C2198 H2179 0.951 . S
C2198 C2196 1.388 . S
C2198 C2199 1.366 . S
C2199 C2198 1.366 . S
C2199 C2200 1.414 . S
C2199 C2202 1.499 . S
C2200 H2180 0.950 . S
C2200 C2199 1.414 . S
C2200 C2201 1.374 . S
C2201 H2181 0.950 . S
C2201 C2197 1.385 . S
C2201 C2200 1.374 . S
C2202 C2199 1.499 . S
C2202 C2203 1.373 . S
C2202 C2204 1.389 . S
C2203 H2182 0.950 . S
C2203 C2202 1.373 . S
C2203 C2219 1.377 . S
C2204 C2202 1.389 . S
C2204 C2205 1.524 . S
C2204 C2218 1.377 . S
C2205 C2204 1.524 . S
C2205 C2206 1.397 . S
C2205 C2210 1.363 . S
C2206 H2183 0.950 . S
C2206 C2205 1.397 . S
C2206 C2207 1.334 . S
C2207 H2184 0.950 . S
C2207 C2206 1.334 . S
C2207 C2208 1.287 . S
C2208 C2207 1.287 . S
C2208 C2209 1.524 . S
C2208 H2227 0.913 . S
C2209 H2185 0.950 . S
C2209 C2208 1.524 . S
C2209 C2210 1.415 . S
C2210 H2186 0.950 . S
C2210 C2205 1.363 . S
C2210 C2209 1.415 . S
C2211 H2187 0.951 . S
C2211 C2212 1.366 . S
C2211 C2213 1.388 . S
C2212 C2211 1.366 . S
C2212 C2216 1.385 . S
C2213 H2188 0.951 . S
C2213 C2211 1.388 . S
C2213 C2214 1.366 . S
C2214 C2213 1.366 . S
C2214 C2215 1.414 . S
C2214 C2217 1.499 . S
C2215 H2189 0.950 . S
C2215 C2214 1.414 . S
C2215 C2216 1.374 . S
C2216 H2190 0.950 . S
C2216 C2212 1.385 . S
C2216 C2215 1.374 . S
C2217 C2214 1.499 . S
C2217 C2218 1.373 . S
C2217 C2219 1.389 . S
C2218 H2191 0.950 . S
C2218 C2204 1.377 . S
C2218 C2217 1.373 . S
C2219 C2203 1.377 . S
C2219 C2217 1.389 . S
C2219 C2220 1.524 . S
C2220 C2219 1.524 . S
C2220 C2221 1.397 . S
C2220 C2225 1.363 . S
C2221 H2192 0.950 . S
C2221 C2220 1.397 . S
C2221 C2222 1.334 . S
C2222 H2193 0.950 . S
C2222 C2221 1.334 . S
C2222 C2223 1.287 . S
C2223 C2222 1.287 . S
C2223 C2224 1.524 . S
C2223 H2226 0.999 . S
C2224 H2194 0.950 . S
C2224 C2223 1.524 . S
C2224 C2225 1.415 . S
C2225 H2195 0.950 . S
C2225 C2220 1.363 . S
C2225 C2224 1.415 . S
H2226 C2223 0.999 . S
H2227 C2208 0.913 . S
H2228 C2246 0.951 . S
H2229 C2248 0.951 . S
H2230 C2250 0.950 . S
H2231 C2251 0.950 . S
H2232 C2253 0.950 . S
H2233 C2256 0.950 . S
H2234 C2257 0.950 . S
H2235 C2259 0.950 . S
H2236 C2260 0.950 . S
H2237 C2261 0.951 . S
H2238 C2263 0.951 . S
H2239 C2265 0.950 . S
H2240 C2266 0.950 . S
H2241 C2268 0.950 . S
H2242 C2271 0.950 . S
H2243 C2272 0.950 . S
H2244 C2274 0.950 . S
H2245 C2275 0.950 . S
C2246 H2228 0.951 . S
C2246 C2247 1.366 . S
C2246 C2248 1.388 . S
C2247 C2246 1.366 . S
C2247 C2251 1.385 . S
C2248 H2229 0.951 . S
C2248 C2246 1.388 . S
C2248 C2249 1.366 . S
C2249 C2248 1.366 . S
C2249 C2250 1.414 . S
C2249 C2252 1.499 . S
C2250 H2230 0.950 . S
C2250 C2249 1.414 . S
C2250 C2251 1.374 . S
C2251 H2231 0.950 . S
C2251 C2247 1.385 . S
C2251 C2250 1.374 . S
C2252 C2249 1.499 . S
C2252 C2253 1.373 . S
C2252 C2254 1.389 . S
C2253 H2232 0.950 . S
C2253 C2252 1.373 . S
C2253 C2269 1.377 . S
C2254 C2252 1.389 . S
C2254 C2255 1.524 . S
C2254 C2268 1.377 . S
C2255 C2254 1.524 . S
C2255 C2256 1.397 . S
C2255 C2260 1.363 . S
C2256 H2233 0.950 . S
C2256 C2255 1.397 . S
C2256 C2257 1.334 . S
C2257 H2234 0.950 . S
C2257 C2256 1.334 . S
C2257 C2258 1.287 . S
C2258 C2257 1.287 . S
C2258 C2259 1.524 . S
C2258 H2277 0.913 . S
C2259 H2235 0.950 . S
C2259 C2258 1.524 . S
C2259 C2260 1.415 . S
C2260 H2236 0.950 . S
C2260 C2255 1.363 . S
C2260 C2259 1.415 . S
C2261 H2237 0.951 . S
C2261 C2262 1.366 . S
C2261 C2263 1.388 . S
C2262 C2261 1.366 . S
C2262 C2266 1.385 . S
C2263 H2238 0.951 . S
C2263 C2261 1.388 . S
C2263 C2264 1.366 . S
C2264 C2263 1.366 . S
C2264 C2265 1.414 . S
C2264 C2267 1.499 . S
C2265 H2239 0.950 . S
C2265 C2264 1.414 . S
C2265 C2266 1.374 . S
C2266 H2240 0.950 . S
C2266 C2262 1.385 . S
C2266 C2265 1.374 . S
C2267 C2264 1.499 . S
C2267 C2268 1.373 . S
C2267 C2269 1.389 . S
C2268 H2241 0.950 . S
C2268 C2254 1.377 . S
C2268 C2267 1.373 . S
C2269 C2253 1.377 . S
C2269 C2267 1.389 . S
C2269 C2270 1.524 . S
C2270 C2269 1.524 . S
C2270 C2271 1.397 . S
C2270 C2275 1.363 . S
C2271 H2242 0.950 . S
C2271 C2270 1.397 . S
C2271 C2272 1.334 . S
C2272 H2243 0.950 . S
C2272 C2271 1.334 . S
C2272 C2273 1.287 . S
C2273 C2272 1.287 . S
C2273 C2274 1.524 . S
C2273 H2276 0.999 . S
C2274 H2244 0.950 . S
C2274 C2273 1.524 . S
C2274 C2275 1.415 . S
C2275 H2245 0.950 . S
C2275 C2270 1.363 . S
C2275 C2274 1.415 . S
H2276 C2273 0.999 . S
H2277 C2258 0.913 . S
H2278 C2296 0.951 . S
H2279 C2298 0.951 . S
H2280 C2300 0.950 . S
H2281 C2301 0.950 . S
H2282 C2303 0.950 . S
H2283 C2306 0.950 . S
H2284 C2307 0.950 . S
H2285 C2309 0.950 . S
H2286 C2310 0.950 . S
H2287 C2311 0.951 . S
H2288 C2313 0.951 . S
H2289 C2315 0.950 . S
H2290 C2316 0.950 . S
H2291 C2318 0.950 . S
H2292 C2321 0.950 . S
H2293 C2322 0.950 . S
H2294 C2324 0.950 . S
H2295 C2325 0.950 . S
C2296 H2278 0.951 . S
C2296 C2297 1.366 . S
C2296 C2298 1.388 . S
C2297 C2296 1.366 . S
C2297 C2301 1.385 . S
C2298 H2279 0.951 . S
C2298 C2296 1.388 . S
C2298 C2299 1.366 . S
C2299 C2298 1.366 . S
C2299 C2300 1.414 . S
C2299 C2302 1.499 . S
C2300 H2280 0.950 . S
C2300 C2299 1.414 . S
C2300 C2301 1.374 . S
C2301 H2281 0.950 . S
C2301 C2297 1.385 . S
C2301 C2300 1.374 . S
C2302 C2299 1.499 . S
C2302 C2303 1.373 . S
C2302 C2304 1.389 . S
C2303 H2282 0.950 . S
C2303 C2302 1.373 . S
C2303 C2319 1.377 . S
C2304 C2302 1.389 . S
C2304 C2305 1.524 . S
C2304 C2318 1.377 . S
C2305 C2304 1.524 . S
C2305 C2306 1.397 . S
C2305 C2310 1.363 . S
C2306 H2283 0.950 . S
C2306 C2305 1.397 . S
C2306 C2307 1.334 . S
C2307 H2284 0.950 . S
C2307 C2306 1.334 . S
C2307 C2308 1.287 . S
C2308 C2307 1.287 . S
C2308 C2309 1.524 . S
C2308 H2327 0.913 . S
C2309 H2285 0.950 . S
C2309 C2308 1.524 . S
C2309 C2310 1.415 . S
C2310 H2286 0.950 . S
C2310 C2305 1.363 . S
C2310 C2309 1.415 . S
C2311 H2287 0.951 . S
C2311 C2312 1.366 . S
C2311 C2313 1.388 . S
C2312 C2311 1.366 . S
C2312 C2316 1.385 . S
C2313 H2288 0.951 . S
C2313 C2311 1.388 . S
C2313 C2314 1.366 . S
C2314 C2313 1.366 . S
C2314 C2315 1.414 . S
C2314 C2317 1.499 . S
C2315 H2289 0.950 . S
C2315 C2314 1.414 . S
C2315 C2316 1.374 . S
C2316 H2290 0.950 . S
C2316 C2312 1.385 . S
C2316 C2315 1.374 . S
C2317 C2314 1.499 . S
C2317 C2318 1.373 . S
C2317 C2319 1.389 . S
C2318 H2291 0.950 . S
C2318 C2304 1.377 . S
C2318 C2317 1.373 . S
C2319 C2303 1.377 . S
C2319 C2317 1.389 . S
C2319 C2320 1.524 . S
C2320 C2319 1.524 . S
C2320 C2321 1.397 . S
C2320 C2325 1.363 . S
C2321 H2292 0.950 . S
C2321 C2320 1.397 . S
C2321 C2322 1.334 . S
C2322 H2293 0.950 . S
C2322 C2321 1.334 . S
C2322 C2323 1.287 . S
C2323 C2322 1.287 . S
C2323 C2324 1.524 . S
C2323 H2326 0.999 . S
C2324 H2294 0.950 . S
C2324 C2323 1.524 . S
C2324 C2325 1.415 . S
C2325 H2295 0.950 . S
C2325 C2320 1.363 . S
C2325 C2324 1.415 . S
H2326 C2323 0.999 . S
H2327 C2308 0.913 . S
H2328 C2346 0.951 . S
H2329 C2348 0.951 . S
H2330 C2350 0.950 . S
H2331 C2351 0.950 . S
H2332 C2353 0.950 . S
H2333 C2356 0.950 . S
H2334 C2357 0.950 . S
H2335 C2359 0.950 . S
H2336 C2360 0.950 . S
H2337 C2361 0.951 . S
H2338 C2363 0.951 . S
H2339 C2365 0.950 . S
H2340 C2366 0.950 . S
H2341 C2368 0.950 . S
H2342 C2371 0.950 . S
H2343 C2372 0.950 . S
H2344 C2374 0.950 . S
H2345 C2375 0.950 . S
C2346 H2328 0.951 . S
C2346 C2347 1.366 . S
C2346 C2348 1.388 . S
C2347 C2346 1.366 . S
C2347 C2351 1.385 . S
C2348 H2329 0.951 . S
C2348 C2346 1.388 . S
C2348 C2349 1.366 . S
C2349 C2348 1.366 . S
C2349 C2350 1.414 . S
C2349 C2352 1.499 . S
C2350 H2330 0.950 . S
C2350 C2349 1.414 . S
C2350 C2351 1.374 . S
C2351 H2331 0.950 . S
C2351 C2347 1.385 . S
C2351 C2350 1.374 . S
C2352 C2349 1.499 . S
C2352 C2353 1.373 . S
C2352 C2354 1.389 . S
C2353 H2332 0.950 . S
C2353 C2352 1.373 . S
C2353 C2369 1.377 . S
C2354 C2352 1.389 . S
C2354 C2355 1.524 . S
C2354 C2368 1.377 . S
C2355 C2354 1.524 . S
C2355 C2356 1.397 . S
C2355 C2360 1.363 . S
C2356 H2333 0.950 . S
C2356 C2355 1.397 . S
C2356 C2357 1.334 . S
C2357 H2334 0.950 . S
C2357 C2356 1.334 . S
C2357 C2358 1.287 . S
C2358 C2357 1.287 . S
C2358 C2359 1.524 . S
C2358 H2377 0.913 . S
C2359 H2335 0.950 . S
C2359 C2358 1.524 . S
C2359 C2360 1.415 . S
C2360 H2336 0.950 . S
C2360 C2355 1.363 . S
C2360 C2359 1.415 . S
C2361 H2337 0.951 . S
C2361 C2362 1.366 . S
C2361 C2363 1.388 . S
C2362 C2361 1.366 . S
C2362 C2366 1.385 . S
C2363 H2338 0.951 . S
C2363 C2361 1.388 . S
C2363 C2364 1.366 . S
C2364 C2363 1.366 . S
C2364 C2365 1.414 . S
C2364 C2367 1.499 . S
C2365 H2339 0.950 . S
C2365 C2364 1.414 . S
C2365 C2366 1.374 . S
C2366 H2340 0.950 . S
C2366 C2362 1.385 . S
C2366 C2365 1.374 . S
C2367 C2364 1.499 . S
C2367 C2368 1.373 . S
C2367 C2369 1.389 . S
C2368 H2341 0.950 . S
C2368 C2354 1.377 . S
C2368 C2367 1.373 . S
C2369 C2353 1.377 . S
C2369 C2367 1.389 . S
C2369 C2370 1.524 . S
C2370 C2369 1.524 . S
C2370 C2371 1.397 . S
C2370 C2375 1.363 . S
C2371 H2342 0.950 . S
C2371 C2370 1.397 . S
C2371 C2372 1.334 . S
C2372 H2343 0.950 . S
C2372 C2371 1.334 . S
C2372 C2373 1.287 . S
C2373 C2372 1.287 . S
C2373 C2374 1.524 . S
C2373 H2376 0.999 . S
C2374 H2344 0.950 . S
C2374 C2373 1.524 . S
C2374 C2375 1.415 . S
C2375 H2345 0.950 . S
C2375 C2370 1.363 . S
C2375 C2374 1.415 . S
H2376 C2373 0.999 . S
H2377 C2358 0.913 . S
H2378 C2396 0.951 . S
H2379 C2398 0.951 . S
H2380 C2400 0.950 . S
H2381 C2401 0.950 . S
H2382 C2403 0.950 . S
H2383 C2406 0.950 . S
H2384 C2407 0.950 . S
H2385 C2409 0.950 . S
H2386 C2410 0.950 . S
H2387 C2411 0.951 . S
H2388 C2413 0.951 . S
H2389 C2415 0.950 . S
H2390 C2416 0.950 . S
H2391 C2418 0.950 . S
H2392 C2421 0.950 . S
H2393 C2422 0.950 . S
H2394 C2424 0.950 . S
H2395 C2425 0.950 . S
C2396 H2378 0.951 . S
C2396 C2397 1.366 . S
C2396 C2398 1.388 . S
C2397 C2396 1.366 . S
C2397 C2401 1.385 . S
C2398 H2379 0.951 . S
C2398 C2396 1.388 . S
C2398 C2399 1.366 . S
C2399 C2398 1.366 . S
C2399 C2400 1.414 . S
C2399 C2402 1.499 . S
C2400 H2380 0.950 . S
C2400 C2399 1.414 . S
C2400 C2401 1.374 . S
C2401 H2381 0.950 . S
C2401 C2397 1.385 . S
C2401 C2400 1.374 . S
C2402 C2399 1.499 . S
C2402 C2403 1.373 . S
C2402 C2404 1.389 . S
C2403 H2382 0.950 . S
C2403 C2402 1.373 . S
C2403 C2419 1.377 . S
C2404 C2402 1.389 . S
C2404 C2405 1.524 . S
C2404 C2418 1.377 . S
C2405 C2404 1.524 . S
C2405 C2406 1.397 . S
C2405 C2410 1.363 . S
C2406 H2383 0.950 . S
C2406 C2405 1.397 . S
C2406 C2407 1.334 . S
C2407 H2384 0.950 . S
C2407 C2406 1.334 . S
C2407 C2408 1.287 . S
C2408 C2407 1.287 . S
C2408 C2409 1.524 . S
C2408 H2427 0.913 . S
C2409 H2385 0.950 . S
C2409 C2408 1.524 . S
C2409 C2410 1.415 . S
C2410 H2386 0.950 . S
C2410 C2405 1.363 . S
C2410 C2409 1.415 . S
C2411 H2387 0.951 . S
C2411 C2412 1.366 . S
C2411 C2413 1.388 . S
C2412 C2411 1.366 . S
C2412 C2416 1.385 . S
C2413 H2388 0.951 . S
C2413 C2411 1.388 . S
C2413 C2414 1.366 . S
C2414 C2413 1.366 . S
C2414 C2415 1.414 . S
C2414 C2417 1.499 . S
C2415 H2389 0.950 . S
C2415 C2414 1.414 . S
C2415 C2416 1.374 . S
C2416 H2390 0.950 . S
C2416 C2412 1.385 . S
C2416 C2415 1.374 . S
C2417 C2414 1.499 . S
C2417 C2418 1.373 . S
C2417 C2419 1.389 . S
C2418 H2391 0.950 . S
C2418 C2404 1.377 . S
C2418 C2417 1.373 . S
C2419 C2403 1.377 . S
C2419 C2417 1.389 . S
C2419 C2420 1.524 . S
C2420 C2419 1.524 . S
C2420 C2421 1.397 . S
C2420 C2425 1.363 . S
C2421 H2392 0.950 . S
C2421 C2420 1.397 . S
C2421 C2422 1.334 . S
C2422 H2393 0.950 . S
C2422 C2421 1.334 . S
C2422 C2423 1.287 . S
C2423 C2422 1.287 . S
C2423 C2424 1.524 . S
C2423 H2426 0.999 . S
C2424 H2394 0.950 . S
C2424 C2423 1.524 . S
C2424 C2425 1.415 . S
C2425 H2395 0.950 . S
C2425 C2420 1.363 . S
C2425 C2424 1.415 . S
H2426 C2423 0.999 . S
H2427 C2408 0.913 . S
H2428 C2446 0.951 . S
H2429 C2448 0.951 . S
H2430 C2450 0.950 . S
H2431 C2451 0.950 . S
H2432 C2453 0.950 . S
H2433 C2456 0.950 . S
H2434 C2457 0.950 . S
H2435 C2459 0.950 . S
H2436 C2460 0.950 . S
H2437 C2461 0.951 . S
H2438 C2463 0.951 . S
H2439 C2465 0.950 . S
H2440 C2466 0.950 . S
H2441 C2468 0.950 . S
H2442 C2471 0.950 . S
H2443 C2472 0.950 . S
H2444 C2474 0.950 . S
H2445 C2475 0.950 . S
C2446 H2428 0.951 . S
C2446 C2447 1.366 . S
C2446 C2448 1.388 . S
C2447 C2446 1.366 . S
C2447 C2451 1.385 . S
C2448 H2429 0.951 . S
C2448 C2446 1.388 . S
C2448 C2449 1.366 . S
C2449 C2448 1.366 . S
C2449 C2450 1.414 . S
C2449 C2452 1.499 . S
C2450 H2430 0.950 . S
C2450 C2449 1.414 . S
C2450 C2451 1.374 . S
C2451 H2431 0.950 . S
C2451 C2447 1.385 . S
C2451 C2450 1.374 . S
C2452 C2449 1.499 . S
C2452 C2453 1.373 . S
C2452 C2454 1.389 . S
C2453 H2432 0.950 . S
C2453 C2452 1.373 . S
C2453 C2469 1.377 . S
C2454 C2452 1.389 . S
C2454 C2455 1.524 . S
C2454 C2468 1.377 . S
C2455 C2454 1.524 . S
C2455 C2456 1.397 . S
C2455 C2460 1.363 . S
C2456 H2433 0.950 . S
C2456 C2455 1.397 . S
C2456 C2457 1.334 . S
C2457 H2434 0.950 . S
C2457 C2456 1.334 . S
C2457 C2458 1.287 . S
C2458 C2457 1.287 . S
C2458 C2459 1.524 . S
C2458 H2477 0.913 . S
C2459 H2435 0.950 . S
C2459 C2458 1.524 . S
C2459 C2460 1.415 . S
C2460 H2436 0.950 . S
C2460 C2455 1.363 . S
C2460 C2459 1.415 . S
C2461 H2437 0.951 . S
C2461 C2462 1.366 . S
C2461 C2463 1.388 . S
C2462 C2461 1.366 . S
C2462 C2466 1.385 . S
C2463 H2438 0.951 . S
C2463 C2461 1.388 . S
C2463 C2464 1.366 . S
C2464 C2463 1.366 . S
C2464 C2465 1.414 . S
C2464 C2467 1.499 . S
C2465 H2439 0.950 . S
C2465 C2464 1.414 . S
C2465 C2466 1.374 . S
C2466 H2440 0.950 . S
C2466 C2462 1.385 . S
C2466 C2465 1.374 . S
C2467 C2464 1.499 . S
C2467 C2468 1.373 . S
C2467 C2469 1.389 . S
C2468 H2441 0.950 . S
C2468 C2454 1.377 . S
C2468 C2467 1.373 . S
C2469 C2453 1.377 . S
C2469 C2467 1.389 . S
C2469 C2470 1.524 . S
C2470 C2469 1.524 . S
C2470 C2471 1.397 . S
C2470 C2475 1.363 . S
C2471 H2442 0.950 . S
C2471 C2470 1.397 . S
C2471 C2472 1.334 . S
C2472 H2443 0.950 . S
C2472 C2471 1.334 . S
C2472 C2473 1.287 . S
C2473 C2472 1.287 . S
C2473 C2474 1.524 . S
C2473 H2476 0.999 . S
C2474 H2444 0.950 . S
C2474 C2473 1.524 . S
C2474 C2475 1.415 . S
C2475 H2445 0.950 . S
C2475 C2470 1.363 . S
C2475 C2474 1.415 . S
H2476 C2473 0.999 . S
H2477 C2458 0.913 . S
H2478 C2496 0.951 . S
H2479 C2498 0.951 . S
H2480 C2500 0.950 . S
H2481 C2501 0.950 . S
H2482 C2503 0.950 . S
H2483 C2506 0.950 . S
H2484 C2507 0.950 . S
H2485 C2509 0.950 . S
H2486 C2510 0.950 . S
H2487 C2511 0.951 . S
H2488 C2513 0.951 . S
H2489 C2515 0.950 . S
H2490 C2516 0.950 . S
H2491 C2518 0.950 . S
H2492 C2521 0.950 . S
H2493 C2522 0.950 . S
H2494 C2524 0.950 . S
H2495 C2525 0.950 . S
C2496 H2478 0.951 . S
C2496 C2497 1.366 . S
C2496 C2498 1.388 . S
C2497 C2496 1.366 . S
C2497 C2501 1.385 . S
C2498 H2479 0.951 . S
C2498 C2496 1.388 . S
C2498 C2499 1.366 . S
C2499 C2498 1.366 . S
C2499 C2500 1.414 . S
C2499 C2502 1.499 . S
C2500 H2480 0.950 . S
C2500 C2499 1.414 . S
C2500 C2501 1.374 . S
C2501 H2481 0.950 . S
C2501 C2497 1.385 . S
C2501 C2500 1.374 . S
C2502 C2499 1.499 . S
C2502 C2503 1.373 . S
C2502 C2504 1.389 . S
C2503 H2482 0.950 . S
C2503 C2502 1.373 . S
C2503 C2519 1.377 . S
C2504 C2502 1.389 . S
C2504 C2505 1.524 . S
C2504 C2518 1.377 . S
C2505 C2504 1.524 . S
C2505 C2506 1.397 . S
C2505 C2510 1.363 . S
C2506 H2483 0.950 . S
C2506 C2505 1.397 . S
C2506 C2507 1.334 . S
C2507 H2484 0.950 . S
C2507 C2506 1.334 . S
C2507 C2508 1.287 . S
C2508 C2507 1.287 . S
C2508 C2509 1.524 . S
C2508 H2527 0.913 . S
C2509 H2485 0.950 . S
C2509 C2508 1.524 . S
C2509 C2510 1.415 . S
C2510 H2486 0.950 . S
C2510 C2505 1.363 . S
C2510 C2509 1.415 . S
C2511 H2487 0.951 . S
C2511 C2512 1.366 . S
C2511 C2513 1.388 . S
C2512 C2511 1.366 . S
C2512 C2516 1.385 . S
C2513 H2488 0.951 . S
C2513 C2511 1.388 . S
C2513 C2514 1.366 . S
C2514 C2513 1.366 . S
C2514 C2515 1.414 . S
C2514 C2517 1.499 . S
C2515 H2489 0.950 . S
C2515 C2514 1.414 . S
C2515 C2516 1.374 . S
C2516 H2490 0.950 . S
C2516 C2512 1.385 . S
C2516 C2515 1.374 . S
C2517 C2514 1.499 . S
C2517 C2518 1.373 . S
C2517 C2519 1.389 . S
C2518 H2491 0.950 . S
C2518 C2504 1.377 . S
C2518 C2517 1.373 . S
C2519 C2503 1.377 . S
C2519 C2517 1.389 . S
C2519 C2520 1.524 . S
C2520 C2519 1.524 . S
C2520 C2521 1.397 . S
C2520 C2525 1.363 . S
C2521 H2492 0.950 . S
C2521 C2520 1.397 . S
C2521 C2522 1.334 . S
C2522 H2493 0.950 . S
C2522 C2521 1.334 . S
C2522 C2523 1.287 . S
C2523 C2522 1.287 . S
C2523 C2524 1.524 . S
C2523 H2526 0.999 . S
C2524 H2494 0.950 . S
C2524 C2523 1.524 . S
C2524 C2525 1.415 . S
C2525 H2495 0.950 . S
C2525 C2520 1.363 . S
C2525 C2524 1.415 . S
H2526 C2523 0.999 . S
H2527 C2508 0.913 . S
C547 C7 0.500 . S
C562 C469 0.498 . S
C597 C40 0.497 . S
C612 C502 0.499 . S
C647 C73 0.496 . S
C662 C403 0.498 . S
C697 C106 0.498 . S
C712 C436 0.500 . S
C747 C139 0.499 . S
C762 C337 0.499 . S
C797 C172 0.499 . S
C812 C370 0.499 . S
C847 C271 0.499 . S
C862 C205 0.496 . S
C897 C304 0.499 . S
C912 C238 0.499 . S
C947 C21 0.625 . S
C962 N46 0.618 1_556 S
C997 C54 0.625 . S
C1012 N79 0.619 1_554 S
C1047 C87 0.626 . S
C1062 N112 0.621 1_556 S
C1097 N13 0.621 1_554 S
C1112 C120 0.626 . S
C1147 N508 0.644 . S
C1162 C153 0.625 . S
C1197 N409 0.645 . S
C1212 C186 0.625 . S
C1247 N442 0.643 . S
C1262 C219 0.624 . S
C1297 N475 0.646 . S
C1312 C252 0.626 . S
C1347 C285 0.625 . S
C1362 N310 0.644 . S
C1397 C318 0.626 . S
C1412 N343 0.646 . S
C1447 N376 0.644 . S
C1462 C351 0.625 . S
C1497 C384 0.625 . S
C1512 N277 0.643 . S
C1547 C417 0.625 . S
C1562 N244 0.643 . S
C1597 N145 0.646 . S
C1612 C450 0.626 . S
C1647 N178 0.645 . S
C1662 C483 0.626 . S
C1697 C516 0.626 . S
C1712 N211 0.645 . S
C1747 N2 2.103 . S
C1762 N68 2.104 . S
C1797 N35 2.103 . S
C1812 N101 2.104 . S
C1847 N200 2.097 . S
C1862 N134 2.098 . S
C1897 N233 2.098 . S
C1912 N167 2.098 . S
C1947 N266 2.098 . S
C1962 N332 2.097 . S
C1997 N299 2.097 . S
C2012 N365 2.098 . S
C2047 N398 2.098 . S
C2062 N464 2.097 . S
C2097 N431 2.098 . S
C2112 N497 2.098 . S
C2147 C150 2.196 . S
C2162 C18 2.197 . S
C2197 C183 2.196 . S
C2212 C51 2.197 . S
C2247 C84 2.196 . S
C2262 C216 2.196 . S
C2297 C249 2.197 . S
C2312 C117 2.196 . S
C2347 C282 2.196 . S
C2362 C414 2.196 . S
C2397 C447 2.197 . S
C2412 C315 2.196 . S
C2447 C480 2.197 . S
C2462 C348 2.196 . S
C2497 C381 2.196 . S
C2512 C513 2.197 . S
