# Generated by pormake.
# Topology hcp, (12)-cn, num edge types: 1
# Building blocks:
#     Node 0, Type 0, BuildingBlock: ZALLEG_clean_sbu_0, # of connection points: 12
#     Node 1, Type 0, BuildingBlock: ZALLEG_clean_sbu_0, # of connection points: 12
#     Edge 2, Type (0, 0), BuildingBlock: XUDNAN_clean_linker_2, # of connection points: 2
#     Edge 3, Type (0, 0), BuildingBlock: XUDNAN_clean_linker_2, # of connection points: 2
#     Edge 4, Type (0, 0), BuildingBlock: XUDNAN_clean_linker_2, # of connection points: 2
#     Edge 5, Type (0, 0), BuildingBlock: XUDNAN_clean_linker_2, # of connection points: 2
#     Edge 6, Type (0, 0), BuildingBlock: XUDNAN_clean_linker_2, # of connection points: 2
#     Edge 7, Type (0, 0), BuildingBlock: XUDNAN_clean_linker_2, # of connection points: 2
#     Edge 8, Type (0, 0), BuildingBlock: XUDNAN_clean_linker_2, # of connection points: 2
#     Edge 9, Type (0, 0), BuildingBlock: XUDNAN_clean_linker_2, # of connection points: 2
#     Edge 10, Type (0, 0), BuildingBlock: XUDNAN_clean_linker_2, # of connection points: 2
#     Edge 11, Type (0, 0), BuildingBlock: XUDNAN_clean_linker_2, # of connection points: 2
#     Edge 12, Type (0, 0), BuildingBlock: XUDNAN_clean_linker_2, # of connection points: 2
#     Edge 13, Type (0, 0), BuildingBlock: XUDNAN_clean_linker_2, # of connection points: 2
# Relax obj value: 0.186
# Max RMSD: 0.270
# Mean RMSD: 0.270
data_MOF--net-hcp--node1-ZALLEG_clean_sbu_0--edge1-XUDNAN_clean_linker_2
_symmetry_space_group_name_H-M    P1
_symmetry_Int_Tables_number       1
_symmetry_cell_setting            triclinic
loop_
_symmetry_equiv_pos_as_xyz
'x, y, z'
_cell_length_a     18.445304
_cell_length_b     18.446582
_cell_length_c     28.531584
_cell_angle_alpha  90.09746
_cell_angle_beta   90.551496
_cell_angle_gamma 119.7346
loop_
_atom_site_label
_atom_site_type_symbol
_atom_site_fract_x
_atom_site_fract_y
_atom_site_fract_z
_atom_type_partial_charge
H0 H 0.57703 0.13735 0.26687 0.0
O1 O 0.60355 0.19594 0.27766 0.0
Tb2 Tb 0.54155 0.25686 0.24885 0.0
Tb3 Tb 0.60777 0.20022 0.35137 0.0
Tb4 Tb 0.7261 0.26128 0.25627 0.0
O5 O 0.53635 0.25247 0.32331 0.0
O6 O 0.66512 0.31917 0.22474 0.0
O7 O 0.59796 0.37824 0.27363 0.0
O8 O 0.65832 0.32246 0.37681 0.0
O9 O 0.78732 0.38673 0.28005 0.0
O10 O 0.73062 0.26604 0.3301 0.0
H11 H 0.47847 0.22315 0.33485 0.0
H12 H 0.66722 0.31796 0.19013 0.0
Tb13 Tb 0.59002 0.37387 0.34752 0.0
Tb14 Tb 0.72399 0.44181 0.25111 0.0
H15 H 0.56642 0.40385 0.26048 0.0
H16 H 0.6581 0.32425 0.41133 0.0
Tb17 Tb 0.78051 0.3916 0.3534 0.0
H18 H 0.84601 0.41904 0.27023 0.0
H19 H 0.7618 0.23989 0.34333 0.0
O20 O 0.71524 0.44597 0.3251 0.0
H21 H 0.73976 0.50392 0.33681 0.0
O22 O 0.43788 0.13134 0.26539 0.0
O23 O 0.87988 0.51817 0.34093 0.0
O24 O 0.8012 0.34137 0.41595 0.0
O25 O 0.53433 0.33074 0.18642 0.0
O26 O 0.63034 0.09575 0.33811 0.0
O27 O 0.69251 0.53983 0.2631 0.0
O28 O 0.81667 0.45083 0.19518 0.0
O29 O 0.52449 0.17476 0.40807 0.0
O30 O 0.65612 0.17196 0.19684 0.0
O31 O 0.64079 0.45446 0.40701 0.0
O32 O 0.46369 0.34764 0.33105 0.0
O33 O 0.85419 0.29193 0.27348 0.0
O34 O 0.48505 0.09344 0.33496 0.0
O35 O 0.84207 0.55468 0.26844 0.0
O36 O 0.66648 0.45569 0.18822 0.0
O37 O 0.68107 0.20548 0.41766 0.0
O38 O 0.43293 0.27249 0.25887 0.0
O39 O 0.89216 0.38022 0.34153 0.0
O40 O 0.77524 0.46707 0.41499 0.0
O41 O 0.53082 0.17847 0.18961 0.0
O42 O 0.52266 0.30259 0.41325 0.0
O43 O 0.79981 0.31499 0.19604 0.0
O44 O 0.71815 0.14342 0.27188 0.0
O45 O 0.60105 0.49479 0.3291 0.0
C46 C 0.42878 0.07989 0.30099 0.0
C47 C 0.89168 0.57086 0.30605 0.0
C48 C 0.75416 0.26798 0.43571 0.0
C49 C 0.59089 0.40707 0.1697 0.0
C50 C 0.67465 0.0867 0.30409 0.0
C51 C 0.64312 0.54792 0.29443 0.0
C52 C 0.83613 0.39238 0.18034 0.0
C53 C 0.50366 0.22563 0.42905 0.0
C54 C 0.58132 0.15003 0.17651 0.0
C55 C 0.71381 0.48239 0.42859 0.0
C56 C 0.41539 0.30955 0.29372 0.0
C57 C 0.90724 0.33911 0.30765 0.0
H58 H 0.15409 0.58587 0.75745 0.0
O59 O 0.2117 0.60926 0.76966 0.0
Tb60 Tb 0.21336 0.61452 0.84324 0.0
Tb61 Tb 0.27106 0.54238 0.74693 0.0
Tb62 Tb 0.28096 0.73005 0.74564 0.0
O63 O 0.26182 0.53745 0.82082 0.0
O64 O 0.28403 0.73661 0.81987 0.0
O65 O 0.33387 0.66396 0.87113 0.0
O66 O 0.3914 0.59348 0.77381 0.0
O67 O 0.40487 0.78598 0.77293 0.0
O68 O 0.33807 0.66387 0.72058 0.0
H69 H 0.22855 0.47966 0.8324 0.0
H70 H 0.26015 0.7706 0.83161 0.0
Tb71 Tb 0.38248 0.58996 0.84761 0.0
Tb72 Tb 0.40776 0.78556 0.84667 0.0
H73 H 0.33345 0.66453 0.9056 0.0
H74 H 0.41746 0.56124 0.76249 0.0
Tb75 Tb 0.45882 0.71759 0.74988 0.0
H76 H 0.43892 0.84368 0.7618 0.0
H77 H 0.33899 0.66443 0.68594 0.0
O78 O 0.45973 0.71478 0.82406 0.0
H79 H 0.51696 0.74038 0.83726 0.0
O80 O 0.09957 0.49527 0.82518 0.0
O81 O 0.57032 0.83601 0.76482 0.0
O82 O 0.47168 0.65546 0.68918 0.0
O83 O 0.22078 0.68824 0.90881 0.0
O84 O 0.19681 0.52892 0.6856 0.0
O85 O 0.47502 0.77701 0.9128 0.0
O86 O 0.40085 0.89863 0.82924 0.0
O87 O 0.28116 0.43171 0.76038 0.0
O88 O 0.16273 0.72776 0.76001 0.0
O89 O 0.50563 0.60225 0.83611 0.0
O90 O 0.30654 0.52671 0.91287 0.0
O91 O 0.347 0.80509 0.68572 0.0
O92 O 0.14267 0.44592 0.75945 0.0
O93 O 0.53578 0.88585 0.83304 0.0
O94 O 0.3524 0.81307 0.90454 0.0
O95 O 0.34069 0.52955 0.68576 0.0
O96 O 0.18197 0.53282 0.90128 0.0
O97 O 0.47678 0.80648 0.69066 0.0
O98 O 0.55666 0.68694 0.76754 0.0
O99 O 0.11899 0.64921 0.83037 0.0
O100 O 0.35653 0.46293 0.83259 0.0
O101 O 0.31506 0.85937 0.75974 0.0
O102 O 0.1971 0.65813 0.6837 0.0
O103 O 0.4558 0.6392 0.91 0.0
C104 C 0.08631 0.44012 0.79068 0.0
C105 C 0.58673 0.89338 0.79799 0.0
C106 C 0.41843 0.582 0.67006 0.0
C107 C 0.28054 0.76391 0.92527 0.0
C108 C 0.1736 0.58041 0.66712 0.0
C109 C 0.48371 0.71298 0.93043 0.0
C110 C 0.36271 0.9137 0.79325 0.0
C111 C 0.31871 0.41431 0.79528 0.0
C112 C 0.11107 0.69388 0.79615 0.0
C113 C 0.56276 0.64235 0.80292 0.0
C114 C 0.23066 0.5139 0.92655 0.0
C115 C 0.42469 0.83093 0.67163 0.0
H116 H 0.28407 0.90415 0.95855 0.0
H117 H 0.30842 0.69189 0.99941 0.0
H118 H 0.38699 0.76685 0.07002 0.0
H119 H 0.48262 0.04833 0.98337 0.0
H120 H 0.46475 0.12953 1.00572 0.0
H121 H 0.39144 0.05333 0.96496 0.0
H122 H 0.27038 0.01174 1.02295 0.0
H123 H 0.34246 0.09034 0.06329 0.0
H124 H 0.28075 0.98368 0.08215 0.0
H125 H 0.48775 0.87558 0.12787 0.0
H126 H 0.57761 -0.00025 0.17687 0.0
H127 H 0.49299 0.14425 0.09764 0.0
C128 C 0.30023 0.87131 0.98435 0.0
C129 C 0.28434 0.78926 0.97482 0.0
C130 C 0.31308 0.75124 1.00758 0.0
C131 C 0.36059 0.79488 1.04724 0.0
C132 C 0.37978 0.87742 0.05384 0.0
C133 C 0.34848 0.91464 1.02401 0.0
C134 C 0.38472 0.00647 1.03637 0.0
C135 C 0.43377 0.06267 0.99515 0.0
C136 C 0.31545 0.02408 1.05215 0.0
C137 C 0.4427 0.01546 0.07691 0.0
C138 C 0.43938 0.94048 0.08631 0.0
C139 C 0.49002 0.93437 0.12105 0.0
C140 C 0.54245 0.00572 0.14818 0.0
C141 C 0.54402 0.08224 0.14062 0.0
C142 C 0.49407 0.0869 0.10395 0.0
H143 H 0.47205 0.46808 0.65508 0.0
H144 H 0.4483 0.66738 0.59004 0.0
H145 H 0.54766 0.68007 0.52888 0.0
H146 H 0.69014 0.554 0.63235 0.0
H147 H 0.68386 0.45501 0.62068 0.0
H148 H 0.6097 0.46025 0.65922 0.0
H149 H 0.48215 0.35341 0.60666 0.0
H150 H 0.56091 0.34422 0.57547 0.0
H151 H 0.49009 0.3684 0.54399 0.0
H152 H 0.66076 0.68149 0.47976 0.0
H153 H 0.7405 0.63919 0.42866 0.0
H154 H 0.68269 0.43077 0.51962 0.0
C155 C 0.48486 0.51154 0.62667 0.0
C156 C 0.45054 0.56518 0.62651 0.0
C157 C 0.47199 0.62407 0.58998 0.0
C158 C 0.5298 0.63296 0.55568 0.0
C159 C 0.56581 0.58219 0.55807 0.0
C160 C 0.54189 0.52046 0.59145 0.0
C161 C 0.5882 0.47236 0.58478 0.0
C162 C 0.64639 0.48619 0.62679 0.0
C163 C 0.52647 0.37906 0.57708 0.0
C164 C 0.63872 0.51404 0.54114 0.0
C165 C 0.62803 0.58013 0.52799 0.0
C166 C 0.66914 0.62945 0.4895 0.0
C167 C 0.71643 0.60623 0.46129 0.0
C168 C 0.71962 0.53235 0.47041 0.0
C169 C 0.68401 0.48874 0.51243 0.0
H170 H 0.93136 0.52762 0.1188 0.0
H171 H 0.90614 0.29356 0.16941 0.0
H172 H 0.01797 0.30962 0.11968 0.0
H173 H 0.96572 0.49317 1.00084 0.0
H174 H 0.04144 0.60052 0.98927 0.0
H175 H 0.96374 0.5761 1.03332 0.0
H176 H 0.08083 0.65906 0.09612 0.0
H177 H 0.15591 0.68499 1.05038 0.0
H178 H 0.16432 0.63563 0.10304 0.0
H179 H 0.12446 0.33954 0.05762 0.0
H180 H 0.2107 0.38371 0.98543 0.0
H181 H 0.17066 0.59562 0.97622 0.0
C182 C 0.94993 0.48044 0.11982 0.0
C183 C 0.90768 0.40946 0.14858 0.0
C184 C 0.9347 0.34875 0.14778 0.0
C185 C -0.00012 0.35719 0.11977 0.0
C186 C 0.03934 0.4266 0.09168 0.0
C187 C 0.0155 0.48721 0.0912 0.0
C188 C 0.06444 0.55193 0.05451 0.0
C189 C 0.00532 0.55558 1.01729 0.0
C190 C 0.11973 0.63795 0.07741 0.0
C191 C 0.11668 0.51642 1.03428 0.0
C192 C 0.10243 0.44464 0.05643 0.0
C193 C 0.13787 0.39704 1.04043 0.0
C194 C 0.18733 0.42255 0.99963 0.0
C195 C 0.20038 0.49476 0.97564 0.0
C196 C 0.16564 0.54227 0.9944 0.0
H197 H 0.33957 0.84106 0.5951 0.0
H198 H 0.57357 0.97859 0.67134 0.0
H199 H 0.6074 0.10464 0.6248 0.0
H200 H 0.41999 0.93804 0.48131 0.0
H201 H 0.32397 0.93544 0.46541 0.0
H202 H 0.32214 0.85792 0.50429 0.0
H203 H 0.24426 0.8982 0.56508 0.0
H204 H 0.24921 0.97827 0.52694 0.0
H205 H 0.29133 0.00463 0.58573 0.0
H206 H 0.6132 0.21713 0.57007 0.0
H207 H 0.60476 0.29557 0.50232 0.0
H208 H 0.36605 0.08696 0.46264 0.0
C209 C 0.39895 0.8972 0.60122 0.0
C210 C 0.45492 0.89927 0.63639 0.0
C211 C 0.53111 0.97446 0.64376 0.0
C212 C 0.54989 0.04691 0.61804 0.0
C213 C 0.49187 0.04335 0.58482 0.0
C214 C 0.41887 0.96967 0.57557 0.0
C215 C 0.3684 0.98114 0.53677 0.0
C216 C 0.35807 0.92483 0.49444 0.0
C217 C 0.28325 0.96456 0.55473 0.0
C218 C 0.42426 0.07292 0.52539 0.0
C219 C 0.49456 0.10798 0.55403 0.0
C220 C 0.55763 0.1904 0.54811 0.0
C221 C 0.55125 0.23602 0.51032 0.0
C222 C 0.4829 0.20021 0.47853 0.0
C223 C 0.41695 0.1183 0.48765 0.0
H224 H 0.46043 0.44104 0.1492 0.0
H225 H 0.6928 0.46977 0.0963 0.0
H226 H 0.70155 0.57485 1.04025 0.0
H227 H 0.37904 0.46091 1.03223 0.0
H228 H 0.33051 0.51621 0.05697 0.0
H229 H 0.34324 0.44216 0.09196 0.0
H230 H 0.41961 0.55969 0.15415 0.0
H231 H 0.41051 0.63393 0.11705 0.0
H232 H 0.51175 0.65496 0.13782 0.0
H233 H 0.69452 0.68826 0.99498 0.0
H234 H 0.64726 0.76452 0.9436 0.0
H235 H 0.41129 0.65234 1.01569 0.0
C236 C 0.51123 0.46689 0.12456 0.0
C237 C 0.5756 0.44572 0.12717 0.0
C238 C 0.64222 0.4837 0.09491 0.0
C239 C 0.64861 0.54483 0.06334 0.0
C240 C 0.5871 0.56761 0.06327 0.0
C241 C 0.51769 0.52742 0.09146 0.0
C242 C 0.45829 0.56109 0.0816 0.0
C243 C 0.37271 0.4908 0.06463 0.0
C244 C 0.44952 0.60499 0.12527 0.0
C245 C 0.50422 0.62419 1.04276 0.0
C246 C 0.58023 0.62949 1.03447 0.0
C247 C 0.63463 0.68389 1.00091 0.0
C248 C 0.60795 0.72868 0.97236 0.0
C249 C 0.5261 0.71638 0.97568 0.0
C250 C 0.47542 0.66639 1.01317 0.0
H251 H 0.74282 0.32475 0.5226 0.0
H252 H 0.86738 0.21771 0.44457 0.0
H253 H 0.99307 0.2965 0.49395 0.0
H254 H 0.89479 0.51544 0.53635 0.0
H255 H 0.88671 0.53858 0.59696 0.0
H256 H 0.79624 0.461 0.56605 0.0
H257 H 0.76803 0.34548 0.62383 0.0
H258 H 0.8527 0.42237 0.65946 0.0
H259 H 0.85204 0.32812 0.64192 0.0
H260 H 0.11438 0.4141 0.5363 0.0
H261 H 0.21264 0.52297 0.59082 0.0
H262 H 0.00874 0.54365 0.65107 0.0
C263 C 0.79355 0.31185 0.51857 0.0
C264 C 0.7936 0.26259 0.48004 0.0
C265 C 0.86408 0.25214 0.47453 0.0
C266 C 0.9369 0.29874 0.50178 0.0
C267 C 0.93728 0.35275 0.53625 0.0
C268 C 0.866 0.35575 0.5469 0.0
C269 C 0.88444 0.41997 0.58587 0.0
C270 C 0.86448 0.48786 0.57024 0.0
C271 C 0.83649 0.37641 0.63043 0.0
C272 C 0.97807 0.45628 0.59304 0.0
C273 C 0.00705 0.41711 0.56339 0.0
C274 C 0.09179 0.4433 0.5606 0.0
C275 C 0.14752 0.50669 0.59111 0.0
C276 C 0.11914 0.54319 0.62491 0.0
C277 C 0.03308 0.51885 0.62501 0.0
H278 H 0.63715 0.96037 0.36788 0.0
H279 H 0.69524 0.02843 0.22158 0.0
H280 H 0.66803 0.88825 0.20302 0.0
H281 H 0.74958 0.85107 0.37099 0.0
H282 H 0.68062 0.77085 0.41049 0.0
H283 H 0.68954 0.87245 0.41266 0.0
H284 H 0.52968 0.80544 0.40037 0.0
H285 H 0.52005 0.70332 0.39827 0.0
H286 H 0.48016 0.73784 0.35052 0.0
H287 H 0.64159 0.74797 0.19875 0.0
H288 H 0.64313 0.61747 0.21158 0.0
H289 H 0.616 0.63834 0.36141 0.0
C290 C 0.64314 0.94501 0.33199 0.0
C291 C 0.66592 0.00443 0.29599 0.0
C292 C 0.6761 0.98348 0.24966 0.0
C293 C 0.66014 0.90369 0.23852 0.0
C294 C 0.63648 0.84611 0.27435 0.0
C295 C 0.63033 0.86577 0.32039 0.0
C296 C 0.61656 0.79514 0.35275 0.0
C297 C 0.68836 0.82414 0.38884 0.0
C298 C 0.53152 0.75825 0.37689 0.0
C299 C 0.61785 0.73427 0.3175 0.0
C300 C 0.62692 0.76457 0.27243 0.0
C301 C 0.6344 0.72307 0.23377 0.0
C302 C 0.63592 0.64957 0.24149 0.0
C303 C 0.63104 0.61935 0.28753 0.0
C304 C 0.61926 0.66047 0.32592 0.0
H305 H 0.99394 0.67534 0.73036 0.0
H306 H 0.07013 0.74152 0.87565 0.0
H307 H 0.93709 0.73648 0.8924 0.0
H308 H 0.87198 0.7868 0.71728 0.0
H309 H 0.79254 0.703 0.68229 0.0
H310 H 0.89893 0.72425 0.68055 0.0
H311 H 0.84464 0.57048 0.70031 0.0
H312 H 0.7387 0.54713 0.70952 0.0
H313 H 0.79482 0.52993 0.75573 0.0
H314 H 0.79101 0.70196 0.89683 0.0
H315 H 0.64474 0.66746 0.88509 0.0
H316 H 0.66298 0.63167 0.73631 0.0
C317 C 0.98367 0.69231 0.76503 0.0
C318 C 0.04152 0.70936 0.80173 0.0
C319 C 0.02578 0.72844 0.84723 0.0
C320 C 0.95064 0.7256 0.85709 0.0
C321 C 0.8926 0.70416 0.82089 0.0
C322 C 0.9086 0.68987 0.77552 0.0
C323 C 0.83239 0.66158 0.7443 0.0
C324 C 0.85003 0.72259 0.70371 0.0
C325 C 0.80096 0.57206 0.72633 0.0
C326 C 0.77216 0.66409 0.77904 0.0
C327 C 0.80778 0.68664 0.82325 0.0
C328 C 0.76284 0.68638 0.86218 0.0
C329 C 0.67987 0.66602 0.85531 0.0
C330 C 0.64401 0.64842 0.80985 0.0
C331 C 0.69007 0.64624 0.77129 0.0
H332 H 0.31451 0.97638 0.23459 0.0
H333 H 0.35685 0.0238 0.38434 0.0
H334 H 0.21669 0.90758 0.3998 0.0
H335 H 0.09005 0.90876 0.23391 0.0
H336 H 0.06373 0.82681 0.19134 0.0
H337 H 0.16511 0.9195 0.1905 0.0
H338 H 0.23611 0.82884 0.19639 0.0
H339 H 0.13512 0.736 0.19684 0.0
H340 H 0.20901 0.75541 0.24367 0.0
H341 H 0.08011 0.7862 0.40087 0.0
H342 H 0.95142 0.65277 0.38784 0.0
H343 H 0.9932 0.67593 0.23765 0.0
C344 C 0.29351 0.96221 0.27046 0.0
C345 C 0.34591 0.00837 0.30834 0.0
C346 C 0.31763 0.98827 0.35494 0.0
C347 C 0.23795 0.92307 0.3641 0.0
C348 C 0.18775 0.87835 0.32626 0.0
C349 C 0.21407 0.89585 0.28038 0.0
C350 C 0.1491 0.83258 0.24689 0.0
C351 C 0.11497 0.87445 0.2137 0.0
C352 C 0.18446 0.78541 0.21935 0.0
C353 C 0.08355 0.77619 0.28151 0.0
C354 C 0.10714 0.80521 0.32692 0.0
C355 C 0.06025 0.76274 0.36555 0.0
C356 C 0.98772 0.68694 0.35779 0.0
C357 C 0.96332 0.65453 0.31182 0.0
C358 C 0.01051 0.70037 0.27303 0.0
H359 H 0.3342 0.31485 0.86166 0.0
H360 H 0.33367 0.35498 0.71162 0.0
H361 H 0.36596 0.24311 0.69695 0.0
H362 H 0.50078 0.2595 0.86239 0.0
H363 H 0.4506 0.17905 0.90563 0.0
H364 H 0.43551 0.26842 0.90602 0.0
H365 H 0.27507 0.17152 0.90107 0.0
H366 H 0.28962 0.08205 0.90174 0.0
H367 H 0.23083 0.09462 0.85472 0.0
H368 H 0.38995 0.12567 0.69695 0.0
H369 H 0.38756 0.99326 0.71115 0.0
H370 H 0.36989 0.02274 0.86093 0.0
C371 C 0.34111 0.29985 0.82585 0.0
C372 C 0.33085 0.3427 0.78776 0.0
C373 C 0.33982 0.32171 0.74126 0.0
C374 C 0.35949 0.25925 0.73256 0.0
C375 C 0.36957 0.21833 0.77072 0.0
C376 C 0.35962 0.23651 0.81641 0.0
C377 C 0.36642 0.17715 0.85045 0.0
C378 C 0.44289 0.22384 0.88305 0.0
C379 C 0.28567 0.12844 0.87863 0.0
C380 C 0.37836 0.12105 0.81636 0.0
C381 C 0.38222 0.1478 0.77071 0.0
C382 C 0.38764 0.10416 0.73246 0.0
C383 C 0.38575 0.02901 0.74087 0.0
C384 C 0.37786 -0.00159 0.78705 0.0
C385 C 0.37698 0.04599 0.82545 0.0
H386 H 0.29904 0.2825 0.35958 0.0
H387 H 0.36836 0.35721 0.21547 0.0
H388 H 0.25318 0.38833 0.20742 0.0
H389 H 0.07766 0.17628 0.33645 0.0
H390 H 0.0527 0.20528 0.39182 0.0
H391 H 0.14407 0.19439 0.387 0.0
H392 H 0.23506 0.34533 0.41899 0.0
H393 H 0.14394 0.35704 0.42304 0.0
H394 H 0.23244 0.43046 0.3896 0.0
H395 H 0.13583 0.41436 0.21528 0.0
H396 H 0.0032 0.40972 0.23365 0.0
H397 H 0.00069 0.30643 0.37016 0.0
C398 C 0.28927 0.30511 0.32642 0.0
C399 C 0.34154 0.31783 0.28804 0.0
C400 C 0.32771 0.34663 0.24491 0.0
C401 C 0.26345 0.36535 0.24027 0.0
C402 C 0.2135 0.35346 0.27897 0.0
C403 C 0.22405 0.3221 0.32085 0.0
C404 C 0.15686 0.30842 0.35548 0.0
C405 C 0.10473 0.21558 0.36842 0.0
C406 C 0.19436 0.36364 0.39937 0.0
C407 C 0.10677 0.33671 0.32631 0.0
C408 C 0.142 0.36416 0.28271 0.0
C409 C 0.10708 0.39227 0.24904 0.0
C410 C 0.03188 0.38878 0.25948 0.0
C411 C 0.99225 0.35588 0.3025 0.0
C412 C 0.03086 0.33201 0.33708 0.0
H413 H 0.96911 0.34883 0.85762 0.0
H414 H 0.01582 0.3688 0.70789 0.0
H415 H 0.8892 0.23406 0.69478 0.0
H416 H 0.90044 0.13931 0.86798 0.0
H417 H 0.81686 0.1139 0.90846 0.0
H418 H 0.90484 0.21818 0.90721 0.0
H419 H 0.80652 0.27871 0.89255 0.0
H420 H 0.71784 0.17467 0.89481 0.0
H421 H 0.73267 0.23913 0.84439 0.0
H422 H 0.77943 0.09096 0.69841 0.0
H423 H 0.66714 0.9506 0.716 0.0
H424 H 0.67561 0.02083 0.86242 0.0
C425 C 0.95085 0.32571 0.82209 0.0
C426 C 0.00262 0.36803 0.78386 0.0
C427 C 0.97773 0.33622 0.73775 0.0
C428 C 0.90573 0.26004 0.72985 0.0
C429 C 0.85845 0.21736 0.7683 0.0
C430 C 0.87794 0.24941 0.81338 0.0
C431 C 0.81706 0.18748 0.84822 0.0
C432 C 0.86256 0.16332 0.88514 0.0
C433 C 0.76544 0.22206 0.87135 0.0
C434 C 0.76342 0.11473 0.81568 0.0
C435 C 0.78934 0.13397 0.76988 0.0
C436 C 0.75637 0.07563 0.73381 0.0
C437 C 0.69292 0.99567 0.74439 0.0
C438 C 0.66136 0.97512 0.79046 0.0
C439 C 0.69757 0.03533 0.82675 0.0
loop_
_geom_bond_atom_site_label_1
_geom_bond_atom_site_label_2
_geom_bond_distance
_geom_bond_site_symmetry_2
_ccdc_geom_bond_type
H0 O1 0.850 . S
O1 H0 0.850 . S
O1 Tb2 2.341 . S
O1 Tb3 2.341 . S
O1 Tb4 2.341 . S
Tb2 O1 2.341 . S
Tb2 O5 2.341 . S
Tb2 O6 2.341 . S
Tb2 O7 2.341 . S
Tb2 O22 2.344 . S
Tb2 O25 2.344 . S
Tb2 O38 2.344 . S
Tb2 O41 2.344 . S
Tb3 O1 2.341 . S
Tb3 O5 2.341 . S
Tb3 O8 2.341 . S
Tb3 O10 2.341 . S
Tb3 O26 2.344 . S
Tb3 O29 2.344 . S
Tb3 O34 2.344 . S
Tb3 O37 2.344 . S
Tb4 O1 2.341 . S
Tb4 O6 2.341 . S
Tb4 O9 2.341 . S
Tb4 O10 2.341 . S
Tb4 O30 2.344 . S
Tb4 O33 2.344 . S
Tb4 O43 2.344 . S
Tb4 O44 2.344 . S
O5 Tb2 2.341 . S
O5 Tb3 2.341 . S
O5 H11 0.850 . S
O5 Tb13 2.341 . S
O6 Tb2 2.341 . S
O6 Tb4 2.341 . S
O6 H12 0.850 . S
O6 Tb14 2.341 . S
O7 Tb2 2.341 . S
O7 Tb13 2.341 . S
O7 Tb14 2.341 . S
O7 H15 0.850 . S
O8 Tb3 2.341 . S
O8 Tb13 2.341 . S
O8 H16 0.850 . S
O8 Tb17 2.341 . S
O9 Tb4 2.341 . S
O9 Tb14 2.341 . S
O9 Tb17 2.341 . S
O9 H18 0.850 . S
O10 Tb3 2.341 . S
O10 Tb4 2.341 . S
O10 Tb17 2.341 . S
O10 H19 0.850 . S
H11 O5 0.850 . S
H12 O6 0.850 . S
Tb13 O5 2.341 . S
Tb13 O7 2.341 . S
Tb13 O8 2.341 . S
Tb13 O20 2.341 . S
Tb13 O31 2.344 . S
Tb13 O32 2.344 . S
Tb13 O42 2.344 . S
Tb13 O45 2.344 . S
Tb14 O6 2.341 . S
Tb14 O7 2.341 . S
Tb14 O9 2.341 . S
Tb14 O20 2.341 . S
Tb14 O27 2.344 . S
Tb14 O28 2.344 . S
Tb14 O35 2.344 . S
Tb14 O36 2.344 . S
H15 O7 0.850 . S
H16 O8 0.850 . S
Tb17 O8 2.341 . S
Tb17 O9 2.341 . S
Tb17 O10 2.341 . S
Tb17 O20 2.341 . S
Tb17 O23 2.344 . S
Tb17 O24 2.344 . S
Tb17 O39 2.344 . S
Tb17 O40 2.344 . S
H18 O9 0.850 . S
H19 O10 0.850 . S
O20 Tb13 2.341 . S
O20 Tb14 2.341 . S
O20 Tb17 2.341 . S
O20 H21 0.850 . S
H21 O20 0.850 . S
O22 Tb2 2.344 . S
O22 C46 1.272 . S
O23 Tb17 2.344 . S
O23 C47 1.272 . S
O24 Tb17 2.344 . S
O24 C48 1.272 . S
O25 Tb2 2.344 . S
O25 C49 1.272 . S
O26 Tb3 2.344 . S
O26 C50 1.272 . S
O27 Tb14 2.344 . S
O27 C51 1.272 . S
O28 Tb14 2.344 . S
O28 C52 1.272 . S
O29 Tb3 2.344 . S
O29 C53 1.272 . S
O30 Tb4 2.344 . S
O30 C54 1.272 . S
O31 Tb13 2.344 . S
O31 C55 1.272 . S
O32 Tb13 2.344 . S
O32 C56 1.272 . S
O33 Tb4 2.344 . S
O33 C57 1.272 . S
O34 Tb3 2.344 . S
O34 C46 1.272 . S
O35 Tb14 2.344 . S
O35 C47 1.272 . S
O36 Tb14 2.344 . S
O36 C49 1.272 . S
O37 Tb3 2.344 . S
O37 C48 1.272 . S
O38 Tb2 2.344 . S
O38 C56 1.272 . S
O39 Tb17 2.344 . S
O39 C57 1.272 . S
O40 Tb17 2.344 . S
O40 C55 1.272 . S
O41 Tb2 2.344 . S
O41 C54 1.272 . S
O42 Tb13 2.344 . S
O42 C53 1.272 . S
O43 Tb4 2.344 . S
O43 C52 1.272 . S
O44 Tb4 2.344 . S
O44 C50 1.272 . S
O45 Tb13 2.344 . S
O45 C51 1.272 . S
C46 O22 1.272 . S
C46 O34 1.272 . S
C47 O23 1.272 . S
C47 O35 1.272 . S
C48 O24 1.272 . S
C48 O37 1.272 . S
C49 O25 1.272 . S
C49 O36 1.272 . S
C50 O26 1.272 . S
C50 O44 1.272 . S
C51 O27 1.272 . S
C51 O45 1.272 . S
C52 O28 1.272 . S
C52 O43 1.272 . S
C53 O29 1.272 . S
C53 O42 1.272 . S
C54 O30 1.272 . S
C54 O41 1.272 . S
C55 O31 1.272 . S
C55 O40 1.272 . S
C56 O32 1.272 . S
C56 O38 1.272 . S
C57 O33 1.272 . S
C57 O39 1.272 . S
H58 O59 0.850 . S
O59 H58 0.850 . S
O59 Tb60 2.341 . S
O59 Tb61 2.341 . S
O59 Tb62 2.341 . S
Tb60 O59 2.341 . S
Tb60 O63 2.341 . S
Tb60 O64 2.341 . S
Tb60 O65 2.341 . S
Tb60 O80 2.344 . S
Tb60 O83 2.344 . S
Tb60 O96 2.344 . S
Tb60 O99 2.344 . S
Tb61 O59 2.341 . S
Tb61 O63 2.341 . S
Tb61 O66 2.341 . S
Tb61 O68 2.341 . S
Tb61 O84 2.344 . S
Tb61 O87 2.344 . S
Tb61 O92 2.344 . S
Tb61 O95 2.344 . S
Tb62 O59 2.341 . S
Tb62 O64 2.341 . S
Tb62 O67 2.341 . S
Tb62 O68 2.341 . S
Tb62 O88 2.344 . S
Tb62 O91 2.344 . S
Tb62 O101 2.344 . S
Tb62 O102 2.344 . S
O63 Tb60 2.341 . S
O63 Tb61 2.341 . S
O63 H69 0.850 . S
O63 Tb71 2.341 . S
O64 Tb60 2.341 . S
O64 Tb62 2.341 . S
O64 H70 0.850 . S
O64 Tb72 2.341 . S
O65 Tb60 2.341 . S
O65 Tb71 2.341 . S
O65 Tb72 2.341 . S
O65 H73 0.850 . S
O66 Tb61 2.341 . S
O66 Tb71 2.341 . S
O66 H74 0.850 . S
O66 Tb75 2.341 . S
O67 Tb62 2.341 . S
O67 Tb72 2.341 . S
O67 Tb75 2.341 . S
O67 H76 0.850 . S
O68 Tb61 2.341 . S
O68 Tb62 2.341 . S
O68 Tb75 2.341 . S
O68 H77 0.850 . S
H69 O63 0.850 . S
H70 O64 0.850 . S
Tb71 O63 2.341 . S
Tb71 O65 2.341 . S
Tb71 O66 2.341 . S
Tb71 O78 2.341 . S
Tb71 O89 2.344 . S
Tb71 O90 2.344 . S
Tb71 O100 2.344 . S
Tb71 O103 2.344 . S
Tb72 O64 2.341 . S
Tb72 O65 2.341 . S
Tb72 O67 2.341 . S
Tb72 O78 2.341 . S
Tb72 O85 2.344 . S
Tb72 O86 2.344 . S
Tb72 O93 2.344 . S
Tb72 O94 2.344 . S
H73 O65 0.850 . S
H74 O66 0.850 . S
Tb75 O66 2.341 . S
Tb75 O67 2.341 . S
Tb75 O68 2.341 . S
Tb75 O78 2.341 . S
Tb75 O81 2.344 . S
Tb75 O82 2.344 . S
Tb75 O97 2.344 . S
Tb75 O98 2.344 . S
H76 O67 0.850 . S
H77 O68 0.850 . S
O78 Tb71 2.341 . S
O78 Tb72 2.341 . S
O78 Tb75 2.341 . S
O78 H79 0.850 . S
H79 O78 0.850 . S
O80 Tb60 2.344 . S
O80 C104 1.272 . S
O81 Tb75 2.344 . S
O81 C105 1.272 . S
O82 Tb75 2.344 . S
O82 C106 1.272 . S
O83 Tb60 2.344 . S
O83 C107 1.272 . S
O84 Tb61 2.344 . S
O84 C108 1.272 . S
O85 Tb72 2.344 . S
O85 C109 1.272 . S
O86 Tb72 2.344 . S
O86 C110 1.272 . S
O87 Tb61 2.344 . S
O87 C111 1.272 . S
O88 Tb62 2.344 . S
O88 C112 1.272 . S
O89 Tb71 2.344 . S
O89 C113 1.272 . S
O90 Tb71 2.344 . S
O90 C114 1.272 . S
O91 Tb62 2.344 . S
O91 C115 1.272 . S
O92 Tb61 2.344 . S
O92 C104 1.272 . S
O93 Tb72 2.344 . S
O93 C105 1.272 . S
O94 Tb72 2.344 . S
O94 C107 1.272 . S
O95 Tb61 2.344 . S
O95 C106 1.272 . S
O96 Tb60 2.344 . S
O96 C114 1.272 . S
O97 Tb75 2.344 . S
O97 C115 1.272 . S
O98 Tb75 2.344 . S
O98 C113 1.272 . S
O99 Tb60 2.344 . S
O99 C112 1.272 . S
O100 Tb71 2.344 . S
O100 C111 1.272 . S
O101 Tb62 2.344 . S
O101 C110 1.272 . S
O102 Tb62 2.344 . S
O102 C108 1.272 . S
O103 Tb71 2.344 . S
O103 C109 1.272 . S
C104 O80 1.272 . S
C104 O92 1.272 . S
C105 O81 1.272 . S
C105 O93 1.272 . S
C106 O82 1.272 . S
C106 O95 1.272 . S
C107 O83 1.272 . S
C107 O94 1.272 . S
C108 O84 1.272 . S
C108 O102 1.272 . S
C109 O85 1.272 . S
C109 O103 1.272 . S
C110 O86 1.272 . S
C110 O101 1.272 . S
C111 O87 1.272 . S
C111 O100 1.272 . S
C112 O88 1.272 . S
C112 O99 1.272 . S
C113 O89 1.272 . S
C113 O98 1.272 . S
C114 O90 1.272 . S
C114 O96 1.272 . S
C115 O91 1.272 . S
C115 O97 1.272 . S
H116 C128 0.930 . S
H117 C130 0.930 . S
H118 C131 0.930 1_554 S
H119 C135 0.959 . S
H120 C135 0.959 . S
H121 C135 0.961 . S
H122 C136 0.960 . S
H123 C136 0.961 . S
H124 C136 0.959 . S
H125 C139 0.929 . S
H126 C140 0.931 . S
H127 C142 0.930 . S
C128 H116 0.930 . S
C128 C129 1.399 . S
C128 C133 1.399 . S
C129 C128 1.399 . S
C129 C130 1.376 . S
C130 H117 0.930 . S
C130 C129 1.376 . S
C130 C131 1.388 . S
C131 H118 0.930 1_556 S
C131 C130 1.388 . S
C131 C132 1.390 . S
C132 C131 1.390 . S
C132 C133 1.394 . S
C132 C138 1.465 1_556 S
C133 C128 1.399 . S
C133 C132 1.394 . S
C133 C134 1.516 1_565 S
C134 C133 1.516 1_545 S
C134 C135 1.502 . S
C134 C136 1.561 . S
C134 C137 1.526 1_556 S
C135 H119 0.959 . S
C135 H120 0.959 . S
C135 H121 0.961 . S
C135 C134 1.502 . S
C136 H122 0.960 . S
C136 H123 0.961 . S
C136 H124 0.959 . S
C136 C134 1.561 . S
C137 C134 1.526 1_554 S
C137 C138 1.396 1_545 S
C137 C142 1.390 . S
C138 C132 1.465 1_554 S
C138 C137 1.396 1_565 S
C138 C139 1.399 . S
C139 H125 0.929 . S
C139 C138 1.399 . S
C139 C140 1.385 1_565 S
C140 H126 0.931 . S
C140 C139 1.385 1_545 S
C140 C141 1.389 . S
C141 C140 1.389 . S
C141 C142 1.387 . S
C142 H127 0.930 . S
C142 C137 1.390 . S
C142 C141 1.387 . S
H143 C155 0.930 . S
H144 C157 0.930 . S
H145 C158 0.930 . S
H146 C162 0.959 . S
H147 C162 0.959 . S
H148 C162 0.961 . S
H149 C163 0.960 . S
H150 C163 0.961 . S
H151 C163 0.959 . S
H152 C166 0.929 . S
H153 C167 0.931 . S
H154 C169 0.930 . S
C155 H143 0.930 . S
C155 C156 1.399 . S
C155 C160 1.399 . S
C156 C155 1.399 . S
C156 C157 1.376 . S
C157 H144 0.930 . S
C157 C156 1.376 . S
C157 C158 1.388 . S
C158 H145 0.930 . S
C158 C157 1.388 . S
C158 C159 1.390 . S
C159 C158 1.390 . S
C159 C160 1.394 . S
C159 C165 1.465 . S
C160 C155 1.399 . S
C160 C159 1.394 . S
C160 C161 1.516 . S
C161 C160 1.516 . S
C161 C162 1.502 . S
C161 C163 1.561 . S
C161 C164 1.526 . S
C162 H146 0.959 . S
C162 H147 0.959 . S
C162 H148 0.961 . S
C162 C161 1.502 . S
C163 H149 0.960 . S
C163 H150 0.961 . S
C163 H151 0.959 . S
C163 C161 1.561 . S
C164 C161 1.526 . S
C164 C165 1.396 . S
C164 C169 1.390 . S
C165 C159 1.465 . S
C165 C164 1.396 . S
C165 C166 1.399 . S
C166 H152 0.929 . S
C166 C165 1.399 . S
C166 C167 1.385 . S
C167 H153 0.931 . S
C167 C166 1.385 . S
C167 C168 1.389 . S
C168 C167 1.389 . S
C168 C169 1.387 . S
C169 H154 0.930 . S
C169 C164 1.390 . S
C169 C168 1.387 . S
H170 C182 0.930 . S
H171 C184 0.930 . S
H172 C185 0.930 . S
H173 C189 0.959 . S
H174 C189 0.959 . S
H175 C189 0.961 . S
H176 C190 0.960 . S
H177 C190 0.961 . S
H178 C190 0.959 . S
H179 C193 0.929 1_554 S
H180 C194 0.931 . S
H181 C196 0.930 . S
C182 H170 0.930 . S
C182 C183 1.399 . S
C182 C187 1.399 . S
C183 C182 1.399 . S
C183 C184 1.376 . S
C184 H171 0.930 . S
C184 C183 1.376 . S
C184 C185 1.388 1_655 S
C185 H172 0.930 . S
C185 C184 1.388 1_455 S
C185 C186 1.390 . S
C186 C185 1.390 . S
C186 C187 1.394 1_455 S
C186 C192 1.465 1_554 S
C187 C182 1.399 . S
C187 C186 1.394 1_655 S
C187 C188 1.516 1_654 S
C188 C187 1.516 1_456 S
C188 C189 1.502 1_455 S
C188 C190 1.561 . S
C188 C191 1.526 . S
C189 H173 0.959 . S
C189 H174 0.959 . S
C189 H175 0.961 . S
C189 C188 1.502 1_655 S
C190 H176 0.960 . S
C190 H177 0.961 . S
C190 H178 0.959 . S
C190 C188 1.561 . S
C191 C188 1.526 . S
C191 C192 1.396 . S
C191 C196 1.390 . S
C192 C186 1.465 1_556 S
C192 C191 1.396 . S
C192 C193 1.399 . S
C193 H179 0.929 1_556 S
C193 C192 1.399 . S
C193 C194 1.385 . S
C194 H180 0.931 . S
C194 C193 1.385 . S
C194 C195 1.389 . S
C195 C194 1.389 . S
C195 C196 1.387 . S
C196 H181 0.930 . S
C196 C191 1.390 . S
C196 C195 1.387 . S
H197 C209 0.930 . S
H198 C211 0.930 . S
H199 C212 0.930 . S
H200 C216 0.959 1_545 S
H201 C216 0.960 . S
H202 C216 0.961 . S
H203 C217 0.960 . S
H204 C217 0.961 . S
H205 C217 0.959 . S
H206 C220 0.929 . S
H207 C221 0.931 . S
H208 C223 0.930 . S
C209 H197 0.930 . S
C209 C210 1.399 . S
C209 C214 1.399 . S
C210 C209 1.399 . S
C210 C211 1.376 . S
C211 H198 0.930 . S
C211 C210 1.376 . S
C211 C212 1.388 1_565 S
C212 H199 0.930 . S
C212 C211 1.388 1_545 S
C212 C213 1.390 . S
C213 C212 1.390 . S
C213 C214 1.394 1_545 S
C213 C219 1.465 . S
C214 C209 1.399 . S
C214 C213 1.394 1_565 S
C214 C215 1.516 . S
C215 C214 1.516 . S
C215 C216 1.502 . S
C215 C217 1.561 . S
C215 C218 1.526 1_565 S
C216 H200 0.959 1_565 S
C216 H201 0.960 . S
C216 H202 0.961 . S
C216 C215 1.502 . S
C217 H203 0.960 . S
C217 H204 0.961 . S
C217 H205 0.959 . S
C217 C215 1.561 . S
C218 C215 1.526 1_545 S
C218 C219 1.396 . S
C218 C223 1.390 . S
C219 C213 1.465 . S
C219 C218 1.396 . S
C219 C220 1.399 . S
C220 H206 0.929 . S
C220 C219 1.399 . S
C220 C221 1.385 . S
C221 H207 0.931 . S
C221 C220 1.385 . S
C221 C222 1.389 . S
C222 C221 1.389 . S
C222 C223 1.387 . S
C223 H208 0.930 . S
C223 C218 1.390 . S
C223 C222 1.387 . S
H224 C236 0.930 . S
H225 C238 0.930 . S
H226 C239 0.930 . S
H227 C243 0.959 1_556 S
H228 C243 0.959 . S
H229 C243 0.961 . S
H230 C244 0.960 . S
H231 C244 0.961 . S
H232 C244 0.959 . S
H233 C247 0.929 . S
H234 C248 0.931 . S
H235 C250 0.930 . S
C236 H224 0.930 . S
C236 C237 1.399 . S
C236 C241 1.399 . S
C237 C236 1.399 . S
C237 C238 1.376 . S
C238 H225 0.930 . S
C238 C237 1.376 . S
C238 C239 1.388 . S
C239 H226 0.930 . S
C239 C238 1.388 . S
C239 C240 1.390 . S
C240 C239 1.390 . S
C240 C241 1.394 . S
C240 C246 1.465 1_554 S
C241 C236 1.399 . S
C241 C240 1.394 . S
C241 C242 1.516 . S
C242 C241 1.516 . S
C242 C243 1.502 . S
C242 C244 1.561 . S
C242 C245 1.526 1_554 S
C243 H227 0.959 1_554 S
C243 H228 0.959 . S
C243 H229 0.961 . S
C243 C242 1.502 . S
C244 H230 0.960 . S
C244 H231 0.961 . S
C244 H232 0.959 . S
C244 C242 1.561 . S
C245 C242 1.526 1_556 S
C245 C246 1.396 . S
C245 C250 1.390 . S
C246 C240 1.465 1_556 S
C246 C245 1.396 . S
C246 C247 1.399 . S
C247 H233 0.929 . S
C247 C246 1.399 . S
C247 C248 1.385 . S
C248 H234 0.931 . S
C248 C247 1.385 . S
C248 C249 1.389 . S
C249 C248 1.389 . S
C249 C250 1.387 . S
C250 H235 0.930 . S
C250 C245 1.390 . S
C250 C249 1.387 . S
H251 C263 0.930 . S
H252 C265 0.930 . S
H253 C266 0.930 . S
H254 C270 0.959 . S
H255 C270 0.959 . S
H256 C270 0.961 . S
H257 C271 0.960 . S
H258 C271 0.961 . S
H259 C271 0.959 1_455 S
H260 C274 0.929 . S
H261 C275 0.931 . S
H262 C277 0.930 . S
C263 H251 0.930 . S
C263 C264 1.399 . S
C263 C268 1.399 . S
C264 C263 1.399 . S
C264 C265 1.376 . S
C265 H252 0.930 . S
C265 C264 1.376 . S
C265 C266 1.388 . S
C266 H253 0.930 . S
C266 C265 1.388 . S
C266 C267 1.390 . S
C267 C266 1.390 . S
C267 C268 1.394 . S
C267 C273 1.465 1_655 S
C268 C263 1.399 . S
C268 C267 1.394 . S
C268 C269 1.516 . S
C269 C268 1.516 . S
C269 C270 1.502 . S
C269 C271 1.561 . S
C269 C272 1.526 . S
C270 H254 0.959 . S
C270 H255 0.959 . S
C270 H256 0.961 . S
C270 C269 1.502 . S
C271 H257 0.960 . S
C271 H258 0.961 . S
C271 H259 0.959 1_655 S
C271 C269 1.561 . S
C272 C269 1.526 . S
C272 C273 1.396 1_655 S
C272 C277 1.390 1_655 S
C273 C267 1.465 1_455 S
C273 C272 1.396 1_455 S
C273 C274 1.399 . S
C274 H260 0.929 . S
C274 C273 1.399 . S
C274 C275 1.385 . S
C275 H261 0.931 . S
C275 C274 1.385 . S
C275 C276 1.389 . S
C276 C275 1.389 . S
C276 C277 1.387 . S
C277 H262 0.930 . S
C277 C272 1.390 1_455 S
C277 C276 1.387 . S
H278 C290 0.928 1_545 S
H279 C292 0.930 . S
H280 C293 0.930 . S
H281 C297 0.959 . S
H282 C297 0.959 . S
H283 C297 0.961 . S
H284 C298 0.960 . S
H285 C298 0.961 . S
H286 C298 0.959 . S
H287 C301 0.929 . S
H288 C302 0.931 . S
H289 C304 0.930 . S
C290 H278 0.928 1_565 S
C290 C291 1.399 1_565 S
C290 C295 1.399 . S
C291 C290 1.399 1_545 S
C291 C292 1.376 . S
C292 H279 0.930 . S
C292 C291 1.376 . S
C292 C293 1.388 1_545 S
C293 H280 0.930 . S
C293 C292 1.388 1_565 S
C293 C294 1.390 . S
C294 C293 1.390 . S
C294 C295 1.394 . S
C294 C300 1.465 . S
C295 C290 1.399 . S
C295 C294 1.394 . S
C295 C296 1.516 . S
C296 C295 1.516 . S
C296 C297 1.502 . S
C296 C298 1.561 . S
C296 C299 1.526 . S
C297 H281 0.959 . S
C297 H282 0.959 . S
C297 H283 0.961 . S
C297 C296 1.502 . S
C298 H284 0.960 . S
C298 H285 0.961 . S
C298 H286 0.959 . S
C298 C296 1.561 . S
C299 C296 1.526 . S
C299 C300 1.396 . S
C299 C304 1.390 . S
C300 C294 1.465 . S
C300 C299 1.396 . S
C300 C301 1.399 . S
C301 H287 0.929 . S
C301 C300 1.399 . S
C301 C302 1.385 . S
C302 H288 0.931 . S
C302 C301 1.385 . S
C302 C303 1.389 . S
C303 C302 1.389 . S
C303 C304 1.387 . S
C304 H289 0.930 . S
C304 C299 1.390 . S
C304 C303 1.387 . S
H305 C317 0.930 1_455 S
H306 C319 0.930 1_455 S
H307 C320 0.930 . S
H308 C324 0.959 . S
H309 C324 0.959 . S
H310 C324 0.961 . S
H311 C325 0.960 . S
H312 C325 0.961 . S
H313 C325 0.959 . S
H314 C328 0.929 . S
H315 C329 0.931 . S
H316 C331 0.930 . S
C317 H305 0.930 1_655 S
C317 C318 1.399 1_655 S
C317 C322 1.399 . S
C318 C317 1.399 1_455 S
C318 C319 1.376 1_455 S
C319 H306 0.930 1_655 S
C319 C318 1.376 1_655 S
C319 C320 1.388 . S
C320 H307 0.930 . S
C320 C319 1.388 . S
C320 C321 1.390 . S
C321 C320 1.390 . S
C321 C322 1.394 . S
C321 C327 1.465 . S
C322 C317 1.399 . S
C322 C321 1.394 . S
C322 C323 1.516 . S
C323 C322 1.516 . S
C323 C324 1.502 . S
C323 C325 1.561 . S
C323 C326 1.526 . S
C324 H308 0.959 . S
C324 H309 0.959 . S
C324 H310 0.961 . S
C324 C323 1.502 . S
C325 H311 0.960 . S
C325 H312 0.961 . S
C325 H313 0.959 . S
C325 C323 1.561 . S
C326 C323 1.526 . S
C326 C327 1.396 . S
C326 C331 1.390 . S
C327 C321 1.465 . S
C327 C326 1.396 . S
C327 C328 1.399 . S
C328 H314 0.929 . S
C328 C327 1.399 . S
C328 C329 1.385 . S
C329 H315 0.931 . S
C329 C328 1.385 . S
C329 C330 1.389 . S
C330 C329 1.389 . S
C330 C331 1.387 . S
C331 H316 0.930 . S
C331 C326 1.390 . S
C331 C330 1.387 . S
H332 C344 0.930 . S
H333 C346 0.930 . S
H334 C347 0.930 . S
H335 C351 0.959 . S
H336 C351 0.959 . S
H337 C351 0.961 . S
H338 C352 0.960 . S
H339 C352 0.961 . S
H340 C352 0.959 . S
H341 C355 0.929 . S
H342 C356 0.936 . S
H343 C358 0.930 1_655 S
C344 H332 0.930 . S
C344 C345 1.399 . S
C344 C349 1.399 . S
C345 C344 1.399 . S
C345 C346 1.376 . S
C346 H333 0.930 . S
C346 C345 1.376 . S
C346 C347 1.388 . S
C347 H334 0.930 . S
C347 C346 1.388 . S
C347 C348 1.390 . S
C348 C347 1.390 . S
C348 C349 1.394 . S
C348 C354 1.465 . S
C349 C344 1.399 . S
C349 C348 1.394 . S
C349 C350 1.516 . S
C350 C349 1.516 . S
C350 C351 1.502 . S
C350 C352 1.561 . S
C350 C353 1.526 . S
C351 H335 0.959 . S
C351 H336 0.959 . S
C351 H337 0.961 . S
C351 C350 1.502 . S
C352 H338 0.960 . S
C352 H339 0.961 . S
C352 H340 0.959 . S
C352 C350 1.561 . S
C353 C350 1.526 . S
C353 C354 1.396 . S
C353 C358 1.390 . S
C354 C348 1.465 . S
C354 C353 1.396 . S
C354 C355 1.399 . S
C355 H341 0.929 . S
C355 C354 1.399 . S
C355 C356 1.374 1_455 S
C356 H342 0.936 . S
C356 C355 1.374 1_655 S
C356 C357 1.396 . S
C357 C356 1.396 . S
C357 C358 1.387 1_655 S
C358 H343 0.930 1_455 S
C358 C353 1.390 . S
C358 C357 1.387 1_455 S
H359 C371 0.930 . S
H360 C373 0.930 . S
H361 C374 0.930 . S
H362 C378 0.959 . S
H363 C378 0.959 . S
H364 C378 0.961 . S
H365 C379 0.960 . S
H366 C379 0.961 . S
H367 C379 0.959 . S
H368 C382 0.929 . S
H369 C383 0.931 1_565 S
H370 C385 0.930 . S
C371 H359 0.930 . S
C371 C372 1.399 . S
C371 C376 1.399 . S
C372 C371 1.399 . S
C372 C373 1.376 . S
C373 H360 0.930 . S
C373 C372 1.376 . S
C373 C374 1.388 . S
C374 H361 0.930 . S
C374 C373 1.388 . S
C374 C375 1.390 . S
C375 C374 1.390 . S
C375 C376 1.394 . S
C375 C381 1.465 . S
C376 C371 1.399 . S
C376 C375 1.394 . S
C376 C377 1.516 . S
C377 C376 1.516 . S
C377 C378 1.502 . S
C377 C379 1.561 . S
C377 C380 1.526 . S
C378 H362 0.959 . S
C378 H363 0.959 . S
C378 H364 0.961 . S
C378 C377 1.502 . S
C379 H365 0.960 . S
C379 H366 0.961 . S
C379 H367 0.959 . S
C379 C377 1.561 . S
C380 C377 1.526 . S
C380 C381 1.396 . S
C380 C385 1.390 . S
C381 C375 1.465 . S
C381 C380 1.396 . S
C381 C382 1.399 . S
C382 H368 0.929 . S
C382 C381 1.399 . S
C382 C383 1.385 . S
C383 H369 0.931 1_545 S
C383 C382 1.385 . S
C383 C384 1.389 1_545 S
C384 C383 1.389 1_565 S
C384 C385 1.387 1_565 S
C385 H370 0.930 . S
C385 C380 1.390 . S
C385 C384 1.387 1_545 S
H386 C398 0.930 . S
H387 C400 0.930 . S
H388 C401 0.930 . S
H389 C405 0.959 . S
H390 C405 0.959 . S
H391 C405 0.961 . S
H392 C406 0.960 . S
H393 C406 0.961 . S
H394 C406 0.959 . S
H395 C409 0.929 . S
H396 C410 0.931 1_655 S
H397 C412 0.930 . S
C398 H386 0.930 . S
C398 C399 1.399 . S
C398 C403 1.399 . S
C399 C398 1.399 . S
C399 C400 1.376 . S
C400 H387 0.930 . S
C400 C399 1.376 . S
C400 C401 1.388 . S
C401 H388 0.930 . S
C401 C400 1.388 . S
C401 C402 1.390 . S
C402 C401 1.390 . S
C402 C403 1.394 . S
C402 C408 1.465 . S
C403 C398 1.399 . S
C403 C402 1.394 . S
C403 C404 1.516 . S
C404 C403 1.516 . S
C404 C405 1.502 . S
C404 C406 1.561 . S
C404 C407 1.526 . S
C405 H389 0.959 . S
C405 H390 0.959 . S
C405 H391 0.961 . S
C405 C404 1.502 . S
C406 H392 0.960 . S
C406 H393 0.961 . S
C406 H394 0.959 . S
C406 C404 1.561 . S
C407 C404 1.526 . S
C407 C408 1.396 . S
C407 C412 1.390 . S
C408 C402 1.465 . S
C408 C407 1.396 . S
C408 C409 1.399 . S
C409 H395 0.929 . S
C409 C408 1.399 . S
C409 C410 1.385 . S
C410 H396 0.931 1_455 S
C410 C409 1.385 . S
C410 C411 1.389 1_455 S
C411 C410 1.389 1_655 S
C411 C412 1.387 1_655 S
C412 H397 0.930 . S
C412 C407 1.390 . S
C412 C411 1.387 1_455 S
H413 C425 0.930 . S
H414 C427 0.930 1_455 S
H415 C428 0.930 . S
H416 C432 0.959 . S
H417 C432 0.959 . S
H418 C432 0.961 . S
H419 C433 0.960 . S
H420 C433 0.961 . S
H421 C433 0.959 . S
H422 C436 0.929 . S
H423 C437 0.931 . S
H424 C439 0.930 . S
C425 H413 0.930 . S
C425 C426 1.399 1_655 S
C425 C430 1.399 . S
C426 C425 1.399 1_455 S
C426 C427 1.376 1_455 S
C427 H414 0.930 1_655 S
C427 C426 1.376 1_655 S
C427 C428 1.388 . S
C428 H415 0.930 . S
C428 C427 1.388 . S
C428 C429 1.390 . S
C429 C428 1.390 . S
C429 C430 1.394 . S
C429 C435 1.465 . S
C430 C425 1.399 . S
C430 C429 1.394 . S
C430 C431 1.516 . S
C431 C430 1.516 . S
C431 C432 1.502 . S
C431 C433 1.561 . S
C431 C434 1.526 . S
C432 H416 0.959 . S
C432 H417 0.959 . S
C432 H418 0.961 . S
C432 C431 1.502 . S
C433 H419 0.960 . S
C433 H420 0.961 . S
C433 H421 0.959 . S
C433 C431 1.561 . S
C434 C431 1.526 . S
C434 C435 1.396 . S
C434 C439 1.390 . S
C435 C429 1.465 . S
C435 C434 1.396 . S
C435 C436 1.399 . S
C436 H422 0.929 . S
C436 C435 1.399 . S
C436 C437 1.385 1_545 S
C437 H423 0.931 . S
C437 C436 1.385 1_565 S
C437 C438 1.389 . S
C438 C437 1.389 . S
C438 C439 1.387 1_565 S
C439 H424 0.930 . S
C439 C434 1.390 . S
C439 C438 1.387 1_545 S
C129 C107 1.853 . S
C141 C54 1.928 . S
C156 C106 1.956 . S
C168 C55 1.786 . S
C183 C52 1.927 . S
C195 C114 1.853 . S
C210 C115 1.920 . S
C222 C53 1.853 . S
C237 C49 1.925 . S
C249 C109 1.830 . S
C264 C48 1.786 . S
C276 C108 1.956 . S
C291 C50 1.110 . S
C303 C51 1.125 . S
C318 C112 1.102 . S
C330 C113 1.134 . S
C345 C46 1.137 1_565 S
C357 C47 1.113 . S
C372 C111 1.136 . S
C384 C110 1.115 . S
C399 C56 1.111 . S
C411 C57 1.124 . S
C426 C104 1.124 . S
C438 C105 1.127 . S
