# Generated by pormake.
# Topology can, (4)-cn, num edge types: 1
# Building blocks:
#     Node 0, Type 0, BuildingBlock: TATPOV_clean_sbu_0, # of connection points: 4
#     Node 1, Type 0, BuildingBlock: TATPOV_clean_sbu_0, # of connection points: 4
#     Node 2, Type 0, BuildingBlock: TATPOV_clean_sbu_0, # of connection points: 4
#     Node 3, Type 0, BuildingBlock: TATPOV_clean_sbu_0, # of connection points: 4
#     Node 4, Type 0, BuildingBlock: TATPOV_clean_sbu_0, # of connection points: 4
#     Node 5, Type 0, BuildingBlock: TATPOV_clean_sbu_0, # of connection points: 4
#     Node 6, Type 0, BuildingBlock: TATPOV_clean_sbu_0, # of connection points: 4
#     Node 7, Type 0, BuildingBlock: TATPOV_clean_sbu_0, # of connection points: 4
#     Node 8, Type 0, BuildingBlock: TATPOV_clean_sbu_0, # of connection points: 4
#     Node 9, Type 0, BuildingBlock: TATPOV_clean_sbu_0, # of connection points: 4
#     Node 10, Type 0, BuildingBlock: TATPOV_clean_sbu_0, # of connection points: 4
#     Node 11, Type 0, BuildingBlock: TATPOV_clean_sbu_0, # of connection points: 4
#     Edge 12, Type (0, 0), BuildingBlock: KIFKEQ_clean_linker_1, # of connection points: 2
#     Edge 13, Type (0, 0), BuildingBlock: KIFKEQ_clean_linker_1, # of connection points: 2
#     Edge 14, Type (0, 0), BuildingBlock: KIFKEQ_clean_linker_1, # of connection points: 2
#     Edge 15, Type (0, 0), BuildingBlock: KIFKEQ_clean_linker_1, # of connection points: 2
#     Edge 16, Type (0, 0), BuildingBlock: KIFKEQ_clean_linker_1, # of connection points: 2
#     Edge 17, Type (0, 0), BuildingBlock: KIFKEQ_clean_linker_1, # of connection points: 2
#     Edge 18, Type (0, 0), BuildingBlock: KIFKEQ_clean_linker_1, # of connection points: 2
#     Edge 19, Type (0, 0), BuildingBlock: KIFKEQ_clean_linker_1, # of connection points: 2
#     Edge 20, Type (0, 0), BuildingBlock: KIFKEQ_clean_linker_1, # of connection points: 2
#     Edge 21, Type (0, 0), BuildingBlock: KIFKEQ_clean_linker_1, # of connection points: 2
#     Edge 22, Type (0, 0), BuildingBlock: KIFKEQ_clean_linker_1, # of connection points: 2
#     Edge 23, Type (0, 0), BuildingBlock: KIFKEQ_clean_linker_1, # of connection points: 2
#     Edge 24, Type (0, 0), BuildingBlock: KIFKEQ_clean_linker_1, # of connection points: 2
#     Edge 25, Type (0, 0), BuildingBlock: KIFKEQ_clean_linker_1, # of connection points: 2
#     Edge 26, Type (0, 0), BuildingBlock: KIFKEQ_clean_linker_1, # of connection points: 2
#     Edge 27, Type (0, 0), BuildingBlock: KIFKEQ_clean_linker_1, # of connection points: 2
#     Edge 28, Type (0, 0), BuildingBlock: KIFKEQ_clean_linker_1, # of connection points: 2
#     Edge 29, Type (0, 0), BuildingBlock: KIFKEQ_clean_linker_1, # of connection points: 2
#     Edge 30, Type (0, 0), BuildingBlock: KIFKEQ_clean_linker_1, # of connection points: 2
#     Edge 31, Type (0, 0), BuildingBlock: KIFKEQ_clean_linker_1, # of connection points: 2
#     Edge 32, Type (0, 0), BuildingBlock: KIFKEQ_clean_linker_1, # of connection points: 2
#     Edge 33, Type (0, 0), BuildingBlock: KIFKEQ_clean_linker_1, # of connection points: 2
#     Edge 34, Type (0, 0), BuildingBlock: KIFKEQ_clean_linker_1, # of connection points: 2
#     Edge 35, Type (0, 0), BuildingBlock: KIFKEQ_clean_linker_1, # of connection points: 2
# Relax obj value: 0.056
# Max RMSD: 0.072
# Mean RMSD: 0.072
data_MOF--net-can--node1-TATPOV_clean_sbu_0--edge1-KIFKEQ_clean_linker_1
_symmetry_space_group_name_H-M    P1
_symmetry_Int_Tables_number       1
_symmetry_cell_setting            triclinic
loop_
_symmetry_equiv_pos_as_xyz
'x, y, z'
_cell_length_a     57.666302
_cell_length_b     57.555629
_cell_length_c     28.024341
_cell_angle_alpha  89.686302
_cell_angle_beta   90.653718
_cell_angle_gamma 119.94131
loop_
_atom_site_label
_atom_site_type_symbol
_atom_site_fract_x
_atom_site_fract_y
_atom_site_fract_z
_atom_type_partial_charge
Zn0 Zn 0.03481 0.40004 0.22348 0.0
Zn1 Zn 0.08571 0.41055 0.22769 0.0
O2 O 0.06959 0.3907 0.29128 0.0
O3 O 0.02792 0.38247 0.28759 0.0
O4 O 0.12317 0.4156 0.22551 0.0
O5 O 0.02624 0.3768 0.1662 0.0
O6 O 0.06905 0.38912 0.1651 0.0
C7 C 0.04636 0.38083 0.30944 0.0
C8 C 0.07457 0.45692 0.22037 0.0
O9 O 0.09133 0.44887 0.227 0.0
O10 O 0.0498 0.44018 0.21602 0.0
C11 C 0.13761 0.41761 0.26167 0.0
O12 O 0.12849 0.41709 0.30463 0.0
C13 C 0.04565 0.37642 0.14655 0.0
Zn14 Zn 0.64385 0.02629 0.72376 0.0
Zn15 Zn 0.6874 0.07521 0.72242 0.0
O16 O 0.69068 0.06008 0.78774 0.0
O17 O 0.6554 0.01937 0.78739 0.0
O18 O 0.72153 0.11113 0.71675 0.0
O19 O 0.65453 0.01458 0.66573 0.0
O20 O 0.68949 0.05522 0.66234 0.0
C21 C 0.67643 0.03733 0.80761 0.0
C22 C 0.63171 0.06934 0.71751 0.0
O23 O 0.65702 0.08446 0.72072 0.0
O24 O 0.62132 0.04408 0.71707 0.0
C25 C 0.72934 0.13001 0.74707 0.0
O26 O 0.71471 0.12651 0.78493 0.0
C27 C 0.67562 0.03164 0.64506 0.0
Zn28 Zn 0.63189 0.63651 0.20908 0.0
Zn29 Zn 0.62869 0.68059 0.21581 0.0
O30 O 0.64723 0.68066 0.27971 0.0
O31 O 0.64643 0.64206 0.27568 0.0
O32 O 0.62795 0.71547 0.21497 0.0
O33 O 0.6578 0.65068 0.15561 0.0
O34 O 0.6504 0.68469 0.15455 0.0
C35 C 0.6522 0.66328 0.29829 0.0
C36 C 0.57778 0.62614 0.20302 0.0
O37 O 0.58875 0.65099 0.21332 0.0
O38 O 0.59203 0.61541 0.19625 0.0
C39 C 0.61483 0.72158 0.2435 0.0
O40 O 0.60076 0.70462 0.27732 0.0
C41 C 0.66141 0.67223 0.13687 0.0
Zn42 Zn 1.00674 0.62461 0.71648 0.0
Zn43 Zn 0.95886 0.62054 0.71918 0.0
O44 O 0.9761 0.63946 0.78313 0.0
O45 O 1.01501 0.64095 0.78157 0.0
O46 O 0.92295 0.61912 0.71641 0.0
O47 O 1.018 0.64873 0.66029 0.0
O48 O 0.9773 0.64293 0.65854 0.0
C49 C 0.99865 0.64591 0.80258 0.0
C50 C 0.96418 0.57014 0.71099 0.0
O51 O 0.94954 0.58065 0.71764 0.0
O52 O 0.98928 0.58474 0.7072 0.0
C53 C 0.90175 0.60162 0.73692 0.0
O54 O 0.90254 0.58295 0.76291 0.0
C55 C 1.00067 0.65308 0.64079 0.0
Zn56 Zn 0.39589 1.00131 0.20762 0.0
Zn57 Zn 0.35113 0.95451 0.21093 0.0
O58 O 0.35038 0.97204 0.27489 0.0
O59 O 0.3887 1.01008 0.27273 0.0
O60 O 0.31604 0.9192 0.20822 0.0
O61 O 0.38393 0.01378 0.15142 0.0
O62 O 0.34808 0.9737 0.14991 0.0
C63 C 0.36724 0.99433 0.29407 0.0
C64 C 0.40555 0.95723 0.20254 0.0
O65 O 0.3804 0.94344 0.20963 0.0
O66 O 0.41691 0.98244 0.19824 0.0
C67 C 0.3089 0.90044 0.23869 0.0
O68 O 0.32483 0.9037 0.27506 0.0
C69 C 0.36202 0.99707 0.13195 0.0
Zn70 Zn 0.39215 0.37918 0.73851 0.0
Zn71 Zn 0.40676 0.34292 0.74054 0.0
O72 O 0.38636 0.3379 0.80406 0.0
O73 O 0.37346 0.36795 0.80033 0.0
O74 O 0.41341 0.31147 0.74129 0.0
O75 O 0.371 0.36557 0.6789 0.0
O76 O 0.38503 0.33639 0.67736 0.0
C77 C 0.3742 0.34911 0.82229 0.0
C78 C 0.44979 0.40194 0.73725 0.0
O79 O 0.44426 0.37753 0.73958 0.0
O80 O 0.43103 0.40737 0.73605 0.0
C81 C 0.42699 0.30801 0.70952 0.0
O82 O 0.43843 0.3262 0.67602 0.0
C83 C 0.37181 0.3465 0.65842 0.0
Zn84 Zn 0.62746 0.99759 0.22783 0.0
Zn85 Zn 0.62128 0.94821 0.2283 0.0
O86 O 0.64049 0.96411 0.1644 0.0
O87 O 0.6463 1.00502 0.16521 0.0
O88 O 0.61861 0.91172 0.23334 0.0
O89 O 0.64948 1.00813 0.28705 0.0
O90 O 0.64313 0.96714 0.28973 0.0
C91 C 0.64935 0.98711 0.14513 0.0
C92 C 0.57209 0.95533 0.2306 0.0
O93 O 0.58192 0.93986 0.22765 0.0
O94 O 0.58727 0.98053 0.23229 0.0
C95 C 0.61486 0.8964 0.19802 0.0
O96 O 0.61209 0.90402 0.15508 0.0
C97 C 0.65309 0.99059 0.30767 0.0
Zn98 Zn 0.64966 0.62934 0.73329 0.0
Zn99 Zn 0.68518 0.61363 0.72685 0.0
O100 O 0.68767 0.63276 0.66201 0.0
O101 O 0.6559 0.6432 0.66693 0.0
O102 O 0.71576 0.60544 0.72681 0.0
O103 O 0.6686 0.65494 0.78626 0.0
O104 O 0.69442 0.6369 0.78826 0.0
C105 C 0.67439 0.64295 0.64357 0.0
C106 C 0.62689 0.5718 0.74332 0.0
O107 O 0.6504 0.57669 0.73298 0.0
O108 O 0.62208 0.59091 0.74741 0.0
C109 C 0.73086 0.60877 0.69156 0.0
O110 O 0.7261 0.61679 0.65052 0.0
C111 C 0.68725 0.65273 0.80578 0.0
Zn112 Zn 0.03268 0.63921 0.23162 0.0
Zn113 Zn 0.08079 0.68265 0.22883 0.0
O114 O 0.06386 0.68472 0.16451 0.0
O115 O 0.02476 0.64753 0.16621 0.0
O116 O 0.11715 0.71661 0.232 0.0
O117 O 0.02148 0.65219 0.28729 0.0
O118 O 0.06241 0.6867 0.28918 0.0
C119 C 0.04131 0.6688 0.145 0.0
C120 C 0.07474 0.62661 0.23802 0.0
O121 O 0.0896 0.65173 0.23096 0.0
O122 O 0.04967 0.61636 0.24179 0.0
C123 C 0.13248 0.72741 0.19657 0.0
O124 O 0.12491 0.71615 0.15433 0.0
C125 C 0.03898 0.6737 0.30676 0.0
Zn126 Zn 0.41056 0.03066 0.72388 0.0
Zn127 Zn 0.41561 0.07892 0.71915 0.0
O128 O 0.39682 0.06179 0.65485 0.0
O129 O 0.39485 0.0226 0.65804 0.0
O130 O 0.41874 0.11567 0.72048 0.0
O131 O 0.38601 0.01974 0.7789 0.0
O132 O 0.39289 0.06092 0.77964 0.0
C133 C 0.39028 0.03916 0.63599 0.0
C134 C 0.46517 0.07244 0.73097 0.0
O135 O 0.45511 0.0874 0.72258 0.0
O136 O 0.45021 0.04735 0.73533 0.0
C137 C 0.42323 0.1306 0.6841 0.0
O138 O 0.42609 0.12216 0.6423 0.0
C139 C 0.38216 0.03742 0.79768 0.0
Zn140 Zn 0.40169 0.40848 0.24406 0.0
Zn141 Zn 0.35605 0.40958 0.24162 0.0
O142 O 0.35328 0.38902 0.17983 0.0
O143 O 0.39197 0.38999 0.18058 0.0
O144 O 0.32097 0.40972 0.24503 0.0
O145 O 0.39147 0.38617 0.30268 0.0
O146 O 0.35462 0.38865 0.30307 0.0
C147 C 0.36963 0.38308 0.16069 0.0
C148 C 0.41062 0.46193 0.24438 0.0
O149 O 0.38524 0.45001 0.23928 0.0
O150 O 0.42252 0.4486 0.24919 0.0
C151 C 0.31476 0.42366 0.21801 0.0
O152 O 0.33165 0.43882 0.18506 0.0
C153 C 0.36951 0.38044 0.32181 0.0
Zn154 Zn 1.00845 0.38721 0.7323 0.0
Zn155 Zn 0.95803 0.34589 0.72972 0.0
O156 O 0.97382 0.34219 0.66602 0.0
O157 O 1.01516 0.37631 0.66853 0.0
O158 O 0.92105 0.31294 0.73336 0.0
O159 O 1.01805 0.37345 0.79006 0.0
O160 O 0.9756 0.34199 0.79218 0.0
C161 C 0.99688 0.3559 0.64737 0.0
C162 C 0.96762 0.40287 0.73503 0.0
O163 O 0.95133 0.37789 0.72942 0.0
O164 O 0.99254 0.41157 0.73892 0.0
C165 C 0.90487 0.30241 0.69841 0.0
O166 O 0.91184 0.31341 0.65596 0.0
C167 C 0.99913 0.35339 0.81032 0.0
H168 H 0.07965 0.39307 0.07145 0.0
H169 H 1.00122 0.3315 0.11534 0.0
H170 H 0.06789 0.37921 -0.01109 0.0
H171 H 0.98979 0.31617 0.03308 0.0
H172 H 0.96534 0.3345 0.88567 0.0
H173 H 0.97757 0.3325 0.96811 0.0
H174 H 0.05675 0.35138 0.92359 0.0
H175 H 0.04477 0.35514 0.84143 0.0
C176 C 0.06025 0.37583 0.06352 0.0
C177 C 0.04119 0.36363 0.09943 0.0
C178 C 0.05344 0.3677 0.01608 0.0
C179 C 0.02757 0.34681 0.00383 0.0
C180 C 1.00955 0.33288 0.04078 0.0
C181 C 1.01615 0.34146 0.088 0.0
C182 C 0.98511 0.33755 0.8935 0.0
C183 C 1.00425 0.34542 0.85751 0.0
C184 C 0.9922 0.33629 0.94088 0.0
C185 C 1.01844 0.34231 0.95301 0.0
C186 C 0.03667 0.34748 0.91599 0.0
C187 C 0.02976 0.34941 0.86882 0.0
H188 H 0.65957 0.95706 0.36986 0.0
H189 H 0.67807 0.03917 0.35168 0.0
H190 H 0.67523 0.96683 0.45262 0.0
H191 H 0.69247 0.04856 0.43395 0.0
H192 H 0.71551 0.06409 0.58307 0.0
H193 H 0.72009 0.05379 0.50046 0.0
H194 H 0.65437 0.97298 0.51948 0.0
H195 H 0.65065 0.98285 0.60168 0.0
C196 C 0.66737 0.97726 0.38322 0.0
C197 C 0.66694 0.99714 0.35457 0.0
C198 C 0.67625 0.98286 0.43069 0.0
C199 C 0.68466 1.00836 0.45036 0.0
C200 C 0.68636 0.02874 0.42027 0.0
C201 C 0.67771 0.02323 0.37297 0.0
C202 C 0.70256 0.04395 0.56984 0.0
C203 C 0.68227 0.02451 0.59855 0.0
C204 C 0.70509 0.03805 0.52245 0.0
C205 C 0.68723 1.0127 0.50288 0.0
C206 C 0.66861 0.99266 0.53308 0.0
C207 C 0.66624 0.99847 0.58033 0.0
H208 H 0.65158 0.69596 0.06122 0.0
H209 H 0.70416 0.66761 0.1109 0.0
H210 H 0.66815 0.69949 -0.01924 0.0
H211 H 0.7223 0.67283 0.03097 0.0
H212 H 0.70258 0.63329 0.88083 0.0
H213 H 0.70552 0.64681 0.96343 0.0
H214 H 0.69844 0.7152 0.91914 0.0
H215 H 0.69369 0.70036 0.83654 0.0
C216 C 0.6675 0.69153 0.05515 0.0
C217 C 0.67623 0.68102 0.09183 0.0
C218 C 0.67721 0.69368 0.00894 0.0
C219 C 0.69628 0.68589 -0.00119 0.0
C220 C 0.70702 0.67816 0.03694 0.0
C221 C 0.6968 0.67536 0.08284 0.0
C222 C 0.70248 0.65165 0.88871 0.0
C223 C 0.69738 0.66548 0.8526 0.0
C224 C 0.70427 0.65957 0.93625 0.0
C225 C 0.70152 0.68183 0.94842 0.0
C226 C 0.69968 0.69745 0.9114 0.0
C227 C 0.69724 0.68913 0.864 0.0
H228 H 0.07262 0.71447 0.36722 0.0
H229 H 0.9905 0.65119 0.34973 0.0
H230 H 0.06331 0.72084 0.44944 0.0
H231 H 0.98157 0.65659 0.43153 0.0
H232 H 0.96744 0.66146 0.58085 0.0
H233 H 0.97691 0.67801 0.49888 0.0
H234 H 0.05809 0.69357 0.51578 0.0
H235 H 0.04903 0.67838 0.59734 0.0
C236 C 0.0525 0.70228 0.38058 0.0
C237 C 0.03253 0.6818 0.35245 0.0
C238 C 0.04716 0.70584 0.42774 0.0
C239 C 0.02186 0.6888 0.44763 0.0
C240 C 1.00127 0.67021 0.41775 0.0
C241 C 1.00653 0.66684 0.37072 0.0
C242 C 0.98748 0.66913 0.56732 0.0
C243 C 1.00725 0.66787 0.5951 0.0
C244 C 0.99291 0.67853 0.52031 0.0
C245 C 1.0181 0.68657 0.50021 0.0
C246 C 0.0385 0.68772 0.52975 0.0
C247 C 0.03316 0.67859 0.57663 0.0
H248 H 0.35491 0.98869 0.84055 0.0
H249 H 0.37602 0.07156 0.85783 0.0
H250 H 0.34029 0.9796 0.92221 0.0
H251 H 0.36006 0.06212 0.93991 0.0
H252 H 0.38642 0.0458 0.08857 0.0
H253 H 0.38116 0.05568 0.00677 0.0
H254 H 0.31425 0.97526 -0.01087 0.0
H255 H 0.32042 0.96494 0.07137 0.0
C256 C 0.35573 1.00487 0.86146 0.0
C257 C 0.36747 0.03108 0.84317 0.0
C258 C 0.34695 0.99954 0.90841 0.0
C259 C 0.34947 0.02024 0.93821 0.0
C260 C 0.35848 0.04585 0.91828 0.0
C261 C 0.36753 0.05126 0.87119 0.0
C262 C 0.37025 0.03028 0.06763 0.0
C263 C 0.35438 1.0043 0.08603 0.0
C264 C 0.36697 0.0361 0.0206 0.0
C265 C 0.34758 0.01613 -0.00919 0.0
C266 C 0.32983 0.99093 0.01076 0.0
C267 C 0.33328 0.98501 0.05793 0.0
H268 H 0.32327 0.36225 0.3731 0.0
H269 H 0.39907 0.36397 0.3728 0.0
H270 H 0.3142 0.34198 0.45244 0.0
H271 H 0.39069 0.34504 0.45195 0.0
H272 H 0.37748 0.31373 0.59436 0.0
H273 H 0.36798 0.31106 0.50882 0.0
H274 H 0.33192 0.36065 0.52757 0.0
H275 H 0.34014 0.36213 0.61239 0.0
C276 C 0.33786 0.35809 0.38973 0.0
C277 C 0.36214 0.36527 0.36711 0.0
C278 C 0.33269 0.34648 0.43518 0.0
C279 C 0.35183 0.34213 0.459 0.0
C280 C 0.37525 0.34768 0.43477 0.0
C281 C 0.38027 0.35898 0.38938 0.0
C282 C 0.36672 0.32327 0.58029 0.0
C283 C 0.36031 0.33883 0.60984 0.0
C284 C 0.36143 0.32191 0.53124 0.0
C285 C 0.34991 0.33631 0.511 0.0
C286 C 0.34082 0.34929 0.54156 0.0
C287 C 0.34585 0.35041 0.59042 0.0
H288 H 0.04673 0.66615 0.84818 0.0
H289 H 0.96672 0.65307 0.86606 0.0
H290 H 0.05696 0.67935 0.93096 0.0
H291 H 0.97732 0.66719 0.9494 0.0
H292 H 0.99294 0.64227 0.10014 0.0
H293 H 0.98302 0.64451 0.01674 0.0
H294 H 0.06392 0.70932 -0.00416 0.0
H295 H 0.07418 0.7065 0.07988 0.0
C296 C 0.03144 0.6666 0.86958 0.0
C297 C 1.00569 0.65796 0.85079 0.0
C298 C 0.03746 0.67454 0.91708 0.0
C299 C 1.01791 0.67413 0.94703 0.0
C300 C 0.9927 0.66733 0.92738 0.0
C301 C 0.98664 0.6593 0.87965 0.0
C302 C 1.00859 0.6573 0.07804 0.0
C303 C 0.03455 0.6738 0.0964 0.0
C304 C 1.00275 0.65881 0.03017 0.0
C305 C 0.02273 0.67691 -0.0006 0.0
C306 C 0.0482 0.69484 0.01852 0.0
C307 C 0.05407 0.69331 0.06665 0.0
H308 H 0.39603 0.04269 0.33783 0.0
H309 H 0.32895 0.96299 0.35944 0.0
H310 H 0.3943 0.05353 0.42052 0.0
H311 H 0.32673 0.9742 0.44274 0.0
H312 H 0.38557 0.07189 0.5694 0.0
H313 H 0.3721 0.06119 0.48566 0.0
H314 H 0.3559 0.98019 0.50936 0.0
H315 H 0.36851 0.99056 0.59246 0.0
C316 C 0.38052 0.02759 0.36006 0.0
C317 C 0.36297 1.00176 0.34229 0.0
C318 C 0.37933 0.03397 0.4075 0.0
C319 C 0.36052 0.01468 0.43846 0.0
C320 C 0.34172 0.98938 0.41991 0.0
C321 C 0.34292 0.98297 0.3722 0.0
C322 C 0.37858 0.05168 0.55684 0.0
C323 C 0.37861 0.03224 0.58733 0.0
C324 C 0.37095 0.04556 0.50888 0.0
C325 C 0.36318 0.0199 0.49066 0.0
C326 C 0.36149 1.00005 0.52211 0.0
C327 C 0.36908 1.00614 0.5698 0.0
H328 H 0.34361 0.36621 0.86612 0.0
H329 H 0.38064 0.31769 0.88933 0.0
H330 H 0.33564 0.36567 0.95064 0.0
H331 H 0.37156 0.31616 -0.02543 0.0
H332 H 0.40094 0.36879 0.11144 0.0
H333 H 0.39401 0.35091 0.03155 0.0
H334 H 0.31672 0.346 0.02505 0.0
H335 H 0.3242 0.36505 0.10526 0.0
C336 C 0.34938 0.35474 0.88917 0.0
C337 C 0.36351 0.34267 0.87122 0.0
C338 C 0.3445 0.35417 0.93782 0.0
C339 C 0.35346 0.34135 0.96968 0.0
C340 C 0.36502 0.32681 0.95106 0.0
C341 C 0.37008 0.32753 0.9022 0.0
C342 C 0.38228 0.36365 0.09335 0.0
C343 C 0.36337 0.36893 0.11436 0.0
C344 C 0.37812 0.35297 0.04755 0.0
C345 C 0.35485 0.3471 0.02158 0.0
C346 C 0.33507 0.3507 0.04381 0.0
C347 C 0.33933 0.3616 0.08974 0.0
H348 H 0.04286 0.35925 0.61672 0.0
H349 H 0.96359 0.33947 0.56995 0.0
H350 H 0.05523 0.3574 0.53464 0.0
H351 H 0.97625 0.33954 0.48747 0.0
H352 H 1.00046 0.33804 0.34049 0.0
H353 H 0.98811 0.32372 0.42272 0.0
H354 H 0.06692 0.38515 0.46955 0.0
H355 H 0.07957 0.39785 0.38697 0.0
C356 C 0.028 0.3542 0.58868 0.0
C357 C 1.00236 0.34968 0.59937 0.0
C358 C 0.03514 0.35343 0.54154 0.0
C359 C 1.01704 0.34895 0.50387 0.0
C360 C 0.99078 0.34277 0.51518 0.0
C361 C 0.98343 0.34282 0.56254 0.0
C362 C 1.01528 0.34791 0.3685 0.0
C363 C 0.04088 0.36915 0.35767 0.0
C364 C 1.00815 0.33993 0.41571 0.0
C365 C 0.02621 0.35359 0.45332 0.0
C366 C 0.05243 0.37382 0.4419 0.0
C367 C 0.05976 0.38128 0.39448 0.0
H368 H 0.67367 0.99154 0.8396 0.0
H369 H 0.69246 0.07066 0.88429 0.0
H370 H 0.67538 0.97913 0.92223 0.0
H371 H 0.69213 0.05794 0.96724 0.0
H372 H 0.69196 0.03351 0.1153 0.0
H373 H 0.70724 0.04618 0.03366 0.0
H374 H 0.64733 0.96693 -0.01402 0.0
H375 H 0.63379 0.95398 0.06812 0.0
C376 C 0.6785 1.00636 0.86733 0.0
C377 C 0.68279 0.03196 0.85592 0.0
C378 C 0.67917 0.9992 0.91477 0.0
C379 C 0.68323 0.01721 0.95198 0.0
C380 C 0.68922 0.04347 0.93996 0.0
C381 C 0.68932 0.05086 0.89232 0.0
C382 C 0.68266 0.01868 0.08727 0.0
C383 C 0.66162 0.99286 0.09767 0.0
C384 C 0.69118 0.02598 0.04037 0.0
C385 C 0.6782 1.00789 0.0026 0.0
C386 C 0.65817 0.98147 0.01375 0.0
C387 C 0.65021 0.97396 0.06091 0.0
H388 H 0.66683 0.63079 0.34434 0.0
H389 H 0.66307 0.70334 0.36297 0.0
H390 H 0.67921 0.6321 0.4274 0.0
H391 H 0.67647 0.70517 0.44658 0.0
H392 H 0.70776 0.64074 0.57654 0.0
H393 H 0.71018 0.65245 0.49202 0.0
H394 H 0.65309 0.67911 0.51443 0.0
H395 H 0.65139 0.66838 0.59827 0.0
C396 C 0.66914 0.64736 0.36598 0.0
C397 C 0.66343 0.6667 0.34719 0.0
C398 C 0.67659 0.64828 0.41369 0.0
C399 C 0.67868 0.66862 0.4439 0.0
C400 C 0.67462 0.68896 0.42441 0.0
C401 C 0.66703 0.68799 0.37649 0.0
C402 C 0.69617 0.64959 0.56349 0.0
C403 C 0.67904 0.65317 0.59398 0.0
C404 C 0.69746 0.65621 0.51506 0.0
C405 C 0.6816 0.66646 0.49626 0.0
C406 C 0.66582 0.67156 0.52754 0.0
C407 C 0.66461 0.66506 0.57573 0.0
H408 H 0.1036 0.61959 0.16921 0.0
H409 H 0.06897 0.59167 0.30797 0.0
H410 H 0.11126 0.58134 0.16258 0.0
H411 H 0.07762 0.55423 0.30226 0.0
H412 H 0.11141 0.49665 0.27817 0.0
H413 H 0.11999 0.54297 0.28374 0.0
H414 H 0.06629 0.52822 0.16472 0.0
H415 H 0.05688 0.48188 0.16042 0.0
C416 C 0.09875 0.60594 0.19906 0.0
C417 C 0.08585 0.60849 0.23919 0.0
C418 C 0.10302 0.5841 0.19521 0.0
C419 C 0.09514 0.56505 0.23206 0.0
C420 C 0.08419 0.56887 0.27372 0.0
C421 C 0.07922 0.5902 0.27695 0.0
C422 C 0.10195 0.50358 0.25264 0.0
C423 C 0.08342 0.48579 0.21899 0.0
C424 C 0.10683 0.52996 0.25585 0.0
C425 C 0.09394 0.53907 0.22438 0.0
C426 C 0.07672 0.52173 0.18894 0.0
C427 C 0.07123 0.49523 0.18667 0.0
H428 H 0.49308 0.06381 0.80002 0.0
H429 H 0.50232 0.10436 0.66573 0.0
H430 H 0.53926 0.07306 0.79576 0.0
H431 H 0.54842 0.11272 0.66046 0.0
H432 H 0.59366 0.05907 0.65084 0.0
H433 H 0.55786 0.07004 0.65474 0.0
H434 H 0.59195 0.11379 0.78546 0.0
H435 H 0.62858 0.10365 0.78039 0.0
C436 C 0.50533 0.07541 0.77031 0.0
C437 C 0.49433 0.08348 0.73328 0.0
C438 C 0.53173 0.08077 0.76795 0.0
C439 C 0.54732 0.09363 0.72784 0.0
C440 C 0.5368 0.10297 0.69191 0.0
C441 C 0.51055 0.09827 0.69497 0.0
C442 C 0.59398 0.07183 0.67943 0.0
C443 C 0.61379 0.08064 0.71521 0.0
C444 C 0.57362 0.0782 0.68157 0.0
C445 C 0.57227 0.09283 0.7203 0.0
C446 C 0.59276 0.10269 0.75505 0.0
C447 C 0.61365 0.09695 0.75212 0.0
H448 H 0.54192 0.62714 0.26461 0.0
H449 H 0.54783 0.58528 0.14224 0.0
H450 H 0.49518 0.59164 0.27513 0.0
H451 H 0.50113 0.55048 0.15172 0.0
H452 H 0.4136 0.49424 0.17071 0.0
H453 H 0.45033 0.54018 0.15689 0.0
H454 H 0.48216 0.54095 0.29737 0.0
H455 H 0.44615 0.49494 0.31031 0.0
C456 C 0.53291 0.61091 0.23895 0.0
C457 C 0.54841 0.60878 0.20278 0.0
C458 C 0.50626 0.59064 0.24503 0.0
C459 C 0.49459 0.56841 0.21415 0.0
C460 C 0.50952 0.56754 0.17566 0.0
C461 C 0.53626 0.58735 0.17039 0.0
C462 C 0.42789 0.50471 0.19919 0.0
C463 C 0.42714 0.49129 0.24161 0.0
C464 C 0.44891 0.53085 0.19124 0.0
C465 C 0.46901 0.54405 0.22612 0.0
C466 C 0.46676 0.53138 0.27016 0.0
C467 C 0.44622 0.50508 0.27756 0.0
H468 H 0.93627 0.53489 0.78158 0.0
H469 H 0.96865 0.54036 0.64137 0.0
H470 H 0.92909 0.48921 0.79001 0.0
H471 H 0.96048 0.49447 0.64891 0.0
H472 H 0.92978 0.4042 0.67722 0.0
H473 H 0.91993 0.44108 0.6702 0.0
H474 H 0.97396 0.48181 0.78772 0.0
H475 H 0.98461 0.44574 0.79342 0.0
C476 C 0.94066 0.52583 0.75181 0.0
C477 C 0.95284 0.5409 0.71075 0.0
C478 C 0.93667 0.49984 0.75669 0.0
C479 C 0.94414 0.48842 0.71999 0.0
C480 C 0.95424 0.50273 0.67739 0.0
C481 C 0.95892 0.52892 0.67309 0.0
C482 C 0.93904 0.42078 0.70213 0.0
C483 C 0.95802 0.42229 0.73572 0.0
C484 C 0.93342 0.44178 0.6981 0.0
C485 C 0.94605 0.46406 0.72871 0.0
C486 C 0.96372 0.46466 0.76417 0.0
C487 C 0.96992 0.44416 0.76723 0.0
H488 H 0.40933 0.92539 0.27081 0.0
H489 H 0.44098 0.96273 0.13497 0.0
H490 H 0.44604 0.91554 0.27988 0.0
H491 H 0.47689 0.95204 0.14306 0.0
H492 H 0.53479 0.92088 0.16678 0.0
H493 H 0.48838 0.91156 0.15818 0.0
H494 H 0.49794 0.95673 0.2865 0.0
H495 H 0.54434 0.96686 0.2939 0.0
C496 C 0.42344 0.93038 0.24203 0.0
C497 C 0.42244 0.94474 0.20217 0.0
C498 C 0.44442 0.92485 0.24727 0.0
C499 C 0.46417 0.93298 0.21207 0.0
C500 C 0.46174 0.94526 0.17038 0.0
C501 C 0.44127 0.95143 0.1658 0.0
C502 C 0.5266 0.92808 0.19378 0.0
C503 C 0.54296 0.94456 0.23097 0.0
C504 C 0.50018 0.92281 0.18884 0.0
C505 C 0.48962 0.93331 0.22187 0.0
C506 C 0.50547 0.94809 0.26097 0.0
C507 C 0.53201 0.95399 0.26509 0.0
H508 H 0.61977 0.525 0.70281 0.0
H509 H 0.58301 0.55604 0.79724 0.0
H510 H 0.57825 0.48115 0.70258 0.0
H511 H 0.54229 0.5127 0.79766 0.0
H512 H 0.46595 0.45445 0.72333 0.0
H513 H 0.51063 0.4926 0.7281 0.0
H514 H 0.54274 0.44018 0.75511 0.0
H515 H 0.49717 0.40108 0.75008 0.0
C516 C 0.60312 0.52228 0.72436 0.0
C517 C 0.60441 0.54406 0.74927 0.0
C518 C 0.57943 0.49722 0.72429 0.0
C519 C 0.55688 0.49372 0.7493 0.0
C520 C 0.55912 0.51497 0.77715 0.0
C521 C 0.58248 0.53981 0.77693 0.0
C522 C 0.48236 0.45076 0.73024 0.0
C523 C 0.47781 0.42459 0.737 0.0
C524 C 0.50806 0.47277 0.73314 0.0
C525 C 0.53013 0.46944 0.74294 0.0
C526 C 0.52601 0.44329 0.74775 0.0
C527 C 0.49998 0.42099 0.74496 0.0
H528 H 0.17287 0.4205 0.33094 0.0
H529 H 0.16228 0.41895 0.17788 0.0
H530 H 0.2158 0.42259 0.3204 0.0
H531 H 0.20496 0.42057 0.16741 0.0
H532 H 0.29509 0.45072 0.16637 0.0
H533 H 0.2529 0.45014 0.17727 0.0
H534 H 0.2335 0.39438 0.29411 0.0
H535 H 0.27586 0.3953 0.28379 0.0
C536 C 0.17967 0.4206 0.29503 0.0
C537 C 0.16407 0.41954 0.25528 0.0
C538 C 0.20423 0.42162 0.28899 0.0
C539 C 0.21384 0.42166 0.24304 0.0
C540 C 0.19835 0.42088 0.20329 0.0
C541 C 0.17377 0.41981 0.20933 0.0
C542 C 0.28184 0.43833 0.1944 0.0
C543 C 0.28892 0.42306 0.2242 0.0
C544 C 0.25756 0.4379 0.2005 0.0
C545 C 0.23977 0.42223 0.23661 0.0
C546 C 0.24687 0.40697 0.26638 0.0
C547 C 0.27111 0.40736 0.26023 0.0
H548 H 0.86591 0.27396 0.63149 0.0
H549 H 0.8845 0.27464 0.78146 0.0
H550 H 0.82322 0.2329 0.64312 0.0
H551 H 0.84208 0.23339 0.79286 0.0
H552 H 0.75237 0.17415 0.80529 0.0
H553 H 0.79411 0.21612 0.79321 0.0
H554 H 0.80582 0.18569 0.66052 0.0
H555 H 0.76388 0.14392 0.67214 0.0
C556 C 0.86093 0.26536 0.66693 0.0
C557 C 0.87868 0.27764 0.70551 0.0
C558 C 0.83649 0.24171 0.67355 0.0
C559 C 0.82918 0.22977 0.71893 0.0
C560 C 0.84687 0.24218 0.75755 0.0
C561 C 0.87131 0.26579 0.75093 0.0
C562 C 0.76381 0.17641 0.77349 0.0
C563 C 0.75473 0.15561 0.73972 0.0
C564 C 0.78784 0.20045 0.76668 0.0
C565 C 0.80338 0.20432 0.72589 0.0
C566 C 0.79421 0.18356 0.69203 0.0
C567 C 0.77021 0.15951 0.69887 0.0
H568 H 0.58998 0.74164 0.29893 0.0
H569 H 0.63989 0.75986 0.17475 0.0
H570 H 0.58946 0.78349 0.28811 0.0
H571 H 0.63967 0.8018 0.16441 0.0
H572 H 0.6095 0.86 0.13004 0.0
H573 H 0.60916 0.81782 0.14155 0.0
H574 H 0.61896 0.83206 0.29354 0.0
H575 H 0.6189 0.87409 0.28216 0.0
C576 C 0.60093 0.75459 0.26944 0.0
C577 C 0.61495 0.74732 0.23769 0.0
C578 C 0.60074 0.77867 0.26338 0.0
C579 C 0.61447 0.79601 0.22531 0.0
C580 C 0.62856 0.78876 0.1937 0.0
C581 C 0.62883 0.76476 0.19985 0.0
C582 C 0.61152 0.85414 0.16595 0.0
C583 C 0.61425 0.87049 0.20515 0.0
C584 C 0.61149 0.83 0.17252 0.0
C585 C 0.61412 0.82155 0.21847 0.0
C586 C 0.61661 0.8378 0.25772 0.0
C587 C 0.61672 0.86199 0.25114 0.0
H588 H 0.85263 0.56702 0.77462 0.0
H589 H 0.8932 0.63707 0.68482 0.0
H590 H 0.81076 0.5673 0.76297 0.0
H591 H 0.85152 0.63763 0.67395 0.0
H592 H 0.7677 0.61543 0.62427 0.0
H593 H 0.80825 0.6127 0.63507 0.0
H594 H 0.78925 0.59294 0.78373 0.0
H595 H 0.74838 0.59516 0.77274 0.0
C596 C 0.85267 0.58255 0.75256 0.0
C597 C 0.87632 0.60201 0.73063 0.0
C598 C 0.82866 0.58278 0.74606 0.0
C599 C 0.82769 0.60244 0.7174 0.0
C600 C 0.85139 0.62193 0.69563 0.0
C601 C 0.87538 0.62172 0.70216 0.0
C602 C 0.77205 0.61033 0.65922 0.0
C603 C 0.75476 0.60559 0.69765 0.0
C604 C 0.79544 0.60896 0.6655 0.0
C605 C 0.80218 0.60279 0.71036 0.0
C606 C 0.7846 0.59749 0.74858 0.0
C607 C 0.76119 0.59889 0.74231 0.0
H608 H 0.28717 0.85655 0.29752 0.0
H609 H 0.27196 0.88675 0.16641 0.0
H610 H 0.24493 0.8147 0.28724 0.0
H611 H 0.22956 0.84511 0.15659 0.0
H612 H 0.16946 0.75649 0.12828 0.0
H613 H 0.21205 0.79793 0.13863 0.0
H614 H 0.19685 0.79714 0.28937 0.0
H615 H 0.15448 0.75548 0.2792 0.0
C616 C 0.27479 0.85433 0.26659 0.0
C617 C 0.28302 0.87506 0.23279 0.0
C618 C 0.25048 0.83036 0.26082 0.0
C619 C 0.2338 0.82648 0.22106 0.0
C620 C 0.24205 0.84724 0.1873 0.0
C621 C 0.26632 0.87122 0.19311 0.0
C622 C 0.1752 0.76511 0.16366 0.0
C623 C 0.1585 0.7526 0.20289 0.0
C624 C 0.19957 0.78899 0.16955 0.0
C625 C 0.20791 0.80095 0.21484 0.0
C626 C 0.19124 0.78835 0.25409 0.0
C627 C 0.16684 0.76451 0.24819 0.0
H628 H 0.39948 0.26313 0.7647 0.0
H629 H 0.45721 0.29582 0.65124 0.0
H630 H 0.3993 0.22084 0.75902 0.0
H631 H 0.4577 0.25379 0.64654 0.0
H632 H 0.42843 0.16561 0.61293 0.0
H633 H 0.43028 0.20865 0.62043 0.0
H634 H 0.42468 0.19917 0.77368 0.0
H635 H 0.42201 0.15575 0.766 0.0
C636 C 0.4124 0.26142 0.73892 0.0
C637 C 0.42828 0.28288 0.7083 0.0
C638 C 0.4124 0.23716 0.73581 0.0
C639 C 0.42842 0.23375 0.70218 0.0
C640 C 0.44473 0.25545 0.67227 0.0
C641 C 0.44461 0.27967 0.6752 0.0
C642 C 0.42762 0.17271 0.64824 0.0
C643 C 0.42498 0.15714 0.68882 0.0
C644 C 0.42887 0.19753 0.6526 0.0
C645 C 0.42766 0.20752 0.6977 0.0
C646 C 0.42527 0.19201 0.73832 0.0
C647 C 0.42389 0.16713 0.73393 0.0
loop_
_geom_bond_atom_site_label_1
_geom_bond_atom_site_label_2
_geom_bond_distance
_geom_bond_site_symmetry_2
_ccdc_geom_bond_type
Zn0 O3 2.031 . S
Zn0 O5 2.049 . S
Zn0 O10 2.067 . S
Zn1 O2 1.962 . S
Zn1 O4 1.986 . S
Zn1 O6 1.996 . S
Zn1 O9 1.943 . S
O2 Zn1 1.962 . S
O2 C7 1.254 . S
O3 Zn0 2.031 . S
O3 C7 1.269 . S
O4 Zn1 1.986 . S
O4 C11 1.262 . S
O5 Zn0 2.049 . S
O5 C13 1.260 . S
O6 Zn1 1.996 . S
O6 C13 1.257 . S
C7 O2 1.254 . S
C7 O3 1.269 . S
C8 O9 1.249 . S
C8 O10 1.270 . S
O9 Zn1 1.943 . S
O9 C8 1.249 . S
O10 Zn0 2.067 . S
O10 C8 1.270 . S
C11 O4 1.262 . S
C11 O12 1.232 . S
O12 C11 1.232 . S
C13 O5 1.260 . S
C13 O6 1.257 . S
Zn14 O17 2.031 . S
Zn14 O19 2.049 . S
Zn14 O24 2.067 . S
Zn15 O16 1.962 . S
Zn15 O18 1.986 . S
Zn15 O20 1.996 . S
Zn15 O23 1.943 . S
O16 Zn15 1.962 . S
O16 C21 1.254 . S
O17 Zn14 2.031 . S
O17 C21 1.269 . S
O18 Zn15 1.986 . S
O18 C25 1.262 . S
O19 Zn14 2.049 . S
O19 C27 1.260 . S
O20 Zn15 1.996 . S
O20 C27 1.257 . S
C21 O16 1.254 . S
C21 O17 1.269 . S
C22 O23 1.249 . S
C22 O24 1.270 . S
O23 Zn15 1.943 . S
O23 C22 1.249 . S
O24 Zn14 2.067 . S
O24 C22 1.270 . S
C25 O18 1.262 . S
C25 O26 1.232 . S
O26 C25 1.232 . S
C27 O19 1.260 . S
C27 O20 1.257 . S
Zn28 O31 2.031 . S
Zn28 O33 2.049 . S
Zn28 O38 2.067 . S
Zn29 O30 1.962 . S
Zn29 O32 1.986 . S
Zn29 O34 1.996 . S
Zn29 O37 1.943 . S
O30 Zn29 1.962 . S
O30 C35 1.254 . S
O31 Zn28 2.031 . S
O31 C35 1.269 . S
O32 Zn29 1.986 . S
O32 C39 1.262 . S
O33 Zn28 2.049 . S
O33 C41 1.260 . S
O34 Zn29 1.996 . S
O34 C41 1.257 . S
C35 O30 1.254 . S
C35 O31 1.269 . S
C36 O37 1.249 . S
C36 O38 1.270 . S
O37 Zn29 1.943 . S
O37 C36 1.249 . S
O38 Zn28 2.067 . S
O38 C36 1.270 . S
C39 O32 1.262 . S
C39 O40 1.232 . S
O40 C39 1.232 . S
C41 O33 1.260 . S
C41 O34 1.257 . S
Zn42 O45 2.031 . S
Zn42 O47 2.049 . S
Zn42 O52 2.067 . S
Zn43 O44 1.962 . S
Zn43 O46 1.986 . S
Zn43 O48 1.996 . S
Zn43 O51 1.943 . S
O44 Zn43 1.962 . S
O44 C49 1.254 . S
O45 Zn42 2.031 . S
O45 C49 1.269 . S
O46 Zn43 1.986 . S
O46 C53 1.262 . S
O47 Zn42 2.049 . S
O47 C55 1.260 . S
O48 Zn43 1.996 . S
O48 C55 1.257 . S
C49 O44 1.254 . S
C49 O45 1.269 . S
C50 O51 1.249 . S
C50 O52 1.270 . S
O51 Zn43 1.943 . S
O51 C50 1.249 . S
O52 Zn42 2.067 . S
O52 C50 1.270 . S
C53 O46 1.262 . S
C53 O54 1.232 . S
O54 C53 1.232 . S
C55 O47 1.260 . S
C55 O48 1.257 . S
Zn56 O59 2.031 . S
Zn56 O61 2.049 . S
Zn56 O66 2.067 . S
Zn57 O58 1.962 . S
Zn57 O60 1.986 . S
Zn57 O62 1.996 . S
Zn57 O65 1.943 . S
O58 Zn57 1.962 . S
O58 C63 1.254 . S
O59 Zn56 2.031 . S
O59 C63 1.269 . S
O60 Zn57 1.986 . S
O60 C67 1.262 . S
O61 Zn56 2.049 . S
O61 C69 1.260 . S
O62 Zn57 1.996 . S
O62 C69 1.257 . S
C63 O58 1.254 . S
C63 O59 1.269 . S
C64 O65 1.249 . S
C64 O66 1.270 . S
O65 Zn57 1.943 . S
O65 C64 1.249 . S
O66 Zn56 2.067 . S
O66 C64 1.270 . S
C67 O60 1.262 . S
C67 O68 1.232 . S
O68 C67 1.232 . S
C69 O61 1.260 . S
C69 O62 1.257 . S
Zn70 O73 2.031 . S
Zn70 O75 2.049 . S
Zn70 O80 2.067 . S
Zn71 O72 1.962 . S
Zn71 O74 1.986 . S
Zn71 O76 1.996 . S
Zn71 O79 1.943 . S
O72 Zn71 1.962 . S
O72 C77 1.254 . S
O73 Zn70 2.031 . S
O73 C77 1.269 . S
O74 Zn71 1.986 . S
O74 C81 1.262 . S
O75 Zn70 2.049 . S
O75 C83 1.260 . S
O76 Zn71 1.996 . S
O76 C83 1.257 . S
C77 O72 1.254 . S
C77 O73 1.269 . S
C78 O79 1.249 . S
C78 O80 1.270 . S
O79 Zn71 1.943 . S
O79 C78 1.249 . S
O80 Zn70 2.067 . S
O80 C78 1.270 . S
C81 O74 1.262 . S
C81 O82 1.232 . S
O82 C81 1.232 . S
C83 O75 1.260 . S
C83 O76 1.257 . S
Zn84 O87 2.031 . S
Zn84 O89 2.049 . S
Zn84 O94 2.067 . S
Zn85 O86 1.962 . S
Zn85 O88 1.986 . S
Zn85 O90 1.996 . S
Zn85 O93 1.943 . S
O86 Zn85 1.962 . S
O86 C91 1.254 . S
O87 Zn84 2.031 . S
O87 C91 1.269 . S
O88 Zn85 1.986 . S
O88 C95 1.262 . S
O89 Zn84 2.049 . S
O89 C97 1.260 . S
O90 Zn85 1.996 . S
O90 C97 1.257 . S
C91 O86 1.254 . S
C91 O87 1.269 . S
C92 O93 1.249 . S
C92 O94 1.270 . S
O93 Zn85 1.943 . S
O93 C92 1.249 . S
O94 Zn84 2.067 . S
O94 C92 1.270 . S
C95 O88 1.262 . S
C95 O96 1.232 . S
O96 C95 1.232 . S
C97 O89 1.260 . S
C97 O90 1.257 . S
Zn98 O101 2.031 . S
Zn98 O103 2.049 . S
Zn98 O108 2.067 . S
Zn99 O100 1.962 . S
Zn99 O102 1.986 . S
Zn99 O104 1.996 . S
Zn99 O107 1.943 . S
O100 Zn99 1.962 . S
O100 C105 1.254 . S
O101 Zn98 2.031 . S
O101 C105 1.269 . S
O102 Zn99 1.986 . S
O102 C109 1.262 . S
O103 Zn98 2.049 . S
O103 C111 1.260 . S
O104 Zn99 1.996 . S
O104 C111 1.257 . S
C105 O100 1.254 . S
C105 O101 1.269 . S
C106 O107 1.249 . S
C106 O108 1.270 . S
O107 Zn99 1.943 . S
O107 C106 1.249 . S
O108 Zn98 2.067 . S
O108 C106 1.270 . S
C109 O102 1.262 . S
C109 O110 1.232 . S
O110 C109 1.232 . S
C111 O103 1.260 . S
C111 O104 1.257 . S
Zn112 O115 2.031 . S
Zn112 O117 2.049 . S
Zn112 O122 2.067 . S
Zn113 O114 1.962 . S
Zn113 O116 1.986 . S
Zn113 O118 1.996 . S
Zn113 O121 1.943 . S
O114 Zn113 1.962 . S
O114 C119 1.254 . S
O115 Zn112 2.031 . S
O115 C119 1.269 . S
O116 Zn113 1.986 . S
O116 C123 1.262 . S
O117 Zn112 2.049 . S
O117 C125 1.260 . S
O118 Zn113 1.996 . S
O118 C125 1.257 . S
C119 O114 1.254 . S
C119 O115 1.269 . S
C120 O121 1.249 . S
C120 O122 1.270 . S
O121 Zn113 1.943 . S
O121 C120 1.249 . S
O122 Zn112 2.067 . S
O122 C120 1.270 . S
C123 O116 1.262 . S
C123 O124 1.232 . S
O124 C123 1.232 . S
C125 O117 1.260 . S
C125 O118 1.257 . S
Zn126 O129 2.031 . S
Zn126 O131 2.049 . S
Zn126 O136 2.067 . S
Zn127 O128 1.962 . S
Zn127 O130 1.986 . S
Zn127 O132 1.996 . S
Zn127 O135 1.943 . S
O128 Zn127 1.962 . S
O128 C133 1.254 . S
O129 Zn126 2.031 . S
O129 C133 1.269 . S
O130 Zn127 1.986 . S
O130 C137 1.262 . S
O131 Zn126 2.049 . S
O131 C139 1.260 . S
O132 Zn127 1.996 . S
O132 C139 1.257 . S
C133 O128 1.254 . S
C133 O129 1.269 . S
C134 O135 1.249 . S
C134 O136 1.270 . S
O135 Zn127 1.943 . S
O135 C134 1.249 . S
O136 Zn126 2.067 . S
O136 C134 1.270 . S
C137 O130 1.262 . S
C137 O138 1.232 . S
O138 C137 1.232 . S
C139 O131 1.260 . S
C139 O132 1.257 . S
Zn140 O143 2.031 . S
Zn140 O145 2.049 . S
Zn140 O150 2.067 . S
Zn141 O142 1.962 . S
Zn141 O144 1.986 . S
Zn141 O146 1.996 . S
Zn141 O149 1.943 . S
O142 Zn141 1.962 . S
O142 C147 1.254 . S
O143 Zn140 2.031 . S
O143 C147 1.269 . S
O144 Zn141 1.986 . S
O144 C151 1.262 . S
O145 Zn140 2.049 . S
O145 C153 1.260 . S
O146 Zn141 1.996 . S
O146 C153 1.257 . S
C147 O142 1.254 . S
C147 O143 1.269 . S
C148 O149 1.249 . S
C148 O150 1.270 . S
O149 Zn141 1.943 . S
O149 C148 1.249 . S
O150 Zn140 2.067 . S
O150 C148 1.270 . S
C151 O144 1.262 . S
C151 O152 1.232 . S
O152 C151 1.232 . S
C153 O145 1.260 . S
C153 O146 1.257 . S
Zn154 O157 2.031 . S
Zn154 O159 2.049 . S
Zn154 O164 2.067 . S
Zn155 O156 1.962 . S
Zn155 O158 1.986 . S
Zn155 O160 1.996 . S
Zn155 O163 1.943 . S
O156 Zn155 1.962 . S
O156 C161 1.254 . S
O157 Zn154 2.031 . S
O157 C161 1.269 . S
O158 Zn155 1.986 . S
O158 C165 1.262 . S
O159 Zn154 2.049 . S
O159 C167 1.260 . S
O160 Zn155 1.996 . S
O160 C167 1.257 . S
C161 O156 1.254 . S
C161 O157 1.269 . S
C162 O163 1.249 . S
C162 O164 1.270 . S
O163 Zn155 1.943 . S
O163 C162 1.249 . S
O164 Zn154 2.067 . S
O164 C162 1.270 . S
C165 O158 1.262 . S
C165 O166 1.232 . S
O166 C165 1.232 . S
C167 O159 1.260 . S
C167 O160 1.257 . S
H168 C176 0.950 . S
H169 C181 0.927 1_655 S
H170 C178 0.962 . S
H171 C180 0.950 . S
H172 C182 0.950 . S
H173 C184 0.962 . S
H174 C186 0.950 . S
H175 C187 0.927 1_455 S
C176 H168 0.950 . S
C176 C177 1.386 . S
C176 C178 1.391 . S
C177 C176 1.386 . S
C177 C181 1.393 . S
C178 H170 0.962 . S
C178 C176 1.391 . S
C178 C179 1.400 . S
C179 C178 1.400 . S
C179 C180 1.398 1_455 S
C179 C185 1.491 1_454 S
C180 H171 0.950 . S
C180 C179 1.398 1_655 S
C180 C181 1.391 1_655 S
C181 H169 0.927 1_455 S
C181 C177 1.393 . S
C181 C180 1.391 1_455 S
C182 H172 0.950 . S
C182 C183 1.386 . S
C182 C184 1.391 . S
C183 C182 1.386 . S
C183 C187 1.393 . S
C184 H173 0.962 . S
C184 C182 1.391 . S
C184 C185 1.400 . S
C185 C179 1.491 1_656 S
C185 C184 1.400 . S
C185 C186 1.398 1_655 S
C186 H174 0.950 . S
C186 C185 1.398 1_455 S
C186 C187 1.391 1_455 S
C187 H175 0.927 1_655 S
C187 C183 1.393 . S
C187 C186 1.391 1_655 S
H188 C196 0.950 . S
H189 C201 0.950 . S
H190 C198 0.950 . S
H191 C200 0.950 1_545 S
H192 C202 0.950 . S
H193 C204 0.950 . S
H194 C206 0.950 1_565 S
H195 C207 0.950 . S
C196 H188 0.950 . S
C196 C197 1.386 . S
C196 C198 1.391 . S
C197 C196 1.386 . S
C197 C201 1.393 . S
C198 H190 0.950 . S
C198 C196 1.391 . S
C198 C199 1.400 . S
C199 C198 1.400 . S
C199 C200 1.398 . S
C199 C205 1.491 1_565 S
C200 H191 0.950 1_565 S
C200 C199 1.398 . S
C200 C201 1.391 . S
C201 H189 0.950 . S
C201 C197 1.393 . S
C201 C200 1.391 . S
C202 H192 0.950 . S
C202 C203 1.386 . S
C202 C204 1.391 . S
C203 C202 1.386 . S
C203 C207 1.393 . S
C204 H193 0.950 . S
C204 C202 1.391 . S
C204 C205 1.400 . S
C205 C199 1.491 1_545 S
C205 C204 1.400 . S
C205 C206 1.398 . S
C206 H194 0.950 1_545 S
C206 C205 1.398 . S
C206 C207 1.391 . S
C207 H195 0.950 . S
C207 C203 1.393 . S
C207 C206 1.391 . S
H208 C216 0.950 . S
H209 C221 0.950 . S
H210 C218 0.950 1_556 S
H211 C220 0.950 . S
H212 C222 0.950 . S
H213 C224 0.950 1_554 S
H214 C226 0.950 . S
H215 C227 0.950 . S
C216 H208 0.950 . S
C216 C217 1.386 . S
C216 C218 1.391 . S
C217 C216 1.386 . S
C217 C221 1.393 . S
C218 H210 0.950 1_554 S
C218 C216 1.391 . S
C218 C219 1.400 . S
C219 C218 1.400 . S
C219 C220 1.398 . S
C219 C225 1.491 1_554 S
C220 H211 0.950 . S
C220 C219 1.398 . S
C220 C221 1.391 . S
C221 H209 0.950 . S
C221 C217 1.393 . S
C221 C220 1.391 . S
C222 H212 0.950 . S
C222 C223 1.386 . S
C222 C224 1.391 . S
C223 C222 1.386 . S
C223 C227 1.393 . S
C224 H213 0.950 1_556 S
C224 C222 1.391 . S
C224 C225 1.400 . S
C225 C219 1.491 1_556 S
C225 C224 1.400 . S
C225 C226 1.398 . S
C226 H214 0.950 . S
C226 C225 1.398 . S
C226 C227 1.391 . S
C227 H215 0.950 . S
C227 C223 1.393 . S
C227 C226 1.391 . S
H228 C236 0.950 . S
H229 C241 0.950 . S
H230 C238 0.950 . S
H231 C240 0.950 . S
H232 C242 0.950 . S
H233 C244 0.950 . S
H234 C246 0.950 . S
H235 C247 0.950 . S
C236 H228 0.950 . S
C236 C237 1.386 . S
C236 C238 1.391 . S
C237 C236 1.386 . S
C237 C241 1.393 . S
C238 H230 0.950 . S
C238 C236 1.391 . S
C238 C239 1.400 . S
C239 C238 1.400 . S
C239 C240 1.398 1_455 S
C239 C245 1.491 1_455 S
C240 H231 0.950 . S
C240 C239 1.398 1_655 S
C240 C241 1.391 1_655 S
C241 H229 0.950 . S
C241 C237 1.393 . S
C241 C240 1.391 1_455 S
C242 H232 0.950 . S
C242 C243 1.386 . S
C242 C244 1.391 . S
C243 C242 1.386 . S
C243 C247 1.393 . S
C244 H233 0.950 . S
C244 C242 1.391 . S
C244 C245 1.400 . S
C245 C239 1.491 1_655 S
C245 C244 1.400 . S
C245 C246 1.398 1_655 S
C246 H234 0.950 . S
C246 C245 1.398 1_455 S
C246 C247 1.391 1_455 S
C247 H235 0.950 . S
C247 C243 1.393 . S
C247 C246 1.391 1_655 S
H248 C256 0.950 . S
H249 C261 0.950 . S
H250 C258 0.944 . S
H251 C260 0.950 . S
H252 C262 0.950 . S
H253 C264 0.944 . S
H254 C266 0.950 . S
H255 C267 0.950 . S
C256 H248 0.950 . S
C256 C257 1.386 . S
C256 C258 1.394 1_545 S
C257 C256 1.386 . S
C257 C261 1.393 . S
C258 H250 0.944 . S
C258 C256 1.394 1_565 S
C258 C259 1.403 1_565 S
C259 C258 1.403 1_545 S
C259 C260 1.398 . S
C259 C265 1.491 1_546 S
C260 H251 0.950 . S
C260 C259 1.398 . S
C260 C261 1.391 . S
C261 H249 0.950 . S
C261 C257 1.393 . S
C261 C260 1.391 . S
C262 H252 0.950 . S
C262 C263 1.386 . S
C262 C264 1.394 1_565 S
C263 C262 1.386 . S
C263 C267 1.393 . S
C264 H253 0.944 . S
C264 C262 1.394 1_545 S
C264 C265 1.403 1_545 S
C265 C259 1.491 1_564 S
C265 C264 1.403 1_565 S
C265 C266 1.398 . S
C266 H254 0.950 . S
C266 C265 1.398 . S
C266 C267 1.391 . S
C267 H255 0.950 . S
C267 C263 1.393 . S
C267 C266 1.391 . S
H268 C276 0.950 . S
H269 C281 0.950 . S
H270 C278 0.950 . S
H271 C280 0.950 . S
H272 C282 0.950 . S
H273 C284 0.950 . S
H274 C286 0.950 . S
H275 C287 0.950 . S
C276 H268 0.950 . S
C276 C277 1.386 . S
C276 C278 1.391 . S
C277 C276 1.386 . S
C277 C281 1.393 . S
C278 H270 0.950 . S
C278 C276 1.391 . S
C278 C279 1.400 . S
C279 C278 1.400 . S
C279 C280 1.398 . S
C279 C285 1.491 . S
C280 H271 0.950 . S
C280 C279 1.398 . S
C280 C281 1.391 . S
C281 H269 0.950 . S
C281 C277 1.393 . S
C281 C280 1.391 . S
C282 H272 0.950 . S
C282 C283 1.386 . S
C282 C284 1.391 . S
C283 C282 1.386 . S
C283 C287 1.393 . S
C284 H273 0.950 . S
C284 C282 1.391 . S
C284 C285 1.400 . S
C285 C279 1.491 . S
C285 C284 1.400 . S
C285 C286 1.398 . S
C286 H274 0.950 . S
C286 C285 1.398 . S
C286 C287 1.391 . S
C287 H275 0.950 . S
C287 C283 1.393 . S
C287 C286 1.391 . S
H288 C296 0.950 . S
H289 C301 0.950 . S
H290 C298 0.950 1_455 S
H291 C300 0.950 . S
H292 C302 0.950 . S
H293 C304 0.950 1_655 S
H294 C306 0.950 . S
H295 C307 0.950 . S
C296 H288 0.950 . S
C296 C297 1.386 . S
C296 C298 1.391 . S
C297 C296 1.386 . S
C297 C301 1.393 . S
C298 H290 0.950 1_655 S
C298 C296 1.391 . S
C298 C299 1.400 . S
C299 C298 1.400 . S
C299 C300 1.398 . S
C299 C305 1.491 1_656 S
C300 H291 0.950 . S
C300 C299 1.398 . S
C300 C301 1.391 . S
C301 H289 0.950 . S
C301 C297 1.393 . S
C301 C300 1.391 . S
C302 H292 0.950 . S
C302 C303 1.386 . S
C302 C304 1.391 . S
C303 C302 1.386 . S
C303 C307 1.393 . S
C304 H293 0.950 1_455 S
C304 C302 1.391 . S
C304 C305 1.400 . S
C305 C299 1.491 1_454 S
C305 C304 1.400 . S
C305 C306 1.398 . S
C306 H294 0.950 . S
C306 C305 1.398 . S
C306 C307 1.391 . S
C307 H295 0.950 . S
C307 C303 1.393 . S
C307 C306 1.391 . S
H308 C316 0.945 1_545 S
H309 C321 0.950 . S
H310 C318 0.950 . S
H311 C320 0.950 . S
H312 C322 0.945 1_565 S
H313 C324 0.950 . S
H314 C326 0.950 . S
H315 C327 0.950 . S
C316 H308 0.945 1_565 S
C316 C317 1.386 . S
C316 C318 1.391 1_565 S
C317 C316 1.386 . S
C317 C321 1.393 . S
C318 H310 0.950 . S
C318 C316 1.391 1_545 S
C318 C319 1.400 1_545 S
C319 C318 1.400 1_565 S
C319 C320 1.398 . S
C319 C325 1.491 1_565 S
C320 H311 0.950 . S
C320 C319 1.398 . S
C320 C321 1.391 . S
C321 H309 0.950 . S
C321 C317 1.393 . S
C321 C320 1.391 . S
C322 H312 0.945 1_545 S
C322 C323 1.386 . S
C322 C324 1.391 1_545 S
C323 C322 1.386 . S
C323 C327 1.393 . S
C324 H313 0.950 . S
C324 C322 1.391 1_565 S
C324 C325 1.400 1_565 S
C325 C319 1.491 1_545 S
C325 C324 1.400 1_545 S
C325 C326 1.398 . S
C326 H314 0.950 . S
C326 C325 1.398 . S
C326 C327 1.391 . S
C327 H315 0.950 . S
C327 C323 1.393 . S
C327 C326 1.391 . S
H328 C336 0.950 . S
H329 C341 0.950 . S
H330 C338 0.950 . S
H331 C340 0.950 . S
H332 C342 0.950 . S
H333 C344 0.950 . S
H334 C346 0.950 . S
H335 C347 0.950 . S
C336 H328 0.950 . S
C336 C337 1.386 . S
C336 C338 1.391 . S
C337 C336 1.386 . S
C337 C341 1.393 . S
C338 H330 0.950 . S
C338 C336 1.391 . S
C338 C339 1.400 . S
C339 C338 1.400 . S
C339 C340 1.398 . S
C339 C345 1.491 1_556 S
C340 H331 0.950 . S
C340 C339 1.398 . S
C340 C341 1.391 . S
C341 H329 0.950 . S
C341 C337 1.393 . S
C341 C340 1.391 . S
C342 H332 0.950 . S
C342 C343 1.386 . S
C342 C344 1.391 . S
C343 C342 1.386 . S
C343 C347 1.393 . S
C344 H333 0.950 . S
C344 C342 1.391 . S
C344 C345 1.400 . S
C345 C339 1.491 1_554 S
C345 C344 1.400 . S
C345 C346 1.398 . S
C346 H334 0.950 . S
C346 C345 1.398 . S
C346 C347 1.391 . S
C347 H335 0.950 . S
C347 C343 1.393 . S
C347 C346 1.391 . S
H348 C356 0.950 1_455 S
H349 C361 0.950 . S
H350 C358 0.950 . S
H351 C360 0.950 . S
H352 C362 0.950 1_655 S
H353 C364 0.950 . S
H354 C366 0.950 . S
H355 C367 0.950 . S
C356 H348 0.950 1_655 S
C356 C357 1.386 . S
C356 C358 1.391 1_655 S
C357 C356 1.386 . S
C357 C361 1.393 . S
C358 H350 0.950 . S
C358 C356 1.391 1_455 S
C358 C359 1.400 1_455 S
C359 C358 1.400 1_655 S
C359 C360 1.398 . S
C359 C365 1.491 1_655 S
C360 H351 0.950 . S
C360 C359 1.398 . S
C360 C361 1.391 . S
C361 H349 0.950 . S
C361 C357 1.393 . S
C361 C360 1.391 . S
C362 H352 0.950 1_455 S
C362 C363 1.386 . S
C362 C364 1.391 1_455 S
C363 C362 1.386 . S
C363 C367 1.393 . S
C364 H353 0.950 . S
C364 C362 1.391 1_655 S
C364 C365 1.400 1_655 S
C365 C359 1.491 1_455 S
C365 C364 1.400 1_455 S
C365 C366 1.398 . S
C366 H354 0.950 . S
C366 C365 1.398 . S
C366 C367 1.391 . S
C367 H355 0.950 . S
C367 C363 1.393 . S
C367 C366 1.391 . S
H368 C376 0.950 1_565 S
H369 C381 0.950 . S
H370 C378 0.950 . S
H371 C380 0.950 1_554 S
H372 C382 0.950 1_545 S
H373 C384 0.950 . S
H374 C386 0.950 1_556 S
H375 C387 0.950 . S
C376 H368 0.950 1_545 S
C376 C377 1.386 . S
C376 C378 1.391 1_545 S
C377 C376 1.386 . S
C377 C381 1.393 . S
C378 H370 0.950 . S
C378 C376 1.391 1_565 S
C378 C379 1.400 1_565 S
C379 C378 1.400 1_545 S
C379 C380 1.398 . S
C379 C385 1.491 1_546 S
C380 H371 0.950 1_556 S
C380 C379 1.398 . S
C380 C381 1.391 . S
C381 H369 0.950 . S
C381 C377 1.393 . S
C381 C380 1.391 . S
C382 H372 0.950 1_565 S
C382 C383 1.386 . S
C382 C384 1.391 1_565 S
C383 C382 1.386 . S
C383 C387 1.393 . S
C384 H373 0.950 . S
C384 C382 1.391 1_545 S
C384 C385 1.400 1_545 S
C385 C379 1.491 1_564 S
C385 C384 1.400 1_565 S
C385 C386 1.398 . S
C386 H374 0.950 1_554 S
C386 C385 1.398 . S
C386 C387 1.391 . S
C387 H375 0.950 . S
C387 C383 1.393 . S
C387 C386 1.391 . S
H388 C396 0.950 . S
H389 C401 0.950 . S
H390 C398 0.950 . S
H391 C400 0.950 . S
H392 C402 0.950 . S
H393 C404 0.950 . S
H394 C406 0.950 . S
H395 C407 0.950 . S
C396 H388 0.950 . S
C396 C397 1.386 . S
C396 C398 1.391 . S
C397 C396 1.386 . S
C397 C401 1.393 . S
C398 H390 0.950 . S
C398 C396 1.391 . S
C398 C399 1.400 . S
C399 C398 1.400 . S
C399 C400 1.398 . S
C399 C405 1.491 . S
C400 H391 0.950 . S
C400 C399 1.398 . S
C400 C401 1.391 . S
C401 H389 0.950 . S
C401 C397 1.393 . S
C401 C400 1.391 . S
C402 H392 0.950 . S
C402 C403 1.386 . S
C402 C404 1.391 . S
C403 C402 1.386 . S
C403 C407 1.393 . S
C404 H393 0.950 . S
C404 C402 1.391 . S
C404 C405 1.400 . S
C405 C399 1.491 . S
C405 C404 1.400 . S
C405 C406 1.398 . S
C406 H394 0.950 . S
C406 C405 1.398 . S
C406 C407 1.391 . S
C407 H395 0.950 . S
C407 C403 1.393 . S
C407 C406 1.391 . S
H408 C416 0.950 . S
H409 C421 0.950 . S
H410 C418 0.950 . S
H411 C420 0.950 . S
H412 C422 0.950 . S
H413 C424 0.950 . S
H414 C426 0.950 . S
H415 C427 0.950 . S
C416 H408 0.950 . S
C416 C417 1.386 . S
C416 C418 1.391 . S
C417 C416 1.386 . S
C417 C421 1.393 . S
C418 H410 0.950 . S
C418 C416 1.391 . S
C418 C419 1.400 . S
C419 C418 1.400 . S
C419 C420 1.398 . S
C419 C425 1.491 . S
C420 H411 0.950 . S
C420 C419 1.398 . S
C420 C421 1.391 . S
C421 H409 0.950 . S
C421 C417 1.393 . S
C421 C420 1.391 . S
C422 H412 0.950 . S
C422 C423 1.386 . S
C422 C424 1.391 . S
C423 C422 1.386 . S
C423 C427 1.393 . S
C424 H413 0.950 . S
C424 C422 1.391 . S
C424 C425 1.400 . S
C425 C419 1.491 . S
C425 C424 1.400 . S
C425 C426 1.398 . S
C426 H414 0.950 . S
C426 C425 1.398 . S
C426 C427 1.391 . S
C427 H415 0.950 . S
C427 C423 1.393 . S
C427 C426 1.391 . S
H428 C436 0.950 . S
H429 C441 0.950 . S
H430 C438 0.950 . S
H431 C440 0.950 . S
H432 C442 0.950 . S
H433 C444 0.950 . S
H434 C446 0.950 . S
H435 C447 0.950 . S
C436 H428 0.950 . S
C436 C437 1.386 . S
C436 C438 1.391 . S
C437 C436 1.386 . S
C437 C441 1.393 . S
C438 H430 0.950 . S
C438 C436 1.391 . S
C438 C439 1.400 . S
C439 C438 1.400 . S
C439 C440 1.398 . S
C439 C445 1.491 . S
C440 H431 0.950 . S
C440 C439 1.398 . S
C440 C441 1.391 . S
C441 H429 0.950 . S
C441 C437 1.393 . S
C441 C440 1.391 . S
C442 H432 0.950 . S
C442 C443 1.386 . S
C442 C444 1.391 . S
C443 C442 1.386 . S
C443 C447 1.393 . S
C444 H433 0.950 . S
C444 C442 1.391 . S
C444 C445 1.400 . S
C445 C439 1.491 . S
C445 C444 1.400 . S
C445 C446 1.398 . S
C446 H434 0.950 . S
C446 C445 1.398 . S
C446 C447 1.391 . S
C447 H435 0.950 . S
C447 C443 1.393 . S
C447 C446 1.391 . S
H448 C456 0.950 . S
H449 C461 0.950 . S
H450 C458 0.950 . S
H451 C460 0.950 . S
H452 C462 0.950 . S
H453 C464 0.950 . S
H454 C466 0.950 . S
H455 C467 0.950 . S
C456 H448 0.950 . S
C456 C457 1.386 . S
C456 C458 1.391 . S
C457 C456 1.386 . S
C457 C461 1.393 . S
C458 H450 0.950 . S
C458 C456 1.391 . S
C458 C459 1.400 . S
C459 C458 1.400 . S
C459 C460 1.398 . S
C459 C465 1.491 . S
C460 H451 0.950 . S
C460 C459 1.398 . S
C460 C461 1.391 . S
C461 H449 0.950 . S
C461 C457 1.393 . S
C461 C460 1.391 . S
C462 H452 0.950 . S
C462 C463 1.386 . S
C462 C464 1.391 . S
C463 C462 1.386 . S
C463 C467 1.393 . S
C464 H453 0.950 . S
C464 C462 1.391 . S
C464 C465 1.400 . S
C465 C459 1.491 . S
C465 C464 1.400 . S
C465 C466 1.398 . S
C466 H454 0.950 . S
C466 C465 1.398 . S
C466 C467 1.391 . S
C467 H455 0.950 . S
C467 C463 1.393 . S
C467 C466 1.391 . S
H468 C476 0.950 . S
H469 C481 0.950 . S
H470 C478 0.950 . S
H471 C480 0.950 . S
H472 C482 0.950 . S
H473 C484 0.950 . S
H474 C486 0.950 . S
H475 C487 0.950 . S
C476 H468 0.950 . S
C476 C477 1.386 . S
C476 C478 1.391 . S
C477 C476 1.386 . S
C477 C481 1.393 . S
C478 H470 0.950 . S
C478 C476 1.391 . S
C478 C479 1.400 . S
C479 C478 1.400 . S
C479 C480 1.398 . S
C479 C485 1.491 . S
C480 H471 0.950 . S
C480 C479 1.398 . S
C480 C481 1.391 . S
C481 H469 0.950 . S
C481 C477 1.393 . S
C481 C480 1.391 . S
C482 H472 0.950 . S
C482 C483 1.386 . S
C482 C484 1.391 . S
C483 C482 1.386 . S
C483 C487 1.393 . S
C484 H473 0.950 . S
C484 C482 1.391 . S
C484 C485 1.400 . S
C485 C479 1.491 . S
C485 C484 1.400 . S
C485 C486 1.398 . S
C486 H474 0.950 . S
C486 C485 1.398 . S
C486 C487 1.391 . S
C487 H475 0.950 . S
C487 C483 1.393 . S
C487 C486 1.391 . S
H488 C496 0.950 . S
H489 C501 0.950 . S
H490 C498 0.950 . S
H491 C500 0.950 . S
H492 C502 0.950 . S
H493 C504 0.950 . S
H494 C506 0.950 . S
H495 C507 0.950 . S
C496 H488 0.950 . S
C496 C497 1.386 . S
C496 C498 1.391 . S
C497 C496 1.386 . S
C497 C501 1.393 . S
C498 H490 0.950 . S
C498 C496 1.391 . S
C498 C499 1.400 . S
C499 C498 1.400 . S
C499 C500 1.398 . S
C499 C505 1.491 . S
C500 H491 0.950 . S
C500 C499 1.398 . S
C500 C501 1.391 . S
C501 H489 0.950 . S
C501 C497 1.393 . S
C501 C500 1.391 . S
C502 H492 0.950 . S
C502 C503 1.386 . S
C502 C504 1.391 . S
C503 C502 1.386 . S
C503 C507 1.393 . S
C504 H493 0.950 . S
C504 C502 1.391 . S
C504 C505 1.400 . S
C505 C499 1.491 . S
C505 C504 1.400 . S
C505 C506 1.398 . S
C506 H494 0.950 . S
C506 C505 1.398 . S
C506 C507 1.391 . S
C507 H495 0.950 . S
C507 C503 1.393 . S
C507 C506 1.391 . S
H508 C516 0.950 . S
H509 C521 0.950 . S
H510 C518 0.950 . S
H511 C520 0.950 . S
H512 C522 0.950 . S
H513 C524 0.950 . S
H514 C526 0.950 . S
H515 C527 0.950 . S
C516 H508 0.950 . S
C516 C517 1.386 . S
C516 C518 1.391 . S
C517 C516 1.386 . S
C517 C521 1.393 . S
C518 H510 0.950 . S
C518 C516 1.391 . S
C518 C519 1.400 . S
C519 C518 1.400 . S
C519 C520 1.398 . S
C519 C525 1.491 . S
C520 H511 0.950 . S
C520 C519 1.398 . S
C520 C521 1.391 . S
C521 H509 0.950 . S
C521 C517 1.393 . S
C521 C520 1.391 . S
C522 H512 0.950 . S
C522 C523 1.386 . S
C522 C524 1.391 . S
C523 C522 1.386 . S
C523 C527 1.393 . S
C524 H513 0.950 . S
C524 C522 1.391 . S
C524 C525 1.400 . S
C525 C519 1.491 . S
C525 C524 1.400 . S
C525 C526 1.398 . S
C526 H514 0.950 . S
C526 C525 1.398 . S
C526 C527 1.391 . S
C527 H515 0.950 . S
C527 C523 1.393 . S
C527 C526 1.391 . S
H528 C536 0.950 . S
H529 C541 0.950 . S
H530 C538 0.950 . S
H531 C540 0.950 . S
H532 C542 0.950 . S
H533 C544 0.950 . S
H534 C546 0.950 . S
H535 C547 0.950 . S
C536 H528 0.950 . S
C536 C537 1.386 . S
C536 C538 1.391 . S
C537 C536 1.386 . S
C537 C541 1.393 . S
C538 H530 0.950 . S
C538 C536 1.391 . S
C538 C539 1.400 . S
C539 C538 1.400 . S
C539 C540 1.398 . S
C539 C545 1.491 . S
C540 H531 0.950 . S
C540 C539 1.398 . S
C540 C541 1.391 . S
C541 H529 0.950 . S
C541 C537 1.393 . S
C541 C540 1.391 . S
C542 H532 0.950 . S
C542 C543 1.386 . S
C542 C544 1.391 . S
C543 C542 1.386 . S
C543 C547 1.393 . S
C544 H533 0.950 . S
C544 C542 1.391 . S
C544 C545 1.400 . S
C545 C539 1.491 . S
C545 C544 1.400 . S
C545 C546 1.398 . S
C546 H534 0.950 . S
C546 C545 1.398 . S
C546 C547 1.391 . S
C547 H535 0.950 . S
C547 C543 1.393 . S
C547 C546 1.391 . S
H548 C556 0.950 . S
H549 C561 0.950 . S
H550 C558 0.950 . S
H551 C560 0.950 . S
H552 C562 0.950 . S
H553 C564 0.950 . S
H554 C566 0.950 . S
H555 C567 0.950 . S
C556 H548 0.950 . S
C556 C557 1.386 . S
C556 C558 1.391 . S
C557 C556 1.386 . S
C557 C561 1.393 . S
C558 H550 0.950 . S
C558 C556 1.391 . S
C558 C559 1.400 . S
C559 C558 1.400 . S
C559 C560 1.398 . S
C559 C565 1.491 . S
C560 H551 0.950 . S
C560 C559 1.398 . S
C560 C561 1.391 . S
C561 H549 0.950 . S
C561 C557 1.393 . S
C561 C560 1.391 . S
C562 H552 0.950 . S
C562 C563 1.386 . S
C562 C564 1.391 . S
C563 C562 1.386 . S
C563 C567 1.393 . S
C564 H553 0.950 . S
C564 C562 1.391 . S
C564 C565 1.400 . S
C565 C559 1.491 . S
C565 C564 1.400 . S
C565 C566 1.398 . S
C566 H554 0.950 . S
C566 C565 1.398 . S
C566 C567 1.391 . S
C567 H555 0.950 . S
C567 C563 1.393 . S
C567 C566 1.391 . S
H568 C576 0.950 . S
H569 C581 0.950 . S
H570 C578 0.950 . S
H571 C580 0.950 . S
H572 C582 0.950 . S
H573 C584 0.950 . S
H574 C586 0.950 . S
H575 C587 0.950 . S
C576 H568 0.950 . S
C576 C577 1.386 . S
C576 C578 1.391 . S
C577 C576 1.386 . S
C577 C581 1.393 . S
C578 H570 0.950 . S
C578 C576 1.391 . S
C578 C579 1.400 . S
C579 C578 1.400 . S
C579 C580 1.398 . S
C579 C585 1.491 . S
C580 H571 0.950 . S
C580 C579 1.398 . S
C580 C581 1.391 . S
C581 H569 0.950 . S
C581 C577 1.393 . S
C581 C580 1.391 . S
C582 H572 0.950 . S
C582 C583 1.386 . S
C582 C584 1.391 . S
C583 C582 1.386 . S
C583 C587 1.393 . S
C584 H573 0.950 . S
C584 C582 1.391 . S
C584 C585 1.400 . S
C585 C579 1.491 . S
C585 C584 1.400 . S
C585 C586 1.398 . S
C586 H574 0.950 . S
C586 C585 1.398 . S
C586 C587 1.391 . S
C587 H575 0.950 . S
C587 C583 1.393 . S
C587 C586 1.391 . S
H588 C596 0.950 . S
H589 C601 0.950 . S
H590 C598 0.950 . S
H591 C600 0.950 . S
H592 C602 0.950 . S
H593 C604 0.950 . S
H594 C606 0.950 . S
H595 C607 0.950 . S
C596 H588 0.950 . S
C596 C597 1.386 . S
C596 C598 1.391 . S
C597 C596 1.386 . S
C597 C601 1.393 . S
C598 H590 0.950 . S
C598 C596 1.391 . S
C598 C599 1.400 . S
C599 C598 1.400 . S
C599 C600 1.398 . S
C599 C605 1.491 . S
C600 H591 0.950 . S
C600 C599 1.398 . S
C600 C601 1.391 . S
C601 H589 0.950 . S
C601 C597 1.393 . S
C601 C600 1.391 . S
C602 H592 0.950 . S
C602 C603 1.386 . S
C602 C604 1.391 . S
C603 C602 1.386 . S
C603 C607 1.393 . S
C604 H593 0.950 . S
C604 C602 1.391 . S
C604 C605 1.400 . S
C605 C599 1.491 . S
C605 C604 1.400 . S
C605 C606 1.398 . S
C606 H594 0.950 . S
C606 C605 1.398 . S
C606 C607 1.391 . S
C607 H595 0.950 . S
C607 C603 1.393 . S
C607 C606 1.391 . S
H608 C616 0.950 . S
H609 C621 0.950 . S
H610 C618 0.950 . S
H611 C620 0.950 . S
H612 C622 0.950 . S
H613 C624 0.950 . S
H614 C626 0.950 . S
H615 C627 0.950 . S
C616 H608 0.950 . S
C616 C617 1.386 . S
C616 C618 1.391 . S
C617 C616 1.386 . S
C617 C621 1.393 . S
C618 H610 0.950 . S
C618 C616 1.391 . S
C618 C619 1.400 . S
C619 C618 1.400 . S
C619 C620 1.398 . S
C619 C625 1.491 . S
C620 H611 0.950 . S
C620 C619 1.398 . S
C620 C621 1.391 . S
C621 H609 0.950 . S
C621 C617 1.393 . S
C621 C620 1.391 . S
C622 H612 0.950 . S
C622 C623 1.386 . S
C622 C624 1.391 . S
C623 C622 1.386 . S
C623 C627 1.393 . S
C624 H613 0.950 . S
C624 C622 1.391 . S
C624 C625 1.400 . S
C625 C619 1.491 . S
C625 C624 1.400 . S
C625 C626 1.398 . S
C626 H614 0.950 . S
C626 C625 1.398 . S
C626 C627 1.391 . S
C627 H615 0.950 . S
C627 C623 1.393 . S
C627 C626 1.391 . S
H628 C636 0.950 . S
H629 C641 0.950 . S
H630 C638 0.950 . S
H631 C640 0.950 . S
H632 C642 0.950 . S
H633 C644 0.950 . S
H634 C646 0.950 . S
H635 C647 0.950 . S
C636 H628 0.950 . S
C636 C637 1.386 . S
C636 C638 1.391 . S
C637 C636 1.386 . S
C637 C641 1.393 . S
C638 H630 0.950 . S
C638 C636 1.391 . S
C638 C639 1.400 . S
C639 C638 1.400 . S
C639 C640 1.398 . S
C639 C645 1.491 . S
C640 H631 0.950 . S
C640 C639 1.398 . S
C640 C641 1.391 . S
C641 H629 0.950 . S
C641 C637 1.393 . S
C641 C640 1.391 . S
C642 H632 0.950 . S
C642 C643 1.386 . S
C642 C644 1.391 . S
C643 C642 1.386 . S
C643 C647 1.393 . S
C644 H633 0.950 . S
C644 C642 1.391 . S
C644 C645 1.400 . S
C645 C639 1.491 . S
C645 C644 1.400 . S
C645 C646 1.398 . S
C646 H634 0.950 . S
C646 C645 1.398 . S
C646 C647 1.391 . S
C647 H635 0.950 . S
C647 C643 1.393 . S
C647 C646 1.391 . S
C177 C13 1.277 . S
C183 C167 1.255 . S
C197 C97 1.296 . S
C203 C27 1.281 . S
C217 C41 1.280 . S
C223 C111 1.257 . S
C237 C125 1.294 . S
C243 C55 1.271 . S
C257 C139 1.281 . S
C263 C69 1.296 . S
C277 C153 1.260 . S
C283 C83 1.258 . S
C297 C49 1.457 . S
C303 C119 1.452 . S
C317 C63 1.461 . S
C323 C133 1.452 . S
C337 C77 1.463 . S
C343 C147 1.461 . S
C357 C161 1.462 . S
C363 C7 1.453 . S
C377 C21 1.464 . S
C383 C91 1.455 . S
C397 C35 1.452 . S
C403 C105 1.456 . S
C417 C120 1.420 . S
C423 C8 1.400 . S
C437 C134 1.394 . S
C443 C22 1.406 . S
C457 C36 1.420 . S
C463 C148 1.408 . S
C477 C50 1.401 . S
C483 C162 1.396 . S
C497 C64 1.420 . S
C503 C92 1.409 . S
C517 C106 1.417 . S
C523 C78 1.395 . S
C537 C11 1.351 . S
C543 C151 1.352 . S
C557 C165 1.342 . S
C563 C25 1.343 . S
C577 C39 1.350 . S
C583 C95 1.351 . S
C597 C53 1.348 . S
C603 C109 1.349 . S
C617 C67 1.344 . S
C623 C123 1.346 . S
C637 C81 1.352 . S
C643 C137 1.352 . S
