# Generated by pormake.
# Topology wlp, (5)-cn, num edge types: 1
# Building blocks:
#     Node 0, Type 0, BuildingBlock: XOMCOT_clean_sbu_1, # of connection points: 5
#     Node 1, Type 0, BuildingBlock: XOMCOT_clean_sbu_1, # of connection points: 5
#     Node 2, Type 0, BuildingBlock: XOMCOT_clean_sbu_1, # of connection points: 5
#     Node 3, Type 0, BuildingBlock: XOMCOT_clean_sbu_1, # of connection points: 5
#     Node 4, Type 0, BuildingBlock: XOMCOT_clean_sbu_1, # of connection points: 5
#     Node 5, Type 0, BuildingBlock: XOMCOT_clean_sbu_1, # of connection points: 5
#     Node 6, Type 0, BuildingBlock: XOMCOT_clean_sbu_1, # of connection points: 5
#     Node 7, Type 0, BuildingBlock: XOMCOT_clean_sbu_1, # of connection points: 5
#     Node 8, Type 0, BuildingBlock: XOMCOT_clean_sbu_1, # of connection points: 5
#     Node 9, Type 0, BuildingBlock: XOMCOT_clean_sbu_1, # of connection points: 5
#     Node 10, Type 0, BuildingBlock: XOMCOT_clean_sbu_1, # of connection points: 5
#     Node 11, Type 0, BuildingBlock: XOMCOT_clean_sbu_1, # of connection points: 5
#     Node 12, Type 0, BuildingBlock: XOMCOT_clean_sbu_1, # of connection points: 5
#     Node 13, Type 0, BuildingBlock: XOMCOT_clean_sbu_1, # of connection points: 5
#     Node 14, Type 0, BuildingBlock: XOMCOT_clean_sbu_1, # of connection points: 5
#     Node 15, Type 0, BuildingBlock: XOMCOT_clean_sbu_1, # of connection points: 5
#     Node 16, Type 0, BuildingBlock: XOMCOT_clean_sbu_1, # of connection points: 5
#     Node 17, Type 0, BuildingBlock: XOMCOT_clean_sbu_1, # of connection points: 5
#     Node 18, Type 0, BuildingBlock: XOMCOT_clean_sbu_1, # of connection points: 5
#     Node 19, Type 0, BuildingBlock: XOMCOT_clean_sbu_1, # of connection points: 5
#     Node 20, Type 0, BuildingBlock: XOMCOT_clean_sbu_1, # of connection points: 5
#     Node 21, Type 0, BuildingBlock: XOMCOT_clean_sbu_1, # of connection points: 5
#     Node 22, Type 0, BuildingBlock: XOMCOT_clean_sbu_1, # of connection points: 5
#     Node 23, Type 0, BuildingBlock: XOMCOT_clean_sbu_1, # of connection points: 5
#     Node 24, Type 0, BuildingBlock: XOMCOT_clean_sbu_1, # of connection points: 5
#     Node 25, Type 0, BuildingBlock: XOMCOT_clean_sbu_1, # of connection points: 5
#     Node 26, Type 0, BuildingBlock: XOMCOT_clean_sbu_1, # of connection points: 5
#     Node 27, Type 0, BuildingBlock: XOMCOT_clean_sbu_1, # of connection points: 5
#     Node 28, Type 0, BuildingBlock: XOMCOT_clean_sbu_1, # of connection points: 5
#     Node 29, Type 0, BuildingBlock: XOMCOT_clean_sbu_1, # of connection points: 5
#     Node 30, Type 0, BuildingBlock: XOMCOT_clean_sbu_1, # of connection points: 5
#     Node 31, Type 0, BuildingBlock: XOMCOT_clean_sbu_1, # of connection points: 5
#     Node 32, Type 0, BuildingBlock: XOMCOT_clean_sbu_1, # of connection points: 5
#     Node 33, Type 0, BuildingBlock: XOMCOT_clean_sbu_1, # of connection points: 5
#     Node 34, Type 0, BuildingBlock: XOMCOT_clean_sbu_1, # of connection points: 5
#     Node 35, Type 0, BuildingBlock: XOMCOT_clean_sbu_1, # of connection points: 5
#     Edge 36, Type (0, 0), BuildingBlock: TEMPAE_clean_linker_10, # of connection points: 2
#     Edge 37, Type (0, 0), BuildingBlock: TEMPAE_clean_linker_10, # of connection points: 2
#     Edge 38, Type (0, 0), BuildingBlock: TEMPAE_clean_linker_10, # of connection points: 2
#     Edge 39, Type (0, 0), BuildingBlock: TEMPAE_clean_linker_10, # of connection points: 2
#     Edge 40, Type (0, 0), BuildingBlock: TEMPAE_clean_linker_10, # of connection points: 2
#     Edge 41, Type (0, 0), BuildingBlock: TEMPAE_clean_linker_10, # of connection points: 2
#     Edge 42, Type (0, 0), BuildingBlock: TEMPAE_clean_linker_10, # of connection points: 2
#     Edge 43, Type (0, 0), BuildingBlock: TEMPAE_clean_linker_10, # of connection points: 2
#     Edge 44, Type (0, 0), BuildingBlock: TEMPAE_clean_linker_10, # of connection points: 2
#     Edge 45, Type (0, 0), BuildingBlock: TEMPAE_clean_linker_10, # of connection points: 2
#     Edge 46, Type (0, 0), BuildingBlock: TEMPAE_clean_linker_10, # of connection points: 2
#     Edge 47, Type (0, 0), BuildingBlock: TEMPAE_clean_linker_10, # of connection points: 2
#     Edge 48, Type (0, 0), BuildingBlock: TEMPAE_clean_linker_10, # of connection points: 2
#     Edge 49, Type (0, 0), BuildingBlock: TEMPAE_clean_linker_10, # of connection points: 2
#     Edge 50, Type (0, 0), BuildingBlock: TEMPAE_clean_linker_10, # of connection points: 2
#     Edge 51, Type (0, 0), BuildingBlock: TEMPAE_clean_linker_10, # of connection points: 2
#     Edge 52, Type (0, 0), BuildingBlock: TEMPAE_clean_linker_10, # of connection points: 2
#     Edge 53, Type (0, 0), BuildingBlock: TEMPAE_clean_linker_10, # of connection points: 2
#     Edge 54, Type (0, 0), BuildingBlock: TEMPAE_clean_linker_10, # of connection points: 2
#     Edge 55, Type (0, 0), BuildingBlock: TEMPAE_clean_linker_10, # of connection points: 2
#     Edge 56, Type (0, 0), BuildingBlock: TEMPAE_clean_linker_10, # of connection points: 2
#     Edge 57, Type (0, 0), BuildingBlock: TEMPAE_clean_linker_10, # of connection points: 2
#     Edge 58, Type (0, 0), BuildingBlock: TEMPAE_clean_linker_10, # of connection points: 2
#     Edge 59, Type (0, 0), BuildingBlock: TEMPAE_clean_linker_10, # of connection points: 2
#     Edge 60, Type (0, 0), BuildingBlock: TEMPAE_clean_linker_10, # of connection points: 2
#     Edge 61, Type (0, 0), BuildingBlock: TEMPAE_clean_linker_10, # of connection points: 2
#     Edge 62, Type (0, 0), BuildingBlock: TEMPAE_clean_linker_10, # of connection points: 2
#     Edge 63, Type (0, 0), BuildingBlock: TEMPAE_clean_linker_10, # of connection points: 2
#     Edge 64, Type (0, 0), BuildingBlock: TEMPAE_clean_linker_10, # of connection points: 2
#     Edge 65, Type (0, 0), BuildingBlock: TEMPAE_clean_linker_10, # of connection points: 2
#     Edge 66, Type (0, 0), BuildingBlock: TEMPAE_clean_linker_10, # of connection points: 2
#     Edge 67, Type (0, 0), BuildingBlock: TEMPAE_clean_linker_10, # of connection points: 2
#     Edge 68, Type (0, 0), BuildingBlock: TEMPAE_clean_linker_10, # of connection points: 2
#     Edge 69, Type (0, 0), BuildingBlock: TEMPAE_clean_linker_10, # of connection points: 2
#     Edge 70, Type (0, 0), BuildingBlock: TEMPAE_clean_linker_10, # of connection points: 2
#     Edge 71, Type (0, 0), BuildingBlock: TEMPAE_clean_linker_10, # of connection points: 2
#     Edge 72, Type (0, 0), BuildingBlock: TEMPAE_clean_linker_10, # of connection points: 2
#     Edge 73, Type (0, 0), BuildingBlock: TEMPAE_clean_linker_10, # of connection points: 2
#     Edge 74, Type (0, 0), BuildingBlock: TEMPAE_clean_linker_10, # of connection points: 2
#     Edge 75, Type (0, 0), BuildingBlock: TEMPAE_clean_linker_10, # of connection points: 2
#     Edge 76, Type (0, 0), BuildingBlock: TEMPAE_clean_linker_10, # of connection points: 2
#     Edge 77, Type (0, 0), BuildingBlock: TEMPAE_clean_linker_10, # of connection points: 2
#     Edge 78, Type (0, 0), BuildingBlock: TEMPAE_clean_linker_10, # of connection points: 2
#     Edge 79, Type (0, 0), BuildingBlock: TEMPAE_clean_linker_10, # of connection points: 2
#     Edge 80, Type (0, 0), BuildingBlock: TEMPAE_clean_linker_10, # of connection points: 2
#     Edge 81, Type (0, 0), BuildingBlock: TEMPAE_clean_linker_10, # of connection points: 2
#     Edge 82, Type (0, 0), BuildingBlock: TEMPAE_clean_linker_10, # of connection points: 2
#     Edge 83, Type (0, 0), BuildingBlock: TEMPAE_clean_linker_10, # of connection points: 2
#     Edge 84, Type (0, 0), BuildingBlock: TEMPAE_clean_linker_10, # of connection points: 2
#     Edge 85, Type (0, 0), BuildingBlock: TEMPAE_clean_linker_10, # of connection points: 2
#     Edge 86, Type (0, 0), BuildingBlock: TEMPAE_clean_linker_10, # of connection points: 2
#     Edge 87, Type (0, 0), BuildingBlock: TEMPAE_clean_linker_10, # of connection points: 2
#     Edge 88, Type (0, 0), BuildingBlock: TEMPAE_clean_linker_10, # of connection points: 2
#     Edge 89, Type (0, 0), BuildingBlock: TEMPAE_clean_linker_10, # of connection points: 2
#     Edge 90, Type (0, 0), BuildingBlock: TEMPAE_clean_linker_10, # of connection points: 2
#     Edge 91, Type (0, 0), BuildingBlock: TEMPAE_clean_linker_10, # of connection points: 2
#     Edge 92, Type (0, 0), BuildingBlock: TEMPAE_clean_linker_10, # of connection points: 2
#     Edge 93, Type (0, 0), BuildingBlock: TEMPAE_clean_linker_10, # of connection points: 2
#     Edge 94, Type (0, 0), BuildingBlock: TEMPAE_clean_linker_10, # of connection points: 2
#     Edge 95, Type (0, 0), BuildingBlock: TEMPAE_clean_linker_10, # of connection points: 2
#     Edge 96, Type (0, 0), BuildingBlock: TEMPAE_clean_linker_10, # of connection points: 2
#     Edge 97, Type (0, 0), BuildingBlock: TEMPAE_clean_linker_10, # of connection points: 2
#     Edge 98, Type (0, 0), BuildingBlock: TEMPAE_clean_linker_10, # of connection points: 2
#     Edge 99, Type (0, 0), BuildingBlock: TEMPAE_clean_linker_10, # of connection points: 2
#     Edge 100, Type (0, 0), BuildingBlock: TEMPAE_clean_linker_10, # of connection points: 2
#     Edge 101, Type (0, 0), BuildingBlock: TEMPAE_clean_linker_10, # of connection points: 2
#     Edge 102, Type (0, 0), BuildingBlock: TEMPAE_clean_linker_10, # of connection points: 2
#     Edge 103, Type (0, 0), BuildingBlock: TEMPAE_clean_linker_10, # of connection points: 2
#     Edge 104, Type (0, 0), BuildingBlock: TEMPAE_clean_linker_10, # of connection points: 2
#     Edge 105, Type (0, 0), BuildingBlock: TEMPAE_clean_linker_10, # of connection points: 2
#     Edge 106, Type (0, 0), BuildingBlock: TEMPAE_clean_linker_10, # of connection points: 2
#     Edge 107, Type (0, 0), BuildingBlock: TEMPAE_clean_linker_10, # of connection points: 2
#     Edge 108, Type (0, 0), BuildingBlock: TEMPAE_clean_linker_10, # of connection points: 2
#     Edge 109, Type (0, 0), BuildingBlock: TEMPAE_clean_linker_10, # of connection points: 2
#     Edge 110, Type (0, 0), BuildingBlock: TEMPAE_clean_linker_10, # of connection points: 2
#     Edge 111, Type (0, 0), BuildingBlock: TEMPAE_clean_linker_10, # of connection points: 2
#     Edge 112, Type (0, 0), BuildingBlock: TEMPAE_clean_linker_10, # of connection points: 2
#     Edge 113, Type (0, 0), BuildingBlock: TEMPAE_clean_linker_10, # of connection points: 2
#     Edge 114, Type (0, 0), BuildingBlock: TEMPAE_clean_linker_10, # of connection points: 2
#     Edge 115, Type (0, 0), BuildingBlock: TEMPAE_clean_linker_10, # of connection points: 2
#     Edge 116, Type (0, 0), BuildingBlock: TEMPAE_clean_linker_10, # of connection points: 2
#     Edge 117, Type (0, 0), BuildingBlock: TEMPAE_clean_linker_10, # of connection points: 2
#     Edge 118, Type (0, 0), BuildingBlock: TEMPAE_clean_linker_10, # of connection points: 2
#     Edge 119, Type (0, 0), BuildingBlock: TEMPAE_clean_linker_10, # of connection points: 2
#     Edge 120, Type (0, 0), BuildingBlock: TEMPAE_clean_linker_10, # of connection points: 2
#     Edge 121, Type (0, 0), BuildingBlock: TEMPAE_clean_linker_10, # of connection points: 2
#     Edge 122, Type (0, 0), BuildingBlock: TEMPAE_clean_linker_10, # of connection points: 2
#     Edge 123, Type (0, 0), BuildingBlock: TEMPAE_clean_linker_10, # of connection points: 2
#     Edge 124, Type (0, 0), BuildingBlock: TEMPAE_clean_linker_10, # of connection points: 2
#     Edge 125, Type (0, 0), BuildingBlock: TEMPAE_clean_linker_10, # of connection points: 2
# Relax obj value: 0.216
# Max RMSD: 0.194
# Mean RMSD: 0.191
data_MOF--net-wlp--node1-XOMCOT_clean_sbu_1--edge1-TEMPAE_clean_linker_10
_symmetry_space_group_name_H-M    P1
_symmetry_Int_Tables_number       1
_symmetry_cell_setting            triclinic
loop_
_symmetry_equiv_pos_as_xyz
'x, y, z'
_cell_length_a     114.00027
_cell_length_b     113.98146
_cell_length_c     20.378047
_cell_angle_alpha  90.094843
_cell_angle_beta   90.07594
_cell_angle_gamma 120.0063
loop_
_atom_site_label
_atom_site_type_symbol
_atom_site_fract_x
_atom_site_fract_y
_atom_site_fract_z
_atom_type_partial_charge
C0 C 0.26267 0.18399 0.15347 0.0
C1 C 0.26157 0.17706 0.21042 0.0
N2 N 0.24972 0.16529 0.20837 0.0
N3 N 0.25168 0.17639 0.11579 0.0
C4 C 0.244 0.1651 0.15039 0.0
H5 H 0.27064 0.19411 0.14163 0.0
Co6 Co 0.24606 0.18136 0.04285 0.0
C7 C 0.23933 0.15934 0.93803 0.0
O8 O 0.2448 0.1697 0.89779 0.0
N9 N 0.23984 0.18648 0.97022 0.0
C10 C 0.2248 0.18593 0.8995 0.0
C11 C 0.22678 0.17947 0.95124 0.0
C12 C 0.24559 0.19722 0.92941 0.0
N13 N 0.23667 0.19717 0.88551 0.0
O14 O 0.22945 0.1788 0.09546 0.0
H15 H 0.21909 0.17033 0.97459 0.0
H16 H 0.25599 0.2051 0.93251 0.0
O17 O 0.23819 0.1617 1.00004 0.0
C18 C 0.23323 0.18968 0.13061 0.0
O19 O 0.24576 0.19954 0.12233 0.0
N20 N 0.26322 0.18666 1.00375 0.0
C21 C 0.29117 0.19795 0.97945 0.0
C22 C 0.28242 0.18383 0.97985 0.0
C23 C 0.26857 0.17839 0.99336 0.0
C24 C 0.27168 0.20034 1.00542 0.0
C25 C 0.28547 0.20618 0.99148 0.0
H26 H 0.26248 0.16759 1.00025 0.0
H27 H 0.26786 0.20683 0.02178 0.0
H28 H 0.23423 0.15705 0.13388 0.0
H29 H 0.2687 0.18053 0.25086 0.0
H30 H 0.21513 0.18277 0.87638 0.0
H31 H 0.28634 0.17699 0.97373 0.0
H32 H 0.29167 0.21711 0.99242 0.0
C33 C 0.86 0.06166 0.103 0.0
C34 C 0.87279 0.06785 0.12977 0.0
N35 N 0.87881 0.08104 0.11461 0.0
N36 N 0.85778 0.07106 0.07412 0.0
C37 C 0.86962 0.08273 0.08079 0.0
H38 H 0.85294 0.05089 0.10304 0.0
Co39 Co 0.84274 0.06687 0.02286 0.0
C40 C 0.85557 0.08936 0.9089 0.0
O41 O 0.8446 0.09029 0.90381 0.0
N42 N 0.82778 0.06192 0.96921 0.0
C43 C 0.81029 0.05952 0.9098 0.0
C44 C 0.82069 0.068 0.95069 0.0
C45 C 0.82151 0.04984 0.93906 0.0
N46 N 0.81089 0.04812 0.90248 0.0
O47 O 0.83054 0.05116 0.09001 0.0
H48 H 0.82287 0.07801 0.96504 0.0
H49 H 0.82463 0.04236 0.9448 0.0
O50 O 0.85575 0.0811 0.95227 0.0
C51 C 0.83 0.05029 0.1538 0.0
O52 O 0.83729 0.06147 0.18768 0.0
N53 N 0.83911 0.08015 0.06607 0.0
C54 C 0.82855 0.09787 0.0795 0.0
C55 C 0.84206 0.10269 0.06082 0.0
C56 C 0.84711 0.09375 0.05462 0.0
C57 C 0.82658 0.07568 0.09337 0.0
C58 C 0.82111 0.08429 0.09992 0.0
H59 H 0.85705 0.0978 0.03411 0.0
H60 H 0.8198 0.06502 0.10127 0.0
H61 H 0.87176 0.09231 0.0605 0.0
H62 H 0.87738 0.06306 0.15731 0.0
H63 H 0.80305 0.06167 0.88637 0.0
H64 H 0.84852 0.11318 0.04711 0.0
H65 H 0.81064 0.07991 0.11481 0.0
C66 C 0.93918 0.76298 0.16054 0.0
C67 C 0.93269 0.76752 0.20086 0.0
N68 N 0.92977 0.7757 0.16551 0.0
N69 N 0.94014 0.76816 0.10005 0.0
C70 C 0.93446 0.77601 0.10462 0.0
H71 H 0.94284 0.7562 0.17415 0.0
Co72 Co 0.94836 0.7655 0.0295 0.0
C73 C 0.9227 0.75697 0.92875 0.0
O74 O 0.91871 0.744 0.92873 0.0
N75 N 0.95689 0.76286 0.95814 0.0
C76 C 0.96062 0.75308 0.87244 0.0
C77 C 0.95094 0.75385 0.90866 0.0
C78 C 0.97024 0.76766 0.95007 0.0
N79 N 0.97271 0.76168 0.89899 0.0
O80 O 0.96424 0.76833 0.09372 0.0
H81 H 0.94026 0.74738 0.90174 0.0
H82 H 0.97798 0.77488 0.98274 0.0
O83 O 0.9332 0.76507 0.96457 0.0
C84 C 0.97322 0.78041 0.11396 0.0
O85 O 0.97228 0.79059 0.08976 0.0
N86 N 0.93845 0.74595 0.04405 0.0
C87 C 0.92397 0.71741 0.03303 0.0
C88 C 0.91724 0.72473 0.04416 0.0
C89 C 0.92468 0.73893 0.05134 0.0
C90 C 0.94522 0.73885 0.04126 0.0
C91 C 0.9382 0.72464 0.03508 0.0
H92 H 0.91923 0.74437 0.05738 0.0
H93 H 0.95615 0.74421 0.03895 0.0
H94 H 0.93341 0.78149 0.06382 0.0
H95 H 0.93009 0.76485 0.25186 0.0
H96 H 0.95891 0.74656 0.83055 0.0
H97 H 0.90628 0.71958 0.04521 0.0
H98 H 0.94389 0.71946 0.02813 0.0
C99 C 0.15588 0.21217 0.55078 0.0
C100 C 0.14547 0.2052 0.5074 0.0
N101 N 0.14706 0.21355 0.45738 0.0
N102 N 0.16389 0.22485 0.52852 0.0
C103 C 0.15837 0.22543 0.4712 0.0
H104 H 0.15763 0.20823 0.59566 0.0
Co105 Co 0.17935 0.23607 0.57265 0.0
C106 C 0.16207 0.23244 0.69488 0.0
O107 O 0.16419 0.22252 0.71166 0.0
N108 N 0.19496 0.24685 0.6201 0.0
C109 C 0.21048 0.26267 0.68513 0.0
C110 C 0.1978 0.25769 0.65803 0.0
C111 C 0.20597 0.24547 0.62441 0.0
N112 N 0.21561 0.25501 0.66324 0.0
O113 O 0.18994 0.23178 0.50112 0.0
H114 H 0.19101 0.26159 0.66632 0.0
H115 H 0.20661 0.23714 0.60272 0.0
O116 O 0.16788 0.23913 0.64227 0.0
C117 C 0.18933 0.22013 0.49526 0.0
O118 O 0.18255 0.21105 0.54054 0.0
N119 N 0.18249 0.25237 0.52725 0.0
C120 C 0.19305 0.28074 0.52185 0.0
C121 C 0.17926 0.27173 0.53571 0.0
C122 C 0.17418 0.25764 0.53783 0.0
C123 C 0.19526 0.26072 0.50362 0.0
C124 C 0.20078 0.27484 0.50187 0.0
H125 H 0.16386 0.25113 0.55367 0.0
H126 H 0.202 0.2568 0.49478 0.0
H127 H 0.16235 0.23443 0.44112 0.0
H128 H 0.13726 0.19487 0.51269 0.0
H129 H 0.2153 0.27085 0.72038 0.0
H130 H 0.17252 0.27551 0.54814 0.0
H131 H 0.21142 0.28104 0.49024 0.0
C132 C 0.77996 0.93114 0.42864 0.0
C133 C 0.78777 0.9285 0.38694 0.0
N134 N 0.79923 0.93114 0.41873 0.0
N135 N 0.78643 0.93536 0.48669 0.0
C136 C 0.79808 0.93519 0.47935 0.0
H137 H 0.7702 0.93 0.41702 0.0
Co138 Co 0.78299 0.94309 0.55727 0.0
C139 C 0.77313 0.9201 0.66587 0.0
O140 O 0.7629 0.92198 0.67894 0.0
N141 N 0.78047 0.95158 0.62965 0.0
C142 C 0.78088 0.95852 0.73197 0.0
C143 C 0.78407 0.95086 0.69198 0.0
C144 C 0.77607 0.96058 0.63257 0.0
N145 N 0.77569 0.96453 0.69445 0.0
O146 O 0.78698 0.95977 0.49591 0.0
H147 H 0.78927 0.9456 0.70747 0.0
H148 H 0.77399 0.96484 0.5901 0.0
O149 O 0.7814 0.92732 0.61925 0.0
C150 C 0.78267 0.96238 0.44165 0.0
O151 O 0.77166 0.95262 0.41437 0.0
N152 N 0.76339 0.93284 0.53987 0.0
C153 C 0.73477 0.91703 0.54381 0.0
C154 C 0.74283 0.91091 0.5415 0.0
C155 C 0.75702 0.91895 0.53876 0.0
C156 C 0.75557 0.93879 0.53418 0.0
C157 C 0.74138 0.93116 0.53732 0.0
H158 H 0.76292 0.91392 0.53866 0.0
H159 H 0.76009 0.94951 0.52763 0.0
H160 H 0.80561 0.93807 0.51773 0.0
H161 H 0.78494 0.92433 0.33791 0.0
H162 H 0.78309 0.96026 0.78391 0.0
H163 H 0.73827 0.90001 0.54475 0.0
H164 H 0.73562 0.93637 0.53525 0.0
C165 C 0.08476 0.84705 0.42788 0.0
C166 C 0.09013 0.85914 0.39533 0.0
N167 N 0.09074 0.86861 0.4372 0.0
N168 N 0.08201 0.84889 0.49006 0.0
C169 C 0.08569 0.86207 0.49425 0.0
H170 H 0.0837 0.83779 0.4083 0.0
Co171 Co 0.07459 0.83677 0.55745 0.0
C172 C 0.09828 0.85109 0.66502 0.0
O173 O 0.09851 0.83977 0.67303 0.0
N174 N 0.06656 0.82479 0.62735 0.0
C175 C 0.06122 0.81652 0.7285 0.0
C176 C 0.06834 0.828 0.69186 0.0
C177 C 0.05739 0.81141 0.62643 0.0
N178 N 0.05448 0.80607 0.68707 0.0
O179 O 0.05831 0.82374 0.49241 0.0
H180 H 0.07381 0.83811 0.71192 0.0
H181 H 0.05255 0.80571 0.58246 0.0
O182 O 0.08977 0.85113 0.62241 0.0
C183 C 0.05589 0.81615 0.44038 0.0
O184 O 0.06566 0.81425 0.41886 0.0
N185 N 0.08608 0.82891 0.53735 0.0
C186 C 0.10414 0.81858 0.54054 0.0
C187 C 0.10894 0.83255 0.53471 0.0
C188 C 0.0998 0.83745 0.53245 0.0
C189 C 0.08129 0.81524 0.53582 0.0
C190 C 0.09004 0.80992 0.53837 0.0
H191 H 0.10389 0.84829 0.53088 0.0
H192 H 0.07063 0.80817 0.53404 0.0
H193 H 0.08511 0.86687 0.53904 0.0
H194 H 0.09429 0.86105 0.34623 0.0
H195 H 0.06025 0.81603 0.78142 0.0
H196 H 0.1197 0.83974 0.53354 0.0
H197 H 0.08565 0.79904 0.54146 0.0
C198 C 0.76099 0.834 0.21742 0.0
C199 C 0.76675 0.8436 0.26592 0.0
N200 N 0.77842 0.85386 0.2426 0.0
N201 N 0.76889 0.83841 0.16363 0.0
C202 C 0.77949 0.8505 0.18049 0.0
H203 H 0.75197 0.82419 0.2222 0.0
Co204 Co 0.76747 0.82839 0.09133 0.0
C205 C 0.77096 0.84601 0.97026 0.0
O206 O 0.76154 0.83454 0.94487 0.0
N207 N 0.76628 0.81781 0.01847 0.0
C208 C 0.76021 0.80315 0.93558 0.0
C209 C 0.75561 0.80752 0.98703 0.0
C210 C 0.77721 0.81938 0.98525 0.0
N211 N 0.77378 0.81062 0.9349 0.0
O212 O 0.7855 0.82981 0.11833 0.0
H213 H 0.74508 0.80334 0.99935 0.0
H214 H 0.78754 0.82686 0.9975 0.0
O215 O 0.77514 0.84572 0.02966 0.0
C216 C 0.78279 0.8196 0.15629 0.0
O217 O 0.76989 0.81074 0.16474 0.0
N218 N 0.74928 0.82476 0.07921 0.0
C219 C 0.72138 0.81611 0.08887 0.0
C220 C 0.73077 0.8292 0.06621 0.0
C221 C 0.7447 0.83344 0.06313 0.0
C222 C 0.74038 0.81232 0.10402 0.0
C223 C 0.72654 0.80776 0.10856 0.0
H224 H 0.75173 0.84381 0.05012 0.0
H225 H 0.74416 0.80587 0.12154 0.0
H226 H 0.78795 0.85655 0.14838 0.0
H227 H 0.76287 0.84294 0.31507 0.0
H228 H 0.75409 0.79483 0.90261 0.0
H229 H 0.72745 0.83621 0.05167 0.0
H230 H 0.72001 0.79785 0.12939 0.0
C231 C 0.18915 0.93011 0.2012 0.0
C232 C 0.18208 0.92549 0.259 0.0
N233 N 0.17087 0.92652 0.25404 0.0
N234 N 0.18209 0.93357 0.15994 0.0
C235 C 0.17102 0.93126 0.19356 0.0
H236 H 0.19907 0.93148 0.19135 0.0
Co237 Co 0.18779 0.94343 0.08411 0.0
C238 C 0.16836 0.92632 0.97413 0.0
O239 O 0.17987 0.93051 0.94313 0.0
N240 N 0.19346 0.95409 1.00873 0.0
C241 C 0.19153 0.96671 0.93127 0.0
C242 C 0.18513 0.95802 0.98188 0.0
C243 C 0.20508 0.96083 0.97399 0.0
N244 N 0.2041 0.96856 0.92657 0.0
O245 O 0.18353 0.95727 0.12659 0.0
H246 H 0.17506 0.95499 0.99942 0.0
H247 H 0.21433 0.96081 0.98502 0.0
O248 O 0.16896 0.93051 0.03471 0.0
C249 C 0.1944 0.96636 0.15661 0.0
O250 O 0.20535 0.96542 0.14913 0.0
N251 N 0.19459 0.93191 0.05538 0.0
C252 C 0.20724 0.91604 0.06198 0.0
C253 C 0.19312 0.90997 0.05499 0.0
C254 C 0.18698 0.91804 0.05305 0.0
C255 C 0.20835 0.93792 0.06034 0.0
C256 C 0.21485 0.93025 0.06267 0.0
H257 H 0.17607 0.91302 0.05601 0.0
H258 H 0.21429 0.94866 0.06977 0.0
H259 H 0.16345 0.93349 0.1749 0.0
H260 H 0.18516 0.92217 0.30213 0.0
H261 H 0.18743 0.97169 0.90157 0.0
H262 H 0.18675 0.89906 0.05615 0.0
H263 H 0.22575 0.93546 0.06858 0.0
C264 C 0.08487 0.25554 0.2125 0.0
C265 C 0.08942 0.25009 0.25928 0.0
N266 N 0.09183 0.24091 0.22963 0.0
N267 N 0.08457 0.24986 0.15412 0.0
C268 C 0.08877 0.24098 0.16594 0.0
H269 H 0.08172 0.26294 0.22048 0.0
Co270 Co 0.07779 0.25235 0.07839 0.0
C271 C 0.09586 0.24981 0.97139 0.0
O272 O 0.09763 0.26121 0.94708 0.0
N273 N 0.07033 0.25499 1.00004 0.0
C274 C 0.06625 0.26407 0.91195 0.0
C275 C 0.07556 0.26581 0.959 0.0
C276 C 0.05782 0.2467 0.97526 0.0
N277 N 0.05512 0.25207 0.92246 0.0
O278 O 0.06071 0.23419 0.0968 0.0
H279 H 0.08554 0.27461 0.96211 0.0
H280 H 0.05058 0.23705 0.99612 0.0
O281 O 0.08808 0.24469 0.02253 0.0
C282 C 0.05245 0.23599 0.13381 0.0
O283 O 0.05552 0.24857 0.14485 0.0
N284 N 0.09284 0.27036 0.07513 0.0
C285 C 0.11258 0.29788 0.09415 0.0
C286 C 0.11627 0.28783 0.08649 0.0
C287 C 0.10626 0.27414 0.07773 0.0
C288 C 0.08907 0.27981 0.08638 0.0
C289 C 0.09865 0.29353 0.09314 0.0
H290 H 0.10929 0.26654 0.07585 0.0
H291 H 0.07842 0.27665 0.08927 0.0
H292 H 0.08957 0.23469 0.12854 0.0
H293 H 0.09065 0.25254 0.31106 0.0
H294 H 0.06754 0.27104 0.87285 0.0
H295 H 0.12676 0.29036 0.08951 0.0
H296 H 0.09498 0.3006 0.09774 0.0
C297 C 0.84087 0.76071 0.38496 0.0
C298 C 0.84952 0.76731 0.33403 0.0
N299 N 0.85999 0.77895 0.35724 0.0
N300 N 0.84602 0.76802 0.44023 0.0
C301 C 0.85765 0.77904 0.42203 0.0
H302 H 0.83116 0.75153 0.38128 0.0
Co303 Co 0.83662 0.76594 0.51575 0.0
C304 C 0.85548 0.76748 0.62921 0.0
O305 O 0.8445 0.75735 0.65397 0.0
N306 N 0.82651 0.76404 0.59278 0.0
C307 C 0.81325 0.75657 0.68093 0.0
C308 C 0.81882 0.75306 0.63057 0.0
C309 C 0.82529 0.77405 0.62175 0.0
N310 N 0.81721 0.76979 0.67515 0.0
O311 O 0.83821 0.78422 0.49535 0.0
H312 H 0.8176 0.74311 0.62446 0.0
H313 H 0.83005 0.78428 0.60343 0.0
O314 O 0.85445 0.77271 0.57385 0.0
C315 C 0.82867 0.78236 0.45423 0.0
O316 O 0.81977 0.7698 0.43871 0.0
N317 N 0.83277 0.7477 0.5205 0.0
C318 C 0.82355 0.72009 0.49676 0.0
C319 C 0.83718 0.72912 0.5135 0.0
C320 C 0.84166 0.74296 0.52403 0.0
C321 C 0.81965 0.73914 0.50254 0.0
C322 C 0.81478 0.72537 0.49236 0.0
H323 H 0.85233 0.74988 0.5317 0.0
H324 H 0.81289 0.74312 0.4955 0.0
H325 H 0.86386 0.78729 0.45511 0.0
H326 H 0.84821 0.76373 0.28387 0.0
H327 H 0.80688 0.74982 0.7191 0.0
H328 H 0.84446 0.72566 0.51558 0.0
H329 H 0.80417 0.71895 0.48027 0.0
C330 C 0.25192 0.07904 0.41613 0.0
C331 C 0.24669 0.08476 0.37463 0.0
N332 N 0.23719 0.08615 0.40754 0.0
N333 N 0.24584 0.07706 0.47485 0.0
C334 C 0.23678 0.08123 0.46794 0.0
H335 H 0.25987 0.0768 0.40503 0.0
Co336 Co 0.24865 0.06935 0.54684 0.0
C337 C 0.24878 0.08984 0.65154 0.0
O338 O 0.26143 0.09326 0.66304 0.0
N339 N 0.25118 0.06072 0.61934 0.0
C340 C 0.25369 0.05377 0.7175 0.0
C341 C 0.25166 0.06308 0.68457 0.0
C342 C 0.25252 0.04961 0.61444 0.0
N343 N 0.25426 0.04532 0.6733 0.0
O344 O 0.23036 0.05241 0.5272 0.0
H345 H 0.24985 0.07043 0.70839 0.0
H346 H 0.25204 0.04462 0.56857 0.0
O347 O 0.24181 0.07998 0.60979 0.0
C348 C 0.23192 0.04538 0.48089 0.0
O349 O 0.24425 0.04988 0.45884 0.0
N350 N 0.26722 0.08415 0.55157 0.0
C351 C 0.29487 0.10316 0.52833 0.0
C352 C 0.28491 0.10701 0.52562 0.0
C353 C 0.27118 0.09734 0.53634 0.0
C354 C 0.27686 0.08036 0.55465 0.0
C355 C 0.29059 0.08965 0.54447 0.0
H356 H 0.26366 0.1004 0.53031 0.0
H357 H 0.27398 0.0699 0.56128 0.0
H358 H 0.23015 0.08087 0.50676 0.0
H359 H 0.2502 0.08836 0.32543 0.0
H360 H 0.25365 0.05265 0.77028 0.0
H361 H 0.2876 0.11724 0.5123 0.0
H362 H 0.29778 0.08608 0.54754 0.0
C363 C 0.93596 0.18344 0.38839 0.0
C364 C 0.93121 0.17603 0.33146 0.0
N365 N 0.93193 0.16468 0.3387 0.0
N366 N 0.93918 0.17649 0.4313 0.0
C367 C 0.93672 0.16516 0.39949 0.0
H368 H 0.93727 0.19339 0.3974 0.0
Co369 Co 0.94788 0.18235 0.50999 0.0
C370 C 0.92975 0.1617 0.61255 0.0
O371 O 0.93199 0.17275 0.64359 0.0
N372 N 0.95753 0.18848 0.58882 0.0
C373 C 0.96842 0.18809 0.67883 0.0
C374 C 0.96002 0.18051 0.62887 0.0
C375 C 0.96549 0.20112 0.61297 0.0
N376 N 0.97178 0.20101 0.66873 0.0
O377 O 0.96295 0.17952 0.47377 0.0
H378 H 0.9566 0.16991 0.62044 0.0
H379 H 0.96758 0.21031 0.58811 0.0
O380 O 0.93548 0.16308 0.55517 0.0
C381 C 0.97194 0.19068 0.44587 0.0
O382 O 0.97029 0.20124 0.45169 0.0
N383 N 0.93477 0.18754 0.53419 0.0
C384 C 0.91674 0.19777 0.52771 0.0
C385 C 0.91196 0.18377 0.52462 0.0
C386 C 0.92109 0.17889 0.52727 0.0
C387 C 0.9395 0.20114 0.53818 0.0
C388 C 0.93073 0.2064 0.5368 0.0
H389 H 0.91722 0.16825 0.51788 0.0
H390 H 0.9502 0.20816 0.53599 0.0
H391 H 0.93861 0.15751 0.42014 0.0
H392 H 0.92781 0.17884 0.28773 0.0
H393 H 0.97268 0.18462 0.71647 0.0
H394 H 0.90136 0.17665 0.51567 0.0
H395 H 0.93505 0.21727 0.53961 0.0
C396 C 0.93737 0.53196 0.4823 0.0
C397 C 0.94381 0.52962 0.53325 0.0
N398 N 0.94312 0.51769 0.52173 0.0
N399 N 0.93245 0.5214 0.44021 0.0
C400 C 0.93606 0.51281 0.46559 0.0
H401 H 0.93641 0.54086 0.47585 0.0
Co402 Co 0.92427 0.52146 0.36366 0.0
C403 C 0.92029 0.49749 0.27526 0.0
O404 O 0.92574 0.50696 0.23051 0.0
N405 N 0.91585 0.52194 0.28686 0.0
C406 C 0.90003 0.51419 0.20959 0.0
C407 C 0.90274 0.51299 0.27394 0.0
C408 C 0.92083 0.52869 0.23004 0.0
N409 N 0.91151 0.52392 0.18168 0.0
O410 O 0.90725 0.51765 0.41829 0.0
H411 H 0.89574 0.50561 0.30837 0.0
H412 H 0.93122 0.53638 0.22269 0.0
O413 O 0.91874 0.501 0.335 0.0
C414 C 0.90668 0.5285 0.4336 0.0
O415 O 0.91534 0.53982 0.40436 0.0
N416 N 0.94158 0.5281 0.32235 0.0
C417 C 0.9698 0.54213 0.29925 0.0
C418 C 0.96258 0.52801 0.30783 0.0
C419 C 0.94862 0.52126 0.32048 0.0
C420 C 0.94848 0.54185 0.31488 0.0
C421 C 0.96243 0.54898 0.30184 0.0
H422 H 0.94384 0.51072 0.33375 0.0
H423 H 0.94321 0.54744 0.32191 0.0
H424 H 0.93347 0.50313 0.4439 0.0
H425 H 0.94859 0.53609 0.57538 0.0
H426 H 0.89029 0.50844 0.18566 0.0
H427 H 0.9678 0.52226 0.30908 0.0
H428 H 0.96742 0.55986 0.29586 0.0
C429 C 0.52015 0.41605 0.50245 0.0
C430 C 0.53098 0.41747 0.5381 0.0
N431 N 0.53876 0.41461 0.49885 0.0
N432 N 0.5212 0.41252 0.44057 0.0
C433 C 0.53245 0.41145 0.44012 0.0
H434 H 0.51183 0.41706 0.52122 0.0
Co435 Co 0.50784 0.40551 0.3789 0.0
C436 C 0.53241 0.43039 0.30555 0.0
O437 O 0.53926 0.4343 0.36079 0.0
N438 N 0.4943 0.39808 0.31645 0.0
C439 C 0.47854 0.39552 0.24424 0.0
C440 C 0.48921 0.40466 0.28181 0.0
C441 C 0.48721 0.38517 0.29591 0.0
N442 N 0.47736 0.38333 0.25361 0.0
O443 O 0.49689 0.38977 0.44874 0.0
H444 H 0.49281 0.4154 0.28463 0.0
H445 H 0.48889 0.37716 0.31349 0.0
O446 O 0.52015 0.42004 0.30721 0.0
C447 C 0.48545 0.37881 0.46127 0.0
O448 O 0.47529 0.37545 0.42074 0.0
N449 N 0.50021 0.41669 0.40901 0.0
C450 C 0.48605 0.43134 0.4105 0.0
C451 C 0.50006 0.43778 0.39756 0.0
C452 C 0.50693 0.43037 0.39823 0.0
C453 C 0.48696 0.41058 0.42848 0.0
C454 C 0.47978 0.41765 0.42963 0.0
H455 H 0.51751 0.43562 0.38605 0.0
H456 H 0.48142 0.39988 0.43797 0.0
H457 H 0.53596 0.40847 0.39733 0.0
H458 H 0.53326 0.42095 0.58845 0.0
H459 H 0.47216 0.39759 0.21258 0.0
H460 H 0.50566 0.44832 0.38334 0.0
H461 H 0.46919 0.41217 0.44316 0.0
C462 C 0.60341 0.10724 0.49938 0.0
C463 C 0.60039 0.11304 0.55091 0.0
N464 N 0.60608 0.12645 0.53944 0.0
N465 N 0.61087 0.11698 0.45544 0.0
C466 C 0.61229 0.12849 0.48107 0.0
H467 H 0.60069 0.09672 0.49597 0.0
Co468 Co 0.62035 0.11809 0.38145 0.0
C469 C 0.60043 0.1116 0.26094 0.0
O470 O 0.60618 0.10518 0.23495 0.0
N471 N 0.63031 0.12049 0.30705 0.0
C472 C 0.63958 0.13107 0.214 0.0
C473 C 0.63351 0.13157 0.27097 0.0
C474 C 0.63478 0.11348 0.27177 0.0
N475 N 0.64036 0.11967 0.21451 0.0
O476 O 0.6374 0.12224 0.44275 0.0
H477 H 0.63113 0.13932 0.28464 0.0
H478 H 0.63404 0.10409 0.28698 0.0
O479 O 0.6043 0.11659 0.31989 0.0
C480 C 0.63907 0.11829 0.50046 0.0
O481 O 0.62848 0.10802 0.5275 0.0
N482 N 0.61274 0.09834 0.38007 0.0
C483 C 0.60073 0.06978 0.36705 0.0
C484 C 0.59302 0.07622 0.36164 0.0
C485 C 0.59911 0.0903 0.36889 0.0
C486 C 0.6203 0.09219 0.38977 0.0
C487 C 0.61455 0.07801 0.38295 0.0
H488 H 0.5926 0.09462 0.36699 0.0
H489 H 0.631 0.09825 0.40028 0.0
H490 H 0.61792 0.13822 0.45718 0.0
H491 H 0.59412 0.1077 0.59261 0.0
H492 H 0.64304 0.13851 0.17514 0.0
H493 H 0.58222 0.07039 0.35257 0.0
H494 H 0.621 0.07362 0.38832 0.0
C495 C 0.84093 0.57578 0.75224 0.0
C496 C 0.82996 0.572 0.71208 0.0
N497 N 0.81882 0.56291 0.74465 0.0
N498 N 0.8366 0.56925 0.80996 0.0
C499 C 0.82312 0.56137 0.80371 0.0
H500 H 0.85138 0.58279 0.74013 0.0
Co501 Co 0.84672 0.56915 0.8786 0.0
C502 C 0.83209 0.57834 0.98918 0.0
O503 O 0.84267 0.59045 0.99741 0.0
N504 N 0.8569 0.56849 0.9473 0.0
C505 C 0.87049 0.57321 0.0335 0.0
C506 C 0.86086 0.57539 1.00463 0.0
C507 C 0.86391 0.56191 0.94345 0.0
N508 N 0.87249 0.56493 0.99396 0.0
O509 O 0.85852 0.56521 0.80965 0.0
H510 H 0.85787 0.58237 0.02236 0.0
H511 H 0.86308 0.55529 0.90347 0.0
O512 O 0.83294 0.57024 0.94656 0.0
C513 C 0.86856 0.57028 0.76823 0.0
O514 O 0.8754 0.5835 0.76128 0.0
N515 N 0.85813 0.58894 0.87527 0.0
C516 C 0.87326 0.61728 0.89718 0.0
C517 C 0.85941 0.61078 0.88173 0.0
C518 C 0.85212 0.59673 0.86999 0.0
C519 C 0.87185 0.59529 0.88538 0.0
C520 C 0.87956 0.60938 0.89636 0.0
H521 H 0.84134 0.592 0.86152 0.0
H522 H 0.87688 0.58939 0.88843 0.0
H523 H 0.8166 0.55472 0.84189 0.0
H524 H 0.83013 0.57557 0.66269 0.0
H525 H 0.87612 0.57791 0.07794 0.0
H526 H 0.8541 0.61644 0.88052 0.0
H527 H 0.89026 0.61392 0.90737 0.0
C528 C 0.42948 0.2695 0.76466 0.0
C529 C 0.43373 0.2653 0.71111 0.0
N530 N 0.44533 0.2656 0.72753 0.0
N531 N 0.43825 0.27209 0.81443 0.0
C532 C 0.4478 0.2697 0.79045 0.0
H533 H 0.42092 0.27113 0.76634 0.0
Co534 Co 0.43939 0.28092 0.89013 0.0
C535 C 0.44356 0.26505 1.00239 0.0
O536 O 0.43462 0.26724 0.03224 0.0
N537 N 0.44095 0.29052 0.96636 0.0
C538 C 0.44989 0.30193 0.05858 0.0
C539 C 0.45191 0.29563 1.00606 0.0
C540 C 0.43272 0.29445 0.99406 0.0
N541 N 0.43776 0.30105 0.05092 0.0
O542 O 0.45695 0.2971 0.8547 0.0
H543 H 0.46088 0.29492 0.99691 0.0
H544 H 0.42352 0.29318 0.97249 0.0
O545 O 0.44735 0.27004 0.94314 0.0
C546 C 0.45392 0.30522 0.82339 0.0
O547 O 0.4413 0.30247 0.8271 0.0
N548 N 0.42137 0.26709 0.91103 0.0
C549 C 0.39327 0.24903 0.91998 0.0
C550 C 0.40261 0.24447 0.9282 0.0
C551 C 0.4166 0.25359 0.92175 0.0
C552 C 0.41237 0.27138 0.89861 0.0
C553 C 0.39844 0.26274 0.90478 0.0
H554 H 0.42344 0.24963 0.92289 0.0
H555 H 0.41602 0.28157 0.88111 0.0
H556 H 0.45655 0.27121 0.81828 0.0
H557 H 0.42887 0.26254 0.66347 0.0
H558 H 0.45712 0.30753 0.09708 0.0
H559 H 0.39913 0.23386 0.93695 0.0
H560 H 0.3918 0.26684 0.89677 0.0
C561 C 0.76007 0.1624 0.79699 0.0
C562 C 0.76509 0.17045 0.74227 0.0
N563 N 0.76285 0.18091 0.74928 0.0
N564 N 0.75506 0.16808 0.83824 0.0
C565 C 0.7569 0.17931 0.80801 0.0
H566 H 0.75949 0.15274 0.80479 0.0
Co567 Co 0.74424 0.16042 0.90906 0.0
C568 C 0.76087 0.1813 0.01997 0.0
O569 O 0.75893 0.17049 0.05217 0.0
N570 N 0.73255 0.15211 0.97868 0.0
C571 C 0.71998 0.14669 0.06855 0.0
C572 C 0.73023 0.15709 0.03421 0.0
C573 C 0.7229 0.1389 0.97816 0.0
N574 N 0.71548 0.13523 0.03329 0.0
O575 O 0.72915 0.16282 0.862 0.0
H576 H 0.73495 0.16765 0.04751 0.0
H577 H 0.721 0.1322 0.93686 0.0
O578 O 0.75491 0.17942 0.96254 0.0
C579 C 0.72298 0.15348 0.81704 0.0
O580 O 0.7271 0.14463 0.81112 0.0
N581 N 0.75708 0.15531 0.94268 0.0
C582 C 0.77436 0.14498 0.9764 0.0
C583 C 0.77955 0.15893 0.96558 0.0
C584 C 0.77082 0.16383 0.94747 0.0
C585 C 0.75207 0.14171 0.95035 0.0
C586 C 0.76035 0.13644 0.96863 0.0
H587 H 0.77517 0.17445 0.93585 0.0
H588 H 0.74168 0.13461 0.93927 0.0
H589 H 0.7535 0.18592 0.82776 0.0
H590 H 0.76954 0.16851 0.69968 0.0
H591 H 0.71544 0.14766 0.11336 0.0
H592 H 0.79034 0.16596 0.96868 0.0
H593 H 0.7557 0.12561 0.97553 0.0
C594 C 0.43941 0.18011 0.54466 0.0
C595 C 0.44654 0.19067 0.58741 0.0
N596 N 0.45712 0.2007 0.55493 0.0
N597 N 0.44533 0.18363 0.4854 0.0
C598 C 0.4561 0.19609 0.49312 0.0
H599 H 0.4307 0.17041 0.55638 0.0
Co600 Co 0.4422 0.17285 0.4144 0.0
C601 C 0.44281 0.19 0.29448 0.0
O602 O 0.43273 0.17851 0.27295 0.0
N603 N 0.4394 0.16166 0.34168 0.0
C604 C 0.43148 0.14664 0.25992 0.0
C605 C 0.42801 0.15208 0.31135 0.0
C606 C 0.44958 0.16183 0.30732 0.0
N607 N 0.44505 0.15277 0.25803 0.0
O608 O 0.46054 0.17429 0.43364 0.0
H609 H 0.41775 0.14918 0.32435 0.0
H610 H 0.46021 0.16847 0.318 0.0
O611 O 0.44853 0.18977 0.34977 0.0
C612 C 0.45856 0.16431 0.47192 0.0
O613 O 0.44593 0.15508 0.48371 0.0
N614 N 0.4238 0.1689 0.41254 0.0
C615 C 0.39603 0.15876 0.43757 0.0
C616 C 0.40415 0.17172 0.40993 0.0
C617 C 0.41813 0.17676 0.39928 0.0
C618 C 0.4161 0.15654 0.44114 0.0
C619 C 0.40232 0.15123 0.45293 0.0
H620 H 0.42434 0.18706 0.38264 0.0
H621 H 0.42078 0.15066 0.45487 0.0
H622 H 0.46326 0.20148 0.45439 0.0
H623 H 0.44387 0.19103 0.63802 0.0
H624 H 0.42459 0.1385 0.22785 0.0
H625 H 0.39985 0.17809 0.39894 0.0
H626 H 0.39662 0.14121 0.47409 0.0
C627 C 0.84141 0.2694 0.55532 0.0
C628 C 0.83002 0.26402 0.59375 0.0
N629 N 0.81934 0.26148 0.55536 0.0
N630 N 0.83784 0.27 0.49306 0.0
C631 C 0.82443 0.26532 0.4946 0.0
H632 H 0.85162 0.27265 0.57156 0.0
Co633 Co 0.84931 0.27771 0.42457 0.0
C634 C 0.83304 0.26239 0.29838 0.0
O635 O 0.84481 0.26496 0.27494 0.0
N636 N 0.86123 0.28615 0.35508 0.0
C637 C 0.87799 0.29428 0.28244 0.0
C638 C 0.87203 0.28537 0.33329 0.0
C639 C 0.86083 0.29552 0.31632 0.0
N640 N 0.87095 0.30069 0.27212 0.0
O641 O 0.84842 0.29498 0.44297 0.0
H642 H 0.87565 0.27898 0.35276 0.0
H643 H 0.85329 0.29858 0.32084 0.0
O644 O 0.83292 0.26736 0.35615 0.0
C645 C 0.85855 0.30277 0.48141 0.0
O646 O 0.86746 0.29894 0.49335 0.0
N647 N 0.85273 0.26299 0.42393 0.0
C648 C 0.8622 0.24485 0.44942 0.0
C649 C 0.84993 0.24059 0.41529 0.0
C650 C 0.84521 0.24977 0.40412 0.0
C651 C 0.8643 0.26702 0.45926 0.0
C652 C 0.86932 0.25832 0.47122 0.0
H653 H 0.83542 0.24607 0.38158 0.0
H654 H 0.86988 0.2773 0.47746 0.0
H655 H 0.8185 0.26478 0.4521 0.0
H656 H 0.82958 0.26158 0.64532 0.0
H657 H 0.88713 0.29629 0.25699 0.0
H658 H 0.84384 0.23019 0.39909 0.0
H659 H 0.87887 0.26227 0.49709 0.0
C660 C 0.74679 0.57787 0.52894 0.0
C661 C 0.748 0.57061 0.57954 0.0
N662 N 0.74653 0.55895 0.55496 0.0
N663 N 0.74491 0.57094 0.47267 0.0
C664 C 0.74481 0.55951 0.48985 0.0
H665 H 0.74655 0.58719 0.53349 0.0
Co666 Co 0.738 0.5734 0.397 0.0
C667 C 0.75473 0.57147 0.283 0.0
O668 O 0.75361 0.58153 0.25891 0.0
N669 N 0.73018 0.5755 0.31994 0.0
C670 C 0.72335 0.58237 0.2331 0.0
C671 C 0.73187 0.5865 0.28642 0.0
C672 C 0.72063 0.56488 0.28548 0.0
N673 N 0.71628 0.56878 0.23308 0.0
O674 O 0.72085 0.55542 0.41694 0.0
H675 H 0.73883 0.59694 0.29848 0.0
H676 H 0.71678 0.5544 0.29865 0.0
O677 O 0.74877 0.56628 0.33897 0.0
C678 C 0.71266 0.55783 0.45126 0.0
O679 O 0.71595 0.57056 0.45866 0.0
N680 N 0.7528 0.59145 0.39269 0.0
C681 C 0.77184 0.61886 0.41725 0.0
C682 C 0.77603 0.60961 0.39859 0.0
C683 C 0.76635 0.59586 0.38779 0.0
C684 C 0.74867 0.60022 0.41283 0.0
C685 C 0.75788 0.6139 0.42344 0.0
H686 H 0.76982 0.58876 0.37876 0.0
H687 H 0.73802 0.59648 0.42137 0.0
H688 H 0.74267 0.55141 0.45563 0.0
H689 H 0.74986 0.57375 0.63043 0.0
H690 H 0.72203 0.58885 0.19869 0.0
H691 H 0.78669 0.61281 0.39519 0.0
H692 H 0.754 0.6205 0.43721 0.0
C693 C 0.51078 0.10268 0.7071 0.0
C694 C 0.52066 0.10923 0.66075 0.0
N695 N 0.53177 0.11903 0.69123 0.0
N696 N 0.51578 0.10821 0.76627 0.0
C697 C 0.52853 0.11816 0.75522 0.0
H698 H 0.50043 0.09485 0.69796 0.0
Co699 Co 0.50576 0.10567 0.83927 0.0
C700 C 0.52335 0.10537 0.95534 0.0
O701 O 0.51199 0.09459 0.97224 0.0
N702 N 0.495 0.10325 0.9141 0.0
C703 C 0.48096 0.09527 0.99927 0.0
C704 C 0.48676 0.092 0.94901 0.0
C705 C 0.49394 0.1132 0.94472 0.0
N706 N 0.48539 0.10864 0.99631 0.0
O707 O 0.50779 0.12425 0.82048 0.0
H708 H 0.48524 0.08198 0.94081 0.0
H709 H 0.49921 0.1236 0.92885 0.0
O710 O 0.52306 0.11178 0.90258 0.0
C711 C 0.49778 0.12249 0.7828 0.0
O712 O 0.48817 0.10994 0.77218 0.0
N713 N 0.50134 0.08718 0.84 0.0
C714 C 0.49122 0.05975 0.80614 0.0
C715 C 0.50473 0.06799 0.82751 0.0
C716 C 0.50969 0.08178 0.8429 0.0
C717 C 0.48837 0.07937 0.8179 0.0
C718 C 0.48305 0.06571 0.80253 0.0
H719 H 0.52033 0.08819 0.85394 0.0
H720 H 0.48207 0.0839 0.81128 0.0
H721 H 0.53519 0.12481 0.79319 0.0
H722 H 0.51966 0.10714 0.60859 0.0
H723 H 0.47412 0.08827 0.03541 0.0
H724 H 0.51157 0.064 0.82935 0.0
H725 H 0.47258 0.05992 0.78687 0.0
C726 C 0.918 0.41353 0.72177 0.0
C727 C 0.92006 0.42425 0.68301 0.0
N728 N 0.92419 0.43512 0.72224 0.0
N729 N 0.92071 0.41776 0.7847 0.0
C730 C 0.92431 0.43091 0.78346 0.0
H731 H 0.91554 0.40359 0.70457 0.0
Co732 Co 0.92216 0.40845 0.85369 0.0
C733 C 0.91986 0.42277 0.98149 0.0
O734 O 0.92761 0.41877 1.00983 0.0
N735 N 0.92356 0.39866 0.92294 0.0
C736 C 0.93021 0.38849 0.99453 0.0
C737 C 0.93431 0.39779 0.94475 0.0
C738 C 0.9131 0.38981 0.96013 0.0
N739 N 0.91686 0.38345 1.00389 0.0
O740 O 0.90322 0.39251 0.82989 0.0
H741 H 0.94445 0.40324 0.92535 0.0
H742 H 0.90288 0.38797 0.95469 0.0
O743 O 0.9163 0.41919 0.92038 0.0
C744 C 0.9043 0.38315 0.79804 0.0
O745 O 0.91646 0.38458 0.79471 0.0
N746 N 0.94104 0.42194 0.86062 0.0
C747 C 0.96906 0.4388 0.83741 0.0
C748 C 0.96184 0.44325 0.87652 0.0
C749 C 0.94782 0.43463 0.88795 0.0
C750 C 0.94791 0.41776 0.82099 0.0
C751 C 0.96184 0.42581 0.81001 0.0
H752 H 0.94248 0.43847 0.91623 0.0
H753 H 0.94244 0.40795 0.79739 0.0
H754 H 0.9277 0.4375 0.82594 0.0
H755 H 0.91955 0.42434 0.62996 0.0
H756 H 0.93646 0.38524 0.01973 0.0
H757 H 0.96698 0.45331 0.89787 0.0
H758 H 0.96686 0.42201 0.77861 0.0
C759 C 0.59584 0.51013 0.69441 0.0
C760 C 0.59272 0.5013 0.64283 0.0
N761 N 0.59441 0.49101 0.663 0.0
N762 N 0.59912 0.50517 0.74701 0.0
C763 C 0.59822 0.49354 0.72634 0.0
H764 H 0.59631 0.51983 0.69266 0.0
Co765 Co 0.60728 0.5145 0.82192 0.0
C766 C 0.59039 0.4964 0.93677 0.0
O767 O 0.59168 0.50773 0.95976 0.0
N768 N 0.6163 0.52449 0.89804 0.0
C769 C 0.62354 0.53791 0.98604 0.0
C770 C 0.61426 0.53307 0.93606 0.0
C771 C 0.62693 0.52437 0.92669 0.0
N772 N 0.63162 0.53252 0.97985 0.0
O773 O 0.62344 0.51216 0.79755 0.0
H774 H 0.60625 0.53541 0.93061 0.0
H775 H 0.6313 0.51853 0.90837 0.0
O776 O 0.59639 0.49689 0.88129 0.0
C777 C 0.63187 0.52227 0.76136 0.0
O778 O 0.62935 0.53224 0.75365 0.0
N779 N 0.59322 0.51891 0.83065 0.0
C780 C 0.5748 0.52836 0.81246 0.0
C781 C 0.57023 0.51468 0.82762 0.0
C782 C 0.57958 0.5101 0.8352 0.0
C783 C 0.59773 0.53206 0.81365 0.0
C784 C 0.58884 0.53705 0.80629 0.0
H785 H 0.57577 0.49938 0.84136 0.0
H786 H 0.60843 0.53877 0.80506 0.0
H787 H 0.60067 0.48725 0.75658 0.0
H788 H 0.58979 0.5025 0.59382 0.0
H789 H 0.6241 0.54475 0.02431 0.0
H790 H 0.55951 0.50743 0.83063 0.0
H791 H 0.59302 0.54768 0.79497 0.0
C792 C 0.60351 0.8524 0.82131 0.0
C793 C 0.60063 0.84588 0.88091 0.0
N794 N 0.58753 0.83611 0.8798 0.0
N795 N 0.59233 0.84638 0.78305 0.0
C796 C 0.58282 0.83645 0.81986 0.0
H797 H 0.61281 0.86151 0.80852 0.0
Co798 Co 0.5886 0.8533 0.71075 0.0
C799 C 0.5833 0.83192 0.60206 0.0
O800 O 0.59186 0.84259 0.56819 0.0
N801 N 0.58457 0.86082 0.6407 0.0
C802 C 0.57438 0.8651 0.5592 0.0
C803 C 0.57569 0.85519 0.5906 0.0
C804 C 0.58783 0.87391 0.64099 0.0
N805 N 0.58204 0.87686 0.59132 0.0
O806 O 0.57155 0.85155 0.75924 0.0
H807 H 0.56956 0.84448 0.58075 0.0
H808 H 0.59362 0.88096 0.67965 0.0
O809 O 0.5798 0.83398 0.6606 0.0
C810 C 0.5747 0.86191 0.79788 0.0
O811 O 0.58756 0.87127 0.80018 0.0
N812 N 0.60616 0.8579 0.67434 0.0
C813 C 0.63329 0.86734 0.63588 0.0
C814 C 0.62465 0.85368 0.65262 0.0
C815 C 0.61119 0.84919 0.67216 0.0
C816 C 0.61474 0.8713 0.66127 0.0
C817 C 0.62807 0.87612 0.64067 0.0
H818 H 0.6049 0.83876 0.68708 0.0
H819 H 0.61166 0.87865 0.66979 0.0
H820 H 0.57239 0.83012 0.80441 0.0
H821 H 0.60732 0.84856 0.92289 0.0
H822 H 0.56735 0.86355 0.51982 0.0
H823 H 0.62828 0.84653 0.6511 0.0
H824 H 0.63446 0.88686 0.63137 0.0
C825 C 0.17973 0.7607 0.83429 0.0
C826 C 0.18749 0.76496 0.89039 0.0
N827 N 0.19826 0.7633 0.8812 0.0
N828 N 0.18587 0.75676 0.79007 0.0
C829 C 0.19713 0.75851 0.81987 0.0
H830 H 0.16987 0.75974 0.82802 0.0
Co831 Co 0.17869 0.74642 0.71721 0.0
C832 C 0.19902 0.76092 0.60264 0.0
O833 O 0.18799 0.75681 0.5673 0.0
N834 N 0.17121 0.73539 0.64482 0.0
C835 C 0.1688 0.72175 0.56194 0.0
C836 C 0.17705 0.72929 0.61272 0.0
C837 C 0.15924 0.73106 0.61415 0.0
N838 N 0.15764 0.72297 0.56297 0.0
O839 O 0.18161 0.73151 0.76149 0.0
H840 H 0.18667 0.73021 0.62588 0.0
H841 H 0.15157 0.73335 0.62935 0.0
O842 O 0.19755 0.75749 0.66484 0.0
C843 C 0.17096 0.72299 0.79503 0.0
O844 O 0.16033 0.72457 0.79074 0.0
N845 N 0.17308 0.75892 0.68674 0.0
C846 C 0.16047 0.77426 0.65634 0.0
C847 C 0.17446 0.77953 0.64618 0.0
C848 C 0.18063 0.77185 0.6632 0.0
C849 C 0.15977 0.75415 0.70125 0.0
C850 C 0.15323 0.76138 0.68508 0.0
H851 H 0.19148 0.77654 0.65896 0.0
H852 H 0.15408 0.7445 0.72579 0.0
H853 H 0.20405 0.75574 0.79791 0.0
H854 H 0.18513 0.76843 0.93529 0.0
H855 H 0.17053 0.71531 0.52903 0.0
H856 H 0.18069 0.78966 0.62704 0.0
H857 H 0.1425 0.75676 0.69492 0.0
C858 C 0.26079 0.41595 0.81916 0.0
C859 C 0.257 0.42048 0.87323 0.0
N860 N 0.26169 0.43382 0.86546 0.0
N861 N 0.26754 0.42639 0.77747 0.0
C862 C 0.26789 0.43711 0.80688 0.0
H863 H 0.25933 0.4059 0.81239 0.0
Co864 Co 0.27769 0.42716 0.707 0.0
C865 C 0.26782 0.4459 0.62928 0.0
O866 O 0.27659 0.45754 0.65601 0.0
N867 N 0.28799 0.4276 0.63746 0.0
C868 C 0.29374 0.42368 0.53969 0.0
C869 C 0.285 0.42655 0.57294 0.0
C870 C 0.29848 0.42536 0.64244 0.0
N871 N 0.30209 0.42276 0.58371 0.0
O872 O 0.29396 0.4451 0.74567 0.0
H873 H 0.27658 0.42708 0.55169 0.0
H874 H 0.30289 0.42493 0.68873 0.0
O875 O 0.2682 0.43519 0.64752 0.0
C876 C 0.30077 0.44313 0.79209 0.0
O877 O 0.29673 0.4305 0.80754 0.0
N878 N 0.26397 0.40926 0.67975 0.0
C879 C 0.24665 0.38174 0.64423 0.0
C880 C 0.24241 0.39143 0.63883 0.0
C881 C 0.25118 0.40511 0.65689 0.0
C882 C 0.26809 0.39997 0.68689 0.0
C883 C 0.25981 0.38639 0.66857 0.0
H884 H 0.24758 0.41223 0.65334 0.0
H885 H 0.27803 0.40313 0.70688 0.0
H886 H 0.27301 0.44725 0.78678 0.0
H887 H 0.25171 0.41459 0.916 0.0
H888 H 0.29401 0.4225 0.48709 0.0
H889 H 0.2323 0.38849 0.62185 0.0
H890 H 0.2639 0.37968 0.67303 0.0
C891 C 0.54138 0.93689 0.10924 0.0
C892 C 0.53627 0.94043 0.05672 0.0
N893 N 0.52269 0.93338 0.06113 0.0
N894 N 0.53101 0.92788 0.1465 0.0
C895 C 0.51973 0.92582 0.1158 0.0
H896 H 0.55197 0.94078 0.12036 0.0
Co897 Co 0.5333 0.92105 0.22242 0.0
C898 C 0.51 0.9161 0.31777 0.0
O899 O 0.5198 0.92251 0.36044 0.0
N900 N 0.53591 0.91399 0.29937 0.0
C901 C 0.53096 0.89929 0.38027 0.0
C902 C 0.52829 0.90086 0.31628 0.0
C903 C 0.54328 0.92015 0.35357 0.0
N904 N 0.54025 0.91152 0.40406 0.0
O905 O 0.52946 0.9036 0.17026 0.0
H906 H 0.5208 0.89301 0.285 0.0
H907 H 0.55017 0.93085 0.35781 0.0
O908 O 0.51316 0.91446 0.25769 0.0
C909 C 0.54041 0.90438 0.14552 0.0
O910 O 0.55193 0.91509 0.16232 0.0
N911 N 0.53979 0.93882 0.26088 0.0
C912 C 0.55305 0.96699 0.28902 0.0
C913 C 0.53884 0.95921 0.28363 0.0
C914 C 0.53246 0.94529 0.2679 0.0
C915 C 0.55361 0.94635 0.26344 0.0
C916 C 0.56037 0.96023 0.27874 0.0
H917 H 0.52172 0.93999 0.25797 0.0
H918 H 0.55952 0.94156 0.25235 0.0
H919 H 0.50959 0.91923 0.13399 0.0
H920 H 0.542 0.94762 0.01851 0.0
H921 H 0.52645 0.88981 0.40673 0.0
H922 H 0.5327 0.96396 0.28818 0.0
H923 H 0.57133 0.96564 0.28155 0.0
C924 C 0.1102 0.6149 0.09499 0.0
C925 C 0.10563 0.60343 0.05727 0.0
N926 N 0.10831 0.59475 0.0898 0.0
N927 N 0.11575 0.61335 0.15032 0.0
C928 C 0.11466 0.60113 0.14544 0.0
H929 H 0.10872 0.62339 0.08505 0.0
Co930 Co 0.11949 0.62395 0.22214 0.0
C931 C 0.12444 0.6091 0.3392 0.0
O932 O 0.11799 0.61383 0.37382 0.0
N933 N 0.12324 0.63508 0.29397 0.0
C934 C 0.13441 0.64891 0.37632 0.0
C935 C 0.13526 0.64148 0.32538 0.0
C936 C 0.11536 0.63898 0.32556 0.0
N937 N 0.12184 0.64724 0.37628 0.0
O938 O 0.13729 0.63848 0.1771 0.0
H939 H 0.14408 0.64083 0.31171 0.0
H940 H 0.10516 0.63612 0.31164 0.0
O941 O 0.1267 0.61252 0.27695 0.0
C942 C 0.13543 0.64771 0.14858 0.0
O943 O 0.12374 0.64701 0.15942 0.0
N944 N 0.10134 0.61181 0.2512 0.0
C945 C 0.07293 0.59554 0.26266 0.0
C946 C 0.08157 0.59054 0.28001 0.0
C947 C 0.0957 0.5987 0.27258 0.0
C948 C 0.09302 0.61654 0.23155 0.0
C949 C 0.07896 0.60881 0.23842 0.0
H950 H 0.10181 0.59406 0.2803 0.0
H951 H 0.09736 0.62642 0.20891 0.0
H952 H 0.11786 0.59672 0.18332 0.0
H953 H 0.1001 0.60136 1.01152 0.0
H954 H 0.1426 0.65554 0.40882 0.0
H955 H 0.07745 0.58017 0.29619 0.0
H956 H 0.07288 0.61323 0.22385 0.0
C957 C 0.4184 0.49417 0.09891 0.0
C958 C 0.42313 0.50202 0.04345 0.0
N959 N 0.42079 0.51241 0.05001 0.0
N960 N 0.41346 0.49987 0.14067 0.0
C961 C 0.41507 0.51093 0.10919 0.0
H962 H 0.41806 0.48463 0.10555 0.0
Co963 Co 0.40274 0.49376 0.21447 0.0
C964 C 0.42657 0.52179 0.26393 0.0
O965 O 0.43454 0.51956 0.22585 0.0
N966 N 0.39186 0.48791 0.28619 0.0
C967 C 0.37963 0.48761 0.3708 0.0
C968 C 0.38823 0.49548 0.32229 0.0
C969 C 0.38533 0.47546 0.31285 0.0
N970 N 0.37779 0.47503 0.36452 0.0
O971 O 0.38789 0.49584 0.1627 0.0
H972 H 0.39127 0.50596 0.31285 0.0
H973 H 0.38563 0.4668 0.29304 0.0
O974 O 0.41359 0.51322 0.26025 0.0
C975 C 0.37935 0.48467 0.13202 0.0
O976 O 0.38088 0.47413 0.14197 0.0
N977 N 0.41475 0.4885 0.25586 0.0
C978 C 0.43052 0.47724 0.30087 0.0
C979 C 0.42139 0.47143 0.24851 0.0
C980 C 0.41337 0.47692 0.22849 0.0
C981 C 0.4227 0.49364 0.31078 0.0
C982 C 0.43079 0.48828 0.33348 0.0
H983 H 0.4059 0.47184 0.19032 0.0
H984 H 0.42269 0.50171 0.3385 0.0
H985 H 0.41181 0.51764 0.12903 0.0
H986 H 0.4275 0.5 1.00079 0.0
H987 H 0.37477 0.49077 0.40671 0.0
H988 H 0.42024 0.46249 0.22377 0.0
H989 H 0.43726 0.49281 0.37585 0.0
C990 C 0.10176 0.49893 0.83488 0.0
C991 C 0.09906 0.50293 0.89353 0.0
N992 N 0.10619 0.51652 0.89538 0.0
N993 N 0.11027 0.50998 0.79987 0.0
C994 C 0.11296 0.52061 0.83818 0.0
H995 H 0.09757 0.4886 0.81784 0.0
Co996 Co 0.11568 0.50796 0.71928 0.0
C997 C 0.1181 0.53094 0.62872 0.0
O998 O 0.11012 0.52068 0.59078 0.0
N999 N 0.1214 0.50497 0.63898 0.0
C1000 C 0.13468 0.50782 0.5536 0.0
C1001 C 0.13202 0.51422 0.60342 0.0
C1002 C 0.11835 0.49296 0.61203 0.0
N1003 N 0.1261 0.49444 0.55942 0.0
O1004 O 0.13357 0.5114 0.76241 0.0
H1005 H 0.13816 0.52483 0.61558 0.0
H1006 H 0.11141 0.48327 0.63345 0.0
O1007 O 0.12184 0.52827 0.68548 0.0
C1008 C 0.13246 0.5002 0.78538 0.0
O1009 O 0.12139 0.48891 0.76962 0.0
N1010 N 0.09734 0.50212 0.68923 0.0
C1011 C 0.06888 0.49023 0.70346 0.0
C1012 C 0.07756 0.50421 0.7117 0.0
C1013 C 0.09163 0.50993 0.70437 0.0
C1014 C 0.08893 0.48857 0.67799 0.0
C1015 C 0.07475 0.48251 0.68363 0.0
H1016 H 0.09795 0.5204 0.71847 0.0
H1017 H 0.09307 0.48199 0.67202 0.0
H1018 H 0.11928 0.53107 0.82358 0.0
H1019 H 0.09222 0.49645 0.93127 0.0
H1020 H 0.14304 0.51249 0.51941 0.0
H1021 H 0.07358 0.51063 0.72734 0.0
H1022 H 0.06854 0.47163 0.67804 0.0
C1023 C 0.50091 0.5999 0.85753 0.0
C1024 C 0.48982 0.59453 0.89803 0.0
N1025 N 0.4791 0.59318 0.86339 0.0
N1026 N 0.49708 0.60168 0.79769 0.0
C1027 C 0.48386 0.59771 0.80279 0.0
H1028 H 0.51106 0.60225 0.87047 0.0
Co1029 Co 0.50798 0.60968 0.7277 0.0
C1030 C 0.49003 0.59167 0.60951 0.0
O1031 O 0.50075 0.59117 0.5907 0.0
N1032 N 0.5195 0.61842 0.65546 0.0
C1033 C 0.53334 0.62381 0.56939 0.0
C1034 C 0.52602 0.61407 0.61511 0.0
C1035 C 0.52327 0.63098 0.63312 0.0
N1036 N 0.53162 0.63441 0.58125 0.0
O1037 O 0.50635 0.62648 0.74892 0.0
H1038 H 0.52557 0.6044 0.61761 0.0
H1039 H 0.51992 0.63756 0.65352 0.0
O1040 O 0.49109 0.59897 0.6614 0.0
C1041 C 0.51564 0.63388 0.79214 0.0
O1042 O 0.52442 0.63008 0.8077 0.0
N1043 N 0.51201 0.59536 0.72521 0.0
C1044 C 0.5218 0.57739 0.748 0.0
C1045 C 0.50813 0.57253 0.73081 0.0
C1046 C 0.50336 0.58168 0.721 0.0
C1047 C 0.52509 0.60013 0.7445 0.0
C1048 C 0.53025 0.59145 0.75425 0.0
H1049 H 0.49268 0.57775 0.71244 0.0
H1050 H 0.53165 0.61088 0.75232 0.0
H1051 H 0.47784 0.59811 0.76277 0.0
H1052 H 0.48954 0.59123 0.94807 0.0
H1053 H 0.53964 0.62326 0.53114 0.0
H1054 H 0.50107 0.56175 0.72743 0.0
H1055 H 0.54085 0.59585 0.76698 0.0
C1056 C 0.42318 0.92585 0.83354 0.0
C1057 C 0.43424 0.93144 0.87456 0.0
N1058 N 0.44318 0.92801 0.8515 0.0
N1059 N 0.42524 0.91895 0.78548 0.0
C1060 C 0.43736 0.92022 0.79829 0.0
H1061 H 0.41459 0.92742 0.83598 0.0
Co1062 Co 0.4149 0.91283 0.71186 0.0
C1063 C 0.43177 0.90906 0.60379 0.0
O1064 O 0.42668 0.91482 0.5666 0.0
N1065 N 0.40391 0.90636 0.6382 0.0
C1066 C 0.39123 0.89143 0.56199 0.0
C1067 C 0.39926 0.89363 0.61587 0.0
C1068 C 0.39843 0.91168 0.59753 0.0
N1069 N 0.39071 0.90279 0.55064 0.0
O1070 O 0.40188 0.89531 0.76168 0.0
H1071 H 0.40161 0.8864 0.6376 0.0
H1072 H 0.39966 0.92165 0.60281 0.0
O1073 O 0.42804 0.90684 0.6656 0.0
C1074 C 0.39204 0.89663 0.78627 0.0
O1075 O 0.39169 0.90756 0.76923 0.0
N1076 N 0.42565 0.93073 0.67698 0.0
C1077 C 0.44112 0.95928 0.68661 0.0
C1078 C 0.44732 0.95148 0.67432 0.0
C1079 C 0.43947 0.93729 0.67028 0.0
C1080 C 0.41946 0.93822 0.686 0.0
C1081 C 0.4269 0.9524 0.6896 0.0
H1082 H 0.44481 0.93172 0.66943 0.0
H1083 H 0.40878 0.93316 0.69753 0.0
H1084 H 0.44212 0.91607 0.76749 0.0
H1085 H 0.43588 0.93809 0.9158 0.0
H1086 H 0.38608 0.88215 0.53373 0.0
H1087 H 0.45824 0.95616 0.67327 0.0
H1088 H 0.42153 0.95783 0.69856 0.0
C1089 C 0.19367 0.45019 0.04273 0.0
C1090 C 0.20581 0.45828 1.01221 0.0
N1091 N 0.2153 0.46519 0.05857 0.0
N1092 N 0.19554 0.45181 0.10796 0.0
C1093 C 0.20871 0.46109 0.11623 0.0
H1094 H 0.18407 0.44364 0.019 0.0
Co1095 Co 0.18203 0.4451 0.16852 0.0
C1096 C 0.19571 0.44492 0.30308 0.0
O1097 O 0.18369 0.43528 0.32158 0.0
N1098 N 0.16794 0.43852 0.22955 0.0
C1099 C 0.149 0.42645 0.28684 0.0
C1100 C 0.15715 0.42597 0.2387 0.0
C1101 C 0.1661 0.44637 0.27304 0.0
N1102 N 0.15467 0.4393 0.30825 0.0
O1103 O 0.18136 0.46274 0.15742 0.0
H1104 H 0.155 0.41693 0.21215 0.0
H1105 H 0.17281 0.4572 0.27726 0.0
O1106 O 0.19665 0.45056 0.246 0.0
C1107 C 0.17207 0.46072 0.11404 0.0
O1108 O 0.16426 0.44821 0.09382 0.0
N1109 N 0.18048 0.42769 0.16141 0.0
C1110 C 0.17168 0.40011 0.13764 0.0
C1111 C 0.1828 0.40803 0.17944 0.0
C1112 C 0.18716 0.42186 0.19016 0.0
C1113 C 0.17062 0.42053 0.11616 0.0
C1114 C 0.16585 0.4068 0.10495 0.0
H1115 H 0.19582 0.42767 0.22128 0.0
H1116 H 0.16568 0.42532 0.09183 0.0
H1117 H 0.21342 0.46487 0.1635 0.0
H1118 H 0.20761 0.45852 0.95996 0.0
H1119 H 0.13954 0.41805 0.30406 0.0
H1120 H 0.18813 0.40363 0.20384 0.0
H1121 H 0.1572 0.40145 0.0728 0.0
C1122 C 0.56965 0.74831 0.04164 0.0
C1123 C 0.56277 0.75396 1.01268 0.0
N1124 N 0.55654 0.75712 0.06009 0.0
N1125 N 0.56801 0.74818 0.10703 0.0
C1126 C 0.55981 0.75336 0.11666 0.0
H1127 H 0.57542 0.7445 0.0166 0.0
Co1128 Co 0.57364 0.74018 0.16731 0.0
C1129 C 0.57148 0.75182 0.30693 0.0
O1130 O 0.57881 0.74706 0.33277 0.0
N1131 N 0.57902 0.73159 0.22758 0.0
C1132 C 0.5902 0.72478 0.2918 0.0
C1133 C 0.59141 0.73348 0.24232 0.0
C1134 C 0.57049 0.72157 0.26767 0.0
N1135 N 0.57701 0.7173 0.30787 0.0
O1136 O 0.55567 0.72245 0.15035 0.0
H1137 H 0.6008 0.74076 0.21951 0.0
H1138 H 0.55968 0.71757 0.26731 0.0
O1139 O 0.56801 0.74909 0.24521 0.0
C1140 C 0.55772 0.71528 0.10654 0.0
O1141 O 0.57031 0.71977 0.08859 0.0
N1142 N 0.59155 0.75561 0.16622 0.0
C1143 C 0.61949 0.77358 0.14898 0.0
C1144 C 0.61233 0.77543 0.20036 0.0
C1145 C 0.59829 0.76646 0.20758 0.0
C1146 C 0.59834 0.754 0.11505 0.0
C1147 C 0.61218 0.76283 0.10532 0.0
H1148 H 0.59314 0.76825 0.24707 0.0
H1149 H 0.59309 0.74531 0.08307 0.0
H1150 H 0.5562 0.75432 0.16414 0.0
H1151 H 0.56292 0.75613 0.96092 0.0
H1152 H 0.59848 0.7242 0.31448 0.0
H1153 H 0.61754 0.78371 0.23482 0.0
H1154 H 0.61723 0.76086 0.06541 0.0
C1155 C 0.28045 0.84397 0.05928 0.0
C1156 C 0.27601 0.83266 0.02046 0.0
N1157 N 0.27636 0.82286 0.05622 0.0
N1158 N 0.2833 0.84115 0.11925 0.0
C1159 C 0.28088 0.82836 0.11585 0.0
H1160 H 0.28157 0.85361 0.04494 0.0
Co1161 Co 0.29144 0.85265 0.18752 0.0
C1162 C 0.27144 0.83501 0.29993 0.0
O1163 O 0.27004 0.84562 0.31029 0.0
N1164 N 0.30053 0.8647 0.25668 0.0
C1165 C 0.30936 0.87456 0.35235 0.0
C1166 C 0.29985 0.86288 0.32234 0.0
C1167 C 0.31104 0.87742 0.24831 0.0
N1168 N 0.31642 0.88372 0.30569 0.0
O1169 O 0.30817 0.85074 0.17028 0.0
H1170 H 0.29385 0.85346 0.34769 0.0
H1171 H 0.31508 0.88178 0.20084 0.0
O1172 O 0.28031 0.83612 0.25571 0.0
C1173 C 0.31497 0.85888 0.12213 0.0
O1174 O 0.31027 0.86641 0.09817 0.0
N1175 N 0.27719 0.85712 0.18795 0.0
C1176 C 0.25913 0.86668 0.15968 0.0
C1177 C 0.25436 0.85275 0.16831 0.0
C1178 C 0.26359 0.84815 0.1808 0.0
C1179 C 0.28184 0.87062 0.17887 0.0
C1180 C 0.27308 0.87557 0.16598 0.0
H1181 H 0.25985 0.83737 0.18256 0.0
H1182 H 0.29253 0.87771 0.17733 0.0
H1183 H 0.28256 0.82324 0.1563 0.0
H1184 H 0.27227 0.83156 0.97068 0.0
H1185 H 0.31187 0.87572 0.40413 0.0
H1186 H 0.2437 0.84544 0.16236 0.0
H1187 H 0.27732 0.88637 0.15918 0.0
C1188 C 0.23199 0.09305 0.72632 0.0
C1189 C 0.2439 0.0984 0.68824 0.0
C1190 C 0.22947 0.10136 0.77079 0.0
C1191 C 0.23901 0.1155 0.77852 0.0
C1192 C 0.25081 0.1209 0.73871 0.0
C1193 C 0.25306 0.11244 0.6953 0.0
C1194 C 0.21672 0.09488 0.81115 0.0
C1195 C 0.26135 0.13574 0.74284 0.0
C1196 C 0.23046 0.1425 0.84386 0.0
C1197 C 0.23621 0.14577 0.90745 0.0
C1198 C 0.23055 0.13228 0.80385 0.0
C1199 C 0.23678 0.12487 0.82608 0.0
C1200 C 0.24212 0.12767 0.89146 0.0
C1201 C 0.24179 0.13796 0.93091 0.0
C1202 C 0.22463 0.13 0.73566 0.0
C1203 C 0.24892 0.12029 0.91869 0.0
H1204 H 0.2249 0.08226 0.72364 0.0
H1205 H 0.26239 0.11687 0.66738 0.0
H1206 H 0.21937 0.09559 0.86397 0.0
H1207 H 0.21108 0.1004 0.80424 0.0
H1208 H 0.20997 0.08406 0.79814 0.0
H1209 H 0.26993 0.13853 0.70864 0.0
H1210 H 0.2567 0.14202 0.73128 0.0
H1211 H 0.26541 0.13832 0.79357 0.0
H1212 H 0.22634 0.14849 0.82371 0.0
H1213 H 0.24669 0.14045 0.97855 0.0
H1214 H 0.21789 0.11902 0.72619 0.0
H1215 H 0.23291 0.13381 0.699 0.0
H1216 H 0.21876 0.13527 0.72787 0.0
H1217 H 0.24248 0.10922 0.91046 0.0
H1218 H 0.25108 0.12221 0.97201 0.0
H1219 H 0.25862 0.12365 0.89256 0.0
C1220 C 0.91025 0.13666 0.62149 0.0
C1221 C 0.92091 0.1485 0.64981 0.0
C1222 C 0.9003 0.12587 0.66112 0.0
C1223 C 0.90074 0.12679 0.73126 0.0
C1224 C 0.91187 0.13844 0.75949 0.0
C1225 C 0.92163 0.1489 0.71914 0.0
C1226 C 0.88891 0.1137 0.62763 0.0
C1227 C 0.91307 0.14036 0.83302 0.0
C1228 C 0.86758 0.10975 0.83337 0.0
C1229 C 0.86758 0.09872 0.86496 0.0
C1230 C 0.878 0.11859 0.78994 0.0
C1231 C 0.88904 0.11657 0.77518 0.0
C1232 C 0.88916 0.10541 0.80647 0.0
C1233 C 0.87861 0.09677 0.85095 0.0
C1234 C 0.87724 0.13034 0.76044 0.0
C1235 C 0.90047 0.10254 0.79265 0.0
H1236 H 0.90923 0.1361 0.56854 0.0
H1237 H 0.92968 0.15788 0.74259 0.0
H1238 H 0.88726 0.10423 0.65127 0.0
H1239 H 0.8794 0.11405 0.63267 0.0
H1240 H 0.89093 0.11334 0.57457 0.0
H1241 H 0.92279 0.14935 0.84801 0.0
H1242 H 0.90463 0.14166 0.85142 0.0
H1243 H 0.91223 0.13127 0.8573 0.0
H1244 H 0.85933 0.11166 0.84304 0.0
H1245 H 0.87891 0.08835 0.87389 0.0
H1246 H 0.87737 0.12981 0.70611 0.0
H1247 H 0.88624 0.14003 0.77557 0.0
H1248 H 0.86799 0.13053 0.77561 0.0
H1249 H 0.90144 0.10166 0.73893 0.0
H1250 H 0.8988 0.09309 0.81665 0.0
H1251 H 0.91022 0.11109 0.81036 0.0
C1252 C 0.86803 0.77176 0.73701 0.0
C1253 C 0.86849 0.7714 0.66776 0.0
C1254 C 0.87798 0.77147 0.77819 0.0
C1255 C 0.88902 0.77064 0.75095 0.0
C1256 C 0.88998 0.77095 0.68086 0.0
C1257 C 0.8798 0.77128 0.6405 0.0
C1258 C 0.87611 0.77115 0.85157 0.0
C1259 C 0.90139 0.77014 0.6481 0.0
C1260 C 0.91828 0.77486 0.86959 0.0
C1261 C 0.91454 0.76133 0.88453 0.0
C1262 C 0.91039 0.7781 0.82582 0.0
C1263 C 0.89829 0.76768 0.79545 0.0
C1264 C 0.89455 0.7541 0.81075 0.0
C1265 C 0.90254 0.75118 0.854 0.0
C1266 C 0.91503 0.79275 0.81193 0.0
C1267 C 0.88186 0.74245 0.78164 0.0
H1268 H 0.85934 0.77158 0.75962 0.0
H1269 H 0.88029 0.77056 0.58765 0.0
H1270 H 0.8733 0.76094 0.87035 0.0
H1271 H 0.8857 0.77854 0.87602 0.0
H1272 H 0.86806 0.77344 0.86582 0.0
H1273 H 0.90204 0.77252 0.59492 0.0
H1274 H 0.9112 0.77724 0.67185 0.0
H1275 H 0.89978 0.75976 0.65371 0.0
H1276 H 0.92742 0.78294 0.89162 0.0
H1277 H 0.8992 0.74064 0.86399 0.0
H1278 H 0.90723 0.79519 0.82863 0.0
H1279 H 0.91625 0.7946 0.75827 0.0
H1280 H 0.92477 0.79972 0.83671 0.0
H1281 H 0.87288 0.7431 0.79728 0.0
H1282 H 0.88038 0.73244 0.79662 0.0
H1283 H 0.88229 0.74304 0.72729 0.0
C1284 C 0.11903 0.25278 0.94994 0.0
C1285 C 0.10486 0.24477 0.94273 0.0
C1286 C 0.12825 0.25077 0.91103 0.0
C1287 C 0.12344 0.24058 0.86148 0.0
C1288 C 0.1091 0.23228 0.85465 0.0
C1289 C 0.10009 0.23449 0.89464 0.0
C1290 C 0.14325 0.25992 0.92172 0.0
C1291 C 0.10324 0.2213 0.80314 0.0
C1292 C 0.14789 0.24403 0.71846 0.0
C1293 C 0.15248 0.23509 0.73701 0.0
C1294 C 0.13848 0.24582 0.75757 0.0
C1295 C 0.13338 0.23862 0.81771 0.0
C1296 C 0.13809 0.22969 0.83666 0.0
C1297 C 0.14738 0.22804 0.79667 0.0
C1298 C 0.13392 0.25544 0.73418 0.0
C1299 C 0.13329 0.22181 0.89983 0.0
H1300 H 0.12299 0.26109 0.98483 0.0
H1301 H 0.08927 0.22856 0.88605 0.0
H1302 H 0.14818 0.25379 0.93083 0.0
H1303 H 0.1479 0.26599 0.87688 0.0
H1304 H 0.14548 0.26696 0.96374 0.0
H1305 H 0.092 0.21531 0.80518 0.0
H1306 H 0.10631 0.22589 0.75369 0.0
H1307 H 0.1073 0.21433 0.80937 0.0
H1308 H 0.15154 0.24955 0.67286 0.0
H1309 H 0.15067 0.22108 0.81264 0.0
H1310 H 0.13662 0.26356 0.77115 0.0
H1311 H 0.12273 0.24997 0.72877 0.0
H1312 H 0.13856 0.26019 0.68648 0.0
H1313 H 0.13597 0.2289 0.94191 0.0
H1314 H 0.13778 0.21525 0.90821 0.0
H1315 H 0.1221 0.21536 0.89917 0.0
C1316 C 0.7728 0.857 0.8597 0.0
C1317 C 0.77503 0.85867 0.92829 0.0
C1318 C 0.77391 0.86745 0.81779 0.0
C1319 C 0.7775 0.88042 0.84333 0.0
C1320 C 0.78041 0.88248 0.91215 0.0
C1321 C 0.77912 0.8717 0.95351 0.0
C1322 C 0.77055 0.86431 0.74592 0.0
C1323 C 0.78443 0.89602 0.94276 0.0
C1324 C 0.7869 0.90956 0.71519 0.0
C1325 C 0.77475 0.90991 0.70885 0.0
C1326 C 0.78812 0.90044 0.75949 0.0
C1327 C 0.77693 0.89114 0.79884 0.0
C1328 C 0.76468 0.89144 0.79194 0.0
C1329 C 0.76379 0.90069 0.74823 0.0
C1330 C 0.80149 0.9008 0.76446 0.0
C1331 C 0.75227 0.88178 0.8305 0.0
H1332 H 0.76968 0.84715 0.83832 0.0
H1333 H 0.78077 0.87335 1.0059 0.0
H1334 H 0.76128 0.86476 0.734 0.0
H1335 H 0.77886 0.87199 0.71517 0.0
H1336 H 0.76881 0.85413 0.73224 0.0
H1337 H 0.78802 0.89673 0.99412 0.0
H1338 H 0.79256 0.9043 0.91356 0.0
H1339 H 0.77562 0.89764 0.9427 0.0
H1340 H 0.79557 0.91657 0.68634 0.0
H1341 H 0.75427 0.90061 0.74478 0.0
H1342 H 0.80024 0.89092 0.74883 0.0
H1343 H 0.80498 0.90245 0.81628 0.0
H1344 H 0.80943 0.90891 0.73371 0.0
H1345 H 0.74924 0.87118 0.81748 0.0
H1346 H 0.74354 0.88335 0.82116 0.0
H1347 H 0.75457 0.88305 0.88379 0.0
C1348 C 0.15645 0.91733 0.86504 0.0
C1349 C 0.15562 0.91661 0.93442 0.0
C1350 C 0.14646 0.90738 0.82299 0.0
C1351 C 0.13478 0.89601 0.84917 0.0
C1352 C 0.13344 0.89546 0.91921 0.0
C1353 C 0.14378 0.90561 0.96066 0.0
C1354 C 0.14884 0.90875 0.74983 0.0
C1355 C 0.12122 0.88383 0.95071 0.0
C1356 C 0.10546 0.87406 0.7242 0.0
C1357 C 0.10756 0.86312 0.70986 0.0
C1358 C 0.11382 0.88449 0.77031 0.0
C1359 C 0.12485 0.88437 0.80324 0.0
C1360 C 0.12703 0.87343 0.78808 0.0
C1361 C 0.11847 0.86311 0.74294 0.0
C1362 C 0.11075 0.89567 0.78418 0.0
C1363 C 0.13865 0.87265 0.81914 0.0
H1364 H 0.16536 0.92564 0.84279 0.0
H1365 H 0.14283 0.90458 1.01351 0.0
H1366 H 0.1502 0.90033 0.73164 0.0
H1367 H 0.13993 0.90803 0.72404 0.0
H1368 H 0.15794 0.91849 0.73632 0.0
H1369 H 0.12057 0.8856 1.00387 0.0
H1370 H 0.11182 0.88215 0.92604 0.0
H1371 H 0.12173 0.87442 0.94489 0.0
H1372 H 0.09712 0.87437 0.70037 0.0
H1373 H 0.12046 0.85491 0.73322 0.0
H1374 H 0.11936 0.90552 0.76819 0.0
H1375 H 0.10952 0.89642 0.83778 0.0
H1376 H 0.10143 0.89404 0.75869 0.0
H1377 H 0.14838 0.88176 0.80582 0.0
H1378 H 0.13901 0.8635 0.80352 0.0
H1379 H 0.1378 0.87256 0.87337 0.0
C1380 C 0.81261 0.92011 0.43978 0.0
C1381 C 0.80857 0.92702 0.39671 0.0
C1382 C 0.81484 0.90986 0.41551 0.0
C1383 C 0.81243 0.90649 0.34824 0.0
C1384 C 0.81224 0.91593 0.30401 0.0
C1385 C 0.81035 0.92628 0.32916 0.0
C1386 C 0.81686 0.90093 0.46303 0.0
C1387 C 0.8111 0.91348 0.23096 0.0
C1388 C 0.80143 0.87267 0.26628 0.0
C1389 C 0.78739 0.86625 0.27572 0.0
C1390 C 0.81006 0.88543 0.29414 0.0
C1391 C 0.80436 0.89198 0.33011 0.0
C1392 C 0.79016 0.88513 0.34208 0.0
C1393 C 0.78195 0.8723 0.31529 0.0
C1394 C 0.8251 0.89185 0.28275 0.0
C1395 C 0.78334 0.89153 0.37964 0.0
H1396 H 0.812 0.92113 0.49232 0.0
H1397 H 0.80811 0.93233 0.29593 0.0
H1398 H 0.80685 0.89276 0.4803 0.0
H1399 H 0.82218 0.89614 0.43917 0.0
H1400 H 0.82274 0.90681 0.50658 0.0
H1401 H 0.81313 0.92269 0.20326 0.0
H1402 H 0.81834 0.91025 0.21468 0.0
H1403 H 0.80071 0.90524 0.21867 0.0
H1404 H 0.80564 0.86777 0.23667 0.0
H1405 H 0.77107 0.86728 0.32213 0.0
H1406 H 0.83116 0.9007 0.31517 0.0
H1407 H 0.82737 0.89514 0.23083 0.0
H1408 H 0.82835 0.88426 0.29079 0.0
H1409 H 0.78746 0.89414 0.43017 0.0
H1410 H 0.7722 0.88474 0.38342 0.0
H1411 H 0.78518 0.90095 0.35483 0.0
C1412 C 0.15509 0.93144 0.31315 0.0
C1413 C 0.16054 0.923 0.30204 0.0
C1414 C 0.14336 0.92697 0.35087 0.0
C1415 C 0.13675 0.91358 0.37521 0.0
C1416 C 0.14294 0.90547 0.36851 0.0
C1417 C 0.15492 0.91043 0.3327 0.0
C1418 C 0.13775 0.93636 0.36056 0.0
C1419 C 0.13633 0.89107 0.39359 0.0
C1420 C 0.10733 0.89132 0.47764 0.0
C1421 C 0.09882 0.88295 0.42732 0.0
C1422 C 0.11911 0.90348 0.46224 0.0
C1423 C 0.1224 0.90684 0.39556 0.0
C1424 C 0.11242 0.89996 0.34666 0.0
C1425 C 0.10059 0.88806 0.36351 0.0
C1426 C 0.12895 0.91151 0.51618 0.0
C1427 C 0.11518 0.90374 0.27509 0.0
H1428 H 0.15976 0.94136 0.29046 0.0
H1429 H 0.15931 0.90405 0.32396 0.0
H1430 H 0.13296 0.93699 0.31428 0.0
H1431 H 0.13016 0.93298 0.40056 0.0
H1432 H 0.1461 0.94675 0.37195 0.0
H1433 H 0.14261 0.88629 0.38446 0.0
H1434 H 0.13453 0.89084 0.44712 0.0
H1435 H 0.12637 0.8848 0.36923 0.0
H1436 H 0.10576 0.8877 0.52774 0.0
H1437 H 0.09358 0.88187 0.32532 0.0
H1438 H 0.135 0.9224 0.50295 0.0
H1439 H 0.13604 0.90764 0.52422 0.0
H1440 H 0.12356 0.9105 0.56305 0.0
H1441 H 0.11935 0.91477 0.26882 0.0
H1442 H 0.10589 0.89826 0.24456 0.0
H1443 H 0.12282 0.90123 0.25652 0.0
C1444 C 0.12346 0.20379 0.42182 0.0
C1445 C 0.13732 0.21137 0.40751 0.0
C1446 C 0.11402 0.20494 0.38275 0.0
C1447 C 0.11869 0.21386 0.3287 0.0
C1448 C 0.13232 0.21976 0.30823 0.0
C1449 C 0.14156 0.21849 0.34841 0.0
C1450 C 0.09946 0.1982 0.40493 0.0
C1451 C 0.13751 0.22889 0.24908 0.0
C1452 C 0.0952 0.22118 0.22858 0.0
C1453 C 0.09736 0.23324 0.25825 0.0
C1454 C 0.10179 0.21443 0.25172 0.0
C1455 C 0.11061 0.21988 0.30596 0.0
C1456 C 0.11231 0.23166 0.33811 0.0
C1457 C 0.10569 0.23822 0.3136 0.0
C1458 C 0.09975 0.2019 0.21626 0.0
C1459 C 0.12154 0.23768 0.39702 0.0
H1460 H 0.12011 0.1981 0.46709 0.0
H1461 H 0.15225 0.22393 0.33631 0.0
H1462 H 0.09783 0.20562 0.43309 0.0
H1463 H 0.09243 0.19477 0.36239 0.0
H1464 H 0.09686 0.18938 0.43716 0.0
H1465 H 0.14741 0.23033 0.23222 0.0
H1466 H 0.13014 0.22472 0.20799 0.0
H1467 H 0.13889 0.23897 0.262 0.0
H1468 H 0.08851 0.2171 0.18659 0.0
H1469 H 0.10749 0.24757 0.33632 0.0
H1470 H 0.09944 0.19427 0.25098 0.0
H1471 H 0.10837 0.20473 0.18241 0.0
H1472 H 0.09027 0.19717 0.18673 0.0
H1473 H 0.11867 0.22993 0.43595 0.0
H1474 H 0.12116 0.24648 0.41802 0.0
H1475 H 0.13215 0.24107 0.38276 0.0
C1476 C 0.90993 0.77298 0.2231 0.0
C1477 C 0.92145 0.7811 0.18612 0.0
C1478 C 0.90148 0.77777 0.24394 0.0
C1479 C 0.90479 0.79122 0.22805 0.0
C1480 C 0.91646 0.79952 0.19023 0.0
C1481 C 0.92466 0.79428 0.16919 0.0
C1482 C 0.88901 0.76833 0.28315 0.0
C1483 C 0.92061 0.81397 0.17364 0.0
C1484 C 0.87174 0.78815 0.25273 0.0
C1485 C 0.87197 0.78815 0.32155 0.0
C1486 C 0.88363 0.79208 0.21728 0.0
C1487 C 0.89576 0.79608 0.25224 0.0
C1488 C 0.89653 0.79943 0.31945 0.0
C1489 C 0.88448 0.7952 0.35408 0.0
C1490 C 0.88264 0.78938 0.14447 0.0
C1491 C 0.90964 0.80494 0.357 0.0
H1492 H 0.90742 0.76271 0.23483 0.0
H1493 H 0.93369 0.80053 0.14071 0.0
H1494 H 0.88969 0.7725 0.3331 0.0
H1495 H 0.87978 0.76722 0.25912 0.0
H1496 H 0.88774 0.75805 0.28839 0.0
H1497 H 0.92616 0.81703 0.12629 0.0
H1498 H 0.91184 0.81564 0.17089 0.0
H1499 H 0.92756 0.82073 0.21244 0.0
H1500 H 0.86214 0.78362 0.22693 0.0
H1501 H 0.88488 0.7959 0.40708 0.0
H1502 H 0.88097 0.77903 0.13582 0.0
H1503 H 0.89212 0.79669 0.11918 0.0
H1504 H 0.874 0.78992 0.12249 0.0
H1505 H 0.91114 0.79642 0.37193 0.0
H1506 H 0.90948 0.81036 0.40208 0.0
H1507 H 0.91836 0.81194 0.32607 0.0
C1508 C 0.23004 0.09606 0.32079 0.0
C1509 C 0.23144 0.09426 0.3876 0.0
C1510 C 0.2289 0.10707 0.29939 0.0
C1511 C 0.22904 0.1163 0.34641 0.0
C1512 C 0.22803 0.11318 0.41385 0.0
C1513 C 0.22936 0.10217 0.43394 0.0
C1514 C 0.22948 0.10983 0.22666 0.0
C1515 C 0.22738 0.1224 0.46509 0.0
C1516 C 0.25327 0.15139 0.28799 0.0
C1517 C 0.24446 0.1546 0.25553 0.0
C1518 C 0.24823 0.13931 0.32296 0.0
C1519 C 0.23402 0.1304 0.32585 0.0
C1520 C 0.22507 0.13434 0.29939 0.0
C1521 C 0.23043 0.14641 0.2638 0.0
C1522 C 0.25816 0.13555 0.35139 0.0
C1523 C 0.20989 0.12544 0.30394 0.0
H1524 H 0.23106 0.08957 0.28512 0.0
H1525 H 0.23013 0.1007 0.48588 0.0
H1526 H 0.22204 0.11298 0.213 0.0
H1527 H 0.23972 0.11824 0.21383 0.0
H1528 H 0.22741 0.10081 0.19693 0.0
H1529 H 0.22284 0.11685 0.51141 0.0
H1530 H 0.23778 0.13072 0.47626 0.0
H1531 H 0.2214 0.12702 0.4473 0.0
H1532 H 0.2641 0.15779 0.28169 0.0
H1533 H 0.22364 0.14917 0.24012 0.0
H1534 H 0.25741 0.12674 0.32427 0.0
H1535 H 0.25576 0.13256 0.40353 0.0
H1536 H 0.2688 0.14401 0.34849 0.0
H1537 H 0.20615 0.11871 0.26031 0.0
H1538 H 0.20486 0.13164 0.30432 0.0
H1539 H 0.20683 0.119 0.34846 0.0
C1540 C 0.89431 0.09281 0.20497 0.0
C1541 C 0.8915 0.09173 0.13783 0.0
C1542 C 0.90418 0.10512 0.23191 0.0
C1543 C 0.91149 0.11637 0.18992 0.0
C1544 C 0.91004 0.11467 0.12112 0.0
C1545 C 0.89981 0.10236 0.09576 0.0
C1546 C 0.90544 0.10653 0.30566 0.0
C1547 C 0.9182 0.12625 0.0748 0.0
C1548 C 0.91511 0.14832 0.26318 0.0
C1549 C 0.92781 0.15385 0.29283 0.0
C1550 C 0.90993 0.13637 0.22667 0.0
C1551 C 0.91792 0.13013 0.2183 0.0
C1552 C 0.93125 0.13635 0.24363 0.0
C1553 C 0.93596 0.14807 0.28196 0.0
C1554 C 0.89557 0.12997 0.20101 0.0
C1555 C 0.94027 0.13034 0.23331 0.0
H1556 H 0.88781 0.0845 0.23705 0.0
H1557 H 0.89768 0.10131 0.04355 0.0
H1558 H 0.91623 0.11203 0.32074 0.0
H1559 H 0.90078 0.1125 0.32295 0.0
H1560 H 0.90031 0.09653 0.3306 0.0
H1561 H 0.91834 0.12254 0.02451 0.0
H1562 H 0.91364 0.13285 0.07195 0.0
H1563 H 0.92877 0.13253 0.09258 0.0
H1564 H 0.90891 0.1529 0.27224 0.0
H1565 H 0.9459 0.15259 0.30454 0.0
H1566 H 0.88925 0.11992 0.22426 0.0
H1567 H 0.89537 0.12831 0.1473 0.0
H1568 H 0.89088 0.1363 0.21101 0.0
H1569 H 0.93799 0.12249 0.27102 0.0
H1570 H 0.95114 0.13818 0.2381 0.0
H1571 H 0.93858 0.12547 0.18434 0.0
C1572 C 0.91475 0.42994 0.09164 0.0
C1573 C 0.9166 0.43211 0.02312 0.0
C1574 C 0.91416 0.43937 0.13582 0.0
C1575 C 0.91574 0.45187 0.11299 0.0
C1576 C 0.91732 0.45407 0.04354 0.0
C1577 C 0.91766 0.44428 0.99997 0.0
C1578 C 0.91221 0.43604 0.20799 0.0
C1579 C 0.91922 0.4671 1.01524 0.0
C1580 C 0.90573 0.47388 0.22399 0.0
C1581 C 0.91815 0.48373 0.25215 0.0
C1582 C 0.90472 0.46345 0.18071 0.0
C1583 C 0.91643 0.46274 0.16198 0.0
C1584 C 0.92893 0.47251 0.19125 0.0
C1585 C 0.92961 0.4827 0.23477 0.0
C1586 C 0.89106 0.45344 0.15273 0.0
C1587 C 0.94186 0.47265 0.17409 0.0
H1588 H 0.91405 0.42079 0.11149 0.0
H1589 H 0.91945 0.44651 0.94807 0.0
H1590 H 0.92149 0.44322 0.23536 0.0
H1591 H 0.90376 0.4372 0.22735 0.0
H1592 H 0.91003 0.42556 0.2181 0.0
H1593 H 0.91962 0.46719 0.96077 0.0
H1594 H 0.91083 0.46873 0.03096 0.0
H1595 H 0.92877 0.47574 0.0343 0.0
H1596 H 0.89683 0.47476 0.23299 0.0
H1597 H 0.93943 0.49049 0.25245 0.0
H1598 H 0.88903 0.44294 0.15982 0.0
H1599 H 0.89099 0.4551 0.09913 0.0
H1600 H 0.88274 0.4544 0.17567 0.0
H1601 H 0.94084 0.46264 0.18473 0.0
H1602 H 0.95073 0.48056 0.20158 0.0
H1603 H 0.94385 0.47452 0.12074 0.0
C1604 C 0.55185 0.45103 0.25027 0.0
C1605 C 0.53958 0.43856 0.24357 0.0
C1606 C 0.55949 0.45891 0.19575 0.0
C1607 C 0.55515 0.45448 0.13039 0.0
C1608 C 0.54279 0.44187 0.12272 0.0
C1609 C 0.5352 0.43417 0.17868 0.0
C1610 C 0.57228 0.47221 0.20854 0.0
C1611 C 0.53759 0.43644 0.05497 0.0
C1612 C 0.56865 0.48327 1.00083 0.0
C1613 C 0.58027 0.48363 0.97411 0.0
C1614 C 0.56021 0.4736 0.04826 0.0
C1615 C 0.56312 0.46359 0.07158 0.0
C1616 C 0.57446 0.46339 0.0426 0.0
C1617 C 0.58286 0.47333 0.99486 0.0
C1618 C 0.54852 0.47466 0.07628 0.0
C1619 C 0.57812 0.45301 0.06428 0.0
H1620 H 0.5556 0.4548 0.29915 0.0
H1621 H 0.52593 0.42461 0.17143 0.0
H1622 H 0.581 0.47226 0.18418 0.0
H1623 H 0.5713 0.48064 0.18731 0.0
H1624 H 0.57457 0.47421 0.26173 0.0
H1625 H 0.52827 0.42632 0.05621 0.0
H1626 H 0.53532 0.44355 0.02819 0.0
H1627 H 0.54549 0.43568 0.02671 0.0
H1628 H 0.5664 0.49108 0.9863 0.0
H1629 H 0.59182 0.47343 0.97654 0.0
H1630 H 0.55059 0.47775 0.12861 0.0
H1631 H 0.53908 0.46468 0.07443 0.0
H1632 H 0.54679 0.48216 0.04967 0.0
H1633 H 0.58222 0.45536 0.11499 0.0
H1634 H 0.58584 0.45281 0.03181 0.0
H1635 H 0.56898 0.44277 0.06502 0.0
C1636 C 0.54881 0.12017 0.99473 0.0
C1637 C 0.53581 0.1085 0.99855 0.0
C1638 C 0.55971 0.12221 0.03803 0.0
C1639 C 0.55792 0.11241 0.08696 0.0
C1640 C 0.54486 0.10072 0.09056 0.0
C1641 C 0.53427 0.09899 0.04761 0.0
C1642 C 0.57325 0.13492 0.03122 0.0
C1643 C 0.54204 0.0897 0.13962 0.0
C1644 C 0.58735 0.10755 0.15318 0.0
C1645 C 0.58975 0.11269 0.21826 0.0
C1646 C 0.57763 0.10791 0.11042 0.0
C1647 C 0.56962 0.11358 0.13116 0.0
C1648 C 0.57207 0.11903 0.19642 0.0
C1649 C 0.58197 0.11855 0.23864 0.0
C1650 C 0.57571 0.1018 0.04273 0.0
C1651 C 0.56402 0.12523 0.22223 0.0
H1652 H 0.55049 0.12774 0.95821 0.0
H1653 H 0.52456 0.08982 0.05267 0.0
H1654 H 0.57647 0.14021 0.07926 0.0
H1655 H 0.58101 0.13228 1.01636 0.0
H1656 H 0.57303 0.14198 0.99436 0.0
H1657 H 0.53131 0.08139 0.13849 0.0
H1658 H 0.54861 0.08531 0.12932 0.0
H1659 H 0.54447 0.09399 0.18996 0.0
H1660 H 0.5931 0.10302 0.13492 0.0
H1661 H 0.58349 0.12266 0.28788 0.0
H1662 H 0.57661 0.10921 1.00502 0.0
H1663 H 0.56538 0.09286 0.03838 0.0
H1664 H 0.58319 0.09854 0.03167 0.0
H1665 H 0.56456 0.13295 0.18732 0.0
H1666 H 0.56768 0.13004 0.27107 0.0
H1667 H 0.5532 0.1173 0.22651 0.0
C1668 C 0.76399 0.56899 0.17413 0.0
C1669 C 0.76381 0.56769 0.24321 0.0
C1670 C 0.77413 0.56894 0.13365 0.0
C1671 C 0.78483 0.56756 0.16136 0.0
C1672 C 0.7844 0.56557 0.2309 0.0
C1673 C 0.77405 0.56569 0.27066 0.0
C1674 C 0.77377 0.57118 0.06088 0.0
C1675 C 0.79531 0.56393 0.26403 0.0
C1676 C 0.80831 0.56169 0.03978 0.0
C1677 C 0.81954 0.57484 0.03165 0.0
C1678 C 0.79722 0.55906 0.08246 0.0
C1679 C 0.797 0.56975 0.11845 0.0
C1680 C 0.80829 0.58298 0.10991 0.0
C1681 C 0.81918 0.58528 0.06779 0.0
C1682 C 0.78566 0.54474 0.08919 0.0
C1683 C 0.80884 0.59492 0.14498 0.0
H1684 H 0.75636 0.57068 0.15132 0.0
H1685 H 0.77445 0.56497 0.32354 0.0
H1686 H 0.78243 0.58123 0.0475 0.0
H1687 H 0.77483 0.56343 0.03273 0.0
H1688 H 0.76424 0.57082 0.04548 0.0
H1689 H 0.79272 0.56056 0.31575 0.0
H1690 H 0.79706 0.55649 0.23696 0.0
H1691 H 0.80495 0.57375 0.26356 0.0
H1692 H 0.80822 0.55339 1.01336 0.0
H1693 H 0.82754 0.59556 0.06303 0.0
H1694 H 0.77615 0.54408 0.07131 0.0
H1695 H 0.78414 0.54177 0.14169 0.0
H1696 H 0.78744 0.5374 0.06123 0.0
H1697 H 0.80014 0.59609 0.12955 0.0
H1698 H 0.81835 0.60455 0.13489 0.0
H1699 H 0.80798 0.59316 0.19872 0.0
C1700 C 0.45817 0.21423 0.24463 0.0
C1701 C 0.44535 0.20275 0.25629 0.0
C1702 C 0.45986 0.22495 0.20127 0.0
C1703 C 0.44852 0.22452 0.16847 0.0
C1704 C 0.43561 0.21308 0.18155 0.0
C1705 C 0.43426 0.20255 0.22388 0.0
C1706 C 0.4739 0.23667 0.18953 0.0
C1707 C 0.42302 0.2119 0.15068 0.0
C1708 C 0.44767 0.25665 0.11054 0.0
C1709 C 0.44788 0.2562 0.04109 0.0
C1710 C 0.44853 0.24699 0.15148 0.0
C1711 C 0.44974 0.23618 0.12407 0.0
C1712 C 0.45065 0.23597 0.05394 0.0
C1713 C 0.44967 0.24582 1.01366 0.0
C1714 C 0.44734 0.248 0.22478 0.0
C1715 C 0.4521 0.22493 0.02097 0.0
H1716 H 0.46696 0.21469 0.26763 0.0
H1717 H 0.42422 0.19394 0.23161 0.0
H1718 H 0.47625 0.23745 0.13634 0.0
H1719 H 0.47444 0.24628 0.20449 0.0
H1720 H 0.48175 0.2356 0.21692 0.0
H1721 H 0.41369 0.20246 0.16519 0.0
H1722 H 0.42193 0.22069 0.16524 0.0
H1723 H 0.42388 0.21207 0.09643 0.0
H1724 H 0.44626 0.26443 0.13361 0.0
H1725 H 0.44962 0.24494 0.96071 0.0
H1726 H 0.45565 0.24749 0.25041 0.0
H1727 H 0.43765 0.23929 0.24193 0.0
H1728 H 0.4476 0.25752 0.23947 0.0
H1729 H 0.4601 0.22368 0.04554 0.0
H1730 H 0.45461 0.22704 0.96809 0.0
H1731 H 0.44246 0.21517 0.02538 0.0
C1732 C 0.76991 0.20669 0.05465 0.0
C1733 C 0.77111 0.19495 0.05228 0.0
C1734 C 0.77876 0.21827 0.09455 0.0
C1735 C 0.78932 0.21845 0.13376 0.0
C1736 C 0.79065 0.20672 0.13004 0.0
C1737 C 0.78173 0.1954 0.09053 0.0
C1738 C 0.77665 0.23029 0.09576 0.0
C1739 C 0.80161 0.20601 0.16852 0.0
C1740 C 0.82208 0.25139 0.18899 0.0
C1741 C 0.82052 0.25247 0.25733 0.0
C1742 C 0.81194 0.241 0.14877 0.0
C1743 C 0.79945 0.23089 0.17581 0.0
C1744 C 0.79751 0.23215 0.24445 0.0
C1745 C 0.80791 0.24277 0.28391 0.0
C1746 C 0.81497 0.24053 0.07706 0.0
C1747 C 0.78456 0.22189 0.2771 0.0
H1748 H 0.76177 0.20671 0.02716 0.0
H1749 H 0.78304 0.18662 0.09019 0.0
H1750 H 0.77436 0.23203 0.14659 0.0
H1751 H 0.78607 0.23954 0.08053 0.0
H1752 H 0.76824 0.22888 0.06299 0.0
H1753 H 0.8014 0.19625 0.16135 0.0
H1754 H 0.8117 0.21437 0.15351 0.0
H1755 H 0.80045 0.20734 0.22162 0.0
H1756 H 0.83161 0.2586 0.16652 0.0
H1757 H 0.80636 0.24307 0.3362 0.0
H1758 H 0.80653 0.23963 0.04622 0.0
H1759 H 0.81592 0.23146 0.06738 0.0
H1760 H 0.82449 0.24966 0.06151 0.0
H1761 H 0.77569 0.22058 0.2485 0.0
H1762 H 0.78378 0.22485 0.32817 0.0
H1763 H 0.78407 0.21192 0.27828 0.0
C1764 C 0.46675 0.21705 0.64551 0.0
C1765 C 0.46588 0.21428 0.57813 0.0
C1766 C 0.46986 0.2299 0.66756 0.0
C1767 C 0.47225 0.23998 0.62063 0.0
C1768 C 0.47496 0.23821 0.55504 0.0
C1769 C 0.47149 0.22518 0.53382 0.0
C1770 C 0.4681 0.23186 0.73938 0.0
C1771 C 0.47913 0.24936 0.50529 0.0
C1772 C 0.44593 0.24998 0.64769 0.0
C1773 C 0.45285 0.26117 0.68891 0.0
C1774 C 0.45251 0.24362 0.62042 0.0
C1775 C 0.46649 0.24882 0.63403 0.0
C1776 C 0.47388 0.26105 0.6695 0.0
C1777 C 0.46689 0.26702 0.6974 0.0
C1778 C 0.44411 0.23066 0.58196 0.0
C1779 C 0.4889 0.26749 0.6817 0.0
H1780 H 0.46348 0.20887 0.68049 0.0
H1781 H 0.47167 0.22341 0.48177 0.0
H1782 H 0.47626 0.24188 0.75644 0.0
H1783 H 0.45827 0.23149 0.74674 0.0
H1784 H 0.46819 0.22387 0.7702 0.0
H1785 H 0.48493 0.24816 0.4646 0.0
H1786 H 0.46995 0.24891 0.48395 0.0
H1787 H 0.48537 0.25947 0.52843 0.0
H1788 H 0.4351 0.24555 0.64103 0.0
H1789 H 0.47233 0.27598 0.72776 0.0
H1790 H 0.44404 0.22204 0.60752 0.0
H1791 H 0.44849 0.23151 0.5325 0.0
H1792 H 0.43344 0.22822 0.57566 0.0
H1793 H 0.49066 0.26573 0.7334 0.0
H1794 H 0.49386 0.27864 0.67496 0.0
H1795 H 0.49383 0.26349 0.64879 0.0
C1796 C 0.7787 0.1976 0.67208 0.0
C1797 C 0.76632 0.19183 0.70474 0.0
C1798 C 0.78345 0.20975 0.63809 0.0
C1799 C 0.77542 0.21607 0.63592 0.0
C1800 C 0.76228 0.20952 0.66319 0.0
C1801 C 0.75794 0.1975 0.69825 0.0
C1802 C 0.79754 0.21629 0.60907 0.0
C1803 C 0.75306 0.21544 0.6591 0.0
C1804 C 0.80156 0.25204 0.63891 0.0
C1805 C 0.80532 0.25335 0.57281 0.0
C1806 C 0.78988 0.24048 0.66048 0.0
C1807 C 0.78191 0.2303 0.61422 0.0
C1808 C 0.78394 0.23313 0.54652 0.0
C1809 C 0.79584 0.24465 0.52621 0.0
C1810 C 0.78747 0.23818 0.7333 0.0
C1811 C 0.77484 0.223 0.49584 0.0
H1812 H 0.78507 0.1931 0.67714 0.0
H1813 H 0.74815 0.19274 0.72219 0.0
H1814 H 0.79719 0.21827 0.55607 0.0
H1815 H 0.80418 0.22615 0.63357 0.0
H1816 H 0.80227 0.20986 0.61451 0.0
H1817 H 0.7424 0.20725 0.6519 0.0
H1818 H 0.7535 0.22056 0.70614 0.0
H1819 H 0.75588 0.22287 0.61869 0.0
H1820 H 0.80849 0.25923 0.67457 0.0
H1821 H 0.79832 0.24584 0.47451 0.0
H1822 H 0.79069 0.23094 0.74998 0.0
H1823 H 0.77655 0.23371 0.74453 0.0
H1824 H 0.79325 0.24773 0.7617 0.0
H1825 H 0.77848 0.21581 0.48507 0.0
H1826 H 0.77497 0.22813 0.44928 0.0
H1827 H 0.76426 0.21709 0.51387 0.0
C1828 C 0.79547 0.54368 0.7392 0.0
C1829 C 0.8051 0.55704 0.72291 0.0
C1830 C 0.78196 0.53804 0.71858 0.0
C1831 C 0.77816 0.54608 0.68138 0.0
C1832 C 0.78796 0.55965 0.66539 0.0
C1833 C 0.80128 0.56488 0.68618 0.0
C1834 C 0.77205 0.52347 0.73528 0.0
C1835 C 0.7845 0.56884 0.62648 0.0
C1836 C 0.75372 0.54188 0.55691 0.0
C1837 C 0.74853 0.54913 0.58983 0.0
C1838 C 0.76143 0.53746 0.59121 0.0
C1839 C 0.76412 0.54082 0.65834 0.0
C1840 C 0.75595 0.54469 0.69374 0.0
C1841 C 0.74812 0.54884 0.65862 0.0
C1842 C 0.76896 0.53195 0.55329 0.0
C1843 C 0.75765 0.54719 0.76669 0.0
H1844 H 0.79856 0.5376 0.76722 0.0
H1845 H 0.80874 0.57527 0.67485 0.0
H1846 H 0.76145 0.52136 0.73746 0.0
H1847 H 0.77261 0.51684 0.69694 0.0
H1848 H 0.77467 0.52065 0.78297 0.0
H1849 H 0.79334 0.57918 0.62034 0.0
H1850 H 0.78084 0.56454 0.57687 0.0
H1851 H 0.77639 0.56981 0.65141 0.0
H1852 H 0.75344 0.54128 0.50388 0.0
H1853 H 0.74317 0.55345 0.68472 0.0
H1854 H 0.77076 0.52498 0.5841 0.0
H1855 H 0.77894 0.54047 0.53796 0.0
H1856 H 0.76328 0.5265 0.50843 0.0
H1857 H 0.75994 0.53988 0.79124 0.0
H1858 H 0.7484 0.54644 0.78885 0.0
H1859 H 0.76624 0.55756 0.77595 0.0
C1860 C 0.55395 0.14006 0.69197 0.0
C1861 C 0.54487 0.12753 0.66328 0.0
C1862 C 0.56766 0.14695 0.67427 0.0
C1863 C 0.57229 0.14092 0.62811 0.0
C1864 C 0.56279 0.12907 0.59358 0.0
C1865 C 0.54919 0.12261 0.61153 0.0
C1866 C 0.57712 0.16009 0.70849 0.0
C1867 C 0.56703 0.12227 0.54245 0.0
C1868 C 0.60222 0.14586 0.54164 0.0
C1869 C 0.60348 0.13578 0.57513 0.0
C1870 C 0.59399 0.15065 0.5673 0.0
C1871 C 0.58672 0.14474 0.62536 0.0
C1872 C 0.59083 0.13745 0.66649 0.0
C1873 C 0.59928 0.13302 0.64055 0.0
C1874 C 0.59111 0.15994 0.52656 0.0
C1875 C 0.5843 0.1321 0.73231 0.0
H1876 H 0.55047 0.14419 0.73026 0.0
H1877 H 0.54216 0.11302 0.58884 0.0
H1878 H 0.57836 0.15803 0.76049 0.0
H1879 H 0.58724 0.16559 0.68504 0.0
H1880 H 0.57262 0.16677 0.70879 0.0
H1881 H 0.55822 0.11344 0.51906 0.0
H1882 H 0.57297 0.12952 0.50313 0.0
H1883 H 0.57344 0.11863 0.56539 0.0
H1884 H 0.60607 0.1487 0.49223 0.0
H1885 H 0.60113 0.126 0.66831 0.0
H1886 H 0.60019 0.16705 0.49784 0.0
H1887 H 0.58791 0.16581 0.55795 0.0
H1888 H 0.58281 0.15385 0.49136 0.0
H1889 H 0.58388 0.14017 0.76081 0.0
H1890 H 0.58989 0.12824 0.7615 0.0
H1891 H 0.57376 0.12367 0.72501 0.0
C1892 C 0.94238 0.45876 0.72696 0.0
C1893 C 0.92983 0.44883 0.70199 0.0
C1894 C 0.94822 0.47221 0.70619 0.0
C1895 C 0.94115 0.47565 0.66032 0.0
C1896 C 0.92836 0.46561 0.63565 0.0
C1897 C 0.92295 0.45224 0.65636 0.0
C1898 C 0.96204 0.48254 0.73173 0.0
C1899 C 0.9204 0.46894 0.58719 0.0
C1900 C 0.94311 0.50869 0.6301 0.0
C1901 C 0.94716 0.51047 0.56447 0.0
C1902 C 0.94282 0.4982 0.66673 0.0
C1903 C 0.94688 0.48963 0.63644 0.0
C1904 C 0.95308 0.49289 0.57402 0.0
C1905 C 0.95296 0.50324 0.53809 0.0
C1906 C 0.93629 0.4951 0.73361 0.0
C1907 C 0.95806 0.48429 0.54147 0.0
H1908 H 0.94775 0.45589 0.76151 0.0
H1909 H 0.91324 0.44441 0.63769 0.0
H1910 H 0.96966 0.48496 0.69256 0.0
H1911 H 0.96235 0.49212 0.74528 0.0
H1912 H 0.96506 0.47875 0.77505 0.0
H1913 H 0.91034 0.46003 0.57572 0.0
H1914 H 0.91881 0.47712 0.607 0.0
H1915 H 0.92614 0.47266 0.54071 0.0
H1916 H 0.93873 0.51446 0.65019 0.0
H1917 H 0.95636 0.50496 0.48753 0.0
H1918 H 0.94143 0.49151 0.76759 0.0
H1919 H 0.92557 0.48691 0.72885 0.0
H1920 H 0.93644 0.50411 0.75552 0.0
H1921 H 0.96299 0.48087 0.5776 0.0
H1922 H 0.96534 0.48989 0.50145 0.0
H1923 H 0.94931 0.47515 0.51986 0.0
C1924 C 0.55659 0.41929 0.57838 0.0
C1925 C 0.55256 0.41833 0.51272 0.0
C1926 C 0.56913 0.43004 0.59837 0.0
C1927 C 0.5776 0.43946 0.55064 0.0
C1928 C 0.57537 0.4357 0.48378 0.0
C1929 C 0.56255 0.42516 0.46486 0.0
C1930 C 0.57193 0.4328 0.67075 0.0
C1931 C 0.58526 0.44449 0.432 0.0
C1932 C 0.58002 0.47296 0.58751 0.0
C1933 C 0.59165 0.47922 0.62614 0.0
C1934 C 0.57581 0.46036 0.55883 0.0
C1935 C 0.58378 0.45403 0.56753 0.0
C1936 C 0.5963 0.46102 0.60133 0.0
C1937 C 0.59996 0.47347 0.63159 0.0
C1938 C 0.56225 0.45353 0.52403 0.0
C1939 C 0.6057 0.45537 0.60805 0.0
H1940 H 0.54914 0.41322 0.61506 0.0
H1941 H 0.55982 0.4239 0.41335 0.0
H1942 H 0.5826 0.43581 0.68174 0.0
H1943 H 0.57033 0.44128 0.68551 0.0
H1944 H 0.56519 0.4238 0.70084 0.0
H1945 H 0.58473 0.43833 0.38859 0.0
H1946 H 0.5827 0.45222 0.4155 0.0
H1947 H 0.59577 0.44982 0.4516 0.0
H1948 H 0.5737 0.47754 0.58359 0.0
H1949 H 0.60921 0.47861 0.66024 0.0
H1950 H 0.55521 0.44401 0.54963 0.0
H1951 H 0.5634 0.45107 0.47269 0.0
H1952 H 0.55747 0.45996 0.52263 0.0
H1953 H 0.60597 0.45263 0.66006 0.0
H1954 H 0.61617 0.46329 0.59506 0.0
H1955 H 0.60274 0.44636 0.57659 0.0
C1956 C 0.56621 0.80754 0.5588 0.0
C1957 C 0.57956 0.8182 0.57007 0.0
C1958 C 0.56331 0.79629 0.51615 0.0
C1959 C 0.5739 0.79542 0.48267 0.0
C1960 C 0.58735 0.80603 0.49537 0.0
C1961 C 0.58992 0.81705 0.53762 0.0
C1962 C 0.54878 0.78547 0.50543 0.0
C1963 C 0.5992 0.80594 0.46305 0.0
C1964 C 0.57071 0.76156 0.41892 0.0
C1965 C 0.56966 0.76201 0.34979 0.0
C1966 C 0.57144 0.77183 0.46174 0.0
C1967 C 0.57126 0.78338 0.43667 0.0
C1968 C 0.56975 0.78374 0.36698 0.0
C1969 C 0.56894 0.7732 0.32491 0.0
C1970 C 0.573 0.77052 0.53447 0.0
C1971 C 0.56943 0.79559 0.33631 0.0
H1972 H 0.55794 0.80822 0.58103 0.0
H1973 H 0.6003 0.82514 0.5442 0.0
H1974 H 0.54604 0.78535 0.45305 0.0
H1975 H 0.54746 0.77536 0.51668 0.0
H1976 H 0.54168 0.78709 0.53622 0.0
H1977 H 0.60907 0.8148 0.47755 0.0
H1978 H 0.5993 0.79655 0.47626 0.0
H1979 H 0.59818 0.80597 0.4089 0.0
H1980 H 0.57133 0.75318 0.44015 0.0
H1981 H 0.56834 0.77406 0.27222 0.0
H1982 H 0.5654 0.77191 0.56211 0.0
H1983 H 0.58316 0.77859 0.55075 0.0
H1984 H 0.57183 0.76053 0.54758 0.0
H1985 H 0.56124 0.79682 0.35876 0.0
H1986 H 0.56779 0.79438 0.28243 0.0
H1987 H 0.57913 0.80505 0.34613 0.0
C1988 C 0.22293 0.78256 0.59153 0.0
C1989 C 0.21238 0.77021 0.5663 0.0
C1990 C 0.23357 0.79238 0.5504 0.0
C1991 C 0.23396 0.7901 0.48143 0.0
C1992 C 0.22366 0.77739 0.45687 0.0
C1993 C 0.21323 0.76786 0.49866 0.0
C1994 C 0.2441 0.80557 0.5805 0.0
C1995 C 0.22318 0.77405 0.38488 0.0
C1996 C 0.24922 0.8206 0.35985 0.0
C1997 C 0.26195 0.82235 0.34083 0.0
C1998 C 0.24036 0.81044 0.40458 0.0
C1999 C 0.24394 0.80134 0.43372 0.0
C2000 C 0.2567 0.80282 0.41423 0.0
C2001 C 0.26544 0.81315 0.36847 0.0
C2002 C 0.22702 0.80954 0.421 0.0
C2003 C 0.26126 0.79359 0.44292 0.0
H2004 H 0.2225 0.78492 0.64269 0.0
H2005 H 0.20524 0.75856 0.4772 0.0
H2006 H 0.25439 0.80799 0.56476 0.0
H2007 H 0.24249 0.81388 0.5631 0.0
H2008 H 0.24367 0.80531 0.63497 0.0
H2009 H 0.21552 0.76334 0.37396 0.0
H2010 H 0.22063 0.78072 0.35595 0.0
H2011 H 0.23323 0.77596 0.36801 0.0
H2012 H 0.24611 0.82742 0.33978 0.0
H2013 H 0.27519 0.81427 0.3562 0.0
H2014 H 0.22641 0.81086 0.4746 0.0
H2015 H 0.21853 0.79936 0.40773 0.0
H2016 H 0.2256 0.81729 0.39496 0.0
H2017 H 0.26203 0.79477 0.49708 0.0
H2018 H 0.27122 0.79573 0.42328 0.0
H2019 H 0.25365 0.78287 0.43231 0.0
C2020 C 0.25703 0.45763 0.56523 0.0
C2021 C 0.25765 0.44573 0.578 0.0
C2022 C 0.24789 0.45814 0.51872 0.0
C2023 C 0.23878 0.44649 0.48161 0.0
C2024 C 0.2394 0.43444 0.49355 0.0
C2025 C 0.24866 0.43419 0.54085 0.0
C2026 C 0.24789 0.47127 0.51007 0.0
C2027 C 0.23015 0.42165 0.45631 0.0
C2028 C 0.20527 0.44376 0.41488 0.0
C2029 C 0.2077 0.4472 0.34755 0.0
C2030 C 0.2151 0.44358 0.45769 0.0
C2031 C 0.22812 0.44677 0.43437 0.0
C2032 C 0.23081 0.45048 0.36654 0.0
C2033 C 0.22073 0.45069 0.32453 0.0
C2034 C 0.21137 0.43974 0.52859 0.0
C2035 C 0.24432 0.45397 0.33768 0.0
H2036 H 0.26373 0.46675 0.59241 0.0
H2037 H 0.24884 0.42488 0.54849 0.0
H2038 H 0.24955 0.47435 0.45775 0.0
H2039 H 0.23786 0.46986 0.52413 0.0
H2040 H 0.25581 0.47962 0.54016 0.0
H2041 H 0.23212 0.41327 0.46799 0.0
H2042 H 0.21944 0.41833 0.46823 0.0
H2043 H 0.23142 0.42361 0.40274 0.0
H2044 H 0.19538 0.44093 0.43458 0.0
H2045 H 0.22294 0.45311 0.273 0.0
H2046 H 0.2187 0.44798 0.56113 0.0
H2047 H 0.21195 0.43054 0.54022 0.0
H2048 H 0.20101 0.43774 0.54019 0.0
H2049 H 0.25258 0.46254 0.36512 0.0
H2050 H 0.24509 0.45675 0.285 0.0
H2051 H 0.24596 0.44519 0.34269 0.0
C2052 C 0.49157 0.92168 0.34713 0.0
C2053 C 0.49589 0.91204 0.34399 0.0
C2054 C 0.48105 0.9203 0.39043 0.0
C2055 C 0.47448 0.90905 0.43405 0.0
C2056 C 0.47861 0.89914 0.4301 0.0
C2057 C 0.4892 0.90083 0.38653 0.0
C2058 C 0.47738 0.93129 0.3914 0.0
C2059 C 0.47219 0.8869 0.47412 0.0
C2060 C 0.45592 0.91248 0.58999 0.0
C2061 C 0.44227 0.90643 0.56973 0.0
C2062 C 0.46633 0.91311 0.54779 0.0
C2063 C 0.46331 0.90763 0.48263 0.0
C2064 C 0.44946 0.90111 0.46326 0.0
C2065 C 0.43936 0.90073 0.50595 0.0
C2066 C 0.48074 0.92024 0.57217 0.0
C2067 C 0.44529 0.89494 0.39575 0.0
H2068 H 0.49696 0.9308 0.31797 0.0
H2069 H 0.49274 0.8936 0.38817 0.0
H2070 H 0.46634 0.92686 0.38322 0.0
H2071 H 0.47975 0.93624 0.44035 0.0
H2072 H 0.48291 0.93914 0.35349 0.0
H2073 H 0.47576 0.87965 0.46304 0.0
H2074 H 0.47462 0.89016 0.52608 0.0
H2075 H 0.461 0.88157 0.46894 0.0
H2076 H 0.45865 0.91742 0.63752 0.0
H2077 H 0.42905 0.89633 0.48805 0.0
H2078 H 0.48687 0.92953 0.54282 0.0
H2079 H 0.48525 0.91365 0.56557 0.0
H2080 H 0.4815 0.92313 0.62476 0.0
H2081 H 0.44987 0.90302 0.35814 0.0
H2082 H 0.43411 0.8894 0.38905 0.0
H2083 H 0.44908 0.88782 0.38669 0.0
C2084 C 0.11111 0.54764 0.58743 0.0
C2085 C 0.12169 0.54491 0.60098 0.0
C2086 C 0.11262 0.55817 0.54403 0.0
C2087 C 0.12502 0.56648 0.51027 0.0
C2088 C 0.13585 0.56394 0.52439 0.0
C2089 C 0.13406 0.55329 0.56832 0.0
C2090 C 0.10061 0.56009 0.53257 0.0
C2091 C 0.14932 0.5722 0.49091 0.0
C2092 C 0.12367 0.58589 0.35193 0.0
C2093 C 0.12728 0.59891 0.3759 0.0
C2094 C 0.12331 0.57551 0.39369 0.0
C2095 C 0.1266 0.57787 0.46221 0.0
C2096 C 0.1307 0.59115 0.48556 0.0
C2097 C 0.13088 0.60122 0.44318 0.0
C2098 C 0.11883 0.56174 0.3647 0.0
C2099 C 0.1344 0.59466 0.55683 0.0
H2100 H 0.10128 0.54104 0.60902 0.0
H2101 H 0.1422 0.55109 0.57447 0.0
H2102 H 0.10338 0.5707 0.54359 0.0
H2103 H 0.09757 0.55818 0.48015 0.0
H2104 H 0.09176 0.5532 0.5632 0.0
H2105 H 0.157 0.56966 0.5087 0.0
H2106 H 0.14804 0.5704 0.43718 0.0
H2107 H 0.15321 0.58317 0.49915 0.0
H2108 H 0.12041 0.58352 0.30128 0.0
H2109 H 0.13347 0.61099 0.46386 0.0
H2110 H 0.10889 0.55426 0.38575 0.0
H2111 H 0.12615 0.55838 0.37761 0.0
H2112 H 0.11782 0.56165 0.31044 0.0
H2113 H 0.12534 0.58862 0.58783 0.0
H2114 H 0.13834 0.60558 0.56713 0.0
H2115 H 0.14217 0.59204 0.57171 0.0
C2116 C 0.4731 0.56775 0.57245 0.0
C2117 C 0.47685 0.58161 0.57394 0.0
C2118 C 0.46364 0.55831 0.5262 0.0
C2119 C 0.45749 0.56248 0.47761 0.0
C2120 C 0.46082 0.57636 0.48027 0.0
C2121 C 0.4704 0.58565 0.5273 0.0
C2122 C 0.46087 0.54392 0.52711 0.0
C2123 C 0.45475 0.58164 0.43093 0.0
C2124 C 0.44762 0.54231 0.31213 0.0
C2125 C 0.43353 0.53301 0.31676 0.0
C2126 C 0.4552 0.5519 0.36229 0.0
C2127 C 0.44888 0.55272 0.42095 0.0
C2128 C 0.43457 0.54364 0.42562 0.0
C2129 C 0.42717 0.534 0.37435 0.0
C2130 C 0.47025 0.56099 0.35293 0.0
C2131 C 0.42707 0.54389 0.48587 0.0
H2132 H 0.47818 0.56436 0.60596 0.0
H2133 H 0.47339 0.59628 0.52499 0.0
H2134 H 0.4498 0.53671 0.52622 0.0
H2135 H 0.46524 0.54198 0.48254 0.0
H2136 H 0.46529 0.54178 0.57099 0.0
H2137 H 0.45662 0.59189 0.44417 0.0
H2138 H 0.45922 0.58218 0.38195 0.0
H2139 H 0.44366 0.57464 0.42672 0.0
H2140 H 0.45296 0.54195 0.26895 0.0
H2141 H 0.41644 0.52699 0.3804 0.0
H2142 H 0.47582 0.55884 0.39137 0.0
H2143 H 0.47302 0.57176 0.35837 0.0
H2144 H 0.47372 0.55962 0.30409 0.0
H2145 H 0.43056 0.54053 0.52902 0.0
H2146 H 0.41594 0.53721 0.48073 0.0
H2147 H 0.42932 0.55438 0.49601 0.0
C2148 C 0.0922 0.5223 0.96324 0.0
C2149 C 0.10503 0.52501 0.94295 0.0
C2150 C 0.09072 0.53196 0.99876 0.0
C2151 C 0.10241 0.54439 1.0144 0.0
C2152 C 0.11548 0.54653 0.99979 0.0
C2153 C 0.11661 0.53681 0.96326 0.0
C2154 C 0.07666 0.5294 1.01356 0.0
C2155 C 0.12819 0.55959 0.01737 0.0
C2156 C 0.10325 0.57758 1.00514 0.0
C2157 C 0.10462 0.58121 0.07142 0.0
C2158 C 0.10139 0.56501 0.98618 0.0
C2159 C 0.10112 0.55604 0.03488 0.0
C2160 C 0.10148 0.5592 0.10203 0.0
C2161 C 0.10309 0.57176 0.11959 0.0
C2162 C 0.10074 0.56176 0.91384 0.0
C2163 C 0.10117 0.54982 0.15513 0.0
H2164 H 0.08329 0.5131 0.94692 0.0
H2165 H 0.12648 0.53864 0.94783 0.0
H2166 H 0.07622 0.53326 0.06293 0.0
H2167 H 0.0739 0.53485 0.97718 0.0
H2168 H 0.069 0.51844 1.01075 0.0
H2169 H 0.13744 0.55879 1.01106 0.0
H2170 H 0.12906 0.56785 0.98533 0.0
H2171 H 0.12775 0.5625 0.0689 0.0
H2172 H 0.10435 0.58483 0.9679 0.0
H2173 H 0.10359 0.5743 0.1711 0.0
H2174 H 0.09226 0.5514 0.90362 0.0
H2175 H 0.11026 0.5621 0.89883 0.0
H2176 H 0.09941 0.56905 0.88305 0.0
H2177 H 0.09365 0.53912 0.14365 0.0
H2178 H 0.09876 0.55245 0.2039 0.0
H2179 H 0.11126 0.55061 0.1584 0.0
C2180 C 0.43652 0.52883 0.97135 0.0
C2181 C 0.42436 0.52341 1.00582 0.0
C2182 C 0.44164 0.54122 0.93916 0.0
C2183 C 0.43424 0.5482 0.94107 0.0
C2184 C 0.42123 0.54202 0.96963 0.0
C2185 C 0.41647 0.52968 1.00238 0.0
C2186 C 0.45552 0.54731 0.90815 0.0
C2187 C 0.41266 0.5487 0.96995 0.0
C2188 C 0.46184 0.58355 0.94925 0.0
C2189 C 0.46516 0.5854 0.88256 0.0
C2190 C 0.44994 0.57215 0.97018 0.0
C2191 C 0.44133 0.56264 0.92275 0.0
C2192 C 0.44312 0.56612 0.85568 0.0
C2193 C 0.4552 0.57749 0.83593 0.0
C2194 C 0.44786 0.56917 0.0427 0.0
C2195 C 0.43345 0.55672 0.80427 0.0
H2196 H 0.44253 0.52389 0.97385 0.0
H2197 H 0.40681 0.5252 0.02747 0.0
H2198 H 0.4551 0.55002 0.85633 0.0
H2199 H 0.46273 0.55672 0.9346 0.0
H2200 H 0.45961 0.54028 0.90916 0.0
H2201 H 0.40178 0.54098 0.96412 0.0
H2202 H 0.4138 0.55375 0.018 0.0
H2203 H 0.41556 0.55636 0.93056 0.0
H2204 H 0.46921 0.59014 0.98524 0.0
H2205 H 0.4574 0.57911 0.78402 0.0
H2206 H 0.45077 0.5615 0.05543 0.0
H2207 H 0.43706 0.56497 0.05583 0.0
H2208 H 0.4541 0.57839 0.07279 0.0
H2209 H 0.43637 0.54911 0.79046 0.0
H2210 H 0.43378 0.56238 0.7593 0.0
H2211 H 0.42291 0.55123 0.82315 0.0
C2212 C 0.51552 0.94704 0.99867 0.0
C2213 C 0.51318 0.93435 0.01943 0.0
C2214 C 0.50545 0.94822 0.96508 0.0
C2215 C 0.49296 0.93638 0.95183 0.0
C2216 C 0.4909 0.92348 0.96942 0.0
C2217 C 0.50105 0.92265 1.00358 0.0
C2218 C 0.50788 0.96211 0.94727 0.0
C2219 C 0.47775 0.9106 0.9549 0.0
C2220 C 0.45939 0.93486 0.94248 0.0
C2221 C 0.45655 0.93241 0.87548 0.0
C2222 C 0.47185 0.93739 0.96758 0.0
C2223 C 0.48152 0.93731 0.92439 0.0
C2224 C 0.47913 0.93594 0.85608 0.0
C2225 C 0.46665 0.93358 0.83231 0.0
C2226 C 0.47421 0.93903 0.04082 0.0
C2227 C 0.48928 0.93589 0.80867 0.0
H2228 H 0.52493 0.95606 1.01171 0.0
H2229 H 0.49946 0.91288 0.01923 0.0
H2230 H 0.50457 0.96223 0.89619 0.0
H2231 H 0.5018 0.96479 0.98001 0.0
H2232 H 0.51871 0.97001 0.95241 0.0
H2233 H 0.47824 0.90138 0.96753 0.0
H2234 H 0.46942 0.9105 0.98344 0.0
H2235 H 0.47513 0.91012 0.90214 0.0
H2236 H 0.45162 0.93405 0.97574 0.0
H2237 H 0.46464 0.9322 0.78008 0.0
H2238 H 0.48448 0.94758 0.05196 0.0
H2239 H 0.47356 0.9297 0.06131 0.0
H2240 H 0.46661 0.94082 0.06613 0.0
H2241 H 0.49966 0.94423 0.81999 0.0
H2242 H 0.48682 0.93687 0.75691 0.0
H2243 H 0.48934 0.92622 0.81355 0.0
C2244 C 0.23483 0.4765 0.9853 0.0
C2245 C 0.22971 0.47214 0.04854 0.0
C2246 C 0.24617 0.47588 0.96426 0.0
C2247 C 0.25235 0.47105 1.00848 0.0
C2248 C 0.24978 0.47089 0.07624 0.0
C2249 C 0.23819 0.47123 0.09598 0.0
C2250 C 0.24967 0.47764 0.89229 0.0
C2251 C 0.25747 0.46757 0.12587 0.0
C2252 C 0.248 0.43831 0.94181 0.0
C2253 C 0.26028 0.44276 0.90976 0.0
C2254 C 0.2456 0.44733 0.97759 0.0
C2255 C 0.25599 0.46116 0.98274 0.0
C2256 C 0.26888 0.4654 0.95526 0.0
C2257 C 0.2708 0.45617 0.9179 0.0
C2258 C 0.23158 0.44211 1.00578 0.0
C2259 C 0.28055 0.47969 0.96247 0.0
H2260 H 0.22887 0.47836 0.94977 0.0
H2261 H 0.23488 0.46876 0.14635 0.0
H2262 H 0.26081 0.48315 0.88569 0.0
H2263 H 0.2455 0.46754 0.86871 0.0
H2264 H 0.24542 0.4833 0.86675 0.0
H2265 H 0.25771 0.4722 0.17423 0.0
H2266 H 0.25234 0.45642 0.13254 0.0
H2267 H 0.268 0.47116 0.10921 0.0
H2268 H 0.23996 0.42792 0.93526 0.0
H2269 H 0.28044 0.45948 0.89413 0.0
H2270 H 0.2268 0.44758 0.98368 0.0
H2271 H 0.23218 0.44374 0.05958 0.0
H2272 H 0.22479 0.43111 0.99652 0.0
H2273 H 0.28236 0.48502 0.91481 0.0
H2274 H 0.28995 0.4795 0.97484 0.0
H2275 H 0.27879 0.48556 1.00076 0.0
C2276 C 0.54749 0.76827 0.99038 0.0
C2277 C 0.55089 0.76587 0.053 0.0
C2278 C 0.54856 0.78074 0.97602 0.0
C2279 C 0.55281 0.79064 0.02623 0.0
C2280 C 0.55232 0.78671 0.09214 0.0
C2281 C 0.55162 0.77432 0.10515 0.0
C2282 C 0.54761 0.78412 0.90534 0.0
C2283 C 0.55493 0.79647 0.14768 0.0
C2284 C 0.58494 0.82 0.96448 0.0
C2285 C 0.57981 0.82714 0.93145 0.0
C2286 C 0.5764 0.8087 1.00215 0.0
C2287 C 0.56247 0.80479 1.00782 0.0
C2288 C 0.5578 0.81324 0.98227 0.0
C2289 C 0.56651 0.82423 0.94304 0.0
C2290 C 0.58207 0.80021 0.02947 0.0
C2291 C 0.54345 0.81028 0.99171 0.0
H2292 H 0.54577 0.76121 0.95089 0.0
H2293 H 0.55333 0.77225 0.15492 0.0
H2294 H 0.54164 0.78934 0.90149 0.0
H2295 H 0.55792 0.79106 0.8861 0.0
H2296 H 0.54279 0.77492 0.87379 0.0
H2297 H 0.54949 0.79093 0.19262 0.0
H2298 H 0.56592 0.80212 0.15917 0.0
H2299 H 0.55172 0.8039 0.13447 0.0
H2300 H 0.59531 0.8225 0.95565 0.0
H2301 H 0.56276 0.83016 0.91881 0.0
H2302 H 0.57712 0.79013 1.00529 0.0
H2303 H 0.58009 0.79864 0.08286 0.0
H2304 H 0.59317 0.80498 0.02186 0.0
H2305 H 0.53787 0.80684 0.94453 0.0
H2306 H 0.54351 0.81972 1.00588 0.0
H2307 H 0.53793 0.80248 0.02975 0.0
C2308 C 0.21556 0.75868 0.92598 0.0
C2309 C 0.20912 0.76642 0.92582 0.0
C2310 C 0.22793 0.76331 0.95852 0.0
C2311 C 0.23399 0.77609 0.98979 0.0
C2312 C 0.22671 0.78316 0.99584 0.0
C2313 C 0.21426 0.77812 0.96402 0.0
C2314 C 0.23476 0.75491 0.95493 0.0
C2315 C 0.23256 0.79674 0.03005 0.0
C2316 C 0.26366 0.79879 0.08724 0.0
C2317 C 0.27015 0.80879 0.03897 0.0
C2318 C 0.25296 0.78599 0.0699 0.0
C2319 C 0.24866 0.78361 1.0039 0.0
C2320 C 0.25725 0.79238 0.95441 0.0
C2321 C 0.26804 0.805 0.9728 0.0
C2322 C 0.24484 0.77607 0.1231 0.0
C2323 C 0.25363 0.7896 0.88262 0.0
H2324 H 0.21123 0.7493 0.89828 0.0
H2325 H 0.20913 0.78395 0.96427 0.0
H2326 H 0.23881 0.75556 0.90476 0.0
H2327 H 0.24316 0.75822 0.99083 0.0
H2328 H 0.22724 0.74408 0.96391 0.0
H2329 H 0.22529 0.80053 0.03194 0.0
H2330 H 0.23549 0.79601 0.08109 0.0
H2331 H 0.24177 0.80437 1.00393 0.0
H2332 H 0.26565 0.80135 0.13876 0.0
H2333 H 0.27372 0.81244 0.93541 0.0
H2334 H 0.23968 0.7655 0.10429 0.0
H2335 H 0.23697 0.77829 0.14124 0.0
H2336 H 0.25142 0.77696 0.16529 0.0
H2337 H 0.2505 0.77895 0.87044 0.0
H2338 H 0.26225 0.7964 0.85055 0.0
H2339 H 0.24499 0.79119 0.87155 0.0
C2340 C 0.20145 0.22373 0.38185 0.0
C2341 C 0.19556 0.21597 0.43888 0.0
C2342 C 0.20663 0.21906 0.32985 0.0
C2343 C 0.20609 0.20626 0.33354 0.0
C2344 C 0.20015 0.19846 0.39096 0.0
C2345 C 0.19505 0.2033 0.44166 0.0
C2346 C 0.21276 0.22793 0.27057 0.0
C2347 C 0.19931 0.18491 0.39957 0.0
C2348 C 0.21133 0.18833 0.17952 0.0
C2349 C 0.22512 0.19204 0.18427 0.0
C2350 C 0.20506 0.19289 0.22657 0.0
C2351 C 0.21254 0.20139 0.28077 0.0
C2352 C 0.22633 0.20482 0.28615 0.0
C2353 C 0.2323 0.20026 0.23868 0.0
C2354 C 0.19039 0.18883 0.21742 0.0
C2355 C 0.23496 0.21352 0.34231 0.0
H2356 H 0.20195 0.23344 0.37751 0.0
H2357 H 0.19063 0.19698 0.48443 0.0
H2358 H 0.22362 0.23096 0.2668 0.0
H2359 H 0.20768 0.22218 0.22533 0.0
H2360 H 0.21192 0.23722 0.27258 0.0
H2361 H 0.19399 0.17974 0.44542 0.0
H2362 H 0.19391 0.17821 0.3573 0.0
H2363 H 0.20966 0.1863 0.40072 0.0
H2364 H 0.20555 0.18228 0.13783 0.0
H2365 H 0.24292 0.20336 0.244 0.0
H2366 H 0.18949 0.19802 0.21162 0.0
H2367 H 0.18451 0.18343 0.26162 0.0
H2368 H 0.18581 0.18219 0.17388 0.0
H2369 H 0.23537 0.22345 0.34158 0.0
H2370 H 0.24547 0.21533 0.34035 0.0
H2371 H 0.23038 0.20861 0.38975 0.0
C2372 C 0.81849 0.03731 0.25873 0.0
C2373 C 0.8221 0.03697 0.19263 0.0
C2374 C 0.81234 0.0256 0.29961 0.0
C2375 C 0.8098 0.01278 0.27594 0.0
C2376 C 0.81338 0.01229 0.2091 0.0
C2377 C 0.8193 0.02419 0.1686 0.0
C2378 C 0.80855 0.02701 0.36888 0.0
C2379 C 0.8112 0.99915 0.18047 0.0
C2380 C 0.80413 0.98475 0.40536 0.0
C2381 C 0.78995 0.97602 0.4049 0.0
C2382 C 0.81067 0.99646 0.36374 0.0
C2383 C 0.80303 0.99999 0.32038 0.0
C2384 C 0.78872 0.99137 0.32123 0.0
C2385 C 0.78251 0.97965 0.36203 0.0
C2386 C 0.82589 1.00495 0.36515 0.0
C2387 C 0.77981 0.9945 0.27856 0.0
H2388 H 0.8205 0.04693 0.27914 0.0
H2389 H 0.82212 0.02354 0.11856 0.0
H2390 H 0.79759 0.01992 0.37688 0.0
H2391 H 0.81418 0.02426 0.40425 0.0
H2392 H 0.81076 0.03747 0.38004 0.0
H2393 H 0.81474 1.00029 0.12888 0.0
H2394 H 0.81669 0.99528 0.21038 0.0
H2395 H 0.80029 0.9914 0.1821 0.0
H2396 H 0.81021 0.9822 0.43665 0.0
H2397 H 0.7716 0.97319 0.36008 0.0
H2398 H 0.829 0.01549 0.3797 0.0
H2399 H 0.82999 1.00537 0.31527 0.0
H2400 H 0.83053 1.0009 0.39976 0.0
H2401 H 0.7817 1.00485 0.28952 0.0
H2402 H 0.76887 0.98718 0.28573 0.0
H2403 H 0.78232 0.99432 0.22613 0.0
C2404 C 0.98471 0.77541 0.21391 0.0
C2405 C 0.98492 0.78399 0.16334 0.0
C2406 C 0.9953 0.77992 0.26261 0.0
C2407 C 1.00676 0.79339 0.2618 0.0
C2408 C 1.00705 0.80191 0.21015 0.0
C2409 C 0.99633 0.79725 0.16312 0.0
C2410 C 0.99412 0.77026 0.31594 0.0
C2411 C 0.01883 0.81617 0.20416 0.0
C2412 C 0.03129 0.81137 0.41255 0.0
C2413 C 0.04264 0.80986 0.39896 0.0
C2414 C 0.01954 0.8058 0.3704 0.0
C2415 C 0.01876 0.79847 0.31175 0.0
C2416 C 0.03011 0.79682 0.29859 0.0
C2417 C 0.04158 0.80235 0.34143 0.0
C2418 C 1.00793 0.80792 0.38841 0.0
C2419 C 0.03034 0.78942 0.23758 0.0
H2420 H 0.97608 0.76525 0.21667 0.0
H2421 H 0.99696 0.80421 0.12529 0.0
H2422 H 1.00288 0.76857 0.31388 0.0
H2423 H 0.99438 0.77475 0.36468 0.0
H2424 H 0.98463 0.76032 0.3118 0.0
H2425 H 0.01774 0.82166 0.16172 0.0
H2426 H 0.01978 0.82197 0.24957 0.0
H2427 H 0.02839 0.81594 0.19846 0.0
H2428 H 0.03161 0.81703 0.45591 0.0
H2429 H 0.04998 0.80089 0.32861 0.0
H2430 H 0.9983 0.79808 0.38848 0.0
H2431 H 1.00689 0.81443 0.35113 0.0
H2432 H 1.00936 0.81277 0.43734 0.0
H2433 H 0.02127 0.77914 0.23601 0.0
H2434 H 0.03953 0.78843 0.23478 0.0
H2435 H 0.02998 0.79491 0.19341 0.0
C2436 C 0.80149 0.77078 0.75512 0.0
C2437 C 0.81293 0.77748 0.71473 0.0
C2438 C 0.79674 0.77797 0.79127 0.0
C2439 C 0.8034 0.79224 0.78603 0.0
C2440 C 0.81506 0.79916 0.74646 0.0
C2441 C 0.81978 0.79171 0.71176 0.0
C2442 C 0.78434 0.77023 0.83382 0.0
C2443 C 0.82232 0.81439 0.73945 0.0
C2444 C 0.77952 0.80489 0.8283 0.0
C2445 C 0.78271 0.80836 0.89436 0.0
C2446 C 0.78699 0.80068 0.79049 0.0
C2447 C 0.79767 0.79967 0.82028 0.0
C2448 C 0.80146 0.80398 0.88592 0.0
C2449 C 0.79396 0.8084 0.92216 0.0
C2450 C 0.78285 0.79645 0.72012 0.0
C2451 C 0.81268 0.80288 0.91957 0.0
H2452 H 0.79596 0.75985 0.75758 0.0
H2453 H 0.82877 0.7971 0.68201 0.0
H2454 H 0.78649 0.77433 0.88457 0.0
H2455 H 0.77591 0.77146 0.81447 0.0
H2456 H 0.78089 0.75924 0.83584 0.0
H2457 H 0.83163 0.8183 0.70928 0.0
H2458 H 0.81546 0.81745 0.7161 0.0
H2459 H 0.8251 0.8193 0.78842 0.0
H2460 H 0.7709 0.80508 0.80694 0.0
H2461 H 0.79633 0.81102 0.9735 0.0
H2462 H 0.77779 0.78525 0.71619 0.0
H2463 H 0.79187 0.80075 0.68779 0.0
H2464 H 0.77574 0.79971 0.70179 0.0
H2465 H 0.80922 0.79206 0.92933 0.0
H2466 H 0.81565 0.80846 0.96699 0.0
H2467 H 0.82174 0.80683 0.88768 0.0
C2468 C 0.21536 0.99088 0.87559 0.0
C2469 C 0.21467 0.97844 0.8859 0.0
C2470 C 0.22479 1.00042 0.83266 0.0
C2471 C 0.2339 0.99747 0.79903 0.0
C2472 C 0.23361 0.98508 0.81086 0.0
C2473 C 0.22393 0.97565 0.85447 0.0
C2474 C 0.2248 0.01358 0.82284 0.0
C2475 C 0.2431 0.98151 0.77616 0.0
C2476 C 0.24344 0.02073 0.65771 0.0
C2477 C 0.25323 0.03257 0.68896 0.0
C2478 C 0.23845 1.00813 0.6885 0.0
C2479 C 0.24339 1.0076 0.75154 0.0
C2480 C 0.25511 0.01908 0.77628 0.0
C2481 C 0.25984 0.03155 0.7448 0.0
C2482 C 0.22639 0.99592 0.65886 0.0
C2483 C 0.26117 0.01874 0.84157 0.0
H2484 H 0.20839 0.99313 0.90122 0.0
H2485 H 0.22333 0.96597 0.86252 0.0
H2486 H 0.23485 0.0223 0.83594 0.0
H2487 H 0.2228 0.01469 0.77059 0.0
H2488 H 0.21703 0.01419 0.85313 0.0
H2489 H 0.24462 0.97411 0.80493 0.0
H2490 H 0.23861 0.97679 0.72814 0.0
H2491 H 0.2531 0.9906 0.76674 0.0
H2492 H 0.2385 0.02145 0.61369 0.0
H2493 H 0.26775 0.04071 0.7676 0.0
H2494 H 0.21698 0.99468 0.68144 0.0
H2495 H 0.22684 0.98658 0.66865 0.0
H2496 H 0.22579 0.99706 0.60502 0.0
H2497 H 0.25531 0.02007 0.88148 0.0
H2498 H 0.27187 0.02704 0.84561 0.0
H2499 H 0.26071 1.00888 0.84907 0.0
C2500 C 0.99481 0.22025 0.66858 0.0
C2501 C 0.98262 0.21226 0.70163 0.0
C2502 C 1.00668 0.22868 0.70366 0.0
C2503 C 1.00612 0.2292 0.77298 0.0
C2504 C 0.99352 0.22214 0.80566 0.0
C2505 C 0.98191 0.21354 0.76944 0.0
C2506 C 0.01995 0.2359 0.66719 0.0
C2507 C 0.99248 0.22273 0.87931 0.0
C2508 C 0.03601 0.23262 0.86934 0.0
C2509 C 0.04277 0.24636 0.88571 0.0
C2510 C 0.02414 0.22697 0.83179 0.0
C2511 C 0.01879 0.23526 0.81173 0.0
C2512 C 0.02548 0.24913 0.82912 0.0
C2513 C 0.03753 0.25457 0.86542 0.0
C2514 C 0.01739 0.21216 0.8132 0.0
C2515 C 0.01984 0.25813 0.81 0.0
H2516 H 0.99523 0.21897 0.61607 0.0
H2517 H 0.97238 0.20721 0.79431 0.0
H2518 H 0.02616 0.24649 0.6847 0.0
H2519 H 0.02581 0.23069 0.67668 0.0
H2520 H 0.01843 0.23599 0.61336 0.0
H2521 H 0.98184 0.21868 0.89547 0.0
H2522 H 0.99644 0.21661 0.90262 0.0
H2523 H 0.99868 0.23329 0.8974 0.0
H2524 H 0.04022 0.22639 0.88477 0.0
H2525 H 0.04276 0.26519 0.87901 0.0
H2526 H 0.01631 0.21102 0.75907 0.0
H2527 H 1.00706 0.20663 0.83439 0.0
H2528 H 0.02317 0.20729 0.83067 0.0
H2529 H 0.01893 0.2583 0.75586 0.0
H2530 H 0.02627 0.2687 0.82779 0.0
H2531 H 1.00951 0.25403 0.83047 0.0
C2532 C 0.89 0.53614 0.46817 0.0
C2533 C 0.89748 0.52975 0.48532 0.0
C2534 C 0.88427 0.54109 0.51567 0.0
C2535 C 0.88618 0.54021 0.58429 0.0
C2536 C 0.89346 0.53347 0.60225 0.0
C2537 C 0.89893 0.5284 0.55339 0.0
C2538 C 0.87665 0.54791 0.49179 0.0
C2539 C 0.89617 0.53226 0.67359 0.0
C2540 C 0.88582 0.56817 0.69534 0.0
C2541 C 0.87291 0.56179 0.72565 0.0
C2542 C 0.89023 0.56128 0.65201 0.0
C2543 C 0.88165 0.54736 0.63568 0.0
C2544 C 0.86864 0.54073 0.6667 0.0
C2545 C 0.86452 0.54787 0.71098 0.0
C2546 C 0.90422 0.5691 0.62272 0.0
C2547 C 0.85886 0.52605 0.65183 0.0
H2548 H 0.88905 0.5378 0.41654 0.0
H2549 H 0.9051 0.52412 0.56875 0.0
H2550 H 0.86684 0.54381 0.51792 0.0
H2551 H 0.8826 0.55892 0.50265 0.0
H2552 H 0.87465 0.54656 0.43815 0.0
H2553 H 0.90066 0.52567 0.6809 0.0
H2554 H 0.90327 0.54247 0.69368 0.0
H2555 H 0.88666 0.52813 0.70229 0.0
H2556 H 0.89265 0.57881 0.70533 0.0
H2557 H 0.85452 0.54258 0.73272 0.0
H2558 H 0.90344 0.56968 0.56868 0.0
H2559 H 0.90996 0.56379 0.63252 0.0
H2560 H 0.91007 0.57957 0.64256 0.0
H2561 H 0.85621 0.52484 0.59888 0.0
H2562 H 0.8494 0.52203 0.68094 0.0
H2563 H 0.86368 0.51986 0.66215 0.0
C2564 C 0.46272 0.32956 0.78773 0.0
C2565 C 0.4633 0.31751 0.78083 0.0
C2566 C 0.4679 0.34006 0.73973 0.0
C2567 C 0.47382 0.33881 0.68055 0.0
C2568 C 0.47493 0.32689 0.67412 0.0
C2569 C 0.46971 0.31651 0.72354 0.0
C2570 C 0.4663 0.35227 0.75109 0.0
C2571 C 0.48099 0.3247 0.61293 0.0
C2572 C 0.47032 0.35713 0.52614 0.0
C2573 C 0.48311 0.36902 0.51891 0.0
C2574 C 0.4674 0.34741 0.57664 0.0
C2575 C 0.47738 0.34917 0.62368 0.0
C2576 C 0.49038 0.36113 0.61706 0.0
C2577 C 0.49307 0.37077 0.56545 0.0
C2578 C 0.45338 0.33514 0.57968 0.0
C2579 C 0.50152 0.36378 0.66497 0.0
H2580 H 0.45754 0.33053 0.8302 0.0
H2581 H 0.4699 0.30721 0.71516 0.0
H2582 H 0.476 0.36173 0.74173 0.0
H2583 H 0.4587 0.35203 0.71626 0.0
H2584 H 0.46295 0.35262 0.80186 0.0
H2585 H 0.48277 0.31601 0.61786 0.0
H2586 H 0.47403 0.3227 0.5709 0.0
H2587 H 0.49072 0.33394 0.60115 0.0
H2588 H 0.46234 0.35529 0.4916 0.0
H2589 H 0.50303 0.37968 0.56167 0.0
H2590 H 0.44851 0.33508 0.62687 0.0
H2591 H 0.45404 0.32575 0.57779 0.0
H2592 H 0.44678 0.33486 0.53888 0.0
H2593 H 0.49835 0.36465 0.71537 0.0
H2594 H 0.51112 0.3732 0.65332 0.0
H2595 H 0.5034 0.35513 0.66485 0.0
C2596 C 0.65353 0.11827 0.59745 0.0
C2597 C 0.65239 0.12505 0.54156 0.0
C2598 C 0.66492 0.1241 0.64092 0.0
C2599 C 0.67601 0.13742 0.63086 0.0
C2600 C 0.67504 0.14442 0.57454 0.0
C2601 C 0.66346 0.13826 0.53113 0.0
C2602 C 0.66507 0.1158 0.69818 0.0
C2603 C 0.68627 0.15859 0.56027 0.0
C2604 C 0.70124 0.15455 0.78093 0.0
C2605 C 0.71177 0.15174 0.7679 0.0
C2606 C 0.68995 0.1505 0.73653 0.0
C2607 C 0.6888 0.14337 0.67653 0.0
C2608 C 0.69965 0.14098 0.66266 0.0
C2609 C 0.71069 0.14509 0.70735 0.0
C2610 C 0.67894 0.15352 0.75505 0.0
C2611 C 0.69941 0.13351 0.60102 0.0
H2612 H 0.64533 0.10814 0.60782 0.0
H2613 H 0.663 0.14393 0.48961 0.0
H2614 H 0.67389 0.11421 0.69408 0.0
H2615 H 0.66623 0.12132 0.7448 0.0
H2616 H 0.6557 0.10574 0.70095 0.0
H2617 H 0.68403 0.16302 0.51682 0.0
H2618 H 0.68795 0.1652 0.60345 0.0
H2619 H 0.69585 0.15856 0.55143 0.0
H2620 H 0.70149 0.15943 0.82699 0.0
H2621 H 0.71852 0.14272 0.69498 0.0
H2622 H 0.66954 0.14392 0.76665 0.0
H2623 H 0.67663 0.15825 0.71318 0.0
H2624 H 0.68178 0.16035 0.79833 0.0
H2625 H 0.69074 0.12298 0.60285 0.0
H2626 H 0.70887 0.13311 0.59441 0.0
H2627 H 0.69792 0.13842 0.55737 0.0
C2628 C 0.44953 0.14558 0.15218 0.0
C2629 C 0.45295 0.14901 0.21809 0.0
C2630 C 0.45627 0.14052 0.1145 0.0
C2631 C 0.4664 0.13859 0.14434 0.0
C2632 C 0.47026 0.14256 0.21025 0.0
C2633 C 0.46353 0.14786 0.24628 0.0
C2634 C 0.45212 0.13665 0.04382 0.0
C2635 C 0.48083 0.14041 0.24397 0.0
C2636 C 0.46941 0.10953 0.07494 0.0
C2637 C 0.48116 0.11626 0.03661 0.0
C2638 C 0.46475 0.11673 0.11163 0.0
C2639 C 0.47183 0.13103 0.10889 0.0
C2640 C 0.48377 0.13797 0.0713 0.0
C2641 C 0.4884 0.13051 0.03623 0.0
C2642 C 0.45206 0.109 0.15229 0.0
C2643 C 0.49146 0.15325 0.06696 0.0
H2644 H 0.44142 0.14666 0.13065 0.0
H2645 H 0.46602 0.1504 0.2976 0.0
H2646 H 0.46119 0.14085 1.01177 0.0
H2647 H 0.44679 0.12546 0.03869 0.0
H2648 H 0.44529 0.14029 0.02605 0.0
H2649 H 0.48363 0.14532 0.29306 0.0
H2650 H 0.47688 0.12939 0.25026 0.0
H2651 H 0.49011 0.14443 0.21361 0.0
H2652 H 0.4636 0.09859 0.07545 0.0
H2653 H 0.49764 0.13591 1.00824 0.0
H2654 H 0.44397 0.11075 0.13285 0.0
H2655 H 0.45404 0.11269 0.20377 0.0
H2656 H 0.44824 0.09792 0.1523 0.0
H2657 H 0.48486 0.15681 0.04527 0.0
H2658 H 0.50075 0.15711 0.03661 0.0
H2659 H 0.49439 0.15776 0.11672 0.0
C2660 C 0.89481 0.36325 0.02742 0.0
C2661 C 0.90822 0.37238 0.04594 0.0
C2662 C 0.88682 0.35152 0.06408 0.0
C2663 C 0.89246 0.34889 0.12006 0.0
C2664 C 0.90574 0.3584 0.14086 0.0
C2665 C 0.91344 0.37007 0.10356 0.0
C2666 C 0.87264 0.34164 0.04096 0.0
C2667 C 0.91206 0.35594 0.20064 0.0
C2668 C 0.87199 0.32231 0.24677 0.0
C2669 C 0.87464 0.31196 0.22908 0.0
C2670 C 0.87709 0.33417 0.2095 0.0
C2671 C 0.88508 0.33568 0.1537 0.0
C2672 C 0.88714 0.32496 0.13357 0.0
C2673 C 0.88186 0.3132 0.17151 0.0
C2674 C 0.87459 0.34536 0.23194 0.0
C2675 C 0.89557 0.32621 0.07402 0.0
H2676 H 0.89075 0.36493 0.98262 0.0
H2677 H 0.92371 0.37725 0.1186 0.0
H2678 H 0.87233 0.33243 0.02102 0.0
H2679 H 0.86541 0.33841 0.08253 0.0
H2680 H 0.86915 0.34602 1.00205 0.0
H2681 H 0.92214 0.36478 0.21261 0.0
H2682 H 0.90536 0.35366 0.24384 0.0
H2683 H 0.91331 0.34701 0.19199 0.0
H2684 H 0.86651 0.32145 0.29152 0.0
H2685 H 0.88367 0.30509 0.15713 0.0
H2686 H 0.87147 0.34939 0.19001 0.0
H2687 H 0.8841 0.35385 0.25218 0.0
H2688 H 0.86667 0.34188 0.27049 0.0
H2689 H 0.89193 0.32935 0.03065 0.0
H2690 H 0.89532 0.31656 0.06223 0.0
H2691 H 0.90625 0.33415 0.08288 0.0
C2692 C 0.64964 0.54742 0.05711 0.0
C2693 C 0.64342 0.53563 0.01859 0.0
C2694 C 0.66152 0.55104 0.09208 0.0
C2695 C 0.66753 0.54282 0.08746 0.0
C2696 C 0.66128 0.5308 0.04978 0.0
C2697 C 0.64921 0.52726 1.0163 0.0
C2698 C 0.66782 0.56388 0.13274 0.0
C2699 C 0.66753 0.52188 0.04355 0.0
C2700 C 0.7047 0.56337 0.12668 0.0
C2701 C 0.70471 0.56042 0.19322 0.0
C2702 C 0.69277 0.55675 0.08967 0.0
C2703 C 0.6806 0.54723 0.12078 0.0
C2704 C 0.68076 0.54358 0.18692 0.0
C2705 C 0.69289 0.55018 0.22233 0.0
C2706 C 0.69301 0.56067 0.01873 0.0
C2707 C 0.66794 0.53363 0.22201 0.0
H2708 H 0.64546 0.55409 0.05888 0.0
H2709 H 0.64441 0.51798 0.988 0.0
H2710 H 0.66954 0.56169 0.18375 0.0
H2711 H 0.67782 0.5713 0.11207 0.0
H2712 H 0.6614 0.56867 0.13435 0.0
H2713 H 0.66109 0.51255 1.01456 0.0
H2714 H 0.67755 0.5276 0.01932 0.0
H2715 H 0.66928 0.51891 0.09282 0.0
H2716 H 0.71394 0.5712 0.1044 0.0
H2717 H 0.69293 0.54802 0.27408 0.0
H2718 H 0.68814 0.56696 1.01405 0.0
H2719 H 0.6872 0.55152 0.9877 0.0
H2720 H 0.70351 0.56655 0.99946 0.0
H2721 H 0.6617 0.53844 0.23144 0.0
H2722 H 0.67009 0.5304 0.26976 0.0
H2723 H 0.6618 0.52452 0.1913 0.0
C2724 C 0.56739 0.8783 0.84028 0.0
C2725 C 0.56511 0.86489 0.83923 0.0
C2726 C 0.56154 0.88308 0.8878 0.0
C2727 C 0.55297 0.87446 0.93843 0.0
C2728 C 0.55017 0.86071 0.93655 0.0
C2729 C 0.55619 0.85615 0.88781 0.0
C2730 C 0.56508 0.89771 0.88529 0.0
C2731 C 0.54127 0.85087 0.98825 0.0
C2732 C 0.55322 0.89304 0.10078 0.0
C2733 C 0.54149 0.89433 0.09789 0.0
C2734 C 0.5566 0.88623 0.05189 0.0
C2735 C 0.54824 0.88031 0.99566 0.0
C2736 C 0.53609 0.88112 0.99306 0.0
C2737 C 0.53288 0.88801 0.04339 0.0
C2738 C 0.5696 0.8859 0.05941 0.0
C2739 C 0.52664 0.87512 0.93538 0.0
H2740 H 0.57435 0.88541 0.80458 0.0
H2741 H 0.55444 0.84591 0.89013 0.0
H2742 H 0.5557 0.89835 0.88228 0.0
H2743 H 0.57045 0.90299 0.93097 0.0
H2744 H 0.57163 0.90317 0.84279 0.0
H2745 H 0.53836 0.84026 0.97573 0.0
H2746 H 0.54675 0.85353 0.03585 0.0
H2747 H 0.53195 0.85151 0.99497 0.0
H2748 H 0.56018 0.89783 0.14136 0.0
H2749 H 0.52395 0.88898 0.03818 0.0
H2750 H 0.57675 0.89199 0.01991 0.0
H2751 H 0.5676 0.87537 0.05431 0.0
H2752 H 0.57458 0.88999 0.10754 0.0
H2753 H 0.53158 0.88113 0.89075 0.0
H2754 H 0.51695 0.87502 0.94309 0.0
H2755 H 0.52443 0.86461 0.92606 0.0
C2756 C 0.14533 0.6718 0.10542 0.0
C2757 C 0.14518 0.6593 0.10254 0.0
C2758 C 0.1513 0.682 0.05608 0.0
C2759 C 0.15748 0.6801 0.99948 0.0
C2760 C 0.15788 0.66773 0.99709 0.0
C2761 C 0.15179 0.6576 0.04775 0.0
C2762 C 0.15035 0.69467 0.06332 0.0
C2763 C 0.16423 0.66486 0.93909 0.0
C2764 C 0.15641 0.69935 0.84264 0.0
C2765 C 0.16928 0.71124 0.83949 0.0
C2766 C 0.15282 0.68913 0.89142 0.0
C2767 C 0.16215 0.69041 0.9413 0.0
C2768 C 0.17539 0.70218 0.93743 0.0
C2769 C 0.17877 0.71232 0.88739 0.0
C2770 C 0.13862 0.67713 0.89107 0.0
C2771 C 0.18592 0.70437 0.98812 0.0
H2772 H 0.14019 0.67345 0.14605 0.0
H2773 H 0.1516 0.64805 0.04239 0.0
H2774 H 0.16045 0.7038 0.05639 0.0
H2775 H 0.14354 0.69484 0.02482 0.0
H2776 H 0.14637 0.69534 0.11207 0.0
H2777 H 0.16549 0.65592 0.94742 0.0
H2778 H 0.15775 0.6629 0.89513 0.0
H2779 H 0.17428 0.67379 0.92821 0.0
H2780 H 0.14877 0.69818 0.80737 0.0
H2781 H 0.18863 0.72142 0.88805 0.0
H2782 H 0.13312 0.67749 0.93522 0.0
H2783 H 0.13891 0.66755 0.89318 0.0
H2784 H 0.13281 0.6769 0.84682 0.0
H2785 H 0.18293 0.70659 0.03629 0.0
H2786 H 0.19609 0.71291 0.9751 0.0
H2787 H 0.18658 0.69504 0.99399 0.0
C2788 C 0.32551 0.4533 0.82736 0.0
C2789 C 0.31342 0.45392 0.82956 0.0
C2790 C 0.33632 0.46003 0.87391 0.0
C2791 C 0.33538 0.46766 0.92723 0.0
C2792 C 0.32334 0.46866 0.92886 0.0
C2793 C 0.31267 0.46185 0.88111 0.0
C2794 C 0.34857 0.45834 0.86764 0.0
C2795 C 0.32135 0.4764 0.98352 0.0
C2796 C 0.35548 0.46937 0.08696 0.0
C2797 C 0.36748 0.48221 0.08575 0.0
C2798 C 0.34507 0.46491 0.03825 0.0
C2799 C 0.34622 0.47323 0.98373 0.0
C2800 C 0.35813 0.48641 0.98273 0.0
C2801 C 0.36846 0.49069 0.03288 0.0
C2802 C 0.33291 0.45089 0.04423 0.0
C2803 C 0.36024 0.49589 0.92689 0.0
H2804 H 0.3263 0.44691 0.79018 0.0
H2805 H 0.30337 0.46213 0.88659 0.0
H2806 H 0.35799 0.46833 0.87126 0.0
H2807 H 0.34869 0.452 0.90856 0.0
H2808 H 0.34864 0.45347 0.82051 0.0
H2809 H 0.31257 0.47787 0.97429 0.0
H2810 H 0.31962 0.47078 0.03023 0.0
H2811 H 0.33058 0.48646 0.99004 0.0
H2812 H 0.35436 0.46244 0.12603 0.0
H2813 H 0.37762 0.50045 0.0287 0.0
H2814 H 0.33279 0.44449 1.00287 0.0
H2815 H 0.32344 0.45136 0.0412 0.0
H2816 H 0.33289 0.44589 0.09101 0.0
H2817 H 0.36175 0.49165 0.8807 0.0
H2818 H 0.36917 0.50612 0.93499 0.0
H2819 H 0.35111 0.49688 0.92015 0.0
C2820 C 0.1261 0.47288 0.55861 0.0
C2821 C 0.12713 0.48405 0.52483 0.0
C2822 C 0.12906 0.46373 0.52716 0.0
C2823 C 0.13304 0.46587 0.46057 0.0
C2824 C 0.1333 0.47668 0.42532 0.0
C2825 C 0.13039 0.4857 0.45813 0.0
C2826 C 0.12871 0.45231 0.56616 0.0
C2827 C 0.13737 0.47917 0.35393 0.0
C2828 C 0.15756 0.45593 0.39232 0.0
C2829 C 0.149 0.44478 0.35325 0.0
C2830 C 0.15235 0.46246 0.43053 0.0
C2831 C 0.13826 0.45772 0.42907 0.0
C2832 C 0.12948 0.44601 0.39244 0.0
C2833 C 0.13498 0.43964 0.35491 0.0
C2834 C 0.16201 0.47485 0.46974 0.0
C2835 C 0.11441 0.44071 0.38984 0.0
H2836 H 0.12372 0.47171 0.61048 0.0
H2837 H 0.13102 0.49429 0.43221 0.0
H2838 H 0.12327 0.44263 0.53861 0.0
H2839 H 0.13922 0.45443 0.57448 0.0
H2840 H 0.12376 0.45103 0.61462 0.0
H2841 H 0.13586 0.48727 0.33235 0.0
H2842 H 0.14821 0.4822 0.3491 0.0
H2843 H 0.13142 0.46975 0.32492 0.0
H2844 H 0.16837 0.45972 0.39177 0.0
H2845 H 0.12837 0.43106 0.32427 0.0
H2846 H 0.15845 0.47393 0.52111 0.0
H2847 H 0.16233 0.48396 0.4484 0.0
H2848 H 0.17246 0.47646 0.47022 0.0
H2849 H 0.11031 0.43997 0.43994 0.0
H2850 H 0.10884 0.43059 0.36594 0.0
H2851 H 0.11242 0.44786 0.36175 0.0
C2852 C 0.5436 0.65924 0.58088 0.0
C2853 C 0.53777 0.64696 0.54648 0.0
C2854 C 0.55035 0.67159 0.54736 0.0
C2855 C 0.55094 0.67152 0.47801 0.0
C2856 C 0.54472 0.6591 0.44312 0.0
C2857 C 0.53834 0.64693 0.47801 0.0
C2858 C 0.55715 0.68466 0.58606 0.0
C2859 C 0.54486 0.65865 0.36903 0.0
C2860 C 0.55775 0.70218 0.37859 0.0
C2861 C 0.57097 0.70669 0.35615 0.0
C2862 C 0.55122 0.69098 0.42017 0.0
C2863 C 0.55822 0.68436 0.44131 0.0
C2864 C 0.57183 0.68933 0.42247 0.0
C2865 C 0.578 0.70035 0.37951 0.0
C2866 C 0.53663 0.68584 0.4388 0.0
C2867 C 0.57969 0.68265 0.44539 0.0
H2868 H 0.54321 0.65913 0.63403 0.0
H2869 H 0.53368 0.63735 0.45191 0.0
H2870 H 0.56823 0.68998 0.57712 0.0
H2871 H 0.55344 0.69149 0.56959 0.0
H2872 H 0.55535 0.68294 0.63966 0.0
H2873 H 0.53897 0.64816 0.34954 0.0
H2874 H 0.54056 0.66471 0.34841 0.0
H2875 H 0.55543 0.66321 0.35125 0.0
H2876 H 0.55233 0.70722 0.36287 0.0
H2877 H 0.58818 0.70366 0.36273 0.0
H2878 H 0.53536 0.68468 0.49277 0.0
H2879 H 0.53013 0.67569 0.41668 0.0
H2880 H 0.53293 0.69269 0.4219 0.0
H2881 H 0.57871 0.6811 0.49929 0.0
H2882 H 0.59061 0.68872 0.43289 0.0
H2883 H 0.57547 0.67253 0.4221 0.0
C2884 C 0.34056 0.89718 0.2792 0.0
C2885 C 0.32947 0.89545 0.31634 0.0
C2886 C 0.35362 0.90392 0.30633 0.0
C2887 C 0.35529 0.90872 0.37163 0.0
C2888 C 0.3447 0.90971 0.40235 0.0
C2889 C 0.33178 0.90294 0.37416 0.0
C2890 C 0.36497 0.90358 0.27017 0.0
C2891 C 0.34631 0.91551 0.47048 0.0
C2892 C 0.36988 0.89329 0.48572 0.0
C2893 C 0.38234 0.90444 0.50315 0.0
C2894 C 0.36122 0.89461 0.44184 0.0
C2895 C 0.36514 0.90748 0.41432 0.0
C2896 C 0.37784 0.9188 0.43077 0.0
C2897 C 0.38633 0.91713 0.47523 0.0
C2898 C 0.34772 0.88217 0.42643 0.0
C2899 C 0.38259 0.93257 0.40108 0.0
H2900 H 0.33887 0.89172 0.23342 0.0
H2901 H 0.32319 0.90199 0.40153 0.0
H2902 H 0.37486 0.91266 0.28195 0.0
H2903 H 0.36543 0.89447 0.28539 0.0
H2904 H 0.3633 0.90303 0.21626 0.0
H2905 H 0.33861 0.91855 0.48043 0.0
H2906 H 0.34494 0.9077 0.50695 0.0
H2907 H 0.35656 0.92442 0.47759 0.0
H2908 H 0.3667 0.88354 0.50806 0.0
H2909 H 0.39609 0.92572 0.48797 0.0
H2910 H 0.34677 0.88012 0.37291 0.0
H2911 H 0.33932 0.88386 0.44145 0.0
H2912 H 0.34638 0.87298 0.45193 0.0
H2913 H 0.38707 0.93298 0.35224 0.0
H2914 H 0.39049 0.94077 0.43193 0.0
H2915 H 0.37412 0.93459 0.3939 0.0
C2916 C 0.23428 0.25046 0.64964 0.0
C2917 C 0.22673 0.25414 0.6902 0.0
C2918 C 0.24136 0.2445 0.67636 0.0
C2919 C 0.24028 0.24175 0.74433 0.0
C2920 C 0.2346 0.24753 0.78619 0.0
C2921 C 0.22795 0.25382 0.75834 0.0
C2922 C 0.2484 0.23953 0.63102 0.0
C2923 C 0.23362 0.24521 0.85937 0.0
C2924 C 0.22842 0.20602 0.79732 0.0
C2925 C 0.23884 0.20778 0.83998 0.0
C2926 C 0.22917 0.21691 0.76253 0.0
C2927 C 0.24092 0.22985 0.76828 0.0
C2928 C 0.25217 0.2314 0.80448 0.0
C2929 C 0.25095 0.22039 0.8407 0.0
C2930 C 0.21691 0.2147 0.72351 0.0
C2931 C 0.26523 0.24478 0.80864 0.0
H2932 H 0.23359 0.2511 0.59683 0.0
H2933 H 0.22224 0.25685 0.78959 0.0
H2934 H 0.25718 0.23974 0.65573 0.0
H2935 H 0.24123 0.22892 0.61625 0.0
H2936 H 0.25193 0.24577 0.58579 0.0
H2937 H 0.23043 0.25171 0.88544 0.0
H2938 H 0.2261 0.23445 0.86968 0.0
H2939 H 0.2435 0.24726 0.87958 0.0
H2940 H 0.21931 0.19626 0.7931 0.0
H2941 H 0.25937 0.22201 0.87129 0.0
H2942 H 0.21972 0.21761 0.67159 0.0
H2943 H 0.21299 0.22115 0.74344 0.0
H2944 H 0.20857 0.20399 0.72459 0.0
H2945 H 0.26655 0.25146 0.76642 0.0
H2946 H 0.27404 0.24313 0.81078 0.0
H2947 H 0.26531 0.25007 0.8545 0.0
C2948 C 0.8073 0.02862 0.83721 0.0
C2949 C 0.80221 0.0365 0.86342 0.0
C2950 C 0.79889 0.01662 0.80383 0.0
C2951 C 0.785 0.01249 0.79553 0.0
C2952 C 0.77988 0.02072 0.81898 0.0
C2953 C 0.7886 0.03271 0.85283 0.0
C2954 C 0.80489 1.00821 0.77926 0.0
C2955 C 0.76529 0.01695 0.8085 0.0
C2956 C 0.77499 0.98546 0.67274 0.0
C2957 C 0.77287 0.97491 0.71532 0.0
C2958 C 0.77642 0.99755 0.69769 0.0
C2959 C 0.77606 0.99905 0.7663 0.0
C2960 C 0.77133 0.98761 0.80745 0.0
C2961 C 0.76974 0.97557 0.78119 0.0
C2962 C 0.78051 0.00935 0.65195 0.0
C2963 C 0.77021 0.98866 0.88075 0.0
H2964 H 0.81791 0.03179 0.84343 0.0
H2965 H 0.78469 0.0389 0.87263 0.0
H2966 H 0.79957 0.99799 0.80179 0.0
H2967 H 0.80364 1.00691 0.7253 0.0
H2968 H 0.81586 0.0129 0.7908 0.0
H2969 H 0.76217 0.02247 0.8428 0.0
H2970 H 0.76407 0.01965 0.75765 0.0
H2971 H 0.75833 1.00591 0.8144 0.0
H2972 H 0.77694 0.98495 0.6212 0.0
H2973 H 0.7673 0.96711 0.81349 0.0
H2974 H 0.79172 0.01558 0.65065 0.0
H2975 H 0.77649 0.0159 0.66915 0.0
H2976 H 0.77684 1.00585 0.60119 0.0
H2977 H 0.78045 0.9931 0.90305 0.0
H2978 H 0.76366 0.97856 0.90317 0.0
H2979 H 0.76608 0.99537 0.893 0.0
C2980 C 0.04533 0.78705 0.76371 0.0
C2981 C 0.04402 0.79284 0.70557 0.0
C2982 C 0.03384 0.77697 0.7954 0.0
C2983 C 0.02098 0.77312 0.76873 0.0
C2984 C 0.01989 0.77702 0.70413 0.0
C2985 C 0.03155 0.78692 0.67295 0.0
C2986 C 0.03534 0.77208 0.86186 0.0
C2987 C 1.0063 0.77256 0.67267 0.0
C2988 C 0.98688 0.7534 0.84988 0.0
C2989 C 0.98556 0.76404 0.87633 0.0
C2990 C 0.9989 0.75594 0.81926 0.0
C2991 C 1.00957 0.76947 0.81378 0.0
C2992 C 1.00857 0.78011 0.84466 0.0
C2993 C 0.99657 0.7772 0.87616 0.0
C2994 C 0.99974 0.74422 0.79002 0.0
C2995 C 0.01977 0.79475 0.84053 0.0
H2996 H 0.05515 0.79132 0.78738 0.0
H2997 H 0.03061 0.79119 0.62714 0.0
H2998 H 0.03459 0.77854 0.90055 0.0
H2999 H 0.02718 0.76147 0.87037 0.0
H3000 H 0.04534 0.7727 0.86689 0.0
H3001 H 1.00724 0.77474 0.61921 0.0
H3002 H 0.9994 0.76156 0.67994 0.0
H3003 H 1.00161 0.77802 0.69605 0.0
H3004 H 0.97839 0.74314 0.85178 0.0
H3005 H 0.99546 0.78535 0.89692 0.0
H3006 H 1.01036 0.74657 0.78331 0.0
H3007 H 0.99462 0.74161 0.7415 0.0
H3008 H 0.99438 0.73511 0.82161 0.0
H3009 H 0.02933 0.79589 0.8605 0.0
H3010 H 0.01734 0.80168 0.86817 0.0
H3011 H 0.02157 0.79805 0.78852 0.0
C3012 C 0.83087 0.7954 0.35013 0.0
C3013 C 0.8274 0.79327 0.41723 0.0
C3014 C 0.82573 0.80159 0.30672 0.0
C3015 C 0.81655 0.80575 0.32946 0.0
C3016 C 0.81352 0.8042 0.39793 0.0
C3017 C 0.8188 0.79794 0.44024 0.0
C3018 C 0.82942 0.80278 0.23506 0.0
C3019 C 0.8039 0.80833 0.42605 0.0
C3020 C 0.80548 0.82685 0.2186 0.0
C3021 C 0.7929 0.81681 0.19311 0.0
C3022 C 0.81337 0.82353 0.26184 0.0
C3023 C 0.80874 0.80982 0.28094 0.0
C3024 C 0.79626 0.79972 0.2536 0.0
C3025 C 0.78868 0.80328 0.211 0.0
C3026 C 0.82654 0.83479 0.28859 0.0
C3027 C 0.79063 0.78498 0.27064 0.0
H3028 H 0.83699 0.7914 0.33034 0.0
H3029 H 0.81547 0.79592 0.49084 0.0
H3030 H 0.82056 0.79519 0.20646 0.0
H3031 H 0.83211 0.81294 0.21617 0.0
H3032 H 0.83803 0.80102 0.22618 0.0
H3033 H 0.80395 0.80832 0.48057 0.0
H3034 H 0.80655 0.81859 0.4087 0.0
H3035 H 0.79346 0.80118 0.40882 0.0
H3036 H 0.80895 0.83735 0.20686 0.0
H3037 H 0.77908 0.79527 0.19239 0.0
H3038 H 0.83484 0.8326 0.27887 0.0
H3039 H 0.82578 0.83542 0.34262 0.0
H3040 H 0.82927 0.84476 0.26687 0.0
H3041 H 0.79808 0.78177 0.25796 0.0
H3042 H 0.78098 0.77824 0.24462 0.0
H3043 H 0.78881 0.78352 0.32425 0.0
C3044 C 0.21305 0.03256 0.39636 0.0
C3045 C 0.22098 0.03231 0.44901 0.0
C3046 C 0.2065 0.02158 0.35058 0.0
C3047 C 0.20791 0.00984 0.35563 0.0
C3048 C 0.2154 0.00932 0.41052 0.0
C3049 C 0.22182 0.02041 0.45531 0.0
C3050 C 0.19876 0.02296 0.29403 0.0
C3051 C 0.21746 0.99735 0.41973 0.0
C3052 C 0.18684 0.97657 0.25096 0.0
C3053 C 0.19593 0.97802 0.20044 0.0
C3054 C 0.1903 0.98685 0.30021 0.0
C3055 C 0.2032 0.99906 0.30015 0.0
C3056 C 0.21209 1.00067 0.24769 0.0
C3057 C 0.20843 0.99032 0.19974 0.0
C3058 C 0.18029 0.98439 0.35404 0.0
C3059 C 0.22589 0.01321 0.24344 0.0
H3060 H 0.2127 0.04177 0.38818 0.0
H3061 H 0.22829 0.02011 0.49354 0.0
H3062 H 0.20469 0.02486 0.24824 0.0
H3063 H 0.18897 0.01345 0.28693 0.0
H3064 H 0.19675 0.03145 0.30156 0.0
H3065 H 0.22202 0.99755 0.46823 0.0
H3066 H 0.20768 0.98773 0.41512 0.0
H3067 H 0.22426 0.99737 0.38077 0.0
H3068 H 0.17731 0.96714 0.25414 0.0
H3069 H 0.21572 0.99172 0.16208 0.0
H3070 H 0.17879 0.99325 0.35915 0.0
H3071 H 0.18435 0.98317 0.40145 0.0
H3072 H 0.17032 0.97518 0.34483 0.0
H3073 H 0.22492 0.02242 0.24442 0.0
H3074 H 0.23142 0.01341 0.19822 0.0
H3075 H 0.23208 0.01373 0.28661 0.0
C3076 C 0.98291 0.18577 0.34672 0.0
C3077 C 0.98415 0.19284 0.40558 0.0
C3078 C 0.9937 0.19056 0.2998 0.0
C3079 C 1.00623 0.20282 0.31081 0.0
C3080 C 1.00767 0.20955 0.37169 0.0
C3081 C 0.99676 0.20462 0.41713 0.0
C3082 C 0.99136 0.18285 0.23648 0.0
C3083 C 0.02056 0.22253 0.3876 0.0
C3084 C 0.0395 0.21501 0.20853 0.0
C3085 C 0.03965 0.22501 0.16733 0.0
C3086 C 0.02854 0.20729 0.25294 0.0
C3087 C 0.01725 0.20946 0.25724 0.0
C3088 C 0.01714 0.21909 0.21333 0.0
C3089 C 0.02819 0.22667 0.17017 0.0
C3090 C 0.02942 0.19728 0.29787 0.0
C3091 C 1.00559 0.22198 0.21418 0.0
H3092 H 0.97321 0.17695 0.33523 0.0
H3093 H 0.99792 0.21045 0.46121 0.0
H3094 H 0.99032 0.18871 0.19568 0.0
H3095 H 1.00015 0.18154 0.22514 0.0
H3096 H 0.98205 0.17272 0.23822 0.0
H3097 H 0.02074 0.22588 0.43901 0.0
H3098 H 0.02948 0.22124 0.37977 0.0
H3099 H 0.0216 0.23067 0.35417 0.0
H3100 H 0.04832 0.21376 0.20908 0.0
H3101 H 0.02809 0.23444 0.13993 0.0
H3102 H 0.01971 0.18752 0.29769 0.0
H3103 H 0.03126 0.20124 0.34887 0.0
H3104 H 0.03773 0.19537 0.28368 0.0
H3105 H 0.99575 0.21239 0.21043 0.0
H3106 H 1.00626 0.22876 0.1735 0.0
H3107 H 1.00562 0.22686 0.26141 0.0
C3108 C 0.92254 0.54287 0.10367 0.0
C3109 C 0.91285 0.5293 0.11665 0.0
C3110 C 0.92008 0.54994 0.05462 0.0
C3111 C 0.90756 0.54327 0.02125 0.0
C3112 C 0.89995 0.52898 0.02149 0.0
C3113 C 0.90275 0.52204 0.06975 0.0
C3114 C 0.92932 0.56501 0.04864 0.0
C3115 C 0.8873 0.52135 0.98055 0.0
C3116 C 0.88487 0.55739 0.06266 0.0
C3117 C 0.88238 0.56085 1.00095 0.0
C3118 C 0.89349 0.55211 0.06999 0.0
C3119 C 0.90002 0.55059 1.01374 0.0
C3120 C 0.89819 0.55492 0.9516 0.0
C3121 C 0.8892 0.55987 0.94583 0.0
C3122 C 0.895 0.54765 0.13787 0.0
C3123 C 0.90522 0.55405 0.89063 0.0
H3124 H 0.93099 0.54849 0.13664 0.0
H3125 H 0.89596 0.51127 0.07589 0.0
H3126 H 0.92872 0.56857 0.9987 0.0
H3127 H 0.92622 0.57027 0.08461 0.0
H3128 H 0.93998 0.56786 0.05948 0.0
H3129 H 0.88396 0.51039 0.97761 0.0
H3130 H 0.87901 0.52244 1.00286 0.0
H3131 H 0.88903 0.52555 0.93019 0.0
H3132 H 0.87954 0.55822 0.10477 0.0
H3133 H 0.88745 0.5629 0.8981 0.0
H3134 H 0.90575 0.55336 0.15367 0.0
H3135 H 0.89169 0.5367 0.13767 0.0
H3136 H 0.88891 0.54934 0.17525 0.0
H3137 H 0.91387 0.55248 0.90157 0.0
H3138 H 0.90895 0.56344 0.86122 0.0
H3139 H 0.89781 0.54554 0.85953 0.0
C3140 C 0.47118 0.36229 0.19684 0.0
C3141 C 0.46726 0.37076 0.22673 0.0
C3142 C 0.46152 0.3498 0.17121 0.0
C3143 C 0.44754 0.34555 0.178 0.0
C3144 C 0.44352 0.35406 0.20915 0.0
C3145 C 0.45353 0.36678 0.23211 0.0
C3146 C 0.46638 0.34118 0.13739 0.0
C3147 C 0.42883 0.34994 0.21844 0.0
C3148 C 0.43233 0.31915 0.05174 0.0
C3149 C 0.43347 0.3091 0.08566 0.0
C3150 C 0.43441 0.3308 0.08476 0.0
C3151 C 0.43754 0.33207 0.15245 0.0
C3152 C 0.43548 0.32061 0.18853 0.0
C3153 C 0.4338 0.30925 0.15419 0.0
C3154 C 0.43582 0.34261 0.04531 0.0
C3155 C 0.4376 0.32129 0.26177 0.0
H3156 H 0.48187 0.36559 0.19296 0.0
H3157 H 0.45065 0.37347 0.25598 0.0
H3158 H 0.4633 0.33184 0.16616 0.0
H3159 H 0.46179 0.33813 0.08783 0.0
H3160 H 0.47757 0.34656 0.13196 0.0
H3161 H 0.42743 0.35444 0.26408 0.0
H3162 H 0.4255 0.35382 0.17674 0.0
H3163 H 0.42216 0.33878 0.22056 0.0
H3164 H 0.4318 0.3188 0.9986 0.0
H3165 H 0.43427 0.3012 0.18011 0.0
H3166 H 0.44672 0.34975 0.03585 0.0
H3167 H 0.43171 0.34816 0.07276 0.0
H3168 H 0.43051 0.33926 0.99731 0.0
H3169 H 0.44856 0.32574 0.27246 0.0
H3170 H 0.43214 0.31103 0.28398 0.0
H3171 H 0.43409 0.3278 0.28513 0.0
C3172 C 0.69961 0.11866 0.11078 0.0
C3173 C 0.70323 0.12277 0.04581 0.0
C3174 C 0.68597 0.11099 0.12804 0.0
C3175 C 0.67604 0.10772 0.07876 0.0
C3176 C 0.67979 0.10868 1.01214 0.0
C3177 C 0.69354 0.11653 0.99592 0.0
C3178 C 0.68231 0.10889 0.19985 0.0
C3179 C 0.6693 0.10372 0.95836 0.0
C3180 C 0.6443 0.10232 0.16243 0.0
C3181 C 0.64728 0.11582 0.16788 0.0
C3182 C 0.65273 0.09903 0.12626 0.0
C3183 C 0.66445 0.10954 0.09618 0.0
C3184 C 0.66656 0.12293 0.09554 0.0
C3185 C 0.65792 0.12584 0.13133 0.0
C3186 C 0.64941 0.08446 0.12414 0.0
C3187 C 0.6787 0.13462 0.06295 0.0
H3188 H 0.70729 0.12295 0.14882 0.0
H3189 H 0.69638 0.1192 0.9451 0.0
H3190 H 0.67939 0.11637 0.21625 0.0
H3191 H 0.67356 0.0986 0.20804 0.0
H3192 H 0.69092 0.11017 0.23069 0.0
H3193 H 0.673 0.10089 0.91404 0.0
H3194 H 0.65965 0.09487 0.97488 0.0
H3195 H 0.66724 0.11193 0.94438 0.0
H3196 H 0.6357 0.09439 0.18829 0.0
H3197 H 0.66022 0.13625 0.13469 0.0
H3198 H 0.65116 0.08145 0.17331 0.0
H3199 H 0.6555 0.08265 0.08735 0.0
H3200 H 0.63849 0.07779 0.11255 0.0
H3201 H 0.68814 0.13648 0.08783 0.0
H3202 H 0.67834 0.14418 0.06484 0.0
H3203 H 0.67929 0.13229 1.01069 0.0
C3204 C 0.46866 0.1496 0.50036 0.0
C3205 C 0.46931 0.16225 0.50652 0.0
C3206 C 0.4752 0.1451 0.5451 0.0
C3207 C 0.48261 0.15319 0.59993 0.0
C3208 C 0.48378 0.16625 0.60514 0.0
C3209 C 0.47715 0.17055 0.55914 0.0
C3210 C 0.47346 0.13119 0.53552 0.0
C3211 C 0.49142 0.17544 0.66177 0.0
C3212 C 0.48339 0.1328 0.75158 0.0
C3213 C 0.49604 0.1334 0.74776 0.0
C3214 C 0.47931 0.13966 0.70666 0.0
C3215 C 0.48788 0.1474 0.654 0.0
C3216 C 0.50093 0.14849 0.65114 0.0
C3217 C 0.5048 0.14153 0.69731 0.0
C3218 C 0.46538 0.13797 0.71371 0.0
C3219 C 0.51059 0.15646 0.59685 0.0
H3220 H 0.46236 0.1428 0.46174 0.0
H3221 H 0.4774 0.18008 0.56704 0.0
H3222 H 0.48342 0.13168 0.53831 0.0
H3223 H 0.46705 0.1244 0.57537 0.0
H3224 H 0.46865 0.12663 0.48766 0.0
H3225 H 0.49299 0.1858 0.65517 0.0
H3226 H 0.48567 0.17115 0.7078 0.0
H3227 H 0.50142 0.17613 0.66777 0.0
H3228 H 0.47627 0.12632 0.78852 0.0
H3229 H 0.51436 0.14178 0.69122 0.0
H3230 H 0.45894 0.13198 0.67176 0.0
H3231 H 0.46599 0.14799 0.71266 0.0
H3232 H 0.46035 0.13274 0.75996 0.0
H3233 H 0.50663 0.15106 0.54954 0.0
H3234 H 0.52085 0.15786 0.6052 0.0
H3235 H 0.51144 0.16655 0.59213 0.0
C3236 C 0.89305 0.35857 0.76214 0.0
C3237 C 0.89315 0.37102 0.76014 0.0
C3238 C 0.88569 0.34786 0.71642 0.0
C3239 C 0.87806 0.34927 0.66484 0.0
C3240 C 0.87765 0.36162 0.6638 0.0
C3241 C 0.88513 0.37223 0.71074 0.0
C3242 C 0.8867 0.33519 0.72165 0.0
C3243 C 0.86979 0.36391 0.61086 0.0
C3244 C 0.87409 0.32754 0.50925 0.0
C3245 C 0.86122 0.31582 0.51605 0.0
C3246 C 0.87922 0.33861 0.55435 0.0
C3247 C 0.87157 0.33829 0.61023 0.0
C3248 C 0.8583 0.32673 0.6161 0.0
C3249 C 0.85338 0.31575 0.56981 0.0
C3250 C 0.89333 0.35038 0.54404 0.0
C3251 C 0.84953 0.32556 0.67374 0.0
H3252 H 0.89932 0.35738 0.79855 0.0
H3253 H 0.88531 0.38179 0.70616 0.0
H3254 H 0.87644 0.32609 0.72133 0.0
H3255 H 0.89222 0.33444 0.67854 0.0
H3256 H 0.89207 0.33506 0.7669 0.0
H3257 H 0.86897 0.37307 0.62046 0.0
H3258 H 0.87491 0.36517 0.56299 0.0
H3259 H 0.85945 0.35499 0.60647 0.0
H3260 H 0.88057 0.32774 0.46989 0.0
H3261 H 0.8437 0.3067 0.57836 0.0
H3262 H 0.90015 0.35037 0.5829 0.0
H3263 H 0.89336 0.36011 0.54797 0.0
H3264 H 0.89752 0.34995 0.49549 0.0
H3265 H 0.85376 0.32369 0.71898 0.0
H3266 H 0.83894 0.31715 0.6674 0.0
H3267 H 0.84944 0.33517 0.68103 0.0
C3268 C 0.64376 0.51421 0.67967 0.0
C3269 C 0.64433 0.52375 0.72566 0.0
C3270 C 0.65454 0.51746 0.63406 0.0
C3271 C 0.66639 0.53061 0.63333 0.0
C3272 C 0.66718 0.53998 0.68175 0.0
C3273 C 0.65629 0.53653 0.72604 0.0
C3274 C 0.65292 0.50696 0.58427 0.0
C3275 C 0.67933 0.55407 0.68489 0.0
C3276 C 0.7004 0.54044 0.54275 0.0
C3277 C 0.69987 0.54746 0.48691 0.0
C3278 C 0.68944 0.53429 0.58857 0.0
C3279 C 0.67743 0.53511 0.5797 0.0
C3280 C 0.67666 0.54164 0.52166 0.0
C3281 C 0.68776 0.54774 0.47721 0.0
C3282 C 0.69108 0.52761 0.64884 0.0
C3283 C 0.66435 0.54294 0.50817 0.0
H3284 H 0.63454 0.50446 0.67656 0.0
H3285 H 0.65694 0.54417 0.75992 0.0
H3286 H 0.65152 0.51014 0.5348 0.0
H3287 H 0.66219 0.5061 0.58261 0.0
H3288 H 0.64407 0.49684 0.59513 0.0
H3289 H 0.67907 0.55985 0.72827 0.0
H3290 H 0.68881 0.55358 0.68673 0.0
H3291 H 0.67973 0.55974 0.63993 0.0
H3292 H 0.70977 0.54051 0.55313 0.0
H3293 H 0.6872 0.55342 0.43587 0.0
H3294 H 0.68184 0.51765 0.65711 0.0
H3295 H 0.69246 0.53402 0.69246 0.0
H3296 H 0.69996 0.5261 0.64509 0.0
H3297 H 0.65497 0.53297 0.51348 0.0
H3298 H 0.66453 0.5469 0.45819 0.0
H3299 H 0.66385 0.54993 0.54456 0.0
C3300 C 0.57962 0.89257 0.51985 0.0
C3301 C 0.58159 0.88908 0.58261 0.0
C3302 C 0.57555 0.90211 0.51092 0.0
C3303 C 0.57357 0.9084 0.56692 0.0
C3304 C 0.57768 0.90648 0.6295 0.0
C3305 C 0.58151 0.89664 0.63688 0.0
C3306 C 0.57185 0.90406 0.44204 0.0
C3307 C 0.57697 0.91381 0.68969 0.0
C3308 C 0.55969 0.92583 0.47656 0.0
C3309 C 0.54678 0.91438 0.46723 0.0
C3310 C 0.56839 0.92568 0.52476 0.0
C3311 C 0.56412 0.91366 0.5605 0.0
C3312 C 0.55014 0.904 0.56359 0.0
C3313 C 0.54151 0.90452 0.51648 0.0
C3314 C 0.58281 0.93716 0.5284 0.0
C3315 C 0.54478 0.89175 0.60756 0.0
H3316 H 0.58028 0.88703 0.47804 0.0
H3317 H 0.58339 0.89422 0.6857 0.0
H3318 H 0.56074 0.89976 0.43817 0.0
H3319 H 0.57689 0.91496 0.42963 0.0
H3320 H 0.57487 0.89899 0.40452 0.0
H3321 H 0.58647 0.91767 0.71859 0.0
H3322 H 0.57543 0.92243 0.67762 0.0
H3323 H 0.56859 0.9066 0.72167 0.0
H3324 H 0.5637 0.93414 0.44215 0.0
H3325 H 0.53113 0.89633 0.51358 0.0
H3326 H 0.58895 0.93576 0.49032 0.0
H3327 H 0.58735 0.93751 0.57713 0.0
H3328 H 0.58331 0.947 0.51896 0.0
H3329 H 0.54837 0.88487 0.58978 0.0
H3330 H 0.53353 0.886 0.60872 0.0
H3331 H 0.54858 0.89489 0.6583 0.0
C3332 C 0.13276 0.70951 0.55529 0.0
C3333 C 0.14554 0.71501 0.52555 0.0
C3334 C 0.12162 0.69803 0.52825 0.0
C3335 C 0.12368 0.69192 0.47255 0.0
C3336 C 0.13569 0.69927 0.43513 0.0
C3337 C 0.14656 0.7108 0.46258 0.0
C3338 C 0.10834 0.69148 0.56453 0.0
C3339 C 0.13802 0.69381 0.37188 0.0
C3340 C 0.12295 0.65952 0.47638 0.0
C3341 C 0.11733 0.6548 0.41443 0.0
C3342 C 0.12278 0.67061 0.50425 0.0
C3343 C 0.11683 0.67699 0.46841 0.0
C3344 C 0.10849 0.67029 0.4139 0.0
C3345 C 0.109 0.65929 0.3864 0.0
C3346 C 0.13093 0.67671 0.56612 0.0
C3347 C 0.10051 0.67573 0.37938 0.0
H3348 H 0.13172 0.71314 0.60286 0.0
H3349 H 0.15629 0.71565 0.4381 0.0
H3350 H 0.09998 0.68352 0.5347 0.0
H3351 H 0.10933 0.6869 0.6107 0.0
H3352 H 0.10568 0.69929 0.57845 0.0
H3353 H 0.14728 0.70147 0.34611 0.0
H3354 H 0.13917 0.68489 0.38239 0.0
H3355 H 0.12928 0.69055 0.33831 0.0
H3356 H 0.12867 0.65542 0.49978 0.0
H3357 H 0.10405 0.65526 0.33973 0.0
H3358 H 0.12516 0.6793 0.60119 0.0
H3359 H 0.14048 0.68614 0.55405 0.0
H3360 H 0.13362 0.66969 0.59093 0.0
H3361 H 0.09968 0.68344 0.40925 0.0
H3362 H 0.09017 0.66728 0.36802 0.0
H3363 H 0.10538 0.6803 0.33187 0.0
C3364 C 0.35572 0.46224 0.41608 0.0
C3365 C 0.36804 0.46328 0.39919 0.0
C3366 C 0.34608 0.45123 0.45157 0.0
C3367 C 0.34887 0.44091 0.47108 0.0
C3368 C 0.36124 0.44173 0.4529 0.0
C3369 C 0.37069 0.45293 0.41633 0.0
C3370 C 0.33297 0.4509 0.46838 0.0
C3371 C 0.36452 0.43085 0.47087 0.0
C3372 C 0.3255 0.42852 0.60717 0.0
C3373 C 0.31371 0.42147 0.56916 0.0
C3374 C 0.33817 0.43265 0.57907 0.0
C3375 C 0.33873 0.42977 0.51205 0.0
C3376 C 0.32693 0.41965 0.48062 0.0
C3377 C 0.31436 0.41565 0.50957 0.0
C3378 C 0.35074 0.44247 0.61625 0.0
C3379 C 0.32736 0.41529 0.41128 0.0
H3380 H 0.35357 0.47008 0.4009 0.0
H3381 H 0.38025 0.45375 0.40239 0.0
H3382 H 0.32422 0.44161 0.44815 0.0
H3383 H 0.33179 0.45091 0.52235 0.0
H3384 H 0.33255 0.45974 0.4484 0.0
H3385 H 0.37563 0.43513 0.47602 0.0
H3386 H 0.35953 0.4256 0.51706 0.0
H3387 H 0.36094 0.42319 0.43095 0.0
H3388 H 0.32508 0.43251 0.65483 0.0
H3389 H 0.30516 0.40938 0.48201 0.0
H3390 H 0.35301 0.45296 0.60603 0.0
H3391 H 0.35959 0.44157 0.60072 0.0
H3392 H 0.34929 0.44076 0.67002 0.0
H3393 H 0.32714 0.4227 0.3767 0.0
H3394 H 0.31847 0.40517 0.4006 0.0
H3395 H 0.3368 0.41498 0.40247 0.0
C3396 C 0.17849 0.48109 0.03708 0.0
C3397 C 0.16937 0.47133 0.08174 0.0
C3398 C 0.17433 0.48787 0.99109 0.0
C3399 C 0.16058 0.48495 0.9879 0.0
C3400 C 0.15154 0.47554 0.0349 0.0
C3401 C 0.15593 0.4689 0.07979 0.0
C3402 C 0.18458 0.49766 0.94313 0.0
C3403 C 0.13684 0.4718 0.03545 0.0
C3404 C 0.14802 0.50641 0.88893 0.0
C3405 C 0.14235 0.49865 0.8314 0.0
C3406 C 0.15438 0.50249 0.93863 0.0
C3407 C 0.15525 0.49043 0.93214 0.0
C3408 C 0.15001 0.48295 0.87291 0.0
C3409 C 0.14371 0.48703 0.82464 0.0
C3410 C 0.15966 0.511 0.9998 0.0
C3411 C 0.15051 0.47012 0.86137 0.0
H3412 H 0.18873 0.48281 0.035 0.0
H3413 H 0.14853 0.46115 0.11178 0.0
H3414 H 0.18233 0.49303 0.89345 0.0
H3415 H 0.18395 0.50705 0.94034 0.0
H3416 H 0.19508 0.50037 0.95667 0.0
H3417 H 0.13135 0.46551 0.07859 0.0
H3418 H 0.13596 0.48107 0.03574 0.0
H3419 H 0.1318 0.46604 0.99019 0.0
H3420 H 0.14685 0.51517 0.89699 0.0
H3421 H 0.13932 0.48069 0.78164 0.0
H3422 H 0.17009 0.51314 1.01082 0.0
H3423 H 0.1532 0.50532 0.04209 0.0
H3424 H 0.15974 0.52075 0.99533 0.0
H3425 H 0.16098 0.47206 0.86823 0.0
H3426 H 0.14699 0.4659 0.81138 0.0
H3427 H 0.14401 0.46236 0.89782 0.0
C3428 C 0.54928 0.69103 0.07013 0.0
C3429 C 0.5471 0.70219 0.07239 0.0
C3430 C 0.54252 0.68008 0.02475 0.0
C3431 C 0.53325 0.67998 0.97751 0.0
C3432 C 0.53065 0.69102 0.98061 0.0
C3433 C 0.53754 0.70187 0.02715 0.0
C3434 C 0.54587 0.66885 0.02553 0.0
C3435 C 0.52102 0.69174 0.9323 0.0
C3436 C 0.52933 0.65909 0.81789 0.0
C3437 C 0.51744 0.64651 0.82814 0.0
C3438 C 0.53406 0.6701 0.86349 0.0
C3439 C 0.52707 0.6688 0.92345 0.0
C3440 C 0.51479 0.65625 0.9332 0.0
C3441 C 0.51025 0.6454 0.88641 0.0
C3442 C 0.54711 0.68297 0.84881 0.0
C3443 C 0.50678 0.65395 0.99531 0.0
H3444 H 0.55688 0.69115 0.10259 0.0
H3445 H 0.53602 0.71052 0.02532 0.0
H3446 H 0.53645 0.65885 0.02755 0.0
H3447 H 0.55121 0.66912 0.97958 0.0
H3448 H 0.5524 0.66969 0.06787 0.0
H3449 H 0.5189 0.70001 0.94435 0.0
H3450 H 0.52544 0.69351 0.88234 0.0
H3451 H 0.51131 0.68198 0.93103 0.0
H3452 H 0.53544 0.66012 0.77519 0.0
H3453 H 0.50145 0.63569 0.89765 0.0
H3454 H 0.5551 0.684 0.88338 0.0
H3455 H 0.54581 0.69191 0.85602 0.0
H3456 H 0.55065 0.68312 0.79788 0.0
H3457 H 0.51255 0.65319 0.03742 0.0
H3458 H 0.49676 0.64451 0.99299 0.0
H3459 H 0.50521 0.66264 1.00504 0.0
C3460 C 0.32792 0.85186 0.0426 0.0
C3461 C 0.32803 0.86094 0.09017 0.0
C3462 C 0.33866 0.85578 0.99588 0.0
C3463 C 0.34998 0.86927 0.99457 0.0
C3464 C 0.35036 0.87824 0.04436 0.0
C3465 C 0.33954 0.87407 0.09025 0.0
C3466 C 0.33744 0.8456 0.94509 0.0
C3467 C 0.36185 0.8927 0.04671 0.0
C3468 C 0.38307 0.88093 0.88942 0.0
C3469 C 0.38089 0.88707 0.83415 0.0
C3470 C 0.37309 0.87472 0.94041 0.0
C3471 C 0.36044 0.87452 0.93755 0.0
C3472 C 0.35809 0.88025 0.88058 0.0
C3473 C 0.36813 0.88633 0.8309 0.0
C3474 C 0.37634 0.86879 0.9989 0.0
C3475 C 0.34505 0.88051 0.87304 0.0
H3476 H 0.31899 0.84191 0.03892 0.0
H3477 H 0.33972 0.88148 0.12426 0.0
H3478 H 0.3349 0.84828 0.89688 0.0
H3479 H 0.34722 0.84581 0.93951 0.0
H3480 H 0.32944 0.83515 0.95783 0.0
H3481 H 0.36143 0.89816 0.09099 0.0
H3482 H 0.37172 0.89298 0.04615 0.0
H3483 H 0.36147 0.89818 1.00255 0.0
H3484 H 0.39283 0.88155 0.89463 0.0
H3485 H 0.3661 0.89102 0.78953 0.0
H3486 H 0.36779 0.85848 1.00939 0.0
H3487 H 0.37777 0.87515 0.04279 0.0
H3488 H 0.38568 0.8682 0.9914 0.0
H3489 H 0.33624 0.87015 0.87848 0.0
H3490 H 0.3443 0.8846 0.82476 0.0
H3491 H 0.34433 0.88688 0.91232 0.0
C3492 C 0.31521 0.21582 1.00653 0.0
C3493 C 0.3062 0.20411 0.97115 0.0
C3494 C 0.3293 0.22212 0.9978 0.0
C3495 C 0.33473 0.21649 0.95347 0.0
C3496 C 0.32579 0.20442 0.9192 0.0
C3497 C 0.31167 0.19843 0.92812 0.0
C3498 C 0.33839 0.235 0.03518 0.0
C3499 C 0.33113 0.19798 0.87215 0.0
C3500 C 0.36937 0.24139 0.8832 0.0
C3501 C 0.37825 0.23967 0.92484 0.0
C3502 C 0.35524 0.23367 0.89089 0.0
C3503 C 0.34968 0.22373 0.94072 0.0
C3504 C 0.35852 0.22144 0.98085 0.0
C3505 C 0.37267 0.22946 0.97268 0.0
C3506 C 0.34628 0.23654 0.84707 0.0
C3507 C 0.35303 0.2108 0.03389 0.0
H3508 H 0.31125 0.22013 0.04148 0.0
H3509 H 0.3049 0.18944 0.90025 0.0
H3510 H 0.3459 0.23375 0.06452 0.0
H3511 H 0.34414 0.24341 1.0002 0.0
H3512 H 0.33263 0.23795 0.06871 0.0
H3513 H 0.32299 0.18805 0.85335 0.0
H3514 H 0.33602 0.2048 0.8298 0.0
H3515 H 0.33897 0.19646 0.89656 0.0
H3516 H 0.37347 0.24893 0.84472 0.0
H3517 H 0.37935 0.22802 1.00528 0.0
H3518 H 0.34073 0.24032 0.87713 0.0
H3519 H 0.33859 0.2271 0.82254 0.0
H3520 H 0.35212 0.24419 0.80884 0.0
H3521 H 0.34836 0.21387 0.07311 0.0
H3522 H 0.36106 0.20927 0.05624 0.0
H3523 H 0.345 0.20099 1.01373 0.0
C3524 C 0.8255 0.11543 0.01745 0.0
C3525 C 0.8219 0.10638 0.07058 0.0
C3526 C 0.81864 0.12261 1.00442 0.0
C3527 C 0.8077 0.12069 0.04476 0.0
C3528 C 0.8042 0.11184 0.09935 0.0
C3529 C 0.81132 0.10488 0.11167 0.0
C3530 C 0.82283 0.13192 0.94581 0.0
C3531 C 0.79261 0.10941 0.14372 0.0
C3532 C 0.79456 0.14586 0.03479 0.0
C3533 C 0.78331 0.13911 0.99275 0.0
C3534 C 0.8026 0.14007 0.05207 0.0
C3535 C 0.79935 0.12715 0.02705 0.0
C3536 C 0.78812 0.12038 0.98407 0.0
C3537 C 0.78036 0.12643 0.96725 0.0
C3538 C 0.81453 0.14774 0.09749 0.0
C3539 C 0.78424 0.10665 0.95578 0.0
H3540 H 0.83339 0.11658 0.98413 0.0
H3541 H 0.80848 0.09811 0.15334 0.0
H3542 H 0.81462 0.12772 0.90853 0.0
H3543 H 0.82446 0.14201 0.96046 0.0
H3544 H 0.83224 0.13327 0.92268 0.0
H3545 H 0.7916 0.10287 0.18618 0.0
H3546 H 0.79404 0.11919 0.16243 0.0
H3547 H 0.78299 0.10448 0.11547 0.0
H3548 H 0.79697 0.15559 0.05531 0.0
H3549 H 0.77197 0.12119 0.93341 0.0
H3550 H 0.82393 0.14933 0.07342 0.0
H3551 H 0.81314 0.14172 0.14251 0.0
H3552 H 0.8159 0.15775 0.11193 0.0
H3553 H 0.79274 0.10731 0.92648 0.0
H3554 H 0.77511 0.10259 0.92391 0.0
H3555 H 0.78221 0.09933 0.99602 0.0
C3556 C 0.89348 0.64113 0.89011 0.0
C3557 C 0.88082 0.63199 0.91725 0.0
C3558 C 0.90052 0.65497 0.90857 0.0
C3559 C 0.89502 0.65985 0.95686 0.0
C3560 C 0.88235 0.65059 0.98521 0.0
C3561 C 0.87537 0.6369 0.9646 0.0
C3562 C 0.9138 0.66442 0.87565 0.0
C3563 C 0.87617 0.65511 0.03791 0.0
C3564 C 0.91924 0.69325 0.04569 0.0
C3565 C 0.9163 0.70257 1.01551 0.0
C3566 C 0.91231 0.67938 0.0279 0.0
C3567 C 0.90241 0.67463 0.97719 0.0
C3568 C 0.89951 0.68404 0.94617 0.0
C3569 C 0.90632 0.69777 0.96614 0.0
C3570 C 0.91555 0.66977 0.06378 0.0
C3571 C 0.88933 0.67965 0.89094 0.0
H3572 H 0.89777 0.63749 0.85334 0.0
H3573 H 0.8657 0.62993 0.98662 0.0
H3574 H 0.91317 0.67282 0.85166 0.0
H3575 H 0.92202 0.66903 0.91277 0.0
H3576 H 0.91661 0.65919 0.83814 0.0
H3577 H 0.86652 0.64661 0.0569 0.0
H3578 H 0.88338 0.65969 0.07944 0.0
H3579 H 0.87417 0.66301 0.01834 0.0
H3580 H 0.92687 0.6968 0.08397 0.0
H3581 H 0.9041 0.70488 0.94173 0.0
H3582 H 0.91952 0.66513 0.02887 0.0
H3583 H 0.90618 0.6614 0.08562 0.0
H3584 H 0.92314 0.67489 0.10343 0.0
H3585 H 0.89229 0.67506 0.85084 0.0
H3586 H 0.88846 0.68822 0.87055 0.0
H3587 H 0.87922 0.67178 0.9085 0.0
C3588 C 0.2279 0.36294 0.57483 0.0
C3589 C 0.23763 0.36694 0.62536 0.0
C3590 C 0.21987 0.34918 0.55565 0.0
C3591 C 0.22165 0.33902 0.58653 0.0
C3592 C 0.23133 0.34294 0.63777 0.0
C3593 C 0.23897 0.35667 0.657 0.0
C3594 C 0.2095 0.34553 0.50186 0.0
C3595 C 0.23378 0.33262 0.67206 0.0
C3596 C 0.19474 0.30115 0.58247 0.0
C3597 C 0.1996 0.29592 0.53344 0.0
C3598 C 0.20143 0.31512 0.59811 0.0
C3599 C 0.21357 0.32431 0.56538 0.0
C3600 C 0.2184 0.31922 0.51498 0.0
C3601 C 0.21133 0.30525 0.49917 0.0
C3602 C 0.19566 0.31999 0.65125 0.0
C3603 C 0.23136 0.32848 0.47903 0.0
H3604 H 0.22669 0.37057 0.54913 0.0
H3605 H 0.24602 0.3593 0.69743 0.0
H3606 H 0.2122 0.34133 0.45913 0.0
H3607 H 0.1994 0.33756 0.51916 0.0
H3608 H 0.20872 0.3544 0.48525 0.0
H3609 H 0.24189 0.33728 0.70978 0.0
H3610 H 0.22434 0.32489 0.69614 0.0
H3611 H 0.23667 0.32727 0.63565 0.0
H3612 H 0.1859 0.29429 0.61066 0.0
H3613 H 0.21518 0.30166 0.46015 0.0
H3614 H 0.19499 0.32886 0.63391 0.0
H3615 H 0.20248 0.32333 0.69458 0.0
H3616 H 0.18544 0.31197 0.66705 0.0
H3617 H 0.23073 0.33701 0.45664 0.0
H3618 H 0.23362 0.32312 0.43985 0.0
H3619 H 0.23995 0.33291 0.51427 0.0
C3620 C 0.71166 0.8963 0.52398 0.0
C3621 C 0.71973 0.90888 0.55492 0.0
C3622 C 0.69754 0.88865 0.53471 0.0
C3623 C 0.69123 0.89356 0.57812 0.0
C3624 C 0.69935 0.90618 0.61003 0.0
C3625 C 0.7134 0.91366 0.59789 0.0
C3626 C 0.68932 0.87537 0.49892 0.0
C3627 C 0.69319 0.9118 0.65724 0.0
C3628 C 0.65351 0.88213 0.56507 0.0
C3629 C 0.64785 0.87284 0.61695 0.0
C3630 C 0.66745 0.88853 0.55054 0.0
C3631 C 0.67614 0.88577 0.58916 0.0
C3632 C 0.67043 0.8761 0.64044 0.0
C3633 C 0.65639 0.86971 0.65342 0.0
C3634 C 0.67294 0.89856 0.49483 0.0
C3635 C 0.67926 0.87289 0.68331 0.0
H3636 H 0.71637 0.89251 0.49036 0.0
H3637 H 0.7195 0.92323 0.62306 0.0
H3638 H 0.68381 0.86706 0.53464 0.0
H3639 H 0.68159 0.87583 0.46756 0.0
H3640 H 0.6957 0.87283 0.46755 0.0
H3641 H 0.7009 0.92155 0.67955 0.0
H3642 H 0.68557 0.91345 0.63138 0.0
H3643 H 0.68785 0.90442 0.69712 0.0
H3644 H 0.647 0.88453 0.53609 0.0
H3645 H 0.65219 0.86268 0.69398 0.0
H3646 H 0.6789 0.89596 0.46087 0.0
H3647 H 0.67988 0.90885 0.51447 0.0
H3648 H 0.66477 0.89888 0.46649 0.0
H3649 H 0.68539 0.86993 0.65266 0.0
H3650 H 0.67324 0.8646 0.71854 0.0
H3651 H 0.68643 0.88207 0.71142 0.0
C3652 C 0.12537 0.82025 0.59038 0.0
C3653 C 0.11362 0.81309 0.55172 0.0
C3654 C 0.13381 0.81481 0.60535 0.0
C3655 C 0.13046 0.80178 0.58183 0.0
C3656 C 0.1188 0.79462 0.54164 0.0
C3657 C 0.11063 0.80035 0.52688 0.0
C3658 C 0.14614 0.8229 0.64797 0.0
C3659 C 0.11475 0.7807 0.51544 0.0
C3660 C 0.15683 0.79011 0.58203 0.0
C3661 C 0.15338 0.78204 0.63877 0.0
C3662 C 0.14966 0.79675 0.56345 0.0
C3663 C 0.13867 0.79531 0.60212 0.0
C3664 C 0.13531 0.7874 0.66 0.0
C3665 C 0.1427 0.781 0.67771 0.0
C3666 C 0.15373 0.80516 0.50173 0.0
C3667 C 0.12372 0.78553 0.70302 0.0
H3668 H 0.12781 0.82998 0.61092 0.0
H3669 H 0.10179 0.79475 0.49597 0.0
H3670 H 0.14483 0.81761 0.69537 0.0
H3671 H 0.15525 0.82373 0.624 0.0
H3672 H 0.14797 0.83326 0.65823 0.0
H3673 H 0.10572 0.77663 0.48292 0.0
H3674 H 0.12325 0.78101 0.48756 0.0
H3675 H 0.11247 0.77359 0.55691 0.0
H3676 H 0.16495 0.79098 0.55104 0.0
H3677 H 0.14007 0.77513 0.72252 0.0
H3678 H 0.15577 0.81555 0.51282 0.0
H3679 H 0.1453 0.80066 0.4657 0.0
H3680 H 0.16288 0.80586 0.47868 0.0
H3681 H 0.12543 0.79551 0.71998 0.0
H3682 H 0.12242 0.77916 0.74668 0.0
H3683 H 0.11415 0.78068 0.67437 0.0
C3684 C 0.6432 0.78436 0.19532 0.0
C3685 C 0.63456 0.78218 0.14187 0.0
C3686 C 0.65739 0.79084 0.18719 0.0
C3687 C 0.66318 0.79551 0.12426 0.0
C3688 C 0.65452 0.79393 0.07084 0.0
C3689 C 0.64037 0.7872 0.08012 0.0
C3690 C 0.66614 0.79209 0.24543 0.0
C3691 C 0.66015 0.79895 1.00319 0.0
C3692 C 0.70156 0.8199 0.11231 0.0
C3693 C 0.70641 0.81115 0.09459 0.0
C3694 C 0.68758 0.81504 0.12124 0.0
C3695 C 0.6781 0.80105 0.11323 0.0
C3696 C 0.6829 0.79221 0.09457 0.0
C3697 C 0.69686 0.79735 0.08484 0.0
C3698 C 0.68294 0.82489 0.13999 0.0
C3699 C 0.67327 0.77722 0.08556 0.0
H3700 H 0.63882 0.7804 0.24302 0.0
H3701 H 0.63379 0.78566 0.03861 0.0
H3702 H 0.67092 0.7858 0.2371 0.0
H3703 H 0.67442 0.80273 0.2513 0.0
H3704 H 0.66026 0.78879 0.29178 0.0
H3705 H 0.65228 0.7982 0.96847 0.0
H3706 H 0.66844 0.80966 1.00558 0.0
H3707 H 0.66453 0.79291 0.98332 0.0
H3708 H 0.70871 0.83053 0.12074 0.0
H3709 H 0.70029 0.79046 0.06954 0.0
H3710 H 0.67814 0.82228 0.18912 0.0
H3711 H 0.67518 0.82415 0.10468 0.0
H3712 H 0.69143 0.83553 0.14117 0.0
H3713 H 0.66751 0.77284 0.13149 0.0
H3714 H 0.6786 0.77163 0.07226 0.0
H3715 H 0.6658 0.77553 0.04647 0.0
C3716 C 0.25402 0.88204 0.09174 0.0
C3717 C 0.25 0.87212 0.14085 0.0
C3718 C 0.24633 0.88826 0.07681 0.0
C3719 C 0.23426 0.88458 0.11185 0.0
C3720 C 0.22987 0.87424 0.15999 0.0
C3721 C 0.23774 0.86809 0.17365 0.0
C3722 C 0.25139 0.89909 0.02462 0.0
C3723 C 0.21711 0.87 0.19876 0.0
C3724 C 0.22409 0.91184 0.12297 0.0
C3725 C 0.21391 0.90772 0.07489 0.0
C3726 C 0.23051 0.90427 0.13629 0.0
C3727 C 0.22678 0.8922 0.10069 0.0
C3728 C 0.21639 0.88786 0.05264 0.0
C3729 C 0.21005 0.89561 0.04057 0.0
C3730 C 0.24142 0.90928 0.1883 0.0
C3731 C 0.21213 0.87515 1.01309 0.0
H3732 H 0.26333 0.88507 0.06514 0.0
H3733 H 0.23455 0.86048 0.21175 0.0
H3734 H 0.24331 0.89671 0.98784 0.0
H3735 H 0.25404 0.90897 0.04725 0.0
H3736 H 0.26046 0.90018 0.99885 0.0
H3737 H 0.21455 0.8612 0.23107 0.0
H3738 H 0.21839 0.87858 0.22968 0.0
H3739 H 0.20847 0.86733 0.16515 0.0
H3740 H 0.22697 0.92097 0.15103 0.0
H3741 H 0.20224 0.89231 1.00328 0.0
H3742 H 0.2512 0.91159 0.16579 0.0
H3743 H 0.23888 0.90129 0.22558 0.0
H3744 H 0.2428 0.91855 0.21348 0.0
H3745 H 0.2208 0.87629 0.9835 0.0
H3746 H 0.20354 0.87282 0.9795 0.0
H3747 H 0.20912 0.8664 0.04631 0.0
C3748 C 0.13619 0.31843 0.07938 0.0
C3749 C 0.12294 0.31268 0.10455 0.0
C3750 C 0.14566 0.33238 0.08682 0.0
C3751 C 0.14174 0.34102 0.11792 0.0
C3752 C 0.12852 0.3353 0.14429 0.0
C3753 C 0.11949 0.32128 0.13882 0.0
C3754 C 0.1598 0.33788 0.06033 0.0
C3755 C 0.12372 0.34408 0.17672 0.0
C3756 C 0.16593 0.3769 0.18106 0.0
C3757 C 0.16568 0.385 0.12957 0.0
C3758 C 0.15893 0.36261 0.17635 0.0
C3759 C 0.15103 0.35612 0.11982 0.0
C3760 C 0.15116 0.3642 0.06679 0.0
C3761 C 0.15871 0.37841 0.07164 0.0
C3762 C 0.15961 0.35446 0.23299 0.0
C3763 C 0.14273 0.35783 1.00598 0.0
H3764 H 0.13916 0.31214 0.05253 0.0
H3765 H 0.10963 0.31714 0.1614 0.0
H3766 H 0.16112 0.344 1.01581 0.0
H3767 H 0.16741 0.34465 0.09697 0.0
H3768 H 0.16194 0.32968 0.04716 0.0
H3769 H 0.11302 0.33815 0.19324 0.0
H3770 H 0.13017 0.34937 0.21981 0.0
H3771 H 0.12462 0.35197 0.1419 0.0
H3772 H 0.17118 0.38163 0.22627 0.0
H3773 H 0.15881 0.38435 0.03004 0.0
H3774 H 0.1611 0.34611 0.21487 0.0
H3775 H 0.14993 0.34982 0.2604 0.0
H3776 H 0.16795 0.36083 0.26762 0.0
H3777 H 0.14546 0.35067 0.9834 0.0
H3778 H 0.14403 0.36549 0.96868 0.0
H3779 H 0.13185 0.35193 0.01948 0.0
C3780 C 0.77889 0.64015 0.48284 0.0
C3781 C 0.7817 0.63348 0.43242 0.0
C3782 C 0.78707 0.65416 0.49358 0.0
C3783 C 0.79865 0.66181 0.4541 0.0
C3784 C 0.80206 0.65505 0.40576 0.0
C3785 C 0.79352 0.64101 0.3952 0.0
C3786 C 0.78294 0.66086 0.54548 0.0
C3787 C 0.81447 0.66274 0.36351 0.0
C3788 C 0.80846 0.6988 0.43272 0.0
C3789 C 0.81836 0.70539 0.48167 0.0
C3790 C 0.80233 0.68477 0.42201 0.0
C3791 C 0.80635 0.67698 0.45997 0.0
C3792 C 0.8169 0.68363 0.50681 0.0
C3793 C 0.82271 0.69771 0.51742 0.0
C3794 C 0.7911 0.67819 0.37177 0.0
C3795 C 0.82172 0.6758 0.54739 0.0
H3796 H 0.77008 0.63445 0.51357 0.0
H3797 H 0.79587 0.63604 0.35621 0.0
H3798 H 0.79145 0.66672 0.57999 0.0
H3799 H 0.78044 0.66812 0.52197 0.0
H3800 H 0.77401 0.65342 0.57403 0.0
H3801 H 0.81675 0.65585 0.33462 0.0
H3802 H 0.81288 0.66932 0.3289 0.0
H3803 H 0.82341 0.66942 0.39425 0.0
H3804 H 0.80529 0.70461 0.40306 0.0
H3805 H 0.83033 0.7026 0.55529 0.0
H3806 H 0.78149 0.67101 0.39657 0.0
H3807 H 0.79339 0.67225 0.33608 0.0
H3808 H 0.78952 0.6857 0.34439 0.0
H3809 H 0.81375 0.6693 0.58296 0.0
H3810 H 0.83113 0.68259 0.57511 0.0
H3811 H 0.82363 0.66902 0.51559 0.0
C3812 C 0.31696 0.1082 0.47557 0.0
C3813 C 0.30949 0.11279 0.51146 0.0
C3814 C 0.33083 0.11673 0.46202 0.0
C3815 C 0.33759 0.13034 0.48436 0.0
C3816 C 0.33004 0.13521 0.51876 0.0
C3817 C 0.31613 0.12641 0.53182 0.0
C3818 C 0.33834 0.11103 0.42498 0.0
C3819 C 0.33676 0.14962 0.54338 0.0
C3820 C 0.3757 0.14571 0.51061 0.0
C3821 C 0.38121 0.15296 0.45221 0.0
C3822 C 0.36166 0.13878 0.52254 0.0
C3823 C 0.35269 0.13907 0.47521 0.0
C3824 C 0.35819 0.14689 0.41746 0.0
C3825 C 0.37235 0.15374 0.40671 0.0
C3826 C 0.35638 0.13071 0.58498 0.0
C3827 C 0.34908 0.14757 0.36574 0.0
H3828 H 0.31196 0.09784 0.4579 0.0
H3829 H 0.31056 0.13012 0.55965 0.0
H3830 H 0.34344 0.11738 0.38148 0.0
H3831 H 0.34633 0.11121 0.45682 0.0
H3832 H 0.33154 0.10045 0.40833 0.0
H3833 H 0.32936 0.1522 0.56455 0.0
H3834 H 0.34433 0.15117 0.58168 0.0
H3835 H 0.34227 0.15677 0.50289 0.0
H3836 H 0.38242 0.14524 0.5469 0.0
H3837 H 0.37642 0.15925 0.36139 0.0
H3838 H 0.35025 0.11976 0.57292 0.0
H3839 H 0.34966 0.1336 0.61101 0.0
H3840 H 0.36468 0.1322 0.61878 0.0
H3841 H 0.343 0.13748 0.34232 0.0
H3842 H 0.3549 0.1551 0.32699 0.0
H3843 H 0.34187 0.15024 0.38836 0.0
C3844 C 0.86728 0.22639 0.41596 0.0
C3845 C 0.86777 0.23562 0.46322 0.0
C3846 C 0.87399 0.21894 0.42612 0.0
C3847 C 0.8815 0.22083 0.48467 0.0
C3848 C 0.88152 0.22966 0.53365 0.0
C3849 C 0.87458 0.23678 0.52267 0.0
C3850 C 0.87346 0.20945 0.37306 0.0
C3851 C 0.88939 0.23208 0.59671 0.0
C3852 C 0.89394 0.1966 0.5374 0.0
C3853 C 0.90748 0.20345 0.51606 0.0
C3854 C 0.88525 0.20189 0.52594 0.0
C3855 C 0.89019 0.21444 0.49307 0.0
C3856 C 0.90378 0.22133 0.4709 0.0
C3857 C 0.91216 0.21572 0.482 0.0
C3858 C 0.8708 0.1941 0.54973 0.0
C3859 C 0.90958 0.23478 0.43611 0.0
H3860 H 0.8621 0.22537 0.36985 0.0
H3861 H 0.87474 0.24355 0.56053 0.0
H3862 H 0.88359 0.21363 0.35013 0.0
H3863 H 0.87082 0.19947 0.39431 0.0
H3864 H 0.86599 0.20789 0.33412 0.0
H3865 H 0.88784 0.23872 0.63132 0.0
H3866 H 0.88639 0.22232 0.62144 0.0
H3867 H 0.90037 0.23691 0.58561 0.0
H3868 H 0.89013 0.18718 0.56401 0.0
H3869 H 0.92241 0.22098 0.46323 0.0
H3870 H 0.86372 0.19258 0.50888 0.0
H3871 H 0.86916 0.19999 0.58838 0.0
H3872 H 0.86819 0.18405 0.57011 0.0
H3873 H 0.90352 0.23373 0.3916 0.0
H3874 H 0.9203 0.23882 0.42135 0.0
H3875 H 0.90903 0.24231 0.46865 0.0
C3876 C 0.05151 0.57783 0.31891 0.0
C3877 C 0.05776 0.58693 0.26682 0.0
C3878 C 0.03727 0.5701 0.32418 0.0
C3879 C 0.02897 0.57148 0.27645 0.0
C3880 C 0.0352 0.58047 0.22326 0.0
C3881 C 0.04943 0.58797 0.21891 0.0
C3882 C 0.0311 0.56058 0.38146 0.0
C3883 C 0.02683 0.58231 0.17119 0.0
C3884 C 0.99168 0.5441 0.25775 0.0
C3885 C 0.98498 0.5497 0.29247 0.0
C3886 C 1.00593 0.55096 0.25279 0.0
C3887 C 0.0138 0.56383 0.2828 0.0
C3888 C 1.00713 0.56956 0.31776 0.0
C3889 C 0.99289 0.56244 0.32241 0.0
C3890 C 1.01258 0.54443 0.21518 0.0
C3891 C 0.01505 0.58326 0.35034 0.0
H3892 H 0.05775 0.57695 0.35653 0.0
H3893 H 0.05403 0.59466 0.17745 0.0
H3894 H 0.02521 0.56385 0.41212 0.0
H3895 H 0.02393 0.5502 0.36351 0.0
H3896 H 0.03887 0.56018 0.4128 0.0
H3897 H 0.03318 0.58955 0.13248 0.0
H3898 H 0.01984 0.57243 0.14772 0.0
H3899 H 0.0205 0.58608 0.19397 0.0
H3900 H 0.98578 0.53437 0.23376 0.0
H3901 H 0.98797 0.56681 0.35065 0.0
H3902 H 0.01993 0.54347 0.24716 0.0
H3903 H 0.01833 0.55092 0.1731 0.0
H3904 H 1.0051 0.53422 0.19625 0.0
H3905 H 0.02222 0.58312 0.38679 0.0
H3906 H 1.00839 0.58635 0.37562 0.0
H3907 H 0.02117 0.59105 0.31321 0.0
C3908 C 0.44037 0.46839 0.3868 0.0
C3909 C 0.43939 0.47151 0.32103 0.0
C3910 C 0.44798 0.46216 0.4049 0.0
C3911 C 0.45509 0.45919 0.35649 0.0
C3912 C 0.45443 0.46269 0.29033 0.0
C3913 C 0.44652 0.46862 0.27346 0.0
C3914 C 0.44808 0.45839 0.47574 0.0
C3915 C 0.46201 0.46008 0.23696 0.0
C3916 C 0.48397 0.45271 0.40687 0.0
C3917 C 0.47796 0.43853 0.40061 0.0
C3918 C 0.4767 0.45951 0.39333 0.0
C3919 C 0.46288 0.45206 0.37423 0.0
C3920 C 0.45662 0.43776 0.36957 0.0
C3921 C 0.4642 0.43125 0.38186 0.0
C3922 C 0.48394 0.47477 0.39817 0.0
C3923 C 0.4419 0.42928 0.35034 0.0
H3924 H 0.43483 0.47044 0.42394 0.0
H3925 H 0.44596 0.47108 0.22261 0.0
H3926 H 0.4436 0.44725 0.47988 0.0
H3927 H 0.45864 0.46311 0.49414 0.0
H3928 H 0.44231 0.46159 0.5078 0.0
H3929 H 0.46111 0.46406 0.18864 0.0
H3930 H 0.4729 0.46485 0.25006 0.0
H3931 H 0.45806 0.44903 0.23205 0.0
H3932 H 0.49444 0.45862 0.4223 0.0
H3933 H 0.4593 0.42039 0.37498 0.0
H3934 H 0.47864 0.47794 0.43343 0.0
H3935 H 0.48375 0.47912 0.34975 0.0
H3936 H 0.49465 0.47914 0.41412 0.0
H3937 H 0.43555 0.43174 0.38233 0.0
H3938 H 0.43819 0.41825 0.35381 0.0
H3939 H 0.44047 0.43163 0.29918 0.0
C3940 C 0.58434 0.04824 0.30657 0.0
C3941 C 0.59423 0.05467 0.35584 0.0
C3942 C 0.57777 0.03409 0.29627 0.0
C3943 C 0.58103 0.02593 0.33608 0.0
C3944 C 0.59108 0.03233 0.38553 0.0
C3945 C 0.59756 0.04655 0.39463 0.0
C3946 C 0.56728 0.02788 0.24248 0.0
C3947 C 0.59492 0.02412 0.42937 0.0
C3948 C 0.55497 0.98781 0.34571 0.0
C3949 C 0.56026 0.98209 0.30185 0.0
C3950 C 0.56166 1.00193 0.35794 0.0
C3951 C 0.57399 0.01075 0.3254 0.0
C3952 C 0.57938 1.00505 0.28108 0.0
C3953 C 0.57251 0.99091 0.26997 0.0
C3954 C 0.5555 1.00743 0.40575 0.0
C3955 C 0.59238 0.01394 0.24459 0.0
H3956 H 0.58179 0.05432 0.27527 0.0
H3957 H 0.60505 0.05126 0.43321 0.0
H3958 H 0.5703 0.0225 0.20688 0.0
H3959 H 0.5574 0.02027 0.26355 0.0
H3960 H 0.56588 0.03556 0.21558 0.0
H3961 H 0.60292 0.03053 0.46539 0.0
H3962 H 0.58588 0.01649 0.4565 0.0
H3963 H 0.59861 0.01851 0.39926 0.0
H3964 H 0.54562 0.98121 0.3713 0.0
H3965 H 0.57667 0.98679 0.23504 0.0
H3966 H 0.55314 0.01461 0.38034 0.0
H3967 H 0.56286 0.01315 0.4454 0.0
H3968 H 0.54605 0.99929 0.42828 0.0
H3969 H 0.59116 0.02123 0.21336 0.0
H3970 H 0.59545 1.00799 0.21294 0.0
H3971 H 0.60068 0.01995 0.27988 0.0
C3972 C 0.46187 0.98262 0.67169 0.0
C3973 C 0.44938 0.97418 0.70249 0.0
C3974 C 0.46973 0.99652 0.68769 0.0
C3975 C 0.46504 1.00228 0.73542 0.0
C3976 C 0.45252 0.99382 0.76699 0.0
C3977 C 0.44495 0.97996 0.75058 0.0
C3978 C 0.48303 1.0051 0.65299 0.0
C3979 C 0.44703 0.99944 0.81793 0.0
C3980 C 0.48857 0.03636 0.81938 0.0
C3981 C 0.48558 0.04524 0.78505 0.0
C3982 C 0.48232 0.02247 0.8026 0.0
C3983 C 0.47279 0.01723 0.75033 0.0
C3984 C 0.4701 0.02623 0.7142 0.0
C3985 C 0.47655 0.04004 0.73156 0.0
C3986 C 0.48564 0.01331 0.84207 0.0
C3987 C 0.46005 0.02121 0.65818 0.0
H3988 H 0.46545 0.97841 0.63432 0.0
H3989 H 0.43556 0.97361 0.77639 0.0
H3990 H 0.48254 0.01303 0.62364 0.0
H3991 H 0.49131 0.01035 0.68942 0.0
H3992 H 0.48565 0.99901 0.61979 0.0
H3993 H 0.43724 0.99152 0.83875 0.0
H3994 H 0.45443 1.00417 0.85858 0.0
H3995 H 0.4455 1.00746 0.79579 0.0
H3996 H 0.49547 0.04017 0.86076 0.0
H3997 H 0.47439 0.04678 0.70327 0.0
H3998 H 0.4885 1.00742 0.80895 0.0
H3999 H 0.47655 1.00592 0.86973 0.0
H4000 H 0.49402 0.01905 0.87748 0.0
H4001 H 0.46286 0.01586 0.62139 0.0
H4002 H 0.45945 0.02956 0.63328 0.0
H4003 H 0.44984 0.01381 0.67682 0.0
C4004 C 0.9891 0.46016 0.79266 0.0
C4005 C 0.98392 0.44748 0.82312 0.0
C4006 C 1.0028 0.46764 0.77238 0.0
C4007 C 1.01172 0.46253 0.78411 0.0
C4008 C 1.00658 0.44992 0.81683 0.0
C4009 C 0.9928 0.44252 0.83497 0.0
C4010 C 1.00762 0.48084 0.73659 0.0
C4011 C 0.01565 0.44415 0.83219 0.0
C4012 C 0.04395 0.4738 0.68161 0.0
C4013 C 0.05414 0.4836 0.72209 0.0
C4014 C 0.03014 0.46722 0.70014 0.0
C4015 C 0.02632 0.47018 0.76162 0.0
C4016 C 0.03659 0.48007 0.80265 0.0
C4017 C 0.05026 0.48672 0.78221 0.0
C4018 C 0.01963 0.45701 0.65393 0.0
C4019 C 0.03319 0.48338 0.86921 0.0
H4020 H 0.98229 0.46399 0.78243 0.0
H4021 H 0.9889 0.43274 0.85844 0.0
H4022 H 0.01635 0.48917 0.76284 0.0
H4023 H 1.01118 0.48014 0.68684 0.0
H4024 H 0.99954 0.48352 0.73162 0.0
H4025 H 1.01036 0.43466 0.86121 0.0
H4026 H 0.01932 0.44197 0.78594 0.0
H4027 H 0.02468 0.45166 0.86011 0.0
H4028 H 0.04678 0.47133 0.63504 0.0
H4029 H 0.05803 0.4941 0.81446 0.0
H4030 H 1.01162 0.45963 0.64453 0.0
H4031 H 0.01467 0.44682 0.67669 0.0
H4032 H 0.02406 0.45648 0.60625 0.0
H4033 H 0.0256 0.4867 0.86421 0.0
H4034 H 0.04225 0.49147 0.89489 0.0
H4035 H 0.0286 0.47416 0.90027 0.0
C4036 C 0.5682 0.54367 0.75317 0.0
C4037 C 0.56519 0.5336 0.80062 0.0
C4038 C 0.55999 0.54954 0.74455 0.0
C4039 C 0.54821 0.54513 0.78327 0.0
C4040 C 0.54473 0.53453 0.82913 0.0
C4041 C 0.55327 0.52896 0.83751 0.0
C4042 C 0.5642 0.56083 0.69526 0.0
C4043 C 0.53217 0.52934 0.87074 0.0
C4044 C 0.53726 0.57139 0.81016 0.0
C4045 C 0.52739 0.56812 0.76108 0.0
C4046 C 0.54378 0.56379 0.81896 0.0
C4047 C 0.54022 0.55234 0.77874 0.0
C4048 C 0.52976 0.5485 0.73148 0.0
C4049 C 0.52353 0.55645 0.72299 0.0
C4050 C 0.55487 0.56837 0.86981 0.0
C4051 C 0.52545 0.53624 0.68833 0.0
H4052 H 0.57709 0.5471 0.72271 0.0
H4053 H 0.55078 0.52124 0.8744 0.0
H4054 H 0.55585 0.55832 0.65999 0.0
H4055 H 0.56635 0.57029 0.72094 0.0
H4056 H 0.57337 0.56279 0.66733 0.0
H4057 H 0.53006 0.52014 0.8988 0.0
H4058 H 0.53341 0.53731 0.90602 0.0
H4059 H 0.52326 0.52694 0.83954 0.0
H4060 H 0.54009 0.5801 0.84148 0.0
H4061 H 0.51595 0.55376 0.68491 0.0
H4062 H 0.56464 0.57129 0.8453 0.0
H4063 H 0.55273 0.55994 0.90384 0.0
H4064 H 0.55608 0.57714 0.89901 0.0
H4065 H 0.53373 0.53818 0.6537 0.0
H4066 H 0.5162 0.53368 0.65946 0.0
H4067 H 0.5235 0.52734 0.71845 0.0
loop_
_geom_bond_atom_site_label_1
_geom_bond_atom_site_label_2
_geom_bond_distance
_geom_bond_site_symmetry_2
_ccdc_geom_bond_type
C0 C1 1.351 . S
C0 N3 1.368 . S
C0 H5 0.931 . S
C1 C0 1.351 . S
C1 N2 1.373 . S
C1 H29 0.930 . S
N2 C1 1.373 . S
N2 C4 1.340 . S
N3 C0 1.368 . S
N3 C4 1.321 . S
N3 Co6 2.135 . S
C4 N2 1.340 . S
C4 N3 1.321 . S
C4 H28 0.930 . S
H5 C0 0.931 . S
Co6 N3 2.135 . S
Co6 N9 2.121 1_554 S
Co6 O14 2.055 . S
Co6 O17 2.039 1_554 S
Co6 N20 2.140 . S
C7 O8 1.227 . S
C7 O17 1.265 . S
O8 C7 1.227 . S
N9 Co6 2.121 1_556 S
N9 C11 1.375 . S
N9 C12 1.313 . S
C10 C11 1.338 . S
C10 N13 1.377 . S
C10 H30 0.930 . S
C11 N9 1.375 . S
C11 C10 1.338 . S
C11 H15 0.931 . S
C12 N9 1.313 . S
C12 N13 1.344 . S
C12 H16 0.930 . S
N13 C10 1.377 . S
N13 C12 1.344 . S
O14 Co6 2.055 . S
O14 C18 1.253 . S
H15 C11 0.931 . S
H16 C12 0.930 . S
O17 Co6 2.039 1_556 S
O17 C7 1.265 . S
C18 O14 1.253 . S
C18 O19 1.227 . S
O19 C18 1.227 . S
N20 Co6 2.140 . S
N20 C23 1.346 . S
N20 C24 1.345 1_554 S
C21 C22 1.387 1_556 S
C21 C25 1.391 . S
C22 C21 1.387 1_554 S
C22 C23 1.369 . S
C22 H31 0.929 . S
C23 N20 1.346 . S
C23 C22 1.369 . S
C23 H26 0.928 . S
C24 N20 1.345 1_556 S
C24 C25 1.371 . S
C24 H27 0.931 . S
C25 C21 1.391 . S
C25 C24 1.371 . S
C25 H32 0.930 . S
H26 C23 0.928 . S
H27 C24 0.931 . S
H28 C4 0.930 . S
H29 C1 0.930 . S
H30 C10 0.930 . S
H31 C22 0.929 . S
H32 C25 0.930 . S
C33 C34 1.351 . S
C33 N36 1.368 . S
C33 H38 0.931 . S
C34 C33 1.351 . S
C34 N35 1.373 . S
C34 H62 0.930 . S
N35 C34 1.373 . S
N35 C37 1.340 . S
N36 C33 1.368 . S
N36 C37 1.321 . S
N36 Co39 2.135 . S
C37 N35 1.340 . S
C37 N36 1.321 . S
C37 H61 0.930 . S
H38 C33 0.931 . S
Co39 N36 2.135 . S
Co39 N42 2.121 1_554 S
Co39 O47 2.055 . S
Co39 O50 2.039 1_554 S
Co39 N53 2.140 . S
C40 O41 1.227 . S
C40 O50 1.265 . S
O41 C40 1.227 . S
N42 Co39 2.121 1_556 S
N42 C44 1.375 . S
N42 C45 1.313 . S
C43 C44 1.338 . S
C43 N46 1.377 . S
C43 H63 0.930 . S
C44 N42 1.375 . S
C44 C43 1.338 . S
C44 H48 0.931 . S
C45 N42 1.313 . S
C45 N46 1.344 . S
C45 H49 0.930 . S
N46 C43 1.377 . S
N46 C45 1.344 . S
O47 Co39 2.055 . S
O47 C51 1.253 . S
H48 C44 0.931 . S
H49 C45 0.930 . S
O50 Co39 2.039 1_556 S
O50 C40 1.265 . S
C51 O47 1.253 . S
C51 O52 1.227 . S
O52 C51 1.227 . S
N53 Co39 2.140 . S
N53 C56 1.346 . S
N53 C57 1.345 1_554 S
C54 C55 1.387 1_556 S
C54 C58 1.391 . S
C55 C54 1.387 1_554 S
C55 C56 1.369 . S
C55 H64 0.929 . S
C56 N53 1.346 . S
C56 C55 1.369 . S
C56 H59 0.928 . S
C57 N53 1.345 1_556 S
C57 C58 1.371 . S
C57 H60 0.931 . S
C58 C54 1.391 . S
C58 C57 1.371 . S
C58 H65 0.930 . S
H59 C56 0.928 . S
H60 C57 0.931 . S
H61 C37 0.930 . S
H62 C34 0.930 . S
H63 C43 0.930 . S
H64 C55 0.929 . S
H65 C58 0.930 . S
C66 C67 1.351 . S
C66 N69 1.368 . S
C66 H71 0.931 . S
C67 C66 1.351 . S
C67 N68 1.373 . S
C67 H95 0.930 . S
N68 C67 1.373 . S
N68 C70 1.340 . S
N69 C66 1.368 . S
N69 C70 1.321 . S
N69 Co72 2.135 . S
C70 N68 1.340 . S
C70 N69 1.321 . S
C70 H94 0.930 . S
H71 C66 0.931 . S
Co72 N69 2.135 . S
Co72 N75 2.121 1_554 S
Co72 O80 2.055 . S
Co72 O83 2.039 1_554 S
Co72 N86 2.140 . S
C73 O74 1.227 . S
C73 O83 1.265 . S
O74 C73 1.227 . S
N75 Co72 2.121 1_556 S
N75 C77 1.375 . S
N75 C78 1.313 . S
C76 C77 1.338 . S
C76 N79 1.377 . S
C76 H96 0.930 . S
C77 N75 1.375 . S
C77 C76 1.338 . S
C77 H81 0.931 . S
C78 N75 1.313 . S
C78 N79 1.344 . S
C78 H82 0.930 . S
N79 C76 1.377 . S
N79 C78 1.344 . S
O80 Co72 2.055 . S
O80 C84 1.253 . S
H81 C77 0.931 . S
H82 C78 0.930 . S
O83 Co72 2.039 1_556 S
O83 C73 1.265 . S
C84 O80 1.253 . S
C84 O85 1.227 . S
O85 C84 1.227 . S
N86 Co72 2.140 . S
N86 C89 1.346 . S
N86 C90 1.345 1_554 S
C87 C88 1.387 1_556 S
C87 C91 1.391 . S
C88 C87 1.387 1_554 S
C88 C89 1.369 . S
C88 H97 0.929 . S
C89 N86 1.346 . S
C89 C88 1.369 . S
C89 H92 0.928 . S
C90 N86 1.345 1_556 S
C90 C91 1.371 . S
C90 H93 0.931 . S
C91 C87 1.391 . S
C91 C90 1.371 . S
C91 H98 0.930 . S
H92 C89 0.928 . S
H93 C90 0.931 . S
H94 C70 0.930 . S
H95 C67 0.930 . S
H96 C76 0.930 . S
H97 C88 0.929 . S
H98 C91 0.930 . S
C99 C100 1.351 . S
C99 N102 1.368 . S
C99 H104 0.931 . S
C100 C99 1.351 . S
C100 N101 1.373 . S
C100 H128 0.930 . S
N101 C100 1.373 . S
N101 C103 1.340 . S
N102 C99 1.368 . S
N102 C103 1.321 . S
N102 Co105 2.135 . S
C103 N101 1.340 . S
C103 N102 1.321 . S
C103 H127 0.930 . S
H104 C99 0.931 . S
Co105 N102 2.135 . S
Co105 N108 2.121 . S
Co105 O113 2.055 . S
Co105 O116 2.039 . S
Co105 N119 2.140 . S
C106 O107 1.227 . S
C106 O116 1.265 . S
O107 C106 1.227 . S
N108 Co105 2.121 . S
N108 C110 1.375 . S
N108 C111 1.313 . S
C109 C110 1.338 . S
C109 N112 1.377 . S
C109 H129 0.930 . S
C110 N108 1.375 . S
C110 C109 1.338 . S
C110 H114 0.931 . S
C111 N108 1.313 . S
C111 N112 1.344 . S
C111 H115 0.930 . S
N112 C109 1.377 . S
N112 C111 1.344 . S
O113 Co105 2.055 . S
O113 C117 1.253 . S
H114 C110 0.931 . S
H115 C111 0.930 . S
O116 Co105 2.039 . S
O116 C106 1.265 . S
C117 O113 1.253 . S
C117 O118 1.227 . S
O118 C117 1.227 . S
N119 Co105 2.140 . S
N119 C122 1.346 . S
N119 C123 1.345 . S
C120 C121 1.387 . S
C120 C124 1.391 . S
C121 C120 1.387 . S
C121 C122 1.369 . S
C121 H130 0.929 . S
C122 N119 1.346 . S
C122 C121 1.369 . S
C122 H125 0.928 . S
C123 N119 1.345 . S
C123 C124 1.371 . S
C123 H126 0.931 . S
C124 C120 1.391 . S
C124 C123 1.371 . S
C124 H131 0.930 . S
H125 C122 0.928 . S
H126 C123 0.931 . S
H127 C103 0.930 . S
H128 C100 0.930 . S
H129 C109 0.930 . S
H130 C121 0.929 . S
H131 C124 0.930 . S
C132 C133 1.351 . S
C132 N135 1.368 . S
C132 H137 0.931 . S
C133 C132 1.351 . S
C133 N134 1.373 . S
C133 H161 0.930 . S
N134 C133 1.373 . S
N134 C136 1.340 . S
N135 C132 1.368 . S
N135 C136 1.321 . S
N135 Co138 2.135 . S
C136 N134 1.340 . S
C136 N135 1.321 . S
C136 H160 0.930 . S
H137 C132 0.931 . S
Co138 N135 2.135 . S
Co138 N141 2.121 . S
Co138 O146 2.055 . S
Co138 O149 2.039 . S
Co138 N152 2.140 . S
C139 O140 1.227 . S
C139 O149 1.265 . S
O140 C139 1.227 . S
N141 Co138 2.121 . S
N141 C143 1.375 . S
N141 C144 1.313 . S
C142 C143 1.338 . S
C142 N145 1.377 . S
C142 H162 0.930 . S
C143 N141 1.375 . S
C143 C142 1.338 . S
C143 H147 0.931 . S
C144 N141 1.313 . S
C144 N145 1.344 . S
C144 H148 0.930 . S
N145 C142 1.377 . S
N145 C144 1.344 . S
O146 Co138 2.055 . S
O146 C150 1.253 . S
H147 C143 0.931 . S
H148 C144 0.930 . S
O149 Co138 2.039 . S
O149 C139 1.265 . S
C150 O146 1.253 . S
C150 O151 1.227 . S
O151 C150 1.227 . S
N152 Co138 2.140 . S
N152 C155 1.346 . S
N152 C156 1.345 . S
C153 C154 1.387 . S
C153 C157 1.391 . S
C154 C153 1.387 . S
C154 C155 1.369 . S
C154 H163 0.929 . S
C155 N152 1.346 . S
C155 C154 1.369 . S
C155 H158 0.928 . S
C156 N152 1.345 . S
C156 C157 1.371 . S
C156 H159 0.931 . S
C157 C153 1.391 . S
C157 C156 1.371 . S
C157 H164 0.930 . S
H158 C155 0.928 . S
H159 C156 0.931 . S
H160 C136 0.930 . S
H161 C133 0.930 . S
H162 C142 0.930 . S
H163 C154 0.929 . S
H164 C157 0.930 . S
C165 C166 1.351 . S
C165 N168 1.368 . S
C165 H170 0.931 . S
C166 C165 1.351 . S
C166 N167 1.373 . S
C166 H194 0.930 . S
N167 C166 1.373 . S
N167 C169 1.340 . S
N168 C165 1.368 . S
N168 C169 1.321 . S
N168 Co171 2.135 . S
C169 N167 1.340 . S
C169 N168 1.321 . S
C169 H193 0.930 . S
H170 C165 0.931 . S
Co171 N168 2.135 . S
Co171 N174 2.121 . S
Co171 O179 2.055 . S
Co171 O182 2.039 . S
Co171 N185 2.140 . S
C172 O173 1.227 . S
C172 O182 1.265 . S
O173 C172 1.227 . S
N174 Co171 2.121 . S
N174 C176 1.375 . S
N174 C177 1.313 . S
C175 C176 1.338 . S
C175 N178 1.377 . S
C175 H195 0.930 . S
C176 N174 1.375 . S
C176 C175 1.338 . S
C176 H180 0.931 . S
C177 N174 1.313 . S
C177 N178 1.344 . S
C177 H181 0.930 . S
N178 C175 1.377 . S
N178 C177 1.344 . S
O179 Co171 2.055 . S
O179 C183 1.253 . S
H180 C176 0.931 . S
H181 C177 0.930 . S
O182 Co171 2.039 . S
O182 C172 1.265 . S
C183 O179 1.253 . S
C183 O184 1.227 . S
O184 C183 1.227 . S
N185 Co171 2.140 . S
N185 C188 1.346 . S
N185 C189 1.345 . S
C186 C187 1.387 . S
C186 C190 1.391 . S
C187 C186 1.387 . S
C187 C188 1.369 . S
C187 H196 0.929 . S
C188 N185 1.346 . S
C188 C187 1.369 . S
C188 H191 0.928 . S
C189 N185 1.345 . S
C189 C190 1.371 . S
C189 H192 0.931 . S
C190 C186 1.391 . S
C190 C189 1.371 . S
C190 H197 0.930 . S
H191 C188 0.928 . S
H192 C189 0.931 . S
H193 C169 0.930 . S
H194 C166 0.930 . S
H195 C175 0.930 . S
H196 C187 0.929 . S
H197 C190 0.930 . S
C198 C199 1.351 . S
C198 N201 1.368 . S
C198 H203 0.931 . S
C199 C198 1.351 . S
C199 N200 1.373 . S
C199 H227 0.930 . S
N200 C199 1.373 . S
N200 C202 1.340 . S
N201 C198 1.368 . S
N201 C202 1.321 . S
N201 Co204 2.135 . S
C202 N200 1.340 . S
C202 N201 1.321 . S
C202 H226 0.930 . S
H203 C198 0.931 . S
Co204 N201 2.135 . S
Co204 N207 2.121 1_554 S
Co204 O212 2.055 . S
Co204 O215 2.039 1_554 S
Co204 N218 2.140 . S
C205 O206 1.227 . S
C205 O215 1.265 . S
O206 C205 1.227 . S
N207 Co204 2.121 1_556 S
N207 C209 1.375 . S
N207 C210 1.313 . S
C208 C209 1.338 . S
C208 N211 1.377 . S
C208 H228 0.930 . S
C209 N207 1.375 . S
C209 C208 1.338 . S
C209 H213 0.931 . S
C210 N207 1.313 . S
C210 N211 1.344 . S
C210 H214 0.930 . S
N211 C208 1.377 . S
N211 C210 1.344 . S
O212 Co204 2.055 . S
O212 C216 1.253 . S
H213 C209 0.931 . S
H214 C210 0.930 . S
O215 Co204 2.039 1_556 S
O215 C205 1.265 . S
C216 O212 1.253 . S
C216 O217 1.227 . S
O217 C216 1.227 . S
N218 Co204 2.140 . S
N218 C221 1.346 . S
N218 C222 1.345 . S
C219 C220 1.387 . S
C219 C223 1.391 . S
C220 C219 1.387 . S
C220 C221 1.369 . S
C220 H229 0.929 . S
C221 N218 1.346 . S
C221 C220 1.369 . S
C221 H224 0.928 . S
C222 N218 1.345 . S
C222 C223 1.371 . S
C222 H225 0.931 . S
C223 C219 1.391 . S
C223 C222 1.371 . S
C223 H230 0.930 . S
H224 C221 0.928 . S
H225 C222 0.931 . S
H226 C202 0.930 . S
H227 C199 0.930 . S
H228 C208 0.930 . S
H229 C220 0.929 . S
H230 C223 0.930 . S
C231 C232 1.351 . S
C231 N234 1.368 . S
C231 H236 0.931 . S
C232 C231 1.351 . S
C232 N233 1.373 . S
C232 H260 0.930 . S
N233 C232 1.373 . S
N233 C235 1.340 . S
N234 C231 1.368 . S
N234 C235 1.321 . S
N234 Co237 2.135 . S
C235 N233 1.340 . S
C235 N234 1.321 . S
C235 H259 0.930 . S
H236 C231 0.931 . S
Co237 N234 2.135 . S
Co237 N240 2.121 1_554 S
Co237 O245 2.055 . S
Co237 O248 2.039 1_554 S
Co237 N251 2.140 . S
C238 O239 1.227 . S
C238 O248 1.265 . S
O239 C238 1.227 . S
N240 Co237 2.121 1_556 S
N240 C242 1.375 . S
N240 C243 1.313 . S
C241 C242 1.338 . S
C241 N244 1.377 . S
C241 H261 0.930 . S
C242 N240 1.375 . S
C242 C241 1.338 . S
C242 H246 0.931 . S
C243 N240 1.313 . S
C243 N244 1.344 . S
C243 H247 0.930 . S
N244 C241 1.377 . S
N244 C243 1.344 . S
O245 Co237 2.055 . S
O245 C249 1.253 . S
H246 C242 0.931 . S
H247 C243 0.930 . S
O248 Co237 2.039 1_556 S
O248 C238 1.265 . S
C249 O245 1.253 . S
C249 O250 1.227 . S
O250 C249 1.227 . S
N251 Co237 2.140 . S
N251 C254 1.346 . S
N251 C255 1.345 . S
C252 C253 1.387 . S
C252 C256 1.391 . S
C253 C252 1.387 . S
C253 C254 1.369 . S
C253 H262 0.929 . S
C254 N251 1.346 . S
C254 C253 1.369 . S
C254 H257 0.928 . S
C255 N251 1.345 . S
C255 C256 1.371 . S
C255 H258 0.931 . S
C256 C252 1.391 . S
C256 C255 1.371 . S
C256 H263 0.930 . S
H257 C254 0.928 . S
H258 C255 0.931 . S
H259 C235 0.930 . S
H260 C232 0.930 . S
H261 C241 0.930 . S
H262 C253 0.929 . S
H263 C256 0.930 . S
C264 C265 1.351 . S
C264 N267 1.368 . S
C264 H269 0.931 . S
C265 C264 1.351 . S
C265 N266 1.373 . S
C265 H293 0.930 . S
N266 C265 1.373 . S
N266 C268 1.340 . S
N267 C264 1.368 . S
N267 C268 1.321 . S
N267 Co270 2.135 . S
C268 N266 1.340 . S
C268 N267 1.321 . S
C268 H292 0.930 . S
H269 C264 0.931 . S
Co270 N267 2.135 . S
Co270 N273 2.121 1_554 S
Co270 O278 2.055 . S
Co270 O281 2.039 1_554 S
Co270 N284 2.140 . S
C271 O272 1.227 . S
C271 O281 1.265 . S
O272 C271 1.227 . S
N273 Co270 2.121 1_556 S
N273 C275 1.375 . S
N273 C276 1.313 . S
C274 C275 1.338 . S
C274 N277 1.377 . S
C274 H294 0.930 . S
C275 N273 1.375 . S
C275 C274 1.338 . S
C275 H279 0.931 . S
C276 N273 1.313 . S
C276 N277 1.344 . S
C276 H280 0.930 . S
N277 C274 1.377 . S
N277 C276 1.344 . S
O278 Co270 2.055 . S
O278 C282 1.253 . S
H279 C275 0.931 . S
H280 C276 0.930 . S
O281 Co270 2.039 1_556 S
O281 C271 1.265 . S
C282 O278 1.253 . S
C282 O283 1.227 . S
O283 C282 1.227 . S
N284 Co270 2.140 . S
N284 C287 1.346 . S
N284 C288 1.345 . S
C285 C286 1.387 . S
C285 C289 1.391 . S
C286 C285 1.387 . S
C286 C287 1.369 . S
C286 H295 0.929 . S
C287 N284 1.346 . S
C287 C286 1.369 . S
C287 H290 0.928 . S
C288 N284 1.345 . S
C288 C289 1.371 . S
C288 H291 0.931 . S
C289 C285 1.391 . S
C289 C288 1.371 . S
C289 H296 0.930 . S
H290 C287 0.928 . S
H291 C288 0.931 . S
H292 C268 0.930 . S
H293 C265 0.930 . S
H294 C274 0.930 . S
H295 C286 0.929 . S
H296 C289 0.930 . S
C297 C298 1.351 . S
C297 N300 1.368 . S
C297 H302 0.931 . S
C298 C297 1.351 . S
C298 N299 1.373 . S
C298 H326 0.930 . S
N299 C298 1.373 . S
N299 C301 1.340 . S
N300 C297 1.368 . S
N300 C301 1.321 . S
N300 Co303 2.135 . S
C301 N299 1.340 . S
C301 N300 1.321 . S
C301 H325 0.930 . S
H302 C297 0.931 . S
Co303 N300 2.135 . S
Co303 N306 2.121 . S
Co303 O311 2.055 . S
Co303 O314 2.039 . S
Co303 N317 2.140 . S
C304 O305 1.227 . S
C304 O314 1.265 . S
O305 C304 1.227 . S
N306 Co303 2.121 . S
N306 C308 1.375 . S
N306 C309 1.313 . S
C307 C308 1.338 . S
C307 N310 1.377 . S
C307 H327 0.930 . S
C308 N306 1.375 . S
C308 C307 1.338 . S
C308 H312 0.931 . S
C309 N306 1.313 . S
C309 N310 1.344 . S
C309 H313 0.930 . S
N310 C307 1.377 . S
N310 C309 1.344 . S
O311 Co303 2.055 . S
O311 C315 1.253 . S
H312 C308 0.931 . S
H313 C309 0.930 . S
O314 Co303 2.039 . S
O314 C304 1.265 . S
C315 O311 1.253 . S
C315 O316 1.227 . S
O316 C315 1.227 . S
N317 Co303 2.140 . S
N317 C320 1.346 . S
N317 C321 1.345 . S
C318 C319 1.387 . S
C318 C322 1.391 . S
C319 C318 1.387 . S
C319 C320 1.369 . S
C319 H328 0.929 . S
C320 N317 1.346 . S
C320 C319 1.369 . S
C320 H323 0.928 . S
C321 N317 1.345 . S
C321 C322 1.371 . S
C321 H324 0.931 . S
C322 C318 1.391 . S
C322 C321 1.371 . S
C322 H329 0.930 . S
H323 C320 0.928 . S
H324 C321 0.931 . S
H325 C301 0.930 . S
H326 C298 0.930 . S
H327 C307 0.930 . S
H328 C319 0.929 . S
H329 C322 0.930 . S
C330 C331 1.351 . S
C330 N333 1.368 . S
C330 H335 0.931 . S
C331 C330 1.351 . S
C331 N332 1.373 . S
C331 H359 0.930 . S
N332 C331 1.373 . S
N332 C334 1.340 . S
N333 C330 1.368 . S
N333 C334 1.321 . S
N333 Co336 2.135 . S
C334 N332 1.340 . S
C334 N333 1.321 . S
C334 H358 0.930 . S
H335 C330 0.931 . S
Co336 N333 2.135 . S
Co336 N339 2.121 . S
Co336 O344 2.055 . S
Co336 O347 2.039 . S
Co336 N350 2.140 . S
C337 O338 1.227 . S
C337 O347 1.265 . S
O338 C337 1.227 . S
N339 Co336 2.121 . S
N339 C341 1.375 . S
N339 C342 1.313 . S
C340 C341 1.338 . S
C340 N343 1.377 . S
C340 H360 0.930 . S
C341 N339 1.375 . S
C341 C340 1.338 . S
C341 H345 0.931 . S
C342 N339 1.313 . S
C342 N343 1.344 . S
C342 H346 0.930 . S
N343 C340 1.377 . S
N343 C342 1.344 . S
O344 Co336 2.055 . S
O344 C348 1.253 . S
H345 C341 0.931 . S
H346 C342 0.930 . S
O347 Co336 2.039 . S
O347 C337 1.265 . S
C348 O344 1.253 . S
C348 O349 1.227 . S
O349 C348 1.227 . S
N350 Co336 2.140 . S
N350 C353 1.346 . S
N350 C354 1.345 . S
C351 C352 1.387 . S
C351 C355 1.391 . S
C352 C351 1.387 . S
C352 C353 1.369 . S
C352 H361 0.929 . S
C353 N350 1.346 . S
C353 C352 1.369 . S
C353 H356 0.928 . S
C354 N350 1.345 . S
C354 C355 1.371 . S
C354 H357 0.931 . S
C355 C351 1.391 . S
C355 C354 1.371 . S
C355 H362 0.930 . S
H356 C353 0.928 . S
H357 C354 0.931 . S
H358 C334 0.930 . S
H359 C331 0.930 . S
H360 C340 0.930 . S
H361 C352 0.929 . S
H362 C355 0.930 . S
C363 C364 1.351 . S
C363 N366 1.368 . S
C363 H368 0.931 . S
C364 C363 1.351 . S
C364 N365 1.373 . S
C364 H392 0.930 . S
N365 C364 1.373 . S
N365 C367 1.340 . S
N366 C363 1.368 . S
N366 C367 1.321 . S
N366 Co369 2.135 . S
C367 N365 1.340 . S
C367 N366 1.321 . S
C367 H391 0.930 . S
H368 C363 0.931 . S
Co369 N366 2.135 . S
Co369 N372 2.121 . S
Co369 O377 2.055 . S
Co369 O380 2.039 . S
Co369 N383 2.140 . S
C370 O371 1.227 . S
C370 O380 1.265 . S
O371 C370 1.227 . S
N372 Co369 2.121 . S
N372 C374 1.375 . S
N372 C375 1.313 . S
C373 C374 1.338 . S
C373 N376 1.377 . S
C373 H393 0.930 . S
C374 N372 1.375 . S
C374 C373 1.338 . S
C374 H378 0.931 . S
C375 N372 1.313 . S
C375 N376 1.344 . S
C375 H379 0.930 . S
N376 C373 1.377 . S
N376 C375 1.344 . S
O377 Co369 2.055 . S
O377 C381 1.253 . S
H378 C374 0.931 . S
H379 C375 0.930 . S
O380 Co369 2.039 . S
O380 C370 1.265 . S
C381 O377 1.253 . S
C381 O382 1.227 . S
O382 C381 1.227 . S
N383 Co369 2.140 . S
N383 C386 1.346 . S
N383 C387 1.345 . S
C384 C385 1.387 . S
C384 C388 1.391 . S
C385 C384 1.387 . S
C385 C386 1.369 . S
C385 H394 0.929 . S
C386 N383 1.346 . S
C386 C385 1.369 . S
C386 H389 0.928 . S
C387 N383 1.345 . S
C387 C388 1.371 . S
C387 H390 0.931 . S
C388 C384 1.391 . S
C388 C387 1.371 . S
C388 H395 0.930 . S
H389 C386 0.928 . S
H390 C387 0.931 . S
H391 C367 0.930 . S
H392 C364 0.930 . S
H393 C373 0.930 . S
H394 C385 0.929 . S
H395 C388 0.930 . S
C396 C397 1.351 . S
C396 N399 1.368 . S
C396 H401 0.931 . S
C397 C396 1.351 . S
C397 N398 1.373 . S
C397 H425 0.930 . S
N398 C397 1.373 . S
N398 C400 1.340 . S
N399 C396 1.368 . S
N399 C400 1.321 . S
N399 Co402 2.135 . S
C400 N398 1.340 . S
C400 N399 1.321 . S
C400 H424 0.930 . S
H401 C396 0.931 . S
Co402 N399 2.135 . S
Co402 N405 2.121 . S
Co402 O410 2.055 . S
Co402 O413 2.039 . S
Co402 N416 2.140 . S
C403 O404 1.227 . S
C403 O413 1.265 . S
O404 C403 1.227 . S
N405 Co402 2.121 . S
N405 C407 1.375 . S
N405 C408 1.313 . S
C406 C407 1.338 . S
C406 N409 1.377 . S
C406 H426 0.930 . S
C407 N405 1.375 . S
C407 C406 1.338 . S
C407 H411 0.931 . S
C408 N405 1.313 . S
C408 N409 1.344 . S
C408 H412 0.930 . S
N409 C406 1.377 . S
N409 C408 1.344 . S
O410 Co402 2.055 . S
O410 C414 1.253 . S
H411 C407 0.931 . S
H412 C408 0.930 . S
O413 Co402 2.039 . S
O413 C403 1.265 . S
C414 O410 1.253 . S
C414 O415 1.227 . S
O415 C414 1.227 . S
N416 Co402 2.140 . S
N416 C419 1.346 . S
N416 C420 1.345 . S
C417 C418 1.387 . S
C417 C421 1.391 . S
C418 C417 1.387 . S
C418 C419 1.369 . S
C418 H427 0.929 . S
C419 N416 1.346 . S
C419 C418 1.369 . S
C419 H422 0.928 . S
C420 N416 1.345 . S
C420 C421 1.371 . S
C420 H423 0.931 . S
C421 C417 1.391 . S
C421 C420 1.371 . S
C421 H428 0.930 . S
H422 C419 0.928 . S
H423 C420 0.931 . S
H424 C400 0.930 . S
H425 C397 0.930 . S
H426 C406 0.930 . S
H427 C418 0.929 . S
H428 C421 0.930 . S
C429 C430 1.351 . S
C429 N432 1.368 . S
C429 H434 0.931 . S
C430 C429 1.351 . S
C430 N431 1.373 . S
C430 H458 0.930 . S
N431 C430 1.373 . S
N431 C433 1.340 . S
N432 C429 1.368 . S
N432 C433 1.321 . S
N432 Co435 2.135 . S
C433 N431 1.340 . S
C433 N432 1.321 . S
C433 H457 0.930 . S
H434 C429 0.931 . S
Co435 N432 2.135 . S
Co435 N438 2.121 . S
Co435 O443 2.055 . S
Co435 O446 2.039 . S
Co435 N449 2.140 . S
C436 O437 1.227 . S
C436 O446 1.265 . S
O437 C436 1.227 . S
N438 Co435 2.121 . S
N438 C440 1.375 . S
N438 C441 1.313 . S
C439 C440 1.338 . S
C439 N442 1.377 . S
C439 H459 0.930 . S
C440 N438 1.375 . S
C440 C439 1.338 . S
C440 H444 0.931 . S
C441 N438 1.313 . S
C441 N442 1.344 . S
C441 H445 0.930 . S
N442 C439 1.377 . S
N442 C441 1.344 . S
O443 Co435 2.055 . S
O443 C447 1.253 . S
H444 C440 0.931 . S
H445 C441 0.930 . S
O446 Co435 2.039 . S
O446 C436 1.265 . S
C447 O443 1.253 . S
C447 O448 1.227 . S
O448 C447 1.227 . S
N449 Co435 2.140 . S
N449 C452 1.346 . S
N449 C453 1.345 . S
C450 C451 1.387 . S
C450 C454 1.391 . S
C451 C450 1.387 . S
C451 C452 1.369 . S
C451 H460 0.929 . S
C452 N449 1.346 . S
C452 C451 1.369 . S
C452 H455 0.928 . S
C453 N449 1.345 . S
C453 C454 1.371 . S
C453 H456 0.931 . S
C454 C450 1.391 . S
C454 C453 1.371 . S
C454 H461 0.930 . S
H455 C452 0.928 . S
H456 C453 0.931 . S
H457 C433 0.930 . S
H458 C430 0.930 . S
H459 C439 0.930 . S
H460 C451 0.929 . S
H461 C454 0.930 . S
C462 C463 1.351 . S
C462 N465 1.368 . S
C462 H467 0.931 . S
C463 C462 1.351 . S
C463 N464 1.373 . S
C463 H491 0.930 . S
N464 C463 1.373 . S
N464 C466 1.340 . S
N465 C462 1.368 . S
N465 C466 1.321 . S
N465 Co468 2.135 . S
C466 N464 1.340 . S
C466 N465 1.321 . S
C466 H490 0.930 . S
H467 C462 0.931 . S
Co468 N465 2.135 . S
Co468 N471 2.121 . S
Co468 O476 2.055 . S
Co468 O479 2.039 . S
Co468 N482 2.140 . S
C469 O470 1.227 . S
C469 O479 1.265 . S
O470 C469 1.227 . S
N471 Co468 2.121 . S
N471 C473 1.375 . S
N471 C474 1.313 . S
C472 C473 1.338 . S
C472 N475 1.377 . S
C472 H492 0.930 . S
C473 N471 1.375 . S
C473 C472 1.338 . S
C473 H477 0.931 . S
C474 N471 1.313 . S
C474 N475 1.344 . S
C474 H478 0.930 . S
N475 C472 1.377 . S
N475 C474 1.344 . S
O476 Co468 2.055 . S
O476 C480 1.253 . S
H477 C473 0.931 . S
H478 C474 0.930 . S
O479 Co468 2.039 . S
O479 C469 1.265 . S
C480 O476 1.253 . S
C480 O481 1.227 . S
O481 C480 1.227 . S
N482 Co468 2.140 . S
N482 C485 1.346 . S
N482 C486 1.345 . S
C483 C484 1.387 . S
C483 C487 1.391 . S
C484 C483 1.387 . S
C484 C485 1.369 . S
C484 H493 0.929 . S
C485 N482 1.346 . S
C485 C484 1.369 . S
C485 H488 0.928 . S
C486 N482 1.345 . S
C486 C487 1.371 . S
C486 H489 0.931 . S
C487 C483 1.391 . S
C487 C486 1.371 . S
C487 H494 0.930 . S
H488 C485 0.928 . S
H489 C486 0.931 . S
H490 C466 0.930 . S
H491 C463 0.930 . S
H492 C472 0.930 . S
H493 C484 0.929 . S
H494 C487 0.930 . S
C495 C496 1.351 . S
C495 N498 1.368 . S
C495 H500 0.931 . S
C496 C495 1.351 . S
C496 N497 1.373 . S
C496 H524 0.930 . S
N497 C496 1.373 . S
N497 C499 1.340 . S
N498 C495 1.368 . S
N498 C499 1.321 . S
N498 Co501 2.135 . S
C499 N497 1.340 . S
C499 N498 1.321 . S
C499 H523 0.930 . S
H500 C495 0.931 . S
Co501 N498 2.135 . S
Co501 N504 2.121 . S
Co501 O509 2.055 . S
Co501 O512 2.039 . S
Co501 N515 2.140 . S
C502 O503 1.227 . S
C502 O512 1.265 . S
O503 C502 1.227 . S
N504 Co501 2.121 . S
N504 C506 1.375 1_556 S
N504 C507 1.313 . S
C505 C506 1.338 . S
C505 N508 1.377 . S
C505 H525 0.930 . S
C506 N504 1.375 1_554 S
C506 C505 1.338 . S
C506 H510 0.931 . S
C507 N504 1.313 . S
C507 N508 1.344 1_556 S
C507 H511 0.930 . S
N508 C505 1.377 . S
N508 C507 1.344 1_554 S
O509 Co501 2.055 . S
O509 C513 1.253 . S
H510 C506 0.931 . S
H511 C507 0.930 . S
O512 Co501 2.039 . S
O512 C502 1.265 . S
C513 O509 1.253 . S
C513 O514 1.227 . S
O514 C513 1.227 . S
N515 Co501 2.140 . S
N515 C518 1.346 . S
N515 C519 1.345 . S
C516 C517 1.387 . S
C516 C520 1.391 . S
C517 C516 1.387 . S
C517 C518 1.369 . S
C517 H526 0.929 . S
C518 N515 1.346 . S
C518 C517 1.369 . S
C518 H521 0.928 . S
C519 N515 1.345 . S
C519 C520 1.371 . S
C519 H522 0.931 . S
C520 C516 1.391 . S
C520 C519 1.371 . S
C520 H527 0.930 . S
H521 C518 0.928 . S
H522 C519 0.931 . S
H523 C499 0.930 . S
H524 C496 0.930 . S
H525 C505 0.930 . S
H526 C517 0.929 . S
H527 C520 0.930 . S
C528 C529 1.351 . S
C528 N531 1.368 . S
C528 H533 0.931 . S
C529 C528 1.351 . S
C529 N530 1.373 . S
C529 H557 0.930 . S
N530 C529 1.373 . S
N530 C532 1.340 . S
N531 C528 1.368 . S
N531 C532 1.321 . S
N531 Co534 2.135 . S
C532 N530 1.340 . S
C532 N531 1.321 . S
C532 H556 0.930 . S
H533 C528 0.931 . S
Co534 N531 2.135 . S
Co534 N537 2.121 . S
Co534 O542 2.055 . S
Co534 O545 2.039 . S
Co534 N548 2.140 . S
C535 O536 1.227 . S
C535 O545 1.265 . S
O536 C535 1.227 . S
N537 Co534 2.121 . S
N537 C539 1.375 1_556 S
N537 C540 1.313 . S
C538 C539 1.338 . S
C538 N541 1.377 . S
C538 H558 0.930 . S
C539 N537 1.375 1_554 S
C539 C538 1.338 . S
C539 H543 0.931 . S
C540 N537 1.313 . S
C540 N541 1.344 1_556 S
C540 H544 0.930 . S
N541 C538 1.377 . S
N541 C540 1.344 1_554 S
O542 Co534 2.055 . S
O542 C546 1.253 . S
H543 C539 0.931 . S
H544 C540 0.930 . S
O545 Co534 2.039 . S
O545 C535 1.265 . S
C546 O542 1.253 . S
C546 O547 1.227 . S
O547 C546 1.227 . S
N548 Co534 2.140 . S
N548 C551 1.346 . S
N548 C552 1.345 . S
C549 C550 1.387 . S
C549 C553 1.391 . S
C550 C549 1.387 . S
C550 C551 1.369 . S
C550 H559 0.929 . S
C551 N548 1.346 . S
C551 C550 1.369 . S
C551 H554 0.928 . S
C552 N548 1.345 . S
C552 C553 1.371 . S
C552 H555 0.931 . S
C553 C549 1.391 . S
C553 C552 1.371 . S
C553 H560 0.930 . S
H554 C551 0.928 . S
H555 C552 0.931 . S
H556 C532 0.930 . S
H557 C529 0.930 . S
H558 C538 0.930 . S
H559 C550 0.929 . S
H560 C553 0.930 . S
C561 C562 1.351 . S
C561 N564 1.368 . S
C561 H566 0.931 . S
C562 C561 1.351 . S
C562 N563 1.373 . S
C562 H590 0.930 . S
N563 C562 1.373 . S
N563 C565 1.340 . S
N564 C561 1.368 . S
N564 C565 1.321 . S
N564 Co567 2.135 . S
C565 N563 1.340 . S
C565 N564 1.321 . S
C565 H589 0.930 . S
H566 C561 0.931 . S
Co567 N564 2.135 . S
Co567 N570 2.121 . S
Co567 O575 2.055 . S
Co567 O578 2.039 . S
Co567 N581 2.140 . S
C568 O569 1.227 . S
C568 O578 1.265 . S
O569 C568 1.227 . S
N570 Co567 2.121 . S
N570 C572 1.375 1_556 S
N570 C573 1.313 . S
C571 C572 1.338 . S
C571 N574 1.377 . S
C571 H591 0.930 . S
C572 N570 1.375 1_554 S
C572 C571 1.338 . S
C572 H576 0.931 . S
C573 N570 1.313 . S
C573 N574 1.344 1_556 S
C573 H577 0.930 . S
N574 C571 1.377 . S
N574 C573 1.344 1_554 S
O575 Co567 2.055 . S
O575 C579 1.253 . S
H576 C572 0.931 . S
H577 C573 0.930 . S
O578 Co567 2.039 . S
O578 C568 1.265 . S
C579 O575 1.253 . S
C579 O580 1.227 . S
O580 C579 1.227 . S
N581 Co567 2.140 . S
N581 C584 1.346 . S
N581 C585 1.345 . S
C582 C583 1.387 . S
C582 C586 1.391 . S
C583 C582 1.387 . S
C583 C584 1.369 . S
C583 H592 0.929 . S
C584 N581 1.346 . S
C584 C583 1.369 . S
C584 H587 0.928 . S
C585 N581 1.345 . S
C585 C586 1.371 . S
C585 H588 0.931 . S
C586 C582 1.391 . S
C586 C585 1.371 . S
C586 H593 0.930 . S
H587 C584 0.928 . S
H588 C585 0.931 . S
H589 C565 0.930 . S
H590 C562 0.930 . S
H591 C571 0.930 . S
H592 C583 0.929 . S
H593 C586 0.930 . S
C594 C595 1.351 . S
C594 N597 1.368 . S
C594 H599 0.931 . S
C595 C594 1.351 . S
C595 N596 1.373 . S
C595 H623 0.930 . S
N596 C595 1.373 . S
N596 C598 1.340 . S
N597 C594 1.368 . S
N597 C598 1.321 . S
N597 Co600 2.135 . S
C598 N596 1.340 . S
C598 N597 1.321 . S
C598 H622 0.930 . S
H599 C594 0.931 . S
Co600 N597 2.135 . S
Co600 N603 2.121 . S
Co600 O608 2.055 . S
Co600 O611 2.039 . S
Co600 N614 2.140 . S
C601 O602 1.227 . S
C601 O611 1.265 . S
O602 C601 1.227 . S
N603 Co600 2.121 . S
N603 C605 1.375 . S
N603 C606 1.313 . S
C604 C605 1.338 . S
C604 N607 1.377 . S
C604 H624 0.930 . S
C605 N603 1.375 . S
C605 C604 1.338 . S
C605 H609 0.931 . S
C606 N603 1.313 . S
C606 N607 1.344 . S
C606 H610 0.930 . S
N607 C604 1.377 . S
N607 C606 1.344 . S
O608 Co600 2.055 . S
O608 C612 1.253 . S
H609 C605 0.931 . S
H610 C606 0.930 . S
O611 Co600 2.039 . S
O611 C601 1.265 . S
C612 O608 1.253 . S
C612 O613 1.227 . S
O613 C612 1.227 . S
N614 Co600 2.140 . S
N614 C617 1.346 . S
N614 C618 1.345 . S
C615 C616 1.387 . S
C615 C619 1.391 . S
C616 C615 1.387 . S
C616 C617 1.369 . S
C616 H625 0.929 . S
C617 N614 1.346 . S
C617 C616 1.369 . S
C617 H620 0.928 . S
C618 N614 1.345 . S
C618 C619 1.371 . S
C618 H621 0.931 . S
C619 C615 1.391 . S
C619 C618 1.371 . S
C619 H626 0.930 . S
H620 C617 0.928 . S
H621 C618 0.931 . S
H622 C598 0.930 . S
H623 C595 0.930 . S
H624 C604 0.930 . S
H625 C616 0.929 . S
H626 C619 0.930 . S
C627 C628 1.351 . S
C627 N630 1.368 . S
C627 H632 0.931 . S
C628 C627 1.351 . S
C628 N629 1.373 . S
C628 H656 0.930 . S
N629 C628 1.373 . S
N629 C631 1.340 . S
N630 C627 1.368 . S
N630 C631 1.321 . S
N630 Co633 2.135 . S
C631 N629 1.340 . S
C631 N630 1.321 . S
C631 H655 0.930 . S
H632 C627 0.931 . S
Co633 N630 2.135 . S
Co633 N636 2.121 . S
Co633 O641 2.055 . S
Co633 O644 2.039 . S
Co633 N647 2.140 . S
C634 O635 1.227 . S
C634 O644 1.265 . S
O635 C634 1.227 . S
N636 Co633 2.121 . S
N636 C638 1.375 . S
N636 C639 1.313 . S
C637 C638 1.338 . S
C637 N640 1.377 . S
C637 H657 0.930 . S
C638 N636 1.375 . S
C638 C637 1.338 . S
C638 H642 0.931 . S
C639 N636 1.313 . S
C639 N640 1.344 . S
C639 H643 0.930 . S
N640 C637 1.377 . S
N640 C639 1.344 . S
O641 Co633 2.055 . S
O641 C645 1.253 . S
H642 C638 0.931 . S
H643 C639 0.930 . S
O644 Co633 2.039 . S
O644 C634 1.265 . S
C645 O641 1.253 . S
C645 O646 1.227 . S
O646 C645 1.227 . S
N647 Co633 2.140 . S
N647 C650 1.346 . S
N647 C651 1.345 . S
C648 C649 1.387 . S
C648 C652 1.391 . S
C649 C648 1.387 . S
C649 C650 1.369 . S
C649 H658 0.929 . S
C650 N647 1.346 . S
C650 C649 1.369 . S
C650 H653 0.928 . S
C651 N647 1.345 . S
C651 C652 1.371 . S
C651 H654 0.931 . S
C652 C648 1.391 . S
C652 C651 1.371 . S
C652 H659 0.930 . S
H653 C650 0.928 . S
H654 C651 0.931 . S
H655 C631 0.930 . S
H656 C628 0.930 . S
H657 C637 0.930 . S
H658 C649 0.929 . S
H659 C652 0.930 . S
C660 C661 1.351 . S
C660 N663 1.368 . S
C660 H665 0.931 . S
C661 C660 1.351 . S
C661 N662 1.373 . S
C661 H689 0.930 . S
N662 C661 1.373 . S
N662 C664 1.340 . S
N663 C660 1.368 . S
N663 C664 1.321 . S
N663 Co666 2.135 . S
C664 N662 1.340 . S
C664 N663 1.321 . S
C664 H688 0.930 . S
H665 C660 0.931 . S
Co666 N663 2.135 . S
Co666 N669 2.121 . S
Co666 O674 2.055 . S
Co666 O677 2.039 . S
Co666 N680 2.140 . S
C667 O668 1.227 . S
C667 O677 1.265 . S
O668 C667 1.227 . S
N669 Co666 2.121 . S
N669 C671 1.375 . S
N669 C672 1.313 . S
C670 C671 1.338 . S
C670 N673 1.377 . S
C670 H690 0.930 . S
C671 N669 1.375 . S
C671 C670 1.338 . S
C671 H675 0.931 . S
C672 N669 1.313 . S
C672 N673 1.344 . S
C672 H676 0.930 . S
N673 C670 1.377 . S
N673 C672 1.344 . S
O674 Co666 2.055 . S
O674 C678 1.253 . S
H675 C671 0.931 . S
H676 C672 0.930 . S
O677 Co666 2.039 . S
O677 C667 1.265 . S
C678 O674 1.253 . S
C678 O679 1.227 . S
O679 C678 1.227 . S
N680 Co666 2.140 . S
N680 C683 1.346 . S
N680 C684 1.345 . S
C681 C682 1.387 . S
C681 C685 1.391 . S
C682 C681 1.387 . S
C682 C683 1.369 . S
C682 H691 0.929 . S
C683 N680 1.346 . S
C683 C682 1.369 . S
C683 H686 0.928 . S
C684 N680 1.345 . S
C684 C685 1.371 . S
C684 H687 0.931 . S
C685 C681 1.391 . S
C685 C684 1.371 . S
C685 H692 0.930 . S
H686 C683 0.928 . S
H687 C684 0.931 . S
H688 C664 0.930 . S
H689 C661 0.930 . S
H690 C670 0.930 . S
H691 C682 0.929 . S
H692 C685 0.930 . S
C693 C694 1.351 . S
C693 N696 1.368 . S
C693 H698 0.931 . S
C694 C693 1.351 . S
C694 N695 1.373 . S
C694 H722 0.930 . S
N695 C694 1.373 . S
N695 C697 1.340 . S
N696 C693 1.368 . S
N696 C697 1.321 . S
N696 Co699 2.135 . S
C697 N695 1.340 . S
C697 N696 1.321 . S
C697 H721 0.930 . S
H698 C693 0.931 . S
Co699 N696 2.135 . S
Co699 N702 2.121 . S
Co699 O707 2.055 . S
Co699 O710 2.039 . S
Co699 N713 2.140 . S
C700 O701 1.227 . S
C700 O710 1.265 . S
O701 C700 1.227 . S
N702 Co699 2.121 . S
N702 C704 1.375 . S
N702 C705 1.313 . S
C703 C704 1.338 1_554 S
C703 N706 1.377 1_554 S
C703 H723 0.930 . S
C704 N702 1.375 . S
C704 C703 1.338 1_556 S
C704 H708 0.931 . S
C705 N702 1.313 . S
C705 N706 1.344 . S
C705 H709 0.930 . S
N706 C703 1.377 1_556 S
N706 C705 1.344 . S
O707 Co699 2.055 . S
O707 C711 1.253 . S
H708 C704 0.931 . S
H709 C705 0.930 . S
O710 Co699 2.039 . S
O710 C700 1.265 . S
C711 O707 1.253 . S
C711 O712 1.227 . S
O712 C711 1.227 . S
N713 Co699 2.140 . S
N713 C716 1.346 . S
N713 C717 1.345 . S
C714 C715 1.387 . S
C714 C718 1.391 . S
C715 C714 1.387 . S
C715 C716 1.369 . S
C715 H724 0.929 . S
C716 N713 1.346 . S
C716 C715 1.369 . S
C716 H719 0.928 . S
C717 N713 1.345 . S
C717 C718 1.371 . S
C717 H720 0.931 . S
C718 C714 1.391 . S
C718 C717 1.371 . S
C718 H725 0.930 . S
H719 C716 0.928 . S
H720 C717 0.931 . S
H721 C697 0.930 . S
H722 C694 0.930 . S
H723 C703 0.930 . S
H724 C715 0.929 . S
H725 C718 0.930 . S
C726 C727 1.351 . S
C726 N729 1.368 . S
C726 H731 0.931 . S
C727 C726 1.351 . S
C727 N728 1.373 . S
C727 H755 0.930 . S
N728 C727 1.373 . S
N728 C730 1.340 . S
N729 C726 1.368 . S
N729 C730 1.321 . S
N729 Co732 2.135 . S
C730 N728 1.340 . S
C730 N729 1.321 . S
C730 H754 0.930 . S
H731 C726 0.931 . S
Co732 N729 2.135 . S
Co732 N735 2.121 . S
Co732 O740 2.055 . S
Co732 O743 2.039 . S
Co732 N746 2.140 . S
C733 O734 1.227 . S
C733 O743 1.265 . S
O734 C733 1.227 . S
N735 Co732 2.121 . S
N735 C737 1.375 . S
N735 C738 1.313 . S
C736 C737 1.338 1_554 S
C736 N739 1.377 1_554 S
C736 H756 0.930 . S
C737 N735 1.375 . S
C737 C736 1.338 1_556 S
C737 H741 0.931 . S
C738 N735 1.313 . S
C738 N739 1.344 . S
C738 H742 0.930 . S
N739 C736 1.377 1_556 S
N739 C738 1.344 . S
O740 Co732 2.055 . S
O740 C744 1.253 . S
H741 C737 0.931 . S
H742 C738 0.930 . S
O743 Co732 2.039 . S
O743 C733 1.265 . S
C744 O740 1.253 . S
C744 O745 1.227 . S
O745 C744 1.227 . S
N746 Co732 2.140 . S
N746 C749 1.346 . S
N746 C750 1.345 . S
C747 C748 1.387 . S
C747 C751 1.391 . S
C748 C747 1.387 . S
C748 C749 1.369 . S
C748 H757 0.929 . S
C749 N746 1.346 . S
C749 C748 1.369 . S
C749 H752 0.928 . S
C750 N746 1.345 . S
C750 C751 1.371 . S
C750 H753 0.931 . S
C751 C747 1.391 . S
C751 C750 1.371 . S
C751 H758 0.930 . S
H752 C749 0.928 . S
H753 C750 0.931 . S
H754 C730 0.930 . S
H755 C727 0.930 . S
H756 C736 0.930 . S
H757 C748 0.929 . S
H758 C751 0.930 . S
C759 C760 1.351 . S
C759 N762 1.368 . S
C759 H764 0.931 . S
C760 C759 1.351 . S
C760 N761 1.373 . S
C760 H788 0.930 . S
N761 C760 1.373 . S
N761 C763 1.340 . S
N762 C759 1.368 . S
N762 C763 1.321 . S
N762 Co765 2.135 . S
C763 N761 1.340 . S
C763 N762 1.321 . S
C763 H787 0.930 . S
H764 C759 0.931 . S
Co765 N762 2.135 . S
Co765 N768 2.121 . S
Co765 O773 2.055 . S
Co765 O776 2.039 . S
Co765 N779 2.140 . S
C766 O767 1.227 . S
C766 O776 1.265 . S
O767 C766 1.227 . S
N768 Co765 2.121 . S
N768 C770 1.375 . S
N768 C771 1.313 . S
C769 C770 1.338 1_554 S
C769 N772 1.377 1_554 S
C769 H789 0.930 . S
C770 N768 1.375 . S
C770 C769 1.338 1_556 S
C770 H774 0.931 . S
C771 N768 1.313 . S
C771 N772 1.344 . S
C771 H775 0.930 . S
N772 C769 1.377 1_556 S
N772 C771 1.344 . S
O773 Co765 2.055 . S
O773 C777 1.253 . S
H774 C770 0.931 . S
H775 C771 0.930 . S
O776 Co765 2.039 . S
O776 C766 1.265 . S
C777 O773 1.253 . S
C777 O778 1.227 . S
O778 C777 1.227 . S
N779 Co765 2.140 . S
N779 C782 1.346 . S
N779 C783 1.345 . S
C780 C781 1.387 . S
C780 C784 1.391 . S
C781 C780 1.387 . S
C781 C782 1.369 . S
C781 H790 0.929 . S
C782 N779 1.346 . S
C782 C781 1.369 . S
C782 H785 0.928 . S
C783 N779 1.345 . S
C783 C784 1.371 . S
C783 H786 0.931 . S
C784 C780 1.391 . S
C784 C783 1.371 . S
C784 H791 0.930 . S
H785 C782 0.928 . S
H786 C783 0.931 . S
H787 C763 0.930 . S
H788 C760 0.930 . S
H789 C769 0.930 . S
H790 C781 0.929 . S
H791 C784 0.930 . S
C792 C793 1.351 . S
C792 N795 1.368 . S
C792 H797 0.931 . S
C793 C792 1.351 . S
C793 N794 1.373 . S
C793 H821 0.930 . S
N794 C793 1.373 . S
N794 C796 1.340 . S
N795 C792 1.368 . S
N795 C796 1.321 . S
N795 Co798 2.135 . S
C796 N794 1.340 . S
C796 N795 1.321 . S
C796 H820 0.930 . S
H797 C792 0.931 . S
Co798 N795 2.135 . S
Co798 N801 2.121 . S
Co798 O806 2.055 . S
Co798 O809 2.039 . S
Co798 N812 2.140 . S
C799 O800 1.227 . S
C799 O809 1.265 . S
O800 C799 1.227 . S
N801 Co798 2.121 . S
N801 C803 1.375 . S
N801 C804 1.313 . S
C802 C803 1.338 . S
C802 N805 1.377 . S
C802 H822 0.930 . S
C803 N801 1.375 . S
C803 C802 1.338 . S
C803 H807 0.931 . S
C804 N801 1.313 . S
C804 N805 1.344 . S
C804 H808 0.930 . S
N805 C802 1.377 . S
N805 C804 1.344 . S
O806 Co798 2.055 . S
O806 C810 1.253 . S
H807 C803 0.931 . S
H808 C804 0.930 . S
O809 Co798 2.039 . S
O809 C799 1.265 . S
C810 O806 1.253 . S
C810 O811 1.227 . S
O811 C810 1.227 . S
N812 Co798 2.140 . S
N812 C815 1.346 . S
N812 C816 1.345 . S
C813 C814 1.387 . S
C813 C817 1.391 . S
C814 C813 1.387 . S
C814 C815 1.369 . S
C814 H823 0.929 . S
C815 N812 1.346 . S
C815 C814 1.369 . S
C815 H818 0.928 . S
C816 N812 1.345 . S
C816 C817 1.371 . S
C816 H819 0.931 . S
C817 C813 1.391 . S
C817 C816 1.371 . S
C817 H824 0.930 . S
H818 C815 0.928 . S
H819 C816 0.931 . S
H820 C796 0.930 . S
H821 C793 0.930 . S
H822 C802 0.930 . S
H823 C814 0.929 . S
H824 C817 0.930 . S
C825 C826 1.351 . S
C825 N828 1.368 . S
C825 H830 0.931 . S
C826 C825 1.351 . S
C826 N827 1.373 . S
C826 H854 0.930 . S
N827 C826 1.373 . S
N827 C829 1.340 . S
N828 C825 1.368 . S
N828 C829 1.321 . S
N828 Co831 2.135 . S
C829 N827 1.340 . S
C829 N828 1.321 . S
C829 H853 0.930 . S
H830 C825 0.931 . S
Co831 N828 2.135 . S
Co831 N834 2.121 . S
Co831 O839 2.055 . S
Co831 O842 2.039 . S
Co831 N845 2.140 . S
C832 O833 1.227 . S
C832 O842 1.265 . S
O833 C832 1.227 . S
N834 Co831 2.121 . S
N834 C836 1.375 . S
N834 C837 1.313 . S
C835 C836 1.338 . S
C835 N838 1.377 . S
C835 H855 0.930 . S
C836 N834 1.375 . S
C836 C835 1.338 . S
C836 H840 0.931 . S
C837 N834 1.313 . S
C837 N838 1.344 . S
C837 H841 0.930 . S
N838 C835 1.377 . S
N838 C837 1.344 . S
O839 Co831 2.055 . S
O839 C843 1.253 . S
H840 C836 0.931 . S
H841 C837 0.930 . S
O842 Co831 2.039 . S
O842 C832 1.265 . S
C843 O839 1.253 . S
C843 O844 1.227 . S
O844 C843 1.227 . S
N845 Co831 2.140 . S
N845 C848 1.346 . S
N845 C849 1.345 . S
C846 C847 1.387 . S
C846 C850 1.391 . S
C847 C846 1.387 . S
C847 C848 1.369 . S
C847 H856 0.929 . S
C848 N845 1.346 . S
C848 C847 1.369 . S
C848 H851 0.928 . S
C849 N845 1.345 . S
C849 C850 1.371 . S
C849 H852 0.931 . S
C850 C846 1.391 . S
C850 C849 1.371 . S
C850 H857 0.930 . S
H851 C848 0.928 . S
H852 C849 0.931 . S
H853 C829 0.930 . S
H854 C826 0.930 . S
H855 C835 0.930 . S
H856 C847 0.929 . S
H857 C850 0.930 . S
C858 C859 1.351 . S
C858 N861 1.368 . S
C858 H863 0.931 . S
C859 C858 1.351 . S
C859 N860 1.373 . S
C859 H887 0.930 . S
N860 C859 1.373 . S
N860 C862 1.340 . S
N861 C858 1.368 . S
N861 C862 1.321 . S
N861 Co864 2.135 . S
C862 N860 1.340 . S
C862 N861 1.321 . S
C862 H886 0.930 . S
H863 C858 0.931 . S
Co864 N861 2.135 . S
Co864 N867 2.121 . S
Co864 O872 2.055 . S
Co864 O875 2.039 . S
Co864 N878 2.140 . S
C865 O866 1.227 . S
C865 O875 1.265 . S
O866 C865 1.227 . S
N867 Co864 2.121 . S
N867 C869 1.375 . S
N867 C870 1.313 . S
C868 C869 1.338 . S
C868 N871 1.377 . S
C868 H888 0.930 . S
C869 N867 1.375 . S
C869 C868 1.338 . S
C869 H873 0.931 . S
C870 N867 1.313 . S
C870 N871 1.344 . S
C870 H874 0.930 . S
N871 C868 1.377 . S
N871 C870 1.344 . S
O872 Co864 2.055 . S
O872 C876 1.253 . S
H873 C869 0.931 . S
H874 C870 0.930 . S
O875 Co864 2.039 . S
O875 C865 1.265 . S
C876 O872 1.253 . S
C876 O877 1.227 . S
O877 C876 1.227 . S
N878 Co864 2.140 . S
N878 C881 1.346 . S
N878 C882 1.345 . S
C879 C880 1.387 . S
C879 C883 1.391 . S
C880 C879 1.387 . S
C880 C881 1.369 . S
C880 H889 0.929 . S
C881 N878 1.346 . S
C881 C880 1.369 . S
C881 H884 0.928 . S
C882 N878 1.345 . S
C882 C883 1.371 . S
C882 H885 0.931 . S
C883 C879 1.391 . S
C883 C882 1.371 . S
C883 H890 0.930 . S
H884 C881 0.928 . S
H885 C882 0.931 . S
H886 C862 0.930 . S
H887 C859 0.930 . S
H888 C868 0.930 . S
H889 C880 0.929 . S
H890 C883 0.930 . S
C891 C892 1.351 . S
C891 N894 1.368 . S
C891 H896 0.931 . S
C892 C891 1.351 . S
C892 N893 1.373 . S
C892 H920 0.930 1_554 S
N893 C892 1.373 . S
N893 C895 1.340 . S
N894 C891 1.368 . S
N894 C895 1.321 . S
N894 Co897 2.135 . S
C895 N893 1.340 . S
C895 N894 1.321 . S
C895 H919 0.930 . S
H896 C891 0.931 . S
Co897 N894 2.135 . S
Co897 N900 2.121 . S
Co897 O905 2.055 . S
Co897 O908 2.039 . S
Co897 N911 2.140 . S
C898 O899 1.227 . S
C898 O908 1.265 . S
O899 C898 1.227 . S
N900 Co897 2.121 . S
N900 C902 1.375 . S
N900 C903 1.313 . S
C901 C902 1.338 . S
C901 N904 1.377 . S
C901 H921 0.930 . S
C902 N900 1.375 . S
C902 C901 1.338 . S
C902 H906 0.931 . S
C903 N900 1.313 . S
C903 N904 1.344 . S
C903 H907 0.930 . S
N904 C901 1.377 . S
N904 C903 1.344 . S
O905 Co897 2.055 . S
O905 C909 1.253 . S
H906 C902 0.931 . S
H907 C903 0.930 . S
O908 Co897 2.039 . S
O908 C898 1.265 . S
C909 O905 1.253 . S
C909 O910 1.227 . S
O910 C909 1.227 . S
N911 Co897 2.140 . S
N911 C914 1.346 . S
N911 C915 1.345 . S
C912 C913 1.387 . S
C912 C916 1.391 . S
C913 C912 1.387 . S
C913 C914 1.369 . S
C913 H922 0.929 . S
C914 N911 1.346 . S
C914 C913 1.369 . S
C914 H917 0.928 . S
C915 N911 1.345 . S
C915 C916 1.371 . S
C915 H918 0.931 . S
C916 C912 1.391 . S
C916 C915 1.371 . S
C916 H923 0.930 . S
H917 C914 0.928 . S
H918 C915 0.931 . S
H919 C895 0.930 . S
H920 C892 0.930 1_556 S
H921 C901 0.930 . S
H922 C913 0.929 . S
H923 C916 0.930 . S
C924 C925 1.351 . S
C924 N927 1.368 . S
C924 H929 0.931 . S
C925 C924 1.351 . S
C925 N926 1.373 . S
C925 H953 0.930 1_554 S
N926 C925 1.373 . S
N926 C928 1.340 . S
N927 C924 1.368 . S
N927 C928 1.321 . S
N927 Co930 2.135 . S
C928 N926 1.340 . S
C928 N927 1.321 . S
C928 H952 0.930 . S
H929 C924 0.931 . S
Co930 N927 2.135 . S
Co930 N933 2.121 . S
Co930 O938 2.055 . S
Co930 O941 2.039 . S
Co930 N944 2.140 . S
C931 O932 1.227 . S
C931 O941 1.265 . S
O932 C931 1.227 . S
N933 Co930 2.121 . S
N933 C935 1.375 . S
N933 C936 1.313 . S
C934 C935 1.338 . S
C934 N937 1.377 . S
C934 H954 0.930 . S
C935 N933 1.375 . S
C935 C934 1.338 . S
C935 H939 0.931 . S
C936 N933 1.313 . S
C936 N937 1.344 . S
C936 H940 0.930 . S
N937 C934 1.377 . S
N937 C936 1.344 . S
O938 Co930 2.055 . S
O938 C942 1.253 . S
H939 C935 0.931 . S
H940 C936 0.930 . S
O941 Co930 2.039 . S
O941 C931 1.265 . S
C942 O938 1.253 . S
C942 O943 1.227 . S
O943 C942 1.227 . S
N944 Co930 2.140 . S
N944 C947 1.346 . S
N944 C948 1.345 . S
C945 C946 1.387 . S
C945 C949 1.391 . S
C946 C945 1.387 . S
C946 C947 1.369 . S
C946 H955 0.929 . S
C947 N944 1.346 . S
C947 C946 1.369 . S
C947 H950 0.928 . S
C948 N944 1.345 . S
C948 C949 1.371 . S
C948 H951 0.931 . S
C949 C945 1.391 . S
C949 C948 1.371 . S
C949 H956 0.930 . S
H950 C947 0.928 . S
H951 C948 0.931 . S
H952 C928 0.930 . S
H953 C925 0.930 1_556 S
H954 C934 0.930 . S
H955 C946 0.929 . S
H956 C949 0.930 . S
C957 C958 1.351 . S
C957 N960 1.368 . S
C957 H962 0.931 . S
C958 C957 1.351 . S
C958 N959 1.373 . S
C958 H986 0.930 1_554 S
N959 C958 1.373 . S
N959 C961 1.340 . S
N960 C957 1.368 . S
N960 C961 1.321 . S
N960 Co963 2.135 . S
C961 N959 1.340 . S
C961 N960 1.321 . S
C961 H985 0.930 . S
H962 C957 0.931 . S
Co963 N960 2.135 . S
Co963 N966 2.121 . S
Co963 O971 2.055 . S
Co963 O974 2.039 . S
Co963 N977 2.140 . S
C964 O965 1.227 . S
C964 O974 1.265 . S
O965 C964 1.227 . S
N966 Co963 2.121 . S
N966 C968 1.375 . S
N966 C969 1.313 . S
C967 C968 1.338 . S
C967 N970 1.377 . S
C967 H987 0.930 . S
C968 N966 1.375 . S
C968 C967 1.338 . S
C968 H972 0.931 . S
C969 N966 1.313 . S
C969 N970 1.344 . S
C969 H973 0.930 . S
N970 C967 1.377 . S
N970 C969 1.344 . S
O971 Co963 2.055 . S
O971 C975 1.253 . S
H972 C968 0.931 . S
H973 C969 0.930 . S
O974 Co963 2.039 . S
O974 C964 1.265 . S
C975 O971 1.253 . S
C975 O976 1.227 . S
O976 C975 1.227 . S
N977 Co963 2.140 . S
N977 C980 1.346 . S
N977 C981 1.345 . S
C978 C979 1.387 . S
C978 C982 1.391 . S
C979 C978 1.387 . S
C979 C980 1.369 . S
C979 H988 0.929 . S
C980 N977 1.346 . S
C980 C979 1.369 . S
C980 H983 0.928 . S
C981 N977 1.345 . S
C981 C982 1.371 . S
C981 H984 0.931 . S
C982 C978 1.391 . S
C982 C981 1.371 . S
C982 H989 0.930 . S
H983 C980 0.928 . S
H984 C981 0.931 . S
H985 C961 0.930 . S
H986 C958 0.930 1_556 S
H987 C967 0.930 . S
H988 C979 0.929 . S
H989 C982 0.930 . S
C990 C991 1.351 . S
C990 N993 1.368 . S
C990 H995 0.931 . S
C991 C990 1.351 . S
C991 N992 1.373 . S
C991 H1019 0.930 . S
N992 C991 1.373 . S
N992 C994 1.340 . S
N993 C990 1.368 . S
N993 C994 1.321 . S
N993 Co996 2.135 . S
C994 N992 1.340 . S
C994 N993 1.321 . S
C994 H1018 0.930 . S
H995 C990 0.931 . S
Co996 N993 2.135 . S
Co996 N999 2.121 . S
Co996 O1004 2.055 . S
Co996 O1007 2.039 . S
Co996 N1010 2.140 . S
C997 O998 1.227 . S
C997 O1007 1.265 . S
O998 C997 1.227 . S
N999 Co996 2.121 . S
N999 C1001 1.375 . S
N999 C1002 1.313 . S
C1000 C1001 1.338 . S
C1000 N1003 1.377 . S
C1000 H1020 0.930 . S
C1001 N999 1.375 . S
C1001 C1000 1.338 . S
C1001 H1005 0.931 . S
C1002 N999 1.313 . S
C1002 N1003 1.344 . S
C1002 H1006 0.930 . S
N1003 C1000 1.377 . S
N1003 C1002 1.344 . S
O1004 Co996 2.055 . S
O1004 C1008 1.253 . S
H1005 C1001 0.931 . S
H1006 C1002 0.930 . S
O1007 Co996 2.039 . S
O1007 C997 1.265 . S
C1008 O1004 1.253 . S
C1008 O1009 1.227 . S
O1009 C1008 1.227 . S
N1010 Co996 2.140 . S
N1010 C1013 1.346 . S
N1010 C1014 1.345 . S
C1011 C1012 1.387 . S
C1011 C1015 1.391 . S
C1012 C1011 1.387 . S
C1012 C1013 1.369 . S
C1012 H1021 0.929 . S
C1013 N1010 1.346 . S
C1013 C1012 1.369 . S
C1013 H1016 0.928 . S
C1014 N1010 1.345 . S
C1014 C1015 1.371 . S
C1014 H1017 0.931 . S
C1015 C1011 1.391 . S
C1015 C1014 1.371 . S
C1015 H1022 0.930 . S
H1016 C1013 0.928 . S
H1017 C1014 0.931 . S
H1018 C994 0.930 . S
H1019 C991 0.930 . S
H1020 C1000 0.930 . S
H1021 C1012 0.929 . S
H1022 C1015 0.930 . S
C1023 C1024 1.351 . S
C1023 N1026 1.368 . S
C1023 H1028 0.931 . S
C1024 C1023 1.351 . S
C1024 N1025 1.373 . S
C1024 H1052 0.930 . S
N1025 C1024 1.373 . S
N1025 C1027 1.340 . S
N1026 C1023 1.368 . S
N1026 C1027 1.321 . S
N1026 Co1029 2.135 . S
C1027 N1025 1.340 . S
C1027 N1026 1.321 . S
C1027 H1051 0.930 . S
H1028 C1023 0.931 . S
Co1029 N1026 2.135 . S
Co1029 N1032 2.121 . S
Co1029 O1037 2.055 . S
Co1029 O1040 2.039 . S
Co1029 N1043 2.140 . S
C1030 O1031 1.227 . S
C1030 O1040 1.265 . S
O1031 C1030 1.227 . S
N1032 Co1029 2.121 . S
N1032 C1034 1.375 . S
N1032 C1035 1.313 . S
C1033 C1034 1.338 . S
C1033 N1036 1.377 . S
C1033 H1053 0.930 . S
C1034 N1032 1.375 . S
C1034 C1033 1.338 . S
C1034 H1038 0.931 . S
C1035 N1032 1.313 . S
C1035 N1036 1.344 . S
C1035 H1039 0.930 . S
N1036 C1033 1.377 . S
N1036 C1035 1.344 . S
O1037 Co1029 2.055 . S
O1037 C1041 1.253 . S
H1038 C1034 0.931 . S
H1039 C1035 0.930 . S
O1040 Co1029 2.039 . S
O1040 C1030 1.265 . S
C1041 O1037 1.253 . S
C1041 O1042 1.227 . S
O1042 C1041 1.227 . S
N1043 Co1029 2.140 . S
N1043 C1046 1.346 . S
N1043 C1047 1.345 . S
C1044 C1045 1.387 . S
C1044 C1048 1.391 . S
C1045 C1044 1.387 . S
C1045 C1046 1.369 . S
C1045 H1054 0.929 . S
C1046 N1043 1.346 . S
C1046 C1045 1.369 . S
C1046 H1049 0.928 . S
C1047 N1043 1.345 . S
C1047 C1048 1.371 . S
C1047 H1050 0.931 . S
C1048 C1044 1.391 . S
C1048 C1047 1.371 . S
C1048 H1055 0.930 . S
H1049 C1046 0.928 . S
H1050 C1047 0.931 . S
H1051 C1027 0.930 . S
H1052 C1024 0.930 . S
H1053 C1033 0.930 . S
H1054 C1045 0.929 . S
H1055 C1048 0.930 . S
C1056 C1057 1.351 . S
C1056 N1059 1.368 . S
C1056 H1061 0.931 . S
C1057 C1056 1.351 . S
C1057 N1058 1.373 . S
C1057 H1085 0.930 . S
N1058 C1057 1.373 . S
N1058 C1060 1.340 . S
N1059 C1056 1.368 . S
N1059 C1060 1.321 . S
N1059 Co1062 2.135 . S
C1060 N1058 1.340 . S
C1060 N1059 1.321 . S
C1060 H1084 0.930 . S
H1061 C1056 0.931 . S
Co1062 N1059 2.135 . S
Co1062 N1065 2.121 . S
Co1062 O1070 2.055 . S
Co1062 O1073 2.039 . S
Co1062 N1076 2.140 . S
C1063 O1064 1.227 . S
C1063 O1073 1.265 . S
O1064 C1063 1.227 . S
N1065 Co1062 2.121 . S
N1065 C1067 1.375 . S
N1065 C1068 1.313 . S
C1066 C1067 1.338 . S
C1066 N1069 1.377 . S
C1066 H1086 0.930 . S
C1067 N1065 1.375 . S
C1067 C1066 1.338 . S
C1067 H1071 0.931 . S
C1068 N1065 1.313 . S
C1068 N1069 1.344 . S
C1068 H1072 0.930 . S
N1069 C1066 1.377 . S
N1069 C1068 1.344 . S
O1070 Co1062 2.055 . S
O1070 C1074 1.253 . S
H1071 C1067 0.931 . S
H1072 C1068 0.930 . S
O1073 Co1062 2.039 . S
O1073 C1063 1.265 . S
C1074 O1070 1.253 . S
C1074 O1075 1.227 . S
O1075 C1074 1.227 . S
N1076 Co1062 2.140 . S
N1076 C1079 1.346 . S
N1076 C1080 1.345 . S
C1077 C1078 1.387 . S
C1077 C1081 1.391 . S
C1078 C1077 1.387 . S
C1078 C1079 1.369 . S
C1078 H1087 0.929 . S
C1079 N1076 1.346 . S
C1079 C1078 1.369 . S
C1079 H1082 0.928 . S
C1080 N1076 1.345 . S
C1080 C1081 1.371 . S
C1080 H1083 0.931 . S
C1081 C1077 1.391 . S
C1081 C1080 1.371 . S
C1081 H1088 0.930 . S
H1082 C1079 0.928 . S
H1083 C1080 0.931 . S
H1084 C1060 0.930 . S
H1085 C1057 0.930 . S
H1086 C1066 0.930 . S
H1087 C1078 0.929 . S
H1088 C1081 0.930 . S
C1089 C1090 1.351 1_554 S
C1089 N1092 1.368 . S
C1089 H1094 0.931 . S
C1090 C1089 1.351 1_556 S
C1090 N1091 1.373 1_556 S
C1090 H1118 0.930 . S
N1091 C1090 1.373 1_554 S
N1091 C1093 1.340 . S
N1092 C1089 1.368 . S
N1092 C1093 1.321 . S
N1092 Co1095 2.135 . S
C1093 N1091 1.340 . S
C1093 N1092 1.321 . S
C1093 H1117 0.930 . S
H1094 C1089 0.931 . S
Co1095 N1092 2.135 . S
Co1095 N1098 2.121 . S
Co1095 O1103 2.055 . S
Co1095 O1106 2.039 . S
Co1095 N1109 2.140 . S
C1096 O1097 1.227 . S
C1096 O1106 1.265 . S
O1097 C1096 1.227 . S
N1098 Co1095 2.121 . S
N1098 C1100 1.375 . S
N1098 C1101 1.313 . S
C1099 C1100 1.338 . S
C1099 N1102 1.377 . S
C1099 H1119 0.930 . S
C1100 N1098 1.375 . S
C1100 C1099 1.338 . S
C1100 H1104 0.931 . S
C1101 N1098 1.313 . S
C1101 N1102 1.344 . S
C1101 H1105 0.930 . S
N1102 C1099 1.377 . S
N1102 C1101 1.344 . S
O1103 Co1095 2.055 . S
O1103 C1107 1.253 . S
H1104 C1100 0.931 . S
H1105 C1101 0.930 . S
O1106 Co1095 2.039 . S
O1106 C1096 1.265 . S
C1107 O1103 1.253 . S
C1107 O1108 1.227 . S
O1108 C1107 1.227 . S
N1109 Co1095 2.140 . S
N1109 C1112 1.346 . S
N1109 C1113 1.345 . S
C1110 C1111 1.387 . S
C1110 C1114 1.391 . S
C1111 C1110 1.387 . S
C1111 C1112 1.369 . S
C1111 H1120 0.929 . S
C1112 N1109 1.346 . S
C1112 C1111 1.369 . S
C1112 H1115 0.928 . S
C1113 N1109 1.345 . S
C1113 C1114 1.371 . S
C1113 H1116 0.931 . S
C1114 C1110 1.391 . S
C1114 C1113 1.371 . S
C1114 H1121 0.930 . S
H1115 C1112 0.928 . S
H1116 C1113 0.931 . S
H1117 C1093 0.930 . S
H1118 C1090 0.930 . S
H1119 C1099 0.930 . S
H1120 C1111 0.929 . S
H1121 C1114 0.930 . S
C1122 C1123 1.351 1_554 S
C1122 N1125 1.368 . S
C1122 H1127 0.931 . S
C1123 C1122 1.351 1_556 S
C1123 N1124 1.373 1_556 S
C1123 H1151 0.930 . S
N1124 C1123 1.373 1_554 S
N1124 C1126 1.340 . S
N1125 C1122 1.368 . S
N1125 C1126 1.321 . S
N1125 Co1128 2.135 . S
C1126 N1124 1.340 . S
C1126 N1125 1.321 . S
C1126 H1150 0.930 . S
H1127 C1122 0.931 . S
Co1128 N1125 2.135 . S
Co1128 N1131 2.121 . S
Co1128 O1136 2.055 . S
Co1128 O1139 2.039 . S
Co1128 N1142 2.140 . S
C1129 O1130 1.227 . S
C1129 O1139 1.265 . S
O1130 C1129 1.227 . S
N1131 Co1128 2.121 . S
N1131 C1133 1.375 . S
N1131 C1134 1.313 . S
C1132 C1133 1.338 . S
C1132 N1135 1.377 . S
C1132 H1152 0.930 . S
C1133 N1131 1.375 . S
C1133 C1132 1.338 . S
C1133 H1137 0.931 . S
C1134 N1131 1.313 . S
C1134 N1135 1.344 . S
C1134 H1138 0.930 . S
N1135 C1132 1.377 . S
N1135 C1134 1.344 . S
O1136 Co1128 2.055 . S
O1136 C1140 1.253 . S
H1137 C1133 0.931 . S
H1138 C1134 0.930 . S
O1139 Co1128 2.039 . S
O1139 C1129 1.265 . S
C1140 O1136 1.253 . S
C1140 O1141 1.227 . S
O1141 C1140 1.227 . S
N1142 Co1128 2.140 . S
N1142 C1145 1.346 . S
N1142 C1146 1.345 . S
C1143 C1144 1.387 . S
C1143 C1147 1.391 . S
C1144 C1143 1.387 . S
C1144 C1145 1.369 . S
C1144 H1153 0.929 . S
C1145 N1142 1.346 . S
C1145 C1144 1.369 . S
C1145 H1148 0.928 . S
C1146 N1142 1.345 . S
C1146 C1147 1.371 . S
C1146 H1149 0.931 . S
C1147 C1143 1.391 . S
C1147 C1146 1.371 . S
C1147 H1154 0.930 . S
H1148 C1145 0.928 . S
H1149 C1146 0.931 . S
H1150 C1126 0.930 . S
H1151 C1123 0.930 . S
H1152 C1132 0.930 . S
H1153 C1144 0.929 . S
H1154 C1147 0.930 . S
C1155 C1156 1.351 1_554 S
C1155 N1158 1.368 . S
C1155 H1160 0.931 . S
C1156 C1155 1.351 1_556 S
C1156 N1157 1.373 1_556 S
C1156 H1184 0.930 . S
N1157 C1156 1.373 1_554 S
N1157 C1159 1.340 . S
N1158 C1155 1.368 . S
N1158 C1159 1.321 . S
N1158 Co1161 2.135 . S
C1159 N1157 1.340 . S
C1159 N1158 1.321 . S
C1159 H1183 0.930 . S
H1160 C1155 0.931 . S
Co1161 N1158 2.135 . S
Co1161 N1164 2.121 . S
Co1161 O1169 2.055 . S
Co1161 O1172 2.039 . S
Co1161 N1175 2.140 . S
C1162 O1163 1.227 . S
C1162 O1172 1.265 . S
O1163 C1162 1.227 . S
N1164 Co1161 2.121 . S
N1164 C1166 1.375 . S
N1164 C1167 1.313 . S
C1165 C1166 1.338 . S
C1165 N1168 1.377 . S
C1165 H1185 0.930 . S
C1166 N1164 1.375 . S
C1166 C1165 1.338 . S
C1166 H1170 0.931 . S
C1167 N1164 1.313 . S
C1167 N1168 1.344 . S
C1167 H1171 0.930 . S
N1168 C1165 1.377 . S
N1168 C1167 1.344 . S
O1169 Co1161 2.055 . S
O1169 C1173 1.253 . S
H1170 C1166 0.931 . S
H1171 C1167 0.930 . S
O1172 Co1161 2.039 . S
O1172 C1162 1.265 . S
C1173 O1169 1.253 . S
C1173 O1174 1.227 . S
O1174 C1173 1.227 . S
N1175 Co1161 2.140 . S
N1175 C1178 1.346 . S
N1175 C1179 1.345 . S
C1176 C1177 1.387 . S
C1176 C1180 1.391 . S
C1177 C1176 1.387 . S
C1177 C1178 1.369 . S
C1177 H1186 0.929 . S
C1178 N1175 1.346 . S
C1178 C1177 1.369 . S
C1178 H1181 0.928 . S
C1179 N1175 1.345 . S
C1179 C1180 1.371 . S
C1179 H1182 0.931 . S
C1180 C1176 1.391 . S
C1180 C1179 1.371 . S
C1180 H1187 0.930 . S
H1181 C1178 0.928 . S
H1182 C1179 0.931 . S
H1183 C1159 0.930 . S
H1184 C1156 0.930 . S
H1185 C1165 0.930 . S
H1186 C1177 0.929 . S
H1187 C1180 0.930 . S
C1188 C1189 1.391 . S
C1188 C1190 1.394 . S
C1188 H1204 0.931 . S
C1189 C1188 1.391 . S
C1189 C1193 1.376 . S
C1190 C1188 1.394 . S
C1190 C1191 1.369 . S
C1190 C1194 1.531 . S
C1191 C1190 1.369 . S
C1191 C1192 1.410 . S
C1191 C1199 1.503 . S
C1192 C1191 1.410 . S
C1192 C1193 1.392 . S
C1192 C1195 1.511 . S
C1193 C1189 1.376 . S
C1193 C1192 1.392 . S
C1193 H1205 0.929 . S
C1194 C1190 1.531 . S
C1194 H1206 0.960 . S
C1194 H1207 0.962 . S
C1194 H1208 0.960 . S
C1195 C1192 1.511 . S
C1195 H1209 0.961 . S
C1195 H1210 0.961 . S
C1195 H1211 0.961 . S
C1196 C1197 1.370 . S
C1196 C1198 1.363 . S
C1196 H1212 0.931 . S
C1197 C1196 1.370 . S
C1197 C1201 1.408 . S
C1198 C1196 1.363 . S
C1198 C1199 1.370 . S
C1198 C1202 1.524 . S
C1199 C1191 1.503 . S
C1199 C1198 1.370 . S
C1199 C1200 1.403 . S
C1200 C1199 1.403 . S
C1200 C1201 1.404 . S
C1200 C1203 1.539 . S
C1201 C1197 1.408 . S
C1201 C1200 1.404 . S
C1201 H1213 0.930 . S
C1202 C1198 1.524 . S
C1202 H1214 0.956 . S
C1202 H1215 0.961 . S
C1202 H1216 0.961 . S
C1203 C1200 1.539 . S
C1203 H1217 0.958 . S
C1203 H1218 0.961 . S
C1203 H1219 0.960 . S
H1204 C1188 0.931 . S
H1205 C1193 0.929 . S
H1206 C1194 0.960 . S
H1207 C1194 0.962 . S
H1208 C1194 0.960 . S
H1209 C1195 0.961 . S
H1210 C1195 0.961 . S
H1211 C1195 0.961 . S
H1212 C1196 0.931 . S
H1213 C1201 0.930 . S
H1214 C1202 0.956 . S
H1215 C1202 0.961 . S
H1216 C1202 0.961 . S
H1217 C1203 0.958 . S
H1218 C1203 0.961 . S
H1219 C1203 0.960 . S
C1220 C1221 1.391 . S
C1220 C1222 1.394 . S
C1220 H1236 0.931 . S
C1221 C1220 1.391 . S
C1221 C1225 1.376 . S
C1222 C1220 1.394 . S
C1222 C1223 1.369 . S
C1222 C1226 1.531 . S
C1223 C1222 1.369 . S
C1223 C1224 1.410 . S
C1223 C1231 1.503 . S
C1224 C1223 1.410 . S
C1224 C1225 1.392 . S
C1224 C1227 1.511 . S
C1225 C1221 1.376 . S
C1225 C1224 1.392 . S
C1225 H1237 0.929 . S
C1226 C1222 1.531 . S
C1226 H1238 0.960 . S
C1226 H1239 0.962 . S
C1226 H1240 0.960 . S
C1227 C1224 1.511 . S
C1227 H1241 0.961 . S
C1227 H1242 0.961 . S
C1227 H1243 0.961 . S
C1228 C1229 1.370 . S
C1228 C1230 1.363 . S
C1228 H1244 0.931 . S
C1229 C1228 1.370 . S
C1229 C1233 1.408 . S
C1230 C1228 1.363 . S
C1230 C1231 1.370 . S
C1230 C1234 1.524 . S
C1231 C1223 1.503 . S
C1231 C1230 1.370 . S
C1231 C1232 1.403 . S
C1232 C1231 1.403 . S
C1232 C1233 1.404 . S
C1232 C1235 1.539 . S
C1233 C1229 1.408 . S
C1233 C1232 1.404 . S
C1233 H1245 0.930 . S
C1234 C1230 1.524 . S
C1234 H1246 0.956 . S
C1234 H1247 0.961 . S
C1234 H1248 0.961 . S
C1235 C1232 1.539 . S
C1235 H1249 0.958 . S
C1235 H1250 0.961 . S
C1235 H1251 0.960 . S
H1236 C1220 0.931 . S
H1237 C1225 0.929 . S
H1238 C1226 0.960 . S
H1239 C1226 0.962 . S
H1240 C1226 0.960 . S
H1241 C1227 0.961 . S
H1242 C1227 0.961 . S
H1243 C1227 0.961 . S
H1244 C1228 0.931 . S
H1245 C1233 0.930 . S
H1246 C1234 0.956 . S
H1247 C1234 0.961 . S
H1248 C1234 0.961 . S
H1249 C1235 0.958 . S
H1250 C1235 0.961 . S
H1251 C1235 0.960 . S
C1252 C1253 1.391 . S
C1252 C1254 1.394 . S
C1252 H1268 0.931 . S
C1253 C1252 1.391 . S
C1253 C1257 1.376 . S
C1254 C1252 1.394 . S
C1254 C1255 1.369 . S
C1254 C1258 1.531 . S
C1255 C1254 1.369 . S
C1255 C1256 1.410 . S
C1255 C1263 1.503 . S
C1256 C1255 1.410 . S
C1256 C1257 1.392 . S
C1256 C1259 1.511 . S
C1257 C1253 1.376 . S
C1257 C1256 1.392 . S
C1257 H1269 0.929 . S
C1258 C1254 1.531 . S
C1258 H1270 0.960 . S
C1258 H1271 0.962 . S
C1258 H1272 0.960 . S
C1259 C1256 1.511 . S
C1259 H1273 0.961 . S
C1259 H1274 0.961 . S
C1259 H1275 0.961 . S
C1260 C1261 1.370 . S
C1260 C1262 1.363 . S
C1260 H1276 0.931 . S
C1261 C1260 1.370 . S
C1261 C1265 1.408 . S
C1262 C1260 1.363 . S
C1262 C1263 1.370 . S
C1262 C1266 1.524 . S
C1263 C1255 1.503 . S
C1263 C1262 1.370 . S
C1263 C1264 1.403 . S
C1264 C1263 1.403 . S
C1264 C1265 1.404 . S
C1264 C1267 1.539 . S
C1265 C1261 1.408 . S
C1265 C1264 1.404 . S
C1265 H1277 0.930 . S
C1266 C1262 1.524 . S
C1266 H1278 0.956 . S
C1266 H1279 0.961 . S
C1266 H1280 0.961 . S
C1267 C1264 1.539 . S
C1267 H1281 0.958 . S
C1267 H1282 0.961 . S
C1267 H1283 0.960 . S
H1268 C1252 0.931 . S
H1269 C1257 0.929 . S
H1270 C1258 0.960 . S
H1271 C1258 0.962 . S
H1272 C1258 0.960 . S
H1273 C1259 0.961 . S
H1274 C1259 0.961 . S
H1275 C1259 0.961 . S
H1276 C1260 0.931 . S
H1277 C1265 0.930 . S
H1278 C1266 0.956 . S
H1279 C1266 0.961 . S
H1280 C1266 0.961 . S
H1281 C1267 0.958 . S
H1282 C1267 0.961 . S
H1283 C1267 0.960 . S
C1284 C1285 1.391 . S
C1284 C1286 1.394 . S
C1284 H1300 0.931 . S
C1285 C1284 1.391 . S
C1285 C1289 1.376 . S
C1286 C1284 1.394 . S
C1286 C1287 1.369 . S
C1286 C1290 1.531 . S
C1287 C1286 1.369 . S
C1287 C1288 1.410 . S
C1287 C1295 1.503 . S
C1288 C1287 1.410 . S
C1288 C1289 1.392 . S
C1288 C1291 1.511 . S
C1289 C1285 1.376 . S
C1289 C1288 1.392 . S
C1289 H1301 0.929 . S
C1290 C1286 1.531 . S
C1290 H1302 0.960 . S
C1290 H1303 0.962 . S
C1290 H1304 0.960 . S
C1291 C1288 1.511 . S
C1291 H1305 0.961 . S
C1291 H1306 0.961 . S
C1291 H1307 0.961 . S
C1292 C1293 1.370 . S
C1292 C1294 1.363 . S
C1292 H1308 0.931 . S
C1293 C1292 1.370 . S
C1293 C1297 1.408 . S
C1294 C1292 1.363 . S
C1294 C1295 1.370 . S
C1294 C1298 1.524 . S
C1295 C1287 1.503 . S
C1295 C1294 1.370 . S
C1295 C1296 1.403 . S
C1296 C1295 1.403 . S
C1296 C1297 1.404 . S
C1296 C1299 1.539 . S
C1297 C1293 1.408 . S
C1297 C1296 1.404 . S
C1297 H1309 0.930 . S
C1298 C1294 1.524 . S
C1298 H1310 0.956 . S
C1298 H1311 0.961 . S
C1298 H1312 0.961 . S
C1299 C1296 1.539 . S
C1299 H1313 0.958 . S
C1299 H1314 0.961 . S
C1299 H1315 0.960 . S
H1300 C1284 0.931 . S
H1301 C1289 0.929 . S
H1302 C1290 0.960 . S
H1303 C1290 0.962 . S
H1304 C1290 0.960 . S
H1305 C1291 0.961 . S
H1306 C1291 0.961 . S
H1307 C1291 0.961 . S
H1308 C1292 0.931 . S
H1309 C1297 0.930 . S
H1310 C1298 0.956 . S
H1311 C1298 0.961 . S
H1312 C1298 0.961 . S
H1313 C1299 0.958 . S
H1314 C1299 0.961 . S
H1315 C1299 0.960 . S
C1316 C1317 1.391 . S
C1316 C1318 1.394 . S
C1316 H1332 0.931 . S
C1317 C1316 1.391 . S
C1317 C1321 1.376 . S
C1318 C1316 1.394 . S
C1318 C1319 1.369 . S
C1318 C1322 1.531 . S
C1319 C1318 1.369 . S
C1319 C1320 1.410 . S
C1319 C1327 1.503 . S
C1320 C1319 1.410 . S
C1320 C1321 1.392 . S
C1320 C1323 1.511 . S
C1321 C1317 1.376 . S
C1321 C1320 1.392 . S
C1321 H1333 0.929 . S
C1322 C1318 1.531 . S
C1322 H1334 0.960 . S
C1322 H1335 0.962 . S
C1322 H1336 0.960 . S
C1323 C1320 1.511 . S
C1323 H1337 0.961 . S
C1323 H1338 0.961 . S
C1323 H1339 0.961 . S
C1324 C1325 1.370 . S
C1324 C1326 1.363 . S
C1324 H1340 0.931 . S
C1325 C1324 1.370 . S
C1325 C1329 1.408 . S
C1326 C1324 1.363 . S
C1326 C1327 1.370 . S
C1326 C1330 1.524 . S
C1327 C1319 1.503 . S
C1327 C1326 1.370 . S
C1327 C1328 1.403 . S
C1328 C1327 1.403 . S
C1328 C1329 1.404 . S
C1328 C1331 1.539 . S
C1329 C1325 1.408 . S
C1329 C1328 1.404 . S
C1329 H1341 0.930 . S
C1330 C1326 1.524 . S
C1330 H1342 0.956 . S
C1330 H1343 0.961 . S
C1330 H1344 0.961 . S
C1331 C1328 1.539 . S
C1331 H1345 0.958 . S
C1331 H1346 0.961 . S
C1331 H1347 0.960 . S
H1332 C1316 0.931 . S
H1333 C1321 0.929 . S
H1334 C1322 0.960 . S
H1335 C1322 0.962 . S
H1336 C1322 0.960 . S
H1337 C1323 0.961 . S
H1338 C1323 0.961 . S
H1339 C1323 0.961 . S
H1340 C1324 0.931 . S
H1341 C1329 0.930 . S
H1342 C1330 0.956 . S
H1343 C1330 0.961 . S
H1344 C1330 0.961 . S
H1345 C1331 0.958 . S
H1346 C1331 0.961 . S
H1347 C1331 0.960 . S
C1348 C1349 1.391 . S
C1348 C1350 1.394 . S
C1348 H1364 0.931 . S
C1349 C1348 1.391 . S
C1349 C1353 1.376 . S
C1350 C1348 1.394 . S
C1350 C1351 1.369 . S
C1350 C1354 1.531 . S
C1351 C1350 1.369 . S
C1351 C1352 1.410 . S
C1351 C1359 1.503 . S
C1352 C1351 1.410 . S
C1352 C1353 1.392 . S
C1352 C1355 1.511 . S
C1353 C1349 1.376 . S
C1353 C1352 1.392 . S
C1353 H1365 0.929 . S
C1354 C1350 1.531 . S
C1354 H1366 0.960 . S
C1354 H1367 0.962 . S
C1354 H1368 0.960 . S
C1355 C1352 1.511 . S
C1355 H1369 0.961 . S
C1355 H1370 0.961 . S
C1355 H1371 0.961 . S
C1356 C1357 1.370 . S
C1356 C1358 1.363 . S
C1356 H1372 0.931 . S
C1357 C1356 1.370 . S
C1357 C1361 1.408 . S
C1358 C1356 1.363 . S
C1358 C1359 1.370 . S
C1358 C1362 1.524 . S
C1359 C1351 1.503 . S
C1359 C1358 1.370 . S
C1359 C1360 1.403 . S
C1360 C1359 1.403 . S
C1360 C1361 1.404 . S
C1360 C1363 1.539 . S
C1361 C1357 1.408 . S
C1361 C1360 1.404 . S
C1361 H1373 0.930 . S
C1362 C1358 1.524 . S
C1362 H1374 0.956 . S
C1362 H1375 0.961 . S
C1362 H1376 0.961 . S
C1363 C1360 1.539 . S
C1363 H1377 0.958 . S
C1363 H1378 0.961 . S
C1363 H1379 0.960 . S
H1364 C1348 0.931 . S
H1365 C1353 0.929 . S
H1366 C1354 0.960 . S
H1367 C1354 0.962 . S
H1368 C1354 0.960 . S
H1369 C1355 0.961 . S
H1370 C1355 0.961 . S
H1371 C1355 0.961 . S
H1372 C1356 0.931 . S
H1373 C1361 0.930 . S
H1374 C1362 0.956 . S
H1375 C1362 0.961 . S
H1376 C1362 0.961 . S
H1377 C1363 0.958 . S
H1378 C1363 0.961 . S
H1379 C1363 0.960 . S
C1380 C1381 1.391 . S
C1380 C1382 1.394 . S
C1380 H1396 0.931 . S
C1381 C1380 1.391 . S
C1381 C1385 1.376 . S
C1382 C1380 1.394 . S
C1382 C1383 1.369 . S
C1382 C1386 1.531 . S
C1383 C1382 1.369 . S
C1383 C1384 1.410 . S
C1383 C1391 1.503 . S
C1384 C1383 1.410 . S
C1384 C1385 1.392 . S
C1384 C1387 1.511 . S
C1385 C1381 1.376 . S
C1385 C1384 1.392 . S
C1385 H1397 0.929 . S
C1386 C1382 1.531 . S
C1386 H1398 0.960 . S
C1386 H1399 0.962 . S
C1386 H1400 0.960 . S
C1387 C1384 1.511 . S
C1387 H1401 0.961 . S
C1387 H1402 0.961 . S
C1387 H1403 0.961 . S
C1388 C1389 1.370 . S
C1388 C1390 1.363 . S
C1388 H1404 0.931 . S
C1389 C1388 1.370 . S
C1389 C1393 1.408 . S
C1390 C1388 1.363 . S
C1390 C1391 1.370 . S
C1390 C1394 1.524 . S
C1391 C1383 1.503 . S
C1391 C1390 1.370 . S
C1391 C1392 1.403 . S
C1392 C1391 1.403 . S
C1392 C1393 1.404 . S
C1392 C1395 1.539 . S
C1393 C1389 1.408 . S
C1393 C1392 1.404 . S
C1393 H1405 0.930 . S
C1394 C1390 1.524 . S
C1394 H1406 0.956 . S
C1394 H1407 0.961 . S
C1394 H1408 0.961 . S
C1395 C1392 1.539 . S
C1395 H1409 0.958 . S
C1395 H1410 0.961 . S
C1395 H1411 0.960 . S
H1396 C1380 0.931 . S
H1397 C1385 0.929 . S
H1398 C1386 0.960 . S
H1399 C1386 0.962 . S
H1400 C1386 0.960 . S
H1401 C1387 0.961 . S
H1402 C1387 0.961 . S
H1403 C1387 0.961 . S
H1404 C1388 0.931 . S
H1405 C1393 0.930 . S
H1406 C1394 0.956 . S
H1407 C1394 0.961 . S
H1408 C1394 0.961 . S
H1409 C1395 0.958 . S
H1410 C1395 0.961 . S
H1411 C1395 0.960 . S
C1412 C1413 1.391 . S
C1412 C1414 1.394 . S
C1412 H1428 0.931 . S
C1413 C1412 1.391 . S
C1413 C1417 1.376 . S
C1414 C1412 1.394 . S
C1414 C1415 1.369 . S
C1414 C1418 1.531 . S
C1415 C1414 1.369 . S
C1415 C1416 1.410 . S
C1415 C1423 1.503 . S
C1416 C1415 1.410 . S
C1416 C1417 1.392 . S
C1416 C1419 1.511 . S
C1417 C1413 1.376 . S
C1417 C1416 1.392 . S
C1417 H1429 0.929 . S
C1418 C1414 1.531 . S
C1418 H1430 0.960 . S
C1418 H1431 0.962 . S
C1418 H1432 0.960 . S
C1419 C1416 1.511 . S
C1419 H1433 0.961 . S
C1419 H1434 0.961 . S
C1419 H1435 0.961 . S
C1420 C1421 1.370 . S
C1420 C1422 1.363 . S
C1420 H1436 0.931 . S
C1421 C1420 1.370 . S
C1421 C1425 1.408 . S
C1422 C1420 1.363 . S
C1422 C1423 1.370 . S
C1422 C1426 1.524 . S
C1423 C1415 1.503 . S
C1423 C1422 1.370 . S
C1423 C1424 1.403 . S
C1424 C1423 1.403 . S
C1424 C1425 1.404 . S
C1424 C1427 1.539 . S
C1425 C1421 1.408 . S
C1425 C1424 1.404 . S
C1425 H1437 0.930 . S
C1426 C1422 1.524 . S
C1426 H1438 0.956 . S
C1426 H1439 0.961 . S
C1426 H1440 0.961 . S
C1427 C1424 1.539 . S
C1427 H1441 0.958 . S
C1427 H1442 0.961 . S
C1427 H1443 0.960 . S
H1428 C1412 0.931 . S
H1429 C1417 0.929 . S
H1430 C1418 0.960 . S
H1431 C1418 0.962 . S
H1432 C1418 0.960 . S
H1433 C1419 0.961 . S
H1434 C1419 0.961 . S
H1435 C1419 0.961 . S
H1436 C1420 0.931 . S
H1437 C1425 0.930 . S
H1438 C1426 0.956 . S
H1439 C1426 0.961 . S
H1440 C1426 0.961 . S
H1441 C1427 0.958 . S
H1442 C1427 0.961 . S
H1443 C1427 0.960 . S
C1444 C1445 1.391 . S
C1444 C1446 1.394 . S
C1444 H1460 0.931 . S
C1445 C1444 1.391 . S
C1445 C1449 1.376 . S
C1446 C1444 1.394 . S
C1446 C1447 1.369 . S
C1446 C1450 1.531 . S
C1447 C1446 1.369 . S
C1447 C1448 1.410 . S
C1447 C1455 1.503 . S
C1448 C1447 1.410 . S
C1448 C1449 1.392 . S
C1448 C1451 1.511 . S
C1449 C1445 1.376 . S
C1449 C1448 1.392 . S
C1449 H1461 0.929 . S
C1450 C1446 1.531 . S
C1450 H1462 0.960 . S
C1450 H1463 0.962 . S
C1450 H1464 0.960 . S
C1451 C1448 1.511 . S
C1451 H1465 0.961 . S
C1451 H1466 0.961 . S
C1451 H1467 0.961 . S
C1452 C1453 1.370 . S
C1452 C1454 1.363 . S
C1452 H1468 0.931 . S
C1453 C1452 1.370 . S
C1453 C1457 1.408 . S
C1454 C1452 1.363 . S
C1454 C1455 1.370 . S
C1454 C1458 1.524 . S
C1455 C1447 1.503 . S
C1455 C1454 1.370 . S
C1455 C1456 1.403 . S
C1456 C1455 1.403 . S
C1456 C1457 1.404 . S
C1456 C1459 1.539 . S
C1457 C1453 1.408 . S
C1457 C1456 1.404 . S
C1457 H1469 0.930 . S
C1458 C1454 1.524 . S
C1458 H1470 0.956 . S
C1458 H1471 0.961 . S
C1458 H1472 0.961 . S
C1459 C1456 1.539 . S
C1459 H1473 0.958 . S
C1459 H1474 0.961 . S
C1459 H1475 0.960 . S
H1460 C1444 0.931 . S
H1461 C1449 0.929 . S
H1462 C1450 0.960 . S
H1463 C1450 0.962 . S
H1464 C1450 0.960 . S
H1465 C1451 0.961 . S
H1466 C1451 0.961 . S
H1467 C1451 0.961 . S
H1468 C1452 0.931 . S
H1469 C1457 0.930 . S
H1470 C1458 0.956 . S
H1471 C1458 0.961 . S
H1472 C1458 0.961 . S
H1473 C1459 0.958 . S
H1474 C1459 0.961 . S
H1475 C1459 0.960 . S
C1476 C1477 1.391 . S
C1476 C1478 1.394 . S
C1476 H1492 0.931 . S
C1477 C1476 1.391 . S
C1477 C1481 1.376 . S
C1478 C1476 1.394 . S
C1478 C1479 1.369 . S
C1478 C1482 1.531 . S
C1479 C1478 1.369 . S
C1479 C1480 1.410 . S
C1479 C1487 1.503 . S
C1480 C1479 1.410 . S
C1480 C1481 1.392 . S
C1480 C1483 1.511 . S
C1481 C1477 1.376 . S
C1481 C1480 1.392 . S
C1481 H1493 0.929 . S
C1482 C1478 1.531 . S
C1482 H1494 0.960 . S
C1482 H1495 0.962 . S
C1482 H1496 0.960 . S
C1483 C1480 1.511 . S
C1483 H1497 0.961 . S
C1483 H1498 0.961 . S
C1483 H1499 0.961 . S
C1484 C1485 1.370 . S
C1484 C1486 1.363 . S
C1484 H1500 0.931 . S
C1485 C1484 1.370 . S
C1485 C1489 1.408 . S
C1486 C1484 1.363 . S
C1486 C1487 1.370 . S
C1486 C1490 1.524 . S
C1487 C1479 1.503 . S
C1487 C1486 1.370 . S
C1487 C1488 1.403 . S
C1488 C1487 1.403 . S
C1488 C1489 1.404 . S
C1488 C1491 1.539 . S
C1489 C1485 1.408 . S
C1489 C1488 1.404 . S
C1489 H1501 0.930 . S
C1490 C1486 1.524 . S
C1490 H1502 0.956 . S
C1490 H1503 0.961 . S
C1490 H1504 0.961 . S
C1491 C1488 1.539 . S
C1491 H1505 0.958 . S
C1491 H1506 0.961 . S
C1491 H1507 0.960 . S
H1492 C1476 0.931 . S
H1493 C1481 0.929 . S
H1494 C1482 0.960 . S
H1495 C1482 0.962 . S
H1496 C1482 0.960 . S
H1497 C1483 0.961 . S
H1498 C1483 0.961 . S
H1499 C1483 0.961 . S
H1500 C1484 0.931 . S
H1501 C1489 0.930 . S
H1502 C1490 0.956 . S
H1503 C1490 0.961 . S
H1504 C1490 0.961 . S
H1505 C1491 0.958 . S
H1506 C1491 0.961 . S
H1507 C1491 0.960 . S
C1508 C1509 1.391 . S
C1508 C1510 1.394 . S
C1508 H1524 0.931 . S
C1509 C1508 1.391 . S
C1509 C1513 1.376 . S
C1510 C1508 1.394 . S
C1510 C1511 1.369 . S
C1510 C1514 1.531 . S
C1511 C1510 1.369 . S
C1511 C1512 1.410 . S
C1511 C1519 1.503 . S
C1512 C1511 1.410 . S
C1512 C1513 1.392 . S
C1512 C1515 1.511 . S
C1513 C1509 1.376 . S
C1513 C1512 1.392 . S
C1513 H1525 0.929 . S
C1514 C1510 1.531 . S
C1514 H1526 0.960 . S
C1514 H1527 0.962 . S
C1514 H1528 0.960 . S
C1515 C1512 1.511 . S
C1515 H1529 0.961 . S
C1515 H1530 0.961 . S
C1515 H1531 0.961 . S
C1516 C1517 1.370 . S
C1516 C1518 1.363 . S
C1516 H1532 0.931 . S
C1517 C1516 1.370 . S
C1517 C1521 1.408 . S
C1518 C1516 1.363 . S
C1518 C1519 1.370 . S
C1518 C1522 1.524 . S
C1519 C1511 1.503 . S
C1519 C1518 1.370 . S
C1519 C1520 1.403 . S
C1520 C1519 1.403 . S
C1520 C1521 1.404 . S
C1520 C1523 1.539 . S
C1521 C1517 1.408 . S
C1521 C1520 1.404 . S
C1521 H1533 0.930 . S
C1522 C1518 1.524 . S
C1522 H1534 0.956 . S
C1522 H1535 0.961 . S
C1522 H1536 0.961 . S
C1523 C1520 1.539 . S
C1523 H1537 0.958 . S
C1523 H1538 0.961 . S
C1523 H1539 0.960 . S
H1524 C1508 0.931 . S
H1525 C1513 0.929 . S
H1526 C1514 0.960 . S
H1527 C1514 0.962 . S
H1528 C1514 0.960 . S
H1529 C1515 0.961 . S
H1530 C1515 0.961 . S
H1531 C1515 0.961 . S
H1532 C1516 0.931 . S
H1533 C1521 0.930 . S
H1534 C1522 0.956 . S
H1535 C1522 0.961 . S
H1536 C1522 0.961 . S
H1537 C1523 0.958 . S
H1538 C1523 0.961 . S
H1539 C1523 0.960 . S
C1540 C1541 1.391 . S
C1540 C1542 1.394 . S
C1540 H1556 0.931 . S
C1541 C1540 1.391 . S
C1541 C1545 1.376 . S
C1542 C1540 1.394 . S
C1542 C1543 1.369 . S
C1542 C1546 1.531 . S
C1543 C1542 1.369 . S
C1543 C1544 1.410 . S
C1543 C1551 1.503 . S
C1544 C1543 1.410 . S
C1544 C1545 1.392 . S
C1544 C1547 1.511 . S
C1545 C1541 1.376 . S
C1545 C1544 1.392 . S
C1545 H1557 0.929 . S
C1546 C1542 1.531 . S
C1546 H1558 0.960 . S
C1546 H1559 0.962 . S
C1546 H1560 0.960 . S
C1547 C1544 1.511 . S
C1547 H1561 0.961 . S
C1547 H1562 0.961 . S
C1547 H1563 0.961 . S
C1548 C1549 1.370 . S
C1548 C1550 1.363 . S
C1548 H1564 0.931 . S
C1549 C1548 1.370 . S
C1549 C1553 1.408 . S
C1550 C1548 1.363 . S
C1550 C1551 1.370 . S
C1550 C1554 1.524 . S
C1551 C1543 1.503 . S
C1551 C1550 1.370 . S
C1551 C1552 1.403 . S
C1552 C1551 1.403 . S
C1552 C1553 1.404 . S
C1552 C1555 1.539 . S
C1553 C1549 1.408 . S
C1553 C1552 1.404 . S
C1553 H1565 0.930 . S
C1554 C1550 1.524 . S
C1554 H1566 0.956 . S
C1554 H1567 0.961 . S
C1554 H1568 0.961 . S
C1555 C1552 1.539 . S
C1555 H1569 0.958 . S
C1555 H1570 0.961 . S
C1555 H1571 0.960 . S
H1556 C1540 0.931 . S
H1557 C1545 0.929 . S
H1558 C1546 0.960 . S
H1559 C1546 0.962 . S
H1560 C1546 0.960 . S
H1561 C1547 0.961 . S
H1562 C1547 0.961 . S
H1563 C1547 0.961 . S
H1564 C1548 0.931 . S
H1565 C1553 0.930 . S
H1566 C1554 0.956 . S
H1567 C1554 0.961 . S
H1568 C1554 0.961 . S
H1569 C1555 0.958 . S
H1570 C1555 0.961 . S
H1571 C1555 0.960 . S
C1572 C1573 1.391 1_554 S
C1572 C1574 1.394 . S
C1572 H1588 0.931 . S
C1573 C1572 1.391 1_556 S
C1573 C1577 1.376 1_556 S
C1574 C1572 1.394 . S
C1574 C1575 1.369 . S
C1574 C1578 1.531 . S
C1575 C1574 1.369 . S
C1575 C1576 1.410 . S
C1575 C1583 1.503 . S
C1576 C1575 1.410 . S
C1576 C1577 1.392 . S
C1576 C1579 1.511 . S
C1577 C1573 1.376 1_554 S
C1577 C1576 1.392 . S
C1577 H1589 0.929 1_554 S
C1578 C1574 1.531 . S
C1578 H1590 0.960 . S
C1578 H1591 0.962 . S
C1578 H1592 0.960 . S
C1579 C1576 1.511 . S
C1579 H1593 0.961 . S
C1579 H1594 0.961 . S
C1579 H1595 0.961 . S
C1580 C1581 1.370 . S
C1580 C1582 1.363 . S
C1580 H1596 0.931 . S
C1581 C1580 1.370 . S
C1581 C1585 1.408 . S
C1582 C1580 1.363 . S
C1582 C1583 1.370 . S
C1582 C1586 1.524 . S
C1583 C1575 1.503 . S
C1583 C1582 1.370 . S
C1583 C1584 1.403 . S
C1584 C1583 1.403 . S
C1584 C1585 1.404 . S
C1584 C1587 1.539 . S
C1585 C1581 1.408 . S
C1585 C1584 1.404 . S
C1585 H1597 0.930 . S
C1586 C1582 1.524 . S
C1586 H1598 0.956 . S
C1586 H1599 0.961 . S
C1586 H1600 0.961 . S
C1587 C1584 1.539 . S
C1587 H1601 0.958 . S
C1587 H1602 0.961 . S
C1587 H1603 0.960 . S
H1588 C1572 0.931 . S
H1589 C1577 0.929 1_556 S
H1590 C1578 0.960 . S
H1591 C1578 0.962 . S
H1592 C1578 0.960 . S
H1593 C1579 0.961 . S
H1594 C1579 0.961 . S
H1595 C1579 0.961 . S
H1596 C1580 0.931 . S
H1597 C1585 0.930 . S
H1598 C1586 0.956 . S
H1599 C1586 0.961 . S
H1600 C1586 0.961 . S
H1601 C1587 0.958 . S
H1602 C1587 0.961 . S
H1603 C1587 0.960 . S
C1604 C1605 1.391 . S
C1604 C1606 1.394 . S
C1604 H1620 0.931 . S
C1605 C1604 1.391 . S
C1605 C1609 1.376 . S
C1606 C1604 1.394 . S
C1606 C1607 1.369 . S
C1606 C1610 1.531 . S
C1607 C1606 1.369 . S
C1607 C1608 1.410 . S
C1607 C1615 1.503 . S
C1608 C1607 1.410 . S
C1608 C1609 1.392 . S
C1608 C1611 1.511 . S
C1609 C1605 1.376 . S
C1609 C1608 1.392 . S
C1609 H1621 0.929 . S
C1610 C1606 1.531 . S
C1610 H1622 0.960 . S
C1610 H1623 0.962 . S
C1610 H1624 0.960 . S
C1611 C1608 1.511 . S
C1611 H1625 0.961 . S
C1611 H1626 0.961 . S
C1611 H1627 0.961 . S
C1612 C1613 1.370 1_554 S
C1612 C1614 1.363 . S
C1612 H1628 0.931 1_554 S
C1613 C1612 1.370 1_556 S
C1613 C1617 1.408 1_556 S
C1614 C1612 1.363 . S
C1614 C1615 1.370 . S
C1614 C1618 1.524 . S
C1615 C1607 1.503 . S
C1615 C1614 1.370 . S
C1615 C1616 1.403 . S
C1616 C1615 1.403 . S
C1616 C1617 1.404 . S
C1616 C1619 1.539 . S
C1617 C1613 1.408 1_554 S
C1617 C1616 1.404 . S
C1617 H1629 0.930 . S
C1618 C1614 1.524 . S
C1618 H1630 0.956 . S
C1618 H1631 0.961 . S
C1618 H1632 0.961 . S
C1619 C1616 1.539 . S
C1619 H1633 0.958 . S
C1619 H1634 0.961 . S
C1619 H1635 0.960 . S
H1620 C1604 0.931 . S
H1621 C1609 0.929 . S
H1622 C1610 0.960 . S
H1623 C1610 0.962 . S
H1624 C1610 0.960 . S
H1625 C1611 0.961 . S
H1626 C1611 0.961 . S
H1627 C1611 0.961 . S
H1628 C1612 0.931 1_556 S
H1629 C1617 0.930 . S
H1630 C1618 0.956 . S
H1631 C1618 0.961 . S
H1632 C1618 0.961 . S
H1633 C1619 0.958 . S
H1634 C1619 0.961 . S
H1635 C1619 0.960 . S
C1636 C1637 1.391 1_554 S
C1636 C1638 1.394 . S
C1636 H1652 0.931 1_554 S
C1637 C1636 1.391 1_556 S
C1637 C1641 1.376 1_556 S
C1638 C1636 1.394 . S
C1638 C1639 1.369 . S
C1638 C1642 1.531 . S
C1639 C1638 1.369 . S
C1639 C1640 1.410 . S
C1639 C1647 1.503 . S
C1640 C1639 1.410 . S
C1640 C1641 1.392 . S
C1640 C1643 1.511 . S
C1641 C1637 1.376 1_554 S
C1641 C1640 1.392 . S
C1641 H1653 0.929 . S
C1642 C1638 1.531 . S
C1642 H1654 0.960 . S
C1642 H1655 0.962 . S
C1642 H1656 0.960 . S
C1643 C1640 1.511 . S
C1643 H1657 0.961 . S
C1643 H1658 0.961 . S
C1643 H1659 0.961 . S
C1644 C1645 1.370 . S
C1644 C1646 1.363 . S
C1644 H1660 0.931 . S
C1645 C1644 1.370 . S
C1645 C1649 1.408 . S
C1646 C1644 1.363 . S
C1646 C1647 1.370 . S
C1646 C1650 1.524 . S
C1647 C1639 1.503 . S
C1647 C1646 1.370 . S
C1647 C1648 1.403 . S
C1648 C1647 1.403 . S
C1648 C1649 1.404 . S
C1648 C1651 1.539 . S
C1649 C1645 1.408 . S
C1649 C1648 1.404 . S
C1649 H1661 0.930 . S
C1650 C1646 1.524 . S
C1650 H1662 0.956 . S
C1650 H1663 0.961 . S
C1650 H1664 0.961 . S
C1651 C1648 1.539 . S
C1651 H1665 0.958 . S
C1651 H1666 0.961 . S
C1651 H1667 0.960 . S
H1652 C1636 0.931 1_556 S
H1653 C1641 0.929 . S
H1654 C1642 0.960 . S
H1655 C1642 0.962 . S
H1656 C1642 0.960 . S
H1657 C1643 0.961 . S
H1658 C1643 0.961 . S
H1659 C1643 0.961 . S
H1660 C1644 0.931 . S
H1661 C1649 0.930 . S
H1662 C1650 0.956 . S
H1663 C1650 0.961 . S
H1664 C1650 0.961 . S
H1665 C1651 0.958 . S
H1666 C1651 0.961 . S
H1667 C1651 0.960 . S
C1668 C1669 1.391 . S
C1668 C1670 1.394 . S
C1668 H1684 0.931 . S
C1669 C1668 1.391 . S
C1669 C1673 1.376 . S
C1670 C1668 1.394 . S
C1670 C1671 1.369 . S
C1670 C1674 1.531 . S
C1671 C1670 1.369 . S
C1671 C1672 1.410 . S
C1671 C1679 1.503 . S
C1672 C1671 1.410 . S
C1672 C1673 1.392 . S
C1672 C1675 1.511 . S
C1673 C1669 1.376 . S
C1673 C1672 1.392 . S
C1673 H1685 0.929 . S
C1674 C1670 1.531 . S
C1674 H1686 0.960 . S
C1674 H1687 0.962 . S
C1674 H1688 0.960 . S
C1675 C1672 1.511 . S
C1675 H1689 0.961 . S
C1675 H1690 0.961 . S
C1675 H1691 0.961 . S
C1676 C1677 1.370 . S
C1676 C1678 1.363 . S
C1676 H1692 0.930 1_554 S
C1677 C1676 1.370 . S
C1677 C1681 1.408 . S
C1678 C1676 1.363 . S
C1678 C1679 1.370 . S
C1678 C1682 1.524 . S
C1679 C1671 1.503 . S
C1679 C1678 1.370 . S
C1679 C1680 1.403 . S
C1680 C1679 1.403 . S
C1680 C1681 1.404 . S
C1680 C1683 1.539 . S
C1681 C1677 1.408 . S
C1681 C1680 1.404 . S
C1681 H1693 0.930 . S
C1682 C1678 1.524 . S
C1682 H1694 0.956 . S
C1682 H1695 0.961 . S
C1682 H1696 0.961 . S
C1683 C1680 1.539 . S
C1683 H1697 0.958 . S
C1683 H1698 0.961 . S
C1683 H1699 0.960 . S
H1684 C1668 0.931 . S
H1685 C1673 0.929 . S
H1686 C1674 0.960 . S
H1687 C1674 0.962 . S
H1688 C1674 0.960 . S
H1689 C1675 0.961 . S
H1690 C1675 0.961 . S
H1691 C1675 0.961 . S
H1692 C1676 0.930 1_556 S
H1693 C1681 0.930 . S
H1694 C1682 0.956 . S
H1695 C1682 0.961 . S
H1696 C1682 0.961 . S
H1697 C1683 0.958 . S
H1698 C1683 0.961 . S
H1699 C1683 0.960 . S
C1700 C1701 1.391 . S
C1700 C1702 1.394 . S
C1700 H1716 0.931 . S
C1701 C1700 1.391 . S
C1701 C1705 1.376 . S
C1702 C1700 1.394 . S
C1702 C1703 1.369 . S
C1702 C1706 1.531 . S
C1703 C1702 1.369 . S
C1703 C1704 1.410 . S
C1703 C1711 1.503 . S
C1704 C1703 1.410 . S
C1704 C1705 1.392 . S
C1704 C1707 1.511 . S
C1705 C1701 1.376 . S
C1705 C1704 1.392 . S
C1705 H1717 0.929 . S
C1706 C1702 1.531 . S
C1706 H1718 0.960 . S
C1706 H1719 0.962 . S
C1706 H1720 0.960 . S
C1707 C1704 1.511 . S
C1707 H1721 0.961 . S
C1707 H1722 0.961 . S
C1707 H1723 0.961 . S
C1708 C1709 1.370 . S
C1708 C1710 1.363 . S
C1708 H1724 0.931 . S
C1709 C1708 1.370 . S
C1709 C1713 1.408 . S
C1710 C1708 1.363 . S
C1710 C1711 1.370 . S
C1710 C1714 1.524 . S
C1711 C1703 1.503 . S
C1711 C1710 1.370 . S
C1711 C1712 1.403 . S
C1712 C1711 1.403 . S
C1712 C1713 1.404 . S
C1712 C1715 1.539 . S
C1713 C1709 1.408 . S
C1713 C1712 1.404 . S
C1713 H1725 0.930 1_554 S
C1714 C1710 1.524 . S
C1714 H1726 0.956 . S
C1714 H1727 0.961 . S
C1714 H1728 0.961 . S
C1715 C1712 1.539 . S
C1715 H1729 0.958 . S
C1715 H1730 0.961 1_554 S
C1715 H1731 0.960 . S
H1716 C1700 0.931 . S
H1717 C1705 0.929 . S
H1718 C1706 0.960 . S
H1719 C1706 0.962 . S
H1720 C1706 0.960 . S
H1721 C1707 0.961 . S
H1722 C1707 0.961 . S
H1723 C1707 0.961 . S
H1724 C1708 0.931 . S
H1725 C1713 0.930 1_556 S
H1726 C1714 0.956 . S
H1727 C1714 0.961 . S
H1728 C1714 0.961 . S
H1729 C1715 0.958 . S
H1730 C1715 0.961 1_556 S
H1731 C1715 0.960 . S
C1732 C1733 1.391 . S
C1732 C1734 1.394 . S
C1732 H1748 0.931 . S
C1733 C1732 1.391 . S
C1733 C1737 1.376 . S
C1734 C1732 1.394 . S
C1734 C1735 1.369 . S
C1734 C1738 1.531 . S
C1735 C1734 1.369 . S
C1735 C1736 1.410 . S
C1735 C1743 1.503 . S
C1736 C1735 1.410 . S
C1736 C1737 1.392 . S
C1736 C1739 1.511 . S
C1737 C1733 1.376 . S
C1737 C1736 1.392 . S
C1737 H1749 0.929 1_554 S
C1738 C1734 1.531 . S
C1738 H1750 0.960 . S
C1738 H1751 0.962 . S
C1738 H1752 0.960 . S
C1739 C1736 1.511 . S
C1739 H1753 0.961 1_554 S
C1739 H1754 0.961 . S
C1739 H1755 0.961 . S
C1740 C1741 1.370 . S
C1740 C1742 1.363 . S
C1740 H1756 0.931 . S
C1741 C1740 1.370 . S
C1741 C1745 1.408 . S
C1742 C1740 1.363 . S
C1742 C1743 1.370 . S
C1742 C1746 1.524 . S
C1743 C1735 1.503 . S
C1743 C1742 1.370 . S
C1743 C1744 1.403 . S
C1744 C1743 1.403 . S
C1744 C1745 1.404 . S
C1744 C1747 1.539 . S
C1745 C1741 1.408 . S
C1745 C1744 1.404 . S
C1745 H1757 0.930 . S
C1746 C1742 1.524 . S
C1746 H1758 0.956 . S
C1746 H1759 0.961 . S
C1746 H1760 0.961 . S
C1747 C1744 1.539 . S
C1747 H1761 0.958 . S
C1747 H1762 0.961 . S
C1747 H1763 0.960 . S
H1748 C1732 0.931 . S
H1749 C1737 0.929 1_556 S
H1750 C1738 0.960 . S
H1751 C1738 0.962 . S
H1752 C1738 0.960 . S
H1753 C1739 0.961 1_556 S
H1754 C1739 0.961 . S
H1755 C1739 0.961 . S
H1756 C1740 0.931 . S
H1757 C1745 0.930 . S
H1758 C1746 0.956 . S
H1759 C1746 0.961 . S
H1760 C1746 0.961 . S
H1761 C1747 0.958 . S
H1762 C1747 0.961 . S
H1763 C1747 0.960 . S
C1764 C1765 1.391 . S
C1764 C1766 1.394 . S
C1764 H1780 0.931 . S
C1765 C1764 1.391 . S
C1765 C1769 1.376 . S
C1766 C1764 1.394 . S
C1766 C1767 1.369 . S
C1766 C1770 1.531 . S
C1767 C1766 1.369 . S
C1767 C1768 1.410 . S
C1767 C1775 1.503 . S
C1768 C1767 1.410 . S
C1768 C1769 1.392 . S
C1768 C1771 1.511 . S
C1769 C1765 1.376 . S
C1769 C1768 1.392 . S
C1769 H1781 0.929 . S
C1770 C1766 1.531 . S
C1770 H1782 0.960 . S
C1770 H1783 0.962 . S
C1770 H1784 0.960 . S
C1771 C1768 1.511 . S
C1771 H1785 0.961 . S
C1771 H1786 0.961 . S
C1771 H1787 0.961 . S
C1772 C1773 1.370 . S
C1772 C1774 1.363 . S
C1772 H1788 0.931 . S
C1773 C1772 1.370 . S
C1773 C1777 1.408 . S
C1774 C1772 1.363 . S
C1774 C1775 1.370 . S
C1774 C1778 1.524 . S
C1775 C1767 1.503 . S
C1775 C1774 1.370 . S
C1775 C1776 1.403 . S
C1776 C1775 1.403 . S
C1776 C1777 1.404 . S
C1776 C1779 1.539 . S
C1777 C1773 1.408 . S
C1777 C1776 1.404 . S
C1777 H1789 0.930 . S
C1778 C1774 1.524 . S
C1778 H1790 0.956 . S
C1778 H1791 0.961 . S
C1778 H1792 0.961 . S
C1779 C1776 1.539 . S
C1779 H1793 0.958 . S
C1779 H1794 0.961 . S
C1779 H1795 0.960 . S
H1780 C1764 0.931 . S
H1781 C1769 0.929 . S
H1782 C1770 0.960 . S
H1783 C1770 0.962 . S
H1784 C1770 0.960 . S
H1785 C1771 0.961 . S
H1786 C1771 0.961 . S
H1787 C1771 0.961 . S
H1788 C1772 0.931 . S
H1789 C1777 0.930 . S
H1790 C1778 0.956 . S
H1791 C1778 0.961 . S
H1792 C1778 0.961 . S
H1793 C1779 0.958 . S
H1794 C1779 0.961 . S
H1795 C1779 0.960 . S
C1796 C1797 1.391 . S
C1796 C1798 1.394 . S
C1796 H1812 0.931 . S
C1797 C1796 1.391 . S
C1797 C1801 1.376 . S
C1798 C1796 1.394 . S
C1798 C1799 1.369 . S
C1798 C1802 1.531 . S
C1799 C1798 1.369 . S
C1799 C1800 1.410 . S
C1799 C1807 1.503 . S
C1800 C1799 1.410 . S
C1800 C1801 1.392 . S
C1800 C1803 1.511 . S
C1801 C1797 1.376 . S
C1801 C1800 1.392 . S
C1801 H1813 0.929 . S
C1802 C1798 1.531 . S
C1802 H1814 0.960 . S
C1802 H1815 0.962 . S
C1802 H1816 0.960 . S
C1803 C1800 1.511 . S
C1803 H1817 0.961 . S
C1803 H1818 0.961 . S
C1803 H1819 0.961 . S
C1804 C1805 1.370 . S
C1804 C1806 1.363 . S
C1804 H1820 0.931 . S
C1805 C1804 1.370 . S
C1805 C1809 1.408 . S
C1806 C1804 1.363 . S
C1806 C1807 1.370 . S
C1806 C1810 1.524 . S
C1807 C1799 1.503 . S
C1807 C1806 1.370 . S
C1807 C1808 1.403 . S
C1808 C1807 1.403 . S
C1808 C1809 1.404 . S
C1808 C1811 1.539 . S
C1809 C1805 1.408 . S
C1809 C1808 1.404 . S
C1809 H1821 0.930 . S
C1810 C1806 1.524 . S
C1810 H1822 0.956 . S
C1810 H1823 0.961 . S
C1810 H1824 0.961 . S
C1811 C1808 1.539 . S
C1811 H1825 0.958 . S
C1811 H1826 0.961 . S
C1811 H1827 0.960 . S
H1812 C1796 0.931 . S
H1813 C1801 0.929 . S
H1814 C1802 0.960 . S
H1815 C1802 0.962 . S
H1816 C1802 0.960 . S
H1817 C1803 0.961 . S
H1818 C1803 0.961 . S
H1819 C1803 0.961 . S
H1820 C1804 0.931 . S
H1821 C1809 0.930 . S
H1822 C1810 0.956 . S
H1823 C1810 0.961 . S
H1824 C1810 0.961 . S
H1825 C1811 0.958 . S
H1826 C1811 0.961 . S
H1827 C1811 0.960 . S
C1828 C1829 1.391 . S
C1828 C1830 1.394 . S
C1828 H1844 0.931 . S
C1829 C1828 1.391 . S
C1829 C1833 1.376 . S
C1830 C1828 1.394 . S
C1830 C1831 1.369 . S
C1830 C1834 1.531 . S
C1831 C1830 1.369 . S
C1831 C1832 1.410 . S
C1831 C1839 1.503 . S
C1832 C1831 1.410 . S
C1832 C1833 1.392 . S
C1832 C1835 1.511 . S
C1833 C1829 1.376 . S
C1833 C1832 1.392 . S
C1833 H1845 0.929 . S
C1834 C1830 1.531 . S
C1834 H1846 0.960 . S
C1834 H1847 0.962 . S
C1834 H1848 0.960 . S
C1835 C1832 1.511 . S
C1835 H1849 0.961 . S
C1835 H1850 0.961 . S
C1835 H1851 0.961 . S
C1836 C1837 1.370 . S
C1836 C1838 1.363 . S
C1836 H1852 0.931 . S
C1837 C1836 1.370 . S
C1837 C1841 1.408 . S
C1838 C1836 1.363 . S
C1838 C1839 1.370 . S
C1838 C1842 1.524 . S
C1839 C1831 1.503 . S
C1839 C1838 1.370 . S
C1839 C1840 1.403 . S
C1840 C1839 1.403 . S
C1840 C1841 1.404 . S
C1840 C1843 1.539 . S
C1841 C1837 1.408 . S
C1841 C1840 1.404 . S
C1841 H1853 0.930 . S
C1842 C1838 1.524 . S
C1842 H1854 0.956 . S
C1842 H1855 0.961 . S
C1842 H1856 0.961 . S
C1843 C1840 1.539 . S
C1843 H1857 0.958 . S
C1843 H1858 0.961 . S
C1843 H1859 0.960 . S
H1844 C1828 0.931 . S
H1845 C1833 0.929 . S
H1846 C1834 0.960 . S
H1847 C1834 0.962 . S
H1848 C1834 0.960 . S
H1849 C1835 0.961 . S
H1850 C1835 0.961 . S
H1851 C1835 0.961 . S
H1852 C1836 0.931 . S
H1853 C1841 0.930 . S
H1854 C1842 0.956 . S
H1855 C1842 0.961 . S
H1856 C1842 0.961 . S
H1857 C1843 0.958 . S
H1858 C1843 0.961 . S
H1859 C1843 0.960 . S
C1860 C1861 1.391 . S
C1860 C1862 1.394 . S
C1860 H1876 0.931 . S
C1861 C1860 1.391 . S
C1861 C1865 1.376 . S
C1862 C1860 1.394 . S
C1862 C1863 1.369 . S
C1862 C1866 1.531 . S
C1863 C1862 1.369 . S
C1863 C1864 1.410 . S
C1863 C1871 1.503 . S
C1864 C1863 1.410 . S
C1864 C1865 1.392 . S
C1864 C1867 1.511 . S
C1865 C1861 1.376 . S
C1865 C1864 1.392 . S
C1865 H1877 0.929 . S
C1866 C1862 1.531 . S
C1866 H1878 0.960 . S
C1866 H1879 0.962 . S
C1866 H1880 0.960 . S
C1867 C1864 1.511 . S
C1867 H1881 0.961 . S
C1867 H1882 0.961 . S
C1867 H1883 0.961 . S
C1868 C1869 1.370 . S
C1868 C1870 1.363 . S
C1868 H1884 0.931 . S
C1869 C1868 1.370 . S
C1869 C1873 1.408 . S
C1870 C1868 1.363 . S
C1870 C1871 1.370 . S
C1870 C1874 1.524 . S
C1871 C1863 1.503 . S
C1871 C1870 1.370 . S
C1871 C1872 1.403 . S
C1872 C1871 1.403 . S
C1872 C1873 1.404 . S
C1872 C1875 1.539 . S
C1873 C1869 1.408 . S
C1873 C1872 1.404 . S
C1873 H1885 0.930 . S
C1874 C1870 1.524 . S
C1874 H1886 0.956 . S
C1874 H1887 0.961 . S
C1874 H1888 0.961 . S
C1875 C1872 1.539 . S
C1875 H1889 0.958 . S
C1875 H1890 0.961 . S
C1875 H1891 0.960 . S
H1876 C1860 0.931 . S
H1877 C1865 0.929 . S
H1878 C1866 0.960 . S
H1879 C1866 0.962 . S
H1880 C1866 0.960 . S
H1881 C1867 0.961 . S
H1882 C1867 0.961 . S
H1883 C1867 0.961 . S
H1884 C1868 0.931 . S
H1885 C1873 0.930 . S
H1886 C1874 0.956 . S
H1887 C1874 0.961 . S
H1888 C1874 0.961 . S
H1889 C1875 0.958 . S
H1890 C1875 0.961 . S
H1891 C1875 0.960 . S
C1892 C1893 1.391 . S
C1892 C1894 1.394 . S
C1892 H1908 0.931 . S
C1893 C1892 1.391 . S
C1893 C1897 1.376 . S
C1894 C1892 1.394 . S
C1894 C1895 1.369 . S
C1894 C1898 1.531 . S
C1895 C1894 1.369 . S
C1895 C1896 1.410 . S
C1895 C1903 1.503 . S
C1896 C1895 1.410 . S
C1896 C1897 1.392 . S
C1896 C1899 1.511 . S
C1897 C1893 1.376 . S
C1897 C1896 1.392 . S
C1897 H1909 0.929 . S
C1898 C1894 1.531 . S
C1898 H1910 0.960 . S
C1898 H1911 0.962 . S
C1898 H1912 0.960 . S
C1899 C1896 1.511 . S
C1899 H1913 0.961 . S
C1899 H1914 0.961 . S
C1899 H1915 0.961 . S
C1900 C1901 1.370 . S
C1900 C1902 1.363 . S
C1900 H1916 0.931 . S
C1901 C1900 1.370 . S
C1901 C1905 1.408 . S
C1902 C1900 1.363 . S
C1902 C1903 1.370 . S
C1902 C1906 1.524 . S
C1903 C1895 1.503 . S
C1903 C1902 1.370 . S
C1903 C1904 1.403 . S
C1904 C1903 1.403 . S
C1904 C1905 1.404 . S
C1904 C1907 1.539 . S
C1905 C1901 1.408 . S
C1905 C1904 1.404 . S
C1905 H1917 0.930 . S
C1906 C1902 1.524 . S
C1906 H1918 0.956 . S
C1906 H1919 0.961 . S
C1906 H1920 0.961 . S
C1907 C1904 1.539 . S
C1907 H1921 0.958 . S
C1907 H1922 0.961 . S
C1907 H1923 0.960 . S
H1908 C1892 0.931 . S
H1909 C1897 0.929 . S
H1910 C1898 0.960 . S
H1911 C1898 0.962 . S
H1912 C1898 0.960 . S
H1913 C1899 0.961 . S
H1914 C1899 0.961 . S
H1915 C1899 0.961 . S
H1916 C1900 0.931 . S
H1917 C1905 0.930 . S
H1918 C1906 0.956 . S
H1919 C1906 0.961 . S
H1920 C1906 0.961 . S
H1921 C1907 0.958 . S
H1922 C1907 0.961 . S
H1923 C1907 0.960 . S
C1924 C1925 1.391 . S
C1924 C1926 1.394 . S
C1924 H1940 0.931 . S
C1925 C1924 1.391 . S
C1925 C1929 1.376 . S
C1926 C1924 1.394 . S
C1926 C1927 1.369 . S
C1926 C1930 1.531 . S
C1927 C1926 1.369 . S
C1927 C1928 1.410 . S
C1927 C1935 1.503 . S
C1928 C1927 1.410 . S
C1928 C1929 1.392 . S
C1928 C1931 1.511 . S
C1929 C1925 1.376 . S
C1929 C1928 1.392 . S
C1929 H1941 0.929 . S
C1930 C1926 1.531 . S
C1930 H1942 0.960 . S
C1930 H1943 0.962 . S
C1930 H1944 0.960 . S
C1931 C1928 1.511 . S
C1931 H1945 0.961 . S
C1931 H1946 0.961 . S
C1931 H1947 0.961 . S
C1932 C1933 1.370 . S
C1932 C1934 1.363 . S
C1932 H1948 0.931 . S
C1933 C1932 1.370 . S
C1933 C1937 1.408 . S
C1934 C1932 1.363 . S
C1934 C1935 1.370 . S
C1934 C1938 1.524 . S
C1935 C1927 1.503 . S
C1935 C1934 1.370 . S
C1935 C1936 1.403 . S
C1936 C1935 1.403 . S
C1936 C1937 1.404 . S
C1936 C1939 1.539 . S
C1937 C1933 1.408 . S
C1937 C1936 1.404 . S
C1937 H1949 0.930 . S
C1938 C1934 1.524 . S
C1938 H1950 0.956 . S
C1938 H1951 0.961 . S
C1938 H1952 0.961 . S
C1939 C1936 1.539 . S
C1939 H1953 0.958 . S
C1939 H1954 0.961 . S
C1939 H1955 0.960 . S
H1940 C1924 0.931 . S
H1941 C1929 0.929 . S
H1942 C1930 0.960 . S
H1943 C1930 0.962 . S
H1944 C1930 0.960 . S
H1945 C1931 0.961 . S
H1946 C1931 0.961 . S
H1947 C1931 0.961 . S
H1948 C1932 0.931 . S
H1949 C1937 0.930 . S
H1950 C1938 0.956 . S
H1951 C1938 0.961 . S
H1952 C1938 0.961 . S
H1953 C1939 0.958 . S
H1954 C1939 0.961 . S
H1955 C1939 0.960 . S
C1956 C1957 1.391 . S
C1956 C1958 1.394 . S
C1956 H1972 0.931 . S
C1957 C1956 1.391 . S
C1957 C1961 1.376 . S
C1958 C1956 1.394 . S
C1958 C1959 1.369 . S
C1958 C1962 1.531 . S
C1959 C1958 1.369 . S
C1959 C1960 1.410 . S
C1959 C1967 1.503 . S
C1960 C1959 1.410 . S
C1960 C1961 1.392 . S
C1960 C1963 1.511 . S
C1961 C1957 1.376 . S
C1961 C1960 1.392 . S
C1961 H1973 0.929 . S
C1962 C1958 1.531 . S
C1962 H1974 0.960 . S
C1962 H1975 0.962 . S
C1962 H1976 0.960 . S
C1963 C1960 1.511 . S
C1963 H1977 0.961 . S
C1963 H1978 0.961 . S
C1963 H1979 0.961 . S
C1964 C1965 1.370 . S
C1964 C1966 1.363 . S
C1964 H1980 0.931 . S
C1965 C1964 1.370 . S
C1965 C1969 1.408 . S
C1966 C1964 1.363 . S
C1966 C1967 1.370 . S
C1966 C1970 1.524 . S
C1967 C1959 1.503 . S
C1967 C1966 1.370 . S
C1967 C1968 1.403 . S
C1968 C1967 1.403 . S
C1968 C1969 1.404 . S
C1968 C1971 1.539 . S
C1969 C1965 1.408 . S
C1969 C1968 1.404 . S
C1969 H1981 0.930 . S
C1970 C1966 1.524 . S
C1970 H1982 0.956 . S
C1970 H1983 0.961 . S
C1970 H1984 0.961 . S
C1971 C1968 1.539 . S
C1971 H1985 0.958 . S
C1971 H1986 0.961 . S
C1971 H1987 0.960 . S
H1972 C1956 0.931 . S
H1973 C1961 0.929 . S
H1974 C1962 0.960 . S
H1975 C1962 0.962 . S
H1976 C1962 0.960 . S
H1977 C1963 0.961 . S
H1978 C1963 0.961 . S
H1979 C1963 0.961 . S
H1980 C1964 0.931 . S
H1981 C1969 0.930 . S
H1982 C1970 0.956 . S
H1983 C1970 0.961 . S
H1984 C1970 0.961 . S
H1985 C1971 0.958 . S
H1986 C1971 0.961 . S
H1987 C1971 0.960 . S
C1988 C1989 1.391 . S
C1988 C1990 1.394 . S
C1988 H2004 0.931 . S
C1989 C1988 1.391 . S
C1989 C1993 1.376 . S
C1990 C1988 1.394 . S
C1990 C1991 1.369 . S
C1990 C1994 1.531 . S
C1991 C1990 1.369 . S
C1991 C1992 1.410 . S
C1991 C1999 1.503 . S
C1992 C1991 1.410 . S
C1992 C1993 1.392 . S
C1992 C1995 1.511 . S
C1993 C1989 1.376 . S
C1993 C1992 1.392 . S
C1993 H2005 0.929 . S
C1994 C1990 1.531 . S
C1994 H2006 0.960 . S
C1994 H2007 0.962 . S
C1994 H2008 0.960 . S
C1995 C1992 1.511 . S
C1995 H2009 0.961 . S
C1995 H2010 0.961 . S
C1995 H2011 0.961 . S
C1996 C1997 1.370 . S
C1996 C1998 1.363 . S
C1996 H2012 0.931 . S
C1997 C1996 1.370 . S
C1997 C2001 1.408 . S
C1998 C1996 1.363 . S
C1998 C1999 1.370 . S
C1998 C2002 1.524 . S
C1999 C1991 1.503 . S
C1999 C1998 1.370 . S
C1999 C2000 1.403 . S
C2000 C1999 1.403 . S
C2000 C2001 1.404 . S
C2000 C2003 1.539 . S
C2001 C1997 1.408 . S
C2001 C2000 1.404 . S
C2001 H2013 0.930 . S
C2002 C1998 1.524 . S
C2002 H2014 0.956 . S
C2002 H2015 0.961 . S
C2002 H2016 0.961 . S
C2003 C2000 1.539 . S
C2003 H2017 0.958 . S
C2003 H2018 0.961 . S
C2003 H2019 0.960 . S
H2004 C1988 0.931 . S
H2005 C1993 0.929 . S
H2006 C1994 0.960 . S
H2007 C1994 0.962 . S
H2008 C1994 0.960 . S
H2009 C1995 0.961 . S
H2010 C1995 0.961 . S
H2011 C1995 0.961 . S
H2012 C1996 0.931 . S
H2013 C2001 0.930 . S
H2014 C2002 0.956 . S
H2015 C2002 0.961 . S
H2016 C2002 0.961 . S
H2017 C2003 0.958 . S
H2018 C2003 0.961 . S
H2019 C2003 0.960 . S
C2020 C2021 1.391 . S
C2020 C2022 1.394 . S
C2020 H2036 0.931 . S
C2021 C2020 1.391 . S
C2021 C2025 1.376 . S
C2022 C2020 1.394 . S
C2022 C2023 1.369 . S
C2022 C2026 1.531 . S
C2023 C2022 1.369 . S
C2023 C2024 1.410 . S
C2023 C2031 1.503 . S
C2024 C2023 1.410 . S
C2024 C2025 1.392 . S
C2024 C2027 1.511 . S
C2025 C2021 1.376 . S
C2025 C2024 1.392 . S
C2025 H2037 0.929 . S
C2026 C2022 1.531 . S
C2026 H2038 0.960 . S
C2026 H2039 0.962 . S
C2026 H2040 0.960 . S
C2027 C2024 1.511 . S
C2027 H2041 0.961 . S
C2027 H2042 0.961 . S
C2027 H2043 0.961 . S
C2028 C2029 1.370 . S
C2028 C2030 1.363 . S
C2028 H2044 0.931 . S
C2029 C2028 1.370 . S
C2029 C2033 1.408 . S
C2030 C2028 1.363 . S
C2030 C2031 1.370 . S
C2030 C2034 1.524 . S
C2031 C2023 1.503 . S
C2031 C2030 1.370 . S
C2031 C2032 1.403 . S
C2032 C2031 1.403 . S
C2032 C2033 1.404 . S
C2032 C2035 1.539 . S
C2033 C2029 1.408 . S
C2033 C2032 1.404 . S
C2033 H2045 0.930 . S
C2034 C2030 1.524 . S
C2034 H2046 0.956 . S
C2034 H2047 0.961 . S
C2034 H2048 0.961 . S
C2035 C2032 1.539 . S
C2035 H2049 0.958 . S
C2035 H2050 0.961 . S
C2035 H2051 0.960 . S
H2036 C2020 0.931 . S
H2037 C2025 0.929 . S
H2038 C2026 0.960 . S
H2039 C2026 0.962 . S
H2040 C2026 0.960 . S
H2041 C2027 0.961 . S
H2042 C2027 0.961 . S
H2043 C2027 0.961 . S
H2044 C2028 0.931 . S
H2045 C2033 0.930 . S
H2046 C2034 0.956 . S
H2047 C2034 0.961 . S
H2048 C2034 0.961 . S
H2049 C2035 0.958 . S
H2050 C2035 0.961 . S
H2051 C2035 0.960 . S
C2052 C2053 1.391 . S
C2052 C2054 1.394 . S
C2052 H2068 0.931 . S
C2053 C2052 1.391 . S
C2053 C2057 1.376 . S
C2054 C2052 1.394 . S
C2054 C2055 1.369 . S
C2054 C2058 1.531 . S
C2055 C2054 1.369 . S
C2055 C2056 1.410 . S
C2055 C2063 1.503 . S
C2056 C2055 1.410 . S
C2056 C2057 1.392 . S
C2056 C2059 1.511 . S
C2057 C2053 1.376 . S
C2057 C2056 1.392 . S
C2057 H2069 0.929 . S
C2058 C2054 1.531 . S
C2058 H2070 0.960 . S
C2058 H2071 0.962 . S
C2058 H2072 0.960 . S
C2059 C2056 1.511 . S
C2059 H2073 0.961 . S
C2059 H2074 0.961 . S
C2059 H2075 0.961 . S
C2060 C2061 1.370 . S
C2060 C2062 1.363 . S
C2060 H2076 0.931 . S
C2061 C2060 1.370 . S
C2061 C2065 1.408 . S
C2062 C2060 1.363 . S
C2062 C2063 1.370 . S
C2062 C2066 1.524 . S
C2063 C2055 1.503 . S
C2063 C2062 1.370 . S
C2063 C2064 1.403 . S
C2064 C2063 1.403 . S
C2064 C2065 1.404 . S
C2064 C2067 1.539 . S
C2065 C2061 1.408 . S
C2065 C2064 1.404 . S
C2065 H2077 0.930 . S
C2066 C2062 1.524 . S
C2066 H2078 0.956 . S
C2066 H2079 0.961 . S
C2066 H2080 0.961 . S
C2067 C2064 1.539 . S
C2067 H2081 0.958 . S
C2067 H2082 0.961 . S
C2067 H2083 0.960 . S
H2068 C2052 0.931 . S
H2069 C2057 0.929 . S
H2070 C2058 0.960 . S
H2071 C2058 0.962 . S
H2072 C2058 0.960 . S
H2073 C2059 0.961 . S
H2074 C2059 0.961 . S
H2075 C2059 0.961 . S
H2076 C2060 0.931 . S
H2077 C2065 0.930 . S
H2078 C2066 0.956 . S
H2079 C2066 0.961 . S
H2080 C2066 0.961 . S
H2081 C2067 0.958 . S
H2082 C2067 0.961 . S
H2083 C2067 0.960 . S
C2084 C2085 1.391 . S
C2084 C2086 1.394 . S
C2084 H2100 0.931 . S
C2085 C2084 1.391 . S
C2085 C2089 1.376 . S
C2086 C2084 1.394 . S
C2086 C2087 1.369 . S
C2086 C2090 1.531 . S
C2087 C2086 1.369 . S
C2087 C2088 1.410 . S
C2087 C2095 1.503 . S
C2088 C2087 1.410 . S
C2088 C2089 1.392 . S
C2088 C2091 1.511 . S
C2089 C2085 1.376 . S
C2089 C2088 1.392 . S
C2089 H2101 0.929 . S
C2090 C2086 1.531 . S
C2090 H2102 0.960 . S
C2090 H2103 0.962 . S
C2090 H2104 0.960 . S
C2091 C2088 1.511 . S
C2091 H2105 0.961 . S
C2091 H2106 0.961 . S
C2091 H2107 0.961 . S
C2092 C2093 1.370 . S
C2092 C2094 1.363 . S
C2092 H2108 0.931 . S
C2093 C2092 1.370 . S
C2093 C2097 1.408 . S
C2094 C2092 1.363 . S
C2094 C2095 1.370 . S
C2094 C2098 1.524 . S
C2095 C2087 1.503 . S
C2095 C2094 1.370 . S
C2095 C2096 1.403 . S
C2096 C2095 1.403 . S
C2096 C2097 1.404 . S
C2096 C2099 1.539 . S
C2097 C2093 1.408 . S
C2097 C2096 1.404 . S
C2097 H2109 0.930 . S
C2098 C2094 1.524 . S
C2098 H2110 0.956 . S
C2098 H2111 0.961 . S
C2098 H2112 0.961 . S
C2099 C2096 1.539 . S
C2099 H2113 0.958 . S
C2099 H2114 0.961 . S
C2099 H2115 0.960 . S
H2100 C2084 0.931 . S
H2101 C2089 0.929 . S
H2102 C2090 0.960 . S
H2103 C2090 0.962 . S
H2104 C2090 0.960 . S
H2105 C2091 0.961 . S
H2106 C2091 0.961 . S
H2107 C2091 0.961 . S
H2108 C2092 0.931 . S
H2109 C2097 0.930 . S
H2110 C2098 0.956 . S
H2111 C2098 0.961 . S
H2112 C2098 0.961 . S
H2113 C2099 0.958 . S
H2114 C2099 0.961 . S
H2115 C2099 0.960 . S
C2116 C2117 1.391 . S
C2116 C2118 1.394 . S
C2116 H2132 0.931 . S
C2117 C2116 1.391 . S
C2117 C2121 1.376 . S
C2118 C2116 1.394 . S
C2118 C2119 1.369 . S
C2118 C2122 1.531 . S
C2119 C2118 1.369 . S
C2119 C2120 1.410 . S
C2119 C2127 1.503 . S
C2120 C2119 1.410 . S
C2120 C2121 1.392 . S
C2120 C2123 1.511 . S
C2121 C2117 1.376 . S
C2121 C2120 1.392 . S
C2121 H2133 0.929 . S
C2122 C2118 1.531 . S
C2122 H2134 0.960 . S
C2122 H2135 0.962 . S
C2122 H2136 0.960 . S
C2123 C2120 1.511 . S
C2123 H2137 0.961 . S
C2123 H2138 0.961 . S
C2123 H2139 0.961 . S
C2124 C2125 1.370 . S
C2124 C2126 1.363 . S
C2124 H2140 0.931 . S
C2125 C2124 1.370 . S
C2125 C2129 1.408 . S
C2126 C2124 1.363 . S
C2126 C2127 1.370 . S
C2126 C2130 1.524 . S
C2127 C2119 1.503 . S
C2127 C2126 1.370 . S
C2127 C2128 1.403 . S
C2128 C2127 1.403 . S
C2128 C2129 1.404 . S
C2128 C2131 1.539 . S
C2129 C2125 1.408 . S
C2129 C2128 1.404 . S
C2129 H2141 0.930 . S
C2130 C2126 1.524 . S
C2130 H2142 0.956 . S
C2130 H2143 0.961 . S
C2130 H2144 0.961 . S
C2131 C2128 1.539 . S
C2131 H2145 0.958 . S
C2131 H2146 0.961 . S
C2131 H2147 0.960 . S
H2132 C2116 0.931 . S
H2133 C2121 0.929 . S
H2134 C2122 0.960 . S
H2135 C2122 0.962 . S
H2136 C2122 0.960 . S
H2137 C2123 0.961 . S
H2138 C2123 0.961 . S
H2139 C2123 0.961 . S
H2140 C2124 0.931 . S
H2141 C2129 0.930 . S
H2142 C2130 0.956 . S
H2143 C2130 0.961 . S
H2144 C2130 0.961 . S
H2145 C2131 0.958 . S
H2146 C2131 0.961 . S
H2147 C2131 0.960 . S
C2148 C2149 1.391 . S
C2148 C2150 1.394 . S
C2148 H2164 0.931 . S
C2149 C2148 1.391 . S
C2149 C2153 1.376 . S
C2150 C2148 1.394 . S
C2150 C2151 1.369 . S
C2150 C2154 1.531 . S
C2151 C2150 1.369 . S
C2151 C2152 1.410 . S
C2151 C2159 1.503 . S
C2152 C2151 1.410 . S
C2152 C2153 1.392 . S
C2152 C2155 1.511 . S
C2153 C2149 1.376 . S
C2153 C2152 1.392 . S
C2153 H2165 0.929 . S
C2154 C2150 1.531 . S
C2154 H2166 0.960 1_556 S
C2154 H2167 0.962 . S
C2154 H2168 0.960 . S
C2155 C2152 1.511 . S
C2155 H2169 0.961 . S
C2155 H2170 0.961 . S
C2155 H2171 0.961 . S
C2156 C2157 1.370 . S
C2156 C2158 1.363 1_554 S
C2156 H2172 0.931 1_554 S
C2157 C2156 1.370 . S
C2157 C2161 1.408 . S
C2158 C2156 1.363 1_556 S
C2158 C2159 1.370 . S
C2158 C2162 1.524 . S
C2159 C2151 1.503 . S
C2159 C2158 1.370 . S
C2159 C2160 1.403 1_556 S
C2160 C2159 1.403 1_554 S
C2160 C2161 1.404 . S
C2160 C2163 1.539 . S
C2161 C2157 1.408 . S
C2161 C2160 1.404 . S
C2161 H2173 0.930 . S
C2162 C2158 1.524 . S
C2162 H2174 0.956 . S
C2162 H2175 0.961 . S
C2162 H2176 0.961 . S
C2163 C2160 1.539 . S
C2163 H2177 0.958 . S
C2163 H2178 0.961 . S
C2163 H2179 0.960 . S
H2164 C2148 0.931 . S
H2165 C2153 0.929 . S
H2166 C2154 0.960 1_554 S
H2167 C2154 0.962 . S
H2168 C2154 0.960 . S
H2169 C2155 0.961 . S
H2170 C2155 0.961 . S
H2171 C2155 0.961 . S
H2172 C2156 0.931 1_556 S
H2173 C2161 0.930 . S
H2174 C2162 0.956 . S
H2175 C2162 0.961 . S
H2176 C2162 0.961 . S
H2177 C2163 0.958 . S
H2178 C2163 0.961 . S
H2179 C2163 0.960 . S
C2180 C2181 1.391 . S
C2180 C2182 1.394 1_554 S
C2180 H2196 0.931 . S
C2181 C2180 1.391 . S
C2181 C2185 1.376 . S
C2182 C2180 1.394 1_556 S
C2182 C2183 1.369 . S
C2182 C2186 1.531 . S
C2183 C2182 1.369 . S
C2183 C2184 1.410 1_556 S
C2183 C2191 1.503 . S
C2184 C2183 1.410 1_554 S
C2184 C2185 1.392 . S
C2184 C2187 1.511 1_554 S
C2185 C2181 1.376 . S
C2185 C2184 1.392 . S
C2185 H2197 0.929 . S
C2186 C2182 1.531 . S
C2186 H2198 0.960 . S
C2186 H2199 0.962 . S
C2186 H2200 0.960 . S
C2187 C2184 1.511 1_556 S
C2187 H2201 0.961 1_556 S
C2187 H2202 0.961 . S
C2187 H2203 0.961 . S
C2188 C2189 1.370 . S
C2188 C2190 1.363 . S
C2188 H2204 0.931 . S
C2189 C2188 1.370 . S
C2189 C2193 1.408 . S
C2190 C2188 1.363 . S
C2190 C2191 1.370 . S
C2190 C2194 1.524 1_556 S
C2191 C2183 1.503 . S
C2191 C2190 1.370 . S
C2191 C2192 1.403 . S
C2192 C2191 1.403 . S
C2192 C2193 1.404 . S
C2192 C2195 1.539 . S
C2193 C2189 1.408 . S
C2193 C2192 1.404 . S
C2193 H2205 0.930 . S
C2194 C2190 1.524 1_554 S
C2194 H2206 0.956 . S
C2194 H2207 0.961 . S
C2194 H2208 0.961 . S
C2195 C2192 1.539 . S
C2195 H2209 0.958 . S
C2195 H2210 0.961 . S
C2195 H2211 0.960 . S
H2196 C2180 0.931 . S
H2197 C2185 0.929 . S
H2198 C2186 0.960 . S
H2199 C2186 0.962 . S
H2200 C2186 0.960 . S
H2201 C2187 0.961 1_554 S
H2202 C2187 0.961 . S
H2203 C2187 0.961 . S
H2204 C2188 0.931 . S
H2205 C2193 0.930 . S
H2206 C2194 0.956 . S
H2207 C2194 0.961 . S
H2208 C2194 0.961 . S
H2209 C2195 0.958 . S
H2210 C2195 0.961 . S
H2211 C2195 0.960 . S
C2212 C2213 1.391 . S
C2212 C2214 1.394 . S
C2212 H2228 0.931 . S
C2213 C2212 1.391 . S
C2213 C2217 1.376 . S
C2214 C2212 1.394 . S
C2214 C2215 1.369 1_554 S
C2214 C2218 1.531 . S
C2215 C2214 1.369 1_556 S
C2215 C2216 1.410 . S
C2215 C2223 1.503 . S
C2216 C2215 1.410 . S
C2216 C2217 1.392 1_556 S
C2216 C2219 1.511 . S
C2217 C2213 1.376 . S
C2217 C2216 1.392 1_554 S
C2217 H2229 0.929 . S
C2218 C2214 1.531 . S
C2218 H2230 0.960 1_554 S
C2218 H2231 0.962 . S
C2218 H2232 0.960 . S
C2219 C2216 1.511 . S
C2219 H2233 0.961 . S
C2219 H2234 0.961 . S
C2219 H2235 0.961 . S
C2220 C2221 1.370 . S
C2220 C2222 1.363 . S
C2220 H2236 0.931 . S
C2221 C2220 1.370 . S
C2221 C2225 1.408 . S
C2222 C2220 1.363 . S
C2222 C2223 1.370 . S
C2222 C2226 1.524 1_556 S
C2223 C2215 1.503 . S
C2223 C2222 1.370 . S
C2223 C2224 1.403 . S
C2224 C2223 1.403 . S
C2224 C2225 1.404 . S
C2224 C2227 1.539 . S
C2225 C2221 1.408 . S
C2225 C2224 1.404 . S
C2225 H2237 0.930 . S
C2226 C2222 1.524 1_554 S
C2226 H2238 0.956 . S
C2226 H2239 0.961 . S
C2226 H2240 0.961 . S
C2227 C2224 1.539 . S
C2227 H2241 0.958 . S
C2227 H2242 0.961 . S
C2227 H2243 0.960 . S
H2228 C2212 0.931 . S
H2229 C2217 0.929 . S
H2230 C2218 0.960 1_556 S
H2231 C2218 0.962 . S
H2232 C2218 0.960 . S
H2233 C2219 0.961 . S
H2234 C2219 0.961 . S
H2235 C2219 0.961 . S
H2236 C2220 0.931 . S
H2237 C2225 0.930 . S
H2238 C2226 0.956 . S
H2239 C2226 0.961 . S
H2240 C2226 0.961 . S
H2241 C2227 0.958 . S
H2242 C2227 0.961 . S
H2243 C2227 0.960 . S
C2244 C2245 1.391 1_556 S
C2244 C2246 1.394 . S
C2244 H2260 0.931 . S
C2245 C2244 1.391 1_554 S
C2245 C2249 1.376 . S
C2246 C2244 1.394 . S
C2246 C2247 1.369 . S
C2246 C2250 1.531 . S
C2247 C2246 1.369 . S
C2247 C2248 1.410 1_556 S
C2247 C2255 1.503 . S
C2248 C2247 1.410 1_554 S
C2248 C2249 1.392 . S
C2248 C2251 1.511 . S
C2249 C2245 1.376 . S
C2249 C2248 1.392 . S
C2249 H2261 0.929 . S
C2250 C2246 1.531 . S
C2250 H2262 0.960 . S
C2250 H2263 0.962 . S
C2250 H2264 0.960 . S
C2251 C2248 1.511 . S
C2251 H2265 0.961 . S
C2251 H2266 0.961 . S
C2251 H2267 0.961 . S
C2252 C2253 1.370 . S
C2252 C2254 1.363 . S
C2252 H2268 0.931 . S
C2253 C2252 1.370 . S
C2253 C2257 1.408 . S
C2254 C2252 1.363 . S
C2254 C2255 1.370 . S
C2254 C2258 1.524 . S
C2255 C2247 1.503 . S
C2255 C2254 1.370 . S
C2255 C2256 1.403 . S
C2256 C2255 1.403 . S
C2256 C2257 1.404 . S
C2256 C2259 1.539 . S
C2257 C2253 1.408 . S
C2257 C2256 1.404 . S
C2257 H2269 0.930 . S
C2258 C2254 1.524 . S
C2258 H2270 0.956 . S
C2258 H2271 0.961 . S
C2258 H2272 0.961 . S
C2259 C2256 1.539 . S
C2259 H2273 0.958 . S
C2259 H2274 0.961 . S
C2259 H2275 0.960 . S
H2260 C2244 0.931 . S
H2261 C2249 0.929 . S
H2262 C2250 0.960 . S
H2263 C2250 0.962 . S
H2264 C2250 0.960 . S
H2265 C2251 0.961 . S
H2266 C2251 0.961 . S
H2267 C2251 0.961 . S
H2268 C2252 0.931 . S
H2269 C2257 0.930 . S
H2270 C2258 0.956 . S
H2271 C2258 0.961 . S
H2272 C2258 0.961 . S
H2273 C2259 0.958 . S
H2274 C2259 0.961 . S
H2275 C2259 0.960 . S
C2276 C2277 1.391 1_556 S
C2276 C2278 1.394 . S
C2276 H2292 0.931 . S
C2277 C2276 1.391 1_554 S
C2277 C2281 1.376 . S
C2278 C2276 1.394 . S
C2278 C2279 1.369 . S
C2278 C2282 1.531 . S
C2279 C2278 1.369 . S
C2279 C2280 1.410 1_556 S
C2279 C2287 1.503 . S
C2280 C2279 1.410 1_554 S
C2280 C2281 1.392 . S
C2280 C2283 1.511 . S
C2281 C2277 1.376 . S
C2281 C2280 1.392 . S
C2281 H2293 0.929 . S
C2282 C2278 1.531 . S
C2282 H2294 0.960 . S
C2282 H2295 0.962 . S
C2282 H2296 0.960 . S
C2283 C2280 1.511 . S
C2283 H2297 0.961 . S
C2283 H2298 0.961 . S
C2283 H2299 0.961 . S
C2284 C2285 1.370 . S
C2284 C2286 1.363 . S
C2284 H2300 0.931 . S
C2285 C2284 1.370 . S
C2285 C2289 1.408 . S
C2286 C2284 1.363 . S
C2286 C2287 1.370 . S
C2286 C2290 1.524 . S
C2287 C2279 1.503 . S
C2287 C2286 1.370 . S
C2287 C2288 1.403 . S
C2288 C2287 1.403 . S
C2288 C2289 1.404 . S
C2288 C2291 1.539 . S
C2289 C2285 1.408 . S
C2289 C2288 1.404 . S
C2289 H2301 0.930 . S
C2290 C2286 1.524 . S
C2290 H2302 0.956 . S
C2290 H2303 0.961 . S
C2290 H2304 0.961 . S
C2291 C2288 1.539 . S
C2291 H2305 0.958 . S
C2291 H2306 0.961 . S
C2291 H2307 0.960 . S
H2292 C2276 0.931 . S
H2293 C2281 0.929 . S
H2294 C2282 0.960 . S
H2295 C2282 0.962 . S
H2296 C2282 0.960 . S
H2297 C2283 0.961 . S
H2298 C2283 0.961 . S
H2299 C2283 0.961 . S
H2300 C2284 0.931 . S
H2301 C2289 0.930 . S
H2302 C2290 0.956 . S
H2303 C2290 0.961 . S
H2304 C2290 0.961 . S
H2305 C2291 0.958 . S
H2306 C2291 0.961 . S
H2307 C2291 0.960 . S
C2308 C2309 1.391 . S
C2308 C2310 1.394 . S
C2308 H2324 0.931 . S
C2309 C2308 1.391 . S
C2309 C2313 1.376 . S
C2310 C2308 1.394 . S
C2310 C2311 1.369 . S
C2310 C2314 1.531 . S
C2311 C2310 1.369 . S
C2311 C2312 1.410 . S
C2311 C2319 1.503 . S
C2312 C2311 1.410 . S
C2312 C2313 1.392 . S
C2312 C2315 1.511 . S
C2313 C2309 1.376 . S
C2313 C2312 1.392 . S
C2313 H2325 0.929 . S
C2314 C2310 1.531 . S
C2314 H2326 0.960 . S
C2314 H2327 0.962 . S
C2314 H2328 0.960 . S
C2315 C2312 1.511 . S
C2315 H2329 0.961 . S
C2315 H2330 0.961 . S
C2315 H2331 0.961 . S
C2316 C2317 1.370 . S
C2316 C2318 1.356 1_554 S
C2316 H2332 0.931 . S
C2317 C2316 1.370 . S
C2317 C2321 1.408 1_554 S
C2318 C2316 1.356 1_556 S
C2318 C2319 1.381 . S
C2318 C2322 1.521 1_556 S
C2319 C2311 1.503 . S
C2319 C2318 1.381 . S
C2319 C2320 1.403 . S
C2320 C2319 1.403 . S
C2320 C2321 1.404 . S
C2320 C2323 1.539 . S
C2321 C2317 1.408 1_556 S
C2321 C2320 1.404 . S
C2321 H2333 0.930 . S
C2322 C2318 1.521 1_554 S
C2322 H2334 0.956 . S
C2322 H2335 0.961 1_554 S
C2322 H2336 0.961 . S
C2323 C2320 1.539 . S
C2323 H2337 0.958 . S
C2323 H2338 0.961 . S
C2323 H2339 0.960 . S
H2324 C2308 0.931 . S
H2325 C2313 0.929 . S
H2326 C2314 0.960 . S
H2327 C2314 0.962 . S
H2328 C2314 0.960 . S
H2329 C2315 0.961 . S
H2330 C2315 0.961 . S
H2331 C2315 0.961 . S
H2332 C2316 0.931 . S
H2333 C2321 0.930 . S
H2334 C2322 0.956 . S
H2335 C2322 0.961 1_556 S
H2336 C2322 0.961 . S
H2337 C2323 0.958 . S
H2338 C2323 0.961 . S
H2339 C2323 0.960 . S
C2340 C2341 1.391 . S
C2340 C2342 1.394 . S
C2340 H2356 0.931 . S
C2341 C2340 1.391 . S
C2341 C2345 1.376 . S
C2342 C2340 1.394 . S
C2342 C2343 1.369 . S
C2342 C2346 1.531 . S
C2343 C2342 1.369 . S
C2343 C2344 1.410 . S
C2343 C2351 1.503 . S
C2344 C2343 1.410 . S
C2344 C2345 1.392 . S
C2344 C2347 1.511 . S
C2345 C2341 1.376 . S
C2345 C2344 1.392 . S
C2345 H2357 0.929 . S
C2346 C2342 1.531 . S
C2346 H2358 0.960 . S
C2346 H2359 0.962 . S
C2346 H2360 0.960 . S
C2347 C2344 1.511 . S
C2347 H2361 0.961 . S
C2347 H2362 0.961 . S
C2347 H2363 0.961 . S
C2348 C2349 1.370 . S
C2348 C2350 1.363 . S
C2348 H2364 0.931 . S
C2349 C2348 1.370 . S
C2349 C2353 1.408 . S
C2350 C2348 1.363 . S
C2350 C2351 1.370 . S
C2350 C2354 1.524 . S
C2351 C2343 1.503 . S
C2351 C2350 1.370 . S
C2351 C2352 1.403 . S
C2352 C2351 1.403 . S
C2352 C2353 1.404 . S
C2352 C2355 1.539 . S
C2353 C2349 1.408 . S
C2353 C2352 1.404 . S
C2353 H2365 0.930 . S
C2354 C2350 1.524 . S
C2354 H2366 0.956 . S
C2354 H2367 0.961 . S
C2354 H2368 0.961 . S
C2355 C2352 1.539 . S
C2355 H2369 0.958 . S
C2355 H2370 0.961 . S
C2355 H2371 0.960 . S
H2356 C2340 0.931 . S
H2357 C2345 0.929 . S
H2358 C2346 0.960 . S
H2359 C2346 0.962 . S
H2360 C2346 0.960 . S
H2361 C2347 0.961 . S
H2362 C2347 0.961 . S
H2363 C2347 0.961 . S
H2364 C2348 0.931 . S
H2365 C2353 0.930 . S
H2366 C2354 0.956 . S
H2367 C2354 0.961 . S
H2368 C2354 0.961 . S
H2369 C2355 0.958 . S
H2370 C2355 0.961 . S
H2371 C2355 0.960 . S
C2372 C2373 1.391 . S
C2372 C2374 1.394 . S
C2372 H2388 0.931 . S
C2373 C2372 1.391 . S
C2373 C2377 1.376 . S
C2374 C2372 1.394 . S
C2374 C2375 1.369 . S
C2374 C2378 1.531 . S
C2375 C2374 1.369 . S
C2375 C2376 1.410 . S
C2375 C2383 1.503 1_545 S
C2376 C2375 1.410 . S
C2376 C2377 1.392 . S
C2376 C2379 1.511 1_545 S
C2377 C2373 1.376 . S
C2377 C2376 1.392 . S
C2377 H2389 0.929 . S
C2378 C2374 1.531 . S
C2378 H2390 0.960 . S
C2378 H2391 0.962 . S
C2378 H2392 0.960 . S
C2379 C2376 1.511 1_565 S
C2379 H2393 0.961 . S
C2379 H2394 0.961 . S
C2379 H2395 0.961 . S
C2380 C2381 1.370 . S
C2380 C2382 1.363 . S
C2380 H2396 0.931 . S
C2381 C2380 1.370 . S
C2381 C2385 1.408 . S
C2382 C2380 1.363 . S
C2382 C2383 1.370 . S
C2382 C2386 1.524 1_565 S
C2383 C2375 1.503 1_565 S
C2383 C2382 1.370 . S
C2383 C2384 1.403 . S
C2384 C2383 1.403 . S
C2384 C2385 1.404 . S
C2384 C2387 1.539 . S
C2385 C2381 1.408 . S
C2385 C2384 1.404 . S
C2385 H2397 0.930 . S
C2386 C2382 1.524 1_545 S
C2386 H2398 0.956 . S
C2386 H2399 0.961 . S
C2386 H2400 0.961 . S
C2387 C2384 1.539 . S
C2387 H2401 0.958 . S
C2387 H2402 0.961 . S
C2387 H2403 0.960 . S
H2388 C2372 0.931 . S
H2389 C2377 0.929 . S
H2390 C2378 0.960 . S
H2391 C2378 0.962 . S
H2392 C2378 0.960 . S
H2393 C2379 0.961 . S
H2394 C2379 0.961 . S
H2395 C2379 0.961 . S
H2396 C2380 0.931 . S
H2397 C2385 0.930 . S
H2398 C2386 0.956 . S
H2399 C2386 0.961 . S
H2400 C2386 0.961 . S
H2401 C2387 0.958 . S
H2402 C2387 0.961 . S
H2403 C2387 0.960 . S
C2404 C2405 1.391 . S
C2404 C2406 1.394 . S
C2404 H2420 0.931 . S
C2405 C2404 1.391 . S
C2405 C2409 1.376 . S
C2406 C2404 1.394 . S
C2406 C2407 1.369 . S
C2406 C2410 1.531 . S
C2407 C2406 1.369 . S
C2407 C2408 1.410 . S
C2407 C2415 1.503 1_655 S
C2408 C2407 1.410 . S
C2408 C2409 1.392 . S
C2408 C2411 1.511 1_655 S
C2409 C2405 1.376 . S
C2409 C2408 1.392 . S
C2409 H2421 0.929 . S
C2410 C2406 1.531 . S
C2410 H2422 0.960 . S
C2410 H2423 0.962 . S
C2410 H2424 0.960 . S
C2411 C2408 1.511 1_455 S
C2411 H2425 0.961 . S
C2411 H2426 0.961 . S
C2411 H2427 0.961 . S
C2412 C2413 1.370 . S
C2412 C2414 1.363 . S
C2412 H2428 0.931 . S
C2413 C2412 1.370 . S
C2413 C2417 1.408 . S
C2414 C2412 1.363 . S
C2414 C2415 1.370 . S
C2414 C2418 1.524 . S
C2415 C2407 1.503 1_455 S
C2415 C2414 1.370 . S
C2415 C2416 1.403 . S
C2416 C2415 1.403 . S
C2416 C2417 1.404 . S
C2416 C2419 1.539 1_455 S
C2417 C2413 1.408 . S
C2417 C2416 1.404 . S
C2417 H2429 0.930 . S
C2418 C2414 1.524 . S
C2418 H2430 0.956 . S
C2418 H2431 0.961 . S
C2418 H2432 0.961 . S
C2419 C2416 1.539 1_655 S
C2419 H2433 0.958 . S
C2419 H2434 0.961 1_655 S
C2419 H2435 0.960 . S
H2420 C2404 0.931 . S
H2421 C2409 0.929 . S
H2422 C2410 0.960 . S
H2423 C2410 0.962 . S
H2424 C2410 0.960 . S
H2425 C2411 0.961 . S
H2426 C2411 0.961 . S
H2427 C2411 0.961 . S
H2428 C2412 0.931 . S
H2429 C2417 0.930 . S
H2430 C2418 0.956 . S
H2431 C2418 0.961 . S
H2432 C2418 0.961 . S
H2433 C2419 0.958 . S
H2434 C2419 0.961 1_455 S
H2435 C2419 0.960 . S
C2436 C2437 1.391 . S
C2436 C2438 1.394 . S
C2436 H2452 0.931 . S
C2437 C2436 1.391 . S
C2437 C2441 1.376 . S
C2438 C2436 1.394 . S
C2438 C2439 1.369 . S
C2438 C2442 1.531 . S
C2439 C2438 1.369 . S
C2439 C2440 1.410 . S
C2439 C2447 1.503 . S
C2440 C2439 1.410 . S
C2440 C2441 1.392 . S
C2440 C2443 1.511 . S
C2441 C2437 1.376 . S
C2441 C2440 1.392 . S
C2441 H2453 0.929 . S
C2442 C2438 1.531 . S
C2442 H2454 0.960 . S
C2442 H2455 0.962 . S
C2442 H2456 0.960 . S
C2443 C2440 1.511 . S
C2443 H2457 0.961 . S
C2443 H2458 0.961 . S
C2443 H2459 0.961 . S
C2444 C2445 1.370 . S
C2444 C2446 1.363 . S
C2444 H2460 0.931 . S
C2445 C2444 1.370 . S
C2445 C2449 1.408 . S
C2446 C2444 1.363 . S
C2446 C2447 1.370 . S
C2446 C2450 1.524 . S
C2447 C2439 1.503 . S
C2447 C2446 1.370 . S
C2447 C2448 1.403 . S
C2448 C2447 1.403 . S
C2448 C2449 1.404 . S
C2448 C2451 1.539 . S
C2449 C2445 1.408 . S
C2449 C2448 1.404 . S
C2449 H2461 0.930 . S
C2450 C2446 1.524 . S
C2450 H2462 0.956 . S
C2450 H2463 0.961 . S
C2450 H2464 0.961 . S
C2451 C2448 1.539 . S
C2451 H2465 0.958 . S
C2451 H2466 0.961 . S
C2451 H2467 0.960 . S
H2452 C2436 0.931 . S
H2453 C2441 0.929 . S
H2454 C2442 0.960 . S
H2455 C2442 0.962 . S
H2456 C2442 0.960 . S
H2457 C2443 0.961 . S
H2458 C2443 0.961 . S
H2459 C2443 0.961 . S
H2460 C2444 0.931 . S
H2461 C2449 0.930 . S
H2462 C2450 0.956 . S
H2463 C2450 0.961 . S
H2464 C2450 0.961 . S
H2465 C2451 0.958 . S
H2466 C2451 0.961 . S
H2467 C2451 0.960 . S
C2468 C2469 1.391 . S
C2468 C2470 1.394 . S
C2468 H2484 0.931 . S
C2469 C2468 1.391 . S
C2469 C2473 1.376 . S
C2470 C2468 1.394 . S
C2470 C2471 1.369 . S
C2470 C2474 1.531 1_565 S
C2471 C2470 1.369 . S
C2471 C2472 1.410 . S
C2471 C2479 1.503 1_565 S
C2472 C2471 1.410 . S
C2472 C2473 1.392 . S
C2472 C2475 1.511 . S
C2473 C2469 1.376 . S
C2473 C2472 1.392 . S
C2473 H2485 0.929 . S
C2474 C2470 1.531 1_545 S
C2474 H2486 0.960 . S
C2474 H2487 0.962 . S
C2474 H2488 0.960 . S
C2475 C2472 1.511 . S
C2475 H2489 0.961 . S
C2475 H2490 0.961 . S
C2475 H2491 0.961 . S
C2476 C2477 1.370 . S
C2476 C2478 1.363 . S
C2476 H2492 0.931 . S
C2477 C2476 1.370 . S
C2477 C2481 1.408 . S
C2478 C2476 1.363 . S
C2478 C2479 1.370 . S
C2478 C2482 1.524 1_545 S
C2479 C2471 1.503 1_545 S
C2479 C2478 1.370 . S
C2479 C2480 1.403 . S
C2480 C2479 1.403 . S
C2480 C2481 1.404 . S
C2480 C2483 1.539 . S
C2481 C2477 1.408 . S
C2481 C2480 1.404 . S
C2481 H2493 0.930 . S
C2482 C2478 1.524 1_565 S
C2482 H2494 0.956 . S
C2482 H2495 0.961 . S
C2482 H2496 0.961 . S
C2483 C2480 1.539 . S
C2483 H2497 0.958 . S
C2483 H2498 0.961 . S
C2483 H2499 0.960 . S
H2484 C2468 0.931 . S
H2485 C2473 0.929 . S
H2486 C2474 0.960 . S
H2487 C2474 0.962 . S
H2488 C2474 0.960 . S
H2489 C2475 0.961 . S
H2490 C2475 0.961 . S
H2491 C2475 0.961 . S
H2492 C2476 0.931 . S
H2493 C2481 0.930 . S
H2494 C2482 0.956 . S
H2495 C2482 0.961 . S
H2496 C2482 0.961 . S
H2497 C2483 0.958 . S
H2498 C2483 0.961 . S
H2499 C2483 0.960 . S
C2500 C2501 1.391 . S
C2500 C2502 1.394 . S
C2500 H2516 0.931 . S
C2501 C2500 1.391 . S
C2501 C2505 1.376 . S
C2502 C2500 1.394 . S
C2502 C2503 1.369 . S
C2502 C2506 1.531 1_655 S
C2503 C2502 1.369 . S
C2503 C2504 1.410 . S
C2503 C2511 1.503 1_655 S
C2504 C2503 1.410 . S
C2504 C2505 1.392 . S
C2504 C2507 1.511 . S
C2505 C2501 1.376 . S
C2505 C2504 1.392 . S
C2505 H2517 0.929 . S
C2506 C2502 1.531 1_455 S
C2506 H2518 0.960 . S
C2506 H2519 0.962 . S
C2506 H2520 0.960 . S
C2507 C2504 1.511 . S
C2507 H2521 0.961 . S
C2507 H2522 0.961 . S
C2507 H2523 0.961 . S
C2508 C2509 1.370 . S
C2508 C2510 1.363 . S
C2508 H2524 0.931 . S
C2509 C2508 1.370 . S
C2509 C2513 1.408 . S
C2510 C2508 1.363 . S
C2510 C2511 1.370 . S
C2510 C2514 1.519 1_455 S
C2511 C2503 1.503 1_455 S
C2511 C2510 1.370 . S
C2511 C2512 1.403 . S
C2512 C2511 1.403 . S
C2512 C2513 1.404 . S
C2512 C2515 1.539 . S
C2513 C2509 1.408 . S
C2513 C2512 1.404 . S
C2513 H2525 0.930 . S
C2514 C2510 1.519 1_655 S
C2514 H2526 0.928 1_655 S
C2514 H2527 1.016 . S
C2514 H2528 0.930 1_655 S
C2515 C2512 1.539 . S
C2515 H2529 0.958 . S
C2515 H2530 0.961 . S
C2515 H2531 0.960 . S
H2516 C2500 0.931 . S
H2517 C2505 0.929 . S
H2518 C2506 0.960 . S
H2519 C2506 0.962 . S
H2520 C2506 0.960 . S
H2521 C2507 0.961 . S
H2522 C2507 0.961 . S
H2523 C2507 0.961 . S
H2524 C2508 0.931 . S
H2525 C2513 0.930 . S
H2526 C2514 0.928 1_455 S
H2527 C2514 1.016 . S
H2528 C2514 0.930 1_455 S
H2529 C2515 0.958 . S
H2530 C2515 0.961 . S
H2531 C2515 0.960 . S
C2532 C2533 1.391 . S
C2532 C2534 1.394 . S
C2532 H2548 0.931 . S
C2533 C2532 1.391 . S
C2533 C2537 1.376 . S
C2534 C2532 1.394 . S
C2534 C2535 1.369 . S
C2534 C2538 1.531 . S
C2535 C2534 1.369 . S
C2535 C2536 1.410 . S
C2535 C2543 1.503 . S
C2536 C2535 1.410 . S
C2536 C2537 1.392 . S
C2536 C2539 1.511 . S
C2537 C2533 1.376 . S
C2537 C2536 1.392 . S
C2537 H2549 0.929 . S
C2538 C2534 1.531 . S
C2538 H2550 0.960 . S
C2538 H2551 0.962 . S
C2538 H2552 0.960 . S
C2539 C2536 1.511 . S
C2539 H2553 0.961 . S
C2539 H2554 0.961 . S
C2539 H2555 0.961 . S
C2540 C2541 1.370 . S
C2540 C2542 1.363 . S
C2540 H2556 0.931 . S
C2541 C2540 1.370 . S
C2541 C2545 1.408 . S
C2542 C2540 1.363 . S
C2542 C2543 1.370 . S
C2542 C2546 1.524 . S
C2543 C2535 1.503 . S
C2543 C2542 1.370 . S
C2543 C2544 1.403 . S
C2544 C2543 1.403 . S
C2544 C2545 1.404 . S
C2544 C2547 1.539 . S
C2545 C2541 1.408 . S
C2545 C2544 1.404 . S
C2545 H2557 0.930 . S
C2546 C2542 1.524 . S
C2546 H2558 0.956 . S
C2546 H2559 0.961 . S
C2546 H2560 0.961 . S
C2547 C2544 1.539 . S
C2547 H2561 0.958 . S
C2547 H2562 0.961 . S
C2547 H2563 0.960 . S
H2548 C2532 0.931 . S
H2549 C2537 0.929 . S
H2550 C2538 0.960 . S
H2551 C2538 0.962 . S
H2552 C2538 0.960 . S
H2553 C2539 0.961 . S
H2554 C2539 0.961 . S
H2555 C2539 0.961 . S
H2556 C2540 0.931 . S
H2557 C2545 0.930 . S
H2558 C2546 0.956 . S
H2559 C2546 0.961 . S
H2560 C2546 0.961 . S
H2561 C2547 0.958 . S
H2562 C2547 0.961 . S
H2563 C2547 0.960 . S
C2564 C2565 1.391 . S
C2564 C2566 1.394 . S
C2564 H2580 0.931 . S
C2565 C2564 1.391 . S
C2565 C2569 1.376 . S
C2566 C2564 1.394 . S
C2566 C2567 1.369 . S
C2566 C2570 1.531 . S
C2567 C2566 1.369 . S
C2567 C2568 1.410 . S
C2567 C2575 1.503 . S
C2568 C2567 1.410 . S
C2568 C2569 1.392 . S
C2568 C2571 1.511 . S
C2569 C2565 1.376 . S
C2569 C2568 1.392 . S
C2569 H2581 0.929 . S
C2570 C2566 1.531 . S
C2570 H2582 0.960 . S
C2570 H2583 0.962 . S
C2570 H2584 0.960 . S
C2571 C2568 1.511 . S
C2571 H2585 0.961 . S
C2571 H2586 0.961 . S
C2571 H2587 0.961 . S
C2572 C2573 1.370 . S
C2572 C2574 1.363 . S
C2572 H2588 0.931 . S
C2573 C2572 1.370 . S
C2573 C2577 1.408 . S
C2574 C2572 1.363 . S
C2574 C2575 1.370 . S
C2574 C2578 1.524 . S
C2575 C2567 1.503 . S
C2575 C2574 1.370 . S
C2575 C2576 1.403 . S
C2576 C2575 1.403 . S
C2576 C2577 1.404 . S
C2576 C2579 1.539 . S
C2577 C2573 1.408 . S
C2577 C2576 1.404 . S
C2577 H2589 0.930 . S
C2578 C2574 1.524 . S
C2578 H2590 0.956 . S
C2578 H2591 0.961 . S
C2578 H2592 0.961 . S
C2579 C2576 1.539 . S
C2579 H2593 0.958 . S
C2579 H2594 0.961 . S
C2579 H2595 0.960 . S
H2580 C2564 0.931 . S
H2581 C2569 0.929 . S
H2582 C2570 0.960 . S
H2583 C2570 0.962 . S
H2584 C2570 0.960 . S
H2585 C2571 0.961 . S
H2586 C2571 0.961 . S
H2587 C2571 0.961 . S
H2588 C2572 0.931 . S
H2589 C2577 0.930 . S
H2590 C2578 0.956 . S
H2591 C2578 0.961 . S
H2592 C2578 0.961 . S
H2593 C2579 0.958 . S
H2594 C2579 0.961 . S
H2595 C2579 0.960 . S
C2596 C2597 1.391 . S
C2596 C2598 1.394 . S
C2596 H2612 0.931 . S
C2597 C2596 1.391 . S
C2597 C2601 1.376 . S
C2598 C2596 1.394 . S
C2598 C2599 1.369 . S
C2598 C2602 1.531 . S
C2599 C2598 1.369 . S
C2599 C2600 1.410 . S
C2599 C2607 1.503 . S
C2600 C2599 1.410 . S
C2600 C2601 1.392 . S
C2600 C2603 1.511 . S
C2601 C2597 1.376 . S
C2601 C2600 1.392 . S
C2601 H2613 0.929 . S
C2602 C2598 1.531 . S
C2602 H2614 0.960 . S
C2602 H2615 0.962 . S
C2602 H2616 0.960 . S
C2603 C2600 1.511 . S
C2603 H2617 0.961 . S
C2603 H2618 0.961 . S
C2603 H2619 0.961 . S
C2604 C2605 1.370 . S
C2604 C2606 1.363 . S
C2604 H2620 0.931 . S
C2605 C2604 1.370 . S
C2605 C2609 1.408 . S
C2606 C2604 1.363 . S
C2606 C2607 1.370 . S
C2606 C2610 1.524 . S
C2607 C2599 1.503 . S
C2607 C2606 1.370 . S
C2607 C2608 1.403 . S
C2608 C2607 1.403 . S
C2608 C2609 1.404 . S
C2608 C2611 1.539 . S
C2609 C2605 1.408 . S
C2609 C2608 1.404 . S
C2609 H2621 0.930 . S
C2610 C2606 1.524 . S
C2610 H2622 0.956 . S
C2610 H2623 0.961 . S
C2610 H2624 0.961 . S
C2611 C2608 1.539 . S
C2611 H2625 0.958 . S
C2611 H2626 0.961 . S
C2611 H2627 0.960 . S
H2612 C2596 0.931 . S
H2613 C2601 0.929 . S
H2614 C2602 0.960 . S
H2615 C2602 0.962 . S
H2616 C2602 0.960 . S
H2617 C2603 0.961 . S
H2618 C2603 0.961 . S
H2619 C2603 0.961 . S
H2620 C2604 0.931 . S
H2621 C2609 0.930 . S
H2622 C2610 0.956 . S
H2623 C2610 0.961 . S
H2624 C2610 0.961 . S
H2625 C2611 0.958 . S
H2626 C2611 0.961 . S
H2627 C2611 0.960 . S
C2628 C2629 1.391 . S
C2628 C2630 1.394 . S
C2628 H2644 0.931 . S
C2629 C2628 1.391 . S
C2629 C2633 1.376 . S
C2630 C2628 1.394 . S
C2630 C2631 1.369 . S
C2630 C2634 1.531 . S
C2631 C2630 1.369 . S
C2631 C2632 1.410 . S
C2631 C2639 1.503 . S
C2632 C2631 1.410 . S
C2632 C2633 1.392 . S
C2632 C2635 1.511 . S
C2633 C2629 1.376 . S
C2633 C2632 1.392 . S
C2633 H2645 0.929 . S
C2634 C2630 1.531 . S
C2634 H2646 0.960 . S
C2634 H2647 0.962 . S
C2634 H2648 0.960 . S
C2635 C2632 1.511 . S
C2635 H2649 0.961 . S
C2635 H2650 0.961 . S
C2635 H2651 0.961 . S
C2636 C2637 1.370 . S
C2636 C2638 1.363 . S
C2636 H2652 0.931 . S
C2637 C2636 1.370 . S
C2637 C2641 1.408 . S
C2638 C2636 1.363 . S
C2638 C2639 1.370 . S
C2638 C2642 1.524 . S
C2639 C2631 1.503 . S
C2639 C2638 1.370 . S
C2639 C2640 1.403 . S
C2640 C2639 1.403 . S
C2640 C2641 1.404 . S
C2640 C2643 1.539 . S
C2641 C2637 1.408 . S
C2641 C2640 1.404 . S
C2641 H2653 0.930 1_554 S
C2642 C2638 1.524 . S
C2642 H2654 0.956 . S
C2642 H2655 0.961 . S
C2642 H2656 0.961 . S
C2643 C2640 1.539 . S
C2643 H2657 0.958 . S
C2643 H2658 0.961 . S
C2643 H2659 0.960 . S
H2644 C2628 0.931 . S
H2645 C2633 0.929 . S
H2646 C2634 0.960 . S
H2647 C2634 0.962 . S
H2648 C2634 0.960 . S
H2649 C2635 0.961 . S
H2650 C2635 0.961 . S
H2651 C2635 0.961 . S
H2652 C2636 0.931 . S
H2653 C2641 0.930 1_556 S
H2654 C2642 0.956 . S
H2655 C2642 0.961 . S
H2656 C2642 0.961 . S
H2657 C2643 0.958 . S
H2658 C2643 0.961 . S
H2659 C2643 0.960 . S
C2660 C2661 1.391 . S
C2660 C2662 1.394 . S
C2660 H2676 0.931 . S
C2661 C2660 1.391 . S
C2661 C2665 1.376 1_554 S
C2662 C2660 1.394 . S
C2662 C2663 1.369 . S
C2662 C2666 1.531 . S
C2663 C2662 1.369 . S
C2663 C2664 1.410 . S
C2663 C2671 1.503 . S
C2664 C2663 1.410 . S
C2664 C2665 1.392 1_554 S
C2664 C2667 1.511 . S
C2665 C2661 1.376 1_556 S
C2665 C2664 1.392 1_556 S
C2665 H2677 0.929 . S
C2666 C2662 1.531 . S
C2666 H2678 0.960 . S
C2666 H2679 0.962 . S
C2666 H2680 0.960 . S
C2667 C2664 1.511 . S
C2667 H2681 0.961 1_554 S
C2667 H2682 0.961 . S
C2667 H2683 0.961 1_554 S
C2668 C2669 1.370 . S
C2668 C2670 1.363 . S
C2668 H2684 0.931 . S
C2669 C2668 1.370 . S
C2669 C2673 1.408 . S
C2670 C2668 1.363 . S
C2670 C2671 1.370 . S
C2670 C2674 1.524 . S
C2671 C2663 1.503 . S
C2671 C2670 1.370 . S
C2671 C2672 1.403 . S
C2672 C2671 1.403 . S
C2672 C2673 1.404 . S
C2672 C2675 1.539 . S
C2673 C2669 1.408 . S
C2673 C2672 1.404 . S
C2673 H2685 0.930 . S
C2674 C2670 1.524 . S
C2674 H2686 0.956 . S
C2674 H2687 0.961 . S
C2674 H2688 0.961 . S
C2675 C2672 1.539 . S
C2675 H2689 0.958 . S
C2675 H2690 0.961 . S
C2675 H2691 0.960 . S
H2676 C2660 0.931 . S
H2677 C2665 0.929 . S
H2678 C2666 0.960 . S
H2679 C2666 0.962 . S
H2680 C2666 0.960 . S
H2681 C2667 0.961 1_556 S
H2682 C2667 0.961 . S
H2683 C2667 0.961 1_556 S
H2684 C2668 0.931 . S
H2685 C2673 0.930 . S
H2686 C2674 0.956 . S
H2687 C2674 0.961 . S
H2688 C2674 0.961 . S
H2689 C2675 0.958 . S
H2690 C2675 0.961 . S
H2691 C2675 0.960 . S
C2692 C2693 1.391 . S
C2692 C2694 1.394 . S
C2692 H2708 0.931 . S
C2693 C2692 1.391 . S
C2693 C2697 1.376 . S
C2694 C2692 1.394 . S
C2694 C2695 1.369 . S
C2694 C2698 1.531 . S
C2695 C2694 1.369 . S
C2695 C2696 1.410 . S
C2695 C2703 1.503 . S
C2696 C2695 1.410 . S
C2696 C2697 1.392 . S
C2696 C2699 1.511 . S
C2697 C2693 1.376 . S
C2697 C2696 1.392 . S
C2697 H2709 0.929 . S
C2698 C2694 1.531 . S
C2698 H2710 0.960 . S
C2698 H2711 0.962 . S
C2698 H2712 0.960 . S
C2699 C2696 1.511 . S
C2699 H2713 0.961 . S
C2699 H2714 0.961 . S
C2699 H2715 0.961 . S
C2700 C2701 1.370 . S
C2700 C2702 1.363 . S
C2700 H2716 0.931 . S
C2701 C2700 1.370 . S
C2701 C2705 1.408 . S
C2702 C2700 1.363 . S
C2702 C2703 1.370 . S
C2702 C2706 1.524 . S
C2703 C2695 1.503 . S
C2703 C2702 1.370 . S
C2703 C2704 1.403 . S
C2704 C2703 1.403 . S
C2704 C2705 1.404 . S
C2704 C2707 1.539 . S
C2705 C2701 1.408 . S
C2705 C2704 1.404 . S
C2705 H2717 0.930 . S
C2706 C2702 1.524 . S
C2706 H2718 0.956 . S
C2706 H2719 0.961 . S
C2706 H2720 0.961 . S
C2707 C2704 1.539 . S
C2707 H2721 0.958 . S
C2707 H2722 0.961 . S
C2707 H2723 0.960 . S
H2708 C2692 0.931 . S
H2709 C2697 0.929 . S
H2710 C2698 0.960 . S
H2711 C2698 0.962 . S
H2712 C2698 0.960 . S
H2713 C2699 0.961 . S
H2714 C2699 0.961 . S
H2715 C2699 0.961 . S
H2716 C2700 0.931 . S
H2717 C2705 0.930 . S
H2718 C2706 0.956 . S
H2719 C2706 0.961 . S
H2720 C2706 0.961 . S
H2721 C2707 0.958 . S
H2722 C2707 0.961 . S
H2723 C2707 0.960 . S
C2724 C2725 1.391 . S
C2724 C2726 1.394 . S
C2724 H2740 0.931 . S
C2725 C2724 1.391 . S
C2725 C2729 1.376 . S
C2726 C2724 1.394 . S
C2726 C2727 1.369 . S
C2726 C2730 1.531 . S
C2727 C2726 1.369 . S
C2727 C2728 1.410 . S
C2727 C2735 1.503 . S
C2728 C2727 1.410 . S
C2728 C2729 1.392 . S
C2728 C2731 1.511 . S
C2729 C2725 1.376 . S
C2729 C2728 1.392 . S
C2729 H2741 0.929 . S
C2730 C2726 1.531 . S
C2730 H2742 0.960 . S
C2730 H2743 0.962 . S
C2730 H2744 0.960 . S
C2731 C2728 1.511 . S
C2731 H2745 0.961 . S
C2731 H2746 0.961 . S
C2731 H2747 0.961 . S
C2732 C2733 1.370 . S
C2732 C2734 1.363 . S
C2732 H2748 0.931 . S
C2733 C2732 1.370 . S
C2733 C2737 1.408 1_554 S
C2734 C2732 1.363 . S
C2734 C2735 1.370 1_554 S
C2734 C2738 1.524 . S
C2735 C2727 1.503 . S
C2735 C2734 1.370 1_556 S
C2735 C2736 1.403 . S
C2736 C2735 1.403 . S
C2736 C2737 1.404 . S
C2736 C2739 1.539 . S
C2737 C2733 1.408 1_556 S
C2737 C2736 1.404 . S
C2737 H2749 0.930 . S
C2738 C2734 1.524 . S
C2738 H2750 0.956 . S
C2738 H2751 0.961 . S
C2738 H2752 0.961 . S
C2739 C2736 1.539 . S
C2739 H2753 0.958 . S
C2739 H2754 0.961 . S
C2739 H2755 0.960 . S
H2740 C2724 0.931 . S
H2741 C2729 0.929 . S
H2742 C2730 0.960 . S
H2743 C2730 0.962 . S
H2744 C2730 0.960 . S
H2745 C2731 0.961 . S
H2746 C2731 0.961 . S
H2747 C2731 0.961 . S
H2748 C2732 0.931 . S
H2749 C2737 0.930 . S
H2750 C2738 0.956 . S
H2751 C2738 0.961 . S
H2752 C2738 0.961 . S
H2753 C2739 0.958 . S
H2754 C2739 0.961 . S
H2755 C2739 0.960 . S
C2756 C2757 1.391 . S
C2756 C2758 1.394 . S
C2756 H2772 0.931 . S
C2757 C2756 1.391 . S
C2757 C2761 1.376 1_554 S
C2758 C2756 1.394 . S
C2758 C2759 1.369 1_554 S
C2758 C2762 1.531 . S
C2759 C2758 1.369 1_556 S
C2759 C2760 1.410 . S
C2759 C2767 1.503 . S
C2760 C2759 1.410 . S
C2760 C2761 1.392 . S
C2760 C2763 1.511 . S
C2761 C2757 1.376 1_556 S
C2761 C2760 1.392 . S
C2761 H2773 0.929 . S
C2762 C2758 1.531 . S
C2762 H2774 0.960 . S
C2762 H2775 0.962 . S
C2762 H2776 0.960 . S
C2763 C2760 1.511 . S
C2763 H2777 0.961 . S
C2763 H2778 0.961 . S
C2763 H2779 0.961 . S
C2764 C2765 1.370 . S
C2764 C2766 1.363 . S
C2764 H2780 0.931 . S
C2765 C2764 1.370 . S
C2765 C2769 1.408 . S
C2766 C2764 1.363 . S
C2766 C2767 1.370 . S
C2766 C2770 1.524 . S
C2767 C2759 1.503 . S
C2767 C2766 1.370 . S
C2767 C2768 1.403 . S
C2768 C2767 1.403 . S
C2768 C2769 1.404 . S
C2768 C2771 1.539 . S
C2769 C2765 1.408 . S
C2769 C2768 1.404 . S
C2769 H2781 0.930 . S
C2770 C2766 1.524 . S
C2770 H2782 0.956 . S
C2770 H2783 0.961 . S
C2770 H2784 0.961 . S
C2771 C2768 1.539 . S
C2771 H2785 0.958 . S
C2771 H2786 0.961 . S
C2771 H2787 0.960 . S
H2772 C2756 0.931 . S
H2773 C2761 0.929 . S
H2774 C2762 0.960 . S
H2775 C2762 0.962 . S
H2776 C2762 0.960 . S
H2777 C2763 0.961 . S
H2778 C2763 0.961 . S
H2779 C2763 0.961 . S
H2780 C2764 0.931 . S
H2781 C2769 0.930 . S
H2782 C2770 0.956 . S
H2783 C2770 0.961 . S
H2784 C2770 0.961 . S
H2785 C2771 0.958 . S
H2786 C2771 0.961 . S
H2787 C2771 0.960 . S
C2788 C2789 1.391 . S
C2788 C2790 1.394 . S
C2788 H2804 0.931 . S
C2789 C2788 1.391 . S
C2789 C2793 1.376 . S
C2790 C2788 1.394 . S
C2790 C2791 1.369 . S
C2790 C2794 1.531 . S
C2791 C2790 1.369 . S
C2791 C2792 1.410 . S
C2791 C2799 1.503 . S
C2792 C2791 1.410 . S
C2792 C2793 1.392 . S
C2792 C2795 1.511 . S
C2793 C2789 1.376 . S
C2793 C2792 1.392 . S
C2793 H2805 0.929 . S
C2794 C2790 1.531 . S
C2794 H2806 0.960 . S
C2794 H2807 0.962 . S
C2794 H2808 0.960 . S
C2795 C2792 1.511 . S
C2795 H2809 0.961 1_556 S
C2795 H2810 0.961 1_556 S
C2795 H2811 0.961 . S
C2796 C2797 1.370 . S
C2796 C2798 1.363 . S
C2796 H2812 0.931 . S
C2797 C2796 1.370 . S
C2797 C2801 1.408 . S
C2798 C2796 1.363 . S
C2798 C2799 1.370 1_554 S
C2798 C2802 1.524 . S
C2799 C2791 1.503 . S
C2799 C2798 1.370 1_556 S
C2799 C2800 1.403 . S
C2800 C2799 1.403 . S
C2800 C2801 1.404 1_556 S
C2800 C2803 1.539 . S
C2801 C2797 1.408 . S
C2801 C2800 1.404 1_554 S
C2801 H2813 0.930 . S
C2802 C2798 1.524 . S
C2802 H2814 0.956 1_554 S
C2802 H2815 0.961 . S
C2802 H2816 0.961 . S
C2803 C2800 1.539 . S
C2803 H2817 0.958 . S
C2803 H2818 0.961 . S
C2803 H2819 0.960 . S
H2804 C2788 0.931 . S
H2805 C2793 0.929 . S
H2806 C2794 0.960 . S
H2807 C2794 0.962 . S
H2808 C2794 0.960 . S
H2809 C2795 0.961 1_554 S
H2810 C2795 0.961 1_554 S
H2811 C2795 0.961 . S
H2812 C2796 0.931 . S
H2813 C2801 0.930 . S
H2814 C2802 0.956 1_556 S
H2815 C2802 0.961 . S
H2816 C2802 0.961 . S
H2817 C2803 0.958 . S
H2818 C2803 0.961 . S
H2819 C2803 0.960 . S
C2820 C2821 1.391 . S
C2820 C2822 1.394 . S
C2820 H2836 0.931 . S
C2821 C2820 1.391 . S
C2821 C2825 1.376 . S
C2822 C2820 1.394 . S
C2822 C2823 1.369 . S
C2822 C2826 1.531 . S
C2823 C2822 1.369 . S
C2823 C2824 1.410 . S
C2823 C2831 1.503 . S
C2824 C2823 1.410 . S
C2824 C2825 1.392 . S
C2824 C2827 1.511 . S
C2825 C2821 1.376 . S
C2825 C2824 1.392 . S
C2825 H2837 0.929 . S
C2826 C2822 1.531 . S
C2826 H2838 0.960 . S
C2826 H2839 0.962 . S
C2826 H2840 0.960 . S
C2827 C2824 1.511 . S
C2827 H2841 0.961 . S
C2827 H2842 0.961 . S
C2827 H2843 0.961 . S
C2828 C2829 1.370 . S
C2828 C2830 1.363 . S
C2828 H2844 0.931 . S
C2829 C2828 1.370 . S
C2829 C2833 1.408 . S
C2830 C2828 1.363 . S
C2830 C2831 1.370 . S
C2830 C2834 1.524 . S
C2831 C2823 1.503 . S
C2831 C2830 1.370 . S
C2831 C2832 1.403 . S
C2832 C2831 1.403 . S
C2832 C2833 1.404 . S
C2832 C2835 1.539 . S
C2833 C2829 1.408 . S
C2833 C2832 1.404 . S
C2833 H2845 0.930 . S
C2834 C2830 1.524 . S
C2834 H2846 0.956 . S
C2834 H2847 0.961 . S
C2834 H2848 0.961 . S
C2835 C2832 1.539 . S
C2835 H2849 0.958 . S
C2835 H2850 0.961 . S
C2835 H2851 0.960 . S
H2836 C2820 0.931 . S
H2837 C2825 0.929 . S
H2838 C2826 0.960 . S
H2839 C2826 0.962 . S
H2840 C2826 0.960 . S
H2841 C2827 0.961 . S
H2842 C2827 0.961 . S
H2843 C2827 0.961 . S
H2844 C2828 0.931 . S
H2845 C2833 0.930 . S
H2846 C2834 0.956 . S
H2847 C2834 0.961 . S
H2848 C2834 0.961 . S
H2849 C2835 0.958 . S
H2850 C2835 0.961 . S
H2851 C2835 0.960 . S
C2852 C2853 1.391 . S
C2852 C2854 1.394 . S
C2852 H2868 0.931 . S
C2853 C2852 1.391 . S
C2853 C2857 1.376 . S
C2854 C2852 1.394 . S
C2854 C2855 1.369 . S
C2854 C2858 1.531 . S
C2855 C2854 1.369 . S
C2855 C2856 1.410 . S
C2855 C2863 1.503 . S
C2856 C2855 1.410 . S
C2856 C2857 1.392 . S
C2856 C2859 1.511 . S
C2857 C2853 1.376 . S
C2857 C2856 1.392 . S
C2857 H2869 0.929 . S
C2858 C2854 1.531 . S
C2858 H2870 0.960 . S
C2858 H2871 0.962 . S
C2858 H2872 0.960 . S
C2859 C2856 1.511 . S
C2859 H2873 0.961 . S
C2859 H2874 0.961 . S
C2859 H2875 0.961 . S
C2860 C2861 1.370 . S
C2860 C2862 1.363 . S
C2860 H2876 0.931 . S
C2861 C2860 1.370 . S
C2861 C2865 1.408 . S
C2862 C2860 1.363 . S
C2862 C2863 1.370 . S
C2862 C2866 1.524 . S
C2863 C2855 1.503 . S
C2863 C2862 1.370 . S
C2863 C2864 1.403 . S
C2864 C2863 1.403 . S
C2864 C2865 1.404 . S
C2864 C2867 1.539 . S
C2865 C2861 1.408 . S
C2865 C2864 1.404 . S
C2865 H2877 0.930 . S
C2866 C2862 1.524 . S
C2866 H2878 0.956 . S
C2866 H2879 0.961 . S
C2866 H2880 0.961 . S
C2867 C2864 1.539 . S
C2867 H2881 0.958 . S
C2867 H2882 0.961 . S
C2867 H2883 0.960 . S
H2868 C2852 0.931 . S
H2869 C2857 0.929 . S
H2870 C2858 0.960 . S
H2871 C2858 0.962 . S
H2872 C2858 0.960 . S
H2873 C2859 0.961 . S
H2874 C2859 0.961 . S
H2875 C2859 0.961 . S
H2876 C2860 0.931 . S
H2877 C2865 0.930 . S
H2878 C2866 0.956 . S
H2879 C2866 0.961 . S
H2880 C2866 0.961 . S
H2881 C2867 0.958 . S
H2882 C2867 0.961 . S
H2883 C2867 0.960 . S
C2884 C2885 1.391 . S
C2884 C2886 1.394 . S
C2884 H2900 0.931 . S
C2885 C2884 1.391 . S
C2885 C2889 1.376 . S
C2886 C2884 1.394 . S
C2886 C2887 1.369 . S
C2886 C2890 1.531 . S
C2887 C2886 1.369 . S
C2887 C2888 1.410 . S
C2887 C2895 1.503 . S
C2888 C2887 1.410 . S
C2888 C2889 1.392 . S
C2888 C2891 1.511 . S
C2889 C2885 1.376 . S
C2889 C2888 1.392 . S
C2889 H2901 0.929 . S
C2890 C2886 1.531 . S
C2890 H2902 0.960 . S
C2890 H2903 0.962 . S
C2890 H2904 0.960 . S
C2891 C2888 1.511 . S
C2891 H2905 0.961 . S
C2891 H2906 0.961 . S
C2891 H2907 0.961 . S
C2892 C2893 1.370 . S
C2892 C2894 1.363 . S
C2892 H2908 0.931 . S
C2893 C2892 1.370 . S
C2893 C2897 1.408 . S
C2894 C2892 1.363 . S
C2894 C2895 1.370 . S
C2894 C2898 1.524 . S
C2895 C2887 1.503 . S
C2895 C2894 1.370 . S
C2895 C2896 1.403 . S
C2896 C2895 1.403 . S
C2896 C2897 1.404 . S
C2896 C2899 1.539 . S
C2897 C2893 1.408 . S
C2897 C2896 1.404 . S
C2897 H2909 0.930 . S
C2898 C2894 1.524 . S
C2898 H2910 0.956 . S
C2898 H2911 0.961 . S
C2898 H2912 0.961 . S
C2899 C2896 1.539 . S
C2899 H2913 0.958 . S
C2899 H2914 0.961 . S
C2899 H2915 0.960 . S
H2900 C2884 0.931 . S
H2901 C2889 0.929 . S
H2902 C2890 0.960 . S
H2903 C2890 0.962 . S
H2904 C2890 0.960 . S
H2905 C2891 0.961 . S
H2906 C2891 0.961 . S
H2907 C2891 0.961 . S
H2908 C2892 0.931 . S
H2909 C2897 0.930 . S
H2910 C2898 0.956 . S
H2911 C2898 0.961 . S
H2912 C2898 0.961 . S
H2913 C2899 0.958 . S
H2914 C2899 0.961 . S
H2915 C2899 0.960 . S
C2916 C2917 1.391 . S
C2916 C2918 1.394 . S
C2916 H2932 0.931 . S
C2917 C2916 1.391 . S
C2917 C2921 1.376 . S
C2918 C2916 1.394 . S
C2918 C2919 1.369 . S
C2918 C2922 1.531 . S
C2919 C2918 1.369 . S
C2919 C2920 1.410 . S
C2919 C2927 1.503 . S
C2920 C2919 1.410 . S
C2920 C2921 1.392 . S
C2920 C2923 1.511 . S
C2921 C2917 1.376 . S
C2921 C2920 1.392 . S
C2921 H2933 0.929 . S
C2922 C2918 1.531 . S
C2922 H2934 0.960 . S
C2922 H2935 0.962 . S
C2922 H2936 0.960 . S
C2923 C2920 1.511 . S
C2923 H2937 0.961 . S
C2923 H2938 0.961 . S
C2923 H2939 0.961 . S
C2924 C2925 1.370 . S
C2924 C2926 1.363 . S
C2924 H2940 0.931 . S
C2925 C2924 1.370 . S
C2925 C2929 1.408 . S
C2926 C2924 1.363 . S
C2926 C2927 1.370 . S
C2926 C2930 1.524 . S
C2927 C2919 1.503 . S
C2927 C2926 1.370 . S
C2927 C2928 1.403 . S
C2928 C2927 1.403 . S
C2928 C2929 1.404 . S
C2928 C2931 1.539 . S
C2929 C2925 1.408 . S
C2929 C2928 1.404 . S
C2929 H2941 0.930 . S
C2930 C2926 1.524 . S
C2930 H2942 0.956 . S
C2930 H2943 0.961 . S
C2930 H2944 0.961 . S
C2931 C2928 1.539 . S
C2931 H2945 0.958 . S
C2931 H2946 0.961 . S
C2931 H2947 0.960 . S
H2932 C2916 0.931 . S
H2933 C2921 0.929 . S
H2934 C2922 0.960 . S
H2935 C2922 0.962 . S
H2936 C2922 0.960 . S
H2937 C2923 0.961 . S
H2938 C2923 0.961 . S
H2939 C2923 0.961 . S
H2940 C2924 0.931 . S
H2941 C2929 0.930 . S
H2942 C2930 0.956 . S
H2943 C2930 0.961 . S
H2944 C2930 0.961 . S
H2945 C2931 0.958 . S
H2946 C2931 0.961 . S
H2947 C2931 0.960 . S
C2948 C2949 1.391 . S
C2948 C2950 1.394 . S
C2948 H2964 0.931 . S
C2949 C2948 1.391 . S
C2949 C2953 1.376 . S
C2950 C2948 1.394 . S
C2950 C2951 1.369 . S
C2950 C2954 1.531 1_545 S
C2951 C2950 1.369 . S
C2951 C2952 1.410 . S
C2951 C2959 1.503 1_545 S
C2952 C2951 1.410 . S
C2952 C2953 1.392 . S
C2952 C2955 1.511 . S
C2953 C2949 1.376 . S
C2953 C2952 1.392 . S
C2953 H2965 0.929 . S
C2954 C2950 1.531 1_565 S
C2954 H2966 0.960 . S
C2954 H2967 0.962 . S
C2954 H2968 0.960 . S
C2955 C2952 1.511 . S
C2955 H2969 0.961 . S
C2955 H2970 0.961 . S
C2955 H2971 0.961 . S
C2956 C2957 1.370 . S
C2956 C2958 1.363 . S
C2956 H2972 0.931 . S
C2957 C2956 1.370 . S
C2957 C2961 1.408 . S
C2958 C2956 1.363 . S
C2958 C2959 1.370 . S
C2958 C2962 1.524 1_565 S
C2959 C2951 1.503 1_565 S
C2959 C2958 1.370 . S
C2959 C2960 1.403 . S
C2960 C2959 1.403 . S
C2960 C2961 1.404 . S
C2960 C2963 1.539 . S
C2961 C2957 1.408 . S
C2961 C2960 1.404 . S
C2961 H2973 0.930 . S
C2962 C2958 1.524 1_545 S
C2962 H2974 0.956 . S
C2962 H2975 0.961 . S
C2962 H2976 0.961 . S
C2963 C2960 1.539 . S
C2963 H2977 0.958 . S
C2963 H2978 0.961 . S
C2963 H2979 0.960 . S
H2964 C2948 0.931 . S
H2965 C2953 0.929 . S
H2966 C2954 0.960 . S
H2967 C2954 0.962 . S
H2968 C2954 0.960 . S
H2969 C2955 0.961 . S
H2970 C2955 0.961 . S
H2971 C2955 0.961 . S
H2972 C2956 0.931 . S
H2973 C2961 0.930 . S
H2974 C2962 0.956 . S
H2975 C2962 0.961 . S
H2976 C2962 0.961 . S
H2977 C2963 0.958 . S
H2978 C2963 0.961 . S
H2979 C2963 0.960 . S
C2980 C2981 1.391 . S
C2980 C2982 1.394 . S
C2980 H2996 0.931 . S
C2981 C2980 1.391 . S
C2981 C2985 1.376 . S
C2982 C2980 1.394 . S
C2982 C2983 1.369 . S
C2982 C2986 1.531 . S
C2983 C2982 1.369 . S
C2983 C2984 1.410 . S
C2983 C2991 1.503 1_455 S
C2984 C2983 1.410 . S
C2984 C2985 1.392 . S
C2984 C2987 1.511 1_455 S
C2985 C2981 1.376 . S
C2985 C2984 1.392 . S
C2985 H2997 0.929 . S
C2986 C2982 1.531 . S
C2986 H2998 0.960 . S
C2986 H2999 0.962 . S
C2986 H3000 0.960 . S
C2987 C2984 1.511 1_655 S
C2987 H3001 0.961 . S
C2987 H3002 0.961 . S
C2987 H3003 0.961 . S
C2988 C2989 1.370 . S
C2988 C2990 1.363 . S
C2988 H3004 0.931 . S
C2989 C2988 1.370 . S
C2989 C2993 1.408 . S
C2990 C2988 1.363 . S
C2990 C2991 1.370 . S
C2990 C2994 1.524 . S
C2991 C2983 1.503 1_655 S
C2991 C2990 1.370 . S
C2991 C2992 1.403 . S
C2992 C2991 1.403 . S
C2992 C2993 1.404 . S
C2992 C2995 1.539 . S
C2993 C2989 1.408 . S
C2993 C2992 1.404 . S
C2993 H3005 0.930 . S
C2994 C2990 1.524 . S
C2994 H3006 0.956 1_655 S
C2994 H3007 0.961 . S
C2994 H3008 0.961 . S
C2995 C2992 1.539 . S
C2995 H3009 0.958 1_655 S
C2995 H3010 0.961 . S
C2995 H3011 0.962 1_655 S
H2996 C2980 0.931 . S
H2997 C2985 0.929 . S
H2998 C2986 0.960 . S
H2999 C2986 0.962 . S
H3000 C2986 0.960 . S
H3001 C2987 0.961 . S
H3002 C2987 0.961 . S
H3003 C2987 0.961 . S
H3004 C2988 0.931 . S
H3005 C2993 0.930 . S
H3006 C2994 0.956 1_455 S
H3007 C2994 0.961 . S
H3008 C2994 0.961 . S
H3009 C2995 0.958 1_455 S
H3010 C2995 0.961 . S
H3011 C2995 0.962 1_455 S
C3012 C3013 1.391 . S
C3012 C3014 1.394 . S
C3012 H3028 0.931 . S
C3013 C3012 1.391 . S
C3013 C3017 1.376 . S
C3014 C3012 1.394 . S
C3014 C3015 1.369 . S
C3014 C3018 1.531 . S
C3015 C3014 1.369 . S
C3015 C3016 1.410 . S
C3015 C3023 1.503 . S
C3016 C3015 1.410 . S
C3016 C3017 1.392 . S
C3016 C3019 1.511 . S
C3017 C3013 1.376 . S
C3017 C3016 1.392 . S
C3017 H3029 0.929 . S
C3018 C3014 1.531 . S
C3018 H3030 0.960 . S
C3018 H3031 0.962 . S
C3018 H3032 0.960 . S
C3019 C3016 1.511 . S
C3019 H3033 0.961 . S
C3019 H3034 0.961 . S
C3019 H3035 0.961 . S
C3020 C3021 1.370 . S
C3020 C3022 1.363 . S
C3020 H3036 0.931 . S
C3021 C3020 1.370 . S
C3021 C3025 1.408 . S
C3022 C3020 1.363 . S
C3022 C3023 1.370 . S
C3022 C3026 1.524 . S
C3023 C3015 1.503 . S
C3023 C3022 1.370 . S
C3023 C3024 1.403 . S
C3024 C3023 1.403 . S
C3024 C3025 1.404 . S
C3024 C3027 1.539 . S
C3025 C3021 1.408 . S
C3025 C3024 1.404 . S
C3025 H3037 0.930 . S
C3026 C3022 1.524 . S
C3026 H3038 0.956 . S
C3026 H3039 0.961 . S
C3026 H3040 0.961 . S
C3027 C3024 1.539 . S
C3027 H3041 0.958 . S
C3027 H3042 0.961 . S
C3027 H3043 0.960 . S
H3028 C3012 0.931 . S
H3029 C3017 0.929 . S
H3030 C3018 0.960 . S
H3031 C3018 0.962 . S
H3032 C3018 0.960 . S
H3033 C3019 0.961 . S
H3034 C3019 0.961 . S
H3035 C3019 0.961 . S
H3036 C3020 0.931 . S
H3037 C3025 0.930 . S
H3038 C3026 0.956 . S
H3039 C3026 0.961 . S
H3040 C3026 0.961 . S
H3041 C3027 0.958 . S
H3042 C3027 0.961 . S
H3043 C3027 0.960 . S
C3044 C3045 1.391 . S
C3044 C3046 1.394 . S
C3044 H3060 0.931 . S
C3045 C3044 1.391 . S
C3045 C3049 1.376 . S
C3046 C3044 1.394 . S
C3046 C3047 1.369 . S
C3046 C3050 1.531 . S
C3047 C3046 1.369 . S
C3047 C3048 1.410 . S
C3047 C3055 1.503 1_545 S
C3048 C3047 1.410 . S
C3048 C3049 1.392 . S
C3048 C3051 1.511 1_545 S
C3049 C3045 1.376 . S
C3049 C3048 1.392 . S
C3049 H3061 0.929 . S
C3050 C3046 1.531 . S
C3050 H3062 0.960 . S
C3050 H3063 0.962 . S
C3050 H3064 0.960 . S
C3051 C3048 1.511 1_565 S
C3051 H3065 0.961 . S
C3051 H3066 0.961 . S
C3051 H3067 0.961 . S
C3052 C3053 1.370 . S
C3052 C3054 1.363 . S
C3052 H3068 0.931 . S
C3053 C3052 1.370 . S
C3053 C3057 1.408 . S
C3054 C3052 1.363 . S
C3054 C3055 1.370 . S
C3054 C3058 1.524 1_565 S
C3055 C3047 1.503 1_565 S
C3055 C3054 1.370 . S
C3055 C3056 1.403 . S
C3056 C3055 1.403 . S
C3056 C3057 1.404 . S
C3056 C3059 1.539 . S
C3057 C3053 1.408 . S
C3057 C3056 1.404 . S
C3057 H3069 0.930 . S
C3058 C3054 1.524 1_545 S
C3058 H3070 0.956 . S
C3058 H3071 0.961 . S
C3058 H3072 0.961 1_545 S
C3059 C3056 1.539 . S
C3059 H3073 0.958 . S
C3059 H3074 0.961 . S
C3059 H3075 0.960 . S
H3060 C3044 0.931 . S
H3061 C3049 0.929 . S
H3062 C3050 0.960 . S
H3063 C3050 0.962 . S
H3064 C3050 0.960 . S
H3065 C3051 0.961 . S
H3066 C3051 0.961 . S
H3067 C3051 0.961 . S
H3068 C3052 0.931 . S
H3069 C3057 0.930 . S
H3070 C3058 0.956 . S
H3071 C3058 0.961 . S
H3072 C3058 0.961 1_565 S
H3073 C3059 0.958 . S
H3074 C3059 0.961 . S
H3075 C3059 0.960 . S
C3076 C3077 1.391 . S
C3076 C3078 1.394 . S
C3076 H3092 0.931 . S
C3077 C3076 1.391 . S
C3077 C3081 1.376 . S
C3078 C3076 1.394 . S
C3078 C3079 1.369 . S
C3078 C3082 1.531 . S
C3079 C3078 1.369 . S
C3079 C3080 1.410 . S
C3079 C3087 1.503 1_655 S
C3080 C3079 1.410 . S
C3080 C3081 1.392 . S
C3080 C3083 1.511 1_655 S
C3081 C3077 1.376 . S
C3081 C3080 1.392 . S
C3081 H3093 0.929 . S
C3082 C3078 1.531 . S
C3082 H3094 0.960 . S
C3082 H3095 0.962 . S
C3082 H3096 0.960 . S
C3083 C3080 1.511 1_455 S
C3083 H3097 0.961 . S
C3083 H3098 0.961 . S
C3083 H3099 0.961 . S
C3084 C3085 1.370 . S
C3084 C3086 1.363 . S
C3084 H3100 0.931 . S
C3085 C3084 1.370 . S
C3085 C3089 1.408 . S
C3086 C3084 1.363 . S
C3086 C3087 1.370 . S
C3086 C3090 1.524 . S
C3087 C3079 1.503 1_455 S
C3087 C3086 1.370 . S
C3087 C3088 1.403 . S
C3088 C3087 1.403 . S
C3088 C3089 1.404 . S
C3088 C3091 1.539 . S
C3089 C3085 1.408 . S
C3089 C3088 1.404 . S
C3089 H3101 0.930 . S
C3090 C3086 1.524 . S
C3090 H3102 0.956 1_455 S
C3090 H3103 0.960 . S
C3090 H3104 0.961 . S
C3091 C3088 1.539 . S
C3091 H3105 0.958 . S
C3091 H3106 0.961 . S
C3091 H3107 0.960 . S
H3092 C3076 0.931 . S
H3093 C3081 0.929 . S
H3094 C3082 0.960 . S
H3095 C3082 0.962 . S
H3096 C3082 0.960 . S
H3097 C3083 0.961 . S
H3098 C3083 0.961 . S
H3099 C3083 0.961 . S
H3100 C3084 0.931 . S
H3101 C3089 0.930 . S
H3102 C3090 0.956 1_655 S
H3103 C3090 0.960 . S
H3104 C3090 0.961 . S
H3105 C3091 0.958 . S
H3106 C3091 0.961 . S
H3107 C3091 0.960 . S
C3108 C3109 1.391 . S
C3108 C3110 1.394 . S
C3108 H3124 0.931 . S
C3109 C3108 1.391 . S
C3109 C3113 1.376 . S
C3110 C3108 1.394 . S
C3110 C3111 1.369 . S
C3110 C3114 1.531 . S
C3111 C3110 1.369 . S
C3111 C3112 1.410 . S
C3111 C3119 1.503 . S
C3112 C3111 1.410 . S
C3112 C3113 1.392 . S
C3112 C3115 1.511 . S
C3113 C3109 1.376 . S
C3113 C3112 1.392 . S
C3113 H3125 0.929 . S
C3114 C3110 1.531 . S
C3114 H3126 0.960 . S
C3114 H3127 0.962 . S
C3114 H3128 0.960 . S
C3115 C3112 1.511 . S
C3115 H3129 0.961 . S
C3115 H3130 0.961 . S
C3115 H3131 0.961 . S
C3116 C3117 1.370 . S
C3116 C3118 1.363 . S
C3116 H3132 0.931 . S
C3117 C3116 1.370 . S
C3117 C3121 1.408 . S
C3118 C3116 1.363 . S
C3118 C3119 1.370 . S
C3118 C3122 1.524 . S
C3119 C3111 1.503 . S
C3119 C3118 1.370 . S
C3119 C3120 1.403 . S
C3120 C3119 1.403 . S
C3120 C3121 1.404 . S
C3120 C3123 1.539 . S
C3121 C3117 1.408 . S
C3121 C3120 1.404 . S
C3121 H3133 0.930 . S
C3122 C3118 1.524 . S
C3122 H3134 0.956 . S
C3122 H3135 0.961 . S
C3122 H3136 0.961 . S
C3123 C3120 1.539 . S
C3123 H3137 0.958 . S
C3123 H3138 0.961 . S
C3123 H3139 0.960 . S
H3124 C3108 0.931 . S
H3125 C3113 0.929 . S
H3126 C3114 0.960 . S
H3127 C3114 0.962 . S
H3128 C3114 0.960 . S
H3129 C3115 0.961 . S
H3130 C3115 0.961 . S
H3131 C3115 0.961 . S
H3132 C3116 0.931 . S
H3133 C3121 0.930 . S
H3134 C3122 0.956 . S
H3135 C3122 0.961 . S
H3136 C3122 0.961 . S
H3137 C3123 0.958 . S
H3138 C3123 0.961 . S
H3139 C3123 0.960 . S
C3140 C3141 1.391 . S
C3140 C3142 1.394 . S
C3140 H3156 0.931 . S
C3141 C3140 1.391 . S
C3141 C3145 1.376 . S
C3142 C3140 1.394 . S
C3142 C3143 1.369 . S
C3142 C3146 1.531 . S
C3143 C3142 1.369 . S
C3143 C3144 1.410 . S
C3143 C3151 1.503 . S
C3144 C3143 1.410 . S
C3144 C3145 1.392 . S
C3144 C3147 1.511 . S
C3145 C3141 1.376 . S
C3145 C3144 1.392 . S
C3145 H3157 0.929 . S
C3146 C3142 1.531 . S
C3146 H3158 0.960 . S
C3146 H3159 0.962 . S
C3146 H3160 0.960 . S
C3147 C3144 1.511 . S
C3147 H3161 0.961 . S
C3147 H3162 0.961 . S
C3147 H3163 0.961 . S
C3148 C3149 1.370 . S
C3148 C3150 1.363 . S
C3148 H3164 0.931 1_554 S
C3149 C3148 1.370 . S
C3149 C3153 1.408 . S
C3150 C3148 1.363 . S
C3150 C3151 1.370 . S
C3150 C3154 1.524 . S
C3151 C3143 1.503 . S
C3151 C3150 1.370 . S
C3151 C3152 1.403 . S
C3152 C3151 1.403 . S
C3152 C3153 1.404 . S
C3152 C3155 1.539 . S
C3153 C3149 1.408 . S
C3153 C3152 1.404 . S
C3153 H3165 0.930 . S
C3154 C3150 1.524 . S
C3154 H3166 0.956 . S
C3154 H3167 0.961 . S
C3154 H3168 0.961 1_554 S
C3155 C3152 1.539 . S
C3155 H3169 0.958 . S
C3155 H3170 0.961 . S
C3155 H3171 0.960 . S
H3156 C3140 0.931 . S
H3157 C3145 0.929 . S
H3158 C3146 0.960 . S
H3159 C3146 0.962 . S
H3160 C3146 0.960 . S
H3161 C3147 0.961 . S
H3162 C3147 0.961 . S
H3163 C3147 0.961 . S
H3164 C3148 0.931 1_556 S
H3165 C3153 0.930 . S
H3166 C3154 0.956 . S
H3167 C3154 0.961 . S
H3168 C3154 0.961 1_556 S
H3169 C3155 0.958 . S
H3170 C3155 0.961 . S
H3171 C3155 0.960 . S
C3172 C3173 1.391 . S
C3172 C3174 1.394 . S
C3172 H3188 0.931 . S
C3173 C3172 1.391 . S
C3173 C3177 1.376 1_554 S
C3174 C3172 1.394 . S
C3174 C3175 1.369 . S
C3174 C3178 1.531 . S
C3175 C3174 1.369 . S
C3175 C3176 1.410 . S
C3175 C3183 1.503 . S
C3176 C3175 1.410 . S
C3176 C3177 1.392 1_554 S
C3176 C3179 1.511 . S
C3177 C3173 1.376 1_556 S
C3177 C3176 1.392 1_556 S
C3177 H3189 0.929 . S
C3178 C3174 1.531 . S
C3178 H3190 0.960 . S
C3178 H3191 0.962 . S
C3178 H3192 0.960 . S
C3179 C3176 1.511 . S
C3179 H3193 0.961 1_554 S
C3179 H3194 0.961 . S
C3179 H3195 0.961 . S
C3180 C3181 1.370 . S
C3180 C3182 1.363 . S
C3180 H3196 0.931 . S
C3181 C3180 1.370 . S
C3181 C3185 1.408 . S
C3182 C3180 1.363 . S
C3182 C3183 1.370 . S
C3182 C3186 1.524 . S
C3183 C3175 1.503 . S
C3183 C3182 1.370 . S
C3183 C3184 1.403 . S
C3184 C3183 1.403 . S
C3184 C3185 1.404 . S
C3184 C3187 1.539 . S
C3185 C3181 1.408 . S
C3185 C3184 1.404 . S
C3185 H3197 0.930 . S
C3186 C3182 1.524 . S
C3186 H3198 0.956 . S
C3186 H3199 0.961 . S
C3186 H3200 0.961 . S
C3187 C3184 1.539 . S
C3187 H3201 0.958 . S
C3187 H3202 0.961 . S
C3187 H3203 0.960 . S
H3188 C3172 0.931 . S
H3189 C3177 0.929 . S
H3190 C3178 0.960 . S
H3191 C3178 0.962 . S
H3192 C3178 0.960 . S
H3193 C3179 0.961 1_556 S
H3194 C3179 0.961 . S
H3195 C3179 0.961 . S
H3196 C3180 0.931 . S
H3197 C3185 0.930 . S
H3198 C3186 0.956 . S
H3199 C3186 0.961 . S
H3200 C3186 0.961 . S
H3201 C3187 0.958 . S
H3202 C3187 0.961 . S
H3203 C3187 0.960 . S
C3204 C3205 1.391 . S
C3204 C3206 1.394 . S
C3204 H3220 0.931 . S
C3205 C3204 1.391 . S
C3205 C3209 1.376 . S
C3206 C3204 1.394 . S
C3206 C3207 1.369 . S
C3206 C3210 1.531 . S
C3207 C3206 1.369 . S
C3207 C3208 1.410 . S
C3207 C3215 1.503 . S
C3208 C3207 1.410 . S
C3208 C3209 1.392 . S
C3208 C3211 1.511 . S
C3209 C3205 1.376 . S
C3209 C3208 1.392 . S
C3209 H3221 0.929 . S
C3210 C3206 1.531 . S
C3210 H3222 0.960 . S
C3210 H3223 0.962 . S
C3210 H3224 0.960 . S
C3211 C3208 1.511 . S
C3211 H3225 0.961 . S
C3211 H3226 0.961 . S
C3211 H3227 0.961 . S
C3212 C3213 1.370 . S
C3212 C3214 1.363 . S
C3212 H3228 0.931 . S
C3213 C3212 1.370 . S
C3213 C3217 1.408 . S
C3214 C3212 1.363 . S
C3214 C3215 1.370 . S
C3214 C3218 1.524 . S
C3215 C3207 1.503 . S
C3215 C3214 1.370 . S
C3215 C3216 1.403 . S
C3216 C3215 1.403 . S
C3216 C3217 1.404 . S
C3216 C3219 1.539 . S
C3217 C3213 1.408 . S
C3217 C3216 1.404 . S
C3217 H3229 0.930 . S
C3218 C3214 1.524 . S
C3218 H3230 0.956 . S
C3218 H3231 0.961 . S
C3218 H3232 0.961 . S
C3219 C3216 1.539 . S
C3219 H3233 0.958 . S
C3219 H3234 0.961 . S
C3219 H3235 0.960 . S
H3220 C3204 0.931 . S
H3221 C3209 0.929 . S
H3222 C3210 0.960 . S
H3223 C3210 0.962 . S
H3224 C3210 0.960 . S
H3225 C3211 0.961 . S
H3226 C3211 0.961 . S
H3227 C3211 0.961 . S
H3228 C3212 0.931 . S
H3229 C3217 0.930 . S
H3230 C3218 0.956 . S
H3231 C3218 0.961 . S
H3232 C3218 0.961 . S
H3233 C3219 0.958 . S
H3234 C3219 0.961 . S
H3235 C3219 0.960 . S
C3236 C3237 1.391 . S
C3236 C3238 1.394 . S
C3236 H3252 0.931 . S
C3237 C3236 1.391 . S
C3237 C3241 1.376 . S
C3238 C3236 1.394 . S
C3238 C3239 1.369 . S
C3238 C3242 1.531 . S
C3239 C3238 1.369 . S
C3239 C3240 1.410 . S
C3239 C3247 1.503 . S
C3240 C3239 1.410 . S
C3240 C3241 1.392 . S
C3240 C3243 1.511 . S
C3241 C3237 1.376 . S
C3241 C3240 1.392 . S
C3241 H3253 0.929 . S
C3242 C3238 1.531 . S
C3242 H3254 0.960 . S
C3242 H3255 0.962 . S
C3242 H3256 0.960 . S
C3243 C3240 1.511 . S
C3243 H3257 0.961 . S
C3243 H3258 0.961 . S
C3243 H3259 0.961 . S
C3244 C3245 1.370 . S
C3244 C3246 1.363 . S
C3244 H3260 0.931 . S
C3245 C3244 1.370 . S
C3245 C3249 1.408 . S
C3246 C3244 1.363 . S
C3246 C3247 1.370 . S
C3246 C3250 1.524 . S
C3247 C3239 1.503 . S
C3247 C3246 1.370 . S
C3247 C3248 1.403 . S
C3248 C3247 1.403 . S
C3248 C3249 1.404 . S
C3248 C3251 1.539 . S
C3249 C3245 1.408 . S
C3249 C3248 1.404 . S
C3249 H3261 0.930 . S
C3250 C3246 1.524 . S
C3250 H3262 0.956 . S
C3250 H3263 0.961 . S
C3250 H3264 0.961 . S
C3251 C3248 1.539 . S
C3251 H3265 0.958 . S
C3251 H3266 0.961 . S
C3251 H3267 0.960 . S
H3252 C3236 0.931 . S
H3253 C3241 0.929 . S
H3254 C3242 0.960 . S
H3255 C3242 0.962 . S
H3256 C3242 0.960 . S
H3257 C3243 0.961 . S
H3258 C3243 0.961 . S
H3259 C3243 0.961 . S
H3260 C3244 0.931 . S
H3261 C3249 0.930 . S
H3262 C3250 0.956 . S
H3263 C3250 0.961 . S
H3264 C3250 0.961 . S
H3265 C3251 0.958 . S
H3266 C3251 0.961 . S
H3267 C3251 0.960 . S
C3268 C3269 1.391 . S
C3268 C3270 1.394 . S
C3268 H3284 0.931 . S
C3269 C3268 1.391 . S
C3269 C3273 1.376 . S
C3270 C3268 1.394 . S
C3270 C3271 1.369 . S
C3270 C3274 1.531 . S
C3271 C3270 1.369 . S
C3271 C3272 1.410 . S
C3271 C3279 1.503 . S
C3272 C3271 1.410 . S
C3272 C3273 1.392 . S
C3272 C3275 1.511 . S
C3273 C3269 1.376 . S
C3273 C3272 1.392 . S
C3273 H3285 0.929 . S
C3274 C3270 1.531 . S
C3274 H3286 0.960 . S
C3274 H3287 0.962 . S
C3274 H3288 0.960 . S
C3275 C3272 1.511 . S
C3275 H3289 0.961 . S
C3275 H3290 0.961 . S
C3275 H3291 0.961 . S
C3276 C3277 1.370 . S
C3276 C3278 1.363 . S
C3276 H3292 0.931 . S
C3277 C3276 1.370 . S
C3277 C3281 1.408 . S
C3278 C3276 1.363 . S
C3278 C3279 1.370 . S
C3278 C3282 1.524 . S
C3279 C3271 1.503 . S
C3279 C3278 1.370 . S
C3279 C3280 1.403 . S
C3280 C3279 1.403 . S
C3280 C3281 1.404 . S
C3280 C3283 1.539 . S
C3281 C3277 1.408 . S
C3281 C3280 1.404 . S
C3281 H3293 0.930 . S
C3282 C3278 1.524 . S
C3282 H3294 0.956 . S
C3282 H3295 0.961 . S
C3282 H3296 0.961 . S
C3283 C3280 1.539 . S
C3283 H3297 0.958 . S
C3283 H3298 0.961 . S
C3283 H3299 0.960 . S
H3284 C3268 0.931 . S
H3285 C3273 0.929 . S
H3286 C3274 0.960 . S
H3287 C3274 0.962 . S
H3288 C3274 0.960 . S
H3289 C3275 0.961 . S
H3290 C3275 0.961 . S
H3291 C3275 0.961 . S
H3292 C3276 0.931 . S
H3293 C3281 0.930 . S
H3294 C3282 0.956 . S
H3295 C3282 0.961 . S
H3296 C3282 0.961 . S
H3297 C3283 0.958 . S
H3298 C3283 0.961 . S
H3299 C3283 0.960 . S
C3300 C3301 1.391 . S
C3300 C3302 1.394 . S
C3300 H3316 0.931 . S
C3301 C3300 1.391 . S
C3301 C3305 1.376 . S
C3302 C3300 1.394 . S
C3302 C3303 1.369 . S
C3302 C3306 1.531 . S
C3303 C3302 1.369 . S
C3303 C3304 1.410 . S
C3303 C3311 1.503 . S
C3304 C3303 1.410 . S
C3304 C3305 1.392 . S
C3304 C3307 1.511 . S
C3305 C3301 1.376 . S
C3305 C3304 1.392 . S
C3305 H3317 0.929 . S
C3306 C3302 1.531 . S
C3306 H3318 0.960 . S
C3306 H3319 0.962 . S
C3306 H3320 0.960 . S
C3307 C3304 1.511 . S
C3307 H3321 0.961 . S
C3307 H3322 0.961 . S
C3307 H3323 0.961 . S
C3308 C3309 1.370 . S
C3308 C3310 1.363 . S
C3308 H3324 0.931 . S
C3309 C3308 1.370 . S
C3309 C3313 1.408 . S
C3310 C3308 1.363 . S
C3310 C3311 1.370 . S
C3310 C3314 1.524 . S
C3311 C3303 1.503 . S
C3311 C3310 1.370 . S
C3311 C3312 1.403 . S
C3312 C3311 1.403 . S
C3312 C3313 1.404 . S
C3312 C3315 1.539 . S
C3313 C3309 1.408 . S
C3313 C3312 1.404 . S
C3313 H3325 0.930 . S
C3314 C3310 1.524 . S
C3314 H3326 0.956 . S
C3314 H3327 0.961 . S
C3314 H3328 0.961 . S
C3315 C3312 1.539 . S
C3315 H3329 0.958 . S
C3315 H3330 0.961 . S
C3315 H3331 0.960 . S
H3316 C3300 0.931 . S
H3317 C3305 0.929 . S
H3318 C3306 0.960 . S
H3319 C3306 0.962 . S
H3320 C3306 0.960 . S
H3321 C3307 0.961 . S
H3322 C3307 0.961 . S
H3323 C3307 0.961 . S
H3324 C3308 0.931 . S
H3325 C3313 0.930 . S
H3326 C3314 0.956 . S
H3327 C3314 0.961 . S
H3328 C3314 0.961 . S
H3329 C3315 0.958 . S
H3330 C3315 0.961 . S
H3331 C3315 0.960 . S
C3332 C3333 1.391 . S
C3332 C3334 1.394 . S
C3332 H3348 0.931 . S
C3333 C3332 1.391 . S
C3333 C3337 1.376 . S
C3334 C3332 1.394 . S
C3334 C3335 1.369 . S
C3334 C3338 1.531 . S
C3335 C3334 1.369 . S
C3335 C3336 1.410 . S
C3335 C3343 1.503 . S
C3336 C3335 1.410 . S
C3336 C3337 1.392 . S
C3336 C3339 1.511 . S
C3337 C3333 1.376 . S
C3337 C3336 1.392 . S
C3337 H3349 0.929 . S
C3338 C3334 1.531 . S
C3338 H3350 0.960 . S
C3338 H3351 0.962 . S
C3338 H3352 0.960 . S
C3339 C3336 1.511 . S
C3339 H3353 0.961 . S
C3339 H3354 0.961 . S
C3339 H3355 0.961 . S
C3340 C3341 1.370 . S
C3340 C3342 1.363 . S
C3340 H3356 0.931 . S
C3341 C3340 1.370 . S
C3341 C3345 1.408 . S
C3342 C3340 1.363 . S
C3342 C3343 1.370 . S
C3342 C3346 1.524 . S
C3343 C3335 1.503 . S
C3343 C3342 1.370 . S
C3343 C3344 1.403 . S
C3344 C3343 1.403 . S
C3344 C3345 1.404 . S
C3344 C3347 1.539 . S
C3345 C3341 1.408 . S
C3345 C3344 1.404 . S
C3345 H3357 0.930 . S
C3346 C3342 1.524 . S
C3346 H3358 0.956 . S
C3346 H3359 0.961 . S
C3346 H3360 0.961 . S
C3347 C3344 1.539 . S
C3347 H3361 0.958 . S
C3347 H3362 0.961 . S
C3347 H3363 0.960 . S
H3348 C3332 0.931 . S
H3349 C3337 0.929 . S
H3350 C3338 0.960 . S
H3351 C3338 0.962 . S
H3352 C3338 0.960 . S
H3353 C3339 0.961 . S
H3354 C3339 0.961 . S
H3355 C3339 0.961 . S
H3356 C3340 0.931 . S
H3357 C3345 0.930 . S
H3358 C3346 0.956 . S
H3359 C3346 0.961 . S
H3360 C3346 0.961 . S
H3361 C3347 0.958 . S
H3362 C3347 0.961 . S
H3363 C3347 0.960 . S
C3364 C3365 1.391 . S
C3364 C3366 1.394 . S
C3364 H3380 0.931 . S
C3365 C3364 1.391 . S
C3365 C3369 1.376 . S
C3366 C3364 1.394 . S
C3366 C3367 1.369 . S
C3366 C3370 1.531 . S
C3367 C3366 1.369 . S
C3367 C3368 1.410 . S
C3367 C3375 1.503 . S
C3368 C3367 1.410 . S
C3368 C3369 1.392 . S
C3368 C3371 1.511 . S
C3369 C3365 1.376 . S
C3369 C3368 1.392 . S
C3369 H3381 0.929 . S
C3370 C3366 1.531 . S
C3370 H3382 0.960 . S
C3370 H3383 0.962 . S
C3370 H3384 0.960 . S
C3371 C3368 1.511 . S
C3371 H3385 0.961 . S
C3371 H3386 0.961 . S
C3371 H3387 0.961 . S
C3372 C3373 1.370 . S
C3372 C3374 1.363 . S
C3372 H3388 0.931 . S
C3373 C3372 1.370 . S
C3373 C3377 1.408 . S
C3374 C3372 1.363 . S
C3374 C3375 1.370 . S
C3374 C3378 1.524 . S
C3375 C3367 1.503 . S
C3375 C3374 1.370 . S
C3375 C3376 1.403 . S
C3376 C3375 1.403 . S
C3376 C3377 1.404 . S
C3376 C3379 1.539 . S
C3377 C3373 1.408 . S
C3377 C3376 1.404 . S
C3377 H3389 0.930 . S
C3378 C3374 1.524 . S
C3378 H3390 0.956 . S
C3378 H3391 0.961 . S
C3378 H3392 0.961 . S
C3379 C3376 1.539 . S
C3379 H3393 0.958 . S
C3379 H3394 0.961 . S
C3379 H3395 0.960 . S
H3380 C3364 0.931 . S
H3381 C3369 0.929 . S
H3382 C3370 0.960 . S
H3383 C3370 0.962 . S
H3384 C3370 0.960 . S
H3385 C3371 0.961 . S
H3386 C3371 0.961 . S
H3387 C3371 0.961 . S
H3388 C3372 0.931 . S
H3389 C3377 0.930 . S
H3390 C3378 0.956 . S
H3391 C3378 0.961 . S
H3392 C3378 0.961 . S
H3393 C3379 0.958 . S
H3394 C3379 0.961 . S
H3395 C3379 0.960 . S
C3396 C3397 1.391 . S
C3396 C3398 1.394 1_554 S
C3396 H3412 0.931 . S
C3397 C3396 1.391 . S
C3397 C3401 1.376 . S
C3398 C3396 1.394 1_556 S
C3398 C3399 1.369 . S
C3398 C3402 1.531 . S
C3399 C3398 1.369 . S
C3399 C3400 1.410 . S
C3399 C3407 1.503 . S
C3400 C3399 1.410 . S
C3400 C3401 1.392 1_556 S
C3400 C3403 1.511 . S
C3401 C3397 1.376 . S
C3401 C3400 1.392 1_554 S
C3401 H3413 0.929 . S
C3402 C3398 1.531 . S
C3402 H3414 0.960 . S
C3402 H3415 0.962 . S
C3402 H3416 0.960 . S
C3403 C3400 1.511 . S
C3403 H3417 0.961 1_556 S
C3403 H3418 0.961 . S
C3403 H3419 0.961 . S
C3404 C3405 1.370 . S
C3404 C3406 1.363 . S
C3404 H3420 0.931 . S
C3405 C3404 1.370 . S
C3405 C3409 1.408 . S
C3406 C3404 1.363 . S
C3406 C3407 1.370 . S
C3406 C3410 1.524 1_556 S
C3407 C3399 1.503 . S
C3407 C3406 1.370 . S
C3407 C3408 1.403 . S
C3408 C3407 1.403 . S
C3408 C3409 1.404 . S
C3408 C3411 1.539 . S
C3409 C3405 1.408 . S
C3409 C3408 1.404 . S
C3409 H3421 0.930 . S
C3410 C3406 1.524 1_554 S
C3410 H3422 0.956 . S
C3410 H3423 0.961 . S
C3410 H3424 0.961 . S
C3411 C3408 1.539 . S
C3411 H3425 0.958 . S
C3411 H3426 0.961 . S
C3411 H3427 0.960 . S
H3412 C3396 0.931 . S
H3413 C3401 0.929 . S
H3414 C3402 0.960 . S
H3415 C3402 0.962 . S
H3416 C3402 0.960 . S
H3417 C3403 0.961 1_554 S
H3418 C3403 0.961 . S
H3419 C3403 0.961 . S
H3420 C3404 0.931 . S
H3421 C3409 0.930 . S
H3422 C3410 0.956 . S
H3423 C3410 0.961 . S
H3424 C3410 0.961 . S
H3425 C3411 0.958 . S
H3426 C3411 0.961 . S
H3427 C3411 0.960 . S
C3428 C3429 1.391 . S
C3428 C3430 1.394 . S
C3428 H3444 0.931 . S
C3429 C3428 1.391 . S
C3429 C3433 1.376 . S
C3430 C3428 1.394 . S
C3430 C3431 1.369 1_554 S
C3430 C3434 1.531 . S
C3431 C3430 1.369 1_556 S
C3431 C3432 1.410 . S
C3431 C3439 1.503 . S
C3432 C3431 1.410 . S
C3432 C3433 1.392 1_556 S
C3432 C3435 1.511 . S
C3433 C3429 1.376 . S
C3433 C3432 1.392 1_554 S
C3433 H3445 0.929 1_554 S
C3434 C3430 1.531 . S
C3434 H3446 0.960 . S
C3434 H3447 0.962 . S
C3434 H3448 0.960 . S
C3435 C3432 1.511 . S
C3435 H3449 0.961 . S
C3435 H3450 0.961 . S
C3435 H3451 0.961 . S
C3436 C3437 1.370 . S
C3436 C3438 1.363 . S
C3436 H3452 0.931 . S
C3437 C3436 1.370 . S
C3437 C3441 1.408 . S
C3438 C3436 1.363 . S
C3438 C3439 1.370 . S
C3438 C3442 1.524 . S
C3439 C3431 1.503 . S
C3439 C3438 1.370 . S
C3439 C3440 1.403 . S
C3440 C3439 1.403 . S
C3440 C3441 1.404 . S
C3440 C3443 1.539 . S
C3441 C3437 1.408 . S
C3441 C3440 1.404 . S
C3441 H3453 0.930 . S
C3442 C3438 1.524 . S
C3442 H3454 0.956 . S
C3442 H3455 0.961 . S
C3442 H3456 0.961 . S
C3443 C3440 1.539 . S
C3443 H3457 0.958 1_556 S
C3443 H3458 0.961 . S
C3443 H3459 0.955 1_556 S
H3444 C3428 0.931 . S
H3445 C3433 0.929 1_556 S
H3446 C3434 0.960 . S
H3447 C3434 0.962 . S
H3448 C3434 0.960 . S
H3449 C3435 0.961 . S
H3450 C3435 0.961 . S
H3451 C3435 0.961 . S
H3452 C3436 0.931 . S
H3453 C3441 0.930 . S
H3454 C3442 0.956 . S
H3455 C3442 0.961 . S
H3456 C3442 0.961 . S
H3457 C3443 0.958 1_554 S
H3458 C3443 0.961 . S
H3459 C3443 0.955 1_554 S
C3460 C3461 1.391 . S
C3460 C3462 1.382 1_554 S
C3460 H3476 0.931 . S
C3461 C3460 1.391 . S
C3461 C3465 1.376 . S
C3462 C3460 1.382 1_556 S
C3462 C3463 1.379 . S
C3462 C3466 1.532 . S
C3463 C3462 1.379 . S
C3463 C3464 1.410 . S
C3463 C3471 1.503 . S
C3464 C3463 1.410 . S
C3464 C3465 1.392 1_556 S
C3464 C3467 1.511 . S
C3465 C3461 1.376 . S
C3465 C3464 1.392 1_554 S
C3465 H3477 0.929 . S
C3466 C3462 1.532 . S
C3466 H3478 0.960 . S
C3466 H3479 0.962 1_556 S
C3466 H3480 0.960 1_556 S
C3467 C3464 1.511 . S
C3467 H3481 0.961 . S
C3467 H3482 0.961 . S
C3467 H3483 0.961 . S
C3468 C3469 1.370 . S
C3468 C3470 1.363 . S
C3468 H3484 0.931 . S
C3469 C3468 1.370 . S
C3469 C3473 1.408 . S
C3470 C3468 1.363 . S
C3470 C3471 1.370 . S
C3470 C3474 1.524 1_556 S
C3471 C3463 1.503 . S
C3471 C3470 1.370 . S
C3471 C3472 1.403 . S
C3472 C3471 1.403 . S
C3472 C3473 1.404 . S
C3472 C3475 1.539 . S
C3473 C3469 1.408 . S
C3473 C3472 1.404 . S
C3473 H3485 0.930 . S
C3474 C3470 1.524 1_554 S
C3474 H3486 0.956 . S
C3474 H3487 0.961 . S
C3474 H3488 0.961 . S
C3475 C3472 1.539 . S
C3475 H3489 0.958 . S
C3475 H3490 0.961 . S
C3475 H3491 0.960 . S
H3476 C3460 0.931 . S
H3477 C3465 0.929 . S
H3478 C3466 0.960 . S
H3479 C3466 0.962 1_554 S
H3480 C3466 0.960 1_554 S
H3481 C3467 0.961 . S
H3482 C3467 0.961 . S
H3483 C3467 0.961 . S
H3484 C3468 0.931 . S
H3485 C3473 0.930 . S
H3486 C3474 0.956 . S
H3487 C3474 0.961 . S
H3488 C3474 0.961 . S
H3489 C3475 0.958 . S
H3490 C3475 0.961 . S
H3491 C3475 0.960 . S
C3492 C3493 1.391 1_554 S
C3492 C3494 1.394 1_554 S
C3492 H3508 0.931 . S
C3493 C3492 1.391 1_556 S
C3493 C3497 1.376 . S
C3494 C3492 1.394 1_556 S
C3494 C3495 1.369 . S
C3494 C3498 1.531 1_556 S
C3495 C3494 1.369 . S
C3495 C3496 1.410 . S
C3495 C3503 1.503 . S
C3496 C3495 1.410 . S
C3496 C3497 1.392 . S
C3496 C3499 1.511 . S
C3497 C3493 1.376 . S
C3497 C3496 1.392 . S
C3497 H3509 0.929 . S
C3498 C3494 1.531 1_554 S
C3498 H3510 0.960 . S
C3498 H3511 0.962 1_554 S
C3498 H3512 0.960 . S
C3499 C3496 1.511 . S
C3499 H3513 0.961 . S
C3499 H3514 0.961 . S
C3499 H3515 0.961 . S
C3500 C3501 1.370 . S
C3500 C3502 1.363 . S
C3500 H3516 0.931 . S
C3501 C3500 1.370 . S
C3501 C3505 1.408 . S
C3502 C3500 1.363 . S
C3502 C3503 1.370 . S
C3502 C3506 1.524 . S
C3503 C3495 1.503 . S
C3503 C3502 1.370 . S
C3503 C3504 1.403 . S
C3504 C3503 1.403 . S
C3504 C3505 1.404 . S
C3504 C3507 1.539 1_556 S
C3505 C3501 1.408 . S
C3505 C3504 1.404 . S
C3505 H3517 0.931 . S
C3506 C3502 1.524 . S
C3506 H3518 0.956 . S
C3506 H3519 0.961 . S
C3506 H3520 0.961 . S
C3507 C3504 1.539 1_554 S
C3507 H3521 0.958 . S
C3507 H3522 0.961 . S
C3507 H3523 0.960 . S
H3508 C3492 0.931 . S
H3509 C3497 0.929 . S
H3510 C3498 0.960 . S
H3511 C3498 0.962 1_556 S
H3512 C3498 0.960 . S
H3513 C3499 0.961 . S
H3514 C3499 0.961 . S
H3515 C3499 0.961 . S
H3516 C3500 0.931 . S
H3517 C3505 0.931 . S
H3518 C3506 0.956 . S
H3519 C3506 0.961 . S
H3520 C3506 0.961 . S
H3521 C3507 0.958 . S
H3522 C3507 0.961 . S
H3523 C3507 0.960 . S
C3524 C3525 1.391 . S
C3524 C3526 1.394 . S
C3524 H3540 0.931 . S
C3525 C3524 1.391 . S
C3525 C3529 1.376 1_556 S
C3526 C3524 1.394 . S
C3526 C3527 1.369 . S
C3526 C3530 1.531 . S
C3527 C3526 1.369 . S
C3527 C3528 1.410 1_556 S
C3527 C3535 1.503 . S
C3528 C3527 1.410 1_554 S
C3528 C3529 1.392 . S
C3528 C3531 1.511 . S
C3529 C3525 1.376 1_554 S
C3529 C3528 1.392 . S
C3529 H3541 0.929 . S
C3530 C3526 1.531 . S
C3530 H3542 0.960 . S
C3530 H3543 0.962 . S
C3530 H3544 0.960 . S
C3531 C3528 1.511 . S
C3531 H3545 0.961 . S
C3531 H3546 0.961 . S
C3531 H3547 0.961 . S
C3532 C3533 1.370 . S
C3532 C3534 1.363 . S
C3532 H3548 0.931 . S
C3533 C3532 1.370 . S
C3533 C3537 1.408 . S
C3534 C3532 1.363 . S
C3534 C3535 1.370 . S
C3534 C3538 1.524 . S
C3535 C3527 1.503 . S
C3535 C3534 1.370 . S
C3535 C3536 1.403 . S
C3536 C3535 1.403 . S
C3536 C3537 1.404 . S
C3536 C3539 1.539 . S
C3537 C3533 1.408 . S
C3537 C3536 1.404 . S
C3537 H3549 0.930 . S
C3538 C3534 1.524 . S
C3538 H3550 0.956 . S
C3538 H3551 0.961 . S
C3538 H3552 0.961 . S
C3539 C3536 1.539 . S
C3539 H3553 0.958 . S
C3539 H3554 0.961 . S
C3539 H3555 0.960 . S
H3540 C3524 0.931 . S
H3541 C3529 0.929 . S
H3542 C3530 0.960 . S
H3543 C3530 0.962 . S
H3544 C3530 0.960 . S
H3545 C3531 0.961 . S
H3546 C3531 0.961 . S
H3547 C3531 0.961 . S
H3548 C3532 0.931 . S
H3549 C3537 0.930 . S
H3550 C3538 0.956 . S
H3551 C3538 0.961 . S
H3552 C3538 0.961 . S
H3553 C3539 0.958 . S
H3554 C3539 0.961 . S
H3555 C3539 0.960 . S
C3556 C3557 1.391 . S
C3556 C3558 1.394 . S
C3556 H3572 0.931 . S
C3557 C3556 1.391 . S
C3557 C3561 1.376 . S
C3558 C3556 1.394 . S
C3558 C3559 1.369 . S
C3558 C3562 1.531 . S
C3559 C3558 1.369 . S
C3559 C3560 1.410 . S
C3559 C3567 1.503 . S
C3560 C3559 1.410 . S
C3560 C3561 1.392 . S
C3560 C3563 1.511 1_556 S
C3561 C3557 1.376 . S
C3561 C3560 1.392 . S
C3561 H3573 0.929 . S
C3562 C3558 1.531 . S
C3562 H3574 0.960 . S
C3562 H3575 0.962 . S
C3562 H3576 0.960 . S
C3563 C3560 1.511 1_554 S
C3563 H3577 0.961 . S
C3563 H3578 0.961 . S
C3563 H3579 0.961 . S
C3564 C3565 1.370 1_554 S
C3564 C3566 1.363 1_554 S
C3564 H3580 0.931 . S
C3565 C3564 1.370 1_556 S
C3565 C3569 1.408 . S
C3566 C3564 1.363 1_556 S
C3566 C3567 1.370 . S
C3566 C3570 1.524 1_556 S
C3567 C3559 1.503 . S
C3567 C3566 1.370 . S
C3567 C3568 1.403 . S
C3568 C3567 1.403 . S
C3568 C3569 1.404 . S
C3568 C3571 1.539 . S
C3569 C3565 1.408 . S
C3569 C3568 1.404 . S
C3569 H3581 0.930 . S
C3570 C3566 1.524 1_554 S
C3570 H3582 0.956 1_554 S
C3570 H3583 0.961 . S
C3570 H3584 0.961 . S
C3571 C3568 1.539 . S
C3571 H3585 0.958 . S
C3571 H3586 0.961 . S
C3571 H3587 0.960 . S
H3572 C3556 0.931 . S
H3573 C3561 0.929 . S
H3574 C3562 0.960 . S
H3575 C3562 0.962 . S
H3576 C3562 0.960 . S
H3577 C3563 0.961 . S
H3578 C3563 0.961 . S
H3579 C3563 0.961 . S
H3580 C3564 0.931 . S
H3581 C3569 0.930 . S
H3582 C3570 0.956 1_556 S
H3583 C3570 0.961 . S
H3584 C3570 0.961 . S
H3585 C3571 0.958 . S
H3586 C3571 0.961 . S
H3587 C3571 0.960 . S
C3588 C3589 1.391 . S
C3588 C3590 1.394 . S
C3588 H3604 0.931 . S
C3589 C3588 1.391 . S
C3589 C3593 1.376 . S
C3590 C3588 1.394 . S
C3590 C3591 1.369 . S
C3590 C3594 1.531 . S
C3591 C3590 1.369 . S
C3591 C3592 1.410 . S
C3591 C3599 1.503 . S
C3592 C3591 1.410 . S
C3592 C3593 1.392 . S
C3592 C3595 1.511 . S
C3593 C3589 1.376 . S
C3593 C3592 1.392 . S
C3593 H3605 0.929 . S
C3594 C3590 1.531 . S
C3594 H3606 0.960 . S
C3594 H3607 0.962 . S
C3594 H3608 0.960 . S
C3595 C3592 1.511 . S
C3595 H3609 0.961 . S
C3595 H3610 0.961 . S
C3595 H3611 0.961 . S
C3596 C3597 1.370 . S
C3596 C3598 1.363 . S
C3596 H3612 0.931 . S
C3597 C3596 1.370 . S
C3597 C3601 1.408 . S
C3598 C3596 1.363 . S
C3598 C3599 1.370 . S
C3598 C3602 1.524 . S
C3599 C3591 1.503 . S
C3599 C3598 1.370 . S
C3599 C3600 1.403 . S
C3600 C3599 1.403 . S
C3600 C3601 1.404 . S
C3600 C3603 1.539 . S
C3601 C3597 1.408 . S
C3601 C3600 1.404 . S
C3601 H3613 0.930 . S
C3602 C3598 1.524 . S
C3602 H3614 0.956 . S
C3602 H3615 0.961 . S
C3602 H3616 0.961 . S
C3603 C3600 1.539 . S
C3603 H3617 0.958 . S
C3603 H3618 0.961 . S
C3603 H3619 0.960 . S
H3604 C3588 0.931 . S
H3605 C3593 0.929 . S
H3606 C3594 0.960 . S
H3607 C3594 0.962 . S
H3608 C3594 0.960 . S
H3609 C3595 0.961 . S
H3610 C3595 0.961 . S
H3611 C3595 0.961 . S
H3612 C3596 0.931 . S
H3613 C3601 0.930 . S
H3614 C3602 0.956 . S
H3615 C3602 0.961 . S
H3616 C3602 0.961 . S
H3617 C3603 0.958 . S
H3618 C3603 0.961 . S
H3619 C3603 0.960 . S
C3620 C3621 1.391 . S
C3620 C3622 1.394 . S
C3620 H3636 0.931 . S
C3621 C3620 1.391 . S
C3621 C3625 1.376 . S
C3622 C3620 1.394 . S
C3622 C3623 1.369 . S
C3622 C3626 1.531 . S
C3623 C3622 1.369 . S
C3623 C3624 1.410 . S
C3623 C3631 1.503 . S
C3624 C3623 1.410 . S
C3624 C3625 1.392 . S
C3624 C3627 1.511 . S
C3625 C3621 1.376 . S
C3625 C3624 1.392 . S
C3625 H3637 0.929 . S
C3626 C3622 1.531 . S
C3626 H3638 0.960 . S
C3626 H3639 0.962 . S
C3626 H3640 0.960 . S
C3627 C3624 1.511 . S
C3627 H3641 0.961 . S
C3627 H3642 0.961 . S
C3627 H3643 0.961 . S
C3628 C3629 1.370 . S
C3628 C3630 1.363 . S
C3628 H3644 0.931 . S
C3629 C3628 1.370 . S
C3629 C3633 1.408 . S
C3630 C3628 1.363 . S
C3630 C3631 1.370 . S
C3630 C3634 1.524 . S
C3631 C3623 1.503 . S
C3631 C3630 1.370 . S
C3631 C3632 1.403 . S
C3632 C3631 1.403 . S
C3632 C3633 1.404 . S
C3632 C3635 1.539 . S
C3633 C3629 1.408 . S
C3633 C3632 1.404 . S
C3633 H3645 0.930 . S
C3634 C3630 1.524 . S
C3634 H3646 0.956 . S
C3634 H3647 0.961 . S
C3634 H3648 0.961 . S
C3635 C3632 1.539 . S
C3635 H3649 0.958 . S
C3635 H3650 0.961 . S
C3635 H3651 0.960 . S
H3636 C3620 0.931 . S
H3637 C3625 0.929 . S
H3638 C3626 0.960 . S
H3639 C3626 0.962 . S
H3640 C3626 0.960 . S
H3641 C3627 0.961 . S
H3642 C3627 0.961 . S
H3643 C3627 0.961 . S
H3644 C3628 0.931 . S
H3645 C3633 0.930 . S
H3646 C3634 0.956 . S
H3647 C3634 0.961 . S
H3648 C3634 0.961 . S
H3649 C3635 0.958 . S
H3650 C3635 0.961 . S
H3651 C3635 0.960 . S
C3652 C3653 1.391 . S
C3652 C3654 1.394 . S
C3652 H3668 0.931 . S
C3653 C3652 1.391 . S
C3653 C3657 1.376 . S
C3654 C3652 1.394 . S
C3654 C3655 1.369 . S
C3654 C3658 1.531 . S
C3655 C3654 1.369 . S
C3655 C3656 1.410 . S
C3655 C3663 1.503 . S
C3656 C3655 1.410 . S
C3656 C3657 1.392 . S
C3656 C3659 1.511 . S
C3657 C3653 1.376 . S
C3657 C3656 1.392 . S
C3657 H3669 0.929 . S
C3658 C3654 1.531 . S
C3658 H3670 0.960 . S
C3658 H3671 0.962 . S
C3658 H3672 0.960 . S
C3659 C3656 1.511 . S
C3659 H3673 0.961 . S
C3659 H3674 0.961 . S
C3659 H3675 0.961 . S
C3660 C3661 1.370 . S
C3660 C3662 1.363 . S
C3660 H3676 0.931 . S
C3661 C3660 1.370 . S
C3661 C3665 1.408 . S
C3662 C3660 1.363 . S
C3662 C3663 1.370 . S
C3662 C3666 1.524 . S
C3663 C3655 1.503 . S
C3663 C3662 1.370 . S
C3663 C3664 1.403 . S
C3664 C3663 1.403 . S
C3664 C3665 1.404 . S
C3664 C3667 1.539 . S
C3665 C3661 1.408 . S
C3665 C3664 1.404 . S
C3665 H3677 0.930 . S
C3666 C3662 1.524 . S
C3666 H3678 0.956 . S
C3666 H3679 0.961 . S
C3666 H3680 0.961 . S
C3667 C3664 1.539 . S
C3667 H3681 0.958 . S
C3667 H3682 0.961 . S
C3667 H3683 0.960 . S
H3668 C3652 0.931 . S
H3669 C3657 0.929 . S
H3670 C3658 0.960 . S
H3671 C3658 0.962 . S
H3672 C3658 0.960 . S
H3673 C3659 0.961 . S
H3674 C3659 0.961 . S
H3675 C3659 0.961 . S
H3676 C3660 0.931 . S
H3677 C3665 0.930 . S
H3678 C3666 0.956 . S
H3679 C3666 0.961 . S
H3680 C3666 0.961 . S
H3681 C3667 0.958 . S
H3682 C3667 0.961 . S
H3683 C3667 0.960 . S
C3684 C3685 1.391 . S
C3684 C3686 1.394 . S
C3684 H3700 0.931 . S
C3685 C3684 1.391 . S
C3685 C3689 1.376 . S
C3686 C3684 1.394 . S
C3686 C3687 1.369 . S
C3686 C3690 1.531 . S
C3687 C3686 1.369 . S
C3687 C3688 1.410 . S
C3687 C3695 1.503 . S
C3688 C3687 1.410 . S
C3688 C3689 1.392 . S
C3688 C3691 1.511 . S
C3689 C3685 1.376 . S
C3689 C3688 1.392 . S
C3689 H3701 0.929 . S
C3690 C3686 1.531 . S
C3690 H3702 0.960 . S
C3690 H3703 0.962 . S
C3690 H3704 0.960 . S
C3691 C3688 1.511 . S
C3691 H3705 0.961 . S
C3691 H3706 0.961 . S
C3691 H3707 0.961 1_554 S
C3692 C3693 1.370 . S
C3692 C3694 1.363 . S
C3692 H3708 0.931 . S
C3693 C3692 1.370 . S
C3693 C3697 1.408 . S
C3694 C3692 1.363 . S
C3694 C3695 1.370 . S
C3694 C3698 1.524 . S
C3695 C3687 1.503 . S
C3695 C3694 1.370 . S
C3695 C3696 1.403 . S
C3696 C3695 1.403 . S
C3696 C3697 1.404 . S
C3696 C3699 1.539 . S
C3697 C3693 1.408 . S
C3697 C3696 1.404 . S
C3697 H3709 0.930 . S
C3698 C3694 1.524 . S
C3698 H3710 0.956 . S
C3698 H3711 0.961 . S
C3698 H3712 0.961 . S
C3699 C3696 1.539 . S
C3699 H3713 0.958 . S
C3699 H3714 0.961 1_554 S
C3699 H3715 0.960 . S
H3700 C3684 0.931 . S
H3701 C3689 0.929 . S
H3702 C3690 0.960 . S
H3703 C3690 0.962 . S
H3704 C3690 0.960 . S
H3705 C3691 0.961 . S
H3706 C3691 0.961 . S
H3707 C3691 0.961 1_556 S
H3708 C3692 0.931 . S
H3709 C3697 0.930 . S
H3710 C3698 0.956 . S
H3711 C3698 0.961 . S
H3712 C3698 0.961 . S
H3713 C3699 0.958 . S
H3714 C3699 0.961 1_556 S
H3715 C3699 0.960 . S
C3716 C3717 1.391 . S
C3716 C3718 1.394 . S
C3716 H3732 0.931 . S
C3717 C3716 1.391 . S
C3717 C3721 1.376 . S
C3718 C3716 1.394 . S
C3718 C3719 1.369 . S
C3718 C3722 1.531 . S
C3719 C3718 1.369 . S
C3719 C3720 1.410 . S
C3719 C3727 1.503 . S
C3720 C3719 1.410 . S
C3720 C3721 1.392 . S
C3720 C3723 1.511 . S
C3721 C3717 1.376 . S
C3721 C3720 1.392 . S
C3721 H3733 0.929 . S
C3722 C3718 1.531 . S
C3722 H3734 0.960 . S
C3722 H3735 0.962 . S
C3722 H3736 0.960 . S
C3723 C3720 1.511 . S
C3723 H3737 0.961 . S
C3723 H3738 0.961 . S
C3723 H3739 0.961 . S
C3724 C3725 1.370 . S
C3724 C3726 1.363 . S
C3724 H3740 0.931 . S
C3725 C3724 1.370 . S
C3725 C3729 1.408 . S
C3726 C3724 1.363 . S
C3726 C3727 1.370 . S
C3726 C3730 1.524 . S
C3727 C3719 1.503 . S
C3727 C3726 1.370 . S
C3727 C3728 1.403 . S
C3728 C3727 1.403 . S
C3728 C3729 1.404 . S
C3728 C3731 1.539 1_554 S
C3729 C3725 1.408 . S
C3729 C3728 1.404 . S
C3729 H3741 0.930 1_554 S
C3730 C3726 1.524 . S
C3730 H3742 0.956 . S
C3730 H3743 0.961 . S
C3730 H3744 0.961 . S
C3731 C3728 1.539 1_556 S
C3731 H3745 0.958 . S
C3731 H3746 0.961 . S
C3731 H3747 0.960 . S
H3732 C3716 0.931 . S
H3733 C3721 0.929 . S
H3734 C3722 0.960 . S
H3735 C3722 0.962 . S
H3736 C3722 0.960 . S
H3737 C3723 0.961 . S
H3738 C3723 0.961 . S
H3739 C3723 0.961 . S
H3740 C3724 0.931 . S
H3741 C3729 0.930 1_556 S
H3742 C3730 0.956 . S
H3743 C3730 0.961 . S
H3744 C3730 0.961 . S
H3745 C3731 0.958 . S
H3746 C3731 0.961 . S
H3747 C3731 0.960 . S
C3748 C3749 1.391 . S
C3748 C3750 1.394 . S
C3748 H3764 0.931 . S
C3749 C3748 1.391 . S
C3749 C3753 1.376 . S
C3750 C3748 1.394 . S
C3750 C3751 1.369 . S
C3750 C3754 1.531 . S
C3751 C3750 1.369 . S
C3751 C3752 1.410 . S
C3751 C3759 1.503 . S
C3752 C3751 1.410 . S
C3752 C3753 1.392 . S
C3752 C3755 1.511 . S
C3753 C3749 1.376 . S
C3753 C3752 1.392 . S
C3753 H3765 0.929 . S
C3754 C3750 1.531 . S
C3754 H3766 0.960 . S
C3754 H3767 0.962 . S
C3754 H3768 0.960 1_554 S
C3755 C3752 1.511 . S
C3755 H3769 0.961 . S
C3755 H3770 0.961 . S
C3755 H3771 0.961 . S
C3756 C3757 1.370 . S
C3756 C3758 1.363 . S
C3756 H3772 0.931 . S
C3757 C3756 1.370 . S
C3757 C3761 1.408 . S
C3758 C3756 1.363 . S
C3758 C3759 1.370 . S
C3758 C3762 1.524 . S
C3759 C3751 1.503 . S
C3759 C3758 1.370 . S
C3759 C3760 1.403 . S
C3760 C3759 1.403 . S
C3760 C3761 1.404 . S
C3760 C3763 1.539 . S
C3761 C3757 1.408 . S
C3761 C3760 1.404 . S
C3761 H3773 0.930 . S
C3762 C3758 1.524 . S
C3762 H3774 0.956 . S
C3762 H3775 0.961 . S
C3762 H3776 0.961 . S
C3763 C3760 1.539 . S
C3763 H3777 0.958 1_554 S
C3763 H3778 0.961 . S
C3763 H3779 0.960 . S
H3764 C3748 0.931 . S
H3765 C3753 0.929 . S
H3766 C3754 0.960 . S
H3767 C3754 0.962 . S
H3768 C3754 0.960 1_556 S
H3769 C3755 0.961 . S
H3770 C3755 0.961 . S
H3771 C3755 0.961 . S
H3772 C3756 0.931 . S
H3773 C3761 0.930 . S
H3774 C3762 0.956 . S
H3775 C3762 0.961 . S
H3776 C3762 0.961 . S
H3777 C3763 0.958 1_556 S
H3778 C3763 0.961 . S
H3779 C3763 0.960 . S
C3780 C3781 1.391 . S
C3780 C3782 1.394 . S
C3780 H3796 0.931 . S
C3781 C3780 1.391 . S
C3781 C3785 1.376 . S
C3782 C3780 1.394 . S
C3782 C3783 1.369 . S
C3782 C3786 1.531 . S
C3783 C3782 1.369 . S
C3783 C3784 1.410 . S
C3783 C3791 1.503 . S
C3784 C3783 1.410 . S
C3784 C3785 1.392 . S
C3784 C3787 1.511 . S
C3785 C3781 1.376 . S
C3785 C3784 1.392 . S
C3785 H3797 0.929 . S
C3786 C3782 1.531 . S
C3786 H3798 0.960 . S
C3786 H3799 0.962 . S
C3786 H3800 0.960 . S
C3787 C3784 1.511 . S
C3787 H3801 0.961 . S
C3787 H3802 0.961 . S
C3787 H3803 0.961 . S
C3788 C3789 1.370 . S
C3788 C3790 1.363 . S
C3788 H3804 0.931 . S
C3789 C3788 1.370 . S
C3789 C3793 1.408 . S
C3790 C3788 1.363 . S
C3790 C3791 1.370 . S
C3790 C3794 1.524 . S
C3791 C3783 1.503 . S
C3791 C3790 1.370 . S
C3791 C3792 1.403 . S
C3792 C3791 1.403 . S
C3792 C3793 1.404 . S
C3792 C3795 1.539 . S
C3793 C3789 1.408 . S
C3793 C3792 1.404 . S
C3793 H3805 0.930 . S
C3794 C3790 1.524 . S
C3794 H3806 0.956 . S
C3794 H3807 0.961 . S
C3794 H3808 0.961 . S
C3795 C3792 1.539 . S
C3795 H3809 0.958 . S
C3795 H3810 0.961 . S
C3795 H3811 0.960 . S
H3796 C3780 0.931 . S
H3797 C3785 0.929 . S
H3798 C3786 0.960 . S
H3799 C3786 0.962 . S
H3800 C3786 0.960 . S
H3801 C3787 0.961 . S
H3802 C3787 0.961 . S
H3803 C3787 0.961 . S
H3804 C3788 0.931 . S
H3805 C3793 0.930 . S
H3806 C3794 0.956 . S
H3807 C3794 0.961 . S
H3808 C3794 0.961 . S
H3809 C3795 0.958 . S
H3810 C3795 0.961 . S
H3811 C3795 0.960 . S
C3812 C3813 1.391 . S
C3812 C3814 1.394 . S
C3812 H3828 0.931 . S
C3813 C3812 1.391 . S
C3813 C3817 1.376 . S
C3814 C3812 1.394 . S
C3814 C3815 1.369 . S
C3814 C3818 1.531 . S
C3815 C3814 1.369 . S
C3815 C3816 1.410 . S
C3815 C3823 1.503 . S
C3816 C3815 1.410 . S
C3816 C3817 1.392 . S
C3816 C3819 1.511 . S
C3817 C3813 1.376 . S
C3817 C3816 1.392 . S
C3817 H3829 0.929 . S
C3818 C3814 1.531 . S
C3818 H3830 0.960 . S
C3818 H3831 0.962 . S
C3818 H3832 0.960 . S
C3819 C3816 1.511 . S
C3819 H3833 0.961 . S
C3819 H3834 0.961 . S
C3819 H3835 0.961 . S
C3820 C3821 1.370 . S
C3820 C3822 1.363 . S
C3820 H3836 0.931 . S
C3821 C3820 1.370 . S
C3821 C3825 1.408 . S
C3822 C3820 1.363 . S
C3822 C3823 1.370 . S
C3822 C3826 1.524 . S
C3823 C3815 1.503 . S
C3823 C3822 1.370 . S
C3823 C3824 1.403 . S
C3824 C3823 1.403 . S
C3824 C3825 1.404 . S
C3824 C3827 1.539 . S
C3825 C3821 1.408 . S
C3825 C3824 1.404 . S
C3825 H3837 0.930 . S
C3826 C3822 1.524 . S
C3826 H3838 0.956 . S
C3826 H3839 0.961 . S
C3826 H3840 0.961 . S
C3827 C3824 1.539 . S
C3827 H3841 0.958 . S
C3827 H3842 0.961 . S
C3827 H3843 0.960 . S
H3828 C3812 0.931 . S
H3829 C3817 0.929 . S
H3830 C3818 0.960 . S
H3831 C3818 0.962 . S
H3832 C3818 0.960 . S
H3833 C3819 0.961 . S
H3834 C3819 0.961 . S
H3835 C3819 0.961 . S
H3836 C3820 0.931 . S
H3837 C3825 0.930 . S
H3838 C3826 0.956 . S
H3839 C3826 0.961 . S
H3840 C3826 0.961 . S
H3841 C3827 0.958 . S
H3842 C3827 0.961 . S
H3843 C3827 0.960 . S
C3844 C3845 1.391 . S
C3844 C3846 1.394 . S
C3844 H3860 0.931 . S
C3845 C3844 1.391 . S
C3845 C3849 1.376 . S
C3846 C3844 1.394 . S
C3846 C3847 1.369 . S
C3846 C3850 1.531 . S
C3847 C3846 1.369 . S
C3847 C3848 1.410 . S
C3847 C3855 1.503 . S
C3848 C3847 1.410 . S
C3848 C3849 1.392 . S
C3848 C3851 1.511 . S
C3849 C3845 1.376 . S
C3849 C3848 1.392 . S
C3849 H3861 0.929 . S
C3850 C3846 1.531 . S
C3850 H3862 0.960 . S
C3850 H3863 0.962 . S
C3850 H3864 0.960 . S
C3851 C3848 1.511 . S
C3851 H3865 0.961 . S
C3851 H3866 0.961 . S
C3851 H3867 0.961 . S
C3852 C3853 1.370 . S
C3852 C3854 1.363 . S
C3852 H3868 0.931 . S
C3853 C3852 1.370 . S
C3853 C3857 1.408 . S
C3854 C3852 1.363 . S
C3854 C3855 1.370 . S
C3854 C3858 1.524 . S
C3855 C3847 1.503 . S
C3855 C3854 1.370 . S
C3855 C3856 1.403 . S
C3856 C3855 1.403 . S
C3856 C3857 1.404 . S
C3856 C3859 1.539 . S
C3857 C3853 1.408 . S
C3857 C3856 1.404 . S
C3857 H3869 0.930 . S
C3858 C3854 1.524 . S
C3858 H3870 0.956 . S
C3858 H3871 0.961 . S
C3858 H3872 0.961 . S
C3859 C3856 1.539 . S
C3859 H3873 0.958 . S
C3859 H3874 0.961 . S
C3859 H3875 0.960 . S
H3860 C3844 0.931 . S
H3861 C3849 0.929 . S
H3862 C3850 0.960 . S
H3863 C3850 0.962 . S
H3864 C3850 0.960 . S
H3865 C3851 0.961 . S
H3866 C3851 0.961 . S
H3867 C3851 0.961 . S
H3868 C3852 0.931 . S
H3869 C3857 0.930 . S
H3870 C3858 0.956 . S
H3871 C3858 0.961 . S
H3872 C3858 0.961 . S
H3873 C3859 0.958 . S
H3874 C3859 0.961 . S
H3875 C3859 0.960 . S
C3876 C3877 1.391 . S
C3876 C3878 1.394 . S
C3876 H3892 0.931 . S
C3877 C3876 1.391 . S
C3877 C3881 1.376 . S
C3878 C3876 1.394 . S
C3878 C3879 1.369 . S
C3878 C3882 1.531 . S
C3879 C3878 1.369 . S
C3879 C3880 1.410 . S
C3879 C3887 1.503 1_455 S
C3880 C3879 1.410 . S
C3880 C3881 1.392 . S
C3880 C3883 1.511 . S
C3881 C3877 1.376 . S
C3881 C3880 1.392 . S
C3881 H3893 0.929 . S
C3882 C3878 1.531 . S
C3882 H3894 0.960 . S
C3882 H3895 0.962 . S
C3882 H3896 0.960 . S
C3883 C3880 1.511 . S
C3883 H3897 0.961 . S
C3883 H3898 0.961 1_455 S
C3883 H3899 0.961 . S
C3884 C3885 1.370 . S
C3884 C3886 1.363 . S
C3884 H3900 0.931 . S
C3885 C3884 1.370 . S
C3885 C3889 1.408 . S
C3886 C3884 1.363 . S
C3886 C3887 1.370 . S
C3886 C3890 1.524 . S
C3887 C3879 1.503 1_655 S
C3887 C3886 1.370 . S
C3887 C3888 1.403 . S
C3888 C3887 1.403 . S
C3888 C3889 1.404 . S
C3888 C3891 1.539 . S
C3889 C3885 1.408 . S
C3889 C3888 1.404 . S
C3889 H3901 0.930 . S
C3890 C3886 1.524 . S
C3890 H3902 0.956 . S
C3890 H3903 0.961 . S
C3890 H3904 0.961 . S
C3891 C3888 1.539 . S
C3891 H3905 0.981 . S
C3891 H3906 0.961 . S
C3891 H3907 0.960 1_655 S
H3892 C3876 0.931 . S
H3893 C3881 0.929 . S
H3894 C3882 0.960 . S
H3895 C3882 0.962 . S
H3896 C3882 0.960 . S
H3897 C3883 0.961 . S
H3898 C3883 0.961 1_655 S
H3899 C3883 0.961 . S
H3900 C3884 0.931 . S
H3901 C3889 0.930 . S
H3902 C3890 0.956 . S
H3903 C3890 0.961 . S
H3904 C3890 0.961 . S
H3905 C3891 0.981 . S
H3906 C3891 0.961 . S
H3907 C3891 0.960 1_455 S
C3908 C3909 1.391 . S
C3908 C3910 1.394 . S
C3908 H3924 0.931 . S
C3909 C3908 1.391 . S
C3909 C3913 1.376 . S
C3910 C3908 1.394 . S
C3910 C3911 1.369 . S
C3910 C3914 1.531 . S
C3911 C3910 1.369 . S
C3911 C3912 1.410 . S
C3911 C3919 1.503 . S
C3912 C3911 1.410 . S
C3912 C3913 1.392 . S
C3912 C3915 1.511 . S
C3913 C3909 1.376 . S
C3913 C3912 1.392 . S
C3913 H3925 0.929 . S
C3914 C3910 1.531 . S
C3914 H3926 0.960 . S
C3914 H3927 0.962 . S
C3914 H3928 0.960 . S
C3915 C3912 1.511 . S
C3915 H3929 0.961 . S
C3915 H3930 0.961 . S
C3915 H3931 0.961 . S
C3916 C3917 1.370 . S
C3916 C3918 1.363 . S
C3916 H3932 0.931 . S
C3917 C3916 1.370 . S
C3917 C3921 1.408 . S
C3918 C3916 1.363 . S
C3918 C3919 1.370 . S
C3918 C3922 1.524 . S
C3919 C3911 1.503 . S
C3919 C3918 1.370 . S
C3919 C3920 1.403 . S
C3920 C3919 1.403 . S
C3920 C3921 1.404 . S
C3920 C3923 1.539 . S
C3921 C3917 1.408 . S
C3921 C3920 1.404 . S
C3921 H3933 0.930 . S
C3922 C3918 1.524 . S
C3922 H3934 0.956 . S
C3922 H3935 0.961 . S
C3922 H3936 0.961 . S
C3923 C3920 1.539 . S
C3923 H3937 0.958 . S
C3923 H3938 0.961 . S
C3923 H3939 0.960 . S
H3924 C3908 0.931 . S
H3925 C3913 0.929 . S
H3926 C3914 0.960 . S
H3927 C3914 0.962 . S
H3928 C3914 0.960 . S
H3929 C3915 0.961 . S
H3930 C3915 0.961 . S
H3931 C3915 0.961 . S
H3932 C3916 0.931 . S
H3933 C3921 0.930 . S
H3934 C3922 0.956 . S
H3935 C3922 0.961 . S
H3936 C3922 0.961 . S
H3937 C3923 0.958 . S
H3938 C3923 0.961 . S
H3939 C3923 0.960 . S
C3940 C3941 1.391 . S
C3940 C3942 1.394 . S
C3940 H3956 0.931 . S
C3941 C3940 1.391 . S
C3941 C3945 1.376 . S
C3942 C3940 1.394 . S
C3942 C3943 1.369 . S
C3942 C3946 1.531 . S
C3943 C3942 1.369 . S
C3943 C3944 1.410 . S
C3943 C3951 1.503 1_545 S
C3944 C3943 1.410 . S
C3944 C3945 1.392 . S
C3944 C3947 1.511 . S
C3945 C3941 1.376 . S
C3945 C3944 1.392 . S
C3945 H3957 0.929 . S
C3946 C3942 1.531 . S
C3946 H3958 0.960 . S
C3946 H3959 0.962 . S
C3946 H3960 0.960 . S
C3947 C3944 1.511 . S
C3947 H3961 0.961 . S
C3947 H3962 0.961 1_545 S
C3947 H3963 0.961 . S
C3948 C3949 1.370 . S
C3948 C3950 1.363 . S
C3948 H3964 0.931 . S
C3949 C3948 1.370 . S
C3949 C3953 1.408 . S
C3950 C3948 1.363 . S
C3950 C3951 1.370 . S
C3950 C3954 1.524 . S
C3951 C3943 1.503 1_565 S
C3951 C3950 1.370 . S
C3951 C3952 1.403 . S
C3952 C3951 1.403 . S
C3952 C3953 1.404 . S
C3952 C3955 1.539 . S
C3953 C3949 1.408 . S
C3953 C3952 1.404 . S
C3953 H3965 0.930 . S
C3954 C3950 1.524 . S
C3954 H3966 0.956 . S
C3954 H3967 0.961 . S
C3954 H3968 0.961 . S
C3955 C3952 1.539 . S
C3955 H3969 0.958 . S
C3955 H3970 0.961 . S
C3955 H3971 0.960 1_565 S
H3956 C3940 0.931 . S
H3957 C3945 0.929 . S
H3958 C3946 0.960 . S
H3959 C3946 0.962 . S
H3960 C3946 0.960 . S
H3961 C3947 0.961 . S
H3962 C3947 0.961 1_565 S
H3963 C3947 0.961 . S
H3964 C3948 0.931 . S
H3965 C3953 0.930 . S
H3966 C3954 0.956 . S
H3967 C3954 0.961 . S
H3968 C3954 0.961 . S
H3969 C3955 0.958 . S
H3970 C3955 0.961 . S
H3971 C3955 0.960 1_545 S
C3972 C3973 1.391 . S
C3972 C3974 1.394 . S
C3972 H3988 0.931 . S
C3973 C3972 1.391 . S
C3973 C3977 1.376 . S
C3974 C3972 1.394 . S
C3974 C3975 1.369 . S
C3974 C3978 1.531 . S
C3975 C3974 1.369 . S
C3975 C3976 1.410 . S
C3975 C3983 1.503 1_565 S
C3976 C3975 1.410 . S
C3976 C3977 1.392 . S
C3976 C3979 1.511 . S
C3977 C3973 1.376 . S
C3977 C3976 1.392 . S
C3977 H3989 0.929 . S
C3978 C3974 1.531 . S
C3978 H3990 0.960 1_565 S
C3978 H3991 0.962 . S
C3978 H3992 0.960 . S
C3979 C3976 1.511 . S
C3979 H3993 0.961 . S
C3979 H3994 0.961 . S
C3979 H3995 0.961 . S
C3980 C3981 1.370 . S
C3980 C3982 1.363 . S
C3980 H3996 0.931 . S
C3981 C3980 1.370 . S
C3981 C3985 1.408 . S
C3982 C3980 1.363 . S
C3982 C3983 1.370 . S
C3982 C3986 1.573 . S
C3983 C3975 1.503 1_545 S
C3983 C3982 1.370 . S
C3983 C3984 1.403 . S
C3984 C3983 1.403 . S
C3984 C3985 1.404 . S
C3984 C3987 1.539 . S
C3985 C3981 1.408 . S
C3985 C3984 1.404 . S
C3985 H3997 0.930 . S
C3986 C3982 1.573 . S
C3986 H3998 0.913 1_545 S
C3986 H3999 0.945 1_545 S
C3986 H4000 0.975 . S
C3987 C3984 1.539 . S
C3987 H4001 0.958 . S
C3987 H4002 0.961 . S
C3987 H4003 0.960 . S
H3988 C3972 0.931 . S
H3989 C3977 0.929 . S
H3990 C3978 0.960 1_545 S
H3991 C3978 0.962 . S
H3992 C3978 0.960 . S
H3993 C3979 0.961 . S
H3994 C3979 0.961 . S
H3995 C3979 0.961 . S
H3996 C3980 0.931 . S
H3997 C3985 0.930 . S
H3998 C3986 0.913 1_565 S
H3999 C3986 0.945 1_565 S
H4000 C3986 0.975 . S
H4001 C3987 0.958 . S
H4002 C3987 0.961 . S
H4003 C3987 0.960 . S
C4004 C4005 1.391 . S
C4004 C4006 1.394 . S
C4004 H4020 0.931 . S
C4005 C4004 1.391 . S
C4005 C4009 1.376 . S
C4006 C4004 1.394 . S
C4006 C4007 1.369 . S
C4006 C4010 1.531 . S
C4007 C4006 1.369 . S
C4007 C4008 1.410 . S
C4007 C4015 1.503 1_655 S
C4008 C4007 1.410 . S
C4008 C4009 1.392 . S
C4008 C4011 1.511 . S
C4009 C4005 1.376 . S
C4009 C4008 1.392 . S
C4009 H4021 0.929 . S
C4010 C4006 1.531 . S
C4010 H4022 0.904 1_655 S
C4010 H4023 0.962 . S
C4010 H4024 0.960 . S
C4011 C4008 1.511 . S
C4011 H4025 0.961 . S
C4011 H4026 0.961 1_655 S
C4011 H4027 0.966 . S
C4012 C4013 1.370 . S
C4012 C4014 1.363 . S
C4012 H4028 0.931 . S
C4013 C4012 1.370 . S
C4013 C4017 1.408 . S
C4014 C4012 1.363 . S
C4014 C4015 1.370 . S
C4014 C4018 1.533 . S
C4015 C4007 1.503 1_455 S
C4015 C4014 1.370 . S
C4015 C4016 1.403 . S
C4016 C4015 1.403 . S
C4016 C4017 1.404 . S
C4016 C4019 1.539 . S
C4017 C4013 1.408 . S
C4017 C4016 1.404 . S
C4017 H4029 0.930 . S
C4018 C4014 1.533 . S
C4018 H4030 0.939 1_455 S
C4018 H4031 0.958 1_455 S
C4018 H4032 0.972 . S
C4019 C4016 1.539 . S
C4019 H4033 0.958 . S
C4019 H4034 0.961 . S
C4019 H4035 0.960 . S
H4020 C4004 0.931 . S
H4021 C4009 0.929 . S
H4022 C4010 0.904 1_455 S
H4023 C4010 0.962 . S
H4024 C4010 0.960 . S
H4025 C4011 0.961 . S
H4026 C4011 0.961 1_455 S
H4027 C4011 0.966 . S
H4028 C4012 0.931 . S
H4029 C4017 0.930 . S
H4030 C4018 0.939 1_655 S
H4031 C4018 0.958 1_655 S
H4032 C4018 0.972 . S
H4033 C4019 0.958 . S
H4034 C4019 0.961 . S
H4035 C4019 0.960 . S
C4036 C4037 1.391 . S
C4036 C4038 1.394 . S
C4036 H4052 0.931 . S
C4037 C4036 1.391 . S
C4037 C4041 1.376 . S
C4038 C4036 1.394 . S
C4038 C4039 1.369 . S
C4038 C4042 1.531 . S
C4039 C4038 1.369 . S
C4039 C4040 1.410 . S
C4039 C4047 1.503 . S
C4040 C4039 1.410 . S
C4040 C4041 1.392 . S
C4040 C4043 1.511 . S
C4041 C4037 1.376 . S
C4041 C4040 1.392 . S
C4041 H4053 0.929 . S
C4042 C4038 1.531 . S
C4042 H4054 0.960 . S
C4042 H4055 0.962 . S
C4042 H4056 0.960 . S
C4043 C4040 1.511 . S
C4043 H4057 0.961 . S
C4043 H4058 0.961 . S
C4043 H4059 0.961 . S
C4044 C4045 1.370 . S
C4044 C4046 1.363 . S
C4044 H4060 0.931 . S
C4045 C4044 1.370 . S
C4045 C4049 1.408 . S
C4046 C4044 1.363 . S
C4046 C4047 1.370 . S
C4046 C4050 1.524 . S
C4047 C4039 1.503 . S
C4047 C4046 1.370 . S
C4047 C4048 1.403 . S
C4048 C4047 1.403 . S
C4048 C4049 1.404 . S
C4048 C4051 1.539 . S
C4049 C4045 1.408 . S
C4049 C4048 1.404 . S
C4049 H4061 0.930 . S
C4050 C4046 1.524 . S
C4050 H4062 0.956 . S
C4050 H4063 0.961 . S
C4050 H4064 0.961 . S
C4051 C4048 1.539 . S
C4051 H4065 0.958 . S
C4051 H4066 0.961 . S
C4051 H4067 0.960 . S
H4052 C4036 0.931 . S
H4053 C4041 0.929 . S
H4054 C4042 0.960 . S
H4055 C4042 0.962 . S
H4056 C4042 0.960 . S
H4057 C4043 0.961 . S
H4058 C4043 0.961 . S
H4059 C4043 0.961 . S
H4060 C4044 0.931 . S
H4061 C4049 0.930 . S
H4062 C4050 0.956 . S
H4063 C4050 0.961 . S
H4064 C4050 0.961 . S
H4065 C4051 0.958 . S
H4066 C4051 0.961 . S
H4067 C4051 0.960 . S
C1189 C337 2.064 . S
C1197 C7 2.037 . S
C1221 C370 2.087 . S
C1229 C40 2.053 . S
C1253 C304 2.056 . S
C1261 C73 2.037 . S
C1285 C271 2.055 . S
C1293 C106 2.039 . S
C1317 C205 2.058 . S
C1325 C139 2.036 . S
C1349 C238 2.062 . S
C1357 C172 2.037 . S
C1381 N134 0.705 . S
C1389 N200 0.645 . S
C1413 N233 0.681 . S
C1421 N167 0.657 . S
C1445 N101 0.713 . S
C1453 N266 0.634 . S
C1477 N68 0.629 . S
C1485 N299 0.659 . S
C1509 N332 0.613 . S
C1517 N2 0.626 . S
C1541 N35 0.580 . S
C1549 N365 0.638 . S
C1573 C733 2.071 . S
C1581 C403 2.040 . S
C1605 C436 2.060 . S
C1613 C766 2.082 . S
C1637 C700 2.079 . S
C1645 C469 2.044 . S
C1669 C667 2.055 . S
C1677 C502 2.040 1_554 S
C1701 C601 2.084 . S
C1709 C535 2.047 1_554 S
C1733 C568 2.022 1_554 S
C1741 C634 2.069 . S
C1765 N596 0.642 . S
C1773 N530 0.618 . S
C1797 N563 0.602 . S
C1805 N629 0.657 . S
C1829 N497 0.708 . S
C1837 N662 0.643 . S
C1861 N695 0.690 . S
C1869 N464 0.640 . S
C1893 N728 0.632 . S
C1901 N398 0.674 . S
C1925 N431 0.598 . S
C1933 N761 0.628 . S
C1957 C799 2.024 . S
C1965 C1129 2.069 . S
C1989 C832 2.062 . S
C1997 C1162 2.081 . S
C2021 C865 2.057 . S
C2029 C1096 2.077 . S
C2053 C898 2.054 . S
C2061 C1063 2.082 . S
C2085 C997 2.072 . S
C2093 C931 2.052 . S
C2117 C1030 2.087 . S
C2125 C964 2.051 . S
C2149 N992 0.588 . S
C2157 N926 0.659 . S
C2181 N959 0.595 . S
C2189 N1025 0.655 . S
C2213 N893 0.632 . S
C2221 N1058 0.659 . S
C2245 N1091 0.622 . S
C2253 N860 0.622 . S
C2277 N1124 0.612 . S
C2285 N794 0.626 . S
C2309 N827 0.680 . S
C2317 N1157 0.617 . S
C2341 C117 2.236 . S
C2349 C18 2.247 . S
C2373 C51 2.241 . S
C2381 C150 2.247 . S
C2405 C84 2.236 . S
C2413 C183 2.247 . S
C2437 N310 0.983 . S
C2445 N211 1.011 . S
C2469 N244 1.032 . S
C2477 N343 0.996 . S
C2501 N376 1.025 . S
C2509 N277 1.002 . S
C2533 C414 2.254 . S
C2541 C513 2.254 . S
C2565 C546 2.249 . S
C2573 C447 2.250 . S
C2597 C480 2.253 . S
C2605 C579 2.253 . S
C2629 N607 0.965 . S
C2637 N706 0.983 1_554 S
C2661 N739 0.993 1_554 S
C2669 N640 0.978 . S
C2693 N772 0.964 1_554 S
C2701 N673 1.008 . S
C2725 C810 2.248 . S
C2733 C909 2.250 . S
C2757 C942 2.254 . S
C2765 C843 2.254 . S
C2789 C876 2.254 . S
C2797 C975 2.254 . S
C2821 N1003 1.024 . S
C2829 N1102 1.003 . S
C2853 N1036 0.985 . S
C2861 N1135 1.011 . S
C2885 N1168 1.032 . S
C2893 N1069 0.988 . S
C2917 N112 0.446 . S
C2925 N13 0.505 . S
C2949 N46 0.551 . S
C2957 N145 0.478 . S
C2981 N178 0.425 . S
C2989 N79 0.458 . S
C3013 C315 1.756 . S
C3021 C216 1.761 . S
C3045 C348 1.751 . S
C3053 C249 1.761 . S
C3077 C381 1.750 . S
C3085 C282 1.761 . S
C3109 N409 0.424 . S
C3117 N508 0.458 . S
C3141 N442 0.551 . S
C3149 N541 0.473 . S
C3173 N574 0.412 . S
C3181 N475 0.464 . S
C3205 C612 1.776 . S
C3213 C711 1.771 . S
C3237 C744 1.773 . S
C3245 C645 1.768 . S
C3269 C777 1.762 . S
C3277 C678 1.770 . S
C3301 N805 0.503 . S
C3309 N904 0.444 . S
C3333 N838 0.404 . S
C3341 N937 0.487 . S
C3365 N970 0.538 . S
C3373 N871 0.454 . S
C3397 C1107 1.754 . S
C3405 C1008 1.766 . S
C3429 C1140 1.776 . S
C3437 C1041 1.770 . S
C3461 C1173 1.763 . S
C3469 C1074 1.770 . S
C3493 C21 1.497 . S
C3501 C549 1.490 . S
C3525 C54 1.500 . S
C3533 C582 1.499 . S
C3557 C516 1.489 . S
C3565 C87 1.490 . S
C3589 C879 1.487 . S
C3597 C120 1.501 . S
C3621 C153 1.479 . S
C3629 C813 1.496 . S
C3653 C186 1.489 . S
C3661 C846 1.501 . S
C3685 C1143 1.494 . S
C3693 C219 1.506 . S
C3717 C1176 1.487 . S
C3725 C252 1.504 . S
C3749 C285 1.510 . S
C3757 C1110 1.500 . S
C3781 C681 1.484 . S
C3789 C318 1.498 . S
C3813 C351 1.486 . S
C3821 C615 1.504 . S
C3845 C648 1.508 . S
C3853 C384 1.497 . S
C3877 C945 1.490 . S
C3885 C417 1.501 . S
C3909 C978 1.503 . S
C3917 C450 1.492 . S
C3941 C483 1.493 . S
C3949 C912 1.500 . S
C3973 C1077 1.510 . S
C3981 C714 1.499 . S
C4005 C747 1.503 . S
C4013 C1011 1.495 . S
C4037 C780 1.484 . S
C4045 C1044 1.498 . S
