# Generated by pormake.
# Topology lon, (4)-cn, num edge types: 1
# Building blocks:
#     Node 0, Type 0, BuildingBlock: QUQFOY_clean_sbu_3, # of connection points: 4
#     Node 1, Type 0, BuildingBlock: QUQFOY_clean_sbu_3, # of connection points: 4
#     Node 2, Type 0, BuildingBlock: QUQFOY_clean_sbu_3, # of connection points: 4
#     Node 3, Type 0, BuildingBlock: QUQFOY_clean_sbu_3, # of connection points: 4
#     Edge 4, Type (0, 0), BuildingBlock: UVAHIK_clean_linker_0, # of connection points: 2
#     Edge 5, Type (0, 0), BuildingBlock: UVAHIK_clean_linker_0, # of connection points: 2
#     Edge 6, Type (0, 0), BuildingBlock: UVAHIK_clean_linker_0, # of connection points: 2
#     Edge 7, Type (0, 0), BuildingBlock: UVAHIK_clean_linker_0, # of connection points: 2
#     Edge 8, Type (0, 0), BuildingBlock: UVAHIK_clean_linker_0, # of connection points: 2
#     Edge 9, Type (0, 0), BuildingBlock: UVAHIK_clean_linker_0, # of connection points: 2
#     Edge 10, Type (0, 0), BuildingBlock: UVAHIK_clean_linker_0, # of connection points: 2
#     Edge 11, Type (0, 0), BuildingBlock: UVAHIK_clean_linker_0, # of connection points: 2
# Relax obj value: 0.135
# Max RMSD: 0.173
# Mean RMSD: 0.169
data_MOF--net-lon--node1-QUQFOY_clean_sbu_3--edge1-UVAHIK_clean_linker_0
_symmetry_space_group_name_H-M    P1
_symmetry_Int_Tables_number       1
_symmetry_cell_setting            triclinic
loop_
_symmetry_equiv_pos_as_xyz
'x, y, z'
_cell_length_a     31.416152
_cell_length_b     33.782208
_cell_length_c     54.788155
_cell_angle_alpha  90.50519
_cell_angle_beta   88.989912
_cell_angle_gamma 117.37288
loop_
_atom_site_label
_atom_site_type_symbol
_atom_site_fract_x
_atom_site_fract_y
_atom_site_fract_z
_atom_type_partial_charge
C0 C 0.20968 0.64043 0.03664 0.0
O1 O 0.21448 0.67786 0.04425 0.0
Cd2 Cd 0.28779 0.73844 0.05747 0.0
O3 O 0.24531 0.63194 0.03609 0.0
Cd4 Cd 0.33186 0.67086 0.04748 0.0
C5 C 0.30927 0.68957 0.10678 0.0
O6 O 0.34679 0.7408 0.02851 0.0
O7 O 0.40739 0.74164 0.04672 0.0
O8 O 0.34857 0.63096 0.01426 0.0
C9 C 0.39064 0.76206 0.03385 0.0
O10 O 0.29854 0.71897 0.09867 0.0
C11 C 0.37056 0.6156 0.02732 0.0
O12 O 0.32055 0.66622 0.09219 0.0
O13 O 0.37374 0.62523 0.04989 0.0
C14 C 0.56797 0.33898 0.51355 0.0
O15 O 0.56791 0.31479 0.49567 0.0
Cd16 Cd 0.59856 0.26216 0.49576 0.0
O17 O 0.58545 0.33649 0.534 0.0
Cd18 Cd 0.624 0.29252 0.55095 0.0
C19 C 0.71509 0.33251 0.50899 0.0
O20 O 0.56875 0.22219 0.53318 0.0
O21 O 0.63188 0.22296 0.54835 0.0
O22 O 0.58589 0.28716 0.59097 0.0
C23 C 0.59099 0.20066 0.53901 0.0
O24 O 0.68578 0.30632 0.49345 0.0
C25 C 0.62462 0.30324 0.60284 0.0
O26 O 0.70098 0.33558 0.53052 0.0
O27 O 0.66316 0.31524 0.5905 0.0
C28 C 0.21166 0.62476 0.45798 0.0
O29 O 0.2339 0.64862 0.47607 0.0
Cd30 Cd 0.31625 0.70207 0.4765 0.0
O31 O 0.23316 0.62835 0.4375 0.0
Cd32 Cd 0.3158 0.67387 0.4204 0.0
C33 C 0.36409 0.63212 0.46187 0.0
O34 O 0.32804 0.74263 0.43944 0.0
O35 O 0.39188 0.74449 0.42349 0.0
O36 O 0.28338 0.679 0.38098 0.0
C37 C 0.37197 0.76532 0.43409 0.0
O38 O 0.35946 0.65764 0.47777 0.0
C39 C 0.30733 0.66402 0.36853 0.0
O40 O 0.3488 0.63008 0.44029 0.0
O41 O 0.33483 0.6531 0.38026 0.0
C42 C 0.55612 0.32553 0.93328 0.0
O43 O 0.52438 0.2864 0.92808 0.0
Cd44 Cd 0.53937 0.2259 0.91637 0.0
O45 O 0.6006 0.33549 0.93243 0.0
Cd46 Cd 0.65035 0.29639 0.92281 0.0
C47 C 0.60753 0.27106 0.86483 0.0
O48 O 0.5969 0.23102 0.94577 0.0
O49 O 0.65518 0.22527 0.92789 0.0
O50 O 0.70638 0.34848 0.95227 0.0
C51 C 0.61889 0.20823 0.94202 0.0
O52 O 0.56828 0.24212 0.87423 0.0
C53 C 0.74396 0.35524 0.94015 0.0
O54 O 0.64226 0.2961 0.87833 0.0
O55 O 0.73794 0.33542 0.91975 0.0
C56 C 0.28695 0.70202 0.14917 0.0
C57 C 0.30771 0.68229 0.13349 0.0
C58 C 0.28498 0.69527 0.17434 0.0
C59 C 0.3435 0.66801 0.22379 0.0
H60 H 0.22683 0.6434 0.26004 0.0
C61 C 0.32827 0.64091 0.32832 0.0
C62 C 0.3043 0.66064 0.34161 0.0
C63 C 0.32674 0.63919 0.30281 0.0
C64 C 0.25985 0.6507 0.25025 0.0
H65 H 0.34291 0.64007 0.13206 0.0
H66 H 0.3399 0.62872 0.17626 0.0
H67 H 0.22821 0.6487 0.21567 0.0
H68 H 0.25971 0.69382 0.33859 0.0
H69 H 0.25787 0.69175 0.29421 0.0
H70 H 0.37566 0.67134 0.25834 0.0
C71 C 0.32511 0.64935 0.16891 0.0
C72 C 0.26056 0.65358 0.22482 0.0
C73 C 0.32664 0.65572 0.14363 0.0
C74 C 0.27837 0.67819 0.32889 0.0
C75 C 0.27708 0.67673 0.30341 0.0
C76 C 0.34293 0.66548 0.24927 0.0
C77 C 0.30408 0.66895 0.1845 0.0
C78 C 0.30254 0.6628 0.21134 0.0
C79 C 0.3014 0.65738 0.29002 0.0
C80 C 0.30125 0.65733 0.26284 0.0
H81 H 0.27195 0.72263 0.14202 0.0
H82 H 0.26912 0.71128 0.18591 0.0
H83 H 0.3765 0.67558 0.21388 0.0
H84 H 0.34839 0.62689 0.33761 0.0
H85 H 0.3453 0.62346 0.29314 0.0
C86 C 0.58139 0.28635 0.6432 0.0
C87 C 0.62469 0.30595 0.62981 0.0
C88 C 0.58148 0.28631 0.6687 0.0
C89 C 0.65983 0.29694 0.7207 0.0
H90 H 0.5593 0.3068 0.75821 0.0
C91 C 0.65624 0.30419 0.82665 0.0
C92 C 0.61188 0.27662 0.83794 0.0
C93 C 0.65968 0.31017 0.80131 0.0
C94 C 0.58746 0.30377 0.74796 0.0
H95 H 0.70205 0.34207 0.63265 0.0
H96 H 0.70221 0.34297 0.67717 0.0
H97 H 0.56214 0.31462 0.71395 0.0
H98 H 0.5364 0.23364 0.83139 0.0
H99 H 0.54249 0.24429 0.78734 0.0
H100 H 0.68517 0.28635 0.75488 0.0
C101 C 0.66817 0.32671 0.66799 0.0
C102 C 0.58905 0.30813 0.72258 0.0
C103 C 0.66807 0.32648 0.64246 0.0
C104 C 0.57115 0.25509 0.82333 0.0
C105 C 0.57452 0.26142 0.79808 0.0
C106 C 0.65844 0.29295 0.74612 0.0
C107 C 0.62489 0.30617 0.68144 0.0
C108 C 0.62489 0.30421 0.70858 0.0
C109 C 0.61875 0.28911 0.78681 0.0
C110 C 0.62188 0.29575 0.75997 0.0
H111 H 0.54736 0.27007 0.63399 0.0
H112 H 0.54749 0.26959 0.67839 0.0
H113 H 0.68753 0.29307 0.71052 0.0
H114 H 0.68831 0.32125 0.83737 0.0
H115 H 0.6942 0.33187 0.7931 0.0
C116 C 0.41276 0.56867 0.03171 0.0
C117 C 0.39219 0.58852 0.01666 0.0
C118 C 0.43349 0.54335 0.02158 0.0
C119 C 0.49682 0.51032 -0.00492 0.0
H120 H 0.43322 0.43182 0.94093 0.0
C121 C 0.57402 0.40304 0.94682 0.0
C122 C 0.54056 0.35908 0.94106 0.0
C123 C 0.55851 0.43386 0.9548 0.0
C124 C 0.45135 0.4534 0.95612 0.0
H125 H 0.3779 0.59797 0.97915 0.0
H126 H 0.41474 0.55451 0.96145 0.0
H127 H 0.40074 0.47918 0.95786 0.0
H128 H 0.46453 0.31319 0.93919 0.0
H129 H 0.43784 0.36633 0.95337 0.0
H130 H 0.54633 0.48304 -0.00608 0.0
C131 C 0.41408 0.55772 0.98112 0.0
C132 C 0.43304 0.48103 0.96565 0.0
C133 C 0.39311 0.5828 -0.00874 0.0
C134 C 0.4914 0.34679 0.94332 0.0
C135 C 0.47599 0.37743 0.95132 0.0
C136 C 0.51504 0.48249 0.9856 0.0
C137 C 0.43436 0.5375 -0.00385 0.0
C138 C 0.45525 0.50955 0.9854 0.0
C139 C 0.50926 0.42133 0.95718 0.0
C140 C 0.49216 0.45329 0.9662 0.0
H141 H 0.41256 0.57241 0.05136 0.0
H142 H 0.44807 0.5277 0.03374 0.0
H143 H 0.51525 0.53235 0.01007 0.0
H144 H 0.61214 0.41363 0.94526 0.0
H145 H 0.58508 0.46756 0.95895 0.0
C146 C 0.13388 0.56531 0.44163 0.0
C147 C 0.16049 0.59215 0.46113 0.0
C148 C 0.08572 0.53418 0.44511 0.0
C149 C -0.00104 0.4705 0.49376 0.0
H150 H 0.90218 0.46141 0.44794 0.0
C151 C 0.79912 0.38724 0.51939 0.0
C152 C 0.76617 0.35964 0.50206 0.0
C153 C 0.84733 0.41278 0.51302 0.0
C154 C 0.92889 0.46312 0.46072 0.0
H155 H 0.1571 0.60756 0.49948 0.0
H156 H 0.07364 0.55383 0.50539 0.0
H157 H -0.01329 0.51112 0.43899 0.0
H158 H 0.75812 0.33739 0.46434 0.0
H159 H 0.84261 0.38205 0.45328 0.0
H160 H 0.94137 0.42314 0.51566 0.0
C161 C 0.09002 0.55629 0.48752 0.0
C162 C -0.02276 0.49154 0.45559 0.0
C163 C 0.13786 0.58736 0.48406 0.0
C164 C 0.78257 0.35831 0.47815 0.0
C165 C 0.83089 0.38402 0.47176 0.0
C166 C 0.95077 0.44219 0.49887 0.0
C167 C 0.06347 0.52917 0.46817 0.0
C168 C 0.01266 0.49615 0.47231 0.0
C169 C 0.86379 0.41138 0.48917 0.0
C170 C 0.91513 0.43881 0.48265 0.0
H171 H 0.15024 0.56819 0.42374 0.0
H172 H 0.06614 0.51358 0.42989 0.0
H173 H 0.02554 0.47264 0.50675 0.0
H174 H 0.78776 0.38923 0.53794 0.0
H175 H 0.87166 0.4341 0.52675 0.0
C176 C 0.55505 0.14222 0.96323 0.0
C177 C 0.6011 0.16324 0.9526 0.0
C178 C 0.53765 0.09994 0.9735 0.0
C179 C 0.55622 -0.0007 0.97419 0.0
H180 H 0.47007 0.97068 0.03027 0.0
C181 C 0.4701 0.82831 0.02549 0.0
C182 C 0.41978 0.80887 0.02633 0.0
C183 C 0.4972 0.87251 0.0178 0.0
C184 C 0.49424 0.97833 0.01467 0.0
H185 H 0.66524 0.15658 0.94443 0.0
H186 H 0.6353 0.08283 0.96306 0.0
H187 H 0.50965 0.04678 0.01484 0.0
H188 H 0.35836 0.82041 0.02021 0.0
H189 H 0.40571 0.89782 0.00749 0.0
H190 H 0.54073 0.9304 0.97444 0.0
C191 C 0.61225 0.09875 0.96302 0.0
C192 C 0.51666 0.0218 0.00568 0.0
C193 C 0.62951 0.14105 0.95243 0.0
C194 C 0.39708 0.83448 0.01968 0.0
C195 C 0.42411 0.87877 0.01252 0.0
C196 C 0.53429 0.95585 0.98348 0.0
C197 C 0.5661 0.07774 0.97376 0.0
C198 C 0.54684 0.03261 0.98488 0.0
C199 C 0.47433 0.8981 0.01142 0.0
C200 C 0.5022 0.94486 0.0034 0.0
H201 H 0.53208 0.15826 0.96342 0.0
H202 H 0.50148 0.08445 0.98095 0.0
H203 H 0.57893 0.00625 0.95806 0.0
H204 H 0.48844 0.80919 0.03044 0.0
H205 H 0.53593 0.88686 0.0171 0.0
C206 C 0.52746 0.37186 0.48778 0.0
C207 C 0.54706 0.36992 0.51034 0.0
C208 C 0.50712 0.40034 0.48448 0.0
C209 C 0.50595 0.50185 0.50808 0.0
H210 H 0.38862 0.45817 0.47123 0.0
C211 C 0.4035 0.60508 0.4924 0.0
C212 C 0.38631 0.60356 0.46869 0.0
C213 C 0.42293 0.57692 0.49898 0.0
C214 C 0.42159 0.47097 0.48138 0.0
H215 H 0.56092 0.39681 0.54712 0.0
H216 H 0.52497 0.44671 0.54128 0.0
H217 H 0.42224 0.40801 0.4805 0.0
H218 H 0.37686 0.57175 0.4332 0.0
H219 H 0.41096 0.52302 0.44465 0.0
H220 H 0.50532 0.56503 0.50874 0.0
C221 C 0.52574 0.42619 0.52616 0.0
C222 C 0.44083 0.44224 0.48672 0.0
C223 C 0.54612 0.3975 0.52951 0.0
C224 C 0.38954 0.5737 0.45165 0.0
C225 C 0.40881 0.54552 0.45824 0.0
C226 C 0.48662 0.53068 0.50275 0.0
C227 C 0.50576 0.42765 0.50362 0.0
C228 C 0.48363 0.45752 0.49976 0.0
C229 C 0.42536 0.54657 0.48202 0.0
C230 C 0.44464 0.51567 0.489 0.0
H231 H 0.52774 0.35131 0.47255 0.0
H232 H 0.49284 0.40129 0.46675 0.0
H233 H 0.53917 0.51467 0.51801 0.0
H234 H 0.40156 0.6277 0.50598 0.0
H235 H 0.43514 0.57828 0.51748 0.0
C236 C 0.15795 0.57219 0.01227 0.0
C237 C 0.16225 0.60698 0.02795 0.0
C238 C 0.1132 0.54236 0.00304 0.0
C239 C -0.01609 0.49593 0.01473 0.0
H240 H 0.97125 0.47815 0.94471 0.0
C241 C 0.79856 0.41124 0.97006 0.0
C242 C 0.79239 0.38369 0.94971 0.0
C243 C 0.84417 0.43707 0.97955 0.0
C244 C 0.97415 0.48205 0.96433 0.0
H245 H 0.12284 0.63692 0.0468 0.0
H246 H 0.04489 0.58442 0.03106 0.0
H247 H 0.05014 0.52367 0.96195 0.0
H248 H 0.82912 0.3614 0.92338 0.0
H249 H 0.90845 0.40534 0.94033 0.0
H250 H 0.90834 0.45394 0.01735 0.0
C251 C 0.07609 0.5804 0.0258 0.0
C252 C 0.0194 0.50823 0.97417 0.0
C253 C 0.12079 0.61059 0.03469 0.0
C254 C 0.83279 0.38259 0.93898 0.0
C255 C 0.87835 0.40799 0.94866 0.0
C256 C 0.93879 0.46928 0.00496 0.0
C257 C 0.0719 0.5463 0.00969 0.0
C258 C 0.02459 0.51588 -0.00057 0.0
C259 C 0.88466 0.43551 0.96912 0.0
C260 C 0.93315 0.46246 0.97959 0.0
H261 H 0.18927 0.56863 0.0067 0.0
H262 H 0.11085 0.51618 -0.00926 0.0
H263 H -0.01296 0.5009 0.03431 0.0
H264 H 0.76814 0.413 0.97863 0.0
H265 H 0.84763 0.45855 -0.00502 0.0
C266 C 0.52401 0.12818 0.52651 0.0
C267 C 0.57275 0.15356 0.53186 0.0
C268 C 0.50657 0.08447 0.51821 0.0
C269 C 0.54111 0.01166 0.484 0.0
H270 H 0.42176 0.91835 0.50994 0.0
C271 C 0.44979 0.83075 0.44538 0.0
C272 C 0.39956 0.81066 0.44404 0.0
C273 C 0.47485 0.87191 0.45711 0.0
C274 C 0.45492 0.94411 0.50234 0.0
H275 H 0.64149 0.15313 0.53303 0.0
H276 H 0.61086 0.07638 0.51793 0.0
H277 H 0.45866 -0.009 0.5298 0.0
H278 H 0.33639 0.81871 0.4528 0.0
H279 H 0.3799 0.89062 0.47254 0.0
H280 H 0.53638 0.96531 0.45593 0.0
C281 C 0.58632 0.0905 0.52038 0.0
C282 C 0.47614 -0.01444 0.51382 0.0
C283 C 0.6037 0.13418 0.52911 0.0
C284 C 0.37507 0.83313 0.45379 0.0
C285 C 0.4 0.8742 0.4653 0.0
C286 C 0.51961 0.97018 0.47233 0.0
C287 C 0.5376 0.0654 0.51478 0.0
C288 C 0.51885 0.01999 0.50447 0.0
C289 C 0.45005 0.89367 0.46757 0.0
C290 C 0.47564 0.93632 0.48106 0.0
H291 H 0.49935 0.14226 0.5285 0.0
H292 H 0.46895 0.06597 0.51379 0.0
H293 H 0.57392 0.03785 0.47636 0.0
H294 H 0.46958 0.81409 0.43806 0.0
H295 H 0.5134 0.88601 0.45859 0.0
loop_
_geom_bond_atom_site_label_1
_geom_bond_atom_site_label_2
_geom_bond_distance
_geom_bond_site_symmetry_2
_ccdc_geom_bond_type
C0 O1 1.306 . S
C0 O3 1.160 . S
O1 C0 1.306 . S
O1 Cd2 2.228 . S
Cd2 O1 2.228 . S
Cd2 O6 2.273 . S
Cd2 O10 2.277 . S
O3 C0 1.160 . S
O3 Cd4 2.203 . S
Cd4 O3 2.203 . S
Cd4 O6 2.411 . S
Cd4 O7 2.333 . S
Cd4 O8 2.352 . S
Cd4 O12 2.277 . S
Cd4 O13 2.356 . S
C5 O10 1.209 . S
C5 O12 1.226 . S
O6 Cd2 2.273 . S
O6 Cd4 2.411 . S
O6 C9 1.320 . S
O7 Cd4 2.333 . S
O7 C9 1.214 . S
O8 Cd4 2.352 . S
O8 C11 1.258 . S
C9 O6 1.320 . S
C9 O7 1.214 . S
O10 Cd2 2.277 . S
O10 C5 1.209 . S
C11 O8 1.258 . S
C11 O13 1.282 . S
O12 Cd4 2.277 . S
O12 C5 1.226 . S
O13 Cd4 2.356 . S
O13 C11 1.282 . S
C14 O15 1.306 . S
C14 O17 1.160 . S
O15 C14 1.306 . S
O15 Cd16 2.228 . S
Cd16 O15 2.228 . S
Cd16 O20 2.273 . S
Cd16 O24 2.277 . S
O17 C14 1.160 . S
O17 Cd18 2.203 . S
Cd18 O17 2.203 . S
Cd18 O20 2.411 . S
Cd18 O21 2.333 . S
Cd18 O22 2.352 . S
Cd18 O26 2.277 . S
Cd18 O27 2.356 . S
C19 O24 1.209 . S
C19 O26 1.226 . S
O20 Cd16 2.273 . S
O20 Cd18 2.411 . S
O20 C23 1.320 . S
O21 Cd18 2.333 . S
O21 C23 1.214 . S
O22 Cd18 2.352 . S
O22 C25 1.258 . S
C23 O20 1.320 . S
C23 O21 1.214 . S
O24 Cd16 2.277 . S
O24 C19 1.209 . S
C25 O22 1.258 . S
C25 O27 1.282 . S
O26 Cd18 2.277 . S
O26 C19 1.226 . S
O27 Cd18 2.356 . S
O27 C25 1.282 . S
C28 O29 1.306 . S
C28 O31 1.160 . S
O29 C28 1.306 . S
O29 Cd30 2.228 . S
Cd30 O29 2.228 . S
Cd30 O34 2.273 . S
Cd30 O38 2.277 . S
O31 C28 1.160 . S
O31 Cd32 2.203 . S
Cd32 O31 2.203 . S
Cd32 O34 2.411 . S
Cd32 O35 2.333 . S
Cd32 O36 2.352 . S
Cd32 O40 2.277 . S
Cd32 O41 2.356 . S
C33 O38 1.209 . S
C33 O40 1.226 . S
O34 Cd30 2.273 . S
O34 Cd32 2.411 . S
O34 C37 1.320 . S
O35 Cd32 2.333 . S
O35 C37 1.214 . S
O36 Cd32 2.352 . S
O36 C39 1.258 . S
C37 O34 1.320 . S
C37 O35 1.214 . S
O38 Cd30 2.277 . S
O38 C33 1.209 . S
C39 O36 1.258 . S
C39 O41 1.282 . S
O40 Cd32 2.277 . S
O40 C33 1.226 . S
O41 Cd32 2.356 . S
O41 C39 1.282 . S
C42 O43 1.306 . S
C42 O45 1.160 . S
O43 C42 1.306 . S
O43 Cd44 2.228 . S
Cd44 O43 2.228 . S
Cd44 O48 2.273 . S
Cd44 O52 2.277 . S
O45 C42 1.160 . S
O45 Cd46 2.203 . S
Cd46 O45 2.203 . S
Cd46 O48 2.411 . S
Cd46 O49 2.333 . S
Cd46 O50 2.352 . S
Cd46 O54 2.277 . S
Cd46 O55 2.356 . S
C47 O52 1.209 . S
C47 O54 1.226 . S
O48 Cd44 2.273 . S
O48 Cd46 2.411 . S
O48 C51 1.320 . S
O49 Cd46 2.333 . S
O49 C51 1.214 . S
O50 Cd46 2.352 . S
O50 C53 1.258 . S
C51 O48 1.320 . S
C51 O49 1.214 . S
O52 Cd44 2.277 . S
O52 C47 1.209 . S
C53 O50 1.258 . S
C53 O55 1.282 . S
O54 Cd46 2.277 . S
O54 C47 1.226 . S
O55 Cd46 2.356 . S
O55 C53 1.282 . S
C56 C57 1.349 . S
C56 C58 1.327 . S
C56 H81 0.950 . S
C57 C56 1.349 . S
C57 C73 1.349 . S
C58 C56 1.327 . S
C58 C77 1.429 . S
C58 H82 0.950 . S
C59 C76 1.574 . S
C59 C78 1.368 . S
C59 H83 0.949 . S
H60 C64 0.949 . S
C61 C62 1.349 . S
C61 C63 1.327 . S
C61 H84 0.950 . S
C62 C61 1.349 . S
C62 C74 1.349 . S
C63 C61 1.327 . S
C63 C79 1.429 . S
C63 H85 0.950 . S
C64 H60 0.949 . S
C64 C72 1.574 . S
C64 C80 1.368 . S
H65 C73 0.950 . S
H66 C71 0.950 . S
H67 C72 0.949 . S
H68 C74 0.950 . S
H69 C75 0.950 . S
H70 C76 0.949 . S
C71 H66 0.950 . S
C71 C73 1.327 . S
C71 C77 1.429 . S
C72 C64 1.574 . S
C72 H67 0.949 . S
C72 C78 1.368 . S
C73 C57 1.349 . S
C73 H65 0.950 . S
C73 C71 1.327 . S
C74 C62 1.349 . S
C74 H68 0.950 . S
C74 C75 1.327 . S
C75 H69 0.950 . S
C75 C74 1.327 . S
C75 C79 1.429 . S
C76 C59 1.574 . S
C76 H70 0.949 . S
C76 C80 1.368 . S
C77 C58 1.429 . S
C77 C71 1.429 . S
C77 C78 1.523 . S
C78 C59 1.368 . S
C78 C72 1.368 . S
C78 C77 1.523 . S
C79 C63 1.429 . S
C79 C75 1.429 . S
C79 C80 1.523 . S
C80 C64 1.368 . S
C80 C76 1.368 . S
C80 C79 1.523 . S
H81 C56 0.950 . S
H82 C58 0.950 . S
H83 C59 0.949 . S
H84 C61 0.950 . S
H85 C63 0.950 . S
C86 C87 1.349 . S
C86 C88 1.327 . S
C86 H111 0.950 . S
C87 C86 1.349 . S
C87 C103 1.349 . S
C88 C86 1.327 . S
C88 C107 1.429 . S
C88 H112 0.950 . S
C89 C106 1.574 . S
C89 C108 1.368 . S
C89 H113 0.949 . S
H90 C94 0.949 . S
C91 C92 1.349 . S
C91 C93 1.327 . S
C91 H114 0.950 . S
C92 C91 1.349 . S
C92 C104 1.349 . S
C93 C91 1.327 . S
C93 C109 1.429 . S
C93 H115 0.950 . S
C94 H90 0.949 . S
C94 C102 1.574 . S
C94 C110 1.368 . S
H95 C103 0.950 . S
H96 C101 0.950 . S
H97 C102 0.949 . S
H98 C104 0.950 . S
H99 C105 0.950 . S
H100 C106 0.949 . S
C101 H96 0.950 . S
C101 C103 1.327 . S
C101 C107 1.429 . S
C102 C94 1.574 . S
C102 H97 0.949 . S
C102 C108 1.368 . S
C103 C87 1.349 . S
C103 H95 0.950 . S
C103 C101 1.327 . S
C104 C92 1.349 . S
C104 H98 0.950 . S
C104 C105 1.327 . S
C105 H99 0.950 . S
C105 C104 1.327 . S
C105 C109 1.429 . S
C106 C89 1.574 . S
C106 H100 0.949 . S
C106 C110 1.368 . S
C107 C88 1.429 . S
C107 C101 1.429 . S
C107 C108 1.523 . S
C108 C89 1.368 . S
C108 C102 1.368 . S
C108 C107 1.523 . S
C109 C93 1.429 . S
C109 C105 1.429 . S
C109 C110 1.523 . S
C110 C94 1.368 . S
C110 C106 1.368 . S
C110 C109 1.523 . S
H111 C86 0.950 . S
H112 C88 0.950 . S
H113 C89 0.949 . S
H114 C91 0.950 . S
H115 C93 0.950 . S
C116 C117 1.349 . S
C116 C118 1.327 . S
C116 H141 0.950 . S
C117 C116 1.349 . S
C117 C133 1.349 . S
C118 C116 1.327 . S
C118 C137 1.429 . S
C118 H142 0.950 . S
C119 C136 1.574 . S
C119 C138 1.368 . S
C119 H143 0.949 . S
H120 C124 0.949 1_554 S
C121 C122 1.349 . S
C121 C123 1.327 . S
C121 H144 0.950 . S
C122 C121 1.349 . S
C122 C134 1.349 . S
C123 C121 1.327 . S
C123 C139 1.429 . S
C123 H145 0.950 . S
C124 H120 0.949 1_556 S
C124 C132 1.574 1_556 S
C124 C140 1.368 . S
H125 C133 0.950 . S
H126 C131 0.945 1_556 S
H127 C132 0.949 . S
H128 C134 0.950 . S
H129 C135 0.950 . S
H130 C136 0.949 . S
C131 H126 0.945 1_554 S
C131 C133 1.330 . S
C131 C137 1.431 . S
C132 C124 1.574 1_554 S
C132 H127 0.949 . S
C132 C138 1.368 1_554 S
C133 C117 1.349 . S
C133 H125 0.950 . S
C133 C131 1.330 . S
C134 C122 1.349 . S
C134 H128 0.950 . S
C134 C135 1.327 . S
C135 H129 0.950 . S
C135 C134 1.327 . S
C135 C139 1.429 . S
C136 C119 1.574 . S
C136 H130 0.949 . S
C136 C140 1.368 . S
C137 C118 1.429 . S
C137 C131 1.431 . S
C137 C138 1.523 1_554 S
C138 C119 1.368 . S
C138 C132 1.368 1_556 S
C138 C137 1.523 1_556 S
C139 C123 1.429 . S
C139 C135 1.429 . S
C139 C140 1.523 . S
C140 C124 1.368 . S
C140 C136 1.368 . S
C140 C139 1.523 . S
H141 C116 0.950 . S
H142 C118 0.950 . S
H143 C119 0.949 . S
H144 C121 0.950 . S
H145 C123 0.950 . S
C146 C147 1.349 . S
C146 C148 1.327 . S
C146 H171 0.950 . S
C147 C146 1.349 . S
C147 C163 1.349 . S
C148 C146 1.327 . S
C148 C167 1.429 . S
C148 H172 0.950 . S
C149 C166 1.574 1_455 S
C149 C168 1.368 . S
C149 H173 0.949 . S
H150 C154 0.949 . S
C151 C152 1.349 . S
C151 C153 1.327 . S
C151 H174 0.950 . S
C152 C151 1.349 . S
C152 C164 1.349 . S
C153 C151 1.327 . S
C153 C169 1.429 . S
C153 H175 0.950 . S
C154 H150 0.949 . S
C154 C162 1.574 1_655 S
C154 C170 1.368 . S
H155 C163 0.950 . S
H156 C161 0.950 . S
H157 C162 0.949 . S
H158 C164 0.950 . S
H159 C165 0.950 . S
H160 C166 0.949 . S
C161 H156 0.950 . S
C161 C163 1.327 . S
C161 C167 1.429 . S
C162 C154 1.574 1_455 S
C162 H157 0.949 . S
C162 C168 1.368 . S
C163 C147 1.349 . S
C163 H155 0.950 . S
C163 C161 1.327 . S
C164 C152 1.349 . S
C164 H158 0.950 . S
C164 C165 1.327 . S
C165 H159 0.950 . S
C165 C164 1.327 . S
C165 C169 1.429 . S
C166 C149 1.574 1_655 S
C166 H160 0.949 . S
C166 C170 1.368 . S
C167 C148 1.429 . S
C167 C161 1.429 . S
C167 C168 1.523 . S
C168 C149 1.368 . S
C168 C162 1.368 . S
C168 C167 1.523 . S
C169 C153 1.429 . S
C169 C165 1.429 . S
C169 C170 1.523 . S
C170 C154 1.368 . S
C170 C166 1.368 . S
C170 C169 1.523 . S
H171 C146 0.950 . S
H172 C148 0.950 . S
H173 C149 0.949 . S
H174 C151 0.950 . S
H175 C153 0.950 . S
C176 C177 1.349 . S
C176 C178 1.327 . S
C176 H201 0.950 . S
C177 C176 1.349 . S
C177 C193 1.349 . S
C178 C176 1.327 . S
C178 C197 1.429 . S
C178 H202 0.950 1_556 S
C179 C196 1.574 1_545 S
C179 C198 1.368 . S
C179 H203 0.949 . S
H180 C184 0.949 . S
C181 C182 1.349 . S
C181 C183 1.327 . S
C181 H204 0.950 . S
C182 C181 1.349 . S
C182 C194 1.349 . S
C183 C181 1.327 . S
C183 C199 1.429 . S
C183 H205 0.950 1_554 S
C184 H180 0.949 . S
C184 C192 1.574 1_565 S
C184 C200 1.368 . S
H185 C193 0.950 . S
H186 C191 0.950 . S
H187 C192 0.949 . S
H188 C194 0.950 . S
H189 C195 0.950 . S
H190 C196 0.949 . S
C191 H186 0.950 . S
C191 C193 1.327 . S
C191 C197 1.429 . S
C192 C184 1.574 1_545 S
C192 H187 0.949 . S
C192 C198 1.368 1_554 S
C193 C177 1.349 . S
C193 H185 0.950 . S
C193 C191 1.327 . S
C194 C182 1.349 . S
C194 H188 0.950 . S
C194 C195 1.327 . S
C195 H189 0.950 . S
C195 C194 1.327 . S
C195 C199 1.429 . S
C196 C179 1.574 1_565 S
C196 H190 0.949 . S
C196 C200 1.368 1_556 S
C197 C178 1.429 . S
C197 C191 1.429 . S
C197 C198 1.523 . S
C198 C179 1.368 . S
C198 C192 1.368 1_556 S
C198 C197 1.523 . S
C199 C183 1.429 . S
C199 C195 1.429 . S
C199 C200 1.523 . S
C200 C184 1.368 . S
C200 C196 1.368 1_554 S
C200 C199 1.523 . S
H201 C176 0.950 . S
H202 C178 0.950 1_554 S
H203 C179 0.949 . S
H204 C181 0.950 . S
H205 C183 0.950 1_556 S
C206 C207 1.349 . S
C206 C208 1.327 . S
C206 H231 0.950 . S
C207 C206 1.349 . S
C207 C223 1.349 . S
C208 C206 1.327 . S
C208 C227 1.429 . S
C208 H232 0.950 . S
C209 C226 1.574 . S
C209 C228 1.368 . S
C209 H233 0.949 . S
H210 C214 0.949 . S
C211 C212 1.349 . S
C211 C213 1.327 . S
C211 H234 0.950 . S
C212 C211 1.349 . S
C212 C224 1.349 . S
C213 C211 1.327 . S
C213 C229 1.429 . S
C213 H235 0.950 . S
C214 H210 0.949 . S
C214 C222 1.574 . S
C214 C230 1.368 . S
H215 C223 0.950 . S
H216 C221 0.950 . S
H217 C222 0.949 . S
H218 C224 0.950 . S
H219 C225 0.950 . S
H220 C226 0.949 . S
C221 H216 0.950 . S
C221 C223 1.327 . S
C221 C227 1.429 . S
C222 C214 1.574 . S
C222 H217 0.949 . S
C222 C228 1.368 . S
C223 C207 1.349 . S
C223 H215 0.950 . S
C223 C221 1.327 . S
C224 C212 1.349 . S
C224 H218 0.950 . S
C224 C225 1.327 . S
C225 H219 0.950 . S
C225 C224 1.327 . S
C225 C229 1.429 . S
C226 C209 1.574 . S
C226 H220 0.949 . S
C226 C230 1.368 . S
C227 C208 1.429 . S
C227 C221 1.429 . S
C227 C228 1.523 . S
C228 C209 1.368 . S
C228 C222 1.368 . S
C228 C227 1.523 . S
C229 C213 1.429 . S
C229 C225 1.429 . S
C229 C230 1.523 . S
C230 C214 1.368 . S
C230 C226 1.368 . S
C230 C229 1.523 . S
H231 C206 0.950 . S
H232 C208 0.950 . S
H233 C209 0.949 . S
H234 C211 0.950 . S
H235 C213 0.950 . S
C236 C237 1.349 . S
C236 C238 1.327 . S
C236 H261 0.950 . S
C237 C236 1.349 . S
C237 C253 1.349 . S
C238 C236 1.327 . S
C238 C257 1.429 . S
C238 H262 0.950 1_554 S
C239 C256 1.574 1_455 S
C239 C258 1.368 . S
C239 H263 0.949 . S
H240 C244 0.949 . S
C241 C242 1.349 1_554 S
C241 C243 1.327 . S
C241 H264 0.950 . S
C242 C241 1.349 1_556 S
C242 C254 1.349 . S
C243 C241 1.327 . S
C243 C259 1.429 1_554 S
C243 H265 0.950 . S
C244 H240 0.949 . S
C244 C252 1.574 1_655 S
C244 C260 1.368 1_556 S
H245 C253 0.950 . S
H246 C251 0.950 . S
H247 C252 0.949 . S
H248 C254 0.950 . S
H249 C255 0.950 . S
H250 C256 0.949 . S
C251 H246 0.950 . S
C251 C253 1.327 . S
C251 C257 1.429 . S
C252 C244 1.574 1_455 S
C252 H247 0.949 . S
C252 C258 1.368 1_556 S
C253 C237 1.349 . S
C253 H245 0.950 . S
C253 C251 1.327 . S
C254 C242 1.349 . S
C254 H248 0.950 . S
C254 C255 1.327 . S
C255 H249 0.950 . S
C255 C254 1.327 . S
C255 C259 1.429 . S
C256 C239 1.574 1_655 S
C256 H250 0.949 . S
C256 C260 1.368 . S
C257 C238 1.429 . S
C257 C251 1.429 . S
C257 C258 1.523 . S
C258 C239 1.368 . S
C258 C252 1.368 1_554 S
C258 C257 1.523 . S
C259 C243 1.429 1_556 S
C259 C255 1.429 . S
C259 C260 1.523 1_556 S
C260 C244 1.368 1_554 S
C260 C256 1.368 . S
C260 C259 1.523 1_554 S
H261 C236 0.950 . S
H262 C238 0.950 1_556 S
H263 C239 0.949 . S
H264 C241 0.950 . S
H265 C243 0.950 . S
C266 C267 1.349 . S
C266 C268 1.327 . S
C266 H291 0.950 . S
C267 C266 1.349 . S
C267 C283 1.349 . S
C268 C266 1.327 . S
C268 C287 1.429 . S
C268 H292 0.950 . S
C269 C286 1.574 1_545 S
C269 C288 1.368 . S
C269 H293 0.949 . S
H270 C274 0.949 . S
C271 C272 1.349 . S
C271 C273 1.327 . S
C271 H294 0.950 . S
C272 C271 1.349 . S
C272 C284 1.349 . S
C273 C271 1.327 . S
C273 C289 1.429 . S
C273 H295 0.950 . S
C274 H270 0.949 . S
C274 C282 1.574 1_565 S
C274 C290 1.368 . S
H275 C283 0.950 . S
H276 C281 0.950 . S
H277 C282 0.949 . S
H278 C284 0.950 . S
H279 C285 0.950 . S
H280 C286 0.949 . S
C281 H276 0.950 . S
C281 C283 1.327 . S
C281 C287 1.429 . S
C282 C274 1.574 1_545 S
C282 H277 0.949 . S
C282 C288 1.368 . S
C283 C267 1.349 . S
C283 H275 0.950 . S
C283 C281 1.327 . S
C284 C272 1.349 . S
C284 H278 0.950 . S
C284 C285 1.327 . S
C285 H279 0.950 . S
C285 C284 1.327 . S
C285 C289 1.429 . S
C286 C269 1.574 1_565 S
C286 H280 0.949 . S
C286 C290 1.368 . S
C287 C268 1.429 . S
C287 C281 1.429 . S
C287 C288 1.523 . S
C288 C269 1.368 . S
C288 C282 1.368 . S
C288 C287 1.523 . S
C289 C273 1.429 . S
C289 C285 1.429 . S
C289 C290 1.523 . S
C290 C274 1.368 . S
C290 C286 1.368 . S
C290 C289 1.523 . S
H291 C266 0.950 . S
H292 C268 0.950 . S
H293 C269 0.949 . S
H294 C271 0.950 . S
H295 C273 0.950 . S
C57 C5 1.578 . S
C62 C39 1.564 . S
C87 C25 1.564 . S
C92 C47 1.577 . S
C117 C11 1.415 . S
C122 C42 1.423 . S
C147 C28 1.664 . S
C152 C19 1.671 . S
C177 C51 1.518 . S
C182 C9 1.518 . S
C207 C14 1.664 . S
C212 C33 1.671 . S
C237 C0 1.424 . S
C242 C53 1.416 . S
C267 C23 1.586 . S
C272 C37 1.586 . S
