# Generated by pormake.
# Topology wjh, (4)-cn, num edge types: 1
# Building blocks:
#     Node 0, Type 0, BuildingBlock: ESEHIV_clean_sbu_0, # of connection points: 4
#     Node 1, Type 0, BuildingBlock: ESEHIV_clean_sbu_0, # of connection points: 4
#     Node 2, Type 0, BuildingBlock: ESEHIV_clean_sbu_0, # of connection points: 4
#     Node 3, Type 0, BuildingBlock: ESEHIV_clean_sbu_0, # of connection points: 4
#     Node 4, Type 0, BuildingBlock: ESEHIV_clean_sbu_0, # of connection points: 4
#     Node 5, Type 0, BuildingBlock: ESEHIV_clean_sbu_0, # of connection points: 4
#     Node 6, Type 0, BuildingBlock: ESEHIV_clean_sbu_0, # of connection points: 4
#     Node 7, Type 0, BuildingBlock: ESEHIV_clean_sbu_0, # of connection points: 4
#     Node 8, Type 0, BuildingBlock: ESEHIV_clean_sbu_0, # of connection points: 4
#     Node 9, Type 0, BuildingBlock: ESEHIV_clean_sbu_0, # of connection points: 4
#     Node 10, Type 0, BuildingBlock: ESEHIV_clean_sbu_0, # of connection points: 4
#     Node 11, Type 0, BuildingBlock: ESEHIV_clean_sbu_0, # of connection points: 4
#     Edge 12, Type (0, 0), BuildingBlock: TEMPAE_clean_linker_10, # of connection points: 2
#     Edge 13, Type (0, 0), BuildingBlock: TEMPAE_clean_linker_10, # of connection points: 2
#     Edge 14, Type (0, 0), BuildingBlock: TEMPAE_clean_linker_10, # of connection points: 2
#     Edge 15, Type (0, 0), BuildingBlock: TEMPAE_clean_linker_10, # of connection points: 2
#     Edge 16, Type (0, 0), BuildingBlock: TEMPAE_clean_linker_10, # of connection points: 2
#     Edge 17, Type (0, 0), BuildingBlock: TEMPAE_clean_linker_10, # of connection points: 2
#     Edge 18, Type (0, 0), BuildingBlock: TEMPAE_clean_linker_10, # of connection points: 2
#     Edge 19, Type (0, 0), BuildingBlock: TEMPAE_clean_linker_10, # of connection points: 2
#     Edge 20, Type (0, 0), BuildingBlock: TEMPAE_clean_linker_10, # of connection points: 2
#     Edge 21, Type (0, 0), BuildingBlock: TEMPAE_clean_linker_10, # of connection points: 2
#     Edge 22, Type (0, 0), BuildingBlock: TEMPAE_clean_linker_10, # of connection points: 2
#     Edge 23, Type (0, 0), BuildingBlock: TEMPAE_clean_linker_10, # of connection points: 2
#     Edge 24, Type (0, 0), BuildingBlock: TEMPAE_clean_linker_10, # of connection points: 2
#     Edge 25, Type (0, 0), BuildingBlock: TEMPAE_clean_linker_10, # of connection points: 2
#     Edge 26, Type (0, 0), BuildingBlock: TEMPAE_clean_linker_10, # of connection points: 2
#     Edge 27, Type (0, 0), BuildingBlock: TEMPAE_clean_linker_10, # of connection points: 2
#     Edge 28, Type (0, 0), BuildingBlock: TEMPAE_clean_linker_10, # of connection points: 2
#     Edge 29, Type (0, 0), BuildingBlock: TEMPAE_clean_linker_10, # of connection points: 2
#     Edge 30, Type (0, 0), BuildingBlock: TEMPAE_clean_linker_10, # of connection points: 2
#     Edge 31, Type (0, 0), BuildingBlock: TEMPAE_clean_linker_10, # of connection points: 2
#     Edge 32, Type (0, 0), BuildingBlock: TEMPAE_clean_linker_10, # of connection points: 2
#     Edge 33, Type (0, 0), BuildingBlock: TEMPAE_clean_linker_10, # of connection points: 2
#     Edge 34, Type (0, 0), BuildingBlock: TEMPAE_clean_linker_10, # of connection points: 2
#     Edge 35, Type (0, 0), BuildingBlock: TEMPAE_clean_linker_10, # of connection points: 2
# Relax obj value: 0.035
# Max RMSD: 0.090
# Mean RMSD: 0.089
data_MOF--net-wjh--node1-ESEHIV_clean_sbu_0--edge1-TEMPAE_clean_linker_10
_symmetry_space_group_name_H-M    P1
_symmetry_Int_Tables_number       1
_symmetry_cell_setting            triclinic
loop_
_symmetry_equiv_pos_as_xyz
'x, y, z'
_cell_length_a     67.279118
_cell_length_b     67.001518
_cell_length_c     29.007671
_cell_angle_alpha  89.923381
_cell_angle_beta   90.131281
_cell_angle_gamma 120.16809
loop_
_atom_site_label
_atom_site_type_symbol
_atom_site_fract_x
_atom_site_fract_y
_atom_site_fract_z
_atom_type_partial_charge
Cu0 Cu 0.54281 0.16712 0.08194 0.0
N1 N 0.51631 0.13782 0.07935 0.0
N2 N 0.49431 0.09924 0.07856 0.0
C3 C 0.51572 0.11756 0.07337 0.0
C4 C 0.48091 0.10838 0.0883 0.0
C5 C 0.49451 0.1321 0.08899 0.0
O6 O 0.55904 0.17196 1.02302 0.0
C7 C 0.57609 0.18135 0.15934 0.0
O8 O 0.59082 0.19983 0.13642 0.0
H9 H 0.53087 0.11621 0.0677 0.0
H10 H 0.48897 0.14423 0.09767 0.0
N11 N 0.53457 0.19006 0.08518 0.0
N12 N 0.53537 0.22349 0.09914 0.0
C13 C 0.54547 0.21063 0.10714 0.0
C14 C 0.51715 0.18994 0.06223 0.0
C15 C 0.51744 0.21026 0.07099 0.0
C16 C 0.56774 0.16048 1.00629 0.0
O17 O 0.56977 0.14564 0.03264 0.0
H18 H 0.56082 0.21618 0.12754 0.0
H19 H 0.50524 0.17614 0.03994 0.0
O20 O 0.55731 0.16661 0.14026 0.0
H21 H 0.46263 0.09864 0.09511 0.0
H22 H 0.50523 0.21474 0.05735 0.0
Cu23 Cu 0.40293 0.55033 0.22534 0.0
N24 N 0.43421 0.5595 0.22371 0.0
N25 N 0.46465 0.5545 0.22585 0.0
C26 C 0.44169 0.54453 0.23073 0.0
C27 C 0.47198 0.57673 0.21491 0.0
C28 C 0.45311 0.57981 0.21378 0.0
O29 O 0.39108 0.53951 0.16338 0.0
C30 C 0.40119 0.53719 0.31338 0.0
O31 O 0.41941 0.55794 0.31196 0.0
H32 H 0.43028 0.52641 0.23809 0.0
H33 H 0.45317 0.59558 0.20556 0.0
N34 N 0.39623 0.57338 0.2404 0.0
N35 N 0.37298 0.58638 0.26291 0.0
C36 C 0.3744 0.56841 0.2459 0.0
C37 C 0.40937 0.59538 0.25441 0.0
C38 C 0.39502 0.60348 0.26833 0.0
C39 C 0.39972 0.55583 0.13388 0.0
O40 O 0.41385 0.57684 0.14877 0.0
H41 H 0.35985 0.55131 0.24024 0.0
H42 H 0.42793 0.60451 0.25641 0.0
O43 O 0.38973 0.52859 0.2764 0.0
H44 H 0.48964 0.58979 0.20818 0.0
H45 H 0.40043 0.62039 0.28249 0.0
Cu46 Cu 0.86206 0.39277 0.40221 0.0
N47 N 0.88936 0.39275 0.41346 0.0
N48 N 0.92712 0.40583 0.41992 0.0
C49 C 0.91069 0.40958 0.40205 0.0
C50 C 0.91549 0.3857 0.44324 0.0
C51 C 0.89225 0.37774 0.4393 0.0
O52 O 0.8662 0.40972 0.34444 0.0
C53 C 0.87045 0.42278 0.47896 0.0
O54 O 0.89004 0.4364 0.45822 0.0
H55 H 0.91396 0.42449 0.38178 0.0
H56 H 0.87846 0.36254 0.4555 0.0
N57 N 0.83791 0.36256 0.39303 0.0
N58 N 0.80651 0.32823 0.40521 0.0
C59 C 0.82411 0.34716 0.42493 0.0
C60 C 0.82881 0.35292 0.35196 0.0
C61 C 0.80938 0.3318 0.35936 0.0
C62 C 0.85068 0.41201 0.32394 0.0
O63 O 0.83104 0.40535 0.34495 0.0
H64 H 0.82625 0.35024 0.46172 0.0
H65 H 0.83538 0.36108 0.31894 0.0
O66 O 0.85546 0.40456 0.45838 0.0
H67 H 0.92315 0.37767 0.46331 0.0
H68 H 0.79798 0.32015 0.33317 0.0
Cu69 Cu 0.46974 0.84884 0.58024 0.0
N70 N 0.46135 0.87143 0.57183 0.0
N71 N 0.46933 0.90805 0.56486 0.0
C72 C 0.47779 0.89359 0.56562 0.0
C73 C 0.44642 0.89434 0.57077 0.0
C74 C 0.4415 0.87167 0.57479 0.0
O75 O 0.48498 0.85019 0.52191 0.0
C76 C 0.47331 0.85721 0.67059 0.0
O77 O 0.4523 0.85181 0.65909 0.0
H78 H 0.4959 0.89909 0.56407 0.0
H79 H 0.42483 0.8567 0.58114 0.0
N80 N 0.44646 0.81796 0.58921 0.0
N81 N 0.43275 0.78062 0.60697 0.0
C82 C 0.45141 0.80099 0.59539 0.0
C83 C 0.42373 0.80808 0.59676 0.0
C84 C 0.41522 0.78507 0.60757 0.0
C85 C 0.47033 0.84166 0.4891 0.0
O86 O 0.44842 0.83224 0.49932 0.0
H87 H 0.46869 0.80391 0.59236 0.0
H88 H 0.41417 0.81708 0.59632 0.0
O89 O 0.48652 0.85717 0.63898 0.0
H90 H 0.43417 0.90028 0.57284 0.0
H91 H 0.39766 0.77291 0.61711 0.0
Cu92 Cu 0.62202 0.47426 0.749 0.0
N93 N 0.59102 0.46517 0.73942 0.0
N94 N 0.56065 0.47015 0.73152 0.0
C95 C 0.58331 0.4802 0.74117 0.0
C96 C 0.55384 0.44777 0.72312 0.0
C97 C 0.57262 0.44473 0.72812 0.0
O98 O 0.63787 0.49015 0.69231 0.0
C99 C 0.61778 0.47958 0.8396 0.0
O100 O 0.59952 0.45969 0.82937 0.0
H101 H 0.5944 0.4984 0.74832 0.0
H102 H 0.57286 0.42885 0.7234 0.0
N103 N 0.62874 0.45067 0.76032 0.0
N104 N 0.65142 0.43714 0.78385 0.0
C105 C 0.64761 0.45501 0.78449 0.0
C106 C 0.62003 0.42896 0.74429 0.0
C107 C 0.63426 0.42068 0.7583 0.0
C108 C 0.63223 0.47641 0.65805 0.0
O109 O 0.61738 0.45446 0.66462 0.0
H110 H 0.65916 0.47158 0.80004 0.0
H111 H 0.60508 0.42012 0.7223 0.0
O112 O 0.63129 0.49142 0.80693 0.0
H113 H 0.53654 0.43452 0.71416 0.0
H114 H 0.63251 0.40418 0.74944 0.0
Cu115 Cu 0.16882 0.64069 0.90231 0.0
N116 N 0.14017 0.63907 0.89677 0.0
N117 N 0.10208 0.62475 0.89316 0.0
C118 C 0.11917 0.62111 0.90729 0.0
C119 C 0.11271 0.64589 0.8737 0.0
C120 C 0.13609 0.65466 0.87608 0.0
O121 O 0.17332 0.62612 0.84762 0.0
C122 C 0.16 0.60896 0.97972 0.0
O123 O 0.14612 0.59176 0.95284 0.0
H124 H 0.11642 0.60522 0.92277 0.0
H125 H 0.14913 0.67102 0.86232 0.0
N126 N 0.19282 0.67154 0.90071 0.0
N127 N 0.22612 0.70363 0.91724 0.0
C128 C 0.21067 0.68186 0.93041 0.0
C129 C 0.19734 0.68723 0.86733 0.0
C130 C 0.2177 0.70708 0.87765 0.0
C131 C 0.15745 0.60859 0.82663 0.0
O132 O 0.1371 0.59677 0.84581 0.0
H133 H 0.21246 0.67341 0.96066 0.0
H134 H 0.18705 0.68416 0.83665 0.0
O135 O 0.17103 0.62932 0.96326 0.0
H136 H 0.10416 0.65428 0.85819 0.0
H137 H 0.22614 0.72249 0.85662 0.0
Cu138 Cu 0.86598 0.47259 0.90099 0.0
N139 N 0.89324 0.50097 0.89341 0.0
N140 N 0.93035 0.52854 0.89428 0.0
C141 C 0.915 0.50605 0.90244 0.0
C142 C 0.91781 0.53789 0.87943 0.0
C143 C 0.895 0.52085 0.87865 0.0
O144 O 0.86857 0.45936 0.95955 0.0
C145 C 0.87595 0.45301 0.82184 0.0
O146 O 0.89653 0.4613 0.83991 0.0
H147 H 0.91946 0.49363 0.9153 0.0
H148 H 0.88068 0.52284 0.86802 0.0
N149 N 0.84127 0.47791 0.90586 0.0
N150 N 0.80708 0.47508 0.89427 0.0
C151 C 0.82022 0.46543 0.88667 0.0
C152 C 0.84126 0.49583 0.92677 0.0
C153 C 0.82026 0.49424 0.91934 0.0
C154 C 0.85167 0.44305 0.98098 0.0
O155 O 0.83149 0.43207 0.96063 0.0
H156 H 0.8149 0.45001 0.86633 0.0
H157 H 0.85572 0.50937 0.94529 0.0
O158 O 0.86052 0.45443 0.84458 0.0
H159 H 0.92472 0.55571 0.86916 0.0
H160 H 0.81508 0.50625 0.93125 0.0
Cu161 Cu 0.44074 0.87007 0.07996 0.0
N162 N 0.43461 0.89418 0.07147 0.0
N163 N 0.43878 0.92941 0.06529 0.0
C164 C 0.44909 0.91711 0.07616 0.0
C165 C 0.41702 0.91357 0.05362 0.0
C166 C 0.41451 0.89195 0.05747 0.0
O167 O 0.4565 0.87456 0.13898 0.0
C168 C 0.45619 0.85203 1.0077 0.0
O169 O 0.44163 0.83179 1.02535 0.0
H170 H 0.4669 0.92459 0.08643 0.0
H171 H 0.39909 0.87573 0.05033 0.0
N172 N 0.41257 0.8422 0.08348 0.0
N173 N 0.37716 0.81281 0.06849 0.0
C174 C 0.39595 0.83159 0.05123 0.0
C175 C 0.40404 0.82958 0.12206 0.0
C176 C 0.38229 0.81152 0.113 0.0
C177 C 0.46721 0.86417 0.15081 0.0
O178 O 0.46945 0.85078 0.12075 0.0
H179 H 0.39729 0.83798 1.01642 0.0
H180 H 0.41288 0.83357 0.15488 0.0
O181 O 0.45894 0.87024 0.02735 0.0
H182 H 0.40373 0.9173 0.04346 0.0
H183 H 0.37104 0.79851 0.1374 0.0
Cu184 Cu 0.59159 0.44461 0.24631 0.0
N185 N 0.56432 0.44478 0.23629 0.0
N186 N 0.53982 0.45795 0.22904 0.0
C187 C 0.56144 0.4632 0.24006 0.0
C188 C 0.52872 0.43529 0.218 0.0
C189 C 0.54388 0.42722 0.22252 0.0
O190 O 0.60287 0.4589 0.30626 0.0
C191 C 0.62422 0.45643 0.17189 0.0
O192 O 0.62625 0.43875 0.18485 0.0
H193 H 0.57513 0.48022 0.24977 0.0
H194 H 0.54031 0.40983 0.21601 0.0
N195 N 0.58504 0.41387 0.25025 0.0
N196 N 0.57511 0.37716 0.23579 0.0
C197 C 0.58087 0.39796 0.21727 0.0
C198 C 0.58176 0.40268 0.29055 0.0
C199 C 0.57563 0.38014 0.28181 0.0
C200 C 0.62343 0.47307 0.31847 0.0
O201 O 0.6401 0.48011 0.28813 0.0
H202 H 0.58142 0.40133 0.18065 0.0
H203 H 0.58337 0.41038 0.3241 0.0
O204 O 0.61172 0.46193 0.19528 0.0
H205 H 0.51086 0.42518 0.20778 0.0
H206 H 0.57187 0.36691 0.30736 0.0
Cu207 Cu 0.1632 0.55782 0.40023 0.0
N208 N 0.13558 0.5303 0.38958 0.0
N209 N 0.0984 0.50315 0.38543 0.0
C210 C 0.11421 0.52313 0.40565 0.0
C211 C 0.11037 0.49758 0.35604 0.0
C212 C 0.13317 0.51432 0.35861 0.0
O213 O 0.16241 0.57093 0.4611 0.0
C214 C 0.15227 0.57737 0.32313 0.0
O215 O 0.13135 0.56674 0.34012 0.0
H216 H 0.11021 0.53283 0.43 0.0
H217 H 0.14705 0.51515 0.33837 0.0
N218 N 0.18674 0.55068 0.3986 0.0
N219 N 0.22054 0.55298 0.38461 0.0
C220 C 0.20819 0.56383 0.38193 0.0
C221 C 0.18537 0.53082 0.41211 0.0
C222 C 0.20613 0.53218 0.4036 0.0
C223 C 0.17529 0.57169 0.49443 0.0
O224 O 0.19039 0.56515 0.48685 0.0
H225 H 0.21452 0.58099 0.36818 0.0
H226 H 0.1702 0.51628 0.42664 0.0
O227 O 0.16848 0.57754 0.34633 0.0
H228 H 0.10311 0.48255 0.33388 0.0
H229 H 0.21002 0.51858 0.40983 0.0
Cu230 Cu 0.60684 0.14692 0.58129 0.0
N231 N 0.60041 0.11639 0.58794 0.0
N232 N 0.58152 0.07767 0.58914 0.0
C233 C 0.58098 0.09681 0.57604 0.0
C234 C 0.60225 0.08567 0.60946 0.0
C235 C 0.61379 0.10945 0.6087 0.0
O236 O 0.59537 0.15535 0.63608 0.0
C237 C 0.59805 0.16822 0.5029 0.0
O238 O 0.60646 0.18694 0.52835 0.0
H239 H 0.56641 0.09666 0.55979 0.0
H240 H 0.63063 0.12092 0.62302 0.0
N241 N 0.63868 0.167 0.5829 0.0
N242 N 0.67385 0.19583 0.56559 0.0
C243 C 0.65289 0.18032 0.54896 0.0
C244 C 0.65118 0.17428 0.62193 0.0
C245 C 0.67283 0.19212 0.6114 0.0
C246 C 0.57959 0.14086 0.66268 0.0
O247 O 0.56709 0.1193 0.64928 0.0
H248 H 0.64759 0.17974 0.5135 0.0
H249 H 0.64454 0.16788 0.65603 0.0
O250 O 0.59558 0.14967 0.52052 0.0
H251 H 0.60868 0.07512 0.62402 0.0
H252 H 0.68653 0.20217 0.63566 0.0
Cu253 Cu 0.42786 0.575 0.71423 0.0
N254 N 0.45503 0.57433 0.7052 0.0
N255 N 0.4801 0.56162 0.70197 0.0
C256 C 0.45852 0.55647 0.71318 0.0
C257 C 0.49051 0.58362 0.6865 0.0
C258 C 0.47503 0.59137 0.68853 0.0
O259 O 0.41368 0.55765 0.77005 0.0
C260 C 0.4002 0.54135 0.64745 0.0
O261 O 0.40207 0.52683 0.67508 0.0
H262 H 0.44532 0.53994 0.72624 0.0
H263 H 0.47811 0.60826 0.67854 0.0
N264 N 0.43462 0.60553 0.72299 0.0
N265 N 0.43604 0.63954 0.71548 0.0
C266 C 0.42969 0.61886 0.69572 0.0
C267 C 0.44449 0.61822 0.76092 0.0
C268 C 0.44539 0.63912 0.75645 0.0
C269 C 0.39726 0.5582 0.7905 0.0
O270 O 0.38783 0.56914 0.77095 0.0
H271 H 0.42109 0.61328 0.66272 0.0
H272 H 0.45033 0.61247 0.79014 0.0
O273 O 0.40898 0.56236 0.65959 0.0
H274 H 0.50817 0.59358 0.67505 0.0
H275 H 0.4525 0.653 0.78144 0.0
C276 C 0.60171 0.19117 0.22942 0.0
C277 C 0.57984 0.17863 0.20918 0.0
C278 C 0.605 0.18922 0.27693 0.0
C279 C 0.5859 0.17483 0.30527 0.0
C280 C 0.56379 0.1622 0.28497 0.0
C281 C 0.56109 0.16404 0.23731 0.0
C282 C 0.62894 0.20259 0.29685 0.0
C283 C 0.54285 0.14703 0.31379 0.0
C284 C 0.5945 0.15348 0.42184 0.0
C285 C 0.59396 0.16936 0.45264 0.0
C286 C 0.5923 0.15529 0.37392 0.0
C287 C 0.58889 0.17307 0.35615 0.0
C288 C 0.58791 0.1889 0.38717 0.0
C289 C 0.59075 0.18704 0.43486 0.0
C290 C 0.59394 0.13832 0.34222 0.0
C291 C 0.58375 0.20777 0.36999 0.0
H292 H 0.61631 0.20244 0.20806 0.0
H293 H 0.54406 0.15443 0.22228 0.0
H294 H 0.62973 0.21508 0.3229 0.0
H295 H 0.63335 0.19066 0.31472 0.0
H296 H 0.64212 0.21222 0.27002 0.0
H297 H 0.52682 0.13853 0.29294 0.0
H298 H 0.54497 0.13346 0.33122 0.0
H299 H 0.54089 0.15748 0.34113 0.0
H300 H 0.59727 0.13994 0.43511 0.0
H301 H 0.59029 0.19938 0.45832 0.0
H302 H 0.60796 0.14774 0.31689 0.0
H303 H 0.57773 0.12846 0.3224 0.0
H304 H 0.59728 0.12591 0.36126 0.0
H305 H 0.5977 0.21931 0.34613 0.0
H306 H 0.58289 0.21834 0.39854 0.0
H307 H 0.56739 0.20012 0.35028 0.0
C308 C 0.37189 0.51841 0.3757 0.0
C309 C 0.39406 0.52603 0.35883 0.0
C310 C 0.36748 0.51536 0.42345 0.0
C311 C 0.38573 0.52023 0.45441 0.0
C312 C 0.40746 0.52556 0.43672 0.0
C313 C 0.41131 0.52839 0.38917 0.0
C314 C 0.34392 0.50904 0.44078 0.0
C315 C 0.42743 0.53075 0.46815 0.0
C316 C 0.39391 0.55125 0.56765 0.0
C317 C 0.3917 0.53448 0.5995 0.0
C318 C 0.39019 0.54624 0.52043 0.0
C319 C 0.3838 0.5238 0.50456 0.0
C320 C 0.37944 0.50623 0.53693 0.0
C321 C 0.38363 0.51182 0.58405 0.0
C322 C 0.39501 0.56555 0.48724 0.0
C323 C 0.37191 0.48194 0.52161 0.0
H324 H 0.35859 0.5168 0.35225 0.0
H325 H 0.42845 0.53425 0.37594 0.0
H326 H 0.33921 0.49771 0.47155 0.0
H327 H 0.34387 0.52497 0.45096 0.0
H328 H 0.33061 0.5002 0.41372 0.0
H329 H 0.44237 0.53221 0.44892 0.0
H330 H 0.43302 0.5473 0.48638 0.0
H331 H 0.42224 0.5171 0.49467 0.0
H332 H 0.39986 0.56874 0.57921 0.0
H333 H 0.38153 0.49863 0.60843 0.0
H334 H 0.38058 0.56003 0.46252 0.0
H335 H 0.41068 0.56999 0.46698 0.0
H336 H 0.39773 0.58137 0.50521 0.0
H337 H 0.3591 0.47651 0.4933 0.0
H338 H 0.36436 0.46944 0.5505 0.0
H339 H 0.38697 0.4812 0.5083 0.0
C340 C 0.85444 0.44591 0.74696 0.0
C341 C 0.87186 0.44535 0.77275 0.0
C342 C 0.85224 0.44155 0.69915 0.0
C343 C 0.8675 0.436 0.67654 0.0
C344 C 0.88447 0.43443 0.70281 0.0
C345 C 0.88661 0.43937 0.75035 0.0
C346 C 0.83418 0.44382 0.67253 0.0
C347 C 0.90078 0.42807 0.68048 0.0
C348 C 0.85283 0.40812 0.55701 0.0
C349 C 0.86758 0.42665 0.5285 0.0
C350 C 0.85232 0.41093 0.60507 0.0
C351 C 0.86654 0.43293 0.62518 0.0
C352 C 0.88068 0.45191 0.59625 0.0
C353 C 0.88123 0.44849 0.54848 0.0
C354 C 0.83729 0.39015 0.63453 0.0
C355 C 0.89573 0.47577 0.61591 0.0
H356 H 0.84309 0.45071 0.76377 0.0
H357 H 0.90006 0.43882 0.76994 0.0
H358 H 0.84264 0.45829 0.64761 0.0
H359 H 0.82331 0.42792 0.65232 0.0
H360 H 0.8229 0.44711 0.69539 0.0
H361 H 0.91176 0.42579 0.70613 0.0
H362 H 0.891 0.41183 0.66054 0.0
H363 H 0.91208 0.44178 0.65586 0.0
H364 H 0.84239 0.39111 0.54205 0.0
H365 H 0.89264 0.46292 0.52678 0.0
H366 H 0.82599 0.39365 0.65676 0.0
H367 H 0.84823 0.38648 0.65767 0.0
H368 H 0.82637 0.3745 0.61355 0.0
H369 H 0.88535 0.48074 0.63763 0.0
H370 H 0.90432 0.48901 0.58858 0.0
H371 H 0.90915 0.47586 0.63834 0.0
C372 C 0.46744 0.86938 0.74721 0.0
C373 C 0.47972 0.86199 0.71996 0.0
C374 C 0.46849 0.8693 0.79534 0.0
C375 C 0.4826 0.86206 0.81729 0.0
C376 C 0.49667 0.85649 0.79004 0.0
C377 C 0.49495 0.85636 0.74143 0.0
C378 C 0.4531 0.87536 0.82257 0.0
C379 C 0.51252 0.84943 0.81205 0.0
C380 C 0.48472 0.87443 0.94526 0.0
C381 C 0.46639 0.85351 0.96153 0.0
C382 C 0.49203 0.87681 0.89911 0.0
C383 C 0.48026 0.85808 0.86819 0.0
C384 C 0.46285 0.83648 0.88533 0.0
C385 C 0.45632 0.83441 0.93184 0.0
C386 C 0.51127 0.89985 0.88277 0.0
C387 C 0.44962 0.81608 0.85368 0.0
H388 H 0.45593 0.87416 0.73081 0.0
H389 H 0.50451 0.85065 0.72058 0.0
H390 H 0.44021 0.85997 0.84192 0.0
H391 H 0.46333 0.88905 0.84811 0.0
H392 H 0.4438 0.88146 0.8002 0.0
H393 H 0.52606 0.85126 0.7877 0.0
H394 H 0.52084 0.85989 0.84331 0.0
H395 H 0.50244 0.83108 0.82276 0.0
H396 H 0.49287 0.88919 0.96817 0.0
H397 H 0.44223 0.81815 0.94408 0.0
H398 H 0.50395 0.90924 0.86443 0.0
H399 H 0.52257 0.89751 0.85822 0.0
H400 H 0.52185 0.91074 0.91199 0.0
H401 H 0.43869 0.8196 0.83018 0.0
H402 H 0.43837 0.79994 0.873 0.0
H403 H 0.46156 0.81329 0.832 0.0
C404 C 0.63633 0.45478 0.09113 0.0
C405 C 0.6323 0.46694 0.12567 0.0
C406 C 0.63876 0.46178 0.04481 0.0
C407 C 0.63753 0.48166 0.03285 0.0
C408 C 0.636 0.49537 0.06821 0.0
C409 C 0.63311 0.4877 0.11415 0.0
C410 C 0.64041 0.44665 1.00828 0.0
C411 C 0.63559 0.51716 0.05717 0.0
C412 C 0.64626 0.49718 0.9048 0.0
C413 C 0.62347 0.4851 0.88898 0.0
C414 C 0.65128 0.49749 0.95216 0.0
C415 C 0.63309 0.4852 0.98392 0.0
C416 C 0.61006 0.47432 0.96817 0.0
C417 C 0.60559 0.47459 0.92113 0.0
C418 C 0.67606 0.5098 0.96755 0.0
C419 C 0.59003 0.46095 1.00049 0.0
H420 H 0.63587 0.4388 0.0997 0.0
H421 H 0.63041 0.49744 0.14076 0.0
H422 H 0.624 0.43769 0.98875 0.0
H423 H 0.65425 0.45721 0.98337 0.0
H424 H 0.64384 0.4334 1.02329 0.0
H425 H 0.63908 0.52816 0.08819 0.0
H426 H 0.64846 0.52731 0.03025 0.0
H427 H 0.6184 0.51262 0.04353 0.0
H428 H 0.66017 0.50521 0.8801 0.0
H429 H 0.58792 0.46541 0.90913 0.0
H430 H 0.68207 0.49717 0.97029 0.0
H431 H 0.67809 0.51788 1.00191 0.0
H432 H 0.68729 0.52333 0.94247 0.0
H433 H 0.59101 0.44623 1.01556 0.0
H434 H 0.57316 0.45406 0.98288 0.0
H435 H 0.59074 0.4721 0.02939 0.0
C436 C 0.13911 0.5879 0.25074 0.0
C437 C 0.156 0.58543 0.2743 0.0
C438 C 0.14096 0.59278 0.20321 0.0
C439 C 0.16001 0.59492 0.17817 0.0
C440 C 0.17742 0.59301 0.20197 0.0
C441 C 0.17529 0.58847 0.24971 0.0
C442 C 0.12221 0.5951 0.17955 0.0
C443 C 0.1979 0.59495 0.17669 0.0
C444 C 0.15064 0.58288 0.04882 0.0
C445 C 0.16134 0.60523 0.03014 0.0
C446 C 0.15062 0.57929 0.09672 0.0
C447 C 0.1613 0.59849 0.12696 0.0
C448 C 0.17245 0.62108 0.10826 0.0
C449 C 0.17246 0.62417 0.06023 0.0
C450 C 0.13879 0.5549 0.11505 0.0
C451 C 0.18386 0.64206 0.13909 0.0
H452 H 0.12416 0.58563 0.26935 0.0
H453 H 0.18835 0.58639 0.26739 0.0
H454 H 0.12973 0.6117 0.16053 0.0
H455 H 0.11332 0.58105 0.15392 0.0
H456 H 0.10925 0.59432 0.20425 0.0
H457 H 0.21043 0.59404 0.20037 0.0
H458 H 0.19203 0.58077 0.15112 0.0
H459 H 0.20683 0.61144 0.15734 0.0
H460 H 0.14207 0.56812 1.02603 0.0
H461 H 0.18074 0.64154 0.04637 0.0
H462 H 0.124 0.55184 0.1369 0.0
H463 H 0.15079 0.5523 0.13711 0.0
H464 H 0.13241 0.54185 0.08701 0.0
H465 H 0.17082 0.6424 0.16193 0.0
H466 H 0.19252 0.65843 0.11918 0.0
H467 H 0.19676 0.64121 0.16162 0.0
C468 C 0.55157 0.33482 0.22977 0.0
C469 C 0.56919 0.35586 0.21245 0.0
C470 C 0.54639 0.31369 0.2096 0.0
C471 C 0.55947 0.31348 0.17161 0.0
C472 C 0.5772 0.33472 0.15366 0.0
C473 C 0.58167 0.35569 0.17399 0.0
C474 C 0.52697 0.29157 0.22918 0.0
C475 C 0.5918 0.33526 0.11373 0.0
C476 C 0.55841 0.2566 0.15198 0.0
C477 C 0.54227 0.24652 0.11608 0.0
C478 C 0.56472 0.27865 0.1693 0.0
C479 C 0.55446 0.29095 0.15094 0.0
C480 C 0.53843 0.2811 0.11443 0.0
C481 C 0.53272 0.25924 0.09725 0.0
C482 C 0.5821 0.28862 0.20792 0.0
C483 C 0.52686 0.29345 0.09414 0.0
H484 H 0.54174 0.33494 0.25919 0.0
H485 H 0.59545 0.37192 0.16089 0.0
H486 H 0.51428 0.28171 0.20172 0.0
H487 H 0.53371 0.28055 0.2423 0.0
H488 H 0.51795 0.29475 0.25777 0.0
H489 H 0.60474 0.35316 0.1035 0.0
H490 H 0.6009 0.32587 0.12312 0.0
H491 H 0.58078 0.32632 0.08349 0.0
H492 H 0.56593 0.2472 0.1673 0.0
H493 H 0.52063 0.25219 0.06904 0.0
H494 H 0.57374 0.29024 0.23947 0.0
H495 H 0.59608 0.3062 0.19864 0.0
H496 H 0.58983 0.27776 0.21606 0.0
H497 H 0.51669 0.296 0.12115 0.0
H498 H 0.51521 0.28378 0.06505 0.0
H499 H 0.53994 0.31081 0.08165 0.0
C500 C 0.35226 0.59976 0.31341 0.0
C501 C 0.3521 0.58576 0.27727 0.0
C502 C 0.33161 0.5972 0.33097 0.0
C503 C 0.31032 0.5801 0.31225 0.0
C504 C 0.31012 0.56666 0.2745 0.0
C505 C 0.33097 0.5698 0.25728 0.0
C506 C 0.33254 0.61215 0.37075 0.0
C507 C 0.28784 0.54819 0.25351 0.0
C508 C 0.25664 0.55167 0.38652 0.0
C509 C 0.24379 0.56121 0.36882 0.0
C510 C 0.27858 0.55821 0.36937 0.0
C511 C 0.28815 0.57495 0.33393 0.0
C512 C 0.27574 0.58537 0.31714 0.0
C513 C 0.25368 0.5783 0.33459 0.0
C514 C 0.29118 0.54659 0.38818 0.0
C515 C 0.28545 0.60346 0.27971 0.0
H516 H 0.36842 0.6121 0.32924 0.0
H517 H 0.33065 0.55932 0.22861 0.0
H518 H 0.3215 0.61973 0.36362 0.0
H519 H 0.32579 0.60143 0.40228 0.0
H520 H 0.35032 0.62634 0.37784 0.0
H521 H 0.29067 0.53999 0.22289 0.0
H522 H 0.27803 0.53457 0.27951 0.0
H523 H 0.27701 0.55559 0.24312 0.0
H524 H 0.24949 0.53887 0.41364 0.0
H525 H 0.24397 0.58573 0.32034 0.0
H526 H 0.30853 0.55972 0.40048 0.0
H527 H 0.29357 0.53663 0.36037 0.0
H528 H 0.28182 0.53465 0.41709 0.0
H529 H 0.30315 0.61717 0.28875 0.0
H530 H 0.27474 0.61155 0.2737 0.0
H531 H 0.28652 0.5955 0.247 0.0
C532 C 0.70156 0.21051 0.50142 0.0
C533 C 0.69242 0.21462 0.54117 0.0
C534 C 0.72051 0.2287 0.47878 0.0
C535 C 0.72996 0.25159 0.49549 0.0
C536 C 0.72029 0.25581 0.53503 0.0
C537 C 0.70189 0.23721 0.55779 0.0
C538 C 0.73069 0.22337 0.43753 0.0
C539 C 0.72926 0.27998 0.55312 0.0
C540 C 0.79115 0.29816 0.46539 0.0
C541 C 0.78744 0.3091 0.42795 0.0
C542 C 0.77266 0.27904 0.48697 0.0
C543 C 0.74987 0.2712 0.47165 0.0
C544 C 0.74608 0.28251 0.43424 0.0
C545 C 0.76494 0.30108 0.41242 0.0
C546 C 0.77751 0.26711 0.52589 0.0
C547 C 0.72207 0.27525 0.41778 0.0
H548 H 0.69425 0.19296 0.48895 0.0
H549 H 0.69459 0.2403 0.58835 0.0
H550 H 0.72967 0.23265 0.40675 0.0
H551 H 0.74916 0.22953 0.44385 0.0
H552 H 0.72177 0.20461 0.4297 0.0
H553 H 0.71919 0.2804 0.58303 0.0
H554 H 0.74747 0.28754 0.56386 0.0
H555 H 0.7287 0.29115 0.52546 0.0
H556 H 0.8086 0.30429 0.47703 0.0
H557 H 0.76211 0.30973 0.38372 0.0
H558 H 0.76981 0.24845 0.51809 0.0
H559 H 0.76947 0.26852 0.55813 0.0
H560 H 0.79623 0.27456 0.53208 0.0
H561 H 0.71323 0.257 0.40632 0.0
H562 H 0.72205 0.2861 0.38881 0.0
H563 H 0.71188 0.27643 0.4466 0.0
C564 C 0.41137 0.73816 0.62054 0.0
C565 C 0.43219 0.75933 0.61957 0.0
C566 C 0.41061 0.71758 0.63417 0.0
C567 C 0.43117 0.71799 0.64681 0.0
C568 C 0.45226 0.73915 0.64513 0.0
C569 C 0.4525 0.75946 0.6319 0.0
C570 C 0.38773 0.69542 0.63574 0.0
C571 C 0.47463 0.74045 0.65819 0.0
C572 C 0.43015 0.67271 0.72794 0.0
C573 C 0.43329 0.65821 0.69764 0.0
C574 C 0.42873 0.69174 0.71171 0.0
C575 C 0.43067 0.69662 0.66387 0.0
C576 C 0.43332 0.68175 0.63292 0.0
C577 C 0.43448 0.66267 0.65014 0.0
C578 C 0.42561 0.7069 0.74596 0.0
C579 C 0.43567 0.68642 0.58174 0.0
H580 H 0.39557 0.73759 0.61066 0.0
H581 H 0.4687 0.77553 0.63222 0.0
H582 H 0.38829 0.6821 0.61404 0.0
H583 H 0.38405 0.6887 0.67155 0.0
H584 H 0.37337 0.6978 0.62365 0.0
H585 H 0.48972 0.75793 0.6526 0.0
H586 H 0.4742 0.73582 0.69506 0.0
H587 H 0.47701 0.72782 0.63773 0.0
H588 H 0.42879 0.66917 0.76459 0.0
H589 H 0.43705 0.65166 0.62655 0.0
H590 H 0.41055 0.70857 0.73624 0.0
H591 H 0.44092 0.7245 0.74552 0.0
H592 H 0.42311 0.70005 0.78168 0.0
H593 H 0.42105 0.6881 0.56881 0.0
H594 H 0.43634 0.67258 0.56201 0.0
H595 H 0.45162 0.70304 0.57479 0.0
C596 C 0.67895 0.44505 0.84664 0.0
C597 C 0.67166 0.43762 0.80145 0.0
C598 C 0.70024 0.44872 0.86273 0.0
C599 C 0.71496 0.44565 0.83232 0.0
C600 C 0.70734 0.43752 0.78691 0.0
C601 C 0.6856 0.4333 0.77223 0.0
C602 C 0.70732 0.45673 0.91176 0.0
C603 C 0.72268 0.43464 0.75296 0.0
C604 C 0.77882 0.48327 0.85809 0.0
C605 C 0.78421 0.46739 0.87732 0.0
C606 C 0.75653 0.47626 0.84213 0.0
C607 C 0.73897 0.45287 0.84682 0.0
C608 C 0.74435 0.43673 0.86634 0.0
C609 C 0.76702 0.44414 0.88071 0.0
C610 C 0.75178 0.49393 0.82037 0.0
C611 C 0.72603 0.41181 0.87317 0.0
H612 H 0.66808 0.4484 0.86905 0.0
H613 H 0.68003 0.42791 0.73707 0.0
H614 H 0.71374 0.44622 0.92883 0.0
H615 H 0.72156 0.47492 0.91185 0.0
H616 H 0.6929 0.45562 0.93241 0.0
H617 H 0.71363 0.42663 0.72016 0.0
H618 H 0.7378 0.45178 0.7451 0.0
H619 H 0.72927 0.42385 0.76798 0.0
H620 H 0.79221 0.50119 0.85506 0.0
H621 H 0.77121 0.43193 0.89595 0.0
H622 H 0.73933 0.49608 0.84173 0.0
H623 H 0.7439 0.48793 0.78582 0.0
H624 H 0.76762 0.51105 0.8166 0.0
H625 H 0.71245 0.41082 0.8963 0.0
H626 H 0.73305 0.40139 0.88835 0.0
H627 H 0.71771 0.404 0.83979 0.0
C628 C 0.26075 0.71129 0.96157 0.0
C629 C 0.24782 0.71947 0.93887 0.0
C630 C 0.28222 0.7266 0.98152 0.0
C631 C 0.29085 0.75073 0.97942 0.0
C632 C 0.27776 0.75907 0.95684 0.0
C633 C 0.25653 0.74338 0.93659 0.0
C634 C 0.29571 0.71696 1.00472 0.0
C635 C 0.28607 0.78459 0.95453 0.0
C636 C 0.33488 0.78813 0.07022 0.0
C637 C 0.35559 0.79781 0.04555 0.0
C638 C 0.31374 0.77305 0.04901 0.0
C639 C 0.31323 0.76718 1.00197 0.0
C640 C 0.33409 0.77696 0.97676 0.0
C641 C 0.35499 0.79231 0.99875 0.0
C642 C 0.29194 0.7634 0.07702 0.0
C643 C 0.33435 0.77094 0.92673 0.0
H644 H 0.25429 0.69288 0.9629 0.0
H645 H 0.24652 0.7498 0.91951 0.0
H646 H 0.31299 0.72444 0.98884 0.0
H647 H 0.29829 0.72187 0.04168 0.0
H648 H 0.28697 0.69785 1.0022 0.0
H649 H 0.27392 0.78831 0.93559 0.0
H650 H 0.2884 0.79173 0.9899 0.0
H651 H 0.30305 0.79382 0.93725 0.0
H652 H 0.33517 0.79259 0.10618 0.0
H653 H 0.37095 0.79958 0.97965 0.0
H654 H 0.28339 0.74429 0.07831 0.0
H655 H 0.27975 0.76779 0.06041 0.0
H656 H 0.2952 0.77011 0.11289 0.0
H657 H 0.32712 0.75205 0.92313 0.0
H658 H 0.35196 0.77997 0.91197 0.0
H659 H 0.32333 0.77556 0.90614 0.0
C660 C 0.55865 0.13212 0.73826 0.0
C661 C 0.57769 0.14711 0.71126 0.0
C662 C 0.55773 0.1361 0.78566 0.0
C663 C 0.57642 0.15545 0.80714 0.0
C664 C 0.59543 0.17103 0.77985 0.0
C665 C 0.59578 0.16676 0.73229 0.0
C666 C 0.53695 0.1192 0.81305 0.0
C667 C 0.61581 0.19176 0.80121 0.0
C668 C 0.56508 0.17291 0.92545 0.0
C669 C 0.57237 0.1614 0.95566 0.0
C670 C 0.56684 0.17164 0.87723 0.0
C671 C 0.57632 0.15874 0.85838 0.0
C672 C 0.58454 0.14787 0.88871 0.0
C673 C 0.58238 0.14923 0.93678 0.0
C674 C 0.5577 0.18339 0.8464 0.0
C675 C 0.59503 0.13417 0.87033 0.0
H676 H 0.54456 0.11691 0.72249 0.0
H677 H 0.61068 0.17837 0.71198 0.0
H678 H 0.54207 0.11046 0.83905 0.0
H679 H 0.52969 0.12845 0.83201 0.0
H680 H 0.52327 0.10582 0.79087 0.0
H681 H 0.62866 0.20292 0.77505 0.0
H682 H 0.61008 0.20224 0.82054 0.0
H683 H 0.62433 0.18594 0.82628 0.0
H684 H 0.55724 0.18231 0.93941 0.0
H685 H 0.58813 0.14031 0.95958 0.0
H686 H 0.54275 0.1702 0.8265 0.0
H687 H 0.57098 0.19468 0.82113 0.0
H688 H 0.5522 0.19396 0.86622 0.0
H689 H 0.58182 0.11887 0.85125 0.0
H690 H 0.60212 0.12816 0.89822 0.0
H691 H 0.60901 0.14477 0.84567 0.0
C692 C 0.37522 0.55282 0.8636 0.0
C693 C 0.39177 0.55026 0.83911 0.0
C694 C 0.37282 0.54938 0.91155 0.0
C695 C 0.38741 0.54339 0.93567 0.0
C696 C 0.40283 0.53896 0.91061 0.0
C697 C 0.40478 0.54238 0.86266 0.0
C698 C 0.35596 0.55402 0.9368 0.0
C699 C 0.41874 0.53257 0.93482 0.0
C700 C 0.40799 0.57056 0.05336 0.0
C701 C 0.39553 0.55195 0.08349 0.0
C702 C 0.40534 0.56787 1.00552 0.0
C703 C 0.38964 0.546 0.98681 0.0
C704 C 0.37672 0.5271 1.01685 0.0
C705 C 0.37989 0.53026 0.06497 0.0
C706 C 0.41963 0.58851 0.97496 0.0
C707 C 0.35967 0.50359 0.99811 0.0
H708 H 0.36487 0.55863 0.84572 0.0
H709 H 0.41747 0.54011 0.84409 0.0
H710 H 0.34664 0.54069 0.96354 0.0
H711 H 0.36544 0.57096 0.95452 0.0
H712 H 0.34322 0.55446 0.913 0.0
H713 H 0.42698 0.52618 0.91035 0.0
H714 H 0.43249 0.54799 0.95274 0.0
H715 H 0.40934 0.51912 0.9613 0.0
H716 H 0.42017 0.5874 0.06709 0.0
H717 H 0.37019 0.51581 0.08798 0.0
H718 H 0.40825 0.59211 0.95306 0.0
H719 H 0.43041 0.5848 0.9516 0.0
H720 H 0.43109 0.60432 0.99503 0.0
H721 H 0.34687 0.50482 0.97594 0.0
H722 H 0.35044 0.49086 1.02595 0.0
H723 H 0.36867 0.49707 0.9762 0.0
C724 C 0.83812 0.41731 0.05082 0.0
C725 C 0.8539 0.43846 0.03053 0.0
C726 C 0.83886 0.41339 0.09838 0.0
C727 C 0.85537 0.43126 0.12687 0.0
C728 C 0.87149 0.45259 0.10648 0.0
C729 C 0.87074 0.45582 0.0586 0.0
C730 C 0.82173 0.39017 0.11824 0.0
C731 C 0.88905 0.4723 0.1355 0.0
C732 C 0.83989 0.42723 0.25468 0.0
C733 C 0.85339 0.4189 0.27439 0.0
C734 C 0.84093 0.43202 0.20712 0.0
C735 C 0.85534 0.42777 0.17806 0.0
C736 C 0.86917 0.41956 0.19788 0.0
C737 C 0.86825 0.41551 0.24574 0.0
C738 C 0.82632 0.44132 0.18785 0.0
C739 C 0.88438 0.41427 0.16827 0.0
H740 H 0.82508 0.40378 0.02945 0.0
H741 H 0.88285 0.47232 0.04341 0.0
H742 H 0.83082 0.38294 0.13798 0.0
H743 H 0.81017 0.39216 0.14262 0.0
H744 H 0.81105 0.3776 0.09115 0.0
H745 H 0.90064 0.48765 0.11442 0.0
H746 H 0.88015 0.4774 0.16103 0.0
H747 H 0.89964 0.4668 0.15515 0.0
H748 H 0.82839 0.42994 0.27649 0.0
H749 H 0.87855 0.40881 0.26047 0.0
H750 H 0.81327 0.42853 0.1639 0.0
H751 H 0.83715 0.45728 0.16777 0.0
H752 H 0.81731 0.44524 0.21531 0.0
H753 H 0.87367 0.40054 0.14308 0.0
H754 H 0.89444 0.40844 0.18895 0.0
H755 H 0.89649 0.42976 0.14823 0.0
C756 C 0.49656 0.86381 0.4229 0.0
C757 C 0.47667 0.84441 0.43957 0.0
C758 C 0.49946 0.86871 0.37518 0.0
C759 C 0.48202 0.85392 0.34378 0.0
C760 C 0.46275 0.83352 0.36046 0.0
C761 C 0.46039 0.82903 0.40791 0.0
C762 C 0.52046 0.89041 0.35877 0.0
C763 C 0.44374 0.81714 0.32854 0.0
C764 C 0.46756 0.87489 0.23386 0.0
C765 C 0.47437 0.86475 0.19968 0.0
C766 C 0.47134 0.87278 0.28087 0.0
C767 C 0.48241 0.86042 0.29426 0.0
C768 C 0.49075 0.85153 0.25981 0.0
C769 C 0.4865 0.85367 0.213 0.0
C770 C 0.46207 0.88248 0.3163 0.0
C771 C 0.503 0.83862 0.27243 0.0
H772 H 0.50914 0.87585 0.44717 0.0
H773 H 0.44505 0.81389 0.42053 0.0
H774 H 0.52756 0.88696 0.32724 0.0
H775 H 0.51564 0.90352 0.34981 0.0
H776 H 0.5341 0.89779 0.3856 0.0
H777 H 0.43066 0.80131 0.34656 0.0
H778 H 0.435 0.82594 0.31342 0.0
H779 H 0.45091 0.81193 0.29963 0.0
H780 H 0.45829 0.8836 0.22409 0.0
H781 H 0.49208 0.84598 0.18693 0.0
H782 H 0.47546 0.89279 0.3423 0.0
H783 H 0.44746 0.86809 0.33479 0.0
H784 H 0.45597 0.89356 0.30049 0.0
H785 H 0.51594 0.84789 0.29984 0.0
H786 H 0.5117 0.83619 0.24225 0.0
H787 H 0.49039 0.82135 0.2862 0.0
C788 C 0.64015 0.50317 0.59104 0.0
C789 C 0.64017 0.48402 0.61039 0.0
C790 C 0.64123 0.50627 0.54278 0.0
C791 C 0.64239 0.48985 0.51372 0.0
C792 C 0.64459 0.47177 0.53372 0.0
C793 C 0.64337 0.46906 0.58169 0.0
C794 C 0.63919 0.52598 0.52291 0.0
C795 C 0.64606 0.45394 0.50439 0.0
C796 C 0.61042 0.47126 0.39991 0.0
C797 C 0.62843 0.48002 0.36777 0.0
C798 C 0.61473 0.47554 0.44725 0.0
C799 C 0.63766 0.48905 0.4632 0.0
C800 C 0.65585 0.49907 0.43083 0.0
C801 C 0.65104 0.49436 0.38348 0.0
C802 C 0.59476 0.46444 0.4804 0.0
C803 C 0.68047 0.51385 0.44632 0.0
H804 H 0.63749 0.51466 0.61314 0.0
H805 H 0.64351 0.45429 0.59669 0.0
H806 H 0.65085 0.53377 0.493 0.0
H807 H 0.62135 0.51938 0.51049 0.0
H808 H 0.64318 0.53962 0.549 0.0
H809 H 0.65042 0.44269 0.52508 0.0
H810 H 0.62927 0.44287 0.48717 0.0
H811 H 0.65918 0.46239 0.47702 0.0
H812 H 0.59286 0.46035 0.38827 0.0
H813 H 0.66508 0.5014 0.35897 0.0
H814 H 0.5953 0.4775 0.50462 0.0
H815 H 0.59598 0.45119 0.50123 0.0
H816 H 0.57789 0.45601 0.46238 0.0
H817 H 0.6819 0.52639 0.47295 0.0
H818 H 0.69205 0.52345 0.41716 0.0
H819 H 0.6865 0.50274 0.46211 0.0
C820 C 0.18531 0.57575 0.57845 0.0
C821 C 0.1728 0.57836 0.54233 0.0
C822 C 0.18295 0.5809 0.62434 0.0
C823 C 0.16787 0.58921 0.63493 0.0
C824 C 0.1554 0.59225 0.59868 0.0
C825 C 0.1579 0.58666 0.55288 0.0
C826 C 0.19641 0.57712 0.66168 0.0
C827 C 0.13936 0.60132 0.60836 0.0
C828 C 0.14585 0.58167 0.75877 0.0
C829 C 0.16087 0.60331 0.77833 0.0
C830 C 0.14789 0.5769 0.71228 0.0
C831 C 0.16504 0.59431 0.68409 0.0
C832 C 0.18017 0.61624 0.70359 0.0
C833 C 0.17807 0.62039 0.75046 0.0
C834 C 0.13174 0.55311 0.6934 0.0
C835 C 0.19851 0.63542 0.67479 0.0
H836 H 0.19685 0.5693 0.57106 0.0
H837 H 0.14817 0.58878 0.5254 0.0
H838 H 0.20757 0.59353 0.68015 0.0
H839 H 0.18444 0.5646 0.6874 0.0
H840 H 0.20737 0.57049 0.64782 0.0
H841 H 0.13149 0.60347 0.57639 0.0
H842 H 0.12541 0.58933 0.63175 0.0
H843 H 0.1488 0.61824 0.62618 0.0
H844 H 0.13249 0.56837 0.77993 0.0
H845 H 0.18955 0.63727 0.76497 0.0
H846 H 0.14173 0.54521 0.68051 0.0
H847 H 0.12196 0.55433 0.66375 0.0
H848 H 0.11934 0.54147 0.7197 0.0
H849 H 0.21074 0.63023 0.66175 0.0
H850 H 0.20831 0.65175 0.69451 0.0
H851 H 0.19056 0.63871 0.64431 0.0
C852 C 0.49944 0.06745 0.04906 0.0
C853 C 0.48749 0.07506 0.07685 0.0
C854 C 0.49282 0.04394 0.04674 0.0
C855 C 0.47384 0.02759 0.07301 0.0
C856 C 0.46191 0.03519 0.10157 0.0
C857 C 0.46883 0.05877 0.10305 0.0
C858 C 0.50589 0.03654 1.01558 0.0
C859 C 0.44168 0.01838 0.13037 0.0
C860 C 0.4404 0.96473 0.0353 0.0
C861 C 0.44859 0.95419 0.06575 0.0
C862 C 0.44883 0.98862 0.03666 0.0
C863 C 0.46586 1.00242 0.06944 0.0
C864 C 0.47457 0.99199 0.09971 0.0
C865 C 0.46589 0.96802 0.09738 0.0
C866 C 0.43923 0.99902 1.00342 0.0
C867 C 0.49264 1.00607 0.13529 0.0
H868 H 0.51372 0.07985 0.02838 0.0
H869 H 0.45973 0.06449 0.1252 0.0
H870 H 0.51236 0.02685 0.03561 0.0
H871 H 0.49423 0.02473 0.98856 0.0
H872 H 0.52069 0.05144 0.99854 0.0
H873 H 0.4347 0.02713 0.1519 0.0
H874 H 0.42775 1.00575 0.10764 0.0
H875 H 0.44683 1.00849 0.15332 0.0
H876 H 0.42735 0.95426 1.01021 0.0
H877 H 0.47218 0.96 0.12123 0.0
H878 H 0.45337 0.01317 0.98354 0.0
H879 H 0.43047 1.00667 1.02282 0.0
H880 H 0.42674 0.98609 0.9788 0.0
H881 H 0.50785 0.02055 0.11843 0.0
H882 H 0.49831 0.99557 0.15499 0.0
H883 H 0.48575 0.01375 0.1599 0.0
C884 C 0.53952 0.4925 0.25824 0.0
C885 C 0.53059 0.47332 0.22871 0.0
C886 C 0.53037 0.50731 0.25887 0.0
C887 C 0.51186 0.50288 0.22917 0.0
C888 C 0.503 0.48375 0.19881 0.0
C889 C 0.51243 0.46922 0.19901 0.0
C890 C 0.54021 0.52743 0.29194 0.0
C891 C 0.48334 0.47846 0.16645 0.0
C892 C 0.47076 0.52416 0.25934 0.0
C893 C 0.47788 0.54301 0.22944 0.0
C894 C 0.4821 0.5114 0.26055 0.0
C895 C 0.50105 0.51759 0.23103 0.0
C896 C 0.50884 0.53709 0.20186 0.0
C897 C 0.4972 0.54963 0.20152 0.0
C898 C 0.47336 0.4909 0.29253 0.0
C899 C 0.52898 0.54424 0.16989 0.0
H900 H 0.55336 0.49568 0.28167 0.0
H901 H 0.50567 0.45469 0.17556 0.0
H902 H 0.5456 0.54374 0.27295 0.0
H903 H 0.52683 0.52527 0.31698 0.0
H904 H 0.55523 0.5291 0.31135 0.0
H905 H 0.47893 0.4634 0.14392 0.0
H906 H 0.46786 0.47481 0.18658 0.0
H907 H 0.48777 0.49366 0.14434 0.0
H908 H 0.45612 0.51925 0.28165 0.0
H909 H 0.50269 0.56408 0.17816 0.0
H910 H 0.48755 0.49242 0.31457 0.0
H911 H 0.46687 0.47483 0.27204 0.0
H912 H 0.45926 0.48917 0.31513 0.0
H913 H 0.54411 0.54637 0.18947 0.0
H914 H 0.53384 0.56063 0.15159 0.0
H915 H 0.52463 0.53051 0.14388 0.0
C916 C 0.06396 0.49007 0.43446 0.0
C917 C 0.07377 0.49077 0.39146 0.0
C918 C 0.04001 0.47694 0.441 0.0
C919 C 0.02554 0.46444 0.4035 0.0
C920 C 0.03535 0.46561 0.35976 0.0
C921 C 0.05929 0.47866 0.35435 0.0
C922 C 0.03022 0.47602 0.48823 0.0
C923 C 0.02057 0.45284 0.31869 0.0
C924 C 0.96656 0.41181 0.42423 0.0
C925 C 0.95183 0.42069 0.41679 0.0
C926 C 0.99055 0.42597 0.42118 0.0
C927 C 1.00019 0.44962 0.40995 0.0
C928 C 0.98552 0.45879 0.40272 0.0
C929 C 0.96158 0.44428 0.40643 0.0
C930 C 1.00559 0.41551 0.42922 0.0
C931 C 0.99509 0.48389 0.39044 0.0
H932 H 0.07508 0.49928 0.46327 0.0
H933 H 0.06671 0.47949 0.32082 0.0
H934 H 0.01708 0.48135 0.48628 0.0
H935 H 0.02153 0.45803 0.50135 0.0
H936 H 0.04367 0.48732 0.51339 0.0
H937 H 0.03081 0.45615 0.28669 0.0
H938 H 1.0112 0.43399 0.32555 0.0
H939 H 1.00749 0.45802 0.31276 0.0
H940 H 0.95935 0.39364 0.43172 0.0
H941 H 0.95056 0.45154 0.40143 0.0
H942 H 0.01864 0.42539 0.45609 0.0
H943 H 0.01499 0.41652 0.39713 0.0
H944 H 0.99553 0.39715 0.44012 0.0
H945 H 1.00753 0.49508 0.41714 0.0
H946 H 0.98144 0.4885 0.38706 0.0
H947 H 1.00457 0.48777 0.35735 0.0
C948 C 0.50378 0.94379 0.539 0.0
C949 C 0.4828 0.93298 0.56284 0.0
C950 C 0.51855 0.96781 0.54093 0.0
C951 C 0.51228 0.98152 0.56741 0.0
C952 C 0.49065 0.97087 0.58989 0.0
C953 C 0.47614 0.94673 0.58726 0.0
C954 C 0.54132 0.97838 0.51609 0.0
C955 C 0.48326 0.98483 0.61839 0.0
C956 C 0.56219 0.03703 0.61551 0.0
C957 C 0.56351 0.05377 0.58451 0.0
C958 C 0.54531 0.01365 0.61088 0.0
C959 C 0.52918 1.00663 0.57433 0.0
C960 C 0.53005 0.02345 0.54343 0.0
C961 C 0.54717 0.04679 0.54889 0.0
C962 C 0.54501 0.99636 0.64477 0.0
C963 C 0.51322 0.01672 0.50399 0.0
H964 H 0.50885 0.93335 0.51935 0.0
H965 H 0.46005 0.93853 0.60598 0.0
H966 H 0.54358 0.99289 0.49399 0.0
H967 H 0.55555 0.98552 0.54163 0.0
H968 H 0.5429 0.96563 0.49426 0.0
H969 H 0.46513 0.9744 0.63001 0.0
H970 H 0.49447 0.99173 0.64924 0.0
H971 H 0.48522 0.99983 0.59836 0.0
H972 H 0.57435 0.04221 0.64372 0.0
H973 H 0.54808 0.0595 0.52457 0.0
H974 H 0.5482 0.98372 0.62638 0.0
H975 H 0.52784 0.98653 0.66117 0.0
H976 H 0.55818 1.00468 0.67228 0.0
H977 H 0.51568 1.00535 0.47976 0.0
H978 H 0.51527 0.03197 0.48465 0.0
H979 H 0.49533 1.00677 0.51703 0.0
C980 C 0.5535 0.50142 0.75538 0.0
C981 C 0.54714 0.48146 0.72926 0.0
C982 C 0.54151 0.51351 0.75168 0.0
C983 C 0.52257 0.50548 0.72114 0.0
C984 C 0.51565 0.48501 0.69553 0.0
C985 C 0.52799 0.47324 0.69992 0.0
C986 C 0.54942 0.53516 0.77985 0.0
C987 C 0.49555 0.47586 0.66261 0.0
C988 C 0.48184 0.52896 0.73824 0.0
C989 C 0.49007 0.5469 0.70569 0.0
C990 C 0.49192 0.51505 0.74309 0.0
C991 C 0.51072 0.51912 0.71473 0.0
C992 C 0.51884 0.53693 0.6813 0.0
C993 C 0.50845 0.55054 0.67719 0.0
C994 C 0.48276 0.49629 0.77922 0.0
C995 C 0.53878 0.54183 0.65022 0.0
H996 H 0.56795 0.50768 0.77884 0.0
H997 H 0.52302 0.45797 0.67935 0.0
H998 H 0.55506 0.55021 0.75657 0.0
H999 H 0.53498 0.53374 0.80078 0.0
H1000 H 0.56388 0.53863 0.80332 0.0
H1001 H 0.49155 0.45909 0.64711 0.0
H1002 H 0.48004 0.47359 0.6807 0.0
H1003 H 0.4994 0.4885 0.63444 0.0
H1004 H 0.46784 0.5261 0.76075 0.0
H1005 H 0.5147 0.56403 0.65139 0.0
H1006 H 0.49627 0.50008 0.80535 0.0
H1007 H 0.47815 0.47947 0.76325 0.0
H1008 H 0.46738 0.49459 0.79704 0.0
H1009 H 0.55441 0.54698 0.67128 0.0
H1010 H 0.54258 0.55579 0.625 0.0
H1011 H 0.53504 0.526 0.63102 0.0
C1012 C 0.06748 0.59449 0.93304 0.0
C1013 C 0.07761 0.60886 0.89474 0.0
C1014 C 0.04346 0.57988 0.93575 0.0
C1015 C 0.02931 0.57931 0.89885 0.0
C1016 C 0.03961 0.59322 0.85945 0.0
C1017 C 0.06355 0.60793 0.85809 0.0
C1018 C 0.03317 0.56562 0.97865 0.0
C1019 C 0.0253 0.59285 0.81891 0.0
C1020 C 0.96752 0.52984 0.88518 0.0
C1021 C 0.95502 0.54034 0.89926 0.0
C1022 C 0.99174 0.54208 0.88588 0.0
C1023 C 1.00369 0.56519 0.90203 0.0
C1024 C 0.99104 0.57544 0.91823 0.0
C1025 C 0.96691 0.563 0.91613 0.0
C1026 C 1.00451 0.53064 0.86747 0.0
C1027 C 1.003 0.59982 0.93664 0.0
H1028 H 0.0783 0.59525 0.96148 0.0
H1029 H 0.07135 0.61869 0.82807 0.0
H1030 H 0.02218 0.57128 0.99615 0.0
H1031 H 0.02199 0.54717 0.96948 0.0
H1032 H 0.04653 0.56716 1.00331 0.0
H1033 H 0.03604 0.60352 0.78968 0.0
H1034 H 0.01415 0.57488 0.80666 0.0
H1035 H 0.01386 0.59947 0.82965 0.0
H1036 H 0.95834 0.51239 0.87178 0.0
H1037 H 0.95725 0.57102 0.92755 0.0
H1038 H 0.01742 0.53192 0.89294 0.0
H1039 H 0.01398 0.53969 0.83579 0.0
H1040 H 0.99279 0.51215 0.85906 0.0
H1041 H 0.01572 0.60198 0.96347 0.0
H1042 H 0.99074 0.60453 0.95167 0.0
H1043 H 0.01257 0.61211 0.90841 0.0
loop_
_geom_bond_atom_site_label_1
_geom_bond_atom_site_label_2
_geom_bond_distance
_geom_bond_site_symmetry_2
_ccdc_geom_bond_type
Cu0 N1 1.999 . S
Cu0 O6 1.974 1_554 S
Cu0 N11 1.985 . S
Cu0 O20 1.959 . S
N1 Cu0 1.999 . S
N1 C3 1.263 . S
N1 C5 1.389 . S
N2 C3 1.358 . S
N2 C4 1.400 . S
C3 N1 1.263 . S
C3 N2 1.358 . S
C3 H9 0.930 . S
C4 N2 1.400 . S
C4 C5 1.351 . S
C4 H21 0.930 . S
C5 N1 1.389 . S
C5 C4 1.351 . S
C5 H10 0.930 . S
O6 Cu0 1.974 1_556 S
O6 C16 1.282 . S
C7 O8 1.261 . S
C7 O20 1.251 . S
O8 C7 1.261 . S
H9 C3 0.930 . S
H10 C5 0.930 . S
N11 Cu0 1.985 . S
N11 C13 1.335 . S
N11 C14 1.390 . S
N12 C13 1.345 . S
N12 C15 1.336 . S
C13 N11 1.335 . S
C13 N12 1.345 . S
C13 H18 0.930 . S
C14 N11 1.390 . S
C14 C15 1.346 . S
C14 H19 0.930 1_554 S
C15 N12 1.336 . S
C15 C14 1.346 . S
C15 H22 0.929 . S
C16 O6 1.282 . S
C16 O17 1.216 . S
O17 C16 1.216 . S
H18 C13 0.930 . S
H19 C14 0.930 1_556 S
O20 Cu0 1.959 . S
O20 C7 1.251 . S
H21 C4 0.930 . S
H22 C15 0.929 . S
Cu23 N24 1.999 . S
Cu23 O29 1.974 . S
Cu23 N34 1.985 . S
Cu23 O43 1.959 . S
N24 Cu23 1.999 . S
N24 C26 1.263 . S
N24 C28 1.389 . S
N25 C26 1.358 . S
N25 C27 1.400 . S
C26 N24 1.263 . S
C26 N25 1.358 . S
C26 H32 0.930 . S
C27 N25 1.400 . S
C27 C28 1.351 . S
C27 H44 0.930 . S
C28 N24 1.389 . S
C28 C27 1.351 . S
C28 H33 0.930 . S
O29 Cu23 1.974 . S
O29 C39 1.282 . S
C30 O31 1.261 . S
C30 O43 1.251 . S
O31 C30 1.261 . S
H32 C26 0.930 . S
H33 C28 0.930 . S
N34 Cu23 1.985 . S
N34 C36 1.335 . S
N34 C37 1.390 . S
N35 C36 1.345 . S
N35 C38 1.336 . S
C36 N34 1.335 . S
C36 N35 1.345 . S
C36 H41 0.930 . S
C37 N34 1.390 . S
C37 C38 1.346 . S
C37 H42 0.930 . S
C38 N35 1.336 . S
C38 C37 1.346 . S
C38 H45 0.929 . S
C39 O29 1.282 . S
C39 O40 1.216 . S
O40 C39 1.216 . S
H41 C36 0.930 . S
H42 C37 0.930 . S
O43 Cu23 1.959 . S
O43 C30 1.251 . S
H44 C27 0.930 . S
H45 C38 0.929 . S
Cu46 N47 1.999 . S
Cu46 O52 1.974 . S
Cu46 N57 1.985 . S
Cu46 O66 1.959 . S
N47 Cu46 1.999 . S
N47 C49 1.263 . S
N47 C51 1.389 . S
N48 C49 1.358 . S
N48 C50 1.400 . S
C49 N47 1.263 . S
C49 N48 1.358 . S
C49 H55 0.930 . S
C50 N48 1.400 . S
C50 C51 1.351 . S
C50 H67 0.930 . S
C51 N47 1.389 . S
C51 C50 1.351 . S
C51 H56 0.930 . S
O52 Cu46 1.974 . S
O52 C62 1.282 . S
C53 O54 1.261 . S
C53 O66 1.251 . S
O54 C53 1.261 . S
H55 C49 0.930 . S
H56 C51 0.930 . S
N57 Cu46 1.985 . S
N57 C59 1.335 . S
N57 C60 1.390 . S
N58 C59 1.345 . S
N58 C61 1.336 . S
C59 N57 1.335 . S
C59 N58 1.345 . S
C59 H64 0.930 . S
C60 N57 1.390 . S
C60 C61 1.346 . S
C60 H65 0.930 . S
C61 N58 1.336 . S
C61 C60 1.346 . S
C61 H68 0.929 . S
C62 O52 1.282 . S
C62 O63 1.216 . S
O63 C62 1.216 . S
H64 C59 0.930 . S
H65 C60 0.930 . S
O66 Cu46 1.959 . S
O66 C53 1.251 . S
H67 C50 0.930 . S
H68 C61 0.929 . S
Cu69 N70 1.999 . S
Cu69 O75 1.974 . S
Cu69 N80 1.985 . S
Cu69 O89 1.959 . S
N70 Cu69 1.999 . S
N70 C72 1.263 . S
N70 C74 1.389 . S
N71 C72 1.358 . S
N71 C73 1.400 . S
C72 N70 1.263 . S
C72 N71 1.358 . S
C72 H78 0.930 . S
C73 N71 1.400 . S
C73 C74 1.351 . S
C73 H90 0.930 . S
C74 N70 1.389 . S
C74 C73 1.351 . S
C74 H79 0.930 . S
O75 Cu69 1.974 . S
O75 C85 1.282 . S
C76 O77 1.261 . S
C76 O89 1.251 . S
O77 C76 1.261 . S
H78 C72 0.930 . S
H79 C74 0.930 . S
N80 Cu69 1.985 . S
N80 C82 1.335 . S
N80 C83 1.390 . S
N81 C82 1.345 . S
N81 C84 1.336 . S
C82 N80 1.335 . S
C82 N81 1.345 . S
C82 H87 0.930 . S
C83 N80 1.390 . S
C83 C84 1.346 . S
C83 H88 0.930 . S
C84 N81 1.336 . S
C84 C83 1.346 . S
C84 H91 0.929 . S
C85 O75 1.282 . S
C85 O86 1.216 . S
O86 C85 1.216 . S
H87 C82 0.930 . S
H88 C83 0.930 . S
O89 Cu69 1.959 . S
O89 C76 1.251 . S
H90 C73 0.930 . S
H91 C84 0.929 . S
Cu92 N93 1.999 . S
Cu92 O98 1.974 . S
Cu92 N103 1.985 . S
Cu92 O112 1.959 . S
N93 Cu92 1.999 . S
N93 C95 1.263 . S
N93 C97 1.389 . S
N94 C95 1.358 . S
N94 C96 1.400 . S
C95 N93 1.263 . S
C95 N94 1.358 . S
C95 H101 0.930 . S
C96 N94 1.400 . S
C96 C97 1.351 . S
C96 H113 0.930 . S
C97 N93 1.389 . S
C97 C96 1.351 . S
C97 H102 0.930 . S
O98 Cu92 1.974 . S
O98 C108 1.282 . S
C99 O100 1.261 . S
C99 O112 1.251 . S
O100 C99 1.261 . S
H101 C95 0.930 . S
H102 C97 0.930 . S
N103 Cu92 1.985 . S
N103 C105 1.335 . S
N103 C106 1.390 . S
N104 C105 1.345 . S
N104 C107 1.336 . S
C105 N103 1.335 . S
C105 N104 1.345 . S
C105 H110 0.930 . S
C106 N103 1.390 . S
C106 C107 1.346 . S
C106 H111 0.930 . S
C107 N104 1.336 . S
C107 C106 1.346 . S
C107 H114 0.929 . S
C108 O98 1.282 . S
C108 O109 1.216 . S
O109 C108 1.216 . S
H110 C105 0.930 . S
H111 C106 0.930 . S
O112 Cu92 1.959 . S
O112 C99 1.251 . S
H113 C96 0.930 . S
H114 C107 0.929 . S
Cu115 N116 1.999 . S
Cu115 O121 1.974 . S
Cu115 N126 1.985 . S
Cu115 O135 1.959 . S
N116 Cu115 1.999 . S
N116 C118 1.263 . S
N116 C120 1.389 . S
N117 C118 1.358 . S
N117 C119 1.400 . S
C118 N116 1.263 . S
C118 N117 1.358 . S
C118 H124 0.930 . S
C119 N117 1.400 . S
C119 C120 1.351 . S
C119 H136 0.930 . S
C120 N116 1.389 . S
C120 C119 1.351 . S
C120 H125 0.930 . S
O121 Cu115 1.974 . S
O121 C131 1.282 . S
C122 O123 1.261 . S
C122 O135 1.251 . S
O123 C122 1.261 . S
H124 C118 0.930 . S
H125 C120 0.930 . S
N126 Cu115 1.985 . S
N126 C128 1.335 . S
N126 C129 1.390 . S
N127 C128 1.345 . S
N127 C130 1.336 . S
C128 N126 1.335 . S
C128 N127 1.345 . S
C128 H133 0.930 . S
C129 N126 1.390 . S
C129 C130 1.346 . S
C129 H134 0.930 . S
C130 N127 1.336 . S
C130 C129 1.346 . S
C130 H137 0.929 . S
C131 O121 1.282 . S
C131 O132 1.216 . S
O132 C131 1.216 . S
H133 C128 0.930 . S
H134 C129 0.930 . S
O135 Cu115 1.959 . S
O135 C122 1.251 . S
H136 C119 0.930 . S
H137 C130 0.929 . S
Cu138 N139 1.999 . S
Cu138 O144 1.974 . S
Cu138 N149 1.985 . S
Cu138 O158 1.959 . S
N139 Cu138 1.999 . S
N139 C141 1.263 . S
N139 C143 1.389 . S
N140 C141 1.358 . S
N140 C142 1.400 . S
C141 N139 1.263 . S
C141 N140 1.358 . S
C141 H147 0.930 . S
C142 N140 1.400 . S
C142 C143 1.351 . S
C142 H159 0.930 . S
C143 N139 1.389 . S
C143 C142 1.351 . S
C143 H148 0.930 . S
O144 Cu138 1.974 . S
O144 C154 1.282 . S
C145 O146 1.261 . S
C145 O158 1.251 . S
O146 C145 1.261 . S
H147 C141 0.930 . S
H148 C143 0.930 . S
N149 Cu138 1.985 . S
N149 C151 1.335 . S
N149 C152 1.390 . S
N150 C151 1.345 . S
N150 C153 1.336 . S
C151 N149 1.335 . S
C151 N150 1.345 . S
C151 H156 0.930 . S
C152 N149 1.390 . S
C152 C153 1.346 . S
C152 H157 0.930 . S
C153 N150 1.336 . S
C153 C152 1.346 . S
C153 H160 0.929 . S
C154 O144 1.282 . S
C154 O155 1.216 . S
O155 C154 1.216 . S
H156 C151 0.930 . S
H157 C152 0.930 . S
O158 Cu138 1.959 . S
O158 C145 1.251 . S
H159 C142 0.930 . S
H160 C153 0.929 . S
Cu161 N162 1.999 . S
Cu161 O167 1.974 . S
Cu161 N172 1.985 . S
Cu161 O181 1.959 1_554 S
N162 Cu161 1.999 . S
N162 C164 1.263 . S
N162 C166 1.389 . S
N163 C164 1.358 . S
N163 C165 1.400 . S
C164 N162 1.263 . S
C164 N163 1.358 . S
C164 H170 0.930 . S
C165 N163 1.400 . S
C165 C166 1.351 . S
C165 H182 0.930 1_554 S
C166 N162 1.389 . S
C166 C165 1.351 . S
C166 H171 0.930 1_554 S
O167 Cu161 1.974 . S
O167 C177 1.282 . S
C168 O169 1.261 . S
C168 O181 1.251 . S
O169 C168 1.261 . S
H170 C164 0.930 . S
H171 C166 0.930 1_556 S
N172 Cu161 1.985 . S
N172 C174 1.335 . S
N172 C175 1.390 . S
N173 C174 1.345 . S
N173 C176 1.336 . S
C174 N172 1.335 . S
C174 N173 1.345 . S
C174 H179 0.930 1_554 S
C175 N172 1.390 . S
C175 C176 1.346 . S
C175 H180 0.930 . S
C176 N173 1.336 . S
C176 C175 1.346 . S
C176 H183 0.929 . S
C177 O167 1.282 . S
C177 O178 1.216 . S
O178 C177 1.216 . S
H179 C174 0.930 1_556 S
H180 C175 0.930 . S
O181 Cu161 1.959 1_556 S
O181 C168 1.251 . S
H182 C165 0.930 1_556 S
H183 C176 0.929 . S
Cu184 N185 1.999 . S
Cu184 O190 1.974 . S
Cu184 N195 1.985 . S
Cu184 O204 1.959 . S
N185 Cu184 1.999 . S
N185 C187 1.263 . S
N185 C189 1.389 . S
N186 C187 1.358 . S
N186 C188 1.400 . S
C187 N185 1.263 . S
C187 N186 1.358 . S
C187 H193 0.930 . S
C188 N186 1.400 . S
C188 C189 1.351 . S
C188 H205 0.930 . S
C189 N185 1.389 . S
C189 C188 1.351 . S
C189 H194 0.930 . S
O190 Cu184 1.974 . S
O190 C200 1.282 . S
C191 O192 1.261 . S
C191 O204 1.251 . S
O192 C191 1.261 . S
H193 C187 0.930 . S
H194 C189 0.930 . S
N195 Cu184 1.985 . S
N195 C197 1.335 . S
N195 C198 1.390 . S
N196 C197 1.345 . S
N196 C199 1.336 . S
C197 N195 1.335 . S
C197 N196 1.345 . S
C197 H202 0.930 . S
C198 N195 1.390 . S
C198 C199 1.346 . S
C198 H203 0.930 . S
C199 N196 1.336 . S
C199 C198 1.346 . S
C199 H206 0.929 . S
C200 O190 1.282 . S
C200 O201 1.216 . S
O201 C200 1.216 . S
H202 C197 0.930 . S
H203 C198 0.930 . S
O204 Cu184 1.959 . S
O204 C191 1.251 . S
H205 C188 0.930 . S
H206 C199 0.929 . S
Cu207 N208 1.999 . S
Cu207 O213 1.974 . S
Cu207 N218 1.985 . S
Cu207 O227 1.959 . S
N208 Cu207 1.999 . S
N208 C210 1.263 . S
N208 C212 1.389 . S
N209 C210 1.358 . S
N209 C211 1.400 . S
C210 N208 1.263 . S
C210 N209 1.358 . S
C210 H216 0.930 . S
C211 N209 1.400 . S
C211 C212 1.351 . S
C211 H228 0.930 . S
C212 N208 1.389 . S
C212 C211 1.351 . S
C212 H217 0.930 . S
O213 Cu207 1.974 . S
O213 C223 1.282 . S
C214 O215 1.261 . S
C214 O227 1.251 . S
O215 C214 1.261 . S
H216 C210 0.930 . S
H217 C212 0.930 . S
N218 Cu207 1.985 . S
N218 C220 1.335 . S
N218 C221 1.390 . S
N219 C220 1.345 . S
N219 C222 1.336 . S
C220 N218 1.335 . S
C220 N219 1.345 . S
C220 H225 0.930 . S
C221 N218 1.390 . S
C221 C222 1.346 . S
C221 H226 0.930 . S
C222 N219 1.336 . S
C222 C221 1.346 . S
C222 H229 0.929 . S
C223 O213 1.282 . S
C223 O224 1.216 . S
O224 C223 1.216 . S
H225 C220 0.930 . S
H226 C221 0.930 . S
O227 Cu207 1.959 . S
O227 C214 1.251 . S
H228 C211 0.930 . S
H229 C222 0.929 . S
Cu230 N231 1.999 . S
Cu230 O236 1.974 . S
Cu230 N241 1.985 . S
Cu230 O250 1.959 . S
N231 Cu230 1.999 . S
N231 C233 1.263 . S
N231 C235 1.389 . S
N232 C233 1.358 . S
N232 C234 1.400 . S
C233 N231 1.263 . S
C233 N232 1.358 . S
C233 H239 0.930 . S
C234 N232 1.400 . S
C234 C235 1.351 . S
C234 H251 0.930 . S
C235 N231 1.389 . S
C235 C234 1.351 . S
C235 H240 0.930 . S
O236 Cu230 1.974 . S
O236 C246 1.282 . S
C237 O238 1.261 . S
C237 O250 1.251 . S
O238 C237 1.261 . S
H239 C233 0.930 . S
H240 C235 0.930 . S
N241 Cu230 1.985 . S
N241 C243 1.335 . S
N241 C244 1.390 . S
N242 C243 1.345 . S
N242 C245 1.336 . S
C243 N241 1.335 . S
C243 N242 1.345 . S
C243 H248 0.930 . S
C244 N241 1.390 . S
C244 C245 1.346 . S
C244 H249 0.930 . S
C245 N242 1.336 . S
C245 C244 1.346 . S
C245 H252 0.929 . S
C246 O236 1.282 . S
C246 O247 1.216 . S
O247 C246 1.216 . S
H248 C243 0.930 . S
H249 C244 0.930 . S
O250 Cu230 1.959 . S
O250 C237 1.251 . S
H251 C234 0.930 . S
H252 C245 0.929 . S
Cu253 N254 1.999 . S
Cu253 O259 1.974 . S
Cu253 N264 1.985 . S
Cu253 O273 1.959 . S
N254 Cu253 1.999 . S
N254 C256 1.263 . S
N254 C258 1.389 . S
N255 C256 1.358 . S
N255 C257 1.400 . S
C256 N254 1.263 . S
C256 N255 1.358 . S
C256 H262 0.930 . S
C257 N255 1.400 . S
C257 C258 1.351 . S
C257 H274 0.930 . S
C258 N254 1.389 . S
C258 C257 1.351 . S
C258 H263 0.930 . S
O259 Cu253 1.974 . S
O259 C269 1.282 . S
C260 O261 1.261 . S
C260 O273 1.251 . S
O261 C260 1.261 . S
H262 C256 0.930 . S
H263 C258 0.930 . S
N264 Cu253 1.985 . S
N264 C266 1.335 . S
N264 C267 1.390 . S
N265 C266 1.345 . S
N265 C268 1.336 . S
C266 N264 1.335 . S
C266 N265 1.345 . S
C266 H271 0.930 . S
C267 N264 1.390 . S
C267 C268 1.346 . S
C267 H272 0.930 . S
C268 N265 1.336 . S
C268 C267 1.346 . S
C268 H275 0.929 . S
C269 O259 1.282 . S
C269 O270 1.216 . S
O270 C269 1.216 . S
H271 C266 0.930 . S
H272 C267 0.930 . S
O273 Cu253 1.959 . S
O273 C260 1.251 . S
H274 C257 0.930 . S
H275 C268 0.929 . S
C276 C277 1.391 . S
C276 C278 1.394 . S
C276 H292 0.931 . S
C277 C276 1.391 . S
C277 C281 1.376 . S
C278 C276 1.394 . S
C278 C279 1.369 . S
C278 C282 1.531 . S
C279 C278 1.369 . S
C279 C280 1.410 . S
C279 C287 1.503 . S
C280 C279 1.410 . S
C280 C281 1.392 . S
C280 C283 1.511 . S
C281 C277 1.376 . S
C281 C280 1.392 . S
C281 H293 0.929 . S
C282 C278 1.531 . S
C282 H294 0.960 . S
C282 H295 0.962 . S
C282 H296 0.960 . S
C283 C280 1.511 . S
C283 H297 0.961 . S
C283 H298 0.961 . S
C283 H299 0.961 . S
C284 C285 1.370 . S
C284 C286 1.363 . S
C284 H300 0.931 . S
C285 C284 1.370 . S
C285 C289 1.408 . S
C286 C284 1.363 . S
C286 C287 1.370 . S
C286 C290 1.524 . S
C287 C279 1.503 . S
C287 C286 1.370 . S
C287 C288 1.403 . S
C288 C287 1.403 . S
C288 C289 1.404 . S
C288 C291 1.539 . S
C289 C285 1.408 . S
C289 C288 1.404 . S
C289 H301 0.930 . S
C290 C286 1.524 . S
C290 H302 0.956 . S
C290 H303 0.961 . S
C290 H304 0.961 . S
C291 C288 1.539 . S
C291 H305 0.958 . S
C291 H306 0.961 . S
C291 H307 0.960 . S
H292 C276 0.931 . S
H293 C281 0.929 . S
H294 C282 0.960 . S
H295 C282 0.962 . S
H296 C282 0.960 . S
H297 C283 0.961 . S
H298 C283 0.961 . S
H299 C283 0.961 . S
H300 C284 0.931 . S
H301 C289 0.930 . S
H302 C290 0.956 . S
H303 C290 0.961 . S
H304 C290 0.961 . S
H305 C291 0.958 . S
H306 C291 0.961 . S
H307 C291 0.960 . S
C308 C309 1.391 . S
C308 C310 1.394 . S
C308 H324 0.931 . S
C309 C308 1.391 . S
C309 C313 1.376 . S
C310 C308 1.394 . S
C310 C311 1.369 . S
C310 C314 1.531 . S
C311 C310 1.369 . S
C311 C312 1.410 . S
C311 C319 1.503 . S
C312 C311 1.410 . S
C312 C313 1.392 . S
C312 C315 1.511 . S
C313 C309 1.376 . S
C313 C312 1.392 . S
C313 H325 0.929 . S
C314 C310 1.531 . S
C314 H326 0.960 . S
C314 H327 0.962 . S
C314 H328 0.960 . S
C315 C312 1.511 . S
C315 H329 0.961 . S
C315 H330 0.961 . S
C315 H331 0.961 . S
C316 C317 1.370 . S
C316 C318 1.363 . S
C316 H332 0.931 . S
C317 C316 1.370 . S
C317 C321 1.408 . S
C318 C316 1.363 . S
C318 C319 1.370 . S
C318 C322 1.524 . S
C319 C311 1.503 . S
C319 C318 1.370 . S
C319 C320 1.403 . S
C320 C319 1.403 . S
C320 C321 1.404 . S
C320 C323 1.539 . S
C321 C317 1.408 . S
C321 C320 1.404 . S
C321 H333 0.930 . S
C322 C318 1.524 . S
C322 H334 0.956 . S
C322 H335 0.961 . S
C322 H336 0.961 . S
C323 C320 1.539 . S
C323 H337 0.958 . S
C323 H338 0.961 . S
C323 H339 0.960 . S
H324 C308 0.931 . S
H325 C313 0.929 . S
H326 C314 0.960 . S
H327 C314 0.962 . S
H328 C314 0.960 . S
H329 C315 0.961 . S
H330 C315 0.961 . S
H331 C315 0.961 . S
H332 C316 0.931 . S
H333 C321 0.930 . S
H334 C322 0.956 . S
H335 C322 0.961 . S
H336 C322 0.961 . S
H337 C323 0.958 . S
H338 C323 0.961 . S
H339 C323 0.960 . S
C340 C341 1.391 . S
C340 C342 1.394 . S
C340 H356 0.931 . S
C341 C340 1.391 . S
C341 C345 1.376 . S
C342 C340 1.394 . S
C342 C343 1.369 . S
C342 C346 1.531 . S
C343 C342 1.369 . S
C343 C344 1.410 . S
C343 C351 1.503 . S
C344 C343 1.410 . S
C344 C345 1.392 . S
C344 C347 1.511 . S
C345 C341 1.376 . S
C345 C344 1.392 . S
C345 H357 0.929 . S
C346 C342 1.531 . S
C346 H358 0.960 . S
C346 H359 0.962 . S
C346 H360 0.960 . S
C347 C344 1.511 . S
C347 H361 0.961 . S
C347 H362 0.961 . S
C347 H363 0.961 . S
C348 C349 1.370 . S
C348 C350 1.363 . S
C348 H364 0.931 . S
C349 C348 1.370 . S
C349 C353 1.408 . S
C350 C348 1.363 . S
C350 C351 1.370 . S
C350 C354 1.524 . S
C351 C343 1.503 . S
C351 C350 1.370 . S
C351 C352 1.403 . S
C352 C351 1.403 . S
C352 C353 1.404 . S
C352 C355 1.539 . S
C353 C349 1.408 . S
C353 C352 1.404 . S
C353 H365 0.930 . S
C354 C350 1.524 . S
C354 H366 0.956 . S
C354 H367 0.961 . S
C354 H368 0.961 . S
C355 C352 1.539 . S
C355 H369 0.958 . S
C355 H370 0.961 . S
C355 H371 0.960 . S
H356 C340 0.931 . S
H357 C345 0.929 . S
H358 C346 0.960 . S
H359 C346 0.962 . S
H360 C346 0.960 . S
H361 C347 0.961 . S
H362 C347 0.961 . S
H363 C347 0.961 . S
H364 C348 0.931 . S
H365 C353 0.930 . S
H366 C354 0.956 . S
H367 C354 0.961 . S
H368 C354 0.961 . S
H369 C355 0.958 . S
H370 C355 0.961 . S
H371 C355 0.960 . S
C372 C373 1.391 . S
C372 C374 1.394 . S
C372 H388 0.931 . S
C373 C372 1.391 . S
C373 C377 1.376 . S
C374 C372 1.394 . S
C374 C375 1.369 . S
C374 C378 1.531 . S
C375 C374 1.369 . S
C375 C376 1.410 . S
C375 C383 1.503 . S
C376 C375 1.410 . S
C376 C377 1.392 . S
C376 C379 1.511 . S
C377 C373 1.376 . S
C377 C376 1.392 . S
C377 H389 0.929 . S
C378 C374 1.531 . S
C378 H390 0.960 . S
C378 H391 0.962 . S
C378 H392 0.960 . S
C379 C376 1.511 . S
C379 H393 0.961 . S
C379 H394 0.961 . S
C379 H395 0.961 . S
C380 C381 1.370 . S
C380 C382 1.363 . S
C380 H396 0.931 . S
C381 C380 1.370 . S
C381 C385 1.408 . S
C382 C380 1.363 . S
C382 C383 1.370 . S
C382 C386 1.524 . S
C383 C375 1.503 . S
C383 C382 1.370 . S
C383 C384 1.403 . S
C384 C383 1.403 . S
C384 C385 1.404 . S
C384 C387 1.539 . S
C385 C381 1.408 . S
C385 C384 1.404 . S
C385 H397 0.930 . S
C386 C382 1.524 . S
C386 H398 0.956 . S
C386 H399 0.961 . S
C386 H400 0.961 . S
C387 C384 1.539 . S
C387 H401 0.958 . S
C387 H402 0.961 . S
C387 H403 0.960 . S
H388 C372 0.931 . S
H389 C377 0.929 . S
H390 C378 0.960 . S
H391 C378 0.962 . S
H392 C378 0.960 . S
H393 C379 0.961 . S
H394 C379 0.961 . S
H395 C379 0.961 . S
H396 C380 0.931 . S
H397 C385 0.930 . S
H398 C386 0.956 . S
H399 C386 0.961 . S
H400 C386 0.961 . S
H401 C387 0.958 . S
H402 C387 0.961 . S
H403 C387 0.960 . S
C404 C405 1.391 . S
C404 C406 1.394 . S
C404 H420 0.931 . S
C405 C404 1.391 . S
C405 C409 1.376 . S
C406 C404 1.394 . S
C406 C407 1.369 1_554 S
C406 C410 1.531 1_554 S
C407 C406 1.369 1_556 S
C407 C408 1.410 1_556 S
C407 C415 1.503 . S
C408 C407 1.410 1_554 S
C408 C409 1.392 . S
C408 C411 1.511 1_554 S
C409 C405 1.376 . S
C409 C408 1.392 . S
C409 H421 0.929 . S
C410 C406 1.531 1_556 S
C410 H422 0.960 . S
C410 H423 0.962 . S
C410 H424 0.968 . S
C411 C408 1.511 1_556 S
C411 H425 0.961 1_556 S
C411 H426 0.961 . S
C411 H427 0.961 . S
C412 C413 1.370 . S
C412 C414 1.363 . S
C412 H428 0.931 . S
C413 C412 1.370 . S
C413 C417 1.408 . S
C414 C412 1.363 . S
C414 C415 1.370 . S
C414 C418 1.524 . S
C415 C407 1.503 . S
C415 C414 1.370 . S
C415 C416 1.403 . S
C416 C415 1.403 . S
C416 C417 1.404 . S
C416 C419 1.539 . S
C417 C413 1.408 . S
C417 C416 1.404 . S
C417 H429 0.930 . S
C418 C414 1.524 . S
C418 H430 0.956 . S
C418 H431 0.961 . S
C418 H432 0.961 . S
C419 C416 1.539 . S
C419 H433 0.958 . S
C419 H434 0.961 . S
C419 H435 0.960 . S
H420 C404 0.931 . S
H421 C409 0.929 . S
H422 C410 0.960 . S
H423 C410 0.962 . S
H424 C410 0.968 . S
H425 C411 0.961 1_554 S
H426 C411 0.961 . S
H427 C411 0.961 . S
H428 C412 0.931 . S
H429 C417 0.930 . S
H430 C418 0.956 . S
H431 C418 0.961 . S
H432 C418 0.961 . S
H433 C419 0.958 . S
H434 C419 0.961 . S
H435 C419 0.960 . S
C436 C437 1.391 . S
C436 C438 1.394 . S
C436 H452 0.931 . S
C437 C436 1.391 . S
C437 C441 1.376 . S
C438 C436 1.394 . S
C438 C439 1.369 . S
C438 C442 1.531 . S
C439 C438 1.369 . S
C439 C440 1.410 . S
C439 C447 1.503 . S
C440 C439 1.410 . S
C440 C441 1.392 . S
C440 C443 1.511 . S
C441 C437 1.376 . S
C441 C440 1.392 . S
C441 H453 0.929 . S
C442 C438 1.531 . S
C442 H454 0.960 . S
C442 H455 0.962 . S
C442 H456 0.960 . S
C443 C440 1.511 . S
C443 H457 0.961 . S
C443 H458 0.961 . S
C443 H459 0.961 . S
C444 C445 1.370 . S
C444 C446 1.363 . S
C444 H460 0.931 . S
C445 C444 1.370 . S
C445 C449 1.408 . S
C446 C444 1.363 . S
C446 C447 1.370 . S
C446 C450 1.524 . S
C447 C439 1.503 . S
C447 C446 1.370 . S
C447 C448 1.403 . S
C448 C447 1.403 . S
C448 C449 1.404 . S
C448 C451 1.539 . S
C449 C445 1.408 . S
C449 C448 1.404 . S
C449 H461 0.930 . S
C450 C446 1.524 . S
C450 H462 0.956 . S
C450 H463 0.961 . S
C450 H464 0.961 . S
C451 C448 1.539 . S
C451 H465 0.958 . S
C451 H466 0.961 . S
C451 H467 0.960 . S
H452 C436 0.931 . S
H453 C441 0.929 . S
H454 C442 0.960 . S
H455 C442 0.962 . S
H456 C442 0.960 . S
H457 C443 0.961 . S
H458 C443 0.961 . S
H459 C443 0.961 . S
H460 C444 0.931 . S
H461 C449 0.930 . S
H462 C450 0.956 . S
H463 C450 0.961 . S
H464 C450 0.961 . S
H465 C451 0.958 . S
H466 C451 0.961 . S
H467 C451 0.960 . S
C468 C469 1.391 . S
C468 C470 1.394 . S
C468 H484 0.931 . S
C469 C468 1.391 . S
C469 C473 1.376 . S
C470 C468 1.394 . S
C470 C471 1.369 . S
C470 C474 1.531 . S
C471 C470 1.369 . S
C471 C472 1.410 . S
C471 C479 1.503 . S
C472 C471 1.410 . S
C472 C473 1.392 . S
C472 C475 1.511 . S
C473 C469 1.376 . S
C473 C472 1.392 . S
C473 H485 0.929 . S
C474 C470 1.531 . S
C474 H486 0.960 . S
C474 H487 0.962 . S
C474 H488 0.960 . S
C475 C472 1.511 . S
C475 H489 0.961 . S
C475 H490 0.961 . S
C475 H491 0.961 . S
C476 C477 1.370 . S
C476 C478 1.363 . S
C476 H492 0.931 . S
C477 C476 1.370 . S
C477 C481 1.408 . S
C478 C476 1.363 . S
C478 C479 1.370 . S
C478 C482 1.524 . S
C479 C471 1.503 . S
C479 C478 1.370 . S
C479 C480 1.403 . S
C480 C479 1.403 . S
C480 C481 1.404 . S
C480 C483 1.539 . S
C481 C477 1.408 . S
C481 C480 1.404 . S
C481 H493 0.930 . S
C482 C478 1.524 . S
C482 H494 0.956 . S
C482 H495 0.961 . S
C482 H496 0.961 . S
C483 C480 1.539 . S
C483 H497 0.958 . S
C483 H498 0.961 . S
C483 H499 0.960 . S
H484 C468 0.931 . S
H485 C473 0.929 . S
H486 C474 0.960 . S
H487 C474 0.962 . S
H488 C474 0.960 . S
H489 C475 0.961 . S
H490 C475 0.961 . S
H491 C475 0.961 . S
H492 C476 0.931 . S
H493 C481 0.930 . S
H494 C482 0.956 . S
H495 C482 0.961 . S
H496 C482 0.961 . S
H497 C483 0.958 . S
H498 C483 0.961 . S
H499 C483 0.960 . S
C500 C501 1.391 . S
C500 C502 1.394 . S
C500 H516 0.931 . S
C501 C500 1.391 . S
C501 C505 1.376 . S
C502 C500 1.394 . S
C502 C503 1.369 . S
C502 C506 1.531 . S
C503 C502 1.369 . S
C503 C504 1.410 . S
C503 C511 1.503 . S
C504 C503 1.410 . S
C504 C505 1.392 . S
C504 C507 1.511 . S
C505 C501 1.376 . S
C505 C504 1.392 . S
C505 H517 0.929 . S
C506 C502 1.531 . S
C506 H518 0.960 . S
C506 H519 0.962 . S
C506 H520 0.960 . S
C507 C504 1.511 . S
C507 H521 0.961 . S
C507 H522 0.961 . S
C507 H523 0.961 . S
C508 C509 1.370 . S
C508 C510 1.363 . S
C508 H524 0.931 . S
C509 C508 1.370 . S
C509 C513 1.408 . S
C510 C508 1.363 . S
C510 C511 1.370 . S
C510 C514 1.524 . S
C511 C503 1.503 . S
C511 C510 1.370 . S
C511 C512 1.403 . S
C512 C511 1.403 . S
C512 C513 1.404 . S
C512 C515 1.539 . S
C513 C509 1.408 . S
C513 C512 1.404 . S
C513 H525 0.930 . S
C514 C510 1.524 . S
C514 H526 0.956 . S
C514 H527 0.961 . S
C514 H528 0.961 . S
C515 C512 1.539 . S
C515 H529 0.958 . S
C515 H530 0.961 . S
C515 H531 0.960 . S
H516 C500 0.931 . S
H517 C505 0.929 . S
H518 C506 0.960 . S
H519 C506 0.962 . S
H520 C506 0.960 . S
H521 C507 0.961 . S
H522 C507 0.961 . S
H523 C507 0.961 . S
H524 C508 0.931 . S
H525 C513 0.930 . S
H526 C514 0.956 . S
H527 C514 0.961 . S
H528 C514 0.961 . S
H529 C515 0.958 . S
H530 C515 0.961 . S
H531 C515 0.960 . S
C532 C533 1.391 . S
C532 C534 1.394 . S
C532 H548 0.931 . S
C533 C532 1.391 . S
C533 C537 1.376 . S
C534 C532 1.394 . S
C534 C535 1.369 . S
C534 C538 1.531 . S
C535 C534 1.369 . S
C535 C536 1.410 . S
C535 C543 1.503 . S
C536 C535 1.410 . S
C536 C537 1.392 . S
C536 C539 1.511 . S
C537 C533 1.376 . S
C537 C536 1.392 . S
C537 H549 0.929 . S
C538 C534 1.531 . S
C538 H550 0.960 . S
C538 H551 0.962 . S
C538 H552 0.960 . S
C539 C536 1.511 . S
C539 H553 0.961 . S
C539 H554 0.961 . S
C539 H555 0.961 . S
C540 C541 1.370 . S
C540 C542 1.363 . S
C540 H556 0.931 . S
C541 C540 1.370 . S
C541 C545 1.408 . S
C542 C540 1.363 . S
C542 C543 1.370 . S
C542 C546 1.524 . S
C543 C535 1.503 . S
C543 C542 1.370 . S
C543 C544 1.403 . S
C544 C543 1.403 . S
C544 C545 1.404 . S
C544 C547 1.539 . S
C545 C541 1.408 . S
C545 C544 1.404 . S
C545 H557 0.930 . S
C546 C542 1.524 . S
C546 H558 0.956 . S
C546 H559 0.961 . S
C546 H560 0.961 . S
C547 C544 1.539 . S
C547 H561 0.958 . S
C547 H562 0.961 . S
C547 H563 0.960 . S
H548 C532 0.931 . S
H549 C537 0.929 . S
H550 C538 0.960 . S
H551 C538 0.962 . S
H552 C538 0.960 . S
H553 C539 0.961 . S
H554 C539 0.961 . S
H555 C539 0.961 . S
H556 C540 0.931 . S
H557 C545 0.930 . S
H558 C546 0.956 . S
H559 C546 0.961 . S
H560 C546 0.961 . S
H561 C547 0.958 . S
H562 C547 0.961 . S
H563 C547 0.960 . S
C564 C565 1.391 . S
C564 C566 1.394 . S
C564 H580 0.931 . S
C565 C564 1.391 . S
C565 C569 1.376 . S
C566 C564 1.394 . S
C566 C567 1.369 . S
C566 C570 1.531 . S
C567 C566 1.369 . S
C567 C568 1.410 . S
C567 C575 1.503 . S
C568 C567 1.410 . S
C568 C569 1.392 . S
C568 C571 1.511 . S
C569 C565 1.376 . S
C569 C568 1.392 . S
C569 H581 0.929 . S
C570 C566 1.531 . S
C570 H582 0.960 . S
C570 H583 0.962 . S
C570 H584 0.960 . S
C571 C568 1.511 . S
C571 H585 0.961 . S
C571 H586 0.961 . S
C571 H587 0.961 . S
C572 C573 1.370 . S
C572 C574 1.363 . S
C572 H588 0.931 . S
C573 C572 1.370 . S
C573 C577 1.408 . S
C574 C572 1.363 . S
C574 C575 1.370 . S
C574 C578 1.524 . S
C575 C567 1.503 . S
C575 C574 1.370 . S
C575 C576 1.403 . S
C576 C575 1.403 . S
C576 C577 1.404 . S
C576 C579 1.539 . S
C577 C573 1.408 . S
C577 C576 1.404 . S
C577 H589 0.930 . S
C578 C574 1.524 . S
C578 H590 0.956 . S
C578 H591 0.961 . S
C578 H592 0.961 . S
C579 C576 1.539 . S
C579 H593 0.958 . S
C579 H594 0.961 . S
C579 H595 0.960 . S
H580 C564 0.931 . S
H581 C569 0.929 . S
H582 C570 0.960 . S
H583 C570 0.962 . S
H584 C570 0.960 . S
H585 C571 0.961 . S
H586 C571 0.961 . S
H587 C571 0.961 . S
H588 C572 0.931 . S
H589 C577 0.930 . S
H590 C578 0.956 . S
H591 C578 0.961 . S
H592 C578 0.961 . S
H593 C579 0.958 . S
H594 C579 0.961 . S
H595 C579 0.960 . S
C596 C597 1.391 . S
C596 C598 1.394 . S
C596 H612 0.931 . S
C597 C596 1.391 . S
C597 C601 1.376 . S
C598 C596 1.394 . S
C598 C599 1.369 . S
C598 C602 1.531 . S
C599 C598 1.369 . S
C599 C600 1.410 . S
C599 C607 1.503 . S
C600 C599 1.410 . S
C600 C601 1.392 . S
C600 C603 1.511 . S
C601 C597 1.376 . S
C601 C600 1.392 . S
C601 H613 0.929 . S
C602 C598 1.531 . S
C602 H614 0.960 . S
C602 H615 0.962 . S
C602 H616 0.960 . S
C603 C600 1.511 . S
C603 H617 0.961 . S
C603 H618 0.961 . S
C603 H619 0.961 . S
C604 C605 1.370 . S
C604 C606 1.363 . S
C604 H620 0.931 . S
C605 C604 1.370 . S
C605 C609 1.408 . S
C606 C604 1.363 . S
C606 C607 1.370 . S
C606 C610 1.524 . S
C607 C599 1.503 . S
C607 C606 1.370 . S
C607 C608 1.403 . S
C608 C607 1.403 . S
C608 C609 1.404 . S
C608 C611 1.539 . S
C609 C605 1.408 . S
C609 C608 1.404 . S
C609 H621 0.930 . S
C610 C606 1.524 . S
C610 H622 0.956 . S
C610 H623 0.961 . S
C610 H624 0.961 . S
C611 C608 1.539 . S
C611 H625 0.958 . S
C611 H626 0.961 . S
C611 H627 0.960 . S
H612 C596 0.931 . S
H613 C601 0.929 . S
H614 C602 0.960 . S
H615 C602 0.962 . S
H616 C602 0.960 . S
H617 C603 0.961 . S
H618 C603 0.961 . S
H619 C603 0.961 . S
H620 C604 0.931 . S
H621 C609 0.930 . S
H622 C610 0.956 . S
H623 C610 0.961 . S
H624 C610 0.961 . S
H625 C611 0.958 . S
H626 C611 0.961 . S
H627 C611 0.960 . S
C628 C629 1.391 . S
C628 C630 1.394 . S
C628 H644 0.931 . S
C629 C628 1.391 . S
C629 C633 1.376 . S
C630 C628 1.394 . S
C630 C631 1.369 . S
C630 C634 1.531 . S
C631 C630 1.369 . S
C631 C632 1.410 . S
C631 C639 1.503 . S
C632 C631 1.410 . S
C632 C633 1.392 . S
C632 C635 1.511 . S
C633 C629 1.376 . S
C633 C632 1.392 . S
C633 H645 0.929 . S
C634 C630 1.531 . S
C634 H646 0.960 . S
C634 H647 0.962 . S
C634 H648 0.960 . S
C635 C632 1.511 . S
C635 H649 0.961 1_556 S
C635 H650 0.961 1_556 S
C635 H651 0.961 . S
C636 C637 1.370 1_554 S
C636 C638 1.363 . S
C636 H652 0.931 . S
C637 C636 1.370 1_556 S
C637 C641 1.408 . S
C638 C636 1.363 . S
C638 C639 1.370 1_554 S
C638 C642 1.524 . S
C639 C631 1.503 . S
C639 C638 1.370 1_556 S
C639 C640 1.403 . S
C640 C639 1.403 . S
C640 C641 1.404 . S
C640 C643 1.539 . S
C641 C637 1.408 . S
C641 C640 1.404 . S
C641 H653 0.930 . S
C642 C638 1.524 . S
C642 H654 0.956 . S
C642 H655 0.961 . S
C642 H656 0.961 . S
C643 C640 1.539 . S
C643 H657 0.958 . S
C643 H658 0.961 . S
C643 H659 0.960 . S
H644 C628 0.931 . S
H645 C633 0.929 . S
H646 C634 0.960 . S
H647 C634 0.962 . S
H648 C634 0.960 . S
H649 C635 0.961 1_554 S
H650 C635 0.961 1_554 S
H651 C635 0.961 . S
H652 C636 0.931 . S
H653 C641 0.930 . S
H654 C642 0.956 . S
H655 C642 0.961 . S
H656 C642 0.961 . S
H657 C643 0.958 . S
H658 C643 0.961 . S
H659 C643 0.960 . S
C660 C661 1.391 . S
C660 C662 1.394 . S
C660 H676 0.931 . S
C661 C660 1.391 . S
C661 C665 1.376 . S
C662 C660 1.394 . S
C662 C663 1.369 . S
C662 C666 1.531 . S
C663 C662 1.369 . S
C663 C664 1.410 . S
C663 C671 1.503 . S
C664 C663 1.410 . S
C664 C665 1.392 . S
C664 C667 1.511 . S
C665 C661 1.376 . S
C665 C664 1.392 . S
C665 H677 0.929 . S
C666 C662 1.531 . S
C666 H678 0.960 . S
C666 H679 0.962 . S
C666 H680 0.960 . S
C667 C664 1.511 . S
C667 H681 0.961 . S
C667 H682 0.961 . S
C667 H683 0.961 . S
C668 C669 1.370 . S
C668 C670 1.363 . S
C668 H684 0.931 . S
C669 C668 1.370 . S
C669 C673 1.408 . S
C670 C668 1.363 . S
C670 C671 1.370 . S
C670 C674 1.524 . S
C671 C663 1.503 . S
C671 C670 1.370 . S
C671 C672 1.403 . S
C672 C671 1.403 . S
C672 C673 1.404 . S
C672 C675 1.539 . S
C673 C669 1.408 . S
C673 C672 1.404 . S
C673 H685 0.930 . S
C674 C670 1.524 . S
C674 H686 0.956 . S
C674 H687 0.961 . S
C674 H688 0.961 . S
C675 C672 1.539 . S
C675 H689 0.958 . S
C675 H690 0.961 . S
C675 H691 0.960 . S
H676 C660 0.931 . S
H677 C665 0.929 . S
H678 C666 0.960 . S
H679 C666 0.962 . S
H680 C666 0.960 . S
H681 C667 0.961 . S
H682 C667 0.961 . S
H683 C667 0.961 . S
H684 C668 0.931 . S
H685 C673 0.930 . S
H686 C674 0.956 . S
H687 C674 0.961 . S
H688 C674 0.961 . S
H689 C675 0.958 . S
H690 C675 0.961 . S
H691 C675 0.960 . S
C692 C693 1.391 . S
C692 C694 1.394 . S
C692 H708 0.931 . S
C693 C692 1.391 . S
C693 C697 1.376 . S
C694 C692 1.394 . S
C694 C695 1.369 . S
C694 C698 1.531 . S
C695 C694 1.369 . S
C695 C696 1.410 . S
C695 C703 1.503 . S
C696 C695 1.410 . S
C696 C697 1.392 . S
C696 C699 1.511 . S
C697 C693 1.376 . S
C697 C696 1.392 . S
C697 H709 0.929 . S
C698 C694 1.531 . S
C698 H710 0.960 . S
C698 H711 0.962 . S
C698 H712 0.960 . S
C699 C696 1.511 . S
C699 H713 0.961 . S
C699 H714 0.961 . S
C699 H715 0.961 . S
C700 C701 1.370 . S
C700 C702 1.363 . S
C700 H716 0.931 . S
C701 C700 1.370 . S
C701 C705 1.408 . S
C702 C700 1.363 . S
C702 C703 1.370 1_554 S
C702 C706 1.524 1_554 S
C703 C695 1.503 . S
C703 C702 1.370 1_556 S
C703 C704 1.403 1_556 S
C704 C703 1.403 1_554 S
C704 C705 1.404 . S
C704 C707 1.539 1_554 S
C705 C701 1.408 . S
C705 C704 1.404 . S
C705 H717 0.930 . S
C706 C702 1.524 1_556 S
C706 H718 0.956 . S
C706 H719 0.961 . S
C706 H720 0.961 . S
C707 C704 1.539 1_556 S
C707 H721 0.958 . S
C707 H722 0.961 1_556 S
C707 H723 0.960 . S
H708 C692 0.931 . S
H709 C697 0.929 . S
H710 C698 0.960 . S
H711 C698 0.962 . S
H712 C698 0.960 . S
H713 C699 0.961 . S
H714 C699 0.961 . S
H715 C699 0.961 . S
H716 C700 0.931 . S
H717 C705 0.930 . S
H718 C706 0.956 . S
H719 C706 0.961 . S
H720 C706 0.961 . S
H721 C707 0.958 . S
H722 C707 0.961 1_554 S
H723 C707 0.960 . S
C724 C725 1.391 . S
C724 C726 1.394 . S
C724 H740 0.931 . S
C725 C724 1.391 . S
C725 C729 1.376 . S
C726 C724 1.394 . S
C726 C727 1.369 . S
C726 C730 1.531 . S
C727 C726 1.369 . S
C727 C728 1.410 . S
C727 C735 1.503 . S
C728 C727 1.410 . S
C728 C729 1.392 . S
C728 C731 1.511 . S
C729 C725 1.376 . S
C729 C728 1.392 . S
C729 H741 0.929 . S
C730 C726 1.531 . S
C730 H742 0.960 . S
C730 H743 0.962 . S
C730 H744 0.960 . S
C731 C728 1.511 . S
C731 H745 0.961 . S
C731 H746 0.961 . S
C731 H747 0.961 . S
C732 C733 1.370 . S
C732 C734 1.363 . S
C732 H748 0.931 . S
C733 C732 1.370 . S
C733 C737 1.408 . S
C734 C732 1.363 . S
C734 C735 1.370 . S
C734 C738 1.524 . S
C735 C727 1.503 . S
C735 C734 1.370 . S
C735 C736 1.403 . S
C736 C735 1.403 . S
C736 C737 1.404 . S
C736 C739 1.539 . S
C737 C733 1.408 . S
C737 C736 1.404 . S
C737 H749 0.930 . S
C738 C734 1.524 . S
C738 H750 0.956 . S
C738 H751 0.961 . S
C738 H752 0.961 . S
C739 C736 1.539 . S
C739 H753 0.958 . S
C739 H754 0.961 . S
C739 H755 0.960 . S
H740 C724 0.931 . S
H741 C729 0.929 . S
H742 C730 0.960 . S
H743 C730 0.962 . S
H744 C730 0.960 . S
H745 C731 0.961 . S
H746 C731 0.961 . S
H747 C731 0.961 . S
H748 C732 0.931 . S
H749 C737 0.930 . S
H750 C738 0.956 . S
H751 C738 0.961 . S
H752 C738 0.961 . S
H753 C739 0.958 . S
H754 C739 0.961 . S
H755 C739 0.960 . S
C756 C757 1.391 . S
C756 C758 1.394 . S
C756 H772 0.931 . S
C757 C756 1.391 . S
C757 C761 1.376 . S
C758 C756 1.394 . S
C758 C759 1.369 . S
C758 C762 1.531 . S
C759 C758 1.369 . S
C759 C760 1.410 . S
C759 C767 1.503 . S
C760 C759 1.410 . S
C760 C761 1.392 . S
C760 C763 1.511 . S
C761 C757 1.376 . S
C761 C760 1.392 . S
C761 H773 0.929 . S
C762 C758 1.531 . S
C762 H774 0.960 . S
C762 H775 0.962 . S
C762 H776 0.960 . S
C763 C760 1.511 . S
C763 H777 0.961 . S
C763 H778 0.961 . S
C763 H779 0.961 . S
C764 C765 1.370 . S
C764 C766 1.363 . S
C764 H780 0.931 . S
C765 C764 1.370 . S
C765 C769 1.408 . S
C766 C764 1.363 . S
C766 C767 1.370 . S
C766 C770 1.524 . S
C767 C759 1.503 . S
C767 C766 1.370 . S
C767 C768 1.403 . S
C768 C767 1.403 . S
C768 C769 1.404 . S
C768 C771 1.539 . S
C769 C765 1.408 . S
C769 C768 1.404 . S
C769 H781 0.930 . S
C770 C766 1.524 . S
C770 H782 0.956 . S
C770 H783 0.961 . S
C770 H784 0.961 . S
C771 C768 1.539 . S
C771 H785 0.958 . S
C771 H786 0.961 . S
C771 H787 0.960 . S
H772 C756 0.931 . S
H773 C761 0.929 . S
H774 C762 0.960 . S
H775 C762 0.962 . S
H776 C762 0.960 . S
H777 C763 0.961 . S
H778 C763 0.961 . S
H779 C763 0.961 . S
H780 C764 0.931 . S
H781 C769 0.930 . S
H782 C770 0.956 . S
H783 C770 0.961 . S
H784 C770 0.961 . S
H785 C771 0.958 . S
H786 C771 0.961 . S
H787 C771 0.960 . S
C788 C789 1.391 . S
C788 C790 1.394 . S
C788 H804 0.931 . S
C789 C788 1.391 . S
C789 C793 1.376 . S
C790 C788 1.394 . S
C790 C791 1.369 . S
C790 C794 1.531 . S
C791 C790 1.369 . S
C791 C792 1.410 . S
C791 C799 1.503 . S
C792 C791 1.410 . S
C792 C793 1.392 . S
C792 C795 1.511 . S
C793 C789 1.376 . S
C793 C792 1.392 . S
C793 H805 0.929 . S
C794 C790 1.531 . S
C794 H806 0.960 . S
C794 H807 0.962 . S
C794 H808 0.960 . S
C795 C792 1.511 . S
C795 H809 0.961 . S
C795 H810 0.961 . S
C795 H811 0.961 . S
C796 C797 1.370 . S
C796 C798 1.363 . S
C796 H812 0.931 . S
C797 C796 1.370 . S
C797 C801 1.408 . S
C798 C796 1.363 . S
C798 C799 1.370 . S
C798 C802 1.524 . S
C799 C791 1.503 . S
C799 C798 1.370 . S
C799 C800 1.403 . S
C800 C799 1.403 . S
C800 C801 1.404 . S
C800 C803 1.539 . S
C801 C797 1.408 . S
C801 C800 1.404 . S
C801 H813 0.930 . S
C802 C798 1.524 . S
C802 H814 0.956 . S
C802 H815 0.961 . S
C802 H816 0.961 . S
C803 C800 1.539 . S
C803 H817 0.958 . S
C803 H818 0.961 . S
C803 H819 0.960 . S
H804 C788 0.931 . S
H805 C793 0.929 . S
H806 C794 0.960 . S
H807 C794 0.962 . S
H808 C794 0.960 . S
H809 C795 0.961 . S
H810 C795 0.961 . S
H811 C795 0.961 . S
H812 C796 0.931 . S
H813 C801 0.930 . S
H814 C802 0.956 . S
H815 C802 0.961 . S
H816 C802 0.961 . S
H817 C803 0.958 . S
H818 C803 0.961 . S
H819 C803 0.960 . S
C820 C821 1.391 . S
C820 C822 1.394 . S
C820 H836 0.931 . S
C821 C820 1.391 . S
C821 C825 1.376 . S
C822 C820 1.394 . S
C822 C823 1.369 . S
C822 C826 1.531 . S
C823 C822 1.369 . S
C823 C824 1.410 . S
C823 C831 1.503 . S
C824 C823 1.410 . S
C824 C825 1.392 . S
C824 C827 1.511 . S
C825 C821 1.376 . S
C825 C824 1.392 . S
C825 H837 0.929 . S
C826 C822 1.531 . S
C826 H838 0.960 . S
C826 H839 0.962 . S
C826 H840 0.960 . S
C827 C824 1.511 . S
C827 H841 0.961 . S
C827 H842 0.961 . S
C827 H843 0.961 . S
C828 C829 1.370 . S
C828 C830 1.363 . S
C828 H844 0.931 . S
C829 C828 1.370 . S
C829 C833 1.408 . S
C830 C828 1.363 . S
C830 C831 1.370 . S
C830 C834 1.524 . S
C831 C823 1.503 . S
C831 C830 1.370 . S
C831 C832 1.403 . S
C832 C831 1.403 . S
C832 C833 1.404 . S
C832 C835 1.539 . S
C833 C829 1.408 . S
C833 C832 1.404 . S
C833 H845 0.930 . S
C834 C830 1.524 . S
C834 H846 0.956 . S
C834 H847 0.961 . S
C834 H848 0.961 . S
C835 C832 1.539 . S
C835 H849 0.958 . S
C835 H850 0.961 . S
C835 H851 0.960 . S
H836 C820 0.931 . S
H837 C825 0.929 . S
H838 C826 0.960 . S
H839 C826 0.962 . S
H840 C826 0.960 . S
H841 C827 0.961 . S
H842 C827 0.961 . S
H843 C827 0.961 . S
H844 C828 0.931 . S
H845 C833 0.930 . S
H846 C834 0.956 . S
H847 C834 0.961 . S
H848 C834 0.961 . S
H849 C835 0.958 . S
H850 C835 0.961 . S
H851 C835 0.960 . S
C852 C853 1.391 1_556 S
C852 C854 1.394 1_556 S
C852 H868 0.931 . S
C853 C852 1.391 1_554 S
C853 C857 1.376 . S
C854 C852 1.394 1_554 S
C854 C855 1.369 . S
C854 C858 1.531 1_554 S
C855 C854 1.369 . S
C855 C856 1.410 . S
C855 C863 1.503 1_545 S
C856 C855 1.410 . S
C856 C857 1.392 . S
C856 C859 1.511 . S
C857 C853 1.376 . S
C857 C856 1.392 . S
C857 H869 0.929 . S
C858 C854 1.531 1_556 S
C858 H870 0.960 1_545 S
C858 H871 0.962 . S
C858 H872 0.960 . S
C859 C856 1.511 . S
C859 H873 0.961 . S
C859 H874 0.961 . S
C859 H875 0.961 . S
C860 C861 1.370 . S
C860 C862 1.363 . S
C860 H876 0.931 . S
C861 C860 1.370 . S
C861 C865 1.408 . S
C862 C860 1.363 . S
C862 C863 1.370 . S
C862 C866 1.524 . S
C863 C855 1.503 1_565 S
C863 C862 1.370 . S
C863 C864 1.403 . S
C864 C863 1.403 . S
C864 C865 1.404 . S
C864 C867 1.539 . S
C865 C861 1.408 . S
C865 C864 1.404 . S
C865 H877 0.930 . S
C866 C862 1.524 . S
C866 H878 0.956 . S
C866 H879 0.961 1_565 S
C866 H880 0.961 . S
C867 C864 1.539 . S
C867 H881 0.958 . S
C867 H882 0.961 . S
C867 H883 0.944 1_565 S
H868 C852 0.931 . S
H869 C857 0.929 . S
H870 C858 0.960 1_565 S
H871 C858 0.962 . S
H872 C858 0.960 . S
H873 C859 0.961 . S
H874 C859 0.961 . S
H875 C859 0.961 . S
H876 C860 0.931 . S
H877 C865 0.930 . S
H878 C866 0.956 . S
H879 C866 0.961 1_545 S
H880 C866 0.961 . S
H881 C867 0.958 . S
H882 C867 0.961 . S
H883 C867 0.944 1_545 S
C884 C885 1.391 . S
C884 C886 1.394 . S
C884 H900 0.931 . S
C885 C884 1.391 . S
C885 C889 1.376 . S
C886 C884 1.394 . S
C886 C887 1.369 . S
C886 C890 1.531 . S
C887 C886 1.369 . S
C887 C888 1.410 . S
C887 C895 1.503 . S
C888 C887 1.410 . S
C888 C889 1.392 . S
C888 C891 1.511 . S
C889 C885 1.376 . S
C889 C888 1.392 . S
C889 H901 0.929 . S
C890 C886 1.531 . S
C890 H902 0.960 . S
C890 H903 0.962 . S
C890 H904 0.960 . S
C891 C888 1.511 . S
C891 H905 0.961 . S
C891 H906 0.961 . S
C891 H907 0.961 . S
C892 C893 1.370 . S
C892 C894 1.363 . S
C892 H908 0.931 . S
C893 C892 1.370 . S
C893 C897 1.408 . S
C894 C892 1.363 . S
C894 C895 1.370 . S
C894 C898 1.524 . S
C895 C887 1.503 . S
C895 C894 1.370 . S
C895 C896 1.403 . S
C896 C895 1.403 . S
C896 C897 1.404 . S
C896 C899 1.539 . S
C897 C893 1.408 . S
C897 C896 1.404 . S
C897 H909 0.930 . S
C898 C894 1.524 . S
C898 H910 0.956 . S
C898 H911 0.961 . S
C898 H912 0.961 . S
C899 C896 1.539 . S
C899 H913 0.958 . S
C899 H914 0.961 . S
C899 H915 0.960 . S
H900 C884 0.931 . S
H901 C889 0.929 . S
H902 C890 0.960 . S
H903 C890 0.962 . S
H904 C890 0.960 . S
H905 C891 0.961 . S
H906 C891 0.961 . S
H907 C891 0.961 . S
H908 C892 0.931 . S
H909 C897 0.930 . S
H910 C898 0.956 . S
H911 C898 0.961 . S
H912 C898 0.961 . S
H913 C899 0.958 . S
H914 C899 0.961 . S
H915 C899 0.960 . S
C916 C917 1.391 . S
C916 C918 1.394 . S
C916 H932 0.931 . S
C917 C916 1.391 . S
C917 C921 1.376 . S
C918 C916 1.394 . S
C918 C919 1.369 . S
C918 C922 1.531 . S
C919 C918 1.369 . S
C919 C920 1.410 . S
C919 C927 1.503 1_455 S
C920 C919 1.410 . S
C920 C921 1.392 . S
C920 C923 1.511 . S
C921 C917 1.376 . S
C921 C920 1.392 . S
C921 H933 0.929 . S
C922 C918 1.531 . S
C922 H934 0.960 1_455 S
C922 H935 0.962 . S
C922 H936 0.960 . S
C923 C920 1.511 . S
C923 H937 0.961 . S
C923 H938 0.961 . S
C923 H939 0.961 . S
C924 C925 1.370 . S
C924 C926 1.363 . S
C924 H940 0.931 . S
C925 C924 1.370 . S
C925 C929 1.408 . S
C926 C924 1.363 . S
C926 C927 1.370 . S
C926 C930 1.524 . S
C927 C919 1.503 1_655 S
C927 C926 1.370 . S
C927 C928 1.403 . S
C928 C927 1.403 . S
C928 C929 1.404 . S
C928 C931 1.539 . S
C929 C925 1.408 . S
C929 C928 1.404 . S
C929 H941 0.930 . S
C930 C926 1.524 . S
C930 H942 0.986 . S
C930 H943 0.961 1_655 S
C930 H944 0.961 . S
C931 C928 1.539 . S
C931 H945 0.958 . S
C931 H946 0.961 . S
C931 H947 0.960 . S
H932 C916 0.931 . S
H933 C921 0.929 . S
H934 C922 0.960 1_655 S
H935 C922 0.962 . S
H936 C922 0.960 . S
H937 C923 0.961 . S
H938 C923 0.961 . S
H939 C923 0.961 . S
H940 C924 0.931 . S
H941 C929 0.930 . S
H942 C930 0.986 . S
H943 C930 0.961 1_455 S
H944 C930 0.961 . S
H945 C931 0.958 . S
H946 C931 0.961 . S
H947 C931 0.960 . S
C948 C949 1.391 . S
C948 C950 1.394 . S
C948 H964 0.931 . S
C949 C948 1.391 . S
C949 C953 1.376 . S
C950 C948 1.394 . S
C950 C951 1.369 . S
C950 C954 1.531 . S
C951 C950 1.369 . S
C951 C952 1.410 . S
C951 C959 1.503 1_565 S
C952 C951 1.410 . S
C952 C953 1.392 . S
C952 C955 1.511 . S
C953 C949 1.376 . S
C953 C952 1.392 . S
C953 H965 0.929 . S
C954 C950 1.531 . S
C954 H966 0.960 1_565 S
C954 H967 0.962 . S
C954 H968 0.960 . S
C955 C952 1.511 . S
C955 H969 0.961 . S
C955 H970 0.937 1_565 S
C955 H971 0.961 . S
C956 C957 1.370 . S
C956 C958 1.363 . S
C956 H972 0.931 . S
C957 C956 1.370 . S
C957 C961 1.408 . S
C958 C956 1.363 . S
C958 C959 1.370 . S
C958 C962 1.524 . S
C959 C951 1.503 1_545 S
C959 C958 1.370 . S
C959 C960 1.403 . S
C960 C959 1.403 . S
C960 C961 1.404 . S
C960 C963 1.539 . S
C961 C957 1.408 . S
C961 C960 1.404 . S
C961 H973 0.930 . S
C962 C958 1.524 . S
C962 H974 0.956 1_545 S
C962 H975 0.961 1_545 S
C962 H976 0.961 . S
C963 C960 1.539 . S
C963 H977 0.958 . S
C963 H978 0.961 . S
C963 H979 0.960 . S
H964 C948 0.931 . S
H965 C953 0.929 . S
H966 C954 0.960 1_545 S
H967 C954 0.962 . S
H968 C954 0.960 . S
H969 C955 0.961 . S
H970 C955 0.937 1_545 S
H971 C955 0.961 . S
H972 C956 0.931 . S
H973 C961 0.930 . S
H974 C962 0.956 1_565 S
H975 C962 0.961 1_565 S
H976 C962 0.961 . S
H977 C963 0.958 . S
H978 C963 0.961 . S
H979 C963 0.960 . S
C980 C981 1.391 . S
C980 C982 1.394 . S
C980 H996 0.931 . S
C981 C980 1.391 . S
C981 C985 1.376 . S
C982 C980 1.394 . S
C982 C983 1.369 . S
C982 C986 1.531 . S
C983 C982 1.369 . S
C983 C984 1.410 . S
C983 C991 1.503 . S
C984 C983 1.410 . S
C984 C985 1.392 . S
C984 C987 1.511 . S
C985 C981 1.376 . S
C985 C984 1.392 . S
C985 H997 0.929 . S
C986 C982 1.531 . S
C986 H998 0.960 . S
C986 H999 0.962 . S
C986 H1000 0.960 . S
C987 C984 1.511 . S
C987 H1001 0.961 . S
C987 H1002 0.961 . S
C987 H1003 0.961 . S
C988 C989 1.370 . S
C988 C990 1.363 . S
C988 H1004 0.931 . S
C989 C988 1.370 . S
C989 C993 1.408 . S
C990 C988 1.363 . S
C990 C991 1.370 . S
C990 C994 1.524 . S
C991 C983 1.503 . S
C991 C990 1.370 . S
C991 C992 1.403 . S
C992 C991 1.403 . S
C992 C993 1.404 . S
C992 C995 1.539 . S
C993 C989 1.408 . S
C993 C992 1.404 . S
C993 H1005 0.930 . S
C994 C990 1.524 . S
C994 H1006 0.956 . S
C994 H1007 0.961 . S
C994 H1008 0.961 . S
C995 C992 1.539 . S
C995 H1009 0.958 . S
C995 H1010 0.961 . S
C995 H1011 0.960 . S
H996 C980 0.931 . S
H997 C985 0.929 . S
H998 C986 0.960 . S
H999 C986 0.962 . S
H1000 C986 0.960 . S
H1001 C987 0.961 . S
H1002 C987 0.961 . S
H1003 C987 0.961 . S
H1004 C988 0.931 . S
H1005 C993 0.930 . S
H1006 C994 0.956 . S
H1007 C994 0.961 . S
H1008 C994 0.961 . S
H1009 C995 0.958 . S
H1010 C995 0.961 . S
H1011 C995 0.960 . S
C1012 C1013 1.391 . S
C1012 C1014 1.394 . S
C1012 H1028 0.931 . S
C1013 C1012 1.391 . S
C1013 C1017 1.376 . S
C1014 C1012 1.394 . S
C1014 C1015 1.369 . S
C1014 C1018 1.531 . S
C1015 C1014 1.369 . S
C1015 C1016 1.410 . S
C1015 C1023 1.503 1_455 S
C1016 C1015 1.410 . S
C1016 C1017 1.392 . S
C1016 C1019 1.511 . S
C1017 C1013 1.376 . S
C1017 C1016 1.392 . S
C1017 H1029 0.929 . S
C1018 C1014 1.531 . S
C1018 H1030 0.960 . S
C1018 H1031 0.962 . S
C1018 H1032 0.960 . S
C1019 C1016 1.511 . S
C1019 H1033 0.961 . S
C1019 H1034 0.961 1_455 S
C1019 H1035 0.961 . S
C1020 C1021 1.370 . S
C1020 C1022 1.363 . S
C1020 H1036 0.931 . S
C1021 C1020 1.370 . S
C1021 C1025 1.408 . S
C1022 C1020 1.363 . S
C1022 C1023 1.370 . S
C1022 C1026 1.524 . S
C1023 C1015 1.503 1_655 S
C1023 C1022 1.370 . S
C1023 C1024 1.403 . S
C1024 C1023 1.403 . S
C1024 C1025 1.404 . S
C1024 C1027 1.539 . S
C1025 C1021 1.408 . S
C1025 C1024 1.404 . S
C1025 H1037 0.930 . S
C1026 C1022 1.524 . S
C1026 H1038 0.956 . S
C1026 H1039 0.961 . S
C1026 H1040 0.961 . S
C1027 C1024 1.539 . S
C1027 H1041 0.958 . S
C1027 H1042 0.961 . S
C1027 H1043 0.960 1_655 S
H1028 C1012 0.931 . S
H1029 C1017 0.929 . S
H1030 C1018 0.960 . S
H1031 C1018 0.962 . S
H1032 C1018 0.960 . S
H1033 C1019 0.961 . S
H1034 C1019 0.961 1_655 S
H1035 C1019 0.961 . S
H1036 C1020 0.931 . S
H1037 C1025 0.930 . S
H1038 C1026 0.956 . S
H1039 C1026 0.961 . S
H1040 C1026 0.961 . S
H1041 C1027 0.958 . S
H1042 C1027 0.961 . S
H1043 C1027 0.960 1_455 S
C277 C7 1.118 . S
C285 C237 1.121 . S
C309 C30 1.103 . S
C317 C260 1.113 . S
C341 C145 1.102 . S
C349 C53 1.112 . S
C373 C76 1.121 . S
C381 C168 1.121 . S
C405 C191 1.118 . S
C413 C99 1.121 . S
C437 C214 1.126 . S
C445 C122 1.120 1_554 S
C469 N196 1.751 . S
C477 N12 1.731 . S
C501 N35 1.724 . S
C509 N219 1.746 . S
C533 N242 1.750 . S
C541 N58 1.738 . S
C565 N81 1.723 . S
C573 N265 1.740 . S
C597 N104 1.737 . S
C605 N150 1.742 . S
C629 N127 1.717 . S
C637 N173 1.744 1_556 S
C661 C246 1.923 . S
C669 C16 1.920 . S
C693 C269 1.917 . S
C701 C39 1.924 . S
C725 C154 1.922 1_554 S
C733 C62 1.924 . S
C757 C85 1.919 . S
C765 C177 1.918 . S
C789 C108 1.918 . S
C797 C200 1.917 . S
C821 C223 1.911 . S
C829 C131 1.922 . S
C853 N2 1.725 . S
C861 N163 1.715 . S
C885 N186 1.733 . S
C893 N25 1.711 . S
C917 N209 1.732 . S
C925 N48 1.711 . S
C949 N71 1.734 . S
C957 N232 1.698 . S
C981 N94 1.717 . S
C989 N255 1.689 . S
C1013 N117 1.659 . S
C1021 N140 1.700 . S
