# Generated by pormake.
# Topology gan, (5)-cn, num edge types: 1
# Building blocks:
#     Node 0, Type 0, BuildingBlock: BEQFEK_clean_sbu_0, # of connection points: 5
#     Node 1, Type 0, BuildingBlock: BEQFEK_clean_sbu_0, # of connection points: 5
#     Node 2, Type 0, BuildingBlock: BEQFEK_clean_sbu_0, # of connection points: 5
#     Node 3, Type 0, BuildingBlock: BEQFEK_clean_sbu_0, # of connection points: 5
#     Node 4, Type 0, BuildingBlock: BEQFEK_clean_sbu_0, # of connection points: 5
#     Node 5, Type 0, BuildingBlock: BEQFEK_clean_sbu_0, # of connection points: 5
#     Node 6, Type 0, BuildingBlock: BEQFEK_clean_sbu_0, # of connection points: 5
#     Node 7, Type 0, BuildingBlock: BEQFEK_clean_sbu_0, # of connection points: 5
#     Node 8, Type 0, BuildingBlock: BEQFEK_clean_sbu_0, # of connection points: 5
#     Node 9, Type 0, BuildingBlock: BEQFEK_clean_sbu_0, # of connection points: 5
#     Node 10, Type 0, BuildingBlock: BEQFEK_clean_sbu_0, # of connection points: 5
#     Node 11, Type 0, BuildingBlock: BEQFEK_clean_sbu_0, # of connection points: 5
#     Node 12, Type 0, BuildingBlock: BEQFEK_clean_sbu_0, # of connection points: 5
#     Node 13, Type 0, BuildingBlock: BEQFEK_clean_sbu_0, # of connection points: 5
#     Node 14, Type 0, BuildingBlock: BEQFEK_clean_sbu_0, # of connection points: 5
#     Node 15, Type 0, BuildingBlock: BEQFEK_clean_sbu_0, # of connection points: 5
#     Edge 16, Type (0, 0), BuildingBlock: KIFKEQ_clean_linker_1, # of connection points: 2
#     Edge 17, Type (0, 0), BuildingBlock: KIFKEQ_clean_linker_1, # of connection points: 2
#     Edge 18, Type (0, 0), BuildingBlock: KIFKEQ_clean_linker_1, # of connection points: 2
#     Edge 19, Type (0, 0), BuildingBlock: KIFKEQ_clean_linker_1, # of connection points: 2
#     Edge 20, Type (0, 0), BuildingBlock: KIFKEQ_clean_linker_1, # of connection points: 2
#     Edge 21, Type (0, 0), BuildingBlock: KIFKEQ_clean_linker_1, # of connection points: 2
#     Edge 22, Type (0, 0), BuildingBlock: KIFKEQ_clean_linker_1, # of connection points: 2
#     Edge 23, Type (0, 0), BuildingBlock: KIFKEQ_clean_linker_1, # of connection points: 2
#     Edge 24, Type (0, 0), BuildingBlock: KIFKEQ_clean_linker_1, # of connection points: 2
#     Edge 25, Type (0, 0), BuildingBlock: KIFKEQ_clean_linker_1, # of connection points: 2
#     Edge 26, Type (0, 0), BuildingBlock: KIFKEQ_clean_linker_1, # of connection points: 2
#     Edge 27, Type (0, 0), BuildingBlock: KIFKEQ_clean_linker_1, # of connection points: 2
#     Edge 28, Type (0, 0), BuildingBlock: KIFKEQ_clean_linker_1, # of connection points: 2
#     Edge 29, Type (0, 0), BuildingBlock: KIFKEQ_clean_linker_1, # of connection points: 2
#     Edge 30, Type (0, 0), BuildingBlock: KIFKEQ_clean_linker_1, # of connection points: 2
#     Edge 31, Type (0, 0), BuildingBlock: KIFKEQ_clean_linker_1, # of connection points: 2
#     Edge 32, Type (0, 0), BuildingBlock: KIFKEQ_clean_linker_1, # of connection points: 2
#     Edge 33, Type (0, 0), BuildingBlock: KIFKEQ_clean_linker_1, # of connection points: 2
#     Edge 34, Type (0, 0), BuildingBlock: KIFKEQ_clean_linker_1, # of connection points: 2
#     Edge 35, Type (0, 0), BuildingBlock: KIFKEQ_clean_linker_1, # of connection points: 2
#     Edge 36, Type (0, 0), BuildingBlock: KIFKEQ_clean_linker_1, # of connection points: 2
#     Edge 37, Type (0, 0), BuildingBlock: KIFKEQ_clean_linker_1, # of connection points: 2
#     Edge 38, Type (0, 0), BuildingBlock: KIFKEQ_clean_linker_1, # of connection points: 2
#     Edge 39, Type (0, 0), BuildingBlock: KIFKEQ_clean_linker_1, # of connection points: 2
#     Edge 40, Type (0, 0), BuildingBlock: KIFKEQ_clean_linker_1, # of connection points: 2
#     Edge 41, Type (0, 0), BuildingBlock: KIFKEQ_clean_linker_1, # of connection points: 2
#     Edge 42, Type (0, 0), BuildingBlock: KIFKEQ_clean_linker_1, # of connection points: 2
#     Edge 43, Type (0, 0), BuildingBlock: KIFKEQ_clean_linker_1, # of connection points: 2
#     Edge 44, Type (0, 0), BuildingBlock: KIFKEQ_clean_linker_1, # of connection points: 2
#     Edge 45, Type (0, 0), BuildingBlock: KIFKEQ_clean_linker_1, # of connection points: 2
#     Edge 46, Type (0, 0), BuildingBlock: KIFKEQ_clean_linker_1, # of connection points: 2
#     Edge 47, Type (0, 0), BuildingBlock: KIFKEQ_clean_linker_1, # of connection points: 2
#     Edge 48, Type (0, 0), BuildingBlock: KIFKEQ_clean_linker_1, # of connection points: 2
#     Edge 49, Type (0, 0), BuildingBlock: KIFKEQ_clean_linker_1, # of connection points: 2
#     Edge 50, Type (0, 0), BuildingBlock: KIFKEQ_clean_linker_1, # of connection points: 2
#     Edge 51, Type (0, 0), BuildingBlock: KIFKEQ_clean_linker_1, # of connection points: 2
#     Edge 52, Type (0, 0), BuildingBlock: KIFKEQ_clean_linker_1, # of connection points: 2
#     Edge 53, Type (0, 0), BuildingBlock: KIFKEQ_clean_linker_1, # of connection points: 2
#     Edge 54, Type (0, 0), BuildingBlock: KIFKEQ_clean_linker_1, # of connection points: 2
#     Edge 55, Type (0, 0), BuildingBlock: KIFKEQ_clean_linker_1, # of connection points: 2
# Relax obj value: 0.119
# Max RMSD: 0.207
# Mean RMSD: 0.185
data_MOF--net-gan--node1-BEQFEK_clean_sbu_0--edge1-KIFKEQ_clean_linker_1
_symmetry_space_group_name_H-M    P1
_symmetry_Int_Tables_number       1
_symmetry_cell_setting            triclinic
loop_
_symmetry_equiv_pos_as_xyz
'x, y, z'
_cell_length_a     45.293003
_cell_length_b     45.69281
_cell_length_c     44.763111
_cell_angle_alpha  91.675764
_cell_angle_beta   91.3019
_cell_angle_gamma 93.610507
loop_
_atom_site_label
_atom_site_type_symbol
_atom_site_fract_x
_atom_site_fract_y
_atom_site_fract_z
_atom_type_partial_charge
Co0 Co 0.10402 0.12127 0.10308 0.0
Co1 Co 0.14734 0.165 0.13775 0.0
C2 C 0.13199 0.10831 0.16388 0.0
O3 O 0.11643 0.10189 0.14022 0.0
O4 O 0.14601 0.13333 0.1675 0.0
C5 C 0.0517 0.08459 0.10197 0.0
O6 O 0.05454 0.0873 0.13121 0.0
C7 C 0.19439 0.20213 0.16843 0.0
C8 C 0.1952 0.24056 0.13936 0.0
C9 C 0.21 0.2285 0.1629 0.0
N10 N 0.17173 0.19867 0.1486 0.0
N11 N 0.17228 0.2217 0.13139 0.0
C12 C 0.20051 0.18054 0.19193 0.0
H13 H 0.17942 0.17013 0.19974 0.0
H14 H 0.21293 0.19134 0.21132 0.0
H15 H 0.21366 0.16308 0.18222 0.0
C16 C 0.06482 0.17091 0.10907 0.0
N17 N 0.09099 0.15879 0.11273 0.0
N18 N 0.10885 0.17669 0.12924 0.0
C19 C 0.09446 0.20052 0.13726 0.0
C20 C 0.06614 0.19774 0.12458 0.0
C21 C 0.0392 0.15725 0.09084 0.0
H22 H 0.04723 0.14504 0.07118 0.0
H23 H 0.02622 0.14165 0.10474 0.0
H24 H 0.02445 0.17415 0.08312 0.0
O25 O 0.13612 0.12249 0.07375 0.0
O26 O 0.16697 0.15186 0.10129 0.0
H27 H 0.11705 0.24233 0.14674 0.0
H28 H 0.08831 0.23276 0.17233 0.0
C29 C 0.10641 0.22399 0.15911 0.0
H30 H 0.12305 0.21529 0.17449 0.0
H31 H 0.15777 0.22387 0.11326 0.0
O32 O 0.07078 0.09726 0.08561 0.0
C33 C 0.1612 0.13626 0.07771 0.0
Co34 Co 0.10421 0.90638 0.39339 0.0
Co35 Co 0.14418 0.87061 0.35034 0.0
C36 C 0.16532 0.8885 0.41223 0.0
O37 O 0.14105 0.90044 0.41699 0.0
O38 O 0.1701 0.87572 0.38717 0.0
C39 C 0.0884 0.94868 0.43884 0.0
O40 O 0.1165 0.94867 0.44676 0.0
C41 C 0.18591 0.83368 0.31771 0.0
C42 C 0.16531 0.83209 0.27242 0.0
C43 C 0.18828 0.82159 0.28901 0.0
N44 N 0.16267 0.85073 0.31788 0.0
N45 N 0.15038 0.84936 0.29076 0.0
C46 C 0.20512 0.82911 0.34455 0.0
H47 H 0.19239 0.81554 0.36058 0.0
H48 H 0.21147 0.85059 0.35583 0.0
H49 H 0.2254 0.81815 0.33843 0.0
C50 C 0.10992 0.94859 0.34451 0.0
N51 N 0.11483 0.9224 0.35611 0.0
N52 N 0.13306 0.9086 0.33892 0.0
C53 C 0.14118 0.92621 0.3164 0.0
C54 C 0.12651 0.95196 0.319 0.0
C55 C 0.09159 0.97081 0.35908 0.0
H56 H 0.06932 0.96055 0.36351 0.0
H57 H 0.10209 0.97805 0.38091 0.0
H58 H 0.08943 0.99025 0.34512 0.0
O59 O 0.08061 0.86873 0.38809 0.0
O60 O 0.10867 0.84404 0.35776 0.0
H61 H 0.15115 0.90801 0.2736 0.0
H62 H 0.17519 0.93892 0.28527 0.0
C63 C 0.16309 0.91893 0.29319 0.0
H64 H 0.1793 0.90412 0.30229 0.0
H65 H 0.13116 0.85952 0.28497 0.0
O66 O 0.07883 0.93296 0.41633 0.0
C67 C 0.08539 0.84565 0.37293 0.0
Co68 Co 0.38606 0.93282 0.5953 0.0
Co69 Co 0.34697 0.89005 0.63328 0.0
C70 C 0.36673 0.94932 0.65773 0.0
O71 O 0.37965 0.95516 0.63339 0.0
O72 O 0.35278 0.92459 0.66114 0.0
C73 C 0.43874 0.96864 0.58571 0.0
O74 O 0.44302 0.96545 0.61454 0.0
C75 C 0.32385 0.85243 0.68122 0.0
C76 C 0.30261 0.81531 0.65415 0.0
C77 C 0.3089 0.82516 0.68327 0.0
N78 N 0.32652 0.85826 0.65209 0.0
N79 N 0.31347 0.83615 0.63609 0.0
C80 C 0.33764 0.87142 0.7062 0.0
H81 H 0.35901 0.88193 0.69916 0.0
H82 H 0.3413 0.85856 0.72645 0.0
H83 H 0.32267 0.88901 0.71175 0.0
C84 C 0.42512 0.88248 0.5963 0.0
N85 N 0.40041 0.8957 0.60381 0.0
N86 N 0.38416 0.87804 0.62046 0.0
C87 C 0.3982 0.85325 0.62439 0.0
C88 C 0.42444 0.85516 0.60906 0.0
C89 C 0.44826 0.89513 0.57622 0.0
H90 H 0.43774 0.90685 0.55786 0.0
H91 H 0.46327 0.91104 0.58933 0.0
H92 H 0.4616 0.87776 0.5666 0.0
O93 O 0.34943 0.92729 0.56985 0.0
O94 O 0.32162 0.89817 0.59805 0.0
H95 H 0.36882 0.81604 0.63248 0.0
H96 H 0.40535 0.81389 0.64878 0.0
C97 C 0.38762 0.82886 0.64388 0.0
H98 H 0.38003 0.83808 0.66531 0.0
H99 H 0.31268 0.83496 0.61276 0.0
O100 O 0.41571 0.95634 0.57283 0.0
C101 C 0.32523 0.91251 0.57431 0.0
Co102 Co 0.3659 0.15776 0.85071 0.0
Co103 Co 0.40461 0.11832 0.8918 0.0
C104 C 0.38668 0.09819 0.82997 0.0
O105 O 0.37391 0.12204 0.82639 0.0
O106 O 0.39977 0.09283 0.85468 0.0
C107 C 0.31903 0.17091 0.80844 0.0
O108 O 0.31797 0.14257 0.8023 0.0
C109 C 0.43526 0.07475 0.93021 0.0
C110 C 0.44612 0.10414 0.9695 0.0
C111 C 0.44879 0.07575 0.95869 0.0
N112 N 0.42518 0.10138 0.92484 0.0
N113 N 0.43199 0.11869 0.94847 0.0
C114 C 0.43059 0.04877 0.90919 0.0
H115 H 0.41075 0.051 0.89462 0.0
H116 H 0.42801 0.0282 0.92172 0.0
H117 H 0.45012 0.0476 0.89478 0.0
C118 C 0.32515 0.15027 0.90101 0.0
N119 N 0.35103 0.14593 0.88788 0.0
N120 N 0.36634 0.1285 0.9043 0.0
C121 C 0.35022 0.12057 0.92805 0.0
C122 C 0.32364 0.13423 0.92691 0.0
C123 C 0.30294 0.17028 0.88935 0.0
H124 H 0.31447 0.18999 0.88006 0.0
H125 H 0.2895 0.15867 0.87109 0.0
H126 H 0.28804 0.17729 0.90717 0.0
O127 O 0.40255 0.18282 0.85683 0.0
O128 O 0.43017 0.15443 0.8836 0.0
H129 H 0.37373 0.10919 0.96751 0.0
H130 H 0.33928 0.08785 0.96065 0.0
C131 C 0.35895 0.09827 0.94989 0.0
H132 H 0.37102 0.08103 0.93838 0.0
H133 H 0.42677 0.14058 0.95028 0.0
O134 O 0.3373 0.18165 0.82848 0.0
C135 C 0.42681 0.17827 0.87022 0.0
Co136 Co 0.60561 0.40331 0.89949 0.0
Co137 Co 0.64719 0.367 0.85902 0.0
C138 C 0.66622 0.38535 0.92113 0.0
O139 O 0.64174 0.39737 0.92454 0.0
O140 O 0.67214 0.37241 0.89646 0.0
C141 C 0.58647 0.45428 0.93407 0.0
O142 O 0.61329 0.4663 0.93089 0.0
C143 C 0.68913 0.32994 0.82606 0.0
C144 C 0.66864 0.32974 0.78077 0.0
C145 C 0.69153 0.31867 0.79701 0.0
N146 N 0.66597 0.34711 0.82673 0.0
N147 N 0.65375 0.34651 0.79959 0.0
C148 C 0.70823 0.32443 0.85272 0.0
H149 H 0.69621 0.30849 0.86704 0.0
H150 H 0.71283 0.34511 0.86607 0.0
H151 H 0.7294 0.31551 0.84599 0.0
C152 C 0.61094 0.44372 0.84842 0.0
N153 N 0.61687 0.41879 0.86216 0.0
N154 N 0.63608 0.40477 0.8464 0.0
C155 C 0.64408 0.42121 0.82296 0.0
C156 C 0.62809 0.44622 0.82316 0.0
C157 C 0.58806 0.46389 0.85836 0.0
H158 H 0.57022 0.45154 0.87014 0.0
H159 H 0.59855 0.48109 0.87384 0.0
H160 H 0.57832 0.4748 0.83898 0.0
O161 O 0.5819 0.3661 0.89322 0.0
O162 O 0.61163 0.34008 0.86612 0.0
H163 H 0.66028 0.40363 0.78208 0.0
H164 H 0.68089 0.43596 0.79646 0.0
C165 C 0.6691 0.41512 0.80287 0.0
H166 H 0.68499 0.4013 0.81412 0.0
H167 H 0.63466 0.35703 0.79407 0.0
O168 O 0.57956 0.42905 0.92229 0.0
C169 C 0.58736 0.34241 0.87951 0.0
Co170 Co 0.82984 0.38055 0.15728 0.0
Co171 Co 0.8739 0.41997 0.12081 0.0
C172 C 0.8145 0.40096 0.09489 0.0
O173 O 0.80802 0.38767 0.11886 0.0
O174 O 0.83964 0.41477 0.09208 0.0
C175 C 0.79203 0.32904 0.16888 0.0
O176 O 0.79069 0.32531 0.13965 0.0
C177 C 0.91458 0.45172 0.0791 0.0
C178 C 0.94793 0.47018 0.11257 0.0
C179 C 0.94053 0.46957 0.08243 0.0
N180 N 0.90709 0.44227 0.10628 0.0
N181 N 0.92721 0.45333 0.12603 0.0
C182 C 0.89615 0.4453 0.05126 0.0
H183 H 0.87252 0.44776 0.05607 0.0
H184 H 0.89844 0.4222 0.04381 0.0
H185 H 0.90297 0.46009 0.0331 0.0
C186 C 0.88054 0.3416 0.15484 0.0
N187 N 0.86757 0.36657 0.14859 0.0
N188 N 0.88559 0.38299 0.13245 0.0
C189 C 0.91038 0.36896 0.12766 0.0
C190 C 0.90812 0.34237 0.14182 0.0
C191 C 0.86721 0.31792 0.17363 0.0
H192 H 0.85662 0.32778 0.19328 0.0
H193 H 0.84993 0.30481 0.16021 0.0
H194 H 0.88412 0.30312 0.1814 0.0
O195 O 0.83425 0.41633 0.18377 0.0
O196 O 0.8648 0.44344 0.15657 0.0
H197 H 0.94913 0.39688 0.12096 0.0
H198 H 0.94872 0.36204 0.1009 0.0
C199 C 0.9349 0.37999 0.10824 0.0
H200 H 0.92557 0.39018 0.08824 0.0
H201 H 0.92654 0.44963 0.14891 0.0
O202 O 0.80709 0.35104 0.18043 0.0
C203 C 0.84981 0.43998 0.17994 0.0
Co204 Co 0.86491 0.66163 0.35649 0.0
Co205 Co 0.90326 0.62313 0.39874 0.0
C206 C 0.88042 0.59989 0.33916 0.0
O207 O 0.86771 0.62357 0.33458 0.0
O208 O 0.89609 0.59658 0.36278 0.0
C209 C 0.81292 0.67695 0.3215 0.0
O210 O 0.80335 0.64951 0.32472 0.0
C211 C 0.93589 0.57888 0.43311 0.0
C212 C 0.94296 0.60327 0.4763 0.0
C213 C 0.94836 0.5771 0.46173 0.0
N214 N 0.92356 0.60493 0.4311 0.0
N215 N 0.92824 0.61938 0.45696 0.0
C216 C 0.93484 0.55605 0.40843 0.0
H217 H 0.91225 0.5537 0.39816 0.0
H218 H 0.94101 0.53454 0.41666 0.0
H219 H 0.95033 0.56328 0.39086 0.0
C220 C 0.82569 0.65876 0.40881 0.0
N221 N 0.85121 0.65337 0.39537 0.0
N222 N 0.86581 0.63521 0.41168 0.0
C223 C 0.84926 0.62741 0.43519 0.0
C224 C 0.82351 0.64225 0.43422 0.0
C225 C 0.80274 0.67753 0.39644 0.0
H226 H 0.78793 0.66411 0.38062 0.0
H227 H 0.78897 0.68621 0.41443 0.0
H228 H 0.81342 0.6961 0.38445 0.0
O229 O 0.90369 0.68404 0.35874 0.0
O230 O 0.92984 0.65794 0.38946 0.0
H231 H 0.83754 0.59526 0.46824 0.0
H232 H 0.86954 0.5878 0.44657 0.0
C233 C 0.85736 0.60531 0.45751 0.0
H234 H 0.87169 0.61641 0.47537 0.0
H235 H 0.92134 0.6404 0.46142 0.0
O236 O 0.83769 0.68617 0.33339 0.0
C237 C 0.9275 0.68016 0.37326 0.0
Co238 Co 0.85774 0.85465 0.86173 0.0
Co239 Co 0.89465 0.8926 0.90811 0.0
C240 C 0.87988 0.91823 0.85102 0.0
O241 O 0.86521 0.89412 0.84414 0.0
O242 O 0.89435 0.92162 0.8758 0.0
C243 C 0.85262 0.82902 0.80378 0.0
O244 O 0.87384 0.84876 0.79782 0.0
C245 C 0.9277 0.93227 0.95155 0.0
C246 C 0.92955 0.90294 0.98998 0.0
C247 C 0.93629 0.93139 0.98147 0.0
N248 N 0.91596 0.90558 0.94305 0.0
N249 N 0.91724 0.88816 0.96603 0.0
C250 C 0.93109 0.95745 0.93101 0.0
H251 H 0.93586 0.94931 0.90816 0.0
H252 H 0.94925 0.97345 0.93887 0.0
H253 H 0.91005 0.96863 0.92993 0.0
C254 C 0.90631 0.81477 0.87109 0.0
N255 N 0.89294 0.83982 0.87664 0.0
N256 N 0.90997 0.85705 0.89457 0.0
C257 C 0.93539 0.84409 0.90014 0.0
C258 C 0.93392 0.81664 0.88558 0.0
C259 C 0.89199 0.7889 0.85382 0.0
H260 H 0.86773 0.78768 0.85694 0.0
H261 H 0.89629 0.79137 0.8297 0.0
H262 H 0.90094 0.76815 0.86113 0.0
O263 O 0.82749 0.85647 0.89246 0.0
O264 O 0.85398 0.88657 0.92357 0.0
H265 H 0.96018 0.85325 0.94089 0.0
H266 H 0.98247 0.85114 0.90822 0.0
C267 C 0.96145 0.85877 0.91697 0.0
H268 H 0.96144 0.88293 0.91522 0.0
H269 H 0.90883 0.86635 0.96555 0.0
O270 O 0.84211 0.8282 0.82978 0.0
C271 C 0.82988 0.87199 0.91649 0.0
Co272 Co 0.85266 0.148 0.65101 0.0
Co273 Co 0.89573 0.10899 0.61506 0.0
C274 C 0.83741 0.12315 0.58825 0.0
O275 O 0.83138 0.13773 0.61193 0.0
O276 O 0.86175 0.11062 0.58605 0.0
C277 C 0.8011 0.1657 0.68645 0.0
O278 O 0.78652 0.14103 0.6778 0.0
C279 C 0.92888 0.0676 0.57666 0.0
C280 C 0.97051 0.06844 0.60349 0.0
C281 C 0.95701 0.05675 0.57737 0.0
N282 N 0.92618 0.08486 0.6013 0.0
N283 N 0.95124 0.08525 0.61704 0.0
C284 C 0.90469 0.0611 0.55371 0.0
H285 H 0.8828 0.06153 0.56428 0.0
H286 H 0.90684 0.03937 0.54252 0.0
H287 H 0.906 0.07824 0.53664 0.0
C288 C 0.86064 0.10128 0.69567 0.0
N289 N 0.86556 0.1134 0.66893 0.0
N290 N 0.88238 0.09649 0.65321 0.0
C291 C 0.88804 0.07282 0.66922 0.0
C292 C 0.87475 0.07517 0.69677 0.0
C293 C 0.84412 0.11522 0.72029 0.0
H294 H 0.8484 0.13938 0.72043 0.0
H295 H 0.82007 0.10994 0.7165 0.0
H296 H 0.85069 0.10692 0.74237 0.0
O297 O 0.88695 0.1758 0.64444 0.0
O298 O 0.91682 0.1482 0.6193 0.0
H299 H 0.92822 0.05181 0.66213 0.0
H300 H 0.89694 0.02694 0.66903 0.0
C301 C 0.90415 0.04736 0.65769 0.0
H302 H 0.90008 0.04405 0.63328 0.0
H303 H 0.95525 0.09729 0.63705 0.0
O304 O 0.8274 0.17108 0.67784 0.0
C305 C 0.91121 0.17268 0.63137 0.0
Co306 Co 0.62035 0.08422 0.40358 0.0
Co307 Co 0.65957 0.12027 0.35934 0.0
C308 C 0.68408 0.1068 0.41897 0.0
O309 O 0.65969 0.09247 0.42416 0.0
O310 O 0.68801 0.11974 0.39429 0.0
C311 C 0.59291 0.07223 0.46016 0.0
O312 O 0.61262 0.09203 0.47156 0.0
C313 C 0.69188 0.16658 0.32392 0.0
C314 C 0.67503 0.15174 0.27887 0.0
C315 C 0.69254 0.17361 0.29382 0.0
N316 N 0.67439 0.14183 0.32636 0.0
N317 N 0.66479 0.13303 0.29928 0.0
C318 C 0.70546 0.18407 0.35003 0.0
H319 H 0.69432 0.17782 0.37096 0.0
H320 H 0.70406 0.20789 0.34651 0.0
H321 H 0.72917 0.1795 0.35231 0.0
C322 C 0.58187 0.13388 0.39567 0.0
N323 N 0.60636 0.11969 0.38969 0.0
N324 N 0.62294 0.13525 0.37141 0.0
C325 C 0.60948 0.16003 0.36533 0.0
C326 C 0.58306 0.16 0.38053 0.0
C327 C 0.55894 0.12344 0.41715 0.0
H328 H 0.56899 0.12415 0.44 0.0
H329 H 0.53966 0.1372 0.41728 0.0
H330 H 0.55141 0.10036 0.41137 0.0
O331 O 0.62194 0.05514 0.36997 0.0
O332 O 0.6528 0.08015 0.34119 0.0
H333 H 0.60537 0.20009 0.34112 0.0
H334 H 0.64229 0.19325 0.35409 0.0
C335 C 0.6212 0.1829 0.34465 0.0
H336 H 0.62564 0.17245 0.32271 0.0
H337 H 0.65038 0.11463 0.29478 0.0
O338 O 0.59253 0.06626 0.43224 0.0
C339 C 0.63705 0.05696 0.34644 0.0
Co340 Co 0.59316 0.89428 0.11179 0.0
Co341 Co 0.63356 0.85151 0.14705 0.0
C342 C 0.61778 0.90827 0.175 0.0
O343 O 0.60195 0.91414 0.15215 0.0
O344 O 0.63176 0.88491 0.1759 0.0
C345 C 0.5708 0.94825 0.08824 0.0
O346 O 0.5847 0.96119 0.11159 0.0
C347 C 0.67546 0.82086 0.18641 0.0
C348 C 0.68127 0.78102 0.15852 0.0
C349 C 0.68988 0.79483 0.18551 0.0
N350 N 0.65925 0.82237 0.16091 0.0
N351 N 0.66265 0.79828 0.1446 0.0
C352 C 0.67781 0.84441 0.21039 0.0
H353 H 0.65602 0.84576 0.22103 0.0
H354 H 0.6834 0.86584 0.20021 0.0
H355 H 0.69489 0.84019 0.22762 0.0
C356 C 0.6414 0.88953 0.0684 0.0
N357 N 0.62888 0.88293 0.0946 0.0
N358 N 0.64604 0.86588 0.10949 0.0
C359 C 0.67037 0.86175 0.09346 0.0
C360 C 0.66805 0.87618 0.06676 0.0
C361 C 0.62733 0.90721 0.04501 0.0
H362 H 0.60386 0.89917 0.04138 0.0
H363 H 0.62769 0.93044 0.05303 0.0
H364 H 0.63893 0.90593 0.02351 0.0
O365 O 0.56607 0.85906 0.11619 0.0
O366 O 0.59391 0.83055 0.14275 0.0
H367 H 0.69326 0.82264 0.09852 0.0
H368 H 0.71712 0.85497 0.0937 0.0
C369 C 0.69659 0.84638 0.10439 0.0
H370 H 0.6994 0.84936 0.12896 0.0
H371 H 0.65221 0.79362 0.12382 0.0
O372 O 0.57194 0.92064 0.08425 0.0
C373 C 0.56949 0.83538 0.12976 0.0
Co374 Co 0.35221 0.6472 0.15201 0.0
Co375 Co 0.39492 0.60808 0.11582 0.0
C376 C 0.33603 0.62118 0.0899 0.0
O377 O 0.33031 0.63628 0.11334 0.0
O378 O 0.36041 0.60878 0.08759 0.0
C379 C 0.30049 0.66548 0.18648 0.0
O380 O 0.28591 0.6409 0.17754 0.0
C381 C 0.42796 0.56969 0.07486 0.0
C382 C 0.46727 0.56309 0.10346 0.0
C383 C 0.45471 0.55631 0.07547 0.0
N384 N 0.42481 0.58352 0.10149 0.0
N385 N 0.44859 0.5797 0.11825 0.0
C386 C 0.40564 0.56922 0.04969 0.0
H387 H 0.40541 0.59147 0.04045 0.0
H388 H 0.38329 0.56349 0.05826 0.0
H389 H 0.41067 0.55322 0.03168 0.0
C390 C 0.36039 0.60108 0.19695 0.0
N391 N 0.36539 0.613 0.17015 0.0
N392 N 0.38206 0.59591 0.15445 0.0
C393 C 0.38729 0.57212 0.17051 0.0
C394 C 0.37418 0.57481 0.19811 0.0
C395 C 0.34375 0.61517 0.22139 0.0
H396 H 0.34819 0.63931 0.22151 0.0
H397 H 0.3197 0.61007 0.21735 0.0
H398 H 0.35004 0.60685 0.24354 0.0
O399 O 0.38649 0.67473 0.14508 0.0
O400 O 0.41573 0.64762 0.11847 0.0
H401 H 0.42581 0.54804 0.16464 0.0
H402 H 0.39243 0.52553 0.16906 0.0
C403 C 0.40185 0.54576 0.15877 0.0
H404 H 0.39881 0.54346 0.13416 0.0
H405 H 0.45227 0.58885 0.13975 0.0
O406 O 0.32706 0.6706 0.17857 0.0
C407 C 0.41022 0.67192 0.13101 0.0
Co408 Co 0.12129 0.58423 0.89916 0.0
Co409 Co 0.16247 0.62418 0.86075 0.0
C410 C 0.18406 0.60515 0.91959 0.0
O411 O 0.15932 0.59078 0.92307 0.0
O412 O 0.18904 0.61946 0.89599 0.0
C413 C 0.09076 0.56961 0.95216 0.0
O414 O 0.1106 0.58852 0.96482 0.0
C415 C 0.20212 0.67125 0.83607 0.0
C416 C 0.17957 0.67578 0.79222 0.0
C417 C 0.20279 0.68744 0.81032 0.0
N418 N 0.17916 0.65111 0.83334 0.0
N419 N 0.16608 0.65373 0.80695 0.0
C420 C 0.22113 0.67633 0.86371 0.0
H421 H 0.20711 0.67544 0.88372 0.0
H422 H 0.23403 0.69778 0.86354 0.0
H423 H 0.2366 0.65851 0.86521 0.0
C424 C 0.08241 0.63395 0.89291 0.0
N425 N 0.10761 0.62063 0.88775 0.0
N426 N 0.12583 0.6384 0.87336 0.0
C427 C 0.11328 0.66416 0.86998 0.0
C428 C 0.08514 0.66216 0.88194 0.0
C429 C 0.05573 0.61924 0.90657 0.0
H430 H 0.05361 0.5957 0.89964 0.0
H431 H 0.05828 0.62092 0.93129 0.0
H432 H 0.03524 0.62961 0.89974 0.0
O433 O 0.12557 0.55847 0.86358 0.0
O434 O 0.15617 0.58639 0.837 0.0
H435 H 0.1271 0.69042 0.83347 0.0
H436 H 0.11937 0.7113 0.86685 0.0
C437 C 0.12901 0.69108 0.85823 0.0
H438 H 0.15272 0.69196 0.865 0.0
H439 H 0.14732 0.64097 0.79939 0.0
O440 O 0.09153 0.56426 0.92422 0.0
C441 C 0.14074 0.56249 0.84034 0.0
Co442 Co 0.09395 0.39468 0.60998 0.0
Co443 Co 0.13598 0.35297 0.64442 0.0
C444 C 0.12305 0.41102 0.67101 0.0
O445 O 0.10611 0.41583 0.64867 0.0
O446 O 0.13677 0.3875 0.6725 0.0
C447 C 0.07948 0.44638 0.57553 0.0
O448 O 0.10621 0.45729 0.58316 0.0
C449 C 0.18111 0.32115 0.67971 0.0
C450 C 0.17703 0.27858 0.6548 0.0
C451 C 0.19175 0.29308 0.67891 0.0
N452 N 0.16109 0.32282 0.6571 0.0
N453 N 0.15882 0.2972 0.64249 0.0
C454 C 0.19059 0.34629 0.70059 0.0
H455 H 0.1886 0.36737 0.68924 0.0
H456 H 0.21376 0.34462 0.70865 0.0
H457 H 0.17591 0.34603 0.7201 0.0
C458 C 0.13845 0.38505 0.56269 0.0
N459 N 0.1279 0.38125 0.59037 0.0
N460 N 0.14598 0.36523 0.60543 0.0
C461 C 0.16894 0.3592 0.58816 0.0
C462 C 0.1648 0.37124 0.56041 0.0
C463 C 0.1227 0.39988 0.5382 0.0
H464 H 0.09842 0.39654 0.54054 0.0
H465 H 0.12904 0.42373 0.53958 0.0
H466 H 0.12892 0.39123 0.51594 0.0
O467 O 0.06639 0.36069 0.61797 0.0
O468 O 0.09597 0.33258 0.64277 0.0
H469 H 0.19096 0.31998 0.59563 0.0
H470 H 0.21525 0.35071 0.58584 0.0
C471 C 0.19543 0.34403 0.59873 0.0
H472 H 0.2001 0.34932 0.62276 0.0
H473 H 0.14466 0.29241 0.62404 0.0
O474 O 0.07082 0.42109 0.58436 0.0
C475 C 0.07066 0.33726 0.63165 0.0
Co476 Co 0.60156 0.61562 0.60546 0.0
Co477 Co 0.64455 0.65871 0.6413 0.0
C478 C 0.62684 0.60276 0.6676 0.0
O479 O 0.61195 0.5963 0.6435 0.0
O480 O 0.64119 0.62758 0.67134 0.0
C481 C 0.54761 0.58125 0.60213 0.0
O482 O 0.54856 0.58495 0.63136 0.0
C483 C 0.68956 0.69622 0.67491 0.0
C484 C 0.6962 0.73173 0.64263 0.0
C485 C 0.70697 0.72148 0.66925 0.0
N486 N 0.66973 0.69167 0.65232 0.0
N487 N 0.67376 0.71295 0.6332 0.0
C488 C 0.69132 0.67673 0.70109 0.0
H489 H 0.70504 0.65819 0.6953 0.0
H490 H 0.66888 0.66754 0.70646 0.0
H491 H 0.70127 0.68893 0.72102 0.0
C492 C 0.56532 0.66779 0.60557 0.0
N493 N 0.5896 0.65389 0.6133 0.0
N494 N 0.6072 0.67167 0.63022 0.0
C495 C 0.59444 0.69728 0.6344 0.0
C496 C 0.56763 0.69579 0.61867 0.0
C497 C 0.54125 0.65506 0.58473 0.0
H498 H 0.55072 0.64132 0.56698 0.0
H499 H 0.52548 0.64097 0.59746 0.0
H500 H 0.52899 0.67254 0.57427 0.0
O501 O 0.63472 0.61576 0.57735 0.0
O502 O 0.66514 0.64427 0.60623 0.0
H503 H 0.62021 0.73785 0.64111 0.0
H504 H 0.58861 0.73402 0.66448 0.0
C505 C 0.60676 0.72212 0.65443 0.0
H506 H 0.62092 0.71388 0.67246 0.0
H507 H 0.6619 0.71397 0.61303 0.0
O508 O 0.56838 0.59241 0.58676 0.0
C509 C 0.66001 0.62874 0.58251 0.0
Co510 Co 0.35802 0.35145 0.35762 0.0
Co511 Co 0.3914 0.38923 0.40689 0.0
C512 C 0.37837 0.41603 0.35003 0.0
O513 O 0.36466 0.39175 0.34197 0.0
O514 O 0.39194 0.41906 0.37532 0.0
C515 C 0.35597 0.32982 0.29802 0.0
O516 O 0.37551 0.35175 0.29404 0.0
C517 C 0.42358 0.42877 0.45099 0.0
C518 C 0.41892 0.40205 0.4913 0.0
C519 C 0.42927 0.4292 0.48162 0.0
N520 N 0.41001 0.40267 0.44316 0.0
N521 N 0.4074 0.38678 0.46726 0.0
C522 C 0.43155 0.45203 0.42921 0.0
H523 H 0.43706 0.44178 0.40744 0.0
H524 H 0.45071 0.46651 0.43763 0.0
H525 H 0.41228 0.46545 0.42555 0.0
C526 C 0.4076 0.31313 0.36853 0.0
N527 N 0.39318 0.33757 0.37394 0.0
N528 N 0.40846 0.35445 0.39372 0.0
C529 C 0.43362 0.3417 0.40098 0.0
C530 C 0.43378 0.31495 0.38541 0.0
C531 C 0.39706 0.28917 0.34658 0.0
H532 H 0.37301 0.28393 0.34909 0.0
H533 H 0.40067 0.29686 0.32361 0.0
H534 H 0.40914 0.26905 0.34941 0.0
O535 O 0.32588 0.351 0.38687 0.0
O536 O 0.35008 0.38149 0.41938 0.0
H537 H 0.44925 0.34949 0.44599 0.0
H538 H 0.4782 0.34508 0.41978 0.0
C539 C 0.4565 0.35449 0.42309 0.0
H540 H 0.45893 0.37867 0.4212 0.0
H541 H 0.39701 0.36574 0.46737 0.0
O542 O 0.34528 0.32589 0.32367 0.0
C543 C 0.32672 0.36631 0.41107 0.0
H544 H 0.22507 0.28608 0.17319 0.0
H545 H 0.25812 0.20006 0.18242 0.0
H546 H 0.26915 0.30798 0.19927 0.0
H547 H 0.30195 0.22197 0.20933 0.0
H548 H 0.33195 0.27425 0.30025 0.0
H549 H 0.30348 0.24694 0.26076 0.0
H550 H 0.32524 0.3158 0.19934 0.0
H551 H 0.35395 0.3433 0.23911 0.0
C552 C 0.24188 0.2719 0.18064 0.0
C553 C 0.23762 0.24132 0.17705 0.0
C554 C 0.26724 0.28444 0.19523 0.0
C555 C 0.28879 0.26658 0.20639 0.0
C556 C 0.2854 0.23611 0.20119 0.0
C557 C 0.2601 0.22358 0.18635 0.0
C558 C 0.33123 0.28321 0.27812 0.0
C559 C 0.34448 0.31107 0.27275 0.0
C560 C 0.31522 0.26745 0.25545 0.0
C561 C 0.31199 0.27949 0.22718 0.0
C562 C 0.32731 0.30626 0.2211 0.0
C563 C 0.3437 0.32191 0.24376 0.0
H564 H 0.99628 0.01635 0.58969 0.0
H565 H 0.95281 0.0559 0.51559 0.0
H566 H 0.02654 0.99014 0.55504 0.0
H567 H 0.98316 0.02937 0.4807 0.0
H568 H 0.02899 0.95454 0.42868 0.0
H569 H 0.99483 0.97936 0.46098 0.0
H570 H 0.06722 0.00524 0.5225 0.0
H571 H 0.10115 0.98037 0.49063 0.0
C572 C 0.99291 0.01916 0.56593 0.0
C573 C 0.97192 0.03803 0.55545 0.0
C574 C 0.0104 0.00427 0.54607 0.0
C575 C 0.00754 0.00794 0.51511 0.0
C576 C 0.98575 0.02592 0.50442 0.0
C577 C 0.96817 0.04095 0.52442 0.0
C578 C 0.03762 0.96565 0.44905 0.0
C579 C 0.06781 0.96528 0.45716 0.0
C580 C 0.01805 0.97995 0.46748 0.0
C581 C 0.02823 0.99396 0.49449 0.0
C582 C 0.05853 0.99416 0.50215 0.0
C583 C 0.07806 0.98005 0.48373 0.0
H584 H 0.18717 0.73935 0.78995 0.0
H585 H 0.26317 0.6911 0.81196 0.0
H586 H 0.21918 0.77696 0.7672 0.0
H587 H 0.29546 0.72872 0.78872 0.0
H588 H 0.31553 0.76769 0.69203 0.0
H589 H 0.29516 0.7381 0.73207 0.0
H590 H 0.26287 0.81569 0.7742 0.0
H591 H 0.28359 0.84542 0.73403 0.0
C592 C 0.21088 0.7373 0.79059 0.0
C593 C 0.22283 0.71248 0.80256 0.0
C594 C 0.22921 0.75888 0.77779 0.0
C595 C 0.25976 0.75569 0.77619 0.0
C596 C 0.27195 0.73165 0.78975 0.0
C597 C 0.25358 0.71027 0.80309 0.0
C598 C 0.30473 0.77848 0.71027 0.0
C599 C 0.30103 0.80872 0.71005 0.0
C600 C 0.29333 0.76163 0.73331 0.0
C601 C 0.27751 0.77466 0.75623 0.0
C602 C 0.27509 0.80519 0.7568 0.0
C603 C 0.28698 0.82217 0.73395 0.0
H604 H 0.48276 0.03128 0.93785 0.0
H605 H 0.44944 0.06965 0.01863 0.0
H606 H 0.51183 0.99896 0.96796 0.0
H607 H 0.47826 0.03767 0.04845 0.0
H608 H 0.56076 0.00651 0.09298 0.0
H609 H 0.53052 0.03479 0.06042 0.0
H610 H 0.50995 0.9578 0.00373 0.0
H611 H 0.5407 0.92934 0.03632 0.0
C612 C 0.48099 0.03234 0.96191 0.0
C613 C 0.4636 0.05303 0.97576 0.0
C614 C 0.49783 0.01393 0.97921 0.0
C615 C 0.49777 0.01599 0.0107 0.0
C616 C 0.47944 0.03589 0.02433 0.0
C617 C 0.46273 0.05415 0.00716 0.0
C618 C 0.54991 0.99552 0.07356 0.0
C619 C 0.55308 0.96554 0.06747 0.0
C620 C 0.53235 0.01174 0.05494 0.0
C621 C 0.51744 0.99854 0.02958 0.0
C622 C 0.52115 0.9687 0.023 0.0
C623 C 0.53868 0.95237 0.04178 0.0
H624 H 0.24818 0.65933 0.21622 0.0
H625 H 0.3199 0.7226 0.19774 0.0
H626 H 0.22348 0.69739 0.24402 0.0
H627 H 0.29508 0.76045 0.22517 0.0
H628 H 0.21808 0.82341 0.23733 0.0
H629 H 0.24694 0.78539 0.21494 0.0
H630 H 0.23118 0.73169 0.29143 0.0
H631 H 0.20242 0.77005 0.31399 0.0
C632 C 0.25874 0.68126 0.2182 0.0
C633 C 0.28594 0.68792 0.20462 0.0
C634 C 0.24469 0.70299 0.23427 0.0
C635 C 0.25733 0.7319 0.23669 0.0
C636 C 0.28472 0.73842 0.22351 0.0
C637 C 0.29895 0.71667 0.20787 0.0
C638 C 0.22124 0.80369 0.24957 0.0
C639 C 0.20849 0.79986 0.27758 0.0
C640 C 0.23777 0.78196 0.23679 0.0
C641 C 0.24134 0.75558 0.25145 0.0
C642 C 0.22874 0.75179 0.27963 0.0
C643 C 0.21262 0.77384 0.29268 0.0
H644 H 0.49418 0.99012 0.60396 0.0
H645 H 0.43379 0.98438 0.52758 0.0
H646 H 0.53164 0.01546 0.57412 0.0
H647 H 0.47078 0.01048 0.49809 0.0
H648 H 0.55351 0.02654 0.44446 0.0
H649 H 0.51668 1.0022 0.47538 0.0
H650 H 0.54425 0.06071 0.54983 0.0
H651 H 0.58191 0.08456 0.519 0.0
C652 C 0.4888 0.99451 0.58089 0.0
C653 C 0.46107 0.98511 0.56809 0.0
C654 C 0.51022 0.00919 0.56382 0.0
C655 C 0.50431 0.0149 0.53364 0.0
C656 C 0.47633 0.00595 0.52108 0.0
C657 C 0.45502 0.99113 0.53806 0.0
C658 C 0.55177 0.03424 0.46743 0.0
C659 C 0.57064 0.05752 0.47926 0.0
C660 C 0.53048 0.02038 0.48513 0.0
C661 C 0.52732 0.0296 0.51507 0.0
C662 C 0.54629 0.05284 0.52696 0.0
C663 C 0.56778 0.06661 0.50926 0.0
H664 H 0.31391 0.23035 0.81617 0.0
H665 H 0.28127 0.15526 0.76145 0.0
H666 H 0.28453 0.26209 0.78578 0.0
H667 H 0.25187 0.18676 0.73151 0.0
H668 H 0.23004 0.2526 0.66298 0.0
H669 H 0.26103 0.22465 0.69511 0.0
H670 H 0.23246 0.27292 0.77246 0.0
H671 H 0.20115 0.30099 0.7401 0.0
C672 C 0.30038 0.22057 0.79779 0.0
C673 C 0.30014 0.19023 0.79115 0.0
C674 C 0.28345 0.23877 0.78046 0.0
C675 C 0.26607 0.22706 0.75598 0.0
C676 C 0.26543 0.19665 0.74982 0.0
C677 C 0.28218 0.1785 0.76715 0.0
C678 C 0.23054 0.25751 0.68682 0.0
C679 C 0.21325 0.27925 0.69886 0.0
C680 C 0.2482 0.24133 0.70529 0.0
C681 C 0.24899 0.24624 0.73644 0.0
C682 C 0.23254 0.26872 0.74853 0.0
C683 C 0.21474 0.28499 0.72993 0.0
H684 H 0.01934 0.0396 0.12682 0.0
H685 H 0.03018 0.08705 0.04525 0.0
H686 H 0.9851 0.00356 0.10041 0.0
H687 H 0.99622 0.0512 0.01904 0.0
H688 H 0.92198 0.98879 0.9833 0.0
H689 H 0.94386 0.02833 0.01615 0.0
H690 H 0.99763 0.96667 0.05984 0.0
H691 H 0.97631 0.92732 0.02659 0.0
C692 C 0.01391 0.04263 0.10347 0.0
C693 C 0.02769 0.06569 0.08786 0.0
C694 C 0.99447 0.02204 0.0884 0.0
C695 C 0.98832 0.02459 0.05773 0.0
C696 C 1.00048 0.04886 0.04274 0.0
C697 C 0.0201 0.06919 0.05766 0.0
C698 C 0.93885 0.98382 0.99954 0.0
C699 C 0.9484 0.9553 1.00168 0.0
C700 C 0.95096 0.00631 0.01861 0.0
C701 C 0.97239 1.00045 0.04039 0.0
C702 C 0.98086 0.97166 0.04344 0.0
C703 C 0.96891 0.94925 0.02426 0.0
H704 H 0.82066 0.22265 0.69851 0.0
H705 H 0.74983 0.1587 0.71783 0.0
H706 H 0.79686 0.25968 0.72813 0.0
H707 H 0.72613 0.19595 0.74777 0.0
H708 H 0.70676 0.26662 0.82032 0.0
H709 H 0.73505 0.22897 0.7958 0.0
H710 H 0.74879 0.28491 0.72065 0.0
H711 H 0.72045 0.3222 0.74496 0.0
C712 C 0.80011 0.2164 0.70925 0.0
C713 C 0.78705 0.18771 0.70562 0.0
C714 C 0.78647 0.23768 0.72617 0.0
C715 C 0.75963 0.23074 0.74025 0.0
C716 C 0.74694 0.20186 0.73737 0.0
C717 C 0.7604 0.18061 0.72005 0.0
C718 C 0.71645 0.27106 0.79889 0.0
C719 C 0.71183 0.29747 0.78469 0.0
C720 C 0.73229 0.24941 0.78471 0.0
C721 C 0.74414 0.25402 0.75632 0.0
C722 C 0.7402 0.28083 0.74263 0.0
C723 C 0.72397 0.30215 0.75652 0.0
H724 H 0.04142 0.53698 0.9316 0.0
H725 H 0.08673 0.57016 0.01283 0.0
H726 H 1.00212 0.51409 0.961 0.0
H727 H 0.04801 0.5466 0.0422 0.0
H728 H 0.96316 0.52552 0.08747 0.0
H729 H 0.99744 0.55078 0.05432 0.0
H730 H 0.9928 0.47434 0.99471 0.0
H731 H 0.95766 0.44943 0.02774 0.0
C732 C 0.04308 0.53923 0.95574 0.0
C733 C 0.06717 0.55539 0.96993 0.0
C734 C 0.0206 0.52602 0.97258 0.0
C735 C 0.02181 0.52862 0.00394 0.0
C736 C 0.04604 0.54466 0.01805 0.0
C737 C 0.06838 0.55801 1.00124 0.0
C738 C 0.96914 0.51436 0.067 0.0
C739 C 0.95773 0.48567 0.05998 0.0
C740 C 0.98895 0.52869 0.04814 0.0
C741 C 0.99824 0.51443 0.02209 0.0
C742 C 0.9859 0.48605 0.01447 0.0
C743 C 0.96574 0.47179 0.03328 0.0
H744 H 0.83208 0.72753 0.29478 0.0
H745 H 0.75345 0.67162 0.30878 0.0
H746 H 0.80306 0.75918 0.26392 0.0
H747 H 0.72439 0.70373 0.27849 0.0
H748 H 0.67956 0.78636 0.24472 0.0
H749 H 0.70966 0.75976 0.27997 0.0
H750 H 0.77419 0.74825 0.21185 0.0
H751 H 0.7438 0.7741 0.17657 0.0
C752 C 0.80856 0.72217 0.29155 0.0
C753 C 0.79508 0.69697 0.30408 0.0
C754 C 0.792 0.74026 0.27385 0.0
C755 C 0.76149 0.73393 0.26891 0.0
C756 C 0.74783 0.70924 0.28215 0.0
C757 C 0.76451 0.69078 0.2993 0.0
C758 C 0.70045 0.7786 0.23757 0.0
C759 C 0.70958 0.7825 0.20809 0.0
C760 C 0.71751 0.76321 0.25759 0.0
C761 C 0.74425 0.752 0.24861 0.0
C762 C 0.75381 0.75685 0.21943 0.0
C763 C 0.73645 0.77159 0.19927 0.0
H764 H 0.99441 0.5485 0.43812 0.0
H765 H 0.94104 0.55422 0.5164 0.0
H766 H 0.02588 0.51471 0.46378 0.0
H767 H 0.97204 0.52027 0.54182 0.0
H768 H 0.01941 0.43791 0.56743 0.0
H769 H 0.98658 0.46665 0.53753 0.0
H770 H 0.06176 0.52128 0.51022 0.0
H771 H 0.09463 0.49285 0.54047 0.0
C772 C 0.989 0.54196 0.4605 0.0
C773 C 0.9651 0.55368 0.47517 0.0
C774 C 0.00715 0.5229 0.47529 0.0
C775 C 1.00141 0.51483 0.50482 0.0
C776 C 0.97688 0.52584 0.51901 0.0
C777 C 0.95917 0.5453 0.50449 0.0
C778 C 0.02898 0.45597 0.55496 0.0
C779 C 0.05965 0.46319 0.55651 0.0
C780 C 0.01015 0.47245 0.53788 0.0
C781 C 0.02159 0.49619 0.52148 0.0
C782 C 0.05232 0.50296 0.5224 0.0
C783 C 0.07111 0.48681 0.53992 0.0
H784 H 0.58724 0.51255 0.95058 0.0
H785 H 0.53603 0.43017 0.95801 0.0
H786 H 0.55183 0.53679 0.98197 0.0
H787 H 0.50109 0.45434 0.9897 0.0
H788 H 0.47876 0.50391 0.08005 0.0
H789 H 0.50826 0.479 0.04319 0.0
H790 H 0.49482 0.54776 0.98115 0.0
H791 H 0.4647 0.57245 0.01801 0.0
C792 C 0.56841 0.49966 0.9588 0.0
C793 C 0.56452 0.46943 0.95193 0.0
C794 C 0.54806 0.51357 0.97657 0.0
C795 C 0.52377 0.4974 0.98823 0.0
C796 C 0.51969 0.46728 0.98106 0.0
C797 C 0.53968 0.4535 0.96287 0.0
C798 C 0.48165 0.51335 0.05831 0.0
C799 C 0.46917 0.53981 0.05165 0.0
C800 C 0.49848 0.49913 0.03725 0.0
C801 C 0.50381 0.51148 0.00936 0.0
C802 C 0.49104 0.53782 1.00252 0.0
C803 C 0.47362 0.55175 0.02342 0.0
H804 H 0.75061 0.69341 0.69819 0.0
H805 H 0.7234 0.77916 0.67562 0.0
H806 H 0.79297 0.71625 0.72673 0.0
H807 H 0.76605 0.80189 0.70348 0.0
H808 H 0.8236 0.77638 0.81162 0.0
H809 H 0.79387 0.74706 0.77454 0.0
H810 H 0.82211 0.80671 0.70612 0.0
H811 H 0.85202 0.83632 0.7435 0.0
C812 C 0.75345 0.7171 0.69966 0.0
C813 C 0.73312 0.73463 0.6858 0.0
C814 C 0.77795 0.73009 0.71549 0.0
C815 C 0.78267 0.76075 0.71722 0.0
C816 C 0.76311 0.77817 0.70212 0.0
C817 C 0.73856 0.7652 0.6865 0.0
C818 C 0.82391 0.78291 0.78855 0.0
C819 C 0.83951 0.80885 0.78039 0.0
C820 C 0.80716 0.76597 0.7673 0.0
C821 C 0.80556 0.77486 0.73762 0.0
C822 C 0.82288 0.79964 0.729 0.0
C823 C 0.83998 0.81647 0.75028 0.0
H824 H 0.66978 0.20179 0.24731 0.0
H825 H 0.74676 0.20299 0.30617 0.0
H826 H 0.69356 0.24038 0.21843 0.0
H827 H 0.77083 0.24178 0.27697 0.0
H828 H 0.79289 0.32918 0.23003 0.0
H829 H 0.76858 0.29332 0.2622 0.0
H830 H 0.73429 0.24347 0.1841 0.0
H831 H 0.7581 0.27951 0.15196 0.0
C832 C 0.69177 0.21048 0.25421 0.0
C833 C 0.70637 0.1994 0.27907 0.0
C834 C 0.70546 0.23249 0.23753 0.0
C835 C 0.73423 0.24387 0.24513 0.0
C836 C 0.74853 0.23357 0.27067 0.0
C837 C 0.73471 0.21147 0.28751 0.0
C838 C 0.78008 0.3106 0.21971 0.0
C839 C 0.77728 0.30729 0.18839 0.0
C840 C 0.76633 0.28997 0.23818 0.0
C841 C 0.74939 0.26564 0.22573 0.0
C842 C 0.74678 0.26225 0.19442 0.0
C843 C 0.76055 0.28283 0.17596 0.0
H844 H 0.42113 0.48791 0.47816 0.0
H845 H 0.46461 0.4245 0.5305 0.0
H846 H 0.4441 0.52755 0.51015 0.0
H847 H 0.48712 0.46406 0.56278 0.0
H848 H 0.51025 0.53975 0.62657 0.0
H849 H 0.47572 0.50454 0.59944 0.0
H850 H 0.49721 0.54624 0.5166 0.0
H851 H 0.53136 0.58133 0.54352 0.0
C852 C 0.43589 0.48249 0.49623 0.0
C853 C 0.44208 0.45329 0.50122 0.0
C854 C 0.44864 0.5051 0.51476 0.0
C855 C 0.46739 0.49879 0.5388 0.0
C856 C 0.47246 0.46948 0.54459 0.0
C857 C 0.45983 0.44691 0.52598 0.0
C858 C 0.50709 0.54168 0.60266 0.0
C859 C 0.52374 0.56286 0.58701 0.0
C860 C 0.48748 0.52153 0.58719 0.0
C861 C 0.48407 0.52262 0.55597 0.0
C862 C 0.49929 0.54504 0.54069 0.0
C863 C 0.51904 0.56494 0.55606 0.0
H864 H 0.16125 0.1127 0.21874 0.0
H865 H 0.10377 0.0538 0.16292 0.0
H866 H 0.15992 0.07645 0.25805 0.0
H867 H 0.10288 0.01785 0.20166 0.0
H868 H 0.08097 0.97164 0.28669 0.0
H869 H 0.0826 0.01097 0.25077 0.0
H870 H 0.17634 0.02739 0.26928 0.0
H871 H 0.17426 0.98852 0.30593 0.0
C872 C 0.14848 0.09205 0.21477 0.0
C873 C 0.13255 0.08629 0.18766 0.0
C874 C 0.14779 0.07125 0.23725 0.0
C875 C 0.13105 0.04434 0.23312 0.0
C876 C 0.11551 0.03854 0.20587 0.0
C877 C 0.11623 0.05917 0.1835 0.0
C878 C 0.10181 0.98389 0.28318 0.0
C879 C 0.12756 0.97689 0.29861 0.0
C880 C 0.10285 0.00624 0.2625 0.0
C881 C 0.12971 0.02211 0.25684 0.0
C882 C 0.1553 0.01568 0.27314 0.0
C883 C 0.15421 0.99327 0.29385 0.0
H884 H 0.15985 0.90622 0.47054 0.0
H885 H 0.22382 0.87638 0.40819 0.0
H886 H 0.19838 0.91268 0.50937 0.0
H887 H 0.26244 0.88275 0.44735 0.0
H888 H 0.32798 0.93058 0.51642 0.0
H889 H 0.28948 0.92404 0.47719 0.0
H890 H 0.23035 0.88229 0.53965 0.0
H891 H 0.26859 0.88885 0.57884 0.0
C892 C 0.1821 0.90089 0.4651 0.0
C893 C 0.18869 0.89077 0.43616 0.0
C894 C 0.20417 0.90449 0.48746 0.0
C895 C 0.23348 0.8983 0.48144 0.0
C896 C 0.24012 0.88801 0.45258 0.0
C897 C 0.21793 0.88413 0.43022 0.0
C898 C 0.3067 0.92021 0.52186 0.0
C899 C 0.3014 0.91032 0.55084 0.0
C900 C 0.28474 0.91622 0.4993 0.0
C901 C 0.25691 0.90256 0.50529 0.0
C902 C 0.25147 0.8931 0.53436 0.0
C903 C 0.27346 0.89682 0.55682 0.0
H904 H 0.35013 0.94202 0.71575 0.0
H905 H 0.38976 0.00611 0.65712 0.0
H906 H 0.3562 0.97762 0.75756 0.0
H907 H 0.3959 0.04149 0.69893 0.0
H908 H 0.36848 0.10588 0.7724 0.0
H909 H 0.3638 0.0698 0.73134 0.0
H910 H 0.39672 0.00438 0.78893 0.0
H911 H 0.40132 0.04063 0.83045 0.0
C912 C 0.36002 0.9637 0.71172 0.0
C913 C 0.36931 0.97121 0.68298 0.0
C914 C 0.36374 0.98399 0.73576 0.0
C915 C 0.37657 0.01234 0.73157 0.0
C916 C 0.3857 0.0199 0.70283 0.0
C917 C 0.38222 0.99957 0.67887 0.0
C918 C 0.37486 0.08386 0.77642 0.0
C919 C 0.3853 0.07619 0.80481 0.0
C920 C 0.37229 0.0632 0.75276 0.0
C921 C 0.37989 0.03425 0.75685 0.0
C922 C 0.39045 0.02649 0.78517 0.0
C923 C 0.39328 0.0473 0.80888 0.0
H924 H 0.26416 0.12522 0.91529 0.0
H925 H 0.32873 0.13897 0.9875 0.0
H926 H 0.22431 0.12487 0.95126 0.0
H927 H 0.28924 0.13702 0.02357 0.0
H928 H 0.21324 0.16929 0.07626 0.0
H929 H 0.2516 0.16745 0.03958 0.0
H930 H 0.20068 0.09773 0.99078 0.0
H931 H 0.16151 0.10016 0.02737 0.0
C932 C 0.26978 0.12805 0.93889 0.0
C933 C 0.29947 0.13241 0.94864 0.0
C934 C 0.24701 0.12747 0.95952 0.0
C935 C 0.25352 0.1311 0.99033 0.0
C936 C 0.28335 0.13468 1.0 0.0
C937 C 0.30603 0.13545 0.97938 0.0
C938 C 0.21011 0.15348 0.05777 0.0
C939 C 0.18428 0.13477 0.05485 0.0
C940 C 0.23229 0.15231 0.03678 0.0
C941 C 0.22944 0.13223 0.01235 0.0
C942 C 0.2035 0.11361 0.00921 0.0
C943 C 0.18111 0.1149 0.03023 0.0
H944 H 0.06977 0.25623 0.11538 0.0
H945 H 0.00945 0.18536 0.14168 0.0
H946 H 0.031 0.2905 0.121 0.0
H947 H 0.97063 0.21966 0.14825 0.0
H948 H 0.90033 0.28468 0.12471 0.0
H949 H 0.93828 0.24902 0.12122 0.0
H950 H 0.0035 0.31458 0.15747 0.0
H951 H 0.96563 0.35021 0.15982 0.0
C952 C 0.0482 0.24812 0.12263 0.0
C953 C 0.04246 0.21827 0.12801 0.0
C954 C 0.026 0.26772 0.12603 0.0
C955 C 0.99764 0.25792 0.13525 0.0
C956 C 0.99203 0.22793 0.14071 0.0
C957 C 0.01421 0.20828 0.13701 0.0
C958 C 0.92277 0.29119 0.13217 0.0
C959 C 0.93026 0.32005 0.14238 0.0
C960 C 0.94451 0.27083 0.13027 0.0
C961 C 0.97408 0.27896 0.13882 0.0
C962 C 0.98116 0.3077 0.15002 0.0
C963 C 0.9595 0.32807 0.15161 0.0
H964 H 0.53024 0.34264 0.89769 0.0
H965 H 0.593 0.28573 0.85925 0.0
H966 H 0.49239 0.30235 0.89518 0.0
H967 H 0.55483 0.24529 0.85679 0.0
H968 H 0.48432 0.17463 0.88981 0.0
H969 H 0.52391 0.21368 0.89198 0.0
H970 H 0.46409 0.27341 0.85425 0.0
H971 H 0.42461 0.23465 0.85203 0.0
C972 C 0.53603 0.32153 0.88878 0.0
C973 C 0.56469 0.31748 0.8786 0.0
C974 C 0.51425 0.29848 0.88719 0.0
C975 C 0.52061 0.27073 0.87565 0.0
C976 C 0.54936 0.26643 0.86594 0.0
C977 C 0.57114 0.28962 0.86723 0.0
C978 C 0.47964 0.19607 0.8819 0.0
C979 C 0.45124 0.2015 0.87082 0.0
C980 C 0.50236 0.21836 0.88301 0.0
C981 C 0.49704 0.24661 0.87342 0.0
C982 C 0.46875 0.25194 0.86213 0.0
C983 C 0.44617 0.22965 0.86072 0.0
H984 H 0.93942 0.71909 0.32929 0.0
H985 H 0.97177 0.69215 0.41513 0.0
H986 H 0.97919 0.75793 0.32893 0.0
H987 H 0.01107 0.7315 0.41496 0.0
H988 H 0.0449 0.83214 0.41546 0.0
H989 H 0.00829 0.79039 0.41517 0.0
H990 H 0.03907 0.76038 0.32978 0.0
H991 H 0.07627 0.80175 0.33028 0.0
C992 C 0.95506 0.7214 0.34801 0.0
C993 C 0.95247 0.70259 0.37225 0.0
C994 C 0.97784 0.74352 0.34772 0.0
C995 C 0.99805 0.74766 0.37195 0.0
C996 C 0.99564 0.72877 0.39608 0.0
C997 C 0.97327 0.70622 0.39608 0.0
C998 C 0.04393 0.8166 0.39666 0.0
C999 C 0.06343 0.82023 0.37287 0.0
C1000 C 0.02311 0.79267 0.39661 0.0
C1001 C 0.02096 0.77226 0.37247 0.0
C1002 C 0.04031 0.7759 0.3486 0.0
C1003 C 0.0616 0.79948 0.34896 0.0
H1004 H 0.58037 0.75184 0.60226 0.0
H1005 H 0.50847 0.69237 0.62828 0.0
H1006 H 0.54633 0.79087 0.59724 0.0
H1007 H 0.47437 0.73145 0.62427 0.0
H1008 H 0.41492 0.79867 0.58936 0.0
H1009 H 0.44997 0.76022 0.58956 0.0
H1010 H 0.51804 0.82282 0.62588 0.0
H1011 H 0.48298 0.86135 0.62445 0.0
C1012 C 0.55725 0.74729 0.60715 0.0
C1013 C 0.54691 0.71925 0.61565 0.0
C1014 C 0.53775 0.76961 0.60437 0.0
C1015 C 0.50754 0.76438 0.61033 0.0
C1016 C 0.49734 0.73617 0.61891 0.0
C1017 C 0.51682 0.7138 0.62138 0.0
C1018 C 0.4375 0.8041 0.59707 0.0
C1019 C 0.4464 0.83275 0.60697 0.0
C1020 C 0.45752 0.7821 0.59745 0.0
C1021 C 0.4868 0.78827 0.60806 0.0
C1022 C 0.4958 0.81729 0.61724 0.0
C1023 C 0.47579 0.83936 0.61653 0.0
H1024 H 0.92329 0.05266 0.72218 0.0
H1025 H 0.8282 0.05068 0.72692 0.0
H1026 H 0.9247 0.01606 0.76101 0.0
H1027 H 0.82949 0.01418 0.76588 0.0
H1028 H 0.91503 0.96969 0.85167 0.0
H1029 H 0.91381 0.00928 0.81595 0.0
H1030 H 0.84226 0.96144 0.76677 0.0
H1031 H 0.84347 0.92202 0.80206 0.0
C1032 C 0.90272 0.04445 0.73168 0.0
C1033 C 0.87563 0.05434 0.72153 0.0
C1034 C 0.90353 0.0237 0.75405 0.0
C1035 C 0.87721 0.01217 0.76646 0.0
C1036 C 0.85013 0.02248 0.75658 0.0
C1037 C 0.84937 0.04348 0.73446 0.0
C1038 C 0.89903 0.96766 0.83326 0.0
C1039 C 0.8794 0.94261 0.82975 0.0
C1040 C 0.8984 0.99028 0.81276 0.0
C1041 C 0.87784 0.98853 0.78862 0.0
C1042 C 0.8581 0.96363 0.78532 0.0
C1043 C 0.85897 0.94092 0.80549 0.0
H1044 H 0.78005 0.13874 0.5878 0.0
H1045 H 0.84536 0.10279 0.53075 0.0
H1046 H 0.74417 0.13515 0.54626 0.0
H1047 H 0.80924 0.09929 0.48907 0.0
H1048 H 0.74218 0.12832 0.41552 0.0
H1049 H 0.78 0.13238 0.45579 0.0
H1050 H 0.71682 0.0944 0.51664 0.0
H1051 H 0.67929 0.09024 0.47683 0.0
C1052 C 0.78682 0.1301 0.56641 0.0
C1053 C 0.81563 0.12096 0.56273 0.0
C1054 C 0.76617 0.12794 0.5426 0.0
C1055 C 0.77383 0.11687 0.51438 0.0
C1056 C 0.80274 0.10811 0.51049 0.0
C1057 C 0.82335 0.10994 0.53445 0.0
C1058 C 0.73641 0.12078 0.43747 0.0
C1059 C 0.70763 0.10897 0.44285 0.0
C1060 C 0.7581 0.12299 0.4605 0.0
C1061 C 0.75135 0.11385 0.48945 0.0
C1062 C 0.72265 0.10197 0.49471 0.0
C1063 C 0.70116 0.09944 0.47174 0.0
H1064 H 0.67771 0.04423 0.30483 0.0
H1065 H 0.59133 0.01558 0.33587 0.0
H1066 H 0.67273 0.00701 0.26435 0.0
H1067 H 0.58614 0.97876 0.29478 0.0
H1068 H 0.57949 0.9497 0.19132 0.0
H1069 H 0.58402 0.98387 0.23469 0.0
H1070 H 0.66656 0.94847 0.26057 0.0
H1071 H 0.66186 0.91393 0.21776 0.0
C1072 C 0.65775 0.02985 0.30312 0.0
C1073 C 0.63495 0.03276 0.32359 0.0
C1074 C 0.65495 0.00856 0.27999 0.0
C1075 C 0.62901 0.99017 0.27644 0.0
C1076 C 0.60629 0.99282 0.297 0.0
C1077 C 0.60937 0.01371 0.32059 0.0
C1078 C 0.59855 0.94916 0.20631 0.0
C1079 C 0.62031 0.9291 0.2011 0.0
C1080 C 0.60102 0.96856 0.23119 0.0
C1081 C 0.62561 0.9687 0.25092 0.0
C1082 C 0.64742 0.94881 0.24564 0.0
C1083 C 0.64466 0.92901 0.22118 0.0
H1084 H 0.68992 0.82895 0.03905 0.0
H1085 H 0.69388 0.92352 0.03943 0.0
H1086 H 0.72764 0.8286 1.00087 0.0
H1087 H 0.73146 0.92332 1.00084 0.0
H1088 H 0.77718 0.83883 0.91341 0.0
H1089 H 0.73599 0.84078 0.94761 0.0
H1090 H 0.78406 0.91017 0.99943 0.0
H1091 H 0.82508 0.90841 0.96536 0.0
C1092 C 0.69876 0.84964 0.0307 0.0
C1093 C 0.68916 0.87626 0.04208 0.0
C1094 C 0.72015 0.84945 0.00872 0.0
C1095 C 0.73252 0.87593 0.99788 0.0
C1096 C 0.72247 0.90258 0.00894 0.0
C1097 C 0.70087 0.90273 0.03079 0.0
C1098 C 0.77891 0.85458 0.93202 0.0
C1099 C 0.80449 0.87337 0.93669 0.0
C1100 C 0.75536 0.85562 0.95165 0.0
C1101 C 0.75679 0.87566 0.97616 0.0
C1102 C 0.78215 0.89475 0.98053 0.0
C1103 C 0.80576 0.89355 0.96111 0.0
H1104 H 0.05036 0.67772 0.92831 0.0
H1105 H 0.07033 0.69822 0.83721 0.0
H1106 H 0.01353 0.71428 0.92897 0.0
H1107 H 0.03565 0.73668 0.83857 0.0
H1108 H 0.95103 0.78373 0.83783 0.0
H1109 H 0.98631 0.74588 0.83732 0.0
H1110 H 0.00588 0.76386 0.93137 0.0
H1111 H 0.96838 0.79972 0.93225 0.0
C1112 C 0.04691 0.69012 0.90843 0.0
C1113 C 0.06316 0.68498 0.88267 0.0
C1114 C 0.02612 0.71152 0.90894 0.0
C1115 C 0.02144 0.72872 0.88385 0.0
C1116 C 0.03807 0.72367 0.8582 0.0
C1117 C 0.0584 0.70189 0.85753 0.0
C1118 C 0.96248 0.7792 0.85851 0.0
C1119 C 0.95668 0.79458 0.88513 0.0
C1120 C 0.98321 0.7578 0.85815 0.0
C1121 C 0.99924 0.75162 0.8843 0.0
C1122 C 0.99373 0.76748 0.91085 0.0
C1123 C 0.97255 0.7885 0.91129 0.0
H1124 H 0.41853 0.71789 0.17115 0.0
H1125 H 0.45174 0.68267 0.08872 0.0
H1126 H 0.45654 0.75845 0.17076 0.0
H1127 H 0.48916 0.72381 0.08803 0.0
H1128 H 0.52468 0.82497 0.08821 0.0
H1129 H 0.48509 0.78575 0.0878 0.0
H1130 H 0.51879 0.75581 0.17168 0.0
H1131 H 0.5589 0.79434 0.17179 0.0
C1132 C 0.43371 0.719 0.1528 0.0
C1133 C 0.43224 0.69712 0.12998 0.0
C1134 C 0.45544 0.7421 0.15267 0.0
C1135 C 0.47556 0.74409 0.12935 0.0
C1136 C 0.47371 0.72269 0.10615 0.0
C1137 C 0.45244 0.69918 0.10664 0.0
C1138 C 0.52355 0.81008 0.1066 0.0
C1139 C 0.54485 0.81265 0.13003 0.0
C1140 C 0.50104 0.78766 0.10627 0.0
C1141 C 0.49906 0.76798 0.12972 0.0
C1142 C 0.51992 0.77088 0.15343 0.0
C1143 C 0.54284 0.79281 0.15341 0.0
H1144 H 0.9681 0.17196 0.61247 0.0
H1145 H 0.90545 0.22986 0.64949 0.0
H1146 H 0.00576 0.21244 0.6133 0.0
H1147 H 0.94338 0.27036 0.65042 0.0
H1148 H 0.01235 0.34032 0.61469 0.0
H1149 H 0.97315 0.30104 0.61468 0.0
H1150 H 0.03464 0.24282 0.65224 0.0
H1151 H 0.07382 0.2818 0.65216 0.0
C1152 C 0.9623 0.19332 0.62071 0.0
C1153 C 0.93374 0.19763 0.63097 0.0
C1154 C 0.98397 0.21647 0.62137 0.0
C1155 C 0.97756 0.24451 0.6321 0.0
C1156 C 0.94889 0.24901 0.64188 0.0
C1157 C 0.92723 0.22577 0.64145 0.0
C1158 C 0.01747 0.3192 0.62311 0.0
C1159 C 0.04627 0.31421 0.63333 0.0
C1160 C 0.99498 0.29675 0.6232 0.0
C1161 C 1.00091 0.26882 0.63326 0.0
C1162 C 0.02953 0.26401 0.64396 0.0
C1163 C 0.05192 0.28644 0.64409 0.0
H1164 H 0.49123 0.32178 0.36893 0.0
H1165 H 0.42698 0.25899 0.4039 0.0
H1166 H 0.52785 0.28456 0.36785 0.0
H1167 H 0.46347 0.22175 0.40337 0.0
H1168 H 0.52438 0.15436 0.3657 0.0
H1169 H 0.48868 0.19231 0.36762 0.0
H1170 H 0.55804 0.25564 0.39952 0.0
H1171 H 0.59365 0.21754 0.39713 0.0
C1172 C 0.48517 0.30005 0.37674 0.0
C1173 C 0.45644 0.29309 0.38648 0.0
C1174 C 0.50607 0.27875 0.37619 0.0
C1175 C 0.49859 0.25008 0.38538 0.0
C1176 C 0.46986 0.24342 0.39563 0.0
C1177 C 0.44902 0.26472 0.39613 0.0
C1178 C 0.53183 0.17641 0.3732 0.0
C1179 C 0.56161 0.18312 0.38138 0.0
C1180 C 0.51144 0.19813 0.37443 0.0
C1181 C 0.52043 0.22705 0.38388 0.0
C1182 C 0.5504 0.23371 0.39183 0.0
C1183 C 0.57077 0.21195 0.39057 0.0
H1184 H 0.63102 0.50574 0.8337 0.0
H1185 H 0.6268 0.4398 0.7625 0.0
H1186 H 0.63069 0.54422 0.79682 0.0
H1187 H 0.62786 0.47802 0.72567 0.0
H1188 H 0.5952 0.54995 0.66847 0.0
H1189 H 0.59587 0.5132 0.70647 0.0
H1190 H 0.66029 0.56806 0.75856 0.0
H1191 H 0.65916 0.60544 0.72059 0.0
C1192 C 0.63006 0.4995 0.81016 0.0
C1193 C 0.62883 0.46977 0.80097 0.0
C1194 C 0.63024 0.52153 0.78902 0.0
C1195 C 0.62915 0.51427 0.75822 0.0
C1196 C 0.62829 0.48446 0.74916 0.0
C1197 C 0.62807 0.46252 0.77027 0.0
C1198 C 0.60955 0.55431 0.68799 0.0
C1199 C 0.62723 0.5807 0.69134 0.0
C1200 C 0.61005 0.53307 0.70976 0.0
C1201 C 0.62832 0.53748 0.73551 0.0
C1202 C 0.64577 0.56402 0.73912 0.0
C1203 C 0.64524 0.5854 0.71728 0.0
H1204 H 0.65804 0.40409 0.97872 0.0
H1205 H 0.72419 0.37055 0.92109 0.0
H1206 H 0.69387 0.40802 0.0202 0.0
H1207 H 0.76013 0.37444 0.9629 0.0
H1208 H 0.82311 0.41779 0.03718 0.0
H1209 H 0.78764 0.41346 0.99511 0.0
H1210 H 0.72125 0.37541 0.05258 0.0
H1211 H 0.75654 0.37978 0.09466 0.0
C1212 C 0.68021 0.39747 0.97486 0.0
C1213 C 0.68816 0.38698 0.94647 0.0
C1214 C 0.70073 0.3996 0.99875 0.0
C1215 C 0.72986 0.39154 0.9949 0.0
C1216 C 0.73792 0.38108 0.96653 0.0
C1217 C 0.71726 0.37867 0.94262 0.0
C1218 C 0.80092 0.40863 0.04092 0.0
C1219 C 0.79271 0.39926 0.06942 0.0
C1220 C 0.78066 0.40592 0.01672 0.0
C1221 C 0.75162 0.39406 0.02047 0.0
C1222 C 0.74336 0.38489 0.04898 0.0
C1223 C 0.76366 0.38733 0.0731 0.0
H1224 H 0.89592 0.4803 0.18941 0.0
H1225 H 0.81145 0.45133 0.22496 0.0
H1226 H 0.90298 0.51732 0.22968 0.0
H1227 H 0.81837 0.48928 0.26504 0.0
H1228 H 0.83372 0.58984 0.30011 0.0
H1229 H 0.82523 0.54961 0.26313 0.0
H1230 H 0.90741 0.51447 0.29061 0.0
H1231 H 0.91571 0.55437 0.32836 0.0
C1232 C 0.87873 0.48199 0.20569 0.0
C1233 C 0.85302 0.46298 0.20394 0.0
C1234 C 0.88295 0.50302 0.22885 0.0
C1235 C 0.8613 0.50594 0.25041 0.0
C1236 C 0.83538 0.48731 0.24859 0.0
C1237 C 0.83143 0.4657 0.22573 0.0
C1238 C 0.84998 0.57351 0.29835 0.0
C1239 C 0.87553 0.57536 0.31697 0.0
C1240 C 0.84495 0.55041 0.27737 0.0
C1241 C 0.86564 0.52906 0.27417 0.0
C1242 C 0.89116 0.53077 0.29275 0.0
C1243 C 0.89589 0.55353 0.31426 0.0
H1244 H 0.71684 0.65118 0.58948 0.0
H1245 H 0.65709 0.60415 0.52547 0.0
H1246 H 0.75523 0.65341 0.55268 0.0
H1247 H 0.69593 0.60677 0.4882 0.0
H1248 H 0.80428 0.68429 0.4714 0.0
H1249 H 0.7636 0.67964 0.5063 0.0
H1250 H 0.74592 0.58901 0.47742 0.0
H1251 H 0.78639 0.5941 0.44203 0.0
C1252 C 0.71186 0.64122 0.56754 0.0
C1253 C 0.68374 0.62765 0.56037 0.0
C1254 C 0.73388 0.6427 0.54637 0.0
C1255 C 0.72846 0.63068 0.51742 0.0
C1256 C 0.70072 0.61621 0.51039 0.0
C1257 C 0.6785 0.61474 0.53169 0.0
C1258 C 0.7915 0.6635 0.4725 0.0
C1259 C 0.79839 0.63948 0.45445 0.0
C1260 C 0.7684 0.66073 0.49251 0.0
C1261 C 0.75176 0.63385 0.49479 0.0
C1262 C 0.75826 0.61 0.47607 0.0
C1263 C 0.78146 0.6128 0.45606 0.0
H1264 H 0.32736 0.5508 0.22828 0.0
H1265 H 0.4224 0.55176 0.22336 0.0
H1266 H 0.3283 0.51404 0.26703 0.0
H1267 H 0.42345 0.51498 0.26204 0.0
H1268 H 0.41314 0.46775 0.35224 0.0
H1269 H 0.41205 0.50807 0.3173 0.0
H1270 H 0.34106 0.46088 0.26671 0.0
H1271 H 0.34219 0.42073 0.30114 0.0
C1272 C 0.34844 0.54336 0.23577 0.0
C1273 C 0.37479 0.55397 0.22285 0.0
C1274 C 0.349 0.52223 0.25777 0.0
C1275 C 0.37596 0.51159 0.26753 0.0
C1276 C 0.40238 0.52291 0.25516 0.0
C1277 C 0.40177 0.54375 0.23289 0.0
C1278 C 0.39727 0.46605 0.3337 0.0
C1279 C 0.37782 0.44095 0.32948 0.0
C1280 C 0.39672 0.48907 0.31367 0.0
C1281 C 0.37637 0.48767 0.28935 0.0
C1282 C 0.35674 0.46277 0.28542 0.0
C1283 C 0.35757 0.43965 0.30509 0.0
H1284 H 0.17784 0.58646 0.9768 0.0
H1285 H 0.24208 0.62633 0.91797 0.0
H1286 H 0.21467 0.58985 0.01757 0.0
H1287 H 0.27894 0.62958 0.95888 0.0
H1288 H 0.34397 0.60081 0.03257 0.0
H1289 H 0.30768 0.59625 0.9912 0.0
H1290 H 0.24179 0.63012 0.04872 0.0
H1291 H 0.27798 0.63479 0.0901 0.0
C1292 C 0.19985 0.5958 0.97247 0.0
C1293 C 0.20695 0.60611 0.94403 0.0
C1294 C 0.2209 0.5979 0.99593 0.0
C1295 C 0.24969 0.61005 0.99149 0.0
C1296 C 0.257 0.61991 0.96295 0.0
C1297 C 0.23583 0.61814 0.93954 0.0
C1298 C 0.32174 0.60725 0.03645 0.0
C1299 C 0.31393 0.61816 0.06473 0.0
C1300 C 0.301 0.60478 0.01267 0.0
C1301 C 0.27185 0.61279 0.01668 0.0
C1302 C 0.26399 0.62351 0.04498 0.0
C1303 C 0.2848 0.62633 0.06866 0.0
H1304 H 0.09702 0.51948 0.82913 0.0
H1305 H 0.18115 0.55358 0.79687 0.0
H1306 H 0.0934 0.48284 0.78807 0.0
H1307 H 0.17773 0.51628 0.75618 0.0
H1308 H 0.16898 0.41962 0.71185 0.0
H1309 H 0.1743 0.45627 0.75307 0.0
H1310 H 0.08995 0.48844 0.72818 0.0
H1311 H 0.08485 0.45244 0.68656 0.0
C1312 C 0.11488 0.51897 0.81347 0.0
C1313 C 0.13937 0.53945 0.81624 0.0
C1314 C 0.1127 0.49809 0.78992 0.0
C1315 C 0.13527 0.49682 0.76903 0.0
C1316 C 0.16011 0.51679 0.77211 0.0
C1317 C 0.16198 0.53814 0.79529 0.0
C1318 C 0.15161 0.43456 0.71513 0.0
C1319 C 0.12649 0.43315 0.69593 0.0
C1320 C 0.15474 0.45556 0.73861 0.0
C1321 C 0.13249 0.47506 0.74375 0.0
C1322 C 0.10733 0.47354 0.72473 0.0
C1323 C 0.1045 0.45303 0.70087 0.0
H1324 H 0.27595 0.32976 0.40835 0.0
H1325 H 0.31804 0.40477 0.45708 0.0
H1326 H 0.23361 0.33097 0.44147 0.0
H1327 H 0.2761 0.40586 0.48981 0.0
H1328 H 0.18823 0.32317 0.53537 0.0
H1329 H 0.22504 0.32197 0.49622 0.0
H1330 H 0.22261 0.41579 0.48834 0.0
H1331 H 0.18617 0.41692 0.52782 0.0
C1332 C 0.27611 0.34656 0.42594 0.0
C1333 C 0.30043 0.36708 0.43012 0.0
C1334 C 0.25195 0.34719 0.44493 0.0
C1335 C 0.25151 0.3686 0.46812 0.0
C1336 C 0.27559 0.38936 0.47189 0.0
C1337 C 0.29976 0.38854 0.45324 0.0
C1338 C 0.19548 0.34345 0.52505 0.0
C1339 C 0.18465 0.37017 0.53468 0.0
C1340 C 0.2163 0.34274 0.5025 0.0
C1341 C 0.22681 0.3688 0.48934 0.0
C1342 C 0.21511 0.39539 0.49829 0.0
C1343 C 0.19413 0.39604 0.52068 0.0
loop_
_geom_bond_atom_site_label_1
_geom_bond_atom_site_label_2
_geom_bond_distance
_geom_bond_site_symmetry_2
_ccdc_geom_bond_type
Co0 O3 1.970 . S
Co0 N17 1.989 . S
Co0 O25 1.967 . S
Co0 O32 1.920 . S
Co1 O4 1.966 . S
Co1 N10 2.022 . S
Co1 N18 1.993 . S
Co1 O26 1.941 . S
C2 O3 1.258 . S
C2 O4 1.263 . S
O3 Co0 1.970 . S
O3 C2 1.258 . S
O4 Co1 1.966 . S
O4 C2 1.263 . S
C5 O6 1.235 . S
C5 O32 1.289 . S
O6 C5 1.235 . S
C7 C9 1.400 . S
C7 N10 1.351 . S
C7 C12 1.501 . S
C8 C9 1.387 . S
C8 N11 1.341 . S
C9 C7 1.400 . S
C9 C8 1.387 . S
N10 Co1 2.022 . S
N10 C7 1.351 . S
N10 N11 1.365 . S
N11 C8 1.341 . S
N11 N10 1.365 . S
N11 H31 0.862 . S
C12 C7 1.501 . S
C12 H13 0.961 . S
C12 H14 0.961 . S
C12 H15 0.960 . S
H13 C12 0.961 . S
H14 C12 0.961 . S
H15 C12 0.960 . S
C16 N17 1.342 . S
C16 C20 1.401 . S
C16 C21 1.499 . S
N17 Co0 1.989 . S
N17 C16 1.342 . S
N17 N18 1.388 . S
N18 Co1 1.993 . S
N18 N17 1.388 . S
N18 C19 1.346 . S
C19 N18 1.346 . S
C19 C20 1.396 . S
C19 C29 1.510 . S
C20 C16 1.401 . S
C20 C19 1.396 . S
C21 C16 1.499 . S
C21 H22 0.959 . S
C21 H23 0.960 . S
C21 H24 0.961 . S
H22 C21 0.959 . S
H23 C21 0.960 . S
H24 C21 0.961 . S
O25 Co0 1.967 . S
O25 C33 1.258 . S
O26 Co1 1.941 . S
O26 C33 1.266 . S
H27 C29 0.959 . S
H28 C29 0.961 . S
C29 C19 1.510 . S
C29 H27 0.959 . S
C29 H28 0.961 . S
C29 H30 0.960 . S
H30 C29 0.960 . S
H31 N11 0.862 . S
O32 Co0 1.920 . S
O32 C5 1.289 . S
C33 O25 1.258 . S
C33 O26 1.266 . S
Co34 O37 1.970 . S
Co34 N51 1.989 . S
Co34 O59 1.967 . S
Co34 O66 1.920 . S
Co35 O38 1.966 . S
Co35 N44 2.022 . S
Co35 N52 1.993 . S
Co35 O60 1.941 . S
C36 O37 1.258 . S
C36 O38 1.263 . S
O37 Co34 1.970 . S
O37 C36 1.258 . S
O38 Co35 1.966 . S
O38 C36 1.263 . S
C39 O40 1.235 . S
C39 O66 1.289 . S
O40 C39 1.235 . S
C41 C43 1.400 . S
C41 N44 1.351 . S
C41 C46 1.501 . S
C42 C43 1.387 . S
C42 N45 1.341 . S
C43 C41 1.400 . S
C43 C42 1.387 . S
N44 Co35 2.022 . S
N44 C41 1.351 . S
N44 N45 1.365 . S
N45 C42 1.341 . S
N45 N44 1.365 . S
N45 H65 0.862 . S
C46 C41 1.501 . S
C46 H47 0.961 . S
C46 H48 0.961 . S
C46 H49 0.960 . S
H47 C46 0.961 . S
H48 C46 0.961 . S
H49 C46 0.960 . S
C50 N51 1.342 . S
C50 C54 1.401 . S
C50 C55 1.499 . S
N51 Co34 1.989 . S
N51 C50 1.342 . S
N51 N52 1.388 . S
N52 Co35 1.993 . S
N52 N51 1.388 . S
N52 C53 1.346 . S
C53 N52 1.346 . S
C53 C54 1.396 . S
C53 C63 1.510 . S
C54 C50 1.401 . S
C54 C53 1.396 . S
C55 C50 1.499 . S
C55 H56 0.959 . S
C55 H57 0.960 . S
C55 H58 0.961 . S
H56 C55 0.959 . S
H57 C55 0.960 . S
H58 C55 0.961 . S
O59 Co34 1.967 . S
O59 C67 1.258 . S
O60 Co35 1.941 . S
O60 C67 1.266 . S
H61 C63 0.959 . S
H62 C63 0.961 . S
C63 C53 1.510 . S
C63 H61 0.959 . S
C63 H62 0.961 . S
C63 H64 0.960 . S
H64 C63 0.960 . S
H65 N45 0.862 . S
O66 Co34 1.920 . S
O66 C39 1.289 . S
C67 O59 1.258 . S
C67 O60 1.266 . S
Co68 O71 1.970 . S
Co68 N85 1.989 . S
Co68 O93 1.967 . S
Co68 O100 1.920 . S
Co69 O72 1.966 . S
Co69 N78 2.022 . S
Co69 N86 1.993 . S
Co69 O94 1.941 . S
C70 O71 1.258 . S
C70 O72 1.263 . S
O71 Co68 1.970 . S
O71 C70 1.258 . S
O72 Co69 1.966 . S
O72 C70 1.263 . S
C73 O74 1.235 . S
C73 O100 1.289 . S
O74 C73 1.235 . S
C75 C77 1.400 . S
C75 N78 1.351 . S
C75 C80 1.501 . S
C76 C77 1.387 . S
C76 N79 1.341 . S
C77 C75 1.400 . S
C77 C76 1.387 . S
N78 Co69 2.022 . S
N78 C75 1.351 . S
N78 N79 1.365 . S
N79 C76 1.341 . S
N79 N78 1.365 . S
N79 H99 0.862 . S
C80 C75 1.501 . S
C80 H81 0.961 . S
C80 H82 0.961 . S
C80 H83 0.960 . S
H81 C80 0.961 . S
H82 C80 0.961 . S
H83 C80 0.960 . S
C84 N85 1.342 . S
C84 C88 1.401 . S
C84 C89 1.499 . S
N85 Co68 1.989 . S
N85 C84 1.342 . S
N85 N86 1.388 . S
N86 Co69 1.993 . S
N86 N85 1.388 . S
N86 C87 1.346 . S
C87 N86 1.346 . S
C87 C88 1.396 . S
C87 C97 1.510 . S
C88 C84 1.401 . S
C88 C87 1.396 . S
C89 C84 1.499 . S
C89 H90 0.959 . S
C89 H91 0.960 . S
C89 H92 0.961 . S
H90 C89 0.959 . S
H91 C89 0.960 . S
H92 C89 0.961 . S
O93 Co68 1.967 . S
O93 C101 1.258 . S
O94 Co69 1.941 . S
O94 C101 1.266 . S
H95 C97 0.959 . S
H96 C97 0.961 . S
C97 C87 1.510 . S
C97 H95 0.959 . S
C97 H96 0.961 . S
C97 H98 0.960 . S
H98 C97 0.960 . S
H99 N79 0.862 . S
O100 Co68 1.920 . S
O100 C73 1.289 . S
C101 O93 1.258 . S
C101 O94 1.266 . S
Co102 O105 1.970 . S
Co102 N119 1.989 . S
Co102 O127 1.967 . S
Co102 O134 1.920 . S
Co103 O106 1.966 . S
Co103 N112 2.022 . S
Co103 N120 1.993 . S
Co103 O128 1.941 . S
C104 O105 1.258 . S
C104 O106 1.263 . S
O105 Co102 1.970 . S
O105 C104 1.258 . S
O106 Co103 1.966 . S
O106 C104 1.263 . S
C107 O108 1.235 . S
C107 O134 1.289 . S
O108 C107 1.235 . S
C109 C111 1.400 . S
C109 N112 1.351 . S
C109 C114 1.501 . S
C110 C111 1.387 . S
C110 N113 1.341 . S
C111 C109 1.400 . S
C111 C110 1.387 . S
N112 Co103 2.022 . S
N112 C109 1.351 . S
N112 N113 1.365 . S
N113 C110 1.341 . S
N113 N112 1.365 . S
N113 H133 0.862 . S
C114 C109 1.501 . S
C114 H115 0.961 . S
C114 H116 0.961 . S
C114 H117 0.960 . S
H115 C114 0.961 . S
H116 C114 0.961 . S
H117 C114 0.960 . S
C118 N119 1.342 . S
C118 C122 1.401 . S
C118 C123 1.499 . S
N119 Co102 1.989 . S
N119 C118 1.342 . S
N119 N120 1.388 . S
N120 Co103 1.993 . S
N120 N119 1.388 . S
N120 C121 1.346 . S
C121 N120 1.346 . S
C121 C122 1.396 . S
C121 C131 1.510 . S
C122 C118 1.401 . S
C122 C121 1.396 . S
C123 C118 1.499 . S
C123 H124 0.959 . S
C123 H125 0.960 . S
C123 H126 0.961 . S
H124 C123 0.959 . S
H125 C123 0.960 . S
H126 C123 0.961 . S
O127 Co102 1.967 . S
O127 C135 1.258 . S
O128 Co103 1.941 . S
O128 C135 1.266 . S
H129 C131 0.959 . S
H130 C131 0.961 . S
C131 C121 1.510 . S
C131 H129 0.959 . S
C131 H130 0.961 . S
C131 H132 0.960 . S
H132 C131 0.960 . S
H133 N113 0.862 . S
O134 Co102 1.920 . S
O134 C107 1.289 . S
C135 O127 1.258 . S
C135 O128 1.266 . S
Co136 O139 1.970 . S
Co136 N153 1.989 . S
Co136 O161 1.967 . S
Co136 O168 1.920 . S
Co137 O140 1.966 . S
Co137 N146 2.022 . S
Co137 N154 1.993 . S
Co137 O162 1.941 . S
C138 O139 1.258 . S
C138 O140 1.263 . S
O139 Co136 1.970 . S
O139 C138 1.258 . S
O140 Co137 1.966 . S
O140 C138 1.263 . S
C141 O142 1.235 . S
C141 O168 1.289 . S
O142 C141 1.235 . S
C143 C145 1.400 . S
C143 N146 1.351 . S
C143 C148 1.501 . S
C144 C145 1.387 . S
C144 N147 1.341 . S
C145 C143 1.400 . S
C145 C144 1.387 . S
N146 Co137 2.022 . S
N146 C143 1.351 . S
N146 N147 1.365 . S
N147 C144 1.341 . S
N147 N146 1.365 . S
N147 H167 0.862 . S
C148 C143 1.501 . S
C148 H149 0.961 . S
C148 H150 0.961 . S
C148 H151 0.960 . S
H149 C148 0.961 . S
H150 C148 0.961 . S
H151 C148 0.960 . S
C152 N153 1.342 . S
C152 C156 1.401 . S
C152 C157 1.499 . S
N153 Co136 1.989 . S
N153 C152 1.342 . S
N153 N154 1.388 . S
N154 Co137 1.993 . S
N154 N153 1.388 . S
N154 C155 1.346 . S
C155 N154 1.346 . S
C155 C156 1.396 . S
C155 C165 1.510 . S
C156 C152 1.401 . S
C156 C155 1.396 . S
C157 C152 1.499 . S
C157 H158 0.959 . S
C157 H159 0.960 . S
C157 H160 0.961 . S
H158 C157 0.959 . S
H159 C157 0.960 . S
H160 C157 0.961 . S
O161 Co136 1.967 . S
O161 C169 1.258 . S
O162 Co137 1.941 . S
O162 C169 1.266 . S
H163 C165 0.959 . S
H164 C165 0.961 . S
C165 C155 1.510 . S
C165 H163 0.959 . S
C165 H164 0.961 . S
C165 H166 0.960 . S
H166 C165 0.960 . S
H167 N147 0.862 . S
O168 Co136 1.920 . S
O168 C141 1.289 . S
C169 O161 1.258 . S
C169 O162 1.266 . S
Co170 O173 1.970 . S
Co170 N187 1.989 . S
Co170 O195 1.967 . S
Co170 O202 1.920 . S
Co171 O174 1.966 . S
Co171 N180 2.022 . S
Co171 N188 1.993 . S
Co171 O196 1.941 . S
C172 O173 1.258 . S
C172 O174 1.263 . S
O173 Co170 1.970 . S
O173 C172 1.258 . S
O174 Co171 1.966 . S
O174 C172 1.263 . S
C175 O176 1.235 . S
C175 O202 1.289 . S
O176 C175 1.235 . S
C177 C179 1.400 . S
C177 N180 1.351 . S
C177 C182 1.501 . S
C178 C179 1.387 . S
C178 N181 1.341 . S
C179 C177 1.400 . S
C179 C178 1.387 . S
N180 Co171 2.022 . S
N180 C177 1.351 . S
N180 N181 1.365 . S
N181 C178 1.341 . S
N181 N180 1.365 . S
N181 H201 0.862 . S
C182 C177 1.501 . S
C182 H183 0.961 . S
C182 H184 0.961 . S
C182 H185 0.960 . S
H183 C182 0.961 . S
H184 C182 0.961 . S
H185 C182 0.960 . S
C186 N187 1.342 . S
C186 C190 1.401 . S
C186 C191 1.499 . S
N187 Co170 1.989 . S
N187 C186 1.342 . S
N187 N188 1.388 . S
N188 Co171 1.993 . S
N188 N187 1.388 . S
N188 C189 1.346 . S
C189 N188 1.346 . S
C189 C190 1.396 . S
C189 C199 1.510 . S
C190 C186 1.401 . S
C190 C189 1.396 . S
C191 C186 1.499 . S
C191 H192 0.959 . S
C191 H193 0.960 . S
C191 H194 0.961 . S
H192 C191 0.959 . S
H193 C191 0.960 . S
H194 C191 0.961 . S
O195 Co170 1.967 . S
O195 C203 1.258 . S
O196 Co171 1.941 . S
O196 C203 1.266 . S
H197 C199 0.959 . S
H198 C199 0.961 . S
C199 C189 1.510 . S
C199 H197 0.959 . S
C199 H198 0.961 . S
C199 H200 0.960 . S
H200 C199 0.960 . S
H201 N181 0.862 . S
O202 Co170 1.920 . S
O202 C175 1.289 . S
C203 O195 1.258 . S
C203 O196 1.266 . S
Co204 O207 1.970 . S
Co204 N221 1.989 . S
Co204 O229 1.967 . S
Co204 O236 1.920 . S
Co205 O208 1.966 . S
Co205 N214 2.022 . S
Co205 N222 1.993 . S
Co205 O230 1.941 . S
C206 O207 1.258 . S
C206 O208 1.263 . S
O207 Co204 1.970 . S
O207 C206 1.258 . S
O208 Co205 1.966 . S
O208 C206 1.263 . S
C209 O210 1.235 . S
C209 O236 1.289 . S
O210 C209 1.235 . S
C211 C213 1.400 . S
C211 N214 1.351 . S
C211 C216 1.501 . S
C212 C213 1.387 . S
C212 N215 1.341 . S
C213 C211 1.400 . S
C213 C212 1.387 . S
N214 Co205 2.022 . S
N214 C211 1.351 . S
N214 N215 1.365 . S
N215 C212 1.341 . S
N215 N214 1.365 . S
N215 H235 0.862 . S
C216 C211 1.501 . S
C216 H217 0.961 . S
C216 H218 0.961 . S
C216 H219 0.960 . S
H217 C216 0.961 . S
H218 C216 0.961 . S
H219 C216 0.960 . S
C220 N221 1.342 . S
C220 C224 1.401 . S
C220 C225 1.499 . S
N221 Co204 1.989 . S
N221 C220 1.342 . S
N221 N222 1.388 . S
N222 Co205 1.993 . S
N222 N221 1.388 . S
N222 C223 1.346 . S
C223 N222 1.346 . S
C223 C224 1.396 . S
C223 C233 1.510 . S
C224 C220 1.401 . S
C224 C223 1.396 . S
C225 C220 1.499 . S
C225 H226 0.959 . S
C225 H227 0.960 . S
C225 H228 0.961 . S
H226 C225 0.959 . S
H227 C225 0.960 . S
H228 C225 0.961 . S
O229 Co204 1.967 . S
O229 C237 1.258 . S
O230 Co205 1.941 . S
O230 C237 1.266 . S
H231 C233 0.959 . S
H232 C233 0.961 . S
C233 C223 1.510 . S
C233 H231 0.959 . S
C233 H232 0.961 . S
C233 H234 0.960 . S
H234 C233 0.960 . S
H235 N215 0.862 . S
O236 Co204 1.920 . S
O236 C209 1.289 . S
C237 O229 1.258 . S
C237 O230 1.266 . S
Co238 O241 1.970 . S
Co238 N255 1.989 . S
Co238 O263 1.967 . S
Co238 O270 1.920 . S
Co239 O242 1.966 . S
Co239 N248 2.022 . S
Co239 N256 1.993 . S
Co239 O264 1.941 . S
C240 O241 1.258 . S
C240 O242 1.263 . S
O241 Co238 1.970 . S
O241 C240 1.258 . S
O242 Co239 1.966 . S
O242 C240 1.263 . S
C243 O244 1.235 . S
C243 O270 1.289 . S
O244 C243 1.235 . S
C245 C247 1.400 . S
C245 N248 1.351 . S
C245 C250 1.501 . S
C246 C247 1.387 . S
C246 N249 1.341 . S
C247 C245 1.400 . S
C247 C246 1.387 . S
N248 Co239 2.022 . S
N248 C245 1.351 . S
N248 N249 1.365 . S
N249 C246 1.341 . S
N249 N248 1.365 . S
N249 H269 0.862 . S
C250 C245 1.501 . S
C250 H251 0.961 . S
C250 H252 0.961 . S
C250 H253 0.960 . S
H251 C250 0.961 . S
H252 C250 0.961 . S
H253 C250 0.960 . S
C254 N255 1.342 . S
C254 C258 1.401 . S
C254 C259 1.499 . S
N255 Co238 1.989 . S
N255 C254 1.342 . S
N255 N256 1.388 . S
N256 Co239 1.993 . S
N256 N255 1.388 . S
N256 C257 1.346 . S
C257 N256 1.346 . S
C257 C258 1.396 . S
C257 C267 1.510 . S
C258 C254 1.401 . S
C258 C257 1.396 . S
C259 C254 1.499 . S
C259 H260 0.959 . S
C259 H261 0.960 . S
C259 H262 0.961 . S
H260 C259 0.959 . S
H261 C259 0.960 . S
H262 C259 0.961 . S
O263 Co238 1.967 . S
O263 C271 1.258 . S
O264 Co239 1.941 . S
O264 C271 1.266 . S
H265 C267 0.959 . S
H266 C267 0.961 . S
C267 C257 1.510 . S
C267 H265 0.959 . S
C267 H266 0.961 . S
C267 H268 0.960 . S
H268 C267 0.960 . S
H269 N249 0.862 . S
O270 Co238 1.920 . S
O270 C243 1.289 . S
C271 O263 1.258 . S
C271 O264 1.266 . S
Co272 O275 1.970 . S
Co272 N289 1.989 . S
Co272 O297 1.967 . S
Co272 O304 1.920 . S
Co273 O276 1.966 . S
Co273 N282 2.022 . S
Co273 N290 1.993 . S
Co273 O298 1.941 . S
C274 O275 1.258 . S
C274 O276 1.263 . S
O275 Co272 1.970 . S
O275 C274 1.258 . S
O276 Co273 1.966 . S
O276 C274 1.263 . S
C277 O278 1.235 . S
C277 O304 1.289 . S
O278 C277 1.235 . S
C279 C281 1.400 . S
C279 N282 1.351 . S
C279 C284 1.501 . S
C280 C281 1.387 . S
C280 N283 1.341 . S
C281 C279 1.400 . S
C281 C280 1.387 . S
N282 Co273 2.022 . S
N282 C279 1.351 . S
N282 N283 1.365 . S
N283 C280 1.341 . S
N283 N282 1.365 . S
N283 H303 0.862 . S
C284 C279 1.501 . S
C284 H285 0.961 . S
C284 H286 0.961 . S
C284 H287 0.960 . S
H285 C284 0.961 . S
H286 C284 0.961 . S
H287 C284 0.960 . S
C288 N289 1.342 . S
C288 C292 1.401 . S
C288 C293 1.499 . S
N289 Co272 1.989 . S
N289 C288 1.342 . S
N289 N290 1.388 . S
N290 Co273 1.993 . S
N290 N289 1.388 . S
N290 C291 1.346 . S
C291 N290 1.346 . S
C291 C292 1.396 . S
C291 C301 1.510 . S
C292 C288 1.401 . S
C292 C291 1.396 . S
C293 C288 1.499 . S
C293 H294 0.959 . S
C293 H295 0.960 . S
C293 H296 0.961 . S
H294 C293 0.959 . S
H295 C293 0.960 . S
H296 C293 0.961 . S
O297 Co272 1.967 . S
O297 C305 1.258 . S
O298 Co273 1.941 . S
O298 C305 1.266 . S
H299 C301 0.959 . S
H300 C301 0.961 . S
C301 C291 1.510 . S
C301 H299 0.959 . S
C301 H300 0.961 . S
C301 H302 0.960 . S
H302 C301 0.960 . S
H303 N283 0.862 . S
O304 Co272 1.920 . S
O304 C277 1.289 . S
C305 O297 1.258 . S
C305 O298 1.266 . S
Co306 O309 1.970 . S
Co306 N323 1.989 . S
Co306 O331 1.967 . S
Co306 O338 1.920 . S
Co307 O310 1.966 . S
Co307 N316 2.022 . S
Co307 N324 1.993 . S
Co307 O332 1.941 . S
C308 O309 1.258 . S
C308 O310 1.263 . S
O309 Co306 1.970 . S
O309 C308 1.258 . S
O310 Co307 1.966 . S
O310 C308 1.263 . S
C311 O312 1.235 . S
C311 O338 1.289 . S
O312 C311 1.235 . S
C313 C315 1.400 . S
C313 N316 1.351 . S
C313 C318 1.501 . S
C314 C315 1.387 . S
C314 N317 1.341 . S
C315 C313 1.400 . S
C315 C314 1.387 . S
N316 Co307 2.022 . S
N316 C313 1.351 . S
N316 N317 1.365 . S
N317 C314 1.341 . S
N317 N316 1.365 . S
N317 H337 0.862 . S
C318 C313 1.501 . S
C318 H319 0.961 . S
C318 H320 0.961 . S
C318 H321 0.960 . S
H319 C318 0.961 . S
H320 C318 0.961 . S
H321 C318 0.960 . S
C322 N323 1.342 . S
C322 C326 1.401 . S
C322 C327 1.499 . S
N323 Co306 1.989 . S
N323 C322 1.342 . S
N323 N324 1.388 . S
N324 Co307 1.993 . S
N324 N323 1.388 . S
N324 C325 1.346 . S
C325 N324 1.346 . S
C325 C326 1.396 . S
C325 C335 1.510 . S
C326 C322 1.401 . S
C326 C325 1.396 . S
C327 C322 1.499 . S
C327 H328 0.959 . S
C327 H329 0.960 . S
C327 H330 0.961 . S
H328 C327 0.959 . S
H329 C327 0.960 . S
H330 C327 0.961 . S
O331 Co306 1.967 . S
O331 C339 1.258 . S
O332 Co307 1.941 . S
O332 C339 1.266 . S
H333 C335 0.959 . S
H334 C335 0.961 . S
C335 C325 1.510 . S
C335 H333 0.959 . S
C335 H334 0.961 . S
C335 H336 0.960 . S
H336 C335 0.960 . S
H337 N317 0.862 . S
O338 Co306 1.920 . S
O338 C311 1.289 . S
C339 O331 1.258 . S
C339 O332 1.266 . S
Co340 O343 1.970 . S
Co340 N357 1.989 . S
Co340 O365 1.967 . S
Co340 O372 1.920 . S
Co341 O344 1.966 . S
Co341 N350 2.022 . S
Co341 N358 1.993 . S
Co341 O366 1.941 . S
C342 O343 1.258 . S
C342 O344 1.263 . S
O343 Co340 1.970 . S
O343 C342 1.258 . S
O344 Co341 1.966 . S
O344 C342 1.263 . S
C345 O346 1.235 . S
C345 O372 1.289 . S
O346 C345 1.235 . S
C347 C349 1.400 . S
C347 N350 1.351 . S
C347 C352 1.501 . S
C348 C349 1.387 . S
C348 N351 1.341 . S
C349 C347 1.400 . S
C349 C348 1.387 . S
N350 Co341 2.022 . S
N350 C347 1.351 . S
N350 N351 1.365 . S
N351 C348 1.341 . S
N351 N350 1.365 . S
N351 H371 0.862 . S
C352 C347 1.501 . S
C352 H353 0.961 . S
C352 H354 0.961 . S
C352 H355 0.960 . S
H353 C352 0.961 . S
H354 C352 0.961 . S
H355 C352 0.960 . S
C356 N357 1.342 . S
C356 C360 1.401 . S
C356 C361 1.499 . S
N357 Co340 1.989 . S
N357 C356 1.342 . S
N357 N358 1.388 . S
N358 Co341 1.993 . S
N358 N357 1.388 . S
N358 C359 1.346 . S
C359 N358 1.346 . S
C359 C360 1.396 . S
C359 C369 1.510 . S
C360 C356 1.401 . S
C360 C359 1.396 . S
C361 C356 1.499 . S
C361 H362 0.959 . S
C361 H363 0.960 . S
C361 H364 0.961 . S
H362 C361 0.959 . S
H363 C361 0.960 . S
H364 C361 0.961 . S
O365 Co340 1.967 . S
O365 C373 1.258 . S
O366 Co341 1.941 . S
O366 C373 1.266 . S
H367 C369 0.959 . S
H368 C369 0.961 . S
C369 C359 1.510 . S
C369 H367 0.959 . S
C369 H368 0.961 . S
C369 H370 0.960 . S
H370 C369 0.960 . S
H371 N351 0.862 . S
O372 Co340 1.920 . S
O372 C345 1.289 . S
C373 O365 1.258 . S
C373 O366 1.266 . S
Co374 O377 1.970 . S
Co374 N391 1.989 . S
Co374 O399 1.967 . S
Co374 O406 1.920 . S
Co375 O378 1.966 . S
Co375 N384 2.022 . S
Co375 N392 1.993 . S
Co375 O400 1.941 . S
C376 O377 1.258 . S
C376 O378 1.263 . S
O377 Co374 1.970 . S
O377 C376 1.258 . S
O378 Co375 1.966 . S
O378 C376 1.263 . S
C379 O380 1.235 . S
C379 O406 1.289 . S
O380 C379 1.235 . S
C381 C383 1.400 . S
C381 N384 1.351 . S
C381 C386 1.501 . S
C382 C383 1.387 . S
C382 N385 1.341 . S
C383 C381 1.400 . S
C383 C382 1.387 . S
N384 Co375 2.022 . S
N384 C381 1.351 . S
N384 N385 1.365 . S
N385 C382 1.341 . S
N385 N384 1.365 . S
N385 H405 0.862 . S
C386 C381 1.501 . S
C386 H387 0.961 . S
C386 H388 0.961 . S
C386 H389 0.960 . S
H387 C386 0.961 . S
H388 C386 0.961 . S
H389 C386 0.960 . S
C390 N391 1.342 . S
C390 C394 1.401 . S
C390 C395 1.499 . S
N391 Co374 1.989 . S
N391 C390 1.342 . S
N391 N392 1.388 . S
N392 Co375 1.993 . S
N392 N391 1.388 . S
N392 C393 1.346 . S
C393 N392 1.346 . S
C393 C394 1.396 . S
C393 C403 1.510 . S
C394 C390 1.401 . S
C394 C393 1.396 . S
C395 C390 1.499 . S
C395 H396 0.959 . S
C395 H397 0.960 . S
C395 H398 0.961 . S
H396 C395 0.959 . S
H397 C395 0.960 . S
H398 C395 0.961 . S
O399 Co374 1.967 . S
O399 C407 1.258 . S
O400 Co375 1.941 . S
O400 C407 1.266 . S
H401 C403 0.959 . S
H402 C403 0.961 . S
C403 C393 1.510 . S
C403 H401 0.959 . S
C403 H402 0.961 . S
C403 H404 0.960 . S
H404 C403 0.960 . S
H405 N385 0.862 . S
O406 Co374 1.920 . S
O406 C379 1.289 . S
C407 O399 1.258 . S
C407 O400 1.266 . S
Co408 O411 1.970 . S
Co408 N425 1.989 . S
Co408 O433 1.967 . S
Co408 O440 1.920 . S
Co409 O412 1.966 . S
Co409 N418 2.022 . S
Co409 N426 1.993 . S
Co409 O434 1.941 . S
C410 O411 1.258 . S
C410 O412 1.263 . S
O411 Co408 1.970 . S
O411 C410 1.258 . S
O412 Co409 1.966 . S
O412 C410 1.263 . S
C413 O414 1.235 . S
C413 O440 1.289 . S
O414 C413 1.235 . S
C415 C417 1.400 . S
C415 N418 1.351 . S
C415 C420 1.501 . S
C416 C417 1.387 . S
C416 N419 1.341 . S
C417 C415 1.400 . S
C417 C416 1.387 . S
N418 Co409 2.022 . S
N418 C415 1.351 . S
N418 N419 1.365 . S
N419 C416 1.341 . S
N419 N418 1.365 . S
N419 H439 0.862 . S
C420 C415 1.501 . S
C420 H421 0.961 . S
C420 H422 0.961 . S
C420 H423 0.960 . S
H421 C420 0.961 . S
H422 C420 0.961 . S
H423 C420 0.960 . S
C424 N425 1.342 . S
C424 C428 1.401 . S
C424 C429 1.499 . S
N425 Co408 1.989 . S
N425 C424 1.342 . S
N425 N426 1.388 . S
N426 Co409 1.993 . S
N426 N425 1.388 . S
N426 C427 1.346 . S
C427 N426 1.346 . S
C427 C428 1.396 . S
C427 C437 1.510 . S
C428 C424 1.401 . S
C428 C427 1.396 . S
C429 C424 1.499 . S
C429 H430 0.959 . S
C429 H431 0.960 . S
C429 H432 0.961 . S
H430 C429 0.959 . S
H431 C429 0.960 . S
H432 C429 0.961 . S
O433 Co408 1.967 . S
O433 C441 1.258 . S
O434 Co409 1.941 . S
O434 C441 1.266 . S
H435 C437 0.959 . S
H436 C437 0.961 . S
C437 C427 1.510 . S
C437 H435 0.959 . S
C437 H436 0.961 . S
C437 H438 0.960 . S
H438 C437 0.960 . S
H439 N419 0.862 . S
O440 Co408 1.920 . S
O440 C413 1.289 . S
C441 O433 1.258 . S
C441 O434 1.266 . S
Co442 O445 1.970 . S
Co442 N459 1.989 . S
Co442 O467 1.967 . S
Co442 O474 1.920 . S
Co443 O446 1.966 . S
Co443 N452 2.022 . S
Co443 N460 1.993 . S
Co443 O468 1.941 . S
C444 O445 1.258 . S
C444 O446 1.263 . S
O445 Co442 1.970 . S
O445 C444 1.258 . S
O446 Co443 1.966 . S
O446 C444 1.263 . S
C447 O448 1.235 . S
C447 O474 1.289 . S
O448 C447 1.235 . S
C449 C451 1.400 . S
C449 N452 1.351 . S
C449 C454 1.501 . S
C450 C451 1.387 . S
C450 N453 1.341 . S
C451 C449 1.400 . S
C451 C450 1.387 . S
N452 Co443 2.022 . S
N452 C449 1.351 . S
N452 N453 1.365 . S
N453 C450 1.341 . S
N453 N452 1.365 . S
N453 H473 0.862 . S
C454 C449 1.501 . S
C454 H455 0.961 . S
C454 H456 0.961 . S
C454 H457 0.960 . S
H455 C454 0.961 . S
H456 C454 0.961 . S
H457 C454 0.960 . S
C458 N459 1.342 . S
C458 C462 1.401 . S
C458 C463 1.499 . S
N459 Co442 1.989 . S
N459 C458 1.342 . S
N459 N460 1.388 . S
N460 Co443 1.993 . S
N460 N459 1.388 . S
N460 C461 1.346 . S
C461 N460 1.346 . S
C461 C462 1.396 . S
C461 C471 1.510 . S
C462 C458 1.401 . S
C462 C461 1.396 . S
C463 C458 1.499 . S
C463 H464 0.959 . S
C463 H465 0.960 . S
C463 H466 0.961 . S
H464 C463 0.959 . S
H465 C463 0.960 . S
H466 C463 0.961 . S
O467 Co442 1.967 . S
O467 C475 1.258 . S
O468 Co443 1.941 . S
O468 C475 1.266 . S
H469 C471 0.959 . S
H470 C471 0.961 . S
C471 C461 1.510 . S
C471 H469 0.959 . S
C471 H470 0.961 . S
C471 H472 0.960 . S
H472 C471 0.960 . S
H473 N453 0.862 . S
O474 Co442 1.920 . S
O474 C447 1.289 . S
C475 O467 1.258 . S
C475 O468 1.266 . S
Co476 O479 1.970 . S
Co476 N493 1.989 . S
Co476 O501 1.967 . S
Co476 O508 1.920 . S
Co477 O480 1.966 . S
Co477 N486 2.022 . S
Co477 N494 1.993 . S
Co477 O502 1.941 . S
C478 O479 1.258 . S
C478 O480 1.263 . S
O479 Co476 1.970 . S
O479 C478 1.258 . S
O480 Co477 1.966 . S
O480 C478 1.263 . S
C481 O482 1.235 . S
C481 O508 1.289 . S
O482 C481 1.235 . S
C483 C485 1.400 . S
C483 N486 1.351 . S
C483 C488 1.501 . S
C484 C485 1.387 . S
C484 N487 1.341 . S
C485 C483 1.400 . S
C485 C484 1.387 . S
N486 Co477 2.022 . S
N486 C483 1.351 . S
N486 N487 1.365 . S
N487 C484 1.341 . S
N487 N486 1.365 . S
N487 H507 0.862 . S
C488 C483 1.501 . S
C488 H489 0.961 . S
C488 H490 0.961 . S
C488 H491 0.960 . S
H489 C488 0.961 . S
H490 C488 0.961 . S
H491 C488 0.960 . S
C492 N493 1.342 . S
C492 C496 1.401 . S
C492 C497 1.499 . S
N493 Co476 1.989 . S
N493 C492 1.342 . S
N493 N494 1.388 . S
N494 Co477 1.993 . S
N494 N493 1.388 . S
N494 C495 1.346 . S
C495 N494 1.346 . S
C495 C496 1.396 . S
C495 C505 1.510 . S
C496 C492 1.401 . S
C496 C495 1.396 . S
C497 C492 1.499 . S
C497 H498 0.959 . S
C497 H499 0.960 . S
C497 H500 0.961 . S
H498 C497 0.959 . S
H499 C497 0.960 . S
H500 C497 0.961 . S
O501 Co476 1.967 . S
O501 C509 1.258 . S
O502 Co477 1.941 . S
O502 C509 1.266 . S
H503 C505 0.959 . S
H504 C505 0.961 . S
C505 C495 1.510 . S
C505 H503 0.959 . S
C505 H504 0.961 . S
C505 H506 0.960 . S
H506 C505 0.960 . S
H507 N487 0.862 . S
O508 Co476 1.920 . S
O508 C481 1.289 . S
C509 O501 1.258 . S
C509 O502 1.266 . S
Co510 O513 1.970 . S
Co510 N527 1.989 . S
Co510 O535 1.967 . S
Co510 O542 1.920 . S
Co511 O514 1.966 . S
Co511 N520 2.022 . S
Co511 N528 1.993 . S
Co511 O536 1.941 . S
C512 O513 1.258 . S
C512 O514 1.263 . S
O513 Co510 1.970 . S
O513 C512 1.258 . S
O514 Co511 1.966 . S
O514 C512 1.263 . S
C515 O516 1.235 . S
C515 O542 1.289 . S
O516 C515 1.235 . S
C517 C519 1.400 . S
C517 N520 1.351 . S
C517 C522 1.501 . S
C518 C519 1.387 . S
C518 N521 1.341 . S
C519 C517 1.400 . S
C519 C518 1.387 . S
N520 Co511 2.022 . S
N520 C517 1.351 . S
N520 N521 1.365 . S
N521 C518 1.341 . S
N521 N520 1.365 . S
N521 H541 0.862 . S
C522 C517 1.501 . S
C522 H523 0.961 . S
C522 H524 0.961 . S
C522 H525 0.960 . S
H523 C522 0.961 . S
H524 C522 0.961 . S
H525 C522 0.960 . S
C526 N527 1.342 . S
C526 C530 1.401 . S
C526 C531 1.499 . S
N527 Co510 1.989 . S
N527 C526 1.342 . S
N527 N528 1.388 . S
N528 Co511 1.993 . S
N528 N527 1.388 . S
N528 C529 1.346 . S
C529 N528 1.346 . S
C529 C530 1.396 . S
C529 C539 1.510 . S
C530 C526 1.401 . S
C530 C529 1.396 . S
C531 C526 1.499 . S
C531 H532 0.959 . S
C531 H533 0.960 . S
C531 H534 0.961 . S
H532 C531 0.959 . S
H533 C531 0.960 . S
H534 C531 0.961 . S
O535 Co510 1.967 . S
O535 C543 1.258 . S
O536 Co511 1.941 . S
O536 C543 1.266 . S
H537 C539 0.959 . S
H538 C539 0.961 . S
C539 C529 1.510 . S
C539 H537 0.959 . S
C539 H538 0.961 . S
C539 H540 0.960 . S
H540 C539 0.960 . S
H541 N521 0.862 . S
O542 Co510 1.920 . S
O542 C515 1.289 . S
C543 O535 1.258 . S
C543 O536 1.266 . S
H544 C552 0.950 . S
H545 C557 0.950 . S
H546 C554 0.950 . S
H547 C556 0.950 . S
H548 C558 0.950 . S
H549 C560 0.950 . S
H550 C562 0.950 . S
H551 C563 0.950 . S
C552 H544 0.950 . S
C552 C553 1.386 . S
C552 C554 1.391 . S
C553 C552 1.386 . S
C553 C557 1.393 . S
C554 H546 0.950 . S
C554 C552 1.391 . S
C554 C555 1.400 . S
C555 C554 1.400 . S
C555 C556 1.398 . S
C555 C561 1.491 . S
C556 H547 0.950 . S
C556 C555 1.398 . S
C556 C557 1.391 . S
C557 H545 0.950 . S
C557 C553 1.393 . S
C557 C556 1.391 . S
C558 H548 0.950 . S
C558 C559 1.386 . S
C558 C560 1.391 . S
C559 C558 1.386 . S
C559 C563 1.393 . S
C560 H549 0.950 . S
C560 C558 1.391 . S
C560 C561 1.400 . S
C561 C555 1.491 . S
C561 C560 1.400 . S
C561 C562 1.398 . S
C562 H550 0.950 . S
C562 C561 1.398 . S
C562 C563 1.391 . S
C563 H551 0.950 . S
C563 C559 1.393 . S
C563 C562 1.391 . S
H564 C572 0.950 . S
H565 C577 0.950 1_565 S
H566 C574 0.950 1_455 S
H567 C576 0.950 . S
H568 C578 0.950 . S
H569 C580 0.950 1_655 S
H570 C582 0.964 . S
H571 C583 0.950 . S
C572 H564 0.950 . S
C572 C573 1.386 . S
C572 C574 1.391 . S
C573 C572 1.386 . S
C573 C577 1.393 . S
C574 H566 0.950 1_655 S
C574 C572 1.391 . S
C574 C575 1.400 1_545 S
C575 C574 1.400 1_565 S
C575 C576 1.398 . S
C575 C581 1.491 1_655 S
C576 H567 0.950 . S
C576 C575 1.398 . S
C576 C577 1.391 1_565 S
C577 H565 0.950 1_545 S
C577 C573 1.393 . S
C577 C576 1.391 1_545 S
C578 H568 0.950 . S
C578 C579 1.386 . S
C578 C580 1.391 . S
C579 C578 1.386 . S
C579 C583 1.393 . S
C580 H569 0.950 1_455 S
C580 C578 1.391 . S
C580 C581 1.400 . S
C581 C575 1.491 1_455 S
C581 C580 1.400 . S
C581 C582 1.398 . S
C582 H570 0.964 . S
C582 C581 1.398 . S
C582 C583 1.391 . S
C583 H571 0.950 . S
C583 C579 1.393 . S
C583 C582 1.391 . S
H584 C592 0.950 . S
H585 C597 0.950 . S
H586 C594 0.950 . S
H587 C596 0.950 . S
H588 C598 0.950 . S
H589 C600 0.950 . S
H590 C602 0.950 . S
H591 C603 0.950 . S
C592 H584 0.950 . S
C592 C593 1.386 . S
C592 C594 1.391 . S
C593 C592 1.386 . S
C593 C597 1.393 . S
C594 H586 0.950 . S
C594 C592 1.391 . S
C594 C595 1.400 . S
C595 C594 1.400 . S
C595 C596 1.398 . S
C595 C601 1.491 . S
C596 H587 0.950 . S
C596 C595 1.398 . S
C596 C597 1.391 . S
C597 H585 0.950 . S
C597 C593 1.393 . S
C597 C596 1.391 . S
C598 H588 0.950 . S
C598 C599 1.386 . S
C598 C600 1.391 . S
C599 C598 1.386 . S
C599 C603 1.393 . S
C600 H589 0.950 . S
C600 C598 1.391 . S
C600 C601 1.400 . S
C601 C595 1.491 . S
C601 C600 1.400 . S
C601 C602 1.398 . S
C602 H590 0.950 . S
C602 C601 1.398 . S
C602 C603 1.391 . S
C603 H591 0.950 . S
C603 C599 1.393 . S
C603 C602 1.391 . S
H604 C612 0.950 . S
H605 C617 0.950 . S
H606 C614 0.950 . S
H607 C616 0.950 . S
H608 C618 0.950 . S
H609 C620 0.950 1_545 S
H610 C622 0.950 . S
H611 C623 0.950 . S
C612 H604 0.950 . S
C612 C613 1.386 1_565 S
C612 C614 1.391 . S
C613 C612 1.386 1_545 S
C613 C617 1.393 . S
C614 H606 0.950 . S
C614 C612 1.391 . S
C614 C615 1.400 1_556 S
C615 C614 1.400 1_554 S
C615 C616 1.398 1_565 S
C615 C621 1.491 . S
C616 H607 0.950 . S
C616 C615 1.398 1_545 S
C616 C617 1.391 1_554 S
C617 H605 0.950 . S
C617 C613 1.393 . S
C617 C616 1.391 1_556 S
C618 H608 0.950 . S
C618 C619 1.386 . S
C618 C620 1.391 . S
C619 C618 1.386 . S
C619 C623 1.393 . S
C620 H609 0.950 1_565 S
C620 C618 1.391 . S
C620 C621 1.400 . S
C621 C615 1.491 . S
C621 C620 1.400 . S
C621 C622 1.398 . S
C622 H610 0.950 . S
C622 C621 1.398 . S
C622 C623 1.391 . S
C623 H611 0.950 . S
C623 C619 1.393 . S
C623 C622 1.391 . S
H624 C632 0.950 . S
H625 C637 0.950 . S
H626 C634 0.950 . S
H627 C636 0.950 . S
H628 C638 0.950 . S
H629 C640 0.950 . S
H630 C642 0.950 . S
H631 C643 0.950 . S
C632 H624 0.950 . S
C632 C633 1.386 . S
C632 C634 1.391 . S
C633 C632 1.386 . S
C633 C637 1.393 . S
C634 H626 0.950 . S
C634 C632 1.391 . S
C634 C635 1.400 . S
C635 C634 1.400 . S
C635 C636 1.398 . S
C635 C641 1.491 . S
C636 H627 0.950 . S
C636 C635 1.398 . S
C636 C637 1.391 . S
C637 H625 0.950 . S
C637 C633 1.393 . S
C637 C636 1.391 . S
C638 H628 0.950 . S
C638 C639 1.386 . S
C638 C640 1.391 . S
C639 C638 1.386 . S
C639 C643 1.393 . S
C640 H629 0.950 . S
C640 C638 1.391 . S
C640 C641 1.400 . S
C641 C635 1.491 . S
C641 C640 1.400 . S
C641 C642 1.398 . S
C642 H630 0.950 . S
C642 C641 1.398 . S
C642 C643 1.391 . S
C643 H631 0.950 . S
C643 C639 1.393 . S
C643 C642 1.391 . S
H644 C652 0.950 . S
H645 C657 0.950 . S
H646 C654 0.950 . S
H647 C656 0.950 . S
H648 C658 0.950 . S
H649 C660 0.950 1_565 S
H650 C662 0.950 . S
H651 C663 0.950 . S
C652 H644 0.950 . S
C652 C653 1.386 1_545 S
C652 C654 1.391 . S
C653 C652 1.386 1_565 S
C653 C657 1.393 . S
C654 H646 0.950 . S
C654 C652 1.391 . S
C654 C655 1.400 . S
C655 C654 1.400 . S
C655 C656 1.398 1_545 S
C655 C661 1.491 . S
C656 H647 0.950 . S
C656 C655 1.398 1_565 S
C656 C657 1.391 . S
C657 H645 0.950 . S
C657 C653 1.393 . S
C657 C656 1.391 . S
C658 H648 0.950 . S
C658 C659 1.386 . S
C658 C660 1.391 . S
C659 C658 1.386 . S
C659 C663 1.393 . S
C660 H649 0.950 1_545 S
C660 C658 1.391 . S
C660 C661 1.400 . S
C661 C655 1.491 . S
C661 C660 1.400 . S
C661 C662 1.398 . S
C662 H650 0.950 . S
C662 C661 1.398 . S
C662 C663 1.391 . S
C663 H651 0.950 . S
C663 C659 1.393 . S
C663 C662 1.391 . S
H664 C672 0.950 . S
H665 C677 0.950 . S
H666 C674 0.950 . S
H667 C676 0.950 . S
H668 C678 0.950 . S
H669 C680 0.950 . S
H670 C682 0.950 . S
H671 C683 0.950 . S
C672 H664 0.950 . S
C672 C673 1.386 . S
C672 C674 1.391 . S
C673 C672 1.386 . S
C673 C677 1.393 . S
C674 H666 0.950 . S
C674 C672 1.391 . S
C674 C675 1.400 . S
C675 C674 1.400 . S
C675 C676 1.398 . S
C675 C681 1.491 . S
C676 H667 0.950 . S
C676 C675 1.398 . S
C676 C677 1.391 . S
C677 H665 0.950 . S
C677 C673 1.393 . S
C677 C676 1.391 . S
C678 H668 0.950 . S
C678 C679 1.386 . S
C678 C680 1.391 . S
C679 C678 1.386 . S
C679 C683 1.393 . S
C680 H669 0.950 . S
C680 C678 1.391 . S
C680 C681 1.400 . S
C681 C675 1.491 . S
C681 C680 1.400 . S
C681 C682 1.398 . S
C682 H670 0.950 . S
C682 C681 1.398 . S
C682 C683 1.391 . S
C683 H671 0.950 . S
C683 C679 1.393 . S
C683 C682 1.391 . S
H684 C692 0.950 . S
H685 C697 0.950 . S
H686 C694 0.950 1_565 S
H687 C696 0.950 1_556 S
H688 C698 0.950 1_545 S
H689 C700 0.950 1_455 S
H690 C702 0.950 . S
H691 C703 0.950 . S
C692 H684 0.950 . S
C692 C693 1.386 . S
C692 C694 1.391 . S
C693 C692 1.386 . S
C693 C697 1.393 . S
C694 H686 0.950 1_545 S
C694 C692 1.391 . S
C694 C695 1.400 . S
C695 C694 1.400 . S
C695 C696 1.398 . S
C695 C701 1.491 1_554 S
C696 H687 0.950 1_554 S
C696 C695 1.398 . S
C696 C697 1.391 . S
C697 H685 0.950 . S
C697 C693 1.393 . S
C697 C696 1.391 . S
C698 H688 0.950 1_565 S
C698 C699 1.386 . S
C698 C700 1.391 1_565 S
C699 C698 1.386 . S
C699 C703 1.393 . S
C700 H689 0.950 1_655 S
C700 C698 1.391 1_545 S
C700 C701 1.400 1_655 S
C701 C695 1.491 1_556 S
C701 C700 1.400 1_455 S
C701 C702 1.398 1_546 S
C702 H690 0.950 . S
C702 C701 1.398 1_564 S
C702 C703 1.391 1_454 S
C703 H691 0.950 . S
C703 C699 1.393 . S
C703 C702 1.391 1_656 S
H704 C712 0.950 . S
H705 C717 0.950 . S
H706 C714 0.950 . S
H707 C716 0.950 . S
H708 C718 0.950 . S
H709 C720 0.950 . S
H710 C722 0.950 . S
H711 C723 0.950 . S
C712 H704 0.950 . S
C712 C713 1.386 . S
C712 C714 1.391 . S
C713 C712 1.386 . S
C713 C717 1.393 . S
C714 H706 0.950 . S
C714 C712 1.391 . S
C714 C715 1.400 . S
C715 C714 1.400 . S
C715 C716 1.398 . S
C715 C721 1.491 . S
C716 H707 0.950 . S
C716 C715 1.398 . S
C716 C717 1.391 . S
C717 H705 0.950 . S
C717 C713 1.393 . S
C717 C716 1.391 . S
C718 H708 0.950 . S
C718 C719 1.386 . S
C718 C720 1.391 . S
C719 C718 1.386 . S
C719 C723 1.393 . S
C720 H709 0.950 . S
C720 C718 1.391 . S
C720 C721 1.400 . S
C721 C715 1.491 . S
C721 C720 1.400 . S
C721 C722 1.398 . S
C722 H710 0.950 . S
C722 C721 1.398 . S
C722 C723 1.391 . S
C723 H711 0.950 . S
C723 C719 1.393 . S
C723 C722 1.391 . S
H724 C732 0.950 . S
H725 C737 0.949 . S
H726 C734 0.950 . S
H727 C736 0.950 . S
H728 C738 0.950 . S
H729 C740 0.950 1_455 S
H730 C742 0.950 . S
H731 C743 0.950 . S
C732 H724 0.950 . S
C732 C733 1.386 . S
C732 C734 1.391 . S
C733 C732 1.386 . S
C733 C737 1.393 . S
C734 H726 0.950 . S
C734 C732 1.391 . S
C734 C735 1.400 . S
C735 C734 1.400 . S
C735 C736 1.398 1_556 S
C735 C741 1.491 1_456 S
C736 H727 0.950 . S
C736 C735 1.398 1_554 S
C736 C737 1.391 1_554 S
C737 H725 0.949 . S
C737 C733 1.393 . S
C737 C736 1.391 1_556 S
C738 H728 0.950 . S
C738 C739 1.386 . S
C738 C740 1.391 . S
C739 C738 1.386 . S
C739 C743 1.393 1_554 S
C740 H729 0.950 1_655 S
C740 C738 1.391 . S
C740 C741 1.400 . S
C741 C735 1.491 1_654 S
C741 C740 1.400 . S
C741 C742 1.398 1_554 S
C742 H730 0.950 . S
C742 C741 1.398 1_556 S
C742 C743 1.391 . S
C743 H731 0.950 . S
C743 C739 1.393 1_556 S
C743 C742 1.391 . S
H744 C752 0.950 . S
H745 C757 0.950 . S
H746 C754 0.950 . S
H747 C756 0.950 . S
H748 C758 0.950 . S
H749 C760 0.950 . S
H750 C762 0.950 . S
H751 C763 0.950 . S
C752 H744 0.950 . S
C752 C753 1.386 . S
C752 C754 1.391 . S
C753 C752 1.386 . S
C753 C757 1.393 . S
C754 H746 0.950 . S
C754 C752 1.391 . S
C754 C755 1.400 . S
C755 C754 1.400 . S
C755 C756 1.398 . S
C755 C761 1.491 . S
C756 H747 0.950 . S
C756 C755 1.398 . S
C756 C757 1.391 . S
C757 H745 0.950 . S
C757 C753 1.393 . S
C757 C756 1.391 . S
C758 H748 0.950 . S
C758 C759 1.386 . S
C758 C760 1.391 . S
C759 C758 1.386 . S
C759 C763 1.393 . S
C760 H749 0.950 . S
C760 C758 1.391 . S
C760 C761 1.400 . S
C761 C755 1.491 . S
C761 C760 1.400 . S
C761 C762 1.398 . S
C762 H750 0.950 . S
C762 C761 1.398 . S
C762 C763 1.391 . S
C763 H751 0.950 . S
C763 C759 1.393 . S
C763 C762 1.391 . S
H764 C772 0.950 . S
H765 C777 0.950 . S
H766 C774 0.950 1_455 S
H767 C776 0.950 . S
H768 C778 0.950 . S
H769 C780 0.950 . S
H770 C782 0.950 . S
H771 C783 0.950 . S
C772 H764 0.950 . S
C772 C773 1.386 . S
C772 C774 1.391 . S
C773 C772 1.386 . S
C773 C777 1.393 . S
C774 H766 0.950 1_655 S
C774 C772 1.391 . S
C774 C775 1.400 . S
C775 C774 1.400 . S
C775 C776 1.398 . S
C775 C781 1.491 1_655 S
C776 H767 0.950 . S
C776 C775 1.398 . S
C776 C777 1.391 . S
C777 H765 0.950 . S
C777 C773 1.393 . S
C777 C776 1.391 . S
C778 H768 0.950 . S
C778 C779 1.386 . S
C778 C780 1.391 1_455 S
C779 C778 1.386 . S
C779 C783 1.393 . S
C780 H769 0.950 . S
C780 C778 1.391 1_655 S
C780 C781 1.400 1_655 S
C781 C775 1.491 1_455 S
C781 C780 1.400 1_455 S
C781 C782 1.398 . S
C782 H770 0.950 . S
C782 C781 1.398 . S
C782 C783 1.391 . S
C783 H771 0.950 . S
C783 C779 1.393 . S
C783 C782 1.391 . S
H784 C792 0.950 . S
H785 C797 0.950 . S
H786 C794 0.950 . S
H787 C796 0.950 . S
H788 C798 0.950 . S
H789 C800 0.950 . S
H790 C802 0.950 . S
H791 C803 0.950 . S
C792 H784 0.950 . S
C792 C793 1.386 . S
C792 C794 1.391 . S
C793 C792 1.386 . S
C793 C797 1.393 . S
C794 H786 0.950 . S
C794 C792 1.391 . S
C794 C795 1.400 . S
C795 C794 1.400 . S
C795 C796 1.398 . S
C795 C801 1.491 . S
C796 H787 0.950 . S
C796 C795 1.398 . S
C796 C797 1.391 . S
C797 H785 0.950 . S
C797 C793 1.393 . S
C797 C796 1.391 . S
C798 H788 0.950 . S
C798 C799 1.386 . S
C798 C800 1.391 . S
C799 C798 1.386 . S
C799 C803 1.393 . S
C800 H789 0.950 . S
C800 C798 1.391 . S
C800 C801 1.400 1_554 S
C801 C795 1.491 . S
C801 C800 1.400 1_556 S
C801 C802 1.398 . S
C802 H790 0.950 . S
C802 C801 1.398 . S
C802 C803 1.391 1_556 S
C803 H791 0.950 . S
C803 C799 1.393 . S
C803 C802 1.391 1_554 S
H804 C812 0.950 . S
H805 C817 0.950 . S
H806 C814 0.950 . S
H807 C816 0.950 . S
H808 C818 0.950 . S
H809 C820 0.950 . S
H810 C822 0.950 . S
H811 C823 0.950 . S
C812 H804 0.950 . S
C812 C813 1.386 . S
C812 C814 1.391 . S
C813 C812 1.386 . S
C813 C817 1.393 . S
C814 H806 0.950 . S
C814 C812 1.391 . S
C814 C815 1.400 . S
C815 C814 1.400 . S
C815 C816 1.398 . S
C815 C821 1.491 . S
C816 H807 0.950 . S
C816 C815 1.398 . S
C816 C817 1.391 . S
C817 H805 0.950 . S
C817 C813 1.393 . S
C817 C816 1.391 . S
C818 H808 0.950 . S
C818 C819 1.386 . S
C818 C820 1.391 . S
C819 C818 1.386 . S
C819 C823 1.393 . S
C820 H809 0.950 . S
C820 C818 1.391 . S
C820 C821 1.400 . S
C821 C815 1.491 . S
C821 C820 1.400 . S
C821 C822 1.398 . S
C822 H810 0.950 . S
C822 C821 1.398 . S
C822 C823 1.391 . S
C823 H811 0.950 . S
C823 C819 1.393 . S
C823 C822 1.391 . S
H824 C832 0.950 . S
H825 C837 0.950 . S
H826 C834 0.950 . S
H827 C836 0.950 . S
H828 C838 0.950 . S
H829 C840 0.950 . S
H830 C842 0.950 . S
H831 C843 0.950 . S
C832 H824 0.950 . S
C832 C833 1.386 . S
C832 C834 1.391 . S
C833 C832 1.386 . S
C833 C837 1.393 . S
C834 H826 0.950 . S
C834 C832 1.391 . S
C834 C835 1.400 . S
C835 C834 1.400 . S
C835 C836 1.398 . S
C835 C841 1.491 . S
C836 H827 0.950 . S
C836 C835 1.398 . S
C836 C837 1.391 . S
C837 H825 0.950 . S
C837 C833 1.393 . S
C837 C836 1.391 . S
C838 H828 0.950 . S
C838 C839 1.386 . S
C838 C840 1.391 . S
C839 C838 1.386 . S
C839 C843 1.393 . S
C840 H829 0.950 . S
C840 C838 1.391 . S
C840 C841 1.400 . S
C841 C835 1.491 . S
C841 C840 1.400 . S
C841 C842 1.398 . S
C842 H830 0.950 . S
C842 C841 1.398 . S
C842 C843 1.391 . S
C843 H831 0.950 . S
C843 C839 1.393 . S
C843 C842 1.391 . S
H844 C852 0.950 . S
H845 C857 0.950 . S
H846 C854 0.950 . S
H847 C856 0.950 . S
H848 C858 0.950 . S
H849 C860 0.950 . S
H850 C862 0.950 . S
H851 C863 0.950 . S
C852 H844 0.950 . S
C852 C853 1.386 . S
C852 C854 1.391 . S
C853 C852 1.386 . S
C853 C857 1.393 . S
C854 H846 0.950 . S
C854 C852 1.391 . S
C854 C855 1.400 . S
C855 C854 1.400 . S
C855 C856 1.398 . S
C855 C861 1.491 . S
C856 H847 0.950 . S
C856 C855 1.398 . S
C856 C857 1.391 . S
C857 H845 0.950 . S
C857 C853 1.393 . S
C857 C856 1.391 . S
C858 H848 0.950 . S
C858 C859 1.386 . S
C858 C860 1.391 . S
C859 C858 1.386 . S
C859 C863 1.393 . S
C860 H849 0.950 . S
C860 C858 1.391 . S
C860 C861 1.400 . S
C861 C855 1.491 . S
C861 C860 1.400 . S
C861 C862 1.398 . S
C862 H850 0.950 . S
C862 C861 1.398 . S
C862 C863 1.391 . S
C863 H851 0.950 . S
C863 C859 1.393 . S
C863 C862 1.391 . S
H864 C872 0.950 . S
H865 C877 0.950 . S
H866 C874 0.950 . S
H867 C876 0.950 . S
H868 C878 0.950 . S
H869 C880 0.950 . S
H870 C882 0.950 1_545 S
H871 C883 0.950 . S
C872 H864 0.950 . S
C872 C873 1.386 . S
C872 C874 1.391 . S
C873 C872 1.386 . S
C873 C877 1.393 . S
C874 H866 0.950 . S
C874 C872 1.391 . S
C874 C875 1.400 . S
C875 C874 1.400 . S
C875 C876 1.398 . S
C875 C881 1.491 1_545 S
C876 H867 0.950 . S
C876 C875 1.398 . S
C876 C877 1.391 . S
C877 H865 0.950 . S
C877 C873 1.393 . S
C877 C876 1.391 . S
C878 H868 0.950 . S
C878 C879 1.386 . S
C878 C880 1.391 . S
C879 C878 1.386 . S
C879 C883 1.393 . S
C880 H869 0.950 . S
C880 C878 1.391 . S
C880 C881 1.400 . S
C881 C875 1.491 1_565 S
C881 C880 1.400 . S
C881 C882 1.398 . S
C882 H870 0.950 1_565 S
C882 C881 1.398 . S
C882 C883 1.391 . S
C883 H871 0.950 . S
C883 C879 1.393 . S
C883 C882 1.391 . S
H884 C892 0.950 . S
H885 C897 0.950 . S
H886 C894 0.950 . S
H887 C896 0.950 . S
H888 C898 0.950 . S
H889 C900 0.950 . S
H890 C902 0.950 . S
H891 C903 0.950 . S
C892 H884 0.950 . S
C892 C893 1.386 . S
C892 C894 1.391 . S
C893 C892 1.386 . S
C893 C897 1.393 . S
C894 H886 0.950 . S
C894 C892 1.391 . S
C894 C895 1.400 . S
C895 C894 1.400 . S
C895 C896 1.398 . S
C895 C901 1.491 . S
C896 H887 0.950 . S
C896 C895 1.398 . S
C896 C897 1.391 . S
C897 H885 0.950 . S
C897 C893 1.393 . S
C897 C896 1.391 . S
C898 H888 0.950 . S
C898 C899 1.386 . S
C898 C900 1.391 . S
C899 C898 1.386 . S
C899 C903 1.393 . S
C900 H889 0.950 . S
C900 C898 1.391 . S
C900 C901 1.400 . S
C901 C895 1.491 . S
C901 C900 1.400 . S
C901 C902 1.398 . S
C902 H890 0.950 . S
C902 C901 1.398 . S
C902 C903 1.391 . S
C903 H891 0.950 . S
C903 C899 1.393 . S
C903 C902 1.391 . S
H904 C912 0.950 . S
H905 C917 0.950 . S
H906 C914 0.950 . S
H907 C916 0.950 . S
H908 C918 0.950 . S
H909 C920 0.950 . S
H910 C922 0.950 . S
H911 C923 0.950 . S
C912 H904 0.950 . S
C912 C913 1.386 . S
C912 C914 1.391 . S
C913 C912 1.386 . S
C913 C917 1.393 . S
C914 H906 0.950 . S
C914 C912 1.391 . S
C914 C915 1.400 1_565 S
C915 C914 1.400 1_545 S
C915 C916 1.398 . S
C915 C921 1.491 . S
C916 H907 0.950 . S
C916 C915 1.398 . S
C916 C917 1.391 1_545 S
C917 H905 0.950 . S
C917 C913 1.393 . S
C917 C916 1.391 1_565 S
C918 H908 0.950 . S
C918 C919 1.386 . S
C918 C920 1.391 . S
C919 C918 1.386 . S
C919 C923 1.393 . S
C920 H909 0.950 . S
C920 C918 1.391 . S
C920 C921 1.400 . S
C921 C915 1.491 . S
C921 C920 1.400 . S
C921 C922 1.398 . S
C922 H910 0.950 . S
C922 C921 1.398 . S
C922 C923 1.391 . S
C923 H911 0.950 . S
C923 C919 1.393 . S
C923 C922 1.391 . S
H924 C932 0.950 . S
H925 C937 0.950 . S
H926 C934 0.950 . S
H927 C936 0.950 1_554 S
H928 C938 0.950 . S
H929 C940 0.950 . S
H930 C942 0.950 . S
H931 C943 0.950 . S
C932 H924 0.950 . S
C932 C933 1.386 . S
C932 C934 1.391 . S
C933 C932 1.386 . S
C933 C937 1.393 . S
C934 H926 0.950 . S
C934 C932 1.391 . S
C934 C935 1.400 1_556 S
C935 C934 1.400 1_554 S
C935 C936 1.398 1_554 S
C935 C941 1.491 . S
C936 H927 0.950 1_556 S
C936 C935 1.398 1_556 S
C936 C937 1.391 . S
C937 H925 0.950 . S
C937 C933 1.393 . S
C937 C936 1.391 . S
C938 H928 0.950 . S
C938 C939 1.386 . S
C938 C940 1.391 . S
C939 C938 1.386 . S
C939 C943 1.393 . S
C940 H929 0.950 . S
C940 C938 1.391 . S
C940 C941 1.400 . S
C941 C935 1.491 . S
C941 C940 1.400 . S
C941 C942 1.398 . S
C942 H930 0.950 . S
C942 C941 1.398 . S
C942 C943 1.391 . S
C943 H931 0.950 . S
C943 C939 1.393 . S
C943 C942 1.391 . S
H944 C952 0.950 . S
H945 C957 0.950 . S
H946 C954 0.950 . S
H947 C956 0.950 1_655 S
H948 C958 0.950 . S
H949 C960 0.950 . S
H950 C962 0.950 . S
H951 C963 0.950 . S
C952 H944 0.950 . S
C952 C953 1.386 . S
C952 C954 1.391 . S
C953 C952 1.386 . S
C953 C957 1.393 . S
C954 H946 0.950 . S
C954 C952 1.391 . S
C954 C955 1.400 . S
C955 C954 1.400 . S
C955 C956 1.398 . S
C955 C961 1.491 1_455 S
C956 H947 0.950 1_455 S
C956 C955 1.398 . S
C956 C957 1.391 . S
C957 H945 0.950 . S
C957 C953 1.393 . S
C957 C956 1.391 . S
C958 H948 0.950 . S
C958 C959 1.386 . S
C958 C960 1.391 . S
C959 C958 1.386 . S
C959 C963 1.393 . S
C960 H949 0.950 . S
C960 C958 1.391 . S
C960 C961 1.400 . S
C961 C955 1.491 1_655 S
C961 C960 1.400 . S
C961 C962 1.398 1_655 S
C962 H950 0.950 . S
C962 C961 1.398 1_455 S
C962 C963 1.391 1_455 S
C963 H951 0.950 . S
C963 C959 1.393 . S
C963 C962 1.391 1_655 S
H964 C972 0.950 . S
H965 C977 0.950 . S
H966 C974 0.950 . S
H967 C976 0.950 . S
H968 C978 0.950 . S
H969 C980 0.950 . S
H970 C982 0.950 . S
H971 C983 0.950 . S
C972 H964 0.950 . S
C972 C973 1.386 . S
C972 C974 1.391 . S
C973 C972 1.386 . S
C973 C977 1.393 . S
C974 H966 0.950 . S
C974 C972 1.391 . S
C974 C975 1.400 . S
C975 C974 1.400 . S
C975 C976 1.398 . S
C975 C981 1.491 . S
C976 H967 0.950 . S
C976 C975 1.398 . S
C976 C977 1.391 . S
C977 H965 0.950 . S
C977 C973 1.393 . S
C977 C976 1.391 . S
C978 H968 0.950 . S
C978 C979 1.386 . S
C978 C980 1.391 . S
C979 C978 1.386 . S
C979 C983 1.393 . S
C980 H969 0.950 . S
C980 C978 1.391 . S
C980 C981 1.400 . S
C981 C975 1.491 . S
C981 C980 1.400 . S
C981 C982 1.398 . S
C982 H970 0.950 . S
C982 C981 1.398 . S
C982 C983 1.391 . S
C983 H971 0.950 . S
C983 C979 1.393 . S
C983 C982 1.391 . S
H984 C992 0.950 . S
H985 C997 0.950 . S
H986 C994 0.950 . S
H987 C996 0.950 . S
H988 C998 0.950 . S
H989 C1000 0.950 . S
H990 C1002 0.950 . S
H991 C1003 0.950 . S
C992 H984 0.950 . S
C992 C993 1.386 . S
C992 C994 1.391 . S
C993 C992 1.386 . S
C993 C997 1.393 . S
C994 H986 0.950 . S
C994 C992 1.391 . S
C994 C995 1.400 . S
C995 C994 1.400 . S
C995 C996 1.398 . S
C995 C1001 1.491 1_655 S
C996 H987 0.950 . S
C996 C995 1.398 . S
C996 C997 1.391 . S
C997 H985 0.950 . S
C997 C993 1.393 . S
C997 C996 1.391 . S
C998 H988 0.950 . S
C998 C999 1.386 . S
C998 C1000 1.391 . S
C999 C998 1.386 . S
C999 C1003 1.393 . S
C1000 H989 0.950 . S
C1000 C998 1.391 . S
C1000 C1001 1.400 . S
C1001 C995 1.491 1_455 S
C1001 C1000 1.400 . S
C1001 C1002 1.398 . S
C1002 H990 0.950 . S
C1002 C1001 1.398 . S
C1002 C1003 1.391 . S
C1003 H991 0.950 . S
C1003 C999 1.393 . S
C1003 C1002 1.391 . S
H1004 C1012 0.950 . S
H1005 C1017 0.950 . S
H1006 C1014 0.950 . S
H1007 C1016 0.950 . S
H1008 C1018 0.950 . S
H1009 C1020 0.950 . S
H1010 C1022 0.950 . S
H1011 C1023 0.950 . S
C1012 H1004 0.950 . S
C1012 C1013 1.386 . S
C1012 C1014 1.391 . S
C1013 C1012 1.386 . S
C1013 C1017 1.393 . S
C1014 H1006 0.950 . S
C1014 C1012 1.391 . S
C1014 C1015 1.400 . S
C1015 C1014 1.400 . S
C1015 C1016 1.398 . S
C1015 C1021 1.491 . S
C1016 H1007 0.950 . S
C1016 C1015 1.398 . S
C1016 C1017 1.391 . S
C1017 H1005 0.950 . S
C1017 C1013 1.393 . S
C1017 C1016 1.391 . S
C1018 H1008 0.950 . S
C1018 C1019 1.386 . S
C1018 C1020 1.391 . S
C1019 C1018 1.386 . S
C1019 C1023 1.393 . S
C1020 H1009 0.950 . S
C1020 C1018 1.391 . S
C1020 C1021 1.400 . S
C1021 C1015 1.491 . S
C1021 C1020 1.400 . S
C1021 C1022 1.398 . S
C1022 H1010 0.950 . S
C1022 C1021 1.398 . S
C1022 C1023 1.391 . S
C1023 H1011 0.950 . S
C1023 C1019 1.393 . S
C1023 C1022 1.391 . S
H1024 C1032 0.950 . S
H1025 C1037 0.950 . S
H1026 C1034 0.950 1_565 S
H1027 C1036 0.950 . S
H1028 C1038 0.950 . S
H1029 C1040 0.950 1_545 S
H1030 C1042 0.950 . S
H1031 C1043 0.950 . S
C1032 H1024 0.950 . S
C1032 C1033 1.386 . S
C1032 C1034 1.391 . S
C1033 C1032 1.386 . S
C1033 C1037 1.393 . S
C1034 H1026 0.950 1_545 S
C1034 C1032 1.391 . S
C1034 C1035 1.400 . S
C1035 C1034 1.400 . S
C1035 C1036 1.398 . S
C1035 C1041 1.491 1_545 S
C1036 H1027 0.950 . S
C1036 C1035 1.398 . S
C1036 C1037 1.391 . S
C1037 H1025 0.950 . S
C1037 C1033 1.393 . S
C1037 C1036 1.391 . S
C1038 H1028 0.950 . S
C1038 C1039 1.386 . S
C1038 C1040 1.391 . S
C1039 C1038 1.386 . S
C1039 C1043 1.393 . S
C1040 H1029 0.950 1_565 S
C1040 C1038 1.391 . S
C1040 C1041 1.400 . S
C1041 C1035 1.491 1_565 S
C1041 C1040 1.400 . S
C1041 C1042 1.398 . S
C1042 H1030 0.950 . S
C1042 C1041 1.398 . S
C1042 C1043 1.391 . S
C1043 H1031 0.950 . S
C1043 C1039 1.393 . S
C1043 C1042 1.391 . S
H1044 C1052 0.950 . S
H1045 C1057 0.950 . S
H1046 C1054 0.950 . S
H1047 C1056 0.950 . S
H1048 C1058 0.950 . S
H1049 C1060 0.950 . S
H1050 C1062 0.950 . S
H1051 C1063 0.950 . S
C1052 H1044 0.950 . S
C1052 C1053 1.386 . S
C1052 C1054 1.391 . S
C1053 C1052 1.386 . S
C1053 C1057 1.393 . S
C1054 H1046 0.950 . S
C1054 C1052 1.391 . S
C1054 C1055 1.400 . S
C1055 C1054 1.400 . S
C1055 C1056 1.398 . S
C1055 C1061 1.491 . S
C1056 H1047 0.950 . S
C1056 C1055 1.398 . S
C1056 C1057 1.391 . S
C1057 H1045 0.950 . S
C1057 C1053 1.393 . S
C1057 C1056 1.391 . S
C1058 H1048 0.950 . S
C1058 C1059 1.386 . S
C1058 C1060 1.391 . S
C1059 C1058 1.386 . S
C1059 C1063 1.393 . S
C1060 H1049 0.950 . S
C1060 C1058 1.391 . S
C1060 C1061 1.400 . S
C1061 C1055 1.491 . S
C1061 C1060 1.400 . S
C1061 C1062 1.398 . S
C1062 H1050 0.950 . S
C1062 C1061 1.398 . S
C1062 C1063 1.391 . S
C1063 H1051 0.950 . S
C1063 C1059 1.393 . S
C1063 C1062 1.391 . S
H1064 C1072 0.950 . S
H1065 C1077 0.950 . S
H1066 C1074 0.950 . S
H1067 C1076 0.945 1_565 S
H1068 C1078 0.950 . S
H1069 C1080 0.950 . S
H1070 C1082 0.950 . S
H1071 C1083 0.950 . S
C1072 H1064 0.950 . S
C1072 C1073 1.386 . S
C1072 C1074 1.391 . S
C1073 C1072 1.386 . S
C1073 C1077 1.393 . S
C1074 H1066 0.950 . S
C1074 C1072 1.391 . S
C1074 C1075 1.400 1_545 S
C1075 C1074 1.400 1_565 S
C1075 C1076 1.398 1_565 S
C1075 C1081 1.491 . S
C1076 H1067 0.945 1_545 S
C1076 C1075 1.398 1_545 S
C1076 C1077 1.396 . S
C1077 H1065 0.950 . S
C1077 C1073 1.393 . S
C1077 C1076 1.396 . S
C1078 H1068 0.950 . S
C1078 C1079 1.386 . S
C1078 C1080 1.391 . S
C1079 C1078 1.386 . S
C1079 C1083 1.393 . S
C1080 H1069 0.950 . S
C1080 C1078 1.391 . S
C1080 C1081 1.400 . S
C1081 C1075 1.491 . S
C1081 C1080 1.400 . S
C1081 C1082 1.398 . S
C1082 H1070 0.950 . S
C1082 C1081 1.398 . S
C1082 C1083 1.391 . S
C1083 H1071 0.950 . S
C1083 C1079 1.393 . S
C1083 C1082 1.391 . S
H1084 C1092 0.950 . S
H1085 C1097 0.950 . S
H1086 C1094 0.950 . S
H1087 C1096 0.958 . S
H1088 C1098 0.950 . S
H1089 C1100 0.950 . S
H1090 C1102 0.950 1_554 S
H1091 C1103 0.950 . S
C1092 H1084 0.950 . S
C1092 C1093 1.386 . S
C1092 C1094 1.391 . S
C1093 C1092 1.386 . S
C1093 C1097 1.393 . S
C1094 H1086 0.950 . S
C1094 C1092 1.391 . S
C1094 C1095 1.400 . S
C1095 C1094 1.400 . S
C1095 C1096 1.397 1_554 S
C1095 C1101 1.491 1_554 S
C1096 H1087 0.958 . S
C1096 C1095 1.397 1_556 S
C1096 C1097 1.385 1_556 S
C1097 H1085 0.950 . S
C1097 C1093 1.393 . S
C1097 C1096 1.385 1_554 S
C1098 H1088 0.950 . S
C1098 C1099 1.386 . S
C1098 C1100 1.391 . S
C1099 C1098 1.386 . S
C1099 C1103 1.393 . S
C1100 H1089 0.950 . S
C1100 C1098 1.391 . S
C1100 C1101 1.400 . S
C1101 C1095 1.491 1_556 S
C1101 C1100 1.400 . S
C1101 C1102 1.398 . S
C1102 H1090 0.950 1_556 S
C1102 C1101 1.398 . S
C1102 C1103 1.391 . S
C1103 H1091 0.950 . S
C1103 C1099 1.393 . S
C1103 C1102 1.391 . S
H1104 C1112 0.950 . S
H1105 C1117 0.950 . S
H1106 C1114 0.950 . S
H1107 C1116 0.950 . S
H1108 C1118 0.950 . S
H1109 C1120 0.950 . S
H1110 C1122 0.950 . S
H1111 C1123 0.950 . S
C1112 H1104 0.950 . S
C1112 C1113 1.386 . S
C1112 C1114 1.391 . S
C1113 C1112 1.386 . S
C1113 C1117 1.393 . S
C1114 H1106 0.950 . S
C1114 C1112 1.391 . S
C1114 C1115 1.400 . S
C1115 C1114 1.400 . S
C1115 C1116 1.398 . S
C1115 C1121 1.491 1_455 S
C1116 H1107 0.950 . S
C1116 C1115 1.398 . S
C1116 C1117 1.391 . S
C1117 H1105 0.950 . S
C1117 C1113 1.393 . S
C1117 C1116 1.391 . S
C1118 H1108 0.950 . S
C1118 C1119 1.386 . S
C1118 C1120 1.391 . S
C1119 C1118 1.386 . S
C1119 C1123 1.393 . S
C1120 H1109 0.950 . S
C1120 C1118 1.391 . S
C1120 C1121 1.400 . S
C1121 C1115 1.491 1_655 S
C1121 C1120 1.400 . S
C1121 C1122 1.398 . S
C1122 H1110 0.950 . S
C1122 C1121 1.398 . S
C1122 C1123 1.391 . S
C1123 H1111 0.950 . S
C1123 C1119 1.393 . S
C1123 C1122 1.391 . S
H1124 C1132 0.950 . S
H1125 C1137 0.950 . S
H1126 C1134 0.950 . S
H1127 C1136 0.950 . S
H1128 C1138 0.950 . S
H1129 C1140 0.950 . S
H1130 C1142 0.950 . S
H1131 C1143 0.950 . S
C1132 H1124 0.950 . S
C1132 C1133 1.386 . S
C1132 C1134 1.391 . S
C1133 C1132 1.386 . S
C1133 C1137 1.393 . S
C1134 H1126 0.950 . S
C1134 C1132 1.391 . S
C1134 C1135 1.400 . S
C1135 C1134 1.400 . S
C1135 C1136 1.398 . S
C1135 C1141 1.491 . S
C1136 H1127 0.950 . S
C1136 C1135 1.398 . S
C1136 C1137 1.391 . S
C1137 H1125 0.950 . S
C1137 C1133 1.393 . S
C1137 C1136 1.391 . S
C1138 H1128 0.950 . S
C1138 C1139 1.386 . S
C1138 C1140 1.391 . S
C1139 C1138 1.386 . S
C1139 C1143 1.393 . S
C1140 H1129 0.950 . S
C1140 C1138 1.391 . S
C1140 C1141 1.400 . S
C1141 C1135 1.491 . S
C1141 C1140 1.400 . S
C1141 C1142 1.398 . S
C1142 H1130 0.950 . S
C1142 C1141 1.398 . S
C1142 C1143 1.391 . S
C1143 H1131 0.950 . S
C1143 C1139 1.393 . S
C1143 C1142 1.391 . S
H1144 C1152 0.950 . S
H1145 C1157 0.950 . S
H1146 C1154 0.950 . S
H1147 C1156 0.950 . S
H1148 C1158 0.950 . S
H1149 C1160 0.950 . S
H1150 C1162 0.950 . S
H1151 C1163 0.950 . S
C1152 H1144 0.950 . S
C1152 C1153 1.386 . S
C1152 C1154 1.391 . S
C1153 C1152 1.386 . S
C1153 C1157 1.393 . S
C1154 H1146 0.950 . S
C1154 C1152 1.391 . S
C1154 C1155 1.400 . S
C1155 C1154 1.400 . S
C1155 C1156 1.398 . S
C1155 C1161 1.491 . S
C1156 H1147 0.950 . S
C1156 C1155 1.398 . S
C1156 C1157 1.391 . S
C1157 H1145 0.950 . S
C1157 C1153 1.393 . S
C1157 C1156 1.391 . S
C1158 H1148 0.950 . S
C1158 C1159 1.386 . S
C1158 C1160 1.391 1_455 S
C1159 C1158 1.386 . S
C1159 C1163 1.393 . S
C1160 H1149 0.950 . S
C1160 C1158 1.391 1_655 S
C1160 C1161 1.400 . S
C1161 C1155 1.491 . S
C1161 C1160 1.400 . S
C1161 C1162 1.398 1_655 S
C1162 H1150 0.950 . S
C1162 C1161 1.398 1_455 S
C1162 C1163 1.391 . S
C1163 H1151 0.950 . S
C1163 C1159 1.393 . S
C1163 C1162 1.391 . S
H1164 C1172 0.950 . S
H1165 C1177 0.950 . S
H1166 C1174 0.950 . S
H1167 C1176 0.950 . S
H1168 C1178 0.950 . S
H1169 C1180 0.950 . S
H1170 C1182 0.950 . S
H1171 C1183 0.950 . S
C1172 H1164 0.950 . S
C1172 C1173 1.386 . S
C1172 C1174 1.391 . S
C1173 C1172 1.386 . S
C1173 C1177 1.393 . S
C1174 H1166 0.950 . S
C1174 C1172 1.391 . S
C1174 C1175 1.400 . S
C1175 C1174 1.400 . S
C1175 C1176 1.398 . S
C1175 C1181 1.491 . S
C1176 H1167 0.950 . S
C1176 C1175 1.398 . S
C1176 C1177 1.391 . S
C1177 H1165 0.950 . S
C1177 C1173 1.393 . S
C1177 C1176 1.391 . S
C1178 H1168 0.950 . S
C1178 C1179 1.386 . S
C1178 C1180 1.391 . S
C1179 C1178 1.386 . S
C1179 C1183 1.393 . S
C1180 H1169 0.950 . S
C1180 C1178 1.391 . S
C1180 C1181 1.400 . S
C1181 C1175 1.491 . S
C1181 C1180 1.400 . S
C1181 C1182 1.398 . S
C1182 H1170 0.950 . S
C1182 C1181 1.398 . S
C1182 C1183 1.391 . S
C1183 H1171 0.950 . S
C1183 C1179 1.393 . S
C1183 C1182 1.391 . S
H1184 C1192 0.950 . S
H1185 C1197 0.950 . S
H1186 C1194 0.950 . S
H1187 C1196 0.950 . S
H1188 C1198 0.950 . S
H1189 C1200 0.950 . S
H1190 C1202 0.950 . S
H1191 C1203 0.950 . S
C1192 H1184 0.950 . S
C1192 C1193 1.386 . S
C1192 C1194 1.391 . S
C1193 C1192 1.386 . S
C1193 C1197 1.393 . S
C1194 H1186 0.950 . S
C1194 C1192 1.391 . S
C1194 C1195 1.400 . S
C1195 C1194 1.400 . S
C1195 C1196 1.398 . S
C1195 C1201 1.491 . S
C1196 H1187 0.950 . S
C1196 C1195 1.398 . S
C1196 C1197 1.391 . S
C1197 H1185 0.950 . S
C1197 C1193 1.393 . S
C1197 C1196 1.391 . S
C1198 H1188 0.950 . S
C1198 C1199 1.386 . S
C1198 C1200 1.391 . S
C1199 C1198 1.386 . S
C1199 C1203 1.393 . S
C1200 H1189 0.950 . S
C1200 C1198 1.391 . S
C1200 C1201 1.400 . S
C1201 C1195 1.491 . S
C1201 C1200 1.400 . S
C1201 C1202 1.398 . S
C1202 H1190 0.950 . S
C1202 C1201 1.398 . S
C1202 C1203 1.391 . S
C1203 H1191 0.950 . S
C1203 C1199 1.393 . S
C1203 C1202 1.391 . S
H1204 C1212 0.950 . S
H1205 C1217 0.950 . S
H1206 C1214 0.950 1_554 S
H1207 C1216 0.950 . S
H1208 C1218 0.950 . S
H1209 C1220 0.950 1_556 S
H1210 C1222 0.950 . S
H1211 C1223 0.950 . S
C1212 H1204 0.950 . S
C1212 C1213 1.386 . S
C1212 C1214 1.391 . S
C1213 C1212 1.386 . S
C1213 C1217 1.393 . S
C1214 H1206 0.950 1_556 S
C1214 C1212 1.391 . S
C1214 C1215 1.400 . S
C1215 C1214 1.400 . S
C1215 C1216 1.398 . S
C1215 C1221 1.491 1_556 S
C1216 H1207 0.950 . S
C1216 C1215 1.398 . S
C1216 C1217 1.391 . S
C1217 H1205 0.950 . S
C1217 C1213 1.393 . S
C1217 C1216 1.391 . S
C1218 H1208 0.950 . S
C1218 C1219 1.386 . S
C1218 C1220 1.391 . S
C1219 C1218 1.386 . S
C1219 C1223 1.393 . S
C1220 H1209 0.950 1_554 S
C1220 C1218 1.391 . S
C1220 C1221 1.400 . S
C1221 C1215 1.491 1_554 S
C1221 C1220 1.400 . S
C1221 C1222 1.398 . S
C1222 H1210 0.950 . S
C1222 C1221 1.398 . S
C1222 C1223 1.391 . S
C1223 H1211 0.950 . S
C1223 C1219 1.393 . S
C1223 C1222 1.391 . S
H1224 C1232 0.950 . S
H1225 C1237 0.950 . S
H1226 C1234 0.950 . S
H1227 C1236 0.950 . S
H1228 C1238 0.950 . S
H1229 C1240 0.950 . S
H1230 C1242 0.950 . S
H1231 C1243 0.950 . S
C1232 H1224 0.950 . S
C1232 C1233 1.386 . S
C1232 C1234 1.391 . S
C1233 C1232 1.386 . S
C1233 C1237 1.393 . S
C1234 H1226 0.950 . S
C1234 C1232 1.391 . S
C1234 C1235 1.400 . S
C1235 C1234 1.400 . S
C1235 C1236 1.398 . S
C1235 C1241 1.491 . S
C1236 H1227 0.950 . S
C1236 C1235 1.398 . S
C1236 C1237 1.391 . S
C1237 H1225 0.950 . S
C1237 C1233 1.393 . S
C1237 C1236 1.391 . S
C1238 H1228 0.950 . S
C1238 C1239 1.386 . S
C1238 C1240 1.391 . S
C1239 C1238 1.386 . S
C1239 C1243 1.393 . S
C1240 H1229 0.950 . S
C1240 C1238 1.391 . S
C1240 C1241 1.400 . S
C1241 C1235 1.491 . S
C1241 C1240 1.400 . S
C1241 C1242 1.398 . S
C1242 H1230 0.950 . S
C1242 C1241 1.398 . S
C1242 C1243 1.391 . S
C1243 H1231 0.950 . S
C1243 C1239 1.393 . S
C1243 C1242 1.391 . S
H1244 C1252 0.950 . S
H1245 C1257 0.950 . S
H1246 C1254 0.950 . S
H1247 C1256 0.950 . S
H1248 C1258 0.950 . S
H1249 C1260 0.950 . S
H1250 C1262 0.950 . S
H1251 C1263 0.950 . S
C1252 H1244 0.950 . S
C1252 C1253 1.386 . S
C1252 C1254 1.391 . S
C1253 C1252 1.386 . S
C1253 C1257 1.393 . S
C1254 H1246 0.950 . S
C1254 C1252 1.391 . S
C1254 C1255 1.400 . S
C1255 C1254 1.400 . S
C1255 C1256 1.398 . S
C1255 C1261 1.491 . S
C1256 H1247 0.950 . S
C1256 C1255 1.398 . S
C1256 C1257 1.391 . S
C1257 H1245 0.950 . S
C1257 C1253 1.393 . S
C1257 C1256 1.391 . S
C1258 H1248 0.950 . S
C1258 C1259 1.386 . S
C1258 C1260 1.391 . S
C1259 C1258 1.386 . S
C1259 C1263 1.393 . S
C1260 H1249 0.950 . S
C1260 C1258 1.391 . S
C1260 C1261 1.400 . S
C1261 C1255 1.491 . S
C1261 C1260 1.400 . S
C1261 C1262 1.398 . S
C1262 H1250 0.950 . S
C1262 C1261 1.398 . S
C1262 C1263 1.391 . S
C1263 H1251 0.950 . S
C1263 C1259 1.393 . S
C1263 C1262 1.391 . S
H1264 C1272 0.950 . S
H1265 C1277 0.950 . S
H1266 C1274 0.950 . S
H1267 C1276 0.950 . S
H1268 C1278 0.950 . S
H1269 C1280 0.950 . S
H1270 C1282 0.950 . S
H1271 C1283 0.950 . S
C1272 H1264 0.950 . S
C1272 C1273 1.386 . S
C1272 C1274 1.391 . S
C1273 C1272 1.386 . S
C1273 C1277 1.393 . S
C1274 H1266 0.950 . S
C1274 C1272 1.391 . S
C1274 C1275 1.400 . S
C1275 C1274 1.400 . S
C1275 C1276 1.398 . S
C1275 C1281 1.491 . S
C1276 H1267 0.950 . S
C1276 C1275 1.398 . S
C1276 C1277 1.391 . S
C1277 H1265 0.950 . S
C1277 C1273 1.393 . S
C1277 C1276 1.391 . S
C1278 H1268 0.950 . S
C1278 C1279 1.386 . S
C1278 C1280 1.391 . S
C1279 C1278 1.386 . S
C1279 C1283 1.393 . S
C1280 H1269 0.950 . S
C1280 C1278 1.391 . S
C1280 C1281 1.400 . S
C1281 C1275 1.491 . S
C1281 C1280 1.400 . S
C1281 C1282 1.398 . S
C1282 H1270 0.950 . S
C1282 C1281 1.398 . S
C1282 C1283 1.391 . S
C1283 H1271 0.950 . S
C1283 C1279 1.393 . S
C1283 C1282 1.391 . S
H1284 C1292 0.950 . S
H1285 C1297 0.950 . S
H1286 C1294 0.950 1_554 S
H1287 C1296 0.950 . S
H1288 C1298 0.950 . S
H1289 C1300 0.950 . S
H1290 C1302 0.950 . S
H1291 C1303 0.950 . S
C1292 H1284 0.950 . S
C1292 C1293 1.386 . S
C1292 C1294 1.391 . S
C1293 C1292 1.386 . S
C1293 C1297 1.393 . S
C1294 H1286 0.950 1_556 S
C1294 C1292 1.391 . S
C1294 C1295 1.400 . S
C1295 C1294 1.400 . S
C1295 C1296 1.398 . S
C1295 C1301 1.491 1_556 S
C1296 H1287 0.950 . S
C1296 C1295 1.398 . S
C1296 C1297 1.391 . S
C1297 H1285 0.950 . S
C1297 C1293 1.393 . S
C1297 C1296 1.391 . S
C1298 H1288 0.950 . S
C1298 C1299 1.386 . S
C1298 C1300 1.391 1_554 S
C1299 C1298 1.386 . S
C1299 C1303 1.393 . S
C1300 H1289 0.950 . S
C1300 C1298 1.391 1_556 S
C1300 C1301 1.400 1_556 S
C1301 C1295 1.491 1_554 S
C1301 C1300 1.400 1_554 S
C1301 C1302 1.398 . S
C1302 H1290 0.950 . S
C1302 C1301 1.398 . S
C1302 C1303 1.391 . S
C1303 H1291 0.950 . S
C1303 C1299 1.393 . S
C1303 C1302 1.391 . S
H1304 C1312 0.950 . S
H1305 C1317 0.950 . S
H1306 C1314 0.950 . S
H1307 C1316 0.950 . S
H1308 C1318 0.950 . S
H1309 C1320 0.950 . S
H1310 C1322 0.950 . S
H1311 C1323 0.950 . S
C1312 H1304 0.950 . S
C1312 C1313 1.386 . S
C1312 C1314 1.391 . S
C1313 C1312 1.386 . S
C1313 C1317 1.393 . S
C1314 H1306 0.950 . S
C1314 C1312 1.391 . S
C1314 C1315 1.400 . S
C1315 C1314 1.400 . S
C1315 C1316 1.398 . S
C1315 C1321 1.491 . S
C1316 H1307 0.950 . S
C1316 C1315 1.398 . S
C1316 C1317 1.391 . S
C1317 H1305 0.950 . S
C1317 C1313 1.393 . S
C1317 C1316 1.391 . S
C1318 H1308 0.950 . S
C1318 C1319 1.386 . S
C1318 C1320 1.391 . S
C1319 C1318 1.386 . S
C1319 C1323 1.393 . S
C1320 H1309 0.950 . S
C1320 C1318 1.391 . S
C1320 C1321 1.400 . S
C1321 C1315 1.491 . S
C1321 C1320 1.400 . S
C1321 C1322 1.398 . S
C1322 H1310 0.950 . S
C1322 C1321 1.398 . S
C1322 C1323 1.391 . S
C1323 H1311 0.950 . S
C1323 C1319 1.393 . S
C1323 C1322 1.391 . S
H1324 C1332 0.950 . S
H1325 C1337 0.950 . S
H1326 C1334 0.950 . S
H1327 C1336 0.950 . S
H1328 C1338 0.950 . S
H1329 C1340 0.950 . S
H1330 C1342 0.950 . S
H1331 C1343 0.950 . S
C1332 H1324 0.950 . S
C1332 C1333 1.386 . S
C1332 C1334 1.391 . S
C1333 C1332 1.386 . S
C1333 C1337 1.393 . S
C1334 H1326 0.950 . S
C1334 C1332 1.391 . S
C1334 C1335 1.400 . S
C1335 C1334 1.400 . S
C1335 C1336 1.398 . S
C1335 C1341 1.491 . S
C1336 H1327 0.950 . S
C1336 C1335 1.398 . S
C1336 C1337 1.391 . S
C1337 H1325 0.950 . S
C1337 C1333 1.393 . S
C1337 C1336 1.391 . S
C1338 H1328 0.950 . S
C1338 C1339 1.386 . S
C1338 C1340 1.391 . S
C1339 C1338 1.386 . S
C1339 C1343 1.393 . S
C1340 H1329 0.950 . S
C1340 C1338 1.391 . S
C1340 C1341 1.400 . S
C1341 C1335 1.491 . S
C1341 C1340 1.400 . S
C1341 C1342 1.398 . S
C1342 H1330 0.950 . S
C1342 C1341 1.398 . S
C1342 C1343 1.391 . S
C1343 H1331 0.950 . S
C1343 C1339 1.393 . S
C1343 C1342 1.391 . S
C553 C9 0.883 . S
C559 C515 0.912 . S
C573 C281 1.761 . S
C579 C39 1.947 . S
C593 C417 1.192 . S
C599 C77 1.166 . S
C613 C111 1.695 . S
C619 C345 1.831 . S
C633 C379 1.626 . S
C639 C43 1.448 . S
C653 C73 1.498 . S
C659 C311 1.497 . S
C673 C107 1.825 . S
C679 C451 1.656 . S
C693 C5 1.153 . S
C699 C247 1.077 . S
C713 C277 1.680 . S
C719 C145 1.542 . S
C733 C413 1.231 . S
C739 C179 1.127 . S
C753 C209 1.915 . S
C759 C349 1.765 . S
C773 C213 1.623 . S
C779 C447 1.770 . S
C793 C141 1.851 . S
C799 C383 1.653 . S
C813 C485 0.913 . S
C819 C243 1.003 . S
C833 C315 1.494 . S
C839 C175 1.634 . S
C853 C519 0.953 . S
C859 C481 1.051 . S
C873 C2 1.579 . S
C879 C54 1.582 . S
C893 C36 1.912 . S
C899 C101 1.928 . S
C913 C70 1.781 . S
C919 C104 1.798 . S
C933 C122 1.210 . S
C939 C33 1.213 . S
C953 C20 1.549 . S
C959 C190 1.549 . S
C973 C169 1.363 . S
C979 C135 1.363 . S
C993 C237 1.615 . S
C999 C67 1.613 . S
C1013 C496 1.534 . S
C1019 C88 1.528 . S
C1033 C292 1.803 . S
C1039 C240 1.784 . S
C1053 C274 1.771 . S
C1059 C308 1.768 . S
C1073 C339 1.853 . S
C1079 C342 1.816 . S
C1093 C360 1.574 . S
C1099 C271 1.583 . S
C1113 C428 1.465 . S
C1119 C258 1.469 . S
C1133 C407 1.246 . S
C1139 C373 1.253 . S
C1153 C305 1.248 . S
C1159 C475 1.237 . S
C1173 C530 1.409 . S
C1179 C326 1.410 . S
C1193 C156 1.724 . S
C1199 C478 1.723 . S
C1213 C138 2.111 . S
C1219 C172 2.110 . S
C1233 C203 1.606 . S
C1239 C206 1.598 . S
C1253 C509 1.073 . S
C1259 C224 1.072 . S
C1273 C394 1.776 . S
C1279 C512 1.766 . S
C1293 C410 1.694 . S
C1299 C376 1.687 . S
C1313 C441 1.785 . S
C1319 C444 1.761 . S
C1333 C543 1.562 . S
C1339 C462 1.539 . S
