# Generated by pormake.
# Topology wio, (6)-cn, num edge types: 1
# Building blocks:
#     Node 0, Type 0, BuildingBlock: BETDAH_clean_sbu_0, # of connection points: 6
#     Node 1, Type 0, BuildingBlock: BETDAH_clean_sbu_0, # of connection points: 6
#     Node 2, Type 0, BuildingBlock: BETDAH_clean_sbu_0, # of connection points: 6
#     Node 3, Type 0, BuildingBlock: BETDAH_clean_sbu_0, # of connection points: 6
#     Node 4, Type 0, BuildingBlock: BETDAH_clean_sbu_0, # of connection points: 6
#     Node 5, Type 0, BuildingBlock: BETDAH_clean_sbu_0, # of connection points: 6
#     Node 6, Type 0, BuildingBlock: BETDAH_clean_sbu_0, # of connection points: 6
#     Node 7, Type 0, BuildingBlock: BETDAH_clean_sbu_0, # of connection points: 6
#     Node 8, Type 0, BuildingBlock: BETDAH_clean_sbu_0, # of connection points: 6
#     Node 9, Type 0, BuildingBlock: BETDAH_clean_sbu_0, # of connection points: 6
#     Node 10, Type 0, BuildingBlock: BETDAH_clean_sbu_0, # of connection points: 6
#     Node 11, Type 0, BuildingBlock: BETDAH_clean_sbu_0, # of connection points: 6
#     Node 12, Type 0, BuildingBlock: BETDAH_clean_sbu_0, # of connection points: 6
#     Node 13, Type 0, BuildingBlock: BETDAH_clean_sbu_0, # of connection points: 6
#     Node 14, Type 0, BuildingBlock: BETDAH_clean_sbu_0, # of connection points: 6
#     Node 15, Type 0, BuildingBlock: BETDAH_clean_sbu_0, # of connection points: 6
#     Node 16, Type 0, BuildingBlock: BETDAH_clean_sbu_0, # of connection points: 6
#     Node 17, Type 0, BuildingBlock: BETDAH_clean_sbu_0, # of connection points: 6
#     Node 18, Type 0, BuildingBlock: BETDAH_clean_sbu_0, # of connection points: 6
#     Node 19, Type 0, BuildingBlock: BETDAH_clean_sbu_0, # of connection points: 6
#     Node 20, Type 0, BuildingBlock: BETDAH_clean_sbu_0, # of connection points: 6
#     Node 21, Type 0, BuildingBlock: BETDAH_clean_sbu_0, # of connection points: 6
#     Node 22, Type 0, BuildingBlock: BETDAH_clean_sbu_0, # of connection points: 6
#     Node 23, Type 0, BuildingBlock: BETDAH_clean_sbu_0, # of connection points: 6
#     Node 24, Type 0, BuildingBlock: BETDAH_clean_sbu_0, # of connection points: 6
#     Node 25, Type 0, BuildingBlock: BETDAH_clean_sbu_0, # of connection points: 6
#     Node 26, Type 0, BuildingBlock: BETDAH_clean_sbu_0, # of connection points: 6
#     Node 27, Type 0, BuildingBlock: BETDAH_clean_sbu_0, # of connection points: 6
#     Node 28, Type 0, BuildingBlock: BETDAH_clean_sbu_0, # of connection points: 6
#     Node 29, Type 0, BuildingBlock: BETDAH_clean_sbu_0, # of connection points: 6
#     Node 30, Type 0, BuildingBlock: BETDAH_clean_sbu_0, # of connection points: 6
#     Node 31, Type 0, BuildingBlock: BETDAH_clean_sbu_0, # of connection points: 6
#     Edge 32, Type (0, 0), BuildingBlock: CIFDUS_clean_linker_0, # of connection points: 2
#     Edge 33, Type (0, 0), BuildingBlock: CIFDUS_clean_linker_0, # of connection points: 2
#     Edge 34, Type (0, 0), BuildingBlock: CIFDUS_clean_linker_0, # of connection points: 2
#     Edge 35, Type (0, 0), BuildingBlock: CIFDUS_clean_linker_0, # of connection points: 2
#     Edge 36, Type (0, 0), BuildingBlock: CIFDUS_clean_linker_0, # of connection points: 2
#     Edge 37, Type (0, 0), BuildingBlock: CIFDUS_clean_linker_0, # of connection points: 2
#     Edge 38, Type (0, 0), BuildingBlock: CIFDUS_clean_linker_0, # of connection points: 2
#     Edge 39, Type (0, 0), BuildingBlock: CIFDUS_clean_linker_0, # of connection points: 2
#     Edge 40, Type (0, 0), BuildingBlock: CIFDUS_clean_linker_0, # of connection points: 2
#     Edge 41, Type (0, 0), BuildingBlock: CIFDUS_clean_linker_0, # of connection points: 2
#     Edge 42, Type (0, 0), BuildingBlock: CIFDUS_clean_linker_0, # of connection points: 2
#     Edge 43, Type (0, 0), BuildingBlock: CIFDUS_clean_linker_0, # of connection points: 2
#     Edge 44, Type (0, 0), BuildingBlock: CIFDUS_clean_linker_0, # of connection points: 2
#     Edge 45, Type (0, 0), BuildingBlock: CIFDUS_clean_linker_0, # of connection points: 2
#     Edge 46, Type (0, 0), BuildingBlock: CIFDUS_clean_linker_0, # of connection points: 2
#     Edge 47, Type (0, 0), BuildingBlock: CIFDUS_clean_linker_0, # of connection points: 2
#     Edge 48, Type (0, 0), BuildingBlock: CIFDUS_clean_linker_0, # of connection points: 2
#     Edge 49, Type (0, 0), BuildingBlock: CIFDUS_clean_linker_0, # of connection points: 2
#     Edge 50, Type (0, 0), BuildingBlock: CIFDUS_clean_linker_0, # of connection points: 2
#     Edge 51, Type (0, 0), BuildingBlock: CIFDUS_clean_linker_0, # of connection points: 2
#     Edge 52, Type (0, 0), BuildingBlock: CIFDUS_clean_linker_0, # of connection points: 2
#     Edge 53, Type (0, 0), BuildingBlock: CIFDUS_clean_linker_0, # of connection points: 2
#     Edge 54, Type (0, 0), BuildingBlock: CIFDUS_clean_linker_0, # of connection points: 2
#     Edge 55, Type (0, 0), BuildingBlock: CIFDUS_clean_linker_0, # of connection points: 2
#     Edge 56, Type (0, 0), BuildingBlock: CIFDUS_clean_linker_0, # of connection points: 2
#     Edge 57, Type (0, 0), BuildingBlock: CIFDUS_clean_linker_0, # of connection points: 2
#     Edge 58, Type (0, 0), BuildingBlock: CIFDUS_clean_linker_0, # of connection points: 2
#     Edge 59, Type (0, 0), BuildingBlock: CIFDUS_clean_linker_0, # of connection points: 2
#     Edge 60, Type (0, 0), BuildingBlock: CIFDUS_clean_linker_0, # of connection points: 2
#     Edge 61, Type (0, 0), BuildingBlock: CIFDUS_clean_linker_0, # of connection points: 2
#     Edge 62, Type (0, 0), BuildingBlock: CIFDUS_clean_linker_0, # of connection points: 2
#     Edge 63, Type (0, 0), BuildingBlock: CIFDUS_clean_linker_0, # of connection points: 2
#     Edge 64, Type (0, 0), BuildingBlock: CIFDUS_clean_linker_0, # of connection points: 2
#     Edge 65, Type (0, 0), BuildingBlock: CIFDUS_clean_linker_0, # of connection points: 2
#     Edge 66, Type (0, 0), BuildingBlock: CIFDUS_clean_linker_0, # of connection points: 2
#     Edge 67, Type (0, 0), BuildingBlock: CIFDUS_clean_linker_0, # of connection points: 2
#     Edge 68, Type (0, 0), BuildingBlock: CIFDUS_clean_linker_0, # of connection points: 2
#     Edge 69, Type (0, 0), BuildingBlock: CIFDUS_clean_linker_0, # of connection points: 2
#     Edge 70, Type (0, 0), BuildingBlock: CIFDUS_clean_linker_0, # of connection points: 2
#     Edge 71, Type (0, 0), BuildingBlock: CIFDUS_clean_linker_0, # of connection points: 2
#     Edge 72, Type (0, 0), BuildingBlock: CIFDUS_clean_linker_0, # of connection points: 2
#     Edge 73, Type (0, 0), BuildingBlock: CIFDUS_clean_linker_0, # of connection points: 2
#     Edge 74, Type (0, 0), BuildingBlock: CIFDUS_clean_linker_0, # of connection points: 2
#     Edge 75, Type (0, 0), BuildingBlock: CIFDUS_clean_linker_0, # of connection points: 2
#     Edge 76, Type (0, 0), BuildingBlock: CIFDUS_clean_linker_0, # of connection points: 2
#     Edge 77, Type (0, 0), BuildingBlock: CIFDUS_clean_linker_0, # of connection points: 2
#     Edge 78, Type (0, 0), BuildingBlock: CIFDUS_clean_linker_0, # of connection points: 2
#     Edge 79, Type (0, 0), BuildingBlock: CIFDUS_clean_linker_0, # of connection points: 2
#     Edge 80, Type (0, 0), BuildingBlock: CIFDUS_clean_linker_0, # of connection points: 2
#     Edge 81, Type (0, 0), BuildingBlock: CIFDUS_clean_linker_0, # of connection points: 2
#     Edge 82, Type (0, 0), BuildingBlock: CIFDUS_clean_linker_0, # of connection points: 2
#     Edge 83, Type (0, 0), BuildingBlock: CIFDUS_clean_linker_0, # of connection points: 2
#     Edge 84, Type (0, 0), BuildingBlock: CIFDUS_clean_linker_0, # of connection points: 2
#     Edge 85, Type (0, 0), BuildingBlock: CIFDUS_clean_linker_0, # of connection points: 2
#     Edge 86, Type (0, 0), BuildingBlock: CIFDUS_clean_linker_0, # of connection points: 2
#     Edge 87, Type (0, 0), BuildingBlock: CIFDUS_clean_linker_0, # of connection points: 2
#     Edge 88, Type (0, 0), BuildingBlock: CIFDUS_clean_linker_0, # of connection points: 2
#     Edge 89, Type (0, 0), BuildingBlock: CIFDUS_clean_linker_0, # of connection points: 2
#     Edge 90, Type (0, 0), BuildingBlock: CIFDUS_clean_linker_0, # of connection points: 2
#     Edge 91, Type (0, 0), BuildingBlock: CIFDUS_clean_linker_0, # of connection points: 2
#     Edge 92, Type (0, 0), BuildingBlock: CIFDUS_clean_linker_0, # of connection points: 2
#     Edge 93, Type (0, 0), BuildingBlock: CIFDUS_clean_linker_0, # of connection points: 2
#     Edge 94, Type (0, 0), BuildingBlock: CIFDUS_clean_linker_0, # of connection points: 2
#     Edge 95, Type (0, 0), BuildingBlock: CIFDUS_clean_linker_0, # of connection points: 2
#     Edge 96, Type (0, 0), BuildingBlock: CIFDUS_clean_linker_0, # of connection points: 2
#     Edge 97, Type (0, 0), BuildingBlock: CIFDUS_clean_linker_0, # of connection points: 2
#     Edge 98, Type (0, 0), BuildingBlock: CIFDUS_clean_linker_0, # of connection points: 2
#     Edge 99, Type (0, 0), BuildingBlock: CIFDUS_clean_linker_0, # of connection points: 2
#     Edge 100, Type (0, 0), BuildingBlock: CIFDUS_clean_linker_0, # of connection points: 2
#     Edge 101, Type (0, 0), BuildingBlock: CIFDUS_clean_linker_0, # of connection points: 2
#     Edge 102, Type (0, 0), BuildingBlock: CIFDUS_clean_linker_0, # of connection points: 2
#     Edge 103, Type (0, 0), BuildingBlock: CIFDUS_clean_linker_0, # of connection points: 2
#     Edge 104, Type (0, 0), BuildingBlock: CIFDUS_clean_linker_0, # of connection points: 2
#     Edge 105, Type (0, 0), BuildingBlock: CIFDUS_clean_linker_0, # of connection points: 2
#     Edge 106, Type (0, 0), BuildingBlock: CIFDUS_clean_linker_0, # of connection points: 2
#     Edge 107, Type (0, 0), BuildingBlock: CIFDUS_clean_linker_0, # of connection points: 2
#     Edge 108, Type (0, 0), BuildingBlock: CIFDUS_clean_linker_0, # of connection points: 2
#     Edge 109, Type (0, 0), BuildingBlock: CIFDUS_clean_linker_0, # of connection points: 2
#     Edge 110, Type (0, 0), BuildingBlock: CIFDUS_clean_linker_0, # of connection points: 2
#     Edge 111, Type (0, 0), BuildingBlock: CIFDUS_clean_linker_0, # of connection points: 2
#     Edge 112, Type (0, 0), BuildingBlock: CIFDUS_clean_linker_0, # of connection points: 2
#     Edge 113, Type (0, 0), BuildingBlock: CIFDUS_clean_linker_0, # of connection points: 2
#     Edge 114, Type (0, 0), BuildingBlock: CIFDUS_clean_linker_0, # of connection points: 2
#     Edge 115, Type (0, 0), BuildingBlock: CIFDUS_clean_linker_0, # of connection points: 2
#     Edge 116, Type (0, 0), BuildingBlock: CIFDUS_clean_linker_0, # of connection points: 2
#     Edge 117, Type (0, 0), BuildingBlock: CIFDUS_clean_linker_0, # of connection points: 2
#     Edge 118, Type (0, 0), BuildingBlock: CIFDUS_clean_linker_0, # of connection points: 2
#     Edge 119, Type (0, 0), BuildingBlock: CIFDUS_clean_linker_0, # of connection points: 2
#     Edge 120, Type (0, 0), BuildingBlock: CIFDUS_clean_linker_0, # of connection points: 2
#     Edge 121, Type (0, 0), BuildingBlock: CIFDUS_clean_linker_0, # of connection points: 2
#     Edge 122, Type (0, 0), BuildingBlock: CIFDUS_clean_linker_0, # of connection points: 2
#     Edge 123, Type (0, 0), BuildingBlock: CIFDUS_clean_linker_0, # of connection points: 2
#     Edge 124, Type (0, 0), BuildingBlock: CIFDUS_clean_linker_0, # of connection points: 2
#     Edge 125, Type (0, 0), BuildingBlock: CIFDUS_clean_linker_0, # of connection points: 2
#     Edge 126, Type (0, 0), BuildingBlock: CIFDUS_clean_linker_0, # of connection points: 2
#     Edge 127, Type (0, 0), BuildingBlock: CIFDUS_clean_linker_0, # of connection points: 2
# Relax obj value: 0.204
# Max RMSD: 0.239
# Mean RMSD: 0.239
data_MOF--net-wio--node1-BETDAH_clean_sbu_0--edge1-CIFDUS_clean_linker_0
_symmetry_space_group_name_H-M    P1
_symmetry_Int_Tables_number       1
_symmetry_cell_setting            triclinic
loop_
_symmetry_equiv_pos_as_xyz
'x, y, z'
_cell_length_a     55.046315
_cell_length_b     55.141039
_cell_length_c     48.788289
_cell_angle_alpha  89.982762
_cell_angle_beta   90.060708
_cell_angle_gamma 89.990373
loop_
_atom_site_label
_atom_site_type_symbol
_atom_site_fract_x
_atom_site_fract_y
_atom_site_fract_z
_atom_type_partial_charge
Ho0 Ho 0.15775 0.11078 0.29394 0.0
Ho1 Ho 0.10442 0.12552 0.29827 0.0
C2 C 0.13051 0.13485 0.24055 0.0
C3 C 0.19906 0.09256 0.27929 0.0
C4 C 0.2168 0.09651 0.25726 0.0
C5 C 0.23337 0.07812 0.25085 0.0
C6 C 0.25049 0.08153 0.23009 0.0
C7 C 0.25132 0.10345 0.21531 0.0
C8 C 0.23468 0.12192 0.22191 0.0
C9 C 0.21754 0.11846 0.24271 0.0
C10 C 0.15048 0.15421 0.31757 0.0
C11 C 0.13181 0.09793 0.34979 0.0
C12 C 0.06413 0.14436 0.31614 0.0
C13 C 0.04732 0.14063 0.33947 0.0
C14 C 0.04539 0.11801 0.3525 0.0
C15 C 0.02849 0.11451 0.37362 0.0
C16 C 0.01324 0.13356 0.38232 0.0
C17 C 0.01595 0.15645 0.36994 0.0
C18 C 0.03278 0.1599 0.34868 0.0
C19 C 0.11247 0.07988 0.27941 0.0
O20 O 0.14894 0.12254 0.251 0.0
O21 O 0.11123 0.14062 0.25556 0.0
O22 O 0.19684 0.11016 0.29705 0.0
O23 O 0.17811 0.0834 0.2719 0.0
O24 O 0.16798 0.13952 0.3238 0.0
O25 O 0.13865 0.14615 0.29717 0.0
O26 O 0.11288 0.11081 0.34115 0.0
O27 O 0.15026 0.09267 0.33365 0.0
O28 O 0.06509 0.12717 0.29769 0.0
O29 O 0.08563 0.15282 0.32222 0.0
O30 O 0.09468 0.09356 0.27117 0.0
O31 O 0.12372 0.09065 0.29818 0.0
H32 H 0.23311 0.0611 0.26196 0.0
H33 H 0.26322 0.06706 0.22574 0.0
H34 H 0.23463 0.13887 0.21069 0.0
H35 H 0.20487 0.13289 0.24744 0.0
H36 H 0.05665 0.10295 0.34605 0.0
H37 H 0.02714 0.09673 0.38294 0.0
H38 H 1.00442 0.17145 0.37595 0.0
H39 H 0.0341 0.17756 0.33905 0.0
Ho40 Ho 0.15459 0.90145 0.53937 0.0
Ho41 Ho 0.14533 0.84885 0.55315 0.0
C42 C 0.13127 0.86634 0.49246 0.0
C43 C 0.16646 0.94306 0.51893 0.0
C44 C 0.15603 0.9612 0.50007 0.0
C45 C 0.15669 0.98573 0.50754 0.0
C46 C 0.14764 1.00351 0.48989 0.0
C47 C 0.13786 0.99716 0.46423 0.0
C48 C 0.13664 0.97244 0.45706 0.0
C49 C 0.1456 0.95461 0.47485 0.0
C50 C 0.1129 0.89334 0.56705 0.0
C51 C 0.1754 0.88288 0.59639 0.0
C52 C 0.12916 0.80952 0.57614 0.0
C53 C 0.13271 0.79437 0.60076 0.0
C54 C 0.15489 0.79395 0.61494 0.0
C55 C 0.15832 0.77785 0.63684 0.0
C56 C 0.13962 0.76194 0.64503 0.0
C57 C 0.1171 0.76327 0.6315 0.0
C58 C 0.11372 0.7793 0.60955 0.0
C59 C 0.18927 0.85691 0.52902 0.0
O60 O 0.14131 0.88735 0.49879 0.0
O61 O 0.12865 0.84877 0.51077 0.0
O62 O 0.15531 0.94056 0.54238 0.0
O63 O 0.17346 0.92233 0.50848 0.0
O64 O 0.12637 0.91233 0.57001 0.0
O65 O 0.12121 0.88022 0.54796 0.0
O66 O 0.1615 0.86338 0.5932 0.0
O67 O 0.17853 0.89836 0.57603 0.0
O68 O 0.14676 0.80987 0.55817 0.0
O69 O 0.11959 0.83092 0.57996 0.0
O70 O 0.1761 0.83762 0.52534 0.0
O71 O 0.17874 0.87023 0.54628 0.0
H72 H 0.16445 0.99118 0.52702 0.0
H73 H 0.14849 0.0223 0.49629 0.0
H74 H 0.12946 0.9669 0.43737 0.0
H75 H 0.14469 0.93576 0.46868 0.0
H76 H 0.16971 0.80564 0.60869 0.0
H77 H 0.1758 0.77752 0.64706 0.0
H78 H 0.10241 0.75117 0.63706 0.0
H79 H 0.09643 0.77944 0.59892 0.0
Ho80 Ho 0.36831 0.91007 0.79139 0.0
Ho81 Ho 0.42025 0.89474 0.80386 0.0
C82 C 0.40136 0.88752 0.74231 0.0
C83 C 0.3278 0.9276 0.77302 0.0
C84 C 0.31009 0.92314 0.75104 0.0
C85 C 0.29587 0.94249 0.74168 0.0
C86 C 0.27865 0.93888 0.72108 0.0
C87 C 0.27529 0.91579 0.70944 0.0
C88 C 0.28945 0.89631 0.71902 0.0
C89 C 0.30683 0.89998 0.73962 0.0
C90 C 0.37308 0.86625 0.8159 0.0
C91 C 0.38924 0.92571 0.84957 0.0
C92 C 0.4579 0.87432 0.82623 0.0
C93 C 0.47435 0.87854 0.84964 0.0
C94 C 0.47604 0.9014 0.86211 0.0
C95 C 0.49283 0.9054 0.88323 0.0
C96 C 0.50818 0.88659 0.89239 0.0
C97 C 0.50572 0.86348 0.88051 0.0
C98 C 0.48899 0.85953 0.8593 0.0
C99 C 0.41619 0.94049 0.78337 0.0
O100 O 0.38231 0.90061 0.74948 0.0
O101 O 0.41756 0.87989 0.76055 0.0
O102 O 0.32914 0.9112 0.79229 0.0
O103 O 0.34912 0.93566 0.76551 0.0
O104 O 0.3555 0.88126 0.82043 0.0
O105 O 0.38657 0.87451 0.79712 0.0
O106 O 0.40746 0.91037 0.84505 0.0
O107 O 0.37357 0.93108 0.82995 0.0
O108 O 0.45921 0.88982 0.80598 0.0
O109 O 0.43551 0.8686 0.83225 0.0
O110 O 0.43468 0.92633 0.77925 0.0
O111 O 0.40195 0.93012 0.79976 0.0
H112 H 0.29806 0.96044 0.75037 0.0
H113 H 0.26784 0.95419 0.71434 0.0
H114 H 0.28743 0.87839 0.71023 0.0
H115 H 0.31772 0.8848 0.74657 0.0
H116 H 0.4647 0.91625 0.85518 0.0
H117 H 0.49403 0.92333 0.89218 0.0
H118 H 0.51736 0.84867 0.88687 0.0
H119 H 0.48785 0.84172 0.85002 0.0
Ho120 Ho 0.36478 0.12195 0.03924 0.0
Ho121 Ho 0.36895 0.17597 0.05123 0.0
C122 C 0.38017 0.15677 0.99039 0.0
C123 C 0.35476 0.07692 1.02952 0.0
C124 C 0.36269 0.05931 1.00869 0.0
C125 C 0.37374 0.06736 0.98444 0.0
C126 C 0.37877 0.05102 0.96333 0.0
C127 C 0.37303 0.02628 0.96615 0.0
C128 C 0.36317 0.01805 0.99105 0.0
C129 C 0.35792 0.03451 1.01213 0.0
C130 C 0.40962 0.13784 0.055 0.0
C131 C 0.34474 0.14125 0.09748 0.0
C132 C 0.38015 0.21801 0.07128 0.0
C133 C 0.38463 0.23026 0.09799 0.0
C134 C 0.40841 0.23647 0.10581 0.0
C135 C 0.41263 0.251 0.12889 0.0
C136 C 0.39314 0.25985 0.14468 0.0
C137 C 0.36942 0.25273 0.13755 0.0
C138 C 0.3652 0.23818 0.11448 0.0
C139 C 0.3274 0.16319 1.02484 0.0
O140 O 0.3679 0.13713 0.99703 0.0
O141 O 0.38662 0.17304 1.0091 0.0
O142 O 0.37113 0.08377 0.04736 0.0
O143 O 0.3419 0.09509 1.02012 0.0
O144 O 0.40595 0.12184 0.03597 0.0
O145 O 0.38941 0.14419 0.06442 0.0
O146 O 0.35303 0.16318 0.09142 0.0
O147 O 0.34672 0.12282 0.0803 0.0
O148 O 0.35787 0.2112 0.06587 0.0
O149 O 0.39639 0.20237 0.06264 0.0
O150 O 0.33953 0.18295 1.02006 0.0
O151 O 0.33805 0.15154 0.04356 0.0
H152 H 0.37774 0.08642 0.98147 0.0
H153 H 0.38658 0.05782 0.94445 0.0
H154 H 0.35843 0.99913 0.99369 0.0
H155 H 0.34944 0.02798 1.03075 0.0
H156 H 0.42378 0.23076 0.09354 0.0
H157 H 0.43117 0.25581 0.13397 0.0
H158 H 0.35393 0.25937 0.14898 0.0
H159 H 0.34661 0.23393 0.10904 0.0
Ho160 Ho 0.15344 0.90108 0.28317 0.0
Ho161 Ho 0.10025 0.89139 0.27021 0.0
C162 C 0.11819 0.88032 0.33127 0.0
C163 C 0.19528 0.91459 0.30206 0.0
C164 C 0.21451 0.90588 0.32054 0.0
C165 C 0.23838 0.91368 0.31609 0.0
C166 C 0.25704 0.90638 0.33364 0.0
C167 C 0.25217 0.89115 0.35609 0.0
C168 C 0.22824 0.88283 0.36011 0.0
C169 C 0.20953 0.89013 0.34244 0.0
C170 C 0.14507 0.85839 0.25765 0.0
C171 C 0.13407 0.92 0.22556 0.0
C172 C 0.06024 0.87633 0.24755 0.0
C173 C 0.0435 0.88215 0.22448 0.0
C174 C 0.0498 0.87775 0.19693 0.0
C175 C 0.03301 0.88201 0.17574 0.0
C176 C 1.00958 0.89084 0.1816 0.0
C177 C 1.00338 0.89513 0.20916 0.0
C178 C 0.02005 0.89078 0.23026 0.0
C179 C 0.10944 0.93573 0.29272 0.0
O180 O 0.1386 0.89144 0.32467 0.0
O181 O 0.10123 0.87519 0.31283 0.0
O182 O 0.19254 0.90254 0.27925 0.0
O183 O 0.17457 0.92075 0.31322 0.0
O184 O 0.16439 0.87138 0.25461 0.0
O185 O 0.13182 0.86751 0.27617 0.0
O186 O 0.1146 0.90621 0.22953 0.0
O187 O 0.14973 0.92386 0.24563 0.0
O188 O 0.06088 0.89153 0.26811 0.0
O189 O 0.08174 0.86772 0.24158 0.0
O190 O 0.08959 0.92352 0.29658 0.0
O191 O 0.12207 0.92455 0.27547 0.0
H192 H 0.24258 0.92565 0.29912 0.0
H193 H 0.2753 0.9128 0.32971 0.0
H194 H 0.22385 0.87125 0.37735 0.0
H195 H 0.19119 0.88379 0.3461 0.0
H196 H 0.06763 0.87087 0.19169 0.0
H197 H 0.03846 0.87866 0.15476 0.0
H198 H 0.9854 0.90151 0.21454 0.0
H199 H 0.01447 0.89391 0.25125 0.0
Ho200 Ho 0.37015 0.90623 0.53124 0.0
Ho201 Ho 0.37885 0.8524 0.51933 0.0
C202 C 0.39135 0.8715 0.58015 0.0
C203 C 0.35663 0.94769 0.5506 0.0
C204 C 0.36493 0.96567 0.57098 0.0
C205 C 0.34946 0.97197 0.59263 0.0
C206 C 0.35608 0.99011 0.61113 0.0
C207 C 0.37826 1.00255 0.60821 0.0
C208 C 0.39402 0.99583 0.58688 0.0
C209 C 0.38744 0.97755 0.56843 0.0
C210 C 0.41251 0.89676 0.50572 0.0
C211 C 0.35237 0.88653 0.47314 0.0
C212 C 0.39534 0.81281 0.49737 0.0
C213 C 0.39076 0.79729 0.4733 0.0
C214 C 0.40924 0.78187 0.46392 0.0
C215 C 0.40511 0.7662 0.44181 0.0
C216 C 0.38235 0.76561 0.42872 0.0
C217 C 0.3641 0.7817 0.43768 0.0
C218 C 0.36829 0.79745 0.45972 0.0
C219 C 0.33412 0.86268 0.54025 0.0
O220 O 0.38232 0.8927 0.57257 0.0
O221 O 0.39383 0.85324 0.56264 0.0
O222 O 0.36979 0.94523 0.52848 0.0
O223 O 0.34863 0.92696 0.5601 0.0
O224 O 0.40011 0.91651 0.50274 0.0
O225 O 0.40309 0.88383 0.52443 0.0
O226 O 0.36406 0.86598 0.47841 0.0
O227 O 0.34939 0.90343 0.49204 0.0
O228 O 0.3786 0.81321 0.51639 0.0
O229 O 0.40418 0.83432 0.49228 0.0
O230 O 0.3453 0.84211 0.54346 0.0
O231 O 0.34629 0.87525 0.52375 0.0
H232 H 0.33205 0.96306 0.59505 0.0
H233 H 0.34374 0.99446 0.62769 0.0
H234 H 0.41117 1.00511 0.58399 0.0
H235 H 0.39979 0.97308 0.55193 0.0
H236 H 0.42676 0.78161 0.47404 0.0
H237 H 0.41946 0.75392 0.43565 0.0
H238 H 0.34646 0.78192 0.42782 0.0
H239 H 0.35388 0.80946 0.46641 0.0
Ho240 Ho 0.36398 0.11987 0.78208 0.0
Ho241 Ho 0.41796 0.13 0.76938 0.0
C242 C 0.39842 0.14302 0.82994 0.0
C243 C 0.32272 0.10495 0.8009 0.0
C244 C 0.30344 0.11324 0.81946 0.0
C245 C 0.27941 0.10663 0.81374 0.0
C246 C 0.26059 0.11399 0.83097 0.0
C247 C 0.26547 0.12806 0.85437 0.0
C248 C 0.2896 0.1351 0.85977 0.0
C249 C 0.30846 0.12776 0.84241 0.0
C250 C 0.37244 0.16245 0.75679 0.0
C251 C 0.38376 0.10314 0.72369 0.0
C252 C 0.45714 0.147 0.74684 0.0
C253 C 0.47329 0.14199 0.72333 0.0
C254 C 0.47621 0.11846 0.71286 0.0
C255 C 0.49271 0.11406 0.69156 0.0
C256 C 0.50652 0.13311 0.68019 0.0
C257 C 0.50284 0.15677 0.69014 0.0
C258 C 0.48643 0.16112 0.71152 0.0
C259 C 0.40889 0.08516 0.79051 0.0
O260 O 0.37757 0.13278 0.823 0.0
O261 O 0.41646 0.14598 0.81217 0.0
O262 O 0.32499 0.11726 0.77817 0.0
O263 O 0.34365 0.09915 0.8119 0.0
O264 O 0.35266 0.14999 0.75425 0.0
O265 O 0.38578 0.15303 0.77507 0.0
O266 O 0.40402 0.11545 0.7286 0.0
O267 O 0.36735 0.09925 0.74294 0.0
O268 O 0.45721 0.13131 0.76697 0.0
O269 O 0.43531 0.15471 0.74094 0.0
O270 O 0.42936 0.09666 0.79324 0.0
O271 O 0.39575 0.09707 0.77429 0.0
H272 H 0.27519 0.09565 0.79594 0.0
H273 H 0.24219 0.10859 0.82599 0.0
H274 H 0.29399 0.14572 0.87777 0.0
H275 H 0.32691 0.1332 0.84704 0.0
H276 H 0.46602 0.10345 0.72142 0.0
H277 H 0.49483 0.09568 0.68414 0.0
H278 H 0.51328 0.17181 0.68209 0.0
H279 H 0.48436 0.17944 0.71922 0.0
Ho280 Ho 0.14965 0.11241 1.02812 0.0
Ho281 Ho 0.13757 0.16602 1.01591 0.0
C282 C 0.1285 0.14662 0.07698 0.0
C283 C 0.16602 0.07132 0.0458 0.0
C284 C 0.16402 0.055 0.0695 0.0
C285 C 0.18443 0.04156 0.07742 0.0
C286 C 0.18279 0.02468 0.09864 0.0
C287 C 0.16063 0.02088 0.11229 0.0
C288 C 0.1402 0.03458 0.10451 0.0
C289 C 0.14191 0.05161 0.08333 0.0
C290 C 0.10649 0.11998 1.00336 0.0
C291 C 0.164 0.13236 0.969 0.0
C292 C 0.11989 0.20492 0.99351 0.0
C293 C 0.12587 0.22165 0.97079 0.0
C294 C 0.10717 0.23458 0.95776 0.0
C295 C 0.11244 0.25131 0.93694 0.0
C296 C 0.13659 0.25552 0.92883 0.0
C297 C 0.15523 0.24194 0.94142 0.0
C298 C 0.14992 0.22512 0.96211 0.0
C299 C 0.18302 0.15768 0.03573 0.0
O300 O 0.14107 0.12715 0.07 0.0
O301 O 0.12155 0.16307 0.05867 0.0
O302 O 0.14667 0.07353 1.03046 0.0
O303 O 0.17735 0.0919 0.04967 0.0
O304 O 0.11997 0.10104 0.99974 0.0
O305 O 0.11555 0.13326 1.02196 0.0
O306 O 0.15219 0.15272 0.97486 0.0
O307 O 0.16785 0.11528 0.98748 0.0
O308 O 0.13434 0.20514 1.01485 0.0
O309 O 0.11346 0.18298 0.98647 0.0
O310 O 0.17124 0.17788 0.03911 0.0
O311 O 0.17114 0.14472 1.01943 0.0
H312 H 0.2016 0.04385 0.06687 0.0
H313 H 0.19878 0.01425 0.10403 0.0
H314 H 0.12299 0.03225 0.11492 0.0
H315 H 0.12592 0.06189 0.07757 0.0
H316 H 0.08846 0.23206 0.96404 0.0
H317 H 0.09768 0.26155 0.92789 0.0
H318 H 0.17399 0.24448 0.93541 0.0
H319 H 0.16462 0.21509 0.9716 0.0
Ho320 Ho 0.91956 0.8915 0.76857 0.0
Ho321 Ho 0.86689 0.90781 0.7787 0.0
C322 C 0.89124 0.92507 0.72285 0.0
C323 C 0.95762 0.8714 0.7468 0.0
C324 C 0.97461 0.87614 0.72398 0.0
C325 C 0.9769 0.89936 0.71249 0.0
C326 C 0.9938 0.90365 0.69156 0.0
C327 C 1.00868 0.88479 0.68159 0.0
C328 C 1.00572 0.8614 0.69262 0.0
C329 C 0.98889 0.85716 0.71364 0.0
C330 C 0.91506 0.93643 0.79115 0.0
C331 C 0.89571 0.879 0.82723 0.0
C332 C 0.82699 0.92742 0.7957 0.0
C333 C 0.80757 0.92313 0.81564 0.0
C334 C 0.78924 0.94053 0.81841 0.0
C335 C 0.7706 0.93717 0.83736 0.0
C336 C 0.76996 0.91631 0.85393 0.0
C337 C 0.78818 0.89861 0.85073 0.0
C338 C 0.80692 0.90203 0.83171 0.0
C339 C 0.87159 0.8656 0.75137 0.0
O340 O 0.90908 0.90932 0.72762 0.0
O341 O 0.87468 0.92979 0.74164 0.0
O342 O 0.95855 0.88626 0.76769 0.0
O343 O 0.93534 0.86598 0.73989 0.0
O344 O 0.93334 0.92202 0.79559 0.0
O345 O 0.90152 0.92667 0.77365 0.0
O346 O 0.87699 0.89244 0.81964 0.0
O347 O 0.914 0.87399 0.81036 0.0
O348 O 0.82807 0.91223 0.77517 0.0
O349 O 0.8484 0.93283 0.80569 0.0
O350 O 0.85413 0.88097 0.7475 0.0
O351 O 0.88465 0.8724 0.77129 0.0
H352 H 0.96583 0.91422 0.71991 0.0
H353 H 0.99534 0.92181 0.68329 0.0
H354 H 0.01698 0.84652 0.68565 0.0
H355 H 0.98729 0.83907 0.72213 0.0
H356 H 0.78941 0.95682 0.80598 0.0
H357 H 0.75668 0.95097 0.83913 0.0
H358 H 0.78828 0.88248 0.8634 0.0
H359 H 0.82097 0.88839 0.82971 0.0
Ho360 Ho 0.87355 0.1684 0.51075 0.0
Ho361 Ho 0.86567 0.1145 0.52166 0.0
C362 C 0.84814 0.1343 0.46358 0.0
C363 C 0.88932 0.20864 0.48937 0.0
C364 C 0.88527 0.22461 0.46541 0.0
C365 C 0.90453 0.2389 0.45572 0.0
C366 C 0.90103 0.25521 0.43403 0.0
C367 C 0.87809 0.25764 0.42157 0.0
C368 C 0.85898 0.24268 0.43082 0.0
C369 C 0.86254 0.22629 0.45247 0.0
C370 C 0.82892 0.15756 0.53146 0.0
C371 C 0.88604 0.14869 0.57146 0.0
C372 C 0.85396 0.07179 0.53926 0.0
C373 C 0.85993 0.05628 0.56282 0.0
C374 C 0.86549 0.06632 0.58847 0.0
C375 C 0.87103 0.05126 0.61063 0.0
C376 C 0.87096 0.02586 0.60759 0.0
C377 C 0.86587 0.01592 0.58168 0.0
C378 C 0.86042 0.03104 0.55949 0.0
C379 C 0.90713 0.12511 0.49489 0.0
O380 O 0.859 0.15515 0.46956 0.0
O381 O 0.84573 0.11681 0.4819 0.0
O382 O 0.87216 0.2076 0.50786 0.0
O383 O 0.89887 0.18742 0.48438 0.0
O384 O 0.84017 0.17799 0.53535 0.0
O385 O 0.84107 0.14515 0.5147 0.0
O386 O 0.87669 0.12774 0.56357 0.0
O387 O 0.88881 0.16704 0.55406 0.0
O388 O 0.87174 0.07577 0.52216 0.0
O389 O 0.84116 0.09132 0.54427 0.0
O390 O 0.89419 0.10588 0.49085 0.0
O391 O 0.89839 0.13728 0.51468 0.0
H392 H 0.92225 0.23782 0.46534 0.0
H393 H 0.91608 0.26654 0.42771 0.0
H394 H 0.84117 0.2438 0.42147 0.0
H395 H 0.84747 0.21523 0.45937 0.0
H396 H 0.86529 0.08576 0.59145 0.0
H397 H 0.87515 0.05952 0.63023 0.0
H398 H 0.86536 0.99646 0.57873 0.0
H399 H 0.85628 0.02299 0.53977 0.0
Ho400 Ho 0.59341 0.12144 0.26764 0.0
Ho401 Ho 0.64796 0.11778 0.27952 0.0
C402 C 0.62802 0.09739 0.22156 0.0
C403 C 0.55114 0.13233 0.24768 0.0
C404 C 0.53871 0.13674 0.22099 0.0
C405 C 0.53203 0.16042 0.2134 0.0
C406 C 0.51737 0.16452 0.19035 0.0
C407 C 0.50884 0.14503 0.17434 0.0
C408 C 0.51642 0.12143 0.18127 0.0
C409 C 0.5311 0.11733 0.20431 0.0
C410 C 0.60745 0.07971 0.29308 0.0
C411 C 0.61264 0.13193 0.32856 0.0
C412 C 0.69311 0.10751 0.28855 0.0
C413 C 0.7129 0.11514 0.30729 0.0
C414 C 0.72055 0.09918 0.32799 0.0
C415 C 0.73927 0.10562 0.34585 0.0
C416 C 0.75115 0.1281 0.3433 0.0
C417 C 0.74355 0.14411 0.3225 0.0
C418 C 0.72463 0.13769 0.30465 0.0
C419 C 0.63145 0.16252 0.26444 0.0
O420 O 0.6063 0.10652 0.22706 0.0
O421 O 0.64633 0.09876 0.23906 0.0
O422 O 0.55817 0.11014 0.253 0.0
O423 O 0.56668 0.14865 0.25637 0.0
O424 O 0.587 0.09077 0.2976 0.0
O425 O 0.61862 0.09113 0.27469 0.0
O426 O 0.63256 0.12016 0.32169 0.0
O427 O 0.59622 0.1385 0.31003 0.0
O428 O 0.68599 0.12279 0.26959 0.0
O429 O 0.67496 0.09594 0.29996 0.0
O430 O 0.64781 0.1588 0.28313 0.0
O431 O 0.62522 0.14234 0.25486 0.0
H432 H 0.53748 0.17577 0.22582 0.0
H433 H 0.51224 0.18298 0.18544 0.0
H434 H 0.51004 0.10594 0.16969 0.0
H435 H 0.53571 0.09881 0.20957 0.0
H436 H 0.71194 0.08164 0.33045 0.0
H437 H 0.74422 0.093 0.36193 0.0
H438 H 0.75242 0.16148 0.3198 0.0
H439 H 0.7193 0.15036 0.28878 0.0
Ho440 Ho 0.64697 0.84877 1.01603 0.0
Ho441 Ho 0.65778 0.90221 1.02911 0.0
C442 C 0.67453 0.88274 0.97051 0.0
C443 C 0.62856 0.81031 0.99348 0.0
C444 C 0.63285 0.79416 0.96991 0.0
C445 C 0.61383 0.77951 0.96031 0.0
C446 C 0.61763 0.76324 0.93872 0.0
C447 C 0.64062 0.76126 0.92637 0.0
C448 C 0.65946 0.77658 0.93552 0.0
C449 C 0.65559 0.79293 0.95706 0.0
C450 C 0.69221 0.85689 0.03665 0.0
C451 C 0.6353 0.86765 0.07712 0.0
C452 C 0.67234 0.94342 0.04821 0.0
C453 C 0.66607 0.96014 0.07058 0.0
C454 C 0.66189 0.95178 0.09736 0.0
C455 C 0.65716 0.96827 0.11843 0.0
C456 C 0.6563 0.9933 0.11299 0.0
C457 C 0.65973 1.00151 0.08602 0.0
C458 C 0.66467 0.98505 0.06502 0.0
C459 C 0.61511 0.89415 1.00362 0.0
O460 O 0.66158 0.86283 0.97521 0.0
O461 O 0.67841 0.89897 0.98998 0.0
O462 O 0.64451 0.80966 1.01337 0.0
O463 O 0.62161 0.83237 0.98763 0.0
O464 O 0.6806 0.83647 0.03898 0.0
O465 O 0.68028 0.8704 1.02087 0.0
O466 O 0.64589 0.88831 0.07027 0.0
O467 O 0.63159 0.85001 0.05908 0.0
O468 O 0.65629 0.94141 1.02859 0.0
O469 O 0.68204 0.92261 0.0551 0.0
O470 O 0.62843 0.9132 1.00002 0.0
O471 O 0.62416 0.881 1.02233 0.0
H472 H 0.5961 0.78034 0.9699 0.0
H473 H 0.60282 0.75158 0.93239 0.0
H474 H 0.67729 0.77573 0.92622 0.0
H475 H 0.67043 0.80433 0.96393 0.0
H476 H 0.66261 0.9326 0.10211 0.0
H477 H 0.65432 0.96147 0.13902 0.0
H478 H 0.65938 0.02071 0.08134 0.0
H479 H 0.66779 0.99181 0.04447 0.0
Ho480 Ho 0.91882 0.12628 0.79579 0.0
Ho481 Ho 0.86502 0.11514 0.7859 0.0
C482 C 0.88624 0.10066 0.8444 0.0
C483 C 0.95808 0.14451 0.81693 0.0
C484 C 0.97413 0.13956 0.84055 0.0
C485 C 0.98882 0.15817 0.85106 0.0
C486 C 1.00458 0.15374 0.87309 0.0
C487 C 1.00601 0.13054 0.88496 0.0
C488 C 0.9907 0.1121 0.87481 0.0
C489 C 0.97487 0.11659 0.85289 0.0
C490 C 0.90994 0.08053 0.77794 0.0
C491 C 0.89837 0.13315 0.73448 0.0
C492 C 0.82248 0.10095 0.77016 0.0
C493 C 0.80618 0.10586 0.74709 0.0
C494 C 0.81534 0.1126 0.72139 0.0
C495 C 0.79945 0.11758 0.69982 0.0
C496 C 0.77418 0.11602 0.70369 0.0
C497 C 0.7651 0.10971 0.72962 0.0
C498 C 0.78102 0.10463 0.75116 0.0
C499 C 0.87397 0.15865 0.80904 0.0
O500 O 0.90659 0.11215 0.83765 0.0
O501 O 0.86867 0.09685 0.82647 0.0
O502 O 0.9581 0.12856 0.79706 0.0
O503 O 0.93623 0.15204 0.8229 0.0
O504 O 0.93016 0.09209 0.77369 0.0
O505 O 0.89706 0.09287 0.79398 0.0
O506 O 0.87838 0.12228 0.74305 0.0
O507 O 0.91605 0.13945 0.75165 0.0
O508 O 0.82602 0.11922 0.78667 0.0
O509 O 0.84249 0.08909 0.76468 0.0
O510 O 0.85522 0.14531 0.81411 0.0
O511 O 0.88647 0.14909 0.79007 0.0
H512 H 0.98836 0.17609 0.84195 0.0
H513 H 0.01623 0.16827 0.88021 0.0
H514 H 0.9911 0.09411 0.88372 0.0
H515 H 0.9634 0.10206 0.84538 0.0
H516 H 0.83473 0.11397 0.71796 0.0
H517 H 0.80692 0.12264 0.68009 0.0
H518 H 0.74573 0.10813 0.73307 0.0
H519 H 0.7737 0.09964 0.77098 0.0
Ho520 Ho 0.63928 0.17137 0.54832 0.0
Ho521 Ho 0.65134 0.11888 0.53644 0.0
C522 C 0.67083 0.13998 0.59273 0.0
C523 C 0.62172 0.21017 0.57099 0.0
C524 C 0.62663 0.22533 0.59522 0.0
C525 C 0.60841 0.24075 0.60521 0.0
C526 C 0.61297 0.25603 0.62755 0.0
C527 C 0.63592 0.25621 0.64023 0.0
C528 C 0.6539 0.24012 0.63067 0.0
C529 C 0.64928 0.22476 0.60841 0.0
C530 C 0.68372 0.1649 0.52475 0.0
C531 C 0.62543 0.15117 0.48874 0.0
C532 C 0.66608 0.07749 0.51809 0.0
C533 C 0.65936 0.06036 0.49636 0.0
C534 C 0.65111 0.06848 0.47073 0.0
C535 C 0.6461 0.05183 0.44993 0.0
C536 C 0.64916 0.02682 0.4545 0.0
C537 C 0.65646 0.01874 0.48054 0.0
C538 C 0.66157 0.03541 0.50129 0.0
C539 C 0.60982 0.12582 0.5647 0.0
O540 O 0.65615 0.15878 0.58883 0.0
O541 O 0.67443 0.12382 0.57324 0.0
O542 O 0.638 0.21051 0.5515 0.0
O543 O 0.61366 0.18834 0.57595 0.0
O544 O 0.66983 0.18362 0.52064 0.0
O545 O 0.67368 0.15147 0.54223 0.0
O546 O 0.6373 0.13123 0.49554 0.0
O547 O 0.62168 0.16897 0.5065 0.0
O548 O 0.65049 0.07971 0.53808 0.0
O549 O 0.67528 0.09828 0.51028 0.0
O550 O 0.62459 0.10792 0.56866 0.0
O551 O 0.61702 0.13853 0.54469 0.0
H552 H 0.59075 0.2413 0.59538 0.0
H553 H 0.59883 0.26833 0.63423 0.0
H554 H 0.67167 0.23961 0.6402 0.0
H555 H 0.66348 0.21274 0.60125 0.0
H556 H 0.64903 0.08766 0.4666 0.0
H557 H 0.64027 0.05852 0.43011 0.0
H558 H 0.6592 0.9996 0.48452 0.0
H559 H 0.66778 0.02885 0.52103 0.0
Ho560 Ho 0.6029 0.89056 0.29968 0.0
Ho561 Ho 0.65597 0.90296 0.28823 0.0
C562 C 0.63489 0.92005 0.34577 0.0
C563 C 0.5639 0.87264 0.32192 0.0
C564 C 0.54819 0.87715 0.34601 0.0
C565 C 0.53347 0.8584 0.35618 0.0
C566 C 0.51742 0.86259 0.37801 0.0
C567 C 0.51568 0.88572 0.39003 0.0
C568 C 0.53113 0.90424 0.38036 0.0
C569 C 0.54725 0.89999 0.35863 0.0
C570 C 0.61027 0.93562 0.27855 0.0
C571 C 0.62216 0.88231 0.23865 0.0
C572 C 0.69759 0.9184 0.27072 0.0
C573 C 0.71454 0.91525 0.24766 0.0
C574 C 0.72614 0.93576 0.23693 0.0
C575 C 0.74307 0.93343 0.21583 0.0
C576 C 0.74882 0.91049 0.20506 0.0
C577 C 0.73718 0.88989 0.21585 0.0
C578 C 0.72008 0.89225 0.23692 0.0
C579 C 0.6486 0.86011 0.31362 0.0
O580 O 0.61568 0.90612 0.34081 0.0
O581 O 0.65158 0.92386 0.32683 0.0
O582 O 0.56366 0.88901 0.3025 0.0
O583 O 0.5858 0.86467 0.32702 0.0
O584 O 0.59106 0.92259 0.27382 0.0
O585 O 0.6233 0.92468 0.2957 0.0
O586 O 0.64188 0.8942 0.24621 0.0
O587 O 0.60522 0.87564 0.25647 0.0
O588 O 0.69505 0.90008 0.28747 0.0
O589 O 0.67703 0.92934 0.2654 0.0
O590 O 0.66676 0.87438 0.31833 0.0
O591 O 0.63577 0.86852 0.29425 0.0
H592 H 0.53401 0.84058 0.34684 0.0
H593 H 0.50571 0.84798 0.38474 0.0
H594 H 0.53054 0.92218 0.38937 0.0
H595 H 0.55865 0.91466 0.35139 0.0
H596 H 0.72224 0.95362 0.24507 0.0
H597 H 0.7519 0.94961 0.20814 0.0
H598 H 0.74104 0.87202 0.20773 0.0
H599 H 0.7113 0.87613 0.24485 0.0
Ho600 Ho 0.88228 0.85014 0.04985 0.0
Ho601 Ho 0.86828 0.90136 0.03354 0.0
C602 C 0.85018 0.8837 0.09189 0.0
C603 C 0.9002 0.81271 0.07511 0.0
C604 C 0.89367 0.79512 0.09704 0.0
C605 C 0.88471 0.77209 0.09 0.0
C606 C 0.87952 0.75491 0.11025 0.0
C607 C 0.88329 0.76016 0.13816 0.0
C608 C 0.8926 0.78308 0.14527 0.0
C609 C 0.89773 0.80036 0.12494 0.0
C610 C 0.83716 0.85355 1.02691 0.0
C611 C 0.89386 0.86656 0.98857 0.0
C612 C 0.8528 0.94104 1.01106 0.0
C613 C 0.86153 0.9596 0.99168 0.0
C614 C 0.84484 0.97079 0.97406 0.0
C615 C 0.85231 0.98927 0.95638 0.0
C616 C 0.87667 0.99709 0.95604 0.0
C617 C 0.89348 0.9855 0.97343 0.0
C618 C 0.88598 0.9669 0.99107 0.0
C619 C 0.9115 0.89731 0.06002 0.0
O620 O 0.86577 0.86541 0.08939 0.0
O621 O 0.84521 0.89786 0.07077 0.0
O622 O 0.88812 0.81136 0.05204 0.0
O623 O 0.9045 0.83514 0.08238 0.0
O624 O 0.85149 0.835 1.02438 0.0
O625 O 0.84709 0.86853 0.04279 0.0
O626 O 0.87922 0.88502 0.99323 0.0
O627 O 0.90119 0.85203 1.0086 0.0
O628 O 0.86359 0.94019 0.0349 0.0
O629 O 0.84841 0.9195 1.00101 0.0
O630 O 0.89697 0.9156 0.06222 0.0
O631 O 0.90338 0.88302 0.04204 0.0
H632 H 0.88187 0.76721 0.06873 0.0
H633 H 0.87281 0.7373 0.10395 0.0
H634 H 0.89561 0.78777 0.16655 0.0
H635 H 0.90497 0.81779 0.13112 0.0
H636 H 0.82593 0.96534 0.97411 0.0
H637 H 0.83897 0.99734 0.94283 0.0
H638 H 0.91233 0.99111 0.97381 0.0
H639 H 0.89922 0.95844 1.00446 0.0
Ho640 Ho 0.65458 0.61367 0.78789 0.0
Ho641 Ho 0.60108 0.62351 0.80081 0.0
C642 C 0.61948 0.63567 0.73983 0.0
C643 C 0.69559 0.59846 0.76872 0.0
C644 C 0.71263 0.60347 0.74628 0.0
C645 C 0.72662 0.58435 0.73599 0.0
C646 C 0.74341 0.58847 0.71514 0.0
C647 C 0.74657 0.61185 0.70419 0.0
C648 C 0.73268 0.63111 0.71469 0.0
C649 C 0.7157 0.62693 0.73554 0.0
C650 C 0.6464 0.65589 0.81377 0.0
C651 C 0.63558 0.5968 0.84662 0.0
C652 C 0.5616 0.64001 0.82329 0.0
C653 C 0.54642 0.63625 0.84792 0.0
C654 C 0.5319 0.65536 0.85757 0.0
C655 C 0.51607 0.65189 0.87971 0.0
C656 C 0.51434 0.62914 0.89263 0.0
C657 C 0.52964 0.61027 0.88351 0.0
C658 C 0.54554 0.61379 0.86143 0.0
C659 C 0.61051 0.57921 0.77889 0.0
O660 O 0.6407 0.62618 0.74669 0.0
O661 O 0.60159 0.63853 0.75774 0.0
O662 O 0.69369 0.61512 0.78764 0.0
O663 O 0.67466 0.58889 0.76193 0.0
O664 O 0.66576 0.64284 0.81678 0.0
O665 O 0.63299 0.64702 0.79514 0.0
O666 O 0.61485 0.60823 0.84141 0.0
O667 O 0.65252 0.59397 0.82775 0.0
O668 O 0.56194 0.62258 0.8051 0.0
O669 O 0.58307 0.6495 0.82725 0.0
O670 O 0.59062 0.59132 0.77455 0.0
O671 O 0.62309 0.59054 0.79613 0.0
H672 H 0.7246 0.56619 0.74417 0.0
H673 H 0.75404 0.57333 0.70763 0.0
H674 H 0.73461 0.64924 0.70642 0.0
H675 H 0.705 0.64194 0.74323 0.0
H676 H 0.53237 0.67288 0.8475 0.0
H677 H 0.50446 0.66674 0.88597 0.0
H678 H 0.52905 0.59261 0.89321 0.0
H679 H 0.55679 0.59885 0.85457 0.0
Ho680 Ho 0.65776 0.39947 0.03791 0.0
Ho681 Ho 0.65215 0.34613 0.05145 0.0
C682 C 0.63857 0.36257 0.99033 0.0
C683 C 0.66979 0.44131 1.01809 0.0
C684 C 0.66058 0.45973 0.99891 0.0
C685 C 0.66644 0.48408 1.00364 0.0
C686 C 0.65846 0.5021 0.98568 0.0
C687 C 0.64449 0.49612 0.96249 0.0
C688 C 0.63816 0.47167 0.95811 0.0
C689 C 0.64613 0.45359 0.97621 0.0
C690 C 0.61663 0.38947 0.06545 0.0
C691 C 0.67459 0.38265 0.09659 0.0
C692 C 0.64141 0.30422 0.07261 0.0
C693 C 0.63646 0.29195 0.09922 0.0
C694 C 0.61258 0.28536 0.10616 0.0
C695 C 0.60796 0.27059 0.12895 0.0
C696 C 0.62714 0.26187 0.14535 0.0
C697 C 0.65094 0.26936 0.1391 0.0
C698 C 0.65556 0.28413 0.1163 0.0
C699 C 0.695 0.35848 1.02734 0.0
O700 O 0.64461 0.38488 0.99745 0.0
O701 O 0.63904 0.34418 1.00778 0.0
O702 O 0.65738 0.43858 0.04067 0.0
O703 O 0.67714 0.42068 1.0077 0.0
O704 O 0.62842 0.4097 0.0669 0.0
O705 O 0.62576 0.37605 0.047 0.0
O706 O 0.66157 0.36277 0.09267 0.0
O707 O 0.67951 0.39767 0.07632 0.0
O708 O 0.6636 0.31147 0.06778 0.0
O709 O 0.62515 0.31944 0.06329 0.0
O710 O 0.6833 0.33851 1.02252 0.0
O711 O 0.68377 0.37011 0.04549 0.0
H712 H 0.67736 0.48917 1.02122 0.0
H713 H 0.66332 0.52077 0.98991 0.0
H714 H 0.62759 0.46644 0.94034 0.0
H715 H 0.64126 0.43487 0.97232 0.0
H716 H 0.59745 0.29092 0.09339 0.0
H717 H 0.58936 0.26551 0.13332 0.0
H718 H 0.66621 0.26282 0.15103 0.0
H719 H 0.67423 0.28863 0.11149 0.0
Ho720 Ho 0.87158 0.40743 0.28448 0.0
Ho721 Ho 0.9233 0.39249 0.29788 0.0
C722 C 0.90552 0.38558 0.23607 0.0
C723 C 0.83131 0.42381 0.26434 0.0
C724 C 0.81181 0.41467 0.24645 0.0
C725 C 0.80241 0.42987 0.22604 0.0
C726 C 0.78376 0.42179 0.20893 0.0
C727 C 0.77397 0.39836 0.21201 0.0
C728 C 0.7836 0.38307 0.2324 0.0
C729 C 0.80241 0.39112 0.24942 0.0
C730 C 0.87577 0.36325 0.30841 0.0
C731 C 0.89206 0.42457 0.34223 0.0
C732 C 0.9611 0.37275 0.32066 0.0
C733 C 0.97954 0.37792 0.34215 0.0
C734 C 0.97397 0.37689 0.37032 0.0
C735 C 0.99205 0.38104 0.3901 0.0
C736 C 0.01601 0.3864 0.38214 0.0
C737 C 0.02153 0.38707 0.354 0.0
C738 C 1.00358 0.3828 0.33431 0.0
C739 C 0.9195 0.43813 0.2768 0.0
O740 O 0.88665 0.39896 0.24294 0.0
O741 O 0.92102 0.37726 0.25468 0.0
O742 O 0.83311 0.41394 0.28861 0.0
O743 O 0.85243 0.42725 0.25276 0.0
O744 O 0.85766 0.37781 0.31178 0.0
O745 O 0.88989 0.37183 0.29046 0.0
O746 O 0.91007 0.4088 0.3386 0.0
O747 O 0.87699 0.42977 0.32197 0.0
O748 O 0.96207 0.38588 0.29836 0.0
O749 O 0.93876 0.36856 0.32851 0.0
O750 O 0.93824 0.42412 0.27363 0.0
O751 O 0.90501 0.42777 0.29284 0.0
H752 H 0.80955 0.44802 0.22329 0.0
H753 H 0.77721 0.43386 0.19303 0.0
H754 H 0.77642 0.36498 0.23543 0.0
H755 H 0.80949 0.37898 0.26495 0.0
H756 H 0.95568 0.3729 0.37711 0.0
H757 H 0.98719 0.38051 0.4116 0.0
H758 H 0.03988 0.39075 0.34714 0.0
H759 H 1.00857 0.38325 0.31284 0.0
Ho760 Ho 0.86945 0.62077 0.53696 0.0
Ho761 Ho 0.87683 0.67486 0.54642 0.0
C762 C 0.89195 0.65378 0.48769 0.0
C763 C 0.8582 0.57765 0.5202 0.0
C764 C 0.86453 0.56111 0.49767 0.0
C765 C 0.87103 0.56996 0.47174 0.0
C766 C 0.87585 0.55386 0.45031 0.0
C767 C 0.8742 0.52863 0.45441 0.0
C768 C 0.86845 0.51987 0.48068 0.0
C769 C 0.86364 0.53601 0.5021 0.0
C770 C 0.90958 0.63213 0.56569 0.0
C771 C 0.8477 0.64256 0.5922 0.0
C772 C 0.89015 0.71702 0.56474 0.0
C773 C 0.88622 0.73381 0.58794 0.0
C774 C 0.88245 0.75841 0.58212 0.0
C775 C 0.87878 0.77508 0.60323 0.0
C776 C 0.87884 0.7676 0.63079 0.0
C777 C 0.88307 0.74297 0.63675 0.0
C778 C 0.88662 0.72616 0.61547 0.0
C779 C 0.83395 0.66329 0.52184 0.0
O780 O 0.88204 0.63308 0.49545 0.0
O781 O 0.89435 0.67237 0.50469 0.0
O782 O 0.87538 0.58197 0.53802 0.0
O783 O 0.84589 0.59714 0.51369 0.0
O784 O 0.89661 0.61297 0.57001 0.0
O785 O 0.9016 0.64377 0.5452 0.0
O786 O 0.86031 0.66268 0.58728 0.0
O787 O 0.84627 0.62502 0.57384 0.0
O788 O 0.87187 0.71382 0.54805 0.0
O789 O 0.90217 0.697 0.56941 0.0
O790 O 0.84673 0.68245 0.51624 0.0
O791 O 0.84452 0.65178 0.54068 0.0
H792 H 0.87195 0.58927 0.46793 0.0
H793 H 0.88053 0.56118 0.43039 0.0
H794 H 0.86679 0.50059 0.48443 0.0
H795 H 0.85872 0.52887 0.52204 0.0
H796 H 0.88231 0.76477 0.5611 0.0
H797 H 0.87593 0.79395 0.59794 0.0
H798 H 0.88308 0.73665 0.65777 0.0
H799 H 0.88953 0.70726 0.62053 0.0
Ho800 Ho 0.6556 0.40014 0.78189 0.0
Ho801 Ho 0.60206 0.39083 0.76981 0.0
C802 C 0.62098 0.37809 0.83013 0.0
C803 C 0.6972 0.41409 0.80079 0.0
C804 C 0.71608 0.4052 0.8196 0.0
C805 C 0.74044 0.40997 0.81339 0.0
C806 C 0.75892 0.40186 0.8307 0.0
C807 C 0.75339 0.38888 0.85471 0.0
C808 C 0.7289 0.38368 0.86063 0.0
C809 C 0.71037 0.39174 0.84316 0.0
C810 C 0.64687 0.35759 0.75676 0.0
C811 C 0.63603 0.417 0.72367 0.0
C812 C 0.56185 0.37553 0.74797 0.0
C813 C 0.54672 0.38027 0.72353 0.0
C814 C 0.54604 0.40322 0.7111 0.0
C815 C 0.53034 0.40763 0.68903 0.0
C816 C 0.51512 0.38914 0.67885 0.0
C817 C 0.51659 0.36594 0.69073 0.0
C818 C 0.5322 0.3616 0.71288 0.0
C819 C 0.612 0.43508 0.79181 0.0
O820 O 0.64203 0.3878 0.82316 0.0
O821 O 0.60297 0.37512 0.81242 0.0
O822 O 0.69464 0.40174 0.77815 0.0
O823 O 0.67641 0.42071 0.81149 0.0
O824 O 0.6665 0.37017 0.75383 0.0
O825 O 0.63367 0.36691 0.77521 0.0
O826 O 0.61569 0.405 0.72883 0.0
O827 O 0.65262 0.42076 0.74274 0.0
O828 O 0.5629 0.39266 0.76647 0.0
O829 O 0.58297 0.36546 0.74357 0.0
O830 O 0.59233 0.42283 0.79663 0.0
O831 O 0.6243 0.42384 0.77424 0.0
H832 H 0.74519 0.42008 0.7951 0.0
H833 H 0.77758 0.40581 0.82528 0.0
H834 H 0.724 0.37392 0.87908 0.0
H835 H 0.69165 0.38764 0.84818 0.0
H836 H 0.55733 0.41784 0.71874 0.0
H837 H 0.52988 0.42562 0.68012 0.0
H838 H 0.50501 0.35138 0.68359 0.0
H839 H 0.53255 0.34372 0.72212 0.0
Ho840 Ho 0.87392 0.40185 1.02479 0.0
Ho841 Ho 0.88384 0.34825 1.01453 0.0
C842 C 0.89659 0.36869 0.07427 0.0
C843 C 0.85954 0.44384 0.04193 0.0
C844 C 0.86344 0.46058 0.06494 0.0
C845 C 0.86796 0.45212 0.09159 0.0
C846 C 0.87062 0.46858 0.11318 0.0
C847 C 0.86894 0.49372 0.10842 0.0
C848 C 0.86511 0.50205 0.08155 0.0
C849 C 0.86234 0.4856 0.06002 0.0
C850 C 0.91552 0.39278 0.99779 0.0
C851 C 0.85673 0.381 0.9673 0.0
C852 C 0.89956 0.30813 0.99302 0.0
C853 C 0.89483 0.2932 0.96844 0.0
C854 C 0.91327 0.27818 0.95813 0.0
C855 C 0.90883 0.26286 0.93575 0.0
C856 C 0.88577 0.26221 0.92334 0.0
C857 C 0.8676 0.27802 0.93312 0.0
C858 C 0.87211 0.29341 0.95538 0.0
C859 C 0.83967 0.35823 0.03663 0.0
O860 O 0.88602 0.38914 0.06654 0.0
O861 O 0.90017 0.35048 0.05697 0.0
O862 O 0.878 0.44082 1.02548 0.0
O863 O 0.84798 0.4236 0.04714 0.0
O864 O 0.90191 0.41159 0.9938 0.0
O865 O 0.90741 0.38032 1.01765 0.0
O866 O 0.86809 0.36048 0.9735 0.0
O867 O 0.85407 0.39868 0.98523 0.0
O868 O 0.88234 0.3091 1.01146 0.0
O869 O 0.90957 0.32925 0.98871 0.0
O870 O 0.85229 0.33894 0.04232 0.0
O871 O 0.85062 0.37011 1.01847 0.0
H872 H 0.86912 0.43286 0.09576 0.0
H873 H 0.87384 0.46165 0.13365 0.0
H874 H 0.86348 0.52126 0.07729 0.0
H875 H 0.85894 0.49242 0.03954 0.0
H876 H 0.931 0.27789 0.96781 0.0
H877 H 0.92313 0.25081 0.92891 0.0
H878 H 0.84973 0.27818 0.9238 0.0
H879 H 0.85771 0.30512 0.96272 0.0
Ho880 Ho 0.86335 0.61529 0.27873 0.0
Ho881 Ho 0.9164 0.62805 0.26478 0.0
C882 C 0.89898 0.63537 0.32671 0.0
C883 C 0.82234 0.59975 0.29776 0.0
C884 C 0.80262 0.60853 0.31539 0.0
C885 C 0.77951 0.59821 0.31275 0.0
C886 C 0.76057 0.60562 0.3298 0.0
C887 C 0.76444 0.6235 0.34991 0.0
C888 C 0.78754 0.63431 0.35199 0.0
C889 C 0.8065 0.62689 0.33483 0.0
C890 C 0.87001 0.65946 0.25562 0.0
C891 C 0.88331 0.59836 0.22032 0.0
C892 C 0.95454 0.64716 0.24229 0.0
C893 C 0.97275 0.64208 0.2206 0.0
C894 C 0.96723 0.64469 0.19254 0.0
C895 C 0.98509 0.64069 0.17254 0.0
C896 C 1.00878 0.63393 0.18018 0.0
C897 C 0.01429 0.63171 0.20823 0.0
C898 C 0.99655 0.63582 0.22815 0.0
C899 C 0.91007 0.58242 0.28507 0.0
O900 O 0.8793 0.62298 0.32016 0.0
O901 O 0.91478 0.64288 0.30804 0.0
O902 O 0.82456 0.6106 0.27411 0.0
O903 O 0.84327 0.59567 0.30964 0.0
O904 O 0.85085 0.64625 0.2524 0.0
O905 O 0.88378 0.64961 0.27308 0.0
O906 O 0.90187 0.61345 0.22401 0.0
O907 O 0.86822 0.59332 0.24065 0.0
O908 O 0.95533 0.63358 0.26429 0.0
O909 O 0.93228 0.652 0.23458 0.0
O910 O 0.93028 0.59449 0.28673 0.0
O911 O 0.89593 0.59412 0.26985 0.0
H912 H 0.77617 0.58418 0.29765 0.0
H913 H 0.74292 0.5972 0.3274 0.0
H914 H 0.79117 0.64794 0.36743 0.0
H915 H 0.82424 0.63518 0.33701 0.0
H916 H 0.94914 0.64982 0.18598 0.0
H917 H 0.98026 0.64243 0.1511 0.0
H918 H 0.03246 0.62692 0.21484 0.0
H919 H 1.00153 0.63418 0.24956 0.0
Ho920 Ho 0.65399 0.6134 0.53178 0.0
Ho921 Ho 0.64414 0.66677 0.51633 0.0
C922 C 0.63393 0.65039 0.57873 0.0
C923 C 0.66895 0.57321 0.55305 0.0
C924 C 0.6604 0.5555 0.57344 0.0
C925 C 0.67693 0.54616 0.59254 0.0
C926 C 0.66965 0.52837 0.61115 0.0
C927 C 0.64571 0.5194 0.61085 0.0
C928 C 0.62901 0.52923 0.59206 0.0
C929 C 0.63627 0.54717 0.57355 0.0
C930 C 0.61049 0.62132 0.50803 0.0
C931 C 0.66936 0.6304 0.47166 0.0
C932 C 0.62671 0.70521 0.49266 0.0
C933 C 0.63158 0.721 0.46884 0.0
C934 C 0.65491 0.72299 0.4575 0.0
C935 C 0.65935 0.7394 0.43613 0.0
C936 C 0.64052 0.75406 0.42561 0.0
C937 C 0.61699 0.75124 0.43634 0.0
C938 C 0.6126 0.7349 0.45777 0.0
C939 C 0.68962 0.6579 0.53607 0.0
O940 O 0.64335 0.62904 0.57262 0.0
O941 O 0.6303 0.66754 0.56005 0.0
O942 O 0.6566 0.57447 0.53018 0.0
O943 O 0.67544 0.59451 0.56237 0.0
O944 O 0.62253 0.60123 0.50632 0.0
O945 O 0.62082 0.63536 0.52497 0.0
O946 O 0.65743 0.65098 0.47588 0.0
O947 O 0.67347 0.61475 0.49167 0.0
O948 O 0.64245 0.70585 0.51276 0.0
O949 O 0.61929 0.68321 0.48727 0.0
O950 O 0.67863 0.6787 0.53774 0.0
O951 O 0.67694 0.64434 0.52116 0.0
H952 H 0.69557 0.55248 0.5929 0.0
H953 H 0.68284 0.52165 0.62579 0.0
H954 H 0.61048 0.52266 0.5912 0.0
H955 H 0.62311 0.55423 0.55908 0.0
H956 H 0.66977 0.71221 0.46551 0.0
H957 H 0.67762 0.74086 0.42809 0.0
H958 H 0.60214 0.76235 0.42894 0.0
H959 H 0.59443 0.73355 0.46617 0.0
Ho960 Ho 0.42544 0.39902 0.26859 0.0
Ho961 Ho 0.37069 0.40464 0.27729 0.0
C962 C 0.39382 0.42435 0.22026 0.0
C963 C 0.46855 0.38665 0.25252 0.0
C964 C 0.48436 0.38585 0.22809 0.0
C965 C 0.47625 0.37798 0.2022 0.0
C966 C 0.49195 0.37881 0.17946 0.0
C967 C 0.51576 0.38774 0.18237 0.0
C968 C 0.52385 0.39484 0.20848 0.0
C969 C 0.50837 0.39385 0.23103 0.0
C970 C 0.41182 0.441 0.2933 0.0
C971 C 0.4034 0.38853 0.32794 0.0
C972 C 0.32597 0.41814 0.28346 0.0
C973 C 0.30566 0.41376 0.30238 0.0
C974 C 0.28708 0.43104 0.30407 0.0
C975 C 0.26885 0.42883 0.3238 0.0
C976 C 0.26883 0.40921 0.34222 0.0
C977 C 0.28702 0.39139 0.33985 0.0
C978 C 0.30541 0.39373 0.32016 0.0
C979 C 0.38607 0.35942 0.26311 0.0
O980 O 0.41565 0.41686 0.22823 0.0
O981 O 0.37425 0.42129 0.23561 0.0
O982 O 0.46301 0.40827 0.26152 0.0
O983 O 0.4504 0.37134 0.25417 0.0
O984 O 0.4312 0.42882 0.29977 0.0
O985 O 0.40114 0.4302 0.27407 0.0
O986 O 0.38436 0.40137 0.32025 0.0
O987 O 0.41993 0.3811 0.31005 0.0
O988 O 0.33254 0.40021 0.26752 0.0
O989 O 0.3445 0.4297 0.29401 0.0
O990 O 0.36903 0.36366 0.28086 0.0
O991 O 0.3935 0.37935 0.25393 0.0
H992 H 0.45777 0.3717 0.19944 0.0
H993 H 0.48526 0.37334 0.15951 0.0
H994 H 0.54216 0.40162 0.21136 0.0
H995 H 0.51506 0.39984 0.2508 0.0
H996 H 0.28703 0.44666 0.29057 0.0
H997 H 0.25497 0.44272 0.32497 0.0
H998 H 0.28758 0.37621 0.35393 0.0
H999 H 0.31977 0.38031 0.31931 0.0
Ho1000 Ho 0.37908 0.67157 1.01715 0.0
Ho1001 Ho 0.36473 0.61932 1.02912 0.0
C1002 C 0.3515 0.63916 0.97 0.0
C1003 C 0.39783 0.71035 0.99546 0.0
C1004 C 0.3925 0.72853 0.97367 0.0
C1005 C 0.39392 0.72283 0.94555 0.0
C1006 C 0.38966 0.74068 0.92553 0.0
C1007 C 0.38381 0.7646 0.93316 0.0
C1008 C 0.3827 0.77023 0.96128 0.0
C1009 C 0.38705 0.75249 0.9812 0.0
C1010 C 0.33309 0.66644 0.03634 0.0
C1011 C 0.38573 0.65263 0.0787 0.0
C1012 C 0.34715 0.5786 0.04676 0.0
C1013 C 0.35118 0.56039 0.06825 0.0
C1014 C 0.33416 0.54175 0.07135 0.0
C1015 C 0.33778 0.52358 0.09083 0.0
C1016 C 0.35853 0.5237 0.1077 0.0
C1017 C 0.37569 0.54241 0.10444 0.0
C1018 C 0.37202 0.56068 0.08486 0.0
C1019 C 0.40911 0.62476 1.00607 0.0
O1020 O 0.36459 0.65875 0.97569 0.0
O1021 O 0.34612 0.62291 0.98887 0.0
O1022 O 0.38386 0.71059 1.01711 0.0
O1023 O 0.40348 0.6883 0.98787 0.0
O1024 O 0.34688 0.68504 0.04108 0.0
O1025 O 0.34385 0.65239 1.02001 0.0
O1026 O 0.37299 0.63349 0.0712 0.0
O1027 O 0.39366 0.6688 0.06064 0.0
O1028 O 0.36401 0.58022 1.02808 0.0
O1029 O 0.339 0.5998 0.05452 0.0
O1030 O 0.39481 0.60656 1.00193 0.0
O1031 O 0.40012 0.6384 1.02431 0.0
H1032 H 0.39832 0.70459 0.93897 0.0
H1033 H 0.39055 0.73567 0.9041 0.0
H1034 H 0.37867 0.78852 0.96797 0.0
H1035 H 0.38626 0.7576 1.00263 0.0
H1036 H 0.3181 0.54114 0.0585 0.0
H1037 H 0.32438 0.50928 0.09252 0.0
H1038 H 0.39173 0.54314 0.1173 0.0
H1039 H 0.3854 0.57495 0.08263 0.0
Ho1040 Ho 0.1008 0.61995 0.76986 0.0
Ho1041 Ho 0.15408 0.61268 0.78205 0.0
C1042 C 0.13505 0.59382 0.72451 0.0
C1043 C 0.05902 0.63312 0.74989 0.0
C1044 C 0.04473 0.63297 0.72427 0.0
C1045 C 0.05571 0.63142 0.69836 0.0
C1046 C 0.04141 0.63176 0.6745 0.0
C1047 C 0.0159 0.6337 0.67615 0.0
C1048 C 1.00513 0.63513 0.70226 0.0
C1049 C 0.01939 0.63479 0.72598 0.0
C1050 C 0.11194 0.57622 0.7928 0.0
C1051 C 0.11883 0.63355 0.8304 0.0
C1052 C 0.19647 0.60079 0.80064 0.0
C1053 C 0.21524 0.61081 0.81887 0.0
C1054 C 0.23968 0.60591 0.81313 0.0
C1055 C 0.258 0.61478 0.8302 0.0
C1056 C 0.25223 0.62868 0.85347 0.0
C1057 C 0.22767 0.63406 0.85882 0.0
C1058 C 0.20931 0.62522 0.84162 0.0
C1059 C 0.14432 0.65411 0.75489 0.0
O1060 O 0.11567 0.60769 0.72846 0.0
O1061 O 0.15043 0.58958 0.74477 0.0
O1062 O 0.06285 0.6122 0.76164 0.0
O1063 O 0.07811 0.64718 0.75071 0.0
O1064 O 0.09246 0.58856 0.79828 0.0
O1065 O 0.12389 0.58759 0.77505 0.0
O1066 O 0.14051 0.62549 0.82316 0.0
O1067 O 0.10048 0.63477 0.81289 0.0
O1068 O 0.19314 0.61241 0.77762 0.0
O1069 O 0.17608 0.59377 0.81196 0.0
O1070 O 0.16388 0.64142 0.75195 0.0
O1071 O 0.13152 0.64539 0.7741 0.0
H1072 H 0.07527 0.63004 0.69658 0.0
H1073 H 0.05036 0.63076 0.65478 0.0
H1074 H 0.98558 0.63611 0.70445 0.0
H1075 H 1.01056 0.63592 0.74578 0.0
H1076 H 0.2446 0.59504 0.79548 0.0
H1077 H 0.27672 0.61063 0.82524 0.0
H1078 H 0.22258 0.64451 0.8767 0.0
H1079 H 0.19053 0.6294 0.84627 0.0
Ho1080 Ho 0.14835 0.35276 0.51272 0.0
Ho1081 Ho 0.16095 0.40645 0.52402 0.0
C1082 C 0.17723 0.38452 0.4661 0.0
C1083 C 0.12947 0.31418 0.49094 0.0
C1084 C 0.13422 0.29739 0.46799 0.0
C1085 C 0.11497 0.28386 0.45692 0.0
C1086 C 0.11918 0.26686 0.43611 0.0
C1087 C 0.1428 0.26298 0.42607 0.0
C1088 C 0.16193 0.27724 0.43659 0.0
C1089 C 0.15767 0.29432 0.45729 0.0
C1090 C 0.19341 0.36036 0.53392 0.0
C1091 C 0.13686 0.37377 0.57284 0.0
C1092 C 0.17737 0.44761 0.54145 0.0
C1093 C 0.17337 0.46491 0.56387 0.0
C1094 C 0.19265 0.47977 0.5721 0.0
C1095 C 0.1895 0.49653 0.59321 0.0
C1096 C 0.16695 0.49877 0.60648 0.0
C1097 C 0.14752 0.48398 0.59802 0.0
C1098 C 0.15074 0.46706 0.57692 0.0
C1099 C 0.11834 0.39878 0.49818 0.0
O1100 O 0.16369 0.36519 0.47168 0.0
O1101 O 0.18138 0.40149 0.48472 0.0
O1102 O 0.14478 0.31369 0.51149 0.0
O1103 O 0.1231 0.33623 0.48424 0.0
O1104 O 0.18129 0.3403 0.53682 0.0
O1105 O 0.18216 0.37358 0.51724 0.0
O1106 O 0.14856 0.39377 0.56575 0.0
O1107 O 0.13213 0.35609 0.55517 0.0
O1108 O 0.15991 0.44556 0.52341 0.0
O1109 O 0.18693 0.42673 0.5482 0.0
O1110 O 0.13222 0.41737 0.49404 0.0
O1111 O 0.12683 0.38601 0.51752 0.0
H1112 H 0.09671 0.28609 0.46479 0.0
H1113 H 0.10411 0.25609 0.42867 0.0
H1114 H 0.18028 0.27493 0.42906 0.0
H1115 H 0.17273 0.30482 0.46527 0.0
H1116 H 0.2102 0.47841 0.56217 0.0
H1117 H 0.20473 0.50783 0.59911 0.0
H1118 H 0.13003 0.48514 0.60809 0.0
H1119 H 0.13565 0.45563 0.57087 0.0
Ho1120 Ho 0.42003 0.62942 0.30123 0.0
Ho1121 Ho 0.36637 0.61893 0.28949 0.0
C1122 C 0.38693 0.60176 0.34748 0.0
C1123 C 0.45983 0.64581 0.32305 0.0
C1124 C 0.47709 0.64038 0.34571 0.0
C1125 C 0.47139 0.64535 0.37331 0.0
C1126 C 0.4885 0.64118 0.39416 0.0
C1127 C 0.51164 0.63191 0.3879 0.0
C1128 C 0.51734 0.62724 0.36027 0.0
C1129 C 0.50034 0.63148 0.3395 0.0
C1130 C 0.4108 0.58493 0.27958 0.0
C1131 C 0.40011 0.64199 0.24086 0.0
C1132 C 0.32502 0.60345 0.27136 0.0
C1133 C 0.3059 0.61086 0.25216 0.0
C1134 C 0.28262 0.60107 0.25525 0.0
C1135 C 0.26391 0.60788 0.23755 0.0
C1136 C 0.26818 0.6246 0.21632 0.0
C1137 C 0.29154 0.63471 0.21354 0.0
C1138 C 0.31028 0.6279 0.23139 0.0
C1139 C 0.37459 0.66159 0.31473 0.0
O1140 O 0.4072 0.61391 0.34213 0.0
O1141 O 0.37001 0.59835 0.32868 0.0
O1142 O 0.45939 0.63076 0.30231 0.0
O1143 O 0.43814 0.65353 0.32964 0.0
O1144 O 0.43076 0.59695 0.27559 0.0
O1145 O 0.39825 0.59621 0.29682 0.0
O1146 O 0.37949 0.63143 0.24807 0.0
O1147 O 0.41803 0.64561 0.25862 0.0
O1148 O 0.32736 0.617 0.29315 0.0
O1149 O 0.34593 0.59701 0.26083 0.0
O1150 O 0.35518 0.64867 0.31779 0.0
O1151 O 0.38775 0.65251 0.29609 0.0
H1152 H 0.45375 0.65252 0.37884 0.0
H1153 H 0.48348 0.64484 0.41521 0.0
H1154 H 0.53512 0.62049 0.35462 0.0
H1155 H 0.5055 0.62795 0.31845 0.0
H1156 H 0.27889 0.58811 0.27141 0.0
H1157 H 0.24605 0.60005 0.24051 0.0
H1158 H 0.29548 0.64745 0.19724 0.0
H1159 H 0.32815 0.6358 0.22891 0.0
Ho1160 Ho 0.14333 0.66615 0.05324 0.0
Ho1161 Ho 0.15283 0.61269 0.03864 0.0
C1162 C 0.16943 0.63027 0.09803 0.0
C1163 C 0.12589 0.70475 0.0766 0.0
C1164 C 0.13012 0.72035 0.10075 0.0
C1165 C 0.15264 0.72085 0.11424 0.0
C1166 C 0.15659 0.73699 0.13601 0.0
C1167 C 0.13809 0.7529 0.14479 0.0
C1168 C 0.11529 0.75162 0.13182 0.0
C1169 C 0.11139 0.73554 0.11001 0.0
C1170 C 0.18826 0.65742 1.0325 0.0
C1171 C 0.13317 0.64933 0.9912 0.0
C1172 C 0.16595 0.57123 1.01879 0.0
C1173 C 0.1587 0.55512 0.99627 0.0
C1174 C 0.14833 0.56432 0.97213 0.0
C1175 C 0.14242 0.54867 0.95062 0.0
C1176 C 0.14663 0.52358 0.953 0.0
C1177 C 0.15625 0.51441 0.9776 0.0
C1178 C 0.16227 0.53008 0.99903 0.0
C1179 C 0.10998 0.62153 0.06338 0.0
O1180 O 0.1577 0.65095 0.09356 0.0
O1181 O 0.17279 0.61408 0.07842 0.0
O1182 O 0.14234 0.70524 0.05727 0.0
O1183 O 0.11794 0.68283 0.08145 0.0
O1184 O 0.17688 0.67799 1.03038 0.0
O1185 O 0.17624 0.64374 0.04806 0.0
O1186 O 0.14293 0.62819 0.99753 0.0
O1187 O 0.12912 0.66649 1.00969 0.0
O1188 O 0.15016 0.57358 0.03856 0.0
O1189 O 0.17612 0.59181 1.01196 0.0
O1190 O 0.12256 0.60193 0.0665 0.0
O1191 O 0.11978 0.63482 0.04536 0.0
H1192 H 0.16728 0.70909 0.10763 0.0
H1193 H 0.17427 0.73723 0.14576 0.0
H1194 H 0.10072 0.7637 0.1378 0.0
H1195 H 0.09384 0.73536 0.09993 0.0
H1196 H 0.14514 0.58359 0.96975 0.0
H1197 H 0.13482 0.55622 0.93198 0.0
H1198 H 0.15997 0.49522 0.9799 0.0
H1199 H 0.17012 0.52269 1.01762 0.0
Ho1200 Ho 0.10571 0.38802 0.7938 0.0
Ho1201 Ho 0.15955 0.40063 0.78717 0.0
C1202 C 0.13376 0.41878 0.84187 0.0
C1203 C 0.06557 0.37023 0.81315 0.0
C1204 C 0.04967 0.37465 0.83702 0.0
C1205 C 0.0486 0.39751 0.84959 0.0
C1206 C 0.03261 0.40164 0.8714 0.0
C1207 C 0.0175 0.38294 0.88124 0.0
C1208 C 0.01936 0.35981 0.8693 0.0
C1209 C 0.03526 0.35574 0.84734 0.0
C1210 C 0.11457 0.43268 0.77217 0.0
C1211 C 0.1304 0.3763 0.73565 0.0
C1212 C 0.20153 0.41749 0.77314 0.0
C1213 C 0.22 0.41424 0.75183 0.0
C1214 C 0.22203 0.39251 0.73701 0.0
C1215 C 0.2398 0.39013 0.71668 0.0
C1216 C 0.25554 0.40953 0.7108 0.0
C1217 C 0.25346 0.43113 0.7259 0.0
C1218 C 0.23586 0.43343 0.74625 0.0
C1219 C 0.15065 0.35899 0.81427 0.0
O1220 O 0.11525 0.40432 0.83565 0.0
O1221 O 0.15163 0.42261 0.82436 0.0
O1222 O 0.06638 0.38724 0.79447 0.0
O1223 O 0.08701 0.36131 0.8186 0.0
O1224 O 0.09563 0.41963 0.76627 0.0
O1225 O 0.12625 0.42194 0.79061 0.0
O1226 O 0.15015 0.38726 0.74488 0.0
O1227 O 0.1111 0.37234 0.75133 0.0
O1228 O 0.19863 0.39953 0.79034 0.0
O1229 O 0.18096 0.42714 0.76522 0.0
O1230 O 0.16847 0.37355 0.81972 0.0
O1231 O 0.13925 0.36636 0.79325 0.0
H1232 H 0.05983 0.41228 0.84226 0.0
H1233 H 0.03184 0.41958 0.88038 0.0
H1234 H 1.00788 0.34509 0.87624 0.0
H1235 H 0.03598 0.3379 0.83807 0.0
H1236 H 0.20979 0.37753 0.74101 0.0
H1237 H 0.24086 0.37339 0.70513 0.0
H1238 H 0.26548 0.44629 0.72194 0.0
H1239 H 0.23454 0.45029 0.75756 0.0
Ho1240 Ho 0.38317 0.35026 0.54875 0.0
Ho1241 Ho 0.36996 0.40263 0.5361 0.0
C1242 C 0.3524 0.38214 0.59349 0.0
C1243 C 0.40086 0.31155 0.57159 0.0
C1244 C 0.39528 0.29426 0.59409 0.0
C1245 C 0.39792 0.30066 0.62191 0.0
C1246 C 0.39343 0.28361 0.64267 0.0
C1247 C 0.38613 0.25988 0.63606 0.0
C1248 C 0.38382 0.25351 0.60825 0.0
C1249 C 0.38841 0.27044 0.58758 0.0
C1250 C 0.33825 0.35583 0.52612 0.0
C1251 C 0.39579 0.36996 0.48872 0.0
C1252 C 0.35441 0.44338 0.5164 0.0
C1253 C 0.36276 0.46218 0.49711 0.0
C1254 C 0.35788 0.48657 0.50299 0.0
C1255 C 0.36552 0.50486 0.48516 0.0
C1256 C 0.37821 0.49912 0.461 0.0
C1257 C 0.38338 0.47462 0.45533 0.0
C1258 C 0.3757 0.45631 0.47323 0.0
C1259 C 0.41278 0.39673 0.56241 0.0
O1260 O 0.36709 0.36339 0.58932 0.0
O1261 O 0.34767 0.39776 0.57368 0.0
O1262 O 0.38659 0.31112 0.55014 0.0
O1263 O 0.40723 0.33359 0.57837 0.0
O1264 O 0.35223 0.33721 0.52216 0.0
O1265 O 0.34838 0.36967 0.54315 0.0
O1266 O 0.3833 0.38956 0.49527 0.0
O1267 O 0.40063 0.35272 0.50688 0.0
O1268 O 0.36673 0.44162 0.5392 0.0
O1269 O 0.34858 0.42221 0.50614 0.0
O1270 O 0.39843 0.41505 0.56582 0.0
O1271 O 0.40471 0.38336 0.54344 0.0
H1272 H 0.40344 0.3188 0.62768 0.0
H1273 H 0.39525 0.28911 0.66388 0.0
H1274 H 0.3786 0.23529 0.60242 0.0
H1275 H 0.38668 0.26482 0.56639 0.0
H1276 H 0.34807 0.49148 0.52143 0.0
H1277 H 0.36152 0.52354 0.49033 0.0
H1278 H 0.39287 0.46955 0.43676 0.0
H1279 H 0.37968 0.4376 0.46831 0.0
H1280 H 0.2788 0.14346 0.2036 0.0
H1281 H 0.26369 0.07061 0.17603 0.0
H1282 H 0.29256 0.07542 0.13861 0.0
H1283 H 0.32082 0.10048 0.1128 0.0
H1284 H 0.33542 0.17394 0.13873 0.0
H1285 H 0.30807 0.16863 0.17778 0.0
C1286 C 0.28176 0.1287 0.18931 0.0
C1287 C 0.26912 0.10668 0.19269 0.0
C1288 C 0.29833 0.13164 0.16762 0.0
C1289 C 0.27339 0.08762 0.17418 0.0
C1290 C 0.28982 0.09038 0.15267 0.0
C1291 C 0.31828 0.11535 0.12707 0.0
C1292 C 0.33023 0.13759 0.12275 0.0
C1293 C 0.3023 0.11232 0.14915 0.0
C1294 C 0.32653 0.15659 0.14152 0.0
C1295 C 0.3108 0.1536 0.16381 0.0
H1296 H 0.10016 0.06389 0.36755 0.0
H1297 H 0.16413 0.10403 0.39051 0.0
H1298 H 0.17041 0.07732 0.42991 0.0
H1299 H 0.16089 0.03968 0.45383 0.0
H1300 H 0.09837 0.99757 0.42965 0.0
H1301 H 0.0886 0.02753 0.39431 0.0
C1302 C 0.11497 0.06713 0.38177 0.0
C1303 C 0.13148 0.086 0.37664 0.0
C1304 C 0.1191 0.05096 0.40361 0.0
C1305 C 0.15105 0.08977 0.39453 0.0
C1306 C 0.15477 0.07437 0.41681 0.0
C1307 C 0.14477 0.03729 0.44133 0.0
C1308 C 0.13045 0.01633 0.4444 0.0
C1309 C 0.13939 0.05445 0.42099 0.0
C1310 C 0.10992 0.01335 0.4275 0.0
C1311 C 0.10423 0.03056 0.4074 0.0
H1312 H 0.24174 0.87952 0.70267 0.0
H1313 H 0.26945 0.94473 0.66498 0.0
H1314 H 0.24018 0.94074 0.62783 0.0
H1315 H 0.20733 0.919 0.6059 0.0
H1316 H 0.17936 0.85305 0.64166 0.0
H1317 H 0.20803 0.85721 0.67995 0.0
C1318 C 0.2414 0.89274 0.68622 0.0
C1319 C 0.25765 0.91251 0.68669 0.0
C1320 C 0.22443 0.89033 0.66475 0.0
C1321 C 0.25691 0.92959 0.66534 0.0
C1322 C 0.24024 0.92728 0.64403 0.0
C1323 C 0.20729 0.90549 0.62206 0.0
C1324 C 0.19113 0.88573 0.62087 0.0
C1325 C 0.22392 0.90781 0.64359 0.0
C1326 C 0.19151 0.86849 0.6421 0.0
C1327 C 0.20798 0.87081 0.66392 0.0
H1328 H 0.36946 0.97004 0.8542 0.0
H1329 H 0.4085 0.91608 0.90073 0.0
H1330 H 0.40685 0.94237 0.94144 0.0
H1331 H 0.39377 0.981 0.96362 0.0
H1332 H 0.35635 0.03468 0.91493 0.0
H1333 H 0.358 1.00814 0.87511 0.0
C1334 C 0.37747 0.9638 0.87327 0.0
C1335 C 0.38872 0.94092 0.87458 0.0
C1336 C 0.37683 0.97908 0.89615 0.0
C1337 C 0.39956 0.93353 0.89928 0.0
C1338 C 0.39861 0.94857 0.92251 0.0
C1339 C 0.38601 0.98677 0.94426 0.0
C1340 C 0.37502 1.00982 0.94219 0.0
C1341 C 0.38721 0.9714 0.92119 0.0
C1342 C 0.36516 0.0172 0.91696 0.0
C1343 C 0.36596 1.00198 0.89422 0.0
H1344 H 0.32543 0.8526 0.44642 0.0
H1345 H 0.34774 0.9275 0.44349 0.0
H1346 H 0.31965 0.93511 0.40567 0.0
H1347 H 0.28621 0.92158 0.37665 0.0
H1348 H 0.26189 0.84731 0.38057 0.0
H1349 H 0.29297 0.83839 0.41511 0.0
C1350 C 0.3245 0.87039 0.43696 0.0
C1351 C 0.33871 0.88945 0.44741 0.0
C1352 C 0.3076 0.87485 0.41587 0.0
C1353 C 0.33701 0.91258 0.43557 0.0
C1354 C 0.32087 0.91696 0.4141 0.0
C1355 C 0.28797 0.90331 0.38464 0.0
C1356 C 0.27176 0.88514 0.37599 0.0
C1357 C 0.30568 0.8984 0.40456 0.0
C1358 C 0.27398 0.86169 0.38708 0.0
C1359 C 0.29183 0.85655 0.40671 0.0
H1360 H 0.34824 0.0377 0.62715 0.0
H1361 H 0.42248 0.0129 0.63156 0.0
H1362 H 0.43183 0.04467 0.66493 0.0
H1363 H 0.41772 0.07693 0.69635 0.0
H1364 H 0.34255 0.0988 0.69433 0.0
H1365 H 0.33472 0.07086 0.65648 0.0
C1366 C 0.36646 0.03915 0.63548 0.0
C1367 C 0.38452 0.02272 0.62714 0.0
C1368 C 0.37153 0.05702 0.65506 0.0
C1369 C 0.40822 0.02532 0.63758 0.0
C1370 C 0.41356 0.04343 0.65676 0.0
C1371 C 0.39982 0.07594 0.68706 0.0
C1372 C 0.38073 0.0899 0.6978 0.0
C1373 C 0.39524 0.05909 0.66605 0.0
C1374 C 0.35747 0.08821 0.68617 0.0
C1375 C 0.35297 0.07217 0.6647 0.0
H1376 H 0.19222 0.16619 0.94445 0.0
H1377 H 0.16637 0.09273 0.9368 0.0
H1378 H 0.19454 0.08549 0.89898 0.0
H1379 H 0.22932 0.09858 0.8718 0.0
H1380 H 0.2572 0.17126 0.88075 0.0
H1381 H 0.22577 0.18022 0.91475 0.0
C1382 C 0.19235 0.14887 0.93389 0.0
C1383 C 0.17715 0.13006 0.94298 0.0
C1384 C 0.20934 0.14455 0.91294 0.0
C1385 C 0.17784 0.10746 0.92983 0.0
C1386 C 0.19404 0.10328 0.90841 0.0
C1387 C 0.22825 0.11656 0.88074 0.0
C1388 C 0.24559 0.13421 0.87374 0.0
C1389 C 0.21032 0.12147 0.90034 0.0
C1390 C 0.24424 0.15725 0.88602 0.0
C1391 C 0.22619 0.16243 0.90532 0.0
H1392 H 0.17035 0.95112 0.21363 0.0
H1393 H 0.10234 0.92383 0.18204 0.0
H1394 H 0.10452 0.95279 0.14398 0.0
H1395 H 0.1253 0.98692 0.12071 0.0
H1396 H 0.19257 0.01429 0.15412 0.0
H1397 H 0.19097 0.98423 0.19069 0.0
C1398 C 0.15599 0.95129 0.19839 0.0
C1399 C 0.13618 0.93532 0.20075 0.0
C1400 C 0.15714 0.96817 0.17703 0.0
C1401 C 0.11785 0.93586 0.18068 0.0
C1402 C 0.11902 0.95252 0.15902 0.0
C1403 C 0.13949 0.98635 0.13612 0.0
C1404 C 0.15906 1.00277 0.13469 0.0
C1405 C 0.13844 0.96899 0.15721 0.0
C1406 C 0.17749 1.00168 0.15458 0.0
C1407 C 0.17656 0.98455 0.17554 0.0
H1408 H 0.74283 0.87626 0.86678 0.0
H1409 H 0.75485 0.95098 0.88946 0.0
H1410 H 0.72459 0.94761 0.92558 0.0
H1411 H 0.69644 0.92326 0.95217 0.0
H1412 H 0.68449 0.84813 0.93141 0.0
H1413 H 0.71269 0.85195 0.89277 0.0
C1414 C 0.7388 0.89174 0.87969 0.0
C1415 C 0.75106 0.91385 0.87541 0.0
C1416 C 0.72134 0.88967 0.90063 0.0
C1417 C 0.74548 0.93386 0.89208 0.0
C1418 C 0.72824 0.93194 0.91283 0.0
C1419 C 0.69981 0.9077 0.93912 0.0
C1420 C 0.68853 0.8854 0.94481 0.0
C1421 C 0.71626 0.90992 0.91742 0.0
C1422 C 0.6929 0.86554 0.92744 0.0
C1423 C 0.70917 0.86767 0.90549 0.0
H1424 H 0.89696 0.98341 0.61109 0.0
H1425 H 0.85228 0.03225 0.65855 0.0
H1426 H 0.85577 1.00576 0.69814 0.0
H1427 H 0.86962 0.96849 0.71868 0.0
H1428 H 0.91405 0.91835 0.6729 0.0
H1429 H 0.91241 0.94564 0.63299 0.0
C1430 C 0.88796 0.98817 0.63009 0.0
C1431 C 0.87441 1.00987 0.63181 0.0
C1432 C 0.8898 0.97261 0.6529 0.0
C1433 C 0.86313 0.01594 0.6567 0.0
C1434 C 0.86492 1.00069 0.67932 0.0
C1435 C 0.8789 0.96328 0.69997 0.0
C1436 C 0.89158 0.94116 0.69858 0.0
C1437 C 0.87793 0.97893 0.67752 0.0
C1438 C 0.904 0.93518 0.67438 0.0
C1439 C 0.90302 0.95077 0.65162 0.0
H1440 H 0.78679 0.09874 0.36312 0.0
H1441 H 0.76042 0.17235 0.36711 0.0
H1442 H 0.79073 0.18185 0.40218 0.0
H1443 H 0.8219 0.16796 0.43532 0.0
H1444 H 0.84513 0.0933 0.43362 0.0
H1445 H 0.81891 0.08547 0.3942 0.0
C1446 C 0.78757 0.11687 0.37168 0.0
C1447 C 0.77107 0.13467 0.36267 0.0
C1448 C 0.80451 0.122 0.39238 0.0
C1449 C 0.77291 0.15826 0.37351 0.0
C1450 C 0.79015 0.16369 0.39373 0.0
C1451 C 0.82156 0.15016 0.42586 0.0
C1452 C 0.83541 0.13121 0.43721 0.0
C1453 C 0.8057 0.14555 0.40378 0.0
C1454 C 0.83457 0.10811 0.42517 0.0
C1455 C 0.81953 0.10361 0.40272 0.0
H1456 H 0.62589 0.03231 0.11497 0.0
H1457 H 0.68027 0.99377 0.16156 0.0
H1458 H 0.67698 0.0234 0.19848 0.0
H1459 H 0.6589 0.0599 0.21743 0.0
H1460 H 0.60295 0.09799 0.17282 0.0
H1461 H 0.60681 0.069 0.13486 0.0
C1462 C 0.63702 0.03052 0.13321 0.0
C1463 C 0.65329 0.01092 0.13561 0.0
C1464 C 0.63492 0.04758 0.15447 0.0
C1465 C 0.66743 1.00855 0.15942 0.0
C1466 C 0.66569 0.02556 0.18042 0.0
C1467 C 0.64777 0.06215 0.19924 0.0
C1468 C 0.631 0.08132 0.19764 0.0
C1469 C 0.6496 0.04515 0.17809 0.0
C1470 C 0.61618 0.0835 0.17432 0.0
C1471 C 0.61833 0.0669 0.15273 0.0
H1472 H 0.7321 0.14232 0.70246 0.0
H1473 H 0.77875 0.0974 0.65262 0.0
H1474 H 0.75086 0.10142 0.61415 0.0
H1475 H 0.71329 0.11638 0.59522 0.0
H1476 H 0.66583 0.16189 0.64329 0.0
H1477 H 0.69409 0.15885 0.68225 0.0
C1478 C 0.73605 0.1334 0.68316 0.0
C1479 C 0.75744 0.11958 0.68033 0.0
C1480 C 0.71983 0.13573 0.66105 0.0
C1481 C 0.76257 0.10835 0.65517 0.0
C1482 C 0.74657 0.11049 0.63325 0.0
C1483 C 0.70887 0.12554 0.61425 0.0
C1484 C 0.68726 0.13897 0.61659 0.0
C1485 C 0.72513 0.12393 0.63608 0.0
C1486 C 0.68227 0.15125 0.64114 0.0
C1487 C 0.6984 0.14951 0.66334 0.0
H1488 H 0.6258 0.983 0.45379 0.0
H1489 H 0.66833 0.03169 0.40379 0.0
H1490 H 0.66791 1.00252 0.3664 0.0
H1491 H 0.65673 0.96335 0.34843 0.0
H1492 H 0.61251 0.91435 0.39598 0.0
H1493 H 0.6126 0.94345 0.43422 0.0
C1494 C 0.63492 0.98713 0.43466 0.0
C1495 C 0.64708 1.00946 0.43151 0.0
C1496 C 0.63459 0.97021 0.4131 0.0
C1497 C 0.65861 0.01479 0.40658 0.0
C1498 C 0.65858 0.99804 0.38529 0.0
C1499 C 0.64729 0.95876 0.36724 0.0
C1500 C 0.63506 0.93648 0.36964 0.0
C1501 C 0.64687 0.97568 0.38847 0.0
C1502 C 0.62231 0.93127 0.39384 0.0
C1503 C 0.62231 0.94793 0.41559 0.0
H1504 H 0.81493 0.91689 0.10028 0.0
H1505 H 0.85008 0.85569 0.13877 0.0
H1506 H 0.82164 0.85842 0.17734 0.0
H1507 H 0.78603 0.87789 0.19948 0.0
H1508 H 0.75112 0.93834 0.15925 0.0
H1509 H 0.78027 0.93605 0.12183 0.0
C1510 C 0.8166 0.90414 0.11712 0.0
C1511 C 0.83468 0.88609 0.11658 0.0
C1512 C 0.80009 0.90561 0.13884 0.0
C1513 C 0.8364 0.86981 0.13867 0.0
C1514 C 0.82007 0.8713 0.16066 0.0
C1515 C 0.78477 0.89044 0.18241 0.0
C1516 C 0.76649 0.90835 0.18221 0.0
C1517 C 0.80167 0.88901 0.16082 0.0
C1518 C 0.7652 0.92463 0.1601 0.0
C1519 C 0.78181 0.92328 0.13865 0.0
H1520 H 0.91798 0.06803 0.86527 0.0
H1521 H 0.84939 0.10308 0.88065 0.0
H1522 H 0.84143 0.07529 0.9187 0.0
H1523 H 0.85196 0.03857 0.94421 0.0
H1524 H 0.91868 1.0008 0.92598 0.0
H1525 H 0.92959 0.03217 0.89281 0.0
C1526 C 0.90168 0.06995 0.87757 0.0
C1527 C 0.88442 0.0877 0.87064 0.0
C1528 C 0.89673 0.05316 0.89859 0.0
C1529 C 0.863 0.08968 0.88601 0.0
C1530 C 0.85837 0.07368 0.90756 0.0
C1531 C 0.86888 0.03713 0.93296 0.0
C1532 C 0.88431 0.01714 0.93742 0.0
C1533 C 0.87474 0.05488 0.91343 0.0
C1534 C 0.90647 0.01599 0.92312 0.0
C1535 C 0.91268 0.03388 0.90401 0.0
H1536 H 0.78103 0.6474 0.69816 0.0
H1537 H 0.75021 0.5846 0.65834 0.0
H1538 H 0.77924 0.58848 0.62103 0.0
H1539 H 0.81313 0.60885 0.60014 0.0
H1540 H 0.84467 0.67237 0.63775 0.0
H1541 H 0.81554 0.66899 0.67576 0.0
C1542 C 0.78064 0.63473 0.68118 0.0
C1543 C 0.76367 0.61557 0.68113 0.0
C1544 C 0.79754 0.63704 0.65966 0.0
C1545 C 0.76335 0.59922 0.65907 0.0
C1546 C 0.77989 0.60145 0.63771 0.0
C1547 C 0.81394 0.62199 0.61666 0.0
C1548 C 0.83129 0.64073 0.61619 0.0
C1549 C 0.79714 0.6201 0.63796 0.0
C1550 C 0.83161 0.65767 0.63769 0.0
C1551 C 0.81492 0.65577 0.65935 0.0
H1552 H 0.60309 0.56698 0.87141 0.0
H1553 H 0.67585 0.59526 0.87795 0.0
H1554 H 0.68455 0.56739 0.91566 0.0
H1555 H 0.67283 0.53263 0.94359 0.0
H1556 H 0.6009 0.50233 0.9359 0.0
H1557 H 0.59062 0.53294 0.90139 0.0
C1558 C 0.62059 0.56738 0.88165 0.0
C1559 C 0.63876 0.58327 0.87233 0.0
C1560 C 0.62577 0.55058 0.9026 0.0
C1561 C 0.6616 0.58327 0.88509 0.0
C1562 C 0.66661 0.56725 0.90647 0.0
C1563 C 0.65473 0.53296 0.93478 0.0
C1564 C 0.63765 0.51524 0.94239 0.0
C1565 C 0.64904 0.55045 0.91492 0.0
C1566 C 0.61447 0.51562 0.93022 0.0
C1567 C 0.60854 0.53321 0.91062 0.0
H1568 H 0.70377 0.35163 0.12406 0.0
H1569 H 0.674 0.42386 0.1262 0.0
H1570 H 0.70066 0.43435 0.16456 0.0
H1571 H 0.73512 0.4243 0.19402 0.0
H1572 H 0.76811 0.35344 0.18867 0.0
H1573 H 0.73734 0.3409 0.15546 0.0
C1574 C 0.70275 0.3694 0.13355 0.0
C1575 C 0.68687 0.38692 0.12281 0.0
C1576 C 0.71893 0.37562 0.15471 0.0
C1577 C 0.68601 0.41012 0.13452 0.0
C1578 C 0.70134 0.41614 0.15624 0.0
C1579 C 0.73565 0.40611 0.18557 0.0
C1580 C 0.7541 0.38996 0.19364 0.0
C1581 C 0.71838 0.39928 0.16591 0.0
C1582 C 0.75407 0.36625 0.18298 0.0
C1583 C 0.73655 0.35909 0.16384 0.0
H1584 H 0.89826 0.48503 0.45257 0.0
H1585 H 0.85505 0.534 0.4035 0.0
H1586 H 0.85696 0.50603 0.36505 0.0
H1587 H 0.86979 0.46784 0.34567 0.0
H1588 H 0.91359 0.4181 0.39291 0.0
H1589 H 0.9123 0.44618 0.43206 0.0
C1590 C 0.88924 0.48949 0.43346 0.0
C1591 C 0.8766 0.51166 0.43092 0.0
C1592 C 0.8903 0.47317 0.41129 0.0
C1593 C 0.86522 0.51731 0.40593 0.0
C1594 C 0.86611 0.50122 0.38398 0.0
C1595 C 0.87894 0.46286 0.36456 0.0
C1596 C 0.89146 0.44067 0.36651 0.0
C1597 C 0.87841 0.4791 0.38652 0.0
C1598 C 0.90366 0.43497 0.39098 0.0
C1599 C 0.90294 0.45104 0.41329 0.0
H1600 H 0.792 0.4161 0.8701 0.0
H1601 H 0.75877 0.3462 0.88321 0.0
H1602 H 0.79007 0.33612 0.91703 0.0
H1603 H 0.82536 0.34854 0.94523 0.0
H1604 H 0.85668 0.41936 0.93321 0.0
H1605 H 0.82827 0.42738 0.89577 0.0
C1606 C 0.79185 0.39844 0.87989 0.0
C1607 C 0.77306 0.38194 0.8741 0.0
C1608 C 0.80976 0.39286 0.89932 0.0
C1609 C 0.77287 0.35936 0.88752 0.0
C1610 C 0.79085 0.35352 0.90673 0.0
C1611 C 0.82631 0.36539 0.9338 0.0
C1612 C 0.84317 0.38326 0.94152 0.0
C1613 C 0.80922 0.37026 0.91306 0.0
C1614 C 0.84393 0.40533 0.92727 0.0
C1615 C 0.82759 0.40998 0.90607 0.0
H1616 H 0.85797 0.55682 0.21492 0.0
H1617 H 0.90718 0.60382 0.17108 0.0
H1618 H 0.90713 0.57547 0.13228 0.0
H1619 H 0.89358 0.53671 0.1115 0.0
H1620 H 0.84551 0.48988 0.15715 0.0
H1621 H 0.84501 0.51875 0.19492 0.0
C1622 C 0.86854 0.56114 0.19681 0.0
C1623 C 0.88238 0.58258 0.1958 0.0
C1624 C 0.86887 0.5446 0.1751 0.0
C1625 C 0.89625 0.58752 0.1723 0.0
C1626 C 0.89629 0.57127 0.15019 0.0
C1627 C 0.88296 0.53292 0.12971 0.0
C1628 C 0.86966 0.51113 0.13157 0.0
C1629 C 0.88277 0.54966 0.15146 0.0
C1630 C 0.85617 0.50632 0.15537 0.0
C1631 C 0.85571 0.52291 0.17688 0.0
H1632 H 0.73406 0.59234 0.37559 0.0
H1633 H 0.75122 0.66844 0.36906 0.0
H1634 H 0.72093 0.67782 0.40422 0.0
H1635 H 0.69165 0.66383 0.43928 0.0
H1636 H 0.67644 0.58738 0.4466 0.0
H1637 H 0.7033 0.57875 0.40804 0.0
C1638 C 0.73085 0.61105 0.38141 0.0
C1639 C 0.74489 0.62965 0.36971 0.0
C1640 C 0.71364 0.61624 0.40172 0.0
C1641 C 0.74084 0.65375 0.37797 0.0
C1642 C 0.72344 0.65913 0.39797 0.0
C1643 C 0.69383 0.64539 0.43193 0.0
C1644 C 0.68208 0.62624 0.44556 0.0
C1645 C 0.70999 0.64047 0.41031 0.0
C1646 C 0.68534 0.60236 0.43631 0.0
C1647 C 0.70076 0.59741 0.41439 0.0
H1648 H 0.60405 0.44821 0.70091 0.0
H1649 H 0.67496 0.4165 0.69027 0.0
H1650 H 0.68336 0.44428 0.65233 0.0
H1651 H 0.67204 0.47981 0.62532 0.0
H1652 H 0.6029 0.51463 0.63917 0.0
H1653 H 0.59213 0.48333 0.67249 0.0
C1654 C 0.62104 0.44708 0.68972 0.0
C1655 C 0.6388 0.43029 0.69787 0.0
C1656 C 0.62616 0.46388 0.66886 0.0
C1657 C 0.66103 0.42923 0.68394 0.0
C1658 C 0.66587 0.44518 0.66247 0.0
C1659 C 0.65464 0.48065 0.6357 0.0
C1660 C 0.63844 0.4997 0.62994 0.0
C1661 C 0.64886 0.46303 0.65531 0.0
C1662 C 0.6157 0.50011 0.64308 0.0
C1663 C 0.60955 0.48228 0.66224 0.0
H1664 H 0.20084 0.42331 0.44493 0.0
H1665 H 0.18511 0.34795 0.42894 0.0
H1666 H 0.21182 0.34888 0.38889 0.0
H1667 H 0.24136 0.37078 0.35961 0.0
H1668 H 0.25644 0.44615 0.37619 0.0
H1669 H 0.22832 0.44549 0.41475 0.0
C1670 C 0.20309 0.40709 0.43261 0.0
C1671 C 0.19108 0.38557 0.44007 0.0
C1672 C 0.21851 0.40772 0.40974 0.0
C1673 C 0.19406 0.36481 0.42367 0.0
C1674 C 0.20947 0.36528 0.40083 0.0
C1675 C 0.23843 0.38702 0.3717 0.0
C1676 C 0.25096 0.40848 0.36503 0.0
C1677 C 0.22209 0.38655 0.3939 0.0
C1678 C 0.24683 0.42947 0.38069 0.0
C1679 C 0.23083 0.42909 0.40283 0.0
H1680 H 0.35275 0.44582 0.2018 0.0
H1681 H 0.42923 0.43891 0.18381 0.0
H1682 H 0.42515 0.46904 0.14714 0.0
H1683 H 0.3999 0.49871 0.1215 0.0
H1684 H 0.32397 0.50603 0.14205 0.0
H1685 H 0.32794 0.47442 0.17655 0.0
C1686 C 0.3686 0.45061 0.18978 0.0
C1687 C 0.39129 0.44002 0.19565 0.0
C1688 C 0.36625 0.46826 0.1693 0.0
C1689 C 0.41151 0.44666 0.17973 0.0
C1690 C 0.40922 0.46402 0.15886 0.0
C1691 C 0.38429 0.49345 0.13366 0.0
C1692 C 0.36162 0.50467 0.12904 0.0
C1693 C 0.38672 0.47524 0.15375 0.0
C1694 C 0.34152 0.49748 0.14482 0.0
C1695 C 0.34378 0.47945 0.16465 0.0
H1696 H 0.29057 0.60197 0.8709 0.0
H1697 H 0.25735 0.67237 0.87995 0.0
H1698 H 0.28772 0.68337 0.91446 0.0
H1699 H 0.32169 0.67144 0.94497 0.0
H1700 H 0.35286 0.60012 0.93709 0.0
H1701 H 0.32596 0.59129 0.89847 0.0
C1702 C 0.29025 0.61993 0.87994 0.0
C1703 C 0.27166 0.63628 0.87286 0.0
C1704 C 0.30758 0.62601 0.89985 0.0
C1705 C 0.27127 0.6593 0.88528 0.0
C1706 C 0.28872 0.66566 0.9049 0.0
C1707 C 0.323 0.65431 0.93415 0.0
C1708 C 0.33936 0.63653 0.94338 0.0
C1709 C 0.30672 0.64899 0.91271 0.0
C1710 C 0.34053 0.61409 0.92994 0.0
C1711 C 0.32504 0.60898 0.90808 0.0
H1712 H 0.17236 0.56427 0.71174 0.0
H1713 H 0.10379 0.59039 0.68045 0.0
H1714 H 0.10747 0.56311 0.64096 0.0
H1715 H 0.12993 0.53082 0.61613 0.0
H1716 H 0.19793 0.5049 0.64916 0.0
H1717 H 0.19456 0.53309 0.68737 0.0
C1718 C 0.15818 0.56419 0.69628 0.0
C1719 C 0.13779 0.57936 0.69912 0.0
C1720 C 0.16026 0.54834 0.67403 0.0
C1721 C 0.11973 0.57897 0.67874 0.0
C1722 C 0.12177 0.56328 0.65624 0.0
C1723 C 0.1439 0.53132 0.6318 0.0
C1724 C 0.16421 0.51587 0.62975 0.0
C1725 C 0.14185 0.54767 0.65384 0.0
C1726 C 0.1823 0.51682 0.65006 0.0
C1727 C 0.18036 0.53287 0.67196 0.0
H1728 H 0.19386 0.66401 0.12782 0.0
H1729 H 0.17597 0.58793 0.12473 0.0
H1730 H 0.20404 0.57974 0.1624 0.0
H1731 H 0.23637 0.59345 0.19287 0.0
H1732 H 0.25612 0.66912 0.19508 0.0
H1733 H 0.22495 0.67823 0.16073 0.0
C1734 C 0.19573 0.64578 0.13592 0.0
C1735 C 0.18284 0.62658 0.12377 0.0
C1736 C 0.21259 0.64107 0.15694 0.0
C1737 C 0.18572 0.60294 0.13393 0.0
C1738 C 0.20184 0.59824 0.15532 0.0
C1739 C 0.23358 0.61202 0.18625 0.0
C1740 C 0.24855 0.63056 0.19652 0.0
C1741 C 0.21581 0.61705 0.16647 0.0
C1742 C 0.24502 0.65446 0.18725 0.0
C1743 C 0.2271 0.6597 0.16775 0.0
H1744 H 0.14944 0.4646 0.84316 0.0
H1745 H 0.11372 0.41066 0.89282 0.0
H1746 H 0.11349 0.43897 0.93185 0.0
H1747 H 0.1255 0.47863 0.95199 0.0
H1748 H 0.16022 0.53203 0.90046 0.0
H1749 H 0.1583 0.5044 0.86164 0.0
C1750 C 0.14168 0.45891 0.86256 0.0
C1751 C 0.13216 0.43541 0.86544 0.0
C1752 C 0.14128 0.47526 0.88439 0.0
C1753 C 0.12142 0.4286 0.89034 0.0
C1754 C 0.12131 0.44477 0.91256 0.0
C1755 C 0.13256 0.48416 0.93221 0.0
C1756 C 0.14309 0.50732 0.92914 0.0
C1757 C 0.13151 0.46806 0.90988 0.0
C1758 C 0.15183 0.51444 0.90332 0.0
C1759 C 0.15094 0.49858 0.88117 0.0
H1760 H 0.32373 0.41944 0.6083 0.0
H1761 H 0.34787 0.3489 0.63541 0.0
H1762 H 0.31993 0.3511 0.67449 0.0
H1763 H 0.28732 0.37269 0.69977 0.0
H1764 H 0.26351 0.44281 0.67098 0.0
H1765 H 0.2926 0.44101 0.63347 0.0
C1766 C 0.32306 0.40451 0.62276 0.0
C1767 C 0.33778 0.38397 0.61883 0.0
C1768 C 0.30685 0.40577 0.64475 0.0
C1769 C 0.33675 0.36495 0.63798 0.0
C1770 C 0.32068 0.36615 0.66021 0.0
C1771 C 0.28852 0.38749 0.68519 0.0
C1772 C 0.27336 0.40789 0.68815 0.0
C1773 C 0.30539 0.38635 0.66357 0.0
C1774 C 0.27519 0.42707 0.66931 0.0
C1775 C 0.29176 0.42602 0.64782 0.0
H1776 H 0.35085 0.53746 0.4448 0.0
H1777 H 0.42099 0.50427 0.4327 0.0
H1778 H 0.43128 0.53523 0.39866 0.0
H1779 H 0.41916 0.57039 0.37019 0.0
H1780 H 0.34797 0.60149 0.38076 0.0
H1781 H 0.33958 0.57333 0.41829 0.0
C1782 C 0.36858 0.53723 0.43513 0.0
C1783 C 0.38512 0.51857 0.44133 0.0
C1784 C 0.37427 0.55492 0.41548 0.0
C1785 C 0.40781 0.51828 0.4281 0.0
C1786 C 0.41377 0.53607 0.40876 0.0
C1787 C 0.40211 0.57133 0.38128 0.0
C1788 C 0.3843 0.58813 0.37319 0.0
C1789 C 0.39703 0.55434 0.40205 0.0
C1790 C 0.36199 0.58883 0.38701 0.0
C1791 C 0.35713 0.57263 0.40827 0.0
H1792 H 0.11729 0.2499 0.37971 0.0
H1793 H 0.17953 0.23025 0.42887 0.0
H1794 H 0.18743 0.19574 0.39913 0.0
H1795 H 0.17612 0.17022 0.36061 0.0
H1796 H 0.11499 0.18922 0.30966 0.0
H1797 H 0.10703 0.22478 0.33875 0.0
C1798 C 0.13258 0.23806 0.38383 0.0
C1799 C 0.14785 0.24279 0.40652 0.0
C1800 C 0.1371 0.21805 0.36648 0.0
C1801 C 0.16771 0.22735 0.41141 0.0
C1802 C 0.17216 0.20746 0.39451 0.0
C1803 C 0.16106 0.18216 0.35569 0.0
C1804 C 0.14587 0.17681 0.33327 0.0
C1805 C 0.15691 0.20256 0.37217 0.0
C1806 C 0.12666 0.19266 0.3271 0.0
C1807 C 0.1222 0.21304 0.34368 0.0
H1808 H 0.09741 0.92002 0.60973 0.0
H1809 H 0.08009 0.85551 0.56384 0.0
H1810 H 0.04628 0.84696 0.59525 0.0
H1811 H 0.02197 0.85784 0.63647 0.0
H1812 H 0.03974 0.92316 0.68095 0.0
H1813 H 0.07274 0.93154 0.64914 0.0
C1814 C 0.08621 0.9041 0.60647 0.0
C1815 C 0.09152 0.88821 0.5847 0.0
C1816 C 0.06675 0.89953 0.62434 0.0
C1817 C 0.07666 0.86781 0.5807 0.0
C1818 C 0.05727 0.86298 0.59861 0.0
C1819 C 0.0331 0.87388 0.63919 0.0
C1820 C 0.02822 0.88989 0.66113 0.0
C1821 C 0.05224 0.87865 0.62067 0.0
C1822 C 0.04273 0.91071 0.66412 0.0
C1823 C 0.06177 0.91545 0.64601 0.0
H1824 H 0.34848 0.85326 0.86123 0.0
H1825 H 0.40826 0.83089 0.81018 0.0
H1826 H 0.41665 0.79695 0.84149 0.0
H1827 H 0.40753 0.77444 0.8846 0.0
H1828 H 0.34714 0.79766 0.93453 0.0
H1829 H 0.3385 0.83037 0.90247 0.0
C1830 C 0.3633 0.84091 0.8568 0.0
C1831 C 0.37788 0.84476 0.83352 0.0
C1832 C 0.36796 0.82158 0.87483 0.0
C1833 C 0.39691 0.82848 0.82809 0.0
C1834 C 0.40167 0.80906 0.846 0.0
C1835 C 0.39235 0.78652 0.88829 0.0
C1836 C 0.37819 0.78365 0.91224 0.0
C1837 C 0.38741 0.80552 0.86961 0.0
C1838 C 0.35865 0.79962 0.91667 0.0
C1839 C 0.35359 0.81831 0.89824 0.0
H1840 H 0.41773 0.16657 0.09903 0.0
H1841 H 0.45217 0.11264 0.04824 0.0
H1842 H 0.48681 0.11114 0.07981 0.0
H1843 H 0.50571 0.12283 0.12394 0.0
H1844 H 0.47016 0.1761 0.17488 0.0
H1845 H 0.43793 0.18044 0.14102 0.0
C1846 C 0.43299 0.15474 0.09464 0.0
C1847 C 0.43228 0.13961 0.0714 0.0
C1848 C 0.45265 0.15376 0.11305 0.0
C1849 C 0.45223 0.12446 0.06597 0.0
C1850 C 0.47199 0.1235 0.08413 0.0
C1851 C 0.49095 0.13543 0.12761 0.0
C1852 C 0.49048 0.14904 0.15212 0.0
C1853 C 0.47213 0.13765 0.1081 0.0
C1854 C 0.47132 0.16557 0.15619 0.0
C1855 C 0.45269 0.16795 0.13689 0.0
H1856 H 0.17389 0.83993 0.21855 0.0
H1857 H 0.10516 0.82783 0.25852 0.0
H1858 H 0.09683 0.79382 0.22726 0.0
H1859 H 0.10904 0.7682 0.18749 0.0
H1860 H 0.17847 0.78106 0.14898 0.0
H1861 H 0.18671 0.8138 0.18107 0.0
C1862 C 0.15708 0.82982 0.2206 0.0
C1863 C 0.13998 0.83666 0.24058 0.0
C1864 C 0.15263 0.81031 0.20283 0.0
C1865 C 0.11845 0.82318 0.24305 0.0
C1866 C 0.11375 0.8037 0.2252 0.0
C1867 C 0.12597 0.77817 0.18616 0.0
C1868 C 0.14315 0.772 0.16578 0.0
C1869 C 0.13064 0.79723 0.20479 0.0
C1870 C 0.16508 0.78503 0.1646 0.0
C1871 C 0.16975 0.80394 0.18285 0.0
H1872 H 0.50161 0.85836 0.4348 0.0
H1873 H 0.48618 0.92516 0.39195 0.0
H1874 H 0.4538 0.93428 0.42423 0.0
H1875 H 0.42902 0.92317 0.46348 0.0
H1876 H 0.44392 0.85742 0.50823 0.0
H1877 H 0.47714 0.84787 0.47627 0.0
C1878 C 0.49114 0.8749 0.43257 0.0
C1879 C 0.49653 0.89111 0.41093 0.0
C1880 C 0.47234 0.88014 0.45142 0.0
C1881 C 0.48283 0.91254 0.40854 0.0
C1882 C 0.46414 0.91772 0.42692 0.0
C1883 C 0.43955 0.90674 0.46643 0.0
C1884 C 0.43367 0.8908 0.48798 0.0
C1885 C 0.45867 0.90165 0.4483 0.0
C1886 C 0.44772 0.86975 0.49151 0.0
C1887 C 0.46679 0.86438 0.47329 0.0
H1888 H 0.41138 0.2493 0.68337 0.0
H1889 H 0.34704 0.22998 0.63764 0.0
H1890 H 0.3373 0.19883 0.67121 0.0
H1891 H 0.34728 0.17629 0.71248 0.0
H1892 H 0.411 0.19458 0.75953 0.0
H1893 H 0.42077 0.22698 0.72662 0.0
C1894 C 0.39513 0.23839 0.68095 0.0
C1895 C 0.38009 0.24184 0.65779 0.0
C1896 C 0.3896 0.22028 0.70046 0.0
C1897 C 0.35916 0.22746 0.65491 0.0
C1898 C 0.3535 0.2097 0.67419 0.0
C1899 C 0.36329 0.18741 0.7157 0.0
C1900 C 0.37856 0.18288 0.73826 0.0
C1901 C 0.36867 0.20581 0.69684 0.0
C1902 C 0.39914 0.19752 0.74212 0.0
C1903 C 0.40466 0.21607 0.72334 0.0
H1904 H 0.09087 0.09321 0.96102 0.0
H1905 H 0.07467 0.15888 1.00529 0.0
H1906 H 0.04199 0.16818 0.97247 0.0
H1907 H 0.01865 0.15766 0.93025 0.0
H1908 H 0.03547 0.09112 0.88766 0.0
H1909 H 0.06706 0.082 0.92103 0.0
C1910 C 0.08016 0.10956 0.96367 0.0
C1911 C 0.08549 0.12557 0.98531 0.0
C1912 C 0.06142 0.11455 0.94502 0.0
C1913 C 0.07121 0.14648 0.98852 0.0
C1914 C 0.0525 0.15173 0.9698 0.0
C1915 C 0.02925 0.14118 0.92832 0.0
C1916 C 0.02456 0.12505 0.90644 0.0
C1917 C 0.04757 0.13597 0.94776 0.0
C1918 C 0.03836 0.10367 0.90442 0.0
C1919 C 0.05657 0.0985 0.92342 0.0
H1920 H 0.84627 0.8544 0.70618 0.0
H1921 H 0.90573 0.82904 0.75606 0.0
H1922 H 0.91286 0.79562 0.72365 0.0
H1923 H 0.90283 0.77465 0.67973 0.0
H1924 H 0.84274 0.801 0.63121 0.0
H1925 H 0.83512 0.83287 0.66459 0.0
C1926 C 0.86075 0.84151 0.71012 0.0
C1927 C 0.87568 0.84439 0.73328 0.0
C1928 C 0.86461 0.82251 0.69156 0.0
C1929 C 0.89422 0.82741 0.73814 0.0
C1930 C 0.89822 0.80828 0.71965 0.0
C1931 C 0.88793 0.78723 0.67669 0.0
C1932 C 0.87356 0.78559 0.65278 0.0
C1933 C 0.88365 0.80577 0.69608 0.0
C1934 C 0.85435 0.80209 0.64911 0.0
C1935 C 0.8499 0.82029 0.66825 0.0
H1936 H 0.99873 0.16151 0.42649 0.0
H1937 H 0.98245 0.09519 0.38315 0.0
H1938 H 0.94901 0.08703 0.41433 0.0
H1939 H 0.92376 0.09871 0.45284 0.0
H1940 H 0.93936 0.16389 0.49832 0.0
H1941 H 0.97352 0.17265 0.46729 0.0
C1942 C 0.98783 0.14529 0.42392 0.0
C1943 C 0.99331 0.1289 0.40248 0.0
C1944 C 0.96843 0.14058 0.44219 0.0
C1945 C 0.97903 0.10791 0.39961 0.0
C1946 C 0.95975 0.10329 0.41736 0.0
C1947 C 0.93461 0.11486 0.45615 0.0
C1948 C 0.92872 0.13083 0.47768 0.0
C1949 C 0.95425 0.11948 0.4386 0.0
C1950 C 0.94321 0.15151 0.48166 0.0
C1951 C 0.9628 0.15643 0.46395 0.0
H1952 H 0.6481 0.25856 0.1964 0.0
H1953 H 0.59609 0.22325 0.14349 0.0
H1954 H 0.59086 0.19095 0.17705 0.0
H1955 H 0.60363 0.17068 0.21949 0.0
H1956 H 0.65631 0.20502 0.27219 0.0
H1957 H 0.6586 0.23963 0.24083 0.0
C1958 C 0.63557 0.24384 0.19224 0.0
C1959 C 0.62259 0.24344 0.16728 0.0
C1960 C 0.63283 0.22502 0.21159 0.0
C1961 C 0.60615 0.22432 0.16254 0.0
C1962 C 0.60326 0.20567 0.18168 0.0
C1963 C 0.61535 0.18592 0.22433 0.0
C1964 C 0.62992 0.18518 0.24806 0.0
C1965 C 0.61682 0.20558 0.20602 0.0
C1966 C 0.64493 0.2051 0.25407 0.0
C1967 C 0.64635 0.22485 0.23604 0.0
H1968 H 0.52265 0.85895 0.93656 0.0
H1969 H 0.53853 0.9254 0.89329 0.0
H1970 H 0.57217 0.93356 0.92434 0.0
H1971 H 0.598 0.92147 0.96244 0.0
H1972 H 0.58273 0.85589 1.00733 0.0
H1973 H 0.54809 0.84758 0.97686 0.0
C1974 C 0.53349 0.8752 0.93398 0.0
C1975 C 0.52793 0.89159 0.9126 0.0
C1976 C 0.55301 0.87984 0.95204 0.0
C1977 C 0.54207 0.91267 0.90973 0.0
C1978 C 0.56146 0.91728 0.92738 0.0
C1979 C 0.58707 0.90536 0.96571 0.0
C1980 C 0.5932 0.88908 0.98683 0.0
C1981 C 0.56718 0.90095 0.94844 0.0
C1982 C 0.57866 0.86847 0.99091 0.0
C1983 C 0.55881 0.86379 0.97354 0.0
H1984 H 0.91264 0.24847 0.87817 0.0
H1985 H 0.84582 0.23358 0.92131 0.0
H1986 H 0.83629 0.20132 0.88909 0.0
H1987 H 0.84737 0.17616 0.85036 0.0
H1988 H 0.91295 0.19053 0.80498 0.0
H1989 H 0.92265 0.22409 0.83644 0.0
C1990 C 0.89598 0.23817 0.88041 0.0
C1991 C 0.87992 0.24356 0.90217 0.0
C1992 C 0.8905 0.21947 0.86158 0.0
C1993 C 0.85833 0.23015 0.90463 0.0
C1994 C 0.85292 0.21155 0.88629 0.0
C1995 C 0.86379 0.18665 0.84714 0.0
C1996 C 0.87974 0.18044 0.82573 0.0
C1997 C 0.86893 0.20593 0.86492 0.0
C1998 C 0.90068 0.19455 0.8217 0.0
C1999 C 0.90613 0.21379 0.83963 0.0
H2000 H 0.51774 0.15887 0.63353 0.0
H2001 H 0.53921 0.09611 0.68062 0.0
H2002 H 0.57226 0.08825 0.6487 0.0
H2003 H 0.59604 0.09974 0.60858 0.0
H2004 H 0.57504 0.1617 0.56016 0.0
H2005 H 0.54102 0.16951 0.59153 0.0
C2006 C 0.52967 0.14349 0.63677 0.0
C2007 C 0.52586 0.12806 0.6595 0.0
C2008 C 0.54883 0.13904 0.61822 0.0
C2009 C 0.54139 0.10807 0.66318 0.0
C2010 C 0.56045 0.10365 0.64502 0.0
C2011 C 0.58398 0.11494 0.60476 0.0
C2012 C 0.5883 0.13036 0.5823 0.0
C2013 C 0.56444 0.11907 0.62262 0.0
C2014 C 0.57235 0.1498 0.57755 0.0
C2015 C 0.55286 0.1542 0.59545 0.0
H2016 H 0.67537 0.84392 0.35583 0.0
H2017 H 0.61146 0.82659 0.30863 0.0
H2018 H 0.60325 0.79194 0.33899 0.0
H2019 H 0.61405 0.76722 0.37998 0.0
H2020 H 0.6788 0.78518 0.42571 0.0
H2021 H 0.68707 0.81866 0.39458 0.0
C2022 C 0.65965 0.83253 0.35203 0.0
C2023 C 0.64379 0.83809 0.33028 0.0
C2024 C 0.6553 0.81265 0.36928 0.0
C2025 C 0.62371 0.82295 0.32552 0.0
C2026 C 0.61908 0.80311 0.34283 0.0
C2027 C 0.62997 0.77846 0.38308 0.0
C2028 C 0.64582 0.77355 0.40521 0.0
C2029 C 0.63466 0.79791 0.36499 0.0
C2030 C 0.66649 0.78821 0.40871 0.0
C2031 C 0.67116 0.80752 0.39102 0.0
H2032 H 0.9255 0.92548 0.10228 0.0
H2033 H 0.94427 0.8595 0.05997 0.0
H2034 H 0.97687 0.85186 0.09333 0.0
H2035 H 0.99901 0.86344 0.13587 0.0
H2036 H 0.97962 0.92995 0.17708 0.0
H2037 H 0.94836 0.93782 0.14287 0.0
C2038 C 0.9368 0.90947 0.10021 0.0
C2039 C 0.93232 0.89296 0.0788 0.0
C2040 C 0.95537 0.90525 0.11941 0.0
C2041 C 0.94722 0.87239 0.07639 0.0
C2042 C 0.96586 0.86804 0.09548 0.0
C2043 C 0.98812 0.87978 0.13717 0.0
C2044 C 0.99158 0.89593 0.15932 0.0
C2045 C 0.96999 0.88426 0.11727 0.0
C2046 C 0.97713 0.91694 0.16068 0.0
C2047 C 0.95929 0.92155 0.141 0.0
H2048 H 0.67459 0.67277 0.85424 0.0
H2049 H 0.6079 0.68817 0.81123 0.0
H2050 H 0.60011 0.72245 0.84226 0.0
H2051 H 0.61223 0.74741 0.88258 0.0
H2052 H 0.67976 0.73138 0.92392 0.0
H2053 H 0.68746 0.69823 0.89219 0.0
C2054 C 0.65835 0.68365 0.85148 0.0
C2055 C 0.6416 0.67765 0.83077 0.0
C2056 C 0.65425 0.70333 0.86905 0.0
C2057 C 0.62082 0.69212 0.82737 0.0
C2058 C 0.61645 0.71176 0.84504 0.0
C2059 C 0.62863 0.73665 0.88458 0.0
C2060 C 0.64544 0.742 0.90563 0.0
C2061 C 0.63297 0.71741 0.86616 0.0
C2062 C 0.6667 0.72799 0.90775 0.0
C2063 C 0.67104 0.70888 0.88972 0.0
H2064 H 0.59468 0.42147 0.09811 0.0
H2065 H 0.58912 0.3474 0.07079 0.0
H2066 H 0.55605 0.3403 0.10371 0.0
H2067 H 0.53051 0.35508 0.1429 0.0
H2068 H 0.5373 0.42971 0.16836 0.0
H2069 H 0.5678 0.43681 0.1332 0.0
C2070 C 0.58618 0.40374 0.0991 0.0
C2071 C 0.59477 0.38481 0.08244 0.0
C2072 C 0.5673 0.39998 0.11781 0.0
C2073 C 0.58324 0.36212 0.08378 0.0
C2074 C 0.56425 0.35813 0.10256 0.0
C2075 C 0.53848 0.37292 0.14036 0.0
C2076 C 0.5319 0.3918 0.15842 0.0
C2077 C 0.5564 0.37686 0.12009 0.0
C2078 C 0.54232 0.41485 0.15498 0.0
C2079 C 0.55975 0.41893 0.13489 0.0
H2080 H 0.84599 0.34627 0.34768 0.0
H2081 H 0.91378 0.33055 0.30727 0.0
H2082 H 0.92048 0.29616 0.33845 0.0
H2083 H 0.90734 0.27132 0.37838 0.0
H2084 H 0.83901 0.28773 0.41762 0.0
H2085 H 0.83211 0.32077 0.38544 0.0
C2086 C 0.86222 0.33526 0.34553 0.0
C2087 C 0.87956 0.3412 0.32542 0.0
C2088 C 0.86578 0.31554 0.36332 0.0
C2089 C 0.90032 0.32658 0.32281 0.0
C2090 C 0.90411 0.30689 0.34062 0.0
C2091 C 0.89094 0.28213 0.37986 0.0
C2092 C 0.87369 0.27688 0.4005 0.0
C2093 C 0.88706 0.30135 0.3612 0.0
C2094 C 0.85243 0.29098 0.40183 0.0
C2095 C 0.84853 0.31006 0.38352 0.0
H2096 H 0.9547 0.6131 0.56848 0.0
H2097 H 0.90736 0.66518 0.60661 0.0
H2098 H 0.9373 0.67227 0.64274 0.0
H2099 H 0.9753 0.66079 0.66579 0.0
H2100 H 0.02134 0.60606 0.62979 0.0
H2101 H 0.99394 0.60306 0.59052 0.0
C2102 C 0.95137 0.6265 0.58432 0.0
C2103 C 0.92941 0.63952 0.58422 0.0
C2104 C 0.96833 0.62968 0.60567 0.0
C2105 C 0.92471 0.65605 0.6054 0.0
C2106 C 0.94165 0.6597 0.62638 0.0
C2107 C 0.97939 0.64819 0.64937 0.0
C2108 C 1.00034 0.63353 0.651 0.0
C2109 C 0.96329 0.64623 0.62706 0.0
C2110 C 1.00551 0.61771 0.62913 0.0
C2111 C 0.98973 0.61586 0.60669 0.0
H2112 H 0.67433 0.34045 0.71587 0.0
H2113 H 0.60724 0.32671 0.75861 0.0
H2114 H 0.59774 0.29384 0.72626 0.0
H2115 H 0.6084 0.26983 0.6847 0.0
H2116 H 0.67647 0.28398 0.6438 0.0
H2117 H 0.68589 0.31562 0.67691 0.0
C2118 C 0.65763 0.33022 0.71829 0.0
C2119 C 0.64123 0.33637 0.73925 0.0
C2120 C 0.65257 0.31133 0.69997 0.0
C2121 C 0.61987 0.3227 0.74225 0.0
C2122 C 0.61453 0.30385 0.72383 0.0
C2123 C 0.62529 0.27984 0.68312 0.0
C2124 C 0.64174 0.27446 0.66177 0.0
C2125 C 0.63066 0.29818 0.70237 0.0
C2126 C 0.66365 0.28745 0.66017 0.0
C2127 C 0.66899 0.30569 0.679 0.0
H2128 H 0.93054 0.41888 0.95472 0.0
H2129 H 0.94851 0.35488 1.00127 0.0
H2130 H 0.98171 0.34583 0.96912 0.0
H2131 H 1.00514 0.35617 0.92689 0.0
H2132 H 0.98683 0.42139 0.88243 0.0
H2133 H 0.95447 0.43008 0.91492 0.0
C2134 C 0.94174 0.40294 0.95801 0.0
C2135 C 0.93673 0.38729 0.98008 0.0
C2136 C 0.96084 0.39818 0.93982 0.0
C2137 C 0.95164 0.36693 0.98412 0.0
C2138 C 0.97069 0.36185 0.96579 0.0
C2139 C 0.99405 0.37227 0.9244 0.0
C2140 C 0.99852 0.38816 0.90223 0.0
C2141 C 0.97534 0.37728 0.94338 0.0
C2142 C 0.98409 0.40904 0.89943 0.0
C2143 C 0.96545 0.41396 0.91792 0.0
H2144 H 0.90918 0.74745 0.18433 0.0
H2145 H 0.84307 0.73157 0.14014 0.0
H2146 H 0.83316 0.69981 0.17293 0.0
H2147 H 0.84359 0.67559 0.21302 0.0
H2148 H 0.90902 0.6908 0.25845 0.0
H2149 H 0.9188 0.72389 0.22652 0.0
C2150 C 0.89249 0.7372 0.18207 0.0
C2151 C 0.87704 0.74178 0.15952 0.0
C2152 C 0.88682 0.71879 0.20116 0.0
C2153 C 0.85554 0.72819 0.15689 0.0
C2154 C 0.84978 0.71007 0.17574 0.0
C2155 C 0.85996 0.68621 0.21609 0.0
C2156 C 0.87572 0.68056 0.23789 0.0
C2157 C 0.86537 0.70505 0.19774 0.0
C2158 C 0.89675 0.69461 0.24163 0.0
C2159 C 0.90229 0.71354 0.22339 0.0
H2160 H 0.5948 0.59416 0.46607 0.0
H2161 H 0.57962 0.661 0.50851 0.0
H2162 H 0.54714 0.67015 0.47537 0.0
H2163 H 0.52395 0.65932 0.43312 0.0
H2164 H 0.53997 0.59175 0.3922 0.0
H2165 H 0.57119 0.58273 0.42602 0.0
C2166 C 0.58434 0.61073 0.46825 0.0
C2167 C 0.58983 0.62705 0.48953 0.0
C2168 C 0.56586 0.61573 0.44928 0.0
C2169 C 0.57598 0.64832 0.49207 0.0
C2170 C 0.55738 0.65348 0.47316 0.0
C2171 C 0.53413 0.64253 0.4318 0.0
C2172 C 0.52974 0.62637 0.40986 0.0
C2173 C 0.55227 0.63738 0.45149 0.0
C2174 C 0.54322 0.60475 0.40845 0.0
C2175 C 0.56103 0.59949 0.42789 0.0
H2176 H 0.37075 0.26329 0.19489 0.0
H2177 H 0.42471 0.29806 0.14414 0.0
H2178 H 0.42915 0.33035 0.1778 0.0
H2179 H 0.41512 0.35083 0.21944 0.0
H2180 H 0.36046 0.31721 0.26999 0.0
H2181 H 0.35892 0.28246 0.23874 0.0
C2182 C 0.38354 0.27788 0.19123 0.0
C2183 C 0.3973 0.27814 0.16684 0.0
C2184 C 0.3858 0.29673 0.21061 0.0
C2185 C 0.41406 0.29708 0.16276 0.0
C2186 C 0.4165 0.31574 0.18194 0.0
C2187 C 0.40316 0.33571 0.2239 0.0
C2188 C 0.38782 0.33669 0.24695 0.0
C2189 C 0.40214 0.316 0.20565 0.0
C2190 C 0.37243 0.31694 0.25239 0.0
C2191 C 0.37145 0.29712 0.23443 0.0
H2192 H 0.50043 0.65818 0.93597 0.0
H2193 H 0.48489 0.58976 0.89663 0.0
H2194 H 0.45209 0.5823 0.92892 0.0
H2195 H 0.42658 0.59563 0.96672 0.0
H2196 H 0.44139 0.66329 1.00765 0.0
H2197 H 0.47557 0.67072 0.97629 0.0
C2198 C 0.48988 0.64163 0.93453 0.0
C2199 C 0.49529 0.62451 0.91383 0.0
C2200 C 0.4708 0.63739 0.95331 0.0
C2201 C 0.48151 0.60308 0.91249 0.0
C2202 C 0.46257 0.59885 0.93086 0.0
C2203 C 0.43733 0.61199 0.96897 0.0
C2204 C 0.43116 0.6291 0.98921 0.0
C2205 C 0.45693 0.61594 0.95114 0.0
C2206 C 0.4455 0.65003 0.99196 0.0
C2207 C 0.46507 0.65422 0.97406 0.0
H2208 H 0.11015 0.7465 0.68724 0.0
H2209 H 0.17957 0.73327 0.64887 0.0
H2210 H 0.18702 0.69963 0.68001 0.0
H2211 H 0.17344 0.67282 0.71639 0.0
H2212 H 0.105 0.68554 0.75675 0.0
H2213 H 0.09737 0.72033 0.72638 0.0
C2214 C 0.12692 0.73627 0.68579 0.0
C2215 C 0.14432 0.74254 0.66571 0.0
C2216 C 0.13114 0.71671 0.70389 0.0
C2217 C 0.16603 0.72919 0.6643 0.0
C2218 C 0.17025 0.70977 0.68198 0.0
C2219 C 0.15684 0.68322 0.71872 0.0
C2220 C 0.13955 0.67626 0.73845 0.0
C2221 C 0.15287 0.70325 0.70162 0.0
C2222 C 0.11833 0.69016 0.74133 0.0
C2223 C 0.11407 0.71013 0.72405 0.0
H2224 H 0.02661 0.36266 0.43039 0.0
H2225 H 0.04857 0.4233 0.38021 0.0
H2226 H 0.08154 0.43232 0.41187 0.0
H2227 H 0.10484 0.4227 0.45282 0.0
H2228 H 0.08395 0.36262 0.50415 0.0
H2229 H 0.04983 0.35367 0.47315 0.0
C2230 C 0.0385 0.37796 0.42658 0.0
C2231 C 0.03522 0.39214 0.40274 0.0
C2232 C 0.05767 0.38307 0.44498 0.0
C2233 C 0.05089 0.41183 0.39806 0.0
C2234 C 0.06972 0.41709 0.41623 0.0
C2235 C 0.09279 0.40767 0.45737 0.0
C2236 C 0.09704 0.39321 0.48063 0.0
C2237 C 0.0734 0.40273 0.43957 0.0
C2238 C 0.08119 0.37387 0.48622 0.0
C2239 C 0.06167 0.36881 0.46851 0.0
H2240 H 0.41095 0.75114 0.38542 0.0
H2241 H 0.34186 0.73776 0.42444 0.0
H2242 H 0.33336 0.7054 0.39192 0.0
H2243 H 0.34601 0.67965 0.35413 0.0
H2244 H 0.41423 0.6925 0.31335 0.0
H2245 H 0.42276 0.72619 0.34498 0.0
C2246 C 0.39403 0.74115 0.38673 0.0
C2247 C 0.37704 0.74697 0.4074 0.0
C2248 C 0.38921 0.72236 0.36784 0.0
C2249 C 0.3551 0.73398 0.4086 0.0
C2250 C 0.35028 0.71531 0.39011 0.0
C2251 C 0.36275 0.68986 0.35198 0.0
C2252 C 0.37972 0.68326 0.33177 0.0
C2253 C 0.36727 0.70921 0.36988 0.0
C2254 C 0.40112 0.6969 0.32911 0.0
C2255 C 0.40592 0.71621 0.34712 0.0
H2256 H 0.09528 0.59641 0.10722 0.0
H2257 H 0.07764 0.65987 0.05958 0.0
H2258 H 0.04412 0.66922 0.09124 0.0
H2259 H 0.02053 0.65944 0.1335 0.0
H2260 H 0.03937 0.59541 0.17985 0.0
H2261 H 0.07172 0.58617 0.14757 0.0
C2262 C 0.08408 0.61228 0.10359 0.0
C2263 C 0.08906 0.62756 0.08122 0.0
C2264 C 0.06507 0.61742 0.12174 0.0
C2265 C 0.07431 0.64798 0.07684 0.0
C2266 C 0.05514 0.65326 0.09491 0.0
C2267 C 0.03161 0.64338 0.13633 0.0
C2268 C 0.02765 0.62826 0.15927 0.0
C2269 C 0.05042 0.63814 0.11757 0.0
C2270 C 0.04226 0.60758 0.16272 0.0
C2271 C 0.06071 0.6022 0.14419 0.0
H2272 H 0.17331 0.34575 0.8607 0.0
H2273 H 0.11557 0.32374 0.8064 0.0
H2274 H 0.10585 0.28974 0.83711 0.0
H2275 H 0.11376 0.26658 0.88008 0.0
H2276 H 0.17264 0.289 0.93283 0.0
H2277 H 0.18214 0.32225 0.90181 0.0
C2278 C 0.15861 0.33349 0.85545 0.0
C2279 C 0.1449 0.33754 0.83151 0.0
C2280 C 0.15344 0.31394 0.87292 0.0
C2281 C 0.1261 0.32131 0.82496 0.0
C2282 C 0.12063 0.30181 0.84247 0.0
C2283 C 0.12865 0.27877 0.88475 0.0
C2284 C 0.14252 0.27515 0.90881 0.0
C2285 C 0.1341 0.29803 0.86666 0.0
C2286 C 0.16189 0.29104 0.91437 0.0
C2287 C 0.16725 0.3102 0.8967 0.0
H2288 H 0.50263 0.36187 0.63377 0.0
H2289 H 0.48536 0.42841 0.6761 0.0
H2290 H 0.45311 0.43679 0.64323 0.0
H2291 H 0.42856 0.42461 0.60394 0.0
H2292 H 0.44551 0.35889 0.56014 0.0
H2293 H 0.47899 0.35067 0.59219 0.0
C2294 C 0.49181 0.37821 0.63574 0.0
C2295 C 0.4965 0.39451 0.65744 0.0
C2296 C 0.47313 0.38297 0.61665 0.0
C2297 C 0.48244 0.41572 0.65948 0.0
C2298 C 0.46385 0.42046 0.64078 0.0
C2299 C 0.43965 0.40852 0.60125 0.0
C2300 C 0.43428 0.39214 0.57999 0.0
C2301 C 0.45889 0.40414 0.61948 0.0
C2302 C 0.44901 0.37155 0.57664 0.0
C2303 C 0.46818 0.36691 0.59492 0.0
H2304 H 0.1136 0.04741 0.32086 0.0
H2305 H 0.11018 0.05282 0.23285 0.0
H2306 H 0.11012 1.00838 0.22915 0.0
H2307 H 0.1106 0.96806 0.25122 0.0
H2308 H 0.10961 0.96278 0.33932 0.0
H2309 H 0.11166 1.00719 0.34299 0.0
C2310 C 0.11286 0.03879 0.30091 0.0
C2311 C 0.11212 0.0532 0.27709 0.0
C2312 C 0.11194 0.01336 0.29909 0.0
C2313 C 0.11079 0.04198 0.25137 0.0
C2314 C 0.11077 0.01664 0.2493 0.0
C2315 C 0.11087 0.97672 0.27119 0.0
C2316 C 0.1102 0.96237 0.29504 0.0
C2317 C 0.11128 1.00217 0.27303 0.0
C2318 C 0.11018 0.9736 0.32079 0.0
C2319 C 0.11138 0.99892 0.32284 0.0
H2320 H 0.22253 0.88743 0.55224 0.0
H2321 H 0.21647 0.82487 0.49961 0.0
H2322 H 0.26072 0.82066 0.49915 0.0
H2323 H 0.30121 0.83385 0.51512 0.0
H2324 H 0.30745 0.89684 0.56677 0.0
H2325 H 0.26309 0.9016 0.56672 0.0
C2326 C 0.23088 0.87301 0.54045 0.0
C2327 C 0.21614 0.85641 0.52604 0.0
C2328 C 0.25637 0.87054 0.54055 0.0
C2329 C 0.22734 0.83786 0.51089 0.0
C2330 C 0.25265 0.83536 0.51075 0.0
C2331 C 0.29275 0.84845 0.52656 0.0
C2332 C 0.30738 0.86471 0.54142 0.0
C2333 C 0.26733 0.85134 0.52586 0.0
C2334 C 0.29642 0.88397 0.55552 0.0
C2335 C 0.27111 0.88674 0.55535 0.0
H2336 H 0.38253 0.97388 0.79915 0.0
H2337 H 0.45358 0.96727 0.7627 0.0
H2338 H 0.45822 0.01136 0.76329 0.0
H2339 H 0.4424 0.05193 0.77491 0.0
H2340 H 0.37056 0.0588 0.8089 0.0
H2341 H 0.36603 0.01456 0.8091 0.0
C2342 C 0.39896 0.98211 0.79118 0.0
C2343 C 0.41774 0.96728 0.78102 0.0
C2344 C 0.40149 1.00753 0.79156 0.0
C2345 C 0.43885 0.97824 0.77062 0.0
C2346 C 0.44158 1.00347 0.7711 0.0
C2347 C 0.42589 0.04366 0.78266 0.0
C2348 C 0.40699 0.05848 0.79243 0.0
C2349 C 0.42315 0.01828 0.78179 0.0
C2350 C 0.38542 0.04768 0.80163 0.0
C2351 C 0.3828 0.02242 0.80159 0.0
H2352 H 0.21556 0.18121 1.00413 0.0
H2353 H 0.20971 0.12948 0.06991 0.0
H2354 H 0.25408 0.1249 0.07088 0.0
H2355 H 0.29454 0.13652 0.05368 0.0
H2356 H 0.30034 0.18848 0.9879 0.0
H2357 H 0.25602 0.1917 0.98573 0.0
C2358 C 0.22414 0.16914 1.0188 0.0
C2359 C 0.20968 0.15605 0.03733 0.0
C2360 C 0.24956 0.16641 1.01892 0.0
C2361 C 0.22069 0.13997 0.0558 0.0
C2362 C 0.24598 0.13727 0.05622 0.0
C2363 C 0.28609 0.1483 0.03861 0.0
C2364 C 0.30071 0.16228 1.02095 0.0
C2365 C 0.26061 0.15044 0.03791 0.0
C2366 C 0.28948 0.17755 1.00168 0.0
C2367 C 0.26416 0.17951 1.00056 0.0
H2368 H 0.94135 0.0479 0.79968 0.0
H2369 H 0.87381 0.05382 0.75555 0.0
H2370 H 0.86853 1.00974 0.75747 0.0
H2371 H 0.88315 0.96968 0.77179 0.0
H2372 H 0.95077 0.96328 0.81593 0.0
H2373 H 0.95571 1.00744 0.81476 0.0
C2374 C 0.92566 0.0394 0.79023 0.0
C2375 C 0.90809 0.05389 0.77715 0.0
C2376 C 0.92258 0.01409 0.79193 0.0
C2377 C 0.88754 0.04292 0.76559 0.0
C2378 C 0.88451 0.01777 0.76679 0.0
C2379 C 0.89893 0.97792 0.78127 0.0
C2380 C 0.91664 0.96318 0.7938 0.0
C2381 C 0.90185 1.0032 0.78003 0.0
C2382 C 0.93686 0.9742 0.80619 0.0
C2383 C 0.93978 0.99944 0.80534 0.0
H2384 H 0.71728 0.13195 0.54236 0.0
H2385 H 0.7106 0.20051 0.5004 0.0
H2386 H 0.75482 0.20476 0.49984 0.0
H2387 H 0.79556 0.18958 0.51245 0.0
H2388 H 0.80244 0.12045 0.55279 0.0
H2389 H 0.75809 0.11597 0.55331 0.0
C2390 C 0.7255 0.14773 0.5329 0.0
C2391 C 0.71057 0.16595 0.52153 0.0
C2392 C 0.75101 0.15011 0.53275 0.0
C2393 C 0.72159 0.18622 0.50927 0.0
C2394 C 0.74691 0.18873 0.50909 0.0
C2395 C 0.78726 0.17365 0.52155 0.0
C2396 C 0.80214 0.15551 0.53299 0.0
C2397 C 0.7618 0.17096 0.52108 0.0
C2398 C 0.7913 0.13469 0.54408 0.0
C2399 C 0.76596 0.13211 0.54428 0.0
H2400 H 0.60631 0.04763 0.25145 0.0
H2401 H 0.61232 0.05239 0.33934 0.0
H2402 H 0.61501 1.00798 0.34244 0.0
H2403 H 0.61458 0.96785 0.31997 0.0
H2404 H 0.60496 0.963 0.23252 0.0
H2405 H 0.60466 1.00746 0.22917 0.0
C2406 C 0.6083 0.03886 0.27125 0.0
C2407 C 0.6093 0.05308 0.29518 0.0
C2408 C 0.60908 0.01341 0.27283 0.0
C2409 C 0.61154 0.0417 0.32074 0.0
C2410 C 0.61308 0.01637 0.32246 0.0
C2411 C 0.61263 0.9766 0.30019 0.0
C2412 C 0.6101 0.96233 0.27643 0.0
C2413 C 0.61175 1.00206 0.29864 0.0
C2414 C 0.60699 0.97372 0.25099 0.0
C2415 C 0.60683 0.99908 0.24912 0.0
H2416 H 0.72593 0.82522 1.01744 0.0
H2417 H 0.71818 0.89356 0.05918 0.0
H2418 H 0.76225 0.89932 0.05857 0.0
H2419 H 0.80298 0.88505 0.04576 0.0
H2420 H 0.81104 0.81691 1.00334 0.0
H2421 H 0.76694 0.81114 1.00402 0.0
C2422 C 0.734 0.84118 1.02671 0.0
C2423 C 0.71893 0.85886 0.03865 0.0
C2424 C 0.75937 0.84457 1.0257 0.0
C2425 C 0.72945 0.87974 0.04997 0.0
C2426 C 0.75464 0.88305 0.04953 0.0
C2427 C 0.79511 0.869 0.03649 0.0
C2428 C 0.81034 0.85141 1.02455 0.0
C2429 C 0.76977 0.86568 0.03725 0.0
C2430 C 0.79976 0.83075 1.01262 0.0
C2431 C 0.77454 0.82737 1.01315 0.0
H2432 H 0.6118 0.54681 0.82029 0.0
H2433 H 0.61101 0.55227 0.73222 0.0
H2434 H 0.61296 0.50786 0.72841 0.0
H2435 H 0.61422 0.46753 0.75042 0.0
H2436 H 0.61057 0.46202 0.83841 0.0
H2437 H 0.61108 0.50645 0.84225 0.0
C2438 C 0.61213 0.53818 0.80031 0.0
C2439 C 0.61151 0.55258 0.7765 0.0
C2440 C 0.61245 0.51274 0.7984 0.0
C2441 C 0.61154 0.5414 0.75071 0.0
C2442 C 0.61267 0.51609 0.74859 0.0
C2443 C 0.61367 0.47615 0.7704 0.0
C2444 C 0.61267 0.46172 0.79418 0.0
C2445 C 0.61307 0.50159 0.7723 0.0
C2446 C 0.61148 0.4729 0.81994 0.0
C2447 C 0.61175 0.49823 0.82208 0.0
H2448 H 0.80626 0.36401 0.99647 0.0
H2449 H 0.81357 0.35358 0.08362 0.0
H2450 H 0.76918 0.35428 0.08867 0.0
H2451 H 0.72828 0.35691 0.06793 0.0
H2452 H 0.72102 0.36274 0.98026 0.0
H2453 H 0.76542 0.36477 0.97551 0.0
C2454 C 0.79807 0.36205 1.01656 0.0
C2455 C 0.81301 0.35905 0.03976 0.0
C2456 C 0.77261 0.36156 1.01907 0.0
C2457 C 0.80232 0.35602 0.06559 0.0
C2458 C 0.777 0.35641 0.06843 0.0
C2459 C 0.73652 0.35874 0.04784 0.0
C2460 C 0.72161 0.35996 1.02444 0.0
C2461 C 0.76198 0.35904 0.0453 0.0
C2462 C 0.73228 0.3619 0.99846 0.0
C2463 C 0.75759 0.36305 0.9958 0.0
H2464 H 0.94516 0.5498 0.27216 0.0
H2465 H 0.8713 0.55549 0.30049 0.0
H2466 H 0.86728 0.51123 0.2997 0.0
H2467 H 0.88468 0.47096 0.29018 0.0
H2468 H 0.95787 0.46541 0.2593 0.0
H2469 H 0.96208 0.50954 0.26109 0.0
C2470 C 0.92834 0.54127 0.27852 0.0
C2471 C 0.90869 0.55574 0.28697 0.0
C2472 C 0.9259 0.51589 0.27698 0.0
C2473 C 0.88673 0.54461 0.29434 0.0
C2474 C 0.88439 0.51935 0.29368 0.0
C2475 C 0.9015 0.47943 0.28369 0.0
C2476 C 0.92098 0.4649 0.27475 0.0
C2477 C 0.9038 0.50482 0.28482 0.0
C2478 C 0.94259 0.47616 0.26622 0.0
C2479 C 0.94507 0.50139 0.26743 0.0
H2480 H 0.72199 0.68557 0.50876 0.0
H2481 H 0.71665 0.62451 0.56344 0.0
H2482 H 0.76099 0.61959 0.56258 0.0
H2483 H 0.80129 0.6333 0.54673 0.0
H2484 H 0.80628 0.69372 0.4908 0.0
H2485 H 0.76207 0.6979 0.49105 0.0
C2486 C 0.73065 0.67136 0.52065 0.0
C2487 C 0.71632 0.65572 0.53664 0.0
C2488 C 0.75601 0.66831 0.51943 0.0
C2489 C 0.72749 0.63691 0.55134 0.0
C2490 C 0.75277 0.63405 0.5507 0.0
C2491 C 0.79269 0.64719 0.53433 0.0
C2492 C 0.80711 0.66326 0.51885 0.0
C2493 C 0.76723 0.64965 0.53481 0.0
C2494 C 0.79564 0.68114 0.50289 0.0
C2495 C 0.77035 0.68364 0.50317 0.0
H2496 H 0.41888 0.55289 0.32024 0.0
H2497 H 0.40019 0.55786 0.23469 0.0
H2498 H 0.39693 0.51349 0.232 0.0
H2499 H 0.40014 0.47348 0.25394 0.0
H2500 H 0.42227 0.46814 0.33853 0.0
H2501 H 0.42317 0.51257 0.34199 0.0
C2502 C 0.41417 0.54413 0.30106 0.0
C2503 C 0.40981 0.55834 0.27763 0.0
C2504 C 0.41279 0.5187 0.29966 0.0
C2505 C 0.40374 0.54709 0.25283 0.0
C2506 C 0.4018 0.52181 0.25138 0.0
C2507 C 0.40491 0.48206 0.27322 0.0
C2508 C 0.41083 0.46766 0.29612 0.0
C2509 C 0.40631 0.50746 0.27466 0.0
C2510 C 0.41749 0.47894 0.32077 0.0
C2511 C 0.4181 0.50428 0.32268 0.0
H2512 H 0.29988 0.63251 1.02036 0.0
H2513 H 0.30618 0.70281 0.0585 0.0
H2514 H 0.26202 0.70675 0.05934 0.0
H2515 H 0.22147 0.69067 0.04841 0.0
H2516 H 0.21469 0.6195 1.01297 0.0
H2517 H 0.25903 0.61547 1.01155 0.0
C2518 C 0.29155 0.64859 1.02902 0.0
C2519 C 0.30631 0.66741 0.03919 0.0
C2520 C 0.26604 0.6507 1.02958 0.0
C2521 C 0.29526 0.68809 0.05049 0.0
C2522 C 0.26998 0.69042 0.05087 0.0
C2523 C 0.22977 0.6744 0.04013 0.0
C2524 C 0.21495 0.65554 1.03034 0.0
C2525 C 0.2552 0.67198 0.0402 0.0
C2526 C 0.2258 0.63428 1.02038 0.0
C2527 C 0.25113 0.63198 1.01966 0.0
H2528 H 0.10719 0.46324 0.81441 0.0
H2529 H 0.12087 0.46167 0.72753 0.0
H2530 H 0.12244 0.50622 0.72659 0.0
H2531 H 0.12002 0.54539 0.75069 0.0
H2532 H 0.10374 0.54713 0.83708 0.0
H2533 H 0.10341 0.50258 0.83831 0.0
C2534 C 0.11053 0.47275 0.79532 0.0
C2535 C 0.11405 0.4594 0.77105 0.0
C2536 C 0.11108 0.49824 0.795 0.0
C2537 C 0.11804 0.47171 0.74635 0.0
C2538 C 0.11903 0.49709 0.74588 0.0
C2539 C 0.11656 0.53599 0.76983 0.0
C2540 C 0.11219 0.54942 0.7939 0.0
C2541 C 0.11566 0.51052 0.7701 0.0
C2542 C 0.10723 0.5371 0.8184 0.0
C2543 C 0.107 0.51169 0.81905 0.0
H2544 H 0.22685 0.33059 0.51111 0.0
H2545 H 0.21938 0.39408 0.56174 0.0
H2546 H 0.26359 0.39927 0.56252 0.0
H2547 H 0.30433 0.38575 0.54857 0.0
H2548 H 0.31197 0.32231 0.4976 0.0
H2549 H 0.2678 0.31728 0.4967 0.0
C2550 C 0.23503 0.34533 0.52259 0.0
C2551 C 0.22005 0.36181 0.53664 0.0
C2552 C 0.26043 0.34838 0.5225 0.0
C2553 C 0.23064 0.38119 0.55088 0.0
C2554 C 0.25588 0.38417 0.55125 0.0
C2555 C 0.29635 0.37093 0.53709 0.0
C2556 C 0.31146 0.35441 0.52317 0.0
C2557 C 0.27095 0.36797 0.53697 0.0
C2558 C 0.30076 0.33529 0.50843 0.0
C2559 C 0.27551 0.33232 0.50805 0.0
H2560 H 0.16182 0.14516 0.11682 0.0
H2561 H 0.08512 0.15509 0.10414 0.0
H2562 H 0.07839 0.15405 0.15412 0.0
H2563 H 0.09462 0.14657 0.2018 0.0
H2564 H 0.17221 0.13843 0.21188 0.0
H2565 H 0.17815 0.14275 0.16311 0.0
C2566 C 0.14364 0.14749 0.12502 0.0
C2567 C 0.12402 0.15013 0.10683 0.0
C2568 C 0.14003 0.147 0.15355 0.0
C2569 C 0.10058 0.15322 0.11773 0.0
C2570 C 0.09674 0.15244 0.14633 0.0
C2571 C 0.11281 0.14619 0.19335 0.0
C2572 C 0.13285 0.14168 0.21087 0.0
C2573 C 0.11633 0.14884 0.16457 0.0
C2574 C 0.15629 0.14135 0.19925 0.0
C2575 C 0.15983 0.14387 0.17114 0.0
H2576 H 0.11245 0.89963 0.45758 0.0
H2577 H 0.13513 0.82495 0.46152 0.0
H2578 H 0.13085 0.82143 0.41156 0.0
H2579 H 0.12508 0.84138 0.36591 0.0
H2580 H 0.10148 0.91584 0.36328 0.0
H2581 H 0.10145 0.91765 0.41331 0.0
C2582 C 0.116 0.88243 0.44757 0.0
C2583 C 0.1242 0.86261 0.46327 0.0
C2584 C 0.11341 0.88057 0.41892 0.0
C2585 C 0.12861 0.84043 0.44998 0.0
C2586 C 0.12635 0.83848 0.42134 0.0
C2587 C 0.11919 0.85768 0.37641 0.0
C2588 C 0.11293 0.87838 0.36097 0.0
C2589 C 0.11932 0.85862 0.40545 0.0
C2590 C 0.10594 0.8996 0.37477 0.0
C2591 C 0.10612 0.9007 0.40338 0.0
H2592 H 0.39883 0.84765 0.7076 0.0
H2593 H 0.41314 0.92447 0.7097 0.0
H2594 H 0.41336 0.92599 0.65975 0.0
H2595 H 0.40543 0.90667 0.61559 0.0
H2596 H 0.39101 0.82995 0.61175 0.0
H2597 H 0.39516 0.82709 0.66181 0.0
C2598 C 0.40266 0.86451 0.69701 0.0
C2599 C 0.40623 0.88593 0.71238 0.0
C2600 C 0.40243 0.86534 0.66789 0.0
C2601 C 0.41061 0.90775 0.69837 0.0
C2602 C 0.41058 0.90866 0.66977 0.0
C2603 C 0.40352 0.8892 0.6256 0.0
C2604 C 0.39775 0.86858 0.6098 0.0
C2605 C 0.40588 0.88775 0.65432 0.0
C2606 C 0.39557 0.84611 0.62326 0.0
C2607 C 0.39779 0.84451 0.65199 0.0
H2608 H 0.36304 0.1593 0.86365 0.0
H2609 H 0.43962 0.14324 0.86207 0.0
H2610 H 0.4418 0.14891 0.91198 0.0
H2611 H 0.42045 0.15373 0.957 0.0
H2612 H 0.34379 0.1695 0.95709 0.0
H2613 H 0.3431 0.16887 0.90707 0.0
C2614 C 0.38032 0.15737 0.87414 0.0
C2615 C 0.40109 0.15062 0.85913 0.0
C2616 C 0.38136 0.16057 0.90274 0.0
C2617 C 0.42337 0.14851 0.87306 0.0
C2618 C 0.42456 0.15159 0.90167 0.0
C2619 C 0.40385 0.15781 0.94594 0.0
C2620 C 0.38223 0.16203 0.96069 0.0
C2621 C 0.40352 0.15703 0.91689 0.0
C2622 C 0.36068 0.16661 0.94616 0.0
C2623 C 0.36024 0.16604 0.91755 0.0
H2624 H 0.93191 0.87518 0.8668 0.0
H2625 H 0.85594 0.86118 0.85174 0.0
H2626 H 0.8494 0.8532 0.90015 0.0
H2627 H 0.86362 0.85556 0.94753 0.0
H2628 H 0.93898 0.86959 0.96456 0.0
H2629 H 0.94753 0.87189 0.91508 0.0
C2630 C 0.91414 0.86968 0.87408 0.0
C2631 C 0.8944 0.86895 0.85557 0.0
C2632 C 0.91031 0.86539 0.90247 0.0
C2633 C 0.87141 0.86207 0.86547 0.0
C2634 C 0.86759 0.85756 0.89324 0.0
C2635 C 0.88206 0.85842 0.94034 0.0
C2636 C 0.90068 0.86218 0.95957 0.0
C2637 C 0.88666 0.85996 0.91203 0.0
C2638 C 0.92443 0.86623 0.9501 0.0
C2639 C 0.92923 0.86779 0.92178 0.0
H2640 H 0.89813 0.17272 0.69896 0.0
H2641 H 0.90474 0.09488 0.70174 0.0
H2642 H 0.90339 0.09294 0.65181 0.0
H2643 H 0.89715 0.11265 0.60747 0.0
H2644 H 0.88944 0.1903 0.60301 0.0
H2645 H 0.89483 0.19311 0.65294 0.0
C2646 C 0.89989 0.15546 0.68852 0.0
C2647 C 0.90193 0.13394 0.70415 0.0
C2648 C 0.89864 0.15441 0.65938 0.0
C2649 C 0.90353 0.11167 0.69027 0.0
C2650 C 0.90258 0.11054 0.66166 0.0
C2651 C 0.89671 0.13027 0.6173 0.0
C2652 C 0.89257 0.1512 0.60127 0.0
C2653 C 0.89961 0.13168 0.64601 0.0
C2654 C 0.89262 0.17385 0.6146 0.0
C2655 C 0.89557 0.17544 0.64329 0.0
H2656 H 0.61224 0.11456 0.45514 0.0
H2657 H 0.62072 0.19222 0.4569 0.0
H2658 H 0.61442 0.19392 0.40705 0.0
H2659 H 0.61153 0.17229 0.36198 0.0
H2660 H 0.60398 0.0945 0.36181 0.0
H2661 H 0.60475 0.09384 0.41179 0.0
C2662 C 0.6124 0.13194 0.44471 0.0
C2663 C 0.61721 0.1532 0.45972 0.0
C2664 C 0.60901 0.13269 0.41615 0.0
C2665 C 0.61698 0.17557 0.44588 0.0
C2666 C 0.61355 0.17651 0.41731 0.0
C2667 C 0.60928 0.15537 0.37302 0.0
C2668 C 0.60742 0.13345 0.35828 0.0
C2669 C 0.61019 0.15509 0.40206 0.0
C2670 C 0.60514 0.11157 0.37276 0.0
C2671 C 0.60575 0.11117 0.40134 0.0
H2672 H 0.62282 0.90321 0.11256 0.0
H2673 H 0.63192 0.82572 0.10781 0.0
H2674 H 0.62599 0.8225 0.15762 0.0
H2675 H 0.6225 0.84273 0.20357 0.0
H2676 H 0.61352 0.92034 0.20649 0.0
H2677 H 0.61492 0.9225 0.15662 0.0
C2678 C 0.62322 0.88553 0.12231 0.0
C2679 C 0.62805 0.86476 0.10642 0.0
C2680 C 0.61984 0.88388 0.15083 0.0
C2681 C 0.62819 0.84201 0.11947 0.0
C2682 C 0.62493 0.8402 0.14803 0.0
C2683 C 0.62011 0.85993 0.19314 0.0
C2684 C 0.61762 0.88137 0.20869 0.0
C2685 C 0.62127 0.8611 0.1641 0.0
C2686 C 0.61515 0.90362 0.19496 0.0
C2687 C 0.61613 0.90489 0.16642 0.0
H2688 H 0.64676 0.66405 0.70591 0.0
H2689 H 0.58357 0.61804 0.70736 0.0
H2690 H 0.581 0.61978 0.65722 0.0
H2691 H 0.59957 0.63096 0.61253 0.0
H2692 H 0.66067 0.67967 0.6113 0.0
H2693 H 0.66108 0.68072 0.66152 0.0
C2694 C 0.63209 0.65493 0.69523 0.0
C2695 C 0.61533 0.64097 0.71031 0.0
C2696 C 0.63043 0.65645 0.66636 0.0
C2697 C 0.59648 0.62914 0.69624 0.0
C2698 C 0.59513 0.62998 0.66753 0.0
C2699 C 0.61244 0.64239 0.62332 0.0
C2700 C 0.62991 0.65545 0.60825 0.0
C2701 C 0.61233 0.64313 0.6523 0.0
C2702 C 0.64678 0.66984 0.62245 0.0
C2703 C 0.64717 0.67023 0.65119 0.0
H2704 H 0.64744 0.34813 0.86291 0.0
H2705 H 0.58678 0.39745 0.86336 0.0
H2706 H 0.58558 0.39606 0.91356 0.0
H2707 H 0.60488 0.38416 0.95752 0.0
H2708 H 0.66308 0.33196 0.95703 0.0
H2709 H 0.66206 0.33077 0.90683 0.0
C2710 C 0.63356 0.35801 0.87406 0.0
C2711 C 0.61715 0.37281 0.85956 0.0
C2712 C 0.63269 0.35671 0.90292 0.0
C2713 C 0.59936 0.3857 0.87412 0.0
C2714 C 0.59882 0.38506 0.90283 0.0
C2715 C 0.61684 0.37204 0.94636 0.0
C2716 C 0.63398 0.35808 0.96086 0.0
C2717 C 0.61578 0.3711 0.91748 0.0
C2718 C 0.64953 0.34259 0.94628 0.0
C2719 C 0.64908 0.34208 0.91757 0.0
H2720 H 0.90751 0.40499 0.10959 0.0
H2721 H 0.90035 0.32725 0.10575 0.0
H2722 H 0.90522 0.32473 0.15575 0.0
H2723 H 0.90716 0.34552 0.20152 0.0
H2724 H 0.91403 0.42337 0.20351 0.0
H2725 H 0.91385 0.42492 0.15361 0.0
C2726 C 0.90731 0.38741 0.11958 0.0
C2727 C 0.90335 0.36637 0.10384 0.0
C2728 C 0.91004 0.38614 0.14824 0.0
C2729 C 0.90344 0.34376 0.11726 0.0
C2730 C 0.90608 0.34234 0.14594 0.0
C2731 C 0.90935 0.36266 0.19092 0.0
C2732 C 0.91082 0.38433 0.20624 0.0
C2733 C 0.90886 0.36349 0.16181 0.0
C2734 C 0.91309 0.40647 0.19221 0.0
C2735 C 0.91283 0.4074 0.16364 0.0
H2736 H 0.90014 0.67563 0.36041 0.0
H2737 H 0.90891 0.59796 0.35945 0.0
H2738 H 0.9103 0.59711 0.4094 0.0
H2739 H 0.90464 0.61755 0.45321 0.0
H2740 H 0.89434 0.69498 0.45578 0.0
H2741 H 0.89849 0.69699 0.40571 0.0
C2742 C 0.90304 0.6587 0.37125 0.0
C2743 C 0.90467 0.63687 0.35632 0.0
C2744 C 0.9033 0.65828 0.4003 0.0
C2745 C 0.90786 0.61496 0.37054 0.0
C2746 C 0.90851 0.61445 0.39911 0.0
C2747 C 0.90355 0.63495 0.4429 0.0
C2748 C 0.89889 0.65604 0.45827 0.0
C2749 C 0.90556 0.63586 0.4142 0.0
C2750 C 0.89797 0.67845 0.44452 0.0
C2751 C 0.90016 0.67957 0.41582 0.0
H2752 H 0.40622 0.34833 0.36174 0.0
H2753 H 0.41034 0.4264 0.36096 0.0
H2754 H 0.41171 0.42721 0.41088 0.0
H2755 H 0.40743 0.40642 0.45455 0.0
H2756 H 0.40085 0.32865 0.45723 0.0
H2757 H 0.40544 0.32682 0.40711 0.0
C2758 C 0.40799 0.36538 0.37262 0.0
C2759 C 0.40829 0.38732 0.35775 0.0
C2760 C 0.40818 0.36575 0.40167 0.0
C2761 C 0.41017 0.40934 0.37201 0.0
C2762 C 0.41088 0.40982 0.40055 0.0
C2763 C 0.40719 0.38901 0.44423 0.0
C2764 C 0.40346 0.36775 0.45958 0.0
C2765 C 0.40921 0.38824 0.41557 0.0
C2766 C 0.40377 0.3453 0.44593 0.0
C2767 C 0.40616 0.3443 0.41721 0.0
H2768 H 0.36442 0.65371 0.2049 0.0
H2769 H 0.44209 0.64532 0.21021 0.0
H2770 H 0.44541 0.65047 0.16032 0.0
H2771 H 0.4253 0.65311 0.11415 0.0
H2772 H 0.34748 0.66123 0.11062 0.0
H2773 H 0.34518 0.66065 0.1605 0.0
C2774 C 0.38215 0.65328 0.19525 0.0
C2775 C 0.40293 0.64889 0.21138 0.0
C2776 C 0.38387 0.65617 0.16663 0.0
C2777 C 0.42576 0.64873 0.19841 0.0
C2778 C 0.42765 0.65153 0.16978 0.0
C2779 C 0.40801 0.65545 0.12442 0.0
C2780 C 0.38656 0.65745 0.10867 0.0
C2781 C 0.40674 0.65474 0.15351 0.0
C2782 C 0.36421 0.6599 0.12227 0.0
C2783 C 0.36286 0.65942 0.15082 0.0
H2784 H 0.14879 0.65887 0.86432 0.0
H2785 H 0.0806 0.62059 0.86261 0.0
H2786 H 0.07757 0.62374 0.91263 0.0
H2787 H 0.09677 0.63368 0.95745 0.0
H2788 H 0.16351 0.67437 0.95858 0.0
H2789 H 0.16457 0.67437 0.9084 0.0
C2790 C 0.13302 0.6517 0.87489 0.0
C2791 C 0.11496 0.63946 0.8598 0.0
C2792 C 0.1312 0.654 0.90362 0.0
C2793 C 0.09462 0.63027 0.87373 0.0
C2794 C 0.09297 0.63193 0.90237 0.0
C2795 C 0.11106 0.64322 0.9466 0.0
C2796 C 0.12987 0.65435 0.96162 0.0
C2797 C 0.11142 0.64329 0.91763 0.0
C2798 C 0.1486 0.66616 0.94741 0.0
C2799 C 0.14934 0.66593 0.91873 0.0
H2800 H 0.09948 0.38946 0.69421 0.0
H2801 H 0.16362 0.34737 0.71136 0.0
H2802 H 0.16974 0.34033 0.66234 0.0
H2803 H 0.15942 0.34975 0.61418 0.0
H2804 H 0.09758 0.39489 0.59664 0.0
H2805 H 0.08787 0.39712 0.64568 0.0
C2806 C 0.11435 0.37819 0.68716 0.0
C2807 C 0.13082 0.36853 0.70644 0.0
C2808 C 0.11833 0.37503 0.65868 0.0
C2809 C 0.15052 0.35467 0.69696 0.0
C2810 C 0.15412 0.35078 0.66889 0.0
C2811 C 0.14349 0.35955 0.62114 0.0
C2812 C 0.12892 0.37173 0.60183 0.0
C2813 C 0.13851 0.36135 0.64949 0.0
C2814 C 0.10876 0.385 0.61111 0.0
C2815 C 0.10332 0.38639 0.63918 0.0
loop_
_geom_bond_atom_site_label_1
_geom_bond_atom_site_label_2
_geom_bond_distance
_geom_bond_site_symmetry_2
_ccdc_geom_bond_type
Ho0 C3 2.811 . S
Ho0 O20 2.322 . S
Ho0 O22 2.378 . S
Ho0 O23 2.524 . S
Ho0 O24 2.381 . S
Ho0 O25 2.669 . S
Ho0 O27 2.346 . S
Ho0 O31 2.305 . S
Ho1 C12 2.811 . S
Ho1 O21 2.346 . S
Ho1 O25 2.305 . S
Ho1 O26 2.322 . S
Ho1 O28 2.378 . S
Ho1 O29 2.524 . S
Ho1 O30 2.381 . S
Ho1 O31 2.669 . S
C2 O20 1.259 . S
C2 O21 1.268 . S
C3 Ho0 2.811 . S
C3 C4 1.488 . S
C3 O22 1.215 . S
C3 O23 1.289 . S
C4 C3 1.488 . S
C4 C5 1.348 . S
C4 C9 1.413 . S
C5 C4 1.348 . S
C5 C6 1.442 . S
C5 H32 0.930 . S
C6 C5 1.442 . S
C6 C7 1.381 . S
C6 H33 0.931 . S
C7 C6 1.381 . S
C7 C8 1.321 . S
C8 C7 1.321 . S
C8 C9 1.403 . S
C8 H34 0.934 . S
C9 C4 1.413 . S
C9 C8 1.403 . S
C9 H35 0.930 . S
C10 O24 1.275 . S
C10 O25 1.256 . S
C11 O26 1.259 . S
C11 O27 1.268 . S
C12 Ho1 2.811 . S
C12 C13 1.488 . S
C12 O28 1.215 . S
C12 O29 1.289 . S
C13 C12 1.488 . S
C13 C14 1.348 . S
C13 C18 1.413 . S
C14 C13 1.348 . S
C14 C15 1.442 . S
C14 H36 0.930 . S
C15 C14 1.442 . S
C15 C16 1.381 . S
C15 H37 0.931 . S
C16 C15 1.381 . S
C16 C17 1.321 . S
C17 C16 1.321 . S
C17 C18 1.403 . S
C17 H38 0.934 1_455 S
C18 C13 1.413 . S
C18 C17 1.403 . S
C18 H39 0.930 . S
C19 O30 1.275 . S
C19 O31 1.256 . S
O20 Ho0 2.322 . S
O20 C2 1.259 . S
O21 Ho1 2.346 . S
O21 C2 1.268 . S
O22 Ho0 2.378 . S
O22 C3 1.215 . S
O23 Ho0 2.524 . S
O23 C3 1.289 . S
O24 Ho0 2.381 . S
O24 C10 1.275 . S
O25 Ho0 2.669 . S
O25 Ho1 2.305 . S
O25 C10 1.256 . S
O26 Ho1 2.322 . S
O26 C11 1.259 . S
O27 Ho0 2.346 . S
O27 C11 1.268 . S
O28 Ho1 2.378 . S
O28 C12 1.215 . S
O29 Ho1 2.524 . S
O29 C12 1.289 . S
O30 Ho1 2.381 . S
O30 C19 1.275 . S
O31 Ho0 2.305 . S
O31 Ho1 2.669 . S
O31 C19 1.256 . S
H32 C5 0.930 . S
H33 C6 0.931 . S
H34 C8 0.934 . S
H35 C9 0.930 . S
H36 C14 0.930 . S
H37 C15 0.931 . S
H38 C17 0.934 1_655 S
H39 C18 0.930 . S
Ho40 C43 2.811 . S
Ho40 O60 2.322 . S
Ho40 O62 2.378 . S
Ho40 O63 2.524 . S
Ho40 O64 2.381 . S
Ho40 O65 2.669 . S
Ho40 O67 2.346 . S
Ho40 O71 2.305 . S
Ho41 C52 2.811 . S
Ho41 O61 2.346 . S
Ho41 O65 2.305 . S
Ho41 O66 2.322 . S
Ho41 O68 2.378 . S
Ho41 O69 2.524 . S
Ho41 O70 2.381 . S
Ho41 O71 2.669 . S
C42 O60 1.259 . S
C42 O61 1.268 . S
C43 Ho40 2.811 . S
C43 C44 1.488 . S
C43 O62 1.215 . S
C43 O63 1.289 . S
C44 C43 1.488 . S
C44 C45 1.348 . S
C44 C49 1.413 . S
C45 C44 1.348 . S
C45 C46 1.442 . S
C45 H72 0.930 . S
C46 C45 1.442 . S
C46 C47 1.383 . S
C46 H73 0.931 . S
C47 C46 1.383 . S
C47 C48 1.321 1_565 S
C48 C47 1.321 1_545 S
C48 C49 1.403 1_545 S
C48 H74 0.934 . S
C49 C44 1.413 . S
C49 C48 1.403 1_565 S
C49 H75 0.930 . S
C50 O64 1.275 . S
C50 O65 1.256 . S
C51 O66 1.259 . S
C51 O67 1.268 . S
C52 Ho41 2.811 . S
C52 C53 1.488 . S
C52 O68 1.215 . S
C52 O69 1.289 . S
C53 C52 1.488 . S
C53 C54 1.348 . S
C53 C58 1.413 . S
C54 C53 1.348 . S
C54 C55 1.442 . S
C54 H76 0.930 . S
C55 C54 1.442 . S
C55 C56 1.381 . S
C55 H77 0.931 . S
C56 C55 1.381 . S
C56 C57 1.321 . S
C57 C56 1.321 . S
C57 C58 1.403 . S
C57 H78 0.934 . S
C58 C53 1.413 . S
C58 C57 1.403 . S
C58 H79 0.930 . S
C59 O70 1.275 . S
C59 O71 1.256 . S
O60 Ho40 2.322 . S
O60 C42 1.259 . S
O61 Ho41 2.346 . S
O61 C42 1.268 . S
O62 Ho40 2.378 . S
O62 C43 1.215 . S
O63 Ho40 2.524 . S
O63 C43 1.289 . S
O64 Ho40 2.381 . S
O64 C50 1.275 . S
O65 Ho40 2.669 . S
O65 Ho41 2.305 . S
O65 C50 1.256 . S
O66 Ho41 2.322 . S
O66 C51 1.259 . S
O67 Ho40 2.346 . S
O67 C51 1.268 . S
O68 Ho41 2.378 . S
O68 C52 1.215 . S
O69 Ho41 2.524 . S
O69 C52 1.289 . S
O70 Ho41 2.381 . S
O70 C59 1.275 . S
O71 Ho40 2.305 . S
O71 Ho41 2.669 . S
O71 C59 1.256 . S
H72 C45 0.930 . S
H73 C46 0.931 . S
H74 C48 0.934 . S
H75 C49 0.930 . S
H76 C54 0.930 . S
H77 C55 0.931 . S
H78 C57 0.934 . S
H79 C58 0.930 . S
Ho80 C83 2.811 . S
Ho80 O100 2.322 . S
Ho80 O102 2.378 . S
Ho80 O103 2.524 . S
Ho80 O104 2.381 . S
Ho80 O105 2.669 . S
Ho80 O107 2.346 . S
Ho80 O111 2.305 . S
Ho81 C92 2.811 . S
Ho81 O101 2.346 . S
Ho81 O105 2.305 . S
Ho81 O106 2.322 . S
Ho81 O108 2.378 . S
Ho81 O109 2.524 . S
Ho81 O110 2.381 . S
Ho81 O111 2.669 . S
C82 O100 1.259 . S
C82 O101 1.268 . S
C83 Ho80 2.811 . S
C83 C84 1.488 . S
C83 O102 1.215 . S
C83 O103 1.289 . S
C84 C83 1.488 . S
C84 C85 1.348 . S
C84 C89 1.413 . S
C85 C84 1.348 . S
C85 C86 1.442 . S
C85 H112 0.930 . S
C86 C85 1.442 . S
C86 C87 1.381 . S
C86 H113 0.931 . S
C87 C86 1.381 . S
C87 C88 1.321 . S
C88 C87 1.321 . S
C88 C89 1.403 . S
C88 H114 0.934 . S
C89 C84 1.413 . S
C89 C88 1.403 . S
C89 H115 0.930 . S
C90 O104 1.275 . S
C90 O105 1.256 . S
C91 O106 1.259 . S
C91 O107 1.268 . S
C92 Ho81 2.811 . S
C92 C93 1.488 . S
C92 O108 1.215 . S
C92 O109 1.289 . S
C93 C92 1.488 . S
C93 C94 1.348 . S
C93 C98 1.413 . S
C94 C93 1.348 . S
C94 C95 1.442 . S
C94 H116 0.930 . S
C95 C94 1.442 . S
C95 C96 1.381 . S
C95 H117 0.931 . S
C96 C95 1.381 . S
C96 C97 1.321 . S
C97 C96 1.321 . S
C97 C98 1.403 . S
C97 H118 0.934 . S
C98 C93 1.413 . S
C98 C97 1.403 . S
C98 H119 0.930 . S
C99 O110 1.275 . S
C99 O111 1.256 . S
O100 Ho80 2.322 . S
O100 C82 1.259 . S
O101 Ho81 2.346 . S
O101 C82 1.268 . S
O102 Ho80 2.378 . S
O102 C83 1.215 . S
O103 Ho80 2.524 . S
O103 C83 1.289 . S
O104 Ho80 2.381 . S
O104 C90 1.275 . S
O105 Ho80 2.669 . S
O105 Ho81 2.305 . S
O105 C90 1.256 . S
O106 Ho81 2.322 . S
O106 C91 1.259 . S
O107 Ho80 2.346 . S
O107 C91 1.268 . S
O108 Ho81 2.378 . S
O108 C92 1.215 . S
O109 Ho81 2.524 . S
O109 C92 1.289 . S
O110 Ho81 2.381 . S
O110 C99 1.275 . S
O111 Ho80 2.305 . S
O111 Ho81 2.669 . S
O111 C99 1.256 . S
H112 C85 0.930 . S
H113 C86 0.931 . S
H114 C88 0.934 . S
H115 C89 0.930 . S
H116 C94 0.930 . S
H117 C95 0.931 . S
H118 C97 0.934 . S
H119 C98 0.930 . S
Ho120 C123 2.811 1_554 S
Ho120 O140 2.322 1_554 S
Ho120 O142 2.377 . S
Ho120 O143 2.524 1_554 S
Ho120 O144 2.381 . S
Ho120 O145 2.669 . S
Ho120 O147 2.346 . S
Ho120 O151 2.305 . S
Ho121 C132 2.811 . S
Ho121 O141 2.346 1_554 S
Ho121 O145 2.305 . S
Ho121 O146 2.322 . S
Ho121 O148 2.378 . S
Ho121 O149 2.524 . S
Ho121 O150 2.381 . S
Ho121 O151 2.669 . S
C122 O140 1.259 . S
C122 O141 1.268 . S
C123 Ho120 2.811 1_556 S
C123 C124 1.488 . S
C123 O142 1.216 1_556 S
C123 O143 1.289 . S
C124 C123 1.488 . S
C124 C125 1.348 . S
C124 C129 1.413 . S
C125 C124 1.348 . S
C125 C126 1.442 . S
C125 H152 0.930 . S
C126 C125 1.442 . S
C126 C127 1.383 . S
C126 H153 0.931 . S
C127 C126 1.383 . S
C127 C128 1.321 1_545 S
C128 C127 1.321 1_565 S
C128 C129 1.403 1_565 S
C128 H154 0.934 . S
C129 C124 1.413 . S
C129 C128 1.403 1_545 S
C129 H155 0.930 . S
C130 O144 1.275 . S
C130 O145 1.256 . S
C131 O146 1.259 . S
C131 O147 1.268 . S
C132 Ho121 2.811 . S
C132 C133 1.488 . S
C132 O148 1.215 . S
C132 O149 1.289 . S
C133 C132 1.488 . S
C133 C134 1.348 . S
C133 C138 1.413 . S
C134 C133 1.348 . S
C134 C135 1.442 . S
C134 H156 0.930 . S
C135 C134 1.442 . S
C135 C136 1.381 . S
C135 H157 0.931 . S
C136 C135 1.381 . S
C136 C137 1.321 . S
C137 C136 1.321 . S
C137 C138 1.403 . S
C137 H158 0.934 . S
C138 C133 1.413 . S
C138 C137 1.403 . S
C138 H159 0.930 . S
C139 O150 1.275 . S
C139 O151 1.256 . S
O140 Ho120 2.322 1_556 S
O140 C122 1.259 . S
O141 Ho121 2.346 1_556 S
O141 C122 1.268 . S
O142 Ho120 2.377 . S
O142 C123 1.216 1_554 S
O143 Ho120 2.524 1_556 S
O143 C123 1.289 . S
O144 Ho120 2.381 . S
O144 C130 1.275 . S
O145 Ho120 2.669 . S
O145 Ho121 2.305 . S
O145 C130 1.256 . S
O146 Ho121 2.322 . S
O146 C131 1.259 . S
O147 Ho120 2.346 . S
O147 C131 1.268 . S
O148 Ho121 2.378 . S
O148 C132 1.215 . S
O149 Ho121 2.524 . S
O149 C132 1.289 . S
O150 Ho121 2.381 . S
O150 C139 1.275 . S
O151 Ho120 2.305 . S
O151 Ho121 2.669 . S
O151 C139 1.256 . S
H152 C125 0.930 . S
H153 C126 0.931 . S
H154 C128 0.934 . S
H155 C129 0.930 . S
H156 C134 0.930 . S
H157 C135 0.931 . S
H158 C137 0.934 . S
H159 C138 0.930 . S
Ho160 C163 2.811 . S
Ho160 O180 2.322 . S
Ho160 O182 2.378 . S
Ho160 O183 2.524 . S
Ho160 O184 2.381 . S
Ho160 O185 2.669 . S
Ho160 O187 2.346 . S
Ho160 O191 2.305 . S
Ho161 C172 2.811 . S
Ho161 O181 2.346 . S
Ho161 O185 2.305 . S
Ho161 O186 2.322 . S
Ho161 O188 2.378 . S
Ho161 O189 2.524 . S
Ho161 O190 2.381 . S
Ho161 O191 2.669 . S
C162 O180 1.259 . S
C162 O181 1.268 . S
C163 Ho160 2.811 . S
C163 C164 1.488 . S
C163 O182 1.215 . S
C163 O183 1.289 . S
C164 C163 1.488 . S
C164 C165 1.348 . S
C164 C169 1.413 . S
C165 C164 1.348 . S
C165 C166 1.442 . S
C165 H192 0.930 . S
C166 C165 1.442 . S
C166 C167 1.381 . S
C166 H193 0.931 . S
C167 C166 1.381 . S
C167 C168 1.321 . S
C168 C167 1.321 . S
C168 C169 1.403 . S
C168 H194 0.934 . S
C169 C164 1.413 . S
C169 C168 1.403 . S
C169 H195 0.930 . S
C170 O184 1.275 . S
C170 O185 1.256 . S
C171 O186 1.259 . S
C171 O187 1.268 . S
C172 Ho161 2.811 . S
C172 C173 1.488 . S
C172 O188 1.215 . S
C172 O189 1.289 . S
C173 C172 1.488 . S
C173 C174 1.348 . S
C173 C178 1.413 . S
C174 C173 1.348 . S
C174 C175 1.442 . S
C174 H196 0.930 . S
C175 C174 1.442 . S
C175 C176 1.381 . S
C175 H197 0.931 . S
C176 C175 1.381 . S
C176 C177 1.321 . S
C177 C176 1.321 . S
C177 C178 1.403 . S
C177 H198 0.934 1_455 S
C178 C173 1.413 . S
C178 C177 1.403 . S
C178 H199 0.930 . S
C179 O190 1.275 . S
C179 O191 1.256 . S
O180 Ho160 2.322 . S
O180 C162 1.259 . S
O181 Ho161 2.346 . S
O181 C162 1.268 . S
O182 Ho160 2.378 . S
O182 C163 1.215 . S
O183 Ho160 2.524 . S
O183 C163 1.289 . S
O184 Ho160 2.381 . S
O184 C170 1.275 . S
O185 Ho160 2.669 . S
O185 Ho161 2.305 . S
O185 C170 1.256 . S
O186 Ho161 2.322 . S
O186 C171 1.259 . S
O187 Ho160 2.346 . S
O187 C171 1.268 . S
O188 Ho161 2.378 . S
O188 C172 1.215 . S
O189 Ho161 2.524 . S
O189 C172 1.289 . S
O190 Ho161 2.381 . S
O190 C179 1.275 . S
O191 Ho160 2.305 . S
O191 Ho161 2.669 . S
O191 C179 1.256 . S
H192 C165 0.930 . S
H193 C166 0.931 . S
H194 C168 0.934 . S
H195 C169 0.930 . S
H196 C174 0.930 . S
H197 C175 0.931 . S
H198 C177 0.934 1_655 S
H199 C178 0.930 . S
Ho200 C203 2.811 . S
Ho200 O220 2.322 . S
Ho200 O222 2.378 . S
Ho200 O223 2.524 . S
Ho200 O224 2.381 . S
Ho200 O225 2.669 . S
Ho200 O227 2.346 . S
Ho200 O231 2.305 . S
Ho201 C212 2.811 . S
Ho201 O221 2.346 . S
Ho201 O225 2.305 . S
Ho201 O226 2.322 . S
Ho201 O228 2.378 . S
Ho201 O229 2.524 . S
Ho201 O230 2.381 . S
Ho201 O231 2.669 . S
C202 O220 1.259 . S
C202 O221 1.268 . S
C203 Ho200 2.811 . S
C203 C204 1.488 . S
C203 O222 1.215 . S
C203 O223 1.289 . S
C204 C203 1.488 . S
C204 C205 1.348 . S
C204 C209 1.413 . S
C205 C204 1.348 . S
C205 C206 1.442 . S
C205 H232 0.930 . S
C206 C205 1.442 . S
C206 C207 1.383 . S
C206 H233 0.931 . S
C207 C206 1.383 . S
C207 C208 1.321 1_565 S
C208 C207 1.321 1_545 S
C208 C209 1.403 1_545 S
C208 H234 0.934 . S
C209 C204 1.413 . S
C209 C208 1.403 1_565 S
C209 H235 0.930 . S
C210 O224 1.275 . S
C210 O225 1.256 . S
C211 O226 1.259 . S
C211 O227 1.268 . S
C212 Ho201 2.811 . S
C212 C213 1.488 . S
C212 O228 1.215 . S
C212 O229 1.289 . S
C213 C212 1.488 . S
C213 C214 1.348 . S
C213 C218 1.413 . S
C214 C213 1.348 . S
C214 C215 1.442 . S
C214 H236 0.930 . S
C215 C214 1.442 . S
C215 C216 1.381 . S
C215 H237 0.931 . S
C216 C215 1.381 . S
C216 C217 1.321 . S
C217 C216 1.321 . S
C217 C218 1.403 . S
C217 H238 0.934 . S
C218 C213 1.413 . S
C218 C217 1.403 . S
C218 H239 0.930 . S
C219 O230 1.275 . S
C219 O231 1.256 . S
O220 Ho200 2.322 . S
O220 C202 1.259 . S
O221 Ho201 2.346 . S
O221 C202 1.268 . S
O222 Ho200 2.378 . S
O222 C203 1.215 . S
O223 Ho200 2.524 . S
O223 C203 1.289 . S
O224 Ho200 2.381 . S
O224 C210 1.275 . S
O225 Ho200 2.669 . S
O225 Ho201 2.305 . S
O225 C210 1.256 . S
O226 Ho201 2.322 . S
O226 C211 1.259 . S
O227 Ho200 2.346 . S
O227 C211 1.268 . S
O228 Ho201 2.378 . S
O228 C212 1.215 . S
O229 Ho201 2.524 . S
O229 C212 1.289 . S
O230 Ho201 2.381 . S
O230 C219 1.275 . S
O231 Ho200 2.305 . S
O231 Ho201 2.669 . S
O231 C219 1.256 . S
H232 C205 0.930 . S
H233 C206 0.931 . S
H234 C208 0.934 . S
H235 C209 0.930 . S
H236 C214 0.930 . S
H237 C215 0.931 . S
H238 C217 0.934 . S
H239 C218 0.930 . S
Ho240 C243 2.811 . S
Ho240 O260 2.322 . S
Ho240 O262 2.378 . S
Ho240 O263 2.524 . S
Ho240 O264 2.381 . S
Ho240 O265 2.669 . S
Ho240 O267 2.346 . S
Ho240 O271 2.305 . S
Ho241 C252 2.811 . S
Ho241 O261 2.346 . S
Ho241 O265 2.305 . S
Ho241 O266 2.322 . S
Ho241 O268 2.378 . S
Ho241 O269 2.524 . S
Ho241 O270 2.381 . S
Ho241 O271 2.669 . S
C242 O260 1.259 . S
C242 O261 1.268 . S
C243 Ho240 2.811 . S
C243 C244 1.488 . S
C243 O262 1.215 . S
C243 O263 1.289 . S
C244 C243 1.488 . S
C244 C245 1.348 . S
C244 C249 1.413 . S
C245 C244 1.348 . S
C245 C246 1.442 . S
C245 H272 0.930 . S
C246 C245 1.442 . S
C246 C247 1.381 . S
C246 H273 0.931 . S
C247 C246 1.381 . S
C247 C248 1.321 . S
C248 C247 1.321 . S
C248 C249 1.403 . S
C248 H274 0.934 . S
C249 C244 1.413 . S
C249 C248 1.403 . S
C249 H275 0.930 . S
C250 O264 1.275 . S
C250 O265 1.256 . S
C251 O266 1.259 . S
C251 O267 1.268 . S
C252 Ho241 2.811 . S
C252 C253 1.488 . S
C252 O268 1.215 . S
C252 O269 1.289 . S
C253 C252 1.488 . S
C253 C254 1.348 . S
C253 C258 1.413 . S
C254 C253 1.348 . S
C254 C255 1.442 . S
C254 H276 0.930 . S
C255 C254 1.442 . S
C255 C256 1.381 . S
C255 H277 0.931 . S
C256 C255 1.381 . S
C256 C257 1.321 . S
C257 C256 1.321 . S
C257 C258 1.403 . S
C257 H278 0.934 . S
C258 C253 1.413 . S
C258 C257 1.403 . S
C258 H279 0.930 . S
C259 O270 1.275 . S
C259 O271 1.256 . S
O260 Ho240 2.322 . S
O260 C242 1.259 . S
O261 Ho241 2.346 . S
O261 C242 1.268 . S
O262 Ho240 2.378 . S
O262 C243 1.215 . S
O263 Ho240 2.524 . S
O263 C243 1.289 . S
O264 Ho240 2.381 . S
O264 C250 1.275 . S
O265 Ho240 2.669 . S
O265 Ho241 2.305 . S
O265 C250 1.256 . S
O266 Ho241 2.322 . S
O266 C251 1.259 . S
O267 Ho240 2.346 . S
O267 C251 1.268 . S
O268 Ho241 2.378 . S
O268 C252 1.215 . S
O269 Ho241 2.524 . S
O269 C252 1.289 . S
O270 Ho241 2.381 . S
O270 C259 1.275 . S
O271 Ho240 2.305 . S
O271 Ho241 2.669 . S
O271 C259 1.256 . S
H272 C245 0.930 . S
H273 C246 0.931 . S
H274 C248 0.934 . S
H275 C249 0.930 . S
H276 C254 0.930 . S
H277 C255 0.931 . S
H278 C257 0.934 . S
H279 C258 0.930 . S
Ho280 C283 2.811 1_556 S
Ho280 O300 2.322 1_556 S
Ho280 O302 2.377 . S
Ho280 O303 2.524 1_556 S
Ho280 O304 2.381 . S
Ho280 O305 2.669 . S
Ho280 O307 2.346 . S
Ho280 O311 2.305 . S
Ho281 C292 2.811 . S
Ho281 O301 2.346 1_556 S
Ho281 O305 2.305 . S
Ho281 O306 2.322 . S
Ho281 O308 2.378 . S
Ho281 O309 2.524 . S
Ho281 O310 2.381 . S
Ho281 O311 2.669 . S
C282 O300 1.259 . S
C282 O301 1.268 . S
C283 Ho280 2.811 1_554 S
C283 C284 1.488 . S
C283 O302 1.216 1_554 S
C283 O303 1.289 . S
C284 C283 1.488 . S
C284 C285 1.348 . S
C284 C289 1.413 . S
C285 C284 1.348 . S
C285 C286 1.442 . S
C285 H312 0.930 . S
C286 C285 1.442 . S
C286 C287 1.383 . S
C286 H313 0.931 . S
C287 C286 1.383 . S
C287 C288 1.321 1_545 S
C288 C287 1.321 1_565 S
C288 C289 1.403 1_565 S
C288 H314 0.934 . S
C289 C284 1.413 . S
C289 C288 1.403 1_545 S
C289 H315 0.930 . S
C290 O304 1.275 . S
C290 O305 1.256 . S
C291 O306 1.259 . S
C291 O307 1.268 . S
C292 Ho281 2.811 . S
C292 C293 1.488 . S
C292 O308 1.215 . S
C292 O309 1.289 . S
C293 C292 1.488 . S
C293 C294 1.348 . S
C293 C298 1.413 . S
C294 C293 1.348 . S
C294 C295 1.442 . S
C294 H316 0.930 . S
C295 C294 1.442 . S
C295 C296 1.381 . S
C295 H317 0.931 . S
C296 C295 1.381 . S
C296 C297 1.321 . S
C297 C296 1.321 . S
C297 C298 1.403 . S
C297 H318 0.934 . S
C298 C293 1.413 . S
C298 C297 1.403 . S
C298 H319 0.930 . S
C299 O310 1.275 . S
C299 O311 1.256 . S
O300 Ho280 2.322 1_554 S
O300 C282 1.259 . S
O301 Ho281 2.346 1_554 S
O301 C282 1.268 . S
O302 Ho280 2.377 . S
O302 C283 1.216 1_556 S
O303 Ho280 2.524 1_554 S
O303 C283 1.289 . S
O304 Ho280 2.381 . S
O304 C290 1.275 . S
O305 Ho280 2.669 . S
O305 Ho281 2.305 . S
O305 C290 1.256 . S
O306 Ho281 2.322 . S
O306 C291 1.259 . S
O307 Ho280 2.346 . S
O307 C291 1.268 . S
O308 Ho281 2.378 . S
O308 C292 1.215 . S
O309 Ho281 2.524 . S
O309 C292 1.289 . S
O310 Ho281 2.381 . S
O310 C299 1.275 . S
O311 Ho280 2.305 . S
O311 Ho281 2.669 . S
O311 C299 1.256 . S
H312 C285 0.930 . S
H313 C286 0.931 . S
H314 C288 0.934 . S
H315 C289 0.930 . S
H316 C294 0.930 . S
H317 C295 0.931 . S
H318 C297 0.934 . S
H319 C298 0.930 . S
Ho320 C323 2.811 . S
Ho320 O340 2.322 . S
Ho320 O342 2.378 . S
Ho320 O343 2.524 . S
Ho320 O344 2.381 . S
Ho320 O345 2.669 . S
Ho320 O347 2.346 . S
Ho320 O351 2.305 . S
Ho321 C332 2.811 . S
Ho321 O341 2.346 . S
Ho321 O345 2.305 . S
Ho321 O346 2.322 . S
Ho321 O348 2.378 . S
Ho321 O349 2.524 . S
Ho321 O350 2.381 . S
Ho321 O351 2.669 . S
C322 O340 1.259 . S
C322 O341 1.268 . S
C323 Ho320 2.811 . S
C323 C324 1.488 . S
C323 O342 1.215 . S
C323 O343 1.289 . S
C324 C323 1.488 . S
C324 C325 1.348 . S
C324 C329 1.413 . S
C325 C324 1.348 . S
C325 C326 1.442 . S
C325 H352 0.930 . S
C326 C325 1.442 . S
C326 C327 1.381 . S
C326 H353 0.931 . S
C327 C326 1.381 . S
C327 C328 1.321 . S
C328 C327 1.321 . S
C328 C329 1.403 . S
C328 H354 0.934 1_655 S
C329 C324 1.413 . S
C329 C328 1.403 . S
C329 H355 0.930 . S
C330 O344 1.275 . S
C330 O345 1.256 . S
C331 O346 1.259 . S
C331 O347 1.268 . S
C332 Ho321 2.811 . S
C332 C333 1.488 . S
C332 O348 1.215 . S
C332 O349 1.289 . S
C333 C332 1.488 . S
C333 C334 1.348 . S
C333 C338 1.413 . S
C334 C333 1.348 . S
C334 C335 1.442 . S
C334 H356 0.930 . S
C335 C334 1.442 . S
C335 C336 1.381 . S
C335 H357 0.931 . S
C336 C335 1.381 . S
C336 C337 1.321 . S
C337 C336 1.321 . S
C337 C338 1.403 . S
C337 H358 0.934 . S
C338 C333 1.413 . S
C338 C337 1.403 . S
C338 H359 0.930 . S
C339 O350 1.275 . S
C339 O351 1.256 . S
O340 Ho320 2.322 . S
O340 C322 1.259 . S
O341 Ho321 2.346 . S
O341 C322 1.268 . S
O342 Ho320 2.378 . S
O342 C323 1.215 . S
O343 Ho320 2.524 . S
O343 C323 1.289 . S
O344 Ho320 2.381 . S
O344 C330 1.275 . S
O345 Ho320 2.669 . S
O345 Ho321 2.305 . S
O345 C330 1.256 . S
O346 Ho321 2.322 . S
O346 C331 1.259 . S
O347 Ho320 2.346 . S
O347 C331 1.268 . S
O348 Ho321 2.378 . S
O348 C332 1.215 . S
O349 Ho321 2.524 . S
O349 C332 1.289 . S
O350 Ho321 2.381 . S
O350 C339 1.275 . S
O351 Ho320 2.305 . S
O351 Ho321 2.669 . S
O351 C339 1.256 . S
H352 C325 0.930 . S
H353 C326 0.931 . S
H354 C328 0.934 1_455 S
H355 C329 0.930 . S
H356 C334 0.930 . S
H357 C335 0.931 . S
H358 C337 0.934 . S
H359 C338 0.930 . S
Ho360 C363 2.811 . S
Ho360 O380 2.322 . S
Ho360 O382 2.378 . S
Ho360 O383 2.524 . S
Ho360 O384 2.381 . S
Ho360 O385 2.669 . S
Ho360 O387 2.346 . S
Ho360 O391 2.305 . S
Ho361 C372 2.811 . S
Ho361 O381 2.346 . S
Ho361 O385 2.305 . S
Ho361 O386 2.322 . S
Ho361 O388 2.378 . S
Ho361 O389 2.524 . S
Ho361 O390 2.381 . S
Ho361 O391 2.669 . S
C362 O380 1.259 . S
C362 O381 1.268 . S
C363 Ho360 2.811 . S
C363 C364 1.488 . S
C363 O382 1.215 . S
C363 O383 1.289 . S
C364 C363 1.488 . S
C364 C365 1.348 . S
C364 C369 1.413 . S
C365 C364 1.348 . S
C365 C366 1.442 . S
C365 H392 0.930 . S
C366 C365 1.442 . S
C366 C367 1.381 . S
C366 H393 0.931 . S
C367 C366 1.381 . S
C367 C368 1.321 . S
C368 C367 1.321 . S
C368 C369 1.403 . S
C368 H394 0.934 . S
C369 C364 1.413 . S
C369 C368 1.403 . S
C369 H395 0.930 . S
C370 O384 1.275 . S
C370 O385 1.256 . S
C371 O386 1.259 . S
C371 O387 1.268 . S
C372 Ho361 2.811 . S
C372 C373 1.488 . S
C372 O388 1.215 . S
C372 O389 1.289 . S
C373 C372 1.488 . S
C373 C374 1.348 . S
C373 C378 1.413 . S
C374 C373 1.348 . S
C374 C375 1.442 . S
C374 H396 0.930 . S
C375 C374 1.442 . S
C375 C376 1.383 . S
C375 H397 0.931 . S
C376 C375 1.383 . S
C376 C377 1.321 1_545 S
C377 C376 1.321 1_565 S
C377 C378 1.403 1_565 S
C377 H398 0.934 . S
C378 C373 1.413 . S
C378 C377 1.403 1_545 S
C378 H399 0.930 . S
C379 O390 1.275 . S
C379 O391 1.256 . S
O380 Ho360 2.322 . S
O380 C362 1.259 . S
O381 Ho361 2.346 . S
O381 C362 1.268 . S
O382 Ho360 2.378 . S
O382 C363 1.215 . S
O383 Ho360 2.524 . S
O383 C363 1.289 . S
O384 Ho360 2.381 . S
O384 C370 1.275 . S
O385 Ho360 2.669 . S
O385 Ho361 2.305 . S
O385 C370 1.256 . S
O386 Ho361 2.322 . S
O386 C371 1.259 . S
O387 Ho360 2.346 . S
O387 C371 1.268 . S
O388 Ho361 2.378 . S
O388 C372 1.215 . S
O389 Ho361 2.524 . S
O389 C372 1.289 . S
O390 Ho361 2.381 . S
O390 C379 1.275 . S
O391 Ho360 2.305 . S
O391 Ho361 2.669 . S
O391 C379 1.256 . S
H392 C365 0.930 . S
H393 C366 0.931 . S
H394 C368 0.934 . S
H395 C369 0.930 . S
H396 C374 0.930 . S
H397 C375 0.931 . S
H398 C377 0.934 . S
H399 C378 0.930 . S
Ho400 C403 2.811 . S
Ho400 O420 2.322 . S
Ho400 O422 2.378 . S
Ho400 O423 2.524 . S
Ho400 O424 2.381 . S
Ho400 O425 2.669 . S
Ho400 O427 2.346 . S
Ho400 O431 2.305 . S
Ho401 C412 2.811 . S
Ho401 O421 2.346 . S
Ho401 O425 2.305 . S
Ho401 O426 2.322 . S
Ho401 O428 2.378 . S
Ho401 O429 2.524 . S
Ho401 O430 2.381 . S
Ho401 O431 2.669 . S
C402 O420 1.259 . S
C402 O421 1.268 . S
C403 Ho400 2.811 . S
C403 C404 1.488 . S
C403 O422 1.215 . S
C403 O423 1.289 . S
C404 C403 1.488 . S
C404 C405 1.348 . S
C404 C409 1.413 . S
C405 C404 1.348 . S
C405 C406 1.442 . S
C405 H432 0.930 . S
C406 C405 1.442 . S
C406 C407 1.381 . S
C406 H433 0.931 . S
C407 C406 1.381 . S
C407 C408 1.321 . S
C408 C407 1.321 . S
C408 C409 1.403 . S
C408 H434 0.934 . S
C409 C404 1.413 . S
C409 C408 1.403 . S
C409 H435 0.930 . S
C410 O424 1.275 . S
C410 O425 1.256 . S
C411 O426 1.259 . S
C411 O427 1.268 . S
C412 Ho401 2.811 . S
C412 C413 1.488 . S
C412 O428 1.215 . S
C412 O429 1.289 . S
C413 C412 1.488 . S
C413 C414 1.348 . S
C413 C418 1.413 . S
C414 C413 1.348 . S
C414 C415 1.442 . S
C414 H436 0.930 . S
C415 C414 1.442 . S
C415 C416 1.381 . S
C415 H437 0.931 . S
C416 C415 1.381 . S
C416 C417 1.321 . S
C417 C416 1.321 . S
C417 C418 1.403 . S
C417 H438 0.934 . S
C418 C413 1.413 . S
C418 C417 1.403 . S
C418 H439 0.930 . S
C419 O430 1.275 . S
C419 O431 1.256 . S
O420 Ho400 2.322 . S
O420 C402 1.259 . S
O421 Ho401 2.346 . S
O421 C402 1.268 . S
O422 Ho400 2.378 . S
O422 C403 1.215 . S
O423 Ho400 2.524 . S
O423 C403 1.289 . S
O424 Ho400 2.381 . S
O424 C410 1.275 . S
O425 Ho400 2.669 . S
O425 Ho401 2.305 . S
O425 C410 1.256 . S
O426 Ho401 2.322 . S
O426 C411 1.259 . S
O427 Ho400 2.346 . S
O427 C411 1.268 . S
O428 Ho401 2.378 . S
O428 C412 1.215 . S
O429 Ho401 2.524 . S
O429 C412 1.289 . S
O430 Ho401 2.381 . S
O430 C419 1.275 . S
O431 Ho400 2.305 . S
O431 Ho401 2.669 . S
O431 C419 1.256 . S
H432 C405 0.930 . S
H433 C406 0.931 . S
H434 C408 0.934 . S
H435 C409 0.930 . S
H436 C414 0.930 . S
H437 C415 0.931 . S
H438 C417 0.934 . S
H439 C418 0.930 . S
Ho440 C443 2.811 . S
Ho440 O460 2.322 . S
Ho440 O462 2.378 . S
Ho440 O463 2.524 . S
Ho440 O464 2.381 . S
Ho440 O465 2.669 . S
Ho440 O467 2.346 1_556 S
Ho440 O471 2.305 . S
Ho441 C452 2.811 1_556 S
Ho441 O461 2.346 . S
Ho441 O465 2.305 . S
Ho441 O466 2.322 1_556 S
Ho441 O468 2.377 . S
Ho441 O469 2.524 1_556 S
Ho441 O470 2.381 . S
Ho441 O471 2.669 . S
C442 O460 1.259 . S
C442 O461 1.268 . S
C443 Ho440 2.811 . S
C443 C444 1.488 . S
C443 O462 1.215 . S
C443 O463 1.289 . S
C444 C443 1.488 . S
C444 C445 1.348 . S
C444 C449 1.413 . S
C445 C444 1.348 . S
C445 C446 1.442 . S
C445 H472 0.930 . S
C446 C445 1.442 . S
C446 C447 1.381 . S
C446 H473 0.931 . S
C447 C446 1.381 . S
C447 C448 1.321 . S
C448 C447 1.321 . S
C448 C449 1.403 . S
C448 H474 0.934 . S
C449 C444 1.413 . S
C449 C448 1.403 . S
C449 H475 0.930 . S
C450 O464 1.275 . S
C450 O465 1.256 . S
C451 O466 1.259 . S
C451 O467 1.268 . S
C452 Ho441 2.811 1_554 S
C452 C453 1.488 . S
C452 O468 1.216 1_554 S
C452 O469 1.289 . S
C453 C452 1.488 . S
C453 C454 1.348 . S
C453 C458 1.413 . S
C454 C453 1.348 . S
C454 C455 1.442 . S
C454 H476 0.930 . S
C455 C454 1.442 . S
C455 C456 1.383 . S
C455 H477 0.931 . S
C456 C455 1.383 . S
C456 C457 1.321 1_565 S
C457 C456 1.321 1_545 S
C457 C458 1.403 1_545 S
C457 H478 0.934 . S
C458 C453 1.413 . S
C458 C457 1.403 1_565 S
C458 H479 0.930 . S
C459 O470 1.275 . S
C459 O471 1.256 . S
O460 Ho440 2.322 . S
O460 C442 1.259 . S
O461 Ho441 2.346 . S
O461 C442 1.268 . S
O462 Ho440 2.378 . S
O462 C443 1.215 . S
O463 Ho440 2.524 . S
O463 C443 1.289 . S
O464 Ho440 2.381 . S
O464 C450 1.275 . S
O465 Ho440 2.669 . S
O465 Ho441 2.305 . S
O465 C450 1.256 . S
O466 Ho441 2.322 1_554 S
O466 C451 1.259 . S
O467 Ho440 2.346 1_554 S
O467 C451 1.268 . S
O468 Ho441 2.377 . S
O468 C452 1.216 1_556 S
O469 Ho441 2.524 1_554 S
O469 C452 1.289 . S
O470 Ho441 2.381 . S
O470 C459 1.275 . S
O471 Ho440 2.305 . S
O471 Ho441 2.669 . S
O471 C459 1.256 . S
H472 C445 0.930 . S
H473 C446 0.931 . S
H474 C448 0.934 . S
H475 C449 0.930 . S
H476 C454 0.930 . S
H477 C455 0.931 . S
H478 C457 0.934 . S
H479 C458 0.930 . S
Ho480 C483 2.811 . S
Ho480 O500 2.322 . S
Ho480 O502 2.378 . S
Ho480 O503 2.524 . S
Ho480 O504 2.381 . S
Ho480 O505 2.669 . S
Ho480 O507 2.346 . S
Ho480 O511 2.305 . S
Ho481 C492 2.811 . S
Ho481 O501 2.346 . S
Ho481 O505 2.305 . S
Ho481 O506 2.322 . S
Ho481 O508 2.378 . S
Ho481 O509 2.524 . S
Ho481 O510 2.381 . S
Ho481 O511 2.669 . S
C482 O500 1.259 . S
C482 O501 1.268 . S
C483 Ho480 2.811 . S
C483 C484 1.488 . S
C483 O502 1.215 . S
C483 O503 1.289 . S
C484 C483 1.488 . S
C484 C485 1.348 . S
C484 C489 1.413 . S
C485 C484 1.348 . S
C485 C486 1.442 . S
C485 H512 0.930 . S
C486 C485 1.442 . S
C486 C487 1.381 . S
C486 H513 0.931 . S
C487 C486 1.381 . S
C487 C488 1.321 . S
C488 C487 1.321 . S
C488 C489 1.403 . S
C488 H514 0.934 1_655 S
C489 C484 1.413 . S
C489 C488 1.403 . S
C489 H515 0.930 . S
C490 O504 1.275 . S
C490 O505 1.256 . S
C491 O506 1.259 . S
C491 O507 1.268 . S
C492 Ho481 2.811 . S
C492 C493 1.488 . S
C492 O508 1.215 . S
C492 O509 1.289 . S
C493 C492 1.488 . S
C493 C494 1.348 . S
C493 C498 1.413 . S
C494 C493 1.348 . S
C494 C495 1.442 . S
C494 H516 0.930 . S
C495 C494 1.442 . S
C495 C496 1.381 . S
C495 H517 0.931 . S
C496 C495 1.381 . S
C496 C497 1.321 . S
C497 C496 1.321 . S
C497 C498 1.403 . S
C497 H518 0.934 . S
C498 C493 1.413 . S
C498 C497 1.403 . S
C498 H519 0.930 . S
C499 O510 1.275 . S
C499 O511 1.256 . S
O500 Ho480 2.322 . S
O500 C482 1.259 . S
O501 Ho481 2.346 . S
O501 C482 1.268 . S
O502 Ho480 2.378 . S
O502 C483 1.215 . S
O503 Ho480 2.524 . S
O503 C483 1.289 . S
O504 Ho480 2.381 . S
O504 C490 1.275 . S
O505 Ho480 2.669 . S
O505 Ho481 2.305 . S
O505 C490 1.256 . S
O506 Ho481 2.322 . S
O506 C491 1.259 . S
O507 Ho480 2.346 . S
O507 C491 1.268 . S
O508 Ho481 2.378 . S
O508 C492 1.215 . S
O509 Ho481 2.524 . S
O509 C492 1.289 . S
O510 Ho481 2.381 . S
O510 C499 1.275 . S
O511 Ho480 2.305 . S
O511 Ho481 2.669 . S
O511 C499 1.256 . S
H512 C485 0.930 . S
H513 C486 0.931 . S
H514 C488 0.934 1_455 S
H515 C489 0.930 . S
H516 C494 0.930 . S
H517 C495 0.931 . S
H518 C497 0.934 . S
H519 C498 0.930 . S
Ho520 C523 2.811 . S
Ho520 O540 2.322 . S
Ho520 O542 2.378 . S
Ho520 O543 2.524 . S
Ho520 O544 2.381 . S
Ho520 O545 2.669 . S
Ho520 O547 2.346 . S
Ho520 O551 2.305 . S
Ho521 C532 2.811 . S
Ho521 O541 2.346 . S
Ho521 O545 2.305 . S
Ho521 O546 2.322 . S
Ho521 O548 2.378 . S
Ho521 O549 2.524 . S
Ho521 O550 2.381 . S
Ho521 O551 2.669 . S
C522 O540 1.259 . S
C522 O541 1.268 . S
C523 Ho520 2.811 . S
C523 C524 1.488 . S
C523 O542 1.215 . S
C523 O543 1.289 . S
C524 C523 1.488 . S
C524 C525 1.348 . S
C524 C529 1.413 . S
C525 C524 1.348 . S
C525 C526 1.442 . S
C525 H552 0.930 . S
C526 C525 1.442 . S
C526 C527 1.381 . S
C526 H553 0.931 . S
C527 C526 1.381 . S
C527 C528 1.321 . S
C528 C527 1.321 . S
C528 C529 1.403 . S
C528 H554 0.934 . S
C529 C524 1.413 . S
C529 C528 1.403 . S
C529 H555 0.930 . S
C530 O544 1.275 . S
C530 O545 1.256 . S
C531 O546 1.259 . S
C531 O547 1.268 . S
C532 Ho521 2.811 . S
C532 C533 1.488 . S
C532 O548 1.215 . S
C532 O549 1.289 . S
C533 C532 1.488 . S
C533 C534 1.348 . S
C533 C538 1.413 . S
C534 C533 1.348 . S
C534 C535 1.442 . S
C534 H556 0.930 . S
C535 C534 1.442 . S
C535 C536 1.383 . S
C535 H557 0.931 . S
C536 C535 1.383 . S
C536 C537 1.321 1_545 S
C537 C536 1.321 1_565 S
C537 C538 1.403 1_565 S
C537 H558 0.934 . S
C538 C533 1.413 . S
C538 C537 1.403 1_545 S
C538 H559 0.930 . S
C539 O550 1.275 . S
C539 O551 1.256 . S
O540 Ho520 2.322 . S
O540 C522 1.259 . S
O541 Ho521 2.346 . S
O541 C522 1.268 . S
O542 Ho520 2.378 . S
O542 C523 1.215 . S
O543 Ho520 2.524 . S
O543 C523 1.289 . S
O544 Ho520 2.381 . S
O544 C530 1.275 . S
O545 Ho520 2.669 . S
O545 Ho521 2.305 . S
O545 C530 1.256 . S
O546 Ho521 2.322 . S
O546 C531 1.259 . S
O547 Ho520 2.346 . S
O547 C531 1.268 . S
O548 Ho521 2.378 . S
O548 C532 1.215 . S
O549 Ho521 2.524 . S
O549 C532 1.289 . S
O550 Ho521 2.381 . S
O550 C539 1.275 . S
O551 Ho520 2.305 . S
O551 Ho521 2.669 . S
O551 C539 1.256 . S
H552 C525 0.930 . S
H553 C526 0.931 . S
H554 C528 0.934 . S
H555 C529 0.930 . S
H556 C534 0.930 . S
H557 C535 0.931 . S
H558 C537 0.934 . S
H559 C538 0.930 . S
Ho560 C563 2.811 . S
Ho560 O580 2.322 . S
Ho560 O582 2.378 . S
Ho560 O583 2.524 . S
Ho560 O584 2.381 . S
Ho560 O585 2.669 . S
Ho560 O587 2.346 . S
Ho560 O591 2.305 . S
Ho561 C572 2.811 . S
Ho561 O581 2.346 . S
Ho561 O585 2.305 . S
Ho561 O586 2.322 . S
Ho561 O588 2.378 . S
Ho561 O589 2.524 . S
Ho561 O590 2.381 . S
Ho561 O591 2.669 . S
C562 O580 1.259 . S
C562 O581 1.268 . S
C563 Ho560 2.811 . S
C563 C564 1.488 . S
C563 O582 1.215 . S
C563 O583 1.289 . S
C564 C563 1.488 . S
C564 C565 1.348 . S
C564 C569 1.413 . S
C565 C564 1.348 . S
C565 C566 1.442 . S
C565 H592 0.930 . S
C566 C565 1.442 . S
C566 C567 1.381 . S
C566 H593 0.931 . S
C567 C566 1.381 . S
C567 C568 1.321 . S
C568 C567 1.321 . S
C568 C569 1.403 . S
C568 H594 0.934 . S
C569 C564 1.413 . S
C569 C568 1.403 . S
C569 H595 0.930 . S
C570 O584 1.275 . S
C570 O585 1.256 . S
C571 O586 1.259 . S
C571 O587 1.268 . S
C572 Ho561 2.811 . S
C572 C573 1.488 . S
C572 O588 1.215 . S
C572 O589 1.289 . S
C573 C572 1.488 . S
C573 C574 1.348 . S
C573 C578 1.413 . S
C574 C573 1.348 . S
C574 C575 1.442 . S
C574 H596 0.930 . S
C575 C574 1.442 . S
C575 C576 1.381 . S
C575 H597 0.931 . S
C576 C575 1.381 . S
C576 C577 1.321 . S
C577 C576 1.321 . S
C577 C578 1.403 . S
C577 H598 0.934 . S
C578 C573 1.413 . S
C578 C577 1.403 . S
C578 H599 0.930 . S
C579 O590 1.275 . S
C579 O591 1.256 . S
O580 Ho560 2.322 . S
O580 C562 1.259 . S
O581 Ho561 2.346 . S
O581 C562 1.268 . S
O582 Ho560 2.378 . S
O582 C563 1.215 . S
O583 Ho560 2.524 . S
O583 C563 1.289 . S
O584 Ho560 2.381 . S
O584 C570 1.275 . S
O585 Ho560 2.669 . S
O585 Ho561 2.305 . S
O585 C570 1.256 . S
O586 Ho561 2.322 . S
O586 C571 1.259 . S
O587 Ho560 2.346 . S
O587 C571 1.268 . S
O588 Ho561 2.378 . S
O588 C572 1.215 . S
O589 Ho561 2.524 . S
O589 C572 1.289 . S
O590 Ho561 2.381 . S
O590 C579 1.275 . S
O591 Ho560 2.305 . S
O591 Ho561 2.669 . S
O591 C579 1.256 . S
H592 C565 0.930 . S
H593 C566 0.931 . S
H594 C568 0.934 . S
H595 C569 0.930 . S
H596 C574 0.930 . S
H597 C575 0.931 . S
H598 C577 0.934 . S
H599 C578 0.930 . S
Ho600 C603 2.811 . S
Ho600 O620 2.322 . S
Ho600 O622 2.378 . S
Ho600 O623 2.524 . S
Ho600 O624 2.381 . S
Ho600 O625 2.669 . S
Ho600 O627 2.346 1_554 S
Ho600 O631 2.305 . S
Ho601 C612 2.811 1_554 S
Ho601 O621 2.346 . S
Ho601 O625 2.305 . S
Ho601 O626 2.322 1_554 S
Ho601 O628 2.377 . S
Ho601 O629 2.524 1_554 S
Ho601 O630 2.381 . S
Ho601 O631 2.669 . S
C602 O620 1.259 . S
C602 O621 1.268 . S
C603 Ho600 2.811 . S
C603 C604 1.488 . S
C603 O622 1.215 . S
C603 O623 1.289 . S
C604 C603 1.488 . S
C604 C605 1.348 . S
C604 C609 1.413 . S
C605 C604 1.348 . S
C605 C606 1.442 . S
C605 H632 0.930 . S
C606 C605 1.442 . S
C606 C607 1.381 . S
C606 H633 0.931 . S
C607 C606 1.381 . S
C607 C608 1.321 . S
C608 C607 1.321 . S
C608 C609 1.403 . S
C608 H634 0.934 . S
C609 C604 1.413 . S
C609 C608 1.403 . S
C609 H635 0.930 . S
C610 O624 1.275 . S
C610 O625 1.256 . S
C611 O626 1.259 . S
C611 O627 1.268 . S
C612 Ho601 2.811 1_556 S
C612 C613 1.488 . S
C612 O628 1.216 1_556 S
C612 O629 1.289 . S
C613 C612 1.488 . S
C613 C614 1.348 . S
C613 C618 1.413 . S
C614 C613 1.348 . S
C614 C615 1.442 . S
C614 H636 0.930 . S
C615 C614 1.442 . S
C615 C616 1.383 . S
C615 H637 0.931 . S
C616 C615 1.383 . S
C616 C617 1.321 1_565 S
C617 C616 1.321 1_545 S
C617 C618 1.403 1_545 S
C617 H638 0.934 . S
C618 C613 1.413 . S
C618 C617 1.403 1_565 S
C618 H639 0.930 . S
C619 O630 1.275 . S
C619 O631 1.256 . S
O620 Ho600 2.322 . S
O620 C602 1.259 . S
O621 Ho601 2.346 . S
O621 C602 1.268 . S
O622 Ho600 2.378 . S
O622 C603 1.215 . S
O623 Ho600 2.524 . S
O623 C603 1.289 . S
O624 Ho600 2.381 . S
O624 C610 1.275 . S
O625 Ho600 2.669 . S
O625 Ho601 2.305 . S
O625 C610 1.256 . S
O626 Ho601 2.322 1_556 S
O626 C611 1.259 . S
O627 Ho600 2.346 1_556 S
O627 C611 1.268 . S
O628 Ho601 2.377 . S
O628 C612 1.216 1_554 S
O629 Ho601 2.524 1_556 S
O629 C612 1.289 . S
O630 Ho601 2.381 . S
O630 C619 1.275 . S
O631 Ho600 2.305 . S
O631 Ho601 2.669 . S
O631 C619 1.256 . S
H632 C605 0.930 . S
H633 C606 0.931 . S
H634 C608 0.934 . S
H635 C609 0.930 . S
H636 C614 0.930 . S
H637 C615 0.931 . S
H638 C617 0.934 . S
H639 C618 0.930 . S
Ho640 C643 2.811 . S
Ho640 O660 2.322 . S
Ho640 O662 2.378 . S
Ho640 O663 2.524 . S
Ho640 O664 2.381 . S
Ho640 O665 2.669 . S
Ho640 O667 2.346 . S
Ho640 O671 2.305 . S
Ho641 C652 2.811 . S
Ho641 O661 2.346 . S
Ho641 O665 2.305 . S
Ho641 O666 2.322 . S
Ho641 O668 2.378 . S
Ho641 O669 2.524 . S
Ho641 O670 2.381 . S
Ho641 O671 2.669 . S
C642 O660 1.259 . S
C642 O661 1.268 . S
C643 Ho640 2.811 . S
C643 C644 1.488 . S
C643 O662 1.215 . S
C643 O663 1.289 . S
C644 C643 1.488 . S
C644 C645 1.348 . S
C644 C649 1.413 . S
C645 C644 1.348 . S
C645 C646 1.442 . S
C645 H672 0.930 . S
C646 C645 1.442 . S
C646 C647 1.381 . S
C646 H673 0.931 . S
C647 C646 1.381 . S
C647 C648 1.321 . S
C648 C647 1.321 . S
C648 C649 1.403 . S
C648 H674 0.934 . S
C649 C644 1.413 . S
C649 C648 1.403 . S
C649 H675 0.930 . S
C650 O664 1.275 . S
C650 O665 1.256 . S
C651 O666 1.259 . S
C651 O667 1.268 . S
C652 Ho641 2.811 . S
C652 C653 1.488 . S
C652 O668 1.215 . S
C652 O669 1.289 . S
C653 C652 1.488 . S
C653 C654 1.348 . S
C653 C658 1.413 . S
C654 C653 1.348 . S
C654 C655 1.442 . S
C654 H676 0.930 . S
C655 C654 1.442 . S
C655 C656 1.381 . S
C655 H677 0.931 . S
C656 C655 1.381 . S
C656 C657 1.321 . S
C657 C656 1.321 . S
C657 C658 1.403 . S
C657 H678 0.934 . S
C658 C653 1.413 . S
C658 C657 1.403 . S
C658 H679 0.930 . S
C659 O670 1.275 . S
C659 O671 1.256 . S
O660 Ho640 2.322 . S
O660 C642 1.259 . S
O661 Ho641 2.346 . S
O661 C642 1.268 . S
O662 Ho640 2.378 . S
O662 C643 1.215 . S
O663 Ho640 2.524 . S
O663 C643 1.289 . S
O664 Ho640 2.381 . S
O664 C650 1.275 . S
O665 Ho640 2.669 . S
O665 Ho641 2.305 . S
O665 C650 1.256 . S
O666 Ho641 2.322 . S
O666 C651 1.259 . S
O667 Ho640 2.346 . S
O667 C651 1.268 . S
O668 Ho641 2.378 . S
O668 C652 1.215 . S
O669 Ho641 2.524 . S
O669 C652 1.289 . S
O670 Ho641 2.381 . S
O670 C659 1.275 . S
O671 Ho640 2.305 . S
O671 Ho641 2.669 . S
O671 C659 1.256 . S
H672 C645 0.930 . S
H673 C646 0.931 . S
H674 C648 0.934 . S
H675 C649 0.930 . S
H676 C654 0.930 . S
H677 C655 0.931 . S
H678 C657 0.934 . S
H679 C658 0.930 . S
Ho680 C683 2.811 1_554 S
Ho680 O700 2.322 1_554 S
Ho680 O702 2.377 . S
Ho680 O703 2.524 1_554 S
Ho680 O704 2.381 . S
Ho680 O705 2.669 . S
Ho680 O707 2.346 . S
Ho680 O711 2.305 . S
Ho681 C692 2.811 . S
Ho681 O701 2.346 1_554 S
Ho681 O705 2.305 . S
Ho681 O706 2.322 . S
Ho681 O708 2.378 . S
Ho681 O709 2.524 . S
Ho681 O710 2.381 . S
Ho681 O711 2.669 . S
C682 O700 1.259 . S
C682 O701 1.268 . S
C683 Ho680 2.811 1_556 S
C683 C684 1.488 . S
C683 O702 1.216 1_556 S
C683 O703 1.289 . S
C684 C683 1.488 . S
C684 C685 1.348 . S
C684 C689 1.413 . S
C685 C684 1.348 . S
C685 C686 1.442 . S
C685 H712 0.930 . S
C686 C685 1.442 . S
C686 C687 1.381 . S
C686 H713 0.931 . S
C687 C686 1.381 . S
C687 C688 1.321 . S
C688 C687 1.321 . S
C688 C689 1.403 . S
C688 H714 0.934 . S
C689 C684 1.413 . S
C689 C688 1.403 . S
C689 H715 0.930 . S
C690 O704 1.275 . S
C690 O705 1.256 . S
C691 O706 1.259 . S
C691 O707 1.268 . S
C692 Ho681 2.811 . S
C692 C693 1.488 . S
C692 O708 1.215 . S
C692 O709 1.289 . S
C693 C692 1.488 . S
C693 C694 1.348 . S
C693 C698 1.413 . S
C694 C693 1.348 . S
C694 C695 1.442 . S
C694 H716 0.930 . S
C695 C694 1.442 . S
C695 C696 1.381 . S
C695 H717 0.931 . S
C696 C695 1.381 . S
C696 C697 1.321 . S
C697 C696 1.321 . S
C697 C698 1.403 . S
C697 H718 0.934 . S
C698 C693 1.413 . S
C698 C697 1.403 . S
C698 H719 0.930 . S
C699 O710 1.275 . S
C699 O711 1.256 . S
O700 Ho680 2.322 1_556 S
O700 C682 1.259 . S
O701 Ho681 2.346 1_556 S
O701 C682 1.268 . S
O702 Ho680 2.377 . S
O702 C683 1.216 1_554 S
O703 Ho680 2.524 1_556 S
O703 C683 1.289 . S
O704 Ho680 2.381 . S
O704 C690 1.275 . S
O705 Ho680 2.669 . S
O705 Ho681 2.305 . S
O705 C690 1.256 . S
O706 Ho681 2.322 . S
O706 C691 1.259 . S
O707 Ho680 2.346 . S
O707 C691 1.268 . S
O708 Ho681 2.378 . S
O708 C692 1.215 . S
O709 Ho681 2.524 . S
O709 C692 1.289 . S
O710 Ho681 2.381 . S
O710 C699 1.275 . S
O711 Ho680 2.305 . S
O711 Ho681 2.669 . S
O711 C699 1.256 . S
H712 C685 0.930 . S
H713 C686 0.931 . S
H714 C688 0.934 . S
H715 C689 0.930 . S
H716 C694 0.930 . S
H717 C695 0.931 . S
H718 C697 0.934 . S
H719 C698 0.930 . S
Ho720 C723 2.811 . S
Ho720 O740 2.322 . S
Ho720 O742 2.378 . S
Ho720 O743 2.524 . S
Ho720 O744 2.381 . S
Ho720 O745 2.669 . S
Ho720 O747 2.346 . S
Ho720 O751 2.305 . S
Ho721 C732 2.811 . S
Ho721 O741 2.346 . S
Ho721 O745 2.305 . S
Ho721 O746 2.322 . S
Ho721 O748 2.378 . S
Ho721 O749 2.524 . S
Ho721 O750 2.381 . S
Ho721 O751 2.669 . S
C722 O740 1.259 . S
C722 O741 1.268 . S
C723 Ho720 2.811 . S
C723 C724 1.488 . S
C723 O742 1.215 . S
C723 O743 1.289 . S
C724 C723 1.488 . S
C724 C725 1.348 . S
C724 C729 1.413 . S
C725 C724 1.348 . S
C725 C726 1.442 . S
C725 H752 0.930 . S
C726 C725 1.442 . S
C726 C727 1.381 . S
C726 H753 0.931 . S
C727 C726 1.381 . S
C727 C728 1.321 . S
C728 C727 1.321 . S
C728 C729 1.403 . S
C728 H754 0.934 . S
C729 C724 1.413 . S
C729 C728 1.403 . S
C729 H755 0.930 . S
C730 O744 1.275 . S
C730 O745 1.256 . S
C731 O746 1.259 . S
C731 O747 1.268 . S
C732 Ho721 2.811 . S
C732 C733 1.488 . S
C732 O748 1.215 . S
C732 O749 1.289 . S
C733 C732 1.488 . S
C733 C734 1.348 . S
C733 C738 1.413 . S
C734 C733 1.348 . S
C734 C735 1.442 . S
C734 H756 0.930 . S
C735 C734 1.442 . S
C735 C736 1.381 . S
C735 H757 0.931 . S
C736 C735 1.381 . S
C736 C737 1.321 . S
C737 C736 1.321 . S
C737 C738 1.403 . S
C737 H758 0.934 1_655 S
C738 C733 1.413 . S
C738 C737 1.403 . S
C738 H759 0.930 . S
C739 O750 1.275 . S
C739 O751 1.256 . S
O740 Ho720 2.322 . S
O740 C722 1.259 . S
O741 Ho721 2.346 . S
O741 C722 1.268 . S
O742 Ho720 2.378 . S
O742 C723 1.215 . S
O743 Ho720 2.524 . S
O743 C723 1.289 . S
O744 Ho720 2.381 . S
O744 C730 1.275 . S
O745 Ho720 2.669 . S
O745 Ho721 2.305 . S
O745 C730 1.256 . S
O746 Ho721 2.322 . S
O746 C731 1.259 . S
O747 Ho720 2.346 . S
O747 C731 1.268 . S
O748 Ho721 2.378 . S
O748 C732 1.215 . S
O749 Ho721 2.524 . S
O749 C732 1.289 . S
O750 Ho721 2.381 . S
O750 C739 1.275 . S
O751 Ho720 2.305 . S
O751 Ho721 2.669 . S
O751 C739 1.256 . S
H752 C725 0.930 . S
H753 C726 0.931 . S
H754 C728 0.934 . S
H755 C729 0.930 . S
H756 C734 0.930 . S
H757 C735 0.931 . S
H758 C737 0.934 1_455 S
H759 C738 0.930 . S
Ho760 C763 2.811 . S
Ho760 O780 2.322 . S
Ho760 O782 2.378 . S
Ho760 O783 2.524 . S
Ho760 O784 2.381 . S
Ho760 O785 2.669 . S
Ho760 O787 2.346 . S
Ho760 O791 2.305 . S
Ho761 C772 2.811 . S
Ho761 O781 2.346 . S
Ho761 O785 2.305 . S
Ho761 O786 2.322 . S
Ho761 O788 2.378 . S
Ho761 O789 2.524 . S
Ho761 O790 2.381 . S
Ho761 O791 2.669 . S
C762 O780 1.259 . S
C762 O781 1.268 . S
C763 Ho760 2.811 . S
C763 C764 1.488 . S
C763 O782 1.215 . S
C763 O783 1.289 . S
C764 C763 1.488 . S
C764 C765 1.348 . S
C764 C769 1.413 . S
C765 C764 1.348 . S
C765 C766 1.442 . S
C765 H792 0.930 . S
C766 C765 1.442 . S
C766 C767 1.381 . S
C766 H793 0.931 . S
C767 C766 1.381 . S
C767 C768 1.321 . S
C768 C767 1.321 . S
C768 C769 1.403 . S
C768 H794 0.934 . S
C769 C764 1.413 . S
C769 C768 1.403 . S
C769 H795 0.930 . S
C770 O784 1.275 . S
C770 O785 1.256 . S
C771 O786 1.259 . S
C771 O787 1.268 . S
C772 Ho761 2.811 . S
C772 C773 1.488 . S
C772 O788 1.215 . S
C772 O789 1.289 . S
C773 C772 1.488 . S
C773 C774 1.348 . S
C773 C778 1.413 . S
C774 C773 1.348 . S
C774 C775 1.442 . S
C774 H796 0.930 . S
C775 C774 1.442 . S
C775 C776 1.381 . S
C775 H797 0.931 . S
C776 C775 1.381 . S
C776 C777 1.321 . S
C777 C776 1.321 . S
C777 C778 1.403 . S
C777 H798 0.934 . S
C778 C773 1.413 . S
C778 C777 1.403 . S
C778 H799 0.930 . S
C779 O790 1.275 . S
C779 O791 1.256 . S
O780 Ho760 2.322 . S
O780 C762 1.259 . S
O781 Ho761 2.346 . S
O781 C762 1.268 . S
O782 Ho760 2.378 . S
O782 C763 1.215 . S
O783 Ho760 2.524 . S
O783 C763 1.289 . S
O784 Ho760 2.381 . S
O784 C770 1.275 . S
O785 Ho760 2.669 . S
O785 Ho761 2.305 . S
O785 C770 1.256 . S
O786 Ho761 2.322 . S
O786 C771 1.259 . S
O787 Ho760 2.346 . S
O787 C771 1.268 . S
O788 Ho761 2.378 . S
O788 C772 1.215 . S
O789 Ho761 2.524 . S
O789 C772 1.289 . S
O790 Ho761 2.381 . S
O790 C779 1.275 . S
O791 Ho760 2.305 . S
O791 Ho761 2.669 . S
O791 C779 1.256 . S
H792 C765 0.930 . S
H793 C766 0.931 . S
H794 C768 0.934 . S
H795 C769 0.930 . S
H796 C774 0.930 . S
H797 C775 0.931 . S
H798 C777 0.934 . S
H799 C778 0.930 . S
Ho800 C803 2.811 . S
Ho800 O820 2.322 . S
Ho800 O822 2.378 . S
Ho800 O823 2.524 . S
Ho800 O824 2.381 . S
Ho800 O825 2.669 . S
Ho800 O827 2.346 . S
Ho800 O831 2.305 . S
Ho801 C812 2.811 . S
Ho801 O821 2.346 . S
Ho801 O825 2.305 . S
Ho801 O826 2.322 . S
Ho801 O828 2.378 . S
Ho801 O829 2.524 . S
Ho801 O830 2.381 . S
Ho801 O831 2.669 . S
C802 O820 1.259 . S
C802 O821 1.268 . S
C803 Ho800 2.811 . S
C803 C804 1.488 . S
C803 O822 1.215 . S
C803 O823 1.289 . S
C804 C803 1.488 . S
C804 C805 1.348 . S
C804 C809 1.413 . S
C805 C804 1.348 . S
C805 C806 1.442 . S
C805 H832 0.930 . S
C806 C805 1.442 . S
C806 C807 1.381 . S
C806 H833 0.931 . S
C807 C806 1.381 . S
C807 C808 1.321 . S
C808 C807 1.321 . S
C808 C809 1.403 . S
C808 H834 0.934 . S
C809 C804 1.413 . S
C809 C808 1.403 . S
C809 H835 0.930 . S
C810 O824 1.275 . S
C810 O825 1.256 . S
C811 O826 1.259 . S
C811 O827 1.268 . S
C812 Ho801 2.811 . S
C812 C813 1.488 . S
C812 O828 1.215 . S
C812 O829 1.289 . S
C813 C812 1.488 . S
C813 C814 1.348 . S
C813 C818 1.413 . S
C814 C813 1.348 . S
C814 C815 1.442 . S
C814 H836 0.930 . S
C815 C814 1.442 . S
C815 C816 1.381 . S
C815 H837 0.931 . S
C816 C815 1.381 . S
C816 C817 1.321 . S
C817 C816 1.321 . S
C817 C818 1.403 . S
C817 H838 0.934 . S
C818 C813 1.413 . S
C818 C817 1.403 . S
C818 H839 0.930 . S
C819 O830 1.275 . S
C819 O831 1.256 . S
O820 Ho800 2.322 . S
O820 C802 1.259 . S
O821 Ho801 2.346 . S
O821 C802 1.268 . S
O822 Ho800 2.378 . S
O822 C803 1.215 . S
O823 Ho800 2.524 . S
O823 C803 1.289 . S
O824 Ho800 2.381 . S
O824 C810 1.275 . S
O825 Ho800 2.669 . S
O825 Ho801 2.305 . S
O825 C810 1.256 . S
O826 Ho801 2.322 . S
O826 C811 1.259 . S
O827 Ho800 2.346 . S
O827 C811 1.268 . S
O828 Ho801 2.378 . S
O828 C812 1.215 . S
O829 Ho801 2.524 . S
O829 C812 1.289 . S
O830 Ho801 2.381 . S
O830 C819 1.275 . S
O831 Ho800 2.305 . S
O831 Ho801 2.669 . S
O831 C819 1.256 . S
H832 C805 0.930 . S
H833 C806 0.931 . S
H834 C808 0.934 . S
H835 C809 0.930 . S
H836 C814 0.930 . S
H837 C815 0.931 . S
H838 C817 0.934 . S
H839 C818 0.930 . S
Ho840 C843 2.811 1_556 S
Ho840 O860 2.322 1_556 S
Ho840 O862 2.377 . S
Ho840 O863 2.524 1_556 S
Ho840 O864 2.381 . S
Ho840 O865 2.669 . S
Ho840 O867 2.346 . S
Ho840 O871 2.305 . S
Ho841 C852 2.811 . S
Ho841 O861 2.346 1_556 S
Ho841 O865 2.305 . S
Ho841 O866 2.322 . S
Ho841 O868 2.378 . S
Ho841 O869 2.524 . S
Ho841 O870 2.381 . S
Ho841 O871 2.669 . S
C842 O860 1.259 . S
C842 O861 1.268 . S
C843 Ho840 2.811 1_554 S
C843 C844 1.488 . S
C843 O862 1.216 1_554 S
C843 O863 1.289 . S
C844 C843 1.488 . S
C844 C845 1.348 . S
C844 C849 1.413 . S
C845 C844 1.348 . S
C845 C846 1.442 . S
C845 H872 0.930 . S
C846 C845 1.442 . S
C846 C847 1.381 . S
C846 H873 0.931 . S
C847 C846 1.381 . S
C847 C848 1.321 . S
C848 C847 1.321 . S
C848 C849 1.403 . S
C848 H874 0.934 . S
C849 C844 1.413 . S
C849 C848 1.403 . S
C849 H875 0.930 . S
C850 O864 1.275 . S
C850 O865 1.256 . S
C851 O866 1.259 . S
C851 O867 1.268 . S
C852 Ho841 2.811 . S
C852 C853 1.488 . S
C852 O868 1.215 . S
C852 O869 1.289 . S
C853 C852 1.488 . S
C853 C854 1.348 . S
C853 C858 1.413 . S
C854 C853 1.348 . S
C854 C855 1.442 . S
C854 H876 0.930 . S
C855 C854 1.442 . S
C855 C856 1.381 . S
C855 H877 0.931 . S
C856 C855 1.381 . S
C856 C857 1.321 . S
C857 C856 1.321 . S
C857 C858 1.403 . S
C857 H878 0.934 . S
C858 C853 1.413 . S
C858 C857 1.403 . S
C858 H879 0.930 . S
C859 O870 1.275 . S
C859 O871 1.256 . S
O860 Ho840 2.322 1_554 S
O860 C842 1.259 . S
O861 Ho841 2.346 1_554 S
O861 C842 1.268 . S
O862 Ho840 2.377 . S
O862 C843 1.216 1_556 S
O863 Ho840 2.524 1_554 S
O863 C843 1.289 . S
O864 Ho840 2.381 . S
O864 C850 1.275 . S
O865 Ho840 2.669 . S
O865 Ho841 2.305 . S
O865 C850 1.256 . S
O866 Ho841 2.322 . S
O866 C851 1.259 . S
O867 Ho840 2.346 . S
O867 C851 1.268 . S
O868 Ho841 2.378 . S
O868 C852 1.215 . S
O869 Ho841 2.524 . S
O869 C852 1.289 . S
O870 Ho841 2.381 . S
O870 C859 1.275 . S
O871 Ho840 2.305 . S
O871 Ho841 2.669 . S
O871 C859 1.256 . S
H872 C845 0.930 . S
H873 C846 0.931 . S
H874 C848 0.934 . S
H875 C849 0.930 . S
H876 C854 0.930 . S
H877 C855 0.931 . S
H878 C857 0.934 . S
H879 C858 0.930 . S
Ho880 C883 2.811 . S
Ho880 O900 2.322 . S
Ho880 O902 2.378 . S
Ho880 O903 2.524 . S
Ho880 O904 2.381 . S
Ho880 O905 2.669 . S
Ho880 O907 2.346 . S
Ho880 O911 2.305 . S
Ho881 C892 2.811 . S
Ho881 O901 2.346 . S
Ho881 O905 2.305 . S
Ho881 O906 2.322 . S
Ho881 O908 2.378 . S
Ho881 O909 2.524 . S
Ho881 O910 2.381 . S
Ho881 O911 2.669 . S
C882 O900 1.259 . S
C882 O901 1.268 . S
C883 Ho880 2.811 . S
C883 C884 1.488 . S
C883 O902 1.215 . S
C883 O903 1.289 . S
C884 C883 1.488 . S
C884 C885 1.348 . S
C884 C889 1.413 . S
C885 C884 1.348 . S
C885 C886 1.442 . S
C885 H912 0.930 . S
C886 C885 1.442 . S
C886 C887 1.381 . S
C886 H913 0.931 . S
C887 C886 1.381 . S
C887 C888 1.321 . S
C888 C887 1.321 . S
C888 C889 1.403 . S
C888 H914 0.934 . S
C889 C884 1.413 . S
C889 C888 1.403 . S
C889 H915 0.930 . S
C890 O904 1.275 . S
C890 O905 1.256 . S
C891 O906 1.259 . S
C891 O907 1.268 . S
C892 Ho881 2.811 . S
C892 C893 1.488 . S
C892 O908 1.215 . S
C892 O909 1.289 . S
C893 C892 1.488 . S
C893 C894 1.348 . S
C893 C898 1.413 . S
C894 C893 1.348 . S
C894 C895 1.442 . S
C894 H916 0.930 . S
C895 C894 1.442 . S
C895 C896 1.381 . S
C895 H917 0.931 . S
C896 C895 1.381 . S
C896 C897 1.321 . S
C897 C896 1.321 . S
C897 C898 1.403 . S
C897 H918 0.934 1_655 S
C898 C893 1.413 . S
C898 C897 1.403 . S
C898 H919 0.930 . S
C899 O910 1.275 . S
C899 O911 1.256 . S
O900 Ho880 2.322 . S
O900 C882 1.259 . S
O901 Ho881 2.346 . S
O901 C882 1.268 . S
O902 Ho880 2.378 . S
O902 C883 1.215 . S
O903 Ho880 2.524 . S
O903 C883 1.289 . S
O904 Ho880 2.381 . S
O904 C890 1.275 . S
O905 Ho880 2.669 . S
O905 Ho881 2.305 . S
O905 C890 1.256 . S
O906 Ho881 2.322 . S
O906 C891 1.259 . S
O907 Ho880 2.346 . S
O907 C891 1.268 . S
O908 Ho881 2.378 . S
O908 C892 1.215 . S
O909 Ho881 2.524 . S
O909 C892 1.289 . S
O910 Ho881 2.381 . S
O910 C899 1.275 . S
O911 Ho880 2.305 . S
O911 Ho881 2.669 . S
O911 C899 1.256 . S
H912 C885 0.930 . S
H913 C886 0.931 . S
H914 C888 0.934 . S
H915 C889 0.930 . S
H916 C894 0.930 . S
H917 C895 0.931 . S
H918 C897 0.934 1_455 S
H919 C898 0.930 . S
Ho920 C923 2.811 . S
Ho920 O940 2.322 . S
Ho920 O942 2.378 . S
Ho920 O943 2.524 . S
Ho920 O944 2.381 . S
Ho920 O945 2.669 . S
Ho920 O947 2.346 . S
Ho920 O951 2.305 . S
Ho921 C932 2.811 . S
Ho921 O941 2.346 . S
Ho921 O945 2.305 . S
Ho921 O946 2.322 . S
Ho921 O948 2.378 . S
Ho921 O949 2.524 . S
Ho921 O950 2.381 . S
Ho921 O951 2.669 . S
C922 O940 1.259 . S
C922 O941 1.268 . S
C923 Ho920 2.811 . S
C923 C924 1.488 . S
C923 O942 1.215 . S
C923 O943 1.289 . S
C924 C923 1.488 . S
C924 C925 1.348 . S
C924 C929 1.413 . S
C925 C924 1.348 . S
C925 C926 1.442 . S
C925 H952 0.930 . S
C926 C925 1.442 . S
C926 C927 1.381 . S
C926 H953 0.931 . S
C927 C926 1.381 . S
C927 C928 1.321 . S
C928 C927 1.321 . S
C928 C929 1.403 . S
C928 H954 0.934 . S
C929 C924 1.413 . S
C929 C928 1.403 . S
C929 H955 0.930 . S
C930 O944 1.275 . S
C930 O945 1.256 . S
C931 O946 1.259 . S
C931 O947 1.268 . S
C932 Ho921 2.811 . S
C932 C933 1.488 . S
C932 O948 1.215 . S
C932 O949 1.289 . S
C933 C932 1.488 . S
C933 C934 1.348 . S
C933 C938 1.413 . S
C934 C933 1.348 . S
C934 C935 1.442 . S
C934 H956 0.930 . S
C935 C934 1.442 . S
C935 C936 1.381 . S
C935 H957 0.931 . S
C936 C935 1.381 . S
C936 C937 1.321 . S
C937 C936 1.321 . S
C937 C938 1.403 . S
C937 H958 0.934 . S
C938 C933 1.413 . S
C938 C937 1.403 . S
C938 H959 0.930 . S
C939 O950 1.275 . S
C939 O951 1.256 . S
O940 Ho920 2.322 . S
O940 C922 1.259 . S
O941 Ho921 2.346 . S
O941 C922 1.268 . S
O942 Ho920 2.378 . S
O942 C923 1.215 . S
O943 Ho920 2.524 . S
O943 C923 1.289 . S
O944 Ho920 2.381 . S
O944 C930 1.275 . S
O945 Ho920 2.669 . S
O945 Ho921 2.305 . S
O945 C930 1.256 . S
O946 Ho921 2.322 . S
O946 C931 1.259 . S
O947 Ho920 2.346 . S
O947 C931 1.268 . S
O948 Ho921 2.378 . S
O948 C932 1.215 . S
O949 Ho921 2.524 . S
O949 C932 1.289 . S
O950 Ho921 2.381 . S
O950 C939 1.275 . S
O951 Ho920 2.305 . S
O951 Ho921 2.669 . S
O951 C939 1.256 . S
H952 C925 0.930 . S
H953 C926 0.931 . S
H954 C928 0.934 . S
H955 C929 0.930 . S
H956 C934 0.930 . S
H957 C935 0.931 . S
H958 C937 0.934 . S
H959 C938 0.930 . S
Ho960 C963 2.811 . S
Ho960 O980 2.322 . S
Ho960 O982 2.378 . S
Ho960 O983 2.524 . S
Ho960 O984 2.381 . S
Ho960 O985 2.669 . S
Ho960 O987 2.346 . S
Ho960 O991 2.305 . S
Ho961 C972 2.811 . S
Ho961 O981 2.346 . S
Ho961 O985 2.305 . S
Ho961 O986 2.322 . S
Ho961 O988 2.378 . S
Ho961 O989 2.524 . S
Ho961 O990 2.381 . S
Ho961 O991 2.669 . S
C962 O980 1.259 . S
C962 O981 1.268 . S
C963 Ho960 2.811 . S
C963 C964 1.488 . S
C963 O982 1.215 . S
C963 O983 1.289 . S
C964 C963 1.488 . S
C964 C965 1.348 . S
C964 C969 1.413 . S
C965 C964 1.348 . S
C965 C966 1.442 . S
C965 H992 0.930 . S
C966 C965 1.442 . S
C966 C967 1.381 . S
C966 H993 0.931 . S
C967 C966 1.381 . S
C967 C968 1.321 . S
C968 C967 1.321 . S
C968 C969 1.403 . S
C968 H994 0.934 . S
C969 C964 1.413 . S
C969 C968 1.403 . S
C969 H995 0.930 . S
C970 O984 1.275 . S
C970 O985 1.256 . S
C971 O986 1.259 . S
C971 O987 1.268 . S
C972 Ho961 2.811 . S
C972 C973 1.488 . S
C972 O988 1.215 . S
C972 O989 1.289 . S
C973 C972 1.488 . S
C973 C974 1.348 . S
C973 C978 1.413 . S
C974 C973 1.348 . S
C974 C975 1.442 . S
C974 H996 0.930 . S
C975 C974 1.442 . S
C975 C976 1.381 . S
C975 H997 0.931 . S
C976 C975 1.381 . S
C976 C977 1.321 . S
C977 C976 1.321 . S
C977 C978 1.403 . S
C977 H998 0.934 . S
C978 C973 1.413 . S
C978 C977 1.403 . S
C978 H999 0.930 . S
C979 O990 1.275 . S
C979 O991 1.256 . S
O980 Ho960 2.322 . S
O980 C962 1.259 . S
O981 Ho961 2.346 . S
O981 C962 1.268 . S
O982 Ho960 2.378 . S
O982 C963 1.215 . S
O983 Ho960 2.524 . S
O983 C963 1.289 . S
O984 Ho960 2.381 . S
O984 C970 1.275 . S
O985 Ho960 2.669 . S
O985 Ho961 2.305 . S
O985 C970 1.256 . S
O986 Ho961 2.322 . S
O986 C971 1.259 . S
O987 Ho960 2.346 . S
O987 C971 1.268 . S
O988 Ho961 2.378 . S
O988 C972 1.215 . S
O989 Ho961 2.524 . S
O989 C972 1.289 . S
O990 Ho961 2.381 . S
O990 C979 1.275 . S
O991 Ho960 2.305 . S
O991 Ho961 2.669 . S
O991 C979 1.256 . S
H992 C965 0.930 . S
H993 C966 0.931 . S
H994 C968 0.934 . S
H995 C969 0.930 . S
H996 C974 0.930 . S
H997 C975 0.931 . S
H998 C977 0.934 . S
H999 C978 0.930 . S
Ho1000 C1003 2.811 . S
Ho1000 O1020 2.322 . S
Ho1000 O1022 2.378 . S
Ho1000 O1023 2.524 . S
Ho1000 O1024 2.381 . S
Ho1000 O1025 2.669 . S
Ho1000 O1027 2.346 1_556 S
Ho1000 O1031 2.305 . S
Ho1001 C1012 2.811 1_556 S
Ho1001 O1021 2.346 . S
Ho1001 O1025 2.305 . S
Ho1001 O1026 2.322 1_556 S
Ho1001 O1028 2.377 . S
Ho1001 O1029 2.524 1_556 S
Ho1001 O1030 2.381 . S
Ho1001 O1031 2.669 . S
C1002 O1020 1.259 . S
C1002 O1021 1.268 . S
C1003 Ho1000 2.811 . S
C1003 C1004 1.488 . S
C1003 O1022 1.215 . S
C1003 O1023 1.289 . S
C1004 C1003 1.488 . S
C1004 C1005 1.348 . S
C1004 C1009 1.413 . S
C1005 C1004 1.348 . S
C1005 C1006 1.442 . S
C1005 H1032 0.930 . S
C1006 C1005 1.442 . S
C1006 C1007 1.381 . S
C1006 H1033 0.931 . S
C1007 C1006 1.381 . S
C1007 C1008 1.321 . S
C1008 C1007 1.321 . S
C1008 C1009 1.403 . S
C1008 H1034 0.934 . S
C1009 C1004 1.413 . S
C1009 C1008 1.403 . S
C1009 H1035 0.930 . S
C1010 O1024 1.275 . S
C1010 O1025 1.256 . S
C1011 O1026 1.259 . S
C1011 O1027 1.268 . S
C1012 Ho1001 2.811 1_554 S
C1012 C1013 1.488 . S
C1012 O1028 1.216 1_554 S
C1012 O1029 1.289 . S
C1013 C1012 1.488 . S
C1013 C1014 1.348 . S
C1013 C1018 1.413 . S
C1014 C1013 1.348 . S
C1014 C1015 1.442 . S
C1014 H1036 0.930 . S
C1015 C1014 1.442 . S
C1015 C1016 1.381 . S
C1015 H1037 0.931 . S
C1016 C1015 1.381 . S
C1016 C1017 1.321 . S
C1017 C1016 1.321 . S
C1017 C1018 1.403 . S
C1017 H1038 0.934 . S
C1018 C1013 1.413 . S
C1018 C1017 1.403 . S
C1018 H1039 0.930 . S
C1019 O1030 1.275 . S
C1019 O1031 1.256 . S
O1020 Ho1000 2.322 . S
O1020 C1002 1.259 . S
O1021 Ho1001 2.346 . S
O1021 C1002 1.268 . S
O1022 Ho1000 2.378 . S
O1022 C1003 1.215 . S
O1023 Ho1000 2.524 . S
O1023 C1003 1.289 . S
O1024 Ho1000 2.381 . S
O1024 C1010 1.275 . S
O1025 Ho1000 2.669 . S
O1025 Ho1001 2.305 . S
O1025 C1010 1.256 . S
O1026 Ho1001 2.322 1_554 S
O1026 C1011 1.259 . S
O1027 Ho1000 2.346 1_554 S
O1027 C1011 1.268 . S
O1028 Ho1001 2.377 . S
O1028 C1012 1.216 1_556 S
O1029 Ho1001 2.524 1_554 S
O1029 C1012 1.289 . S
O1030 Ho1001 2.381 . S
O1030 C1019 1.275 . S
O1031 Ho1000 2.305 . S
O1031 Ho1001 2.669 . S
O1031 C1019 1.256 . S
H1032 C1005 0.930 . S
H1033 C1006 0.931 . S
H1034 C1008 0.934 . S
H1035 C1009 0.930 . S
H1036 C1014 0.930 . S
H1037 C1015 0.931 . S
H1038 C1017 0.934 . S
H1039 C1018 0.930 . S
Ho1040 C1043 2.811 . S
Ho1040 O1060 2.322 . S
Ho1040 O1062 2.378 . S
Ho1040 O1063 2.524 . S
Ho1040 O1064 2.381 . S
Ho1040 O1065 2.669 . S
Ho1040 O1067 2.346 . S
Ho1040 O1071 2.305 . S
Ho1041 C1052 2.811 . S
Ho1041 O1061 2.346 . S
Ho1041 O1065 2.305 . S
Ho1041 O1066 2.322 . S
Ho1041 O1068 2.378 . S
Ho1041 O1069 2.524 . S
Ho1041 O1070 2.381 . S
Ho1041 O1071 2.669 . S
C1042 O1060 1.259 . S
C1042 O1061 1.268 . S
C1043 Ho1040 2.811 . S
C1043 C1044 1.488 . S
C1043 O1062 1.215 . S
C1043 O1063 1.289 . S
C1044 C1043 1.488 . S
C1044 C1045 1.348 . S
C1044 C1049 1.413 . S
C1045 C1044 1.348 . S
C1045 C1046 1.442 . S
C1045 H1072 0.930 . S
C1046 C1045 1.442 . S
C1046 C1047 1.381 . S
C1046 H1073 0.931 . S
C1047 C1046 1.381 . S
C1047 C1048 1.321 . S
C1048 C1047 1.321 . S
C1048 C1049 1.403 . S
C1048 H1074 0.934 1_455 S
C1049 C1044 1.413 . S
C1049 C1048 1.403 . S
C1049 H1075 0.930 . S
C1050 O1064 1.275 . S
C1050 O1065 1.256 . S
C1051 O1066 1.259 . S
C1051 O1067 1.268 . S
C1052 Ho1041 2.811 . S
C1052 C1053 1.488 . S
C1052 O1068 1.215 . S
C1052 O1069 1.289 . S
C1053 C1052 1.488 . S
C1053 C1054 1.348 . S
C1053 C1058 1.413 . S
C1054 C1053 1.348 . S
C1054 C1055 1.442 . S
C1054 H1076 0.930 . S
C1055 C1054 1.442 . S
C1055 C1056 1.381 . S
C1055 H1077 0.931 . S
C1056 C1055 1.381 . S
C1056 C1057 1.321 . S
C1057 C1056 1.321 . S
C1057 C1058 1.403 . S
C1057 H1078 0.934 . S
C1058 C1053 1.413 . S
C1058 C1057 1.403 . S
C1058 H1079 0.930 . S
C1059 O1070 1.275 . S
C1059 O1071 1.256 . S
O1060 Ho1040 2.322 . S
O1060 C1042 1.259 . S
O1061 Ho1041 2.346 . S
O1061 C1042 1.268 . S
O1062 Ho1040 2.378 . S
O1062 C1043 1.215 . S
O1063 Ho1040 2.524 . S
O1063 C1043 1.289 . S
O1064 Ho1040 2.381 . S
O1064 C1050 1.275 . S
O1065 Ho1040 2.669 . S
O1065 Ho1041 2.305 . S
O1065 C1050 1.256 . S
O1066 Ho1041 2.322 . S
O1066 C1051 1.259 . S
O1067 Ho1040 2.346 . S
O1067 C1051 1.268 . S
O1068 Ho1041 2.378 . S
O1068 C1052 1.215 . S
O1069 Ho1041 2.524 . S
O1069 C1052 1.289 . S
O1070 Ho1041 2.381 . S
O1070 C1059 1.275 . S
O1071 Ho1040 2.305 . S
O1071 Ho1041 2.669 . S
O1071 C1059 1.256 . S
H1072 C1045 0.930 . S
H1073 C1046 0.931 . S
H1074 C1048 0.934 1_655 S
H1075 C1049 0.930 . S
H1076 C1054 0.930 . S
H1077 C1055 0.931 . S
H1078 C1057 0.934 . S
H1079 C1058 0.930 . S
Ho1080 C1083 2.811 . S
Ho1080 O1100 2.322 . S
Ho1080 O1102 2.378 . S
Ho1080 O1103 2.524 . S
Ho1080 O1104 2.381 . S
Ho1080 O1105 2.669 . S
Ho1080 O1107 2.346 . S
Ho1080 O1111 2.305 . S
Ho1081 C1092 2.811 . S
Ho1081 O1101 2.346 . S
Ho1081 O1105 2.305 . S
Ho1081 O1106 2.322 . S
Ho1081 O1108 2.378 . S
Ho1081 O1109 2.524 . S
Ho1081 O1110 2.381 . S
Ho1081 O1111 2.669 . S
C1082 O1100 1.259 . S
C1082 O1101 1.268 . S
C1083 Ho1080 2.811 . S
C1083 C1084 1.488 . S
C1083 O1102 1.215 . S
C1083 O1103 1.289 . S
C1084 C1083 1.488 . S
C1084 C1085 1.348 . S
C1084 C1089 1.413 . S
C1085 C1084 1.348 . S
C1085 C1086 1.442 . S
C1085 H1112 0.930 . S
C1086 C1085 1.442 . S
C1086 C1087 1.381 . S
C1086 H1113 0.931 . S
C1087 C1086 1.381 . S
C1087 C1088 1.321 . S
C1088 C1087 1.321 . S
C1088 C1089 1.403 . S
C1088 H1114 0.934 . S
C1089 C1084 1.413 . S
C1089 C1088 1.403 . S
C1089 H1115 0.930 . S
C1090 O1104 1.275 . S
C1090 O1105 1.256 . S
C1091 O1106 1.259 . S
C1091 O1107 1.268 . S
C1092 Ho1081 2.811 . S
C1092 C1093 1.488 . S
C1092 O1108 1.215 . S
C1092 O1109 1.289 . S
C1093 C1092 1.488 . S
C1093 C1094 1.348 . S
C1093 C1098 1.413 . S
C1094 C1093 1.348 . S
C1094 C1095 1.442 . S
C1094 H1116 0.930 . S
C1095 C1094 1.442 . S
C1095 C1096 1.381 . S
C1095 H1117 0.931 . S
C1096 C1095 1.381 . S
C1096 C1097 1.321 . S
C1097 C1096 1.321 . S
C1097 C1098 1.403 . S
C1097 H1118 0.934 . S
C1098 C1093 1.413 . S
C1098 C1097 1.403 . S
C1098 H1119 0.930 . S
C1099 O1110 1.275 . S
C1099 O1111 1.256 . S
O1100 Ho1080 2.322 . S
O1100 C1082 1.259 . S
O1101 Ho1081 2.346 . S
O1101 C1082 1.268 . S
O1102 Ho1080 2.378 . S
O1102 C1083 1.215 . S
O1103 Ho1080 2.524 . S
O1103 C1083 1.289 . S
O1104 Ho1080 2.381 . S
O1104 C1090 1.275 . S
O1105 Ho1080 2.669 . S
O1105 Ho1081 2.305 . S
O1105 C1090 1.256 . S
O1106 Ho1081 2.322 . S
O1106 C1091 1.259 . S
O1107 Ho1080 2.346 . S
O1107 C1091 1.268 . S
O1108 Ho1081 2.378 . S
O1108 C1092 1.215 . S
O1109 Ho1081 2.524 . S
O1109 C1092 1.289 . S
O1110 Ho1081 2.381 . S
O1110 C1099 1.275 . S
O1111 Ho1080 2.305 . S
O1111 Ho1081 2.669 . S
O1111 C1099 1.256 . S
H1112 C1085 0.930 . S
H1113 C1086 0.931 . S
H1114 C1088 0.934 . S
H1115 C1089 0.930 . S
H1116 C1094 0.930 . S
H1117 C1095 0.931 . S
H1118 C1097 0.934 . S
H1119 C1098 0.930 . S
Ho1120 C1123 2.811 . S
Ho1120 O1140 2.322 . S
Ho1120 O1142 2.378 . S
Ho1120 O1143 2.524 . S
Ho1120 O1144 2.381 . S
Ho1120 O1145 2.669 . S
Ho1120 O1147 2.346 . S
Ho1120 O1151 2.305 . S
Ho1121 C1132 2.811 . S
Ho1121 O1141 2.346 . S
Ho1121 O1145 2.305 . S
Ho1121 O1146 2.322 . S
Ho1121 O1148 2.378 . S
Ho1121 O1149 2.524 . S
Ho1121 O1150 2.381 . S
Ho1121 O1151 2.669 . S
C1122 O1140 1.259 . S
C1122 O1141 1.268 . S
C1123 Ho1120 2.811 . S
C1123 C1124 1.488 . S
C1123 O1142 1.215 . S
C1123 O1143 1.289 . S
C1124 C1123 1.488 . S
C1124 C1125 1.348 . S
C1124 C1129 1.413 . S
C1125 C1124 1.348 . S
C1125 C1126 1.442 . S
C1125 H1152 0.930 . S
C1126 C1125 1.442 . S
C1126 C1127 1.381 . S
C1126 H1153 0.931 . S
C1127 C1126 1.381 . S
C1127 C1128 1.321 . S
C1128 C1127 1.321 . S
C1128 C1129 1.403 . S
C1128 H1154 0.934 . S
C1129 C1124 1.413 . S
C1129 C1128 1.403 . S
C1129 H1155 0.930 . S
C1130 O1144 1.275 . S
C1130 O1145 1.256 . S
C1131 O1146 1.259 . S
C1131 O1147 1.268 . S
C1132 Ho1121 2.811 . S
C1132 C1133 1.488 . S
C1132 O1148 1.215 . S
C1132 O1149 1.289 . S
C1133 C1132 1.488 . S
C1133 C1134 1.348 . S
C1133 C1138 1.413 . S
C1134 C1133 1.348 . S
C1134 C1135 1.442 . S
C1134 H1156 0.930 . S
C1135 C1134 1.442 . S
C1135 C1136 1.381 . S
C1135 H1157 0.931 . S
C1136 C1135 1.381 . S
C1136 C1137 1.321 . S
C1137 C1136 1.321 . S
C1137 C1138 1.403 . S
C1137 H1158 0.934 . S
C1138 C1133 1.413 . S
C1138 C1137 1.403 . S
C1138 H1159 0.930 . S
C1139 O1150 1.275 . S
C1139 O1151 1.256 . S
O1140 Ho1120 2.322 . S
O1140 C1122 1.259 . S
O1141 Ho1121 2.346 . S
O1141 C1122 1.268 . S
O1142 Ho1120 2.378 . S
O1142 C1123 1.215 . S
O1143 Ho1120 2.524 . S
O1143 C1123 1.289 . S
O1144 Ho1120 2.381 . S
O1144 C1130 1.275 . S
O1145 Ho1120 2.669 . S
O1145 Ho1121 2.305 . S
O1145 C1130 1.256 . S
O1146 Ho1121 2.322 . S
O1146 C1131 1.259 . S
O1147 Ho1120 2.346 . S
O1147 C1131 1.268 . S
O1148 Ho1121 2.378 . S
O1148 C1132 1.215 . S
O1149 Ho1121 2.524 . S
O1149 C1132 1.289 . S
O1150 Ho1121 2.381 . S
O1150 C1139 1.275 . S
O1151 Ho1120 2.305 . S
O1151 Ho1121 2.669 . S
O1151 C1139 1.256 . S
H1152 C1125 0.930 . S
H1153 C1126 0.931 . S
H1154 C1128 0.934 . S
H1155 C1129 0.930 . S
H1156 C1134 0.930 . S
H1157 C1135 0.931 . S
H1158 C1137 0.934 . S
H1159 C1138 0.930 . S
Ho1160 C1163 2.811 . S
Ho1160 O1180 2.322 . S
Ho1160 O1182 2.378 . S
Ho1160 O1183 2.524 . S
Ho1160 O1184 2.381 . S
Ho1160 O1185 2.669 . S
Ho1160 O1187 2.346 1_554 S
Ho1160 O1191 2.305 . S
Ho1161 C1172 2.811 1_554 S
Ho1161 O1181 2.346 . S
Ho1161 O1185 2.305 . S
Ho1161 O1186 2.322 1_554 S
Ho1161 O1188 2.377 . S
Ho1161 O1189 2.524 1_554 S
Ho1161 O1190 2.381 . S
Ho1161 O1191 2.669 . S
C1162 O1180 1.259 . S
C1162 O1181 1.268 . S
C1163 Ho1160 2.811 . S
C1163 C1164 1.488 . S
C1163 O1182 1.215 . S
C1163 O1183 1.289 . S
C1164 C1163 1.488 . S
C1164 C1165 1.348 . S
C1164 C1169 1.413 . S
C1165 C1164 1.348 . S
C1165 C1166 1.442 . S
C1165 H1192 0.930 . S
C1166 C1165 1.442 . S
C1166 C1167 1.381 . S
C1166 H1193 0.931 . S
C1167 C1166 1.381 . S
C1167 C1168 1.321 . S
C1168 C1167 1.321 . S
C1168 C1169 1.403 . S
C1168 H1194 0.934 . S
C1169 C1164 1.413 . S
C1169 C1168 1.403 . S
C1169 H1195 0.930 . S
C1170 O1184 1.275 . S
C1170 O1185 1.256 . S
C1171 O1186 1.259 . S
C1171 O1187 1.268 . S
C1172 Ho1161 2.811 1_556 S
C1172 C1173 1.488 . S
C1172 O1188 1.216 1_556 S
C1172 O1189 1.289 . S
C1173 C1172 1.488 . S
C1173 C1174 1.348 . S
C1173 C1178 1.413 . S
C1174 C1173 1.348 . S
C1174 C1175 1.442 . S
C1174 H1196 0.930 . S
C1175 C1174 1.442 . S
C1175 C1176 1.381 . S
C1175 H1197 0.931 . S
C1176 C1175 1.381 . S
C1176 C1177 1.321 . S
C1177 C1176 1.321 . S
C1177 C1178 1.403 . S
C1177 H1198 0.934 . S
C1178 C1173 1.413 . S
C1178 C1177 1.403 . S
C1178 H1199 0.930 . S
C1179 O1190 1.275 . S
C1179 O1191 1.256 . S
O1180 Ho1160 2.322 . S
O1180 C1162 1.259 . S
O1181 Ho1161 2.346 . S
O1181 C1162 1.268 . S
O1182 Ho1160 2.378 . S
O1182 C1163 1.215 . S
O1183 Ho1160 2.524 . S
O1183 C1163 1.289 . S
O1184 Ho1160 2.381 . S
O1184 C1170 1.275 . S
O1185 Ho1160 2.669 . S
O1185 Ho1161 2.305 . S
O1185 C1170 1.256 . S
O1186 Ho1161 2.322 1_556 S
O1186 C1171 1.259 . S
O1187 Ho1160 2.346 1_556 S
O1187 C1171 1.268 . S
O1188 Ho1161 2.377 . S
O1188 C1172 1.216 1_554 S
O1189 Ho1161 2.524 1_556 S
O1189 C1172 1.289 . S
O1190 Ho1161 2.381 . S
O1190 C1179 1.275 . S
O1191 Ho1160 2.305 . S
O1191 Ho1161 2.669 . S
O1191 C1179 1.256 . S
H1192 C1165 0.930 . S
H1193 C1166 0.931 . S
H1194 C1168 0.934 . S
H1195 C1169 0.930 . S
H1196 C1174 0.930 . S
H1197 C1175 0.931 . S
H1198 C1177 0.934 . S
H1199 C1178 0.930 . S
Ho1200 C1203 2.811 . S
Ho1200 O1220 2.322 . S
Ho1200 O1222 2.378 . S
Ho1200 O1223 2.524 . S
Ho1200 O1224 2.381 . S
Ho1200 O1225 2.669 . S
Ho1200 O1227 2.346 . S
Ho1200 O1231 2.305 . S
Ho1201 C1212 2.811 . S
Ho1201 O1221 2.346 . S
Ho1201 O1225 2.305 . S
Ho1201 O1226 2.322 . S
Ho1201 O1228 2.378 . S
Ho1201 O1229 2.524 . S
Ho1201 O1230 2.381 . S
Ho1201 O1231 2.669 . S
C1202 O1220 1.259 . S
C1202 O1221 1.268 . S
C1203 Ho1200 2.811 . S
C1203 C1204 1.488 . S
C1203 O1222 1.215 . S
C1203 O1223 1.289 . S
C1204 C1203 1.488 . S
C1204 C1205 1.348 . S
C1204 C1209 1.413 . S
C1205 C1204 1.348 . S
C1205 C1206 1.442 . S
C1205 H1232 0.930 . S
C1206 C1205 1.442 . S
C1206 C1207 1.381 . S
C1206 H1233 0.931 . S
C1207 C1206 1.381 . S
C1207 C1208 1.321 . S
C1208 C1207 1.321 . S
C1208 C1209 1.403 . S
C1208 H1234 0.934 1_455 S
C1209 C1204 1.413 . S
C1209 C1208 1.403 . S
C1209 H1235 0.930 . S
C1210 O1224 1.275 . S
C1210 O1225 1.256 . S
C1211 O1226 1.259 . S
C1211 O1227 1.268 . S
C1212 Ho1201 2.811 . S
C1212 C1213 1.488 . S
C1212 O1228 1.215 . S
C1212 O1229 1.289 . S
C1213 C1212 1.488 . S
C1213 C1214 1.348 . S
C1213 C1218 1.413 . S
C1214 C1213 1.348 . S
C1214 C1215 1.442 . S
C1214 H1236 0.930 . S
C1215 C1214 1.442 . S
C1215 C1216 1.381 . S
C1215 H1237 0.931 . S
C1216 C1215 1.381 . S
C1216 C1217 1.321 . S
C1217 C1216 1.321 . S
C1217 C1218 1.403 . S
C1217 H1238 0.934 . S
C1218 C1213 1.413 . S
C1218 C1217 1.403 . S
C1218 H1239 0.930 . S
C1219 O1230 1.275 . S
C1219 O1231 1.256 . S
O1220 Ho1200 2.322 . S
O1220 C1202 1.259 . S
O1221 Ho1201 2.346 . S
O1221 C1202 1.268 . S
O1222 Ho1200 2.378 . S
O1222 C1203 1.215 . S
O1223 Ho1200 2.524 . S
O1223 C1203 1.289 . S
O1224 Ho1200 2.381 . S
O1224 C1210 1.275 . S
O1225 Ho1200 2.669 . S
O1225 Ho1201 2.305 . S
O1225 C1210 1.256 . S
O1226 Ho1201 2.322 . S
O1226 C1211 1.259 . S
O1227 Ho1200 2.346 . S
O1227 C1211 1.268 . S
O1228 Ho1201 2.378 . S
O1228 C1212 1.215 . S
O1229 Ho1201 2.524 . S
O1229 C1212 1.289 . S
O1230 Ho1201 2.381 . S
O1230 C1219 1.275 . S
O1231 Ho1200 2.305 . S
O1231 Ho1201 2.669 . S
O1231 C1219 1.256 . S
H1232 C1205 0.930 . S
H1233 C1206 0.931 . S
H1234 C1208 0.934 1_655 S
H1235 C1209 0.930 . S
H1236 C1214 0.930 . S
H1237 C1215 0.931 . S
H1238 C1217 0.934 . S
H1239 C1218 0.930 . S
Ho1240 C1243 2.811 . S
Ho1240 O1260 2.322 . S
Ho1240 O1262 2.378 . S
Ho1240 O1263 2.524 . S
Ho1240 O1264 2.381 . S
Ho1240 O1265 2.669 . S
Ho1240 O1267 2.346 . S
Ho1240 O1271 2.305 . S
Ho1241 C1252 2.811 . S
Ho1241 O1261 2.346 . S
Ho1241 O1265 2.305 . S
Ho1241 O1266 2.322 . S
Ho1241 O1268 2.378 . S
Ho1241 O1269 2.524 . S
Ho1241 O1270 2.381 . S
Ho1241 O1271 2.669 . S
C1242 O1260 1.259 . S
C1242 O1261 1.268 . S
C1243 Ho1240 2.811 . S
C1243 C1244 1.488 . S
C1243 O1262 1.215 . S
C1243 O1263 1.289 . S
C1244 C1243 1.488 . S
C1244 C1245 1.348 . S
C1244 C1249 1.413 . S
C1245 C1244 1.348 . S
C1245 C1246 1.442 . S
C1245 H1272 0.930 . S
C1246 C1245 1.442 . S
C1246 C1247 1.381 . S
C1246 H1273 0.931 . S
C1247 C1246 1.381 . S
C1247 C1248 1.321 . S
C1248 C1247 1.321 . S
C1248 C1249 1.403 . S
C1248 H1274 0.934 . S
C1249 C1244 1.413 . S
C1249 C1248 1.403 . S
C1249 H1275 0.930 . S
C1250 O1264 1.275 . S
C1250 O1265 1.256 . S
C1251 O1266 1.259 . S
C1251 O1267 1.268 . S
C1252 Ho1241 2.811 . S
C1252 C1253 1.488 . S
C1252 O1268 1.215 . S
C1252 O1269 1.289 . S
C1253 C1252 1.488 . S
C1253 C1254 1.348 . S
C1253 C1258 1.413 . S
C1254 C1253 1.348 . S
C1254 C1255 1.442 . S
C1254 H1276 0.930 . S
C1255 C1254 1.442 . S
C1255 C1256 1.381 . S
C1255 H1277 0.931 . S
C1256 C1255 1.381 . S
C1256 C1257 1.321 . S
C1257 C1256 1.321 . S
C1257 C1258 1.403 . S
C1257 H1278 0.934 . S
C1258 C1253 1.413 . S
C1258 C1257 1.403 . S
C1258 H1279 0.930 . S
C1259 O1270 1.275 . S
C1259 O1271 1.256 . S
O1260 Ho1240 2.322 . S
O1260 C1242 1.259 . S
O1261 Ho1241 2.346 . S
O1261 C1242 1.268 . S
O1262 Ho1240 2.378 . S
O1262 C1243 1.215 . S
O1263 Ho1240 2.524 . S
O1263 C1243 1.289 . S
O1264 Ho1240 2.381 . S
O1264 C1250 1.275 . S
O1265 Ho1240 2.669 . S
O1265 Ho1241 2.305 . S
O1265 C1250 1.256 . S
O1266 Ho1241 2.322 . S
O1266 C1251 1.259 . S
O1267 Ho1240 2.346 . S
O1267 C1251 1.268 . S
O1268 Ho1241 2.378 . S
O1268 C1252 1.215 . S
O1269 Ho1241 2.524 . S
O1269 C1252 1.289 . S
O1270 Ho1241 2.381 . S
O1270 C1259 1.275 . S
O1271 Ho1240 2.305 . S
O1271 Ho1241 2.669 . S
O1271 C1259 1.256 . S
H1272 C1245 0.930 . S
H1273 C1246 0.931 . S
H1274 C1248 0.934 . S
H1275 C1249 0.930 . S
H1276 C1254 0.930 . S
H1277 C1255 0.931 . S
H1278 C1257 0.934 . S
H1279 C1258 0.930 . S
H1280 C1286 0.930 . S
H1281 C1289 0.930 . S
H1282 C1290 0.930 . S
H1283 C1291 0.930 . S
H1284 C1294 0.930 . S
H1285 C1295 0.930 . S
C1286 H1280 0.930 . S
C1286 C1287 1.355 . S
C1286 C1288 1.415 . S
C1287 C1286 1.355 . S
C1287 C1289 1.419 . S
C1288 C1286 1.415 . S
C1288 C1293 1.425 . S
C1288 C1295 1.409 . S
C1289 H1281 0.930 . S
C1289 C1287 1.419 . S
C1289 C1290 1.362 . S
C1290 H1282 0.930 . S
C1290 C1289 1.362 . S
C1290 C1293 1.409 . S
C1291 H1283 0.930 . S
C1291 C1292 1.355 . S
C1291 C1293 1.415 . S
C1292 C1291 1.355 . S
C1292 C1294 1.419 . S
C1293 C1288 1.425 . S
C1293 C1290 1.409 . S
C1293 C1291 1.415 . S
C1294 H1284 0.930 . S
C1294 C1292 1.419 . S
C1294 C1295 1.362 . S
C1295 H1285 0.930 . S
C1295 C1288 1.409 . S
C1295 C1294 1.362 . S
H1296 C1302 0.930 . S
H1297 C1305 0.930 . S
H1298 C1306 0.930 . S
H1299 C1307 0.930 1_565 S
H1300 C1310 0.930 . S
H1301 C1311 0.930 . S
C1302 H1296 0.930 . S
C1302 C1303 1.355 . S
C1302 C1304 1.415 . S
C1303 C1302 1.355 . S
C1303 C1305 1.419 . S
C1304 C1302 1.415 . S
C1304 C1309 1.425 . S
C1304 C1311 1.409 . S
C1305 H1297 0.930 . S
C1305 C1303 1.419 . S
C1305 C1306 1.362 . S
C1306 H1298 0.930 . S
C1306 C1305 1.362 . S
C1306 C1309 1.409 . S
C1307 H1299 0.930 1_545 S
C1307 C1308 1.355 . S
C1307 C1309 1.415 . S
C1308 C1307 1.355 . S
C1308 C1310 1.419 . S
C1309 C1304 1.425 . S
C1309 C1306 1.409 . S
C1309 C1307 1.415 . S
C1310 H1300 0.930 . S
C1310 C1308 1.419 . S
C1310 C1311 1.362 . S
C1311 H1301 0.930 . S
C1311 C1304 1.409 . S
C1311 C1310 1.362 . S
H1312 C1318 0.930 . S
H1313 C1321 0.930 . S
H1314 C1322 0.930 . S
H1315 C1323 0.930 . S
H1316 C1326 0.930 . S
H1317 C1327 0.930 . S
C1318 H1312 0.930 . S
C1318 C1319 1.355 . S
C1318 C1320 1.415 . S
C1319 C1318 1.355 . S
C1319 C1321 1.419 . S
C1320 C1318 1.415 . S
C1320 C1325 1.425 . S
C1320 C1327 1.409 . S
C1321 H1313 0.930 . S
C1321 C1319 1.419 . S
C1321 C1322 1.362 . S
C1322 H1314 0.930 . S
C1322 C1321 1.362 . S
C1322 C1325 1.409 . S
C1323 H1315 0.930 . S
C1323 C1324 1.355 . S
C1323 C1325 1.415 . S
C1324 C1323 1.355 . S
C1324 C1326 1.419 . S
C1325 C1320 1.425 . S
C1325 C1322 1.409 . S
C1325 C1323 1.415 . S
C1326 H1316 0.930 . S
C1326 C1324 1.419 . S
C1326 C1327 1.362 . S
C1327 H1317 0.930 . S
C1327 C1320 1.409 . S
C1327 C1326 1.362 . S
H1328 C1334 0.930 . S
H1329 C1337 0.930 . S
H1330 C1338 0.930 . S
H1331 C1339 0.930 . S
H1332 C1342 0.930 . S
H1333 C1343 0.930 . S
C1334 H1328 0.930 . S
C1334 C1335 1.355 . S
C1334 C1336 1.415 . S
C1335 C1334 1.355 . S
C1335 C1337 1.419 . S
C1336 C1334 1.415 . S
C1336 C1341 1.425 . S
C1336 C1343 1.409 . S
C1337 H1329 0.930 . S
C1337 C1335 1.419 . S
C1337 C1338 1.362 . S
C1338 H1330 0.930 . S
C1338 C1337 1.362 . S
C1338 C1341 1.409 . S
C1339 H1331 0.930 . S
C1339 C1340 1.355 . S
C1339 C1341 1.415 . S
C1340 C1339 1.355 . S
C1340 C1342 1.419 . S
C1341 C1336 1.425 . S
C1341 C1338 1.409 . S
C1341 C1339 1.415 . S
C1342 H1332 0.930 . S
C1342 C1340 1.419 . S
C1342 C1343 1.362 . S
C1343 H1333 0.930 . S
C1343 C1336 1.409 . S
C1343 C1342 1.362 . S
H1344 C1350 0.930 . S
H1345 C1353 0.930 . S
H1346 C1354 0.930 . S
H1347 C1355 0.930 . S
H1348 C1358 0.930 . S
H1349 C1359 0.930 . S
C1350 H1344 0.930 . S
C1350 C1351 1.355 . S
C1350 C1352 1.415 . S
C1351 C1350 1.355 . S
C1351 C1353 1.419 . S
C1352 C1350 1.415 . S
C1352 C1357 1.425 . S
C1352 C1359 1.409 . S
C1353 H1345 0.930 . S
C1353 C1351 1.419 . S
C1353 C1354 1.362 . S
C1354 H1346 0.930 . S
C1354 C1353 1.362 . S
C1354 C1357 1.409 . S
C1355 H1347 0.930 . S
C1355 C1356 1.355 . S
C1355 C1357 1.415 . S
C1356 C1355 1.355 . S
C1356 C1358 1.419 . S
C1357 C1352 1.425 . S
C1357 C1354 1.409 . S
C1357 C1355 1.415 . S
C1358 H1348 0.930 . S
C1358 C1356 1.419 . S
C1358 C1359 1.362 . S
C1359 H1349 0.930 . S
C1359 C1352 1.409 . S
C1359 C1358 1.362 . S
H1360 C1366 0.930 . S
H1361 C1369 0.930 1_565 S
H1362 C1370 0.930 . S
H1363 C1371 0.930 . S
H1364 C1374 0.930 . S
H1365 C1375 0.930 . S
C1366 H1360 0.930 . S
C1366 C1367 1.355 . S
C1366 C1368 1.415 . S
C1367 C1366 1.355 . S
C1367 C1369 1.419 . S
C1368 C1366 1.415 . S
C1368 C1373 1.425 . S
C1368 C1375 1.409 . S
C1369 H1361 0.930 1_545 S
C1369 C1367 1.419 . S
C1369 C1370 1.362 . S
C1370 H1362 0.930 . S
C1370 C1369 1.362 . S
C1370 C1373 1.409 . S
C1371 H1363 0.930 . S
C1371 C1372 1.355 . S
C1371 C1373 1.415 . S
C1372 C1371 1.355 . S
C1372 C1374 1.419 . S
C1373 C1368 1.425 . S
C1373 C1370 1.409 . S
C1373 C1371 1.415 . S
C1374 H1364 0.930 . S
C1374 C1372 1.419 . S
C1374 C1375 1.362 . S
C1375 H1365 0.930 . S
C1375 C1368 1.409 . S
C1375 C1374 1.362 . S
H1376 C1382 0.930 . S
H1377 C1385 0.930 . S
H1378 C1386 0.930 . S
H1379 C1387 0.930 . S
H1380 C1390 0.930 . S
H1381 C1391 0.930 . S
C1382 H1376 0.930 . S
C1382 C1383 1.355 . S
C1382 C1384 1.415 . S
C1383 C1382 1.355 . S
C1383 C1385 1.419 . S
C1384 C1382 1.415 . S
C1384 C1389 1.425 . S
C1384 C1391 1.409 . S
C1385 H1377 0.930 . S
C1385 C1383 1.419 . S
C1385 C1386 1.362 . S
C1386 H1378 0.930 . S
C1386 C1385 1.362 . S
C1386 C1389 1.409 . S
C1387 H1379 0.930 . S
C1387 C1388 1.355 . S
C1387 C1389 1.415 . S
C1388 C1387 1.355 . S
C1388 C1390 1.419 . S
C1389 C1384 1.425 . S
C1389 C1386 1.409 . S
C1389 C1387 1.415 . S
C1390 H1380 0.930 . S
C1390 C1388 1.419 . S
C1390 C1391 1.362 . S
C1391 H1381 0.930 . S
C1391 C1384 1.409 . S
C1391 C1390 1.362 . S
H1392 C1398 0.930 . S
H1393 C1401 0.930 . S
H1394 C1402 0.930 . S
H1395 C1403 0.930 . S
H1396 C1406 0.929 1_545 S
H1397 C1407 0.930 . S
C1398 H1392 0.930 . S
C1398 C1399 1.355 . S
C1398 C1400 1.415 . S
C1399 C1398 1.355 . S
C1399 C1401 1.419 . S
C1400 C1398 1.415 . S
C1400 C1405 1.425 . S
C1400 C1407 1.409 . S
C1401 H1393 0.930 . S
C1401 C1399 1.419 . S
C1401 C1402 1.362 . S
C1402 H1394 0.930 . S
C1402 C1401 1.362 . S
C1402 C1405 1.409 . S
C1403 H1395 0.930 . S
C1403 C1404 1.355 . S
C1403 C1405 1.415 . S
C1404 C1403 1.355 . S
C1404 C1406 1.419 . S
C1405 C1400 1.425 . S
C1405 C1402 1.409 . S
C1405 C1403 1.415 . S
C1406 H1396 0.929 1_565 S
C1406 C1404 1.419 . S
C1406 C1407 1.363 . S
C1407 H1397 0.930 . S
C1407 C1400 1.409 . S
C1407 C1406 1.363 . S
H1408 C1414 0.930 . S
H1409 C1417 0.930 . S
H1410 C1418 0.930 . S
H1411 C1419 0.930 . S
H1412 C1422 0.930 . S
H1413 C1423 0.930 . S
C1414 H1408 0.930 . S
C1414 C1415 1.355 . S
C1414 C1416 1.415 . S
C1415 C1414 1.355 . S
C1415 C1417 1.419 . S
C1416 C1414 1.415 . S
C1416 C1421 1.425 . S
C1416 C1423 1.409 . S
C1417 H1409 0.930 . S
C1417 C1415 1.419 . S
C1417 C1418 1.362 . S
C1418 H1410 0.930 . S
C1418 C1417 1.362 . S
C1418 C1421 1.409 . S
C1419 H1411 0.930 . S
C1419 C1420 1.355 . S
C1419 C1421 1.415 . S
C1420 C1419 1.355 . S
C1420 C1422 1.419 . S
C1421 C1416 1.425 . S
C1421 C1418 1.409 . S
C1421 C1419 1.415 . S
C1422 H1412 0.930 . S
C1422 C1420 1.419 . S
C1422 C1423 1.362 . S
C1423 H1413 0.930 . S
C1423 C1416 1.409 . S
C1423 C1422 1.362 . S
H1424 C1430 0.930 . S
H1425 C1433 0.930 . S
H1426 C1434 0.930 . S
H1427 C1435 0.930 . S
H1428 C1438 0.930 . S
H1429 C1439 0.930 . S
C1430 H1424 0.930 . S
C1430 C1431 1.355 . S
C1430 C1432 1.415 . S
C1431 C1430 1.355 . S
C1431 C1433 1.419 . S
C1432 C1430 1.415 . S
C1432 C1437 1.425 . S
C1432 C1439 1.409 . S
C1433 H1425 0.930 . S
C1433 C1431 1.419 . S
C1433 C1434 1.362 . S
C1434 H1426 0.930 . S
C1434 C1433 1.362 . S
C1434 C1437 1.409 . S
C1435 H1427 0.930 . S
C1435 C1436 1.355 . S
C1435 C1437 1.415 . S
C1436 C1435 1.355 . S
C1436 C1438 1.419 . S
C1437 C1432 1.425 . S
C1437 C1434 1.409 . S
C1437 C1435 1.415 . S
C1438 H1428 0.930 . S
C1438 C1436 1.419 . S
C1438 C1439 1.362 . S
C1439 H1429 0.930 . S
C1439 C1432 1.409 . S
C1439 C1438 1.362 . S
H1440 C1446 0.930 . S
H1441 C1449 0.930 . S
H1442 C1450 0.930 . S
H1443 C1451 0.930 . S
H1444 C1454 0.930 . S
H1445 C1455 0.930 . S
C1446 H1440 0.930 . S
C1446 C1447 1.355 . S
C1446 C1448 1.415 . S
C1447 C1446 1.355 . S
C1447 C1449 1.419 . S
C1448 C1446 1.415 . S
C1448 C1453 1.425 . S
C1448 C1455 1.409 . S
C1449 H1441 0.930 . S
C1449 C1447 1.419 . S
C1449 C1450 1.362 . S
C1450 H1442 0.930 . S
C1450 C1449 1.362 . S
C1450 C1453 1.409 . S
C1451 H1443 0.930 . S
C1451 C1452 1.355 . S
C1451 C1453 1.415 . S
C1452 C1451 1.355 . S
C1452 C1454 1.419 . S
C1453 C1448 1.425 . S
C1453 C1450 1.409 . S
C1453 C1451 1.415 . S
C1454 H1444 0.930 . S
C1454 C1452 1.419 . S
C1454 C1455 1.362 . S
C1455 H1445 0.930 . S
C1455 C1448 1.409 . S
C1455 C1454 1.362 . S
H1456 C1462 0.930 . S
H1457 C1465 0.930 . S
H1458 C1466 0.930 . S
H1459 C1467 0.930 . S
H1460 C1470 0.930 . S
H1461 C1471 0.930 . S
C1462 H1456 0.930 . S
C1462 C1463 1.355 . S
C1462 C1464 1.415 . S
C1463 C1462 1.355 . S
C1463 C1465 1.419 . S
C1464 C1462 1.415 . S
C1464 C1469 1.425 . S
C1464 C1471 1.409 . S
C1465 H1457 0.930 . S
C1465 C1463 1.419 . S
C1465 C1466 1.362 . S
C1466 H1458 0.930 . S
C1466 C1465 1.362 . S
C1466 C1469 1.409 . S
C1467 H1459 0.930 . S
C1467 C1468 1.355 . S
C1467 C1469 1.415 . S
C1468 C1467 1.355 . S
C1468 C1470 1.419 . S
C1469 C1464 1.425 . S
C1469 C1466 1.409 . S
C1469 C1467 1.415 . S
C1470 H1460 0.930 . S
C1470 C1468 1.419 . S
C1470 C1471 1.362 . S
C1471 H1461 0.930 . S
C1471 C1464 1.409 . S
C1471 C1470 1.362 . S
H1472 C1478 0.930 . S
H1473 C1481 0.930 . S
H1474 C1482 0.930 . S
H1475 C1483 0.930 . S
H1476 C1486 0.930 . S
H1477 C1487 0.930 . S
C1478 H1472 0.930 . S
C1478 C1479 1.355 . S
C1478 C1480 1.415 . S
C1479 C1478 1.355 . S
C1479 C1481 1.419 . S
C1480 C1478 1.415 . S
C1480 C1485 1.425 . S
C1480 C1487 1.409 . S
C1481 H1473 0.930 . S
C1481 C1479 1.419 . S
C1481 C1482 1.362 . S
C1482 H1474 0.930 . S
C1482 C1481 1.362 . S
C1482 C1485 1.409 . S
C1483 H1475 0.930 . S
C1483 C1484 1.355 . S
C1483 C1485 1.415 . S
C1484 C1483 1.355 . S
C1484 C1486 1.419 . S
C1485 C1480 1.425 . S
C1485 C1482 1.409 . S
C1485 C1483 1.415 . S
C1486 H1476 0.930 . S
C1486 C1484 1.419 . S
C1486 C1487 1.362 . S
C1487 H1477 0.930 . S
C1487 C1480 1.409 . S
C1487 C1486 1.362 . S
H1488 C1494 0.930 . S
H1489 C1497 0.930 . S
H1490 C1498 0.930 . S
H1491 C1499 0.930 . S
H1492 C1502 0.930 . S
H1493 C1503 0.930 . S
C1494 H1488 0.930 . S
C1494 C1495 1.355 . S
C1494 C1496 1.415 . S
C1495 C1494 1.355 . S
C1495 C1497 1.419 . S
C1496 C1494 1.415 . S
C1496 C1501 1.425 . S
C1496 C1503 1.409 . S
C1497 H1489 0.930 . S
C1497 C1495 1.419 . S
C1497 C1498 1.362 . S
C1498 H1490 0.930 . S
C1498 C1497 1.362 . S
C1498 C1501 1.409 . S
C1499 H1491 0.930 . S
C1499 C1500 1.355 . S
C1499 C1501 1.415 . S
C1500 C1499 1.355 . S
C1500 C1502 1.419 . S
C1501 C1496 1.425 . S
C1501 C1498 1.409 . S
C1501 C1499 1.415 . S
C1502 H1492 0.930 . S
C1502 C1500 1.419 . S
C1502 C1503 1.362 . S
C1503 H1493 0.930 . S
C1503 C1496 1.409 . S
C1503 C1502 1.362 . S
H1504 C1510 0.930 . S
H1505 C1513 0.930 . S
H1506 C1514 0.930 . S
H1507 C1515 0.930 . S
H1508 C1518 0.930 . S
H1509 C1519 0.930 . S
C1510 H1504 0.930 . S
C1510 C1511 1.355 . S
C1510 C1512 1.415 . S
C1511 C1510 1.355 . S
C1511 C1513 1.419 . S
C1512 C1510 1.415 . S
C1512 C1517 1.425 . S
C1512 C1519 1.409 . S
C1513 H1505 0.930 . S
C1513 C1511 1.419 . S
C1513 C1514 1.362 . S
C1514 H1506 0.930 . S
C1514 C1513 1.362 . S
C1514 C1517 1.409 . S
C1515 H1507 0.930 . S
C1515 C1516 1.355 . S
C1515 C1517 1.415 . S
C1516 C1515 1.355 . S
C1516 C1518 1.419 . S
C1517 C1512 1.425 . S
C1517 C1514 1.409 . S
C1517 C1515 1.415 . S
C1518 H1508 0.930 . S
C1518 C1516 1.419 . S
C1518 C1519 1.362 . S
C1519 H1509 0.930 . S
C1519 C1512 1.409 . S
C1519 C1518 1.362 . S
H1520 C1526 0.930 . S
H1521 C1529 0.930 . S
H1522 C1530 0.930 . S
H1523 C1531 0.930 . S
H1524 C1534 0.930 . S
H1525 C1535 0.930 . S
C1526 H1520 0.930 . S
C1526 C1527 1.355 . S
C1526 C1528 1.415 . S
C1527 C1526 1.355 . S
C1527 C1529 1.419 . S
C1528 C1526 1.415 . S
C1528 C1533 1.425 . S
C1528 C1535 1.409 . S
C1529 H1521 0.930 . S
C1529 C1527 1.419 . S
C1529 C1530 1.362 . S
C1530 H1522 0.930 . S
C1530 C1529 1.362 . S
C1530 C1533 1.409 . S
C1531 H1523 0.930 . S
C1531 C1532 1.355 . S
C1531 C1533 1.415 . S
C1532 C1531 1.355 . S
C1532 C1534 1.419 . S
C1533 C1528 1.425 . S
C1533 C1530 1.409 . S
C1533 C1531 1.415 . S
C1534 H1524 0.930 . S
C1534 C1532 1.419 . S
C1534 C1535 1.362 . S
C1535 H1525 0.930 . S
C1535 C1528 1.409 . S
C1535 C1534 1.362 . S
H1536 C1542 0.930 . S
H1537 C1545 0.930 . S
H1538 C1546 0.930 . S
H1539 C1547 0.930 . S
H1540 C1550 0.930 . S
H1541 C1551 0.930 . S
C1542 H1536 0.930 . S
C1542 C1543 1.355 . S
C1542 C1544 1.415 . S
C1543 C1542 1.355 . S
C1543 C1545 1.419 . S
C1544 C1542 1.415 . S
C1544 C1549 1.425 . S
C1544 C1551 1.409 . S
C1545 H1537 0.930 . S
C1545 C1543 1.419 . S
C1545 C1546 1.362 . S
C1546 H1538 0.930 . S
C1546 C1545 1.362 . S
C1546 C1549 1.409 . S
C1547 H1539 0.930 . S
C1547 C1548 1.355 . S
C1547 C1549 1.415 . S
C1548 C1547 1.355 . S
C1548 C1550 1.419 . S
C1549 C1544 1.425 . S
C1549 C1546 1.409 . S
C1549 C1547 1.415 . S
C1550 H1540 0.930 . S
C1550 C1548 1.419 . S
C1550 C1551 1.362 . S
C1551 H1541 0.930 . S
C1551 C1544 1.409 . S
C1551 C1550 1.362 . S
H1552 C1558 0.930 . S
H1553 C1561 0.930 . S
H1554 C1562 0.930 . S
H1555 C1563 0.930 . S
H1556 C1566 0.930 . S
H1557 C1567 0.930 . S
C1558 H1552 0.930 . S
C1558 C1559 1.355 . S
C1558 C1560 1.415 . S
C1559 C1558 1.355 . S
C1559 C1561 1.419 . S
C1560 C1558 1.415 . S
C1560 C1565 1.425 . S
C1560 C1567 1.409 . S
C1561 H1553 0.930 . S
C1561 C1559 1.419 . S
C1561 C1562 1.362 . S
C1562 H1554 0.930 . S
C1562 C1561 1.362 . S
C1562 C1565 1.409 . S
C1563 H1555 0.930 . S
C1563 C1564 1.355 . S
C1563 C1565 1.415 . S
C1564 C1563 1.355 . S
C1564 C1566 1.419 . S
C1565 C1560 1.425 . S
C1565 C1562 1.409 . S
C1565 C1563 1.415 . S
C1566 H1556 0.930 . S
C1566 C1564 1.419 . S
C1566 C1567 1.362 . S
C1567 H1557 0.930 . S
C1567 C1560 1.409 . S
C1567 C1566 1.362 . S
H1568 C1574 0.930 . S
H1569 C1577 0.930 . S
H1570 C1578 0.930 . S
H1571 C1579 0.930 . S
H1572 C1582 0.930 . S
H1573 C1583 0.930 . S
C1574 H1568 0.930 . S
C1574 C1575 1.355 . S
C1574 C1576 1.415 . S
C1575 C1574 1.355 . S
C1575 C1577 1.419 . S
C1576 C1574 1.415 . S
C1576 C1581 1.425 . S
C1576 C1583 1.409 . S
C1577 H1569 0.930 . S
C1577 C1575 1.419 . S
C1577 C1578 1.362 . S
C1578 H1570 0.930 . S
C1578 C1577 1.362 . S
C1578 C1581 1.409 . S
C1579 H1571 0.930 . S
C1579 C1580 1.355 . S
C1579 C1581 1.415 . S
C1580 C1579 1.355 . S
C1580 C1582 1.419 . S
C1581 C1576 1.425 . S
C1581 C1578 1.409 . S
C1581 C1579 1.415 . S
C1582 H1572 0.930 . S
C1582 C1580 1.419 . S
C1582 C1583 1.362 . S
C1583 H1573 0.930 . S
C1583 C1576 1.409 . S
C1583 C1582 1.362 . S
H1584 C1590 0.930 . S
H1585 C1593 0.930 . S
H1586 C1594 0.930 . S
H1587 C1595 0.930 . S
H1588 C1598 0.930 . S
H1589 C1599 0.930 . S
C1590 H1584 0.930 . S
C1590 C1591 1.355 . S
C1590 C1592 1.415 . S
C1591 C1590 1.355 . S
C1591 C1593 1.419 . S
C1592 C1590 1.415 . S
C1592 C1597 1.425 . S
C1592 C1599 1.409 . S
C1593 H1585 0.930 . S
C1593 C1591 1.419 . S
C1593 C1594 1.362 . S
C1594 H1586 0.930 . S
C1594 C1593 1.362 . S
C1594 C1597 1.409 . S
C1595 H1587 0.930 . S
C1595 C1596 1.355 . S
C1595 C1597 1.415 . S
C1596 C1595 1.355 . S
C1596 C1598 1.419 . S
C1597 C1592 1.425 . S
C1597 C1594 1.409 . S
C1597 C1595 1.415 . S
C1598 H1588 0.930 . S
C1598 C1596 1.419 . S
C1598 C1599 1.362 . S
C1599 H1589 0.930 . S
C1599 C1592 1.409 . S
C1599 C1598 1.362 . S
H1600 C1606 0.930 . S
H1601 C1609 0.930 . S
H1602 C1610 0.930 . S
H1603 C1611 0.930 . S
H1604 C1614 0.930 . S
H1605 C1615 0.930 . S
C1606 H1600 0.930 . S
C1606 C1607 1.355 . S
C1606 C1608 1.415 . S
C1607 C1606 1.355 . S
C1607 C1609 1.419 . S
C1608 C1606 1.415 . S
C1608 C1613 1.425 . S
C1608 C1615 1.409 . S
C1609 H1601 0.930 . S
C1609 C1607 1.419 . S
C1609 C1610 1.362 . S
C1610 H1602 0.930 . S
C1610 C1609 1.362 . S
C1610 C1613 1.409 . S
C1611 H1603 0.930 . S
C1611 C1612 1.355 . S
C1611 C1613 1.415 . S
C1612 C1611 1.355 . S
C1612 C1614 1.419 . S
C1613 C1608 1.425 . S
C1613 C1610 1.409 . S
C1613 C1611 1.415 . S
C1614 H1604 0.930 . S
C1614 C1612 1.419 . S
C1614 C1615 1.362 . S
C1615 H1605 0.930 . S
C1615 C1608 1.409 . S
C1615 C1614 1.362 . S
H1616 C1622 0.930 . S
H1617 C1625 0.930 . S
H1618 C1626 0.930 . S
H1619 C1627 0.930 . S
H1620 C1630 0.930 . S
H1621 C1631 0.930 . S
C1622 H1616 0.930 . S
C1622 C1623 1.355 . S
C1622 C1624 1.415 . S
C1623 C1622 1.355 . S
C1623 C1625 1.419 . S
C1624 C1622 1.415 . S
C1624 C1629 1.425 . S
C1624 C1631 1.409 . S
C1625 H1617 0.930 . S
C1625 C1623 1.419 . S
C1625 C1626 1.362 . S
C1626 H1618 0.930 . S
C1626 C1625 1.362 . S
C1626 C1629 1.409 . S
C1627 H1619 0.930 . S
C1627 C1628 1.355 . S
C1627 C1629 1.415 . S
C1628 C1627 1.355 . S
C1628 C1630 1.419 . S
C1629 C1624 1.425 . S
C1629 C1626 1.409 . S
C1629 C1627 1.415 . S
C1630 H1620 0.930 . S
C1630 C1628 1.419 . S
C1630 C1631 1.362 . S
C1631 H1621 0.930 . S
C1631 C1624 1.409 . S
C1631 C1630 1.362 . S
H1632 C1638 0.930 . S
H1633 C1641 0.930 . S
H1634 C1642 0.930 . S
H1635 C1643 0.930 . S
H1636 C1646 0.930 . S
H1637 C1647 0.930 . S
C1638 H1632 0.930 . S
C1638 C1639 1.355 . S
C1638 C1640 1.415 . S
C1639 C1638 1.355 . S
C1639 C1641 1.419 . S
C1640 C1638 1.415 . S
C1640 C1645 1.425 . S
C1640 C1647 1.409 . S
C1641 H1633 0.930 . S
C1641 C1639 1.419 . S
C1641 C1642 1.362 . S
C1642 H1634 0.930 . S
C1642 C1641 1.362 . S
C1642 C1645 1.409 . S
C1643 H1635 0.930 . S
C1643 C1644 1.355 . S
C1643 C1645 1.415 . S
C1644 C1643 1.355 . S
C1644 C1646 1.419 . S
C1645 C1640 1.425 . S
C1645 C1642 1.409 . S
C1645 C1643 1.415 . S
C1646 H1636 0.930 . S
C1646 C1644 1.419 . S
C1646 C1647 1.362 . S
C1647 H1637 0.930 . S
C1647 C1640 1.409 . S
C1647 C1646 1.362 . S
H1648 C1654 0.930 . S
H1649 C1657 0.930 . S
H1650 C1658 0.930 . S
H1651 C1659 0.930 . S
H1652 C1662 0.930 . S
H1653 C1663 0.930 . S
C1654 H1648 0.930 . S
C1654 C1655 1.355 . S
C1654 C1656 1.415 . S
C1655 C1654 1.355 . S
C1655 C1657 1.419 . S
C1656 C1654 1.415 . S
C1656 C1661 1.425 . S
C1656 C1663 1.409 . S
C1657 H1649 0.930 . S
C1657 C1655 1.419 . S
C1657 C1658 1.362 . S
C1658 H1650 0.930 . S
C1658 C1657 1.362 . S
C1658 C1661 1.409 . S
C1659 H1651 0.930 . S
C1659 C1660 1.355 . S
C1659 C1661 1.415 . S
C1660 C1659 1.355 . S
C1660 C1662 1.419 . S
C1661 C1656 1.425 . S
C1661 C1658 1.409 . S
C1661 C1659 1.415 . S
C1662 H1652 0.930 . S
C1662 C1660 1.419 . S
C1662 C1663 1.362 . S
C1663 H1653 0.930 . S
C1663 C1656 1.409 . S
C1663 C1662 1.362 . S
H1664 C1670 0.930 . S
H1665 C1673 0.930 . S
H1666 C1674 0.930 . S
H1667 C1675 0.930 . S
H1668 C1678 0.930 . S
H1669 C1679 0.930 . S
C1670 H1664 0.930 . S
C1670 C1671 1.355 . S
C1670 C1672 1.415 . S
C1671 C1670 1.355 . S
C1671 C1673 1.419 . S
C1672 C1670 1.415 . S
C1672 C1677 1.425 . S
C1672 C1679 1.409 . S
C1673 H1665 0.930 . S
C1673 C1671 1.419 . S
C1673 C1674 1.362 . S
C1674 H1666 0.930 . S
C1674 C1673 1.362 . S
C1674 C1677 1.409 . S
C1675 H1667 0.930 . S
C1675 C1676 1.355 . S
C1675 C1677 1.415 . S
C1676 C1675 1.355 . S
C1676 C1678 1.419 . S
C1677 C1672 1.425 . S
C1677 C1674 1.409 . S
C1677 C1675 1.415 . S
C1678 H1668 0.930 . S
C1678 C1676 1.419 . S
C1678 C1679 1.362 . S
C1679 H1669 0.930 . S
C1679 C1672 1.409 . S
C1679 C1678 1.362 . S
H1680 C1686 0.930 . S
H1681 C1689 0.930 . S
H1682 C1690 0.930 . S
H1683 C1691 0.930 . S
H1684 C1694 0.930 . S
H1685 C1695 0.930 . S
C1686 H1680 0.930 . S
C1686 C1687 1.355 . S
C1686 C1688 1.415 . S
C1687 C1686 1.355 . S
C1687 C1689 1.419 . S
C1688 C1686 1.415 . S
C1688 C1693 1.425 . S
C1688 C1695 1.409 . S
C1689 H1681 0.930 . S
C1689 C1687 1.419 . S
C1689 C1690 1.362 . S
C1690 H1682 0.930 . S
C1690 C1689 1.362 . S
C1690 C1693 1.409 . S
C1691 H1683 0.930 . S
C1691 C1692 1.355 . S
C1691 C1693 1.415 . S
C1692 C1691 1.355 . S
C1692 C1694 1.419 . S
C1693 C1688 1.425 . S
C1693 C1690 1.409 . S
C1693 C1691 1.415 . S
C1694 H1684 0.930 . S
C1694 C1692 1.419 . S
C1694 C1695 1.362 . S
C1695 H1685 0.930 . S
C1695 C1688 1.409 . S
C1695 C1694 1.362 . S
H1696 C1702 0.930 . S
H1697 C1705 0.930 . S
H1698 C1706 0.930 . S
H1699 C1707 0.930 . S
H1700 C1710 0.930 . S
H1701 C1711 0.930 . S
C1702 H1696 0.930 . S
C1702 C1703 1.355 . S
C1702 C1704 1.415 . S
C1703 C1702 1.355 . S
C1703 C1705 1.419 . S
C1704 C1702 1.415 . S
C1704 C1709 1.425 . S
C1704 C1711 1.409 . S
C1705 H1697 0.930 . S
C1705 C1703 1.419 . S
C1705 C1706 1.362 . S
C1706 H1698 0.930 . S
C1706 C1705 1.362 . S
C1706 C1709 1.409 . S
C1707 H1699 0.930 . S
C1707 C1708 1.355 . S
C1707 C1709 1.415 . S
C1708 C1707 1.355 . S
C1708 C1710 1.419 . S
C1709 C1704 1.425 . S
C1709 C1706 1.409 . S
C1709 C1707 1.415 . S
C1710 H1700 0.930 . S
C1710 C1708 1.419 . S
C1710 C1711 1.362 . S
C1711 H1701 0.930 . S
C1711 C1704 1.409 . S
C1711 C1710 1.362 . S
H1712 C1718 0.930 . S
H1713 C1721 0.930 . S
H1714 C1722 0.930 . S
H1715 C1723 0.930 . S
H1716 C1726 0.930 . S
H1717 C1727 0.930 . S
C1718 H1712 0.930 . S
C1718 C1719 1.355 . S
C1718 C1720 1.415 . S
C1719 C1718 1.355 . S
C1719 C1721 1.419 . S
C1720 C1718 1.415 . S
C1720 C1725 1.425 . S
C1720 C1727 1.409 . S
C1721 H1713 0.930 . S
C1721 C1719 1.419 . S
C1721 C1722 1.362 . S
C1722 H1714 0.930 . S
C1722 C1721 1.362 . S
C1722 C1725 1.409 . S
C1723 H1715 0.930 . S
C1723 C1724 1.355 . S
C1723 C1725 1.415 . S
C1724 C1723 1.355 . S
C1724 C1726 1.419 . S
C1725 C1720 1.425 . S
C1725 C1722 1.409 . S
C1725 C1723 1.415 . S
C1726 H1716 0.930 . S
C1726 C1724 1.419 . S
C1726 C1727 1.362 . S
C1727 H1717 0.930 . S
C1727 C1720 1.409 . S
C1727 C1726 1.362 . S
H1728 C1734 0.930 . S
H1729 C1737 0.930 . S
H1730 C1738 0.930 . S
H1731 C1739 0.930 . S
H1732 C1742 0.930 . S
H1733 C1743 0.930 . S
C1734 H1728 0.930 . S
C1734 C1735 1.355 . S
C1734 C1736 1.415 . S
C1735 C1734 1.355 . S
C1735 C1737 1.419 . S
C1736 C1734 1.415 . S
C1736 C1741 1.425 . S
C1736 C1743 1.409 . S
C1737 H1729 0.930 . S
C1737 C1735 1.419 . S
C1737 C1738 1.362 . S
C1738 H1730 0.930 . S
C1738 C1737 1.362 . S
C1738 C1741 1.409 . S
C1739 H1731 0.930 . S
C1739 C1740 1.355 . S
C1739 C1741 1.415 . S
C1740 C1739 1.355 . S
C1740 C1742 1.419 . S
C1741 C1736 1.425 . S
C1741 C1738 1.409 . S
C1741 C1739 1.415 . S
C1742 H1732 0.930 . S
C1742 C1740 1.419 . S
C1742 C1743 1.362 . S
C1743 H1733 0.930 . S
C1743 C1736 1.409 . S
C1743 C1742 1.362 . S
H1744 C1750 0.930 . S
H1745 C1753 0.930 . S
H1746 C1754 0.930 . S
H1747 C1755 0.930 . S
H1748 C1758 0.930 . S
H1749 C1759 0.930 . S
C1750 H1744 0.930 . S
C1750 C1751 1.355 . S
C1750 C1752 1.415 . S
C1751 C1750 1.355 . S
C1751 C1753 1.419 . S
C1752 C1750 1.415 . S
C1752 C1757 1.425 . S
C1752 C1759 1.409 . S
C1753 H1745 0.930 . S
C1753 C1751 1.419 . S
C1753 C1754 1.362 . S
C1754 H1746 0.930 . S
C1754 C1753 1.362 . S
C1754 C1757 1.409 . S
C1755 H1747 0.930 . S
C1755 C1756 1.355 . S
C1755 C1757 1.415 . S
C1756 C1755 1.355 . S
C1756 C1758 1.419 . S
C1757 C1752 1.425 . S
C1757 C1754 1.409 . S
C1757 C1755 1.415 . S
C1758 H1748 0.930 . S
C1758 C1756 1.419 . S
C1758 C1759 1.362 . S
C1759 H1749 0.930 . S
C1759 C1752 1.409 . S
C1759 C1758 1.362 . S
H1760 C1766 0.930 . S
H1761 C1769 0.930 . S
H1762 C1770 0.930 . S
H1763 C1771 0.930 . S
H1764 C1774 0.930 . S
H1765 C1775 0.930 . S
C1766 H1760 0.930 . S
C1766 C1767 1.355 . S
C1766 C1768 1.415 . S
C1767 C1766 1.355 . S
C1767 C1769 1.419 . S
C1768 C1766 1.415 . S
C1768 C1773 1.425 . S
C1768 C1775 1.409 . S
C1769 H1761 0.930 . S
C1769 C1767 1.419 . S
C1769 C1770 1.362 . S
C1770 H1762 0.930 . S
C1770 C1769 1.362 . S
C1770 C1773 1.409 . S
C1771 H1763 0.930 . S
C1771 C1772 1.355 . S
C1771 C1773 1.415 . S
C1772 C1771 1.355 . S
C1772 C1774 1.419 . S
C1773 C1768 1.425 . S
C1773 C1770 1.409 . S
C1773 C1771 1.415 . S
C1774 H1764 0.930 . S
C1774 C1772 1.419 . S
C1774 C1775 1.362 . S
C1775 H1765 0.930 . S
C1775 C1768 1.409 . S
C1775 C1774 1.362 . S
H1776 C1782 0.930 . S
H1777 C1785 0.930 . S
H1778 C1786 0.930 . S
H1779 C1787 0.930 . S
H1780 C1790 0.930 . S
H1781 C1791 0.930 . S
C1782 H1776 0.930 . S
C1782 C1783 1.355 . S
C1782 C1784 1.415 . S
C1783 C1782 1.355 . S
C1783 C1785 1.419 . S
C1784 C1782 1.415 . S
C1784 C1789 1.425 . S
C1784 C1791 1.409 . S
C1785 H1777 0.930 . S
C1785 C1783 1.419 . S
C1785 C1786 1.362 . S
C1786 H1778 0.930 . S
C1786 C1785 1.362 . S
C1786 C1789 1.409 . S
C1787 H1779 0.930 . S
C1787 C1788 1.355 . S
C1787 C1789 1.415 . S
C1788 C1787 1.355 . S
C1788 C1790 1.419 . S
C1789 C1784 1.425 . S
C1789 C1786 1.409 . S
C1789 C1787 1.415 . S
C1790 H1780 0.930 . S
C1790 C1788 1.419 . S
C1790 C1791 1.362 . S
C1791 H1781 0.930 . S
C1791 C1784 1.409 . S
C1791 C1790 1.362 . S
H1792 C1798 0.930 . S
H1793 C1801 0.930 . S
H1794 C1802 0.930 . S
H1795 C1803 0.930 . S
H1796 C1806 0.930 . S
H1797 C1807 0.930 . S
C1798 H1792 0.930 . S
C1798 C1799 1.355 . S
C1798 C1800 1.415 . S
C1799 C1798 1.355 . S
C1799 C1801 1.419 . S
C1800 C1798 1.415 . S
C1800 C1805 1.425 . S
C1800 C1807 1.409 . S
C1801 H1793 0.930 . S
C1801 C1799 1.419 . S
C1801 C1802 1.362 . S
C1802 H1794 0.930 . S
C1802 C1801 1.362 . S
C1802 C1805 1.409 . S
C1803 H1795 0.930 . S
C1803 C1804 1.355 . S
C1803 C1805 1.415 . S
C1804 C1803 1.355 . S
C1804 C1806 1.419 . S
C1805 C1800 1.425 . S
C1805 C1802 1.409 . S
C1805 C1803 1.415 . S
C1806 H1796 0.930 . S
C1806 C1804 1.419 . S
C1806 C1807 1.362 . S
C1807 H1797 0.930 . S
C1807 C1800 1.409 . S
C1807 C1806 1.362 . S
H1808 C1814 0.930 . S
H1809 C1817 0.930 . S
H1810 C1818 0.930 . S
H1811 C1819 0.930 . S
H1812 C1822 0.930 1_655 S
H1813 C1823 0.930 . S
C1814 H1808 0.930 . S
C1814 C1815 1.355 . S
C1814 C1816 1.415 . S
C1815 C1814 1.355 . S
C1815 C1817 1.419 . S
C1816 C1814 1.415 . S
C1816 C1821 1.425 . S
C1816 C1823 1.409 . S
C1817 H1809 0.930 . S
C1817 C1815 1.419 . S
C1817 C1818 1.362 . S
C1818 H1810 0.930 . S
C1818 C1817 1.362 . S
C1818 C1821 1.409 . S
C1819 H1811 0.930 . S
C1819 C1820 1.355 . S
C1819 C1821 1.415 . S
C1820 C1819 1.355 . S
C1820 C1822 1.419 . S
C1821 C1816 1.425 . S
C1821 C1818 1.409 . S
C1821 C1819 1.415 . S
C1822 H1812 0.930 1_455 S
C1822 C1820 1.419 . S
C1822 C1823 1.362 . S
C1823 H1813 0.930 . S
C1823 C1816 1.409 . S
C1823 C1822 1.362 . S
H1824 C1830 0.930 . S
H1825 C1833 0.930 . S
H1826 C1834 0.930 . S
H1827 C1835 0.930 . S
H1828 C1838 0.930 . S
H1829 C1839 0.930 . S
C1830 H1824 0.930 . S
C1830 C1831 1.355 . S
C1830 C1832 1.415 . S
C1831 C1830 1.355 . S
C1831 C1833 1.419 . S
C1832 C1830 1.415 . S
C1832 C1837 1.425 . S
C1832 C1839 1.409 . S
C1833 H1825 0.930 . S
C1833 C1831 1.419 . S
C1833 C1834 1.362 . S
C1834 H1826 0.930 . S
C1834 C1833 1.362 . S
C1834 C1837 1.409 . S
C1835 H1827 0.930 . S
C1835 C1836 1.355 . S
C1835 C1837 1.415 . S
C1836 C1835 1.355 . S
C1836 C1838 1.419 . S
C1837 C1832 1.425 . S
C1837 C1834 1.409 . S
C1837 C1835 1.415 . S
C1838 H1828 0.930 . S
C1838 C1836 1.419 . S
C1838 C1839 1.362 . S
C1839 H1829 0.930 . S
C1839 C1832 1.409 . S
C1839 C1838 1.362 . S
H1840 C1846 0.930 . S
H1841 C1849 0.930 . S
H1842 C1850 0.930 . S
H1843 C1851 0.930 . S
H1844 C1854 0.930 . S
H1845 C1855 0.930 . S
C1846 H1840 0.930 . S
C1846 C1847 1.355 . S
C1846 C1848 1.415 . S
C1847 C1846 1.355 . S
C1847 C1849 1.419 . S
C1848 C1846 1.415 . S
C1848 C1853 1.425 . S
C1848 C1855 1.409 . S
C1849 H1841 0.930 . S
C1849 C1847 1.419 . S
C1849 C1850 1.362 . S
C1850 H1842 0.930 . S
C1850 C1849 1.362 . S
C1850 C1853 1.409 . S
C1851 H1843 0.930 . S
C1851 C1852 1.355 . S
C1851 C1853 1.415 . S
C1852 C1851 1.355 . S
C1852 C1854 1.419 . S
C1853 C1848 1.425 . S
C1853 C1850 1.409 . S
C1853 C1851 1.415 . S
C1854 H1844 0.930 . S
C1854 C1852 1.419 . S
C1854 C1855 1.362 . S
C1855 H1845 0.930 . S
C1855 C1848 1.409 . S
C1855 C1854 1.362 . S
H1856 C1862 0.930 . S
H1857 C1865 0.930 . S
H1858 C1866 0.930 . S
H1859 C1867 0.930 . S
H1860 C1870 0.930 . S
H1861 C1871 0.930 . S
C1862 H1856 0.930 . S
C1862 C1863 1.355 . S
C1862 C1864 1.415 . S
C1863 C1862 1.355 . S
C1863 C1865 1.419 . S
C1864 C1862 1.415 . S
C1864 C1869 1.425 . S
C1864 C1871 1.409 . S
C1865 H1857 0.930 . S
C1865 C1863 1.419 . S
C1865 C1866 1.362 . S
C1866 H1858 0.930 . S
C1866 C1865 1.362 . S
C1866 C1869 1.409 . S
C1867 H1859 0.930 . S
C1867 C1868 1.355 . S
C1867 C1869 1.415 . S
C1868 C1867 1.355 . S
C1868 C1870 1.419 . S
C1869 C1864 1.425 . S
C1869 C1866 1.409 . S
C1869 C1867 1.415 . S
C1870 H1860 0.930 . S
C1870 C1868 1.419 . S
C1870 C1871 1.362 . S
C1871 H1861 0.930 . S
C1871 C1864 1.409 . S
C1871 C1870 1.362 . S
H1872 C1878 0.930 . S
H1873 C1881 0.930 . S
H1874 C1882 0.930 . S
H1875 C1883 0.930 . S
H1876 C1886 0.930 . S
H1877 C1887 0.930 . S
C1878 H1872 0.930 . S
C1878 C1879 1.355 . S
C1878 C1880 1.415 . S
C1879 C1878 1.355 . S
C1879 C1881 1.419 . S
C1880 C1878 1.415 . S
C1880 C1885 1.425 . S
C1880 C1887 1.409 . S
C1881 H1873 0.930 . S
C1881 C1879 1.419 . S
C1881 C1882 1.362 . S
C1882 H1874 0.930 . S
C1882 C1881 1.362 . S
C1882 C1885 1.409 . S
C1883 H1875 0.930 . S
C1883 C1884 1.355 . S
C1883 C1885 1.415 . S
C1884 C1883 1.355 . S
C1884 C1886 1.419 . S
C1885 C1880 1.425 . S
C1885 C1882 1.409 . S
C1885 C1883 1.415 . S
C1886 H1876 0.930 . S
C1886 C1884 1.419 . S
C1886 C1887 1.362 . S
C1887 H1877 0.930 . S
C1887 C1880 1.409 . S
C1887 C1886 1.362 . S
H1888 C1894 0.930 . S
H1889 C1897 0.930 . S
H1890 C1898 0.930 . S
H1891 C1899 0.930 . S
H1892 C1902 0.930 . S
H1893 C1903 0.930 . S
C1894 H1888 0.930 . S
C1894 C1895 1.355 . S
C1894 C1896 1.415 . S
C1895 C1894 1.355 . S
C1895 C1897 1.419 . S
C1896 C1894 1.415 . S
C1896 C1901 1.425 . S
C1896 C1903 1.409 . S
C1897 H1889 0.930 . S
C1897 C1895 1.419 . S
C1897 C1898 1.362 . S
C1898 H1890 0.930 . S
C1898 C1897 1.362 . S
C1898 C1901 1.409 . S
C1899 H1891 0.930 . S
C1899 C1900 1.355 . S
C1899 C1901 1.415 . S
C1900 C1899 1.355 . S
C1900 C1902 1.419 . S
C1901 C1896 1.425 . S
C1901 C1898 1.409 . S
C1901 C1899 1.415 . S
C1902 H1892 0.930 . S
C1902 C1900 1.419 . S
C1902 C1903 1.362 . S
C1903 H1893 0.930 . S
C1903 C1896 1.409 . S
C1903 C1902 1.362 . S
H1904 C1910 0.930 . S
H1905 C1913 0.930 . S
H1906 C1914 0.930 . S
H1907 C1915 0.930 . S
H1908 C1918 0.930 . S
H1909 C1919 0.930 . S
C1910 H1904 0.930 . S
C1910 C1911 1.355 . S
C1910 C1912 1.415 . S
C1911 C1910 1.355 . S
C1911 C1913 1.419 . S
C1912 C1910 1.415 . S
C1912 C1917 1.425 . S
C1912 C1919 1.409 . S
C1913 H1905 0.930 . S
C1913 C1911 1.419 . S
C1913 C1914 1.362 . S
C1914 H1906 0.930 . S
C1914 C1913 1.362 . S
C1914 C1917 1.409 . S
C1915 H1907 0.930 . S
C1915 C1916 1.355 . S
C1915 C1917 1.415 . S
C1916 C1915 1.355 . S
C1916 C1918 1.419 . S
C1917 C1912 1.425 . S
C1917 C1914 1.409 . S
C1917 C1915 1.415 . S
C1918 H1908 0.930 . S
C1918 C1916 1.419 . S
C1918 C1919 1.362 . S
C1919 H1909 0.930 . S
C1919 C1912 1.409 . S
C1919 C1918 1.362 . S
H1920 C1926 0.930 . S
H1921 C1929 0.930 . S
H1922 C1930 0.930 . S
H1923 C1931 0.930 . S
H1924 C1934 0.930 . S
H1925 C1935 0.930 . S
C1926 H1920 0.930 . S
C1926 C1927 1.355 . S
C1926 C1928 1.415 . S
C1927 C1926 1.355 . S
C1927 C1929 1.419 . S
C1928 C1926 1.415 . S
C1928 C1933 1.425 . S
C1928 C1935 1.409 . S
C1929 H1921 0.930 . S
C1929 C1927 1.419 . S
C1929 C1930 1.362 . S
C1930 H1922 0.930 . S
C1930 C1929 1.362 . S
C1930 C1933 1.409 . S
C1931 H1923 0.930 . S
C1931 C1932 1.355 . S
C1931 C1933 1.415 . S
C1932 C1931 1.355 . S
C1932 C1934 1.419 . S
C1933 C1928 1.425 . S
C1933 C1930 1.409 . S
C1933 C1931 1.415 . S
C1934 H1924 0.930 . S
C1934 C1932 1.419 . S
C1934 C1935 1.362 . S
C1935 H1925 0.930 . S
C1935 C1928 1.409 . S
C1935 C1934 1.362 . S
H1936 C1942 0.930 . S
H1937 C1945 0.930 1_455 S
H1938 C1946 0.930 . S
H1939 C1947 0.930 . S
H1940 C1950 0.930 . S
H1941 C1951 0.930 . S
C1942 H1936 0.930 . S
C1942 C1943 1.355 . S
C1942 C1944 1.415 . S
C1943 C1942 1.355 . S
C1943 C1945 1.419 . S
C1944 C1942 1.415 . S
C1944 C1949 1.425 . S
C1944 C1951 1.409 . S
C1945 H1937 0.930 1_655 S
C1945 C1943 1.419 . S
C1945 C1946 1.362 . S
C1946 H1938 0.930 . S
C1946 C1945 1.362 . S
C1946 C1949 1.409 . S
C1947 H1939 0.930 . S
C1947 C1948 1.355 . S
C1947 C1949 1.415 . S
C1948 C1947 1.355 . S
C1948 C1950 1.419 . S
C1949 C1944 1.425 . S
C1949 C1946 1.409 . S
C1949 C1947 1.415 . S
C1950 H1940 0.930 . S
C1950 C1948 1.419 . S
C1950 C1951 1.362 . S
C1951 H1941 0.930 . S
C1951 C1944 1.409 . S
C1951 C1950 1.362 . S
H1952 C1958 0.930 . S
H1953 C1961 0.930 . S
H1954 C1962 0.930 . S
H1955 C1963 0.930 . S
H1956 C1966 0.930 . S
H1957 C1967 0.930 . S
C1958 H1952 0.930 . S
C1958 C1959 1.355 . S
C1958 C1960 1.415 . S
C1959 C1958 1.355 . S
C1959 C1961 1.419 . S
C1960 C1958 1.415 . S
C1960 C1965 1.425 . S
C1960 C1967 1.409 . S
C1961 H1953 0.930 . S
C1961 C1959 1.419 . S
C1961 C1962 1.362 . S
C1962 H1954 0.930 . S
C1962 C1961 1.362 . S
C1962 C1965 1.409 . S
C1963 H1955 0.930 . S
C1963 C1964 1.355 . S
C1963 C1965 1.415 . S
C1964 C1963 1.355 . S
C1964 C1966 1.419 . S
C1965 C1960 1.425 . S
C1965 C1962 1.409 . S
C1965 C1963 1.415 . S
C1966 H1956 0.930 . S
C1966 C1964 1.419 . S
C1966 C1967 1.362 . S
C1967 H1957 0.930 . S
C1967 C1960 1.409 . S
C1967 C1966 1.362 . S
H1968 C1974 0.930 . S
H1969 C1977 0.930 . S
H1970 C1978 0.930 . S
H1971 C1979 0.930 . S
H1972 C1982 0.930 . S
H1973 C1983 0.930 . S
C1974 H1968 0.930 . S
C1974 C1975 1.355 . S
C1974 C1976 1.415 . S
C1975 C1974 1.355 . S
C1975 C1977 1.419 . S
C1976 C1974 1.415 . S
C1976 C1981 1.425 . S
C1976 C1983 1.409 . S
C1977 H1969 0.930 . S
C1977 C1975 1.419 . S
C1977 C1978 1.362 . S
C1978 H1970 0.930 . S
C1978 C1977 1.362 . S
C1978 C1981 1.409 . S
C1979 H1971 0.930 . S
C1979 C1980 1.355 . S
C1979 C1981 1.415 . S
C1980 C1979 1.355 . S
C1980 C1982 1.419 . S
C1981 C1976 1.425 . S
C1981 C1978 1.409 . S
C1981 C1979 1.415 . S
C1982 H1972 0.930 . S
C1982 C1980 1.419 . S
C1982 C1983 1.362 . S
C1983 H1973 0.930 . S
C1983 C1976 1.409 . S
C1983 C1982 1.362 . S
H1984 C1990 0.930 . S
H1985 C1993 0.930 . S
H1986 C1994 0.930 . S
H1987 C1995 0.930 . S
H1988 C1998 0.930 . S
H1989 C1999 0.930 . S
C1990 H1984 0.930 . S
C1990 C1991 1.355 . S
C1990 C1992 1.415 . S
C1991 C1990 1.355 . S
C1991 C1993 1.419 . S
C1992 C1990 1.415 . S
C1992 C1997 1.425 . S
C1992 C1999 1.409 . S
C1993 H1985 0.930 . S
C1993 C1991 1.419 . S
C1993 C1994 1.362 . S
C1994 H1986 0.930 . S
C1994 C1993 1.362 . S
C1994 C1997 1.409 . S
C1995 H1987 0.930 . S
C1995 C1996 1.355 . S
C1995 C1997 1.415 . S
C1996 C1995 1.355 . S
C1996 C1998 1.419 . S
C1997 C1992 1.425 . S
C1997 C1994 1.409 . S
C1997 C1995 1.415 . S
C1998 H1988 0.930 . S
C1998 C1996 1.419 . S
C1998 C1999 1.362 . S
C1999 H1989 0.930 . S
C1999 C1992 1.409 . S
C1999 C1998 1.362 . S
H2000 C2006 0.930 . S
H2001 C2009 0.930 . S
H2002 C2010 0.930 . S
H2003 C2011 0.930 . S
H2004 C2014 0.930 . S
H2005 C2015 0.930 . S
C2006 H2000 0.930 . S
C2006 C2007 1.355 . S
C2006 C2008 1.415 . S
C2007 C2006 1.355 . S
C2007 C2009 1.419 . S
C2008 C2006 1.415 . S
C2008 C2013 1.425 . S
C2008 C2015 1.409 . S
C2009 H2001 0.930 . S
C2009 C2007 1.419 . S
C2009 C2010 1.362 . S
C2010 H2002 0.930 . S
C2010 C2009 1.362 . S
C2010 C2013 1.409 . S
C2011 H2003 0.930 . S
C2011 C2012 1.355 . S
C2011 C2013 1.415 . S
C2012 C2011 1.355 . S
C2012 C2014 1.419 . S
C2013 C2008 1.425 . S
C2013 C2010 1.409 . S
C2013 C2011 1.415 . S
C2014 H2004 0.930 . S
C2014 C2012 1.419 . S
C2014 C2015 1.362 . S
C2015 H2005 0.930 . S
C2015 C2008 1.409 . S
C2015 C2014 1.362 . S
H2016 C2022 0.930 . S
H2017 C2025 0.930 . S
H2018 C2026 0.930 . S
H2019 C2027 0.930 . S
H2020 C2030 0.930 . S
H2021 C2031 0.930 . S
C2022 H2016 0.930 . S
C2022 C2023 1.355 . S
C2022 C2024 1.415 . S
C2023 C2022 1.355 . S
C2023 C2025 1.419 . S
C2024 C2022 1.415 . S
C2024 C2029 1.425 . S
C2024 C2031 1.409 . S
C2025 H2017 0.930 . S
C2025 C2023 1.419 . S
C2025 C2026 1.362 . S
C2026 H2018 0.930 . S
C2026 C2025 1.362 . S
C2026 C2029 1.409 . S
C2027 H2019 0.930 . S
C2027 C2028 1.355 . S
C2027 C2029 1.415 . S
C2028 C2027 1.355 . S
C2028 C2030 1.419 . S
C2029 C2024 1.425 . S
C2029 C2026 1.409 . S
C2029 C2027 1.415 . S
C2030 H2020 0.930 . S
C2030 C2028 1.419 . S
C2030 C2031 1.362 . S
C2031 H2021 0.930 . S
C2031 C2024 1.409 . S
C2031 C2030 1.362 . S
H2032 C2038 0.930 . S
H2033 C2041 0.930 . S
H2034 C2042 0.930 . S
H2035 C2043 0.930 . S
H2036 C2046 0.930 . S
H2037 C2047 0.930 . S
C2038 H2032 0.930 . S
C2038 C2039 1.355 . S
C2038 C2040 1.415 . S
C2039 C2038 1.355 . S
C2039 C2041 1.419 . S
C2040 C2038 1.415 . S
C2040 C2045 1.425 . S
C2040 C2047 1.409 . S
C2041 H2033 0.930 . S
C2041 C2039 1.419 . S
C2041 C2042 1.362 . S
C2042 H2034 0.930 . S
C2042 C2041 1.362 . S
C2042 C2045 1.409 . S
C2043 H2035 0.930 . S
C2043 C2044 1.355 . S
C2043 C2045 1.415 . S
C2044 C2043 1.355 . S
C2044 C2046 1.419 . S
C2045 C2040 1.425 . S
C2045 C2042 1.409 . S
C2045 C2043 1.415 . S
C2046 H2036 0.930 . S
C2046 C2044 1.419 . S
C2046 C2047 1.362 . S
C2047 H2037 0.930 . S
C2047 C2040 1.409 . S
C2047 C2046 1.362 . S
H2048 C2054 0.930 . S
H2049 C2057 0.930 . S
H2050 C2058 0.930 . S
H2051 C2059 0.930 . S
H2052 C2062 0.930 . S
H2053 C2063 0.930 . S
C2054 H2048 0.930 . S
C2054 C2055 1.355 . S
C2054 C2056 1.415 . S
C2055 C2054 1.355 . S
C2055 C2057 1.419 . S
C2056 C2054 1.415 . S
C2056 C2061 1.425 . S
C2056 C2063 1.409 . S
C2057 H2049 0.930 . S
C2057 C2055 1.419 . S
C2057 C2058 1.362 . S
C2058 H2050 0.930 . S
C2058 C2057 1.362 . S
C2058 C2061 1.409 . S
C2059 H2051 0.930 . S
C2059 C2060 1.355 . S
C2059 C2061 1.415 . S
C2060 C2059 1.355 . S
C2060 C2062 1.419 . S
C2061 C2056 1.425 . S
C2061 C2058 1.409 . S
C2061 C2059 1.415 . S
C2062 H2052 0.930 . S
C2062 C2060 1.419 . S
C2062 C2063 1.362 . S
C2063 H2053 0.930 . S
C2063 C2056 1.409 . S
C2063 C2062 1.362 . S
H2064 C2070 0.930 . S
H2065 C2073 0.930 . S
H2066 C2074 0.930 . S
H2067 C2075 0.930 . S
H2068 C2078 0.930 . S
H2069 C2079 0.930 . S
C2070 H2064 0.930 . S
C2070 C2071 1.355 . S
C2070 C2072 1.415 . S
C2071 C2070 1.355 . S
C2071 C2073 1.419 . S
C2072 C2070 1.415 . S
C2072 C2077 1.425 . S
C2072 C2079 1.409 . S
C2073 H2065 0.930 . S
C2073 C2071 1.419 . S
C2073 C2074 1.362 . S
C2074 H2066 0.930 . S
C2074 C2073 1.362 . S
C2074 C2077 1.409 . S
C2075 H2067 0.930 . S
C2075 C2076 1.355 . S
C2075 C2077 1.415 . S
C2076 C2075 1.355 . S
C2076 C2078 1.419 . S
C2077 C2072 1.425 . S
C2077 C2074 1.409 . S
C2077 C2075 1.415 . S
C2078 H2068 0.930 . S
C2078 C2076 1.419 . S
C2078 C2079 1.362 . S
C2079 H2069 0.930 . S
C2079 C2072 1.409 . S
C2079 C2078 1.362 . S
H2080 C2086 0.930 . S
H2081 C2089 0.930 . S
H2082 C2090 0.930 . S
H2083 C2091 0.930 . S
H2084 C2094 0.930 . S
H2085 C2095 0.930 . S
C2086 H2080 0.930 . S
C2086 C2087 1.355 . S
C2086 C2088 1.415 . S
C2087 C2086 1.355 . S
C2087 C2089 1.419 . S
C2088 C2086 1.415 . S
C2088 C2093 1.425 . S
C2088 C2095 1.409 . S
C2089 H2081 0.930 . S
C2089 C2087 1.419 . S
C2089 C2090 1.362 . S
C2090 H2082 0.930 . S
C2090 C2089 1.362 . S
C2090 C2093 1.409 . S
C2091 H2083 0.930 . S
C2091 C2092 1.355 . S
C2091 C2093 1.415 . S
C2092 C2091 1.355 . S
C2092 C2094 1.419 . S
C2093 C2088 1.425 . S
C2093 C2090 1.409 . S
C2093 C2091 1.415 . S
C2094 H2084 0.930 . S
C2094 C2092 1.419 . S
C2094 C2095 1.362 . S
C2095 H2085 0.930 . S
C2095 C2088 1.409 . S
C2095 C2094 1.362 . S
H2096 C2102 0.930 . S
H2097 C2105 0.930 . S
H2098 C2106 0.930 . S
H2099 C2107 0.930 . S
H2100 C2110 0.930 1_455 S
H2101 C2111 0.930 . S
C2102 H2096 0.930 . S
C2102 C2103 1.355 . S
C2102 C2104 1.415 . S
C2103 C2102 1.355 . S
C2103 C2105 1.419 . S
C2104 C2102 1.415 . S
C2104 C2109 1.425 . S
C2104 C2111 1.409 . S
C2105 H2097 0.930 . S
C2105 C2103 1.419 . S
C2105 C2106 1.362 . S
C2106 H2098 0.930 . S
C2106 C2105 1.362 . S
C2106 C2109 1.409 . S
C2107 H2099 0.930 . S
C2107 C2108 1.355 . S
C2107 C2109 1.415 . S
C2108 C2107 1.355 . S
C2108 C2110 1.419 . S
C2109 C2104 1.425 . S
C2109 C2106 1.409 . S
C2109 C2107 1.415 . S
C2110 H2100 0.930 1_655 S
C2110 C2108 1.419 . S
C2110 C2111 1.362 . S
C2111 H2101 0.930 . S
C2111 C2104 1.409 . S
C2111 C2110 1.362 . S
H2112 C2118 0.930 . S
H2113 C2121 0.930 . S
H2114 C2122 0.930 . S
H2115 C2123 0.930 . S
H2116 C2126 0.930 . S
H2117 C2127 0.930 . S
C2118 H2112 0.930 . S
C2118 C2119 1.355 . S
C2118 C2120 1.415 . S
C2119 C2118 1.355 . S
C2119 C2121 1.419 . S
C2120 C2118 1.415 . S
C2120 C2125 1.425 . S
C2120 C2127 1.409 . S
C2121 H2113 0.930 . S
C2121 C2119 1.419 . S
C2121 C2122 1.362 . S
C2122 H2114 0.930 . S
C2122 C2121 1.362 . S
C2122 C2125 1.409 . S
C2123 H2115 0.930 . S
C2123 C2124 1.355 . S
C2123 C2125 1.415 . S
C2124 C2123 1.355 . S
C2124 C2126 1.419 . S
C2125 C2120 1.425 . S
C2125 C2122 1.409 . S
C2125 C2123 1.415 . S
C2126 H2116 0.930 . S
C2126 C2124 1.419 . S
C2126 C2127 1.362 . S
C2127 H2117 0.930 . S
C2127 C2120 1.409 . S
C2127 C2126 1.362 . S
H2128 C2134 0.930 . S
H2129 C2137 0.930 . S
H2130 C2138 0.930 . S
H2131 C2139 0.930 . S
H2132 C2142 0.930 1_455 S
H2133 C2143 0.930 . S
C2134 H2128 0.930 . S
C2134 C2135 1.355 . S
C2134 C2136 1.415 . S
C2135 C2134 1.355 . S
C2135 C2137 1.419 . S
C2136 C2134 1.415 . S
C2136 C2141 1.425 . S
C2136 C2143 1.409 . S
C2137 H2129 0.930 . S
C2137 C2135 1.419 . S
C2137 C2138 1.362 . S
C2138 H2130 0.930 . S
C2138 C2137 1.362 . S
C2138 C2141 1.409 . S
C2139 H2131 0.930 . S
C2139 C2140 1.355 . S
C2139 C2141 1.415 . S
C2140 C2139 1.355 . S
C2140 C2142 1.419 . S
C2141 C2136 1.425 . S
C2141 C2138 1.409 . S
C2141 C2139 1.415 . S
C2142 H2132 0.930 1_655 S
C2142 C2140 1.419 . S
C2142 C2143 1.362 . S
C2143 H2133 0.930 . S
C2143 C2136 1.409 . S
C2143 C2142 1.362 . S
H2144 C2150 0.930 . S
H2145 C2153 0.930 . S
H2146 C2154 0.930 . S
H2147 C2155 0.930 . S
H2148 C2158 0.930 . S
H2149 C2159 0.930 . S
C2150 H2144 0.930 . S
C2150 C2151 1.355 . S
C2150 C2152 1.415 . S
C2151 C2150 1.355 . S
C2151 C2153 1.419 . S
C2152 C2150 1.415 . S
C2152 C2157 1.425 . S
C2152 C2159 1.409 . S
C2153 H2145 0.930 . S
C2153 C2151 1.419 . S
C2153 C2154 1.362 . S
C2154 H2146 0.930 . S
C2154 C2153 1.362 . S
C2154 C2157 1.409 . S
C2155 H2147 0.930 . S
C2155 C2156 1.355 . S
C2155 C2157 1.415 . S
C2156 C2155 1.355 . S
C2156 C2158 1.419 . S
C2157 C2152 1.425 . S
C2157 C2154 1.409 . S
C2157 C2155 1.415 . S
C2158 H2148 0.930 . S
C2158 C2156 1.419 . S
C2158 C2159 1.362 . S
C2159 H2149 0.930 . S
C2159 C2152 1.409 . S
C2159 C2158 1.362 . S
H2160 C2166 0.930 . S
H2161 C2169 0.930 . S
H2162 C2170 0.930 . S
H2163 C2171 0.930 . S
H2164 C2174 0.930 . S
H2165 C2175 0.930 . S
C2166 H2160 0.930 . S
C2166 C2167 1.355 . S
C2166 C2168 1.415 . S
C2167 C2166 1.355 . S
C2167 C2169 1.419 . S
C2168 C2166 1.415 . S
C2168 C2173 1.425 . S
C2168 C2175 1.409 . S
C2169 H2161 0.930 . S
C2169 C2167 1.419 . S
C2169 C2170 1.362 . S
C2170 H2162 0.930 . S
C2170 C2169 1.362 . S
C2170 C2173 1.409 . S
C2171 H2163 0.930 . S
C2171 C2172 1.355 . S
C2171 C2173 1.415 . S
C2172 C2171 1.355 . S
C2172 C2174 1.419 . S
C2173 C2168 1.425 . S
C2173 C2170 1.409 . S
C2173 C2171 1.415 . S
C2174 H2164 0.930 . S
C2174 C2172 1.419 . S
C2174 C2175 1.362 . S
C2175 H2165 0.930 . S
C2175 C2168 1.409 . S
C2175 C2174 1.362 . S
H2176 C2182 0.930 . S
H2177 C2185 0.930 . S
H2178 C2186 0.930 . S
H2179 C2187 0.930 . S
H2180 C2190 0.930 . S
H2181 C2191 0.930 . S
C2182 H2176 0.930 . S
C2182 C2183 1.355 . S
C2182 C2184 1.415 . S
C2183 C2182 1.355 . S
C2183 C2185 1.419 . S
C2184 C2182 1.415 . S
C2184 C2189 1.425 . S
C2184 C2191 1.409 . S
C2185 H2177 0.930 . S
C2185 C2183 1.419 . S
C2185 C2186 1.362 . S
C2186 H2178 0.930 . S
C2186 C2185 1.362 . S
C2186 C2189 1.409 . S
C2187 H2179 0.930 . S
C2187 C2188 1.355 . S
C2187 C2189 1.415 . S
C2188 C2187 1.355 . S
C2188 C2190 1.419 . S
C2189 C2184 1.425 . S
C2189 C2186 1.409 . S
C2189 C2187 1.415 . S
C2190 H2180 0.930 . S
C2190 C2188 1.419 . S
C2190 C2191 1.362 . S
C2191 H2181 0.930 . S
C2191 C2184 1.409 . S
C2191 C2190 1.362 . S
H2192 C2198 0.930 . S
H2193 C2201 0.930 . S
H2194 C2202 0.930 . S
H2195 C2203 0.930 . S
H2196 C2206 0.930 . S
H2197 C2207 0.930 . S
C2198 H2192 0.930 . S
C2198 C2199 1.355 . S
C2198 C2200 1.415 . S
C2199 C2198 1.355 . S
C2199 C2201 1.419 . S
C2200 C2198 1.415 . S
C2200 C2205 1.425 . S
C2200 C2207 1.409 . S
C2201 H2193 0.930 . S
C2201 C2199 1.419 . S
C2201 C2202 1.362 . S
C2202 H2194 0.930 . S
C2202 C2201 1.362 . S
C2202 C2205 1.409 . S
C2203 H2195 0.930 . S
C2203 C2204 1.355 . S
C2203 C2205 1.415 . S
C2204 C2203 1.355 . S
C2204 C2206 1.419 . S
C2205 C2200 1.425 . S
C2205 C2202 1.409 . S
C2205 C2203 1.415 . S
C2206 H2196 0.930 . S
C2206 C2204 1.419 . S
C2206 C2207 1.362 . S
C2207 H2197 0.930 . S
C2207 C2200 1.409 . S
C2207 C2206 1.362 . S
H2208 C2214 0.930 . S
H2209 C2217 0.930 . S
H2210 C2218 0.930 . S
H2211 C2219 0.930 . S
H2212 C2222 0.930 . S
H2213 C2223 0.930 . S
C2214 H2208 0.930 . S
C2214 C2215 1.355 . S
C2214 C2216 1.415 . S
C2215 C2214 1.355 . S
C2215 C2217 1.419 . S
C2216 C2214 1.415 . S
C2216 C2221 1.425 . S
C2216 C2223 1.409 . S
C2217 H2209 0.930 . S
C2217 C2215 1.419 . S
C2217 C2218 1.362 . S
C2218 H2210 0.930 . S
C2218 C2217 1.362 . S
C2218 C2221 1.409 . S
C2219 H2211 0.930 . S
C2219 C2220 1.355 . S
C2219 C2221 1.415 . S
C2220 C2219 1.355 . S
C2220 C2222 1.419 . S
C2221 C2216 1.425 . S
C2221 C2218 1.409 . S
C2221 C2219 1.415 . S
C2222 H2212 0.930 . S
C2222 C2220 1.419 . S
C2222 C2223 1.362 . S
C2223 H2213 0.930 . S
C2223 C2216 1.409 . S
C2223 C2222 1.362 . S
H2224 C2230 0.930 . S
H2225 C2233 0.930 . S
H2226 C2234 0.930 . S
H2227 C2235 0.930 . S
H2228 C2238 0.930 . S
H2229 C2239 0.930 . S
C2230 H2224 0.930 . S
C2230 C2231 1.355 . S
C2230 C2232 1.415 . S
C2231 C2230 1.355 . S
C2231 C2233 1.419 . S
C2232 C2230 1.415 . S
C2232 C2237 1.425 . S
C2232 C2239 1.409 . S
C2233 H2225 0.930 . S
C2233 C2231 1.419 . S
C2233 C2234 1.362 . S
C2234 H2226 0.930 . S
C2234 C2233 1.362 . S
C2234 C2237 1.409 . S
C2235 H2227 0.930 . S
C2235 C2236 1.355 . S
C2235 C2237 1.415 . S
C2236 C2235 1.355 . S
C2236 C2238 1.419 . S
C2237 C2232 1.425 . S
C2237 C2234 1.409 . S
C2237 C2235 1.415 . S
C2238 H2228 0.930 . S
C2238 C2236 1.419 . S
C2238 C2239 1.362 . S
C2239 H2229 0.930 . S
C2239 C2232 1.409 . S
C2239 C2238 1.362 . S
H2240 C2246 0.930 . S
H2241 C2249 0.930 . S
H2242 C2250 0.930 . S
H2243 C2251 0.930 . S
H2244 C2254 0.930 . S
H2245 C2255 0.930 . S
C2246 H2240 0.930 . S
C2246 C2247 1.355 . S
C2246 C2248 1.415 . S
C2247 C2246 1.355 . S
C2247 C2249 1.419 . S
C2248 C2246 1.415 . S
C2248 C2253 1.425 . S
C2248 C2255 1.409 . S
C2249 H2241 0.930 . S
C2249 C2247 1.419 . S
C2249 C2250 1.362 . S
C2250 H2242 0.930 . S
C2250 C2249 1.362 . S
C2250 C2253 1.409 . S
C2251 H2243 0.930 . S
C2251 C2252 1.355 . S
C2251 C2253 1.415 . S
C2252 C2251 1.355 . S
C2252 C2254 1.419 . S
C2253 C2248 1.425 . S
C2253 C2250 1.409 . S
C2253 C2251 1.415 . S
C2254 H2244 0.930 . S
C2254 C2252 1.419 . S
C2254 C2255 1.362 . S
C2255 H2245 0.930 . S
C2255 C2248 1.409 . S
C2255 C2254 1.362 . S
H2256 C2262 0.930 . S
H2257 C2265 0.930 . S
H2258 C2266 0.930 . S
H2259 C2267 0.930 . S
H2260 C2270 0.930 . S
H2261 C2271 0.930 . S
C2262 H2256 0.930 . S
C2262 C2263 1.355 . S
C2262 C2264 1.415 . S
C2263 C2262 1.355 . S
C2263 C2265 1.419 . S
C2264 C2262 1.415 . S
C2264 C2269 1.425 . S
C2264 C2271 1.409 . S
C2265 H2257 0.930 . S
C2265 C2263 1.419 . S
C2265 C2266 1.362 . S
C2266 H2258 0.930 . S
C2266 C2265 1.362 . S
C2266 C2269 1.409 . S
C2267 H2259 0.930 . S
C2267 C2268 1.355 . S
C2267 C2269 1.415 . S
C2268 C2267 1.355 . S
C2268 C2270 1.419 . S
C2269 C2264 1.425 . S
C2269 C2266 1.409 . S
C2269 C2267 1.415 . S
C2270 H2260 0.930 . S
C2270 C2268 1.419 . S
C2270 C2271 1.362 . S
C2271 H2261 0.930 . S
C2271 C2264 1.409 . S
C2271 C2270 1.362 . S
H2272 C2278 0.930 . S
H2273 C2281 0.930 . S
H2274 C2282 0.930 . S
H2275 C2283 0.930 . S
H2276 C2286 0.930 . S
H2277 C2287 0.930 . S
C2278 H2272 0.930 . S
C2278 C2279 1.355 . S
C2278 C2280 1.415 . S
C2279 C2278 1.355 . S
C2279 C2281 1.419 . S
C2280 C2278 1.415 . S
C2280 C2285 1.425 . S
C2280 C2287 1.409 . S
C2281 H2273 0.930 . S
C2281 C2279 1.419 . S
C2281 C2282 1.362 . S
C2282 H2274 0.930 . S
C2282 C2281 1.362 . S
C2282 C2285 1.409 . S
C2283 H2275 0.930 . S
C2283 C2284 1.355 . S
C2283 C2285 1.415 . S
C2284 C2283 1.355 . S
C2284 C2286 1.419 . S
C2285 C2280 1.425 . S
C2285 C2282 1.409 . S
C2285 C2283 1.415 . S
C2286 H2276 0.930 . S
C2286 C2284 1.419 . S
C2286 C2287 1.362 . S
C2287 H2277 0.930 . S
C2287 C2280 1.409 . S
C2287 C2286 1.362 . S
H2288 C2294 0.930 . S
H2289 C2297 0.930 . S
H2290 C2298 0.930 . S
H2291 C2299 0.930 . S
H2292 C2302 0.930 . S
H2293 C2303 0.930 . S
C2294 H2288 0.930 . S
C2294 C2295 1.355 . S
C2294 C2296 1.415 . S
C2295 C2294 1.355 . S
C2295 C2297 1.419 . S
C2296 C2294 1.415 . S
C2296 C2301 1.425 . S
C2296 C2303 1.409 . S
C2297 H2289 0.930 . S
C2297 C2295 1.419 . S
C2297 C2298 1.362 . S
C2298 H2290 0.930 . S
C2298 C2297 1.362 . S
C2298 C2301 1.409 . S
C2299 H2291 0.930 . S
C2299 C2300 1.355 . S
C2299 C2301 1.415 . S
C2300 C2299 1.355 . S
C2300 C2302 1.419 . S
C2301 C2296 1.425 . S
C2301 C2298 1.409 . S
C2301 C2299 1.415 . S
C2302 H2292 0.930 . S
C2302 C2300 1.419 . S
C2302 C2303 1.362 . S
C2303 H2293 0.930 . S
C2303 C2296 1.409 . S
C2303 C2302 1.362 . S
H2304 C2310 0.930 . S
H2305 C2313 0.930 . S
H2306 C2314 0.930 . S
H2307 C2315 0.930 . S
H2308 C2318 0.930 . S
H2309 C2319 0.930 . S
C2310 H2304 0.930 . S
C2310 C2311 1.355 . S
C2310 C2312 1.415 . S
C2311 C2310 1.355 . S
C2311 C2313 1.419 . S
C2312 C2310 1.415 . S
C2312 C2317 1.425 1_545 S
C2312 C2319 1.409 1_545 S
C2313 H2305 0.930 . S
C2313 C2311 1.419 . S
C2313 C2314 1.362 . S
C2314 H2306 0.930 . S
C2314 C2313 1.362 . S
C2314 C2317 1.409 1_545 S
C2315 H2307 0.930 . S
C2315 C2316 1.355 . S
C2315 C2317 1.415 . S
C2316 C2315 1.355 . S
C2316 C2318 1.419 . S
C2317 C2312 1.425 1_565 S
C2317 C2314 1.409 1_565 S
C2317 C2315 1.415 . S
C2318 H2308 0.930 . S
C2318 C2316 1.419 . S
C2318 C2319 1.362 . S
C2319 H2309 0.930 . S
C2319 C2312 1.409 1_565 S
C2319 C2318 1.362 . S
H2320 C2326 0.930 . S
H2321 C2329 0.930 . S
H2322 C2330 0.930 . S
H2323 C2331 0.930 . S
H2324 C2334 0.930 . S
H2325 C2335 0.930 . S
C2326 H2320 0.930 . S
C2326 C2327 1.355 . S
C2326 C2328 1.415 . S
C2327 C2326 1.355 . S
C2327 C2329 1.419 . S
C2328 C2326 1.415 . S
C2328 C2333 1.425 . S
C2328 C2335 1.409 . S
C2329 H2321 0.930 . S
C2329 C2327 1.419 . S
C2329 C2330 1.362 . S
C2330 H2322 0.930 . S
C2330 C2329 1.362 . S
C2330 C2333 1.409 . S
C2331 H2323 0.930 . S
C2331 C2332 1.355 . S
C2331 C2333 1.415 . S
C2332 C2331 1.355 . S
C2332 C2334 1.419 . S
C2333 C2328 1.425 . S
C2333 C2330 1.409 . S
C2333 C2331 1.415 . S
C2334 H2324 0.930 . S
C2334 C2332 1.419 . S
C2334 C2335 1.362 . S
C2335 H2325 0.930 . S
C2335 C2328 1.409 . S
C2335 C2334 1.362 . S
H2336 C2342 0.930 . S
H2337 C2345 0.930 . S
H2338 C2346 0.930 . S
H2339 C2347 0.930 . S
H2340 C2350 0.930 . S
H2341 C2351 0.930 . S
C2342 H2336 0.930 . S
C2342 C2343 1.355 . S
C2342 C2344 1.415 . S
C2343 C2342 1.355 . S
C2343 C2345 1.419 . S
C2344 C2342 1.415 . S
C2344 C2349 1.425 1_565 S
C2344 C2351 1.409 1_565 S
C2345 H2337 0.930 . S
C2345 C2343 1.419 . S
C2345 C2346 1.362 . S
C2346 H2338 0.930 . S
C2346 C2345 1.362 . S
C2346 C2349 1.409 1_565 S
C2347 H2339 0.930 . S
C2347 C2348 1.355 . S
C2347 C2349 1.415 . S
C2348 C2347 1.355 . S
C2348 C2350 1.419 . S
C2349 C2344 1.425 1_545 S
C2349 C2346 1.409 1_545 S
C2349 C2347 1.415 . S
C2350 H2340 0.930 . S
C2350 C2348 1.419 . S
C2350 C2351 1.362 . S
C2351 H2341 0.930 . S
C2351 C2344 1.409 1_545 S
C2351 C2350 1.362 . S
H2352 C2358 0.930 . S
H2353 C2361 0.930 . S
H2354 C2362 0.930 . S
H2355 C2363 0.930 . S
H2356 C2366 0.930 . S
H2357 C2367 0.930 . S
C2358 H2352 0.930 . S
C2358 C2359 1.355 1_556 S
C2358 C2360 1.415 . S
C2359 C2358 1.355 1_554 S
C2359 C2361 1.419 . S
C2360 C2358 1.415 . S
C2360 C2365 1.425 1_556 S
C2360 C2367 1.409 . S
C2361 H2353 0.930 . S
C2361 C2359 1.419 . S
C2361 C2362 1.362 . S
C2362 H2354 0.930 . S
C2362 C2361 1.362 . S
C2362 C2365 1.409 . S
C2363 H2355 0.930 . S
C2363 C2364 1.355 1_554 S
C2363 C2365 1.415 . S
C2364 C2363 1.355 1_556 S
C2364 C2366 1.419 . S
C2365 C2360 1.425 1_554 S
C2365 C2362 1.409 . S
C2365 C2363 1.415 . S
C2366 H2356 0.930 . S
C2366 C2364 1.419 . S
C2366 C2367 1.362 . S
C2367 H2357 0.930 . S
C2367 C2360 1.409 . S
C2367 C2366 1.362 . S
H2368 C2374 0.930 . S
H2369 C2377 0.930 . S
H2370 C2378 0.930 . S
H2371 C2379 0.930 . S
H2372 C2382 0.930 . S
H2373 C2383 0.930 . S
C2374 H2368 0.930 . S
C2374 C2375 1.355 . S
C2374 C2376 1.415 . S
C2375 C2374 1.355 . S
C2375 C2377 1.419 . S
C2376 C2374 1.415 . S
C2376 C2381 1.425 1_545 S
C2376 C2383 1.409 1_545 S
C2377 H2369 0.930 . S
C2377 C2375 1.419 . S
C2377 C2378 1.362 . S
C2378 H2370 0.930 . S
C2378 C2377 1.362 . S
C2378 C2381 1.409 1_545 S
C2379 H2371 0.930 . S
C2379 C2380 1.355 . S
C2379 C2381 1.415 . S
C2380 C2379 1.355 . S
C2380 C2382 1.419 . S
C2381 C2376 1.425 1_565 S
C2381 C2378 1.409 1_565 S
C2381 C2379 1.415 . S
C2382 H2372 0.930 . S
C2382 C2380 1.419 . S
C2382 C2383 1.362 . S
C2383 H2373 0.930 . S
C2383 C2376 1.409 1_565 S
C2383 C2382 1.362 . S
H2384 C2390 0.930 . S
H2385 C2393 0.930 . S
H2386 C2394 0.930 . S
H2387 C2395 0.930 . S
H2388 C2398 0.930 . S
H2389 C2399 0.930 . S
C2390 H2384 0.930 . S
C2390 C2391 1.355 . S
C2390 C2392 1.415 . S
C2391 C2390 1.355 . S
C2391 C2393 1.419 . S
C2392 C2390 1.415 . S
C2392 C2397 1.425 . S
C2392 C2399 1.409 . S
C2393 H2385 0.930 . S
C2393 C2391 1.419 . S
C2393 C2394 1.362 . S
C2394 H2386 0.930 . S
C2394 C2393 1.362 . S
C2394 C2397 1.409 . S
C2395 H2387 0.930 . S
C2395 C2396 1.355 . S
C2395 C2397 1.415 . S
C2396 C2395 1.355 . S
C2396 C2398 1.419 . S
C2397 C2392 1.425 . S
C2397 C2394 1.409 . S
C2397 C2395 1.415 . S
C2398 H2388 0.930 . S
C2398 C2396 1.419 . S
C2398 C2399 1.362 . S
C2399 H2389 0.930 . S
C2399 C2392 1.409 . S
C2399 C2398 1.362 . S
H2400 C2406 0.930 . S
H2401 C2409 0.930 . S
H2402 C2410 0.930 . S
H2403 C2411 0.930 . S
H2404 C2414 0.930 . S
H2405 C2415 0.930 . S
C2406 H2400 0.930 . S
C2406 C2407 1.355 . S
C2406 C2408 1.415 . S
C2407 C2406 1.355 . S
C2407 C2409 1.419 . S
C2408 C2406 1.415 . S
C2408 C2413 1.425 1_545 S
C2408 C2415 1.409 1_545 S
C2409 H2401 0.930 . S
C2409 C2407 1.419 . S
C2409 C2410 1.362 . S
C2410 H2402 0.930 . S
C2410 C2409 1.362 . S
C2410 C2413 1.409 1_545 S
C2411 H2403 0.930 . S
C2411 C2412 1.355 . S
C2411 C2413 1.415 . S
C2412 C2411 1.355 . S
C2412 C2414 1.419 . S
C2413 C2408 1.425 1_565 S
C2413 C2410 1.409 1_565 S
C2413 C2411 1.415 . S
C2414 H2404 0.930 . S
C2414 C2412 1.419 . S
C2414 C2415 1.362 . S
C2415 H2405 0.930 . S
C2415 C2408 1.409 1_565 S
C2415 C2414 1.362 . S
H2416 C2422 0.930 . S
H2417 C2425 0.930 . S
H2418 C2426 0.930 . S
H2419 C2427 0.930 . S
H2420 C2430 0.930 . S
H2421 C2431 0.930 . S
C2422 H2416 0.930 . S
C2422 C2423 1.355 1_556 S
C2422 C2424 1.415 . S
C2423 C2422 1.355 1_554 S
C2423 C2425 1.419 . S
C2424 C2422 1.415 . S
C2424 C2429 1.425 1_556 S
C2424 C2431 1.409 . S
C2425 H2417 0.930 . S
C2425 C2423 1.419 . S
C2425 C2426 1.362 . S
C2426 H2418 0.930 . S
C2426 C2425 1.362 . S
C2426 C2429 1.409 . S
C2427 H2419 0.930 . S
C2427 C2428 1.355 1_554 S
C2427 C2429 1.415 . S
C2428 C2427 1.355 1_556 S
C2428 C2430 1.419 . S
C2429 C2424 1.425 1_554 S
C2429 C2426 1.409 . S
C2429 C2427 1.415 . S
C2430 H2420 0.930 . S
C2430 C2428 1.419 . S
C2430 C2431 1.362 . S
C2431 H2421 0.930 . S
C2431 C2424 1.409 . S
C2431 C2430 1.362 . S
H2432 C2438 0.930 . S
H2433 C2441 0.930 . S
H2434 C2442 0.930 . S
H2435 C2443 0.930 . S
H2436 C2446 0.930 . S
H2437 C2447 0.930 . S
C2438 H2432 0.930 . S
C2438 C2439 1.355 . S
C2438 C2440 1.415 . S
C2439 C2438 1.355 . S
C2439 C2441 1.419 . S
C2440 C2438 1.415 . S
C2440 C2445 1.425 . S
C2440 C2447 1.409 . S
C2441 H2433 0.930 . S
C2441 C2439 1.419 . S
C2441 C2442 1.362 . S
C2442 H2434 0.930 . S
C2442 C2441 1.362 . S
C2442 C2445 1.409 . S
C2443 H2435 0.930 . S
C2443 C2444 1.355 . S
C2443 C2445 1.415 . S
C2444 C2443 1.355 . S
C2444 C2446 1.419 . S
C2445 C2440 1.425 . S
C2445 C2442 1.409 . S
C2445 C2443 1.415 . S
C2446 H2436 0.930 . S
C2446 C2444 1.419 . S
C2446 C2447 1.362 . S
C2447 H2437 0.930 . S
C2447 C2440 1.409 . S
C2447 C2446 1.362 . S
H2448 C2454 0.930 . S
H2449 C2457 0.930 . S
H2450 C2458 0.930 . S
H2451 C2459 0.930 . S
H2452 C2462 0.930 . S
H2453 C2463 0.930 . S
C2454 H2448 0.930 . S
C2454 C2455 1.355 . S
C2454 C2456 1.415 . S
C2455 C2454 1.355 . S
C2455 C2457 1.419 1_554 S
C2456 C2454 1.415 . S
C2456 C2461 1.425 1_554 S
C2456 C2463 1.409 . S
C2457 H2449 0.930 . S
C2457 C2455 1.419 1_556 S
C2457 C2458 1.362 . S
C2458 H2450 0.930 . S
C2458 C2457 1.362 . S
C2458 C2461 1.409 . S
C2459 H2451 0.930 . S
C2459 C2460 1.355 . S
C2459 C2461 1.415 . S
C2460 C2459 1.355 . S
C2460 C2462 1.419 1_556 S
C2461 C2456 1.425 1_556 S
C2461 C2458 1.409 . S
C2461 C2459 1.415 . S
C2462 H2452 0.930 . S
C2462 C2460 1.419 1_554 S
C2462 C2463 1.362 . S
C2463 H2453 0.930 . S
C2463 C2456 1.409 . S
C2463 C2462 1.362 . S
H2464 C2470 0.930 . S
H2465 C2473 0.930 . S
H2466 C2474 0.930 . S
H2467 C2475 0.930 . S
H2468 C2478 0.930 . S
H2469 C2479 0.930 . S
C2470 H2464 0.930 . S
C2470 C2471 1.355 . S
C2470 C2472 1.415 . S
C2471 C2470 1.355 . S
C2471 C2473 1.419 . S
C2472 C2470 1.415 . S
C2472 C2477 1.425 . S
C2472 C2479 1.409 . S
C2473 H2465 0.930 . S
C2473 C2471 1.419 . S
C2473 C2474 1.362 . S
C2474 H2466 0.930 . S
C2474 C2473 1.362 . S
C2474 C2477 1.409 . S
C2475 H2467 0.930 . S
C2475 C2476 1.355 . S
C2475 C2477 1.415 . S
C2476 C2475 1.355 . S
C2476 C2478 1.419 . S
C2477 C2472 1.425 . S
C2477 C2474 1.409 . S
C2477 C2475 1.415 . S
C2478 H2468 0.930 . S
C2478 C2476 1.419 . S
C2478 C2479 1.362 . S
C2479 H2469 0.930 . S
C2479 C2472 1.409 . S
C2479 C2478 1.362 . S
H2480 C2486 0.930 . S
H2481 C2489 0.930 . S
H2482 C2490 0.930 . S
H2483 C2491 0.930 . S
H2484 C2494 0.930 . S
H2485 C2495 0.930 . S
C2486 H2480 0.930 . S
C2486 C2487 1.355 . S
C2486 C2488 1.415 . S
C2487 C2486 1.355 . S
C2487 C2489 1.419 . S
C2488 C2486 1.415 . S
C2488 C2493 1.425 . S
C2488 C2495 1.409 . S
C2489 H2481 0.930 . S
C2489 C2487 1.419 . S
C2489 C2490 1.362 . S
C2490 H2482 0.930 . S
C2490 C2489 1.362 . S
C2490 C2493 1.409 . S
C2491 H2483 0.930 . S
C2491 C2492 1.355 . S
C2491 C2493 1.415 . S
C2492 C2491 1.355 . S
C2492 C2494 1.419 . S
C2493 C2488 1.425 . S
C2493 C2490 1.409 . S
C2493 C2491 1.415 . S
C2494 H2484 0.930 . S
C2494 C2492 1.419 . S
C2494 C2495 1.362 . S
C2495 H2485 0.930 . S
C2495 C2488 1.409 . S
C2495 C2494 1.362 . S
H2496 C2502 0.930 . S
H2497 C2505 0.930 . S
H2498 C2506 0.930 . S
H2499 C2507 0.930 . S
H2500 C2510 0.930 . S
H2501 C2511 0.930 . S
C2502 H2496 0.930 . S
C2502 C2503 1.355 . S
C2502 C2504 1.415 . S
C2503 C2502 1.355 . S
C2503 C2505 1.419 . S
C2504 C2502 1.415 . S
C2504 C2509 1.425 . S
C2504 C2511 1.409 . S
C2505 H2497 0.930 . S
C2505 C2503 1.419 . S
C2505 C2506 1.362 . S
C2506 H2498 0.930 . S
C2506 C2505 1.362 . S
C2506 C2509 1.409 . S
C2507 H2499 0.930 . S
C2507 C2508 1.355 . S
C2507 C2509 1.415 . S
C2508 C2507 1.355 . S
C2508 C2510 1.419 . S
C2509 C2504 1.425 . S
C2509 C2506 1.409 . S
C2509 C2507 1.415 . S
C2510 H2500 0.930 . S
C2510 C2508 1.419 . S
C2510 C2511 1.362 . S
C2511 H2501 0.930 . S
C2511 C2504 1.409 . S
C2511 C2510 1.362 . S
H2512 C2518 0.930 . S
H2513 C2521 0.930 . S
H2514 C2522 0.930 . S
H2515 C2523 0.930 . S
H2516 C2526 0.930 . S
H2517 C2527 0.930 . S
C2518 H2512 0.930 . S
C2518 C2519 1.355 1_556 S
C2518 C2520 1.415 . S
C2519 C2518 1.355 1_554 S
C2519 C2521 1.419 . S
C2520 C2518 1.415 . S
C2520 C2525 1.425 1_556 S
C2520 C2527 1.409 . S
C2521 H2513 0.930 . S
C2521 C2519 1.419 . S
C2521 C2522 1.362 . S
C2522 H2514 0.930 . S
C2522 C2521 1.362 . S
C2522 C2525 1.409 . S
C2523 H2515 0.930 . S
C2523 C2524 1.355 1_554 S
C2523 C2525 1.415 . S
C2524 C2523 1.355 1_556 S
C2524 C2526 1.419 . S
C2525 C2520 1.425 1_554 S
C2525 C2522 1.409 . S
C2525 C2523 1.415 . S
C2526 H2516 0.930 . S
C2526 C2524 1.419 . S
C2526 C2527 1.362 . S
C2527 H2517 0.930 . S
C2527 C2520 1.409 . S
C2527 C2526 1.362 . S
H2528 C2534 0.930 . S
H2529 C2537 0.930 . S
H2530 C2538 0.930 . S
H2531 C2539 0.930 . S
H2532 C2542 0.930 . S
H2533 C2543 0.930 . S
C2534 H2528 0.930 . S
C2534 C2535 1.355 . S
C2534 C2536 1.415 . S
C2535 C2534 1.355 . S
C2535 C2537 1.419 . S
C2536 C2534 1.415 . S
C2536 C2541 1.425 . S
C2536 C2543 1.409 . S
C2537 H2529 0.930 . S
C2537 C2535 1.419 . S
C2537 C2538 1.362 . S
C2538 H2530 0.930 . S
C2538 C2537 1.362 . S
C2538 C2541 1.409 . S
C2539 H2531 0.930 . S
C2539 C2540 1.355 . S
C2539 C2541 1.415 . S
C2540 C2539 1.355 . S
C2540 C2542 1.419 . S
C2541 C2536 1.425 . S
C2541 C2538 1.409 . S
C2541 C2539 1.415 . S
C2542 H2532 0.930 . S
C2542 C2540 1.419 . S
C2542 C2543 1.362 . S
C2543 H2533 0.930 . S
C2543 C2536 1.409 . S
C2543 C2542 1.362 . S
H2544 C2550 0.930 . S
H2545 C2553 0.930 . S
H2546 C2554 0.930 . S
H2547 C2555 0.930 . S
H2548 C2558 0.930 . S
H2549 C2559 0.930 . S
C2550 H2544 0.930 . S
C2550 C2551 1.355 . S
C2550 C2552 1.415 . S
C2551 C2550 1.355 . S
C2551 C2553 1.419 . S
C2552 C2550 1.415 . S
C2552 C2557 1.425 . S
C2552 C2559 1.409 . S
C2553 H2545 0.930 . S
C2553 C2551 1.419 . S
C2553 C2554 1.362 . S
C2554 H2546 0.930 . S
C2554 C2553 1.362 . S
C2554 C2557 1.409 . S
C2555 H2547 0.930 . S
C2555 C2556 1.355 . S
C2555 C2557 1.415 . S
C2556 C2555 1.355 . S
C2556 C2558 1.419 . S
C2557 C2552 1.425 . S
C2557 C2554 1.409 . S
C2557 C2555 1.415 . S
C2558 H2548 0.930 . S
C2558 C2556 1.419 . S
C2558 C2559 1.362 . S
C2559 H2549 0.930 . S
C2559 C2552 1.409 . S
C2559 C2558 1.362 . S
H2560 C2566 0.930 . S
H2561 C2569 0.930 . S
H2562 C2570 0.930 . S
H2563 C2571 0.930 . S
H2564 C2574 0.930 . S
H2565 C2575 0.930 . S
C2566 H2560 0.930 . S
C2566 C2567 1.355 . S
C2566 C2568 1.415 . S
C2567 C2566 1.355 . S
C2567 C2569 1.419 . S
C2568 C2566 1.415 . S
C2568 C2573 1.425 . S
C2568 C2575 1.409 . S
C2569 H2561 0.930 . S
C2569 C2567 1.419 . S
C2569 C2570 1.362 . S
C2570 H2562 0.930 . S
C2570 C2569 1.362 . S
C2570 C2573 1.409 . S
C2571 H2563 0.930 . S
C2571 C2572 1.355 . S
C2571 C2573 1.415 . S
C2572 C2571 1.355 . S
C2572 C2574 1.419 . S
C2573 C2568 1.425 . S
C2573 C2570 1.409 . S
C2573 C2571 1.415 . S
C2574 H2564 0.930 . S
C2574 C2572 1.419 . S
C2574 C2575 1.362 . S
C2575 H2565 0.930 . S
C2575 C2568 1.409 . S
C2575 C2574 1.362 . S
H2576 C2582 0.930 . S
H2577 C2585 0.930 . S
H2578 C2586 0.930 . S
H2579 C2587 0.930 . S
H2580 C2590 0.930 . S
H2581 C2591 0.930 . S
C2582 H2576 0.930 . S
C2582 C2583 1.355 . S
C2582 C2584 1.415 . S
C2583 C2582 1.355 . S
C2583 C2585 1.419 . S
C2584 C2582 1.415 . S
C2584 C2589 1.425 . S
C2584 C2591 1.409 . S
C2585 H2577 0.930 . S
C2585 C2583 1.419 . S
C2585 C2586 1.362 . S
C2586 H2578 0.930 . S
C2586 C2585 1.362 . S
C2586 C2589 1.409 . S
C2587 H2579 0.930 . S
C2587 C2588 1.355 . S
C2587 C2589 1.415 . S
C2588 C2587 1.355 . S
C2588 C2590 1.419 . S
C2589 C2584 1.425 . S
C2589 C2586 1.409 . S
C2589 C2587 1.415 . S
C2590 H2580 0.930 . S
C2590 C2588 1.419 . S
C2590 C2591 1.362 . S
C2591 H2581 0.930 . S
C2591 C2584 1.409 . S
C2591 C2590 1.362 . S
H2592 C2598 0.930 . S
H2593 C2601 0.930 . S
H2594 C2602 0.930 . S
H2595 C2603 0.930 . S
H2596 C2606 0.930 . S
H2597 C2607 0.930 . S
C2598 H2592 0.930 . S
C2598 C2599 1.355 . S
C2598 C2600 1.415 . S
C2599 C2598 1.355 . S
C2599 C2601 1.419 . S
C2600 C2598 1.415 . S
C2600 C2605 1.425 . S
C2600 C2607 1.409 . S
C2601 H2593 0.930 . S
C2601 C2599 1.419 . S
C2601 C2602 1.362 . S
C2602 H2594 0.930 . S
C2602 C2601 1.362 . S
C2602 C2605 1.409 . S
C2603 H2595 0.930 . S
C2603 C2604 1.355 . S
C2603 C2605 1.415 . S
C2604 C2603 1.355 . S
C2604 C2606 1.419 . S
C2605 C2600 1.425 . S
C2605 C2602 1.409 . S
C2605 C2603 1.415 . S
C2606 H2596 0.930 . S
C2606 C2604 1.419 . S
C2606 C2607 1.362 . S
C2607 H2597 0.930 . S
C2607 C2600 1.409 . S
C2607 C2606 1.362 . S
H2608 C2614 0.930 . S
H2609 C2617 0.930 . S
H2610 C2618 0.930 . S
H2611 C2619 0.930 . S
H2612 C2622 0.930 . S
H2613 C2623 0.930 . S
C2614 H2608 0.930 . S
C2614 C2615 1.355 . S
C2614 C2616 1.415 . S
C2615 C2614 1.355 . S
C2615 C2617 1.419 . S
C2616 C2614 1.415 . S
C2616 C2621 1.425 . S
C2616 C2623 1.409 . S
C2617 H2609 0.930 . S
C2617 C2615 1.419 . S
C2617 C2618 1.362 . S
C2618 H2610 0.930 . S
C2618 C2617 1.362 . S
C2618 C2621 1.409 . S
C2619 H2611 0.930 . S
C2619 C2620 1.355 . S
C2619 C2621 1.415 . S
C2620 C2619 1.355 . S
C2620 C2622 1.419 . S
C2621 C2616 1.425 . S
C2621 C2618 1.409 . S
C2621 C2619 1.415 . S
C2622 H2612 0.930 . S
C2622 C2620 1.419 . S
C2622 C2623 1.362 . S
C2623 H2613 0.930 . S
C2623 C2616 1.409 . S
C2623 C2622 1.362 . S
H2624 C2630 0.930 . S
H2625 C2633 0.930 . S
H2626 C2634 0.930 . S
H2627 C2635 0.930 . S
H2628 C2638 0.930 . S
H2629 C2639 0.930 . S
C2630 H2624 0.930 . S
C2630 C2631 1.355 . S
C2630 C2632 1.415 . S
C2631 C2630 1.355 . S
C2631 C2633 1.419 . S
C2632 C2630 1.415 . S
C2632 C2637 1.425 . S
C2632 C2639 1.409 . S
C2633 H2625 0.930 . S
C2633 C2631 1.419 . S
C2633 C2634 1.362 . S
C2634 H2626 0.930 . S
C2634 C2633 1.362 . S
C2634 C2637 1.409 . S
C2635 H2627 0.930 . S
C2635 C2636 1.355 . S
C2635 C2637 1.415 . S
C2636 C2635 1.355 . S
C2636 C2638 1.419 . S
C2637 C2632 1.425 . S
C2637 C2634 1.409 . S
C2637 C2635 1.415 . S
C2638 H2628 0.930 . S
C2638 C2636 1.419 . S
C2638 C2639 1.362 . S
C2639 H2629 0.930 . S
C2639 C2632 1.409 . S
C2639 C2638 1.362 . S
H2640 C2646 0.930 . S
H2641 C2649 0.930 . S
H2642 C2650 0.930 . S
H2643 C2651 0.930 . S
H2644 C2654 0.930 . S
H2645 C2655 0.930 . S
C2646 H2640 0.930 . S
C2646 C2647 1.355 . S
C2646 C2648 1.415 . S
C2647 C2646 1.355 . S
C2647 C2649 1.419 . S
C2648 C2646 1.415 . S
C2648 C2653 1.425 . S
C2648 C2655 1.409 . S
C2649 H2641 0.930 . S
C2649 C2647 1.419 . S
C2649 C2650 1.362 . S
C2650 H2642 0.930 . S
C2650 C2649 1.362 . S
C2650 C2653 1.409 . S
C2651 H2643 0.930 . S
C2651 C2652 1.355 . S
C2651 C2653 1.415 . S
C2652 C2651 1.355 . S
C2652 C2654 1.419 . S
C2653 C2648 1.425 . S
C2653 C2650 1.409 . S
C2653 C2651 1.415 . S
C2654 H2644 0.930 . S
C2654 C2652 1.419 . S
C2654 C2655 1.362 . S
C2655 H2645 0.930 . S
C2655 C2648 1.409 . S
C2655 C2654 1.362 . S
H2656 C2662 0.930 . S
H2657 C2665 0.930 . S
H2658 C2666 0.930 . S
H2659 C2667 0.930 . S
H2660 C2670 0.930 . S
H2661 C2671 0.930 . S
C2662 H2656 0.930 . S
C2662 C2663 1.355 . S
C2662 C2664 1.415 . S
C2663 C2662 1.355 . S
C2663 C2665 1.419 . S
C2664 C2662 1.415 . S
C2664 C2669 1.425 . S
C2664 C2671 1.409 . S
C2665 H2657 0.930 . S
C2665 C2663 1.419 . S
C2665 C2666 1.362 . S
C2666 H2658 0.930 . S
C2666 C2665 1.362 . S
C2666 C2669 1.409 . S
C2667 H2659 0.930 . S
C2667 C2668 1.355 . S
C2667 C2669 1.415 . S
C2668 C2667 1.355 . S
C2668 C2670 1.419 . S
C2669 C2664 1.425 . S
C2669 C2666 1.409 . S
C2669 C2667 1.415 . S
C2670 H2660 0.930 . S
C2670 C2668 1.419 . S
C2670 C2671 1.362 . S
C2671 H2661 0.930 . S
C2671 C2664 1.409 . S
C2671 C2670 1.362 . S
H2672 C2678 0.930 . S
H2673 C2681 0.930 . S
H2674 C2682 0.930 . S
H2675 C2683 0.930 . S
H2676 C2686 0.930 . S
H2677 C2687 0.930 . S
C2678 H2672 0.930 . S
C2678 C2679 1.355 . S
C2678 C2680 1.415 . S
C2679 C2678 1.355 . S
C2679 C2681 1.419 . S
C2680 C2678 1.415 . S
C2680 C2685 1.425 . S
C2680 C2687 1.409 . S
C2681 H2673 0.930 . S
C2681 C2679 1.419 . S
C2681 C2682 1.362 . S
C2682 H2674 0.930 . S
C2682 C2681 1.362 . S
C2682 C2685 1.409 . S
C2683 H2675 0.930 . S
C2683 C2684 1.355 . S
C2683 C2685 1.415 . S
C2684 C2683 1.355 . S
C2684 C2686 1.419 . S
C2685 C2680 1.425 . S
C2685 C2682 1.409 . S
C2685 C2683 1.415 . S
C2686 H2676 0.930 . S
C2686 C2684 1.419 . S
C2686 C2687 1.362 . S
C2687 H2677 0.930 . S
C2687 C2680 1.409 . S
C2687 C2686 1.362 . S
H2688 C2694 0.930 . S
H2689 C2697 0.930 . S
H2690 C2698 0.930 . S
H2691 C2699 0.930 . S
H2692 C2702 0.930 . S
H2693 C2703 0.930 . S
C2694 H2688 0.930 . S
C2694 C2695 1.355 . S
C2694 C2696 1.415 . S
C2695 C2694 1.355 . S
C2695 C2697 1.419 . S
C2696 C2694 1.415 . S
C2696 C2701 1.425 . S
C2696 C2703 1.409 . S
C2697 H2689 0.930 . S
C2697 C2695 1.419 . S
C2697 C2698 1.362 . S
C2698 H2690 0.930 . S
C2698 C2697 1.362 . S
C2698 C2701 1.409 . S
C2699 H2691 0.930 . S
C2699 C2700 1.355 . S
C2699 C2701 1.415 . S
C2700 C2699 1.355 . S
C2700 C2702 1.419 . S
C2701 C2696 1.425 . S
C2701 C2698 1.409 . S
C2701 C2699 1.415 . S
C2702 H2692 0.930 . S
C2702 C2700 1.419 . S
C2702 C2703 1.362 . S
C2703 H2693 0.930 . S
C2703 C2696 1.409 . S
C2703 C2702 1.362 . S
H2704 C2710 0.930 . S
H2705 C2713 0.930 . S
H2706 C2714 0.930 . S
H2707 C2715 0.930 . S
H2708 C2718 0.930 . S
H2709 C2719 0.930 . S
C2710 H2704 0.930 . S
C2710 C2711 1.355 . S
C2710 C2712 1.415 . S
C2711 C2710 1.355 . S
C2711 C2713 1.419 . S
C2712 C2710 1.415 . S
C2712 C2717 1.425 . S
C2712 C2719 1.409 . S
C2713 H2705 0.930 . S
C2713 C2711 1.419 . S
C2713 C2714 1.362 . S
C2714 H2706 0.930 . S
C2714 C2713 1.362 . S
C2714 C2717 1.409 . S
C2715 H2707 0.930 . S
C2715 C2716 1.355 . S
C2715 C2717 1.415 . S
C2716 C2715 1.355 . S
C2716 C2718 1.419 . S
C2717 C2712 1.425 . S
C2717 C2714 1.409 . S
C2717 C2715 1.415 . S
C2718 H2708 0.930 . S
C2718 C2716 1.419 . S
C2718 C2719 1.362 . S
C2719 H2709 0.930 . S
C2719 C2712 1.409 . S
C2719 C2718 1.362 . S
H2720 C2726 0.930 . S
H2721 C2729 0.930 . S
H2722 C2730 0.930 . S
H2723 C2731 0.930 . S
H2724 C2734 0.930 . S
H2725 C2735 0.930 . S
C2726 H2720 0.930 . S
C2726 C2727 1.355 . S
C2726 C2728 1.415 . S
C2727 C2726 1.355 . S
C2727 C2729 1.419 . S
C2728 C2726 1.415 . S
C2728 C2733 1.425 . S
C2728 C2735 1.409 . S
C2729 H2721 0.930 . S
C2729 C2727 1.419 . S
C2729 C2730 1.362 . S
C2730 H2722 0.930 . S
C2730 C2729 1.362 . S
C2730 C2733 1.409 . S
C2731 H2723 0.930 . S
C2731 C2732 1.355 . S
C2731 C2733 1.415 . S
C2732 C2731 1.355 . S
C2732 C2734 1.419 . S
C2733 C2728 1.425 . S
C2733 C2730 1.409 . S
C2733 C2731 1.415 . S
C2734 H2724 0.930 . S
C2734 C2732 1.419 . S
C2734 C2735 1.362 . S
C2735 H2725 0.930 . S
C2735 C2728 1.409 . S
C2735 C2734 1.362 . S
H2736 C2742 0.930 . S
H2737 C2745 0.930 . S
H2738 C2746 0.930 . S
H2739 C2747 0.930 . S
H2740 C2750 0.930 . S
H2741 C2751 0.930 . S
C2742 H2736 0.930 . S
C2742 C2743 1.355 . S
C2742 C2744 1.415 . S
C2743 C2742 1.355 . S
C2743 C2745 1.419 . S
C2744 C2742 1.415 . S
C2744 C2749 1.425 . S
C2744 C2751 1.409 . S
C2745 H2737 0.930 . S
C2745 C2743 1.419 . S
C2745 C2746 1.362 . S
C2746 H2738 0.930 . S
C2746 C2745 1.362 . S
C2746 C2749 1.409 . S
C2747 H2739 0.930 . S
C2747 C2748 1.355 . S
C2747 C2749 1.415 . S
C2748 C2747 1.355 . S
C2748 C2750 1.419 . S
C2749 C2744 1.425 . S
C2749 C2746 1.409 . S
C2749 C2747 1.415 . S
C2750 H2740 0.930 . S
C2750 C2748 1.419 . S
C2750 C2751 1.362 . S
C2751 H2741 0.930 . S
C2751 C2744 1.409 . S
C2751 C2750 1.362 . S
H2752 C2758 0.930 . S
H2753 C2761 0.930 . S
H2754 C2762 0.930 . S
H2755 C2763 0.930 . S
H2756 C2766 0.930 . S
H2757 C2767 0.930 . S
C2758 H2752 0.930 . S
C2758 C2759 1.355 . S
C2758 C2760 1.415 . S
C2759 C2758 1.355 . S
C2759 C2761 1.419 . S
C2760 C2758 1.415 . S
C2760 C2765 1.425 . S
C2760 C2767 1.409 . S
C2761 H2753 0.930 . S
C2761 C2759 1.419 . S
C2761 C2762 1.362 . S
C2762 H2754 0.930 . S
C2762 C2761 1.362 . S
C2762 C2765 1.409 . S
C2763 H2755 0.930 . S
C2763 C2764 1.355 . S
C2763 C2765 1.415 . S
C2764 C2763 1.355 . S
C2764 C2766 1.419 . S
C2765 C2760 1.425 . S
C2765 C2762 1.409 . S
C2765 C2763 1.415 . S
C2766 H2756 0.930 . S
C2766 C2764 1.419 . S
C2766 C2767 1.362 . S
C2767 H2757 0.930 . S
C2767 C2760 1.409 . S
C2767 C2766 1.362 . S
H2768 C2774 0.930 . S
H2769 C2777 0.930 . S
H2770 C2778 0.930 . S
H2771 C2779 0.930 . S
H2772 C2782 0.930 . S
H2773 C2783 0.930 . S
C2774 H2768 0.930 . S
C2774 C2775 1.355 . S
C2774 C2776 1.415 . S
C2775 C2774 1.355 . S
C2775 C2777 1.419 . S
C2776 C2774 1.415 . S
C2776 C2781 1.425 . S
C2776 C2783 1.409 . S
C2777 H2769 0.930 . S
C2777 C2775 1.419 . S
C2777 C2778 1.362 . S
C2778 H2770 0.930 . S
C2778 C2777 1.362 . S
C2778 C2781 1.409 . S
C2779 H2771 0.930 . S
C2779 C2780 1.355 . S
C2779 C2781 1.415 . S
C2780 C2779 1.355 . S
C2780 C2782 1.419 . S
C2781 C2776 1.425 . S
C2781 C2778 1.409 . S
C2781 C2779 1.415 . S
C2782 H2772 0.930 . S
C2782 C2780 1.419 . S
C2782 C2783 1.362 . S
C2783 H2773 0.930 . S
C2783 C2776 1.409 . S
C2783 C2782 1.362 . S
H2784 C2790 0.930 . S
H2785 C2793 0.930 . S
H2786 C2794 0.930 . S
H2787 C2795 0.930 . S
H2788 C2798 0.930 . S
H2789 C2799 0.930 . S
C2790 H2784 0.930 . S
C2790 C2791 1.355 . S
C2790 C2792 1.415 . S
C2791 C2790 1.355 . S
C2791 C2793 1.419 . S
C2792 C2790 1.415 . S
C2792 C2797 1.425 . S
C2792 C2799 1.409 . S
C2793 H2785 0.930 . S
C2793 C2791 1.419 . S
C2793 C2794 1.362 . S
C2794 H2786 0.930 . S
C2794 C2793 1.362 . S
C2794 C2797 1.409 . S
C2795 H2787 0.930 . S
C2795 C2796 1.355 . S
C2795 C2797 1.415 . S
C2796 C2795 1.355 . S
C2796 C2798 1.419 . S
C2797 C2792 1.425 . S
C2797 C2794 1.409 . S
C2797 C2795 1.415 . S
C2798 H2788 0.930 . S
C2798 C2796 1.419 . S
C2798 C2799 1.362 . S
C2799 H2789 0.930 . S
C2799 C2792 1.409 . S
C2799 C2798 1.362 . S
H2800 C2806 0.930 . S
H2801 C2809 0.930 . S
H2802 C2810 0.930 . S
H2803 C2811 0.930 . S
H2804 C2814 0.930 . S
H2805 C2815 0.930 . S
C2806 H2800 0.930 . S
C2806 C2807 1.355 . S
C2806 C2808 1.415 . S
C2807 C2806 1.355 . S
C2807 C2809 1.419 . S
C2808 C2806 1.415 . S
C2808 C2813 1.425 . S
C2808 C2815 1.409 . S
C2809 H2801 0.930 . S
C2809 C2807 1.419 . S
C2809 C2810 1.362 . S
C2810 H2802 0.930 . S
C2810 C2809 1.362 . S
C2810 C2813 1.409 . S
C2811 H2803 0.930 . S
C2811 C2812 1.355 . S
C2811 C2813 1.415 . S
C2812 C2811 1.355 . S
C2812 C2814 1.419 . S
C2813 C2808 1.425 . S
C2813 C2810 1.409 . S
C2813 C2811 1.415 . S
C2814 H2804 0.930 . S
C2814 C2812 1.419 . S
C2814 C2815 1.362 . S
C2815 H2805 0.930 . S
C2815 C2808 1.409 . S
C2815 C2814 1.362 . S
C1287 C7 1.047 . S
C1292 C131 1.062 . S
C1303 C11 0.957 . S
C1308 C47 1.061 1_545 S
C1319 C87 1.046 . S
C1324 C51 1.073 . S
C1335 C91 1.017 . S
C1340 C127 1.054 1_565 S
C1351 C211 0.957 . S
C1356 C167 1.064 . S
C1367 C207 1.048 1_545 S
C1372 C251 1.038 . S
C1383 C291 0.957 . S
C1388 C247 1.064 . S
C1399 C171 1.072 . S
C1404 C287 1.044 1_565 S
C1415 C336 1.048 . S
C1420 C442 1.067 . S
C1431 C376 1.058 1_565 S
C1436 C322 0.990 . S
C1447 C416 1.056 . S
C1452 C362 1.002 . S
C1463 C456 1.053 1_545 S
C1468 C402 1.025 . S
C1479 C496 1.063 . S
C1484 C522 0.967 . S
C1495 C536 1.053 1_565 S
C1500 C562 1.021 . S
C1511 C602 1.073 . S
C1516 C576 1.046 . S
C1527 C482 0.975 . S
C1532 C616 1.058 1_545 S
C1543 C647 1.048 . S
C1548 C771 1.050 . S
C1559 C651 0.959 . S
C1564 C687 1.063 . S
C1575 C691 0.982 . S
C1580 C727 1.059 . S
C1591 C767 1.052 . S
C1596 C731 1.043 . S
C1607 C807 1.063 . S
C1612 C851 0.969 . S
C1623 C891 0.980 . S
C1628 C847 1.062 . S
C1639 C887 1.063 . S
C1644 C931 0.970 . S
C1655 C811 1.022 . S
C1660 C927 1.053 . S
C1671 C1082 1.062 . S
C1676 C976 1.047 . S
C1687 C962 1.071 . S
C1692 C1016 1.046 . S
C1703 C1056 1.061 . S
C1708 C1002 0.971 . S
C1719 C1042 1.072 . S
C1724 C1096 1.046 . S
C1735 C1162 0.960 . S
C1740 C1136 1.064 . S
C1751 C1202 1.053 . S
C1756 C1176 1.050 . S
C1767 C1242 0.984 . S
C1772 C1216 1.061 . S
C1783 C1256 1.064 . S
C1788 C1122 0.957 . S
C1799 C1087 1.586 . S
C1804 C10 1.553 . S
C1815 C50 1.527 . S
C1820 C327 1.597 1_455 S
C1831 C90 1.579 . S
C1836 C1007 1.617 . S
C1847 C130 1.509 . S
C1852 C407 1.579 . S
C1863 C170 1.529 . S
C1868 C1167 1.598 . S
C1879 C567 1.574 . S
C1884 C210 1.516 . S
C1895 C1247 1.601 . S
C1900 C250 1.575 . S
C1911 C290 1.554 . S
C1916 C487 1.587 1_455 S
C1927 C339 1.510 . S
C1932 C776 1.575 . S
C1943 C16 1.604 1_655 S
C1948 C379 1.539 . S
C1959 C696 1.577 . S
C1964 C419 1.509 . S
C1975 C96 1.590 . S
C1980 C459 1.518 . S
C1991 C856 1.608 . S
C1996 C499 1.582 . S
C2007 C256 1.593 . S
C2012 C539 1.521 . S
C2023 C579 1.545 . S
C2028 C936 1.607 . S
C2039 C619 1.576 . S
C2044 C176 1.618 1_655 S
C2055 C650 1.573 . S
C2060 C447 1.599 . S
C2071 C690 1.553 . S
C2076 C967 1.611 . S
C2087 C730 1.566 . S
C2092 C367 1.594 . S
C2103 C770 1.517 . S
C2108 C1047 1.590 1_655 S
C2119 C810 1.560 . S
C2124 C527 1.590 . S
C2135 C850 1.515 . S
C2140 C1207 1.587 1_655 S
C2151 C607 1.576 . S
C2156 C890 1.509 . S
C2167 C930 1.584 . S
C2172 C1127 1.613 . S
C2183 C136 1.575 . S
C2188 C979 1.511 . S
C2199 C656 1.578 . S
C2204 C1019 1.535 . S
C2215 C56 1.589 . S
C2220 C1059 1.516 . S
C2231 C736 1.618 1_455 S
C2236 C1099 1.577 . S
C2247 C216 1.573 . S
C2252 C1139 1.514 . S
C2263 C1179 1.583 . S
C2268 C896 1.616 1_455 S
C2279 C1219 1.555 . S
C2284 C296 1.587 . S
C2295 C816 1.607 . S
C2300 C1259 1.545 . S
C2311 C19 0.983 . S
C2316 C179 0.937 . S
C2327 C59 0.983 . S
C2332 C219 0.929 . S
C2343 C99 0.964 . S
C2348 C259 0.977 . S
C2359 C299 0.973 1_554 S
C2364 C139 0.902 1_556 S
C2375 C490 0.926 . S
C2380 C330 0.982 . S
C2391 C530 0.960 . S
C2396 C370 0.979 . S
C2407 C410 0.904 . S
C2412 C570 0.974 . S
C2423 C450 0.978 1_554 S
C2428 C610 0.963 1_556 S
C2439 C659 0.939 . S
C2444 C819 0.866 . S
C2455 C859 0.858 1_554 S
C2460 C699 0.922 1_556 S
C2471 C899 0.973 . S
C2476 C739 0.901 . S
C2487 C939 0.955 . S
C2492 C779 0.878 . S
C2503 C1130 0.918 . S
C2508 C970 0.980 . S
C2519 C1010 0.908 1_554 S
C2524 C1170 0.976 1_556 S
C2535 C1210 0.937 . S
C2540 C1050 0.864 . S
C2551 C1090 0.903 . S
C2556 C1250 0.855 . S
C2567 C282 2.731 . S
C2572 C2 2.731 . S
C2583 C42 2.730 . S
C2588 C162 2.726 . S
C2599 C82 2.721 . S
C2604 C202 2.720 . S
C2615 C242 2.726 . S
C2620 C122 2.730 . S
C2631 C331 2.731 . S
C2636 C611 2.730 . S
C2647 C491 2.730 . S
C2652 C371 2.731 . S
C2663 C531 2.726 . S
C2668 C411 2.721 . S
C2679 C451 2.731 . S
C2684 C571 2.727 . S
C2695 C642 2.726 . S
C2700 C922 2.730 . S
C2711 C802 2.720 . S
C2716 C682 2.724 . S
C2727 C842 2.731 . S
C2732 C722 2.727 . S
C2743 C882 2.729 . S
C2748 C762 2.731 . S
C2759 C971 2.729 . S
C2764 C1251 2.731 . S
C2775 C1131 2.725 . S
C2780 C1011 2.721 . S
C2791 C1051 2.727 . S
C2796 C1171 2.722 . S
C2807 C1211 2.731 . S
C2812 C1091 2.728 . S
