# Generated by pormake.
# Topology wna, (6)-cn, num edge types: 1
# Building blocks:
#     Node 0, Type 0, BuildingBlock: BETDIP_clean_sbu_0, # of connection points: 6
#     Node 1, Type 0, BuildingBlock: BETDIP_clean_sbu_0, # of connection points: 6
#     Node 2, Type 0, BuildingBlock: BETDIP_clean_sbu_0, # of connection points: 6
#     Node 3, Type 0, BuildingBlock: BETDIP_clean_sbu_0, # of connection points: 6
#     Node 4, Type 0, BuildingBlock: BETDIP_clean_sbu_0, # of connection points: 6
#     Node 5, Type 0, BuildingBlock: BETDIP_clean_sbu_0, # of connection points: 6
#     Node 6, Type 0, BuildingBlock: BETDIP_clean_sbu_0, # of connection points: 6
#     Node 7, Type 0, BuildingBlock: BETDIP_clean_sbu_0, # of connection points: 6
#     Node 8, Type 0, BuildingBlock: BETDIP_clean_sbu_0, # of connection points: 6
#     Node 9, Type 0, BuildingBlock: BETDIP_clean_sbu_0, # of connection points: 6
#     Node 10, Type 0, BuildingBlock: BETDIP_clean_sbu_0, # of connection points: 6
#     Node 11, Type 0, BuildingBlock: BETDIP_clean_sbu_0, # of connection points: 6
#     Node 12, Type 0, BuildingBlock: BETDIP_clean_sbu_0, # of connection points: 6
#     Node 13, Type 0, BuildingBlock: BETDIP_clean_sbu_0, # of connection points: 6
#     Node 14, Type 0, BuildingBlock: BETDIP_clean_sbu_0, # of connection points: 6
#     Node 15, Type 0, BuildingBlock: BETDIP_clean_sbu_0, # of connection points: 6
#     Node 16, Type 0, BuildingBlock: BETDIP_clean_sbu_0, # of connection points: 6
#     Node 17, Type 0, BuildingBlock: BETDIP_clean_sbu_0, # of connection points: 6
#     Node 18, Type 0, BuildingBlock: BETDIP_clean_sbu_0, # of connection points: 6
#     Node 19, Type 0, BuildingBlock: BETDIP_clean_sbu_0, # of connection points: 6
#     Node 20, Type 0, BuildingBlock: BETDIP_clean_sbu_0, # of connection points: 6
#     Node 21, Type 0, BuildingBlock: BETDIP_clean_sbu_0, # of connection points: 6
#     Node 22, Type 0, BuildingBlock: BETDIP_clean_sbu_0, # of connection points: 6
#     Node 23, Type 0, BuildingBlock: BETDIP_clean_sbu_0, # of connection points: 6
#     Node 24, Type 0, BuildingBlock: BETDIP_clean_sbu_0, # of connection points: 6
#     Node 25, Type 0, BuildingBlock: BETDIP_clean_sbu_0, # of connection points: 6
#     Node 26, Type 0, BuildingBlock: BETDIP_clean_sbu_0, # of connection points: 6
#     Node 27, Type 0, BuildingBlock: BETDIP_clean_sbu_0, # of connection points: 6
#     Node 28, Type 0, BuildingBlock: BETDIP_clean_sbu_0, # of connection points: 6
#     Node 29, Type 0, BuildingBlock: BETDIP_clean_sbu_0, # of connection points: 6
#     Node 30, Type 0, BuildingBlock: BETDIP_clean_sbu_0, # of connection points: 6
#     Node 31, Type 0, BuildingBlock: BETDIP_clean_sbu_0, # of connection points: 6
#     Node 32, Type 0, BuildingBlock: BETDIP_clean_sbu_0, # of connection points: 6
#     Node 33, Type 0, BuildingBlock: BETDIP_clean_sbu_0, # of connection points: 6
#     Node 34, Type 0, BuildingBlock: BETDIP_clean_sbu_0, # of connection points: 6
#     Node 35, Type 0, BuildingBlock: BETDIP_clean_sbu_0, # of connection points: 6
#     Edge 36, Type (0, 0), BuildingBlock: CIFDUS_clean_linker_0, # of connection points: 2
#     Edge 37, Type (0, 0), BuildingBlock: CIFDUS_clean_linker_0, # of connection points: 2
#     Edge 38, Type (0, 0), BuildingBlock: CIFDUS_clean_linker_0, # of connection points: 2
#     Edge 39, Type (0, 0), BuildingBlock: CIFDUS_clean_linker_0, # of connection points: 2
#     Edge 40, Type (0, 0), BuildingBlock: CIFDUS_clean_linker_0, # of connection points: 2
#     Edge 41, Type (0, 0), BuildingBlock: CIFDUS_clean_linker_0, # of connection points: 2
#     Edge 42, Type (0, 0), BuildingBlock: CIFDUS_clean_linker_0, # of connection points: 2
#     Edge 43, Type (0, 0), BuildingBlock: CIFDUS_clean_linker_0, # of connection points: 2
#     Edge 44, Type (0, 0), BuildingBlock: CIFDUS_clean_linker_0, # of connection points: 2
#     Edge 45, Type (0, 0), BuildingBlock: CIFDUS_clean_linker_0, # of connection points: 2
#     Edge 46, Type (0, 0), BuildingBlock: CIFDUS_clean_linker_0, # of connection points: 2
#     Edge 47, Type (0, 0), BuildingBlock: CIFDUS_clean_linker_0, # of connection points: 2
#     Edge 48, Type (0, 0), BuildingBlock: CIFDUS_clean_linker_0, # of connection points: 2
#     Edge 49, Type (0, 0), BuildingBlock: CIFDUS_clean_linker_0, # of connection points: 2
#     Edge 50, Type (0, 0), BuildingBlock: CIFDUS_clean_linker_0, # of connection points: 2
#     Edge 51, Type (0, 0), BuildingBlock: CIFDUS_clean_linker_0, # of connection points: 2
#     Edge 52, Type (0, 0), BuildingBlock: CIFDUS_clean_linker_0, # of connection points: 2
#     Edge 53, Type (0, 0), BuildingBlock: CIFDUS_clean_linker_0, # of connection points: 2
#     Edge 54, Type (0, 0), BuildingBlock: CIFDUS_clean_linker_0, # of connection points: 2
#     Edge 55, Type (0, 0), BuildingBlock: CIFDUS_clean_linker_0, # of connection points: 2
#     Edge 56, Type (0, 0), BuildingBlock: CIFDUS_clean_linker_0, # of connection points: 2
#     Edge 57, Type (0, 0), BuildingBlock: CIFDUS_clean_linker_0, # of connection points: 2
#     Edge 58, Type (0, 0), BuildingBlock: CIFDUS_clean_linker_0, # of connection points: 2
#     Edge 59, Type (0, 0), BuildingBlock: CIFDUS_clean_linker_0, # of connection points: 2
#     Edge 60, Type (0, 0), BuildingBlock: CIFDUS_clean_linker_0, # of connection points: 2
#     Edge 61, Type (0, 0), BuildingBlock: CIFDUS_clean_linker_0, # of connection points: 2
#     Edge 62, Type (0, 0), BuildingBlock: CIFDUS_clean_linker_0, # of connection points: 2
#     Edge 63, Type (0, 0), BuildingBlock: CIFDUS_clean_linker_0, # of connection points: 2
#     Edge 64, Type (0, 0), BuildingBlock: CIFDUS_clean_linker_0, # of connection points: 2
#     Edge 65, Type (0, 0), BuildingBlock: CIFDUS_clean_linker_0, # of connection points: 2
#     Edge 66, Type (0, 0), BuildingBlock: CIFDUS_clean_linker_0, # of connection points: 2
#     Edge 67, Type (0, 0), BuildingBlock: CIFDUS_clean_linker_0, # of connection points: 2
#     Edge 68, Type (0, 0), BuildingBlock: CIFDUS_clean_linker_0, # of connection points: 2
#     Edge 69, Type (0, 0), BuildingBlock: CIFDUS_clean_linker_0, # of connection points: 2
#     Edge 70, Type (0, 0), BuildingBlock: CIFDUS_clean_linker_0, # of connection points: 2
#     Edge 71, Type (0, 0), BuildingBlock: CIFDUS_clean_linker_0, # of connection points: 2
#     Edge 72, Type (0, 0), BuildingBlock: CIFDUS_clean_linker_0, # of connection points: 2
#     Edge 73, Type (0, 0), BuildingBlock: CIFDUS_clean_linker_0, # of connection points: 2
#     Edge 74, Type (0, 0), BuildingBlock: CIFDUS_clean_linker_0, # of connection points: 2
#     Edge 75, Type (0, 0), BuildingBlock: CIFDUS_clean_linker_0, # of connection points: 2
#     Edge 76, Type (0, 0), BuildingBlock: CIFDUS_clean_linker_0, # of connection points: 2
#     Edge 77, Type (0, 0), BuildingBlock: CIFDUS_clean_linker_0, # of connection points: 2
#     Edge 78, Type (0, 0), BuildingBlock: CIFDUS_clean_linker_0, # of connection points: 2
#     Edge 79, Type (0, 0), BuildingBlock: CIFDUS_clean_linker_0, # of connection points: 2
#     Edge 80, Type (0, 0), BuildingBlock: CIFDUS_clean_linker_0, # of connection points: 2
#     Edge 81, Type (0, 0), BuildingBlock: CIFDUS_clean_linker_0, # of connection points: 2
#     Edge 82, Type (0, 0), BuildingBlock: CIFDUS_clean_linker_0, # of connection points: 2
#     Edge 83, Type (0, 0), BuildingBlock: CIFDUS_clean_linker_0, # of connection points: 2
#     Edge 84, Type (0, 0), BuildingBlock: CIFDUS_clean_linker_0, # of connection points: 2
#     Edge 85, Type (0, 0), BuildingBlock: CIFDUS_clean_linker_0, # of connection points: 2
#     Edge 86, Type (0, 0), BuildingBlock: CIFDUS_clean_linker_0, # of connection points: 2
#     Edge 87, Type (0, 0), BuildingBlock: CIFDUS_clean_linker_0, # of connection points: 2
#     Edge 88, Type (0, 0), BuildingBlock: CIFDUS_clean_linker_0, # of connection points: 2
#     Edge 89, Type (0, 0), BuildingBlock: CIFDUS_clean_linker_0, # of connection points: 2
#     Edge 90, Type (0, 0), BuildingBlock: CIFDUS_clean_linker_0, # of connection points: 2
#     Edge 91, Type (0, 0), BuildingBlock: CIFDUS_clean_linker_0, # of connection points: 2
#     Edge 92, Type (0, 0), BuildingBlock: CIFDUS_clean_linker_0, # of connection points: 2
#     Edge 93, Type (0, 0), BuildingBlock: CIFDUS_clean_linker_0, # of connection points: 2
#     Edge 94, Type (0, 0), BuildingBlock: CIFDUS_clean_linker_0, # of connection points: 2
#     Edge 95, Type (0, 0), BuildingBlock: CIFDUS_clean_linker_0, # of connection points: 2
#     Edge 96, Type (0, 0), BuildingBlock: CIFDUS_clean_linker_0, # of connection points: 2
#     Edge 97, Type (0, 0), BuildingBlock: CIFDUS_clean_linker_0, # of connection points: 2
#     Edge 98, Type (0, 0), BuildingBlock: CIFDUS_clean_linker_0, # of connection points: 2
#     Edge 99, Type (0, 0), BuildingBlock: CIFDUS_clean_linker_0, # of connection points: 2
#     Edge 100, Type (0, 0), BuildingBlock: CIFDUS_clean_linker_0, # of connection points: 2
#     Edge 101, Type (0, 0), BuildingBlock: CIFDUS_clean_linker_0, # of connection points: 2
#     Edge 102, Type (0, 0), BuildingBlock: CIFDUS_clean_linker_0, # of connection points: 2
#     Edge 103, Type (0, 0), BuildingBlock: CIFDUS_clean_linker_0, # of connection points: 2
#     Edge 104, Type (0, 0), BuildingBlock: CIFDUS_clean_linker_0, # of connection points: 2
#     Edge 105, Type (0, 0), BuildingBlock: CIFDUS_clean_linker_0, # of connection points: 2
#     Edge 106, Type (0, 0), BuildingBlock: CIFDUS_clean_linker_0, # of connection points: 2
#     Edge 107, Type (0, 0), BuildingBlock: CIFDUS_clean_linker_0, # of connection points: 2
#     Edge 108, Type (0, 0), BuildingBlock: CIFDUS_clean_linker_0, # of connection points: 2
#     Edge 109, Type (0, 0), BuildingBlock: CIFDUS_clean_linker_0, # of connection points: 2
#     Edge 110, Type (0, 0), BuildingBlock: CIFDUS_clean_linker_0, # of connection points: 2
#     Edge 111, Type (0, 0), BuildingBlock: CIFDUS_clean_linker_0, # of connection points: 2
#     Edge 112, Type (0, 0), BuildingBlock: CIFDUS_clean_linker_0, # of connection points: 2
#     Edge 113, Type (0, 0), BuildingBlock: CIFDUS_clean_linker_0, # of connection points: 2
#     Edge 114, Type (0, 0), BuildingBlock: CIFDUS_clean_linker_0, # of connection points: 2
#     Edge 115, Type (0, 0), BuildingBlock: CIFDUS_clean_linker_0, # of connection points: 2
#     Edge 116, Type (0, 0), BuildingBlock: CIFDUS_clean_linker_0, # of connection points: 2
#     Edge 117, Type (0, 0), BuildingBlock: CIFDUS_clean_linker_0, # of connection points: 2
#     Edge 118, Type (0, 0), BuildingBlock: CIFDUS_clean_linker_0, # of connection points: 2
#     Edge 119, Type (0, 0), BuildingBlock: CIFDUS_clean_linker_0, # of connection points: 2
#     Edge 120, Type (0, 0), BuildingBlock: CIFDUS_clean_linker_0, # of connection points: 2
#     Edge 121, Type (0, 0), BuildingBlock: CIFDUS_clean_linker_0, # of connection points: 2
#     Edge 122, Type (0, 0), BuildingBlock: CIFDUS_clean_linker_0, # of connection points: 2
#     Edge 123, Type (0, 0), BuildingBlock: CIFDUS_clean_linker_0, # of connection points: 2
#     Edge 124, Type (0, 0), BuildingBlock: CIFDUS_clean_linker_0, # of connection points: 2
#     Edge 125, Type (0, 0), BuildingBlock: CIFDUS_clean_linker_0, # of connection points: 2
#     Edge 126, Type (0, 0), BuildingBlock: CIFDUS_clean_linker_0, # of connection points: 2
#     Edge 127, Type (0, 0), BuildingBlock: CIFDUS_clean_linker_0, # of connection points: 2
#     Edge 128, Type (0, 0), BuildingBlock: CIFDUS_clean_linker_0, # of connection points: 2
#     Edge 129, Type (0, 0), BuildingBlock: CIFDUS_clean_linker_0, # of connection points: 2
#     Edge 130, Type (0, 0), BuildingBlock: CIFDUS_clean_linker_0, # of connection points: 2
#     Edge 131, Type (0, 0), BuildingBlock: CIFDUS_clean_linker_0, # of connection points: 2
#     Edge 132, Type (0, 0), BuildingBlock: CIFDUS_clean_linker_0, # of connection points: 2
#     Edge 133, Type (0, 0), BuildingBlock: CIFDUS_clean_linker_0, # of connection points: 2
#     Edge 134, Type (0, 0), BuildingBlock: CIFDUS_clean_linker_0, # of connection points: 2
#     Edge 135, Type (0, 0), BuildingBlock: CIFDUS_clean_linker_0, # of connection points: 2
#     Edge 136, Type (0, 0), BuildingBlock: CIFDUS_clean_linker_0, # of connection points: 2
#     Edge 137, Type (0, 0), BuildingBlock: CIFDUS_clean_linker_0, # of connection points: 2
#     Edge 138, Type (0, 0), BuildingBlock: CIFDUS_clean_linker_0, # of connection points: 2
#     Edge 139, Type (0, 0), BuildingBlock: CIFDUS_clean_linker_0, # of connection points: 2
#     Edge 140, Type (0, 0), BuildingBlock: CIFDUS_clean_linker_0, # of connection points: 2
#     Edge 141, Type (0, 0), BuildingBlock: CIFDUS_clean_linker_0, # of connection points: 2
#     Edge 142, Type (0, 0), BuildingBlock: CIFDUS_clean_linker_0, # of connection points: 2
#     Edge 143, Type (0, 0), BuildingBlock: CIFDUS_clean_linker_0, # of connection points: 2
# Relax obj value: 0.160
# Max RMSD: 0.233
# Mean RMSD: 0.215
data_MOF--net-wna--node1-BETDIP_clean_sbu_0--edge1-CIFDUS_clean_linker_0
_symmetry_space_group_name_H-M    P1
_symmetry_Int_Tables_number       1
_symmetry_cell_setting            triclinic
loop_
_symmetry_equiv_pos_as_xyz
'x, y, z'
_cell_length_a     35.312804
_cell_length_b     35.321436
_cell_length_c     139.17655
_cell_angle_alpha  90.071151
_cell_angle_beta   89.925329
_cell_angle_gamma 120.00209
loop_
_atom_site_label
_atom_site_type_symbol
_atom_site_fract_x
_atom_site_fract_y
_atom_site_fract_z
_atom_type_partial_charge
Tb0 Tb 0.14299 0.27122 0.17914 0.0
Tb1 Tb 0.14071 0.25481 0.20028 0.0
C2 C 0.14483 0.3034 0.16287 0.0
C3 C 0.16811 0.31639 0.15357 0.0
C4 C 0.16886 0.35095 0.14846 0.0
C5 C 0.18142 0.35793 0.13879 0.0
C6 C 0.19325 0.33023 0.134 0.0
C7 C 0.19518 0.29736 0.13932 0.0
C8 C 0.1828 0.29053 0.14902 0.0
C9 C 0.15649 0.20608 0.18354 0.0
C10 C 0.23305 0.31757 0.19072 0.0
C11 C 0.13345 0.2253 0.21716 0.0
C12 C 0.10794 0.21623 0.22617 0.0
C13 C 0.09857 0.17878 0.23147 0.0
C14 C 0.07791 0.17083 0.24043 0.0
C15 C 0.06613 0.20026 0.24435 0.0
C16 C 0.07463 0.23735 0.23891 0.0
C17 C 0.09536 0.24529 0.22991 0.0
C18 C 0.12358 0.31814 0.19539 0.0
C19 C 0.05673 0.1957 0.18753 0.0
O20 O 0.16334 0.32744 0.1705 0.0
O21 O 0.12407 0.2616 0.16478 0.0
O22 O 0.1686 0.24047 0.1883 0.0
O23 O 0.14262 0.21074 0.17527 0.0
O24 O 0.21114 0.31948 0.18316 0.0
O25 O 0.21198 0.2889 0.19771 0.0
O26 O 0.1136 0.20087 0.2097 0.0
O27 O 0.15914 0.26618 0.21479 0.0
O28 O 0.11148 0.28266 0.19105 0.0
O29 O 0.14273 0.31691 0.20318 0.0
O30 O 0.07869 0.19821 0.19544 0.0
O31 O 0.07326 0.22717 0.18105 0.0
H32 H 0.15725 0.37102 0.15179 0.0
H33 H 0.17919 0.38331 0.13491 0.0
H34 H 0.20478 0.27589 0.1359 0.0
H35 H 0.18253 0.2636 0.15279 0.0
H36 H 0.10796 0.15589 0.22874 0.0
H37 H 0.07119 0.14152 0.2443 0.0
H38 H 0.06633 0.26092 0.2417 0.0
H39 H 0.10229 0.27452 0.22598 0.0
Tb40 Tb 0.77576 0.88137 0.17742 0.0
Tb41 Tb 0.79206 0.90569 0.19935 0.0
C42 C 0.74497 0.84441 0.16153 0.0
C43 C 0.72861 0.8495 0.1521 0.0
C44 C 0.69105 0.81376 0.14824 0.0
C45 C 0.67796 0.81492 0.13882 0.0
C46 C 0.70223 0.85191 0.13297 0.0
C47 C 0.73916 0.88831 0.13696 0.0
C48 C 0.75221 0.88715 0.14643 0.0
C49 C 0.83857 0.96246 0.1814 0.0
C50 C 0.72147 0.92031 0.18769 0.0
C51 C 0.8216 0.94255 0.21524 0.0
C52 C 0.83047 0.93012 0.22476 0.0
C53 C 0.86739 0.96034 0.22993 0.0
C54 C 0.87679 0.94942 0.23892 0.0
C55 C 0.84935 0.90796 0.24297 0.0
C56 C 0.8122 0.87774 0.23779 0.0
C57 C 0.80294 0.88864 0.22875 0.0
C58 C 0.74007 0.81897 0.19699 0.0
C59 C 0.8499 0.87533 0.18784 0.0
O60 O 0.72074 0.83848 0.16915 0.0
O61 O 0.78676 0.86953 0.16327 0.0
O62 O 0.80388 0.93955 0.18605 0.0
O63 O 0.83617 0.94197 0.17349 0.0
O64 O 0.72714 0.90141 0.17998 0.0
O65 O 0.74534 0.92806 0.19565 0.0
O66 O 0.8465 0.94325 0.20816 0.0
O67 O 0.7804 0.92515 0.21272 0.0
O68 O 0.75782 0.84853 0.19077 0.0
O69 O 0.75183 0.83882 0.20517 0.0
O70 O 0.84924 0.90094 0.19475 0.0
O71 O 0.81718 0.85521 0.1817 0.0
H72 H 0.67262 0.78417 0.15242 0.0
H73 H 0.64973 0.78604 0.13598 0.0
H74 H 0.7583 0.91755 0.13273 0.0
H75 H 0.7814 0.91523 0.1492 0.0
H76 H 0.88903 0.99252 0.22699 0.0
H77 H 0.90537 0.97366 0.24276 0.0
H78 H 0.79068 0.84538 0.24064 0.0
H79 H 0.77437 0.86459 0.22488 0.0
Tb80 Tb 0.16308 0.90579 0.1787 0.0
Tb81 Tb 0.14931 0.90693 0.19993 0.0
C82 C 0.19132 0.90445 0.16205 0.0
C83 C 0.18093 0.88409 0.15232 0.0
C84 C 0.20196 0.86179 0.14895 0.0
C85 C 0.19948 0.85015 0.13922 0.0
C86 C 0.1763 0.86098 0.13256 0.0
C87 C 0.15381 0.88172 0.13606 0.0
C88 C 0.15604 0.89304 0.14578 0.0
C89 C 0.08518 0.89452 0.18341 0.0
C90 C 0.11995 0.81592 0.19018 0.0
C91 C 0.12724 0.91354 0.21691 0.0
C92 C 0.14421 0.93801 0.22601 0.0
C93 C 0.11494 0.94161 0.23224 0.0
C94 C 0.1288 0.96181 0.24122 0.0
C95 C 0.17243 0.97896 0.24421 0.0
C96 C 0.20203 0.97607 0.23784 0.0
C97 C 0.18804 0.95573 0.22883 0.0
C98 C 0.22863 0.92112 0.19494 0.0
C99 C 0.17865 0.9926 0.18768 0.0
O100 O 0.19505 0.88314 0.16936 0.0
O101 O 0.17315 0.92742 0.1645 0.0
O102 O 0.10662 0.8808 0.18796 0.0
O103 O 0.10404 0.90897 0.1752 0.0
O104 O 0.14411 0.83804 0.18267 0.0
O105 O 0.11145 0.83642 0.19712 0.0
O106 O 0.12384 0.9347 0.20957 0.0
O107 O 0.14143 0.88721 0.21436 0.0
O108 O 0.20644 0.93485 0.19067 0.0
O109 O 0.20789 0.90227 0.20271 0.0
O110 O 0.15736 0.97007 0.19537 0.0
O111 O 0.19328 0.97567 0.18121 0.0
H112 H 0.22183 0.85487 0.15376 0.0
H113 H 0.21659 0.83348 0.13688 0.0
H114 H 0.13609 0.89126 0.13122 0.0
H115 H 0.13984 0.91072 0.14804 0.0
H116 H 0.08098 0.92822 0.23021 0.0
H117 H 0.10524 0.9641 0.24581 0.0
H118 H 0.23579 0.98863 0.2399 0.0
H119 H 0.21125 0.95326 0.22415 0.0
Tb120 Tb 0.27382 0.13002 0.364 0.0
Tb121 Tb 0.26451 0.13804 0.34287 0.0
C122 C 0.3007 0.1262 0.38058 0.0
C123 C 0.31783 0.14902 0.38988 0.0
C124 C 0.35603 0.15187 0.39363 0.0
C125 C 0.36941 0.16641 0.40304 0.0
C126 C 0.3448 0.1784 0.40898 0.0
C127 C 0.30733 0.17706 0.40508 0.0
C128 C 0.29396 0.1625 0.39564 0.0
C129 C 0.21067 0.14678 0.35936 0.0
C130 C 0.32773 0.22343 0.35418 0.0
C131 C 0.2396 0.13665 0.32575 0.0
C132 C 0.22872 0.11023 0.31678 0.0
C133 C 0.18589 0.09039 0.31317 0.0
C134 C 0.17535 0.06838 0.30434 0.0
C135 C 0.20744 0.06576 0.29883 0.0
C136 C 0.25032 0.08535 0.30248 0.0
C137 C 0.26085 0.1073 0.31135 0.0
C138 C 0.32621 0.11915 0.34774 0.0
C139 C 0.20482 0.04717 0.35341 0.0
O140 O 0.32618 0.14029 0.37301 0.0
O141 O 0.25985 0.11291 0.37849 0.0
O142 O 0.24707 0.16147 0.35522 0.0
O143 O 0.21114 0.12656 0.36706 0.0
O144 O 0.32578 0.19743 0.36124 0.0
O145 O 0.30044 0.2076 0.34678 0.0
O146 O 0.21289 0.11963 0.33303 0.0
O147 O 0.28045 0.15777 0.3285 0.0
O148 O 0.28926 0.10458 0.35159 0.0
O149 O 0.32769 0.1421 0.3404 0.0
O150 O 0.2085 0.07296 0.34614 0.0
O151 O 0.23388 0.06144 0.36041 0.0
H152 H 0.37467 0.14106 0.3894 0.0
H153 H 0.39806 0.16636 0.40578 0.0
H154 H 0.2879 0.18661 0.40939 0.0
H155 H 0.26421 0.16053 0.39298 0.0
H156 H 0.16058 0.09264 0.3171 0.0
H157 H 0.14215 0.05436 0.30172 0.0
H158 H 0.27579 0.08363 0.2985 0.0
H159 H 0.29429 0.12242 0.31387 0.0
Tb160 Tb 0.91436 0.16567 0.36386 0.0
Tb161 Tb 0.91487 0.14056 0.34221 0.0
C162 C 0.91435 0.20529 0.37893 0.0
C163 C 0.89291 0.19822 0.3884 0.0
C164 C 0.88943 0.23246 0.39259 0.0
C165 C 0.87608 0.22982 0.40215 0.0
C166 C 0.86603 0.19284 0.40777 0.0
C167 C 0.86778 0.15771 0.40342 0.0
C168 C 0.88103 0.16033 0.39383 0.0
C169 C 0.90486 0.08732 0.36128 0.0
C170 C 0.82309 0.11517 0.3525 0.0
C171 C 0.91363 0.10527 0.32641 0.0
C172 C 0.93647 0.118 0.317 0.0
C173 C 0.94829 0.08988 0.3125 0.0
C174 C 0.96872 0.10026 0.30348 0.0
C175 C 0.97778 0.13908 0.29872 0.0
C176 C 0.96594 0.16732 0.30327 0.0
C177 C 0.94565 0.15699 0.31233 0.0
C178 C 0.94352 0.22695 0.34447 0.0
C179 C 0.99963 0.17381 0.35487 0.0
O180 O 0.89191 0.20305 0.37123 0.0
O181 O 0.93854 0.18726 0.37765 0.0
O182 O 0.8916 0.10639 0.35566 0.0
O183 O 0.91751 0.10952 0.36922 0.0
O184 O 0.84406 0.13605 0.36047 0.0
O185 O 0.84413 0.11129 0.34493 0.0
O186 O 0.93676 0.10568 0.33382 0.0
O187 O 0.88769 0.12077 0.32849 0.0
O188 O 0.93139 0.19702 0.35053 0.0
O189 O 0.93921 0.20764 0.33632 0.0
O190 O 0.97638 0.14849 0.34764 0.0
O191 O 0.98391 0.19212 0.36079 0.0
H192 H 0.89887 0.26216 0.38857 0.0
H193 H 0.87562 0.2577 0.40526 0.0
H194 H 0.85969 0.12851 0.40749 0.0
H195 H 0.88346 0.13342 0.39076 0.0
H196 H 0.94137 0.05955 0.31592 0.0
H197 H 0.97681 0.07744 0.30017 0.0
H198 H 0.97285 0.19771 0.29988 0.0
H199 H 0.93706 0.17943 0.31564 0.0
Tb200 Tb 0.89033 0.78106 0.36192 0.0
Tb201 Tb 0.8959 0.78277 0.3403 0.0
C202 C 0.8621 0.7576 0.37876 0.0
C203 C 0.86671 0.74082 0.38818 0.0
C204 C 0.82953 0.706 0.39242 0.0
C205 C 0.83008 0.69491 0.40206 0.0
C206 C 0.86784 0.71857 0.4077 0.0
C207 C 0.90577 0.75206 0.40329 0.0
C208 C 0.90521 0.76311 0.39365 0.0
C209 C 0.96636 0.84167 0.35539 0.0
C210 C 0.92784 0.72552 0.35134 0.0
C211 C 0.91122 0.80009 0.32262 0.0
C212 C 0.89494 0.81204 0.31398 0.0
C213 C 0.92146 0.85292 0.30966 0.0
C214 C 0.90937 0.86352 0.30094 0.0
C215 C 0.87051 0.83335 0.29627 0.0
C216 C 0.84338 0.79276 0.30073 0.0
C217 C 0.85548 0.78217 0.30947 0.0
C218 C 0.81771 0.72745 0.34781 0.0
C219 C 0.87809 0.85212 0.35094 0.0
O220 O 0.8476 0.73098 0.37137 0.0
O221 O 0.89198 0.79734 0.37638 0.0
O222 O 0.9428 0.80443 0.35165 0.0
O223 O 0.95102 0.84241 0.3638 0.0
O224 O 0.91004 0.73105 0.35928 0.0
O225 O 0.9306 0.74741 0.34338 0.0
O226 O 0.92823 0.8293 0.32945 0.0
O227 O 0.88789 0.76045 0.32604 0.0
O228 O 0.84465 0.76519 0.35062 0.0
O229 O 0.83295 0.7206 0.33996 0.0
O230 O 0.8909 0.84129 0.34298 0.0
O231 O 0.86896 0.82827 0.35887 0.0
H232 H 0.79932 0.68854 0.3884 0.0
H233 H 0.80053 0.66838 0.40514 0.0
H234 H 0.93537 0.7712 0.40741 0.0
H235 H 0.93434 0.79038 0.39062 0.0
H236 H 0.95219 0.87648 0.31293 0.0
H237 H 0.93072 0.89535 0.29783 0.0
H238 H 0.81342 0.76855 0.29731 0.0
H239 H 0.83443 0.75021 0.31256 0.0
Tb240 Tb 0.91886 0.78469 0.84431 0.0
Tb241 Tb 0.915 0.77116 0.86532 0.0
C242 C 0.92627 0.80961 0.82701 0.0
C243 C 0.9525 0.81825 0.81805 0.0
C244 C 0.9841 0.86123 0.81555 0.0
C245 C 1.00372 0.87067 0.80644 0.0
C246 C 0.99201 0.83746 0.79953 0.0
C247 C 0.96163 0.7942 0.80216 0.0
C248 C 0.94202 0.78476 0.81128 0.0
C249 C 0.94112 0.72624 0.85045 0.0
C250 C 1.00122 0.84721 0.85694 0.0
C251 C 0.91114 0.73909 0.88166 0.0
C252 C 0.88299 0.72003 0.89022 0.0
C253 C 0.86791 0.67619 0.89263 0.0
C254 C 0.84953 0.6601 0.90166 0.0
C255 C 0.84636 0.68771 0.90853 0.0
C256 C 0.85879 0.73077 0.90586 0.0
C257 C 0.87689 0.74675 0.89681 0.0
C258 C 0.90135 0.83568 0.86068 0.0
C259 C 0.82634 0.72165 0.85329 0.0
O260 O 0.9437 0.83632 0.83429 0.0
O261 O 0.90241 0.76903 0.8298 0.0
O262 O 0.94979 0.76185 0.85414 0.0
O263 O 0.92168 0.72346 0.84242 0.0
O264 O 0.97965 0.84299 0.84888 0.0
O265 O 0.9846 0.81694 0.8637 0.0
O266 O 0.90076 0.71596 0.87373 0.0
O267 O 0.92623 0.78067 0.88004 0.0
O268 O 0.88834 0.80082 0.85585 0.0
O269 O 0.9171 0.83171 0.86875 0.0
O270 O 0.84735 0.72182 0.8612 0.0
O271 O 0.8478 0.7491 0.84621 0.0
H272 H 0.99264 0.88793 0.82052 0.0
H273 H 1.02748 0.90428 0.80475 0.0
H274 H 0.9514 0.7678 0.79703 0.0
H275 H 0.91732 0.75135 0.81287 0.0
H276 H 0.87238 0.65492 0.88772 0.0
H277 H 0.83949 0.62651 0.90341 0.0
H278 H 0.85723 0.75311 0.91096 0.0
H279 H 0.88833 0.7808 0.89522 0.0
Tb280 Tb 0.26789 0.14071 0.84268 0.0
Tb281 Tb 0.27994 0.16208 0.86373 0.0
C282 C 0.24146 0.11495 0.82573 0.0
C283 C 0.23226 0.13098 0.81661 0.0
C284 C 0.18884 0.11356 0.81349 0.0
C285 C 0.17944 0.12565 0.80461 0.0
C286 C 0.21321 0.15536 0.79855 0.0
C287 C 0.25672 0.17295 0.80169 0.0
C288 C 0.26614 0.16093 0.8106 0.0
C289 C 0.32916 0.22244 0.84685 0.0
C290 C 0.20689 0.16977 0.85343 0.0
C291 C 0.30753 0.19587 0.88005 0.0
C292 C 0.32009 0.18856 0.88975 0.0
C293 C 0.3599 0.1898 0.89152 0.0
C294 C 0.37294 0.18822 0.90097 0.0
C295 C 0.34658 0.18558 0.90886 0.0
C296 C 0.30632 0.18323 0.90701 0.0
C297 C 0.29336 0.18479 0.8976 0.0
C298 C 0.21684 0.08156 0.85986 0.0
C299 C 0.33237 0.12006 0.85416 0.0
O300 O 0.21542 0.10835 0.83301 0.0
O301 O 0.2822 0.13225 0.82845 0.0
O302 O 0.29297 0.20026 0.851 0.0
O303 O 0.32989 0.20031 0.83956 0.0
O304 O 0.21016 0.14674 0.84629 0.0
O305 O 0.23811 0.18832 0.85993 0.0
O306 O 0.33333 0.202 0.87272 0.0
O307 O 0.26621 0.17233 0.87779 0.0
O308 O 0.25241 0.10268 0.85542 0.0
O309 O 0.21873 0.10297 0.86755 0.0
O310 O 0.3315 0.14581 0.861 0.0
O311 O 0.30434 0.10757 0.84686 0.0
H312 H 0.16203 0.08987 0.81786 0.0
H313 H 0.14558 0.11083 0.80241 0.0
H314 H 0.28357 0.19622 0.79727 0.0
H315 H 0.30002 0.17479 0.81271 0.0
H316 H 0.38142 0.193 0.88564 0.0
H317 H 0.40397 0.18968 0.90211 0.0
H318 H 0.28548 0.18206 0.91285 0.0
H319 H 0.26287 0.18454 0.8965 0.0
Tb320 Tb 0.90237 0.13328 0.84105 0.0
Tb321 Tb 0.88956 0.12577 0.86248 0.0
C322 C 0.92325 0.13287 0.82365 0.0
C323 C 0.90753 0.1084 0.8145 0.0
C324 C 0.93823 0.10811 0.80814 0.0
C325 C 0.92536 0.08796 0.79913 0.0
C326 C 0.88131 0.06755 0.79622 0.0
C327 C 0.85037 0.06718 0.80271 0.0
C328 C 0.86334 0.08744 0.81175 0.0
C329 C 0.82352 0.11656 0.84695 0.0
C330 C 0.87402 0.04228 0.85109 0.0
C331 C 0.86041 0.12126 0.87937 0.0
C332 C 0.86245 0.14116 0.889 0.0
C333 C 0.82622 0.14388 0.89228 0.0
C334 C 0.82339 0.15467 0.90188 0.0
C335 C 0.85669 0.16299 0.90856 0.0
C336 C 0.89363 0.1615 0.90519 0.0
C337 C 0.89643 0.15065 0.89557 0.0
C338 C 0.96634 0.13762 0.8568 0.0
C339 C 0.93487 0.22071 0.8526 0.0
O340 O 0.93285 0.11427 0.8306 0.0
O341 O 0.90355 0.15344 0.82681 0.0
O342 O 0.84591 0.10116 0.85045 0.0
O343 O 0.84423 0.13963 0.83954 0.0
O344 O 0.89152 0.06769 0.84353 0.0
O345 O 0.86372 0.05658 0.85894 0.0
O346 O 0.84613 0.13284 0.87187 0.0
O347 O 0.89094 0.11219 0.8771 0.0
O348 O 0.94549 0.1542 0.85306 0.0
O349 O 0.94697 0.11869 0.86474 0.0
O350 O 0.91256 0.1964 0.86012 0.0
O351 O 0.94055 0.20228 0.84485 0.0
H352 H 0.97249 0.12403 0.8101 0.0
H353 H 0.95003 0.08826 0.79445 0.0
H354 H 0.81622 0.05208 0.80072 0.0
H355 H 0.83899 0.08728 0.81651 0.0
H356 H 0.799 0.1358 0.88751 0.0
H357 H 0.79405 0.15471 0.90413 0.0
H358 H 0.92032 0.16827 0.91001 0.0
H359 H 0.92466 0.1484 0.89338 0.0
Tb360 Tb 0.79697 0.91203 0.69705 0.0
Tb361 Tb 0.78815 0.91814 0.67589 0.0
C362 C 0.8197 0.91329 0.71436 0.0
C363 C 0.82987 0.93974 0.72332 0.0
C364 C 0.87304 0.96233 0.72677 0.0
C365 C 0.88285 0.98401 0.73564 0.0
C366 C 0.8497 0.9835 0.74137 0.0
C367 C 0.80649 0.96119 0.73789 0.0
C368 C 0.79668 0.93957 0.72898 0.0
C369 C 0.74058 0.93745 0.69155 0.0
C370 C 0.86323 0.99866 0.68585 0.0
C371 C 0.76237 0.92282 0.6593 0.0
C372 C 0.7484 0.89987 0.64996 0.0
C373 C 0.70717 0.86244 0.64863 0.0
C374 C 0.69337 0.84479 0.63941 0.0
C375 C 0.72048 0.86429 0.63136 0.0
C376 C 0.76207 0.90104 0.6328 0.0
C377 C 0.77575 0.91859 0.64196 0.0
C378 C 0.84853 0.89812 0.68059 0.0
C379 C 0.73144 0.82575 0.68606 0.0
O380 O 0.84731 0.92977 0.70721 0.0
O381 O 0.77918 0.89271 0.71138 0.0
O382 O 0.77691 0.94789 0.68791 0.0
O383 O 0.73628 0.91485 0.69916 0.0
O384 O 0.85742 0.97339 0.69337 0.0
O385 O 0.83309 0.98623 0.67911 0.0
O386 O 0.73613 0.90707 0.66673 0.0
O387 O 0.80334 0.93811 0.66161 0.0
O388 O 0.81267 0.88521 0.6849 0.0
O389 O 0.84774 0.91687 0.67269 0.0
O390 O 0.73443 0.85148 0.67882 0.0
O391 O 0.75839 0.84193 0.69351 0.0
H392 H 0.89924 0.96245 0.72268 0.0
H393 H 0.9164 1.0002 0.73812 0.0
H394 H 0.78016 0.96045 0.74203 0.0
H395 H 0.76296 0.92219 0.72662 0.0
H396 H 0.68521 0.8474 0.65465 0.0
H397 H 0.66124 0.81628 0.63857 0.0
H398 H 0.7835 0.91754 0.62678 0.0
H399 H 0.80741 0.94786 0.64274 0.0
Tb400 Tb 0.14079 0.88374 0.70002 0.0
Tb401 Tb 0.128 0.87426 0.6786 0.0
C402 C 0.14652 0.90357 0.71766 0.0
C403 C 0.124 0.88942 0.72704 0.0
C404 C 0.13376 0.92112 0.73415 0.0
C405 C 0.11502 0.90922 0.7433 0.0
C406 C 0.08582 0.86516 0.74559 0.0
C407 C 0.07565 0.83337 0.73837 0.0
C408 C 0.09454 0.84538 0.72918 0.0
C409 C 0.11441 0.80384 0.69306 0.0
C410 C 0.04975 0.8637 0.69099 0.0
C411 C 0.11916 0.84676 0.66155 0.0
C412 C 0.14079 0.85384 0.65204 0.0
C413 C 0.14138 0.81863 0.6475 0.0
C414 C 0.15438 0.82165 0.63788 0.0
C415 C 0.16684 0.85994 0.63255 0.0
C416 C 0.16816 0.89592 0.63725 0.0
C417 C 0.1553 0.89294 0.64688 0.0
C418 C 0.14877 0.95275 0.68503 0.0
C419 C 0.22355 0.90856 0.68721 0.0
O420 O 0.12872 0.91651 0.71119 0.0
O421 O 0.16227 0.88037 0.7139 0.0
O422 O 0.10267 0.83028 0.69037 0.0
O423 O 0.13909 0.82045 0.7005 0.0
O424 O 0.0772 0.88017 0.69831 0.0
O425 O 0.06075 0.85089 0.68304 0.0
O426 O 0.13251 0.83173 0.6686 0.0
O427 O 0.10896 0.87577 0.66446 0.0
O428 O 0.1629 0.92874 0.68827 0.0
O429 O 0.12796 0.93571 0.67711 0.0
O430 O 0.1961 0.88851 0.68001 0.0
O431 O 0.2094 0.91627 0.69541 0.0
H432 H 0.15658 0.95526 0.73267 0.0
H433 H 0.12434 0.93461 0.74866 0.0
H434 H 0.05295 0.79919 0.7398 0.0
H435 H 0.08644 0.82033 0.72379 0.0
H436 H 0.12986 0.78795 0.65126 0.0
H437 H 0.15251 0.79314 0.6345 0.0
H438 H 0.17818 0.92613 0.63341 0.0
H439 H 0.15522 0.92072 0.65016 0.0
Tb440 Tb 0.16502 0.25697 0.69942 0.0
Tb441 Tb 0.18494 0.26911 0.67829 0.0
C442 C 0.13823 0.22982 0.7163 0.0
C443 C 0.15333 0.22143 0.72555 0.0
C444 C 0.12213 0.19389 0.73228 0.0
C445 C 0.13499 0.18654 0.74128 0.0
C446 C 0.17953 0.20664 0.74379 0.0
C447 C 0.21085 0.23393 0.73695 0.0
C448 C 0.19788 0.24128 0.72792 0.0
C449 C 0.24611 0.31957 0.69514 0.0
C450 C 0.19527 0.19736 0.6885 0.0
C451 C 0.21709 0.29698 0.66182 0.0
C452 C 0.2087 0.30911 0.65218 0.0
C453 C 0.24339 0.3435 0.64719 0.0
C454 C 0.23929 0.35072 0.63744 0.0
C455 C 0.20035 0.3235 0.63242 0.0
C456 C 0.16483 0.29042 0.63757 0.0
C457 C 0.16894 0.28329 0.64734 0.0
C458 C 0.10477 0.20543 0.68253 0.0
C459 C 0.14264 0.32055 0.68815 0.0
O460 O 0.13404 0.20424 0.7091 0.0
O461 O 0.15545 0.27058 0.71362 0.0
O462 O 0.22441 0.28339 0.69092 0.0
O463 O 0.22397 0.31927 0.70254 0.0
O464 O 0.17229 0.20019 0.69571 0.0
O465 O 0.21274 0.22842 0.68194 0.0
O466 O 0.22299 0.32283 0.66913 0.0
O467 O 0.19452 0.25568 0.66417 0.0
O468 O 0.12627 0.24119 0.68684 0.0
O469 O 0.1255 0.20725 0.67472 0.0
O470 O 0.16834 0.32029 0.68123 0.0
O471 O 0.13067 0.29226 0.69538 0.0
H472 H 0.08758 0.17816 0.7306 0.0
H473 H 0.10992 0.16472 0.74624 0.0
H474 H 0.2454 0.25027 0.73862 0.0
H475 H 0.22257 0.26276 0.72284 0.0
H476 H 0.27453 0.36356 0.65073 0.0
H477 H 0.26749 0.37622 0.63373 0.0
H478 H 0.13411 0.26927 0.634 0.0
H479 H 0.14158 0.25648 0.65099 0.0
Tb480 Tb 0.81053 0.60757 0.5112 0.0
Tb481 Tb 0.81184 0.59083 0.53328 0.0
C482 C 0.81681 0.63416 0.49433 0.0
C483 C 0.82182 0.64836 0.48415 0.0
C484 C 0.80322 0.67277 0.48072 0.0
C485 C 0.80623 0.68374 0.47095 0.0
C486 C 0.82764 0.67025 0.46438 0.0
C487 C 0.8466 0.64623 0.46791 0.0
C488 C 0.84383 0.63557 0.47765 0.0
C489 C 0.81998 0.54057 0.51629 0.0
C490 C 0.8982 0.66154 0.52288 0.0
C491 C 0.81555 0.56088 0.54942 0.0
C492 C 0.79368 0.55174 0.55889 0.0
C493 C 0.78489 0.51352 0.56379 0.0
C494 C 0.76525 0.50426 0.57286 0.0
C495 C 0.75398 0.53313 0.5773 0.0
C496 C 0.76283 0.57152 0.57238 0.0
C497 C 0.78234 0.58067 0.56324 0.0
C498 C 0.7856 0.64897 0.53006 0.0
C499 C 0.72537 0.5338 0.5206 0.0
O500 O 0.78932 0.63577 0.50048 0.0
O501 O 0.84102 0.61904 0.49786 0.0
O502 O 0.83566 0.57677 0.52051 0.0
O503 O 0.80065 0.54208 0.50852 0.0
O504 O 0.87321 0.66226 0.51587 0.0
O505 O 0.88178 0.63202 0.52987 0.0
O506 O 0.79205 0.53624 0.54223 0.0
O507 O 0.84004 0.60208 0.54697 0.0
O508 O 0.79614 0.6291 0.52412 0.0
O509 O 0.78983 0.63584 0.53845 0.0
O510 O 0.74818 0.53643 0.52844 0.0
O511 O 0.74149 0.56335 0.51364 0.0
H512 H 0.78609 0.68312 0.48556 0.0
H513 H 0.79175 0.7028 0.46855 0.0
H514 H 0.86262 0.63449 0.4631 0.0
H515 H 0.85816 0.61633 0.48004 0.0
H516 H 0.79354 0.49085 0.5606 0.0
H517 H 0.75948 0.47471 0.57648 0.0
H518 H 0.75416 0.59422 0.57553 0.0
H519 H 0.78861 0.61035 0.55961 0.0
Tb520 Tb 0.45231 0.21669 0.51086 0.0
Tb521 Tb 0.46446 0.22499 0.53235 0.0
C522 C 0.42284 0.1889 0.49426 0.0
C523 C 0.40334 0.19397 0.48526 0.0
C524 C 0.36561 0.15762 0.48163 0.0
C525 C 0.35108 0.15797 0.47229 0.0
C526 C 0.37403 0.19474 0.46631 0.0
C527 C 0.4107 0.23195 0.47013 0.0
C528 C 0.42524 0.23158 0.47949 0.0
C529 C 0.51639 0.29387 0.51647 0.0
C530 C 0.40234 0.25535 0.52282 0.0
C531 C 0.48975 0.24388 0.54959 0.0
C532 C 0.49872 0.22772 0.55869 0.0
C533 C 0.54216 0.24348 0.56161 0.0
C534 C 0.55163 0.23498 0.57086 0.0
C535 C 0.51793 0.21074 0.57749 0.0
C536 C 0.47435 0.19334 0.57444 0.0
C537 C 0.46485 0.20188 0.56517 0.0
C538 C 0.40477 0.14535 0.52606 0.0
C539 C 0.52634 0.20383 0.51963 0.0
O540 O 0.3987 0.17505 0.50205 0.0
O541 O 0.46362 0.21785 0.4961 0.0
O542 O 0.48088 0.27053 0.52087 0.0
O543 O 0.51366 0.27705 0.50805 0.0
O544 O 0.40297 0.23491 0.51486 0.0
O545 O 0.42897 0.26063 0.53007 0.0
O546 O 0.51623 0.25183 0.54232 0.0
O547 O 0.44908 0.22718 0.54684 0.0
O548 O 0.44057 0.17189 0.52225 0.0
O549 O 0.40343 0.16174 0.53426 0.0
O550 O 0.52199 0.22078 0.52777 0.0
O551 O 0.49666 0.19136 0.51275 0.0
H552 H 0.34852 0.12796 0.48584 0.0
H553 H 0.32308 0.12849 0.4696 0.0
H554 H 0.4288 0.2611 0.46581 0.0
H555 H 0.45459 0.26012 0.48206 0.0
H556 H 0.56905 0.26388 0.55685 0.0
H557 H 0.58556 0.24831 0.57288 0.0
H558 H 0.44754 0.17485 0.57936 0.0
H559 H 0.43099 0.18966 0.56324 0.0
Tb560 Tb 0.8431 0.2503 0.51025 0.0
Tb561 Tb 0.83046 0.24448 0.53177 0.0
C562 C 0.87363 0.25592 0.4936 0.0
C563 C 0.86811 0.23275 0.48439 0.0
C564 C 0.90504 0.23512 0.48001 0.0
C565 C 0.90303 0.2206 0.47057 0.0
C566 C 0.864 0.20349 0.46525 0.0
C567 C 0.82646 0.19932 0.4698 0.0
C568 C 0.82847 0.21377 0.47927 0.0
C569 C 0.76308 0.22875 0.51554 0.0
C570 C 0.81036 0.1586 0.52048 0.0
C571 C 0.81025 0.24538 0.54924 0.0
C572 C 0.82576 0.27099 0.55837 0.0
C573 C 0.80586 0.29446 0.5617 0.0
C574 C 0.81636 0.31481 0.57074 0.0
C575 C 0.84697 0.31217 0.57678 0.0
C576 C 0.86719 0.28895 0.57341 0.0
C577 C 0.85669 0.26859 0.56434 0.0
C578 C 0.912 0.27227 0.5256 0.0
C579 C 0.84648 0.32954 0.52044 0.0
O580 O 0.8873 0.24378 0.50112 0.0
O581 O 0.84412 0.26654 0.49581 0.0
O582 O 0.7874 0.21729 0.51976 0.0
O583 O 0.78085 0.24677 0.50742 0.0
O584 O 0.83185 0.18442 0.51315 0.0
O585 O 0.80004 0.17434 0.52812 0.0
O586 O 0.79862 0.26192 0.54221 0.0
O587 O 0.83068 0.22552 0.54609 0.0
O588 O 0.88452 0.28105 0.5222 0.0
O589 O 0.89544 0.25011 0.53336 0.0
O590 O 0.82899 0.30461 0.52813 0.0
O591 O 0.86373 0.3178 0.51345 0.0
H592 H 0.9361 0.2501 0.48375 0.0
H593 H 0.93272 0.22481 0.46729 0.0
H594 H 0.79572 0.18573 0.46597 0.0
H595 H 0.7994 0.21154 0.48245 0.0
H596 H 0.78122 0.29622 0.55741 0.0
H597 H 0.79943 0.33163 0.5731 0.0
H598 H 0.89123 0.28649 0.57777 0.0
H599 H 0.87232 0.25034 0.56209 0.0
Tb600 Tb 0.94574 0.45291 0.69889 0.0
Tb601 Tb 0.93651 0.45567 0.6773 0.0
C602 C 0.97147 0.44879 0.71556 0.0
C603 C 0.9893 0.47014 0.72497 0.0
C604 C 0.02977 0.476 0.72803 0.0
C605 C 0.0428 0.48592 0.73763 0.0
C606 C 1.01553 0.48991 0.74446 0.0
C607 C 0.97639 0.48705 0.74126 0.0
C608 C 0.96334 0.47712 0.73164 0.0
C609 C 0.88593 0.47259 0.69352 0.0
C610 C 1.00223 0.54341 0.68806 0.0
C611 C 0.9136 0.45386 0.65996 0.0
C612 C 0.9052 0.42976 0.65073 0.0
C613 C 0.87527 0.43062 0.64423 0.0
C614 C 0.8688 0.41131 0.63512 0.0
C615 C 0.89213 0.3905 0.63224 0.0
C616 C 0.92159 0.38894 0.63886 0.0
C617 C 0.92813 0.40844 0.64799 0.0
C618 C 0.99258 0.43086 0.6834 0.0
C619 C 0.87043 0.37095 0.68916 0.0
O620 O 0.99713 0.46106 0.70799 0.0
O621 O 0.93126 0.43815 0.71343 0.0
O622 O 0.92145 0.4837 0.68924 0.0
O623 O 0.88642 0.4558 0.70175 0.0
O624 O 0.99957 0.51878 0.6955 0.0
O625 O 0.97499 0.52625 0.68065 0.0
O626 O 0.88603 0.43465 0.66701 0.0
O627 O 0.95401 0.47559 0.66299 0.0
O628 O 0.95654 0.42175 0.687 0.0
O629 O 0.99637 0.45118 0.67544 0.0
O630 O 0.87616 0.39488 0.68137 0.0
O631 O 0.9004 0.38458 0.69598 0.0
H632 H 0.05032 0.47047 0.72311 0.0
H633 H 0.07353 0.48866 0.7398 0.0
H634 H 0.95447 0.4897 0.74631 0.0
H635 H 0.93175 0.4725 0.72956 0.0
H636 H 0.85722 0.4469 0.64615 0.0
H637 H 0.84528 0.41258 0.63035 0.0
H638 H 0.94042 0.37354 0.63691 0.0
H639 H 0.95159 0.40745 0.65285 0.0
Tb640 Tb 0.59349 0.4933 0.69785 0.0
Tb641 Tb 0.59776 0.48549 0.67636 0.0
C642 C 0.59059 0.51862 0.71466 0.0
C643 C 0.56795 0.50575 0.72409 0.0
C644 C 0.55319 0.53209 0.72838 0.0
C645 C 0.54111 0.52686 0.7381 0.0
C646 C 0.54415 0.49554 0.74377 0.0
C647 C 0.55631 0.46743 0.73933 0.0
C648 C 0.5679 0.47232 0.72961 0.0
C649 C 0.5812 0.41653 0.69222 0.0
C650 C 0.50522 0.454 0.68573 0.0
C651 C 0.60533 0.46705 0.65917 0.0
C652 C 0.63112 0.48441 0.65024 0.0
C653 C 0.64336 0.45791 0.64514 0.0
C654 C 0.66336 0.4707 0.63613 0.0
C655 C 0.67151 0.51035 0.63196 0.0
C656 C 0.66046 0.5376 0.63722 0.0
C657 C 0.64038 0.52472 0.64626 0.0
C658 C 0.61546 0.56433 0.68277 0.0
C659 C 0.68074 0.50793 0.68902 0.0
O660 O 0.57124 0.52513 0.70732 0.0
O661 O 0.61296 0.49987 0.71215 0.0
O662 O 0.56908 0.43974 0.68782 0.0
O663 O 0.59398 0.43278 0.70073 0.0
O664 O 0.52611 0.47525 0.69364 0.0
O665 O 0.52683 0.44843 0.67857 0.0
O666 O 0.62425 0.45985 0.66645 0.0
O667 O 0.58053 0.48291 0.66186 0.0
O668 O 0.6257 0.53851 0.68652 0.0
O669 O 0.59829 0.54798 0.67452 0.0
O670 O 0.65928 0.48984 0.68098 0.0
O671 O 0.66352 0.52127 0.69573 0.0
H672 H 0.55337 0.5584 0.72435 0.0
H673 H 0.53209 0.54917 0.74132 0.0
H674 H 0.55846 0.44266 0.74349 0.0
H675 H 0.57908 0.45138 0.72656 0.0
H676 H 0.63648 0.42664 0.64805 0.0
H677 H 0.67215 0.44927 0.6324 0.0
H678 H 0.66603 0.56823 0.63421 0.0
H679 H 0.63116 0.54578 0.65001 0.0
Tb680 Tb 0.55168 0.10058 0.69836 0.0
Tb681 Tb 0.566 0.11028 0.67687 0.0
C682 C 0.52096 0.07342 0.71488 0.0
C683 C 0.52788 0.05614 0.72398 0.0
C684 C 0.49227 1.01964 0.7282 0.0
C685 C 0.49535 1.00656 0.73751 0.0
C686 C 0.53415 0.02987 0.74285 0.0
C687 C 0.57043 0.06542 0.73846 0.0
C688 C 0.56737 0.07842 0.72912 0.0
C689 C 0.63111 0.16179 0.69332 0.0
C690 C 0.58837 0.04556 0.68788 0.0
C691 C 0.59013 0.13427 0.65974 0.0
C692 C 0.57502 0.14148 0.65039 0.0
C693 C 0.60636 0.16707 0.64349 0.0
C694 C 0.59368 0.17233 0.63429 0.0
C695 C 0.54917 0.15215 0.63176 0.0
C696 C 0.51768 0.12699 0.63879 0.0
C697 C 0.53049 0.12169 0.64801 0.0
C698 C 0.48452 0.05327 0.68252 0.0
C699 C 0.54428 0.17487 0.68843 0.0
O700 O 0.50906 0.04811 0.70727 0.0
O701 O 0.54859 0.11434 0.71283 0.0
O702 O 0.60793 0.12607 0.68901 0.0
O703 O 0.61265 0.16084 0.70142 0.0
O704 O 0.56568 0.04786 0.69522 0.0
O705 O 0.59842 0.07254 0.68045 0.0
O706 O 0.59537 0.16123 0.66673 0.0
O707 O 0.57263 0.09388 0.66272 0.0
O708 O 0.5109 0.08915 0.68626 0.0
O709 O 0.50187 0.05038 0.67458 0.0
O710 O 0.56417 0.16996 0.68084 0.0
O711 O 0.52723 0.14448 0.69516 0.0
H712 H 0.46134 1.00225 0.72443 0.0
H713 H 0.46658 0.97937 0.74067 0.0
H714 H 0.60097 0.08371 0.74232 0.0
H715 H 0.59543 0.10676 0.72606 0.0
H716 H 0.6409 0.18237 0.64515 0.0
H717 H 0.61896 0.1913 0.62909 0.0
H718 H 0.48312 0.11137 0.63716 0.0
H719 H 0.50572 0.10176 0.65324 0.0
Tb720 Tb 0.58067 0.11498 0.177 0.0
Tb721 Tb 0.5712 0.10802 0.19834 0.0
C722 C 0.59393 0.12848 0.15914 0.0
C723 C 0.61954 0.15381 0.15059 0.0
C724 C 0.60318 0.17409 0.14452 0.0
C725 C 0.62097 0.18864 0.13532 0.0
C726 C 0.65526 0.18275 0.13186 0.0
C727 C 0.67305 0.16451 0.13815 0.0
C728 C 0.65552 0.15034 0.14736 0.0
C729 C 0.5913 0.05262 0.18534 0.0
C730 C 0.65969 0.18443 0.18962 0.0
C731 C 0.57823 0.09412 0.21581 0.0
C732 C 0.55521 0.07689 0.22509 0.0
C733 C 0.55188 0.03846 0.22885 0.0
C734 C 0.53714 0.02514 0.23824 0.0
C735 C 0.5255 0.05004 0.24416 0.0
C736 C 0.52739 0.08776 0.24029 0.0
C737 C 0.54217 0.10111 0.23086 0.0
C738 C 0.53821 0.15399 0.19071 0.0
C739 C 0.48817 0.05196 0.18568 0.0
O740 O 0.56952 0.13995 0.16407 0.0
O741 O 0.61057 0.11014 0.16451 0.0
O742 O 0.60472 0.0909 0.18819 0.0
O743 O 0.56972 0.04761 0.1775 0.0
O744 O 0.64315 0.17293 0.18086 0.0
O745 O 0.63794 0.16219 0.19731 0.0
O746 O 0.57138 0.06591 0.20894 0.0
O747 O 0.58267 0.13093 0.21254 0.0
O748 O 0.5723 0.15373 0.18793 0.0
O749 O 0.52293 0.12903 0.19822 0.0
O750 O 0.50893 0.05206 0.19363 0.0
O751 O 0.50958 0.07857 0.17846 0.0
H752 H 0.57517 0.17681 0.1467 0.0
H753 H 0.60686 0.20335 0.13082 0.0
H754 H 0.69898 0.15877 0.13581 0.0
H755 H 0.66869 0.13428 0.15173 0.0
H756 H 0.56248 1.01956 0.22466 0.0
H757 H 0.53685 0.99634 0.24099 0.0
H758 H 0.5182 0.10746 0.24459 0.0
H759 H 0.54472 0.13114 0.22823 0.0
Tb760 Tb 0.93372 0.47857 0.17469 0.0
Tb761 Tb 0.94762 0.49269 0.19595 0.0
C762 C 0.90653 0.45861 0.15756 0.0
C763 C 0.89759 0.47678 0.14872 0.0
C764 C 0.85703 0.47451 0.14733 0.0
C765 C 0.84716 0.48738 0.13859 0.0
C766 C 0.87742 0.50264 0.13094 0.0
C767 C 0.91819 0.5054 0.13239 0.0
C768 C 0.92805 0.49254 0.14113 0.0
C769 C 0.9986 0.55771 0.17988 0.0
C770 C 0.87718 0.50915 0.18658 0.0
C771 C 0.97677 0.52071 0.21263 0.0
C772 C 0.98431 0.50836 0.22238 0.0
C773 C 1.02698 0.5263 0.22603 0.0
C774 C 0.03416 0.52155 0.23577 0.0
C775 C 0.99878 0.49918 0.24218 0.0
C776 C 0.95611 0.47993 0.23841 0.0
C777 C 0.949 0.48435 0.22868 0.0
C778 C 0.88015 0.41594 0.19134 0.0
C779 C 0.99281 0.44654 0.18471 0.0
O780 O 0.88092 0.45056 0.165 0.0
O781 O 0.94732 0.47462 0.16012 0.0
O782 O 0.96236 0.53547 0.18397 0.0
O783 O 0.99776 0.53705 0.17216 0.0
O784 O 0.87918 0.48834 0.17887 0.0
O785 O 0.90783 0.52287 0.19326 0.0
O786 O 1.00186 0.523 0.20543 0.0
O787 O 0.93614 0.50483 0.20999 0.0
O788 O 0.91559 0.43601 0.18679 0.0
O789 O 0.88483 0.4355 0.19948 0.0
O790 O 0.99469 0.47071 0.19222 0.0
O791 O 0.9652 0.43961 0.17755 0.0
H792 H 0.8324 0.46184 0.15293 0.0
H793 H 0.81519 0.48413 0.13773 0.0
H794 H 0.94261 0.51749 0.12675 0.0
H795 H 0.95938 0.49419 0.14188 0.0
H796 H 0.0549 0.54541 0.22141 0.0
H797 H 0.06753 0.5362 0.23831 0.0
H798 H 0.92786 0.46305 0.24304 0.0
H799 H 0.91557 0.47049 0.22622 0.0
Tb800 Tb 0.57282 0.47484 0.1737 0.0
Tb801 Tb 0.56058 0.4655 0.19474 0.0
C802 C 0.59211 0.47548 0.15618 0.0
C803 C 0.57682 0.44886 0.14729 0.0
C804 C 0.58225 0.4124 0.14592 0.0
C805 C 0.57318 0.39126 0.13701 0.0
C806 C 0.55857 0.40609 0.12925 0.0
C807 C 0.55168 0.44158 0.13073 0.0
C808 C 0.56091 0.46283 0.13963 0.0
C809 C 0.4924 0.45341 0.17971 0.0
C810 C 0.54998 0.3846 0.18322 0.0
C811 C 0.531 0.46011 0.21153 0.0
C812 C 0.53826 0.48132 0.22109 0.0
C813 C 0.50291 0.48105 0.22579 0.0
C814 C 0.50582 0.49272 0.23551 0.0
C815 C 0.54416 0.50469 0.24079 0.0
C816 C 0.58034 0.50713 0.23593 0.0
C817 C 0.57746 0.4956 0.2262 0.0
C818 C 0.63903 0.48181 0.18934 0.0
C819 C 0.60229 0.5614 0.18513 0.0
O820 O 0.60688 0.46156 0.16312 0.0
O821 O 0.56888 0.49217 0.15943 0.0
O822 O 0.51613 0.43908 0.18295 0.0
O823 O 0.51288 0.47859 0.17256 0.0
O824 O 0.56758 0.41137 0.17589 0.0
O825 O 0.53676 0.39674 0.19096 0.0
O826 O 0.52005 0.47621 0.20426 0.0
O827 O 0.55737 0.44591 0.209 0.0
O828 O 0.61723 0.49736 0.18555 0.0
O829 O 0.61955 0.46168 0.19716 0.0
O830 O 0.58213 0.53625 0.19272 0.0
O831 O 0.60774 0.54404 0.17721 0.0
H832 H 0.59466 0.40083 0.15164 0.0
H833 H 0.57826 0.36363 0.13615 0.0
H834 H 0.54091 0.45415 0.12489 0.0
H835 H 0.55696 0.49118 0.14042 0.0
H836 H 0.47215 0.46968 0.22206 0.0
H837 H 0.47716 0.49004 0.239 0.0
H838 H 0.61062 0.51687 0.23972 0.0
H839 H 0.60532 0.49613 0.2228 0.0
Tb840 Tb 0.45838 0.23703 0.03199 0.0
Tb841 Tb 0.45445 0.24466 1.01082 0.0
C842 C 0.47717 0.23499 0.0494 0.0
C843 C 0.48526 0.25946 0.05844 0.0
C844 C 0.50152 0.24736 0.06631 0.0
C845 C 0.50783 0.26841 0.07515 0.0
C846 C 0.4981 0.30223 0.07632 0.0
C847 C 0.48211 0.31459 0.06835 0.0
C848 C 0.47576 0.29337 0.05947 0.0
C849 C 0.40309 0.26296 0.02577 0.0
C850 C 0.52722 0.32511 0.02213 0.0
C851 C 0.42961 0.24985 0.99413 0.0
C852 C 0.41245 0.22658 0.98487 0.0
C853 C 0.37106 0.21758 0.98167 0.0
C854 C 0.35725 0.20287 0.97228 0.0
C855 C 0.38471 0.19716 0.96582 0.0
C856 C 0.42546 0.20455 0.96914 0.0
C857 C 0.43919 0.21907 0.97855 0.0
C858 C 0.51583 0.22737 1.01608 0.0
C859 C 0.39955 0.15013 1.02086 0.0
O860 O 0.50639 0.25335 0.04261 0.0
O861 O 0.43727 0.21613 0.04607 0.0
O862 O 0.44016 0.27347 0.02256 0.0
O863 O 0.39704 0.23947 0.03332 0.0
O864 O 0.51795 0.29857 0.0295 0.0
O865 O 0.50142 0.31322 1.01446 0.0
O866 O 0.40364 0.23731 1.00164 0.0
O867 O 0.4699 0.26139 0.99639 0.0
O868 O 0.47878 0.21252 1.02006 0.0
O869 O 0.51612 0.24726 1.00825 0.0
O870 O 0.40364 0.17445 1.01319 0.0
O871 O 0.42357 0.16826 0.02857 0.0
H872 H 0.50879 0.22107 0.06565 0.0
H873 H 0.51945 0.25746 0.08114 0.0
H874 H 0.47471 0.34077 0.06896 0.0
H875 H 0.46317 0.30314 0.05345 0.0
H876 H 0.35005 0.22373 0.98631 0.0
H877 H 0.32586 0.19797 0.96996 0.0
H878 H 0.44718 0.19993 0.9644 0.0
H879 H 0.47144 0.22592 0.98073 0.0
Tb880 Tb 0.81681 0.23077 0.0334 0.0
Tb881 Tb 0.80083 0.21055 1.01222 0.0
C882 C 0.82139 0.25713 0.05054 0.0
C883 C 0.79959 0.24321 0.06012 0.0
C884 C 0.76885 0.25513 0.06311 0.0
C885 C 0.7526 0.24712 0.07256 0.0
C886 C 0.76696 0.22736 0.07931 0.0
C887 C 0.79676 0.21436 0.07622 0.0
C888 C 0.81292 0.22228 0.06678 0.0
C889 C 0.79554 0.1494 0.02866 0.0
C890 C 0.72258 0.20056 0.0246 0.0
C891 C 0.79144 0.1781 0.99551 0.0
C892 C 0.81108 0.18025 0.98584 0.0
C893 C 0.81185 0.14335 0.98232 0.0
C894 C 0.82337 0.14137 0.97274 0.0
C895 C 0.83443 0.17628 0.96631 0.0
C896 C 0.83466 0.21374 0.96993 0.0
C897 C 0.82309 0.21568 0.97953 0.0
C898 C 0.81785 0.29013 1.01704 0.0
C899 C 0.89837 0.25341 1.02047 0.0
O900 O 0.80053 0.26422 0.04365 0.0
O901 O 0.84262 0.23819 0.04732 0.0
O902 O 0.78014 0.17155 0.02503 0.0
O903 O 0.82079 0.17171 0.03567 0.0
O904 O 0.75116 0.22143 0.03153 0.0
O905 O 0.73335 0.18598 1.01688 0.0
O906 O 0.80439 0.16477 1.00295 0.0
O907 O 0.78267 0.20879 0.99782 0.0
O908 O 0.83465 0.26937 1.02071 0.0
O909 O 0.79516 0.26864 1.00963 0.0
O910 O 0.87032 0.22907 1.01367 0.0
O911 O 0.88459 0.26432 0.02831 0.0
H912 H 0.75831 0.27192 0.05823 0.0
H913 H 0.73006 0.25801 0.07467 0.0
H914 H 0.80811 0.19844 0.08114 0.0
H915 H 0.83683 0.21298 0.0648 0.0
H916 H 0.80191 0.11512 0.98689 0.0
H917 H 0.82198 0.11161 0.97029 0.0
H918 H 0.84351 0.2416 0.96531 0.0
H919 H 0.82248 0.24455 0.98193 0.0
Tb920 Tb 0.81771 0.58927 0.0319 0.0
Tb921 Tb 0.83195 0.60091 1.0106 0.0
C922 C 0.79423 0.57878 0.04933 0.0
C923 C 0.80734 0.56751 0.05853 0.0
C924 C 0.77827 0.55338 0.06633 0.0
C925 C 0.79026 0.54363 0.0752 0.0
C926 C 0.83174 0.54777 0.07649 0.0
C927 C 0.86075 0.56179 0.06859 0.0
C928 C 0.84868 0.57151 0.05972 0.0
C929 C 0.90093 0.63461 0.02652 0.0
C930 C 0.84138 0.52683 0.02126 0.0
C931 C 0.86006 0.61074 0.9936 0.0
C932 C 0.84823 0.61344 0.98353 0.0
C933 C 0.85364 0.65259 0.97965 0.0
C934 C 0.84848 0.6561 0.96977 0.0
C935 C 0.83823 0.62069 0.9636 0.0
C936 C 0.83095 0.58105 0.96756 0.0
C937 C 0.83605 0.57753 0.9774 0.0
C938 C 0.74854 0.55271 1.01549 0.0
C939 C 0.79938 0.65743 1.02051 0.0
O940 O 0.77675 0.54787 0.04285 0.0
O941 O 0.82201 0.61655 0.04554 0.0
O942 O 0.86925 0.636 0.02276 0.0
O943 O 0.88707 0.61014 0.03407 0.0
O944 O 0.82026 0.53002 0.02878 0.0
O945 O 0.85677 0.55716 1.01449 0.0
O946 O 0.86903 0.64335 0.99941 0.0
O947 O 0.83761 0.57285 0.99784 0.0
O948 O 0.78078 0.55336 1.01955 0.0
O949 O 0.76274 0.57717 1.00792 0.0
O950 O 0.82331 0.65633 1.01334 0.0
O951 O 0.78851 0.62997 0.02788 0.0
H952 H 0.74616 0.54996 0.06558 0.0
H953 H 0.76671 0.53228 0.08101 0.0
H954 H 0.89313 0.5659 0.0693 0.0
H955 H 0.87175 0.58246 0.05382 0.0
H956 H 0.86345 0.681 0.98416 0.0
H957 H 0.85468 0.68719 0.96691 0.0
H958 H 0.82253 0.55305 0.96301 0.0
H959 H 0.83201 0.54705 0.98016 0.0
Tb960 Tb 0.47566 0.93037 0.84444 0.0
Tb961 Tb 0.47161 0.91841 0.86597 0.0
C962 C 0.47685 0.96025 0.82796 0.0
C963 C 0.50195 0.97971 0.81903 0.0
C964 C 0.50336 1.01729 0.81531 0.0
C965 C 0.51833 0.03137 0.80596 0.0
C966 C 0.53204 1.00799 0.80008 0.0
C967 C 0.53289 0.97173 0.80402 0.0
C968 C 0.51801 0.95772 0.81339 0.0
C969 C 0.49099 0.86809 0.85002 0.0
C970 C 0.56404 0.98181 0.85652 0.0
C971 C 0.46541 0.89345 0.88321 0.0
C972 C 0.43947 0.88264 0.89223 0.0
C973 C 0.41811 0.83934 0.89558 0.0
C974 C 0.39969 0.82914 0.90479 0.0
C975 C 0.40237 0.86205 0.91094 0.0
C976 C 0.42212 0.90518 0.90744 0.0
C977 C 0.44061 0.9154 0.89821 0.0
C978 C 0.44975 0.9762 0.85942 0.0
C979 C 0.38951 0.85439 0.85321 0.0
O980 O 0.48727 0.98421 0.83577 0.0
O981 O 0.46475 0.91935 0.82972 0.0
O982 O 0.50181 0.90314 0.85449 0.0
O983 O 0.47744 0.87064 0.84152 0.0
O984 O 0.54296 0.9806 0.84852 0.0
O985 O 0.54283 0.95511 0.86378 0.0
O986 O 0.44867 0.86671 0.87592 0.0
O987 O 0.48731 0.93436 0.8805 0.0
O988 O 0.4414 0.94048 0.85576 0.0
O989 O 0.46781 0.97879 0.86765 0.0
O990 O 0.41047 0.86007 0.86145 0.0
O991 O 0.40638 0.88343 0.84619 0.0
H992 H 0.49062 0.03447 0.81945 0.0
H993 H 0.51678 0.05915 0.80315 0.0
H994 H 0.54387 0.95339 0.79975 0.0
H995 H 0.51727 0.92854 0.81605 0.0
H996 H 0.41706 0.81343 0.89121 0.0
H997 H 0.3841 0.79546 0.90716 0.0
H998 H 0.42508 0.93142 0.91199 0.0
H999 H 0.45723 0.94922 0.89592 0.0
Tb1000 Tb 0.10928 0.53925 0.84696 0.0
Tb1001 Tb 0.1231 0.56109 0.86805 0.0
C1002 C 0.08017 0.50354 0.83086 0.0
C1003 C 0.06424 0.50788 0.82134 0.0
C1004 C 0.03952 0.46991 0.81589 0.0
C1005 C 0.03016 0.47263 0.80624 0.0
C1006 C 0.04525 0.51348 0.80181 0.0
C1007 C 0.06817 0.55157 0.80742 0.0
C1008 C 0.07782 0.54881 0.8171 0.0
C1009 C 0.17217 0.62017 0.85062 0.0
C1010 C 0.05707 0.58089 0.85668 0.0
C1011 C 0.15088 0.58808 0.88492 0.0
C1012 C 0.159 0.57271 0.89422 0.0
C1013 C 0.18756 0.60362 0.9009 0.0
C1014 C 0.19488 0.59056 0.9099 0.0
C1015 C 0.17378 0.54606 0.91249 0.0
C1016 C 0.14534 0.51504 0.90572 0.0
C1017 C 0.13801 0.5282 0.8967 0.0
C1018 C 0.06262 0.4786 0.86402 0.0
C1019 C 0.18466 0.53433 0.85669 0.0
O1020 O 0.05518 0.49634 0.8384 0.0
O1021 O 0.12147 0.53032 0.8327 0.0
O1022 O 0.13717 0.59881 0.85529 0.0
O1023 O 0.16963 0.59873 0.84288 0.0
O1024 O 0.05767 0.55503 0.84985 0.0
O1025 O 0.08548 0.59352 0.86394 0.0
O1026 O 0.17609 0.59164 0.87769 0.0
O1027 O 0.1102 0.57172 0.88225 0.0
O1028 O 0.09828 0.50164 0.85974 0.0
O1029 O 0.06221 0.50041 0.87141 0.0
O1030 O 0.18172 0.55739 0.86388 0.0
O1031 O 0.15248 0.51447 0.85047 0.0
H1032 H 1.02892 0.43802 0.819 0.0
H1033 H 1.01182 0.44266 0.80218 0.0
H1034 H 0.08035 0.58353 0.80422 0.0
H1035 H 0.09725 0.5786 0.82116 0.0
H1036 H 0.2042 0.63814 0.89916 0.0
H1037 H 0.21757 0.61545 0.91478 0.0
H1038 H 0.12811 0.48053 0.90745 0.0
H1039 H 0.1157 0.50367 0.8917 0.0
Tb1040 Tb 0.49933 0.57053 0.84544 0.0
Tb1041 Tb 0.48693 0.57151 0.86651 0.0
C1042 C 0.52506 0.56814 0.82861 0.0
C1043 C 0.51164 0.5471 0.819 0.0
C1044 C 0.5241 0.51701 0.81589 0.0
C1045 C 0.51857 0.50335 0.80626 0.0
C1046 C 0.50093 0.51988 0.79947 0.0
C1047 C 0.48703 0.54874 0.8027 0.0
C1048 C 0.49227 0.5621 0.8123 0.0
C1049 C 0.42192 0.55977 0.85046 0.0
C1050 C 0.45632 0.48059 0.85687 0.0
C1051 C 0.46642 0.57901 0.88349 0.0
C1052 C 0.48531 0.60624 0.89216 0.0
C1053 C 0.46632 0.63003 0.89576 0.0
C1054 C 0.48087 0.65313 0.90438 0.0
C1055 C 0.51459 0.65269 0.90966 0.0
C1056 C 0.53411 0.62941 0.90598 0.0
C1057 C 0.51968 0.60645 0.89731 0.0
C1058 C 0.56592 0.58516 0.8614 0.0
C1059 C 0.51765 0.65796 0.85453 0.0
O1060 O 0.52877 0.54634 0.83582 0.0
O1061 O 0.50893 0.59265 0.83129 0.0
O1062 O 0.44329 0.5454 0.85476 0.0
O1063 O 0.44068 0.57523 0.84229 0.0
O1064 O 0.48036 0.50261 0.84935 0.0
O1065 O 0.44832 0.50127 0.86383 0.0
O1066 O 0.45991 0.59773 0.87608 0.0
O1067 O 0.48118 0.55308 0.88098 0.0
O1068 O 0.54397 0.59943 0.85722 0.0
O1069 O 0.54485 0.56553 0.86908 0.0
O1070 O 0.49621 0.63539 0.86219 0.0
O1071 O 0.53141 0.64051 0.84799 0.0
H1072 H 0.53962 0.50524 0.82082 0.0
H1073 H 0.52905 0.48056 0.8041 0.0
H1074 H 0.47402 0.5629 0.79773 0.0
H1075 H 0.48292 0.58589 0.81435 0.0
H1076 H 0.43945 0.62998 0.89199 0.0
H1077 H 0.46473 0.67023 0.90708 0.0
H1078 H 0.56044 0.62882 0.90983 0.0
H1079 H 0.53497 0.58835 0.89474 0.0
Tb1080 Tb 0.60309 0.79609 0.03035 0.0
Tb1081 Tb 0.60393 0.80108 1.00875 0.0
C1082 C 0.62489 0.79205 0.0474 0.0
C1083 C 0.64424 0.81508 0.05658 0.0
C1084 C 0.68168 0.81556 0.06014 0.0
C1085 C 0.69612 0.82933 0.06953 0.0
C1086 C 0.67334 0.84282 0.07566 0.0
C1087 C 0.63689 0.8441 0.07196 0.0
C1088 C 0.62245 0.83032 0.06254 0.0
C1089 C 0.54171 0.80915 0.02327 0.0
C1090 C 0.6583 0.88951 1.02004 0.0
C1091 C 0.58855 0.80159 0.99109 0.0
C1092 C 0.57931 0.77564 0.98222 0.0
C1093 C 0.54856 0.77504 0.97579 0.0
C1094 C 0.54153 0.75423 0.9669 0.0
C1095 C 0.56528 0.73365 0.96424 0.0
C1096 C 0.5952 0.73309 0.97084 0.0
C1097 C 0.60222 0.75398 0.97976 0.0
C1098 C 0.65976 0.7793 1.01644 0.0
C1099 C 0.53555 0.71227 1.01888 0.0
O1100 O 0.65075 0.79968 0.04 0.0
O1101 O 0.58642 0.78584 0.04493 0.0
O1102 O 0.57991 0.82455 1.01995 0.0
O1103 O 0.53959 0.792 0.03162 0.0
O1104 O 0.65301 0.86605 0.02794 0.0
O1105 O 0.63689 0.87049 1.01207 0.0
O1106 O 0.55816 0.78647 0.9977 0.0
O1107 O 0.62788 0.81846 0.99471 0.0
O1108 O 0.62162 0.7678 1.01913 0.0
O1109 O 0.66668 0.80155 1.00862 0.0
O1110 O 0.5466 0.73658 1.01103 0.0
O1111 O 0.55799 0.72713 0.027 0.0
H1112 H 0.69868 0.80327 0.05579 0.0
H1113 H 0.72394 0.8273 0.07214 0.0
H1114 H 0.61891 0.85488 0.07642 0.0
H1115 H 0.59328 0.8301 0.06006 0.0
H1116 H 0.53048 0.79147 0.97756 0.0
H1117 H 0.5176 0.75448 0.96208 0.0
H1118 H 0.6141 0.71763 0.96899 0.0
H1119 H 0.62613 0.75399 0.98463 0.0
Tb1120 Tb 0.25805 0.83171 0.03014 0.0
Tb1121 Tb 0.24495 0.80915 1.00914 0.0
C1122 C 0.26433 0.86385 0.0467 0.0
C1123 C 0.24663 0.85313 0.05668 0.0
C1124 C 0.22498 0.87375 0.06068 0.0
C1125 C 0.21524 0.87023 0.07055 0.0
C1126 C 0.22752 0.84651 0.07666 0.0
C1127 C 0.24734 0.82427 0.07258 0.0
C1128 C 0.25669 0.82744 0.06273 0.0
C1129 C 0.24521 0.75282 0.02604 0.0
C1130 C 0.16131 0.78327 0.02172 0.0
C1131 C 0.24321 0.78119 0.9923 0.0
C1132 C 0.26478 0.79697 0.98288 0.0
C1133 C 0.26506 0.7668 0.97637 0.0
C1134 C 0.28339 0.78013 0.96721 0.0
C1135 C 0.30195 0.82408 0.96434 0.0
C1136 C 0.30214 0.85444 0.97096 0.0
C1137 C 0.2838 0.84103 0.98015 0.0
C1138 C 0.26137 0.88992 1.0132 0.0
C1139 C 0.33871 0.8461 1.01868 0.0
O1140 O 0.24007 0.86621 0.03987 0.0
O1141 O 0.28703 0.84613 0.04371 0.0
O1142 O 0.2277 0.77189 0.02198 0.0
O1143 O 0.2658 0.77523 0.03354 0.0
O1144 O 0.18832 0.81001 0.02837 0.0
O1145 O 0.17657 0.77289 1.01403 0.0
O1146 O 0.26713 0.77938 0.99924 0.0
O1147 O 0.21804 0.79613 0.99527 0.0
O1148 O 0.27775 0.86949 1.01718 0.0
O1149 O 0.23824 0.86641 1.00607 0.0
O1150 O 0.31119 0.82027 1.01201 0.0
O1151 O 0.32552 0.86351 0.02536 0.0
H1152 H 0.21729 0.89422 0.05626 0.0
H1153 H 0.20019 0.88799 0.07347 0.0
H1154 H 0.25674 0.80527 0.07706 0.0
H1155 H 0.2735 0.81114 0.05996 0.0
H1156 H 0.25044 0.73263 0.97832 0.0
H1157 H 0.282 0.75567 0.9623 0.0
H1158 H 0.3166 0.88862 0.96906 0.0
H1159 H 0.28413 0.86495 0.98508 0.0
Tb1160 Tb 0.22516 0.4393 0.03261 0.0
Tb1161 Tb 0.24249 0.45126 1.01139 0.0
C1162 C 0.19226 0.41017 0.04891 0.0
C1163 C 0.20216 0.39751 0.05829 0.0
C1164 C 0.1678 0.36496 0.0637 0.0
C1165 C 0.17425 0.35788 0.0733 0.0
C1166 C 0.21523 0.38349 0.07771 0.0
C1167 C 0.25024 0.41451 0.07211 0.0
C1168 C 0.24381 0.42139 0.06248 0.0
C1169 C 0.3058 0.50064 0.02863 0.0
C1170 C 0.26235 0.38447 0.02207 0.0
C1171 C 0.26476 0.47623 0.99417 0.0
C1172 C 0.24879 0.48707 0.98521 0.0
C1173 C 0.26736 0.53083 0.98222 0.0
C1174 C 0.25599 0.54147 0.97338 0.0
C1175 C 0.22584 0.50866 0.96717 0.0
C1176 C 0.20701 0.46483 0.97019 0.0
C1177 C 0.21834 0.45419 0.97906 0.0
C1178 C 0.15999 0.39441 1.01657 0.0
C1179 C 0.22061 0.51562 0.02294 0.0
O1180 O 0.18588 0.3849 0.04147 0.0
O1181 O 0.21497 0.45165 0.04674 0.0
O1182 O 0.2838 0.46593 0.02382 0.0
O1183 O 0.28529 0.49758 0.03655 0.0
O1184 O 0.23852 0.38623 0.02924 0.0
O1185 O 0.27398 0.41244 1.01478 0.0
O1186 O 0.2751 0.5029 1.00149 0.0
O1187 O 0.2453 0.4354 0.99693 0.0
O1188 O 0.18609 0.43005 1.02039 0.0
O1189 O 0.1785 0.39118 1.00886 0.0
O1190 O 0.24084 0.51086 1.01542 0.0
O1191 O 0.20255 0.48489 0.02956 0.0
H1192 H 0.13534 0.34642 0.06063 0.0
H1193 H 0.14648 0.33401 0.07741 0.0
H1194 H 0.28234 0.43434 0.07525 0.0
H1195 H 0.27092 0.44669 0.05845 0.0
H1196 H 0.29154 0.55697 0.98666 0.0
H1197 H 0.27185 0.57554 0.97129 0.0
H1198 H 0.18333 0.43861 0.9657 0.0
H1199 H 0.20365 0.42005 0.98103 0.0
Tb1200 Tb 0.25865 0.45246 0.50955 0.0
Tb1201 Tb 0.26707 0.43766 0.53034 0.0
C1202 C 0.25859 0.48051 0.49274 0.0
C1203 C 0.28009 0.4874 0.48322 0.0
C1204 C 0.26803 0.5061 0.47579 0.0
C1205 C 0.28603 0.51143 0.46656 0.0
C1206 C 0.3168 0.49823 0.46448 0.0
C1207 C 0.32917 0.47983 0.47201 0.0
C1208 C 0.31099 0.47444 0.48127 0.0
C1209 C 0.277 0.38895 0.5132 0.0
C1210 C 0.34898 0.50958 0.52023 0.0
C1211 C 0.27138 0.40752 0.54652 0.0
C1212 C 0.25153 0.396 0.55624 0.0
C1213 C 0.25141 0.36138 0.56121 0.0
C1214 C 0.24045 0.35445 0.57098 0.0
C1215 C 0.22951 0.38218 0.57606 0.0
C1216 C 0.22756 0.41556 0.57093 0.0
C1217 C 0.23843 0.42241 0.56114 0.0
C1218 C 0.2527 0.50363 0.52718 0.0
C1219 C 0.17303 0.38835 0.52073 0.0
O1220 O 0.28204 0.50535 0.49985 0.0
O1221 O 0.23354 0.44009 0.49549 0.0
O1222 O 0.29162 0.42475 0.51752 0.0
O1223 O 0.25472 0.38987 0.50597 0.0
O1224 O 0.32281 0.50868 0.51334 0.0
O1225 O 0.3354 0.47713 0.52644 0.0
O1226 O 0.24956 0.38271 0.53923 0.0
O1227 O 0.29206 0.44898 0.54429 0.0
O1228 O 0.23651 0.46842 0.52247 0.0
O1229 O 0.27201 0.4993 0.53462 0.0
O1230 O 0.19921 0.38718 0.52738 0.0
O1231 O 0.18921 0.41774 0.51372 0.0
H1232 H 0.24404 0.51611 0.4771 0.0
H1233 H 0.27492 0.52499 0.461 0.0
H1234 H 0.35309 0.46972 0.47078 0.0
H1235 H 0.32082 0.4599 0.48687 0.0
H1236 H 0.26183 0.34085 0.55762 0.0
H1237 H 0.24277 0.3287 0.57467 0.0
H1238 H 0.2186 0.43713 0.57454 0.0
H1239 H 0.23823 0.44939 0.55749 0.0
Tb1240 Tb 0.60791 0.81839 0.50877 0.0
Tb1241 Tb 0.61848 0.8263 0.53025 0.0
C1242 C 0.58269 0.798 0.49162 0.0
C1243 C 0.57178 0.81184 0.48249 0.0
C1244 C 0.52868 0.78835 0.47906 0.0
C1245 C 0.51854 0.79512 0.46975 0.0
C1246 C 0.55133 0.82538 0.4636 0.0
C1247 C 0.59416 0.85039 0.46718 0.0
C1248 C 0.60435 0.84358 0.47652 0.0
C1249 C 0.66651 0.89783 0.51527 0.0
C1250 C 0.54549 0.83972 0.52121 0.0
C1251 C 0.64646 0.8522 0.54697 0.0
C1252 C 0.66172 0.84142 0.55591 0.0
C1253 C 0.7039 0.87042 0.55934 0.0
C1254 C 0.71617 0.86596 0.56863 0.0
C1255 C 0.68632 0.8326 0.57474 0.0
C1256 C 0.64489 0.80219 0.57113 0.0
C1257 C 0.63271 0.80649 0.56181 0.0
C1258 C 0.55583 0.74892 0.52448 0.0
C1259 C 0.67097 0.79001 0.51836 0.0
O1260 O 0.55607 0.7892 0.49889 0.0
O1261 O 0.62367 0.81723 0.49428 0.0
O1262 O 0.63057 0.87105 0.51893 0.0
O1263 O 0.66869 0.88219 0.50702 0.0
O1264 O 0.55 0.82242 0.51314 0.0
O1265 O 0.5752 0.85265 0.52809 0.0
O1266 O 0.67197 0.8642 0.53939 0.0
O1267 O 0.60511 0.82764 0.54478 0.0
O1268 O 0.59155 0.77276 0.52023 0.0
O1269 O 0.55765 0.7653 0.5329 0.0
O1270 O 0.66907 0.80977 0.52632 0.0
O1271 O 0.64471 0.78424 0.51102 0.0
H1272 H 0.503 0.76339 0.48346 0.0
H1273 H 0.48507 0.77584 0.46729 0.0
H1274 H 0.62024 0.87379 0.46262 0.0
H1275 H 0.638 0.86195 0.4789 0.0
H1276 H 0.72668 0.89794 0.555 0.0
H1277 H 0.74819 0.89017 0.57122 0.0
H1278 H 0.62138 0.77584 0.57561 0.0
H1279 H 0.59987 0.78357 0.55941 0.0
Tb1280 Tb 0.23784 0.79913 0.51002 0.0
Tb1281 Tb 0.22795 0.78697 0.53144 0.0
C1282 C 0.25661 0.80314 0.49235 0.0
C1283 C 0.24074 0.77878 0.4832 0.0
C1284 C 0.2714 0.78424 0.47613 0.0
C1285 C 0.25782 0.76372 0.46718 0.0
C1286 C 0.21308 0.73716 0.46505 0.0
C1287 C 0.18233 0.73117 0.47223 0.0
C1288 C 0.19602 0.7518 0.48122 0.0
C1289 C 0.15792 0.77265 0.51697 0.0
C1290 C 0.21876 0.70846 0.51923 0.0
C1291 C 0.19912 0.77841 0.54837 0.0
C1292 C 0.20481 0.80002 0.55783 0.0
C1293 C 0.1684 0.79864 0.56226 0.0
C1294 C 0.17024 0.81117 0.57189 0.0
C1295 C 0.20853 0.82511 0.57733 0.0
C1296 C 0.24567 0.82856 0.57273 0.0
C1297 C 0.24387 0.81618 0.56309 0.0
C1298 C 0.3062 0.80698 0.52522 0.0
C1299 C 0.26367 0.88288 0.5226 0.0
O1300 O 0.27045 0.78645 0.49889 0.0
O1301 O 0.23398 0.81961 0.49608 0.0
O1302 O 0.18445 0.76109 0.51965 0.0
O1303 O 0.17447 0.79746 0.50954 0.0
O1304 O 0.23417 0.73549 0.51181 0.0
O1305 O 0.20654 0.71966 0.52724 0.0
O1306 O 0.18405 0.79088 0.54116 0.0
O1307 O 0.2291 0.76914 0.54569 0.0
O1308 O 0.28267 0.82139 0.52181 0.0
O1309 O 0.28873 0.78631 0.53313 0.0
O1310 O 0.24388 0.85577 0.5299 0.0
O1311 O 0.27064 0.86815 0.51439 0.0
H1312 H 0.30608 0.80482 0.47751 0.0
H1313 H 0.28252 0.7685 0.46194 0.0
H1314 H 0.14762 0.71123 0.47085 0.0
H1315 H 0.1717 0.7471 0.48656 0.0
H1316 H 0.13775 0.78584 0.55842 0.0
H1317 H 0.14088 0.80768 0.57519 0.0
H1318 H 0.2759 0.83979 0.57666 0.0
H1319 H 0.27256 0.81764 0.5599 0.0
Tb1320 Tb 0.11817 0.57605 0.36621 0.0
Tb1321 Tb 0.10363 0.57593 0.34502 0.0
C1322 C 0.14644 0.58309 0.38322 0.0
C1323 C 0.15539 0.60954 0.39215 0.0
C1324 C 0.19883 0.63833 0.39491 0.0
C1325 C 0.20834 0.66019 0.40375 0.0
C1326 C 0.17466 0.65371 0.41014 0.0
C1327 C 0.13109 0.62523 0.40734 0.0
C1328 C 0.12157 0.60339 0.39846 0.0
C1329 C 0.05405 0.59209 0.36136 0.0
C1330 C 0.17718 0.66187 0.35404 0.0
C1331 C 0.07411 0.57511 0.32841 0.0
C1332 C 0.06675 0.55563 0.31862 0.0
C1333 C 1.02551 0.5387 0.31426 0.0
C1334 C 1.02022 0.52935 0.30437 0.0
C1335 C 0.05627 0.5374 0.29861 0.0
C1336 C 0.09694 0.55195 0.30308 0.0
C1337 C 0.1021 0.56075 0.31296 0.0
C1338 C 0.16979 0.5643 0.34955 0.0
C1339 C 0.05733 0.48461 0.35627 0.0
O1340 O 0.17147 0.60194 0.37577 0.0
O1341 O 0.1057 0.55747 0.38072 0.0
O1342 O 0.08981 0.60519 0.35703 0.0
O1343 O 0.05544 0.57251 0.36905 0.0
O1344 O 0.17445 0.639 0.36179 0.0
O1345 O 0.14593 0.64572 0.34749 0.0
O1346 O 0.04917 0.55194 0.33558 0.0
O1347 O 0.11473 0.59999 0.33104 0.0
O1348 O 0.13464 0.55036 0.35413 0.0
O1349 O 0.16546 0.57899 0.34136 0.0
O1350 O 0.05621 0.50699 0.3487 0.0
O1351 O 0.08471 0.50516 0.36348 0.0
H1352 H 0.22569 0.64318 0.39031 0.0
H1353 H 0.2423 0.68126 0.40569 0.0
H1354 H 0.10427 0.61975 0.41201 0.0
H1355 H 0.0877 0.58112 0.39664 0.0
H1356 H 0.99781 0.53491 0.3184 0.0
H1357 H 0.98851 0.51836 0.30114 0.0
H1358 H 0.12522 0.55798 0.29886 0.0
H1359 H 0.13441 0.57375 0.31603 0.0
Tb1360 Tb 0.47051 0.56459 0.36427 0.0
Tb1361 Tb 0.46703 0.55232 0.34257 0.0
C1362 C 0.46831 0.58504 0.38167 0.0
C1363 C 0.44359 0.56961 0.39093 0.0
C1364 C 0.40995 0.57852 0.39318 0.0
C1365 C 0.39137 0.57024 0.40241 0.0
C1366 C 0.406 0.55306 0.40973 0.0
C1367 C 0.4386 0.54271 0.40738 0.0
C1368 C 0.45725 0.55107 0.39814 0.0
C1369 C 0.4459 0.4839 0.35812 0.0
C1370 C 0.385 0.54435 0.35257 0.0
C1371 C 0.46321 0.5231 0.32581 0.0
C1372 C 0.48506 0.53069 0.31632 0.0
C1373 C 0.4848 0.49544 0.31159 0.0
C1374 C 0.49702 0.49871 0.30191 0.0
C1375 C 0.50958 0.53735 0.29669 0.0
C1376 C 0.51205 0.57344 0.3016 0.0
C1377 C 0.49995 0.57018 0.3113 0.0
C1378 C 0.48695 0.63185 0.34802 0.0
C1379 C 0.55737 0.58513 0.35338 0.0
O1380 O 0.45051 0.59481 0.37456 0.0
O1381 O 0.48985 0.56613 0.37864 0.0
O1382 O 0.43666 0.51067 0.35451 0.0
O1383 O 0.46604 0.50036 0.3661 0.0
O1384 O 0.40918 0.56311 0.36029 0.0
O1385 O 0.39864 0.52806 0.34572 0.0
O1386 O 0.47913 0.5124 0.33316 0.0
O1387 O 0.44834 0.54906 0.32824 0.0
O1388 O 0.49799 0.60733 0.35224 0.0
O1389 O 0.47041 0.61475 0.33976 0.0
O1390 O 0.53233 0.56319 0.34599 0.0
O1391 O 0.54093 0.59596 0.36081 0.0
H1392 H 0.3988 0.59323 0.38789 0.0
H1393 H 0.3659 0.57804 0.40385 0.0
H1394 H 0.45116 0.52991 0.4128 0.0
H1395 H 0.48357 0.54444 0.39676 0.0
H1396 H 0.47297 0.46448 0.31526 0.0
H1397 H 0.4943 0.47012 0.29838 0.0
H1398 H 0.52225 0.60394 0.29787 0.0
H1399 H 0.5005 0.59798 0.31474 0.0
Tb1400 Tb 0.48165 0.92331 0.36618 0.0
Tb1401 Tb 0.49501 0.93995 0.34521 0.0
C1402 C 0.45925 0.89345 0.38298 0.0
C1403 C 0.47762 0.88777 0.39199 0.0
C1404 C 0.44938 0.85645 0.3986 0.0
C1405 C 0.46474 0.85251 0.40757 0.0
C1406 C 0.50883 0.87987 0.41013 0.0
C1407 C 0.53738 0.91068 0.40338 0.0
C1408 C 0.5219 0.91458 0.39437 0.0
C1409 C 0.56199 0.98748 0.36147 0.0
C1410 C 0.50906 0.86657 0.35345 0.0
C1411 C 0.52436 0.97272 0.32892 0.0
C1412 C 0.518 0.99212 0.32008 0.0
C1413 C 0.55394 0.02965 0.31627 0.0
C1414 C 0.55212 0.04432 0.30704 0.0
C1415 C 0.51424 0.02171 0.30137 0.0
C1416 C 0.47745 0.98529 0.3054 0.0
C1417 C 0.4793 0.97061 0.31465 0.0
C1418 C 0.41683 0.87313 0.34979 0.0
C1419 C 0.45164 0.98559 0.35703 0.0
O1420 O 0.45786 0.86973 0.37564 0.0
O1421 O 0.47122 0.93356 0.38052 0.0
O1422 O 0.53903 0.95223 0.35698 0.0
O1423 O 0.54105 0.98555 0.36922 0.0
O1424 O 0.48834 0.86775 0.36126 0.0
O1425 O 0.52325 0.89818 0.34701 0.0
O1426 O 0.53552 0.99575 0.33686 0.0
O1427 O 0.49749 0.93112 0.33043 0.0
O1428 O 0.43848 0.9082 0.35439 0.0
O1429 O 0.43612 0.87742 0.34162 0.0
O1430 O 0.47518 0.98792 0.34939 0.0
O1431 O 0.44394 0.95646 0.36385 0.0
H1432 H 0.41505 0.83566 0.3969 0.0
H1433 H 0.44166 0.82891 0.41261 0.0
H1434 H 0.57161 0.9319 0.40507 0.0
H1435 H 0.54425 0.93896 0.38935 0.0
H1436 H 0.58433 0.04645 0.32025 0.0
H1437 H 0.5813 0.07211 0.30418 0.0
H1438 H 0.44752 0.96748 0.30131 0.0
H1439 H 0.45104 0.94147 0.31739 0.0
H1440 H 0.16586 0.15195 0.17127 0.0
H1441 H 0.16772 0.18102 0.20138 0.0
H1442 H 0.17555 0.1178 0.2055 0.0
H1443 H 0.17823 0.05172 0.20042 0.0
H1444 H 0.18375 0.02812 0.17016 0.0
H1445 H 0.17753 0.09197 0.16622 0.0
C1446 C 0.16823 0.14456 0.17874 0.0
C1447 C 0.16518 0.17041 0.18603 0.0
C1448 C 0.17431 0.10919 0.18101 0.0
C1449 C 0.16921 0.16108 0.19566 0.0
C1450 C 0.17382 0.12501 0.198 0.0
C1451 C 0.17867 0.06098 0.19298 0.0
C1452 C 0.1813 0.03503 0.1856 0.0
C1453 C 0.17585 0.09844 0.19073 0.0
C1454 C 0.1821 0.04761 0.17599 0.0
C1455 C 0.17821 0.08399 0.17371 0.0
H1456 H 0.98738 0.14143 0.19924 0.0
H1457 H 0.03574 0.15662 0.17021 0.0
H1458 H 0.97359 0.08595 0.16581 0.0
H1459 H 0.90645 1.01853 0.17023 0.0
H1460 H 0.8515 1.00657 0.19845 0.0
H1461 H 0.91479 0.07656 0.20318 0.0
C1462 C 0.98396 0.1293 0.19195 0.0
C1463 C 1.01622 0.1543 0.18506 0.0
C1464 C 0.94709 0.08887 0.18935 0.0
C1465 C 1.01123 0.1383 0.17562 0.0
C1466 C 0.97577 0.0977 0.1731 0.0
C1467 C 0.90825 0.03127 0.17741 0.0
C1468 C 0.87505 1.00651 0.1841 0.0
C1469 C 0.94366 0.07253 0.17991 0.0
C1470 C 0.8774 0.0241 0.19329 0.0
C1471 C 0.91344 0.06441 0.19596 0.0
H1472 H 1.0227 0.8887 0.17131 0.0
H1473 H 0.04881 0.88336 0.20133 0.0
H1474 H 0.97871 0.87778 0.20558 0.0
H1475 H 0.91026 0.87672 0.20061 0.0
H1476 H 0.88212 0.87366 0.17037 0.0
H1477 H 0.95207 0.87969 0.16635 0.0
C1478 C 1.01294 0.8861 0.17878 0.0
C1479 C 0.0413 0.88737 0.18601 0.0
C1480 C 0.97196 0.88123 0.18112 0.0
C1481 C 1.02786 0.88314 0.19565 0.0
C1482 C 0.98769 0.87985 0.19807 0.0
C1483 C 0.91939 0.87697 0.19316 0.0
C1484 C 0.89094 0.87477 0.1858 0.0
C1485 C 0.95954 0.87927 0.19086 0.0
C1486 C 0.90311 0.87487 0.17617 0.0
C1487 C 0.94331 0.87859 0.17386 0.0
H1488 H 0.15235 0.14999 0.37158 0.0
H1489 H 0.19293 0.17035 0.34195 0.0
H1490 H 0.13154 0.18111 0.3378 0.0
H1491 H 0.0634 0.18068 0.34257 0.0
H1492 H 1.02902 0.16964 0.37257 0.0
H1493 H 0.0911 0.16019 0.37665 0.0
C1494 C 0.1479 0.15706 0.36422 0.0
C1495 C 0.17639 0.15799 0.35702 0.0
C1496 C 0.11369 0.16519 0.36198 0.0
C1497 C 0.17085 0.16831 0.34757 0.0
C1498 C 0.13583 0.1747 0.34521 0.0
C1499 C 0.07005 0.17698 0.35001 0.0
C1500 C 0.04159 0.17583 0.35726 0.0
C1501 C 0.1066 0.17259 0.35234 0.0
C1502 C 0.05065 0.17114 0.36687 0.0
C1503 C 0.08596 0.16534 0.3692 0.0
H1504 H 0.88095 0.89931 0.36658 0.0
H1505 H 0.87311 0.89863 0.33567 0.0
H1506 H 0.87771 0.97019 0.336 0.0
H1507 H 0.88792 0.03536 0.34517 0.0
H1508 H 0.90161 0.03639 0.37599 0.0
H1509 H 0.89043 0.96274 0.37559 0.0
C1510 C 0.87955 0.91442 0.35991 0.0
C1511 C 0.87633 0.89335 0.35113 0.0
C1512 C 0.88358 0.9561 0.36014 0.0
C1513 C 0.87542 0.91399 0.34255 0.0
C1514 C 0.87817 0.95504 0.34273 0.0
C1515 C 0.88825 1.01929 0.35177 0.0
C1516 C 0.8957 0.04153 0.36059 0.0
C1517 C 0.88292 0.97682 0.35149 0.0
C1518 C 0.89613 0.02025 0.36909 0.0
C1519 C 0.88969 0.97797 0.36889 0.0
H1520 H 0.03826 0.87314 0.36635 0.0
H1521 H 0.99447 0.88362 0.33816 0.0
H1522 H 0.06646 0.94636 0.33456 0.0
H1523 H 0.13938 1.00332 0.34025 0.0
H1524 H 0.18243 0.99127 0.36855 0.0
H1525 H 0.11368 0.92407 0.37123 0.0
C1526 C 0.04488 0.88869 0.35934 0.0
C1527 C 1.01135 0.87375 0.35249 0.0
C1528 C 0.08619 0.92482 0.35739 0.0
C1529 C 1.02004 0.89401 0.34346 0.0
C1530 C 0.0611 0.93024 0.34146 0.0
C1531 C 0.134 0.98562 0.34694 0.0
C1532 C 0.16594 1.00282 0.35422 0.0
C1533 C 0.0941 0.94668 0.34848 0.0
C1534 C 0.15849 0.97914 0.36282 0.0
C1535 C 0.11903 0.94065 0.36439 0.0
H1536 H 0.89312 0.8753 0.84445 0.0
H1537 H 0.87393 0.86682 0.87515 0.0
H1538 H 0.85838 0.92653 0.87478 0.0
H1539 H 0.85846 0.98683 0.86613 0.0
H1540 H 0.88092 0.99864 0.83552 0.0
H1541 H 0.88637 0.93244 0.83546 0.0
C1542 C 0.88458 0.88603 0.85099 0.0
C1543 C 0.8849 0.86677 0.8598 0.0
C1544 C 0.87668 0.92153 0.85079 0.0
C1545 C 0.87425 0.88128 0.86827 0.0
C1546 C 0.86538 0.91555 0.86808 0.0
C1547 C 0.86363 0.97449 0.85941 0.0
C1548 C 0.86954 0.99805 0.85088 0.0
C1549 C 0.86774 0.93682 0.85944 0.0
C1550 C 0.8765 0.98147 0.84224 0.0
C1551 C 0.87976 0.94354 0.84219 0.0
H1552 H 0.15746 0.02421 0.87228 0.0
H1553 H 0.19739 0.03807 0.84264 0.0
H1554 H 0.13377 0.96649 0.83892 0.0
H1555 H 0.06453 0.90099 0.84414 0.0
H1556 H 0.03036 0.88541 0.87423 0.0
H1557 H 0.09413 0.95621 0.87776 0.0
C1558 C 0.15238 1.01143 0.86501 0.0
C1559 C 0.18139 0.03671 0.85768 0.0
C1560 C 0.11675 0.96982 0.86303 0.0
C1561 C 0.17499 1.01947 0.84835 0.0
C1562 C 0.13868 0.97852 0.84624 0.0
C1563 C 0.07142 0.91303 0.85147 0.0
C1564 C 0.04268 0.88808 0.85891 0.0
C1565 C 0.10896 0.95359 0.85351 0.0
C1566 C 0.05211 0.90382 0.86838 0.0
C1567 C 0.08845 0.94445 0.87041 0.0
H1568 H 1.02864 0.14532 0.8691 0.0
H1569 H 1.0061 0.15563 0.83908 0.0
H1570 H 0.07848 0.16602 0.83513 0.0
H1571 H 0.14767 0.16899 0.84036 0.0
H1572 H 0.17159 0.1674 0.87072 0.0
H1573 H 0.09981 0.1574 0.87439 0.0
C1574 C 0.03964 0.15008 0.86169 0.0
C1575 C 1.0116 0.14857 0.85436 0.0
C1576 C 0.08182 0.15778 0.85955 0.0
C1577 C 1.02672 0.15581 0.84483 0.0
C1578 C 0.0682 0.16187 0.84258 0.0
C1579 C 0.13724 0.16697 0.84776 0.0
C1580 C 0.16501 0.16887 0.85525 0.0
C1581 C 0.09594 0.16237 0.84989 0.0
C1582 C 0.15115 0.16646 0.86482 0.0
C1583 C 0.1099 0.16044 0.86694 0.0
H1584 H 0.89036 0.8959 0.6969 0.0
H1585 H 0.87364 0.86155 0.66686 0.0
H1586 H 0.93103 0.84245 0.66776 0.0
H1587 H 0.99121 0.84337 0.67651 0.0
H1588 H 1.0129 0.8829 0.70627 0.0
H1589 H 0.94843 0.89168 0.7061 0.0
C1590 C 0.89875 0.88329 0.69064 0.0
C1591 C 0.87785 0.87998 0.68184 0.0
C1592 C 0.93309 0.8738 0.69113 0.0
C1593 C 0.88939 0.86435 0.67372 0.0
C1594 C 0.92228 0.85355 0.67421 0.0
C1595 C 0.98154 0.85319 0.68302 0.0
C1596 C 1.00714 0.86264 0.69137 0.0
C1597 C 0.94521 0.85935 0.6828 0.0
C1598 C 0.99396 0.8755 0.69972 0.0
C1599 C 0.9571 0.88068 0.69963 0.0
H1600 H 0.18204 0.13352 0.7016 0.0
H1601 H 0.20997 0.16826 0.67165 0.0
H1602 H 0.20038 0.09659 0.66806 0.0
H1603 H 0.17737 0.02156 0.67306 0.0
H1604 H 0.15479 0.98726 0.703 0.0
H1605 H 0.16922 0.06086 0.70698 0.0
C1606 C 0.18674 0.12561 0.69433 0.0
C1607 C 0.19641 0.1563 0.68691 0.0
C1608 C 0.18176 0.08417 0.69228 0.0
C1609 C 0.20269 0.14554 0.67753 0.0
C1610 C 0.19693 0.10434 0.67543 0.0
C1611 C 0.17629 0.03045 0.68048 0.0
C1612 C 0.16456 0.99886 0.68773 0.0
C1613 C 0.18548 0.07307 0.6827 0.0
C1614 C 0.16373 1.01089 0.69731 0.0
C1615 C 0.17178 0.05302 0.69957 0.0
H1616 H 0.92117 0.05925 0.69876 0.0
H1617 H 0.90222 0.02564 0.66865 0.0
H1618 H 0.97503 0.08577 0.66501 0.0
H1619 H 0.04518 0.14661 0.67031 0.0
H1620 H 0.06281 0.18718 0.69993 0.0
H1621 H 0.98994 0.12607 0.70386 0.0
C1622 C 0.933 0.06547 0.69141 0.0
C1623 C 0.90629 0.03799 0.68399 0.0
C1624 C 0.97485 0.10122 0.68929 0.0
C1625 C 0.9219 0.04653 0.67449 0.0
C1626 C 0.96369 0.0808 0.67239 0.0
C1627 C 0.03301 0.14215 0.67762 0.0
C1628 C 0.05966 0.1707 0.68486 0.0
C1629 C 0.99058 0.10813 0.67972 0.0
C1630 C 0.04316 0.1651 0.69426 0.0
C1631 C 1.00142 0.13024 0.6965 0.0
H1632 H 0.85964 0.39632 0.53273 0.0
H1633 H 0.81835 0.34628 0.50405 0.0
H1634 H 0.80447 0.40566 0.50043 0.0
H1635 H 0.80434 0.47189 0.50524 0.0
H1636 H 0.85341 0.52851 0.53308 0.0
H1637 H 0.86381 0.4668 0.53726 0.0
C1638 C 0.84773 0.39872 0.52571 0.0
C1639 C 0.84014 0.36716 0.51865 0.0
C1640 C 0.84105 0.43401 0.52354 0.0
C1641 C 0.8249 0.37053 0.50955 0.0
C1642 C 0.81675 0.40434 0.50748 0.0
C1643 C 0.81722 0.4707 0.51224 0.0
C1644 C 0.8272 0.50413 0.51892 0.0
C1645 C 0.82478 0.43627 0.5144 0.0
C1646 C 0.84462 0.5026 0.52789 0.0
C1647 C 0.85081 0.46746 0.53025 0.0
H1648 H 0.56676 0.35986 0.50444 0.0
H1649 H 0.54273 0.32886 0.53453 0.0
H1650 H 0.60483 0.40093 0.53868 0.0
H1651 H 0.66897 0.47177 0.53353 0.0
H1652 H 0.68704 0.50307 0.50327 0.0
H1653 H 0.62415 0.43251 0.49945 0.0
C1654 C 0.57491 0.36897 0.51191 0.0
C1655 C 0.55075 0.33876 0.51917 0.0
C1656 C 0.60967 0.41076 0.51422 0.0
C1657 C 0.56117 0.35134 0.52882 0.0
C1658 C 0.59669 0.39259 0.53118 0.0
C1659 C 0.65875 0.46334 0.52612 0.0
C1660 C 0.68311 0.49294 0.51872 0.0
C1661 C 0.62166 0.42245 0.52392 0.0
C1662 C 0.66908 0.48139 0.50916 0.0
C1663 C 0.63313 0.44075 0.50693 0.0
H1664 H 0.58488 0.20226 0.53252 0.0
H1665 H 0.55934 0.20257 0.50219 0.0
H1666 H 0.62916 0.20838 0.49836 0.0
H1667 H 0.69956 0.21848 0.50347 0.0
H1668 H 0.7251 0.21241 0.5335 0.0
H1669 H 0.65336 0.20352 0.53763 0.0
C1670 C 0.59448 0.2031 0.52509 0.0
C1671 C 0.56685 0.20221 0.51766 0.0
C1672 C 0.63481 0.20573 0.52288 0.0
C1673 C 0.57965 0.20297 0.50806 0.0
C1674 C 0.61979 0.20653 0.50584 0.0
C1675 C 0.68929 0.21478 0.51092 0.0
C1676 C 0.71789 0.217 0.51819 0.0
C1677 C 0.64788 0.20867 0.51317 0.0
C1678 C 0.70386 0.21137 0.52779 0.0
C1679 C 0.66284 0.20632 0.53014 0.0
H1680 H 0.83516 0.48744 0.70556 0.0
H1681 H 0.86391 0.48674 0.67551 0.0
H1682 H 0.80338 0.499 0.67127 0.0
H1683 H 0.73891 0.50512 0.67628 0.0
H1684 H 0.7158 0.51197 0.70654 0.0
H1685 H 0.77782 0.5029 0.71052 0.0
C1686 C 0.8284 0.49034 0.69808 0.0
C1687 C 0.85324 0.48523 0.69084 0.0
C1688 C 0.79456 0.49861 0.69575 0.0
C1689 C 0.84478 0.48993 0.68119 0.0
C1690 C 0.8102 0.49697 0.67878 0.0
C1691 C 0.74789 0.50524 0.68373 0.0
C1692 C 0.72246 0.50896 0.69109 0.0
C1693 C 0.78432 0.50062 0.68601 0.0
C1694 C 0.73477 0.50939 0.70072 0.0
C1695 C 0.77014 0.5039 0.70302 0.0
H1696 H 0.55459 0.23808 0.67536 0.0
H1697 H 0.53662 0.20615 0.70559 0.0
H1698 H 0.54577 0.27735 0.70931 0.0
H1699 H 0.56295 0.35025 0.70427 0.0
H1700 H 0.57481 0.38234 0.67418 0.0
H1701 H 0.56397 0.30985 0.6701 0.0
C1702 C 0.55222 0.24664 0.68274 0.0
C1703 C 0.54507 0.21671 0.69017 0.0
C1704 C 0.55679 0.28784 0.68487 0.0
C1705 C 0.5418 0.22823 0.6997 0.0
C1706 C 0.54729 0.26916 0.70187 0.0
C1707 C 0.56291 0.3413 0.69681 0.0
C1708 C 0.57047 0.37176 0.68953 0.0
C1709 C 0.55543 0.29941 0.69455 0.0
C1710 C 0.56951 0.35951 0.67989 0.0
C1711 C 0.56331 0.31807 0.67758 0.0
H1712 H 0.81108 0.31113 0.67624 0.0
H1713 H 0.83421 0.34107 0.7065 0.0
H1714 H 0.763 0.27925 0.71035 0.0
H1715 H 0.69296 0.21843 0.7053 0.0
H1716 H 0.66977 0.18199 0.67544 0.0
H1717 H 0.74185 0.24414 0.67125 0.0
C1718 C 0.80051 0.30377 0.68366 0.0
C1719 C 0.82803 0.3308 0.69106 0.0
C1720 C 0.7594 0.26711 0.68591 0.0
C1721 C 0.814 0.32071 0.70066 0.0
C1722 C 0.77309 0.28542 0.70289 0.0
C1723 C 0.70375 0.22391 0.69787 0.0
C1724 C 0.67587 0.19622 0.69066 0.0
C1725 C 0.74541 0.25868 0.69559 0.0
C1726 C 0.69054 0.20324 0.6811 0.0
C1727 C 0.73174 0.23877 0.67871 0.0
H1728 H 0.57857 0.22231 0.17808 0.0
H1729 H 0.48099 0.17017 0.20045 0.0
H1730 H 0.47493 0.23597 0.2001 0.0
H1731 H 0.50082 0.31099 0.19418 0.0
H1732 H 0.59604 0.36152 0.17128 0.0
H1733 H 0.59927 0.29432 0.1711 0.0
C1734 C 0.55557 0.22515 0.18278 0.0
C1735 C 0.53068 0.19148 0.18934 0.0
C1736 C 0.552 0.2632 0.18252 0.0
C1737 C 0.50082 0.19563 0.19535 0.0
C1738 C 0.49739 0.23341 0.19519 0.0
C1739 C 0.52199 0.30714 0.18911 0.0
C1740 C 0.54826 0.34158 0.18281 0.0
C1741 C 0.52342 0.26786 0.18893 0.0
C1742 C 0.57527 0.3357 0.17622 0.0
C1743 C 0.57732 0.29719 0.17612 0.0
H1744 H 0.82038 0.36088 0.20385 0.0
H1745 H 0.85725 0.37221 0.17403 0.0
H1746 H 0.79216 0.30086 0.17068 0.0
H1747 H 0.72292 0.23611 0.17636 0.0
H1748 H 0.69095 0.22606 0.2066 0.0
H1749 H 0.75604 0.29567 0.20963 0.0
C1750 C 0.81435 0.34771 0.19661 0.0
C1751 C 0.8432 0.37187 0.18918 0.0
C1752 C 0.77764 0.30674 0.19482 0.0
C1753 C 0.83526 0.35419 0.17986 0.0
C1754 C 0.79806 0.31346 0.17796 0.0
C1755 C 0.73041 0.24908 0.18361 0.0
C1756 C 0.70169 0.22566 0.19121 0.0
C1757 C 0.76869 0.28953 0.18539 0.0
C1758 C 0.71219 0.24296 0.20058 0.0
C1759 C 0.74948 0.28303 0.20235 0.0
H1760 H 0.82015 0.51164 0.17348 0.0
H1761 H 0.84377 0.51195 0.2039 0.0
H1762 H 0.77295 0.50493 0.20741 0.0
H1763 H 0.70178 0.4927 0.20191 0.0
H1764 H 0.6796 0.49973 0.17172 0.0
H1765 H 0.7521 0.50998 0.16802 0.0
C1766 C 0.81002 0.51089 0.18087 0.0
C1767 C 0.83726 0.51211 0.18841 0.0
C1768 C 0.76926 0.50766 0.18287 0.0
C1769 C 0.82375 0.51138 0.19795 0.0
C1770 C 0.78302 0.50703 0.19998 0.0
C1771 C 0.71298 0.49693 0.19452 0.0
C1772 C 0.68492 0.49439 0.18707 0.0
C1773 C 0.75515 0.50423 0.1925 0.0
C1774 C 0.70024 0.50084 0.17756 0.0
C1775 C 0.74177 0.50674 0.17546 0.0
H1776 H 0.66073 0.17636 1.01057 0.0
H1777 H 0.68635 0.21791 0.04018 0.0
H1778 H 0.62063 0.22416 0.04064 0.0
H1779 H 0.56047 0.22659 0.03201 0.0
H1780 H 0.53808 0.18895 1.0022 0.0
H1781 H 0.59698 0.1718 1.00248 0.0
C1782 C 0.65152 0.18591 1.01719 0.0
C1783 C 0.67882 0.19695 0.02529 0.0
C1784 C 0.61409 0.19043 1.01736 0.0
C1785 C 0.66625 0.20947 0.03379 0.0
C1786 C 0.6286 0.21318 0.03407 0.0
C1787 C 0.56785 0.2135 0.02569 0.0
C1788 C 0.545 0.20889 1.01711 0.0
C1789 C 0.6029 0.20499 0.02582 0.0
C1790 C 0.55529 0.1927 1.00889 0.0
C1791 C 0.58911 0.18307 1.00903 0.0
H1792 H 0.8126 0.3476 1.00525 0.0
H1793 H 0.84793 0.33447 0.03414 0.0
H1794 H 0.85748 0.40634 0.03831 0.0
H1795 H 0.85293 0.47245 0.03369 0.0
H1796 H 0.82637 0.4872 1.00409 0.0
H1797 H 0.81679 0.41577 1.00022 0.0
C1798 C 0.82262 0.36054 1.01246 0.0
C1799 C 0.82835 0.33525 1.01946 0.0
C1800 C 0.82977 0.40244 1.01465 0.0
C1801 C 0.84232 0.35288 0.02869 0.0
C1802 C 0.84794 0.39408 0.03105 0.0
C1803 C 0.84548 0.46005 0.02639 0.0
C1804 C 0.84029 0.48511 1.01919 0.0
C1805 C 0.84123 0.41904 0.02411 0.0
C1806 C 0.83094 0.46882 1.00975 0.0
C1807 C 0.82518 0.42779 1.00753 0.0
H1808 H 0.55583 0.39572 1.00998 0.0
H1809 H 0.59155 0.35111 0.03547 0.0
H1810 H 0.6615 0.41831 0.03605 0.0
H1811 H 0.7151 0.48814 0.02886 0.0
H1812 H 0.68017 0.53455 1.00363 0.0
H1813 H 0.60778 0.469 1.0035 0.0
C1814 C 0.57879 0.40088 1.01569 0.0
C1815 C 0.56826 0.36807 0.02261 0.0
C1816 C 0.61941 0.44008 1.01605 0.0
C1817 C 0.59846 0.37557 0.03001 0.0
C1818 C 0.63875 0.4141 0.03037 0.0
C1819 C 0.69141 0.48414 0.02341 0.0
C1820 C 0.7031 0.51592 1.01623 0.0
C1821 C 0.64987 0.44633 0.02336 0.0
C1822 C 0.67202 0.5104 1.00923 0.0
C1823 C 0.63063 0.47282 1.00912 0.0
H1824 H 0.50828 0.81866 0.83808 0.0
H1825 H 0.49924 0.84237 0.86812 0.0
H1826 H 0.50833 0.77995 0.87239 0.0
H1827 H 0.51363 0.71514 0.86732 0.0
H1828 H 0.52908 0.69696 0.83718 0.0
H1829 H 0.52357 0.76109 0.83322 0.0
C1830 C 0.50868 0.8104 0.84558 0.0
C1831 C 0.50199 0.83431 0.85279 0.0
C1832 C 0.51522 0.77548 0.84794 0.0
C1833 C 0.50354 0.82392 0.86245 0.0
C1834 C 0.50882 0.78828 0.86488 0.0
C1835 C 0.51647 0.72568 0.85991 0.0
C1836 C 0.52146 0.701 0.85256 0.0
C1837 C 0.51387 0.76325 0.85766 0.0
C1838 C 0.52543 0.71531 0.843 0.0
C1839 C 0.52197 0.75188 0.8407 0.0
H1840 H 0.23125 0.67753 0.83814 0.0
H1841 H 0.1937 0.66316 0.86795 0.0
H1842 H 0.25795 0.73449 0.87158 0.0
H1843 H 0.32692 0.80016 0.86621 0.0
H1844 H 0.35899 0.81568 0.836 0.0
H1845 H 0.29476 0.74519 0.83258 0.0
C1846 C 0.23698 0.69013 0.84543 0.0
C1847 C 0.20828 0.66482 0.8528 0.0
C1848 C 0.27308 0.73154 0.84738 0.0
C1849 C 0.21567 0.68184 0.86218 0.0
C1850 C 0.25239 0.72264 0.86424 0.0
C1851 C 0.31954 0.78818 0.85888 0.0
C1852 C 0.34788 0.8132 0.85138 0.0
C1853 C 0.28169 0.74766 0.8569 0.0
C1854 C 0.33768 0.79737 0.84191 0.0
C1855 C 0.30101 0.75687 0.83994 0.0
H1856 H 0.36055 0.56026 0.83895 0.0
H1857 H 0.3849 0.54148 0.86838 0.0
H1858 H 0.31444 0.5335 0.8732 0.0
H1859 H 0.24542 0.53282 0.86893 0.0
H1860 H 0.21914 0.54309 0.83907 0.0
H1861 H 0.29012 0.553 0.83454 0.0
C1862 C 0.35038 0.55434 0.84642 0.0
C1863 C 0.37828 0.5524 0.85333 0.0
C1864 C 0.30915 0.54803 0.84905 0.0
C1865 C 0.36432 0.54388 0.86295 0.0
C1866 C 0.32392 0.53915 0.8657 0.0
C1867 C 0.25528 0.53693 0.86145 0.0
C1868 C 0.22697 0.53713 0.85435 0.0
C1869 C 0.29602 0.54137 0.85881 0.0
C1870 C 0.24005 0.5423 0.84467 0.0
C1871 C 0.2808 0.54823 0.84206 0.0
H1872 H 0.51542 0.85988 0.03215 0.0
H1873 H 0.49244 0.77993 1.00707 0.0
H1874 H 0.42975 0.78816 1.00271 0.0
H1875 H 0.37687 0.81181 1.00706 0.0
H1876 H 0.40047 0.89182 0.03231 0.0
H1877 H 0.46748 0.89037 0.03549 0.0
C1878 C 0.49714 0.84512 0.02563 0.0
C1879 C 0.50877 0.81995 1.01984 0.0
C1880 C 0.46093 0.8497 0.02325 0.0
C1881 C 0.48475 0.80045 1.01147 0.0
C1882 C 0.44858 0.80474 1.00905 0.0
C1883 C 0.39707 0.82963 1.01315 0.0
C1884 C 0.38317 0.85151 1.01947 0.0
C1885 C 0.43573 0.82848 1.01501 0.0
C1886 C 0.41 0.8745 0.02733 0.0
C1887 C 0.44839 0.87357 0.0292 0.0
H1888 H 0.25126 0.69671 0.03821 0.0
H1889 H 0.21857 0.70854 1.00899 0.0
H1890 H 0.20934 0.6366 1.00515 0.0
H1891 H 0.2121 0.57031 1.0102 0.0
H1892 H 0.23594 0.55626 0.04001 0.0
H1893 H 0.24666 0.62855 0.04356 0.0
C1894 C 0.24201 0.68347 0.031 0.0
C1895 C 0.23661 0.70824 0.02383 0.0
C1896 C 0.23498 0.64146 0.02898 0.0
C1897 C 0.22372 0.69037 1.01458 0.0
C1898 C 0.21829 0.64916 1.0124 0.0
C1899 C 0.2193 0.58312 1.01746 0.0
C1900 C 0.22327 0.55808 0.02483 0.0
C1901 C 0.22412 0.62444 1.01954 0.0
C1902 C 0.23233 0.57478 0.03424 0.0
C1903 C 0.2387 0.61622 0.03627 0.0
H1904 H 0.35142 0.54234 1.01238 0.0
H1905 H 0.36537 0.5311 0.04284 0.0
H1906 H 0.43972 0.59291 0.04236 0.0
H1907 H 0.49766 0.65527 0.03374 0.0
H1908 H 0.4833 0.67002 1.00341 0.0
H1909 H 0.41296 0.60216 1.00337 0.0
C1910 C 0.37125 0.55288 1.01883 0.0
C1911 C 0.35301 0.53223 0.02762 0.0
C1912 C 0.41384 0.58964 1.01857 0.0
C1913 C 0.37872 0.54657 0.03598 0.0
C1914 C 0.42122 0.58206 0.03573 0.0
C1915 C 0.47956 0.64338 0.02708 0.0
C1916 C 0.49581 0.66809 1.01862 0.0
C1917 C 0.43866 0.6047 0.02713 0.0
C1918 C 0.47165 0.65194 1.01006 0.0
C1919 C 0.43125 0.61306 1.01003 0.0
H1920 H 0.24114 0.54345 0.51141 0.0
H1921 H 0.23289 0.53811 0.54233 0.0
H1922 H 0.21705 0.59779 0.54252 0.0
H1923 H 0.21165 0.65561 0.53413 0.0
H1924 H 0.22557 0.66617 0.50331 0.0
H1925 H 0.2328 0.60075 0.50283 0.0
C1926 C 0.23515 0.55502 0.51814 0.0
C1927 C 0.23807 0.53631 0.52684 0.0
C1928 C 0.22743 0.59067 0.51823 0.0
C1929 C 0.23091 0.552 0.53554 0.0
C1930 C 0.22189 0.58622 0.53566 0.0
C1931 C 0.21553 0.64328 0.52728 0.0
C1932 C 0.21792 0.66588 0.51877 0.0
C1933 C 0.22096 0.60642 0.52708 0.0
C1934 C 0.2236 0.64954 0.50998 0.0
C1935 C 0.22784 0.6121 0.5097 0.0
H1936 H 0.50766 0.68206 0.53642 0.0
H1937 H 0.52986 0.71463 0.50638 0.0
H1938 H 0.4678 0.64276 0.50217 0.0
H1939 H 0.40381 0.57192 0.50731 0.0
H1940 H 0.38827 0.53833 0.53743 0.0
H1941 H 0.45138 0.60883 0.54133 0.0
C1942 C 0.49915 0.67329 0.52894 0.0
C1943 C 0.52248 0.70395 0.52172 0.0
C1944 C 0.4646 0.63156 0.52661 0.0
C1945 C 0.51181 0.69185 0.51206 0.0
C1946 C 0.47637 0.65071 0.50967 0.0
C1947 C 0.41474 0.57991 0.51469 0.0
C1948 C 0.39119 0.54994 0.52207 0.0
C1949 C 0.45196 0.6205 0.51691 0.0
C1950 C 0.40589 0.56057 0.5316 0.0
C1951 C 0.44187 0.60107 0.53386 0.0
H1952 H 0.48599 0.83883 0.50826 0.0
H1953 H 0.51337 0.84319 0.53861 0.0
H1954 H 0.44301 0.83608 0.54242 0.0
H1955 H 0.3713 0.82243 0.53731 0.0
H1956 H 0.34383 0.82371 0.50724 0.0
H1957 H 0.41647 0.83513 0.50312 0.0
C1958 C 0.47669 0.83878 0.51569 0.0
C1959 C 0.50491 0.84119 0.52313 0.0
C1960 C 0.43602 0.83536 0.51789 0.0
C1961 C 0.49254 0.84152 0.53273 0.0
C1962 C 0.4521 0.83722 0.53494 0.0
C1963 C 0.38139 0.82574 0.52985 0.0
C1964 C 0.35198 0.82129 0.52257 0.0
C1965 C 0.42329 0.83322 0.5276 0.0
C1966 C 0.36572 0.82648 0.51295 0.0
C1967 C 0.40725 0.83293 0.51061 0.0
H1968 H 0.22729 0.56235 0.33722 0.0
H1969 H 0.19347 0.54866 0.36725 0.0
H1970 H 0.25784 0.54208 0.3711 0.0
H1971 H 0.32553 0.54229 0.36575 0.0
H1972 H 0.35317 0.54923 0.33536 0.0
H1973 H 0.28948 0.55599 0.33183 0.0
C1974 C 0.23388 0.55773 0.34461 0.0
C1975 C 0.20622 0.55675 0.35197 0.0
C1976 C 0.26993 0.55266 0.34669 0.0
C1977 C 0.21469 0.55004 0.36149 0.0
C1978 C 0.25146 0.54623 0.36367 0.0
C1979 C 0.31729 0.54499 0.35837 0.0
C1980 C 0.34411 0.54527 0.35084 0.0
C1981 C 0.27963 0.54787 0.35632 0.0
C1982 C 0.33293 0.54851 0.3413 0.0
C1983 C 0.29658 0.55262 0.33925 0.0
H1984 H 0.49799 0.69673 0.33625 0.0
H1985 H 0.50136 0.66748 0.36615 0.0
H1986 H 0.50923 0.73832 0.37068 0.0
H1987 H 0.5102 0.80691 0.36596 0.0
H1988 H 0.51372 0.83713 0.3358 0.0
H1989 H 0.50882 0.76803 0.33155 0.0
C1990 C 0.50086 0.70601 0.34376 0.0
C1991 C 0.49794 0.67654 0.35089 0.0
C1992 C 0.50667 0.74709 0.34625 0.0
C1993 C 0.50266 0.68932 0.36056 0.0
C1994 C 0.50723 0.72985 0.36314 0.0
C1995 C 0.51045 0.79851 0.35847 0.0
C1996 C 0.51203 0.82709 0.35121 0.0
C1997 C 0.50843 0.75873 0.35603 0.0
C1998 C 0.51275 0.81596 0.34154 0.0
C1999 C 0.50968 0.77625 0.33908 0.0
H2000 H 0.23868 0.71997 0.36677 0.0
H2001 H 0.20913 0.69701 0.33652 0.0
H2002 H 0.28024 0.75943 0.33255 0.0
H2003 H 0.35268 0.81876 0.33754 0.0
H2004 H 0.38048 0.84737 0.36764 0.0
H2005 H 0.30881 0.78495 0.3718 0.0
C2006 C 0.24762 0.72902 0.35932 0.0
C2007 C 0.21836 0.7036 0.35197 0.0
C2008 C 0.28862 0.76584 0.35705 0.0
C2009 C 0.23058 0.71601 0.34235 0.0
C2010 C 0.27152 0.75163 0.34005 0.0
C2011 C 0.34295 0.81142 0.34501 0.0
C2012 C 0.37222 0.8372 0.35229 0.0
C2013 C 0.30106 0.77645 0.34732 0.0
C2014 C 0.3588 0.82775 0.36192 0.0
C2015 C 0.31773 0.79206 0.36429 0.0
H2016 H 0.28799 0.38238 0.17832 0.0
H2017 H 0.28935 0.30773 0.20268 0.0
H2018 H 0.36897 0.34288 0.20165 0.0
H2019 H 0.43909 0.3933 0.19338 0.0
H2020 H 0.43674 0.46903 0.16934 0.0
H2021 H 0.3576 0.43531 0.17072 0.0
C2022 C 0.30561 0.37394 0.18346 0.0
C2023 C 0.28217 0.34213 0.19055 0.0
C2024 C 0.35172 0.39448 0.18286 0.0
C2025 C 0.30609 0.33203 0.19715 0.0
C2026 C 0.35186 0.35208 0.19655 0.0
C2027 C 0.42123 0.40252 0.18848 0.0
C2028 C 0.44414 0.43355 0.18121 0.0
C2029 C 0.37515 0.38309 0.18936 0.0
C2030 C 0.42026 0.44522 0.17498 0.0
C2031 C 0.37478 0.42587 0.17576 0.0
H2032 H 0.58847 0.9835 0.17572 0.0
H2033 H 0.64455 0.0655 0.20062 0.0
H2034 H 0.68748 0.03014 0.20402 0.0
H2035 H 0.71333 0.97928 0.19928 0.0
H2036 H 0.65865 0.89916 0.17401 0.0
H2037 H 0.61142 0.93011 0.17146 0.0
C2038 C 0.60963 0.99321 0.18196 0.0
C2039 C 0.61313 0.02714 0.1879 0.0
C2040 C 0.63502 0.97324 0.18378 0.0
C2041 C 0.64102 0.03942 0.19593 0.0
C2042 C 0.66581 1.0193 0.19787 0.0
C2043 C 0.69074 0.96818 0.19328 0.0
C2044 C 0.69002 0.93693 0.18684 0.0
C2045 C 0.66372 0.98666 0.19175 0.0
C2046 C 0.66045 0.9233 0.17908 0.0
C2047 C 0.63324 0.94102 0.1776 0.0
H2048 H 0.12884 0.76181 0.17736 0.0
H2049 H 0.0585 0.75965 0.20293 0.0
H2050 H 1.01627 0.67999 0.20231 0.0
H2051 H 0.99629 0.61043 0.19404 0.0
H2052 H 0.06714 0.61272 0.16858 0.0
H2053 H 0.11201 0.69222 0.16967 0.0
C2054 C 0.10451 0.74398 0.18284 0.0
C2055 C 0.09688 0.76709 0.19014 0.0
C2056 C 0.08012 0.69787 0.18245 0.0
C2057 C 0.06523 0.74307 0.1972 0.0
C2058 C 0.04087 0.69733 0.19685 0.0
C2059 C 1.0218 0.62834 0.18878 0.0
C2060 C 1.02807 0.60559 0.1812 0.0
C2061 C 0.04759 0.67433 0.18944 0.0
C2062 C 0.06144 0.62933 0.17447 0.0
C2063 C 0.08711 0.6749 0.17508 0.0
H2064 H 0.33142 0.28964 0.34319 0.0
H2065 H 0.3896 0.26549 0.368 0.0
H2066 H 0.43285 0.34369 0.37109 0.0
H2067 H 0.45128 0.41907 0.36739 0.0
H2068 H 0.39297 0.44379 0.34275 0.0
H2069 H 0.35315 0.3657 0.33894 0.0
C2070 C 0.35388 0.30147 0.34921 0.0
C2071 C 0.35685 0.27144 0.35538 0.0
C2072 C 0.3786 0.34678 0.35103 0.0
C2073 C 0.38625 0.2876 0.36315 0.0
C2074 C 0.41109 0.33246 0.36495 0.0
C2075 C 0.43012 0.40736 0.36114 0.0
C2076 C 0.42482 0.43711 0.35541 0.0
C2077 C 0.40705 0.36233 0.35903 0.0
C2078 C 0.39743 0.4215 0.34731 0.0
C2079 C 0.37459 0.37682 0.34513 0.0
H2080 H 0.61746 0.9893 0.34719 0.0
H2081 H 0.61593 0.05157 0.37375 0.0
H2082 H 0.69536 0.09685 0.3733 0.0
H2083 H 0.76627 0.11752 0.36574 0.0
H2084 H 0.76843 0.05689 0.33896 0.0
H2085 H 0.68878 1.01307 0.33913 0.0
C2086 C 0.63453 1.01297 0.35284 0.0
C2087 C 0.61044 1.01661 0.36053 0.0
C2088 C 0.68076 0.03942 0.35253 0.0
C2089 C 0.63333 0.04774 0.36776 0.0
C2090 C 0.67897 0.07375 0.36752 0.0
C2091 C 0.74943 0.09494 0.3599 0.0
C2092 C 0.77393 0.09075 0.35237 0.0
C2093 C 0.70319 0.06967 0.36 0.0
C2094 C 0.75095 0.06121 0.34487 0.0
C2095 C 0.70512 0.03585 0.34496 0.0
H2096 H 0.92747 0.67061 0.3655 0.0
H2097 H 0.98218 0.72333 0.33764 0.0
H2098 H 1.02505 0.6868 0.3381 0.0
H2099 H 0.04979 0.64157 0.34662 0.0
H2100 H 0.99316 0.58645 0.37416 0.0
H2101 H 0.94881 0.62167 0.37357 0.0
C2102 C 0.94855 0.67392 0.35951 0.0
C2103 C 0.95141 0.70008 0.35158 0.0
C2104 C 0.97322 0.65233 0.35975 0.0
C2105 C 0.97895 0.70356 0.34387 0.0
C2106 C 1.00378 0.68268 0.34411 0.0
C2107 C 1.02756 0.63711 0.35246 0.0
C2108 C 1.02521 0.61161 0.36045 0.0
C2109 C 1.00158 0.65725 0.35205 0.0
C2110 C 0.99589 0.60596 0.36792 0.0
C2111 C 0.97044 0.62621 0.36761 0.0
H2112 H 0.62151 0.6405 0.84751 0.0
H2113 H 0.61894 0.57197 0.87334 0.0
H2114 H 0.69845 0.60654 0.87304 0.0
H2115 H 0.76962 0.65912 0.86591 0.0
H2116 H 0.77249 0.72645 0.83983 0.0
H2117 H 0.69283 0.68958 0.83975 0.0
C2118 C 0.63838 0.63291 0.85302 0.0
C2119 C 0.61412 0.6039 0.86048 0.0
C2120 C 0.68452 0.65292 0.85279 0.0
C2121 C 0.63662 0.59429 0.86753 0.0
C2122 C 0.68225 0.61414 0.86738 0.0
C2123 C 0.75288 0.66552 0.86017 0.0
C2124 C 0.77745 0.69588 0.85293 0.0
C2125 C 0.70669 0.64397 0.86012 0.0
C2126 C 0.7548 0.70338 0.84552 0.0
C2127 C 0.70902 0.68233 0.84547 0.0
H2128 H 0.33623 0.05614 0.84352 0.0
H2129 H 0.39291 0.13941 0.86829 0.0
H2130 H 0.43519 0.10392 0.87185 0.0
H2131 H 0.45377 0.0466 0.86852 0.0
H2132 H 0.39767 0.96308 0.84384 0.0
H2133 H 0.35811 1.00122 0.83967 0.0
C2134 C 0.35814 0.06685 0.84964 0.0
C2135 C 0.36094 0.10043 0.85563 0.0
C2136 C 0.38252 0.046 0.85172 0.0
C2137 C 0.38967 0.11365 0.86354 0.0
C2138 C 0.41398 0.09328 0.86561 0.0
C2139 C 0.43314 0.03698 0.86219 0.0
C2140 C 0.42853 1.00182 0.85655 0.0
C2141 C 0.41027 0.05901 0.85985 0.0
C2142 C 0.40173 0.9899 0.84834 0.0
C2143 C 0.379 1.0117 0.84595 0.0
H2144 H 0.93259 0.274 0.86684 0.0
H2145 H 0.99334 0.27794 0.83962 0.0
H2146 H 0.03739 0.35709 0.84062 0.0
H2147 H 0.06108 0.42604 0.8494 0.0
H2148 H 0.99915 0.42306 0.87632 0.0
H2149 H 0.95366 0.34359 0.87523 0.0
C2150 C 0.95529 0.29215 0.86111 0.0
C2151 C 0.9595 0.26953 0.8532 0.0
C2152 C 0.98072 0.33825 0.86167 0.0
C2153 C 0.98912 0.294 0.84583 0.0
C2154 C 1.01459 0.33954 0.84638 0.0
C2155 C 0.03749 0.40796 0.855 0.0
C2156 C 0.0338 0.43051 0.86295 0.0
C2157 C 1.01102 0.36208 0.8543 0.0
C2158 C 1.00282 0.40658 0.87012 0.0
C2159 C 0.97675 0.36102 0.86952 0.0
H2160 H 0.61125 0.62883 0.67289 0.0
H2161 H 0.6651 0.60565 0.69851 0.0
H2162 H 0.70363 0.68392 0.70218 0.0
H2163 H 0.72573 0.75984 0.69758 0.0
H2164 H 0.67193 0.78251 0.67183 0.0
H2165 H 0.6298 0.70411 0.66882 0.0
C2166 C 0.63111 0.64088 0.67932 0.0
C2167 C 0.63551 0.61139 0.68537 0.0
C2168 C 0.65347 0.6861 0.68136 0.0
C2169 C 0.6613 0.6276 0.69369 0.0
C2170 C 0.68342 0.67244 0.69579 0.0
C2171 C 0.70442 0.74766 0.69137 0.0
C2172 C 0.70241 0.77746 0.68493 0.0
C2173 C 0.68032 0.70217 0.6896 0.0
C2174 C 0.6745 0.76071 0.67691 0.0
C2175 C 0.65032 0.71569 0.67516 0.0
H2176 H 0.41867 0.98619 0.67246 0.0
H2177 H 0.44468 0.06173 0.69846 0.0
H2178 H 0.36697 0.02185 0.70254 0.0
H2179 H 0.29095 0.96799 0.69837 0.0
H2180 H 0.2643 0.89415 0.67206 0.0
H2181 H 0.34247 0.93056 0.66851 0.0
C2182 C 0.4073 0.99365 0.67905 0.0
C2183 C 0.4375 0.02692 0.68514 0.0
C2184 C 0.36227 0.97094 0.68129 0.0
C2185 C 0.42221 0.03629 0.69364 0.0
C2186 C 0.3777 1.01351 0.69598 0.0
C2187 C 0.30218 0.95947 0.6919 0.0
C2188 C 0.27148 0.92826 0.6855 0.0
C2189 C 0.34731 0.98109 0.68981 0.0
C2190 C 0.28694 0.91803 0.67713 0.0
C2191 C 0.33176 0.93892 0.67507 0.0
H2192 H 0.06524 0.43934 0.67456 0.0
H2193 H 0.9787 0.37599 0.69848 0.0
H2194 H 1.01874 0.33814 0.70247 0.0
H2195 H 0.07626 0.31995 0.69864 0.0
H2196 H 0.16231 0.38347 0.67459 0.0
H2197 H 0.12494 0.42421 0.67126 0.0
C2198 C 0.05535 0.41746 0.68068 0.0
C2199 C 1.01884 0.4103 0.68617 0.0
C2200 C 0.07846 0.39561 0.68292 0.0
C2201 C 1.00656 0.38197 0.69411 0.0
C2202 C 1.02945 0.36025 0.69639 0.0
C2203 C 0.08717 0.34304 0.69274 0.0
C2204 C 0.12207 0.34826 0.68686 0.0
C2205 C 0.06518 0.36636 0.69078 0.0
C2206 C 0.13552 0.37841 0.67923 0.0
C2207 C 0.11408 0.40181 0.67729 0.0
H2208 H 0.96384 0.65598 0.53218 0.0
H2209 H 0.94155 0.73292 0.51128 0.0
H2210 H 1.0197 0.77528 0.50796 0.0
H2211 H 0.09426 0.78748 0.51009 0.0
H2212 H 0.11697 0.71018 0.53074 0.0
H2213 H 0.03938 0.67143 0.53506 0.0
C2214 C 0.97611 0.68248 0.52702 0.0
C2215 C 0.94649 0.69095 0.52198 0.0
C2216 C 1.02139 0.70652 0.52501 0.0
C2217 C 0.96327 0.72534 0.51526 0.0
C2218 C 1.00811 0.74963 0.51332 0.0
C2219 C 0.08225 0.76237 0.51558 0.0
C2220 C 0.11136 0.75156 0.52003 0.0
C2221 C 0.03742 0.73997 0.51799 0.0
C2222 C 0.09528 0.71905 0.52717 0.0
C2223 C 0.05083 0.69682 0.52964 0.0
H2224 H 0.34475 0.25396 0.50939 0.0
H2225 H 0.40478 0.31217 0.53653 0.0
H2226 H 0.37088 0.3577 0.53612 0.0
H2227 H 0.32695 0.38418 0.52766 0.0
H2228 H 0.26564 0.32472 0.50074 0.0
H2229 H 0.29704 0.27689 0.50148 0.0
C2230 C 0.35016 0.27629 0.51527 0.0
C2231 C 0.37765 0.27955 0.52295 0.0
C2232 C 0.33048 0.30261 0.515 0.0
C2233 C 0.38392 0.30873 0.5305 0.0
C2234 C 0.36462 0.33504 0.53027 0.0
C2235 C 0.32033 0.36058 0.52199 0.0
C2236 C 0.29428 0.35837 0.51411 0.0
C2237 C 0.33832 0.33278 0.52249 0.0
C2238 C 0.2857 0.32731 0.50687 0.0
C2239 C 0.3037 0.2999 0.50728 0.0
H2240 H 0.73708 0.9639 0.50614 0.0
H2241 H 0.65481 0.9367 0.53105 0.0
H2242 H 0.69366 1.01427 0.53533 0.0
H2243 H 0.74827 0.09099 0.53143 0.0
H2244 H 0.83019 0.11751 0.50641 0.0
H2245 H 0.79471 0.03971 0.50284 0.0
C2246 C 0.72792 0.97493 0.51255 0.0
C2247 C 0.69282 0.94451 0.51821 0.0
C2248 C 0.75036 0.01977 0.51495 0.0
C2249 C 0.68152 0.95939 0.52652 0.0
C2250 C 0.70374 1.00384 0.52898 0.0
C2251 C 0.75881 0.07975 0.52527 0.0
C2252 C 0.79185 0.11049 0.51919 0.0
C2253 C 0.73785 0.03454 0.52317 0.0
C2254 C 0.80478 0.09497 0.51122 0.0
C2255 C 0.7844 0.05028 0.50914 0.0
H2256 H 0.12721 0.74003 0.70061 0.0
H2257 H 0.05318 0.76236 0.67902 0.0
H2258 H 1.01424 0.68443 0.67495 0.0
H2259 H 0.99795 0.60876 0.67824 0.0
H2260 H 0.07123 0.58708 0.70019 0.0
H2261 H 0.11364 0.66541 0.70332 0.0
C2262 C 0.10277 0.72788 0.69496 0.0
C2263 C 0.093 0.75702 0.69016 0.0
C2264 C 0.08018 0.68288 0.69273 0.0
C2265 C 0.06128 0.74068 0.68285 0.0
C2266 C 0.03894 0.69604 0.68053 0.0
C2267 C 1.02364 0.62122 0.6836 0.0
C2268 C 0.03117 0.59175 0.68897 0.0
C2269 C 0.04766 0.66663 0.6855 0.0
C2270 C 0.06443 0.60872 0.69596 0.0
C2271 C 0.08876 0.65365 0.69778 0.0
H2272 H 0.30143 0.32299 0.68083 0.0
H2273 H 0.29832 0.38527 0.70725 0.0
H2274 H 0.37734 0.43346 0.70654 0.0
H2275 H 0.44827 0.45612 0.69885 0.0
H2276 H 0.45176 0.39542 0.67218 0.0
H2277 H 0.37239 0.34926 0.67252 0.0
C2278 C 0.3181 0.34727 0.68639 0.0
C2279 C 0.29393 0.35013 0.69413 0.0
C2280 C 0.36389 0.37538 0.68591 0.0
C2281 C 0.31602 0.3821 0.70124 0.0
C2282 C 0.36135 0.40976 0.70084 0.0
C2283 C 0.43172 0.4331 0.69306 0.0
C2284 C 0.45637 0.42933 0.68554 0.0
C2285 C 0.38577 0.40644 0.69328 0.0
C2286 C 0.43397 0.39927 0.67809 0.0
C2287 C 0.38839 0.37259 0.67828 0.0
H2288 H 0.66775 0.92748 0.70068 0.0
H2289 H 0.75297 0.99257 0.67667 0.0
H2290 H 0.71176 0.02944 0.67293 0.0
H2291 H 0.65383 0.04648 0.67703 0.0
H2292 H 0.5694 0.98198 0.70124 0.0
H2293 H 0.60751 0.94162 0.70427 0.0
C2294 C 0.67709 0.94952 0.69459 0.0
C2295 C 0.71359 0.95747 0.68901 0.0
C2296 C 0.65333 0.97089 0.69252 0.0
C2297 C 0.72517 0.98603 0.68112 0.0
C2298 C 0.70159 1.00716 0.67898 0.0
C2299 C 0.64335 0.02319 0.68289 0.0
C2300 C 0.60875 1.01757 0.68891 0.0
C2301 C 0.6659 1.0003 0.6847 0.0
C2302 C 0.59595 0.98728 0.6965 0.0
C2303 C 0.61783 0.96414 0.69826 0.0
H2304 H 0.28334 0.97299 0.18048 0.0
H2305 H 0.28193 0.90875 0.20692 0.0
H2306 H 0.36115 0.94127 0.20621 0.0
H2307 H 0.43181 0.99126 0.19862 0.0
H2308 H 0.43389 0.05464 0.17198 0.0
H2309 H 0.35426 1.01909 0.1722 0.0
C2310 C 0.30041 0.9659 0.18604 0.0
C2311 C 0.27657 0.93875 0.19379 0.0
C2312 C 0.34641 0.98469 0.18557 0.0
C2313 C 0.29928 0.92969 0.20089 0.0
C2314 C 0.34475 0.94834 0.20051 0.0
C2315 C 0.41492 0.99699 0.1928 0.0
C2316 C 0.43928 0.0259 0.18532 0.0
C2317 C 0.36881 0.97639 0.19296 0.0
C2318 C 0.41638 0.03261 0.17784 0.0
C2319 C 0.37062 1.01238 0.17797 0.0
H2320 H 0.05244 0.45107 0.19802 0.0
H2321 H 0.98766 0.38542 0.17181 0.0
H2322 H 1.02273 0.34095 0.17253 0.0
H2323 H 0.06999 0.31808 0.18097 0.0
H2324 H 0.13532 0.38483 0.20703 0.0
H2325 H 0.10226 0.431 0.20596 0.0
C2326 C 0.04614 0.42727 0.19242 0.0
C2327 C 1.0171 0.42178 0.18489 0.0
C2328 C 0.06654 0.40156 0.19287 0.0
C2329 C 1.00971 0.39064 0.17771 0.0
C2330 C 0.02975 0.36496 0.17812 0.0
C2331 C 0.07714 0.3429 0.18638 0.0
C2332 C 0.10496 0.34762 0.19411 0.0
C2333 C 0.05793 0.36973 0.18572 0.0
C2334 C 0.11396 0.3802 0.20102 0.0
C2335 C 0.09499 0.40671 0.20043 0.0
H2336 H 0.61975 0.6136 0.20111 0.0
H2337 H 0.63617 0.61966 0.17033 0.0
H2338 H 0.67883 0.69923 0.17101 0.0
H2339 H 0.71516 0.76822 0.18045 0.0
H2340 H 0.69902 0.76123 0.21123 0.0
H2341 H 0.65325 0.6821 0.21041 0.0
C2342 C 0.6322 0.63228 0.19454 0.0
C2343 C 0.62464 0.61023 0.18571 0.0
C2344 C 0.65737 0.67843 0.19496 0.0
C2345 C 0.64147 0.63539 0.17728 0.0
C2346 C 0.66606 0.68115 0.17764 0.0
C2347 C 0.7013 0.74934 0.18695 0.0
C2348 C 0.71068 0.77087 0.19588 0.0
C2349 C 0.67482 0.70319 0.18645 0.0
C2350 C 0.69254 0.7457 0.20424 0.0
C2351 C 0.66622 0.70024 0.2038 0.0
H2352 H 0.31535 0.94597 0.0268 0.0
H2353 H 0.25071 0.94214 1.00029 0.0
H2354 H 0.28694 0.02206 1.00013 0.0
H2355 H 0.33975 0.09414 1.00734 0.0
H2356 H 0.40142 0.09533 0.03424 0.0
H2357 H 0.36394 1.01645 0.03437 0.0
C2358 C 0.30901 0.96265 0.02103 0.0
C2359 C 0.28064 0.93813 1.01356 0.0
C2360 C 0.32973 1.00861 0.021 0.0
C2361 C 0.27251 0.96024 1.00614 0.0
C2362 C 0.29334 1.00604 1.00603 0.0
C2363 C 0.3448 0.07711 1.01323 0.0
C2364 C 0.37378 0.10129 1.02071 0.0
C2365 C 0.32249 0.03078 1.01338 0.0
C2366 C 0.37953 0.07824 0.02833 0.0
C2367 C 0.35806 0.03274 0.02845 0.0
H2368 H 0.09401 0.32901 1.00609 0.0
H2369 H 0.11973 0.40224 0.03243 0.0
H2370 H 0.04174 0.36394 0.03619 0.0
H2371 H 0.96578 0.31199 0.03171 0.0
H2372 H 0.93918 0.23954 1.0052 0.0
H2373 H 1.01748 0.2749 1.00184 0.0
C2374 C 0.08249 0.33628 1.01268 0.0
C2375 C 0.11269 0.36855 1.01896 0.0
C2376 C 0.03727 0.31438 1.01476 0.0
C2377 C 0.09723 0.37767 0.02746 0.0
C2378 C 0.05256 0.35579 0.02962 0.0
C2379 C 0.97699 0.30364 0.02522 0.0
C2380 C 0.94629 0.2731 1.01872 0.0
C2381 C 1.02219 0.32443 0.02327 0.0
C2382 C 0.9618 0.26291 1.01034 0.0
C2383 C 1.00671 0.2832 1.0084 0.0
H2384 H 0.73206 0.65675 0.03071 0.0
H2385 H 0.82569 0.726 1.00819 0.0
H2386 H 0.79265 0.77115 1.00536 0.0
H2387 H 0.73442 0.78849 1.00849 0.0
H2388 H 0.63955 0.71893 0.0307 0.0
H2389 H 0.67579 0.67704 0.03445 0.0
C2390 C 0.7456 0.68209 0.02527 0.0
C2391 C 0.78135 0.68761 1.01966 0.0
C2392 C 0.72598 0.70792 0.02356 0.0
C2393 C 0.79813 0.7206 1.01261 0.0
C2394 C 0.7792 0.74657 1.01095 0.0
C2395 C 0.72192 0.76445 1.01421 0.0
C2396 C 0.68419 0.7568 1.01927 0.0
C2397 C 0.74268 0.7401 1.01626 0.0
C2398 C 0.66848 0.7255 0.02667 0.0
C2399 C 0.68917 0.70141 0.02881 0.0
H2400 H 0.76918 0.05945 0.86082 0.0
H2401 H 0.76954 0.13182 0.83584 0.0
H2402 H 0.69027 0.09821 0.83671 0.0
H2403 H 0.61983 0.04554 0.84404 0.0
H2404 H 0.61888 0.97483 0.86938 0.0
H2405 H 0.69852 1.01052 0.86893 0.0
C2406 C 0.75188 0.06806 0.85562 0.0
C2407 C 0.77547 0.09789 0.84822 0.0
C2408 C 0.70584 0.04876 0.8562 0.0
C2409 C 0.75242 0.10885 0.84159 0.0
C2410 C 0.7069 0.08956 0.84207 0.0
C2411 C 0.63699 0.03816 0.84952 0.0
C2412 C 0.61297 1.00721 0.8567 0.0
C2413 C 0.68311 0.05905 0.84926 0.0
C2414 C 0.63616 0.99846 0.86376 0.0
C2415 C 0.68191 1.01879 0.86349 0.0
H2416 H 0.93603 0.65413 0.84168 0.0
H2417 H 0.99416 0.74068 0.86584 0.0
H2418 H 0.03343 0.70271 0.87028 0.0
H2419 H 0.05448 0.6468 0.86688 0.0
H2420 H 0.99526 0.55979 0.84278 0.0
H2421 H 0.95357 0.5955 0.83887 0.0
C2422 C 0.95706 0.66446 0.84795 0.0
C2423 C 0.96231 0.7005 0.85335 0.0
C2424 C 0.97969 0.64232 0.85051 0.0
C2425 C 0.98961 0.71325 0.86149 0.0
C2426 C 1.01219 0.6915 0.86405 0.0
C2427 C 0.03211 0.6353 0.86084 0.0
C2428 C 1.02853 0.6006 0.85514 0.0
C2429 C 1.00795 0.65624 0.85856 0.0
C2430 C 0.99919 0.58644 0.84732 0.0
C2431 C 0.97518 0.60695 0.84504 0.0
H2432 H 0.32862 0.2762 0.86094 0.0
H2433 H 0.39659 0.27601 0.8352 0.0
H2434 H 0.44309 0.35532 0.83615 0.0
H2435 H 0.46252 0.4255 0.84389 0.0
H2436 H 0.39542 0.42563 0.86983 0.0
H2437 H 0.35116 0.34618 0.86924 0.0
C2438 C 0.35378 0.29357 0.85558 0.0
C2439 C 0.35883 0.27024 0.84797 0.0
C2440 C 0.38068 0.33939 0.85619 0.0
C2441 C 0.39183 0.29316 0.84111 0.0
C2442 C 0.41847 0.3386 0.84165 0.0
C2443 C 0.43847 0.40818 0.84945 0.0
C2444 C 0.43233 0.43185 0.85685 0.0
C2445 C 0.41291 0.36219 0.84909 0.0
C2446 C 0.40101 0.40856 0.86402 0.0
C2447 C 0.37547 0.36295 0.86369 0.0
H2448 H 0.71945 0.9451 0.03319 0.0
H2449 H 0.65135 0.94423 1.00737 0.0
H2450 H 0.68747 0.02349 1.00761 0.0
H2451 H 0.73737 0.09409 1.01529 0.0
H2452 H 0.80844 0.09604 0.04062 0.0
H2453 H 0.77269 1.01637 0.04039 0.0
C2454 C 0.71263 0.96228 0.02761 0.0
C2455 C 0.68251 0.93831 1.0203 0.0
C2456 C 0.73415 1.0085 0.02768 0.0
C2457 C 0.67442 0.96142 1.0131 0.0
C2458 C 0.69503 1.00702 1.01322 0.0
C2459 C 0.74517 0.07704 1.02072 0.0
C2460 C 0.77534 0.10108 0.02798 0.0
C2461 C 0.72482 0.031 1.02049 0.0
C2462 C 0.78526 0.07843 0.03494 0.0
C2463 C 0.76474 0.03273 0.03484 0.0
H2464 H 0.96996 0.67298 0.03863 0.0
H2465 H 0.93659 0.65925 1.00862 0.0
H2466 H 1.01394 0.70416 1.00432 0.0
H2467 H 0.092 0.74631 1.0092 0.0
H2468 H 0.12381 0.76387 0.0394 0.0
H2469 H 0.04675 0.71892 0.04351 0.0
C2470 C 0.9797 0.67997 0.03115 0.0
C2471 C 0.94761 0.66291 0.02393 0.0
C2472 C 1.02418 0.70662 0.02878 0.0
C2473 C 0.96059 0.67249 1.01429 0.0
C2474 C 1.0049 0.69797 1.01184 0.0
C2475 C 0.08194 0.74048 1.01667 0.0
C2476 C 0.11377 0.75848 0.02396 0.0
C2477 C 0.03712 0.71516 1.01903 0.0
C2478 C 0.10013 0.75082 0.03362 0.0
C2479 C 0.05597 0.72485 0.036 0.0
H2480 H 0.32806 0.38341 1.01156 0.0
H2481 H 0.23899 0.31866 0.03508 0.0
H2482 H 0.27294 0.27436 0.03804 0.0
H2483 H 0.33059 0.25614 0.03459 0.0
H2484 H 0.42044 0.32127 1.01127 0.0
H2485 H 0.38367 0.36264 1.00762 0.0
C2486 C 0.3157 0.35926 1.01726 0.0
C2487 C 0.28092 0.35474 0.02309 0.0
C2488 C 0.33582 0.33392 1.01903 0.0
C2489 C 0.26572 0.32325 0.03048 0.0
C2490 C 0.28521 0.29779 0.0322 0.0
C2491 C 0.3419 0.27916 0.02866 0.0
C2492 C 0.3784 0.28566 0.02325 0.0
C2493 C 0.3207 0.30321 0.02663 0.0
C2494 C 0.39254 0.31564 1.01559 0.0
C2495 C 0.37151 0.33941 1.01349 0.0
H2496 H 0.10658 0.38951 0.51065 0.0
H2497 H 0.13052 0.32349 0.53393 0.0
H2498 H 0.05246 0.28092 0.53722 0.0
H2499 H 0.97713 0.26443 0.53409 0.0
H2500 H 0.95238 0.33008 0.51094 0.0
H2501 H 0.0304 0.37028 0.507 0.0
C2502 C 0.09473 0.36554 0.51638 0.0
C2503 C 0.12479 0.3601 0.52204 0.0
C2504 C 0.04939 0.34107 0.51832 0.0
C2505 C 0.1085 0.32876 0.52946 0.0
C2506 C 0.06368 0.30429 0.53137 0.0
C2507 C 0.98881 0.28735 0.52815 0.0
C2508 C 0.95898 0.29442 0.52286 0.0
C2509 C 0.03383 0.31053 0.52595 0.0
C2510 C 0.97464 0.32412 0.51516 0.0
C2511 C 1.01932 0.34719 0.5129 0.0
H2512 H 0.71841 0.78348 0.53306 0.0
H2513 H 0.68102 0.74379 0.50365 0.0
H2514 H 0.71591 0.69896 0.50424 0.0
H2515 H 0.75247 0.66613 0.51363 0.0
H2516 H 0.78671 0.70511 0.54317 0.0
H2517 H 0.75801 0.75477 0.54198 0.0
C2518 C 0.71827 0.76551 0.52672 0.0
C2519 C 0.6968 0.76704 0.51834 0.0
C2520 C 0.73774 0.73916 0.52715 0.0
C2521 C 0.69712 0.74329 0.51022 0.0
C2522 C 0.71701 0.71744 0.51056 0.0
C2523 C 0.75422 0.68605 0.51972 0.0
C2524 C 0.77172 0.68182 0.52848 0.0
C2525 C 0.73676 0.71439 0.51905 0.0
C2526 C 0.77328 0.70753 0.53636 0.0
C2527 C 0.75682 0.73602 0.53569 0.0
H2528 H 0.32051 0.95016 0.5109 0.0
H2529 H 0.25181 0.92462 0.53791 0.0
H2530 H 0.28735 1.00298 0.54112 0.0
H2531 H 0.34057 0.07918 0.53665 0.0
H2532 H 0.41093 0.10478 0.50991 0.0
H2533 H 0.37211 0.02654 0.5062 0.0
C2534 C 0.31296 0.96165 0.51746 0.0
C2535 C 0.28337 0.93109 0.52415 0.0
C2536 C 0.33405 1.00706 0.51934 0.0
C2537 C 0.27439 0.94701 0.53262 0.0
C2538 C 0.29479 0.992 0.53448 0.0
C2539 C 0.34716 0.06766 0.52998 0.0
C2540 C 0.37874 0.09796 0.52357 0.0
C2541 C 0.32506 0.02237 0.52795 0.0
C2542 C 0.38688 0.08232 0.51497 0.0
C2543 C 0.36469 0.03747 0.51285 0.0
H2544 H 1.01625 0.43067 0.34094 0.0
H2545 H 0.04394 0.42746 0.371 0.0
H2546 H 1.00913 0.34769 0.37036 0.0
H2547 H 0.97358 0.27801 0.36096 0.0
H2548 H 0.94995 0.28342 0.33074 0.0
H2549 H 0.97985 0.36216 0.33177 0.0
C2550 C 1.01432 0.41262 0.3474 0.0
C2551 C 0.03282 0.43551 0.35602 0.0
C2552 C 0.99495 0.36662 0.34694 0.0
C2553 C 0.03015 0.41108 0.36425 0.0
C2554 C 1.01022 0.36525 0.36389 0.0
C2555 C 0.97461 0.29645 0.35465 0.0
C2556 C 0.95933 0.27457 0.34578 0.0
C2557 C 0.9929 0.34252 0.35524 0.0
C2558 C 0.96141 0.2992 0.33765 0.0
C2559 C 0.9786 0.34442 0.33823 0.0
H2560 H 0.75224 0.65193 0.3402 0.0
H2561 H 0.77867 0.74714 0.36241 0.0
H2562 H 0.70104 0.70978 0.36671 0.0
H2563 H 0.62442 0.65264 0.36339 0.0
H2564 H 0.59883 0.55849 0.34092 0.0
H2565 H 0.67678 0.59242 0.33759 0.0
C2566 C 0.74105 0.66426 0.34604 0.0
C2567 C 0.77121 0.70245 0.35093 0.0
C2568 C 0.69623 0.64279 0.34842 0.0
C2569 C 0.75615 0.71791 0.3585 0.0
C2570 C 0.71168 0.69656 0.36095 0.0
C2571 C 0.63594 0.63914 0.35787 0.0
C2572 C 0.60547 0.60308 0.35239 0.0
C2573 C 0.6812 0.65931 0.35587 0.0
C2574 C 0.62124 0.58632 0.34522 0.0
C2575 C 0.66598 0.60577 0.34329 0.0
H2576 H 0.32315 0.06167 0.36141 0.0
H2577 H 0.39576 0.13535 0.33659 0.0
H2578 H 0.44188 0.10218 0.33742 0.0
H2579 H 0.45983 0.04969 0.34471 0.0
H2580 H 0.38854 0.97685 0.36975 0.0
H2581 H 0.34437 1.01228 0.36935 0.0
C2582 C 0.34926 0.07061 0.35623 0.0
C2583 C 0.35567 0.10069 0.3489 0.0
C2584 C 0.37603 0.05144 0.35677 0.0
C2585 C 0.38988 0.11215 0.34229 0.0
C2586 C 0.41633 0.09314 0.34274 0.0
C2587 C 0.43487 0.04175 0.35013 0.0
C2588 C 0.42756 1.01033 0.3572 0.0
C2589 C 0.40944 0.06234 0.34988 0.0
C2590 C 0.39509 1.0008 0.36419 0.0
C2591 C 0.36959 0.021 0.36396 0.0
H2592 H 0.18357 0.30984 0.08877 0.0
H2593 H 0.25752 0.45062 0.09046 0.0
H2594 H 0.26002 0.44671 0.10794 0.0
H2595 H 0.237 0.40351 0.12286 0.0
H2596 H 0.16173 0.26277 0.12116 0.0
H2597 H 0.1643 0.26651 0.10365 0.0
C2598 C 0.20037 0.33965 0.09296 0.0
C2599 C 0.22021 0.38044 0.08828 0.0
C2600 C 0.2014 0.33721 0.10305 0.0
C2601 C 0.24237 0.41873 0.09384 0.0
C2602 C 0.24354 0.41656 0.10386 0.0
C2603 C 0.22133 0.37366 0.11866 0.0
C2604 C 0.19915 0.33294 0.12336 0.0
C2605 C 0.22255 0.37602 0.10856 0.0
C2606 C 0.17952 0.29456 0.11777 0.0
C2607 C 0.18064 0.29666 0.10774 0.0
H2608 H 0.61958 0.82034 0.09134 0.0
H2609 H 0.75595 0.88719 0.08334 0.0
H2610 H 0.77686 0.89742 0.10027 0.0
H2611 H 0.75648 0.88389 0.11737 0.0
H2612 H 0.62009 0.81832 0.12533 0.0
H2613 H 0.59934 0.81146 0.10843 0.0
C2614 C 0.65392 0.83791 0.09327 0.0
C2615 C 0.68607 0.85274 0.08601 0.0
C2616 C 0.66579 0.84367 0.10305 0.0
C2617 C 0.7304 0.87479 0.08873 0.0
C2618 C 0.74244 0.88083 0.09843 0.0
C2619 C 0.72222 0.86879 0.11543 0.0
C2620 C 0.68995 0.8514 0.12267 0.0
C2621 C 0.71042 0.86488 0.10566 0.0
C2622 C 0.64569 0.83138 0.11995 0.0
C2623 C 0.63375 0.82759 0.11027 0.0
H2624 H 0.24449 0.8668 0.12192 0.0
H2625 H 0.11082 0.83781 0.11918 0.0
H2626 H 0.11477 0.83135 0.1018 0.0
H2627 H 0.15674 0.83539 0.08718 0.0
H2628 H 0.28915 0.86124 0.09016 0.0
H2629 H 0.28463 0.8664 0.10757 0.0
C2630 C 0.21582 0.85822 0.11759 0.0
C2631 C 0.1775 0.85317 0.12198 0.0
C2632 C 0.21804 0.85395 0.10756 0.0
C2633 C 0.14113 0.84281 0.11608 0.0
C2634 C 0.14323 0.83884 0.1061 0.0
C2635 C 0.18455 0.84211 0.09165 0.0
C2636 C 0.22321 0.84783 0.08733 0.0
C2637 C 0.18167 0.84479 0.10173 0.0
C2638 C 0.25881 0.85616 0.09327 0.0
C2639 C 0.25634 0.85935 0.10324 0.0
H2640 H 0.42771 0.22748 0.45064 0.0
H2641 H 0.29138 0.15724 0.45867 0.0
H2642 H 0.27039 0.14767 0.44175 0.0
H2643 H 0.29066 0.15537 0.42464 0.0
H2644 H 0.42698 0.22719 0.41663 0.0
H2645 H 0.44782 0.24017 0.43354 0.0
C2646 C 0.39336 0.21082 0.44872 0.0
C2647 C 0.36126 0.1929 0.45599 0.0
C2648 C 0.38142 0.20537 0.43894 0.0
C2649 C 0.31691 0.1708 0.45328 0.0
C2650 C 0.30482 0.16544 0.44358 0.0
C2651 C 0.32492 0.17458 0.42656 0.0
C2652 C 0.35713 0.18994 0.4193 0.0
C2653 C 0.33679 0.182 0.43634 0.0
C2654 C 0.4014 0.21425 0.42202 0.0
C2655 C 0.4134 0.22189 0.43171 0.0
H2656 H 0.89545 0.16364 0.42256 0.0
H2657 H 0.81566 0.22169 0.41659 0.0
H2658 H 0.80606 0.22787 0.43379 0.0
H2659 H 0.82419 0.22119 0.45052 0.0
H2660 H 0.90345 0.16255 0.4565 0.0
H2661 H 0.90907 0.15197 0.43932 0.0
C2662 C 0.87525 0.17687 0.425 0.0
C2663 C 0.85652 0.19238 0.41824 0.0
C2664 C 0.87001 0.18054 0.43493 0.0
C2665 C 0.831 0.21006 0.4216 0.0
C2666 C 0.82536 0.21348 0.43145 0.0
C2667 C 0.84199 0.2053 0.4481 0.0
C2668 C 0.86354 0.1929 0.45484 0.0
C2669 C 0.84528 0.19948 0.43818 0.0
C2670 C 0.88704 0.173 0.4515 0.0
C2671 C 0.89016 0.1668 0.44166 0.0
H2672 H 0.80222 0.70046 0.42051 0.0
H2673 H 0.93197 0.71773 0.41868 0.0
H2674 H 0.93164 0.7061 0.43599 0.0
H2675 H 0.89464 0.69109 0.45166 0.0
H2676 H 0.76349 0.67043 0.45331 0.0
H2677 H 0.76458 0.68373 0.4361 0.0
C2678 C 0.83025 0.70109 0.42385 0.0
C2679 C 0.86703 0.70986 0.41823 0.0
C2680 C 0.82978 0.69414 0.43382 0.0
C2681 C 0.90336 0.71149 0.42279 0.0
C2682 C 0.90314 0.70467 0.4327 0.0
C2683 C 0.86606 0.68905 0.44826 0.0
C2684 C 0.82905 0.67977 0.45387 0.0
C2685 C 0.86655 0.696 0.43829 0.0
C2686 C 0.79276 0.6782 0.44929 0.0
C2687 C 0.79317 0.68541 0.4394 0.0
H2688 H 0.87166 0.63935 0.91896 0.0
H2689 H 0.79692 0.7053 0.92111 0.0
H2690 H 0.78679 0.68959 0.93833 0.0
H2691 H 0.80239 0.66004 0.95296 0.0
H2692 H 0.87692 0.59398 0.95046 0.0
H2693 H 0.88288 0.60588 0.93316 0.0
C2694 C 0.85219 0.64941 0.92312 0.0
C2695 C 0.83514 0.67353 0.91871 0.0
C2696 C 0.84654 0.64032 0.93299 0.0
C2697 C 0.81087 0.6871 0.92432 0.0
C2698 C 0.80498 0.67806 0.93417 0.0
C2699 C 0.8198 0.64818 0.9486 0.0
C2700 C 0.8391 0.62609 0.953 0.0
C2701 C 0.82334 0.65534 0.93862 0.0
C2702 C 0.86124 0.61055 0.94725 0.0
C2703 C 0.86492 0.61758 0.93736 0.0
H2704 H 0.29837 0.14084 0.9246 0.0
H2705 H 0.42931 0.23689 0.91599 0.0
H2706 H 0.45317 0.24656 0.9327 0.0
H2707 H 0.43576 0.23208 0.9499 0.0
H2708 H 0.30441 0.13771 0.95858 0.0
H2709 H 0.28174 0.12386 0.94175 0.0
C2710 C 0.33215 0.16395 0.92636 0.0
C2711 C 0.36187 0.18818 0.91898 0.0
C2712 C 0.34553 0.17006 0.93604 0.0
C2713 C 0.40572 0.21733 0.92145 0.0
C2714 C 0.41936 0.22321 0.93104 0.0
C2715 C 0.40234 0.20791 0.94812 0.0
C2716 C 0.37184 0.1861 0.95553 0.0
C2717 C 0.38942 0.20027 0.93841 0.0
C2718 C 0.32848 0.1554 0.95305 0.0
C2719 C 0.31551 0.14734 0.94342 0.0
H2720 H 0.88272 0.13677 0.92473 0.0
H2721 H 0.81991 0.20934 0.9161 0.0
H2722 H 0.80808 0.22019 0.93291 0.0
H2723 H 0.81336 0.20742 0.95017 0.0
H2724 H 0.87868 0.13727 0.9588 0.0
H2725 H 0.89163 0.12755 0.94201 0.0
C2726 C 0.867 0.15555 0.92648 0.0
C2727 C 0.85204 0.17184 0.919 0.0
C2728 C 0.86041 0.162 0.93625 0.0
C2729 C 0.83117 0.19554 0.92158 0.0
C2730 C 0.82456 0.20206 0.93125 0.0
C2731 C 0.831 0.19052 0.94843 0.0
C2732 C 0.84458 0.17287 0.9559 0.0
C2733 C 0.83871 0.18516 0.93867 0.0
C2734 C 0.86691 0.15058 0.95333 0.0
C2735 C 0.87464 0.14518 0.94367 0.0
H2736 H 0.63448 0.82096 0.59019 0.0
H2737 H 0.7627 0.84419 0.58244 0.0
H2738 H 0.7832 0.85194 0.59941 0.0
H2739 H 0.76641 0.85735 0.61632 0.0
H2740 H 0.63919 0.83747 0.62394 0.0
H2741 H 0.61611 0.82161 0.60719 0.0
C2742 C 0.6666 0.82679 0.59222 0.0
C2743 C 0.69707 0.83213 0.58505 0.0
C2744 C 0.67834 0.83179 0.60198 0.0
C2745 C 0.73882 0.84041 0.58781 0.0
C2746 C 0.75051 0.84476 0.59751 0.0
C2747 C 0.73357 0.84943 0.61433 0.0
C2748 C 0.70474 0.84895 0.6214 0.0
C2749 C 0.72086 0.84147 0.60464 0.0
C2750 C 0.662 0.83769 0.6187 0.0
C2751 C 0.64888 0.82902 0.60909 0.0
H2752 H 0.17233 0.86694 0.58703 0.0
H2753 H 0.24414 0.79919 0.5915 0.0
H2754 H 0.23975 0.80594 0.60886 0.0
H2755 H 0.21231 0.82772 0.62287 0.0
H2756 H 0.13922 0.89414 0.6184 0.0
H2757 H 0.14756 0.89147 0.60105 0.0
C2758 C 0.18707 0.85369 0.5918 0.0
C2759 C 0.20851 0.83255 0.58791 0.0
C2760 C 0.18415 0.85738 0.60182 0.0
C2761 C 0.22791 0.81613 0.59424 0.0
C2762 C 0.22513 0.81967 0.6042 0.0
C2763 C 0.19823 0.84164 0.6181 0.0
C2764 C 0.17511 0.86105 0.62199 0.0
C2765 C 0.20285 0.83972 0.60808 0.0
C2766 C 0.15765 0.87947 0.61566 0.0
C2767 C 0.16211 0.87767 0.60571 0.0
H2768 H 0.18703 0.30761 0.58696 0.0
H2769 H 0.25926 0.44827 0.58931 0.0
H2770 H 0.25462 0.44281 0.60678 0.0
H2771 H 0.23333 0.39819 0.62152 0.0
H2772 H 0.16283 0.25751 0.61917 0.0
H2773 H 0.16339 0.26302 0.6017 0.0
C2774 C 0.20178 0.3371 0.59129 0.0
C2775 C 0.22351 0.3783 0.58674 0.0
C2776 C 0.19937 0.33378 0.6014 0.0
C2777 C 0.2418 0.4161 0.59253 0.0
C2778 C 0.23949 0.41302 0.60256 0.0
C2779 C 0.21807 0.3687 0.6172 0.0
C2780 C 0.19809 0.32748 0.62174 0.0
C2781 C 0.21884 0.37205 0.60709 0.0
C2782 C 0.17795 0.28971 0.61595 0.0
C2783 C 0.17855 0.2928 0.60592 0.0
H2784 H 1.00658 0.54007 0.75848 0.0
H2785 H 0.04624 0.44383 0.75413 0.0
H2786 H 0.05949 0.4434 0.77127 0.0
H2787 H 0.05823 0.46853 0.78759 0.0
H2788 H 1.01885 0.56456 0.79231 0.0
H2789 H 1.0072 0.56693 0.77501 0.0
C2790 C 1.01814 0.51905 0.76129 0.0
C2791 C 1.02563 0.49224 0.75495 0.0
C2792 C 1.02562 0.51876 0.77125 0.0
C2793 C 0.04094 0.46544 0.75875 0.0
C2794 C 0.0482 0.46485 0.76859 0.0
C2795 C 0.04679 0.48978 0.78485 0.0
C2796 C 0.03896 0.51596 0.79127 0.0
C2797 C 0.04037 0.49109 0.77491 0.0
C2798 C 1.02518 0.5441 0.78754 0.0
C2799 C 1.01837 0.54534 0.77765 0.0
H2800 H 0.47887 0.49675 0.7542 0.0
H2801 H 0.59923 0.4945 0.75726 0.0
H2802 H 0.59546 0.49947 0.77469 0.0
H2803 H 0.56066 0.50919 0.78899 0.0
H2804 H 0.43838 0.50812 0.78615 0.0
H2805 H 0.44056 0.50022 0.76878 0.0
C2806 C 0.50409 0.49711 0.7587 0.0
C2807 C 0.53927 0.49524 0.75442 0.0
C2808 C 0.50163 0.49976 0.76877 0.0
C2809 C 0.57155 0.49541 0.76036 0.0
C2810 C 0.56956 0.49851 0.77034 0.0
C2811 C 0.5339 0.50627 0.78464 0.0
C2812 C 0.49966 0.50979 0.78897 0.0
C2813 C 0.53501 0.50117 0.77463 0.0
C2814 C 0.46573 0.50654 0.78307 0.0
C2815 C 0.46679 0.50178 0.7731 0.0
H2816 H 0.57059 0.08578 0.75799 0.0
H2817 H 0.50012 0.94847 0.75087 0.0
H2818 H 0.4956 0.92973 0.76787 0.0
H2819 H 0.50727 0.95223 0.78482 0.0
H2820 H 0.57804 0.08949 0.79198 0.0
H2821 H 0.5871 0.10827 0.77491 0.0
C2822 C 0.55499 0.05174 0.76013 0.0
C2823 C 0.53552 1.01861 0.75313 0.0
C2824 C 0.55229 0.04116 0.76995 0.0
C2825 C 0.51485 0.97467 0.75609 0.0
C2826 C 0.51237 0.9639 0.76582 0.0
C2827 C 0.52549 0.98627 0.78266 0.0
C2828 C 0.54182 1.01937 0.78971 0.0
C2829 C 0.53034 0.99686 0.77283 0.0
C2830 C 0.56465 0.06331 0.78673 0.0
C2831 C 0.56995 0.0741 0.77697 0.0
H2832 H 0.54977 0.10445 0.25975 0.0
H2833 H 0.47601 0.9681 0.25187 0.0
H2834 H 0.46411 0.94754 0.2688 0.0
H2835 H 0.47884 0.96789 0.28584 0.0
H2836 H 0.55104 0.10428 0.29375 0.0
H2837 H 0.55895 0.12505 0.27683 0.0
C2838 C 0.53031 0.07026 0.26171 0.0
C2839 C 0.51416 0.03792 0.25448 0.0
C2840 C 0.52355 0.05858 0.27149 0.0
C2841 C 0.48954 0.99374 0.25723 0.0
C2842 C 0.48254 0.98191 0.26694 0.0
C2843 C 0.49551 1.00221 0.2839 0.0
C2844 C 0.51456 0.0344 0.29112 0.0
C2845 C 0.50001 1.014 0.27413 0.0
C2846 C 0.53664 0.0787 0.28839 0.0
C2847 C 0.54106 0.09066 0.27869 0.0
H2848 H 0.99471 0.47101 0.28744 0.0
H2849 H 0.10973 0.59877 0.28571 0.0
H2850 H 0.10321 0.59783 0.26824 0.0
H2851 H 0.06308 0.56243 0.25349 0.0
H2852 H 0.9503 0.4327 0.25499 0.0
H2853 H 0.95746 0.43308 0.27241 0.0
C2854 C 1.01837 0.49853 0.28322 0.0
C2855 C 0.05268 0.53489 0.2879 0.0
C2856 C 1.0147 0.49763 0.2731 0.0
C2857 C 0.08328 0.57017 0.28231 0.0
C2858 C 0.07945 0.56976 0.2723 0.0
C2859 C 0.04047 0.53377 0.25755 0.0
C2860 C 1.00586 0.4978 0.25279 0.0
C2861 C 0.04515 0.5338 0.26761 0.0
C2862 C 0.9767 0.4614 0.25836 0.0
C2863 C 0.9809 0.46141 0.26837 0.0
H2864 H 0.51058 0.54733 0.25116 0.0
H2865 H 0.57934 0.47585 0.25448 0.0
H2866 H 0.57681 0.48144 0.27191 0.0
H2867 H 0.55208 0.50355 0.28634 0.0
H2868 H 0.48196 0.57368 0.28301 0.0
H2869 H 0.48826 0.57184 0.26559 0.0
C2870 C 0.52504 0.53298 0.25569 0.0
C2871 C 0.54513 0.51119 0.25144 0.0
C2872 C 0.52321 0.53601 0.26577 0.0
C2873 C 0.56418 0.49334 0.25748 0.0
C2874 C 0.56246 0.49621 0.26749 0.0
C2875 C 0.53818 0.51846 0.28181 0.0
C2876 C 0.51657 0.53873 0.28605 0.0
C2877 C 0.54162 0.51702 0.27173 0.0
C2878 C 0.49932 0.55837 0.28001 0.0
C2879 C 0.50259 0.55703 0.27001 0.0
H2880 H 0.95918 0.17363 0.28297 0.0
H2881 H 0.04605 0.12896 0.29279 0.0
H2882 H 0.08073 0.14393 0.27701 0.0
H2883 H 0.08657 0.16947 0.26039 0.0
H2884 H 0.99952 0.21357 0.25039 0.0
H2885 H 0.96565 0.20007 0.26628 0.0
C2886 C 0.98597 0.16756 0.28169 0.0
C2887 C 0.99969 0.1499 0.2891 0.0
C2888 C 1.00594 0.17629 0.27255 0.0
C2889 C 0.03422 0.14185 0.28723 0.0
C2890 C 0.05429 0.15063 0.2782 0.0
C2891 C 0.0599 0.17577 0.26163 0.0
C2892 C 0.04565 0.19242 0.25412 0.0
C2893 C 0.04027 0.16759 0.27078 0.0
C2894 C 1.01161 0.2012 0.25601 0.0
C2895 C 0.99199 0.19324 0.2651 0.0
H2896 H 0.92527 0.8749 0.28122 0.0
H2897 H 0.78979 0.81498 0.28969 0.0
H2898 H 0.7711 0.83161 0.27395 0.0
H2899 H 0.79348 0.86456 0.25783 0.0
H2900 H 0.92924 0.92513 0.24955 0.0
H2901 H 0.94758 0.90768 0.26521 0.0
C2902 C 0.8917 0.86589 0.27968 0.0
C2903 C 0.85907 0.8438 0.28669 0.0
C2904 C 0.88121 0.87585 0.27064 0.0
C2905 C 0.81558 0.83159 0.28444 0.0
C2906 C 0.80487 0.84131 0.27544 0.0
C2907 C 0.82702 0.87363 0.25943 0.0
C2908 C 0.85993 0.89632 0.25251 0.0
C2909 C 0.83742 0.86346 0.26848 0.0
C2910 C 0.90332 0.90823 0.25477 0.0
C2911 C 0.91383 0.89806 0.26371 0.0
H2912 H 0.25526 0.09075 0.28211 0.0
H2913 H 0.13362 0.98936 0.29401 0.0
H2914 H 0.11255 0.95376 0.27835 0.0
H2915 H 0.12789 0.95154 0.2612 0.0
H2916 H 0.24918 0.05277 0.24917 0.0
H2917 H 0.27146 0.08743 0.26495 0.0
C2918 C 0.22437 0.06058 0.28132 0.0
C2919 C 0.19601 0.04307 0.28928 0.0
C2920 C 0.21235 0.04007 0.27224 0.0
C2921 C 0.15586 1.00414 0.28802 0.0
C2922 C 0.14383 0.98355 0.27906 0.0
C2923 C 0.1591 0.98138 0.26199 0.0
C2924 C 0.18664 0.99951 0.25393 0.0
C2925 C 0.1716 1.00139 0.27109 0.0
C2926 C 0.22738 0.03773 0.25521 0.0
C2927 C 0.24007 0.05778 0.26425 0.0
H2928 H 1.01724 0.79186 0.78758 0.0
H2929 H 1.00488 0.90737 0.78865 0.0
H2930 H 0.03183 0.9255 0.77222 0.0
H2931 H 0.05826 0.9086 0.75743 0.0
H2932 H 0.07145 0.79363 0.75623 0.0
H2933 H 0.04357 0.77472 0.77264 0.0
C2934 C 1.0202 0.82088 0.78421 0.0
C2935 C 1.0093 0.84834 0.78946 0.0
C2936 C 0.0355 0.83109 0.77466 0.0
C2937 C 1.0138 0.88602 0.78493 0.0
C2938 C 1.02889 0.89628 0.77547 0.0
C2939 C 0.05543 0.87955 0.76076 0.0
C2940 C 0.06713 0.8527 0.75552 0.0
C2941 C 0.03991 0.86913 0.77026 0.0
C2942 C 0.06224 0.81472 0.75997 0.0
C2943 C 0.0466 0.80402 0.76941 0.0
H2944 H 0.14067 0.20067 0.76121 0.0
H2945 H 0.24884 0.19503 0.74825 0.0
H2946 H 0.26972 0.18046 0.76395 0.0
H2947 H 0.25571 0.16644 0.78134 0.0
H2948 H 0.14709 0.17165 0.79418 0.0
H2949 H 0.1276 0.18823 0.77856 0.0
C2950 C 0.16865 0.19593 0.76178 0.0
C2951 C 0.19296 0.19887 0.75347 0.0
C2952 C 0.1803 0.18712 0.77084 0.0
C2953 C 0.22967 0.19348 0.75447 0.0
C2954 C 0.24152 0.18483 0.76346 0.0
C2955 C 0.22807 0.17168 0.78075 0.0
C2956 C 0.20282 0.16745 0.78898 0.0
C2957 C 0.21695 0.18134 0.7717 0.0
C2958 C 0.16677 0.17391 0.788 0.0
C2959 C 0.15569 0.18366 0.77905 0.0
H2960 H 0.92469 0.098 0.77915 0.0
H2961 H 0.80779 0.99052 0.79126 0.0
H2962 H 0.78694 0.95604 0.77545 0.0
H2963 H 0.80319 0.95489 0.75822 0.0
H2964 H 0.92042 0.06246 0.74622 0.0
H2965 H 0.94011 0.09767 0.76194 0.0
C2966 C 0.89479 0.06685 0.77837 0.0
C2967 C 0.86803 0.04695 0.78647 0.0
C2968 C 0.88311 0.04694 0.76925 0.0
C2969 C 0.82893 1.00697 0.7852 0.0
C2970 C 0.81707 0.98702 0.77614 0.0
C2971 C 0.83279 0.98628 0.759 0.0
C2972 C 0.86034 1.00571 0.75098 0.0
C2973 C 0.844 1.00657 0.76811 0.0
C2974 C 0.89887 0.04623 0.75224 0.0
C2975 C 0.91009 0.06659 0.76124 0.0
H2976 H 0.65161 0.45707 0.61633 0.0
H2977 H 0.73373 0.59102 0.62527 0.0
H2978 H 0.76519 0.61032 0.60913 0.0
H2979 H 0.77121 0.58855 0.59256 0.0
H2980 H 0.68918 0.45422 0.58384 0.0
H2981 H 0.65658 0.43567 0.59983 0.0
C2982 C 0.6767 0.49045 0.6148 0.0
C2983 C 0.6904 0.52243 0.62207 0.0
C2984 C 0.69489 0.50126 0.60552 0.0
C2985 C 0.72225 0.56572 0.61983 0.0
C2986 C 0.74045 0.57677 0.6106 0.0
C2987 C 0.74589 0.55532 0.59413 0.0
C2988 C 0.73296 0.52281 0.58699 0.0
C2989 C 0.72717 0.54476 0.60339 0.0
C2990 C 0.70034 0.4798 0.58921 0.0
C2991 C 0.68149 0.46916 0.59835 0.0
H2992 H 0.58613 0.22438 0.62017 0.0
H2993 H 0.48276 0.08955 0.62073 0.0
H2994 H 0.46343 0.0957 0.60419 0.0
H2995 H 0.47745 0.13873 0.58928 0.0
H2996 H 0.58177 0.27319 0.58882 0.0
H2997 H 0.59975 0.26727 0.60543 0.0
C2998 C 0.55957 0.19614 0.61667 0.0
C2999 C 0.53609 0.15652 0.62177 0.0
C3000 C 0.54901 0.19966 0.60709 0.0
C3001 C 0.50115 0.12068 0.6171 0.0
C3002 C 0.49026 0.12404 0.60758 0.0
C3003 C 0.50396 0.16681 0.59282 0.0
C3004 C 0.52844 0.20623 0.5877 0.0
C3005 C 0.51413 0.1633 0.60247 0.0
C3006 C 0.56288 0.24214 0.59245 0.0
C3007 C 0.57302 0.23892 0.60201 0.0
H3008 H 0.88166 0.42277 0.61514 0.0
H3009 H 0.88809 0.3134 0.62704 0.0
H3010 H 0.87627 0.28042 0.61108 0.0
H3011 H 0.86159 0.28123 0.59373 0.0
H3012 H 0.85553 0.39106 0.58194 0.0
H3013 H 0.86871 0.42442 0.59782 0.0
C3014 C 0.88015 0.39154 0.61429 0.0
C3015 C 0.88568 0.37071 0.62238 0.0
C3016 C 0.87308 0.37253 0.60506 0.0
C3017 C 0.88445 0.3306 0.621 0.0
C3018 C 0.8774 0.31151 0.61185 0.0
C3019 C 0.86364 0.31271 0.59459 0.0
C3020 C 0.85717 0.33324 0.58655 0.0
C3021 C 0.8715 0.33206 0.60382 0.0
C3022 C 0.85952 0.37388 0.58794 0.0
C3023 C 0.86734 0.39323 0.59705 0.0
H3024 H 0.6853 0.20259 0.08659 0.0
H3025 H 0.81685 0.24101 0.09538 0.0
H3026 H 0.79469 0.23226 0.1122 0.0
H3027 H 0.73813 0.2135 0.12452 0.0
H3028 H 0.60591 0.17284 0.11577 0.0
H3029 H 0.62862 0.18423 0.09899 0.0
C3030 C 0.70924 0.20938 0.09218 0.0
C3031 C 0.75271 0.22213 0.08963 0.0
C3032 C 0.69628 0.20434 0.10192 0.0
C3033 C 0.78301 0.23035 0.09704 0.0
C3034 C 0.77044 0.22567 0.1067 0.0
C3035 C 0.71406 0.2068 0.11898 0.0
C3036 C 0.67022 0.19238 0.12156 0.0
C3037 C 0.72711 0.21247 0.10925 0.0
C3038 C 0.64003 0.18476 0.11415 0.0
C3039 C 0.6529 0.19083 0.10448 0.0
H3040 H 0.89735 0.48736 0.11278 0.0
H3041 H 0.83201 0.54577 0.1277 0.0
H3042 H 0.81211 0.56446 0.11236 0.0
H3043 H 0.81349 0.56485 0.09465 0.0
H3044 H 0.8787 0.50626 0.07975 0.0
H3045 H 0.89927 0.4883 0.09508 0.0
C3046 C 0.87919 0.50463 0.11271 0.0
C3047 C 0.86623 0.51495 0.12147 0.0
C3048 C 0.86794 0.51556 0.10382 0.0
C3049 C 0.842 0.53673 0.12113 0.0
C3050 C 0.83078 0.54772 0.11233 0.0
C3051 C 0.83189 0.54782 0.09473 0.0
C3052 C 0.84445 0.53708 0.08596 0.0
C3053 C 0.84342 0.53718 0.10362 0.0
C3054 C 0.86898 0.51562 0.08631 0.0
C3055 C 0.88057 0.50501 0.09511 0.0
H3056 H 0.49284 0.38585 0.11629 0.0
H3057 H 0.6123 0.38243 0.12026 0.0
H3058 H 0.60465 0.35112 0.10426 0.0
H3059 H 0.5646 0.32524 0.0891 0.0
H3060 H 0.44445 0.32726 0.0851 0.0
H3061 H 0.45257 0.35978 0.10101 0.0
C3062 C 0.5173 0.37844 0.11364 0.0
C3063 C 0.55293 0.38624 0.11952 0.0
C3064 C 0.51283 0.36056 0.10438 0.0
C3065 C 0.58412 0.37606 0.11598 0.0
C3066 C 0.57997 0.35846 0.10679 0.0
C3067 C 0.53994 0.33243 0.09172 0.0
C3068 C 0.50392 0.32367 0.08587 0.0
C3069 C 0.54445 0.3505 0.10094 0.0
C3070 C 0.47283 0.33412 0.08936 0.0
C3071 C 0.47725 0.35242 0.0985 0.0
H3072 H 0.35812 0.8931 0.92163 0.0
H3073 H 0.41273 0.80791 0.9233 0.0
H3074 H 0.38753 0.78953 0.93984 0.0
H3075 H 0.34978 0.79711 0.95388 0.0
H3076 H 0.29445 0.88165 0.95234 0.0
H3077 H 0.32116 0.90161 0.93588 0.0
C3078 C 0.36476 0.87073 0.92563 0.0
C3079 C 0.38693 0.85159 0.92112 0.0
C3080 C 0.35029 0.86034 0.93523 0.0
C3081 C 0.39495 0.82246 0.92646 0.0
C3082 C 0.38082 0.81214 0.93597 0.0
C3083 C 0.34325 0.81968 0.94994 0.0
C3084 C 0.31994 0.83768 0.9544 0.0
C3085 C 0.35825 0.83065 0.94042 0.0
C3086 C 0.31269 0.8676 0.94919 0.0
C3087 C 0.32769 0.87881 0.93972 0.0
H3088 H 0.21166 0.46587 0.94981 0.0
H3089 H 0.21429 0.57806 0.96287 0.0
H3090 H 0.19866 0.59923 0.94736 0.0
H3091 H 0.18425 0.58638 0.93001 0.0
H3092 H 0.18171 0.47439 0.91687 0.0
H3093 H 0.19601 0.45234 0.93245 0.0
C3094 C 0.20836 0.4947 0.94931 0.0
C3095 C 0.21453 0.52034 0.95761 0.0
C3096 C 0.19911 0.50677 0.9403 0.0
C3097 C 0.21057 0.55794 0.95667 0.0
C3098 C 0.20132 0.57001 0.94777 0.0
C3099 C 0.18714 0.5573 0.9305 0.0
C3100 C 0.18184 0.53225 0.92216 0.0
C3101 C 0.19577 0.54486 0.93952 0.0
C3102 C 0.18498 0.4942 0.9231 0.0
C3103 C 0.1935 0.48164 0.93203 0.0
H3104 H 0.53057 0.62228 0.92627 0.0
H3105 H 0.52846 0.7338 0.91426 0.0
H3106 H 0.54518 0.76899 0.93001 0.0
H3107 H 0.55817 0.76723 0.94724 0.0
H3108 H 0.5592 0.65548 0.95942 0.0
H3109 H 0.54627 0.62173 0.94351 0.0
C3110 C 0.53441 0.65456 0.92707 0.0
C3111 C 0.52806 0.67527 0.9191 0.0
C3112 C 0.54383 0.67455 0.93617 0.0
C3113 C 0.5326 0.71688 0.9203 0.0
C3114 C 0.5423 0.73709 0.92929 0.0
C3115 C 0.55528 0.73534 0.94643 0.0
C3116 C 0.55924 0.71375 0.95453 0.0
C3117 C 0.5474 0.71599 0.9373 0.0
C3118 C 0.55649 0.67293 0.95331 0.0
C3119 C 0.54886 0.65351 0.94421 0.0
H3120 H 0.33787 0.56429 0.4514 0.0
H3121 H 0.3364 0.44211 0.45479 0.0
H3122 H 0.36404 0.44826 0.43844 0.0
H3123 H 0.38719 0.48743 0.42289 0.0
H3124 H 0.3875 0.60907 0.41958 0.0
H3125 H 0.36079 0.6032 0.43597 0.0
C3126 C 0.34315 0.53869 0.44857 0.0
C3127 C 0.33488 0.50275 0.45446 0.0
C3128 C 0.35858 0.54208 0.43906 0.0
C3129 C 0.34295 0.47054 0.45059 0.0
C3130 C 0.35849 0.47384 0.44116 0.0
C3131 C 0.38166 0.51281 0.42576 0.0
C3132 C 0.38916 0.54849 0.41986 0.0
C3133 C 0.36635 0.5094 0.4353 0.0
C3134 C 0.38131 0.58074 0.42378 0.0
C3135 C 0.3663 0.57762 0.43323 0.0
H3136 H 0.48732 0.80652 0.42056 0.0
H3137 H 0.56468 0.94724 0.42186 0.0
H3138 H 0.58586 0.94299 0.43836 0.0
H3139 H 0.5794 0.89933 0.45274 0.0
H3140 H 0.50082 0.75868 0.45136 0.0
H3141 H 0.48235 0.76304 0.43469 0.0
C3142 C 0.50866 0.83632 0.42445 0.0
C3143 C 0.52417 0.87713 0.41995 0.0
C3144 C 0.52011 0.8337 0.43399 0.0
C3145 C 0.55257 0.91533 0.42508 0.0
C3146 C 0.56443 0.91296 0.43455 0.0
C3147 C 0.55851 0.86964 0.44877 0.0
C3148 C 0.54113 0.82878 0.45336 0.0
C3149 C 0.54802 0.87233 0.43913 0.0
C3150 C 0.51391 0.79064 0.4481 0.0
C3151 C 0.50357 0.79305 0.43852 0.0
H3152 H 0.24752 0.7719 0.44745 0.0
H3153 H 0.14645 0.65438 0.46082 0.0
H3154 H 0.12456 0.61898 0.44511 0.0
H3155 H 0.13597 0.62023 0.42758 0.0
H3156 H 0.23748 0.73788 0.41432 0.0
H3157 H 0.25776 0.77379 0.42996 0.0
C3158 C 0.22089 0.73842 0.44696 0.0
C3159 C 0.19888 0.71593 0.45538 0.0
C3160 C 0.20867 0.71805 0.43789 0.0
C3161 C 0.16382 0.6728 0.45451 0.0
C3162 C 0.15141 0.65237 0.44551 0.0
C3163 C 0.16218 0.6539 0.42808 0.0
C3164 C 0.18525 0.67608 0.41972 0.0
C3165 C 0.17375 0.67456 0.43715 0.0
C3166 C 0.21952 0.71961 0.42059 0.0
C3167 C 0.23105 0.74034 0.42955 0.0
loop_
_geom_bond_atom_site_label_1
_geom_bond_atom_site_label_2
_geom_bond_distance
_geom_bond_site_symmetry_2
_ccdc_geom_bond_type
Tb0 C2 2.809 . S
Tb0 O20 2.484 . S
Tb0 O21 2.440 . S
Tb0 O22 2.658 . S
Tb0 O23 2.409 . S
Tb0 O24 2.378 . S
Tb0 O28 2.325 . S
Tb0 O31 2.341 . S
Tb1 C11 2.809 . S
Tb1 O22 2.325 . S
Tb1 O25 2.341 . S
Tb1 O26 2.484 . S
Tb1 O27 2.440 . S
Tb1 O28 2.658 . S
Tb1 O29 2.409 . S
Tb1 O30 2.378 . S
C2 Tb0 2.809 . S
C2 C3 1.514 . S
C2 O20 1.248 . S
C2 O21 1.266 . S
C3 C2 1.514 . S
C3 C4 1.359 . S
C3 C8 1.348 . S
C4 C3 1.359 . S
C4 C5 1.380 . S
C4 H32 0.929 . S
C5 C4 1.380 . S
C5 C6 1.347 . S
C5 H33 0.931 . S
C6 C5 1.347 . S
C6 C7 1.369 . S
C7 C6 1.369 . S
C7 C8 1.408 . S
C7 H34 0.930 . S
C8 C3 1.348 . S
C8 C7 1.408 . S
C8 H35 0.930 . S
C9 O22 1.281 . S
C9 O23 1.254 . S
C10 O24 1.236 . S
C10 O25 1.266 . S
C11 Tb1 2.809 . S
C11 C12 1.514 . S
C11 O26 1.248 . S
C11 O27 1.266 . S
C12 C11 1.514 . S
C12 C13 1.359 . S
C12 C17 1.348 . S
C13 C12 1.359 . S
C13 C14 1.380 . S
C13 H36 0.929 . S
C14 C13 1.380 . S
C14 C15 1.347 . S
C14 H37 0.931 . S
C15 C14 1.347 . S
C15 C16 1.369 . S
C16 C15 1.369 . S
C16 C17 1.408 . S
C16 H38 0.930 . S
C17 C12 1.348 . S
C17 C16 1.408 . S
C17 H39 0.930 . S
C18 O28 1.281 . S
C18 O29 1.254 . S
C19 O30 1.236 . S
C19 O31 1.266 . S
O20 Tb0 2.484 . S
O20 C2 1.248 . S
O21 Tb0 2.440 . S
O21 C2 1.266 . S
O22 Tb0 2.658 . S
O22 Tb1 2.325 . S
O22 C9 1.281 . S
O23 Tb0 2.409 . S
O23 C9 1.254 . S
O24 Tb0 2.378 . S
O24 C10 1.236 . S
O25 Tb1 2.341 . S
O25 C10 1.266 . S
O26 Tb1 2.484 . S
O26 C11 1.248 . S
O27 Tb1 2.440 . S
O27 C11 1.266 . S
O28 Tb0 2.325 . S
O28 Tb1 2.658 . S
O28 C18 1.281 . S
O29 Tb1 2.409 . S
O29 C18 1.254 . S
O30 Tb1 2.378 . S
O30 C19 1.236 . S
O31 Tb0 2.341 . S
O31 C19 1.266 . S
H32 C4 0.929 . S
H33 C5 0.931 . S
H34 C7 0.930 . S
H35 C8 0.930 . S
H36 C13 0.929 . S
H37 C14 0.931 . S
H38 C16 0.930 . S
H39 C17 0.930 . S
Tb40 C42 2.809 . S
Tb40 O60 2.484 . S
Tb40 O61 2.440 . S
Tb40 O62 2.658 . S
Tb40 O63 2.409 . S
Tb40 O64 2.378 . S
Tb40 O68 2.325 . S
Tb40 O71 2.341 . S
Tb41 C51 2.809 . S
Tb41 O62 2.325 . S
Tb41 O65 2.341 . S
Tb41 O66 2.484 . S
Tb41 O67 2.440 . S
Tb41 O68 2.658 . S
Tb41 O69 2.409 . S
Tb41 O70 2.378 . S
C42 Tb40 2.809 . S
C42 C43 1.514 . S
C42 O60 1.248 . S
C42 O61 1.266 . S
C43 C42 1.514 . S
C43 C44 1.359 . S
C43 C48 1.348 . S
C44 C43 1.359 . S
C44 C45 1.380 . S
C44 H72 0.929 . S
C45 C44 1.380 . S
C45 C46 1.347 . S
C45 H73 0.931 . S
C46 C45 1.347 . S
C46 C47 1.369 . S
C47 C46 1.369 . S
C47 C48 1.408 . S
C47 H74 0.930 . S
C48 C43 1.348 . S
C48 C47 1.408 . S
C48 H75 0.930 . S
C49 O62 1.281 . S
C49 O63 1.254 . S
C50 O64 1.236 . S
C50 O65 1.266 . S
C51 Tb41 2.809 . S
C51 C52 1.514 . S
C51 O66 1.248 . S
C51 O67 1.266 . S
C52 C51 1.514 . S
C52 C53 1.359 . S
C52 C57 1.348 . S
C53 C52 1.359 . S
C53 C54 1.380 . S
C53 H76 0.929 . S
C54 C53 1.380 . S
C54 C55 1.347 . S
C54 H77 0.931 . S
C55 C54 1.347 . S
C55 C56 1.369 . S
C56 C55 1.369 . S
C56 C57 1.408 . S
C56 H78 0.930 . S
C57 C52 1.348 . S
C57 C56 1.408 . S
C57 H79 0.930 . S
C58 O68 1.281 . S
C58 O69 1.254 . S
C59 O70 1.236 . S
C59 O71 1.266 . S
O60 Tb40 2.484 . S
O60 C42 1.248 . S
O61 Tb40 2.440 . S
O61 C42 1.266 . S
O62 Tb40 2.658 . S
O62 Tb41 2.325 . S
O62 C49 1.281 . S
O63 Tb40 2.409 . S
O63 C49 1.254 . S
O64 Tb40 2.378 . S
O64 C50 1.236 . S
O65 Tb41 2.341 . S
O65 C50 1.266 . S
O66 Tb41 2.484 . S
O66 C51 1.248 . S
O67 Tb41 2.440 . S
O67 C51 1.266 . S
O68 Tb40 2.325 . S
O68 Tb41 2.658 . S
O68 C58 1.281 . S
O69 Tb41 2.409 . S
O69 C58 1.254 . S
O70 Tb41 2.378 . S
O70 C59 1.236 . S
O71 Tb40 2.341 . S
O71 C59 1.266 . S
H72 C44 0.929 . S
H73 C45 0.931 . S
H74 C47 0.930 . S
H75 C48 0.930 . S
H76 C53 0.929 . S
H77 C54 0.931 . S
H78 C56 0.930 . S
H79 C57 0.930 . S
Tb80 C82 2.809 . S
Tb80 O100 2.484 . S
Tb80 O101 2.440 . S
Tb80 O102 2.658 . S
Tb80 O103 2.409 . S
Tb80 O104 2.378 . S
Tb80 O108 2.325 . S
Tb80 O111 2.341 . S
Tb81 C91 2.809 . S
Tb81 O102 2.325 . S
Tb81 O105 2.341 . S
Tb81 O106 2.484 . S
Tb81 O107 2.440 . S
Tb81 O108 2.658 . S
Tb81 O109 2.409 . S
Tb81 O110 2.378 . S
C82 Tb80 2.809 . S
C82 C83 1.514 . S
C82 O100 1.248 . S
C82 O101 1.266 . S
C83 C82 1.514 . S
C83 C84 1.359 . S
C83 C88 1.348 . S
C84 C83 1.359 . S
C84 C85 1.380 . S
C84 H112 0.929 . S
C85 C84 1.380 . S
C85 C86 1.347 . S
C85 H113 0.931 . S
C86 C85 1.347 . S
C86 C87 1.369 . S
C87 C86 1.369 . S
C87 C88 1.408 . S
C87 H114 0.930 . S
C88 C83 1.348 . S
C88 C87 1.408 . S
C88 H115 0.930 . S
C89 O102 1.281 . S
C89 O103 1.254 . S
C90 O104 1.236 . S
C90 O105 1.266 . S
C91 Tb81 2.809 . S
C91 C92 1.514 . S
C91 O106 1.248 . S
C91 O107 1.266 . S
C92 C91 1.514 . S
C92 C93 1.359 . S
C92 C97 1.348 . S
C93 C92 1.359 . S
C93 C94 1.380 . S
C93 H116 0.929 . S
C94 C93 1.380 . S
C94 C95 1.347 . S
C94 H117 0.931 . S
C95 C94 1.347 . S
C95 C96 1.369 . S
C96 C95 1.369 . S
C96 C97 1.408 . S
C96 H118 0.930 . S
C97 C92 1.348 . S
C97 C96 1.408 . S
C97 H119 0.930 . S
C98 O108 1.281 . S
C98 O109 1.254 . S
C99 O110 1.236 . S
C99 O111 1.266 . S
O100 Tb80 2.484 . S
O100 C82 1.248 . S
O101 Tb80 2.440 . S
O101 C82 1.266 . S
O102 Tb80 2.658 . S
O102 Tb81 2.325 . S
O102 C89 1.281 . S
O103 Tb80 2.409 . S
O103 C89 1.254 . S
O104 Tb80 2.378 . S
O104 C90 1.236 . S
O105 Tb81 2.341 . S
O105 C90 1.266 . S
O106 Tb81 2.484 . S
O106 C91 1.248 . S
O107 Tb81 2.440 . S
O107 C91 1.266 . S
O108 Tb80 2.325 . S
O108 Tb81 2.658 . S
O108 C98 1.281 . S
O109 Tb81 2.409 . S
O109 C98 1.254 . S
O110 Tb81 2.378 . S
O110 C99 1.236 . S
O111 Tb80 2.341 . S
O111 C99 1.266 . S
H112 C84 0.929 . S
H113 C85 0.931 . S
H114 C87 0.930 . S
H115 C88 0.930 . S
H116 C93 0.929 . S
H117 C94 0.931 . S
H118 C96 0.930 . S
H119 C97 0.930 . S
Tb120 C122 2.809 . S
Tb120 O140 2.484 . S
Tb120 O141 2.440 . S
Tb120 O142 2.658 . S
Tb120 O143 2.409 . S
Tb120 O144 2.378 . S
Tb120 O148 2.325 . S
Tb120 O151 2.341 . S
Tb121 C131 2.809 . S
Tb121 O142 2.325 . S
Tb121 O145 2.341 . S
Tb121 O146 2.484 . S
Tb121 O147 2.440 . S
Tb121 O148 2.658 . S
Tb121 O149 2.409 . S
Tb121 O150 2.378 . S
C122 Tb120 2.809 . S
C122 C123 1.514 . S
C122 O140 1.248 . S
C122 O141 1.266 . S
C123 C122 1.514 . S
C123 C124 1.359 . S
C123 C128 1.348 . S
C124 C123 1.359 . S
C124 C125 1.380 . S
C124 H152 0.929 . S
C125 C124 1.380 . S
C125 C126 1.347 . S
C125 H153 0.931 . S
C126 C125 1.347 . S
C126 C127 1.369 . S
C127 C126 1.369 . S
C127 C128 1.408 . S
C127 H154 0.930 . S
C128 C123 1.348 . S
C128 C127 1.408 . S
C128 H155 0.930 . S
C129 O142 1.281 . S
C129 O143 1.254 . S
C130 O144 1.236 . S
C130 O145 1.266 . S
C131 Tb121 2.809 . S
C131 C132 1.514 . S
C131 O146 1.248 . S
C131 O147 1.266 . S
C132 C131 1.514 . S
C132 C133 1.359 . S
C132 C137 1.348 . S
C133 C132 1.359 . S
C133 C134 1.380 . S
C133 H156 0.929 . S
C134 C133 1.380 . S
C134 C135 1.347 . S
C134 H157 0.931 . S
C135 C134 1.347 . S
C135 C136 1.369 . S
C136 C135 1.369 . S
C136 C137 1.408 . S
C136 H158 0.930 . S
C137 C132 1.348 . S
C137 C136 1.408 . S
C137 H159 0.930 . S
C138 O148 1.281 . S
C138 O149 1.254 . S
C139 O150 1.236 . S
C139 O151 1.266 . S
O140 Tb120 2.484 . S
O140 C122 1.248 . S
O141 Tb120 2.440 . S
O141 C122 1.266 . S
O142 Tb120 2.658 . S
O142 Tb121 2.325 . S
O142 C129 1.281 . S
O143 Tb120 2.409 . S
O143 C129 1.254 . S
O144 Tb120 2.378 . S
O144 C130 1.236 . S
O145 Tb121 2.341 . S
O145 C130 1.266 . S
O146 Tb121 2.484 . S
O146 C131 1.248 . S
O147 Tb121 2.440 . S
O147 C131 1.266 . S
O148 Tb120 2.325 . S
O148 Tb121 2.658 . S
O148 C138 1.281 . S
O149 Tb121 2.409 . S
O149 C138 1.254 . S
O150 Tb121 2.378 . S
O150 C139 1.236 . S
O151 Tb120 2.341 . S
O151 C139 1.266 . S
H152 C124 0.929 . S
H153 C125 0.931 . S
H154 C127 0.930 . S
H155 C128 0.930 . S
H156 C133 0.929 . S
H157 C134 0.931 . S
H158 C136 0.930 . S
H159 C137 0.930 . S
Tb160 C162 2.809 . S
Tb160 O180 2.484 . S
Tb160 O181 2.440 . S
Tb160 O182 2.658 . S
Tb160 O183 2.409 . S
Tb160 O184 2.378 . S
Tb160 O188 2.325 . S
Tb160 O191 2.341 . S
Tb161 C171 2.809 . S
Tb161 O182 2.325 . S
Tb161 O185 2.341 . S
Tb161 O186 2.484 . S
Tb161 O187 2.440 . S
Tb161 O188 2.658 . S
Tb161 O189 2.409 . S
Tb161 O190 2.378 . S
C162 Tb160 2.809 . S
C162 C163 1.514 . S
C162 O180 1.248 . S
C162 O181 1.266 . S
C163 C162 1.514 . S
C163 C164 1.359 . S
C163 C168 1.348 . S
C164 C163 1.359 . S
C164 C165 1.380 . S
C164 H192 0.929 . S
C165 C164 1.380 . S
C165 C166 1.347 . S
C165 H193 0.931 . S
C166 C165 1.347 . S
C166 C167 1.369 . S
C167 C166 1.369 . S
C167 C168 1.408 . S
C167 H194 0.930 . S
C168 C163 1.348 . S
C168 C167 1.408 . S
C168 H195 0.930 . S
C169 O182 1.281 . S
C169 O183 1.254 . S
C170 O184 1.236 . S
C170 O185 1.266 . S
C171 Tb161 2.809 . S
C171 C172 1.514 . S
C171 O186 1.248 . S
C171 O187 1.266 . S
C172 C171 1.514 . S
C172 C173 1.359 . S
C172 C177 1.348 . S
C173 C172 1.359 . S
C173 C174 1.380 . S
C173 H196 0.929 . S
C174 C173 1.380 . S
C174 C175 1.347 . S
C174 H197 0.931 . S
C175 C174 1.347 . S
C175 C176 1.369 . S
C176 C175 1.369 . S
C176 C177 1.408 . S
C176 H198 0.930 . S
C177 C172 1.348 . S
C177 C176 1.408 . S
C177 H199 0.930 . S
C178 O188 1.281 . S
C178 O189 1.254 . S
C179 O190 1.236 . S
C179 O191 1.266 . S
O180 Tb160 2.484 . S
O180 C162 1.248 . S
O181 Tb160 2.440 . S
O181 C162 1.266 . S
O182 Tb160 2.658 . S
O182 Tb161 2.325 . S
O182 C169 1.281 . S
O183 Tb160 2.409 . S
O183 C169 1.254 . S
O184 Tb160 2.378 . S
O184 C170 1.236 . S
O185 Tb161 2.341 . S
O185 C170 1.266 . S
O186 Tb161 2.484 . S
O186 C171 1.248 . S
O187 Tb161 2.440 . S
O187 C171 1.266 . S
O188 Tb160 2.325 . S
O188 Tb161 2.658 . S
O188 C178 1.281 . S
O189 Tb161 2.409 . S
O189 C178 1.254 . S
O190 Tb161 2.378 . S
O190 C179 1.236 . S
O191 Tb160 2.341 . S
O191 C179 1.266 . S
H192 C164 0.929 . S
H193 C165 0.931 . S
H194 C167 0.930 . S
H195 C168 0.930 . S
H196 C173 0.929 . S
H197 C174 0.931 . S
H198 C176 0.930 . S
H199 C177 0.930 . S
Tb200 C202 2.809 . S
Tb200 O220 2.484 . S
Tb200 O221 2.440 . S
Tb200 O222 2.658 . S
Tb200 O223 2.409 . S
Tb200 O224 2.378 . S
Tb200 O228 2.325 . S
Tb200 O231 2.341 . S
Tb201 C211 2.809 . S
Tb201 O222 2.325 . S
Tb201 O225 2.341 . S
Tb201 O226 2.484 . S
Tb201 O227 2.440 . S
Tb201 O228 2.658 . S
Tb201 O229 2.409 . S
Tb201 O230 2.378 . S
C202 Tb200 2.809 . S
C202 C203 1.514 . S
C202 O220 1.248 . S
C202 O221 1.266 . S
C203 C202 1.514 . S
C203 C204 1.359 . S
C203 C208 1.348 . S
C204 C203 1.359 . S
C204 C205 1.380 . S
C204 H232 0.929 . S
C205 C204 1.380 . S
C205 C206 1.347 . S
C205 H233 0.931 . S
C206 C205 1.347 . S
C206 C207 1.369 . S
C207 C206 1.369 . S
C207 C208 1.408 . S
C207 H234 0.930 . S
C208 C203 1.348 . S
C208 C207 1.408 . S
C208 H235 0.930 . S
C209 O222 1.281 . S
C209 O223 1.254 . S
C210 O224 1.236 . S
C210 O225 1.266 . S
C211 Tb201 2.809 . S
C211 C212 1.514 . S
C211 O226 1.248 . S
C211 O227 1.266 . S
C212 C211 1.514 . S
C212 C213 1.359 . S
C212 C217 1.348 . S
C213 C212 1.359 . S
C213 C214 1.380 . S
C213 H236 0.929 . S
C214 C213 1.380 . S
C214 C215 1.347 . S
C214 H237 0.931 . S
C215 C214 1.347 . S
C215 C216 1.369 . S
C216 C215 1.369 . S
C216 C217 1.408 . S
C216 H238 0.930 . S
C217 C212 1.348 . S
C217 C216 1.408 . S
C217 H239 0.930 . S
C218 O228 1.281 . S
C218 O229 1.254 . S
C219 O230 1.236 . S
C219 O231 1.266 . S
O220 Tb200 2.484 . S
O220 C202 1.248 . S
O221 Tb200 2.440 . S
O221 C202 1.266 . S
O222 Tb200 2.658 . S
O222 Tb201 2.325 . S
O222 C209 1.281 . S
O223 Tb200 2.409 . S
O223 C209 1.254 . S
O224 Tb200 2.378 . S
O224 C210 1.236 . S
O225 Tb201 2.341 . S
O225 C210 1.266 . S
O226 Tb201 2.484 . S
O226 C211 1.248 . S
O227 Tb201 2.440 . S
O227 C211 1.266 . S
O228 Tb200 2.325 . S
O228 Tb201 2.658 . S
O228 C218 1.281 . S
O229 Tb201 2.409 . S
O229 C218 1.254 . S
O230 Tb201 2.378 . S
O230 C219 1.236 . S
O231 Tb200 2.341 . S
O231 C219 1.266 . S
H232 C204 0.929 . S
H233 C205 0.931 . S
H234 C207 0.930 . S
H235 C208 0.930 . S
H236 C213 0.929 . S
H237 C214 0.931 . S
H238 C216 0.930 . S
H239 C217 0.930 . S
Tb240 C242 2.809 . S
Tb240 O260 2.484 . S
Tb240 O261 2.440 . S
Tb240 O262 2.658 . S
Tb240 O263 2.409 . S
Tb240 O264 2.378 . S
Tb240 O268 2.325 . S
Tb240 O271 2.341 . S
Tb241 C251 2.809 . S
Tb241 O262 2.325 . S
Tb241 O265 2.341 . S
Tb241 O266 2.484 . S
Tb241 O267 2.440 . S
Tb241 O268 2.658 . S
Tb241 O269 2.409 . S
Tb241 O270 2.378 . S
C242 Tb240 2.809 . S
C242 C243 1.514 . S
C242 O260 1.248 . S
C242 O261 1.266 . S
C243 C242 1.514 . S
C243 C244 1.359 . S
C243 C248 1.348 . S
C244 C243 1.359 . S
C244 C245 1.380 . S
C244 H272 0.929 . S
C245 C244 1.380 . S
C245 C246 1.347 . S
C245 H273 0.931 . S
C246 C245 1.347 . S
C246 C247 1.369 . S
C247 C246 1.369 . S
C247 C248 1.408 . S
C247 H274 0.930 . S
C248 C243 1.348 . S
C248 C247 1.408 . S
C248 H275 0.930 . S
C249 O262 1.281 . S
C249 O263 1.254 . S
C250 O264 1.236 . S
C250 O265 1.266 . S
C251 Tb241 2.809 . S
C251 C252 1.514 . S
C251 O266 1.248 . S
C251 O267 1.266 . S
C252 C251 1.514 . S
C252 C253 1.359 . S
C252 C257 1.348 . S
C253 C252 1.359 . S
C253 C254 1.380 . S
C253 H276 0.929 . S
C254 C253 1.380 . S
C254 C255 1.347 . S
C254 H277 0.931 . S
C255 C254 1.347 . S
C255 C256 1.369 . S
C256 C255 1.369 . S
C256 C257 1.408 . S
C256 H278 0.930 . S
C257 C252 1.348 . S
C257 C256 1.408 . S
C257 H279 0.930 . S
C258 O268 1.281 . S
C258 O269 1.254 . S
C259 O270 1.236 . S
C259 O271 1.266 . S
O260 Tb240 2.484 . S
O260 C242 1.248 . S
O261 Tb240 2.440 . S
O261 C242 1.266 . S
O262 Tb240 2.658 . S
O262 Tb241 2.325 . S
O262 C249 1.281 . S
O263 Tb240 2.409 . S
O263 C249 1.254 . S
O264 Tb240 2.378 . S
O264 C250 1.236 . S
O265 Tb241 2.341 . S
O265 C250 1.266 . S
O266 Tb241 2.484 . S
O266 C251 1.248 . S
O267 Tb241 2.440 . S
O267 C251 1.266 . S
O268 Tb240 2.325 . S
O268 Tb241 2.658 . S
O268 C258 1.281 . S
O269 Tb241 2.409 . S
O269 C258 1.254 . S
O270 Tb241 2.378 . S
O270 C259 1.236 . S
O271 Tb240 2.341 . S
O271 C259 1.266 . S
H272 C244 0.929 . S
H273 C245 0.931 . S
H274 C247 0.930 . S
H275 C248 0.930 . S
H276 C253 0.929 . S
H277 C254 0.931 . S
H278 C256 0.930 . S
H279 C257 0.930 . S
Tb280 C282 2.809 . S
Tb280 O300 2.484 . S
Tb280 O301 2.440 . S
Tb280 O302 2.658 . S
Tb280 O303 2.409 . S
Tb280 O304 2.378 . S
Tb280 O308 2.325 . S
Tb280 O311 2.341 . S
Tb281 C291 2.809 . S
Tb281 O302 2.325 . S
Tb281 O305 2.341 . S
Tb281 O306 2.484 . S
Tb281 O307 2.440 . S
Tb281 O308 2.658 . S
Tb281 O309 2.409 . S
Tb281 O310 2.378 . S
C282 Tb280 2.809 . S
C282 C283 1.514 . S
C282 O300 1.248 . S
C282 O301 1.266 . S
C283 C282 1.514 . S
C283 C284 1.359 . S
C283 C288 1.348 . S
C284 C283 1.359 . S
C284 C285 1.380 . S
C284 H312 0.929 . S
C285 C284 1.380 . S
C285 C286 1.347 . S
C285 H313 0.931 . S
C286 C285 1.347 . S
C286 C287 1.369 . S
C287 C286 1.369 . S
C287 C288 1.408 . S
C287 H314 0.930 . S
C288 C283 1.348 . S
C288 C287 1.408 . S
C288 H315 0.930 . S
C289 O302 1.281 . S
C289 O303 1.254 . S
C290 O304 1.236 . S
C290 O305 1.266 . S
C291 Tb281 2.809 . S
C291 C292 1.514 . S
C291 O306 1.248 . S
C291 O307 1.266 . S
C292 C291 1.514 . S
C292 C293 1.359 . S
C292 C297 1.348 . S
C293 C292 1.359 . S
C293 C294 1.380 . S
C293 H316 0.929 . S
C294 C293 1.380 . S
C294 C295 1.347 . S
C294 H317 0.931 . S
C295 C294 1.347 . S
C295 C296 1.369 . S
C296 C295 1.369 . S
C296 C297 1.408 . S
C296 H318 0.930 . S
C297 C292 1.348 . S
C297 C296 1.408 . S
C297 H319 0.930 . S
C298 O308 1.281 . S
C298 O309 1.254 . S
C299 O310 1.236 . S
C299 O311 1.266 . S
O300 Tb280 2.484 . S
O300 C282 1.248 . S
O301 Tb280 2.440 . S
O301 C282 1.266 . S
O302 Tb280 2.658 . S
O302 Tb281 2.325 . S
O302 C289 1.281 . S
O303 Tb280 2.409 . S
O303 C289 1.254 . S
O304 Tb280 2.378 . S
O304 C290 1.236 . S
O305 Tb281 2.341 . S
O305 C290 1.266 . S
O306 Tb281 2.484 . S
O306 C291 1.248 . S
O307 Tb281 2.440 . S
O307 C291 1.266 . S
O308 Tb280 2.325 . S
O308 Tb281 2.658 . S
O308 C298 1.281 . S
O309 Tb281 2.409 . S
O309 C298 1.254 . S
O310 Tb281 2.378 . S
O310 C299 1.236 . S
O311 Tb280 2.341 . S
O311 C299 1.266 . S
H312 C284 0.929 . S
H313 C285 0.931 . S
H314 C287 0.930 . S
H315 C288 0.930 . S
H316 C293 0.929 . S
H317 C294 0.931 . S
H318 C296 0.930 . S
H319 C297 0.930 . S
Tb320 C322 2.809 . S
Tb320 O340 2.484 . S
Tb320 O341 2.440 . S
Tb320 O342 2.658 . S
Tb320 O343 2.409 . S
Tb320 O344 2.378 . S
Tb320 O348 2.325 . S
Tb320 O351 2.341 . S
Tb321 C331 2.809 . S
Tb321 O342 2.325 . S
Tb321 O345 2.341 . S
Tb321 O346 2.484 . S
Tb321 O347 2.440 . S
Tb321 O348 2.658 . S
Tb321 O349 2.409 . S
Tb321 O350 2.378 . S
C322 Tb320 2.809 . S
C322 C323 1.514 . S
C322 O340 1.248 . S
C322 O341 1.266 . S
C323 C322 1.514 . S
C323 C324 1.359 . S
C323 C328 1.348 . S
C324 C323 1.359 . S
C324 C325 1.380 . S
C324 H352 0.929 . S
C325 C324 1.380 . S
C325 C326 1.347 . S
C325 H353 0.931 . S
C326 C325 1.347 . S
C326 C327 1.369 . S
C327 C326 1.369 . S
C327 C328 1.408 . S
C327 H354 0.930 . S
C328 C323 1.348 . S
C328 C327 1.408 . S
C328 H355 0.930 . S
C329 O342 1.281 . S
C329 O343 1.254 . S
C330 O344 1.236 . S
C330 O345 1.266 . S
C331 Tb321 2.809 . S
C331 C332 1.514 . S
C331 O346 1.248 . S
C331 O347 1.266 . S
C332 C331 1.514 . S
C332 C333 1.359 . S
C332 C337 1.348 . S
C333 C332 1.359 . S
C333 C334 1.380 . S
C333 H356 0.929 . S
C334 C333 1.380 . S
C334 C335 1.347 . S
C334 H357 0.931 . S
C335 C334 1.347 . S
C335 C336 1.369 . S
C336 C335 1.369 . S
C336 C337 1.408 . S
C336 H358 0.930 . S
C337 C332 1.348 . S
C337 C336 1.408 . S
C337 H359 0.930 . S
C338 O348 1.281 . S
C338 O349 1.254 . S
C339 O350 1.236 . S
C339 O351 1.266 . S
O340 Tb320 2.484 . S
O340 C322 1.248 . S
O341 Tb320 2.440 . S
O341 C322 1.266 . S
O342 Tb320 2.658 . S
O342 Tb321 2.325 . S
O342 C329 1.281 . S
O343 Tb320 2.409 . S
O343 C329 1.254 . S
O344 Tb320 2.378 . S
O344 C330 1.236 . S
O345 Tb321 2.341 . S
O345 C330 1.266 . S
O346 Tb321 2.484 . S
O346 C331 1.248 . S
O347 Tb321 2.440 . S
O347 C331 1.266 . S
O348 Tb320 2.325 . S
O348 Tb321 2.658 . S
O348 C338 1.281 . S
O349 Tb321 2.409 . S
O349 C338 1.254 . S
O350 Tb321 2.378 . S
O350 C339 1.236 . S
O351 Tb320 2.341 . S
O351 C339 1.266 . S
H352 C324 0.929 . S
H353 C325 0.931 . S
H354 C327 0.930 . S
H355 C328 0.930 . S
H356 C333 0.929 . S
H357 C334 0.931 . S
H358 C336 0.930 . S
H359 C337 0.930 . S
Tb360 C362 2.809 . S
Tb360 O380 2.484 . S
Tb360 O381 2.440 . S
Tb360 O382 2.658 . S
Tb360 O383 2.409 . S
Tb360 O384 2.378 . S
Tb360 O388 2.325 . S
Tb360 O391 2.341 . S
Tb361 C371 2.809 . S
Tb361 O382 2.325 . S
Tb361 O385 2.341 . S
Tb361 O386 2.484 . S
Tb361 O387 2.440 . S
Tb361 O388 2.658 . S
Tb361 O389 2.409 . S
Tb361 O390 2.378 . S
C362 Tb360 2.809 . S
C362 C363 1.514 . S
C362 O380 1.248 . S
C362 O381 1.266 . S
C363 C362 1.514 . S
C363 C364 1.359 . S
C363 C368 1.348 . S
C364 C363 1.359 . S
C364 C365 1.380 . S
C364 H392 0.929 . S
C365 C364 1.380 . S
C365 C366 1.347 . S
C365 H393 0.931 . S
C366 C365 1.347 . S
C366 C367 1.369 . S
C367 C366 1.369 . S
C367 C368 1.408 . S
C367 H394 0.930 . S
C368 C363 1.348 . S
C368 C367 1.408 . S
C368 H395 0.930 . S
C369 O382 1.281 . S
C369 O383 1.254 . S
C370 O384 1.236 . S
C370 O385 1.266 . S
C371 Tb361 2.809 . S
C371 C372 1.514 . S
C371 O386 1.248 . S
C371 O387 1.266 . S
C372 C371 1.514 . S
C372 C373 1.359 . S
C372 C377 1.348 . S
C373 C372 1.359 . S
C373 C374 1.380 . S
C373 H396 0.929 . S
C374 C373 1.380 . S
C374 C375 1.347 . S
C374 H397 0.931 . S
C375 C374 1.347 . S
C375 C376 1.369 . S
C376 C375 1.369 . S
C376 C377 1.408 . S
C376 H398 0.930 . S
C377 C372 1.348 . S
C377 C376 1.408 . S
C377 H399 0.930 . S
C378 O388 1.281 . S
C378 O389 1.254 . S
C379 O390 1.236 . S
C379 O391 1.266 . S
O380 Tb360 2.484 . S
O380 C362 1.248 . S
O381 Tb360 2.440 . S
O381 C362 1.266 . S
O382 Tb360 2.658 . S
O382 Tb361 2.325 . S
O382 C369 1.281 . S
O383 Tb360 2.409 . S
O383 C369 1.254 . S
O384 Tb360 2.378 . S
O384 C370 1.236 . S
O385 Tb361 2.341 . S
O385 C370 1.266 . S
O386 Tb361 2.484 . S
O386 C371 1.248 . S
O387 Tb361 2.440 . S
O387 C371 1.266 . S
O388 Tb360 2.325 . S
O388 Tb361 2.658 . S
O388 C378 1.281 . S
O389 Tb361 2.409 . S
O389 C378 1.254 . S
O390 Tb361 2.378 . S
O390 C379 1.236 . S
O391 Tb360 2.341 . S
O391 C379 1.266 . S
H392 C364 0.929 . S
H393 C365 0.931 . S
H394 C367 0.930 . S
H395 C368 0.930 . S
H396 C373 0.929 . S
H397 C374 0.931 . S
H398 C376 0.930 . S
H399 C377 0.930 . S
Tb400 C402 2.809 . S
Tb400 O420 2.484 . S
Tb400 O421 2.440 . S
Tb400 O422 2.658 . S
Tb400 O423 2.409 . S
Tb400 O424 2.378 . S
Tb400 O428 2.325 . S
Tb400 O431 2.341 . S
Tb401 C411 2.809 . S
Tb401 O422 2.325 . S
Tb401 O425 2.341 . S
Tb401 O426 2.484 . S
Tb401 O427 2.440 . S
Tb401 O428 2.658 . S
Tb401 O429 2.409 . S
Tb401 O430 2.378 . S
C402 Tb400 2.809 . S
C402 C403 1.514 . S
C402 O420 1.248 . S
C402 O421 1.266 . S
C403 C402 1.514 . S
C403 C404 1.359 . S
C403 C408 1.348 . S
C404 C403 1.359 . S
C404 C405 1.380 . S
C404 H432 0.929 . S
C405 C404 1.380 . S
C405 C406 1.347 . S
C405 H433 0.931 . S
C406 C405 1.347 . S
C406 C407 1.369 . S
C407 C406 1.369 . S
C407 C408 1.408 . S
C407 H434 0.930 . S
C408 C403 1.348 . S
C408 C407 1.408 . S
C408 H435 0.930 . S
C409 O422 1.281 . S
C409 O423 1.254 . S
C410 O424 1.236 . S
C410 O425 1.266 . S
C411 Tb401 2.809 . S
C411 C412 1.514 . S
C411 O426 1.248 . S
C411 O427 1.266 . S
C412 C411 1.514 . S
C412 C413 1.359 . S
C412 C417 1.348 . S
C413 C412 1.359 . S
C413 C414 1.380 . S
C413 H436 0.929 . S
C414 C413 1.380 . S
C414 C415 1.347 . S
C414 H437 0.931 . S
C415 C414 1.347 . S
C415 C416 1.369 . S
C416 C415 1.369 . S
C416 C417 1.408 . S
C416 H438 0.930 . S
C417 C412 1.348 . S
C417 C416 1.408 . S
C417 H439 0.930 . S
C418 O428 1.281 . S
C418 O429 1.254 . S
C419 O430 1.236 . S
C419 O431 1.266 . S
O420 Tb400 2.484 . S
O420 C402 1.248 . S
O421 Tb400 2.440 . S
O421 C402 1.266 . S
O422 Tb400 2.658 . S
O422 Tb401 2.325 . S
O422 C409 1.281 . S
O423 Tb400 2.409 . S
O423 C409 1.254 . S
O424 Tb400 2.378 . S
O424 C410 1.236 . S
O425 Tb401 2.341 . S
O425 C410 1.266 . S
O426 Tb401 2.484 . S
O426 C411 1.248 . S
O427 Tb401 2.440 . S
O427 C411 1.266 . S
O428 Tb400 2.325 . S
O428 Tb401 2.658 . S
O428 C418 1.281 . S
O429 Tb401 2.409 . S
O429 C418 1.254 . S
O430 Tb401 2.378 . S
O430 C419 1.236 . S
O431 Tb400 2.341 . S
O431 C419 1.266 . S
H432 C404 0.929 . S
H433 C405 0.931 . S
H434 C407 0.930 . S
H435 C408 0.930 . S
H436 C413 0.929 . S
H437 C414 0.931 . S
H438 C416 0.930 . S
H439 C417 0.930 . S
Tb440 C442 2.809 . S
Tb440 O460 2.484 . S
Tb440 O461 2.440 . S
Tb440 O462 2.658 . S
Tb440 O463 2.409 . S
Tb440 O464 2.378 . S
Tb440 O468 2.325 . S
Tb440 O471 2.341 . S
Tb441 C451 2.809 . S
Tb441 O462 2.325 . S
Tb441 O465 2.341 . S
Tb441 O466 2.484 . S
Tb441 O467 2.440 . S
Tb441 O468 2.658 . S
Tb441 O469 2.409 . S
Tb441 O470 2.378 . S
C442 Tb440 2.809 . S
C442 C443 1.514 . S
C442 O460 1.248 . S
C442 O461 1.266 . S
C443 C442 1.514 . S
C443 C444 1.359 . S
C443 C448 1.348 . S
C444 C443 1.359 . S
C444 C445 1.380 . S
C444 H472 0.929 . S
C445 C444 1.380 . S
C445 C446 1.347 . S
C445 H473 0.931 . S
C446 C445 1.347 . S
C446 C447 1.369 . S
C447 C446 1.369 . S
C447 C448 1.408 . S
C447 H474 0.930 . S
C448 C443 1.348 . S
C448 C447 1.408 . S
C448 H475 0.930 . S
C449 O462 1.281 . S
C449 O463 1.254 . S
C450 O464 1.236 . S
C450 O465 1.266 . S
C451 Tb441 2.809 . S
C451 C452 1.514 . S
C451 O466 1.248 . S
C451 O467 1.266 . S
C452 C451 1.514 . S
C452 C453 1.359 . S
C452 C457 1.348 . S
C453 C452 1.359 . S
C453 C454 1.380 . S
C453 H476 0.929 . S
C454 C453 1.380 . S
C454 C455 1.347 . S
C454 H477 0.931 . S
C455 C454 1.347 . S
C455 C456 1.369 . S
C456 C455 1.369 . S
C456 C457 1.408 . S
C456 H478 0.930 . S
C457 C452 1.348 . S
C457 C456 1.408 . S
C457 H479 0.930 . S
C458 O468 1.281 . S
C458 O469 1.254 . S
C459 O470 1.236 . S
C459 O471 1.266 . S
O460 Tb440 2.484 . S
O460 C442 1.248 . S
O461 Tb440 2.440 . S
O461 C442 1.266 . S
O462 Tb440 2.658 . S
O462 Tb441 2.325 . S
O462 C449 1.281 . S
O463 Tb440 2.409 . S
O463 C449 1.254 . S
O464 Tb440 2.378 . S
O464 C450 1.236 . S
O465 Tb441 2.341 . S
O465 C450 1.266 . S
O466 Tb441 2.484 . S
O466 C451 1.248 . S
O467 Tb441 2.440 . S
O467 C451 1.266 . S
O468 Tb440 2.325 . S
O468 Tb441 2.658 . S
O468 C458 1.281 . S
O469 Tb441 2.409 . S
O469 C458 1.254 . S
O470 Tb441 2.378 . S
O470 C459 1.236 . S
O471 Tb440 2.341 . S
O471 C459 1.266 . S
H472 C444 0.929 . S
H473 C445 0.931 . S
H474 C447 0.930 . S
H475 C448 0.930 . S
H476 C453 0.929 . S
H477 C454 0.931 . S
H478 C456 0.930 . S
H479 C457 0.930 . S
Tb480 C482 2.809 . S
Tb480 O500 2.484 . S
Tb480 O501 2.440 . S
Tb480 O502 2.658 . S
Tb480 O503 2.409 . S
Tb480 O504 2.378 . S
Tb480 O508 2.325 . S
Tb480 O511 2.341 . S
Tb481 C491 2.809 . S
Tb481 O502 2.325 . S
Tb481 O505 2.341 . S
Tb481 O506 2.484 . S
Tb481 O507 2.440 . S
Tb481 O508 2.658 . S
Tb481 O509 2.409 . S
Tb481 O510 2.378 . S
C482 Tb480 2.809 . S
C482 C483 1.514 . S
C482 O500 1.248 . S
C482 O501 1.266 . S
C483 C482 1.514 . S
C483 C484 1.359 . S
C483 C488 1.348 . S
C484 C483 1.359 . S
C484 C485 1.380 . S
C484 H512 0.929 . S
C485 C484 1.380 . S
C485 C486 1.347 . S
C485 H513 0.931 . S
C486 C485 1.347 . S
C486 C487 1.369 . S
C487 C486 1.369 . S
C487 C488 1.408 . S
C487 H514 0.930 . S
C488 C483 1.348 . S
C488 C487 1.408 . S
C488 H515 0.930 . S
C489 O502 1.281 . S
C489 O503 1.254 . S
C490 O504 1.236 . S
C490 O505 1.266 . S
C491 Tb481 2.809 . S
C491 C492 1.514 . S
C491 O506 1.248 . S
C491 O507 1.266 . S
C492 C491 1.514 . S
C492 C493 1.359 . S
C492 C497 1.348 . S
C493 C492 1.359 . S
C493 C494 1.380 . S
C493 H516 0.929 . S
C494 C493 1.380 . S
C494 C495 1.347 . S
C494 H517 0.931 . S
C495 C494 1.347 . S
C495 C496 1.369 . S
C496 C495 1.369 . S
C496 C497 1.408 . S
C496 H518 0.930 . S
C497 C492 1.348 . S
C497 C496 1.408 . S
C497 H519 0.930 . S
C498 O508 1.281 . S
C498 O509 1.254 . S
C499 O510 1.236 . S
C499 O511 1.266 . S
O500 Tb480 2.484 . S
O500 C482 1.248 . S
O501 Tb480 2.440 . S
O501 C482 1.266 . S
O502 Tb480 2.658 . S
O502 Tb481 2.325 . S
O502 C489 1.281 . S
O503 Tb480 2.409 . S
O503 C489 1.254 . S
O504 Tb480 2.378 . S
O504 C490 1.236 . S
O505 Tb481 2.341 . S
O505 C490 1.266 . S
O506 Tb481 2.484 . S
O506 C491 1.248 . S
O507 Tb481 2.440 . S
O507 C491 1.266 . S
O508 Tb480 2.325 . S
O508 Tb481 2.658 . S
O508 C498 1.281 . S
O509 Tb481 2.409 . S
O509 C498 1.254 . S
O510 Tb481 2.378 . S
O510 C499 1.236 . S
O511 Tb480 2.341 . S
O511 C499 1.266 . S
H512 C484 0.929 . S
H513 C485 0.931 . S
H514 C487 0.930 . S
H515 C488 0.930 . S
H516 C493 0.929 . S
H517 C494 0.931 . S
H518 C496 0.930 . S
H519 C497 0.930 . S
Tb520 C522 2.809 . S
Tb520 O540 2.484 . S
Tb520 O541 2.440 . S
Tb520 O542 2.658 . S
Tb520 O543 2.409 . S
Tb520 O544 2.378 . S
Tb520 O548 2.325 . S
Tb520 O551 2.341 . S
Tb521 C531 2.809 . S
Tb521 O542 2.325 . S
Tb521 O545 2.341 . S
Tb521 O546 2.484 . S
Tb521 O547 2.440 . S
Tb521 O548 2.658 . S
Tb521 O549 2.409 . S
Tb521 O550 2.378 . S
C522 Tb520 2.809 . S
C522 C523 1.514 . S
C522 O540 1.248 . S
C522 O541 1.266 . S
C523 C522 1.514 . S
C523 C524 1.359 . S
C523 C528 1.348 . S
C524 C523 1.359 . S
C524 C525 1.380 . S
C524 H552 0.929 . S
C525 C524 1.380 . S
C525 C526 1.347 . S
C525 H553 0.931 . S
C526 C525 1.347 . S
C526 C527 1.369 . S
C527 C526 1.369 . S
C527 C528 1.408 . S
C527 H554 0.930 . S
C528 C523 1.348 . S
C528 C527 1.408 . S
C528 H555 0.930 . S
C529 O542 1.281 . S
C529 O543 1.254 . S
C530 O544 1.236 . S
C530 O545 1.266 . S
C531 Tb521 2.809 . S
C531 C532 1.514 . S
C531 O546 1.248 . S
C531 O547 1.266 . S
C532 C531 1.514 . S
C532 C533 1.359 . S
C532 C537 1.348 . S
C533 C532 1.359 . S
C533 C534 1.380 . S
C533 H556 0.929 . S
C534 C533 1.380 . S
C534 C535 1.347 . S
C534 H557 0.931 . S
C535 C534 1.347 . S
C535 C536 1.369 . S
C536 C535 1.369 . S
C536 C537 1.408 . S
C536 H558 0.930 . S
C537 C532 1.348 . S
C537 C536 1.408 . S
C537 H559 0.930 . S
C538 O548 1.281 . S
C538 O549 1.254 . S
C539 O550 1.236 . S
C539 O551 1.266 . S
O540 Tb520 2.484 . S
O540 C522 1.248 . S
O541 Tb520 2.440 . S
O541 C522 1.266 . S
O542 Tb520 2.658 . S
O542 Tb521 2.325 . S
O542 C529 1.281 . S
O543 Tb520 2.409 . S
O543 C529 1.254 . S
O544 Tb520 2.378 . S
O544 C530 1.236 . S
O545 Tb521 2.341 . S
O545 C530 1.266 . S
O546 Tb521 2.484 . S
O546 C531 1.248 . S
O547 Tb521 2.440 . S
O547 C531 1.266 . S
O548 Tb520 2.325 . S
O548 Tb521 2.658 . S
O548 C538 1.281 . S
O549 Tb521 2.409 . S
O549 C538 1.254 . S
O550 Tb521 2.378 . S
O550 C539 1.236 . S
O551 Tb520 2.341 . S
O551 C539 1.266 . S
H552 C524 0.929 . S
H553 C525 0.931 . S
H554 C527 0.930 . S
H555 C528 0.930 . S
H556 C533 0.929 . S
H557 C534 0.931 . S
H558 C536 0.930 . S
H559 C537 0.930 . S
Tb560 C562 2.809 . S
Tb560 O580 2.484 . S
Tb560 O581 2.440 . S
Tb560 O582 2.658 . S
Tb560 O583 2.409 . S
Tb560 O584 2.378 . S
Tb560 O588 2.325 . S
Tb560 O591 2.341 . S
Tb561 C571 2.809 . S
Tb561 O582 2.325 . S
Tb561 O585 2.341 . S
Tb561 O586 2.484 . S
Tb561 O587 2.440 . S
Tb561 O588 2.658 . S
Tb561 O589 2.409 . S
Tb561 O590 2.378 . S
C562 Tb560 2.809 . S
C562 C563 1.514 . S
C562 O580 1.248 . S
C562 O581 1.266 . S
C563 C562 1.514 . S
C563 C564 1.359 . S
C563 C568 1.348 . S
C564 C563 1.359 . S
C564 C565 1.380 . S
C564 H592 0.929 . S
C565 C564 1.380 . S
C565 C566 1.347 . S
C565 H593 0.931 . S
C566 C565 1.347 . S
C566 C567 1.369 . S
C567 C566 1.369 . S
C567 C568 1.408 . S
C567 H594 0.930 . S
C568 C563 1.348 . S
C568 C567 1.408 . S
C568 H595 0.930 . S
C569 O582 1.281 . S
C569 O583 1.254 . S
C570 O584 1.236 . S
C570 O585 1.266 . S
C571 Tb561 2.809 . S
C571 C572 1.514 . S
C571 O586 1.248 . S
C571 O587 1.266 . S
C572 C571 1.514 . S
C572 C573 1.359 . S
C572 C577 1.348 . S
C573 C572 1.359 . S
C573 C574 1.380 . S
C573 H596 0.929 . S
C574 C573 1.380 . S
C574 C575 1.347 . S
C574 H597 0.931 . S
C575 C574 1.347 . S
C575 C576 1.369 . S
C576 C575 1.369 . S
C576 C577 1.408 . S
C576 H598 0.930 . S
C577 C572 1.348 . S
C577 C576 1.408 . S
C577 H599 0.930 . S
C578 O588 1.281 . S
C578 O589 1.254 . S
C579 O590 1.236 . S
C579 O591 1.266 . S
O580 Tb560 2.484 . S
O580 C562 1.248 . S
O581 Tb560 2.440 . S
O581 C562 1.266 . S
O582 Tb560 2.658 . S
O582 Tb561 2.325 . S
O582 C569 1.281 . S
O583 Tb560 2.409 . S
O583 C569 1.254 . S
O584 Tb560 2.378 . S
O584 C570 1.236 . S
O585 Tb561 2.341 . S
O585 C570 1.266 . S
O586 Tb561 2.484 . S
O586 C571 1.248 . S
O587 Tb561 2.440 . S
O587 C571 1.266 . S
O588 Tb560 2.325 . S
O588 Tb561 2.658 . S
O588 C578 1.281 . S
O589 Tb561 2.409 . S
O589 C578 1.254 . S
O590 Tb561 2.378 . S
O590 C579 1.236 . S
O591 Tb560 2.341 . S
O591 C579 1.266 . S
H592 C564 0.929 . S
H593 C565 0.931 . S
H594 C567 0.930 . S
H595 C568 0.930 . S
H596 C573 0.929 . S
H597 C574 0.931 . S
H598 C576 0.930 . S
H599 C577 0.930 . S
Tb600 C602 2.809 . S
Tb600 O620 2.484 . S
Tb600 O621 2.440 . S
Tb600 O622 2.658 . S
Tb600 O623 2.409 . S
Tb600 O624 2.378 . S
Tb600 O628 2.325 . S
Tb600 O631 2.341 . S
Tb601 C611 2.809 . S
Tb601 O622 2.325 . S
Tb601 O625 2.341 . S
Tb601 O626 2.484 . S
Tb601 O627 2.440 . S
Tb601 O628 2.658 . S
Tb601 O629 2.409 . S
Tb601 O630 2.378 . S
C602 Tb600 2.809 . S
C602 C603 1.514 . S
C602 O620 1.248 . S
C602 O621 1.266 . S
C603 C602 1.514 . S
C603 C604 1.364 . S
C603 C608 1.348 . S
C604 C603 1.364 . S
C604 C605 1.379 1_655 S
C604 H632 0.925 1_655 S
C605 C604 1.379 1_455 S
C605 C606 1.347 1_455 S
C605 H633 0.931 . S
C606 C605 1.347 1_655 S
C606 C607 1.369 . S
C607 C606 1.369 . S
C607 C608 1.408 . S
C607 H634 0.930 . S
C608 C603 1.348 . S
C608 C607 1.408 . S
C608 H635 0.930 . S
C609 O622 1.281 . S
C609 O623 1.254 . S
C610 O624 1.236 . S
C610 O625 1.266 . S
C611 Tb601 2.809 . S
C611 C612 1.514 . S
C611 O626 1.248 . S
C611 O627 1.266 . S
C612 C611 1.514 . S
C612 C613 1.359 . S
C612 C617 1.348 . S
C613 C612 1.359 . S
C613 C614 1.380 . S
C613 H636 0.929 . S
C614 C613 1.380 . S
C614 C615 1.347 . S
C614 H637 0.931 . S
C615 C614 1.347 . S
C615 C616 1.369 . S
C616 C615 1.369 . S
C616 C617 1.408 . S
C616 H638 0.930 . S
C617 C612 1.348 . S
C617 C616 1.408 . S
C617 H639 0.930 . S
C618 O628 1.281 . S
C618 O629 1.254 . S
C619 O630 1.236 . S
C619 O631 1.266 . S
O620 Tb600 2.484 . S
O620 C602 1.248 . S
O621 Tb600 2.440 . S
O621 C602 1.266 . S
O622 Tb600 2.658 . S
O622 Tb601 2.325 . S
O622 C609 1.281 . S
O623 Tb600 2.409 . S
O623 C609 1.254 . S
O624 Tb600 2.378 . S
O624 C610 1.236 . S
O625 Tb601 2.341 . S
O625 C610 1.266 . S
O626 Tb601 2.484 . S
O626 C611 1.248 . S
O627 Tb601 2.440 . S
O627 C611 1.266 . S
O628 Tb600 2.325 . S
O628 Tb601 2.658 . S
O628 C618 1.281 . S
O629 Tb601 2.409 . S
O629 C618 1.254 . S
O630 Tb601 2.378 . S
O630 C619 1.236 . S
O631 Tb600 2.341 . S
O631 C619 1.266 . S
H632 C604 0.925 1_455 S
H633 C605 0.931 . S
H634 C607 0.930 . S
H635 C608 0.930 . S
H636 C613 0.929 . S
H637 C614 0.931 . S
H638 C616 0.930 . S
H639 C617 0.930 . S
Tb640 C642 2.809 . S
Tb640 O660 2.484 . S
Tb640 O661 2.440 . S
Tb640 O662 2.658 . S
Tb640 O663 2.409 . S
Tb640 O664 2.378 . S
Tb640 O668 2.325 . S
Tb640 O671 2.341 . S
Tb641 C651 2.809 . S
Tb641 O662 2.325 . S
Tb641 O665 2.341 . S
Tb641 O666 2.484 . S
Tb641 O667 2.440 . S
Tb641 O668 2.658 . S
Tb641 O669 2.409 . S
Tb641 O670 2.378 . S
C642 Tb640 2.809 . S
C642 C643 1.514 . S
C642 O660 1.248 . S
C642 O661 1.266 . S
C643 C642 1.514 . S
C643 C644 1.359 . S
C643 C648 1.348 . S
C644 C643 1.359 . S
C644 C645 1.380 . S
C644 H672 0.929 . S
C645 C644 1.380 . S
C645 C646 1.347 . S
C645 H673 0.931 . S
C646 C645 1.347 . S
C646 C647 1.369 . S
C647 C646 1.369 . S
C647 C648 1.408 . S
C647 H674 0.930 . S
C648 C643 1.348 . S
C648 C647 1.408 . S
C648 H675 0.930 . S
C649 O662 1.281 . S
C649 O663 1.254 . S
C650 O664 1.236 . S
C650 O665 1.266 . S
C651 Tb641 2.809 . S
C651 C652 1.514 . S
C651 O666 1.248 . S
C651 O667 1.266 . S
C652 C651 1.514 . S
C652 C653 1.359 . S
C652 C657 1.348 . S
C653 C652 1.359 . S
C653 C654 1.380 . S
C653 H676 0.929 . S
C654 C653 1.380 . S
C654 C655 1.347 . S
C654 H677 0.931 . S
C655 C654 1.347 . S
C655 C656 1.369 . S
C656 C655 1.369 . S
C656 C657 1.408 . S
C656 H678 0.930 . S
C657 C652 1.348 . S
C657 C656 1.408 . S
C657 H679 0.930 . S
C658 O668 1.281 . S
C658 O669 1.254 . S
C659 O670 1.236 . S
C659 O671 1.266 . S
O660 Tb640 2.484 . S
O660 C642 1.248 . S
O661 Tb640 2.440 . S
O661 C642 1.266 . S
O662 Tb640 2.658 . S
O662 Tb641 2.325 . S
O662 C649 1.281 . S
O663 Tb640 2.409 . S
O663 C649 1.254 . S
O664 Tb640 2.378 . S
O664 C650 1.236 . S
O665 Tb641 2.341 . S
O665 C650 1.266 . S
O666 Tb641 2.484 . S
O666 C651 1.248 . S
O667 Tb641 2.440 . S
O667 C651 1.266 . S
O668 Tb640 2.325 . S
O668 Tb641 2.658 . S
O668 C658 1.281 . S
O669 Tb641 2.409 . S
O669 C658 1.254 . S
O670 Tb641 2.378 . S
O670 C659 1.236 . S
O671 Tb640 2.341 . S
O671 C659 1.266 . S
H672 C644 0.929 . S
H673 C645 0.931 . S
H674 C647 0.930 . S
H675 C648 0.930 . S
H676 C653 0.929 . S
H677 C654 0.931 . S
H678 C656 0.930 . S
H679 C657 0.930 . S
Tb680 C682 2.809 . S
Tb680 O700 2.484 . S
Tb680 O701 2.440 . S
Tb680 O702 2.658 . S
Tb680 O703 2.409 . S
Tb680 O704 2.378 . S
Tb680 O708 2.325 . S
Tb680 O711 2.341 . S
Tb681 C691 2.809 . S
Tb681 O702 2.325 . S
Tb681 O705 2.341 . S
Tb681 O706 2.484 . S
Tb681 O707 2.440 . S
Tb681 O708 2.658 . S
Tb681 O709 2.409 . S
Tb681 O710 2.378 . S
C682 Tb680 2.809 . S
C682 C683 1.514 . S
C682 O700 1.248 . S
C682 O701 1.266 . S
C683 C682 1.514 . S
C683 C684 1.369 . S
C683 C688 1.348 . S
C684 C683 1.369 . S
C684 C685 1.371 1_545 S
C684 H712 0.927 1_545 S
C685 C684 1.371 1_565 S
C685 C686 1.347 1_565 S
C685 H713 0.931 . S
C686 C685 1.347 1_545 S
C686 C687 1.369 . S
C687 C686 1.369 . S
C687 C688 1.408 . S
C687 H714 0.930 . S
C688 C683 1.348 . S
C688 C687 1.408 . S
C688 H715 0.930 . S
C689 O702 1.281 . S
C689 O703 1.254 . S
C690 O704 1.236 . S
C690 O705 1.266 . S
C691 Tb681 2.809 . S
C691 C692 1.514 . S
C691 O706 1.248 . S
C691 O707 1.266 . S
C692 C691 1.514 . S
C692 C693 1.359 . S
C692 C697 1.348 . S
C693 C692 1.359 . S
C693 C694 1.380 . S
C693 H716 0.929 . S
C694 C693 1.380 . S
C694 C695 1.347 . S
C694 H717 0.931 . S
C695 C694 1.347 . S
C695 C696 1.369 . S
C696 C695 1.369 . S
C696 C697 1.408 . S
C696 H718 0.930 . S
C697 C692 1.348 . S
C697 C696 1.408 . S
C697 H719 0.930 . S
C698 O708 1.281 . S
C698 O709 1.254 . S
C699 O710 1.236 . S
C699 O711 1.266 . S
O700 Tb680 2.484 . S
O700 C682 1.248 . S
O701 Tb680 2.440 . S
O701 C682 1.266 . S
O702 Tb680 2.658 . S
O702 Tb681 2.325 . S
O702 C689 1.281 . S
O703 Tb680 2.409 . S
O703 C689 1.254 . S
O704 Tb680 2.378 . S
O704 C690 1.236 . S
O705 Tb681 2.341 . S
O705 C690 1.266 . S
O706 Tb681 2.484 . S
O706 C691 1.248 . S
O707 Tb681 2.440 . S
O707 C691 1.266 . S
O708 Tb680 2.325 . S
O708 Tb681 2.658 . S
O708 C698 1.281 . S
O709 Tb681 2.409 . S
O709 C698 1.254 . S
O710 Tb681 2.378 . S
O710 C699 1.236 . S
O711 Tb680 2.341 . S
O711 C699 1.266 . S
H712 C684 0.927 1_565 S
H713 C685 0.931 . S
H714 C687 0.930 . S
H715 C688 0.930 . S
H716 C693 0.929 . S
H717 C694 0.931 . S
H718 C696 0.930 . S
H719 C697 0.930 . S
Tb720 C722 2.809 . S
Tb720 O740 2.484 . S
Tb720 O741 2.440 . S
Tb720 O742 2.658 . S
Tb720 O743 2.409 . S
Tb720 O744 2.378 . S
Tb720 O748 2.325 . S
Tb720 O751 2.341 . S
Tb721 C731 2.809 . S
Tb721 O742 2.325 . S
Tb721 O745 2.341 . S
Tb721 O746 2.484 . S
Tb721 O747 2.440 . S
Tb721 O748 2.658 . S
Tb721 O749 2.409 . S
Tb721 O750 2.378 . S
C722 Tb720 2.809 . S
C722 C723 1.514 . S
C722 O740 1.248 . S
C722 O741 1.266 . S
C723 C722 1.514 . S
C723 C724 1.359 . S
C723 C728 1.348 . S
C724 C723 1.359 . S
C724 C725 1.380 . S
C724 H752 0.929 . S
C725 C724 1.380 . S
C725 C726 1.347 . S
C725 H753 0.931 . S
C726 C725 1.347 . S
C726 C727 1.369 . S
C727 C726 1.369 . S
C727 C728 1.408 . S
C727 H754 0.930 . S
C728 C723 1.348 . S
C728 C727 1.408 . S
C728 H755 0.930 . S
C729 O742 1.281 . S
C729 O743 1.254 . S
C730 O744 1.236 . S
C730 O745 1.266 . S
C731 Tb721 2.809 . S
C731 C732 1.514 . S
C731 O746 1.248 . S
C731 O747 1.266 . S
C732 C731 1.514 . S
C732 C733 1.359 . S
C732 C737 1.348 . S
C733 C732 1.359 . S
C733 C734 1.380 1_545 S
C733 H756 0.929 1_545 S
C734 C733 1.380 1_565 S
C734 C735 1.347 1_565 S
C734 H757 0.931 . S
C735 C734 1.347 1_545 S
C735 C736 1.369 . S
C736 C735 1.369 . S
C736 C737 1.408 . S
C736 H758 0.930 . S
C737 C732 1.348 . S
C737 C736 1.408 . S
C737 H759 0.930 . S
C738 O748 1.281 . S
C738 O749 1.254 . S
C739 O750 1.236 . S
C739 O751 1.266 . S
O740 Tb720 2.484 . S
O740 C722 1.248 . S
O741 Tb720 2.440 . S
O741 C722 1.266 . S
O742 Tb720 2.658 . S
O742 Tb721 2.325 . S
O742 C729 1.281 . S
O743 Tb720 2.409 . S
O743 C729 1.254 . S
O744 Tb720 2.378 . S
O744 C730 1.236 . S
O745 Tb721 2.341 . S
O745 C730 1.266 . S
O746 Tb721 2.484 . S
O746 C731 1.248 . S
O747 Tb721 2.440 . S
O747 C731 1.266 . S
O748 Tb720 2.325 . S
O748 Tb721 2.658 . S
O748 C738 1.281 . S
O749 Tb721 2.409 . S
O749 C738 1.254 . S
O750 Tb721 2.378 . S
O750 C739 1.236 . S
O751 Tb720 2.341 . S
O751 C739 1.266 . S
H752 C724 0.929 . S
H753 C725 0.931 . S
H754 C727 0.930 . S
H755 C728 0.930 . S
H756 C733 0.929 1_565 S
H757 C734 0.931 . S
H758 C736 0.930 . S
H759 C737 0.930 . S
Tb760 C762 2.809 . S
Tb760 O780 2.484 . S
Tb760 O781 2.440 . S
Tb760 O782 2.658 . S
Tb760 O783 2.409 . S
Tb760 O784 2.378 . S
Tb760 O788 2.325 . S
Tb760 O791 2.341 . S
Tb761 C771 2.809 . S
Tb761 O782 2.325 . S
Tb761 O785 2.341 . S
Tb761 O786 2.484 . S
Tb761 O787 2.440 . S
Tb761 O788 2.658 . S
Tb761 O789 2.409 . S
Tb761 O790 2.378 . S
C762 Tb760 2.809 . S
C762 C763 1.514 . S
C762 O780 1.248 . S
C762 O781 1.266 . S
C763 C762 1.514 . S
C763 C764 1.359 . S
C763 C768 1.348 . S
C764 C763 1.359 . S
C764 C765 1.380 . S
C764 H792 0.929 . S
C765 C764 1.380 . S
C765 C766 1.347 . S
C765 H793 0.931 . S
C766 C765 1.347 . S
C766 C767 1.369 . S
C767 C766 1.369 . S
C767 C768 1.408 . S
C767 H794 0.930 . S
C768 C763 1.348 . S
C768 C767 1.408 . S
C768 H795 0.930 . S
C769 O782 1.281 . S
C769 O783 1.254 . S
C770 O784 1.236 . S
C770 O785 1.266 . S
C771 Tb761 2.809 . S
C771 C772 1.514 . S
C771 O786 1.248 . S
C771 O787 1.266 . S
C772 C771 1.514 . S
C772 C773 1.359 . S
C772 C777 1.348 . S
C773 C772 1.359 . S
C773 C774 1.380 1_655 S
C773 H796 0.929 1_655 S
C774 C773 1.380 1_455 S
C774 C775 1.347 1_455 S
C774 H797 0.931 . S
C775 C774 1.347 1_655 S
C775 C776 1.369 . S
C776 C775 1.369 . S
C776 C777 1.408 . S
C776 H798 0.930 . S
C777 C772 1.348 . S
C777 C776 1.408 . S
C777 H799 0.930 . S
C778 O788 1.281 . S
C778 O789 1.254 . S
C779 O790 1.236 . S
C779 O791 1.266 . S
O780 Tb760 2.484 . S
O780 C762 1.248 . S
O781 Tb760 2.440 . S
O781 C762 1.266 . S
O782 Tb760 2.658 . S
O782 Tb761 2.325 . S
O782 C769 1.281 . S
O783 Tb760 2.409 . S
O783 C769 1.254 . S
O784 Tb760 2.378 . S
O784 C770 1.236 . S
O785 Tb761 2.341 . S
O785 C770 1.266 . S
O786 Tb761 2.484 . S
O786 C771 1.248 . S
O787 Tb761 2.440 . S
O787 C771 1.266 . S
O788 Tb760 2.325 . S
O788 Tb761 2.658 . S
O788 C778 1.281 . S
O789 Tb761 2.409 . S
O789 C778 1.254 . S
O790 Tb761 2.378 . S
O790 C779 1.236 . S
O791 Tb760 2.341 . S
O791 C779 1.266 . S
H792 C764 0.929 . S
H793 C765 0.931 . S
H794 C767 0.930 . S
H795 C768 0.930 . S
H796 C773 0.929 1_455 S
H797 C774 0.931 . S
H798 C776 0.930 . S
H799 C777 0.930 . S
Tb800 C802 2.809 . S
Tb800 O820 2.484 . S
Tb800 O821 2.440 . S
Tb800 O822 2.658 . S
Tb800 O823 2.409 . S
Tb800 O824 2.378 . S
Tb800 O828 2.325 . S
Tb800 O831 2.341 . S
Tb801 C811 2.809 . S
Tb801 O822 2.325 . S
Tb801 O825 2.341 . S
Tb801 O826 2.484 . S
Tb801 O827 2.440 . S
Tb801 O828 2.658 . S
Tb801 O829 2.409 . S
Tb801 O830 2.378 . S
C802 Tb800 2.809 . S
C802 C803 1.514 . S
C802 O820 1.248 . S
C802 O821 1.266 . S
C803 C802 1.514 . S
C803 C804 1.359 . S
C803 C808 1.348 . S
C804 C803 1.359 . S
C804 C805 1.380 . S
C804 H832 0.929 . S
C805 C804 1.380 . S
C805 C806 1.347 . S
C805 H833 0.931 . S
C806 C805 1.347 . S
C806 C807 1.369 . S
C807 C806 1.369 . S
C807 C808 1.408 . S
C807 H834 0.930 . S
C808 C803 1.348 . S
C808 C807 1.408 . S
C808 H835 0.930 . S
C809 O822 1.281 . S
C809 O823 1.254 . S
C810 O824 1.236 . S
C810 O825 1.266 . S
C811 Tb801 2.809 . S
C811 C812 1.514 . S
C811 O826 1.248 . S
C811 O827 1.266 . S
C812 C811 1.514 . S
C812 C813 1.359 . S
C812 C817 1.348 . S
C813 C812 1.359 . S
C813 C814 1.380 . S
C813 H836 0.929 . S
C814 C813 1.380 . S
C814 C815 1.347 . S
C814 H837 0.931 . S
C815 C814 1.347 . S
C815 C816 1.369 . S
C816 C815 1.369 . S
C816 C817 1.408 . S
C816 H838 0.930 . S
C817 C812 1.348 . S
C817 C816 1.408 . S
C817 H839 0.930 . S
C818 O828 1.281 . S
C818 O829 1.254 . S
C819 O830 1.236 . S
C819 O831 1.266 . S
O820 Tb800 2.484 . S
O820 C802 1.248 . S
O821 Tb800 2.440 . S
O821 C802 1.266 . S
O822 Tb800 2.658 . S
O822 Tb801 2.325 . S
O822 C809 1.281 . S
O823 Tb800 2.409 . S
O823 C809 1.254 . S
O824 Tb800 2.378 . S
O824 C810 1.236 . S
O825 Tb801 2.341 . S
O825 C810 1.266 . S
O826 Tb801 2.484 . S
O826 C811 1.248 . S
O827 Tb801 2.440 . S
O827 C811 1.266 . S
O828 Tb800 2.325 . S
O828 Tb801 2.658 . S
O828 C818 1.281 . S
O829 Tb801 2.409 . S
O829 C818 1.254 . S
O830 Tb801 2.378 . S
O830 C819 1.236 . S
O831 Tb800 2.341 . S
O831 C819 1.266 . S
H832 C804 0.929 . S
H833 C805 0.931 . S
H834 C807 0.930 . S
H835 C808 0.930 . S
H836 C813 0.929 . S
H837 C814 0.931 . S
H838 C816 0.930 . S
H839 C817 0.930 . S
Tb840 C842 2.809 . S
Tb840 O860 2.484 . S
Tb840 O861 2.440 . S
Tb840 O862 2.658 1_554 S
Tb840 O863 2.409 . S
Tb840 O864 2.378 . S
Tb840 O868 2.325 . S
Tb840 O871 2.341 . S
Tb841 C851 2.809 . S
Tb841 O862 2.325 . S
Tb841 O865 2.341 . S
Tb841 O866 2.484 . S
Tb841 O867 2.440 . S
Tb841 O868 2.658 1_556 S
Tb841 O869 2.409 . S
Tb841 O870 2.378 . S
C842 Tb840 2.809 . S
C842 C843 1.514 . S
C842 O860 1.248 . S
C842 O861 1.266 . S
C843 C842 1.514 . S
C843 C844 1.359 . S
C843 C848 1.348 . S
C844 C843 1.359 . S
C844 C845 1.380 . S
C844 H872 0.929 . S
C845 C844 1.380 . S
C845 C846 1.347 . S
C845 H873 0.931 . S
C846 C845 1.347 . S
C846 C847 1.369 . S
C847 C846 1.369 . S
C847 C848 1.408 . S
C847 H874 0.930 . S
C848 C843 1.348 . S
C848 C847 1.408 . S
C848 H875 0.930 . S
C849 O862 1.281 1_554 S
C849 O863 1.254 . S
C850 O864 1.236 . S
C850 O865 1.266 1_554 S
C851 Tb841 2.809 . S
C851 C852 1.514 . S
C851 O866 1.248 . S
C851 O867 1.266 . S
C852 C851 1.514 . S
C852 C853 1.359 . S
C852 C857 1.348 . S
C853 C852 1.359 . S
C853 C854 1.380 . S
C853 H876 0.929 . S
C854 C853 1.380 . S
C854 C855 1.347 . S
C854 H877 0.931 . S
C855 C854 1.347 . S
C855 C856 1.369 . S
C856 C855 1.369 . S
C856 C857 1.408 . S
C856 H878 0.930 . S
C857 C852 1.348 . S
C857 C856 1.408 . S
C857 H879 0.930 . S
C858 O868 1.281 1_556 S
C858 O869 1.254 . S
C859 O870 1.236 . S
C859 O871 1.266 1_556 S
O860 Tb840 2.484 . S
O860 C842 1.248 . S
O861 Tb840 2.440 . S
O861 C842 1.266 . S
O862 Tb840 2.658 1_556 S
O862 Tb841 2.325 . S
O862 C849 1.281 1_556 S
O863 Tb840 2.409 . S
O863 C849 1.254 . S
O864 Tb840 2.378 . S
O864 C850 1.236 . S
O865 Tb841 2.341 . S
O865 C850 1.266 1_556 S
O866 Tb841 2.484 . S
O866 C851 1.248 . S
O867 Tb841 2.440 . S
O867 C851 1.266 . S
O868 Tb840 2.325 . S
O868 Tb841 2.658 1_554 S
O868 C858 1.281 1_554 S
O869 Tb841 2.409 . S
O869 C858 1.254 . S
O870 Tb841 2.378 . S
O870 C859 1.236 . S
O871 Tb840 2.341 . S
O871 C859 1.266 1_554 S
H872 C844 0.929 . S
H873 C845 0.931 . S
H874 C847 0.930 . S
H875 C848 0.930 . S
H876 C853 0.929 . S
H877 C854 0.931 . S
H878 C856 0.930 . S
H879 C857 0.930 . S
Tb880 C882 2.809 . S
Tb880 O900 2.484 . S
Tb880 O901 2.440 . S
Tb880 O902 2.658 1_554 S
Tb880 O903 2.409 . S
Tb880 O904 2.378 . S
Tb880 O908 2.325 . S
Tb880 O911 2.341 . S
Tb881 C891 2.809 . S
Tb881 O902 2.325 . S
Tb881 O905 2.341 . S
Tb881 O906 2.484 . S
Tb881 O907 2.440 . S
Tb881 O908 2.658 1_556 S
Tb881 O909 2.409 . S
Tb881 O910 2.378 . S
C882 Tb880 2.809 . S
C882 C883 1.514 . S
C882 O900 1.248 . S
C882 O901 1.266 . S
C883 C882 1.514 . S
C883 C884 1.359 . S
C883 C888 1.348 . S
C884 C883 1.359 . S
C884 C885 1.380 . S
C884 H912 0.929 . S
C885 C884 1.380 . S
C885 C886 1.347 . S
C885 H913 0.931 . S
C886 C885 1.347 . S
C886 C887 1.369 . S
C887 C886 1.369 . S
C887 C888 1.408 . S
C887 H914 0.930 . S
C888 C883 1.348 . S
C888 C887 1.408 . S
C888 H915 0.930 . S
C889 O902 1.281 1_554 S
C889 O903 1.254 . S
C890 O904 1.236 . S
C890 O905 1.266 1_554 S
C891 Tb881 2.809 . S
C891 C892 1.514 . S
C891 O906 1.248 . S
C891 O907 1.266 . S
C892 C891 1.514 . S
C892 C893 1.359 . S
C892 C897 1.348 . S
C893 C892 1.359 . S
C893 C894 1.380 . S
C893 H916 0.929 . S
C894 C893 1.380 . S
C894 C895 1.347 . S
C894 H917 0.931 . S
C895 C894 1.347 . S
C895 C896 1.369 . S
C896 C895 1.369 . S
C896 C897 1.408 . S
C896 H918 0.930 . S
C897 C892 1.348 . S
C897 C896 1.408 . S
C897 H919 0.930 . S
C898 O908 1.281 1_556 S
C898 O909 1.254 . S
C899 O910 1.236 . S
C899 O911 1.266 1_556 S
O900 Tb880 2.484 . S
O900 C882 1.248 . S
O901 Tb880 2.440 . S
O901 C882 1.266 . S
O902 Tb880 2.658 1_556 S
O902 Tb881 2.325 . S
O902 C889 1.281 1_556 S
O903 Tb880 2.409 . S
O903 C889 1.254 . S
O904 Tb880 2.378 . S
O904 C890 1.236 . S
O905 Tb881 2.341 . S
O905 C890 1.266 1_556 S
O906 Tb881 2.484 . S
O906 C891 1.248 . S
O907 Tb881 2.440 . S
O907 C891 1.266 . S
O908 Tb880 2.325 . S
O908 Tb881 2.658 1_554 S
O908 C898 1.281 1_554 S
O909 Tb881 2.409 . S
O909 C898 1.254 . S
O910 Tb881 2.378 . S
O910 C899 1.236 . S
O911 Tb880 2.341 . S
O911 C899 1.266 1_554 S
H912 C884 0.929 . S
H913 C885 0.931 . S
H914 C887 0.930 . S
H915 C888 0.930 . S
H916 C893 0.929 . S
H917 C894 0.931 . S
H918 C896 0.930 . S
H919 C897 0.930 . S
Tb920 C922 2.809 . S
Tb920 O940 2.484 . S
Tb920 O941 2.440 . S
Tb920 O942 2.658 1_554 S
Tb920 O943 2.409 . S
Tb920 O944 2.378 . S
Tb920 O948 2.325 . S
Tb920 O951 2.341 . S
Tb921 C931 2.809 . S
Tb921 O942 2.325 . S
Tb921 O945 2.341 . S
Tb921 O946 2.484 . S
Tb921 O947 2.440 . S
Tb921 O948 2.658 1_556 S
Tb921 O949 2.409 . S
Tb921 O950 2.378 . S
C922 Tb920 2.809 . S
C922 C923 1.514 . S
C922 O940 1.248 . S
C922 O941 1.266 . S
C923 C922 1.514 . S
C923 C924 1.359 . S
C923 C928 1.348 . S
C924 C923 1.359 . S
C924 C925 1.380 . S
C924 H952 0.929 . S
C925 C924 1.380 . S
C925 C926 1.347 . S
C925 H953 0.931 . S
C926 C925 1.347 . S
C926 C927 1.369 . S
C927 C926 1.369 . S
C927 C928 1.408 . S
C927 H954 0.930 . S
C928 C923 1.348 . S
C928 C927 1.408 . S
C928 H955 0.930 . S
C929 O942 1.281 1_554 S
C929 O943 1.254 . S
C930 O944 1.236 . S
C930 O945 1.266 1_554 S
C931 Tb921 2.809 . S
C931 C932 1.514 . S
C931 O946 1.248 . S
C931 O947 1.266 . S
C932 C931 1.514 . S
C932 C933 1.359 . S
C932 C937 1.348 . S
C933 C932 1.359 . S
C933 C934 1.380 . S
C933 H956 0.929 . S
C934 C933 1.380 . S
C934 C935 1.347 . S
C934 H957 0.931 . S
C935 C934 1.347 . S
C935 C936 1.369 . S
C936 C935 1.369 . S
C936 C937 1.408 . S
C936 H958 0.930 . S
C937 C932 1.348 . S
C937 C936 1.408 . S
C937 H959 0.930 . S
C938 O948 1.281 1_556 S
C938 O949 1.254 . S
C939 O950 1.236 . S
C939 O951 1.266 1_556 S
O940 Tb920 2.484 . S
O940 C922 1.248 . S
O941 Tb920 2.440 . S
O941 C922 1.266 . S
O942 Tb920 2.658 1_556 S
O942 Tb921 2.325 . S
O942 C929 1.281 1_556 S
O943 Tb920 2.409 . S
O943 C929 1.254 . S
O944 Tb920 2.378 . S
O944 C930 1.236 . S
O945 Tb921 2.341 . S
O945 C930 1.266 1_556 S
O946 Tb921 2.484 . S
O946 C931 1.248 . S
O947 Tb921 2.440 . S
O947 C931 1.266 . S
O948 Tb920 2.325 . S
O948 Tb921 2.658 1_554 S
O948 C938 1.281 1_554 S
O949 Tb921 2.409 . S
O949 C938 1.254 . S
O950 Tb921 2.378 . S
O950 C939 1.236 . S
O951 Tb920 2.341 . S
O951 C939 1.266 1_554 S
H952 C924 0.929 . S
H953 C925 0.931 . S
H954 C927 0.930 . S
H955 C928 0.930 . S
H956 C933 0.929 . S
H957 C934 0.931 . S
H958 C936 0.930 . S
H959 C937 0.930 . S
Tb960 C962 2.809 . S
Tb960 O980 2.484 . S
Tb960 O981 2.440 . S
Tb960 O982 2.658 . S
Tb960 O983 2.409 . S
Tb960 O984 2.378 . S
Tb960 O988 2.325 . S
Tb960 O991 2.341 . S
Tb961 C971 2.809 . S
Tb961 O982 2.325 . S
Tb961 O985 2.341 . S
Tb961 O986 2.484 . S
Tb961 O987 2.440 . S
Tb961 O988 2.658 . S
Tb961 O989 2.409 . S
Tb961 O990 2.378 . S
C962 Tb960 2.809 . S
C962 C963 1.514 . S
C962 O980 1.248 . S
C962 O981 1.266 . S
C963 C962 1.514 . S
C963 C964 1.359 . S
C963 C968 1.348 . S
C964 C963 1.359 . S
C964 C965 1.380 1_565 S
C964 H992 0.929 1_565 S
C965 C964 1.380 1_545 S
C965 C966 1.347 1_545 S
C965 H993 0.931 . S
C966 C965 1.347 1_565 S
C966 C967 1.369 . S
C967 C966 1.369 . S
C967 C968 1.408 . S
C967 H994 0.930 . S
C968 C963 1.348 . S
C968 C967 1.408 . S
C968 H995 0.930 . S
C969 O982 1.281 . S
C969 O983 1.254 . S
C970 O984 1.236 . S
C970 O985 1.266 . S
C971 Tb961 2.809 . S
C971 C972 1.514 . S
C971 O986 1.248 . S
C971 O987 1.266 . S
C972 C971 1.514 . S
C972 C973 1.359 . S
C972 C977 1.348 . S
C973 C972 1.359 . S
C973 C974 1.380 . S
C973 H996 0.929 . S
C974 C973 1.380 . S
C974 C975 1.347 . S
C974 H997 0.931 . S
C975 C974 1.347 . S
C975 C976 1.369 . S
C976 C975 1.369 . S
C976 C977 1.408 . S
C976 H998 0.930 . S
C977 C972 1.348 . S
C977 C976 1.408 . S
C977 H999 0.930 . S
C978 O988 1.281 . S
C978 O989 1.254 . S
C979 O990 1.236 . S
C979 O991 1.266 . S
O980 Tb960 2.484 . S
O980 C962 1.248 . S
O981 Tb960 2.440 . S
O981 C962 1.266 . S
O982 Tb960 2.658 . S
O982 Tb961 2.325 . S
O982 C969 1.281 . S
O983 Tb960 2.409 . S
O983 C969 1.254 . S
O984 Tb960 2.378 . S
O984 C970 1.236 . S
O985 Tb961 2.341 . S
O985 C970 1.266 . S
O986 Tb961 2.484 . S
O986 C971 1.248 . S
O987 Tb961 2.440 . S
O987 C971 1.266 . S
O988 Tb960 2.325 . S
O988 Tb961 2.658 . S
O988 C978 1.281 . S
O989 Tb961 2.409 . S
O989 C978 1.254 . S
O990 Tb961 2.378 . S
O990 C979 1.236 . S
O991 Tb960 2.341 . S
O991 C979 1.266 . S
H992 C964 0.929 1_545 S
H993 C965 0.931 . S
H994 C967 0.930 . S
H995 C968 0.930 . S
H996 C973 0.929 . S
H997 C974 0.931 . S
H998 C976 0.930 . S
H999 C977 0.930 . S
Tb1000 C1002 2.809 . S
Tb1000 O1020 2.484 . S
Tb1000 O1021 2.440 . S
Tb1000 O1022 2.658 . S
Tb1000 O1023 2.409 . S
Tb1000 O1024 2.378 . S
Tb1000 O1028 2.325 . S
Tb1000 O1031 2.341 . S
Tb1001 C1011 2.809 . S
Tb1001 O1022 2.325 . S
Tb1001 O1025 2.341 . S
Tb1001 O1026 2.484 . S
Tb1001 O1027 2.440 . S
Tb1001 O1028 2.658 . S
Tb1001 O1029 2.409 . S
Tb1001 O1030 2.378 . S
C1002 Tb1000 2.809 . S
C1002 C1003 1.514 . S
C1002 O1020 1.248 . S
C1002 O1021 1.266 . S
C1003 C1002 1.514 . S
C1003 C1004 1.359 . S
C1003 C1008 1.348 . S
C1004 C1003 1.359 . S
C1004 C1005 1.380 1_455 S
C1004 H1032 0.929 1_455 S
C1005 C1004 1.380 1_655 S
C1005 C1006 1.347 1_655 S
C1005 H1033 0.931 . S
C1006 C1005 1.347 1_455 S
C1006 C1007 1.369 . S
C1007 C1006 1.369 . S
C1007 C1008 1.408 . S
C1007 H1034 0.930 . S
C1008 C1003 1.348 . S
C1008 C1007 1.408 . S
C1008 H1035 0.930 . S
C1009 O1022 1.281 . S
C1009 O1023 1.254 . S
C1010 O1024 1.236 . S
C1010 O1025 1.266 . S
C1011 Tb1001 2.809 . S
C1011 C1012 1.514 . S
C1011 O1026 1.248 . S
C1011 O1027 1.266 . S
C1012 C1011 1.514 . S
C1012 C1013 1.359 . S
C1012 C1017 1.348 . S
C1013 C1012 1.359 . S
C1013 C1014 1.380 . S
C1013 H1036 0.929 . S
C1014 C1013 1.380 . S
C1014 C1015 1.347 . S
C1014 H1037 0.931 . S
C1015 C1014 1.347 . S
C1015 C1016 1.369 . S
C1016 C1015 1.369 . S
C1016 C1017 1.408 . S
C1016 H1038 0.930 . S
C1017 C1012 1.348 . S
C1017 C1016 1.408 . S
C1017 H1039 0.930 . S
C1018 O1028 1.281 . S
C1018 O1029 1.254 . S
C1019 O1030 1.236 . S
C1019 O1031 1.266 . S
O1020 Tb1000 2.484 . S
O1020 C1002 1.248 . S
O1021 Tb1000 2.440 . S
O1021 C1002 1.266 . S
O1022 Tb1000 2.658 . S
O1022 Tb1001 2.325 . S
O1022 C1009 1.281 . S
O1023 Tb1000 2.409 . S
O1023 C1009 1.254 . S
O1024 Tb1000 2.378 . S
O1024 C1010 1.236 . S
O1025 Tb1001 2.341 . S
O1025 C1010 1.266 . S
O1026 Tb1001 2.484 . S
O1026 C1011 1.248 . S
O1027 Tb1001 2.440 . S
O1027 C1011 1.266 . S
O1028 Tb1000 2.325 . S
O1028 Tb1001 2.658 . S
O1028 C1018 1.281 . S
O1029 Tb1001 2.409 . S
O1029 C1018 1.254 . S
O1030 Tb1001 2.378 . S
O1030 C1019 1.236 . S
O1031 Tb1000 2.341 . S
O1031 C1019 1.266 . S
H1032 C1004 0.929 1_655 S
H1033 C1005 0.931 . S
H1034 C1007 0.930 . S
H1035 C1008 0.930 . S
H1036 C1013 0.929 . S
H1037 C1014 0.931 . S
H1038 C1016 0.930 . S
H1039 C1017 0.930 . S
Tb1040 C1042 2.809 . S
Tb1040 O1060 2.484 . S
Tb1040 O1061 2.440 . S
Tb1040 O1062 2.658 . S
Tb1040 O1063 2.409 . S
Tb1040 O1064 2.378 . S
Tb1040 O1068 2.325 . S
Tb1040 O1071 2.341 . S
Tb1041 C1051 2.809 . S
Tb1041 O1062 2.325 . S
Tb1041 O1065 2.341 . S
Tb1041 O1066 2.484 . S
Tb1041 O1067 2.440 . S
Tb1041 O1068 2.658 . S
Tb1041 O1069 2.409 . S
Tb1041 O1070 2.378 . S
C1042 Tb1040 2.809 . S
C1042 C1043 1.514 . S
C1042 O1060 1.248 . S
C1042 O1061 1.266 . S
C1043 C1042 1.514 . S
C1043 C1044 1.359 . S
C1043 C1048 1.348 . S
C1044 C1043 1.359 . S
C1044 C1045 1.380 . S
C1044 H1072 0.929 . S
C1045 C1044 1.380 . S
C1045 C1046 1.347 . S
C1045 H1073 0.931 . S
C1046 C1045 1.347 . S
C1046 C1047 1.369 . S
C1047 C1046 1.369 . S
C1047 C1048 1.408 . S
C1047 H1074 0.930 . S
C1048 C1043 1.348 . S
C1048 C1047 1.408 . S
C1048 H1075 0.930 . S
C1049 O1062 1.281 . S
C1049 O1063 1.254 . S
C1050 O1064 1.236 . S
C1050 O1065 1.266 . S
C1051 Tb1041 2.809 . S
C1051 C1052 1.514 . S
C1051 O1066 1.248 . S
C1051 O1067 1.266 . S
C1052 C1051 1.514 . S
C1052 C1053 1.359 . S
C1052 C1057 1.348 . S
C1053 C1052 1.359 . S
C1053 C1054 1.380 . S
C1053 H1076 0.929 . S
C1054 C1053 1.380 . S
C1054 C1055 1.347 . S
C1054 H1077 0.931 . S
C1055 C1054 1.347 . S
C1055 C1056 1.369 . S
C1056 C1055 1.369 . S
C1056 C1057 1.408 . S
C1056 H1078 0.930 . S
C1057 C1052 1.348 . S
C1057 C1056 1.408 . S
C1057 H1079 0.930 . S
C1058 O1068 1.281 . S
C1058 O1069 1.254 . S
C1059 O1070 1.236 . S
C1059 O1071 1.266 . S
O1060 Tb1040 2.484 . S
O1060 C1042 1.248 . S
O1061 Tb1040 2.440 . S
O1061 C1042 1.266 . S
O1062 Tb1040 2.658 . S
O1062 Tb1041 2.325 . S
O1062 C1049 1.281 . S
O1063 Tb1040 2.409 . S
O1063 C1049 1.254 . S
O1064 Tb1040 2.378 . S
O1064 C1050 1.236 . S
O1065 Tb1041 2.341 . S
O1065 C1050 1.266 . S
O1066 Tb1041 2.484 . S
O1066 C1051 1.248 . S
O1067 Tb1041 2.440 . S
O1067 C1051 1.266 . S
O1068 Tb1040 2.325 . S
O1068 Tb1041 2.658 . S
O1068 C1058 1.281 . S
O1069 Tb1041 2.409 . S
O1069 C1058 1.254 . S
O1070 Tb1041 2.378 . S
O1070 C1059 1.236 . S
O1071 Tb1040 2.341 . S
O1071 C1059 1.266 . S
H1072 C1044 0.929 . S
H1073 C1045 0.931 . S
H1074 C1047 0.930 . S
H1075 C1048 0.930 . S
H1076 C1053 0.929 . S
H1077 C1054 0.931 . S
H1078 C1056 0.930 . S
H1079 C1057 0.930 . S
Tb1080 C1082 2.809 . S
Tb1080 O1100 2.484 . S
Tb1080 O1101 2.440 . S
Tb1080 O1102 2.658 1_554 S
Tb1080 O1103 2.409 . S
Tb1080 O1104 2.378 . S
Tb1080 O1108 2.325 . S
Tb1080 O1111 2.341 . S
Tb1081 C1091 2.809 . S
Tb1081 O1102 2.325 . S
Tb1081 O1105 2.341 . S
Tb1081 O1106 2.484 . S
Tb1081 O1107 2.440 . S
Tb1081 O1108 2.658 1_556 S
Tb1081 O1109 2.409 . S
Tb1081 O1110 2.378 . S
C1082 Tb1080 2.809 . S
C1082 C1083 1.514 . S
C1082 O1100 1.248 . S
C1082 O1101 1.266 . S
C1083 C1082 1.514 . S
C1083 C1084 1.359 . S
C1083 C1088 1.348 . S
C1084 C1083 1.359 . S
C1084 C1085 1.380 . S
C1084 H1112 0.929 . S
C1085 C1084 1.380 . S
C1085 C1086 1.347 . S
C1085 H1113 0.931 . S
C1086 C1085 1.347 . S
C1086 C1087 1.369 . S
C1087 C1086 1.369 . S
C1087 C1088 1.408 . S
C1087 H1114 0.930 . S
C1088 C1083 1.348 . S
C1088 C1087 1.408 . S
C1088 H1115 0.930 . S
C1089 O1102 1.281 1_554 S
C1089 O1103 1.254 . S
C1090 O1104 1.236 . S
C1090 O1105 1.266 1_554 S
C1091 Tb1081 2.809 . S
C1091 C1092 1.514 . S
C1091 O1106 1.248 . S
C1091 O1107 1.266 . S
C1092 C1091 1.514 . S
C1092 C1093 1.359 . S
C1092 C1097 1.348 . S
C1093 C1092 1.359 . S
C1093 C1094 1.380 . S
C1093 H1116 0.929 . S
C1094 C1093 1.380 . S
C1094 C1095 1.347 . S
C1094 H1117 0.931 . S
C1095 C1094 1.347 . S
C1095 C1096 1.369 . S
C1096 C1095 1.369 . S
C1096 C1097 1.408 . S
C1096 H1118 0.930 . S
C1097 C1092 1.348 . S
C1097 C1096 1.408 . S
C1097 H1119 0.930 . S
C1098 O1108 1.281 1_556 S
C1098 O1109 1.254 . S
C1099 O1110 1.236 . S
C1099 O1111 1.266 1_556 S
O1100 Tb1080 2.484 . S
O1100 C1082 1.248 . S
O1101 Tb1080 2.440 . S
O1101 C1082 1.266 . S
O1102 Tb1080 2.658 1_556 S
O1102 Tb1081 2.325 . S
O1102 C1089 1.281 1_556 S
O1103 Tb1080 2.409 . S
O1103 C1089 1.254 . S
O1104 Tb1080 2.378 . S
O1104 C1090 1.236 . S
O1105 Tb1081 2.341 . S
O1105 C1090 1.266 1_556 S
O1106 Tb1081 2.484 . S
O1106 C1091 1.248 . S
O1107 Tb1081 2.440 . S
O1107 C1091 1.266 . S
O1108 Tb1080 2.325 . S
O1108 Tb1081 2.658 1_554 S
O1108 C1098 1.281 1_554 S
O1109 Tb1081 2.409 . S
O1109 C1098 1.254 . S
O1110 Tb1081 2.378 . S
O1110 C1099 1.236 . S
O1111 Tb1080 2.341 . S
O1111 C1099 1.266 1_554 S
H1112 C1084 0.929 . S
H1113 C1085 0.931 . S
H1114 C1087 0.930 . S
H1115 C1088 0.930 . S
H1116 C1093 0.929 . S
H1117 C1094 0.931 . S
H1118 C1096 0.930 . S
H1119 C1097 0.930 . S
Tb1120 C1122 2.809 . S
Tb1120 O1140 2.484 . S
Tb1120 O1141 2.440 . S
Tb1120 O1142 2.658 1_554 S
Tb1120 O1143 2.409 . S
Tb1120 O1144 2.378 . S
Tb1120 O1148 2.325 . S
Tb1120 O1151 2.341 . S
Tb1121 C1131 2.809 . S
Tb1121 O1142 2.325 . S
Tb1121 O1145 2.341 . S
Tb1121 O1146 2.484 . S
Tb1121 O1147 2.440 . S
Tb1121 O1148 2.658 1_556 S
Tb1121 O1149 2.409 . S
Tb1121 O1150 2.378 . S
C1122 Tb1120 2.809 . S
C1122 C1123 1.514 . S
C1122 O1140 1.248 . S
C1122 O1141 1.266 . S
C1123 C1122 1.514 . S
C1123 C1124 1.359 . S
C1123 C1128 1.348 . S
C1124 C1123 1.359 . S
C1124 C1125 1.380 . S
C1124 H1152 0.929 . S
C1125 C1124 1.380 . S
C1125 C1126 1.347 . S
C1125 H1153 0.931 . S
C1126 C1125 1.347 . S
C1126 C1127 1.369 . S
C1127 C1126 1.369 . S
C1127 C1128 1.408 . S
C1127 H1154 0.930 . S
C1128 C1123 1.348 . S
C1128 C1127 1.408 . S
C1128 H1155 0.930 . S
C1129 O1142 1.281 1_554 S
C1129 O1143 1.254 . S
C1130 O1144 1.236 . S
C1130 O1145 1.266 1_554 S
C1131 Tb1121 2.809 . S
C1131 C1132 1.514 . S
C1131 O1146 1.248 . S
C1131 O1147 1.266 . S
C1132 C1131 1.514 . S
C1132 C1133 1.359 . S
C1132 C1137 1.348 . S
C1133 C1132 1.359 . S
C1133 C1134 1.380 . S
C1133 H1156 0.929 . S
C1134 C1133 1.380 . S
C1134 C1135 1.347 . S
C1134 H1157 0.931 . S
C1135 C1134 1.347 . S
C1135 C1136 1.369 . S
C1136 C1135 1.369 . S
C1136 C1137 1.408 . S
C1136 H1158 0.930 . S
C1137 C1132 1.348 . S
C1137 C1136 1.408 . S
C1137 H1159 0.930 . S
C1138 O1148 1.281 1_556 S
C1138 O1149 1.254 . S
C1139 O1150 1.236 . S
C1139 O1151 1.266 1_556 S
O1140 Tb1120 2.484 . S
O1140 C1122 1.248 . S
O1141 Tb1120 2.440 . S
O1141 C1122 1.266 . S
O1142 Tb1120 2.658 1_556 S
O1142 Tb1121 2.325 . S
O1142 C1129 1.281 1_556 S
O1143 Tb1120 2.409 . S
O1143 C1129 1.254 . S
O1144 Tb1120 2.378 . S
O1144 C1130 1.236 . S
O1145 Tb1121 2.341 . S
O1145 C1130 1.266 1_556 S
O1146 Tb1121 2.484 . S
O1146 C1131 1.248 . S
O1147 Tb1121 2.440 . S
O1147 C1131 1.266 . S
O1148 Tb1120 2.325 . S
O1148 Tb1121 2.658 1_554 S
O1148 C1138 1.281 1_554 S
O1149 Tb1121 2.409 . S
O1149 C1138 1.254 . S
O1150 Tb1121 2.378 . S
O1150 C1139 1.236 . S
O1151 Tb1120 2.341 . S
O1151 C1139 1.266 1_554 S
H1152 C1124 0.929 . S
H1153 C1125 0.931 . S
H1154 C1127 0.930 . S
H1155 C1128 0.930 . S
H1156 C1133 0.929 . S
H1157 C1134 0.931 . S
H1158 C1136 0.930 . S
H1159 C1137 0.930 . S
Tb1160 C1162 2.809 . S
Tb1160 O1180 2.484 . S
Tb1160 O1181 2.440 . S
Tb1160 O1182 2.658 1_554 S
Tb1160 O1183 2.409 . S
Tb1160 O1184 2.378 . S
Tb1160 O1188 2.325 . S
Tb1160 O1191 2.341 . S
Tb1161 C1171 2.809 . S
Tb1161 O1182 2.325 . S
Tb1161 O1185 2.341 . S
Tb1161 O1186 2.484 . S
Tb1161 O1187 2.440 . S
Tb1161 O1188 2.658 1_556 S
Tb1161 O1189 2.409 . S
Tb1161 O1190 2.378 . S
C1162 Tb1160 2.809 . S
C1162 C1163 1.514 . S
C1162 O1180 1.248 . S
C1162 O1181 1.266 . S
C1163 C1162 1.514 . S
C1163 C1164 1.359 . S
C1163 C1168 1.348 . S
C1164 C1163 1.359 . S
C1164 C1165 1.380 . S
C1164 H1192 0.929 . S
C1165 C1164 1.380 . S
C1165 C1166 1.347 . S
C1165 H1193 0.931 . S
C1166 C1165 1.347 . S
C1166 C1167 1.369 . S
C1167 C1166 1.369 . S
C1167 C1168 1.408 . S
C1167 H1194 0.930 . S
C1168 C1163 1.348 . S
C1168 C1167 1.408 . S
C1168 H1195 0.930 . S
C1169 O1182 1.281 1_554 S
C1169 O1183 1.254 . S
C1170 O1184 1.236 . S
C1170 O1185 1.266 1_554 S
C1171 Tb1161 2.809 . S
C1171 C1172 1.514 . S
C1171 O1186 1.248 . S
C1171 O1187 1.266 . S
C1172 C1171 1.514 . S
C1172 C1173 1.359 . S
C1172 C1177 1.348 . S
C1173 C1172 1.359 . S
C1173 C1174 1.380 . S
C1173 H1196 0.929 . S
C1174 C1173 1.380 . S
C1174 C1175 1.347 . S
C1174 H1197 0.931 . S
C1175 C1174 1.347 . S
C1175 C1176 1.369 . S
C1176 C1175 1.369 . S
C1176 C1177 1.408 . S
C1176 H1198 0.930 . S
C1177 C1172 1.348 . S
C1177 C1176 1.408 . S
C1177 H1199 0.930 . S
C1178 O1188 1.281 1_556 S
C1178 O1189 1.254 . S
C1179 O1190 1.236 . S
C1179 O1191 1.266 1_556 S
O1180 Tb1160 2.484 . S
O1180 C1162 1.248 . S
O1181 Tb1160 2.440 . S
O1181 C1162 1.266 . S
O1182 Tb1160 2.658 1_556 S
O1182 Tb1161 2.325 . S
O1182 C1169 1.281 1_556 S
O1183 Tb1160 2.409 . S
O1183 C1169 1.254 . S
O1184 Tb1160 2.378 . S
O1184 C1170 1.236 . S
O1185 Tb1161 2.341 . S
O1185 C1170 1.266 1_556 S
O1186 Tb1161 2.484 . S
O1186 C1171 1.248 . S
O1187 Tb1161 2.440 . S
O1187 C1171 1.266 . S
O1188 Tb1160 2.325 . S
O1188 Tb1161 2.658 1_554 S
O1188 C1178 1.281 1_554 S
O1189 Tb1161 2.409 . S
O1189 C1178 1.254 . S
O1190 Tb1161 2.378 . S
O1190 C1179 1.236 . S
O1191 Tb1160 2.341 . S
O1191 C1179 1.266 1_554 S
H1192 C1164 0.929 . S
H1193 C1165 0.931 . S
H1194 C1167 0.930 . S
H1195 C1168 0.930 . S
H1196 C1173 0.929 . S
H1197 C1174 0.931 . S
H1198 C1176 0.930 . S
H1199 C1177 0.930 . S
Tb1200 C1202 2.809 . S
Tb1200 O1220 2.484 . S
Tb1200 O1221 2.440 . S
Tb1200 O1222 2.658 . S
Tb1200 O1223 2.409 . S
Tb1200 O1224 2.378 . S
Tb1200 O1228 2.325 . S
Tb1200 O1231 2.341 . S
Tb1201 C1211 2.809 . S
Tb1201 O1222 2.325 . S
Tb1201 O1225 2.341 . S
Tb1201 O1226 2.484 . S
Tb1201 O1227 2.440 . S
Tb1201 O1228 2.658 . S
Tb1201 O1229 2.409 . S
Tb1201 O1230 2.378 . S
C1202 Tb1200 2.809 . S
C1202 C1203 1.514 . S
C1202 O1220 1.248 . S
C1202 O1221 1.266 . S
C1203 C1202 1.514 . S
C1203 C1204 1.359 . S
C1203 C1208 1.348 . S
C1204 C1203 1.359 . S
C1204 C1205 1.380 . S
C1204 H1232 0.929 . S
C1205 C1204 1.380 . S
C1205 C1206 1.347 . S
C1205 H1233 0.931 . S
C1206 C1205 1.347 . S
C1206 C1207 1.369 . S
C1207 C1206 1.369 . S
C1207 C1208 1.408 . S
C1207 H1234 0.930 . S
C1208 C1203 1.348 . S
C1208 C1207 1.408 . S
C1208 H1235 0.930 . S
C1209 O1222 1.281 . S
C1209 O1223 1.254 . S
C1210 O1224 1.236 . S
C1210 O1225 1.266 . S
C1211 Tb1201 2.809 . S
C1211 C1212 1.514 . S
C1211 O1226 1.248 . S
C1211 O1227 1.266 . S
C1212 C1211 1.514 . S
C1212 C1213 1.359 . S
C1212 C1217 1.348 . S
C1213 C1212 1.359 . S
C1213 C1214 1.380 . S
C1213 H1236 0.929 . S
C1214 C1213 1.380 . S
C1214 C1215 1.347 . S
C1214 H1237 0.931 . S
C1215 C1214 1.347 . S
C1215 C1216 1.369 . S
C1216 C1215 1.369 . S
C1216 C1217 1.408 . S
C1216 H1238 0.930 . S
C1217 C1212 1.348 . S
C1217 C1216 1.408 . S
C1217 H1239 0.930 . S
C1218 O1228 1.281 . S
C1218 O1229 1.254 . S
C1219 O1230 1.236 . S
C1219 O1231 1.266 . S
O1220 Tb1200 2.484 . S
O1220 C1202 1.248 . S
O1221 Tb1200 2.440 . S
O1221 C1202 1.266 . S
O1222 Tb1200 2.658 . S
O1222 Tb1201 2.325 . S
O1222 C1209 1.281 . S
O1223 Tb1200 2.409 . S
O1223 C1209 1.254 . S
O1224 Tb1200 2.378 . S
O1224 C1210 1.236 . S
O1225 Tb1201 2.341 . S
O1225 C1210 1.266 . S
O1226 Tb1201 2.484 . S
O1226 C1211 1.248 . S
O1227 Tb1201 2.440 . S
O1227 C1211 1.266 . S
O1228 Tb1200 2.325 . S
O1228 Tb1201 2.658 . S
O1228 C1218 1.281 . S
O1229 Tb1201 2.409 . S
O1229 C1218 1.254 . S
O1230 Tb1201 2.378 . S
O1230 C1219 1.236 . S
O1231 Tb1200 2.341 . S
O1231 C1219 1.266 . S
H1232 C1204 0.929 . S
H1233 C1205 0.931 . S
H1234 C1207 0.930 . S
H1235 C1208 0.930 . S
H1236 C1213 0.929 . S
H1237 C1214 0.931 . S
H1238 C1216 0.930 . S
H1239 C1217 0.930 . S
Tb1240 C1242 2.809 . S
Tb1240 O1260 2.484 . S
Tb1240 O1261 2.440 . S
Tb1240 O1262 2.658 . S
Tb1240 O1263 2.409 . S
Tb1240 O1264 2.378 . S
Tb1240 O1268 2.325 . S
Tb1240 O1271 2.341 . S
Tb1241 C1251 2.809 . S
Tb1241 O1262 2.325 . S
Tb1241 O1265 2.341 . S
Tb1241 O1266 2.484 . S
Tb1241 O1267 2.440 . S
Tb1241 O1268 2.658 . S
Tb1241 O1269 2.409 . S
Tb1241 O1270 2.378 . S
C1242 Tb1240 2.809 . S
C1242 C1243 1.514 . S
C1242 O1260 1.248 . S
C1242 O1261 1.266 . S
C1243 C1242 1.514 . S
C1243 C1244 1.359 . S
C1243 C1248 1.348 . S
C1244 C1243 1.359 . S
C1244 C1245 1.380 . S
C1244 H1272 0.929 . S
C1245 C1244 1.380 . S
C1245 C1246 1.347 . S
C1245 H1273 0.931 . S
C1246 C1245 1.347 . S
C1246 C1247 1.369 . S
C1247 C1246 1.369 . S
C1247 C1248 1.408 . S
C1247 H1274 0.930 . S
C1248 C1243 1.348 . S
C1248 C1247 1.408 . S
C1248 H1275 0.930 . S
C1249 O1262 1.281 . S
C1249 O1263 1.254 . S
C1250 O1264 1.236 . S
C1250 O1265 1.266 . S
C1251 Tb1241 2.809 . S
C1251 C1252 1.514 . S
C1251 O1266 1.248 . S
C1251 O1267 1.266 . S
C1252 C1251 1.514 . S
C1252 C1253 1.359 . S
C1252 C1257 1.348 . S
C1253 C1252 1.359 . S
C1253 C1254 1.380 . S
C1253 H1276 0.929 . S
C1254 C1253 1.380 . S
C1254 C1255 1.347 . S
C1254 H1277 0.931 . S
C1255 C1254 1.347 . S
C1255 C1256 1.369 . S
C1256 C1255 1.369 . S
C1256 C1257 1.408 . S
C1256 H1278 0.930 . S
C1257 C1252 1.348 . S
C1257 C1256 1.408 . S
C1257 H1279 0.930 . S
C1258 O1268 1.281 . S
C1258 O1269 1.254 . S
C1259 O1270 1.236 . S
C1259 O1271 1.266 . S
O1260 Tb1240 2.484 . S
O1260 C1242 1.248 . S
O1261 Tb1240 2.440 . S
O1261 C1242 1.266 . S
O1262 Tb1240 2.658 . S
O1262 Tb1241 2.325 . S
O1262 C1249 1.281 . S
O1263 Tb1240 2.409 . S
O1263 C1249 1.254 . S
O1264 Tb1240 2.378 . S
O1264 C1250 1.236 . S
O1265 Tb1241 2.341 . S
O1265 C1250 1.266 . S
O1266 Tb1241 2.484 . S
O1266 C1251 1.248 . S
O1267 Tb1241 2.440 . S
O1267 C1251 1.266 . S
O1268 Tb1240 2.325 . S
O1268 Tb1241 2.658 . S
O1268 C1258 1.281 . S
O1269 Tb1241 2.409 . S
O1269 C1258 1.254 . S
O1270 Tb1241 2.378 . S
O1270 C1259 1.236 . S
O1271 Tb1240 2.341 . S
O1271 C1259 1.266 . S
H1272 C1244 0.929 . S
H1273 C1245 0.931 . S
H1274 C1247 0.930 . S
H1275 C1248 0.930 . S
H1276 C1253 0.929 . S
H1277 C1254 0.931 . S
H1278 C1256 0.930 . S
H1279 C1257 0.930 . S
Tb1280 C1282 2.809 . S
Tb1280 O1300 2.484 . S
Tb1280 O1301 2.440 . S
Tb1280 O1302 2.658 . S
Tb1280 O1303 2.409 . S
Tb1280 O1304 2.378 . S
Tb1280 O1308 2.325 . S
Tb1280 O1311 2.341 . S
Tb1281 C1291 2.809 . S
Tb1281 O1302 2.325 . S
Tb1281 O1305 2.341 . S
Tb1281 O1306 2.484 . S
Tb1281 O1307 2.440 . S
Tb1281 O1308 2.658 . S
Tb1281 O1309 2.409 . S
Tb1281 O1310 2.378 . S
C1282 Tb1280 2.809 . S
C1282 C1283 1.514 . S
C1282 O1300 1.248 . S
C1282 O1301 1.266 . S
C1283 C1282 1.514 . S
C1283 C1284 1.359 . S
C1283 C1288 1.348 . S
C1284 C1283 1.359 . S
C1284 C1285 1.380 . S
C1284 H1312 0.929 . S
C1285 C1284 1.380 . S
C1285 C1286 1.347 . S
C1285 H1313 0.931 . S
C1286 C1285 1.347 . S
C1286 C1287 1.369 . S
C1287 C1286 1.369 . S
C1287 C1288 1.408 . S
C1287 H1314 0.930 . S
C1288 C1283 1.348 . S
C1288 C1287 1.408 . S
C1288 H1315 0.930 . S
C1289 O1302 1.281 . S
C1289 O1303 1.254 . S
C1290 O1304 1.236 . S
C1290 O1305 1.266 . S
C1291 Tb1281 2.809 . S
C1291 C1292 1.514 . S
C1291 O1306 1.248 . S
C1291 O1307 1.266 . S
C1292 C1291 1.514 . S
C1292 C1293 1.359 . S
C1292 C1297 1.348 . S
C1293 C1292 1.359 . S
C1293 C1294 1.380 . S
C1293 H1316 0.929 . S
C1294 C1293 1.380 . S
C1294 C1295 1.347 . S
C1294 H1317 0.931 . S
C1295 C1294 1.347 . S
C1295 C1296 1.369 . S
C1296 C1295 1.369 . S
C1296 C1297 1.408 . S
C1296 H1318 0.930 . S
C1297 C1292 1.348 . S
C1297 C1296 1.408 . S
C1297 H1319 0.930 . S
C1298 O1308 1.281 . S
C1298 O1309 1.254 . S
C1299 O1310 1.236 . S
C1299 O1311 1.266 . S
O1300 Tb1280 2.484 . S
O1300 C1282 1.248 . S
O1301 Tb1280 2.440 . S
O1301 C1282 1.266 . S
O1302 Tb1280 2.658 . S
O1302 Tb1281 2.325 . S
O1302 C1289 1.281 . S
O1303 Tb1280 2.409 . S
O1303 C1289 1.254 . S
O1304 Tb1280 2.378 . S
O1304 C1290 1.236 . S
O1305 Tb1281 2.341 . S
O1305 C1290 1.266 . S
O1306 Tb1281 2.484 . S
O1306 C1291 1.248 . S
O1307 Tb1281 2.440 . S
O1307 C1291 1.266 . S
O1308 Tb1280 2.325 . S
O1308 Tb1281 2.658 . S
O1308 C1298 1.281 . S
O1309 Tb1281 2.409 . S
O1309 C1298 1.254 . S
O1310 Tb1281 2.378 . S
O1310 C1299 1.236 . S
O1311 Tb1280 2.341 . S
O1311 C1299 1.266 . S
H1312 C1284 0.929 . S
H1313 C1285 0.931 . S
H1314 C1287 0.930 . S
H1315 C1288 0.930 . S
H1316 C1293 0.929 . S
H1317 C1294 0.931 . S
H1318 C1296 0.930 . S
H1319 C1297 0.930 . S
Tb1320 C1322 2.809 . S
Tb1320 O1340 2.484 . S
Tb1320 O1341 2.440 . S
Tb1320 O1342 2.658 . S
Tb1320 O1343 2.409 . S
Tb1320 O1344 2.378 . S
Tb1320 O1348 2.325 . S
Tb1320 O1351 2.341 . S
Tb1321 C1331 2.809 . S
Tb1321 O1342 2.325 . S
Tb1321 O1345 2.341 . S
Tb1321 O1346 2.484 . S
Tb1321 O1347 2.440 . S
Tb1321 O1348 2.658 . S
Tb1321 O1349 2.409 . S
Tb1321 O1350 2.378 . S
C1322 Tb1320 2.809 . S
C1322 C1323 1.514 . S
C1322 O1340 1.248 . S
C1322 O1341 1.266 . S
C1323 C1322 1.514 . S
C1323 C1324 1.359 . S
C1323 C1328 1.348 . S
C1324 C1323 1.359 . S
C1324 C1325 1.380 . S
C1324 H1352 0.929 . S
C1325 C1324 1.380 . S
C1325 C1326 1.347 . S
C1325 H1353 0.931 . S
C1326 C1325 1.347 . S
C1326 C1327 1.369 . S
C1327 C1326 1.369 . S
C1327 C1328 1.408 . S
C1327 H1354 0.930 . S
C1328 C1323 1.348 . S
C1328 C1327 1.408 . S
C1328 H1355 0.930 . S
C1329 O1342 1.281 . S
C1329 O1343 1.254 . S
C1330 O1344 1.236 . S
C1330 O1345 1.266 . S
C1331 Tb1321 2.809 . S
C1331 C1332 1.514 . S
C1331 O1346 1.248 . S
C1331 O1347 1.266 . S
C1332 C1331 1.514 . S
C1332 C1333 1.364 . S
C1332 C1337 1.348 . S
C1333 C1332 1.364 . S
C1333 C1334 1.379 1_455 S
C1333 H1356 0.925 1_455 S
C1334 C1333 1.379 1_655 S
C1334 C1335 1.347 1_655 S
C1334 H1357 0.931 . S
C1335 C1334 1.347 1_455 S
C1335 C1336 1.369 . S
C1336 C1335 1.369 . S
C1336 C1337 1.408 . S
C1336 H1358 0.930 . S
C1337 C1332 1.348 . S
C1337 C1336 1.408 . S
C1337 H1359 0.930 . S
C1338 O1348 1.281 . S
C1338 O1349 1.254 . S
C1339 O1350 1.236 . S
C1339 O1351 1.266 . S
O1340 Tb1320 2.484 . S
O1340 C1322 1.248 . S
O1341 Tb1320 2.440 . S
O1341 C1322 1.266 . S
O1342 Tb1320 2.658 . S
O1342 Tb1321 2.325 . S
O1342 C1329 1.281 . S
O1343 Tb1320 2.409 . S
O1343 C1329 1.254 . S
O1344 Tb1320 2.378 . S
O1344 C1330 1.236 . S
O1345 Tb1321 2.341 . S
O1345 C1330 1.266 . S
O1346 Tb1321 2.484 . S
O1346 C1331 1.248 . S
O1347 Tb1321 2.440 . S
O1347 C1331 1.266 . S
O1348 Tb1320 2.325 . S
O1348 Tb1321 2.658 . S
O1348 C1338 1.281 . S
O1349 Tb1321 2.409 . S
O1349 C1338 1.254 . S
O1350 Tb1321 2.378 . S
O1350 C1339 1.236 . S
O1351 Tb1320 2.341 . S
O1351 C1339 1.266 . S
H1352 C1324 0.929 . S
H1353 C1325 0.931 . S
H1354 C1327 0.930 . S
H1355 C1328 0.930 . S
H1356 C1333 0.925 1_655 S
H1357 C1334 0.931 . S
H1358 C1336 0.930 . S
H1359 C1337 0.930 . S
Tb1360 C1362 2.809 . S
Tb1360 O1380 2.484 . S
Tb1360 O1381 2.440 . S
Tb1360 O1382 2.658 . S
Tb1360 O1383 2.409 . S
Tb1360 O1384 2.378 . S
Tb1360 O1388 2.325 . S
Tb1360 O1391 2.341 . S
Tb1361 C1371 2.809 . S
Tb1361 O1382 2.325 . S
Tb1361 O1385 2.341 . S
Tb1361 O1386 2.484 . S
Tb1361 O1387 2.440 . S
Tb1361 O1388 2.658 . S
Tb1361 O1389 2.409 . S
Tb1361 O1390 2.378 . S
C1362 Tb1360 2.809 . S
C1362 C1363 1.514 . S
C1362 O1380 1.248 . S
C1362 O1381 1.266 . S
C1363 C1362 1.514 . S
C1363 C1364 1.359 . S
C1363 C1368 1.348 . S
C1364 C1363 1.359 . S
C1364 C1365 1.380 . S
C1364 H1392 0.929 . S
C1365 C1364 1.380 . S
C1365 C1366 1.347 . S
C1365 H1393 0.931 . S
C1366 C1365 1.347 . S
C1366 C1367 1.369 . S
C1367 C1366 1.369 . S
C1367 C1368 1.408 . S
C1367 H1394 0.930 . S
C1368 C1363 1.348 . S
C1368 C1367 1.408 . S
C1368 H1395 0.930 . S
C1369 O1382 1.281 . S
C1369 O1383 1.254 . S
C1370 O1384 1.236 . S
C1370 O1385 1.266 . S
C1371 Tb1361 2.809 . S
C1371 C1372 1.514 . S
C1371 O1386 1.248 . S
C1371 O1387 1.266 . S
C1372 C1371 1.514 . S
C1372 C1373 1.359 . S
C1372 C1377 1.348 . S
C1373 C1372 1.359 . S
C1373 C1374 1.380 . S
C1373 H1396 0.929 . S
C1374 C1373 1.380 . S
C1374 C1375 1.347 . S
C1374 H1397 0.931 . S
C1375 C1374 1.347 . S
C1375 C1376 1.369 . S
C1376 C1375 1.369 . S
C1376 C1377 1.408 . S
C1376 H1398 0.930 . S
C1377 C1372 1.348 . S
C1377 C1376 1.408 . S
C1377 H1399 0.930 . S
C1378 O1388 1.281 . S
C1378 O1389 1.254 . S
C1379 O1390 1.236 . S
C1379 O1391 1.266 . S
O1380 Tb1360 2.484 . S
O1380 C1362 1.248 . S
O1381 Tb1360 2.440 . S
O1381 C1362 1.266 . S
O1382 Tb1360 2.658 . S
O1382 Tb1361 2.325 . S
O1382 C1369 1.281 . S
O1383 Tb1360 2.409 . S
O1383 C1369 1.254 . S
O1384 Tb1360 2.378 . S
O1384 C1370 1.236 . S
O1385 Tb1361 2.341 . S
O1385 C1370 1.266 . S
O1386 Tb1361 2.484 . S
O1386 C1371 1.248 . S
O1387 Tb1361 2.440 . S
O1387 C1371 1.266 . S
O1388 Tb1360 2.325 . S
O1388 Tb1361 2.658 . S
O1388 C1378 1.281 . S
O1389 Tb1361 2.409 . S
O1389 C1378 1.254 . S
O1390 Tb1361 2.378 . S
O1390 C1379 1.236 . S
O1391 Tb1360 2.341 . S
O1391 C1379 1.266 . S
H1392 C1364 0.929 . S
H1393 C1365 0.931 . S
H1394 C1367 0.930 . S
H1395 C1368 0.930 . S
H1396 C1373 0.929 . S
H1397 C1374 0.931 . S
H1398 C1376 0.930 . S
H1399 C1377 0.930 . S
Tb1400 C1402 2.809 . S
Tb1400 O1420 2.484 . S
Tb1400 O1421 2.440 . S
Tb1400 O1422 2.658 . S
Tb1400 O1423 2.409 . S
Tb1400 O1424 2.378 . S
Tb1400 O1428 2.325 . S
Tb1400 O1431 2.341 . S
Tb1401 C1411 2.809 . S
Tb1401 O1422 2.325 . S
Tb1401 O1425 2.341 . S
Tb1401 O1426 2.484 . S
Tb1401 O1427 2.440 . S
Tb1401 O1428 2.658 . S
Tb1401 O1429 2.409 . S
Tb1401 O1430 2.378 . S
C1402 Tb1400 2.809 . S
C1402 C1403 1.514 . S
C1402 O1420 1.248 . S
C1402 O1421 1.266 . S
C1403 C1402 1.514 . S
C1403 C1404 1.359 . S
C1403 C1408 1.348 . S
C1404 C1403 1.359 . S
C1404 C1405 1.380 . S
C1404 H1432 0.929 . S
C1405 C1404 1.380 . S
C1405 C1406 1.347 . S
C1405 H1433 0.931 . S
C1406 C1405 1.347 . S
C1406 C1407 1.369 . S
C1407 C1406 1.369 . S
C1407 C1408 1.408 . S
C1407 H1434 0.930 . S
C1408 C1403 1.348 . S
C1408 C1407 1.408 . S
C1408 H1435 0.930 . S
C1409 O1422 1.281 . S
C1409 O1423 1.254 . S
C1410 O1424 1.236 . S
C1410 O1425 1.266 . S
C1411 Tb1401 2.809 . S
C1411 C1412 1.514 . S
C1411 O1426 1.248 . S
C1411 O1427 1.266 . S
C1412 C1411 1.514 . S
C1412 C1413 1.369 . S
C1412 C1417 1.348 . S
C1413 C1412 1.369 . S
C1413 C1414 1.371 1_565 S
C1413 H1436 0.927 1_565 S
C1414 C1413 1.371 1_545 S
C1414 C1415 1.347 1_545 S
C1414 H1437 0.931 . S
C1415 C1414 1.347 1_565 S
C1415 C1416 1.369 . S
C1416 C1415 1.369 . S
C1416 C1417 1.408 . S
C1416 H1438 0.930 . S
C1417 C1412 1.348 . S
C1417 C1416 1.408 . S
C1417 H1439 0.930 . S
C1418 O1428 1.281 . S
C1418 O1429 1.254 . S
C1419 O1430 1.236 . S
C1419 O1431 1.266 . S
O1420 Tb1400 2.484 . S
O1420 C1402 1.248 . S
O1421 Tb1400 2.440 . S
O1421 C1402 1.266 . S
O1422 Tb1400 2.658 . S
O1422 Tb1401 2.325 . S
O1422 C1409 1.281 . S
O1423 Tb1400 2.409 . S
O1423 C1409 1.254 . S
O1424 Tb1400 2.378 . S
O1424 C1410 1.236 . S
O1425 Tb1401 2.341 . S
O1425 C1410 1.266 . S
O1426 Tb1401 2.484 . S
O1426 C1411 1.248 . S
O1427 Tb1401 2.440 . S
O1427 C1411 1.266 . S
O1428 Tb1400 2.325 . S
O1428 Tb1401 2.658 . S
O1428 C1418 1.281 . S
O1429 Tb1401 2.409 . S
O1429 C1418 1.254 . S
O1430 Tb1401 2.378 . S
O1430 C1419 1.236 . S
O1431 Tb1400 2.341 . S
O1431 C1419 1.266 . S
H1432 C1404 0.929 . S
H1433 C1405 0.931 . S
H1434 C1407 0.930 . S
H1435 C1408 0.930 . S
H1436 C1413 0.927 1_545 S
H1437 C1414 0.931 . S
H1438 C1416 0.930 . S
H1439 C1417 0.930 . S
H1440 C1446 0.930 . S
H1441 C1449 0.930 . S
H1442 C1450 0.930 . S
H1443 C1451 0.930 . S
H1444 C1454 0.930 . S
H1445 C1455 0.930 . S
C1446 H1440 0.930 . S
C1446 C1447 1.355 . S
C1446 C1448 1.415 . S
C1447 C1446 1.355 . S
C1447 C1449 1.419 . S
C1448 C1446 1.415 . S
C1448 C1453 1.425 . S
C1448 C1455 1.409 . S
C1449 H1441 0.930 . S
C1449 C1447 1.419 . S
C1449 C1450 1.362 . S
C1450 H1442 0.930 . S
C1450 C1449 1.362 . S
C1450 C1453 1.409 . S
C1451 H1443 0.930 . S
C1451 C1452 1.355 1_545 S
C1451 C1453 1.415 . S
C1452 C1451 1.355 1_565 S
C1452 C1454 1.419 . S
C1453 C1448 1.425 . S
C1453 C1450 1.409 . S
C1453 C1451 1.415 . S
C1454 H1444 0.930 . S
C1454 C1452 1.419 . S
C1454 C1455 1.362 1_565 S
C1455 H1445 0.930 . S
C1455 C1448 1.409 . S
C1455 C1454 1.362 1_545 S
H1456 C1462 0.930 . S
H1457 C1465 0.930 1_455 S
H1458 C1466 0.930 . S
H1459 C1467 0.930 . S
H1460 C1470 0.930 . S
H1461 C1471 0.930 . S
C1462 H1456 0.930 . S
C1462 C1463 1.355 1_655 S
C1462 C1464 1.415 . S
C1463 C1462 1.355 1_455 S
C1463 C1465 1.419 1_455 S
C1464 C1462 1.415 . S
C1464 C1469 1.425 . S
C1464 C1471 1.409 . S
C1465 H1457 0.930 1_655 S
C1465 C1463 1.419 1_655 S
C1465 C1466 1.362 . S
C1466 H1458 0.930 . S
C1466 C1465 1.362 . S
C1466 C1469 1.409 . S
C1467 H1459 0.930 . S
C1467 C1468 1.355 . S
C1467 C1469 1.415 . S
C1468 C1467 1.355 . S
C1468 C1470 1.419 . S
C1469 C1464 1.425 . S
C1469 C1466 1.409 . S
C1469 C1467 1.415 . S
C1470 H1460 0.930 . S
C1470 C1468 1.419 . S
C1470 C1471 1.362 . S
C1471 H1461 0.930 . S
C1471 C1464 1.409 . S
C1471 C1470 1.362 . S
H1472 C1478 0.930 . S
H1473 C1481 0.930 1_455 S
H1474 C1482 0.930 . S
H1475 C1483 0.930 . S
H1476 C1486 0.930 . S
H1477 C1487 0.930 . S
C1478 H1472 0.930 . S
C1478 C1479 1.355 . S
C1478 C1480 1.415 . S
C1479 C1478 1.355 . S
C1479 C1481 1.419 . S
C1480 C1478 1.415 . S
C1480 C1485 1.425 . S
C1480 C1487 1.409 . S
C1481 H1473 0.930 1_655 S
C1481 C1479 1.419 . S
C1481 C1482 1.362 . S
C1482 H1474 0.930 . S
C1482 C1481 1.362 . S
C1482 C1485 1.409 . S
C1483 H1475 0.930 . S
C1483 C1484 1.355 . S
C1483 C1485 1.415 . S
C1484 C1483 1.355 . S
C1484 C1486 1.419 . S
C1485 C1480 1.425 . S
C1485 C1482 1.409 . S
C1485 C1483 1.415 . S
C1486 H1476 0.930 . S
C1486 C1484 1.419 . S
C1486 C1487 1.362 . S
C1487 H1477 0.930 . S
C1487 C1480 1.409 . S
C1487 C1486 1.362 . S
H1488 C1494 0.930 . S
H1489 C1497 0.930 . S
H1490 C1498 0.930 . S
H1491 C1499 0.930 1_655 S
H1492 C1502 0.930 . S
H1493 C1503 0.930 . S
C1494 H1488 0.930 . S
C1494 C1495 1.355 . S
C1494 C1496 1.415 . S
C1495 C1494 1.355 . S
C1495 C1497 1.419 . S
C1496 C1494 1.415 . S
C1496 C1501 1.425 . S
C1496 C1503 1.409 . S
C1497 H1489 0.930 . S
C1497 C1495 1.419 . S
C1497 C1498 1.362 . S
C1498 H1490 0.930 . S
C1498 C1497 1.362 . S
C1498 C1501 1.409 . S
C1499 H1491 0.930 1_455 S
C1499 C1500 1.355 1_455 S
C1499 C1501 1.415 . S
C1500 C1499 1.355 1_655 S
C1500 C1502 1.419 1_655 S
C1501 C1496 1.425 . S
C1501 C1498 1.409 . S
C1501 C1499 1.415 . S
C1502 H1492 0.930 . S
C1502 C1500 1.419 1_455 S
C1502 C1503 1.362 . S
C1503 H1493 0.930 . S
C1503 C1496 1.409 . S
C1503 C1502 1.362 . S
H1504 C1510 0.930 . S
H1505 C1513 0.930 . S
H1506 C1514 0.930 . S
H1507 C1515 0.930 . S
H1508 C1518 0.930 . S
H1509 C1519 0.930 . S
C1510 H1504 0.930 . S
C1510 C1511 1.355 . S
C1510 C1512 1.415 . S
C1511 C1510 1.355 . S
C1511 C1513 1.419 . S
C1512 C1510 1.415 . S
C1512 C1517 1.425 . S
C1512 C1519 1.409 . S
C1513 H1505 0.930 . S
C1513 C1511 1.419 . S
C1513 C1514 1.362 . S
C1514 H1506 0.930 . S
C1514 C1513 1.362 . S
C1514 C1517 1.409 . S
C1515 H1507 0.930 . S
C1515 C1516 1.355 . S
C1515 C1517 1.415 . S
C1516 C1515 1.355 . S
C1516 C1518 1.419 . S
C1517 C1512 1.425 . S
C1517 C1514 1.409 . S
C1517 C1515 1.415 . S
C1518 H1508 0.930 . S
C1518 C1516 1.419 . S
C1518 C1519 1.362 . S
C1519 H1509 0.930 . S
C1519 C1512 1.409 . S
C1519 C1518 1.362 . S
H1520 C1526 0.930 . S
H1521 C1529 0.930 1_655 S
H1522 C1530 0.930 . S
H1523 C1531 0.930 1_545 S
H1524 C1534 0.930 . S
H1525 C1535 0.930 . S
C1526 H1520 0.930 . S
C1526 C1527 1.355 . S
C1526 C1528 1.415 . S
C1527 C1526 1.355 . S
C1527 C1529 1.419 . S
C1528 C1526 1.415 . S
C1528 C1533 1.425 . S
C1528 C1535 1.409 . S
C1529 H1521 0.930 1_455 S
C1529 C1527 1.419 . S
C1529 C1530 1.362 . S
C1530 H1522 0.930 . S
C1530 C1529 1.362 . S
C1530 C1533 1.409 . S
C1531 H1523 0.930 1_565 S
C1531 C1532 1.355 1_565 S
C1531 C1533 1.415 . S
C1532 C1531 1.355 1_545 S
C1532 C1534 1.419 1_545 S
C1533 C1528 1.425 . S
C1533 C1530 1.409 . S
C1533 C1531 1.415 . S
C1534 H1524 0.930 . S
C1534 C1532 1.419 1_565 S
C1534 C1535 1.362 . S
C1535 H1525 0.930 . S
C1535 C1528 1.409 . S
C1535 C1534 1.362 . S
H1536 C1542 0.930 . S
H1537 C1545 0.930 . S
H1538 C1546 0.930 . S
H1539 C1547 0.930 . S
H1540 C1550 0.930 1_545 S
H1541 C1551 0.930 . S
C1542 H1536 0.930 . S
C1542 C1543 1.355 . S
C1542 C1544 1.415 . S
C1543 C1542 1.355 . S
C1543 C1545 1.419 . S
C1544 C1542 1.415 . S
C1544 C1549 1.425 . S
C1544 C1551 1.409 . S
C1545 H1537 0.930 . S
C1545 C1543 1.419 . S
C1545 C1546 1.362 . S
C1546 H1538 0.930 . S
C1546 C1545 1.362 . S
C1546 C1549 1.409 . S
C1547 H1539 0.930 . S
C1547 C1548 1.355 1_565 S
C1547 C1549 1.415 . S
C1548 C1547 1.355 1_545 S
C1548 C1550 1.419 1_545 S
C1549 C1544 1.425 . S
C1549 C1546 1.409 . S
C1549 C1547 1.415 . S
C1550 H1540 0.930 1_565 S
C1550 C1548 1.419 1_565 S
C1550 C1551 1.362 . S
C1551 H1541 0.930 . S
C1551 C1544 1.409 . S
C1551 C1550 1.362 . S
H1552 C1558 0.930 . S
H1553 C1561 0.930 1_545 S
H1554 C1562 0.930 . S
H1555 C1563 0.930 1_655 S
H1556 C1566 0.930 . S
H1557 C1567 0.930 . S
C1558 H1552 0.930 . S
C1558 C1559 1.355 . S
C1558 C1560 1.415 . S
C1559 C1558 1.355 . S
C1559 C1561 1.419 . S
C1560 C1558 1.415 . S
C1560 C1565 1.425 . S
C1560 C1567 1.409 . S
C1561 H1553 0.930 1_565 S
C1561 C1559 1.419 . S
C1561 C1562 1.362 . S
C1562 H1554 0.930 . S
C1562 C1561 1.362 . S
C1562 C1565 1.409 . S
C1563 H1555 0.930 1_455 S
C1563 C1564 1.355 1_455 S
C1563 C1565 1.415 . S
C1564 C1563 1.355 1_655 S
C1564 C1566 1.419 1_655 S
C1565 C1560 1.425 . S
C1565 C1562 1.409 . S
C1565 C1563 1.415 . S
C1566 H1556 0.930 . S
C1566 C1564 1.419 1_455 S
C1566 C1567 1.362 . S
C1567 H1557 0.930 . S
C1567 C1560 1.409 . S
C1567 C1566 1.362 . S
H1568 C1574 0.930 . S
H1569 C1577 0.930 . S
H1570 C1578 0.930 . S
H1571 C1579 0.930 . S
H1572 C1582 0.930 . S
H1573 C1583 0.930 . S
C1574 H1568 0.930 . S
C1574 C1575 1.355 . S
C1574 C1576 1.415 . S
C1575 C1574 1.355 . S
C1575 C1577 1.419 . S
C1576 C1574 1.415 . S
C1576 C1581 1.425 . S
C1576 C1583 1.409 . S
C1577 H1569 0.930 . S
C1577 C1575 1.419 . S
C1577 C1578 1.362 . S
C1578 H1570 0.930 . S
C1578 C1577 1.362 . S
C1578 C1581 1.409 . S
C1579 H1571 0.930 . S
C1579 C1580 1.355 . S
C1579 C1581 1.415 . S
C1580 C1579 1.355 . S
C1580 C1582 1.419 . S
C1581 C1576 1.425 . S
C1581 C1578 1.409 . S
C1581 C1579 1.415 . S
C1582 H1572 0.930 . S
C1582 C1580 1.419 . S
C1582 C1583 1.362 . S
C1583 H1573 0.930 . S
C1583 C1576 1.409 . S
C1583 C1582 1.362 . S
H1584 C1590 0.930 . S
H1585 C1593 0.930 . S
H1586 C1594 0.930 . S
H1587 C1595 0.930 . S
H1588 C1598 0.930 1_455 S
H1589 C1599 0.930 . S
C1590 H1584 0.930 . S
C1590 C1591 1.355 . S
C1590 C1592 1.415 . S
C1591 C1590 1.355 . S
C1591 C1593 1.419 . S
C1592 C1590 1.415 . S
C1592 C1597 1.425 . S
C1592 C1599 1.409 . S
C1593 H1585 0.930 . S
C1593 C1591 1.419 . S
C1593 C1594 1.362 . S
C1594 H1586 0.930 . S
C1594 C1593 1.362 . S
C1594 C1597 1.409 . S
C1595 H1587 0.930 . S
C1595 C1596 1.355 1_655 S
C1595 C1597 1.415 . S
C1596 C1595 1.355 1_455 S
C1596 C1598 1.419 1_455 S
C1597 C1592 1.425 . S
C1597 C1594 1.409 . S
C1597 C1595 1.415 . S
C1598 H1588 0.930 1_655 S
C1598 C1596 1.419 1_655 S
C1598 C1599 1.362 . S
C1599 H1589 0.930 . S
C1599 C1592 1.409 . S
C1599 C1598 1.362 . S
H1600 C1606 0.930 . S
H1601 C1609 0.930 . S
H1602 C1610 0.930 . S
H1603 C1611 0.930 . S
H1604 C1614 0.930 . S
H1605 C1615 0.930 . S
C1606 H1600 0.930 . S
C1606 C1607 1.355 . S
C1606 C1608 1.415 . S
C1607 C1606 1.355 . S
C1607 C1609 1.419 . S
C1608 C1606 1.415 . S
C1608 C1613 1.425 . S
C1608 C1615 1.409 . S
C1609 H1601 0.930 . S
C1609 C1607 1.419 . S
C1609 C1610 1.362 . S
C1610 H1602 0.930 . S
C1610 C1609 1.362 . S
C1610 C1613 1.409 . S
C1611 H1603 0.930 . S
C1611 C1612 1.355 . S
C1611 C1613 1.415 . S
C1612 C1611 1.355 . S
C1612 C1614 1.419 . S
C1613 C1608 1.425 . S
C1613 C1610 1.409 . S
C1613 C1611 1.415 . S
C1614 H1604 0.930 . S
C1614 C1612 1.419 . S
C1614 C1615 1.362 . S
C1615 H1605 0.930 . S
C1615 C1608 1.409 . S
C1615 C1614 1.362 . S
H1616 C1622 0.930 . S
H1617 C1625 0.930 . S
H1618 C1626 0.930 . S
H1619 C1627 0.930 . S
H1620 C1630 0.930 . S
H1621 C1631 0.930 . S
C1622 H1616 0.930 . S
C1622 C1623 1.355 1_545 S
C1622 C1624 1.415 . S
C1623 C1622 1.355 1_565 S
C1623 C1625 1.419 . S
C1624 C1622 1.415 . S
C1624 C1629 1.425 . S
C1624 C1631 1.409 . S
C1625 H1617 0.930 . S
C1625 C1623 1.419 . S
C1625 C1626 1.362 1_565 S
C1626 H1618 0.930 . S
C1626 C1625 1.362 1_545 S
C1626 C1629 1.409 . S
C1627 H1619 0.930 . S
C1627 C1628 1.355 . S
C1627 C1629 1.415 . S
C1628 C1627 1.355 . S
C1628 C1630 1.419 . S
C1629 C1624 1.425 . S
C1629 C1626 1.409 . S
C1629 C1627 1.415 . S
C1630 H1620 0.930 . S
C1630 C1628 1.419 . S
C1630 C1631 1.362 . S
C1631 H1621 0.930 . S
C1631 C1624 1.409 . S
C1631 C1630 1.362 . S
H1632 C1638 0.930 . S
H1633 C1641 0.930 . S
H1634 C1642 0.930 . S
H1635 C1643 0.930 . S
H1636 C1646 0.930 . S
H1637 C1647 0.930 . S
C1638 H1632 0.930 . S
C1638 C1639 1.355 . S
C1638 C1640 1.415 . S
C1639 C1638 1.355 . S
C1639 C1641 1.419 . S
C1640 C1638 1.415 . S
C1640 C1645 1.425 . S
C1640 C1647 1.409 . S
C1641 H1633 0.930 . S
C1641 C1639 1.419 . S
C1641 C1642 1.362 . S
C1642 H1634 0.930 . S
C1642 C1641 1.362 . S
C1642 C1645 1.409 . S
C1643 H1635 0.930 . S
C1643 C1644 1.355 . S
C1643 C1645 1.415 . S
C1644 C1643 1.355 . S
C1644 C1646 1.419 . S
C1645 C1640 1.425 . S
C1645 C1642 1.409 . S
C1645 C1643 1.415 . S
C1646 H1636 0.930 . S
C1646 C1644 1.419 . S
C1646 C1647 1.362 . S
C1647 H1637 0.930 . S
C1647 C1640 1.409 . S
C1647 C1646 1.362 . S
H1648 C1654 0.930 . S
H1649 C1657 0.930 . S
H1650 C1658 0.930 . S
H1651 C1659 0.930 . S
H1652 C1662 0.930 . S
H1653 C1663 0.930 . S
C1654 H1648 0.930 . S
C1654 C1655 1.355 . S
C1654 C1656 1.415 . S
C1655 C1654 1.355 . S
C1655 C1657 1.419 . S
C1656 C1654 1.415 . S
C1656 C1661 1.425 . S
C1656 C1663 1.409 . S
C1657 H1649 0.930 . S
C1657 C1655 1.419 . S
C1657 C1658 1.362 . S
C1658 H1650 0.930 . S
C1658 C1657 1.362 . S
C1658 C1661 1.409 . S
C1659 H1651 0.930 . S
C1659 C1660 1.355 . S
C1659 C1661 1.415 . S
C1660 C1659 1.355 . S
C1660 C1662 1.419 . S
C1661 C1656 1.425 . S
C1661 C1658 1.409 . S
C1661 C1659 1.415 . S
C1662 H1652 0.930 . S
C1662 C1660 1.419 . S
C1662 C1663 1.362 . S
C1663 H1653 0.930 . S
C1663 C1656 1.409 . S
C1663 C1662 1.362 . S
H1664 C1670 0.930 . S
H1665 C1673 0.930 . S
H1666 C1674 0.930 . S
H1667 C1675 0.930 . S
H1668 C1678 0.930 . S
H1669 C1679 0.930 . S
C1670 H1664 0.930 . S
C1670 C1671 1.355 . S
C1670 C1672 1.415 . S
C1671 C1670 1.355 . S
C1671 C1673 1.419 . S
C1672 C1670 1.415 . S
C1672 C1677 1.425 . S
C1672 C1679 1.409 . S
C1673 H1665 0.930 . S
C1673 C1671 1.419 . S
C1673 C1674 1.362 . S
C1674 H1666 0.930 . S
C1674 C1673 1.362 . S
C1674 C1677 1.409 . S
C1675 H1667 0.930 . S
C1675 C1676 1.355 . S
C1675 C1677 1.415 . S
C1676 C1675 1.355 . S
C1676 C1678 1.419 . S
C1677 C1672 1.425 . S
C1677 C1674 1.409 . S
C1677 C1675 1.415 . S
C1678 H1668 0.930 . S
C1678 C1676 1.419 . S
C1678 C1679 1.362 . S
C1679 H1669 0.930 . S
C1679 C1672 1.409 . S
C1679 C1678 1.362 . S
H1680 C1686 0.930 . S
H1681 C1689 0.930 . S
H1682 C1690 0.930 . S
H1683 C1691 0.930 . S
H1684 C1694 0.930 . S
H1685 C1695 0.930 . S
C1686 H1680 0.930 . S
C1686 C1687 1.355 . S
C1686 C1688 1.415 . S
C1687 C1686 1.355 . S
C1687 C1689 1.419 . S
C1688 C1686 1.415 . S
C1688 C1693 1.425 . S
C1688 C1695 1.409 . S
C1689 H1681 0.930 . S
C1689 C1687 1.419 . S
C1689 C1690 1.362 . S
C1690 H1682 0.930 . S
C1690 C1689 1.362 . S
C1690 C1693 1.409 . S
C1691 H1683 0.930 . S
C1691 C1692 1.355 . S
C1691 C1693 1.415 . S
C1692 C1691 1.355 . S
C1692 C1694 1.419 . S
C1693 C1688 1.425 . S
C1693 C1690 1.409 . S
C1693 C1691 1.415 . S
C1694 H1684 0.930 . S
C1694 C1692 1.419 . S
C1694 C1695 1.362 . S
C1695 H1685 0.930 . S
C1695 C1688 1.409 . S
C1695 C1694 1.362 . S
H1696 C1702 0.930 . S
H1697 C1705 0.930 . S
H1698 C1706 0.930 . S
H1699 C1707 0.930 . S
H1700 C1710 0.930 . S
H1701 C1711 0.930 . S
C1702 H1696 0.930 . S
C1702 C1703 1.355 . S
C1702 C1704 1.415 . S
C1703 C1702 1.355 . S
C1703 C1705 1.419 . S
C1704 C1702 1.415 . S
C1704 C1709 1.425 . S
C1704 C1711 1.409 . S
C1705 H1697 0.930 . S
C1705 C1703 1.419 . S
C1705 C1706 1.362 . S
C1706 H1698 0.930 . S
C1706 C1705 1.362 . S
C1706 C1709 1.409 . S
C1707 H1699 0.930 . S
C1707 C1708 1.355 . S
C1707 C1709 1.415 . S
C1708 C1707 1.355 . S
C1708 C1710 1.419 . S
C1709 C1704 1.425 . S
C1709 C1706 1.409 . S
C1709 C1707 1.415 . S
C1710 H1700 0.930 . S
C1710 C1708 1.419 . S
C1710 C1711 1.362 . S
C1711 H1701 0.930 . S
C1711 C1704 1.409 . S
C1711 C1710 1.362 . S
H1712 C1718 0.930 . S
H1713 C1721 0.930 . S
H1714 C1722 0.930 . S
H1715 C1723 0.930 . S
H1716 C1726 0.930 . S
H1717 C1727 0.930 . S
C1718 H1712 0.930 . S
C1718 C1719 1.355 . S
C1718 C1720 1.415 . S
C1719 C1718 1.355 . S
C1719 C1721 1.419 . S
C1720 C1718 1.415 . S
C1720 C1725 1.425 . S
C1720 C1727 1.409 . S
C1721 H1713 0.930 . S
C1721 C1719 1.419 . S
C1721 C1722 1.362 . S
C1722 H1714 0.930 . S
C1722 C1721 1.362 . S
C1722 C1725 1.409 . S
C1723 H1715 0.930 . S
C1723 C1724 1.355 . S
C1723 C1725 1.415 . S
C1724 C1723 1.355 . S
C1724 C1726 1.419 . S
C1725 C1720 1.425 . S
C1725 C1722 1.409 . S
C1725 C1723 1.415 . S
C1726 H1716 0.930 . S
C1726 C1724 1.419 . S
C1726 C1727 1.362 . S
C1727 H1717 0.930 . S
C1727 C1720 1.409 . S
C1727 C1726 1.362 . S
H1728 C1734 0.930 . S
H1729 C1737 0.930 . S
H1730 C1738 0.930 . S
H1731 C1739 0.930 . S
H1732 C1742 0.930 . S
H1733 C1743 0.930 . S
C1734 H1728 0.930 . S
C1734 C1735 1.355 . S
C1734 C1736 1.415 . S
C1735 C1734 1.355 . S
C1735 C1737 1.419 . S
C1736 C1734 1.415 . S
C1736 C1741 1.425 . S
C1736 C1743 1.409 . S
C1737 H1729 0.930 . S
C1737 C1735 1.419 . S
C1737 C1738 1.362 . S
C1738 H1730 0.930 . S
C1738 C1737 1.362 . S
C1738 C1741 1.409 . S
C1739 H1731 0.930 . S
C1739 C1740 1.355 . S
C1739 C1741 1.415 . S
C1740 C1739 1.355 . S
C1740 C1742 1.419 . S
C1741 C1736 1.425 . S
C1741 C1738 1.409 . S
C1741 C1739 1.415 . S
C1742 H1732 0.930 . S
C1742 C1740 1.419 . S
C1742 C1743 1.362 . S
C1743 H1733 0.930 . S
C1743 C1736 1.409 . S
C1743 C1742 1.362 . S
H1744 C1750 0.930 . S
H1745 C1753 0.930 . S
H1746 C1754 0.930 . S
H1747 C1755 0.930 . S
H1748 C1758 0.930 . S
H1749 C1759 0.930 . S
C1750 H1744 0.930 . S
C1750 C1751 1.355 . S
C1750 C1752 1.415 . S
C1751 C1750 1.355 . S
C1751 C1753 1.419 . S
C1752 C1750 1.415 . S
C1752 C1757 1.425 . S
C1752 C1759 1.409 . S
C1753 H1745 0.930 . S
C1753 C1751 1.419 . S
C1753 C1754 1.362 . S
C1754 H1746 0.930 . S
C1754 C1753 1.362 . S
C1754 C1757 1.409 . S
C1755 H1747 0.930 . S
C1755 C1756 1.355 . S
C1755 C1757 1.415 . S
C1756 C1755 1.355 . S
C1756 C1758 1.419 . S
C1757 C1752 1.425 . S
C1757 C1754 1.409 . S
C1757 C1755 1.415 . S
C1758 H1748 0.930 . S
C1758 C1756 1.419 . S
C1758 C1759 1.362 . S
C1759 H1749 0.930 . S
C1759 C1752 1.409 . S
C1759 C1758 1.362 . S
H1760 C1766 0.930 . S
H1761 C1769 0.930 . S
H1762 C1770 0.930 . S
H1763 C1771 0.930 . S
H1764 C1774 0.930 . S
H1765 C1775 0.930 . S
C1766 H1760 0.930 . S
C1766 C1767 1.355 . S
C1766 C1768 1.415 . S
C1767 C1766 1.355 . S
C1767 C1769 1.419 . S
C1768 C1766 1.415 . S
C1768 C1773 1.425 . S
C1768 C1775 1.409 . S
C1769 H1761 0.930 . S
C1769 C1767 1.419 . S
C1769 C1770 1.362 . S
C1770 H1762 0.930 . S
C1770 C1769 1.362 . S
C1770 C1773 1.409 . S
C1771 H1763 0.930 . S
C1771 C1772 1.355 . S
C1771 C1773 1.415 . S
C1772 C1771 1.355 . S
C1772 C1774 1.419 . S
C1773 C1768 1.425 . S
C1773 C1770 1.409 . S
C1773 C1771 1.415 . S
C1774 H1764 0.930 . S
C1774 C1772 1.419 . S
C1774 C1775 1.362 . S
C1775 H1765 0.930 . S
C1775 C1768 1.409 . S
C1775 C1774 1.362 . S
H1776 C1782 0.926 1_556 S
H1777 C1785 0.930 . S
H1778 C1786 0.930 . S
H1779 C1787 0.930 . S
H1780 C1790 0.930 . S
H1781 C1791 0.930 . S
C1782 H1776 0.926 1_554 S
C1782 C1783 1.358 . S
C1782 C1784 1.414 . S
C1783 C1782 1.358 . S
C1783 C1785 1.419 . S
C1784 C1782 1.414 . S
C1784 C1789 1.449 . S
C1784 C1791 1.390 1_554 S
C1785 H1777 0.930 . S
C1785 C1783 1.419 . S
C1785 C1786 1.362 . S
C1786 H1778 0.930 . S
C1786 C1785 1.362 . S
C1786 C1789 1.409 . S
C1787 H1779 0.930 . S
C1787 C1788 1.355 . S
C1787 C1789 1.415 . S
C1788 C1787 1.355 . S
C1788 C1790 1.419 1_554 S
C1789 C1784 1.449 . S
C1789 C1786 1.409 . S
C1789 C1787 1.415 . S
C1790 H1780 0.930 . S
C1790 C1788 1.419 1_556 S
C1790 C1791 1.362 . S
C1791 H1781 0.930 . S
C1791 C1784 1.390 1_556 S
C1791 C1790 1.362 . S
H1792 C1798 0.946 . S
H1793 C1801 0.930 . S
H1794 C1802 0.930 . S
H1795 C1803 0.930 . S
H1796 C1806 0.930 . S
H1797 C1807 0.941 . S
C1798 H1792 0.946 . S
C1798 C1799 1.355 . S
C1798 C1800 1.415 . S
C1799 C1798 1.355 . S
C1799 C1801 1.419 . S
C1800 C1798 1.415 . S
C1800 C1805 1.425 . S
C1800 C1807 1.409 . S
C1801 H1793 0.930 . S
C1801 C1799 1.419 . S
C1801 C1802 1.362 . S
C1802 H1794 0.930 . S
C1802 C1801 1.362 . S
C1802 C1805 1.409 . S
C1803 H1795 0.930 . S
C1803 C1804 1.355 . S
C1803 C1805 1.415 . S
C1804 C1803 1.355 . S
C1804 C1806 1.419 . S
C1805 C1800 1.425 . S
C1805 C1802 1.409 . S
C1805 C1803 1.415 . S
C1806 H1796 0.930 . S
C1806 C1804 1.419 . S
C1806 C1807 1.362 . S
C1807 H1797 0.941 . S
C1807 C1800 1.409 . S
C1807 C1806 1.362 . S
H1808 C1814 0.930 . S
H1809 C1817 0.930 . S
H1810 C1818 0.930 . S
H1811 C1819 0.930 . S
H1812 C1822 0.930 . S
H1813 C1823 0.930 . S
C1814 H1808 0.930 . S
C1814 C1815 1.355 1_556 S
C1814 C1816 1.415 . S
C1815 C1814 1.355 1_554 S
C1815 C1817 1.419 . S
C1816 C1814 1.415 . S
C1816 C1821 1.425 1_556 S
C1816 C1823 1.409 . S
C1817 H1809 0.930 . S
C1817 C1815 1.419 . S
C1817 C1818 1.362 . S
C1818 H1810 0.930 . S
C1818 C1817 1.362 . S
C1818 C1821 1.409 . S
C1819 H1811 0.930 . S
C1819 C1820 1.384 . S
C1819 C1821 1.415 . S
C1820 C1819 1.384 . S
C1820 C1822 1.387 1_554 S
C1821 C1816 1.425 1_554 S
C1821 C1818 1.409 . S
C1821 C1819 1.415 . S
C1822 H1812 0.930 . S
C1822 C1820 1.387 1_556 S
C1822 C1823 1.362 . S
C1823 H1813 0.930 . S
C1823 C1816 1.409 . S
C1823 C1822 1.362 . S
H1824 C1830 0.930 . S
H1825 C1833 0.930 . S
H1826 C1834 0.930 . S
H1827 C1835 0.930 . S
H1828 C1838 0.930 . S
H1829 C1839 0.930 . S
C1830 H1824 0.930 . S
C1830 C1831 1.355 . S
C1830 C1832 1.415 . S
C1831 C1830 1.355 . S
C1831 C1833 1.419 . S
C1832 C1830 1.415 . S
C1832 C1837 1.425 . S
C1832 C1839 1.409 . S
C1833 H1825 0.930 . S
C1833 C1831 1.419 . S
C1833 C1834 1.362 . S
C1834 H1826 0.930 . S
C1834 C1833 1.362 . S
C1834 C1837 1.409 . S
C1835 H1827 0.930 . S
C1835 C1836 1.355 . S
C1835 C1837 1.415 . S
C1836 C1835 1.355 . S
C1836 C1838 1.419 . S
C1837 C1832 1.425 . S
C1837 C1834 1.409 . S
C1837 C1835 1.415 . S
C1838 H1828 0.930 . S
C1838 C1836 1.419 . S
C1838 C1839 1.362 . S
C1839 H1829 0.930 . S
C1839 C1832 1.409 . S
C1839 C1838 1.362 . S
H1840 C1846 0.930 . S
H1841 C1849 0.930 . S
H1842 C1850 0.930 . S
H1843 C1851 0.930 . S
H1844 C1854 0.930 . S
H1845 C1855 0.930 . S
C1846 H1840 0.930 . S
C1846 C1847 1.355 . S
C1846 C1848 1.415 . S
C1847 C1846 1.355 . S
C1847 C1849 1.419 . S
C1848 C1846 1.415 . S
C1848 C1853 1.425 . S
C1848 C1855 1.409 . S
C1849 H1841 0.930 . S
C1849 C1847 1.419 . S
C1849 C1850 1.362 . S
C1850 H1842 0.930 . S
C1850 C1849 1.362 . S
C1850 C1853 1.409 . S
C1851 H1843 0.930 . S
C1851 C1852 1.355 . S
C1851 C1853 1.415 . S
C1852 C1851 1.355 . S
C1852 C1854 1.419 . S
C1853 C1848 1.425 . S
C1853 C1850 1.409 . S
C1853 C1851 1.415 . S
C1854 H1844 0.930 . S
C1854 C1852 1.419 . S
C1854 C1855 1.362 . S
C1855 H1845 0.930 . S
C1855 C1848 1.409 . S
C1855 C1854 1.362 . S
H1856 C1862 0.930 . S
H1857 C1865 0.930 . S
H1858 C1866 0.930 . S
H1859 C1867 0.930 . S
H1860 C1870 0.930 . S
H1861 C1871 0.930 . S
C1862 H1856 0.930 . S
C1862 C1863 1.355 . S
C1862 C1864 1.415 . S
C1863 C1862 1.355 . S
C1863 C1865 1.419 . S
C1864 C1862 1.415 . S
C1864 C1869 1.425 . S
C1864 C1871 1.409 . S
C1865 H1857 0.930 . S
C1865 C1863 1.419 . S
C1865 C1866 1.362 . S
C1866 H1858 0.930 . S
C1866 C1865 1.362 . S
C1866 C1869 1.409 . S
C1867 H1859 0.930 . S
C1867 C1868 1.355 . S
C1867 C1869 1.415 . S
C1868 C1867 1.355 . S
C1868 C1870 1.419 . S
C1869 C1864 1.425 . S
C1869 C1866 1.409 . S
C1869 C1867 1.415 . S
C1870 H1860 0.930 . S
C1870 C1868 1.419 . S
C1870 C1871 1.362 . S
C1871 H1861 0.930 . S
C1871 C1864 1.409 . S
C1871 C1870 1.362 . S
H1872 C1878 0.930 . S
H1873 C1881 0.930 . S
H1874 C1882 0.930 . S
H1875 C1883 0.930 . S
H1876 C1886 0.930 . S
H1877 C1887 0.930 . S
C1878 H1872 0.930 . S
C1878 C1879 1.355 1_554 S
C1878 C1880 1.414 1_554 S
C1879 C1878 1.355 1_556 S
C1879 C1881 1.419 . S
C1880 C1878 1.414 1_556 S
C1880 C1885 1.426 . S
C1880 C1887 1.409 1_556 S
C1881 H1873 0.930 . S
C1881 C1879 1.419 . S
C1881 C1882 1.362 . S
C1882 H1874 0.930 . S
C1882 C1881 1.362 . S
C1882 C1885 1.409 . S
C1883 H1875 0.930 . S
C1883 C1884 1.355 . S
C1883 C1885 1.415 . S
C1884 C1883 1.355 . S
C1884 C1886 1.419 1_556 S
C1885 C1880 1.426 . S
C1885 C1882 1.409 . S
C1885 C1883 1.415 . S
C1886 H1876 0.930 . S
C1886 C1884 1.419 1_554 S
C1886 C1887 1.362 . S
C1887 H1877 0.930 . S
C1887 C1880 1.409 1_554 S
C1887 C1886 1.362 . S
H1888 C1894 0.930 . S
H1889 C1897 0.930 . S
H1890 C1898 0.930 . S
H1891 C1899 0.895 1_554 S
H1892 C1902 0.930 . S
H1893 C1903 0.930 . S
C1894 H1888 0.930 . S
C1894 C1895 1.386 . S
C1894 C1896 1.415 . S
C1895 C1894 1.386 . S
C1895 C1897 1.392 1_556 S
C1896 C1894 1.415 . S
C1896 C1901 1.466 . S
C1896 C1903 1.409 . S
C1897 H1889 0.930 . S
C1897 C1895 1.392 1_554 S
C1897 C1898 1.362 . S
C1898 H1890 0.930 . S
C1898 C1897 1.362 . S
C1898 C1901 1.373 1_554 S
C1899 H1891 0.895 1_556 S
C1899 C1900 1.355 . S
C1899 C1901 1.422 . S
C1900 C1899 1.355 . S
C1900 C1902 1.419 . S
C1901 C1896 1.466 . S
C1901 C1898 1.373 1_556 S
C1901 C1899 1.422 . S
C1902 H1892 0.930 . S
C1902 C1900 1.419 . S
C1902 C1903 1.362 . S
C1903 H1893 0.930 . S
C1903 C1896 1.409 . S
C1903 C1902 1.362 . S
H1904 C1910 0.930 . S
H1905 C1913 0.930 . S
H1906 C1914 0.930 . S
H1907 C1915 0.930 . S
H1908 C1918 0.930 . S
H1909 C1919 0.930 . S
C1910 H1904 0.930 . S
C1910 C1911 1.400 . S
C1910 C1912 1.415 . S
C1911 C1910 1.400 . S
C1911 C1913 1.369 1_556 S
C1912 C1910 1.415 . S
C1912 C1917 1.425 1_556 S
C1912 C1919 1.409 . S
C1913 H1905 0.930 . S
C1913 C1911 1.369 1_554 S
C1913 C1914 1.362 . S
C1914 H1906 0.930 . S
C1914 C1913 1.362 . S
C1914 C1917 1.409 . S
C1915 H1907 0.930 . S
C1915 C1916 1.355 1_554 S
C1915 C1917 1.415 . S
C1916 C1915 1.355 1_556 S
C1916 C1918 1.419 . S
C1917 C1912 1.425 1_554 S
C1917 C1914 1.409 . S
C1917 C1915 1.415 . S
C1918 H1908 0.930 . S
C1918 C1916 1.419 . S
C1918 C1919 1.362 . S
C1919 H1909 0.930 . S
C1919 C1912 1.409 . S
C1919 C1918 1.362 . S
H1920 C1926 0.930 . S
H1921 C1929 0.930 . S
H1922 C1930 0.930 . S
H1923 C1931 0.930 . S
H1924 C1934 0.930 . S
H1925 C1935 0.930 . S
C1926 H1920 0.930 . S
C1926 C1927 1.355 . S
C1926 C1928 1.415 . S
C1927 C1926 1.355 . S
C1927 C1929 1.419 . S
C1928 C1926 1.415 . S
C1928 C1933 1.425 . S
C1928 C1935 1.409 . S
C1929 H1921 0.930 . S
C1929 C1927 1.419 . S
C1929 C1930 1.362 . S
C1930 H1922 0.930 . S
C1930 C1929 1.362 . S
C1930 C1933 1.409 . S
C1931 H1923 0.930 . S
C1931 C1932 1.355 . S
C1931 C1933 1.415 . S
C1932 C1931 1.355 . S
C1932 C1934 1.419 . S
C1933 C1928 1.425 . S
C1933 C1930 1.409 . S
C1933 C1931 1.415 . S
C1934 H1924 0.930 . S
C1934 C1932 1.419 . S
C1934 C1935 1.362 . S
C1935 H1925 0.930 . S
C1935 C1928 1.409 . S
C1935 C1934 1.362 . S
H1936 C1942 0.930 . S
H1937 C1945 0.930 . S
H1938 C1946 0.930 . S
H1939 C1947 0.930 . S
H1940 C1950 0.930 . S
H1941 C1951 0.930 . S
C1942 H1936 0.930 . S
C1942 C1943 1.355 . S
C1942 C1944 1.415 . S
C1943 C1942 1.355 . S
C1943 C1945 1.419 . S
C1944 C1942 1.415 . S
C1944 C1949 1.425 . S
C1944 C1951 1.409 . S
C1945 H1937 0.930 . S
C1945 C1943 1.419 . S
C1945 C1946 1.362 . S
C1946 H1938 0.930 . S
C1946 C1945 1.362 . S
C1946 C1949 1.409 . S
C1947 H1939 0.930 . S
C1947 C1948 1.355 . S
C1947 C1949 1.415 . S
C1948 C1947 1.355 . S
C1948 C1950 1.419 . S
C1949 C1944 1.425 . S
C1949 C1946 1.409 . S
C1949 C1947 1.415 . S
C1950 H1940 0.930 . S
C1950 C1948 1.419 . S
C1950 C1951 1.362 . S
C1951 H1941 0.930 . S
C1951 C1944 1.409 . S
C1951 C1950 1.362 . S
H1952 C1958 0.930 . S
H1953 C1961 0.930 . S
H1954 C1962 0.930 . S
H1955 C1963 0.930 . S
H1956 C1966 0.930 . S
H1957 C1967 0.930 . S
C1958 H1952 0.930 . S
C1958 C1959 1.355 . S
C1958 C1960 1.415 . S
C1959 C1958 1.355 . S
C1959 C1961 1.419 . S
C1960 C1958 1.415 . S
C1960 C1965 1.425 . S
C1960 C1967 1.409 . S
C1961 H1953 0.930 . S
C1961 C1959 1.419 . S
C1961 C1962 1.362 . S
C1962 H1954 0.930 . S
C1962 C1961 1.362 . S
C1962 C1965 1.409 . S
C1963 H1955 0.930 . S
C1963 C1964 1.355 . S
C1963 C1965 1.415 . S
C1964 C1963 1.355 . S
C1964 C1966 1.419 . S
C1965 C1960 1.425 . S
C1965 C1962 1.409 . S
C1965 C1963 1.415 . S
C1966 H1956 0.930 . S
C1966 C1964 1.419 . S
C1966 C1967 1.362 . S
C1967 H1957 0.930 . S
C1967 C1960 1.409 . S
C1967 C1966 1.362 . S
H1968 C1974 0.930 . S
H1969 C1977 0.930 . S
H1970 C1978 0.930 . S
H1971 C1979 0.930 . S
H1972 C1982 0.930 . S
H1973 C1983 0.930 . S
C1974 H1968 0.930 . S
C1974 C1975 1.355 . S
C1974 C1976 1.415 . S
C1975 C1974 1.355 . S
C1975 C1977 1.419 . S
C1976 C1974 1.415 . S
C1976 C1981 1.425 . S
C1976 C1983 1.409 . S
C1977 H1969 0.930 . S
C1977 C1975 1.419 . S
C1977 C1978 1.362 . S
C1978 H1970 0.930 . S
C1978 C1977 1.362 . S
C1978 C1981 1.409 . S
C1979 H1971 0.930 . S
C1979 C1980 1.355 . S
C1979 C1981 1.415 . S
C1980 C1979 1.355 . S
C1980 C1982 1.419 . S
C1981 C1976 1.425 . S
C1981 C1978 1.409 . S
C1981 C1979 1.415 . S
C1982 H1972 0.930 . S
C1982 C1980 1.419 . S
C1982 C1983 1.362 . S
C1983 H1973 0.930 . S
C1983 C1976 1.409 . S
C1983 C1982 1.362 . S
H1984 C1990 0.930 . S
H1985 C1993 0.930 . S
H1986 C1994 0.930 . S
H1987 C1995 0.930 . S
H1988 C1998 0.930 . S
H1989 C1999 0.930 . S
C1990 H1984 0.930 . S
C1990 C1991 1.355 . S
C1990 C1992 1.415 . S
C1991 C1990 1.355 . S
C1991 C1993 1.419 . S
C1992 C1990 1.415 . S
C1992 C1997 1.425 . S
C1992 C1999 1.409 . S
C1993 H1985 0.930 . S
C1993 C1991 1.419 . S
C1993 C1994 1.362 . S
C1994 H1986 0.930 . S
C1994 C1993 1.362 . S
C1994 C1997 1.409 . S
C1995 H1987 0.930 . S
C1995 C1996 1.355 . S
C1995 C1997 1.415 . S
C1996 C1995 1.355 . S
C1996 C1998 1.419 . S
C1997 C1992 1.425 . S
C1997 C1994 1.409 . S
C1997 C1995 1.415 . S
C1998 H1988 0.930 . S
C1998 C1996 1.419 . S
C1998 C1999 1.362 . S
C1999 H1989 0.930 . S
C1999 C1992 1.409 . S
C1999 C1998 1.362 . S
H2000 C2006 0.930 . S
H2001 C2009 0.930 . S
H2002 C2010 0.930 . S
H2003 C2011 0.930 . S
H2004 C2014 0.930 . S
H2005 C2015 0.930 . S
C2006 H2000 0.930 . S
C2006 C2007 1.355 . S
C2006 C2008 1.415 . S
C2007 C2006 1.355 . S
C2007 C2009 1.419 . S
C2008 C2006 1.415 . S
C2008 C2013 1.425 . S
C2008 C2015 1.409 . S
C2009 H2001 0.930 . S
C2009 C2007 1.419 . S
C2009 C2010 1.362 . S
C2010 H2002 0.930 . S
C2010 C2009 1.362 . S
C2010 C2013 1.409 . S
C2011 H2003 0.930 . S
C2011 C2012 1.355 . S
C2011 C2013 1.415 . S
C2012 C2011 1.355 . S
C2012 C2014 1.419 . S
C2013 C2008 1.425 . S
C2013 C2010 1.409 . S
C2013 C2011 1.415 . S
C2014 H2004 0.930 . S
C2014 C2012 1.419 . S
C2014 C2015 1.362 . S
C2015 H2005 0.930 . S
C2015 C2008 1.409 . S
C2015 C2014 1.362 . S
H2016 C2022 0.930 . S
H2017 C2025 0.930 . S
H2018 C2026 0.930 . S
H2019 C2027 0.930 . S
H2020 C2030 0.930 . S
H2021 C2031 0.930 . S
C2022 H2016 0.930 . S
C2022 C2023 1.355 . S
C2022 C2024 1.415 . S
C2023 C2022 1.355 . S
C2023 C2025 1.419 . S
C2024 C2022 1.415 . S
C2024 C2029 1.425 . S
C2024 C2031 1.409 . S
C2025 H2017 0.930 . S
C2025 C2023 1.419 . S
C2025 C2026 1.362 . S
C2026 H2018 0.930 . S
C2026 C2025 1.362 . S
C2026 C2029 1.409 . S
C2027 H2019 0.930 . S
C2027 C2028 1.355 . S
C2027 C2029 1.415 . S
C2028 C2027 1.355 . S
C2028 C2030 1.419 . S
C2029 C2024 1.425 . S
C2029 C2026 1.409 . S
C2029 C2027 1.415 . S
C2030 H2020 0.930 . S
C2030 C2028 1.419 . S
C2030 C2031 1.362 . S
C2031 H2021 0.930 . S
C2031 C2024 1.409 . S
C2031 C2030 1.362 . S
H2032 C2038 0.930 . S
H2033 C2041 0.930 . S
H2034 C2042 0.930 . S
H2035 C2043 0.935 . S
H2036 C2046 0.930 . S
H2037 C2047 0.930 . S
C2038 H2032 0.930 . S
C2038 C2039 1.355 1_565 S
C2038 C2040 1.415 . S
C2039 C2038 1.355 1_545 S
C2039 C2041 1.419 . S
C2040 C2038 1.415 . S
C2040 C2045 1.425 . S
C2040 C2047 1.409 . S
C2041 H2033 0.930 . S
C2041 C2039 1.419 . S
C2041 C2042 1.362 . S
C2042 H2034 0.930 . S
C2042 C2041 1.362 . S
C2042 C2045 1.409 1_545 S
C2043 H2035 0.935 . S
C2043 C2044 1.355 . S
C2043 C2045 1.415 . S
C2044 C2043 1.355 . S
C2044 C2046 1.419 . S
C2045 C2040 1.425 . S
C2045 C2042 1.409 1_565 S
C2045 C2043 1.415 . S
C2046 H2036 0.930 . S
C2046 C2044 1.419 . S
C2046 C2047 1.362 . S
C2047 H2037 0.930 . S
C2047 C2040 1.409 . S
C2047 C2046 1.362 . S
H2048 C2054 0.930 . S
H2049 C2057 0.930 1_655 S
H2050 C2058 0.930 . S
H2051 C2059 0.930 . S
H2052 C2062 0.930 . S
H2053 C2063 0.930 . S
C2054 H2048 0.930 . S
C2054 C2055 1.355 . S
C2054 C2056 1.415 . S
C2055 C2054 1.355 . S
C2055 C2057 1.419 . S
C2056 C2054 1.415 . S
C2056 C2061 1.425 . S
C2056 C2063 1.409 . S
C2057 H2049 0.930 1_455 S
C2057 C2055 1.419 . S
C2057 C2058 1.362 1_455 S
C2058 H2050 0.930 . S
C2058 C2057 1.362 1_655 S
C2058 C2061 1.409 1_655 S
C2059 H2051 0.930 . S
C2059 C2060 1.355 . S
C2059 C2061 1.415 1_655 S
C2060 C2059 1.355 . S
C2060 C2062 1.419 1_655 S
C2061 C2056 1.425 . S
C2061 C2058 1.409 1_455 S
C2061 C2059 1.415 1_455 S
C2062 H2052 0.930 . S
C2062 C2060 1.419 1_455 S
C2062 C2063 1.362 . S
C2063 H2053 0.930 . S
C2063 C2056 1.409 . S
C2063 C2062 1.362 . S
H2064 C2070 0.930 . S
H2065 C2073 0.930 . S
H2066 C2074 0.930 . S
H2067 C2075 0.930 . S
H2068 C2078 0.930 . S
H2069 C2079 0.930 . S
C2070 H2064 0.930 . S
C2070 C2071 1.355 . S
C2070 C2072 1.415 . S
C2071 C2070 1.355 . S
C2071 C2073 1.419 . S
C2072 C2070 1.415 . S
C2072 C2077 1.425 . S
C2072 C2079 1.409 . S
C2073 H2065 0.930 . S
C2073 C2071 1.419 . S
C2073 C2074 1.362 . S
C2074 H2066 0.930 . S
C2074 C2073 1.362 . S
C2074 C2077 1.409 . S
C2075 H2067 0.930 . S
C2075 C2076 1.355 . S
C2075 C2077 1.415 . S
C2076 C2075 1.355 . S
C2076 C2078 1.419 . S
C2077 C2072 1.425 . S
C2077 C2074 1.409 . S
C2077 C2075 1.415 . S
C2078 H2068 0.930 . S
C2078 C2076 1.419 . S
C2078 C2079 1.362 . S
C2079 H2069 0.930 . S
C2079 C2072 1.409 . S
C2079 C2078 1.362 . S
H2080 C2086 0.930 . S
H2081 C2089 0.930 . S
H2082 C2090 0.930 . S
H2083 C2091 0.930 . S
H2084 C2094 0.930 . S
H2085 C2095 0.930 . S
C2086 H2080 0.930 . S
C2086 C2087 1.355 1_545 S
C2086 C2088 1.415 . S
C2087 C2086 1.355 1_565 S
C2087 C2089 1.419 . S
C2088 C2086 1.415 . S
C2088 C2093 1.425 . S
C2088 C2095 1.409 . S
C2089 H2081 0.930 . S
C2089 C2087 1.419 . S
C2089 C2090 1.362 . S
C2090 H2082 0.930 . S
C2090 C2089 1.362 . S
C2090 C2093 1.409 1_565 S
C2091 H2083 0.930 . S
C2091 C2092 1.355 . S
C2091 C2093 1.415 . S
C2092 C2091 1.355 . S
C2092 C2094 1.419 . S
C2093 C2088 1.425 . S
C2093 C2090 1.409 1_545 S
C2093 C2091 1.415 . S
C2094 H2084 0.930 . S
C2094 C2092 1.419 . S
C2094 C2095 1.362 . S
C2095 H2085 0.930 . S
C2095 C2088 1.409 . S
C2095 C2094 1.362 . S
H2096 C2102 0.930 . S
H2097 C2105 0.930 . S
H2098 C2106 0.930 . S
H2099 C2107 0.930 . S
H2100 C2110 0.930 . S
H2101 C2111 0.930 . S
C2102 H2096 0.930 . S
C2102 C2103 1.355 . S
C2102 C2104 1.415 . S
C2103 C2102 1.355 . S
C2103 C2105 1.419 . S
C2104 C2102 1.415 . S
C2104 C2109 1.425 . S
C2104 C2111 1.409 . S
C2105 H2097 0.930 . S
C2105 C2103 1.419 . S
C2105 C2106 1.362 1_655 S
C2106 H2098 0.930 . S
C2106 C2105 1.362 1_455 S
C2106 C2109 1.409 1_455 S
C2107 H2099 0.930 . S
C2107 C2108 1.355 . S
C2107 C2109 1.415 1_455 S
C2108 C2107 1.355 . S
C2108 C2110 1.419 1_455 S
C2109 C2104 1.425 . S
C2109 C2106 1.409 1_655 S
C2109 C2107 1.415 1_655 S
C2110 H2100 0.930 . S
C2110 C2108 1.419 1_655 S
C2110 C2111 1.362 . S
C2111 H2101 0.930 . S
C2111 C2104 1.409 . S
C2111 C2110 1.362 . S
H2112 C2118 0.930 . S
H2113 C2121 0.930 . S
H2114 C2122 0.930 . S
H2115 C2123 0.930 . S
H2116 C2126 0.930 . S
H2117 C2127 0.930 . S
C2118 H2112 0.930 . S
C2118 C2119 1.355 . S
C2118 C2120 1.415 . S
C2119 C2118 1.355 . S
C2119 C2121 1.419 . S
C2120 C2118 1.415 . S
C2120 C2125 1.425 . S
C2120 C2127 1.409 . S
C2121 H2113 0.930 . S
C2121 C2119 1.419 . S
C2121 C2122 1.362 . S
C2122 H2114 0.930 . S
C2122 C2121 1.362 . S
C2122 C2125 1.409 . S
C2123 H2115 0.930 . S
C2123 C2124 1.355 . S
C2123 C2125 1.415 . S
C2124 C2123 1.355 . S
C2124 C2126 1.419 . S
C2125 C2120 1.425 . S
C2125 C2122 1.409 . S
C2125 C2123 1.415 . S
C2126 H2116 0.930 . S
C2126 C2124 1.419 . S
C2126 C2127 1.362 . S
C2127 H2117 0.930 . S
C2127 C2120 1.409 . S
C2127 C2126 1.362 . S
H2128 C2134 0.930 . S
H2129 C2137 0.930 . S
H2130 C2138 0.930 . S
H2131 C2139 0.930 . S
H2132 C2142 0.930 . S
H2133 C2143 0.930 . S
C2134 H2128 0.930 . S
C2134 C2135 1.355 . S
C2134 C2136 1.415 . S
C2135 C2134 1.355 . S
C2135 C2137 1.419 . S
C2136 C2134 1.415 . S
C2136 C2141 1.425 . S
C2136 C2143 1.409 . S
C2137 H2129 0.930 . S
C2137 C2135 1.419 . S
C2137 C2138 1.362 1_545 S
C2138 H2130 0.930 . S
C2138 C2137 1.362 1_565 S
C2138 C2141 1.409 1_565 S
C2139 H2131 0.930 . S
C2139 C2140 1.355 . S
C2139 C2141 1.415 1_565 S
C2140 C2139 1.355 . S
C2140 C2142 1.419 1_565 S
C2141 C2136 1.425 . S
C2141 C2138 1.409 1_545 S
C2141 C2139 1.415 1_545 S
C2142 H2132 0.930 . S
C2142 C2140 1.419 1_545 S
C2142 C2143 1.362 . S
C2143 H2133 0.930 . S
C2143 C2136 1.409 . S
C2143 C2142 1.362 . S
H2144 C2150 0.930 . S
H2145 C2153 0.930 1_455 S
H2146 C2154 0.930 . S
H2147 C2155 0.930 . S
H2148 C2158 0.930 . S
H2149 C2159 0.930 . S
C2150 H2144 0.930 . S
C2150 C2151 1.355 . S
C2150 C2152 1.415 . S
C2151 C2150 1.355 . S
C2151 C2153 1.419 . S
C2152 C2150 1.415 . S
C2152 C2157 1.425 . S
C2152 C2159 1.409 . S
C2153 H2145 0.930 1_655 S
C2153 C2151 1.419 . S
C2153 C2154 1.362 1_655 S
C2154 H2146 0.930 . S
C2154 C2153 1.362 1_455 S
C2154 C2157 1.409 1_455 S
C2155 H2147 0.930 . S
C2155 C2156 1.355 . S
C2155 C2157 1.415 1_455 S
C2156 C2155 1.355 . S
C2156 C2158 1.419 1_455 S
C2157 C2152 1.425 . S
C2157 C2154 1.409 1_655 S
C2157 C2155 1.415 1_655 S
C2158 H2148 0.930 . S
C2158 C2156 1.419 1_655 S
C2158 C2159 1.362 . S
C2159 H2149 0.930 . S
C2159 C2152 1.409 . S
C2159 C2158 1.362 . S
H2160 C2166 0.930 . S
H2161 C2169 0.930 . S
H2162 C2170 0.930 . S
H2163 C2171 0.930 . S
H2164 C2174 0.930 . S
H2165 C2175 0.930 . S
C2166 H2160 0.930 . S
C2166 C2167 1.355 . S
C2166 C2168 1.415 . S
C2167 C2166 1.355 . S
C2167 C2169 1.419 . S
C2168 C2166 1.415 . S
C2168 C2173 1.425 . S
C2168 C2175 1.409 . S
C2169 H2161 0.930 . S
C2169 C2167 1.419 . S
C2169 C2170 1.362 . S
C2170 H2162 0.930 . S
C2170 C2169 1.362 . S
C2170 C2173 1.409 . S
C2171 H2163 0.930 . S
C2171 C2172 1.355 . S
C2171 C2173 1.415 . S
C2172 C2171 1.355 . S
C2172 C2174 1.419 . S
C2173 C2168 1.425 . S
C2173 C2170 1.409 . S
C2173 C2171 1.415 . S
C2174 H2164 0.930 . S
C2174 C2172 1.419 . S
C2174 C2175 1.362 . S
C2175 H2165 0.930 . S
C2175 C2168 1.409 . S
C2175 C2174 1.362 . S
H2176 C2182 0.930 . S
H2177 C2185 0.930 . S
H2178 C2186 0.930 . S
H2179 C2187 0.930 . S
H2180 C2190 0.930 . S
H2181 C2191 0.930 . S
C2182 H2176 0.930 . S
C2182 C2183 1.355 1_565 S
C2182 C2184 1.415 . S
C2183 C2182 1.355 1_545 S
C2183 C2185 1.419 . S
C2184 C2182 1.415 . S
C2184 C2189 1.425 . S
C2184 C2191 1.409 . S
C2185 H2177 0.930 . S
C2185 C2183 1.419 . S
C2185 C2186 1.362 . S
C2186 H2178 0.930 . S
C2186 C2185 1.362 . S
C2186 C2189 1.409 1_545 S
C2187 H2179 0.930 . S
C2187 C2188 1.355 . S
C2187 C2189 1.415 . S
C2188 C2187 1.355 . S
C2188 C2190 1.419 . S
C2189 C2184 1.425 . S
C2189 C2186 1.409 1_565 S
C2189 C2187 1.415 . S
C2190 H2180 0.930 . S
C2190 C2188 1.419 . S
C2190 C2191 1.362 . S
C2191 H2181 0.930 . S
C2191 C2184 1.409 . S
C2191 C2190 1.362 . S
H2192 C2198 0.930 . S
H2193 C2201 0.930 . S
H2194 C2202 0.930 . S
H2195 C2203 0.930 . S
H2196 C2206 0.930 . S
H2197 C2207 0.930 . S
C2198 H2192 0.930 . S
C2198 C2199 1.355 1_455 S
C2198 C2200 1.415 . S
C2199 C2198 1.355 1_655 S
C2199 C2201 1.419 . S
C2200 C2198 1.415 . S
C2200 C2205 1.425 . S
C2200 C2207 1.409 . S
C2201 H2193 0.930 . S
C2201 C2199 1.419 . S
C2201 C2202 1.362 . S
C2202 H2194 0.930 . S
C2202 C2201 1.362 . S
C2202 C2205 1.409 1_655 S
C2203 H2195 0.930 . S
C2203 C2204 1.355 . S
C2203 C2205 1.415 . S
C2204 C2203 1.355 . S
C2204 C2206 1.419 . S
C2205 C2200 1.425 . S
C2205 C2202 1.409 1_455 S
C2205 C2203 1.415 . S
C2206 H2196 0.930 . S
C2206 C2204 1.419 . S
C2206 C2207 1.362 . S
C2207 H2197 0.930 . S
C2207 C2200 1.409 . S
C2207 C2206 1.362 . S
H2208 C2214 0.930 . S
H2209 C2217 0.930 . S
H2210 C2218 0.930 1_455 S
H2211 C2219 0.930 . S
H2212 C2222 0.930 . S
H2213 C2223 0.930 . S
C2214 H2208 0.930 . S
C2214 C2215 1.355 . S
C2214 C2216 1.415 1_655 S
C2215 C2214 1.355 . S
C2215 C2217 1.419 . S
C2216 C2214 1.415 1_455 S
C2216 C2221 1.425 . S
C2216 C2223 1.409 . S
C2217 H2209 0.930 . S
C2217 C2215 1.419 . S
C2217 C2218 1.362 . S
C2218 H2210 0.930 1_655 S
C2218 C2217 1.362 . S
C2218 C2221 1.409 1_655 S
C2219 H2211 0.930 . S
C2219 C2220 1.355 . S
C2219 C2221 1.415 . S
C2220 C2219 1.355 . S
C2220 C2222 1.419 . S
C2221 C2216 1.425 . S
C2221 C2218 1.409 1_455 S
C2221 C2219 1.415 . S
C2222 H2212 0.930 . S
C2222 C2220 1.419 . S
C2222 C2223 1.362 . S
C2223 H2213 0.930 . S
C2223 C2216 1.409 . S
C2223 C2222 1.362 . S
H2224 C2230 0.930 . S
H2225 C2233 0.930 . S
H2226 C2234 0.930 . S
H2227 C2235 0.930 . S
H2228 C2238 0.930 . S
H2229 C2239 0.930 . S
C2230 H2224 0.930 . S
C2230 C2231 1.355 . S
C2230 C2232 1.415 . S
C2231 C2230 1.355 . S
C2231 C2233 1.419 . S
C2232 C2230 1.415 . S
C2232 C2237 1.425 . S
C2232 C2239 1.409 . S
C2233 H2225 0.930 . S
C2233 C2231 1.419 . S
C2233 C2234 1.362 . S
C2234 H2226 0.930 . S
C2234 C2233 1.362 . S
C2234 C2237 1.409 . S
C2235 H2227 0.930 . S
C2235 C2236 1.355 . S
C2235 C2237 1.415 . S
C2236 C2235 1.355 . S
C2236 C2238 1.419 . S
C2237 C2232 1.425 . S
C2237 C2234 1.409 . S
C2237 C2235 1.415 . S
C2238 H2228 0.930 . S
C2238 C2236 1.419 . S
C2238 C2239 1.362 . S
C2239 H2229 0.930 . S
C2239 C2232 1.409 . S
C2239 C2238 1.362 . S
H2240 C2246 0.930 . S
H2241 C2249 0.930 . S
H2242 C2250 0.930 . S
H2243 C2251 0.930 . S
H2244 C2254 0.930 . S
H2245 C2255 0.930 1_565 S
C2246 H2240 0.930 . S
C2246 C2247 1.355 . S
C2246 C2248 1.415 . S
C2247 C2246 1.355 . S
C2247 C2249 1.419 . S
C2248 C2246 1.415 . S
C2248 C2253 1.425 . S
C2248 C2255 1.409 1_565 S
C2249 H2241 0.930 . S
C2249 C2247 1.419 . S
C2249 C2250 1.362 . S
C2250 H2242 0.930 . S
C2250 C2249 1.362 . S
C2250 C2253 1.409 . S
C2251 H2243 0.930 . S
C2251 C2252 1.355 . S
C2251 C2253 1.415 1_545 S
C2252 C2251 1.355 . S
C2252 C2254 1.419 . S
C2253 C2248 1.425 . S
C2253 C2250 1.409 . S
C2253 C2251 1.415 1_565 S
C2254 H2244 0.930 . S
C2254 C2252 1.419 . S
C2254 C2255 1.362 . S
C2255 H2245 0.930 1_545 S
C2255 C2248 1.409 1_545 S
C2255 C2254 1.362 . S
H2256 C2262 0.930 . S
H2257 C2265 0.930 . S
H2258 C2266 0.930 1_655 S
H2259 C2267 0.927 1_655 S
H2260 C2270 0.930 . S
H2261 C2271 0.930 . S
C2262 H2256 0.930 . S
C2262 C2263 1.355 . S
C2262 C2264 1.415 . S
C2263 C2262 1.355 . S
C2263 C2265 1.419 . S
C2264 C2262 1.415 . S
C2264 C2269 1.425 . S
C2264 C2271 1.409 . S
C2265 H2257 0.930 . S
C2265 C2263 1.419 . S
C2265 C2266 1.362 . S
C2266 H2258 0.930 1_455 S
C2266 C2265 1.362 . S
C2266 C2269 1.409 . S
C2267 H2259 0.927 1_455 S
C2267 C2268 1.356 . S
C2267 C2269 1.415 . S
C2268 C2267 1.356 . S
C2268 C2270 1.419 . S
C2269 C2264 1.425 . S
C2269 C2266 1.409 . S
C2269 C2267 1.415 . S
C2270 H2260 0.930 . S
C2270 C2268 1.419 . S
C2270 C2271 1.362 . S
C2271 H2261 0.930 . S
C2271 C2264 1.409 . S
C2271 C2270 1.362 . S
H2272 C2278 0.930 . S
H2273 C2281 0.930 . S
H2274 C2282 0.930 . S
H2275 C2283 0.930 . S
H2276 C2286 0.930 . S
H2277 C2287 0.930 . S
C2278 H2272 0.930 . S
C2278 C2279 1.355 . S
C2278 C2280 1.415 . S
C2279 C2278 1.355 . S
C2279 C2281 1.419 . S
C2280 C2278 1.415 . S
C2280 C2285 1.425 . S
C2280 C2287 1.409 . S
C2281 H2273 0.930 . S
C2281 C2279 1.419 . S
C2281 C2282 1.362 . S
C2282 H2274 0.930 . S
C2282 C2281 1.362 . S
C2282 C2285 1.409 . S
C2283 H2275 0.930 . S
C2283 C2284 1.355 . S
C2283 C2285 1.415 . S
C2284 C2283 1.355 . S
C2284 C2286 1.419 . S
C2285 C2280 1.425 . S
C2285 C2282 1.409 . S
C2285 C2283 1.415 . S
C2286 H2276 0.930 . S
C2286 C2284 1.419 . S
C2286 C2287 1.362 . S
C2287 H2277 0.930 . S
C2287 C2280 1.409 . S
C2287 C2286 1.362 . S
H2288 C2294 0.930 . S
H2289 C2297 0.930 . S
H2290 C2298 0.930 . S
H2291 C2299 0.930 1_545 S
H2292 C2302 0.930 . S
H2293 C2303 0.930 . S
C2294 H2288 0.930 . S
C2294 C2295 1.355 . S
C2294 C2296 1.415 . S
C2295 C2294 1.355 . S
C2295 C2297 1.419 . S
C2296 C2294 1.415 . S
C2296 C2301 1.425 . S
C2296 C2303 1.409 . S
C2297 H2289 0.930 . S
C2297 C2295 1.419 . S
C2297 C2298 1.362 . S
C2298 H2290 0.930 . S
C2298 C2297 1.362 . S
C2298 C2301 1.409 . S
C2299 H2291 0.930 1_565 S
C2299 C2300 1.355 . S
C2299 C2301 1.415 . S
C2300 C2299 1.355 . S
C2300 C2302 1.419 . S
C2301 C2296 1.425 . S
C2301 C2298 1.409 . S
C2301 C2299 1.415 . S
C2302 H2292 0.930 . S
C2302 C2300 1.419 . S
C2302 C2303 1.362 . S
C2303 H2293 0.930 . S
C2303 C2296 1.409 . S
C2303 C2302 1.362 . S
H2304 C2310 0.930 . S
H2305 C2313 0.930 . S
H2306 C2314 0.930 . S
H2307 C2315 0.930 . S
H2308 C2318 0.930 . S
H2309 C2319 0.930 . S
C2310 H2304 0.930 . S
C2310 C2311 1.355 . S
C2310 C2312 1.415 . S
C2311 C2310 1.355 . S
C2311 C2313 1.419 . S
C2312 C2310 1.415 . S
C2312 C2317 1.425 . S
C2312 C2319 1.409 . S
C2313 H2305 0.930 . S
C2313 C2311 1.419 . S
C2313 C2314 1.362 . S
C2314 H2306 0.930 . S
C2314 C2313 1.362 . S
C2314 C2317 1.409 . S
C2315 H2307 0.930 . S
C2315 C2316 1.355 . S
C2315 C2317 1.415 . S
C2316 C2315 1.355 . S
C2316 C2318 1.419 . S
C2317 C2312 1.425 . S
C2317 C2314 1.409 . S
C2317 C2315 1.415 . S
C2318 H2308 0.930 . S
C2318 C2316 1.419 . S
C2318 C2319 1.362 . S
C2319 H2309 0.930 . S
C2319 C2312 1.409 . S
C2319 C2318 1.362 . S
H2320 C2326 0.948 . S
H2321 C2329 0.930 . S
H2322 C2330 0.930 . S
H2323 C2331 0.930 . S
H2324 C2334 0.930 . S
H2325 C2335 0.930 1_655 S
C2326 H2320 0.948 . S
C2326 C2327 1.362 1_655 S
C2326 C2328 1.389 1_655 S
C2327 C2326 1.362 1_455 S
C2327 C2329 1.419 . S
C2328 C2326 1.389 1_455 S
C2328 C2333 1.425 . S
C2328 C2335 1.409 . S
C2329 H2321 0.930 . S
C2329 C2327 1.419 . S
C2329 C2330 1.362 . S
C2330 H2322 0.930 . S
C2330 C2329 1.362 . S
C2330 C2333 1.409 . S
C2331 H2323 0.930 . S
C2331 C2332 1.355 . S
C2331 C2333 1.415 . S
C2332 C2331 1.355 . S
C2332 C2334 1.419 . S
C2333 C2328 1.425 . S
C2333 C2330 1.409 . S
C2333 C2331 1.415 . S
C2334 H2324 0.930 . S
C2334 C2332 1.419 . S
C2334 C2335 1.362 . S
C2335 H2325 0.930 1_455 S
C2335 C2328 1.409 . S
C2335 C2334 1.362 . S
H2336 C2342 0.930 . S
H2337 C2345 0.930 . S
H2338 C2346 0.930 . S
H2339 C2347 0.930 . S
H2340 C2350 0.930 . S
H2341 C2351 0.930 . S
C2342 H2336 0.930 . S
C2342 C2343 1.355 . S
C2342 C2344 1.415 . S
C2343 C2342 1.355 . S
C2343 C2345 1.419 . S
C2344 C2342 1.415 . S
C2344 C2349 1.425 . S
C2344 C2351 1.409 . S
C2345 H2337 0.930 . S
C2345 C2343 1.419 . S
C2345 C2346 1.362 . S
C2346 H2338 0.930 . S
C2346 C2345 1.362 . S
C2346 C2349 1.409 . S
C2347 H2339 0.930 . S
C2347 C2348 1.355 . S
C2347 C2349 1.415 . S
C2348 C2347 1.355 . S
C2348 C2350 1.419 . S
C2349 C2344 1.425 . S
C2349 C2346 1.409 . S
C2349 C2347 1.415 . S
C2350 H2340 0.930 . S
C2350 C2348 1.419 . S
C2350 C2351 1.362 . S
C2351 H2341 0.930 . S
C2351 C2344 1.409 . S
C2351 C2350 1.362 . S
H2352 C2358 0.930 . S
H2353 C2361 0.930 . S
H2354 C2362 0.930 . S
H2355 C2363 0.930 . S
H2356 C2366 0.930 . S
H2357 C2367 0.930 . S
C2358 H2352 0.930 . S
C2358 C2359 1.324 1_554 S
C2358 C2360 1.415 . S
C2359 C2358 1.324 1_556 S
C2359 C2361 1.471 . S
C2360 C2358 1.415 . S
C2360 C2365 1.425 1_554 S
C2360 C2367 1.409 1_565 S
C2361 H2353 0.930 . S
C2361 C2359 1.471 . S
C2361 C2362 1.362 . S
C2362 H2354 0.930 . S
C2362 C2361 1.362 . S
C2362 C2365 1.409 . S
C2363 H2355 0.930 . S
C2363 C2364 1.355 . S
C2363 C2365 1.415 1_545 S
C2364 C2363 1.355 . S
C2364 C2366 1.419 1_556 S
C2365 C2360 1.425 1_556 S
C2365 C2362 1.409 . S
C2365 C2363 1.415 1_565 S
C2366 H2356 0.930 . S
C2366 C2364 1.419 1_554 S
C2366 C2367 1.362 . S
C2367 H2357 0.930 . S
C2367 C2360 1.409 1_545 S
C2367 C2366 1.362 . S
H2368 C2374 0.920 . S
H2369 C2377 0.930 . S
H2370 C2378 0.930 . S
H2371 C2379 0.930 . S
H2372 C2382 0.930 . S
H2373 C2383 0.908 1_454 S
C2374 H2368 0.920 . S
C2374 C2375 1.354 1_554 S
C2374 C2376 1.408 1_554 S
C2375 C2374 1.354 1_556 S
C2375 C2377 1.424 . S
C2376 C2374 1.408 1_556 S
C2376 C2381 1.449 . S
C2376 C2383 1.406 1_455 S
C2377 H2369 0.930 . S
C2377 C2375 1.424 . S
C2377 C2378 1.362 . S
C2378 H2370 0.930 . S
C2378 C2377 1.362 . S
C2378 C2381 1.409 . S
C2379 H2371 0.930 . S
C2379 C2380 1.355 . S
C2379 C2381 1.415 1_655 S
C2380 C2379 1.355 . S
C2380 C2382 1.419 . S
C2381 C2376 1.449 . S
C2381 C2378 1.409 . S
C2381 C2379 1.415 1_455 S
C2382 H2372 0.930 . S
C2382 C2380 1.419 . S
C2382 C2383 1.366 . S
C2383 H2373 0.908 1_656 S
C2383 C2376 1.406 1_655 S
C2383 C2382 1.366 . S
H2384 C2390 0.994 . S
H2385 C2393 0.930 . S
H2386 C2394 0.930 . S
H2387 C2395 0.930 . S
H2388 C2398 0.930 . S
H2389 C2399 0.930 . S
C2390 H2384 0.994 . S
C2390 C2391 1.301 1_554 S
C2390 C2392 1.414 . S
C2391 C2390 1.301 1_556 S
C2391 C2393 1.419 . S
C2392 C2390 1.414 . S
C2392 C2397 1.381 1_554 S
C2392 C2399 1.454 . S
C2393 H2385 0.930 . S
C2393 C2391 1.419 . S
C2393 C2394 1.362 . S
C2394 H2386 0.930 . S
C2394 C2393 1.362 . S
C2394 C2397 1.409 . S
C2395 H2387 0.930 . S
C2395 C2396 1.345 1_556 S
C2395 C2397 1.415 . S
C2396 C2395 1.345 1_554 S
C2396 C2398 1.429 . S
C2397 C2392 1.381 1_556 S
C2397 C2394 1.409 . S
C2397 C2395 1.415 . S
C2398 H2388 0.930 . S
C2398 C2396 1.429 . S
C2398 C2399 1.362 . S
C2399 H2389 0.930 . S
C2399 C2392 1.454 . S
C2399 C2398 1.362 . S
H2400 C2406 0.930 . S
H2401 C2409 0.930 . S
H2402 C2410 0.930 1_565 S
H2403 C2411 0.930 . S
H2404 C2414 0.930 . S
H2405 C2415 0.930 . S
C2406 H2400 0.930 . S
C2406 C2407 1.355 . S
C2406 C2408 1.415 . S
C2407 C2406 1.355 . S
C2407 C2409 1.419 . S
C2408 C2406 1.415 . S
C2408 C2413 1.425 . S
C2408 C2415 1.409 . S
C2409 H2401 0.930 . S
C2409 C2407 1.419 . S
C2409 C2410 1.362 . S
C2410 H2402 0.930 1_545 S
C2410 C2409 1.362 . S
C2410 C2413 1.409 . S
C2411 H2403 0.930 . S
C2411 C2412 1.355 1_565 S
C2411 C2413 1.415 1_565 S
C2412 C2411 1.355 1_545 S
C2412 C2414 1.419 . S
C2413 C2408 1.425 . S
C2413 C2410 1.409 . S
C2413 C2411 1.415 1_545 S
C2414 H2404 0.930 . S
C2414 C2412 1.419 . S
C2414 C2415 1.362 . S
C2415 H2405 0.930 . S
C2415 C2408 1.409 . S
C2415 C2414 1.362 . S
H2416 C2422 0.930 . S
H2417 C2425 0.930 . S
H2418 C2426 0.930 1_455 S
H2419 C2427 0.930 . S
H2420 C2430 0.930 . S
H2421 C2431 0.930 . S
C2422 H2416 0.930 . S
C2422 C2423 1.355 . S
C2422 C2424 1.415 . S
C2423 C2422 1.355 . S
C2423 C2425 1.419 . S
C2424 C2422 1.415 . S
C2424 C2429 1.425 . S
C2424 C2431 1.409 . S
C2425 H2417 0.930 . S
C2425 C2423 1.419 . S
C2425 C2426 1.362 . S
C2426 H2418 0.930 1_655 S
C2426 C2425 1.362 . S
C2426 C2429 1.409 . S
C2427 H2419 0.930 . S
C2427 C2428 1.355 1_455 S
C2427 C2429 1.415 1_455 S
C2428 C2427 1.355 1_655 S
C2428 C2430 1.419 . S
C2429 C2424 1.425 . S
C2429 C2426 1.409 . S
C2429 C2427 1.415 1_655 S
C2430 H2420 0.930 . S
C2430 C2428 1.419 . S
C2430 C2431 1.362 . S
C2431 H2421 0.930 . S
C2431 C2424 1.409 . S
C2431 C2430 1.362 . S
H2432 C2438 0.930 . S
H2433 C2441 0.930 . S
H2434 C2442 0.930 . S
H2435 C2443 0.930 . S
H2436 C2446 0.930 . S
H2437 C2447 0.930 . S
C2438 H2432 0.930 . S
C2438 C2439 1.355 . S
C2438 C2440 1.415 . S
C2439 C2438 1.355 . S
C2439 C2441 1.419 . S
C2440 C2438 1.415 . S
C2440 C2445 1.425 . S
C2440 C2447 1.409 . S
C2441 H2433 0.930 . S
C2441 C2439 1.419 . S
C2441 C2442 1.362 . S
C2442 H2434 0.930 . S
C2442 C2441 1.362 . S
C2442 C2445 1.409 . S
C2443 H2435 0.930 . S
C2443 C2444 1.355 . S
C2443 C2445 1.415 . S
C2444 C2443 1.355 . S
C2444 C2446 1.419 . S
C2445 C2440 1.425 . S
C2445 C2442 1.409 . S
C2445 C2443 1.415 . S
C2446 H2436 0.930 . S
C2446 C2444 1.419 . S
C2446 C2447 1.362 . S
C2447 H2437 0.930 . S
C2447 C2440 1.409 . S
C2447 C2446 1.362 . S
H2448 C2454 0.930 . S
H2449 C2457 0.930 . S
H2450 C2458 0.941 . S
H2451 C2459 0.930 . S
H2452 C2462 0.930 . S
H2453 C2463 0.930 . S
C2454 H2448 0.930 . S
C2454 C2455 1.355 . S
C2454 C2456 1.415 1_565 S
C2455 C2454 1.355 . S
C2455 C2457 1.419 1_554 S
C2456 C2454 1.415 1_545 S
C2456 C2461 1.354 1_554 S
C2456 C2463 1.409 . S
C2457 H2449 0.930 . S
C2457 C2455 1.419 1_556 S
C2457 C2458 1.348 1_565 S
C2458 H2450 0.941 . S
C2458 C2457 1.348 1_545 S
C2458 C2461 1.461 . S
C2459 H2451 0.930 . S
C2459 C2460 1.343 1_556 S
C2459 C2461 1.449 . S
C2460 C2459 1.343 1_554 S
C2460 C2462 1.439 . S
C2461 C2456 1.354 1_556 S
C2461 C2458 1.461 . S
C2461 C2459 1.449 . S
C2462 H2452 0.930 . S
C2462 C2460 1.439 . S
C2462 C2463 1.362 . S
C2463 H2453 0.930 . S
C2463 C2456 1.409 . S
C2463 C2462 1.362 . S
H2464 C2470 0.937 . S
H2465 C2473 0.930 . S
H2466 C2474 0.930 . S
H2467 C2475 0.930 . S
H2468 C2478 0.937 . S
H2469 C2479 0.937 . S
C2470 H2464 0.937 . S
C2470 C2471 1.351 1_556 S
C2470 C2472 1.407 1_556 S
C2471 C2470 1.351 1_554 S
C2471 C2473 1.427 . S
C2472 C2470 1.407 1_554 S
C2472 C2477 1.445 . S
C2472 C2479 1.403 1_554 S
C2473 H2465 0.930 . S
C2473 C2471 1.427 . S
C2473 C2474 1.362 . S
C2474 H2466 0.930 . S
C2474 C2473 1.362 . S
C2474 C2477 1.409 . S
C2475 H2467 0.930 . S
C2475 C2476 1.355 . S
C2475 C2477 1.415 1_455 S
C2476 C2475 1.355 . S
C2476 C2478 1.419 . S
C2477 C2472 1.445 . S
C2477 C2474 1.409 . S
C2477 C2475 1.415 1_655 S
C2478 H2468 0.937 . S
C2478 C2476 1.419 . S
C2478 C2479 1.359 1_454 S
C2479 H2469 0.937 . S
C2479 C2472 1.403 1_556 S
C2479 C2478 1.359 1_656 S
H2480 C2486 0.930 . S
H2481 C2489 0.919 1_556 S
H2482 C2490 0.930 . S
H2483 C2491 0.964 . S
H2484 C2494 0.930 . S
H2485 C2495 0.930 . S
C2486 H2480 0.930 . S
C2486 C2487 1.355 . S
C2486 C2488 1.415 . S
C2487 C2486 1.355 . S
C2487 C2489 1.423 . S
C2488 C2486 1.415 . S
C2488 C2493 1.439 . S
C2488 C2495 1.409 . S
C2489 H2481 0.919 1_554 S
C2489 C2487 1.423 . S
C2489 C2490 1.360 1_554 S
C2490 H2482 0.930 . S
C2490 C2489 1.360 1_556 S
C2490 C2493 1.402 1_556 S
C2491 H2483 0.964 . S
C2491 C2492 1.339 1_556 S
C2491 C2493 1.404 1_556 S
C2492 C2491 1.339 1_554 S
C2492 C2494 1.444 . S
C2493 C2488 1.439 . S
C2493 C2490 1.402 1_554 S
C2493 C2491 1.404 1_554 S
C2494 H2484 0.930 . S
C2494 C2492 1.444 . S
C2494 C2495 1.362 . S
C2495 H2485 0.930 . S
C2495 C2488 1.409 . S
C2495 C2494 1.362 . S
H2496 C2502 0.930 . S
H2497 C2505 0.930 . S
H2498 C2506 0.930 . S
H2499 C2507 0.930 . S
H2500 C2510 0.930 . S
H2501 C2511 0.930 . S
C2502 H2496 0.930 . S
C2502 C2503 1.355 . S
C2502 C2504 1.415 1_455 S
C2503 C2502 1.355 . S
C2503 C2505 1.419 . S
C2504 C2502 1.415 1_655 S
C2504 C2509 1.425 . S
C2504 C2511 1.409 . S
C2505 H2497 0.930 . S
C2505 C2503 1.419 . S
C2505 C2506 1.362 1_455 S
C2506 H2498 0.930 . S
C2506 C2505 1.362 1_655 S
C2506 C2509 1.409 . S
C2507 H2499 0.930 . S
C2507 C2508 1.355 . S
C2507 C2509 1.415 . S
C2508 C2507 1.355 . S
C2508 C2510 1.419 . S
C2509 C2504 1.425 . S
C2509 C2506 1.409 . S
C2509 C2507 1.415 . S
C2510 H2500 0.930 . S
C2510 C2508 1.419 . S
C2510 C2511 1.362 . S
C2511 H2501 0.930 . S
C2511 C2504 1.409 . S
C2511 C2510 1.362 . S
H2512 C2518 0.930 . S
H2513 C2521 0.930 . S
H2514 C2522 0.930 . S
H2515 C2523 0.930 . S
H2516 C2526 0.930 . S
H2517 C2527 0.930 . S
C2518 H2512 0.930 . S
C2518 C2519 1.355 . S
C2518 C2520 1.415 . S
C2519 C2518 1.355 . S
C2519 C2521 1.419 . S
C2520 C2518 1.415 . S
C2520 C2525 1.425 . S
C2520 C2527 1.409 . S
C2521 H2513 0.930 . S
C2521 C2519 1.419 . S
C2521 C2522 1.362 . S
C2522 H2514 0.930 . S
C2522 C2521 1.362 . S
C2522 C2525 1.409 . S
C2523 H2515 0.930 . S
C2523 C2524 1.355 . S
C2523 C2525 1.415 . S
C2524 C2523 1.355 . S
C2524 C2526 1.419 . S
C2525 C2520 1.425 . S
C2525 C2522 1.409 . S
C2525 C2523 1.415 . S
C2526 H2516 0.930 . S
C2526 C2524 1.419 . S
C2526 C2527 1.362 . S
C2527 H2517 0.930 . S
C2527 C2520 1.409 . S
C2527 C2526 1.362 . S
H2528 C2534 0.930 . S
H2529 C2537 0.930 . S
H2530 C2538 0.930 1_545 S
H2531 C2539 0.930 . S
H2532 C2542 0.930 . S
H2533 C2543 0.930 . S
C2534 H2528 0.930 . S
C2534 C2535 1.355 . S
C2534 C2536 1.415 1_565 S
C2535 C2534 1.355 . S
C2535 C2537 1.419 . S
C2536 C2534 1.415 1_545 S
C2536 C2541 1.425 . S
C2536 C2543 1.409 . S
C2537 H2529 0.930 . S
C2537 C2535 1.419 . S
C2537 C2538 1.362 . S
C2538 H2530 0.930 1_565 S
C2538 C2537 1.362 . S
C2538 C2541 1.409 1_565 S
C2539 H2531 0.930 . S
C2539 C2540 1.355 . S
C2539 C2541 1.415 . S
C2540 C2539 1.355 . S
C2540 C2542 1.419 . S
C2541 C2536 1.425 . S
C2541 C2538 1.409 1_545 S
C2541 C2539 1.415 . S
C2542 H2532 0.930 . S
C2542 C2540 1.419 . S
C2542 C2543 1.362 . S
C2543 H2533 0.930 . S
C2543 C2536 1.409 . S
C2543 C2542 1.362 . S
H2544 C2550 0.930 . S
H2545 C2553 0.930 . S
H2546 C2554 0.930 1_455 S
H2547 C2555 0.930 . S
H2548 C2558 0.930 . S
H2549 C2559 0.930 . S
C2550 H2544 0.930 . S
C2550 C2551 1.355 . S
C2550 C2552 1.415 . S
C2551 C2550 1.355 . S
C2551 C2553 1.419 1_655 S
C2552 C2550 1.415 . S
C2552 C2557 1.425 . S
C2552 C2559 1.409 . S
C2553 H2545 0.930 . S
C2553 C2551 1.419 1_455 S
C2553 C2554 1.362 1_455 S
C2554 H2546 0.930 1_655 S
C2554 C2553 1.362 1_655 S
C2554 C2557 1.409 . S
C2555 H2547 0.930 . S
C2555 C2556 1.355 . S
C2555 C2557 1.415 . S
C2556 C2555 1.355 . S
C2556 C2558 1.419 . S
C2557 C2552 1.425 . S
C2557 C2554 1.409 . S
C2557 C2555 1.415 . S
C2558 H2548 0.930 . S
C2558 C2556 1.419 . S
C2558 C2559 1.362 . S
C2559 H2549 0.930 . S
C2559 C2552 1.409 . S
C2559 C2558 1.362 . S
H2560 C2566 0.930 . S
H2561 C2569 0.930 . S
H2562 C2570 0.930 . S
H2563 C2571 0.930 . S
H2564 C2574 0.930 . S
H2565 C2575 0.930 . S
C2566 H2560 0.930 . S
C2566 C2567 1.355 . S
C2566 C2568 1.415 . S
C2567 C2566 1.355 . S
C2567 C2569 1.419 . S
C2568 C2566 1.415 . S
C2568 C2573 1.425 . S
C2568 C2575 1.409 . S
C2569 H2561 0.930 . S
C2569 C2567 1.419 . S
C2569 C2570 1.362 . S
C2570 H2562 0.930 . S
C2570 C2569 1.362 . S
C2570 C2573 1.409 . S
C2571 H2563 0.930 . S
C2571 C2572 1.355 . S
C2571 C2573 1.415 . S
C2572 C2571 1.355 . S
C2572 C2574 1.419 . S
C2573 C2568 1.425 . S
C2573 C2570 1.409 . S
C2573 C2571 1.415 . S
C2574 H2564 0.930 . S
C2574 C2572 1.419 . S
C2574 C2575 1.362 . S
C2575 H2565 0.930 . S
C2575 C2568 1.409 . S
C2575 C2574 1.362 . S
H2576 C2582 0.930 . S
H2577 C2585 0.930 . S
H2578 C2586 0.930 . S
H2579 C2587 0.930 1_565 S
H2580 C2590 0.930 . S
H2581 C2591 0.930 . S
C2582 H2576 0.930 . S
C2582 C2583 1.355 . S
C2582 C2584 1.415 . S
C2583 C2582 1.355 . S
C2583 C2585 1.419 . S
C2584 C2582 1.415 . S
C2584 C2589 1.425 . S
C2584 C2591 1.409 . S
C2585 H2577 0.930 . S
C2585 C2583 1.419 . S
C2585 C2586 1.362 . S
C2586 H2578 0.930 . S
C2586 C2585 1.362 . S
C2586 C2589 1.409 . S
C2587 H2579 0.930 1_545 S
C2587 C2588 1.355 . S
C2587 C2589 1.415 . S
C2588 C2587 1.355 . S
C2588 C2590 1.419 . S
C2589 C2584 1.425 . S
C2589 C2586 1.409 . S
C2589 C2587 1.415 . S
C2590 H2580 0.930 . S
C2590 C2588 1.419 . S
C2590 C2591 1.362 . S
C2591 H2581 0.930 . S
C2591 C2584 1.409 . S
C2591 C2590 1.362 . S
H2592 C2598 0.930 . S
H2593 C2601 0.930 . S
H2594 C2602 0.930 . S
H2595 C2603 0.930 . S
H2596 C2606 0.930 . S
H2597 C2607 0.930 . S
C2598 H2592 0.930 . S
C2598 C2599 1.355 . S
C2598 C2600 1.415 . S
C2599 C2598 1.355 . S
C2599 C2601 1.419 . S
C2600 C2598 1.415 . S
C2600 C2605 1.425 . S
C2600 C2607 1.409 . S
C2601 H2593 0.930 . S
C2601 C2599 1.419 . S
C2601 C2602 1.362 . S
C2602 H2594 0.930 . S
C2602 C2601 1.362 . S
C2602 C2605 1.409 . S
C2603 H2595 0.930 . S
C2603 C2604 1.355 . S
C2603 C2605 1.415 . S
C2604 C2603 1.355 . S
C2604 C2606 1.419 . S
C2605 C2600 1.425 . S
C2605 C2602 1.409 . S
C2605 C2603 1.415 . S
C2606 H2596 0.930 . S
C2606 C2604 1.419 . S
C2606 C2607 1.362 . S
C2607 H2597 0.930 . S
C2607 C2600 1.409 . S
C2607 C2606 1.362 . S
H2608 C2614 0.930 . S
H2609 C2617 0.930 . S
H2610 C2618 0.930 . S
H2611 C2619 0.930 . S
H2612 C2622 0.930 . S
H2613 C2623 0.930 . S
C2614 H2608 0.930 . S
C2614 C2615 1.355 . S
C2614 C2616 1.415 . S
C2615 C2614 1.355 . S
C2615 C2617 1.419 . S
C2616 C2614 1.415 . S
C2616 C2621 1.425 . S
C2616 C2623 1.409 . S
C2617 H2609 0.930 . S
C2617 C2615 1.419 . S
C2617 C2618 1.362 . S
C2618 H2610 0.930 . S
C2618 C2617 1.362 . S
C2618 C2621 1.409 . S
C2619 H2611 0.930 . S
C2619 C2620 1.355 . S
C2619 C2621 1.415 . S
C2620 C2619 1.355 . S
C2620 C2622 1.419 . S
C2621 C2616 1.425 . S
C2621 C2618 1.409 . S
C2621 C2619 1.415 . S
C2622 H2612 0.930 . S
C2622 C2620 1.419 . S
C2622 C2623 1.362 . S
C2623 H2613 0.930 . S
C2623 C2616 1.409 . S
C2623 C2622 1.362 . S
H2624 C2630 0.930 . S
H2625 C2633 0.930 . S
H2626 C2634 0.930 1_655 S
H2627 C2635 0.930 . S
H2628 C2638 0.930 . S
H2629 C2639 0.930 . S
C2630 H2624 0.930 . S
C2630 C2631 1.355 . S
C2630 C2632 1.415 . S
C2631 C2630 1.355 . S
C2631 C2633 1.419 . S
C2632 C2630 1.415 . S
C2632 C2637 1.425 . S
C2632 C2639 1.409 . S
C2633 H2625 0.930 . S
C2633 C2631 1.419 . S
C2633 C2634 1.362 . S
C2634 H2626 0.930 1_455 S
C2634 C2633 1.362 . S
C2634 C2637 1.409 . S
C2635 H2627 0.930 . S
C2635 C2636 1.355 . S
C2635 C2637 1.415 . S
C2636 C2635 1.355 . S
C2636 C2638 1.419 . S
C2637 C2632 1.425 . S
C2637 C2634 1.409 . S
C2637 C2635 1.415 . S
C2638 H2628 0.930 . S
C2638 C2636 1.419 . S
C2638 C2639 1.362 . S
C2639 H2629 0.930 . S
C2639 C2632 1.409 . S
C2639 C2638 1.362 . S
H2640 C2646 0.930 . S
H2641 C2649 0.930 . S
H2642 C2650 0.930 . S
H2643 C2651 0.930 . S
H2644 C2654 0.930 . S
H2645 C2655 0.930 . S
C2646 H2640 0.930 . S
C2646 C2647 1.355 . S
C2646 C2648 1.415 . S
C2647 C2646 1.355 . S
C2647 C2649 1.419 . S
C2648 C2646 1.415 . S
C2648 C2653 1.425 . S
C2648 C2655 1.409 . S
C2649 H2641 0.930 . S
C2649 C2647 1.419 . S
C2649 C2650 1.362 . S
C2650 H2642 0.930 . S
C2650 C2649 1.362 . S
C2650 C2653 1.409 . S
C2651 H2643 0.930 . S
C2651 C2652 1.355 . S
C2651 C2653 1.415 . S
C2652 C2651 1.355 . S
C2652 C2654 1.419 . S
C2653 C2648 1.425 . S
C2653 C2650 1.409 . S
C2653 C2651 1.415 . S
C2654 H2644 0.930 . S
C2654 C2652 1.419 . S
C2654 C2655 1.362 . S
C2655 H2645 0.930 . S
C2655 C2648 1.409 . S
C2655 C2654 1.362 . S
H2656 C2662 0.930 . S
H2657 C2665 0.930 . S
H2658 C2666 0.930 . S
H2659 C2667 0.930 . S
H2660 C2670 0.930 . S
H2661 C2671 0.930 . S
C2662 H2656 0.930 . S
C2662 C2663 1.355 . S
C2662 C2664 1.415 . S
C2663 C2662 1.355 . S
C2663 C2665 1.419 . S
C2664 C2662 1.415 . S
C2664 C2669 1.425 . S
C2664 C2671 1.409 . S
C2665 H2657 0.930 . S
C2665 C2663 1.419 . S
C2665 C2666 1.362 . S
C2666 H2658 0.930 . S
C2666 C2665 1.362 . S
C2666 C2669 1.409 . S
C2667 H2659 0.930 . S
C2667 C2668 1.355 . S
C2667 C2669 1.415 . S
C2668 C2667 1.355 . S
C2668 C2670 1.419 . S
C2669 C2664 1.425 . S
C2669 C2666 1.409 . S
C2669 C2667 1.415 . S
C2670 H2660 0.930 . S
C2670 C2668 1.419 . S
C2670 C2671 1.362 . S
C2671 H2661 0.930 . S
C2671 C2664 1.409 . S
C2671 C2670 1.362 . S
H2672 C2678 0.930 . S
H2673 C2681 0.930 . S
H2674 C2682 0.930 . S
H2675 C2683 0.930 . S
H2676 C2686 0.930 . S
H2677 C2687 0.930 . S
C2678 H2672 0.930 . S
C2678 C2679 1.355 . S
C2678 C2680 1.415 . S
C2679 C2678 1.355 . S
C2679 C2681 1.419 . S
C2680 C2678 1.415 . S
C2680 C2685 1.425 . S
C2680 C2687 1.409 . S
C2681 H2673 0.930 . S
C2681 C2679 1.419 . S
C2681 C2682 1.362 . S
C2682 H2674 0.930 . S
C2682 C2681 1.362 . S
C2682 C2685 1.409 . S
C2683 H2675 0.930 . S
C2683 C2684 1.355 . S
C2683 C2685 1.415 . S
C2684 C2683 1.355 . S
C2684 C2686 1.419 . S
C2685 C2680 1.425 . S
C2685 C2682 1.409 . S
C2685 C2683 1.415 . S
C2686 H2676 0.930 . S
C2686 C2684 1.419 . S
C2686 C2687 1.362 . S
C2687 H2677 0.930 . S
C2687 C2680 1.409 . S
C2687 C2686 1.362 . S
H2688 C2694 0.930 . S
H2689 C2697 0.930 . S
H2690 C2698 0.930 . S
H2691 C2699 0.930 . S
H2692 C2702 0.930 . S
H2693 C2703 0.930 . S
C2694 H2688 0.930 . S
C2694 C2695 1.355 . S
C2694 C2696 1.415 . S
C2695 C2694 1.355 . S
C2695 C2697 1.419 . S
C2696 C2694 1.415 . S
C2696 C2701 1.425 . S
C2696 C2703 1.409 . S
C2697 H2689 0.930 . S
C2697 C2695 1.419 . S
C2697 C2698 1.362 . S
C2698 H2690 0.930 . S
C2698 C2697 1.362 . S
C2698 C2701 1.409 . S
C2699 H2691 0.930 . S
C2699 C2700 1.355 . S
C2699 C2701 1.415 . S
C2700 C2699 1.355 . S
C2700 C2702 1.419 . S
C2701 C2696 1.425 . S
C2701 C2698 1.409 . S
C2701 C2699 1.415 . S
C2702 H2692 0.930 . S
C2702 C2700 1.419 . S
C2702 C2703 1.362 . S
C2703 H2693 0.930 . S
C2703 C2696 1.409 . S
C2703 C2702 1.362 . S
H2704 C2710 0.930 . S
H2705 C2713 0.930 . S
H2706 C2714 0.930 . S
H2707 C2715 0.930 . S
H2708 C2718 0.930 . S
H2709 C2719 0.930 1_565 S
C2710 H2704 0.930 . S
C2710 C2711 1.355 . S
C2710 C2712 1.415 . S
C2711 C2710 1.355 . S
C2711 C2713 1.419 . S
C2712 C2710 1.415 . S
C2712 C2717 1.425 . S
C2712 C2719 1.409 . S
C2713 H2705 0.930 . S
C2713 C2711 1.419 . S
C2713 C2714 1.362 . S
C2714 H2706 0.930 . S
C2714 C2713 1.362 . S
C2714 C2717 1.409 . S
C2715 H2707 0.930 . S
C2715 C2716 1.355 . S
C2715 C2717 1.415 . S
C2716 C2715 1.355 . S
C2716 C2718 1.419 . S
C2717 C2712 1.425 . S
C2717 C2714 1.409 . S
C2717 C2715 1.415 . S
C2718 H2708 0.930 . S
C2718 C2716 1.419 . S
C2718 C2719 1.362 . S
C2719 H2709 0.930 1_545 S
C2719 C2712 1.409 . S
C2719 C2718 1.362 . S
H2720 C2726 0.930 . S
H2721 C2729 0.930 . S
H2722 C2730 0.930 . S
H2723 C2731 0.930 . S
H2724 C2734 0.930 . S
H2725 C2735 0.930 . S
C2726 H2720 0.930 . S
C2726 C2727 1.355 . S
C2726 C2728 1.415 . S
C2727 C2726 1.355 . S
C2727 C2729 1.419 . S
C2728 C2726 1.415 . S
C2728 C2733 1.425 . S
C2728 C2735 1.409 . S
C2729 H2721 0.930 . S
C2729 C2727 1.419 . S
C2729 C2730 1.362 . S
C2730 H2722 0.930 . S
C2730 C2729 1.362 . S
C2730 C2733 1.409 . S
C2731 H2723 0.930 . S
C2731 C2732 1.355 . S
C2731 C2733 1.415 . S
C2732 C2731 1.355 . S
C2732 C2734 1.419 . S
C2733 C2728 1.425 . S
C2733 C2730 1.409 . S
C2733 C2731 1.415 . S
C2734 H2724 0.930 . S
C2734 C2732 1.419 . S
C2734 C2735 1.362 . S
C2735 H2725 0.930 . S
C2735 C2728 1.409 . S
C2735 C2734 1.362 . S
H2736 C2742 0.930 . S
H2737 C2745 0.930 . S
H2738 C2746 0.930 . S
H2739 C2747 0.930 . S
H2740 C2750 0.930 . S
H2741 C2751 0.930 . S
C2742 H2736 0.930 . S
C2742 C2743 1.355 . S
C2742 C2744 1.415 . S
C2743 C2742 1.355 . S
C2743 C2745 1.419 . S
C2744 C2742 1.415 . S
C2744 C2749 1.425 . S
C2744 C2751 1.409 . S
C2745 H2737 0.930 . S
C2745 C2743 1.419 . S
C2745 C2746 1.362 . S
C2746 H2738 0.930 . S
C2746 C2745 1.362 . S
C2746 C2749 1.409 . S
C2747 H2739 0.930 . S
C2747 C2748 1.355 . S
C2747 C2749 1.415 . S
C2748 C2747 1.355 . S
C2748 C2750 1.419 . S
C2749 C2744 1.425 . S
C2749 C2746 1.409 . S
C2749 C2747 1.415 . S
C2750 H2740 0.930 . S
C2750 C2748 1.419 . S
C2750 C2751 1.362 . S
C2751 H2741 0.930 . S
C2751 C2744 1.409 . S
C2751 C2750 1.362 . S
H2752 C2758 0.930 . S
H2753 C2761 0.930 . S
H2754 C2762 0.930 . S
H2755 C2763 0.930 . S
H2756 C2766 0.930 . S
H2757 C2767 0.930 . S
C2758 H2752 0.930 . S
C2758 C2759 1.355 . S
C2758 C2760 1.415 . S
C2759 C2758 1.355 . S
C2759 C2761 1.419 . S
C2760 C2758 1.415 . S
C2760 C2765 1.425 . S
C2760 C2767 1.409 . S
C2761 H2753 0.930 . S
C2761 C2759 1.419 . S
C2761 C2762 1.362 . S
C2762 H2754 0.930 . S
C2762 C2761 1.362 . S
C2762 C2765 1.409 . S
C2763 H2755 0.930 . S
C2763 C2764 1.355 . S
C2763 C2765 1.415 . S
C2764 C2763 1.355 . S
C2764 C2766 1.419 . S
C2765 C2760 1.425 . S
C2765 C2762 1.409 . S
C2765 C2763 1.415 . S
C2766 H2756 0.930 . S
C2766 C2764 1.419 . S
C2766 C2767 1.362 . S
C2767 H2757 0.930 . S
C2767 C2760 1.409 . S
C2767 C2766 1.362 . S
H2768 C2774 0.930 . S
H2769 C2777 0.930 . S
H2770 C2778 0.930 . S
H2771 C2779 0.930 . S
H2772 C2782 0.930 . S
H2773 C2783 0.930 . S
C2774 H2768 0.930 . S
C2774 C2775 1.355 . S
C2774 C2776 1.415 . S
C2775 C2774 1.355 . S
C2775 C2777 1.419 . S
C2776 C2774 1.415 . S
C2776 C2781 1.425 . S
C2776 C2783 1.409 . S
C2777 H2769 0.930 . S
C2777 C2775 1.419 . S
C2777 C2778 1.362 . S
C2778 H2770 0.930 . S
C2778 C2777 1.362 . S
C2778 C2781 1.409 . S
C2779 H2771 0.930 . S
C2779 C2780 1.355 . S
C2779 C2781 1.415 . S
C2780 C2779 1.355 . S
C2780 C2782 1.419 . S
C2781 C2776 1.425 . S
C2781 C2778 1.409 . S
C2781 C2779 1.415 . S
C2782 H2772 0.930 . S
C2782 C2780 1.419 . S
C2782 C2783 1.362 . S
C2783 H2773 0.930 . S
C2783 C2776 1.409 . S
C2783 C2782 1.362 . S
H2784 C2790 0.930 . S
H2785 C2793 0.930 . S
H2786 C2794 0.930 . S
H2787 C2795 0.930 . S
H2788 C2798 0.936 . S
H2789 C2799 0.911 1_655 S
C2790 H2784 0.930 . S
C2790 C2791 1.355 . S
C2790 C2792 1.415 . S
C2791 C2790 1.355 . S
C2791 C2793 1.419 . S
C2792 C2790 1.415 . S
C2792 C2797 1.425 . S
C2792 C2799 1.416 . S
C2793 H2785 0.930 . S
C2793 C2791 1.419 . S
C2793 C2794 1.362 . S
C2794 H2786 0.930 . S
C2794 C2793 1.362 . S
C2794 C2797 1.409 . S
C2795 H2787 0.930 . S
C2795 C2796 1.355 . S
C2795 C2797 1.415 . S
C2796 C2795 1.355 . S
C2796 C2798 1.413 1_455 S
C2797 C2792 1.425 . S
C2797 C2794 1.409 . S
C2797 C2795 1.415 . S
C2798 H2788 0.936 . S
C2798 C2796 1.413 1_655 S
C2798 C2799 1.365 1_655 S
C2799 H2789 0.911 1_455 S
C2799 C2792 1.416 . S
C2799 C2798 1.365 1_455 S
H2800 C2806 0.930 . S
H2801 C2809 0.930 . S
H2802 C2810 0.930 . S
H2803 C2811 0.930 . S
H2804 C2814 0.930 . S
H2805 C2815 0.930 . S
C2806 H2800 0.930 . S
C2806 C2807 1.355 . S
C2806 C2808 1.415 . S
C2807 C2806 1.355 . S
C2807 C2809 1.419 . S
C2808 C2806 1.415 . S
C2808 C2813 1.425 . S
C2808 C2815 1.409 . S
C2809 H2801 0.930 . S
C2809 C2807 1.419 . S
C2809 C2810 1.362 . S
C2810 H2802 0.930 . S
C2810 C2809 1.362 . S
C2810 C2813 1.409 . S
C2811 H2803 0.930 . S
C2811 C2812 1.355 . S
C2811 C2813 1.415 . S
C2812 C2811 1.355 . S
C2812 C2814 1.419 . S
C2813 C2808 1.425 . S
C2813 C2810 1.409 . S
C2813 C2811 1.415 . S
C2814 H2804 0.930 . S
C2814 C2812 1.419 . S
C2814 C2815 1.362 . S
C2815 H2805 0.930 . S
C2815 C2808 1.409 . S
C2815 C2814 1.362 . S
H2816 C2822 0.930 . S
H2817 C2825 0.930 . S
H2818 C2826 0.930 . S
H2819 C2827 0.930 . S
H2820 C2830 0.930 . S
H2821 C2831 0.930 . S
C2822 H2816 0.930 . S
C2822 C2823 1.355 1_545 S
C2822 C2824 1.415 . S
C2823 C2822 1.355 1_565 S
C2823 C2825 1.419 . S
C2824 C2822 1.415 . S
C2824 C2829 1.425 1_545 S
C2824 C2831 1.409 . S
C2825 H2817 0.930 . S
C2825 C2823 1.419 . S
C2825 C2826 1.362 . S
C2826 H2818 0.930 . S
C2826 C2825 1.362 . S
C2826 C2829 1.409 . S
C2827 H2819 0.930 . S
C2827 C2828 1.355 1_565 S
C2827 C2829 1.415 . S
C2828 C2827 1.355 1_545 S
C2828 C2830 1.419 . S
C2829 C2824 1.425 1_565 S
C2829 C2826 1.409 . S
C2829 C2827 1.415 . S
C2830 H2820 0.930 . S
C2830 C2828 1.419 . S
C2830 C2831 1.362 . S
C2831 H2821 0.930 . S
C2831 C2824 1.409 . S
C2831 C2830 1.362 . S
H2832 C2838 0.930 . S
H2833 C2841 0.930 . S
H2834 C2842 0.930 . S
H2835 C2843 0.930 . S
H2836 C2846 0.930 . S
H2837 C2847 0.930 . S
C2838 H2832 0.930 . S
C2838 C2839 1.355 1_545 S
C2838 C2840 1.415 . S
C2839 C2838 1.355 1_565 S
C2839 C2841 1.419 . S
C2840 C2838 1.415 . S
C2840 C2845 1.425 1_545 S
C2840 C2847 1.409 . S
C2841 H2833 0.930 . S
C2841 C2839 1.419 . S
C2841 C2842 1.362 . S
C2842 H2834 0.930 . S
C2842 C2841 1.362 . S
C2842 C2845 1.409 . S
C2843 H2835 0.930 . S
C2843 C2844 1.355 1_565 S
C2843 C2845 1.415 . S
C2844 C2843 1.355 1_545 S
C2844 C2846 1.419 . S
C2845 C2840 1.425 1_565 S
C2845 C2842 1.409 . S
C2845 C2843 1.415 . S
C2846 H2836 0.930 . S
C2846 C2844 1.419 . S
C2846 C2847 1.362 . S
C2847 H2837 0.930 . S
C2847 C2840 1.409 . S
C2847 C2846 1.362 . S
H2848 C2854 0.930 . S
H2849 C2857 0.930 . S
H2850 C2858 0.930 . S
H2851 C2859 0.930 . S
H2852 C2862 0.930 . S
H2853 C2863 0.930 . S
C2854 H2848 0.930 . S
C2854 C2855 1.355 . S
C2854 C2856 1.415 . S
C2855 C2854 1.355 . S
C2855 C2857 1.419 1_655 S
C2856 C2854 1.415 . S
C2856 C2861 1.425 1_655 S
C2856 C2863 1.409 . S
C2857 H2849 0.930 . S
C2857 C2855 1.419 1_455 S
C2857 C2858 1.362 . S
C2858 H2850 0.930 . S
C2858 C2857 1.362 . S
C2858 C2861 1.409 . S
C2859 H2851 0.930 . S
C2859 C2860 1.355 1_455 S
C2859 C2861 1.415 . S
C2860 C2859 1.355 1_655 S
C2860 C2862 1.419 . S
C2861 C2856 1.425 1_455 S
C2861 C2858 1.409 . S
C2861 C2859 1.415 . S
C2862 H2852 0.930 . S
C2862 C2860 1.419 . S
C2862 C2863 1.362 . S
C2863 H2853 0.930 . S
C2863 C2856 1.409 . S
C2863 C2862 1.362 . S
H2864 C2870 0.930 . S
H2865 C2873 0.930 . S
H2866 C2874 0.930 . S
H2867 C2875 0.930 . S
H2868 C2878 0.930 . S
H2869 C2879 0.930 . S
C2870 H2864 0.930 . S
C2870 C2871 1.355 . S
C2870 C2872 1.415 . S
C2871 C2870 1.355 . S
C2871 C2873 1.419 . S
C2872 C2870 1.415 . S
C2872 C2877 1.425 . S
C2872 C2879 1.409 . S
C2873 H2865 0.930 . S
C2873 C2871 1.419 . S
C2873 C2874 1.362 . S
C2874 H2866 0.930 . S
C2874 C2873 1.362 . S
C2874 C2877 1.409 . S
C2875 H2867 0.930 . S
C2875 C2876 1.355 . S
C2875 C2877 1.415 . S
C2876 C2875 1.355 . S
C2876 C2878 1.419 . S
C2877 C2872 1.425 . S
C2877 C2874 1.409 . S
C2877 C2875 1.415 . S
C2878 H2868 0.930 . S
C2878 C2876 1.419 . S
C2878 C2879 1.362 . S
C2879 H2869 0.930 . S
C2879 C2872 1.409 . S
C2879 C2878 1.362 . S
H2880 C2886 0.930 . S
H2881 C2889 0.930 . S
H2882 C2890 0.930 . S
H2883 C2891 0.930 . S
H2884 C2894 0.930 . S
H2885 C2895 0.930 . S
C2886 H2880 0.930 . S
C2886 C2887 1.355 . S
C2886 C2888 1.415 . S
C2887 C2886 1.355 . S
C2887 C2889 1.419 1_655 S
C2888 C2886 1.415 . S
C2888 C2893 1.425 1_655 S
C2888 C2895 1.409 . S
C2889 H2881 0.930 . S
C2889 C2887 1.419 1_455 S
C2889 C2890 1.362 . S
C2890 H2882 0.930 . S
C2890 C2889 1.362 . S
C2890 C2893 1.409 . S
C2891 H2883 0.930 . S
C2891 C2892 1.355 . S
C2891 C2893 1.415 . S
C2892 C2891 1.355 . S
C2892 C2894 1.419 1_455 S
C2893 C2888 1.425 1_455 S
C2893 C2890 1.409 . S
C2893 C2891 1.415 . S
C2894 H2884 0.930 . S
C2894 C2892 1.419 1_655 S
C2894 C2895 1.362 . S
C2895 H2885 0.930 . S
C2895 C2888 1.409 . S
C2895 C2894 1.362 . S
H2896 C2902 0.930 . S
H2897 C2905 0.930 . S
H2898 C2906 0.930 . S
H2899 C2907 0.930 . S
H2900 C2910 0.930 . S
H2901 C2911 0.930 . S
C2902 H2896 0.930 . S
C2902 C2903 1.355 . S
C2902 C2904 1.415 . S
C2903 C2902 1.355 . S
C2903 C2905 1.419 . S
C2904 C2902 1.415 . S
C2904 C2909 1.425 . S
C2904 C2911 1.409 . S
C2905 H2897 0.930 . S
C2905 C2903 1.419 . S
C2905 C2906 1.362 . S
C2906 H2898 0.930 . S
C2906 C2905 1.362 . S
C2906 C2909 1.409 . S
C2907 H2899 0.930 . S
C2907 C2908 1.355 . S
C2907 C2909 1.415 . S
C2908 C2907 1.355 . S
C2908 C2910 1.419 . S
C2909 C2904 1.425 . S
C2909 C2906 1.409 . S
C2909 C2907 1.415 . S
C2910 H2900 0.930 . S
C2910 C2908 1.419 . S
C2910 C2911 1.362 . S
C2911 H2901 0.930 . S
C2911 C2904 1.409 . S
C2911 C2910 1.362 . S
H2912 C2918 0.930 . S
H2913 C2921 0.930 . S
H2914 C2922 0.930 . S
H2915 C2923 0.930 . S
H2916 C2926 0.930 . S
H2917 C2927 0.930 . S
C2918 H2912 0.930 . S
C2918 C2919 1.355 . S
C2918 C2920 1.415 . S
C2919 C2918 1.355 . S
C2919 C2921 1.419 1_545 S
C2920 C2918 1.415 . S
C2920 C2925 1.425 1_545 S
C2920 C2927 1.409 . S
C2921 H2913 0.930 . S
C2921 C2919 1.419 1_565 S
C2921 C2922 1.362 . S
C2922 H2914 0.930 . S
C2922 C2921 1.362 . S
C2922 C2925 1.409 . S
C2923 H2915 0.930 . S
C2923 C2924 1.355 . S
C2923 C2925 1.415 . S
C2924 C2923 1.355 . S
C2924 C2926 1.419 1_565 S
C2925 C2920 1.425 1_565 S
C2925 C2922 1.409 . S
C2925 C2923 1.415 . S
C2926 H2916 0.930 . S
C2926 C2924 1.419 1_545 S
C2926 C2927 1.362 . S
C2927 H2917 0.930 . S
C2927 C2920 1.409 . S
C2927 C2926 1.362 . S
H2928 C2934 0.930 . S
H2929 C2937 0.930 . S
H2930 C2938 0.930 . S
H2931 C2939 0.930 . S
H2932 C2942 0.930 . S
H2933 C2943 0.930 . S
C2934 H2928 0.930 . S
C2934 C2935 1.355 1_455 S
C2934 C2936 1.415 . S
C2935 C2934 1.355 1_655 S
C2935 C2937 1.419 . S
C2936 C2934 1.415 . S
C2936 C2941 1.425 1_455 S
C2936 C2943 1.409 . S
C2937 H2929 0.930 . S
C2937 C2935 1.419 . S
C2937 C2938 1.362 . S
C2938 H2930 0.930 . S
C2938 C2937 1.362 . S
C2938 C2941 1.409 . S
C2939 H2931 0.930 . S
C2939 C2940 1.355 1_655 S
C2939 C2941 1.415 . S
C2940 C2939 1.355 1_455 S
C2940 C2942 1.419 . S
C2941 C2936 1.425 1_655 S
C2941 C2938 1.409 . S
C2941 C2939 1.415 . S
C2942 H2932 0.930 . S
C2942 C2940 1.419 . S
C2942 C2943 1.362 . S
C2943 H2933 0.930 . S
C2943 C2936 1.409 . S
C2943 C2942 1.362 . S
H2944 C2950 0.930 . S
H2945 C2953 0.930 . S
H2946 C2954 0.930 . S
H2947 C2955 0.930 . S
H2948 C2958 0.930 . S
H2949 C2959 0.930 . S
C2950 H2944 0.930 . S
C2950 C2951 1.355 . S
C2950 C2952 1.415 . S
C2951 C2950 1.355 . S
C2951 C2953 1.419 . S
C2952 C2950 1.415 . S
C2952 C2957 1.425 . S
C2952 C2959 1.409 . S
C2953 H2945 0.930 . S
C2953 C2951 1.419 . S
C2953 C2954 1.362 . S
C2954 H2946 0.930 . S
C2954 C2953 1.362 . S
C2954 C2957 1.409 . S
C2955 H2947 0.930 . S
C2955 C2956 1.355 . S
C2955 C2957 1.415 . S
C2956 C2955 1.355 . S
C2956 C2958 1.419 . S
C2957 C2952 1.425 . S
C2957 C2954 1.409 . S
C2957 C2955 1.415 . S
C2958 H2948 0.930 . S
C2958 C2956 1.419 . S
C2958 C2959 1.362 . S
C2959 H2949 0.930 . S
C2959 C2952 1.409 . S
C2959 C2958 1.362 . S
H2960 C2966 0.930 . S
H2961 C2969 0.930 . S
H2962 C2970 0.930 . S
H2963 C2971 0.930 . S
H2964 C2974 0.930 . S
H2965 C2975 0.930 . S
C2966 H2960 0.930 . S
C2966 C2967 1.355 . S
C2966 C2968 1.415 . S
C2967 C2966 1.355 . S
C2967 C2969 1.419 1_545 S
C2968 C2966 1.415 . S
C2968 C2973 1.425 1_545 S
C2968 C2975 1.409 . S
C2969 H2961 0.930 . S
C2969 C2967 1.419 1_565 S
C2969 C2970 1.362 . S
C2970 H2962 0.930 . S
C2970 C2969 1.362 . S
C2970 C2973 1.409 . S
C2971 H2963 0.930 . S
C2971 C2972 1.355 . S
C2971 C2973 1.415 . S
C2972 C2971 1.355 . S
C2972 C2974 1.419 1_565 S
C2973 C2968 1.425 1_565 S
C2973 C2970 1.409 . S
C2973 C2971 1.415 . S
C2974 H2964 0.930 . S
C2974 C2972 1.419 1_545 S
C2974 C2975 1.362 . S
C2975 H2965 0.930 . S
C2975 C2968 1.409 . S
C2975 C2974 1.362 . S
H2976 C2982 0.930 . S
H2977 C2985 0.930 . S
H2978 C2986 0.930 . S
H2979 C2987 0.930 . S
H2980 C2990 0.930 . S
H2981 C2991 0.930 . S
C2982 H2976 0.930 . S
C2982 C2983 1.355 . S
C2982 C2984 1.415 . S
C2983 C2982 1.355 . S
C2983 C2985 1.419 . S
C2984 C2982 1.415 . S
C2984 C2989 1.425 . S
C2984 C2991 1.409 . S
C2985 H2977 0.930 . S
C2985 C2983 1.419 . S
C2985 C2986 1.362 . S
C2986 H2978 0.930 . S
C2986 C2985 1.362 . S
C2986 C2989 1.409 . S
C2987 H2979 0.930 . S
C2987 C2988 1.355 . S
C2987 C2989 1.415 . S
C2988 C2987 1.355 . S
C2988 C2990 1.419 . S
C2989 C2984 1.425 . S
C2989 C2986 1.409 . S
C2989 C2987 1.415 . S
C2990 H2980 0.930 . S
C2990 C2988 1.419 . S
C2990 C2991 1.362 . S
C2991 H2981 0.930 . S
C2991 C2984 1.409 . S
C2991 C2990 1.362 . S
H2992 C2998 0.930 . S
H2993 C3001 0.930 . S
H2994 C3002 0.930 . S
H2995 C3003 0.930 . S
H2996 C3006 0.930 . S
H2997 C3007 0.930 . S
C2998 H2992 0.930 . S
C2998 C2999 1.355 . S
C2998 C3000 1.415 . S
C2999 C2998 1.355 . S
C2999 C3001 1.419 . S
C3000 C2998 1.415 . S
C3000 C3005 1.425 . S
C3000 C3007 1.409 . S
C3001 H2993 0.930 . S
C3001 C2999 1.419 . S
C3001 C3002 1.362 . S
C3002 H2994 0.930 . S
C3002 C3001 1.362 . S
C3002 C3005 1.409 . S
C3003 H2995 0.930 . S
C3003 C3004 1.355 . S
C3003 C3005 1.415 . S
C3004 C3003 1.355 . S
C3004 C3006 1.419 . S
C3005 C3000 1.425 . S
C3005 C3002 1.409 . S
C3005 C3003 1.415 . S
C3006 H2996 0.930 . S
C3006 C3004 1.419 . S
C3006 C3007 1.362 . S
C3007 H2997 0.930 . S
C3007 C3000 1.409 . S
C3007 C3006 1.362 . S
H3008 C3014 0.930 . S
H3009 C3017 0.930 . S
H3010 C3018 0.930 . S
H3011 C3019 0.930 . S
H3012 C3022 0.930 . S
H3013 C3023 0.930 . S
C3014 H3008 0.930 . S
C3014 C3015 1.355 . S
C3014 C3016 1.415 . S
C3015 C3014 1.355 . S
C3015 C3017 1.419 . S
C3016 C3014 1.415 . S
C3016 C3021 1.425 . S
C3016 C3023 1.409 . S
C3017 H3009 0.930 . S
C3017 C3015 1.419 . S
C3017 C3018 1.362 . S
C3018 H3010 0.930 . S
C3018 C3017 1.362 . S
C3018 C3021 1.409 . S
C3019 H3011 0.930 . S
C3019 C3020 1.355 . S
C3019 C3021 1.415 . S
C3020 C3019 1.355 . S
C3020 C3022 1.419 . S
C3021 C3016 1.425 . S
C3021 C3018 1.409 . S
C3021 C3019 1.415 . S
C3022 H3012 0.930 . S
C3022 C3020 1.419 . S
C3022 C3023 1.362 . S
C3023 H3013 0.930 . S
C3023 C3016 1.409 . S
C3023 C3022 1.362 . S
H3024 C3030 0.930 . S
H3025 C3033 0.930 . S
H3026 C3034 0.930 . S
H3027 C3035 0.930 . S
H3028 C3038 0.930 . S
H3029 C3039 0.930 . S
C3030 H3024 0.930 . S
C3030 C3031 1.355 . S
C3030 C3032 1.415 . S
C3031 C3030 1.355 . S
C3031 C3033 1.419 . S
C3032 C3030 1.415 . S
C3032 C3037 1.425 . S
C3032 C3039 1.409 . S
C3033 H3025 0.930 . S
C3033 C3031 1.419 . S
C3033 C3034 1.362 . S
C3034 H3026 0.930 . S
C3034 C3033 1.362 . S
C3034 C3037 1.409 . S
C3035 H3027 0.930 . S
C3035 C3036 1.355 . S
C3035 C3037 1.415 . S
C3036 C3035 1.355 . S
C3036 C3038 1.419 . S
C3037 C3032 1.425 . S
C3037 C3034 1.409 . S
C3037 C3035 1.415 . S
C3038 H3028 0.930 . S
C3038 C3036 1.419 . S
C3038 C3039 1.362 . S
C3039 H3029 0.930 . S
C3039 C3032 1.409 . S
C3039 C3038 1.362 . S
H3040 C3046 0.930 . S
H3041 C3049 0.930 . S
H3042 C3050 0.930 . S
H3043 C3051 0.930 . S
H3044 C3054 0.930 . S
H3045 C3055 0.930 . S
C3046 H3040 0.930 . S
C3046 C3047 1.355 . S
C3046 C3048 1.415 . S
C3047 C3046 1.355 . S
C3047 C3049 1.419 . S
C3048 C3046 1.415 . S
C3048 C3053 1.425 . S
C3048 C3055 1.409 . S
C3049 H3041 0.930 . S
C3049 C3047 1.419 . S
C3049 C3050 1.362 . S
C3050 H3042 0.930 . S
C3050 C3049 1.362 . S
C3050 C3053 1.409 . S
C3051 H3043 0.930 . S
C3051 C3052 1.355 . S
C3051 C3053 1.415 . S
C3052 C3051 1.355 . S
C3052 C3054 1.419 . S
C3053 C3048 1.425 . S
C3053 C3050 1.409 . S
C3053 C3051 1.415 . S
C3054 H3044 0.930 . S
C3054 C3052 1.419 . S
C3054 C3055 1.362 . S
C3055 H3045 0.930 . S
C3055 C3048 1.409 . S
C3055 C3054 1.362 . S
H3056 C3062 0.930 . S
H3057 C3065 0.930 . S
H3058 C3066 0.930 . S
H3059 C3067 0.930 . S
H3060 C3070 0.930 . S
H3061 C3071 0.930 . S
C3062 H3056 0.930 . S
C3062 C3063 1.355 . S
C3062 C3064 1.415 . S
C3063 C3062 1.355 . S
C3063 C3065 1.419 . S
C3064 C3062 1.415 . S
C3064 C3069 1.425 . S
C3064 C3071 1.409 . S
C3065 H3057 0.930 . S
C3065 C3063 1.419 . S
C3065 C3066 1.362 . S
C3066 H3058 0.930 . S
C3066 C3065 1.362 . S
C3066 C3069 1.409 . S
C3067 H3059 0.930 . S
C3067 C3068 1.355 . S
C3067 C3069 1.415 . S
C3068 C3067 1.355 . S
C3068 C3070 1.419 . S
C3069 C3064 1.425 . S
C3069 C3066 1.409 . S
C3069 C3067 1.415 . S
C3070 H3060 0.930 . S
C3070 C3068 1.419 . S
C3070 C3071 1.362 . S
C3071 H3061 0.930 . S
C3071 C3064 1.409 . S
C3071 C3070 1.362 . S
H3072 C3078 0.930 . S
H3073 C3081 0.930 . S
H3074 C3082 0.930 . S
H3075 C3083 0.930 . S
H3076 C3086 0.930 . S
H3077 C3087 0.930 . S
C3078 H3072 0.930 . S
C3078 C3079 1.355 . S
C3078 C3080 1.415 . S
C3079 C3078 1.355 . S
C3079 C3081 1.419 . S
C3080 C3078 1.415 . S
C3080 C3085 1.425 . S
C3080 C3087 1.409 . S
C3081 H3073 0.930 . S
C3081 C3079 1.419 . S
C3081 C3082 1.362 . S
C3082 H3074 0.930 . S
C3082 C3081 1.362 . S
C3082 C3085 1.409 . S
C3083 H3075 0.930 . S
C3083 C3084 1.355 . S
C3083 C3085 1.415 . S
C3084 C3083 1.355 . S
C3084 C3086 1.419 . S
C3085 C3080 1.425 . S
C3085 C3082 1.409 . S
C3085 C3083 1.415 . S
C3086 H3076 0.930 . S
C3086 C3084 1.419 . S
C3086 C3087 1.362 . S
C3087 H3077 0.930 . S
C3087 C3080 1.409 . S
C3087 C3086 1.362 . S
H3088 C3094 0.930 . S
H3089 C3097 0.930 . S
H3090 C3098 0.930 . S
H3091 C3099 0.930 . S
H3092 C3102 0.930 . S
H3093 C3103 0.930 . S
C3094 H3088 0.930 . S
C3094 C3095 1.355 . S
C3094 C3096 1.415 . S
C3095 C3094 1.355 . S
C3095 C3097 1.419 . S
C3096 C3094 1.415 . S
C3096 C3101 1.425 . S
C3096 C3103 1.409 . S
C3097 H3089 0.930 . S
C3097 C3095 1.419 . S
C3097 C3098 1.362 . S
C3098 H3090 0.930 . S
C3098 C3097 1.362 . S
C3098 C3101 1.409 . S
C3099 H3091 0.930 . S
C3099 C3100 1.355 . S
C3099 C3101 1.415 . S
C3100 C3099 1.355 . S
C3100 C3102 1.419 . S
C3101 C3096 1.425 . S
C3101 C3098 1.409 . S
C3101 C3099 1.415 . S
C3102 H3092 0.930 . S
C3102 C3100 1.419 . S
C3102 C3103 1.362 . S
C3103 H3093 0.930 . S
C3103 C3096 1.409 . S
C3103 C3102 1.362 . S
H3104 C3110 0.930 . S
H3105 C3113 0.930 . S
H3106 C3114 0.930 . S
H3107 C3115 0.930 . S
H3108 C3118 0.930 . S
H3109 C3119 0.930 . S
C3110 H3104 0.930 . S
C3110 C3111 1.355 . S
C3110 C3112 1.415 . S
C3111 C3110 1.355 . S
C3111 C3113 1.419 . S
C3112 C3110 1.415 . S
C3112 C3117 1.425 . S
C3112 C3119 1.409 . S
C3113 H3105 0.930 . S
C3113 C3111 1.419 . S
C3113 C3114 1.362 . S
C3114 H3106 0.930 . S
C3114 C3113 1.362 . S
C3114 C3117 1.409 . S
C3115 H3107 0.930 . S
C3115 C3116 1.355 . S
C3115 C3117 1.415 . S
C3116 C3115 1.355 . S
C3116 C3118 1.419 . S
C3117 C3112 1.425 . S
C3117 C3114 1.409 . S
C3117 C3115 1.415 . S
C3118 H3108 0.930 . S
C3118 C3116 1.419 . S
C3118 C3119 1.362 . S
C3119 H3109 0.930 . S
C3119 C3112 1.409 . S
C3119 C3118 1.362 . S
H3120 C3126 0.930 . S
H3121 C3129 0.930 . S
H3122 C3130 0.930 . S
H3123 C3131 0.930 . S
H3124 C3134 0.930 . S
H3125 C3135 0.930 . S
C3126 H3120 0.930 . S
C3126 C3127 1.355 . S
C3126 C3128 1.415 . S
C3127 C3126 1.355 . S
C3127 C3129 1.419 . S
C3128 C3126 1.415 . S
C3128 C3133 1.425 . S
C3128 C3135 1.409 . S
C3129 H3121 0.930 . S
C3129 C3127 1.419 . S
C3129 C3130 1.362 . S
C3130 H3122 0.930 . S
C3130 C3129 1.362 . S
C3130 C3133 1.409 . S
C3131 H3123 0.930 . S
C3131 C3132 1.355 . S
C3131 C3133 1.415 . S
C3132 C3131 1.355 . S
C3132 C3134 1.419 . S
C3133 C3128 1.425 . S
C3133 C3130 1.409 . S
C3133 C3131 1.415 . S
C3134 H3124 0.930 . S
C3134 C3132 1.419 . S
C3134 C3135 1.362 . S
C3135 H3125 0.930 . S
C3135 C3128 1.409 . S
C3135 C3134 1.362 . S
H3136 C3142 0.930 . S
H3137 C3145 0.930 . S
H3138 C3146 0.930 . S
H3139 C3147 0.930 . S
H3140 C3150 0.930 . S
H3141 C3151 0.930 . S
C3142 H3136 0.930 . S
C3142 C3143 1.355 . S
C3142 C3144 1.415 . S
C3143 C3142 1.355 . S
C3143 C3145 1.419 . S
C3144 C3142 1.415 . S
C3144 C3149 1.425 . S
C3144 C3151 1.409 . S
C3145 H3137 0.930 . S
C3145 C3143 1.419 . S
C3145 C3146 1.362 . S
C3146 H3138 0.930 . S
C3146 C3145 1.362 . S
C3146 C3149 1.409 . S
C3147 H3139 0.930 . S
C3147 C3148 1.355 . S
C3147 C3149 1.415 . S
C3148 C3147 1.355 . S
C3148 C3150 1.419 . S
C3149 C3144 1.425 . S
C3149 C3146 1.409 . S
C3149 C3147 1.415 . S
C3150 H3140 0.930 . S
C3150 C3148 1.419 . S
C3150 C3151 1.362 . S
C3151 H3141 0.930 . S
C3151 C3144 1.409 . S
C3151 C3150 1.362 . S
H3152 C3158 0.930 . S
H3153 C3161 0.930 . S
H3154 C3162 0.930 . S
H3155 C3163 0.930 . S
H3156 C3166 0.930 . S
H3157 C3167 0.930 . S
C3158 H3152 0.930 . S
C3158 C3159 1.355 . S
C3158 C3160 1.415 . S
C3159 C3158 1.355 . S
C3159 C3161 1.419 . S
C3160 C3158 1.415 . S
C3160 C3165 1.425 . S
C3160 C3167 1.409 . S
C3161 H3153 0.930 . S
C3161 C3159 1.419 . S
C3161 C3162 1.362 . S
C3162 H3154 0.930 . S
C3162 C3161 1.362 . S
C3162 C3165 1.409 . S
C3163 H3155 0.930 . S
C3163 C3164 1.355 . S
C3163 C3165 1.415 . S
C3164 C3163 1.355 . S
C3164 C3166 1.419 . S
C3165 C3160 1.425 . S
C3165 C3162 1.409 . S
C3165 C3163 1.415 . S
C3166 H3156 0.930 . S
C3166 C3164 1.419 . S
C3166 C3167 1.362 . S
C3167 H3157 0.930 . S
C3167 C3160 1.409 . S
C3167 C3166 1.362 . S
C1447 C9 1.751 . S
C1452 C99 1.797 . S
C1463 C19 1.791 . S
C1468 C49 1.746 1_545 S
C1479 C89 1.672 1_655 S
C1484 C59 1.807 . S
C1495 C129 1.747 . S
C1500 C179 1.877 . S
C1511 C219 1.892 . S
C1516 C169 1.804 1_565 S
C1527 C209 1.744 1_455 S
C1532 C139 1.880 . S
C1543 C258 1.674 . S
C1548 C330 1.825 . S
C1559 C298 1.699 1_565 S
C1564 C250 1.789 . S
C1575 C338 1.750 1_455 S
C1580 C290 1.795 . S
C1591 C378 1.759 . S
C1596 C410 1.899 . S
C1607 C450 1.894 . S
C1612 C418 1.800 1_545 S
C1623 C370 1.876 . S
C1628 C458 1.820 1_655 S
C1639 C579 1.885 . S
C1644 C489 1.785 . S
C1655 C529 1.796 . S
C1660 C499 1.850 . S
C1671 C539 1.857 . S
C1676 C569 1.809 . S
C1687 C609 1.794 . S
C1692 C659 1.881 . S
C1703 C699 1.909 . S
C1708 C649 1.820 . S
C1719 C619 1.879 . S
C1724 C689 1.799 . S
C1735 C738 1.700 . S
C1740 C810 1.844 . S
C1751 C778 1.773 . S
C1756 C730 1.820 . S
C1767 C770 1.817 . S
C1772 C818 1.753 . S
C1783 C890 1.741 . S
C1788 C858 1.674 1_554 S
C1799 C898 1.635 1_554 S
C1804 C930 1.717 . S
C1815 C850 1.750 . S
C1820 C938 1.614 1_554 S
C1831 C969 1.710 . S
C1836 C1059 1.832 . S
C1847 C1009 1.779 . S
C1852 C979 1.838 . S
C1863 C1049 1.778 . S
C1868 C1019 1.823 . S
C1879 C1089 1.626 1_556 S
C1884 C1139 1.721 . S
C1895 C1129 1.593 1_556 S
C1900 C1179 1.739 . S
C1911 C1169 1.630 1_556 S
C1916 C1099 1.751 . S
C1927 C1218 1.745 . S
C1932 C1290 1.889 . S
C1943 C1258 1.763 . S
C1948 C1210 1.852 . S
C1959 C1250 1.880 . S
C1964 C1298 1.794 . S
C1975 C1338 1.794 . S
C1980 C1370 1.917 . S
C1991 C1378 1.822 . S
C1996 C1410 1.909 . S
C2007 C1330 1.891 . S
C2012 C1418 1.770 . S
C2023 C10 1.831 . S
C2028 C809 1.848 . S
C2039 C729 1.824 . S
C2044 C50 1.864 . S
C2055 C90 1.833 . S
C2060 C769 1.849 . S
C2071 C130 1.762 . S
C2076 C1369 1.759 . S
C2087 C1409 1.714 . S
C2092 C170 1.768 . S
C2103 C210 1.747 . S
C2108 C1329 1.757 . S
C2119 C1058 1.845 . S
C2124 C259 1.829 . S
C2135 C299 1.829 . S
C2140 C978 1.845 . S
C2151 C339 1.823 . S
C2156 C1018 1.830 . S
C2167 C658 1.759 . S
C2172 C379 1.754 . S
C2183 C698 1.722 . S
C2188 C419 1.772 . S
C2199 C618 1.721 . S
C2204 C459 1.772 . S
C2215 C490 1.814 . S
C2220 C1289 1.765 . S
C2231 C530 1.782 . S
C2236 C1209 1.794 . S
C2247 C1249 1.808 . S
C2252 C570 1.805 . S
C2263 C409 1.775 . S
C2268 C610 1.812 1_455 S
C2279 C449 1.774 . S
C2284 C650 1.767 . S
C2295 C369 1.787 . S
C2300 C690 1.813 1_565 S
C2311 C98 1.806 . S
C2316 C739 1.822 1_565 S
C2327 C779 1.857 1_455 S
C2332 C18 1.815 . S
C2343 C819 1.819 . S
C2348 C58 1.812 . S
C2359 C1138 1.764 . S
C2364 C859 1.818 . S
C2375 C1178 1.769 . S
C2380 C899 1.833 . S
C2391 C939 1.810 . S
C2396 C1098 1.802 1_554 S
C2407 C329 1.819 . S
C2412 C970 1.858 1_545 S
C2423 C249 1.834 . S
C2428 C1010 1.860 1_655 S
C2439 C289 1.801 . S
C2444 C1050 1.836 . S
C2455 C1090 1.797 . S
C2460 C889 1.789 . S
C2471 C929 1.785 . S
C2476 C1130 1.796 . S
C2487 C1170 1.828 . S
C2492 C849 1.768 . S
C2503 C1219 1.789 . S
C2508 C578 1.802 . S
C2519 C1259 1.776 . S
C2524 C498 1.770 . S
C2535 C1299 1.821 . S
C2540 C538 1.782 . S
C2551 C1339 1.765 1_655 S
C2556 C178 1.756 . S
C2567 C218 1.746 . S
C2572 C1379 1.798 . S
C2583 C138 1.743 . S
C2588 C1419 1.793 1_545 S
C2599 C1166 2.269 . S
C2604 C6 2.256 . S
C2615 C1086 2.308 . S
C2620 C46 2.281 . S
C2631 C86 2.284 . S
C2636 C1126 2.249 . S
C2647 C526 2.514 . S
C2652 C126 2.499 . S
C2663 C166 2.510 . S
C2668 C566 2.491 . S
C2679 C206 2.499 . S
C2684 C486 2.478 . S
C2695 C255 2.294 . S
C2700 C935 2.252 . S
C2711 C295 2.286 . S
C2716 C855 2.291 . S
C2727 C335 2.290 . S
C2732 C895 2.293 . S
C2743 C1255 2.514 . S
C2748 C375 2.500 . S
C2759 C1295 2.479 . S
C2764 C415 2.475 . S
C2775 C1215 2.492 . S
C2780 C455 2.472 . S
C2791 C606 2.531 1_455 S
C2796 C1006 2.556 . S
C2807 C646 2.519 . S
C2812 C1046 2.544 . S
C2823 C686 2.554 1_565 S
C2828 C966 2.552 1_545 S
C2839 C735 2.539 1_565 S
C2844 C1415 2.555 1_545 S
C2855 C1335 2.517 1_655 S
C2860 C775 2.533 . S
C2871 C815 2.521 . S
C2876 C1375 2.525 . S
C2887 C175 1.205 . S
C2892 C15 1.192 . S
C2903 C215 1.184 . S
C2908 C55 1.207 . S
C2919 C135 1.208 . S
C2924 C95 1.184 . S
C2935 C246 1.193 . S
C2940 C406 1.176 . S
C2951 C446 1.183 . S
C2956 C286 1.207 . S
C2967 C326 1.185 . S
C2972 C366 1.208 . S
C2983 C655 1.261 . S
C2988 C495 1.282 . S
C2999 C695 1.254 . S
C3004 C535 1.265 . S
C3015 C615 1.263 . S
C3020 C575 1.283 . S
C3031 C886 1.501 . S
C3036 C726 1.530 . S
C3047 C766 1.536 . S
C3052 C926 1.541 . S
C3063 C806 1.525 . S
C3068 C846 1.504 . S
C3079 C975 1.515 . S
C3084 C1135 1.516 . S
C3095 C1175 1.535 . S
C3100 C1015 1.539 . S
C3111 C1055 1.531 . S
C3116 C1095 1.505 . S
C3127 C1206 1.251 . S
C3132 C1366 1.276 . S
C3143 C1406 1.257 . S
C3148 C1246 1.262 . S
C3159 C1286 1.256 . S
C3164 C1326 1.283 . S
