# Generated by pormake.
# Topology uol, (4)-cn, num edge types: 1
# Building blocks:
#     Node 0, Type 0, BuildingBlock: CEKHIL_clean_sbu_0, # of connection points: 4
#     Node 1, Type 0, BuildingBlock: CEKHIL_clean_sbu_0, # of connection points: 4
#     Node 2, Type 0, BuildingBlock: CEKHIL_clean_sbu_0, # of connection points: 4
#     Node 3, Type 0, BuildingBlock: CEKHIL_clean_sbu_0, # of connection points: 4
#     Node 4, Type 0, BuildingBlock: CEKHIL_clean_sbu_0, # of connection points: 4
#     Node 5, Type 0, BuildingBlock: CEKHIL_clean_sbu_0, # of connection points: 4
#     Node 6, Type 0, BuildingBlock: CEKHIL_clean_sbu_0, # of connection points: 4
#     Node 7, Type 0, BuildingBlock: CEKHIL_clean_sbu_0, # of connection points: 4
#     Node 8, Type 0, BuildingBlock: CEKHIL_clean_sbu_0, # of connection points: 4
#     Node 9, Type 0, BuildingBlock: CEKHIL_clean_sbu_0, # of connection points: 4
#     Node 10, Type 0, BuildingBlock: CEKHIL_clean_sbu_0, # of connection points: 4
#     Node 11, Type 0, BuildingBlock: CEKHIL_clean_sbu_0, # of connection points: 4
#     Edge 12, Type (0, 0), BuildingBlock: EZIPEK_clean_linker_0, # of connection points: 2
#     Edge 13, Type (0, 0), BuildingBlock: EZIPEK_clean_linker_0, # of connection points: 2
#     Edge 14, Type (0, 0), BuildingBlock: EZIPEK_clean_linker_0, # of connection points: 2
#     Edge 15, Type (0, 0), BuildingBlock: EZIPEK_clean_linker_0, # of connection points: 2
#     Edge 16, Type (0, 0), BuildingBlock: EZIPEK_clean_linker_0, # of connection points: 2
#     Edge 17, Type (0, 0), BuildingBlock: EZIPEK_clean_linker_0, # of connection points: 2
#     Edge 18, Type (0, 0), BuildingBlock: EZIPEK_clean_linker_0, # of connection points: 2
#     Edge 19, Type (0, 0), BuildingBlock: EZIPEK_clean_linker_0, # of connection points: 2
#     Edge 20, Type (0, 0), BuildingBlock: EZIPEK_clean_linker_0, # of connection points: 2
#     Edge 21, Type (0, 0), BuildingBlock: EZIPEK_clean_linker_0, # of connection points: 2
#     Edge 22, Type (0, 0), BuildingBlock: EZIPEK_clean_linker_0, # of connection points: 2
#     Edge 23, Type (0, 0), BuildingBlock: EZIPEK_clean_linker_0, # of connection points: 2
#     Edge 24, Type (0, 0), BuildingBlock: EZIPEK_clean_linker_0, # of connection points: 2
#     Edge 25, Type (0, 0), BuildingBlock: EZIPEK_clean_linker_0, # of connection points: 2
#     Edge 26, Type (0, 0), BuildingBlock: EZIPEK_clean_linker_0, # of connection points: 2
#     Edge 27, Type (0, 0), BuildingBlock: EZIPEK_clean_linker_0, # of connection points: 2
#     Edge 28, Type (0, 0), BuildingBlock: EZIPEK_clean_linker_0, # of connection points: 2
#     Edge 29, Type (0, 0), BuildingBlock: EZIPEK_clean_linker_0, # of connection points: 2
#     Edge 30, Type (0, 0), BuildingBlock: EZIPEK_clean_linker_0, # of connection points: 2
#     Edge 31, Type (0, 0), BuildingBlock: EZIPEK_clean_linker_0, # of connection points: 2
#     Edge 32, Type (0, 0), BuildingBlock: EZIPEK_clean_linker_0, # of connection points: 2
#     Edge 33, Type (0, 0), BuildingBlock: EZIPEK_clean_linker_0, # of connection points: 2
#     Edge 34, Type (0, 0), BuildingBlock: EZIPEK_clean_linker_0, # of connection points: 2
#     Edge 35, Type (0, 0), BuildingBlock: EZIPEK_clean_linker_0, # of connection points: 2
# Relax obj value: 0.132
# Max RMSD: 0.172
# Mean RMSD: 0.172
data_MOF--net-uol--node1-CEKHIL_clean_sbu_0--edge1-EZIPEK_clean_linker_0
_symmetry_space_group_name_H-M    P1
_symmetry_Int_Tables_number       1
_symmetry_cell_setting            triclinic
loop_
_symmetry_equiv_pos_as_xyz
'x, y, z'
_cell_length_a     23.923384
_cell_length_b     23.921122
_cell_length_c     46.925452
_cell_angle_alpha  90.009391
_cell_angle_beta   89.966087
_cell_angle_gamma 120.05219
loop_
_atom_site_label
_atom_site_type_symbol
_atom_site_fract_x
_atom_site_fract_y
_atom_site_fract_z
_atom_type_partial_charge
Co0 Co 0.14518 0.35428 0.09063 0.0
O1 O 0.11058 0.40288 0.07286 0.0
O2 O 0.17156 0.43323 0.11161 0.0
C3 C 0.18327 0.33359 0.05021 0.0
O4 O 0.18948 0.31738 0.11485 0.0
Co5 Co 0.08631 0.20963 0.07521 0.0
O6 O 0.14543 0.21115 0.10539 0.0
C7 C 0.0167 0.24826 0.11459 0.0
C8 C 0.14063 0.44626 0.09234 0.0
C9 C 0.183 0.26148 0.11973 0.0
O10 O 0.06585 0.3058 0.11536 0.0
O11 O 0.01129 0.20639 0.09615 0.0
O12 O 0.21649 0.38833 0.06329 0.0
O13 O 0.12584 0.29624 0.06006 0.0
Co14 Co 0.77603 0.13292 0.25082 0.0
O15 O 0.69151 0.08785 0.23338 0.0
O16 O 0.72003 0.15825 0.26888 0.0
C17 C 0.8344 0.16343 0.20975 0.0
O18 O 0.85668 0.19062 0.27374 0.0
Co19 Co 0.8755 0.08625 0.24281 0.0
O20 O 0.9317 0.16127 0.26739 0.0
C21 C 0.76958 0.01982 0.28428 0.0
C22 C 0.67623 0.12026 0.25086 0.0
C23 C 0.91187 0.19618 0.27916 0.0
O24 O 0.75119 0.06132 0.27976 0.0
O25 O 0.81441 0.01809 0.27007 0.0
O26 O 0.80732 0.19506 0.21935 0.0
O27 O 0.81971 0.11119 0.22366 0.0
Co28 Co 0.64245 0.79074 0.42391 0.0
O29 O 0.59538 0.71174 0.40224 0.0
O30 O 0.55821 0.73732 0.44042 0.0
C31 C 0.67783 0.85831 0.3856 0.0
O32 O 0.67231 0.86608 0.45169 0.0
Co33 Co 0.78883 0.87713 0.42056 0.0
O34 O 0.78015 0.9299 0.45078 0.0
C35 C 0.73595 0.7625 0.45748 0.0
C36 C 0.54851 0.69636 0.42021 0.0
C37 C 0.7249 0.91505 0.46054 0.0
O38 O 0.67898 0.74852 0.44953 0.0
O39 O 0.78691 0.81113 0.44755 0.0
O40 O 0.62041 0.83714 0.39603 0.0
O41 O 0.71101 0.8349 0.39717 0.0
Co42 Co 0.85296 0.64601 0.59439 0.0
O43 O 0.88833 0.6002 0.57456 0.0
O44 O 0.82728 0.56489 0.61322 0.0
C45 C 0.81542 0.67133 0.55478 0.0
O46 O 0.80778 0.67822 0.62094 0.0
Co47 Co 0.90875 0.7913 0.58366 0.0
O48 O 0.84731 0.78458 0.61393 0.0
C49 C 0.98151 0.74914 0.6192 0.0
C50 C 0.85916 0.55483 0.59335 0.0
C51 C 0.81093 0.73207 0.62714 0.0
O52 O 0.93238 0.69157 0.61931 0.0
O53 O 0.98557 0.79277 0.60212 0.0
O54 O 0.78188 0.61549 0.56697 0.0
O55 O 0.87236 0.708 0.56525 0.0
Co56 Co 0.22199 0.85808 0.75534 0.0
O57 O 0.30623 0.89412 0.73792 0.0
O58 O 0.27404 0.8311 0.77613 0.0
C59 C 0.16522 0.82521 0.71374 0.0
O60 O 0.14031 0.81198 0.77955 0.0
Co61 Co 0.12592 0.90616 0.74308 0.0
O62 O 0.06259 0.81692 0.75572 0.0
C63 C 0.22941 0.97315 0.78646 0.0
C64 C 0.31911 0.86402 0.75758 0.0
C65 C 0.08068 0.79575 0.77649 0.0
O66 O 0.25226 0.93573 0.78083 0.0
O67 O 0.18062 0.96992 0.77354 0.0
O68 O 0.18644 0.79065 0.72592 0.0
O69 O 0.18259 0.87969 0.72617 0.0
Co70 Co 0.35942 0.21373 0.92159 0.0
O71 O 0.40663 0.29381 0.90077 0.0
O72 O 0.4422 0.26771 0.93932 0.0
C73 C 0.32816 0.14859 0.88296 0.0
O74 O 0.3273 0.13622 0.94875 0.0
Co75 Co 0.21332 0.1242 0.91562 0.0
O76 O 0.22249 0.06422 0.9414 0.0
C77 C 0.26216 0.23527 0.95507 0.0
C78 C 0.45235 0.30931 0.91932 0.0
C79 C 0.27546 0.08242 0.95438 0.0
O80 O 0.31968 0.2535 0.94644 0.0
O81 O 0.21269 0.18487 0.94521 0.0
O82 O 0.38519 0.17036 0.8939 0.0
O83 O 0.29337 0.17056 0.89412 0.0
Co84 Co 0.65819 0.86863 0.75752 0.0
O85 O 0.61026 0.904 0.77581 0.0
O86 O 0.57508 0.83546 0.73951 0.0
C87 C 0.69116 0.84113 0.79826 0.0
O88 O 0.68983 0.81877 0.73366 0.0
Co89 Co 0.80439 0.93342 0.76356 0.0
O90 O 0.79779 0.87507 0.73177 0.0
C91 C 0.75454 0.99131 0.7244 0.0
C92 C 0.56439 0.86982 0.7578 0.0
C93 C 0.74379 0.82838 0.72351 0.0
O94 O 0.69728 0.94339 0.72912 0.0
O95 O 0.80422 0.99989 0.73811 0.0
O96 O 0.63405 0.80407 0.78772 0.0
O97 O 0.72444 0.89643 0.78552 0.0
Co98 Co 0.79644 0.63625 0.91158 0.0
O99 O 0.71502 0.59261 0.93179 0.0
O100 O 0.73569 0.5603 0.89084 0.0
C101 C 0.85868 0.6513 0.95047 0.0
O102 O 0.87193 0.66427 0.88408 0.0
Co103 Co 0.90197 0.77681 0.92486 0.0
O104 O 0.95224 0.76434 0.89411 0.0
C105 C 0.78786 0.75322 0.89187 0.0
C106 C 0.69563 0.5498 0.91157 0.0
C107 C 0.92797 0.71316 0.87903 0.0
O108 O 0.76958 0.69257 0.88997 0.0
O109 O 0.83287 0.79205 0.90861 0.0
O110 O 0.8318 0.5964 0.93709 0.0
O111 O 0.84426 0.69326 0.94127 0.0
Co112 Co 0.14739 0.78672 0.08313 0.0
O113 O 0.11052 0.70492 0.10285 0.0
O114 O 0.18326 0.7361 0.06838 0.0
C115 C 0.16931 0.84918 0.12285 0.0
O116 O 0.19844 0.8664 0.05799 0.0
Co117 Co 0.08156 0.86804 0.08442 0.0
O118 O 0.14684 0.92285 0.05559 0.0
C119 C 0.02801 0.75557 0.04699 0.0
C120 C 0.14658 0.69195 0.08663 0.0
C121 C 0.19218 0.91298 0.04792 0.0
O122 O 0.07547 0.74717 0.05375 0.0
O123 O 0.01839 0.79827 0.05866 0.0
O124 O 0.20841 0.82993 0.11416 0.0
O125 O 0.11555 0.82606 0.1088 0.0
Co126 Co 0.34765 0.13363 0.24912 0.0
O127 O 0.39359 0.09611 0.26723 0.0
O128 O 0.4237 0.15367 0.22733 0.0
C129 C 0.33094 0.177 0.28879 0.0
O130 O 0.31529 0.18122 0.22432 0.0
Co131 Co 0.20437 0.086 0.26446 0.0
O132 O 0.21148 0.14829 0.23471 0.0
C133 C 0.23434 0.01131 0.22364 0.0
C134 C 0.43548 0.12227 0.24678 0.0
C135 C 0.26215 0.18089 0.21971 0.0
O136 O 0.29486 0.05344 0.22537 0.0
O137 O 0.19099 0.01228 0.23929 0.0
O138 O 0.38612 0.20633 0.2757 0.0
O139 O 0.29064 0.1197 0.27958 0.0
Co140 Co 0.20493 0.36854 0.40792 0.0
O141 O 0.28447 0.41215 0.42942 0.0
O142 O 0.26215 0.4515 0.39106 0.0
C143 C 0.13786 0.3374 0.44655 0.0
O144 O 0.12972 0.34244 0.38025 0.0
Co145 Co 0.11206 0.22333 0.41221 0.0
O146 O 0.06423 0.235 0.3805 0.0
C147 C 0.22783 0.26827 0.37698 0.0
C148 C 0.30244 0.45909 0.41125 0.0
C149 C 0.08078 0.29071 0.37069 0.0
O150 O 0.24311 0.32696 0.38266 0.0
O151 O 0.179 0.21949 0.3881 0.0
O152 O 0.16175 0.39494 0.43584 0.0
O153 O 0.15821 0.30159 0.43502 0.0
Co154 Co 0.85798 0.21728 0.58376 0.0
O155 O 0.89718 0.30027 0.60255 0.0
O156 O 0.82481 0.26931 0.56795 0.0
C157 C 0.83227 0.15516 0.62386 0.0
O158 O 0.80435 0.13671 0.55971 0.0
Co159 Co 0.92061 0.13358 0.58663 0.0
O160 O 0.85451 0.07887 0.55794 0.0
C161 C 0.97728 0.24306 0.54808 0.0
C162 C 0.86174 0.31357 0.58608 0.0
C163 C 0.80934 0.08901 0.55026 0.0
O164 O 0.93004 0.25258 0.55403 0.0
O165 O 0.98597 0.20081 0.56072 0.0
O166 O 0.79596 0.17738 0.61478 0.0
O167 O 0.88676 0.17671 0.61044 0.0
C168 C 0.14444 0.60123 0.11524 0.0
C169 C 0.1448 0.6289 0.08836 0.0
C170 C 0.1527 0.5419 0.06478 0.0
C171 C 0.14262 0.50937 0.09128 0.0
N172 N 0.11357 0.50243 0.14104 0.0
N173 N 0.13102 0.61415 0.0373 0.0
C174 C 0.13404 0.53733 0.11637 0.0
C175 C 0.14364 0.59599 0.06301 0.0
N176 N 0.15716 0.63668 0.13963 0.0
N177 N 0.17395 0.52349 0.04151 0.0
H178 H 0.11963 0.65067 0.03509 0.0
H179 H 0.12412 0.58763 0.01869 0.0
H180 H 0.18604 0.48727 0.04217 0.0
H181 H 0.18718 0.54963 0.02252 0.0
H182 H 0.16304 0.62034 0.15938 0.0
H183 H 0.16953 0.68504 0.13962 0.0
H184 H 0.10088 0.51894 0.1591 0.0
H185 H 0.10236 0.45443 0.14251 0.0
C186 C 0.61464 0.17825 0.24414 0.0
C187 C 0.61397 0.11926 0.24863 0.0
C188 C 0.49551 0.06083 0.2478 0.0
C189 C 0.49663 0.12073 0.24689 0.0
N190 N 0.5579 0.23718 0.25033 0.0
N191 N 0.55414 0.0051 0.25881 0.0
C192 C 0.55635 0.1797 0.24668 0.0
C193 C 0.55447 0.06055 0.25147 0.0
N194 N 0.67053 0.23261 0.23635 0.0
N195 N 0.43851 0.00437 0.24417 0.0
H196 H 0.5963 0.0032 0.26198 0.0
H197 H 0.5123 0.96236 0.26415 0.0
H198 H 0.39464 0.00284 0.24093 0.0
H199 H 0.43557 0.9597 0.24174 0.0
H200 H 0.67211 0.27507 0.22992 0.0
H201 H 0.71411 0.23341 0.23331 0.0
H202 H 0.60055 0.28083 0.25344 0.0
H203 H 0.51658 0.24072 0.25325 0.0
C204 C 0.48369 0.57497 0.41817 0.0
C205 C 0.48589 0.63538 0.41751 0.0
C206 C 0.36761 0.57961 0.41603 0.0
C207 C 0.36566 0.5195 0.41372 0.0
N208 N 0.42236 0.46061 0.40735 0.0
N209 N 0.43084 0.69552 0.40994 0.0
C210 C 0.42386 0.51727 0.41338 0.0
C211 C 0.42807 0.63783 0.41482 0.0
N212 N 0.53812 0.5724 0.42451 0.0
N213 N 0.31195 0.58117 0.42059 0.0
H214 H 0.47418 0.73918 0.40821 0.0
H215 H 0.39048 0.69924 0.40479 0.0
H216 H 0.26675 0.53962 0.42235 0.0
H217 H 0.31135 0.62335 0.42547 0.0
H218 H 0.53786 0.52937 0.42832 0.0
H219 H 0.58265 0.61343 0.42858 0.0
H220 H 0.46376 0.45761 0.40379 0.0
H221 H 0.3797 0.41752 0.40326 0.0
C222 C 0.85293 0.46254 0.56484 0.0
C223 C 0.86078 0.49357 0.59158 0.0
C224 C 0.86127 0.40241 0.61504 0.0
C225 C 0.86271 0.37617 0.58804 0.0
N226 N 0.87738 0.3924 0.5371 0.0
N227 N 0.88935 0.49972 0.6414 0.0
C228 C 0.86371 0.40948 0.56285 0.0
C229 C 0.86999 0.46557 0.61652 0.0
N230 N 0.83198 0.48115 0.54155 0.0
N231 N 0.84804 0.36612 0.6392 0.0
H232 H 0.89957 0.54736 0.64317 0.0
H233 H 0.90236 0.48316 0.65935 0.0
H234 H 0.83623 0.31793 0.63891 0.0
H235 H 0.84094 0.38146 0.65898 0.0
H236 H 0.8202 0.45589 0.52233 0.0
H237 H 0.8188 0.51657 0.5423 0.0
H238 H 0.88426 0.41923 0.5186 0.0
H239 H 0.88941 0.35634 0.53482 0.0
C240 C 0.50042 0.92725 0.75604 0.0
C241 C 0.50186 0.86882 0.75844 0.0
C242 C 0.38346 0.80715 0.75785 0.0
C243 C 0.38201 0.86576 0.75832 0.0
N244 N 0.43928 0.98169 0.76368 0.0
N245 N 0.44491 0.75422 0.768 0.0
C246 C 0.44057 0.92593 0.75904 0.0
C247 C 0.4434 0.80901 0.76115 0.0
N248 N 0.55564 0.98365 0.74967 0.0
N249 N 0.3281 0.7498 0.75293 0.0
H250 H 0.48772 0.7537 0.7714 0.0
H251 H 0.4037 0.71074 0.77318 0.0
H252 H 0.28336 0.74624 0.74955 0.0
H253 H 0.32768 0.70661 0.74934 0.0
H254 H 0.55609 0.0263 0.74466 0.0
H255 H 0.60022 0.98655 0.74668 0.0
H256 H 0.48066 0.02609 0.76737 0.0
H257 H 0.39656 0.98265 0.76667 0.0
C258 C 0.57262 0.37007 0.91351 0.0
C259 C 0.51431 0.37108 0.91725 0.0
C260 C 0.57419 0.48947 0.91441 0.0
C261 C 0.63299 0.48853 0.91341 0.0
N262 N 0.689 0.42841 0.91789 0.0
N263 N 0.46004 0.43147 0.92602 0.0
C264 C 0.63248 0.42895 0.91454 0.0
C265 C 0.51513 0.43075 0.91897 0.0
N266 N 0.57084 0.31311 0.90784 0.0
N267 N 0.57453 0.54609 0.90996 0.0
H268 H 0.41605 0.38954 0.92983 0.0
H269 H 0.45913 0.47362 0.93058 0.0
H270 H 0.61683 0.58973 0.90625 0.0
H271 H 0.53274 0.54885 0.90741 0.0
H272 H 0.61136 0.31049 0.90178 0.0
H273 H 0.52798 0.26892 0.9065 0.0
H274 H 0.6908 0.38656 0.92203 0.0
H275 H 0.73396 0.47032 0.91933 0.0
C276 C 0.22841 0.25391 0.19698 0.0
C277 C 0.25624 0.21404 0.19404 0.0
C278 C 0.25282 0.22264 0.14194 0.0
C279 C 0.2151 0.25282 0.14508 0.0
N280 N 0.15826 0.28836 0.17633 0.0
N281 N 0.28868 0.15401 0.16301 0.0
C282 C 0.20134 0.26713 0.17277 0.0
C283 C 0.26798 0.19757 0.16634 0.0
N284 N 0.22758 0.27898 0.22303 0.0
N285 N 0.27391 0.21754 0.11552 0.0
H286 H 0.29949 0.13273 0.17982 0.0
H287 H 0.28949 0.13398 0.14341 0.0
H288 H 0.26183 0.23337 0.09711 0.0
H289 H 0.30774 0.20293 0.11216 0.0
H290 H 0.21399 0.31371 0.22599 0.0
H291 H 0.24657 0.26974 0.24122 0.0
H292 H 0.14079 0.29192 0.19618 0.0
H293 H 0.13485 0.29656 0.15955 0.0
C294 C 0.92856 0.23101 0.33066 0.0
C295 C 0.95239 0.24045 0.30219 0.0
C296 C 0.06289 0.31029 0.31953 0.0
C297 C 0.03947 0.29382 0.34781 0.0
N298 N 0.95177 0.26544 0.38003 0.0
N299 N 0.03736 0.30413 0.26896 0.0
C300 C 0.97258 0.26338 0.35317 0.0
C301 C 0.01823 0.28545 0.29646 0.0
N302 N 0.86543 0.18739 0.33666 0.0
N303 N 0.12763 0.34764 0.31486 0.0
H304 H 0.0048 0.28734 0.25198 0.0
H305 H 0.08369 0.33968 0.26313 0.0
H306 H 0.15984 0.37224 0.33133 0.0
H307 H 0.14932 0.35475 0.29495 0.0
H308 H 0.8482 0.17278 0.35729 0.0
H309 H 0.83063 0.16183 0.32125 0.0
H310 H 0.90357 0.24858 0.3852 0.0
H311 H 0.98425 0.29132 0.39632 0.0
C312 C 0.73551 0.97594 0.53566 0.0
C313 C 0.76146 0.04232 0.52968 0.0
C314 C 0.73265 0.0164 0.47933 0.0
C315 C 0.72273 0.95377 0.48458 0.0
N316 N 0.70946 0.87086 0.51761 0.0
N317 N 0.77125 0.12507 0.49724 0.0
C318 C 0.72095 0.93204 0.51282 0.0
C319 C 0.75457 0.06229 0.502 0.0
N320 N 0.72522 0.95564 0.56334 0.0
N321 N 0.7214 0.03139 0.45263 0.0
H322 H 0.78282 0.15846 0.5136 0.0
H323 H 0.7744 0.14479 0.47715 0.0
H324 H 0.70419 0.9976 0.43612 0.0
H325 H 0.72411 0.07482 0.44721 0.0
H326 H 0.70239 0.9073 0.56941 0.0
H327 H 0.73344 0.9876 0.58008 0.0
H328 H 0.71523 0.85453 0.53735 0.0
H329 H 0.69705 0.83716 0.50129 0.0
C330 C 0.72231 0.73727 0.65352 0.0
C331 C 0.78109 0.73679 0.65405 0.0
C332 C 0.7935 0.76608 0.70448 0.0
C333 C 0.74533 0.78376 0.70168 0.0
N334 N 0.65953 0.78173 0.6731 0.0
N335 N 0.87273 0.74829 0.68055 0.0
C336 C 0.70742 0.76698 0.6763 0.0
C337 C 0.81626 0.74952 0.67982 0.0
N338 N 0.68006 0.70761 0.63167 0.0
N339 N 0.81638 0.76391 0.73087 0.0
H340 H 0.88951 0.73345 0.6633 0.0
H341 H 0.90452 0.76527 0.69774 0.0
H342 H 0.79737 0.77197 0.7494 0.0
H343 H 0.84799 0.74664 0.73456 0.0
H344 H 0.63393 0.70181 0.63098 0.0
H345 H 0.68825 0.68112 0.6163 0.0
H346 H 0.63733 0.77872 0.65362 0.0
H347 H 0.64379 0.80025 0.68924 0.0
C348 C 0.94168 0.74788 0.8287 0.0
C349 C 0.95745 0.71793 0.85059 0.0
C350 C 0.04053 0.71978 0.81924 0.0
C351 C 0.03507 0.76442 0.80091 0.0
N352 N 0.99012 0.83578 0.79592 0.0
N353 N 0.02239 0.67349 0.8668 0.0
C354 C 0.98772 0.78208 0.80737 0.0
C355 C 0.00716 0.70318 0.84594 0.0
N356 N 0.8834 0.7451 0.82845 0.0
N357 N 0.07531 0.69159 0.81085 0.0
H358 H 0.99538 0.65675 0.88544 0.0
H359 H 0.06291 0.66799 0.86592 0.0
H360 H 0.0963 0.69898 0.79071 0.0
H361 H 0.07694 0.65539 0.82252 0.0
H362 H 0.86847 0.76191 0.81119 0.0
H363 H 0.84788 0.71957 0.84368 0.0
H364 H 0.95794 0.851 0.80197 0.0
H365 H 0.02934 0.87085 0.7845 0.0
C366 C 0.2652 0.02507 0.03095 0.0
C367 C 0.23809 0.95808 0.02624 0.0
C368 C 0.25557 0.97665 0.97488 0.0
C369 C 0.27394 0.04261 0.97912 0.0
N370 N 0.29411 0.1297 0.0114 0.0
N371 N 0.23293 0.8746 0.99584 0.0
C372 C 0.28019 0.06743 0.00729 0.0
C373 C 0.24163 0.93523 0.99886 0.0
N374 N 0.27693 0.04762 0.05831 0.0
N375 N 0.2474 0.95262 0.94784 0.0
H376 H 0.22525 0.8442 0.01307 0.0
H377 H 0.24028 0.85681 0.97683 0.0
H378 H 0.25825 0.9816 0.92985 0.0
H379 H 0.22599 0.90365 0.94309 0.0
H380 H 0.3016 0.09637 0.06371 0.0
H381 H 0.26767 0.01687 0.07567 0.0
H382 H 0.29145 0.14836 0.03106 0.0
H383 H 0.30409 0.16218 0.99483 0.0
C384 C 0.17874 0.30856 0.99802 0.0
C385 C 0.20894 0.3165 0.02488 0.0
C386 C 0.28795 0.29175 0.00347 0.0
C387 C 0.25128 0.27331 0.97765 0.0
N388 N 0.16899 0.27492 0.94856 0.0
N389 N 0.29214 0.31671 0.05379 0.0
C390 C 0.19882 0.28515 0.97445 0.0
C391 C 0.26419 0.30959 0.02761 0.0
N392 N 0.13287 0.32633 0.99485 0.0
N393 N 0.34576 0.29319 0.00525 0.0
H394 H 0.27762 0.33127 0.0719 0.0
H395 H 0.32681 0.30386 0.05829 0.0
H396 H 0.36498 0.2772 0.98959 0.0
H397 H 0.37855 0.3156 0.02176 0.0
H398 H 0.11212 0.32717 0.97552 0.0
H399 H 0.11826 0.345 0.0115 0.0
H400 H 0.12521 0.27329 0.94529 0.0
H401 H 0.18836 0.26775 0.92992 0.0
C402 C 0.91746 0.25259 0.17763 0.0
C403 C 0.87953 0.18583 0.18477 0.0
C404 C 0.93935 0.16266 0.149 0.0
C405 C 0.96788 0.22677 0.13814 0.0
N406 N 0.9681 0.32816 0.13892 0.0
N407 N 0.84161 0.076 0.1688 0.0
C408 C 0.952 0.27046 0.1514 0.0
C409 C 0.8863 0.1403 0.16788 0.0
N410 N 0.92438 0.29946 0.19628 0.0
N411 N 0.96486 0.124 0.14322 0.0
H412 H 0.79803 0.05759 0.17977 0.0
H413 H 0.84405 0.04258 0.15533 0.0
H414 H 0.00895 0.14039 0.13293 0.0
H415 H 0.94687 0.07853 0.15251 0.0
H416 H 0.95558 0.34845 0.19238 0.0
H417 H 0.90672 0.28976 0.21705 0.0
H418 H 0.95327 0.35915 0.14715 0.0
H419 H 0.98893 0.34119 0.11873 0.0
C420 C 0.68319 0.92158 0.3099 0.0
C421 C 0.74489 0.97814 0.30995 0.0
C422 C 0.75846 0.96033 0.36029 0.0
C423 C 0.70028 0.89994 0.35956 0.0
N424 N 0.61209 0.8179 0.33193 0.0
N425 N 0.84635 0.04602 0.33388 0.0
C426 C 0.66363 0.87921 0.33391 0.0
C427 C 0.78418 0.99564 0.3347 0.0
N428 N 0.64335 0.90834 0.28696 0.0
N429 N 0.78704 0.98627 0.38575 0.0
H430 H 0.86677 0.07507 0.316 0.0
H431 H 0.87932 0.05602 0.35032 0.0
H432 H 0.76653 0.96372 0.40489 0.0
H433 H 0.82579 0.03307 0.38809 0.0
H434 H 0.59512 0.87186 0.28689 0.0
H435 H 0.6573 0.93699 0.26866 0.0
H436 H 0.58759 0.79784 0.31297 0.0
H437 H 0.59733 0.78469 0.3486 0.0
C438 C 0.74211 0.7051 0.53186 0.0
C439 C 0.79143 0.68925 0.52904 0.0
C440 C 0.79416 0.70745 0.47735 0.0
C441 C 0.74471 0.72373 0.48037 0.0
N442 N 0.65539 0.71226 0.50944 0.0
N443 N 0.85552 0.6621 0.49869 0.0
C444 C 0.7133 0.71423 0.50719 0.0
C445 C 0.81486 0.68644 0.5016 0.0
N446 N 0.72483 0.7148 0.5583 0.0
N447 N 0.82101 0.71186 0.45114 0.0
H448 H 0.87199 0.64704 0.51601 0.0
H449 H 0.86952 0.65253 0.47914 0.0
H450 H 0.80169 0.71918 0.43252 0.0
H451 H 0.86277 0.70946 0.44782 0.0
H452 H 0.69486 0.73414 0.56177 0.0
H453 H 0.7462 0.70995 0.57666 0.0
H454 H 0.62833 0.69922 0.52816 0.0
H455 H 0.62995 0.71576 0.49229 0.0
C456 C 0.11796 0.85134 0.67122 0.0
C457 C 0.12194 0.80399 0.68798 0.0
C458 C 0.04649 0.72241 0.65419 0.0
C459 C 0.03197 0.76816 0.642 0.0
N460 N 0.04118 0.87346 0.64881 0.0
N461 N 0.07312 0.68901 0.69813 0.0
C462 C 0.06401 0.83204 0.65323 0.0
C463 C 0.08167 0.73774 0.68029 0.0
N464 N 0.16594 0.91449 0.67152 0.0
N465 N 0.02855 0.6652 0.64082 0.0
H466 H 0.09126 0.69644 0.71876 0.0
H467 H 0.04029 0.64064 0.69373 0.0
H468 H 0.00767 0.65423 0.62062 0.0
H469 H 0.04218 0.63266 0.64825 0.0
H470 H 0.16489 0.94905 0.6583 0.0
H471 H 0.21028 0.93005 0.68146 0.0
H472 H 0.06247 0.91901 0.6583 0.0
H473 H 0.99635 0.85939 0.63972 0.0
C474 C 0.2985 0.0425 0.85972 0.0
C475 C 0.30652 0.10524 0.85768 0.0
C476 C 0.27566 0.08528 0.80711 0.0
C477 C 0.25813 0.01949 0.8106 0.0
N478 N 0.23911 0.93261 0.8428 0.0
N479 N 0.30011 0.1864 0.82952 0.0
C480 C 0.26618 0.9973 0.83754 0.0
C481 C 0.29382 0.12649 0.83143 0.0
N482 N 0.32176 0.02561 0.88272 0.0
N483 N 0.27828 0.10928 0.7804 0.0
H484 H 0.31875 0.22032 0.84591 0.0
H485 H 0.28371 0.20127 0.81215 0.0
H486 H 0.26809 0.08132 0.76201 0.0
H487 H 0.29681 0.15816 0.77614 0.0
H488 H 0.32353 0.98297 0.88351 0.0
H489 H 0.34399 0.05608 0.90001 0.0
H490 H 0.23805 0.91403 0.86301 0.0
H491 H 0.21115 0.89703 0.82797 0.0
C492 C 0.78062 0.83518 0.82427 0.0
C493 C 0.71572 0.82145 0.82365 0.0
C494 C 0.69702 0.76324 0.86923 0.0
C495 C 0.76338 0.78177 0.87043 0.0
N496 N 0.87185 0.85282 0.85249 0.0
N497 N 0.61666 0.78639 0.84994 0.0
C498 C 0.80638 0.82431 0.84939 0.0
C499 C 0.67489 0.78917 0.84736 0.0
N500 N 0.81609 0.85193 0.79987 0.0
N501 N 0.65537 0.72186 0.88921 0.0
H502 H 0.60067 0.80855 0.83557 0.0
H503 H 0.58747 0.76845 0.86794 0.0
H504 H 0.671 0.7067 0.90679 0.0
H505 H 0.60537 0.70036 0.88755 0.0
H506 H 0.86264 0.85906 0.79847 0.0
H507 H 0.79453 0.84759 0.78032 0.0
H508 H 0.90404 0.8902 0.83926 0.0
H509 H 0.89462 0.84274 0.8689 0.0
C510 C 0.87461 0.66036 0.00353 0.0
C511 C 0.9005 0.66486 0.97587 0.0
C512 C 0.01028 0.72286 0.99516 0.0
C513 C 0.98467 0.71777 0.02303 0.0
N514 N 0.89311 0.66821 0.05464 0.0
N515 N 0.99041 0.68368 0.94647 0.0
C516 C 0.91687 0.6822 0.02748 0.0
C517 C 0.96759 0.69037 0.97213 0.0
N518 N 0.8098 0.63671 0.00679 0.0
N519 N 0.07474 0.7625 0.99018 0.0
H520 H 0.95959 0.65923 0.92956 0.0
H521 H 0.03826 0.69605 0.94298 0.0
H522 H 0.10757 0.7889 0.00615 0.0
H523 H 0.09485 0.77386 0.96984 0.0
H524 H 0.78881 0.63935 0.02581 0.0
H525 H 0.77717 0.61722 0.98992 0.0
H526 H 0.84455 0.63757 0.05941 0.0
H527 H 0.92301 0.68248 0.07254 0.0
C528 C 0.20135 0.87002 0.1749 0.0
C529 C 0.18245 0.88852 0.14942 0.0
C530 C 0.18486 0.979 0.17516 0.0
C531 C 0.21267 0.96596 0.19916 0.0
N532 N 0.254 0.90296 0.22101 0.0
N533 N 0.17072 0.9699 0.12427 0.0
C534 C 0.22324 0.91278 0.19871 0.0
C535 C 0.1775 0.9452 0.14934 0.0
N536 N 0.195 0.81016 0.17696 0.0
N537 N 0.16586 0.02413 0.17674 0.0
H538 H 0.16992 0.94902 0.10485 0.0
H539 H 0.17411 0.01493 0.12248 0.0
H540 H 0.17258 0.05236 0.19469 0.0
H541 H 0.13878 0.03006 0.16088 0.0
H542 H 0.20249 0.79182 0.19579 0.0
H543 H 0.17513 0.77599 0.16075 0.0
H544 H 0.26975 0.8695 0.22045 0.0
H545 H 0.26755 0.93134 0.23939 0.0
C546 C 0.30901 0.2629 0.30731 0.0
C547 C 0.31459 0.20749 0.31251 0.0
C548 C 0.28407 0.2079 0.36244 0.0
C549 C 0.26634 0.25488 0.35577 0.0
N550 N 0.25596 0.32243 0.32015 0.0
N551 N 0.30757 0.12632 0.34515 0.0
C552 C 0.27827 0.28208 0.3279 0.0
C553 C 0.30218 0.17972 0.34015 0.0
N554 N 0.33229 0.2971 0.2826 0.0
N555 N 0.28583 0.19202 0.39028 0.0
H556 H 0.32532 0.10713 0.33004 0.0
H557 H 0.29138 0.09912 0.36377 0.0
H558 H 0.27572 0.21403 0.40714 0.0
H559 H 0.30388 0.16253 0.39684 0.0
H560 H 0.33678 0.34228 0.27939 0.0
H561 H 0.35173 0.28312 0.26609 0.0
H562 H 0.25559 0.33642 0.29916 0.0
H563 H 0.2327 0.33776 0.33408 0.0
C564 C 0.03089 0.26496 0.47064 0.0
C565 C 0.09563 0.31669 0.47251 0.0
C566 C 0.08172 0.32395 0.5243 0.0
C567 C 0.0167 0.27324 0.52205 0.0
N568 N 0.92647 0.19999 0.49302 0.0
N569 N 0.18175 0.39995 0.50049 0.0
C570 C 0.9905 0.24535 0.49515 0.0
C571 C 0.12062 0.34784 0.49917 0.0
N572 N 0.00825 0.23356 0.44535 0.0
N573 N 0.10662 0.34778 0.55066 0.0
H574 H 0.21343 0.4159 0.48323 0.0
H575 H 0.20061 0.42952 0.51829 0.0
H576 H 0.07852 0.3333 0.56913 0.0
H577 H 0.15529 0.3795 0.55463 0.0
H578 H 0.96541 0.1899 0.44293 0.0
H579 H 0.03437 0.25032 0.42667 0.0
H580 H 0.90189 0.18325 0.47383 0.0
H581 H 0.89626 0.18153 0.51064 0.0
C582 C 0.78518 0.09804 0.70124 0.0
C583 C 0.76692 0.032 0.69861 0.0
C584 C 0.80072 0.04925 0.64848 0.0
C585 C 0.81472 0.11425 0.6502 0.0
N586 N 0.81947 0.20118 0.67813 0.0
N587 N 0.74763 0.94203 0.66877 0.0
C588 C 0.80627 0.13868 0.67659 0.0
C589 C 0.77154 0.00689 0.6719 0.0
N590 N 0.78374 0.12201 0.72752 0.0
N591 N 0.81744 0.02817 0.62477 0.0
H592 H 0.72828 0.90963 0.68559 0.0
H593 H 0.74178 0.91944 0.64914 0.0
H594 H 0.83796 0.05731 0.60721 0.0
H595 H 0.81645 0.98423 0.62341 0.0
H596 H 0.80295 0.17087 0.73192 0.0
H597 H 0.76522 0.09264 0.74549 0.0
H598 H 0.80697 0.22017 0.69532 0.0
H599 H 0.84207 0.23421 0.66167 0.0
loop_
_geom_bond_atom_site_label_1
_geom_bond_atom_site_label_2
_geom_bond_distance
_geom_bond_site_symmetry_2
_ccdc_geom_bond_type
Co0 O1 2.216 . S
Co0 O2 2.091 . S
Co0 O4 2.004 . S
Co0 O10 2.021 . S
Co0 O12 2.137 . S
Co0 O13 2.244 . S
O1 Co0 2.216 . S
O1 C8 1.247 . S
O2 Co0 2.091 . S
O2 C8 1.261 . S
C3 O12 1.247 . S
C3 O13 1.272 . S
O4 Co0 2.004 . S
O4 C9 1.259 . S
Co5 O6 2.061 . S
Co5 O11 2.052 . S
Co5 O13 2.135 . S
O6 Co5 2.061 . S
O6 C9 1.235 . S
C7 O10 1.238 . S
C7 O11 1.241 . S
C8 O1 1.247 . S
C8 O2 1.261 . S
C9 O4 1.259 . S
C9 O6 1.235 . S
O10 Co0 2.021 . S
O10 C7 1.238 . S
O11 Co5 2.052 . S
O11 C7 1.241 . S
O12 Co0 2.137 . S
O12 C3 1.247 . S
O13 Co0 2.244 . S
O13 C3 1.272 . S
O13 Co5 2.135 . S
Co14 O15 2.216 . S
Co14 O16 2.091 . S
Co14 O18 2.004 . S
Co14 O24 2.021 . S
Co14 O26 2.137 . S
Co14 O27 2.244 . S
O15 Co14 2.216 . S
O15 C22 1.247 . S
O16 Co14 2.091 . S
O16 C22 1.261 . S
C17 O26 1.247 . S
C17 O27 1.272 . S
O18 Co14 2.004 . S
O18 C23 1.259 . S
Co19 O20 2.061 . S
Co19 O25 2.052 . S
Co19 O27 2.135 . S
O20 Co19 2.061 . S
O20 C23 1.235 . S
C21 O24 1.238 . S
C21 O25 1.241 . S
C22 O15 1.247 . S
C22 O16 1.261 . S
C23 O18 1.259 . S
C23 O20 1.235 . S
O24 Co14 2.021 . S
O24 C21 1.238 . S
O25 Co19 2.052 . S
O25 C21 1.241 . S
O26 Co14 2.137 . S
O26 C17 1.247 . S
O27 Co14 2.244 . S
O27 C17 1.272 . S
O27 Co19 2.135 . S
Co28 O29 2.216 . S
Co28 O30 2.091 . S
Co28 O32 2.004 . S
Co28 O38 2.021 . S
Co28 O40 2.137 . S
Co28 O41 2.244 . S
O29 Co28 2.216 . S
O29 C36 1.247 . S
O30 Co28 2.091 . S
O30 C36 1.261 . S
C31 O40 1.247 . S
C31 O41 1.272 . S
O32 Co28 2.004 . S
O32 C37 1.259 . S
Co33 O34 2.061 . S
Co33 O39 2.052 . S
Co33 O41 2.135 . S
O34 Co33 2.061 . S
O34 C37 1.235 . S
C35 O38 1.238 . S
C35 O39 1.241 . S
C36 O29 1.247 . S
C36 O30 1.261 . S
C37 O32 1.259 . S
C37 O34 1.235 . S
O38 Co28 2.021 . S
O38 C35 1.238 . S
O39 Co33 2.052 . S
O39 C35 1.241 . S
O40 Co28 2.137 . S
O40 C31 1.247 . S
O41 Co28 2.244 . S
O41 C31 1.272 . S
O41 Co33 2.135 . S
Co42 O43 2.216 . S
Co42 O44 2.091 . S
Co42 O46 2.004 . S
Co42 O52 2.021 . S
Co42 O54 2.137 . S
Co42 O55 2.244 . S
O43 Co42 2.216 . S
O43 C50 1.247 . S
O44 Co42 2.091 . S
O44 C50 1.261 . S
C45 O54 1.247 . S
C45 O55 1.272 . S
O46 Co42 2.004 . S
O46 C51 1.259 . S
Co47 O48 2.061 . S
Co47 O53 2.052 . S
Co47 O55 2.135 . S
O48 Co47 2.061 . S
O48 C51 1.235 . S
C49 O52 1.238 . S
C49 O53 1.241 . S
C50 O43 1.247 . S
C50 O44 1.261 . S
C51 O46 1.259 . S
C51 O48 1.235 . S
O52 Co42 2.021 . S
O52 C49 1.238 . S
O53 Co47 2.052 . S
O53 C49 1.241 . S
O54 Co42 2.137 . S
O54 C45 1.247 . S
O55 Co42 2.244 . S
O55 C45 1.272 . S
O55 Co47 2.135 . S
Co56 O57 2.216 . S
Co56 O58 2.091 . S
Co56 O60 2.004 . S
Co56 O66 2.021 . S
Co56 O68 2.137 . S
Co56 O69 2.244 . S
O57 Co56 2.216 . S
O57 C64 1.247 . S
O58 Co56 2.091 . S
O58 C64 1.261 . S
C59 O68 1.247 . S
C59 O69 1.272 . S
O60 Co56 2.004 . S
O60 C65 1.259 . S
Co61 O62 2.061 . S
Co61 O67 2.052 . S
Co61 O69 2.135 . S
O62 Co61 2.061 . S
O62 C65 1.235 . S
C63 O66 1.238 . S
C63 O67 1.241 . S
C64 O57 1.247 . S
C64 O58 1.261 . S
C65 O60 1.259 . S
C65 O62 1.235 . S
O66 Co56 2.021 . S
O66 C63 1.238 . S
O67 Co61 2.052 . S
O67 C63 1.241 . S
O68 Co56 2.137 . S
O68 C59 1.247 . S
O69 Co56 2.244 . S
O69 C59 1.272 . S
O69 Co61 2.135 . S
Co70 O71 2.216 . S
Co70 O72 2.091 . S
Co70 O74 2.004 . S
Co70 O80 2.021 . S
Co70 O82 2.137 . S
Co70 O83 2.244 . S
O71 Co70 2.216 . S
O71 C78 1.247 . S
O72 Co70 2.091 . S
O72 C78 1.261 . S
C73 O82 1.247 . S
C73 O83 1.272 . S
O74 Co70 2.004 . S
O74 C79 1.259 . S
Co75 O76 2.061 . S
Co75 O81 2.052 . S
Co75 O83 2.135 . S
O76 Co75 2.061 . S
O76 C79 1.235 . S
C77 O80 1.238 . S
C77 O81 1.241 . S
C78 O71 1.247 . S
C78 O72 1.261 . S
C79 O74 1.259 . S
C79 O76 1.235 . S
O80 Co70 2.021 . S
O80 C77 1.238 . S
O81 Co75 2.052 . S
O81 C77 1.241 . S
O82 Co70 2.137 . S
O82 C73 1.247 . S
O83 Co70 2.244 . S
O83 C73 1.272 . S
O83 Co75 2.135 . S
Co84 O85 2.216 . S
Co84 O86 2.091 . S
Co84 O88 2.004 . S
Co84 O94 2.021 . S
Co84 O96 2.137 . S
Co84 O97 2.244 . S
O85 Co84 2.216 . S
O85 C92 1.247 . S
O86 Co84 2.091 . S
O86 C92 1.261 . S
C87 O96 1.247 . S
C87 O97 1.272 . S
O88 Co84 2.004 . S
O88 C93 1.259 . S
Co89 O90 2.061 . S
Co89 O95 2.052 . S
Co89 O97 2.135 . S
O90 Co89 2.061 . S
O90 C93 1.235 . S
C91 O94 1.238 . S
C91 O95 1.241 . S
C92 O85 1.247 . S
C92 O86 1.261 . S
C93 O88 1.259 . S
C93 O90 1.235 . S
O94 Co84 2.021 . S
O94 C91 1.238 . S
O95 Co89 2.052 . S
O95 C91 1.241 . S
O96 Co84 2.137 . S
O96 C87 1.247 . S
O97 Co84 2.244 . S
O97 C87 1.272 . S
O97 Co89 2.135 . S
Co98 O99 2.216 . S
Co98 O100 2.091 . S
Co98 O102 2.004 . S
Co98 O108 2.021 . S
Co98 O110 2.137 . S
Co98 O111 2.244 . S
O99 Co98 2.216 . S
O99 C106 1.247 . S
O100 Co98 2.091 . S
O100 C106 1.261 . S
C101 O110 1.247 . S
C101 O111 1.272 . S
O102 Co98 2.004 . S
O102 C107 1.259 . S
Co103 O104 2.061 . S
Co103 O109 2.052 . S
Co103 O111 2.135 . S
O104 Co103 2.061 . S
O104 C107 1.235 . S
C105 O108 1.238 . S
C105 O109 1.241 . S
C106 O99 1.247 . S
C106 O100 1.261 . S
C107 O102 1.259 . S
C107 O104 1.235 . S
O108 Co98 2.021 . S
O108 C105 1.238 . S
O109 Co103 2.052 . S
O109 C105 1.241 . S
O110 Co98 2.137 . S
O110 C101 1.247 . S
O111 Co98 2.244 . S
O111 C101 1.272 . S
O111 Co103 2.135 . S
Co112 O113 2.216 . S
Co112 O114 2.091 . S
Co112 O116 2.004 . S
Co112 O122 2.021 . S
Co112 O124 2.137 . S
Co112 O125 2.244 . S
O113 Co112 2.216 . S
O113 C120 1.247 . S
O114 Co112 2.091 . S
O114 C120 1.261 . S
C115 O124 1.247 . S
C115 O125 1.272 . S
O116 Co112 2.004 . S
O116 C121 1.259 . S
Co117 O118 2.061 . S
Co117 O123 2.052 . S
Co117 O125 2.135 . S
O118 Co117 2.061 . S
O118 C121 1.235 . S
C119 O122 1.238 . S
C119 O123 1.241 . S
C120 O113 1.247 . S
C120 O114 1.261 . S
C121 O116 1.259 . S
C121 O118 1.235 . S
O122 Co112 2.021 . S
O122 C119 1.238 . S
O123 Co117 2.052 . S
O123 C119 1.241 . S
O124 Co112 2.137 . S
O124 C115 1.247 . S
O125 Co112 2.244 . S
O125 C115 1.272 . S
O125 Co117 2.135 . S
Co126 O127 2.216 . S
Co126 O128 2.091 . S
Co126 O130 2.004 . S
Co126 O136 2.021 . S
Co126 O138 2.137 . S
Co126 O139 2.244 . S
O127 Co126 2.216 . S
O127 C134 1.247 . S
O128 Co126 2.091 . S
O128 C134 1.261 . S
C129 O138 1.247 . S
C129 O139 1.272 . S
O130 Co126 2.004 . S
O130 C135 1.259 . S
Co131 O132 2.061 . S
Co131 O137 2.052 . S
Co131 O139 2.135 . S
O132 Co131 2.061 . S
O132 C135 1.235 . S
C133 O136 1.238 . S
C133 O137 1.241 . S
C134 O127 1.247 . S
C134 O128 1.261 . S
C135 O130 1.259 . S
C135 O132 1.235 . S
O136 Co126 2.021 . S
O136 C133 1.238 . S
O137 Co131 2.052 . S
O137 C133 1.241 . S
O138 Co126 2.137 . S
O138 C129 1.247 . S
O139 Co126 2.244 . S
O139 C129 1.272 . S
O139 Co131 2.135 . S
Co140 O141 2.216 . S
Co140 O142 2.091 . S
Co140 O144 2.004 . S
Co140 O150 2.021 . S
Co140 O152 2.137 . S
Co140 O153 2.244 . S
O141 Co140 2.216 . S
O141 C148 1.247 . S
O142 Co140 2.091 . S
O142 C148 1.261 . S
C143 O152 1.247 . S
C143 O153 1.272 . S
O144 Co140 2.004 . S
O144 C149 1.259 . S
Co145 O146 2.061 . S
Co145 O151 2.052 . S
Co145 O153 2.135 . S
O146 Co145 2.061 . S
O146 C149 1.235 . S
C147 O150 1.238 . S
C147 O151 1.241 . S
C148 O141 1.247 . S
C148 O142 1.261 . S
C149 O144 1.259 . S
C149 O146 1.235 . S
O150 Co140 2.021 . S
O150 C147 1.238 . S
O151 Co145 2.052 . S
O151 C147 1.241 . S
O152 Co140 2.137 . S
O152 C143 1.247 . S
O153 Co140 2.244 . S
O153 C143 1.272 . S
O153 Co145 2.135 . S
Co154 O155 2.216 . S
Co154 O156 2.091 . S
Co154 O158 2.004 . S
Co154 O164 2.021 . S
Co154 O166 2.137 . S
Co154 O167 2.244 . S
O155 Co154 2.216 . S
O155 C162 1.247 . S
O156 Co154 2.091 . S
O156 C162 1.261 . S
C157 O166 1.247 . S
C157 O167 1.272 . S
O158 Co154 2.004 . S
O158 C163 1.259 . S
Co159 O160 2.061 . S
Co159 O165 2.052 . S
Co159 O167 2.135 . S
O160 Co159 2.061 . S
O160 C163 1.235 . S
C161 O164 1.238 . S
C161 O165 1.241 . S
C162 O155 1.247 . S
C162 O156 1.261 . S
C163 O158 1.259 . S
C163 O160 1.235 . S
O164 Co154 2.021 . S
O164 C161 1.238 . S
O165 Co159 2.052 . S
O165 C161 1.241 . S
O166 Co154 2.137 . S
O166 C157 1.247 . S
O167 Co154 2.244 . S
O167 C157 1.272 . S
O167 Co159 2.135 . S
C168 C169 1.363 . S
C168 C174 1.379 . S
C168 N176 1.356 . S
C169 C168 1.363 . S
C169 C175 1.363 . S
C170 C171 1.363 . S
C170 C175 1.379 . S
C170 N177 1.356 . S
C171 C170 1.363 . S
C171 C174 1.363 . S
N172 C174 1.356 . S
N172 H184 0.984 . S
N172 H185 0.985 . S
N173 C175 1.356 . S
N173 H178 0.984 . S
N173 H179 0.985 . S
C174 C168 1.379 . S
C174 C171 1.363 . S
C174 N172 1.356 . S
C175 C169 1.363 . S
C175 C170 1.379 . S
C175 N173 1.356 . S
N176 C168 1.356 . S
N176 H182 0.984 . S
N176 H183 0.984 . S
N177 C170 1.356 . S
N177 H180 0.984 . S
N177 H181 0.985 . S
H178 N173 0.984 . S
H179 N173 0.985 . S
H180 N177 0.984 . S
H181 N177 0.985 . S
H182 N176 0.984 . S
H183 N176 0.984 . S
H184 N172 0.984 . S
H185 N172 0.985 . S
C186 C187 1.363 . S
C186 C192 1.379 . S
C186 N194 1.356 . S
C187 C186 1.363 . S
C187 C193 1.363 . S
C188 C189 1.363 . S
C188 C193 1.379 . S
C188 N195 1.356 . S
C189 C188 1.363 . S
C189 C192 1.363 . S
N190 C192 1.356 . S
N190 H202 0.984 . S
N190 H203 0.985 . S
N191 C193 1.356 . S
N191 H196 0.984 . S
N191 H197 0.985 . S
C192 C186 1.379 . S
C192 C189 1.363 . S
C192 N190 1.356 . S
C193 C187 1.363 . S
C193 C188 1.379 . S
C193 N191 1.356 . S
N194 C186 1.356 . S
N194 H200 0.984 . S
N194 H201 0.984 . S
N195 C188 1.356 . S
N195 H198 0.984 . S
N195 H199 0.985 . S
H196 N191 0.984 . S
H197 N191 0.985 . S
H198 N195 0.984 . S
H199 N195 0.985 . S
H200 N194 0.984 . S
H201 N194 0.984 . S
H202 N190 0.984 . S
H203 N190 0.985 . S
C204 C205 1.363 . S
C204 C210 1.379 . S
C204 N212 1.356 . S
C205 C204 1.363 . S
C205 C211 1.363 . S
C206 C207 1.363 . S
C206 C211 1.379 . S
C206 N213 1.356 . S
C207 C206 1.363 . S
C207 C210 1.363 . S
N208 C210 1.356 . S
N208 H220 0.984 . S
N208 H221 0.985 . S
N209 C211 1.356 . S
N209 H214 0.984 . S
N209 H215 0.985 . S
C210 C204 1.379 . S
C210 C207 1.363 . S
C210 N208 1.356 . S
C211 C205 1.363 . S
C211 C206 1.379 . S
C211 N209 1.356 . S
N212 C204 1.356 . S
N212 H218 0.984 . S
N212 H219 0.984 . S
N213 C206 1.356 . S
N213 H216 0.984 . S
N213 H217 0.985 . S
H214 N209 0.984 . S
H215 N209 0.985 . S
H216 N213 0.984 . S
H217 N213 0.985 . S
H218 N212 0.984 . S
H219 N212 0.984 . S
H220 N208 0.984 . S
H221 N208 0.985 . S
C222 C223 1.363 . S
C222 C228 1.379 . S
C222 N230 1.356 . S
C223 C222 1.363 . S
C223 C229 1.363 . S
C224 C225 1.363 . S
C224 C229 1.379 . S
C224 N231 1.356 . S
C225 C224 1.363 . S
C225 C228 1.363 . S
N226 C228 1.356 . S
N226 H238 0.984 . S
N226 H239 0.985 . S
N227 C229 1.356 . S
N227 H232 0.984 . S
N227 H233 0.985 . S
C228 C222 1.379 . S
C228 C225 1.363 . S
C228 N226 1.356 . S
C229 C223 1.363 . S
C229 C224 1.379 . S
C229 N227 1.356 . S
N230 C222 1.356 . S
N230 H236 0.984 . S
N230 H237 0.984 . S
N231 C224 1.356 . S
N231 H234 0.984 . S
N231 H235 0.985 . S
H232 N227 0.984 . S
H233 N227 0.985 . S
H234 N231 0.984 . S
H235 N231 0.985 . S
H236 N230 0.984 . S
H237 N230 0.984 . S
H238 N226 0.984 . S
H239 N226 0.985 . S
C240 C241 1.363 . S
C240 C246 1.379 . S
C240 N248 1.356 . S
C241 C240 1.363 . S
C241 C247 1.363 . S
C242 C243 1.363 . S
C242 C247 1.379 . S
C242 N249 1.356 . S
C243 C242 1.363 . S
C243 C246 1.363 . S
N244 C246 1.356 . S
N244 H256 0.984 . S
N244 H257 0.985 . S
N245 C247 1.356 . S
N245 H250 0.984 . S
N245 H251 0.985 . S
C246 C240 1.379 . S
C246 C243 1.363 . S
C246 N244 1.356 . S
C247 C241 1.363 . S
C247 C242 1.379 . S
C247 N245 1.356 . S
N248 C240 1.356 . S
N248 H254 0.984 . S
N248 H255 0.984 . S
N249 C242 1.356 . S
N249 H252 0.984 . S
N249 H253 0.985 . S
H250 N245 0.984 . S
H251 N245 0.985 . S
H252 N249 0.984 . S
H253 N249 0.985 . S
H254 N248 0.984 . S
H255 N248 0.984 . S
H256 N244 0.984 . S
H257 N244 0.985 . S
C258 C259 1.363 . S
C258 C264 1.379 . S
C258 N266 1.356 . S
C259 C258 1.363 . S
C259 C265 1.363 . S
C260 C261 1.363 . S
C260 C265 1.379 . S
C260 N267 1.356 . S
C261 C260 1.363 . S
C261 C264 1.363 . S
N262 C264 1.356 . S
N262 H274 0.984 . S
N262 H275 0.985 . S
N263 C265 1.356 . S
N263 H268 0.984 . S
N263 H269 0.985 . S
C264 C258 1.379 . S
C264 C261 1.363 . S
C264 N262 1.356 . S
C265 C259 1.363 . S
C265 C260 1.379 . S
C265 N263 1.356 . S
N266 C258 1.356 . S
N266 H272 0.984 . S
N266 H273 0.984 . S
N267 C260 1.356 . S
N267 H270 0.984 . S
N267 H271 0.985 . S
H268 N263 0.984 . S
H269 N263 0.985 . S
H270 N267 0.984 . S
H271 N267 0.985 . S
H272 N266 0.984 . S
H273 N266 0.984 . S
H274 N262 0.984 . S
H275 N262 0.985 . S
C276 C277 1.363 . S
C276 C282 1.379 . S
C276 N284 1.356 . S
C277 C276 1.363 . S
C277 C283 1.363 . S
C278 C279 1.363 . S
C278 C283 1.379 . S
C278 N285 1.356 . S
C279 C278 1.363 . S
C279 C282 1.363 . S
N280 C282 1.356 . S
N280 H292 0.984 . S
N280 H293 0.985 . S
N281 C283 1.356 . S
N281 H286 0.984 . S
N281 H287 0.985 . S
C282 C276 1.379 . S
C282 C279 1.363 . S
C282 N280 1.356 . S
C283 C277 1.363 . S
C283 C278 1.379 . S
C283 N281 1.356 . S
N284 C276 1.356 . S
N284 H290 0.984 . S
N284 H291 0.984 . S
N285 C278 1.356 . S
N285 H288 0.984 . S
N285 H289 0.985 . S
H286 N281 0.984 . S
H287 N281 0.985 . S
H288 N285 0.984 . S
H289 N285 0.985 . S
H290 N284 0.984 . S
H291 N284 0.984 . S
H292 N280 0.984 . S
H293 N280 0.985 . S
C294 C295 1.363 . S
C294 C300 1.379 1_655 S
C294 N302 1.356 . S
C295 C294 1.363 . S
C295 C301 1.363 . S
C296 C297 1.363 . S
C296 C301 1.379 1_455 S
C296 N303 1.356 . S
C297 C296 1.363 . S
C297 C300 1.363 . S
N298 C300 1.356 . S
N298 H310 0.984 1_455 S
N298 H311 0.985 . S
N299 C301 1.356 . S
N299 H304 0.984 . S
N299 H305 0.985 1_655 S
C300 C294 1.379 1_455 S
C300 C297 1.363 . S
C300 N298 1.356 . S
C301 C295 1.363 . S
C301 C296 1.379 1_655 S
C301 N299 1.356 . S
N302 C294 1.356 . S
N302 H308 0.984 . S
N302 H309 0.984 . S
N303 C296 1.356 . S
N303 H306 0.984 . S
N303 H307 0.985 . S
H304 N299 0.984 . S
H305 N299 0.985 1_455 S
H306 N303 0.984 . S
H307 N303 0.985 . S
H308 N302 0.984 . S
H309 N302 0.984 . S
H310 N298 0.984 1_655 S
H311 N298 0.985 . S
C312 C313 1.363 . S
C312 C318 1.379 1_545 S
C312 N320 1.356 . S
C313 C312 1.363 . S
C313 C319 1.363 . S
C314 C315 1.363 . S
C314 C319 1.379 1_565 S
C314 N321 1.356 . S
C315 C314 1.363 . S
C315 C318 1.363 . S
N316 C318 1.356 . S
N316 H328 0.984 . S
N316 H329 0.985 . S
N317 C319 1.356 . S
N317 H322 0.984 . S
N317 H323 0.985 . S
C318 C312 1.379 1_565 S
C318 C315 1.363 . S
C318 N316 1.356 . S
C319 C313 1.363 . S
C319 C314 1.379 1_545 S
C319 N317 1.356 . S
N320 C312 1.356 . S
N320 H326 0.984 . S
N320 H327 0.984 . S
N321 C314 1.356 . S
N321 H324 0.984 . S
N321 H325 0.985 . S
H322 N317 0.984 . S
H323 N317 0.985 . S
H324 N321 0.984 . S
H325 N321 0.985 . S
H326 N320 0.984 . S
H327 N320 0.984 . S
H328 N316 0.984 . S
H329 N316 0.985 . S
C330 C331 1.363 . S
C330 C336 1.379 . S
C330 N338 1.356 . S
C331 C330 1.363 . S
C331 C337 1.363 . S
C332 C333 1.363 . S
C332 C337 1.379 . S
C332 N339 1.356 . S
C333 C332 1.363 . S
C333 C336 1.363 . S
N334 C336 1.356 . S
N334 H346 0.984 . S
N334 H347 0.985 . S
N335 C337 1.356 . S
N335 H340 0.984 . S
N335 H341 0.985 . S
C336 C330 1.379 . S
C336 C333 1.363 . S
C336 N334 1.356 . S
C337 C331 1.363 . S
C337 C332 1.379 . S
C337 N335 1.356 . S
N338 C330 1.356 . S
N338 H344 0.984 . S
N338 H345 0.984 . S
N339 C332 1.356 . S
N339 H342 0.984 . S
N339 H343 0.985 . S
H340 N335 0.984 . S
H341 N335 0.985 . S
H342 N339 0.984 . S
H343 N339 0.985 . S
H344 N338 0.984 . S
H345 N338 0.984 . S
H346 N334 0.984 . S
H347 N334 0.985 . S
C348 C349 1.363 . S
C348 C354 1.379 1_655 S
C348 N356 1.356 . S
C349 C348 1.363 . S
C349 C355 1.363 . S
C350 C351 1.363 . S
C350 C355 1.379 1_455 S
C350 N357 1.356 . S
C351 C350 1.363 . S
C351 C354 1.363 . S
N352 C354 1.356 . S
N352 H364 0.984 . S
N352 H365 0.985 . S
N353 C355 1.356 . S
N353 H358 0.984 . S
N353 H359 0.985 . S
C354 C348 1.379 1_455 S
C354 C351 1.363 . S
C354 N352 1.356 . S
C355 C349 1.363 . S
C355 C350 1.379 1_655 S
C355 N353 1.356 . S
N356 C348 1.356 . S
N356 H362 0.984 . S
N356 H363 0.984 . S
N357 C350 1.356 . S
N357 H360 0.984 . S
N357 H361 0.985 . S
H358 N353 0.984 . S
H359 N353 0.985 . S
H360 N357 0.984 . S
H361 N357 0.985 . S
H362 N356 0.984 . S
H363 N356 0.984 . S
H364 N352 0.984 . S
H365 N352 0.985 . S
C366 C367 1.363 . S
C366 C372 1.379 1_565 S
C366 N374 1.356 . S
C367 C366 1.363 . S
C367 C373 1.363 1_554 S
C368 C369 1.363 . S
C368 C373 1.379 1_545 S
C368 N375 1.356 . S
C369 C368 1.363 . S
C369 C372 1.363 1_556 S
N370 C372 1.356 . S
N370 H382 0.984 . S
N370 H383 0.985 1_554 S
N371 C373 1.356 . S
N371 H376 0.984 1_556 S
N371 H377 0.985 . S
C372 C366 1.379 1_545 S
C372 C369 1.363 1_554 S
C372 N370 1.356 . S
C373 C367 1.363 1_556 S
C373 C368 1.379 1_565 S
C373 N371 1.356 . S
N374 C366 1.356 . S
N374 H380 0.984 1_565 S
N374 H381 0.984 . S
N375 C368 1.356 . S
N375 H378 0.984 . S
N375 H379 0.985 1_545 S
H376 N371 0.984 1_554 S
H377 N371 0.985 . S
H378 N375 0.984 . S
H379 N375 0.985 1_565 S
H380 N374 0.984 1_545 S
H381 N374 0.984 . S
H382 N370 0.984 . S
H383 N370 0.985 1_556 S
C384 C385 1.363 . S
C384 C390 1.379 1_554 S
C384 N392 1.356 . S
C385 C384 1.363 . S
C385 C391 1.363 . S
C386 C387 1.363 1_554 S
C386 C391 1.379 . S
C386 N393 1.356 . S
C387 C386 1.363 1_556 S
C387 C390 1.363 . S
N388 C390 1.356 . S
N388 H400 0.984 . S
N388 H401 0.985 . S
N389 C391 1.356 . S
N389 H394 0.984 . S
N389 H395 0.985 . S
C390 C384 1.379 1_556 S
C390 C387 1.363 . S
C390 N388 1.356 . S
C391 C385 1.363 . S
C391 C386 1.379 . S
C391 N389 1.356 . S
N392 C384 1.356 . S
N392 H398 0.984 1_554 S
N392 H399 0.984 . S
N393 C386 1.356 . S
N393 H396 0.984 1_554 S
N393 H397 0.985 . S
H394 N389 0.984 . S
H395 N389 0.985 . S
H396 N393 0.984 1_556 S
H397 N393 0.985 . S
H398 N392 0.984 1_556 S
H399 N392 0.984 . S
H400 N388 0.984 . S
H401 N388 0.985 . S
C402 C403 1.363 . S
C402 C408 1.379 . S
C402 N410 1.356 . S
C403 C402 1.363 . S
C403 C409 1.363 . S
C404 C405 1.363 . S
C404 C409 1.379 . S
C404 N411 1.356 . S
C405 C404 1.363 . S
C405 C408 1.363 . S
N406 C408 1.356 . S
N406 H418 0.984 . S
N406 H419 0.985 1_655 S
N407 C409 1.356 . S
N407 H412 0.984 . S
N407 H413 0.985 . S
C408 C402 1.379 . S
C408 C405 1.363 . S
C408 N406 1.356 . S
C409 C403 1.363 . S
C409 C404 1.379 . S
C409 N407 1.356 . S
N410 C402 1.356 . S
N410 H416 0.984 . S
N410 H417 0.984 . S
N411 C404 1.356 . S
N411 H414 0.984 1_655 S
N411 H415 0.985 . S
H412 N407 0.984 . S
H413 N407 0.985 . S
H414 N411 0.984 1_455 S
H415 N411 0.985 . S
H416 N410 0.984 . S
H417 N410 0.984 . S
H418 N406 0.984 . S
H419 N406 0.985 1_455 S
C420 C421 1.363 . S
C420 C426 1.379 . S
C420 N428 1.356 . S
C421 C420 1.363 . S
C421 C427 1.363 . S
C422 C423 1.363 . S
C422 C427 1.379 . S
C422 N429 1.356 . S
C423 C422 1.363 . S
C423 C426 1.363 . S
N424 C426 1.356 . S
N424 H436 0.984 . S
N424 H437 0.985 . S
N425 C427 1.356 1_545 S
N425 H430 0.984 . S
N425 H431 0.985 . S
C426 C420 1.379 . S
C426 C423 1.363 . S
C426 N424 1.356 . S
C427 C421 1.363 . S
C427 C422 1.379 . S
C427 N425 1.356 1_565 S
N428 C420 1.356 . S
N428 H434 0.984 . S
N428 H435 0.984 . S
N429 C422 1.356 . S
N429 H432 0.984 . S
N429 H433 0.985 . S
H430 N425 0.984 . S
H431 N425 0.985 . S
H432 N429 0.984 . S
H433 N429 0.985 . S
H434 N428 0.984 . S
H435 N428 0.984 . S
H436 N424 0.984 . S
H437 N424 0.985 . S
C438 C439 1.363 . S
C438 C444 1.379 . S
C438 N446 1.356 . S
C439 C438 1.363 . S
C439 C445 1.363 . S
C440 C441 1.363 . S
C440 C445 1.379 . S
C440 N447 1.356 . S
C441 C440 1.363 . S
C441 C444 1.363 . S
N442 C444 1.356 . S
N442 H454 0.984 . S
N442 H455 0.985 . S
N443 C445 1.356 . S
N443 H448 0.984 . S
N443 H449 0.985 . S
C444 C438 1.379 . S
C444 C441 1.363 . S
C444 N442 1.356 . S
C445 C439 1.363 . S
C445 C440 1.379 . S
C445 N443 1.356 . S
N446 C438 1.356 . S
N446 H452 0.984 . S
N446 H453 0.984 . S
N447 C440 1.356 . S
N447 H450 0.984 . S
N447 H451 0.985 . S
H448 N443 0.984 . S
H449 N443 0.985 . S
H450 N447 0.984 . S
H451 N447 0.985 . S
H452 N446 0.984 . S
H453 N446 0.984 . S
H454 N442 0.984 . S
H455 N442 0.985 . S
C456 C457 1.363 . S
C456 C462 1.379 . S
C456 N464 1.356 . S
C457 C456 1.363 . S
C457 C463 1.363 . S
C458 C459 1.363 . S
C458 C463 1.379 . S
C458 N465 1.356 . S
C459 C458 1.363 . S
C459 C462 1.363 . S
N460 C462 1.356 . S
N460 H472 0.984 . S
N460 H473 0.985 1_455 S
N461 C463 1.356 . S
N461 H466 0.984 . S
N461 H467 0.985 . S
C462 C456 1.379 . S
C462 C459 1.363 . S
C462 N460 1.356 . S
C463 C457 1.363 . S
C463 C458 1.379 . S
C463 N461 1.356 . S
N464 C456 1.356 . S
N464 H470 0.984 . S
N464 H471 0.984 . S
N465 C458 1.356 . S
N465 H468 0.984 1_455 S
N465 H469 0.985 . S
H466 N461 0.984 . S
H467 N461 0.985 . S
H468 N465 0.984 1_655 S
H469 N465 0.985 . S
H470 N464 0.984 . S
H471 N464 0.984 . S
H472 N460 0.984 . S
H473 N460 0.985 1_655 S
C474 C475 1.363 . S
C474 C480 1.379 . S
C474 N482 1.356 . S
C475 C474 1.363 . S
C475 C481 1.363 . S
C476 C477 1.363 . S
C476 C481 1.379 . S
C476 N483 1.356 . S
C477 C476 1.363 . S
C477 C480 1.363 . S
N478 C480 1.356 1_565 S
N478 H490 0.984 . S
N478 H491 0.985 . S
N479 C481 1.356 . S
N479 H484 0.984 . S
N479 H485 0.985 . S
C480 C474 1.379 . S
C480 C477 1.363 . S
C480 N478 1.356 1_545 S
C481 C475 1.363 . S
C481 C476 1.379 . S
C481 N479 1.356 . S
N482 C474 1.356 . S
N482 H488 0.984 . S
N482 H489 0.984 . S
N483 C476 1.356 . S
N483 H486 0.984 . S
N483 H487 0.985 . S
H484 N479 0.984 . S
H485 N479 0.985 . S
H486 N483 0.984 . S
H487 N483 0.985 . S
H488 N482 0.984 . S
H489 N482 0.984 . S
H490 N478 0.984 . S
H491 N478 0.985 . S
C492 C493 1.363 . S
C492 C498 1.379 . S
C492 N500 1.356 . S
C493 C492 1.363 . S
C493 C499 1.363 . S
C494 C495 1.363 . S
C494 C499 1.379 . S
C494 N501 1.356 . S
C495 C494 1.363 . S
C495 C498 1.363 . S
N496 C498 1.356 . S
N496 H508 0.984 . S
N496 H509 0.985 . S
N497 C499 1.356 . S
N497 H502 0.984 . S
N497 H503 0.985 . S
C498 C492 1.379 . S
C498 C495 1.363 . S
C498 N496 1.356 . S
C499 C493 1.363 . S
C499 C494 1.379 . S
C499 N497 1.356 . S
N500 C492 1.356 . S
N500 H506 0.984 . S
N500 H507 0.984 . S
N501 C494 1.356 . S
N501 H504 0.984 . S
N501 H505 0.985 . S
H502 N497 0.984 . S
H503 N497 0.985 . S
H504 N501 0.984 . S
H505 N501 0.985 . S
H506 N500 0.984 . S
H507 N500 0.984 . S
H508 N496 0.984 . S
H509 N496 0.985 . S
C510 C511 1.363 . S
C510 C516 1.379 1_556 S
C510 N518 1.356 . S
C511 C510 1.363 . S
C511 C517 1.363 . S
C512 C513 1.363 1_556 S
C512 C517 1.379 . S
C512 N519 1.356 1_655 S
C513 C512 1.363 1_554 S
C513 C516 1.363 . S
N514 C516 1.356 . S
N514 H526 0.984 . S
N514 H527 0.985 . S
N515 C517 1.356 . S
N515 H520 0.984 . S
N515 H521 0.978 1_655 S
C516 C510 1.379 1_554 S
C516 C513 1.363 . S
C516 N514 1.356 . S
C517 C511 1.363 . S
C517 C512 1.379 . S
C517 N515 1.356 . S
N518 C510 1.356 . S
N518 H524 0.984 1_556 S
N518 H525 0.984 . S
N519 C512 1.356 1_455 S
N519 H522 0.984 1_556 S
N519 H523 0.985 . S
H520 N515 0.984 . S
H521 N515 0.978 1_455 S
H522 N519 0.984 1_554 S
H523 N519 0.985 . S
H524 N518 0.984 1_554 S
H525 N518 0.984 . S
H526 N514 0.984 . S
H527 N514 0.985 . S
C528 C529 1.363 . S
C528 C534 1.379 . S
C528 N536 1.356 . S
C529 C528 1.363 . S
C529 C535 1.363 . S
C530 C531 1.363 . S
C530 C535 1.379 . S
C530 N537 1.356 1_565 S
C531 C530 1.363 . S
C531 C534 1.363 . S
N532 C534 1.356 . S
N532 H544 0.984 . S
N532 H545 0.985 . S
N533 C535 1.356 . S
N533 H538 0.984 . S
N533 H539 0.976 1_565 S
C534 C528 1.379 . S
C534 C531 1.363 . S
C534 N532 1.356 . S
C535 C529 1.363 . S
C535 C530 1.379 . S
C535 N533 1.356 . S
N536 C528 1.356 . S
N536 H542 0.984 . S
N536 H543 0.984 . S
N537 C530 1.356 1_545 S
N537 H540 0.984 . S
N537 H541 0.985 . S
H538 N533 0.984 . S
H539 N533 0.976 1_545 S
H540 N537 0.984 . S
H541 N537 0.985 . S
H542 N536 0.984 . S
H543 N536 0.984 . S
H544 N532 0.984 . S
H545 N532 0.985 . S
C546 C547 1.363 . S
C546 C552 1.379 . S
C546 N554 1.356 . S
C547 C546 1.363 . S
C547 C553 1.363 . S
C548 C549 1.363 . S
C548 C553 1.379 . S
C548 N555 1.356 . S
C549 C548 1.363 . S
C549 C552 1.363 . S
N550 C552 1.356 . S
N550 H562 0.984 . S
N550 H563 0.985 . S
N551 C553 1.356 . S
N551 H556 0.984 . S
N551 H557 0.985 . S
C552 C546 1.379 . S
C552 C549 1.363 . S
C552 N550 1.356 . S
C553 C547 1.363 . S
C553 C548 1.379 . S
C553 N551 1.356 . S
N554 C546 1.356 . S
N554 H560 0.984 . S
N554 H561 0.984 . S
N555 C548 1.356 . S
N555 H558 0.984 . S
N555 H559 0.985 . S
H556 N551 0.984 . S
H557 N551 0.985 . S
H558 N555 0.984 . S
H559 N555 0.985 . S
H560 N554 0.984 . S
H561 N554 0.984 . S
H562 N550 0.984 . S
H563 N550 0.985 . S
C564 C565 1.363 . S
C564 C570 1.379 . S
C564 N572 1.356 . S
C565 C564 1.363 . S
C565 C571 1.363 . S
C566 C567 1.363 . S
C566 C571 1.379 . S
C566 N573 1.356 . S
C567 C566 1.363 . S
C567 C570 1.363 . S
N568 C570 1.356 1_655 S
N568 H580 0.984 . S
N568 H581 0.985 . S
N569 C571 1.356 . S
N569 H574 0.984 . S
N569 H575 0.985 . S
C570 C564 1.379 . S
C570 C567 1.363 . S
C570 N568 1.356 1_455 S
C571 C565 1.363 . S
C571 C566 1.379 . S
C571 N569 1.356 . S
N572 C564 1.356 . S
N572 H578 0.984 . S
N572 H579 0.984 . S
N573 C566 1.356 . S
N573 H576 0.984 . S
N573 H577 0.985 . S
H574 N569 0.984 . S
H575 N569 0.985 . S
H576 N573 0.984 . S
H577 N573 0.985 . S
H578 N572 0.984 . S
H579 N572 0.984 . S
H580 N568 0.984 . S
H581 N568 0.985 . S
C582 C583 1.363 . S
C582 C588 1.379 . S
C582 N590 1.356 . S
C583 C582 1.363 . S
C583 C589 1.363 . S
C584 C585 1.363 . S
C584 C589 1.379 . S
C584 N591 1.356 . S
C585 C584 1.363 . S
C585 C588 1.363 . S
N586 C588 1.356 . S
N586 H598 0.984 . S
N586 H599 0.985 . S
N587 C589 1.356 1_565 S
N587 H592 0.984 . S
N587 H593 0.985 . S
C588 C582 1.379 . S
C588 C585 1.363 . S
C588 N586 1.356 . S
C589 C583 1.363 . S
C589 C584 1.379 . S
C589 N587 1.356 1_545 S
N590 C582 1.356 . S
N590 H596 0.984 . S
N590 H597 0.984 . S
N591 C584 1.356 . S
N591 H594 0.984 . S
N591 H595 0.979 1_545 S
H592 N587 0.984 . S
H593 N587 0.985 . S
H594 N591 0.984 . S
H595 N591 0.979 1_565 S
H596 N590 0.984 . S
H597 N590 0.984 . S
H598 N586 0.984 . S
H599 N586 0.985 . S
C169 C120 1.358 . S
C171 C8 1.358 . S
C187 C22 1.358 . S
C189 C134 1.358 . S
C205 C36 1.358 . S
C207 C148 1.358 . S
C223 C50 1.358 . S
C225 C162 1.358 . S
C241 C92 1.358 . S
C243 C64 1.358 . S
C259 C78 1.358 . S
C261 C106 1.358 . S
C277 C135 1.109 . S
C279 C9 1.109 . S
C295 C23 1.108 . S
C297 C149 1.108 . S
C313 C163 1.108 . S
C315 C37 1.108 . S
C331 C51 1.109 . S
C333 C93 1.109 . S
C349 C107 1.108 . S
C351 C65 1.108 . S
C367 C121 1.108 . S
C369 C79 1.108 . S
C385 C3 1.492 . S
C387 C77 1.443 . S
C403 C17 1.492 . S
C405 C7 1.443 1_655 S
C421 C21 1.443 1_565 S
C423 C31 1.492 . S
C439 C45 1.492 . S
C441 C35 1.443 . S
C457 C59 1.492 . S
C459 C49 1.443 1_455 S
C475 C73 1.492 . S
C477 C63 1.443 1_545 S
C493 C87 1.492 . S
C495 C105 1.443 . S
C511 C101 1.492 . S
C513 C119 1.443 1_655 S
C529 C115 1.492 . S
C531 C133 1.443 1_565 S
C547 C129 1.492 . S
C549 C147 1.443 . S
C565 C143 1.492 . S
C567 C161 1.443 1_455 S
C583 C91 1.443 1_545 S
C585 C157 1.492 . S
