# Generated by pormake.
# Topology snk, (6)-cn, num edge types: 1
# Building blocks:
#     Node 0, Type 0, BuildingBlock: KUMJIN_clean_sbu_1, # of connection points: 6
#     Node 1, Type 0, BuildingBlock: KUMJIN_clean_sbu_1, # of connection points: 6
#     Node 2, Type 0, BuildingBlock: KUMJIN_clean_sbu_1, # of connection points: 6
#     Node 3, Type 0, BuildingBlock: KUMJIN_clean_sbu_1, # of connection points: 6
#     Node 4, Type 0, BuildingBlock: KUMJIN_clean_sbu_1, # of connection points: 6
#     Node 5, Type 0, BuildingBlock: KUMJIN_clean_sbu_1, # of connection points: 6
#     Node 6, Type 0, BuildingBlock: KUMJIN_clean_sbu_1, # of connection points: 6
#     Node 7, Type 0, BuildingBlock: KUMJIN_clean_sbu_1, # of connection points: 6
#     Edge 8, Type (0, 0), BuildingBlock: TEMPAE_clean_linker_10, # of connection points: 2
#     Edge 9, Type (0, 0), BuildingBlock: TEMPAE_clean_linker_10, # of connection points: 2
#     Edge 10, Type (0, 0), BuildingBlock: TEMPAE_clean_linker_10, # of connection points: 2
#     Edge 11, Type (0, 0), BuildingBlock: TEMPAE_clean_linker_10, # of connection points: 2
#     Edge 12, Type (0, 0), BuildingBlock: TEMPAE_clean_linker_10, # of connection points: 2
#     Edge 13, Type (0, 0), BuildingBlock: TEMPAE_clean_linker_10, # of connection points: 2
#     Edge 14, Type (0, 0), BuildingBlock: TEMPAE_clean_linker_10, # of connection points: 2
#     Edge 15, Type (0, 0), BuildingBlock: TEMPAE_clean_linker_10, # of connection points: 2
#     Edge 16, Type (0, 0), BuildingBlock: TEMPAE_clean_linker_10, # of connection points: 2
#     Edge 17, Type (0, 0), BuildingBlock: TEMPAE_clean_linker_10, # of connection points: 2
#     Edge 18, Type (0, 0), BuildingBlock: TEMPAE_clean_linker_10, # of connection points: 2
#     Edge 19, Type (0, 0), BuildingBlock: TEMPAE_clean_linker_10, # of connection points: 2
#     Edge 20, Type (0, 0), BuildingBlock: TEMPAE_clean_linker_10, # of connection points: 2
#     Edge 21, Type (0, 0), BuildingBlock: TEMPAE_clean_linker_10, # of connection points: 2
#     Edge 22, Type (0, 0), BuildingBlock: TEMPAE_clean_linker_10, # of connection points: 2
#     Edge 23, Type (0, 0), BuildingBlock: TEMPAE_clean_linker_10, # of connection points: 2
#     Edge 24, Type (0, 0), BuildingBlock: TEMPAE_clean_linker_10, # of connection points: 2
#     Edge 25, Type (0, 0), BuildingBlock: TEMPAE_clean_linker_10, # of connection points: 2
#     Edge 26, Type (0, 0), BuildingBlock: TEMPAE_clean_linker_10, # of connection points: 2
#     Edge 27, Type (0, 0), BuildingBlock: TEMPAE_clean_linker_10, # of connection points: 2
#     Edge 28, Type (0, 0), BuildingBlock: TEMPAE_clean_linker_10, # of connection points: 2
#     Edge 29, Type (0, 0), BuildingBlock: TEMPAE_clean_linker_10, # of connection points: 2
#     Edge 30, Type (0, 0), BuildingBlock: TEMPAE_clean_linker_10, # of connection points: 2
#     Edge 31, Type (0, 0), BuildingBlock: TEMPAE_clean_linker_10, # of connection points: 2
# Relax obj value: 0.008
# Max RMSD: 0.072
# Mean RMSD: 0.071
data_MOF--net-snk--node1-KUMJIN_clean_sbu_1--edge1-TEMPAE_clean_linker_10
_symmetry_space_group_name_H-M    P1
_symmetry_Int_Tables_number       1
_symmetry_cell_setting            triclinic
loop_
_symmetry_equiv_pos_as_xyz
'x, y, z'
_cell_length_a     38.99416
_cell_length_b     38.899881
_cell_length_c     25.20912
_cell_angle_alpha  90.270374
_cell_angle_beta   89.96949
_cell_angle_gamma 89.88373
loop_
_atom_site_label
_atom_site_type_symbol
_atom_site_fract_x
_atom_site_fract_y
_atom_site_fract_z
_atom_type_partial_charge
Eu0 Eu 0.00478 0.02753 0.57886 0.0
C1 C 0.98791 0.89143 0.43731 0.0
N2 N 0.0154 0.91195 0.44726 0.0
C3 C 0.05137 0.8622 0.45667 0.0
C4 C 0.99103 0.85528 0.438 0.0
C5 C 0.0472 0.89786 0.45413 0.0
C6 C 0.02308 0.8408 0.44917 0.0
C7 C 0.9286 0.88605 0.4089 0.0
C8 C 0.95696 0.90654 0.42322 0.0
C9 C 0.93135 0.85011 0.41115 0.0
C10 C 0.96244 0.83477 0.42584 0.0
Eu11 Eu 0.00524 0.9719 0.44126 0.0
N12 N 0.95473 0.94136 0.42231 0.0
C13 C 0.89837 0.90235 0.39237 0.0
C14 C 0.92593 0.95741 0.40396 0.0
C15 C 0.8971 0.9382 0.38968 0.0
H16 H 0.06967 0.91393 0.45645 0.0
H17 H 0.87403 0.95102 0.37634 0.0
H18 H 0.95999 0.0987 0.55438 0.0
H19 H 0.14179 0.01226 0.62362 0.0
H20 H 0.92522 0.98509 0.401 0.0
H21 H 0.87601 0.8875 0.38122 0.0
H22 H 0.08156 0.99429 0.61944 0.0
H23 H 0.07654 0.85123 0.46325 0.0
H24 H 0.90972 0.83394 0.4009 0.0
H25 H 0.96436 0.80698 0.42642 0.0
H26 H 0.97043 0.16052 0.53847 0.0
H27 H 0.02651 0.81316 0.45019 0.0
H28 H 0.15755 0.07233 0.60325 0.0
N29 N 0.01252 0.08685 0.56559 0.0
C30 C 0.04503 0.09899 0.57041 0.0
C31 C 0.99166 0.14346 0.54705 0.0
C32 C 0.05224 0.13403 0.56188 0.0
C33 C 0.9858 0.10847 0.55557 0.0
C34 C 0.02507 0.15627 0.54979 0.0
N35 N 0.06344 0.0422 0.59028 0.0
C36 C 0.08808 0.01988 0.60724 0.0
C37 C 0.10533 0.08779 0.58644 0.0
C38 C 0.07125 0.07597 0.58238 0.0
C39 C 0.13104 0.06429 0.59993 0.0
C40 C 0.12228 0.03032 0.61113 0.0
H41 H 0.02957 0.18337 0.54292 0.0
H42 H 0.09223 0.17254 0.55909 0.0
H43 H 0.1387 0.13212 0.5806 0.0
O44 O 0.01583 0.03103 0.66421 0.0
O45 O 0.02365 0.04996 0.50052 0.0
O46 O 0.05155 0.00487 0.46156 0.0
O47 O 0.96544 0.04641 0.63403 0.0
O48 O 0.02731 0.97377 0.58146 0.0
O49 O 0.05027 0.96621 0.49804 0.0
O50 O 0.99807 0.99798 0.36545 0.0
O51 O 0.96019 0.9626 0.49847 0.0
O52 O 0.98134 0.97422 0.58203 0.0
O53 O 0.02689 0.95069 0.36784 0.0
O54 O 0.97702 0.02268 0.4431 0.0
O55 O 0.95655 0.03397 0.52809 0.0
C56 C 0.04891 0.03794 0.47138 0.0
C57 C 0.97409 0.05076 0.73 0.0
C58 C 0.97559 0.04141 0.82615 0.0
C59 C 0.94853 0.06505 0.83188 0.0
C60 C 0.94714 0.07427 0.73723 0.0
C61 C 0.93464 0.08147 0.78784 0.0
C62 C 0.98882 0.03467 0.77491 0.0
C63 C 0.0477 0.95749 0.54822 0.0
C64 C 0.98523 0.04233 0.6753 0.0
C65 C 0.08618 0.1457 0.56548 0.0
C66 C 0.11266 0.12265 0.57763 0.0
C67 C 0.95892 0.95934 0.55052 0.0
C68 C 0.03718 0.98807 0.29545 0.0
C69 C 0.04609 0.99942 0.20125 0.0
C70 C 0.07812 0.01382 0.21328 0.0
C71 C 0.06926 0.00253 0.30683 0.0
C72 C 0.02566 0.98647 0.24252 0.0
C73 C 0.08966 0.0152 0.26576 0.0
C74 C 0.9545 0.03664 0.47579 0.0
C75 C 0.01497 0.97517 0.33802 0.0
H76 H 0.93818 0.07098 0.87078 0.0
H77 H 0.93559 0.08708 0.70358 0.0
H78 H 0.91386 0.09967 0.79295 0.0
H79 H 0.0095 0.01627 0.76996 0.0
H80 H 0.09412 0.02412 0.18203 0.0
H81 H 0.07842 0.00409 0.34734 0.0
H82 H 1.00072 0.97561 0.23356 0.0
H83 H 0.11445 0.02622 0.27462 0.0
Eu84 Eu 0.22848 0.75171 0.83153 0.0
C85 C 0.35738 0.72295 0.68743 0.0
N86 N 0.34073 0.75281 0.69868 0.0
C87 C 0.39413 0.77993 0.72014 0.0
C88 C 0.3931 0.71994 0.69481 0.0
C89 C 0.35867 0.78157 0.71225 0.0
C90 C 0.41137 0.74881 0.71226 0.0
C91 C 0.35514 0.66444 0.65431 0.0
C92 C 0.33856 0.69554 0.66773 0.0
C93 C 0.39049 0.6608 0.66364 0.0
C94 C 0.40943 0.6885 0.68385 0.0
Eu95 Eu 0.2804 0.75267 0.68906 0.0
N96 N 0.30438 0.69988 0.6592 0.0
C97 C 0.33589 0.6383 0.63042 0.0
C98 C 0.28628 0.67561 0.63189 0.0
C99 C 0.30147 0.64421 0.61815 0.0
H100 H 0.34579 0.8059 0.71628 0.0
H101 H 0.28675 0.62477 0.59748 0.0
H102 H 0.16542 0.69228 0.8385 0.0
H103 H 0.2201 0.88822 0.88165 0.0
H104 H 0.26031 0.68069 0.61945 0.0
H105 H 0.34767 0.61404 0.61943 0.0
H106 H 0.24887 0.83217 0.86764 0.0
H107 H 0.40814 0.80272 0.7319 0.0
H108 H 0.40358 0.63695 0.65415 0.0
H109 H 0.43679 0.68556 0.68983 0.0
H110 H 0.10222 0.69044 0.83936 0.0
H111 H 0.43884 0.74759 0.71837 0.0
H112 H 0.15697 0.89258 0.87356 0.0
N113 N 0.16785 0.74695 0.83583 0.0
C114 C 0.14999 0.77684 0.84042 0.0
C115 C 0.1153 0.71495 0.83903 0.0
C116 C 0.11381 0.77699 0.84176 0.0
C117 C 0.15114 0.71614 0.83805 0.0
C118 C 0.09652 0.74553 0.83976 0.0
N119 N 0.20273 0.8057 0.84955 0.0
C120 C 0.22139 0.83399 0.86367 0.0
C121 C 0.15038 0.83842 0.85608 0.0
C122 C 0.16795 0.80711 0.84797 0.0
C123 C 0.16951 0.86802 0.86719 0.0
C124 C 0.20515 0.86567 0.87181 0.0
H125 H 0.06876 0.74453 0.84078 0.0
H126 H 0.06836 0.80898 0.84762 0.0
H127 H 0.10043 0.86287 0.85974 0.0
O128 O 0.24935 0.76269 0.91087 0.0
O129 O 0.21959 0.79495 0.77251 0.0
O130 O 0.22394 0.76565 0.6943 0.0
O131 O 0.21816 0.7179 0.89813 0.0
O132 O 0.28166 0.77419 0.8266 0.0
O133 O 0.28513 0.79937 0.74431 0.0
O134 O 0.28239 0.74963 0.60209 0.0
O135 O 0.3063 0.72984 0.76118 0.0
O136 O 0.26008 0.70612 0.80271 0.0
O137 O 0.28703 0.79942 0.64227 0.0
O138 O 0.23607 0.71411 0.6909 0.0
O139 O 0.20838 0.71153 0.77368 0.0
C140 C 0.21125 0.79097 0.72249 0.0
C141 C 0.21435 0.7441 0.9821 0.0
C142 C 0.21259 0.74788 0.07857 0.0
C143 C 0.17676 0.75105 0.07638 0.0
C144 C 0.17853 0.74802 0.98073 0.0
C145 C 0.1599 0.75142 0.02767 0.0
C146 C 0.23144 0.74465 0.03121 0.0
C147 C 0.2922 0.79905 0.79557 0.0
C148 C 0.2336 0.73706 0.93297 0.0
C149 C 0.09614 0.80833 0.8472 0.0
C150 C 0.1144 0.839 0.85423 0.0
C151 C 0.29309 0.70674 0.79281 0.0
C152 C 0.28934 0.79987 0.54556 0.0
C153 C 0.28298 0.80009 0.44925 0.0
C154 C 0.29356 0.83451 0.44838 0.0
C155 C 0.29992 0.83434 0.54372 0.0
C156 C 0.28105 0.78263 0.49788 0.0
C157 C 0.30211 0.85144 0.49537 0.0
C158 C 0.21303 0.70132 0.72411 0.0
C159 C 0.28607 0.78268 0.59737 0.0
H160 H 0.16187 0.75364 0.11249 0.0
H161 H 0.1648 0.74778 0.94354 0.0
H162 H 0.13228 0.75406 0.02629 0.0
H163 H 0.25909 0.74171 0.03269 0.0
H164 H 0.29504 0.84831 0.41121 0.0
H165 H 0.30642 0.84816 0.57972 0.0
H166 H 0.27245 0.75615 0.49859 0.0
H167 H 0.31023 0.87802 0.49434 0.0
Eu168 Eu 0.50462 0.97618 0.07086 0.0
C169 C 0.52199 0.11155 0.92974 0.0
N170 N 0.4931 0.09316 0.93993 0.0
C171 C 0.46077 0.1451 0.9511 0.0
C172 C 0.52128 0.14779 0.93018 0.0
C173 C 0.4626 0.10922 0.94963 0.0
C174 C 0.49024 0.16448 0.94147 0.0
C175 C 0.58257 0.1125 0.9069 0.0
C176 C 0.55248 0.09408 0.91898 0.0
C177 C 0.5819 0.1486 0.9074 0.0
C178 C 0.55142 0.16618 0.91926 0.0
Eu179 Eu 0.49923 0.03303 0.9362 0.0
N180 N 0.5528 0.05908 0.92103 0.0
C181 C 0.61245 0.09407 0.8946 0.0
C182 C 0.58152 0.04098 0.90764 0.0
C183 C 0.61183 0.05815 0.89462 0.0
H184 H 0.43953 0.09442 0.95534 0.0
H185 H 0.63466 0.04369 0.88443 0.0
H186 H 0.55662 0.9096 0.04492 0.0
H187 H 0.36711 0.97861 0.11541 0.0
H188 H 0.58108 0.01335 0.90578 0.0
H189 H 0.63605 0.10728 0.8849 0.0
H190 H 0.4252 0.00267 0.10866 0.0
H191 H 0.43658 0.15779 0.95915 0.0
H192 H 0.60485 0.16318 0.89865 0.0
H193 H 0.55136 0.19403 0.9195 0.0
H194 H 0.55212 0.8469 0.03013 0.0
H195 H 0.48868 0.19229 0.94235 0.0
H196 H 0.35759 0.91667 0.09846 0.0
N197 N 0.50336 0.91611 0.05965 0.0
C198 C 0.47224 0.90082 0.06532 0.0
C199 C 0.52946 0.86177 0.03983 0.0
C200 C 0.46848 0.86516 0.05713 0.0
C201 C 0.5319 0.89727 0.04785 0.0
C202 C 0.4976 0.84565 0.04426 0.0
N203 N 0.44804 0.95582 0.08319 0.0
C204 C 0.42129 0.97608 0.09879 0.0
C205 C 0.41109 0.90615 0.08183 0.0
C206 C 0.4438 0.92122 0.0772 0.0
C207 C 0.38314 0.92726 0.09461 0.0
C208 C 0.38837 0.96228 0.10384 0.0
H209 H 0.49575 0.81818 0.03766 0.0
H210 H 0.43242 0.82286 0.05489 0.0
H211 H 0.38228 0.85866 0.07676 0.0
O212 O 0.49796 0.98964 0.15624 0.0
O213 O 0.48052 0.95385 0.99562 0.0
O214 O 0.45368 0.99998 0.95749 0.0
O215 O 0.53553 0.95118 0.13061 0.0
O216 O 0.48027 0.02922 0.07444 0.0
O217 O 0.45436 0.0372 0.99296 0.0
O218 O 0.50844 0.01281 0.85631 0.0
O219 O 0.52979 0.05631 1.00461 0.0
O220 O 0.54959 0.01114 0.05568 0.0
O221 O 0.47233 0.05444 0.86786 0.0
O222 O 0.5269 0.98163 0.93426 0.0
O223 O 0.55097 0.97297 0.01708 0.0
C224 C 0.4561 0.96689 0.96605 0.0
C225 C 0.53448 0.96268 0.22495 0.0
C226 C 0.53169 0.97239 0.32095 0.0
C227 C 0.56275 0.95451 0.32665 0.0
C228 C 0.56545 0.9447 0.23222 0.0
C229 C 0.57936 0.94066 0.28263 0.0
C230 C 0.51734 0.97639 0.26985 0.0
C231 C 0.45744 0.04427 0.04388 0.0
C232 C 0.52216 0.96827 0.17 0.0
C233 C 0.43585 0.8502 0.0613 0.0
C234 C 0.40727 0.87062 0.07364 0.0
C235 C 0.54923 0.04368 0.04242 0.0
C236 C 0.46508 0.0193 0.79144 0.0
C237 C 0.45604 0.00775 0.69712 0.0
C238 C 0.42293 0.99589 0.70876 0.0
C239 C 0.43217 0.00671 0.80246 0.0
C240 C 0.47718 0.01926 0.73875 0.0
C241 C 0.41122 0.99511 0.76116 0.0
C242 C 0.54962 0.96718 0.96569 0.0
C243 C 0.48678 0.03368 0.83378 0.0
H244 H 0.57406 0.95103 0.36552 0.0
H245 H 0.57936 0.93409 0.19871 0.0
H246 H 0.60328 0.92688 0.28756 0.0
H247 H 0.49352 0.99044 0.26512 0.0
H248 H 0.40625 0.98692 0.67726 0.0
H249 H 0.42257 0.00624 0.84279 0.0
H250 H 0.50266 0.02882 0.73003 0.0
H251 H 0.38572 0.98576 0.76972 0.0
Eu252 Eu 0.22833 0.2527 0.19366 0.0
C253 C 0.35905 0.2774 0.33238 0.0
N254 N 0.34225 0.24795 0.31913 0.0
C255 C 0.39543 0.22092 0.29561 0.0
C256 C 0.39484 0.28009 0.32542 0.0
C257 C 0.35997 0.21943 0.30332 0.0
C258 C 0.4129 0.2515 0.3061 0.0
C259 C 0.35709 0.33603 0.36594 0.0
C260 C 0.34025 0.30519 0.35213 0.0
C261 C 0.39267 0.33887 0.35841 0.0
C262 C 0.41145 0.31104 0.33809 0.0
Eu263 Eu 0.28248 0.24825 0.33333 0.0
N264 N 0.30553 0.3023 0.35697 0.0
C265 C 0.33754 0.36338 0.38603 0.0
C266 C 0.28655 0.32851 0.37797 0.0
C267 C 0.30217 0.35952 0.39228 0.0
H268 H 0.34701 0.19526 0.2976 0.0
H269 H 0.28693 0.38035 0.40849 0.0
H270 H 0.16452 0.31125 0.21097 0.0
H271 H 0.2205 0.12011 0.12469 0.0
H272 H 0.2595 0.32543 0.38501 0.0
H273 H 0.34951 0.38752 0.39688 0.0
H274 H 0.24922 0.17452 0.14954 0.0
H275 H 0.4093 0.19837 0.28215 0.0
H276 H 0.4059 0.36255 0.36811 0.0
H277 H 0.43889 0.31365 0.33262 0.0
H278 H 0.10157 0.31225 0.21505 0.0
H279 H 0.4404 0.25256 0.30014 0.0
H280 H 0.15722 0.11595 0.12906 0.0
N281 N 0.16774 0.25718 0.19748 0.0
C282 C 0.15002 0.228 0.18587 0.0
C283 C 0.11488 0.28827 0.20749 0.0
C284 C 0.11384 0.22769 0.18615 0.0
C285 C 0.15072 0.28743 0.20612 0.0
C286 C 0.09635 0.2582 0.19807 0.0
N287 N 0.20285 0.19989 0.17035 0.0
C288 C 0.22168 0.1726 0.1524 0.0
C289 C 0.15053 0.16842 0.15647 0.0
C290 C 0.16806 0.1987 0.17102 0.0
C291 C 0.16973 0.13974 0.14029 0.0
C292 C 0.20546 0.14194 0.13792 0.0
H293 H 0.06857 0.25904 0.1986 0.0
H294 H 0.06849 0.19654 0.17357 0.0
H295 H 0.10065 0.14459 0.1479 0.0
O296 O 0.25212 0.24619 0.11495 0.0
O297 O 0.21809 0.20764 0.24995 0.0
O298 O 0.22681 0.23155 0.33221 0.0
O299 O 0.2118 0.28339 0.1265 0.0
O300 O 0.28172 0.23081 0.19815 0.0
O301 O 0.2852 0.20221 0.27743 0.0
O302 O 0.28633 0.25468 0.41948 0.0
O303 O 0.30521 0.27705 0.26286 0.0
O304 O 0.25825 0.29936 0.22004 0.0
O305 O 0.29717 0.20527 0.38379 0.0
O306 O 0.23235 0.27799 0.33779 0.0
O307 O 0.21733 0.29607 0.25232 0.0
C308 C 0.21261 0.20826 0.30153 0.0
C309 C 0.215 0.25741 0.04211 0.0
C310 C 0.21601 0.25185 0.9456 0.0
C311 C 0.18112 0.24315 0.94637 0.0
C312 C 0.1802 0.24805 0.04188 0.0
C313 C 0.16342 0.24106 0.99426 0.0
C314 C 0.23308 0.25889 0.99367 0.0
C315 C 0.29153 0.2043 0.22622 0.0
C316 C 0.23156 0.26803 0.09221 0.0
C317 C 0.09626 0.19729 0.1732 0.0
C318 C 0.11456 0.16773 0.1584 0.0
C319 C 0.291 0.2997 0.2312 0.0
C320 C 0.27323 0.20563 0.4709 0.0
C321 C 0.25459 0.2038 0.56391 0.0
C322 C 0.23812 0.17233 0.55308 0.0
C323 C 0.25586 0.17461 0.46134 0.0
C324 C 0.27244 0.22021 0.52235 0.0
C325 C 0.23866 0.15806 0.50229 0.0
C326 C 0.21499 0.29748 0.30451 0.0
C327 C 0.29292 0.22239 0.42799 0.0
H328 H 0.16762 0.23774 0.90971 0.0
H329 H 0.16571 0.24684 0.07842 0.0
H330 H 0.13652 0.23428 0.99445 0.0
H331 H 0.25993 0.26606 0.99328 0.0
H332 H 0.22503 0.15835 0.58409 0.0
H333 H 0.25575 0.16289 0.42229 0.0
H334 H 0.28544 0.24436 0.52974 0.0
H335 H 0.22575 0.13394 0.49467 0.0
Eu336 Eu 0.72753 0.24641 0.32696 0.0
C337 C 0.85996 0.22294 0.19534 0.0
N338 N 0.84298 0.25345 0.19948 0.0
C339 C 0.89592 0.28314 0.21379 0.0
C340 C 0.89585 0.22139 0.20151 0.0
C341 C 0.86028 0.2834 0.20788 0.0
C342 C 0.91379 0.252 0.21077 0.0
C343 C 0.85792 0.16083 0.185 0.0
C344 C 0.8411 0.19292 0.18751 0.0
C345 C 0.89371 0.15924 0.19097 0.0
C346 C 0.9126 0.18941 0.19922 0.0
Eu347 Eu 0.78286 0.25104 0.19185 0.0
N348 N 0.80625 0.19502 0.18434 0.0
C349 C 0.83823 0.13122 0.17687 0.0
C350 C 0.78722 0.16651 0.17345 0.0
C351 C 0.80279 0.13415 0.17036 0.0
H352 H 0.84659 0.30755 0.20977 0.0
H353 H 0.78746 0.11152 0.16253 0.0
H354 H 0.6669 0.18614 0.31447 0.0
H355 H 0.71517 0.38494 0.36165 0.0
H356 H 0.7602 0.16857 0.16599 0.0
H357 H 0.85019 0.10609 0.17473 0.0
H358 H 0.74584 0.3299 0.35297 0.0
H359 H 0.90959 0.30692 0.22081 0.0
H360 H 0.90701 0.13478 0.18947 0.0
H361 H 0.94015 0.1877 0.2041 0.0
H362 H 0.6037 0.18275 0.30904 0.0
H363 H 0.94138 0.25187 0.2158 0.0
H364 H 0.65185 0.38648 0.35589 0.0
N365 N 0.66746 0.24033 0.32521 0.0
C366 C 0.64875 0.26963 0.33116 0.0
C367 C 0.61605 0.20734 0.31522 0.0
C368 C 0.61265 0.26889 0.32857 0.0
C369 C 0.6518 0.20936 0.31799 0.0
C370 C 0.59638 0.23724 0.32038 0.0
N371 N 0.70078 0.3006 0.3392 0.0
C372 C 0.71842 0.33019 0.3489 0.0
C373 C 0.64718 0.33152 0.34403 0.0
C374 C 0.66585 0.30061 0.3387 0.0
C375 C 0.66525 0.36219 0.35165 0.0
C376 C 0.701 0.36145 0.35464 0.0
H377 H 0.56868 0.2356 0.31802 0.0
H378 H 0.56624 0.29961 0.33161 0.0
H379 H 0.59646 0.3544 0.34514 0.0
O380 O 0.74675 0.25569 0.40759 0.0
O381 O 0.70279 0.27264 0.25577 0.0
O382 O 0.74739 0.29623 0.20805 0.0
O383 O 0.71047 0.21482 0.39289 0.0
O384 O 0.77819 0.27564 0.32749 0.0
O385 O 0.78568 0.29868 0.2436 0.0
O386 O 0.76912 0.23881 0.10985 0.0
O387 O 0.80704 0.22831 0.26645 0.0
O388 O 0.76126 0.20169 0.30394 0.0
O389 O 0.80592 0.27889 0.12578 0.0
O390 O 0.73043 0.22501 0.18897 0.0
O391 O 0.72414 0.20066 0.27163 0.0
C392 C 0.71486 0.29492 0.22151 0.0
C393 C 0.70908 0.24083 0.47779 0.0
C394 C 0.70868 0.24747 0.57409 0.0
C395 C 0.67305 0.25239 0.57255 0.0
C396 C 0.67347 0.24643 0.47705 0.0
C397 C 0.65563 0.25211 0.52425 0.0
C398 C 0.72676 0.24184 0.52653 0.0
C399 C 0.79195 0.29817 0.29492 0.0
C400 C 0.72756 0.23196 0.42859 0.0
C401 C 0.594 0.29966 0.33368 0.0
C402 C 0.61121 0.33088 0.34138 0.0
C403 C 0.79433 0.2048 0.29782 0.0
C404 C 0.77145 0.28445 0.04903 0.0
C405 C 0.75409 0.29313 0.95677 0.0
C406 C 0.73932 0.3248 0.97178 0.0
C407 C 0.756 0.31579 0.06307 0.0
C408 C 0.77044 0.27314 0.99588 0.0
C409 C 0.74025 0.33591 0.02447 0.0
C410 C 0.71538 0.2034 0.22155 0.0
C411 C 0.788 0.26302 0.08964 0.0
H412 H 0.65874 0.25669 0.60886 0.0
H413 H 0.65933 0.24584 0.44014 0.0
H414 H 0.62815 0.25604 0.52344 0.0
H415 H 0.75425 0.23758 0.52757 0.0
H416 H 0.72716 0.34116 0.94263 0.0
H417 H 0.75622 0.32476 0.10381 0.0
H418 H 0.78177 0.24857 0.9853 0.0
H419 H 0.72874 0.36026 0.03545 0.0
Eu420 Eu 0.71971 0.75324 0.68748 0.0
C421 C 0.84987 0.78255 0.82006 0.0
N422 N 0.83543 0.75105 0.81302 0.0
C423 C 0.89033 0.72661 0.7927 0.0
C424 C 0.88531 0.7874 0.81213 0.0
C425 C 0.855 0.7231 0.80037 0.0
C426 C 0.90554 0.75892 0.7983 0.0
C427 C 0.84285 0.84347 0.83847 0.0
C428 C 0.82871 0.81034 0.83256 0.0
C429 C 0.87815 0.84841 0.83039 0.0
C430 C 0.8993 0.82048 0.8172 0.0
Eu431 Eu 0.77547 0.74799 0.82304 0.0
N432 N 0.79432 0.80507 0.83808 0.0
C433 C 0.82109 0.87069 0.85248 0.0
C434 C 0.77352 0.83103 0.85532 0.0
C435 C 0.78639 0.8643 0.86181 0.0
H436 H 0.84336 0.69806 0.79636 0.0
H437 H 0.7696 0.88494 0.87458 0.0
H438 H 0.65917 0.81405 0.70372 0.0
H439 H 0.7074 0.61516 0.65099 0.0
H440 H 0.74723 0.8262 0.86558 0.0
H441 H 0.83096 0.89652 0.85742 0.0
H442 H 0.73832 0.66893 0.66912 0.0
H443 H 0.90577 0.70443 0.78226 0.0
H444 H 0.88937 0.87376 0.83431 0.0
H445 H 0.92643 0.82477 0.81084 0.0
H446 H 0.59594 0.81822 0.70214 0.0
H447 H 0.93286 0.76161 0.79178 0.0
H448 H 0.64421 0.61561 0.6429 0.0
N449 N 0.65987 0.76037 0.68796 0.0
C450 C 0.64137 0.73171 0.67625 0.0
C451 C 0.6084 0.79373 0.69503 0.0
C452 C 0.60527 0.73309 0.67377 0.0
C453 C 0.64415 0.79122 0.69665 0.0
C454 C 0.58886 0.76456 0.68355 0.0
N455 N 0.6932 0.69945 0.67445 0.0
C456 C 0.71082 0.66948 0.66724 0.0
C457 C 0.6398 0.6704 0.65706 0.0
C458 C 0.65851 0.70059 0.6682 0.0
C459 C 0.65767 0.63936 0.65122 0.0
C460 C 0.69333 0.63895 0.65617 0.0
H461 H 0.56116 0.76662 0.68219 0.0
H462 H 0.55894 0.70371 0.65993 0.0
H463 H 0.58913 0.64897 0.64506 0.0
O464 O 0.73819 0.74161 0.6075 0.0
O465 O 0.69515 0.7243 0.75654 0.0
O466 O 0.74087 0.70312 0.80395 0.0
O467 O 0.69938 0.78073 0.61894 0.0
O468 O 0.7709 0.72568 0.68578 0.0
O469 O 0.77977 0.70178 0.76859 0.0
O470 O 0.76157 0.7528 0.90847 0.0
O471 O 0.79894 0.7719 0.74878 0.0
O472 O 0.75412 0.79869 0.70679 0.0
O473 O 0.80085 0.71652 0.88174 0.0
O474 O 0.72274 0.77293 0.8254 0.0
O475 O 0.71635 0.79858 0.74354 0.0
C476 C 0.70794 0.70424 0.79358 0.0
C477 C 0.73463 0.7851 0.5427 0.0
C478 C 0.7478 0.79279 0.44888 0.0
C479 C 0.7637 0.82415 0.46106 0.0
C480 C 0.75082 0.81641 0.5543 0.0
C481 C 0.76515 0.83587 0.51351 0.0
C482 C 0.73325 0.77326 0.48988 0.0
C483 C 0.78593 0.70344 0.71735 0.0
C484 C 0.71877 0.76455 0.58486 0.0
C485 C 0.58669 0.70311 0.66206 0.0
C486 C 0.6039 0.67193 0.65346 0.0
C487 C 0.78693 0.79634 0.71813 0.0
C488 C 0.78948 0.71618 0.97607 0.0
C489 C 0.77997 0.71753 0.07221 0.0
C490 C 0.79992 0.68759 0.07691 0.0
C491 C 0.80935 0.68628 0.98244 0.0
C492 C 0.77493 0.73209 0.02147 0.0
C493 C 0.81454 0.67221 0.03241 0.0
C494 C 0.70836 0.79575 0.79401 0.0
C495 C 0.78359 0.72903 0.92152 0.0
H496 H 0.77504 0.83951 0.42992 0.0
H497 H 0.75217 0.82584 0.59474 0.0
H498 H 0.77731 0.86016 0.52255 0.0
H499 H 0.72093 0.74898 0.48069 0.0
H500 H 0.8045 0.67618 0.1154 0.0
H501 H 0.82076 0.67337 0.94857 0.0
H502 H 0.75947 0.75511 0.01737 0.0
H503 H 0.82988 0.64917 0.03666 0.0
Eu504 Eu 0.50114 0.5302 0.08353 0.0
C505 C 0.47521 0.39387 0.95366 0.0
N506 N 0.5052 0.41162 0.95323 0.0
C507 C 0.53711 0.35898 0.9573 0.0
C508 C 0.47512 0.35769 0.95737 0.0
C509 C 0.53589 0.3948 0.9536 0.0
C510 C 0.50659 0.34034 0.95964 0.0
C511 C 0.41295 0.39418 0.95121 0.0
C512 C 0.44444 0.41193 0.95048 0.0
C513 C 0.41279 0.35819 0.95542 0.0
C514 C 0.44376 0.34001 0.95852 0.0
Eu515 Eu 0.50065 0.47206 0.94978 0.0
N516 N 0.44532 0.44691 0.9479 0.0
C517 C 0.3825 0.41312 0.94767 0.0
C518 C 0.41578 0.4653 0.94193 0.0
C519 C 0.38397 0.4488 0.94242 0.0
H520 H 0.55937 0.40904 0.94941 0.0
H521 H 0.36058 0.46361 0.93858 0.0
H522 H 0.44763 0.59745 0.08282 0.0
H523 H 0.6408 0.52808 0.1104 0.0
H524 H 0.41649 0.4926 0.93657 0.0
H525 H 0.35779 0.40044 0.94827 0.0
H526 H 0.58309 0.5036 0.10776 0.0
H527 H 0.56158 0.34578 0.95788 0.0
H528 H 0.38883 0.34415 0.95608 0.0
H529 H 0.4432 0.31224 0.96155 0.0
H530 H 0.45035 0.66083 0.07628 0.0
H531 H 0.50759 0.31257 0.96245 0.0
H532 H 0.64876 0.59077 0.10077 0.0
N533 N 0.50139 0.59079 0.08179 0.0
C534 C 0.5326 0.60615 0.0846 0.0
C535 C 0.47371 0.64578 0.07788 0.0
C536 C 0.53553 0.64228 0.08279 0.0
C537 C 0.47212 0.60993 0.08006 0.0
C538 C 0.50559 0.66204 0.07875 0.0
N539 N 0.55826 0.55082 0.09006 0.0
C540 C 0.58599 0.53047 0.10017 0.0
C541 C 0.59448 0.60107 0.092 0.0
C542 C 0.56179 0.58568 0.08891 0.0
C543 C 0.62323 0.57994 0.09821 0.0
C544 C 0.61888 0.54453 0.10323 0.0
H545 H 0.50679 0.68984 0.07716 0.0
H546 H 0.57084 0.68521 0.08331 0.0
H547 H 0.62241 0.64918 0.09138 0.0
O548 O 0.50899 0.50955 0.16388 0.0
O549 O 0.52473 0.55183 1.00838 0.0
O550 O 0.5474 0.50578 0.96254 0.0
O551 O 0.48114 0.55692 0.15294 0.0
O552 O 0.52712 0.47745 0.08342 0.0
O553 O 0.5487 0.46609 0.99948 0.0
O554 O 0.48778 0.49046 0.87003 0.0
O555 O 0.47666 0.45177 0.0258 0.0
O556 O 0.45337 0.49844 0.06921 0.0
O557 O 0.5224 0.44768 0.87922 0.0
O558 O 0.47416 0.52426 0.94851 0.0
O559 O 0.45373 0.53926 0.03222 0.0
C560 C 0.54695 0.53869 0.97473 0.0
C561 C 0.46994 0.52676 0.23227 0.0
C562 C 0.46352 0.51534 0.32722 0.0
C563 C 0.4278 0.51905 0.32157 0.0
C564 C 0.43418 0.52973 0.22765 0.0
C565 C 0.41333 0.52605 0.27219 0.0
C566 C 0.48454 0.51948 0.28215 0.0
C567 C 0.54866 0.46134 0.05127 0.0
C568 C 0.49245 0.53465 0.18693 0.0
C569 C 0.56809 0.65753 0.08499 0.0
C570 C 0.59747 0.63699 0.08948 0.0
C571 C 0.45391 0.46548 0.05799 0.0
C572 C 0.52949 0.48172 0.80272 0.0
C573 C 0.53868 0.49224 0.7083 0.0
C574 C 0.57245 0.50237 0.71943 0.0
C575 C 0.56328 0.4921 0.81295 0.0
C576 C 0.51706 0.48224 0.75025 0.0
C577 C 0.58454 0.50256 0.77152 0.0
C578 C 0.45275 0.54118 0.97976 0.0
C579 C 0.50777 0.46851 0.84594 0.0
H580 H 0.41098 0.51703 0.35563 0.0
H581 H 0.42242 0.53568 0.18986 0.0
H582 H 0.38583 0.52904 0.26859 0.0
H583 H 0.51216 0.51731 0.28585 0.0
H584 H 0.58943 0.51027 0.68773 0.0
H585 H 0.57334 0.4914 0.85285 0.0
H586 H 0.49106 0.47401 0.74192 0.0
H587 H 0.61062 0.51038 0.77967 0.0
Eu588 Eu 0.99696 0.47646 0.57587 0.0
C589 C 0.02661 0.60828 0.43258 0.0
N590 N 0.99723 0.5913 0.44495 0.0
C591 C 0.96752 0.64476 0.45694 0.0
C592 C 0.02765 0.64454 0.43357 0.0
C593 C 0.9676 0.60886 0.45507 0.0
C594 C 0.99772 0.66269 0.4465 0.0
C595 C 0.08696 0.60657 0.40839 0.0
C596 C 0.05601 0.58938 0.41986 0.0
C597 C 0.08791 0.64265 0.40905 0.0
C598 C 0.05838 0.66155 0.42161 0.0
Eu599 Eu 1.00001 0.53111 0.43756 0.0
N600 N 0.05468 0.55437 0.42038 0.0
C601 C 0.11622 0.58698 0.39706 0.0
C602 C 0.08295 0.5352 0.40813 0.0
C603 C 0.11416 0.55117 0.3968 0.0
H604 H 0.94372 0.59542 0.46057 0.0
H605 H 0.13655 0.53583 0.38737 0.0
H606 H 0.04931 0.40736 0.55829 0.0
H607 H 0.86202 0.47848 0.63158 0.0
H608 H 0.08165 0.50766 0.40599 0.0
H609 H 0.14047 0.59925 0.38823 0.0
H610 H 0.91988 0.50273 0.61703 0.0
H611 H 0.94404 0.65858 0.46569 0.0
H612 H 0.11148 0.65621 0.40036 0.0
H613 H 0.05964 0.68938 0.42224 0.0
H614 H 0.04407 0.34538 0.54071 0.0
H615 H 0.99754 0.69054 0.44776 0.0
H616 H 0.85148 0.41669 0.6143 0.0
N617 N 0.9956 0.4161 0.56246 0.0
C618 C 0.96423 0.4011 0.5674 0.0
C619 C 0.02131 0.36084 0.54712 0.0
C620 C 0.9601 0.36537 0.55995 0.0
C621 C 0.02417 0.39626 0.55556 0.0
C622 C 0.98905 0.34539 0.54838 0.0
N623 N 0.94097 0.45561 0.58928 0.0
C624 C 0.91521 0.47593 0.60857 0.0
C625 C 0.90388 0.40623 0.59053 0.0
C626 C 0.93635 0.42122 0.58252 0.0
C627 C 0.87681 0.42725 0.60773 0.0
C628 C 0.8826 0.46218 0.6173 0.0
H629 H 0.98696 0.31787 0.54243 0.0
H630 H 0.92381 0.32322 0.55971 0.0
H631 H 0.87462 0.359 0.58642 0.0
O632 O 0.99265 0.50024 0.65485 0.0
O633 O 0.95387 0.47264 0.51493 0.0
O634 O 0.98349 0.47561 0.43743 0.0
O635 O 0.01332 0.44907 0.64682 0.0
O636 O 0.97749 0.53099 0.57381 0.0
O637 O 0.95326 0.53692 0.49081 0.0
O638 O 0.01012 0.53472 0.35231 0.0
O639 O 0.02631 0.55408 0.51022 0.0
O640 O 0.04512 0.50699 0.55757 0.0
O641 O 0.95864 0.5425 0.38205 0.0
O642 O 0.02953 0.48084 0.43771 0.0
O643 O 0.04384 0.46444 0.52414 0.0
C644 C 0.95773 0.46389 0.465 0.0
C645 C 0.02951 0.48057 0.72347 0.0
C646 C 0.03897 0.49243 0.81792 0.0
C647 C 0.07452 0.48962 0.8091 0.0
C648 C 0.06501 0.47756 0.71599 0.0
C649 C 0.08733 0.48228 0.75859 0.0
C650 C 0.01655 0.48796 0.77449 0.0
C651 C 0.9543 0.54397 0.54196 0.0
C652 C 0.00553 0.47388 0.67946 0.0
C653 C 0.92749 0.35055 0.56583 0.0
C654 C 0.89948 0.37091 0.58122 0.0
C655 C 0.04655 0.53994 0.54588 0.0
C656 C 0.96465 0.51869 0.29526 0.0
C657 C 0.96524 0.50367 0.20097 0.0
C658 C 0.93849 0.48037 0.20968 0.0
C659 C 0.93785 0.49514 0.30302 0.0
C660 C 0.97837 0.52285 0.24386 0.0
C661 C 0.92495 0.47617 0.2604 0.0
C662 C 0.04795 0.46296 0.47196 0.0
C663 C 0.97803 0.5394 0.34001 0.0
H664 H 0.09252 0.49222 0.84156 0.0
H665 H 0.07545 0.47112 0.67738 0.0
H666 H 0.11471 0.47981 0.75259 0.0
H667 H 0.98907 0.48997 0.78031 0.0
H668 H 0.92805 0.46547 0.17707 0.0
H669 H 0.9267 0.4915 0.34192 0.0
H670 H 0.99903 0.54095 0.23724 0.0
H671 H 0.9043 0.4582 0.26662 0.0
C672 C 0.06126 0.09474 0.42934 0.0
C673 C 0.07299 0.06249 0.44621 0.0
C674 C 0.08354 0.1184 0.40516 0.0
C675 C 0.11881 0.11021 0.39943 0.0
C676 C 0.13092 0.07796 0.4178 0.0
C677 C 0.10777 0.05425 0.44005 0.0
C678 C 0.06919 0.15195 0.385 0.0
C679 C 0.16847 0.06869 0.41468 0.0
C680 C 0.17367 0.15644 0.29624 0.0
C681 C 0.18872 0.1829 0.32621 0.0
C682 C 0.15039 0.13316 0.31917 0.0
C683 C 0.14295 0.1353 0.37414 0.0
C684 C 0.15871 0.16141 0.40492 0.0
C685 C 0.18097 0.18502 0.38059 0.0
C686 C 0.1338 0.10617 0.28453 0.0
C687 C 0.15219 0.16439 0.46374 0.0
H688 H 0.03437 0.10124 0.43413 0.0
H689 H 0.11702 0.02958 0.4539 0.0
H690 H 0.0814 0.17384 0.40598 0.0
H691 H 0.07508 0.15472 0.34215 0.0
H692 H 0.04098 0.15383 0.39058 0.0
H693 H 0.17405 0.04336 0.43298 0.0
H694 H 0.17688 0.0679 0.37267 0.0
H695 H 0.184 0.08864 0.43508 0.0
H696 H 0.18021 0.15368 0.25486 0.0
H697 H 0.19248 0.20512 0.40454 0.0
H698 H 0.10553 0.10677 0.28962 0.0
H699 H 0.14281 0.08035 0.29667 0.0
H700 H 0.13987 0.10968 0.24186 0.0
H701 H 0.12464 0.16956 0.47099 0.0
H702 H 0.16736 0.18529 0.48253 0.0
H703 H 0.1586 0.13974 0.48337 0.0
C704 C 0.05963 0.91037 0.61194 0.0
C705 C 0.07122 0.93168 0.57103 0.0
C706 C 0.08185 0.88709 0.63691 0.0
C707 C 0.11672 0.88564 0.62136 0.0
C708 C 0.12857 0.90726 0.58009 0.0
C709 C 0.10554 0.92978 0.55496 0.0
C710 C 0.06799 0.86412 0.68001 0.0
C711 C 0.16571 0.90706 0.56325 0.0
C712 C 0.18111 0.84798 0.71889 0.0
C713 C 0.1867 0.81511 0.69744 0.0
C714 C 0.15845 0.87125 0.69459 0.0
C715 C 0.14072 0.86128 0.64794 0.0
C716 C 0.14595 0.82796 0.62655 0.0
C717 C 0.16903 0.8054 0.65131 0.0
C718 C 0.15381 0.90664 0.71844 0.0
C719 C 0.12709 0.81609 0.57749 0.0
H720 H 0.03302 0.91186 0.62432 0.0
H721 H 0.1146 0.94669 0.52392 0.0
H722 H 0.07254 0.83677 0.66942 0.0
H723 H 0.08166 0.86916 0.71782 0.0
H724 H 0.04007 0.86798 0.68666 0.0
H725 H 0.17097 0.92592 0.53131 0.0
H726 H 0.1823 0.91317 0.59776 0.0
H727 H 0.17308 0.88107 0.54892 0.0
H728 H 0.19501 0.85582 0.75407 0.0
H729 H 0.17302 0.77994 0.63471 0.0
H730 H 0.12657 0.91071 0.72952 0.0
H731 H 0.16047 0.92651 0.68873 0.0
H732 H 0.16992 0.91061 0.75428 0.0
H733 H 0.099 0.81831 0.58377 0.0
H734 H 0.13327 0.78904 0.56676 0.0
H735 H 0.13374 0.83279 0.54347 0.0
C736 C 0.3269 0.82153 0.87151 0.0
C737 C 0.31538 0.8254 0.81904 0.0
C738 C 0.34922 0.84538 0.89489 0.0
C739 C 0.36092 0.87369 0.86498 0.0
C740 C 0.34935 0.87799 0.81212 0.0
C741 C 0.32628 0.85408 0.79003 0.0
C742 C 0.3603 0.84022 0.95175 0.0
C743 C 0.3616 0.90769 0.77883 0.0
C744 C 0.39671 0.9509 0.93971 0.0
C745 C 0.43183 0.94352 0.9397 0.0
C746 C 0.37325 0.92834 0.91566 0.0
C747 C 0.38549 0.8985 0.88922 0.0
C748 C 0.42117 0.89149 0.88817 0.0
C749 C 0.44385 0.91372 0.91452 0.0
C750 C 0.33537 0.93596 0.91972 0.0
C751 C 0.43542 0.86053 0.85922 0.0
H752 H 0.31857 0.79969 0.89466 0.0
H753 H 0.31714 0.85766 0.74984 0.0
H754 H 0.38846 0.83633 0.9536 0.0
H755 H 0.35426 0.86351 0.97561 0.0
H756 H 0.34762 0.81775 0.97036 0.0
H757 H 0.35191 0.9063 0.73745 0.0
H758 H 0.3529 0.93227 0.7968 0.0
H759 H 0.39006 0.90822 0.77791 0.0
H760 H 0.38754 0.97382 0.9599 0.0
H761 H 0.47112 0.9082 0.91454 0.0
H762 H 0.32217 0.91446 0.94003 0.0
H763 H 0.32403 0.93813 0.87955 0.0
H764 H 0.33008 0.96012 0.94197 0.0
H765 H 0.42651 0.83663 0.87864 0.0
H766 H 0.46391 0.86036 0.8585 0.0
H767 H 0.42585 0.86 0.81776 0.0
C768 C 0.44226 0.08499 0.11651 0.0
C769 C 0.43287 0.06792 0.06965 0.0
C770 C 0.41903 0.10638 0.14333 0.0
C771 C 0.38545 0.11045 0.12309 0.0
C772 C 0.37572 0.09313 0.0759 0.0
C773 C 0.39968 0.0722 0.04945 0.0
C774 C 0.43054 0.12487 0.19304 0.0
C775 C 0.34 0.09669 0.05349 0.0
C776 C 0.31727 0.14552 0.21694 0.0
C777 C 0.31566 0.17994 0.20114 0.0
C778 C 0.33957 0.12233 0.19135 0.0
C779 C 0.36109 0.1342 0.14998 0.0
C780 C 0.35986 0.16908 0.13463 0.0
C781 C 0.33696 0.19143 0.16009 0.0
C782 C 0.33998 0.08515 0.2082 0.0
C783 C 0.38285 0.18289 0.09145 0.0
H784 H 0.46799 0.08181 0.1321 0.0
H785 H 0.39225 0.05866 0.01359 0.0
H786 H 0.42838 0.15307 0.18746 0.0
H787 H 0.41367 0.11797 0.22676 0.0
H788 H 0.45746 0.11861 0.20379 0.0
H789 H 0.33606 0.08037 0.01773 0.0
H790 H 0.32074 0.0895 0.08389 0.0
H791 H 0.33505 0.12387 0.04272 0.0
H792 H 0.30065 0.13665 0.24851 0.0
H793 H 0.33608 0.21818 0.14822 0.0
H794 H 0.36593 0.07801 0.22244 0.0
H795 H 0.33411 0.06833 0.17372 0.0
H796 H 0.32114 0.07987 0.2402 0.0
H797 H 0.41013 0.17862 0.10209 0.0
H798 H 0.37885 0.21081 0.0846 0.0
H799 H 0.37805 0.16892 0.05373 0.0
C800 C 0.92953 0.93437 0.63083 0.0
C801 C 0.9324 0.93654 0.57529 0.0
C802 C 0.90533 0.91261 0.65505 0.0
C803 C 0.88386 0.89164 0.62325 0.0
C804 C 0.88646 0.8937 0.56733 0.0
C805 C 0.91003 0.91662 0.54424 0.0
C806 C 0.90286 0.91195 0.71481 0.0
C807 C 0.86457 0.87133 0.53189 0.0
C808 C 0.84571 0.81106 0.68564 0.0
C809 C 0.81151 0.82087 0.69415 0.0
C810 C 0.86941 0.8337 0.66252 0.0
C811 C 0.85891 0.86734 0.64837 0.0
C812 C 0.82445 0.87754 0.65769 0.0
C813 C 0.80111 0.85407 0.67994 0.0
C814 C 0.90556 0.82135 0.65245 0.0
C815 C 0.81225 0.91331 0.64443 0.0
H816 H 0.94615 0.94986 0.6557 0.0
H817 H 0.9109 0.91877 0.50182 0.0
H818 H 0.87595 0.91639 0.72753 0.0
H819 H 0.91056 0.88627 0.72959 0.0
H820 H 0.91945 0.93163 0.73384 0.0
H821 H 0.8699 0.87544 0.48918 0.0
H822 H 0.86906 0.84382 0.54118 0.0
H823 H 0.83707 0.8767 0.53933 0.0
H824 H 0.85386 0.78531 0.69616 0.0
H825 H 0.77478 0.86189 0.68693 0.0
H826 H 0.9241 0.83806 0.67365 0.0
H827 H 0.91148 0.82302 0.60947 0.0
H828 H 0.90958 0.7944 0.66553 0.0
H829 H 0.82874 0.93265 0.66439 0.0
H830 H 0.78522 0.91777 0.65663 0.0
H831 H 0.81434 0.91765 0.60111 0.0
C832 C 0.92816 0.06358 0.39569 0.0
C833 C 0.929 0.06029 0.45127 0.0
C834 C 0.90613 0.08689 0.37069 0.0
C835 C 0.88451 0.10803 0.40184 0.0
C836 C 0.88476 0.10478 0.45784 0.0
C837 C 0.90664 0.08056 0.48191 0.0
C838 C 0.9062 0.08897 0.3108 0.0
C839 C 0.86225 0.12727 0.49226 0.0
C840 C 0.85131 0.18937 0.33601 0.0
C841 C 0.81756 0.18005 0.32366 0.0
C842 C 0.87321 0.16644 0.36246 0.0
C843 C 0.86129 0.13312 0.37545 0.0
C844 C 0.82748 0.12334 0.36163 0.0
C845 C 0.80588 0.1471 0.33651 0.0
C846 C 0.90898 0.17798 0.37682 0.0
C847 C 0.81426 0.08764 0.3728 0.0
H848 H 0.94492 0.04796 0.37117 0.0
H849 H 0.90653 0.07794 0.52466 0.0
H850 H 0.87987 0.08512 0.29522 0.0
H851 H 0.91465 0.11487 0.29813 0.0
H852 H 0.92342 0.06954 0.29228 0.0
H853 H 0.86607 0.12232 0.53522 0.0
H854 H 0.86778 0.15475 0.48432 0.0
H855 H 0.83489 0.12288 0.4824 0.0
H856 H 0.86037 0.21487 0.326 0.0
H857 H 0.77993 0.13967 0.32615 0.0
H858 H 0.92816 0.16187 0.35571 0.0
H859 H 0.91337 0.1746 0.41998 0.0
H860 H 0.9136 0.20532 0.36653 0.0
H861 H 0.83089 0.06826 0.35302 0.0
H862 H 0.7875 0.08398 0.3588 0.0
H863 H 0.81519 0.0825 0.41601 0.0
C864 C 0.66028 0.19328 0.17502 0.0
C865 C 0.68945 0.17996 0.19979 0.0
C866 C 0.63572 0.17134 0.15243 0.0
C867 C 0.64145 0.13536 0.15264 0.0
C868 C 0.67102 0.12187 0.17784 0.0
C869 C 0.69427 0.14438 0.20239 0.0
C870 C 0.60394 0.18668 0.12779 0.0
C871 C 0.67875 0.08383 0.17714 0.0
C872 C 0.56844 0.07311 0.1247 0.0
C873 C 0.57272 0.06701 0.07038 0.0
C874 C 0.59028 0.09578 0.15199 0.0
C875 C 0.61742 0.11196 0.12431 0.0
C876 C 0.62195 0.10541 0.06942 0.0
C877 C 0.59935 0.08313 0.04314 0.0
C878 C 0.58416 0.10263 0.21021 0.0
C879 C 0.65092 0.12158 0.0386 0.0
H880 H 0.65656 0.22089 0.17378 0.0
H881 H 0.71699 0.13428 0.22168 0.0
H882 H 0.60419 0.18217 0.08432 0.0
H883 H 0.58069 0.174 0.14382 0.0
H884 H 0.60192 0.21479 0.13521 0.0
H885 H 0.7029 0.07755 0.19841 0.0
H886 H 0.65741 0.06938 0.19563 0.0
H887 H 0.68106 0.07468 0.13551 0.0
H888 H 0.54768 0.06052 0.14559 0.0
H889 H 0.60305 0.07758 1.00164 0.0
H890 H 0.58081 0.13063 0.21716 0.0
H891 H 0.60677 0.09432 0.23357 0.0
H892 H 0.56117 0.089 0.22535 0.0
H893 H 0.64811 0.14996 0.03894 0.0
H894 H 0.65171 0.11266 0.9967 0.0
H895 H 0.67583 0.11544 0.05761 0.0
C896 C 0.68042 0.85354 0.7974 0.0
C897 C 0.68407 0.82038 0.81806 0.0
C898 C 0.65881 0.87767 0.82206 0.0
C899 C 0.64015 0.86813 0.86789 0.0
C900 C 0.64339 0.83449 0.88839 0.0
C901 C 0.66553 0.81108 0.8634 0.0
C902 C 0.65623 0.91346 0.7995 0.0
C903 C 0.62347 0.82324 0.93667 0.0
C904 C 0.60658 0.93802 0.96001 0.0
C905 C 0.57279 0.94144 0.94214 0.0
C906 C 0.629 0.91439 0.93585 0.0
C907 C 0.61686 0.89321 0.89401 0.0
C908 C 0.58243 0.89603 0.87693 0.0
C909 C 0.56092 0.92043 0.90081 0.0
C910 C 0.66575 0.91241 0.95444 0.0
C911 C 0.56832 0.87332 0.83337 0.0
H912 H 0.69505 0.86086 0.76267 0.0
H913 H 0.66822 0.78535 0.87926 0.0
H914 H 0.62934 0.919 0.78793 0.0
H915 H 0.66354 0.93267 0.83013 0.0
H916 H 0.67295 0.91697 0.76425 0.0
H917 H 0.62844 0.79594 0.94696 0.0
H918 H 0.63034 0.83956 0.97125 0.0
H919 H 0.59557 0.8266 0.9297 0.0
H920 H 0.61568 0.95442 0.9919 0.0
H921 H 0.53458 0.92283 0.88752 0.0
H922 H 0.68333 0.91769 0.92083 0.0
H923 H 0.67158 0.8861 0.96867 0.0
H924 H 0.67124 0.931 0.98691 0.0
H925 H 0.5825 0.87792 0.79592 0.0
H926 H 0.54058 0.87796 0.82616 0.0
H927 H 0.57197 0.84587 0.84374 0.0
C928 C 0.56799 0.5981 0.95594 0.0
C929 C 0.57191 0.56241 0.94976 0.0
C930 C 0.59147 0.62117 0.93383 0.0
C931 C 0.61858 0.60841 0.90204 0.0
C932 C 0.62239 0.57248 0.89464 0.0
C933 C 0.59954 0.54988 0.91977 0.0
C934 C 0.58725 0.6592 0.94465 0.0
C935 C 0.64999 0.55794 0.85899 0.0
C936 C 0.65256 0.67176 0.80106 0.0
C937 C 0.68494 0.67994 0.82161 0.0
C938 C 0.63138 0.64754 0.82573 0.0
C939 C 0.64175 0.63283 0.87436 0.0
C940 C 0.6736 0.64229 0.89702 0.0
C941 C 0.69519 0.66508 0.86971 0.0
C942 C 0.59794 0.63758 0.79962 0.0
C943 C 0.68458 0.62885 0.95048 0.0
H944 H 0.54638 0.60824 0.97791 0.0
H945 H 0.60323 0.52243 0.9156 0.0
H946 H 0.60994 0.6688 0.96673 0.0
H947 H 0.58584 0.67376 0.90703 0.0
H948 H 0.56386 0.665 0.96824 0.0
H949 H 0.64992 0.52938 0.85819 0.0
H950 H 0.64615 0.56744 0.81796 0.0
H951 H 0.67561 0.56682 0.87221 0.0
H952 H 0.64365 0.68405 0.76554 0.0
H953 H 0.71978 0.67191 0.88677 0.0
H954 H 0.57604 0.64395 0.82597 0.0
H955 H 0.59741 0.60938 0.79265 0.0
H956 H 0.594 0.65078 0.76119 0.0
H957 H 0.66462 0.63479 0.98059 0.0
H958 H 0.7093 0.64011 0.96384 0.0
H959 H 0.68735 0.6005 0.94883 0.0
C960 C 0.65726 0.30909 0.18474 0.0
C961 C 0.69066 0.31951 0.19734 0.0
C962 C 0.63432 0.33156 0.15952 0.0
C963 C 0.64448 0.36584 0.14911 0.0
C964 C 0.67789 0.37677 0.16344 0.0
C965 C 0.70084 0.35323 0.18637 0.0
C966 C 0.59955 0.31836 0.14286 0.0
C967 C 0.68931 0.41339 0.15501 0.0
C968 C 0.59869 0.42008 0.04524 0.0
C969 C 0.57357 0.4369 0.07568 0.0
C970 C 0.62104 0.39591 0.06815 0.0
C971 C 0.62004 0.39029 0.12364 0.0
C972 C 0.59584 0.40836 0.15503 0.0
C973 C 0.57246 0.43073 0.13058 0.0
C974 C 0.64586 0.3767 0.03279 0.0
C975 C 0.59495 0.40452 0.21464 0.0
H976 H 0.64938 0.28299 0.19324 0.0
H977 H 0.72655 0.3614 0.19675 0.0
H978 H 0.57908 0.33241 0.1645 0.0
H979 H 0.59559 0.32303 0.09987 0.0
H980 H 0.59655 0.29043 0.15059 0.0
H981 H 0.71472 0.41861 0.17323 0.0
H982 H 0.69104 0.41875 0.11196 0.0
H983 H 0.67024 0.43152 0.17216 0.0
H984 H 0.60115 0.42578 1.00349 0.0
H985 H 0.55361 0.44387 0.15496 0.0
H986 H 0.64824 0.34939 0.04488 0.0
H987 H 0.67155 0.38863 0.03598 0.0
H988 H 0.63788 0.37754 0.99051 0.0
H989 H 0.58813 0.37777 0.22528 0.0
H990 H 0.57616 0.4222 0.23364 0.0
H991 H 0.62073 0.40974 0.2315 0.0
C992 C 0.90043 0.43477 0.46178 0.0
C993 C 0.93258 0.44088 0.43886 0.0
C994 C 0.877 0.41201 0.43814 0.0
C995 C 0.88548 0.39589 0.38937 0.0
C996 C 0.91741 0.40294 0.36504 0.0
C997 C 0.94072 0.425 0.39039 0.0
C998 C 0.84345 0.40478 0.46582 0.0
C999 C 0.92724 0.38676 0.31262 0.0
C1000 C 0.84092 0.31213 0.35408 0.0
C1001 C 0.81629 0.32313 0.31746 0.0
C1002 C 0.86386 0.3355 0.37728 0.0
C1003 C 0.86145 0.37083 0.36453 0.0
C1004 C 0.83626 0.38207 0.3279 0.0
C1005 C 0.81433 0.35792 0.30402 0.0
C1006 C 0.89056 0.3224 0.41564 0.0
C1007 C 0.8322 0.4196 0.31447 0.0
H1008 H 0.89347 0.44789 0.49814 0.0
H1009 H 0.96543 0.42975 0.37213 0.0
H1010 H 0.82163 0.40844 0.43819 0.0
H1011 H 0.84297 0.37758 0.47889 0.0
H1012 H 0.83949 0.42153 0.50111 0.0
H1013 H 0.95167 0.39722 0.29683 0.0
H1014 H 0.93007 0.35857 0.31749 0.0
H1015 H 0.90674 0.39107 0.28286 0.0
H1016 H 0.84247 0.28508 0.36408 0.0
H1017 H 0.79496 0.36633 0.27606 0.0
H1018 H 0.88699 0.33479 0.45499 0.0
H1019 H 0.91659 0.3293 0.40149 0.0
H1020 H 0.88935 0.29407 0.42063 0.0
H1021 H 0.82721 0.43475 0.35107 0.0
H1022 H 0.81095 0.42419 0.28602 0.0
H1023 H 0.8563 0.42936 0.29701 0.0
C1024 C 0.82903 0.69051 0.64785 0.0
C1025 C 0.81114 0.67997 0.69315 0.0
C1026 C 0.85234 0.66857 0.62253 0.0
C1027 C 0.85754 0.63513 0.64268 0.0
C1028 C 0.83972 0.62434 0.68867 0.0
C1029 C 0.81685 0.64711 0.71378 0.0
C1030 C 0.87145 0.68123 0.57428 0.0
C1031 C 0.84461 0.58869 0.71092 0.0
C1032 C 0.89552 0.56902 0.54824 0.0
C1033 C 0.92965 0.56829 0.56522 0.0
C1034 C 0.8715 0.59035 0.57372 0.0
C1035 C 0.88228 0.61179 0.61612 0.0
C1036 C 0.91695 0.61162 0.63245 0.0
C1037 C 0.94016 0.58959 0.60707 0.0
C1038 C 0.83456 0.58965 0.55587 0.0
C1039 C 0.92954 0.63466 0.67674 0.0
H1040 H 0.82498 0.71616 0.63233 0.0
H1041 H 0.80292 0.63897 0.74875 0.0
H1042 H 0.89951 0.67967 0.58119 0.0
H1043 H 0.86557 0.66461 0.5396 0.0
H1044 H 0.86474 0.7082 0.56421 0.0
H1045 H 0.82829 0.58406 0.74629 0.0
H1046 H 0.83839 0.56916 0.68019 0.0
H1047 H 0.87183 0.5848 0.72218 0.0
H1048 H 0.88745 0.5522 0.5162 0.0
H1049 H 0.96672 0.58913 0.61985 0.0
H1050 H 0.82661 0.61558 0.54241 0.0
H1051 H 0.81773 0.58268 0.58965 0.0
H1052 H 0.83023 0.57102 0.52302 0.0
H1053 H 0.9242 0.66195 0.66708 0.0
H1054 H 0.95749 0.6317 0.68399 0.0
H1055 H 0.91563 0.62877 0.71398 0.0
C1056 C 0.32899 0.35091 0.23335 0.0
C1057 C 0.31301 0.32485 0.20427 0.0
C1058 C 0.35144 0.37409 0.20889 0.0
C1059 C 0.35735 0.37155 0.15356 0.0
C1060 C 0.34035 0.34576 0.12364 0.0
C1061 C 0.31838 0.3226 0.14949 0.0
C1062 C 0.36926 0.40093 0.2424 0.0
C1063 C 0.34575 0.3423 0.06457 0.0
C1064 C 0.39452 0.45135 0.08828 0.0
C1065 C 0.42904 0.44211 0.083 0.0
C1066 C 0.3706 0.42813 0.10947 0.0
C1067 C 0.38184 0.39552 0.1275 0.0
C1068 C 0.41683 0.38628 0.12244 0.0
C1069 C 0.43986 0.40946 0.09932 0.0
C1070 C 0.3333 0.43839 0.11241 0.0
C1071 C 0.43012 0.3522 0.1423 0.0
H1072 H 0.32351 0.35344 0.2751 0.0
H1073 H 0.30576 0.30241 0.12706 0.0
H1074 H 0.39739 0.39662 0.24106 0.0
H1075 H 0.36431 0.42698 0.22639 0.0
H1076 H 0.3608 0.40036 0.28446 0.0
H1077 H 0.32835 0.32296 0.04643 0.0
H1078 H 0.34158 0.36741 0.04486 0.0
H1079 H 0.3726 0.33442 0.0565 0.0
H1080 H 0.38609 0.47634 0.07449 0.0
H1081 H 0.4666 0.40228 0.09488 0.0
H1082 H 0.32488 0.4394 0.15443 0.0
H1083 H 0.31728 0.41884 0.09199 0.0
H1084 H 0.32843 0.46384 0.09406 0.0
H1085 H 0.42461 0.34968 0.18531 0.0
H1086 H 0.45818 0.34923 0.13606 0.0
H1087 H 0.41684 0.33079 0.1217 0.0
C1088 C 0.42315 0.56191 0.89749 0.0
C1089 C 0.42731 0.56402 0.95289 0.0
C1090 C 0.40047 0.5837 0.87037 0.0
C1091 C 0.38262 0.60957 0.89872 0.0
C1092 C 0.38656 0.61197 0.95447 0.0
C1093 C 0.40772 0.58828 0.98101 0.0
C1094 C 0.39563 0.57892 0.81134 0.0
C1095 C 0.3689 0.63998 0.98599 0.0
C1096 C 0.35143 0.68752 0.82165 0.0
C1097 C 0.31603 0.68145 0.81864 0.0
C1098 C 0.37341 0.66433 0.84737 0.0
C1099 C 0.35973 0.63406 0.87013 0.0
C1100 C 0.32411 0.62742 0.8661 0.0
C1101 C 0.30265 0.65136 0.84088 0.0
C1102 C 0.41114 0.67263 0.85119 0.0
C1103 C 0.30866 0.59496 0.88826 0.0
H1104 H 0.43734 0.54283 0.87499 0.0
H1105 H 0.40897 0.58914 0.02363 0.0
H1106 H 0.36798 0.57583 0.8021 0.0
H1107 H 0.40469 0.60203 0.78994 0.0
H1108 H 0.40971 0.55615 0.79579 0.0
H1109 H 0.37659 0.63992 0.02842 0.0
H1110 H 0.37511 0.66549 0.96895 0.0
H1111 H 0.3407 0.6368 0.9836 0.0
H1112 H 0.36193 0.71087 0.80496 0.0
H1113 H 0.27537 0.64634 0.83824 0.0
H1114 H 0.42657 0.65181 0.83268 0.0
H1115 H 0.41885 0.67429 0.8935 0.0
H1116 H 0.41766 0.69725 0.83144 0.0
H1117 H 0.32212 0.57212 0.87176 0.0
H1118 H 0.28087 0.59273 0.8792 0.0
H1119 H 0.31199 0.59439 0.93192 0.0
C1120 C 0.20099 0.6474 0.67323 0.0
C1121 C 0.189 0.67532 0.70314 0.0
C1122 C 0.1781 0.62409 0.64968 0.0
C1123 C 0.14242 0.62804 0.65822 0.0
C1124 C 0.13031 0.65499 0.69123 0.0
C1125 C 0.15371 0.67883 0.71213 0.0
C1126 C 0.19204 0.59546 0.61527 0.0
C1127 C 0.09266 0.65879 0.70406 0.0
C1128 C 0.07899 0.59524 0.5561 0.0
C1129 C 0.0712 0.56229 0.57483 0.0
C1130 C 0.10269 0.6164 0.58223 0.0
C1131 C 0.11769 0.60521 0.63023 0.0
C1132 C 0.10912 0.57242 0.65055 0.0
C1133 C 0.08648 0.55119 0.62206 0.0
C1134 C 0.11225 0.65046 0.55775 0.0
C1135 C 0.12302 0.55922 0.70247 0.0
H1136 H 0.22824 0.6436 0.66846 0.0
H1137 H 0.14428 0.70076 0.73427 0.0
H1138 H 0.18526 0.57027 0.63283 0.0
H1139 H 0.18018 0.59659 0.57528 0.0
H1140 H 0.22036 0.5968 0.61083 0.0
H1141 H 0.08783 0.67924 0.73407 0.0
H1142 H 0.07808 0.66514 0.66764 0.0
H1143 H 0.08248 0.63409 0.71926 0.0
H1144 H 0.06683 0.60464 0.52077 0.0
H1145 H 0.08026 0.52611 0.63751 0.0
H1146 H 0.14013 0.65068 0.54878 0.0
H1147 H 0.10716 0.67184 0.58589 0.0
H1148 H 0.09792 0.6556 0.52065 0.0
H1149 H 0.13579 0.53402 0.69579 0.0
H1150 H 0.10131 0.55475 0.7301 0.0
H1151 H 0.14143 0.57684 0.72202 0.0
C1152 C 0.20063 0.35649 0.33471 0.0
C1153 C 0.19098 0.32221 0.32767 0.0
C1154 C 0.17859 0.37984 0.36021 0.0
C1155 C 0.14599 0.36855 0.3778 0.0
C1156 C 0.13605 0.3339 0.36975 0.0
C1157 C 0.1589 0.31101 0.34505 0.0
C1158 C 0.19012 0.41652 0.36825 0.0
C1159 C 0.10135 0.32102 0.3872 0.0
C1160 C 0.09829 0.4224 0.4805 0.0
C1161 C 0.07394 0.43923 0.44887 0.0
C1162 C 0.12165 0.39887 0.45808 0.0
C1163 C 0.12165 0.3933 0.40251 0.0
C1164 C 0.09808 0.41116 0.37021 0.0
C1165 C 0.07426 0.43341 0.39378 0.0
C1166 C 0.14612 0.37973 0.49377 0.0
C1167 C 0.09783 0.40664 0.31064 0.0
H1168 H 0.22563 0.36483 0.32104 0.0
H1169 H 0.15173 0.28432 0.3392 0.0
H1170 H 0.1725 0.43424 0.34719 0.0
H1171 H 0.18911 0.42337 0.41098 0.0
H1172 H 0.21664 0.42085 0.35361 0.0
H1173 H 0.09797 0.29314 0.37908 0.0
H1174 H 0.09785 0.32572 0.43032 0.0
H1175 H 0.08082 0.33535 0.36629 0.0
H1176 H 0.09916 0.42752 0.52273 0.0
H1177 H 0.05582 0.44632 0.36858 0.0
H1178 H 0.17297 0.3857 0.48268 0.0
H1179 H 0.14263 0.3516 0.48856 0.0
H1180 H 0.1423 0.38628 0.53631 0.0
H1181 H 0.12358 0.4124 0.29419 0.0
H1182 H 0.07875 0.42358 0.291 0.0
H1183 H 0.09185 0.37956 0.30031 0.0
C1184 C 0.96584 0.00769 0.9087 0.0
C1185 C 0.98889 0.02435 0.87472 0.0
C1186 C 0.97533 0.9984 0.96043 0.0
C1187 C 0.0087 0.00619 0.97897 0.0
C1188 C 0.03293 0.02062 0.94344 0.0
C1189 C 0.02275 0.02946 0.89156 0.0
C1190 C 0.94877 0.9826 0.99638 0.0
C1191 C 0.06886 0.02903 0.96143 0.0
C1192 C 0.01879 0.0293 0.12511 0.0
C1193 C 0.0338 0.99955 0.14571 0.0
C1194 C 0.01011 0.03149 0.07115 0.0
C1195 C 0.01681 0.00325 0.03681 0.0
C1196 C 0.03128 0.97276 0.05791 0.0
C1197 C 0.03964 0.97129 0.11224 0.0
C1198 C 0.9944 0.06437 0.05069 0.0
C1199 C 0.03866 0.94204 0.02292 0.0
H1200 H 0.93968 0.00352 0.8956 0.0
H1201 H 0.04059 0.04246 0.8655 0.0
H1202 H 0.95977 0.96056 0.01839 0.0
H1203 H 0.94029 1.00197 0.0261 0.0
H1204 H 0.92591 0.97362 0.97401 0.0
H1205 H 0.08572 0.03632 0.92779 0.0
H1206 H 0.06799 0.05077 0.99009 0.0
H1207 H 0.08044 0.00678 0.9822 0.0
H1208 H 0.01445 0.05113 0.1512 0.0
H1209 H 0.05148 0.94837 0.12838 0.0
H1210 H 0.96939 0.05887 0.03153 0.0
H1211 H 0.01135 0.07578 0.02013 0.0
H1212 H 0.99027 0.08367 0.08271 0.0
H1213 H 0.01519 0.93433 1.00109 0.0
H1214 H 0.04814 0.91966 0.04591 0.0
H1215 H 0.05826 0.9489 0.99289 0.0
C1216 C 0.24145 0.79258 0.37577 0.0
C1217 C 0.27279 0.78364 0.39886 0.0
C1218 C 0.23366 0.78265 0.32362 0.0
C1219 C 0.25799 0.76351 0.29386 0.0
C1220 C 0.28913 0.75312 0.31798 0.0
C1221 C 0.2962 0.76339 0.37041 0.0
C1222 C 0.20008 0.79412 0.29957 0.0
C1223 C 0.31559 0.7326 0.28763 0.0
C1224 C 0.22137 0.7236 0.16866 0.0
C1225 C 0.22963 0.74848 0.13082 0.0
C1226 C 0.23238 0.72695 0.2214 0.0
C1227 C 0.25141 0.75632 0.2367 0.0
C1228 C 0.26124 0.78066 0.19784 0.0
C1229 C 0.25045 0.77625 0.1451 0.0
C1230 C 0.22196 0.70009 0.26124 0.0
C1231 C 0.28121 0.81251 0.2126 0.0
H1232 H 0.2236 0.80853 0.39795 0.0
H1233 H 0.32063 0.75693 0.38836 0.0
H1234 H 0.20512 0.81195 0.26623 0.0
H1235 H 0.18604 0.77171 0.28314 0.0
H1236 H 0.1833 0.80739 0.32886 0.0
H1237 H 0.33676 0.72357 0.31356 0.0
H1238 H 0.30353 0.71 0.26825 0.0
H1239 H 0.32669 0.74872 0.25577 0.0
H1240 H 0.20527 0.7021 0.15727 0.0
H1241 H 0.25653 0.79557 0.1157 0.0
H1242 H 0.20207 0.71087 0.28808 0.0
H1243 H 0.24418 0.69256 0.28612 0.0
H1244 H 0.21142 0.6767 0.24179 0.0
H1245 H 0.26519 0.8293 0.23834 0.0
H1246 H 0.28913 0.82746 0.17721 0.0
H1247 H 0.30445 0.80554 0.23554 0.0
C1248 C 0.45199 0.02919 0.60409 0.0
C1249 C 0.46807 0.00798 0.64135 0.0
C1250 C 0.46093 0.02759 0.55008 0.0
C1251 C 0.48589 0.00351 0.53277 0.0
C1252 C 0.50259 0.9824 0.57062 0.0
C1253 C 0.49375 0.9852 0.62459 0.0
C1254 C 0.44325 0.05125 0.51145 0.0
C1255 C 0.52904 0.95608 0.5539 0.0
C1256 C 0.48614 0.96978 0.3905 0.0
C1257 C 0.51517 0.98599 0.3697 0.0
C1258 C 0.47548 0.97622 0.443 0.0
C1259 C 0.49412 0.99972 0.47509 0.0
C1260 C 0.52215 0.01776 0.45288 0.0
C1261 C 0.53251 0.01043 0.40064 0.0
C1262 C 0.44567 0.9562 0.46521 0.0
C1263 C 0.54242 0.04339 0.48518 0.0
H1264 H 0.43219 0.04688 0.61729 0.0
H1265 H 0.50599 0.96868 0.65352 0.0
H1266 H 0.46255 0.0655 0.48787 0.0
H1267 H 0.42764 0.03594 0.48319 0.0
H1268 H 0.42621 0.07009 0.53173 0.0
H1269 H 0.53968 0.94171 0.58815 0.0
H1270 H 0.51737 0.93743 0.52582 0.0
H1271 H 0.55047 0.96882 0.53281 0.0
H1272 H 0.47315 0.95042 0.36688 0.0
H1273 H 0.55522 0.02265 0.38465 0.0
H1274 H 0.42677 0.97386 0.48384 0.0
H1275 H 0.45501 0.93861 0.49663 0.0
H1276 H 0.43244 0.9407 0.4343 0.0
H1277 H 0.52495 0.06162 0.50579 0.0
H1278 H 0.56061 0.05826 0.46032 0.0
H1279 H 0.5573 0.02969 0.51607 0.0
C1280 C 0.22733 0.27986 0.85881 0.0
C1281 C 0.23369 0.25272 0.89377 0.0
C1282 C 0.23588 0.27707 0.80477 0.0
C1283 C 0.25036 0.24604 0.78523 0.0
C1284 C 0.25908 0.21958 0.82138 0.0
C1285 C 0.2507 0.22332 0.87535 0.0
C1286 C 0.22683 0.30622 0.76804 0.0
C1287 C 0.27428 0.186 0.8024 0.0
C1288 C 0.22286 0.2151 0.64877 0.0
C1289 C 0.25299 0.2186 0.61877 0.0
C1290 C 0.22166 0.22449 0.70248 0.0
C1291 C 0.25101 0.23889 0.72696 0.0
C1292 C 0.28089 0.24466 0.69626 0.0
C1293 C 0.28166 0.23418 0.6426 0.0
C1294 C 0.18918 0.21776 0.73347 0.0
C1295 C 0.31237 0.26084 0.72052 0.0
H1296 H 0.21383 0.30246 0.87317 0.0
H1297 H 0.25514 0.20219 0.90243 0.0
H1298 H 0.24756 0.31046 0.73864 0.0
H1299 H 0.20318 0.29967 0.74577 0.0
H1300 H 0.22218 0.33056 0.79016 0.0
H1301 H 0.28332 0.16982 0.83582 0.0
H1302 H 0.25459 0.17141 0.77989 0.0
H1303 H 0.2961 0.19066 0.77517 0.0
H1304 H 0.20018 0.20422 0.63046 0.0
H1305 H 0.3051 0.23712 0.61998 0.0
H1306 H 0.17941 0.24205 0.75108 0.0
H1307 H 0.19468 0.1999 0.76663 0.0
H1308 H 0.16864 0.20637 0.70848 0.0
H1309 H 0.3053 0.28434 0.7432 0.0
H1310 H 0.33175 0.26773 0.69008 0.0
H1311 H 0.32428 0.24266 0.74886 0.0
C1312 C 0.72099 0.28599 0.87246 0.0
C1313 C 0.75167 0.28126 0.90054 0.0
C1314 C 0.71851 0.27774 0.81843 0.0
C1315 C 0.74733 0.26393 0.79149 0.0
C1316 C 0.7781 0.25788 0.81987 0.0
C1317 C 0.77993 0.26662 0.87413 0.0
C1318 C 0.6851 0.2845 0.78994 0.0
C1319 C 0.80925 0.24294 0.79262 0.0
C1320 C 0.72152 0.22151 0.66187 0.0
C1321 C 0.72614 0.2485 0.62605 0.0
C1322 C 0.73107 0.2251 0.71533 0.0
C1323 C 0.74488 0.25671 0.73341 0.0
C1324 C 0.75164 0.28321 0.6964 0.0
C1325 C 0.74226 0.27871 0.64298 0.0
C1326 C 0.72396 0.19599 0.7531 0.0
C1327 C 0.76612 0.31737 0.71394 0.0
H1328 H 0.69879 0.29649 0.8928 0.0
H1329 H 0.80377 0.26293 0.89546 0.0
H1330 H 0.68934 0.3029 0.7571 0.0
H1331 H 0.67527 0.26032 0.77216 0.0
H1332 H 0.6651 0.29523 0.81674 0.0
H1333 H 0.83039 0.23749 0.82092 0.0
H1334 H 0.80242 0.21878 0.77161 0.0
H1335 H 0.81875 0.26118 0.7623 0.0
H1336 H 0.70886 0.19823 0.64855 0.0
H1337 H 0.74545 0.29965 0.61517 0.0
H1338 H 0.70146 0.2026 0.77814 0.0
H1339 H 0.74609 0.19185 0.77997 0.0
H1340 H 0.7184 0.17156 0.73177 0.0
H1341 H 0.74649 0.33156 0.7373 0.0
H1342 H 0.77383 0.33354 0.67975 0.0
H1343 H 0.7887 0.31355 0.74001 0.0
C1344 C 0.77506 0.76209 0.37294 0.0
C1345 C 0.74716 0.78055 0.3933 0.0
C1346 C 0.77661 0.75314 0.31893 0.0
C1347 C 0.74958 0.76298 0.28449 0.0
C1348 C 0.72095 0.78105 0.30536 0.0
C1349 C 0.72012 0.78968 0.35964 0.0
C1350 C 0.80751 0.73368 0.29856 0.0
C1351 C 0.69158 0.79185 0.2702 0.0
C1352 C 0.77514 0.7656 0.13857 0.0
C1353 C 0.7654 0.73271 0.12153 0.0
C1354 C 0.76851 0.77662 0.19094 0.0
C1355 C 0.75163 0.75426 0.22676 0.0
C1356 C 0.73959 0.72204 0.20833 0.0
C1357 C 0.74667 0.71168 0.15605 0.0
C1358 C 0.78164 0.81123 0.20896 0.0
C1359 C 0.7213 0.69745 0.24478 0.0
H1360 H 0.79598 0.75526 0.39922 0.0
H1361 H 0.69867 0.80416 0.37567 0.0
H1362 H 0.79931 0.70932 0.27942 0.0
H1363 H 0.82086 0.74912 0.26797 0.0
H1364 H 0.82605 0.72755 0.33062 0.0
H1365 H 0.67058 0.80444 0.29294 0.0
H1366 H 0.70094 0.81004 0.2397 0.0
H1367 H 0.681 0.7692 0.24895 0.0
H1368 H 0.78991 0.78176 0.11214 0.0
H1369 H 0.73909 0.68623 0.14284 0.0
H1370 H 0.80304 0.80755 0.23739 0.0
H1371 H 0.76117 0.8257 0.23004 0.0
H1372 H 0.79103 0.82697 0.17532 0.0
H1373 H 0.7397 0.68729 0.27443 0.0
H1374 H 0.71 0.67537 0.22285 0.0
H1375 H 0.70059 0.71087 0.26688 0.0
C1376 C 0.54318 0.47092 0.61505 0.0
C1377 C 0.52674 0.49194 0.65255 0.0
C1378 C 0.53442 0.47243 0.56105 0.0
C1379 C 0.50916 0.49616 0.54406 0.0
C1380 C 0.49229 0.51728 0.58203 0.0
C1381 C 0.50102 0.51461 0.63599 0.0
C1382 C 0.55248 0.44894 0.52219 0.0
C1383 C 0.46559 0.54326 0.5655 0.0
C1384 C 0.5065 0.52612 0.40024 0.0
C1385 C 0.47815 0.50787 0.3806 0.0
C1386 C 0.51757 0.52186 0.45301 0.0
C1387 C 0.49997 0.49873 0.48672 0.0
C1388 C 0.47248 0.47908 0.4662 0.0
C1389 C 0.46197 0.48387 0.41355 0.0
C1390 C 0.54719 0.54311 0.47332 0.0
C1391 C 0.45336 0.45372 0.50033 0.0
H1392 H 0.56311 0.4534 0.62808 0.0
H1393 H 0.48861 0.53108 0.66506 0.0
H1394 H 0.53344 0.43417 0.4987 0.0
H1395 H 0.5677 0.46442 0.49385 0.0
H1396 H 0.56995 0.43053 0.54226 0.0
H1397 H 0.45501 0.55786 0.5998 0.0
H1398 H 0.47699 0.56175 0.53715 0.0
H1399 H 0.44417 0.53016 0.54477 0.0
H1400 H 0.51912 0.54476 0.37512 0.0
H1401 H 0.44053 0.46914 0.3983 0.0
H1402 H 0.56686 0.5263 0.49161 0.0
H1403 H 0.53797 0.56101 0.50466 0.0
H1404 H 0.55949 0.55835 0.4414 0.0
H1405 H 0.4716 0.43583 0.5197 0.0
H1406 H 0.43448 0.43844 0.47719 0.0
H1407 H 0.43946 0.4677 0.53225 0.0
C1408 C 0.99765 0.48022 0.89249 0.0
C1409 C 0.02582 0.49865 0.87283 0.0
C1410 C 0.98744 0.48337 0.94589 0.0
C1411 C 0.00585 0.50544 0.98052 0.0
C1412 C 0.0335 0.52497 0.96045 0.0
C1413 C 0.04301 0.52147 0.90695 0.0
C1414 C 0.9577 0.4622 0.96569 0.0
C1415 C 0.05376 0.54883 0.99588 0.0
C1416 C 0.96395 0.53089 0.11169 0.0
C1417 C 0.97888 0.50736 0.14662 0.0
C1418 C 0.97288 0.53102 0.05761 0.0
C1419 C 0.99721 0.50691 0.03823 0.0
C1420 C 0.01298 0.48369 0.07396 0.0
C1421 C 0.00352 0.48414 0.12776 0.0
C1422 C 0.95545 0.55616 0.02097 0.0
C1423 C 0.03908 0.45764 0.05507 0.0
H1424 H 0.98433 0.46233 0.8667 0.0
H1425 H 0.06436 0.53633 0.89193 0.0
H1426 H 0.96688 0.4436 0.99578 0.0
H1427 H 0.93846 0.47902 0.98535 0.0
H1428 H 0.94488 0.4477 0.93323 0.0
H1429 H 0.07359 0.56334 0.97367 0.0
H1430 H 0.03634 0.56745 0.01573 0.0
H1431 H 0.06662 0.5338 0.02747 0.0
H1432 H 0.94448 0.54844 0.12643 0.0
H1433 H 0.0146 0.46565 0.15491 0.0
H1434 H 0.93985 0.54194 0.99135 0.0
H1435 H 0.97487 0.57112 0.99874 0.0
H1436 H 0.93845 0.57434 0.0427 0.0
H1437 H 0.02704 0.43985 0.02607 0.0
H1438 H 0.04984 0.44227 0.08818 0.0
H1439 H 0.06045 0.47079 0.03442 0.0
loop_
_geom_bond_atom_site_label_1
_geom_bond_atom_site_label_2
_geom_bond_distance
_geom_bond_site_symmetry_2
_ccdc_geom_bond_type
Eu0 N29 2.601 . S
Eu0 N35 2.544 1_655 S
Eu0 O44 2.458 1_655 S
Eu0 O45 2.361 1_655 S
Eu0 O47 2.443 . S
Eu0 O48 2.277 1_645 S
Eu0 O52 2.348 1_545 S
Eu0 O55 2.388 . S
Eu0 C64 2.791 . S
C1 N2 1.365 1_655 S
C1 C4 1.405 . S
C1 C8 1.448 . S
N2 C1 1.365 1_455 S
N2 C5 1.319 . S
N2 Eu11 2.601 . S
C3 C5 1.397 . S
C3 C6 1.367 . S
C3 H23 0.931 . S
C4 C1 1.405 . S
C4 C6 1.403 1_655 S
C4 C10 1.439 . S
C5 N2 1.319 . S
C5 C3 1.397 . S
C5 H16 0.930 . S
C6 C3 1.367 . S
C6 C4 1.403 1_455 S
C6 H27 0.929 . S
C7 C8 1.430 . S
C7 C9 1.387 . S
C7 C13 1.404 . S
C8 C1 1.448 . S
C8 C7 1.430 . S
C8 N12 1.351 . S
C9 C7 1.387 . S
C9 C10 1.374 . S
C9 H24 0.931 . S
C10 C4 1.439 . S
C10 C9 1.374 . S
C10 H25 0.931 . S
Eu11 N2 2.601 . S
Eu11 N12 2.537 1_455 S
Eu11 O46 2.353 1_565 S
Eu11 O49 2.394 . S
Eu11 O50 2.457 1_455 S
Eu11 O51 2.357 1_455 S
Eu11 O53 2.447 . S
Eu11 O54 2.272 1_465 S
Eu11 C75 2.793 . S
N12 C8 1.351 . S
N12 Eu11 2.537 1_655 S
N12 C14 1.325 . S
C13 C7 1.404 . S
C13 C15 1.366 . S
C13 H21 0.930 . S
C14 N12 1.325 . S
C14 C15 1.416 . S
C14 H20 0.929 . S
C15 C13 1.366 . S
C15 C14 1.416 . S
C15 H17 0.930 . S
H16 C5 0.930 . S
H17 C15 0.930 . S
H18 C33 0.930 . S
H19 C40 0.930 . S
H20 C14 0.929 . S
H21 C13 0.930 . S
H22 C36 0.929 . S
H23 C3 0.931 . S
H24 C9 0.931 . S
H25 C10 0.931 . S
H26 C31 0.931 . S
H27 C6 0.929 . S
H28 C39 0.930 . S
N29 Eu0 2.601 . S
N29 C30 1.365 1_655 S
N29 C33 1.319 . S
C30 N29 1.365 1_455 S
C30 C32 1.405 . S
C30 C38 1.448 . S
C31 H26 0.931 . S
C31 C33 1.397 . S
C31 C34 1.367 . S
C32 C30 1.405 . S
C32 C34 1.403 1_455 S
C32 C65 1.439 . S
C33 H18 0.930 . S
C33 N29 1.319 . S
C33 C31 1.397 . S
C34 C31 1.367 . S
C34 C32 1.403 1_655 S
C34 H41 0.929 . S
N35 Eu0 2.544 1_455 S
N35 C36 1.325 . S
N35 C38 1.351 . S
C36 H22 0.929 . S
C36 N35 1.325 . S
C36 C40 1.416 . S
C37 C38 1.430 . S
C37 C39 1.404 . S
C37 C66 1.387 . S
C38 C30 1.448 . S
C38 N35 1.351 . S
C38 C37 1.430 . S
C39 H28 0.930 . S
C39 C37 1.404 . S
C39 C40 1.366 . S
C40 H19 0.930 . S
C40 C36 1.416 . S
C40 C39 1.366 . S
H41 C34 0.929 . S
H42 C65 0.931 . S
H43 C66 0.931 . S
O44 Eu0 2.458 1_455 S
O44 C64 1.252 1_455 S
O45 Eu0 2.361 1_455 S
O45 C56 1.249 . S
O46 Eu11 2.353 1_545 S
O46 C56 1.264 . S
O47 Eu0 2.443 . S
O47 C64 1.268 . S
O48 Eu0 2.277 1_465 S
O48 C63 1.255 . S
O49 Eu11 2.394 . S
O49 C63 1.257 . S
O50 Eu11 2.457 1_655 S
O50 C75 1.252 1_655 S
O51 Eu11 2.357 1_655 S
O51 C67 1.249 . S
O52 Eu0 2.348 1_565 S
O52 C67 1.264 . S
O53 Eu11 2.447 . S
O53 C75 1.268 . S
O54 Eu11 2.272 1_645 S
O54 C74 1.255 . S
O55 Eu0 2.388 . S
O55 C74 1.257 . S
C56 O45 1.249 . S
C56 O46 1.264 . S
C57 C60 1.382 . S
C57 C62 1.390 . S
C57 C64 1.506 . S
C58 C59 1.398 . S
C58 C62 1.392 . S
C59 C58 1.398 . S
C59 C61 1.372 . S
C59 H76 0.931 . S
C60 C57 1.382 . S
C60 C61 1.390 . S
C60 H77 0.931 . S
C61 C59 1.372 . S
C61 C60 1.390 . S
C61 H78 0.929 . S
C62 C57 1.390 . S
C62 C58 1.392 . S
C62 H79 0.930 1_645 S
C63 O48 1.255 . S
C63 O49 1.257 . S
C64 Eu0 2.791 . S
C64 O44 1.252 1_655 S
C64 O47 1.268 . S
C64 C57 1.506 . S
C65 C32 1.439 . S
C65 H42 0.931 . S
C65 C66 1.374 . S
C66 C37 1.387 . S
C66 H43 0.931 . S
C66 C65 1.374 . S
C67 O51 1.249 . S
C67 O52 1.264 . S
C68 C71 1.382 . S
C68 C72 1.390 . S
C68 C75 1.506 . S
C69 C70 1.398 . S
C69 C72 1.392 . S
C70 C69 1.398 . S
C70 C73 1.372 . S
C70 H80 0.931 . S
C71 C68 1.382 . S
C71 C73 1.390 . S
C71 H81 0.931 . S
C72 C68 1.390 . S
C72 C69 1.392 . S
C72 H82 0.930 1_465 S
C73 C70 1.372 . S
C73 C71 1.390 . S
C73 H83 0.929 . S
C74 O54 1.255 . S
C74 O55 1.257 . S
C75 Eu11 2.793 . S
C75 O50 1.252 1_455 S
C75 O53 1.268 . S
C75 C68 1.506 . S
H76 C59 0.931 . S
H77 C60 0.931 . S
H78 C61 0.929 . S
H79 C62 0.930 1_465 S
H80 C70 0.931 . S
H81 C71 0.931 . S
H82 C72 0.930 1_645 S
H83 C73 0.929 . S
Eu84 N113 2.600 . S
Eu84 N119 2.562 . S
Eu84 O128 2.462 . S
Eu84 O129 2.373 . S
Eu84 O131 2.432 . S
Eu84 O132 2.291 . S
Eu84 O136 2.335 . S
Eu84 O139 2.372 . S
Eu84 C148 2.787 . S
C85 N86 1.365 . S
C85 C88 1.405 . S
C85 C92 1.448 . S
N86 C85 1.365 . S
N86 C89 1.319 . S
N86 Eu95 2.600 . S
C87 C89 1.397 . S
C87 C90 1.367 . S
C87 H107 0.931 . S
C88 C85 1.405 . S
C88 C90 1.403 . S
C88 C94 1.439 . S
C89 N86 1.319 . S
C89 C87 1.397 . S
C89 H100 0.930 . S
C90 C87 1.367 . S
C90 C88 1.403 . S
C90 H111 0.929 . S
C91 C92 1.430 . S
C91 C93 1.387 . S
C91 C97 1.404 . S
C92 C85 1.448 . S
C92 C91 1.430 . S
C92 N96 1.351 . S
C93 C91 1.387 . S
C93 C94 1.374 . S
C93 H108 0.931 . S
C94 C88 1.439 . S
C94 C93 1.374 . S
C94 H109 0.931 . S
Eu95 N86 2.600 . S
Eu95 N96 2.562 . S
Eu95 O130 2.335 . S
Eu95 O133 2.372 . S
Eu95 O134 2.462 . S
Eu95 O135 2.373 . S
Eu95 O137 2.432 . S
Eu95 O138 2.291 . S
Eu95 C159 2.787 . S
N96 C92 1.351 . S
N96 Eu95 2.562 . S
N96 C98 1.325 . S
C97 C91 1.404 . S
C97 C99 1.366 . S
C97 H105 0.930 . S
C98 N96 1.325 . S
C98 C99 1.416 . S
C98 H104 0.929 . S
C99 C97 1.366 . S
C99 C98 1.416 . S
C99 H101 0.930 . S
H100 C89 0.930 . S
H101 C99 0.930 . S
H102 C117 0.930 . S
H103 C124 0.930 . S
H104 C98 0.929 . S
H105 C97 0.930 . S
H106 C120 0.929 . S
H107 C87 0.931 . S
H108 C93 0.931 . S
H109 C94 0.931 . S
H110 C115 0.931 . S
H111 C90 0.929 . S
H112 C123 0.930 . S
N113 Eu84 2.600 . S
N113 C114 1.365 . S
N113 C117 1.319 . S
C114 N113 1.365 . S
C114 C116 1.405 . S
C114 C122 1.448 . S
C115 H110 0.931 . S
C115 C117 1.397 . S
C115 C118 1.367 . S
C116 C114 1.405 . S
C116 C118 1.403 . S
C116 C149 1.439 . S
C117 H102 0.930 . S
C117 N113 1.319 . S
C117 C115 1.397 . S
C118 C115 1.367 . S
C118 C116 1.403 . S
C118 H125 0.929 . S
N119 Eu84 2.562 . S
N119 C120 1.325 . S
N119 C122 1.351 . S
C120 H106 0.929 . S
C120 N119 1.325 . S
C120 C124 1.416 . S
C121 C122 1.430 . S
C121 C123 1.404 . S
C121 C150 1.387 . S
C122 C114 1.448 . S
C122 N119 1.351 . S
C122 C121 1.430 . S
C123 H112 0.930 . S
C123 C121 1.404 . S
C123 C124 1.366 . S
C124 H103 0.930 . S
C124 C120 1.416 . S
C124 C123 1.366 . S
H125 C118 0.929 . S
H126 C149 0.931 . S
H127 C150 0.931 . S
O128 Eu84 2.462 . S
O128 C148 1.252 . S
O129 Eu84 2.373 . S
O129 C140 1.249 . S
O130 Eu95 2.335 . S
O130 C140 1.264 . S
O131 Eu84 2.432 . S
O131 C148 1.268 . S
O132 Eu84 2.291 . S
O132 C147 1.255 . S
O133 Eu95 2.372 . S
O133 C147 1.257 . S
O134 Eu95 2.462 . S
O134 C159 1.252 . S
O135 Eu95 2.373 . S
O135 C151 1.249 . S
O136 Eu84 2.335 . S
O136 C151 1.264 . S
O137 Eu95 2.432 . S
O137 C159 1.268 . S
O138 Eu95 2.291 . S
O138 C158 1.255 . S
O139 Eu84 2.372 . S
O139 C158 1.257 . S
C140 O129 1.249 . S
C140 O130 1.264 . S
C141 C144 1.379 1_556 S
C141 C146 1.390 1_556 S
C141 C148 1.506 . S
C142 C143 1.398 . S
C142 C146 1.392 . S
C143 C142 1.398 . S
C143 C145 1.372 . S
C143 H160 0.931 . S
C144 C141 1.379 1_554 S
C144 C145 1.398 . S
C144 H161 0.926 1_554 S
C145 C143 1.372 . S
C145 C144 1.398 . S
C145 H162 0.929 . S
C146 C141 1.390 1_554 S
C146 C142 1.392 . S
C146 H163 0.930 1_554 S
C147 O132 1.255 . S
C147 O133 1.257 . S
C148 Eu84 2.787 . S
C148 O128 1.252 . S
C148 O131 1.268 . S
C148 C141 1.506 . S
C149 C116 1.439 . S
C149 H126 0.931 . S
C149 C150 1.374 . S
C150 C121 1.387 . S
C150 H127 0.931 . S
C150 C149 1.374 . S
C151 O135 1.249 . S
C151 O136 1.264 . S
C152 C155 1.382 . S
C152 C156 1.390 . S
C152 C159 1.506 . S
C153 C154 1.398 . S
C153 C156 1.392 . S
C154 C153 1.398 . S
C154 C157 1.372 . S
C154 H164 0.931 . S
C155 C152 1.382 . S
C155 C157 1.390 . S
C155 H165 0.931 . S
C156 C152 1.390 . S
C156 C153 1.392 . S
C156 H166 0.930 . S
C157 C154 1.372 . S
C157 C155 1.390 . S
C157 H167 0.929 . S
C158 O138 1.255 . S
C158 O139 1.257 . S
C159 Eu95 2.787 . S
C159 O134 1.252 . S
C159 O137 1.268 . S
C159 C152 1.506 . S
H160 C143 0.931 . S
H161 C144 0.926 1_556 S
H162 C145 0.929 . S
H163 C146 0.930 1_556 S
H164 C154 0.931 . S
H165 C155 0.931 . S
H166 C156 0.930 . S
H167 C157 0.929 . S
Eu168 N197 2.600 . S
Eu168 N203 2.562 . S
Eu168 O212 2.462 . S
Eu168 O213 2.373 1_554 S
Eu168 O215 2.432 . S
Eu168 O216 2.291 1_565 S
Eu168 O220 2.335 1_565 S
Eu168 O223 2.372 . S
Eu168 C232 2.787 . S
C169 N170 1.365 . S
C169 C172 1.405 . S
C169 C176 1.448 . S
N170 C169 1.365 . S
N170 C173 1.319 . S
N170 Eu179 2.600 . S
C171 C173 1.397 . S
C171 C174 1.367 . S
C171 H191 0.931 . S
C172 C169 1.405 . S
C172 C174 1.403 . S
C172 C178 1.439 . S
C173 N170 1.319 . S
C173 C171 1.397 . S
C173 H184 0.930 . S
C174 C171 1.367 . S
C174 C172 1.403 . S
C174 H195 0.929 . S
C175 C176 1.430 . S
C175 C177 1.387 . S
C175 C181 1.404 . S
C176 C169 1.448 . S
C176 C175 1.430 . S
C176 N180 1.351 . S
C177 C175 1.387 . S
C177 C178 1.374 . S
C177 H192 0.931 . S
C178 C172 1.439 . S
C178 C177 1.374 . S
C178 H193 0.931 . S
Eu179 N170 2.600 . S
Eu179 N180 2.562 . S
Eu179 O214 2.335 1_545 S
Eu179 O217 2.372 . S
Eu179 O218 2.462 . S
Eu179 O219 2.373 1_556 S
Eu179 O221 2.432 . S
Eu179 O222 2.291 1_545 S
Eu179 C243 2.787 . S
N180 C176 1.351 . S
N180 Eu179 2.562 . S
N180 C182 1.325 . S
C181 C175 1.404 . S
C181 C183 1.366 . S
C181 H189 0.930 . S
C182 N180 1.325 . S
C182 C183 1.416 . S
C182 H188 0.929 . S
C183 C181 1.366 . S
C183 C182 1.416 . S
C183 H185 0.930 . S
H184 C173 0.930 . S
H185 C183 0.930 . S
H186 C201 0.930 . S
H187 C208 0.930 . S
H188 C182 0.929 . S
H189 C181 0.930 . S
H190 C204 0.929 . S
H191 C171 0.931 . S
H192 C177 0.931 . S
H193 C178 0.931 . S
H194 C199 0.931 . S
H195 C174 0.929 . S
H196 C207 0.930 . S
N197 Eu168 2.600 . S
N197 C198 1.365 . S
N197 C201 1.319 . S
C198 N197 1.365 . S
C198 C200 1.405 . S
C198 C206 1.448 . S
C199 H194 0.931 . S
C199 C201 1.397 . S
C199 C202 1.367 . S
C200 C198 1.405 . S
C200 C202 1.403 . S
C200 C233 1.439 . S
C201 H186 0.930 . S
C201 N197 1.319 . S
C201 C199 1.397 . S
C202 C199 1.367 . S
C202 C200 1.403 . S
C202 H209 0.929 . S
N203 Eu168 2.562 . S
N203 C204 1.325 . S
N203 C206 1.351 . S
C204 H190 0.929 . S
C204 N203 1.325 . S
C204 C208 1.416 . S
C205 C206 1.430 . S
C205 C207 1.404 . S
C205 C234 1.387 . S
C206 C198 1.448 . S
C206 N203 1.351 . S
C206 C205 1.430 . S
C207 H196 0.930 . S
C207 C205 1.404 . S
C207 C208 1.366 . S
C208 H187 0.930 . S
C208 C204 1.416 . S
C208 C207 1.366 . S
H209 C202 0.929 . S
H210 C233 0.931 . S
H211 C234 0.931 . S
O212 Eu168 2.462 . S
O212 C232 1.252 . S
O213 Eu168 2.373 1_556 S
O213 C224 1.249 . S
O214 Eu179 2.335 1_565 S
O214 C224 1.264 . S
O215 Eu168 2.432 . S
O215 C232 1.268 . S
O216 Eu168 2.291 1_545 S
O216 C231 1.255 . S
O217 Eu179 2.372 . S
O217 C231 1.257 1_556 S
O218 Eu179 2.462 . S
O218 C243 1.252 . S
O219 Eu179 2.373 1_554 S
O219 C235 1.249 . S
O220 Eu168 2.335 1_545 S
O220 C235 1.264 . S
O221 Eu179 2.432 . S
O221 C243 1.268 . S
O222 Eu179 2.291 1_565 S
O222 C242 1.255 . S
O223 Eu168 2.372 . S
O223 C242 1.257 1_554 S
C224 O213 1.249 . S
C224 O214 1.264 . S
C225 C228 1.382 . S
C225 C230 1.390 . S
C225 C232 1.506 . S
C226 C227 1.398 . S
C226 C230 1.392 . S
C227 C226 1.398 . S
C227 C229 1.372 . S
C227 H244 0.931 . S
C228 C225 1.382 . S
C228 C229 1.390 . S
C228 H245 0.931 . S
C229 C227 1.372 . S
C229 C228 1.390 . S
C229 H246 0.929 . S
C230 C225 1.390 . S
C230 C226 1.392 . S
C230 H247 0.930 1_565 S
C231 O216 1.255 . S
C231 O217 1.257 1_554 S
C232 Eu168 2.787 . S
C232 O212 1.252 . S
C232 O215 1.268 . S
C232 C225 1.506 . S
C233 C200 1.439 . S
C233 H210 0.931 . S
C233 C234 1.374 . S
C234 C205 1.387 . S
C234 H211 0.931 . S
C234 C233 1.374 . S
C235 O219 1.249 . S
C235 O220 1.264 . S
C236 C239 1.382 . S
C236 C240 1.390 . S
C236 C243 1.506 . S
C237 C238 1.398 . S
C237 C240 1.392 . S
C238 C237 1.398 . S
C238 C241 1.372 . S
C238 H248 0.931 . S
C239 C236 1.382 . S
C239 C241 1.390 . S
C239 H249 0.931 . S
C240 C236 1.390 . S
C240 C237 1.392 . S
C240 H250 0.930 1_545 S
C241 C238 1.372 . S
C241 C239 1.390 . S
C241 H251 0.929 . S
C242 O222 1.255 . S
C242 O223 1.257 1_556 S
C243 Eu179 2.787 . S
C243 O218 1.252 . S
C243 O221 1.268 . S
C243 C236 1.506 . S
H244 C227 0.931 . S
H245 C228 0.931 . S
H246 C229 0.929 . S
H247 C230 0.930 1_545 S
H248 C238 0.931 . S
H249 C239 0.931 . S
H250 C240 0.930 1_565 S
H251 C241 0.929 . S
Eu252 N281 2.600 . S
Eu252 N287 2.562 . S
Eu252 O296 2.462 . S
Eu252 O297 2.373 . S
Eu252 O299 2.432 . S
Eu252 O300 2.291 . S
Eu252 O304 2.335 . S
Eu252 O307 2.372 . S
Eu252 C316 2.787 . S
C253 N254 1.365 . S
C253 C256 1.405 . S
C253 C260 1.448 . S
N254 C253 1.365 . S
N254 C257 1.319 . S
N254 Eu263 2.600 . S
C255 C257 1.397 . S
C255 C258 1.367 . S
C255 H275 0.931 . S
C256 C253 1.405 . S
C256 C258 1.403 . S
C256 C262 1.439 . S
C257 N254 1.319 . S
C257 C255 1.397 . S
C257 H268 0.930 . S
C258 C255 1.367 . S
C258 C256 1.403 . S
C258 H279 0.929 . S
C259 C260 1.430 . S
C259 C261 1.387 . S
C259 C265 1.404 . S
C260 C253 1.448 . S
C260 C259 1.430 . S
C260 N264 1.351 . S
C261 C259 1.387 . S
C261 C262 1.374 . S
C261 H276 0.931 . S
C262 C256 1.439 . S
C262 C261 1.374 . S
C262 H277 0.931 . S
Eu263 N254 2.600 . S
Eu263 N264 2.562 . S
Eu263 O298 2.335 . S
Eu263 O301 2.372 . S
Eu263 O302 2.462 . S
Eu263 O303 2.373 . S
Eu263 O305 2.432 . S
Eu263 O306 2.291 . S
Eu263 C327 2.787 . S
N264 C260 1.351 . S
N264 Eu263 2.562 . S
N264 C266 1.325 . S
C265 C259 1.404 . S
C265 C267 1.366 . S
C265 H273 0.930 . S
C266 N264 1.325 . S
C266 C267 1.416 . S
C266 H272 0.929 . S
C267 C265 1.366 . S
C267 C266 1.416 . S
C267 H269 0.930 . S
H268 C257 0.930 . S
H269 C267 0.930 . S
H270 C285 0.930 . S
H271 C292 0.930 . S
H272 C266 0.929 . S
H273 C265 0.930 . S
H274 C288 0.929 . S
H275 C255 0.931 . S
H276 C261 0.931 . S
H277 C262 0.931 . S
H278 C283 0.931 . S
H279 C258 0.929 . S
H280 C291 0.930 . S
N281 Eu252 2.600 . S
N281 C282 1.365 . S
N281 C285 1.319 . S
C282 N281 1.365 . S
C282 C284 1.405 . S
C282 C290 1.448 . S
C283 H278 0.931 . S
C283 C285 1.397 . S
C283 C286 1.367 . S
C284 C282 1.405 . S
C284 C286 1.403 . S
C284 C317 1.439 . S
C285 H270 0.930 . S
C285 N281 1.319 . S
C285 C283 1.397 . S
C286 C283 1.367 . S
C286 C284 1.403 . S
C286 H293 0.929 . S
N287 Eu252 2.562 . S
N287 C288 1.325 . S
N287 C290 1.351 . S
C288 H274 0.929 . S
C288 N287 1.325 . S
C288 C292 1.416 . S
C289 C290 1.430 . S
C289 C291 1.404 . S
C289 C318 1.387 . S
C290 C282 1.448 . S
C290 N287 1.351 . S
C290 C289 1.430 . S
C291 H280 0.930 . S
C291 C289 1.404 . S
C291 C292 1.366 . S
C292 H271 0.930 . S
C292 C288 1.416 . S
C292 C291 1.366 . S
H293 C286 0.929 . S
H294 C317 0.931 . S
H295 C318 0.931 . S
O296 Eu252 2.462 . S
O296 C316 1.252 . S
O297 Eu252 2.373 . S
O297 C308 1.249 . S
O298 Eu263 2.335 . S
O298 C308 1.264 . S
O299 Eu252 2.432 . S
O299 C316 1.268 . S
O300 Eu252 2.291 . S
O300 C315 1.255 . S
O301 Eu263 2.372 . S
O301 C315 1.257 . S
O302 Eu263 2.462 . S
O302 C327 1.252 . S
O303 Eu263 2.373 . S
O303 C319 1.249 . S
O304 Eu252 2.335 . S
O304 C319 1.264 . S
O305 Eu263 2.432 . S
O305 C327 1.268 . S
O306 Eu263 2.291 . S
O306 C326 1.255 . S
O307 Eu252 2.372 . S
O307 C326 1.257 . S
C308 O297 1.249 . S
C308 O298 1.264 . S
C309 C312 1.380 1_554 S
C309 C314 1.390 1_554 S
C309 C316 1.506 . S
C310 C311 1.398 . S
C310 C314 1.392 . S
C311 C310 1.398 . S
C311 C313 1.372 . S
C311 H328 0.931 . S
C312 C309 1.380 1_556 S
C312 C313 1.394 . S
C312 H329 0.928 1_556 S
C313 C311 1.372 . S
C313 C312 1.394 . S
C313 H330 0.929 . S
C314 C309 1.390 1_556 S
C314 C310 1.392 . S
C314 H331 0.930 1_556 S
C315 O300 1.255 . S
C315 O301 1.257 . S
C316 Eu252 2.787 . S
C316 O296 1.252 . S
C316 O299 1.268 . S
C316 C309 1.506 . S
C317 C284 1.439 . S
C317 H294 0.931 . S
C317 C318 1.374 . S
C318 C289 1.387 . S
C318 H295 0.931 . S
C318 C317 1.374 . S
C319 O303 1.249 . S
C319 O304 1.264 . S
C320 C323 1.382 . S
C320 C324 1.390 . S
C320 C327 1.506 . S
C321 C322 1.398 . S
C321 C324 1.392 . S
C322 C321 1.398 . S
C322 C325 1.372 . S
C322 H332 0.931 . S
C323 C320 1.382 . S
C323 C325 1.390 . S
C323 H333 0.931 . S
C324 C320 1.390 . S
C324 C321 1.392 . S
C324 H334 0.930 . S
C325 C322 1.372 . S
C325 C323 1.390 . S
C325 H335 0.929 . S
C326 O306 1.255 . S
C326 O307 1.257 . S
C327 Eu263 2.787 . S
C327 O302 1.252 . S
C327 O305 1.268 . S
C327 C320 1.506 . S
H328 C311 0.931 . S
H329 C312 0.928 1_554 S
H330 C313 0.929 . S
H331 C314 0.930 1_554 S
H332 C322 0.931 . S
H333 C323 0.931 . S
H334 C324 0.930 . S
H335 C325 0.929 . S
Eu336 N365 2.600 . S
Eu336 N371 2.562 . S
Eu336 O380 2.462 . S
Eu336 O381 2.373 . S
Eu336 O383 2.432 . S
Eu336 O384 2.291 . S
Eu336 O388 2.335 . S
Eu336 O391 2.372 . S
Eu336 C400 2.787 . S
C337 N338 1.365 . S
C337 C340 1.405 . S
C337 C344 1.448 . S
N338 C337 1.365 . S
N338 C341 1.319 . S
N338 Eu347 2.600 . S
C339 C341 1.397 . S
C339 C342 1.367 . S
C339 H359 0.931 . S
C340 C337 1.405 . S
C340 C342 1.403 . S
C340 C346 1.439 . S
C341 N338 1.319 . S
C341 C339 1.397 . S
C341 H352 0.930 . S
C342 C339 1.367 . S
C342 C340 1.403 . S
C342 H363 0.929 . S
C343 C344 1.430 . S
C343 C345 1.387 . S
C343 C349 1.404 . S
C344 C337 1.448 . S
C344 C343 1.430 . S
C344 N348 1.351 . S
C345 C343 1.387 . S
C345 C346 1.374 . S
C345 H360 0.931 . S
C346 C340 1.439 . S
C346 C345 1.374 . S
C346 H361 0.931 . S
Eu347 N338 2.600 . S
Eu347 N348 2.562 . S
Eu347 O382 2.335 . S
Eu347 O385 2.372 . S
Eu347 O386 2.462 . S
Eu347 O387 2.373 . S
Eu347 O389 2.432 . S
Eu347 O390 2.291 . S
Eu347 C411 2.787 . S
N348 C344 1.351 . S
N348 Eu347 2.562 . S
N348 C350 1.325 . S
C349 C343 1.404 . S
C349 C351 1.366 . S
C349 H357 0.930 . S
C350 N348 1.325 . S
C350 C351 1.416 . S
C350 H356 0.929 . S
C351 C349 1.366 . S
C351 C350 1.416 . S
C351 H353 0.930 . S
H352 C341 0.930 . S
H353 C351 0.930 . S
H354 C369 0.930 . S
H355 C376 0.930 . S
H356 C350 0.929 . S
H357 C349 0.930 . S
H358 C372 0.929 . S
H359 C339 0.931 . S
H360 C345 0.931 . S
H361 C346 0.931 . S
H362 C367 0.931 . S
H363 C342 0.929 . S
H364 C375 0.930 . S
N365 Eu336 2.600 . S
N365 C366 1.365 . S
N365 C369 1.319 . S
C366 N365 1.365 . S
C366 C368 1.405 . S
C366 C374 1.448 . S
C367 H362 0.931 . S
C367 C369 1.397 . S
C367 C370 1.367 . S
C368 C366 1.405 . S
C368 C370 1.403 . S
C368 C401 1.439 . S
C369 H354 0.930 . S
C369 N365 1.319 . S
C369 C367 1.397 . S
C370 C367 1.367 . S
C370 C368 1.403 . S
C370 H377 0.929 . S
N371 Eu336 2.562 . S
N371 C372 1.325 . S
N371 C374 1.351 . S
C372 H358 0.929 . S
C372 N371 1.325 . S
C372 C376 1.416 . S
C373 C374 1.430 . S
C373 C375 1.404 . S
C373 C402 1.387 . S
C374 C366 1.448 . S
C374 N371 1.351 . S
C374 C373 1.430 . S
C375 H364 0.930 . S
C375 C373 1.404 . S
C375 C376 1.366 . S
C376 H355 0.930 . S
C376 C372 1.416 . S
C376 C375 1.366 . S
H377 C370 0.929 . S
H378 C401 0.931 . S
H379 C402 0.931 . S
O380 Eu336 2.462 . S
O380 C400 1.252 . S
O381 Eu336 2.373 . S
O381 C392 1.249 . S
O382 Eu347 2.335 . S
O382 C392 1.264 . S
O383 Eu336 2.432 . S
O383 C400 1.268 . S
O384 Eu336 2.291 . S
O384 C399 1.255 . S
O385 Eu347 2.372 . S
O385 C399 1.257 . S
O386 Eu347 2.462 . S
O386 C411 1.252 . S
O387 Eu347 2.373 . S
O387 C403 1.249 . S
O388 Eu336 2.335 . S
O388 C403 1.264 . S
O389 Eu347 2.432 . S
O389 C411 1.268 . S
O390 Eu347 2.291 . S
O390 C410 1.255 . S
O391 Eu336 2.372 . S
O391 C410 1.257 . S
C392 O381 1.249 . S
C392 O382 1.264 . S
C393 C396 1.382 . S
C393 C398 1.390 . S
C393 C400 1.506 . S
C394 C395 1.398 . S
C394 C398 1.392 . S
C395 C394 1.398 . S
C395 C397 1.372 . S
C395 H412 0.931 . S
C396 C393 1.382 . S
C396 C397 1.390 . S
C396 H413 0.931 . S
C397 C395 1.372 . S
C397 C396 1.390 . S
C397 H414 0.929 . S
C398 C393 1.390 . S
C398 C394 1.392 . S
C398 H415 0.930 . S
C399 O384 1.255 . S
C399 O385 1.257 . S
C400 Eu336 2.787 . S
C400 O380 1.252 . S
C400 O383 1.268 . S
C400 C393 1.506 . S
C401 C368 1.439 . S
C401 H378 0.931 . S
C401 C402 1.374 . S
C402 C373 1.387 . S
C402 H379 0.931 . S
C402 C401 1.374 . S
C403 O387 1.249 . S
C403 O388 1.264 . S
C404 C407 1.378 1_554 S
C404 C408 1.390 1_554 S
C404 C411 1.506 . S
C405 C406 1.398 . S
C405 C408 1.392 . S
C406 C405 1.398 . S
C406 C409 1.372 . S
C406 H416 0.931 . S
C407 C404 1.378 1_556 S
C407 C409 1.398 . S
C407 H417 0.926 1_556 S
C408 C404 1.390 1_556 S
C408 C405 1.392 . S
C408 H418 0.930 1_556 S
C409 C406 1.372 . S
C409 C407 1.398 . S
C409 H419 0.929 . S
C410 O390 1.255 . S
C410 O391 1.257 . S
C411 Eu347 2.787 . S
C411 O386 1.252 . S
C411 O389 1.268 . S
C411 C404 1.506 . S
H412 C395 0.931 . S
H413 C396 0.931 . S
H414 C397 0.929 . S
H415 C398 0.930 . S
H416 C406 0.931 . S
H417 C407 0.926 1_554 S
H418 C408 0.930 1_554 S
H419 C409 0.929 . S
Eu420 N449 2.600 . S
Eu420 N455 2.562 . S
Eu420 O464 2.462 . S
Eu420 O465 2.373 . S
Eu420 O467 2.432 . S
Eu420 O468 2.291 . S
Eu420 O472 2.335 . S
Eu420 O475 2.372 . S
Eu420 C484 2.787 . S
C421 N422 1.365 . S
C421 C424 1.405 . S
C421 C428 1.448 . S
N422 C421 1.365 . S
N422 C425 1.319 . S
N422 Eu431 2.600 . S
C423 C425 1.397 . S
C423 C426 1.367 . S
C423 H443 0.931 . S
C424 C421 1.405 . S
C424 C426 1.403 . S
C424 C430 1.439 . S
C425 N422 1.319 . S
C425 C423 1.397 . S
C425 H436 0.930 . S
C426 C423 1.367 . S
C426 C424 1.403 . S
C426 H447 0.929 . S
C427 C428 1.430 . S
C427 C429 1.387 . S
C427 C433 1.404 . S
C428 C421 1.448 . S
C428 C427 1.430 . S
C428 N432 1.351 . S
C429 C427 1.387 . S
C429 C430 1.374 . S
C429 H444 0.931 . S
C430 C424 1.439 . S
C430 C429 1.374 . S
C430 H445 0.931 . S
Eu431 N422 2.600 . S
Eu431 N432 2.562 . S
Eu431 O466 2.335 . S
Eu431 O469 2.372 . S
Eu431 O470 2.462 . S
Eu431 O471 2.373 . S
Eu431 O473 2.432 . S
Eu431 O474 2.291 . S
Eu431 C495 2.787 . S
N432 C428 1.351 . S
N432 Eu431 2.562 . S
N432 C434 1.325 . S
C433 C427 1.404 . S
C433 C435 1.366 . S
C433 H441 0.930 . S
C434 N432 1.325 . S
C434 C435 1.416 . S
C434 H440 0.929 . S
C435 C433 1.366 . S
C435 C434 1.416 . S
C435 H437 0.930 . S
H436 C425 0.930 . S
H437 C435 0.930 . S
H438 C453 0.930 . S
H439 C460 0.930 . S
H440 C434 0.929 . S
H441 C433 0.930 . S
H442 C456 0.929 . S
H443 C423 0.931 . S
H444 C429 0.931 . S
H445 C430 0.931 . S
H446 C451 0.931 . S
H447 C426 0.929 . S
H448 C459 0.930 . S
N449 Eu420 2.600 . S
N449 C450 1.365 . S
N449 C453 1.319 . S
C450 N449 1.365 . S
C450 C452 1.405 . S
C450 C458 1.448 . S
C451 H446 0.931 . S
C451 C453 1.397 . S
C451 C454 1.367 . S
C452 C450 1.405 . S
C452 C454 1.403 . S
C452 C485 1.439 . S
C453 H438 0.930 . S
C453 N449 1.319 . S
C453 C451 1.397 . S
C454 C451 1.367 . S
C454 C452 1.403 . S
C454 H461 0.929 . S
N455 Eu420 2.562 . S
N455 C456 1.325 . S
N455 C458 1.351 . S
C456 H442 0.929 . S
C456 N455 1.325 . S
C456 C460 1.416 . S
C457 C458 1.430 . S
C457 C459 1.404 . S
C457 C486 1.387 . S
C458 C450 1.448 . S
C458 N455 1.351 . S
C458 C457 1.430 . S
C459 H448 0.930 . S
C459 C457 1.404 . S
C459 C460 1.366 . S
C460 H439 0.930 . S
C460 C456 1.416 . S
C460 C459 1.366 . S
H461 C454 0.929 . S
H462 C485 0.931 . S
H463 C486 0.931 . S
O464 Eu420 2.462 . S
O464 C484 1.252 . S
O465 Eu420 2.373 . S
O465 C476 1.249 . S
O466 Eu431 2.335 . S
O466 C476 1.264 . S
O467 Eu420 2.432 . S
O467 C484 1.268 . S
O468 Eu420 2.291 . S
O468 C483 1.255 . S
O469 Eu431 2.372 . S
O469 C483 1.257 . S
O470 Eu431 2.462 . S
O470 C495 1.252 . S
O471 Eu431 2.373 . S
O471 C487 1.249 . S
O472 Eu420 2.335 . S
O472 C487 1.264 . S
O473 Eu431 2.432 . S
O473 C495 1.268 . S
O474 Eu431 2.291 . S
O474 C494 1.255 . S
O475 Eu420 2.372 . S
O475 C494 1.257 . S
C476 O465 1.249 . S
C476 O466 1.264 . S
C477 C480 1.382 . S
C477 C482 1.390 . S
C477 C484 1.506 . S
C478 C479 1.398 . S
C478 C482 1.392 . S
C479 C478 1.398 . S
C479 C481 1.372 . S
C479 H496 0.931 . S
C480 C477 1.382 . S
C480 C481 1.390 . S
C480 H497 0.931 . S
C481 C479 1.372 . S
C481 C480 1.390 . S
C481 H498 0.929 . S
C482 C477 1.390 . S
C482 C478 1.392 . S
C482 H499 0.930 . S
C483 O468 1.255 . S
C483 O469 1.257 . S
C484 Eu420 2.787 . S
C484 O464 1.252 . S
C484 O467 1.268 . S
C484 C477 1.506 . S
C485 C452 1.439 . S
C485 H462 0.931 . S
C485 C486 1.374 . S
C486 C457 1.387 . S
C486 H463 0.931 . S
C486 C485 1.374 . S
C487 O471 1.249 . S
C487 O472 1.264 . S
C488 C491 1.380 1_556 S
C488 C492 1.390 1_556 S
C488 C495 1.506 . S
C489 C490 1.398 . S
C489 C492 1.392 . S
C490 C489 1.398 . S
C490 C493 1.372 . S
C490 H500 0.931 . S
C491 C488 1.380 1_554 S
C491 C493 1.394 . S
C491 H501 0.928 1_554 S
C492 C488 1.390 1_554 S
C492 C489 1.392 . S
C492 H502 0.930 1_554 S
C493 C490 1.372 . S
C493 C491 1.394 . S
C493 H503 0.929 . S
C494 O474 1.255 . S
C494 O475 1.257 . S
C495 Eu431 2.787 . S
C495 O470 1.252 . S
C495 O473 1.268 . S
C495 C488 1.506 . S
H496 C479 0.931 . S
H497 C480 0.931 . S
H498 C481 0.929 . S
H499 C482 0.930 . S
H500 C490 0.931 . S
H501 C491 0.928 1_556 S
H502 C492 0.930 1_556 S
H503 C493 0.929 . S
Eu504 N533 2.600 . S
Eu504 N539 2.562 . S
Eu504 O548 2.462 . S
Eu504 O549 2.373 1_554 S
Eu504 O551 2.432 . S
Eu504 O552 2.291 . S
Eu504 O556 2.335 . S
Eu504 O559 2.372 . S
Eu504 C568 2.787 . S
C505 N506 1.365 . S
C505 C508 1.405 . S
C505 C512 1.448 . S
N506 C505 1.365 . S
N506 C509 1.319 . S
N506 Eu515 2.600 . S
C507 C509 1.397 . S
C507 C510 1.367 . S
C507 H527 0.931 . S
C508 C505 1.405 . S
C508 C510 1.403 . S
C508 C514 1.439 . S
C509 N506 1.319 . S
C509 C507 1.397 . S
C509 H520 0.930 . S
C510 C507 1.367 . S
C510 C508 1.403 . S
C510 H531 0.929 . S
C511 C512 1.430 . S
C511 C513 1.387 . S
C511 C517 1.404 . S
C512 C505 1.448 . S
C512 C511 1.430 . S
C512 N516 1.351 . S
C513 C511 1.387 . S
C513 C514 1.374 . S
C513 H528 0.931 . S
C514 C508 1.439 . S
C514 C513 1.374 . S
C514 H529 0.931 . S
Eu515 N506 2.600 . S
Eu515 N516 2.562 . S
Eu515 O550 2.335 . S
Eu515 O553 2.372 . S
Eu515 O554 2.462 . S
Eu515 O555 2.373 1_556 S
Eu515 O557 2.432 . S
Eu515 O558 2.291 . S
Eu515 C579 2.787 . S
N516 C512 1.351 . S
N516 Eu515 2.562 . S
N516 C518 1.325 . S
C517 C511 1.404 . S
C517 C519 1.366 . S
C517 H525 0.930 . S
C518 N516 1.325 . S
C518 C519 1.416 . S
C518 H524 0.929 . S
C519 C517 1.366 . S
C519 C518 1.416 . S
C519 H521 0.930 . S
H520 C509 0.930 . S
H521 C519 0.930 . S
H522 C537 0.930 . S
H523 C544 0.930 . S
H524 C518 0.929 . S
H525 C517 0.930 . S
H526 C540 0.929 . S
H527 C507 0.931 . S
H528 C513 0.931 . S
H529 C514 0.931 . S
H530 C535 0.931 . S
H531 C510 0.929 . S
H532 C543 0.930 . S
N533 Eu504 2.600 . S
N533 C534 1.365 . S
N533 C537 1.319 . S
C534 N533 1.365 . S
C534 C536 1.405 . S
C534 C542 1.448 . S
C535 H530 0.931 . S
C535 C537 1.397 . S
C535 C538 1.367 . S
C536 C534 1.405 . S
C536 C538 1.403 . S
C536 C569 1.439 . S
C537 H522 0.930 . S
C537 N533 1.319 . S
C537 C535 1.397 . S
C538 C535 1.367 . S
C538 C536 1.403 . S
C538 H545 0.929 . S
N539 Eu504 2.562 . S
N539 C540 1.325 . S
N539 C542 1.351 . S
C540 H526 0.929 . S
C540 N539 1.325 . S
C540 C544 1.416 . S
C541 C542 1.430 . S
C541 C543 1.404 . S
C541 C570 1.387 . S
C542 C534 1.448 . S
C542 N539 1.351 . S
C542 C541 1.430 . S
C543 H532 0.930 . S
C543 C541 1.404 . S
C543 C544 1.366 . S
C544 H523 0.930 . S
C544 C540 1.416 . S
C544 C543 1.366 . S
H545 C538 0.929 . S
H546 C569 0.931 . S
H547 C570 0.931 . S
O548 Eu504 2.462 . S
O548 C568 1.252 . S
O549 Eu504 2.373 1_556 S
O549 C560 1.249 . S
O550 Eu515 2.335 . S
O550 C560 1.264 . S
O551 Eu504 2.432 . S
O551 C568 1.268 . S
O552 Eu504 2.291 . S
O552 C567 1.255 . S
O553 Eu515 2.372 . S
O553 C567 1.257 1_556 S
O554 Eu515 2.462 . S
O554 C579 1.252 . S
O555 Eu515 2.373 1_554 S
O555 C571 1.249 . S
O556 Eu504 2.335 . S
O556 C571 1.264 . S
O557 Eu515 2.432 . S
O557 C579 1.268 . S
O558 Eu515 2.291 . S
O558 C578 1.255 . S
O559 Eu504 2.372 . S
O559 C578 1.257 1_554 S
C560 O549 1.249 . S
C560 O550 1.264 . S
C561 C564 1.382 . S
C561 C566 1.390 . S
C561 C568 1.506 . S
C562 C563 1.398 . S
C562 C566 1.392 . S
C563 C562 1.398 . S
C563 C565 1.372 . S
C563 H580 0.931 . S
C564 C561 1.382 . S
C564 C565 1.390 . S
C564 H581 0.931 . S
C565 C563 1.372 . S
C565 C564 1.390 . S
C565 H582 0.929 . S
C566 C561 1.390 . S
C566 C562 1.392 . S
C566 H583 0.930 . S
C567 O552 1.255 . S
C567 O553 1.257 1_554 S
C568 Eu504 2.787 . S
C568 O548 1.252 . S
C568 O551 1.268 . S
C568 C561 1.506 . S
C569 C536 1.439 . S
C569 H546 0.931 . S
C569 C570 1.374 . S
C570 C541 1.387 . S
C570 H547 0.931 . S
C570 C569 1.374 . S
C571 O555 1.249 . S
C571 O556 1.264 . S
C572 C575 1.382 . S
C572 C576 1.390 . S
C572 C579 1.506 . S
C573 C574 1.398 . S
C573 C576 1.392 . S
C574 C573 1.398 . S
C574 C577 1.372 . S
C574 H584 0.931 . S
C575 C572 1.382 . S
C575 C577 1.390 . S
C575 H585 0.931 . S
C576 C572 1.390 . S
C576 C573 1.392 . S
C576 H586 0.930 . S
C577 C574 1.372 . S
C577 C575 1.390 . S
C577 H587 0.929 . S
C578 O558 1.255 . S
C578 O559 1.257 1_556 S
C579 Eu515 2.787 . S
C579 O554 1.252 . S
C579 O557 1.268 . S
C579 C572 1.506 . S
H580 C563 0.931 . S
H581 C564 0.931 . S
H582 C565 0.929 . S
H583 C566 0.930 . S
H584 C574 0.931 . S
H585 C575 0.931 . S
H586 C576 0.930 . S
H587 C577 0.929 . S
Eu588 N617 2.601 . S
Eu588 N623 2.537 1_455 S
Eu588 O632 2.457 1_455 S
Eu588 O633 2.357 1_455 S
Eu588 O635 2.447 . S
Eu588 O636 2.272 1_455 S
Eu588 O640 2.353 . S
Eu588 O643 2.394 . S
Eu588 C652 2.793 . S
C589 N590 1.365 1_455 S
C589 C592 1.405 . S
C589 C596 1.448 . S
N590 C589 1.365 1_655 S
N590 C593 1.319 . S
N590 Eu599 2.601 . S
C591 C593 1.397 . S
C591 C594 1.367 . S
C591 H611 0.931 . S
C592 C589 1.405 . S
C592 C594 1.403 1_455 S
C592 C598 1.439 . S
C593 N590 1.319 . S
C593 C591 1.397 . S
C593 H604 0.930 . S
C594 C591 1.367 . S
C594 C592 1.403 1_655 S
C594 H615 0.929 . S
C595 C596 1.430 . S
C595 C597 1.387 . S
C595 C601 1.404 . S
C596 C589 1.448 . S
C596 C595 1.430 . S
C596 N600 1.351 . S
C597 C595 1.387 . S
C597 C598 1.374 . S
C597 H612 0.931 . S
C598 C592 1.439 . S
C598 C597 1.374 . S
C598 H613 0.931 . S
Eu599 N590 2.601 . S
Eu599 N600 2.544 1_655 S
Eu599 O634 2.348 . S
Eu599 O637 2.388 . S
Eu599 O638 2.458 1_655 S
Eu599 O639 2.361 1_655 S
Eu599 O641 2.443 . S
Eu599 O642 2.277 1_655 S
Eu599 C663 2.791 . S
N600 C596 1.351 . S
N600 Eu599 2.544 1_455 S
N600 C602 1.325 . S
C601 C595 1.404 . S
C601 C603 1.366 . S
C601 H609 0.930 . S
C602 N600 1.325 . S
C602 C603 1.416 . S
C602 H608 0.929 . S
C603 C601 1.366 . S
C603 C602 1.416 . S
C603 H605 0.930 . S
H604 C593 0.930 . S
H605 C603 0.930 . S
H606 C621 0.930 . S
H607 C628 0.930 . S
H608 C602 0.929 . S
H609 C601 0.930 . S
H610 C624 0.929 . S
H611 C591 0.931 . S
H612 C597 0.931 . S
H613 C598 0.931 . S
H614 C619 0.931 . S
H615 C594 0.929 . S
H616 C627 0.930 . S
N617 Eu588 2.601 . S
N617 C618 1.365 1_455 S
N617 C621 1.319 . S
C618 N617 1.365 1_655 S
C618 C620 1.405 . S
C618 C626 1.448 . S
C619 H614 0.931 . S
C619 C621 1.397 . S
C619 C622 1.367 . S
C620 C618 1.405 . S
C620 C622 1.403 1_655 S
C620 C653 1.439 . S
C621 H606 0.930 . S
C621 N617 1.319 . S
C621 C619 1.397 . S
C622 C619 1.367 . S
C622 C620 1.403 1_455 S
C622 H629 0.929 . S
N623 Eu588 2.537 1_655 S
N623 C624 1.325 . S
N623 C626 1.351 . S
C624 H610 0.929 . S
C624 N623 1.325 . S
C624 C628 1.416 . S
C625 C626 1.430 . S
C625 C627 1.404 . S
C625 C654 1.387 . S
C626 C618 1.448 . S
C626 N623 1.351 . S
C626 C625 1.430 . S
C627 H616 0.930 . S
C627 C625 1.404 . S
C627 C628 1.366 . S
C628 H607 0.930 . S
C628 C624 1.416 . S
C628 C627 1.366 . S
H629 C622 0.929 . S
H630 C653 0.931 . S
H631 C654 0.931 . S
O632 Eu588 2.457 1_655 S
O632 C652 1.252 1_655 S
O633 Eu588 2.357 1_655 S
O633 C644 1.249 . S
O634 Eu599 2.348 . S
O634 C644 1.264 . S
O635 Eu588 2.447 . S
O635 C652 1.268 . S
O636 Eu588 2.272 1_655 S
O636 C651 1.255 . S
O637 Eu599 2.388 . S
O637 C651 1.257 . S
O638 Eu599 2.458 1_455 S
O638 C663 1.252 1_455 S
O639 Eu599 2.361 1_455 S
O639 C655 1.249 . S
O640 Eu588 2.353 . S
O640 C655 1.264 . S
O641 Eu599 2.443 . S
O641 C663 1.268 . S
O642 Eu599 2.277 1_455 S
O642 C662 1.255 . S
O643 Eu588 2.394 . S
O643 C662 1.257 . S
C644 O633 1.249 . S
C644 O634 1.264 . S
C645 C648 1.382 . S
C645 C650 1.390 . S
C645 C652 1.506 . S
C646 C647 1.398 . S
C646 C650 1.392 . S
C647 C646 1.398 . S
C647 C649 1.372 . S
C647 H664 0.931 . S
C648 C645 1.382 . S
C648 C649 1.390 . S
C648 H665 0.931 . S
C649 C647 1.372 . S
C649 C648 1.390 . S
C649 H666 0.929 . S
C650 C645 1.390 . S
C650 C646 1.392 . S
C650 H667 0.930 1_455 S
C651 O636 1.255 . S
C651 O637 1.257 . S
C652 Eu588 2.793 . S
C652 O632 1.252 1_455 S
C652 O635 1.268 . S
C652 C645 1.506 . S
C653 C620 1.439 . S
C653 H630 0.931 . S
C653 C654 1.374 . S
C654 C625 1.387 . S
C654 H631 0.931 . S
C654 C653 1.374 . S
C655 O639 1.249 . S
C655 O640 1.264 . S
C656 C659 1.382 . S
C656 C660 1.390 . S
C656 C663 1.506 . S
C657 C658 1.398 . S
C657 C660 1.392 . S
C658 C657 1.398 . S
C658 C661 1.372 . S
C658 H668 0.931 . S
C659 C656 1.382 . S
C659 C661 1.390 . S
C659 H669 0.931 . S
C660 C656 1.390 . S
C660 C657 1.392 . S
C660 H670 0.930 1_655 S
C661 C658 1.372 . S
C661 C659 1.390 . S
C661 H671 0.929 . S
C662 O642 1.255 . S
C662 O643 1.257 . S
C663 Eu599 2.791 . S
C663 O638 1.252 1_655 S
C663 O641 1.268 . S
C663 C656 1.506 . S
H664 C647 0.931 . S
H665 C648 0.931 . S
H666 C649 0.929 . S
H667 C650 0.930 1_655 S
H668 C658 0.931 . S
H669 C659 0.931 . S
H670 C660 0.930 1_455 S
H671 C661 0.929 . S
C672 C673 1.391 . S
C672 C674 1.394 . S
C672 H688 0.931 . S
C673 C672 1.391 . S
C673 C677 1.376 . S
C674 C672 1.394 . S
C674 C675 1.369 . S
C674 C678 1.531 . S
C675 C674 1.369 . S
C675 C676 1.410 . S
C675 C683 1.503 . S
C676 C675 1.410 . S
C676 C677 1.392 . S
C676 C679 1.511 . S
C677 C673 1.376 . S
C677 C676 1.392 . S
C677 H689 0.929 . S
C678 C674 1.531 . S
C678 H690 0.960 . S
C678 H691 0.962 . S
C678 H692 0.960 . S
C679 C676 1.511 . S
C679 H693 0.961 . S
C679 H694 0.961 . S
C679 H695 0.961 . S
C680 C681 1.370 . S
C680 C682 1.363 . S
C680 H696 0.931 . S
C681 C680 1.370 . S
C681 C685 1.408 . S
C682 C680 1.363 . S
C682 C683 1.370 . S
C682 C686 1.524 . S
C683 C675 1.503 . S
C683 C682 1.370 . S
C683 C684 1.403 . S
C684 C683 1.403 . S
C684 C685 1.404 . S
C684 C687 1.539 . S
C685 C681 1.408 . S
C685 C684 1.404 . S
C685 H697 0.930 . S
C686 C682 1.524 . S
C686 H698 0.956 . S
C686 H699 0.961 . S
C686 H700 0.961 . S
C687 C684 1.539 . S
C687 H701 0.958 . S
C687 H702 0.961 . S
C687 H703 0.960 . S
H688 C672 0.931 . S
H689 C677 0.929 . S
H690 C678 0.960 . S
H691 C678 0.962 . S
H692 C678 0.960 . S
H693 C679 0.961 . S
H694 C679 0.961 . S
H695 C679 0.961 . S
H696 C680 0.931 . S
H697 C685 0.930 . S
H698 C686 0.956 . S
H699 C686 0.961 . S
H700 C686 0.961 . S
H701 C687 0.958 . S
H702 C687 0.961 . S
H703 C687 0.960 . S
C704 C705 1.391 . S
C704 C706 1.394 . S
C704 H720 0.931 . S
C705 C704 1.391 . S
C705 C709 1.376 . S
C706 C704 1.394 . S
C706 C707 1.369 . S
C706 C710 1.531 . S
C707 C706 1.369 . S
C707 C708 1.410 . S
C707 C715 1.503 . S
C708 C707 1.410 . S
C708 C709 1.392 . S
C708 C711 1.511 . S
C709 C705 1.376 . S
C709 C708 1.392 . S
C709 H721 0.929 . S
C710 C706 1.531 . S
C710 H722 0.960 . S
C710 H723 0.962 . S
C710 H724 0.960 . S
C711 C708 1.511 . S
C711 H725 0.961 . S
C711 H726 0.961 . S
C711 H727 0.961 . S
C712 C713 1.370 . S
C712 C714 1.363 . S
C712 H728 0.931 . S
C713 C712 1.370 . S
C713 C717 1.408 . S
C714 C712 1.363 . S
C714 C715 1.370 . S
C714 C718 1.524 . S
C715 C707 1.503 . S
C715 C714 1.370 . S
C715 C716 1.403 . S
C716 C715 1.403 . S
C716 C717 1.404 . S
C716 C719 1.539 . S
C717 C713 1.408 . S
C717 C716 1.404 . S
C717 H729 0.930 . S
C718 C714 1.524 . S
C718 H730 0.956 . S
C718 H731 0.961 . S
C718 H732 0.961 . S
C719 C716 1.539 . S
C719 H733 0.958 . S
C719 H734 0.961 . S
C719 H735 0.960 . S
H720 C704 0.931 . S
H721 C709 0.929 . S
H722 C710 0.960 . S
H723 C710 0.962 . S
H724 C710 0.960 . S
H725 C711 0.961 . S
H726 C711 0.961 . S
H727 C711 0.961 . S
H728 C712 0.931 . S
H729 C717 0.930 . S
H730 C718 0.956 . S
H731 C718 0.961 . S
H732 C718 0.961 . S
H733 C719 0.958 . S
H734 C719 0.961 . S
H735 C719 0.960 . S
C736 C737 1.391 . S
C736 C738 1.394 . S
C736 H752 0.931 . S
C737 C736 1.391 . S
C737 C741 1.376 . S
C738 C736 1.394 . S
C738 C739 1.369 . S
C738 C742 1.531 . S
C739 C738 1.369 . S
C739 C740 1.410 . S
C739 C747 1.503 . S
C740 C739 1.410 . S
C740 C741 1.392 . S
C740 C743 1.511 . S
C741 C737 1.376 . S
C741 C740 1.392 . S
C741 H753 0.929 . S
C742 C738 1.531 . S
C742 H754 0.960 . S
C742 H755 0.962 . S
C742 H756 0.960 . S
C743 C740 1.511 . S
C743 H757 0.961 . S
C743 H758 0.961 . S
C743 H759 0.961 . S
C744 C745 1.370 . S
C744 C746 1.363 . S
C744 H760 0.931 . S
C745 C744 1.370 . S
C745 C749 1.408 . S
C746 C744 1.363 . S
C746 C747 1.370 . S
C746 C750 1.524 . S
C747 C739 1.503 . S
C747 C746 1.370 . S
C747 C748 1.403 . S
C748 C747 1.403 . S
C748 C749 1.404 . S
C748 C751 1.539 . S
C749 C745 1.408 . S
C749 C748 1.404 . S
C749 H761 0.930 . S
C750 C746 1.524 . S
C750 H762 0.956 . S
C750 H763 0.961 . S
C750 H764 0.961 . S
C751 C748 1.539 . S
C751 H765 0.958 . S
C751 H766 0.961 . S
C751 H767 0.960 . S
H752 C736 0.931 . S
H753 C741 0.929 . S
H754 C742 0.960 . S
H755 C742 0.962 . S
H756 C742 0.960 . S
H757 C743 0.961 . S
H758 C743 0.961 . S
H759 C743 0.961 . S
H760 C744 0.931 . S
H761 C749 0.930 . S
H762 C750 0.956 . S
H763 C750 0.961 . S
H764 C750 0.961 . S
H765 C751 0.958 . S
H766 C751 0.961 . S
H767 C751 0.960 . S
C768 C769 1.391 . S
C768 C770 1.394 . S
C768 H784 0.931 . S
C769 C768 1.391 . S
C769 C773 1.376 . S
C770 C768 1.394 . S
C770 C771 1.369 . S
C770 C774 1.531 . S
C771 C770 1.369 . S
C771 C772 1.410 . S
C771 C779 1.503 . S
C772 C771 1.410 . S
C772 C773 1.392 . S
C772 C775 1.511 . S
C773 C769 1.376 . S
C773 C772 1.392 . S
C773 H785 0.929 . S
C774 C770 1.531 . S
C774 H786 0.960 . S
C774 H787 0.962 . S
C774 H788 0.960 . S
C775 C772 1.511 . S
C775 H789 0.961 . S
C775 H790 0.961 . S
C775 H791 0.961 . S
C776 C777 1.370 . S
C776 C778 1.363 . S
C776 H792 0.931 . S
C777 C776 1.370 . S
C777 C781 1.408 . S
C778 C776 1.363 . S
C778 C779 1.370 . S
C778 C782 1.524 . S
C779 C771 1.503 . S
C779 C778 1.370 . S
C779 C780 1.403 . S
C780 C779 1.403 . S
C780 C781 1.404 . S
C780 C783 1.539 . S
C781 C777 1.408 . S
C781 C780 1.404 . S
C781 H793 0.930 . S
C782 C778 1.524 . S
C782 H794 0.956 . S
C782 H795 0.961 . S
C782 H796 0.961 . S
C783 C780 1.539 . S
C783 H797 0.958 . S
C783 H798 0.961 . S
C783 H799 0.960 . S
H784 C768 0.931 . S
H785 C773 0.929 . S
H786 C774 0.960 . S
H787 C774 0.962 . S
H788 C774 0.960 . S
H789 C775 0.961 . S
H790 C775 0.961 . S
H791 C775 0.961 . S
H792 C776 0.931 . S
H793 C781 0.930 . S
H794 C782 0.956 . S
H795 C782 0.961 . S
H796 C782 0.961 . S
H797 C783 0.958 . S
H798 C783 0.961 . S
H799 C783 0.960 . S
C800 C801 1.391 . S
C800 C802 1.394 . S
C800 H816 0.931 . S
C801 C800 1.391 . S
C801 C805 1.376 . S
C802 C800 1.394 . S
C802 C803 1.369 . S
C802 C806 1.531 . S
C803 C802 1.369 . S
C803 C804 1.410 . S
C803 C811 1.503 . S
C804 C803 1.410 . S
C804 C805 1.392 . S
C804 C807 1.511 . S
C805 C801 1.376 . S
C805 C804 1.392 . S
C805 H817 0.929 . S
C806 C802 1.531 . S
C806 H818 0.960 . S
C806 H819 0.962 . S
C806 H820 0.960 . S
C807 C804 1.511 . S
C807 H821 0.961 . S
C807 H822 0.961 . S
C807 H823 0.961 . S
C808 C809 1.370 . S
C808 C810 1.363 . S
C808 H824 0.931 . S
C809 C808 1.370 . S
C809 C813 1.408 . S
C810 C808 1.363 . S
C810 C811 1.370 . S
C810 C814 1.524 . S
C811 C803 1.503 . S
C811 C810 1.370 . S
C811 C812 1.403 . S
C812 C811 1.403 . S
C812 C813 1.404 . S
C812 C815 1.539 . S
C813 C809 1.408 . S
C813 C812 1.404 . S
C813 H825 0.930 . S
C814 C810 1.524 . S
C814 H826 0.956 . S
C814 H827 0.961 . S
C814 H828 0.961 . S
C815 C812 1.539 . S
C815 H829 0.958 . S
C815 H830 0.961 . S
C815 H831 0.960 . S
H816 C800 0.931 . S
H817 C805 0.929 . S
H818 C806 0.960 . S
H819 C806 0.962 . S
H820 C806 0.960 . S
H821 C807 0.961 . S
H822 C807 0.961 . S
H823 C807 0.961 . S
H824 C808 0.931 . S
H825 C813 0.930 . S
H826 C814 0.956 . S
H827 C814 0.961 . S
H828 C814 0.961 . S
H829 C815 0.958 . S
H830 C815 0.961 . S
H831 C815 0.960 . S
C832 C833 1.391 . S
C832 C834 1.394 . S
C832 H848 0.931 . S
C833 C832 1.391 . S
C833 C837 1.376 . S
C834 C832 1.394 . S
C834 C835 1.369 . S
C834 C838 1.531 . S
C835 C834 1.369 . S
C835 C836 1.410 . S
C835 C843 1.503 . S
C836 C835 1.410 . S
C836 C837 1.392 . S
C836 C839 1.511 . S
C837 C833 1.376 . S
C837 C836 1.392 . S
C837 H849 0.929 . S
C838 C834 1.531 . S
C838 H850 0.960 . S
C838 H851 0.962 . S
C838 H852 0.960 . S
C839 C836 1.511 . S
C839 H853 0.961 . S
C839 H854 0.961 . S
C839 H855 0.961 . S
C840 C841 1.370 . S
C840 C842 1.363 . S
C840 H856 0.931 . S
C841 C840 1.370 . S
C841 C845 1.408 . S
C842 C840 1.363 . S
C842 C843 1.370 . S
C842 C846 1.524 . S
C843 C835 1.503 . S
C843 C842 1.370 . S
C843 C844 1.403 . S
C844 C843 1.403 . S
C844 C845 1.404 . S
C844 C847 1.539 . S
C845 C841 1.408 . S
C845 C844 1.404 . S
C845 H857 0.930 . S
C846 C842 1.524 . S
C846 H858 0.956 . S
C846 H859 0.961 . S
C846 H860 0.961 . S
C847 C844 1.539 . S
C847 H861 0.958 . S
C847 H862 0.961 . S
C847 H863 0.960 . S
H848 C832 0.931 . S
H849 C837 0.929 . S
H850 C838 0.960 . S
H851 C838 0.962 . S
H852 C838 0.960 . S
H853 C839 0.961 . S
H854 C839 0.961 . S
H855 C839 0.961 . S
H856 C840 0.931 . S
H857 C845 0.930 . S
H858 C846 0.956 . S
H859 C846 0.961 . S
H860 C846 0.961 . S
H861 C847 0.958 . S
H862 C847 0.961 . S
H863 C847 0.960 . S
C864 C865 1.391 . S
C864 C866 1.394 . S
C864 H880 0.931 . S
C865 C864 1.391 . S
C865 C869 1.376 . S
C866 C864 1.394 . S
C866 C867 1.369 . S
C866 C870 1.531 . S
C867 C866 1.369 . S
C867 C868 1.410 . S
C867 C875 1.503 . S
C868 C867 1.410 . S
C868 C869 1.392 . S
C868 C871 1.511 . S
C869 C865 1.376 . S
C869 C868 1.392 . S
C869 H881 0.929 . S
C870 C866 1.531 . S
C870 H882 0.960 . S
C870 H883 0.962 . S
C870 H884 0.960 . S
C871 C868 1.511 . S
C871 H885 0.961 . S
C871 H886 0.961 . S
C871 H887 0.961 . S
C872 C873 1.370 . S
C872 C874 1.363 . S
C872 H888 0.931 . S
C873 C872 1.370 . S
C873 C877 1.408 . S
C874 C872 1.363 . S
C874 C875 1.370 . S
C874 C878 1.524 . S
C875 C867 1.503 . S
C875 C874 1.370 . S
C875 C876 1.403 . S
C876 C875 1.403 . S
C876 C877 1.404 . S
C876 C879 1.539 . S
C877 C873 1.408 . S
C877 C876 1.404 . S
C877 H889 0.930 1_554 S
C878 C874 1.524 . S
C878 H890 0.956 . S
C878 H891 0.961 . S
C878 H892 0.961 . S
C879 C876 1.539 . S
C879 H893 0.958 . S
C879 H894 0.961 1_554 S
C879 H895 0.960 . S
H880 C864 0.931 . S
H881 C869 0.929 . S
H882 C870 0.960 . S
H883 C870 0.962 . S
H884 C870 0.960 . S
H885 C871 0.961 . S
H886 C871 0.961 . S
H887 C871 0.961 . S
H888 C872 0.931 . S
H889 C877 0.930 1_556 S
H890 C878 0.956 . S
H891 C878 0.961 . S
H892 C878 0.961 . S
H893 C879 0.958 . S
H894 C879 0.961 1_556 S
H895 C879 0.960 . S
C896 C897 1.391 . S
C896 C898 1.394 . S
C896 H912 0.931 . S
C897 C896 1.391 . S
C897 C901 1.376 . S
C898 C896 1.394 . S
C898 C899 1.369 . S
C898 C902 1.531 . S
C899 C898 1.369 . S
C899 C900 1.410 . S
C899 C907 1.503 . S
C900 C899 1.410 . S
C900 C901 1.392 . S
C900 C903 1.511 . S
C901 C897 1.376 . S
C901 C900 1.392 . S
C901 H913 0.929 . S
C902 C898 1.531 . S
C902 H914 0.960 . S
C902 H915 0.962 . S
C902 H916 0.960 . S
C903 C900 1.511 . S
C903 H917 0.961 . S
C903 H918 0.961 . S
C903 H919 0.961 . S
C904 C905 1.370 . S
C904 C906 1.363 . S
C904 H920 0.931 . S
C905 C904 1.370 . S
C905 C909 1.408 . S
C906 C904 1.363 . S
C906 C907 1.370 . S
C906 C910 1.524 . S
C907 C899 1.503 . S
C907 C906 1.370 . S
C907 C908 1.403 . S
C908 C907 1.403 . S
C908 C909 1.404 . S
C908 C911 1.539 . S
C909 C905 1.408 . S
C909 C908 1.404 . S
C909 H921 0.930 . S
C910 C906 1.524 . S
C910 H922 0.956 . S
C910 H923 0.961 . S
C910 H924 0.961 . S
C911 C908 1.539 . S
C911 H925 0.958 . S
C911 H926 0.961 . S
C911 H927 0.960 . S
H912 C896 0.931 . S
H913 C901 0.929 . S
H914 C902 0.960 . S
H915 C902 0.962 . S
H916 C902 0.960 . S
H917 C903 0.961 . S
H918 C903 0.961 . S
H919 C903 0.961 . S
H920 C904 0.931 . S
H921 C909 0.930 . S
H922 C910 0.956 . S
H923 C910 0.961 . S
H924 C910 0.961 . S
H925 C911 0.958 . S
H926 C911 0.961 . S
H927 C911 0.960 . S
C928 C929 1.391 . S
C928 C930 1.394 . S
C928 H944 0.931 . S
C929 C928 1.391 . S
C929 C933 1.376 . S
C930 C928 1.394 . S
C930 C931 1.369 . S
C930 C934 1.531 . S
C931 C930 1.369 . S
C931 C932 1.410 . S
C931 C939 1.503 . S
C932 C931 1.410 . S
C932 C933 1.392 . S
C932 C935 1.511 . S
C933 C929 1.376 . S
C933 C932 1.392 . S
C933 H945 0.929 . S
C934 C930 1.531 . S
C934 H946 0.960 . S
C934 H947 0.962 . S
C934 H948 0.960 . S
C935 C932 1.511 . S
C935 H949 0.961 . S
C935 H950 0.961 . S
C935 H951 0.961 . S
C936 C937 1.370 . S
C936 C938 1.363 . S
C936 H952 0.931 . S
C937 C936 1.370 . S
C937 C941 1.408 . S
C938 C936 1.363 . S
C938 C939 1.370 . S
C938 C942 1.524 . S
C939 C931 1.503 . S
C939 C938 1.370 . S
C939 C940 1.403 . S
C940 C939 1.403 . S
C940 C941 1.404 . S
C940 C943 1.539 . S
C941 C937 1.408 . S
C941 C940 1.404 . S
C941 H953 0.930 . S
C942 C938 1.524 . S
C942 H954 0.956 . S
C942 H955 0.961 . S
C942 H956 0.961 . S
C943 C940 1.539 . S
C943 H957 0.958 . S
C943 H958 0.961 . S
C943 H959 0.960 . S
H944 C928 0.931 . S
H945 C933 0.929 . S
H946 C934 0.960 . S
H947 C934 0.962 . S
H948 C934 0.960 . S
H949 C935 0.961 . S
H950 C935 0.961 . S
H951 C935 0.961 . S
H952 C936 0.931 . S
H953 C941 0.930 . S
H954 C942 0.956 . S
H955 C942 0.961 . S
H956 C942 0.961 . S
H957 C943 0.958 . S
H958 C943 0.961 . S
H959 C943 0.960 . S
C960 C961 1.391 . S
C960 C962 1.394 . S
C960 H976 0.931 . S
C961 C960 1.391 . S
C961 C965 1.376 . S
C962 C960 1.394 . S
C962 C963 1.369 . S
C962 C966 1.531 . S
C963 C962 1.369 . S
C963 C964 1.410 . S
C963 C971 1.503 . S
C964 C963 1.410 . S
C964 C965 1.392 . S
C964 C967 1.511 . S
C965 C961 1.376 . S
C965 C964 1.392 . S
C965 H977 0.929 . S
C966 C962 1.531 . S
C966 H978 0.960 . S
C966 H979 0.962 . S
C966 H980 0.960 . S
C967 C964 1.511 . S
C967 H981 0.961 . S
C967 H982 0.961 . S
C967 H983 0.961 . S
C968 C969 1.370 . S
C968 C970 1.363 . S
C968 H984 0.931 . S
C969 C968 1.370 . S
C969 C973 1.408 . S
C970 C968 1.363 . S
C970 C971 1.370 . S
C970 C974 1.524 . S
C971 C963 1.503 . S
C971 C970 1.370 . S
C971 C972 1.403 . S
C972 C971 1.403 . S
C972 C973 1.404 . S
C972 C975 1.539 . S
C973 C969 1.408 . S
C973 C972 1.404 . S
C973 H985 0.930 . S
C974 C970 1.524 . S
C974 H986 0.956 . S
C974 H987 0.961 . S
C974 H988 0.961 1_554 S
C975 C972 1.539 . S
C975 H989 0.958 . S
C975 H990 0.961 . S
C975 H991 0.960 . S
H976 C960 0.931 . S
H977 C965 0.929 . S
H978 C966 0.960 . S
H979 C966 0.962 . S
H980 C966 0.960 . S
H981 C967 0.961 . S
H982 C967 0.961 . S
H983 C967 0.961 . S
H984 C968 0.931 . S
H985 C973 0.930 . S
H986 C974 0.956 . S
H987 C974 0.961 . S
H988 C974 0.961 1_556 S
H989 C975 0.958 . S
H990 C975 0.961 . S
H991 C975 0.960 . S
C992 C993 1.391 . S
C992 C994 1.394 . S
C992 H1008 0.931 . S
C993 C992 1.391 . S
C993 C997 1.376 . S
C994 C992 1.394 . S
C994 C995 1.369 . S
C994 C998 1.531 . S
C995 C994 1.369 . S
C995 C996 1.410 . S
C995 C1003 1.503 . S
C996 C995 1.410 . S
C996 C997 1.392 . S
C996 C999 1.511 . S
C997 C993 1.376 . S
C997 C996 1.392 . S
C997 H1009 0.929 . S
C998 C994 1.531 . S
C998 H1010 0.960 . S
C998 H1011 0.962 . S
C998 H1012 0.960 . S
C999 C996 1.511 . S
C999 H1013 0.961 . S
C999 H1014 0.961 . S
C999 H1015 0.961 . S
C1000 C1001 1.370 . S
C1000 C1002 1.363 . S
C1000 H1016 0.931 . S
C1001 C1000 1.370 . S
C1001 C1005 1.408 . S
C1002 C1000 1.363 . S
C1002 C1003 1.370 . S
C1002 C1006 1.524 . S
C1003 C995 1.503 . S
C1003 C1002 1.370 . S
C1003 C1004 1.403 . S
C1004 C1003 1.403 . S
C1004 C1005 1.404 . S
C1004 C1007 1.539 . S
C1005 C1001 1.408 . S
C1005 C1004 1.404 . S
C1005 H1017 0.930 . S
C1006 C1002 1.524 . S
C1006 H1018 0.956 . S
C1006 H1019 0.961 . S
C1006 H1020 0.961 . S
C1007 C1004 1.539 . S
C1007 H1021 0.958 . S
C1007 H1022 0.961 . S
C1007 H1023 0.960 . S
H1008 C992 0.931 . S
H1009 C997 0.929 . S
H1010 C998 0.960 . S
H1011 C998 0.962 . S
H1012 C998 0.960 . S
H1013 C999 0.961 . S
H1014 C999 0.961 . S
H1015 C999 0.961 . S
H1016 C1000 0.931 . S
H1017 C1005 0.930 . S
H1018 C1006 0.956 . S
H1019 C1006 0.961 . S
H1020 C1006 0.961 . S
H1021 C1007 0.958 . S
H1022 C1007 0.961 . S
H1023 C1007 0.960 . S
C1024 C1025 1.391 . S
C1024 C1026 1.394 . S
C1024 H1040 0.931 . S
C1025 C1024 1.391 . S
C1025 C1029 1.376 . S
C1026 C1024 1.394 . S
C1026 C1027 1.369 . S
C1026 C1030 1.531 . S
C1027 C1026 1.369 . S
C1027 C1028 1.410 . S
C1027 C1035 1.503 . S
C1028 C1027 1.410 . S
C1028 C1029 1.392 . S
C1028 C1031 1.511 . S
C1029 C1025 1.376 . S
C1029 C1028 1.392 . S
C1029 H1041 0.929 . S
C1030 C1026 1.531 . S
C1030 H1042 0.960 . S
C1030 H1043 0.962 . S
C1030 H1044 0.960 . S
C1031 C1028 1.511 . S
C1031 H1045 0.961 . S
C1031 H1046 0.961 . S
C1031 H1047 0.961 . S
C1032 C1033 1.370 . S
C1032 C1034 1.363 . S
C1032 H1048 0.931 . S
C1033 C1032 1.370 . S
C1033 C1037 1.408 . S
C1034 C1032 1.363 . S
C1034 C1035 1.370 . S
C1034 C1038 1.524 . S
C1035 C1027 1.503 . S
C1035 C1034 1.370 . S
C1035 C1036 1.403 . S
C1036 C1035 1.403 . S
C1036 C1037 1.404 . S
C1036 C1039 1.539 . S
C1037 C1033 1.408 . S
C1037 C1036 1.404 . S
C1037 H1049 0.930 . S
C1038 C1034 1.524 . S
C1038 H1050 0.956 . S
C1038 H1051 0.961 . S
C1038 H1052 0.961 . S
C1039 C1036 1.539 . S
C1039 H1053 0.958 . S
C1039 H1054 0.961 . S
C1039 H1055 0.960 . S
H1040 C1024 0.931 . S
H1041 C1029 0.929 . S
H1042 C1030 0.960 . S
H1043 C1030 0.962 . S
H1044 C1030 0.960 . S
H1045 C1031 0.961 . S
H1046 C1031 0.961 . S
H1047 C1031 0.961 . S
H1048 C1032 0.931 . S
H1049 C1037 0.930 . S
H1050 C1038 0.956 . S
H1051 C1038 0.961 . S
H1052 C1038 0.961 . S
H1053 C1039 0.958 . S
H1054 C1039 0.961 . S
H1055 C1039 0.960 . S
C1056 C1057 1.391 . S
C1056 C1058 1.394 . S
C1056 H1072 0.931 . S
C1057 C1056 1.391 . S
C1057 C1061 1.376 . S
C1058 C1056 1.394 . S
C1058 C1059 1.369 . S
C1058 C1062 1.531 . S
C1059 C1058 1.369 . S
C1059 C1060 1.410 . S
C1059 C1067 1.503 . S
C1060 C1059 1.410 . S
C1060 C1061 1.392 . S
C1060 C1063 1.511 . S
C1061 C1057 1.376 . S
C1061 C1060 1.392 . S
C1061 H1073 0.929 . S
C1062 C1058 1.531 . S
C1062 H1074 0.960 . S
C1062 H1075 0.962 . S
C1062 H1076 0.960 . S
C1063 C1060 1.511 . S
C1063 H1077 0.961 . S
C1063 H1078 0.961 . S
C1063 H1079 0.961 . S
C1064 C1065 1.370 . S
C1064 C1066 1.363 . S
C1064 H1080 0.931 . S
C1065 C1064 1.370 . S
C1065 C1069 1.408 . S
C1066 C1064 1.363 . S
C1066 C1067 1.370 . S
C1066 C1070 1.524 . S
C1067 C1059 1.503 . S
C1067 C1066 1.370 . S
C1067 C1068 1.403 . S
C1068 C1067 1.403 . S
C1068 C1069 1.404 . S
C1068 C1071 1.539 . S
C1069 C1065 1.408 . S
C1069 C1068 1.404 . S
C1069 H1081 0.930 . S
C1070 C1066 1.524 . S
C1070 H1082 0.956 . S
C1070 H1083 0.961 . S
C1070 H1084 0.961 . S
C1071 C1068 1.539 . S
C1071 H1085 0.958 . S
C1071 H1086 0.961 . S
C1071 H1087 0.960 . S
H1072 C1056 0.931 . S
H1073 C1061 0.929 . S
H1074 C1062 0.960 . S
H1075 C1062 0.962 . S
H1076 C1062 0.960 . S
H1077 C1063 0.961 . S
H1078 C1063 0.961 . S
H1079 C1063 0.961 . S
H1080 C1064 0.931 . S
H1081 C1069 0.930 . S
H1082 C1070 0.956 . S
H1083 C1070 0.961 . S
H1084 C1070 0.961 . S
H1085 C1071 0.958 . S
H1086 C1071 0.961 . S
H1087 C1071 0.960 . S
C1088 C1089 1.391 . S
C1088 C1090 1.394 . S
C1088 H1104 0.931 . S
C1089 C1088 1.391 . S
C1089 C1093 1.376 . S
C1090 C1088 1.394 . S
C1090 C1091 1.369 . S
C1090 C1094 1.531 . S
C1091 C1090 1.369 . S
C1091 C1092 1.410 . S
C1091 C1099 1.503 . S
C1092 C1091 1.410 . S
C1092 C1093 1.392 . S
C1092 C1095 1.511 . S
C1093 C1089 1.376 . S
C1093 C1092 1.392 . S
C1093 H1105 0.929 . S
C1094 C1090 1.531 . S
C1094 H1106 0.960 . S
C1094 H1107 0.962 . S
C1094 H1108 0.960 . S
C1095 C1092 1.511 . S
C1095 H1109 0.961 . S
C1095 H1110 0.961 . S
C1095 H1111 0.961 . S
C1096 C1097 1.370 . S
C1096 C1098 1.363 . S
C1096 H1112 0.931 . S
C1097 C1096 1.370 . S
C1097 C1101 1.408 . S
C1098 C1096 1.363 . S
C1098 C1099 1.370 . S
C1098 C1102 1.524 . S
C1099 C1091 1.503 . S
C1099 C1098 1.370 . S
C1099 C1100 1.403 . S
C1100 C1099 1.403 . S
C1100 C1101 1.404 . S
C1100 C1103 1.539 . S
C1101 C1097 1.408 . S
C1101 C1100 1.404 . S
C1101 H1113 0.930 . S
C1102 C1098 1.524 . S
C1102 H1114 0.956 . S
C1102 H1115 0.961 . S
C1102 H1116 0.961 . S
C1103 C1100 1.539 . S
C1103 H1117 0.958 . S
C1103 H1118 0.961 . S
C1103 H1119 0.960 . S
H1104 C1088 0.931 . S
H1105 C1093 0.929 . S
H1106 C1094 0.960 . S
H1107 C1094 0.962 . S
H1108 C1094 0.960 . S
H1109 C1095 0.961 . S
H1110 C1095 0.961 . S
H1111 C1095 0.961 . S
H1112 C1096 0.931 . S
H1113 C1101 0.930 . S
H1114 C1102 0.956 . S
H1115 C1102 0.961 . S
H1116 C1102 0.961 . S
H1117 C1103 0.958 . S
H1118 C1103 0.961 . S
H1119 C1103 0.960 . S
C1120 C1121 1.391 . S
C1120 C1122 1.394 . S
C1120 H1136 0.931 . S
C1121 C1120 1.391 . S
C1121 C1125 1.376 . S
C1122 C1120 1.394 . S
C1122 C1123 1.369 . S
C1122 C1126 1.531 . S
C1123 C1122 1.369 . S
C1123 C1124 1.410 . S
C1123 C1131 1.503 . S
C1124 C1123 1.410 . S
C1124 C1125 1.392 . S
C1124 C1127 1.511 . S
C1125 C1121 1.376 . S
C1125 C1124 1.392 . S
C1125 H1137 0.929 . S
C1126 C1122 1.531 . S
C1126 H1138 0.960 . S
C1126 H1139 0.962 . S
C1126 H1140 0.960 . S
C1127 C1124 1.511 . S
C1127 H1141 0.961 . S
C1127 H1142 0.961 . S
C1127 H1143 0.961 . S
C1128 C1129 1.370 . S
C1128 C1130 1.363 . S
C1128 H1144 0.931 . S
C1129 C1128 1.370 . S
C1129 C1133 1.408 . S
C1130 C1128 1.363 . S
C1130 C1131 1.370 . S
C1130 C1134 1.524 . S
C1131 C1123 1.503 . S
C1131 C1130 1.370 . S
C1131 C1132 1.403 . S
C1132 C1131 1.403 . S
C1132 C1133 1.404 . S
C1132 C1135 1.539 . S
C1133 C1129 1.408 . S
C1133 C1132 1.404 . S
C1133 H1145 0.930 . S
C1134 C1130 1.524 . S
C1134 H1146 0.956 . S
C1134 H1147 0.961 . S
C1134 H1148 0.961 . S
C1135 C1132 1.539 . S
C1135 H1149 0.958 . S
C1135 H1150 0.961 . S
C1135 H1151 0.960 . S
H1136 C1120 0.931 . S
H1137 C1125 0.929 . S
H1138 C1126 0.960 . S
H1139 C1126 0.962 . S
H1140 C1126 0.960 . S
H1141 C1127 0.961 . S
H1142 C1127 0.961 . S
H1143 C1127 0.961 . S
H1144 C1128 0.931 . S
H1145 C1133 0.930 . S
H1146 C1134 0.956 . S
H1147 C1134 0.961 . S
H1148 C1134 0.961 . S
H1149 C1135 0.958 . S
H1150 C1135 0.961 . S
H1151 C1135 0.960 . S
C1152 C1153 1.391 . S
C1152 C1154 1.394 . S
C1152 H1168 0.931 . S
C1153 C1152 1.391 . S
C1153 C1157 1.376 . S
C1154 C1152 1.394 . S
C1154 C1155 1.369 . S
C1154 C1158 1.531 . S
C1155 C1154 1.369 . S
C1155 C1156 1.410 . S
C1155 C1163 1.503 . S
C1156 C1155 1.410 . S
C1156 C1157 1.392 . S
C1156 C1159 1.511 . S
C1157 C1153 1.376 . S
C1157 C1156 1.392 . S
C1157 H1169 0.929 . S
C1158 C1154 1.531 . S
C1158 H1170 0.960 . S
C1158 H1171 0.962 . S
C1158 H1172 0.960 . S
C1159 C1156 1.511 . S
C1159 H1173 0.961 . S
C1159 H1174 0.961 . S
C1159 H1175 0.961 . S
C1160 C1161 1.370 . S
C1160 C1162 1.363 . S
C1160 H1176 0.931 . S
C1161 C1160 1.370 . S
C1161 C1165 1.408 . S
C1162 C1160 1.363 . S
C1162 C1163 1.370 . S
C1162 C1166 1.524 . S
C1163 C1155 1.503 . S
C1163 C1162 1.370 . S
C1163 C1164 1.403 . S
C1164 C1163 1.403 . S
C1164 C1165 1.404 . S
C1164 C1167 1.539 . S
C1165 C1161 1.408 . S
C1165 C1164 1.404 . S
C1165 H1177 0.930 . S
C1166 C1162 1.524 . S
C1166 H1178 0.956 . S
C1166 H1179 0.961 . S
C1166 H1180 0.961 . S
C1167 C1164 1.539 . S
C1167 H1181 0.958 . S
C1167 H1182 0.961 . S
C1167 H1183 0.960 . S
H1168 C1152 0.931 . S
H1169 C1157 0.929 . S
H1170 C1158 0.960 . S
H1171 C1158 0.962 . S
H1172 C1158 0.960 . S
H1173 C1159 0.961 . S
H1174 C1159 0.961 . S
H1175 C1159 0.961 . S
H1176 C1160 0.931 . S
H1177 C1165 0.930 . S
H1178 C1166 0.956 . S
H1179 C1166 0.961 . S
H1180 C1166 0.961 . S
H1181 C1167 0.958 . S
H1182 C1167 0.961 . S
H1183 C1167 0.960 . S
C1184 C1185 1.401 . S
C1184 C1186 1.394 . S
C1184 H1200 0.931 . S
C1185 C1184 1.401 . S
C1185 C1189 1.365 1_665 S
C1186 C1184 1.394 . S
C1186 C1187 1.369 1_655 S
C1186 C1190 1.531 . S
C1187 C1186 1.369 1_455 S
C1187 C1188 1.410 1_565 S
C1187 C1195 1.503 1_556 S
C1188 C1187 1.410 1_545 S
C1188 C1189 1.392 . S
C1188 C1191 1.511 . S
C1189 C1185 1.365 1_445 S
C1189 C1188 1.392 . S
C1189 H1201 0.929 . S
C1190 C1186 1.531 . S
C1190 H1202 0.960 1_556 S
C1190 H1203 0.962 . S
C1190 H1204 0.960 . S
C1191 C1188 1.511 . S
C1191 H1205 0.961 . S
C1191 H1206 0.961 1_556 S
C1191 H1207 0.961 1_545 S
C1192 C1193 1.370 1_655 S
C1192 C1194 1.363 . S
C1192 H1208 0.931 . S
C1193 C1192 1.370 1_455 S
C1193 C1197 1.408 1_545 S
C1194 C1192 1.363 . S
C1194 C1195 1.370 1_645 S
C1194 C1198 1.524 . S
C1195 C1187 1.503 1_554 S
C1195 C1194 1.370 1_465 S
C1195 C1196 1.403 . S
C1196 C1195 1.403 . S
C1196 C1197 1.404 . S
C1196 C1199 1.539 . S
C1197 C1193 1.408 1_565 S
C1197 C1196 1.404 . S
C1197 H1209 0.930 . S
C1198 C1194 1.524 . S
C1198 H1210 0.948 1_554 S
C1198 H1211 0.961 1_554 S
C1198 H1212 0.961 . S
C1199 C1196 1.539 . S
C1199 H1213 0.958 . S
C1199 H1214 0.961 . S
C1199 H1215 0.960 . S
H1200 C1184 0.931 . S
H1201 C1189 0.929 . S
H1202 C1190 0.960 1_554 S
H1203 C1190 0.962 . S
H1204 C1190 0.960 . S
H1205 C1191 0.961 . S
H1206 C1191 0.961 1_554 S
H1207 C1191 0.961 1_565 S
H1208 C1192 0.931 . S
H1209 C1197 0.930 . S
H1210 C1198 0.948 1_556 S
H1211 C1198 0.961 1_556 S
H1212 C1198 0.961 . S
H1213 C1199 0.958 . S
H1214 C1199 0.961 . S
H1215 C1199 0.960 . S
C1216 C1217 1.391 . S
C1216 C1218 1.394 . S
C1216 H1232 0.931 . S
C1217 C1216 1.391 . S
C1217 C1221 1.376 . S
C1218 C1216 1.394 . S
C1218 C1219 1.369 . S
C1218 C1222 1.531 . S
C1219 C1218 1.369 . S
C1219 C1220 1.410 . S
C1219 C1227 1.503 . S
C1220 C1219 1.410 . S
C1220 C1221 1.392 . S
C1220 C1223 1.511 . S
C1221 C1217 1.376 . S
C1221 C1220 1.392 . S
C1221 H1233 0.929 . S
C1222 C1218 1.531 . S
C1222 H1234 0.960 . S
C1222 H1235 0.962 . S
C1222 H1236 0.960 . S
C1223 C1220 1.511 . S
C1223 H1237 0.961 . S
C1223 H1238 0.961 . S
C1223 H1239 0.961 . S
C1224 C1225 1.370 . S
C1224 C1226 1.363 . S
C1224 H1240 0.931 . S
C1225 C1224 1.370 . S
C1225 C1229 1.408 . S
C1226 C1224 1.363 . S
C1226 C1227 1.370 . S
C1226 C1230 1.524 . S
C1227 C1219 1.503 . S
C1227 C1226 1.370 . S
C1227 C1228 1.403 . S
C1228 C1227 1.403 . S
C1228 C1229 1.404 . S
C1228 C1231 1.539 . S
C1229 C1225 1.408 . S
C1229 C1228 1.404 . S
C1229 H1241 0.930 . S
C1230 C1226 1.524 . S
C1230 H1242 0.956 . S
C1230 H1243 0.961 . S
C1230 H1244 0.961 . S
C1231 C1228 1.539 . S
C1231 H1245 0.958 . S
C1231 H1246 0.961 . S
C1231 H1247 0.960 . S
H1232 C1216 0.931 . S
H1233 C1221 0.929 . S
H1234 C1222 0.960 . S
H1235 C1222 0.962 . S
H1236 C1222 0.960 . S
H1237 C1223 0.961 . S
H1238 C1223 0.961 . S
H1239 C1223 0.961 . S
H1240 C1224 0.931 . S
H1241 C1229 0.930 . S
H1242 C1230 0.956 . S
H1243 C1230 0.961 . S
H1244 C1230 0.961 . S
H1245 C1231 0.958 . S
H1246 C1231 0.961 . S
H1247 C1231 0.960 . S
C1248 C1249 1.391 1_545 S
C1248 C1250 1.394 . S
C1248 H1264 0.931 . S
C1249 C1248 1.391 1_565 S
C1249 C1253 1.376 . S
C1250 C1248 1.394 . S
C1250 C1251 1.369 . S
C1250 C1254 1.531 . S
C1251 C1250 1.369 . S
C1251 C1252 1.410 1_545 S
C1251 C1259 1.503 . S
C1252 C1251 1.410 1_565 S
C1252 C1253 1.392 . S
C1252 C1255 1.511 . S
C1253 C1249 1.376 . S
C1253 C1252 1.392 . S
C1253 H1265 0.929 . S
C1254 C1250 1.531 . S
C1254 H1266 0.960 . S
C1254 H1267 0.962 . S
C1254 H1268 0.960 . S
C1255 C1252 1.511 . S
C1255 H1269 0.961 . S
C1255 H1270 0.961 . S
C1255 H1271 0.961 . S
C1256 C1257 1.370 1_565 S
C1256 C1258 1.363 . S
C1256 H1272 0.931 . S
C1257 C1256 1.370 1_545 S
C1257 C1261 1.408 . S
C1258 C1256 1.363 . S
C1258 C1259 1.370 1_565 S
C1258 C1262 1.524 . S
C1259 C1251 1.503 . S
C1259 C1258 1.370 1_545 S
C1259 C1260 1.403 . S
C1260 C1259 1.403 . S
C1260 C1261 1.404 . S
C1260 C1263 1.539 . S
C1261 C1257 1.408 . S
C1261 C1260 1.404 . S
C1261 H1273 0.930 . S
C1262 C1258 1.524 . S
C1262 H1274 0.956 . S
C1262 H1275 0.961 . S
C1262 H1276 0.961 . S
C1263 C1260 1.539 . S
C1263 H1277 0.958 . S
C1263 H1278 0.961 . S
C1263 H1279 0.960 . S
H1264 C1248 0.931 . S
H1265 C1253 0.929 . S
H1266 C1254 0.960 . S
H1267 C1254 0.962 . S
H1268 C1254 0.960 . S
H1269 C1255 0.961 . S
H1270 C1255 0.961 . S
H1271 C1255 0.961 . S
H1272 C1256 0.931 . S
H1273 C1261 0.930 . S
H1274 C1262 0.956 . S
H1275 C1262 0.961 . S
H1276 C1262 0.961 . S
H1277 C1263 0.958 . S
H1278 C1263 0.961 . S
H1279 C1263 0.960 . S
C1280 C1281 1.391 . S
C1280 C1282 1.394 . S
C1280 H1296 0.931 . S
C1281 C1280 1.391 . S
C1281 C1285 1.376 . S
C1282 C1280 1.394 . S
C1282 C1283 1.369 . S
C1282 C1286 1.531 . S
C1283 C1282 1.369 . S
C1283 C1284 1.410 . S
C1283 C1291 1.503 . S
C1284 C1283 1.410 . S
C1284 C1285 1.392 . S
C1284 C1287 1.511 . S
C1285 C1281 1.376 . S
C1285 C1284 1.392 . S
C1285 H1297 0.929 . S
C1286 C1282 1.531 . S
C1286 H1298 0.960 . S
C1286 H1299 0.962 . S
C1286 H1300 0.960 . S
C1287 C1284 1.511 . S
C1287 H1301 0.961 . S
C1287 H1302 0.961 . S
C1287 H1303 0.961 . S
C1288 C1289 1.370 . S
C1288 C1290 1.363 . S
C1288 H1304 0.931 . S
C1289 C1288 1.370 . S
C1289 C1293 1.408 . S
C1290 C1288 1.363 . S
C1290 C1291 1.370 . S
C1290 C1294 1.524 . S
C1291 C1283 1.503 . S
C1291 C1290 1.370 . S
C1291 C1292 1.403 . S
C1292 C1291 1.403 . S
C1292 C1293 1.404 . S
C1292 C1295 1.539 . S
C1293 C1289 1.408 . S
C1293 C1292 1.404 . S
C1293 H1305 0.930 . S
C1294 C1290 1.524 . S
C1294 H1306 0.956 . S
C1294 H1307 0.961 . S
C1294 H1308 0.961 . S
C1295 C1292 1.539 . S
C1295 H1309 0.958 . S
C1295 H1310 0.961 . S
C1295 H1311 0.960 . S
H1296 C1280 0.931 . S
H1297 C1285 0.929 . S
H1298 C1286 0.960 . S
H1299 C1286 0.962 . S
H1300 C1286 0.960 . S
H1301 C1287 0.961 . S
H1302 C1287 0.961 . S
H1303 C1287 0.961 . S
H1304 C1288 0.931 . S
H1305 C1293 0.930 . S
H1306 C1294 0.956 . S
H1307 C1294 0.961 . S
H1308 C1294 0.961 . S
H1309 C1295 0.958 . S
H1310 C1295 0.961 . S
H1311 C1295 0.960 . S
C1312 C1313 1.391 . S
C1312 C1314 1.394 . S
C1312 H1328 0.931 . S
C1313 C1312 1.391 . S
C1313 C1317 1.376 . S
C1314 C1312 1.394 . S
C1314 C1315 1.369 . S
C1314 C1318 1.531 . S
C1315 C1314 1.369 . S
C1315 C1316 1.410 . S
C1315 C1323 1.503 . S
C1316 C1315 1.410 . S
C1316 C1317 1.392 . S
C1316 C1319 1.511 . S
C1317 C1313 1.376 . S
C1317 C1316 1.392 . S
C1317 H1329 0.929 . S
C1318 C1314 1.531 . S
C1318 H1330 0.960 . S
C1318 H1331 0.962 . S
C1318 H1332 0.960 . S
C1319 C1316 1.511 . S
C1319 H1333 0.961 . S
C1319 H1334 0.961 . S
C1319 H1335 0.961 . S
C1320 C1321 1.370 . S
C1320 C1322 1.363 . S
C1320 H1336 0.931 . S
C1321 C1320 1.370 . S
C1321 C1325 1.408 . S
C1322 C1320 1.363 . S
C1322 C1323 1.370 . S
C1322 C1326 1.524 . S
C1323 C1315 1.503 . S
C1323 C1322 1.370 . S
C1323 C1324 1.403 . S
C1324 C1323 1.403 . S
C1324 C1325 1.404 . S
C1324 C1327 1.539 . S
C1325 C1321 1.408 . S
C1325 C1324 1.404 . S
C1325 H1337 0.930 . S
C1326 C1322 1.524 . S
C1326 H1338 0.956 . S
C1326 H1339 0.961 . S
C1326 H1340 0.961 . S
C1327 C1324 1.539 . S
C1327 H1341 0.958 . S
C1327 H1342 0.961 . S
C1327 H1343 0.960 . S
H1328 C1312 0.931 . S
H1329 C1317 0.929 . S
H1330 C1318 0.960 . S
H1331 C1318 0.962 . S
H1332 C1318 0.960 . S
H1333 C1319 0.961 . S
H1334 C1319 0.961 . S
H1335 C1319 0.961 . S
H1336 C1320 0.931 . S
H1337 C1325 0.930 . S
H1338 C1326 0.956 . S
H1339 C1326 0.961 . S
H1340 C1326 0.961 . S
H1341 C1327 0.958 . S
H1342 C1327 0.961 . S
H1343 C1327 0.960 . S
C1344 C1345 1.391 . S
C1344 C1346 1.394 . S
C1344 H1360 0.931 . S
C1345 C1344 1.391 . S
C1345 C1349 1.376 . S
C1346 C1344 1.394 . S
C1346 C1347 1.369 . S
C1346 C1350 1.531 . S
C1347 C1346 1.369 . S
C1347 C1348 1.410 . S
C1347 C1355 1.503 . S
C1348 C1347 1.410 . S
C1348 C1349 1.392 . S
C1348 C1351 1.511 . S
C1349 C1345 1.376 . S
C1349 C1348 1.392 . S
C1349 H1361 0.929 . S
C1350 C1346 1.531 . S
C1350 H1362 0.960 . S
C1350 H1363 0.962 . S
C1350 H1364 0.960 . S
C1351 C1348 1.511 . S
C1351 H1365 0.961 . S
C1351 H1366 0.961 . S
C1351 H1367 0.961 . S
C1352 C1353 1.370 . S
C1352 C1354 1.363 . S
C1352 H1368 0.931 . S
C1353 C1352 1.370 . S
C1353 C1357 1.408 . S
C1354 C1352 1.363 . S
C1354 C1355 1.370 . S
C1354 C1358 1.524 . S
C1355 C1347 1.503 . S
C1355 C1354 1.370 . S
C1355 C1356 1.403 . S
C1356 C1355 1.403 . S
C1356 C1357 1.404 . S
C1356 C1359 1.539 . S
C1357 C1353 1.408 . S
C1357 C1356 1.404 . S
C1357 H1369 0.930 . S
C1358 C1354 1.524 . S
C1358 H1370 0.956 . S
C1358 H1371 0.961 . S
C1358 H1372 0.961 . S
C1359 C1356 1.539 . S
C1359 H1373 0.958 . S
C1359 H1374 0.961 . S
C1359 H1375 0.960 . S
H1360 C1344 0.931 . S
H1361 C1349 0.929 . S
H1362 C1350 0.960 . S
H1363 C1350 0.962 . S
H1364 C1350 0.960 . S
H1365 C1351 0.961 . S
H1366 C1351 0.961 . S
H1367 C1351 0.961 . S
H1368 C1352 0.931 . S
H1369 C1357 0.930 . S
H1370 C1358 0.956 . S
H1371 C1358 0.961 . S
H1372 C1358 0.961 . S
H1373 C1359 0.958 . S
H1374 C1359 0.961 . S
H1375 C1359 0.960 . S
C1376 C1377 1.391 . S
C1376 C1378 1.394 . S
C1376 H1392 0.931 . S
C1377 C1376 1.391 . S
C1377 C1381 1.376 . S
C1378 C1376 1.394 . S
C1378 C1379 1.369 . S
C1378 C1382 1.531 . S
C1379 C1378 1.369 . S
C1379 C1380 1.410 . S
C1379 C1387 1.503 . S
C1380 C1379 1.410 . S
C1380 C1381 1.392 . S
C1380 C1383 1.511 . S
C1381 C1377 1.376 . S
C1381 C1380 1.392 . S
C1381 H1393 0.929 . S
C1382 C1378 1.531 . S
C1382 H1394 0.960 . S
C1382 H1395 0.962 . S
C1382 H1396 0.960 . S
C1383 C1380 1.511 . S
C1383 H1397 0.961 . S
C1383 H1398 0.961 . S
C1383 H1399 0.961 . S
C1384 C1385 1.370 . S
C1384 C1386 1.363 . S
C1384 H1400 0.931 . S
C1385 C1384 1.370 . S
C1385 C1389 1.408 . S
C1386 C1384 1.363 . S
C1386 C1387 1.370 . S
C1386 C1390 1.524 . S
C1387 C1379 1.503 . S
C1387 C1386 1.370 . S
C1387 C1388 1.403 . S
C1388 C1387 1.403 . S
C1388 C1389 1.404 . S
C1388 C1391 1.539 . S
C1389 C1385 1.408 . S
C1389 C1388 1.404 . S
C1389 H1401 0.930 . S
C1390 C1386 1.524 . S
C1390 H1402 0.956 . S
C1390 H1403 0.961 . S
C1390 H1404 0.961 . S
C1391 C1388 1.539 . S
C1391 H1405 0.958 . S
C1391 H1406 0.961 . S
C1391 H1407 0.960 . S
H1392 C1376 0.931 . S
H1393 C1381 0.929 . S
H1394 C1382 0.960 . S
H1395 C1382 0.962 . S
H1396 C1382 0.960 . S
H1397 C1383 0.961 . S
H1398 C1383 0.961 . S
H1399 C1383 0.961 . S
H1400 C1384 0.931 . S
H1401 C1389 0.930 . S
H1402 C1390 0.956 . S
H1403 C1390 0.961 . S
H1404 C1390 0.961 . S
H1405 C1391 0.958 . S
H1406 C1391 0.961 . S
H1407 C1391 0.960 . S
C1408 C1409 1.391 1_655 S
C1408 C1410 1.394 . S
C1408 H1424 0.931 . S
C1409 C1408 1.391 1_455 S
C1409 C1413 1.376 . S
C1410 C1408 1.394 . S
C1410 C1411 1.369 1_655 S
C1410 C1414 1.531 . S
C1411 C1410 1.369 1_455 S
C1411 C1412 1.410 . S
C1411 C1419 1.503 1_556 S
C1412 C1411 1.410 . S
C1412 C1413 1.392 . S
C1412 C1415 1.511 . S
C1413 C1409 1.376 . S
C1413 C1412 1.392 . S
C1413 H1425 0.929 . S
C1414 C1410 1.531 . S
C1414 H1426 0.960 . S
C1414 H1427 0.962 . S
C1414 H1428 0.960 . S
C1415 C1412 1.511 . S
C1415 H1429 0.961 . S
C1415 H1430 0.961 1_556 S
C1415 H1431 0.961 . S
C1416 C1417 1.379 . S
C1416 C1418 1.363 . S
C1416 H1432 0.931 . S
C1417 C1416 1.379 . S
C1417 C1421 1.398 1_655 S
C1418 C1416 1.363 . S
C1418 C1419 1.370 1_655 S
C1418 C1422 1.524 . S
C1419 C1411 1.503 1_554 S
C1419 C1418 1.370 1_455 S
C1419 C1420 1.403 . S
C1420 C1419 1.403 . S
C1420 C1421 1.404 . S
C1420 C1423 1.539 . S
C1421 C1417 1.398 1_455 S
C1421 C1420 1.404 . S
C1421 H1433 0.930 . S
C1422 C1418 1.524 . S
C1422 H1434 0.956 . S
C1422 H1435 0.961 . S
C1422 H1436 0.961 . S
C1423 C1420 1.539 . S
C1423 H1437 0.958 . S
C1423 H1438 0.961 . S
C1423 H1439 0.960 1_554 S
H1424 C1408 0.931 . S
H1425 C1413 0.929 . S
H1426 C1414 0.960 . S
H1427 C1414 0.962 . S
H1428 C1414 0.960 . S
H1429 C1415 0.961 . S
H1430 C1415 0.961 1_554 S
H1431 C1415 0.961 . S
H1432 C1416 0.931 . S
H1433 C1421 0.930 . S
H1434 C1422 0.956 . S
H1435 C1422 0.961 . S
H1436 C1422 0.961 . S
H1437 C1423 0.958 . S
H1438 C1423 0.961 . S
H1439 C1423 0.960 1_556 S
C673 C56 1.488 . S
C681 C308 1.486 . S
C705 C63 1.478 . S
C713 C140 1.491 . S
C737 C147 1.489 . S
C745 C224 1.502 . S
C769 C231 1.490 . S
C777 C315 1.503 . S
C801 C67 1.502 . S
C809 C487 1.506 . S
C833 C74 1.486 . S
C841 C403 1.499 . S
C865 C410 1.513 . S
C873 C235 1.503 . S
C897 C494 1.491 . S
C905 C242 1.508 . S
C929 C560 1.499 . S
C937 C476 1.497 . S
C961 C392 1.496 . S
C969 C567 1.497 . S
C993 C644 1.513 . S
C1001 C399 1.499 . S
C1025 C483 1.490 . S
C1033 C651 1.508 . S
C1057 C319 1.481 . S
C1065 C571 1.487 . S
C1089 C578 1.478 . S
C1097 C151 1.499 . S
C1121 C158 1.481 . S
C1129 C655 1.502 . S
C1153 C326 1.481 . S
C1161 C662 1.505 . S
C1185 C58 1.405 1_565 S
C1193 C69 1.332 1_545 S
C1217 C153 1.297 . S
C1225 C142 1.369 . S
C1249 C237 1.346 1_565 S
C1257 C226 1.353 1_545 S
C1281 C310 1.372 . S
C1289 C321 1.337 . S
C1313 C405 1.303 . S
C1321 C394 1.368 . S
C1345 C478 1.357 . S
C1353 C489 1.350 . S
C1377 C573 1.348 . S
C1385 C562 1.351 . S
C1409 C646 1.297 . S
C1417 C657 1.381 . S
