# Generated by pormake.
# Topology ung, (4)-cn, num edge types: 1
# Building blocks:
#     Node 0, Type 0, BuildingBlock: GALJAG_clean_sbu_0, # of connection points: 4
#     Node 1, Type 0, BuildingBlock: GALJAG_clean_sbu_0, # of connection points: 4
#     Node 2, Type 0, BuildingBlock: GALJAG_clean_sbu_0, # of connection points: 4
#     Node 3, Type 0, BuildingBlock: GALJAG_clean_sbu_0, # of connection points: 4
#     Node 4, Type 0, BuildingBlock: GALJAG_clean_sbu_0, # of connection points: 4
#     Node 5, Type 0, BuildingBlock: GALJAG_clean_sbu_0, # of connection points: 4
#     Node 6, Type 0, BuildingBlock: GALJAG_clean_sbu_0, # of connection points: 4
#     Node 7, Type 0, BuildingBlock: GALJAG_clean_sbu_0, # of connection points: 4
#     Node 8, Type 0, BuildingBlock: GALJAG_clean_sbu_0, # of connection points: 4
#     Node 9, Type 0, BuildingBlock: GALJAG_clean_sbu_0, # of connection points: 4
#     Node 10, Type 0, BuildingBlock: GALJAG_clean_sbu_0, # of connection points: 4
#     Node 11, Type 0, BuildingBlock: GALJAG_clean_sbu_0, # of connection points: 4
#     Node 12, Type 0, BuildingBlock: GALJAG_clean_sbu_0, # of connection points: 4
#     Node 13, Type 0, BuildingBlock: GALJAG_clean_sbu_0, # of connection points: 4
#     Node 14, Type 0, BuildingBlock: GALJAG_clean_sbu_0, # of connection points: 4
#     Node 15, Type 0, BuildingBlock: GALJAG_clean_sbu_0, # of connection points: 4
#     Node 16, Type 0, BuildingBlock: GALJAG_clean_sbu_0, # of connection points: 4
#     Node 17, Type 0, BuildingBlock: GALJAG_clean_sbu_0, # of connection points: 4
#     Edge 18, Type (0, 0), BuildingBlock: TEMPAE_clean_linker_10, # of connection points: 2
#     Edge 19, Type (0, 0), BuildingBlock: TEMPAE_clean_linker_10, # of connection points: 2
#     Edge 20, Type (0, 0), BuildingBlock: TEMPAE_clean_linker_10, # of connection points: 2
#     Edge 21, Type (0, 0), BuildingBlock: TEMPAE_clean_linker_10, # of connection points: 2
#     Edge 22, Type (0, 0), BuildingBlock: TEMPAE_clean_linker_10, # of connection points: 2
#     Edge 23, Type (0, 0), BuildingBlock: TEMPAE_clean_linker_10, # of connection points: 2
#     Edge 24, Type (0, 0), BuildingBlock: TEMPAE_clean_linker_10, # of connection points: 2
#     Edge 25, Type (0, 0), BuildingBlock: TEMPAE_clean_linker_10, # of connection points: 2
#     Edge 26, Type (0, 0), BuildingBlock: TEMPAE_clean_linker_10, # of connection points: 2
#     Edge 27, Type (0, 0), BuildingBlock: TEMPAE_clean_linker_10, # of connection points: 2
#     Edge 28, Type (0, 0), BuildingBlock: TEMPAE_clean_linker_10, # of connection points: 2
#     Edge 29, Type (0, 0), BuildingBlock: TEMPAE_clean_linker_10, # of connection points: 2
#     Edge 30, Type (0, 0), BuildingBlock: TEMPAE_clean_linker_10, # of connection points: 2
#     Edge 31, Type (0, 0), BuildingBlock: TEMPAE_clean_linker_10, # of connection points: 2
#     Edge 32, Type (0, 0), BuildingBlock: TEMPAE_clean_linker_10, # of connection points: 2
#     Edge 33, Type (0, 0), BuildingBlock: TEMPAE_clean_linker_10, # of connection points: 2
#     Edge 34, Type (0, 0), BuildingBlock: TEMPAE_clean_linker_10, # of connection points: 2
#     Edge 35, Type (0, 0), BuildingBlock: TEMPAE_clean_linker_10, # of connection points: 2
#     Edge 36, Type (0, 0), BuildingBlock: TEMPAE_clean_linker_10, # of connection points: 2
#     Edge 37, Type (0, 0), BuildingBlock: TEMPAE_clean_linker_10, # of connection points: 2
#     Edge 38, Type (0, 0), BuildingBlock: TEMPAE_clean_linker_10, # of connection points: 2
#     Edge 39, Type (0, 0), BuildingBlock: TEMPAE_clean_linker_10, # of connection points: 2
#     Edge 40, Type (0, 0), BuildingBlock: TEMPAE_clean_linker_10, # of connection points: 2
#     Edge 41, Type (0, 0), BuildingBlock: TEMPAE_clean_linker_10, # of connection points: 2
#     Edge 42, Type (0, 0), BuildingBlock: TEMPAE_clean_linker_10, # of connection points: 2
#     Edge 43, Type (0, 0), BuildingBlock: TEMPAE_clean_linker_10, # of connection points: 2
#     Edge 44, Type (0, 0), BuildingBlock: TEMPAE_clean_linker_10, # of connection points: 2
#     Edge 45, Type (0, 0), BuildingBlock: TEMPAE_clean_linker_10, # of connection points: 2
#     Edge 46, Type (0, 0), BuildingBlock: TEMPAE_clean_linker_10, # of connection points: 2
#     Edge 47, Type (0, 0), BuildingBlock: TEMPAE_clean_linker_10, # of connection points: 2
#     Edge 48, Type (0, 0), BuildingBlock: TEMPAE_clean_linker_10, # of connection points: 2
#     Edge 49, Type (0, 0), BuildingBlock: TEMPAE_clean_linker_10, # of connection points: 2
#     Edge 50, Type (0, 0), BuildingBlock: TEMPAE_clean_linker_10, # of connection points: 2
#     Edge 51, Type (0, 0), BuildingBlock: TEMPAE_clean_linker_10, # of connection points: 2
#     Edge 52, Type (0, 0), BuildingBlock: TEMPAE_clean_linker_10, # of connection points: 2
#     Edge 53, Type (0, 0), BuildingBlock: TEMPAE_clean_linker_10, # of connection points: 2
# Relax obj value: 0.030
# Max RMSD: 0.132
# Mean RMSD: 0.132
data_MOF--net-ung--node1-GALJAG_clean_sbu_0--edge1-TEMPAE_clean_linker_10
_symmetry_space_group_name_H-M    P1
_symmetry_Int_Tables_number       1
_symmetry_cell_setting            triclinic
loop_
_symmetry_equiv_pos_as_xyz
'x, y, z'
_cell_length_a     79.517945
_cell_length_b     79.507568
_cell_length_c     20.453256
_cell_angle_alpha  90.004713
_cell_angle_beta   90.039101
_cell_angle_gamma 119.95998
loop_
_atom_site_label
_atom_site_type_symbol
_atom_site_fract_x
_atom_site_fract_y
_atom_site_fract_z
_atom_type_partial_charge
In0 In 0.06828 0.64588 0.27693 0.0
O1 O 0.0863 0.64047 0.20185 0.0
O2 O 0.06354 0.61628 0.25207 0.0
C3 C 0.09212 0.6831 0.30927 0.0
C4 C 0.0639 0.6288 0.39315 0.0
C5 C 0.04156 0.64745 0.20042 0.0
O6 O 0.0981 0.67332 0.27839 0.0
O7 O 0.07419 0.67419 0.32185 0.0
O8 O 0.03921 0.64475 0.26142 0.0
O9 O 0.05711 0.64905 0.17876 0.0
C10 C 0.07699 0.62228 0.2105 0.0
O11 O 0.04963 0.62429 0.35544 0.0
O12 O 0.08 0.64231 0.37299 0.0
In13 In 0.51415 0.51135 0.27412 0.0
O14 O 0.5289 0.54243 0.23618 0.0
O15 O 0.5261 0.5202 0.17165 0.0
C16 C 0.48661 0.51587 0.33552 0.0
C17 C 0.54287 0.52034 0.36014 0.0
C18 C 0.4989 0.47494 0.22649 0.0
O19 O 0.49893 0.51317 0.36515 0.0
O20 O 0.48815 0.51644 0.27404 0.0
O21 O 0.51463 0.48312 0.25792 0.0
O22 O 0.49063 0.48486 0.22108 0.0
C23 C 0.5325 0.53807 0.18062 0.0
O24 O 0.54591 0.52642 0.30203 0.0
O25 O 0.52529 0.50877 0.37393 0.0
In26 In 0.65702 0.092 0.25283 0.0
O27 O 0.63932 0.08171 0.15922 0.0
O28 O 0.64448 0.10837 0.20328 0.0
C29 C 0.66682 0.06687 0.30064 0.0
C30 C 0.63098 0.08601 0.34477 0.0
C31 C 0.69171 0.118 0.206 0.0
O32 O 0.65659 0.06308 0.24925 0.0
O33 O 0.67195 0.08318 0.32645 0.0
O34 O 0.68496 0.12158 0.25706 0.0
O35 O 0.68096 0.10156 0.18042 0.0
C36 C 0.63671 0.09621 0.15743 0.0
O37 O 0.64751 0.10136 0.34423 0.0
O38 O 0.628 0.07397 0.29962 0.0
In39 In 0.07027 0.50845 0.77917 0.0
O40 O 0.08464 0.53216 0.70181 0.0
O41 O 0.058 0.5269 0.74546 0.0
C42 C 0.09416 0.49586 0.81727 0.0
C43 C 0.07158 0.52563 0.89202 0.0
C44 C 0.04484 0.47738 0.7107 0.0
O45 O 0.09939 0.5093 0.77525 0.0
O46 O 0.07696 0.48877 0.83787 0.0
O47 O 0.04077 0.48086 0.76716 0.0
O48 O 0.06146 0.48962 0.68975 0.0
C49 C 0.0715 0.53672 0.70562 0.0
O50 O 0.0557 0.51206 0.8694 0.0
O51 O 0.08649 0.5301 0.85805 0.0
In52 In 0.65551 0.64541 0.76023 0.0
O53 O 0.64881 0.62767 0.85381 0.0
O54 O 0.6286 0.63598 0.81796 0.0
C55 C 0.688 0.65488 0.69555 0.0
C56 C 0.63316 0.6175 0.67733 0.0
C57 C 0.66619 0.68071 0.80514 0.0
O58 O 0.68486 0.64701 0.75173 0.0
O59 O 0.67489 0.65797 0.67376 0.0
O60 O 0.65389 0.67325 0.75903 0.0
O61 O 0.67302 0.67042 0.82652 0.0
C62 C 0.63268 0.62719 0.86109 0.0
O63 O 0.63358 0.63371 0.67778 0.0
O64 O 0.64404 0.6157 0.71857 0.0
In65 In 0.51351 0.0878 0.74966 0.0
O66 O 0.54056 0.10874 0.8082 0.0
O67 O 0.52691 0.07837 0.82757 0.0
C68 C 0.50243 0.11078 0.69111 0.0
C69 C 0.53042 0.07946 0.65136 0.0
C70 C 0.48079 0.06619 0.81698 0.0
O71 O 0.51534 0.11712 0.73527 0.0
O72 O 0.49513 0.09296 0.67784 0.0
O73 O 0.48469 0.05989 0.76562 0.0
O74 O 0.49329 0.08328 0.83318 0.0
C75 C 0.54049 0.09518 0.84078 0.0
O76 O 0.51853 0.06637 0.68929 0.0
O77 O 0.53325 0.09624 0.66244 0.0
In78 In 0.74957 0.98463 0.56673 0.0
O79 O 0.72887 0.95838 0.6287 0.0
O80 O 0.75939 0.97234 0.64667 0.0
C81 C 0.72745 0.99568 0.50234 0.0
C82 C 0.75749 0.96598 0.47366 0.0
C83 C 0.77066 0.01753 0.63383 0.0
O84 O 0.72088 0.9839 0.54982 0.0
O85 O 0.74505 0.00181 0.48841 0.0
O86 O 0.77734 0.01364 0.58335 0.0
O87 O 0.75346 0.00503 0.64878 0.0
C88 C 0.74263 0.95898 0.66172 0.0
O89 O 0.77088 0.97932 0.50724 0.0
O90 O 0.74058 0.96256 0.4864 0.0
In91 In 0.17801 0.84687 0.58057 0.0
O92 O 0.18368 0.8733 0.51946 0.0
O93 O 0.201 0.86007 0.50352 0.0
C94 C 0.14355 0.83587 0.6355 0.0
C95 C 0.20327 0.86453 0.67838 0.0
C96 C 0.1673 0.81381 0.51586 0.0
O97 O 0.15049 0.84883 0.59162 0.0
O98 O 0.15397 0.82859 0.65059 0.0
O99 O 0.17631 0.81748 0.56979 0.0
O100 O 0.16374 0.82671 0.4957 0.0
C101 C 0.19739 0.87328 0.48816 0.0
O102 O 0.20483 0.85286 0.64039 0.0
O103 O 0.18888 0.8667 0.66788 0.0
In104 In 0.32273 0.42243 0.56047 0.0
O105 O 0.30931 0.41264 0.45923 0.0
O106 O 0.31344 0.43945 0.49807 0.0
C107 C 0.32887 0.39598 0.61872 0.0
C108 C 0.29329 0.41578 0.63827 0.0
C109 C 0.35953 0.44935 0.53726 0.0
O110 O 0.32315 0.39392 0.55977 0.0
O111 O 0.33154 0.4113 0.64665 0.0
O112 O 0.34894 0.45291 0.57452 0.0
O113 O 0.35149 0.43246 0.5134 0.0
C114 C 0.30735 0.42741 0.45151 0.0
O115 O 0.31 0.4306 0.64579 0.0
O116 O 0.29166 0.40472 0.59135 0.0
In117 In 0.75266 0.8446 0.06685 0.0
O118 O 0.76289 0.86402 0.97719 0.0
O119 O 0.73608 0.85769 0.02324 0.0
C120 C 0.77754 0.83405 0.11161 0.0
C121 C 0.75724 0.86854 0.16476 0.0
C122 C 0.72731 0.81147 0.00909 0.0
O123 O 0.78227 0.84639 0.06585 0.0
O124 O 0.76044 0.82717 0.13298 0.0
O125 O 0.72349 0.81637 0.06381 0.0
O126 O 0.7438 0.82313 0.98556 0.0
C127 C 0.74819 0.86633 0.9779 0.0
O128 O 0.74219 0.85184 0.16074 0.0
O129 O 0.76974 0.87265 0.12032 0.0
In130 In 0.31467 0.9928 0.07619 0.0
O131 O 0.30786 0.97409 0.16684 0.0
O132 O 0.28509 0.9769 0.12077 0.0
C133 C 0.35079 0.00611 0.03282 0.0
C134 C 0.29649 0.96749 0.98028 0.0
C135 C 0.31887 0.02504 0.13132 0.0
O136 O 0.34413 0.99435 0.08045 0.0
O137 O 0.3393 0.01111 0.00889 0.0
O138 O 0.31167 0.02001 0.07441 0.0
O139 O 0.32398 0.01401 0.15829 0.0
C140 C 0.29012 0.96963 0.1665 0.0
O141 O 0.29601 0.98321 0.98412 0.0
O142 O 0.30639 0.96509 0.02373 0.0
In143 In 0.17889 0.41148 0.05611 0.0
O144 O 0.18139 0.38939 0.99079 0.0
O145 O 0.19585 0.41924 0.96297 0.0
C146 C 0.14864 0.39079 0.13508 0.0
C147 C 0.20911 0.41982 0.13388 0.0
C148 C 0.16604 0.43366 0.0029 0.0
O149 O 0.15063 0.38394 0.0816 0.0
O150 O 0.16177 0.40794 0.14768 0.0
O151 O 0.17911 0.4402 0.04654 0.0
O152 O 0.15942 0.41605 0.98791 0.0
C153 C 0.19215 0.40225 0.95002 0.0
O154 O 0.20793 0.43302 0.10328 0.0
O155 O 0.19516 0.40285 0.12534 0.0
In156 In 0.42439 0.32606 0.87001 0.0
O157 O 0.40797 0.30029 0.93895 0.0
O158 O 0.43511 0.30582 0.89913 0.0
C159 C 0.3994 0.33722 0.83088 0.0
C160 C 0.43032 0.31502 0.75323 0.0
C161 C 0.44626 0.35492 0.9531 0.0
O162 O 0.3937 0.32139 0.86128 0.0
O163 O 0.41752 0.34728 0.8223 0.0
O164 O 0.45165 0.35478 0.89495 0.0
O165 O 0.43017 0.34047 0.96865 0.0
C166 C 0.4208 0.29532 0.9352 0.0
O167 O 0.44439 0.32646 0.78934 0.0
O168 O 0.41364 0.30977 0.77564 0.0
In169 In 0.84889 0.18003 0.92408 0.0
O170 O 0.87184 0.18449 0.00067 0.0
O171 O 0.87241 0.2092 0.95711 0.0
C172 C 0.8327 0.14372 0.87802 0.0
C173 C 0.86524 0.19767 0.81207 0.0
C174 C 0.8206 0.17869 -0.00082 0.0
O175 O 0.84718 0.15054 0.91621 0.0
O176 O 0.82627 0.15503 0.86552 0.0
O177 O 0.82428 0.18638 0.94302 0.0
O178 O 0.83116 0.1718 0.01659 0.0
C179 C 0.88006 0.20281 0.99645 0.0
O180 O 0.85324 0.20102 0.84184 0.0
O181 O 0.86838 0.18509 0.83808 0.0
In182 In 0.98591 0.75109 0.93749 0.0
O183 O 0.98585 0.76826 0.02661 0.0
O184 O 0.96816 0.73737 0.0278 0.0
C185 C 0.01666 0.77646 0.86724 0.0
C186 C 0.95672 0.75043 0.87009 0.0
C187 C 0.99533 0.72379 0.96279 0.0
O188 O 0.01483 0.77932 0.92702 0.0
O189 O 0.00297 0.76101 0.84365 0.0
O190 O 0.97974 0.71977 0.93339 0.0
O191 O 0.00608 0.74148 0.97719 0.0
C192 C 0.97364 0.75323 0.05712 0.0
O193 O 0.96184 0.73788 0.86073 0.0
O194 O 0.96627 0.76299 0.913 0.0
In195 In 0.42446 0.18864 0.36919 0.0
O196 O 0.41098 0.19935 0.44532 0.0
O197 O 0.43729 0.21995 0.39848 0.0
C198 C 0.39672 0.15284 0.33624 0.0
C199 C 0.42774 0.20451 0.25153 0.0
C200 C 0.44768 0.18062 0.44186 0.0
O201 O 0.39286 0.16416 0.36811 0.0
O202 O 0.41447 0.1595 0.32343 0.0
O203 O 0.45176 0.18627 0.38315 0.0
O204 O 0.43217 0.17928 0.46304 0.0
C205 C 0.42422 0.2169 0.43937 0.0
O206 O 0.44255 0.20695 0.28289 0.0
O207 O 0.41166 0.19392 0.27914 0.0
In208 In 0.9874 0.32055 0.42121 0.0
O209 O 0.98105 0.29834 0.5022 0.0
O210 O 0.95747 0.2994 0.45584 0.0
C211 C 0.02416 0.33564 0.38196 0.0
C212 C 0.97132 0.30192 0.31018 0.0
C213 C 0.98956 0.35064 0.48728 0.0
O214 O 0.01665 0.3217 0.42238 0.0
O215 O 0.01321 0.34201 0.36352 0.0
O216 O 0.98197 0.3461 0.43093 0.0
O217 O 0.99582 0.33996 0.50928 0.0
C218 C 0.96287 0.29143 0.49763 0.0
O219 O 0.96798 0.31484 0.33262 0.0
O220 O 0.98308 0.29898 0.34292 0.0
In221 In 0.85182 0.75611 0.43639 0.0
O222 O 0.85973 0.73918 0.36446 0.0
O223 O 0.8825 0.76388 0.41258 0.0
C224 C 0.81502 0.73108 0.46974 0.0
C225 C 0.8675 0.76077 0.55525 0.0
C226 C 0.84808 0.78094 0.35675 0.0
O227 O 0.82543 0.72559 0.44025 0.0
O228 O 0.82305 0.74913 0.47984 0.0
O229 O 0.85269 0.78487 0.4163 0.0
O230 O 0.84558 0.76474 0.33817 0.0
C231 C 0.87779 0.75016 0.37274 0.0
O232 O 0.87154 0.77516 0.5187 0.0
O233 O 0.85533 0.74443 0.53222 0.0
C234 C 0.05681 0.53912 0.96731 0.0
C235 C 0.07269 0.5371 0.94973 0.0
C236 C 0.05879 0.55274 0.0146 0.0
C237 C 0.07697 0.56416 0.04576 0.0
C238 C 0.09269 0.56124 0.03113 0.0
C239 C 0.09042 0.54786 0.98253 0.0
C240 C 0.04176 0.55565 0.02854 0.0
C241 C 0.11209 0.57277 0.06476 0.0
C242 C 0.08643 0.61305 0.10667 0.0
C243 C 0.0801 0.60863 0.1714 0.0
C244 C 0.08609 0.5988 0.06549 0.0
C245 C 0.07974 0.57995 0.09059 0.0
C246 C 0.07468 0.57588 0.15727 0.0
C247 C 0.07466 0.59024 0.19677 0.0
C248 C 0.09137 0.60356 0.99431 0.0
C249 C 0.06844 0.55615 0.18612 0.0
H250 H 0.04316 0.53087 0.94146 0.0
H251 H 0.10268 0.54617 0.96902 0.0
H252 H 0.03855 0.55419 0.08165 0.0
H253 H 0.04543 0.57055 0.01404 0.0
H254 H 0.02846 0.5451 0.00183 0.0
H255 H 0.12202 0.5671 0.05349 0.0
H256 H 0.11913 0.58815 0.04884 0.0
H257 H 0.11014 0.57256 0.11852 0.0
H258 H 0.09052 0.62727 0.08718 0.0
H259 H 0.06992 0.58694 0.2472 0.0
H260 H 0.07838 0.59473 0.96347 0.0
H261 H 0.10255 0.59981 0.97998 0.0
H262 H 0.09694 0.61915 0.98343 0.0
H263 H 0.05403 0.54538 0.16629 0.0
H264 H 0.06741 0.55614 0.24029 0.0
H265 H 0.0788 0.55124 0.17232 0.0
C266 C 0.62267 0.60567 0.95959 0.0
C267 C 0.61878 0.61633 0.91362 0.0
C268 C 0.60865 0.59411 0.00607 0.0
C269 C 0.59038 0.59319 0.00592 0.0
C270 C 0.58667 0.60443 0.96102 0.0
C271 C 0.60094 0.61592 0.91554 0.0
C272 C 0.61312 0.5824 0.05387 0.0
C273 C 0.56733 0.60374 0.95922 0.0
C274 C 0.54781 0.54701 0.07088 0.0
C275 C 0.54564 0.55274 0.13357 0.0
C276 C 0.56214 0.56018 0.02842 0.0
C277 C 0.57467 0.57945 0.0496 0.0
C278 C 0.57218 0.58548 0.11215 0.0
C279 C 0.55757 0.57204 0.15341 0.0
C280 C 0.56417 0.55333 0.96151 0.0
C281 C 0.58533 0.60593 0.13622 0.0
H282 H 0.63648 0.60603 0.95835 0.0
H283 H 0.59787 0.62421 0.88025 0.0
H284 H 0.61008 0.58508 0.10457 0.0
H285 H 0.60359 0.56669 0.0438 0.0
H286 H 0.62848 0.58589 0.05092 0.0
H287 H 0.56724 0.61436 0.92409 0.0
H288 H 0.55576 0.58898 0.9449 0.0
H289 H 0.56359 0.60674 0.00843 0.0
H290 H 0.53857 0.53209 0.05549 0.0
H291 H 0.55601 0.57645 0.20213 0.0
H292 H 0.5786 0.55447 0.95699 0.0
H293 H 0.56326 0.56272 0.92316 0.0
H294 H 0.5528 0.53806 0.95179 0.0
H295 H 0.60049 0.60882 0.13904 0.0
H296 H 0.58101 0.60849 0.18523 0.0
H297 H 0.58522 0.61655 0.10133 0.0
C298 C 0.61707 0.11075 0.12025 0.0
C299 C 0.62465 0.0985 0.10767 0.0
C300 C 0.60441 0.11217 0.07598 0.0
C301 C 0.59959 0.10138 0.01721 0.0
C302 C 0.60792 0.08968 0.00286 0.0
C303 C 0.62021 0.08818 0.04881 0.0
C304 C 0.59545 0.12443 0.09364 0.0
C305 C 0.60337 0.07826 0.93998 0.0
C306 C 0.55066 0.0848 0.93981 0.0
C307 C 0.55542 0.09822 0.88902 0.0
C308 C 0.56487 0.08605 0.98298 0.0
C309 C 0.58438 0.10081 0.97393 0.0
C310 C 0.58925 0.11464 0.92331 0.0
C311 C 0.57458 0.11331 0.8817 0.0
C312 C 0.55903 0.07135 0.03748 0.0
C313 C 0.60998 0.13034 0.91171 0.0
H314 H 0.62046 0.1187 0.16595 0.0
H315 H 0.62623 0.07885 0.03887 0.0
H316 H 0.59742 0.13456 0.05327 0.0
H317 H 0.5796 0.11492 0.10099 0.0
H318 H 0.60179 0.13299 0.13899 0.0
H319 H 0.61264 0.0716 0.93311 0.0
H320 H 0.58795 0.06653 0.94007 0.0
H321 H 0.60539 0.08779 0.89754 0.0
H322 H 0.53577 0.07318 0.94549 0.0
H323 H 0.57821 0.12354 0.84183 0.0
H324 H 0.56414 0.07885 0.08521 0.0
H325 H 0.56598 0.06237 0.03019 0.0
H326 H 0.54306 0.06153 0.04002 0.0
H327 H 0.61625 0.13893 0.95695 0.0
H328 H 0.61123 0.14036 0.87172 0.0
H329 H 0.61888 0.12363 0.89886 0.0
C330 C 0.59647 0.06796 0.37972 0.0
C331 C 0.61565 0.08252 0.39221 0.0
C332 C 0.58134 0.06512 0.42152 0.0
C333 C 0.58558 0.07693 0.47765 0.0
C334 C 0.60504 0.09113 0.49199 0.0
C335 C 0.61987 0.0939 0.44861 0.0
C336 C 0.56075 0.05009 0.40403 0.0
C337 C 0.61011 0.10377 0.55212 0.0
C338 C 0.54844 0.08838 0.54699 0.0
C339 C 0.54187 0.07626 0.60182 0.0
C340 C 0.56204 0.08806 0.50447 0.0
C341 C 0.56956 0.07565 0.51828 0.0
C342 C 0.56241 0.06281 0.57228 0.0
C343 C 0.5484 0.06311 0.61322 0.0
C344 C 0.56892 0.10158 0.44632 0.0
C345 C 0.57032 0.04957 0.58886 0.0
H346 H 0.59314 0.05915 0.33599 0.0
H347 H 0.63471 0.10505 0.45856 0.0
H348 H 0.55351 0.04032 0.4461 0.0
H349 H 0.55235 0.05742 0.39237 0.0
H350 H 0.56007 0.04115 0.36127 0.0
H351 H 0.62604 0.11282 0.55939 0.0
H352 H 0.60394 0.11354 0.54776 0.0
H353 H 0.60364 0.09467 0.59624 0.0
H354 H 0.5433 0.09851 0.53831 0.0
H355 H 0.54344 0.05393 0.65624 0.0
H356 H 0.56788 0.09342 0.40103 0.0
H357 H 0.5844 0.11276 0.45297 0.0
H358 H 0.56038 0.10904 0.43944 0.0
H359 H 0.56988 0.04103 0.54538 0.0
H360 H 0.56213 0.0394 0.6292 0.0
H361 H 0.58575 0.05844 0.60382 0.0
C362 C 0.0485 0.59745 0.45296 0.0
C363 C 0.06282 0.61707 0.45016 0.0
C364 C 0.04976 0.58502 0.49875 0.0
C365 C 0.06548 0.59258 0.54338 0.0
C366 C 0.0792 0.61266 0.54369 0.0
C367 C 0.07781 0.62466 0.49647 0.0
C368 C 0.03496 0.56363 0.49667 0.0
C369 C 0.09586 0.62129 0.59171 0.0
C370 C 0.06044 0.56048 0.68712 0.0
C371 C 0.07136 0.55209 0.6661 0.0
C372 C 0.0589 0.57419 0.64856 0.0
C373 C 0.06818 0.57925 0.58702 0.0
C374 C 0.07954 0.57108 0.56605 0.0
C375 C 0.08118 0.5577 0.60636 0.0
C376 C 0.04707 0.58297 0.67312 0.0
C377 C 0.08945 0.576 0.50021 0.0
H378 H 0.03701 0.59155 0.4167 0.0
H379 H 0.08887 0.63988 0.4943 0.0
H380 H 0.04218 0.55532 0.48211 0.0
H381 H 0.02859 0.55843 0.54582 0.0
H382 H 0.02303 0.56028 0.46155 0.0
H383 H 0.10391 0.63742 0.59029 0.0
H384 H 0.09049 0.61651 0.64219 0.0
H385 H 0.10613 0.6161 0.58026 0.0
H386 H 0.05298 0.55626 0.73376 0.0
H387 H 0.08955 0.55112 0.59014 0.0
H388 H 0.03425 0.57847 0.64109 0.0
H389 H 0.0558 0.59905 0.67124 0.0
H390 H 0.04192 0.5785 0.72404 0.0
H391 H 0.07844 0.57175 0.46085 0.0
H392 H 0.09794 0.56856 0.49164 0.0
H393 H 0.09937 0.5919 0.4962 0.0
C394 C 0.62222 0.58467 0.63115 0.0
C395 C 0.62084 0.60159 0.63238 0.0
C396 C 0.61055 0.56927 0.5892 0.0
C397 C 0.59715 0.57085 0.54795 0.0
C398 C 0.59567 0.58788 0.54903 0.0
C399 C 0.60761 0.60311 0.59121 0.0
C400 C 0.61257 0.55136 0.58889 0.0
C401 C 0.58145 0.59001 0.50571 0.0
C402 C 0.57715 0.54246 0.39201 0.0
C403 C 0.558 0.52941 0.41056 0.0
C404 C 0.59062 0.55518 0.43767 0.0
C405 C 0.58465 0.55481 0.50304 0.0
C406 C 0.56586 0.54047 0.52321 0.0
C407 C 0.55273 0.5278 0.47658 0.0
C408 C 0.61067 0.57006 0.41466 0.0
C409 C 0.55904 0.53959 0.59266 0.0
H410 H 0.63248 0.58346 0.66291 0.0
H411 H 0.6065 0.61615 0.59221 0.0
H412 H 0.59848 0.53839 0.60141 0.0
H413 H 0.61656 0.54895 0.53921 0.0
H414 H 0.62373 0.55246 0.62405 0.0
H415 H 0.58197 0.60411 0.51308 0.0
H416 H 0.58461 0.58886 0.4536 0.0
H417 H 0.56647 0.5781 0.5157 0.0
H418 H 0.58129 0.5436 0.34099 0.0
H419 H 0.53793 0.51769 0.49107 0.0
H420 H 0.62188 0.57111 0.44936 0.0
H421 H 0.6118 0.58454 0.41262 0.0
H422 H 0.61392 0.56659 0.36529 0.0
H423 H 0.57011 0.5406 0.62794 0.0
H424 H 0.54514 0.52603 0.60243 0.0
H425 H 0.55687 0.55214 0.6018 0.0
C426 C 0.77321 0.90265 0.20348 0.0
C427 C 0.7597 0.88301 0.21439 0.0
C428 C 0.7748 0.91702 0.24669 0.0
C429 C 0.76288 0.91155 0.30284 0.0
C430 C 0.74986 0.89165 0.31581 0.0
C431 C 0.74825 0.87758 0.27084 0.0
C432 C 0.78851 0.9381 0.23042 0.0
C433 C 0.73721 0.88529 0.37604 0.0
C434 C 0.77476 0.94871 0.4376 0.0
C435 C 0.76071 0.95407 0.42615 0.0
C436 C 0.77573 0.93484 0.39771 0.0
C437 C 0.76268 0.92669 0.34452 0.0
C438 C 0.74911 0.93283 0.33116 0.0
C439 C 0.74812 0.94625 0.37281 0.0
C440 C 0.79011 0.92833 0.414 0.0
C441 C 0.73535 0.92491 0.27375 0.0
H442 H 0.78205 0.90691 0.15967 0.0
H443 H 0.73792 0.86238 0.27952 0.0
H444 H 0.78004 0.94543 0.21994 0.0
H445 H 0.79808 0.94567 0.27266 0.0
H446 H 0.79773 0.93984 0.18729 0.0
H447 H 0.72949 0.86929 0.38259 0.0
H448 H 0.74609 0.89224 0.42026 0.0
H449 H 0.72625 0.89 0.37235 0.0
H450 H 0.78429 0.9546 0.47959 0.0
H451 H 0.73728 0.95048 0.36414 0.0
H452 H 0.79924 0.92997 0.37083 0.0
H453 H 0.78219 0.91269 0.42704 0.0
H454 H 0.79974 0.93664 0.45543 0.0
H455 H 0.74357 0.92681 0.22792 0.0
H456 H 0.72656 0.93214 0.2679 0.0
H457 H 0.72532 0.90912 0.28031 0.0
C458 C 0.21825 0.88293 0.39005 0.0
C459 C 0.20899 0.88778 0.43854 0.0
C460 C 0.23081 0.89682 0.34538 0.0
C461 C 0.23451 0.91611 0.35051 0.0
C462 C 0.22493 0.92105 0.39876 0.0
C463 C 0.21203 0.90668 0.44198 0.0
C464 C 0.24037 0.89091 0.29349 0.0
C465 C 0.22883 0.94158 0.40606 0.0
C466 C 0.28223 0.95326 0.27512 0.0
C467 C 0.27602 0.95663 0.21507 0.0
C468 C 0.26875 0.94072 0.32116 0.0
C469 C 0.2487 0.93107 0.30576 0.0
C470 C 0.24237 0.93462 0.24539 0.0
C471 C 0.25613 0.94753 0.20096 0.0
C472 C 0.27595 0.93748 0.38566 0.0
C473 C 0.22115 0.92424 0.22674 0.0
H474 H 0.21575 0.86823 0.3873 0.0
H475 H 0.20495 0.91039 0.48001 0.0
H476 H 0.23765 0.89498 0.24434 0.0
H477 H 0.25632 0.89874 0.30113 0.0
H478 H 0.23504 0.87506 0.29396 0.0
H479 H 0.21977 0.94288 0.44485 0.0
H480 H 0.24435 0.95136 0.41833 0.0
H481 H 0.22599 0.94675 0.35923 0.0
H482 H 0.29762 0.96047 0.28618 0.0
H483 H 0.25132 0.95011 0.15432 0.0
H484 H 0.27289 0.92227 0.38856 0.0
H485 H 0.26816 0.93972 0.42673 0.0
H486 H 0.29179 0.94735 0.3923 0.0
H487 H 0.21566 0.90841 0.22313 0.0
H488 H 0.21858 0.92936 0.17924 0.0
H489 H 0.2125 0.92636 0.26499 0.0
C490 C 0.28986 0.44265 0.40121 0.0
C491 C 0.29689 0.42967 0.39591 0.0
C492 C 0.27748 0.44319 0.35371 0.0
C493 C 0.27241 0.43075 0.29888 0.0
C494 C 0.28068 0.4187 0.29073 0.0
C495 C 0.29266 0.41809 0.33999 0.0
C496 C 0.26863 0.45591 0.36499 0.0
C497 C 0.27598 0.40564 0.23189 0.0
C498 C 0.22195 0.41135 0.23053 0.0
C499 C 0.22539 0.42352 0.17677 0.0
C500 C 0.23717 0.41374 0.27088 0.0
C501 C 0.25637 0.4283 0.25576 0.0
C502 C 0.25998 0.44059 0.20113 0.0
C503 C 0.24431 0.43823 0.16263 0.0
C504 C 0.23264 0.40072 0.32986 0.0
C505 C 0.28035 0.4559 0.18282 0.0
H506 H 0.29313 0.45166 0.44444 0.0
H507 H 0.29828 0.40822 0.33553 0.0
H508 H 0.26975 0.46433 0.32038 0.0
H509 H 0.25297 0.44664 0.37631 0.0
H510 H 0.27567 0.46621 0.40617 0.0
H511 H 0.28595 0.39969 0.22749 0.0
H512 H 0.26092 0.39331 0.236 0.0
H513 H 0.27683 0.41363 0.1864 0.0
H514 H 0.20724 0.40002 0.24139 0.0
H515 H 0.2469 0.44745 0.12038 0.0
H516 H 0.23822 0.40963 0.37487 0.0
H517 H 0.24 0.39204 0.32541 0.0
H518 H 0.21682 0.39059 0.33584 0.0
H519 H 0.28723 0.46629 0.22373 0.0
H520 H 0.28068 0.46412 0.13843 0.0
H521 H 0.2893 0.449 0.17378 0.0
C522 C 0.20869 0.38571 0.90155 0.0
C523 C 0.20176 0.39869 0.89506 0.0
C524 C 0.22212 0.38596 0.85648 0.0
C525 C 0.2283 0.39928 0.80374 0.0
C526 C 0.21989 0.41111 0.794 0.0
C527 C 0.20683 0.4108 0.84029 0.0
C528 C 0.23085 0.37319 0.86841 0.0
C529 C 0.22578 0.42518 0.73753 0.0
C530 C 0.27964 0.42155 0.73983 0.0
C531 C 0.27679 0.41132 0.68141 0.0
C532 C 0.26398 0.41726 0.78125 0.0
C533 C 0.24506 0.40258 0.76313 0.0
C534 C 0.24214 0.39208 0.70448 0.0
C535 C 0.25809 0.39653 0.66437 0.0
C536 C 0.26763 0.42866 0.84386 0.0
C537 C 0.22213 0.37652 0.68336 0.0
H538 H 0.20483 0.37647 0.94436 0.0
H539 H 0.20129 0.42074 0.83535 0.0
H540 H 0.23141 0.36609 0.82243 0.0
H541 H 0.246 0.38225 0.88603 0.0
H542 H 0.22259 0.36181 0.90553 0.0
H543 H 0.21607 0.4314 0.73226 0.0
H544 H 0.24081 0.43728 0.74541 0.0
H545 H 0.22566 0.41793 0.69104 0.0
H546 H 0.29411 0.43287 0.75328 0.0
H547 H 0.25586 0.38858 0.61911 0.0
H548 H 0.2616 0.41863 0.88609 0.0
H549 H 0.26015 0.43726 0.84188 0.0
H550 H 0.28334 0.43874 0.85269 0.0
H551 H 0.21508 0.36564 0.72281 0.0
H552 H 0.2225 0.36893 0.63824 0.0
H553 H 0.21291 0.3831 0.67413 0.0
C554 C 0.75557 0.88392 0.87149 0.0
C555 C 0.74527 0.87852 0.9304 0.0
C556 C 0.75299 0.89581 0.8268 0.0
C557 C 0.74014 0.90272 0.84238 0.0
C558 C 0.72951 0.89705 0.90141 0.0
C559 C 0.73208 0.88486 0.94451 0.0
C560 C 0.76435 0.90137 0.7637 0.0
C561 C 0.71601 0.90448 0.92023 0.0
C562 C 0.75327 0.95066 0.76394 0.0
C563 C 0.73995 0.94482 0.71235 0.0
C564 C 0.75291 0.93713 0.80829 0.0
C565 C 0.73919 0.91723 0.79963 0.0
C566 C 0.72526 0.9113 0.7488 0.0
C567 C 0.72566 0.92529 0.70593 0.0
C568 C 0.76766 0.94406 0.86299 0.0
C569 C 0.7106 0.89016 0.73779 0.0
H570 H 0.76562 0.87885 0.86035 0.0
H571 H 0.72413 0.88071 0.99023 0.0
H572 H 0.75447 0.89844 0.72153 0.0
H573 H 0.77499 0.91716 0.76381 0.0
H574 H 0.77234 0.89337 0.75632 0.0
H575 H 0.70787 0.89768 0.96588 0.0
H576 H 0.72451 0.92043 0.92756 0.0
H577 H 0.70545 0.90167 0.88043 0.0
H578 H 0.76424 0.96584 0.76888 0.0
H579 H 0.71552 0.92084 0.66545 0.0
H580 H 0.77781 0.93847 0.85541 0.0
H581 H 0.76033 0.93837 0.91061 0.0
H582 H 0.77627 0.96016 0.8659 0.0
H583 H 0.71825 0.88227 0.72335 0.0
H584 H 0.69995 0.8881 0.69898 0.0
H585 H 0.70261 0.88343 0.78362 0.0
C586 C 0.27713 0.95593 0.87714 0.0
C587 C 0.28513 0.95214 0.93228 0.0
C588 C 0.26524 0.94092 0.83401 0.0
C589 C 0.26095 0.92169 0.84752 0.0
C590 C 0.26939 0.91791 0.90229 0.0
C591 C 0.28154 0.93323 0.94367 0.0
C592 C 0.25677 0.94551 0.77519 0.0
C593 C 0.26483 0.89755 0.91903 0.0
C594 C 0.21249 0.88293 0.78212 0.0
C595 C 0.21805 0.87661 0.72667 0.0
C596 C 0.22641 0.89703 0.82345 0.0
C597 C 0.24632 0.90535 0.80768 0.0
C598 C 0.25204 0.89852 0.75287 0.0
C599 C 0.23776 0.88397 0.71326 0.0
C600 C 0.21977 0.90353 0.8826 0.0
C601 C 0.27313 0.9073 0.7341 0.0
H602 H 0.28002 0.97057 0.86809 0.0
H603 H 0.28765 0.93023 0.9865 0.0
H604 H 0.2593 0.93922 0.73036 0.0
H605 H 0.24084 0.93885 0.78124 0.0
H606 H 0.26307 0.96138 0.76801 0.0
H607 H 0.27368 0.89728 0.96064 0.0
H608 H 0.24926 0.88863 0.93216 0.0
H609 H 0.26738 0.89058 0.87616 0.0
H610 H 0.19719 0.87716 0.79228 0.0
H611 H 0.24198 0.87923 0.66969 0.0
H612 H 0.22335 0.91882 0.87617 0.0
H613 H 0.22747 0.90293 0.92703 0.0
H614 H 0.20388 0.89445 0.89086 0.0
H615 H 0.27893 0.92266 0.71954 0.0
H616 H 0.27523 0.89944 0.69286 0.0
H617 H 0.28183 0.90725 0.77644 0.0
C618 C 0.44756 0.30128 0.69169 0.0
C619 C 0.43263 0.30572 0.69467 0.0
C620 C 0.44709 0.28817 0.64487 0.0
C621 C 0.43157 0.27979 0.59946 0.0
C622 C 0.4174 0.28559 0.59891 0.0
C623 C 0.41797 0.29833 0.6472 0.0
C624 C 0.46233 0.28214 0.64739 0.0
C625 C 0.40094 0.27738 0.55011 0.0
C626 C 0.43618 0.252 0.45682 0.0
C627 C 0.42504 0.23279 0.47857 0.0
C628 C 0.43813 0.26749 0.49504 0.0
C629 C 0.42908 0.26362 0.55697 0.0
C630 C 0.41767 0.2442 0.57892 0.0
C631 C 0.4156 0.22896 0.53896 0.0
C632 C 0.44996 0.28797 0.46946 0.0
C633 C 0.40801 0.23956 0.6452 0.0
H634 H 0.45876 0.30686 0.72897 0.0
H635 H 0.40646 0.30187 0.64959 0.0
H636 H 0.45556 0.26684 0.66404 0.0
H637 H 0.46844 0.28289 0.59805 0.0
H638 H 0.47439 0.29135 0.68129 0.0
H639 H 0.39282 0.28539 0.55037 0.0
H640 H 0.40649 0.27783 0.5 0.0
H641 H 0.39067 0.26195 0.56198 0.0
H642 H 0.44339 0.25493 0.40978 0.0
H643 H 0.4071 0.21409 0.55585 0.0
H644 H 0.46264 0.29652 0.50179 0.0
H645 H 0.44112 0.29522 0.46978 0.0
H646 H 0.4553 0.28841 0.41895 0.0
H647 H 0.4191 0.24684 0.68401 0.0
H648 H 0.3999 0.22372 0.65526 0.0
H649 H 0.39778 0.24518 0.64847 0.0
C650 C 0.88009 0.22815 0.74732 0.0
C651 C 0.87692 0.20935 0.75656 0.0
C652 C 0.89387 0.24069 0.70207 0.0
C653 C 0.90435 0.23402 0.66454 0.0
C654 C 0.9004 0.21469 0.67116 0.0
C655 C 0.88684 0.20261 0.71771 0.0
C656 C 0.89786 0.2613 0.69659 0.0
C657 C 0.91096 0.20697 0.63069 0.0
C658 C 0.92957 0.26411 0.51549 0.0
C659 C 0.94862 0.27549 0.53841 0.0
C660 C 0.91514 0.24997 0.55524 0.0
C661 C 0.91985 0.24753 0.61984 0.0
C662 C 0.93921 0.25864 0.6427 0.0
C663 C 0.95349 0.2724 0.60121 0.0
C664 C 0.89477 0.23804 0.52872 0.0
C665 C 0.94465 0.25653 0.71173 0.0
H666 H 0.87254 0.23341 0.77785 0.0
H667 H 0.88431 0.18801 0.72483 0.0
H668 H 0.9131 0.27153 0.71097 0.0
H669 H 0.8961 0.26462 0.64522 0.0
H670 H 0.88808 0.26402 0.72805 0.0
H671 H 0.90499 0.19114 0.63787 0.0
H672 H 0.91004 0.20975 0.57801 0.0
H673 H 0.92656 0.21464 0.64414 0.0
H674 H 0.92589 0.26641 0.4665 0.0
H675 H 0.96823 0.28131 0.6188 0.0
H676 H 0.88487 0.2417 0.55539 0.0
H677 H 0.88937 0.22235 0.53647 0.0
H678 H 0.89392 0.24059 0.47571 0.0
H679 H 0.9366 0.26052 0.7469 0.0
H680 H 0.96045 0.26585 0.7212 0.0
H681 H 0.94047 0.24121 0.72153 0.0
C682 C 0.93315 0.76199 0.85539 0.0
C683 C 0.9415 0.75126 0.83186 0.0
C684 C 0.91978 0.76433 0.81759 0.0
C685 C 0.91501 0.75607 0.7544 0.0
C686 C 0.92313 0.7449 0.73091 0.0
C687 C 0.93616 0.74245 0.77036 0.0
C688 C 0.91103 0.77592 0.84473 0.0
C689 C 0.91849 0.73602 0.66336 0.0
C690 C 0.87039 0.74696 0.66039 0.0
C691 C 0.87838 0.76216 0.61493 0.0
C692 C 0.88191 0.74554 0.70937 0.0
C693 C 0.90193 0.75943 0.71173 0.0
C694 C 0.90976 0.77554 0.66868 0.0
C695 C 0.89778 0.77682 0.621 0.0
C696 C 0.87295 0.72845 0.75557 0.0
C697 C 0.93109 0.79056 0.66951 0.0
H698 H 0.9372 0.76869 0.90329 0.0
H699 H 0.94271 0.73424 0.75213 0.0
H700 H 0.91582 0.78924 0.81516 0.0
H701 H 0.89496 0.76735 0.84159 0.0
H702 H 0.91524 0.78023 0.89647 0.0
H703 H 0.92598 0.7277 0.65265 0.0
H704 H 0.90262 0.72613 0.6582 0.0
H705 H 0.92287 0.7476 0.62607 0.0
H706 H 0.85532 0.73568 0.65576 0.0
H707 H 0.90396 0.78848 0.58544 0.0
H708 H 0.87767 0.73326 0.80657 0.0
H709 H 0.87789 0.71808 0.74242 0.0
H710 H 0.85683 0.72066 0.75364 0.0
H711 H 0.93593 0.79598 0.7199 0.0
H712 H 0.93448 0.80311 0.63727 0.0
H713 H 0.93964 0.78381 0.65271 0.0
C714 C 0.91138 0.7561 0.36085 0.0
C715 C 0.89254 0.74823 0.33566 0.0
C716 C 0.92628 0.75647 0.32329 0.0
C717 C 0.92226 0.7493 0.25856 0.0
C718 C 0.90309 0.74077 0.23367 0.0
C719 C 0.88835 0.7401 0.27303 0.0
C720 C 0.9464 0.76511 0.35206 0.0
C721 C 0.89833 0.73321 0.16443 0.0
C722 C 0.9613 0.76981 0.12885 0.0
C723 C 0.96396 0.75396 0.11722 0.0
C724 C 0.9483 0.76882 0.17698 0.0
C725 C 0.93822 0.75175 0.21512 0.0
C726 C 0.94215 0.73638 0.20717 0.0
C727 C 0.95481 0.73756 0.15752 0.0
C728 C 0.94428 0.78541 0.18354 0.0
C729 C 0.93214 0.71824 0.24838 0.0
H730 H 0.91453 0.76225 0.40968 0.0
H731 H 0.87378 0.73413 0.25359 0.0
H732 H 0.95232 0.75525 0.344 0.0
H733 H 0.95627 0.77902 0.32725 0.0
H734 H 0.94658 0.76793 0.40533 0.0
H735 H 0.88261 0.72659 0.15322 0.0
H736 H 0.90661 0.74527 0.12955 0.0
H737 H 0.90274 0.72217 0.156 0.0
H738 H 0.96827 0.78242 0.09722 0.0
H739 H 0.957 0.72534 0.14857 0.0
H740 H 0.94558 0.79005 0.2353 0.0
H741 H 0.92917 0.78053 0.16775 0.0
H742 H 0.95432 0.79816 0.15351 0.0
H743 H 0.93241 0.722 0.30076 0.0
H744 H 0.93898 0.70907 0.24302 0.0
H745 H 0.9167 0.70952 0.23344 0.0
C746 C 0.44378 0.2345 0.18471 0.0
C747 C 0.42882 0.2153 0.1921 0.0
C748 C 0.4425 0.24649 0.13707 0.0
C749 C 0.42612 0.23882 0.09517 0.0
C750 C 0.4118 0.21897 0.0991 0.0
C751 C 0.41318 0.20749 0.14834 0.0
C752 C 0.45792 0.26768 0.13488 0.0
C753 C 0.39446 0.21013 0.0539 0.0
C754 C 0.41097 0.27424 0.03382 0.0
C755 C 0.42009 0.27927 0.97285 0.0
C756 C 0.4126 0.26083 0.07391 0.0
C757 C 0.42316 0.25194 0.05134 0.0
C758 C 0.43149 0.25622 0.98822 0.0
C759 C 0.43009 0.27009 0.95002 0.0
C760 C 0.40375 0.2568 0.14143 0.0
C761 C 0.44231 0.24657 0.96181 0.0
H762 H 0.45574 0.24055 0.21921 0.0
H763 H 0.40164 0.19257 0.15421 0.0
H764 H 0.46344 0.27201 0.08435 0.0
H765 H 0.45152 0.27669 0.15001 0.0
H766 H 0.47036 0.27102 0.16765 0.0
H767 H 0.38622 0.19403 0.05714 0.0
H768 H 0.38453 0.21565 0.06682 0.0
H769 H 0.39908 0.21437 0.0025 0.0
H770 H 0.40337 0.28149 0.05147 0.0
H771 H 0.43703 0.27393 0.90246 0.0
H772 H 0.41532 0.26112 0.1788 0.0
H773 H 0.39353 0.24103 0.14758 0.0
H774 H 0.39582 0.26474 0.15117 0.0
H775 H 0.45579 0.2513 0.99046 0.0
H776 H 0.44629 0.25013 0.90954 0.0
H777 H 0.43335 0.23057 0.96693 0.0
C778 C 0.96769 0.27845 0.22356 0.0
C779 C 0.96058 0.28931 0.25489 0.0
C780 C 0.95644 0.26429 0.17715 0.0
C781 C 0.93753 0.26072 0.16309 0.0
C782 C 0.93051 0.27206 0.1932 0.0
C783 C 0.94225 0.28642 0.23837 0.0
C784 C 0.96456 0.25282 0.1446 0.0
C785 C 0.91031 0.26852 0.17969 0.0
C786 C 0.90966 0.23468 0.01144 0.0
C787 C 0.89676 0.21623 0.03629 0.0
C788 C 0.92388 0.24901 0.05134 0.0
C789 C 0.92479 0.24485 0.11798 0.0
C790 C 0.91239 0.22591 0.14256 0.0
C791 C 0.89859 0.21167 0.10094 0.0
C792 C 0.93721 0.26887 0.02299 0.0
C793 C 0.91286 0.22105 0.21366 0.0
H794 H 0.98193 0.28076 0.23631 0.0
H795 H 0.9367 0.2947 0.26311 0.0
H796 H 0.95616 0.23742 0.16009 0.0
H797 H 0.96314 0.25313 0.0907 0.0
H798 H 0.98008 0.2585 0.15698 0.0
H799 H 0.90716 0.27875 0.20673 0.0
H800 H 0.90845 0.26999 0.12665 0.0
H801 H 0.89942 0.25347 0.19392 0.0
H802 H 0.90828 0.23808 0.96105 0.0
H803 H 0.88847 0.1974 0.11999 0.0
H804 H 0.95249 0.27394 0.0371 0.0
H805 H 0.93331 0.27945 0.04288 0.0
H806 H 0.93628 0.26896 0.9688 0.0
H807 H 0.92786 0.22527 0.22869 0.0
H808 H 0.90323 0.20535 0.22389 0.0
H809 H 0.90813 0.22944 0.24441 0.0
C810 C 0.09753 0.71202 0.37258 0.0
C811 C 0.10513 0.70294 0.33347 0.0
C812 C 0.10962 0.73033 0.39983 0.0
C813 C 0.1298 0.73987 0.38724 0.0
C814 C 0.13757 0.73093 0.34697 0.0
C815 C 0.12511 0.71247 0.32062 0.0
C816 C 0.10078 0.73939 0.44258 0.0
C817 C 0.15901 0.74082 0.3321 0.0
C818 C 0.15365 0.79386 0.41572 0.0
C819 C 0.16039 0.79545 0.48001 0.0
C820 C 0.14482 0.776 0.38308 0.0
C821 C 0.14251 0.75933 0.41594 0.0
C822 C 0.15028 0.76105 0.47955 0.0
C823 C 0.15925 0.77919 0.51083 0.0
C824 C 0.13693 0.77478 0.31498 0.0
C825 C 0.148 0.74355 0.51615 0.0
H826 H 0.0821 0.70469 0.3828 0.0
H827 H 0.13101 0.70545 0.29045 0.0
H828 H 0.10752 0.74246 0.49185 0.0
H829 H 0.10369 0.75344 0.42142 0.0
H830 H 0.08483 0.72991 0.44815 0.0
H831 H 0.16269 0.73204 0.29908 0.0
H832 H 0.16381 0.75513 0.30893 0.0
H833 H 0.16736 0.74357 0.37816 0.0
H834 H 0.15475 0.80649 0.39144 0.0
H835 H 0.16453 0.78043 0.56048 0.0
H836 H 0.12083 0.76707 0.31668 0.0
H837 H 0.14115 0.76636 0.28238 0.0
H838 H 0.14213 0.78936 0.29321 0.0
H839 H 0.13251 0.73401 0.52932 0.0
H840 H 0.15678 0.74765 0.56171 0.0
H841 H 0.15231 0.73494 0.48487 0.0
C842 C 0.46993 0.51547 0.43872 0.0
C843 C 0.47011 0.51533 0.37018 0.0
C844 C 0.45267 0.50973 0.47304 0.0
C845 C 0.43526 0.50356 0.43772 0.0
C846 C 0.43591 0.50589 0.36893 0.0
C847 C 0.45342 0.51178 0.33577 0.0
C848 C 0.45269 0.50801 0.54652 0.0
C849 C 0.41771 0.49988 0.32964 0.0
C850 C 0.39156 0.45715 0.49384 0.0
C851 C 0.37959 0.46376 0.51951 0.0
C852 C 0.4099 0.47011 0.46901 0.0
C853 C 0.41645 0.49027 0.46949 0.0
C854 C 0.40478 0.49717 0.49782 0.0
C855 C 0.38638 0.48375 0.52277 0.0
C856 C 0.42199 0.46209 0.44034 0.0
C857 C 0.41127 0.51852 0.49923 0.0
H858 H 0.48297 0.51868 0.46558 0.0
H859 H 0.45359 0.51199 0.28277 0.0
H860 H 0.44265 0.51219 0.56931 0.0
H861 H 0.44764 0.49269 0.5599 0.0
H862 H 0.46745 0.51721 0.56726 0.0
H863 H 0.42107 0.50598 0.27937 0.0
H864 H 0.40934 0.48381 0.32591 0.0
H865 H 0.40833 0.50463 0.35403 0.0
H866 H 0.38639 0.4417 0.49194 0.0
H867 H 0.37705 0.48884 0.54238 0.0
H868 H 0.43639 0.4688 0.46457 0.0
H869 H 0.42447 0.46566 0.38752 0.0
H870 H 0.41495 0.44608 0.44578 0.0
H871 H 0.42692 0.52735 0.51143 0.0
H872 H 0.40279 0.5218 0.53503 0.0
H873 H 0.40915 0.52309 0.45009 0.0
C874 C 0.69691 0.99698 0.48652 0.0
C875 C 0.71584 0.00249 0.46672 0.0
C876 C 0.68657 0.0049 0.45625 0.0
C877 C 0.69546 0.01862 0.40535 0.0
C878 C 0.71417 0.02342 0.38302 0.0
C879 C 0.72413 0.01529 0.414 0.0
C880 C 0.66659 -0.00064 0.48101 0.0
C881 C 0.72416 0.03803 0.32893 0.0
C882 C 0.6679 0.03589 0.29883 0.0
C883 C 0.67285 0.05363 0.32879 0.0
C884 C 0.67457 0.02387 0.32448 0.0
C885 C 0.68645 0.02985 0.38101 0.0
C886 C 0.691 0.04749 0.41232 0.0
C887 C 0.68412 0.05913 0.38587 0.0
C888 C 0.66938 0.00508 0.29016 0.0
C889 C 0.70369 0.05443 0.4726 0.0
H890 H 0.69041 0.98697 0.52697 0.0
H891 H 0.73869 0.01944 0.39806 0.0
H892 H 0.66723 0.01181 0.50777 0.0
H893 H 0.65636 0.99591 0.43959 0.0
H894 H 0.66072 0.98668 0.51452 0.0
H895 H 0.73784 0.0387 0.31301 0.0
H896 H 0.71443 0.03442 0.28599 0.0
H897 H 0.72766 0.05266 0.34613 0.0
H898 H 0.65912 0.03157 0.25485 0.0
H899 H 0.68791 0.07278 0.40949 0.0
H900 H 0.66339 0.99289 0.32559 0.0
H901 H 0.68264 0.00603 0.26877 0.0
H902 H 0.65862 0.00168 0.25041 0.0
H903 H 0.6977 0.04312 0.51116 0.0
H904 H 0.70505 0.06802 0.4928 0.0
H905 H 0.71843 0.0571 0.46056 0.0
C906 C 0.71692 0.12571 0.12192 0.0
C907 C 0.71097 0.1314 0.17811 0.0
C908 C 0.73555 0.13709 0.09645 0.0
C909 C 0.74861 0.15478 0.12755 0.0
C910 C 0.74245 0.16116 0.18246 0.0
C911 C 0.72364 0.14928 0.20751 0.0
C912 C 0.74151 0.12967 0.03787 0.0
C913 C 0.75589 0.18011 0.21606 0.0
C914 C 0.79956 0.1653 0.09715 0.0
C915 C 0.80409 0.17617 0.03936 0.0
C916 C 0.78215 0.1597 0.13024 0.0
C917 C 0.76909 0.16531 0.10522 0.0
C918 C 0.77448 0.17791 0.05066 0.0
C919 C 0.79192 0.18309 0.01788 0.0
C920 C 0.77695 0.1462 0.18813 0.0
C921 C 0.76115 0.18461 0.02369 0.0
H922 H 0.70714 0.11199 0.09852 0.0
H923 H 0.71903 0.15379 0.25069 0.0
H924 H 0.74698 0.14068 -0.00168 0.0
H925 H 0.75348 0.12701 0.05173 0.0
H926 H 0.72934 0.11595 0.01809 0.0
H927 H 0.74793 0.18463 0.24983 0.0
H928 H 0.76686 0.17854 0.24479 0.0
H929 H 0.76382 0.1918 0.17964 0.0
H930 H 0.80907 0.16014 0.11453 0.0
H931 H 0.79554 0.19178 0.9738 0.0
H932 H 0.76554 0.13139 0.17347 0.0
H933 H 0.77101 0.15097 0.22853 0.0
H934 H 0.78964 0.14536 0.20675 0.0
H935 H 0.74936 0.17267 0.9952 0.0
H936 H 0.76898 0.19736 0.99091 0.0
H937 H 0.7543 0.18846 0.06383 0.0
C938 C 0.98628 0.6891 0.98128 0.0
C939 C -2e-05 0.70895 0.98518 0.0
C940 C 0.98996 0.67522 0.01025 0.0
C941 C 0.00767 0.68147 0.04397 0.0
C942 C 0.02182 0.70144 0.04557 0.0
C943 C 0.01781 0.7149 0.016 0.0
C944 C 0.97467 0.65402 0.00688 0.0
C945 C 0.04098 0.70874 0.08061 0.0
C946 C 0.01594 0.65649 0.18655 0.0
C947 C 0.02875 0.65129 0.15858 0.0
C948 C 0.00728 0.66472 0.14816 0.0
C949 C 0.01148 0.66758 0.08042 0.0
C950 C 0.02266 0.66033 0.05097 0.0
C951 C 0.03129 0.65236 0.09057 0.0
C952 C 0.99532 0.67217 0.18132 0.0
C953 C 0.02711 0.6627 0.97872 0.0
H954 H 0.97246 0.68445 0.95748 0.0
H955 H 0.0285 0.73022 0.01878 0.0
H956 H 0.98126 0.64506 0.99342 0.0
H957 H 0.96789 0.64909 0.05568 0.0
H958 H 0.96308 0.6513 0.97102 0.0
H959 H 0.05056 0.7247 0.07586 0.0
H960 H 0.03837 0.7051 0.13337 0.0
H961 H 0.04877 0.70154 0.06084 0.0
H962 H 0.01382 0.65553 0.23907 0.0
H963 H 0.04096 0.64802 0.06864 0.0
H964 H 0.98215 0.66852 0.15229 0.0
H965 H 0.00401 0.68823 0.18505 0.0
H966 H 0.99085 0.66614 0.23136 0.0
H967 H 0.01407 0.65965 0.9499 0.0
H968 H 0.0325 0.65298 0.96154 0.0
H969 H 0.03847 0.67792 0.96868 0.0
C970 C 0.45074 0.36971 0.06345 0.0
C971 C 0.45685 0.37137 -0.00171 0.0
C972 C 0.45875 0.38583 0.10517 0.0
C973 C 0.47312 0.40406 0.0809 0.0
C974 C 0.48009 0.40562 0.01618 0.0
C975 C 0.47189 0.38919 0.97558 0.0
C976 C 0.45108 0.38356 0.17406 0.0
C977 C 0.49541 0.42485 0.98868 0.0
C978 C 0.47516 0.44885 0.15337 0.0
C979 C 0.49162 0.45607 0.19345 0.0
C980 C 0.46895 0.43186 0.11687 0.0
C981 C 0.4794 0.42178 0.12091 0.0
C982 C 0.49575 0.42871 0.16257 0.0
C983 C 0.50171 0.44585 0.19832 0.0
C984 C 0.45141 0.42489 0.07301 0.0
C985 C 0.50709 0.4182 0.16851 0.0
H986 H 0.43922 0.3559 0.08139 0.0
H987 H 0.47666 0.3905 0.92525 0.0
H988 H 0.46323 0.39034 0.20957 0.0
H989 H 0.4426 0.39113 0.1787 0.0
H990 H 0.44155 0.36809 0.18764 0.0
H991 H 0.50057 0.42326 0.93984 0.0
H992 H 0.48938 0.43472 0.98398 0.0
H993 H 0.50803 0.43189 0.02227 0.0
H994 H 0.46733 0.45673 0.14938 0.0
H995 H 0.51446 0.45141 0.22927 0.0
H996 H 0.44024 0.40989 0.08656 0.0
H997 H 0.45558 0.4245 0.02151 0.0
H998 H 0.44482 0.43433 0.07593 0.0
H999 H 0.4973 0.40287 0.18293 0.0
H1000 H 0.51901 0.42508 0.20495 0.0
H1001 H 0.51343 0.418 0.12042 0.0
C1002 C 0.98523 0.37963 0.4993 0.0
C1003 C 0.9924 0.36792 0.52342 0.0
C1004 C 0.98989 0.39721 0.53027 0.0
C1005 C 0.00226 0.40325 0.58558 0.0
C1006 C 0.00861 0.39093 0.61204 0.0
C1007 C 0.00347 0.37335 0.5809 0.0
C1008 C 0.98243 0.40976 0.5018 0.0
C1009 C 0.02199 0.39688 0.67061 0.0
C1010 C 0.03901 0.45582 0.61548 0.0
C1011 C 0.03212 0.45954 0.6736 0.0
C1012 C 0.02871 0.43787 0.58395 0.0
C1013 C 0.01092 0.42339 0.61068 0.0
C1014 C 0.00311 0.42758 0.66647 0.0
C1015 C 0.01393 0.44562 0.6978 0.0
C1016 C 0.03766 0.43397 0.52486 0.0
C1017 C 0.98392 0.41265 0.69523 0.0
H1018 H 0.97646 0.37535 0.45526 0.0
H1019 H 0.00892 0.36427 0.6001 0.0
H1020 H 0.97752 0.41592 0.54113 0.0
H1021 H 0.99431 0.42209 0.47498 0.0
H1022 H 0.97022 0.40153 0.46725 0.0
H1023 H 0.02445 0.38503 0.68785 0.0
H1024 H 0.03624 0.40959 0.65768 0.0
H1025 H 0.01593 0.40131 0.71161 0.0
H1026 H 0.05299 0.4666 0.59617 0.0
H1027 H 0.00846 0.44854 0.74234 0.0
H1028 H 0.02702 0.42798 0.48426 0.0
H1029 H 0.04185 0.42297 0.53743 0.0
H1030 H 0.05079 0.44725 0.50724 0.0
H1031 H 0.97303 0.40506 0.65608 0.0
H1032 H 0.97815 0.41928 0.72997 0.0
H1033 H 0.98579 0.40155 0.72192 0.0
C1034 C 0.7231 0.66458 0.68957 0.0
C1035 C 0.70601 0.66112 0.65829 0.0
C1036 C 0.74086 0.67351 0.65587 0.0
C1037 C 0.74133 0.67885 0.58949 0.0
C1038 C 0.72384 0.67397 0.55656 0.0
C1039 C 0.7064 0.66527 0.59151 0.0
C1040 C 0.75925 0.67851 0.69257 0.0
C1041 C 0.72368 0.6792 0.48564 0.0
C1042 C 0.78563 0.72478 0.53187 0.0
C1043 C 0.79566 0.71748 0.49641 0.0
C1044 C 0.768 0.71229 0.56255 0.0
C1045 C 0.76013 0.69197 0.55734 0.0
C1046 C 0.76999 0.68446 0.52064 0.0
C1047 C 0.78773 0.69734 0.49059 0.0
C1048 C 0.75789 0.72089 0.60106 0.0
C1049 C 0.76188 0.66286 0.51366 0.0
H1050 H 0.72279 0.66131 0.74116 0.0
H1051 H 0.69311 0.66232 0.56694 0.0
H1052 H 0.7685 0.67451 0.6635 0.0
H1053 H 0.76769 0.69442 0.70092 0.0
H1054 H 0.75621 0.6711 0.74072 0.0
H1055 H 0.70877 0.67195 0.46494 0.0
H1056 H 0.72995 0.69513 0.48118 0.0
H1057 H 0.73276 0.67515 0.45579 0.0
H1058 H 0.79171 0.74033 0.53662 0.0
H1059 H 0.7955 0.69166 0.46339 0.0
H1060 H 0.75587 0.71579 0.65247 0.0
H1061 H 0.74326 0.71596 0.58027 0.0
H1062 H 0.76612 0.73702 0.60101 0.0
H1063 H 0.7605 0.65625 0.56253 0.0
H1064 H 0.77116 0.65937 0.48246 0.0
H1065 H 0.74712 0.65601 0.49207 0.0
C1066 C 0.45342 0.16824 0.54623 0.0
C1067 C 0.45916 0.17451 0.48181 0.0
C1068 C 0.46241 0.16002 0.58269 0.0
C1069 C 0.47753 0.15807 0.55405 0.0
C1070 C 0.48417 0.16543 0.49043 0.0
C1071 C 0.47486 0.17355 0.45488 0.0
C1072 C 0.45488 0.15234 0.65035 0.0
C1073 C 0.50038 0.16373 0.45857 0.0
C1074 C 0.50602 0.14328 0.6664 0.0
C1075 C 0.49643 0.12316 0.65614 0.0
C1076 C 0.50035 0.155 0.6324 0.0
C1077 C 0.48468 0.14631 0.5877 0.0
C1078 C 0.47506 0.12602 0.577 0.0
C1079 C 0.48109 0.11472 0.61122 0.0
C1080 C 0.51097 0.17661 0.64468 0.0
C1081 C 0.45817 0.11617 0.53009 0.0
H1082 H 0.44139 0.16909 0.56751 0.0
H1083 H 0.4794 0.17848 0.40522 0.0
H1084 H 0.44747 0.13624 0.64987 0.0
H1085 H 0.46705 0.15756 0.68573 0.0
H1086 H 0.44443 0.15673 0.668 0.0
H1087 H 0.50549 0.17233 0.41274 0.0
H1088 H 0.51286 0.16867 0.49254 0.0
H1089 H 0.49523 0.14829 0.44674 0.0
H1090 H 0.51796 0.14986 0.70085 0.0
H1091 H 0.47364 0.09917 0.60305 0.0
H1092 H 0.50086 0.18096 0.66583 0.0
H1093 H 0.5164 0.18457 0.59788 0.0
H1094 H 0.52343 0.18122 0.67862 0.0
H1095 H 0.44616 0.11846 0.54641 0.0
H1096 H 0.45257 0.10031 0.52627 0.0
H1097 H 0.46261 0.12266 0.48067 0.0
C1098 C 0.37659 0.02677 0.95382 0.0
C1099 C 0.37035 0.01333 0.00523 0.0
C1100 C 0.3949 0.03379 0.92565 0.0
C1101 C 0.40732 0.02721 0.94941 0.0
C1102 C 0.40111 0.01355 0.00107 0.0
C1103 C 0.38263 0.00676 0.02858 0.0
C1104 C 0.40102 0.04844 0.87082 0.0
C1105 C 0.41403 0.00624 0.02743 0.0
C1106 C 0.44793 0.03694 0.83162 0.0
C1107 C 0.46274 0.05487 0.85463 0.0
C1108 C 0.43006 0.02708 0.86436 0.0
C1109 C 0.42705 0.0354 0.92123 0.0
C1110 C 0.44235 0.05297 0.94652 0.0
C1111 C 0.46 0.06251 0.91283 0.0
C1112 C 0.41407 0.00833 0.83612 0.0
C1113 C 0.43972 0.0623 0.00706 0.0
H1114 H 0.36714 0.03188 0.93549 0.0
H1115 H 0.3778 0.99631 0.06815 0.0
H1116 H 0.41411 0.06218 0.88558 0.0
H1117 H 0.40492 0.04294 0.8269 0.0
H1118 H 0.38944 0.05173 0.85717 0.0
H1119 H 0.4068 0.99517 0.06634 0.0
H1120 H 0.41837 -0.00019 0.98732 0.0
H1121 H 0.42752 0.01853 0.04774 0.0
H1122 H 0.45005 0.03093 0.78687 0.0
H1123 H 0.4715 0.07627 0.93123 0.0
H1124 H 0.40257 0.01079 0.81543 0.0
H1125 H 0.40727 0.99717 0.8749 0.0
H1126 H 0.41943 0.00257 0.79678 0.0
H1127 H 0.42947 0.0676 0.9964 0.0
H1128 H 0.45362 0.07476 0.02434 0.0
H1129 H 0.43335 0.05155 0.04721 0.0
C1130 C 0.10091 0.47618 0.89571 0.0
C1131 C 0.10711 0.48912 0.84286 0.0
C1132 C 0.11259 0.4692 0.92095 0.0
C1133 C 0.13092 0.4752 0.89233 0.0
C1134 C 0.13749 0.48857 0.83976 0.0
C1135 C 0.12548 0.49545 0.81564 0.0
C1136 C 0.10508 0.455 0.97725 0.0
C1137 C 0.15693 0.49518 0.80801 0.0
C1138 C 0.16346 0.46372 0.99586 0.0
C1139 C 0.15881 0.44546 0.97117 0.0
C1140 C 0.15529 0.4742 0.96836 0.0
C1141 C 0.14232 0.46619 0.91491 0.0
C1142 C 0.13842 0.44823 0.88779 0.0
C1143 C 0.14665 0.43805 0.91645 0.0
C1144 C 0.15973 0.4933 -0.00144 0.0
C1145 C 0.12475 0.43926 0.83059 0.0
H1146 H 0.08679 0.47138 0.91737 0.0
H1147 H 0.13034 0.50553 0.77495 0.0
H1148 H 0.10306 0.44078 0.96117 0.0
H1149 H 0.11578 0.46025 0.01782 0.0
H1150 H 0.09101 0.45271 0.99635 0.0
H1151 H 0.16052 0.5067 0.77095 0.0
H1152 H 0.16857 0.50075 0.84552 0.0
H1153 H 0.15687 0.48266 0.78377 0.0
H1154 H 0.17296 0.46953 0.03794 0.0
H1155 H 0.14322 0.42405 0.89664 0.0
H1156 H 0.14664 0.49155 0.02405 0.0
H1157 H 0.16355 0.50449 0.96018 0.0
H1158 H 0.17182 0.49863 0.03441 0.0
H1159 H 0.10973 0.43485 0.84609 0.0
H1160 H 0.12486 0.42627 0.81111 0.0
H1161 H 0.12866 0.44998 0.79052 0.0
C1162 C 0.66294 0.71039 0.81662 0.0
C1163 C 0.6722 0.69994 0.83363 0.0
C1164 C 0.66885 0.72868 0.84453 0.0
C1165 C 0.68445 0.73661 0.88967 0.0
C1166 C 0.6936 0.72594 0.90753 0.0
C1167 C 0.68732 0.70774 0.87947 0.0
C1168 C 0.65868 0.73964 0.82494 0.0
C1169 C 0.71044 0.73396 0.95498 0.0
C1170 C 0.71876 0.79012 0.91182 0.0
C1171 C 0.71411 0.79317 0.97519 0.0
C1172 C 0.70816 0.77207 0.88118 0.0
C1173 C 0.69251 0.75668 0.91478 0.0
C1174 C 0.68682 0.76005 0.97681 0.0
C1175 C 0.69775 0.77834 0.00648 0.0
C1176 C 0.71473 0.7691 0.81501 0.0
C1177 C 0.67005 0.74401 0.01369 0.0
H1178 H 0.65113 0.70431 0.78159 0.0
H1179 H 0.69451 0.6997 0.89294 0.0
H1180 H 0.65407 0.74441 0.86904 0.0
H1181 H 0.66885 0.7529 0.79746 0.0
H1182 H 0.64575 0.73076 0.79386 0.0
H1183 H 0.71545 0.72346 0.96553 0.0
H1184 H 0.72282 0.74737 0.93462 0.0
H1185 H 0.70626 0.73793 0.00175 0.0
H1186 H 0.73122 0.80166 0.88692 0.0
H1187 H 0.69401 0.78073 0.05523 0.0
H1188 H 0.70218 0.76144 0.78147 0.0
H1189 H 0.7215 0.7599 0.8205 0.0
H1190 H 0.72548 0.78304 0.79206 0.0
H1191 H 0.65746 0.7357 0.98075 0.0
H1192 H 0.66541 0.7497 0.05538 0.0
H1193 H 0.67444 0.73374 0.03313 0.0
C1194 C 0.77474 0.03678 0.73428 0.0
C1195 C 0.78184 0.03528 0.67311 0.0
C1196 C 0.78432 0.05386 0.77112 0.0
C1197 C 0.8013 0.06991 0.74583 0.0
C1198 C 0.80896 0.06826 0.68517 0.0
C1199 C 0.79915 0.05088 0.64954 0.0
C1200 C 0.77579 0.05499 0.83584 0.0
C1201 C 0.827 0.08514 0.65658 0.0
C1202 C 0.80999 0.11917 0.79886 0.0
C1203 C 0.82456 0.12458 0.84615 0.0
C1204 C 0.80256 0.10156 0.76527 0.0
C1205 C 0.80977 0.08892 0.7797 0.0
C1206 C 0.82442 0.09419 0.82766 0.0
C1207 C 0.83172 0.11206 0.86029 0.0
C1208 C 0.78696 0.09646 0.71436 0.0
C1209 C 0.83229 0.08095 0.8446 0.0
H1210 H 0.76147 0.02465 0.75308 0.0
H1211 H 0.8047 0.04971 0.60237 0.0
H1212 H 0.78711 0.06057 0.87446 0.0
H1213 H 0.77026 0.06529 0.83187 0.0
H1214 H 0.76365 0.04066 0.85152 0.0
H1215 H 0.83207 0.08097 0.6121 0.0
H1216 H 0.82396 0.09692 0.64345 0.0
H1217 H 0.83889 0.09115 0.69316 0.0
H1218 H 0.80446 0.12884 0.78746 0.0
H1219 H 0.84304 0.11623 0.89668 0.0
H1220 H 0.77355 0.08298 0.72873 0.0
H1221 H 0.79171 0.09363 0.66666 0.0
H1222 H 0.78335 0.10817 0.70766 0.0
H1223 H 0.82038 0.06686 0.86284 0.0
H1224 H 0.84385 0.08731 0.88241 0.0
H1225 H 0.83828 0.07783 0.80022 0.0
C1226 C 0.11732 0.81386 0.71101 0.0
C1227 C 0.12474 0.82958 0.66765 0.0
C1228 C 0.09948 0.80739 0.74212 0.0
C1229 C 0.08884 0.81698 0.72992 0.0
C1230 C 0.09636 0.83306 0.6869 0.0
C1231 C 0.11425 0.83915 0.6559 0.0
C1232 C 0.09188 0.79007 0.7873 0.0
C1233 C 0.08542 0.84367 0.67326 0.0
C1234 C 0.03549 0.78438 0.76376 0.0
C1235 C 0.0342 0.78913 0.82887 0.0
C1236 C 0.05296 0.79431 0.72919 0.0
C1237 C 0.06949 0.80939 0.76051 0.0
C1238 C 0.0679 0.81521 0.82458 0.0
C1239 C 0.05023 0.80494 0.85821 0.0
C1240 C 0.05406 0.78765 0.66095 0.0
C1241 C 0.08519 0.83139 0.8592 0.0
H1242 H 0.12538 0.80642 0.72026 0.0
H1243 H 0.12003 0.85139 0.62263 0.0
H1244 H 0.08914 0.79402 0.83657 0.0
H1245 H 0.07786 0.77818 0.76853 0.0
H1246 H 0.10213 0.78448 0.79232 0.0
H1247 H 0.09371 0.85649 0.64113 0.0
H1248 H 0.07136 0.83372 0.64941 0.0
H1249 H 0.0821 0.84858 0.7198 0.0
H1250 H 0.02307 0.77228 0.74062 0.0
H1251 H 0.04924 0.80876 0.90837 0.0
H1252 H 0.06271 0.7802 0.66184 0.0
H1253 H 0.06148 0.80024 0.62746 0.0
H1254 H 0.03947 0.77744 0.64073 0.0
H1255 H 0.09545 0.82636 0.87298 0.0
H1256 H 0.0809 0.8361 0.90429 0.0
H1257 H 0.09305 0.8441 0.82644 0.0
C1258 C 0.33675 0.38417 0.71997 0.0
C1259 C 0.3335 0.38241 0.65231 0.0
C1260 C 0.34431 0.37384 0.75193 0.0
C1261 C 0.34881 0.36155 0.71515 0.0
C1262 C 0.34409 0.35851 0.64776 0.0
C1263 C 0.33642 0.36899 0.61699 0.0
C1264 C 0.34899 0.37739 0.82395 0.0
C1265 C 0.34862 0.34543 0.60707 0.0
C1266 C 0.39387 0.36108 0.77068 0.0
C1267 C 0.3861 0.34327 0.80338 0.0
C1268 C 0.38181 0.36698 0.74118 0.0
C1269 C 0.36143 0.35477 0.74453 0.0
C1270 C 0.35343 0.33677 0.77765 0.0
C1271 C 0.36591 0.3312 0.80685 0.0
C1272 C 0.39094 0.38637 0.70659 0.0
C1273 C 0.33175 0.32346 0.7822 0.0
H1274 H 0.3342 0.39431 0.74765 0.0
H1275 H 0.33378 0.36752 0.56474 0.0
H1276 H 0.34438 0.36353 0.85 0.0
H1277 H 0.36493 0.38659 0.83035 0.0
H1278 H 0.34191 0.38487 0.84727 0.0
H1279 H 0.34121 0.3421 0.55882 0.0
H1280 H 0.36451 0.35267 0.59859 0.0
H1281 H 0.34426 0.33161 0.63306 0.0
H1282 H 0.40947 0.37047 0.76775 0.0
H1283 H 0.35988 0.31736 0.83186 0.0
H1284 H 0.38624 0.39592 0.73011 0.0
H1285 H 0.38606 0.38434 0.65492 0.0
H1286 H 0.40706 0.39392 0.70736 0.0
H1287 H 0.32504 0.33095 0.80778 0.0
H1288 H 0.32786 0.3098 0.80873 0.0
H1289 H 0.32534 0.31976 0.73246 0.0
C1290 C 0.0551 0.33484 0.36987 0.0
C1291 C 0.04369 0.34315 0.35389 0.0
C1292 C 0.07307 0.34114 0.33911 0.0
C1293 C 0.07959 0.35598 0.29135 0.0
C1294 C 0.06824 0.3646 0.27603 0.0
C1295 C 0.05047 0.35812 0.30762 0.0
C1296 C 0.08494 0.33178 0.35692 0.0
C1297 C 0.07471 0.38051 0.22544 0.0
C1298 C 0.13184 0.38766 0.24064 0.0
C1299 C 0.13182 0.38012 0.17866 0.0
C1300 C 0.11525 0.37907 0.28011 0.0
C1301 C 0.09822 0.36267 0.25662 0.0
C1302 C 0.09846 0.35433 0.19567 0.0
C1303 C 0.11535 0.36315 0.15738 0.0
C1304 C 0.11561 0.38826 0.3451 0.0
C1305 C 0.08054 0.33687 0.16901 0.0
H1306 H 0.04987 0.32324 0.40557 0.0
H1307 H 0.04171 0.3646 0.29511 0.0
H1308 H 0.08662 0.3244 0.31348 0.0
H1309 H 0.09972 0.34302 0.37245 0.0
H1310 H 0.07818 0.32097 0.39687 0.0
H1311 H 0.06416 0.3857 0.21943 0.0
H1312 H 0.08896 0.39303 0.23948 0.0
H1313 H 0.07661 0.37517 0.17744 0.0
H1314 H 0.14466 0.40066 0.25763 0.0
H1315 H 0.11535 0.35724 0.1096 0.0
H1316 H 0.10906 0.37705 0.38383 0.0
H1317 H 0.10683 0.39555 0.34168 0.0
H1318 H 0.13058 0.39921 0.36015 0.0
H1319 H 0.07391 0.32533 0.20665 0.0
H1320 H 0.08373 0.3308 0.1249 0.0
H1321 H 0.06961 0.34108 0.15575 0.0
C1322 C 0.8387 0.78767 0.24801 0.0
C1323 C 0.84383 0.79318 0.31337 0.0
C1324 C 0.83114 0.79681 0.20899 0.0
C1325 C 0.82867 0.81179 0.23614 0.0
C1326 C 0.83543 0.81856 0.30022 0.0
C1327 C 0.84294 0.80913 0.33826 0.0
C1328 C 0.82418 0.78919 0.14083 0.0
C1329 C 0.83322 0.83465 0.33062 0.0
C1330 C 0.81085 0.83853 0.12717 0.0
C1331 C 0.79089 0.82825 0.14042 0.0
C1332 C 0.82351 0.83345 0.15805 0.0
C1333 C 0.81589 0.81771 0.20254 0.0
C1334 C 0.79571 0.80715 0.21511 0.0
C1335 C 0.7835 0.81259 0.18406 0.0
C1336 C 0.84497 0.84502 0.1438 0.0
C1337 C 0.78694 0.79012 0.2617 0.0
H1338 H 0.83962 0.77551 0.22821 0.0
H1339 H 0.84707 0.81356 0.38858 0.0
H1340 H 0.80809 0.78041 0.14069 0.0
H1341 H 0.82843 0.8013 0.10583 0.0
H1342 H 0.83002 0.77989 0.12327 0.0
H1343 H 0.84209 0.84043 0.3757 0.0
H1344 H 0.83745 0.84674 0.29552 0.0
H1345 H 0.81776 0.82901 0.34359 0.0
H1346 H 0.8166 0.85071 0.09365 0.0
H1347 H 0.76806 0.80455 0.19427 0.0
H1348 H 0.85021 0.83529 0.12577 0.0
H1349 H 0.85306 0.85187 0.18944 0.0
H1350 H 0.84851 0.85657 0.10688 0.0
H1351 H 0.79034 0.77885 0.24516 0.0
H1352 H 0.77093 0.78339 0.26563 0.0
H1353 H 0.79332 0.79488 0.31115 0.0
C1354 C 0.32493 0.04459 0.23161 0.0
C1355 C 0.32276 0.04318 0.16351 0.0
C1356 C 0.33319 0.06261 0.26297 0.0
C1357 C 0.33959 0.07959 0.22501 0.0
C1358 C 0.33555 0.07803 0.15704 0.0
C1359 C 0.32707 0.05971 0.1269 0.0
C1360 C 0.33697 0.06356 0.33562 0.0
C1361 C 0.342 0.09582 0.11508 0.0
C1362 C 0.36197 0.12813 0.31361 0.0
C1363 C 0.38173 0.13383 0.3109 0.0
C1364 C 0.34792 0.11057 0.28509 0.0
C1365 C 0.3539 0.09857 0.25363 0.0
C1366 C 0.37384 0.10426 0.25143 0.0
C1367 C 0.38748 0.1218 0.28004 0.0
C1368 C 0.32679 0.10492 0.2882 0.0
C1369 C 0.38084 0.09178 0.2189 0.0
H1370 H 0.32126 0.0317 0.2601 0.0
H1371 H 0.32528 0.05858 0.07424 0.0
H1372 H 0.3525 0.0683 0.34407 0.0
H1373 H 0.33395 0.07429 0.35953 0.0
H1374 H 0.32804 0.04923 0.3595 0.0
H1375 H 0.3345 0.09213 0.06696 0.0
H1376 H 0.33927 0.10661 0.14002 0.0
H1377 H 0.35786 0.10277 0.1063 0.0
H1378 H 0.35751 0.13751 0.33703 0.0
H1379 H 0.40274 0.12615 0.27783 0.0
H1380 H 0.31827 0.09062 0.31249 0.0
H1381 H 0.3209 0.10339 0.23798 0.0
H1382 H 0.32451 0.11577 0.3151 0.0
H1383 H 0.37432 0.07742 0.24333 0.0
H1384 H 0.39689 0.09851 0.22059 0.0
H1385 H 0.37617 0.08921 0.167 0.0
loop_
_geom_bond_atom_site_label_1
_geom_bond_atom_site_label_2
_geom_bond_distance
_geom_bond_site_symmetry_2
_ccdc_geom_bond_type
In0 O1 2.294 . S
In0 O2 2.326 . S
In0 O6 2.266 . S
In0 O7 2.326 . S
In0 O8 2.266 . S
In0 O9 2.326 . S
In0 O11 2.294 . S
In0 O12 2.326 . S
O1 In0 2.294 . S
O1 C10 1.240 . S
O2 In0 2.326 . S
O2 C10 1.252 . S
C3 O6 1.252 . S
C3 O7 1.260 . S
C4 O11 1.240 . S
C4 O12 1.252 . S
C5 O8 1.252 . S
C5 O9 1.260 . S
O6 In0 2.266 . S
O6 C3 1.252 . S
O7 In0 2.326 . S
O7 C3 1.260 . S
O8 In0 2.266 . S
O8 C5 1.252 . S
O9 In0 2.326 . S
O9 C5 1.260 . S
C10 O1 1.240 . S
C10 O2 1.252 . S
O11 In0 2.294 . S
O11 C4 1.240 . S
O12 In0 2.326 . S
O12 C4 1.252 . S
In13 O14 2.294 . S
In13 O15 2.326 . S
In13 O19 2.266 . S
In13 O20 2.326 . S
In13 O21 2.266 . S
In13 O22 2.326 . S
In13 O24 2.294 . S
In13 O25 2.326 . S
O14 In13 2.294 . S
O14 C23 1.240 . S
O15 In13 2.326 . S
O15 C23 1.252 . S
C16 O19 1.252 . S
C16 O20 1.260 . S
C17 O24 1.240 . S
C17 O25 1.252 . S
C18 O21 1.252 . S
C18 O22 1.260 . S
O19 In13 2.266 . S
O19 C16 1.252 . S
O20 In13 2.326 . S
O20 C16 1.260 . S
O21 In13 2.266 . S
O21 C18 1.252 . S
O22 In13 2.326 . S
O22 C18 1.260 . S
C23 O14 1.240 . S
C23 O15 1.252 . S
O24 In13 2.294 . S
O24 C17 1.240 . S
O25 In13 2.326 . S
O25 C17 1.252 . S
In26 O27 2.294 . S
In26 O28 2.326 . S
In26 O32 2.266 . S
In26 O33 2.326 . S
In26 O34 2.266 . S
In26 O35 2.326 . S
In26 O37 2.294 . S
In26 O38 2.326 . S
O27 In26 2.294 . S
O27 C36 1.240 . S
O28 In26 2.326 . S
O28 C36 1.252 . S
C29 O32 1.252 . S
C29 O33 1.260 . S
C30 O37 1.240 . S
C30 O38 1.252 . S
C31 O34 1.252 . S
C31 O35 1.260 . S
O32 In26 2.266 . S
O32 C29 1.252 . S
O33 In26 2.326 . S
O33 C29 1.260 . S
O34 In26 2.266 . S
O34 C31 1.252 . S
O35 In26 2.326 . S
O35 C31 1.260 . S
C36 O27 1.240 . S
C36 O28 1.252 . S
O37 In26 2.294 . S
O37 C30 1.240 . S
O38 In26 2.326 . S
O38 C30 1.252 . S
In39 O40 2.294 . S
In39 O41 2.326 . S
In39 O45 2.266 . S
In39 O46 2.326 . S
In39 O47 2.266 . S
In39 O48 2.326 . S
In39 O50 2.294 . S
In39 O51 2.326 . S
O40 In39 2.294 . S
O40 C49 1.240 . S
O41 In39 2.326 . S
O41 C49 1.252 . S
C42 O45 1.252 . S
C42 O46 1.260 . S
C43 O50 1.240 . S
C43 O51 1.252 . S
C44 O47 1.252 . S
C44 O48 1.260 . S
O45 In39 2.266 . S
O45 C42 1.252 . S
O46 In39 2.326 . S
O46 C42 1.260 . S
O47 In39 2.266 . S
O47 C44 1.252 . S
O48 In39 2.326 . S
O48 C44 1.260 . S
C49 O40 1.240 . S
C49 O41 1.252 . S
O50 In39 2.294 . S
O50 C43 1.240 . S
O51 In39 2.326 . S
O51 C43 1.252 . S
In52 O53 2.294 . S
In52 O54 2.326 . S
In52 O58 2.266 . S
In52 O59 2.326 . S
In52 O60 2.266 . S
In52 O61 2.326 . S
In52 O63 2.294 . S
In52 O64 2.326 . S
O53 In52 2.294 . S
O53 C62 1.240 . S
O54 In52 2.326 . S
O54 C62 1.252 . S
C55 O58 1.252 . S
C55 O59 1.260 . S
C56 O63 1.240 . S
C56 O64 1.252 . S
C57 O60 1.252 . S
C57 O61 1.260 . S
O58 In52 2.266 . S
O58 C55 1.252 . S
O59 In52 2.326 . S
O59 C55 1.260 . S
O60 In52 2.266 . S
O60 C57 1.252 . S
O61 In52 2.326 . S
O61 C57 1.260 . S
C62 O53 1.240 . S
C62 O54 1.252 . S
O63 In52 2.294 . S
O63 C56 1.240 . S
O64 In52 2.326 . S
O64 C56 1.252 . S
In65 O66 2.294 . S
In65 O67 2.326 . S
In65 O71 2.266 . S
In65 O72 2.326 . S
In65 O73 2.266 . S
In65 O74 2.326 . S
In65 O76 2.294 . S
In65 O77 2.326 . S
O66 In65 2.294 . S
O66 C75 1.240 . S
O67 In65 2.326 . S
O67 C75 1.252 . S
C68 O71 1.252 . S
C68 O72 1.260 . S
C69 O76 1.240 . S
C69 O77 1.252 . S
C70 O73 1.252 . S
C70 O74 1.260 . S
O71 In65 2.266 . S
O71 C68 1.252 . S
O72 In65 2.326 . S
O72 C68 1.260 . S
O73 In65 2.266 . S
O73 C70 1.252 . S
O74 In65 2.326 . S
O74 C70 1.260 . S
C75 O66 1.240 . S
C75 O67 1.252 . S
O76 In65 2.294 . S
O76 C69 1.240 . S
O77 In65 2.326 . S
O77 C69 1.252 . S
In78 O79 2.294 . S
In78 O80 2.326 . S
In78 O84 2.266 . S
In78 O85 2.326 1_565 S
In78 O86 2.266 1_565 S
In78 O87 2.326 1_565 S
In78 O89 2.294 . S
In78 O90 2.326 . S
O79 In78 2.294 . S
O79 C88 1.240 . S
O80 In78 2.326 . S
O80 C88 1.252 . S
C81 O84 1.252 1_545 S
C81 O85 1.260 . S
C82 O89 1.240 . S
C82 O90 1.252 . S
C83 O86 1.252 . S
C83 O87 1.260 . S
O84 In78 2.266 . S
O84 C81 1.252 1_565 S
O85 In78 2.326 1_545 S
O85 C81 1.260 . S
O86 In78 2.266 1_545 S
O86 C83 1.252 . S
O87 In78 2.326 1_545 S
O87 C83 1.260 . S
C88 O79 1.240 . S
C88 O80 1.252 . S
O89 In78 2.294 . S
O89 C82 1.240 . S
O90 In78 2.326 . S
O90 C82 1.252 . S
In91 O92 2.294 . S
In91 O93 2.326 . S
In91 O97 2.266 . S
In91 O98 2.326 . S
In91 O99 2.266 . S
In91 O100 2.326 . S
In91 O102 2.294 . S
In91 O103 2.326 . S
O92 In91 2.294 . S
O92 C101 1.240 . S
O93 In91 2.326 . S
O93 C101 1.252 . S
C94 O97 1.252 . S
C94 O98 1.260 . S
C95 O102 1.240 . S
C95 O103 1.252 . S
C96 O99 1.252 . S
C96 O100 1.260 . S
O97 In91 2.266 . S
O97 C94 1.252 . S
O98 In91 2.326 . S
O98 C94 1.260 . S
O99 In91 2.266 . S
O99 C96 1.252 . S
O100 In91 2.326 . S
O100 C96 1.260 . S
C101 O92 1.240 . S
C101 O93 1.252 . S
O102 In91 2.294 . S
O102 C95 1.240 . S
O103 In91 2.326 . S
O103 C95 1.252 . S
In104 O105 2.294 . S
In104 O106 2.326 . S
In104 O110 2.266 . S
In104 O111 2.326 . S
In104 O112 2.266 . S
In104 O113 2.326 . S
In104 O115 2.294 . S
In104 O116 2.326 . S
O105 In104 2.294 . S
O105 C114 1.240 . S
O106 In104 2.326 . S
O106 C114 1.252 . S
C107 O110 1.252 . S
C107 O111 1.260 . S
C108 O115 1.240 . S
C108 O116 1.252 . S
C109 O112 1.252 . S
C109 O113 1.260 . S
O110 In104 2.266 . S
O110 C107 1.252 . S
O111 In104 2.326 . S
O111 C107 1.260 . S
O112 In104 2.266 . S
O112 C109 1.252 . S
O113 In104 2.326 . S
O113 C109 1.260 . S
C114 O105 1.240 . S
C114 O106 1.252 . S
O115 In104 2.294 . S
O115 C108 1.240 . S
O116 In104 2.326 . S
O116 C108 1.252 . S
In117 O118 2.294 . S
In117 O119 2.326 . S
In117 O123 2.266 . S
In117 O124 2.326 . S
In117 O125 2.266 . S
In117 O126 2.326 . S
In117 O128 2.294 . S
In117 O129 2.326 . S
O118 In117 2.294 . S
O118 C127 1.240 1_554 S
O119 In117 2.326 . S
O119 C127 1.252 1_554 S
C120 O123 1.252 . S
C120 O124 1.260 . S
C121 O128 1.240 . S
C121 O129 1.252 . S
C122 O125 1.252 . S
C122 O126 1.260 . S
O123 In117 2.266 . S
O123 C120 1.252 . S
O124 In117 2.326 . S
O124 C120 1.260 . S
O125 In117 2.266 . S
O125 C122 1.252 . S
O126 In117 2.326 . S
O126 C122 1.260 . S
C127 O118 1.240 1_556 S
C127 O119 1.252 1_556 S
O128 In117 2.294 . S
O128 C121 1.240 . S
O129 In117 2.326 . S
O129 C121 1.252 . S
In130 O131 2.294 . S
In130 O132 2.326 . S
In130 O136 2.266 . S
In130 O137 2.326 1_565 S
In130 O138 2.266 1_565 S
In130 O139 2.326 1_565 S
In130 O141 2.294 . S
In130 O142 2.326 . S
O131 In130 2.294 . S
O131 C140 1.240 . S
O132 In130 2.326 . S
O132 C140 1.252 . S
C133 O136 1.252 1_545 S
C133 O137 1.260 . S
C134 O141 1.240 1_556 S
C134 O142 1.252 1_556 S
C135 O138 1.252 . S
C135 O139 1.260 . S
O136 In130 2.266 . S
O136 C133 1.252 1_565 S
O137 In130 2.326 1_545 S
O137 C133 1.260 . S
O138 In130 2.266 1_545 S
O138 C135 1.252 . S
O139 In130 2.326 1_545 S
O139 C135 1.260 . S
C140 O131 1.240 . S
C140 O132 1.252 . S
O141 In130 2.294 . S
O141 C134 1.240 1_554 S
O142 In130 2.326 . S
O142 C134 1.252 1_554 S
In143 O144 2.294 . S
In143 O145 2.326 . S
In143 O149 2.266 . S
In143 O150 2.326 . S
In143 O151 2.266 . S
In143 O152 2.326 . S
In143 O154 2.294 . S
In143 O155 2.326 . S
O144 In143 2.294 . S
O144 C153 1.240 1_554 S
O145 In143 2.326 . S
O145 C153 1.252 1_554 S
C146 O149 1.252 . S
C146 O150 1.260 . S
C147 O154 1.240 . S
C147 O155 1.252 . S
C148 O151 1.252 . S
C148 O152 1.260 . S
O149 In143 2.266 . S
O149 C146 1.252 . S
O150 In143 2.326 . S
O150 C146 1.260 . S
O151 In143 2.266 . S
O151 C148 1.252 . S
O152 In143 2.326 . S
O152 C148 1.260 . S
C153 O144 1.240 1_556 S
C153 O145 1.252 1_556 S
O154 In143 2.294 . S
O154 C147 1.240 . S
O155 In143 2.326 . S
O155 C147 1.252 . S
In156 O157 2.294 . S
In156 O158 2.326 . S
In156 O162 2.266 . S
In156 O163 2.326 . S
In156 O164 2.266 . S
In156 O165 2.326 . S
In156 O167 2.294 . S
In156 O168 2.326 . S
O157 In156 2.294 . S
O157 C166 1.240 1_556 S
O158 In156 2.326 . S
O158 C166 1.252 1_556 S
C159 O162 1.252 . S
C159 O163 1.260 . S
C160 O167 1.240 . S
C160 O168 1.252 . S
C161 O164 1.252 . S
C161 O165 1.260 . S
O162 In156 2.266 . S
O162 C159 1.252 . S
O163 In156 2.326 . S
O163 C159 1.260 . S
O164 In156 2.266 . S
O164 C161 1.252 . S
O165 In156 2.326 . S
O165 C161 1.260 . S
C166 O157 1.240 1_554 S
C166 O158 1.252 1_554 S
O167 In156 2.294 . S
O167 C160 1.240 . S
O168 In156 2.326 . S
O168 C160 1.252 . S
In169 O170 2.294 . S
In169 O171 2.326 . S
In169 O175 2.266 . S
In169 O176 2.326 . S
In169 O177 2.266 . S
In169 O178 2.326 . S
In169 O180 2.294 . S
In169 O181 2.326 . S
O170 In169 2.294 . S
O170 C179 1.240 1_556 S
O171 In169 2.326 . S
O171 C179 1.252 1_556 S
C172 O175 1.252 . S
C172 O176 1.260 . S
C173 O180 1.240 . S
C173 O181 1.252 . S
C174 O177 1.252 . S
C174 O178 1.260 . S
O175 In169 2.266 . S
O175 C172 1.252 . S
O176 In169 2.326 . S
O176 C172 1.260 . S
O177 In169 2.266 . S
O177 C174 1.252 . S
O178 In169 2.326 . S
O178 C174 1.260 . S
C179 O170 1.240 1_554 S
C179 O171 1.252 1_554 S
O180 In169 2.294 . S
O180 C173 1.240 . S
O181 In169 2.326 . S
O181 C173 1.252 . S
In182 O183 2.294 . S
In182 O184 2.326 . S
In182 O188 2.266 1_655 S
In182 O189 2.326 1_655 S
In182 O190 2.266 . S
In182 O191 2.326 1_655 S
In182 O193 2.294 . S
In182 O194 2.326 . S
O183 In182 2.294 . S
O183 C192 1.240 1_556 S
O184 In182 2.326 . S
O184 C192 1.252 1_556 S
C185 O188 1.252 . S
C185 O189 1.260 . S
C186 O193 1.240 . S
C186 O194 1.252 . S
C187 O190 1.252 1_455 S
C187 O191 1.260 . S
O188 In182 2.266 1_455 S
O188 C185 1.252 . S
O189 In182 2.326 1_455 S
O189 C185 1.260 . S
O190 In182 2.266 . S
O190 C187 1.252 1_655 S
O191 In182 2.326 1_455 S
O191 C187 1.260 . S
C192 O183 1.240 1_554 S
C192 O184 1.252 1_554 S
O193 In182 2.294 . S
O193 C186 1.240 . S
O194 In182 2.326 . S
O194 C186 1.252 . S
In195 O196 2.294 . S
In195 O197 2.326 . S
In195 O201 2.266 . S
In195 O202 2.326 . S
In195 O203 2.266 . S
In195 O204 2.326 . S
In195 O206 2.294 . S
In195 O207 2.326 . S
O196 In195 2.294 . S
O196 C205 1.240 . S
O197 In195 2.326 . S
O197 C205 1.252 . S
C198 O201 1.252 . S
C198 O202 1.260 . S
C199 O206 1.240 . S
C199 O207 1.252 . S
C200 O203 1.252 . S
C200 O204 1.260 . S
O201 In195 2.266 . S
O201 C198 1.252 . S
O202 In195 2.326 . S
O202 C198 1.260 . S
O203 In195 2.266 . S
O203 C200 1.252 . S
O204 In195 2.326 . S
O204 C200 1.260 . S
C205 O196 1.240 . S
C205 O197 1.252 . S
O206 In195 2.294 . S
O206 C199 1.240 . S
O207 In195 2.326 . S
O207 C199 1.252 . S
In208 O209 2.294 . S
In208 O210 2.326 . S
In208 O214 2.266 1_655 S
In208 O215 2.326 1_655 S
In208 O216 2.266 . S
In208 O217 2.326 1_655 S
In208 O219 2.294 . S
In208 O220 2.326 . S
O209 In208 2.294 . S
O209 C218 1.240 . S
O210 In208 2.326 . S
O210 C218 1.252 . S
C211 O214 1.252 . S
C211 O215 1.260 . S
C212 O219 1.240 . S
C212 O220 1.252 . S
C213 O216 1.252 1_455 S
C213 O217 1.260 . S
O214 In208 2.266 1_455 S
O214 C211 1.252 . S
O215 In208 2.326 1_455 S
O215 C211 1.260 . S
O216 In208 2.266 . S
O216 C213 1.252 1_655 S
O217 In208 2.326 1_455 S
O217 C213 1.260 . S
C218 O209 1.240 . S
C218 O210 1.252 . S
O219 In208 2.294 . S
O219 C212 1.240 . S
O220 In208 2.326 . S
O220 C212 1.252 . S
In221 O222 2.294 . S
In221 O223 2.326 . S
In221 O227 2.266 . S
In221 O228 2.326 . S
In221 O229 2.266 . S
In221 O230 2.326 . S
In221 O232 2.294 . S
In221 O233 2.326 . S
O222 In221 2.294 . S
O222 C231 1.240 . S
O223 In221 2.326 . S
O223 C231 1.252 . S
C224 O227 1.252 . S
C224 O228 1.260 . S
C225 O232 1.240 . S
C225 O233 1.252 . S
C226 O229 1.252 . S
C226 O230 1.260 . S
O227 In221 2.266 . S
O227 C224 1.252 . S
O228 In221 2.326 . S
O228 C224 1.260 . S
O229 In221 2.266 . S
O229 C226 1.252 . S
O230 In221 2.326 . S
O230 C226 1.260 . S
C231 O222 1.240 . S
C231 O223 1.252 . S
O232 In221 2.294 . S
O232 C225 1.240 . S
O233 In221 2.326 . S
O233 C225 1.252 . S
C234 C235 1.391 . S
C234 C236 1.394 . S
C234 H250 0.931 . S
C235 C234 1.391 . S
C235 C239 1.376 . S
C236 C234 1.394 . S
C236 C237 1.369 . S
C236 C240 1.531 1_556 S
C237 C236 1.369 . S
C237 C238 1.410 . S
C237 C245 1.503 1_556 S
C238 C237 1.410 . S
C238 C239 1.392 . S
C238 C241 1.511 . S
C239 C235 1.376 . S
C239 C238 1.392 . S
C239 H251 0.929 . S
C240 C236 1.531 1_554 S
C240 H252 0.960 . S
C240 H253 0.962 . S
C240 H254 0.960 . S
C241 C238 1.511 . S
C241 H255 0.961 . S
C241 H256 0.961 . S
C241 H257 0.961 . S
C242 C243 1.370 . S
C242 C244 1.363 . S
C242 H258 0.931 . S
C243 C242 1.370 . S
C243 C247 1.408 . S
C244 C242 1.363 . S
C244 C245 1.370 . S
C244 C248 1.524 1_554 S
C245 C237 1.503 1_554 S
C245 C244 1.370 . S
C245 C246 1.403 . S
C246 C245 1.403 . S
C246 C247 1.404 . S
C246 C249 1.539 . S
C247 C243 1.408 . S
C247 C246 1.404 . S
C247 H259 0.930 . S
C248 C244 1.524 1_556 S
C248 H260 0.956 . S
C248 H261 0.961 . S
C248 H262 0.961 . S
C249 C246 1.539 . S
C249 H263 0.958 . S
C249 H264 0.961 . S
C249 H265 0.960 . S
H250 C234 0.931 . S
H251 C239 0.929 . S
H252 C240 0.960 . S
H253 C240 0.962 . S
H254 C240 0.960 . S
H255 C241 0.961 . S
H256 C241 0.961 . S
H257 C241 0.961 . S
H258 C242 0.931 . S
H259 C247 0.930 . S
H260 C248 0.956 . S
H261 C248 0.961 . S
H262 C248 0.961 . S
H263 C249 0.958 . S
H264 C249 0.961 . S
H265 C249 0.960 . S
C266 C267 1.391 . S
C266 C268 1.394 . S
C266 H282 0.931 . S
C267 C266 1.391 . S
C267 C271 1.376 . S
C268 C266 1.394 . S
C268 C269 1.369 . S
C268 C272 1.531 1_556 S
C269 C268 1.369 . S
C269 C270 1.410 . S
C269 C277 1.503 1_556 S
C270 C269 1.410 . S
C270 C271 1.392 . S
C270 C273 1.511 . S
C271 C267 1.376 . S
C271 C270 1.392 . S
C271 H283 0.929 . S
C272 C268 1.531 1_554 S
C272 H284 0.960 . S
C272 H285 0.962 . S
C272 H286 0.960 . S
C273 C270 1.511 . S
C273 H287 0.961 . S
C273 H288 0.961 . S
C273 H289 0.961 . S
C274 C275 1.370 . S
C274 C276 1.363 . S
C274 H290 0.931 . S
C275 C274 1.370 . S
C275 C279 1.408 . S
C276 C274 1.363 . S
C276 C277 1.370 . S
C276 C280 1.524 1_554 S
C277 C269 1.503 1_554 S
C277 C276 1.370 . S
C277 C278 1.403 . S
C278 C277 1.403 . S
C278 C279 1.404 . S
C278 C281 1.539 . S
C279 C275 1.408 . S
C279 C278 1.404 . S
C279 H291 0.930 . S
C280 C276 1.524 1_556 S
C280 H292 0.956 . S
C280 H293 0.961 . S
C280 H294 0.961 . S
C281 C278 1.539 . S
C281 H295 0.958 . S
C281 H296 0.961 . S
C281 H297 0.960 . S
H282 C266 0.931 . S
H283 C271 0.929 . S
H284 C272 0.960 . S
H285 C272 0.962 . S
H286 C272 0.960 . S
H287 C273 0.961 . S
H288 C273 0.961 . S
H289 C273 0.961 . S
H290 C274 0.931 . S
H291 C279 0.930 . S
H292 C280 0.956 . S
H293 C280 0.961 . S
H294 C280 0.961 . S
H295 C281 0.958 . S
H296 C281 0.961 . S
H297 C281 0.960 . S
C298 C299 1.391 . S
C298 C300 1.394 . S
C298 H314 0.931 . S
C299 C298 1.391 . S
C299 C303 1.376 . S
C300 C298 1.394 . S
C300 C301 1.369 . S
C300 C304 1.531 . S
C301 C300 1.369 . S
C301 C302 1.410 . S
C301 C309 1.503 1_554 S
C302 C301 1.410 . S
C302 C303 1.392 . S
C302 C305 1.511 1_554 S
C303 C299 1.376 . S
C303 C302 1.392 . S
C303 H315 0.929 . S
C304 C300 1.531 . S
C304 H316 0.960 . S
C304 H317 0.962 . S
C304 H318 0.960 . S
C305 C302 1.511 1_556 S
C305 H319 0.961 . S
C305 H320 0.961 . S
C305 H321 0.961 . S
C306 C307 1.370 . S
C306 C308 1.363 . S
C306 H322 0.931 . S
C307 C306 1.370 . S
C307 C311 1.408 . S
C308 C306 1.363 . S
C308 C309 1.370 . S
C308 C312 1.524 1_556 S
C309 C301 1.503 1_556 S
C309 C308 1.370 . S
C309 C310 1.403 . S
C310 C309 1.403 . S
C310 C311 1.404 . S
C310 C313 1.539 . S
C311 C307 1.408 . S
C311 C310 1.404 . S
C311 H323 0.930 . S
C312 C308 1.524 1_554 S
C312 H324 0.956 . S
C312 H325 0.961 . S
C312 H326 0.961 1_554 S
C313 C310 1.539 . S
C313 H327 0.958 . S
C313 H328 0.961 . S
C313 H329 0.960 . S
H314 C298 0.931 . S
H315 C303 0.929 . S
H316 C304 0.960 . S
H317 C304 0.962 . S
H318 C304 0.960 . S
H319 C305 0.961 . S
H320 C305 0.961 . S
H321 C305 0.961 . S
H322 C306 0.931 . S
H323 C311 0.930 . S
H324 C312 0.956 . S
H325 C312 0.961 . S
H326 C312 0.961 1_556 S
H327 C313 0.958 . S
H328 C313 0.961 . S
H329 C313 0.960 . S
C330 C331 1.391 . S
C330 C332 1.394 . S
C330 H346 0.931 . S
C331 C330 1.391 . S
C331 C335 1.376 . S
C332 C330 1.394 . S
C332 C333 1.369 . S
C332 C336 1.531 . S
C333 C332 1.369 . S
C333 C334 1.410 . S
C333 C341 1.503 . S
C334 C333 1.410 . S
C334 C335 1.392 . S
C334 C337 1.511 . S
C335 C331 1.376 . S
C335 C334 1.392 . S
C335 H347 0.929 . S
C336 C332 1.531 . S
C336 H348 0.960 . S
C336 H349 0.962 . S
C336 H350 0.960 . S
C337 C334 1.511 . S
C337 H351 0.961 . S
C337 H352 0.961 . S
C337 H353 0.961 . S
C338 C339 1.370 . S
C338 C340 1.363 . S
C338 H354 0.931 . S
C339 C338 1.370 . S
C339 C343 1.408 . S
C340 C338 1.363 . S
C340 C341 1.370 . S
C340 C344 1.524 . S
C341 C333 1.503 . S
C341 C340 1.370 . S
C341 C342 1.403 . S
C342 C341 1.403 . S
C342 C343 1.404 . S
C342 C345 1.539 . S
C343 C339 1.408 . S
C343 C342 1.404 . S
C343 H355 0.930 . S
C344 C340 1.524 . S
C344 H356 0.956 . S
C344 H357 0.961 . S
C344 H358 0.961 . S
C345 C342 1.539 . S
C345 H359 0.958 . S
C345 H360 0.961 . S
C345 H361 0.960 . S
H346 C330 0.931 . S
H347 C335 0.929 . S
H348 C336 0.960 . S
H349 C336 0.962 . S
H350 C336 0.960 . S
H351 C337 0.961 . S
H352 C337 0.961 . S
H353 C337 0.961 . S
H354 C338 0.931 . S
H355 C343 0.930 . S
H356 C344 0.956 . S
H357 C344 0.961 . S
H358 C344 0.961 . S
H359 C345 0.958 . S
H360 C345 0.961 . S
H361 C345 0.960 . S
C362 C363 1.391 . S
C362 C364 1.394 . S
C362 H378 0.931 . S
C363 C362 1.391 . S
C363 C367 1.376 . S
C364 C362 1.394 . S
C364 C365 1.369 . S
C364 C368 1.531 . S
C365 C364 1.369 . S
C365 C366 1.410 . S
C365 C373 1.503 . S
C366 C365 1.410 . S
C366 C367 1.392 . S
C366 C369 1.511 . S
C367 C363 1.376 . S
C367 C366 1.392 . S
C367 H379 0.929 . S
C368 C364 1.531 . S
C368 H380 0.960 . S
C368 H381 0.962 . S
C368 H382 0.960 . S
C369 C366 1.511 . S
C369 H383 0.961 . S
C369 H384 0.961 . S
C369 H385 0.961 . S
C370 C371 1.370 . S
C370 C372 1.363 . S
C370 H386 0.931 . S
C371 C370 1.370 . S
C371 C375 1.408 . S
C372 C370 1.363 . S
C372 C373 1.370 . S
C372 C376 1.524 . S
C373 C365 1.503 . S
C373 C372 1.370 . S
C373 C374 1.403 . S
C374 C373 1.403 . S
C374 C375 1.404 . S
C374 C377 1.539 . S
C375 C371 1.408 . S
C375 C374 1.404 . S
C375 H387 0.930 . S
C376 C372 1.524 . S
C376 H388 0.956 . S
C376 H389 0.961 . S
C376 H390 0.961 . S
C377 C374 1.539 . S
C377 H391 0.958 . S
C377 H392 0.961 . S
C377 H393 0.960 . S
H378 C362 0.931 . S
H379 C367 0.929 . S
H380 C368 0.960 . S
H381 C368 0.962 . S
H382 C368 0.960 . S
H383 C369 0.961 . S
H384 C369 0.961 . S
H385 C369 0.961 . S
H386 C370 0.931 . S
H387 C375 0.930 . S
H388 C376 0.956 . S
H389 C376 0.961 . S
H390 C376 0.961 . S
H391 C377 0.958 . S
H392 C377 0.961 . S
H393 C377 0.960 . S
C394 C395 1.391 . S
C394 C396 1.394 . S
C394 H410 0.931 . S
C395 C394 1.391 . S
C395 C399 1.376 . S
C396 C394 1.394 . S
C396 C397 1.369 . S
C396 C400 1.531 . S
C397 C396 1.369 . S
C397 C398 1.410 . S
C397 C405 1.503 . S
C398 C397 1.410 . S
C398 C399 1.392 . S
C398 C401 1.511 . S
C399 C395 1.376 . S
C399 C398 1.392 . S
C399 H411 0.929 . S
C400 C396 1.531 . S
C400 H412 0.960 . S
C400 H413 0.962 . S
C400 H414 0.960 . S
C401 C398 1.511 . S
C401 H415 0.961 . S
C401 H416 0.961 . S
C401 H417 0.961 . S
C402 C403 1.370 . S
C402 C404 1.363 . S
C402 H418 0.931 . S
C403 C402 1.370 . S
C403 C407 1.408 . S
C404 C402 1.363 . S
C404 C405 1.370 . S
C404 C408 1.524 . S
C405 C397 1.503 . S
C405 C404 1.370 . S
C405 C406 1.403 . S
C406 C405 1.403 . S
C406 C407 1.404 . S
C406 C409 1.539 . S
C407 C403 1.408 . S
C407 C406 1.404 . S
C407 H419 0.930 . S
C408 C404 1.524 . S
C408 H420 0.956 . S
C408 H421 0.961 . S
C408 H422 0.961 . S
C409 C406 1.539 . S
C409 H423 0.958 . S
C409 H424 0.961 . S
C409 H425 0.960 . S
H410 C394 0.931 . S
H411 C399 0.929 . S
H412 C400 0.960 . S
H413 C400 0.962 . S
H414 C400 0.960 . S
H415 C401 0.961 . S
H416 C401 0.961 . S
H417 C401 0.961 . S
H418 C402 0.931 . S
H419 C407 0.930 . S
H420 C408 0.956 . S
H421 C408 0.961 . S
H422 C408 0.961 . S
H423 C409 0.958 . S
H424 C409 0.961 . S
H425 C409 0.960 . S
C426 C427 1.391 . S
C426 C428 1.394 . S
C426 H442 0.931 . S
C427 C426 1.391 . S
C427 C431 1.376 . S
C428 C426 1.394 . S
C428 C429 1.369 . S
C428 C432 1.531 . S
C429 C428 1.369 . S
C429 C430 1.410 . S
C429 C437 1.503 . S
C430 C429 1.410 . S
C430 C431 1.392 . S
C430 C433 1.511 . S
C431 C427 1.376 . S
C431 C430 1.392 . S
C431 H443 0.929 . S
C432 C428 1.531 . S
C432 H444 0.960 . S
C432 H445 0.962 . S
C432 H446 0.960 . S
C433 C430 1.511 . S
C433 H447 0.961 . S
C433 H448 0.961 . S
C433 H449 0.961 . S
C434 C435 1.370 . S
C434 C436 1.363 . S
C434 H450 0.931 . S
C435 C434 1.370 . S
C435 C439 1.408 . S
C436 C434 1.363 . S
C436 C437 1.370 . S
C436 C440 1.524 . S
C437 C429 1.503 . S
C437 C436 1.370 . S
C437 C438 1.403 . S
C438 C437 1.403 . S
C438 C439 1.404 . S
C438 C441 1.539 . S
C439 C435 1.408 . S
C439 C438 1.404 . S
C439 H451 0.930 . S
C440 C436 1.524 . S
C440 H452 0.956 . S
C440 H453 0.961 . S
C440 H454 0.961 . S
C441 C438 1.539 . S
C441 H455 0.958 . S
C441 H456 0.961 . S
C441 H457 0.960 . S
H442 C426 0.931 . S
H443 C431 0.929 . S
H444 C432 0.960 . S
H445 C432 0.962 . S
H446 C432 0.960 . S
H447 C433 0.961 . S
H448 C433 0.961 . S
H449 C433 0.961 . S
H450 C434 0.931 . S
H451 C439 0.930 . S
H452 C440 0.956 . S
H453 C440 0.961 . S
H454 C440 0.961 . S
H455 C441 0.958 . S
H456 C441 0.961 . S
H457 C441 0.960 . S
C458 C459 1.391 . S
C458 C460 1.394 . S
C458 H474 0.931 . S
C459 C458 1.391 . S
C459 C463 1.376 . S
C460 C458 1.394 . S
C460 C461 1.369 . S
C460 C464 1.531 . S
C461 C460 1.369 . S
C461 C462 1.410 . S
C461 C469 1.503 . S
C462 C461 1.410 . S
C462 C463 1.392 . S
C462 C465 1.511 . S
C463 C459 1.376 . S
C463 C462 1.392 . S
C463 H475 0.929 . S
C464 C460 1.531 . S
C464 H476 0.960 . S
C464 H477 0.962 . S
C464 H478 0.960 . S
C465 C462 1.511 . S
C465 H479 0.961 . S
C465 H480 0.961 . S
C465 H481 0.961 . S
C466 C467 1.370 . S
C466 C468 1.363 . S
C466 H482 0.931 . S
C467 C466 1.370 . S
C467 C471 1.408 . S
C468 C466 1.363 . S
C468 C469 1.370 . S
C468 C472 1.524 . S
C469 C461 1.503 . S
C469 C468 1.370 . S
C469 C470 1.403 . S
C470 C469 1.403 . S
C470 C471 1.404 . S
C470 C473 1.539 . S
C471 C467 1.408 . S
C471 C470 1.404 . S
C471 H483 0.930 . S
C472 C468 1.524 . S
C472 H484 0.956 . S
C472 H485 0.961 . S
C472 H486 0.961 . S
C473 C470 1.539 . S
C473 H487 0.958 . S
C473 H488 0.961 . S
C473 H489 0.960 . S
H474 C458 0.931 . S
H475 C463 0.929 . S
H476 C464 0.960 . S
H477 C464 0.962 . S
H478 C464 0.960 . S
H479 C465 0.961 . S
H480 C465 0.961 . S
H481 C465 0.961 . S
H482 C466 0.931 . S
H483 C471 0.930 . S
H484 C472 0.956 . S
H485 C472 0.961 . S
H486 C472 0.961 . S
H487 C473 0.958 . S
H488 C473 0.961 . S
H489 C473 0.960 . S
C490 C491 1.391 . S
C490 C492 1.394 . S
C490 H506 0.931 . S
C491 C490 1.391 . S
C491 C495 1.376 . S
C492 C490 1.394 . S
C492 C493 1.369 . S
C492 C496 1.531 . S
C493 C492 1.369 . S
C493 C494 1.410 . S
C493 C501 1.503 . S
C494 C493 1.410 . S
C494 C495 1.392 . S
C494 C497 1.511 . S
C495 C491 1.376 . S
C495 C494 1.392 . S
C495 H507 0.929 . S
C496 C492 1.531 . S
C496 H508 0.960 . S
C496 H509 0.962 . S
C496 H510 0.960 . S
C497 C494 1.511 . S
C497 H511 0.961 . S
C497 H512 0.961 . S
C497 H513 0.961 . S
C498 C499 1.370 . S
C498 C500 1.363 . S
C498 H514 0.931 . S
C499 C498 1.370 . S
C499 C503 1.408 . S
C500 C498 1.363 . S
C500 C501 1.370 . S
C500 C504 1.524 . S
C501 C493 1.503 . S
C501 C500 1.370 . S
C501 C502 1.403 . S
C502 C501 1.403 . S
C502 C503 1.404 . S
C502 C505 1.539 . S
C503 C499 1.408 . S
C503 C502 1.404 . S
C503 H515 0.930 . S
C504 C500 1.524 . S
C504 H516 0.956 . S
C504 H517 0.961 . S
C504 H518 0.961 . S
C505 C502 1.539 . S
C505 H519 0.958 . S
C505 H520 0.961 . S
C505 H521 0.960 . S
H506 C490 0.931 . S
H507 C495 0.929 . S
H508 C496 0.960 . S
H509 C496 0.962 . S
H510 C496 0.960 . S
H511 C497 0.961 . S
H512 C497 0.961 . S
H513 C497 0.961 . S
H514 C498 0.931 . S
H515 C503 0.930 . S
H516 C504 0.956 . S
H517 C504 0.961 . S
H518 C504 0.961 . S
H519 C505 0.958 . S
H520 C505 0.961 . S
H521 C505 0.960 . S
C522 C523 1.391 . S
C522 C524 1.394 . S
C522 H538 0.931 . S
C523 C522 1.391 . S
C523 C527 1.376 . S
C524 C522 1.394 . S
C524 C525 1.369 . S
C524 C528 1.531 . S
C525 C524 1.369 . S
C525 C526 1.410 . S
C525 C533 1.503 . S
C526 C525 1.410 . S
C526 C527 1.392 . S
C526 C529 1.511 . S
C527 C523 1.376 . S
C527 C526 1.392 . S
C527 H539 0.929 . S
C528 C524 1.531 . S
C528 H540 0.960 . S
C528 H541 0.962 . S
C528 H542 0.960 . S
C529 C526 1.511 . S
C529 H543 0.961 . S
C529 H544 0.961 . S
C529 H545 0.961 . S
C530 C531 1.370 . S
C530 C532 1.363 . S
C530 H546 0.931 . S
C531 C530 1.370 . S
C531 C535 1.408 . S
C532 C530 1.363 . S
C532 C533 1.370 . S
C532 C536 1.524 . S
C533 C525 1.503 . S
C533 C532 1.370 . S
C533 C534 1.403 . S
C534 C533 1.403 . S
C534 C535 1.404 . S
C534 C537 1.539 . S
C535 C531 1.408 . S
C535 C534 1.404 . S
C535 H547 0.930 . S
C536 C532 1.524 . S
C536 H548 0.956 . S
C536 H549 0.961 . S
C536 H550 0.961 . S
C537 C534 1.539 . S
C537 H551 0.958 . S
C537 H552 0.961 . S
C537 H553 0.960 . S
H538 C522 0.931 . S
H539 C527 0.929 . S
H540 C528 0.960 . S
H541 C528 0.962 . S
H542 C528 0.960 . S
H543 C529 0.961 . S
H544 C529 0.961 . S
H545 C529 0.961 . S
H546 C530 0.931 . S
H547 C535 0.930 . S
H548 C536 0.956 . S
H549 C536 0.961 . S
H550 C536 0.961 . S
H551 C537 0.958 . S
H552 C537 0.961 . S
H553 C537 0.960 . S
C554 C555 1.391 . S
C554 C556 1.394 . S
C554 H570 0.931 . S
C555 C554 1.391 . S
C555 C559 1.376 . S
C556 C554 1.394 . S
C556 C557 1.369 . S
C556 C560 1.531 . S
C557 C556 1.369 . S
C557 C558 1.410 . S
C557 C565 1.503 . S
C558 C557 1.410 . S
C558 C559 1.392 . S
C558 C561 1.511 . S
C559 C555 1.376 . S
C559 C558 1.392 . S
C559 H571 0.929 1_556 S
C560 C556 1.531 . S
C560 H572 0.960 . S
C560 H573 0.962 . S
C560 H574 0.960 . S
C561 C558 1.511 . S
C561 H575 0.961 . S
C561 H576 0.961 . S
C561 H577 0.961 . S
C562 C563 1.370 . S
C562 C564 1.363 . S
C562 H578 0.931 . S
C563 C562 1.370 . S
C563 C567 1.408 . S
C564 C562 1.363 . S
C564 C565 1.370 . S
C564 C568 1.524 . S
C565 C557 1.503 . S
C565 C564 1.370 . S
C565 C566 1.403 . S
C566 C565 1.403 . S
C566 C567 1.404 . S
C566 C569 1.539 . S
C567 C563 1.408 . S
C567 C566 1.404 . S
C567 H579 0.930 . S
C568 C564 1.524 . S
C568 H580 0.956 . S
C568 H581 0.961 . S
C568 H582 0.961 . S
C569 C566 1.539 . S
C569 H583 0.958 . S
C569 H584 0.961 . S
C569 H585 0.960 . S
H570 C554 0.931 . S
H571 C559 0.929 1_554 S
H572 C560 0.960 . S
H573 C560 0.962 . S
H574 C560 0.960 . S
H575 C561 0.961 . S
H576 C561 0.961 . S
H577 C561 0.961 . S
H578 C562 0.931 . S
H579 C567 0.930 . S
H580 C568 0.956 . S
H581 C568 0.961 . S
H582 C568 0.961 . S
H583 C569 0.958 . S
H584 C569 0.961 . S
H585 C569 0.960 . S
C586 C587 1.391 . S
C586 C588 1.394 . S
C586 H602 0.931 . S
C587 C586 1.391 . S
C587 C591 1.376 . S
C588 C586 1.394 . S
C588 C589 1.369 . S
C588 C592 1.531 . S
C589 C588 1.369 . S
C589 C590 1.410 . S
C589 C597 1.503 . S
C590 C589 1.410 . S
C590 C591 1.392 . S
C590 C593 1.511 . S
C591 C587 1.376 . S
C591 C590 1.392 . S
C591 H603 0.929 . S
C592 C588 1.531 . S
C592 H604 0.960 . S
C592 H605 0.962 . S
C592 H606 0.960 . S
C593 C590 1.511 . S
C593 H607 0.961 . S
C593 H608 0.961 . S
C593 H609 0.961 . S
C594 C595 1.370 . S
C594 C596 1.363 . S
C594 H610 0.931 . S
C595 C594 1.370 . S
C595 C599 1.408 . S
C596 C594 1.363 . S
C596 C597 1.370 . S
C596 C600 1.524 . S
C597 C589 1.503 . S
C597 C596 1.370 . S
C597 C598 1.403 . S
C598 C597 1.403 . S
C598 C599 1.404 . S
C598 C601 1.539 . S
C599 C595 1.408 . S
C599 C598 1.404 . S
C599 H611 0.930 . S
C600 C596 1.524 . S
C600 H612 0.956 . S
C600 H613 0.961 . S
C600 H614 0.961 . S
C601 C598 1.539 . S
C601 H615 0.958 . S
C601 H616 0.961 . S
C601 H617 0.960 . S
H602 C586 0.931 . S
H603 C591 0.929 . S
H604 C592 0.960 . S
H605 C592 0.962 . S
H606 C592 0.960 . S
H607 C593 0.961 . S
H608 C593 0.961 . S
H609 C593 0.961 . S
H610 C594 0.931 . S
H611 C599 0.930 . S
H612 C600 0.956 . S
H613 C600 0.961 . S
H614 C600 0.961 . S
H615 C601 0.958 . S
H616 C601 0.961 . S
H617 C601 0.960 . S
C618 C619 1.391 . S
C618 C620 1.394 . S
C618 H634 0.931 . S
C619 C618 1.391 . S
C619 C623 1.376 . S
C620 C618 1.394 . S
C620 C621 1.369 . S
C620 C624 1.531 . S
C621 C620 1.369 . S
C621 C622 1.410 . S
C621 C629 1.503 . S
C622 C621 1.410 . S
C622 C623 1.392 . S
C622 C625 1.511 . S
C623 C619 1.376 . S
C623 C622 1.392 . S
C623 H635 0.929 . S
C624 C620 1.531 . S
C624 H636 0.960 . S
C624 H637 0.962 . S
C624 H638 0.960 . S
C625 C622 1.511 . S
C625 H639 0.961 . S
C625 H640 0.961 . S
C625 H641 0.961 . S
C626 C627 1.370 . S
C626 C628 1.363 . S
C626 H642 0.931 . S
C627 C626 1.370 . S
C627 C631 1.408 . S
C628 C626 1.363 . S
C628 C629 1.370 . S
C628 C632 1.524 . S
C629 C621 1.503 . S
C629 C628 1.370 . S
C629 C630 1.403 . S
C630 C629 1.403 . S
C630 C631 1.404 . S
C630 C633 1.539 . S
C631 C627 1.408 . S
C631 C630 1.404 . S
C631 H643 0.930 . S
C632 C628 1.524 . S
C632 H644 0.956 . S
C632 H645 0.961 . S
C632 H646 0.961 . S
C633 C630 1.539 . S
C633 H647 0.958 . S
C633 H648 0.961 . S
C633 H649 0.960 . S
H634 C618 0.931 . S
H635 C623 0.929 . S
H636 C624 0.960 . S
H637 C624 0.962 . S
H638 C624 0.960 . S
H639 C625 0.961 . S
H640 C625 0.961 . S
H641 C625 0.961 . S
H642 C626 0.931 . S
H643 C631 0.930 . S
H644 C632 0.956 . S
H645 C632 0.961 . S
H646 C632 0.961 . S
H647 C633 0.958 . S
H648 C633 0.961 . S
H649 C633 0.960 . S
C650 C651 1.391 . S
C650 C652 1.394 . S
C650 H666 0.931 . S
C651 C650 1.391 . S
C651 C655 1.376 . S
C652 C650 1.394 . S
C652 C653 1.369 . S
C652 C656 1.531 . S
C653 C652 1.369 . S
C653 C654 1.410 . S
C653 C661 1.503 . S
C654 C653 1.410 . S
C654 C655 1.392 . S
C654 C657 1.511 . S
C655 C651 1.376 . S
C655 C654 1.392 . S
C655 H667 0.929 . S
C656 C652 1.531 . S
C656 H668 0.960 . S
C656 H669 0.962 . S
C656 H670 0.960 . S
C657 C654 1.511 . S
C657 H671 0.961 . S
C657 H672 0.961 . S
C657 H673 0.961 . S
C658 C659 1.370 . S
C658 C660 1.363 . S
C658 H674 0.931 . S
C659 C658 1.370 . S
C659 C663 1.408 . S
C660 C658 1.363 . S
C660 C661 1.370 . S
C660 C664 1.524 . S
C661 C653 1.503 . S
C661 C660 1.370 . S
C661 C662 1.403 . S
C662 C661 1.403 . S
C662 C663 1.404 . S
C662 C665 1.539 . S
C663 C659 1.408 . S
C663 C662 1.404 . S
C663 H675 0.930 . S
C664 C660 1.524 . S
C664 H676 0.956 . S
C664 H677 0.961 . S
C664 H678 0.961 . S
C665 C662 1.539 . S
C665 H679 0.958 . S
C665 H680 0.961 . S
C665 H681 0.960 . S
H666 C650 0.931 . S
H667 C655 0.929 . S
H668 C656 0.960 . S
H669 C656 0.962 . S
H670 C656 0.960 . S
H671 C657 0.961 . S
H672 C657 0.961 . S
H673 C657 0.961 . S
H674 C658 0.931 . S
H675 C663 0.930 . S
H676 C664 0.956 . S
H677 C664 0.961 . S
H678 C664 0.961 . S
H679 C665 0.958 . S
H680 C665 0.961 . S
H681 C665 0.960 . S
C682 C683 1.391 . S
C682 C684 1.394 . S
C682 H698 0.931 . S
C683 C682 1.391 . S
C683 C687 1.376 . S
C684 C682 1.394 . S
C684 C685 1.369 . S
C684 C688 1.531 . S
C685 C684 1.369 . S
C685 C686 1.410 . S
C685 C693 1.503 . S
C686 C685 1.410 . S
C686 C687 1.392 . S
C686 C689 1.511 . S
C687 C683 1.376 . S
C687 C686 1.392 . S
C687 H699 0.929 . S
C688 C684 1.531 . S
C688 H700 0.960 . S
C688 H701 0.962 . S
C688 H702 0.960 . S
C689 C686 1.511 . S
C689 H703 0.961 . S
C689 H704 0.961 . S
C689 H705 0.961 . S
C690 C691 1.370 . S
C690 C692 1.363 . S
C690 H706 0.931 . S
C691 C690 1.370 . S
C691 C695 1.408 . S
C692 C690 1.363 . S
C692 C693 1.370 . S
C692 C696 1.524 . S
C693 C685 1.503 . S
C693 C692 1.370 . S
C693 C694 1.403 . S
C694 C693 1.403 . S
C694 C695 1.404 . S
C694 C697 1.539 . S
C695 C691 1.408 . S
C695 C694 1.404 . S
C695 H707 0.930 . S
C696 C692 1.524 . S
C696 H708 0.956 . S
C696 H709 0.961 . S
C696 H710 0.961 . S
C697 C694 1.539 . S
C697 H711 0.958 . S
C697 H712 0.961 . S
C697 H713 0.960 . S
H698 C682 0.931 . S
H699 C687 0.929 . S
H700 C688 0.960 . S
H701 C688 0.962 . S
H702 C688 0.960 . S
H703 C689 0.961 . S
H704 C689 0.961 . S
H705 C689 0.961 . S
H706 C690 0.931 . S
H707 C695 0.930 . S
H708 C696 0.956 . S
H709 C696 0.961 . S
H710 C696 0.961 . S
H711 C697 0.958 . S
H712 C697 0.961 . S
H713 C697 0.960 . S
C714 C715 1.391 . S
C714 C716 1.394 . S
C714 H730 0.931 . S
C715 C714 1.391 . S
C715 C719 1.376 . S
C716 C714 1.394 . S
C716 C717 1.369 . S
C716 C720 1.531 . S
C717 C716 1.369 . S
C717 C718 1.410 . S
C717 C725 1.503 . S
C718 C717 1.410 . S
C718 C719 1.392 . S
C718 C721 1.511 . S
C719 C715 1.376 . S
C719 C718 1.392 . S
C719 H731 0.929 . S
C720 C716 1.531 . S
C720 H732 0.960 . S
C720 H733 0.962 . S
C720 H734 0.960 . S
C721 C718 1.511 . S
C721 H735 0.961 . S
C721 H736 0.961 . S
C721 H737 0.961 . S
C722 C723 1.370 . S
C722 C724 1.363 . S
C722 H738 0.931 . S
C723 C722 1.370 . S
C723 C727 1.408 . S
C724 C722 1.363 . S
C724 C725 1.370 . S
C724 C728 1.524 . S
C725 C717 1.503 . S
C725 C724 1.370 . S
C725 C726 1.403 . S
C726 C725 1.403 . S
C726 C727 1.404 . S
C726 C729 1.539 . S
C727 C723 1.408 . S
C727 C726 1.404 . S
C727 H739 0.930 . S
C728 C724 1.524 . S
C728 H740 0.956 . S
C728 H741 0.961 . S
C728 H742 0.961 . S
C729 C726 1.539 . S
C729 H743 0.958 . S
C729 H744 0.961 . S
C729 H745 0.960 . S
H730 C714 0.931 . S
H731 C719 0.929 . S
H732 C720 0.960 . S
H733 C720 0.962 . S
H734 C720 0.960 . S
H735 C721 0.961 . S
H736 C721 0.961 . S
H737 C721 0.961 . S
H738 C722 0.931 . S
H739 C727 0.930 . S
H740 C728 0.956 . S
H741 C728 0.961 . S
H742 C728 0.961 . S
H743 C729 0.958 . S
H744 C729 0.961 . S
H745 C729 0.960 . S
C746 C747 1.391 . S
C746 C748 1.394 . S
C746 H762 0.931 . S
C747 C746 1.391 . S
C747 C751 1.376 . S
C748 C746 1.394 . S
C748 C749 1.369 . S
C748 C752 1.531 . S
C749 C748 1.369 . S
C749 C750 1.410 . S
C749 C757 1.503 . S
C750 C749 1.410 . S
C750 C751 1.392 . S
C750 C753 1.511 . S
C751 C747 1.376 . S
C751 C750 1.392 . S
C751 H763 0.929 . S
C752 C748 1.531 . S
C752 H764 0.960 . S
C752 H765 0.962 . S
C752 H766 0.960 . S
C753 C750 1.511 . S
C753 H767 0.961 . S
C753 H768 0.961 . S
C753 H769 0.961 . S
C754 C755 1.370 . S
C754 C756 1.363 . S
C754 H770 0.931 . S
C755 C754 1.370 . S
C755 C759 1.408 . S
C756 C754 1.363 . S
C756 C757 1.370 . S
C756 C760 1.524 . S
C757 C749 1.503 . S
C757 C756 1.370 . S
C757 C758 1.403 . S
C758 C757 1.403 . S
C758 C759 1.404 . S
C758 C761 1.539 . S
C759 C755 1.408 . S
C759 C758 1.404 . S
C759 H771 0.930 1_554 S
C760 C756 1.524 . S
C760 H772 0.956 . S
C760 H773 0.961 . S
C760 H774 0.961 . S
C761 C758 1.539 . S
C761 H775 0.958 . S
C761 H776 0.961 . S
C761 H777 0.960 . S
H762 C746 0.931 . S
H763 C751 0.929 . S
H764 C752 0.960 . S
H765 C752 0.962 . S
H766 C752 0.960 . S
H767 C753 0.961 . S
H768 C753 0.961 . S
H769 C753 0.961 . S
H770 C754 0.931 . S
H771 C759 0.930 1_556 S
H772 C760 0.956 . S
H773 C760 0.961 . S
H774 C760 0.961 . S
H775 C761 0.958 . S
H776 C761 0.961 . S
H777 C761 0.960 . S
C778 C779 1.391 . S
C778 C780 1.394 . S
C778 H794 0.931 . S
C779 C778 1.391 . S
C779 C783 1.376 . S
C780 C778 1.394 . S
C780 C781 1.369 . S
C780 C784 1.531 . S
C781 C780 1.369 . S
C781 C782 1.410 . S
C781 C789 1.503 . S
C782 C781 1.410 . S
C782 C783 1.392 . S
C782 C785 1.511 . S
C783 C779 1.376 . S
C783 C782 1.392 . S
C783 H795 0.929 . S
C784 C780 1.531 . S
C784 H796 0.960 . S
C784 H797 0.962 . S
C784 H798 0.960 . S
C785 C782 1.511 . S
C785 H799 0.961 . S
C785 H800 0.961 . S
C785 H801 0.961 . S
C786 C787 1.370 . S
C786 C788 1.363 . S
C786 H802 0.931 1_554 S
C787 C786 1.370 . S
C787 C791 1.408 . S
C788 C786 1.363 . S
C788 C789 1.370 . S
C788 C792 1.524 . S
C789 C781 1.503 . S
C789 C788 1.370 . S
C789 C790 1.403 . S
C790 C789 1.403 . S
C790 C791 1.404 . S
C790 C793 1.539 . S
C791 C787 1.408 . S
C791 C790 1.404 . S
C791 H803 0.930 . S
C792 C788 1.524 . S
C792 H804 0.956 . S
C792 H805 0.961 . S
C792 H806 0.961 . S
C793 C790 1.539 . S
C793 H807 0.958 . S
C793 H808 0.961 . S
C793 H809 0.960 . S
H794 C778 0.931 . S
H795 C783 0.929 . S
H796 C784 0.960 . S
H797 C784 0.962 . S
H798 C784 0.960 . S
H799 C785 0.961 . S
H800 C785 0.961 . S
H801 C785 0.961 . S
H802 C786 0.931 1_556 S
H803 C791 0.930 . S
H804 C792 0.956 . S
H805 C792 0.961 . S
H806 C792 0.961 . S
H807 C793 0.958 . S
H808 C793 0.961 . S
H809 C793 0.960 . S
C810 C811 1.391 . S
C810 C812 1.394 . S
C810 H826 0.931 . S
C811 C810 1.391 . S
C811 C815 1.376 . S
C812 C810 1.394 . S
C812 C813 1.369 . S
C812 C816 1.531 . S
C813 C812 1.369 . S
C813 C814 1.410 . S
C813 C821 1.503 . S
C814 C813 1.410 . S
C814 C815 1.392 . S
C814 C817 1.511 . S
C815 C811 1.376 . S
C815 C814 1.392 . S
C815 H827 0.929 . S
C816 C812 1.531 . S
C816 H828 0.960 . S
C816 H829 0.962 . S
C816 H830 0.960 . S
C817 C814 1.511 . S
C817 H831 0.961 . S
C817 H832 0.961 . S
C817 H833 0.961 . S
C818 C819 1.370 . S
C818 C820 1.363 . S
C818 H834 0.931 . S
C819 C818 1.370 . S
C819 C823 1.408 . S
C820 C818 1.363 . S
C820 C821 1.370 . S
C820 C824 1.524 . S
C821 C813 1.503 . S
C821 C820 1.370 . S
C821 C822 1.403 . S
C822 C821 1.403 . S
C822 C823 1.404 . S
C822 C825 1.539 . S
C823 C819 1.408 . S
C823 C822 1.404 . S
C823 H835 0.930 . S
C824 C820 1.524 . S
C824 H836 0.956 . S
C824 H837 0.961 . S
C824 H838 0.961 . S
C825 C822 1.539 . S
C825 H839 0.958 . S
C825 H840 0.961 . S
C825 H841 0.960 . S
H826 C810 0.931 . S
H827 C815 0.929 . S
H828 C816 0.960 . S
H829 C816 0.962 . S
H830 C816 0.960 . S
H831 C817 0.961 . S
H832 C817 0.961 . S
H833 C817 0.961 . S
H834 C818 0.931 . S
H835 C823 0.930 . S
H836 C824 0.956 . S
H837 C824 0.961 . S
H838 C824 0.961 . S
H839 C825 0.958 . S
H840 C825 0.961 . S
H841 C825 0.960 . S
C842 C843 1.391 . S
C842 C844 1.394 . S
C842 H858 0.931 . S
C843 C842 1.391 . S
C843 C847 1.376 . S
C844 C842 1.394 . S
C844 C845 1.369 . S
C844 C848 1.531 . S
C845 C844 1.369 . S
C845 C846 1.410 . S
C845 C853 1.503 . S
C846 C845 1.410 . S
C846 C847 1.392 . S
C846 C849 1.511 . S
C847 C843 1.376 . S
C847 C846 1.392 . S
C847 H859 0.929 . S
C848 C844 1.531 . S
C848 H860 0.960 . S
C848 H861 0.962 . S
C848 H862 0.960 . S
C849 C846 1.511 . S
C849 H863 0.961 . S
C849 H864 0.961 . S
C849 H865 0.961 . S
C850 C851 1.370 . S
C850 C852 1.363 . S
C850 H866 0.931 . S
C851 C850 1.370 . S
C851 C855 1.408 . S
C852 C850 1.363 . S
C852 C853 1.370 . S
C852 C856 1.524 . S
C853 C845 1.503 . S
C853 C852 1.370 . S
C853 C854 1.403 . S
C854 C853 1.403 . S
C854 C855 1.404 . S
C854 C857 1.539 . S
C855 C851 1.408 . S
C855 C854 1.404 . S
C855 H867 0.930 . S
C856 C852 1.524 . S
C856 H868 0.956 . S
C856 H869 0.961 . S
C856 H870 0.961 . S
C857 C854 1.539 . S
C857 H871 0.958 . S
C857 H872 0.961 . S
C857 H873 0.960 . S
H858 C842 0.931 . S
H859 C847 0.929 . S
H860 C848 0.960 . S
H861 C848 0.962 . S
H862 C848 0.960 . S
H863 C849 0.961 . S
H864 C849 0.961 . S
H865 C849 0.961 . S
H866 C850 0.931 . S
H867 C855 0.930 . S
H868 C856 0.956 . S
H869 C856 0.961 . S
H870 C856 0.961 . S
H871 C857 0.958 . S
H872 C857 0.961 . S
H873 C857 0.960 . S
C874 C875 1.391 . S
C874 C876 1.394 . S
C874 H890 0.931 . S
C875 C874 1.391 . S
C875 C879 1.376 . S
C876 C874 1.394 . S
C876 C877 1.369 . S
C876 C880 1.531 . S
C877 C876 1.369 . S
C877 C878 1.410 . S
C877 C885 1.503 . S
C878 C877 1.410 . S
C878 C879 1.392 . S
C878 C881 1.511 . S
C879 C875 1.376 . S
C879 C878 1.392 . S
C879 H891 0.929 . S
C880 C876 1.531 . S
C880 H892 0.960 . S
C880 H893 0.962 . S
C880 H894 0.960 . S
C881 C878 1.511 . S
C881 H895 0.961 . S
C881 H896 0.961 . S
C881 H897 0.961 . S
C882 C883 1.370 . S
C882 C884 1.363 . S
C882 H898 0.931 . S
C883 C882 1.370 . S
C883 C887 1.408 . S
C884 C882 1.363 . S
C884 C885 1.370 . S
C884 C888 1.524 . S
C885 C877 1.503 . S
C885 C884 1.370 . S
C885 C886 1.403 . S
C886 C885 1.403 . S
C886 C887 1.404 . S
C886 C889 1.539 . S
C887 C883 1.408 . S
C887 C886 1.404 . S
C887 H899 0.930 . S
C888 C884 1.524 . S
C888 H900 0.956 . S
C888 H901 0.961 . S
C888 H902 0.963 . S
C889 C886 1.539 . S
C889 H903 0.958 . S
C889 H904 0.961 . S
C889 H905 0.960 . S
H890 C874 0.931 . S
H891 C879 0.929 . S
H892 C880 0.960 . S
H893 C880 0.962 . S
H894 C880 0.960 . S
H895 C881 0.961 . S
H896 C881 0.961 . S
H897 C881 0.961 . S
H898 C882 0.931 . S
H899 C887 0.930 . S
H900 C888 0.956 . S
H901 C888 0.961 . S
H902 C888 0.963 . S
H903 C889 0.958 . S
H904 C889 0.961 . S
H905 C889 0.960 . S
C906 C907 1.391 . S
C906 C908 1.394 . S
C906 H922 0.931 . S
C907 C906 1.391 . S
C907 C911 1.376 . S
C908 C906 1.394 . S
C908 C909 1.369 . S
C908 C912 1.531 1_554 S
C909 C908 1.369 . S
C909 C910 1.410 . S
C909 C917 1.503 . S
C910 C909 1.410 . S
C910 C911 1.392 . S
C910 C913 1.511 . S
C911 C907 1.376 . S
C911 C910 1.392 . S
C911 H923 0.929 . S
C912 C908 1.531 1_556 S
C912 H924 0.960 . S
C912 H925 0.962 . S
C912 H926 0.960 . S
C913 C910 1.511 . S
C913 H927 0.961 . S
C913 H928 0.961 . S
C913 H929 0.961 . S
C914 C915 1.370 1_554 S
C914 C916 1.363 . S
C914 H930 0.931 1_554 S
C915 C914 1.370 1_556 S
C915 C919 1.408 1_556 S
C916 C914 1.363 . S
C916 C917 1.370 . S
C916 C920 1.524 . S
C917 C909 1.503 . S
C917 C916 1.370 . S
C917 C918 1.403 . S
C918 C917 1.403 . S
C918 C919 1.404 . S
C918 C921 1.539 . S
C919 C915 1.408 1_554 S
C919 C918 1.404 . S
C919 H931 0.930 . S
C920 C916 1.524 . S
C920 H932 0.956 . S
C920 H933 0.961 . S
C920 H934 0.961 . S
C921 C918 1.539 . S
C921 H935 0.958 . S
C921 H936 0.961 . S
C921 H937 0.960 . S
H922 C906 0.931 . S
H923 C911 0.929 . S
H924 C912 0.960 . S
H925 C912 0.962 . S
H926 C912 0.960 . S
H927 C913 0.961 . S
H928 C913 0.961 . S
H929 C913 0.961 . S
H930 C914 0.931 1_556 S
H931 C919 0.930 . S
H932 C920 0.956 . S
H933 C920 0.961 . S
H934 C920 0.961 . S
H935 C921 0.958 . S
H936 C921 0.961 . S
H937 C921 0.960 . S
C938 C939 1.383 1_654 S
C938 C940 1.365 1_655 S
C938 H954 0.967 . S
C939 C938 1.383 1_456 S
C939 C943 1.376 . S
C940 C938 1.365 1_455 S
C940 C941 1.369 . S
C940 C944 1.531 1_455 S
C941 C940 1.369 . S
C941 C942 1.410 . S
C941 C949 1.503 . S
C942 C941 1.410 . S
C942 C943 1.392 1_554 S
C942 C945 1.511 1_554 S
C943 C939 1.376 . S
C943 C942 1.392 1_556 S
C943 H955 0.929 . S
C944 C940 1.531 1_655 S
C944 H956 0.952 1_655 S
C944 H957 0.962 . S
C944 H958 0.960 . S
C945 C942 1.511 1_556 S
C945 H959 0.961 . S
C945 H960 0.961 1_556 S
C945 H961 0.961 . S
C946 C947 1.370 . S
C946 C948 1.363 . S
C946 H962 0.931 . S
C947 C946 1.370 . S
C947 C951 1.408 . S
C948 C946 1.363 . S
C948 C949 1.370 . S
C948 C952 1.524 . S
C949 C941 1.503 . S
C949 C948 1.370 . S
C949 C950 1.403 . S
C950 C949 1.403 . S
C950 C951 1.404 . S
C950 C953 1.539 . S
C951 C947 1.408 . S
C951 C950 1.404 . S
C951 H963 0.930 . S
C952 C948 1.524 . S
C952 H964 0.956 . S
C952 H965 0.961 . S
C952 H966 0.961 . S
C953 C950 1.539 . S
C953 H967 0.958 . S
C953 H968 0.961 1_554 S
C953 H969 0.960 1_554 S
H954 C938 0.967 . S
H955 C943 0.929 . S
H956 C944 0.952 1_455 S
H957 C944 0.962 . S
H958 C944 0.960 . S
H959 C945 0.961 . S
H960 C945 0.961 1_554 S
H961 C945 0.961 . S
H962 C946 0.931 . S
H963 C951 0.930 . S
H964 C952 0.956 . S
H965 C952 0.961 . S
H966 C952 0.961 . S
H967 C953 0.958 . S
H968 C953 0.961 1_556 S
H969 C953 0.960 1_556 S
C970 C971 1.391 . S
C970 C972 1.394 . S
C970 H986 0.931 . S
C971 C970 1.391 . S
C971 C975 1.376 1_554 S
C972 C970 1.394 . S
C972 C973 1.369 . S
C972 C976 1.531 . S
C973 C972 1.369 . S
C973 C974 1.410 . S
C973 C981 1.503 . S
C974 C973 1.410 . S
C974 C975 1.387 1_554 S
C974 C977 1.511 . S
C975 C971 1.376 1_556 S
C975 C974 1.387 1_556 S
C975 H987 0.934 . S
C976 C972 1.531 . S
C976 H988 0.960 . S
C976 H989 0.962 . S
C976 H990 0.960 . S
C977 C974 1.511 . S
C977 H991 0.961 1_554 S
C977 H992 0.961 . S
C977 H993 0.961 . S
C978 C979 1.370 . S
C978 C980 1.363 . S
C978 H994 0.931 . S
C979 C978 1.370 . S
C979 C983 1.408 . S
C980 C978 1.363 . S
C980 C981 1.370 . S
C980 C984 1.524 . S
C981 C973 1.503 . S
C981 C980 1.370 . S
C981 C982 1.403 . S
C982 C981 1.403 . S
C982 C983 1.404 . S
C982 C985 1.539 . S
C983 C979 1.408 . S
C983 C982 1.404 . S
C983 H995 0.930 . S
C984 C980 1.524 . S
C984 H996 0.956 . S
C984 H997 0.961 1_554 S
C984 H998 0.961 1_554 S
C985 C982 1.539 . S
C985 H999 0.958 . S
C985 H1000 0.961 . S
C985 H1001 0.960 . S
H986 C970 0.931 . S
H987 C975 0.934 . S
H988 C976 0.960 . S
H989 C976 0.962 . S
H990 C976 0.960 . S
H991 C977 0.961 1_556 S
H992 C977 0.961 . S
H993 C977 0.961 . S
H994 C978 0.931 . S
H995 C983 0.930 . S
H996 C984 0.956 . S
H997 C984 0.961 1_556 S
H998 C984 0.961 1_556 S
H999 C985 0.958 . S
H1000 C985 0.961 . S
H1001 C985 0.960 . S
C1002 C1003 1.331 1_655 S
C1002 C1004 1.395 1_655 S
C1002 H1018 0.991 . S
C1003 C1002 1.331 1_455 S
C1003 C1007 1.376 . S
C1004 C1002 1.395 1_455 S
C1004 C1005 1.369 . S
C1004 C1008 1.531 1_455 S
C1005 C1004 1.369 . S
C1005 C1006 1.410 . S
C1005 C1013 1.503 . S
C1006 C1005 1.410 . S
C1006 C1007 1.392 . S
C1006 C1009 1.511 . S
C1007 C1003 1.376 . S
C1007 C1006 1.392 . S
C1007 H1019 0.929 . S
C1008 C1004 1.531 1_655 S
C1008 H1020 0.958 1_655 S
C1008 H1021 0.962 . S
C1008 H1022 0.960 . S
C1009 C1006 1.511 . S
C1009 H1023 0.961 . S
C1009 H1024 0.961 . S
C1009 H1025 0.961 . S
C1010 C1011 1.370 . S
C1010 C1012 1.363 . S
C1010 H1026 0.931 . S
C1011 C1010 1.370 . S
C1011 C1015 1.408 . S
C1012 C1010 1.363 . S
C1012 C1013 1.370 . S
C1012 C1016 1.524 . S
C1013 C1005 1.503 . S
C1013 C1012 1.370 . S
C1013 C1014 1.403 . S
C1014 C1013 1.403 . S
C1014 C1015 1.404 . S
C1014 C1017 1.539 . S
C1015 C1011 1.408 . S
C1015 C1014 1.404 . S
C1015 H1027 0.930 . S
C1016 C1012 1.524 . S
C1016 H1028 0.956 . S
C1016 H1029 0.961 . S
C1016 H1030 0.961 . S
C1017 C1014 1.539 . S
C1017 H1031 0.958 . S
C1017 H1032 0.961 . S
C1017 H1033 0.960 . S
H1018 C1002 0.991 . S
H1019 C1007 0.929 . S
H1020 C1008 0.958 1_455 S
H1021 C1008 0.962 . S
H1022 C1008 0.960 . S
H1023 C1009 0.961 . S
H1024 C1009 0.961 . S
H1025 C1009 0.961 . S
H1026 C1010 0.931 . S
H1027 C1015 0.930 . S
H1028 C1016 0.956 . S
H1029 C1016 0.961 . S
H1030 C1016 0.961 . S
H1031 C1017 0.958 . S
H1032 C1017 0.961 . S
H1033 C1017 0.960 . S
C1034 C1035 1.391 . S
C1034 C1036 1.394 . S
C1034 H1050 0.931 . S
C1035 C1034 1.391 . S
C1035 C1039 1.376 . S
C1036 C1034 1.394 . S
C1036 C1037 1.369 . S
C1036 C1040 1.531 . S
C1037 C1036 1.369 . S
C1037 C1038 1.410 . S
C1037 C1045 1.503 . S
C1038 C1037 1.410 . S
C1038 C1039 1.392 . S
C1038 C1041 1.511 . S
C1039 C1035 1.376 . S
C1039 C1038 1.392 . S
C1039 H1051 0.929 . S
C1040 C1036 1.531 . S
C1040 H1052 0.960 . S
C1040 H1053 0.962 . S
C1040 H1054 0.960 . S
C1041 C1038 1.511 . S
C1041 H1055 0.961 . S
C1041 H1056 0.961 . S
C1041 H1057 0.961 . S
C1042 C1043 1.370 . S
C1042 C1044 1.363 . S
C1042 H1058 0.931 . S
C1043 C1042 1.370 . S
C1043 C1047 1.408 . S
C1044 C1042 1.363 . S
C1044 C1045 1.370 . S
C1044 C1048 1.524 . S
C1045 C1037 1.503 . S
C1045 C1044 1.370 . S
C1045 C1046 1.403 . S
C1046 C1045 1.403 . S
C1046 C1047 1.404 . S
C1046 C1049 1.539 . S
C1047 C1043 1.408 . S
C1047 C1046 1.404 . S
C1047 H1059 0.930 . S
C1048 C1044 1.524 . S
C1048 H1060 0.956 . S
C1048 H1061 0.961 . S
C1048 H1062 0.961 . S
C1049 C1046 1.539 . S
C1049 H1063 0.958 . S
C1049 H1064 0.961 . S
C1049 H1065 0.960 . S
H1050 C1034 0.931 . S
H1051 C1039 0.929 . S
H1052 C1040 0.960 . S
H1053 C1040 0.962 . S
H1054 C1040 0.960 . S
H1055 C1041 0.961 . S
H1056 C1041 0.961 . S
H1057 C1041 0.961 . S
H1058 C1042 0.931 . S
H1059 C1047 0.930 . S
H1060 C1048 0.956 . S
H1061 C1048 0.961 . S
H1062 C1048 0.961 . S
H1063 C1049 0.958 . S
H1064 C1049 0.961 . S
H1065 C1049 0.960 . S
C1066 C1067 1.391 . S
C1066 C1068 1.394 . S
C1066 H1082 0.931 . S
C1067 C1066 1.391 . S
C1067 C1071 1.376 . S
C1068 C1066 1.394 . S
C1068 C1069 1.369 . S
C1068 C1072 1.531 . S
C1069 C1068 1.369 . S
C1069 C1070 1.410 . S
C1069 C1077 1.503 . S
C1070 C1069 1.410 . S
C1070 C1071 1.392 . S
C1070 C1073 1.511 . S
C1071 C1067 1.376 . S
C1071 C1070 1.392 . S
C1071 H1083 0.929 . S
C1072 C1068 1.531 . S
C1072 H1084 0.960 . S
C1072 H1085 0.962 . S
C1072 H1086 0.960 . S
C1073 C1070 1.511 . S
C1073 H1087 0.961 . S
C1073 H1088 0.961 . S
C1073 H1089 0.961 . S
C1074 C1075 1.370 . S
C1074 C1076 1.363 . S
C1074 H1090 0.931 . S
C1075 C1074 1.370 . S
C1075 C1079 1.408 . S
C1076 C1074 1.363 . S
C1076 C1077 1.370 . S
C1076 C1080 1.524 . S
C1077 C1069 1.503 . S
C1077 C1076 1.370 . S
C1077 C1078 1.403 . S
C1078 C1077 1.403 . S
C1078 C1079 1.404 . S
C1078 C1081 1.539 . S
C1079 C1075 1.408 . S
C1079 C1078 1.404 . S
C1079 H1091 0.930 . S
C1080 C1076 1.524 . S
C1080 H1092 0.956 . S
C1080 H1093 0.961 . S
C1080 H1094 0.961 . S
C1081 C1078 1.539 . S
C1081 H1095 0.958 . S
C1081 H1096 0.961 . S
C1081 H1097 0.960 . S
H1082 C1066 0.931 . S
H1083 C1071 0.929 . S
H1084 C1072 0.960 . S
H1085 C1072 0.962 . S
H1086 C1072 0.960 . S
H1087 C1073 0.961 . S
H1088 C1073 0.961 . S
H1089 C1073 0.961 . S
H1090 C1074 0.931 . S
H1091 C1079 0.930 . S
H1092 C1080 0.956 . S
H1093 C1080 0.961 . S
H1094 C1080 0.961 . S
H1095 C1081 0.958 . S
H1096 C1081 0.961 . S
H1097 C1081 0.960 . S
C1098 C1099 1.391 1_556 S
C1098 C1100 1.394 . S
C1098 H1114 0.931 . S
C1099 C1098 1.391 1_554 S
C1099 C1103 1.376 . S
C1100 C1098 1.394 . S
C1100 C1101 1.369 . S
C1100 C1104 1.531 . S
C1101 C1100 1.369 . S
C1101 C1102 1.418 . S
C1101 C1109 1.503 . S
C1102 C1101 1.418 . S
C1102 C1103 1.388 1_556 S
C1102 C1105 1.508 1_556 S
C1103 C1099 1.376 . S
C1103 C1102 1.388 1_554 S
C1103 H1115 0.929 . S
C1104 C1100 1.531 . S
C1104 H1116 0.960 . S
C1104 H1117 0.962 . S
C1104 H1118 0.960 . S
C1105 C1102 1.508 1_554 S
C1105 H1119 0.961 . S
C1105 H1120 0.961 1_554 S
C1105 H1121 0.961 . S
C1106 C1107 1.370 . S
C1106 C1108 1.363 . S
C1106 H1122 0.931 . S
C1107 C1106 1.370 . S
C1107 C1111 1.408 . S
C1108 C1106 1.363 . S
C1108 C1109 1.370 . S
C1108 C1112 1.524 . S
C1109 C1101 1.503 . S
C1109 C1108 1.370 . S
C1109 C1110 1.403 . S
C1110 C1109 1.403 . S
C1110 C1111 1.404 . S
C1110 C1113 1.539 . S
C1111 C1107 1.408 . S
C1111 C1110 1.404 . S
C1111 H1123 0.930 . S
C1112 C1108 1.524 . S
C1112 H1124 0.956 . S
C1112 H1125 0.961 . S
C1112 H1126 0.961 . S
C1113 C1110 1.539 . S
C1113 H1127 0.958 . S
C1113 H1128 0.961 . S
C1113 H1129 0.960 1_556 S
H1114 C1098 0.931 . S
H1115 C1103 0.929 . S
H1116 C1104 0.960 . S
H1117 C1104 0.962 . S
H1118 C1104 0.960 . S
H1119 C1105 0.961 . S
H1120 C1105 0.961 1_556 S
H1121 C1105 0.961 . S
H1122 C1106 0.931 . S
H1123 C1111 0.930 . S
H1124 C1112 0.956 . S
H1125 C1112 0.961 . S
H1126 C1112 0.961 . S
H1127 C1113 0.958 . S
H1128 C1113 0.961 . S
H1129 C1113 0.960 1_554 S
C1130 C1131 1.391 . S
C1130 C1132 1.394 . S
C1130 H1146 0.931 . S
C1131 C1130 1.391 . S
C1131 C1135 1.376 . S
C1132 C1130 1.394 . S
C1132 C1133 1.369 . S
C1132 C1136 1.531 . S
C1133 C1132 1.369 . S
C1133 C1134 1.410 . S
C1133 C1141 1.503 . S
C1134 C1133 1.410 . S
C1134 C1135 1.392 . S
C1134 C1137 1.511 . S
C1135 C1131 1.376 . S
C1135 C1134 1.392 . S
C1135 H1147 0.929 . S
C1136 C1132 1.531 . S
C1136 H1148 0.960 . S
C1136 H1149 0.962 . S
C1136 H1150 0.960 . S
C1137 C1134 1.511 . S
C1137 H1151 0.961 . S
C1137 H1152 0.961 . S
C1137 H1153 0.961 . S
C1138 C1139 1.373 . S
C1138 C1140 1.363 1_554 S
C1138 H1154 0.931 . S
C1139 C1138 1.373 . S
C1139 C1143 1.401 1_554 S
C1140 C1138 1.363 1_556 S
C1140 C1141 1.370 . S
C1140 C1144 1.524 1_556 S
C1141 C1133 1.503 . S
C1141 C1140 1.370 . S
C1141 C1142 1.403 . S
C1142 C1141 1.403 . S
C1142 C1143 1.404 . S
C1142 C1145 1.539 . S
C1143 C1139 1.401 1_556 S
C1143 C1142 1.404 . S
C1143 H1155 0.930 . S
C1144 C1140 1.524 1_554 S
C1144 H1156 0.956 . S
C1144 H1157 0.961 1_554 S
C1144 H1158 0.961 . S
C1145 C1142 1.539 . S
C1145 H1159 0.958 . S
C1145 H1160 0.961 . S
C1145 H1161 0.960 . S
H1146 C1130 0.931 . S
H1147 C1135 0.929 . S
H1148 C1136 0.960 . S
H1149 C1136 0.962 . S
H1150 C1136 0.960 . S
H1151 C1137 0.961 . S
H1152 C1137 0.961 . S
H1153 C1137 0.961 . S
H1154 C1138 0.931 . S
H1155 C1143 0.930 . S
H1156 C1144 0.956 . S
H1157 C1144 0.961 1_556 S
H1158 C1144 0.961 . S
H1159 C1145 0.958 . S
H1160 C1145 0.961 . S
H1161 C1145 0.960 . S
C1162 C1163 1.391 . S
C1162 C1164 1.394 . S
C1162 H1178 0.931 . S
C1163 C1162 1.391 . S
C1163 C1167 1.376 . S
C1164 C1162 1.394 . S
C1164 C1165 1.369 . S
C1164 C1168 1.531 . S
C1165 C1164 1.369 . S
C1165 C1166 1.410 . S
C1165 C1173 1.503 . S
C1166 C1165 1.410 . S
C1166 C1167 1.392 . S
C1166 C1169 1.511 . S
C1167 C1163 1.376 . S
C1167 C1166 1.392 . S
C1167 H1179 0.929 . S
C1168 C1164 1.531 . S
C1168 H1180 0.960 . S
C1168 H1181 0.962 . S
C1168 H1182 0.960 . S
C1169 C1166 1.511 . S
C1169 H1183 0.961 . S
C1169 H1184 0.961 . S
C1169 H1185 0.961 . S
C1170 C1171 1.370 1_556 S
C1170 C1172 1.363 . S
C1170 H1186 0.931 . S
C1171 C1170 1.370 1_554 S
C1171 C1175 1.408 . S
C1172 C1170 1.363 . S
C1172 C1173 1.370 . S
C1172 C1176 1.524 . S
C1173 C1165 1.503 . S
C1173 C1172 1.370 . S
C1173 C1174 1.403 1_556 S
C1174 C1173 1.403 1_554 S
C1174 C1175 1.404 . S
C1174 C1177 1.539 . S
C1175 C1171 1.408 . S
C1175 C1174 1.404 . S
C1175 H1187 0.930 . S
C1176 C1172 1.524 . S
C1176 H1188 0.956 . S
C1176 H1189 0.961 . S
C1176 H1190 0.961 . S
C1177 C1174 1.539 . S
C1177 H1191 0.958 . S
C1177 H1192 0.961 . S
C1177 H1193 0.960 . S
H1178 C1162 0.931 . S
H1179 C1167 0.929 . S
H1180 C1168 0.960 . S
H1181 C1168 0.962 . S
H1182 C1168 0.960 . S
H1183 C1169 0.961 . S
H1184 C1169 0.961 . S
H1185 C1169 0.961 . S
H1186 C1170 0.931 . S
H1187 C1175 0.930 . S
H1188 C1176 0.956 . S
H1189 C1176 0.961 . S
H1190 C1176 0.961 . S
H1191 C1177 0.958 . S
H1192 C1177 0.961 . S
H1193 C1177 0.960 . S
C1194 C1195 1.391 . S
C1194 C1196 1.394 . S
C1194 H1210 0.931 . S
C1195 C1194 1.391 . S
C1195 C1199 1.376 . S
C1196 C1194 1.394 . S
C1196 C1197 1.369 . S
C1196 C1200 1.531 . S
C1197 C1196 1.369 . S
C1197 C1198 1.410 . S
C1197 C1205 1.503 . S
C1198 C1197 1.410 . S
C1198 C1199 1.392 . S
C1198 C1201 1.511 . S
C1199 C1195 1.376 . S
C1199 C1198 1.392 . S
C1199 H1211 0.929 . S
C1200 C1196 1.531 . S
C1200 H1212 0.960 . S
C1200 H1213 0.962 . S
C1200 H1214 0.960 . S
C1201 C1198 1.511 . S
C1201 H1215 0.961 . S
C1201 H1216 0.961 . S
C1201 H1217 0.961 . S
C1202 C1203 1.370 . S
C1202 C1204 1.363 . S
C1202 H1218 0.931 . S
C1203 C1202 1.370 . S
C1203 C1207 1.408 . S
C1204 C1202 1.363 . S
C1204 C1205 1.370 . S
C1204 C1208 1.524 . S
C1205 C1197 1.503 . S
C1205 C1204 1.370 . S
C1205 C1206 1.403 . S
C1206 C1205 1.403 . S
C1206 C1207 1.404 . S
C1206 C1209 1.539 . S
C1207 C1203 1.408 . S
C1207 C1206 1.404 . S
C1207 H1219 0.930 . S
C1208 C1204 1.524 . S
C1208 H1220 0.956 . S
C1208 H1221 0.961 . S
C1208 H1222 0.961 . S
C1209 C1206 1.539 . S
C1209 H1223 0.958 . S
C1209 H1224 0.961 . S
C1209 H1225 0.960 . S
H1210 C1194 0.931 . S
H1211 C1199 0.929 . S
H1212 C1200 0.960 . S
H1213 C1200 0.962 . S
H1214 C1200 0.960 . S
H1215 C1201 0.961 . S
H1216 C1201 0.961 . S
H1217 C1201 0.961 . S
H1218 C1202 0.931 . S
H1219 C1207 0.930 . S
H1220 C1208 0.956 . S
H1221 C1208 0.961 . S
H1222 C1208 0.961 . S
H1223 C1209 0.958 . S
H1224 C1209 0.961 . S
H1225 C1209 0.960 . S
C1226 C1227 1.391 . S
C1226 C1228 1.394 . S
C1226 H1242 0.931 . S
C1227 C1226 1.391 . S
C1227 C1231 1.376 . S
C1228 C1226 1.394 . S
C1228 C1229 1.369 . S
C1228 C1232 1.531 . S
C1229 C1228 1.369 . S
C1229 C1230 1.410 . S
C1229 C1237 1.503 . S
C1230 C1229 1.410 . S
C1230 C1231 1.392 . S
C1230 C1233 1.511 . S
C1231 C1227 1.376 . S
C1231 C1230 1.392 . S
C1231 H1243 0.929 . S
C1232 C1228 1.531 . S
C1232 H1244 0.960 . S
C1232 H1245 0.962 . S
C1232 H1246 0.960 . S
C1233 C1230 1.511 . S
C1233 H1247 0.961 . S
C1233 H1248 0.961 . S
C1233 H1249 0.961 . S
C1234 C1235 1.370 . S
C1234 C1236 1.363 . S
C1234 H1250 0.931 . S
C1235 C1234 1.370 . S
C1235 C1239 1.408 . S
C1236 C1234 1.363 . S
C1236 C1237 1.370 . S
C1236 C1240 1.524 . S
C1237 C1229 1.503 . S
C1237 C1236 1.370 . S
C1237 C1238 1.403 . S
C1238 C1237 1.403 . S
C1238 C1239 1.404 . S
C1238 C1241 1.539 . S
C1239 C1235 1.408 . S
C1239 C1238 1.404 . S
C1239 H1251 0.930 . S
C1240 C1236 1.524 . S
C1240 H1252 0.956 . S
C1240 H1253 0.961 . S
C1240 H1254 0.961 . S
C1241 C1238 1.539 . S
C1241 H1255 0.958 . S
C1241 H1256 0.961 . S
C1241 H1257 0.960 . S
H1242 C1226 0.931 . S
H1243 C1231 0.929 . S
H1244 C1232 0.960 . S
H1245 C1232 0.962 . S
H1246 C1232 0.960 . S
H1247 C1233 0.961 . S
H1248 C1233 0.961 . S
H1249 C1233 0.961 . S
H1250 C1234 0.931 . S
H1251 C1239 0.930 . S
H1252 C1240 0.956 . S
H1253 C1240 0.961 . S
H1254 C1240 0.961 . S
H1255 C1241 0.958 . S
H1256 C1241 0.961 . S
H1257 C1241 0.960 . S
C1258 C1259 1.391 . S
C1258 C1260 1.394 . S
C1258 H1274 0.931 . S
C1259 C1258 1.391 . S
C1259 C1263 1.376 . S
C1260 C1258 1.394 . S
C1260 C1261 1.369 . S
C1260 C1264 1.531 . S
C1261 C1260 1.369 . S
C1261 C1262 1.410 . S
C1261 C1269 1.503 . S
C1262 C1261 1.410 . S
C1262 C1263 1.392 . S
C1262 C1265 1.511 . S
C1263 C1259 1.376 . S
C1263 C1262 1.392 . S
C1263 H1275 0.929 . S
C1264 C1260 1.531 . S
C1264 H1276 0.960 . S
C1264 H1277 0.962 . S
C1264 H1278 0.960 . S
C1265 C1262 1.511 . S
C1265 H1279 0.961 . S
C1265 H1280 0.961 . S
C1265 H1281 0.961 . S
C1266 C1267 1.370 . S
C1266 C1268 1.363 . S
C1266 H1282 0.931 . S
C1267 C1266 1.370 . S
C1267 C1271 1.408 . S
C1268 C1266 1.363 . S
C1268 C1269 1.370 . S
C1268 C1272 1.524 . S
C1269 C1261 1.503 . S
C1269 C1268 1.370 . S
C1269 C1270 1.403 . S
C1270 C1269 1.403 . S
C1270 C1271 1.404 . S
C1270 C1273 1.539 . S
C1271 C1267 1.408 . S
C1271 C1270 1.404 . S
C1271 H1283 0.930 . S
C1272 C1268 1.524 . S
C1272 H1284 0.956 . S
C1272 H1285 0.961 . S
C1272 H1286 0.961 . S
C1273 C1270 1.539 . S
C1273 H1287 0.958 . S
C1273 H1288 0.961 . S
C1273 H1289 0.960 . S
H1274 C1258 0.931 . S
H1275 C1263 0.929 . S
H1276 C1264 0.960 . S
H1277 C1264 0.962 . S
H1278 C1264 0.960 . S
H1279 C1265 0.961 . S
H1280 C1265 0.961 . S
H1281 C1265 0.961 . S
H1282 C1266 0.931 . S
H1283 C1271 0.930 . S
H1284 C1272 0.956 . S
H1285 C1272 0.961 . S
H1286 C1272 0.961 . S
H1287 C1273 0.958 . S
H1288 C1273 0.961 . S
H1289 C1273 0.960 . S
C1290 C1291 1.391 . S
C1290 C1292 1.394 . S
C1290 H1306 0.931 . S
C1291 C1290 1.391 . S
C1291 C1295 1.376 . S
C1292 C1290 1.394 . S
C1292 C1293 1.369 . S
C1292 C1296 1.531 . S
C1293 C1292 1.369 . S
C1293 C1294 1.410 . S
C1293 C1301 1.503 . S
C1294 C1293 1.410 . S
C1294 C1295 1.392 . S
C1294 C1297 1.511 . S
C1295 C1291 1.376 . S
C1295 C1294 1.392 . S
C1295 H1307 0.929 . S
C1296 C1292 1.531 . S
C1296 H1308 0.960 . S
C1296 H1309 0.962 . S
C1296 H1310 0.960 . S
C1297 C1294 1.511 . S
C1297 H1311 0.961 . S
C1297 H1312 0.961 . S
C1297 H1313 0.961 . S
C1298 C1299 1.370 . S
C1298 C1300 1.363 . S
C1298 H1314 0.931 . S
C1299 C1298 1.370 . S
C1299 C1303 1.408 . S
C1300 C1298 1.363 . S
C1300 C1301 1.370 . S
C1300 C1304 1.524 . S
C1301 C1293 1.503 . S
C1301 C1300 1.370 . S
C1301 C1302 1.403 . S
C1302 C1301 1.403 . S
C1302 C1303 1.404 . S
C1302 C1305 1.539 . S
C1303 C1299 1.408 . S
C1303 C1302 1.404 . S
C1303 H1315 0.930 . S
C1304 C1300 1.524 . S
C1304 H1316 0.956 . S
C1304 H1317 0.961 . S
C1304 H1318 0.961 . S
C1305 C1302 1.539 . S
C1305 H1319 0.958 . S
C1305 H1320 0.961 . S
C1305 H1321 0.960 . S
H1306 C1290 0.931 . S
H1307 C1295 0.929 . S
H1308 C1296 0.960 . S
H1309 C1296 0.962 . S
H1310 C1296 0.960 . S
H1311 C1297 0.961 . S
H1312 C1297 0.961 . S
H1313 C1297 0.961 . S
H1314 C1298 0.931 . S
H1315 C1303 0.930 . S
H1316 C1304 0.956 . S
H1317 C1304 0.961 . S
H1318 C1304 0.961 . S
H1319 C1305 0.958 . S
H1320 C1305 0.961 . S
H1321 C1305 0.960 . S
C1322 C1323 1.391 . S
C1322 C1324 1.394 . S
C1322 H1338 0.931 . S
C1323 C1322 1.391 . S
C1323 C1327 1.376 . S
C1324 C1322 1.394 . S
C1324 C1325 1.369 . S
C1324 C1328 1.531 . S
C1325 C1324 1.369 . S
C1325 C1326 1.410 . S
C1325 C1333 1.503 . S
C1326 C1325 1.410 . S
C1326 C1327 1.392 . S
C1326 C1329 1.511 . S
C1327 C1323 1.376 . S
C1327 C1326 1.392 . S
C1327 H1339 0.929 . S
C1328 C1324 1.531 . S
C1328 H1340 0.960 . S
C1328 H1341 0.962 . S
C1328 H1342 0.960 . S
C1329 C1326 1.511 . S
C1329 H1343 0.961 . S
C1329 H1344 0.961 . S
C1329 H1345 0.961 . S
C1330 C1331 1.370 . S
C1330 C1332 1.363 . S
C1330 H1346 0.931 . S
C1331 C1330 1.370 . S
C1331 C1335 1.408 . S
C1332 C1330 1.363 . S
C1332 C1333 1.370 . S
C1332 C1336 1.524 . S
C1333 C1325 1.503 . S
C1333 C1332 1.370 . S
C1333 C1334 1.403 . S
C1334 C1333 1.403 . S
C1334 C1335 1.404 . S
C1334 C1337 1.539 . S
C1335 C1331 1.408 . S
C1335 C1334 1.404 . S
C1335 H1347 0.930 . S
C1336 C1332 1.524 . S
C1336 H1348 0.956 . S
C1336 H1349 0.961 . S
C1336 H1350 0.961 . S
C1337 C1334 1.539 . S
C1337 H1351 0.958 . S
C1337 H1352 0.961 . S
C1337 H1353 0.960 . S
H1338 C1322 0.931 . S
H1339 C1327 0.929 . S
H1340 C1328 0.960 . S
H1341 C1328 0.962 . S
H1342 C1328 0.960 . S
H1343 C1329 0.961 . S
H1344 C1329 0.961 . S
H1345 C1329 0.961 . S
H1346 C1330 0.931 . S
H1347 C1335 0.930 . S
H1348 C1336 0.956 . S
H1349 C1336 0.961 . S
H1350 C1336 0.961 . S
H1351 C1337 0.958 . S
H1352 C1337 0.961 . S
H1353 C1337 0.960 . S
C1354 C1355 1.391 . S
C1354 C1356 1.394 . S
C1354 H1370 0.931 . S
C1355 C1354 1.391 . S
C1355 C1359 1.376 . S
C1356 C1354 1.394 . S
C1356 C1357 1.369 . S
C1356 C1360 1.531 . S
C1357 C1356 1.369 . S
C1357 C1358 1.410 . S
C1357 C1365 1.503 . S
C1358 C1357 1.410 . S
C1358 C1359 1.392 . S
C1358 C1361 1.511 . S
C1359 C1355 1.376 . S
C1359 C1358 1.392 . S
C1359 H1371 0.929 . S
C1360 C1356 1.531 . S
C1360 H1372 0.960 . S
C1360 H1373 0.962 . S
C1360 H1374 0.960 . S
C1361 C1358 1.511 . S
C1361 H1375 0.961 . S
C1361 H1376 0.961 . S
C1361 H1377 0.961 . S
C1362 C1363 1.370 . S
C1362 C1364 1.363 . S
C1362 H1378 0.931 . S
C1363 C1362 1.370 . S
C1363 C1367 1.408 . S
C1364 C1362 1.363 . S
C1364 C1365 1.370 . S
C1364 C1368 1.524 . S
C1365 C1357 1.503 . S
C1365 C1364 1.370 . S
C1365 C1366 1.403 . S
C1366 C1365 1.403 . S
C1366 C1367 1.404 . S
C1366 C1369 1.539 . S
C1367 C1363 1.408 . S
C1367 C1366 1.404 . S
C1367 H1379 0.930 . S
C1368 C1364 1.524 . S
C1368 H1380 0.956 . S
C1368 H1381 0.961 . S
C1368 H1382 0.961 . S
C1369 C1366 1.539 . S
C1369 H1383 0.958 . S
C1369 H1384 0.961 . S
C1369 H1385 0.960 . S
H1370 C1354 0.931 . S
H1371 C1359 0.929 . S
H1372 C1360 0.960 . S
H1373 C1360 0.962 . S
H1374 C1360 0.960 . S
H1375 C1361 0.961 . S
H1376 C1361 0.961 . S
H1377 C1361 0.961 . S
H1378 C1362 0.931 . S
H1379 C1367 0.930 . S
H1380 C1368 0.956 . S
H1381 C1368 0.961 . S
H1382 C1368 0.961 . S
H1383 C1369 0.958 . S
H1384 C1369 0.961 . S
H1385 C1369 0.960 . S
C235 C43 1.356 . S
C243 C10 1.362 . S
C267 C62 1.351 . S
C275 C23 1.364 . S
C299 C36 1.346 . S
C307 C75 1.364 . S
C331 C30 1.348 . S
C339 C69 1.364 . S
C363 C4 1.351 . S
C371 C49 1.364 . S
C395 C56 1.356 . S
C403 C17 1.360 . S
C427 C121 1.355 . S
C435 C82 1.360 . S
C459 C101 1.368 . S
C467 C140 1.356 . S
C491 C114 1.358 . S
C499 C147 1.359 . S
C523 C153 1.370 . S
C531 C108 1.356 . S
C555 C127 1.349 . S
C563 C88 1.366 . S
C587 C134 1.349 . S
C595 C95 1.364 . S
C619 C160 1.342 . S
C627 C205 1.367 . S
C651 C173 1.349 . S
C659 C218 1.365 . S
C683 C186 1.347 . S
C691 C225 1.365 . S
C715 C231 1.359 . S
C723 C192 1.358 . S
C747 C199 1.371 . S
C755 C166 1.356 . S
C779 C212 1.347 . S
C787 C179 1.365 . S
C811 C3 1.324 . S
C819 C96 1.341 . S
C843 C16 1.348 . S
C851 C109 1.339 . S
C875 C81 1.326 . S
C883 C29 1.332 . S
C907 C31 1.347 . S
C915 C174 1.342 . S
C939 C187 1.348 . S
C947 C5 1.337 . S
C971 C161 1.333 1_554 S
C979 C18 1.343 . S
C1003 C213 1.327 . S
C1011 C44 1.340 . S
C1035 C55 1.340 . S
C1043 C224 1.343 . S
C1067 C200 1.343 . S
C1075 C68 1.336 . S
C1099 C133 1.331 . S
C1107 C70 1.333 . S
C1131 C42 1.336 . S
C1139 C148 1.337 . S
C1163 C57 1.325 . S
C1171 C122 1.339 . S
C1195 C83 1.340 . S
C1203 C172 1.343 . S
C1227 C94 1.347 . S
C1235 C185 1.341 . S
C1259 C107 1.325 . S
C1267 C159 1.341 . S
C1291 C211 1.336 . S
C1299 C146 1.343 . S
C1323 C226 1.345 . S
C1331 C120 1.337 . S
C1355 C135 1.321 . S
C1363 C198 1.334 . S
