# Generated by pormake.
# Topology gis, (4)-cn, num edge types: 1
# Building blocks:
#     Node 0, Type 0, BuildingBlock: CEKHIL_clean_sbu_0, # of connection points: 4
#     Node 1, Type 0, BuildingBlock: CEKHIL_clean_sbu_0, # of connection points: 4
#     Node 2, Type 0, BuildingBlock: CEKHIL_clean_sbu_0, # of connection points: 4
#     Node 3, Type 0, BuildingBlock: CEKHIL_clean_sbu_0, # of connection points: 4
#     Node 4, Type 0, BuildingBlock: CEKHIL_clean_sbu_0, # of connection points: 4
#     Node 5, Type 0, BuildingBlock: CEKHIL_clean_sbu_0, # of connection points: 4
#     Node 6, Type 0, BuildingBlock: CEKHIL_clean_sbu_0, # of connection points: 4
#     Node 7, Type 0, BuildingBlock: CEKHIL_clean_sbu_0, # of connection points: 4
#     Node 8, Type 0, BuildingBlock: CEKHIL_clean_sbu_0, # of connection points: 4
#     Node 9, Type 0, BuildingBlock: CEKHIL_clean_sbu_0, # of connection points: 4
#     Node 10, Type 0, BuildingBlock: CEKHIL_clean_sbu_0, # of connection points: 4
#     Node 11, Type 0, BuildingBlock: CEKHIL_clean_sbu_0, # of connection points: 4
#     Node 12, Type 0, BuildingBlock: CEKHIL_clean_sbu_0, # of connection points: 4
#     Node 13, Type 0, BuildingBlock: CEKHIL_clean_sbu_0, # of connection points: 4
#     Node 14, Type 0, BuildingBlock: CEKHIL_clean_sbu_0, # of connection points: 4
#     Node 15, Type 0, BuildingBlock: CEKHIL_clean_sbu_0, # of connection points: 4
#     Edge 16, Type (0, 0), BuildingBlock: AJUNOK_clean_linker_0, # of connection points: 2
#     Edge 17, Type (0, 0), BuildingBlock: AJUNOK_clean_linker_0, # of connection points: 2
#     Edge 18, Type (0, 0), BuildingBlock: AJUNOK_clean_linker_0, # of connection points: 2
#     Edge 19, Type (0, 0), BuildingBlock: AJUNOK_clean_linker_0, # of connection points: 2
#     Edge 20, Type (0, 0), BuildingBlock: AJUNOK_clean_linker_0, # of connection points: 2
#     Edge 21, Type (0, 0), BuildingBlock: AJUNOK_clean_linker_0, # of connection points: 2
#     Edge 22, Type (0, 0), BuildingBlock: AJUNOK_clean_linker_0, # of connection points: 2
#     Edge 23, Type (0, 0), BuildingBlock: AJUNOK_clean_linker_0, # of connection points: 2
#     Edge 24, Type (0, 0), BuildingBlock: AJUNOK_clean_linker_0, # of connection points: 2
#     Edge 25, Type (0, 0), BuildingBlock: AJUNOK_clean_linker_0, # of connection points: 2
#     Edge 26, Type (0, 0), BuildingBlock: AJUNOK_clean_linker_0, # of connection points: 2
#     Edge 27, Type (0, 0), BuildingBlock: AJUNOK_clean_linker_0, # of connection points: 2
#     Edge 28, Type (0, 0), BuildingBlock: AJUNOK_clean_linker_0, # of connection points: 2
#     Edge 29, Type (0, 0), BuildingBlock: AJUNOK_clean_linker_0, # of connection points: 2
#     Edge 30, Type (0, 0), BuildingBlock: AJUNOK_clean_linker_0, # of connection points: 2
#     Edge 31, Type (0, 0), BuildingBlock: AJUNOK_clean_linker_0, # of connection points: 2
#     Edge 32, Type (0, 0), BuildingBlock: AJUNOK_clean_linker_0, # of connection points: 2
#     Edge 33, Type (0, 0), BuildingBlock: AJUNOK_clean_linker_0, # of connection points: 2
#     Edge 34, Type (0, 0), BuildingBlock: AJUNOK_clean_linker_0, # of connection points: 2
#     Edge 35, Type (0, 0), BuildingBlock: AJUNOK_clean_linker_0, # of connection points: 2
#     Edge 36, Type (0, 0), BuildingBlock: AJUNOK_clean_linker_0, # of connection points: 2
#     Edge 37, Type (0, 0), BuildingBlock: AJUNOK_clean_linker_0, # of connection points: 2
#     Edge 38, Type (0, 0), BuildingBlock: AJUNOK_clean_linker_0, # of connection points: 2
#     Edge 39, Type (0, 0), BuildingBlock: AJUNOK_clean_linker_0, # of connection points: 2
#     Edge 40, Type (0, 0), BuildingBlock: AJUNOK_clean_linker_0, # of connection points: 2
#     Edge 41, Type (0, 0), BuildingBlock: AJUNOK_clean_linker_0, # of connection points: 2
#     Edge 42, Type (0, 0), BuildingBlock: AJUNOK_clean_linker_0, # of connection points: 2
#     Edge 43, Type (0, 0), BuildingBlock: AJUNOK_clean_linker_0, # of connection points: 2
#     Edge 44, Type (0, 0), BuildingBlock: AJUNOK_clean_linker_0, # of connection points: 2
#     Edge 45, Type (0, 0), BuildingBlock: AJUNOK_clean_linker_0, # of connection points: 2
#     Edge 46, Type (0, 0), BuildingBlock: AJUNOK_clean_linker_0, # of connection points: 2
#     Edge 47, Type (0, 0), BuildingBlock: AJUNOK_clean_linker_0, # of connection points: 2
# Relax obj value: 0.063
# Max RMSD: 0.132
# Mean RMSD: 0.127
data_MOF--net-gis--node1-CEKHIL_clean_sbu_0--edge1-AJUNOK_clean_linker_0
_symmetry_space_group_name_H-M    P1
_symmetry_Int_Tables_number       1
_symmetry_cell_setting            triclinic
loop_
_symmetry_equiv_pos_as_xyz
'x, y, z'
_cell_length_a     39.916477
_cell_length_b     37.816344
_cell_length_c     25.952767
_cell_angle_alpha  90.509435
_cell_angle_beta   90.496743
_cell_angle_gamma 90.000122
loop_
_atom_site_label
_atom_site_type_symbol
_atom_site_fract_x
_atom_site_fract_y
_atom_site_fract_z
_atom_type_partial_charge
Co0 Co 0.1487 0.60092 0.13143 0.0
O1 O 0.19674 0.60276 0.13246 0.0
O2 O 0.16555 0.60016 0.20207 0.0
C3 C 0.14488 0.55909 0.06937 0.0
O4 O 0.09799 0.59731 0.14364 0.0
Co5 Co 0.11175 0.62394 0.03208 0.0
O6 O 0.07359 0.59973 0.06508 0.0
C7 C 0.14015 0.67833 0.10107 0.0
C8 C 0.19542 0.60157 0.18217 0.0
C9 C 0.07235 0.594 0.11333 0.0
O10 O 0.14684 0.65396 0.13371 0.0
O11 O 0.12796 0.67173 0.05619 0.0
O12 O 0.14984 0.5505 0.11718 0.0
O13 O 0.14556 0.59263 0.06011 0.0
Co14 Co 0.64911 0.90036 0.36248 0.0
O15 O 0.69723 0.89883 0.36318 0.0
O16 O 0.6662 0.8982 0.29244 0.0
C17 C 0.64449 0.94453 0.42107 0.0
O18 O 0.59839 0.90271 0.34834 0.0
Co19 Co 0.61187 0.88094 0.4624 0.0
O20 O 0.57332 0.90255 0.42576 0.0
C21 C 0.64041 0.8241 0.39875 0.0
C22 C 0.69602 0.89756 0.31337 0.0
C23 C 0.57229 0.90637 0.37703 0.0
O24 O 0.64754 0.84723 0.36455 0.0
O25 O 0.6281 0.83238 0.4426 0.0
O26 O 0.64986 0.9515 0.37291 0.0
O27 O 0.64543 0.91138 0.4327 0.0
Co28 Co 0.36465 0.39944 0.63198 0.0
O29 O 0.31649 0.39525 0.63041 0.0
O30 O 0.34729 0.39587 0.70141 0.0
C31 C 0.36687 0.44445 0.57501 0.0
O32 O 0.41499 0.40448 0.64838 0.0
Co33 Co 0.4062 0.38718 0.53248 0.0
O34 O 0.4423 0.40999 0.57341 0.0
C35 C 0.38157 0.3259 0.59154 0.0
C36 C 0.31759 0.39428 0.68027 0.0
C37 C 0.4418 0.41087 0.62247 0.0
O38 O 0.36939 0.34628 0.6267 0.0
O39 O 0.39509 0.33722 0.55029 0.0
O40 O 0.36102 0.45081 0.6234 0.0
O41 O 0.36864 0.41146 0.5625 0.0
Co42 Co 0.86138 0.10013 0.87264 0.0
O43 O 0.81333 0.10272 0.86725 0.0
O44 O 0.84755 0.10253 0.80086 0.0
C45 C 0.86162 0.05629 0.93083 0.0
O46 O 0.91249 0.0965 0.86409 0.0
Co47 Co 0.89673 0.11477 0.97858 0.0
O48 O 0.93519 0.09218 0.94364 0.0
C49 C 0.86812 0.17347 0.91756 0.0
C50 C 0.8169 0.10335 0.81772 0.0
C51 C 0.93746 0.09044 0.89473 0.0
O52 O 0.86393 0.15313 0.87805 0.0
O53 O 0.87788 0.16236 0.9617 0.0
O54 O 0.85876 0.04889 0.88195 0.0
O55 O 0.86195 0.08938 0.94243 0.0
Co56 Co 0.15298 0.40033 0.86142 0.0
O57 O 0.20097 0.39894 0.85632 0.0
O58 O 0.16636 0.39405 0.78989 0.0
C59 C 0.15128 0.44781 0.91469 0.0
O60 O 0.10165 0.40215 0.85363 0.0
Co61 Co 0.12103 0.3897 0.96981 0.0
O62 O 0.0815 0.40993 0.93398 0.0
C63 C 0.14972 0.3289 0.91326 0.0
C64 C 0.19716 0.39516 0.80702 0.0
C65 C 0.07771 0.40962 0.88514 0.0
O66 O 0.15205 0.34741 0.87202 0.0
O67 O 0.14071 0.3418 0.95677 0.0
O68 O 0.15394 0.45224 0.86529 0.0
O69 O 0.15288 0.41551 0.92968 0.0
Co70 Co 0.86287 0.89921 0.13765 0.0
O71 O 0.81475 0.89533 0.1396 0.0
O72 O 0.84791 0.89333 0.208 0.0
C73 C 0.86294 0.94582 0.08423 0.0
O74 O 0.91367 0.9036 0.15043 0.0
Co75 Co 0.90113 0.89161 0.03364 0.0
O76 O 0.93905 0.91128 0.07426 0.0
C77 C 0.87458 0.8283 0.08664 0.0
C78 C 0.81754 0.89301 0.18922 0.0
C79 C 0.93985 0.91053 0.12335 0.0
O80 O 0.86699 0.84657 0.12699 0.0
O81 O 0.88548 0.8421 0.0451 0.0
O82 O 0.85913 0.95071 0.13347 0.0
O83 O 0.86444 0.91339 0.0692 0.0
Co84 Co 0.36245 0.59836 0.3624 0.0
O85 O 0.31422 0.5985 0.35914 0.0
O86 O 0.34724 0.59876 0.29128 0.0
C87 C 0.36716 0.55543 0.4216 0.0
O88 O 0.41331 0.59703 0.35127 0.0
Co89 Co 0.39824 0.62056 0.46321 0.0
O90 O 0.43793 0.59925 0.42949 0.0
C91 C 0.36928 0.67553 0.39714 0.0
C92 C 0.3169 0.5989 0.30943 0.0
C93 C 0.43932 0.59448 0.38089 0.0
O94 O 0.36267 0.6514 0.36352 0.0
O95 O 0.38184 0.66862 0.44151 0.0
O96 O 0.36285 0.54771 0.37313 0.0
O97 O 0.36511 0.5887 0.43337 0.0
Co98 Co 0.65087 0.09994 0.63494 0.0
O99 O 0.69892 0.10181 0.63695 0.0
O100 O 0.667 0.1014 0.70593 0.0
C101 C 0.64695 0.05616 0.57577 0.0
O102 O 0.60004 0.09668 0.64596 0.0
Co103 Co 0.61522 0.1201 0.53296 0.0
O104 O 0.57707 0.09602 0.56627 0.0
C105 C 0.64158 0.17666 0.60017 0.0
C106 C 0.69707 0.10222 0.68667 0.0
C107 C 0.57503 0.09187 0.61482 0.0
O108 O 0.64884 0.15315 0.63396 0.0
O109 O 0.62988 0.16878 0.55544 0.0
O110 O 0.65198 0.049 0.62406 0.0
O111 O 0.64824 0.08934 0.56425 0.0
Co112 Co 0.86195 0.39787 0.86822 0.0
O113 O 0.8139 0.39488 0.86377 0.0
O114 O 0.84757 0.39383 0.79672 0.0
C115 C 0.86225 0.44312 0.92517 0.0
O116 O 0.91298 0.4018 0.85892 0.0
Co117 Co 0.89794 0.38581 0.9739 0.0
O118 O 0.9359 0.40824 0.93818 0.0
C119 C 0.8689 0.32569 0.91501 0.0
C120 C 0.81705 0.39338 0.8142 0.0
C121 C 0.93792 0.40908 0.88924 0.0
O122 O 0.86478 0.345 0.8749 0.0
O123 O 0.87878 0.33791 0.95875 0.0
O124 O 0.85903 0.44926 0.87616 0.0
O125 O 0.86286 0.41032 0.9377 0.0
Co126 Co 0.36077 0.10131 0.63475 0.0
O127 O 0.3129 0.10609 0.63936 0.0
O128 O 0.34752 0.10699 0.70617 0.0
C129 C 0.35945 0.05475 0.57984 0.0
O130 O 0.4118 0.09577 0.64366 0.0
Co131 Co 0.39562 0.11034 0.52861 0.0
O132 O 0.43226 0.08492 0.56447 0.0
C133 C 0.37685 0.17351 0.59043 0.0
C134 C 0.31679 0.10821 0.68886 0.0
C135 C 0.43557 0.0858 0.61335 0.0
O136 O 0.36585 0.15417 0.62717 0.0
O137 O 0.38796 0.16109 0.5478 0.0
O138 O 0.3563 0.04988 0.62903 0.0
O139 O 0.36035 0.08729 0.56556 0.0
Co140 Co 0.64887 0.59716 0.3616 0.0
O141 O 0.6517 0.54717 0.37291 0.0
O142 O 0.64363 0.5875 0.43395 0.0
C143 C 0.69396 0.60174 0.31016 0.0
O144 O 0.64582 0.65082 0.36486 0.0
Co145 Co 0.63263 0.62507 0.25389 0.0
O146 O 0.64541 0.67153 0.28419 0.0
C147 C 0.57764 0.5966 0.31475 0.0
C148 C 0.64689 0.55431 0.42128 0.0
C149 C 0.64692 0.67651 0.33278 0.0
O150 O 0.59888 0.59301 0.35179 0.0
O151 O 0.58611 0.60767 0.27024 0.0
O152 O 0.69734 0.60103 0.35993 0.0
O153 O 0.66384 0.59567 0.29282 0.0
Co154 Co 0.14797 0.90373 0.13948 0.0
O155 O 0.15095 0.95344 0.12753 0.0
O156 O 0.14016 0.91323 0.06715 0.0
C157 C 0.19524 0.89938 0.18754 0.0
O158 O 0.14441 0.85008 0.13735 0.0
Co159 Co 0.1361 0.87691 0.24851 0.0
O160 O 0.14903 0.83054 0.21846 0.0
C161 C 0.07862 0.90467 0.19095 0.0
C162 C 0.14459 0.94636 0.07947 0.0
C163 C 0.14815 0.82496 0.17001 0.0
O164 O 0.09847 0.90854 0.15268 0.0
O165 O 0.08883 0.89372 0.23489 0.0
O166 O 0.19625 0.89934 0.13762 0.0
O167 O 0.16598 0.90581 0.20721 0.0
Co168 Co 0.85819 0.60355 0.12993 0.0
O169 O 0.81036 0.6084 0.13165 0.0
O170 O 0.843 0.60993 0.20061 0.0
C171 C 0.85756 0.55662 0.07611 0.0
O172 O 0.90909 0.59802 0.14118 0.0
Co173 Co 0.89473 0.61085 0.02437 0.0
O174 O 0.93093 0.58661 0.06292 0.0
C175 C 0.87136 0.67458 0.08124 0.0
C176 C 0.81273 0.61079 0.18125 0.0
C177 C 0.93339 0.58789 0.1119 0.0
O178 O 0.86326 0.65607 0.12059 0.0
O179 O 0.88165 0.661 0.03883 0.0
O180 O 0.85363 0.55215 0.12525 0.0
O181 O 0.85901 0.58894 0.06133 0.0
Co182 Co 0.15287 0.10325 0.8712 0.0
O183 O 0.20084 0.10576 0.86867 0.0
O184 O 0.16779 0.10689 0.80014 0.0
C185 C 0.15131 0.05806 0.92755 0.0
O186 O 0.10172 0.09982 0.86105 0.0
Co187 Co 0.11865 0.11827 0.97675 0.0
O188 O 0.08012 0.09574 0.94089 0.0
C189 C 0.14808 0.17669 0.91795 0.0
C190 C 0.19817 0.10764 0.81911 0.0
C191 C 0.07723 0.09364 0.892 0.0
O192 O 0.15073 0.1565 0.87801 0.0
O193 O 0.13865 0.1656 0.96197 0.0
O194 O 0.15496 0.05163 0.87863 0.0
O195 O 0.15172 0.09102 0.94032 0.0
Co196 Co 0.64872 0.40332 0.63876 0.0
O197 O 0.65173 0.4531 0.62468 0.0
O198 O 0.64056 0.41138 0.56664 0.0
C199 C 0.69608 0.39946 0.6865 0.0
O200 O 0.64509 0.34967 0.63731 0.0
Co201 Co 0.63744 0.37624 0.74755 0.0
O202 O 0.6484 0.32916 0.71781 0.0
C203 C 0.57976 0.40464 0.69102 0.0
C204 C 0.64528 0.44471 0.57697 0.0
C205 C 0.64761 0.324 0.66925 0.0
O206 O 0.59933 0.40842 0.65241 0.0
O207 O 0.5902 0.39347 0.73472 0.0
O208 O 0.69695 0.39889 0.63655 0.0
O209 O 0.66687 0.40587 0.70638 0.0
Co210 Co 0.36348 0.90081 0.36357 0.0
O211 O 0.36085 0.95055 0.37813 0.0
O212 O 0.37036 0.90922 0.43635 0.0
C213 C 0.31705 0.89767 0.31338 0.0
O214 O 0.36639 0.84713 0.36396 0.0
Co215 Co 0.37642 0.87351 0.25437 0.0
O216 O 0.36235 0.82725 0.2825 0.0
C217 C 0.4332 0.90189 0.3138 0.0
C218 C 0.3663 0.94255 0.42603 0.0
C219 C 0.36265 0.8219 0.33087 0.0
O220 O 0.41318 0.90519 0.35207 0.0
O221 O 0.42339 0.89085 0.2694 0.0
O222 O 0.315 0.8972 0.36325 0.0
O223 O 0.3468 0.90348 0.29531 0.0
C224 C 0.13455 0.77878 0.10336 0.0
C225 C 0.14928 0.7879 0.15109 0.0
C226 C 0.1325 0.74343 0.08686 0.0
C227 C 0.14526 0.71578 0.11731 0.0
H228 H 0.12346 0.79895 0.07922 0.0
H229 H 0.11998 0.73779 0.05052 0.0
S230 S 0.1904 0.72626 0.24255 0.0
N231 N 0.17961 0.76685 0.22651 0.0
N232 N 0.17609 0.70058 0.1956 0.0
C233 C 0.16155 0.7248 0.16408 0.0
C234 C 0.16346 0.76077 0.18093 0.0
C235 C 0.49432 0.89123 0.29476 0.0
C236 C 0.46947 0.90893 0.32348 0.0
C237 C 0.52835 0.89272 0.30965 0.0
C238 C 0.53862 0.91193 0.35372 0.0
H239 H 0.48728 0.87443 0.26245 0.0
H240 H 0.54631 0.87683 0.2886 0.0
S241 S 0.48458 0.9685 0.43587 0.0
N242 N 0.45852 0.9505 0.39346 0.0
N243 N 0.52202 0.95296 0.42139 0.0
C244 C 0.51443 0.93202 0.38004 0.0
C245 C 0.48 0.9306 0.36494 0.0
C246 C 0.35284 0.26931 0.61576 0.0
C247 C 0.38158 0.28728 0.59891 0.0
C248 C 0.35165 0.23208 0.61537 0.0
C249 C 0.37915 0.21208 0.59806 0.0
H250 H 0.33074 0.28403 0.62691 0.0
H251 H 0.32869 0.21896 0.62631 0.0
S252 S 0.46219 0.24663 0.56017 0.0
N253 N 0.43952 0.28229 0.57174 0.0
N254 N 0.4372 0.21275 0.57082 0.0
C255 C 0.40865 0.22984 0.58474 0.0
C256 C 0.40989 0.26737 0.58522 0.0
C257 C 0.02573 0.05759 0.89469 0.0
C258 C 0.04304 0.08598 0.87254 0.0
C259 C 0.99066 0.05689 0.89577 0.0
C260 C 0.97156 0.08448 0.87455 0.0
H261 H 0.0394 0.03758 0.91587 0.0
H262 H 0.9785 0.03633 0.91764 0.0
S263 S 1.00466 0.16208 0.80528 0.0
N264 N 0.03852 0.14012 0.82341 0.0
N265 N 0.97234 0.13868 0.82512 0.0
C266 C 0.9884 0.11093 0.84718 0.0
C267 C 0.0243 0.1117 0.84623 0.0
C268 C 0.14545 0.27044 0.86716 0.0
C269 C 0.15548 0.29031 0.91075 0.0
C270 C 0.14494 0.23328 0.86836 0.0
C271 C 0.15442 0.21501 0.91321 0.0
H272 H 0.13608 0.28364 0.83306 0.0
H273 H 0.13526 0.21893 0.83514 0.0
S274 S 0.18932 0.25471 0.03338 0.0
N275 N 0.1799 0.28887 0.99687 0.0
N276 N 0.1789 0.21934 0.99913 0.0
C277 C 0.16709 0.23458 0.95532 0.0
C278 C 0.16764 0.27217 0.95409 0.0
C279 C 0.99896 0.9319 0.12123 0.0
C280 C 0.97343 0.91456 0.1483 0.0
C281 C 0.03247 0.93027 0.13732 0.0
C282 C 0.04221 0.91118 0.18132 0.0
H283 H 0.99325 0.94572 0.08583 0.0
H284 H 0.05107 0.94302 0.11364 0.0
S285 S 0.98464 0.86467 0.26974 0.0
N286 N 0.95975 0.8805 0.22431 0.0
N287 N 0.0229 0.8774 0.25477 0.0
C288 C 0.01668 0.89589 0.21108 0.0
C289 C 0.98229 0.89761 0.19456 0.0
C290 C 0.378 0.74056 0.41242 0.0
C291 C 0.36406 0.71304 0.38223 0.0
C292 C 0.3764 0.77585 0.3964 0.0
C293 C 0.361 0.78501 0.3494 0.0
H294 H 0.39119 0.73481 0.44801 0.0
H295 H 0.38842 0.7959 0.4202 0.0
S296 S 0.3165 0.72391 0.25943 0.0
N297 N 0.33116 0.69815 0.3054 0.0
N298 N 0.32862 0.76431 0.27531 0.0
C299 C 0.34557 0.75809 0.32 0.0
C300 C 0.34695 0.72219 0.33641 0.0
C301 C 0.52229 0.10934 0.6592 0.0
C302 C 0.54138 0.08315 0.63415 0.0
C303 C 0.48699 0.10775 0.65882 0.0
C304 C 0.46999 0.08003 0.63311 0.0
H305 H 0.53442 0.13294 0.67423 0.0
H306 H 0.47309 0.1302 0.67359 0.0
S307 S 0.50891 0.00184 0.5708 0.0
N308 N 0.54098 0.0263 0.59018 0.0
N309 N 0.47497 0.02332 0.5893 0.0
C310 C 0.48901 0.05185 0.61331 0.0
C311 C 0.52469 0.05344 0.61382 0.0
C312 C 0.8563 0.23182 0.95742 0.0
C313 C 0.86288 0.21193 0.91266 0.0
C314 C 0.85651 0.26862 0.9568 0.0
C315 C 0.86332 0.28717 0.91139 0.0
H316 H 0.85202 0.2189 0.99388 0.0
H317 H 0.85238 0.28262 0.9928 0.0
S318 S 0.87816 0.24763 0.78223 0.0
N319 N 0.8733 0.21333 0.82041 0.0
N320 N 0.87368 0.28305 0.81924 0.0
C321 C 0.86756 0.26776 0.8654 0.0
C322 C 0.86735 0.22998 0.86603 0.0
C323 C 0.65333 0.74133 0.31758 0.0
C324 C 0.64812 0.71358 0.35239 0.0
C325 C 0.65181 0.77671 0.33343 0.0
C326 C 0.64484 0.78613 0.38486 0.0
H327 H 0.65809 0.73584 0.27726 0.0
H328 H 0.65531 0.79681 0.30449 0.0
S329 S 0.6321 0.72362 0.49261 0.0
N330 N 0.63781 0.69793 0.4417 0.0
N331 N 0.63491 0.76455 0.47153 0.0
C332 C 0.64083 0.75868 0.42067 0.0
C333 C 0.64252 0.72245 0.40448 0.0
C334 C 0.88833 0.73307 0.04778 0.0
C335 C 0.87077 0.71369 0.08481 0.0
C336 C 0.88917 0.76981 0.04917 0.0
C337 C 0.87247 0.78921 0.08764 0.0
H338 H 0.90205 0.71985 0.01736 0.0
H339 H 0.90348 0.78298 0.01971 0.0
S340 S 0.82203 0.75149 0.1934 0.0
N341 N 0.83572 0.71661 0.16109 0.0
N342 N 0.83729 0.78634 0.16368 0.0
C343 C 0.85469 0.77038 0.12519 0.0
C344 C 0.85384 0.73253 0.12378 0.0
C345 C 0.65228 0.25881 0.68411 0.0
C346 C 0.64811 0.28691 0.64941 0.0
C347 C 0.65096 0.22353 0.6675 0.0
C348 C 0.64526 0.21456 0.61536 0.0
H349 H 0.65617 0.26395 0.72485 0.0
H350 H 0.65374 0.20315 0.69629 0.0
S351 S 0.63511 0.27801 0.50784 0.0
N352 N 0.63978 0.30325 0.55959 0.0
N353 N 0.63725 0.23691 0.52844 0.0
C354 C 0.642 0.24234 0.57983 0.0
C355 C 0.64346 0.27843 0.59678 0.0
C356 C 0.02476 0.38816 0.8433 0.0
C357 C 0.04316 0.41591 0.86643 0.0
C358 C 0.98943 0.38806 0.84438 0.0
C359 C 0.97173 0.41568 0.86868 0.0
H360 H 0.03763 0.3648 0.82932 0.0
H361 H 0.97621 0.36462 0.83117 0.0
S362 S 0.00828 0.49724 0.92579 0.0
N363 N 0.04103 0.47389 0.90706 0.0
N364 N 0.97501 0.47361 0.9093 0.0
C365 C 0.98985 0.44519 0.88658 0.0
C366 C 0.02553 0.44534 0.88538 0.0
C367 C 0.51609 0.60676 0.29704 0.0
C368 C 0.54156 0.59029 0.32624 0.0
C369 C 0.48241 0.60602 0.31284 0.0
C370 C 0.47305 0.58891 0.35847 0.0
H371 H 0.52237 0.62194 0.2633 0.0
H372 H 0.46398 0.62074 0.29089 0.0
S373 S 0.52878 0.53608 0.44324 0.0
N374 N 0.55393 0.55199 0.39894 0.0
N375 N 0.49108 0.55113 0.42865 0.0
C376 C 0.4978 0.57014 0.38573 0.0
C377 C 0.5319 0.57068 0.36961 0.0
C378 C 0.53363 0.4323 0.63974 0.0
C379 C 0.54339 0.41157 0.6821 0.0
C380 C 0.50015 0.4342 0.62354 0.0
C381 C 0.47475 0.4155 0.6489 0.0
H382 H 0.55224 0.44603 0.61725 0.0
H383 H 0.49439 0.44909 0.5891 0.0
S384 S 0.48605 0.36079 0.76572 0.0
N385 N 0.52422 0.37466 0.75234 0.0
N386 N 0.46113 0.37822 0.7216 0.0
C387 C 0.48359 0.39692 0.69377 0.0
C388 C 0.51792 0.39493 0.71042 0.0
C389 C 0.01983 0.61176 0.15788 0.0
C390 C 0.03893 0.58525 0.13354 0.0
C391 C 0.98453 0.61015 0.15771 0.0
C392 C 0.96751 0.58208 0.1329 0.0
H393 H 0.03195 0.63561 0.17205 0.0
H394 H 0.97064 0.63285 0.17168 0.0
S395 S 1.0064 0.50308 0.07276 0.0
N396 N 0.0385 0.52784 0.09121 0.0
N397 N 0.97249 0.52474 0.09092 0.0
C398 C 0.98655 0.55359 0.11405 0.0
C399 C 0.02223 0.55523 0.11426 0.0
C400 C 0.14373 0.49598 0.0422 0.0
C401 C 0.14267 0.53179 0.02831 0.0
C402 C 0.14559 0.46922 0.00494 0.0
C403 C 0.14646 0.47708 0.9521 0.0
H404 H 0.14404 0.4884 0.08236 0.0
H405 H 0.14721 0.44215 0.018 0.0
S406 S 0.14056 0.56645 0.89495 0.0
N407 N 0.13992 0.57372 0.95778 0.0
N408 N 0.14338 0.52314 0.88742 0.0
C409 C 0.1438 0.51267 0.93736 0.0
C410 C 0.14188 0.54009 0.97554 0.0
C411 C 0.72578 0.89345 0.22853 0.0
C412 C 0.72732 0.89531 0.28261 0.0
C413 C 0.75505 0.89195 0.19893 0.0
C414 C 0.78717 0.89222 0.22211 0.0
H415 H 0.70177 0.89342 0.20873 0.0
H416 H 0.75238 0.89097 0.15739 0.0
S417 S 0.80519 0.89598 0.36254 0.0
N418 N 0.76392 0.89666 0.35831 0.0
N419 N 0.81863 0.89385 0.30265 0.0
C420 C 0.78909 0.89353 0.27617 0.0
C421 C 0.7593 0.8951 0.30639 0.0
C422 C 0.36525 0.50845 0.55036 0.0
C423 C 0.37035 0.47283 0.53629 0.0
C424 C 0.36555 0.53534 0.51337 0.0
C425 C 0.37087 0.52754 0.46094 0.0
H426 H 0.36009 0.51557 0.59003 0.0
H427 H 0.36048 0.56222 0.52575 0.0
S428 S 0.38919 0.43913 0.40469 0.0
N429 N 0.38345 0.43173 0.46653 0.0
N430 N 0.38423 0.48211 0.39751 0.0
C431 C 0.37755 0.49231 0.44675 0.0
C432 C 0.37723 0.46498 0.48427 0.0
C433 C 0.72575 0.1039 0.77317 0.0
C434 C 0.72798 0.1033 0.71918 0.0
C435 C 0.75463 0.1043 0.80444 0.0
C436 C 0.78702 0.10409 0.78307 0.0
H437 H 0.70149 0.10389 0.79161 0.0
H438 H 0.75141 0.10454 0.84581 0.0
S439 S 0.80684 0.1031 0.64368 0.0
N440 N 0.76552 0.10296 0.64554 0.0
N441 N 0.81952 0.10367 0.70436 0.0
C442 C 0.78966 0.1038 0.72914 0.0
C443 C 0.76026 0.10341 0.69721 0.0
C444 C 0.86154 0.507 0.94925 0.0
C445 C 0.86378 0.47155 0.96445 0.0
C446 C 0.86024 0.53431 0.98583 0.0
C447 C 0.86102 0.52718 0.03897 0.0
H448 H 0.86011 0.51376 0.90881 0.0
H449 H 0.85787 0.56119 0.97218 0.0
S450 S 0.86958 0.43904 0.09904 0.0
N451 N 0.86872 0.43085 0.03648 0.0
N452 N 0.86631 0.48237 0.10507 0.0
C453 C 0.86439 0.49198 0.05478 0.0
C454 C 0.86579 0.46411 0.01754 0.0
C455 C 0.22597 0.10721 0.73262 0.0
C456 C 0.22861 0.10978 0.78653 0.0
C457 C 0.25459 0.1074 0.70155 0.0
C458 C 0.28711 0.11018 0.72306 0.0
H459 H 0.20164 0.10445 0.71418 0.0
H460 H 0.25112 0.10478 0.66028 0.0
S461 S 0.30778 0.11982 0.86207 0.0
N462 N 0.26653 0.11687 0.86007 0.0
N463 N 0.32005 0.11707 0.80162 0.0
C464 C 0.29008 0.11359 0.77681 0.0
C465 C 0.26095 0.11344 0.80853 0.0
C466 C 0.64603 0.53447 0.51285 0.0
C467 C 0.64521 0.5259 0.46004 0.0
C468 C 0.64567 0.50803 0.5503 0.0
C469 C 0.64419 0.47199 0.53642 0.0
H470 H 0.64748 0.56181 0.5255 0.0
H471 H 0.64677 0.516 0.59048 0.0
S472 S 0.63987 0.43553 0.40324 0.0
N473 N 0.64165 0.47877 0.39569 0.0
N474 N 0.64082 0.42916 0.46605 0.0
C475 C 0.64259 0.46305 0.48374 0.0
C476 C 0.64316 0.48998 0.44557 0.0
C477 C 0.2546 0.89888 0.30309 0.0
C478 C 0.28647 0.89556 0.28044 0.0
C479 C 0.22519 0.89929 0.27302 0.0
C480 C 0.22638 0.89615 0.21908 0.0
H481 H 0.2523 0.90203 0.34441 0.0
H482 H 0.2014 0.90272 0.29224 0.0
S483 S 0.30333 0.88356 0.14112 0.0
N484 N 0.31724 0.88696 0.20103 0.0
N485 N 0.26221 0.88727 0.14445 0.0
C486 C 0.25804 0.89149 0.19606 0.0
C487 C 0.28798 0.89135 0.22673 0.0
C488 C 0.64715 0.03541 0.48407 0.0
C489 C 0.64228 0.02799 0.53644 0.0
C490 C 0.6466 0.00836 0.44677 0.0
C491 C 0.64105 0.9729 0.46043 0.0
H492 H 0.65265 0.06211 0.47193 0.0
H493 H 0.65163 0.01525 0.40715 0.0
S494 S 0.62192 0.94039 0.59148 0.0
N495 N 0.62815 0.98325 0.59942 0.0
N496 N 0.62714 0.93246 0.52943 0.0
C497 C 0.63425 0.96545 0.5123 0.0
C498 C 0.63485 0.99299 0.55027 0.0
C499 C 0.28834 0.39386 0.76537 0.0
C500 C 0.28639 0.3927 0.71131 0.0
C501 C 0.25937 0.39411 0.79557 0.0
C502 C 0.22705 0.39318 0.77312 0.0
H503 H 0.31248 0.39504 0.78475 0.0
H504 H 0.26247 0.39541 0.83702 0.0
S505 S 0.20792 0.38876 0.63309 0.0
N506 N 0.24923 0.38967 0.63638 0.0
N507 N 0.19491 0.39016 0.69328 0.0
C508 C 0.22466 0.39139 0.71911 0.0
C509 C 0.25423 0.39115 0.68821 0.0
C510 C 0.86557 0.9931 0.95652 0.0
C511 C 0.86413 0.02891 0.9709 0.0
C512 C 0.86601 0.96658 0.9937 0.0
C513 C 0.86489 0.97483 0.0467 0.0
H514 H 0.86589 0.98538 0.91623 0.0
H515 H 0.86657 0.93933 0.98053 0.0
S516 S 0.86268 0.06468 0.10481 0.0
N517 N 0.86288 0.07143 0.04207 0.0
N518 N 0.86369 0.02136 0.11181 0.0
C519 C 0.86431 0.01053 0.06175 0.0
C520 C 0.86394 0.03763 0.02387 0.0
C521 C 0.22514 0.59949 0.26783 0.0
C522 C 0.22668 0.60146 0.21387 0.0
C523 C 0.25442 0.59872 0.2982 0.0
C524 C 0.28651 0.59986 0.27588 0.0
H525 H 0.20113 0.59839 0.28692 0.0
H526 H 0.25178 0.5971 0.33959 0.0
S527 S 0.30452 0.60588 0.13624 0.0
N528 N 0.26325 0.60509 0.13931 0.0
N529 N 0.31797 0.60362 0.1964 0.0
C530 C 0.28844 0.60209 0.222 0.0
C531 C 0.25865 0.6029 0.19102 0.0
C532 C 0.35969 0.03274 0.48936 0.0
C533 C 0.36286 0.02546 0.54218 0.0
C534 C 0.36146 0.00578 0.45234 0.0
C535 C 0.36664 0.97037 0.46652 0.0
H536 H 0.35519 0.05947 0.47632 0.0
H537 H 0.35827 0.01285 0.41224 0.0
S538 S 0.37944 0.93766 0.59971 0.0
N539 N 0.37339 0.98061 0.60691 0.0
N540 N 0.3769 0.92971 0.53713 0.0
C541 C 0.37092 0.96278 0.51918 0.0
C542 C 0.36895 0.99036 0.55705 0.0
C543 C 0.78457 0.61091 0.26752 0.0
C544 C 0.78204 0.61169 0.21351 0.0
C545 C 0.7559 0.60851 0.29829 0.0
C546 C 0.72346 0.60662 0.27634 0.0
H547 H 0.80893 0.61139 0.28629 0.0
H548 H 0.75933 0.60737 0.33967 0.0
S549 S 0.70276 0.61016 0.13691 0.0
N550 N 0.74404 0.61235 0.13942 0.0
N551 N 0.69049 0.60754 0.1973 0.0
C552 C 0.72048 0.60845 0.2225 0.0
C553 C 0.74964 0.61106 0.1911 0.0
C554 C 0.14548 0.96699 0.98786 0.0
C555 C 0.14357 0.97491 0.04084 0.0
C556 C 0.14734 0.99402 0.95121 0.0
C557 C 0.14723 0.02987 0.96627 0.0
H558 H 0.14641 0.93977 0.97464 0.0
H559 H 0.14947 0.98671 0.91092 0.0
S560 S 0.13978 0.06456 0.10016 0.0
N561 N 0.13946 0.02119 0.10622 0.0
N562 N 0.14329 0.07171 0.03786 0.0
C563 C 0.14421 0.03806 0.01906 0.0
C564 C 0.1423 0.01064 0.0562 0.0
C565 C 0.72551 0.39488 0.77196 0.0
C566 C 0.7272 0.39603 0.71798 0.0
C567 C 0.75468 0.39324 0.80243 0.0
C568 C 0.78684 0.39281 0.78023 0.0
H569 H 0.70146 0.39557 0.79101 0.0
H570 H 0.75189 0.39281 0.84387 0.0
S571 S 0.80515 0.39457 0.64039 0.0
N572 N 0.76388 0.39585 0.64335 0.0
N573 N 0.81848 0.39296 0.70069 0.0
C574 C 0.7889 0.39335 0.72625 0.0
C575 C 0.75918 0.39491 0.69513 0.0
loop_
_geom_bond_atom_site_label_1
_geom_bond_atom_site_label_2
_geom_bond_distance
_geom_bond_site_symmetry_2
_ccdc_geom_bond_type
Co0 O1 2.216 . S
Co0 O2 2.091 . S
Co0 O4 2.004 . S
Co0 O10 2.021 . S
Co0 O12 2.137 . S
Co0 O13 2.244 . S
O1 Co0 2.216 . S
O1 C8 1.247 . S
O2 Co0 2.091 . S
O2 C8 1.261 . S
C3 O12 1.247 . S
C3 O13 1.272 . S
O4 Co0 2.004 . S
O4 C9 1.259 . S
Co5 O6 2.061 . S
Co5 O11 2.052 . S
Co5 O13 2.135 . S
O6 Co5 2.061 . S
O6 C9 1.235 . S
C7 O10 1.238 . S
C7 O11 1.241 . S
C8 O1 1.247 . S
C8 O2 1.261 . S
C9 O4 1.259 . S
C9 O6 1.235 . S
O10 Co0 2.021 . S
O10 C7 1.238 . S
O11 Co5 2.052 . S
O11 C7 1.241 . S
O12 Co0 2.137 . S
O12 C3 1.247 . S
O13 Co0 2.244 . S
O13 C3 1.272 . S
O13 Co5 2.135 . S
Co14 O15 2.216 . S
Co14 O16 2.091 . S
Co14 O18 2.004 . S
Co14 O24 2.021 . S
Co14 O26 2.137 . S
Co14 O27 2.244 . S
O15 Co14 2.216 . S
O15 C22 1.247 . S
O16 Co14 2.091 . S
O16 C22 1.261 . S
C17 O26 1.247 . S
C17 O27 1.272 . S
O18 Co14 2.004 . S
O18 C23 1.259 . S
Co19 O20 2.061 . S
Co19 O25 2.052 . S
Co19 O27 2.135 . S
O20 Co19 2.061 . S
O20 C23 1.235 . S
C21 O24 1.238 . S
C21 O25 1.241 . S
C22 O15 1.247 . S
C22 O16 1.261 . S
C23 O18 1.259 . S
C23 O20 1.235 . S
O24 Co14 2.021 . S
O24 C21 1.238 . S
O25 Co19 2.052 . S
O25 C21 1.241 . S
O26 Co14 2.137 . S
O26 C17 1.247 . S
O27 Co14 2.244 . S
O27 C17 1.272 . S
O27 Co19 2.135 . S
Co28 O29 2.216 . S
Co28 O30 2.091 . S
Co28 O32 2.004 . S
Co28 O38 2.021 . S
Co28 O40 2.137 . S
Co28 O41 2.244 . S
O29 Co28 2.216 . S
O29 C36 1.247 . S
O30 Co28 2.091 . S
O30 C36 1.261 . S
C31 O40 1.247 . S
C31 O41 1.272 . S
O32 Co28 2.004 . S
O32 C37 1.259 . S
Co33 O34 2.061 . S
Co33 O39 2.052 . S
Co33 O41 2.135 . S
O34 Co33 2.061 . S
O34 C37 1.235 . S
C35 O38 1.238 . S
C35 O39 1.241 . S
C36 O29 1.247 . S
C36 O30 1.261 . S
C37 O32 1.259 . S
C37 O34 1.235 . S
O38 Co28 2.021 . S
O38 C35 1.238 . S
O39 Co33 2.052 . S
O39 C35 1.241 . S
O40 Co28 2.137 . S
O40 C31 1.247 . S
O41 Co28 2.244 . S
O41 C31 1.272 . S
O41 Co33 2.135 . S
Co42 O43 2.216 . S
Co42 O44 2.091 . S
Co42 O46 2.004 . S
Co42 O52 2.021 . S
Co42 O54 2.137 . S
Co42 O55 2.244 . S
O43 Co42 2.216 . S
O43 C50 1.247 . S
O44 Co42 2.091 . S
O44 C50 1.261 . S
C45 O54 1.247 . S
C45 O55 1.272 . S
O46 Co42 2.004 . S
O46 C51 1.259 . S
Co47 O48 2.061 . S
Co47 O53 2.052 . S
Co47 O55 2.135 . S
O48 Co47 2.061 . S
O48 C51 1.235 . S
C49 O52 1.238 . S
C49 O53 1.241 . S
C50 O43 1.247 . S
C50 O44 1.261 . S
C51 O46 1.259 . S
C51 O48 1.235 . S
O52 Co42 2.021 . S
O52 C49 1.238 . S
O53 Co47 2.052 . S
O53 C49 1.241 . S
O54 Co42 2.137 . S
O54 C45 1.247 . S
O55 Co42 2.244 . S
O55 C45 1.272 . S
O55 Co47 2.135 . S
Co56 O57 2.216 . S
Co56 O58 2.091 . S
Co56 O60 2.004 . S
Co56 O66 2.021 . S
Co56 O68 2.137 . S
Co56 O69 2.244 . S
O57 Co56 2.216 . S
O57 C64 1.247 . S
O58 Co56 2.091 . S
O58 C64 1.261 . S
C59 O68 1.247 . S
C59 O69 1.272 . S
O60 Co56 2.004 . S
O60 C65 1.259 . S
Co61 O62 2.061 . S
Co61 O67 2.052 . S
Co61 O69 2.135 . S
O62 Co61 2.061 . S
O62 C65 1.235 . S
C63 O66 1.238 . S
C63 O67 1.241 . S
C64 O57 1.247 . S
C64 O58 1.261 . S
C65 O60 1.259 . S
C65 O62 1.235 . S
O66 Co56 2.021 . S
O66 C63 1.238 . S
O67 Co61 2.052 . S
O67 C63 1.241 . S
O68 Co56 2.137 . S
O68 C59 1.247 . S
O69 Co56 2.244 . S
O69 C59 1.272 . S
O69 Co61 2.135 . S
Co70 O71 2.216 . S
Co70 O72 2.091 . S
Co70 O74 2.004 . S
Co70 O80 2.021 . S
Co70 O82 2.137 . S
Co70 O83 2.244 . S
O71 Co70 2.216 . S
O71 C78 1.247 . S
O72 Co70 2.091 . S
O72 C78 1.261 . S
C73 O82 1.247 . S
C73 O83 1.272 . S
O74 Co70 2.004 . S
O74 C79 1.259 . S
Co75 O76 2.061 . S
Co75 O81 2.052 . S
Co75 O83 2.135 . S
O76 Co75 2.061 . S
O76 C79 1.235 . S
C77 O80 1.238 . S
C77 O81 1.241 . S
C78 O71 1.247 . S
C78 O72 1.261 . S
C79 O74 1.259 . S
C79 O76 1.235 . S
O80 Co70 2.021 . S
O80 C77 1.238 . S
O81 Co75 2.052 . S
O81 C77 1.241 . S
O82 Co70 2.137 . S
O82 C73 1.247 . S
O83 Co70 2.244 . S
O83 C73 1.272 . S
O83 Co75 2.135 . S
Co84 O85 2.216 . S
Co84 O86 2.091 . S
Co84 O88 2.004 . S
Co84 O94 2.021 . S
Co84 O96 2.137 . S
Co84 O97 2.244 . S
O85 Co84 2.216 . S
O85 C92 1.247 . S
O86 Co84 2.091 . S
O86 C92 1.261 . S
C87 O96 1.247 . S
C87 O97 1.272 . S
O88 Co84 2.004 . S
O88 C93 1.259 . S
Co89 O90 2.061 . S
Co89 O95 2.052 . S
Co89 O97 2.135 . S
O90 Co89 2.061 . S
O90 C93 1.235 . S
C91 O94 1.238 . S
C91 O95 1.241 . S
C92 O85 1.247 . S
C92 O86 1.261 . S
C93 O88 1.259 . S
C93 O90 1.235 . S
O94 Co84 2.021 . S
O94 C91 1.238 . S
O95 Co89 2.052 . S
O95 C91 1.241 . S
O96 Co84 2.137 . S
O96 C87 1.247 . S
O97 Co84 2.244 . S
O97 C87 1.272 . S
O97 Co89 2.135 . S
Co98 O99 2.216 . S
Co98 O100 2.091 . S
Co98 O102 2.004 . S
Co98 O108 2.021 . S
Co98 O110 2.137 . S
Co98 O111 2.244 . S
O99 Co98 2.216 . S
O99 C106 1.247 . S
O100 Co98 2.091 . S
O100 C106 1.261 . S
C101 O110 1.247 . S
C101 O111 1.272 . S
O102 Co98 2.004 . S
O102 C107 1.259 . S
Co103 O104 2.061 . S
Co103 O109 2.052 . S
Co103 O111 2.135 . S
O104 Co103 2.061 . S
O104 C107 1.235 . S
C105 O108 1.238 . S
C105 O109 1.241 . S
C106 O99 1.247 . S
C106 O100 1.261 . S
C107 O102 1.259 . S
C107 O104 1.235 . S
O108 Co98 2.021 . S
O108 C105 1.238 . S
O109 Co103 2.052 . S
O109 C105 1.241 . S
O110 Co98 2.137 . S
O110 C101 1.247 . S
O111 Co98 2.244 . S
O111 C101 1.272 . S
O111 Co103 2.135 . S
Co112 O113 2.216 . S
Co112 O114 2.091 . S
Co112 O116 2.004 . S
Co112 O122 2.021 . S
Co112 O124 2.137 . S
Co112 O125 2.244 . S
O113 Co112 2.216 . S
O113 C120 1.247 . S
O114 Co112 2.091 . S
O114 C120 1.261 . S
C115 O124 1.247 . S
C115 O125 1.272 . S
O116 Co112 2.004 . S
O116 C121 1.259 . S
Co117 O118 2.061 . S
Co117 O123 2.052 . S
Co117 O125 2.135 . S
O118 Co117 2.061 . S
O118 C121 1.235 . S
C119 O122 1.238 . S
C119 O123 1.241 . S
C120 O113 1.247 . S
C120 O114 1.261 . S
C121 O116 1.259 . S
C121 O118 1.235 . S
O122 Co112 2.021 . S
O122 C119 1.238 . S
O123 Co117 2.052 . S
O123 C119 1.241 . S
O124 Co112 2.137 . S
O124 C115 1.247 . S
O125 Co112 2.244 . S
O125 C115 1.272 . S
O125 Co117 2.135 . S
Co126 O127 2.216 . S
Co126 O128 2.091 . S
Co126 O130 2.004 . S
Co126 O136 2.021 . S
Co126 O138 2.137 . S
Co126 O139 2.244 . S
O127 Co126 2.216 . S
O127 C134 1.247 . S
O128 Co126 2.091 . S
O128 C134 1.261 . S
C129 O138 1.247 . S
C129 O139 1.272 . S
O130 Co126 2.004 . S
O130 C135 1.259 . S
Co131 O132 2.061 . S
Co131 O137 2.052 . S
Co131 O139 2.135 . S
O132 Co131 2.061 . S
O132 C135 1.235 . S
C133 O136 1.238 . S
C133 O137 1.241 . S
C134 O127 1.247 . S
C134 O128 1.261 . S
C135 O130 1.259 . S
C135 O132 1.235 . S
O136 Co126 2.021 . S
O136 C133 1.238 . S
O137 Co131 2.052 . S
O137 C133 1.241 . S
O138 Co126 2.137 . S
O138 C129 1.247 . S
O139 Co126 2.244 . S
O139 C129 1.272 . S
O139 Co131 2.135 . S
Co140 O141 2.216 . S
Co140 O142 2.091 . S
Co140 O144 2.004 . S
Co140 O150 2.021 . S
Co140 O152 2.137 . S
Co140 O153 2.244 . S
O141 Co140 2.216 . S
O141 C148 1.247 . S
O142 Co140 2.091 . S
O142 C148 1.261 . S
C143 O152 1.247 . S
C143 O153 1.272 . S
O144 Co140 2.004 . S
O144 C149 1.259 . S
Co145 O146 2.061 . S
Co145 O151 2.052 . S
Co145 O153 2.135 . S
O146 Co145 2.061 . S
O146 C149 1.235 . S
C147 O150 1.238 . S
C147 O151 1.241 . S
C148 O141 1.247 . S
C148 O142 1.261 . S
C149 O144 1.259 . S
C149 O146 1.235 . S
O150 Co140 2.021 . S
O150 C147 1.238 . S
O151 Co145 2.052 . S
O151 C147 1.241 . S
O152 Co140 2.137 . S
O152 C143 1.247 . S
O153 Co140 2.244 . S
O153 C143 1.272 . S
O153 Co145 2.135 . S
Co154 O155 2.216 . S
Co154 O156 2.091 . S
Co154 O158 2.004 . S
Co154 O164 2.021 . S
Co154 O166 2.137 . S
Co154 O167 2.244 . S
O155 Co154 2.216 . S
O155 C162 1.247 . S
O156 Co154 2.091 . S
O156 C162 1.261 . S
C157 O166 1.247 . S
C157 O167 1.272 . S
O158 Co154 2.004 . S
O158 C163 1.259 . S
Co159 O160 2.061 . S
Co159 O165 2.052 . S
Co159 O167 2.135 . S
O160 Co159 2.061 . S
O160 C163 1.235 . S
C161 O164 1.238 . S
C161 O165 1.241 . S
C162 O155 1.247 . S
C162 O156 1.261 . S
C163 O158 1.259 . S
C163 O160 1.235 . S
O164 Co154 2.021 . S
O164 C161 1.238 . S
O165 Co159 2.052 . S
O165 C161 1.241 . S
O166 Co154 2.137 . S
O166 C157 1.247 . S
O167 Co154 2.244 . S
O167 C157 1.272 . S
O167 Co159 2.135 . S
Co168 O169 2.216 . S
Co168 O170 2.091 . S
Co168 O172 2.004 . S
Co168 O178 2.021 . S
Co168 O180 2.137 . S
Co168 O181 2.244 . S
O169 Co168 2.216 . S
O169 C176 1.247 . S
O170 Co168 2.091 . S
O170 C176 1.261 . S
C171 O180 1.247 . S
C171 O181 1.272 . S
O172 Co168 2.004 . S
O172 C177 1.259 . S
Co173 O174 2.061 . S
Co173 O179 2.052 . S
Co173 O181 2.135 . S
O174 Co173 2.061 . S
O174 C177 1.235 . S
C175 O178 1.238 . S
C175 O179 1.241 . S
C176 O169 1.247 . S
C176 O170 1.261 . S
C177 O172 1.259 . S
C177 O174 1.235 . S
O178 Co168 2.021 . S
O178 C175 1.238 . S
O179 Co173 2.052 . S
O179 C175 1.241 . S
O180 Co168 2.137 . S
O180 C171 1.247 . S
O181 Co168 2.244 . S
O181 C171 1.272 . S
O181 Co173 2.135 . S
Co182 O183 2.216 . S
Co182 O184 2.091 . S
Co182 O186 2.004 . S
Co182 O192 2.021 . S
Co182 O194 2.137 . S
Co182 O195 2.244 . S
O183 Co182 2.216 . S
O183 C190 1.247 . S
O184 Co182 2.091 . S
O184 C190 1.261 . S
C185 O194 1.247 . S
C185 O195 1.272 . S
O186 Co182 2.004 . S
O186 C191 1.259 . S
Co187 O188 2.061 . S
Co187 O193 2.052 . S
Co187 O195 2.135 . S
O188 Co187 2.061 . S
O188 C191 1.235 . S
C189 O192 1.238 . S
C189 O193 1.241 . S
C190 O183 1.247 . S
C190 O184 1.261 . S
C191 O186 1.259 . S
C191 O188 1.235 . S
O192 Co182 2.021 . S
O192 C189 1.238 . S
O193 Co187 2.052 . S
O193 C189 1.241 . S
O194 Co182 2.137 . S
O194 C185 1.247 . S
O195 Co182 2.244 . S
O195 C185 1.272 . S
O195 Co187 2.135 . S
Co196 O197 2.216 . S
Co196 O198 2.091 . S
Co196 O200 2.004 . S
Co196 O206 2.021 . S
Co196 O208 2.137 . S
Co196 O209 2.244 . S
O197 Co196 2.216 . S
O197 C204 1.247 . S
O198 Co196 2.091 . S
O198 C204 1.261 . S
C199 O208 1.247 . S
C199 O209 1.272 . S
O200 Co196 2.004 . S
O200 C205 1.259 . S
Co201 O202 2.061 . S
Co201 O207 2.052 . S
Co201 O209 2.135 . S
O202 Co201 2.061 . S
O202 C205 1.235 . S
C203 O206 1.238 . S
C203 O207 1.241 . S
C204 O197 1.247 . S
C204 O198 1.261 . S
C205 O200 1.259 . S
C205 O202 1.235 . S
O206 Co196 2.021 . S
O206 C203 1.238 . S
O207 Co201 2.052 . S
O207 C203 1.241 . S
O208 Co196 2.137 . S
O208 C199 1.247 . S
O209 Co196 2.244 . S
O209 C199 1.272 . S
O209 Co201 2.135 . S
Co210 O211 2.216 . S
Co210 O212 2.091 . S
Co210 O214 2.004 . S
Co210 O220 2.021 . S
Co210 O222 2.137 . S
Co210 O223 2.244 . S
O211 Co210 2.216 . S
O211 C218 1.247 . S
O212 Co210 2.091 . S
O212 C218 1.261 . S
C213 O222 1.247 . S
C213 O223 1.272 . S
O214 Co210 2.004 . S
O214 C219 1.259 . S
Co215 O216 2.061 . S
Co215 O221 2.052 . S
Co215 O223 2.135 . S
O216 Co215 2.061 . S
O216 C219 1.235 . S
C217 O220 1.238 . S
C217 O221 1.241 . S
C218 O211 1.247 . S
C218 O212 1.261 . S
C219 O214 1.259 . S
C219 O216 1.235 . S
O220 Co210 2.021 . S
O220 C217 1.238 . S
O221 Co215 2.052 . S
O221 C217 1.241 . S
O222 Co210 2.137 . S
O222 C213 1.247 . S
O223 Co210 2.244 . S
O223 C213 1.272 . S
O223 Co215 2.135 . S
C224 C225 1.369 . S
C224 C226 1.419 . S
C224 H228 0.930 . S
C225 C224 1.369 . S
C225 C234 1.429 . S
C226 C224 1.419 . S
C226 C227 1.363 . S
C226 H229 0.929 . S
C227 C226 1.363 . S
C227 C233 1.428 . S
H228 C224 0.930 . S
H229 C226 0.929 . S
S230 N231 1.613 . S
S230 N232 1.610 . S
N231 S230 1.613 . S
N231 C234 1.350 . S
N232 S230 1.610 . S
N232 C233 1.351 . S
C233 C227 1.428 . S
C233 N232 1.351 . S
C233 C234 1.434 . S
C234 C225 1.429 . S
C234 N231 1.350 . S
C234 C233 1.434 . S
C235 C236 1.369 . S
C235 C237 1.419 . S
C235 H239 0.930 . S
C236 C235 1.369 . S
C236 C245 1.429 . S
C237 C235 1.419 . S
C237 C238 1.363 . S
C237 H240 0.929 . S
C238 C237 1.363 . S
C238 C244 1.428 . S
H239 C235 0.930 . S
H240 C237 0.929 . S
S241 N242 1.613 . S
S241 N243 1.610 . S
N242 S241 1.613 . S
N242 C245 1.350 . S
N243 S241 1.610 . S
N243 C244 1.351 . S
C244 C238 1.428 . S
C244 N243 1.351 . S
C244 C245 1.434 . S
C245 C236 1.429 . S
C245 N242 1.350 . S
C245 C244 1.434 . S
C246 C247 1.369 . S
C246 C248 1.419 . S
C246 H250 0.930 . S
C247 C246 1.369 . S
C247 C256 1.429 . S
C248 C246 1.419 . S
C248 C249 1.363 . S
C248 H251 0.929 . S
C249 C248 1.363 . S
C249 C255 1.428 . S
H250 C246 0.930 . S
H251 C248 0.929 . S
S252 N253 1.613 . S
S252 N254 1.610 . S
N253 S252 1.613 . S
N253 C256 1.350 . S
N254 S252 1.610 . S
N254 C255 1.351 . S
C255 C249 1.428 . S
C255 N254 1.351 . S
C255 C256 1.434 . S
C256 C247 1.429 . S
C256 N253 1.350 . S
C256 C255 1.434 . S
C257 C258 1.369 . S
C257 C259 1.419 1_455 S
C257 H261 0.930 . S
C258 C257 1.369 . S
C258 C267 1.429 . S
C259 C257 1.419 1_655 S
C259 C260 1.363 . S
C259 H262 0.929 . S
C260 C259 1.363 . S
C260 C266 1.428 . S
H261 C257 0.930 . S
H262 C259 0.929 . S
S263 N264 1.613 1_655 S
S263 N265 1.610 . S
N264 S263 1.613 1_455 S
N264 C267 1.350 . S
N265 S263 1.610 . S
N265 C266 1.351 . S
C266 C260 1.428 . S
C266 N265 1.351 . S
C266 C267 1.434 1_655 S
C267 C258 1.429 . S
C267 N264 1.350 . S
C267 C266 1.434 1_455 S
C268 C269 1.369 . S
C268 C270 1.419 . S
C268 H272 0.930 . S
C269 C268 1.369 . S
C269 C278 1.429 . S
C270 C268 1.419 . S
C270 C271 1.363 . S
C270 H273 0.929 . S
C271 C270 1.363 . S
C271 C277 1.428 . S
H272 C268 0.930 . S
H273 C270 0.929 . S
S274 N275 1.613 . S
S274 N276 1.610 . S
N275 S274 1.613 . S
N275 C278 1.350 . S
N276 S274 1.610 . S
N276 C277 1.351 . S
C277 C271 1.428 . S
C277 N276 1.351 . S
C277 C278 1.434 . S
C278 C269 1.429 . S
C278 N275 1.350 . S
C278 C277 1.434 . S
C279 C280 1.369 . S
C279 C281 1.419 1_655 S
C279 H283 0.930 . S
C280 C279 1.369 . S
C280 C289 1.429 . S
C281 C279 1.419 1_455 S
C281 C282 1.363 . S
C281 H284 0.929 . S
C282 C281 1.363 . S
C282 C288 1.428 . S
H283 C279 0.930 . S
H284 C281 0.929 . S
S285 N286 1.613 1_455 S
S285 N287 1.610 . S
N286 S285 1.613 1_655 S
N286 C289 1.350 . S
N287 S285 1.610 . S
N287 C288 1.351 . S
C288 C282 1.428 . S
C288 N287 1.351 . S
C288 C289 1.434 1_455 S
C289 C280 1.429 . S
C289 N286 1.350 . S
C289 C288 1.434 1_655 S
C290 C291 1.369 . S
C290 C292 1.419 . S
C290 H294 0.930 . S
C291 C290 1.369 . S
C291 C300 1.429 . S
C292 C290 1.419 . S
C292 C293 1.363 . S
C292 H295 0.929 . S
C293 C292 1.363 . S
C293 C299 1.428 . S
H294 C290 0.930 . S
H295 C292 0.929 . S
S296 N297 1.613 . S
S296 N298 1.610 . S
N297 S296 1.613 . S
N297 C300 1.350 . S
N298 S296 1.610 . S
N298 C299 1.351 . S
C299 C293 1.428 . S
C299 N298 1.351 . S
C299 C300 1.434 . S
C300 C291 1.429 . S
C300 N297 1.350 . S
C300 C299 1.434 . S
C301 C302 1.369 . S
C301 C303 1.419 . S
C301 H305 0.930 . S
C302 C301 1.369 . S
C302 C311 1.429 . S
C303 C301 1.419 . S
C303 C304 1.363 . S
C303 H306 0.929 . S
C304 C303 1.363 . S
C304 C310 1.428 . S
H305 C301 0.930 . S
H306 C303 0.929 . S
S307 N308 1.613 . S
S307 N309 1.610 . S
N308 S307 1.613 . S
N308 C311 1.350 . S
N309 S307 1.610 . S
N309 C310 1.351 . S
C310 C304 1.428 . S
C310 N309 1.351 . S
C310 C311 1.434 . S
C311 C302 1.429 . S
C311 N308 1.350 . S
C311 C310 1.434 . S
C312 C313 1.369 . S
C312 C314 1.419 . S
C312 H316 0.930 . S
C313 C312 1.369 . S
C313 C322 1.429 . S
C314 C312 1.419 . S
C314 C315 1.363 . S
C314 H317 0.929 . S
C315 C314 1.363 . S
C315 C321 1.428 . S
H316 C312 0.930 . S
H317 C314 0.929 . S
S318 N319 1.613 . S
S318 N320 1.610 . S
N319 S318 1.613 . S
N319 C322 1.350 . S
N320 S318 1.610 . S
N320 C321 1.351 . S
C321 C315 1.428 . S
C321 N320 1.351 . S
C321 C322 1.434 . S
C322 C313 1.429 . S
C322 N319 1.350 . S
C322 C321 1.434 . S
C323 C324 1.369 . S
C323 C325 1.419 . S
C323 H327 0.930 . S
C324 C323 1.369 . S
C324 C333 1.429 . S
C325 C323 1.419 . S
C325 C326 1.363 . S
C325 H328 0.929 . S
C326 C325 1.363 . S
C326 C332 1.428 . S
H327 C323 0.930 . S
H328 C325 0.929 . S
S329 N330 1.613 . S
S329 N331 1.610 . S
N330 S329 1.613 . S
N330 C333 1.350 . S
N331 S329 1.610 . S
N331 C332 1.351 . S
C332 C326 1.428 . S
C332 N331 1.351 . S
C332 C333 1.434 . S
C333 C324 1.429 . S
C333 N330 1.350 . S
C333 C332 1.434 . S
C334 C335 1.369 . S
C334 C336 1.419 . S
C334 H338 0.930 . S
C335 C334 1.369 . S
C335 C344 1.429 . S
C336 C334 1.419 . S
C336 C337 1.363 . S
C336 H339 0.929 . S
C337 C336 1.363 . S
C337 C343 1.428 . S
H338 C334 0.930 . S
H339 C336 0.929 . S
S340 N341 1.613 . S
S340 N342 1.610 . S
N341 S340 1.613 . S
N341 C344 1.350 . S
N342 S340 1.610 . S
N342 C343 1.351 . S
C343 C337 1.428 . S
C343 N342 1.351 . S
C343 C344 1.434 . S
C344 C335 1.429 . S
C344 N341 1.350 . S
C344 C343 1.434 . S
C345 C346 1.369 . S
C345 C347 1.419 . S
C345 H349 0.930 . S
C346 C345 1.369 . S
C346 C355 1.429 . S
C347 C345 1.419 . S
C347 C348 1.363 . S
C347 H350 0.929 . S
C348 C347 1.363 . S
C348 C354 1.428 . S
H349 C345 0.930 . S
H350 C347 0.929 . S
S351 N352 1.613 . S
S351 N353 1.610 . S
N352 S351 1.613 . S
N352 C355 1.350 . S
N353 S351 1.610 . S
N353 C354 1.351 . S
C354 C348 1.428 . S
C354 N353 1.351 . S
C354 C355 1.434 . S
C355 C346 1.429 . S
C355 N352 1.350 . S
C355 C354 1.434 . S
C356 C357 1.369 . S
C356 C358 1.419 1_455 S
C356 H360 0.930 . S
C357 C356 1.369 . S
C357 C366 1.429 . S
C358 C356 1.419 1_655 S
C358 C359 1.363 . S
C358 H361 0.929 . S
C359 C358 1.363 . S
C359 C365 1.428 . S
H360 C356 0.930 . S
H361 C358 0.929 . S
S362 N363 1.613 1_655 S
S362 N364 1.610 . S
N363 S362 1.613 1_455 S
N363 C366 1.350 . S
N364 S362 1.610 . S
N364 C365 1.351 . S
C365 C359 1.428 . S
C365 N364 1.351 . S
C365 C366 1.434 1_655 S
C366 C357 1.429 . S
C366 N363 1.350 . S
C366 C365 1.434 1_455 S
C367 C368 1.369 . S
C367 C369 1.419 . S
C367 H371 0.930 . S
C368 C367 1.369 . S
C368 C377 1.429 . S
C369 C367 1.419 . S
C369 C370 1.363 . S
C369 H372 0.929 . S
C370 C369 1.363 . S
C370 C376 1.428 . S
H371 C367 0.930 . S
H372 C369 0.929 . S
S373 N374 1.613 . S
S373 N375 1.610 . S
N374 S373 1.613 . S
N374 C377 1.350 . S
N375 S373 1.610 . S
N375 C376 1.351 . S
C376 C370 1.428 . S
C376 N375 1.351 . S
C376 C377 1.434 . S
C377 C368 1.429 . S
C377 N374 1.350 . S
C377 C376 1.434 . S
C378 C379 1.369 . S
C378 C380 1.419 . S
C378 H382 0.930 . S
C379 C378 1.369 . S
C379 C388 1.429 . S
C380 C378 1.419 . S
C380 C381 1.363 . S
C380 H383 0.929 . S
C381 C380 1.363 . S
C381 C387 1.428 . S
H382 C378 0.930 . S
H383 C380 0.929 . S
S384 N385 1.613 . S
S384 N386 1.610 . S
N385 S384 1.613 . S
N385 C388 1.350 . S
N386 S384 1.610 . S
N386 C387 1.351 . S
C387 C381 1.428 . S
C387 N386 1.351 . S
C387 C388 1.434 . S
C388 C379 1.429 . S
C388 N385 1.350 . S
C388 C387 1.434 . S
C389 C390 1.369 . S
C389 C391 1.419 1_455 S
C389 H393 0.930 . S
C390 C389 1.369 . S
C390 C399 1.429 . S
C391 C389 1.419 1_655 S
C391 C392 1.363 . S
C391 H394 0.929 . S
C392 C391 1.363 . S
C392 C398 1.428 . S
H393 C389 0.930 . S
H394 C391 0.929 . S
S395 N396 1.613 1_655 S
S395 N397 1.610 . S
N396 S395 1.613 1_455 S
N396 C399 1.350 . S
N397 S395 1.610 . S
N397 C398 1.351 . S
C398 C392 1.428 . S
C398 N397 1.351 . S
C398 C399 1.434 1_655 S
C399 C390 1.429 . S
C399 N396 1.350 . S
C399 C398 1.434 1_455 S
C400 C401 1.369 . S
C400 C402 1.419 1_554 S
C400 H404 0.930 . S
C401 C400 1.369 . S
C401 C410 1.429 . S
C402 C400 1.419 1_556 S
C402 C403 1.363 . S
C402 H405 0.929 . S
C403 C402 1.363 . S
C403 C409 1.428 . S
H404 C400 0.930 . S
H405 C402 0.929 . S
S406 N407 1.613 1_556 S
S406 N408 1.610 . S
N407 S406 1.613 1_554 S
N407 C410 1.350 . S
N408 S406 1.610 . S
N408 C409 1.351 . S
C409 C403 1.428 . S
C409 N408 1.351 . S
C409 C410 1.434 1_556 S
C410 C401 1.429 . S
C410 N407 1.350 . S
C410 C409 1.434 1_554 S
C411 C412 1.369 . S
C411 C413 1.419 . S
C411 H415 0.930 . S
C412 C411 1.369 . S
C412 C421 1.429 . S
C413 C411 1.419 . S
C413 C414 1.363 . S
C413 H416 0.929 . S
C414 C413 1.363 . S
C414 C420 1.428 . S
H415 C411 0.930 . S
H416 C413 0.929 . S
S417 N418 1.613 . S
S417 N419 1.610 . S
N418 S417 1.613 . S
N418 C421 1.350 . S
N419 S417 1.610 . S
N419 C420 1.351 . S
C420 C414 1.428 . S
C420 N419 1.351 . S
C420 C421 1.434 . S
C421 C412 1.429 . S
C421 N418 1.350 . S
C421 C420 1.434 . S
C422 C423 1.369 . S
C422 C424 1.419 . S
C422 H426 0.930 . S
C423 C422 1.369 . S
C423 C432 1.429 . S
C424 C422 1.419 . S
C424 C425 1.363 . S
C424 H427 0.929 . S
C425 C424 1.363 . S
C425 C431 1.428 . S
H426 C422 0.930 . S
H427 C424 0.929 . S
S428 N429 1.613 . S
S428 N430 1.610 . S
N429 S428 1.613 . S
N429 C432 1.350 . S
N430 S428 1.610 . S
N430 C431 1.351 . S
C431 C425 1.428 . S
C431 N430 1.351 . S
C431 C432 1.434 . S
C432 C423 1.429 . S
C432 N429 1.350 . S
C432 C431 1.434 . S
C433 C434 1.369 . S
C433 C435 1.419 . S
C433 H437 0.930 . S
C434 C433 1.369 . S
C434 C443 1.429 . S
C435 C433 1.419 . S
C435 C436 1.363 . S
C435 H438 0.929 . S
C436 C435 1.363 . S
C436 C442 1.428 . S
H437 C433 0.930 . S
H438 C435 0.929 . S
S439 N440 1.613 . S
S439 N441 1.610 . S
N440 S439 1.613 . S
N440 C443 1.350 . S
N441 S439 1.610 . S
N441 C442 1.351 . S
C442 C436 1.428 . S
C442 N441 1.351 . S
C442 C443 1.434 . S
C443 C434 1.429 . S
C443 N440 1.350 . S
C443 C442 1.434 . S
C444 C445 1.369 . S
C444 C446 1.419 1_556 S
C444 H448 0.930 . S
C445 C444 1.369 . S
C445 C454 1.429 1_556 S
C446 C444 1.419 1_554 S
C446 C447 1.363 . S
C446 H449 0.929 . S
C447 C446 1.363 . S
C447 C453 1.428 . S
H448 C444 0.930 . S
H449 C446 0.929 . S
S450 N451 1.613 . S
S450 N452 1.610 . S
N451 S450 1.613 . S
N451 C454 1.350 . S
N452 S450 1.610 . S
N452 C453 1.351 . S
C453 C447 1.428 . S
C453 N452 1.351 . S
C453 C454 1.434 . S
C454 C445 1.429 1_554 S
C454 N451 1.350 . S
C454 C453 1.434 . S
C455 C456 1.369 . S
C455 C457 1.419 . S
C455 H459 0.930 . S
C456 C455 1.369 . S
C456 C465 1.429 . S
C457 C455 1.419 . S
C457 C458 1.363 . S
C457 H460 0.929 . S
C458 C457 1.363 . S
C458 C464 1.428 . S
H459 C455 0.930 . S
H460 C457 0.929 . S
S461 N462 1.613 . S
S461 N463 1.610 . S
N462 S461 1.613 . S
N462 C465 1.350 . S
N463 S461 1.610 . S
N463 C464 1.351 . S
C464 C458 1.428 . S
C464 N463 1.351 . S
C464 C465 1.434 . S
C465 C456 1.429 . S
C465 N462 1.350 . S
C465 C464 1.434 . S
C466 C467 1.369 . S
C466 C468 1.419 . S
C466 H470 0.930 . S
C467 C466 1.369 . S
C467 C476 1.429 . S
C468 C466 1.419 . S
C468 C469 1.363 . S
C468 H471 0.929 . S
C469 C468 1.363 . S
C469 C475 1.428 . S
H470 C466 0.930 . S
H471 C468 0.929 . S
S472 N473 1.613 . S
S472 N474 1.610 . S
N473 S472 1.613 . S
N473 C476 1.350 . S
N474 S472 1.610 . S
N474 C475 1.351 . S
C475 C469 1.428 . S
C475 N474 1.351 . S
C475 C476 1.434 . S
C476 C467 1.429 . S
C476 N473 1.350 . S
C476 C475 1.434 . S
C477 C478 1.369 . S
C477 C479 1.419 . S
C477 H481 0.930 . S
C478 C477 1.369 . S
C478 C487 1.429 . S
C479 C477 1.419 . S
C479 C480 1.363 . S
C479 H482 0.929 . S
C480 C479 1.363 . S
C480 C486 1.428 . S
H481 C477 0.930 . S
H482 C479 0.929 . S
S483 N484 1.613 . S
S483 N485 1.610 . S
N484 S483 1.613 . S
N484 C487 1.350 . S
N485 S483 1.610 . S
N485 C486 1.351 . S
C486 C480 1.428 . S
C486 N485 1.351 . S
C486 C487 1.434 . S
C487 C478 1.429 . S
C487 N484 1.350 . S
C487 C486 1.434 . S
C488 C489 1.369 . S
C488 C490 1.419 1_545 S
C488 H492 0.930 . S
C489 C488 1.369 . S
C489 C498 1.421 1_545 S
C490 C488 1.419 1_565 S
C490 C491 1.363 . S
C490 H493 0.930 . S
C491 C490 1.363 . S
C491 C497 1.428 . S
H492 C488 0.930 . S
H493 C490 0.930 . S
S494 N495 1.613 . S
S494 N496 1.610 . S
N495 S494 1.613 . S
N495 C498 1.351 . S
N496 S494 1.610 . S
N496 C497 1.351 . S
C497 C491 1.428 . S
C497 N496 1.351 . S
C497 C498 1.442 . S
C498 C489 1.421 1_565 S
C498 N495 1.351 . S
C498 C497 1.442 . S
C499 C500 1.369 . S
C499 C501 1.419 . S
C499 H503 0.930 . S
C500 C499 1.369 . S
C500 C509 1.429 . S
C501 C499 1.419 . S
C501 C502 1.363 . S
C501 H504 0.929 . S
C502 C501 1.363 . S
C502 C508 1.428 . S
H503 C499 0.930 . S
H504 C501 0.929 . S
S505 N506 1.613 . S
S505 N507 1.610 . S
N506 S505 1.613 . S
N506 C509 1.350 . S
N507 S505 1.610 . S
N507 C508 1.351 . S
C508 C502 1.428 . S
C508 N507 1.351 . S
C508 C509 1.434 . S
C509 C500 1.429 . S
C509 N506 1.350 . S
C509 C508 1.434 . S
C510 C511 1.369 1_565 S
C510 C512 1.419 . S
C510 H514 0.930 . S
C511 C510 1.369 1_545 S
C511 C520 1.429 1_556 S
C512 C510 1.419 . S
C512 C513 1.363 1_556 S
C512 H515 0.929 . S
C513 C512 1.363 1_554 S
C513 C519 1.428 1_565 S
H514 C510 0.930 . S
H515 C512 0.929 . S
S516 N517 1.613 . S
S516 N518 1.610 . S
N517 S516 1.613 . S
N517 C520 1.350 . S
N518 S516 1.610 . S
N518 C519 1.351 . S
C519 C513 1.428 1_545 S
C519 N518 1.351 . S
C519 C520 1.434 . S
C520 C511 1.429 1_554 S
C520 N517 1.350 . S
C520 C519 1.434 . S
C521 C522 1.369 . S
C521 C523 1.419 . S
C521 H525 0.930 . S
C522 C521 1.369 . S
C522 C531 1.429 . S
C523 C521 1.419 . S
C523 C524 1.363 . S
C523 H526 0.929 . S
C524 C523 1.363 . S
C524 C530 1.428 . S
H525 C521 0.930 . S
H526 C523 0.929 . S
S527 N528 1.613 . S
S527 N529 1.610 . S
N528 S527 1.613 . S
N528 C531 1.350 . S
N529 S527 1.610 . S
N529 C530 1.351 . S
C530 C524 1.428 . S
C530 N529 1.351 . S
C530 C531 1.434 . S
C531 C522 1.429 . S
C531 N528 1.350 . S
C531 C530 1.434 . S
C532 C533 1.369 . S
C532 C534 1.419 . S
C532 H536 0.930 . S
C533 C532 1.369 . S
C533 C542 1.429 . S
C534 C532 1.419 . S
C534 C535 1.363 1_545 S
C534 H537 0.929 . S
C535 C534 1.363 1_565 S
C535 C541 1.428 . S
H536 C532 0.930 . S
H537 C534 0.929 . S
S538 N539 1.613 1_565 S
S538 N540 1.610 . S
N539 S538 1.613 1_545 S
N539 C542 1.350 . S
N540 S538 1.610 . S
N540 C541 1.351 . S
C541 C535 1.428 . S
C541 N540 1.351 . S
C541 C542 1.434 1_565 S
C542 C533 1.429 . S
C542 N539 1.350 . S
C542 C541 1.434 1_545 S
C543 C544 1.369 . S
C543 C545 1.419 . S
C543 H547 0.930 . S
C544 C543 1.369 . S
C544 C553 1.429 . S
C545 C543 1.419 . S
C545 C546 1.363 . S
C545 H548 0.929 . S
C546 C545 1.363 . S
C546 C552 1.428 . S
H547 C543 0.930 . S
H548 C545 0.929 . S
S549 N550 1.613 . S
S549 N551 1.610 . S
N550 S549 1.613 . S
N550 C553 1.350 . S
N551 S549 1.610 . S
N551 C552 1.351 . S
C552 C546 1.428 . S
C552 N551 1.351 . S
C552 C553 1.434 . S
C553 C544 1.429 . S
C553 N550 1.350 . S
C553 C552 1.434 . S
C554 C555 1.369 1_556 S
C554 C556 1.419 1_565 S
C554 H558 0.930 . S
C555 C554 1.369 1_554 S
C555 C564 1.429 1_565 S
C556 C554 1.419 1_545 S
C556 C557 1.363 . S
C556 H559 0.929 1_545 S
C557 C556 1.363 . S
C557 C563 1.428 1_556 S
H558 C554 0.930 . S
H559 C556 0.929 1_565 S
S560 N561 1.613 . S
S560 N562 1.610 . S
N561 S560 1.613 . S
N561 C564 1.350 . S
N562 S560 1.610 . S
N562 C563 1.351 . S
C563 C557 1.428 1_554 S
C563 N562 1.351 . S
C563 C564 1.434 . S
C564 C555 1.429 1_545 S
C564 N561 1.350 . S
C564 C563 1.434 . S
C565 C566 1.369 . S
C565 C567 1.419 . S
C565 H569 0.930 . S
C566 C565 1.369 . S
C566 C575 1.429 . S
C567 C565 1.419 . S
C567 C568 1.363 . S
C567 H570 0.929 . S
C568 C567 1.363 . S
C568 C574 1.428 . S
H569 C565 0.930 . S
H570 C567 0.929 . S
S571 N572 1.613 . S
S571 N573 1.610 . S
N572 S571 1.613 . S
N572 C575 1.350 . S
N573 S571 1.610 . S
N573 C574 1.351 . S
C574 C568 1.428 . S
C574 N573 1.351 . S
C574 C575 1.434 . S
C575 C566 1.429 . S
C575 N572 1.350 . S
C575 C574 1.434 . S
C225 C163 1.415 . S
C227 C7 1.425 . S
C236 C217 1.439 . S
C238 C23 1.407 . S
C247 C35 1.422 . S
C249 C133 1.423 . S
C258 C191 1.323 . S
C260 C51 1.323 . S
C269 C63 1.416 . S
C271 C189 1.419 . S
C280 C79 1.431 . S
C282 C161 1.448 . S
C291 C91 1.438 . S
C293 C219 1.429 . S
C302 C107 1.306 . S
C304 C135 1.318 . S
C313 C49 1.461 . S
C315 C119 1.458 . S
C324 C149 1.389 . S
C326 C21 1.389 . S
C335 C175 1.476 . S
C337 C77 1.481 . S
C346 C205 1.374 . S
C348 C105 1.370 . S
C357 C65 1.370 . S
C359 C121 1.382 . S
C368 C147 1.387 . S
C370 C93 1.361 . S
C379 C203 1.389 . S
C381 C37 1.373 . S
C390 C9 1.366 . S
C392 C177 1.375 . S
C401 C3 1.355 . S
C403 C59 1.354 . S
C412 C22 1.383 . S
C414 C78 1.385 . S
C423 C31 1.455 . S
C425 C87 1.454 . S
C434 C106 1.319 . S
C436 C50 1.322 . S
C445 C115 1.407 . S
C447 C171 1.403 . S
C456 C190 1.304 . S
C458 C134 1.305 . S
C467 C148 1.314 . S
C469 C204 1.314 . S
C478 C213 1.422 . S
C480 C157 1.414 . S
C489 C101 1.396 . S
C491 C17 1.400 . S
C500 C36 1.393 . S
C502 C64 1.396 . S
C511 C45 1.413 . S
C513 C73 1.413 . S
C522 C8 1.304 . S
C524 C92 1.307 . S
C533 C129 1.343 . S
C535 C218 1.354 . S
C544 C176 1.378 . S
C546 C143 1.363 . S
C555 C162 1.372 . S
C557 C185 1.364 . S
C566 C199 1.342 . S
C568 C120 1.362 . S
