# Generated by pormake.
# Topology und, (4)-cn, num edge types: 1
# Building blocks:
#     Node 0, Type 0, BuildingBlock: QUQFOY_clean_sbu_1, # of connection points: 4
#     Node 1, Type 0, BuildingBlock: QUQFOY_clean_sbu_1, # of connection points: 4
#     Node 2, Type 0, BuildingBlock: QUQFOY_clean_sbu_1, # of connection points: 4
#     Node 3, Type 0, BuildingBlock: QUQFOY_clean_sbu_1, # of connection points: 4
#     Node 4, Type 0, BuildingBlock: QUQFOY_clean_sbu_1, # of connection points: 4
#     Node 5, Type 0, BuildingBlock: QUQFOY_clean_sbu_1, # of connection points: 4
#     Node 6, Type 0, BuildingBlock: QUQFOY_clean_sbu_1, # of connection points: 4
#     Node 7, Type 0, BuildingBlock: QUQFOY_clean_sbu_1, # of connection points: 4
#     Node 8, Type 0, BuildingBlock: QUQFOY_clean_sbu_1, # of connection points: 4
#     Node 9, Type 0, BuildingBlock: QUQFOY_clean_sbu_1, # of connection points: 4
#     Node 10, Type 0, BuildingBlock: QUQFOY_clean_sbu_1, # of connection points: 4
#     Node 11, Type 0, BuildingBlock: QUQFOY_clean_sbu_1, # of connection points: 4
#     Node 12, Type 0, BuildingBlock: QUQFOY_clean_sbu_1, # of connection points: 4
#     Node 13, Type 0, BuildingBlock: QUQFOY_clean_sbu_1, # of connection points: 4
#     Node 14, Type 0, BuildingBlock: QUQFOY_clean_sbu_1, # of connection points: 4
#     Node 15, Type 0, BuildingBlock: QUQFOY_clean_sbu_1, # of connection points: 4
#     Edge 16, Type (0, 0), BuildingBlock: KIFKEQ_clean_linker_1, # of connection points: 2
#     Edge 17, Type (0, 0), BuildingBlock: KIFKEQ_clean_linker_1, # of connection points: 2
#     Edge 18, Type (0, 0), BuildingBlock: KIFKEQ_clean_linker_1, # of connection points: 2
#     Edge 19, Type (0, 0), BuildingBlock: KIFKEQ_clean_linker_1, # of connection points: 2
#     Edge 20, Type (0, 0), BuildingBlock: KIFKEQ_clean_linker_1, # of connection points: 2
#     Edge 21, Type (0, 0), BuildingBlock: KIFKEQ_clean_linker_1, # of connection points: 2
#     Edge 22, Type (0, 0), BuildingBlock: KIFKEQ_clean_linker_1, # of connection points: 2
#     Edge 23, Type (0, 0), BuildingBlock: KIFKEQ_clean_linker_1, # of connection points: 2
#     Edge 24, Type (0, 0), BuildingBlock: KIFKEQ_clean_linker_1, # of connection points: 2
#     Edge 25, Type (0, 0), BuildingBlock: KIFKEQ_clean_linker_1, # of connection points: 2
#     Edge 26, Type (0, 0), BuildingBlock: KIFKEQ_clean_linker_1, # of connection points: 2
#     Edge 27, Type (0, 0), BuildingBlock: KIFKEQ_clean_linker_1, # of connection points: 2
#     Edge 28, Type (0, 0), BuildingBlock: KIFKEQ_clean_linker_1, # of connection points: 2
#     Edge 29, Type (0, 0), BuildingBlock: KIFKEQ_clean_linker_1, # of connection points: 2
#     Edge 30, Type (0, 0), BuildingBlock: KIFKEQ_clean_linker_1, # of connection points: 2
#     Edge 31, Type (0, 0), BuildingBlock: KIFKEQ_clean_linker_1, # of connection points: 2
#     Edge 32, Type (0, 0), BuildingBlock: KIFKEQ_clean_linker_1, # of connection points: 2
#     Edge 33, Type (0, 0), BuildingBlock: KIFKEQ_clean_linker_1, # of connection points: 2
#     Edge 34, Type (0, 0), BuildingBlock: KIFKEQ_clean_linker_1, # of connection points: 2
#     Edge 35, Type (0, 0), BuildingBlock: KIFKEQ_clean_linker_1, # of connection points: 2
#     Edge 36, Type (0, 0), BuildingBlock: KIFKEQ_clean_linker_1, # of connection points: 2
#     Edge 37, Type (0, 0), BuildingBlock: KIFKEQ_clean_linker_1, # of connection points: 2
#     Edge 38, Type (0, 0), BuildingBlock: KIFKEQ_clean_linker_1, # of connection points: 2
#     Edge 39, Type (0, 0), BuildingBlock: KIFKEQ_clean_linker_1, # of connection points: 2
#     Edge 40, Type (0, 0), BuildingBlock: KIFKEQ_clean_linker_1, # of connection points: 2
#     Edge 41, Type (0, 0), BuildingBlock: KIFKEQ_clean_linker_1, # of connection points: 2
#     Edge 42, Type (0, 0), BuildingBlock: KIFKEQ_clean_linker_1, # of connection points: 2
#     Edge 43, Type (0, 0), BuildingBlock: KIFKEQ_clean_linker_1, # of connection points: 2
#     Edge 44, Type (0, 0), BuildingBlock: KIFKEQ_clean_linker_1, # of connection points: 2
#     Edge 45, Type (0, 0), BuildingBlock: KIFKEQ_clean_linker_1, # of connection points: 2
#     Edge 46, Type (0, 0), BuildingBlock: KIFKEQ_clean_linker_1, # of connection points: 2
#     Edge 47, Type (0, 0), BuildingBlock: KIFKEQ_clean_linker_1, # of connection points: 2
# Relax obj value: 0.048
# Max RMSD: 0.110
# Mean RMSD: 0.092
data_MOF--net-und--node1-QUQFOY_clean_sbu_1--edge1-KIFKEQ_clean_linker_1
_symmetry_space_group_name_H-M    P1
_symmetry_Int_Tables_number       1
_symmetry_cell_setting            triclinic
loop_
_symmetry_equiv_pos_as_xyz
'x, y, z'
_cell_length_a     62.215649
_cell_length_b     62.228487
_cell_length_c     23.423622
_cell_angle_alpha  90.006079
_cell_angle_beta   89.989637
_cell_angle_gamma 93.914117
loop_
_atom_site_label
_atom_site_type_symbol
_atom_site_fract_x
_atom_site_fract_y
_atom_site_fract_z
_atom_type_partial_charge
O0 O 0.27405 0.36635 0.93799 0.0
Cd1 Cd 0.27761 0.38793 0.00375 0.0
Cd2 Cd 0.2453 0.40497 0.94907 0.0
O3 O 0.24415 0.37705 0.90025 0.0
O4 O 0.29524 0.37244 0.05898 0.0
O5 O 0.2617 0.38019 0.07644 0.0
C6 C 0.27858 0.37066 0.09179 0.0
C7 C 0.21622 0.41633 0.00109 0.0
C8 C 0.25891 0.36387 0.90182 0.0
C9 C 0.28802 0.43074 0.95083 0.0
O10 O 0.26918 0.42852 0.92965 0.0
O11 O 0.2944 0.41687 0.98571 0.0
O12 O 0.21747 0.41913 0.94652 0.0
O13 O 0.23105 0.40609 0.02571 0.0
O14 O 0.90238 0.0598 0.31199 0.0
Cd15 Cd 0.92591 0.08385 0.29367 0.0
Cd16 Cd 0.94335 0.05178 0.23848 0.0
O17 O 0.91444 0.03482 0.25586 0.0
O18 O 0.91156 0.11156 0.29697 0.0
O19 O 0.92494 0.09851 0.21749 0.0
C20 C 0.91452 0.11313 0.24251 0.0
C21 C 0.96075 0.05067 0.15057 0.0
C22 C 0.90036 0.04102 0.29043 0.0
C23 C 0.96708 0.07043 0.34116 0.0
O24 O 0.96484 0.05543 0.30451 0.0
O25 O 0.9537 0.08501 0.34303 0.0
O26 O 0.95899 0.0341 0.18366 0.0
O27 O 0.95119 0.06756 0.16562 0.0
O28 O 0.26164 0.75503 0.44743 0.0
Cd29 Cd 0.25853 0.73262 0.51125 0.0
Cd30 Cd 0.2915 0.71692 0.45628 0.0
O31 O 0.2923 0.74571 0.41103 0.0
O32 O 0.24033 0.74683 0.56792 0.0
O33 O 0.27413 0.73982 0.58462 0.0
C34 C 0.25696 0.74864 0.60087 0.0
C35 C 0.32002 0.7058 0.5111 0.0
C36 C 0.27709 0.75839 0.41253 0.0
C37 C 0.24944 0.69034 0.45347 0.0
O38 O 0.26829 0.69324 0.43255 0.0
O39 O 0.24279 0.70348 0.49005 0.0
O40 O 0.3203 0.70441 0.45607 0.0
O41 O 0.30391 0.7144 0.5347 0.0
O42 O 0.6371 0.06162 0.81556 0.0
Cd43 Cd 0.61325 0.03934 0.78777 0.0
Cd44 Cd 0.60058 0.0734 0.73555 0.0
O45 O 0.63203 0.08539 0.74798 0.0
O46 O 0.62468 1.00989 0.78991 0.0
O47 O 0.61762 0.02704 0.71008 0.0
C48 C 0.62495 1.0105 0.73476 0.0
C49 C 0.5821 0.0705 0.64938 0.0
C50 C 0.64307 0.07897 0.78959 0.0
C51 C 0.57427 0.05773 0.83377 0.0
O52 O 0.58066 0.07427 0.80511 0.0
O53 O 0.58342 0.04017 0.82754 0.0
O54 O 0.58659 0.08908 0.67265 0.0
O55 O 0.58946 0.05379 0.67315 0.0
O56 O 0.79229 0.75899 0.93945 0.0
Cd57 Cd 0.7977 0.73675 0.0018 0.0
Cd58 Cd 0.7552 0.73274 -0.00286 0.0
O59 O 0.7583 0.74936 0.92073 0.0
O60 O 0.8279 0.7295 0.98738 0.0
O61 O 0.79993 0.70574 0.97872 0.0
C62 C 0.82039 0.71043 0.97294 0.0
C63 C 0.72985 0.70424 0.01514 0.0
C64 C 0.77549 0.76083 0.90952 0.0
C65 C 0.77637 0.75432 0.10057 0.0
O66 O 0.75981 0.75112 0.06932 0.0
O67 O 0.79433 0.74771 0.08461 0.0
O68 O 0.72424 0.72348 0.00588 0.0
O69 O 0.74991 0.70063 0.00869 0.0
O70 O 0.07462 0.03853 0.80822 0.0
Cd71 Cd 0.09666 0.03444 0.74441 0.0
Cd72 Cd 0.10092 0.07618 0.75275 0.0
O73 O 0.08548 0.07189 0.83067 0.0
O74 O 0.10571 1.00442 0.75282 0.0
O75 O 0.12758 0.03338 0.7685 0.0
C76 C 0.12425 1.01265 0.76965 0.0
C77 C 0.13201 0.09795 0.73379 0.0
C78 C 0.07359 0.05483 0.84055 0.0
C79 C 0.07817 0.05772 0.64948 0.0
O80 O 0.08113 0.07374 0.6828 0.0
O81 O 0.08555 0.03977 0.66248 0.0
O82 O 0.11423 0.10611 0.74781 0.0
O83 O 0.13264 0.07725 0.73571 0.0
O84 O 0.74443 0.36117 0.4394 0.0
Cd85 Cd 0.73956 0.38365 0.50176 0.0
Cd86 Cd 0.78194 0.38781 0.497 0.0
O87 O 0.77838 0.37113 0.42065 0.0
O88 O 0.70982 0.39289 0.49023 0.0
O89 O 0.73911 0.41455 0.47671 0.0
C90 C 0.71837 0.41138 0.47403 0.0
C91 C 0.80737 0.41624 0.51508 0.0
C92 C 0.76126 0.35952 0.40936 0.0
C93 C 0.76119 0.36652 0.60088 0.0
O94 O 0.77769 0.36952 0.56936 0.0
O95 O 0.74323 0.37307 0.58485 0.0
O96 O 0.81295 0.39703 0.50514 0.0
O97 O 0.78731 0.4199 0.50884 0.0
O98 O 0.46541 0.08034 0.31954 0.0
Cd99 Cd 0.4459 0.08737 0.2516 0.0
Cd100 Cd 0.44271 0.04456 0.24902 0.0
O101 O 0.45704 0.04547 0.32826 0.0
O102 O 0.43948 0.1177 0.26758 0.0
O103 O 0.41442 0.0907 0.26773 0.0
C104 C 0.41976 0.11085 0.27693 0.0
C105 C 0.41443 0.02039 0.22099 0.0
C106 C 0.467 0.0627 0.34605 0.0
C107 C 0.46737 0.06814 0.15458 0.0
O108 O 0.46362 0.05098 0.1831 0.0
O109 O 0.45949 0.08551 0.17053 0.0
O110 O 0.4333 1.01413 0.2321 0.0
O111 O 0.41096 0.0403 0.23079 0.0
O112 O 0.77728 0.86792 0.44505 0.0
Cd113 Cd 0.77977 0.88994 0.50992 0.0
Cd114 Cd 0.74761 0.90609 0.45318 0.0
O115 O 0.74694 0.87745 0.40728 0.0
O116 O 0.7974 0.87528 0.56696 0.0
O117 O 0.76351 0.88227 0.5821 0.0
C118 C 0.78051 0.87329 0.59889 0.0
C119 C 0.71885 0.91728 0.50701 0.0
C120 C 0.76212 0.86473 0.40922 0.0
C121 C 0.78986 0.93235 0.45397 0.0
O122 O 0.77127 0.92962 0.43142 0.0
O123 O 0.79596 0.91908 0.49095 0.0
O124 O 0.71898 0.91895 0.45202 0.0
O125 O 0.73468 0.90837 0.53107 0.0
O126 O 0.39977 0.55865 0.80886 0.0
Cd127 Cd 0.42379 0.58195 0.78883 0.0
Cd128 Cd 0.43896 0.54993 0.72912 0.0
O129 O 0.40901 0.53482 0.74511 0.0
O130 O 0.41163 0.61097 0.79292 0.0
O131 O 0.42147 0.59584 0.71237 0.0
C132 C 0.41297 0.61159 0.73788 0.0
C133 C 0.4557 0.55207 0.64015 0.0
C134 C 0.3962 0.54066 0.78361 0.0
C135 C 0.46428 0.56478 0.83176 0.0
O136 O 0.46041 0.54991 0.79534 0.0
O137 O 0.45259 0.58081 0.83356 0.0
O138 O 0.45268 0.53392 0.66652 0.0
O139 O 0.44789 0.5688 0.6626 0.0
O140 O 0.76232 0.25226 0.94373 0.0
Cd141 Cd 0.76077 0.23033 0.00946 0.0
Cd142 Cd 0.79386 0.21639 0.95253 0.0
O143 O 0.79386 0.24515 0.9082 0.0
O144 O 0.74257 0.24428 0.06668 0.0
O145 O 0.77692 0.23898 0.08114 0.0
C146 C 0.7595 0.24714 0.09823 0.0
C147 C 0.82304 0.20516 0.00433 0.0
C148 C 0.77773 0.25668 0.90919 0.0
C149 C 0.75285 0.18808 0.95249 0.0
O150 O 0.77091 0.19264 0.92851 0.0
O151 O 0.74633 0.20011 0.99195 0.0
O152 O 0.82235 0.20341 0.94939 0.0
O153 O 0.80757 0.21426 0.02954 0.0
O154 O 0.13872 0.56236 0.30829 0.0
Cd155 Cd 0.11493 0.53842 0.29125 0.0
Cd156 Cd 0.09812 0.57007 0.23373 0.0
O157 O 0.12733 0.58674 0.2492 0.0
O158 O 0.12883 0.51045 0.29518 0.0
O159 O 0.11558 0.52349 0.21553 0.0
C160 C 0.12578 0.50876 0.24076 0.0
C161 C 0.08037 0.57012 0.14615 0.0
C162 C 0.14115 0.5808 0.28488 0.0
C163 C 0.07427 0.55325 0.33804 0.0
O164 O 0.0769 0.56792 0.30057 0.0
O165 O 0.08712 0.5382 0.34038 0.0
O166 O 0.08257 0.58718 0.17739 0.0
O167 O 0.0897 0.5533 0.16274 0.0
O168 O 0.29033 0.25667 0.43321 0.0
Cd169 Cd 0.29532 0.23499 0.49718 0.0
Cd170 Cd 0.25347 0.23031 0.4898 0.0
O171 O 0.2569 0.24583 0.41181 0.0
O172 O 0.32591 0.22827 0.4863 0.0
O173 O 0.29849 0.20401 0.47553 0.0
C174 C 0.31895 0.20904 0.47169 0.0
C175 C 0.23206 0.19907 0.50936 0.0
C176 C 0.2739 0.25772 0.40144 0.0
C177 C 0.27234 0.25334 0.59262 0.0
O178 O 0.25618 0.25002 0.55993 0.0
O179 O 0.2904 0.24634 0.57898 0.0
O180 O 0.22369 0.2168 0.49604 0.0
O181 O 0.25277 0.19856 0.5064 0.0
O182 O 0.5719 0.53757 0.31058 0.0
Cd183 Cd 0.59214 0.53045 0.24459 0.0
Cd184 Cd 0.59656 0.57375 0.23926 0.0
O185 O 0.57941 0.57275 0.31489 0.0
O186 O 0.60054 0.50064 0.25991 0.0
O187 O 0.62361 0.5293 0.26382 0.0
C188 C 0.61971 0.5088 0.27105 0.0
C189 C 0.62453 0.5993 0.21753 0.0
C190 C 0.56952 0.55568 0.33403 0.0
C191 C 0.57407 0.54962 0.14153 0.0
O192 O 0.57868 0.56718 0.16757 0.0
O193 O 0.57935 0.5319 0.1627 0.0
O194 O 0.60505 0.60456 0.2246 0.0
O195 O 0.62869 0.57966 0.2284 0.0
O196 O 0.24476 0.86274 0.94279 0.0
Cd197 Cd 0.24071 0.88552 0.00482 0.0
Cd198 Cd 0.28287 0.88917 -0.00226 0.0
O199 O 0.27855 0.87249 0.9217 0.0
O200 O 0.21118 0.89539 0.99379 0.0
O201 O 0.24087 0.91635 0.97895 0.0
C202 C 0.22009 0.91361 0.97665 0.0
C203 C 0.30851 0.91759 0.01378 0.0
C204 C 0.26128 0.86094 0.91167 0.0
C205 C 0.26281 0.86822 0.10282 0.0
O206 O 0.27907 0.8709 0.07028 0.0
O207 O 0.24488 0.87514 0.08791 0.0
O208 O 0.31396 0.89834 0.00375 0.0
O209 O 0.2884 0.92125 0.00903 0.0
O210 O 0.96586 0.58177 0.80629 0.0
Cd211 Cd 0.9442 0.58779 0.74299 0.0
Cd212 Cd 0.94022 0.54516 0.74606 0.0
O213 O 0.95621 0.54769 0.82356 0.0
O214 O 0.93759 0.61814 0.75798 0.0
O215 O 0.91312 0.59071 0.76453 0.0
C216 C 0.91826 0.61104 0.77121 0.0
C217 C 0.91189 0.52009 0.72415 0.0
C218 C 0.96758 0.56484 0.83577 0.0
C219 C 0.96277 0.56702 0.64485 0.0
O220 O 0.95935 0.55033 0.67548 0.0
O221 O 0.95589 0.58486 0.66074 0.0
O222 O 0.93101 0.51432 0.73444 0.0
O223 O 0.90822 0.54007 0.73204 0.0
H224 H 0.24511 0.36057 0.16546 0.0
H225 H 0.31113 0.34746 0.13031 0.0
H226 H 0.24366 0.3334 0.24105 0.0
H227 H 0.3095 0.32007 0.20412 0.0
H228 H 0.30695 0.28694 0.37519 0.0
H229 H 0.30768 0.31544 0.30474 0.0
H230 H 0.24311 0.29436 0.25191 0.0
H231 H 0.24207 0.26598 0.32435 0.0
C232 C 0.25936 0.35206 0.17421 0.0
C233 C 0.27825 0.35622 0.142 0.0
C234 C 0.25845 0.33632 0.21703 0.0
C235 C 0.27642 0.32445 0.22844 0.0
C236 C 0.29544 0.32905 0.19705 0.0
C237 C 0.29636 0.34477 0.15454 0.0
C238 C 0.29288 0.28823 0.34848 0.0
C239 C 0.27446 0.27406 0.35534 0.0
C240 C 0.29335 0.3046 0.30785 0.0
C241 C 0.27548 0.3072 0.27252 0.0
C242 C 0.25705 0.29298 0.27899 0.0
C243 C 0.25653 0.27657 0.32006 0.0
H244 H 1.00096 0.04493 0.33816 0.0
H245 H 0.97397 0.09506 0.43757 0.0
H246 H 0.02953 0.04253 0.40806 0.0
H247 H 1.00238 0.09226 0.50852 0.0
H248 H 0.06586 0.0949 0.60207 0.0
H249 H 0.04054 0.0989 0.52438 0.0
H250 H 0.03387 0.02973 0.50409 0.0
H251 H 0.05969 0.02575 0.58118 0.0
C252 C 1.00111 0.05547 0.37499 0.0
C253 C 0.98509 0.07015 0.38242 0.0
C254 C 1.01746 0.05398 0.41525 0.0
C255 C 1.01819 0.06707 0.46411 0.0
C256 C 1.00244 0.08209 0.471 0.0
C257 C 0.98609 0.08366 0.43049 0.0
C258 C 0.05917 0.08052 0.58068 0.0
C259 C 0.0647 0.05997 0.59803 0.0
C260 C 0.04452 0.08283 0.53639 0.0
C261 C 0.03496 0.06465 0.50844 0.0
C262 C 0.04107 0.04411 0.5244 0.0
C263 C 0.05585 0.0418 0.56865 0.0
H264 H 0.29017 0.75836 0.67537 0.0
H265 H 0.22391 0.77083 0.64125 0.0
H266 H 0.2913 0.78499 0.75217 0.0
H267 H 0.22521 0.79772 0.71646 0.0
H268 H 0.22818 0.83142 0.88729 0.0
H269 H 0.22729 0.80268 0.81719 0.0
H270 H 0.29162 0.82385 0.76253 0.0
H271 H 0.2928 0.85239 0.83432 0.0
C272 C 0.27579 0.7666 0.68465 0.0
C273 C 0.25695 0.76247 0.65223 0.0
C274 C 0.27651 0.78203 0.72821 0.0
C275 C 0.25841 0.79364 0.74017 0.0
C276 C 0.23939 0.78894 0.70889 0.0
C277 C 0.23865 0.77352 0.66559 0.0
C278 C 0.24215 0.83006 0.86025 0.0
C279 C 0.26056 0.8443 0.86633 0.0
C280 C 0.2416 0.81356 0.81987 0.0
C281 C 0.25937 0.81092 0.78417 0.0
C282 C 0.27777 0.82522 0.78996 0.0
C283 C 0.27837 0.84172 0.83069 0.0
H284 H 0.47253 0.09682 0.06487 0.0
H285 H 0.49508 0.03764 0.13145 0.0
H286 H 0.49637 0.09415 0.98221 0.0
H287 H 0.51929 0.03549 0.05153 0.0
H288 H 0.54895 0.02503 0.88231 0.0
H289 H 0.5211 0.02795 0.95447 0.0
H290 H 0.533 0.09724 0.95445 0.0
H291 H 0.55997 0.0943 0.88023 0.0
C292 C 0.48263 0.08335 0.06201 0.0
C293 C 0.48179 0.06739 0.10447 0.0
C294 C 0.49635 0.08183 0.01482 0.0
C295 C 0.50967 0.06446 0.00971 0.0
C296 C 0.5089 0.04875 0.05281 0.0
C297 C 0.49507 0.05011 0.09915 0.0
C298 C 0.54548 0.04087 0.8975 0.0
C299 C 0.55676 0.05939 0.87592 0.0
C300 C 0.52959 0.04258 0.93912 0.0
C301 C 0.52492 0.06285 0.96105 0.0
C302 C 0.5359 0.0814 0.93828 0.0
C303 C 0.55151 0.07969 0.89596 0.0
H304 H 0.23067 0.8484 0.16839 0.0
H305 H 0.29988 0.85899 0.15608 0.0
H306 H 0.23496 0.82323 0.24696 0.0
H307 H 0.30415 0.83434 0.2351 0.0
H308 H 0.30301 0.76747 0.31961 0.0
H309 H 0.29962 0.79595 0.24926 0.0
H310 H 0.24653 0.81933 0.34465 0.0
H311 H 0.24957 0.79066 0.41406 0.0
C312 C 0.24676 0.8457 0.18321 0.0
C313 C 0.26491 0.85552 0.15568 0.0
C314 C 0.24925 0.8313 0.22826 0.0
C315 C 0.26994 0.82655 0.24683 0.0
C316 C 0.28802 0.83723 0.22102 0.0
C317 C 0.28554 0.85149 0.17595 0.0
C318 C 0.29076 0.7788 0.32581 0.0
C319 C 0.27651 0.77669 0.37225 0.0
C320 C 0.28884 0.79519 0.28562 0.0
C321 C 0.27271 0.80988 0.2912 0.0
C322 C 0.25887 0.80809 0.33853 0.0
C323 C 0.26073 0.79169 0.37851 0.0
H324 H 0.47857 0.09532 0.41922 0.0
H325 H 0.49021 0.02932 0.38044 0.0
H326 H 0.50666 0.09631 0.49145 0.0
H327 H 0.51931 0.03056 0.45033 0.0
H328 H 0.55817 0.03438 0.6163 0.0
H329 H 0.52948 0.03164 0.54566 0.0
H330 H 0.5438 0.09851 0.50048 0.0
H331 H 0.57159 0.10144 0.57373 0.0
C332 C 0.48717 0.08099 0.42634 0.0
C333 C 0.4822 0.06224 0.39436 0.0
C334 C 0.50351 0.08162 0.46723 0.0
C335 C 0.51567 0.06365 0.47627 0.0
C336 C 0.51024 0.04466 0.44518 0.0
C337 C 0.49354 0.04391 0.40503 0.0
C338 C 0.55532 0.04842 0.59076 0.0
C339 C 0.56706 0.06816 0.60066 0.0
C340 C 0.53885 0.04685 0.55006 0.0
C341 C 0.53399 0.06491 0.51756 0.0
C342 C 0.54654 0.08439 0.52575 0.0
C343 C 0.5627 0.08605 0.56726 0.0
H344 H 0.3043 0.27236 0.66006 0.0
H345 H 0.23509 0.26489 0.64124 0.0
H346 H 0.30013 0.29798 0.73756 0.0
H347 H 0.23093 0.29001 0.71928 0.0
H348 H 0.23399 0.35659 0.80612 0.0
H349 H 0.237 0.32827 0.735 0.0
H350 H 0.28753 0.30191 0.83413 0.0
H351 H 0.2849 0.33038 0.90423 0.0
C352 C 0.28821 0.27588 0.67311 0.0
C353 C 0.27006 0.26672 0.64419 0.0
C354 C 0.28579 0.29054 0.71759 0.0
C355 C 0.26517 0.29622 0.73423 0.0
C356 C 0.24703 0.28636 0.70675 0.0
C357 C 0.24944 0.27183 0.66224 0.0
C358 C 0.24561 0.34465 0.81289 0.0
C359 C 0.25928 0.34585 0.86062 0.0
C360 C 0.2473 0.32836 0.77228 0.0
C361 C 0.26261 0.31288 0.77874 0.0
C362 C 0.27585 0.31378 0.8273 0.0
C363 C 0.27423 0.33007 0.86767 0.0
H364 H 0.06551 0.08647 0.91815 0.0
H365 H 0.04429 0.02176 0.86658 0.0
H366 H 0.03714 0.08549 0.99053 0.0
H367 H 1.01577 0.02106 0.93718 0.0
H368 H 0.98367 0.01789 0.11201 0.0
H369 H 1.01099 0.01926 0.03796 0.0
H370 H 0.99812 0.08519 0.00093 0.0
H371 H 0.97101 0.08401 0.07667 0.0
C372 C 0.05486 0.07205 0.92228 0.0
C373 C 0.05729 0.05417 0.88677 0.0
C374 C 0.03845 0.07156 0.96333 0.0
C375 C 0.02413 0.0532 0.9696 0.0
C376 C 0.02667 0.03535 0.93414 0.0
C377 C 0.04305 0.03579 0.89346 0.0
C378 C 0.98644 0.03263 0.08771 0.0
C379 C 0.97515 0.05085 0.10027 0.0
C380 C 1.00212 0.0334 0.04505 0.0
C381 C 1.00685 0.05237 0.01359 0.0
C382 C 0.99511 0.07044 0.025 0.0
C383 C 0.97941 0.06968 0.06792 0.0
H384 H 0.7437 0.76926 0.83254 0.0
H385 H 0.8083 0.79055 0.88497 0.0
H386 H 0.74479 0.79771 0.76032 0.0
H387 H 0.80908 0.81915 0.81477 0.0
H388 H 0.81312 0.85067 0.63962 0.0
H389 H 0.81136 0.82364 0.71435 0.0
H390 H 0.74519 0.83658 0.74834 0.0
H391 H 0.74678 0.86336 0.6718 0.0
C392 C 0.75809 0.77998 0.82873 0.0
C393 C 0.77596 0.77748 0.86423 0.0
C394 C 0.75864 0.79642 0.78776 0.0
C395 C 0.77704 0.81072 0.78169 0.0
C396 C 0.79479 0.80823 0.81752 0.0
C397 C 0.7943 0.7918 0.858 0.0
C398 C 0.79826 0.84799 0.66343 0.0
C399 C 0.78009 0.85918 0.64974 0.0
C400 C 0.79725 0.83248 0.70648 0.0
C401 C 0.7781 0.82785 0.7373 0.0
C402 C 0.76008 0.83951 0.7248 0.0
C403 C 0.76107 0.85503 0.68142 0.0
H404 H 0.72891 0.32928 0.3842 0.0
H405 H 0.79322 0.35183 0.33234 0.0
H406 H 0.7288 0.30073 0.31375 0.0
H407 H 0.79281 0.32349 0.26004 0.0
H408 H 0.72604 0.26869 0.13872 0.0
H409 H 0.72683 0.2957 0.21355 0.0
H410 H 0.79349 0.28491 0.24799 0.0
H411 H 0.79286 0.2582 0.1714 0.0
C412 C 0.74297 0.32832 0.35729 0.0
C413 C 0.76105 0.34296 0.36382 0.0
C414 C 0.74287 0.31192 0.31667 0.0
C415 C 0.76077 0.30978 0.28105 0.0
C416 C 0.77886 0.32447 0.28733 0.0
C417 C 0.77902 0.34085 0.32837 0.0
C418 C 0.74081 0.27185 0.16265 0.0
C419 C 0.75939 0.26128 0.14904 0.0
C420 C 0.74126 0.28735 0.20577 0.0
C421 C 0.76026 0.29259 0.23674 0.0
C422 C 0.77869 0.28153 0.22434 0.0
C423 C 0.77826 0.26605 0.18089 0.0
H424 H 0.7476 0.28657 0.90833 0.0
H425 H 0.80418 0.26791 0.81887 0.0
H426 H 0.74364 0.31535 0.83961 0.0
H427 H 0.79988 0.29639 0.74924 0.0
H428 H 0.7979 0.35943 0.65853 0.0
H429 H 0.80229 0.33481 0.73751 0.0
H430 H 0.73347 0.31963 0.74096 0.0
H431 H 0.72902 0.34484 0.66248 0.0
C432 C 0.75923 0.28861 0.874 0.0
C433 C 0.7762 0.27487 0.869 0.0
C434 C 0.75686 0.30506 0.83443 0.0
C435 C 0.77137 0.30816 0.78879 0.0
C436 C 0.78857 0.29466 0.78436 0.0
C437 C 0.791 0.27824 0.82411 0.0
C438 C 0.78365 0.35105 0.67658 0.0
C439 C 0.76311 0.35393 0.65394 0.0
C440 C 0.7862 0.33681 0.72162 0.0
C441 C 0.7683 0.32496 0.74495 0.0
C442 C 0.74761 0.3286 0.72417 0.0
C443 C 0.74503 0.34302 0.67918 0.0
H444 H 0.80876 0.77503 0.16362 0.0
H445 H 0.73957 0.76316 0.15573 0.0
H446 H 0.80465 0.80052 0.24165 0.0
H447 H 0.73552 0.78815 0.23406 0.0
H448 H 0.73608 0.85528 0.31671 0.0
H449 H 0.73964 0.82679 0.24642 0.0
H450 H 0.79361 0.80447 0.3402 0.0
H451 H 0.79037 0.83311 0.4096 0.0
C452 C 0.79273 0.77753 0.17927 0.0
C453 C 0.77451 0.76724 0.15314 0.0
C454 C 0.79035 0.79212 0.22398 0.0
C455 C 0.76971 0.79659 0.24355 0.0
C456 C 0.7516 0.78547 0.21915 0.0
C457 C 0.75396 0.77102 0.17448 0.0
C458 C 0.74858 0.84419 0.32253 0.0
C459 C 0.76298 0.84657 0.3686 0.0
C460 C 0.75059 0.8278 0.2824 0.0
C461 C 0.76699 0.81338 0.28761 0.0
C462 C 0.78104 0.81549 0.33442 0.0
C463 C 0.77907 0.83187 0.37439 0.0
H464 H 0.54939 0.51681 0.08959 0.0
H465 H 0.56928 0.58447 0.07439 0.0
H466 H 0.52379 0.52037 0.01125 0.0
H467 H 0.54413 0.58791 -0.00375 0.0
H468 H 0.49175 0.53244 0.83865 0.0
H469 H 0.52002 0.52804 0.90865 0.0
H470 H 0.50501 0.58756 0.98961 0.0
H471 H 0.47688 0.59219 0.91906 0.0
C472 C 0.54862 0.53229 0.06881 0.0
C473 C 0.56116 0.55039 0.08861 0.0
C474 C 0.53396 0.53436 0.02402 0.0
C475 C 0.53167 0.55454 -0.00173 0.0
C476 C 0.54511 0.57229 0.01612 0.0
C477 C 0.55964 0.57025 0.06071 0.0
C478 C 0.49452 0.54469 0.87119 0.0
C479 C 0.48202 0.56272 0.87319 0.0
C480 C 0.51066 0.54205 0.91151 0.0
C481 C 0.51477 0.55742 0.95466 0.0
C482 C 0.50244 0.57556 0.95638 0.0
C483 C 0.48624 0.57819 0.91609 0.0
H484 H 0.06527 0.52766 0.43169 0.0
H485 H 0.04287 0.58176 0.33841 0.0
H486 H 0.03683 0.53129 0.50216 0.0
H487 H 1.01432 0.58507 0.40801 0.0
H488 H 0.98383 0.59971 0.58354 0.0
H489 H 1.00997 0.59598 0.50678 0.0
H490 H 0.99805 0.52679 0.51289 0.0
H491 H 0.9724 0.53047 0.58984 0.0
C492 C 0.05418 0.54017 0.4259 0.0
C493 C 0.05642 0.55443 0.37953 0.0
C494 C 0.03782 0.54221 0.46612 0.0
C495 C 0.02332 0.55852 0.46073 0.0
C496 C 0.02539 0.57255 0.41389 0.0
C497 C 0.04173 0.57054 0.3738 0.0
C498 C 0.98658 0.58376 0.56784 0.0
C499 C 0.97621 0.56541 0.59312 0.0
C500 C 1.00155 0.58159 0.52389 0.0
C501 C 1.00632 0.56104 0.5043 0.0
C502 C 0.99515 0.5428 0.52789 0.0
C503 C 0.98031 0.54495 0.57176 0.0
H504 H 0.07018 0.53618 0.07392 0.0
H505 H 0.05691 0.60231 0.10682 0.0
H506 H 0.0431 0.53437 -0.00196 0.0
H507 H 0.02959 0.60031 0.03293 0.0
H508 H 0.99699 0.59766 0.86203 0.0
H509 H 0.02537 0.59832 0.93267 0.0
H510 H 1.00419 0.53372 0.98502 0.0
H511 H 0.97593 0.53275 0.91214 0.0
C512 C 0.06163 0.55037 0.06466 0.0
C513 C 0.06578 0.56942 0.09621 0.0
C514 C 0.04594 0.54925 0.02167 0.0
C515 C 0.03409 0.56716 0.00947 0.0
C516 C 0.03859 0.58629 0.04048 0.0
C517 C 0.05427 0.58743 0.08307 0.0
C518 C 0.99823 0.58357 0.88863 0.0
C519 C 0.98403 0.56518 0.88157 0.0
C520 C 1.01454 0.58399 0.92941 0.0
C521 C 1.01704 0.56613 0.96483 0.0
C522 C 1.00287 0.54767 0.95796 0.0
C523 C 0.98654 0.54718 0.91662 0.0
H524 H 0.46537 0.52022 0.56665 0.0
H525 H 0.47823 0.58807 0.60022 0.0
H526 H 0.49232 0.52219 0.49124 0.0
H527 H 0.50616 0.58992 0.52722 0.0
H528 H 0.54545 0.58926 0.36212 0.0
H529 H 0.51615 0.58912 0.43142 0.0
H530 H 0.52946 0.52451 0.48225 0.0
H531 H 0.55773 0.52434 0.41076 0.0
C532 C 0.47393 0.53559 0.55763 0.0
C533 C 0.46975 0.55396 0.58934 0.0
C534 C 0.48961 0.5367 0.51488 0.0
C535 C 0.50188 0.55612 0.50372 0.0
C536 C 0.49702 0.57471 0.53407 0.0
C537 C 0.481 0.57367 0.57608 0.0
C538 C 0.54217 0.57514 0.3886 0.0
C539 C 0.55379 0.55679 0.38099 0.0
C540 C 0.52537 0.57503 0.4284 0.0
C541 C 0.5201 0.55668 0.46215 0.0
C542 C 0.53246 0.53869 0.45592 0.0
C543 C 0.54891 0.53866 0.41542 0.0
H544 H 0.11596 0.4954 0.13193 0.0
H545 H 0.15748 0.48342 0.2744 0.0
H546 H 0.13438 0.46967 0.07437 0.0
H547 H 0.17673 0.45876 0.21639 0.0
H548 H 0.20387 0.40738 0.11128 0.0
H549 H 0.17865 0.42625 0.16942 0.0
H550 H 0.16655 0.46755 0.02604 0.0
H551 H 0.1907 0.44787 0.9676 0.0
C552 C 0.12898 0.48718 0.151 0.0
C553 C 0.1353 0.4915 0.20763 0.0
C554 C 0.13971 0.47255 0.11785 0.0
C555 C 0.15733 0.46219 0.14017 0.0
C556 C 0.1631 0.46604 0.19761 0.0
C557 C 0.15211 0.48035 0.23099 0.0
C558 C 0.19551 0.42027 0.09208 0.0
C559 C 0.19932 0.42616 0.03491 0.0
C560 C 0.18116 0.43125 0.12554 0.0
C561 C 0.17059 0.4487 0.10295 0.0
C562 C 0.17398 0.45406 0.04507 0.0
C563 C 0.18801 0.44282 0.01142 0.0
H564 H 0.78097 0.96793 0.39165 0.0
H565 H 0.83346 0.93618 0.46843 0.0
H566 H 0.80685 0.99491 0.3499 0.0
H567 H 0.85917 0.96296 0.42613 0.0
H568 H 0.89737 0.99721 0.28025 0.0
H569 H 0.86991 0.97182 0.32106 0.0
H570 H 0.8356 0.02475 0.38519 0.0
H571 H 0.8632 0.05029 0.34498 0.0
C572 C 0.79798 0.96681 0.4 0.0
C573 C 0.80517 0.9499 0.4333 0.0
C574 C 0.81275 0.98224 0.37615 0.0
C575 C 0.83497 0.98083 0.38436 0.0
C576 C 0.84212 0.96423 0.41859 0.0
C577 C 0.82738 0.94902 0.44317 0.0
C578 C 0.88386 1.00348 0.30246 0.0
C579 C 0.8825 0.02577 0.30956 0.0
C580 C 0.86825 0.98893 0.32617 0.0
C581 C 0.85078 0.99636 0.35666 0.0
C582 C 0.84891 0.01863 0.36182 0.0
C583 C 0.86472 0.03321 0.33889 0.0
H584 H 0.35882 0.69239 0.47575 0.0
H585 H 0.31899 0.69731 0.62551 0.0
H586 H 0.38447 0.67307 0.53112 0.0
H587 H 0.34402 0.67716 0.68033 0.0
H588 H 0.39713 0.6488 0.7778 0.0
H589 H 0.37778 0.67495 0.72401 0.0
H590 H 0.38665 0.63858 0.56946 0.0
H591 H 0.40671 0.61315 0.62274 0.0
C592 C 0.3556 0.68944 0.52062 0.0
C593 C 0.3368 0.69628 0.54612 0.0
C594 C 0.37024 0.6782 0.55236 0.0
C595 C 0.36629 0.67322 0.61024 0.0
C596 C 0.34785 0.68085 0.63618 0.0
C597 C 0.33337 0.69234 0.6046 0.0
C598 C 0.39523 0.64662 0.73216 0.0
C599 C 0.40339 0.62883 0.70464 0.0
C600 C 0.38397 0.66153 0.70131 0.0
C601 C 0.38039 0.65887 0.64226 0.0
C602 C 0.38928 0.64145 0.61458 0.0
C603 C 0.40073 0.62672 0.64529 0.0
H604 H 0.75706 0.16574 0.85331 0.0
H605 H 0.71648 0.16913 0.00243 0.0
H606 H 0.73212 0.13773 0.81329 0.0
H607 H 0.69166 0.14089 0.96233 0.0
H608 H 0.66315 0.07597 0.89262 0.0
H609 H 0.69115 0.10081 0.93319 0.0
H610 H 0.69293 0.13793 0.77743 0.0
H611 H 0.66473 0.11324 0.73678 0.0
C612 C 0.74297 0.16033 0.87793 0.0
C613 C 0.73872 0.16972 0.93106 0.0
C614 C 0.72866 0.14438 0.85478 0.0
C615 C 0.70997 0.13723 0.88462 0.0
C616 C 0.70605 0.14604 0.9386 0.0
C617 C 0.72021 0.16224 0.96143 0.0
C618 C 0.66967 0.08927 0.86668 0.0
C619 C 0.66166 0.09267 0.81147 0.0
C620 C 0.6856 0.10354 0.89013 0.0
C621 C 0.6941 0.12131 0.85855 0.0
C622 C 0.68672 0.12427 0.80258 0.0
C623 C 0.67054 0.11019 0.7794 0.0
H624 H 0.14456 0.62447 0.27129 0.0
H625 H 0.17784 0.57185 0.34209 0.0
H626 H 0.17162 0.65014 0.31274 0.0
H627 H 0.20506 0.59767 0.3829 0.0
H628 H 0.25941 0.65477 0.39251 0.0
H629 H 0.23427 0.62757 0.34874 0.0
H630 H 0.18073 0.65936 0.41906 0.0
H631 H 0.20568 0.68634 0.46342 0.0
C632 C 0.15782 0.61836 0.29487 0.0
C633 C 0.15901 0.59612 0.30361 0.0
C634 C 0.1732 0.63306 0.31893 0.0
C635 C 0.19026 0.62584 0.35142 0.0
C636 C 0.19205 0.60362 0.35799 0.0
C637 C 0.17646 0.58888 0.33471 0.0
C638 C 0.24228 0.65582 0.3991 0.0
C639 C 0.23453 0.67272 0.4314 0.0
C640 C 0.22794 0.64026 0.3741 0.0
C641 C 0.20561 0.64156 0.38008 0.0
C642 C 0.19788 0.65818 0.41323 0.0
C643 C 0.21219 0.6735 0.439 0.0
H644 H 0.63947 0.97233 0.77232 0.0
H645 H 0.63331 1.01077 0.62046 0.0
H646 H 0.65913 0.94661 0.71775 0.0
H647 H 0.65362 0.98571 0.56657 0.0
H648 H 0.68092 0.93221 0.46995 0.0
H649 H 0.65516 0.95151 0.52503 0.0
H650 H 0.69356 0.94437 0.67683 0.0
H651 H 0.71872 0.9243 0.62216 0.0
C652 C 0.64219 0.97522 0.72721 0.0
C653 C 0.63489 0.99366 0.70083 0.0
C654 C 0.65362 0.96056 0.69595 0.0
C655 C 0.65819 0.96407 0.63765 0.0
C656 C 0.6502 0.98218 0.61104 0.0
C657 C 0.63863 0.9967 0.64213 0.0
C658 C 0.68367 0.93449 0.51528 0.0
C659 C 0.70195 0.92683 0.54157 0.0
C660 C 0.66897 0.94572 0.54687 0.0
C661 C 0.67233 0.94982 0.60544 0.0
C662 C 0.69021 0.94137 0.63208 0.0
C663 C 0.70476 0.92993 0.6006 0.0
H664 H 0.36105 0.54971 0.84737 0.0
H665 H 0.39143 0.49726 0.76616 0.0
H666 H 0.33406 0.52393 0.88946 0.0
H667 H 0.36466 0.47163 0.80893 0.0
H668 H 0.3319 0.43363 0.95828 0.0
H669 H 0.357 0.46094 0.91556 0.0
H670 H 0.30358 0.4953 0.85466 0.0
H671 H 0.27834 0.46782 0.89668 0.0
C672 C 0.36184 0.53274 0.83803 0.0
C673 C 0.37839 0.52552 0.80349 0.0
C674 C 0.3464 0.51803 0.8621 0.0
C675 C 0.34749 0.49583 0.85289 0.0
C676 C 0.36366 0.48866 0.8172 0.0
C677 C 0.37885 0.50336 0.79235 0.0
C678 C 0.32548 0.44712 0.93638 0.0
C679 C 0.30313 0.44853 0.93071 0.0
C680 C 0.33985 0.46264 0.91156 0.0
C681 C 0.33217 0.48006 0.88143 0.0
C682 C 0.30987 0.482 0.8777 0.0
C683 C 0.29547 0.46627 0.90168 0.0
H684 H 0.84917 0.17431 0.96953 0.0
H685 H 0.83508 0.21359 0.11488 0.0
H686 H 0.8735 0.15459 0.0274 0.0
H687 H 0.86051 0.1948 0.17241 0.0
H688 H 0.88234 0.13785 0.27598 0.0
H689 H 0.8628 0.1623 0.21824 0.0
H690 H 0.90544 0.1522 0.07622 0.0
H691 H 0.92414 0.12661 0.13355 0.0
C692 C 0.85171 0.1791 0.01362 0.0
C693 C 0.84008 0.19539 0.03775 0.0
C694 C 0.86583 0.16784 0.04694 0.0
C695 C 0.86901 0.17286 0.10512 0.0
C696 C 0.85815 0.19 0.12831 0.0
C697 C 0.84368 0.20096 0.09521 0.0
C698 C 0.88771 0.14104 0.23261 0.0
C699 C 0.9047 0.13017 0.20923 0.0
C700 C 0.87655 0.15525 0.19938 0.0
C701 C 0.88234 0.15931 0.14204 0.0
C702 C 0.90009 0.14917 0.11962 0.0
C703 C 0.91099 0.13461 0.15263 0.0
H704 H 0.81415 0.66641 0.9626 0.0
H705 H 0.8585 0.72036 0.91996 0.0
H706 H 0.83746 0.6421 0.91412 0.0
H707 H 0.88089 0.69668 0.86843 0.0
H708 H 0.92878 0.64877 0.82545 0.0
H709 H 0.90539 0.67153 0.87673 0.0
H710 H 0.85013 0.62953 0.82796 0.0
H711 H 0.87411 0.60582 0.77971 0.0
C712 C 0.82886 0.67305 0.94273 0.0
C713 C 0.83464 0.69525 0.9458 0.0
C714 C 0.84215 0.65917 0.9143 0.0
C715 C 0.86129 0.66724 0.88717 0.0
C716 C 0.86675 0.68957 0.88992 0.0
C717 C 0.85379 0.70328 0.91939 0.0
C718 C 0.91161 0.64445 0.82528 0.0
C719 C 0.90329 0.62557 0.79809 0.0
C720 C 0.89807 0.65763 0.8546 0.0
C721 C 0.87565 0.65267 0.85645 0.0
C722 C 0.86728 0.63383 0.8285 0.0
C723 C 0.88098 0.62031 0.80019 0.0
H724 H 0.24501 0.1632 0.5644 0.0
H725 H 0.18827 0.1947 0.5136 0.0
H726 H 0.22255 0.13778 0.62234 0.0
H727 H 0.16597 0.16926 0.57051 0.0
H728 H 0.13597 0.14177 0.73025 0.0
H729 H 0.16124 0.1644 0.67364 0.0
H730 H 0.19329 0.10825 0.62105 0.0
H731 H 0.16805 0.08548 0.67867 0.0
C732 C 0.22772 0.1644 0.56451 0.0
C733 C 0.21844 0.18109 0.53477 0.0
C734 C 0.21488 0.14987 0.59785 0.0
C735 C 0.19255 0.15183 0.60209 0.0
C736 C 0.1832 0.1677 0.56945 0.0
C737 C 0.19597 0.18215 0.53629 0.0
C738 C 0.14861 0.13424 0.70747 0.0
C739 C 0.14987 0.1118 0.70865 0.0
C740 C 0.16297 0.1472 0.67449 0.0
C741 C 0.17894 0.13806 0.64171 0.0
C742 C 0.18111 0.11577 0.64566 0.0
C743 C 0.16669 0.10274 0.67881 0.0
H744 H 0.73139 0.44812 0.41512 0.0
H745 H 0.67454 0.41116 0.47495 0.0
H746 H 0.70867 0.47214 0.3636 0.0
H747 H 0.65191 0.4354 0.42516 0.0
H748 H 0.6586 0.52174 0.31979 0.0
H749 H 0.683 0.49941 0.37123 0.0
H750 H 0.64205 0.44272 0.3293 0.0
H751 H 0.61749 0.46502 0.27961 0.0
C752 C 0.71405 0.44534 0.41811 0.0
C753 C 0.70479 0.42764 0.44887 0.0
C754 C 0.70101 0.45913 0.38859 0.0
C755 C 0.67842 0.45555 0.38937 0.0
C756 C 0.66923 0.43835 0.42222 0.0
C757 C 0.68223 0.42454 0.45132 0.0
C758 C 0.65496 0.50448 0.32107 0.0
C759 C 0.63602 0.49519 0.29586 0.0
C760 C 0.66897 0.49166 0.35055 0.0
C761 C 0.66437 0.46926 0.35529 0.0
C762 C 0.64586 0.45995 0.32794 0.0
C763 C 0.63185 0.47274 0.29887 0.0
H764 H 0.37039 0.02247 0.21571 0.0
H765 H 0.42248 0.98563 0.1575 0.0
H766 H 0.34471 0.99836 0.16306 0.0
H767 H 0.39749 0.96275 0.10205 0.0
H768 H 0.3475 0.9104 0.0583 0.0
H769 H 0.37188 0.93519 0.10963 0.0
H770 H 0.33069 0.98691 0.07449 0.0
H771 H 0.30527 0.96129 0.02594 0.0
C772 C 0.37632 1.00924 0.19161 0.0
C773 C 0.39836 1.00567 0.19164 0.0
C774 C 0.36166 0.99557 0.16079 0.0
C775 C 0.36887 0.97836 0.12833 0.0
C776 C 0.39107 0.97527 0.12773 0.0
C777 C 0.40551 0.98851 0.15953 0.0
C778 C 0.34371 0.92711 0.06076 0.0
C779 C 0.32449 0.93389 0.03759 0.0
C780 C 0.35783 0.94148 0.09021 0.0
C781 C 0.35351 0.96327 0.09621 0.0
C782 C 0.33448 0.97022 0.07167 0.0
C783 C 0.32002 0.95562 0.04312 0.0
H784 H 0.8452 0.40869 0.56557 0.0
H785 H 0.8045 0.46008 0.52518 0.0
H786 H 0.86899 0.43342 0.61889 0.0
H787 H 0.82943 0.48563 0.57569 0.0
H788 H 0.8679 0.52237 0.71645 0.0
H789 H 0.84242 0.49779 0.66457 0.0
H790 H 0.89519 0.46037 0.61247 0.0
H791 H 0.9199 0.48375 0.66716 0.0
C792 C 0.84165 0.42549 0.56672 0.0
C793 C 0.82305 0.43245 0.54059 0.0
C794 C 0.85544 0.43982 0.59734 0.0
C795 C 0.85142 0.46175 0.60157 0.0
C796 C 0.83297 0.46885 0.57429 0.0
C797 C 0.81881 0.45429 0.54461 0.0
C798 C 0.87385 0.50861 0.69466 0.0
C799 C 0.89582 0.50477 0.69678 0.0
C800 C 0.85932 0.49466 0.66422 0.0
C801 C 0.86658 0.47687 0.63423 0.0
C802 C 0.88868 0.47337 0.63617 0.0
C803 C 0.90299 0.48691 0.66758 0.0
H804 H 0.31307 0.1651 0.45951 0.0
H805 H 0.35808 0.21934 0.42429 0.0
H806 H 0.33714 0.14114 0.41265 0.0
H807 H 0.38133 0.19599 0.3744 0.0
H808 H 0.42965 0.14806 0.33424 0.0
H809 H 0.4056 0.17056 0.38411 0.0
H810 H 0.35093 0.12949 0.32662 0.0
H811 H 0.37549 0.10603 0.27968 0.0
C812 C 0.32811 0.17188 0.44169 0.0
C813 C 0.3338 0.19405 0.44624 0.0
C814 C 0.34184 0.1582 0.41415 0.0
C815 C 0.36137 0.16647 0.38946 0.0
C816 C 0.36683 0.18875 0.39395 0.0
C817 C 0.35339 0.20226 0.42249 0.0
C818 C 0.41248 0.1439 0.33182 0.0
C819 C 0.40448 0.12534 0.3026 0.0
C820 C 0.39857 0.15692 0.36035 0.0
C821 C 0.37612 0.15212 0.3594 0.0
C822 C 0.36808 0.13363 0.32933 0.0
C823 C 0.38213 0.12027 0.30177 0.0
H824 H 0.66873 0.59817 0.21507 0.0
H825 H 0.61645 0.63472 0.15659 0.0
H826 H 0.69441 0.62296 0.16449 0.0
H827 H 0.64148 0.65831 0.10339 0.0
H828 H 0.69108 0.71114 0.06148 0.0
H829 H 0.66696 0.68606 0.11285 0.0
H830 H 0.70833 0.6347 0.07556 0.0
H831 H 0.73346 0.66057 0.02682 0.0
C832 C 0.66276 0.61151 0.19153 0.0
C833 C 0.64063 0.61472 0.19069 0.0
C834 C 0.67742 0.62557 0.16188 0.0
C835 C 0.67016 0.64285 0.12984 0.0
C836 C 0.64792 0.64571 0.12874 0.0
C837 C 0.63345 0.63205 0.15928 0.0
C838 C 0.69498 0.69445 0.06353 0.0
C839 C 0.71413 0.68783 0.03958 0.0
C840 C 0.68102 0.67994 0.093 0.0
C841 C 0.68546 0.65815 0.0983 0.0
C842 C 0.70446 0.65138 0.07322 0.0
C843 C 0.71875 0.66612 0.04459 0.0
H844 H 0.17625 0.91319 0.9722 0.0
H845 H 0.23393 0.95082 0.9209 0.0
H846 H 0.1544 0.93768 0.92067 0.0
H847 H 0.212 0.97517 0.86798 0.0
H848 H 0.16208 0.02514 0.82421 0.0
H849 H 0.18583 1.00227 0.87609 0.0
H850 H 0.14647 0.94591 0.8231 0.0
H851 H 0.12255 0.96872 0.7726 0.0
C852 C 0.18429 0.92677 0.95016 0.0
C853 C 0.20686 0.92998 0.95058 0.0
C854 C 0.17174 0.94072 0.92007 0.0
C855 C 0.18142 0.95823 0.88927 0.0
C856 C 0.20398 0.96191 0.89133 0.0
C857 C 0.21657 0.94794 0.92168 0.0
C858 C 0.15866 1.00784 0.82308 0.0
C859 C 0.14033 0.99877 0.7945 0.0
C860 C 0.1723 0.99472 0.85282 0.0
C861 C 0.16791 0.97224 0.85459 0.0
C862 C 0.15007 0.96318 0.82391 0.0
C863 C 0.13644 0.97627 0.79441 0.0
loop_
_geom_bond_atom_site_label_1
_geom_bond_atom_site_label_2
_geom_bond_distance
_geom_bond_site_symmetry_2
_ccdc_geom_bond_type
O0 Cd1 2.223 1_556 S
O0 C8 1.315 . S
Cd1 O0 2.223 1_554 S
Cd1 O4 2.297 . S
Cd1 O5 2.439 . S
Cd1 O11 2.240 . S
Cd2 O3 2.240 . S
Cd2 O10 2.223 . S
Cd2 O12 2.299 . S
Cd2 O13 2.439 1_556 S
O3 Cd2 2.240 . S
O3 C8 1.279 . S
O4 Cd1 2.297 . S
O4 C6 1.247 . S
O5 Cd1 2.439 . S
O5 C6 1.208 . S
C6 O4 1.247 . S
C6 O5 1.208 . S
C7 O12 1.242 1_554 S
C7 O13 1.208 . S
C8 O0 1.315 . S
C8 O3 1.279 . S
C9 O10 1.315 . S
C9 O11 1.279 1_556 S
O10 Cd2 2.223 . S
O10 C9 1.315 . S
O11 Cd1 2.240 . S
O11 C9 1.279 1_554 S
O12 Cd2 2.299 . S
O12 C7 1.242 1_556 S
O13 Cd2 2.439 1_554 S
O13 C7 1.208 . S
O14 Cd15 2.223 . S
O14 C22 1.315 . S
Cd15 O14 2.223 . S
Cd15 O18 2.297 . S
Cd15 O19 2.439 . S
Cd15 O25 2.240 . S
Cd16 O17 2.240 . S
Cd16 O24 2.223 . S
Cd16 O26 2.297 . S
Cd16 O27 2.439 . S
O17 Cd16 2.240 . S
O17 C22 1.279 . S
O18 Cd15 2.297 . S
O18 C20 1.247 . S
O19 Cd15 2.439 . S
O19 C20 1.208 . S
C20 O18 1.247 . S
C20 O19 1.208 . S
C21 O26 1.247 . S
C21 O27 1.208 . S
C22 O14 1.315 . S
C22 O17 1.279 . S
C23 O24 1.315 . S
C23 O25 1.279 . S
O24 Cd16 2.223 . S
O24 C23 1.315 . S
O25 Cd15 2.240 . S
O25 C23 1.279 . S
O26 Cd16 2.297 . S
O26 C21 1.247 . S
O27 Cd16 2.439 . S
O27 C21 1.208 . S
O28 Cd29 2.223 . S
O28 C36 1.315 . S
Cd29 O28 2.223 . S
Cd29 O32 2.297 . S
Cd29 O33 2.439 . S
Cd29 O39 2.240 . S
Cd30 O31 2.240 . S
Cd30 O38 2.223 . S
Cd30 O40 2.297 . S
Cd30 O41 2.439 . S
O31 Cd30 2.240 . S
O31 C36 1.279 . S
O32 Cd29 2.297 . S
O32 C34 1.247 . S
O33 Cd29 2.439 . S
O33 C34 1.208 . S
C34 O32 1.247 . S
C34 O33 1.208 . S
C35 O40 1.247 . S
C35 O41 1.208 . S
C36 O28 1.315 . S
C36 O31 1.279 . S
C37 O38 1.315 . S
C37 O39 1.279 . S
O38 Cd30 2.223 . S
O38 C37 1.315 . S
O39 Cd29 2.240 . S
O39 C37 1.279 . S
O40 Cd30 2.297 . S
O40 C35 1.247 . S
O41 Cd30 2.439 . S
O41 C35 1.208 . S
O42 Cd43 2.223 . S
O42 C50 1.315 . S
Cd43 O42 2.223 . S
Cd43 O46 2.297 . S
Cd43 O47 2.439 . S
Cd43 O53 2.240 . S
Cd44 O45 2.240 . S
Cd44 O52 2.223 . S
Cd44 O54 2.297 . S
Cd44 O55 2.439 . S
O45 Cd44 2.240 . S
O45 C50 1.279 . S
O46 Cd43 2.297 . S
O46 C48 1.247 . S
O47 Cd43 2.439 . S
O47 C48 1.208 . S
C48 O46 1.247 . S
C48 O47 1.208 . S
C49 O54 1.247 . S
C49 O55 1.208 . S
C50 O42 1.315 . S
C50 O45 1.279 . S
C51 O52 1.315 . S
C51 O53 1.279 . S
O52 Cd44 2.223 . S
O52 C51 1.315 . S
O53 Cd43 2.240 . S
O53 C51 1.279 . S
O54 Cd44 2.297 . S
O54 C49 1.247 . S
O55 Cd44 2.439 . S
O55 C49 1.208 . S
O56 Cd57 2.223 1_556 S
O56 C64 1.315 . S
Cd57 O56 2.223 1_554 S
Cd57 O60 2.297 1_554 S
Cd57 O61 2.439 1_554 S
Cd57 O67 2.240 . S
Cd58 O59 2.240 1_554 S
Cd58 O66 2.223 . S
Cd58 O68 2.297 . S
Cd58 O69 2.439 . S
O59 Cd58 2.240 1_556 S
O59 C64 1.279 . S
O60 Cd57 2.297 1_556 S
O60 C62 1.247 . S
O61 Cd57 2.439 1_556 S
O61 C62 1.208 . S
C62 O60 1.247 . S
C62 O61 1.208 . S
C63 O68 1.247 . S
C63 O69 1.208 . S
C64 O56 1.315 . S
C64 O59 1.279 . S
C65 O66 1.315 . S
C65 O67 1.279 . S
O66 Cd58 2.223 . S
O66 C65 1.315 . S
O67 Cd57 2.240 . S
O67 C65 1.279 . S
O68 Cd58 2.297 . S
O68 C63 1.247 . S
O69 Cd58 2.439 . S
O69 C63 1.208 . S
O70 Cd71 2.223 1_545 S
O70 C78 1.315 . S
Cd71 O70 2.223 1_565 S
Cd71 O74 2.297 . S
Cd71 O75 2.439 1_565 S
Cd71 O81 2.240 1_565 S
Cd72 O73 2.240 . S
Cd72 O80 2.223 . S
Cd72 O82 2.297 . S
Cd72 O83 2.439 . S
O73 Cd72 2.240 . S
O73 C78 1.279 . S
O74 Cd71 2.297 . S
O74 C76 1.247 . S
O75 Cd71 2.439 1_545 S
O75 C76 1.208 1_545 S
C76 O74 1.247 . S
C76 O75 1.208 1_565 S
C77 O82 1.247 . S
C77 O83 1.208 . S
C78 O70 1.315 . S
C78 O73 1.279 . S
C79 O80 1.315 . S
C79 O81 1.279 . S
O80 Cd72 2.223 . S
O80 C79 1.315 . S
O81 Cd71 2.240 1_545 S
O81 C79 1.279 . S
O82 Cd72 2.297 . S
O82 C77 1.247 . S
O83 Cd72 2.439 . S
O83 C77 1.208 . S
O84 Cd85 2.223 . S
O84 C92 1.315 . S
Cd85 O84 2.223 . S
Cd85 O88 2.297 . S
Cd85 O89 2.439 . S
Cd85 O95 2.240 . S
Cd86 O87 2.240 . S
Cd86 O94 2.223 . S
Cd86 O96 2.297 . S
Cd86 O97 2.439 . S
O87 Cd86 2.240 . S
O87 C92 1.279 . S
O88 Cd85 2.297 . S
O88 C90 1.247 . S
O89 Cd85 2.439 . S
O89 C90 1.208 . S
C90 O88 1.247 . S
C90 O89 1.208 . S
C91 O96 1.247 . S
C91 O97 1.208 . S
C92 O84 1.315 . S
C92 O87 1.279 . S
C93 O94 1.315 . S
C93 O95 1.279 . S
O94 Cd86 2.223 . S
O94 C93 1.315 . S
O95 Cd85 2.240 . S
O95 C93 1.279 . S
O96 Cd86 2.297 . S
O96 C91 1.247 . S
O97 Cd86 2.439 . S
O97 C91 1.208 . S
O98 Cd99 2.223 . S
O98 C106 1.315 . S
Cd99 O98 2.223 . S
Cd99 O102 2.297 . S
Cd99 O103 2.439 . S
Cd99 O109 2.240 . S
Cd100 O101 2.240 . S
Cd100 O108 2.223 . S
Cd100 O110 2.297 . S
Cd100 O111 2.439 . S
O101 Cd100 2.240 . S
O101 C106 1.279 . S
O102 Cd99 2.297 . S
O102 C104 1.247 . S
O103 Cd99 2.439 . S
O103 C104 1.208 . S
C104 O102 1.247 . S
C104 O103 1.208 . S
C105 O110 1.247 . S
C105 O111 1.208 . S
C106 O98 1.315 . S
C106 O101 1.279 . S
C107 O108 1.315 . S
C107 O109 1.279 . S
O108 Cd100 2.223 . S
O108 C107 1.315 . S
O109 Cd99 2.240 . S
O109 C107 1.279 . S
O110 Cd100 2.297 . S
O110 C105 1.247 . S
O111 Cd100 2.439 . S
O111 C105 1.208 . S
O112 Cd113 2.223 . S
O112 C120 1.315 . S
Cd113 O112 2.223 . S
Cd113 O116 2.297 . S
Cd113 O117 2.439 . S
Cd113 O123 2.240 . S
Cd114 O115 2.240 . S
Cd114 O122 2.223 . S
Cd114 O124 2.297 . S
Cd114 O125 2.439 . S
O115 Cd114 2.240 . S
O115 C120 1.279 . S
O116 Cd113 2.297 . S
O116 C118 1.247 . S
O117 Cd113 2.439 . S
O117 C118 1.208 . S
C118 O116 1.247 . S
C118 O117 1.208 . S
C119 O124 1.247 . S
C119 O125 1.208 . S
C120 O112 1.315 . S
C120 O115 1.279 . S
C121 O122 1.315 . S
C121 O123 1.279 . S
O122 Cd114 2.223 . S
O122 C121 1.315 . S
O123 Cd113 2.240 . S
O123 C121 1.279 . S
O124 Cd114 2.297 . S
O124 C119 1.247 . S
O125 Cd114 2.439 . S
O125 C119 1.208 . S
O126 Cd127 2.223 . S
O126 C134 1.315 . S
Cd127 O126 2.223 . S
Cd127 O130 2.297 . S
Cd127 O131 2.439 . S
Cd127 O137 2.240 . S
Cd128 O129 2.240 . S
Cd128 O136 2.223 . S
Cd128 O138 2.297 . S
Cd128 O139 2.439 . S
O129 Cd128 2.240 . S
O129 C134 1.279 . S
O130 Cd127 2.297 . S
O130 C132 1.247 . S
O131 Cd127 2.439 . S
O131 C132 1.208 . S
C132 O130 1.247 . S
C132 O131 1.208 . S
C133 O138 1.247 . S
C133 O139 1.208 . S
C134 O126 1.315 . S
C134 O129 1.279 . S
C135 O136 1.315 . S
C135 O137 1.279 . S
O136 Cd128 2.223 . S
O136 C135 1.315 . S
O137 Cd127 2.240 . S
O137 C135 1.279 . S
O138 Cd128 2.297 . S
O138 C133 1.247 . S
O139 Cd128 2.439 . S
O139 C133 1.208 . S
O140 Cd141 2.223 1_556 S
O140 C148 1.315 . S
Cd141 O140 2.223 1_554 S
Cd141 O144 2.297 . S
Cd141 O145 2.439 . S
Cd141 O151 2.240 . S
Cd142 O143 2.240 . S
Cd142 O150 2.223 . S
Cd142 O152 2.299 . S
Cd142 O153 2.439 1_556 S
O143 Cd142 2.240 . S
O143 C148 1.279 . S
O144 Cd141 2.297 . S
O144 C146 1.247 . S
O145 Cd141 2.439 . S
O145 C146 1.208 . S
C146 O144 1.247 . S
C146 O145 1.208 . S
C147 O152 1.240 1_554 S
C147 O153 1.208 . S
C148 O140 1.315 . S
C148 O143 1.279 . S
C149 O150 1.315 . S
C149 O151 1.279 1_556 S
O150 Cd142 2.223 . S
O150 C149 1.315 . S
O151 Cd141 2.240 . S
O151 C149 1.279 1_554 S
O152 Cd142 2.299 . S
O152 C147 1.240 1_556 S
O153 Cd142 2.439 1_554 S
O153 C147 1.208 . S
O154 Cd155 2.223 . S
O154 C162 1.315 . S
Cd155 O154 2.223 . S
Cd155 O158 2.297 . S
Cd155 O159 2.439 . S
Cd155 O165 2.240 . S
Cd156 O157 2.240 . S
Cd156 O164 2.223 . S
Cd156 O166 2.297 . S
Cd156 O167 2.439 . S
O157 Cd156 2.240 . S
O157 C162 1.279 . S
O158 Cd155 2.297 . S
O158 C160 1.247 . S
O159 Cd155 2.439 . S
O159 C160 1.208 . S
C160 O158 1.247 . S
C160 O159 1.208 . S
C161 O166 1.247 . S
C161 O167 1.208 . S
C162 O154 1.315 . S
C162 O157 1.279 . S
C163 O164 1.315 . S
C163 O165 1.279 . S
O164 Cd156 2.223 . S
O164 C163 1.315 . S
O165 Cd155 2.240 . S
O165 C163 1.279 . S
O166 Cd156 2.297 . S
O166 C161 1.247 . S
O167 Cd156 2.439 . S
O167 C161 1.208 . S
O168 Cd169 2.223 . S
O168 C176 1.315 . S
Cd169 O168 2.223 . S
Cd169 O172 2.297 . S
Cd169 O173 2.439 . S
Cd169 O179 2.240 . S
Cd170 O171 2.240 . S
Cd170 O178 2.223 . S
Cd170 O180 2.297 . S
Cd170 O181 2.439 . S
O171 Cd170 2.240 . S
O171 C176 1.279 . S
O172 Cd169 2.297 . S
O172 C174 1.247 . S
O173 Cd169 2.439 . S
O173 C174 1.208 . S
C174 O172 1.247 . S
C174 O173 1.208 . S
C175 O180 1.247 . S
C175 O181 1.208 . S
C176 O168 1.315 . S
C176 O171 1.279 . S
C177 O178 1.315 . S
C177 O179 1.279 . S
O178 Cd170 2.223 . S
O178 C177 1.315 . S
O179 Cd169 2.240 . S
O179 C177 1.279 . S
O180 Cd170 2.297 . S
O180 C175 1.247 . S
O181 Cd170 2.439 . S
O181 C175 1.208 . S
O182 Cd183 2.223 . S
O182 C190 1.315 . S
Cd183 O182 2.223 . S
Cd183 O186 2.297 . S
Cd183 O187 2.439 . S
Cd183 O193 2.240 . S
Cd184 O185 2.240 . S
Cd184 O192 2.223 . S
Cd184 O194 2.297 . S
Cd184 O195 2.439 . S
O185 Cd184 2.240 . S
O185 C190 1.279 . S
O186 Cd183 2.297 . S
O186 C188 1.247 . S
O187 Cd183 2.439 . S
O187 C188 1.208 . S
C188 O186 1.247 . S
C188 O187 1.208 . S
C189 O194 1.247 . S
C189 O195 1.208 . S
C190 O182 1.315 . S
C190 O185 1.279 . S
C191 O192 1.315 . S
C191 O193 1.279 . S
O192 Cd184 2.223 . S
O192 C191 1.315 . S
O193 Cd183 2.240 . S
O193 C191 1.279 . S
O194 Cd184 2.297 . S
O194 C189 1.247 . S
O195 Cd184 2.439 . S
O195 C189 1.208 . S
O196 Cd197 2.223 1_556 S
O196 C204 1.315 . S
Cd197 O196 2.223 1_554 S
Cd197 O200 2.297 1_554 S
Cd197 O201 2.439 1_554 S
Cd197 O207 2.240 . S
Cd198 O199 2.240 1_554 S
Cd198 O206 2.223 . S
Cd198 O208 2.297 . S
Cd198 O209 2.439 . S
O199 Cd198 2.240 1_556 S
O199 C204 1.279 . S
O200 Cd197 2.297 1_556 S
O200 C202 1.247 . S
O201 Cd197 2.439 1_556 S
O201 C202 1.208 . S
C202 O200 1.247 . S
C202 O201 1.208 . S
C203 O208 1.247 . S
C203 O209 1.208 . S
C204 O196 1.315 . S
C204 O199 1.279 . S
C205 O206 1.315 . S
C205 O207 1.279 . S
O206 Cd198 2.223 . S
O206 C205 1.315 . S
O207 Cd197 2.240 . S
O207 C205 1.279 . S
O208 Cd198 2.297 . S
O208 C203 1.247 . S
O209 Cd198 2.439 . S
O209 C203 1.208 . S
O210 Cd211 2.223 . S
O210 C218 1.315 . S
Cd211 O210 2.223 . S
Cd211 O214 2.297 . S
Cd211 O215 2.439 . S
Cd211 O221 2.240 . S
Cd212 O213 2.240 . S
Cd212 O220 2.223 . S
Cd212 O222 2.297 . S
Cd212 O223 2.439 . S
O213 Cd212 2.240 . S
O213 C218 1.279 . S
O214 Cd211 2.297 . S
O214 C216 1.247 . S
O215 Cd211 2.439 . S
O215 C216 1.208 . S
C216 O214 1.247 . S
C216 O215 1.208 . S
C217 O222 1.247 . S
C217 O223 1.208 . S
C218 O210 1.315 . S
C218 O213 1.279 . S
C219 O220 1.315 . S
C219 O221 1.279 . S
O220 Cd212 2.223 . S
O220 C219 1.315 . S
O221 Cd211 2.240 . S
O221 C219 1.279 . S
O222 Cd212 2.297 . S
O222 C217 1.247 . S
O223 Cd212 2.439 . S
O223 C217 1.208 . S
H224 C232 0.950 . S
H225 C237 0.950 . S
H226 C234 0.950 . S
H227 C236 0.950 . S
H228 C238 0.950 . S
H229 C240 0.950 . S
H230 C242 0.950 . S
H231 C243 0.950 . S
C232 H224 0.950 . S
C232 C233 1.386 . S
C232 C234 1.391 . S
C233 C232 1.386 . S
C233 C237 1.393 . S
C234 H226 0.950 . S
C234 C232 1.391 . S
C234 C235 1.400 . S
C235 C234 1.400 . S
C235 C236 1.398 . S
C235 C241 1.491 . S
C236 H227 0.950 . S
C236 C235 1.398 . S
C236 C237 1.391 . S
C237 H225 0.950 . S
C237 C233 1.393 . S
C237 C236 1.391 . S
C238 H228 0.950 . S
C238 C239 1.386 . S
C238 C240 1.391 . S
C239 C238 1.386 . S
C239 C243 1.393 . S
C240 H229 0.950 . S
C240 C238 1.391 . S
C240 C241 1.400 . S
C241 C235 1.491 . S
C241 C240 1.400 . S
C241 C242 1.398 . S
C242 H230 0.950 . S
C242 C241 1.398 . S
C242 C243 1.391 . S
C243 H231 0.950 . S
C243 C239 1.393 . S
C243 C242 1.391 . S
H244 C252 0.950 . S
H245 C257 0.950 . S
H246 C254 0.950 1_455 S
H247 C256 0.950 . S
H248 C258 0.950 . S
H249 C260 0.950 . S
H250 C262 0.950 . S
H251 C263 0.950 . S
C252 H244 0.950 . S
C252 C253 1.386 . S
C252 C254 1.391 . S
C253 C252 1.386 . S
C253 C257 1.393 . S
C254 H246 0.950 1_655 S
C254 C252 1.391 . S
C254 C255 1.400 . S
C255 C254 1.400 . S
C255 C256 1.398 . S
C255 C261 1.482 1_655 S
C256 H247 0.950 . S
C256 C255 1.398 . S
C256 C257 1.391 . S
C257 H245 0.950 . S
C257 C253 1.393 . S
C257 C256 1.391 . S
C258 H248 0.950 . S
C258 C259 1.386 . S
C258 C260 1.391 1_455 S
C259 C258 1.386 . S
C259 C263 1.393 . S
C260 H249 0.950 . S
C260 C258 1.391 1_655 S
C260 C261 1.397 1_655 S
C261 C255 1.482 1_455 S
C261 C260 1.397 1_455 S
C261 C262 1.410 . S
C262 H250 0.950 . S
C262 C261 1.410 . S
C262 C263 1.391 . S
C263 H251 0.950 . S
C263 C259 1.393 . S
C263 C262 1.391 . S
H264 C272 0.950 . S
H265 C277 0.950 . S
H266 C274 0.950 . S
H267 C276 0.950 . S
H268 C278 0.950 . S
H269 C280 0.950 . S
H270 C282 0.950 . S
H271 C283 0.950 . S
C272 H264 0.950 . S
C272 C273 1.386 . S
C272 C274 1.391 . S
C273 C272 1.386 . S
C273 C277 1.393 . S
C274 H266 0.950 . S
C274 C272 1.391 . S
C274 C275 1.400 . S
C275 C274 1.400 . S
C275 C276 1.398 . S
C275 C281 1.491 . S
C276 H267 0.950 . S
C276 C275 1.398 . S
C276 C277 1.391 . S
C277 H265 0.950 . S
C277 C273 1.393 . S
C277 C276 1.391 . S
C278 H268 0.950 . S
C278 C279 1.386 . S
C278 C280 1.391 . S
C279 C278 1.386 . S
C279 C283 1.393 . S
C280 H269 0.950 . S
C280 C278 1.391 . S
C280 C281 1.400 . S
C281 C275 1.491 . S
C281 C280 1.400 . S
C281 C282 1.398 . S
C282 H270 0.950 . S
C282 C281 1.398 . S
C282 C283 1.391 . S
C283 H271 0.950 . S
C283 C279 1.393 . S
C283 C282 1.391 . S
H284 C292 0.950 . S
H285 C297 0.950 . S
H286 C294 0.950 . S
H287 C296 0.950 1_556 S
H288 C298 0.950 . S
H289 C300 0.950 . S
H290 C302 0.950 . S
H291 C303 0.950 . S
C292 H284 0.950 . S
C292 C293 1.386 . S
C292 C294 1.391 . S
C293 C292 1.386 . S
C293 C297 1.393 . S
C294 H286 0.950 . S
C294 C292 1.391 . S
C294 C295 1.400 . S
C295 C294 1.400 . S
C295 C296 1.398 . S
C295 C301 1.491 1_554 S
C296 H287 0.950 1_554 S
C296 C295 1.398 . S
C296 C297 1.391 . S
C297 H285 0.950 . S
C297 C293 1.393 . S
C297 C296 1.391 . S
C298 H288 0.950 . S
C298 C299 1.386 . S
C298 C300 1.391 . S
C299 C298 1.386 . S
C299 C303 1.393 . S
C300 H289 0.950 . S
C300 C298 1.391 . S
C300 C301 1.400 . S
C301 C295 1.491 1_556 S
C301 C300 1.400 . S
C301 C302 1.398 . S
C302 H290 0.950 . S
C302 C301 1.398 . S
C302 C303 1.391 . S
C303 H291 0.950 . S
C303 C299 1.393 . S
C303 C302 1.391 . S
H304 C312 0.950 . S
H305 C317 0.950 . S
H306 C314 0.950 . S
H307 C316 0.950 . S
H308 C318 0.950 . S
H309 C320 0.950 . S
H310 C322 0.950 . S
H311 C323 0.950 . S
C312 H304 0.950 . S
C312 C313 1.386 . S
C312 C314 1.391 . S
C313 C312 1.386 . S
C313 C317 1.393 . S
C314 H306 0.950 . S
C314 C312 1.391 . S
C314 C315 1.400 . S
C315 C314 1.400 . S
C315 C316 1.398 . S
C315 C321 1.491 . S
C316 H307 0.950 . S
C316 C315 1.398 . S
C316 C317 1.391 . S
C317 H305 0.950 . S
C317 C313 1.393 . S
C317 C316 1.391 . S
C318 H308 0.950 . S
C318 C319 1.386 . S
C318 C320 1.391 . S
C319 C318 1.386 . S
C319 C323 1.393 . S
C320 H309 0.950 . S
C320 C318 1.391 . S
C320 C321 1.400 . S
C321 C315 1.491 . S
C321 C320 1.400 . S
C321 C322 1.398 . S
C322 H310 0.950 . S
C322 C321 1.398 . S
C322 C323 1.391 . S
C323 H311 0.950 . S
C323 C319 1.393 . S
C323 C322 1.391 . S
H324 C332 0.950 . S
H325 C337 0.950 . S
H326 C334 0.950 . S
H327 C336 0.950 . S
H328 C338 0.950 . S
H329 C340 0.950 . S
H330 C342 0.950 . S
H331 C343 0.950 . S
C332 H324 0.950 . S
C332 C333 1.386 . S
C332 C334 1.391 . S
C333 C332 1.386 . S
C333 C337 1.393 . S
C334 H326 0.950 . S
C334 C332 1.391 . S
C334 C335 1.400 . S
C335 C334 1.400 . S
C335 C336 1.398 . S
C335 C341 1.491 . S
C336 H327 0.950 . S
C336 C335 1.398 . S
C336 C337 1.391 . S
C337 H325 0.950 . S
C337 C333 1.393 . S
C337 C336 1.391 . S
C338 H328 0.950 . S
C338 C339 1.386 . S
C338 C340 1.391 . S
C339 C338 1.386 . S
C339 C343 1.393 . S
C340 H329 0.950 . S
C340 C338 1.391 . S
C340 C341 1.400 . S
C341 C335 1.491 . S
C341 C340 1.400 . S
C341 C342 1.398 . S
C342 H330 0.950 . S
C342 C341 1.398 . S
C342 C343 1.391 . S
C343 H331 0.950 . S
C343 C339 1.393 . S
C343 C342 1.391 . S
H344 C352 0.950 . S
H345 C357 0.950 . S
H346 C354 0.950 . S
H347 C356 0.950 . S
H348 C358 0.950 . S
H349 C360 0.950 . S
H350 C362 0.950 . S
H351 C363 0.950 . S
C352 H344 0.950 . S
C352 C353 1.386 . S
C352 C354 1.391 . S
C353 C352 1.386 . S
C353 C357 1.393 . S
C354 H346 0.950 . S
C354 C352 1.391 . S
C354 C355 1.400 . S
C355 C354 1.400 . S
C355 C356 1.398 . S
C355 C361 1.491 . S
C356 H347 0.950 . S
C356 C355 1.398 . S
C356 C357 1.391 . S
C357 H345 0.950 . S
C357 C353 1.393 . S
C357 C356 1.391 . S
C358 H348 0.950 . S
C358 C359 1.386 . S
C358 C360 1.391 . S
C359 C358 1.386 . S
C359 C363 1.393 . S
C360 H349 0.950 . S
C360 C358 1.391 . S
C360 C361 1.400 . S
C361 C355 1.491 . S
C361 C360 1.400 . S
C361 C362 1.398 . S
C362 H350 0.950 . S
C362 C361 1.398 . S
C362 C363 1.391 . S
C363 H351 0.950 . S
C363 C359 1.393 . S
C363 C362 1.391 . S
H364 C372 0.950 . S
H365 C377 0.950 . S
H366 C374 0.911 1_655 S
H367 C376 0.950 . S
H368 C378 0.950 . S
H369 C380 0.950 1_455 S
H370 C382 0.950 . S
H371 C383 0.950 . S
C372 H364 0.950 . S
C372 C373 1.386 . S
C372 C374 1.419 . S
C373 C372 1.386 . S
C373 C377 1.393 . S
C374 H366 0.911 1_455 S
C374 C372 1.419 . S
C374 C375 1.412 . S
C375 C374 1.412 . S
C375 C376 1.398 . S
C375 C381 1.491 1_455 S
C376 H367 0.950 . S
C376 C375 1.398 . S
C376 C377 1.391 . S
C377 H365 0.950 . S
C377 C373 1.393 . S
C377 C376 1.391 . S
C378 H368 0.950 . S
C378 C379 1.386 . S
C378 C380 1.391 . S
C379 C378 1.386 . S
C379 C383 1.393 . S
C380 H369 0.950 1_655 S
C380 C378 1.391 . S
C380 C381 1.400 1_554 S
C381 C375 1.491 1_655 S
C381 C380 1.400 1_556 S
C381 C382 1.398 . S
C382 H370 0.950 . S
C382 C381 1.398 . S
C382 C383 1.391 1_556 S
C383 H371 0.950 . S
C383 C379 1.393 . S
C383 C382 1.391 1_554 S
H384 C392 0.950 . S
H385 C397 0.950 . S
H386 C394 0.950 . S
H387 C396 0.950 . S
H388 C398 0.950 . S
H389 C400 0.950 . S
H390 C402 0.950 . S
H391 C403 0.950 . S
C392 H384 0.950 . S
C392 C393 1.386 . S
C392 C394 1.391 . S
C393 C392 1.386 . S
C393 C397 1.393 . S
C394 H386 0.950 . S
C394 C392 1.391 . S
C394 C395 1.400 . S
C395 C394 1.400 . S
C395 C396 1.398 . S
C395 C401 1.491 . S
C396 H387 0.950 . S
C396 C395 1.398 . S
C396 C397 1.391 . S
C397 H385 0.950 . S
C397 C393 1.393 . S
C397 C396 1.391 . S
C398 H388 0.950 . S
C398 C399 1.386 . S
C398 C400 1.391 . S
C399 C398 1.386 . S
C399 C403 1.393 . S
C400 H389 0.950 . S
C400 C398 1.391 . S
C400 C401 1.400 . S
C401 C395 1.491 . S
C401 C400 1.400 . S
C401 C402 1.398 . S
C402 H390 0.950 . S
C402 C401 1.398 . S
C402 C403 1.391 . S
C403 H391 0.950 . S
C403 C399 1.393 . S
C403 C402 1.391 . S
H404 C412 0.950 . S
H405 C417 0.950 . S
H406 C414 0.950 . S
H407 C416 0.950 . S
H408 C418 0.950 . S
H409 C420 0.950 . S
H410 C422 0.950 . S
H411 C423 0.950 . S
C412 H404 0.950 . S
C412 C413 1.386 . S
C412 C414 1.391 . S
C413 C412 1.386 . S
C413 C417 1.393 . S
C414 H406 0.950 . S
C414 C412 1.391 . S
C414 C415 1.400 . S
C415 C414 1.400 . S
C415 C416 1.398 . S
C415 C421 1.491 . S
C416 H407 0.950 . S
C416 C415 1.398 . S
C416 C417 1.391 . S
C417 H405 0.950 . S
C417 C413 1.393 . S
C417 C416 1.391 . S
C418 H408 0.950 . S
C418 C419 1.386 . S
C418 C420 1.391 . S
C419 C418 1.386 . S
C419 C423 1.393 . S
C420 H409 0.950 . S
C420 C418 1.391 . S
C420 C421 1.400 . S
C421 C415 1.491 . S
C421 C420 1.400 . S
C421 C422 1.398 . S
C422 H410 0.950 . S
C422 C421 1.398 . S
C422 C423 1.391 . S
C423 H411 0.950 . S
C423 C419 1.393 . S
C423 C422 1.391 . S
H424 C432 0.950 . S
H425 C437 0.950 . S
H426 C434 0.950 . S
H427 C436 0.950 . S
H428 C438 0.950 . S
H429 C440 0.950 . S
H430 C442 0.950 . S
H431 C443 0.950 . S
C432 H424 0.950 . S
C432 C433 1.386 . S
C432 C434 1.391 . S
C433 C432 1.386 . S
C433 C437 1.393 . S
C434 H426 0.950 . S
C434 C432 1.391 . S
C434 C435 1.400 . S
C435 C434 1.400 . S
C435 C436 1.398 . S
C435 C441 1.491 . S
C436 H427 0.950 . S
C436 C435 1.398 . S
C436 C437 1.391 . S
C437 H425 0.950 . S
C437 C433 1.393 . S
C437 C436 1.391 . S
C438 H428 0.950 . S
C438 C439 1.386 . S
C438 C440 1.391 . S
C439 C438 1.386 . S
C439 C443 1.393 . S
C440 H429 0.950 . S
C440 C438 1.391 . S
C440 C441 1.400 . S
C441 C435 1.491 . S
C441 C440 1.400 . S
C441 C442 1.398 . S
C442 H430 0.950 . S
C442 C441 1.398 . S
C442 C443 1.391 . S
C443 H431 0.950 . S
C443 C439 1.393 . S
C443 C442 1.391 . S
H444 C452 0.950 . S
H445 C457 0.950 . S
H446 C454 0.950 . S
H447 C456 0.950 . S
H448 C458 0.950 . S
H449 C460 0.950 . S
H450 C462 0.950 . S
H451 C463 0.950 . S
C452 H444 0.950 . S
C452 C453 1.386 . S
C452 C454 1.391 . S
C453 C452 1.386 . S
C453 C457 1.393 . S
C454 H446 0.950 . S
C454 C452 1.391 . S
C454 C455 1.400 . S
C455 C454 1.400 . S
C455 C456 1.398 . S
C455 C461 1.491 . S
C456 H447 0.950 . S
C456 C455 1.398 . S
C456 C457 1.391 . S
C457 H445 0.950 . S
C457 C453 1.393 . S
C457 C456 1.391 . S
C458 H448 0.950 . S
C458 C459 1.386 . S
C458 C460 1.391 . S
C459 C458 1.386 . S
C459 C463 1.393 . S
C460 H449 0.950 . S
C460 C458 1.391 . S
C460 C461 1.400 . S
C461 C455 1.491 . S
C461 C460 1.400 . S
C461 C462 1.398 . S
C462 H450 0.950 . S
C462 C461 1.398 . S
C462 C463 1.391 . S
C463 H451 0.950 . S
C463 C459 1.393 . S
C463 C462 1.391 . S
H464 C472 0.950 . S
H465 C477 0.950 . S
H466 C474 0.950 . S
H467 C476 0.950 . S
H468 C478 0.950 . S
H469 C480 0.950 . S
H470 C482 0.950 1_554 S
H471 C483 0.950 . S
C472 H464 0.950 . S
C472 C473 1.386 . S
C472 C474 1.391 . S
C473 C472 1.386 . S
C473 C477 1.393 . S
C474 H466 0.950 . S
C474 C472 1.391 . S
C474 C475 1.400 . S
C475 C474 1.400 . S
C475 C476 1.398 1_554 S
C475 C481 1.491 1_554 S
C476 H467 0.950 . S
C476 C475 1.398 1_556 S
C476 C477 1.391 1_556 S
C477 H465 0.950 . S
C477 C473 1.393 . S
C477 C476 1.391 1_554 S
C478 H468 0.950 . S
C478 C479 1.386 . S
C478 C480 1.391 . S
C479 C478 1.386 . S
C479 C483 1.393 . S
C480 H469 0.950 . S
C480 C478 1.391 . S
C480 C481 1.400 . S
C481 C475 1.491 1_556 S
C481 C480 1.400 . S
C481 C482 1.398 . S
C482 H470 0.950 1_556 S
C482 C481 1.398 . S
C482 C483 1.391 . S
C483 H471 0.950 . S
C483 C479 1.393 . S
C483 C482 1.391 . S
H484 C492 0.950 . S
H485 C497 0.950 . S
H486 C494 0.950 . S
H487 C496 0.950 . S
H488 C498 0.950 . S
H489 C500 0.950 . S
H490 C502 0.950 . S
H491 C503 0.950 . S
C492 H484 0.950 . S
C492 C493 1.386 . S
C492 C494 1.391 . S
C493 C492 1.386 . S
C493 C497 1.393 . S
C494 H486 0.950 . S
C494 C492 1.391 . S
C494 C495 1.400 . S
C495 C494 1.400 . S
C495 C496 1.398 . S
C495 C501 1.468 1_455 S
C496 H487 0.950 . S
C496 C495 1.398 . S
C496 C497 1.391 . S
C497 H485 0.950 . S
C497 C493 1.393 . S
C497 C496 1.391 . S
C498 H488 0.950 . S
C498 C499 1.386 . S
C498 C500 1.391 . S
C499 C498 1.386 . S
C499 C503 1.393 . S
C500 H489 0.950 . S
C500 C498 1.391 . S
C500 C501 1.428 . S
C501 C495 1.468 1_655 S
C501 C500 1.428 . S
C501 C502 1.394 1_655 S
C502 H490 0.950 . S
C502 C501 1.394 1_455 S
C502 C503 1.391 1_455 S
C503 H491 0.950 . S
C503 C499 1.393 . S
C503 C502 1.391 1_655 S
H504 C512 0.950 . S
H505 C517 0.950 . S
H506 C514 0.950 . S
H507 C516 0.950 1_655 S
H508 C518 0.950 . S
H509 C520 0.950 . S
H510 C522 0.950 1_455 S
H511 C523 0.950 . S
C512 H504 0.950 . S
C512 C513 1.386 . S
C512 C514 1.391 1_554 S
C513 C512 1.386 . S
C513 C517 1.393 . S
C514 H506 0.950 . S
C514 C512 1.391 1_556 S
C514 C515 1.400 . S
C515 C514 1.400 . S
C515 C516 1.398 1_556 S
C515 C521 1.491 1_455 S
C516 H507 0.950 1_455 S
C516 C515 1.398 1_554 S
C516 C517 1.391 . S
C517 H505 0.950 . S
C517 C513 1.393 . S
C517 C516 1.391 . S
C518 H508 0.950 . S
C518 C519 1.386 . S
C518 C520 1.391 . S
C519 C518 1.386 . S
C519 C523 1.393 . S
C520 H509 0.950 . S
C520 C518 1.391 . S
C520 C521 1.400 . S
C521 C515 1.491 1_655 S
C521 C520 1.400 . S
C521 C522 1.398 . S
C522 H510 0.950 1_655 S
C522 C521 1.398 . S
C522 C523 1.391 . S
C523 H511 0.950 . S
C523 C519 1.393 . S
C523 C522 1.391 . S
H524 C532 0.950 . S
H525 C537 0.950 . S
H526 C534 0.950 . S
H527 C536 0.950 . S
H528 C538 0.950 . S
H529 C540 0.950 . S
H530 C542 0.950 . S
H531 C543 0.950 . S
C532 H524 0.950 . S
C532 C533 1.386 . S
C532 C534 1.391 . S
C533 C532 1.386 . S
C533 C537 1.393 . S
C534 H526 0.950 . S
C534 C532 1.391 . S
C534 C535 1.400 . S
C535 C534 1.400 . S
C535 C536 1.398 . S
C535 C541 1.491 . S
C536 H527 0.950 . S
C536 C535 1.398 . S
C536 C537 1.391 . S
C537 H525 0.950 . S
C537 C533 1.393 . S
C537 C536 1.391 . S
C538 H528 0.950 . S
C538 C539 1.386 . S
C538 C540 1.391 . S
C539 C538 1.386 . S
C539 C543 1.393 . S
C540 H529 0.950 . S
C540 C538 1.391 . S
C540 C541 1.400 . S
C541 C535 1.491 . S
C541 C540 1.400 . S
C541 C542 1.398 . S
C542 H530 0.950 . S
C542 C541 1.398 . S
C542 C543 1.391 . S
C543 H531 0.950 . S
C543 C539 1.393 . S
C543 C542 1.391 . S
H544 C552 0.950 . S
H545 C557 0.950 . S
H546 C554 0.950 . S
H547 C556 0.950 . S
H548 C558 0.950 . S
H549 C560 0.950 . S
H550 C562 0.950 . S
H551 C563 0.950 . S
C552 H544 0.950 . S
C552 C553 1.386 . S
C552 C554 1.391 . S
C553 C552 1.386 . S
C553 C557 1.393 . S
C554 H546 0.950 . S
C554 C552 1.391 . S
C554 C555 1.400 . S
C555 C554 1.400 . S
C555 C556 1.398 . S
C555 C561 1.491 . S
C556 H547 0.950 . S
C556 C555 1.398 . S
C556 C557 1.391 . S
C557 H545 0.950 . S
C557 C553 1.393 . S
C557 C556 1.391 . S
C558 H548 0.950 . S
C558 C559 1.386 . S
C558 C560 1.391 . S
C559 C558 1.386 . S
C559 C563 1.393 . S
C560 H549 0.950 . S
C560 C558 1.391 . S
C560 C561 1.400 . S
C561 C555 1.491 . S
C561 C560 1.400 . S
C561 C562 1.398 . S
C562 H550 0.950 . S
C562 C561 1.398 . S
C562 C563 1.391 . S
C563 H551 0.950 . S
C563 C559 1.393 . S
C563 C562 1.391 . S
H564 C572 0.950 . S
H565 C577 0.950 . S
H566 C574 0.950 . S
H567 C576 0.950 . S
H568 C578 0.950 . S
H569 C580 0.950 . S
H570 C582 0.950 . S
H571 C583 0.950 1_545 S
C572 H564 0.950 . S
C572 C573 1.386 . S
C572 C574 1.391 . S
C573 C572 1.386 . S
C573 C577 1.393 . S
C574 H566 0.950 . S
C574 C572 1.391 . S
C574 C575 1.400 . S
C575 C574 1.400 . S
C575 C576 1.398 . S
C575 C581 1.491 . S
C576 H567 0.950 . S
C576 C575 1.398 . S
C576 C577 1.391 . S
C577 H565 0.950 . S
C577 C573 1.393 . S
C577 C576 1.391 . S
C578 H568 0.950 . S
C578 C579 1.386 . S
C578 C580 1.391 . S
C579 C578 1.386 . S
C579 C583 1.393 . S
C580 H569 0.950 . S
C580 C578 1.391 . S
C580 C581 1.400 . S
C581 C575 1.491 . S
C581 C580 1.400 . S
C581 C582 1.398 . S
C582 H570 0.950 . S
C582 C581 1.398 . S
C582 C583 1.391 . S
C583 H571 0.950 1_565 S
C583 C579 1.393 . S
C583 C582 1.391 . S
H584 C592 0.950 . S
H585 C597 0.950 . S
H586 C594 0.950 . S
H587 C596 0.950 . S
H588 C598 0.950 . S
H589 C600 0.950 . S
H590 C602 0.950 . S
H591 C603 0.950 . S
C592 H584 0.950 . S
C592 C593 1.386 . S
C592 C594 1.391 . S
C593 C592 1.386 . S
C593 C597 1.393 . S
C594 H586 0.950 . S
C594 C592 1.391 . S
C594 C595 1.400 . S
C595 C594 1.400 . S
C595 C596 1.398 . S
C595 C601 1.491 . S
C596 H587 0.950 . S
C596 C595 1.398 . S
C596 C597 1.391 . S
C597 H585 0.950 . S
C597 C593 1.393 . S
C597 C596 1.391 . S
C598 H588 0.950 . S
C598 C599 1.386 . S
C598 C600 1.391 . S
C599 C598 1.386 . S
C599 C603 1.393 . S
C600 H589 0.950 . S
C600 C598 1.391 . S
C600 C601 1.400 . S
C601 C595 1.491 . S
C601 C600 1.400 . S
C601 C602 1.398 . S
C602 H590 0.950 . S
C602 C601 1.398 . S
C602 C603 1.391 . S
C603 H591 0.950 . S
C603 C599 1.393 . S
C603 C602 1.391 . S
H604 C612 0.950 . S
H605 C617 0.950 1_554 S
H606 C614 0.950 . S
H607 C616 0.950 . S
H608 C618 0.950 . S
H609 C620 0.950 . S
H610 C622 0.950 . S
H611 C623 0.950 . S
C612 H604 0.950 . S
C612 C613 1.386 . S
C612 C614 1.391 . S
C613 C612 1.386 . S
C613 C617 1.393 . S
C614 H606 0.950 . S
C614 C612 1.391 . S
C614 C615 1.400 . S
C615 C614 1.400 . S
C615 C616 1.398 . S
C615 C621 1.491 . S
C616 H607 0.950 . S
C616 C615 1.398 . S
C616 C617 1.391 . S
C617 H605 0.950 1_556 S
C617 C613 1.393 . S
C617 C616 1.391 . S
C618 H608 0.950 . S
C618 C619 1.386 . S
C618 C620 1.391 . S
C619 C618 1.386 . S
C619 C623 1.393 . S
C620 H609 0.950 . S
C620 C618 1.391 . S
C620 C621 1.400 . S
C621 C615 1.491 . S
C621 C620 1.400 . S
C621 C622 1.398 . S
C622 H610 0.950 . S
C622 C621 1.398 . S
C622 C623 1.391 . S
C623 H611 0.950 . S
C623 C619 1.393 . S
C623 C622 1.391 . S
H624 C632 0.950 . S
H625 C637 0.950 . S
H626 C634 0.950 . S
H627 C636 0.950 . S
H628 C638 0.950 . S
H629 C640 0.950 . S
H630 C642 0.950 . S
H631 C643 0.950 . S
C632 H624 0.950 . S
C632 C633 1.386 . S
C632 C634 1.391 . S
C633 C632 1.386 . S
C633 C637 1.393 . S
C634 H626 0.950 . S
C634 C632 1.391 . S
C634 C635 1.400 . S
C635 C634 1.400 . S
C635 C636 1.398 . S
C635 C641 1.491 . S
C636 H627 0.950 . S
C636 C635 1.398 . S
C636 C637 1.391 . S
C637 H625 0.950 . S
C637 C633 1.393 . S
C637 C636 1.391 . S
C638 H628 0.950 . S
C638 C639 1.386 . S
C638 C640 1.391 . S
C639 C638 1.386 . S
C639 C643 1.393 . S
C640 H629 0.950 . S
C640 C638 1.391 . S
C640 C641 1.400 . S
C641 C635 1.491 . S
C641 C640 1.400 . S
C641 C642 1.398 . S
C642 H630 0.950 . S
C642 C641 1.398 . S
C642 C643 1.391 . S
C643 H631 0.950 . S
C643 C639 1.393 . S
C643 C642 1.391 . S
H644 C652 0.950 . S
H645 C657 0.950 . S
H646 C654 0.950 . S
H647 C656 0.950 . S
H648 C658 0.950 . S
H649 C660 0.950 . S
H650 C662 0.950 . S
H651 C663 0.950 . S
C652 H644 0.950 . S
C652 C653 1.386 . S
C652 C654 1.391 1_545 S
C653 C652 1.386 . S
C653 C657 1.393 1_545 S
C654 H646 0.950 . S
C654 C652 1.391 1_565 S
C654 C655 1.400 . S
C655 C654 1.400 . S
C655 C656 1.398 . S
C655 C661 1.491 . S
C656 H647 0.950 . S
C656 C655 1.398 . S
C656 C657 1.391 . S
C657 H645 0.950 . S
C657 C653 1.393 1_565 S
C657 C656 1.391 . S
C658 H648 0.950 . S
C658 C659 1.386 . S
C658 C660 1.391 . S
C659 C658 1.386 . S
C659 C663 1.393 . S
C660 H649 0.950 . S
C660 C658 1.391 . S
C660 C661 1.400 . S
C661 C655 1.491 . S
C661 C660 1.400 . S
C661 C662 1.398 . S
C662 H650 0.950 . S
C662 C661 1.398 . S
C662 C663 1.391 . S
C663 H651 0.950 . S
C663 C659 1.393 . S
C663 C662 1.391 . S
H664 C672 0.950 . S
H665 C677 0.950 . S
H666 C674 0.950 . S
H667 C676 0.950 . S
H668 C678 0.950 . S
H669 C680 0.950 . S
H670 C682 0.950 . S
H671 C683 0.950 . S
C672 H664 0.950 . S
C672 C673 1.386 . S
C672 C674 1.391 . S
C673 C672 1.386 . S
C673 C677 1.393 . S
C674 H666 0.950 . S
C674 C672 1.391 . S
C674 C675 1.400 . S
C675 C674 1.400 . S
C675 C676 1.398 . S
C675 C681 1.491 . S
C676 H667 0.950 . S
C676 C675 1.398 . S
C676 C677 1.391 . S
C677 H665 0.950 . S
C677 C673 1.393 . S
C677 C676 1.391 . S
C678 H668 0.950 . S
C678 C679 1.386 . S
C678 C680 1.391 . S
C679 C678 1.386 . S
C679 C683 1.393 . S
C680 H669 0.950 . S
C680 C678 1.391 . S
C680 C681 1.400 . S
C681 C675 1.491 . S
C681 C680 1.400 . S
C681 C682 1.398 . S
C682 H670 0.950 . S
C682 C681 1.398 . S
C682 C683 1.391 . S
C683 H671 0.950 . S
C683 C679 1.393 . S
C683 C682 1.391 . S
H684 C692 0.950 . S
H685 C697 0.950 . S
H686 C694 0.950 . S
H687 C696 0.950 . S
H688 C698 0.950 . S
H689 C700 0.950 . S
H690 C702 0.950 . S
H691 C703 0.950 . S
C692 H684 0.950 . S
C692 C693 1.386 . S
C692 C694 1.391 . S
C693 C692 1.386 . S
C693 C697 1.393 . S
C694 H686 0.950 . S
C694 C692 1.391 . S
C694 C695 1.400 . S
C695 C694 1.400 . S
C695 C696 1.398 . S
C695 C701 1.491 . S
C696 H687 0.950 . S
C696 C695 1.398 . S
C696 C697 1.391 . S
C697 H685 0.950 . S
C697 C693 1.393 . S
C697 C696 1.391 . S
C698 H688 0.950 . S
C698 C699 1.386 . S
C698 C700 1.391 . S
C699 C698 1.386 . S
C699 C703 1.393 . S
C700 H689 0.950 . S
C700 C698 1.391 . S
C700 C701 1.400 . S
C701 C695 1.491 . S
C701 C700 1.400 . S
C701 C702 1.398 . S
C702 H690 0.950 . S
C702 C701 1.398 . S
C702 C703 1.391 . S
C703 H691 0.950 . S
C703 C699 1.393 . S
C703 C702 1.391 . S
H704 C712 0.950 1_554 S
H705 C717 0.950 . S
H706 C714 0.950 . S
H707 C716 0.950 . S
H708 C718 0.950 . S
H709 C720 0.950 . S
H710 C722 0.950 . S
H711 C723 0.950 . S
C712 H704 0.950 1_556 S
C712 C713 1.386 . S
C712 C714 1.391 . S
C713 C712 1.386 . S
C713 C717 1.393 . S
C714 H706 0.950 . S
C714 C712 1.391 . S
C714 C715 1.400 . S
C715 C714 1.400 . S
C715 C716 1.398 . S
C715 C721 1.491 . S
C716 H707 0.950 . S
C716 C715 1.398 . S
C716 C717 1.391 . S
C717 H705 0.950 . S
C717 C713 1.393 . S
C717 C716 1.391 . S
C718 H708 0.950 . S
C718 C719 1.386 . S
C718 C720 1.391 . S
C719 C718 1.386 . S
C719 C723 1.393 . S
C720 H709 0.950 . S
C720 C718 1.391 . S
C720 C721 1.400 . S
C721 C715 1.491 . S
C721 C720 1.400 . S
C721 C722 1.398 . S
C722 H710 0.950 . S
C722 C721 1.398 . S
C722 C723 1.391 . S
C723 H711 0.950 . S
C723 C719 1.393 . S
C723 C722 1.391 . S
H724 C732 0.950 . S
H725 C737 0.950 . S
H726 C734 0.950 . S
H727 C736 0.950 . S
H728 C738 0.950 . S
H729 C740 0.950 . S
H730 C742 0.950 . S
H731 C743 0.950 . S
C732 H724 0.950 . S
C732 C733 1.386 . S
C732 C734 1.391 . S
C733 C732 1.386 . S
C733 C737 1.393 . S
C734 H726 0.950 . S
C734 C732 1.391 . S
C734 C735 1.400 . S
C735 C734 1.400 . S
C735 C736 1.398 . S
C735 C741 1.491 . S
C736 H727 0.950 . S
C736 C735 1.398 . S
C736 C737 1.391 . S
C737 H725 0.950 . S
C737 C733 1.393 . S
C737 C736 1.391 . S
C738 H728 0.950 . S
C738 C739 1.386 . S
C738 C740 1.391 . S
C739 C738 1.386 . S
C739 C743 1.393 . S
C740 H729 0.950 . S
C740 C738 1.391 . S
C740 C741 1.400 . S
C741 C735 1.491 . S
C741 C740 1.400 . S
C741 C742 1.398 . S
C742 H730 0.950 . S
C742 C741 1.398 . S
C742 C743 1.391 . S
C743 H731 0.950 . S
C743 C739 1.393 . S
C743 C742 1.391 . S
H744 C752 0.950 . S
H745 C757 0.950 . S
H746 C754 0.950 . S
H747 C756 0.950 . S
H748 C758 0.950 . S
H749 C760 0.950 . S
H750 C762 0.950 . S
H751 C763 0.950 . S
C752 H744 0.950 . S
C752 C753 1.386 . S
C752 C754 1.391 . S
C753 C752 1.386 . S
C753 C757 1.393 . S
C754 H746 0.950 . S
C754 C752 1.391 . S
C754 C755 1.400 . S
C755 C754 1.400 . S
C755 C756 1.398 . S
C755 C761 1.491 . S
C756 H747 0.950 . S
C756 C755 1.398 . S
C756 C757 1.391 . S
C757 H745 0.950 . S
C757 C753 1.393 . S
C757 C756 1.391 . S
C758 H748 0.950 . S
C758 C759 1.386 . S
C758 C760 1.391 . S
C759 C758 1.386 . S
C759 C763 1.393 . S
C760 H749 0.950 . S
C760 C758 1.391 . S
C760 C761 1.400 . S
C761 C755 1.491 . S
C761 C760 1.400 . S
C761 C762 1.398 . S
C762 H750 0.950 . S
C762 C761 1.398 . S
C762 C763 1.391 . S
C763 H751 0.950 . S
C763 C759 1.393 . S
C763 C762 1.391 . S
H764 C772 0.950 . S
H765 C777 0.950 . S
H766 C774 0.950 . S
H767 C776 0.950 . S
H768 C778 0.950 . S
H769 C780 0.950 . S
H770 C782 0.950 . S
H771 C783 0.950 . S
C772 H764 0.950 . S
C772 C773 1.386 . S
C772 C774 1.391 1_545 S
C773 C772 1.386 . S
C773 C777 1.393 1_545 S
C774 H766 0.950 . S
C774 C772 1.391 1_565 S
C774 C775 1.400 . S
C775 C774 1.400 . S
C775 C776 1.398 . S
C775 C781 1.491 . S
C776 H767 0.950 . S
C776 C775 1.398 . S
C776 C777 1.391 . S
C777 H765 0.950 . S
C777 C773 1.393 1_565 S
C777 C776 1.391 . S
C778 H768 0.950 . S
C778 C779 1.386 . S
C778 C780 1.391 . S
C779 C778 1.386 . S
C779 C783 1.393 . S
C780 H769 0.950 . S
C780 C778 1.391 . S
C780 C781 1.400 . S
C781 C775 1.491 . S
C781 C780 1.400 . S
C781 C782 1.398 . S
C782 H770 0.950 . S
C782 C781 1.398 . S
C782 C783 1.391 . S
C783 H771 0.950 . S
C783 C779 1.393 . S
C783 C782 1.391 . S
H784 C792 0.950 . S
H785 C797 0.950 . S
H786 C794 0.950 . S
H787 C796 0.950 . S
H788 C798 0.950 . S
H789 C800 0.950 . S
H790 C802 0.950 . S
H791 C803 0.950 . S
C792 H784 0.950 . S
C792 C793 1.386 . S
C792 C794 1.391 . S
C793 C792 1.386 . S
C793 C797 1.393 . S
C794 H786 0.950 . S
C794 C792 1.391 . S
C794 C795 1.400 . S
C795 C794 1.400 . S
C795 C796 1.398 . S
C795 C801 1.491 . S
C796 H787 0.950 . S
C796 C795 1.398 . S
C796 C797 1.391 . S
C797 H785 0.950 . S
C797 C793 1.393 . S
C797 C796 1.391 . S
C798 H788 0.950 . S
C798 C799 1.386 . S
C798 C800 1.391 . S
C799 C798 1.386 . S
C799 C803 1.393 . S
C800 H789 0.950 . S
C800 C798 1.391 . S
C800 C801 1.400 . S
C801 C795 1.491 . S
C801 C800 1.400 . S
C801 C802 1.398 . S
C802 H790 0.950 . S
C802 C801 1.398 . S
C802 C803 1.391 . S
C803 H791 0.950 . S
C803 C799 1.393 . S
C803 C802 1.391 . S
H804 C812 0.950 . S
H805 C817 0.950 . S
H806 C814 0.950 . S
H807 C816 0.950 . S
H808 C818 0.950 . S
H809 C820 0.950 . S
H810 C822 0.950 . S
H811 C823 0.950 . S
C812 H804 0.950 . S
C812 C813 1.386 . S
C812 C814 1.391 . S
C813 C812 1.386 . S
C813 C817 1.393 . S
C814 H806 0.950 . S
C814 C812 1.391 . S
C814 C815 1.400 . S
C815 C814 1.400 . S
C815 C816 1.398 . S
C815 C821 1.491 . S
C816 H807 0.950 . S
C816 C815 1.398 . S
C816 C817 1.391 . S
C817 H805 0.950 . S
C817 C813 1.393 . S
C817 C816 1.391 . S
C818 H808 0.950 . S
C818 C819 1.386 . S
C818 C820 1.391 . S
C819 C818 1.386 . S
C819 C823 1.393 . S
C820 H809 0.950 . S
C820 C818 1.391 . S
C820 C821 1.400 . S
C821 C815 1.491 . S
C821 C820 1.400 . S
C821 C822 1.398 . S
C822 H810 0.950 . S
C822 C821 1.398 . S
C822 C823 1.391 . S
C823 H811 0.950 . S
C823 C819 1.393 . S
C823 C822 1.391 . S
H824 C832 0.950 . S
H825 C837 0.950 . S
H826 C834 0.950 . S
H827 C836 0.950 . S
H828 C838 0.950 . S
H829 C840 0.950 . S
H830 C842 0.950 . S
H831 C843 0.950 . S
C832 H824 0.950 . S
C832 C833 1.386 . S
C832 C834 1.391 . S
C833 C832 1.386 . S
C833 C837 1.393 . S
C834 H826 0.950 . S
C834 C832 1.391 . S
C834 C835 1.400 . S
C835 C834 1.400 . S
C835 C836 1.398 . S
C835 C841 1.491 . S
C836 H827 0.950 . S
C836 C835 1.398 . S
C836 C837 1.391 . S
C837 H825 0.950 . S
C837 C833 1.393 . S
C837 C836 1.391 . S
C838 H828 0.950 . S
C838 C839 1.386 . S
C838 C840 1.391 . S
C839 C838 1.386 . S
C839 C843 1.393 . S
C840 H829 0.950 . S
C840 C838 1.391 . S
C840 C841 1.400 . S
C841 C835 1.491 . S
C841 C840 1.400 . S
C841 C842 1.398 . S
C842 H830 0.950 . S
C842 C841 1.398 . S
C842 C843 1.391 . S
C843 H831 0.950 . S
C843 C839 1.393 . S
C843 C842 1.391 . S
H844 C852 0.950 . S
H845 C857 0.950 . S
H846 C854 0.950 . S
H847 C856 0.950 . S
H848 C858 0.950 . S
H849 C860 0.950 . S
H850 C862 0.950 . S
H851 C863 0.950 . S
C852 H844 0.950 . S
C852 C853 1.386 . S
C852 C854 1.391 . S
C853 C852 1.386 . S
C853 C857 1.393 . S
C854 H846 0.950 . S
C854 C852 1.391 . S
C854 C855 1.400 . S
C855 C854 1.400 . S
C855 C856 1.398 . S
C855 C861 1.491 . S
C856 H847 0.950 . S
C856 C855 1.398 . S
C856 C857 1.391 . S
C857 H845 0.950 . S
C857 C853 1.393 . S
C857 C856 1.391 . S
C858 H848 0.950 . S
C858 C859 1.386 . S
C858 C860 1.391 . S
C859 C858 1.386 . S
C859 C863 1.393 . S
C860 H849 0.950 . S
C860 C858 1.391 . S
C860 C861 1.400 . S
C861 C855 1.491 . S
C861 C860 1.400 . S
C861 C862 1.398 . S
C862 H850 0.950 . S
C862 C861 1.398 . S
C862 C863 1.391 . S
C863 H851 0.950 . S
C863 C859 1.393 . S
C863 C862 1.391 . S
C233 C6 1.330 . S
C239 C176 1.354 . S
C253 C23 1.829 . S
C259 C79 1.831 . S
C273 C34 1.337 . S
C279 C204 1.352 . S
C293 C107 1.820 . S
C299 C51 1.820 . S
C313 C205 1.824 . S
C319 C36 1.821 . S
C333 C106 1.340 . S
C339 C49 1.345 . S
C353 C177 1.822 . S
C359 C8 1.820 . S
C373 C78 1.343 . S
C379 C21 1.346 . S
C393 C64 1.355 . S
C399 C118 1.330 . S
C413 C92 1.340 . S
C419 C146 1.345 . S
C433 C148 1.822 . S
C439 C93 1.826 . S
C453 C65 1.822 . S
C459 C120 1.820 . S
C473 C191 1.817 . S
C479 C135 1.823 . S
C493 C163 1.826 . S
C499 C219 1.817 . S
C513 C161 1.342 . S
C519 C218 1.348 . S
C533 C133 1.345 . S
C539 C190 1.340 . S
C553 C160 1.563 . S
C559 C7 1.557 . S
C573 C121 1.418 . S
C579 C22 1.420 1_565 S
C593 C35 1.554 . S
C599 C132 1.558 . S
C613 C149 1.409 . S
C619 C50 1.425 . S
C633 C162 1.411 . S
C639 C37 1.415 . S
C653 C48 1.552 . S
C659 C119 1.556 . S
C673 C134 1.424 . S
C679 C9 1.413 . S
C693 C147 1.557 . S
C699 C20 1.563 . S
C713 C62 1.380 . S
C719 C216 1.369 . S
C733 C175 1.542 . S
C739 C77 1.555 . S
C753 C90 1.366 . S
C759 C188 1.378 . S
C773 C105 1.545 . S
C779 C203 1.556 . S
C793 C91 1.542 . S
C799 C217 1.535 . S
C813 C174 1.378 . S
C819 C104 1.377 . S
C833 C189 1.556 . S
C839 C63 1.550 . S
C853 C202 1.375 . S
C859 C76 1.365 . S
