# Generated by pormake.
# Topology smd, (6)-cn, num edge types: 1
# Building blocks:
#     Node 0, Type 0, BuildingBlock: GEDQOX_clean_sbu_0, # of connection points: 6
#     Node 1, Type 0, BuildingBlock: GEDQOX_clean_sbu_0, # of connection points: 6
#     Node 2, Type 0, BuildingBlock: GEDQOX_clean_sbu_0, # of connection points: 6
#     Node 3, Type 0, BuildingBlock: GEDQOX_clean_sbu_0, # of connection points: 6
#     Node 4, Type 0, BuildingBlock: GEDQOX_clean_sbu_0, # of connection points: 6
#     Node 5, Type 0, BuildingBlock: GEDQOX_clean_sbu_0, # of connection points: 6
#     Node 6, Type 0, BuildingBlock: GEDQOX_clean_sbu_0, # of connection points: 6
#     Node 7, Type 0, BuildingBlock: GEDQOX_clean_sbu_0, # of connection points: 6
#     Node 8, Type 0, BuildingBlock: GEDQOX_clean_sbu_0, # of connection points: 6
#     Node 9, Type 0, BuildingBlock: GEDQOX_clean_sbu_0, # of connection points: 6
#     Node 10, Type 0, BuildingBlock: GEDQOX_clean_sbu_0, # of connection points: 6
#     Node 11, Type 0, BuildingBlock: GEDQOX_clean_sbu_0, # of connection points: 6
#     Node 12, Type 0, BuildingBlock: GEDQOX_clean_sbu_0, # of connection points: 6
#     Node 13, Type 0, BuildingBlock: GEDQOX_clean_sbu_0, # of connection points: 6
#     Node 14, Type 0, BuildingBlock: GEDQOX_clean_sbu_0, # of connection points: 6
#     Node 15, Type 0, BuildingBlock: GEDQOX_clean_sbu_0, # of connection points: 6
#     Node 16, Type 0, BuildingBlock: GEDQOX_clean_sbu_0, # of connection points: 6
#     Node 17, Type 0, BuildingBlock: GEDQOX_clean_sbu_0, # of connection points: 6
#     Edge 18, Type (0, 0), BuildingBlock: MIFKUJ_clean_linker_0, # of connection points: 2
#     Edge 19, Type (0, 0), BuildingBlock: MIFKUJ_clean_linker_0, # of connection points: 2
#     Edge 20, Type (0, 0), BuildingBlock: MIFKUJ_clean_linker_0, # of connection points: 2
#     Edge 21, Type (0, 0), BuildingBlock: MIFKUJ_clean_linker_0, # of connection points: 2
#     Edge 22, Type (0, 0), BuildingBlock: MIFKUJ_clean_linker_0, # of connection points: 2
#     Edge 23, Type (0, 0), BuildingBlock: MIFKUJ_clean_linker_0, # of connection points: 2
#     Edge 24, Type (0, 0), BuildingBlock: MIFKUJ_clean_linker_0, # of connection points: 2
#     Edge 25, Type (0, 0), BuildingBlock: MIFKUJ_clean_linker_0, # of connection points: 2
#     Edge 26, Type (0, 0), BuildingBlock: MIFKUJ_clean_linker_0, # of connection points: 2
#     Edge 27, Type (0, 0), BuildingBlock: MIFKUJ_clean_linker_0, # of connection points: 2
#     Edge 28, Type (0, 0), BuildingBlock: MIFKUJ_clean_linker_0, # of connection points: 2
#     Edge 29, Type (0, 0), BuildingBlock: MIFKUJ_clean_linker_0, # of connection points: 2
#     Edge 30, Type (0, 0), BuildingBlock: MIFKUJ_clean_linker_0, # of connection points: 2
#     Edge 31, Type (0, 0), BuildingBlock: MIFKUJ_clean_linker_0, # of connection points: 2
#     Edge 32, Type (0, 0), BuildingBlock: MIFKUJ_clean_linker_0, # of connection points: 2
#     Edge 33, Type (0, 0), BuildingBlock: MIFKUJ_clean_linker_0, # of connection points: 2
#     Edge 34, Type (0, 0), BuildingBlock: MIFKUJ_clean_linker_0, # of connection points: 2
#     Edge 35, Type (0, 0), BuildingBlock: MIFKUJ_clean_linker_0, # of connection points: 2
#     Edge 36, Type (0, 0), BuildingBlock: MIFKUJ_clean_linker_0, # of connection points: 2
#     Edge 37, Type (0, 0), BuildingBlock: MIFKUJ_clean_linker_0, # of connection points: 2
#     Edge 38, Type (0, 0), BuildingBlock: MIFKUJ_clean_linker_0, # of connection points: 2
#     Edge 39, Type (0, 0), BuildingBlock: MIFKUJ_clean_linker_0, # of connection points: 2
#     Edge 40, Type (0, 0), BuildingBlock: MIFKUJ_clean_linker_0, # of connection points: 2
#     Edge 41, Type (0, 0), BuildingBlock: MIFKUJ_clean_linker_0, # of connection points: 2
#     Edge 42, Type (0, 0), BuildingBlock: MIFKUJ_clean_linker_0, # of connection points: 2
#     Edge 43, Type (0, 0), BuildingBlock: MIFKUJ_clean_linker_0, # of connection points: 2
#     Edge 44, Type (0, 0), BuildingBlock: MIFKUJ_clean_linker_0, # of connection points: 2
#     Edge 45, Type (0, 0), BuildingBlock: MIFKUJ_clean_linker_0, # of connection points: 2
#     Edge 46, Type (0, 0), BuildingBlock: MIFKUJ_clean_linker_0, # of connection points: 2
#     Edge 47, Type (0, 0), BuildingBlock: MIFKUJ_clean_linker_0, # of connection points: 2
#     Edge 48, Type (0, 0), BuildingBlock: MIFKUJ_clean_linker_0, # of connection points: 2
#     Edge 49, Type (0, 0), BuildingBlock: MIFKUJ_clean_linker_0, # of connection points: 2
#     Edge 50, Type (0, 0), BuildingBlock: MIFKUJ_clean_linker_0, # of connection points: 2
#     Edge 51, Type (0, 0), BuildingBlock: MIFKUJ_clean_linker_0, # of connection points: 2
#     Edge 52, Type (0, 0), BuildingBlock: MIFKUJ_clean_linker_0, # of connection points: 2
#     Edge 53, Type (0, 0), BuildingBlock: MIFKUJ_clean_linker_0, # of connection points: 2
#     Edge 54, Type (0, 0), BuildingBlock: MIFKUJ_clean_linker_0, # of connection points: 2
#     Edge 55, Type (0, 0), BuildingBlock: MIFKUJ_clean_linker_0, # of connection points: 2
#     Edge 56, Type (0, 0), BuildingBlock: MIFKUJ_clean_linker_0, # of connection points: 2
#     Edge 57, Type (0, 0), BuildingBlock: MIFKUJ_clean_linker_0, # of connection points: 2
#     Edge 58, Type (0, 0), BuildingBlock: MIFKUJ_clean_linker_0, # of connection points: 2
#     Edge 59, Type (0, 0), BuildingBlock: MIFKUJ_clean_linker_0, # of connection points: 2
#     Edge 60, Type (0, 0), BuildingBlock: MIFKUJ_clean_linker_0, # of connection points: 2
#     Edge 61, Type (0, 0), BuildingBlock: MIFKUJ_clean_linker_0, # of connection points: 2
#     Edge 62, Type (0, 0), BuildingBlock: MIFKUJ_clean_linker_0, # of connection points: 2
#     Edge 63, Type (0, 0), BuildingBlock: MIFKUJ_clean_linker_0, # of connection points: 2
#     Edge 64, Type (0, 0), BuildingBlock: MIFKUJ_clean_linker_0, # of connection points: 2
#     Edge 65, Type (0, 0), BuildingBlock: MIFKUJ_clean_linker_0, # of connection points: 2
#     Edge 66, Type (0, 0), BuildingBlock: MIFKUJ_clean_linker_0, # of connection points: 2
#     Edge 67, Type (0, 0), BuildingBlock: MIFKUJ_clean_linker_0, # of connection points: 2
#     Edge 68, Type (0, 0), BuildingBlock: MIFKUJ_clean_linker_0, # of connection points: 2
#     Edge 69, Type (0, 0), BuildingBlock: MIFKUJ_clean_linker_0, # of connection points: 2
#     Edge 70, Type (0, 0), BuildingBlock: MIFKUJ_clean_linker_0, # of connection points: 2
#     Edge 71, Type (0, 0), BuildingBlock: MIFKUJ_clean_linker_0, # of connection points: 2
# Relax obj value: 0.268
# Max RMSD: 0.257
# Mean RMSD: 0.257
data_MOF--net-smd--node1-GEDQOX_clean_sbu_0--edge1-MIFKUJ_clean_linker_0
_symmetry_space_group_name_H-M    P1
_symmetry_Int_Tables_number       1
_symmetry_cell_setting            triclinic
loop_
_symmetry_equiv_pos_as_xyz
'x, y, z'
_cell_length_a     114.65819
_cell_length_b     114.73575
_cell_length_c     20.166919
_cell_angle_alpha  90.051096
_cell_angle_beta   89.962294
_cell_angle_gamma 119.99378
loop_
_atom_site_label
_atom_site_type_symbol
_atom_site_fract_x
_atom_site_fract_y
_atom_site_fract_z
_atom_type_partial_charge
Nd0 Nd 0.03944 0.23827 0.57827 0.0
Nd1 Nd 0.0129 0.24139 0.57743 0.0
C2 C 0.06472 0.24348 0.57709 0.0
C3 C 0.07495 0.24003 0.55375 0.0
C4 C 0.08476 0.24836 0.50746 0.0
C5 C 0.09573 0.24659 0.49274 0.0
C6 C 0.09724 0.23648 0.52428 0.0
C7 C 0.08716 0.22785 0.56896 0.0
C8 C 0.07618 0.22961 0.58362 0.0
C9 C 0.01576 0.21346 0.56547 0.0
C10 C 0.0245 0.23741 0.43863 0.0
C11 C 0.98926 0.23983 0.59429 0.0
C12 C 0.98392 0.24762 0.62819 0.0
C13 C 0.97131 0.24084 0.65931 0.0
C14 C 0.96584 0.24804 0.68936 0.0
C15 C 0.97285 0.26222 0.68866 0.0
C16 C 0.98562 0.26897 0.65827 0.0
C17 C 0.99112 0.26176 0.62863 0.0
C18 C 0.03685 0.26458 0.55642 0.0
C19 C 0.02678 0.24089 0.72125 0.0
O20 O 0.0601 0.24898 0.53538 0.0
O21 O 0.05574 0.23559 0.62067 0.0
O22 O 0.02765 0.21463 0.56448 0.0
O23 O 0.0174 0.22499 0.57219 0.0
O24 O 0.03623 0.24172 0.46884 0.0
O25 O 0.01319 0.23361 0.47228 0.0
O26 O 0.99351 0.23344 0.63201 0.0
O27 O 0.99703 0.24553 0.54292 0.0
O28 O 0.02541 0.2622 0.53203 0.0
O29 O 0.03525 0.25544 0.5968 0.0
O30 O 0.01696 0.24144 0.68945 0.0
O31 O 0.03664 0.24029 0.69002 0.0
H32 H 0.08425 0.25662 0.48441 0.0
H33 H 0.10333 0.25354 0.45868 0.0
H34 H 0.08784 0.21982 0.59346 0.0
H35 H 0.0689 0.22306 0.61996 0.0
H36 H 0.96563 0.22994 0.65995 0.0
H37 H 0.95611 0.24248 0.71331 0.0
H38 H 0.99128 0.27986 0.65595 0.0
H39 H 1.00092 0.26725 0.60524 0.0
Nd40 Nd 0.81937 0.8246 0.59122 0.0
Nd41 Nd 0.81203 0.79362 0.59058 0.0
C42 C 0.82218 0.8489 0.58454 0.0
C43 C 0.82123 0.86054 0.55946 0.0
C44 C 0.80879 0.85986 0.54818 0.0
C45 C 0.80828 0.87158 0.53377 0.0
C46 C 0.82017 0.88421 0.53121 0.0
C47 C 0.83258 0.88473 0.54041 0.0
C48 C 0.83309 0.87306 0.5543 0.0
C49 C 0.84044 0.81949 0.60272 0.0
C50 C 0.81437 0.80868 0.44918 0.0
C51 C 0.81344 0.77135 0.59498 0.0
C52 C 0.80641 0.75802 0.62705 0.0
C53 C 0.81315 0.75077 0.63553 0.0
C54 C 0.80654 0.7379 0.66364 0.0
C55 C 0.793 0.73198 0.68377 0.0
C56 C 0.78633 0.73941 0.67605 0.0
C57 C 0.79298 0.75231 0.64807 0.0
C58 C 0.78871 0.79503 0.59671 0.0
C59 C 0.81491 0.80928 0.7325 0.0
O60 O 0.81159 0.83852 0.61049 0.0
O61 O 0.83107 0.84609 0.55998 0.0
O62 O 0.83997 0.82913 0.63426 0.0
O63 O 0.83031 0.81338 0.56585 0.0
O64 O 0.814 0.81855 0.48166 0.0
O65 O 0.8154 0.79903 0.47993 0.0
O66 O 0.8206 0.78172 0.63367 0.0
O67 O 0.80666 0.77368 0.54968 0.0
O68 O 0.78883 0.78379 0.59757 0.0
O69 O 0.80061 0.80467 0.59518 0.0
O70 O 0.81579 0.7996 0.70107 0.0
O71 O 0.81439 0.81909 0.70071 0.0
H72 H 0.79947 0.85036 0.55235 0.0
H73 H 0.79856 0.87083 0.52719 0.0
H74 H 0.84194 0.89423 0.53775 0.0
H75 H 0.8428 0.87389 0.5633 0.0
H76 H 0.82355 0.75504 0.61996 0.0
H77 H 0.81208 0.73262 0.66986 0.0
H78 H 0.77587 0.73515 0.6903 0.0
H79 H 0.78758 0.75776 0.6421 0.0
Nd80 Nd 0.23222 0.01428 0.58845 0.0
Nd81 Nd 0.26208 0.0409 0.58744 0.0
C82 C 0.21238 0.98894 0.58743 0.0
C83 C 0.19904 0.97833 0.56285 0.0
C84 C 0.1979 0.96659 0.53491 0.0
C85 C 0.18526 0.95554 0.51999 0.0
C86 C 0.17338 0.95591 0.53272 0.0
C87 C 0.17456 0.96787 0.55878 0.0
C88 C 0.18724 0.97893 0.57381 0.0
C89 C 0.23122 0.03802 0.57681 0.0
C90 C 0.24615 0.02941 0.44836 0.0
C91 C 0.28393 0.06471 0.60483 0.0
C92 C 0.29665 0.07073 0.64266 0.0
C93 C 0.30272 0.08423 0.66226 0.0
C94 C 0.31516 0.09038 0.69485 0.0
C95 C 0.32184 0.08315 0.70832 0.0
C96 C 0.31552 0.06948 0.68987 0.0
C97 C 0.30304 0.06332 0.65754 0.0
C98 C 0.26112 0.01694 0.56501 0.0
C99 C 0.24789 0.02664 0.73099 0.0
O100 O 0.22286 0.99345 0.54789 0.0
O101 O 0.21289 0.99809 0.62827 0.0
O102 O 0.22046 0.02616 0.57601 0.0
O103 O 0.24111 0.03634 0.5831 0.0
O104 O 0.2383 0.01775 0.47835 0.0
O105 O 0.25426 0.04056 0.48182 0.0
O106 O 0.27283 0.06072 0.63873 0.0
O107 O 0.28261 0.05639 0.55717 0.0
O108 O 0.27032 0.02837 0.54116 0.0
O109 O 0.25362 0.01858 0.60555 0.0
O110 O 0.25825 0.03649 0.69921 0.0
O111 O 0.23731 0.01691 0.69987 0.0
H112 H 0.20681 0.96577 0.52683 0.0
H113 H 0.18482 0.94651 0.50089 0.0
H114 H 0.16568 0.96864 0.56829 0.0
H115 H 0.18775 0.98781 0.59554 0.0
H116 H 0.29791 0.09009 0.6516 0.0
H117 H 0.31956 0.10083 0.70937 0.0
H118 H 0.32039 0.06361 0.69871 0.0
H119 H 0.29851 0.05285 0.64309 0.0
Nd120 Nd 0.04568 0.80914 0.41724 0.0
Nd121 Nd 0.01921 0.81249 0.42124 0.0
C122 C 0.07037 0.8129 0.41003 0.0
C123 C 0.07633 0.80523 0.38139 0.0
C124 C 0.09009 0.81175 0.36605 0.0
C125 C 0.09577 0.80458 0.33761 0.0
C126 C 0.08774 0.79075 0.32361 0.0
C127 C 0.07392 0.78429 0.33898 0.0
C128 C 0.06827 0.79146 0.36741 0.0
C129 C 0.02243 0.78421 0.41909 0.0
C130 C 0.0314 0.80898 0.27671 0.0
C131 C 0.9952 0.81022 0.40779 0.0
C132 C 0.98452 0.81278 0.43238 0.0
C133 C 0.98043 0.81094 0.49913 0.0
C134 C 0.96921 0.81198 0.51862 0.0
C135 C 0.96183 0.81476 0.47161 0.0
C136 C 0.96627 0.81699 0.40538 0.0
C137 C 0.97747 0.81603 0.38611 0.0
C138 C 0.04374 0.83541 0.44203 0.0
C139 C 0.03211 0.8104 0.5597 0.0
O140 O 0.06556 0.81801 0.36735 0.0
O141 O 0.06249 0.80751 0.46151 0.0
O142 O 0.03441 0.78576 0.41523 0.0
O143 O 0.02344 0.79561 0.41903 0.0
O144 O 0.04192 0.80949 0.30639 0.0
O145 O 0.02146 0.80911 0.30976 0.0
O146 O 0.99722 0.80135 0.43894 0.0
O147 O 1.00621 0.82029 0.38306 0.0
O148 O 0.03262 0.83337 0.46984 0.0
O149 O 0.04137 0.82605 0.40203 0.0
O150 O 0.02074 0.80737 0.52893 0.0
O151 O 0.04346 0.81375 0.52708 0.0
H152 H 0.09643 0.82241 0.37558 0.0
H153 H 0.1064 0.80991 0.32564 0.0
H154 H 0.06746 0.77363 0.32978 0.0
H155 H 0.0576 0.78624 0.37844 0.0
H156 H 0.98567 0.80837 0.5358 0.0
H157 H 0.96604 0.81015 0.56999 0.0
H158 H 0.96098 0.81938 0.3681 0.0
H159 H 0.98041 0.81747 0.33436 0.0
Nd160 Nd 0.24516 0.2564 0.41597 0.0
Nd161 Nd 0.24104 0.22641 0.42092 0.0
C162 C 0.24142 0.27734 0.40927 0.0
C163 C 0.24884 0.29105 0.38152 0.0
C164 C 0.24225 0.29843 0.37223 0.0
C165 C 0.24917 0.31144 0.34565 0.0
C166 C 0.26286 0.31735 0.32792 0.0
C167 C 0.26939 0.30984 0.33724 0.0
C168 C 0.26245 0.29681 0.36359 0.0
C169 C 0.26985 0.25774 0.42051 0.0
C170 C 0.24531 0.24219 0.27584 0.0
C171 C 0.24277 0.20434 0.40729 0.0
C172 C 0.24142 0.19172 0.43476 0.0
C173 C 0.25262 0.18986 0.43249 0.0
C174 C 0.25146 0.17753 0.45007 0.0
C175 C 0.23902 0.16665 0.47063 0.0
C176 C 0.22785 0.16864 0.4745 0.0
C177 C 0.22902 0.18102 0.45658 0.0
C178 C 0.21849 0.22874 0.43994 0.0
C179 C 0.24367 0.24164 0.55913 0.0
O180 O 0.23636 0.26748 0.36623 0.0
O181 O 0.24696 0.2749 0.46022 0.0
O182 O 0.26847 0.26826 0.41592 0.0
O183 O 0.25839 0.24735 0.41979 0.0
O184 O 0.24604 0.25283 0.30534 0.0
O185 O 0.24367 0.23147 0.30883 0.0
O186 O 0.2528 0.21585 0.42774 0.0
O187 O 0.23189 0.20487 0.3931 0.0
O188 O 0.22036 0.21976 0.46996 0.0
O189 O 0.22791 0.23541 0.39959 0.0
O190 O 0.24605 0.23279 0.52897 0.0
O191 O 0.24083 0.24996 0.5263 0.0
H192 H 0.23173 0.29411 0.38536 0.0
H193 H 0.24373 0.31679 0.33821 0.0
H194 H 0.27995 0.31408 0.32503 0.0
H195 H 0.26771 0.29126 0.37017 0.0
H196 H 0.26226 0.19786 0.41491 0.0
H197 H 0.26025 0.17641 0.44519 0.0
H198 H 0.21815 0.1606 0.49096 0.0
H199 H 0.22017 0.1821 0.4586 0.0
Nd200 Nd 0.79685 0.00932 0.40906 0.0
Nd201 Nd 0.82641 0.036 0.41421 0.0
C202 C 0.77611 0.98449 0.40281 0.0
C203 C 0.76231 0.9783 0.37626 0.0
C204 C 0.75455 0.96429 0.36948 0.0
C205 C 0.74152 0.95835 0.34303 0.0
C206 C 0.73601 0.96633 0.32268 0.0
C207 C 0.74389 0.98041 0.3296 0.0
C208 C 0.7569 0.98632 0.35598 0.0
C209 C 0.79463 0.03227 0.40958 0.0
C210 C 0.81136 0.02338 0.26888 0.0
C211 C 0.84808 0.0601 0.40092 0.0
C212 C 0.86091 0.07124 0.42715 0.0
C213 C 0.86316 0.08441 0.42294 0.0
C214 C 0.87564 0.09543 0.43989 0.0
C215 C 0.88628 0.09361 0.46185 0.0
C216 C 0.8839 0.08033 0.46759 0.0
C217 C 0.87136 0.06927 0.45025 0.0
C218 C 0.8251 0.01163 0.4358 0.0
C219 C 0.81112 0.02307 0.55206 0.0
O220 O 0.78577 0.98952 0.35872 0.0
O221 O 0.77872 0.99231 0.45465 0.0
O222 O 0.78438 0.02018 0.40575 0.0
O223 O 0.80519 0.03153 0.4103 0.0
O224 O 0.8014 0.01279 0.29836 0.0
O225 O 0.82118 0.03351 0.30217 0.0
O226 O 0.83674 0.05823 0.42622 0.0
O227 O 0.84759 0.04892 0.38204 0.0
O228 O 0.83393 0.02276 0.46439 0.0
O229 O 0.81816 0.01391 0.39507 0.0
O230 O 0.81934 0.0345 0.52144 0.0
O231 O 0.80354 0.01166 0.51918 0.0
H232 H 0.75861 0.95795 0.38417 0.0
H233 H 0.73585 0.94752 0.33757 0.0
H234 H 0.73995 0.98687 0.31532 0.0
H235 H 0.76276 0.99717 0.36046 0.0
H236 H 0.85533 0.08622 0.40445 0.0
H237 H 0.87706 0.10543 0.43353 0.0
H238 H 0.89174 0.07848 0.48517 0.0
H239 H 0.86994 0.05922 0.45382 0.0
Nd240 Nd 0.70458 0.56945 0.91429 0.0
Nd241 Nd 0.68072 0.57607 0.91364 0.0
C242 C 0.72616 0.56672 0.90548 0.0
C243 C 0.73874 0.56854 0.87478 0.0
C244 C 0.75084 0.58095 0.87718 0.0
C245 C 0.76305 0.58185 0.85829 0.0
C246 C 0.76348 0.57037 0.83699 0.0
C247 C 0.75127 0.55808 0.83259 0.0
C248 C 0.73909 0.55719 0.85127 0.0
C249 C 0.67861 0.548 0.9268 0.0
C250 C 0.6936 0.57431 0.77227 0.0
C251 C 0.65689 0.5743 0.92109 0.0
C252 C 0.65079 0.58167 0.95289 0.0
C253 C 0.64156 0.57572 1.00521 0.0
C254 C 0.63541 0.5824 0.03419 0.0
C255 C 0.63825 0.59511 0.011 0.0
C256 C 0.64758 0.6011 0.95908 0.0
C257 C 0.65378 0.59448 0.9304 0.0
C258 C 0.70496 0.59992 0.91799 0.0
C259 C 0.69396 0.574 0.05554 0.0
O260 O 0.72616 0.57688 0.93542 0.0
O261 O 0.71449 0.55812 0.87958 0.0
O262 O 0.68878 0.54894 0.95967 0.0
O263 O 0.68243 0.55794 0.88893 0.0
O264 O 0.70397 0.57503 0.80498 0.0
O265 O 0.68271 0.5728 0.80294 0.0
O266 O 0.66053 0.56755 0.96025 0.0
O267 O 0.66541 0.58036 0.87241 0.0
O268 O 0.69333 0.59923 0.91922 0.0
O269 O 0.7033 0.58821 0.9171 0.0
O270 O 0.6832 0.57264 0.02424 0.0
O271 O 0.70437 0.57476 0.02348 0.0
H272 H 0.75096 0.58987 0.89559 0.0
H273 H 0.77219 0.59153 0.86142 0.0
H274 H 0.75115 0.54896 0.81752 0.0
H275 H 0.72999 0.54744 0.85002 0.0
H276 H 0.63899 0.56584 0.02332 0.0
H277 H 0.62819 0.57747 0.07377 0.0
H278 H 0.65016 0.61097 0.94075 0.0
H279 H 0.66087 0.5994 0.89034 0.0
Nd280 Nd 0.48404 0.15523 0.92196 0.0
Nd281 Nd 0.47813 0.12476 0.92283 0.0
C282 C 0.48465 0.17826 0.90382 0.0
C283 C 0.48493 0.19116 0.89357 0.0
C284 C 0.47323 0.19129 0.8744 0.0
C285 C 0.47356 0.20348 0.86265 0.0
C286 C 0.48556 0.21588 0.87087 0.0
C287 C 0.49724 0.21567 0.89091 0.0
C288 C 0.49694 0.20346 0.90154 0.0
C289 C 0.5059 0.15141 0.93339 0.0
C290 C 0.47985 0.13904 0.78037 0.0
C291 C 0.48058 0.10316 0.93199 0.0
C292 C 0.47357 0.09006 0.96623 0.0
C293 C 0.48088 0.08395 0.98705 0.0
C294 C 0.47438 0.0714 0.01839 0.0
C295 C 0.46037 0.06465 0.02925 0.0
C296 C 0.4531 0.07093 0.00885 0.0
C297 C 0.45964 0.08353 0.97793 0.0
C298 C 0.45411 0.12482 0.92931 0.0
C299 C 0.48037 0.14073 0.06401 0.0
O300 O 0.47383 0.16738 0.92429 0.0
O301 O 0.49519 0.1769 0.89372 0.0
O302 O 0.50504 0.16093 0.96419 0.0
O303 O 0.49577 0.14483 0.89687 0.0
O304 O 0.47945 0.1489 0.81245 0.0
O305 O 0.48099 0.12949 0.81143 0.0
O306 O 0.48739 0.11381 0.96956 0.0
O307 O 0.47391 0.10502 0.88428 0.0
O308 O 0.45492 0.11394 0.93029 0.0
O309 O 0.4658 0.13486 0.92708 0.0
O310 O 0.48169 0.13126 0.03288 0.0
O311 O 0.47941 0.15028 0.03195 0.0
H312 H 0.46387 0.18193 0.86724 0.0
H313 H 0.46441 0.20312 0.84602 0.0
H314 H 0.50662 0.22493 0.89918 0.0
H315 H 0.5061 0.20364 0.91665 0.0
H316 H 0.49163 0.08889 0.97873 0.0
H317 H 0.48037 0.06702 0.0344 0.0
H318 H 0.44229 0.066 0.01554 0.0
H319 H 0.45378 0.08809 0.96255 0.0
Nd320 Nd 0.89835 0.34836 0.93253 0.0
Nd321 Nd 0.92817 0.37458 0.93698 0.0
C322 C 0.87662 0.32424 0.94427 0.0
C323 C 0.86431 0.31313 0.9134 0.0
C324 C 0.86322 0.30044 0.90693 0.0
C325 C 0.85115 0.28926 0.88642 0.0
C326 C 0.83978 0.29045 0.87206 0.0
C327 C 0.841 0.30327 0.87625 0.0
C328 C 0.85311 0.31449 0.89695 0.0
C329 C 0.90004 0.37289 0.91257 0.0
C330 C 0.91341 0.36119 0.79382 0.0
C331 C 0.94891 0.39937 0.94521 0.0
C332 C 0.96234 0.40557 0.976 0.0
C333 C 0.97144 0.41932 0.9676 0.0
C334 C 0.9842 0.42526 0.9971 0.0
C335 C 0.98809 0.41753 0.03553 0.0
C336 C 0.97883 0.40371 0.04399 0.0
C337 C 0.96609 0.3978 0.01449 0.0
C338 C 0.92994 0.35146 0.93366 0.0
C339 C 0.91388 0.36039 0.07765 0.0
O340 O 0.88834 0.32611 0.9247 0.0
O341 O 0.87684 0.33545 0.96001 0.0
O342 O 0.89098 0.36183 0.88431 0.0
O343 O 0.90704 0.37049 0.95247 0.0
O344 O 0.90468 0.34993 0.82421 0.0
O345 O 0.92174 0.37239 0.8265 0.0
O346 O 0.93873 0.39448 0.98638 0.0
O347 O 0.94692 0.3914 0.89468 0.0
O348 O 0.94034 0.36347 0.93785 0.0
O349 O 0.91943 0.35233 0.93407 0.0
O350 O 0.92451 0.37025 0.04785 0.0
O351 O 0.90322 0.35114 0.04483 0.0
H352 H 0.87163 0.29906 0.9197 0.0
H353 H 0.85068 0.27962 0.88271 0.0
H354 H 0.83244 0.30455 0.86604 0.0
H355 H 0.85357 0.32411 0.90188 0.0
H356 H 0.96869 0.42547 0.93805 0.0
H357 H 0.99111 0.43587 0.98887 0.0
H358 H 0.98138 0.39748 0.07401 0.0
H359 H 0.95915 0.38716 0.02187 0.0
Nd360 Nd 0.71191 0.14131 0.76904 0.0
Nd361 Nd 0.68736 0.14683 0.76794 0.0
C362 C 0.73595 0.14367 0.7589 0.0
C363 C 0.74155 0.13597 0.7263 0.0
C364 C 0.75366 0.14279 0.69074 0.0
C365 C 0.7591 0.13566 0.6596 0.0
C366 C 0.75256 0.12152 0.66354 0.0
C367 C 0.74036 0.11472 0.69895 0.0
C368 C 0.73489 0.12185 0.72967 0.0
C369 C 0.68827 0.11686 0.76898 0.0
C370 C 0.69819 0.14272 0.6269 0.0
C371 C 0.66543 0.14885 0.77664 0.0
C372 C 0.65291 0.148 0.80202 0.0
C373 C 0.64217 0.13607 0.82785 0.0
C374 C 0.62997 0.13544 0.84481 0.0
C375 C 0.62825 0.14666 0.83529 0.0
C376 C 0.63917 0.15864 0.81092 0.0
C377 C 0.65132 0.15929 0.79466 0.0
C378 C 0.71306 0.16882 0.755 0.0
C379 C 0.69924 0.14332 0.91049 0.0
O380 O 0.73185 0.15 0.71958 0.0
O381 O 0.72787 0.13788 0.8094 0.0
O382 O 0.7002 0.11824 0.76835 0.0
O383 O 0.68927 0.12831 0.76728 0.0
O384 O 0.70904 0.14433 0.6583 0.0
O385 O 0.68763 0.14161 0.65886 0.0
O386 O 0.66534 0.13808 0.75413 0.0
O387 O 0.67722 0.15833 0.79722 0.0
O388 O 0.70275 0.16754 0.72213 0.0
O389 O 0.70945 0.15896 0.79303 0.0
O390 O 0.68865 0.14218 0.87802 0.0
O391 O 0.71017 0.145 0.87953 0.0
H392 H 0.75891 0.15367 0.68695 0.0
H393 H 0.76838 0.14123 0.6319 0.0
H394 H 0.7351 0.10388 0.70395 0.0
H395 H 0.72547 0.1163 0.75636 0.0
H396 H 0.64311 0.12719 0.8337 0.0
H397 H 0.62174 0.12605 0.86332 0.0
H398 H 0.63828 0.16752 0.80396 0.0
H399 H 0.65943 0.16858 0.77454 0.0
Nd400 Nd 0.91452 0.59123 0.7597 0.0
Nd401 Nd 0.90706 0.56029 0.75862 0.0
C402 C 0.91294 0.61339 0.75342 0.0
C403 C 0.91996 0.62646 0.71909 0.0
C404 C 0.91329 0.63373 0.70867 0.0
C405 C 0.91992 0.64635 0.67798 0.0
C406 C 0.93341 0.65199 0.65722 0.0
C407 C 0.93998 0.64452 0.66684 0.0
C408 C 0.93331 0.63187 0.69731 0.0
C409 C 0.93786 0.58988 0.75523 0.0
C410 C 0.91208 0.57578 0.6173 0.0
C411 C 0.90413 0.53593 0.76557 0.0
C412 C 0.90532 0.52462 0.79371 0.0
C413 C 0.91763 0.5247 0.79415 0.0
C414 C 0.91802 0.51298 0.80999 0.0
C415 C 0.9061 0.50092 0.82498 0.0
C416 C 0.89391 0.50105 0.82706 0.0
C417 C 0.89353 0.51274 0.81157 0.0
C418 C 0.8861 0.56554 0.74596 0.0
C419 C 0.91233 0.57623 0.90111 0.0
O420 O 0.90562 0.6028 0.71628 0.0
O421 O 0.91985 0.61128 0.7989 0.0
O422 O 0.93769 0.60109 0.75395 0.0
O423 O 0.92596 0.58017 0.75571 0.0
O424 O 0.91152 0.58565 0.6486 0.0
O425 O 0.91207 0.5657 0.64908 0.0
O426 O 0.91463 0.54622 0.73851 0.0
O427 O 0.89534 0.53888 0.79023 0.0
O428 O 0.88658 0.55591 0.71444 0.0
O429 O 0.89613 0.57152 0.78354 0.0
O430 O 0.91226 0.56617 0.8684 0.0
O431 O 0.9116 0.5861 0.87076 0.0
H432 H 0.90295 0.62967 0.72467 0.0
H433 H 0.91445 0.65166 0.67034 0.0
H434 H 0.95039 0.64857 0.65222 0.0
H435 H 0.93863 0.62639 0.70461 0.0
H436 H 0.92688 0.53364 0.7799 0.0
H437 H 0.92758 0.51322 0.8076 0.0
H438 H 0.88457 0.49202 0.83943 0.0
H439 H 0.88387 0.51231 0.81099 0.0
Nd440 Nd 0.46152 0.34072 0.76028 0.0
Nd441 Nd 0.49251 0.36829 0.76265 0.0
C442 C 0.44062 0.31616 0.75238 0.0
C443 C 0.42713 0.31007 0.72199 0.0
C444 C 0.42056 0.29656 0.70216 0.0
C445 C 0.40778 0.29069 0.67294 0.0
C446 C 0.4013 0.29824 0.66309 0.0
C447 C 0.40801 0.31184 0.68284 0.0
C448 C 0.42081 0.3177 0.71171 0.0
C449 C 0.46078 0.36447 0.75437 0.0
C450 C 0.47715 0.35472 0.62024 0.0
C451 C 0.5126 0.39351 0.76313 0.0
C452 C 0.52626 0.40365 0.78701 0.0
C453 C 0.5281 0.41026 0.84822 0.0
C454 C 0.54068 0.42123 0.86551 0.0
C455 C 0.5517 0.42594 0.82178 0.0
C456 C 0.54994 0.41901 0.76167 0.0
C457 C 0.5374 0.40805 0.74447 0.0
C458 C 0.49243 0.34403 0.77246 0.0
C459 C 0.47729 0.35373 0.90261 0.0
O460 O 0.45082 0.32076 0.71108 0.0
O461 O 0.44279 0.32418 0.8031 0.0
O462 O 0.45008 0.35262 0.75323 0.0
O463 O 0.47093 0.36303 0.75641 0.0
O464 O 0.46789 0.34374 0.65091 0.0
O465 O 0.48625 0.36566 0.6522 0.0
O466 O 0.5024 0.38894 0.8045 0.0
O467 O 0.51156 0.3845 0.71975 0.0
O468 O 0.50352 0.35565 0.77271 0.0
O469 O 0.48285 0.34621 0.76698 0.0
O470 O 0.48649 0.3649 0.87265 0.0
O471 O 0.46812 0.3429 0.87006 0.0
H472 H 0.42533 0.29054 0.7091 0.0
H473 H 0.40305 0.28028 0.65739 0.0
H474 H 0.40331 0.31795 0.67691 0.0
H475 H 0.42573 0.32819 0.7263 0.0
H476 H 0.51971 0.40727 0.88187 0.0
H477 H 0.5416 0.42636 0.91196 0.0
H478 H 0.55824 0.42219 0.72721 0.0
H479 H 0.53634 0.40331 0.69666 0.0
Nd480 Nd 0.37241 0.90405 0.2561 0.0
Nd481 Nd 0.3471 0.90911 0.25528 0.0
C482 C 0.39639 0.90586 0.24987 0.0
C483 C 0.40702 0.90365 0.22034 0.0
C484 C 0.41863 0.9146 0.19327 0.0
C485 C 0.42985 0.91341 0.17645 0.0
C486 C 0.4298 0.90125 0.18658 0.0
C487 C 0.41796 0.89013 0.21124 0.0
C488 C 0.40674 0.89133 0.22809 0.0
C489 C 0.347 0.88147 0.26049 0.0
C490 C 0.36001 0.90674 0.11226 0.0
C491 C 0.32288 0.90638 0.26273 0.0
C492 C 0.31674 0.91351 0.296 0.0
C493 C 0.304 0.90614 0.32558 0.0
C494 C 0.29786 0.91276 0.35524 0.0
C495 C 0.30431 0.9269 0.35552 0.0
C496 C 0.31721 0.93426 0.32702 0.0
C497 C 0.32338 0.92765 0.29784 0.0
C498 C 0.37085 0.93335 0.2678 0.0
C499 C 0.36063 0.90755 0.39636 0.0
O500 O 0.39392 0.91492 0.22461 0.0
O501 O 0.38585 0.8958 0.27775 0.0
O502 O 0.35753 0.88207 0.28818 0.0
O503 O 0.35041 0.89204 0.22798 0.0
O504 O 0.36964 0.90577 0.14404 0.0
O505 O 0.35005 0.90724 0.14337 0.0
O506 O 0.32674 0.89969 0.30102 0.0
O507 O 0.3314 0.91285 0.21461 0.0
O508 O 0.35905 0.93228 0.26661 0.0
O509 O 0.36941 0.92175 0.26448 0.0
O510 O 0.34946 0.90507 0.36506 0.0
O511 O 0.3716 0.90971 0.36432 0.0
H512 H 0.41928 0.9243 0.18783 0.0
H513 H 0.4388 0.92224 0.1584 0.0
H514 H 0.41745 0.88054 0.21875 0.0
H515 H 0.39802 0.88271 0.2494 0.0
H516 H 0.29873 0.89524 0.32498 0.0
H517 H 0.2879 0.90679 0.37637 0.0
H518 H 0.32254 0.94516 0.32732 0.0
H519 H 0.33329 0.93361 0.2762 0.0
Nd520 Nd 0.15091 0.48938 0.25621 0.0
Nd521 Nd 0.14569 0.45954 0.25422 0.0
C522 C 0.15324 0.51348 0.24726 0.0
C523 C 0.15222 0.52512 0.22235 0.0
C524 C 0.14011 0.52541 0.22558 0.0
C525 C 0.13993 0.53732 0.21171 0.0
C526 C 0.15189 0.54923 0.1951 0.0
C527 C 0.16387 0.54875 0.18979 0.0
C528 C 0.16403 0.53687 0.20326 0.0
C529 C 0.17302 0.48589 0.26974 0.0
C530 C 0.1475 0.47421 0.11345 0.0
C531 C 0.14836 0.43804 0.26423 0.0
C532 C 0.14077 0.42481 0.29702 0.0
C533 C 0.14758 0.41837 0.32109 0.0
C534 C 0.14047 0.40577 0.35192 0.0
C535 C 0.12638 0.39934 0.35902 0.0
C536 C 0.11963 0.40595 0.33573 0.0
C537 C 0.12675 0.41856 0.30527 0.0
C538 C 0.12102 0.45828 0.254 0.0
C539 C 0.14682 0.47443 0.39673 0.0
O540 O 0.14292 0.50319 0.27538 0.0
O541 O 0.16204 0.51064 0.2218 0.0
O542 O 0.17164 0.49484 0.30275 0.0
O543 O 0.16324 0.47964 0.23127 0.0
O544 O 0.14563 0.48314 0.14653 0.0
O545 O 0.14984 0.46536 0.14407 0.0
O546 O 0.15457 0.44849 0.30359 0.0
O547 O 0.14243 0.44019 0.21396 0.0
O548 O 0.12266 0.44791 0.2549 0.0
O549 O 0.13236 0.46891 0.25557 0.0
O550 O 0.14894 0.46554 0.36507 0.0
O551 O 0.14524 0.48359 0.36484 0.0
H552 H 0.13086 0.51658 0.24091 0.0
H553 H 0.13054 0.53734 0.21668 0.0
H554 H 0.17322 0.55765 0.17617 0.0
H555 H 0.17355 0.53703 0.20105 0.0
H556 H 0.1584 0.42306 0.31561 0.0
H557 H 0.14596 0.40093 0.36887 0.0
H558 H 0.10883 0.4014 0.34136 0.0
H559 H 0.12128 0.4234 0.28796 0.0
Nd560 Nd 0.5642 0.68063 0.2539 0.0
Nd561 Nd 0.59553 0.70766 0.25822 0.0
C562 C 0.54399 0.65552 0.2551 0.0
C563 C 0.53032 0.64523 0.23279 0.0
C564 C 0.5275 0.64101 0.16629 0.0
C565 C 0.51499 0.62996 0.14868 0.0
C566 C 0.50511 0.62283 0.19725 0.0
C567 C 0.50783 0.62741 0.26322 0.0
C568 C 0.52027 0.63843 0.2807 0.0
C569 C 0.56474 0.70512 0.24662 0.0
C570 C 0.57953 0.69549 0.11501 0.0
C571 C 0.61688 0.73192 0.26758 0.0
C572 C 0.63049 0.73822 0.29814 0.0
C573 C 0.63248 0.74244 0.36477 0.0
C574 C 0.64533 0.74848 0.39314 0.0
C575 C 0.65654 0.75052 0.35557 0.0
C576 C 0.65455 0.74635 0.28888 0.0
C577 C 0.6417 0.74032 0.26049 0.0
C578 C 0.59545 0.68347 0.25976 0.0
C579 C 0.57989 0.69331 0.39747 0.0
O580 O 0.55408 0.65991 0.21311 0.0
O581 O 0.54507 0.66468 0.29763 0.0
O582 O 0.55363 0.69355 0.24231 0.0
O583 O 0.57424 0.70281 0.25459 0.0
O584 O 0.56996 0.68439 0.14385 0.0
O585 O 0.58907 0.70596 0.14827 0.0
O586 O 0.60654 0.72748 0.30792 0.0
O587 O 0.61465 0.72394 0.21659 0.0
O588 O 0.60639 0.69512 0.26231 0.0
O589 O 0.58558 0.68536 0.25879 0.0
O590 O 0.58973 0.70406 0.36804 0.0
O591 O 0.57017 0.68294 0.36473 0.0
H592 H 0.53507 0.64598 0.12821 0.0
H593 H 0.51327 0.62667 0.09748 0.0
H594 H 0.5004 0.62233 0.30174 0.0
H595 H 0.5222 0.64139 0.33237 0.0
H596 H 0.62411 0.74112 0.39514 0.0
H597 H 0.6465 0.75174 0.44433 0.0
H598 H 0.6629 0.74758 0.25866 0.0
H599 H 0.64056 0.73729 0.20894 0.0
Nd600 Nd 0.37699 0.47298 0.09684 0.0
Nd601 Nd 0.35271 0.47906 0.09674 0.0
C602 C 0.40104 0.47528 0.08905 0.0
C603 C 0.40705 0.46825 0.05428 0.0
C604 C 0.42092 0.47499 0.04185 0.0
C605 C 0.42685 0.46837 0.01019 0.0
C606 C 0.41897 0.45486 0.99021 0.0
C607 C 0.40499 0.4482 1.00198 0.0
C608 C 0.39909 0.45485 0.03355 0.0
C609 C 0.3529 0.44895 0.09108 0.0
C610 C 0.3636 0.47502 0.95518 0.0
C611 C 0.33111 0.48172 0.10626 0.0
C612 C 0.31882 0.48034 0.13817 0.0
C613 C 0.30672 0.46794 0.14073 0.0
C614 C 0.29472 0.46735 0.16108 0.0
C615 C 0.29451 0.47914 0.17877 0.0
C616 C 0.30675 0.49144 0.17801 0.0
C617 C 0.31871 0.49202 0.15803 0.0
C618 C 0.37859 0.50074 0.08543 0.0
C619 C 0.36378 0.47413 0.23838 0.0
O620 O 0.39736 0.48226 0.05181 0.0
O621 O 0.39231 0.46847 0.13585 0.0
O622 O 0.3646 0.44978 0.09004 0.0
O623 O 0.35447 0.46061 0.0925 0.0
O624 O 0.37451 0.47674 0.98645 0.0
O625 O 0.35297 0.47376 0.98738 0.0
O626 O 0.33091 0.47124 0.07895 0.0
O627 O 0.34295 0.49063 0.12923 0.0
O628 O 0.36843 0.49972 0.05216 0.0
O629 O 0.37479 0.49075 0.12286 0.0
O630 O 0.35328 0.47313 0.20564 0.0
O631 O 0.37486 0.47611 0.20778 0.0
H632 H 0.42718 0.48536 0.05688 0.0
H633 H 0.43759 0.47388 1.00106 0.0
H634 H 0.39862 0.43776 0.98806 0.0
H635 H 0.38832 0.44947 0.04234 0.0
H636 H 0.30643 0.45876 0.12522 0.0
H637 H 0.28557 0.45765 0.16195 0.0
H638 H 0.30705 0.50078 0.19005 0.0
H639 H 0.32781 0.50175 0.1554 0.0
Nd640 Nd 0.57893 0.9231 0.07954 0.0
Nd641 Nd 0.57482 0.89305 0.08437 0.0
C642 C 0.57513 0.94399 0.07081 0.0
C643 C 0.5824 0.95745 0.04043 0.0
C644 C 0.57626 0.96536 0.03621 0.0
C645 C 0.58314 0.97822 0.00784 0.0
C646 C 0.59632 0.98341 0.98331 0.0
C647 C 0.60235 0.97533 0.98699 0.0
C648 C 0.59545 0.96248 0.01517 0.0
C649 C 0.60358 0.92433 0.08499 0.0
C650 C 0.57888 0.90875 0.93932 0.0
C651 C 0.57708 0.87128 0.07164 0.0
C652 C 0.57576 0.85876 0.10029 0.0
C653 C 0.58717 0.85725 0.10243 0.0
C654 C 0.5861 0.84501 0.12098 0.0
C655 C 0.57355 0.83388 0.13802 0.0
C656 C 0.56215 0.83552 0.13758 0.0
C657 C 0.56323 0.8478 0.11875 0.0
C658 C 0.55223 0.89523 0.10416 0.0
C659 C 0.57684 0.90805 0.22278 0.0
O660 O 0.56978 0.93382 0.02955 0.0
O661 O 0.58103 0.94192 0.12142 0.0
O662 O 0.60228 0.9349 0.0801 0.0
O663 O 0.59208 0.914 0.08384 0.0
O664 O 0.57995 0.91953 0.96888 0.0
O665 O 0.57703 0.89794 0.97221 0.0
O666 O 0.58692 0.88287 0.09272 0.0
O667 O 0.56617 0.87162 0.05583 0.0
O668 O 0.55404 0.88605 0.1325 0.0
O669 O 0.56167 0.90206 0.06402 0.0
O670 O 0.5792 0.89915 0.19297 0.0
O671 O 0.57442 0.91666 0.18985 0.0
H672 H 0.56617 0.96162 0.05524 0.0
H673 H 0.57823 0.98419 1.00633 0.0
H674 H 0.61239 0.97891 0.96762 0.0
H675 H 0.60031 0.95646 0.01736 0.0
H676 H 0.59692 0.86546 0.08752 0.0
H677 H 0.59509 0.84416 0.11954 0.0
H678 H 0.55234 0.82727 0.15131 0.0
H679 H 0.55422 0.84861 0.11734 0.0
Nd680 Nd 0.13037 0.67569 0.08582 0.0
Nd681 Nd 0.16005 0.70233 0.09096 0.0
C682 C 0.10937 0.65109 0.07766 0.0
C683 C 0.09536 0.64474 0.05242 0.0
C684 C 0.09159 0.63608 0.99745 0.0
C685 C 0.07848 0.63008 0.97214 0.0
C686 C 0.06875 0.63248 1.00156 0.0
C687 C 0.07254 0.64115 0.05676 0.0
C688 C 0.08568 0.64723 0.08182 0.0
C689 C 0.12833 0.69874 0.08736 0.0
C690 C 0.14521 0.68972 0.94583 0.0
C691 C 0.18169 0.72658 0.08089 0.0
C692 C 0.19434 0.73747 0.11082 0.0
C693 C 0.19472 0.74913 0.13523 0.0
C694 C 0.20691 0.76034 0.15445 0.0
C695 C 0.21911 0.76026 0.14943 0.0
C696 C 0.21868 0.74841 0.12706 0.0
C697 C 0.20646 0.73718 0.10774 0.0
C698 C 0.15866 0.67785 0.1117 0.0
C699 C 0.14485 0.68914 0.22861 0.0
O700 O 0.11892 0.65623 0.03295 0.0
O701 O 0.11235 0.65851 0.13131 0.0
O702 O 0.11803 0.6867 0.08301 0.0
O703 O 0.13884 0.69791 0.08779 0.0
O704 O 0.13531 0.67911 0.97543 0.0
O705 O 0.15492 0.69999 0.97892 0.0
O706 O 0.17015 0.72445 0.10488 0.0
O707 O 0.18131 0.71556 0.05994 0.0
O708 O 0.16769 0.68901 0.13941 0.0
O709 O 0.15165 0.6802 0.07172 0.0
O710 O 0.15302 0.70061 0.19818 0.0
O711 O 0.13717 0.67778 0.19562 0.0
H712 H 0.09883 0.634 0.97367 0.0
H713 H 0.07605 0.62366 0.92894 0.0
H714 H 0.0653 0.64312 0.08134 0.0
H715 H 0.08823 0.65386 0.12426 0.0
H716 H 0.18562 0.74977 0.13755 0.0
H717 H 0.20679 0.76918 0.17242 0.0
H718 H 0.22786 0.74799 0.1219 0.0
H719 H 0.20659 0.72844 0.08833 0.0
H720 H 0.13271 0.38955 0.46945 0.0
H721 H 0.11985 0.367 0.51792 0.0
H722 H 0.08993 0.35568 0.36424 0.0
H723 H 0.10263 0.37813 0.31617 0.0
H724 H 0.07811 0.34748 0.48015 0.0
H725 H 0.11477 0.34596 0.36587 0.0
H726 H 0.1387 0.35356 0.34407 0.0
H727 H 0.14398 0.34569 0.54673 0.0
H728 H 0.12011 0.3382 0.56989 0.0
H729 H 0.04249 0.27928 0.44585 0.0
H730 H 0.06038 0.30236 0.42831 0.0
H731 H 0.07723 0.3024 0.61951 0.0
H732 H 0.05912 0.27889 0.63728 0.0
H733 H 0.09698 0.3172 0.51065 0.0
H734 H 0.05946 0.31589 0.62064 0.0
H735 H 0.03536 0.30767 0.64054 0.0
H736 H 0.03172 0.3209 0.44653 0.0
H737 H 0.05576 0.329 0.42501 0.0
C738 C 0.12343 0.38222 0.44581 0.0
C739 C 0.11869 0.38567 0.38897 0.0
C740 C 0.11609 0.36932 0.47357 0.0
C741 C 0.10395 0.35957 0.44453 0.0
C742 C 0.09922 0.36303 0.38785 0.0
C743 C 0.10649 0.3759 0.36044 0.0
C744 C 0.09594 0.34577 0.47282 0.0
C745 C 0.08227 0.34089 0.4866 0.0
C746 C 0.10142 0.33725 0.48391 0.0
C747 C 0.11572 0.34167 0.46977 0.0
C748 C 0.12107 0.34594 0.40587 0.0
C749 C 0.13461 0.35022 0.39325 0.0
C750 C 0.14286 0.35015 0.44403 0.0
C751 C 0.13758 0.34577 0.50748 0.0
C752 C 0.12405 0.3415 0.52036 0.0
C753 C 0.05014 0.28408 0.48376 0.0
C754 C 0.04934 0.27739 0.54327 0.0
C755 C 0.06036 0.29728 0.47364 0.0
C756 C 0.06997 0.30418 0.52309 0.0
C757 C 0.06985 0.29725 0.58087 0.0
C758 C 0.05955 0.28385 0.59094 0.0
C759 C 0.07913 0.3189 0.51531 0.0
C760 C 0.09295 0.32393 0.5055 0.0
C761 C 0.07383 0.32763 0.508 0.0
C762 C 0.05941 0.323 0.52111 0.0
C763 C 0.05351 0.31698 0.58206 0.0
C764 C 0.03986 0.31234 0.59365 0.0
C765 C 0.03201 0.31375 0.54481 0.0
C766 C 0.03781 0.31982 0.48433 0.0
C767 C 0.05146 0.32446 0.47245 0.0
H768 H 0.02144 0.31014 0.55385 0.0
H769 H 0.15335 0.35347 0.43418 0.0
H770 H 0.76637 0.78324 0.67257 0.0
H771 H 0.7439 0.77876 0.64105 0.0
H772 H 0.76033 0.80196 0.46219 0.0
H773 H 0.783 0.80723 0.49647 0.0
H774 H 0.73948 0.80388 0.49915 0.0
H775 H 0.74737 0.76669 0.46977 0.0
H776 H 0.75376 0.75011 0.50598 0.0
H777 H 0.72157 0.73408 0.64817 0.0
H778 H 0.71509 0.75069 0.61339 0.0
H779 H 0.68064 0.76879 0.29899 0.0
H780 H 0.70315 0.77865 0.34721 0.0
H781 H 0.68606 0.7571 0.52932 0.0
H782 H 0.66356 0.74676 0.48053 0.0
H783 H 0.70703 0.7548 0.49289 0.0
H784 H 0.6984 0.79152 0.51535 0.0
H785 H 0.69219 0.80805 0.47601 0.0
H786 H 0.72576 0.82465 0.34176 0.0
H787 H 0.73207 0.8081 0.37968 0.0
C788 C 0.76522 0.78782 0.62793 0.0
C789 C 0.77633 0.79563 0.58709 0.0
C790 C 0.75237 0.78511 0.60941 0.0
C791 C 0.75031 0.78959 0.54799 0.0
C792 C 0.76161 0.79828 0.50954 0.0
C793 C 0.77457 0.80136 0.52924 0.0
C794 C 0.73642 0.78418 0.52129 0.0
C795 C 0.73243 0.79315 0.49726 0.0
C796 C 0.7271 0.77016 0.51932 0.0
C797 C 0.73082 0.76 0.53938 0.0
C798 C 0.74169 0.75966 0.50894 0.0
C799 C 0.74533 0.75026 0.52921 0.0
C800 C 0.73809 0.74107 0.57944 0.0
C801 C 0.72717 0.74122 0.60932 0.0
C802 C 0.72351 0.75061 0.58932 0.0
C803 C 0.68166 0.76607 0.34918 0.0
C804 C 0.67025 0.75694 0.38576 0.0
C805 C 0.69454 0.77186 0.37701 0.0
C806 C 0.69631 0.76877 0.44227 0.0
C807 C 0.68495 0.75971 0.47901 0.0
C808 C 0.67207 0.75388 0.45117 0.0
C809 C 0.71004 0.77448 0.47124 0.0
C810 C 0.71403 0.76554 0.49526 0.0
C811 C 0.71936 0.78849 0.47253 0.0
C812 C 0.71563 0.7985 0.44999 0.0
C813 C 0.7044 0.79864 0.47712 0.0
C814 C 0.70087 0.80802 0.45512 0.0
C815 C 0.70856 0.81737 0.40631 0.0
C816 C 0.71981 0.81739 0.37952 0.0
C817 C 0.72337 0.80802 0.4013 0.0
H818 H 0.70581 0.82462 0.38934 0.0
H819 H 0.74094 0.73381 0.59513 0.0
H820 H 0.25201 0.99383 0.64021 0.0
H821 H 0.25504 0.97448 0.61391 0.0
H822 H 0.27235 0.99245 0.42492 0.0
H823 H 0.2694 0.01151 0.45088 0.0
H824 H 0.25613 0.96579 0.4125 0.0
H825 H 0.29202 0.99665 0.56047 0.0
H826 H 0.30088 0.0089 0.66577 0.0
H827 H 0.28271 0.97147 0.77208 0.0
H828 H 0.2736 0.95902 0.66738 0.0
H829 H 0.30321 0.94823 0.30239 0.0
H830 H 0.29191 0.95979 0.34689 0.0
H831 H 0.2784 0.93313 0.51551 0.0
H832 H 0.28991 0.92157 0.47152 0.0
H833 H 0.28828 0.95962 0.55179 0.0
H834 H 0.25637 0.9288 0.39794 0.0
H835 H 0.248 0.91694 0.29148 0.0
H836 H 0.25865 0.95432 0.1951 0.0
H837 H 0.26731 0.96646 0.30073 0.0
C838 C 0.2562 0.99344 0.59268 0.0
C839 C 0.26059 1.00418 0.54777 0.0
C840 C 0.25801 0.98246 0.57784 0.0
C841 C 0.26409 0.98209 0.5177 0.0
C842 C 0.26768 0.99248 0.47161 0.0
C843 C 0.26603 1.00341 0.48663 0.0
C844 C 0.26762 0.97152 0.50295 0.0
C845 C 0.26314 0.96441 0.44302 0.0
C846 C 0.27649 0.96944 0.54356 0.0
C847 C 0.28198 0.97693 0.60632 0.0
C848 C 0.28982 0.99105 0.60639 0.0
C849 C 0.2949 0.99802 0.66593 0.0
C850 C 0.29231 0.99097 0.72561 0.0
C851 C 0.28467 0.97692 0.72584 0.0
C852 C 0.27955 0.9699 0.66644 0.0
C853 C 0.29793 0.94487 0.34919 0.0
C854 C 0.29747 0.93397 0.38338 0.0
C855 C 0.29135 0.95141 0.3743 0.0
C856 C 0.28415 0.94722 0.43415 0.0
C857 C 0.28383 0.93648 0.46904 0.0
C858 C 0.29034 0.92985 0.44366 0.0
C859 C 0.27717 0.95427 0.46008 0.0
C860 C 0.28102 0.96071 0.52199 0.0
C861 C 0.26775 0.9558 0.42112 0.0
C862 C 0.26259 0.94856 0.35728 0.0
C863 C 0.25704 0.93452 0.35395 0.0
C864 C 0.25223 0.92774 0.29374 0.0
C865 C 0.25282 0.93488 0.23653 0.0
C866 C 0.25821 0.94881 0.23944 0.0
C867 C 0.26307 0.95564 0.2995 0.0
H868 H 0.24907 0.92961 0.18998 0.0
H869 H 0.29626 0.99638 0.77166 0.0
H870 H 0.3427 0.10884 0.68695 0.0
H871 H 0.36525 0.11969 0.73503 0.0
H872 H 0.35482 0.08364 0.84582 0.0
H873 H 0.33202 0.07291 0.80041 0.0
H874 H 0.36958 0.10536 0.92053 0.0
H875 H 0.37281 0.0914 0.69797 0.0
H876 H 0.37012 0.09058 0.57642 0.0
H877 H 0.39544 0.13351 0.56607 0.0
H878 H 0.39815 0.1346 0.68773 0.0
H879 H 0.42975 0.10473 0.96601 0.0
H880 H 0.40781 0.10196 0.93943 0.0
H881 H 0.42704 0.14137 0.8497 0.0
H882 H 0.44928 0.14415 0.87633 0.0
H883 H 0.40862 0.12227 0.76768 0.0
H884 H 0.40835 0.13542 0.9905 0.0
H885 H 0.4114 0.13565 0.11159 0.0
H886 H 0.38081 0.09399 0.12223 0.0
H887 H 0.37771 0.09343 1.00106 0.0
C888 C 0.34509 0.10326 0.72245 0.0
C889 C 0.33549 0.08994 0.73947 0.0
C890 C 0.35807 0.10946 0.74941 0.0
C891 C 0.36183 0.10243 0.79336 0.0
C892 C 0.35219 0.08927 0.81183 0.0
C893 C 0.33918 0.08308 0.7852 0.0
C894 C 0.37591 0.10857 0.81843 0.0
C895 C 0.37811 0.109 0.88712 0.0
C896 C 0.38714 0.11375 0.77504 0.0
C897 C 0.38555 0.11309 0.70194 0.0
C898 C 0.37772 0.10067 0.66979 0.0
C899 C 0.37621 0.10016 0.60089 0.0
C900 C 0.38257 0.11199 0.56356 0.0
C901 C 0.3905 0.12436 0.59505 0.0
C902 C 0.39203 0.12493 0.66396 0.0
C903 C 0.42933 0.11295 0.94198 0.0
C904 C 0.4412 0.12466 0.92337 0.0
C905 C 0.41675 0.11138 0.92703 0.0
C906 C 0.41572 0.12149 0.89301 0.0
C907 C 0.42759 0.13346 0.87633 0.0
C908 C 0.44027 0.13509 0.89194 0.0
C909 C 0.40226 0.11876 0.86976 0.0
C910 C 0.40015 0.11892 0.8013 0.0
C911 C 0.39112 0.11408 0.9134 0.0
C912 C 0.39284 0.11438 0.98651 0.0
C913 C 0.40232 0.12628 0.01857 0.0
C914 C 0.40405 0.12647 0.08726 0.0
C915 C 0.39631 0.11484 0.12457 0.0
C916 C 0.3868 0.10299 0.09327 0.0
C917 C 0.38503 0.10274 0.02458 0.0
H918 H 0.39768 0.11501 0.17773 0.0
H919 H 0.38138 0.11157 0.51023 0.0
H920 H 0.95148 0.34881 0.96007 0.0
H921 H 0.95569 0.33104 0.92285 0.0
H922 H 0.91553 0.30909 0.84232 0.0
H923 H 0.91122 0.32705 0.87986 0.0
H924 H 0.92628 0.29259 0.90461 0.0
H925 H 0.9373 0.32709 0.74315 0.0
H926 H 0.94747 0.35074 0.70796 0.0
H927 H 0.98681 0.35721 0.75427 0.0
H928 H 0.97682 0.33377 0.79307 0.0
H929 H 0.94634 0.25592 0.6865 0.0
H930 H 0.93657 0.26886 0.73245 0.0
H931 H 0.97575 0.29906 0.80199 0.0
H932 H 0.98556 0.28607 0.75771 0.0
H933 H 0.96295 0.31019 0.73724 0.0
H934 H 0.95234 0.27724 0.90876 0.0
H935 H 0.94267 0.25436 0.95489 0.0
H936 H 0.90325 0.24521 0.89122 0.0
H937 H 0.91273 0.268 0.84384 0.0
C938 C 0.94341 0.34006 0.93581 0.0
C939 C 0.93104 0.33933 0.9225 0.0
C940 C 0.94584 0.32991 0.91463 0.0
C941 C 0.936 0.31885 0.8791 0.0
C942 C 0.92325 0.31756 0.86977 0.0
C943 C 0.92079 0.32779 0.89128 0.0
C944 C 0.9398 0.30969 0.8457 0.0
C945 C 0.93409 0.29631 0.86702 0.0
C946 C 0.95018 0.31468 0.79747 0.0
C947 C 0.95628 0.32867 0.77168 0.0
C948 C 0.94811 0.33358 0.74658 0.0
C949 C 0.95384 0.34697 0.72616 0.0
C950 C 0.96778 0.35547 0.72872 0.0
C951 C 0.97601 0.35061 0.75222 0.0
C952 C 0.97031 0.33728 0.77375 0.0
C953 C 0.95287 0.26521 0.7125 0.0
C954 C 0.96678 0.26992 0.71824 0.0
C955 C 0.94726 0.27262 0.73853 0.0
C956 C 0.95541 0.28492 0.77088 0.0
C957 C 0.96926 0.28963 0.77694 0.0
C958 C 0.97488 0.2822 0.75126 0.0
C959 C 0.94964 0.29309 0.79701 0.0
C960 C 0.95499 0.30634 0.7741 0.0
C961 C 0.93897 0.28797 0.84376 0.0
C962 C 0.93327 0.27427 0.87202 0.0
C963 C 0.94163 0.27031 0.90401 0.0
C964 C 0.93618 0.25737 0.93051 0.0
C965 C 0.92236 0.24832 0.92579 0.0
C966 C 0.91396 0.25222 0.89471 0.0
C967 C 0.91936 0.26515 0.86805 0.0
H968 H 0.91816 0.23831 0.94638 0.0
H969 H 0.9722 0.36581 0.71246 0.0
H970 H 0.79497 0.71009 0.64478 0.0
H971 H 0.78325 0.68734 0.69044 0.0
H972 H 0.76266 0.69934 0.82982 0.0
H973 H 0.77478 0.72227 0.78635 0.0
H974 H 0.77061 0.684 0.88969 0.0
H975 H 0.74778 0.68162 0.68579 0.0
H976 H 0.74541 0.68373 0.56558 0.0
H977 H 0.75926 0.65585 0.52674 0.0
H978 H 0.76195 0.65376 0.64675 0.0
H979 H 0.71027 0.62426 0.96118 0.0
H980 H 0.72893 0.64614 0.92869 0.0
H981 H 0.74667 0.6266 0.81886 0.0
H982 H 0.72788 0.60447 0.85235 0.0
H983 H 0.74316 0.64484 0.74375 0.0
H984 H 0.76309 0.64525 0.95093 0.0
H985 H 0.76396 0.64255 0.07176 0.0
H986 H 0.75413 0.67362 0.10503 0.0
H987 H 0.753 0.67638 0.98437 0.0
C988 C 0.78809 0.70796 0.68574 0.0
C989 C 0.78583 0.71807 0.71174 0.0
C990 C 0.78127 0.69488 0.71136 0.0
C991 C 0.77193 0.69154 0.76312 0.0
C992 C 0.76979 0.70164 0.78978 0.0
C993 C 0.77664 0.71474 0.76436 0.0
C994 C 0.76428 0.67753 0.78927 0.0
C995 C 0.76455 0.67546 0.85777 0.0
C996 C 0.75668 0.66628 0.74749 0.0
C997 C 0.75527 0.6677 0.67526 0.0
C998 C 0.75049 0.67607 0.65161 0.0
C999 C 0.74906 0.67724 0.5835 0.0
C1000 C 0.75224 0.66998 0.53854 0.0
C1001 C 0.75685 0.66151 0.56161 0.0
C1002 C 0.75834 0.66034 0.62967 0.0
C1003 C 0.71835 0.62463 0.93169 0.0
C1004 C 0.71769 0.61272 0.90946 0.0
C1005 C 0.72903 0.63715 0.91321 0.0
C1006 C 0.73925 0.63804 0.87154 0.0
C1007 C 0.73892 0.62614 0.85135 0.0
C1008 C 0.72827 0.61353 0.87084 0.0
C1009 C 0.7493 0.65138 0.84417 0.0
C1010 C 0.74945 0.65335 0.77546 0.0
C1011 C 0.75718 0.66254 0.88576 0.0
C1012 C 0.75789 0.66096 0.95848 0.0
C1013 C 0.76101 0.65144 0.98398 0.0
C1014 C 0.76157 0.64991 0.05247 0.0
C1015 C 0.75908 0.6579 0.09605 0.0
C1016 C 0.75606 0.66744 0.07121 0.0
C1017 C 0.75548 0.66901 1.00275 0.0
H1018 H 0.75952 0.6567 0.14905 0.0
H1019 H 0.7511 0.67087 0.48583 0.0
H1020 H 0.01846 0.75993 0.38172 0.0
H1021 H 1.00007 0.73782 0.41411 0.0
H1022 H 0.9807 0.75659 0.51655 0.0
H1023 H 0.99915 0.7789 0.48311 0.0
H1024 H 0.98462 0.73848 0.59488 0.0
H1025 H 0.96565 0.7385 0.38467 0.0
H1026 H 0.96549 0.74138 0.26362 0.0
H1027 H 0.97542 0.7103 0.23342 0.0
H1028 H 0.97584 0.70736 0.35437 0.0
H1029 H 0.93168 0.67423 0.69169 0.0
H1030 H 0.94384 0.69676 0.64401 0.0
H1031 H 0.96422 0.68368 0.5091 0.0
H1032 H 0.9516 0.66092 0.55438 0.0
H1033 H 0.9574 0.69968 0.44648 0.0
H1034 H 0.97941 0.70155 0.65206 0.0
H1035 H 0.98095 0.69884 0.77248 0.0
H1036 H 0.9668 0.72651 0.81056 0.0
H1037 H 0.96501 0.72924 0.69027 0.0
C1038 C 1.01011 0.75933 0.40979 0.0
C1039 C 0.01015 0.77109 0.42963 0.0
C1040 C 0.9996 0.74669 0.42818 0.0
C1041 C 0.98898 0.74554 0.46752 0.0
C1042 C 0.98877 0.75727 0.48587 0.0
C1043 C 0.99923 0.76997 0.46639 0.0
C1044 C 0.97888 0.73214 0.49388 0.0
C1045 C 0.9784 0.73005 0.56259 0.0
C1046 C 0.97112 0.72107 0.45153 0.0
C1047 C 0.97086 0.72278 0.37869 0.0
C1048 C 0.9679 0.73235 0.35226 0.0
C1049 C 0.96774 0.73398 0.28364 0.0
C1050 C 0.97046 0.72604 0.24086 0.0
C1051 C 0.97332 0.71644 0.26662 0.0
C1052 C 0.9735 0.71478 0.33522 0.0
C1053 C 0.93858 0.67605 0.65115 0.0
C1054 C 0.94066 0.66571 0.62713 0.0
C1055 C 0.94565 0.68901 0.62439 0.0
C1056 C 0.95511 0.69201 0.57355 0.0
C1057 C 0.95702 0.68165 0.54845 0.0
C1058 C 0.94989 0.66866 0.57494 0.0
C1059 C 0.96325 0.70597 0.54754 0.0
C1060 C 0.96342 0.70814 0.47892 0.0
C1061 C 0.97087 0.71711 0.58989 0.0
C1062 C 0.97192 0.71547 0.6622 0.0
C1063 C 0.97652 0.70696 0.68612 0.0
C1064 C 0.97745 0.70544 0.75434 0.0
C1065 C 0.97393 0.71246 0.79914 0.0
C1066 C 0.9695 0.72105 0.7758 0.0
C1067 C 0.96852 0.72259 0.70761 0.0
H1068 H 0.97467 0.71128 0.85194 0.0
H1069 H 0.97033 0.72732 0.18774 0.0
H1070 H 0.27497 0.2385 0.47194 0.0
H1071 H 0.2971 0.24177 0.50448 0.0
H1072 H 0.3162 0.28233 0.42857 0.0
H1073 H 0.29433 0.27905 0.39554 0.0
H1074 H 0.33113 0.27088 0.40122 0.0
H1075 H 0.30774 0.27541 0.59231 0.0
H1076 H 0.28866 0.26694 0.67052 0.0
H1077 H 0.29536 0.23468 0.72713 0.0
H1078 H 0.31435 0.24285 0.6484 0.0
H1079 H 0.39149 0.30961 0.57569 0.0
H1080 H 0.36891 0.29962 0.52894 0.0
H1081 H 0.35754 0.2625 0.63187 0.0
H1082 H 0.37994 0.27268 0.68177 0.0
H1083 H 0.33813 0.26829 0.6423 0.0
H1084 H 0.36375 0.26585 0.4615 0.0
H1085 H 0.38264 0.27437 0.38228 0.0
H1086 H 0.37179 0.30254 0.30536 0.0
H1087 H 0.35294 0.29432 0.38472 0.0
C1088 C 0.28394 0.24796 0.46078 0.0
C1089 C 0.28296 0.25852 0.43132 0.0
C1090 C 0.29656 0.24987 0.47983 0.0
C1091 C 0.30831 0.26237 0.46967 0.0
C1092 C 0.30732 0.27261 0.43695 0.0
C1093 C 0.29479 0.27073 0.41828 0.0
C1094 C 0.32158 0.26536 0.49695 0.0
C1095 C 0.33267 0.27032 0.45393 0.0
C1096 C 0.32355 0.26435 0.56555 0.0
C1097 C 0.31235 0.25964 0.61396 0.0
C1098 C 0.30509 0.26646 0.62119 0.0
C1099 C 0.2943 0.26172 0.6656 0.0
C1100 C 0.29077 0.25025 0.70362 0.0
C1101 C 0.29808 0.24354 0.69753 0.0
C1102 C 0.30886 0.24822 0.65303 0.0
C1103 C 0.38418 0.29936 0.589 0.0
C1104 C 0.38761 0.29198 0.63265 0.0
C1105 C 0.37129 0.29358 0.56143 0.0
C1106 C 0.36154 0.28021 0.57588 0.0
C1107 C 0.36489 0.27281 0.61955 0.0
C1108 C 0.37777 0.27861 0.64757 0.0
C1109 C 0.34779 0.27413 0.5467 0.0
C1110 C 0.33659 0.26861 0.5894 0.0
C1111 C 0.34572 0.27463 0.47772 0.0
C1112 C 0.35697 0.27951 0.42939 0.0
C1113 C 0.36543 0.27391 0.42795 0.0
C1114 C 0.37613 0.27868 0.38298 0.0
C1115 C 0.37843 0.28901 0.3389 0.0
C1116 C 0.37 0.29455 0.33955 0.0
C1117 C 0.3593 0.28982 0.38445 0.0
H1118 H 0.38672 0.29269 0.30416 0.0
H1119 H 0.2824 0.24658 0.73789 0.0
H1120 H 0.77925 0.12856 0.65442 0.0
H1121 H 0.78874 0.11566 0.60492 0.0
H1122 H 0.74886 0.08412 0.55239 0.0
H1123 H 0.73929 0.09706 0.60016 0.0
H1124 H 0.76319 0.07416 0.61235 0.0
H1125 H 0.76994 0.10501 0.43575 0.0
H1126 H 0.77815 0.12726 0.38439 0.0
H1127 H 0.81888 0.13818 0.4315 0.0
H1128 H 0.81089 0.11604 0.48404 0.0
H1129 H 0.77253 0.03428 0.38786 0.0
H1130 H 0.76837 0.05215 0.42402 0.0
H1131 H 0.80931 0.07527 0.49355 0.0
H1132 H 0.81355 0.05721 0.45731 0.0
H1133 H 0.79698 0.09079 0.43078 0.0
H1134 H 0.78958 0.05839 0.59952 0.0
H1135 H 0.78068 0.03506 0.63739 0.0
H1136 H 0.74029 0.02675 0.60261 0.0
H1137 H 0.74899 0.04984 0.56084 0.0
C1138 C 0.77248 0.11898 0.63142 0.0
C1139 C 0.75846 0.11387 0.6316 0.0
C1140 C 0.77795 0.11159 0.60333 0.0
C1141 C 0.76952 0.09893 0.5748 0.0
C1142 C 0.75555 0.09384 0.57447 0.0
C1143 C 0.75009 0.10123 0.60217 0.0
C1144 C 0.77516 0.09076 0.54688 0.0
C1145 C 0.77052 0.0778 0.57245 0.0
C1146 C 0.78499 0.0956 0.49587 0.0
C1147 C 0.78981 0.10893 0.46458 0.0
C1148 C 0.78064 0.1122 0.43576 0.0
C1149 C 0.78525 0.12478 0.40631 0.0
C1150 C 0.79902 0.13414 0.40488 0.0
C1151 C 0.80821 0.13093 0.43278 0.0
C1152 C 0.80365 0.11836 0.46237 0.0
C1153 C 0.78077 0.0433 0.40944 0.0
C1154 C 0.79335 0.04433 0.42016 0.0
C1155 C 0.77837 0.05352 0.42992 0.0
C1156 C 0.78848 0.06497 0.462 0.0
C1157 C 0.80139 0.06652 0.46863 0.0
C1158 C 0.80381 0.05622 0.44796 0.0
C1159 C 0.78483 0.07421 0.4957 0.0
C1160 C 0.78981 0.0873 0.47139 0.0
C1161 C 0.77528 0.06951 0.54784 0.0
C1162 C 0.76996 0.05583 0.57636 0.0
C1163 C 0.7788 0.05156 0.59927 0.0
C1164 C 0.77379 0.03836 0.62122 0.0
C1165 C 0.75992 0.02943 0.62257 0.0
C1166 C 0.75103 0.03368 0.60158 0.0
C1167 C 0.756 0.04681 0.57839 0.0
H1168 H 0.75606 0.01923 0.63999 0.0
H1169 H 0.80258 0.14388 0.38201 0.0
H1170 H 0.60857 0.90687 0.1561 0.0
H1171 H 0.63081 0.9109 0.19239 0.0
H1172 H 0.64999 0.9476 0.07832 0.0
H1173 H 0.62794 0.94375 0.04338 0.0
H1174 H 0.66369 0.93336 0.07042 0.0
H1175 H 0.6439 0.94884 0.23246 0.0
H1176 H 0.6271 0.9472 0.3137 0.0
H1177 H 0.63353 0.91964 0.43038 0.0
H1178 H 0.64995 0.92063 0.34822 0.0
H1179 H 0.72707 0.97531 0.21901 0.0
H1180 H 0.70425 0.96532 0.17485 0.0
H1181 H 0.6907 0.93289 0.31606 0.0
H1182 H 0.71342 0.94312 0.36237 0.0
H1183 H 0.67351 0.94205 0.31065 0.0
H1184 H 0.69495 0.92822 0.14981 0.0
H1185 H 0.71255 0.93137 0.06972 0.0
H1186 H 0.70398 0.9575 0.95312 0.0
H1187 H 0.68644 0.95464 0.03299 0.0
C1188 C 0.61757 0.91559 0.13755 0.0
C1189 C 0.6166 0.925 0.09691 0.0
C1190 C 0.63024 0.91794 0.15861 0.0
C1191 C 0.64206 0.92961 0.13839 0.0
C1192 C 0.64104 0.93853 0.09445 0.0
C1193 C 0.62844 0.93633 0.07457 0.0
C1194 C 0.65545 0.93326 0.16645 0.0
C1195 C 0.66585 0.93525 0.12295 0.0
C1196 C 0.65822 0.93559 0.23514 0.0
C1197 C 0.64798 0.9346 0.2834 0.0
C1198 C 0.64153 0.94219 0.27464 0.0
C1199 C 0.63207 0.94139 0.32091 0.0
C1200 C 0.62917 0.93324 0.37689 0.0
C1201 C 0.63569 0.92584 0.38663 0.0
C1202 C 0.64503 0.92647 0.34007 0.0
C1203 C 0.71924 0.9661 0.24109 0.0
C1204 C 0.72214 0.96003 0.29437 0.0
C1205 C 0.7062 0.9603 0.21517 0.0
C1206 C 0.69575 0.94822 0.24139 0.0
C1207 C 0.69859 0.94216 0.29467 0.0
C1208 C 0.71163 0.94797 0.32075 0.0
C1209 C 0.68181 0.9422 0.21463 0.0
C1210 C 0.67131 0.93985 0.25833 0.0
C1211 C 0.67896 0.93962 0.14609 0.0
C1212 C 0.68944 0.94128 0.09767 0.0
C1213 C 0.69687 0.9347 0.10732 0.0
C1214 C 0.70683 0.93643 0.06192 0.0
C1215 C 0.7094 0.94465 1.00643 0.0
C1216 C 0.70199 0.95113 0.99613 0.0
C1217 C 0.69202 0.94945 0.04141 0.0
H1218 H 0.71712 0.94597 0.97135 0.0
H1219 H 0.62195 0.93276 0.41297 0.0
H1220 H 0.07691 0.77132 0.22724 0.0
H1221 H 0.08603 0.75772 0.18268 0.0
H1222 H 0.12127 0.77912 0.30564 0.0
H1223 H 0.11215 0.79272 0.35113 0.0
H1224 H 0.12768 0.77437 0.17948 0.0
H1225 H 0.09685 0.74896 0.3539 0.0
H1226 H 0.07522 0.73859 0.41392 0.0
H1227 H 0.0551 0.71436 0.24355 0.0
H1228 H 0.07659 0.72473 0.18216 0.0
H1229 H 0.1461 0.72243 0.14975 0.0
H1230 H 0.1415 0.74029 0.18474 0.0
H1231 H 0.10313 0.71983 0.0845 0.0
H1232 H 0.10755 0.70197 0.05138 0.0
H1233 H 0.09965 0.7249 0.20612 0.0
H1234 H 0.13013 0.75049 0.02995 0.0
H1235 H 0.15162 0.76084 0.96872 0.0
H1236 H 0.17229 0.7845 0.13972 0.0
H1237 H 0.15093 0.77416 0.20229 0.0
C1238 C 0.08658 0.77312 0.24511 0.0
C1239 C 0.09371 0.78303 0.29345 0.0
C1240 C 0.09182 0.76537 0.21929 0.0
C1241 C 0.10426 0.76728 0.24143 0.0
C1242 C 0.11166 0.77748 0.28781 0.0
C1243 C 0.10642 0.78525 0.31371 0.0
C1244 C 0.10916 0.75815 0.21848 0.0
C1245 C 0.12165 0.76356 0.18594 0.0
C1246 C 0.10123 0.74404 0.22625 0.0
C1247 C 0.08831 0.73771 0.26326 0.0
C1248 C 0.0878 0.74149 0.32908 0.0
C1249 C 0.07556 0.7356 0.36337 0.0
C1250 C 0.06379 0.72584 0.33252 0.0
C1251 C 0.06422 0.72193 0.26736 0.0
C1252 C 0.07643 0.7278 0.23282 0.0
C1253 C 0.13687 0.72199 0.13385 0.0
C1254 C 0.12717 0.71085 0.09792 0.0
C1255 C 0.13422 0.73217 0.15394 0.0
C1256 C 0.12191 0.7314 0.13751 0.0
C1257 C 0.11262 0.72062 0.09837 0.0
C1258 C 0.11519 0.71044 0.07915 0.0
C1259 C 0.11803 0.74103 0.16518 0.0
C1260 C 0.10574 0.73571 0.19938 0.0
C1261 C 0.12613 0.75518 0.15861 0.0
C1262 C 0.13896 0.76144 0.12102 0.0
C1263 C 0.13928 0.75782 0.05467 0.0
C1264 C 0.15143 0.7637 0.01969 0.0
C1265 C 0.16332 0.77329 0.05038 0.0
C1266 C 0.16307 0.77705 0.11605 0.0
C1267 C 0.15094 0.77119 0.15128 0.0
H1268 H 0.17272 0.77783 0.02321 0.0
H1269 H 0.05432 0.7213 0.35915 0.0
H1270 H 0.3294 0.44449 0.15026 0.0
H1271 H 0.3105 0.42247 0.18417 0.0
H1272 H 0.32946 0.40265 0.08755 0.0
H1273 H 0.34819 0.42444 0.05428 0.0
H1274 H 0.30198 0.38868 0.07147 0.0
H1275 H 0.33473 0.41031 0.24906 0.0
H1276 H 0.34774 0.42901 0.32688 0.0
H1277 H 0.31103 0.42364 0.41178 0.0
H1278 H 0.29779 0.40504 0.33364 0.0
H1279 H 0.2819 0.32697 0.22902 0.0
H1280 H 0.29424 0.34976 0.18459 0.0
H1281 H 0.27264 0.36201 0.31607 0.0
H1282 H 0.26071 0.33936 0.36322 0.0
H1283 H 0.29818 0.38065 0.31429 0.0
H1284 H 0.26531 0.3569 0.14748 0.0
H1285 H 0.25213 0.33868 0.0677 0.0
H1286 H 0.28827 0.34822 0.96124 0.0
H1287 H 0.3017 0.36639 0.04092 0.0
C1288 C 0.32929 0.43539 0.13483 0.0
C1289 C 0.34023 0.43611 0.0999 0.0
C1290 C 0.31857 0.42284 0.15455 0.0
C1291 C 0.31866 0.41092 0.13902 0.0
C1292 C 0.32916 0.41168 0.10013 0.0
C1293 C 0.33987 0.42414 0.08122 0.0
C1294 C 0.30865 0.39771 0.16765 0.0
C1295 C 0.30112 0.3869 0.12454 0.0
C1296 C 0.30732 0.39546 0.23697 0.0
C1297 C 0.31527 0.4064 0.28505 0.0
C1298 C 0.32943 0.41317 0.28409 0.0
C1299 C 0.33685 0.42375 0.32823 0.0
C1300 C 0.33022 0.42754 0.37411 0.0
C1301 C 0.31615 0.42071 0.37612 0.0
C1302 C 0.30869 0.41015 0.33192 0.0
C1303 C 0.27984 0.33451 0.24909 0.0
C1304 C 0.27025 0.33125 0.29979 0.0
C1305 C 0.2868 0.34754 0.22292 0.0
C1306 C 0.28422 0.3576 0.24606 0.0
C1307 C 0.27475 0.35442 0.297 0.0
C1308 C 0.26783 0.34141 0.3235 0.0
C1309 C 0.29167 0.37147 0.21798 0.0
C1310 C 0.29876 0.38241 0.26123 0.0
C1311 C 0.29255 0.37385 0.1487 0.0
C1312 C 0.28452 0.36295 0.1005 0.0
C1313 C 0.27046 0.35505 0.10733 0.0
C1314 C 0.26294 0.34475 0.06208 0.0
C1315 C 0.26936 0.34228 0.00951 0.0
C1316 C 0.28331 0.35014 1.002 0.0
C1317 C 0.29088 0.36046 0.04715 0.0
H1318 H 0.26352 0.3343 0.97453 0.0
H1319 H 0.33597 0.43574 0.40821 0.0
H1320 H 1.00258 0.44234 0.09517 0.0
H1321 H 0.02508 0.45238 0.1446 0.0
H1322 H 0.027 0.41683 0.09444 0.0
H1323 H 1.00467 0.40681 0.04458 0.0
H1324 H 0.03499 0.42482 0.22114 0.0
H1325 H 0.04353 0.44649 1.00313 0.0
H1326 H 0.04066 0.46051 0.91929 0.0
H1327 H 0.0555 0.49338 0.05732 0.0
H1328 H 0.0583 0.47949 0.1422 0.0
H1329 H 0.09911 0.43608 0.21069 0.0
H1330 H 0.07702 0.43268 0.18618 0.0
H1331 H 0.09008 0.4737 0.24239 0.0
H1332 H 0.11294 0.47742 0.26437 0.0
H1333 H 0.07405 0.46673 0.13559 0.0
H1334 H 0.06931 0.447 0.34691 0.0
H1335 H 0.07222 0.43351 0.43354 0.0
H1336 H 0.04978 0.39778 0.31658 0.0
H1337 H 0.04689 0.41107 0.22881 0.0
C1338 C 1.00785 0.43671 0.09412 0.0
C1339 C 1.00178 0.42374 0.06587 0.0
C1340 C 0.0207 0.44246 0.12257 0.0
C1341 C 0.02778 0.4354 0.12298 0.0
C1342 C 0.02172 0.42245 0.09505 0.0
C1343 C 1.0089 0.41671 0.06672 0.0
C1344 C 0.04147 0.44126 0.15256 0.0
C1345 C 0.04353 0.43396 0.20234 0.0
C1346 C 0.05252 0.45357 0.13053 0.0
C1347 C 0.05099 0.46192 0.07914 0.0
C1348 C 0.0461 0.45668 0.01568 0.0
C1349 C 0.0445 0.4646 0.96797 0.0
C1350 C 0.04786 0.47781 0.98303 0.0
C1351 C 0.05288 0.48314 0.04575 0.0
C1352 C 0.05449 0.47526 0.09364 0.0
C1353 C 0.09738 0.44444 0.21828 0.0
C1354 C 0.10774 0.45698 0.24049 0.0
C1355 C 0.08464 0.44243 0.20452 0.0
C1356 C 0.08167 0.45276 0.21453 0.0
C1357 C 0.09207 0.4655 0.23522 0.0
C1358 C 0.10508 0.46762 0.24795 0.0
C1359 C 0.06767 0.44989 0.20186 0.0
C1360 C 0.06549 0.45775 0.1556 0.0
C1361 C 0.05642 0.43818 0.22791 0.0
C1362 C 0.0579 0.43006 0.28118 0.0
C1363 C 0.06503 0.43628 0.33955 0.0
C1364 C 0.06668 0.42866 0.38886 0.0
C1365 C 0.06119 0.4148 0.38056 0.0
C1366 C 0.05401 0.40852 0.32299 0.0
C1367 C 0.05233 0.41608 0.2735 0.0
H1368 H 0.06249 0.40893 0.41876 0.0
H1369 H 0.0466 0.48393 0.94605 0.0
H1370 H 0.62755 0.6084 0.94514 0.0
H1371 H 0.61732 0.62079 0.99222 0.0
H1372 H 0.6232 0.61007 0.1893 0.0
H1373 H 0.63338 0.59751 0.14228 0.0
H1374 H 0.59943 0.60903 0.18253 0.0
H1375 H 0.64477 0.64095 0.12546 0.0
H1376 H 0.66491 0.65244 0.05437 0.0
H1377 H 0.64356 0.66424 0.92055 0.0
H1378 H 0.62322 0.65265 0.99042 0.0
H1379 H 0.61309 0.67683 0.30997 0.0
H1380 H 0.61673 0.65854 0.27364 0.0
H1381 H 0.58241 0.64396 0.14361 0.0
H1382 H 0.57847 0.66208 0.18169 0.0
H1383 H 0.6192 0.65695 0.11789 0.0
H1384 H 0.57216 0.62045 0.17962 0.0
H1385 H 0.55412 0.61038 0.26365 0.0
H1386 H 0.5819 0.60946 0.40338 0.0
H1387 H 0.60013 0.61971 0.32025 0.0
C1388 C 0.6267 0.6087 0.99853 0.0
C1389 C 0.63144 0.6021 0.03998 0.0
C1390 C 0.62081 0.61575 0.0254 0.0
C1391 C 0.61966 0.61655 0.0944 0.0
C1392 C 0.62397 0.6096 0.13593 0.0
C1393 C 0.62979 0.60244 0.10899 0.0
C1394 C 0.61455 0.62512 0.12292 0.0
C1395 C 0.60376 0.61949 0.16812 0.0
C1396 C 0.62023 0.63884 0.10501 0.0
C1397 C 0.63243 0.6458 0.06277 0.0
C1398 C 0.64433 0.6459 0.08057 0.0
C1399 C 0.65579 0.65244 0.04055 0.0
C1400 C 0.6555 0.65903 0.98287 0.0
C1401 C 0.64376 0.65911 0.96518 0.0
C1402 C 0.63226 0.65256 1.00498 0.0
C1403 C 0.60602 0.66942 0.27552 0.0
C1404 C 0.59542 0.67074 0.24913 0.0
C1405 C 0.60812 0.659 0.25477 0.0
C1406 C 0.59976 0.64982 0.20655 0.0
C1407 C 0.58877 0.65074 0.18211 0.0
C1408 C 0.5865 0.66106 0.20395 0.0
C1409 C 0.60389 0.64074 0.17544 0.0
C1410 C 0.6147 0.64639 0.13074 0.0
C1411 C 0.59841 0.62717 0.19462 0.0
C1412 C 0.58749 0.62099 0.24421 0.0
C1413 C 0.57443 0.61824 0.22851 0.0
C1414 C 0.56417 0.61246 0.27587 0.0
C1415 C 0.56687 0.60933 0.33891 0.0
C1416 C 0.57983 0.61192 0.35461 0.0
C1417 C 0.59012 0.61771 0.30741 0.0
H1418 H 0.55892 0.60485 0.3755 0.0
H1419 H 0.66438 0.6641 0.95198 0.0
H1420 H 0.46547 0.04383 0.0125 0.0
H1421 H 0.45372 0.0215 0.06279 0.0
H1422 H 0.4272 0.03201 0.16502 0.0
H1423 H 0.43934 0.05459 0.11776 0.0
H1424 H 0.43421 0.0184 0.24508 0.0
H1425 H 0.41802 0.01275 0.01907 0.0
H1426 H 0.4203 0.01415 0.89728 0.0
H1427 H 0.43855 0.98934 0.90193 0.0
H1428 H 0.43652 0.98794 0.02389 0.0
H1429 H 0.37441 0.95768 0.29938 0.0
H1430 H 0.39314 0.97962 0.26923 0.0
H1431 H 0.41433 0.96069 0.18732 0.0
H1432 H 0.39526 0.93848 0.21673 0.0
H1433 H 0.41349 0.97793 0.10092 0.0
H1434 H 0.42623 0.98086 0.32737 0.0
H1435 H 0.42301 0.97909 0.44858 0.0
H1436 H 0.41062 0.00874 0.44352 0.0
H1437 H 0.41359 0.01056 0.32215 0.0
C1438 C 0.45728 0.04149 0.04649 0.0
C1439 C 0.45335 0.05106 0.06074 0.0
C1440 C 0.45046 0.02863 0.07465 0.0
C1441 C 0.43943 0.02497 0.117 0.0
C1442 C 0.43564 0.03456 0.13232 0.0
C1443 C 0.44252 0.04745 0.1046 0.0
C1444 C 0.43165 0.01111 0.14469 0.0
C1445 C 0.42962 0.00955 0.21353 0.0
C1446 C 0.42603 0.9995 0.10386 0.0
C1447 C 0.42727 1.00037 0.03061 0.0
C1448 C 0.42262 0.00769 0.99415 0.0
C1449 C 0.42384 0.00846 0.92509 0.0
C1450 C 0.4296 1.00188 0.89191 0.0
C1451 C 0.43411 0.99447 0.92771 0.0
C1452 C 0.43292 0.99367 0.99678 0.0
C1453 C 0.38319 0.95819 0.27638 0.0
C1454 C 0.38343 0.94638 0.26074 0.0
C1455 C 0.39395 0.97077 0.25939 0.0
C1456 C 0.40525 0.97188 0.22658 0.0
C1457 C 0.40576 0.9601 0.21302 0.0
C1458 C 0.39493 0.94742 0.23035 0.0
C1459 C 0.41576 0.98523 0.20122 0.0
C1460 C 0.4183 0.98673 0.13274 0.0
C1461 C 0.4218 0.99679 0.24237 0.0
C1462 C 0.42008 0.9958 0.31552 0.0
C1463 C 0.42274 0.98695 0.35203 0.0
C1464 C 0.42097 0.98594 0.4208 0.0
C1465 C 0.4166 0.99379 0.45372 0.0
C1466 C 0.41401 1.00267 0.41796 0.0
C1467 C 0.41576 1.00372 0.34918 0.0
H1468 H 0.41523 0.99299 0.50696 0.0
H1469 H 0.43054 1.00249 0.83844 0.0
H1470 H 0.66141 0.10699 0.7355 0.0
H1471 H 0.64257 0.08406 0.75837 0.0
H1472 H 0.66969 0.07527 0.86717 0.0
H1473 H 0.68823 0.09748 0.84221 0.0
H1474 H 0.65608 0.05595 0.78501 0.0
H1475 H 0.64488 0.0822 0.93937 0.0
H1476 H 0.63858 0.09946 0.96263 0.0
H1477 H 0.60345 0.07827 0.84022 0.0
H1478 H 0.60964 0.06098 0.81561 0.0
H1479 H 0.62279 1.00228 1.00224 0.0
H1480 H 0.63536 0.02475 0.95424 0.0
H1481 H 0.59961 0.01864 0.85313 0.0
H1482 H 0.58689 0.99601 0.90107 0.0
H1483 H 0.61388 0.04419 0.90543 0.0
H1484 H 0.62322 0.0162 0.7664 0.0
H1485 H 0.62955 0.99909 0.74022 0.0
H1486 H 0.66829 0.02374 0.8298 0.0
H1487 H 0.66213 0.04092 0.85738 0.0
C1488 C 0.66321 0.10011 0.76458 0.0
C1489 C 0.67627 0.10392 0.78642 0.0
C1490 C 0.65248 0.08705 0.77775 0.0
C1491 C 0.6547 0.07784 0.81422 0.0
C1492 C 0.66769 0.08202 0.83807 0.0
C1493 C 0.67831 0.09478 0.82388 0.0
C1494 C 0.64398 0.06366 0.82689 0.0
C1495 C 0.64688 0.05343 0.81161 0.0
C1496 C 0.63165 0.06018 0.85879 0.0
C1497 C 0.62779 0.07039 0.87512 0.0
C1498 C 0.63584 0.08126 0.91722 0.0
C1499 C 0.63229 0.09104 0.93064 0.0
C1500 C 0.62065 0.08999 0.90274 0.0
C1501 C 0.61248 0.0791 0.86168 0.0
C1502 C 0.616 0.0693 0.84802 0.0
C1503 C 0.61759 1.00564 0.96939 0.0
C1504 C 0.60385 0.99726 0.95498 0.0
C1505 C 0.62479 0.01853 0.94214 0.0
C1506 C 0.61848 0.02333 0.89925 0.0
C1507 C 0.60469 0.01515 0.88599 0.0
C1508 C 0.59744 1.00222 0.91349 0.0
C1509 C 0.62653 0.03676 0.86746 0.0
C1510 C 0.62302 0.04673 0.87824 0.0
C1511 C 0.63837 0.04008 0.83133 0.0
C1512 C 0.64217 0.02982 0.81423 0.0
C1513 C 0.63306 0.01794 0.78085 0.0
C1514 C 0.63662 0.00824 0.76573 0.0
C1515 C 0.64931 0.01032 0.7834 0.0
C1516 C 0.65847 0.02214 0.81612 0.0
C1517 C 0.65495 0.03187 0.83142 0.0
H1518 H 0.65205 1.00279 0.77167 0.0
H1519 H 0.61794 0.09759 0.91303 0.0
H1520 H 0.05206 0.64319 0.99051 0.0
H1521 H 0.02904 0.63231 0.94781 0.0
H1522 H 0.03063 0.59622 0.90771 0.0
H1523 H 0.05353 0.60687 0.95177 0.0
H1524 H 0.02002 0.60295 0.8038 0.0
H1525 H 0.01344 0.59767 0.03896 0.0
H1526 H 0.01624 0.60498 0.15569 0.0
H1527 H 0.99901 0.62983 0.11222 0.0
H1528 H 0.99634 0.62287 0.99494 0.0
H1529 H 0.94126 0.57222 0.83277 0.0
H1530 H 0.96296 0.57529 0.87218 0.0
H1531 H 0.984 0.60979 0.74435 0.0
H1532 H 0.96249 0.60699 0.7066 0.0
H1533 H 0.98208 0.5996 0.93717 0.0
H1534 H 0.01353 0.6109 0.69593 0.0
H1535 H 0.01026 0.60316 0.57975 0.0
H1536 H 0.97695 0.56496 0.63783 0.0
H1537 H 0.98014 0.57238 0.75445 0.0
C1538 C 0.04748 0.63288 0.97349 0.0
C1539 C 0.05471 0.62592 0.97495 0.0
C1540 C 0.03432 0.62668 0.94882 0.0
C1541 C 0.02805 0.6134 0.92509 0.0
C1542 C 0.03526 0.60648 0.92569 0.0
C1543 C 0.0484 0.61263 0.95065 0.0
C1544 C 0.01405 0.6068 0.89892 0.0
C1545 C 0.01171 0.60217 0.83308 0.0
C1546 C 1.00315 0.60557 0.9374 0.0
C1547 C 1.00481 0.60983 0.00794 0.0
C1548 C 0.01037 0.60479 0.05411 0.0
C1549 C 0.01191 0.60887 0.12043 0.0
C1550 C 1.00783 0.61789 0.14132 0.0
C1551 C 1.00218 0.62285 0.09595 0.0
C1552 C 1.00065 0.61885 0.02955 0.0
C1553 C 0.95053 0.58017 0.81167 0.0
C1554 C 0.95027 0.58934 0.76648 0.0
C1555 C 0.96289 0.58199 0.83455 0.0
C1556 C 0.97508 0.59277 0.81111 0.0
C1557 C 0.97474 0.60135 0.76267 0.0
C1558 C 0.96245 0.59973 0.74105 0.0
C1559 C 0.98816 0.59609 0.84173 0.0
C1560 C 0.99035 0.60022 0.90826 0.0
C1561 C 0.99891 0.59686 0.80393 0.0
C1562 C 0.99702 0.59225 0.73393 0.0
C1563 C 1.00555 0.60082 0.68399 0.0
C1564 C 1.0037 0.5965 0.61802 0.0
C1565 C 0.99339 0.58359 0.60139 0.0
C1566 C 0.98491 0.57497 0.65073 0.0
C1567 C 0.98672 0.57925 0.71676 0.0
H1568 H 0.99197 0.58027 0.5503 0.0
H1569 H 1.00902 0.62102 0.1927 0.0
H1570 H 0.4093 0.4369 0.88689 0.0
H1571 H 0.41892 0.42389 0.84036 0.0
H1572 H 0.45266 0.44347 0.97401 0.0
H1573 H 0.44303 0.45642 0.02157 0.0
H1574 H 0.46048 0.44025 0.84767 0.0
H1575 H 0.4278 0.41309 0.01207 0.0
H1576 H 0.40557 0.4022 0.06654 0.0
H1577 H 0.38719 0.37993 0.88872 0.0
H1578 H 0.4093 0.39084 0.83286 0.0
H1579 H 0.47829 0.38768 0.82096 0.0
H1580 H 0.47382 0.40575 0.85352 0.0
H1581 H 0.43718 0.38699 0.73847 0.0
H1582 H 0.44149 0.36895 0.70743 0.0
H1583 H 0.43207 0.39059 0.86119 0.0
H1584 H 0.46463 0.41769 0.69574 0.0
H1585 H 0.4868 0.42856 0.64067 0.0
H1586 H 0.50541 0.45071 0.81845 0.0
H1587 H 0.48336 0.43982 0.87493 0.0
C1588 C 0.41875 0.43844 0.9066 0.0
C1589 C 0.4253 0.44762 0.95855 0.0
C1590 C 0.42428 0.43104 0.87965 0.0
C1591 C 0.43644 0.4326 0.90422 0.0
C1592 C 0.44329 0.44212 0.95421 0.0
C1593 C 0.43775 0.44953 0.98128 0.0
C1594 C 0.44153 0.42369 0.8804 0.0
C1595 C 0.45436 0.42939 0.8512 0.0
C1596 C 0.43349 0.40953 0.88447 0.0
C1597 C 0.42019 0.40287 0.91812 0.0
C1598 C 0.419 0.40594 0.98444 0.0
C1599 C 0.40643 0.39976 0.01558 0.0
C1600 C 0.39497 0.3904 0.98106 0.0
C1601 C 0.39607 0.38719 0.91537 0.0
C1602 C 0.40863 0.39336 0.88396 0.0
C1603 C 0.46956 0.38772 0.80098 0.0
C1604 C 0.46023 0.37697 0.76171 0.0
C1605 C 0.46696 0.398 0.81979 0.0
C1606 C 0.45509 0.39769 0.79881 0.0
C1607 C 0.44632 0.3874 0.75581 0.0
C1608 C 0.44883 0.37713 0.73779 0.0
C1609 C 0.45091 0.40707 0.8265 0.0
C1610 C 0.43824 0.40145 0.85727 0.0
C1611 C 0.45911 0.42125 0.82365 0.0
C1612 C 0.47237 0.42782 0.7898 0.0
C1613 C 0.47347 0.42479 0.7233 0.0
C1614 C 0.48601 0.43097 0.69178 0.0
C1615 C 0.49751 0.44029 0.72611 0.0
C1616 C 0.49649 0.44347 0.79197 0.0
C1617 C 0.48398 0.4373 0.82374 0.0
H1618 H 0.50721 0.44507 0.70162 0.0
H1619 H 0.38524 0.38562 1.00526 0.0
H1620 H 0.11101 0.23962 0.40755 0.0
H1621 H 0.13166 0.2387 0.39076 0.0
H1622 H 0.132 0.22968 0.59804 0.0
H1623 H 0.11164 0.23106 0.61572 0.0
H1624 H 0.15656 0.24789 0.55977 0.0
H1625 H 0.12231 0.20522 0.47606 0.0
H1626 H 0.10291 0.18992 0.40675 0.0
H1627 H 0.126 0.20808 0.23071 0.0
H1628 H 0.1455 0.22362 0.29903 0.0
H1629 H 0.20048 0.21999 0.54221 0.0
H1630 H 0.18015 0.22189 0.55313 0.0
H1631 H 0.18845 0.24189 0.36379 0.0
H1632 H 0.20904 0.24043 0.35367 0.0
H1633 H 0.15997 0.2186 0.38886 0.0
H1634 H 0.19444 0.2609 0.47433 0.0
H1635 H 0.2138 0.27569 0.54501 0.0
H1636 H 0.18985 0.25773 0.71915 0.0
H1637 H 0.17053 0.24257 0.64952 0.0
C1638 C 0.11549 0.2375 0.44971 0.0
C1639 C 0.10956 0.23536 0.51299 0.0
C1640 C 0.12727 0.23685 0.43988 0.0
C1641 C 0.13337 0.23397 0.49295 0.0
C1642 C 0.1275 0.23188 0.55617 0.0
C1643 C 0.11574 0.23253 0.56606 0.0
C1644 C 0.14594 0.2333 0.48297 0.0
C1645 C 0.15721 0.24135 0.52287 0.0
C1646 C 0.147 0.22502 0.43384 0.0
C1647 C 0.13531 0.21567 0.39265 0.0
C1648 C 0.12322 0.20602 0.42256 0.0
C1649 C 0.11221 0.19729 0.38346 0.0
C1650 C 0.11321 0.19805 0.31437 0.0
C1651 C 0.12523 0.20752 0.28424 0.0
C1652 C 0.13627 0.21628 0.32312 0.0
C1653 C 0.19798 0.22482 0.50305 0.0
C1654 C 0.20633 0.23005 0.4471 0.0
C1655 C 0.18637 0.22589 0.5093 0.0
C1656 C 0.18276 0.23197 0.4591 0.0
C1657 C 0.19102 0.2371 0.40291 0.0
C1658 C 0.2028 0.23633 0.39738 0.0
C1659 C 0.17043 0.23309 0.46596 0.0
C1660 C 0.15926 0.22514 0.42554 0.0
C1661 C 0.16942 0.24141 0.51469 0.0
C1662 C 0.18109 0.25047 0.55671 0.0
C1663 C 0.19337 0.25997 0.52772 0.0
C1664 C 0.20435 0.26844 0.5676 0.0
C1665 C 0.20311 0.26762 0.63657 0.0
C1666 C 0.19088 0.25833 0.66577 0.0
C1667 C 0.1799 0.24978 0.62611 0.0
H1668 H 0.21161 0.27424 0.66725 0.0
H1669 H 0.10467 0.19128 0.28418 0.0
H1670 H 0.80935 0.98836 0.36752 0.0
H1671 H 0.80784 0.96648 0.38237 0.0
H1672 H 0.8366 0.9828 0.54233 0.0
H1673 H 0.83832 1.00479 0.5266 0.0
H1674 H 0.84256 0.96813 0.46332 0.0
H1675 H 0.80193 0.96156 0.5685 0.0
H1676 H 0.78062 0.96192 0.57234 0.0
H1677 H 0.765 0.93354 0.41191 0.0
H1678 H 0.7863 0.93315 0.40649 0.0
H1679 H 0.83449 0.90798 0.59817 0.0
H1680 H 0.83448 0.92902 0.58112 0.0
H1681 H 0.80496 0.91044 0.42575 0.0
H1682 H 0.80476 0.88919 0.44351 0.0
H1683 H 0.79907 0.92601 0.49775 0.0
H1684 H 0.83918 0.9322 0.39231 0.0
H1685 H 0.86068 0.93229 0.38379 0.0
H1686 H 0.87737 0.96163 0.53978 0.0
H1687 H 0.8559 0.96158 0.54988 0.0
C1688 C 0.81528 0.98725 0.40613 0.0
C1689 C 0.82392 0.99828 0.4461 0.0
C1690 C 0.81439 0.97471 0.41474 0.0
C1691 C 0.82198 0.97288 0.4641 0.0
C1692 C 0.83063 0.98392 0.50396 0.0
C1693 C 0.83158 0.99648 0.49509 0.0
C1694 C 0.82112 0.95955 0.4735 0.0
C1695 C 0.83306 0.95896 0.47181 0.0
C1696 C 0.8087 0.94746 0.4824 0.0
C1697 C 0.79575 0.9474 0.48677 0.0
C1698 C 0.79397 0.95543 0.53386 0.0
C1699 C 0.7819 0.95565 0.53632 0.0
C1700 C 0.77147 0.94777 0.49234 0.0
C1701 C 0.77308 0.93964 0.44594 0.0
C1702 C 0.78515 0.9394 0.4432 0.0
C1703 C 0.82804 0.90837 0.56002 0.0
C1704 C 0.81976 0.89691 0.52158 0.0
C1705 C 0.82805 0.92044 0.55028 0.0
C1706 C 0.81994 0.92148 0.50109 0.0
C1707 C 0.81137 0.90996 0.46381 0.0
C1708 C 0.81126 0.8978 0.474 0.0
C1709 C 0.82055 0.93462 0.48849 0.0
C1710 C 0.80857 0.93518 0.48933 0.0
C1711 C 0.83294 0.9467 0.47841 0.0
C1712 C 0.84589 0.9468 0.47223 0.0
C1713 C 0.84741 0.9386 0.42511 0.0
C1714 C 0.85959 0.93865 0.41996 0.0
C1715 C 0.87037 0.94693 0.46132 0.0
C1716 C 0.869 0.95521 0.50782 0.0
C1717 C 0.85683 0.95518 0.51324 0.0
H1718 H 0.8798 0.94696 0.45726 0.0
H1719 H 0.76213 0.94796 0.49433 0.0
H1720 H 0.06665 0.8433 0.36978 0.0
H1721 H 0.08857 0.86366 0.3839 0.0
H1722 H 0.07314 0.87513 0.55168 0.0
H1723 H 0.05105 0.85498 0.53607 0.0
H1724 H 0.0874 0.89622 0.47978 0.0
H1725 H 0.09498 0.86161 0.56583 0.0
H1726 H 0.09486 0.84006 0.56283 0.0
H1727 H 0.1218 0.8539 0.3963 0.0
H1728 H 0.12193 0.87548 0.39768 0.0
H1729 H 0.15053 0.94647 0.6091 0.0
H1730 H 0.12873 0.92616 0.59259 0.0
H1731 H 0.14372 0.91699 0.41565 0.0
H1732 H 0.16552 0.9374 0.43123 0.0
H1733 H 0.12988 0.89478 0.49112 0.0
H1734 H 0.12225 0.92959 0.40711 0.0
H1735 H 0.12207 0.95099 0.41134 0.0
H1736 H 0.09502 0.93652 0.57741 0.0
H1737 H 0.09519 0.91511 0.57477 0.0
C1738 C 0.06796 0.85014 0.40987 0.0
C1739 C 0.05715 0.84753 0.45198 0.0
C1740 C 0.08053 0.86177 0.41813 0.0
C1741 C 0.08266 0.87092 0.46956 0.0
C1742 C 0.07182 0.86828 0.51164 0.0
C1743 C 0.0592 0.85673 0.50285 0.0
C1744 C 0.09607 0.88334 0.47889 0.0
C1745 C 0.09665 0.89585 0.48325 0.0
C1746 C 0.10826 0.883 0.48186 0.0
C1747 C 0.10838 0.87012 0.48156 0.0
C1748 C 0.10082 0.86003 0.52835 0.0
C1749 C 0.10076 0.84782 0.52695 0.0
C1750 C 0.10832 0.84562 0.4794 0.0
C1751 C 0.11596 0.85563 0.43313 0.0
C1752 C 0.11604 0.86786 0.43423 0.0
C1753 C 0.14917 0.94028 0.56601 0.0
C1754 C 0.15986 0.9437 0.52136 0.0
C1755 C 0.13667 0.9286 0.5568 0.0
C1756 C 0.13449 0.92005 0.50253 0.0
C1757 C 0.14513 0.92338 0.45801 0.0
C1758 C 0.15763 0.93507 0.46712 0.0
C1759 C 0.12116 0.90761 0.49243 0.0
C1760 C 0.12061 0.89512 0.48779 0.0
C1761 C 0.10898 0.90794 0.48963 0.0
C1762 C 0.10883 0.9208 0.49112 0.0
C1763 C 0.11634 0.93101 0.44485 0.0
C1764 C 0.11623 0.94314 0.44691 0.0
C1765 C 0.10857 0.94513 0.49472 0.0
C1766 C 0.10097 0.93498 0.54046 0.0
C1767 C 0.10106 0.92284 0.53867 0.0
H1768 H 0.10849 0.95452 0.49622 0.0
H1769 H 0.10828 0.83617 0.47854 0.0
H1770 H 0.21774 0.14137 0.44313 0.0
H1771 H 0.21612 0.1196 0.46317 0.0
H1772 H 0.25582 0.1396 0.54957 0.0
H1773 H 0.25742 0.16139 0.53123 0.0
H1774 H 0.2528 0.12019 0.46156 0.0
H1775 H 0.228 0.12351 0.64657 0.0
H1776 H 0.21042 0.12669 0.69981 0.0
H1777 H 0.1798 0.0923 0.59576 0.0
H1778 H 0.19722 0.08903 0.54116 0.0
H1779 H 0.25276 0.06317 0.59471 0.0
H1780 H 0.25377 0.08479 0.57989 0.0
H1781 H 0.21205 0.0641 0.51977 0.0
H1782 H 0.2109 0.04242 0.53809 0.0
H1783 H 0.21597 0.08394 0.59301 0.0
H1784 H 0.23999 0.08032 0.40701 0.0
H1785 H 0.25712 0.07675 0.3514 0.0
H1786 H 0.28855 0.11127 0.45111 0.0
H1787 H 0.27159 0.11493 0.50811 0.0
C1788 C 0.22605 0.14118 0.46747 0.0
C1789 C 0.23772 0.15325 0.48553 0.0
C1790 C 0.22513 0.12868 0.47859 0.0
C1791 C 0.23583 0.12791 0.50815 0.0
C1792 C 0.24745 0.1399 0.52639 0.0
C1793 C 0.24836 0.15239 0.51562 0.0
C1794 C 0.23499 0.11465 0.51939 0.0
C1795 C 0.24484 0.11232 0.49097 0.0
C1796 C 0.2244 0.1042 0.55618 0.0
C1797 C 0.21392 0.10611 0.58931 0.0
C1798 C 0.21753 0.11669 0.63466 0.0
C1799 C 0.20759 0.1185 0.66515 0.0
C1800 C 0.194 0.10972 0.65105 0.0
C1801 C 0.19033 0.0991 0.60657 0.0
C1802 C 0.20023 0.09726 0.57588 0.0
C1803 C 0.24381 0.06324 0.5785 0.0
C1804 C 0.23178 0.05111 0.56734 0.0
C1805 C 0.24441 0.07563 0.56949 0.0
C1806 C 0.23307 0.07619 0.54722 0.0
C1807 C 0.22098 0.06402 0.53676 0.0
C1808 C 0.22032 0.05162 0.54699 0.0
C1809 C 0.23379 0.08942 0.53514 0.0
C1810 C 0.22393 0.09177 0.56339 0.0
C1811 C 0.24428 0.09984 0.49749 0.0
C1812 C 0.25451 0.09783 0.46225 0.0
C1813 C 0.25055 0.08711 0.41731 0.0
C1814 C 0.26023 0.08507 0.38554 0.0
C1815 C 0.27391 0.09376 0.39782 0.0
C1816 C 0.27795 0.10454 0.4417 0.0
C1817 C 0.26831 0.10661 0.47371 0.0
H1818 H 0.28139 0.09216 0.37324 0.0
H1819 H 0.18632 0.11114 0.6747 0.0
H1820 H 0.91135 0.09678 0.43701 0.0
H1821 H 0.93338 0.1167 0.45615 0.0
H1822 H 0.91412 0.13766 0.53628 0.0
H1823 H 0.89208 0.11772 0.51907 0.0
H1824 H 0.93384 0.15314 0.44635 0.0
H1825 H 0.92939 0.12596 0.63752 0.0
H1826 H 0.92561 0.10537 0.69472 0.0
H1827 H 0.95992 0.10774 0.59583 0.0
H1828 H 0.96378 0.12825 0.53729 0.0
H1829 H 0.99065 0.21012 0.58011 0.0
H1830 H 0.96898 0.18957 0.56485 0.0
H1831 H 0.98956 0.16807 0.51139 0.0
H1832 H 0.0113 0.18857 0.5297 0.0
H1833 H 0.96926 0.15257 0.58511 0.0
H1834 H 0.97418 0.17921 0.39381 0.0
H1835 H 0.97848 0.19969 0.33367 0.0
H1836 H 0.9439 0.19804 0.42567 0.0
H1837 H 0.9395 0.17764 0.48712 0.0
C1838 C 0.91176 0.10552 0.45981 0.0
C1839 C 0.89983 0.10555 0.47639 0.0
C1840 C 0.9244 0.11696 0.47038 0.0
C1841 C 0.92544 0.12871 0.49782 0.0
C1842 C 0.91359 0.12877 0.51469 0.0
C1843 C 0.90096 0.11732 0.50454 0.0
C1844 C 0.93885 0.141 0.50831 0.0
C1845 C 0.94153 0.15306 0.47733 0.0
C1846 C 0.94906 0.14084 0.54705 0.0
C1847 C 0.9468 0.12856 0.58256 0.0
C1848 C 0.93607 0.12203 0.62759 0.0
C1849 C 0.93392 0.11038 0.66032 0.0
C1850 C 0.9425 0.10523 0.64879 0.0
C1851 C 0.95327 0.11174 0.60464 0.0
C1852 C 0.95545 0.12338 0.57172 0.0
C1853 C 0.99055 0.20101 0.56525 0.0
C1854 C 1.00266 0.20096 0.55587 0.0
C1855 C 0.97813 0.18925 0.55606 0.0
C1856 C 0.97754 0.17723 0.53559 0.0
C1857 C 0.98968 0.17716 0.52697 0.0
C1858 C 1.00212 0.1889 0.5372 0.0
C1859 C 0.96428 0.16478 0.52335 0.0
C1860 C 0.96161 0.15269 0.55392 0.0
C1861 C 0.95413 0.16486 0.48344 0.0
C1862 C 0.95657 0.17696 0.44549 0.0
C1863 C 0.96753 0.18325 0.40146 0.0
C1864 C 0.96998 0.19484 0.36714 0.0
C1865 C 0.96149 0.20018 0.37597 0.0
C1866 C 0.95048 0.1939 0.41893 0.0
C1867 C 0.94799 0.18231 0.45347 0.0
H1868 H 0.96341 0.20916 0.34942 0.0
H1869 H 0.94082 0.09621 0.67417 0.0
H1870 H 0.95726 0.82623 0.58125 0.0
H1871 H 0.93678 0.82686 0.60918 0.0
H1872 H 0.91749 0.80395 0.43292 0.0
H1873 H 0.93795 0.80351 0.40438 0.0
H1874 H 0.91213 0.82315 0.44245 0.0
H1875 H 0.91012 0.79015 0.59478 0.0
H1876 H 0.91834 0.78115 0.68275 0.0
H1877 H 0.92162 0.81177 0.81664 0.0
H1878 H 0.91357 0.82106 0.72914 0.0
H1879 H 0.84445 0.80318 0.51888 0.0
H1880 H 0.8651 0.80221 0.50281 0.0
H1881 H 0.88444 0.83139 0.65881 0.0
H1882 H 0.86377 0.8325 0.67478 0.0
H1883 H 0.88998 0.80976 0.66257 0.0
H1884 H 0.8912 0.84213 0.50671 0.0
H1885 H 0.88199 0.84994 0.41786 0.0
H1886 H 0.87923 0.81885 0.28893 0.0
H1887 H 0.88826 0.81074 0.37739 0.0
C1888 C 0.94861 0.82124 0.54877 0.0
C1889 C 0.94929 0.81487 0.49042 0.0
C1890 C 0.93688 0.82159 0.56482 0.0
C1891 C 0.92546 0.81535 0.52353 0.0
C1892 C 0.92613 0.80891 0.46554 0.0
C1893 C 0.93787 0.80868 0.44919 0.0
C1894 C 0.91291 0.81572 0.53955 0.0
C1895 C 0.90724 0.82005 0.4904 0.0
C1896 C 0.90657 0.81196 0.6025 0.0
C1897 C 0.91138 0.80639 0.6552 0.0
C1898 C 0.91269 0.79503 0.64283 0.0
C1899 C 0.9173 0.78986 0.69263 0.0
C1900 C 0.92054 0.79591 0.75519 0.0
C1901 C 0.91913 0.80711 0.76813 0.0
C1902 C 0.91454 0.81233 0.71847 0.0
C1903 C 0.85306 0.80931 0.55018 0.0
C1904 C 0.85253 0.818 0.59777 0.0
C1905 C 0.86487 0.80877 0.54082 0.0
C1906 C 0.87638 0.81684 0.57909 0.0
C1907 C 0.8757 0.8251 0.62862 0.0
C1908 C 0.8639 0.82575 0.6376 0.0
C1909 C 0.88924 0.81704 0.5653 0.0
C1910 C 0.89495 0.81286 0.61479 0.0
C1911 C 0.89555 0.82078 0.50244 0.0
C1912 C 0.89029 0.82575 0.44888 0.0
C1913 C 0.88854 0.8369 0.45956 0.0
C1914 C 0.88336 0.84139 0.40925 0.0
C1915 C 0.87999 0.83487 0.34784 0.0
C1916 C 0.88183 0.82388 0.33655 0.0
C1917 C 0.88699 0.81934 0.38673 0.0
H1918 H 0.87598 0.83836 0.30896 0.0
H1919 H 0.9241 0.7919 0.79368 0.0
H1920 H 0.86263 0.55193 0.67579 0.0
H1921 H 0.84225 0.55365 0.68736 0.0
H1922 H 0.86207 0.58462 0.83528 0.0
H1923 H 0.88243 0.58288 0.82409 0.0
H1924 H 0.83709 0.56565 0.87533 0.0
H1925 H 0.85657 0.59229 0.67938 0.0
H1926 H 0.86621 0.5967 0.56671 0.0
H1927 H 0.82934 0.56399 0.49067 0.0
H1928 H 0.81955 0.55927 0.60312 0.0
H1929 H 0.7877 0.58511 0.90157 0.0
H1930 H 0.80876 0.58524 0.88174 0.0
H1931 H 0.79004 0.55658 0.72303 0.0
H1932 H 0.76911 0.5569 0.74033 0.0
H1933 H 0.8146 0.57447 0.68779 0.0
H1934 H 0.79512 0.54718 0.88034 0.0
H1935 H 0.78522 0.54158 0.99242 0.0
H1936 H 0.82154 0.57407 0.07419 0.0
H1937 H 0.8316 0.57998 0.96241 0.0
C1938 C 0.86267 0.55918 0.71032 0.0
C1939 C 0.87412 0.56725 0.74907 0.0
C1940 C 0.85103 0.56019 0.71681 0.0
C1941 C 0.85062 0.56931 0.76203 0.0
C1942 C 0.86212 0.57749 0.80017 0.0
C1943 C 0.87377 0.57652 0.79353 0.0
C1944 C 0.83808 0.57006 0.77108 0.0
C1945 C 0.83229 0.56779 0.83451 0.0
C1946 C 0.83155 0.57243 0.71752 0.0
C1947 C 0.83737 0.57535 0.64977 0.0
C1948 C 0.85055 0.58598 0.63871 0.0
C1949 C 0.85604 0.58854 0.57487 0.0
C1950 C 0.84841 0.58061 0.52159 0.0
C1951 C 0.83525 0.57012 0.53201 0.0
C1952 C 0.82972 0.5675 0.59577 0.0
C1953 C 0.78808 0.579 0.8616 0.0
C1954 C 0.7766 0.57096 0.82273 0.0
C1955 C 0.80013 0.57895 0.85089 0.0
C1956 C 0.80098 0.57073 0.80163 0.0
C1957 C 0.78966 0.56296 0.76163 0.0
C1958 C 0.77763 0.56306 0.77203 0.0
C1959 C 0.81361 0.57013 0.79224 0.0
C1960 C 0.81941 0.57238 0.72874 0.0
C1961 C 0.82009 0.56761 0.84565 0.0
C1962 C 0.81406 0.56411 0.91291 0.0
C1963 C 0.80095 0.5532 0.92215 0.0
C1964 C 0.79532 0.54996 0.98564 0.0
C1965 C 0.80273 0.55749 0.04037 0.0
C1966 C 0.8158 0.56826 0.03174 0.0
C1967 C 0.82148 0.57156 0.96833 0.0
H1968 H 0.79836 0.55496 0.08949 0.0
H1969 H 0.85268 0.5826 0.47221 0.0
H1970 H 0.46972 0.31985 0.79469 0.0
H1971 H 0.46799 0.29779 0.80824 0.0
H1972 H 0.51088 0.31601 0.77976 0.0
H1973 H 0.51264 0.33809 0.76632 0.0
H1974 H 0.49601 0.29193 0.70859 0.0
H1975 H 0.49856 0.30847 0.93166 0.0
H1976 H 0.49129 0.31758 0.02352 0.0
H1977 H 0.45205 0.28226 0.02017 0.0
H1978 H 0.45903 0.27303 0.92757 0.0
H1979 H 0.50639 0.23953 0.82062 0.0
H1980 H 0.50707 0.26084 0.80322 0.0
H1981 H 0.46598 0.24316 0.87069 0.0
H1982 H 0.46555 0.22209 0.89328 0.0
H1983 H 0.47912 0.26677 0.91957 0.0
H1984 H 0.47578 0.24967 0.70012 0.0
H1985 H 0.48185 0.2404 0.60432 0.0
H1986 H 0.52083 0.276 0.59574 0.0
H1987 H 0.51506 0.28541 0.69206 0.0
C1988 C 0.47876 0.31912 0.79095 0.0
C1989 C 0.49132 0.33067 0.77942 0.0
C1990 C 0.47777 0.30653 0.79896 0.0
C1991 C 0.48932 0.30525 0.79537 0.0
C1992 C 0.50184 0.31675 0.78267 0.0
C1993 C 0.50284 0.32936 0.77527 0.0
C1994 C 0.48843 0.29199 0.80609 0.0
C1995 C 0.49247 0.28648 0.75495 0.0
C1996 C 0.48341 0.28469 0.86583 0.0
C1997 C 0.47928 0.29012 0.92227 0.0
C1998 C 0.48835 0.30269 0.95022 0.0
C1999 C 0.48429 0.30787 1.00245 0.0
C2000 C 0.47121 0.30053 0.02754 0.0
C2001 C 0.46218 0.28795 1.00062 0.0
C2002 C 0.46619 0.28274 0.9483 0.0
C2003 C 0.49753 0.24015 0.83282 0.0
C2004 C 0.4859 0.22894 0.85847 0.0
C2005 C 0.49787 0.25236 0.82169 0.0
C2006 C 0.48649 0.25363 0.83432 0.0
C2007 C 0.47489 0.24249 0.8601 0.0
C2008 C 0.47461 0.23033 0.87226 0.0
C2009 C 0.48677 0.26662 0.82204 0.0
C2010 C 0.48262 0.27213 0.87296 0.0
C2011 C 0.49152 0.27383 0.76165 0.0
C2012 C 0.49502 0.26819 0.70371 0.0
C2013 C 0.48568 0.25548 0.67811 0.0
C2014 C 0.48906 0.2502 0.62367 0.0
C2015 C 0.50172 0.25759 0.59407 0.0
C2016 C 0.51103 0.27028 0.61877 0.0
C2017 C 0.5077 0.2756 0.67324 0.0
H2018 H 0.50432 0.25349 0.55191 0.0
H2019 H 0.46808 0.30456 0.06791 0.0
H2020 H 0.72219 0.19232 0.68505 0.0
H2021 H 0.74372 0.21333 0.69927 0.0
H2022 H 0.75542 0.19437 0.84919 0.0
H2023 H 0.73401 0.17345 0.83517 0.0
H2024 H 0.75959 0.21867 0.89022 0.0
H2025 H 0.76947 0.2007 0.69653 0.0
H2026 H 0.76582 0.19163 0.58282 0.0
H2027 H 0.76952 0.22829 0.50707 0.0
H2028 H 0.773 0.23751 0.62054 0.0
H2029 H 0.82861 0.26552 0.92933 0.0
H2030 H 0.80716 0.24548 0.90376 0.0
H2031 H 0.79926 0.26751 0.75441 0.0
H2032 H 0.821 0.28762 0.77858 0.0
H2033 H 0.79259 0.24252 0.71034 0.0
H2034 H 0.78335 0.26084 0.90257 0.0
H2035 H 0.78674 0.26998 0.01604 0.0
H2036 H 0.78141 0.23284 0.09433 0.0
H2037 H 0.77819 0.22353 0.98117 0.0
C2038 C 0.72942 0.19262 0.72053 0.0
C2039 C 0.7264 0.18125 0.75909 0.0
C2040 C 0.74173 0.20462 0.72858 0.0
C2041 C 0.75122 0.20545 0.77533 0.0
C2042 C 0.74826 0.19401 0.81303 0.0
C2043 C 0.73603 0.18204 0.80477 0.0
C2044 C 0.76407 0.21831 0.78681 0.0
C2045 C 0.76687 0.2238 0.85101 0.0
C2046 C 0.77341 0.22525 0.73533 0.0
C2047 C 0.77134 0.21974 0.66711 0.0
C2048 C 0.76939 0.20678 0.6557 0.0
C2049 C 0.76737 0.20162 0.59128 0.0
C2050 C 0.7674 0.20936 0.53777 0.0
C2051 C 0.76948 0.2223 0.54858 0.0
C2052 C 0.77148 0.2275 0.61293 0.0
C2053 C 0.82241 0.26611 0.89047 0.0
C2054 C 0.8266 0.27822 0.8559 0.0
C2055 C 0.81005 0.25464 0.87635 0.0
C2056 C 0.80148 0.25498 0.82763 0.0
C2057 C 0.80567 0.267 0.79237 0.0
C2058 C 0.81806 0.27852 0.8066 0.0
C2059 C 0.78818 0.24278 0.81399 0.0
C2060 C 0.78528 0.23743 0.74947 0.0
C2061 C 0.77869 0.23596 0.86514 0.0
C2062 C 0.78065 0.24153 0.9333 0.0
C2063 C 0.78302 0.25466 0.94392 0.0
C2064 C 0.78489 0.25986 0.0082 0.0
C2065 C 0.78432 0.25201 0.06234 0.0
C2066 C 0.78186 0.23892 0.05233 0.0
C2067 C 0.78 0.23367 0.98813 0.0
H2068 H 0.78576 0.25606 0.11207 0.0
H2069 H 0.76585 0.20535 0.48793 0.0
H2070 H 0.88837 0.47605 0.77537 0.0
H2071 H 0.8881 0.45489 0.79232 0.0
H2072 H 0.9237 0.47528 0.91398 0.0
H2073 H 0.92413 0.49665 0.89618 0.0
H2074 H 0.92577 0.45786 0.83851 0.0
H2075 H 0.89164 0.45529 0.98188 0.0
H2076 H 0.87152 0.45644 0.01473 0.0
H2077 H 0.84739 0.42461 0.87842 0.0
H2078 H 0.86741 0.4234 0.844 0.0
H2079 H 0.91714 0.3964 0.97603 0.0
H2080 H 0.9189 0.41842 0.96249 0.0
H2081 H 0.88693 0.40156 0.81787 0.0
H2082 H 0.88527 0.37952 0.83073 0.0
H2083 H 0.88358 0.41744 0.91098 0.0
H2084 H 0.9192 0.42089 0.76875 0.0
H2085 H 0.93954 0.41933 0.74676 0.0
H2086 H 0.96126 0.44955 0.89434 0.0
H2087 H 0.94098 0.45116 0.91783 0.0
C2088 C 0.89609 0.47605 0.80627 0.0
C2089 C 0.90617 0.48805 0.83518 0.0
C2090 C 0.89592 0.4639 0.81594 0.0
C2091 C 0.90571 0.46335 0.85563 0.0
C2092 C 0.91599 0.47538 0.88338 0.0
C2093 C 0.91623 0.4876 0.87318 0.0
C2094 C 0.90513 0.45022 0.86798 0.0
C2095 C 0.91658 0.44909 0.85523 0.0
C2096 C 0.89314 0.43866 0.8894 0.0
C2097 C 0.88106 0.43934 0.90991 0.0
C2098 C 0.88206 0.44861 0.95851 0.0
C2099 C 0.87067 0.44926 0.97748 0.0
C2100 C 0.85819 0.44062 0.94856 0.0
C2101 C 0.85707 0.4313 0.90071 0.0
C2102 C 0.86844 0.43062 0.88149 0.0
C2103 C 0.91062 0.39742 0.94074 0.0
C2104 C 0.90119 0.38626 0.90387 0.0
C2105 C 0.9116 0.41002 0.93317 0.0
C2106 C 0.90313 0.4117 0.8887 0.0
C2107 C 0.89359 0.40052 0.85238 0.0
C2108 C 0.89268 0.38794 0.85962 0.0
C2109 C 0.90411 0.42507 0.88045 0.0
C2110 C 0.89274 0.42624 0.89423 0.0
C2111 C 0.91623 0.43669 0.86114 0.0
C2112 C 0.92855 0.43607 0.84541 0.0
C2113 C 0.9283 0.42717 0.79669 0.0
C2114 C 0.93982 0.42627 0.78395 0.0
C2115 C 0.95167 0.43431 0.81926 0.0
C2116 C 0.95206 0.44332 0.86708 0.0
C2117 C 0.94057 0.44424 0.88005 0.0
H2118 H 0.96057 0.43357 0.8095 0.0
H2119 H 0.84938 0.44114 0.96333 0.0
H2120 H 0.56784 0.44632 0.73696 0.0
H2121 H 0.58918 0.46662 0.7607 0.0
H2122 H 0.58659 0.45436 0.9648 0.0
H2123 H 0.56508 0.43396 0.94134 0.0
H2124 H 0.59534 0.48037 0.9607 0.0
H2125 H 0.60814 0.45162 0.85333 0.0
H2126 H 0.60819 0.43633 0.76756 0.0
H2127 H 0.6213 0.46775 0.62227 0.0
H2128 H 0.62114 0.48319 0.70701 0.0
H2129 H 0.66719 0.52666 0.01271 0.0
H2130 H 0.64533 0.50582 1.00095 0.0
H2131 H 0.63827 0.5206 0.81768 0.0
H2132 H 0.65981 0.54153 0.83013 0.0
H2133 H 0.63508 0.49281 0.81745 0.0
H2134 H 0.62127 0.52116 0.93154 0.0
H2135 H 0.62262 0.53604 0.02306 0.0
H2136 H 0.61284 0.50427 0.16305 0.0
H2137 H 0.61164 0.48925 0.07233 0.0
C2138 C 0.57186 0.44783 0.7868 0.0
C2139 C 0.56477 0.43837 0.83701 0.0
C2140 C 0.58409 0.4595 0.80038 0.0
C2141 C 0.58969 0.46198 0.86436 0.0
C2142 C 0.58254 0.4527 0.91499 0.0
C2143 C 0.57022 0.44102 0.90149 0.0
C2144 C 0.60299 0.47427 0.8779 0.0
C2145 C 0.60406 0.48295 0.92986 0.0
C2146 C 0.61444 0.47779 0.83772 0.0
C2147 C 0.6145 0.46853 0.78642 0.0
C2148 C 0.61092 0.45524 0.80297 0.0
C2149 C 0.61099 0.44655 0.75456 0.0
C2150 C 0.61471 0.45105 0.68947 0.0
C2151 C 0.6184 0.46427 0.6727 0.0
C2152 C 0.61833 0.473 0.72091 0.0
C2153 C 0.6609 0.52548 0.97028 0.0
C2154 C 0.6652 0.5357 0.92233 0.0
C2155 C 0.64845 0.5136 0.96361 0.0
C2156 C 0.64022 0.51166 0.9083 0.0
C2157 C 0.64448 0.52188 0.8606 0.0
C2158 C 0.65676 0.53385 0.86796 0.0
C2159 C 0.62728 0.49888 0.89917 0.0
C2160 C 0.62633 0.49013 0.8482 0.0
C2161 C 0.61605 0.4952 0.9409 0.0
C2162 C 0.61652 0.50413 0.99526 0.0
C2163 C 0.61952 0.51738 0.98189 0.0
C2164 C 0.62023 0.52583 0.0336 0.0
C2165 C 0.61785 0.52112 0.09886 0.0
C2166 C 0.6147 0.50792 0.11249 0.0
C2167 C 0.61399 0.49942 0.06094 0.0
H2168 H 0.61842 0.52768 0.13885 0.0
H2169 H 0.61477 0.44431 0.65207 0.0
H2170 H 0.61516 0.156 0.75763 0.0
H2171 H 0.59426 0.15595 0.78115 0.0
H2172 H 0.59067 0.13591 0.96727 0.0
H2173 H 0.61153 0.13567 0.94306 0.0
H2174 H 0.56692 0.12577 0.91464 0.0
H2175 H 0.60218 0.17066 0.9566 0.0
H2176 H 0.62268 0.19226 0.93228 0.0
H2177 H 0.60274 0.19876 0.76827 0.0
H2178 H 0.58218 0.1771 0.79104 0.0
H2179 H 0.52956 0.16611 1.00105 0.0
H2180 H 0.54993 0.16429 0.99371 0.0
H2181 H 0.53 0.13158 0.85431 0.0
H2182 H 0.50958 0.1332 0.86269 0.0
H2183 H 0.56604 0.16842 0.89557 0.0
H2184 H 0.5431 0.11062 0.86172 0.0
H2185 H 0.52373 0.08935 0.9006 0.0
H2186 H 0.52005 0.10951 0.07199 0.0
H2187 H 0.53954 0.13085 0.03476 0.0
C2188 C 0.60995 0.15161 0.80372 0.0
C2189 C 0.61512 0.14598 0.84885 0.0
C2190 C 0.59798 0.15162 0.81721 0.0
C2191 C 0.59097 0.14621 0.87677 0.0
C2192 C 0.59589 0.14021 0.9211 0.0
C2193 C 0.60782 0.14007 0.90723 0.0
C2194 C 0.57859 0.14693 0.89268 0.0
C2195 C 0.56673 0.1351 0.91045 0.0
C2196 C 0.57834 0.15914 0.88888 0.0
C2197 C 0.59067 0.17221 0.87522 0.0
C2198 C 0.60219 0.17666 0.91509 0.0
C2199 C 0.61382 0.18891 0.90161 0.0
C2200 C 0.61402 0.19686 0.84868 0.0
C2201 C 0.60258 0.19258 0.80921 0.0
C2202 C 0.59093 0.18033 0.82242 0.0
C2203 C 0.52949 0.15844 0.96944 0.0
C2204 C 0.51797 0.14981 0.93243 0.0
C2205 C 0.54116 0.15743 0.96504 0.0
C2206 C 0.54156 0.14774 0.92374 0.0
C2207 C 0.52996 0.139 0.8874 0.0
C2208 C 0.51828 0.13998 0.89196 0.0
C2209 C 0.55426 0.1472 0.91628 0.0
C2210 C 0.56619 0.15907 0.8999 0.0
C2211 C 0.55463 0.13508 0.92294 0.0
C2212 C 0.54272 0.12236 0.9451 0.0
C2213 C 0.53817 0.11051 0.90775 0.0
C2214 C 0.52718 0.09844 0.92953 0.0
C2215 C 0.52069 0.09808 0.98877 0.0
C2216 C 0.5251 0.10981 0.0261 0.0
C2217 C 0.5361 0.1219 1.00461 0.0
H2218 H 0.51228 0.08869 1.00589 0.0
H2219 H 0.62303 0.20635 0.83833 0.0
H2220 H 0.53259 0.88321 0.19774 0.0
H2221 H 0.51211 0.88464 0.2102 0.0
H2222 H 0.52367 0.91123 0.04143 0.0
H2223 H 0.5444 0.91015 0.03026 0.0
H2224 H 0.51343 0.91977 0.13101 0.0
H2225 H 0.4989 0.87663 0.03296 0.0
H2226 H 0.4966 0.85415 0.02274 0.0
H2227 H 0.47631 0.8427 0.21064 0.0
H2228 H 0.47864 0.86518 0.22238 0.0
H2229 H 0.44837 0.91262 0.0857 0.0
H2230 H 0.46918 0.91195 0.0699 0.0
H2231 H 0.4604 0.88738 0.2449 0.0
H2232 H 0.43964 0.88806 0.26129 0.0
H2233 H 0.46913 0.87789 0.14799 0.0
H2234 H 0.48408 0.92156 0.24491 0.0
H2235 H 0.48627 0.94403 0.25227 0.0
H2236 H 0.50558 0.95439 0.06177 0.0
H2237 H 0.50334 0.93191 0.0529 0.0
C2238 C 0.53077 0.88939 0.16341 0.0
C2239 C 0.54006 0.8965 0.1128 0.0
C2240 C 0.51901 0.89014 0.17029 0.0
C2241 C 0.51612 0.89781 0.12589 0.0
C2242 C 0.52558 0.90519 0.0762 0.0
C2243 C 0.53744 0.90456 0.06979 0.0
C2244 C 0.50324 0.8981 0.13122 0.0
C2245 C 0.50374 0.91059 0.13373 0.0
C2246 C 0.49053 0.88617 0.13588 0.0
C2247 C 0.48905 0.87263 0.1288 0.0
C2248 C 0.49402 0.86935 0.0723 0.0
C2249 C 0.4927 0.8566 0.0662 0.0
C2250 C 0.48634 0.84702 0.11608 0.0
C2251 C 0.48125 0.85014 0.17208 0.0
C2252 C 0.48255 0.86288 0.17845 0.0
C2253 C 0.45088 0.90712 0.1211 0.0
C2254 C 0.44226 0.9004 0.17483 0.0
C2255 C 0.46282 0.90675 0.11198 0.0
C2256 C 0.4665 0.89975 0.15665 0.0
C2257 C 0.45781 0.89284 0.20964 0.0
C2258 C 0.44587 0.89319 0.21875 0.0
C2259 C 0.47935 0.89954 0.1483 0.0
C2260 C 0.47883 0.88706 0.14511 0.0
C2261 C 0.49202 0.91147 0.14254 0.0
C2262 C 0.49342 0.92501 0.14797 0.0
C2263 C 0.4887 0.9286 0.20438 0.0
C2264 C 0.48997 0.94134 0.20886 0.0
C2265 C 0.49603 0.95062 0.15744 0.0
C2266 C 0.50087 0.94718 0.10151 0.0
C2267 C 0.49962 0.93445 0.09676 0.0
H2268 H 0.497 0.96048 0.161 0.0
H2269 H 0.48533 0.83716 0.11128 0.0
H2270 H 0.17426 0.67155 0.18946 0.0
H2271 H 0.17262 0.64953 0.20275 0.0
H2272 H 0.13867 0.63189 0.06948 0.0
H2273 H 0.14037 0.65389 0.05567 0.0
H2274 H 0.13443 0.61594 0.17868 0.0
H2275 H 0.16908 0.63856 0.01543 0.0
H2276 H 0.19021 0.65713 0.97025 0.0
H2277 H 0.21243 0.65269 0.13 0.0
H2278 H 0.19139 0.63421 0.17665 0.0
H2279 H 0.13362 0.55389 0.12888 0.0
H2280 H 0.13423 0.57538 0.11393 0.0
H2281 H 0.17103 0.59547 0.22725 0.0
H2282 H 0.17057 0.57412 0.24134 0.0
H2283 H 0.17345 0.61012 0.12523 0.0
H2284 H 0.13914 0.588 0.29066 0.0
H2285 H 0.11813 0.56966 0.33816 0.0
H2286 H 0.09546 0.57332 0.17822 0.0
H2287 H 0.11637 0.59158 0.1293 0.0
C2288 C 0.16643 0.66297 0.1631 0.0
C2289 C 0.15744 0.66446 0.12149 0.0
C2290 C 0.16552 0.65039 0.17057 0.0
C2291 C 0.15559 0.63903 0.13667 0.0
C2292 C 0.14642 0.64047 0.09617 0.0
C2293 C 0.1474 0.65306 0.08831 0.0
C2294 C 0.15485 0.62571 0.14288 0.0
C2295 C 0.14291 0.61462 0.1662 0.0
C2296 C 0.16597 0.62401 0.12791 0.0
C2297 C 0.17864 0.63509 0.09988 0.0
C2298 C 0.17846 0.64162 0.04122 0.0
C2299 C 0.19042 0.65211 0.01529 0.0
C2300 C 0.20265 0.65611 0.04733 0.0
C2301 C 0.20295 0.6496 0.10528 0.0
C2302 C 0.19101 0.6391 0.13146 0.0
C2303 C 0.1418 0.56288 0.15093 0.0
C2304 C 0.15206 0.56225 0.18613 0.0
C2305 C 0.14213 0.57518 0.14248 0.0
C2306 C 0.15261 0.58712 0.17006 0.0
C2307 C 0.16285 0.58648 0.20519 0.0
C2308 C 0.16259 0.57423 0.21311 0.0
C2309 C 0.15307 0.60031 0.16181 0.0
C2310 C 0.16496 0.6114 0.13785 0.0
C2311 C 0.14192 0.60202 0.17663 0.0
C2312 C 0.12934 0.59106 0.20598 0.0
C2313 C 0.12969 0.58483 0.26537 0.0
C2314 C 0.1178 0.57445 0.29259 0.0
C2315 C 0.10548 0.5703 0.26113 0.0
C2316 C 0.10502 0.57653 0.20248 0.0
C2317 C 0.11688 0.5869 0.17501 0.0
H2318 H 0.09628 0.56227 0.28229 0.0
H2319 H 0.21191 0.66424 0.02717 0.0
H2320 H 0.48878 0.61793 0.08834 0.0
H2321 H 0.46772 0.59727 0.06168 0.0
H2322 H 0.47125 0.57888 0.2412 0.0
H2323 H 0.49239 0.59929 0.26726 0.0
H2324 H 0.46422 0.56176 0.13803 0.0
H2325 H 0.44948 0.59109 0.23031 0.0
H2326 H 0.44833 0.61196 0.23729 0.0
H2327 H 0.43259 0.60562 0.03919 0.0
H2328 H 0.43381 0.5848 0.03073 0.0
H2329 H 0.39859 0.50603 0.17373 0.0
H2330 H 0.42023 0.52669 0.18555 0.0
H2331 H 0.41102 0.54363 0.01615 0.0
H2332 H 0.38899 0.5231 1.00622 0.0
H2333 H 0.42139 0.56183 0.10548 0.0
H2334 H 0.43476 0.53174 0.01453 0.0
H2335 H 0.43663 0.51129 1.00528 0.0
H2336 H 0.45541 0.51917 0.19682 0.0
H2337 H 0.45346 0.53953 0.20776 0.0
C2338 C 0.48511 0.60946 0.12193 0.0
C2339 C 0.49225 0.61034 0.18025 0.0
C2340 C 0.47301 0.59768 0.10688 0.0
C2341 C 0.46779 0.58653 0.14978 0.0
C2342 C 0.47502 0.58733 0.20741 0.0
C2343 C 0.48706 0.59908 0.22257 0.0
C2344 C 0.45486 0.57399 0.13497 0.0
C2345 C 0.45482 0.56174 0.13151 0.0
C2346 C 0.44266 0.57399 0.12447 0.0
C2347 C 0.44187 0.58647 0.12964 0.0
C2348 C 0.44587 0.59421 0.18806 0.0
C2349 C 0.44519 0.60601 0.19232 0.0
C2350 C 0.44043 0.61013 0.13865 0.0
C2351 C 0.4363 0.60243 0.08068 0.0
C2352 C 0.43697 0.59062 0.07614 0.0
C2353 C 0.40121 0.51412 0.13869 0.0
C2354 C 0.3921 0.51294 0.08894 0.0
C2355 C 0.41366 0.52593 0.1452 0.0
C2356 C 0.41747 0.53673 0.10107 0.0
C2357 C 0.40839 0.53548 0.05083 0.0
C2358 C 0.39582 0.52372 0.04495 0.0
C2359 C 0.43065 0.54947 0.10904 0.0
C2360 C 0.43077 0.56179 0.11133 0.0
C2361 C 0.44296 0.54954 0.11811 0.0
C2362 C 0.44389 0.53713 0.1121 0.0
C2363 C 0.43918 0.52905 0.05494 0.0
C2364 C 0.44027 0.51748 0.04936 0.0
C2365 C 0.44616 0.51396 0.1004 0.0
C2366 C 0.45087 0.52193 0.15731 0.0
C2367 C 0.44978 0.53348 0.16321 0.0
H2368 H 0.44714 0.50509 0.09583 0.0
H2369 H 0.4399 0.61928 0.14205 0.0
H2370 H 0.54505 0.71042 0.20965 0.0
H2371 H 0.54677 0.73244 0.19545 0.0
H2372 H 0.58852 0.75203 0.25361 0.0
H2373 H 0.58686 0.72997 0.26682 0.0
H2374 H 0.57298 0.76309 0.31329 0.0
H2375 H 0.5822 0.75039 0.10218 0.0
H2376 H 0.57683 0.73418 0.0113 0.0
H2377 H 0.54118 0.73601 0.96627 0.0
H2378 H 0.54593 0.75166 0.05968 0.0
H2379 H 0.59144 0.82894 0.20606 0.0
H2380 H 0.59018 0.80737 0.22547 0.0
H2381 H 0.5516 0.78691 0.12757 0.0
H2382 H 0.55312 0.80854 0.10463 0.0
H2383 H 0.56589 0.77621 0.08897 0.0
H2384 H 0.55511 0.78715 0.30069 0.0
H2385 H 0.5583 0.80122 0.39905 0.0
H2386 H 0.59531 0.80204 0.44383 0.0
H2387 H 0.59243 0.78812 0.34516 0.0
C2388 C 0.55459 0.71942 0.21953 0.0
C2389 C 0.56586 0.71849 0.23908 0.0
C2390 C 0.55555 0.73199 0.21153 0.0
C2391 C 0.56778 0.74389 0.22342 0.0
C2392 C 0.57898 0.74299 0.24443 0.0
C2393 C 0.57805 0.73039 0.25159 0.0
C2394 C 0.56898 0.75723 0.21081 0.0
C2395 C 0.57163 0.76607 0.26414 0.0
C2396 C 0.56687 0.76095 0.14692 0.0
C2397 C 0.56434 0.7521 0.08853 0.0
C2398 C 0.57314 0.74725 0.07337 0.0
C2399 C 0.57019 0.73813 0.02145 0.0
C2400 C 0.55869 0.7341 0.98279 0.0
C2401 C 0.55008 0.73914 0.99626 0.0
C2402 C 0.55286 0.74809 0.04897 0.0
C2403 C 0.58271 0.81989 0.18809 0.0
C2404 C 0.57238 0.82058 0.15372 0.0
C2405 C 0.58194 0.80749 0.19998 0.0
C2406 C 0.57071 0.79541 0.17884 0.0
C2407 C 0.56036 0.79605 0.14464 0.0
C2408 C 0.56117 0.80845 0.13226 0.0
C2409 C 0.56984 0.78216 0.19167 0.0
C2410 C 0.56728 0.77331 0.13823 0.0
C2411 C 0.57188 0.77837 0.25568 0.0
C2412 C 0.57362 0.7867 0.31517 0.0
C2413 C 0.56398 0.79041 0.33124 0.0
C2414 C 0.56572 0.79835 0.38708 0.0
C2415 C 0.57701 0.80255 0.42756 0.0
C2416 C 0.58657 0.7988 0.41237 0.0
C2417 C 0.58489 0.79087 0.35653 0.0
H2418 H 0.57834 0.8087 0.47078 0.0
H2419 H 0.55646 0.72708 0.94238 0.0
H2420 H 0.33929 0.85634 0.30856 0.0
H2421 H 0.31749 0.83573 0.29415 0.0
H2422 H 0.30262 0.8581 0.18645 0.0
H2423 H 0.32438 0.87873 0.2009 0.0
H2424 H 0.28382 0.84044 0.27298 0.0
H2425 H 0.31274 0.83886 0.1046 0.0
H2426 H 0.33318 0.83942 0.06211 0.0
H2427 H 0.32459 0.80495 0.18057 0.0
H2428 H 0.30417 0.8043 0.22449 0.0
H2429 H 0.22684 0.78644 0.11918 0.0
H2430 H 0.24825 0.8067 0.14285 0.0
H2431 H 0.26276 0.78263 0.2368 0.0
H2432 H 0.2413 0.76224 0.21309 0.0
H2433 H 0.28184 0.80097 0.16093 0.0
H2434 H 0.25272 0.80198 0.32767 0.0
H2435 H 0.23237 0.80136 0.37202 0.0
H2436 H 0.24135 0.8367 0.26007 0.0
H2437 H 0.26166 0.83742 0.21427 0.0
C2438 C 0.33134 0.85687 0.28215 0.0
C2439 C 0.33357 0.86914 0.25557 0.0
C2440 C 0.3189 0.84507 0.27367 0.0
C2441 C 0.30843 0.84529 0.23843 0.0
C2442 C 0.31053 0.85764 0.21364 0.0
C2443 C 0.32298 0.86942 0.22182 0.0
C2444 C 0.29539 0.83264 0.22636 0.0
C2445 C 0.28337 0.83186 0.2478 0.0
C2446 C 0.29479 0.82129 0.19499 0.0
C2447 C 0.30701 0.82162 0.16834 0.0
C2448 C 0.31526 0.83146 0.12197 0.0
C2449 C 0.32684 0.83179 0.09756 0.0
C2450 C 0.3302 0.82225 0.11876 0.0
C2451 C 0.32198 0.81234 0.16427 0.0
C2452 C 0.3104 0.81198 0.1889 0.0
C2453 C 0.2345 0.78543 0.1457 0.0
C2454 C 0.23223 0.77265 0.16475 0.0
C2455 C 0.24678 0.79707 0.15915 0.0
C2456 C 0.25712 0.79629 0.19264 0.0
C2457 C 0.25497 0.78354 0.21104 0.0
C2458 C 0.24268 0.77187 0.19733 0.0
C2459 C 0.2702 0.80874 0.20744 0.0
C2460 C 0.28225 0.8095 0.1864 0.0
C2461 C 0.27083 0.82006 0.23949 0.0
C2462 C 0.25865 0.81968 0.26707 0.0
C2463 C 0.2503 0.80956 0.31211 0.0
C2464 C 0.23878 0.8092 0.33757 0.0
C2465 C 0.23555 0.81897 0.31875 0.0
C2466 C 0.24386 0.82913 0.27454 0.0
C2467 C 0.25538 0.82953 0.24886 0.0
H2468 H 0.22663 0.81867 0.33853 0.0
H2469 H 0.33917 0.82252 0.09982 0.0
H2470 H 0.29008 0.49436 0.27028 0.0
H2471 H 0.26947 0.49508 0.28943 0.0
H2472 H 0.24875 0.4636 0.14484 0.0
H2473 H 0.26956 0.46338 0.12242 0.0
H2474 H 0.24211 0.48173 0.12617 0.0
H2475 H 0.24386 0.45829 0.31792 0.0
H2476 H 0.25392 0.45441 0.41747 0.0
H2477 H 0.25815 0.49033 0.50658 0.0
H2478 H 0.24827 0.49453 0.40712 0.0
H2479 H 0.17615 0.46694 0.20419 0.0
H2480 H 0.19642 0.4651 0.19539 0.0
H2481 H 0.21761 0.49958 0.3235 0.0
H2482 H 0.19714 0.50128 0.33363 0.0
H2483 H 0.22393 0.48003 0.35152 0.0
H2484 H 0.22136 0.5026 0.15381 0.0
H2485 H 0.20958 0.5044 0.05538 0.0
H2486 H 0.20554 0.4677 0.97783 0.0
H2487 H 0.21714 0.46558 0.07613 0.0
C2488 C 0.28119 0.48762 0.24214 0.0
C2489 C 0.28159 0.4788 0.19468 0.0
C2490 C 0.2693 0.48793 0.25383 0.0
C2491 C 0.25742 0.47927 0.2193 0.0
C2492 C 0.25774 0.47037 0.17239 0.0
C2493 C 0.26965 0.47014 0.16019 0.0
C2494 C 0.24478 0.47978 0.23054 0.0
C2495 C 0.23808 0.48118 0.17548 0.0
C2496 C 0.23954 0.4793 0.29485 0.0
C2497 C 0.24545 0.47679 0.35481 0.0
C2498 C 0.24703 0.46542 0.35854 0.0
C2499 C 0.25268 0.46315 0.41498 0.0
C2500 C 0.2567 0.47213 0.46824 0.0
C2501 C 0.25504 0.48339 0.46524 0.0
C2502 C 0.24941 0.48571 0.40887 0.0
C2503 C 0.18509 0.47408 0.23096 0.0
C2504 C 0.1851 0.48433 0.26919 0.0
C2505 C 0.1967 0.47305 0.22564 0.0
C2506 C 0.20866 0.48237 0.25766 0.0
C2507 C 0.20854 0.49232 0.298 0.0
C2508 C 0.19686 0.4933 0.30368 0.0
C2509 C 0.22132 0.48194 0.24721 0.0
C2510 C 0.22803 0.4806 0.30235 0.0
C2511 C 0.22648 0.48227 0.18291 0.0
C2512 C 0.22001 0.48387 0.12258 0.0
C2513 C 0.21793 0.4949 0.11582 0.0
C2514 C 0.21128 0.49598 0.06009 0.0
C2515 C 0.20677 0.48614 0.01063 0.0
C2516 C 0.20902 0.47529 0.01632 0.0
C2517 C 0.21565 0.47416 0.07195 0.0
H2518 H 0.20149 0.48687 0.96793 0.0
H2519 H 0.26108 0.47036 0.5119 0.0
H2520 H 1.00309 0.22268 0.35495 0.0
H2521 H 1.00318 0.22304 0.23299 0.0
H2522 H 0.04538 0.25293 0.23422 0.0
H2523 H 0.04545 0.25244 0.35538 0.0
H2524 H 0.02921 0.25888 0.14669 0.0
H2525 H 0.03849 0.22329 0.19966 0.0
H2526 H 0.03379 0.20216 0.25428 0.0
H2527 H 0.996 0.18091 0.15165 0.0
H2528 H 1.0004 0.20198 0.09709 0.0
H2529 H 0.04224 0.2355 0.80605 0.0
H2530 H 0.0415 0.23475 0.92735 0.0
H2531 H 1.01012 0.24503 0.92585 0.0
H2532 H 0.01078 0.24581 0.80466 0.0
H2533 H 0.02105 0.21903 0.01421 0.0
H2534 H 0.01463 0.26499 0.06195 0.0
H2535 H 0.02011 0.28651 0.00894 0.0
H2536 H 0.05398 0.28771 0.91114 0.0
H2537 H 0.0488 0.26629 0.96424 0.0
C2538 C 0.01238 0.22931 0.32917 0.0
C2539 C 0.02428 0.23746 0.36492 0.0
C2540 C 0.01242 0.2295 0.25953 0.0
C2541 C 0.0243 0.23802 0.22448 0.0
C2542 C 0.0361 0.2463 0.26015 0.0
C2543 C 0.03614 0.24593 0.32949 0.0
C2544 C 0.02455 0.23825 0.15062 0.0
C2545 C 0.02734 0.25014 0.1177 0.0
C2546 C 0.0223 0.22692 0.11275 0.0
C2547 C 0.01971 0.21423 0.14484 0.0
C2548 C 0.02913 0.21413 0.18914 0.0
C2549 C 0.02653 0.20217 0.22002 0.0
C2550 C 0.01459 0.19021 0.20659 0.0
C2551 C 1.00524 0.19019 0.16208 0.0
C2552 C 1.00779 0.20214 0.13112 0.0
C2553 C 0.03522 0.23767 0.83139 0.0
C2554 C 0.02662 0.24078 0.79524 0.0
C2555 C 0.03475 0.23715 0.90087 0.0
C2556 C 0.0258 0.2399 0.93596 0.0
C2557 C 0.01719 0.24299 0.90007 0.0
C2558 C 0.01758 0.24341 0.8306 0.0
C2559 C 0.02556 0.23964 0.00999 0.0
C2560 C 0.02279 0.22774 0.04304 0.0
C2561 C 0.02789 0.251 0.04805 0.0
C2562 C 0.03124 0.26398 0.01656 0.0
C2563 C 0.02327 0.26988 0.02932 0.0
C2564 C 0.02632 0.28205 0.99923 0.0
C2565 C 0.03736 0.28845 0.95653 0.0
C2566 C 0.0454 0.28272 0.94403 0.0
C2567 C 0.0424 0.27055 0.97404 0.0
H2568 H 0.0397 0.29787 0.93324 0.0
H2569 H 0.01259 0.18095 0.23055 0.0
H2570 H 0.81226 0.82654 0.36652 0.0
H2571 H 0.81221 0.82664 0.24537 0.0
H2572 H 0.81563 0.79088 0.24335 0.0
H2573 H 0.81592 0.79081 0.36441 0.0
H2574 H 0.83239 0.80868 0.1552 0.0
H2575 H 0.7856 0.78964 0.20983 0.0
H2576 H 0.76611 0.78891 0.26572 0.0
H2577 H 0.77427 0.82545 0.16782 0.0
H2578 H 0.79394 0.82651 0.11206 0.0
H2579 H 0.8163 0.79125 0.81675 0.0
H2580 H 0.81598 0.79122 0.93782 0.0
H2581 H 0.81267 0.82705 0.93713 0.0
H2582 H 0.81278 0.82706 0.81592 0.0
H2583 H 0.79588 0.80942 0.02671 0.0
H2584 H 0.84264 0.82846 0.97223 0.0
H2585 H 0.86239 0.82946 0.91786 0.0
H2586 H 0.85441 0.79304 0.01638 0.0
H2587 H 0.8345 0.79172 0.07066 0.0
C2588 C 0.81298 0.81867 0.34043 0.0
C2589 C 0.81405 0.80864 0.37548 0.0
C2590 C 0.81289 0.81871 0.27102 0.0
C2591 C 0.81376 0.80868 0.23507 0.0
C2592 C 0.81493 0.79872 0.2699 0.0
C2593 C 0.81504 0.79867 0.33927 0.0
C2594 C 0.81361 0.80862 0.1612 0.0
C2595 C 0.82431 0.80865 0.12713 0.0
C2596 C 0.80324 0.80892 0.12442 0.0
C2597 C 0.79132 0.80822 0.15722 0.0
C2598 C 0.78329 0.79757 0.20054 0.0
C2599 C 0.77221 0.79709 0.23217 0.0
C2600 C 0.76897 0.80714 0.22045 0.0
C2601 C 0.7768 0.81768 0.1769 0.0
C2602 C 0.78791 0.81821 0.14523 0.0
C2603 C 0.8155 0.79914 0.84217 0.0
C2604 C 0.81462 0.80919 0.80628 0.0
C2605 C 0.81537 0.79914 0.91158 0.0
C2606 C 0.81448 0.80923 0.94678 0.0
C2607 C 0.8134 0.81917 0.91116 0.0
C2608 C 0.81352 0.81918 0.84172 0.0
C2609 C 0.81464 0.80942 0.02068 0.0
C2610 C 0.80396 0.80944 0.05477 0.0
C2611 C 0.82503 0.80916 0.05754 0.0
C2612 C 0.837 0.80993 0.02498 0.0
C2613 C 0.84503 0.82061 0.98188 0.0
C2614 C 0.85627 0.82124 0.95116 0.0
C2615 C 0.85963 0.8113 0.96352 0.0
C2616 C 0.85178 0.80072 1.00677 0.0
C2617 C 0.84053 0.80003 0.03757 0.0
H2618 H 0.86834 0.81181 0.93971 0.0
H2619 H 0.76039 0.80676 0.24501 0.0
H2620 H 0.22826 0.01004 0.36405 0.0
H2621 H 0.22881 0.00981 0.2433 0.0
H2622 H 0.26475 0.04889 0.24397 0.0
H2623 H 0.264 0.04939 0.36524 0.0
H2624 H 0.24922 0.04806 0.14857 0.0
H2625 H 0.26513 0.01859 0.21712 0.0
H2626 H 0.26455 0.99964 0.27764 0.0
H2627 H 0.22818 0.97191 0.17614 0.0
H2628 H 0.22842 0.99072 0.11575 0.0
H2629 H 0.26712 0.04536 0.81391 0.0
H2630 H 0.26703 0.04585 0.93493 0.0
H2631 H 0.2291 0.00863 0.93751 0.0
H2632 H 0.22915 0.00795 0.81625 0.0
H2633 H 0.24615 0.00864 0.03082 0.0
H2634 H 0.23061 0.03891 0.96359 0.0
H2635 H 0.23196 0.05825 0.90336 0.0
H2636 H 0.26902 0.08491 1.00282 0.0
H2637 H 0.26797 0.0657 0.06303 0.0
C2638 C 0.23628 0.01863 0.33868 0.0
C2639 C 0.24614 0.02971 0.37462 0.0
C2640 C 0.23663 0.01844 0.26938 0.0
C2641 C 0.247 0.02919 0.23415 0.0
C2642 C 0.25667 0.04043 0.26981 0.0
C2643 C 0.25624 0.0407 0.33927 0.0
C2644 C 0.24771 0.02869 0.16027 0.0
C2645 C 0.24875 0.03952 0.12301 0.0
C2646 C 0.24686 0.01745 0.12636 0.0
C2647 C 0.24674 1.00609 0.16229 0.0
C2648 C 0.25696 0.00847 0.20802 0.0
C2649 C 0.2567 0.99774 0.24227 0.0
C2650 C 0.24633 0.98458 0.23081 0.0
C2651 C 0.23621 0.98211 0.185 0.0
C2652 C 0.23641 0.9928 0.1507 0.0
C2653 C 0.25876 0.03722 0.84 0.0
C2654 C 0.24811 0.02663 0.80492 0.0
C2655 C 0.2587 0.03756 0.90941 0.0
C2656 C 0.24797 0.02738 0.94554 0.0
C2657 C 0.23747 0.01663 0.91083 0.0
C2658 C 0.23751 0.01628 0.84134 0.0
C2659 C 0.24763 0.02799 0.01941 0.0
C2660 C 0.24665 0.01718 0.05657 0.0
C2661 C 0.24868 0.0393 0.05328 0.0
C2662 C 0.24928 0.05085 0.01733 0.0
C2663 C 0.2391 0.04889 0.97225 0.0
C2664 C 0.2398 0.05983 0.93818 0.0
C2665 C 0.25058 0.0728 0.94913 0.0
C2666 C 0.26068 0.07486 0.99432 0.0
C2667 C 0.26003 0.06395 0.02847 0.0
H2668 H 0.25111 0.08125 0.92271 0.0
H2669 H 0.24615 0.9763 0.25734 0.0
H2670 H 0.05256 0.81407 0.64381 0.0
H2671 H 0.05221 0.81358 0.7652 0.0
H2672 H 0.01133 0.80584 0.76395 0.0
H2673 H 0.01161 0.80643 0.64309 0.0
H2674 H 0.02602 0.82453 0.85472 0.0
H2675 H 0.01818 0.78063 0.79559 0.0
H2676 H 0.023 0.7644 0.73944 0.0
H2677 H 0.06084 0.78092 0.84158 0.0
H2678 H 0.05631 0.79737 0.89774 0.0
H2679 H 0.01103 0.80618 0.19425 0.0
H2680 H 0.0108 0.80605 0.07297 0.0
H2681 H 0.05071 0.81116 0.07069 0.0
H2682 H 0.05088 0.8109 0.19145 0.0
H2683 H 0.03622 0.79362 0.98101 0.0
H2684 H 0.04419 0.83774 0.03937 0.0
H2685 H 0.03945 0.85413 0.09442 0.0
H2686 H 1.00151 0.83741 0.99305 0.0
H2687 H 1.00596 0.8208 0.938 0.0
C2688 C 0.04349 0.81227 0.66931 0.0
C2689 C 0.0321 0.81025 0.63343 0.0
C2690 C 0.04329 0.81194 0.73879 0.0
C2691 C 0.03169 0.80954 0.77383 0.0
C2692 C 0.02039 0.80769 0.73813 0.0
C2693 C 0.02056 0.80799 0.66883 0.0
C2694 C 0.03129 0.809 0.84765 0.0
C2695 C 0.02809 0.81766 0.88233 0.0
C2696 C 0.03424 0.80023 0.88385 0.0
C2697 C 0.03696 0.79032 0.85036 0.0
C2698 C 0.02757 0.78087 0.80569 0.0
C2699 C 0.03024 0.77162 0.77394 0.0
C2700 C 0.04223 0.77165 0.7868 0.0
C2701 C 0.05156 0.78092 0.8316 0.0
C2702 C 0.04894 0.7902 0.86346 0.0
C2703 C 0.01975 0.80724 0.168 0.0
C2704 C 0.03099 0.80858 0.20293 0.0
C2705 C 0.01964 0.80725 0.09849 0.0
C2706 C 0.03083 0.80881 0.06235 0.0
C2707 C 0.04196 0.80996 0.09718 0.0
C2708 C 0.04204 0.80984 0.16651 0.0
C2709 C 0.03102 0.80921 0.98836 0.0
C2710 C 0.03416 0.80052 0.95354 0.0
C2711 C 0.02803 0.81797 0.95202 0.0
C2712 C 0.02535 0.82794 0.98512 0.0
C2713 C 0.03479 0.83749 0.02922 0.0
C2714 C 0.03217 0.84683 0.06034 0.0
C2715 C 0.02017 0.84679 0.04738 0.0
C2716 C 0.01079 0.83742 1.00313 0.0
C2717 C 0.01336 0.82805 0.97191 0.0
H2718 H 0.01816 0.85403 0.07152 0.0
H2719 H 0.04428 0.76448 0.76217 0.0
H2720 H 0.23954 0.22101 0.19242 0.0
H2721 H 0.23984 0.22111 0.07115 0.0
H2722 H 0.25341 0.26361 0.07142 0.0
H2723 H 0.25274 0.26351 0.19218 0.0
H2724 H 0.23455 0.25201 0.98538 0.0
H2725 H 0.27457 0.25006 0.03322 0.0
H2726 H 0.28789 0.24088 0.08356 0.0
H2727 H 0.26387 0.20343 0.98156 0.0
H2728 H 0.25029 0.21233 0.93126 0.0
H2729 H 0.24937 0.26296 0.64051 0.0
H2730 H 0.25064 0.26363 0.76165 0.0
H2731 H 0.23931 0.22164 0.76465 0.0
H2732 H 0.23887 0.2212 0.6437 0.0
H2733 H 0.25744 0.23332 0.84983 0.0
H2734 H 0.21706 0.23584 0.80333 0.0
H2735 H 0.20377 0.24551 0.75772 0.0
H2736 H 0.22909 0.28269 0.85943 0.0
H2737 H 0.24262 0.27331 0.90487 0.0
C2738 C 0.24268 0.2304 0.16669 0.0
C2739 C 0.24611 0.24225 0.20225 0.0
C2740 C 0.24291 0.23046 0.0972 0.0
C2741 C 0.2468 0.24241 0.06179 0.0
C2742 C 0.25036 0.25425 0.09735 0.0
C2743 C 0.24999 0.25418 0.16662 0.0
C2744 C 0.2467 0.24256 0.98781 0.0
C2745 C 0.23971 0.24807 0.95575 0.0
C2746 C 0.25317 0.23717 0.94885 0.0
C2747 C 0.26133 0.23182 0.97899 0.0
C2748 C 0.27206 0.23983 0.02192 0.0
C2749 C 0.27967 0.23469 0.05037 0.0
C2750 C 0.2767 0.22157 0.0359 0.0
C2751 C 0.26614 0.21358 0.9928 0.0
C2752 C 0.2585 0.21868 0.96426 0.0
C2753 C 0.2471 0.25387 0.66715 0.0
C2754 C 0.24395 0.24201 0.63259 0.0
C2755 C 0.24774 0.25423 0.73657 0.0
C2756 C 0.24478 0.2426 0.77301 0.0
C2757 C 0.24163 0.23076 0.73818 0.0
C2758 C 0.24134 0.2305 0.66887 0.0
C2759 C 0.24519 0.24271 0.84712 0.0
C2760 C 0.25225 0.23725 0.87932 0.0
C2761 C 0.23883 0.24821 0.88631 0.0
C2762 C 0.2309 0.2539 0.85711 0.0
C2763 C 0.21986 0.24611 0.81543 0.0
C2764 C 0.21227 0.25154 0.78971 0.0
C2765 C 0.21559 0.2647 0.80583 0.0
C2766 C 0.22654 0.2725 0.84711 0.0
C2767 C 0.23416 0.26714 0.87283 0.0
H2768 H 0.20965 0.26888 0.7868 0.0
H2769 H 0.28261 0.21761 0.05797 0.0
H2770 H 0.79686 1.00248 0.18364 0.0
H2771 H 0.79726 1.00278 0.06261 0.0
H2772 H 0.82662 0.04512 0.06504 0.0
H2773 H 0.82637 0.04492 0.1867 0.0
H2774 H 0.80524 0.03826 0.97541 0.0
H2775 H 0.83686 0.02381 0.02843 0.0
H2776 H 0.84465 0.00971 0.083 0.0
H2777 H 0.81336 0.97462 0.98628 0.0
H2778 H 0.80525 0.9885 0.93183 0.0
H2779 H 0.82327 0.0447 0.63587 0.0
H2780 H 0.82306 0.04474 0.75672 0.0
H2781 H 0.79774 1.00156 0.75742 0.0
H2782 H 0.79806 1.00139 0.63597 0.0
H2783 H 0.81736 0.00902 0.8461 0.0
H2784 H 0.78342 0.0214 0.80956 0.0
H2785 H 0.77329 0.03398 0.76094 0.0
H2786 H 0.80722 0.07124 0.82487 0.0
H2787 H 0.81731 0.05878 0.87626 0.0
C2788 C 0.80341 0.01189 0.15866 0.0
C2789 C 0.8116 0.02369 0.19512 0.0
C2790 C 0.80366 0.01201 0.08932 0.0
C2791 C 0.81204 0.02394 0.0547 0.0
C2792 C 0.8201 0.03579 0.09075 0.0
C2793 C 0.81998 0.03565 0.1603 0.0
C2794 C 0.81221 0.024 0.98089 0.0
C2795 C 0.80812 0.03204 0.94715 0.0
C2796 C 0.81551 0.01555 0.94392 0.0
C2797 C 0.82037 0.00718 0.97654 0.0
C2798 C 0.83157 0.01307 0.01924 0.0
C2799 C 0.83605 1.00512 0.05007 0.0
C2800 C 0.82948 0.99127 0.03825 0.0
C2801 C 0.81843 0.98535 0.99545 0.0
C2802 C 0.81389 0.99325 0.96455 0.0
C2803 C 0.81762 0.03518 0.66149 0.0
C2804 C 0.81068 0.02303 0.62587 0.0
C2805 C 0.81742 0.03524 0.73086 0.0
C2806 C 0.81024 0.02318 0.7665 0.0
C2807 C 0.80332 0.01101 0.73116 0.0
C2808 C 0.80349 0.01094 0.66161 0.0
C2809 C 0.81036 0.02327 0.84051 0.0
C2810 C 0.81452 0.01528 0.87432 0.0
C2811 C 0.80696 0.03162 0.87771 0.0
C2812 C 0.80117 0.0392 0.84594 0.0
C2813 C 0.78875 0.03229 0.81286 0.0
C2814 C 0.78299 0.03939 0.78507 0.0
C2815 C 0.7897 0.05342 0.78889 0.0
C2816 C 0.80207 0.06037 0.82162 0.0
C2817 C 0.80776 0.05329 0.85063 0.0
H2818 H 0.78526 0.0589 0.76686 0.0
H2819 H 0.83298 0.98513 0.06214 0.0
H2820 H 0.71382 0.57603 0.13898 0.0
H2821 H 0.71398 0.57638 0.26022 0.0
H2822 H 0.67515 0.57381 0.26067 0.0
H2823 H 0.67477 0.5732 0.13968 0.0
H2824 H 0.71339 0.5934 0.34982 0.0
H2825 H 0.65697 0.55586 0.39308 0.0
H2826 H 0.63807 0.53644 0.3375 0.0
H2827 H 0.66582 0.52733 0.23946 0.0
H2828 H 0.68487 0.54659 0.29509 0.0
H2829 H 0.67429 0.57297 0.68751 0.0
H2830 H 0.67483 0.57363 0.56653 0.0
H2831 H 0.71412 0.57723 0.56848 0.0
H2832 H 0.71378 0.57682 0.68964 0.0
H2833 H 0.67581 0.5572 0.47803 0.0
H2834 H 0.73234 0.59541 0.43516 0.0
H2835 H 0.75096 0.61519 0.49007 0.0
H2836 H 0.72258 0.62344 0.58767 0.0
H2837 H 0.7038 0.60381 0.53274 0.0
C2838 C 0.70529 0.57551 0.16476 0.0
C2839 C 0.69424 0.57449 0.12929 0.0
C2840 C 0.70543 0.57577 0.23421 0.0
C2841 C 0.69451 0.57495 0.26978 0.0
C2842 C 0.68359 0.5742 0.2345 0.0
C2843 C 0.68342 0.5739 0.16513 0.0
C2844 C 0.6945 0.5748 0.3437 0.0
C2845 C 0.70526 0.58539 0.37786 0.0
C2846 C 0.68374 0.56453 0.38049 0.0
C2847 C 0.67235 0.55275 0.34777 0.0
C2848 C 0.65903 0.54967 0.35989 0.0
C2849 C 0.64829 0.5387 0.32833 0.0
C2850 C 0.65074 0.53069 0.28479 0.0
C2851 C 0.66394 0.53358 0.27299 0.0
C2852 C 0.67471 0.54453 0.30447 0.0
C2853 C 0.6831 0.57397 0.66238 0.0
C2854 C 0.69402 0.57488 0.69859 0.0
C2855 C 0.68337 0.57431 0.59303 0.0
C2856 C 0.69456 0.57561 0.55817 0.0
C2857 C 0.70546 0.57645 0.59413 0.0
C2858 C 0.70522 0.57615 0.66355 0.0
C2859 C 0.69469 0.57582 0.48427 0.0
C2860 C 0.68395 0.56522 0.45007 0.0
C2861 C 0.70543 0.58612 0.44753 0.0
C2862 C 0.71666 0.59805 0.48032 0.0
C2863 C 0.73008 0.60147 0.46816 0.0
C2864 C 0.74066 0.61265 0.49933 0.0
C2865 C 0.73795 0.62054 0.54251 0.0
C2866 C 0.72466 0.61729 0.55443 0.0
C2867 C 0.71404 0.60612 0.52337 0.0
H2868 H 0.74615 0.62918 0.56666 0.0
H2869 H 0.64242 0.52222 0.26029 0.0
H2870 H 0.48034 0.12067 0.69475 0.0
H2871 H 0.47999 0.12094 0.57362 0.0
H2872 H 0.47816 0.15757 0.57777 0.0
H2873 H 0.47824 0.15726 0.69877 0.0
H2874 H 0.46131 0.14076 0.48659 0.0
H2875 H 0.50775 0.15802 0.54316 0.0
H2876 H 0.5267 0.15772 0.5993 0.0
H2877 H 0.51736 0.12111 0.49825 0.0
H2878 H 0.49824 0.1211 0.4421 0.0
H2879 H 0.47876 0.15877 0.14791 0.0
H2880 H 0.4784 0.15851 0.2691 0.0
H2881 H 0.48077 0.12216 0.2687 0.0
H2882 H 0.48139 0.12247 0.14775 0.0
H2883 H 0.4974 0.13912 0.35838 0.0
H2884 H 0.45088 0.122 0.30139 0.0
H2885 H 0.43177 0.12227 0.24685 0.0
H2886 H 0.44122 0.15877 0.34937 0.0
H2887 H 0.4605 0.15881 0.40389 0.0
C2888 C 0.47983 0.12878 0.67002 0.0
C2889 C 0.47939 0.13898 0.70674 0.0
C2890 C 0.47969 0.12894 0.60064 0.0
C2891 C 0.47923 0.13938 0.56644 0.0
C2892 C 0.47854 0.14943 0.60295 0.0
C2893 C 0.47864 0.14925 0.67229 0.0
C2894 C 0.47961 0.13989 0.49265 0.0
C2895 C 0.46929 0.14058 0.45855 0.0
C2896 C 0.48989 0.13941 0.45592 0.0
C2897 C 0.5015 0.1395 0.48885 0.0
C2898 C 0.50969 0.14986 0.53319 0.0
C2899 C 0.52047 0.14976 0.56498 0.0
C2900 C 0.52321 0.13939 0.55246 0.0
C2901 C 0.51521 0.12913 0.50794 0.0
C2902 C 0.50442 0.12918 0.47605 0.0
C2903 C 0.47919 0.1507 0.17349 0.0
C2904 C 0.48008 0.14062 0.13777 0.0
C2905 C 0.47892 0.15053 0.24293 0.0
C2906 C 0.47939 0.14022 0.27823 0.0
C2907 C 0.48038 0.13022 0.24271 0.0
C2908 C 0.4807 0.1304 0.17337 0.0
C2909 C 0.47905 0.13991 0.3521 0.0
C2910 C 0.4894 0.1393 0.3863 0.0
C2911 C 0.46881 0.14049 0.38888 0.0
C2912 C 0.45722 0.14048 0.35618 0.0
C2913 C 0.44895 0.13014 0.3119 0.0
C2914 C 0.43808 0.13023 0.28107 0.0
C2915 C 0.43531 0.14055 0.29449 0.0
C2916 C 0.44339 0.15079 0.33893 0.0
C2917 C 0.45428 0.15076 0.36985 0.0
H2918 H 0.42688 0.1406 0.27056 0.0
H2919 H 0.53156 0.13931 0.57717 0.0
H2920 H 0.89252 0.34554 0.16102 0.0
H2921 H 0.8925 0.34563 0.28245 0.0
H2922 H 0.93507 0.37432 0.28285 0.0
H2923 H 0.9352 0.37429 0.16174 0.0
H2924 H 0.92873 0.35447 0.37314 0.0
H2925 H 0.9128 0.38454 0.31432 0.0
H2926 H 0.89819 0.39157 0.2586 0.0
H2927 H 0.86367 0.36037 0.35924 0.0
H2928 H 0.87806 0.35302 0.41488 0.0
H2929 H 0.93437 0.37711 0.71081 0.0
H2930 H 0.93458 0.37649 0.58904 0.0
H2931 H 0.89301 0.3449 0.58912 0.0
H2932 H 0.89281 0.34524 0.71043 0.0
H2933 H 0.89882 0.36619 0.49907 0.0
H2934 H 0.91465 0.33607 0.55736 0.0
H2935 H 0.92902 0.32829 0.60922 0.0
H2936 H 0.96364 0.35944 0.50895 0.0
H2937 H 0.9495 0.36752 0.45709 0.0
C2938 C 0.9019 0.35183 0.18687 0.0
C2939 C 0.91385 0.35994 0.1514 0.0
C2940 C 0.90185 0.35192 0.25637 0.0
C2941 C 0.91376 0.36009 0.29189 0.0
C2942 C 0.92575 0.36796 0.25663 0.0
C2943 C 0.92579 0.36796 0.18724 0.0
C2944 C 0.91375 0.36049 0.36575 0.0
C2945 C 0.92233 0.35722 0.40064 0.0
C2946 C 0.90519 0.36379 0.4018 0.0
C2947 C 0.89649 0.36813 0.36818 0.0
C2948 C 0.90208 0.37909 0.32409 0.0
C2949 C 0.89384 0.38315 0.29262 0.0
C2950 C 0.88 0.3764 0.30522 0.0
C2951 C 0.87438 0.36558 0.34943 0.0
C2952 C 0.88258 0.36146 0.38098 0.0
C2953 C 0.92528 0.37006 0.68482 0.0
C2954 C 0.91358 0.36122 0.72024 0.0
C2955 C 0.92543 0.36967 0.61532 0.0
C2956 C 0.91382 0.3606 0.58003 0.0
C2957 C 0.90208 0.35195 0.61531 0.0
C2958 C 0.902 0.35214 0.68466 0.0
C2959 C 0.91383 0.36021 0.50632 0.0
C2960 C 0.90525 0.36348 0.47151 0.0
C2961 C 0.9224 0.35693 0.47036 0.0
C2962 C 0.93104 0.3525 0.5039 0.0
C2963 C 0.92536 0.34139 0.54708 0.0
C2964 C 0.93345 0.33687 0.57618 0.0
C2965 C 0.94722 0.34334 0.56218 0.0
C2966 C 0.95296 0.35442 0.5196 0.0
C2967 C 0.94491 0.35897 0.49034 0.0
H2968 H 0.95345 0.33977 0.58432 0.0
H2969 H 0.87364 0.37957 0.28085 0.0
H2970 H 0.67933 0.14144 0.993 0.0
H2971 H 0.67901 0.14115 0.11409 0.0
H2972 H 0.71812 0.14434 0.11644 0.0
H2973 H 0.71846 0.14445 0.99529 0.0
H2974 H 0.70164 0.126 0.20448 0.0
H2975 H 0.71444 0.1716 0.15051 0.0
H2976 H 0.71216 0.18951 0.09503 0.0
H2977 H 0.67409 0.17596 0.19114 0.0
H2978 H 0.67606 0.15785 0.24656 0.0
H2979 H 0.71753 0.1438 0.54292 0.0
H2980 H 0.71742 0.14371 0.42187 0.0
H2981 H 0.67848 0.14093 0.42212 0.0
H2982 H 0.67859 0.14121 0.54335 0.0
H2983 H 0.69464 0.15893 0.33262 0.0
H2984 H 0.6819 0.11341 0.38711 0.0
H2985 H 0.68406 0.09537 0.44178 0.0
H2986 H 0.72194 0.10865 0.34419 0.0
H2987 H 0.72009 0.1269 0.28957 0.0
C2988 C 0.68788 0.14207 0.01912 0.0
C2989 C 0.69895 0.14303 0.98416 0.0
C2990 C 0.6877 0.14196 0.08851 0.0
C2991 C 0.69862 0.14289 0.12452 0.0
C2992 C 0.7096 0.14365 0.08979 0.0
C2993 C 0.70979 0.14376 0.02041 0.0
C2994 C 0.69858 0.14302 0.19835 0.0
C2995 C 0.70029 0.13332 0.23249 0.0
C2996 C 0.6965 0.15235 0.23504 0.0
C2997 C 0.69534 0.1633 0.2022 0.0
C2998 C 0.70554 0.17239 0.15946 0.0
C2999 C 0.70431 0.18258 0.12808 0.0
C3000 C 0.69297 0.18385 0.13943 0.0
C3001 C 0.68286 0.17495 0.18234 0.0
C3002 C 0.68403 0.16473 0.21381 0.0
C3003 C 0.70891 0.14314 0.5174 0.0
C3004 C 0.69804 0.14245 0.55316 0.0
C3005 C 0.70884 0.14304 0.44801 0.0
C3006 C 0.69787 0.14214 0.4127 0.0
C3007 C 0.68705 0.14159 0.44819 0.0
C3008 C 0.68711 0.14169 0.51762 0.0
C3009 C 0.69773 0.14192 0.33882 0.0
C3010 C 0.69598 0.15161 0.30464 0.0
C3011 C 0.69978 0.13257 0.30208 0.0
C3012 C 0.70091 0.1216 0.33476 0.0
C3013 C 0.69074 0.11255 0.37771 0.0
C3014 C 0.6919 0.10228 0.40861 0.0
C3015 C 0.70315 0.10089 0.3966 0.0
C3016 C 0.71325 0.10975 0.35351 0.0
C3017 C 0.71214 0.12005 0.32252 0.0
H3018 H 0.70403 0.09293 0.42057 0.0
H3019 H 0.69204 0.19175 0.11508 0.0
H3020 H 0.91723 0.59689 0.98587 0.0
H3021 H 0.91784 0.59681 0.10708 0.0
H3022 H 0.90929 0.5557 0.10468 0.0
H3023 H 0.90866 0.55567 0.98344 0.0
H3024 H 0.89369 0.55946 0.19474 0.0
H3025 H 0.94036 0.58027 0.13975 0.0
H3026 H 0.96161 0.59657 0.08531 0.0
H3027 H 0.96047 0.62914 0.18419 0.0
H3028 H 0.93911 0.61304 0.2386 0.0
H3029 H 0.90867 0.55548 0.53345 0.0
H3030 H 0.90917 0.55571 0.41225 0.0
H3031 H 0.91713 0.59662 0.41242 0.0
H3032 H 0.91666 0.59651 0.53376 0.0
H3033 H 0.93326 0.59286 0.32343 0.0
H3034 H 0.88618 0.57155 0.37754 0.0
H3035 H 0.86512 0.55489 0.43209 0.0
H3036 H 0.86733 0.52279 0.33423 0.0
H3037 H 0.88852 0.53926 0.27977 0.0
C3038 C 0.9155 0.58783 0.01101 0.0
C3039 C 0.91292 0.57629 0.97474 0.0
C3040 C 0.91591 0.58782 0.08039 0.0
C3041 C 0.91371 0.57628 0.11504 0.0
C3042 C 0.91104 0.56473 0.07903 0.0
C3043 C 0.91074 0.56476 0.00964 0.0
C3044 C 0.91395 0.57619 0.18883 0.0
C3045 C 0.90242 0.56665 0.22285 0.0
C3046 C 0.92524 0.58573 0.2256 0.0
C3047 C 0.93805 0.59546 0.19274 0.0
C3048 C 0.94457 0.59092 0.14942 0.0
C3049 C 0.95665 0.60012 0.11867 0.0
C3050 C 0.96237 0.61388 0.13115 0.0
C3051 C 0.95602 0.61847 0.17451 0.0
C3052 C 0.94393 0.60932 0.20537 0.0
C3053 C 0.91056 0.56455 0.50786 0.0
C3054 C 0.91258 0.57596 0.54357 0.0
C3055 C 0.9108 0.56464 0.43845 0.0
C3056 C 0.91308 0.57615 0.40313 0.0
C3057 C 0.91533 0.58763 0.43857 0.0
C3058 C 0.915 0.58752 0.508 0.0
C3059 C 0.91299 0.57615 0.32928 0.0
C3060 C 0.92455 0.58568 0.29527 0.0
C3061 C 0.90175 0.56655 0.29245 0.0
C3062 C 0.88901 0.55663 0.32513 0.0
C3063 C 0.88224 0.56093 0.3681 0.0
C3064 C 0.87027 0.55152 0.39892 0.0
C3065 C 0.86491 0.53779 0.38678 0.0
C3066 C 0.8715 0.53344 0.34367 0.0
C3067 C 0.88349 0.5428 0.31277 0.0
H3068 H 0.85564 0.53052 0.41066 0.0
H3069 H 0.97172 0.62098 0.10732 0.0
H3070 H 0.49498 0.37323 0.98765 0.0
H3071 H 0.49484 0.37294 0.10853 0.0
H3072 H 0.45965 0.33334 0.10692 0.0
H3073 H 0.45961 0.33357 0.98556 0.0
H3074 H 0.45702 0.34927 0.19682 0.0
H3075 H 0.49043 0.3375 0.14385 0.0
H3076 H 0.51071 0.33997 0.08842 0.0
H3077 H 0.53489 0.37816 0.18394 0.0
H3078 H 0.51471 0.376 0.2393 0.0
H3079 H 0.45949 0.33484 0.53674 0.0
H3080 H 0.45965 0.33453 0.41594 0.0
H3081 H 0.49497 0.37403 0.41409 0.0
H3082 H 0.49504 0.37437 0.53551 0.0
H3083 H 0.4974 0.35779 0.32569 0.0
H3084 H 0.46339 0.36924 0.37811 0.0
H3085 H 0.44282 0.36629 0.43259 0.0
H3086 H 0.41946 0.32793 0.33742 0.0
H3087 H 0.43993 0.33056 0.283 0.0
C3088 C 0.4872 0.36441 0.01273 0.0
C3089 C 0.47731 0.3534 0.97645 0.0
C3090 C 0.48717 0.36425 0.08209 0.0
C3091 C 0.47732 0.35306 0.11705 0.0
C3092 C 0.46738 0.34208 0.08113 0.0
C3093 C 0.4674 0.34222 0.01162 0.0
C3094 C 0.47733 0.35293 0.19101 0.0
C3095 C 0.46579 0.35094 0.22499 0.0
C3096 C 0.48884 0.35536 0.22795 0.0
C3097 C 0.50103 0.35664 0.19529 0.0
C3098 C 0.50005 0.34647 0.15271 0.0
C3099 C 0.51154 0.34781 0.12134 0.0
C3100 C 0.52408 0.35923 0.13254 0.0
C3101 C 0.52517 0.36932 0.17528 0.0
C3102 C 0.51371 0.36804 0.20673 0.0
C3103 C 0.46732 0.34351 0.51094 0.0
C3104 C 0.47723 0.35467 0.54631 0.0
C3105 C 0.46734 0.34333 0.44157 0.0
C3106 C 0.47721 0.35433 0.4056 0.0
C3107 C 0.48722 0.36543 0.44062 0.0
C3108 C 0.48721 0.36563 0.51017 0.0
C3109 C 0.4771 0.35419 0.33158 0.0
C3110 C 0.48863 0.35612 0.29755 0.0
C3111 C 0.46554 0.35161 0.29458 0.0
C3112 C 0.45321 0.35005 0.32697 0.0
C3113 C 0.45388 0.36013 0.36917 0.0
C3114 C 0.44224 0.35852 0.39997 0.0
C3115 C 0.42985 0.34692 0.3886 0.0
C3116 C 0.42907 0.33691 0.34624 0.0
C3117 C 0.44068 0.33846 0.31535 0.0
H3118 H 0.42085 0.34569 0.41251 0.0
H3119 H 0.53296 0.36025 0.10819 0.0
H3120 H 0.37725 0.90371 0.47967 0.0
H3121 H 0.37717 0.90369 0.60119 0.0
H3122 H 0.34459 0.91223 0.6013 0.0
H3123 H 0.34441 0.91201 0.47971 0.0
H3124 H 0.36648 0.92854 0.69143 0.0
H3125 H 0.33674 0.88214 0.63347 0.0
H3126 H 0.33031 0.8607 0.5769 0.0
H3127 H 0.36254 0.85869 0.67442 0.0
H3128 H 0.3693 0.88025 0.73082 0.0
H3129 H 0.34563 0.9136 0.02814 0.0
H3130 H 0.34622 0.91412 0.90687 0.0
H3131 H 0.37535 0.9008 0.90787 0.0
H3132 H 0.37486 0.90027 0.02912 0.0
H3133 H 0.35554 0.88709 0.81672 0.0
H3134 H 0.38556 0.93278 0.8748 0.0
H3135 H 0.39308 0.9545 0.9309 0.0
H3136 H 0.36186 0.95832 0.83351 0.0
H3137 H 0.35403 0.93652 0.77747 0.0
C3138 C 0.37008 0.90562 0.50551 0.0
C3139 C 0.3608 0.90783 0.46999 0.0
C3140 C 0.37004 0.90557 0.57495 0.0
C3141 C 0.36085 0.90791 0.61027 0.0
C3142 C 0.35176 0.91039 0.57501 0.0
C3143 C 0.35163 0.9102 0.50555 0.0
C3144 C 0.36061 0.9076 0.68398 0.0
C3145 C 0.36391 0.91944 0.7189 0.0
C3146 C 0.35765 0.89582 0.71974 0.0
C3147 C 0.35363 0.88289 0.68574 0.0
C3148 C 0.34255 0.8772 0.64232 0.0
C3149 C 0.33882 0.86501 0.6104 0.0
C3150 C 0.34604 0.85836 0.62189 0.0
C3151 C 0.35698 0.86387 0.66546 0.0
C3152 C 0.36076 0.87607 0.69744 0.0
C3153 C 0.35215 0.91075 1.00266 0.0
C3154 C 0.36022 0.90692 0.03855 0.0
C3155 C 0.35252 0.91112 0.93326 0.0
C3156 C 0.36091 0.9076 0.8982 0.0
C3157 C 0.36882 0.90358 0.93381 0.0
C3158 C 0.36856 0.90334 1.00322 0.0
C3159 C 0.36135 0.90803 0.82441 0.0
C3160 C 0.35811 0.8962 0.7894 0.0
C3161 C 0.36451 0.91986 0.7886 0.0
C3162 C 0.36911 0.93294 0.8225 0.0
C3163 C 0.38021 0.93818 0.86584 0.0
C3164 C 0.38455 0.95052 0.89752 0.0
C3165 C 0.37793 0.95776 0.88593 0.0
C3166 C 0.36697 0.95269 0.84252 0.0
C3167 C 0.36258 0.94034 0.81074 0.0
H3168 H 0.38131 0.96732 0.91044 0.0
H3169 H 0.34313 0.84891 0.59718 0.0
H3170 H 0.15822 0.46357 0.02739 0.0
H3171 H 0.15814 0.4641 0.906 0.0
H3172 H 0.13614 0.48549 0.91096 0.0
H3173 H 0.13633 0.48517 0.03247 0.0
H3174 H 0.12558 0.46434 0.81971 0.0
H3175 H 0.16768 0.50235 0.87482 0.0
H3176 H 0.18999 0.51544 0.92704 0.0
H3177 H 0.20358 0.49148 0.82565 0.0
H3178 H 0.18123 0.47804 0.77382 0.0
H3179 H 0.13661 0.48606 0.48011 0.0
H3180 H 0.13649 0.48596 0.60166 0.0
H3181 H 0.15672 0.46282 0.60209 0.0
H3182 H 0.15671 0.46269 0.48066 0.0
H3183 H 0.16811 0.4853 0.69046 0.0
H3184 H 0.12505 0.44714 0.63614 0.0
H3185 H 0.10289 0.43542 0.5812 0.0
H3186 H 0.09131 0.46125 0.68005 0.0
H3187 H 0.1135 0.47328 0.73482 0.0
C3188 C 0.15334 0.46837 1.00273 0.0
C3189 C 0.14729 0.47434 0.03974 0.0
C3190 C 0.15335 0.46871 0.93328 0.0
C3191 C 0.14719 0.47489 0.8993 0.0
C3192 C 0.14096 0.48068 0.93607 0.0
C3193 C 0.14113 0.48053 1.00555 0.0
C3194 C 0.14724 0.47528 0.82543 0.0
C3195 C 0.13489 0.46907 0.7915 0.0
C3196 C 0.15937 0.4813 0.78846 0.0
C3197 C 0.17271 0.48908 0.821 0.0
C3198 C 0.17536 0.49974 0.86432 0.0
C3199 C 0.18803 0.50726 0.89367 0.0
C3200 C 0.1982 0.50431 0.87955 0.0
C3201 C 0.1957 0.49378 0.83636 0.0
C3202 C 0.18302 0.48619 0.80709 0.0
C3203 C 0.14102 0.48093 0.50601 0.0
C3204 C 0.14663 0.47434 0.47051 0.0
C3205 C 0.14091 0.48085 0.57552 0.0
C3206 C 0.14655 0.47434 0.61101 0.0
C3207 C 0.1523 0.4679 0.57577 0.0
C3208 C 0.15222 0.46779 0.5063 0.0
C3209 C 0.14647 0.47425 0.68488 0.0
C3210 C 0.15882 0.48054 0.71877 0.0
C3211 C 0.13435 0.46842 0.7218 0.0
C3212 C 0.121 0.46121 0.68898 0.0
C3213 C 0.11783 0.45041 0.64566 0.0
C3214 C 0.10525 0.4437 0.61465 0.0
C3215 C 0.09571 0.44762 0.62695 0.0
C3216 C 0.09872 0.45824 0.67046 0.0
C3217 C 0.1113 0.46501 0.70152 0.0
H3218 H 0.08597 0.4424 0.60291 0.0
H3219 H 0.20802 0.51016 0.90223 0.0
H3220 H 0.60074 0.71091 0.03243 0.0
H3221 H 0.60099 0.7107 0.91132 0.0
H3222 H 0.55847 0.68162 0.90987 0.0
H3223 H 0.55837 0.68127 0.03085 0.0
H3224 H 0.56946 0.67409 0.82537 0.0
H3225 H 0.57319 0.71847 0.85573 0.0
H3226 H 0.58334 0.74184 0.8968 0.0
H3227 H 0.62195 0.75049 0.82288 0.0
H3228 H 0.61194 0.72737 0.77889 0.0
H3229 H 0.55855 0.67837 0.48059 0.0
H3230 H 0.55838 0.67885 0.60182 0.0
H3231 H 0.60098 0.70763 0.60219 0.0
H3232 H 0.60104 0.70767 0.48128 0.0
H3233 H 0.59015 0.7153 0.68712 0.0
H3234 H 0.58615 0.6722 0.64457 0.0
H3235 H 0.57617 0.64945 0.59619 0.0
H3236 H 0.53876 0.63799 0.69476 0.0
H3237 H 0.54846 0.66072 0.74309 0.0
C3238 C 0.59142 0.70457 1.00626 0.0
C3239 C 0.57954 0.69611 0.04141 0.0
C3240 C 0.59153 0.70453 0.93674 0.0
C3241 C 0.57968 0.69632 0.90069 0.0
C3242 C 0.56777 0.68805 0.93603 0.0
C3243 C 0.56772 0.68787 1.00541 0.0
C3244 C 0.57974 0.69578 0.82654 0.0
C3245 C 0.57381 0.68313 0.79523 0.0
C3246 C 0.5858 0.70748 0.78652 0.0
C3247 C 0.59186 0.72119 0.81482 0.0
C3248 C 0.58386 0.72534 0.84871 0.0
C3249 C 0.58957 0.73854 0.87232 0.0
C3250 C 0.6033 0.74756 0.86346 0.0
C3251 C 0.61133 0.74348 0.83004 0.0
C3252 C 0.60563 0.73038 0.80524 0.0
C3253 C 0.5679 0.68473 0.50655 0.0
C3254 C 0.57981 0.69297 0.47114 0.0
C3255 C 0.56782 0.68495 0.57606 0.0
C3256 C 0.57972 0.69312 0.61177 0.0
C3257 C 0.59164 0.70124 0.57623 0.0
C3258 C 0.59167 0.70123 0.50688 0.0
C3259 C 0.57977 0.69362 0.68589 0.0
C3260 C 0.58576 0.70625 0.71719 0.0
C3261 C 0.57383 0.68188 0.72581 0.0
C3262 C 0.568 0.6682 0.69694 0.0
C3263 C 0.57577 0.66485 0.65557 0.0
C3264 C 0.57017 0.65196 0.62821 0.0
C3265 C 0.55683 0.64229 0.64226 0.0
C3266 C 0.54908 0.64549 0.68385 0.0
C3267 C 0.55463 0.65837 0.71129 0.0
H3268 H 0.55251 0.63232 0.62102 0.0
H3269 H 0.60769 0.75775 0.88204 0.0
H3270 H 0.3417 0.46576 0.87269 0.0
H3271 H 0.34142 0.4651 0.75125 0.0
H3272 H 0.38461 0.48293 0.74883 0.0
H3273 H 0.38499 0.4835 0.8702 0.0
H3274 H 0.37529 0.49499 0.65898 0.0
H3275 H 0.36609 0.45076 0.71829 0.0
H3276 H 0.35418 0.42876 0.77444 0.0
H3277 H 0.3175 0.41981 0.67515 0.0
H3278 H 0.32915 0.44187 0.61917 0.0
H3279 H 0.38497 0.4828 0.32433 0.0
H3280 H 0.38437 0.48255 0.44552 0.0
H3281 H 0.34109 0.46379 0.44097 0.0
H3282 H 0.34159 0.46404 0.3194 0.0
H3283 H 0.34996 0.45217 0.53415 0.0
H3284 H 0.3589 0.49616 0.47482 0.0
H3285 H 0.37065 0.51805 0.41751 0.0
H3286 H 0.4075 0.5274 0.51622 0.0
H3287 H 0.39601 0.50547 0.57343 0.0
C3288 C 0.35115 0.46955 0.8464 0.0
C3289 C 0.36337 0.47465 0.88137 0.0
C3290 C 0.35096 0.46911 0.77691 0.0
C3291 C 0.36299 0.4739 0.74084 0.0
C3292 C 0.37521 0.47917 0.77555 0.0
C3293 C 0.37539 0.47943 0.84502 0.0
C3294 C 0.36285 0.47347 0.66694 0.0
C3295 C 0.36989 0.48561 0.63173 0.0
C3296 C 0.35552 0.46127 0.63121 0.0
C3297 C 0.34846 0.44805 0.66522 0.0
C3298 C 0.35545 0.44417 0.709 0.0
C3299 C 0.34875 0.43168 0.74067 0.0
C3300 C 0.33508 0.42291 0.72856 0.0
C3301 C 0.32809 0.42662 0.68462 0.0
C3302 C 0.33473 0.43912 0.6529 0.0
C3303 C 0.3753 0.47856 0.34898 0.0
C3304 C 0.36333 0.47353 0.31204 0.0
C3305 C 0.37499 0.47848 0.41836 0.0
C3306 C 0.3627 0.47329 0.45245 0.0
C3307 C 0.35069 0.46791 0.41578 0.0
C3308 C 0.35101 0.46812 0.34628 0.0
C3309 C 0.36245 0.47368 0.52629 0.0
C3310 C 0.35533 0.46155 0.56145 0.0
C3311 C 0.36967 0.48589 0.56202 0.0
C3312 C 0.37662 0.49911 0.52789 0.0
C3313 C 0.36954 0.50283 0.48388 0.0
C3314 C 0.37615 0.51526 0.45149 0.0
C3315 C 0.38982 0.52409 0.46307 0.0
C3316 C 0.39691 0.52054 0.50722 0.0
C3317 C 0.39035 0.50811 0.53969 0.0
H3318 H 0.39492 0.53371 0.43796 0.0
H3319 H 0.32992 0.41323 0.75306 0.0
H3320 H 0.58845 0.93031 0.85534 0.0
H3321 H 0.58851 0.93018 0.73439 0.0
H3322 H 0.57005 0.88691 0.73512 0.0
H3323 H 0.57048 0.88703 0.85639 0.0
H3324 H 0.58794 0.89642 0.64239 0.0
H3325 H 0.55188 0.9042 0.70419 0.0
H3326 H 0.54153 0.91579 0.76158 0.0
H3327 H 0.56843 0.95257 0.66084 0.0
H3328 H 0.57903 0.94123 0.60341 0.0
H3329 H 0.56822 0.88653 0.30511 0.0
H3330 H 0.56822 0.88644 0.42619 0.0
H3331 H 0.58577 0.92964 0.42718 0.0
H3332 H 0.5849 0.9296 0.30572 0.0
H3333 H 0.5684 0.92004 0.51952 0.0
H3334 H 0.60356 0.911 0.45223 0.0
H3335 H 0.61258 0.89836 0.39305 0.0
H3336 H 0.58655 0.86292 0.505 0.0
H3337 H 0.57705 0.8752 0.56323 0.0
C3338 C 0.58443 0.92075 0.82985 0.0
C3339 C 0.57938 0.90867 0.86571 0.0
C3340 C 0.58439 0.92068 0.76049 0.0
C3341 C 0.57899 0.9085 0.72522 0.0
C3342 C 0.57422 0.89644 0.76095 0.0
C3343 C 0.57446 0.89653 0.83041 0.0
C3344 C 0.57829 0.90833 0.65127 0.0
C3345 C 0.58352 0.90145 0.61555 0.0
C3346 C 0.57276 0.9151 0.61585 0.0
C3347 C 0.56632 0.9219 0.64996 0.0
C3348 C 0.55563 0.91478 0.69458 0.0
C3349 C 0.54972 0.9213 0.72707 0.0
C3350 C 0.55434 0.93491 0.71498 0.0
C3351 C 0.56486 0.94202 0.67021 0.0
C3352 C 0.57082 0.93556 0.63762 0.0
C3353 C 0.57204 0.896 0.33126 0.0
C3354 C 0.57663 0.90809 0.2961 0.0
C3355 C 0.57214 0.89596 0.40058 0.0
C3356 C 0.57735 0.90807 0.43635 0.0
C3357 C 0.58175 0.92015 0.40106 0.0
C3358 C 0.58128 0.92014 0.33163 0.0
C3359 C 0.57811 0.90818 0.51034 0.0
C3360 C 0.57288 0.91504 0.54618 0.0
C3361 C 0.58356 0.9013 0.54579 0.0
C3362 C 0.58954 0.89403 0.5118 0.0
C3363 C 0.59974 0.90051 0.46403 0.0
C3364 C 0.60492 0.89341 0.43063 0.0
C3365 C 0.60018 0.87988 0.44544 0.0
C3366 C 0.59022 0.87341 0.4936 0.0
C3367 C 0.58491 0.88043 0.52672 0.0
H3368 H 0.60422 0.8744 0.41954 0.0
H3369 H 0.54975 0.93994 0.74021 0.0
H3370 H 0.15658 0.71082 0.31209 0.0
H3371 H 0.15654 0.71089 0.43288 0.0
H3372 H 0.13289 0.66754 0.43395 0.0
H3373 H 0.13257 0.66739 0.31251 0.0
H3374 H 0.12369 0.67763 0.5242 0.0
H3375 H 0.16772 0.68514 0.46678 0.0
H3376 H 0.18969 0.69669 0.40977 0.0
H3377 H 0.19925 0.7337 0.50732 0.0
H3378 H 0.17727 0.72241 0.56431 0.0
H3379 H 0.13236 0.66829 0.86213 0.0
H3380 H 0.13261 0.66826 0.74143 0.0
H3381 H 0.15844 0.71141 0.74109 0.0
H3382 H 0.15875 0.71141 0.8626 0.0
H3383 H 0.16654 0.70153 0.64988 0.0
H3384 H 0.12273 0.69444 0.70665 0.0
H3385 H 0.10065 0.68328 0.76271 0.0
H3386 H 0.0905 0.64606 0.66575 0.0
H3387 H 0.11259 0.65695 0.60971 0.0
C3388 C 0.15137 0.70126 0.3378 0.0
C3389 C 0.14465 0.68908 0.30233 0.0
C3390 C 0.15142 0.70133 0.40712 0.0
C3391 C 0.14494 0.68921 0.44282 0.0
C3392 C 0.13803 0.67703 0.40762 0.0
C3393 C 0.13787 0.67696 0.33811 0.0
C3394 C 0.14529 0.68928 0.51677 0.0
C3395 C 0.13307 0.6827 0.55167 0.0
C3396 C 0.1575 0.69621 0.55288 0.0
C3397 C 0.17081 0.70295 0.51941 0.0
C3398 C 0.17448 0.69576 0.4758 0.0
C3399 C 0.18694 0.70225 0.44352 0.0
C3400 C 0.19585 0.71592 0.45481 0.0
C3401 C 0.19234 0.72311 0.49859 0.0
C3402 C 0.17989 0.71667 0.53096 0.0
C3403 C 0.13808 0.67781 0.83651 0.0
C3404 C 0.14544 0.68988 0.87218 0.0
C3405 C 0.13815 0.67778 0.76722 0.0
C3406 C 0.14525 0.68987 0.73163 0.0
C3407 C 0.1528 0.70194 0.76715 0.0
C3408 C 0.15295 0.70194 0.8367 0.0
C3409 C 0.14492 0.68987 0.65755 0.0
C3410 C 0.15714 0.69646 0.62255 0.0
C3411 C 0.1327 0.68302 0.6213 0.0
C3412 C 0.11935 0.67649 0.65441 0.0
C3413 C 0.11582 0.68386 0.69757 0.0
C3414 C 0.1033 0.67758 0.7293 0.0
C3415 C 0.09419 0.66396 0.71791 0.0
C3416 C 0.09757 0.6566 0.67457 0.0
C3417 C 0.11008 0.66283 0.64274 0.0
H3418 H 0.08451 0.65912 0.74258 0.0
H3419 H 0.20548 0.72094 0.42972 0.0
loop_
_geom_bond_atom_site_label_1
_geom_bond_atom_site_label_2
_geom_bond_distance
_geom_bond_site_symmetry_2
_ccdc_geom_bond_type
Nd0 C2 2.836 . S
Nd0 O20 2.500 . S
Nd0 O21 2.492 . S
Nd0 O22 2.487 . S
Nd0 O23 2.682 . S
Nd0 O24 2.410 . S
Nd0 O29 2.414 . S
Nd0 O31 2.424 . S
Nd1 C11 2.836 1_455 S
Nd1 O23 2.414 . S
Nd1 O25 2.424 . S
Nd1 O26 2.500 1_455 S
Nd1 O27 2.508 . S
Nd1 O28 2.487 . S
Nd1 O29 2.682 . S
Nd1 O30 2.410 . S
C2 Nd0 2.836 . S
C2 C3 1.498 . S
C2 O20 1.258 . S
C2 O21 1.239 . S
C3 C2 1.498 . S
C3 C4 1.366 . S
C3 C8 1.407 . S
C4 C3 1.366 . S
C4 C5 1.392 . S
C4 H32 0.930 . S
C5 C4 1.392 . S
C5 C6 1.398 . S
C5 H33 0.929 . S
C6 C5 1.398 . S
C6 C7 1.352 . S
C7 C6 1.352 . S
C7 C8 1.384 . S
C7 H34 0.930 . S
C8 C3 1.407 . S
C8 C7 1.384 . S
C8 H35 0.929 . S
C9 O22 1.241 . S
C9 O23 1.273 . S
C10 O24 1.251 . S
C10 O25 1.268 . S
C11 Nd1 2.836 1_655 S
C11 C12 1.498 . S
C11 O26 1.258 . S
C11 O27 1.229 1_655 S
C12 C11 1.498 . S
C12 C13 1.366 . S
C12 C17 1.407 . S
C13 C12 1.366 . S
C13 C14 1.392 . S
C13 H36 0.930 . S
C14 C13 1.392 . S
C14 C15 1.398 . S
C14 H37 0.929 . S
C15 C14 1.398 . S
C15 C16 1.352 . S
C16 C15 1.352 . S
C16 C17 1.384 . S
C16 H38 0.930 . S
C17 C12 1.407 . S
C17 C16 1.384 . S
C17 H39 0.929 . S
C18 O28 1.241 . S
C18 O29 1.273 . S
C19 O30 1.251 . S
C19 O31 1.268 . S
O20 Nd0 2.500 . S
O20 C2 1.258 . S
O21 Nd0 2.492 . S
O21 C2 1.239 . S
O22 Nd0 2.487 . S
O22 C9 1.241 . S
O23 Nd0 2.682 . S
O23 Nd1 2.414 . S
O23 C9 1.273 . S
O24 Nd0 2.410 . S
O24 C10 1.251 . S
O25 Nd1 2.424 . S
O25 C10 1.268 . S
O26 Nd1 2.500 1_655 S
O26 C11 1.258 . S
O27 Nd1 2.508 . S
O27 C11 1.229 1_455 S
O28 Nd1 2.487 . S
O28 C18 1.241 . S
O29 Nd0 2.414 . S
O29 Nd1 2.682 . S
O29 C18 1.273 . S
O30 Nd1 2.410 . S
O30 C19 1.251 . S
O31 Nd0 2.424 . S
O31 C19 1.268 . S
H32 C4 0.930 . S
H33 C5 0.929 . S
H34 C7 0.930 . S
H35 C8 0.929 . S
H36 C13 0.930 . S
H37 C14 0.929 . S
H38 C16 0.930 . S
H39 C17 0.929 . S
Nd40 C42 2.836 . S
Nd40 O60 2.500 . S
Nd40 O61 2.492 . S
Nd40 O62 2.487 . S
Nd40 O63 2.682 . S
Nd40 O64 2.410 . S
Nd40 O69 2.414 . S
Nd40 O71 2.424 . S
Nd41 C51 2.836 . S
Nd41 O63 2.414 . S
Nd41 O65 2.424 . S
Nd41 O66 2.500 . S
Nd41 O67 2.492 . S
Nd41 O68 2.487 . S
Nd41 O69 2.682 . S
Nd41 O70 2.410 . S
C42 Nd40 2.836 . S
C42 C43 1.498 . S
C42 O60 1.258 . S
C42 O61 1.239 . S
C43 C42 1.498 . S
C43 C44 1.366 . S
C43 C48 1.407 . S
C44 C43 1.366 . S
C44 C45 1.392 . S
C44 H72 0.930 . S
C45 C44 1.392 . S
C45 C46 1.398 . S
C45 H73 0.929 . S
C46 C45 1.398 . S
C46 C47 1.352 . S
C47 C46 1.352 . S
C47 C48 1.384 . S
C47 H74 0.930 . S
C48 C43 1.407 . S
C48 C47 1.384 . S
C48 H75 0.929 . S
C49 O62 1.241 . S
C49 O63 1.273 . S
C50 O64 1.251 . S
C50 O65 1.268 . S
C51 Nd41 2.836 . S
C51 C52 1.498 . S
C51 O66 1.258 . S
C51 O67 1.239 . S
C52 C51 1.498 . S
C52 C53 1.366 . S
C52 C57 1.407 . S
C53 C52 1.366 . S
C53 C54 1.392 . S
C53 H76 0.930 . S
C54 C53 1.392 . S
C54 C55 1.398 . S
C54 H77 0.929 . S
C55 C54 1.398 . S
C55 C56 1.352 . S
C56 C55 1.352 . S
C56 C57 1.384 . S
C56 H78 0.930 . S
C57 C52 1.407 . S
C57 C56 1.384 . S
C57 H79 0.929 . S
C58 O68 1.241 . S
C58 O69 1.273 . S
C59 O70 1.251 . S
C59 O71 1.268 . S
O60 Nd40 2.500 . S
O60 C42 1.258 . S
O61 Nd40 2.492 . S
O61 C42 1.239 . S
O62 Nd40 2.487 . S
O62 C49 1.241 . S
O63 Nd40 2.682 . S
O63 Nd41 2.414 . S
O63 C49 1.273 . S
O64 Nd40 2.410 . S
O64 C50 1.251 . S
O65 Nd41 2.424 . S
O65 C50 1.268 . S
O66 Nd41 2.500 . S
O66 C51 1.258 . S
O67 Nd41 2.492 . S
O67 C51 1.239 . S
O68 Nd41 2.487 . S
O68 C58 1.241 . S
O69 Nd40 2.414 . S
O69 Nd41 2.682 . S
O69 C58 1.273 . S
O70 Nd41 2.410 . S
O70 C59 1.251 . S
O71 Nd40 2.424 . S
O71 C59 1.268 . S
H72 C44 0.930 . S
H73 C45 0.929 . S
H74 C47 0.930 . S
H75 C48 0.929 . S
H76 C53 0.930 . S
H77 C54 0.929 . S
H78 C56 0.930 . S
H79 C57 0.929 . S
Nd80 C82 2.836 1_545 S
Nd80 O100 2.500 1_545 S
Nd80 O101 2.492 1_545 S
Nd80 O102 2.487 . S
Nd80 O103 2.682 . S
Nd80 O104 2.410 . S
Nd80 O109 2.414 . S
Nd80 O111 2.424 . S
Nd81 C91 2.836 . S
Nd81 O103 2.414 . S
Nd81 O105 2.424 . S
Nd81 O106 2.500 . S
Nd81 O107 2.492 . S
Nd81 O108 2.487 . S
Nd81 O109 2.682 . S
Nd81 O110 2.410 . S
C82 Nd80 2.836 1_565 S
C82 C83 1.498 . S
C82 O100 1.258 . S
C82 O101 1.239 . S
C83 C82 1.498 . S
C83 C84 1.366 . S
C83 C88 1.407 . S
C84 C83 1.366 . S
C84 C85 1.392 . S
C84 H112 0.930 . S
C85 C84 1.392 . S
C85 C86 1.398 . S
C85 H113 0.929 . S
C86 C85 1.398 . S
C86 C87 1.352 . S
C87 C86 1.352 . S
C87 C88 1.384 . S
C87 H114 0.930 . S
C88 C83 1.407 . S
C88 C87 1.384 . S
C88 H115 0.929 . S
C89 O102 1.241 . S
C89 O103 1.273 . S
C90 O104 1.251 . S
C90 O105 1.268 . S
C91 Nd81 2.836 . S
C91 C92 1.498 . S
C91 O106 1.258 . S
C91 O107 1.239 . S
C92 C91 1.498 . S
C92 C93 1.366 . S
C92 C97 1.407 . S
C93 C92 1.366 . S
C93 C94 1.392 . S
C93 H116 0.930 . S
C94 C93 1.392 . S
C94 C95 1.398 . S
C94 H117 0.929 . S
C95 C94 1.398 . S
C95 C96 1.352 . S
C96 C95 1.352 . S
C96 C97 1.384 . S
C96 H118 0.930 . S
C97 C92 1.407 . S
C97 C96 1.384 . S
C97 H119 0.929 . S
C98 O108 1.232 1_565 S
C98 O109 1.247 1_565 S
C99 O110 1.251 . S
C99 O111 1.268 . S
O100 Nd80 2.500 1_565 S
O100 C82 1.258 . S
O101 Nd80 2.492 1_565 S
O101 C82 1.239 . S
O102 Nd80 2.487 . S
O102 C89 1.241 . S
O103 Nd80 2.682 . S
O103 Nd81 2.414 . S
O103 C89 1.273 . S
O104 Nd80 2.410 . S
O104 C90 1.251 . S
O105 Nd81 2.424 . S
O105 C90 1.268 . S
O106 Nd81 2.500 . S
O106 C91 1.258 . S
O107 Nd81 2.492 . S
O107 C91 1.239 . S
O108 Nd81 2.487 . S
O108 C98 1.232 1_545 S
O109 Nd80 2.414 . S
O109 Nd81 2.682 . S
O109 C98 1.247 1_545 S
O110 Nd81 2.410 . S
O110 C99 1.251 . S
O111 Nd80 2.424 . S
O111 C99 1.268 . S
H112 C84 0.930 . S
H113 C85 0.929 . S
H114 C87 0.930 . S
H115 C88 0.929 . S
H116 C93 0.930 . S
H117 C94 0.929 . S
H118 C96 0.930 . S
H119 C97 0.929 . S
Nd120 C122 2.836 . S
Nd120 O140 2.500 . S
Nd120 O141 2.492 . S
Nd120 O142 2.487 . S
Nd120 O143 2.682 . S
Nd120 O144 2.410 . S
Nd120 O149 2.414 . S
Nd120 O151 2.424 . S
Nd121 C131 2.836 1_455 S
Nd121 O143 2.414 . S
Nd121 O145 2.424 . S
Nd121 O146 2.500 1_455 S
Nd121 O147 2.492 1_455 S
Nd121 O148 2.487 . S
Nd121 O149 2.682 . S
Nd121 O150 2.410 . S
C122 Nd120 2.836 . S
C122 C123 1.498 . S
C122 O140 1.258 . S
C122 O141 1.239 . S
C123 C122 1.498 . S
C123 C124 1.366 . S
C123 C128 1.407 . S
C124 C123 1.366 . S
C124 C125 1.392 . S
C124 H152 0.930 . S
C125 C124 1.392 . S
C125 C126 1.398 . S
C125 H153 0.929 . S
C126 C125 1.398 . S
C126 C127 1.352 . S
C127 C126 1.352 . S
C127 C128 1.384 . S
C127 H154 0.930 . S
C128 C123 1.407 . S
C128 C127 1.384 . S
C128 H155 0.929 . S
C129 O142 1.250 . S
C129 O143 1.271 . S
C130 O144 1.251 . S
C130 O145 1.268 . S
C131 Nd121 2.836 1_655 S
C131 C132 1.498 . S
C131 O146 1.258 . S
C131 O147 1.239 . S
C132 C131 1.498 . S
C132 C133 1.366 . S
C132 C137 1.407 . S
C133 C132 1.366 . S
C133 C134 1.392 . S
C133 H156 0.930 . S
C134 C133 1.392 . S
C134 C135 1.398 . S
C134 H157 0.929 . S
C135 C134 1.398 . S
C135 C136 1.352 . S
C136 C135 1.352 . S
C136 C137 1.384 . S
C136 H158 0.930 . S
C137 C132 1.407 . S
C137 C136 1.384 . S
C137 H159 0.929 . S
C138 O148 1.241 . S
C138 O149 1.273 . S
C139 O150 1.251 . S
C139 O151 1.268 . S
O140 Nd120 2.500 . S
O140 C122 1.258 . S
O141 Nd120 2.492 . S
O141 C122 1.239 . S
O142 Nd120 2.487 . S
O142 C129 1.250 . S
O143 Nd120 2.682 . S
O143 Nd121 2.414 . S
O143 C129 1.271 . S
O144 Nd120 2.410 . S
O144 C130 1.251 . S
O145 Nd121 2.424 . S
O145 C130 1.268 . S
O146 Nd121 2.500 1_655 S
O146 C131 1.258 . S
O147 Nd121 2.492 1_655 S
O147 C131 1.239 . S
O148 Nd121 2.487 . S
O148 C138 1.241 . S
O149 Nd120 2.414 . S
O149 Nd121 2.682 . S
O149 C138 1.273 . S
O150 Nd121 2.410 . S
O150 C139 1.251 . S
O151 Nd120 2.424 . S
O151 C139 1.268 . S
H152 C124 0.930 . S
H153 C125 0.929 . S
H154 C127 0.930 . S
H155 C128 0.929 . S
H156 C133 0.930 . S
H157 C134 0.929 . S
H158 C136 0.930 . S
H159 C137 0.929 . S
Nd160 C162 2.836 . S
Nd160 O180 2.500 . S
Nd160 O181 2.492 . S
Nd160 O182 2.487 . S
Nd160 O183 2.682 . S
Nd160 O184 2.410 . S
Nd160 O189 2.414 . S
Nd160 O191 2.424 . S
Nd161 C171 2.836 . S
Nd161 O183 2.414 . S
Nd161 O185 2.424 . S
Nd161 O186 2.500 . S
Nd161 O187 2.492 . S
Nd161 O188 2.487 . S
Nd161 O189 2.682 . S
Nd161 O190 2.410 . S
C162 Nd160 2.836 . S
C162 C163 1.498 . S
C162 O180 1.258 . S
C162 O181 1.239 . S
C163 C162 1.498 . S
C163 C164 1.366 . S
C163 C168 1.407 . S
C164 C163 1.366 . S
C164 C165 1.392 . S
C164 H192 0.930 . S
C165 C164 1.392 . S
C165 C166 1.398 . S
C165 H193 0.929 . S
C166 C165 1.398 . S
C166 C167 1.352 . S
C167 C166 1.352 . S
C167 C168 1.384 . S
C167 H194 0.930 . S
C168 C163 1.407 . S
C168 C167 1.384 . S
C168 H195 0.929 . S
C169 O182 1.241 . S
C169 O183 1.273 . S
C170 O184 1.251 . S
C170 O185 1.268 . S
C171 Nd161 2.836 . S
C171 C172 1.498 . S
C171 O186 1.258 . S
C171 O187 1.239 . S
C172 C171 1.498 . S
C172 C173 1.366 . S
C172 C177 1.407 . S
C173 C172 1.366 . S
C173 C174 1.392 . S
C173 H196 0.930 . S
C174 C173 1.392 . S
C174 C175 1.398 . S
C174 H197 0.929 . S
C175 C174 1.398 . S
C175 C176 1.352 . S
C176 C175 1.352 . S
C176 C177 1.384 . S
C176 H198 0.930 . S
C177 C172 1.407 . S
C177 C176 1.384 . S
C177 H199 0.929 . S
C178 O188 1.241 . S
C178 O189 1.273 . S
C179 O190 1.251 . S
C179 O191 1.268 . S
O180 Nd160 2.500 . S
O180 C162 1.258 . S
O181 Nd160 2.492 . S
O181 C162 1.239 . S
O182 Nd160 2.487 . S
O182 C169 1.241 . S
O183 Nd160 2.682 . S
O183 Nd161 2.414 . S
O183 C169 1.273 . S
O184 Nd160 2.410 . S
O184 C170 1.251 . S
O185 Nd161 2.424 . S
O185 C170 1.268 . S
O186 Nd161 2.500 . S
O186 C171 1.258 . S
O187 Nd161 2.492 . S
O187 C171 1.239 . S
O188 Nd161 2.487 . S
O188 C178 1.241 . S
O189 Nd160 2.414 . S
O189 Nd161 2.682 . S
O189 C178 1.273 . S
O190 Nd161 2.410 . S
O190 C179 1.251 . S
O191 Nd160 2.424 . S
O191 C179 1.268 . S
H192 C164 0.930 . S
H193 C165 0.929 . S
H194 C167 0.930 . S
H195 C168 0.929 . S
H196 C173 0.930 . S
H197 C174 0.929 . S
H198 C176 0.930 . S
H199 C177 0.929 . S
Nd200 C202 2.836 1_545 S
Nd200 O220 2.500 1_545 S
Nd200 O221 2.495 1_545 S
Nd200 O222 2.487 . S
Nd200 O223 2.682 . S
Nd200 O224 2.410 . S
Nd200 O229 2.414 . S
Nd200 O231 2.424 . S
Nd201 C211 2.836 . S
Nd201 O223 2.414 . S
Nd201 O225 2.424 . S
Nd201 O226 2.500 . S
Nd201 O227 2.492 . S
Nd201 O228 2.487 . S
Nd201 O229 2.682 . S
Nd201 O230 2.410 . S
C202 Nd200 2.836 1_565 S
C202 C203 1.498 . S
C202 O220 1.258 . S
C202 O221 1.262 . S
C203 C202 1.498 . S
C203 C204 1.366 . S
C203 C208 1.407 . S
C204 C203 1.366 . S
C204 C205 1.392 . S
C204 H232 0.930 . S
C205 C204 1.392 . S
C205 C206 1.398 . S
C205 H233 0.929 . S
C206 C205 1.398 . S
C206 C207 1.352 . S
C207 C206 1.352 . S
C207 C208 1.384 . S
C207 H234 0.930 . S
C208 C203 1.407 . S
C208 C207 1.384 . S
C208 H235 0.929 . S
C209 O222 1.241 . S
C209 O223 1.273 . S
C210 O224 1.251 . S
C210 O225 1.268 . S
C211 Nd201 2.836 . S
C211 C212 1.498 . S
C211 O226 1.258 . S
C211 O227 1.239 . S
C212 C211 1.498 . S
C212 C213 1.366 . S
C212 C217 1.407 . S
C213 C212 1.366 . S
C213 C214 1.392 . S
C213 H236 0.930 . S
C214 C213 1.392 . S
C214 C215 1.398 . S
C214 H237 0.929 . S
C215 C214 1.398 . S
C215 C216 1.352 . S
C216 C215 1.352 . S
C216 C217 1.384 . S
C216 H238 0.930 . S
C217 C212 1.407 . S
C217 C216 1.384 . S
C217 H239 0.929 . S
C218 O228 1.241 . S
C218 O229 1.273 . S
C219 O230 1.251 . S
C219 O231 1.268 . S
O220 Nd200 2.500 1_565 S
O220 C202 1.258 . S
O221 Nd200 2.495 1_565 S
O221 C202 1.262 . S
O222 Nd200 2.487 . S
O222 C209 1.241 . S
O223 Nd200 2.682 . S
O223 Nd201 2.414 . S
O223 C209 1.273 . S
O224 Nd200 2.410 . S
O224 C210 1.251 . S
O225 Nd201 2.424 . S
O225 C210 1.268 . S
O226 Nd201 2.500 . S
O226 C211 1.258 . S
O227 Nd201 2.492 . S
O227 C211 1.239 . S
O228 Nd201 2.487 . S
O228 C218 1.241 . S
O229 Nd200 2.414 . S
O229 Nd201 2.682 . S
O229 C218 1.273 . S
O230 Nd201 2.410 . S
O230 C219 1.251 . S
O231 Nd200 2.424 . S
O231 C219 1.268 . S
H232 C204 0.930 . S
H233 C205 0.929 . S
H234 C207 0.930 . S
H235 C208 0.929 . S
H236 C213 0.930 . S
H237 C214 0.929 . S
H238 C216 0.930 . S
H239 C217 0.929 . S
Nd240 C242 2.836 1_554 S
Nd240 O260 2.500 1_554 S
Nd240 O261 2.492 1_554 S
Nd240 O262 2.487 . S
Nd240 O263 2.682 . S
Nd240 O264 2.410 1_554 S
Nd240 O269 2.414 1_554 S
Nd240 O271 2.424 . S
Nd241 C251 2.836 1_556 S
Nd241 O263 2.414 1_556 S
Nd241 O265 2.424 . S
Nd241 O266 2.500 1_556 S
Nd241 O267 2.492 1_556 S
Nd241 O268 2.487 . S
Nd241 O269 2.682 . S
Nd241 O270 2.410 1_556 S
C242 Nd240 2.836 1_556 S
C242 C243 1.498 . S
C242 O260 1.258 . S
C242 O261 1.239 . S
C243 C242 1.498 . S
C243 C244 1.366 . S
C243 C248 1.407 . S
C244 C243 1.366 . S
C244 C245 1.392 . S
C244 H272 0.930 . S
C245 C244 1.392 . S
C245 C246 1.398 . S
C245 H273 0.929 . S
C246 C245 1.398 . S
C246 C247 1.352 . S
C247 C246 1.352 . S
C247 C248 1.384 . S
C247 H274 0.930 . S
C248 C243 1.407 . S
C248 C247 1.384 . S
C248 H275 0.929 . S
C249 O262 1.241 . S
C249 O263 1.273 . S
C250 O264 1.251 . S
C250 O265 1.268 . S
C251 Nd241 2.836 1_554 S
C251 C252 1.498 . S
C251 O266 1.258 . S
C251 O267 1.239 . S
C252 C251 1.498 . S
C252 C253 1.366 . S
C252 C257 1.407 . S
C253 C252 1.366 . S
C253 C254 1.392 . S
C253 H276 0.930 . S
C254 C253 1.392 . S
C254 C255 1.398 . S
C254 H277 0.929 . S
C255 C254 1.398 . S
C255 C256 1.352 . S
C256 C255 1.352 . S
C256 C257 1.384 . S
C256 H278 0.930 . S
C257 C252 1.407 . S
C257 C256 1.384 . S
C257 H279 0.929 . S
C258 O268 1.241 . S
C258 O269 1.273 . S
C259 O270 1.251 . S
C259 O271 1.268 . S
O260 Nd240 2.500 1_556 S
O260 C242 1.258 . S
O261 Nd240 2.492 1_556 S
O261 C242 1.239 . S
O262 Nd240 2.487 . S
O262 C249 1.241 . S
O263 Nd240 2.682 . S
O263 Nd241 2.414 1_554 S
O263 C249 1.273 . S
O264 Nd240 2.410 1_556 S
O264 C250 1.251 . S
O265 Nd241 2.424 . S
O265 C250 1.268 . S
O266 Nd241 2.500 1_554 S
O266 C251 1.258 . S
O267 Nd241 2.492 1_554 S
O267 C251 1.239 . S
O268 Nd241 2.487 . S
O268 C258 1.241 . S
O269 Nd240 2.414 1_556 S
O269 Nd241 2.682 . S
O269 C258 1.273 . S
O270 Nd241 2.410 1_554 S
O270 C259 1.251 . S
O271 Nd240 2.424 . S
O271 C259 1.268 . S
H272 C244 0.930 . S
H273 C245 0.929 . S
H274 C247 0.930 . S
H275 C248 0.929 . S
H276 C253 0.930 . S
H277 C254 0.929 . S
H278 C256 0.930 . S
H279 C257 0.929 . S
Nd280 C282 2.836 1_554 S
Nd280 O300 2.500 1_554 S
Nd280 O301 2.492 1_554 S
Nd280 O302 2.487 . S
Nd280 O303 2.682 . S
Nd280 O304 2.410 1_554 S
Nd280 O309 2.414 1_554 S
Nd280 O311 2.424 . S
Nd281 C291 2.836 1_556 S
Nd281 O303 2.414 1_556 S
Nd281 O305 2.424 . S
Nd281 O306 2.500 1_556 S
Nd281 O307 2.492 1_556 S
Nd281 O308 2.487 . S
Nd281 O309 2.682 . S
Nd281 O310 2.410 1_556 S
C282 Nd280 2.836 1_556 S
C282 C283 1.498 . S
C282 O300 1.258 . S
C282 O301 1.239 . S
C283 C282 1.498 . S
C283 C284 1.366 . S
C283 C288 1.407 . S
C284 C283 1.366 . S
C284 C285 1.392 . S
C284 H312 0.930 . S
C285 C284 1.392 . S
C285 C286 1.398 . S
C285 H313 0.929 . S
C286 C285 1.398 . S
C286 C287 1.352 . S
C287 C286 1.352 . S
C287 C288 1.384 . S
C287 H314 0.930 . S
C288 C283 1.407 . S
C288 C287 1.384 . S
C288 H315 0.929 . S
C289 O302 1.241 . S
C289 O303 1.273 . S
C290 O304 1.251 . S
C290 O305 1.268 . S
C291 Nd281 2.836 1_554 S
C291 C292 1.498 . S
C291 O306 1.258 . S
C291 O307 1.239 . S
C292 C291 1.498 . S
C292 C293 1.366 . S
C292 C297 1.407 . S
C293 C292 1.366 . S
C293 C294 1.392 . S
C293 H316 0.930 . S
C294 C293 1.392 . S
C294 C295 1.398 . S
C294 H317 0.929 . S
C295 C294 1.398 . S
C295 C296 1.352 . S
C296 C295 1.352 . S
C296 C297 1.384 . S
C296 H318 0.930 . S
C297 C292 1.407 . S
C297 C296 1.384 . S
C297 H319 0.929 . S
C298 O308 1.241 . S
C298 O309 1.273 . S
C299 O310 1.251 . S
C299 O311 1.268 . S
O300 Nd280 2.500 1_556 S
O300 C282 1.258 . S
O301 Nd280 2.492 1_556 S
O301 C282 1.239 . S
O302 Nd280 2.487 . S
O302 C289 1.241 . S
O303 Nd280 2.682 . S
O303 Nd281 2.414 1_554 S
O303 C289 1.273 . S
O304 Nd280 2.410 1_556 S
O304 C290 1.251 . S
O305 Nd281 2.424 . S
O305 C290 1.268 . S
O306 Nd281 2.500 1_554 S
O306 C291 1.258 . S
O307 Nd281 2.492 1_554 S
O307 C291 1.239 . S
O308 Nd281 2.487 . S
O308 C298 1.241 . S
O309 Nd280 2.414 1_556 S
O309 Nd281 2.682 . S
O309 C298 1.273 . S
O310 Nd281 2.410 1_554 S
O310 C299 1.251 . S
O311 Nd280 2.424 . S
O311 C299 1.268 . S
H312 C284 0.930 . S
H313 C285 0.929 . S
H314 C287 0.930 . S
H315 C288 0.929 . S
H316 C293 0.930 . S
H317 C294 0.929 . S
H318 C296 0.930 . S
H319 C297 0.929 . S
Nd320 C322 2.836 1_554 S
Nd320 O340 2.500 1_554 S
Nd320 O341 2.492 1_554 S
Nd320 O342 2.487 . S
Nd320 O343 2.682 . S
Nd320 O344 2.410 1_554 S
Nd320 O349 2.414 1_554 S
Nd320 O351 2.424 . S
Nd321 C331 2.836 1_556 S
Nd321 O343 2.414 1_556 S
Nd321 O345 2.424 . S
Nd321 O346 2.500 1_556 S
Nd321 O347 2.492 1_556 S
Nd321 O348 2.487 . S
Nd321 O349 2.682 . S
Nd321 O350 2.410 1_556 S
C322 Nd320 2.836 1_556 S
C322 C323 1.498 . S
C322 O340 1.258 . S
C322 O341 1.239 . S
C323 C322 1.498 . S
C323 C324 1.366 . S
C323 C328 1.407 . S
C324 C323 1.366 . S
C324 C325 1.392 . S
C324 H352 0.930 . S
C325 C324 1.392 . S
C325 C326 1.398 . S
C325 H353 0.929 . S
C326 C325 1.398 . S
C326 C327 1.352 . S
C327 C326 1.352 . S
C327 C328 1.384 . S
C327 H354 0.930 . S
C328 C323 1.407 . S
C328 C327 1.384 . S
C328 H355 0.929 . S
C329 O342 1.241 . S
C329 O343 1.273 . S
C330 O344 1.251 . S
C330 O345 1.268 . S
C331 Nd321 2.836 1_554 S
C331 C332 1.498 . S
C331 O346 1.258 . S
C331 O347 1.239 . S
C332 C331 1.498 . S
C332 C333 1.366 . S
C332 C337 1.407 . S
C333 C332 1.366 . S
C333 C334 1.392 . S
C333 H356 0.930 . S
C334 C333 1.392 . S
C334 C335 1.398 . S
C334 H357 0.929 . S
C335 C334 1.398 . S
C335 C336 1.352 . S
C336 C335 1.352 . S
C336 C337 1.384 . S
C336 H358 0.930 . S
C337 C332 1.407 . S
C337 C336 1.384 . S
C337 H359 0.929 . S
C338 O348 1.241 . S
C338 O349 1.273 . S
C339 O350 1.251 . S
C339 O351 1.268 . S
O340 Nd320 2.500 1_556 S
O340 C322 1.258 . S
O341 Nd320 2.492 1_556 S
O341 C322 1.239 . S
O342 Nd320 2.487 . S
O342 C329 1.241 . S
O343 Nd320 2.682 . S
O343 Nd321 2.414 1_554 S
O343 C329 1.273 . S
O344 Nd320 2.410 1_556 S
O344 C330 1.251 . S
O345 Nd321 2.424 . S
O345 C330 1.268 . S
O346 Nd321 2.500 1_554 S
O346 C331 1.258 . S
O347 Nd321 2.492 1_554 S
O347 C331 1.239 . S
O348 Nd321 2.487 . S
O348 C338 1.241 . S
O349 Nd320 2.414 1_556 S
O349 Nd321 2.682 . S
O349 C338 1.273 . S
O350 Nd321 2.410 1_554 S
O350 C339 1.251 . S
O351 Nd320 2.424 . S
O351 C339 1.268 . S
H352 C324 0.930 . S
H353 C325 0.929 . S
H354 C327 0.930 . S
H355 C328 0.929 . S
H356 C333 0.930 . S
H357 C334 0.929 . S
H358 C336 0.930 . S
H359 C337 0.929 . S
Nd360 C362 2.836 . S
Nd360 O380 2.500 . S
Nd360 O381 2.492 . S
Nd360 O382 2.487 . S
Nd360 O383 2.682 . S
Nd360 O384 2.410 . S
Nd360 O389 2.414 . S
Nd360 O391 2.424 . S
Nd361 C371 2.836 . S
Nd361 O383 2.414 . S
Nd361 O385 2.424 . S
Nd361 O386 2.500 . S
Nd361 O387 2.492 . S
Nd361 O388 2.487 . S
Nd361 O389 2.682 . S
Nd361 O390 2.410 . S
C362 Nd360 2.836 . S
C362 C363 1.498 . S
C362 O380 1.258 . S
C362 O381 1.239 . S
C363 C362 1.498 . S
C363 C364 1.366 . S
C363 C368 1.407 . S
C364 C363 1.366 . S
C364 C365 1.392 . S
C364 H392 0.930 . S
C365 C364 1.392 . S
C365 C366 1.398 . S
C365 H393 0.929 . S
C366 C365 1.398 . S
C366 C367 1.352 . S
C367 C366 1.352 . S
C367 C368 1.384 . S
C367 H394 0.930 . S
C368 C363 1.407 . S
C368 C367 1.384 . S
C368 H395 0.929 . S
C369 O382 1.241 . S
C369 O383 1.273 . S
C370 O384 1.251 . S
C370 O385 1.268 . S
C371 Nd361 2.836 . S
C371 C372 1.498 . S
C371 O386 1.258 . S
C371 O387 1.239 . S
C372 C371 1.498 . S
C372 C373 1.366 . S
C372 C377 1.407 . S
C373 C372 1.366 . S
C373 C374 1.392 . S
C373 H396 0.930 . S
C374 C373 1.392 . S
C374 C375 1.398 . S
C374 H397 0.929 . S
C375 C374 1.398 . S
C375 C376 1.352 . S
C376 C375 1.352 . S
C376 C377 1.384 . S
C376 H398 0.930 . S
C377 C372 1.407 . S
C377 C376 1.384 . S
C377 H399 0.929 . S
C378 O388 1.241 . S
C378 O389 1.273 . S
C379 O390 1.251 . S
C379 O391 1.268 . S
O380 Nd360 2.500 . S
O380 C362 1.258 . S
O381 Nd360 2.492 . S
O381 C362 1.239 . S
O382 Nd360 2.487 . S
O382 C369 1.241 . S
O383 Nd360 2.682 . S
O383 Nd361 2.414 . S
O383 C369 1.273 . S
O384 Nd360 2.410 . S
O384 C370 1.251 . S
O385 Nd361 2.424 . S
O385 C370 1.268 . S
O386 Nd361 2.500 . S
O386 C371 1.258 . S
O387 Nd361 2.492 . S
O387 C371 1.239 . S
O388 Nd361 2.487 . S
O388 C378 1.241 . S
O389 Nd360 2.414 . S
O389 Nd361 2.682 . S
O389 C378 1.273 . S
O390 Nd361 2.410 . S
O390 C379 1.251 . S
O391 Nd360 2.424 . S
O391 C379 1.268 . S
H392 C364 0.930 . S
H393 C365 0.929 . S
H394 C367 0.930 . S
H395 C368 0.929 . S
H396 C373 0.930 . S
H397 C374 0.929 . S
H398 C376 0.930 . S
H399 C377 0.929 . S
Nd400 C402 2.836 . S
Nd400 O420 2.500 . S
Nd400 O421 2.492 . S
Nd400 O422 2.487 . S
Nd400 O423 2.682 . S
Nd400 O424 2.410 . S
Nd400 O429 2.414 . S
Nd400 O431 2.424 . S
Nd401 C411 2.836 . S
Nd401 O423 2.414 . S
Nd401 O425 2.424 . S
Nd401 O426 2.500 . S
Nd401 O427 2.492 . S
Nd401 O428 2.487 . S
Nd401 O429 2.682 . S
Nd401 O430 2.410 . S
C402 Nd400 2.836 . S
C402 C403 1.498 . S
C402 O420 1.258 . S
C402 O421 1.239 . S
C403 C402 1.498 . S
C403 C404 1.366 . S
C403 C408 1.407 . S
C404 C403 1.366 . S
C404 C405 1.392 . S
C404 H432 0.930 . S
C405 C404 1.392 . S
C405 C406 1.398 . S
C405 H433 0.929 . S
C406 C405 1.398 . S
C406 C407 1.352 . S
C407 C406 1.352 . S
C407 C408 1.384 . S
C407 H434 0.930 . S
C408 C403 1.407 . S
C408 C407 1.384 . S
C408 H435 0.929 . S
C409 O422 1.241 . S
C409 O423 1.273 . S
C410 O424 1.251 . S
C410 O425 1.268 . S
C411 Nd401 2.836 . S
C411 C412 1.498 . S
C411 O426 1.258 . S
C411 O427 1.239 . S
C412 C411 1.498 . S
C412 C413 1.366 . S
C412 C417 1.407 . S
C413 C412 1.366 . S
C413 C414 1.392 . S
C413 H436 0.930 . S
C414 C413 1.392 . S
C414 C415 1.398 . S
C414 H437 0.929 . S
C415 C414 1.398 . S
C415 C416 1.352 . S
C416 C415 1.352 . S
C416 C417 1.384 . S
C416 H438 0.930 . S
C417 C412 1.407 . S
C417 C416 1.384 . S
C417 H439 0.929 . S
C418 O428 1.241 . S
C418 O429 1.273 . S
C419 O430 1.251 . S
C419 O431 1.268 . S
O420 Nd400 2.500 . S
O420 C402 1.258 . S
O421 Nd400 2.492 . S
O421 C402 1.239 . S
O422 Nd400 2.487 . S
O422 C409 1.241 . S
O423 Nd400 2.682 . S
O423 Nd401 2.414 . S
O423 C409 1.273 . S
O424 Nd400 2.410 . S
O424 C410 1.251 . S
O425 Nd401 2.424 . S
O425 C410 1.268 . S
O426 Nd401 2.500 . S
O426 C411 1.258 . S
O427 Nd401 2.492 . S
O427 C411 1.239 . S
O428 Nd401 2.487 . S
O428 C418 1.241 . S
O429 Nd400 2.414 . S
O429 Nd401 2.682 . S
O429 C418 1.273 . S
O430 Nd401 2.410 . S
O430 C419 1.251 . S
O431 Nd400 2.424 . S
O431 C419 1.268 . S
H432 C404 0.930 . S
H433 C405 0.929 . S
H434 C407 0.930 . S
H435 C408 0.929 . S
H436 C413 0.930 . S
H437 C414 0.929 . S
H438 C416 0.930 . S
H439 C417 0.929 . S
Nd440 C442 2.836 . S
Nd440 O460 2.500 . S
Nd440 O461 2.492 . S
Nd440 O462 2.487 . S
Nd440 O463 2.682 . S
Nd440 O464 2.410 . S
Nd440 O469 2.414 . S
Nd440 O471 2.424 . S
Nd441 C451 2.836 . S
Nd441 O463 2.414 . S
Nd441 O465 2.424 . S
Nd441 O466 2.500 . S
Nd441 O467 2.492 . S
Nd441 O468 2.487 . S
Nd441 O469 2.682 . S
Nd441 O470 2.410 . S
C442 Nd440 2.836 . S
C442 C443 1.498 . S
C442 O460 1.258 . S
C442 O461 1.239 . S
C443 C442 1.498 . S
C443 C444 1.366 . S
C443 C448 1.407 . S
C444 C443 1.366 . S
C444 C445 1.392 . S
C444 H472 0.930 . S
C445 C444 1.392 . S
C445 C446 1.398 . S
C445 H473 0.929 . S
C446 C445 1.398 . S
C446 C447 1.352 . S
C447 C446 1.352 . S
C447 C448 1.384 . S
C447 H474 0.930 . S
C448 C443 1.407 . S
C448 C447 1.384 . S
C448 H475 0.929 . S
C449 O462 1.241 . S
C449 O463 1.273 . S
C450 O464 1.251 . S
C450 O465 1.268 . S
C451 Nd441 2.836 . S
C451 C452 1.498 . S
C451 O466 1.258 . S
C451 O467 1.239 . S
C452 C451 1.498 . S
C452 C453 1.366 . S
C452 C457 1.407 . S
C453 C452 1.366 . S
C453 C454 1.392 . S
C453 H476 0.930 . S
C454 C453 1.392 . S
C454 C455 1.398 . S
C454 H477 0.929 . S
C455 C454 1.398 . S
C455 C456 1.352 . S
C456 C455 1.352 . S
C456 C457 1.384 . S
C456 H478 0.930 . S
C457 C452 1.407 . S
C457 C456 1.384 . S
C457 H479 0.929 . S
C458 O468 1.241 . S
C458 O469 1.273 . S
C459 O470 1.251 . S
C459 O471 1.268 . S
O460 Nd440 2.500 . S
O460 C442 1.258 . S
O461 Nd440 2.492 . S
O461 C442 1.239 . S
O462 Nd440 2.487 . S
O462 C449 1.241 . S
O463 Nd440 2.682 . S
O463 Nd441 2.414 . S
O463 C449 1.273 . S
O464 Nd440 2.410 . S
O464 C450 1.251 . S
O465 Nd441 2.424 . S
O465 C450 1.268 . S
O466 Nd441 2.500 . S
O466 C451 1.258 . S
O467 Nd441 2.492 . S
O467 C451 1.239 . S
O468 Nd441 2.487 . S
O468 C458 1.241 . S
O469 Nd440 2.414 . S
O469 Nd441 2.682 . S
O469 C458 1.273 . S
O470 Nd441 2.410 . S
O470 C459 1.251 . S
O471 Nd440 2.424 . S
O471 C459 1.268 . S
H472 C444 0.930 . S
H473 C445 0.929 . S
H474 C447 0.930 . S
H475 C448 0.929 . S
H476 C453 0.930 . S
H477 C454 0.929 . S
H478 C456 0.930 . S
H479 C457 0.929 . S
Nd480 C482 2.836 . S
Nd480 O500 2.500 . S
Nd480 O501 2.492 . S
Nd480 O502 2.487 . S
Nd480 O503 2.682 . S
Nd480 O504 2.410 . S
Nd480 O509 2.414 . S
Nd480 O511 2.424 . S
Nd481 C491 2.836 . S
Nd481 O503 2.414 . S
Nd481 O505 2.424 . S
Nd481 O506 2.500 . S
Nd481 O507 2.492 . S
Nd481 O508 2.487 . S
Nd481 O509 2.682 . S
Nd481 O510 2.410 . S
C482 Nd480 2.836 . S
C482 C483 1.498 . S
C482 O500 1.258 . S
C482 O501 1.239 . S
C483 C482 1.498 . S
C483 C484 1.366 . S
C483 C488 1.407 . S
C484 C483 1.366 . S
C484 C485 1.392 . S
C484 H512 0.930 . S
C485 C484 1.392 . S
C485 C486 1.398 . S
C485 H513 0.929 . S
C486 C485 1.398 . S
C486 C487 1.352 . S
C487 C486 1.352 . S
C487 C488 1.384 . S
C487 H514 0.930 . S
C488 C483 1.407 . S
C488 C487 1.384 . S
C488 H515 0.929 . S
C489 O502 1.241 . S
C489 O503 1.273 . S
C490 O504 1.251 . S
C490 O505 1.268 . S
C491 Nd481 2.836 . S
C491 C492 1.498 . S
C491 O506 1.258 . S
C491 O507 1.239 . S
C492 C491 1.498 . S
C492 C493 1.366 . S
C492 C497 1.407 . S
C493 C492 1.366 . S
C493 C494 1.392 . S
C493 H516 0.930 . S
C494 C493 1.392 . S
C494 C495 1.398 . S
C494 H517 0.929 . S
C495 C494 1.398 . S
C495 C496 1.352 . S
C496 C495 1.352 . S
C496 C497 1.384 . S
C496 H518 0.930 . S
C497 C492 1.407 . S
C497 C496 1.384 . S
C497 H519 0.929 . S
C498 O508 1.241 . S
C498 O509 1.273 . S
C499 O510 1.251 . S
C499 O511 1.268 . S
O500 Nd480 2.500 . S
O500 C482 1.258 . S
O501 Nd480 2.492 . S
O501 C482 1.239 . S
O502 Nd480 2.487 . S
O502 C489 1.241 . S
O503 Nd480 2.682 . S
O503 Nd481 2.414 . S
O503 C489 1.273 . S
O504 Nd480 2.410 . S
O504 C490 1.251 . S
O505 Nd481 2.424 . S
O505 C490 1.268 . S
O506 Nd481 2.500 . S
O506 C491 1.258 . S
O507 Nd481 2.492 . S
O507 C491 1.239 . S
O508 Nd481 2.487 . S
O508 C498 1.241 . S
O509 Nd480 2.414 . S
O509 Nd481 2.682 . S
O509 C498 1.273 . S
O510 Nd481 2.410 . S
O510 C499 1.251 . S
O511 Nd480 2.424 . S
O511 C499 1.268 . S
H512 C484 0.930 . S
H513 C485 0.929 . S
H514 C487 0.930 . S
H515 C488 0.929 . S
H516 C493 0.930 . S
H517 C494 0.929 . S
H518 C496 0.930 . S
H519 C497 0.929 . S
Nd520 C522 2.836 . S
Nd520 O540 2.500 . S
Nd520 O541 2.492 . S
Nd520 O542 2.487 . S
Nd520 O543 2.682 . S
Nd520 O544 2.410 . S
Nd520 O549 2.414 . S
Nd520 O551 2.424 . S
Nd521 C531 2.836 . S
Nd521 O543 2.414 . S
Nd521 O545 2.424 . S
Nd521 O546 2.500 . S
Nd521 O547 2.492 . S
Nd521 O548 2.487 . S
Nd521 O549 2.682 . S
Nd521 O550 2.410 . S
C522 Nd520 2.836 . S
C522 C523 1.498 . S
C522 O540 1.258 . S
C522 O541 1.239 . S
C523 C522 1.498 . S
C523 C524 1.366 . S
C523 C528 1.407 . S
C524 C523 1.366 . S
C524 C525 1.392 . S
C524 H552 0.930 . S
C525 C524 1.392 . S
C525 C526 1.398 . S
C525 H553 0.929 . S
C526 C525 1.398 . S
C526 C527 1.352 . S
C527 C526 1.352 . S
C527 C528 1.384 . S
C527 H554 0.930 . S
C528 C523 1.407 . S
C528 C527 1.384 . S
C528 H555 0.929 . S
C529 O542 1.241 . S
C529 O543 1.273 . S
C530 O544 1.251 . S
C530 O545 1.268 . S
C531 Nd521 2.836 . S
C531 C532 1.498 . S
C531 O546 1.258 . S
C531 O547 1.239 . S
C532 C531 1.498 . S
C532 C533 1.366 . S
C532 C537 1.407 . S
C533 C532 1.366 . S
C533 C534 1.392 . S
C533 H556 0.930 . S
C534 C533 1.392 . S
C534 C535 1.398 . S
C534 H557 0.929 . S
C535 C534 1.398 . S
C535 C536 1.352 . S
C536 C535 1.352 . S
C536 C537 1.384 . S
C536 H558 0.930 . S
C537 C532 1.407 . S
C537 C536 1.384 . S
C537 H559 0.929 . S
C538 O548 1.241 . S
C538 O549 1.273 . S
C539 O550 1.251 . S
C539 O551 1.268 . S
O540 Nd520 2.500 . S
O540 C522 1.258 . S
O541 Nd520 2.492 . S
O541 C522 1.239 . S
O542 Nd520 2.487 . S
O542 C529 1.241 . S
O543 Nd520 2.682 . S
O543 Nd521 2.414 . S
O543 C529 1.273 . S
O544 Nd520 2.410 . S
O544 C530 1.251 . S
O545 Nd521 2.424 . S
O545 C530 1.268 . S
O546 Nd521 2.500 . S
O546 C531 1.258 . S
O547 Nd521 2.492 . S
O547 C531 1.239 . S
O548 Nd521 2.487 . S
O548 C538 1.241 . S
O549 Nd520 2.414 . S
O549 Nd521 2.682 . S
O549 C538 1.273 . S
O550 Nd521 2.410 . S
O550 C539 1.251 . S
O551 Nd520 2.424 . S
O551 C539 1.268 . S
H552 C524 0.930 . S
H553 C525 0.929 . S
H554 C527 0.930 . S
H555 C528 0.929 . S
H556 C533 0.930 . S
H557 C534 0.929 . S
H558 C536 0.930 . S
H559 C537 0.929 . S
Nd560 C562 2.836 . S
Nd560 O580 2.500 . S
Nd560 O581 2.492 . S
Nd560 O582 2.487 . S
Nd560 O583 2.682 . S
Nd560 O584 2.410 . S
Nd560 O589 2.414 . S
Nd560 O591 2.424 . S
Nd561 C571 2.836 . S
Nd561 O583 2.414 . S
Nd561 O585 2.424 . S
Nd561 O586 2.500 . S
Nd561 O587 2.492 . S
Nd561 O588 2.487 . S
Nd561 O589 2.682 . S
Nd561 O590 2.410 . S
C562 Nd560 2.836 . S
C562 C563 1.498 . S
C562 O580 1.258 . S
C562 O581 1.239 . S
C563 C562 1.498 . S
C563 C564 1.366 . S
C563 C568 1.407 . S
C564 C563 1.366 . S
C564 C565 1.392 . S
C564 H592 0.930 . S
C565 C564 1.392 . S
C565 C566 1.398 . S
C565 H593 0.929 . S
C566 C565 1.398 . S
C566 C567 1.352 . S
C567 C566 1.352 . S
C567 C568 1.384 . S
C567 H594 0.930 . S
C568 C563 1.407 . S
C568 C567 1.384 . S
C568 H595 0.929 . S
C569 O582 1.241 . S
C569 O583 1.273 . S
C570 O584 1.251 . S
C570 O585 1.268 . S
C571 Nd561 2.836 . S
C571 C572 1.498 . S
C571 O586 1.258 . S
C571 O587 1.239 . S
C572 C571 1.498 . S
C572 C573 1.366 . S
C572 C577 1.407 . S
C573 C572 1.366 . S
C573 C574 1.392 . S
C573 H596 0.930 . S
C574 C573 1.392 . S
C574 C575 1.398 . S
C574 H597 0.929 . S
C575 C574 1.398 . S
C575 C576 1.352 . S
C576 C575 1.352 . S
C576 C577 1.384 . S
C576 H598 0.930 . S
C577 C572 1.407 . S
C577 C576 1.384 . S
C577 H599 0.929 . S
C578 O588 1.241 . S
C578 O589 1.273 . S
C579 O590 1.251 . S
C579 O591 1.268 . S
O580 Nd560 2.500 . S
O580 C562 1.258 . S
O581 Nd560 2.492 . S
O581 C562 1.239 . S
O582 Nd560 2.487 . S
O582 C569 1.241 . S
O583 Nd560 2.682 . S
O583 Nd561 2.414 . S
O583 C569 1.273 . S
O584 Nd560 2.410 . S
O584 C570 1.251 . S
O585 Nd561 2.424 . S
O585 C570 1.268 . S
O586 Nd561 2.500 . S
O586 C571 1.258 . S
O587 Nd561 2.492 . S
O587 C571 1.239 . S
O588 Nd561 2.487 . S
O588 C578 1.241 . S
O589 Nd560 2.414 . S
O589 Nd561 2.682 . S
O589 C578 1.273 . S
O590 Nd561 2.410 . S
O590 C579 1.251 . S
O591 Nd560 2.424 . S
O591 C579 1.268 . S
H592 C564 0.930 . S
H593 C565 0.929 . S
H594 C567 0.930 . S
H595 C568 0.929 . S
H596 C573 0.930 . S
H597 C574 0.929 . S
H598 C576 0.930 . S
H599 C577 0.929 . S
Nd600 C602 2.836 1_554 S
Nd600 O620 2.500 1_554 S
Nd600 O621 2.492 1_554 S
Nd600 O622 2.487 . S
Nd600 O623 2.682 . S
Nd600 O624 2.410 1_554 S
Nd600 O629 2.414 1_554 S
Nd600 O631 2.424 . S
Nd601 C611 2.836 1_556 S
Nd601 O623 2.414 1_556 S
Nd601 O625 2.424 . S
Nd601 O626 2.500 1_556 S
Nd601 O627 2.492 1_556 S
Nd601 O628 2.487 . S
Nd601 O629 2.682 . S
Nd601 O630 2.410 1_556 S
C602 Nd600 2.836 1_556 S
C602 C603 1.498 . S
C602 O620 1.258 . S
C602 O621 1.239 . S
C603 C602 1.498 . S
C603 C604 1.366 . S
C603 C608 1.407 . S
C604 C603 1.366 . S
C604 C605 1.392 . S
C604 H632 0.930 . S
C605 C604 1.392 . S
C605 C606 1.398 . S
C605 H633 0.929 . S
C606 C605 1.398 . S
C606 C607 1.352 . S
C607 C606 1.352 . S
C607 C608 1.384 . S
C607 H634 0.930 . S
C608 C603 1.407 . S
C608 C607 1.384 . S
C608 H635 0.929 . S
C609 O622 1.241 . S
C609 O623 1.273 . S
C610 O624 1.251 . S
C610 O625 1.268 . S
C611 Nd601 2.836 1_554 S
C611 C612 1.498 . S
C611 O626 1.258 . S
C611 O627 1.239 . S
C612 C611 1.498 . S
C612 C613 1.366 . S
C612 C617 1.407 . S
C613 C612 1.366 . S
C613 C614 1.392 . S
C613 H636 0.930 . S
C614 C613 1.392 . S
C614 C615 1.398 . S
C614 H637 0.929 . S
C615 C614 1.398 . S
C615 C616 1.352 . S
C616 C615 1.352 . S
C616 C617 1.384 . S
C616 H638 0.930 . S
C617 C612 1.407 . S
C617 C616 1.384 . S
C617 H639 0.929 . S
C618 O628 1.241 . S
C618 O629 1.273 . S
C619 O630 1.251 . S
C619 O631 1.268 . S
O620 Nd600 2.500 1_556 S
O620 C602 1.258 . S
O621 Nd600 2.492 1_556 S
O621 C602 1.239 . S
O622 Nd600 2.487 . S
O622 C609 1.241 . S
O623 Nd600 2.682 . S
O623 Nd601 2.414 1_554 S
O623 C609 1.273 . S
O624 Nd600 2.410 1_556 S
O624 C610 1.251 . S
O625 Nd601 2.424 . S
O625 C610 1.268 . S
O626 Nd601 2.500 1_554 S
O626 C611 1.258 . S
O627 Nd601 2.492 1_554 S
O627 C611 1.239 . S
O628 Nd601 2.487 . S
O628 C618 1.241 . S
O629 Nd600 2.414 1_556 S
O629 Nd601 2.682 . S
O629 C618 1.273 . S
O630 Nd601 2.410 1_554 S
O630 C619 1.251 . S
O631 Nd600 2.424 . S
O631 C619 1.268 . S
H632 C604 0.930 . S
H633 C605 0.929 . S
H634 C607 0.930 . S
H635 C608 0.929 . S
H636 C613 0.930 . S
H637 C614 0.929 . S
H638 C616 0.930 . S
H639 C617 0.929 . S
Nd640 C642 2.836 1_554 S
Nd640 O660 2.500 1_554 S
Nd640 O661 2.492 1_554 S
Nd640 O662 2.487 . S
Nd640 O663 2.682 . S
Nd640 O664 2.410 1_554 S
Nd640 O669 2.414 1_554 S
Nd640 O671 2.424 . S
Nd641 C651 2.836 1_556 S
Nd641 O663 2.414 1_556 S
Nd641 O665 2.424 . S
Nd641 O666 2.500 1_556 S
Nd641 O667 2.492 1_556 S
Nd641 O668 2.487 . S
Nd641 O669 2.682 . S
Nd641 O670 2.410 1_556 S
C642 Nd640 2.836 1_556 S
C642 C643 1.498 . S
C642 O660 1.258 . S
C642 O661 1.239 . S
C643 C642 1.498 . S
C643 C644 1.366 . S
C643 C648 1.407 . S
C644 C643 1.366 . S
C644 C645 1.392 . S
C644 H672 0.930 . S
C645 C644 1.392 . S
C645 C646 1.398 . S
C645 H673 0.929 . S
C646 C645 1.398 . S
C646 C647 1.352 . S
C647 C646 1.352 . S
C647 C648 1.384 . S
C647 H674 0.930 . S
C648 C643 1.407 . S
C648 C647 1.384 . S
C648 H675 0.929 . S
C649 O662 1.241 . S
C649 O663 1.273 . S
C650 O664 1.251 . S
C650 O665 1.268 . S
C651 Nd641 2.836 1_554 S
C651 C652 1.498 . S
C651 O666 1.258 . S
C651 O667 1.239 . S
C652 C651 1.498 . S
C652 C653 1.366 . S
C652 C657 1.407 . S
C653 C652 1.366 . S
C653 C654 1.392 . S
C653 H676 0.930 . S
C654 C653 1.392 . S
C654 C655 1.398 . S
C654 H677 0.929 . S
C655 C654 1.398 . S
C655 C656 1.352 . S
C656 C655 1.352 . S
C656 C657 1.384 . S
C656 H678 0.930 . S
C657 C652 1.407 . S
C657 C656 1.384 . S
C657 H679 0.929 . S
C658 O668 1.241 . S
C658 O669 1.273 . S
C659 O670 1.251 . S
C659 O671 1.268 . S
O660 Nd640 2.500 1_556 S
O660 C642 1.258 . S
O661 Nd640 2.492 1_556 S
O661 C642 1.239 . S
O662 Nd640 2.487 . S
O662 C649 1.241 . S
O663 Nd640 2.682 . S
O663 Nd641 2.414 1_554 S
O663 C649 1.273 . S
O664 Nd640 2.410 1_556 S
O664 C650 1.251 . S
O665 Nd641 2.424 . S
O665 C650 1.268 . S
O666 Nd641 2.500 1_554 S
O666 C651 1.258 . S
O667 Nd641 2.492 1_554 S
O667 C651 1.239 . S
O668 Nd641 2.487 . S
O668 C658 1.241 . S
O669 Nd640 2.414 1_556 S
O669 Nd641 2.682 . S
O669 C658 1.273 . S
O670 Nd641 2.410 1_554 S
O670 C659 1.251 . S
O671 Nd640 2.424 . S
O671 C659 1.268 . S
H672 C644 0.930 . S
H673 C645 0.929 . S
H674 C647 0.930 . S
H675 C648 0.929 . S
H676 C653 0.930 . S
H677 C654 0.929 . S
H678 C656 0.930 . S
H679 C657 0.929 . S
Nd680 C682 2.836 1_554 S
Nd680 O700 2.500 1_554 S
Nd680 O701 2.492 1_554 S
Nd680 O702 2.487 . S
Nd680 O703 2.682 . S
Nd680 O704 2.410 1_554 S
Nd680 O709 2.414 1_554 S
Nd680 O711 2.424 . S
Nd681 C691 2.836 1_556 S
Nd681 O703 2.414 1_556 S
Nd681 O705 2.424 . S
Nd681 O706 2.500 1_556 S
Nd681 O707 2.492 1_556 S
Nd681 O708 2.487 . S
Nd681 O709 2.682 . S
Nd681 O710 2.410 1_556 S
C682 Nd680 2.836 1_556 S
C682 C683 1.498 . S
C682 O700 1.258 . S
C682 O701 1.239 . S
C683 C682 1.498 . S
C683 C684 1.366 . S
C683 C688 1.407 . S
C684 C683 1.366 . S
C684 C685 1.392 . S
C684 H712 0.930 . S
C685 C684 1.392 . S
C685 C686 1.398 . S
C685 H713 0.929 . S
C686 C685 1.398 . S
C686 C687 1.352 . S
C687 C686 1.352 . S
C687 C688 1.384 . S
C687 H714 0.930 . S
C688 C683 1.407 . S
C688 C687 1.384 . S
C688 H715 0.929 . S
C689 O702 1.241 . S
C689 O703 1.273 . S
C690 O704 1.251 . S
C690 O705 1.268 . S
C691 Nd681 2.836 1_554 S
C691 C692 1.498 . S
C691 O706 1.258 . S
C691 O707 1.239 . S
C692 C691 1.498 . S
C692 C693 1.366 . S
C692 C697 1.407 . S
C693 C692 1.366 . S
C693 C694 1.392 . S
C693 H716 0.930 . S
C694 C693 1.392 . S
C694 C695 1.398 . S
C694 H717 0.929 . S
C695 C694 1.398 . S
C695 C696 1.352 . S
C696 C695 1.352 . S
C696 C697 1.384 . S
C696 H718 0.930 . S
C697 C692 1.407 . S
C697 C696 1.384 . S
C697 H719 0.929 . S
C698 O708 1.241 . S
C698 O709 1.273 . S
C699 O710 1.251 . S
C699 O711 1.268 . S
O700 Nd680 2.500 1_556 S
O700 C682 1.258 . S
O701 Nd680 2.492 1_556 S
O701 C682 1.239 . S
O702 Nd680 2.487 . S
O702 C689 1.241 . S
O703 Nd680 2.682 . S
O703 Nd681 2.414 1_554 S
O703 C689 1.273 . S
O704 Nd680 2.410 1_556 S
O704 C690 1.251 . S
O705 Nd681 2.424 . S
O705 C690 1.268 . S
O706 Nd681 2.500 1_554 S
O706 C691 1.258 . S
O707 Nd681 2.492 1_554 S
O707 C691 1.239 . S
O708 Nd681 2.487 . S
O708 C698 1.241 . S
O709 Nd680 2.414 1_556 S
O709 Nd681 2.682 . S
O709 C698 1.273 . S
O710 Nd681 2.410 1_554 S
O710 C699 1.251 . S
O711 Nd680 2.424 . S
O711 C699 1.268 . S
H712 C684 0.930 . S
H713 C685 0.929 . S
H714 C687 0.930 . S
H715 C688 0.929 . S
H716 C693 0.930 . S
H717 C694 0.929 . S
H718 C696 0.930 . S
H719 C697 0.929 . S
H720 C738 0.951 . S
H721 C740 0.951 . S
H722 C742 0.950 . S
H723 C743 0.950 . S
H724 C745 0.950 . S
H725 C748 0.950 . S
H726 C749 0.950 . S
H727 C751 0.950 . S
H728 C752 0.950 . S
H729 C753 0.951 . S
H730 C755 0.951 . S
H731 C757 0.950 . S
H732 C758 0.950 . S
H733 C760 0.950 . S
H734 C763 0.950 . S
H735 C764 0.950 . S
H736 C766 0.950 . S
H737 C767 0.950 . S
C738 H720 0.951 . S
C738 C739 1.366 . S
C738 C740 1.388 . S
C739 C738 1.366 . S
C739 C743 1.385 . S
C740 H721 0.951 . S
C740 C738 1.388 . S
C740 C741 1.366 . S
C741 C740 1.366 . S
C741 C742 1.414 . S
C741 C744 1.499 . S
C742 H722 0.950 . S
C742 C741 1.414 . S
C742 C743 1.374 . S
C743 H723 0.950 . S
C743 C739 1.385 . S
C743 C742 1.374 . S
C744 C741 1.499 . S
C744 C745 1.373 . S
C744 C746 1.389 . S
C745 H724 0.950 . S
C745 C744 1.373 . S
C745 C761 1.377 . S
C746 C744 1.389 . S
C746 C747 1.524 . S
C746 C760 1.377 . S
C747 C746 1.524 . S
C747 C748 1.397 . S
C747 C752 1.363 . S
C748 H725 0.950 . S
C748 C747 1.397 . S
C748 C749 1.334 . S
C749 H726 0.950 . S
C749 C748 1.334 . S
C749 C750 1.287 . S
C750 C749 1.287 . S
C750 C751 1.524 . S
C750 H769 0.913 . S
C751 H727 0.950 . S
C751 C750 1.524 . S
C751 C752 1.415 . S
C752 H728 0.950 . S
C752 C747 1.363 . S
C752 C751 1.415 . S
C753 H729 0.951 . S
C753 C754 1.366 . S
C753 C755 1.388 . S
C754 C753 1.366 . S
C754 C758 1.385 . S
C755 H730 0.951 . S
C755 C753 1.388 . S
C755 C756 1.366 . S
C756 C755 1.366 . S
C756 C757 1.414 . S
C756 C759 1.499 . S
C757 H731 0.950 . S
C757 C756 1.414 . S
C757 C758 1.374 . S
C758 H732 0.950 . S
C758 C754 1.385 . S
C758 C757 1.374 . S
C759 C756 1.499 . S
C759 C760 1.373 . S
C759 C761 1.389 . S
C760 H733 0.950 . S
C760 C746 1.377 . S
C760 C759 1.373 . S
C761 C745 1.377 . S
C761 C759 1.389 . S
C761 C762 1.524 . S
C762 C761 1.524 . S
C762 C763 1.397 . S
C762 C767 1.363 . S
C763 H734 0.950 . S
C763 C762 1.397 . S
C763 C764 1.334 . S
C764 H735 0.950 . S
C764 C763 1.334 . S
C764 C765 1.287 . S
C765 C764 1.287 . S
C765 C766 1.524 . S
C765 H768 0.999 . S
C766 H736 0.950 . S
C766 C765 1.524 . S
C766 C767 1.415 . S
C767 H737 0.950 . S
C767 C762 1.363 . S
C767 C766 1.415 . S
H768 C765 0.999 . S
H769 C750 0.913 . S
H770 C788 0.951 . S
H771 C790 0.951 . S
H772 C792 0.950 . S
H773 C793 0.950 . S
H774 C795 0.950 . S
H775 C798 0.950 . S
H776 C799 0.950 . S
H777 C801 0.950 . S
H778 C802 0.950 . S
H779 C803 0.951 . S
H780 C805 0.951 . S
H781 C807 0.950 . S
H782 C808 0.950 . S
H783 C810 0.950 . S
H784 C813 0.950 . S
H785 C814 0.950 . S
H786 C816 0.950 . S
H787 C817 0.950 . S
C788 H770 0.951 . S
C788 C789 1.366 . S
C788 C790 1.388 . S
C789 C788 1.366 . S
C789 C793 1.385 . S
C790 H771 0.951 . S
C790 C788 1.388 . S
C790 C791 1.366 . S
C791 C790 1.366 . S
C791 C792 1.414 . S
C791 C794 1.499 . S
C792 H772 0.950 . S
C792 C791 1.414 . S
C792 C793 1.374 . S
C793 H773 0.950 . S
C793 C789 1.385 . S
C793 C792 1.374 . S
C794 C791 1.499 . S
C794 C795 1.373 . S
C794 C796 1.389 . S
C795 H774 0.950 . S
C795 C794 1.373 . S
C795 C811 1.377 . S
C796 C794 1.389 . S
C796 C797 1.524 . S
C796 C810 1.377 . S
C797 C796 1.524 . S
C797 C798 1.397 . S
C797 C802 1.363 . S
C798 H775 0.950 . S
C798 C797 1.397 . S
C798 C799 1.334 . S
C799 H776 0.950 . S
C799 C798 1.334 . S
C799 C800 1.287 . S
C800 C799 1.287 . S
C800 C801 1.524 . S
C800 H819 0.913 . S
C801 H777 0.950 . S
C801 C800 1.524 . S
C801 C802 1.415 . S
C802 H778 0.950 . S
C802 C797 1.363 . S
C802 C801 1.415 . S
C803 H779 0.951 . S
C803 C804 1.366 . S
C803 C805 1.388 . S
C804 C803 1.366 . S
C804 C808 1.385 . S
C805 H780 0.951 . S
C805 C803 1.388 . S
C805 C806 1.366 . S
C806 C805 1.366 . S
C806 C807 1.414 . S
C806 C809 1.499 . S
C807 H781 0.950 . S
C807 C806 1.414 . S
C807 C808 1.374 . S
C808 H782 0.950 . S
C808 C804 1.385 . S
C808 C807 1.374 . S
C809 C806 1.499 . S
C809 C810 1.373 . S
C809 C811 1.389 . S
C810 H783 0.950 . S
C810 C796 1.377 . S
C810 C809 1.373 . S
C811 C795 1.377 . S
C811 C809 1.389 . S
C811 C812 1.524 . S
C812 C811 1.524 . S
C812 C813 1.397 . S
C812 C817 1.363 . S
C813 H784 0.950 . S
C813 C812 1.397 . S
C813 C814 1.334 . S
C814 H785 0.950 . S
C814 C813 1.334 . S
C814 C815 1.287 . S
C815 C814 1.287 . S
C815 C816 1.524 . S
C815 H818 0.999 . S
C816 H786 0.950 . S
C816 C815 1.524 . S
C816 C817 1.415 . S
C817 H787 0.950 . S
C817 C812 1.363 . S
C817 C816 1.415 . S
H818 C815 0.999 . S
H819 C800 0.913 . S
H820 C838 0.951 . S
H821 C840 0.951 . S
H822 C842 0.950 . S
H823 C843 0.950 . S
H824 C845 0.950 . S
H825 C848 0.950 . S
H826 C849 0.950 . S
H827 C851 0.950 . S
H828 C852 0.950 . S
H829 C853 0.951 . S
H830 C855 0.951 . S
H831 C857 0.950 . S
H832 C858 0.950 . S
H833 C860 0.950 . S
H834 C863 0.950 . S
H835 C864 0.950 . S
H836 C866 0.950 . S
H837 C867 0.950 . S
C838 H820 0.951 . S
C838 C839 1.366 . S
C838 C840 1.388 . S
C839 C838 1.366 . S
C839 C843 1.385 . S
C840 H821 0.951 . S
C840 C838 1.388 . S
C840 C841 1.366 . S
C841 C840 1.366 . S
C841 C842 1.414 . S
C841 C844 1.499 . S
C842 H822 0.950 . S
C842 C841 1.414 . S
C842 C843 1.374 . S
C843 H823 0.950 . S
C843 C839 1.385 . S
C843 C842 1.374 . S
C844 C841 1.499 . S
C844 C845 1.373 . S
C844 C846 1.389 . S
C845 H824 0.950 . S
C845 C844 1.373 . S
C845 C861 1.377 . S
C846 C844 1.389 . S
C846 C847 1.524 . S
C846 C860 1.377 . S
C847 C846 1.524 . S
C847 C848 1.397 . S
C847 C852 1.363 . S
C848 H825 0.950 . S
C848 C847 1.397 . S
C848 C849 1.334 . S
C849 H826 0.950 . S
C849 C848 1.334 . S
C849 C850 1.287 . S
C850 C849 1.287 . S
C850 C851 1.524 . S
C850 H869 0.913 . S
C851 H827 0.950 . S
C851 C850 1.524 . S
C851 C852 1.415 . S
C852 H828 0.950 . S
C852 C847 1.363 . S
C852 C851 1.415 . S
C853 H829 0.951 . S
C853 C854 1.366 . S
C853 C855 1.388 . S
C854 C853 1.366 . S
C854 C858 1.385 . S
C855 H830 0.951 . S
C855 C853 1.388 . S
C855 C856 1.366 . S
C856 C855 1.366 . S
C856 C857 1.414 . S
C856 C859 1.499 . S
C857 H831 0.950 . S
C857 C856 1.414 . S
C857 C858 1.374 . S
C858 H832 0.950 . S
C858 C854 1.385 . S
C858 C857 1.374 . S
C859 C856 1.499 . S
C859 C860 1.373 . S
C859 C861 1.389 . S
C860 H833 0.950 . S
C860 C846 1.377 . S
C860 C859 1.373 . S
C861 C845 1.377 . S
C861 C859 1.389 . S
C861 C862 1.524 . S
C862 C861 1.524 . S
C862 C863 1.397 . S
C862 C867 1.363 . S
C863 H834 0.950 . S
C863 C862 1.397 . S
C863 C864 1.334 . S
C864 H835 0.950 . S
C864 C863 1.334 . S
C864 C865 1.287 . S
C865 C864 1.287 . S
C865 C866 1.524 . S
C865 H868 0.999 . S
C866 H836 0.950 . S
C866 C865 1.524 . S
C866 C867 1.415 . S
C867 H837 0.950 . S
C867 C862 1.363 . S
C867 C866 1.415 . S
H868 C865 0.999 . S
H869 C850 0.913 . S
H870 C888 0.951 . S
H871 C890 0.951 . S
H872 C892 0.950 . S
H873 C893 0.950 . S
H874 C895 0.950 1_554 S
H875 C898 0.950 . S
H876 C899 0.950 . S
H877 C901 0.950 . S
H878 C902 0.950 . S
H879 C903 0.951 1_554 S
H880 C905 0.951 . S
H881 C907 0.950 . S
H882 C908 0.950 . S
H883 C910 0.950 . S
H884 C913 0.950 . S
H885 C914 0.950 . S
H886 C916 0.950 . S
H887 C917 0.950 . S
C888 H870 0.951 . S
C888 C889 1.366 . S
C888 C890 1.388 . S
C889 C888 1.366 . S
C889 C893 1.385 . S
C890 H871 0.951 . S
C890 C888 1.388 . S
C890 C891 1.366 . S
C891 C890 1.366 . S
C891 C892 1.414 . S
C891 C894 1.499 . S
C892 H872 0.950 . S
C892 C891 1.414 . S
C892 C893 1.374 . S
C893 H873 0.950 . S
C893 C889 1.385 . S
C893 C892 1.374 . S
C894 C891 1.499 . S
C894 C895 1.373 . S
C894 C896 1.389 . S
C895 H874 0.950 1_556 S
C895 C894 1.373 . S
C895 C911 1.377 . S
C896 C894 1.389 . S
C896 C897 1.524 . S
C896 C910 1.377 . S
C897 C896 1.524 . S
C897 C898 1.397 . S
C897 C902 1.363 . S
C898 H875 0.950 . S
C898 C897 1.397 . S
C898 C899 1.334 . S
C899 H876 0.950 . S
C899 C898 1.334 . S
C899 C900 1.287 . S
C900 C899 1.287 . S
C900 C901 1.524 . S
C900 H919 0.913 . S
C901 H877 0.950 . S
C901 C900 1.524 . S
C901 C902 1.415 . S
C902 H878 0.950 . S
C902 C897 1.363 . S
C902 C901 1.415 . S
C903 H879 0.951 1_556 S
C903 C904 1.366 . S
C903 C905 1.388 . S
C904 C903 1.366 . S
C904 C908 1.385 . S
C905 H880 0.951 . S
C905 C903 1.388 . S
C905 C906 1.366 . S
C906 C905 1.366 . S
C906 C907 1.414 . S
C906 C909 1.499 . S
C907 H881 0.950 . S
C907 C906 1.414 . S
C907 C908 1.374 . S
C908 H882 0.950 . S
C908 C904 1.385 . S
C908 C907 1.374 . S
C909 C906 1.499 . S
C909 C910 1.373 . S
C909 C911 1.389 . S
C910 H883 0.950 . S
C910 C896 1.377 . S
C910 C909 1.373 . S
C911 C895 1.377 . S
C911 C909 1.389 . S
C911 C912 1.524 1_556 S
C912 C911 1.524 1_554 S
C912 C913 1.397 . S
C912 C917 1.363 . S
C913 H884 0.950 . S
C913 C912 1.397 . S
C913 C914 1.334 . S
C914 H885 0.950 . S
C914 C913 1.334 . S
C914 C915 1.287 . S
C915 C914 1.287 . S
C915 C916 1.524 . S
C915 H918 0.999 . S
C916 H886 0.950 . S
C916 C915 1.524 . S
C916 C917 1.415 . S
C917 H887 0.950 . S
C917 C912 1.363 . S
C917 C916 1.415 . S
H918 C915 0.999 . S
H919 C900 0.913 . S
H920 C938 0.951 1_554 S
H921 C940 0.951 . S
H922 C942 0.950 . S
H923 C943 0.950 . S
H924 C945 0.950 . S
H925 C948 0.950 . S
H926 C949 0.950 . S
H927 C951 0.950 . S
H928 C952 0.950 . S
H929 C953 0.951 . S
H930 C955 0.951 . S
H931 C957 0.950 . S
H932 C958 0.950 . S
H933 C960 0.950 . S
H934 C963 0.950 . S
H935 C964 0.950 . S
H936 C966 0.950 1_556 S
H937 C967 0.950 . S
C938 H920 0.951 1_556 S
C938 C939 1.366 . S
C938 C940 1.388 . S
C939 C938 1.366 . S
C939 C943 1.385 . S
C940 H921 0.951 . S
C940 C938 1.388 . S
C940 C941 1.366 . S
C941 C940 1.366 . S
C941 C942 1.414 . S
C941 C944 1.499 . S
C942 H922 0.950 . S
C942 C941 1.414 . S
C942 C943 1.374 . S
C943 H923 0.950 . S
C943 C939 1.385 . S
C943 C942 1.374 . S
C944 C941 1.499 . S
C944 C945 1.373 . S
C944 C946 1.389 . S
C945 H924 0.950 . S
C945 C944 1.373 . S
C945 C961 1.377 . S
C946 C944 1.389 . S
C946 C947 1.524 . S
C946 C960 1.377 . S
C947 C946 1.524 . S
C947 C948 1.397 . S
C947 C952 1.363 . S
C948 H925 0.950 . S
C948 C947 1.397 . S
C948 C949 1.334 . S
C949 H926 0.950 . S
C949 C948 1.334 . S
C949 C950 1.287 . S
C950 C949 1.287 . S
C950 C951 1.524 . S
C950 H969 0.913 . S
C951 H927 0.950 . S
C951 C950 1.524 . S
C951 C952 1.415 . S
C952 H928 0.950 . S
C952 C947 1.363 . S
C952 C951 1.415 . S
C953 H929 0.951 . S
C953 C954 1.366 . S
C953 C955 1.388 . S
C954 C953 1.366 . S
C954 C958 1.385 . S
C955 H930 0.951 . S
C955 C953 1.388 . S
C955 C956 1.366 . S
C956 C955 1.366 . S
C956 C957 1.414 . S
C956 C959 1.499 . S
C957 H931 0.950 . S
C957 C956 1.414 . S
C957 C958 1.374 . S
C958 H932 0.950 . S
C958 C954 1.385 . S
C958 C957 1.374 . S
C959 C956 1.499 . S
C959 C960 1.373 . S
C959 C961 1.389 . S
C960 H933 0.950 . S
C960 C946 1.377 . S
C960 C959 1.373 . S
C961 C945 1.377 . S
C961 C959 1.389 . S
C961 C962 1.524 . S
C962 C961 1.524 . S
C962 C963 1.397 1_556 S
C962 C967 1.363 . S
C963 H934 0.950 . S
C963 C962 1.397 1_554 S
C963 C964 1.334 . S
C964 H935 0.950 . S
C964 C963 1.334 . S
C964 C965 1.287 . S
C965 C964 1.287 . S
C965 C966 1.524 . S
C965 H968 0.999 . S
C966 H936 0.950 1_554 S
C966 C965 1.524 . S
C966 C967 1.415 1_554 S
C967 H937 0.950 . S
C967 C962 1.363 . S
C967 C966 1.415 1_556 S
H968 C965 0.999 . S
H969 C950 0.913 . S
H970 C988 0.951 . S
H971 C990 0.951 . S
H972 C992 0.950 . S
H973 C993 0.950 . S
H974 C995 0.950 1_554 S
H975 C998 0.950 . S
H976 C999 0.950 . S
H977 C1001 0.950 . S
H978 C1002 0.950 . S
H979 C1003 0.951 . S
H980 C1005 0.951 . S
H981 C1007 0.950 . S
H982 C1008 0.950 . S
H983 C1010 0.950 . S
H984 C1013 0.950 . S
H985 C1014 0.950 . S
H986 C1016 0.950 . S
H987 C1017 0.950 . S
C988 H970 0.951 . S
C988 C989 1.366 . S
C988 C990 1.388 . S
C989 C988 1.366 . S
C989 C993 1.385 . S
C990 H971 0.951 . S
C990 C988 1.388 . S
C990 C991 1.366 . S
C991 C990 1.366 . S
C991 C992 1.414 . S
C991 C994 1.499 . S
C992 H972 0.950 . S
C992 C991 1.414 . S
C992 C993 1.374 . S
C993 H973 0.950 . S
C993 C989 1.385 . S
C993 C992 1.374 . S
C994 C991 1.499 . S
C994 C995 1.373 . S
C994 C996 1.389 . S
C995 H974 0.950 1_556 S
C995 C994 1.373 . S
C995 C1011 1.377 . S
C996 C994 1.389 . S
C996 C997 1.524 . S
C996 C1010 1.377 . S
C997 C996 1.524 . S
C997 C998 1.397 . S
C997 C1002 1.363 . S
C998 H975 0.950 . S
C998 C997 1.397 . S
C998 C999 1.334 . S
C999 H976 0.950 . S
C999 C998 1.334 . S
C999 C1000 1.287 . S
C1000 C999 1.287 . S
C1000 C1001 1.524 . S
C1000 H1019 0.913 . S
C1001 H977 0.950 . S
C1001 C1000 1.524 . S
C1001 C1002 1.415 . S
C1002 H978 0.950 . S
C1002 C997 1.363 . S
C1002 C1001 1.415 . S
C1003 H979 0.951 . S
C1003 C1004 1.366 1_554 S
C1003 C1005 1.388 . S
C1004 C1003 1.366 1_556 S
C1004 C1008 1.385 . S
C1005 H980 0.951 . S
C1005 C1003 1.388 . S
C1005 C1006 1.366 1_554 S
C1006 C1005 1.366 1_556 S
C1006 C1007 1.414 . S
C1006 C1009 1.499 . S
C1007 H981 0.950 . S
C1007 C1006 1.414 . S
C1007 C1008 1.374 . S
C1008 H982 0.950 . S
C1008 C1004 1.385 . S
C1008 C1007 1.374 . S
C1009 C1006 1.499 . S
C1009 C1010 1.373 . S
C1009 C1011 1.389 . S
C1010 H983 0.950 . S
C1010 C996 1.377 . S
C1010 C1009 1.373 . S
C1011 C995 1.377 . S
C1011 C1009 1.389 . S
C1011 C1012 1.524 1_556 S
C1012 C1011 1.524 1_554 S
C1012 C1013 1.397 . S
C1012 C1017 1.363 . S
C1013 H984 0.950 . S
C1013 C1012 1.397 . S
C1013 C1014 1.334 . S
C1014 H985 0.950 . S
C1014 C1013 1.334 . S
C1014 C1015 1.287 . S
C1015 C1014 1.287 . S
C1015 C1016 1.524 . S
C1015 H1018 0.999 . S
C1016 H986 0.950 . S
C1016 C1015 1.524 . S
C1016 C1017 1.415 . S
C1017 H987 0.950 . S
C1017 C1012 1.363 . S
C1017 C1016 1.415 . S
H1018 C1015 0.999 . S
H1019 C1000 0.913 . S
H1020 C1038 0.951 . S
H1021 C1040 0.951 . S
H1022 C1042 0.950 . S
H1023 C1043 0.950 . S
H1024 C1045 0.950 . S
H1025 C1048 0.950 . S
H1026 C1049 0.950 . S
H1027 C1051 0.950 . S
H1028 C1052 0.950 . S
H1029 C1053 0.951 . S
H1030 C1055 0.951 . S
H1031 C1057 0.950 . S
H1032 C1058 0.950 . S
H1033 C1060 0.950 . S
H1034 C1063 0.950 . S
H1035 C1064 0.950 . S
H1036 C1066 0.950 . S
H1037 C1067 0.950 . S
C1038 H1020 0.951 . S
C1038 C1039 1.366 . S
C1038 C1040 1.388 . S
C1039 C1038 1.366 . S
C1039 C1043 1.385 . S
C1040 H1021 0.951 . S
C1040 C1038 1.388 . S
C1040 C1041 1.366 . S
C1041 C1040 1.366 . S
C1041 C1042 1.414 . S
C1041 C1044 1.499 . S
C1042 H1022 0.950 . S
C1042 C1041 1.414 . S
C1042 C1043 1.374 . S
C1043 H1023 0.950 . S
C1043 C1039 1.385 . S
C1043 C1042 1.374 . S
C1044 C1041 1.499 . S
C1044 C1045 1.373 . S
C1044 C1046 1.389 . S
C1045 H1024 0.950 . S
C1045 C1044 1.373 . S
C1045 C1061 1.377 . S
C1046 C1044 1.389 . S
C1046 C1047 1.524 . S
C1046 C1060 1.377 . S
C1047 C1046 1.524 . S
C1047 C1048 1.397 . S
C1047 C1052 1.363 . S
C1048 H1025 0.950 . S
C1048 C1047 1.397 . S
C1048 C1049 1.334 . S
C1049 H1026 0.950 . S
C1049 C1048 1.334 . S
C1049 C1050 1.287 . S
C1050 C1049 1.287 . S
C1050 C1051 1.524 . S
C1050 H1069 0.913 . S
C1051 H1027 0.950 . S
C1051 C1050 1.524 . S
C1051 C1052 1.415 . S
C1052 H1028 0.950 . S
C1052 C1047 1.363 . S
C1052 C1051 1.415 . S
C1053 H1029 0.951 . S
C1053 C1054 1.366 . S
C1053 C1055 1.388 . S
C1054 C1053 1.366 . S
C1054 C1058 1.385 . S
C1055 H1030 0.951 . S
C1055 C1053 1.388 . S
C1055 C1056 1.366 . S
C1056 C1055 1.366 . S
C1056 C1057 1.414 . S
C1056 C1059 1.499 . S
C1057 H1031 0.950 . S
C1057 C1056 1.414 . S
C1057 C1058 1.374 . S
C1058 H1032 0.950 . S
C1058 C1054 1.385 . S
C1058 C1057 1.374 . S
C1059 C1056 1.499 . S
C1059 C1060 1.373 . S
C1059 C1061 1.389 . S
C1060 H1033 0.950 . S
C1060 C1046 1.377 . S
C1060 C1059 1.373 . S
C1061 C1045 1.377 . S
C1061 C1059 1.389 . S
C1061 C1062 1.524 . S
C1062 C1061 1.524 . S
C1062 C1063 1.397 . S
C1062 C1067 1.363 . S
C1063 H1034 0.950 . S
C1063 C1062 1.397 . S
C1063 C1064 1.334 . S
C1064 H1035 0.950 . S
C1064 C1063 1.334 . S
C1064 C1065 1.287 . S
C1065 C1064 1.287 . S
C1065 C1066 1.524 . S
C1065 H1068 0.999 . S
C1066 H1036 0.950 . S
C1066 C1065 1.524 . S
C1066 C1067 1.415 . S
C1067 H1037 0.950 . S
C1067 C1062 1.363 . S
C1067 C1066 1.415 . S
H1068 C1065 0.999 . S
H1069 C1050 0.913 . S
H1070 C1088 0.951 . S
H1071 C1090 0.951 . S
H1072 C1092 0.950 . S
H1073 C1093 0.950 . S
H1074 C1095 0.950 . S
H1075 C1098 0.950 . S
H1076 C1099 0.950 . S
H1077 C1101 0.950 . S
H1078 C1102 0.950 . S
H1079 C1103 0.951 . S
H1080 C1105 0.951 . S
H1081 C1107 0.950 . S
H1082 C1108 0.950 . S
H1083 C1110 0.950 . S
H1084 C1113 0.950 . S
H1085 C1114 0.950 . S
H1086 C1116 0.950 . S
H1087 C1117 0.950 . S
C1088 H1070 0.951 . S
C1088 C1089 1.366 . S
C1088 C1090 1.388 . S
C1089 C1088 1.366 . S
C1089 C1093 1.385 . S
C1090 H1071 0.951 . S
C1090 C1088 1.388 . S
C1090 C1091 1.366 . S
C1091 C1090 1.366 . S
C1091 C1092 1.414 . S
C1091 C1094 1.499 . S
C1092 H1072 0.950 . S
C1092 C1091 1.414 . S
C1092 C1093 1.374 . S
C1093 H1073 0.950 . S
C1093 C1089 1.385 . S
C1093 C1092 1.374 . S
C1094 C1091 1.499 . S
C1094 C1095 1.373 . S
C1094 C1096 1.389 . S
C1095 H1074 0.950 . S
C1095 C1094 1.373 . S
C1095 C1111 1.377 . S
C1096 C1094 1.389 . S
C1096 C1097 1.524 . S
C1096 C1110 1.377 . S
C1097 C1096 1.524 . S
C1097 C1098 1.397 . S
C1097 C1102 1.363 . S
C1098 H1075 0.950 . S
C1098 C1097 1.397 . S
C1098 C1099 1.334 . S
C1099 H1076 0.950 . S
C1099 C1098 1.334 . S
C1099 C1100 1.287 . S
C1100 C1099 1.287 . S
C1100 C1101 1.524 . S
C1100 H1119 0.913 . S
C1101 H1077 0.950 . S
C1101 C1100 1.524 . S
C1101 C1102 1.415 . S
C1102 H1078 0.950 . S
C1102 C1097 1.363 . S
C1102 C1101 1.415 . S
C1103 H1079 0.951 . S
C1103 C1104 1.366 . S
C1103 C1105 1.388 . S
C1104 C1103 1.366 . S
C1104 C1108 1.385 . S
C1105 H1080 0.951 . S
C1105 C1103 1.388 . S
C1105 C1106 1.366 . S
C1106 C1105 1.366 . S
C1106 C1107 1.414 . S
C1106 C1109 1.499 . S
C1107 H1081 0.950 . S
C1107 C1106 1.414 . S
C1107 C1108 1.374 . S
C1108 H1082 0.950 . S
C1108 C1104 1.385 . S
C1108 C1107 1.374 . S
C1109 C1106 1.499 . S
C1109 C1110 1.373 . S
C1109 C1111 1.389 . S
C1110 H1083 0.950 . S
C1110 C1096 1.377 . S
C1110 C1109 1.373 . S
C1111 C1095 1.377 . S
C1111 C1109 1.389 . S
C1111 C1112 1.524 . S
C1112 C1111 1.524 . S
C1112 C1113 1.397 . S
C1112 C1117 1.363 . S
C1113 H1084 0.950 . S
C1113 C1112 1.397 . S
C1113 C1114 1.334 . S
C1114 H1085 0.950 . S
C1114 C1113 1.334 . S
C1114 C1115 1.287 . S
C1115 C1114 1.287 . S
C1115 C1116 1.524 . S
C1115 H1118 0.999 . S
C1116 H1086 0.950 . S
C1116 C1115 1.524 . S
C1116 C1117 1.415 . S
C1117 H1087 0.950 . S
C1117 C1112 1.363 . S
C1117 C1116 1.415 . S
H1118 C1115 0.999 . S
H1119 C1100 0.913 . S
H1120 C1138 0.951 . S
H1121 C1140 0.951 . S
H1122 C1142 0.950 . S
H1123 C1143 0.950 . S
H1124 C1145 0.950 . S
H1125 C1148 0.950 . S
H1126 C1149 0.950 . S
H1127 C1151 0.950 . S
H1128 C1152 0.950 . S
H1129 C1153 0.951 . S
H1130 C1155 0.951 . S
H1131 C1157 0.950 . S
H1132 C1158 0.950 . S
H1133 C1160 0.950 . S
H1134 C1163 0.950 . S
H1135 C1164 0.950 . S
H1136 C1166 0.950 . S
H1137 C1167 0.950 . S
C1138 H1120 0.951 . S
C1138 C1139 1.366 . S
C1138 C1140 1.388 . S
C1139 C1138 1.366 . S
C1139 C1143 1.385 . S
C1140 H1121 0.951 . S
C1140 C1138 1.388 . S
C1140 C1141 1.366 . S
C1141 C1140 1.366 . S
C1141 C1142 1.414 . S
C1141 C1144 1.499 . S
C1142 H1122 0.950 . S
C1142 C1141 1.414 . S
C1142 C1143 1.374 . S
C1143 H1123 0.950 . S
C1143 C1139 1.385 . S
C1143 C1142 1.374 . S
C1144 C1141 1.499 . S
C1144 C1145 1.373 . S
C1144 C1146 1.389 . S
C1145 H1124 0.950 . S
C1145 C1144 1.373 . S
C1145 C1161 1.377 . S
C1146 C1144 1.389 . S
C1146 C1147 1.524 . S
C1146 C1160 1.377 . S
C1147 C1146 1.524 . S
C1147 C1148 1.397 . S
C1147 C1152 1.363 . S
C1148 H1125 0.950 . S
C1148 C1147 1.397 . S
C1148 C1149 1.334 . S
C1149 H1126 0.950 . S
C1149 C1148 1.334 . S
C1149 C1150 1.287 . S
C1150 C1149 1.287 . S
C1150 C1151 1.524 . S
C1150 H1169 0.913 . S
C1151 H1127 0.950 . S
C1151 C1150 1.524 . S
C1151 C1152 1.415 . S
C1152 H1128 0.950 . S
C1152 C1147 1.363 . S
C1152 C1151 1.415 . S
C1153 H1129 0.951 . S
C1153 C1154 1.366 . S
C1153 C1155 1.388 . S
C1154 C1153 1.366 . S
C1154 C1158 1.385 . S
C1155 H1130 0.951 . S
C1155 C1153 1.388 . S
C1155 C1156 1.366 . S
C1156 C1155 1.366 . S
C1156 C1157 1.414 . S
C1156 C1159 1.499 . S
C1157 H1131 0.950 . S
C1157 C1156 1.414 . S
C1157 C1158 1.374 . S
C1158 H1132 0.950 . S
C1158 C1154 1.385 . S
C1158 C1157 1.374 . S
C1159 C1156 1.499 . S
C1159 C1160 1.373 . S
C1159 C1161 1.389 . S
C1160 H1133 0.950 . S
C1160 C1146 1.377 . S
C1160 C1159 1.373 . S
C1161 C1145 1.377 . S
C1161 C1159 1.389 . S
C1161 C1162 1.524 . S
C1162 C1161 1.524 . S
C1162 C1163 1.397 . S
C1162 C1167 1.363 . S
C1163 H1134 0.950 . S
C1163 C1162 1.397 . S
C1163 C1164 1.334 . S
C1164 H1135 0.950 . S
C1164 C1163 1.334 . S
C1164 C1165 1.287 . S
C1165 C1164 1.287 . S
C1165 C1166 1.524 . S
C1165 H1168 0.999 . S
C1166 H1136 0.950 . S
C1166 C1165 1.524 . S
C1166 C1167 1.415 . S
C1167 H1137 0.950 . S
C1167 C1162 1.363 . S
C1167 C1166 1.415 . S
H1168 C1165 0.999 . S
H1169 C1150 0.913 . S
H1170 C1188 0.951 . S
H1171 C1190 0.951 . S
H1172 C1192 0.950 1_556 S
H1173 C1193 0.950 . S
H1174 C1195 0.950 1_556 S
H1175 C1198 0.950 . S
H1176 C1199 0.950 . S
H1177 C1201 0.950 . S
H1178 C1202 0.950 . S
H1179 C1203 0.951 . S
H1180 C1205 0.951 . S
H1181 C1207 0.950 . S
H1182 C1208 0.950 . S
H1183 C1210 0.950 . S
H1184 C1213 0.950 1_554 S
H1185 C1214 0.950 . S
H1186 C1216 0.950 . S
H1187 C1217 0.950 . S
C1188 H1170 0.951 . S
C1188 C1189 1.366 . S
C1188 C1190 1.388 . S
C1189 C1188 1.366 . S
C1189 C1193 1.385 1_554 S
C1190 H1171 0.951 . S
C1190 C1188 1.388 . S
C1190 C1191 1.366 . S
C1191 C1190 1.366 . S
C1191 C1192 1.414 . S
C1191 C1194 1.499 . S
C1192 H1172 0.950 1_554 S
C1192 C1191 1.414 . S
C1192 C1193 1.374 1_554 S
C1193 H1173 0.950 . S
C1193 C1189 1.385 1_556 S
C1193 C1192 1.374 1_556 S
C1194 C1191 1.499 . S
C1194 C1195 1.373 . S
C1194 C1196 1.389 . S
C1195 H1174 0.950 1_554 S
C1195 C1194 1.373 . S
C1195 C1211 1.377 . S
C1196 C1194 1.389 . S
C1196 C1197 1.524 . S
C1196 C1210 1.377 . S
C1197 C1196 1.524 . S
C1197 C1198 1.397 . S
C1197 C1202 1.363 . S
C1198 H1175 0.950 . S
C1198 C1197 1.397 . S
C1198 C1199 1.334 . S
C1199 H1176 0.950 . S
C1199 C1198 1.334 . S
C1199 C1200 1.287 . S
C1200 C1199 1.287 . S
C1200 C1201 1.524 . S
C1200 H1219 0.913 . S
C1201 H1177 0.950 . S
C1201 C1200 1.524 . S
C1201 C1202 1.415 . S
C1202 H1178 0.950 . S
C1202 C1197 1.363 . S
C1202 C1201 1.415 . S
C1203 H1179 0.951 . S
C1203 C1204 1.366 . S
C1203 C1205 1.388 . S
C1204 C1203 1.366 . S
C1204 C1208 1.385 . S
C1205 H1180 0.951 . S
C1205 C1203 1.388 . S
C1205 C1206 1.366 . S
C1206 C1205 1.366 . S
C1206 C1207 1.414 . S
C1206 C1209 1.499 . S
C1207 H1181 0.950 . S
C1207 C1206 1.414 . S
C1207 C1208 1.374 . S
C1208 H1182 0.950 . S
C1208 C1204 1.385 . S
C1208 C1207 1.374 . S
C1209 C1206 1.499 . S
C1209 C1210 1.373 . S
C1209 C1211 1.389 . S
C1210 H1183 0.950 . S
C1210 C1196 1.377 . S
C1210 C1209 1.373 . S
C1211 C1195 1.377 . S
C1211 C1209 1.389 . S
C1211 C1212 1.524 1_554 S
C1212 C1211 1.524 1_556 S
C1212 C1213 1.397 . S
C1212 C1217 1.363 . S
C1213 H1184 0.950 1_556 S
C1213 C1212 1.397 . S
C1213 C1214 1.334 . S
C1214 H1185 0.950 . S
C1214 C1213 1.334 . S
C1214 C1215 1.287 . S
C1215 C1214 1.287 . S
C1215 C1216 1.524 . S
C1215 H1218 0.999 . S
C1216 H1186 0.950 . S
C1216 C1215 1.524 . S
C1216 C1217 1.415 . S
C1217 H1187 0.950 . S
C1217 C1212 1.363 . S
C1217 C1216 1.415 . S
H1218 C1215 0.999 . S
H1219 C1200 0.913 . S
H1220 C1238 0.951 . S
H1221 C1240 0.951 . S
H1222 C1242 0.950 . S
H1223 C1243 0.950 . S
H1224 C1245 0.950 . S
H1225 C1248 0.950 . S
H1226 C1249 0.950 . S
H1227 C1251 0.950 . S
H1228 C1252 0.950 . S
H1229 C1253 0.951 . S
H1230 C1255 0.951 . S
H1231 C1257 0.950 . S
H1232 C1258 0.950 1_556 S
H1233 C1260 0.950 . S
H1234 C1263 0.950 . S
H1235 C1264 0.950 . S
H1236 C1266 0.950 . S
H1237 C1267 0.950 . S
C1238 H1220 0.951 . S
C1238 C1239 1.366 . S
C1238 C1240 1.388 . S
C1239 C1238 1.366 . S
C1239 C1243 1.385 . S
C1240 H1221 0.951 . S
C1240 C1238 1.388 . S
C1240 C1241 1.366 . S
C1241 C1240 1.366 . S
C1241 C1242 1.414 . S
C1241 C1244 1.499 . S
C1242 H1222 0.950 . S
C1242 C1241 1.414 . S
C1242 C1243 1.374 . S
C1243 H1223 0.950 . S
C1243 C1239 1.385 . S
C1243 C1242 1.374 . S
C1244 C1241 1.499 . S
C1244 C1245 1.373 . S
C1244 C1246 1.389 . S
C1245 H1224 0.950 . S
C1245 C1244 1.373 . S
C1245 C1261 1.377 . S
C1246 C1244 1.389 . S
C1246 C1247 1.524 . S
C1246 C1260 1.377 . S
C1247 C1246 1.524 . S
C1247 C1248 1.397 . S
C1247 C1252 1.363 . S
C1248 H1225 0.950 . S
C1248 C1247 1.397 . S
C1248 C1249 1.334 . S
C1249 H1226 0.950 . S
C1249 C1248 1.334 . S
C1249 C1250 1.287 . S
C1250 C1249 1.287 . S
C1250 C1251 1.524 . S
C1250 H1269 0.913 . S
C1251 H1227 0.950 . S
C1251 C1250 1.524 . S
C1251 C1252 1.415 . S
C1252 H1228 0.950 . S
C1252 C1247 1.363 . S
C1252 C1251 1.415 . S
C1253 H1229 0.951 . S
C1253 C1254 1.366 . S
C1253 C1255 1.388 . S
C1254 C1253 1.366 . S
C1254 C1258 1.385 . S
C1255 H1230 0.951 . S
C1255 C1253 1.388 . S
C1255 C1256 1.366 . S
C1256 C1255 1.366 . S
C1256 C1257 1.414 . S
C1256 C1259 1.499 . S
C1257 H1231 0.950 . S
C1257 C1256 1.414 . S
C1257 C1258 1.374 . S
C1258 H1232 0.950 1_554 S
C1258 C1254 1.385 . S
C1258 C1257 1.374 . S
C1259 C1256 1.499 . S
C1259 C1260 1.373 . S
C1259 C1261 1.389 . S
C1260 H1233 0.950 . S
C1260 C1246 1.377 . S
C1260 C1259 1.373 . S
C1261 C1245 1.377 . S
C1261 C1259 1.389 . S
C1261 C1262 1.524 1_554 S
C1262 C1261 1.524 1_556 S
C1262 C1263 1.397 . S
C1262 C1267 1.363 1_556 S
C1263 H1234 0.950 . S
C1263 C1262 1.397 . S
C1263 C1264 1.334 . S
C1264 H1235 0.950 . S
C1264 C1263 1.334 . S
C1264 C1265 1.287 . S
C1265 C1264 1.287 . S
C1265 C1266 1.524 . S
C1265 H1268 0.999 . S
C1266 H1236 0.950 . S
C1266 C1265 1.524 . S
C1266 C1267 1.415 1_556 S
C1267 H1237 0.950 . S
C1267 C1262 1.363 1_554 S
C1267 C1266 1.415 1_554 S
H1268 C1265 0.999 . S
H1269 C1250 0.913 . S
H1270 C1288 0.951 . S
H1271 C1290 0.951 . S
H1272 C1292 0.950 . S
H1273 C1293 0.950 . S
H1274 C1295 0.950 1_556 S
H1275 C1298 0.950 . S
H1276 C1299 0.950 . S
H1277 C1301 0.950 . S
H1278 C1302 0.950 . S
H1279 C1303 0.951 . S
H1280 C1305 0.951 . S
H1281 C1307 0.950 . S
H1282 C1308 0.950 . S
H1283 C1310 0.950 . S
H1284 C1313 0.950 1_554 S
H1285 C1314 0.950 . S
H1286 C1316 0.950 . S
H1287 C1317 0.950 . S
C1288 H1270 0.951 . S
C1288 C1289 1.366 . S
C1288 C1290 1.388 . S
C1289 C1288 1.366 . S
C1289 C1293 1.385 1_554 S
C1290 H1271 0.951 . S
C1290 C1288 1.388 . S
C1290 C1291 1.366 . S
C1291 C1290 1.366 . S
C1291 C1292 1.414 1_554 S
C1291 C1294 1.499 . S
C1292 H1272 0.950 . S
C1292 C1291 1.414 1_556 S
C1292 C1293 1.374 . S
C1293 H1273 0.950 . S
C1293 C1289 1.385 1_556 S
C1293 C1292 1.374 . S
C1294 C1291 1.499 . S
C1294 C1295 1.373 . S
C1294 C1296 1.389 . S
C1295 H1274 0.950 1_554 S
C1295 C1294 1.373 . S
C1295 C1311 1.377 . S
C1296 C1294 1.389 . S
C1296 C1297 1.524 . S
C1296 C1310 1.377 . S
C1297 C1296 1.524 . S
C1297 C1298 1.397 . S
C1297 C1302 1.363 . S
C1298 H1275 0.950 . S
C1298 C1297 1.397 . S
C1298 C1299 1.334 . S
C1299 H1276 0.950 . S
C1299 C1298 1.334 . S
C1299 C1300 1.287 . S
C1300 C1299 1.287 . S
C1300 C1301 1.524 . S
C1300 H1319 0.913 . S
C1301 H1277 0.950 . S
C1301 C1300 1.524 . S
C1301 C1302 1.415 . S
C1302 H1278 0.950 . S
C1302 C1297 1.363 . S
C1302 C1301 1.415 . S
C1303 H1279 0.951 . S
C1303 C1304 1.366 . S
C1303 C1305 1.388 . S
C1304 C1303 1.366 . S
C1304 C1308 1.385 . S
C1305 H1280 0.951 . S
C1305 C1303 1.388 . S
C1305 C1306 1.366 . S
C1306 C1305 1.366 . S
C1306 C1307 1.414 . S
C1306 C1309 1.499 . S
C1307 H1281 0.950 . S
C1307 C1306 1.414 . S
C1307 C1308 1.374 . S
C1308 H1282 0.950 . S
C1308 C1304 1.385 . S
C1308 C1307 1.374 . S
C1309 C1306 1.499 . S
C1309 C1310 1.373 . S
C1309 C1311 1.389 . S
C1310 H1283 0.950 . S
C1310 C1296 1.377 . S
C1310 C1309 1.373 . S
C1311 C1295 1.377 . S
C1311 C1309 1.389 . S
C1311 C1312 1.524 1_554 S
C1312 C1311 1.524 1_556 S
C1312 C1313 1.397 . S
C1312 C1317 1.363 . S
C1313 H1284 0.950 1_556 S
C1313 C1312 1.397 . S
C1313 C1314 1.334 . S
C1314 H1285 0.950 . S
C1314 C1313 1.334 . S
C1314 C1315 1.287 . S
C1315 C1314 1.287 . S
C1315 C1316 1.524 . S
C1315 H1318 0.999 . S
C1316 H1286 0.950 . S
C1316 C1315 1.524 . S
C1316 C1317 1.415 . S
C1317 H1287 0.950 . S
C1317 C1312 1.363 . S
C1317 C1316 1.415 . S
H1318 C1315 0.999 . S
H1319 C1300 0.913 . S
H1320 C1338 0.951 . S
H1321 C1340 0.951 . S
H1322 C1342 0.950 . S
H1323 C1343 0.950 . S
H1324 C1345 0.950 . S
H1325 C1348 0.950 . S
H1326 C1349 0.950 . S
H1327 C1351 0.950 . S
H1328 C1352 0.950 . S
H1329 C1353 0.951 . S
H1330 C1355 0.951 . S
H1331 C1357 0.950 . S
H1332 C1358 0.950 . S
H1333 C1360 0.950 . S
H1334 C1363 0.950 . S
H1335 C1364 0.950 . S
H1336 C1366 0.950 . S
H1337 C1367 0.950 . S
C1338 H1320 0.951 . S
C1338 C1339 1.366 . S
C1338 C1340 1.388 1_655 S
C1339 C1338 1.366 . S
C1339 C1343 1.385 . S
C1340 H1321 0.951 . S
C1340 C1338 1.388 1_455 S
C1340 C1341 1.366 . S
C1341 C1340 1.366 . S
C1341 C1342 1.414 . S
C1341 C1344 1.499 . S
C1342 H1322 0.950 . S
C1342 C1341 1.414 . S
C1342 C1343 1.374 1_455 S
C1343 H1323 0.950 . S
C1343 C1339 1.385 . S
C1343 C1342 1.374 1_655 S
C1344 C1341 1.499 . S
C1344 C1345 1.373 . S
C1344 C1346 1.389 . S
C1345 H1324 0.950 . S
C1345 C1344 1.373 . S
C1345 C1361 1.377 . S
C1346 C1344 1.389 . S
C1346 C1347 1.524 . S
C1346 C1360 1.377 . S
C1347 C1346 1.524 . S
C1347 C1348 1.397 . S
C1347 C1352 1.363 . S
C1348 H1325 0.950 . S
C1348 C1347 1.397 . S
C1348 C1349 1.334 . S
C1349 H1326 0.950 . S
C1349 C1348 1.334 . S
C1349 C1350 1.287 . S
C1350 C1349 1.287 . S
C1350 C1351 1.524 . S
C1350 H1369 0.913 . S
C1351 H1327 0.950 . S
C1351 C1350 1.524 . S
C1351 C1352 1.415 . S
C1352 H1328 0.950 . S
C1352 C1347 1.363 . S
C1352 C1351 1.415 . S
C1353 H1329 0.951 . S
C1353 C1354 1.366 . S
C1353 C1355 1.388 . S
C1354 C1353 1.366 . S
C1354 C1358 1.385 . S
C1355 H1330 0.951 . S
C1355 C1353 1.388 . S
C1355 C1356 1.366 . S
C1356 C1355 1.366 . S
C1356 C1357 1.414 . S
C1356 C1359 1.499 . S
C1357 H1331 0.950 . S
C1357 C1356 1.414 . S
C1357 C1358 1.374 . S
C1358 H1332 0.950 . S
C1358 C1354 1.385 . S
C1358 C1357 1.374 . S
C1359 C1356 1.499 . S
C1359 C1360 1.373 . S
C1359 C1361 1.389 . S
C1360 H1333 0.950 . S
C1360 C1346 1.377 . S
C1360 C1359 1.373 . S
C1361 C1345 1.377 . S
C1361 C1359 1.389 . S
C1361 C1362 1.524 . S
C1362 C1361 1.524 . S
C1362 C1363 1.397 . S
C1362 C1367 1.363 . S
C1363 H1334 0.950 . S
C1363 C1362 1.397 . S
C1363 C1364 1.334 . S
C1364 H1335 0.950 . S
C1364 C1363 1.334 . S
C1364 C1365 1.287 . S
C1365 C1364 1.287 . S
C1365 C1366 1.524 . S
C1365 H1368 0.999 . S
C1366 H1336 0.950 . S
C1366 C1365 1.524 . S
C1366 C1367 1.415 . S
C1367 H1337 0.950 . S
C1367 C1362 1.363 . S
C1367 C1366 1.415 . S
H1368 C1365 0.999 . S
H1369 C1350 0.913 . S
H1370 C1388 0.951 . S
H1371 C1390 0.951 . S
H1372 C1392 0.950 . S
H1373 C1393 0.950 . S
H1374 C1395 0.950 . S
H1375 C1398 0.950 . S
H1376 C1399 0.950 . S
H1377 C1401 0.950 . S
H1378 C1402 0.950 . S
H1379 C1403 0.951 . S
H1380 C1405 0.951 . S
H1381 C1407 0.950 . S
H1382 C1408 0.950 . S
H1383 C1410 0.950 . S
H1384 C1413 0.950 . S
H1385 C1414 0.950 . S
H1386 C1416 0.950 . S
H1387 C1417 0.950 . S
C1388 H1370 0.951 . S
C1388 C1389 1.366 . S
C1388 C1390 1.388 . S
C1389 C1388 1.366 . S
C1389 C1393 1.385 . S
C1390 H1371 0.951 . S
C1390 C1388 1.388 . S
C1390 C1391 1.366 . S
C1391 C1390 1.366 . S
C1391 C1392 1.414 . S
C1391 C1394 1.499 . S
C1392 H1372 0.950 . S
C1392 C1391 1.414 . S
C1392 C1393 1.374 . S
C1393 H1373 0.950 . S
C1393 C1389 1.385 . S
C1393 C1392 1.374 . S
C1394 C1391 1.499 . S
C1394 C1395 1.373 . S
C1394 C1396 1.389 . S
C1395 H1374 0.950 . S
C1395 C1394 1.373 . S
C1395 C1411 1.377 . S
C1396 C1394 1.389 . S
C1396 C1397 1.524 . S
C1396 C1410 1.377 . S
C1397 C1396 1.524 . S
C1397 C1398 1.397 . S
C1397 C1402 1.363 . S
C1398 H1375 0.950 . S
C1398 C1397 1.397 . S
C1398 C1399 1.334 . S
C1399 H1376 0.950 . S
C1399 C1398 1.334 . S
C1399 C1400 1.287 . S
C1400 C1399 1.287 . S
C1400 C1401 1.524 . S
C1400 H1419 0.913 . S
C1401 H1377 0.950 . S
C1401 C1400 1.524 . S
C1401 C1402 1.415 . S
C1402 H1378 0.950 . S
C1402 C1397 1.363 . S
C1402 C1401 1.415 . S
C1403 H1379 0.951 . S
C1403 C1404 1.366 . S
C1403 C1405 1.388 . S
C1404 C1403 1.366 . S
C1404 C1408 1.385 . S
C1405 H1380 0.951 . S
C1405 C1403 1.388 . S
C1405 C1406 1.366 . S
C1406 C1405 1.366 . S
C1406 C1407 1.414 . S
C1406 C1409 1.499 . S
C1407 H1381 0.950 . S
C1407 C1406 1.414 . S
C1407 C1408 1.374 . S
C1408 H1382 0.950 . S
C1408 C1404 1.385 . S
C1408 C1407 1.374 . S
C1409 C1406 1.499 . S
C1409 C1410 1.373 . S
C1409 C1411 1.389 . S
C1410 H1383 0.950 . S
C1410 C1396 1.377 . S
C1410 C1409 1.373 . S
C1411 C1395 1.377 . S
C1411 C1409 1.389 . S
C1411 C1412 1.524 . S
C1412 C1411 1.524 . S
C1412 C1413 1.397 . S
C1412 C1417 1.363 . S
C1413 H1384 0.950 . S
C1413 C1412 1.397 . S
C1413 C1414 1.334 . S
C1414 H1385 0.950 . S
C1414 C1413 1.334 . S
C1414 C1415 1.287 . S
C1415 C1414 1.287 . S
C1415 C1416 1.524 . S
C1415 H1418 0.999 . S
C1416 H1386 0.950 . S
C1416 C1415 1.524 . S
C1416 C1417 1.415 . S
C1417 H1387 0.950 . S
C1417 C1412 1.363 . S
C1417 C1416 1.415 . S
H1418 C1415 0.999 . S
H1419 C1400 0.913 . S
H1420 C1438 0.951 . S
H1421 C1440 0.951 . S
H1422 C1442 0.950 . S
H1423 C1443 0.950 . S
H1424 C1445 0.950 . S
H1425 C1448 0.950 . S
H1426 C1449 0.950 . S
H1427 C1451 0.952 . S
H1428 C1452 0.950 . S
H1429 C1453 0.951 . S
H1430 C1455 0.951 . S
H1431 C1457 0.950 . S
H1432 C1458 0.950 . S
H1433 C1460 0.950 . S
H1434 C1463 0.950 . S
H1435 C1464 0.950 . S
H1436 C1466 0.950 . S
H1437 C1467 0.950 . S
C1438 H1420 0.951 . S
C1438 C1439 1.366 . S
C1438 C1440 1.388 . S
C1439 C1438 1.366 . S
C1439 C1443 1.385 . S
C1440 H1421 0.951 . S
C1440 C1438 1.388 . S
C1440 C1441 1.366 . S
C1441 C1440 1.366 . S
C1441 C1442 1.414 . S
C1441 C1444 1.499 . S
C1442 H1422 0.950 . S
C1442 C1441 1.414 . S
C1442 C1443 1.374 . S
C1443 H1423 0.950 . S
C1443 C1439 1.385 . S
C1443 C1442 1.374 . S
C1444 C1441 1.499 . S
C1444 C1445 1.373 . S
C1444 C1446 1.389 1_545 S
C1445 H1424 0.950 . S
C1445 C1444 1.373 . S
C1445 C1461 1.377 1_545 S
C1446 C1444 1.389 1_565 S
C1446 C1447 1.524 1_565 S
C1446 C1460 1.377 . S
C1447 C1446 1.524 1_545 S
C1447 C1448 1.397 . S
C1447 C1452 1.363 1_545 S
C1448 H1425 0.950 . S
C1448 C1447 1.397 . S
C1448 C1449 1.334 . S
C1449 H1426 0.950 . S
C1449 C1448 1.334 . S
C1449 C1450 1.287 . S
C1450 C1449 1.287 . S
C1450 C1451 1.521 1_545 S
C1450 H1469 0.913 1_554 S
C1451 H1427 0.952 . S
C1451 C1450 1.521 1_565 S
C1451 C1452 1.415 . S
C1452 H1428 0.950 . S
C1452 C1447 1.363 1_565 S
C1452 C1451 1.415 . S
C1453 H1429 0.951 . S
C1453 C1454 1.366 . S
C1453 C1455 1.388 . S
C1454 C1453 1.366 . S
C1454 C1458 1.385 . S
C1455 H1430 0.951 . S
C1455 C1453 1.388 . S
C1455 C1456 1.366 . S
C1456 C1455 1.366 . S
C1456 C1457 1.414 . S
C1456 C1459 1.499 . S
C1457 H1431 0.950 . S
C1457 C1456 1.414 . S
C1457 C1458 1.374 . S
C1458 H1432 0.950 . S
C1458 C1454 1.385 . S
C1458 C1457 1.374 . S
C1459 C1456 1.499 . S
C1459 C1460 1.373 . S
C1459 C1461 1.389 . S
C1460 H1433 0.950 . S
C1460 C1446 1.377 . S
C1460 C1459 1.373 . S
C1461 C1445 1.377 1_565 S
C1461 C1459 1.389 . S
C1461 C1462 1.524 . S
C1462 C1461 1.524 . S
C1462 C1463 1.397 . S
C1462 C1467 1.363 . S
C1463 H1434 0.950 . S
C1463 C1462 1.397 . S
C1463 C1464 1.334 . S
C1464 H1435 0.950 . S
C1464 C1463 1.334 . S
C1464 C1465 1.287 . S
C1465 C1464 1.287 . S
C1465 C1466 1.524 . S
C1465 H1468 0.999 . S
C1466 H1436 0.950 . S
C1466 C1465 1.524 . S
C1466 C1467 1.415 . S
C1467 H1437 0.950 . S
C1467 C1462 1.363 . S
C1467 C1466 1.415 . S
H1468 C1465 0.999 . S
H1469 C1450 0.913 1_556 S
H1470 C1488 0.951 . S
H1471 C1490 0.951 . S
H1472 C1492 0.950 . S
H1473 C1493 0.950 . S
H1474 C1495 0.950 . S
H1475 C1498 0.950 . S
H1476 C1499 0.950 . S
H1477 C1501 0.950 . S
H1478 C1502 0.950 . S
H1479 C1503 0.951 . S
H1480 C1505 0.951 . S
H1481 C1507 0.950 . S
H1482 C1508 0.950 . S
H1483 C1510 0.950 . S
H1484 C1513 0.950 . S
H1485 C1514 0.950 . S
H1486 C1516 0.950 . S
H1487 C1517 0.950 . S
C1488 H1470 0.951 . S
C1488 C1489 1.366 . S
C1488 C1490 1.388 . S
C1489 C1488 1.366 . S
C1489 C1493 1.385 . S
C1490 H1471 0.951 . S
C1490 C1488 1.388 . S
C1490 C1491 1.366 . S
C1491 C1490 1.366 . S
C1491 C1492 1.414 . S
C1491 C1494 1.499 . S
C1492 H1472 0.950 . S
C1492 C1491 1.414 . S
C1492 C1493 1.374 . S
C1493 H1473 0.950 . S
C1493 C1489 1.385 . S
C1493 C1492 1.374 . S
C1494 C1491 1.499 . S
C1494 C1495 1.373 . S
C1494 C1496 1.389 . S
C1495 H1474 0.950 . S
C1495 C1494 1.373 . S
C1495 C1511 1.377 . S
C1496 C1494 1.389 . S
C1496 C1497 1.524 . S
C1496 C1510 1.377 . S
C1497 C1496 1.524 . S
C1497 C1498 1.397 . S
C1497 C1502 1.363 . S
C1498 H1475 0.950 . S
C1498 C1497 1.397 . S
C1498 C1499 1.334 . S
C1499 H1476 0.950 . S
C1499 C1498 1.334 . S
C1499 C1500 1.287 . S
C1500 C1499 1.287 . S
C1500 C1501 1.524 . S
C1500 H1519 0.913 . S
C1501 H1477 0.950 . S
C1501 C1500 1.524 . S
C1501 C1502 1.415 . S
C1502 H1478 0.950 . S
C1502 C1497 1.363 . S
C1502 C1501 1.415 . S
C1503 H1479 0.951 . S
C1503 C1504 1.366 . S
C1503 C1505 1.388 1_565 S
C1504 C1503 1.366 . S
C1504 C1508 1.385 . S
C1505 H1480 0.951 . S
C1505 C1503 1.388 1_545 S
C1505 C1506 1.366 . S
C1506 C1505 1.366 . S
C1506 C1507 1.414 . S
C1506 C1509 1.499 . S
C1507 H1481 0.950 . S
C1507 C1506 1.414 . S
C1507 C1508 1.374 1_545 S
C1508 H1482 0.950 . S
C1508 C1504 1.385 . S
C1508 C1507 1.374 1_565 S
C1509 C1506 1.499 . S
C1509 C1510 1.373 . S
C1509 C1511 1.389 . S
C1510 H1483 0.950 . S
C1510 C1496 1.377 . S
C1510 C1509 1.373 . S
C1511 C1495 1.377 . S
C1511 C1509 1.389 . S
C1511 C1512 1.524 . S
C1512 C1511 1.524 . S
C1512 C1513 1.397 . S
C1512 C1517 1.363 . S
C1513 H1484 0.950 . S
C1513 C1512 1.397 . S
C1513 C1514 1.334 . S
C1514 H1485 0.950 . S
C1514 C1513 1.334 . S
C1514 C1515 1.287 . S
C1515 C1514 1.287 . S
C1515 C1516 1.524 . S
C1515 H1518 0.999 . S
C1516 H1486 0.950 . S
C1516 C1515 1.524 . S
C1516 C1517 1.415 . S
C1517 H1487 0.950 . S
C1517 C1512 1.363 . S
C1517 C1516 1.415 . S
H1518 C1515 0.999 . S
H1519 C1500 0.913 . S
H1520 C1538 0.951 . S
H1521 C1540 0.951 . S
H1522 C1542 0.950 . S
H1523 C1543 0.950 . S
H1524 C1545 0.950 . S
H1525 C1548 0.950 . S
H1526 C1549 0.950 . S
H1527 C1551 0.950 . S
H1528 C1552 0.950 1_655 S
H1529 C1553 0.951 . S
H1530 C1555 0.951 . S
H1531 C1557 0.950 . S
H1532 C1558 0.950 . S
H1533 C1560 0.950 . S
H1534 C1563 0.950 . S
H1535 C1564 0.950 . S
H1536 C1566 0.950 . S
H1537 C1567 0.950 . S
C1538 H1520 0.951 . S
C1538 C1539 1.366 . S
C1538 C1540 1.388 . S
C1539 C1538 1.366 . S
C1539 C1543 1.385 . S
C1540 H1521 0.951 . S
C1540 C1538 1.388 . S
C1540 C1541 1.366 . S
C1541 C1540 1.366 . S
C1541 C1542 1.414 . S
C1541 C1544 1.499 . S
C1542 H1522 0.950 . S
C1542 C1541 1.414 . S
C1542 C1543 1.374 . S
C1543 H1523 0.950 . S
C1543 C1539 1.385 . S
C1543 C1542 1.374 . S
C1544 C1541 1.499 . S
C1544 C1545 1.373 . S
C1544 C1546 1.424 . S
C1545 H1524 0.950 . S
C1545 C1544 1.373 . S
C1545 C1561 1.377 1_455 S
C1546 C1544 1.424 . S
C1546 C1547 1.529 . S
C1546 C1560 1.337 1_455 S
C1547 C1546 1.529 . S
C1547 C1548 1.397 . S
C1547 C1552 1.363 . S
C1548 H1525 0.950 . S
C1548 C1547 1.397 . S
C1548 C1549 1.334 . S
C1549 H1526 0.950 . S
C1549 C1548 1.334 . S
C1549 C1550 1.287 . S
C1550 C1549 1.287 . S
C1550 C1551 1.524 . S
C1550 H1569 0.913 1_556 S
C1551 H1527 0.950 . S
C1551 C1550 1.524 . S
C1551 C1552 1.415 . S
C1552 H1528 0.950 1_455 S
C1552 C1547 1.363 . S
C1552 C1551 1.415 . S
C1553 H1529 0.951 . S
C1553 C1554 1.366 . S
C1553 C1555 1.388 . S
C1554 C1553 1.366 . S
C1554 C1558 1.385 . S
C1555 H1530 0.951 . S
C1555 C1553 1.388 . S
C1555 C1556 1.366 . S
C1556 C1555 1.366 . S
C1556 C1557 1.414 . S
C1556 C1559 1.499 . S
C1557 H1531 0.950 . S
C1557 C1556 1.414 . S
C1557 C1558 1.374 . S
C1558 H1532 0.950 . S
C1558 C1554 1.385 . S
C1558 C1557 1.374 . S
C1559 C1556 1.499 . S
C1559 C1560 1.373 . S
C1559 C1561 1.389 . S
C1560 H1533 0.950 . S
C1560 C1546 1.337 1_655 S
C1560 C1559 1.373 . S
C1561 C1545 1.377 1_655 S
C1561 C1559 1.389 . S
C1561 C1562 1.524 . S
C1562 C1561 1.524 . S
C1562 C1563 1.397 . S
C1562 C1567 1.363 . S
C1563 H1534 0.950 . S
C1563 C1562 1.397 . S
C1563 C1564 1.334 . S
C1564 H1535 0.950 . S
C1564 C1563 1.334 . S
C1564 C1565 1.287 . S
C1565 C1564 1.287 . S
C1565 C1566 1.524 . S
C1565 H1568 0.999 . S
C1566 H1536 0.950 . S
C1566 C1565 1.524 . S
C1566 C1567 1.415 . S
C1567 H1537 0.950 . S
C1567 C1562 1.363 . S
C1567 C1566 1.415 . S
H1568 C1565 0.999 . S
H1569 C1550 0.913 1_554 S
H1570 C1588 0.951 . S
H1571 C1590 0.951 . S
H1572 C1592 0.950 . S
H1573 C1593 0.950 . S
H1574 C1595 0.950 . S
H1575 C1598 0.950 . S
H1576 C1599 0.950 . S
H1577 C1601 0.950 . S
H1578 C1602 0.950 . S
H1579 C1603 0.951 . S
H1580 C1605 0.951 . S
H1581 C1607 0.950 . S
H1582 C1608 0.950 . S
H1583 C1610 0.950 . S
H1584 C1613 0.950 . S
H1585 C1614 0.950 . S
H1586 C1616 0.950 . S
H1587 C1617 0.950 . S
C1588 H1570 0.951 . S
C1588 C1589 1.366 . S
C1588 C1590 1.388 . S
C1589 C1588 1.366 . S
C1589 C1593 1.385 . S
C1590 H1571 0.951 . S
C1590 C1588 1.388 . S
C1590 C1591 1.366 . S
C1591 C1590 1.366 . S
C1591 C1592 1.414 . S
C1591 C1594 1.499 . S
C1592 H1572 0.950 . S
C1592 C1591 1.414 . S
C1592 C1593 1.374 . S
C1593 H1573 0.950 . S
C1593 C1589 1.385 . S
C1593 C1592 1.374 . S
C1594 C1591 1.499 . S
C1594 C1595 1.373 . S
C1594 C1596 1.389 . S
C1595 H1574 0.950 . S
C1595 C1594 1.373 . S
C1595 C1611 1.377 . S
C1596 C1594 1.389 . S
C1596 C1597 1.524 . S
C1596 C1610 1.377 . S
C1597 C1596 1.524 . S
C1597 C1598 1.397 . S
C1597 C1602 1.363 . S
C1598 H1575 0.950 . S
C1598 C1597 1.397 . S
C1598 C1599 1.334 . S
C1599 H1576 0.950 . S
C1599 C1598 1.334 . S
C1599 C1600 1.287 . S
C1600 C1599 1.287 . S
C1600 C1601 1.524 . S
C1600 H1619 0.913 . S
C1601 H1577 0.950 . S
C1601 C1600 1.524 . S
C1601 C1602 1.415 . S
C1602 H1578 0.950 . S
C1602 C1597 1.363 . S
C1602 C1601 1.415 . S
C1603 H1579 0.951 . S
C1603 C1604 1.366 . S
C1603 C1605 1.388 . S
C1604 C1603 1.366 . S
C1604 C1608 1.385 . S
C1605 H1580 0.951 . S
C1605 C1603 1.388 . S
C1605 C1606 1.366 . S
C1606 C1605 1.366 . S
C1606 C1607 1.414 . S
C1606 C1609 1.499 . S
C1607 H1581 0.950 . S
C1607 C1606 1.414 . S
C1607 C1608 1.374 . S
C1608 H1582 0.950 . S
C1608 C1604 1.385 . S
C1608 C1607 1.374 . S
C1609 C1606 1.499 . S
C1609 C1610 1.373 . S
C1609 C1611 1.389 . S
C1610 H1583 0.950 . S
C1610 C1596 1.377 . S
C1610 C1609 1.373 . S
C1611 C1595 1.377 . S
C1611 C1609 1.389 . S
C1611 C1612 1.524 . S
C1612 C1611 1.524 . S
C1612 C1613 1.397 . S
C1612 C1617 1.363 . S
C1613 H1584 0.950 . S
C1613 C1612 1.397 . S
C1613 C1614 1.334 . S
C1614 H1585 0.950 . S
C1614 C1613 1.334 . S
C1614 C1615 1.287 . S
C1615 C1614 1.287 . S
C1615 C1616 1.524 . S
C1615 H1618 0.999 . S
C1616 H1586 0.950 . S
C1616 C1615 1.524 . S
C1616 C1617 1.415 . S
C1617 H1587 0.950 . S
C1617 C1612 1.363 . S
C1617 C1616 1.415 . S
H1618 C1615 0.999 . S
H1619 C1600 0.913 . S
H1620 C1638 0.951 . S
H1621 C1640 0.951 . S
H1622 C1642 0.950 . S
H1623 C1643 0.950 . S
H1624 C1645 0.950 . S
H1625 C1648 0.950 . S
H1626 C1649 0.950 . S
H1627 C1651 0.950 . S
H1628 C1652 0.950 . S
H1629 C1653 0.951 . S
H1630 C1655 0.951 . S
H1631 C1657 0.950 . S
H1632 C1658 0.950 . S
H1633 C1660 0.950 . S
H1634 C1663 0.950 . S
H1635 C1664 0.950 . S
H1636 C1666 0.950 . S
H1637 C1667 0.950 . S
C1638 H1620 0.951 . S
C1638 C1639 1.366 . S
C1638 C1640 1.388 . S
C1639 C1638 1.366 . S
C1639 C1643 1.385 . S
C1640 H1621 0.951 . S
C1640 C1638 1.388 . S
C1640 C1641 1.366 . S
C1641 C1640 1.366 . S
C1641 C1642 1.414 . S
C1641 C1644 1.499 . S
C1642 H1622 0.950 . S
C1642 C1641 1.414 . S
C1642 C1643 1.374 . S
C1643 H1623 0.950 . S
C1643 C1639 1.385 . S
C1643 C1642 1.374 . S
C1644 C1641 1.499 . S
C1644 C1645 1.373 . S
C1644 C1646 1.389 . S
C1645 H1624 0.950 . S
C1645 C1644 1.373 . S
C1645 C1661 1.377 . S
C1646 C1644 1.389 . S
C1646 C1647 1.524 . S
C1646 C1660 1.377 . S
C1647 C1646 1.524 . S
C1647 C1648 1.397 . S
C1647 C1652 1.363 . S
C1648 H1625 0.950 . S
C1648 C1647 1.397 . S
C1648 C1649 1.334 . S
C1649 H1626 0.950 . S
C1649 C1648 1.334 . S
C1649 C1650 1.287 . S
C1650 C1649 1.287 . S
C1650 C1651 1.524 . S
C1650 H1669 0.913 . S
C1651 H1627 0.950 . S
C1651 C1650 1.524 . S
C1651 C1652 1.415 . S
C1652 H1628 0.950 . S
C1652 C1647 1.363 . S
C1652 C1651 1.415 . S
C1653 H1629 0.951 . S
C1653 C1654 1.366 . S
C1653 C1655 1.388 . S
C1654 C1653 1.366 . S
C1654 C1658 1.385 . S
C1655 H1630 0.951 . S
C1655 C1653 1.388 . S
C1655 C1656 1.366 . S
C1656 C1655 1.366 . S
C1656 C1657 1.414 . S
C1656 C1659 1.499 . S
C1657 H1631 0.950 . S
C1657 C1656 1.414 . S
C1657 C1658 1.374 . S
C1658 H1632 0.950 . S
C1658 C1654 1.385 . S
C1658 C1657 1.374 . S
C1659 C1656 1.499 . S
C1659 C1660 1.373 . S
C1659 C1661 1.389 . S
C1660 H1633 0.950 . S
C1660 C1646 1.377 . S
C1660 C1659 1.373 . S
C1661 C1645 1.377 . S
C1661 C1659 1.389 . S
C1661 C1662 1.524 . S
C1662 C1661 1.524 . S
C1662 C1663 1.397 . S
C1662 C1667 1.363 . S
C1663 H1634 0.950 . S
C1663 C1662 1.397 . S
C1663 C1664 1.334 . S
C1664 H1635 0.950 . S
C1664 C1663 1.334 . S
C1664 C1665 1.287 . S
C1665 C1664 1.287 . S
C1665 C1666 1.524 . S
C1665 H1668 0.999 . S
C1666 H1636 0.950 . S
C1666 C1665 1.524 . S
C1666 C1667 1.415 . S
C1667 H1637 0.950 . S
C1667 C1662 1.363 . S
C1667 C1666 1.415 . S
H1668 C1665 0.999 . S
H1669 C1650 0.913 . S
H1670 C1688 0.951 . S
H1671 C1690 0.951 . S
H1672 C1692 0.950 . S
H1673 C1693 0.950 . S
H1674 C1695 0.950 . S
H1675 C1698 0.950 . S
H1676 C1699 0.950 . S
H1677 C1701 0.950 . S
H1678 C1702 0.950 . S
H1679 C1703 0.951 . S
H1680 C1705 0.951 . S
H1681 C1707 0.950 . S
H1682 C1708 0.950 . S
H1683 C1710 0.950 . S
H1684 C1713 0.950 . S
H1685 C1714 0.950 . S
H1686 C1716 0.950 . S
H1687 C1717 0.950 . S
C1688 H1670 0.951 . S
C1688 C1689 1.366 . S
C1688 C1690 1.388 . S
C1689 C1688 1.366 . S
C1689 C1693 1.385 . S
C1690 H1671 0.951 . S
C1690 C1688 1.388 . S
C1690 C1691 1.366 . S
C1691 C1690 1.366 . S
C1691 C1692 1.414 . S
C1691 C1694 1.499 . S
C1692 H1672 0.950 . S
C1692 C1691 1.414 . S
C1692 C1693 1.374 . S
C1693 H1673 0.950 . S
C1693 C1689 1.385 . S
C1693 C1692 1.374 . S
C1694 C1691 1.499 . S
C1694 C1695 1.373 . S
C1694 C1696 1.389 . S
C1695 H1674 0.950 . S
C1695 C1694 1.373 . S
C1695 C1711 1.377 . S
C1696 C1694 1.389 . S
C1696 C1697 1.524 . S
C1696 C1710 1.377 . S
C1697 C1696 1.524 . S
C1697 C1698 1.397 . S
C1697 C1702 1.363 . S
C1698 H1675 0.950 . S
C1698 C1697 1.397 . S
C1698 C1699 1.334 . S
C1699 H1676 0.950 . S
C1699 C1698 1.334 . S
C1699 C1700 1.287 . S
C1700 C1699 1.287 . S
C1700 C1701 1.524 . S
C1700 H1719 0.913 . S
C1701 H1677 0.950 . S
C1701 C1700 1.524 . S
C1701 C1702 1.415 . S
C1702 H1678 0.950 . S
C1702 C1697 1.363 . S
C1702 C1701 1.415 . S
C1703 H1679 0.951 . S
C1703 C1704 1.366 . S
C1703 C1705 1.388 . S
C1704 C1703 1.366 . S
C1704 C1708 1.385 . S
C1705 H1680 0.951 . S
C1705 C1703 1.388 . S
C1705 C1706 1.366 . S
C1706 C1705 1.366 . S
C1706 C1707 1.414 . S
C1706 C1709 1.499 . S
C1707 H1681 0.950 . S
C1707 C1706 1.414 . S
C1707 C1708 1.374 . S
C1708 H1682 0.950 . S
C1708 C1704 1.385 . S
C1708 C1707 1.374 . S
C1709 C1706 1.499 . S
C1709 C1710 1.373 . S
C1709 C1711 1.389 . S
C1710 H1683 0.950 . S
C1710 C1696 1.377 . S
C1710 C1709 1.373 . S
C1711 C1695 1.377 . S
C1711 C1709 1.389 . S
C1711 C1712 1.524 . S
C1712 C1711 1.524 . S
C1712 C1713 1.397 . S
C1712 C1717 1.363 . S
C1713 H1684 0.950 . S
C1713 C1712 1.397 . S
C1713 C1714 1.334 . S
C1714 H1685 0.950 . S
C1714 C1713 1.334 . S
C1714 C1715 1.287 . S
C1715 C1714 1.287 . S
C1715 C1716 1.524 . S
C1715 H1718 0.999 . S
C1716 H1686 0.950 . S
C1716 C1715 1.524 . S
C1716 C1717 1.415 . S
C1717 H1687 0.950 . S
C1717 C1712 1.363 . S
C1717 C1716 1.415 . S
H1718 C1715 0.999 . S
H1719 C1700 0.913 . S
H1720 C1738 0.951 . S
H1721 C1740 0.951 . S
H1722 C1742 0.950 . S
H1723 C1743 0.950 . S
H1724 C1745 0.950 . S
H1725 C1748 0.950 . S
H1726 C1749 0.950 . S
H1727 C1751 0.950 . S
H1728 C1752 0.950 . S
H1729 C1753 0.951 . S
H1730 C1755 0.951 . S
H1731 C1757 0.950 . S
H1732 C1758 0.950 . S
H1733 C1760 0.950 . S
H1734 C1763 0.950 . S
H1735 C1764 0.950 . S
H1736 C1766 0.950 . S
H1737 C1767 0.950 . S
C1738 H1720 0.951 . S
C1738 C1739 1.366 . S
C1738 C1740 1.388 . S
C1739 C1738 1.366 . S
C1739 C1743 1.385 . S
C1740 H1721 0.951 . S
C1740 C1738 1.388 . S
C1740 C1741 1.366 . S
C1741 C1740 1.366 . S
C1741 C1742 1.414 . S
C1741 C1744 1.499 . S
C1742 H1722 0.950 . S
C1742 C1741 1.414 . S
C1742 C1743 1.374 . S
C1743 H1723 0.950 . S
C1743 C1739 1.385 . S
C1743 C1742 1.374 . S
C1744 C1741 1.499 . S
C1744 C1745 1.373 . S
C1744 C1746 1.389 . S
C1745 H1724 0.950 . S
C1745 C1744 1.373 . S
C1745 C1761 1.377 . S
C1746 C1744 1.389 . S
C1746 C1747 1.524 . S
C1746 C1760 1.377 . S
C1747 C1746 1.524 . S
C1747 C1748 1.397 . S
C1747 C1752 1.363 . S
C1748 H1725 0.950 . S
C1748 C1747 1.397 . S
C1748 C1749 1.334 . S
C1749 H1726 0.950 . S
C1749 C1748 1.334 . S
C1749 C1750 1.287 . S
C1750 C1749 1.287 . S
C1750 C1751 1.524 . S
C1750 H1769 0.913 . S
C1751 H1727 0.950 . S
C1751 C1750 1.524 . S
C1751 C1752 1.415 . S
C1752 H1728 0.950 . S
C1752 C1747 1.363 . S
C1752 C1751 1.415 . S
C1753 H1729 0.951 . S
C1753 C1754 1.366 . S
C1753 C1755 1.388 . S
C1754 C1753 1.366 . S
C1754 C1758 1.385 . S
C1755 H1730 0.951 . S
C1755 C1753 1.388 . S
C1755 C1756 1.366 . S
C1756 C1755 1.366 . S
C1756 C1757 1.414 . S
C1756 C1759 1.499 . S
C1757 H1731 0.950 . S
C1757 C1756 1.414 . S
C1757 C1758 1.374 . S
C1758 H1732 0.950 . S
C1758 C1754 1.385 . S
C1758 C1757 1.374 . S
C1759 C1756 1.499 . S
C1759 C1760 1.373 . S
C1759 C1761 1.389 . S
C1760 H1733 0.950 . S
C1760 C1746 1.377 . S
C1760 C1759 1.373 . S
C1761 C1745 1.377 . S
C1761 C1759 1.389 . S
C1761 C1762 1.524 . S
C1762 C1761 1.524 . S
C1762 C1763 1.397 . S
C1762 C1767 1.363 . S
C1763 H1734 0.950 . S
C1763 C1762 1.397 . S
C1763 C1764 1.334 . S
C1764 H1735 0.950 . S
C1764 C1763 1.334 . S
C1764 C1765 1.287 . S
C1765 C1764 1.287 . S
C1765 C1766 1.524 . S
C1765 H1768 0.999 . S
C1766 H1736 0.950 . S
C1766 C1765 1.524 . S
C1766 C1767 1.415 . S
C1767 H1737 0.950 . S
C1767 C1762 1.363 . S
C1767 C1766 1.415 . S
H1768 C1765 0.999 . S
H1769 C1750 0.913 . S
H1770 C1788 0.951 . S
H1771 C1790 0.951 . S
H1772 C1792 0.950 . S
H1773 C1793 0.950 . S
H1774 C1795 0.950 . S
H1775 C1798 0.950 . S
H1776 C1799 0.950 . S
H1777 C1801 0.950 . S
H1778 C1802 0.950 . S
H1779 C1803 0.951 . S
H1780 C1805 0.951 . S
H1781 C1807 0.950 . S
H1782 C1808 0.950 . S
H1783 C1810 0.950 . S
H1784 C1813 0.950 . S
H1785 C1814 0.950 . S
H1786 C1816 0.950 . S
H1787 C1817 0.950 . S
C1788 H1770 0.951 . S
C1788 C1789 1.366 . S
C1788 C1790 1.388 . S
C1789 C1788 1.366 . S
C1789 C1793 1.385 . S
C1790 H1771 0.951 . S
C1790 C1788 1.388 . S
C1790 C1791 1.366 . S
C1791 C1790 1.366 . S
C1791 C1792 1.414 . S
C1791 C1794 1.499 . S
C1792 H1772 0.950 . S
C1792 C1791 1.414 . S
C1792 C1793 1.374 . S
C1793 H1773 0.950 . S
C1793 C1789 1.385 . S
C1793 C1792 1.374 . S
C1794 C1791 1.499 . S
C1794 C1795 1.373 . S
C1794 C1796 1.389 . S
C1795 H1774 0.950 . S
C1795 C1794 1.373 . S
C1795 C1811 1.377 . S
C1796 C1794 1.389 . S
C1796 C1797 1.524 . S
C1796 C1810 1.377 . S
C1797 C1796 1.524 . S
C1797 C1798 1.397 . S
C1797 C1802 1.363 . S
C1798 H1775 0.950 . S
C1798 C1797 1.397 . S
C1798 C1799 1.334 . S
C1799 H1776 0.950 . S
C1799 C1798 1.334 . S
C1799 C1800 1.287 . S
C1800 C1799 1.287 . S
C1800 C1801 1.524 . S
C1800 H1819 0.913 . S
C1801 H1777 0.950 . S
C1801 C1800 1.524 . S
C1801 C1802 1.415 . S
C1802 H1778 0.950 . S
C1802 C1797 1.363 . S
C1802 C1801 1.415 . S
C1803 H1779 0.951 . S
C1803 C1804 1.366 . S
C1803 C1805 1.388 . S
C1804 C1803 1.366 . S
C1804 C1808 1.385 . S
C1805 H1780 0.951 . S
C1805 C1803 1.388 . S
C1805 C1806 1.366 . S
C1806 C1805 1.366 . S
C1806 C1807 1.414 . S
C1806 C1809 1.499 . S
C1807 H1781 0.950 . S
C1807 C1806 1.414 . S
C1807 C1808 1.374 . S
C1808 H1782 0.950 . S
C1808 C1804 1.385 . S
C1808 C1807 1.374 . S
C1809 C1806 1.499 . S
C1809 C1810 1.373 . S
C1809 C1811 1.389 . S
C1810 H1783 0.950 . S
C1810 C1796 1.377 . S
C1810 C1809 1.373 . S
C1811 C1795 1.377 . S
C1811 C1809 1.389 . S
C1811 C1812 1.524 . S
C1812 C1811 1.524 . S
C1812 C1813 1.397 . S
C1812 C1817 1.363 . S
C1813 H1784 0.950 . S
C1813 C1812 1.397 . S
C1813 C1814 1.334 . S
C1814 H1785 0.950 . S
C1814 C1813 1.334 . S
C1814 C1815 1.287 . S
C1815 C1814 1.287 . S
C1815 C1816 1.524 . S
C1815 H1818 0.999 . S
C1816 H1786 0.950 . S
C1816 C1815 1.524 . S
C1816 C1817 1.415 . S
C1817 H1787 0.950 . S
C1817 C1812 1.363 . S
C1817 C1816 1.415 . S
H1818 C1815 0.999 . S
H1819 C1800 0.913 . S
H1820 C1838 0.951 . S
H1821 C1840 0.951 . S
H1822 C1842 0.950 . S
H1823 C1843 0.950 . S
H1824 C1845 0.950 . S
H1825 C1848 0.950 . S
H1826 C1849 0.950 . S
H1827 C1851 0.950 . S
H1828 C1852 0.950 . S
H1829 C1853 0.951 . S
H1830 C1855 0.951 . S
H1831 C1857 0.950 . S
H1832 C1858 0.950 . S
H1833 C1860 0.950 . S
H1834 C1863 0.950 . S
H1835 C1864 0.950 . S
H1836 C1866 0.950 . S
H1837 C1867 0.950 . S
C1838 H1820 0.951 . S
C1838 C1839 1.366 . S
C1838 C1840 1.388 . S
C1839 C1838 1.366 . S
C1839 C1843 1.385 . S
C1840 H1821 0.951 . S
C1840 C1838 1.388 . S
C1840 C1841 1.366 . S
C1841 C1840 1.366 . S
C1841 C1842 1.414 . S
C1841 C1844 1.499 . S
C1842 H1822 0.950 . S
C1842 C1841 1.414 . S
C1842 C1843 1.374 . S
C1843 H1823 0.950 . S
C1843 C1839 1.385 . S
C1843 C1842 1.374 . S
C1844 C1841 1.499 . S
C1844 C1845 1.373 . S
C1844 C1846 1.389 . S
C1845 H1824 0.950 . S
C1845 C1844 1.373 . S
C1845 C1861 1.377 . S
C1846 C1844 1.389 . S
C1846 C1847 1.524 . S
C1846 C1860 1.377 . S
C1847 C1846 1.524 . S
C1847 C1848 1.397 . S
C1847 C1852 1.363 . S
C1848 H1825 0.950 . S
C1848 C1847 1.397 . S
C1848 C1849 1.334 . S
C1849 H1826 0.950 . S
C1849 C1848 1.334 . S
C1849 C1850 1.287 . S
C1850 C1849 1.287 . S
C1850 C1851 1.524 . S
C1850 H1869 0.913 . S
C1851 H1827 0.950 . S
C1851 C1850 1.524 . S
C1851 C1852 1.415 . S
C1852 H1828 0.950 . S
C1852 C1847 1.363 . S
C1852 C1851 1.415 . S
C1853 H1829 0.951 . S
C1853 C1854 1.366 . S
C1853 C1855 1.388 . S
C1854 C1853 1.366 . S
C1854 C1858 1.385 . S
C1855 H1830 0.951 . S
C1855 C1853 1.388 . S
C1855 C1856 1.366 . S
C1856 C1855 1.366 . S
C1856 C1857 1.414 . S
C1856 C1859 1.499 . S
C1857 H1831 0.950 . S
C1857 C1856 1.414 . S
C1857 C1858 1.374 . S
C1858 H1832 0.950 . S
C1858 C1854 1.385 . S
C1858 C1857 1.374 . S
C1859 C1856 1.499 . S
C1859 C1860 1.373 . S
C1859 C1861 1.389 . S
C1860 H1833 0.950 . S
C1860 C1846 1.377 . S
C1860 C1859 1.373 . S
C1861 C1845 1.377 . S
C1861 C1859 1.389 . S
C1861 C1862 1.524 . S
C1862 C1861 1.524 . S
C1862 C1863 1.397 . S
C1862 C1867 1.363 . S
C1863 H1834 0.950 . S
C1863 C1862 1.397 . S
C1863 C1864 1.334 . S
C1864 H1835 0.950 . S
C1864 C1863 1.334 . S
C1864 C1865 1.287 . S
C1865 C1864 1.287 . S
C1865 C1866 1.524 . S
C1865 H1868 0.999 . S
C1866 H1836 0.950 . S
C1866 C1865 1.524 . S
C1866 C1867 1.415 . S
C1867 H1837 0.950 . S
C1867 C1862 1.363 . S
C1867 C1866 1.415 . S
H1868 C1865 0.999 . S
H1869 C1850 0.913 . S
H1870 C1888 0.951 . S
H1871 C1890 0.951 . S
H1872 C1892 0.950 . S
H1873 C1893 0.950 . S
H1874 C1895 0.950 . S
H1875 C1898 0.950 . S
H1876 C1899 0.950 . S
H1877 C1901 0.950 . S
H1878 C1902 0.950 . S
H1879 C1903 0.951 . S
H1880 C1905 0.951 . S
H1881 C1907 0.950 . S
H1882 C1908 0.950 . S
H1883 C1910 0.950 . S
H1884 C1913 0.950 . S
H1885 C1914 0.950 . S
H1886 C1916 0.950 . S
H1887 C1917 0.950 . S
C1888 H1870 0.951 . S
C1888 C1889 1.366 . S
C1888 C1890 1.388 . S
C1889 C1888 1.366 . S
C1889 C1893 1.385 . S
C1890 H1871 0.951 . S
C1890 C1888 1.388 . S
C1890 C1891 1.366 . S
C1891 C1890 1.366 . S
C1891 C1892 1.414 . S
C1891 C1894 1.499 . S
C1892 H1872 0.950 . S
C1892 C1891 1.414 . S
C1892 C1893 1.374 . S
C1893 H1873 0.950 . S
C1893 C1889 1.385 . S
C1893 C1892 1.374 . S
C1894 C1891 1.499 . S
C1894 C1895 1.373 . S
C1894 C1896 1.389 . S
C1895 H1874 0.950 . S
C1895 C1894 1.373 . S
C1895 C1911 1.377 . S
C1896 C1894 1.389 . S
C1896 C1897 1.524 . S
C1896 C1910 1.377 . S
C1897 C1896 1.524 . S
C1897 C1898 1.397 . S
C1897 C1902 1.363 . S
C1898 H1875 0.950 . S
C1898 C1897 1.397 . S
C1898 C1899 1.334 . S
C1899 H1876 0.950 . S
C1899 C1898 1.334 . S
C1899 C1900 1.287 . S
C1900 C1899 1.287 . S
C1900 C1901 1.524 . S
C1900 H1919 0.913 . S
C1901 H1877 0.950 . S
C1901 C1900 1.524 . S
C1901 C1902 1.415 . S
C1902 H1878 0.950 . S
C1902 C1897 1.363 . S
C1902 C1901 1.415 . S
C1903 H1879 0.951 . S
C1903 C1904 1.366 . S
C1903 C1905 1.388 . S
C1904 C1903 1.366 . S
C1904 C1908 1.385 . S
C1905 H1880 0.951 . S
C1905 C1903 1.388 . S
C1905 C1906 1.366 . S
C1906 C1905 1.366 . S
C1906 C1907 1.414 . S
C1906 C1909 1.499 . S
C1907 H1881 0.950 . S
C1907 C1906 1.414 . S
C1907 C1908 1.374 . S
C1908 H1882 0.950 . S
C1908 C1904 1.385 . S
C1908 C1907 1.374 . S
C1909 C1906 1.499 . S
C1909 C1910 1.373 . S
C1909 C1911 1.389 . S
C1910 H1883 0.950 . S
C1910 C1896 1.377 . S
C1910 C1909 1.373 . S
C1911 C1895 1.377 . S
C1911 C1909 1.389 . S
C1911 C1912 1.524 . S
C1912 C1911 1.524 . S
C1912 C1913 1.397 . S
C1912 C1917 1.363 . S
C1913 H1884 0.950 . S
C1913 C1912 1.397 . S
C1913 C1914 1.334 . S
C1914 H1885 0.950 . S
C1914 C1913 1.334 . S
C1914 C1915 1.287 . S
C1915 C1914 1.287 . S
C1915 C1916 1.524 . S
C1915 H1918 0.999 . S
C1916 H1886 0.950 . S
C1916 C1915 1.524 . S
C1916 C1917 1.415 . S
C1917 H1887 0.950 . S
C1917 C1912 1.363 . S
C1917 C1916 1.415 . S
H1918 C1915 0.999 . S
H1919 C1900 0.913 . S
H1920 C1938 0.951 . S
H1921 C1940 0.951 . S
H1922 C1942 0.950 . S
H1923 C1943 0.950 . S
H1924 C1945 0.950 . S
H1925 C1948 0.950 . S
H1926 C1949 0.950 . S
H1927 C1951 0.950 . S
H1928 C1952 0.950 . S
H1929 C1953 0.951 . S
H1930 C1955 0.951 . S
H1931 C1957 0.950 . S
H1932 C1958 0.950 . S
H1933 C1960 0.950 . S
H1934 C1963 0.950 . S
H1935 C1964 0.950 . S
H1936 C1966 0.950 1_554 S
H1937 C1967 0.950 . S
C1938 H1920 0.951 . S
C1938 C1939 1.366 . S
C1938 C1940 1.388 . S
C1939 C1938 1.366 . S
C1939 C1943 1.385 . S
C1940 H1921 0.951 . S
C1940 C1938 1.388 . S
C1940 C1941 1.366 . S
C1941 C1940 1.366 . S
C1941 C1942 1.414 . S
C1941 C1944 1.499 . S
C1942 H1922 0.950 . S
C1942 C1941 1.414 . S
C1942 C1943 1.374 . S
C1943 H1923 0.950 . S
C1943 C1939 1.385 . S
C1943 C1942 1.374 . S
C1944 C1941 1.499 . S
C1944 C1945 1.373 . S
C1944 C1946 1.389 . S
C1945 H1924 0.950 . S
C1945 C1944 1.373 . S
C1945 C1961 1.377 . S
C1946 C1944 1.389 . S
C1946 C1947 1.524 . S
C1946 C1960 1.377 . S
C1947 C1946 1.524 . S
C1947 C1948 1.397 . S
C1947 C1952 1.363 . S
C1948 H1925 0.950 . S
C1948 C1947 1.397 . S
C1948 C1949 1.334 . S
C1949 H1926 0.950 . S
C1949 C1948 1.334 . S
C1949 C1950 1.287 . S
C1950 C1949 1.287 . S
C1950 C1951 1.524 . S
C1950 H1969 0.913 . S
C1951 H1927 0.950 . S
C1951 C1950 1.524 . S
C1951 C1952 1.415 . S
C1952 H1928 0.950 . S
C1952 C1947 1.363 . S
C1952 C1951 1.415 . S
C1953 H1929 0.951 . S
C1953 C1954 1.366 . S
C1953 C1955 1.388 . S
C1954 C1953 1.366 . S
C1954 C1958 1.385 . S
C1955 H1930 0.951 . S
C1955 C1953 1.388 . S
C1955 C1956 1.366 . S
C1956 C1955 1.366 . S
C1956 C1957 1.414 . S
C1956 C1959 1.499 . S
C1957 H1931 0.950 . S
C1957 C1956 1.414 . S
C1957 C1958 1.374 . S
C1958 H1932 0.950 . S
C1958 C1954 1.385 . S
C1958 C1957 1.374 . S
C1959 C1956 1.499 . S
C1959 C1960 1.373 . S
C1959 C1961 1.389 . S
C1960 H1933 0.950 . S
C1960 C1946 1.377 . S
C1960 C1959 1.373 . S
C1961 C1945 1.377 . S
C1961 C1959 1.389 . S
C1961 C1962 1.524 . S
C1962 C1961 1.524 . S
C1962 C1963 1.397 . S
C1962 C1967 1.363 . S
C1963 H1934 0.950 . S
C1963 C1962 1.397 . S
C1963 C1964 1.334 . S
C1964 H1935 0.950 . S
C1964 C1963 1.334 . S
C1964 C1965 1.287 . S
C1965 C1964 1.287 . S
C1965 C1966 1.524 . S
C1965 H1968 0.999 1_556 S
C1966 H1936 0.950 1_556 S
C1966 C1965 1.524 . S
C1966 C1967 1.415 . S
C1967 H1937 0.950 . S
C1967 C1962 1.363 . S
C1967 C1966 1.415 . S
H1968 C1965 0.999 1_554 S
H1969 C1950 0.913 . S
H1970 C1988 0.951 . S
H1971 C1990 0.951 . S
H1972 C1992 0.950 . S
H1973 C1993 0.950 . S
H1974 C1995 0.950 . S
H1975 C1998 0.950 . S
H1976 C1999 0.950 . S
H1977 C2001 0.950 . S
H1978 C2002 0.950 . S
H1979 C2003 0.951 . S
H1980 C2005 0.951 . S
H1981 C2007 0.950 . S
H1982 C2008 0.950 . S
H1983 C2010 0.950 . S
H1984 C2013 0.950 . S
H1985 C2014 0.950 . S
H1986 C2016 0.950 . S
H1987 C2017 0.950 . S
C1988 H1970 0.951 . S
C1988 C1989 1.366 . S
C1988 C1990 1.388 . S
C1989 C1988 1.366 . S
C1989 C1993 1.385 . S
C1990 H1971 0.951 . S
C1990 C1988 1.388 . S
C1990 C1991 1.366 . S
C1991 C1990 1.366 . S
C1991 C1992 1.414 . S
C1991 C1994 1.499 . S
C1992 H1972 0.950 . S
C1992 C1991 1.414 . S
C1992 C1993 1.374 . S
C1993 H1973 0.950 . S
C1993 C1989 1.385 . S
C1993 C1992 1.374 . S
C1994 C1991 1.499 . S
C1994 C1995 1.373 . S
C1994 C1996 1.389 . S
C1995 H1974 0.950 . S
C1995 C1994 1.373 . S
C1995 C2011 1.377 . S
C1996 C1994 1.389 . S
C1996 C1997 1.524 . S
C1996 C2010 1.377 . S
C1997 C1996 1.524 . S
C1997 C1998 1.397 . S
C1997 C2002 1.363 . S
C1998 H1975 0.950 . S
C1998 C1997 1.397 . S
C1998 C1999 1.334 . S
C1999 H1976 0.950 . S
C1999 C1998 1.334 . S
C1999 C2000 1.287 . S
C2000 C1999 1.287 . S
C2000 C2001 1.524 . S
C2000 H2019 0.913 . S
C2001 H1977 0.950 . S
C2001 C2000 1.524 . S
C2001 C2002 1.415 . S
C2002 H1978 0.950 . S
C2002 C1997 1.363 . S
C2002 C2001 1.415 . S
C2003 H1979 0.951 . S
C2003 C2004 1.366 . S
C2003 C2005 1.388 . S
C2004 C2003 1.366 . S
C2004 C2008 1.385 . S
C2005 H1980 0.951 . S
C2005 C2003 1.388 . S
C2005 C2006 1.366 . S
C2006 C2005 1.366 . S
C2006 C2007 1.414 . S
C2006 C2009 1.499 . S
C2007 H1981 0.950 . S
C2007 C2006 1.414 . S
C2007 C2008 1.374 . S
C2008 H1982 0.950 . S
C2008 C2004 1.385 . S
C2008 C2007 1.374 . S
C2009 C2006 1.499 . S
C2009 C2010 1.373 . S
C2009 C2011 1.389 . S
C2010 H1983 0.950 . S
C2010 C1996 1.377 . S
C2010 C2009 1.373 . S
C2011 C1995 1.377 . S
C2011 C2009 1.389 . S
C2011 C2012 1.524 . S
C2012 C2011 1.524 . S
C2012 C2013 1.397 . S
C2012 C2017 1.363 . S
C2013 H1984 0.950 . S
C2013 C2012 1.397 . S
C2013 C2014 1.334 . S
C2014 H1985 0.950 . S
C2014 C2013 1.334 . S
C2014 C2015 1.287 . S
C2015 C2014 1.287 . S
C2015 C2016 1.524 . S
C2015 H2018 0.999 . S
C2016 H1986 0.950 . S
C2016 C2015 1.524 . S
C2016 C2017 1.415 . S
C2017 H1987 0.950 . S
C2017 C2012 1.363 . S
C2017 C2016 1.415 . S
H2018 C2015 0.999 . S
H2019 C2000 0.913 . S
H2020 C2038 0.951 . S
H2021 C2040 0.951 . S
H2022 C2042 0.950 . S
H2023 C2043 0.950 . S
H2024 C2045 0.950 . S
H2025 C2048 0.950 . S
H2026 C2049 0.950 . S
H2027 C2051 0.950 . S
H2028 C2052 0.950 . S
H2029 C2053 0.951 . S
H2030 C2055 0.951 . S
H2031 C2057 0.950 . S
H2032 C2058 0.950 . S
H2033 C2060 0.950 . S
H2034 C2063 0.950 . S
H2035 C2064 0.950 . S
H2036 C2066 0.950 1_554 S
H2037 C2067 0.950 . S
C2038 H2020 0.951 . S
C2038 C2039 1.366 . S
C2038 C2040 1.388 . S
C2039 C2038 1.366 . S
C2039 C2043 1.385 . S
C2040 H2021 0.951 . S
C2040 C2038 1.388 . S
C2040 C2041 1.366 . S
C2041 C2040 1.366 . S
C2041 C2042 1.414 . S
C2041 C2044 1.499 . S
C2042 H2022 0.950 . S
C2042 C2041 1.414 . S
C2042 C2043 1.374 . S
C2043 H2023 0.950 . S
C2043 C2039 1.385 . S
C2043 C2042 1.374 . S
C2044 C2041 1.499 . S
C2044 C2045 1.373 . S
C2044 C2046 1.389 . S
C2045 H2024 0.950 . S
C2045 C2044 1.373 . S
C2045 C2061 1.377 . S
C2046 C2044 1.389 . S
C2046 C2047 1.524 . S
C2046 C2060 1.377 . S
C2047 C2046 1.524 . S
C2047 C2048 1.397 . S
C2047 C2052 1.363 . S
C2048 H2025 0.950 . S
C2048 C2047 1.397 . S
C2048 C2049 1.334 . S
C2049 H2026 0.950 . S
C2049 C2048 1.334 . S
C2049 C2050 1.287 . S
C2050 C2049 1.287 . S
C2050 C2051 1.524 . S
C2050 H2069 0.913 . S
C2051 H2027 0.950 . S
C2051 C2050 1.524 . S
C2051 C2052 1.415 . S
C2052 H2028 0.950 . S
C2052 C2047 1.363 . S
C2052 C2051 1.415 . S
C2053 H2029 0.951 . S
C2053 C2054 1.366 . S
C2053 C2055 1.388 . S
C2054 C2053 1.366 . S
C2054 C2058 1.385 . S
C2055 H2030 0.951 . S
C2055 C2053 1.388 . S
C2055 C2056 1.366 . S
C2056 C2055 1.366 . S
C2056 C2057 1.414 . S
C2056 C2059 1.499 . S
C2057 H2031 0.950 . S
C2057 C2056 1.414 . S
C2057 C2058 1.374 . S
C2058 H2032 0.950 . S
C2058 C2054 1.385 . S
C2058 C2057 1.374 . S
C2059 C2056 1.499 . S
C2059 C2060 1.373 . S
C2059 C2061 1.389 . S
C2060 H2033 0.950 . S
C2060 C2046 1.377 . S
C2060 C2059 1.373 . S
C2061 C2045 1.377 . S
C2061 C2059 1.389 . S
C2061 C2062 1.524 . S
C2062 C2061 1.524 . S
C2062 C2063 1.397 . S
C2062 C2067 1.363 . S
C2063 H2034 0.950 . S
C2063 C2062 1.397 . S
C2063 C2064 1.334 . S
C2064 H2035 0.950 . S
C2064 C2063 1.334 . S
C2064 C2065 1.287 . S
C2065 C2064 1.287 . S
C2065 C2066 1.524 . S
C2065 H2068 0.999 . S
C2066 H2036 0.950 1_556 S
C2066 C2065 1.524 . S
C2066 C2067 1.415 . S
C2067 H2037 0.950 . S
C2067 C2062 1.363 . S
C2067 C2066 1.415 . S
H2068 C2065 0.999 . S
H2069 C2050 0.913 . S
H2070 C2088 0.951 . S
H2071 C2090 0.951 . S
H2072 C2092 0.950 . S
H2073 C2093 0.950 . S
H2074 C2095 0.950 . S
H2075 C2098 0.950 . S
H2076 C2099 0.950 . S
H2077 C2101 0.950 . S
H2078 C2102 0.950 . S
H2079 C2103 0.951 . S
H2080 C2105 0.952 . S
H2081 C2107 0.950 . S
H2082 C2108 0.950 . S
H2083 C2110 0.950 . S
H2084 C2113 0.950 . S
H2085 C2114 0.950 . S
H2086 C2116 0.950 . S
H2087 C2117 0.950 . S
C2088 H2070 0.951 . S
C2088 C2089 1.366 . S
C2088 C2090 1.388 . S
C2089 C2088 1.366 . S
C2089 C2093 1.385 . S
C2090 H2071 0.951 . S
C2090 C2088 1.388 . S
C2090 C2091 1.366 . S
C2091 C2090 1.366 . S
C2091 C2092 1.414 . S
C2091 C2094 1.499 . S
C2092 H2072 0.950 . S
C2092 C2091 1.414 . S
C2092 C2093 1.374 . S
C2093 H2073 0.950 . S
C2093 C2089 1.385 . S
C2093 C2092 1.374 . S
C2094 C2091 1.499 . S
C2094 C2095 1.373 . S
C2094 C2096 1.389 . S
C2095 H2074 0.950 . S
C2095 C2094 1.373 . S
C2095 C2111 1.377 . S
C2096 C2094 1.389 . S
C2096 C2097 1.524 . S
C2096 C2110 1.377 . S
C2097 C2096 1.524 . S
C2097 C2098 1.397 1_556 S
C2097 C2102 1.363 . S
C2098 H2075 0.950 . S
C2098 C2097 1.397 1_554 S
C2098 C2099 1.334 . S
C2099 H2076 0.950 . S
C2099 C2098 1.334 . S
C2099 C2100 1.287 . S
C2100 C2099 1.287 . S
C2100 C2101 1.524 1_554 S
C2100 H2119 0.913 . S
C2101 H2077 0.950 . S
C2101 C2100 1.524 1_556 S
C2101 C2102 1.415 . S
C2102 H2078 0.950 . S
C2102 C2097 1.363 . S
C2102 C2101 1.415 . S
C2103 H2079 0.951 . S
C2103 C2104 1.366 1_554 S
C2103 C2105 1.389 . S
C2104 C2103 1.366 1_556 S
C2104 C2108 1.385 . S
C2105 H2080 0.952 . S
C2105 C2103 1.389 . S
C2105 C2106 1.363 1_554 S
C2106 C2105 1.363 1_556 S
C2106 C2107 1.414 . S
C2106 C2109 1.499 . S
C2107 H2081 0.950 . S
C2107 C2106 1.414 . S
C2107 C2108 1.374 . S
C2108 H2082 0.950 . S
C2108 C2104 1.385 . S
C2108 C2107 1.374 . S
C2109 C2106 1.499 . S
C2109 C2110 1.373 . S
C2109 C2111 1.389 . S
C2110 H2083 0.950 . S
C2110 C2096 1.377 . S
C2110 C2109 1.373 . S
C2111 C2095 1.377 . S
C2111 C2109 1.389 . S
C2111 C2112 1.524 . S
C2112 C2111 1.524 . S
C2112 C2113 1.397 . S
C2112 C2117 1.363 . S
C2113 H2084 0.950 . S
C2113 C2112 1.397 . S
C2113 C2114 1.334 . S
C2114 H2085 0.950 . S
C2114 C2113 1.334 . S
C2114 C2115 1.287 . S
C2115 C2114 1.287 . S
C2115 C2116 1.524 . S
C2115 H2118 0.999 . S
C2116 H2086 0.950 . S
C2116 C2115 1.524 . S
C2116 C2117 1.415 . S
C2117 H2087 0.950 . S
C2117 C2112 1.363 . S
C2117 C2116 1.415 . S
H2118 C2115 0.999 . S
H2119 C2100 0.913 . S
H2120 C2138 0.951 . S
H2121 C2140 0.951 . S
H2122 C2142 0.950 1_554 S
H2123 C2143 0.950 . S
H2124 C2145 0.950 . S
H2125 C2148 0.950 . S
H2126 C2149 0.950 . S
H2127 C2151 0.950 . S
H2128 C2152 0.950 . S
H2129 C2153 0.951 . S
H2130 C2155 0.951 . S
H2131 C2157 0.950 . S
H2132 C2158 0.950 . S
H2133 C2160 0.950 . S
H2134 C2163 0.950 . S
H2135 C2164 0.950 . S
H2136 C2166 0.950 . S
H2137 C2167 0.950 . S
C2138 H2120 0.951 . S
C2138 C2139 1.366 . S
C2138 C2140 1.388 . S
C2139 C2138 1.366 . S
C2139 C2143 1.385 . S
C2140 H2121 0.951 . S
C2140 C2138 1.388 . S
C2140 C2141 1.366 . S
C2141 C2140 1.366 . S
C2141 C2142 1.414 . S
C2141 C2144 1.499 . S
C2142 H2122 0.950 1_556 S
C2142 C2141 1.414 . S
C2142 C2143 1.374 . S
C2143 H2123 0.950 . S
C2143 C2139 1.385 . S
C2143 C2142 1.374 . S
C2144 C2141 1.499 . S
C2144 C2145 1.373 . S
C2144 C2146 1.389 . S
C2145 H2124 0.950 . S
C2145 C2144 1.373 . S
C2145 C2161 1.377 . S
C2146 C2144 1.389 . S
C2146 C2147 1.524 . S
C2146 C2160 1.377 . S
C2147 C2146 1.524 . S
C2147 C2148 1.397 . S
C2147 C2152 1.363 . S
C2148 H2125 0.950 . S
C2148 C2147 1.397 . S
C2148 C2149 1.334 . S
C2149 H2126 0.950 . S
C2149 C2148 1.334 . S
C2149 C2150 1.287 . S
C2150 C2149 1.287 . S
C2150 C2151 1.524 . S
C2150 H2169 0.913 . S
C2151 H2127 0.950 . S
C2151 C2150 1.524 . S
C2151 C2152 1.415 . S
C2152 H2128 0.950 . S
C2152 C2147 1.363 . S
C2152 C2151 1.415 . S
C2153 H2129 0.951 . S
C2153 C2154 1.366 1_554 S
C2153 C2155 1.388 . S
C2154 C2153 1.366 1_556 S
C2154 C2158 1.385 . S
C2155 H2130 0.951 . S
C2155 C2153 1.388 . S
C2155 C2156 1.366 1_554 S
C2156 C2155 1.366 1_556 S
C2156 C2157 1.414 . S
C2156 C2159 1.499 . S
C2157 H2131 0.950 . S
C2157 C2156 1.414 . S
C2157 C2158 1.374 . S
C2158 H2132 0.950 . S
C2158 C2154 1.385 . S
C2158 C2157 1.374 . S
C2159 C2156 1.499 . S
C2159 C2160 1.373 . S
C2159 C2161 1.389 . S
C2160 H2133 0.950 . S
C2160 C2146 1.377 . S
C2160 C2159 1.373 . S
C2161 C2145 1.377 . S
C2161 C2159 1.389 . S
C2161 C2162 1.524 1_556 S
C2162 C2161 1.524 1_554 S
C2162 C2163 1.397 1_554 S
C2162 C2167 1.363 . S
C2163 H2134 0.950 . S
C2163 C2162 1.397 1_556 S
C2163 C2164 1.334 1_556 S
C2164 H2135 0.950 . S
C2164 C2163 1.334 1_554 S
C2164 C2165 1.287 . S
C2165 C2164 1.287 . S
C2165 C2166 1.524 . S
C2165 H2168 0.999 . S
C2166 H2136 0.950 . S
C2166 C2165 1.524 . S
C2166 C2167 1.415 . S
C2167 H2137 0.950 . S
C2167 C2162 1.363 . S
C2167 C2166 1.415 . S
H2168 C2165 0.999 . S
H2169 C2150 0.913 . S
H2170 C2188 0.951 . S
H2171 C2190 0.951 . S
H2172 C2192 0.950 1_554 S
H2173 C2193 0.950 . S
H2174 C2195 0.950 . S
H2175 C2198 0.950 . S
H2176 C2199 0.950 . S
H2177 C2201 0.950 . S
H2178 C2202 0.950 . S
H2179 C2203 0.951 . S
H2180 C2205 0.951 . S
H2181 C2207 0.950 . S
H2182 C2208 0.950 . S
H2183 C2210 0.950 . S
H2184 C2213 0.950 . S
H2185 C2214 0.950 . S
H2186 C2216 0.950 . S
H2187 C2217 0.950 . S
C2188 H2170 0.951 . S
C2188 C2189 1.366 . S
C2188 C2190 1.388 . S
C2189 C2188 1.366 . S
C2189 C2193 1.385 . S
C2190 H2171 0.951 . S
C2190 C2188 1.388 . S
C2190 C2191 1.366 . S
C2191 C2190 1.366 . S
C2191 C2192 1.414 . S
C2191 C2194 1.499 . S
C2192 H2172 0.950 1_556 S
C2192 C2191 1.414 . S
C2192 C2193 1.374 . S
C2193 H2173 0.950 . S
C2193 C2189 1.385 . S
C2193 C2192 1.374 . S
C2194 C2191 1.499 . S
C2194 C2195 1.373 . S
C2194 C2196 1.389 . S
C2195 H2174 0.950 . S
C2195 C2194 1.373 . S
C2195 C2211 1.377 . S
C2196 C2194 1.389 . S
C2196 C2197 1.524 . S
C2196 C2210 1.377 . S
C2197 C2196 1.524 . S
C2197 C2198 1.397 . S
C2197 C2202 1.363 . S
C2198 H2175 0.950 . S
C2198 C2197 1.397 . S
C2198 C2199 1.334 . S
C2199 H2176 0.950 . S
C2199 C2198 1.334 . S
C2199 C2200 1.287 . S
C2200 C2199 1.287 . S
C2200 C2201 1.524 . S
C2200 H2219 0.913 . S
C2201 H2177 0.950 . S
C2201 C2200 1.524 . S
C2201 C2202 1.415 . S
C2202 H2178 0.950 . S
C2202 C2197 1.363 . S
C2202 C2201 1.415 . S
C2203 H2179 0.951 . S
C2203 C2204 1.366 1_554 S
C2203 C2205 1.388 . S
C2204 C2203 1.366 1_556 S
C2204 C2208 1.385 . S
C2205 H2180 0.951 . S
C2205 C2203 1.388 . S
C2205 C2206 1.366 1_554 S
C2206 C2205 1.366 1_556 S
C2206 C2207 1.414 . S
C2206 C2209 1.499 . S
C2207 H2181 0.950 . S
C2207 C2206 1.414 . S
C2207 C2208 1.374 . S
C2208 H2182 0.950 . S
C2208 C2204 1.385 . S
C2208 C2207 1.374 . S
C2209 C2206 1.499 . S
C2209 C2210 1.373 . S
C2209 C2211 1.389 . S
C2210 H2183 0.950 . S
C2210 C2196 1.377 . S
C2210 C2209 1.373 . S
C2211 C2195 1.377 . S
C2211 C2209 1.389 . S
C2211 C2212 1.524 1_556 S
C2212 C2211 1.524 1_554 S
C2212 C2213 1.397 1_554 S
C2212 C2217 1.363 . S
C2213 H2184 0.950 . S
C2213 C2212 1.397 1_556 S
C2213 C2214 1.334 . S
C2214 H2185 0.950 . S
C2214 C2213 1.334 . S
C2214 C2215 1.287 1_556 S
C2215 C2214 1.287 1_554 S
C2215 C2216 1.524 . S
C2215 H2218 0.999 . S
C2216 H2186 0.950 . S
C2216 C2215 1.524 . S
C2216 C2217 1.415 . S
C2217 H2187 0.950 . S
C2217 C2212 1.363 . S
C2217 C2216 1.415 . S
H2218 C2215 0.999 . S
H2219 C2200 0.913 . S
H2220 C2238 0.951 . S
H2221 C2240 0.951 . S
H2222 C2242 0.950 . S
H2223 C2243 0.950 . S
H2224 C2245 0.950 . S
H2225 C2248 0.950 1_556 S
H2226 C2249 0.950 . S
H2227 C2251 0.950 . S
H2228 C2252 0.950 . S
H2229 C2253 0.951 . S
H2230 C2255 0.940 1_556 S
H2231 C2257 0.950 . S
H2232 C2258 0.950 . S
H2233 C2260 0.950 . S
H2234 C2263 0.950 . S
H2235 C2264 0.950 . S
H2236 C2266 0.950 . S
H2237 C2267 0.950 . S
C2238 H2220 0.951 . S
C2238 C2239 1.366 . S
C2238 C2240 1.388 . S
C2239 C2238 1.366 . S
C2239 C2243 1.385 1_554 S
C2240 H2221 0.951 . S
C2240 C2238 1.388 . S
C2240 C2241 1.366 . S
C2241 C2240 1.366 . S
C2241 C2242 1.414 1_554 S
C2241 C2244 1.499 . S
C2242 H2222 0.950 . S
C2242 C2241 1.414 1_556 S
C2242 C2243 1.374 . S
C2243 H2223 0.950 . S
C2243 C2239 1.385 1_556 S
C2243 C2242 1.374 . S
C2244 C2241 1.499 . S
C2244 C2245 1.373 . S
C2244 C2246 1.389 . S
C2245 H2224 0.950 . S
C2245 C2244 1.373 . S
C2245 C2261 1.377 . S
C2246 C2244 1.389 . S
C2246 C2247 1.524 . S
C2246 C2260 1.377 . S
C2247 C2246 1.524 . S
C2247 C2248 1.397 . S
C2247 C2252 1.363 . S
C2248 H2225 0.950 1_554 S
C2248 C2247 1.397 . S
C2248 C2249 1.334 . S
C2249 H2226 0.950 . S
C2249 C2248 1.334 . S
C2249 C2250 1.287 . S
C2250 C2249 1.287 . S
C2250 C2251 1.524 . S
C2250 H2269 0.913 . S
C2251 H2227 0.950 . S
C2251 C2250 1.524 . S
C2251 C2252 1.415 . S
C2252 H2228 0.950 . S
C2252 C2247 1.363 . S
C2252 C2251 1.415 . S
C2253 H2229 0.951 . S
C2253 C2254 1.366 . S
C2253 C2255 1.388 . S
C2254 C2253 1.366 . S
C2254 C2258 1.385 . S
C2255 H2230 0.940 1_554 S
C2255 C2253 1.388 . S
C2255 C2256 1.366 . S
C2256 C2255 1.366 . S
C2256 C2257 1.414 . S
C2256 C2259 1.499 . S
C2257 H2231 0.950 . S
C2257 C2256 1.414 . S
C2257 C2258 1.374 . S
C2258 H2232 0.950 . S
C2258 C2254 1.385 . S
C2258 C2257 1.374 . S
C2259 C2256 1.499 . S
C2259 C2260 1.373 . S
C2259 C2261 1.389 . S
C2260 H2233 0.950 . S
C2260 C2246 1.377 . S
C2260 C2259 1.373 . S
C2261 C2245 1.377 . S
C2261 C2259 1.389 . S
C2261 C2262 1.524 . S
C2262 C2261 1.524 . S
C2262 C2263 1.397 . S
C2262 C2267 1.363 1_554 S
C2263 H2234 0.950 . S
C2263 C2262 1.397 . S
C2263 C2264 1.334 . S
C2264 H2235 0.950 . S
C2264 C2263 1.334 . S
C2264 C2265 1.287 . S
C2265 C2264 1.287 . S
C2265 C2266 1.524 1_554 S
C2265 H2268 0.999 . S
C2266 H2236 0.950 . S
C2266 C2265 1.524 1_556 S
C2266 C2267 1.415 . S
C2267 H2237 0.950 . S
C2267 C2262 1.363 1_556 S
C2267 C2266 1.415 . S
H2268 C2265 0.999 . S
H2269 C2250 0.913 . S
H2270 C2288 0.951 . S
H2271 C2290 0.951 . S
H2272 C2292 0.950 . S
H2273 C2293 0.950 . S
H2274 C2295 0.950 . S
H2275 C2298 0.950 . S
H2276 C2299 0.950 . S
H2277 C2301 0.950 . S
H2278 C2302 0.950 . S
H2279 C2303 0.951 . S
H2280 C2305 0.951 . S
H2281 C2307 0.950 . S
H2282 C2308 0.950 . S
H2283 C2310 0.950 . S
H2284 C2313 0.950 . S
H2285 C2314 0.950 . S
H2286 C2316 0.950 . S
H2287 C2317 0.950 . S
C2288 H2270 0.951 . S
C2288 C2289 1.366 . S
C2288 C2290 1.388 . S
C2289 C2288 1.366 . S
C2289 C2293 1.385 1_554 S
C2290 H2271 0.951 . S
C2290 C2288 1.388 . S
C2290 C2291 1.366 . S
C2291 C2290 1.366 . S
C2291 C2292 1.414 1_554 S
C2291 C2294 1.499 . S
C2292 H2272 0.950 . S
C2292 C2291 1.414 1_556 S
C2292 C2293 1.374 . S
C2293 H2273 0.950 . S
C2293 C2289 1.385 1_556 S
C2293 C2292 1.374 . S
C2294 C2291 1.499 . S
C2294 C2295 1.373 . S
C2294 C2296 1.389 . S
C2295 H2274 0.950 . S
C2295 C2294 1.373 . S
C2295 C2311 1.377 . S
C2296 C2294 1.389 . S
C2296 C2297 1.524 . S
C2296 C2310 1.377 . S
C2297 C2296 1.524 . S
C2297 C2298 1.397 1_554 S
C2297 C2302 1.363 . S
C2298 H2275 0.950 . S
C2298 C2297 1.397 1_556 S
C2298 C2299 1.334 . S
C2299 H2276 0.950 . S
C2299 C2298 1.334 . S
C2299 C2300 1.287 . S
C2300 C2299 1.287 . S
C2300 C2301 1.524 1_556 S
C2300 H2319 0.913 . S
C2301 H2277 0.950 . S
C2301 C2300 1.524 1_554 S
C2301 C2302 1.415 . S
C2302 H2278 0.950 . S
C2302 C2297 1.363 . S
C2302 C2301 1.415 . S
C2303 H2279 0.951 . S
C2303 C2304 1.366 . S
C2303 C2305 1.388 . S
C2304 C2303 1.366 . S
C2304 C2308 1.385 . S
C2305 H2280 0.951 . S
C2305 C2303 1.388 . S
C2305 C2306 1.366 . S
C2306 C2305 1.366 . S
C2306 C2307 1.414 . S
C2306 C2309 1.499 . S
C2307 H2281 0.950 . S
C2307 C2306 1.414 . S
C2307 C2308 1.374 . S
C2308 H2282 0.950 . S
C2308 C2304 1.385 . S
C2308 C2307 1.374 . S
C2309 C2306 1.499 . S
C2309 C2310 1.373 . S
C2309 C2311 1.389 . S
C2310 H2283 0.950 . S
C2310 C2296 1.377 . S
C2310 C2309 1.373 . S
C2311 C2295 1.377 . S
C2311 C2309 1.389 . S
C2311 C2312 1.524 . S
C2312 C2311 1.524 . S
C2312 C2313 1.397 . S
C2312 C2317 1.363 . S
C2313 H2284 0.950 . S
C2313 C2312 1.397 . S
C2313 C2314 1.334 . S
C2314 H2285 0.950 . S
C2314 C2313 1.334 . S
C2314 C2315 1.287 . S
C2315 C2314 1.287 . S
C2315 C2316 1.524 . S
C2315 H2318 0.999 . S
C2316 H2286 0.950 . S
C2316 C2315 1.524 . S
C2316 C2317 1.415 . S
C2317 H2287 0.950 . S
C2317 C2312 1.363 . S
C2317 C2316 1.415 . S
H2318 C2315 0.999 . S
H2319 C2300 0.913 . S
H2320 C2338 0.951 . S
H2321 C2340 0.951 . S
H2322 C2342 0.950 . S
H2323 C2343 0.950 . S
H2324 C2345 0.950 . S
H2325 C2348 0.950 . S
H2326 C2349 0.950 . S
H2327 C2351 0.950 . S
H2328 C2352 0.950 . S
H2329 C2353 0.951 . S
H2330 C2355 0.951 . S
H2331 C2357 0.950 . S
H2332 C2358 0.950 . S
H2333 C2360 0.950 . S
H2334 C2363 0.950 1_556 S
H2335 C2364 0.950 1_556 S
H2336 C2366 0.950 . S
H2337 C2367 0.950 . S
C2338 H2320 0.951 . S
C2338 C2339 1.366 . S
C2338 C2340 1.388 . S
C2339 C2338 1.366 . S
C2339 C2343 1.385 . S
C2340 H2321 0.951 . S
C2340 C2338 1.388 . S
C2340 C2341 1.366 . S
C2341 C2340 1.366 . S
C2341 C2342 1.414 . S
C2341 C2344 1.499 . S
C2342 H2322 0.950 . S
C2342 C2341 1.414 . S
C2342 C2343 1.374 . S
C2343 H2323 0.950 . S
C2343 C2339 1.385 . S
C2343 C2342 1.374 . S
C2344 C2341 1.499 . S
C2344 C2345 1.373 . S
C2344 C2346 1.389 . S
C2345 H2324 0.950 . S
C2345 C2344 1.373 . S
C2345 C2361 1.377 . S
C2346 C2344 1.389 . S
C2346 C2347 1.524 . S
C2346 C2360 1.377 . S
C2347 C2346 1.524 . S
C2347 C2348 1.397 . S
C2347 C2352 1.363 1_554 S
C2348 H2325 0.950 . S
C2348 C2347 1.397 . S
C2348 C2349 1.334 . S
C2349 H2326 0.950 . S
C2349 C2348 1.334 . S
C2349 C2350 1.287 . S
C2350 C2349 1.287 . S
C2350 C2351 1.524 1_554 S
C2350 H2369 0.913 . S
C2351 H2327 0.950 . S
C2351 C2350 1.524 1_556 S
C2351 C2352 1.415 . S
C2352 H2328 0.950 . S
C2352 C2347 1.363 1_556 S
C2352 C2351 1.415 . S
C2353 H2329 0.951 . S
C2353 C2354 1.366 . S
C2353 C2355 1.388 . S
C2354 C2353 1.366 . S
C2354 C2358 1.385 1_554 S
C2355 H2330 0.951 . S
C2355 C2353 1.388 . S
C2355 C2356 1.366 . S
C2356 C2355 1.366 . S
C2356 C2357 1.414 1_554 S
C2356 C2359 1.499 . S
C2357 H2331 0.950 . S
C2357 C2356 1.414 1_556 S
C2357 C2358 1.374 . S
C2358 H2332 0.950 . S
C2358 C2354 1.385 1_556 S
C2358 C2357 1.374 . S
C2359 C2356 1.499 . S
C2359 C2360 1.373 . S
C2359 C2361 1.389 . S
C2360 H2333 0.950 . S
C2360 C2346 1.377 . S
C2360 C2359 1.373 . S
C2361 C2345 1.377 . S
C2361 C2359 1.389 . S
C2361 C2362 1.524 . S
C2362 C2361 1.524 . S
C2362 C2363 1.397 . S
C2362 C2367 1.363 . S
C2363 H2334 0.950 1_554 S
C2363 C2362 1.397 . S
C2363 C2364 1.334 . S
C2364 H2335 0.950 1_554 S
C2364 C2363 1.334 . S
C2364 C2365 1.287 . S
C2365 C2364 1.287 . S
C2365 C2366 1.524 . S
C2365 H2368 0.999 . S
C2366 H2336 0.950 . S
C2366 C2365 1.524 . S
C2366 C2367 1.415 . S
C2367 H2337 0.950 . S
C2367 C2362 1.363 . S
C2367 C2366 1.415 . S
H2368 C2365 0.999 . S
H2369 C2350 0.913 . S
H2370 C2388 0.951 . S
H2371 C2390 0.951 . S
H2372 C2392 0.950 . S
H2373 C2393 0.950 . S
H2374 C2395 0.950 . S
H2375 C2398 0.950 . S
H2376 C2399 0.950 . S
H2377 C2401 0.950 . S
H2378 C2402 0.950 . S
H2379 C2403 0.951 . S
H2380 C2405 0.951 . S
H2381 C2407 0.950 . S
H2382 C2408 0.950 . S
H2383 C2410 0.950 . S
H2384 C2413 0.950 . S
H2385 C2414 0.950 . S
H2386 C2416 0.950 . S
H2387 C2417 0.950 . S
C2388 H2370 0.951 . S
C2388 C2389 1.366 . S
C2388 C2390 1.388 . S
C2389 C2388 1.366 . S
C2389 C2393 1.385 . S
C2390 H2371 0.951 . S
C2390 C2388 1.388 . S
C2390 C2391 1.366 . S
C2391 C2390 1.366 . S
C2391 C2392 1.414 . S
C2391 C2394 1.499 . S
C2392 H2372 0.950 . S
C2392 C2391 1.414 . S
C2392 C2393 1.374 . S
C2393 H2373 0.950 . S
C2393 C2389 1.385 . S
C2393 C2392 1.374 . S
C2394 C2391 1.499 . S
C2394 C2395 1.373 . S
C2394 C2396 1.389 . S
C2395 H2374 0.950 . S
C2395 C2394 1.373 . S
C2395 C2411 1.377 . S
C2396 C2394 1.389 . S
C2396 C2397 1.524 . S
C2396 C2410 1.377 . S
C2397 C2396 1.524 . S
C2397 C2398 1.397 . S
C2397 C2402 1.363 . S
C2398 H2375 0.950 . S
C2398 C2397 1.397 . S
C2398 C2399 1.334 . S
C2399 H2376 0.950 . S
C2399 C2398 1.334 . S
C2399 C2400 1.287 . S
C2400 C2399 1.287 . S
C2400 C2401 1.524 . S
C2400 H2419 0.913 . S
C2401 H2377 0.950 . S
C2401 C2400 1.524 . S
C2401 C2402 1.415 . S
C2402 H2378 0.950 . S
C2402 C2397 1.363 . S
C2402 C2401 1.415 . S
C2403 H2379 0.951 . S
C2403 C2404 1.366 . S
C2403 C2405 1.388 . S
C2404 C2403 1.366 . S
C2404 C2408 1.385 . S
C2405 H2380 0.951 . S
C2405 C2403 1.388 . S
C2405 C2406 1.366 . S
C2406 C2405 1.366 . S
C2406 C2407 1.414 . S
C2406 C2409 1.499 . S
C2407 H2381 0.950 . S
C2407 C2406 1.414 . S
C2407 C2408 1.374 . S
C2408 H2382 0.950 . S
C2408 C2404 1.385 . S
C2408 C2407 1.374 . S
C2409 C2406 1.499 . S
C2409 C2410 1.373 . S
C2409 C2411 1.389 . S
C2410 H2383 0.950 . S
C2410 C2396 1.377 . S
C2410 C2409 1.373 . S
C2411 C2395 1.377 . S
C2411 C2409 1.389 . S
C2411 C2412 1.524 . S
C2412 C2411 1.524 . S
C2412 C2413 1.397 . S
C2412 C2417 1.363 . S
C2413 H2384 0.950 . S
C2413 C2412 1.397 . S
C2413 C2414 1.334 . S
C2414 H2385 0.950 . S
C2414 C2413 1.334 . S
C2414 C2415 1.287 . S
C2415 C2414 1.287 . S
C2415 C2416 1.524 . S
C2415 H2418 0.999 . S
C2416 H2386 0.950 . S
C2416 C2415 1.524 . S
C2416 C2417 1.415 . S
C2417 H2387 0.950 . S
C2417 C2412 1.363 . S
C2417 C2416 1.415 . S
H2418 C2415 0.999 . S
H2419 C2400 0.913 . S
H2420 C2438 0.951 . S
H2421 C2440 0.951 . S
H2422 C2442 0.950 . S
H2423 C2443 0.950 . S
H2424 C2445 0.950 . S
H2425 C2448 0.950 . S
H2426 C2449 0.950 . S
H2427 C2451 0.950 . S
H2428 C2452 0.950 . S
H2429 C2453 0.951 . S
H2430 C2455 0.951 . S
H2431 C2457 0.950 . S
H2432 C2458 0.950 . S
H2433 C2460 0.950 . S
H2434 C2463 0.950 . S
H2435 C2464 0.950 . S
H2436 C2466 0.950 . S
H2437 C2467 0.950 . S
C2438 H2420 0.951 . S
C2438 C2439 1.366 . S
C2438 C2440 1.388 . S
C2439 C2438 1.366 . S
C2439 C2443 1.385 . S
C2440 H2421 0.951 . S
C2440 C2438 1.388 . S
C2440 C2441 1.366 . S
C2441 C2440 1.366 . S
C2441 C2442 1.414 . S
C2441 C2444 1.499 . S
C2442 H2422 0.950 . S
C2442 C2441 1.414 . S
C2442 C2443 1.374 . S
C2443 H2423 0.950 . S
C2443 C2439 1.385 . S
C2443 C2442 1.374 . S
C2444 C2441 1.499 . S
C2444 C2445 1.373 . S
C2444 C2446 1.389 . S
C2445 H2424 0.950 . S
C2445 C2444 1.373 . S
C2445 C2461 1.377 . S
C2446 C2444 1.389 . S
C2446 C2447 1.524 . S
C2446 C2460 1.377 . S
C2447 C2446 1.524 . S
C2447 C2448 1.397 . S
C2447 C2452 1.363 . S
C2448 H2425 0.950 . S
C2448 C2447 1.397 . S
C2448 C2449 1.334 . S
C2449 H2426 0.950 . S
C2449 C2448 1.334 . S
C2449 C2450 1.287 . S
C2450 C2449 1.287 . S
C2450 C2451 1.524 . S
C2450 H2469 0.913 . S
C2451 H2427 0.950 . S
C2451 C2450 1.524 . S
C2451 C2452 1.415 . S
C2452 H2428 0.950 . S
C2452 C2447 1.363 . S
C2452 C2451 1.415 . S
C2453 H2429 0.951 . S
C2453 C2454 1.366 . S
C2453 C2455 1.388 . S
C2454 C2453 1.366 . S
C2454 C2458 1.385 . S
C2455 H2430 0.951 . S
C2455 C2453 1.388 . S
C2455 C2456 1.366 . S
C2456 C2455 1.366 . S
C2456 C2457 1.414 . S
C2456 C2459 1.499 . S
C2457 H2431 0.950 . S
C2457 C2456 1.414 . S
C2457 C2458 1.374 . S
C2458 H2432 0.950 . S
C2458 C2454 1.385 . S
C2458 C2457 1.374 . S
C2459 C2456 1.499 . S
C2459 C2460 1.373 . S
C2459 C2461 1.389 . S
C2460 H2433 0.950 . S
C2460 C2446 1.377 . S
C2460 C2459 1.373 . S
C2461 C2445 1.377 . S
C2461 C2459 1.389 . S
C2461 C2462 1.524 . S
C2462 C2461 1.524 . S
C2462 C2463 1.397 . S
C2462 C2467 1.363 . S
C2463 H2434 0.950 . S
C2463 C2462 1.397 . S
C2463 C2464 1.334 . S
C2464 H2435 0.950 . S
C2464 C2463 1.334 . S
C2464 C2465 1.287 . S
C2465 C2464 1.287 . S
C2465 C2466 1.524 . S
C2465 H2468 0.999 . S
C2466 H2436 0.950 . S
C2466 C2465 1.524 . S
C2466 C2467 1.415 . S
C2467 H2437 0.950 . S
C2467 C2462 1.363 . S
C2467 C2466 1.415 . S
H2468 C2465 0.999 . S
H2469 C2450 0.913 . S
H2470 C2488 0.951 . S
H2471 C2490 0.951 . S
H2472 C2492 0.950 . S
H2473 C2493 0.950 . S
H2474 C2495 0.950 . S
H2475 C2498 0.950 . S
H2476 C2499 0.950 . S
H2477 C2501 0.950 . S
H2478 C2502 0.950 . S
H2479 C2503 0.951 . S
H2480 C2505 0.951 . S
H2481 C2507 0.950 . S
H2482 C2508 0.950 . S
H2483 C2510 0.950 . S
H2484 C2513 0.950 . S
H2485 C2514 0.950 . S
H2486 C2516 0.950 . S
H2487 C2517 0.950 . S
C2488 H2470 0.951 . S
C2488 C2489 1.366 . S
C2488 C2490 1.388 . S
C2489 C2488 1.366 . S
C2489 C2493 1.385 . S
C2490 H2471 0.951 . S
C2490 C2488 1.388 . S
C2490 C2491 1.366 . S
C2491 C2490 1.366 . S
C2491 C2492 1.414 . S
C2491 C2494 1.499 . S
C2492 H2472 0.950 . S
C2492 C2491 1.414 . S
C2492 C2493 1.374 . S
C2493 H2473 0.950 . S
C2493 C2489 1.385 . S
C2493 C2492 1.374 . S
C2494 C2491 1.499 . S
C2494 C2495 1.373 . S
C2494 C2496 1.389 . S
C2495 H2474 0.950 . S
C2495 C2494 1.373 . S
C2495 C2511 1.377 . S
C2496 C2494 1.389 . S
C2496 C2497 1.524 . S
C2496 C2510 1.377 . S
C2497 C2496 1.524 . S
C2497 C2498 1.397 . S
C2497 C2502 1.363 . S
C2498 H2475 0.950 . S
C2498 C2497 1.397 . S
C2498 C2499 1.334 . S
C2499 H2476 0.950 . S
C2499 C2498 1.334 . S
C2499 C2500 1.287 . S
C2500 C2499 1.287 . S
C2500 C2501 1.524 . S
C2500 H2519 0.913 . S
C2501 H2477 0.950 . S
C2501 C2500 1.524 . S
C2501 C2502 1.415 . S
C2502 H2478 0.950 . S
C2502 C2497 1.363 . S
C2502 C2501 1.415 . S
C2503 H2479 0.951 . S
C2503 C2504 1.366 . S
C2503 C2505 1.388 . S
C2504 C2503 1.366 . S
C2504 C2508 1.385 . S
C2505 H2480 0.951 . S
C2505 C2503 1.388 . S
C2505 C2506 1.366 . S
C2506 C2505 1.366 . S
C2506 C2507 1.414 . S
C2506 C2509 1.499 . S
C2507 H2481 0.950 . S
C2507 C2506 1.414 . S
C2507 C2508 1.374 . S
C2508 H2482 0.950 . S
C2508 C2504 1.385 . S
C2508 C2507 1.374 . S
C2509 C2506 1.499 . S
C2509 C2510 1.373 . S
C2509 C2511 1.389 . S
C2510 H2483 0.950 . S
C2510 C2496 1.377 . S
C2510 C2509 1.373 . S
C2511 C2495 1.377 . S
C2511 C2509 1.389 . S
C2511 C2512 1.524 . S
C2512 C2511 1.524 . S
C2512 C2513 1.397 . S
C2512 C2517 1.363 . S
C2513 H2484 0.950 . S
C2513 C2512 1.397 . S
C2513 C2514 1.334 . S
C2514 H2485 0.950 . S
C2514 C2513 1.334 . S
C2514 C2515 1.287 . S
C2515 C2514 1.287 . S
C2515 C2516 1.524 . S
C2515 H2518 0.999 . S
C2516 H2486 0.950 . S
C2516 C2515 1.524 . S
C2516 C2517 1.415 . S
C2517 H2487 0.950 . S
C2517 C2512 1.363 . S
C2517 C2516 1.415 . S
H2518 C2515 0.999 . S
H2519 C2500 0.913 . S
H2520 C2538 0.951 . S
H2521 C2540 0.951 . S
H2522 C2542 0.950 . S
H2523 C2543 0.950 . S
H2524 C2545 0.950 . S
H2525 C2548 0.950 . S
H2526 C2549 0.950 . S
H2527 C2551 0.950 . S
H2528 C2552 0.950 . S
H2529 C2553 0.951 . S
H2530 C2555 0.951 1_554 S
H2531 C2557 0.950 1_554 S
H2532 C2558 0.950 . S
H2533 C2560 0.950 . S
H2534 C2563 0.945 1_655 S
H2535 C2564 0.950 1_655 S
H2536 C2566 0.950 . S
H2537 C2567 0.950 . S
C2538 H2520 0.951 . S
C2538 C2539 1.366 . S
C2538 C2540 1.388 . S
C2539 C2538 1.366 . S
C2539 C2543 1.385 . S
C2540 H2521 0.951 . S
C2540 C2538 1.388 . S
C2540 C2541 1.366 . S
C2541 C2540 1.366 . S
C2541 C2542 1.414 . S
C2541 C2544 1.499 . S
C2542 H2522 0.950 . S
C2542 C2541 1.414 . S
C2542 C2543 1.374 . S
C2543 H2523 0.950 . S
C2543 C2539 1.385 . S
C2543 C2542 1.374 . S
C2544 C2541 1.499 . S
C2544 C2545 1.373 . S
C2544 C2546 1.389 . S
C2545 H2524 0.950 . S
C2545 C2544 1.373 . S
C2545 C2561 1.377 . S
C2546 C2544 1.389 . S
C2546 C2547 1.524 . S
C2546 C2560 1.377 . S
C2547 C2546 1.524 . S
C2547 C2548 1.397 . S
C2547 C2552 1.363 . S
C2548 H2525 0.950 . S
C2548 C2547 1.397 . S
C2548 C2549 1.334 . S
C2549 H2526 0.950 . S
C2549 C2548 1.334 . S
C2549 C2550 1.287 . S
C2550 C2549 1.287 . S
C2550 C2551 1.524 . S
C2550 H2569 0.913 . S
C2551 H2527 0.950 . S
C2551 C2550 1.524 . S
C2551 C2552 1.415 . S
C2552 H2528 0.950 . S
C2552 C2547 1.363 . S
C2552 C2551 1.415 . S
C2553 H2529 0.951 . S
C2553 C2554 1.366 . S
C2553 C2555 1.388 . S
C2554 C2553 1.366 . S
C2554 C2558 1.385 . S
C2555 H2530 0.951 1_556 S
C2555 C2553 1.388 . S
C2555 C2556 1.366 1_556 S
C2556 C2555 1.366 1_554 S
C2556 C2557 1.414 1_554 S
C2556 C2559 1.499 . S
C2557 H2531 0.950 1_556 S
C2557 C2556 1.414 1_556 S
C2557 C2558 1.374 . S
C2558 H2532 0.950 . S
C2558 C2554 1.385 . S
C2558 C2557 1.374 . S
C2559 C2556 1.499 . S
C2559 C2560 1.373 . S
C2559 C2561 1.389 . S
C2560 H2533 0.950 . S
C2560 C2546 1.377 . S
C2560 C2559 1.373 . S
C2561 C2545 1.377 . S
C2561 C2559 1.389 . S
C2561 C2562 1.524 . S
C2562 C2561 1.524 . S
C2562 C2563 1.397 . S
C2562 C2567 1.363 . S
C2563 H2534 0.945 1_455 S
C2563 C2562 1.397 . S
C2563 C2564 1.334 . S
C2564 H2535 0.950 1_455 S
C2564 C2563 1.334 . S
C2564 C2565 1.287 . S
C2565 C2564 1.287 . S
C2565 C2566 1.524 . S
C2565 H2568 0.999 . S
C2566 H2536 0.950 . S
C2566 C2565 1.524 . S
C2566 C2567 1.415 . S
C2567 H2537 0.950 . S
C2567 C2562 1.363 . S
C2567 C2566 1.415 . S
H2568 C2565 0.999 . S
H2569 C2550 0.913 . S
H2570 C2588 0.951 . S
H2571 C2590 0.951 . S
H2572 C2592 0.950 . S
H2573 C2593 0.950 . S
H2574 C2595 0.950 . S
H2575 C2598 0.950 . S
H2576 C2599 0.950 . S
H2577 C2601 0.950 . S
H2578 C2602 0.950 . S
H2579 C2603 0.951 . S
H2580 C2605 0.951 1_554 S
H2581 C2607 0.949 1_554 S
H2582 C2608 0.950 . S
H2583 C2610 0.950 . S
H2584 C2613 0.950 . S
H2585 C2614 0.950 . S
H2586 C2616 0.950 . S
H2587 C2617 0.950 . S
C2588 H2570 0.951 . S
C2588 C2589 1.366 . S
C2588 C2590 1.388 . S
C2589 C2588 1.366 . S
C2589 C2593 1.385 . S
C2590 H2571 0.951 . S
C2590 C2588 1.388 . S
C2590 C2591 1.366 . S
C2591 C2590 1.366 . S
C2591 C2592 1.414 . S
C2591 C2594 1.499 . S
C2592 H2572 0.950 . S
C2592 C2591 1.414 . S
C2592 C2593 1.374 . S
C2593 H2573 0.950 . S
C2593 C2589 1.385 . S
C2593 C2592 1.374 . S
C2594 C2591 1.499 . S
C2594 C2595 1.373 . S
C2594 C2596 1.389 . S
C2595 H2574 0.950 . S
C2595 C2594 1.373 . S
C2595 C2611 1.377 . S
C2596 C2594 1.389 . S
C2596 C2597 1.524 . S
C2596 C2610 1.377 . S
C2597 C2596 1.524 . S
C2597 C2598 1.397 . S
C2597 C2602 1.363 . S
C2598 H2575 0.950 . S
C2598 C2597 1.397 . S
C2598 C2599 1.334 . S
C2599 H2576 0.950 . S
C2599 C2598 1.334 . S
C2599 C2600 1.287 . S
C2600 C2599 1.287 . S
C2600 C2601 1.524 . S
C2600 H2619 0.913 . S
C2601 H2577 0.950 . S
C2601 C2600 1.524 . S
C2601 C2602 1.415 . S
C2602 H2578 0.950 . S
C2602 C2597 1.363 . S
C2602 C2601 1.415 . S
C2603 H2579 0.951 . S
C2603 C2604 1.366 . S
C2603 C2605 1.388 . S
C2604 C2603 1.366 . S
C2604 C2608 1.385 . S
C2605 H2580 0.951 1_556 S
C2605 C2603 1.388 . S
C2605 C2606 1.366 1_556 S
C2606 C2605 1.366 1_554 S
C2606 C2607 1.414 1_554 S
C2606 C2609 1.499 . S
C2607 H2581 0.949 1_556 S
C2607 C2606 1.414 1_556 S
C2607 C2608 1.374 . S
C2608 H2582 0.950 . S
C2608 C2604 1.385 . S
C2608 C2607 1.374 . S
C2609 C2606 1.499 . S
C2609 C2610 1.373 . S
C2609 C2611 1.389 . S
C2610 H2583 0.950 . S
C2610 C2596 1.377 . S
C2610 C2609 1.373 . S
C2611 C2595 1.377 . S
C2611 C2609 1.389 . S
C2611 C2612 1.524 . S
C2612 C2611 1.524 . S
C2612 C2613 1.397 . S
C2612 C2617 1.363 . S
C2613 H2584 0.950 . S
C2613 C2612 1.397 . S
C2613 C2614 1.334 . S
C2614 H2585 0.950 . S
C2614 C2613 1.334 . S
C2614 C2615 1.287 . S
C2615 C2614 1.287 . S
C2615 C2616 1.524 . S
C2615 H2618 0.999 . S
C2616 H2586 0.950 . S
C2616 C2615 1.524 . S
C2616 C2617 1.415 . S
C2617 H2587 0.950 . S
C2617 C2612 1.363 . S
C2617 C2616 1.415 . S
H2618 C2615 0.999 . S
H2619 C2600 0.913 . S
H2620 C2638 0.951 1_565 S
H2621 C2640 0.951 1_565 S
H2622 C2642 0.950 . S
H2623 C2643 0.950 . S
H2624 C2645 0.950 . S
H2625 C2648 0.950 . S
H2626 C2649 0.950 . S
H2627 C2651 0.950 . S
H2628 C2652 0.950 . S
H2629 C2653 0.951 . S
H2630 C2655 0.951 1_554 S
H2631 C2657 0.950 1_554 S
H2632 C2658 0.950 . S
H2633 C2660 0.950 1_565 S
H2634 C2663 0.950 . S
H2635 C2664 0.950 . S
H2636 C2666 0.950 . S
H2637 C2667 0.950 . S
C2638 H2620 0.951 1_545 S
C2638 C2639 1.366 . S
C2638 C2640 1.388 . S
C2639 C2638 1.366 . S
C2639 C2643 1.385 . S
C2640 H2621 0.951 1_545 S
C2640 C2638 1.388 . S
C2640 C2641 1.366 . S
C2641 C2640 1.366 . S
C2641 C2642 1.414 . S
C2641 C2644 1.499 . S
C2642 H2622 0.950 . S
C2642 C2641 1.414 . S
C2642 C2643 1.374 . S
C2643 H2623 0.950 . S
C2643 C2639 1.385 . S
C2643 C2642 1.374 . S
C2644 C2641 1.499 . S
C2644 C2645 1.373 . S
C2644 C2646 1.389 . S
C2645 H2624 0.950 . S
C2645 C2644 1.373 . S
C2645 C2661 1.377 . S
C2646 C2644 1.389 . S
C2646 C2647 1.524 1_545 S
C2646 C2660 1.377 . S
C2647 C2646 1.524 1_565 S
C2647 C2648 1.397 . S
C2647 C2652 1.363 . S
C2648 H2625 0.950 . S
C2648 C2647 1.397 . S
C2648 C2649 1.334 . S
C2649 H2626 0.950 . S
C2649 C2648 1.334 . S
C2649 C2650 1.287 . S
C2650 C2649 1.287 . S
C2650 C2651 1.524 . S
C2650 H2669 0.913 . S
C2651 H2627 0.950 . S
C2651 C2650 1.524 . S
C2651 C2652 1.415 . S
C2652 H2628 0.950 . S
C2652 C2647 1.363 . S
C2652 C2651 1.415 . S
C2653 H2629 0.951 . S
C2653 C2654 1.366 . S
C2653 C2655 1.388 . S
C2654 C2653 1.366 . S
C2654 C2658 1.385 . S
C2655 H2630 0.951 1_556 S
C2655 C2653 1.388 . S
C2655 C2656 1.366 1_556 S
C2656 C2655 1.366 1_554 S
C2656 C2657 1.414 1_554 S
C2656 C2659 1.499 . S
C2657 H2631 0.950 1_556 S
C2657 C2656 1.414 1_556 S
C2657 C2658 1.374 . S
C2658 H2632 0.950 . S
C2658 C2654 1.385 . S
C2658 C2657 1.374 . S
C2659 C2656 1.499 . S
C2659 C2660 1.373 . S
C2659 C2661 1.389 . S
C2660 H2633 0.950 1_545 S
C2660 C2646 1.377 . S
C2660 C2659 1.373 . S
C2661 C2645 1.377 . S
C2661 C2659 1.389 . S
C2661 C2662 1.524 . S
C2662 C2661 1.524 . S
C2662 C2663 1.397 . S
C2662 C2667 1.363 . S
C2663 H2634 0.950 . S
C2663 C2662 1.397 . S
C2663 C2664 1.334 . S
C2664 H2635 0.950 . S
C2664 C2663 1.334 . S
C2664 C2665 1.287 . S
C2665 C2664 1.287 . S
C2665 C2666 1.524 . S
C2665 H2668 0.999 . S
C2666 H2636 0.950 . S
C2666 C2665 1.524 . S
C2666 C2667 1.415 . S
C2667 H2637 0.950 . S
C2667 C2662 1.363 . S
C2667 C2666 1.415 . S
H2668 C2665 0.999 . S
H2669 C2650 0.913 . S
H2670 C2688 0.951 . S
H2671 C2690 0.951 . S
H2672 C2692 0.950 1_655 S
H2673 C2693 0.867 1_655 S
H2674 C2695 0.950 . S
H2675 C2698 0.950 . S
H2676 C2699 0.950 . S
H2677 C2701 0.950 . S
H2678 C2702 0.950 . S
H2679 C2703 0.951 . S
H2680 C2705 0.931 1_656 S
H2681 C2707 0.950 1_556 S
H2682 C2708 0.950 . S
H2683 C2710 0.950 . S
H2684 C2713 0.950 . S
H2685 C2714 0.950 1_554 S
H2686 C2716 0.950 . S
H2687 C2717 0.950 . S
C2688 H2670 0.951 . S
C2688 C2689 1.366 . S
C2688 C2690 1.388 . S
C2689 C2688 1.366 . S
C2689 C2693 1.462 . S
C2690 H2671 0.951 . S
C2690 C2688 1.388 . S
C2690 C2691 1.366 . S
C2691 C2690 1.366 . S
C2691 C2692 1.414 . S
C2691 C2694 1.499 . S
C2692 H2672 0.950 1_455 S
C2692 C2691 1.414 . S
C2692 C2693 1.386 . S
C2693 H2673 0.867 1_455 S
C2693 C2689 1.462 . S
C2693 C2692 1.386 . S
C2694 C2691 1.499 . S
C2694 C2695 1.373 . S
C2694 C2696 1.389 . S
C2695 H2674 0.950 . S
C2695 C2694 1.373 . S
C2695 C2711 1.377 . S
C2696 C2694 1.389 . S
C2696 C2697 1.524 . S
C2696 C2710 1.377 . S
C2697 C2696 1.524 . S
C2697 C2698 1.397 . S
C2697 C2702 1.363 . S
C2698 H2675 0.950 . S
C2698 C2697 1.397 . S
C2698 C2699 1.334 . S
C2699 H2676 0.950 . S
C2699 C2698 1.334 . S
C2699 C2700 1.287 . S
C2700 C2699 1.287 . S
C2700 C2701 1.524 . S
C2700 H2719 0.913 . S
C2701 H2677 0.950 . S
C2701 C2700 1.524 . S
C2701 C2702 1.415 . S
C2702 H2678 0.950 . S
C2702 C2697 1.363 . S
C2702 C2701 1.415 . S
C2703 H2679 0.951 . S
C2703 C2704 1.366 . S
C2703 C2705 1.388 . S
C2704 C2703 1.366 . S
C2704 C2708 1.385 . S
C2705 H2680 0.931 1_454 S
C2705 C2703 1.388 . S
C2705 C2706 1.366 1_554 S
C2706 C2705 1.366 1_556 S
C2706 C2707 1.414 1_556 S
C2706 C2709 1.499 . S
C2707 H2681 0.950 1_554 S
C2707 C2706 1.414 1_554 S
C2707 C2708 1.374 . S
C2708 H2682 0.950 . S
C2708 C2704 1.385 . S
C2708 C2707 1.374 . S
C2709 C2706 1.499 . S
C2709 C2710 1.373 . S
C2709 C2711 1.389 . S
C2710 H2683 0.950 . S
C2710 C2696 1.377 . S
C2710 C2709 1.373 . S
C2711 C2695 1.377 . S
C2711 C2709 1.389 . S
C2711 C2712 1.524 . S
C2712 C2711 1.524 . S
C2712 C2713 1.397 . S
C2712 C2717 1.363 1_455 S
C2713 H2684 0.950 . S
C2713 C2712 1.397 . S
C2713 C2714 1.334 . S
C2714 H2685 0.950 1_556 S
C2714 C2713 1.334 . S
C2714 C2715 1.287 . S
C2715 C2714 1.287 . S
C2715 C2716 1.524 1_455 S
C2715 H2718 0.999 1_455 S
C2716 H2686 0.950 . S
C2716 C2715 1.524 1_655 S
C2716 C2717 1.415 . S
C2717 H2687 0.950 . S
C2717 C2712 1.363 1_655 S
C2717 C2716 1.415 . S
H2718 C2715 0.999 1_655 S
H2719 C2700 0.913 . S
H2720 C2738 0.951 . S
H2721 C2740 0.951 1_556 S
H2722 C2742 0.950 1_556 S
H2723 C2743 0.950 . S
H2724 C2745 0.950 . S
H2725 C2748 0.950 . S
H2726 C2749 0.950 1_554 S
H2727 C2751 0.950 . S
H2728 C2752 0.950 . S
H2729 C2753 0.951 . S
H2730 C2755 0.951 . S
H2731 C2757 0.950 . S
H2732 C2758 0.950 . S
H2733 C2760 0.950 . S
H2734 C2763 0.950 . S
H2735 C2764 0.950 . S
H2736 C2766 0.950 . S
H2737 C2767 0.950 . S
C2738 H2720 0.951 . S
C2738 C2739 1.366 . S
C2738 C2740 1.388 . S
C2739 C2738 1.366 . S
C2739 C2743 1.385 . S
C2740 H2721 0.951 1_554 S
C2740 C2738 1.388 . S
C2740 C2741 1.366 1_554 S
C2741 C2740 1.366 1_556 S
C2741 C2742 1.414 1_556 S
C2741 C2744 1.499 . S
C2742 H2722 0.950 1_554 S
C2742 C2741 1.414 1_554 S
C2742 C2743 1.374 . S
C2743 H2723 0.950 . S
C2743 C2739 1.385 . S
C2743 C2742 1.374 . S
C2744 C2741 1.499 . S
C2744 C2745 1.373 . S
C2744 C2746 1.389 . S
C2745 H2724 0.950 . S
C2745 C2744 1.373 . S
C2745 C2761 1.377 . S
C2746 C2744 1.389 . S
C2746 C2747 1.524 . S
C2746 C2760 1.377 . S
C2747 C2746 1.524 . S
C2747 C2748 1.397 . S
C2747 C2752 1.363 . S
C2748 H2725 0.950 . S
C2748 C2747 1.397 . S
C2748 C2749 1.334 . S
C2749 H2726 0.950 1_556 S
C2749 C2748 1.334 . S
C2749 C2750 1.287 . S
C2750 C2749 1.287 . S
C2750 C2751 1.524 . S
C2750 H2769 0.913 . S
C2751 H2727 0.950 . S
C2751 C2750 1.524 . S
C2751 C2752 1.415 . S
C2752 H2728 0.950 . S
C2752 C2747 1.363 . S
C2752 C2751 1.415 . S
C2753 H2729 0.951 . S
C2753 C2754 1.366 . S
C2753 C2755 1.388 . S
C2754 C2753 1.366 . S
C2754 C2758 1.385 . S
C2755 H2730 0.951 . S
C2755 C2753 1.388 . S
C2755 C2756 1.366 . S
C2756 C2755 1.366 . S
C2756 C2757 1.414 . S
C2756 C2759 1.499 . S
C2757 H2731 0.950 . S
C2757 C2756 1.414 . S
C2757 C2758 1.374 . S
C2758 H2732 0.950 . S
C2758 C2754 1.385 . S
C2758 C2757 1.374 . S
C2759 C2756 1.499 . S
C2759 C2760 1.373 . S
C2759 C2761 1.389 . S
C2760 H2733 0.950 . S
C2760 C2746 1.377 . S
C2760 C2759 1.373 . S
C2761 C2745 1.377 . S
C2761 C2759 1.389 . S
C2761 C2762 1.524 . S
C2762 C2761 1.524 . S
C2762 C2763 1.397 . S
C2762 C2767 1.363 . S
C2763 H2734 0.950 . S
C2763 C2762 1.397 . S
C2763 C2764 1.334 . S
C2764 H2735 0.950 . S
C2764 C2763 1.334 . S
C2764 C2765 1.287 . S
C2765 C2764 1.287 . S
C2765 C2766 1.524 . S
C2765 H2768 0.999 . S
C2766 H2736 0.950 . S
C2766 C2765 1.524 . S
C2766 C2767 1.415 . S
C2767 H2737 0.950 . S
C2767 C2762 1.363 . S
C2767 C2766 1.415 . S
H2768 C2765 0.999 . S
H2769 C2750 0.913 . S
H2770 C2788 0.951 1_565 S
H2771 C2790 0.951 1_566 S
H2772 C2792 0.950 1_556 S
H2773 C2793 0.950 . S
H2774 C2795 0.950 . S
H2775 C2798 0.950 . S
H2776 C2799 0.950 1_554 S
H2777 C2801 0.950 . S
H2778 C2802 0.950 . S
H2779 C2803 0.951 . S
H2780 C2805 0.951 . S
H2781 C2807 0.950 . S
H2782 C2808 0.950 . S
H2783 C2810 0.950 . S
H2784 C2813 0.950 . S
H2785 C2814 0.950 . S
H2786 C2816 0.950 . S
H2787 C2817 0.950 . S
C2788 H2770 0.951 1_545 S
C2788 C2789 1.366 . S
C2788 C2790 1.388 . S
C2789 C2788 1.366 . S
C2789 C2793 1.385 . S
C2790 H2771 0.951 1_544 S
C2790 C2788 1.388 . S
C2790 C2791 1.366 1_554 S
C2791 C2790 1.366 1_556 S
C2791 C2792 1.414 1_556 S
C2791 C2794 1.499 . S
C2792 H2772 0.950 1_554 S
C2792 C2791 1.414 1_554 S
C2792 C2793 1.374 . S
C2793 H2773 0.950 . S
C2793 C2789 1.385 . S
C2793 C2792 1.374 . S
C2794 C2791 1.499 . S
C2794 C2795 1.373 . S
C2794 C2796 1.389 . S
C2795 H2774 0.950 . S
C2795 C2794 1.373 . S
C2795 C2811 1.377 . S
C2796 C2794 1.389 . S
C2796 C2797 1.524 . S
C2796 C2810 1.377 . S
C2797 C2796 1.524 . S
C2797 C2798 1.397 . S
C2797 C2802 1.363 1_545 S
C2798 H2775 0.950 . S
C2798 C2797 1.397 . S
C2798 C2799 1.334 . S
C2799 H2776 0.950 1_556 S
C2799 C2798 1.334 . S
C2799 C2800 1.287 . S
C2800 C2799 1.287 . S
C2800 C2801 1.524 1_545 S
C2800 H2819 0.913 1_545 S
C2801 H2777 0.950 . S
C2801 C2800 1.524 1_565 S
C2801 C2802 1.415 . S
C2802 H2778 0.950 . S
C2802 C2797 1.363 1_565 S
C2802 C2801 1.415 . S
C2803 H2779 0.951 . S
C2803 C2804 1.366 . S
C2803 C2805 1.388 . S
C2804 C2803 1.366 . S
C2804 C2808 1.385 . S
C2805 H2780 0.951 . S
C2805 C2803 1.388 . S
C2805 C2806 1.366 . S
C2806 C2805 1.366 . S
C2806 C2807 1.414 . S
C2806 C2809 1.499 . S
C2807 H2781 0.950 . S
C2807 C2806 1.414 . S
C2807 C2808 1.374 . S
C2808 H2782 0.950 . S
C2808 C2804 1.385 . S
C2808 C2807 1.374 . S
C2809 C2806 1.499 . S
C2809 C2810 1.373 . S
C2809 C2811 1.389 . S
C2810 H2783 0.950 . S
C2810 C2796 1.377 . S
C2810 C2809 1.373 . S
C2811 C2795 1.377 . S
C2811 C2809 1.389 . S
C2811 C2812 1.524 . S
C2812 C2811 1.524 . S
C2812 C2813 1.397 . S
C2812 C2817 1.363 . S
C2813 H2784 0.950 . S
C2813 C2812 1.397 . S
C2813 C2814 1.334 . S
C2814 H2785 0.950 . S
C2814 C2813 1.334 . S
C2814 C2815 1.287 . S
C2815 C2814 1.287 . S
C2815 C2816 1.524 . S
C2815 H2818 0.999 . S
C2816 H2786 0.950 . S
C2816 C2815 1.524 . S
C2816 C2817 1.415 . S
C2817 H2787 0.950 . S
C2817 C2812 1.363 . S
C2817 C2816 1.415 . S
H2818 C2815 0.999 . S
H2819 C2800 0.913 1_565 S
H2820 C2838 0.951 . S
H2821 C2840 0.951 . S
H2822 C2842 0.950 . S
H2823 C2843 0.950 . S
H2824 C2845 0.950 . S
H2825 C2848 0.950 . S
H2826 C2849 0.950 . S
H2827 C2851 0.950 . S
H2828 C2852 0.950 . S
H2829 C2853 0.951 . S
H2830 C2855 0.951 . S
H2831 C2857 0.950 . S
H2832 C2858 0.950 . S
H2833 C2860 0.950 . S
H2834 C2863 0.950 . S
H2835 C2864 0.950 . S
H2836 C2866 0.950 . S
H2837 C2867 0.950 . S
C2838 H2820 0.951 . S
C2838 C2839 1.366 . S
C2838 C2840 1.388 . S
C2839 C2838 1.366 . S
C2839 C2843 1.385 . S
C2840 H2821 0.951 . S
C2840 C2838 1.388 . S
C2840 C2841 1.366 . S
C2841 C2840 1.366 . S
C2841 C2842 1.414 . S
C2841 C2844 1.499 . S
C2842 H2822 0.950 . S
C2842 C2841 1.414 . S
C2842 C2843 1.374 . S
C2843 H2823 0.950 . S
C2843 C2839 1.385 . S
C2843 C2842 1.374 . S
C2844 C2841 1.499 . S
C2844 C2845 1.373 . S
C2844 C2846 1.389 . S
C2845 H2824 0.950 . S
C2845 C2844 1.373 . S
C2845 C2861 1.377 . S
C2846 C2844 1.389 . S
C2846 C2847 1.524 . S
C2846 C2860 1.377 . S
C2847 C2846 1.524 . S
C2847 C2848 1.397 . S
C2847 C2852 1.363 . S
C2848 H2825 0.950 . S
C2848 C2847 1.397 . S
C2848 C2849 1.334 . S
C2849 H2826 0.950 . S
C2849 C2848 1.334 . S
C2849 C2850 1.287 . S
C2850 C2849 1.287 . S
C2850 C2851 1.524 . S
C2850 H2869 0.913 . S
C2851 H2827 0.950 . S
C2851 C2850 1.524 . S
C2851 C2852 1.415 . S
C2852 H2828 0.950 . S
C2852 C2847 1.363 . S
C2852 C2851 1.415 . S
C2853 H2829 0.951 . S
C2853 C2854 1.366 . S
C2853 C2855 1.388 . S
C2854 C2853 1.366 . S
C2854 C2858 1.385 . S
C2855 H2830 0.951 . S
C2855 C2853 1.388 . S
C2855 C2856 1.366 . S
C2856 C2855 1.366 . S
C2856 C2857 1.414 . S
C2856 C2859 1.499 . S
C2857 H2831 0.950 . S
C2857 C2856 1.414 . S
C2857 C2858 1.374 . S
C2858 H2832 0.950 . S
C2858 C2854 1.385 . S
C2858 C2857 1.374 . S
C2859 C2856 1.499 . S
C2859 C2860 1.373 . S
C2859 C2861 1.389 . S
C2860 H2833 0.950 . S
C2860 C2846 1.377 . S
C2860 C2859 1.373 . S
C2861 C2845 1.377 . S
C2861 C2859 1.389 . S
C2861 C2862 1.524 . S
C2862 C2861 1.524 . S
C2862 C2863 1.397 . S
C2862 C2867 1.363 . S
C2863 H2834 0.950 . S
C2863 C2862 1.397 . S
C2863 C2864 1.334 . S
C2864 H2835 0.950 . S
C2864 C2863 1.334 . S
C2864 C2865 1.287 . S
C2865 C2864 1.287 . S
C2865 C2866 1.524 . S
C2865 H2868 0.999 . S
C2866 H2836 0.950 . S
C2866 C2865 1.524 . S
C2866 C2867 1.415 . S
C2867 H2837 0.950 . S
C2867 C2862 1.363 . S
C2867 C2866 1.415 . S
H2868 C2865 0.999 . S
H2869 C2850 0.913 . S
H2870 C2888 0.951 . S
H2871 C2890 0.951 . S
H2872 C2892 0.950 . S
H2873 C2893 0.950 . S
H2874 C2895 0.950 . S
H2875 C2898 0.950 . S
H2876 C2899 0.950 . S
H2877 C2901 0.950 . S
H2878 C2902 0.950 . S
H2879 C2903 0.951 . S
H2880 C2905 0.951 . S
H2881 C2907 0.950 . S
H2882 C2908 0.950 . S
H2883 C2910 0.950 . S
H2884 C2913 0.950 . S
H2885 C2914 0.950 . S
H2886 C2916 0.950 . S
H2887 C2917 0.950 . S
C2888 H2870 0.951 . S
C2888 C2889 1.366 . S
C2888 C2890 1.388 . S
C2889 C2888 1.366 . S
C2889 C2893 1.385 . S
C2890 H2871 0.951 . S
C2890 C2888 1.388 . S
C2890 C2891 1.366 . S
C2891 C2890 1.366 . S
C2891 C2892 1.414 . S
C2891 C2894 1.499 . S
C2892 H2872 0.950 . S
C2892 C2891 1.414 . S
C2892 C2893 1.374 . S
C2893 H2873 0.950 . S
C2893 C2889 1.385 . S
C2893 C2892 1.374 . S
C2894 C2891 1.499 . S
C2894 C2895 1.373 . S
C2894 C2896 1.389 . S
C2895 H2874 0.950 . S
C2895 C2894 1.373 . S
C2895 C2911 1.377 . S
C2896 C2894 1.389 . S
C2896 C2897 1.524 . S
C2896 C2910 1.377 . S
C2897 C2896 1.524 . S
C2897 C2898 1.397 . S
C2897 C2902 1.363 . S
C2898 H2875 0.950 . S
C2898 C2897 1.397 . S
C2898 C2899 1.334 . S
C2899 H2876 0.950 . S
C2899 C2898 1.334 . S
C2899 C2900 1.287 . S
C2900 C2899 1.287 . S
C2900 C2901 1.524 . S
C2900 H2919 0.913 . S
C2901 H2877 0.950 . S
C2901 C2900 1.524 . S
C2901 C2902 1.415 . S
C2902 H2878 0.950 . S
C2902 C2897 1.363 . S
C2902 C2901 1.415 . S
C2903 H2879 0.951 . S
C2903 C2904 1.366 . S
C2903 C2905 1.388 . S
C2904 C2903 1.366 . S
C2904 C2908 1.385 . S
C2905 H2880 0.951 . S
C2905 C2903 1.388 . S
C2905 C2906 1.366 . S
C2906 C2905 1.366 . S
C2906 C2907 1.414 . S
C2906 C2909 1.499 . S
C2907 H2881 0.950 . S
C2907 C2906 1.414 . S
C2907 C2908 1.374 . S
C2908 H2882 0.950 . S
C2908 C2904 1.385 . S
C2908 C2907 1.374 . S
C2909 C2906 1.499 . S
C2909 C2910 1.373 . S
C2909 C2911 1.389 . S
C2910 H2883 0.950 . S
C2910 C2896 1.377 . S
C2910 C2909 1.373 . S
C2911 C2895 1.377 . S
C2911 C2909 1.389 . S
C2911 C2912 1.524 . S
C2912 C2911 1.524 . S
C2912 C2913 1.397 . S
C2912 C2917 1.363 . S
C2913 H2884 0.950 . S
C2913 C2912 1.397 . S
C2913 C2914 1.334 . S
C2914 H2885 0.950 . S
C2914 C2913 1.334 . S
C2914 C2915 1.287 . S
C2915 C2914 1.287 . S
C2915 C2916 1.524 . S
C2915 H2918 0.999 . S
C2916 H2886 0.950 . S
C2916 C2915 1.524 . S
C2916 C2917 1.415 . S
C2917 H2887 0.950 . S
C2917 C2912 1.363 . S
C2917 C2916 1.415 . S
H2918 C2915 0.999 . S
H2919 C2900 0.913 . S
H2920 C2938 0.951 . S
H2921 C2940 0.951 . S
H2922 C2942 0.950 . S
H2923 C2943 0.950 . S
H2924 C2945 0.950 . S
H2925 C2948 0.950 . S
H2926 C2949 0.950 . S
H2927 C2951 0.950 . S
H2928 C2952 0.950 . S
H2929 C2953 0.951 . S
H2930 C2955 0.951 . S
H2931 C2957 0.950 . S
H2932 C2958 0.950 . S
H2933 C2960 0.950 . S
H2934 C2963 0.950 . S
H2935 C2964 0.950 . S
H2936 C2966 0.950 . S
H2937 C2967 0.950 . S
C2938 H2920 0.951 . S
C2938 C2939 1.366 . S
C2938 C2940 1.388 . S
C2939 C2938 1.366 . S
C2939 C2943 1.385 . S
C2940 H2921 0.951 . S
C2940 C2938 1.388 . S
C2940 C2941 1.366 . S
C2941 C2940 1.366 . S
C2941 C2942 1.414 . S
C2941 C2944 1.499 . S
C2942 H2922 0.950 . S
C2942 C2941 1.414 . S
C2942 C2943 1.374 . S
C2943 H2923 0.950 . S
C2943 C2939 1.385 . S
C2943 C2942 1.374 . S
C2944 C2941 1.499 . S
C2944 C2945 1.373 . S
C2944 C2946 1.389 . S
C2945 H2924 0.950 . S
C2945 C2944 1.373 . S
C2945 C2961 1.377 . S
C2946 C2944 1.389 . S
C2946 C2947 1.524 . S
C2946 C2960 1.377 . S
C2947 C2946 1.524 . S
C2947 C2948 1.397 . S
C2947 C2952 1.363 . S
C2948 H2925 0.950 . S
C2948 C2947 1.397 . S
C2948 C2949 1.334 . S
C2949 H2926 0.950 . S
C2949 C2948 1.334 . S
C2949 C2950 1.287 . S
C2950 C2949 1.287 . S
C2950 C2951 1.524 . S
C2950 H2969 0.913 . S
C2951 H2927 0.950 . S
C2951 C2950 1.524 . S
C2951 C2952 1.415 . S
C2952 H2928 0.950 . S
C2952 C2947 1.363 . S
C2952 C2951 1.415 . S
C2953 H2929 0.951 . S
C2953 C2954 1.366 . S
C2953 C2955 1.388 . S
C2954 C2953 1.366 . S
C2954 C2958 1.385 . S
C2955 H2930 0.951 . S
C2955 C2953 1.388 . S
C2955 C2956 1.366 . S
C2956 C2955 1.366 . S
C2956 C2957 1.414 . S
C2956 C2959 1.499 . S
C2957 H2931 0.950 . S
C2957 C2956 1.414 . S
C2957 C2958 1.374 . S
C2958 H2932 0.950 . S
C2958 C2954 1.385 . S
C2958 C2957 1.374 . S
C2959 C2956 1.499 . S
C2959 C2960 1.373 . S
C2959 C2961 1.389 . S
C2960 H2933 0.950 . S
C2960 C2946 1.377 . S
C2960 C2959 1.373 . S
C2961 C2945 1.377 . S
C2961 C2959 1.389 . S
C2961 C2962 1.524 . S
C2962 C2961 1.524 . S
C2962 C2963 1.397 . S
C2962 C2967 1.363 . S
C2963 H2934 0.950 . S
C2963 C2962 1.397 . S
C2963 C2964 1.334 . S
C2964 H2935 0.950 . S
C2964 C2963 1.334 . S
C2964 C2965 1.287 . S
C2965 C2964 1.287 . S
C2965 C2966 1.524 . S
C2965 H2968 0.999 . S
C2966 H2936 0.950 . S
C2966 C2965 1.524 . S
C2966 C2967 1.415 . S
C2967 H2937 0.950 . S
C2967 C2962 1.363 . S
C2967 C2966 1.415 . S
H2968 C2965 0.999 . S
H2969 C2950 0.913 . S
H2970 C2988 0.951 . S
H2971 C2990 0.960 . S
H2972 C2992 0.950 1_554 S
H2973 C2993 0.950 . S
H2974 C2995 0.950 . S
H2975 C2998 0.950 . S
H2976 C2999 0.950 . S
H2977 C3001 0.950 . S
H2978 C3002 0.950 . S
H2979 C3003 0.951 . S
H2980 C3005 0.951 . S
H2981 C3007 0.950 . S
H2982 C3008 0.950 . S
H2983 C3010 0.950 . S
H2984 C3013 0.950 . S
H2985 C3014 0.950 . S
H2986 C3016 0.950 . S
H2987 C3017 0.950 . S
C2988 H2970 0.951 . S
C2988 C2989 1.366 . S
C2988 C2990 1.372 1_556 S
C2989 C2988 1.366 . S
C2989 C2993 1.385 . S
C2990 H2971 0.960 . S
C2990 C2988 1.372 1_554 S
C2990 C2991 1.372 . S
C2991 C2990 1.372 . S
C2991 C2992 1.414 1_554 S
C2991 C2994 1.499 . S
C2992 H2972 0.950 1_556 S
C2992 C2991 1.414 1_556 S
C2992 C2993 1.374 . S
C2993 H2973 0.950 . S
C2993 C2989 1.385 . S
C2993 C2992 1.374 . S
C2994 C2991 1.499 . S
C2994 C2995 1.373 . S
C2994 C2996 1.389 . S
C2995 H2974 0.950 . S
C2995 C2994 1.373 . S
C2995 C3011 1.377 . S
C2996 C2994 1.389 . S
C2996 C2997 1.524 . S
C2996 C3010 1.377 . S
C2997 C2996 1.524 . S
C2997 C2998 1.397 . S
C2997 C3002 1.363 . S
C2998 H2975 0.950 . S
C2998 C2997 1.397 . S
C2998 C2999 1.334 . S
C2999 H2976 0.950 . S
C2999 C2998 1.334 . S
C2999 C3000 1.287 . S
C3000 C2999 1.287 . S
C3000 C3001 1.524 . S
C3000 H3019 0.913 . S
C3001 H2977 0.950 . S
C3001 C3000 1.524 . S
C3001 C3002 1.415 . S
C3002 H2978 0.950 . S
C3002 C2997 1.363 . S
C3002 C3001 1.415 . S
C3003 H2979 0.951 . S
C3003 C3004 1.366 . S
C3003 C3005 1.388 . S
C3004 C3003 1.366 . S
C3004 C3008 1.385 . S
C3005 H2980 0.951 . S
C3005 C3003 1.388 . S
C3005 C3006 1.366 . S
C3006 C3005 1.366 . S
C3006 C3007 1.414 . S
C3006 C3009 1.499 . S
C3007 H2981 0.950 . S
C3007 C3006 1.414 . S
C3007 C3008 1.374 . S
C3008 H2982 0.950 . S
C3008 C3004 1.385 . S
C3008 C3007 1.374 . S
C3009 C3006 1.499 . S
C3009 C3010 1.373 . S
C3009 C3011 1.389 . S
C3010 H2983 0.950 . S
C3010 C2996 1.377 . S
C3010 C3009 1.373 . S
C3011 C2995 1.377 . S
C3011 C3009 1.389 . S
C3011 C3012 1.524 . S
C3012 C3011 1.524 . S
C3012 C3013 1.397 . S
C3012 C3017 1.363 . S
C3013 H2984 0.950 . S
C3013 C3012 1.397 . S
C3013 C3014 1.334 . S
C3014 H2985 0.950 . S
C3014 C3013 1.334 . S
C3014 C3015 1.287 . S
C3015 C3014 1.287 . S
C3015 C3016 1.524 . S
C3015 H3018 0.999 . S
C3016 H2986 0.950 . S
C3016 C3015 1.524 . S
C3016 C3017 1.415 . S
C3017 H2987 0.950 . S
C3017 C3012 1.363 . S
C3017 C3016 1.415 . S
H3018 C3015 0.999 . S
H3019 C3000 0.913 . S
H3020 C3038 0.951 . S
H3021 C3040 0.951 1_554 S
H3022 C3042 0.947 1_554 S
H3023 C3043 0.950 . S
H3024 C3045 0.950 . S
H3025 C3048 0.950 . S
H3026 C3049 0.950 . S
H3027 C3051 0.950 . S
H3028 C3052 0.950 . S
H3029 C3053 0.951 . S
H3030 C3055 0.951 . S
H3031 C3057 0.950 . S
H3032 C3058 0.950 . S
H3033 C3060 0.950 . S
H3034 C3063 0.950 . S
H3035 C3064 0.950 . S
H3036 C3066 0.950 . S
H3037 C3067 0.950 . S
C3038 H3020 0.951 . S
C3038 C3039 1.366 . S
C3038 C3040 1.388 . S
C3039 C3038 1.366 . S
C3039 C3043 1.385 . S
C3040 H3021 0.951 1_556 S
C3040 C3038 1.388 . S
C3040 C3041 1.366 1_556 S
C3041 C3040 1.366 1_554 S
C3041 C3042 1.411 1_554 S
C3041 C3044 1.499 . S
C3042 H3022 0.947 1_556 S
C3042 C3041 1.411 1_556 S
C3042 C3043 1.381 . S
C3043 H3023 0.950 . S
C3043 C3039 1.385 . S
C3043 C3042 1.381 . S
C3044 C3041 1.499 . S
C3044 C3045 1.373 . S
C3044 C3046 1.389 . S
C3045 H3024 0.950 . S
C3045 C3044 1.373 . S
C3045 C3061 1.377 . S
C3046 C3044 1.389 . S
C3046 C3047 1.524 . S
C3046 C3060 1.377 . S
C3047 C3046 1.524 . S
C3047 C3048 1.397 . S
C3047 C3052 1.363 . S
C3048 H3025 0.950 . S
C3048 C3047 1.397 . S
C3048 C3049 1.334 . S
C3049 H3026 0.950 . S
C3049 C3048 1.334 . S
C3049 C3050 1.287 . S
C3050 C3049 1.287 . S
C3050 C3051 1.524 . S
C3050 H3069 0.913 . S
C3051 H3027 0.950 . S
C3051 C3050 1.524 . S
C3051 C3052 1.415 . S
C3052 H3028 0.950 . S
C3052 C3047 1.363 . S
C3052 C3051 1.415 . S
C3053 H3029 0.951 . S
C3053 C3054 1.366 . S
C3053 C3055 1.388 . S
C3054 C3053 1.366 . S
C3054 C3058 1.385 . S
C3055 H3030 0.951 . S
C3055 C3053 1.388 . S
C3055 C3056 1.366 . S
C3056 C3055 1.366 . S
C3056 C3057 1.414 . S
C3056 C3059 1.499 . S
C3057 H3031 0.950 . S
C3057 C3056 1.414 . S
C3057 C3058 1.374 . S
C3058 H3032 0.950 . S
C3058 C3054 1.385 . S
C3058 C3057 1.374 . S
C3059 C3056 1.499 . S
C3059 C3060 1.373 . S
C3059 C3061 1.389 . S
C3060 H3033 0.950 . S
C3060 C3046 1.377 . S
C3060 C3059 1.373 . S
C3061 C3045 1.377 . S
C3061 C3059 1.389 . S
C3061 C3062 1.524 . S
C3062 C3061 1.524 . S
C3062 C3063 1.397 . S
C3062 C3067 1.363 . S
C3063 H3034 0.950 . S
C3063 C3062 1.397 . S
C3063 C3064 1.334 . S
C3064 H3035 0.950 . S
C3064 C3063 1.334 . S
C3064 C3065 1.287 . S
C3065 C3064 1.287 . S
C3065 C3066 1.524 . S
C3065 H3068 0.999 . S
C3066 H3036 0.950 . S
C3066 C3065 1.524 . S
C3066 C3067 1.415 . S
C3067 H3037 0.950 . S
C3067 C3062 1.363 . S
C3067 C3066 1.415 . S
H3068 C3065 0.999 . S
H3069 C3050 0.913 . S
H3070 C3088 0.951 . S
H3071 C3090 0.951 . S
H3072 C3092 0.950 1_554 S
H3073 C3093 0.950 . S
H3074 C3095 0.950 . S
H3075 C3098 0.950 . S
H3076 C3099 0.950 . S
H3077 C3101 0.950 . S
H3078 C3102 0.950 . S
H3079 C3103 0.951 . S
H3080 C3105 0.951 . S
H3081 C3107 0.950 . S
H3082 C3108 0.950 . S
H3083 C3110 0.950 . S
H3084 C3113 0.950 . S
H3085 C3114 0.950 . S
H3086 C3116 0.950 . S
H3087 C3117 0.950 . S
C3088 H3070 0.951 . S
C3088 C3089 1.366 . S
C3088 C3090 1.388 1_556 S
C3089 C3088 1.366 . S
C3089 C3093 1.385 . S
C3090 H3071 0.951 . S
C3090 C3088 1.388 1_554 S
C3090 C3091 1.366 . S
C3091 C3090 1.366 . S
C3091 C3092 1.414 1_554 S
C3091 C3094 1.499 . S
C3092 H3072 0.950 1_556 S
C3092 C3091 1.414 1_556 S
C3092 C3093 1.374 . S
C3093 H3073 0.950 . S
C3093 C3089 1.385 . S
C3093 C3092 1.374 . S
C3094 C3091 1.499 . S
C3094 C3095 1.373 . S
C3094 C3096 1.389 . S
C3095 H3074 0.950 . S
C3095 C3094 1.373 . S
C3095 C3111 1.377 . S
C3096 C3094 1.389 . S
C3096 C3097 1.524 . S
C3096 C3110 1.377 . S
C3097 C3096 1.524 . S
C3097 C3098 1.397 . S
C3097 C3102 1.363 . S
C3098 H3075 0.950 . S
C3098 C3097 1.397 . S
C3098 C3099 1.334 . S
C3099 H3076 0.950 . S
C3099 C3098 1.334 . S
C3099 C3100 1.287 . S
C3100 C3099 1.287 . S
C3100 C3101 1.524 . S
C3100 H3119 0.913 . S
C3101 H3077 0.950 . S
C3101 C3100 1.524 . S
C3101 C3102 1.415 . S
C3102 H3078 0.950 . S
C3102 C3097 1.363 . S
C3102 C3101 1.415 . S
C3103 H3079 0.951 . S
C3103 C3104 1.366 . S
C3103 C3105 1.388 . S
C3104 C3103 1.366 . S
C3104 C3108 1.385 . S
C3105 H3080 0.951 . S
C3105 C3103 1.388 . S
C3105 C3106 1.366 . S
C3106 C3105 1.366 . S
C3106 C3107 1.414 . S
C3106 C3109 1.499 . S
C3107 H3081 0.950 . S
C3107 C3106 1.414 . S
C3107 C3108 1.374 . S
C3108 H3082 0.950 . S
C3108 C3104 1.385 . S
C3108 C3107 1.374 . S
C3109 C3106 1.499 . S
C3109 C3110 1.373 . S
C3109 C3111 1.389 . S
C3110 H3083 0.950 . S
C3110 C3096 1.377 . S
C3110 C3109 1.373 . S
C3111 C3095 1.377 . S
C3111 C3109 1.389 . S
C3111 C3112 1.524 . S
C3112 C3111 1.524 . S
C3112 C3113 1.397 . S
C3112 C3117 1.363 . S
C3113 H3084 0.950 . S
C3113 C3112 1.397 . S
C3113 C3114 1.334 . S
C3114 H3085 0.950 . S
C3114 C3113 1.334 . S
C3114 C3115 1.287 . S
C3115 C3114 1.287 . S
C3115 C3116 1.524 . S
C3115 H3118 0.999 . S
C3116 H3086 0.950 . S
C3116 C3115 1.524 . S
C3116 C3117 1.415 . S
C3117 H3087 0.950 . S
C3117 C3112 1.363 . S
C3117 C3116 1.415 . S
H3118 C3115 0.999 . S
H3119 C3100 0.913 . S
H3120 C3138 0.951 . S
H3121 C3140 0.951 . S
H3122 C3142 0.950 . S
H3123 C3143 0.950 . S
H3124 C3145 0.950 . S
H3125 C3148 0.950 . S
H3126 C3149 0.950 . S
H3127 C3151 0.950 . S
H3128 C3152 0.950 . S
H3129 C3153 0.951 . S
H3130 C3155 0.951 1_556 S
H3131 C3157 0.950 1_556 S
H3132 C3158 0.950 . S
H3133 C3160 0.950 . S
H3134 C3163 0.950 . S
H3135 C3164 0.950 . S
H3136 C3166 0.950 . S
H3137 C3167 0.950 . S
C3138 H3120 0.951 . S
C3138 C3139 1.366 . S
C3138 C3140 1.388 . S
C3139 C3138 1.366 . S
C3139 C3143 1.385 . S
C3140 H3121 0.951 . S
C3140 C3138 1.388 . S
C3140 C3141 1.366 . S
C3141 C3140 1.366 . S
C3141 C3142 1.414 . S
C3141 C3144 1.499 . S
C3142 H3122 0.950 . S
C3142 C3141 1.414 . S
C3142 C3143 1.374 . S
C3143 H3123 0.950 . S
C3143 C3139 1.385 . S
C3143 C3142 1.374 . S
C3144 C3141 1.499 . S
C3144 C3145 1.373 . S
C3144 C3146 1.389 . S
C3145 H3124 0.950 . S
C3145 C3144 1.373 . S
C3145 C3161 1.377 . S
C3146 C3144 1.389 . S
C3146 C3147 1.524 . S
C3146 C3160 1.377 . S
C3147 C3146 1.524 . S
C3147 C3148 1.397 . S
C3147 C3152 1.363 . S
C3148 H3125 0.950 . S
C3148 C3147 1.397 . S
C3148 C3149 1.334 . S
C3149 H3126 0.950 . S
C3149 C3148 1.334 . S
C3149 C3150 1.287 . S
C3150 C3149 1.287 . S
C3150 C3151 1.524 . S
C3150 H3169 0.913 . S
C3151 H3127 0.950 . S
C3151 C3150 1.524 . S
C3151 C3152 1.415 . S
C3152 H3128 0.950 . S
C3152 C3147 1.363 . S
C3152 C3151 1.415 . S
C3153 H3129 0.951 . S
C3153 C3154 1.366 . S
C3153 C3155 1.388 . S
C3154 C3153 1.366 . S
C3154 C3158 1.385 . S
C3155 H3130 0.951 1_554 S
C3155 C3153 1.388 . S
C3155 C3156 1.366 1_554 S
C3156 C3155 1.366 1_556 S
C3156 C3157 1.414 1_556 S
C3156 C3159 1.499 . S
C3157 H3131 0.950 1_554 S
C3157 C3156 1.414 1_554 S
C3157 C3158 1.374 . S
C3158 H3132 0.950 . S
C3158 C3154 1.385 . S
C3158 C3157 1.374 . S
C3159 C3156 1.499 . S
C3159 C3160 1.373 . S
C3159 C3161 1.389 . S
C3160 H3133 0.950 . S
C3160 C3146 1.377 . S
C3160 C3159 1.373 . S
C3161 C3145 1.377 . S
C3161 C3159 1.389 . S
C3161 C3162 1.524 . S
C3162 C3161 1.524 . S
C3162 C3163 1.397 . S
C3162 C3167 1.363 . S
C3163 H3134 0.950 . S
C3163 C3162 1.397 . S
C3163 C3164 1.334 . S
C3164 H3135 0.950 . S
C3164 C3163 1.334 . S
C3164 C3165 1.287 . S
C3165 C3164 1.287 . S
C3165 C3166 1.524 . S
C3165 H3168 0.999 . S
C3166 H3136 0.950 . S
C3166 C3165 1.524 . S
C3166 C3167 1.415 . S
C3167 H3137 0.950 . S
C3167 C3162 1.363 . S
C3167 C3166 1.415 . S
H3168 C3165 0.999 . S
H3169 C3150 0.913 . S
H3170 C3188 0.951 . S
H3171 C3190 0.951 1_556 S
H3172 C3192 0.950 1_556 S
H3173 C3193 0.950 . S
H3174 C3195 0.950 . S
H3175 C3198 0.950 . S
H3176 C3199 0.950 . S
H3177 C3201 0.950 . S
H3178 C3202 0.950 . S
H3179 C3203 0.951 . S
H3180 C3205 0.951 . S
H3181 C3207 0.950 . S
H3182 C3208 0.950 . S
H3183 C3210 0.950 . S
H3184 C3213 0.950 . S
H3185 C3214 0.950 . S
H3186 C3216 0.950 . S
H3187 C3217 0.950 . S
C3188 H3170 0.951 . S
C3188 C3189 1.366 . S
C3188 C3190 1.388 . S
C3189 C3188 1.366 . S
C3189 C3193 1.385 . S
C3190 H3171 0.951 1_554 S
C3190 C3188 1.388 . S
C3190 C3191 1.366 1_554 S
C3191 C3190 1.366 1_556 S
C3191 C3192 1.414 1_556 S
C3191 C3194 1.499 . S
C3192 H3172 0.950 1_554 S
C3192 C3191 1.414 1_554 S
C3192 C3193 1.374 . S
C3193 H3173 0.950 . S
C3193 C3189 1.385 . S
C3193 C3192 1.374 . S
C3194 C3191 1.499 . S
C3194 C3195 1.373 . S
C3194 C3196 1.389 . S
C3195 H3174 0.950 . S
C3195 C3194 1.373 . S
C3195 C3211 1.377 . S
C3196 C3194 1.389 . S
C3196 C3197 1.524 . S
C3196 C3210 1.377 . S
C3197 C3196 1.524 . S
C3197 C3198 1.397 . S
C3197 C3202 1.363 . S
C3198 H3175 0.950 . S
C3198 C3197 1.397 . S
C3198 C3199 1.334 . S
C3199 H3176 0.950 . S
C3199 C3198 1.334 . S
C3199 C3200 1.287 . S
C3200 C3199 1.287 . S
C3200 C3201 1.524 . S
C3200 H3219 0.913 . S
C3201 H3177 0.950 . S
C3201 C3200 1.524 . S
C3201 C3202 1.415 . S
C3202 H3178 0.950 . S
C3202 C3197 1.363 . S
C3202 C3201 1.415 . S
C3203 H3179 0.951 . S
C3203 C3204 1.366 . S
C3203 C3205 1.388 . S
C3204 C3203 1.366 . S
C3204 C3208 1.385 . S
C3205 H3180 0.951 . S
C3205 C3203 1.388 . S
C3205 C3206 1.366 . S
C3206 C3205 1.366 . S
C3206 C3207 1.414 . S
C3206 C3209 1.499 . S
C3207 H3181 0.950 . S
C3207 C3206 1.414 . S
C3207 C3208 1.374 . S
C3208 H3182 0.950 . S
C3208 C3204 1.385 . S
C3208 C3207 1.374 . S
C3209 C3206 1.499 . S
C3209 C3210 1.373 . S
C3209 C3211 1.389 . S
C3210 H3183 0.950 . S
C3210 C3196 1.377 . S
C3210 C3209 1.373 . S
C3211 C3195 1.377 . S
C3211 C3209 1.389 . S
C3211 C3212 1.524 . S
C3212 C3211 1.524 . S
C3212 C3213 1.397 . S
C3212 C3217 1.363 . S
C3213 H3184 0.950 . S
C3213 C3212 1.397 . S
C3213 C3214 1.334 . S
C3214 H3185 0.950 . S
C3214 C3213 1.334 . S
C3214 C3215 1.287 . S
C3215 C3214 1.287 . S
C3215 C3216 1.524 . S
C3215 H3218 0.999 . S
C3216 H3186 0.950 . S
C3216 C3215 1.524 . S
C3216 C3217 1.415 . S
C3217 H3187 0.950 . S
C3217 C3212 1.363 . S
C3217 C3216 1.415 . S
H3218 C3215 0.999 . S
H3219 C3200 0.913 . S
H3220 C3238 0.951 . S
H3221 C3240 0.951 1_556 S
H3222 C3242 0.950 1_556 S
H3223 C3243 0.950 . S
H3224 C3245 0.950 . S
H3225 C3248 0.950 . S
H3226 C3249 0.950 1_554 S
H3227 C3251 0.950 . S
H3228 C3252 0.950 . S
H3229 C3253 0.951 . S
H3230 C3255 0.951 . S
H3231 C3257 0.950 . S
H3232 C3258 0.950 . S
H3233 C3260 0.950 . S
H3234 C3263 0.950 . S
H3235 C3264 0.950 . S
H3236 C3266 0.950 . S
H3237 C3267 0.950 . S
C3238 H3220 0.951 . S
C3238 C3239 1.366 . S
C3238 C3240 1.388 . S
C3239 C3238 1.366 . S
C3239 C3243 1.385 . S
C3240 H3221 0.951 1_554 S
C3240 C3238 1.388 . S
C3240 C3241 1.366 1_554 S
C3241 C3240 1.366 1_556 S
C3241 C3242 1.414 1_556 S
C3241 C3244 1.499 . S
C3242 H3222 0.950 1_554 S
C3242 C3241 1.414 1_554 S
C3242 C3243 1.374 . S
C3243 H3223 0.950 . S
C3243 C3239 1.385 . S
C3243 C3242 1.374 . S
C3244 C3241 1.499 . S
C3244 C3245 1.373 . S
C3244 C3246 1.389 . S
C3245 H3224 0.950 . S
C3245 C3244 1.373 . S
C3245 C3261 1.377 . S
C3246 C3244 1.389 . S
C3246 C3247 1.524 . S
C3246 C3260 1.377 . S
C3247 C3246 1.524 . S
C3247 C3248 1.397 . S
C3247 C3252 1.363 . S
C3248 H3225 0.950 . S
C3248 C3247 1.397 . S
C3248 C3249 1.334 . S
C3249 H3226 0.950 1_556 S
C3249 C3248 1.334 . S
C3249 C3250 1.287 . S
C3250 C3249 1.287 . S
C3250 C3251 1.524 . S
C3250 H3269 0.913 . S
C3251 H3227 0.950 . S
C3251 C3250 1.524 . S
C3251 C3252 1.415 . S
C3252 H3228 0.950 . S
C3252 C3247 1.363 . S
C3252 C3251 1.415 . S
C3253 H3229 0.951 . S
C3253 C3254 1.366 . S
C3253 C3255 1.388 . S
C3254 C3253 1.366 . S
C3254 C3258 1.385 . S
C3255 H3230 0.951 . S
C3255 C3253 1.388 . S
C3255 C3256 1.366 . S
C3256 C3255 1.366 . S
C3256 C3257 1.414 . S
C3256 C3259 1.499 . S
C3257 H3231 0.950 . S
C3257 C3256 1.414 . S
C3257 C3258 1.374 . S
C3258 H3232 0.950 . S
C3258 C3254 1.385 . S
C3258 C3257 1.374 . S
C3259 C3256 1.499 . S
C3259 C3260 1.373 . S
C3259 C3261 1.389 . S
C3260 H3233 0.950 . S
C3260 C3246 1.377 . S
C3260 C3259 1.373 . S
C3261 C3245 1.377 . S
C3261 C3259 1.389 . S
C3261 C3262 1.524 . S
C3262 C3261 1.524 . S
C3262 C3263 1.397 . S
C3262 C3267 1.363 . S
C3263 H3234 0.950 . S
C3263 C3262 1.397 . S
C3263 C3264 1.334 . S
C3264 H3235 0.950 . S
C3264 C3263 1.334 . S
C3264 C3265 1.287 . S
C3265 C3264 1.287 . S
C3265 C3266 1.524 . S
C3265 H3268 0.999 . S
C3266 H3236 0.950 . S
C3266 C3265 1.524 . S
C3266 C3267 1.415 . S
C3267 H3237 0.950 . S
C3267 C3262 1.363 . S
C3267 C3266 1.415 . S
H3268 C3265 0.999 . S
H3269 C3250 0.913 . S
H3270 C3288 0.951 . S
H3271 C3290 0.951 . S
H3272 C3292 0.950 . S
H3273 C3293 0.950 . S
H3274 C3295 0.950 . S
H3275 C3298 0.950 . S
H3276 C3299 0.950 . S
H3277 C3301 0.950 . S
H3278 C3302 0.950 . S
H3279 C3303 0.951 . S
H3280 C3305 0.951 . S
H3281 C3307 0.950 . S
H3282 C3308 0.950 . S
H3283 C3310 0.950 . S
H3284 C3313 0.950 . S
H3285 C3314 0.950 . S
H3286 C3316 0.950 . S
H3287 C3317 0.950 . S
C3288 H3270 0.951 . S
C3288 C3289 1.366 . S
C3288 C3290 1.388 . S
C3289 C3288 1.366 . S
C3289 C3293 1.385 . S
C3290 H3271 0.951 . S
C3290 C3288 1.388 . S
C3290 C3291 1.366 . S
C3291 C3290 1.366 . S
C3291 C3292 1.414 . S
C3291 C3294 1.499 . S
C3292 H3272 0.950 . S
C3292 C3291 1.414 . S
C3292 C3293 1.374 . S
C3293 H3273 0.950 . S
C3293 C3289 1.385 . S
C3293 C3292 1.374 . S
C3294 C3291 1.499 . S
C3294 C3295 1.373 . S
C3294 C3296 1.389 . S
C3295 H3274 0.950 . S
C3295 C3294 1.373 . S
C3295 C3311 1.377 . S
C3296 C3294 1.389 . S
C3296 C3297 1.524 . S
C3296 C3310 1.377 . S
C3297 C3296 1.524 . S
C3297 C3298 1.397 . S
C3297 C3302 1.363 . S
C3298 H3275 0.950 . S
C3298 C3297 1.397 . S
C3298 C3299 1.334 . S
C3299 H3276 0.950 . S
C3299 C3298 1.334 . S
C3299 C3300 1.287 . S
C3300 C3299 1.287 . S
C3300 C3301 1.524 . S
C3300 H3319 0.913 . S
C3301 H3277 0.950 . S
C3301 C3300 1.524 . S
C3301 C3302 1.415 . S
C3302 H3278 0.950 . S
C3302 C3297 1.363 . S
C3302 C3301 1.415 . S
C3303 H3279 0.951 . S
C3303 C3304 1.366 . S
C3303 C3305 1.388 . S
C3304 C3303 1.366 . S
C3304 C3308 1.385 . S
C3305 H3280 0.951 . S
C3305 C3303 1.388 . S
C3305 C3306 1.366 . S
C3306 C3305 1.366 . S
C3306 C3307 1.414 . S
C3306 C3309 1.499 . S
C3307 H3281 0.950 . S
C3307 C3306 1.414 . S
C3307 C3308 1.374 . S
C3308 H3282 0.950 . S
C3308 C3304 1.385 . S
C3308 C3307 1.374 . S
C3309 C3306 1.499 . S
C3309 C3310 1.373 . S
C3309 C3311 1.389 . S
C3310 H3283 0.950 . S
C3310 C3296 1.377 . S
C3310 C3309 1.373 . S
C3311 C3295 1.377 . S
C3311 C3309 1.389 . S
C3311 C3312 1.524 . S
C3312 C3311 1.524 . S
C3312 C3313 1.397 . S
C3312 C3317 1.363 . S
C3313 H3284 0.950 . S
C3313 C3312 1.397 . S
C3313 C3314 1.334 . S
C3314 H3285 0.950 . S
C3314 C3313 1.334 . S
C3314 C3315 1.287 . S
C3315 C3314 1.287 . S
C3315 C3316 1.524 . S
C3315 H3318 0.999 . S
C3316 H3286 0.950 . S
C3316 C3315 1.524 . S
C3316 C3317 1.415 . S
C3317 H3287 0.950 . S
C3317 C3312 1.363 . S
C3317 C3316 1.415 . S
H3318 C3315 0.999 . S
H3319 C3300 0.913 . S
H3320 C3338 0.951 . S
H3321 C3340 0.951 . S
H3322 C3342 0.950 . S
H3323 C3343 0.950 . S
H3324 C3345 0.950 . S
H3325 C3348 0.950 . S
H3326 C3349 0.950 . S
H3327 C3351 0.950 . S
H3328 C3352 0.950 . S
H3329 C3353 0.951 . S
H3330 C3355 0.951 . S
H3331 C3357 0.950 . S
H3332 C3358 0.950 . S
H3333 C3360 0.950 . S
H3334 C3363 0.950 . S
H3335 C3364 0.950 . S
H3336 C3366 0.950 . S
H3337 C3367 0.950 . S
C3338 H3320 0.951 . S
C3338 C3339 1.366 . S
C3338 C3340 1.388 . S
C3339 C3338 1.366 . S
C3339 C3343 1.385 . S
C3340 H3321 0.951 . S
C3340 C3338 1.388 . S
C3340 C3341 1.366 . S
C3341 C3340 1.366 . S
C3341 C3342 1.414 . S
C3341 C3344 1.499 . S
C3342 H3322 0.950 . S
C3342 C3341 1.414 . S
C3342 C3343 1.374 . S
C3343 H3323 0.950 . S
C3343 C3339 1.385 . S
C3343 C3342 1.374 . S
C3344 C3341 1.499 . S
C3344 C3345 1.373 . S
C3344 C3346 1.389 . S
C3345 H3324 0.950 . S
C3345 C3344 1.373 . S
C3345 C3361 1.377 . S
C3346 C3344 1.389 . S
C3346 C3347 1.524 . S
C3346 C3360 1.377 . S
C3347 C3346 1.524 . S
C3347 C3348 1.397 . S
C3347 C3352 1.363 . S
C3348 H3325 0.950 . S
C3348 C3347 1.397 . S
C3348 C3349 1.334 . S
C3349 H3326 0.950 . S
C3349 C3348 1.334 . S
C3349 C3350 1.287 . S
C3350 C3349 1.287 . S
C3350 C3351 1.524 . S
C3350 H3369 0.913 . S
C3351 H3327 0.950 . S
C3351 C3350 1.524 . S
C3351 C3352 1.415 . S
C3352 H3328 0.950 . S
C3352 C3347 1.363 . S
C3352 C3351 1.415 . S
C3353 H3329 0.951 . S
C3353 C3354 1.366 . S
C3353 C3355 1.388 . S
C3354 C3353 1.366 . S
C3354 C3358 1.385 . S
C3355 H3330 0.951 . S
C3355 C3353 1.388 . S
C3355 C3356 1.366 . S
C3356 C3355 1.366 . S
C3356 C3357 1.414 . S
C3356 C3359 1.499 . S
C3357 H3331 0.950 . S
C3357 C3356 1.414 . S
C3357 C3358 1.374 . S
C3358 H3332 0.950 . S
C3358 C3354 1.385 . S
C3358 C3357 1.374 . S
C3359 C3356 1.499 . S
C3359 C3360 1.373 . S
C3359 C3361 1.389 . S
C3360 H3333 0.950 . S
C3360 C3346 1.377 . S
C3360 C3359 1.373 . S
C3361 C3345 1.377 . S
C3361 C3359 1.389 . S
C3361 C3362 1.524 . S
C3362 C3361 1.524 . S
C3362 C3363 1.397 . S
C3362 C3367 1.363 . S
C3363 H3334 0.950 . S
C3363 C3362 1.397 . S
C3363 C3364 1.334 . S
C3364 H3335 0.950 . S
C3364 C3363 1.334 . S
C3364 C3365 1.287 . S
C3365 C3364 1.287 . S
C3365 C3366 1.524 . S
C3365 H3368 0.999 . S
C3366 H3336 0.950 . S
C3366 C3365 1.524 . S
C3366 C3367 1.415 . S
C3367 H3337 0.950 . S
C3367 C3362 1.363 . S
C3367 C3366 1.415 . S
H3368 C3365 0.999 . S
H3369 C3350 0.913 . S
H3370 C3388 0.951 . S
H3371 C3390 0.951 . S
H3372 C3392 0.950 . S
H3373 C3393 0.950 . S
H3374 C3395 0.950 . S
H3375 C3398 0.950 . S
H3376 C3399 0.950 . S
H3377 C3401 0.950 . S
H3378 C3402 0.950 . S
H3379 C3403 0.951 . S
H3380 C3405 0.951 . S
H3381 C3407 0.950 . S
H3382 C3408 0.950 . S
H3383 C3410 0.950 . S
H3384 C3413 0.950 . S
H3385 C3414 0.950 . S
H3386 C3416 0.950 . S
H3387 C3417 0.950 . S
C3388 H3370 0.951 . S
C3388 C3389 1.366 . S
C3388 C3390 1.388 . S
C3389 C3388 1.366 . S
C3389 C3393 1.385 . S
C3390 H3371 0.951 . S
C3390 C3388 1.388 . S
C3390 C3391 1.366 . S
C3391 C3390 1.366 . S
C3391 C3392 1.414 . S
C3391 C3394 1.499 . S
C3392 H3372 0.950 . S
C3392 C3391 1.414 . S
C3392 C3393 1.374 . S
C3393 H3373 0.950 . S
C3393 C3389 1.385 . S
C3393 C3392 1.374 . S
C3394 C3391 1.499 . S
C3394 C3395 1.373 . S
C3394 C3396 1.389 . S
C3395 H3374 0.950 . S
C3395 C3394 1.373 . S
C3395 C3411 1.377 . S
C3396 C3394 1.389 . S
C3396 C3397 1.524 . S
C3396 C3410 1.377 . S
C3397 C3396 1.524 . S
C3397 C3398 1.397 . S
C3397 C3402 1.363 . S
C3398 H3375 0.950 . S
C3398 C3397 1.397 . S
C3398 C3399 1.334 . S
C3399 H3376 0.950 . S
C3399 C3398 1.334 . S
C3399 C3400 1.287 . S
C3400 C3399 1.287 . S
C3400 C3401 1.524 . S
C3400 H3419 0.913 . S
C3401 H3377 0.950 . S
C3401 C3400 1.524 . S
C3401 C3402 1.415 . S
C3402 H3378 0.950 . S
C3402 C3397 1.363 . S
C3402 C3401 1.415 . S
C3403 H3379 0.951 . S
C3403 C3404 1.366 . S
C3403 C3405 1.388 . S
C3404 C3403 1.366 . S
C3404 C3408 1.385 . S
C3405 H3380 0.951 . S
C3405 C3403 1.388 . S
C3405 C3406 1.366 . S
C3406 C3405 1.366 . S
C3406 C3407 1.414 . S
C3406 C3409 1.499 . S
C3407 H3381 0.950 . S
C3407 C3406 1.414 . S
C3407 C3408 1.374 . S
C3408 H3382 0.950 . S
C3408 C3404 1.385 . S
C3408 C3407 1.374 . S
C3409 C3406 1.499 . S
C3409 C3410 1.373 . S
C3409 C3411 1.389 . S
C3410 H3383 0.950 . S
C3410 C3396 1.377 . S
C3410 C3409 1.373 . S
C3411 C3395 1.377 . S
C3411 C3409 1.389 . S
C3411 C3412 1.524 . S
C3412 C3411 1.524 . S
C3412 C3413 1.397 . S
C3412 C3417 1.363 . S
C3413 H3384 0.950 . S
C3413 C3412 1.397 . S
C3413 C3414 1.334 . S
C3414 H3385 0.950 . S
C3414 C3413 1.334 . S
C3414 C3415 1.287 . S
C3415 C3414 1.287 . S
C3415 C3416 1.524 . S
C3415 H3418 0.999 . S
C3416 H3386 0.950 . S
C3416 C3415 1.524 . S
C3416 C3417 1.415 . S
C3417 H3387 0.950 . S
C3417 C3412 1.363 . S
C3417 C3416 1.415 . S
H3418 C3415 0.999 . S
H3419 C3400 0.913 . S
C739 C535 1.664 . S
C754 C18 1.621 . S
C789 C58 1.621 . S
C804 C575 1.663 . S
C839 C98 1.659 . S
C854 C495 1.664 . S
C889 C95 1.664 . S
C904 C298 1.621 . S
C939 C338 1.621 . S
C954 C15 1.663 . S
C989 C55 1.664 . S
C1004 C258 1.620 . S
C1039 C129 1.617 1_655 S
C1054 C406 1.664 . S
C1089 C169 1.621 . S
C1104 C446 1.663 . S
C1139 C366 1.664 . S
C1154 C209 1.622 . S
C1189 C649 1.621 . S
C1204 C206 1.663 . S
C1239 C126 1.665 . S
C1254 C689 1.621 . S
C1289 C609 1.621 . S
C1304 C166 1.663 . S
C1339 C335 1.664 . S
C1354 C538 1.621 . S
C1389 C255 1.664 . S
C1404 C578 1.620 . S
C1439 C295 1.664 . S
C1454 C498 1.621 . S
C1489 C369 1.620 . S
C1504 C646 1.664 . S
C1539 C686 1.664 . S
C1554 C409 1.621 . S
C1589 C606 1.665 . S
C1604 C449 1.621 . S
C1639 C6 1.875 . S
C1654 C178 1.875 . S
C1689 C218 1.875 1_565 S
C1704 C46 1.875 . S
C1739 C138 1.874 . S
C1754 C86 1.874 . S
C1789 C175 1.875 . S
C1804 C89 1.875 . S
C1839 C215 1.874 . S
C1854 C9 1.874 1_655 S
C1889 C135 1.875 . S
C1904 C49 1.875 . S
C1939 C418 1.875 . S
C1954 C246 1.876 . S
C1989 C458 1.875 . S
C2004 C286 1.875 . S
C2039 C378 1.874 . S
C2054 C326 1.875 . S
C2089 C415 1.875 . S
C2104 C329 1.875 1_556 S
C2139 C455 1.874 . S
C2154 C249 1.873 1_556 S
C2189 C375 1.875 . S
C2204 C289 1.875 1_556 S
C2239 C658 1.875 1_554 S
C2254 C486 1.875 . S
C2289 C698 1.875 1_554 S
C2304 C526 1.876 . S
C2339 C566 1.874 . S
C2354 C618 1.873 1_554 S
C2389 C569 1.875 . S
C2404 C655 1.875 . S
C2439 C489 1.875 . S
C2454 C695 1.875 . S
C2489 C615 1.875 . S
C2504 C529 1.875 . S
C2539 C10 1.858 . S
C2554 C19 1.858 . S
C2589 C50 1.858 . S
C2604 C59 1.858 . S
C2639 C90 1.858 . S
C2654 C99 1.858 . S
C2689 C139 1.858 . S
C2704 C130 1.858 . S
C2739 C170 1.859 . S
C2754 C179 1.859 . S
C2789 C210 1.858 . S
C2804 C219 1.858 . S
C2839 C259 1.858 . S
C2854 C250 1.858 . S
C2889 C290 1.858 . S
C2904 C299 1.858 . S
C2939 C339 1.858 . S
C2954 C330 1.858 . S
C2989 C379 1.858 . S
C3004 C370 1.858 . S
C3039 C419 1.858 . S
C3054 C410 1.858 . S
C3089 C459 1.858 . S
C3104 C450 1.858 . S
C3139 C499 1.858 . S
C3154 C490 1.858 . S
C3189 C530 1.858 . S
C3204 C539 1.858 . S
C3239 C570 1.859 . S
C3254 C579 1.859 . S
C3289 C610 1.858 . S
C3304 C619 1.858 . S
C3339 C650 1.858 . S
C3354 C659 1.858 . S
C3389 C699 1.858 . S
C3404 C690 1.858 . S
