# Generated by pormake.
# Topology ukd, (4)-cn, num edge types: 1
# Building blocks:
#     Node 0, Type 0, BuildingBlock: CEKHIL_clean_sbu_0, # of connection points: 4
#     Node 1, Type 0, BuildingBlock: CEKHIL_clean_sbu_0, # of connection points: 4
#     Node 2, Type 0, BuildingBlock: CEKHIL_clean_sbu_0, # of connection points: 4
#     Node 3, Type 0, BuildingBlock: CEKHIL_clean_sbu_0, # of connection points: 4
#     Node 4, Type 0, BuildingBlock: CEKHIL_clean_sbu_0, # of connection points: 4
#     Node 5, Type 0, BuildingBlock: CEKHIL_clean_sbu_0, # of connection points: 4
#     Node 6, Type 0, BuildingBlock: CEKHIL_clean_sbu_0, # of connection points: 4
#     Node 7, Type 0, BuildingBlock: CEKHIL_clean_sbu_0, # of connection points: 4
#     Node 8, Type 0, BuildingBlock: CEKHIL_clean_sbu_0, # of connection points: 4
#     Node 9, Type 0, BuildingBlock: CEKHIL_clean_sbu_0, # of connection points: 4
#     Node 10, Type 0, BuildingBlock: CEKHIL_clean_sbu_0, # of connection points: 4
#     Node 11, Type 0, BuildingBlock: CEKHIL_clean_sbu_0, # of connection points: 4
#     Node 12, Type 0, BuildingBlock: CEKHIL_clean_sbu_0, # of connection points: 4
#     Node 13, Type 0, BuildingBlock: CEKHIL_clean_sbu_0, # of connection points: 4
#     Node 14, Type 0, BuildingBlock: CEKHIL_clean_sbu_0, # of connection points: 4
#     Node 15, Type 0, BuildingBlock: CEKHIL_clean_sbu_0, # of connection points: 4
#     Node 16, Type 0, BuildingBlock: CEKHIL_clean_sbu_0, # of connection points: 4
#     Node 17, Type 0, BuildingBlock: CEKHIL_clean_sbu_0, # of connection points: 4
#     Node 18, Type 0, BuildingBlock: CEKHIL_clean_sbu_0, # of connection points: 4
#     Node 19, Type 0, BuildingBlock: CEKHIL_clean_sbu_0, # of connection points: 4
#     Node 20, Type 0, BuildingBlock: CEKHIL_clean_sbu_0, # of connection points: 4
#     Node 21, Type 0, BuildingBlock: CEKHIL_clean_sbu_0, # of connection points: 4
#     Node 22, Type 0, BuildingBlock: CEKHIL_clean_sbu_0, # of connection points: 4
#     Node 23, Type 0, BuildingBlock: CEKHIL_clean_sbu_0, # of connection points: 4
#     Node 24, Type 0, BuildingBlock: CEKHIL_clean_sbu_0, # of connection points: 4
#     Node 25, Type 0, BuildingBlock: CEKHIL_clean_sbu_0, # of connection points: 4
#     Node 26, Type 0, BuildingBlock: CEKHIL_clean_sbu_0, # of connection points: 4
#     Node 27, Type 0, BuildingBlock: CEKHIL_clean_sbu_0, # of connection points: 4
#     Node 28, Type 0, BuildingBlock: CEKHIL_clean_sbu_0, # of connection points: 4
#     Node 29, Type 0, BuildingBlock: CEKHIL_clean_sbu_0, # of connection points: 4
#     Node 30, Type 0, BuildingBlock: CEKHIL_clean_sbu_0, # of connection points: 4
#     Node 31, Type 0, BuildingBlock: CEKHIL_clean_sbu_0, # of connection points: 4
#     Edge 32, Type (0, 0), BuildingBlock: CIFDUS_clean_linker_0, # of connection points: 2
#     Edge 33, Type (0, 0), BuildingBlock: CIFDUS_clean_linker_0, # of connection points: 2
#     Edge 34, Type (0, 0), BuildingBlock: CIFDUS_clean_linker_0, # of connection points: 2
#     Edge 35, Type (0, 0), BuildingBlock: CIFDUS_clean_linker_0, # of connection points: 2
#     Edge 36, Type (0, 0), BuildingBlock: CIFDUS_clean_linker_0, # of connection points: 2
#     Edge 37, Type (0, 0), BuildingBlock: CIFDUS_clean_linker_0, # of connection points: 2
#     Edge 38, Type (0, 0), BuildingBlock: CIFDUS_clean_linker_0, # of connection points: 2
#     Edge 39, Type (0, 0), BuildingBlock: CIFDUS_clean_linker_0, # of connection points: 2
#     Edge 40, Type (0, 0), BuildingBlock: CIFDUS_clean_linker_0, # of connection points: 2
#     Edge 41, Type (0, 0), BuildingBlock: CIFDUS_clean_linker_0, # of connection points: 2
#     Edge 42, Type (0, 0), BuildingBlock: CIFDUS_clean_linker_0, # of connection points: 2
#     Edge 43, Type (0, 0), BuildingBlock: CIFDUS_clean_linker_0, # of connection points: 2
#     Edge 44, Type (0, 0), BuildingBlock: CIFDUS_clean_linker_0, # of connection points: 2
#     Edge 45, Type (0, 0), BuildingBlock: CIFDUS_clean_linker_0, # of connection points: 2
#     Edge 46, Type (0, 0), BuildingBlock: CIFDUS_clean_linker_0, # of connection points: 2
#     Edge 47, Type (0, 0), BuildingBlock: CIFDUS_clean_linker_0, # of connection points: 2
#     Edge 48, Type (0, 0), BuildingBlock: CIFDUS_clean_linker_0, # of connection points: 2
#     Edge 49, Type (0, 0), BuildingBlock: CIFDUS_clean_linker_0, # of connection points: 2
#     Edge 50, Type (0, 0), BuildingBlock: CIFDUS_clean_linker_0, # of connection points: 2
#     Edge 51, Type (0, 0), BuildingBlock: CIFDUS_clean_linker_0, # of connection points: 2
#     Edge 52, Type (0, 0), BuildingBlock: CIFDUS_clean_linker_0, # of connection points: 2
#     Edge 53, Type (0, 0), BuildingBlock: CIFDUS_clean_linker_0, # of connection points: 2
#     Edge 54, Type (0, 0), BuildingBlock: CIFDUS_clean_linker_0, # of connection points: 2
#     Edge 55, Type (0, 0), BuildingBlock: CIFDUS_clean_linker_0, # of connection points: 2
#     Edge 56, Type (0, 0), BuildingBlock: CIFDUS_clean_linker_0, # of connection points: 2
#     Edge 57, Type (0, 0), BuildingBlock: CIFDUS_clean_linker_0, # of connection points: 2
#     Edge 58, Type (0, 0), BuildingBlock: CIFDUS_clean_linker_0, # of connection points: 2
#     Edge 59, Type (0, 0), BuildingBlock: CIFDUS_clean_linker_0, # of connection points: 2
#     Edge 60, Type (0, 0), BuildingBlock: CIFDUS_clean_linker_0, # of connection points: 2
#     Edge 61, Type (0, 0), BuildingBlock: CIFDUS_clean_linker_0, # of connection points: 2
#     Edge 62, Type (0, 0), BuildingBlock: CIFDUS_clean_linker_0, # of connection points: 2
#     Edge 63, Type (0, 0), BuildingBlock: CIFDUS_clean_linker_0, # of connection points: 2
#     Edge 64, Type (0, 0), BuildingBlock: CIFDUS_clean_linker_0, # of connection points: 2
#     Edge 65, Type (0, 0), BuildingBlock: CIFDUS_clean_linker_0, # of connection points: 2
#     Edge 66, Type (0, 0), BuildingBlock: CIFDUS_clean_linker_0, # of connection points: 2
#     Edge 67, Type (0, 0), BuildingBlock: CIFDUS_clean_linker_0, # of connection points: 2
#     Edge 68, Type (0, 0), BuildingBlock: CIFDUS_clean_linker_0, # of connection points: 2
#     Edge 69, Type (0, 0), BuildingBlock: CIFDUS_clean_linker_0, # of connection points: 2
#     Edge 70, Type (0, 0), BuildingBlock: CIFDUS_clean_linker_0, # of connection points: 2
#     Edge 71, Type (0, 0), BuildingBlock: CIFDUS_clean_linker_0, # of connection points: 2
#     Edge 72, Type (0, 0), BuildingBlock: CIFDUS_clean_linker_0, # of connection points: 2
#     Edge 73, Type (0, 0), BuildingBlock: CIFDUS_clean_linker_0, # of connection points: 2
#     Edge 74, Type (0, 0), BuildingBlock: CIFDUS_clean_linker_0, # of connection points: 2
#     Edge 75, Type (0, 0), BuildingBlock: CIFDUS_clean_linker_0, # of connection points: 2
#     Edge 76, Type (0, 0), BuildingBlock: CIFDUS_clean_linker_0, # of connection points: 2
#     Edge 77, Type (0, 0), BuildingBlock: CIFDUS_clean_linker_0, # of connection points: 2
#     Edge 78, Type (0, 0), BuildingBlock: CIFDUS_clean_linker_0, # of connection points: 2
#     Edge 79, Type (0, 0), BuildingBlock: CIFDUS_clean_linker_0, # of connection points: 2
#     Edge 80, Type (0, 0), BuildingBlock: CIFDUS_clean_linker_0, # of connection points: 2
#     Edge 81, Type (0, 0), BuildingBlock: CIFDUS_clean_linker_0, # of connection points: 2
#     Edge 82, Type (0, 0), BuildingBlock: CIFDUS_clean_linker_0, # of connection points: 2
#     Edge 83, Type (0, 0), BuildingBlock: CIFDUS_clean_linker_0, # of connection points: 2
#     Edge 84, Type (0, 0), BuildingBlock: CIFDUS_clean_linker_0, # of connection points: 2
#     Edge 85, Type (0, 0), BuildingBlock: CIFDUS_clean_linker_0, # of connection points: 2
#     Edge 86, Type (0, 0), BuildingBlock: CIFDUS_clean_linker_0, # of connection points: 2
#     Edge 87, Type (0, 0), BuildingBlock: CIFDUS_clean_linker_0, # of connection points: 2
#     Edge 88, Type (0, 0), BuildingBlock: CIFDUS_clean_linker_0, # of connection points: 2
#     Edge 89, Type (0, 0), BuildingBlock: CIFDUS_clean_linker_0, # of connection points: 2
#     Edge 90, Type (0, 0), BuildingBlock: CIFDUS_clean_linker_0, # of connection points: 2
#     Edge 91, Type (0, 0), BuildingBlock: CIFDUS_clean_linker_0, # of connection points: 2
#     Edge 92, Type (0, 0), BuildingBlock: CIFDUS_clean_linker_0, # of connection points: 2
#     Edge 93, Type (0, 0), BuildingBlock: CIFDUS_clean_linker_0, # of connection points: 2
#     Edge 94, Type (0, 0), BuildingBlock: CIFDUS_clean_linker_0, # of connection points: 2
#     Edge 95, Type (0, 0), BuildingBlock: CIFDUS_clean_linker_0, # of connection points: 2
# Relax obj value: 0.047
# Max RMSD: 0.075
# Mean RMSD: 0.075
data_MOF--net-ukd--node1-CEKHIL_clean_sbu_0--edge1-CIFDUS_clean_linker_0
_symmetry_space_group_name_H-M    P1
_symmetry_Int_Tables_number       1
_symmetry_cell_setting            triclinic
loop_
_symmetry_equiv_pos_as_xyz
'x, y, z'
_cell_length_a     39.4994
_cell_length_b     39.503507
_cell_length_c     61.211544
_cell_angle_alpha  89.998411
_cell_angle_beta   90.010865
_cell_angle_gamma 90.060305
loop_
_atom_site_label
_atom_site_type_symbol
_atom_site_fract_x
_atom_site_fract_y
_atom_site_fract_z
_atom_type_partial_charge
Co0 Co 0.2289 0.1831 0.34184 0.0
O1 O 0.2526 0.14102 0.33752 0.0
O2 O 0.25372 0.17162 0.36788 0.0
C3 C 0.24332 0.2072 0.3097 0.0
O4 O 0.20941 0.22766 0.35239 0.0
Co5 Co 0.16926 0.20471 0.31237 0.0
O6 O 0.17349 0.24903 0.32756 0.0
C7 C 0.15735 0.1546 0.34726 0.0
C8 C 0.26368 0.14485 0.35735 0.0
C9 C 0.19007 0.25142 0.34537 0.0
O10 O 0.18811 0.15852 0.35365 0.0
O11 O 0.14544 0.16876 0.33006 0.0
O12 O 0.26414 0.20752 0.32613 0.0
O13 O 0.216 0.18958 0.31247 0.0
Co14 Co 0.07842 0.96779 0.59329 0.0
O15 O 0.12019 0.99281 0.58934 0.0
O16 O 0.08798 0.99473 0.61889 0.0
C17 C 0.05621 0.97885 0.55986 0.0
O18 O 0.03374 0.94748 0.60367 0.0
Co19 Co 0.05871 0.90582 0.56495 0.0
O20 O 0.01383 0.90959 0.57952 0.0
C21 C 0.11012 0.89814 0.59969 0.0
C22 C 0.11518 0.00478 0.60886 0.0
C23 C 0.01059 0.92709 0.59689 0.0
O24 O 0.10393 0.92842 0.60637 0.0
O25 O 0.09685 0.88554 0.58239 0.0
O26 O 0.05377 1.00102 0.57551 0.0
O27 O 0.07402 0.95241 0.5644 0.0
Co28 Co 0.29579 0.83666 0.83876 0.0
O29 O 0.27401 0.87851 0.83071 0.0
O30 O 0.27298 0.85627 0.86383 0.0
C31 C 0.27603 0.80682 0.80977 0.0
O32 O 0.31361 0.79329 0.85288 0.0
Co33 Co 0.34981 0.80389 0.80895 0.0
O34 O 0.34151 0.76333 0.82739 0.0
C35 C 0.36963 0.86081 0.83776 0.0
C36 C 0.26275 0.87993 0.85058 0.0
C37 C 0.32834 0.76601 0.84632 0.0
O38 O 0.33971 0.861 0.84628 0.0
O39 O 0.37772 0.84174 0.82164 0.0
O40 O 0.25741 0.81129 0.82698 0.0
O41 O 0.30469 0.82269 0.80986 0.0
Co42 Co 0.43356 0.03354 0.09202 0.0
O43 O 0.39328 0.00671 0.08723 0.0
O44 O 0.42405 0.00645 0.11749 0.0
C45 C 0.45788 0.02276 0.05933 0.0
O46 O 0.47674 0.05598 0.1031 0.0
Co47 Co 0.45144 0.0959 0.06357 0.0
O48 O 0.49587 0.09411 0.07884 0.0
C49 C 0.39907 0.10189 0.09783 0.0
C50 C 0.39804 0.99491 0.1068 0.0
C51 C 0.49922 0.07719 0.09643 0.0
O52 O 0.40591 0.07177 0.10448 0.0
O53 O 0.41238 0.11504 0.08073 0.0
O54 O 0.46036 1.00114 0.07526 0.0
O55 O 0.43867 0.04857 0.06305 0.0
Co56 Co 0.22947 0.81642 0.15945 0.0
O57 O 0.25537 0.85734 0.1627 0.0
O58 O 0.25269 0.82692 0.13236 0.0
C59 C 0.24613 0.79251 0.19119 0.0
O60 O 0.20648 0.7722 0.15043 0.0
Co61 Co 0.17202 0.80001 0.1921 0.0
O62 O 0.17466 0.7543 0.17863 0.0
C63 C 0.15962 0.84974 0.15719 0.0
C64 C 0.26476 0.85321 0.14258 0.0
C65 C 0.1881 0.7496 0.15994 0.0
O66 O 0.18898 0.84298 0.14927 0.0
O67 O 0.14883 0.83718 0.17519 0.0
O68 O 0.26502 0.79066 0.17386 0.0
O69 O 0.21956 0.81144 0.18938 0.0
Co70 Co 0.43672 0.97133 0.40931 0.0
O71 O 0.39577 0.99682 0.41371 0.0
O72 O 0.42404 0.99354 0.38249 0.0
C73 C 0.46344 0.98894 0.43986 0.0
O74 O 0.4801 0.94935 0.39855 0.0
Co75 Co 0.45799 0.91448 0.44068 0.0
O76 O 0.50196 0.91658 0.42494 0.0
C77 C 0.40575 0.90013 0.40768 0.0
C78 C 0.39849 0.00565 0.39334 0.0
C79 C 0.50396 0.93078 0.40629 0.0
O80 O 0.40998 0.93027 0.40025 0.0
O81 O 0.42095 0.88921 0.42477 0.0
O82 O 0.46319 0.00745 0.42233 0.0
O83 O 0.44482 0.96189 0.43916 0.0
Co84 Co 0.29073 0.17592 0.66406 0.0
O85 O 0.26548 0.13429 0.66808 0.0
O86 O 0.26671 0.16443 0.63761 0.0
C87 C 0.27577 0.20014 0.69628 0.0
O88 O 0.31168 0.21994 0.65326 0.0
Co89 Co 0.34875 0.19946 0.69482 0.0
O90 O 0.34659 0.2427 0.6782 0.0
C91 C 0.36126 0.14515 0.66248 0.0
C92 C 0.25535 0.13811 0.64802 0.0
C93 C 0.33107 0.24395 0.65996 0.0
O94 O 0.33199 0.15013 0.65372 0.0
O95 O 0.37103 0.15994 0.68001 0.0
O96 O 0.25532 0.20136 0.67963 0.0
O97 O 0.30286 0.18257 0.69336 0.0
Co98 Co 0.0779 0.03341 0.91484 0.0
O99 O 0.12037 0.01224 0.92152 0.0
O100 O 0.0937 0.00682 0.88996 0.0
C101 C 0.05245 0.01907 0.94658 0.0
O102 O 0.03244 0.05108 0.90315 0.0
Co103 Co 0.05498 0.09358 0.94363 0.0
O104 O 0.01055 0.08374 0.9298 0.0
C105 C 0.10542 0.10558 0.90913 0.0
C106 C 0.1195 0.99891 0.90223 0.0
C107 C 0.00776 0.06798 0.9117 0.0
O108 O 0.10182 0.07465 0.90295 0.0
O109 O 0.09087 0.11768 0.92612 0.0
O110 O 0.05382 0.99778 0.93046 0.0
O111 O 0.0694 0.04679 0.94381 0.0
Co112 Co 0.77304 0.83049 0.66004 0.0
O113 O 0.75029 0.87332 0.66395 0.0
O114 O 0.75047 0.84339 0.63335 0.0
C115 C 0.75559 0.80598 0.69146 0.0
O116 O 0.79209 0.78529 0.6499 0.0
Co117 Co 0.82986 0.80725 0.6914 0.0
O118 O 0.8247 0.76297 0.67628 0.0
C119 C 0.8459 0.85699 0.65701 0.0
C120 C 0.74059 0.87032 0.64377 0.0
C121 C 0.80977 0.76088 0.65786 0.0
O122 O 0.81551 0.85401 0.64969 0.0
O123 O 0.85611 0.84241 0.67451 0.0
O124 O 0.73591 0.80682 0.67446 0.0
O125 O 0.78345 0.82305 0.6897 0.0
Co126 Co 0.93371 0.03499 0.41634 0.0
O127 O 0.89309 0.00816 0.4206 0.0
O128 O 0.92535 0.00723 0.39104 0.0
C129 C 0.95661 0.0253 0.44975 0.0
O130 O 0.97733 0.05681 0.40559 0.0
Co131 Co 0.95162 0.09809 0.44404 0.0
O132 O 0.99622 0.09629 0.42896 0.0
C133 C 0.90019 0.10358 0.40907 0.0
C134 C 0.89882 0.99592 0.40124 0.0
C135 C 0.9997 0.07844 0.41177 0.0
O136 O 0.90672 0.07311 0.40288 0.0
O137 O 0.91327 0.11703 0.42616 0.0
O138 O 0.95974 1.0031 0.43419 0.0
O139 O 0.93779 0.05105 0.44519 0.0
Co140 Co 0.72656 0.1924 0.161 0.0
O141 O 0.75285 0.15199 0.1656 0.0
O142 O 0.75081 0.18106 0.13466 0.0
C143 C 0.74159 0.21831 0.19251 0.0
O144 O 0.70388 0.23538 0.15007 0.0
Co145 Co 0.66756 0.21176 0.19147 0.0
O146 O 0.66836 0.25561 0.17552 0.0
C147 C 0.65653 0.15964 0.15771 0.0
C148 C 0.76287 0.15548 0.14552 0.0
C149 C 0.68359 0.25824 0.15725 0.0
O150 O 0.68668 0.16496 0.15059 0.0
O151 O 0.64474 0.17393 0.1749 0.0
O152 O 0.76118 0.21943 0.17548 0.0
O153 O 0.71505 0.19924 0.19062 0.0
Co154 Co 0.58791 0.95661 0.92079 0.0
O155 O 0.63023 0.97895 0.92732 0.0
O156 O 0.60289 0.98389 0.89603 0.0
C157 C 0.563 0.96972 0.95306 0.0
O158 O 0.54258 0.93876 0.90872 0.0
Co159 Co 0.56263 0.89661 0.94949 0.0
O160 O 0.51887 0.90616 0.93474 0.0
C161 C 0.61781 0.88562 0.91761 0.0
C162 C 0.62861 0.99264 0.90811 0.0
C163 C 0.51721 0.9221 0.91665 0.0
O164 O 0.61284 0.91529 0.90932 0.0
O165 O 0.60251 0.87503 0.93476 0.0
O166 O 0.56333 0.99164 0.93722 0.0
O167 O 0.57967 0.9423 0.9494 0.0
Co168 Co 0.78903 0.16911 0.8397 0.0
O169 O 0.76691 0.12684 0.83309 0.0
O170 O 0.76692 0.15066 0.86569 0.0
C171 C 0.76861 0.19693 0.81015 0.0
O172 O 0.80779 0.21394 0.85196 0.0
Co173 Co 0.84241 0.19806 0.80748 0.0
O174 O 0.83393 0.24039 0.82407 0.0
C175 C 0.8617 0.14218 0.83705 0.0
C176 C 0.75653 0.1261 0.85315 0.0
C177 C 0.82171 0.24043 0.84335 0.0
O178 O 0.83292 0.14467 0.84692 0.0
O179 O 0.86913 0.15937 0.81995 0.0
O180 O 0.75038 0.19387 0.82769 0.0
O181 O 0.79696 0.18071 0.8104 0.0
Co182 Co 0.57686 0.04767 0.58513 0.0
O183 O 0.619 0.02342 0.58314 0.0
O184 O 0.58839 0.02836 0.61325 0.0
C185 C 0.55355 0.02563 0.55453 0.0
O186 O 0.53135 0.06874 0.59316 0.0
Co187 Co 0.55584 0.09938 0.54978 0.0
O188 O 0.51051 0.09518 0.56359 0.0
C189 C 0.60598 0.11971 0.58308 0.0
C190 C 0.61488 0.0158 0.60358 0.0
C191 C 0.50708 0.08374 0.58294 0.0
O192 O 0.60149 0.09113 0.59286 0.0
O193 O 0.59187 0.12693 0.56482 0.0
O194 O 0.55288 0.00893 0.57279 0.0
O195 O 0.57096 0.0534 0.55484 0.0
Co196 Co 0.7334 0.8176 0.34377 0.0
O197 O 0.75942 0.85865 0.34169 0.0
O198 O 0.75679 0.82625 0.37114 0.0
C199 C 0.74959 0.79596 0.31125 0.0
O200 O 0.71007 0.77289 0.35146 0.0
Co201 Co 0.67589 0.80361 0.31036 0.0
O202 O 0.67777 0.75724 0.32288 0.0
C203 C 0.66378 0.85103 0.34671 0.0
C204 C 0.76879 0.85326 0.36169 0.0
C205 C 0.69118 0.75122 0.34143 0.0
O206 O 0.69295 0.84355 0.3547 0.0
O207 O 0.65327 0.83984 0.32827 0.0
O208 O 0.76881 0.79267 0.32835 0.0
O209 O 0.72323 0.81484 0.31389 0.0
Co210 Co 0.93918 0.98385 0.09503 0.0
O211 O 0.89908 0.01052 0.09049 0.0
O212 O 0.92776 0.00766 0.12156 0.0
C213 C 0.9654 0.99915 0.06377 0.0
O214 O 0.98188 0.96032 0.10578 0.0
Co215 Co 0.95758 0.92525 0.06382 0.0
O216 O 1.00137 0.92517 0.07983 0.0
C217 C 0.90496 0.91449 0.09724 0.0
C218 C 0.90232 0.02002 0.11068 0.0
C219 C 0.00438 0.93986 0.09827 0.0
O220 O 0.91116 0.94415 0.1049 0.0
O221 O 0.91893 0.90299 0.07987 0.0
O222 O 0.9667 0.01848 0.08092 0.0
O223 O 0.94597 0.97288 0.06542 0.0
Co224 Co 0.72324 0.67579 0.83452 0.0
O225 O 0.74535 0.63346 0.82856 0.0
O226 O 0.74826 0.66046 0.86014 0.0
C227 C 0.73876 0.702 0.80324 0.0
O228 O 0.70455 0.72096 0.84578 0.0
Co229 Co 0.66403 0.69792 0.80466 0.0
O230 O 0.67228 0.74244 0.81882 0.0
C231 C 0.65099 0.64733 0.83885 0.0
C232 C 0.7571 0.63452 0.8483 0.0
C233 C 0.68749 0.74541 0.8371 0.0
O234 O 0.68164 0.65136 0.84549 0.0
O235 O 0.63937 0.66181 0.8217 0.0
O236 O 0.7594 0.70034 0.81972 0.0
O237 O 0.7112 0.6845 0.8053 0.0
Co238 Co 0.56391 0.48303 0.09295 0.0
O239 O 0.60462 0.50901 0.08843 0.0
O240 O 0.57525 0.50745 0.11926 0.0
C241 C 0.53852 0.49772 0.06122 0.0
O242 O 0.52067 0.46066 0.10384 0.0
Co243 Co 0.54434 0.42373 0.06269 0.0
O244 O 0.50048 0.42466 0.07862 0.0
C245 C 0.59659 0.41318 0.09641 0.0
C246 C 0.60115 0.51908 0.1085 0.0
C247 C 0.4978 0.44022 0.09677 0.0
O248 O 0.59102 0.44323 0.10359 0.0
O249 O 0.58245 0.40131 0.07919 0.0
O250 O 0.5373 0.51757 0.07813 0.0
O251 O 0.55733 0.47112 0.06339 0.0
Co252 Co 0.77971 0.32758 0.34227 0.0
O253 O 0.75513 0.36921 0.33762 0.0
O254 O 0.75537 0.33979 0.36842 0.0
C255 C 0.76447 0.30238 0.3106 0.0
O256 O 0.80023 0.28345 0.35325 0.0
Co257 Co 0.83872 0.30597 0.31258 0.0
O258 O 0.83546 0.26183 0.32812 0.0
C259 C 0.85093 0.35783 0.34628 0.0
C260 C 0.74464 0.36601 0.35762 0.0
C261 C 0.81954 0.25962 0.34616 0.0
O262 O 0.82047 0.35338 0.35313 0.0
O263 O 0.86261 0.34314 0.32921 0.0
O264 O 0.74438 0.3021 0.32739 0.0
O265 O 0.7917 0.3204 0.31277 0.0
Co266 Co 0.92581 0.53408 0.59305 0.0
O267 O 0.88478 0.51078 0.58467 0.0
O268 O 0.91105 0.50402 0.61627 0.0
C269 C 0.95262 0.52592 0.56075 0.0
O270 O 0.9691 0.55259 0.60723 0.0
Co271 Co 0.9503 0.59838 0.56838 0.0
O272 O 0.99292 0.59124 0.58501 0.0
C273 C 0.8938 0.60323 0.59994 0.0
C274 C 0.88602 0.4958 0.6035 0.0
C275 C 0.99357 0.57273 0.60207 0.0
O276 O 0.8989 0.57248 0.60611 0.0
O277 O 0.90949 0.61699 0.58391 0.0
O278 O 0.95257 0.50223 0.57551 0.0
O279 O 0.93481 0.55227 0.56539 0.0
Co280 Co 0.71635 0.32716 0.66965 0.0
O281 O 0.73989 0.3684 0.67661 0.0
O282 O 0.73938 0.34496 0.64387 0.0
C283 C 0.73537 0.29813 0.69908 0.0
O284 O 0.69587 0.28353 0.65696 0.0
Co285 Co 0.66138 0.3001 0.70134 0.0
O286 O 0.66744 0.25787 0.68421 0.0
C287 C 0.64478 0.35672 0.67174 0.0
C288 C 0.75041 0.36904 0.65658 0.0
C289 C 0.68006 0.25775 0.66504 0.0
O290 O 0.67376 0.35333 0.66229 0.0
O291 O 0.63617 0.3397 0.68867 0.0
O292 O 0.75381 0.30076 0.68161 0.0
O293 O 0.70765 0.31546 0.6989 0.0
Co294 Co 0.91367 0.46028 0.91953 0.0
O295 O 0.87168 0.48285 0.92667 0.0
O296 O 0.89515 0.48225 0.8939 0.0
C297 C 0.94286 0.48038 0.94867 0.0
O298 O 0.95708 0.44206 0.90582 0.0
Co299 Co 0.94686 0.40696 0.9496 0.0
O300 O 0.98742 0.41378 0.93087 0.0
C301 C 0.88946 0.38667 0.92121 0.0
C302 C 0.87109 0.49323 0.90655 0.0
C303 C 0.98436 0.427 0.91199 0.0
O304 O 0.88921 0.41636 0.91236 0.0
O305 O 0.90875 0.37897 0.9373 0.0
O306 O 0.93898 0.49869 0.93124 0.0
O307 O 0.92704 0.45171 0.94863 0.0
Co308 Co 0.77741 0.69081 0.15975 0.0
O309 O 0.7517 0.64985 0.16403 0.0
O310 O 0.75249 0.68012 0.13354 0.0
C311 C 0.76335 0.71516 0.19188 0.0
O312 O 0.79925 0.73449 0.14919 0.0
Co313 Co 0.83701 0.71059 0.18998 0.0
O314 O 0.83472 0.75491 0.17466 0.0
C315 C 0.84764 0.65935 0.15549 0.0
C316 C 0.74107 0.65396 0.14413 0.0
C317 C 0.81914 0.75764 0.15652 0.0
O318 O 0.81731 0.66433 0.14856 0.0
O319 O 0.85951 0.67347 0.17272 0.0
O320 O 0.74297 0.71679 0.17524 0.0
O321 O 0.78998 0.69665 0.18917 0.0
Co322 Co 0.57351 0.53943 0.41244 0.0
O323 O 0.61517 0.51471 0.4151 0.0
O324 O 0.58554 0.51948 0.38455 0.0
C325 C 0.54962 0.51828 0.44304 0.0
O326 O 0.52851 0.56129 0.40389 0.0
Co327 Co 0.55269 0.59179 0.44763 0.0
O328 O 0.50765 0.58809 0.43335 0.0
C329 C 0.60536 0.60983 0.41545 0.0
C330 C 0.61167 0.50689 0.39465 0.0
C331 C 0.50434 0.57668 0.41398 0.0
O332 O 0.5992 0.58225 0.40492 0.0
O333 O 0.59141 0.61697 0.43378 0.0
O334 O 0.54862 0.50122 0.42491 0.0
O335 O 0.56732 0.54578 0.44249 0.0
Co336 Co 0.27136 0.32338 0.16155 0.0
O337 O 0.24656 0.36496 0.16542 0.0
O338 O 0.2475 0.33448 0.13503 0.0
C339 C 0.25624 0.29885 0.19342 0.0
O340 O 0.29256 0.27928 0.15133 0.0
Co341 Co 0.33032 0.30351 0.19215 0.0
O342 O 0.32812 0.25915 0.17682 0.0
C343 C 0.342 0.35463 0.1579 0.0
C344 C 0.23673 0.36118 0.14531 0.0
C345 C 0.31238 0.25616 0.15875 0.0
O346 O 0.31195 0.34917 0.15066 0.0
O347 O 0.35347 0.34092 0.17537 0.0
O348 O 0.23607 0.29799 0.17665 0.0
O349 O 0.28316 0.3172 0.19108 0.0
Co350 Co 0.42624 0.53272 0.91214 0.0
O351 O 0.38508 0.50936 0.91984 0.0
O352 O 0.40963 0.50671 0.88741 0.0
C353 C 0.4546 0.51843 0.94298 0.0
O354 O 0.46932 0.55207 0.89838 0.0
Co355 Co 0.45303 0.59224 0.94006 0.0
O356 O 0.49488 0.58667 0.92243 0.0
C357 C 0.39741 0.60438 0.90876 0.0
C358 C 0.38513 0.49707 0.90019 0.0
C359 C 0.49446 0.57076 0.90432 0.0
O360 O 0.39998 0.57363 0.90197 0.0
O361 O 0.41454 0.61599 0.92489 0.0
O362 O 0.4529 0.49758 0.9266 0.0
O363 O 0.43716 0.54589 0.94087 0.0
Co364 Co 0.22545 0.67305 0.66991 0.0
O365 O 0.24879 0.63204 0.67772 0.0
O366 O 0.25049 0.65592 0.64504 0.0
C367 C 0.24157 0.70296 0.69965 0.0
O368 O 0.20608 0.716 0.65621 0.0
Co369 Co 0.16686 0.69935 0.6982 0.0
O370 O 0.17328 0.74167 0.68117 0.0
C371 C 0.15301 0.64491 0.66657 0.0
C372 C 0.26073 0.63188 0.65799 0.0
C373 C 0.18846 0.74146 0.6628 0.0
O374 O 0.18408 0.64681 0.66032 0.0
O375 O 0.14133 0.66223 0.68257 0.0
O376 O 0.26137 0.69977 0.68289 0.0
O377 O 0.21393 0.68519 0.69895 0.0
Co378 Co 0.07647 0.4738 0.41749 0.0
O379 O 0.11794 0.49678 0.42501 0.0
O380 O 0.08989 0.504 0.39405 0.0
C381 C 0.05124 0.48153 0.45032 0.0
O382 O 0.03256 0.4554 0.40427 0.0
Co383 Co 0.05407 0.40893 0.44235 0.0
O384 O 0.01066 0.4157 0.42653 0.0
C385 C 0.10791 0.40483 0.40896 0.0
C386 C 0.11577 0.51181 0.40622 0.0
C387 C 0.0088 0.43465 0.40972 0.0
O388 O 0.10249 0.43577 0.40347 0.0
O389 O 0.09344 0.39047 0.42525 0.0
O390 O 0.0507 0.5054 0.4357 0.0
O391 O 0.06897 0.45527 0.44528 0.0
Co392 Co 0.28742 0.67498 0.33757 0.0
O393 O 0.26297 0.63428 0.33034 0.0
O394 O 0.26335 0.65819 0.363 0.0
C395 C 0.27052 0.70407 0.30759 0.0
O396 O 0.30826 0.71753 0.351 0.0
Co397 Co 0.34402 0.70284 0.3073 0.0
O398 O 0.34016 0.74398 0.32581 0.0
C399 C 0.3586 0.64513 0.33666 0.0
C400 C 0.25199 0.63432 0.3503 0.0
C401 C 0.32617 0.74292 0.34456 0.0
O402 O 0.32924 0.64818 0.34567 0.0
O403 O 0.36791 0.66247 0.32002 0.0
O404 O 0.25113 0.70226 0.32469 0.0
O405 O 0.298 0.68651 0.30861 0.0
Co406 Co 0.07193 0.53932 0.08865 0.0
O407 O 0.11234 0.51265 0.08449 0.0
O408 O 0.08603 0.52008 0.1161 0.0
C409 C 0.04335 0.51859 0.05954 0.0
O410 O 0.02957 0.56283 0.09972 0.0
Co411 Co 0.04689 0.5921 0.05522 0.0
O412 O 0.00459 0.59227 0.07287 0.0
C413 C 0.10369 0.60958 0.08459 0.0
C414 C 0.11059 0.50608 0.10527 0.0
C415 C 0.00479 0.58038 0.09222 0.0
O416 O 0.09967 0.58125 0.09466 0.0
O417 O 0.08686 0.61759 0.06745 0.0
O418 O 0.04428 0.50198 0.07785 0.0
O419 O 0.06182 0.54564 0.0588 0.0
Co420 Co 0.2117 0.33243 0.8345 0.0
O421 O 0.23425 0.37428 0.82706 0.0
O422 O 0.24098 0.3467 0.8582 0.0
C423 C 0.2214 0.30645 0.80206 0.0
O424 O 0.19431 0.28839 0.8479 0.0
Co425 Co 0.14856 0.30706 0.80928 0.0
O426 O 0.15644 0.26411 0.82541 0.0
C427 C 0.14082 0.36047 0.84282 0.0
C428 C 0.24914 0.37232 0.84592 0.0
C429 C 0.17488 0.26357 0.8425 0.0
O430 O 0.17235 0.35765 0.8479 0.0
O431 O 0.12724 0.34449 0.82684 0.0
O432 O 0.24458 0.30708 0.81713 0.0
O433 O 0.19441 0.32364 0.80635 0.0
Co434 Co 0.43687 0.47261 0.59051 0.0
O435 O 0.39515 0.49525 0.58401 0.0
O436 O 0.42172 0.49842 0.61577 0.0
C437 C 0.4632 0.48777 0.55931 0.0
O438 O 0.48144 0.45332 0.60226 0.0
Co439 Co 0.45913 0.41321 0.56103 0.0
O440 O 0.50346 0.42113 0.57546 0.0
C441 C 0.40808 0.40087 0.59514 0.0
C442 C 0.39635 0.50771 0.60355 0.0
C443 C 0.50595 0.4361 0.59384 0.0
O444 O 0.41175 0.43164 0.60156 0.0
O445 O 0.42293 0.38894 0.57821 0.0
O446 O 0.46206 0.50821 0.57588 0.0
O447 O 0.44553 0.4603 0.56129 0.0
H448 H 0.14561 0.35023 0.42026 0.0
H449 H 0.1166 0.41147 0.36502 0.0
H450 H 0.14232 0.37053 0.34013 0.0
H451 H 0.16709 0.31407 0.33401 0.0
H452 H 0.19766 0.25397 0.3895 0.0
H453 H 0.17773 0.29788 0.41429 0.0
C454 C 0.14543 0.35484 0.40279 0.0
C455 C 0.12886 0.38353 0.39447 0.0
C456 C 0.16032 0.33128 0.3886 0.0
C457 C 0.12921 0.38953 0.37183 0.0
C458 C 0.14371 0.36602 0.35757 0.0
C459 C 0.16983 0.31085 0.35152 0.0
C460 C 0.18337 0.28059 0.35988 0.0
C461 C 0.15841 0.3363 0.36575 0.0
C462 C 0.18727 0.27697 0.3826 0.0
C463 C 0.1757 0.302 0.39683 0.0
H464 H 0.94711 0.90803 0.58444 0.0
H465 H 0.00733 0.93165 0.64122 0.0
H466 H 0.96102 0.91391 0.66509 0.0
H467 H 0.90506 0.88707 0.66981 0.0
H468 H 0.84376 0.86644 0.61297 0.0
H469 H 0.88852 0.88793 0.58927 0.0
C470 C 0.9499 0.90966 0.60204 0.0
C471 C 0.98074 0.92081 0.61102 0.0
C472 C 0.92298 0.89981 0.6157 0.0
C473 C 0.98384 0.92322 0.63386 0.0
C474 C 0.95742 0.91289 0.64754 0.0
C475 C 0.90134 0.8877 0.65226 0.0
C476 C 0.87119 0.87484 0.64322 0.0
C477 C 0.92712 0.90046 0.63865 0.0
C478 C 0.86664 0.87622 0.62043 0.0
C479 C 0.89234 0.88833 0.60681 0.0
H480 H 0.37446 0.66685 0.92102 0.0
H481 H 0.37463 0.59662 0.86695 0.0
H482 H 0.35033 0.6398 0.84325 0.0
H483 H 0.33525 0.69928 0.83678 0.0
H484 H 0.33369 0.76941 0.89077 0.0
H485 H 0.35192 0.72443 0.9156 0.0
C486 C 0.3687 0.66081 0.90414 0.0
C487 C 0.37688 0.6286 0.89576 0.0
C488 C 0.35473 0.68585 0.89051 0.0
C489 C 0.36875 0.62114 0.8739 0.0
C490 C 0.35501 0.64592 0.86025 0.0
C491 C 0.33845 0.7046 0.85404 0.0
C492 C 0.33359 0.73774 0.86186 0.0
C493 C 0.34888 0.67863 0.86821 0.0
C494 C 0.33729 0.74413 0.88433 0.0
C495 C 0.34792 0.71845 0.89851 0.0
H496 H 0.56211 0.09868 0.08469 0.0
H497 H 0.50089 0.07426 0.14087 0.0
H498 H 0.54514 0.09558 0.16516 0.0
H499 H 0.59909 0.12615 0.17024 0.0
H500 H 0.66136 0.14788 0.11401 0.0
H501 H 0.61917 0.12232 0.09008 0.0
C502 C 0.55869 0.09763 0.10227 0.0
C503 C 0.52814 0.08526 0.11094 0.0
C504 C 0.58439 0.10963 0.11616 0.0
C505 C 0.5242 0.08362 0.13376 0.0
C506 C 0.54942 0.096 0.14767 0.0
C507 C 0.60361 0.12486 0.15278 0.0
C508 C 0.6332 0.13928 0.14396 0.0
C509 C 0.5793 0.10982 0.13904 0.0
C510 C 0.63886 0.137 0.12131 0.0
C511 C 0.61462 0.12254 0.10754 0.0
H512 H 0.18129 0.74057 0.11603 0.0
H513 H 0.17395 0.68807 0.17764 0.0
H514 H 0.15096 0.6383 0.1592 0.0
H515 H 0.12724 0.61206 0.12633 0.0
H516 H 0.13047 0.66597 0.06503 0.0
H517 H 0.16098 0.71251 0.0825 0.0
C518 C 0.1753 0.71796 0.12533 0.0
C519 C 0.17924 0.71804 0.14818 0.0
C520 C 0.16099 0.68976 0.11469 0.0
C521 C 0.17097 0.68871 0.16005 0.0
C522 C 0.15776 0.66025 0.14952 0.0
C523 C 0.13512 0.63369 0.11667 0.0
C524 C 0.12635 0.63551 0.0944 0.0
C525 C 0.15177 0.66083 0.12695 0.0
C526 C 0.13663 0.66394 0.08223 0.0
C527 C 0.15406 0.69063 0.09221 0.0
H528 H 0.56641 0.90921 0.41888 0.0
H529 H 0.50728 0.93437 0.36185 0.0
H530 H 0.55274 0.91431 0.33819 0.0
H531 H 0.60706 0.88481 0.33375 0.0
H532 H 0.66679 0.86098 0.39079 0.0
H533 H 0.62355 0.8857 0.41428 0.0
C534 C 0.56363 0.91061 0.40127 0.0
C535 C 0.53333 0.92285 0.39217 0.0
C536 C 0.58993 0.89914 0.38772 0.0
C537 C 0.53031 0.92501 0.36932 0.0
C538 C 0.55625 0.91339 0.35575 0.0
C539 C 0.6108 0.88537 0.3513 0.0
C540 C 0.63995 0.87064 0.36047 0.0
C541 C 0.58583 0.89967 0.36478 0.0
C542 C 0.64461 0.87206 0.38324 0.0
C543 C 0.61979 0.88604 0.39674 0.0
H544 H 0.35028 0.3083 0.67027 0.0
H545 H 0.32949 0.24275 0.61551 0.0
H546 H 0.34955 0.28623 0.59028 0.0
H547 H 0.3777 0.3411 0.58399 0.0
H548 H 0.39582 0.40766 0.63868 0.0
H549 H 0.37182 0.36586 0.66356 0.0
C550 C 0.34978 0.30372 0.65279 0.0
C551 C 0.33875 0.27221 0.64482 0.0
C552 C 0.36104 0.32899 0.63832 0.0
C553 C 0.33781 0.2668 0.62211 0.0
C554 C 0.34946 0.2916 0.60765 0.0
C555 C 0.376 0.3466 0.60131 0.0
C556 C 0.3889 0.37733 0.60943 0.0
C557 C 0.36185 0.32252 0.61559 0.0
C558 C 0.38609 0.38424 0.63192 0.0
C559 C 0.37253 0.36025 0.64623 0.0
H560 H 0.99834 0.07421 0.86766 0.0
H561 H 0.94486 0.07356 0.92905 0.0
H562 H 0.8933 0.09262 0.91086 0.0
H563 H 0.86543 0.1164 0.87845 0.0
H564 H 0.91982 0.12023 0.81735 0.0
H565 H 0.96848 0.09291 0.83434 0.0
C566 C 0.97515 0.0774 0.87691 0.0
C567 C 0.97549 0.07258 0.89967 0.0
C568 C 0.94573 0.08951 0.86643 0.0
C569 C 0.94531 0.07727 0.91151 0.0
C570 C 0.91582 0.08831 0.90114 0.0
C571 C 0.88765 0.1107 0.86873 0.0
C572 C 0.88892 0.12078 0.84669 0.0
C573 C 0.91601 0.09562 0.87873 0.0
C574 C 0.91813 0.11317 0.83442 0.0
C575 C 0.94608 0.09751 0.84412 0.0
H576 H 0.85794 0.65783 0.58634 0.0
H577 H 0.8805 0.59824 0.64356 0.0
H578 H 0.85331 0.64067 0.66673 0.0
H579 H 0.8295 0.69795 0.67096 0.0
H580 H 0.80589 0.75673 0.6135 0.0
H581 H 0.8267 0.7112 0.59022 0.0
C582 C 0.85639 0.65388 0.60385 0.0
C583 C 0.87163 0.62521 0.61326 0.0
C584 C 0.84078 0.67837 0.61705 0.0
C585 C 0.86898 0.62012 0.63592 0.0
C586 C 0.85365 0.6445 0.64919 0.0
C587 C 0.82844 0.70056 0.65334 0.0
C588 C 0.81664 0.73092 0.64401 0.0
C589 C 0.84045 0.67423 0.63999 0.0
C590 C 0.81491 0.73371 0.62114 0.0
C591 C 0.827 0.70774 0.60778 0.0
H592 H 0.0992 0.1213 0.33615 0.0
H593 H 0.16228 0.14689 0.39131 0.0
H594 H 0.11992 0.12402 0.41628 0.0
H595 H 0.06269 0.10117 0.42266 0.0
H596 H 1.00097 0.07256 0.36752 0.0
H597 H 0.04503 0.09181 0.34244 0.0
C598 C 0.10383 0.12145 0.35362 0.0
C599 C 0.13371 0.13609 0.36182 0.0
C600 C 0.07949 0.10787 0.36795 0.0
C601 C 0.13953 0.13573 0.38451 0.0
C602 C 0.11522 0.12283 0.39885 0.0
C603 C 0.05911 0.09879 0.40516 0.0
C604 C 0.02849 0.08577 0.39699 0.0
C605 C 0.08477 0.10952 0.39079 0.0
C606 C 0.02435 0.08243 0.37426 0.0
C607 C 0.04946 0.09361 0.35988 0.0
H608 H 0.63015 0.35601 0.08371 0.0
H609 H 0.60948 0.4186 0.13995 0.0
H610 H 0.63665 0.37723 0.16368 0.0
H611 H 0.66165 0.32088 0.16896 0.0
H612 H 0.6846 0.25918 0.11275 0.0
H613 H 0.6616 0.30267 0.08858 0.0
C614 C 0.63197 0.36077 0.10112 0.0
C615 C 0.61744 0.3902 0.11002 0.0
C616 C 0.64791 0.33694 0.11474 0.0
C617 C 0.62042 0.39619 0.13261 0.0
C618 C 0.63582 0.37244 0.14626 0.0
C619 C 0.66199 0.31718 0.1514 0.0
C620 C 0.67447 0.28673 0.14269 0.0
C621 C 0.64894 0.34238 0.13758 0.0
C622 C 0.67518 0.28243 0.11989 0.0
C623 C 0.66183 0.3072 0.10605 0.0
H624 H 0.50865 0.91935 0.87222 0.0
H625 H 0.45364 0.91634 0.93304 0.0
H626 H 0.40174 0.90159 0.91362 0.0
H627 H 0.37337 0.8829 0.87998 0.0
H628 H 0.42906 0.88207 0.81938 0.0
H629 H 0.47872 0.90521 0.8379 0.0
C630 C 0.48513 0.91619 0.88113 0.0
C631 C 0.48514 0.9188 0.90407 0.0
C632 C 0.45538 0.90662 0.86988 0.0
C633 C 0.45445 0.91423 0.91539 0.0
C634 C 0.4247 0.90573 0.9043 0.0
C635 C 0.39609 0.88849 0.87071 0.0
C636 C 0.39737 0.88057 0.8483 0.0
C637 C 0.42503 0.90086 0.88162 0.0
C638 C 0.4273 0.8877 0.83666 0.0
C639 C 0.45584 0.90087 0.84727 0.0
H640 H 0.86285 0.38366 0.88003 0.0
H641 H 0.87161 0.32614 0.93968 0.0
H642 H 0.84753 0.2766 0.92162 0.0
H643 H 0.83002 0.24746 0.88766 0.0
H644 H 0.82424 0.30466 0.82776 0.0
H645 H 0.84057 0.35609 0.84708 0.0
C646 C 0.85884 0.36053 0.88923 0.0
C647 C 0.86933 0.35875 0.91118 0.0
C648 C 0.84574 0.33172 0.87857 0.0
C649 C 0.86408 0.32832 0.92273 0.0
C650 C 0.85034 0.29984 0.91238 0.0
C651 C 0.83165 0.27132 0.87897 0.0
C652 C 0.82615 0.27205 0.85625 0.0
C653 C 0.84198 0.30089 0.89012 0.0
C654 C 0.82866 0.30323 0.8452 0.0
C655 C 0.83805 0.33273 0.85624 0.0
H656 H 0.36632 0.1347 0.61868 0.0
H657 H 0.41426 0.11046 0.68003 0.0
H658 H 0.46241 0.08599 0.66069 0.0
H659 H 0.49379 0.07755 0.62652 0.0
H660 H 0.44718 0.10482 0.56519 0.0
H661 H 0.39578 0.12177 0.5843 0.0
C662 C 0.38693 0.12332 0.62779 0.0
C663 C 0.38675 0.12453 0.65075 0.0
C664 C 0.41512 0.11029 0.61656 0.0
C665 C 0.41386 0.11002 0.66234 0.0
C666 C 0.44149 0.09613 0.65129 0.0
C667 C 0.47225 0.08675 0.61728 0.0
C668 C 0.47463 0.09026 0.59446 0.0
C669 C 0.44289 0.09712 0.62841 0.0
C670 C 0.44633 0.10222 0.5828 0.0
C671 C 0.41682 0.1119 0.59371 0.0
H672 H 0.68656 0.73937 0.38518 0.0
H673 H 0.67276 0.69167 0.32241 0.0
H674 H 0.64808 0.642 0.34003 0.0
H675 H 0.62512 0.61458 0.37284 0.0
H676 H 0.63572 0.66385 0.43543 0.0
H677 H 0.66702 0.71008 0.41837 0.0
C678 C 0.6788 0.7178 0.37541 0.0
C679 C 0.68143 0.71929 0.35251 0.0
C680 C 0.66362 0.68968 0.38561 0.0
C681 C 0.67085 0.69127 0.34007 0.0
C682 C 0.65665 0.66286 0.35013 0.0
C683 C 0.6347 0.63516 0.38283 0.0
C684 C 0.62778 0.63575 0.40538 0.0
C685 C 0.65205 0.66215 0.37283 0.0
C686 C 0.64034 0.66279 0.418 0.0
C687 C 0.65829 0.68931 0.40826 0.0
H688 H 0.10351 0.88454 0.17058 0.0
H689 H 0.16307 0.86122 0.11339 0.0
H690 H 0.12144 0.88909 0.09022 0.0
H691 H 0.06585 0.9159 0.08577 0.0
H692 H 0.00698 0.94124 0.14281 0.0
H693 H 0.05072 0.91723 0.16639 0.0
C694 C 0.10753 0.88587 0.15308 0.0
C695 C 0.13622 0.87045 0.14377 0.0
C696 C 0.08355 0.90223 0.13976 0.0
C697 C 0.14125 0.87282 0.12106 0.0
C698 C 0.11736 0.88865 0.10773 0.0
C699 C 0.06279 0.91652 0.10337 0.0
C700 C 0.03306 0.93002 0.11249 0.0
C701 C 0.08809 0.90281 0.11685 0.0
C702 C 0.02966 0.93106 0.13535 0.0
C703 C 0.05457 0.91712 0.14886 0.0
H704 H 0.69022 0.75559 0.88122 0.0
H705 H 0.67185 0.80724 0.82027 0.0
H706 H 0.65284 0.8574 0.83995 0.0
H707 H 0.63443 0.88396 0.8743 0.0
H708 H 0.65006 0.8311 0.93514 0.0
H709 H 0.67742 0.78463 0.9158 0.0
C710 C 0.68278 0.77808 0.87227 0.0
C711 C 0.68212 0.77744 0.8493 0.0
C712 C 0.67096 0.80668 0.8837 0.0
C713 C 0.67222 0.80683 0.83796 0.0
C714 C 0.66128 0.83559 0.8492 0.0
C715 C 0.6445 0.86263 0.88336 0.0
C716 C 0.63982 0.86092 0.90611 0.0
C717 C 0.65946 0.83542 0.87206 0.0
C718 C 0.65292 0.83294 0.91758 0.0
C719 C 0.66857 0.80626 0.90653 0.0
H720 H 0.43518 0.41798 0.08508 0.0
H721 H 0.49659 0.44199 0.14128 0.0
H722 H 0.45294 0.41937 0.1655 0.0
H723 H 0.39942 0.38807 0.17048 0.0
H724 H 0.33712 0.36644 0.11422 0.0
H725 H 0.37877 0.39305 0.09039 0.0
C726 C 0.43879 0.41864 0.10264 0.0
C727 C 0.46921 0.43132 0.11133 0.0
C728 C 0.41349 0.4058 0.1165 0.0
C729 C 0.47337 0.43242 0.13415 0.0
C730 C 0.4485 0.41929 0.14802 0.0
C731 C 0.39481 0.38953 0.15304 0.0
C732 C 0.36536 0.37491 0.14417 0.0
C733 C 0.41879 0.40519 0.13935 0.0
C734 C 0.35955 0.37744 0.12154 0.0
C735 C 0.38345 0.39253 0.10784 0.0
H736 H 0.86336 0.15891 0.4206 0.0
H737 H 0.89161 0.0982 0.36494 0.0
H738 H 0.86675 0.14011 0.34034 0.0
H739 H 0.84252 0.19696 0.33457 0.0
H740 H 0.81278 0.25663 0.39043 0.0
H741 H 0.83235 0.21209 0.41493 0.0
C742 C 0.86361 0.1546 0.4031 0.0
C743 C 0.87969 0.12566 0.39462 0.0
C744 C 0.84924 0.17878 0.38904 0.0
C745 C 0.87938 0.12023 0.37192 0.0
C746 C 0.86538 0.14432 0.35782 0.0
C747 C 0.83993 0.20001 0.3521 0.0
C748 C 0.82662 0.23032 0.36062 0.0
C749 C 0.85111 0.17416 0.36617 0.0
C750 C 0.82296 0.23364 0.38338 0.0
C751 C 0.83432 0.20822 0.39745 0.0
H752 H 0.09137 0.61799 0.67813 0.0
H753 H 0.16024 0.62805 0.62375 0.0
H754 H 0.11793 0.60419 0.59923 0.0
H755 H 0.05937 0.58584 0.5924 0.0
H756 H 0.99109 0.57253 0.64664 0.0
H757 H 0.03512 0.59174 0.67197 0.0
C758 C 0.09728 0.61446 0.66098 0.0
C759 C 0.12892 0.62519 0.65283 0.0
C760 C 0.07283 0.60027 0.64686 0.0
C761 C 0.13622 0.62005 0.63057 0.0
C762 C 0.11192 0.60655 0.61644 0.0
C763 C 0.05435 0.58659 0.60982 0.0
C764 C 0.02194 0.57805 0.61761 0.0
C765 C 0.07987 0.59736 0.62429 0.0
C766 C 0.01587 0.57882 0.64023 0.0
C767 C 0.04099 0.59007 0.65471 0.0
H768 H 0.63023 0.11978 0.62489 0.0
H769 H 0.62672 0.18081 0.56643 0.0
H770 H 0.65309 0.22782 0.58592 0.0
H771 H 0.67197 0.25377 0.62064 0.0
H772 H 0.6727 0.1931 0.67923 0.0
H773 H 0.65316 0.14403 0.65862 0.0
C774 C 0.63564 0.14315 0.61627 0.0
C775 C 0.62609 0.14664 0.59422 0.0
C776 C 0.65025 0.17044 0.62769 0.0
C777 C 0.63344 0.1773 0.58343 0.0
C778 C 0.64854 0.20433 0.59459 0.0
C779 C 0.6685 0.22962 0.62877 0.0
C780 C 0.67361 0.22723 0.65148 0.0
C781 C 0.65632 0.20152 0.61687 0.0
C782 C 0.66869 0.19577 0.6618 0.0
C783 C 0.65744 0.16764 0.65003 0.0
H784 H 0.07902 0.38729 0.83332 0.0
H785 H 0.15125 0.37633 0.88575 0.0
H786 H 0.10985 0.39832 0.91172 0.0
H787 H 0.05113 0.41483 0.92016 0.0
H788 H 0.97945 0.42715 0.86754 0.0
H789 H 0.02267 0.41076 0.84109 0.0
C790 C 0.0859 0.3902 0.85037 0.0
C791 C 0.11809 0.37976 0.85758 0.0
C792 C 0.06192 0.40281 0.86526 0.0
C793 C 0.1267 0.38415 0.8797 0.0
C794 C 0.10292 0.39651 0.89463 0.0
C795 C 0.04508 0.41428 0.90287 0.0
C796 C 0.01194 0.42173 0.89589 0.0
C797 C 0.07014 0.40497 0.88769 0.0
C798 C 0.00469 0.42146 0.8734 0.0
C799 C 0.02938 0.41194 0.85824 0.0
H800 H 0.87174 0.85738 0.08391 0.0
H801 H 0.89073 0.9195 0.14065 0.0
H802 H 0.86348 0.87754 0.16393 0.0
H803 H 0.83942 0.82064 0.16873 0.0
H804 H 0.81828 0.75931 0.11203 0.0
H805 H 0.84079 0.80359 0.08825 0.0
C806 C 0.8695 0.86193 0.10132 0.0
C807 C 0.88368 0.89136 0.11051 0.0
C808 C 0.85358 0.83772 0.11469 0.0
C809 C 0.88012 0.89707 0.13309 0.0
C810 C 0.86468 0.87299 0.14648 0.0
C811 C 0.83932 0.8172 0.15115 0.0
C812 C 0.82757 0.78662 0.14219 0.0
C813 C 0.85212 0.84284 0.13755 0.0
C814 C 0.82715 0.78265 0.11936 0.0
C815 C 0.84022 0.80788 0.10574 0.0
H816 H 0.4926 0.57648 0.36999 0.0
H817 H 0.44337 0.59298 0.43203 0.0
H818 H 0.39197 0.6111 0.41336 0.0
H819 H 0.36306 0.62817 0.37962 0.0
H820 H 0.41345 0.61519 0.31767 0.0
H821 H 0.46186 0.58932 0.33602 0.0
C822 C 0.47046 0.58353 0.37942 0.0
C823 C 0.47206 0.58368 0.40239 0.0
C824 C 0.4411 0.59472 0.36857 0.0
C825 C 0.44308 0.59301 0.41433 0.0
C826 C 0.41358 0.60335 0.40367 0.0
C827 C 0.38428 0.61895 0.37008 0.0
C828 C 0.38464 0.62372 0.34731 0.0
C829 C 0.41258 0.60515 0.38081 0.0
C830 C 0.41258 0.61199 0.33524 0.0
C831 C 0.44035 0.5973 0.34573 0.0
H832 H 0.36153 0.15629 0.08542 0.0
H833 H 0.38923 0.09686 0.14179 0.0
H834 H 0.3623 0.13819 0.1658 0.0
H835 H 0.3363 0.19428 0.17095 0.0
H836 H 0.30701 0.25269 0.11445 0.0
H837 H 0.32874 0.20857 0.09039 0.0
C838 C 0.36123 0.15216 0.10294 0.0
C839 C 0.37774 0.12379 0.11181 0.0
C840 C 0.34561 0.17597 0.11667 0.0
C841 C 0.37672 0.1185 0.13452 0.0
C842 C 0.3615 0.14224 0.14829 0.0
C843 C 0.33426 0.19711 0.15338 0.0
C844 C 0.32047 0.22693 0.14453 0.0
C845 C 0.34671 0.17154 0.13958 0.0
C846 C 0.31753 0.23002 0.12172 0.0
C847 C 0.33014 0.20487 0.10791 0.0
H848 H 0.5597 0.58684 0.91377 0.0
H849 H 0.49162 0.57046 0.8597 0.0
H850 H 0.53479 0.59089 0.83422 0.0
H851 H 0.5901 0.61858 0.82778 0.0
H852 H 0.65858 0.63262 0.88204 0.0
H853 H 0.61724 0.60776 0.9068 0.0
C854 C 0.55449 0.58729 0.89637 0.0
C855 C 0.52238 0.57746 0.88868 0.0
C856 C 0.57945 0.59893 0.88182 0.0
C857 C 0.51616 0.5778 0.86606 0.0
C858 C 0.54077 0.58972 0.85149 0.0
C859 C 0.59612 0.61583 0.84498 0.0
C860 C 0.62734 0.62788 0.853 0.0
C861 C 0.57223 0.60116 0.85924 0.0
C862 C 0.63483 0.62366 0.87532 0.0
C863 C 0.61111 0.60955 0.88958 0.0
H864 H 0.17133 0.80596 0.67351 0.0
H865 H 0.19109 0.74122 0.61819 0.0
H866 H 0.17136 0.78551 0.5934 0.0
H867 H 0.14255 0.84007 0.58782 0.0
H868 H 0.12378 0.9051 0.64319 0.0
H869 H 0.14944 0.86342 0.66749 0.0
C870 C 0.17175 0.80171 0.656 0.0
C871 C 0.18221 0.77015 0.64774 0.0
C872 C 0.16031 0.82725 0.64184 0.0
C873 C 0.18313 0.76524 0.625 0.0
C874 C 0.17164 0.79049 0.61081 0.0
C875 C 0.14447 0.84533 0.60517 0.0
C876 C 0.13076 0.87548 0.61369 0.0
C877 C 0.15925 0.82121 0.6191 0.0
C878 C 0.13399 0.88211 0.63616 0.0
C879 C 0.14852 0.85818 0.65012 0.0
H880 H 0.94432 0.41745 0.42029 0.0
H881 H 0.00903 0.43827 0.36519 0.0
H882 H 0.96494 0.41829 0.34019 0.0
H883 H 0.91016 0.38913 0.33439 0.0
H884 H 0.84485 0.37097 0.38973 0.0
H885 H 0.88674 0.39591 0.41409 0.0
C886 C 0.94851 0.41817 0.40278 0.0
C887 C 0.97998 0.42903 0.39462 0.0
C888 C 0.92302 0.4068 0.38852 0.0
C889 C 0.98497 0.43016 0.37189 0.0
C890 C 0.95985 0.41846 0.35759 0.0
C891 C 0.90493 0.39107 0.35174 0.0
C892 C 0.87451 0.37775 0.36019 0.0
C893 C 0.92911 0.40582 0.36576 0.0
C894 C 0.86798 0.38092 0.3827 0.0
C895 C 0.89203 0.39506 0.39672 0.0
H896 H 0.33983 0.8085 0.33499 0.0
H897 H 0.33061 0.7392 0.38909 0.0
H898 H 0.35246 0.7825 0.41402 0.0
H899 H 0.37939 0.83845 0.41969 0.0
H900 H 0.38625 0.90787 0.36532 0.0
H901 H 0.35994 0.86631 0.34145 0.0
C902 C 0.34219 0.80303 0.3523 0.0
C903 C 0.33398 0.77059 0.36013 0.0
C904 C 0.35461 0.82803 0.36652 0.0
C905 C 0.33671 0.764 0.38263 0.0
C906 C 0.34943 0.78869 0.39688 0.0
C907 C 0.37474 0.84463 0.40269 0.0
C908 C 0.38525 0.8762 0.39435 0.0
C909 C 0.35927 0.82056 0.38891 0.0
C910 C 0.37858 0.88385 0.3723 0.0
C911 C 0.36362 0.86001 0.35852 0.0
H912 H 0.93986 0.5971 0.08179 0.0
H913 H 0.00745 0.58447 0.13658 0.0
H914 H 0.96388 0.60539 0.16137 0.0
H915 H 0.90821 0.63155 0.1671 0.0
H916 H 0.83987 0.64252 0.1125 0.0
H917 H 0.88183 0.6175 0.08819 0.0
C918 C 0.94492 0.59868 0.09918 0.0
C919 C 0.97697 0.58961 0.10727 0.0
C920 C 0.91962 0.61046 0.11342 0.0
C921 C 0.983 0.59129 0.1299 0.0
C922 C 0.95813 0.60338 0.1441 0.0
C923 C 0.90232 0.62811 0.14994 0.0
C924 C 0.87105 0.63931 0.14165 0.0
C925 C 0.92658 0.61366 0.13599 0.0
C926 C 0.86371 0.6342 0.11939 0.0
C927 C 0.8878 0.62006 0.1054 0.0
H928 H 0.1587 0.19835 0.83289 0.0
H929 H 0.17997 0.26515 0.88691 0.0
H930 H 0.16256 0.22121 0.91272 0.0
H931 H 0.13556 0.16581 0.91967 0.0
H932 H 0.11681 0.09834 0.86552 0.0
H933 H 0.13926 0.14028 0.84016 0.0
C934 C 0.16002 0.20307 0.85033 0.0
C935 C 0.17025 0.23507 0.85796 0.0
C936 C 0.15016 0.17763 0.86508 0.0
C937 C 0.17225 0.24071 0.88061 0.0
C938 C 0.16206 0.21566 0.89538 0.0
C939 C 0.13683 0.16013 0.90236 0.0
C940 C 0.12408 0.12911 0.89453 0.0
C941 C 0.15008 0.18433 0.88778 0.0
C942 C 0.12638 0.12198 0.87205 0.0
C943 C 0.13907 0.14604 0.85747 0.0
H944 H 0.51257 0.42938 0.63797 0.0
H945 H 0.56948 0.42775 0.57787 0.0
H946 H 0.61923 0.40691 0.59732 0.0
H947 H 0.6443 0.38251 0.63039 0.0
H948 H 0.58627 0.38049 0.69013 0.0
H949 H 0.53963 0.40955 0.67196 0.0
C950 C 0.53613 0.42526 0.62927 0.0
C951 C 0.53731 0.43 0.60652 0.0
C952 C 0.5644 0.41211 0.64046 0.0
C953 C 0.56789 0.42411 0.59539 0.0
C954 C 0.59633 0.41208 0.60648 0.0
C955 C 0.62173 0.38896 0.63958 0.0
C956 C 0.61881 0.37897 0.66157 0.0
C957 C 0.59456 0.40493 0.62888 0.0
C958 C 0.5892 0.38752 0.67313 0.0
C959 C 0.56242 0.40416 0.66274 0.0
H960 H 0.29461 0.29575 0.23031 0.0
H961 H 0.20162 0.25871 0.20201 0.0
H962 H 0.18923 0.22726 0.23543 0.0
H963 H 0.20473 0.21025 0.27282 0.0
H964 H 0.29785 0.24724 0.30099 0.0
H965 H 0.31015 0.27869 0.2676 0.0
C966 C 0.27164 0.28078 0.23145 0.0
C967 C 0.24908 0.27962 0.21368 0.0
C968 C 0.26464 0.26275 0.25074 0.0
C969 C 0.21944 0.26007 0.21544 0.0
C970 C 0.2123 0.24207 0.23456 0.0
C971 C 0.2277 0.22522 0.27165 0.0
C972 C 0.25031 0.22637 0.28939 0.0
C973 C 0.23469 0.24323 0.25233 0.0
C974 C 0.27998 0.24588 0.28759 0.0
C975 C 0.28707 0.26389 0.26848 0.0
H976 H 0.01791 0.03195 0.5453 0.0
H977 H 0.05661 0.93434 0.52594 0.0
H978 H 0.02977 0.9401 0.49027 0.0
H979 H 0.9952 0.97273 0.46434 0.0
H980 H 0.95624 0.07027 0.48356 0.0
H981 H 0.98325 0.0647 0.51926 0.0
C982 C 0.02041 0.01194 0.53328 0.0
C983 C 0.03925 0.98276 0.53836 0.0
C984 C 0.0049 0.01541 0.51266 0.0
C985 C 0.04226 0.95709 0.52254 0.0
C986 C 0.02693 0.96035 0.50207 0.0
C987 C 0.99268 0.9928 0.47632 0.0
C988 C 0.97372 0.02186 0.47123 0.0
C989 C 0.0082 0.98939 0.49692 0.0
C990 C 0.97068 0.04759 0.487 0.0
C991 C 0.98611 0.04443 0.50747 0.0
H992 H 0.20847 0.71162 0.73868 0.0
H993 H 0.29732 0.7427 0.70282 0.0
H994 H 0.316 0.77687 0.73361 0.0
H995 H 0.30773 0.79787 0.77085 0.0
H996 H 0.21905 0.76774 0.80708 0.0
H997 H 0.19992 0.73331 0.77623 0.0
C998 C 0.23184 0.72597 0.73762 0.0
C999 C 0.25144 0.7245 0.71845 0.0
C1000 C 0.24263 0.74569 0.75553 0.0
C1001 C 0.28169 0.74326 0.71735 0.0
C1002 C 0.29249 0.76284 0.73499 0.0
C1003 C 0.28425 0.78371 0.77202 0.0
C1004 C 0.26491 0.78535 0.79125 0.0
C1005 C 0.27329 0.76416 0.75419 0.0
C1006 C 0.23447 0.76692 0.79246 0.0
C1007 C 0.22347 0.74724 0.7748 0.0
H1008 H 0.49544 0.96885 0.04648 0.0
H1009 H 0.46063 0.06678 0.02494 0.0
H1010 H 0.48975 0.05919 0.99004 0.0
H1011 H 0.52529 0.0245 0.96551 0.0
H1012 H 0.55934 0.92639 0.98739 0.0
H1013 H 0.5303 0.93425 0.02209 0.0
C1014 C 0.49429 0.98857 0.03417 0.0
C1015 C 0.47596 0.01834 0.03834 0.0
C1016 C 0.51091 0.98397 0.0141 0.0
C1017 C 0.4746 0.0436 0.02217 0.0
C1018 C 0.49123 0.03928 1.00218 0.0
C1019 C 0.52627 0.00486 0.97787 0.0
C1020 C 0.54448 0.97492 0.97382 0.0
C1021 C 0.50945 0.00953 0.99794 0.0
C1022 C 0.54551 0.94969 0.99002 0.0
C1023 C 0.52893 0.95415 0.00993 0.0
H1024 H 0.30522 0.70741 0.26953 0.0
H1025 H 0.21532 0.74487 0.30136 0.0
H1026 H 0.19963 0.77569 0.26815 0.0
H1027 H 0.21124 0.79133 0.22975 0.0
H1028 H 0.3011 0.75278 0.1983 0.0
H1029 H 0.31687 0.72299 0.23162 0.0
C1030 C 0.28225 0.72242 0.26927 0.0
C1031 C 0.26149 0.72386 0.2879 0.0
C1032 C 0.27327 0.73978 0.25012 0.0
C1033 C 0.23176 0.74336 0.28723 0.0
C1034 C 0.22275 0.76094 0.26824 0.0
C1035 C 0.23425 0.77639 0.23022 0.0
C1036 C 0.25494 0.77429 0.21154 0.0
C1037 C 0.24324 0.7592 0.24952 0.0
C1038 C 0.28467 0.75482 0.21241 0.0
C1039 C 0.29377 0.73778 0.23148 0.0
H1040 H 0.46627 0.95762 0.47968 0.0
H1041 H 0.50443 0.04381 0.44398 0.0
H1042 H 0.5355 0.06274 0.47613 0.0
H1043 H 0.55151 0.05543 0.51454 0.0
H1044 H 0.51365 0.9695 0.55055 0.0
H1045 H 0.48286 0.95001 0.51827 0.0
C1046 C 0.48147 0.98047 0.47895 0.0
C1047 C 0.48295 0.99925 0.45944 0.0
C1048 C 0.4993 0.99138 0.4976 0.0
C1049 C 0.50277 0.02884 0.45877 0.0
C1050 C 0.52057 0.03975 0.47717 0.0
C1051 C 0.53653 0.03244 0.51533 0.0
C1052 C 0.53488 0.014 0.53493 0.0
C1053 C 0.51893 0.02133 0.4967 0.0
C1054 C 0.51536 0.98422 0.53566 0.0
C1055 C 0.49773 0.97302 0.5172 0.0
H1056 H 0.27565 0.26917 0.78935 0.0
H1057 H 0.17687 0.30172 0.76796 0.0
H1058 H 0.18471 0.27211 0.73322 0.0
H1059 H 0.22011 0.23707 0.70864 0.0
H1060 H 0.31864 0.20462 0.73079 0.0
H1061 H 0.31043 0.23407 0.76526 0.0
C1062 C 0.25578 0.26974 0.77712 0.0
C1063 C 0.22575 0.28766 0.78127 0.0
C1064 C 0.26047 0.25271 0.75718 0.0
C1065 C 0.20027 0.28811 0.76521 0.0
C1066 C 0.20475 0.27121 0.7453 0.0
C1067 C 0.23976 0.23653 0.72101 0.0
C1068 C 0.26998 0.2187 0.71703 0.0
C1069 C 0.23482 0.25348 0.74105 0.0
C1070 C 0.29514 0.21814 0.73331 0.0
C1071 C 0.29049 0.23499 0.75311 0.0
H1072 H 0.05121 0.05532 0.98446 0.0
H1073 H 0.01107 0.96525 0.95408 0.0
H1074 H 0.98084 0.95096 0.98759 0.0
H1075 H 0.9661 0.96366 0.0257 0.0
H1076 H 0.00658 0.05337 0.05632 0.0
H1077 H 0.03645 0.06801 0.02268 0.0
C1078 C 0.03575 0.03264 0.98517 0.0
C1079 C 0.03341 0.0114 0.9668 0.0
C1080 C 0.0186 0.02438 0.0046 0.0
C1081 C 0.01335 0.98203 0.96799 0.0
C1082 C 0.99606 0.97379 0.98717 0.0
C1083 C 0.98151 0.98638 0.02502 0.0
C1084 C 0.98411 0.00736 0.0435 0.0
C1085 C 0.9986 0.99469 0.00561 0.0
C1086 C 0.00417 0.03673 0.04234 0.0
C1087 C 0.02123 0.04518 0.02309 0.0
H1088 H 0.79324 0.79792 0.72838 0.0
H1089 H 0.69928 0.76739 0.69828 0.0
H1090 H 0.68552 0.73272 0.73011 0.0
H1091 H 0.70028 0.71068 0.76658 0.0
H1092 H 0.79439 0.74126 0.79649 0.0
H1093 H 0.80784 0.77618 0.7648 0.0
C1094 C 0.76973 0.78372 0.7288 0.0
C1095 C 0.74735 0.78529 0.71096 0.0
C1096 C 0.76196 0.76376 0.74717 0.0
C1097 C 0.717 0.76667 0.71178 0.0
C1098 C 0.70908 0.74681 0.72999 0.0
C1099 C 0.72371 0.725 0.76614 0.0
C1100 C 0.74629 0.72327 0.78388 0.0
C1101 C 0.73138 0.7451 0.74779 0.0
C1102 C 0.77654 0.74205 0.78307 0.0
C1103 C 0.7843 0.76207 0.76493 0.0
H1104 H 0.70677 0.21814 0.23097 0.0
H1105 H 0.79566 0.25961 0.19991 0.0
H1106 H 0.81098 0.28877 0.23366 0.0
H1107 H 0.79932 0.30248 0.27215 0.0
H1108 H 0.71032 0.26118 0.30318 0.0
H1109 H 0.69505 0.23194 0.26945 0.0
C1110 C 0.72944 0.23363 0.23158 0.0
C1111 C 0.75 0.23668 0.21292 0.0
C1112 C 0.7382 0.2503 0.2511 0.0
C1113 C 0.77933 0.25682 0.21401 0.0
C1114 C 0.78817 0.27349 0.23333 0.0
C1115 C 0.77663 0.28701 0.27154 0.0
C1116 C 0.75603 0.28404 0.29018 0.0
C1117 C 0.76786 0.27036 0.25201 0.0
C1118 C 0.72667 0.26394 0.28909 0.0
C1119 C 0.71786 0.24721 0.26977 0.0
H1120 H 0.80121 0.2051 0.77142 0.0
H1121 H 0.71158 0.2355 0.80657 0.0
H1122 H 0.69311 0.26916 0.77526 0.0
H1123 H 0.70237 0.28994 0.73779 0.0
H1124 H 0.79202 0.25931 0.70274 0.0
H1125 H 0.81039 0.22569 0.73403 0.0
C1126 C 0.77766 0.21913 0.77224 0.0
C1127 C 0.75781 0.21779 0.7913 0.0
C1128 C 0.76711 0.23833 0.75415 0.0
C1129 C 0.72734 0.23609 0.79209 0.0
C1130 C 0.71673 0.25533 0.77418 0.0
C1131 C 0.72588 0.27584 0.73699 0.0
C1132 C 0.74577 0.27713 0.71795 0.0
C1133 C 0.73637 0.25659 0.7551 0.0
C1134 C 0.7762 0.25875 0.71718 0.0
C1135 C 0.78677 0.23954 0.73509 0.0
H1136 H 0.71278 0.79827 0.27375 0.0
H1137 H 0.80298 0.75473 0.30185 0.0
H1138 H 0.81547 0.72631 0.26733 0.0
H1139 H 0.8007 0.71365 0.22918 0.0
H1140 H 0.7103 0.75692 0.20115 0.0
H1141 H 0.69805 0.78569 0.23558 0.0
C1142 C 0.73517 0.78255 0.27232 0.0
C1143 C 0.75691 0.77862 0.29035 0.0
C1144 C 0.7422 0.76628 0.25242 0.0
C1145 C 0.78582 0.75817 0.28823 0.0
C1146 C 0.793 0.74193 0.26848 0.0
C1147 C 0.77836 0.72944 0.23058 0.0
C1148 C 0.75646 0.73314 0.21262 0.0
C1149 C 0.77138 0.7458 0.25047 0.0
C1150 C 0.72759 0.75365 0.21473 0.0
C1151 C 0.72054 0.77009 0.23442 0.0
H1152 H 0.5386 0.46193 0.02309 0.0
H1153 H 0.4983 0.55219 0.05306 0.0
H1154 H 0.46973 0.56704 0.01904 0.0
H1155 H 0.45591 0.55445 0.98079 0.0
H1156 H 0.4955 0.46401 0.95072 0.0
H1157 H 0.52477 0.44936 0.98463 0.0
C1158 C 0.5235 0.4848 0.02217 0.0
C1159 C 0.52059 0.50588 0.04062 0.0
C1160 C 0.50712 0.49327 0.00249 0.0
C1161 C 0.50096 0.53547 0.03914 0.0
C1162 C 0.48464 0.54404 0.01966 0.0
C1163 C 0.47107 0.53161 0.98161 0.0
C1164 C 0.47353 0.51039 0.96323 0.0
C1165 C 0.48757 0.52318 1.00123 0.0
C1166 C 0.49318 0.48081 0.96462 0.0
C1167 C 0.50988 0.47237 0.98403 0.0
H1168 H 0.01772 0.53604 0.46672 0.0
H1169 H 0.04566 0.43313 0.48185 0.0
H1170 H 0.01845 0.43781 0.51754 0.0
H1171 H 0.98662 0.47123 0.54462 0.0
H1172 H 0.95887 0.57417 0.52933 0.0
H1173 H 0.98623 0.56945 0.49377 0.0
C1174 C 0.01774 0.51461 0.4778 0.0
C1175 C 0.03364 0.48429 0.4716 0.0
C1176 C 1.00222 0.51753 0.49839 0.0
C1177 C 0.03357 0.45679 0.48619 0.0
C1178 C 0.01806 0.45944 0.50665 0.0
C1179 C 0.98673 0.49265 0.53354 0.0
C1180 C 0.97076 0.52299 0.53967 0.0
C1181 C 1.00238 0.48972 0.51297 0.0
C1182 C 0.97099 0.55049 0.52507 0.0
C1183 C 0.98659 0.54782 0.50467 0.0
H1184 H 0.03639 0.54913 0.01989 0.0
H1185 H 0.00385 0.46208 0.05697 0.0
H1186 H 0.97048 0.44225 0.0259 0.0
H1187 H 0.95044 0.44954 0.98814 0.0
H1188 H 0.98241 0.5369 0.95118 0.0
H1189 H 0.01616 0.55654 0.98215 0.0
C1190 C 0.02196 0.52584 0.02118 0.0
C1191 C 0.02264 0.50713 0.04074 0.0
C1192 C 1.00278 0.51455 0.00322 0.0
C1193 C 0.00378 0.47701 0.04212 0.0
C1194 C 0.9847 0.4656 0.02434 0.0
C1195 C 0.96487 0.47282 0.98684 0.0
C1196 C 0.96392 0.49169 0.96735 0.0
C1197 C 0.98404 0.48412 0.00479 0.0
C1198 C 0.98267 0.52188 0.96598 0.0
C1199 C 1.00197 0.53316 0.9837 0.0
H1200 H 0.54966 0.54916 0.48247 0.0
H1201 H 0.50886 0.4628 0.44828 0.0
H1202 H 0.47914 0.44487 0.48142 0.0
H1203 H 0.46426 0.4543 0.5202 0.0
H1204 H 0.50538 0.54123 0.55376 0.0
H1205 H 0.53558 0.55816 0.52087 0.0
C1206 C 0.53426 0.52641 0.48224 0.0
C1207 C 0.53142 0.50739 0.46295 0.0
C1208 C 0.51735 0.51628 0.5013 0.0
C1209 C 0.51142 0.47793 0.46294 0.0
C1210 C 0.49445 0.46764 0.48189 0.0
C1211 C 0.47997 0.47683 0.5203 0.0
C1212 C 0.4825 0.49648 0.5394 0.0
C1213 C 0.4972 0.48666 0.50119 0.0
C1214 C 0.5029 0.52567 0.53928 0.0
C1215 C 0.52019 0.53543 0.52046 0.0
H1216 H 0.30299 0.09868 0.33666 0.0
H1217 H 0.27619 0.13564 0.40068 0.0
H1218 H 0.31461 0.09478 0.41751 0.0
H1219 H 0.35645 0.0492 0.41398 0.0
H1220 H 0.38602 0.01463 0.34992 0.0
H1221 H 0.34584 0.05388 0.3331 0.0
C1222 C 0.30549 0.09765 0.3543 0.0
C1223 C 0.28674 0.12 0.36743 0.0
C1224 C 0.32813 0.07459 0.36382 0.0
C1225 C 0.29045 0.11872 0.39024 0.0
C1226 C 0.31236 0.09535 0.39986 0.0
C1227 C 0.35395 0.05016 0.39634 0.0
C1228 C 0.37399 0.029 0.38319 0.0
C1229 C 0.33139 0.07325 0.38681 0.0
C1230 C 0.37086 0.03075 0.36036 0.0
C1231 C 0.34789 0.05314 0.35075 0.0
H1232 H 0.16251 0.04463 0.58918 0.0
H1233 H 0.12251 0.01738 0.65234 0.0
H1234 H 0.16322 0.05501 0.67013 0.0
H1235 H 0.2101 0.0961 0.66778 0.0
H1236 H 0.2473 0.12643 0.60451 0.0
H1237 H 0.20799 0.08725 0.58676 0.0
C1238 C 0.16277 0.04691 0.60684 0.0
C1239 C 0.13961 0.02813 0.61942 0.0
C1240 C 0.18582 0.06917 0.61695 0.0
C1241 C 0.14 0.03163 0.64227 0.0
C1242 C 0.16334 0.05309 0.65247 0.0
C1243 C 0.20968 0.09397 0.65012 0.0
C1244 C 0.23173 0.11396 0.63748 0.0
C1245 C 0.18638 0.072 0.63999 0.0
C1246 C 0.23057 0.11133 0.61459 0.0
C1247 C 0.20811 0.08891 0.60443 0.0
H1248 H 0.23847 0.89351 0.89137 0.0
H1249 H 0.22804 0.9228 0.82382 0.0
H1250 H 0.18185 0.96104 0.83336 0.0
H1251 H 0.14341 0.9859 0.861 0.0
H1252 H 0.15635 0.95857 0.92869 0.0
H1253 H 0.202 0.91991 0.91902 0.0
C1254 C 0.22626 0.90844 0.87877 0.0
C1255 C 0.23678 0.90523 0.85694 0.0
C1256 C 0.19979 0.93064 0.88437 0.0
C1257 C 0.22064 0.92485 0.84081 0.0
C1258 C 0.19403 0.94665 0.84621 0.0
C1259 C 0.15616 0.97131 0.87355 0.0
C1260 C 0.14638 0.97496 0.89549 0.0
C1261 C 0.18316 0.94961 0.86793 0.0
C1262 C 0.16344 0.95627 0.91166 0.0
C1263 C 0.18959 0.93413 0.90616 0.0
H1264 H 0.30708 0.89669 0.16291 0.0
H1265 H 0.27535 0.86395 0.09889 0.0
H1266 H 0.31328 0.90561 0.08204 0.0
H1267 H 0.3553 0.95174 0.0857 0.0
H1268 H 0.389 0.98157 0.14994 0.0
H1269 H 0.3504 0.94068 0.16655 0.0
C1270 C 0.30843 0.89868 0.14526 0.0
C1271 C 0.2883 0.87745 0.13215 0.0
C1272 C 0.33062 0.92219 0.13576 0.0
C1273 C 0.29064 0.88 0.10931 0.0
C1274 C 0.31225 0.90387 0.09969 0.0
C1275 C 0.3541 0.94928 0.10333 0.0
C1276 C 0.37482 0.96976 0.11659 0.0
C1277 C 0.3323 0.92517 0.11277 0.0
C1278 C 0.37335 0.96606 0.13939 0.0
C1279 C 0.35125 0.94272 0.1489 0.0
H1280 H 0.70193 0.91854 0.66339 0.0
H1281 H 0.73162 0.8804 0.60018 0.0
H1282 H 0.69676 0.92328 0.58229 0.0
H1283 H 0.65709 0.9708 0.58454 0.0
H1284 H 0.62406 0.00682 0.64753 0.0
H1285 H 0.66108 0.96569 0.66562 0.0
C1286 C 0.70084 0.91973 0.6457 0.0
C1287 C 0.71941 0.8964 0.63311 0.0
C1288 C 0.68018 0.94406 0.63551 0.0
C1289 C 0.71749 0.89799 0.61023 0.0
C1290 C 0.69762 0.92255 0.59999 0.0
C1291 C 0.65819 0.96985 0.60224 0.0
C1292 C 0.63809 0.99199 0.6147 0.0
C1293 C 0.6788 0.94563 0.61246 0.0
C1294 C 0.63936 0.99008 0.6376 0.0
C1295 C 0.66049 0.96656 0.64793 0.0
H1296 H 0.856 0.95132 0.42134 0.0
H1297 H 0.89109 0.98378 0.35795 0.0
H1298 H 0.85389 0.94273 0.34029 0.0
H1299 H 0.81132 0.8979 0.34268 0.0
H1300 H 0.77818 0.86224 0.40573 0.0
H1301 H 0.81479 0.904 0.42373 0.0
C1302 C 0.85537 0.94939 0.40367 0.0
C1303 C 0.87611 0.9707 0.39095 0.0
C1304 C 0.83439 0.92509 0.39358 0.0
C1305 C 0.87542 0.96766 0.3681 0.0
C1306 C 0.85413 0.94421 0.35798 0.0
C1307 C 0.8121 0.89924 0.36038 0.0
C1308 C 0.79193 0.87718 0.37286 0.0
C1309 C 0.83352 0.92284 0.37053 0.0
C1310 C 0.79354 0.87892 0.39576 0.0
C1311 C 0.81437 0.90287 0.40604 0.0
H1312 H 0.80536 0.11269 0.16661 0.0
H1313 H 0.7749 0.14502 0.10222 0.0
H1314 H 0.81498 0.10536 0.08577 0.0
H1315 H 0.85876 0.06173 0.08972 0.0
H1316 H 0.89151 0.03156 0.15408 0.0
H1317 H 0.85046 0.07024 0.17056 0.0
C1318 C 0.80745 0.11095 0.14898 0.0
C1319 C 0.78713 0.13158 0.13563 0.0
C1320 C 0.83098 0.08859 0.13966 0.0
C1321 C 0.79033 0.12941 0.11282 0.0
C1322 C 0.81319 0.10673 0.10342 0.0
C1323 C 0.85687 0.06359 0.10736 0.0
C1324 C 0.87799 0.04375 0.12068 0.0
C1325 C 0.83365 0.08624 0.11668 0.0
C1326 C 0.87555 0.04665 0.14349 0.0
C1327 C 0.85205 0.06869 0.15292 0.0
H1328 H 0.64435 0.0131 0.86659 0.0
H1329 H 0.67033 0.02967 0.93417 0.0
H1330 H 0.71163 0.07267 0.92357 0.0
H1331 H 0.74058 0.1062 0.89496 0.0
H1332 H 0.71697 0.08676 0.8273 0.0
H1333 H 0.67503 0.04465 0.838 0.0
C1334 C 0.65907 0.02613 0.87897 0.0
C1335 C 0.65412 0.01818 0.90113 0.0
C1336 C 0.68342 0.05047 0.87273 0.0
C1337 C 0.67367 0.03514 0.91696 0.0
C1338 C 0.6973 0.05985 0.91092 0.0
C1339 C 0.72629 0.09268 0.88259 0.0
C1340 C 0.73199 0.09976 0.86036 0.0
C1341 C 0.70244 0.06781 0.88885 0.0
C1342 C 0.71333 0.08179 0.84454 0.0
C1343 C 0.68917 0.05769 0.85063 0.0
H1344 H 0.76765 0.61331 0.89043 0.0
H1345 H 0.79749 0.59451 0.82375 0.0
H1346 H 0.83465 0.54886 0.83563 0.0
H1347 H 0.85921 0.51427 0.8649 0.0
H1348 H 0.8277 0.53064 0.93152 0.0
H1349 H 0.79058 0.57665 0.91977 0.0
C1350 C 0.78243 0.59927 0.87857 0.0
C1351 C 0.77995 0.60745 0.85626 0.0
C1352 C 0.8033 0.57233 0.88548 0.0
C1353 C 0.79889 0.58872 0.84102 0.0
C1354 C 0.82018 0.56256 0.84779 0.0
C1355 C 0.84404 0.52773 0.87683 0.0
C1356 C 0.84629 0.51897 0.89904 0.0
C1357 C 0.82256 0.55406 0.86996 0.0
C1358 C 0.82636 0.53668 0.91428 0.0
C1359 C 0.80523 0.56318 0.9076 0.0
H1360 H 0.69833 0.61104 0.16496 0.0
H1361 H 0.72946 0.64367 0.10077 0.0
H1362 H 0.68946 0.60409 0.08406 0.0
H1363 H 0.64538 0.56051 0.08773 0.0
H1364 H 0.61176 0.53037 0.1519 0.0
H1365 H 0.65294 0.56872 0.16863 0.0
C1366 C 0.6964 0.60937 0.14731 0.0
C1367 C 0.71688 0.63007 0.13409 0.0
C1368 C 0.67286 0.5871 0.13785 0.0
C1369 C 0.71388 0.62801 0.11127 0.0
C1370 C 0.69107 0.60537 0.10172 0.0
C1371 C 0.64714 0.56231 0.10538 0.0
C1372 C 0.6257 0.54258 0.11858 0.0
C1373 C 0.6704 0.58484 0.11485 0.0
C1374 C 0.62795 0.54539 0.14141 0.0
C1375 C 0.65153 0.56725 0.15097 0.0
H1376 H 0.70438 0.41184 0.33692 0.0
H1377 H 0.73327 0.37625 0.40091 0.0
H1378 H 0.69564 0.41762 0.41786 0.0
H1379 H 0.65421 0.46332 0.41458 0.0
H1380 H 0.62217 0.49703 0.35084 0.0
H1381 H 0.66139 0.45699 0.33365 0.0
C1382 C 0.70248 0.41325 0.35458 0.0
C1383 C 0.72168 0.39111 0.36766 0.0
C1384 C 0.68026 0.43672 0.36422 0.0
C1385 C 0.71871 0.39294 0.39049 0.0
C1386 C 0.69725 0.41664 0.40019 0.0
C1387 C 0.65593 0.46207 0.39692 0.0
C1388 C 0.63554 0.48327 0.38398 0.0
C1389 C 0.67789 0.43858 0.38722 0.0
C1390 C 0.63766 0.48099 0.36113 0.0
C1391 C 0.66007 0.45812 0.35132 0.0
H1392 H 0.86407 0.48043 0.6444 0.0
H1393 H 0.84945 0.45482 0.57662 0.0
H1394 H 0.80638 0.41303 0.5867 0.0
H1395 H 0.77262 0.38354 0.61503 0.0
H1396 H 0.78518 0.4125 0.68255 0.0
H1397 H 0.82871 0.45312 0.67235 0.0
C1398 C 0.85151 0.46559 0.63187 0.0
C1399 C 0.86008 0.47051 0.60984 0.0
C1400 C 0.82612 0.44226 0.63774 0.0
C1401 C 0.84324 0.4515 0.59373 0.0
C1402 C 0.81862 0.42758 0.59948 0.0
C1403 C 0.78482 0.39883 0.62747 0.0
C1404 C 0.77562 0.39478 0.64953 0.0
C1405 C 0.80975 0.42273 0.62146 0.0
C1406 C 0.79161 0.41501 0.66542 0.0
C1407 C 0.81669 0.43826 0.65964 0.0
H1408 H 0.14979 0.45851 0.08582 0.0
H1409 H 0.12421 0.50048 0.14874 0.0
H1410 H 0.16168 0.45983 0.16668 0.0
H1411 H 0.20069 0.41152 0.16453 0.0
H1412 H 0.22381 0.36757 0.10175 0.0
H1413 H 0.18824 0.40972 0.08371 0.0
C1414 C 0.15265 0.4589 0.10344 0.0
C1415 C 0.13443 0.48253 0.11594 0.0
C1416 C 0.1736 0.43496 0.11367 0.0
C1417 C 0.13799 0.4825 0.13877 0.0
C1418 C 0.15938 0.45926 0.14904 0.0
C1419 C 0.19798 0.41121 0.1469 0.0
C1420 C 0.21486 0.38648 0.13449 0.0
C1421 C 0.17712 0.43523 0.13666 0.0
C1422 C 0.21095 0.38626 0.11168 0.0
C1423 C 0.1907 0.41041 0.10134 0.0
H1424 H 0.36355 0.48298 0.85878 0.0
H1425 H 0.34793 0.45583 0.92627 0.0
H1426 H 0.30509 0.41443 0.91559 0.0
H1427 H 0.27183 0.38574 0.88705 0.0
H1428 H 0.2845 0.41545 0.81975 0.0
H1429 H 0.32839 0.45593 0.8303 0.0
C1430 C 0.35076 0.46793 0.8711 0.0
C1431 C 0.359 0.47237 0.89326 0.0
C1432 C 0.32549 0.44463 0.86487 0.0
C1433 C 0.34197 0.45298 0.90909 0.0
C1434 C 0.31749 0.42923 0.903 0.0
C1435 C 0.2842 0.40109 0.87471 0.0
C1436 C 0.27499 0.39748 0.85265 0.0
C1437 C 0.309 0.42483 0.88095 0.0
C1438 C 0.29104 0.4178 0.83687 0.0
C1439 C 0.31623 0.44091 0.84288 0.0
H1440 H 0.37636 0.52287 0.6452 0.0
H1441 H 0.35804 0.54769 0.5776 0.0
H1442 H 0.31471 0.58831 0.58827 0.0
H1443 H 0.28172 0.617 0.61675 0.0
H1444 H 0.29744 0.59018 0.6843 0.0
H1445 H 0.34164 0.55023 0.67376 0.0
C1446 C 0.36291 0.53728 0.63288 0.0
C1447 C 0.37047 0.53236 0.61069 0.0
C1448 C 0.33736 0.5602 0.63909 0.0
C1449 C 0.3526 0.55092 0.59482 0.0
C1450 C 0.32781 0.57422 0.60089 0.0
C1451 C 0.29477 0.60234 0.62914 0.0
C1452 C 0.28633 0.60661 0.65124 0.0
C1453 C 0.3199 0.57904 0.62296 0.0
C1454 C 0.30334 0.58728 0.66712 0.0
C1455 C 0.32875 0.56448 0.66113 0.0
H1456 H 0.13354 0.5288 0.36469 0.0
H1457 H 0.15709 0.5494 0.43217 0.0
H1458 H 0.20112 0.58937 0.42106 0.0
H1459 H 0.23326 0.6185 0.39204 0.0
H1460 H 0.21206 0.59488 0.3246 0.0
H1461 H 0.16718 0.55611 0.33575 0.0
C1462 C 0.14822 0.5422 0.37692 0.0
C1463 C 0.14191 0.53637 0.3992 0.0
C1464 C 0.17414 0.56451 0.37041 0.0
C1465 C 0.16147 0.55348 0.4149 0.0
C1466 C 0.18667 0.57635 0.40856 0.0
C1467 C 0.21886 0.60478 0.37982 0.0
C1468 C 0.226 0.60965 0.35754 0.0
C1469 C 0.19332 0.58203 0.38636 0.0
C1470 C 0.20723 0.59151 0.34188 0.0
C1471 C 0.18142 0.5694 0.34823 0.0
loop_
_geom_bond_atom_site_label_1
_geom_bond_atom_site_label_2
_geom_bond_distance
_geom_bond_site_symmetry_2
_ccdc_geom_bond_type
Co0 O1 2.216 . S
Co0 O2 2.091 . S
Co0 O4 2.004 . S
Co0 O10 2.021 . S
Co0 O12 2.137 . S
Co0 O13 2.244 . S
O1 Co0 2.216 . S
O1 C8 1.247 . S
O2 Co0 2.091 . S
O2 C8 1.261 . S
C3 O12 1.247 . S
C3 O13 1.272 . S
O4 Co0 2.004 . S
O4 C9 1.259 . S
Co5 O6 2.061 . S
Co5 O11 2.052 . S
Co5 O13 2.135 . S
O6 Co5 2.061 . S
O6 C9 1.235 . S
C7 O10 1.238 . S
C7 O11 1.241 . S
C8 O1 1.247 . S
C8 O2 1.261 . S
C9 O4 1.259 . S
C9 O6 1.235 . S
O10 Co0 2.021 . S
O10 C7 1.238 . S
O11 Co5 2.052 . S
O11 C7 1.241 . S
O12 Co0 2.137 . S
O12 C3 1.247 . S
O13 Co0 2.244 . S
O13 C3 1.272 . S
O13 Co5 2.135 . S
Co14 O15 2.216 . S
Co14 O16 2.091 1_565 S
Co14 O18 2.004 . S
Co14 O24 2.021 . S
Co14 O26 2.137 1_565 S
Co14 O27 2.244 . S
O15 Co14 2.216 . S
O15 C22 1.247 1_565 S
O16 Co14 2.091 1_545 S
O16 C22 1.261 . S
C17 O26 1.247 1_565 S
C17 O27 1.272 . S
O18 Co14 2.004 . S
O18 C23 1.259 1_455 S
Co19 O20 2.059 1_455 S
Co19 O25 2.052 . S
Co19 O27 2.135 . S
O20 Co19 2.059 1_655 S
O20 C23 1.236 . S
C21 O24 1.238 . S
C21 O25 1.241 . S
C22 O15 1.247 1_545 S
C22 O16 1.261 . S
C23 O18 1.259 1_655 S
C23 O20 1.236 . S
O24 Co14 2.021 . S
O24 C21 1.238 . S
O25 Co19 2.052 . S
O25 C21 1.241 . S
O26 Co14 2.137 1_545 S
O26 C17 1.247 1_545 S
O27 Co14 2.244 . S
O27 C17 1.272 . S
O27 Co19 2.135 . S
Co28 O29 2.216 . S
Co28 O30 2.091 . S
Co28 O32 2.004 . S
Co28 O38 2.021 . S
Co28 O40 2.137 . S
Co28 O41 2.244 . S
O29 Co28 2.216 . S
O29 C36 1.247 . S
O30 Co28 2.091 . S
O30 C36 1.261 . S
C31 O40 1.247 . S
C31 O41 1.272 . S
O32 Co28 2.004 . S
O32 C37 1.259 . S
Co33 O34 2.061 . S
Co33 O39 2.052 . S
Co33 O41 2.135 . S
O34 Co33 2.061 . S
O34 C37 1.235 . S
C35 O38 1.238 . S
C35 O39 1.241 . S
C36 O29 1.247 . S
C36 O30 1.261 . S
C37 O32 1.259 . S
C37 O34 1.235 . S
O38 Co28 2.021 . S
O38 C35 1.238 . S
O39 Co33 2.052 . S
O39 C35 1.241 . S
O40 Co28 2.137 . S
O40 C31 1.247 . S
O41 Co28 2.244 . S
O41 C31 1.272 . S
O41 Co33 2.135 . S
Co42 O43 2.216 . S
Co42 O44 2.091 1_545 S
Co42 O46 2.004 . S
Co42 O52 2.021 . S
Co42 O54 2.137 1_545 S
Co42 O55 2.244 . S
O43 Co42 2.216 . S
O43 C50 1.247 1_545 S
O44 Co42 2.091 1_565 S
O44 C50 1.261 . S
C45 O54 1.247 1_545 S
C45 O55 1.272 . S
O46 Co42 2.004 . S
O46 C51 1.259 . S
Co47 O48 2.061 . S
Co47 O53 2.052 . S
Co47 O55 2.135 . S
O48 Co47 2.061 . S
O48 C51 1.235 . S
C49 O52 1.238 . S
C49 O53 1.241 . S
C50 O43 1.247 1_565 S
C50 O44 1.261 . S
C51 O46 1.259 . S
C51 O48 1.235 . S
O52 Co42 2.021 . S
O52 C49 1.238 . S
O53 Co47 2.052 . S
O53 C49 1.241 . S
O54 Co42 2.137 1_565 S
O54 C45 1.247 1_565 S
O55 Co42 2.244 . S
O55 C45 1.272 . S
O55 Co47 2.135 . S
Co56 O57 2.216 . S
Co56 O58 2.091 . S
Co56 O60 2.004 . S
Co56 O66 2.021 . S
Co56 O68 2.137 . S
Co56 O69 2.244 . S
O57 Co56 2.216 . S
O57 C64 1.247 . S
O58 Co56 2.091 . S
O58 C64 1.261 . S
C59 O68 1.247 . S
C59 O69 1.272 . S
O60 Co56 2.004 . S
O60 C65 1.259 . S
Co61 O62 2.061 . S
Co61 O67 2.052 . S
Co61 O69 2.135 . S
O62 Co61 2.061 . S
O62 C65 1.235 . S
C63 O66 1.238 . S
C63 O67 1.241 . S
C64 O57 1.247 . S
C64 O58 1.261 . S
C65 O60 1.259 . S
C65 O62 1.235 . S
O66 Co56 2.021 . S
O66 C63 1.238 . S
O67 Co61 2.052 . S
O67 C63 1.241 . S
O68 Co56 2.137 . S
O68 C59 1.247 . S
O69 Co56 2.244 . S
O69 C59 1.272 . S
O69 Co61 2.135 . S
Co70 O71 2.216 . S
Co70 O72 2.091 1_565 S
Co70 O74 2.004 . S
Co70 O80 2.021 . S
Co70 O82 2.137 1_565 S
Co70 O83 2.244 . S
O71 Co70 2.216 . S
O71 C78 1.247 1_565 S
O72 Co70 2.091 1_545 S
O72 C78 1.261 . S
C73 O82 1.247 1_565 S
C73 O83 1.272 . S
O74 Co70 2.004 . S
O74 C79 1.259 . S
Co75 O76 2.061 . S
Co75 O81 2.052 . S
Co75 O83 2.135 . S
O76 Co75 2.061 . S
O76 C79 1.235 . S
C77 O80 1.238 . S
C77 O81 1.241 . S
C78 O71 1.247 1_545 S
C78 O72 1.261 . S
C79 O74 1.259 . S
C79 O76 1.235 . S
O80 Co70 2.021 . S
O80 C77 1.238 . S
O81 Co75 2.052 . S
O81 C77 1.241 . S
O82 Co70 2.137 1_545 S
O82 C73 1.247 1_545 S
O83 Co70 2.244 . S
O83 C73 1.272 . S
O83 Co75 2.135 . S
Co84 O85 2.216 . S
Co84 O86 2.091 . S
Co84 O88 2.004 . S
Co84 O94 2.021 . S
Co84 O96 2.137 . S
Co84 O97 2.244 . S
O85 Co84 2.216 . S
O85 C92 1.247 . S
O86 Co84 2.091 . S
O86 C92 1.261 . S
C87 O96 1.247 . S
C87 O97 1.272 . S
O88 Co84 2.004 . S
O88 C93 1.259 . S
Co89 O90 2.061 . S
Co89 O95 2.052 . S
Co89 O97 2.135 . S
O90 Co89 2.061 . S
O90 C93 1.235 . S
C91 O94 1.238 . S
C91 O95 1.241 . S
C92 O85 1.247 . S
C92 O86 1.261 . S
C93 O88 1.259 . S
C93 O90 1.235 . S
O94 Co84 2.021 . S
O94 C91 1.238 . S
O95 Co89 2.052 . S
O95 C91 1.241 . S
O96 Co84 2.137 . S
O96 C87 1.247 . S
O97 Co84 2.244 . S
O97 C87 1.272 . S
O97 Co89 2.135 . S
Co98 O99 2.216 . S
Co98 O100 2.091 1_545 S
Co98 O102 2.004 . S
Co98 O108 2.021 . S
Co98 O110 2.137 1_545 S
Co98 O111 2.244 . S
O99 Co98 2.216 . S
O99 C106 1.247 1_545 S
O100 Co98 2.091 1_565 S
O100 C106 1.261 . S
C101 O110 1.247 1_545 S
C101 O111 1.272 . S
O102 Co98 2.004 . S
O102 C107 1.259 1_455 S
Co103 O104 2.059 1_455 S
Co103 O109 2.052 . S
Co103 O111 2.135 . S
O104 Co103 2.059 1_655 S
O104 C107 1.236 . S
C105 O108 1.238 . S
C105 O109 1.241 . S
C106 O99 1.247 1_565 S
C106 O100 1.261 . S
C107 O102 1.259 1_655 S
C107 O104 1.236 . S
O108 Co98 2.021 . S
O108 C105 1.238 . S
O109 Co103 2.052 . S
O109 C105 1.241 . S
O110 Co98 2.137 1_565 S
O110 C101 1.247 1_565 S
O111 Co98 2.244 . S
O111 C101 1.272 . S
O111 Co103 2.135 . S
Co112 O113 2.216 . S
Co112 O114 2.091 . S
Co112 O116 2.004 . S
Co112 O122 2.021 . S
Co112 O124 2.137 . S
Co112 O125 2.244 . S
O113 Co112 2.216 . S
O113 C120 1.247 . S
O114 Co112 2.091 . S
O114 C120 1.261 . S
C115 O124 1.247 . S
C115 O125 1.272 . S
O116 Co112 2.004 . S
O116 C121 1.259 . S
Co117 O118 2.061 . S
Co117 O123 2.052 . S
Co117 O125 2.135 . S
O118 Co117 2.061 . S
O118 C121 1.235 . S
C119 O122 1.238 . S
C119 O123 1.241 . S
C120 O113 1.247 . S
C120 O114 1.261 . S
C121 O116 1.259 . S
C121 O118 1.235 . S
O122 Co112 2.021 . S
O122 C119 1.238 . S
O123 Co117 2.052 . S
O123 C119 1.241 . S
O124 Co112 2.137 . S
O124 C115 1.247 . S
O125 Co112 2.244 . S
O125 C115 1.272 . S
O125 Co117 2.135 . S
Co126 O127 2.216 . S
Co126 O128 2.091 1_545 S
Co126 O130 2.004 . S
Co126 O136 2.021 . S
Co126 O138 2.137 1_545 S
Co126 O139 2.244 . S
O127 Co126 2.216 . S
O127 C134 1.247 1_545 S
O128 Co126 2.091 1_565 S
O128 C134 1.261 . S
C129 O138 1.247 1_545 S
C129 O139 1.272 . S
O130 Co126 2.004 . S
O130 C135 1.259 1_655 S
Co131 O132 2.059 1_655 S
Co131 O137 2.052 . S
Co131 O139 2.135 . S
O132 Co131 2.059 1_455 S
O132 C135 1.236 . S
C133 O136 1.238 . S
C133 O137 1.241 . S
C134 O127 1.247 1_565 S
C134 O128 1.261 . S
C135 O130 1.259 1_455 S
C135 O132 1.236 . S
O136 Co126 2.021 . S
O136 C133 1.238 . S
O137 Co131 2.052 . S
O137 C133 1.241 . S
O138 Co126 2.137 1_565 S
O138 C129 1.247 1_565 S
O139 Co126 2.244 . S
O139 C129 1.272 . S
O139 Co131 2.135 . S
Co140 O141 2.216 . S
Co140 O142 2.091 . S
Co140 O144 2.004 . S
Co140 O150 2.021 . S
Co140 O152 2.137 . S
Co140 O153 2.244 . S
O141 Co140 2.216 . S
O141 C148 1.247 . S
O142 Co140 2.091 . S
O142 C148 1.261 . S
C143 O152 1.247 . S
C143 O153 1.272 . S
O144 Co140 2.004 . S
O144 C149 1.259 . S
Co145 O146 2.061 . S
Co145 O151 2.052 . S
Co145 O153 2.135 . S
O146 Co145 2.061 . S
O146 C149 1.235 . S
C147 O150 1.238 . S
C147 O151 1.241 . S
C148 O141 1.247 . S
C148 O142 1.261 . S
C149 O144 1.259 . S
C149 O146 1.235 . S
O150 Co140 2.021 . S
O150 C147 1.238 . S
O151 Co145 2.052 . S
O151 C147 1.241 . S
O152 Co140 2.137 . S
O152 C143 1.247 . S
O153 Co140 2.244 . S
O153 C143 1.272 . S
O153 Co145 2.135 . S
Co154 O155 2.216 . S
Co154 O156 2.091 1_565 S
Co154 O158 2.004 . S
Co154 O164 2.021 . S
Co154 O166 2.137 1_565 S
Co154 O167 2.244 . S
O155 Co154 2.216 . S
O155 C162 1.247 1_565 S
O156 Co154 2.091 1_545 S
O156 C162 1.261 . S
C157 O166 1.247 1_565 S
C157 O167 1.272 . S
O158 Co154 2.004 . S
O158 C163 1.259 . S
Co159 O160 2.061 . S
Co159 O165 2.052 . S
Co159 O167 2.135 . S
O160 Co159 2.061 . S
O160 C163 1.235 . S
C161 O164 1.238 . S
C161 O165 1.241 . S
C162 O155 1.247 1_545 S
C162 O156 1.261 . S
C163 O158 1.259 . S
C163 O160 1.235 . S
O164 Co154 2.021 . S
O164 C161 1.238 . S
O165 Co159 2.052 . S
O165 C161 1.241 . S
O166 Co154 2.137 1_545 S
O166 C157 1.247 1_545 S
O167 Co154 2.244 . S
O167 C157 1.272 . S
O167 Co159 2.135 . S
Co168 O169 2.216 . S
Co168 O170 2.091 . S
Co168 O172 2.004 . S
Co168 O178 2.021 . S
Co168 O180 2.137 . S
Co168 O181 2.244 . S
O169 Co168 2.216 . S
O169 C176 1.247 . S
O170 Co168 2.091 . S
O170 C176 1.261 . S
C171 O180 1.247 . S
C171 O181 1.272 . S
O172 Co168 2.004 . S
O172 C177 1.259 . S
Co173 O174 2.061 . S
Co173 O179 2.052 . S
Co173 O181 2.135 . S
O174 Co173 2.061 . S
O174 C177 1.235 . S
C175 O178 1.238 . S
C175 O179 1.241 . S
C176 O169 1.247 . S
C176 O170 1.261 . S
C177 O172 1.259 . S
C177 O174 1.235 . S
O178 Co168 2.021 . S
O178 C175 1.238 . S
O179 Co173 2.052 . S
O179 C175 1.241 . S
O180 Co168 2.137 . S
O180 C171 1.247 . S
O181 Co168 2.244 . S
O181 C171 1.272 . S
O181 Co173 2.135 . S
Co182 O183 2.216 . S
Co182 O184 2.091 1_545 S
Co182 O186 2.004 . S
Co182 O192 2.021 . S
Co182 O194 2.137 1_545 S
Co182 O195 2.244 . S
O183 Co182 2.216 . S
O183 C190 1.247 1_545 S
O184 Co182 2.091 1_565 S
O184 C190 1.261 . S
C185 O194 1.247 1_545 S
C185 O195 1.272 . S
O186 Co182 2.004 . S
O186 C191 1.259 . S
Co187 O188 2.061 . S
Co187 O193 2.052 . S
Co187 O195 2.135 . S
O188 Co187 2.061 . S
O188 C191 1.235 . S
C189 O192 1.238 . S
C189 O193 1.241 . S
C190 O183 1.247 1_565 S
C190 O184 1.261 . S
C191 O186 1.259 . S
C191 O188 1.235 . S
O192 Co182 2.021 . S
O192 C189 1.238 . S
O193 Co187 2.052 . S
O193 C189 1.241 . S
O194 Co182 2.137 1_565 S
O194 C185 1.247 1_565 S
O195 Co182 2.244 . S
O195 C185 1.272 . S
O195 Co187 2.135 . S
Co196 O197 2.216 . S
Co196 O198 2.091 . S
Co196 O200 2.004 . S
Co196 O206 2.021 . S
Co196 O208 2.137 . S
Co196 O209 2.244 . S
O197 Co196 2.216 . S
O197 C204 1.247 . S
O198 Co196 2.091 . S
O198 C204 1.261 . S
C199 O208 1.247 . S
C199 O209 1.272 . S
O200 Co196 2.004 . S
O200 C205 1.259 . S
Co201 O202 2.061 . S
Co201 O207 2.052 . S
Co201 O209 2.135 . S
O202 Co201 2.061 . S
O202 C205 1.235 . S
C203 O206 1.238 . S
C203 O207 1.241 . S
C204 O197 1.247 . S
C204 O198 1.261 . S
C205 O200 1.259 . S
C205 O202 1.235 . S
O206 Co196 2.021 . S
O206 C203 1.238 . S
O207 Co201 2.052 . S
O207 C203 1.241 . S
O208 Co196 2.137 . S
O208 C199 1.247 . S
O209 Co196 2.244 . S
O209 C199 1.272 . S
O209 Co201 2.135 . S
Co210 O211 2.216 . S
Co210 O212 2.091 1_565 S
Co210 O214 2.004 . S
Co210 O220 2.021 . S
Co210 O222 2.137 1_565 S
Co210 O223 2.244 . S
O211 Co210 2.216 . S
O211 C218 1.247 1_565 S
O212 Co210 2.091 1_545 S
O212 C218 1.261 . S
C213 O222 1.247 1_565 S
C213 O223 1.272 . S
O214 Co210 2.004 . S
O214 C219 1.259 1_655 S
Co215 O216 2.059 1_655 S
Co215 O221 2.052 . S
Co215 O223 2.135 . S
O216 Co215 2.059 1_455 S
O216 C219 1.236 . S
C217 O220 1.238 . S
C217 O221 1.241 . S
C218 O211 1.247 1_545 S
C218 O212 1.261 . S
C219 O214 1.259 1_455 S
C219 O216 1.236 . S
O220 Co210 2.021 . S
O220 C217 1.238 . S
O221 Co215 2.052 . S
O221 C217 1.241 . S
O222 Co210 2.137 1_545 S
O222 C213 1.247 1_545 S
O223 Co210 2.244 . S
O223 C213 1.272 . S
O223 Co215 2.135 . S
Co224 O225 2.216 . S
Co224 O226 2.091 . S
Co224 O228 2.004 . S
Co224 O234 2.021 . S
Co224 O236 2.137 . S
Co224 O237 2.244 . S
O225 Co224 2.216 . S
O225 C232 1.247 . S
O226 Co224 2.091 . S
O226 C232 1.261 . S
C227 O236 1.247 . S
C227 O237 1.272 . S
O228 Co224 2.004 . S
O228 C233 1.259 . S
Co229 O230 2.061 . S
Co229 O235 2.052 . S
Co229 O237 2.135 . S
O230 Co229 2.061 . S
O230 C233 1.235 . S
C231 O234 1.238 . S
C231 O235 1.241 . S
C232 O225 1.247 . S
C232 O226 1.261 . S
C233 O228 1.259 . S
C233 O230 1.235 . S
O234 Co224 2.021 . S
O234 C231 1.238 . S
O235 Co229 2.052 . S
O235 C231 1.241 . S
O236 Co224 2.137 . S
O236 C227 1.247 . S
O237 Co224 2.244 . S
O237 C227 1.272 . S
O237 Co229 2.135 . S
Co238 O239 2.216 . S
Co238 O240 2.091 . S
Co238 O242 2.004 . S
Co238 O248 2.021 . S
Co238 O250 2.137 . S
Co238 O251 2.244 . S
O239 Co238 2.216 . S
O239 C246 1.247 . S
O240 Co238 2.091 . S
O240 C246 1.261 . S
C241 O250 1.247 . S
C241 O251 1.272 . S
O242 Co238 2.004 . S
O242 C247 1.259 . S
Co243 O244 2.061 . S
Co243 O249 2.052 . S
Co243 O251 2.135 . S
O244 Co243 2.061 . S
O244 C247 1.235 . S
C245 O248 1.238 . S
C245 O249 1.241 . S
C246 O239 1.247 . S
C246 O240 1.261 . S
C247 O242 1.259 . S
C247 O244 1.235 . S
O248 Co238 2.021 . S
O248 C245 1.238 . S
O249 Co243 2.052 . S
O249 C245 1.241 . S
O250 Co238 2.137 . S
O250 C241 1.247 . S
O251 Co238 2.244 . S
O251 C241 1.272 . S
O251 Co243 2.135 . S
Co252 O253 2.216 . S
Co252 O254 2.091 . S
Co252 O256 2.004 . S
Co252 O262 2.021 . S
Co252 O264 2.137 . S
Co252 O265 2.244 . S
O253 Co252 2.216 . S
O253 C260 1.247 . S
O254 Co252 2.091 . S
O254 C260 1.261 . S
C255 O264 1.247 . S
C255 O265 1.272 . S
O256 Co252 2.004 . S
O256 C261 1.259 . S
Co257 O258 2.061 . S
Co257 O263 2.052 . S
Co257 O265 2.135 . S
O258 Co257 2.061 . S
O258 C261 1.235 . S
C259 O262 1.238 . S
C259 O263 1.241 . S
C260 O253 1.247 . S
C260 O254 1.261 . S
C261 O256 1.259 . S
C261 O258 1.235 . S
O262 Co252 2.021 . S
O262 C259 1.238 . S
O263 Co257 2.052 . S
O263 C259 1.241 . S
O264 Co252 2.137 . S
O264 C255 1.247 . S
O265 Co252 2.244 . S
O265 C255 1.272 . S
O265 Co257 2.135 . S
Co266 O267 2.216 . S
Co266 O268 2.091 . S
Co266 O270 2.004 . S
Co266 O276 2.021 . S
Co266 O278 2.137 . S
Co266 O279 2.244 . S
O267 Co266 2.216 . S
O267 C274 1.247 . S
O268 Co266 2.091 . S
O268 C274 1.261 . S
C269 O278 1.247 . S
C269 O279 1.272 . S
O270 Co266 2.004 . S
O270 C275 1.259 1_655 S
Co271 O272 2.059 1_655 S
Co271 O277 2.052 . S
Co271 O279 2.135 . S
O272 Co271 2.059 1_455 S
O272 C275 1.236 . S
C273 O276 1.238 . S
C273 O277 1.241 . S
C274 O267 1.247 . S
C274 O268 1.261 . S
C275 O270 1.259 1_455 S
C275 O272 1.236 . S
O276 Co266 2.021 . S
O276 C273 1.238 . S
O277 Co271 2.052 . S
O277 C273 1.241 . S
O278 Co266 2.137 . S
O278 C269 1.247 . S
O279 Co266 2.244 . S
O279 C269 1.272 . S
O279 Co271 2.135 . S
Co280 O281 2.216 . S
Co280 O282 2.091 . S
Co280 O284 2.004 . S
Co280 O290 2.021 . S
Co280 O292 2.137 . S
Co280 O293 2.244 . S
O281 Co280 2.216 . S
O281 C288 1.247 . S
O282 Co280 2.091 . S
O282 C288 1.261 . S
C283 O292 1.247 . S
C283 O293 1.272 . S
O284 Co280 2.004 . S
O284 C289 1.259 . S
Co285 O286 2.061 . S
Co285 O291 2.052 . S
Co285 O293 2.135 . S
O286 Co285 2.061 . S
O286 C289 1.235 . S
C287 O290 1.238 . S
C287 O291 1.241 . S
C288 O281 1.247 . S
C288 O282 1.261 . S
C289 O284 1.259 . S
C289 O286 1.235 . S
O290 Co280 2.021 . S
O290 C287 1.238 . S
O291 Co285 2.052 . S
O291 C287 1.241 . S
O292 Co280 2.137 . S
O292 C283 1.247 . S
O293 Co280 2.244 . S
O293 C283 1.272 . S
O293 Co285 2.135 . S
Co294 O295 2.216 . S
Co294 O296 2.091 . S
Co294 O298 2.004 . S
Co294 O304 2.021 . S
Co294 O306 2.137 . S
Co294 O307 2.244 . S
O295 Co294 2.216 . S
O295 C302 1.247 . S
O296 Co294 2.091 . S
O296 C302 1.261 . S
C297 O306 1.247 . S
C297 O307 1.272 . S
O298 Co294 2.004 . S
O298 C303 1.259 1_655 S
Co299 O300 2.058 1_655 S
Co299 O305 2.052 . S
Co299 O307 2.135 . S
O300 Co299 2.058 1_455 S
O300 C303 1.236 . S
C301 O304 1.238 . S
C301 O305 1.241 . S
C302 O295 1.247 . S
C302 O296 1.261 . S
C303 O298 1.259 1_455 S
C303 O300 1.236 . S
O304 Co294 2.021 . S
O304 C301 1.238 . S
O305 Co299 2.052 . S
O305 C301 1.241 . S
O306 Co294 2.137 . S
O306 C297 1.247 . S
O307 Co294 2.244 . S
O307 C297 1.272 . S
O307 Co299 2.135 . S
Co308 O309 2.216 . S
Co308 O310 2.091 . S
Co308 O312 2.004 . S
Co308 O318 2.021 . S
Co308 O320 2.137 . S
Co308 O321 2.244 . S
O309 Co308 2.216 . S
O309 C316 1.247 . S
O310 Co308 2.091 . S
O310 C316 1.261 . S
C311 O320 1.247 . S
C311 O321 1.272 . S
O312 Co308 2.004 . S
O312 C317 1.259 . S
Co313 O314 2.061 . S
Co313 O319 2.052 . S
Co313 O321 2.135 . S
O314 Co313 2.061 . S
O314 C317 1.235 . S
C315 O318 1.238 . S
C315 O319 1.241 . S
C316 O309 1.247 . S
C316 O310 1.261 . S
C317 O312 1.259 . S
C317 O314 1.235 . S
O318 Co308 2.021 . S
O318 C315 1.238 . S
O319 Co313 2.052 . S
O319 C315 1.241 . S
O320 Co308 2.137 . S
O320 C311 1.247 . S
O321 Co308 2.244 . S
O321 C311 1.272 . S
O321 Co313 2.135 . S
Co322 O323 2.216 . S
Co322 O324 2.091 . S
Co322 O326 2.004 . S
Co322 O332 2.021 . S
Co322 O334 2.137 . S
Co322 O335 2.244 . S
O323 Co322 2.216 . S
O323 C330 1.247 . S
O324 Co322 2.091 . S
O324 C330 1.261 . S
C325 O334 1.247 . S
C325 O335 1.272 . S
O326 Co322 2.004 . S
O326 C331 1.259 . S
Co327 O328 2.061 . S
Co327 O333 2.052 . S
Co327 O335 2.135 . S
O328 Co327 2.061 . S
O328 C331 1.235 . S
C329 O332 1.238 . S
C329 O333 1.241 . S
C330 O323 1.247 . S
C330 O324 1.261 . S
C331 O326 1.259 . S
C331 O328 1.235 . S
O332 Co322 2.021 . S
O332 C329 1.238 . S
O333 Co327 2.052 . S
O333 C329 1.241 . S
O334 Co322 2.137 . S
O334 C325 1.247 . S
O335 Co322 2.244 . S
O335 C325 1.272 . S
O335 Co327 2.135 . S
Co336 O337 2.216 . S
Co336 O338 2.091 . S
Co336 O340 2.004 . S
Co336 O346 2.021 . S
Co336 O348 2.137 . S
Co336 O349 2.244 . S
O337 Co336 2.216 . S
O337 C344 1.247 . S
O338 Co336 2.091 . S
O338 C344 1.261 . S
C339 O348 1.247 . S
C339 O349 1.272 . S
O340 Co336 2.004 . S
O340 C345 1.259 . S
Co341 O342 2.061 . S
Co341 O347 2.052 . S
Co341 O349 2.135 . S
O342 Co341 2.061 . S
O342 C345 1.235 . S
C343 O346 1.238 . S
C343 O347 1.241 . S
C344 O337 1.247 . S
C344 O338 1.261 . S
C345 O340 1.259 . S
C345 O342 1.235 . S
O346 Co336 2.021 . S
O346 C343 1.238 . S
O347 Co341 2.052 . S
O347 C343 1.241 . S
O348 Co336 2.137 . S
O348 C339 1.247 . S
O349 Co336 2.244 . S
O349 C339 1.272 . S
O349 Co341 2.135 . S
Co350 O351 2.216 . S
Co350 O352 2.091 . S
Co350 O354 2.004 . S
Co350 O360 2.021 . S
Co350 O362 2.137 . S
Co350 O363 2.244 . S
O351 Co350 2.216 . S
O351 C358 1.247 . S
O352 Co350 2.091 . S
O352 C358 1.261 . S
C353 O362 1.247 . S
C353 O363 1.272 . S
O354 Co350 2.004 . S
O354 C359 1.259 . S
Co355 O356 2.061 . S
Co355 O361 2.052 . S
Co355 O363 2.135 . S
O356 Co355 2.061 . S
O356 C359 1.235 . S
C357 O360 1.238 . S
C357 O361 1.241 . S
C358 O351 1.247 . S
C358 O352 1.261 . S
C359 O354 1.259 . S
C359 O356 1.235 . S
O360 Co350 2.021 . S
O360 C357 1.238 . S
O361 Co355 2.052 . S
O361 C357 1.241 . S
O362 Co350 2.137 . S
O362 C353 1.247 . S
O363 Co350 2.244 . S
O363 C353 1.272 . S
O363 Co355 2.135 . S
Co364 O365 2.216 . S
Co364 O366 2.091 . S
Co364 O368 2.004 . S
Co364 O374 2.021 . S
Co364 O376 2.137 . S
Co364 O377 2.244 . S
O365 Co364 2.216 . S
O365 C372 1.247 . S
O366 Co364 2.091 . S
O366 C372 1.261 . S
C367 O376 1.247 . S
C367 O377 1.272 . S
O368 Co364 2.004 . S
O368 C373 1.259 . S
Co369 O370 2.061 . S
Co369 O375 2.052 . S
Co369 O377 2.135 . S
O370 Co369 2.061 . S
O370 C373 1.235 . S
C371 O374 1.238 . S
C371 O375 1.241 . S
C372 O365 1.247 . S
C372 O366 1.261 . S
C373 O368 1.259 . S
C373 O370 1.235 . S
O374 Co364 2.021 . S
O374 C371 1.238 . S
O375 Co369 2.052 . S
O375 C371 1.241 . S
O376 Co364 2.137 . S
O376 C367 1.247 . S
O377 Co364 2.244 . S
O377 C367 1.272 . S
O377 Co369 2.135 . S
Co378 O379 2.216 . S
Co378 O380 2.091 . S
Co378 O382 2.004 . S
Co378 O388 2.021 . S
Co378 O390 2.137 . S
Co378 O391 2.244 . S
O379 Co378 2.216 . S
O379 C386 1.247 . S
O380 Co378 2.091 . S
O380 C386 1.261 . S
C381 O390 1.247 . S
C381 O391 1.272 . S
O382 Co378 2.004 . S
O382 C387 1.259 1_455 S
Co383 O384 2.059 1_455 S
Co383 O389 2.052 . S
Co383 O391 2.135 . S
O384 Co383 2.059 1_655 S
O384 C387 1.236 . S
C385 O388 1.238 . S
C385 O389 1.241 . S
C386 O379 1.247 . S
C386 O380 1.261 . S
C387 O382 1.259 1_655 S
C387 O384 1.236 . S
O388 Co378 2.021 . S
O388 C385 1.238 . S
O389 Co383 2.052 . S
O389 C385 1.241 . S
O390 Co378 2.137 . S
O390 C381 1.247 . S
O391 Co378 2.244 . S
O391 C381 1.272 . S
O391 Co383 2.135 . S
Co392 O393 2.216 . S
Co392 O394 2.091 . S
Co392 O396 2.004 . S
Co392 O402 2.021 . S
Co392 O404 2.137 . S
Co392 O405 2.244 . S
O393 Co392 2.216 . S
O393 C400 1.247 . S
O394 Co392 2.091 . S
O394 C400 1.261 . S
C395 O404 1.247 . S
C395 O405 1.272 . S
O396 Co392 2.004 . S
O396 C401 1.259 . S
Co397 O398 2.061 . S
Co397 O403 2.052 . S
Co397 O405 2.135 . S
O398 Co397 2.061 . S
O398 C401 1.235 . S
C399 O402 1.238 . S
C399 O403 1.241 . S
C400 O393 1.247 . S
C400 O394 1.261 . S
C401 O396 1.259 . S
C401 O398 1.235 . S
O402 Co392 2.021 . S
O402 C399 1.238 . S
O403 Co397 2.052 . S
O403 C399 1.241 . S
O404 Co392 2.137 . S
O404 C395 1.247 . S
O405 Co392 2.244 . S
O405 C395 1.272 . S
O405 Co397 2.135 . S
Co406 O407 2.216 . S
Co406 O408 2.091 . S
Co406 O410 2.004 . S
Co406 O416 2.021 . S
Co406 O418 2.137 . S
Co406 O419 2.244 . S
O407 Co406 2.216 . S
O407 C414 1.247 . S
O408 Co406 2.091 . S
O408 C414 1.261 . S
C409 O418 1.247 . S
C409 O419 1.272 . S
O410 Co406 2.004 . S
O410 C415 1.259 1_455 S
Co411 O412 2.058 1_455 S
Co411 O417 2.052 . S
Co411 O419 2.135 . S
O412 Co411 2.058 1_655 S
O412 C415 1.236 . S
C413 O416 1.238 . S
C413 O417 1.241 . S
C414 O407 1.247 . S
C414 O408 1.261 . S
C415 O410 1.259 1_655 S
C415 O412 1.236 . S
O416 Co406 2.021 . S
O416 C413 1.238 . S
O417 Co411 2.052 . S
O417 C413 1.241 . S
O418 Co406 2.137 . S
O418 C409 1.247 . S
O419 Co406 2.244 . S
O419 C409 1.272 . S
O419 Co411 2.135 . S
Co420 O421 2.216 . S
Co420 O422 2.091 . S
Co420 O424 2.004 . S
Co420 O430 2.021 . S
Co420 O432 2.137 . S
Co420 O433 2.244 . S
O421 Co420 2.216 . S
O421 C428 1.247 . S
O422 Co420 2.091 . S
O422 C428 1.261 . S
C423 O432 1.247 . S
C423 O433 1.272 . S
O424 Co420 2.004 . S
O424 C429 1.259 . S
Co425 O426 2.061 . S
Co425 O431 2.052 . S
Co425 O433 2.135 . S
O426 Co425 2.061 . S
O426 C429 1.235 . S
C427 O430 1.238 . S
C427 O431 1.241 . S
C428 O421 1.247 . S
C428 O422 1.261 . S
C429 O424 1.259 . S
C429 O426 1.235 . S
O430 Co420 2.021 . S
O430 C427 1.238 . S
O431 Co425 2.052 . S
O431 C427 1.241 . S
O432 Co420 2.137 . S
O432 C423 1.247 . S
O433 Co420 2.244 . S
O433 C423 1.272 . S
O433 Co425 2.135 . S
Co434 O435 2.216 . S
Co434 O436 2.091 . S
Co434 O438 2.004 . S
Co434 O444 2.021 . S
Co434 O446 2.137 . S
Co434 O447 2.244 . S
O435 Co434 2.216 . S
O435 C442 1.247 . S
O436 Co434 2.091 . S
O436 C442 1.261 . S
C437 O446 1.247 . S
C437 O447 1.272 . S
O438 Co434 2.004 . S
O438 C443 1.259 . S
Co439 O440 2.061 . S
Co439 O445 2.052 . S
Co439 O447 2.135 . S
O440 Co439 2.061 . S
O440 C443 1.235 . S
C441 O444 1.238 . S
C441 O445 1.241 . S
C442 O435 1.247 . S
C442 O436 1.261 . S
C443 O438 1.259 . S
C443 O440 1.235 . S
O444 Co434 2.021 . S
O444 C441 1.238 . S
O445 Co439 2.052 . S
O445 C441 1.241 . S
O446 Co434 2.137 . S
O446 C437 1.247 . S
O447 Co434 2.244 . S
O447 C437 1.272 . S
O447 Co439 2.135 . S
H448 C454 0.930 . S
H449 C457 0.930 . S
H450 C458 0.930 . S
H451 C459 0.930 . S
H452 C462 0.930 . S
H453 C463 0.930 . S
C454 H448 0.930 . S
C454 C455 1.355 . S
C454 C456 1.415 . S
C455 C454 1.355 . S
C455 C457 1.419 . S
C456 C454 1.415 . S
C456 C461 1.425 . S
C456 C463 1.409 . S
C457 H449 0.930 . S
C457 C455 1.419 . S
C457 C458 1.362 . S
C458 H450 0.930 . S
C458 C457 1.362 . S
C458 C461 1.409 . S
C459 H451 0.930 . S
C459 C460 1.355 . S
C459 C461 1.415 . S
C460 C459 1.355 . S
C460 C462 1.419 . S
C461 C456 1.425 . S
C461 C458 1.409 . S
C461 C459 1.415 . S
C462 H452 0.930 . S
C462 C460 1.419 . S
C462 C463 1.362 . S
C463 H453 0.930 . S
C463 C456 1.409 . S
C463 C462 1.362 . S
H464 C470 0.930 . S
H465 C473 0.930 . S
H466 C474 0.930 . S
H467 C475 0.930 . S
H468 C478 0.930 . S
H469 C479 0.930 . S
C470 H464 0.930 . S
C470 C471 1.355 . S
C470 C472 1.415 . S
C471 C470 1.355 . S
C471 C473 1.419 . S
C472 C470 1.415 . S
C472 C477 1.425 . S
C472 C479 1.409 . S
C473 H465 0.930 . S
C473 C471 1.419 . S
C473 C474 1.362 . S
C474 H466 0.930 . S
C474 C473 1.362 . S
C474 C477 1.409 . S
C475 H467 0.930 . S
C475 C476 1.355 . S
C475 C477 1.415 . S
C476 C475 1.355 . S
C476 C478 1.419 . S
C477 C472 1.425 . S
C477 C474 1.409 . S
C477 C475 1.415 . S
C478 H468 0.930 . S
C478 C476 1.419 . S
C478 C479 1.362 . S
C479 H469 0.930 . S
C479 C472 1.409 . S
C479 C478 1.362 . S
H480 C486 0.930 . S
H481 C489 0.930 . S
H482 C490 0.930 . S
H483 C491 0.930 . S
H484 C494 0.930 . S
H485 C495 0.930 . S
C486 H480 0.930 . S
C486 C487 1.355 . S
C486 C488 1.415 . S
C487 C486 1.355 . S
C487 C489 1.419 . S
C488 C486 1.415 . S
C488 C493 1.425 . S
C488 C495 1.409 . S
C489 H481 0.930 . S
C489 C487 1.419 . S
C489 C490 1.362 . S
C490 H482 0.930 . S
C490 C489 1.362 . S
C490 C493 1.409 . S
C491 H483 0.930 . S
C491 C492 1.355 . S
C491 C493 1.415 . S
C492 C491 1.355 . S
C492 C494 1.419 . S
C493 C488 1.425 . S
C493 C490 1.409 . S
C493 C491 1.415 . S
C494 H484 0.930 . S
C494 C492 1.419 . S
C494 C495 1.362 . S
C495 H485 0.930 . S
C495 C488 1.409 . S
C495 C494 1.362 . S
H496 C502 0.930 . S
H497 C505 0.930 . S
H498 C506 0.930 . S
H499 C507 0.930 . S
H500 C510 0.930 . S
H501 C511 0.930 . S
C502 H496 0.930 . S
C502 C503 1.355 . S
C502 C504 1.415 . S
C503 C502 1.355 . S
C503 C505 1.419 . S
C504 C502 1.415 . S
C504 C509 1.425 . S
C504 C511 1.409 . S
C505 H497 0.930 . S
C505 C503 1.419 . S
C505 C506 1.362 . S
C506 H498 0.930 . S
C506 C505 1.362 . S
C506 C509 1.409 . S
C507 H499 0.930 . S
C507 C508 1.355 . S
C507 C509 1.415 . S
C508 C507 1.355 . S
C508 C510 1.419 . S
C509 C504 1.425 . S
C509 C506 1.409 . S
C509 C507 1.415 . S
C510 H500 0.930 . S
C510 C508 1.419 . S
C510 C511 1.362 . S
C511 H501 0.930 . S
C511 C504 1.409 . S
C511 C510 1.362 . S
H512 C518 0.930 . S
H513 C521 0.930 . S
H514 C522 0.930 . S
H515 C523 0.930 . S
H516 C526 0.930 . S
H517 C527 0.930 . S
C518 H512 0.930 . S
C518 C519 1.355 . S
C518 C520 1.415 . S
C519 C518 1.355 . S
C519 C521 1.419 . S
C520 C518 1.415 . S
C520 C525 1.425 . S
C520 C527 1.409 . S
C521 H513 0.930 . S
C521 C519 1.419 . S
C521 C522 1.362 . S
C522 H514 0.930 . S
C522 C521 1.362 . S
C522 C525 1.409 . S
C523 H515 0.930 . S
C523 C524 1.355 . S
C523 C525 1.415 . S
C524 C523 1.355 . S
C524 C526 1.419 . S
C525 C520 1.425 . S
C525 C522 1.409 . S
C525 C523 1.415 . S
C526 H516 0.930 . S
C526 C524 1.419 . S
C526 C527 1.362 . S
C527 H517 0.930 . S
C527 C520 1.409 . S
C527 C526 1.362 . S
H528 C534 0.930 . S
H529 C537 0.930 . S
H530 C538 0.930 . S
H531 C539 0.930 . S
H532 C542 0.930 . S
H533 C543 0.930 . S
C534 H528 0.930 . S
C534 C535 1.355 . S
C534 C536 1.415 . S
C535 C534 1.355 . S
C535 C537 1.419 . S
C536 C534 1.415 . S
C536 C541 1.425 . S
C536 C543 1.409 . S
C537 H529 0.930 . S
C537 C535 1.419 . S
C537 C538 1.362 . S
C538 H530 0.930 . S
C538 C537 1.362 . S
C538 C541 1.409 . S
C539 H531 0.930 . S
C539 C540 1.355 . S
C539 C541 1.415 . S
C540 C539 1.355 . S
C540 C542 1.419 . S
C541 C536 1.425 . S
C541 C538 1.409 . S
C541 C539 1.415 . S
C542 H532 0.930 . S
C542 C540 1.419 . S
C542 C543 1.362 . S
C543 H533 0.930 . S
C543 C536 1.409 . S
C543 C542 1.362 . S
H544 C550 0.930 . S
H545 C553 0.930 . S
H546 C554 0.930 . S
H547 C555 0.930 . S
H548 C558 0.930 . S
H549 C559 0.930 . S
C550 H544 0.930 . S
C550 C551 1.355 . S
C550 C552 1.415 . S
C551 C550 1.355 . S
C551 C553 1.419 . S
C552 C550 1.415 . S
C552 C557 1.425 . S
C552 C559 1.409 . S
C553 H545 0.930 . S
C553 C551 1.419 . S
C553 C554 1.362 . S
C554 H546 0.930 . S
C554 C553 1.362 . S
C554 C557 1.409 . S
C555 H547 0.930 . S
C555 C556 1.355 . S
C555 C557 1.415 . S
C556 C555 1.355 . S
C556 C558 1.419 . S
C557 C552 1.425 . S
C557 C554 1.409 . S
C557 C555 1.415 . S
C558 H548 0.930 . S
C558 C556 1.419 . S
C558 C559 1.362 . S
C559 H549 0.930 . S
C559 C552 1.409 . S
C559 C558 1.362 . S
H560 C566 0.930 . S
H561 C569 0.930 . S
H562 C570 0.930 . S
H563 C571 0.930 . S
H564 C574 0.930 . S
H565 C575 0.930 . S
C566 H560 0.930 . S
C566 C567 1.355 . S
C566 C568 1.415 . S
C567 C566 1.355 . S
C567 C569 1.419 . S
C568 C566 1.415 . S
C568 C573 1.425 . S
C568 C575 1.409 . S
C569 H561 0.930 . S
C569 C567 1.419 . S
C569 C570 1.362 . S
C570 H562 0.930 . S
C570 C569 1.362 . S
C570 C573 1.409 . S
C571 H563 0.930 . S
C571 C572 1.355 . S
C571 C573 1.415 . S
C572 C571 1.355 . S
C572 C574 1.419 . S
C573 C568 1.425 . S
C573 C570 1.409 . S
C573 C571 1.415 . S
C574 H564 0.930 . S
C574 C572 1.419 . S
C574 C575 1.362 . S
C575 H565 0.930 . S
C575 C568 1.409 . S
C575 C574 1.362 . S
H576 C582 0.930 . S
H577 C585 0.930 . S
H578 C586 0.930 . S
H579 C587 0.930 . S
H580 C590 0.930 . S
H581 C591 0.930 . S
C582 H576 0.930 . S
C582 C583 1.355 . S
C582 C584 1.415 . S
C583 C582 1.355 . S
C583 C585 1.419 . S
C584 C582 1.415 . S
C584 C589 1.425 . S
C584 C591 1.409 . S
C585 H577 0.930 . S
C585 C583 1.419 . S
C585 C586 1.362 . S
C586 H578 0.930 . S
C586 C585 1.362 . S
C586 C589 1.409 . S
C587 H579 0.930 . S
C587 C588 1.355 . S
C587 C589 1.415 . S
C588 C587 1.355 . S
C588 C590 1.419 . S
C589 C584 1.425 . S
C589 C586 1.409 . S
C589 C587 1.415 . S
C590 H580 0.930 . S
C590 C588 1.419 . S
C590 C591 1.362 . S
C591 H581 0.930 . S
C591 C584 1.409 . S
C591 C590 1.362 . S
H592 C598 0.930 . S
H593 C601 0.930 . S
H594 C602 0.930 . S
H595 C603 0.930 . S
H596 C606 0.930 . S
H597 C607 0.930 . S
C598 H592 0.930 . S
C598 C599 1.355 . S
C598 C600 1.415 . S
C599 C598 1.355 . S
C599 C601 1.419 . S
C600 C598 1.415 . S
C600 C605 1.425 . S
C600 C607 1.409 . S
C601 H593 0.930 . S
C601 C599 1.419 . S
C601 C602 1.362 . S
C602 H594 0.930 . S
C602 C601 1.362 . S
C602 C605 1.409 . S
C603 H595 0.930 . S
C603 C604 1.355 . S
C603 C605 1.415 . S
C604 C603 1.355 . S
C604 C606 1.419 . S
C605 C600 1.425 . S
C605 C602 1.409 . S
C605 C603 1.415 . S
C606 H596 0.930 . S
C606 C604 1.419 . S
C606 C607 1.362 . S
C607 H597 0.930 . S
C607 C600 1.409 . S
C607 C606 1.362 . S
H608 C614 0.930 . S
H609 C617 0.930 . S
H610 C618 0.930 . S
H611 C619 0.930 . S
H612 C622 0.930 . S
H613 C623 0.930 . S
C614 H608 0.930 . S
C614 C615 1.355 . S
C614 C616 1.415 . S
C615 C614 1.355 . S
C615 C617 1.419 . S
C616 C614 1.415 . S
C616 C621 1.425 . S
C616 C623 1.409 . S
C617 H609 0.930 . S
C617 C615 1.419 . S
C617 C618 1.362 . S
C618 H610 0.930 . S
C618 C617 1.362 . S
C618 C621 1.409 . S
C619 H611 0.930 . S
C619 C620 1.355 . S
C619 C621 1.415 . S
C620 C619 1.355 . S
C620 C622 1.419 . S
C621 C616 1.425 . S
C621 C618 1.409 . S
C621 C619 1.415 . S
C622 H612 0.930 . S
C622 C620 1.419 . S
C622 C623 1.362 . S
C623 H613 0.930 . S
C623 C616 1.409 . S
C623 C622 1.362 . S
H624 C630 0.930 . S
H625 C633 0.930 . S
H626 C634 0.930 . S
H627 C635 0.930 . S
H628 C638 0.930 . S
H629 C639 0.930 . S
C630 H624 0.930 . S
C630 C631 1.355 . S
C630 C632 1.415 . S
C631 C630 1.355 . S
C631 C633 1.419 . S
C632 C630 1.415 . S
C632 C637 1.425 . S
C632 C639 1.409 . S
C633 H625 0.930 . S
C633 C631 1.419 . S
C633 C634 1.362 . S
C634 H626 0.930 . S
C634 C633 1.362 . S
C634 C637 1.409 . S
C635 H627 0.930 . S
C635 C636 1.355 . S
C635 C637 1.415 . S
C636 C635 1.355 . S
C636 C638 1.419 . S
C637 C632 1.425 . S
C637 C634 1.409 . S
C637 C635 1.415 . S
C638 H628 0.930 . S
C638 C636 1.419 . S
C638 C639 1.362 . S
C639 H629 0.930 . S
C639 C632 1.409 . S
C639 C638 1.362 . S
H640 C646 0.930 . S
H641 C649 0.930 . S
H642 C650 0.930 . S
H643 C651 0.930 . S
H644 C654 0.930 . S
H645 C655 0.930 . S
C646 H640 0.930 . S
C646 C647 1.355 . S
C646 C648 1.415 . S
C647 C646 1.355 . S
C647 C649 1.419 . S
C648 C646 1.415 . S
C648 C653 1.425 . S
C648 C655 1.409 . S
C649 H641 0.930 . S
C649 C647 1.419 . S
C649 C650 1.362 . S
C650 H642 0.930 . S
C650 C649 1.362 . S
C650 C653 1.409 . S
C651 H643 0.930 . S
C651 C652 1.355 . S
C651 C653 1.415 . S
C652 C651 1.355 . S
C652 C654 1.419 . S
C653 C648 1.425 . S
C653 C650 1.409 . S
C653 C651 1.415 . S
C654 H644 0.930 . S
C654 C652 1.419 . S
C654 C655 1.362 . S
C655 H645 0.930 . S
C655 C648 1.409 . S
C655 C654 1.362 . S
H656 C662 0.930 . S
H657 C665 0.930 . S
H658 C666 0.930 . S
H659 C667 0.930 . S
H660 C670 0.930 . S
H661 C671 0.930 . S
C662 H656 0.930 . S
C662 C663 1.355 . S
C662 C664 1.415 . S
C663 C662 1.355 . S
C663 C665 1.419 . S
C664 C662 1.415 . S
C664 C669 1.425 . S
C664 C671 1.409 . S
C665 H657 0.930 . S
C665 C663 1.419 . S
C665 C666 1.362 . S
C666 H658 0.930 . S
C666 C665 1.362 . S
C666 C669 1.409 . S
C667 H659 0.930 . S
C667 C668 1.355 . S
C667 C669 1.415 . S
C668 C667 1.355 . S
C668 C670 1.419 . S
C669 C664 1.425 . S
C669 C666 1.409 . S
C669 C667 1.415 . S
C670 H660 0.930 . S
C670 C668 1.419 . S
C670 C671 1.362 . S
C671 H661 0.930 . S
C671 C664 1.409 . S
C671 C670 1.362 . S
H672 C678 0.930 . S
H673 C681 0.930 . S
H674 C682 0.930 . S
H675 C683 0.930 . S
H676 C686 0.930 . S
H677 C687 0.930 . S
C678 H672 0.930 . S
C678 C679 1.355 . S
C678 C680 1.415 . S
C679 C678 1.355 . S
C679 C681 1.419 . S
C680 C678 1.415 . S
C680 C685 1.425 . S
C680 C687 1.409 . S
C681 H673 0.930 . S
C681 C679 1.419 . S
C681 C682 1.362 . S
C682 H674 0.930 . S
C682 C681 1.362 . S
C682 C685 1.409 . S
C683 H675 0.930 . S
C683 C684 1.355 . S
C683 C685 1.415 . S
C684 C683 1.355 . S
C684 C686 1.419 . S
C685 C680 1.425 . S
C685 C682 1.409 . S
C685 C683 1.415 . S
C686 H676 0.930 . S
C686 C684 1.419 . S
C686 C687 1.362 . S
C687 H677 0.930 . S
C687 C680 1.409 . S
C687 C686 1.362 . S
H688 C694 0.930 . S
H689 C697 0.930 . S
H690 C698 0.930 . S
H691 C699 0.930 . S
H692 C702 0.930 . S
H693 C703 0.930 . S
C694 H688 0.930 . S
C694 C695 1.355 . S
C694 C696 1.415 . S
C695 C694 1.355 . S
C695 C697 1.419 . S
C696 C694 1.415 . S
C696 C701 1.425 . S
C696 C703 1.409 . S
C697 H689 0.930 . S
C697 C695 1.419 . S
C697 C698 1.362 . S
C698 H690 0.930 . S
C698 C697 1.362 . S
C698 C701 1.409 . S
C699 H691 0.930 . S
C699 C700 1.355 . S
C699 C701 1.415 . S
C700 C699 1.355 . S
C700 C702 1.419 . S
C701 C696 1.425 . S
C701 C698 1.409 . S
C701 C699 1.415 . S
C702 H692 0.930 . S
C702 C700 1.419 . S
C702 C703 1.362 . S
C703 H693 0.930 . S
C703 C696 1.409 . S
C703 C702 1.362 . S
H704 C710 0.930 . S
H705 C713 0.930 . S
H706 C714 0.930 . S
H707 C715 0.930 . S
H708 C718 0.930 . S
H709 C719 0.930 . S
C710 H704 0.930 . S
C710 C711 1.355 . S
C710 C712 1.415 . S
C711 C710 1.355 . S
C711 C713 1.419 . S
C712 C710 1.415 . S
C712 C717 1.425 . S
C712 C719 1.409 . S
C713 H705 0.930 . S
C713 C711 1.419 . S
C713 C714 1.362 . S
C714 H706 0.930 . S
C714 C713 1.362 . S
C714 C717 1.409 . S
C715 H707 0.930 . S
C715 C716 1.355 . S
C715 C717 1.415 . S
C716 C715 1.355 . S
C716 C718 1.419 . S
C717 C712 1.425 . S
C717 C714 1.409 . S
C717 C715 1.415 . S
C718 H708 0.930 . S
C718 C716 1.419 . S
C718 C719 1.362 . S
C719 H709 0.930 . S
C719 C712 1.409 . S
C719 C718 1.362 . S
H720 C726 0.930 . S
H721 C729 0.930 . S
H722 C730 0.930 . S
H723 C731 0.930 . S
H724 C734 0.930 . S
H725 C735 0.930 . S
C726 H720 0.930 . S
C726 C727 1.355 . S
C726 C728 1.415 . S
C727 C726 1.355 . S
C727 C729 1.419 . S
C728 C726 1.415 . S
C728 C733 1.425 . S
C728 C735 1.409 . S
C729 H721 0.930 . S
C729 C727 1.419 . S
C729 C730 1.362 . S
C730 H722 0.930 . S
C730 C729 1.362 . S
C730 C733 1.409 . S
C731 H723 0.930 . S
C731 C732 1.355 . S
C731 C733 1.415 . S
C732 C731 1.355 . S
C732 C734 1.419 . S
C733 C728 1.425 . S
C733 C730 1.409 . S
C733 C731 1.415 . S
C734 H724 0.930 . S
C734 C732 1.419 . S
C734 C735 1.362 . S
C735 H725 0.930 . S
C735 C728 1.409 . S
C735 C734 1.362 . S
H736 C742 0.930 . S
H737 C745 0.930 . S
H738 C746 0.930 . S
H739 C747 0.930 . S
H740 C750 0.930 . S
H741 C751 0.930 . S
C742 H736 0.930 . S
C742 C743 1.355 . S
C742 C744 1.415 . S
C743 C742 1.355 . S
C743 C745 1.419 . S
C744 C742 1.415 . S
C744 C749 1.425 . S
C744 C751 1.409 . S
C745 H737 0.930 . S
C745 C743 1.419 . S
C745 C746 1.362 . S
C746 H738 0.930 . S
C746 C745 1.362 . S
C746 C749 1.409 . S
C747 H739 0.930 . S
C747 C748 1.355 . S
C747 C749 1.415 . S
C748 C747 1.355 . S
C748 C750 1.419 . S
C749 C744 1.425 . S
C749 C746 1.409 . S
C749 C747 1.415 . S
C750 H740 0.930 . S
C750 C748 1.419 . S
C750 C751 1.362 . S
C751 H741 0.930 . S
C751 C744 1.409 . S
C751 C750 1.362 . S
H752 C758 0.930 . S
H753 C761 0.930 . S
H754 C762 0.930 . S
H755 C763 0.930 . S
H756 C766 0.930 . S
H757 C767 0.930 . S
C758 H752 0.930 . S
C758 C759 1.355 . S
C758 C760 1.415 . S
C759 C758 1.355 . S
C759 C761 1.419 . S
C760 C758 1.415 . S
C760 C765 1.425 . S
C760 C767 1.409 . S
C761 H753 0.930 . S
C761 C759 1.419 . S
C761 C762 1.362 . S
C762 H754 0.930 . S
C762 C761 1.362 . S
C762 C765 1.409 . S
C763 H755 0.930 . S
C763 C764 1.355 . S
C763 C765 1.415 . S
C764 C763 1.355 . S
C764 C766 1.419 . S
C765 C760 1.425 . S
C765 C762 1.409 . S
C765 C763 1.415 . S
C766 H756 0.930 . S
C766 C764 1.419 . S
C766 C767 1.362 . S
C767 H757 0.930 . S
C767 C760 1.409 . S
C767 C766 1.362 . S
H768 C774 0.930 . S
H769 C777 0.930 . S
H770 C778 0.930 . S
H771 C779 0.930 . S
H772 C782 0.930 . S
H773 C783 0.930 . S
C774 H768 0.930 . S
C774 C775 1.355 . S
C774 C776 1.415 . S
C775 C774 1.355 . S
C775 C777 1.419 . S
C776 C774 1.415 . S
C776 C781 1.425 . S
C776 C783 1.409 . S
C777 H769 0.930 . S
C777 C775 1.419 . S
C777 C778 1.362 . S
C778 H770 0.930 . S
C778 C777 1.362 . S
C778 C781 1.409 . S
C779 H771 0.930 . S
C779 C780 1.355 . S
C779 C781 1.415 . S
C780 C779 1.355 . S
C780 C782 1.419 . S
C781 C776 1.425 . S
C781 C778 1.409 . S
C781 C779 1.415 . S
C782 H772 0.930 . S
C782 C780 1.419 . S
C782 C783 1.362 . S
C783 H773 0.930 . S
C783 C776 1.409 . S
C783 C782 1.362 . S
H784 C790 0.930 . S
H785 C793 0.930 . S
H786 C794 0.930 . S
H787 C795 0.930 . S
H788 C798 0.930 . S
H789 C799 0.930 . S
C790 H784 0.930 . S
C790 C791 1.355 . S
C790 C792 1.415 . S
C791 C790 1.355 . S
C791 C793 1.419 . S
C792 C790 1.415 . S
C792 C797 1.425 . S
C792 C799 1.409 . S
C793 H785 0.930 . S
C793 C791 1.419 . S
C793 C794 1.362 . S
C794 H786 0.930 . S
C794 C793 1.362 . S
C794 C797 1.409 . S
C795 H787 0.930 . S
C795 C796 1.355 . S
C795 C797 1.415 . S
C796 C795 1.355 . S
C796 C798 1.419 . S
C797 C792 1.425 . S
C797 C794 1.409 . S
C797 C795 1.415 . S
C798 H788 0.930 . S
C798 C796 1.419 . S
C798 C799 1.362 . S
C799 H789 0.930 . S
C799 C792 1.409 . S
C799 C798 1.362 . S
H800 C806 0.930 . S
H801 C809 0.930 . S
H802 C810 0.930 . S
H803 C811 0.930 . S
H804 C814 0.930 . S
H805 C815 0.930 . S
C806 H800 0.930 . S
C806 C807 1.355 . S
C806 C808 1.415 . S
C807 C806 1.355 . S
C807 C809 1.419 . S
C808 C806 1.415 . S
C808 C813 1.425 . S
C808 C815 1.409 . S
C809 H801 0.930 . S
C809 C807 1.419 . S
C809 C810 1.362 . S
C810 H802 0.930 . S
C810 C809 1.362 . S
C810 C813 1.409 . S
C811 H803 0.930 . S
C811 C812 1.355 . S
C811 C813 1.415 . S
C812 C811 1.355 . S
C812 C814 1.419 . S
C813 C808 1.425 . S
C813 C810 1.409 . S
C813 C811 1.415 . S
C814 H804 0.930 . S
C814 C812 1.419 . S
C814 C815 1.362 . S
C815 H805 0.930 . S
C815 C808 1.409 . S
C815 C814 1.362 . S
H816 C822 0.930 . S
H817 C825 0.930 . S
H818 C826 0.930 . S
H819 C827 0.930 . S
H820 C830 0.930 . S
H821 C831 0.930 . S
C822 H816 0.930 . S
C822 C823 1.355 . S
C822 C824 1.415 . S
C823 C822 1.355 . S
C823 C825 1.419 . S
C824 C822 1.415 . S
C824 C829 1.425 . S
C824 C831 1.409 . S
C825 H817 0.930 . S
C825 C823 1.419 . S
C825 C826 1.362 . S
C826 H818 0.930 . S
C826 C825 1.362 . S
C826 C829 1.409 . S
C827 H819 0.930 . S
C827 C828 1.355 . S
C827 C829 1.415 . S
C828 C827 1.355 . S
C828 C830 1.419 . S
C829 C824 1.425 . S
C829 C826 1.409 . S
C829 C827 1.415 . S
C830 H820 0.930 . S
C830 C828 1.419 . S
C830 C831 1.362 . S
C831 H821 0.930 . S
C831 C824 1.409 . S
C831 C830 1.362 . S
H832 C838 0.930 . S
H833 C841 0.930 . S
H834 C842 0.930 . S
H835 C843 0.930 . S
H836 C846 0.930 . S
H837 C847 0.930 . S
C838 H832 0.930 . S
C838 C839 1.355 . S
C838 C840 1.415 . S
C839 C838 1.355 . S
C839 C841 1.419 . S
C840 C838 1.415 . S
C840 C845 1.425 . S
C840 C847 1.409 . S
C841 H833 0.930 . S
C841 C839 1.419 . S
C841 C842 1.362 . S
C842 H834 0.930 . S
C842 C841 1.362 . S
C842 C845 1.409 . S
C843 H835 0.930 . S
C843 C844 1.355 . S
C843 C845 1.415 . S
C844 C843 1.355 . S
C844 C846 1.419 . S
C845 C840 1.425 . S
C845 C842 1.409 . S
C845 C843 1.415 . S
C846 H836 0.930 . S
C846 C844 1.419 . S
C846 C847 1.362 . S
C847 H837 0.930 . S
C847 C840 1.409 . S
C847 C846 1.362 . S
H848 C854 0.930 . S
H849 C857 0.930 . S
H850 C858 0.930 . S
H851 C859 0.930 . S
H852 C862 0.930 . S
H853 C863 0.930 . S
C854 H848 0.930 . S
C854 C855 1.355 . S
C854 C856 1.415 . S
C855 C854 1.355 . S
C855 C857 1.419 . S
C856 C854 1.415 . S
C856 C861 1.425 . S
C856 C863 1.409 . S
C857 H849 0.930 . S
C857 C855 1.419 . S
C857 C858 1.362 . S
C858 H850 0.930 . S
C858 C857 1.362 . S
C858 C861 1.409 . S
C859 H851 0.930 . S
C859 C860 1.355 . S
C859 C861 1.415 . S
C860 C859 1.355 . S
C860 C862 1.419 . S
C861 C856 1.425 . S
C861 C858 1.409 . S
C861 C859 1.415 . S
C862 H852 0.930 . S
C862 C860 1.419 . S
C862 C863 1.362 . S
C863 H853 0.930 . S
C863 C856 1.409 . S
C863 C862 1.362 . S
H864 C870 0.930 . S
H865 C873 0.930 . S
H866 C874 0.930 . S
H867 C875 0.930 . S
H868 C878 0.930 . S
H869 C879 0.930 . S
C870 H864 0.930 . S
C870 C871 1.355 . S
C870 C872 1.415 . S
C871 C870 1.355 . S
C871 C873 1.419 . S
C872 C870 1.415 . S
C872 C877 1.425 . S
C872 C879 1.409 . S
C873 H865 0.930 . S
C873 C871 1.419 . S
C873 C874 1.362 . S
C874 H866 0.930 . S
C874 C873 1.362 . S
C874 C877 1.409 . S
C875 H867 0.930 . S
C875 C876 1.355 . S
C875 C877 1.415 . S
C876 C875 1.355 . S
C876 C878 1.419 . S
C877 C872 1.425 . S
C877 C874 1.409 . S
C877 C875 1.415 . S
C878 H868 0.930 . S
C878 C876 1.419 . S
C878 C879 1.362 . S
C879 H869 0.930 . S
C879 C872 1.409 . S
C879 C878 1.362 . S
H880 C886 0.930 . S
H881 C889 0.930 . S
H882 C890 0.930 . S
H883 C891 0.930 . S
H884 C894 0.930 . S
H885 C895 0.930 . S
C886 H880 0.930 . S
C886 C887 1.355 . S
C886 C888 1.415 . S
C887 C886 1.355 . S
C887 C889 1.419 . S
C888 C886 1.415 . S
C888 C893 1.425 . S
C888 C895 1.409 . S
C889 H881 0.930 . S
C889 C887 1.419 . S
C889 C890 1.362 . S
C890 H882 0.930 . S
C890 C889 1.362 . S
C890 C893 1.409 . S
C891 H883 0.930 . S
C891 C892 1.355 . S
C891 C893 1.415 . S
C892 C891 1.355 . S
C892 C894 1.419 . S
C893 C888 1.425 . S
C893 C890 1.409 . S
C893 C891 1.415 . S
C894 H884 0.930 . S
C894 C892 1.419 . S
C894 C895 1.362 . S
C895 H885 0.930 . S
C895 C888 1.409 . S
C895 C894 1.362 . S
H896 C902 0.930 . S
H897 C905 0.930 . S
H898 C906 0.930 . S
H899 C907 0.930 . S
H900 C910 0.930 . S
H901 C911 0.930 . S
C902 H896 0.930 . S
C902 C903 1.355 . S
C902 C904 1.415 . S
C903 C902 1.355 . S
C903 C905 1.419 . S
C904 C902 1.415 . S
C904 C909 1.425 . S
C904 C911 1.409 . S
C905 H897 0.930 . S
C905 C903 1.419 . S
C905 C906 1.362 . S
C906 H898 0.930 . S
C906 C905 1.362 . S
C906 C909 1.409 . S
C907 H899 0.930 . S
C907 C908 1.355 . S
C907 C909 1.415 . S
C908 C907 1.355 . S
C908 C910 1.419 . S
C909 C904 1.425 . S
C909 C906 1.409 . S
C909 C907 1.415 . S
C910 H900 0.930 . S
C910 C908 1.419 . S
C910 C911 1.362 . S
C911 H901 0.930 . S
C911 C904 1.409 . S
C911 C910 1.362 . S
H912 C918 0.930 . S
H913 C921 0.930 . S
H914 C922 0.930 . S
H915 C923 0.930 . S
H916 C926 0.930 . S
H917 C927 0.930 . S
C918 H912 0.930 . S
C918 C919 1.355 . S
C918 C920 1.415 . S
C919 C918 1.355 . S
C919 C921 1.419 . S
C920 C918 1.415 . S
C920 C925 1.425 . S
C920 C927 1.409 . S
C921 H913 0.930 . S
C921 C919 1.419 . S
C921 C922 1.362 . S
C922 H914 0.930 . S
C922 C921 1.362 . S
C922 C925 1.409 . S
C923 H915 0.930 . S
C923 C924 1.355 . S
C923 C925 1.415 . S
C924 C923 1.355 . S
C924 C926 1.419 . S
C925 C920 1.425 . S
C925 C922 1.409 . S
C925 C923 1.415 . S
C926 H916 0.930 . S
C926 C924 1.419 . S
C926 C927 1.362 . S
C927 H917 0.930 . S
C927 C920 1.409 . S
C927 C926 1.362 . S
H928 C934 0.930 . S
H929 C937 0.930 . S
H930 C938 0.930 . S
H931 C939 0.930 . S
H932 C942 0.930 . S
H933 C943 0.930 . S
C934 H928 0.930 . S
C934 C935 1.355 . S
C934 C936 1.415 . S
C935 C934 1.355 . S
C935 C937 1.419 . S
C936 C934 1.415 . S
C936 C941 1.425 . S
C936 C943 1.409 . S
C937 H929 0.930 . S
C937 C935 1.419 . S
C937 C938 1.362 . S
C938 H930 0.930 . S
C938 C937 1.362 . S
C938 C941 1.409 . S
C939 H931 0.930 . S
C939 C940 1.355 . S
C939 C941 1.415 . S
C940 C939 1.355 . S
C940 C942 1.419 . S
C941 C936 1.425 . S
C941 C938 1.409 . S
C941 C939 1.415 . S
C942 H932 0.930 . S
C942 C940 1.419 . S
C942 C943 1.362 . S
C943 H933 0.930 . S
C943 C936 1.409 . S
C943 C942 1.362 . S
H944 C950 0.930 . S
H945 C953 0.930 . S
H946 C954 0.930 . S
H947 C955 0.930 . S
H948 C958 0.930 . S
H949 C959 0.930 . S
C950 H944 0.930 . S
C950 C951 1.355 . S
C950 C952 1.415 . S
C951 C950 1.355 . S
C951 C953 1.419 . S
C952 C950 1.415 . S
C952 C957 1.425 . S
C952 C959 1.409 . S
C953 H945 0.930 . S
C953 C951 1.419 . S
C953 C954 1.362 . S
C954 H946 0.930 . S
C954 C953 1.362 . S
C954 C957 1.409 . S
C955 H947 0.930 . S
C955 C956 1.355 . S
C955 C957 1.415 . S
C956 C955 1.355 . S
C956 C958 1.419 . S
C957 C952 1.425 . S
C957 C954 1.409 . S
C957 C955 1.415 . S
C958 H948 0.930 . S
C958 C956 1.419 . S
C958 C959 1.362 . S
C959 H949 0.930 . S
C959 C952 1.409 . S
C959 C958 1.362 . S
H960 C966 0.930 . S
H961 C969 0.930 . S
H962 C970 0.930 . S
H963 C971 0.930 . S
H964 C974 0.930 . S
H965 C975 0.930 . S
C966 H960 0.930 . S
C966 C967 1.355 . S
C966 C968 1.415 . S
C967 C966 1.355 . S
C967 C969 1.419 . S
C968 C966 1.415 . S
C968 C973 1.425 . S
C968 C975 1.409 . S
C969 H961 0.930 . S
C969 C967 1.419 . S
C969 C970 1.362 . S
C970 H962 0.930 . S
C970 C969 1.362 . S
C970 C973 1.409 . S
C971 H963 0.930 . S
C971 C972 1.355 . S
C971 C973 1.415 . S
C972 C971 1.355 . S
C972 C974 1.419 . S
C973 C968 1.425 . S
C973 C970 1.409 . S
C973 C971 1.415 . S
C974 H964 0.930 . S
C974 C972 1.419 . S
C974 C975 1.362 . S
C975 H965 0.930 . S
C975 C968 1.409 . S
C975 C974 1.362 . S
H976 C982 0.930 . S
H977 C985 0.927 1_655 S
H978 C986 0.930 . S
H979 C987 0.930 . S
H980 C990 0.927 1_455 S
H981 C991 0.930 . S
C982 H976 0.930 . S
C982 C983 1.355 1_545 S
C982 C984 1.415 . S
C983 C982 1.355 1_565 S
C983 C985 1.432 . S
C984 C982 1.415 . S
C984 C989 1.425 1_445 S
C984 C991 1.409 . S
C985 H977 0.927 1_455 S
C985 C983 1.432 . S
C985 C986 1.352 1_455 S
C986 H978 0.930 . S
C986 C985 1.352 1_655 S
C986 C989 1.409 . S
C987 H979 0.930 . S
C987 C988 1.355 1_565 S
C987 C989 1.415 . S
C988 C987 1.355 1_545 S
C988 C990 1.432 . S
C989 C984 1.425 1_665 S
C989 C986 1.409 . S
C989 C987 1.415 . S
C990 H980 0.927 1_655 S
C990 C988 1.432 . S
C990 C991 1.352 1_655 S
C991 H981 0.930 . S
C991 C984 1.409 . S
C991 C990 1.352 1_455 S
H992 C998 0.930 . S
H993 C1001 0.930 . S
H994 C1002 0.930 . S
H995 C1003 0.930 . S
H996 C1006 0.930 . S
H997 C1007 0.930 . S
C998 H992 0.930 . S
C998 C999 1.355 . S
C998 C1000 1.415 . S
C999 C998 1.355 . S
C999 C1001 1.419 . S
C1000 C998 1.415 . S
C1000 C1005 1.425 . S
C1000 C1007 1.409 . S
C1001 H993 0.930 . S
C1001 C999 1.419 . S
C1001 C1002 1.362 . S
C1002 H994 0.930 . S
C1002 C1001 1.362 . S
C1002 C1005 1.409 . S
C1003 H995 0.930 . S
C1003 C1004 1.355 . S
C1003 C1005 1.415 . S
C1004 C1003 1.355 . S
C1004 C1006 1.419 . S
C1005 C1000 1.425 . S
C1005 C1002 1.409 . S
C1005 C1003 1.415 . S
C1006 H996 0.930 . S
C1006 C1004 1.419 . S
C1006 C1007 1.362 . S
C1007 H997 0.930 . S
C1007 C1000 1.409 . S
C1007 C1006 1.362 . S
H1008 C1014 0.930 . S
H1009 C1017 0.930 . S
H1010 C1018 0.919 1_566 S
H1011 C1019 0.930 . S
H1012 C1022 0.930 . S
H1013 C1023 0.919 1_544 S
C1014 H1008 0.930 . S
C1014 C1015 1.355 . S
C1014 C1016 1.415 . S
C1015 C1014 1.355 . S
C1015 C1017 1.419 . S
C1016 C1014 1.415 . S
C1016 C1021 1.425 1_544 S
C1016 C1023 1.404 1_544 S
C1017 H1009 0.930 . S
C1017 C1015 1.419 . S
C1017 C1018 1.376 . S
C1018 H1010 0.919 1_544 S
C1018 C1017 1.376 . S
C1018 C1021 1.404 1_544 S
C1019 H1011 0.930 . S
C1019 C1020 1.355 . S
C1019 C1021 1.415 . S
C1020 C1019 1.355 . S
C1020 C1022 1.419 . S
C1021 C1016 1.425 1_566 S
C1021 C1018 1.404 1_566 S
C1021 C1019 1.415 . S
C1022 H1012 0.930 . S
C1022 C1020 1.419 . S
C1022 C1023 1.376 . S
C1023 H1013 0.919 1_566 S
C1023 C1016 1.404 1_566 S
C1023 C1022 1.376 . S
H1024 C1030 0.930 . S
H1025 C1033 0.930 . S
H1026 C1034 0.930 . S
H1027 C1035 0.930 . S
H1028 C1038 0.930 . S
H1029 C1039 0.930 . S
C1030 H1024 0.930 . S
C1030 C1031 1.355 . S
C1030 C1032 1.415 . S
C1031 C1030 1.355 . S
C1031 C1033 1.419 . S
C1032 C1030 1.415 . S
C1032 C1037 1.425 . S
C1032 C1039 1.409 . S
C1033 H1025 0.930 . S
C1033 C1031 1.419 . S
C1033 C1034 1.362 . S
C1034 H1026 0.930 . S
C1034 C1033 1.362 . S
C1034 C1037 1.409 . S
C1035 H1027 0.930 . S
C1035 C1036 1.355 . S
C1035 C1037 1.415 . S
C1036 C1035 1.355 . S
C1036 C1038 1.419 . S
C1037 C1032 1.425 . S
C1037 C1034 1.409 . S
C1037 C1035 1.415 . S
C1038 H1028 0.930 . S
C1038 C1036 1.419 . S
C1038 C1039 1.362 . S
C1039 H1029 0.930 . S
C1039 C1032 1.409 . S
C1039 C1038 1.362 . S
H1040 C1046 0.930 . S
H1041 C1049 0.930 . S
H1042 C1050 0.930 . S
H1043 C1051 0.930 . S
H1044 C1054 0.930 . S
H1045 C1055 0.930 . S
C1046 H1040 0.930 . S
C1046 C1047 1.355 . S
C1046 C1048 1.415 . S
C1047 C1046 1.355 . S
C1047 C1049 1.419 1_565 S
C1048 C1046 1.415 . S
C1048 C1053 1.425 1_565 S
C1048 C1055 1.409 . S
C1049 H1041 0.930 . S
C1049 C1047 1.419 1_545 S
C1049 C1050 1.362 . S
C1050 H1042 0.930 . S
C1050 C1049 1.362 . S
C1050 C1053 1.409 . S
C1051 H1043 0.930 . S
C1051 C1052 1.355 . S
C1051 C1053 1.415 . S
C1052 C1051 1.355 . S
C1052 C1054 1.419 1_545 S
C1053 C1048 1.425 1_545 S
C1053 C1050 1.409 . S
C1053 C1051 1.415 . S
C1054 H1044 0.930 . S
C1054 C1052 1.419 1_565 S
C1054 C1055 1.362 . S
C1055 H1045 0.930 . S
C1055 C1048 1.409 . S
C1055 C1054 1.362 . S
H1056 C1062 0.930 . S
H1057 C1065 0.930 . S
H1058 C1066 0.930 . S
H1059 C1067 0.930 . S
H1060 C1070 0.930 . S
H1061 C1071 0.930 . S
C1062 H1056 0.930 . S
C1062 C1063 1.355 . S
C1062 C1064 1.415 . S
C1063 C1062 1.355 . S
C1063 C1065 1.419 . S
C1064 C1062 1.415 . S
C1064 C1069 1.425 . S
C1064 C1071 1.409 . S
C1065 H1057 0.930 . S
C1065 C1063 1.419 . S
C1065 C1066 1.362 . S
C1066 H1058 0.930 . S
C1066 C1065 1.362 . S
C1066 C1069 1.409 . S
C1067 H1059 0.930 . S
C1067 C1068 1.355 . S
C1067 C1069 1.415 . S
C1068 C1067 1.355 . S
C1068 C1070 1.419 . S
C1069 C1064 1.425 . S
C1069 C1066 1.409 . S
C1069 C1067 1.415 . S
C1070 H1060 0.930 . S
C1070 C1068 1.419 . S
C1070 C1071 1.362 . S
C1071 H1061 0.930 . S
C1071 C1064 1.409 . S
C1071 C1070 1.362 . S
H1072 C1078 0.930 . S
H1073 C1081 0.930 . S
H1074 C1082 0.930 1_554 S
H1075 C1083 0.930 . S
H1076 C1086 0.930 . S
H1077 C1087 0.930 1_556 S
C1078 H1072 0.930 . S
C1078 C1079 1.355 1_655 S
C1078 C1080 1.415 . S
C1079 C1078 1.355 1_455 S
C1079 C1081 1.419 1_545 S
C1080 C1078 1.415 . S
C1080 C1085 1.425 1_646 S
C1080 C1087 1.409 1_556 S
C1081 H1073 0.930 . S
C1081 C1079 1.419 1_565 S
C1081 C1082 1.362 . S
C1082 H1074 0.930 1_556 S
C1082 C1081 1.362 . S
C1082 C1085 1.409 1_556 S
C1083 H1075 0.930 . S
C1083 C1084 1.355 1_455 S
C1083 C1085 1.415 . S
C1084 C1083 1.355 1_655 S
C1084 C1086 1.419 1_565 S
C1085 C1080 1.425 1_464 S
C1085 C1082 1.409 1_554 S
C1085 C1083 1.415 . S
C1086 H1076 0.930 . S
C1086 C1084 1.419 1_545 S
C1086 C1087 1.362 . S
C1087 H1077 0.930 1_554 S
C1087 C1080 1.409 1_554 S
C1087 C1086 1.362 . S
H1088 C1094 0.930 . S
H1089 C1097 0.930 . S
H1090 C1098 0.930 . S
H1091 C1099 0.930 . S
H1092 C1102 0.930 . S
H1093 C1103 0.930 . S
C1094 H1088 0.930 . S
C1094 C1095 1.355 . S
C1094 C1096 1.415 . S
C1095 C1094 1.355 . S
C1095 C1097 1.419 . S
C1096 C1094 1.415 . S
C1096 C1101 1.425 . S
C1096 C1103 1.409 . S
C1097 H1089 0.930 . S
C1097 C1095 1.419 . S
C1097 C1098 1.362 . S
C1098 H1090 0.930 . S
C1098 C1097 1.362 . S
C1098 C1101 1.409 . S
C1099 H1091 0.930 . S
C1099 C1100 1.355 . S
C1099 C1101 1.415 . S
C1100 C1099 1.355 . S
C1100 C1102 1.419 . S
C1101 C1096 1.425 . S
C1101 C1098 1.409 . S
C1101 C1099 1.415 . S
C1102 H1092 0.930 . S
C1102 C1100 1.419 . S
C1102 C1103 1.362 . S
C1103 H1093 0.930 . S
C1103 C1096 1.409 . S
C1103 C1102 1.362 . S
H1104 C1110 0.930 . S
H1105 C1113 0.930 . S
H1106 C1114 0.930 . S
H1107 C1115 0.930 . S
H1108 C1118 0.930 . S
H1109 C1119 0.930 . S
C1110 H1104 0.930 . S
C1110 C1111 1.355 . S
C1110 C1112 1.415 . S
C1111 C1110 1.355 . S
C1111 C1113 1.419 . S
C1112 C1110 1.415 . S
C1112 C1117 1.425 . S
C1112 C1119 1.409 . S
C1113 H1105 0.930 . S
C1113 C1111 1.419 . S
C1113 C1114 1.362 . S
C1114 H1106 0.930 . S
C1114 C1113 1.362 . S
C1114 C1117 1.409 . S
C1115 H1107 0.930 . S
C1115 C1116 1.355 . S
C1115 C1117 1.415 . S
C1116 C1115 1.355 . S
C1116 C1118 1.419 . S
C1117 C1112 1.425 . S
C1117 C1114 1.409 . S
C1117 C1115 1.415 . S
C1118 H1108 0.930 . S
C1118 C1116 1.419 . S
C1118 C1119 1.362 . S
C1119 H1109 0.930 . S
C1119 C1112 1.409 . S
C1119 C1118 1.362 . S
H1120 C1126 0.930 . S
H1121 C1129 0.930 . S
H1122 C1130 0.930 . S
H1123 C1131 0.930 . S
H1124 C1134 0.930 . S
H1125 C1135 0.930 . S
C1126 H1120 0.930 . S
C1126 C1127 1.355 . S
C1126 C1128 1.415 . S
C1127 C1126 1.355 . S
C1127 C1129 1.419 . S
C1128 C1126 1.415 . S
C1128 C1133 1.425 . S
C1128 C1135 1.409 . S
C1129 H1121 0.930 . S
C1129 C1127 1.419 . S
C1129 C1130 1.362 . S
C1130 H1122 0.930 . S
C1130 C1129 1.362 . S
C1130 C1133 1.409 . S
C1131 H1123 0.930 . S
C1131 C1132 1.355 . S
C1131 C1133 1.415 . S
C1132 C1131 1.355 . S
C1132 C1134 1.419 . S
C1133 C1128 1.425 . S
C1133 C1130 1.409 . S
C1133 C1131 1.415 . S
C1134 H1124 0.930 . S
C1134 C1132 1.419 . S
C1134 C1135 1.362 . S
C1135 H1125 0.930 . S
C1135 C1128 1.409 . S
C1135 C1134 1.362 . S
H1136 C1142 0.930 . S
H1137 C1145 0.930 . S
H1138 C1146 0.930 . S
H1139 C1147 0.930 . S
H1140 C1150 0.930 . S
H1141 C1151 0.930 . S
C1142 H1136 0.930 . S
C1142 C1143 1.355 . S
C1142 C1144 1.415 . S
C1143 C1142 1.355 . S
C1143 C1145 1.419 . S
C1144 C1142 1.415 . S
C1144 C1149 1.425 . S
C1144 C1151 1.409 . S
C1145 H1137 0.930 . S
C1145 C1143 1.419 . S
C1145 C1146 1.362 . S
C1146 H1138 0.930 . S
C1146 C1145 1.362 . S
C1146 C1149 1.409 . S
C1147 H1139 0.930 . S
C1147 C1148 1.355 . S
C1147 C1149 1.415 . S
C1148 C1147 1.355 . S
C1148 C1150 1.419 . S
C1149 C1144 1.425 . S
C1149 C1146 1.409 . S
C1149 C1147 1.415 . S
C1150 H1140 0.930 . S
C1150 C1148 1.419 . S
C1150 C1151 1.362 . S
C1151 H1141 0.930 . S
C1151 C1144 1.409 . S
C1151 C1150 1.362 . S
H1152 C1158 0.930 . S
H1153 C1161 0.930 . S
H1154 C1162 0.930 . S
H1155 C1163 0.930 . S
H1156 C1166 0.930 . S
H1157 C1167 0.930 . S
C1158 H1152 0.930 . S
C1158 C1159 1.355 . S
C1158 C1160 1.381 1_554 S
C1159 C1158 1.355 . S
C1159 C1161 1.419 . S
C1160 C1158 1.381 1_556 S
C1160 C1165 1.422 1_556 S
C1160 C1167 1.445 . S
C1161 H1153 0.930 . S
C1161 C1159 1.419 . S
C1161 C1162 1.362 . S
C1162 H1154 0.930 . S
C1162 C1161 1.362 . S
C1162 C1165 1.445 . S
C1163 H1155 0.930 . S
C1163 C1164 1.355 . S
C1163 C1165 1.381 1_556 S
C1164 C1163 1.355 . S
C1164 C1166 1.419 . S
C1165 C1160 1.422 1_554 S
C1165 C1162 1.445 . S
C1165 C1163 1.381 1_554 S
C1166 H1156 0.930 . S
C1166 C1164 1.419 . S
C1166 C1167 1.362 . S
C1167 H1157 0.930 . S
C1167 C1160 1.445 . S
C1167 C1166 1.362 . S
H1168 C1174 0.930 . S
H1169 C1177 0.930 . S
H1170 C1178 0.930 . S
H1171 C1179 0.930 . S
H1172 C1182 0.930 . S
H1173 C1183 0.930 . S
C1174 H1168 0.930 . S
C1174 C1175 1.355 . S
C1174 C1176 1.415 . S
C1175 C1174 1.355 . S
C1175 C1177 1.419 1_455 S
C1176 C1174 1.415 . S
C1176 C1181 1.425 1_455 S
C1176 C1183 1.409 . S
C1177 H1169 0.930 . S
C1177 C1175 1.419 1_655 S
C1177 C1178 1.362 . S
C1178 H1170 0.930 . S
C1178 C1177 1.362 . S
C1178 C1181 1.409 . S
C1179 H1171 0.930 . S
C1179 C1180 1.355 . S
C1179 C1181 1.415 . S
C1180 C1179 1.355 . S
C1180 C1182 1.419 1_655 S
C1181 C1176 1.425 1_655 S
C1181 C1178 1.409 . S
C1181 C1179 1.415 . S
C1182 H1172 0.930 . S
C1182 C1180 1.419 1_455 S
C1182 C1183 1.362 . S
C1183 H1173 0.930 . S
C1183 C1176 1.409 . S
C1183 C1182 1.362 . S
H1184 C1190 0.930 . S
H1185 C1193 0.930 . S
H1186 C1194 0.930 1_655 S
H1187 C1195 0.930 . S
H1188 C1198 0.930 . S
H1189 C1199 0.930 1_455 S
C1190 H1184 0.930 . S
C1190 C1191 1.355 . S
C1190 C1192 1.415 . S
C1191 C1190 1.355 . S
C1191 C1193 1.419 . S
C1192 C1190 1.415 . S
C1192 C1197 1.425 1_454 S
C1192 C1199 1.409 1_454 S
C1193 H1185 0.930 . S
C1193 C1191 1.419 . S
C1193 C1194 1.362 . S
C1194 H1186 0.930 1_455 S
C1194 C1193 1.362 . S
C1194 C1197 1.409 1_454 S
C1195 H1187 0.930 . S
C1195 C1196 1.355 . S
C1195 C1197 1.415 . S
C1196 C1195 1.355 . S
C1196 C1198 1.419 . S
C1197 C1192 1.425 1_656 S
C1197 C1194 1.409 1_656 S
C1197 C1195 1.415 . S
C1198 H1188 0.930 . S
C1198 C1196 1.419 . S
C1198 C1199 1.362 . S
C1199 H1189 0.930 1_655 S
C1199 C1192 1.409 1_656 S
C1199 C1198 1.362 . S
H1200 C1206 0.930 . S
H1201 C1209 0.930 . S
H1202 C1210 0.930 . S
H1203 C1211 0.930 . S
H1204 C1214 0.930 . S
H1205 C1215 0.930 . S
C1206 H1200 0.930 . S
C1206 C1207 1.355 . S
C1206 C1208 1.415 . S
C1207 C1206 1.355 . S
C1207 C1209 1.419 . S
C1208 C1206 1.415 . S
C1208 C1213 1.425 . S
C1208 C1215 1.409 . S
C1209 H1201 0.930 . S
C1209 C1207 1.419 . S
C1209 C1210 1.362 . S
C1210 H1202 0.930 . S
C1210 C1209 1.362 . S
C1210 C1213 1.409 . S
C1211 H1203 0.930 . S
C1211 C1212 1.355 . S
C1211 C1213 1.415 . S
C1212 C1211 1.355 . S
C1212 C1214 1.419 . S
C1213 C1208 1.425 . S
C1213 C1210 1.409 . S
C1213 C1211 1.415 . S
C1214 H1204 0.930 . S
C1214 C1212 1.419 . S
C1214 C1215 1.362 . S
C1215 H1205 0.930 . S
C1215 C1208 1.409 . S
C1215 C1214 1.362 . S
H1216 C1222 0.930 . S
H1217 C1225 0.930 . S
H1218 C1226 0.930 . S
H1219 C1227 0.930 . S
H1220 C1230 0.930 . S
H1221 C1231 0.930 . S
C1222 H1216 0.930 . S
C1222 C1223 1.355 . S
C1222 C1224 1.415 . S
C1223 C1222 1.355 . S
C1223 C1225 1.419 . S
C1224 C1222 1.415 . S
C1224 C1229 1.425 . S
C1224 C1231 1.409 . S
C1225 H1217 0.930 . S
C1225 C1223 1.419 . S
C1225 C1226 1.362 . S
C1226 H1218 0.930 . S
C1226 C1225 1.362 . S
C1226 C1229 1.409 . S
C1227 H1219 0.930 . S
C1227 C1228 1.355 . S
C1227 C1229 1.415 . S
C1228 C1227 1.355 . S
C1228 C1230 1.419 . S
C1229 C1224 1.425 . S
C1229 C1226 1.409 . S
C1229 C1227 1.415 . S
C1230 H1220 0.930 . S
C1230 C1228 1.419 . S
C1230 C1231 1.362 . S
C1231 H1221 0.930 . S
C1231 C1224 1.409 . S
C1231 C1230 1.362 . S
H1232 C1238 0.930 . S
H1233 C1241 0.943 . S
H1234 C1242 0.930 . S
H1235 C1243 0.930 . S
H1236 C1246 0.930 . S
H1237 C1247 0.930 . S
C1238 H1232 0.930 . S
C1238 C1239 1.355 . S
C1238 C1240 1.415 . S
C1239 C1238 1.355 . S
C1239 C1241 1.419 . S
C1240 C1238 1.415 . S
C1240 C1245 1.425 . S
C1240 C1247 1.409 . S
C1241 H1233 0.943 . S
C1241 C1239 1.419 . S
C1241 C1242 1.362 . S
C1242 H1234 0.930 . S
C1242 C1241 1.362 . S
C1242 C1245 1.409 . S
C1243 H1235 0.930 . S
C1243 C1244 1.355 . S
C1243 C1245 1.415 . S
C1244 C1243 1.355 . S
C1244 C1246 1.419 . S
C1245 C1240 1.425 . S
C1245 C1242 1.409 . S
C1245 C1243 1.415 . S
C1246 H1236 0.930 . S
C1246 C1244 1.419 . S
C1246 C1247 1.362 . S
C1247 H1237 0.930 . S
C1247 C1240 1.409 . S
C1247 C1246 1.362 . S
H1248 C1254 0.930 . S
H1249 C1257 0.930 . S
H1250 C1258 0.930 . S
H1251 C1259 0.930 . S
H1252 C1262 0.930 . S
H1253 C1263 0.930 . S
C1254 H1248 0.930 . S
C1254 C1255 1.355 . S
C1254 C1256 1.415 . S
C1255 C1254 1.355 . S
C1255 C1257 1.419 . S
C1256 C1254 1.415 . S
C1256 C1261 1.425 . S
C1256 C1263 1.409 . S
C1257 H1249 0.930 . S
C1257 C1255 1.419 . S
C1257 C1258 1.362 . S
C1258 H1250 0.930 . S
C1258 C1257 1.362 . S
C1258 C1261 1.409 . S
C1259 H1251 0.930 . S
C1259 C1260 1.355 . S
C1259 C1261 1.415 . S
C1260 C1259 1.355 . S
C1260 C1262 1.419 . S
C1261 C1256 1.425 . S
C1261 C1258 1.409 . S
C1261 C1259 1.415 . S
C1262 H1252 0.930 . S
C1262 C1260 1.419 . S
C1262 C1263 1.362 . S
C1263 H1253 0.930 . S
C1263 C1256 1.409 . S
C1263 C1262 1.362 . S
H1264 C1270 0.930 . S
H1265 C1273 0.930 . S
H1266 C1274 0.930 . S
H1267 C1275 0.930 . S
H1268 C1278 0.930 . S
H1269 C1279 0.930 . S
C1270 H1264 0.930 . S
C1270 C1271 1.355 . S
C1270 C1272 1.415 . S
C1271 C1270 1.355 . S
C1271 C1273 1.419 . S
C1272 C1270 1.415 . S
C1272 C1277 1.425 . S
C1272 C1279 1.409 . S
C1273 H1265 0.930 . S
C1273 C1271 1.419 . S
C1273 C1274 1.362 . S
C1274 H1266 0.930 . S
C1274 C1273 1.362 . S
C1274 C1277 1.409 . S
C1275 H1267 0.930 . S
C1275 C1276 1.355 . S
C1275 C1277 1.415 . S
C1276 C1275 1.355 . S
C1276 C1278 1.419 . S
C1277 C1272 1.425 . S
C1277 C1274 1.409 . S
C1277 C1275 1.415 . S
C1278 H1268 0.930 . S
C1278 C1276 1.419 . S
C1278 C1279 1.362 . S
C1279 H1269 0.930 . S
C1279 C1272 1.409 . S
C1279 C1278 1.362 . S
H1280 C1286 0.930 . S
H1281 C1289 0.930 . S
H1282 C1290 0.930 . S
H1283 C1291 0.930 . S
H1284 C1294 0.930 . S
H1285 C1295 0.930 . S
C1286 H1280 0.930 . S
C1286 C1287 1.355 . S
C1286 C1288 1.415 . S
C1287 C1286 1.355 . S
C1287 C1289 1.419 . S
C1288 C1286 1.415 . S
C1288 C1293 1.425 . S
C1288 C1295 1.409 . S
C1289 H1281 0.930 . S
C1289 C1287 1.419 . S
C1289 C1290 1.362 . S
C1290 H1282 0.930 . S
C1290 C1289 1.362 . S
C1290 C1293 1.409 . S
C1291 H1283 0.930 . S
C1291 C1292 1.355 . S
C1291 C1293 1.415 . S
C1292 C1291 1.355 . S
C1292 C1294 1.419 . S
C1293 C1288 1.425 . S
C1293 C1290 1.409 . S
C1293 C1291 1.415 . S
C1294 H1284 0.930 . S
C1294 C1292 1.419 . S
C1294 C1295 1.362 . S
C1295 H1285 0.930 . S
C1295 C1288 1.409 . S
C1295 C1294 1.362 . S
H1296 C1302 0.930 . S
H1297 C1305 0.930 . S
H1298 C1306 0.930 . S
H1299 C1307 0.930 . S
H1300 C1310 0.930 . S
H1301 C1311 0.930 . S
C1302 H1296 0.930 . S
C1302 C1303 1.355 . S
C1302 C1304 1.415 . S
C1303 C1302 1.355 . S
C1303 C1305 1.419 . S
C1304 C1302 1.415 . S
C1304 C1309 1.425 . S
C1304 C1311 1.409 . S
C1305 H1297 0.930 . S
C1305 C1303 1.419 . S
C1305 C1306 1.362 . S
C1306 H1298 0.930 . S
C1306 C1305 1.362 . S
C1306 C1309 1.409 . S
C1307 H1299 0.930 . S
C1307 C1308 1.355 . S
C1307 C1309 1.415 . S
C1308 C1307 1.355 . S
C1308 C1310 1.419 . S
C1309 C1304 1.425 . S
C1309 C1306 1.409 . S
C1309 C1307 1.415 . S
C1310 H1300 0.930 . S
C1310 C1308 1.419 . S
C1310 C1311 1.362 . S
C1311 H1301 0.930 . S
C1311 C1304 1.409 . S
C1311 C1310 1.362 . S
H1312 C1318 0.930 . S
H1313 C1321 0.930 . S
H1314 C1322 0.930 . S
H1315 C1323 0.930 . S
H1316 C1326 0.930 . S
H1317 C1327 0.930 . S
C1318 H1312 0.930 . S
C1318 C1319 1.355 . S
C1318 C1320 1.415 . S
C1319 C1318 1.355 . S
C1319 C1321 1.419 . S
C1320 C1318 1.415 . S
C1320 C1325 1.425 . S
C1320 C1327 1.409 . S
C1321 H1313 0.930 . S
C1321 C1319 1.419 . S
C1321 C1322 1.362 . S
C1322 H1314 0.930 . S
C1322 C1321 1.362 . S
C1322 C1325 1.409 . S
C1323 H1315 0.930 . S
C1323 C1324 1.355 . S
C1323 C1325 1.415 . S
C1324 C1323 1.355 . S
C1324 C1326 1.419 . S
C1325 C1320 1.425 . S
C1325 C1322 1.409 . S
C1325 C1323 1.415 . S
C1326 H1316 0.930 . S
C1326 C1324 1.419 . S
C1326 C1327 1.362 . S
C1327 H1317 0.930 . S
C1327 C1320 1.409 . S
C1327 C1326 1.362 . S
H1328 C1334 0.930 . S
H1329 C1337 0.930 . S
H1330 C1338 0.930 . S
H1331 C1339 0.930 . S
H1332 C1342 0.930 . S
H1333 C1343 0.930 . S
C1334 H1328 0.930 . S
C1334 C1335 1.355 . S
C1334 C1336 1.415 . S
C1335 C1334 1.355 . S
C1335 C1337 1.419 . S
C1336 C1334 1.415 . S
C1336 C1341 1.425 . S
C1336 C1343 1.409 . S
C1337 H1329 0.930 . S
C1337 C1335 1.419 . S
C1337 C1338 1.362 . S
C1338 H1330 0.930 . S
C1338 C1337 1.362 . S
C1338 C1341 1.409 . S
C1339 H1331 0.930 . S
C1339 C1340 1.355 . S
C1339 C1341 1.415 . S
C1340 C1339 1.355 . S
C1340 C1342 1.419 . S
C1341 C1336 1.425 . S
C1341 C1338 1.409 . S
C1341 C1339 1.415 . S
C1342 H1332 0.930 . S
C1342 C1340 1.419 . S
C1342 C1343 1.362 . S
C1343 H1333 0.930 . S
C1343 C1336 1.409 . S
C1343 C1342 1.362 . S
H1344 C1350 0.930 . S
H1345 C1353 0.930 . S
H1346 C1354 0.930 . S
H1347 C1355 0.930 . S
H1348 C1358 0.930 . S
H1349 C1359 0.930 . S
C1350 H1344 0.930 . S
C1350 C1351 1.355 . S
C1350 C1352 1.415 . S
C1351 C1350 1.355 . S
C1351 C1353 1.419 . S
C1352 C1350 1.415 . S
C1352 C1357 1.425 . S
C1352 C1359 1.409 . S
C1353 H1345 0.930 . S
C1353 C1351 1.419 . S
C1353 C1354 1.362 . S
C1354 H1346 0.930 . S
C1354 C1353 1.362 . S
C1354 C1357 1.409 . S
C1355 H1347 0.930 . S
C1355 C1356 1.355 . S
C1355 C1357 1.415 . S
C1356 C1355 1.355 . S
C1356 C1358 1.419 . S
C1357 C1352 1.425 . S
C1357 C1354 1.409 . S
C1357 C1355 1.415 . S
C1358 H1348 0.930 . S
C1358 C1356 1.419 . S
C1358 C1359 1.362 . S
C1359 H1349 0.930 . S
C1359 C1352 1.409 . S
C1359 C1358 1.362 . S
H1360 C1366 0.930 . S
H1361 C1369 0.930 . S
H1362 C1370 0.930 . S
H1363 C1371 0.930 . S
H1364 C1374 0.930 . S
H1365 C1375 0.930 . S
C1366 H1360 0.930 . S
C1366 C1367 1.355 . S
C1366 C1368 1.415 . S
C1367 C1366 1.355 . S
C1367 C1369 1.419 . S
C1368 C1366 1.415 . S
C1368 C1373 1.425 . S
C1368 C1375 1.409 . S
C1369 H1361 0.930 . S
C1369 C1367 1.419 . S
C1369 C1370 1.362 . S
C1370 H1362 0.930 . S
C1370 C1369 1.362 . S
C1370 C1373 1.409 . S
C1371 H1363 0.930 . S
C1371 C1372 1.355 . S
C1371 C1373 1.415 . S
C1372 C1371 1.355 . S
C1372 C1374 1.419 . S
C1373 C1368 1.425 . S
C1373 C1370 1.409 . S
C1373 C1371 1.415 . S
C1374 H1364 0.930 . S
C1374 C1372 1.419 . S
C1374 C1375 1.362 . S
C1375 H1365 0.930 . S
C1375 C1368 1.409 . S
C1375 C1374 1.362 . S
H1376 C1382 0.930 . S
H1377 C1385 0.930 . S
H1378 C1386 0.930 . S
H1379 C1387 0.930 . S
H1380 C1390 0.930 . S
H1381 C1391 0.930 . S
C1382 H1376 0.930 . S
C1382 C1383 1.355 . S
C1382 C1384 1.415 . S
C1383 C1382 1.355 . S
C1383 C1385 1.419 . S
C1384 C1382 1.415 . S
C1384 C1389 1.425 . S
C1384 C1391 1.409 . S
C1385 H1377 0.930 . S
C1385 C1383 1.419 . S
C1385 C1386 1.362 . S
C1386 H1378 0.930 . S
C1386 C1385 1.362 . S
C1386 C1389 1.409 . S
C1387 H1379 0.930 . S
C1387 C1388 1.355 . S
C1387 C1389 1.415 . S
C1388 C1387 1.355 . S
C1388 C1390 1.419 . S
C1389 C1384 1.425 . S
C1389 C1386 1.409 . S
C1389 C1387 1.415 . S
C1390 H1380 0.930 . S
C1390 C1388 1.419 . S
C1390 C1391 1.362 . S
C1391 H1381 0.930 . S
C1391 C1384 1.409 . S
C1391 C1390 1.362 . S
H1392 C1398 0.930 . S
H1393 C1401 0.930 . S
H1394 C1402 0.930 . S
H1395 C1403 0.930 . S
H1396 C1406 0.930 . S
H1397 C1407 0.930 . S
C1398 H1392 0.930 . S
C1398 C1399 1.355 . S
C1398 C1400 1.415 . S
C1399 C1398 1.355 . S
C1399 C1401 1.419 . S
C1400 C1398 1.415 . S
C1400 C1405 1.425 . S
C1400 C1407 1.409 . S
C1401 H1393 0.930 . S
C1401 C1399 1.419 . S
C1401 C1402 1.362 . S
C1402 H1394 0.930 . S
C1402 C1401 1.362 . S
C1402 C1405 1.409 . S
C1403 H1395 0.930 . S
C1403 C1404 1.355 . S
C1403 C1405 1.415 . S
C1404 C1403 1.355 . S
C1404 C1406 1.419 . S
C1405 C1400 1.425 . S
C1405 C1402 1.409 . S
C1405 C1403 1.415 . S
C1406 H1396 0.930 . S
C1406 C1404 1.419 . S
C1406 C1407 1.362 . S
C1407 H1397 0.930 . S
C1407 C1400 1.409 . S
C1407 C1406 1.362 . S
H1408 C1414 0.930 . S
H1409 C1417 0.930 . S
H1410 C1418 0.930 . S
H1411 C1419 0.930 . S
H1412 C1422 0.930 . S
H1413 C1423 0.930 . S
C1414 H1408 0.930 . S
C1414 C1415 1.355 . S
C1414 C1416 1.415 . S
C1415 C1414 1.355 . S
C1415 C1417 1.419 . S
C1416 C1414 1.415 . S
C1416 C1421 1.425 . S
C1416 C1423 1.409 . S
C1417 H1409 0.930 . S
C1417 C1415 1.419 . S
C1417 C1418 1.362 . S
C1418 H1410 0.930 . S
C1418 C1417 1.362 . S
C1418 C1421 1.409 . S
C1419 H1411 0.930 . S
C1419 C1420 1.355 . S
C1419 C1421 1.415 . S
C1420 C1419 1.355 . S
C1420 C1422 1.419 . S
C1421 C1416 1.425 . S
C1421 C1418 1.409 . S
C1421 C1419 1.415 . S
C1422 H1412 0.930 . S
C1422 C1420 1.419 . S
C1422 C1423 1.362 . S
C1423 H1413 0.930 . S
C1423 C1416 1.409 . S
C1423 C1422 1.362 . S
H1424 C1430 0.930 . S
H1425 C1433 0.930 . S
H1426 C1434 0.930 . S
H1427 C1435 0.930 . S
H1428 C1438 0.930 . S
H1429 C1439 0.930 . S
C1430 H1424 0.930 . S
C1430 C1431 1.355 . S
C1430 C1432 1.415 . S
C1431 C1430 1.355 . S
C1431 C1433 1.419 . S
C1432 C1430 1.415 . S
C1432 C1437 1.425 . S
C1432 C1439 1.409 . S
C1433 H1425 0.930 . S
C1433 C1431 1.419 . S
C1433 C1434 1.362 . S
C1434 H1426 0.930 . S
C1434 C1433 1.362 . S
C1434 C1437 1.409 . S
C1435 H1427 0.930 . S
C1435 C1436 1.355 . S
C1435 C1437 1.415 . S
C1436 C1435 1.355 . S
C1436 C1438 1.419 . S
C1437 C1432 1.425 . S
C1437 C1434 1.409 . S
C1437 C1435 1.415 . S
C1438 H1428 0.930 . S
C1438 C1436 1.419 . S
C1438 C1439 1.362 . S
C1439 H1429 0.930 . S
C1439 C1432 1.409 . S
C1439 C1438 1.362 . S
H1440 C1446 0.930 . S
H1441 C1449 0.930 . S
H1442 C1450 0.930 . S
H1443 C1451 0.930 . S
H1444 C1454 0.930 . S
H1445 C1455 0.930 . S
C1446 H1440 0.930 . S
C1446 C1447 1.355 . S
C1446 C1448 1.415 . S
C1447 C1446 1.355 . S
C1447 C1449 1.419 . S
C1448 C1446 1.415 . S
C1448 C1453 1.425 . S
C1448 C1455 1.409 . S
C1449 H1441 0.930 . S
C1449 C1447 1.419 . S
C1449 C1450 1.362 . S
C1450 H1442 0.930 . S
C1450 C1449 1.362 . S
C1450 C1453 1.409 . S
C1451 H1443 0.930 . S
C1451 C1452 1.355 . S
C1451 C1453 1.415 . S
C1452 C1451 1.355 . S
C1452 C1454 1.419 . S
C1453 C1448 1.425 . S
C1453 C1450 1.409 . S
C1453 C1451 1.415 . S
C1454 H1444 0.930 . S
C1454 C1452 1.419 . S
C1454 C1455 1.362 . S
C1455 H1445 0.930 . S
C1455 C1448 1.409 . S
C1455 C1454 1.362 . S
H1456 C1462 0.930 . S
H1457 C1465 0.930 . S
H1458 C1466 0.930 . S
H1459 C1467 0.930 . S
H1460 C1470 0.930 . S
H1461 C1471 0.930 . S
C1462 H1456 0.930 . S
C1462 C1463 1.355 . S
C1462 C1464 1.415 . S
C1463 C1462 1.355 . S
C1463 C1465 1.419 . S
C1464 C1462 1.415 . S
C1464 C1469 1.425 . S
C1464 C1471 1.409 . S
C1465 H1457 0.930 . S
C1465 C1463 1.419 . S
C1465 C1466 1.362 . S
C1466 H1458 0.930 . S
C1466 C1465 1.362 . S
C1466 C1469 1.409 . S
C1467 H1459 0.930 . S
C1467 C1468 1.355 . S
C1467 C1469 1.415 . S
C1468 C1467 1.355 . S
C1468 C1470 1.419 . S
C1469 C1464 1.425 . S
C1469 C1466 1.409 . S
C1469 C1467 1.415 . S
C1470 H1460 0.930 . S
C1470 C1468 1.419 . S
C1470 C1471 1.362 . S
C1471 H1461 0.930 . S
C1471 C1464 1.409 . S
C1471 C1470 1.362 . S
C455 C385 1.295 . S
C460 C9 1.339 . S
C471 C23 1.296 . S
C476 C119 1.354 . S
C487 C357 1.342 . S
C492 C37 1.279 . S
C503 C51 1.347 . S
C508 C147 1.329 . S
C519 C65 1.279 . S
C524 C413 1.319 . S
C535 C79 1.341 . S
C540 C203 1.297 . S
C551 C93 1.347 . S
C556 C441 1.328 . S
C567 C107 1.287 . S
C572 C175 1.307 . S
C583 C273 1.354 . S
C588 C121 1.297 . S
C599 C7 1.344 . S
C604 C135 1.335 . S
C615 C245 1.291 . S
C620 C149 1.327 . S
C631 C163 1.326 . S
C636 C35 1.291 . S
C647 C301 1.305 . S
C652 C177 1.288 . S
C663 C91 1.306 . S
C668 C191 1.287 . S
C679 C205 1.319 . S
C684 C329 1.291 . S
C695 C63 1.291 . S
C700 C219 1.321 . S
C711 C233 1.301 . S
C716 C161 1.296 . S
C727 C247 1.335 . S
C732 C343 1.344 . S
C743 C133 1.304 . S
C748 C261 1.347 . S
C759 C371 1.304 . S
C764 C275 1.347 . S
C775 C189 1.298 . S
C780 C289 1.297 . S
C791 C427 1.347 . S
C796 C303 1.283 . S
C807 C217 1.338 . S
C812 C317 1.278 . S
C823 C331 1.306 . S
C828 C399 1.294 . S
C839 C49 1.291 . S
C844 C345 1.325 . S
C855 C359 1.349 . S
C860 C231 1.309 . S
C871 C373 1.279 . S
C876 C21 1.341 . S
C887 C387 1.348 . S
C892 C259 1.325 . S
C903 C401 1.344 . S
C908 C77 1.300 . S
C919 C415 1.276 . S
C924 C315 1.328 . S
C935 C429 1.280 . S
C940 C105 1.344 . S
C951 C443 1.297 . S
C956 C287 1.299 . S
C967 C339 1.512 . S
C972 C3 1.512 . S
C983 C17 1.506 . S
C988 C129 1.506 . S
C999 C367 1.506 . S
C1004 C31 1.506 . S
C1015 C45 1.520 . S
C1020 C157 1.520 . S
C1031 C395 1.511 . S
C1036 C59 1.511 . S
C1047 C73 1.518 . S
C1052 C185 1.518 . S
C1063 C423 1.510 . S
C1068 C87 1.510 . S
C1079 C101 1.521 . S
C1084 C213 1.521 . S
C1095 C115 1.515 . S
C1100 C227 1.515 . S
C1111 C143 1.520 . S
C1116 C255 1.520 . S
C1127 C171 1.505 . S
C1132 C283 1.505 . S
C1143 C199 1.511 . S
C1148 C311 1.511 . S
C1159 C241 1.508 . S
C1164 C353 1.508 . S
C1175 C381 1.508 . S
C1180 C269 1.508 . S
C1191 C409 1.512 . S
C1196 C297 1.512 . S
C1207 C325 1.507 . S
C1212 C437 1.507 . S
C1223 C8 1.471 . S
C1228 C78 1.469 . S
C1239 C22 1.467 . S
C1244 C92 1.470 . S
C1255 C36 1.465 . S
C1260 C106 1.466 . S
C1271 C64 1.472 . S
C1276 C50 1.469 . S
C1287 C120 1.473 . S
C1292 C190 1.473 . S
C1303 C134 1.470 . S
C1308 C204 1.467 . S
C1319 C148 1.471 . S
C1324 C218 1.473 . S
C1335 C162 1.466 . S
C1340 C176 1.468 . S
C1351 C232 1.468 . S
C1356 C302 1.466 . S
C1367 C316 1.466 . S
C1372 C246 1.469 . S
C1383 C260 1.470 . S
C1388 C330 1.472 . S
C1399 C274 1.470 . S
C1404 C288 1.468 . S
C1415 C414 1.471 . S
C1420 C344 1.468 . S
C1431 C358 1.468 . S
C1436 C428 1.466 . S
C1447 C442 1.465 . S
C1452 C372 1.465 . S
C1463 C386 1.467 . S
C1468 C400 1.465 . S
