# Generated by pormake.
# Topology upc, (4)-cn, num edge types: 1
# Building blocks:
#     Node 0, Type 0, BuildingBlock: QUQFOY_clean_sbu_1, # of connection points: 4
#     Node 1, Type 0, BuildingBlock: QUQFOY_clean_sbu_1, # of connection points: 4
#     Node 2, Type 0, BuildingBlock: QUQFOY_clean_sbu_1, # of connection points: 4
#     Node 3, Type 0, BuildingBlock: QUQFOY_clean_sbu_1, # of connection points: 4
#     Node 4, Type 0, BuildingBlock: QUQFOY_clean_sbu_1, # of connection points: 4
#     Node 5, Type 0, BuildingBlock: QUQFOY_clean_sbu_1, # of connection points: 4
#     Node 6, Type 0, BuildingBlock: QUQFOY_clean_sbu_1, # of connection points: 4
#     Node 7, Type 0, BuildingBlock: QUQFOY_clean_sbu_1, # of connection points: 4
#     Node 8, Type 0, BuildingBlock: QUQFOY_clean_sbu_1, # of connection points: 4
#     Node 9, Type 0, BuildingBlock: QUQFOY_clean_sbu_1, # of connection points: 4
#     Node 10, Type 0, BuildingBlock: QUQFOY_clean_sbu_1, # of connection points: 4
#     Node 11, Type 0, BuildingBlock: QUQFOY_clean_sbu_1, # of connection points: 4
#     Node 12, Type 0, BuildingBlock: QUQFOY_clean_sbu_1, # of connection points: 4
#     Node 13, Type 0, BuildingBlock: QUQFOY_clean_sbu_1, # of connection points: 4
#     Node 14, Type 0, BuildingBlock: QUQFOY_clean_sbu_1, # of connection points: 4
#     Node 15, Type 0, BuildingBlock: QUQFOY_clean_sbu_1, # of connection points: 4
#     Edge 16, Type (0, 0), BuildingBlock: MIFKUJ_clean_linker_0, # of connection points: 2
#     Edge 17, Type (0, 0), BuildingBlock: MIFKUJ_clean_linker_0, # of connection points: 2
#     Edge 18, Type (0, 0), BuildingBlock: MIFKUJ_clean_linker_0, # of connection points: 2
#     Edge 19, Type (0, 0), BuildingBlock: MIFKUJ_clean_linker_0, # of connection points: 2
#     Edge 20, Type (0, 0), BuildingBlock: MIFKUJ_clean_linker_0, # of connection points: 2
#     Edge 21, Type (0, 0), BuildingBlock: MIFKUJ_clean_linker_0, # of connection points: 2
#     Edge 22, Type (0, 0), BuildingBlock: MIFKUJ_clean_linker_0, # of connection points: 2
#     Edge 23, Type (0, 0), BuildingBlock: MIFKUJ_clean_linker_0, # of connection points: 2
#     Edge 24, Type (0, 0), BuildingBlock: MIFKUJ_clean_linker_0, # of connection points: 2
#     Edge 25, Type (0, 0), BuildingBlock: MIFKUJ_clean_linker_0, # of connection points: 2
#     Edge 26, Type (0, 0), BuildingBlock: MIFKUJ_clean_linker_0, # of connection points: 2
#     Edge 27, Type (0, 0), BuildingBlock: MIFKUJ_clean_linker_0, # of connection points: 2
#     Edge 28, Type (0, 0), BuildingBlock: MIFKUJ_clean_linker_0, # of connection points: 2
#     Edge 29, Type (0, 0), BuildingBlock: MIFKUJ_clean_linker_0, # of connection points: 2
#     Edge 30, Type (0, 0), BuildingBlock: MIFKUJ_clean_linker_0, # of connection points: 2
#     Edge 31, Type (0, 0), BuildingBlock: MIFKUJ_clean_linker_0, # of connection points: 2
#     Edge 32, Type (0, 0), BuildingBlock: MIFKUJ_clean_linker_0, # of connection points: 2
#     Edge 33, Type (0, 0), BuildingBlock: MIFKUJ_clean_linker_0, # of connection points: 2
#     Edge 34, Type (0, 0), BuildingBlock: MIFKUJ_clean_linker_0, # of connection points: 2
#     Edge 35, Type (0, 0), BuildingBlock: MIFKUJ_clean_linker_0, # of connection points: 2
#     Edge 36, Type (0, 0), BuildingBlock: MIFKUJ_clean_linker_0, # of connection points: 2
#     Edge 37, Type (0, 0), BuildingBlock: MIFKUJ_clean_linker_0, # of connection points: 2
#     Edge 38, Type (0, 0), BuildingBlock: MIFKUJ_clean_linker_0, # of connection points: 2
#     Edge 39, Type (0, 0), BuildingBlock: MIFKUJ_clean_linker_0, # of connection points: 2
#     Edge 40, Type (0, 0), BuildingBlock: MIFKUJ_clean_linker_0, # of connection points: 2
#     Edge 41, Type (0, 0), BuildingBlock: MIFKUJ_clean_linker_0, # of connection points: 2
#     Edge 42, Type (0, 0), BuildingBlock: MIFKUJ_clean_linker_0, # of connection points: 2
#     Edge 43, Type (0, 0), BuildingBlock: MIFKUJ_clean_linker_0, # of connection points: 2
#     Edge 44, Type (0, 0), BuildingBlock: MIFKUJ_clean_linker_0, # of connection points: 2
#     Edge 45, Type (0, 0), BuildingBlock: MIFKUJ_clean_linker_0, # of connection points: 2
#     Edge 46, Type (0, 0), BuildingBlock: MIFKUJ_clean_linker_0, # of connection points: 2
#     Edge 47, Type (0, 0), BuildingBlock: MIFKUJ_clean_linker_0, # of connection points: 2
# Relax obj value: 0.094
# Max RMSD: 0.198
# Mean RMSD: 0.198
data_MOF--net-upc--node1-QUQFOY_clean_sbu_1--edge1-MIFKUJ_clean_linker_0
_symmetry_space_group_name_H-M    P1
_symmetry_Int_Tables_number       1
_symmetry_cell_setting            triclinic
loop_
_symmetry_equiv_pos_as_xyz
'x, y, z'
_cell_length_a     47.078994
_cell_length_b     47.0924
_cell_length_c     56.458645
_cell_angle_alpha  90.002154
_cell_angle_beta   90.021167
_cell_angle_gamma 89.967773
loop_
_atom_site_label
_atom_site_type_symbol
_atom_site_fract_x
_atom_site_fract_y
_atom_site_fract_z
_atom_type_partial_charge
O0 O 0.03234 0.55675 0.17691 0.0
Cd1 Cd 0.0264 0.58722 0.15146 0.0
Cd2 Cd 0.07386 0.61131 0.17601 0.0
O3 O 0.06924 0.57462 0.19594 0.0
O4 O 0.9999 0.56876 0.12883 0.0
O5 O 0.04367 0.58128 0.11921 0.0
C6 C 0.01993 0.56947 0.1133 0.0
C7 C 0.11975 0.63 0.17177 0.0
C8 C 0.05068 0.55524 0.19336 0.0
C9 C 0.01749 0.64396 0.17318 0.0
O10 O 0.04337 0.64246 0.17943 0.0
O11 O 0.0059 0.62387 0.16174 0.0
O12 O 0.10636 0.63096 0.1916 0.0
O13 O 0.10752 0.61741 0.15421 0.0
O14 O 0.93172 0.05936 0.14261 0.0
Cd15 Cd 0.89718 0.05331 0.12115 0.0
Cd16 Cd 0.88009 0.10183 0.14607 0.0
O17 O 0.92033 0.09917 0.16096 0.0
O18 O 0.9112 0.02267 0.10008 0.0
O19 O 0.90065 0.06567 0.08709 0.0
C20 C 0.91057 0.04059 0.0829 0.0
C21 C 0.85922 0.14565 0.13699 0.0
C22 C 0.93768 0.07896 0.15721 0.0
C23 C 0.84663 0.04701 0.15199 0.0
O24 O 0.85085 0.07269 0.15787 0.0
O25 O 0.86227 0.03494 0.13671 0.0
O26 O 0.86407 0.13798 0.15851 0.0
O27 O 0.86779 0.12902 0.12025 0.0
O28 O 0.4561 0.88202 0.14794 0.0
Cd29 Cd 0.46492 0.86805 0.11375 0.0
Cd30 Cd 0.41434 0.82442 0.14694 0.0
O31 O 0.4257 0.85667 0.17003 0.0
O32 O 0.48857 0.8972 0.09807 0.0
O33 O 0.44486 0.88608 0.0865 0.0
C34 C 0.46733 0.90163 0.08405 0.0
C35 C 0.37478 0.79596 0.15186 0.0
C36 C 0.44259 0.87767 0.16726 0.0
C37 C 0.4659 0.81302 0.12157 0.0
O38 O 0.44013 0.81987 0.11845 0.0
O39 O 0.48396 0.8288 0.11161 0.0
O40 O 0.39905 0.78871 0.16079 0.0
O41 O 0.37308 0.81978 0.1405 0.0
O42 O 0.57322 0.44745 0.14733 0.0
Cd43 Cd 0.60334 0.46484 0.12559 0.0
Cd44 Cd 0.63351 0.41473 0.14536 0.0
O45 O 0.59566 0.41141 0.16408 0.0
O46 O 0.58084 0.49694 0.11251 0.0
O47 O 0.59752 0.46237 0.09014 0.0
C48 C 0.58257 0.48525 0.092 0.0
C49 C 0.65891 0.37271 0.13747 0.0
C50 C 0.57367 0.42685 0.16179 0.0
C51 C 0.65758 0.47469 0.15218 0.0
O52 O 0.6598 0.44794 0.15429 0.0
O53 O 0.63642 0.48593 0.14187 0.0
O54 O 0.65578 0.38239 0.1586 0.0
O55 O 0.6467 0.38639 0.12048 0.0
O56 O 0.05204 0.92047 0.33678 0.0
Cd57 Cd 0.03586 0.89036 0.35927 0.0
Cd58 Cd 0.08586 0.86099 0.33799 0.0
O59 O 0.08902 0.89942 0.32025 0.0
O60 O 0.0046 0.91316 0.37337 0.0
O61 O 0.03981 0.89565 0.39469 0.0
C62 C 0.01706 0.9109 0.39355 0.0
C63 C 0.1279 0.83556 0.34564 0.0
C64 C 0.07281 0.92087 0.32247 0.0
C65 C 0.02573 0.83602 0.33284 0.0
O66 O 0.05236 0.83484 0.3293 0.0
O67 O 0.0147 0.85641 0.34436 0.0
O68 O 0.11828 0.839 0.32451 0.0
O69 O 0.11414 0.84749 0.36273 0.0
O70 O 0.61723 0.9952 0.356 0.0
Cd71 Cd 0.64688 0.00567 0.38087 0.0
Cd72 Cd 0.64177 0.05568 0.36139 0.0
O73 O 0.60311 0.03914 0.34959 0.0
O74 O 0.63963 0.98128 0.40886 0.0
O75 O 0.63259 0.02793 0.40823 0.0
C76 C 0.63005 0.0039 0.41911 0.0
C77 C 0.64825 0.10178 0.37576 0.0
C78 C 0.59976 0.01251 0.3468 0.0
C79 C 0.69474 0.02049 0.35203 0.0
O80 O 0.67818 0.04031 0.34537 0.0
O81 O 0.68793 0.00441 0.36915 0.0
O82 O 0.64198 0.09717 0.35386 0.0
O83 O 0.64874 0.08031 0.38998 0.0
O84 O 0.46481 0.58721 0.34228 0.0
Cd85 Cd 0.4699 0.62047 0.36523 0.0
Cd86 Cd 0.41559 0.63465 0.34495 0.0
O87 O 0.42089 0.59463 0.32999 0.0
O88 O 0.50143 0.60725 0.38585 0.0
O89 O 0.45755 0.61367 0.39883 0.0
C90 C 0.4832 0.60504 0.40276 0.0
C91 C 0.36938 0.65171 0.35139 0.0
C92 C 0.44329 0.5795 0.33037 0.0
C93 C 0.46728 0.67395 0.33802 0.0
O94 O 0.44167 0.66715 0.33386 0.0
O95 O 0.48305 0.6585 0.35093 0.0
O96 O 0.37926 0.6476 0.33044 0.0
O97 O 0.38526 0.6446 0.36908 0.0
O98 O 0.89041 0.43606 0.36947 0.0
Cd99 Cd 0.85404 0.44584 0.38749 0.0
Cd100 Cd 0.83825 0.39411 0.36564 0.0
O101 O 0.88022 0.39404 0.35442 0.0
O102 O 0.86761 0.47985 0.40481 0.0
O103 O 0.85557 0.44009 0.4229 0.0
C104 C 0.86636 0.46526 0.42403 0.0
C105 C 0.81678 0.35171 0.37774 0.0
C106 C 0.89759 0.41433 0.35765 0.0
C107 C 0.80716 0.44838 0.35198 0.0
O108 O 0.81143 0.42202 0.34861 0.0
O109 O 0.82103 0.46195 0.36762 0.0
O110 O 0.82429 0.35582 0.35609 0.0
O111 O 0.82214 0.37144 0.39298 0.0
O112 O 0.95913 0.44988 0.83842 0.0
Cd113 Cd 0.96341 0.41247 0.85659 0.0
Cd114 Cd 0.91144 0.40243 0.83411 0.0
O115 O 0.91646 0.44406 0.82284 0.0
O116 O 0.99338 0.42112 0.88025 0.0
O117 O 0.94895 0.41126 0.89005 0.0
C118 C 0.9742 0.41888 0.89642 0.0
C119 C 0.86662 0.38349 0.84298 0.0
C120 C 0.93853 0.45915 0.82613 0.0
C121 C 0.96279 0.36543 0.82203 0.0
O122 O 0.93716 0.37266 0.81844 0.0
O123 O 0.97778 0.37803 0.83749 0.0
O124 O 0.87348 0.39082 0.82177 0.0
O125 O 0.88466 0.38864 0.85969 0.0
O126 O 0.10073 0.95678 0.84074 0.0
Cd127 Cd 0.13056 0.95934 0.86702 0.0
Cd128 Cd 0.14681 0.90919 0.84565 0.0
O129 O 0.10775 0.91281 0.82873 0.0
O130 O 0.11468 0.9898 0.88731 0.0
O131 O 0.11971 0.94545 0.89949 0.0
C132 C 0.11075 0.97094 0.90348 0.0
C133 C 0.1649 0.86418 0.85509 0.0
C134 C 0.09361 0.93581 0.82793 0.0
C135 C 0.18476 0.96178 0.84189 0.0
O136 O 0.17831 0.9369 0.83501 0.0
O137 O 0.16935 0.97469 0.85684 0.0
O138 O 0.16205 0.87257 0.83353 0.0
O139 O 0.1561 0.88093 0.87164 0.0
O140 O 0.53893 0.11828 0.8568 0.0
Cd141 Cd 0.51973 0.14504 0.88192 0.0
Cd142 Cd 0.59139 0.16264 0.85543 0.0
O143 O 0.58225 0.12337 0.84075 0.0
O144 O 0.4874 0.1258 0.89747 0.0
O145 O 0.52807 0.13631 0.91558 0.0
C146 C 0.50327 0.12444 0.91616 0.0
C147 C 0.63369 0.18759 0.85402 0.0
C148 C 0.55885 0.10975 0.84306 0.0
C149 C 0.53532 0.19248 0.86208 0.0
O150 O 0.55638 0.17916 0.87071 0.0
O151 O 0.51141 0.18619 0.87075 0.0
O152 O 0.61536 0.18944 0.837 0.0
O153 O 0.62828 0.17062 0.87152 0.0
O154 O 0.40838 0.52971 0.84171 0.0
Cd155 Cd 0.37526 0.53139 0.86512 0.0
Cd156 Cd 0.36584 0.58108 0.84431 0.0
O157 O 0.40645 0.57459 0.83077 0.0
O158 O 0.38654 0.50881 0.89317 0.0
O159 O 0.38136 0.5557 0.89361 0.0
C160 C 0.38881 0.53262 0.90438 0.0
C161 C 0.34919 0.62626 0.85468 0.0
C162 C 0.41882 0.55054 0.83039 0.0
C163 C 0.32389 0.53246 0.83681 0.0
O164 O 0.33328 0.55666 0.83068 0.0
O165 O 0.33661 0.51803 0.85254 0.0
O166 O 0.35445 0.61946 0.83303 0.0
O167 O 0.35542 0.60797 0.87092 0.0
O168 O 0.96301 0.08169 0.64592 0.0
Cd169 Cd 0.95785 0.11535 0.62291 0.0
Cd170 Cd 0.91537 0.12243 0.65004 0.0
O171 O 0.91856 0.07971 0.65776 0.0
O172 O 0.98073 0.1054 0.59461 0.0
O173 O 0.93361 0.10678 0.59467 0.0
C174 C 0.95703 0.10089 0.58377 0.0
C175 C 0.87468 0.14726 0.63893 0.0
C176 C 0.94323 0.06874 0.6568 0.0
C177 C 0.9647 0.16099 0.65603 0.0
O178 O 0.94501 0.14763 0.66659 0.0
O179 O 0.97092 0.15476 0.63478 0.0
O180 O 0.87809 0.13814 0.66031 0.0
O181 O 0.89346 0.14021 0.62328 0.0
O182 O 0.41175 0.98207 0.64857 0.0
Cd183 Cd 0.38329 0.97714 0.62155 0.0
Cd184 Cd 0.373 0.92926 0.64453 0.0
O185 O 0.41105 0.9381 0.6618 0.0
O186 O 0.39812 0.00133 0.59575 0.0
O187 O 0.39588 0.95434 0.59357 0.0
C188 C 0.40389 0.97822 0.58444 0.0
C189 C 0.3587 0.88295 0.63527 0.0
C190 C 0.42148 0.96302 0.66225 0.0
C191 C 0.32931 0.9772 0.64543 0.0
O192 O 0.33877 0.95413 0.65405 0.0
O193 O 0.34295 0.99018 0.62938 0.0
O194 O 0.36114 0.89149 0.65684 0.0
O195 O 0.36637 0.9002 0.61867 0.0
O196 O 0.5635 0.41516 0.64267 0.0
Cd197 Cd 0.56612 0.38409 0.6175 0.0
Cd198 Cd 0.61763 0.37777 0.64027 0.0
O199 O 0.60771 0.41685 0.65547 0.0
O200 O 0.53562 0.39524 0.59505 0.0
O201 O 0.58121 0.39537 0.58555 0.0
C202 C 0.55524 0.40127 0.57995 0.0
C203 C 0.6642 0.36297 0.63234 0.0
C204 C 0.5825 0.42666 0.65541 0.0
C205 C 0.57125 0.33234 0.64522 0.0
O206 O 0.5944 0.34354 0.65201 0.0
O207 O 0.55621 0.34402 0.62931 0.0
O208 O 0.65545 0.36757 0.65359 0.0
O209 O 0.64721 0.3693 0.61516 0.0
O210 O 0.07792 0.57773 0.64306 0.0
Cd211 Cd 0.10662 0.56014 0.62013 0.0
Cd212 Cd 0.13839 0.60933 0.63872 0.0
O213 O 0.10041 0.61563 0.65649 0.0
O214 O 0.08318 0.52877 0.60705 0.0
O215 O 0.09889 0.56412 0.58504 0.0
C216 C 0.08384 0.54132 0.58685 0.0
C217 C 0.16637 0.64977 0.63108 0.0
C218 C 0.07861 0.59972 0.65604 0.0
C219 C 0.1599 0.54845 0.64717 0.0
O220 O 0.16233 0.57516 0.64964 0.0
O221 O 0.1395 0.53785 0.63543 0.0
O222 O 0.16195 0.64056 0.65218 0.0
O223 O 0.15414 0.63649 0.61389 0.0
H224 H 0.16076 0.621 0.13803 0.0
H225 H 0.2068 0.64508 0.13459 0.0
H226 H 0.1863 0.69645 0.19558 0.0
H227 H 0.14134 0.67152 0.19979 0.0
H228 H 0.22152 0.69589 0.12572 0.0
H229 H 0.24296 0.7177 0.22547 0.0
H230 H 0.23373 0.69544 0.26422 0.0
H231 H 0.22854 0.61354 0.23109 0.0
H232 H 0.23817 0.63525 0.19216 0.0
H233 H 0.31992 0.80736 0.13913 0.0
H234 H 0.27885 0.77589 0.14198 0.0
H235 H 0.33194 0.71028 0.17182 0.0
H236 H 0.37299 0.74196 0.16963 0.0
H237 H 0.28436 0.71224 0.19495 0.0
H238 H 0.30913 0.70783 0.11328 0.0
H239 H 0.32091 0.72649 0.07368 0.0
H240 H 0.23883 0.76592 0.06915 0.0
H241 H 0.22669 0.74781 0.10887 0.0
C242 C 0.16631 0.63723 0.1508 0.0
C243 C 0.14763 0.64413 0.16933 0.0
C244 C 0.19255 0.65105 0.14881 0.0
C245 C 0.20039 0.67225 0.16511 0.0
C246 C 0.18132 0.67957 0.18324 0.0
C247 C 0.15547 0.66538 0.18554 0.0
C248 C 0.22801 0.68743 0.16286 0.0
C249 C 0.23531 0.69929 0.14086 0.0
C250 C 0.24641 0.69155 0.18246 0.0
C251 C 0.24107 0.67816 0.20586 0.0
C252 C 0.24001 0.69492 0.22646 0.0
C253 C 0.23466 0.6824 0.24846 0.0
C254 C 0.23044 0.65311 0.25012 0.0
C255 C 0.2317 0.63624 0.22977 0.0
C256 C 0.23709 0.64865 0.20773 0.0
C257 C 0.32286 0.78625 0.14633 0.0
C258 C 0.34974 0.77714 0.15408 0.0
C259 C 0.29938 0.7682 0.14782 0.0
C260 C 0.30236 0.74051 0.15674 0.0
C261 C 0.32911 0.7315 0.16481 0.0
C262 C 0.35257 0.74964 0.16351 0.0
C263 C 0.27746 0.72114 0.15798 0.0
C264 C 0.27068 0.70857 0.17979 0.0
C265 C 0.25993 0.71578 0.13809 0.0
C266 C 0.26709 0.72663 0.11414 0.0
C267 C 0.29366 0.72064 0.10391 0.0
C268 C 0.30039 0.73109 0.08143 0.0
C269 C 0.28065 0.74743 0.06893 0.0
C270 C 0.25411 0.75328 0.07886 0.0
C271 C 0.24728 0.7429 0.10135 0.0
H272 H 0.28591 0.7555 0.05153 0.0
H273 H 0.22625 0.64347 0.26716 0.0
H274 H 0.8406 0.18464 0.16895 0.0
H275 H 0.80594 0.2223 0.16267 0.0
H276 H 0.80306 0.20247 0.08817 0.0
H277 H 0.83801 0.16435 0.0943 0.0
H278 H 0.80151 0.26297 0.0995 0.0
H279 H 0.75287 0.17673 0.11869 0.0
H280 H 0.7442 0.13299 0.14158 0.0
H281 H 0.72887 0.18254 0.20413 0.0
H282 H 0.7379 0.22657 0.1817 0.0
H283 H 0.67431 0.34859 0.09488 0.0
H284 H 0.70719 0.30872 0.08871 0.0
H285 H 0.71808 0.30099 0.16432 0.0
H286 H 0.6852 0.34008 0.17057 0.0
H287 H 0.71234 0.25033 0.14516 0.0
H288 H 0.76716 0.33518 0.12824 0.0
H289 H 0.77801 0.37952 0.10683 0.0
H290 H 0.78275 0.33342 0.04132 0.0
H291 H 0.77158 0.28884 0.06234 0.0
C292 C 0.83301 0.18847 0.15113 0.0
C293 C 0.84188 0.17128 0.13216 0.0
C294 C 0.81313 0.21001 0.14759 0.0
C295 C 0.80161 0.21484 0.12504 0.0
C296 C 0.81164 0.19896 0.10573 0.0
C297 C 0.83159 0.17722 0.10927 0.0
C298 C 0.77776 0.23518 0.12236 0.0
C299 C 0.78174 0.26001 0.10905 0.0
C300 C 0.75212 0.23137 0.13503 0.0
C301 C 0.74624 0.20495 0.14852 0.0
C302 C 0.74783 0.17829 0.13736 0.0
C303 C 0.74283 0.15345 0.15025 0.0
C304 C 0.73603 0.15498 0.1743 0.0
C305 C 0.73414 0.18138 0.1855 0.0
C306 C 0.73916 0.20629 0.17269 0.0
C307 C 0.68355 0.33818 0.11015 0.0
C308 C 0.67716 0.34755 0.13321 0.0
C309 C 0.70245 0.31552 0.10661 0.0
C310 C 0.71534 0.302 0.12606 0.0
C311 C 0.70841 0.311 0.14903 0.0
C312 C 0.6896 0.33347 0.15257 0.0
C313 C 0.73638 0.27872 0.12296 0.0
C314 C 0.73183 0.25317 0.13519 0.0
C315 C 0.7615 0.28201 0.10941 0.0
C316 C 0.76817 0.30877 0.0968 0.0
C317 C 0.77027 0.33455 0.10924 0.0
C318 C 0.77653 0.35971 0.09719 0.0
C319 C 0.78097 0.35931 0.07272 0.0
C320 C 0.77924 0.33372 0.06026 0.0
C321 C 0.77295 0.3085 0.07223 0.0
H322 H 0.78582 0.37881 0.06342 0.0
H323 H 0.73219 0.13572 0.18425 0.0
H324 H 0.16145 0.8105 0.31244 0.0
H325 H 0.20026 0.77713 0.31866 0.0
H326 H 0.19004 0.78485 0.39429 0.0
H327 H 0.15101 0.81877 0.3882 0.0
H328 H 0.24655 0.78462 0.38063 0.0
H329 H 0.16407 0.72746 0.36642 0.0
H330 H 0.12103 0.71195 0.34515 0.0
H331 H 0.17102 0.69324 0.28347 0.0
H332 H 0.21426 0.70909 0.30426 0.0
H333 H 0.34372 0.66823 0.39296 0.0
H334 H 0.3004 0.69681 0.39721 0.0
H335 H 0.29021 0.69755 0.32125 0.0
H336 H 0.33278 0.66874 0.31693 0.0
H337 H 0.24063 0.69036 0.34166 0.0
H338 H 0.32048 0.75371 0.35203 0.0
H339 H 0.36451 0.77063 0.37105 0.0
H340 H 0.3207 0.77878 0.43741 0.0
H341 H 0.27648 0.76155 0.41882 0.0
C342 C 0.16748 0.8053 0.33044 0.0
C343 C 0.15297 0.81718 0.34984 0.0
C344 C 0.18962 0.78607 0.33396 0.0
C345 C 0.19767 0.77804 0.35692 0.0
C346 C 0.184 0.7906 0.37641 0.0
C347 C 0.16174 0.80997 0.3729 0.0
C348 C 0.22022 0.75631 0.36026 0.0
C349 C 0.24504 0.76377 0.37255 0.0
C350 C 0.21844 0.72928 0.34936 0.0
C351 C 0.1924 0.71964 0.33686 0.0
C352 C 0.16585 0.72024 0.34827 0.0
C353 C 0.14141 0.71137 0.3363 0.0
C354 C 0.14327 0.70167 0.31296 0.0
C355 C 0.16958 0.70078 0.30154 0.0
C356 C 0.19407 0.70968 0.31342 0.0
C357 C 0.33198 0.67416 0.37722 0.0
C358 C 0.34174 0.66626 0.35462 0.0
C359 C 0.30735 0.69066 0.37966 0.0
C360 C 0.29223 0.69966 0.35952 0.0
C361 C 0.30146 0.69089 0.33705 0.0
C362 C 0.32589 0.67441 0.33462 0.0
C363 C 0.2673 0.71895 0.3614 0.0
C364 C 0.24197 0.711 0.35012 0.0
C365 C 0.26877 0.74563 0.37295 0.0
C366 C 0.2953 0.75601 0.38412 0.0
C367 C 0.32031 0.7589 0.37072 0.0
C368 C 0.34528 0.76858 0.38141 0.0
C369 C 0.34543 0.77569 0.40544 0.0
C370 C 0.32057 0.77321 0.41881 0.0
C371 C 0.29555 0.76349 0.40821 0.0
H372 H 0.36478 0.78319 0.41369 0.0
H373 H 0.12432 0.6948 0.30373 0.0
H374 H 0.77233 0.34645 0.40854 0.0
H375 H 0.74146 0.30498 0.41351 0.0
H376 H 0.79588 0.25675 0.36683 0.0
H377 H 0.82535 0.29869 0.36063 0.0
H378 H 0.74712 0.24836 0.35335 0.0
H379 H 0.78859 0.24605 0.4306 0.0
H380 H 0.8027 0.26393 0.46993 0.0
H381 H 0.71521 0.2787 0.48753 0.0
H382 H 0.70059 0.26131 0.44815 0.0
H383 H 0.6856 0.11374 0.41125 0.0
H384 H 0.71169 0.15808 0.41687 0.0
H385 H 0.66007 0.1982 0.36326 0.0
H386 H 0.63512 0.15336 0.35661 0.0
H387 H 0.70667 0.21069 0.42808 0.0
H388 H 0.69858 0.24009 0.32861 0.0
H389 H 0.69112 0.21649 0.29006 0.0
H390 H 0.72444 0.13863 0.31832 0.0
H391 H 0.73244 0.16186 0.3569 0.0
C392 C 0.77787 0.32678 0.39972 0.0
C393 C 0.80113 0.32569 0.38417 0.0
C394 C 0.76028 0.30301 0.40262 0.0
C395 C 0.76622 0.27749 0.3906 0.0
C396 C 0.79049 0.27615 0.37611 0.0
C397 C 0.80749 0.30007 0.37267 0.0
C398 C 0.74621 0.25289 0.39137 0.0
C399 C 0.73842 0.24022 0.36979 0.0
C400 C 0.73478 0.24187 0.41272 0.0
C401 C 0.74352 0.25267 0.4363 0.0
C402 C 0.77237 0.25337 0.44276 0.0
C403 C 0.78046 0.26337 0.46508 0.0
C404 C 0.75987 0.27252 0.48119 0.0
C405 C 0.73114 0.27166 0.47502 0.0
C406 C 0.72294 0.26173 0.4527 0.0
C407 C 0.67938 0.1322 0.40105 0.0
C408 C 0.65862 0.13001 0.38325 0.0
C409 C 0.69434 0.1576 0.40428 0.0
C410 C 0.68847 0.18134 0.39002 0.0
C411 C 0.66564 0.17995 0.37398 0.0
C412 C 0.65122 0.15438 0.3703 0.0
C413 C 0.708 0.20627 0.39013 0.0
C414 C 0.71547 0.21904 0.41175 0.0
C415 C 0.72022 0.21672 0.36892 0.0
C416 C 0.71578 0.20264 0.3457 0.0
C417 C 0.70438 0.21796 0.32655 0.0
C418 C 0.70006 0.20465 0.30471 0.0
C419 C 0.7072 0.17606 0.30177 0.0
C420 C 0.71882 0.16074 0.32064 0.0
C421 C 0.72324 0.17397 0.3425 0.0
H422 H 0.70381 0.16578 0.28486 0.0
H423 H 0.76617 0.28021 0.49848 0.0
H424 H 0.82504 0.37101 0.81108 0.0
H425 H 0.78483 0.33913 0.81624 0.0
H426 H 0.80782 0.32672 0.88948 0.0
H427 H 0.8487 0.35841 0.8843 0.0
H428 H 0.79795 0.27695 0.86827 0.0
H429 H 0.74846 0.36516 0.87371 0.0
H430 H 0.73395 0.41341 0.86185 0.0
H431 H 0.69946 0.3807 0.79695 0.0
H432 H 0.71415 0.33228 0.80823 0.0
H433 H 0.66977 0.1987 0.89097 0.0
H434 H 0.70917 0.23262 0.8917 0.0
H435 H 0.69503 0.25139 0.81786 0.0
H436 H 0.65545 0.21779 0.81711 0.0
H437 H 0.69943 0.29917 0.8432 0.0
H438 H 0.75209 0.21199 0.8362 0.0
H439 H 0.76662 0.16357 0.84761 0.0
H440 H 0.79487 0.19441 0.9152 0.0
H441 H 0.78014 0.24299 0.9043 0.0
C442 C 0.82137 0.36189 0.82842 0.0
C443 C 0.8401 0.36732 0.8473 0.0
C444 C 0.79824 0.34369 0.83136 0.0
C445 C 0.7931 0.33065 0.8533 0.0
C446 C 0.81134 0.33656 0.87239 0.0
C447 C 0.83458 0.35482 0.86945 0.0
C448 C 0.76966 0.30965 0.85572 0.0
C449 C 0.77628 0.28198 0.86324 0.0
C450 C 0.74149 0.31596 0.84862 0.0
C451 C 0.73265 0.34509 0.84175 0.0
C452 C 0.738 0.36827 0.85682 0.0
C453 C 0.7297 0.39566 0.85021 0.0
C454 C 0.71585 0.40013 0.82864 0.0
C455 C 0.71022 0.37721 0.81364 0.0
C456 C 0.71851 0.34979 0.82015 0.0
C457 C 0.67528 0.2098 0.87482 0.0
C458 C 0.65937 0.20574 0.854 0.0
C459 C 0.69782 0.22918 0.87526 0.0
C460 C 0.70505 0.2446 0.85483 0.0
C461 C 0.68969 0.23992 0.83388 0.0
C462 C 0.66711 0.22068 0.83346 0.0
C463 C 0.72785 0.26643 0.85538 0.0
C464 C 0.72106 0.29425 0.84844 0.0
C465 C 0.75583 0.26024 0.86296 0.0
C466 C 0.76472 0.23107 0.86954 0.0
C467 C 0.76117 0.20841 0.85357 0.0
C468 C 0.76949 0.18095 0.85993 0.0
C469 C 0.78158 0.1759 0.88215 0.0
C470 C 0.78545 0.19834 0.89802 0.0
C471 C 0.77715 0.22584 0.89175 0.0
H472 H 0.78801 0.15463 0.88703 0.0
H473 H 0.70943 0.42135 0.82356 0.0
H474 H 0.33029 0.6657 0.82324 0.0
H475 H 0.29759 0.70477 0.83062 0.0
H476 H 0.29879 0.68613 0.90537 0.0
H477 H 0.33149 0.64631 0.89809 0.0
H478 H 0.24267 0.69551 0.85255 0.0
H479 H 0.28743 0.75729 0.93089 0.0
H480 H 0.33325 0.76689 0.95059 0.0
H481 H 0.37682 0.75691 0.8843 0.0
H482 H 0.33125 0.74765 0.86419 0.0
H483 H 0.18014 0.84208 0.89846 0.0
H484 H 0.20874 0.79928 0.90586 0.0
H485 H 0.21278 0.78356 0.83065 0.0
H486 H 0.184 0.8254 0.82325 0.0
H487 H 0.26188 0.78701 0.89302 0.0
H488 H 0.21514 0.71596 0.81739 0.0
H489 H 0.16852 0.70584 0.79937 0.0
H490 H 0.12668 0.73281 0.86308 0.0
H491 H 0.17304 0.74271 0.88163 0.0
C492 C 0.32404 0.67006 0.84134 0.0
C493 C 0.3334 0.65273 0.86007 0.0
C494 C 0.30522 0.69237 0.84549 0.0
C495 C 0.29562 0.69816 0.86848 0.0
C496 C 0.30599 0.68195 0.88748 0.0
C497 C 0.32471 0.65929 0.8833 0.0
C498 C 0.27341 0.72008 0.8719 0.0
C499 C 0.24682 0.71557 0.86135 0.0
C500 C 0.27846 0.74562 0.88436 0.0
C501 C 0.30598 0.75137 0.89614 0.0
C502 C 0.3068 0.75718 0.92054 0.0
C503 C 0.33272 0.76257 0.93177 0.0
C504 C 0.35794 0.76238 0.91873 0.0
C505 C 0.35728 0.7569 0.89441 0.0
C506 C 0.33142 0.75152 0.88309 0.0
C507 C 0.18673 0.82915 0.88358 0.0
C508 C 0.17967 0.83708 0.86027 0.0
C509 C 0.2032 0.80482 0.88782 0.0
C510 C 0.21265 0.78797 0.86884 0.0
C511 C 0.20527 0.79578 0.84565 0.0
C512 C 0.18885 0.81988 0.84143 0.0
C513 C 0.23144 0.76298 0.87268 0.0
C514 C 0.25735 0.76677 0.88466 0.0
C515 C 0.22563 0.7365 0.86182 0.0
C516 C 0.19762 0.73023 0.85086 0.0
C517 C 0.19601 0.71956 0.82763 0.0
C518 C 0.16962 0.71391 0.8173 0.0
C519 C 0.14465 0.71873 0.83006 0.0
C520 C 0.14603 0.72916 0.85319 0.0
C521 C 0.17237 0.73484 0.86361 0.0
H522 H 0.12424 0.71436 0.82202 0.0
H523 H 0.37798 0.76655 0.92745 0.0
H524 H 0.68825 0.3465 0.59002 0.0
H525 H 0.72806 0.31349 0.58465 0.0
H526 H 0.73923 0.30941 0.66045 0.0
H527 H 0.70068 0.34305 0.66581 0.0
H528 H 0.78835 0.30708 0.64126 0.0
H529 H 0.69837 0.25889 0.62609 0.0
H530 H 0.65317 0.25159 0.60479 0.0
H531 H 0.69861 0.24171 0.53934 0.0
H532 H 0.74405 0.2492 0.56027 0.0
H533 H 0.83749 0.17167 0.6698 0.0
H534 H 0.80501 0.21099 0.6622 0.0
H535 H 0.82755 0.20969 0.58822 0.0
H536 H 0.86064 0.17032 0.59571 0.0
H537 H 0.76654 0.21735 0.59889 0.0
H538 H 0.85726 0.25752 0.61676 0.0
H539 H 0.90169 0.26286 0.63945 0.0
H540 H 0.85409 0.28683 0.70114 0.0
H541 H 0.8093 0.28119 0.67892 0.0
C542 C 0.69967 0.33906 0.60547 0.0
C543 C 0.69111 0.34727 0.62835 0.0
C544 C 0.72225 0.31994 0.60241 0.0
C545 C 0.73628 0.30831 0.62217 0.0
C546 C 0.72878 0.31788 0.64488 0.0
C547 C 0.70659 0.33718 0.64792 0.0
C548 C 0.75758 0.28502 0.61979 0.0
C549 C 0.78348 0.28749 0.63201 0.0
C550 C 0.75178 0.2596 0.60718 0.0
C551 C 0.72452 0.2549 0.59467 0.0
C552 C 0.69867 0.2553 0.60714 0.0
C553 C 0.67303 0.25111 0.59514 0.0
C554 C 0.67301 0.24626 0.57072 0.0
C555 C 0.69865 0.2455 0.55825 0.0
C556 C 0.72435 0.2497 0.57017 0.0
C557 C 0.8353 0.17935 0.65181 0.0
C558 C 0.8518 0.16789 0.63337 0.0
C559 C 0.81678 0.20195 0.64753 0.0
C560 C 0.81418 0.21346 0.62473 0.0
C561 C 0.82937 0.20113 0.60597 0.0
C562 C 0.84822 0.17864 0.61029 0.0
C563 C 0.79657 0.23923 0.62106 0.0
C564 C 0.77153 0.23719 0.60773 0.0
C565 C 0.80301 0.26498 0.6328 0.0
C566 C 0.8299 0.26872 0.6462 0.0
C567 C 0.85624 0.26372 0.63521 0.0
C568 C 0.88149 0.26684 0.64798 0.0
C569 C 0.88071 0.27514 0.67172 0.0
C570 C 0.85466 0.28041 0.68274 0.0
C571 C 0.82933 0.27728 0.67006 0.0
H572 H 0.90029 0.27751 0.68154 0.0
H573 H 0.65314 0.24304 0.56146 0.0
H574 H 0.19567 0.67906 0.66451 0.0
H575 H 0.22834 0.71837 0.65896 0.0
H576 H 0.214 0.71566 0.58354 0.0
H577 H 0.18125 0.67546 0.58894 0.0
H578 H 0.27058 0.72289 0.59416 0.0
H579 H 0.18403 0.76793 0.61521 0.0
H580 H 0.14005 0.77594 0.63795 0.0
H581 H 0.18906 0.79251 0.70059 0.0
H582 H 0.23334 0.7842 0.67832 0.0
H583 H 0.34065 0.86237 0.59219 0.0
H584 H 0.30891 0.82174 0.58553 0.0
H585 H 0.31177 0.80202 0.66007 0.0
H586 H 0.3433 0.84219 0.66685 0.0
H587 H 0.25708 0.80965 0.64273 0.0
H588 H 0.34348 0.75953 0.62123 0.0
H589 H 0.38687 0.75177 0.59765 0.0
H590 H 0.33689 0.74652 0.53417 0.0
H591 H 0.2932 0.75464 0.55736 0.0
C592 C 0.19927 0.68678 0.64669 0.0
C593 C 0.18562 0.67423 0.62717 0.0
C594 C 0.21797 0.70937 0.64356 0.0
C595 C 0.2233 0.7203 0.62088 0.0
C596 C 0.21007 0.70765 0.60122 0.0
C597 C 0.19128 0.6848 0.60434 0.0
C598 C 0.24274 0.74496 0.61823 0.0
C599 C 0.26737 0.74214 0.60437 0.0
C600 C 0.23862 0.77004 0.63162 0.0
C601 C 0.21202 0.77529 0.64509 0.0
C602 C 0.18543 0.77311 0.63387 0.0
C603 C 0.16044 0.77772 0.64667 0.0
C604 C 0.16176 0.78469 0.6707 0.0
C605 C 0.18807 0.78712 0.68197 0.0
C606 C 0.21313 0.7825 0.66925 0.0
C607 C 0.33505 0.84894 0.60704 0.0
C608 C 0.34431 0.85566 0.63008 0.0
C609 C 0.31688 0.82578 0.60321 0.0
C610 C 0.30779 0.80905 0.62235 0.0
C611 C 0.31835 0.8148 0.64508 0.0
C612 C 0.33647 0.83776 0.6489 0.0
C613 C 0.28544 0.7871 0.61947 0.0
C614 C 0.26011 0.79059 0.63222 0.0
C615 C 0.28886 0.76291 0.60488 0.0
C616 C 0.31512 0.75806 0.59098 0.0
C617 C 0.34176 0.75701 0.60221 0.0
C618 C 0.36641 0.75248 0.58893 0.0
C619 C 0.36465 0.74875 0.56442 0.0
C620 C 0.33822 0.74947 0.55315 0.0
C621 C 0.31352 0.75402 0.56636 0.0
H622 H 0.38375 0.74523 0.55417 0.0
H623 H 0.14238 0.78825 0.68059 0.0
H624 H 0.91007 0.3942 0.31359 0.0
H625 H 0.95055 0.4085 0.28933 0.0
H626 H 0.98776 0.45077 0.34971 0.0
H627 H 0.94661 0.43763 0.37361 0.0
H628 H 0.9818 0.48647 0.31653 0.0
H629 H 0.02192 0.39409 0.31899 0.0
H630 H 0.02319 0.34184 0.31664 0.0
H631 H 0.9987 0.34548 0.24344 0.0
H632 H 0.99687 0.39775 0.24541 0.0
H633 H 0.07614 0.5513 0.23698 0.0
H634 H 0.06437 0.51759 0.26851 0.0
H635 H 0.00764 0.47352 0.22111 0.0
H636 H 0.01941 0.50676 0.18956 0.0
H637 H 0.03387 0.43671 0.25244 0.0
H638 H 0.98302 0.52693 0.25386 0.0
H639 H 0.97978 0.57916 0.25595 0.0
H640 H 0.0236 0.57845 0.32267 0.0
H641 H 0.02745 0.5262 0.32078 0.0
C642 C 0.92743 0.40559 0.32187 0.0
C643 C 0.92518 0.41504 0.34537 0.0
C644 C 0.95067 0.41372 0.30801 0.0
C645 C 0.97229 0.43083 0.31763 0.0
C646 C 0.97131 0.43776 0.34181 0.0
C647 C 0.94785 0.43015 0.35549 0.0
C648 C 0.99274 0.44559 0.30179 0.0
C649 C 0.99388 0.47537 0.30303 0.0
C650 C 0.00802 0.43136 0.28373 0.0
C651 C 0.00913 0.39989 0.2824 0.0
C652 C 0.01661 0.38376 0.30243 0.0
C653 C 0.01746 0.35413 0.30115 0.0
C654 C 0.011 0.34035 0.27991 0.0
C655 C 0.00371 0.35618 0.25988 0.0
C656 C 0.00282 0.38582 0.26106 0.0
C657 C 0.06175 0.53398 0.23309 0.0
C658 C 0.04829 0.53202 0.21091 0.0
C659 C 0.05505 0.51475 0.25112 0.0
C660 C 0.03481 0.49334 0.24722 0.0
C661 C 0.02327 0.4899 0.22451 0.0
C662 C 0.02987 0.5091 0.20654 0.0
C663 C 0.0224 0.47724 0.26723 0.0
C664 C 0.02255 0.44744 0.26658 0.0
C665 C 0.00818 0.49135 0.28589 0.0
C666 C 0.00589 0.52274 0.28701 0.0
C667 C 0.99219 0.53795 0.26887 0.0
C668 C 0.9902 0.56754 0.27003 0.0
C669 C 0.00157 0.58213 0.28939 0.0
C670 C 0.01489 0.56713 0.30765 0.0
C671 C 0.01699 0.53754 0.30654 0.0
H672 H 0.99998 0.60504 0.29028 0.0
H673 H 0.01166 0.3174 0.27897 0.0
H674 H 0.98664 0.05259 0.14468 0.0
H675 H 0.02333 0.03503 0.17148 0.0
H676 H 0.98312 0.07839 0.2298 0.0
H677 H 0.9464 0.09649 0.20289 0.0
H678 H 0.04382 0.07374 0.23461 0.0
H679 H 0.96187 0.01537 0.22064 0.0
H680 H 0.92614 0.99107 0.19593 0.0
H681 H 0.99197 0.94189 0.16288 0.0
H682 H 0.02812 0.96628 0.18719 0.0
H683 H 0.05342 0.97464 0.32954 0.0
H684 H 0.04524 0.01057 0.29921 0.0
H685 H 0.0879 0.95802 0.24773 0.0
H686 H 0.09626 0.92185 0.27813 0.0
H687 H 0.03233 0.96899 0.23675 0.0
H688 H 0.11339 0.02321 0.25938 0.0
H689 H 0.14583 0.04774 0.28687 0.0
H690 H 0.07874 0.10439 0.30741 0.0
H691 H 0.04574 0.07995 0.2803 0.0
C692 C 0.98615 0.05921 0.16306 0.0
C693 C 0.96349 0.07557 0.1718 0.0
C694 C 0.00715 0.0492 0.17833 0.0
C695 C 0.00561 0.05501 0.20266 0.0
C696 C 0.98467 0.07371 0.21106 0.0
C697 C 0.9637 0.08402 0.19567 0.0
C698 C 0.02244 0.03767 0.21947 0.0
C699 C 0.04136 0.05085 0.2352 0.0
C700 C 0.01931 0.00779 0.22002 0.0
C701 C 0.99769 0.9929 0.20548 0.0
C702 C 0.96871 0.99955 0.20795 0.0
C703 C 0.94839 0.98574 0.19405 0.0
C704 C 0.95679 0.96502 0.17778 0.0
C705 C 0.98551 0.958 0.17545 0.0
C706 C 0.00592 0.97181 0.18928 0.0
C707 C 0.06192 0.97113 0.31195 0.0
C708 C 0.07514 0.94526 0.30611 0.0
C709 C 0.05738 0.9918 0.29465 0.0
C710 C 0.06588 0.98694 0.27119 0.0
C711 C 0.08123 0.96218 0.26576 0.0
C712 C 0.08607 0.94157 0.28316 0.0
C713 C 0.05406 0.00488 0.25199 0.0
C714 C 0.03557 0.99179 0.23588 0.0
C715 C 0.05725 0.03478 0.25156 0.0
C716 C 0.07703 0.0496 0.26789 0.0
C717 C 0.10547 0.04075 0.26989 0.0
C718 C 0.12398 0.05467 0.28538 0.0
C719 C 0.11434 0.07758 0.2989 0.0
C720 C 0.08618 0.08664 0.29693 0.0
C721 C 0.06757 0.07278 0.28147 0.0
H722 H 0.12871 0.08833 0.31089 0.0
H723 H 0.94104 0.95433 0.16703 0.0
H724 H 0.5997 0.9624 0.32343 0.0
H725 H 0.56347 0.94341 0.29729 0.0
H726 H 0.51078 0.01679 0.31061 0.0
H727 H 0.54809 0.03675 0.33609 0.0
H728 H 0.51324 0.92578 0.30101 0.0
H729 H 0.46979 0.03013 0.26227 0.0
H730 H 0.48482 0.07968 0.25539 0.0
H731 H 0.57192 0.05291 0.25156 0.0
H732 H 0.55734 0.00321 0.25815 0.0
H733 H 0.41837 0.87801 0.21172 0.0
H734 H 0.4339 0.9056 0.24618 0.0
H735 H 0.49811 0.94605 0.20333 0.0
H736 H 0.48214 0.91979 0.16897 0.0
H737 H 0.4795 0.9827 0.23267 0.0
H738 H 0.51028 0.88461 0.23772 0.0
H739 H 0.50247 0.83288 0.23966 0.0
H740 H 0.45456 0.84307 0.30376 0.0
H741 H 0.46159 0.895 0.30195 0.0
C742 C 0.58037 0.97452 0.3209 0.0
C743 C 0.57677 0.00114 0.33173 0.0
C744 C 0.55953 0.96352 0.30602 0.0
C745 C 0.53432 0.97862 0.30182 0.0
C746 C 0.53022 0.00491 0.31323 0.0
C747 C 0.55149 0.01629 0.32779 0.0
C748 C 0.51344 0.96711 0.28451 0.0
C749 C 0.50562 0.93835 0.28621 0.0
C750 C 0.50351 0.98333 0.26508 0.0
C751 C 0.5125 0.01309 0.26104 0.0
C752 C 0.49213 0.03486 0.25994 0.0
C753 C 0.50057 0.06295 0.25609 0.0
C754 C 0.52932 0.06945 0.25315 0.0
C755 C 0.54967 0.04786 0.25395 0.0
C756 C 0.54134 0.01975 0.25776 0.0
C757 C 0.43542 0.89316 0.20959 0.0
C758 C 0.44917 0.8964 0.18762 0.0
C759 C 0.44437 0.90887 0.22931 0.0
C760 C 0.46751 0.92759 0.22746 0.0
C761 C 0.48019 0.93183 0.20527 0.0
C762 C 0.47107 0.91656 0.1856 0.0
C763 C 0.48049 0.94113 0.24861 0.0
C764 C 0.48654 0.97032 0.24779 0.0
C765 C 0.49001 0.92496 0.26822 0.0
C766 C 0.48614 0.89372 0.26954 0.0
C767 C 0.49793 0.87584 0.25215 0.0
C768 C 0.49366 0.84648 0.25323 0.0
C769 C 0.47799 0.83468 0.27179 0.0
C770 C 0.46663 0.85224 0.28936 0.0
C771 C 0.47072 0.88164 0.28831 0.0
H772 H 0.4747 0.81196 0.27257 0.0
H773 H 0.53581 0.09121 0.25018 0.0
H774 H 0.57634 0.41473 0.20886 0.0
H775 H 0.54059 0.42768 0.2382 0.0
H776 H 0.48141 0.44746 0.18212 0.0
H777 H 0.51772 0.43583 0.15278 0.0
H778 H 0.48869 0.4914 0.20726 0.0
H779 H 0.46737 0.39587 0.22703 0.0
H780 H 0.47682 0.34586 0.23724 0.0
H781 H 0.51871 0.37197 0.30119 0.0
H782 H 0.5099 0.42217 0.29122 0.0
H783 H 0.40831 0.56214 0.29417 0.0
H784 H 0.41719 0.52331 0.26619 0.0
H785 H 0.49231 0.49978 0.30531 0.0
H786 H 0.4835 0.53808 0.33334 0.0
H787 H 0.46546 0.45284 0.28663 0.0
H788 H 0.49752 0.54632 0.26084 0.0
H789 H 0.49031 0.59679 0.25077 0.0
H790 H 0.42938 0.57333 0.19763 0.0
H791 H 0.436 0.5227 0.20764 0.0
C792 C 0.55531 0.42065 0.20283 0.0
C793 C 0.54983 0.42456 0.17861 0.0
C794 C 0.53476 0.42803 0.21964 0.0
C795 C 0.50823 0.43876 0.21243 0.0
C796 C 0.50176 0.43948 0.18815 0.0
C797 C 0.52247 0.43271 0.17139 0.0
C798 C 0.48986 0.45419 0.2296 0.0
C799 C 0.48282 0.4825 0.22429 0.0
C800 C 0.48277 0.44305 0.25214 0.0
C801 C 0.48806 0.41285 0.2583 0.0
C802 C 0.47877 0.39098 0.2432 0.0
C803 C 0.48399 0.36258 0.24896 0.0
C804 C 0.49838 0.35574 0.26984 0.0
C805 C 0.50755 0.3773 0.28503 0.0
C806 C 0.50239 0.40573 0.27935 0.0
C807 C 0.42633 0.54827 0.29711 0.0
C808 C 0.44549 0.55352 0.31571 0.0
C809 C 0.43136 0.5261 0.28113 0.0
C810 C 0.45562 0.50891 0.28352 0.0
C811 C 0.47347 0.51276 0.30312 0.0
C812 C 0.46853 0.53488 0.31901 0.0
C813 C 0.46488 0.48975 0.26417 0.0
C814 C 0.47045 0.46107 0.26918 0.0
C815 C 0.47081 0.50044 0.2413 0.0
C816 C 0.46696 0.53082 0.23519 0.0
C817 C 0.48244 0.55196 0.24713 0.0
C818 C 0.47848 0.58058 0.24142 0.0
C819 C 0.45932 0.58827 0.22363 0.0
C820 C 0.44416 0.56735 0.21146 0.0
C821 C 0.44799 0.53869 0.21714 0.0
H822 H 0.45629 0.61044 0.21923 0.0
H823 H 0.5024 0.33374 0.27426 0.0
H824 H 0.02435 0.58018 0.65302 0.0
H825 H 0.99191 0.57298 0.68607 0.0
H826 H 0.04854 0.61941 0.73198 0.0
H827 H 0.08125 0.62669 0.69887 0.0
H828 H 0.04187 0.56395 0.74446 0.0
H829 H 0.9803 0.64131 0.72583 0.0
H830 H 0.95081 0.67145 0.69994 0.0
H831 H 0.89649 0.60053 0.68479 0.0
H832 H 0.92587 0.56984 0.71032 0.0
H833 H 0.97068 0.50432 0.83957 0.0
H834 H 0.98654 0.54338 0.81438 0.0
H835 H 0.93274 0.51299 0.75792 0.0
H836 H 0.91599 0.47445 0.78341 0.0
H837 H 0.9374 0.56899 0.75502 0.0
H838 H 0.00135 0.49051 0.7638 0.0
H839 H 0.03221 0.45589 0.7841 0.0
H840 H 0.08333 0.52384 0.81154 0.0
H841 H 0.05241 0.55891 0.79176 0.0
C842 C 0.02939 0.58982 0.66993 0.0
C843 C 0.05555 0.60359 0.67347 0.0
C844 C 0.0107 0.58585 0.6888 0.0
C845 C 0.01787 0.59554 0.71152 0.0
C846 C 0.04261 0.61182 0.71455 0.0
C847 C 0.06125 0.61602 0.69559 0.0
C848 C 0.0031 0.5834 0.73235 0.0
C849 C 0.01914 0.56584 0.74729 0.0
C850 C 0.97329 0.58478 0.7352 0.0
C851 C 0.9554 0.60323 0.71995 0.0
C852 C 0.96218 0.63208 0.71686 0.0
C853 C 0.94545 0.64928 0.70226 0.0
C854 C 0.9218 0.63791 0.69071 0.0
C855 C 0.9148 0.60932 0.69377 0.0
C856 C 0.93146 0.59202 0.70834 0.0
C857 C 0.96159 0.50649 0.82202 0.0
C858 C 0.94241 0.48616 0.81329 0.0
C859 C 0.97074 0.52875 0.80763 0.0
C860 C 0.96145 0.53063 0.78405 0.0
C861 C 0.94033 0.51187 0.77602 0.0
C862 C 0.93075 0.48984 0.79059 0.0
C863 C 0.97625 0.54955 0.76703 0.0
C864 C 0.96025 0.56796 0.75269 0.0
C865 C 0.00614 0.54839 0.76414 0.0
C866 C 0.02424 0.52736 0.77666 0.0
C867 C 0.01892 0.49809 0.77444 0.0
C868 C 0.03647 0.47838 0.7858 0.0
C869 C 0.05962 0.48767 0.79921 0.0
C870 C 0.06529 0.51669 0.80126 0.0
C871 C 0.04773 0.53649 0.79002 0.0
H872 H 0.07326 0.47237 0.80791 0.0
H873 H 0.90889 0.65126 0.67941 0.0
H874 H 0.06635 0.98486 0.81699 0.0
H875 H 0.02973 0.99251 0.78765 0.0
H876 H 0.0292 0.90301 0.77119 0.0
H877 H 0.0672 0.89522 0.80036 0.0
H878 H 0.02847 0.93106 0.73225 0.0
H879 H 0.97062 0.9353 0.79921 0.0
H880 H 0.95569 0.94718 0.83987 0.0
H881 H 0.955 0.03583 0.82216 0.0
H882 H 0.97035 0.02459 0.78151 0.0
H883 H 0.90739 0.03507 0.68322 0.0
H884 H 0.92103 0.99619 0.70978 0.0
H885 H 0.00852 0.00626 0.68848 0.0
H886 H 0.99499 0.04372 0.66144 0.0
H887 H 0.95018 0.99944 0.74667 0.0
H888 H 0.0491 0.95232 0.69601 0.0
H889 H 0.0606 0.9367 0.65549 0.0
H890 H 0.97192 0.92543 0.64049 0.0
H891 H 0.95983 0.94055 0.68105 0.0
C892 C 0.0583 0.9666 0.80744 0.0
C893 C 0.06968 0.93936 0.81114 0.0
C894 C 0.03706 0.97101 0.79072 0.0
C895 C 0.02607 0.94825 0.77756 0.0
C896 C 0.03713 0.92087 0.7813 0.0
C897 C 0.0588 0.91644 0.79797 0.0
C898 C 0.00488 0.95415 0.75865 0.0
C899 C 0.01105 0.94564 0.73539 0.0
C900 C 0.98118 0.97201 0.76282 0.0
C901 C 0.97164 0.97904 0.78724 0.0
C902 C 0.9674 0.95735 0.804 0.0
C903 C 0.95886 0.96397 0.82706 0.0
C904 C 0.95439 0.99224 0.83359 0.0
C905 C 0.95841 0.01394 0.81706 0.0
C906 C 0.96696 0.00744 0.79397 0.0
C907 C 0.9294 0.02841 0.68377 0.0
C908 C 0.95011 0.04265 0.67031 0.0
C909 C 0.93719 0.00621 0.69899 0.0
C910 C 0.9658 0.99794 0.70105 0.0
C911 C 0.9862 0.01147 0.68684 0.0
C912 C 0.97842 0.03328 0.6715 0.0
C913 C 0.97536 0.97829 0.7201 0.0
C914 C 0.96693 0.9841 0.74346 0.0
C915 C 0.9963 0.95722 0.71601 0.0
C916 C 0.00355 0.94762 0.69165 0.0
C917 C 0.03203 0.94625 0.68418 0.0
C918 C 0.03866 0.93756 0.66116 0.0
C919 C 0.01701 0.9301 0.64542 0.0
C920 C 0.98867 0.93127 0.65269 0.0
C921 C 0.98192 0.93993 0.67569 0.0
H922 H 0.02219 0.92341 0.6276 0.0
H923 H 0.9478 0.99732 0.85146 0.0
H924 H 0.59522 0.08107 0.81301 0.0
H925 H 0.58229 0.04462 0.78392 0.0
H926 H 0.4955 0.04746 0.80849 0.0
H927 H 0.50842 0.0822 0.83809 0.0
H928 H 0.50455 0.99744 0.79578 0.0
H929 H 0.52274 0.0894 0.76007 0.0
H930 H 0.552 0.1311 0.74985 0.0
H931 H 0.61187 0.07708 0.71428 0.0
H932 H 0.58307 0.03501 0.72454 0.0
H933 H 0.4394 0.01626 0.67285 0.0
H934 H 0.47194 0.03089 0.70371 0.0
H935 H 0.48694 0.94319 0.72219 0.0
H936 H 0.45301 0.92826 0.69157 0.0
H937 H 0.52432 0.02581 0.71284 0.0
H938 H 0.49968 0.93908 0.78137 0.0
H939 H 0.46126 0.90562 0.79175 0.0
H940 H 0.39951 0.96245 0.7619 0.0
H941 H 0.43754 0.99633 0.7516 0.0
C942 C 0.57354 0.07343 0.81251 0.0
C943 C 0.55281 0.08493 0.82768 0.0
C944 C 0.56613 0.05267 0.7958 0.0
C945 C 0.53774 0.04367 0.79359 0.0
C946 C 0.51754 0.0539 0.80973 0.0
C947 C 0.52499 0.07407 0.82665 0.0
C948 C 0.52793 0.02608 0.77325 0.0
C949 C 0.50924 0.0034 0.77764 0.0
C950 C 0.53366 0.0339 0.74949 0.0
C951 C 0.55101 0.05908 0.74335 0.0
C952 C 0.54225 0.08643 0.7502 0.0
C953 C 0.55873 0.11011 0.74439 0.0
C954 C 0.58383 0.10673 0.7315 0.0
C955 C 0.59247 0.07965 0.72433 0.0
C956 C 0.57609 0.05589 0.73014 0.0
C957 C 0.44973 0.99992 0.68326 0.0
C958 C 0.44346 0.97104 0.67978 0.0
C959 C 0.46854 0.00838 0.70091 0.0
C960 C 0.4819 0.98822 0.71542 0.0
C961 C 0.47662 0.9592 0.71143 0.0
C962 C 0.45731 0.95067 0.69389 0.0
C963 C 0.49978 0.99829 0.73545 0.0
C964 C 0.52028 0.01928 0.73096 0.0
C965 C 0.49443 0.99008 0.75915 0.0
C966 C 0.47146 0.96995 0.76541 0.0
C967 C 0.4779 0.94439 0.77705 0.0
C968 C 0.4562 0.92538 0.78292 0.0
C969 C 0.42798 0.93185 0.77738 0.0
C970 C 0.42138 0.9574 0.76606 0.0
C971 C 0.44299 0.97649 0.76019 0.0
H972 H 0.41123 0.91709 0.78192 0.0
H973 H 0.59656 0.12509 0.72701 0.0
H974 H 0.61549 0.45774 0.68665 0.0
H975 H 0.59844 0.49153 0.71663 0.0
H976 H 0.51259 0.47977 0.69156 0.0
H977 H 0.52938 0.44782 0.66126 0.0
H978 H 0.51645 0.53039 0.70397 0.0
H979 H 0.54492 0.44052 0.7403 0.0
H980 H 0.57933 0.40318 0.75122 0.0
H981 H 0.63057 0.46496 0.78734 0.0
H982 H 0.59654 0.5027 0.77641 0.0
H983 H 0.44567 0.50038 0.82195 0.0
H984 H 0.48359 0.49096 0.79399 0.0
H985 H 0.48884 0.58032 0.77754 0.0
H986 H 0.44974 0.58987 0.80511 0.0
H987 H 0.53597 0.50309 0.78722 0.0
H988 H 0.50352 0.58753 0.71896 0.0
H989 H 0.46158 0.61589 0.70743 0.0
H990 H 0.40641 0.5507 0.73409 0.0
H991 H 0.448 0.52191 0.74552 0.0
C992 C 0.59309 0.4629 0.68729 0.0
C993 C 0.57381 0.44978 0.67171 0.0
C994 C 0.58333 0.48208 0.70451 0.0
C995 C 0.5541 0.48791 0.7067 0.0
C996 C 0.53522 0.47587 0.69032 0.0
C997 C 0.54493 0.45728 0.67299 0.0
C998 C 0.54216 0.50432 0.72694 0.0
C999 C 0.52112 0.52475 0.7222 0.0
C1000 C 0.54798 0.49701 0.7508 0.0
C1001 C 0.56846 0.47443 0.75727 0.0
C1002 C 0.56363 0.44613 0.75043 0.0
C1003 C 0.58304 0.42491 0.75664 0.0
C1004 C 0.60718 0.43171 0.76989 0.0
C1005 C 0.61191 0.45974 0.77701 0.0
C1006 C 0.59259 0.48105 0.77082 0.0
C1007 C 0.45499 0.51818 0.81262 0.0
C1008 C 0.44434 0.54586 0.81554 0.0
C1009 C 0.47692 0.51275 0.7967 0.0
C1010 C 0.48895 0.53485 0.78341 0.0
C1011 C 0.47959 0.56283 0.78731 0.0
C1012 C 0.45728 0.56827 0.8031 0.0
C1013 C 0.50916 0.5277 0.76406 0.0
C1014 C 0.53198 0.50941 0.76903 0.0
C1015 C 0.50394 0.53573 0.74029 0.0
C1016 C 0.47884 0.55284 0.73339 0.0
C1017 C 0.48243 0.5793 0.72234 0.0
C1018 C 0.45872 0.59543 0.71582 0.0
C1019 C 0.43135 0.58517 0.72013 0.0
C1020 C 0.42761 0.55869 0.73086 0.0
C1021 C 0.45123 0.54248 0.73738 0.0
H1022 H 0.41304 0.5977 0.71508 0.0
H1023 H 0.62217 0.41526 0.77469 0.0
H1024 H 0.96176 0.64348 0.18675 0.0
H1025 H 0.93831 0.6792 0.21166 0.0
H1026 H 0.01184 0.73336 0.20545 0.0
H1027 H 0.03524 0.69786 0.18095 0.0
H1028 H 0.96087 0.69122 0.25398 0.0
H1029 H 0.99684 0.80037 0.2133 0.0
H1030 H 0.99609 0.82396 0.17437 0.0
H1031 H 0.92819 0.76951 0.15176 0.0
H1032 H 0.92816 0.74584 0.19069 0.0
H1033 H 0.04009 0.78198 0.32138 0.0
H1034 H 0.01443 0.74989 0.29526 0.0
H1035 H 0.94506 0.80961 0.29103 0.0
H1036 H 0.97082 0.84201 0.31752 0.0
H1037 H 0.96537 0.79616 0.24792 0.0
H1038 H 0.93106 0.74421 0.31242 0.0
H1039 H 0.93109 0.72035 0.35127 0.0
H1040 H 0.99286 0.66039 0.32616 0.0
H1041 H 0.99366 0.68415 0.28731 0.0
C1042 C 0.97238 0.66351 0.18996 0.0
C1043 C 1.0004 0.66788 0.18215 0.0
C1044 C 0.959 0.68384 0.20423 0.0
C1045 C 0.97325 0.70898 0.21037 0.0
C1046 C 1.00018 0.71436 0.20068 0.0
C1047 C 0.01367 0.69396 0.1868 0.0
C1048 C 0.96332 0.72696 0.23027 0.0
C1049 C 0.96121 0.7142 0.25267 0.0
C1050 C 0.96268 0.75689 0.22844 0.0
C1051 C 0.96249 0.7713 0.20501 0.0
C1052 C 0.98154 0.79356 0.20014 0.0
C1053 C 0.98131 0.80692 0.17802 0.0
C1054 C 0.96211 0.79824 0.1606 0.0
C1055 C 0.94309 0.77619 0.16526 0.0
C1056 C 0.94322 0.76276 0.18734 0.0
C1057 C 0.01903 0.78797 0.31544 0.0
C1058 C 0.00754 0.81456 0.32131 0.0
C1059 C 0.00424 0.76949 0.30064 0.0
C1060 C 0.97772 0.77726 0.29129 0.0
C1061 C 0.96541 0.80314 0.2982 0.0
C1062 C 0.9801 0.82156 0.31335 0.0
C1063 C 0.96576 0.76028 0.27157 0.0
C1064 C 0.96378 0.77324 0.24923 0.0
C1065 C 0.96258 0.7305 0.27345 0.0
C1066 C 0.96235 0.71602 0.29685 0.0
C1067 C 0.94479 0.72605 0.3152 0.0
C1068 C 0.94466 0.71252 0.33724 0.0
C1069 C 0.96195 0.68887 0.34118 0.0
C1070 C 0.97943 0.67869 0.32307 0.0
C1071 C 0.97968 0.69216 0.30101 0.0
H1072 H 0.9618 0.67842 0.35825 0.0
H1073 H 0.96197 0.80861 0.14349 0.0
H1074 H 0.79587 0.06451 0.16933 0.0
H1075 H 0.77035 0.04297 0.20243 0.0
H1076 H 0.82769 0.97155 0.20107 0.0
H1077 H 0.85288 0.99269 0.16743 0.0
H1078 H 0.74593 0.98746 0.21782 0.0
H1079 H 0.8547 0.9735 0.25627 0.0
H1080 H 0.90427 0.98815 0.24851 0.0
H1081 H 0.87504 0.06916 0.22344 0.0
H1082 H 0.82543 0.05505 0.23131 0.0
H1083 H 0.71399 0.96817 0.33946 0.0
H1084 H 0.74512 0.95772 0.30572 0.0
H1085 H 0.76153 0.0472 0.29703 0.0
H1086 H 0.7298 0.05779 0.33014 0.0
H1087 H 0.80974 0.00824 0.28579 0.0
H1088 H 0.70813 0.0274 0.27004 0.0
H1089 H 0.65742 0.01702 0.27689 0.0
H1090 H 0.67061 0.93051 0.25544 0.0
H1091 H 0.72155 0.94035 0.24884 0.0
C1092 C 0.80217 0.0436 0.17539 0.0
C1093 C 0.82639 0.03032 0.16605 0.0
C1094 C 0.78753 0.03125 0.19419 0.0
C1095 C 0.79735 0.00584 0.20423 0.0
C1096 C 0.81978 0.99112 0.19342 0.0
C1097 C 0.83411 0.0032 0.17423 0.0
C1098 C 0.78835 0.99876 0.22853 0.0
C1099 C 0.76005 0.9911 0.2327 0.0
C1100 C 0.80672 0.00403 0.24789 0.0
C1101 C 0.83648 0.01317 0.24426 0.0
C1102 C 0.85894 0.99449 0.24927 0.0
C1103 C 0.887 0.00268 0.24483 0.0
C1104 C 0.89278 0.02956 0.23548 0.0
C1105 C 0.87053 0.04835 0.23067 0.0
C1106 C 0.84247 0.04028 0.23513 0.0
C1107 C 0.72518 0.98547 0.33093 0.0
C1108 C 0.71947 0.01379 0.33719 0.0
C1109 C 0.74287 0.97947 0.31168 0.0
C1110 C 0.75543 0.00172 0.29893 0.0
C1111 C 0.75212 0.02977 0.30679 0.0
C1112 C 0.73395 0.03581 0.32562 0.0
C1113 C 0.76732 0.99684 0.27511 0.0
C1114 C 0.79604 0.00285 0.27101 0.0
C1115 C 0.74927 0.99023 0.25582 0.0
C1116 C 0.71862 0.9845 0.25921 0.0
C1117 C 0.70022 0.00613 0.26693 0.0
C1118 C 0.67146 1.00036 0.27076 0.0
C1119 C 0.66081 0.9731 0.26667 0.0
C1120 C 0.6789 0.9516 0.25865 0.0
C1121 C 0.70771 0.95726 0.25487 0.0
H1122 H 0.63854 0.96866 0.26966 0.0
H1123 H 0.91448 0.03586 0.23198 0.0
H1124 H 0.44688 0.72768 0.33485 0.0
H1125 H 0.45609 0.76058 0.30219 0.0
H1126 H 0.52106 0.70425 0.27569 0.0
H1127 H 0.5132 0.67242 0.30926 0.0
H1128 H 0.53147 0.75641 0.26065 0.0
H1129 H 0.45005 0.69359 0.26208 0.0
H1130 H 0.40622 0.6742 0.27975 0.0
H1131 H 0.36736 0.75664 0.27656 0.0
H1132 H 0.41118 0.77659 0.25921 0.0
H1133 H 0.45015 0.76162 0.13858 0.0
H1134 H 0.45831 0.7429 0.17849 0.0
H1135 H 0.50469 0.81897 0.19668 0.0
H1136 H 0.49783 0.83684 0.15647 0.0
H1137 H 0.43971 0.76081 0.21752 0.0
H1138 H 0.54965 0.80647 0.24366 0.0
H1139 H 0.59494 0.81986 0.22478 0.0
H1140 H 0.57921 0.7607 0.16841 0.0
H1141 H 0.53397 0.74676 0.18706 0.0
C1142 C 0.46414 0.72318 0.32272 0.0
C1143 C 0.47926 0.69758 0.32435 0.0
C1144 C 0.46925 0.74183 0.30398 0.0
C1145 C 0.4885 0.73431 0.28602 0.0
C1146 C 0.50594 0.71038 0.28921 0.0
C1147 C 0.50147 0.6922 0.30842 0.0
C1148 C 0.48663 0.74778 0.2623 0.0
C1149 C 0.51142 0.75764 0.25124 0.0
C1150 C 0.46055 0.7487 0.24978 0.0
C1151 C 0.43393 0.73661 0.25957 0.0
C1152 C 0.43217 0.70757 0.26521 0.0
C1153 C 0.40736 0.6965 0.27519 0.0
C1154 C 0.38404 0.71419 0.27933 0.0
C1155 C 0.38546 0.74298 0.27338 0.0
C1156 C 0.41027 0.75418 0.26348 0.0
C1157 C 0.46268 0.77389 0.151 0.0
C1158 C 0.4737 0.80036 0.14447 0.0
C1159 C 0.46716 0.76338 0.17383 0.0
C1160 C 0.48227 0.77943 0.19067 0.0
C1161 C 0.49353 0.80585 0.18398 0.0
C1162 C 0.48959 0.81606 0.16099 0.0
C1163 C 0.4847 0.76907 0.21547 0.0
C1164 C 0.45984 0.75993 0.22686 0.0
C1165 C 0.51089 0.76792 0.22786 0.0
C1166 C 0.5382 0.77591 0.21659 0.0
C1167 C 0.55585 0.79632 0.22724 0.0
C1168 C 0.58153 0.804 0.21658 0.0
C1169 C 0.58988 0.79124 0.19535 0.0
C1170 C 0.57264 0.77068 0.18479 0.0
C1171 C 0.54695 0.76292 0.19538 0.0
H1172 H 0.60976 0.79721 0.18713 0.0
H1173 H 0.36487 0.7056 0.2871 0.0
H1174 H 0.64364 0.50791 0.18906 0.0
H1175 H 0.67533 0.5204 0.2214 0.0
H1176 H 0.74732 0.49342 0.17955 0.0
H1177 H 0.71496 0.47841 0.14805 0.0
H1178 H 0.74909 0.46566 0.21522 0.0
H1179 H 0.73963 0.56398 0.20687 0.0
H1180 H 0.71704 0.61052 0.20017 0.0
H1181 H 0.66832 0.60066 0.2639 0.0
H1182 H 0.69026 0.55387 0.27084 0.0
H1183 H 0.81351 0.50259 0.33568 0.0
H1184 H 0.79135 0.52252 0.30003 0.0
H1185 H 0.73737 0.44878 0.29484 0.0
H1186 H 0.76015 0.42836 0.32975 0.0
H1187 H 0.73927 0.53594 0.28014 0.0
H1188 H 0.74296 0.42119 0.24179 0.0
H1189 H 0.77103 0.37746 0.2474 0.0
H1190 H 0.84151 0.4267 0.27273 0.0
H1191 H 0.81406 0.47076 0.26687 0.0
C1192 C 0.66635 0.50587 0.18642 0.0
C1193 C 0.677 0.4922 0.16624 0.0
C1194 C 0.68461 0.51318 0.20493 0.0
C1195 C 0.71393 0.50773 0.20318 0.0
C1196 C 0.7248 0.49749 0.18157 0.0
C1197 C 0.7064 0.48915 0.16344 0.0
C1198 C 0.73159 0.50644 0.22507 0.0
C1199 C 0.74723 0.48147 0.22909 0.0
C1200 C 0.72994 0.5271 0.24333 0.0
C1201 C 0.71658 0.5553 0.23933 0.0
C1202 C 0.72396 0.57163 0.21939 0.0
C1203 C 0.71128 0.59808 0.21556 0.0
C1204 C 0.69124 0.60853 0.23159 0.0
C1205 C 0.68387 0.59256 0.25151 0.0
C1206 C 0.69648 0.56608 0.25543 0.0
C1207 C 0.79629 0.49109 0.32732 0.0
C1208 C 0.78881 0.46374 0.33516 0.0
C1209 C 0.78367 0.50251 0.30698 0.0
C1210 C 0.76327 0.48678 0.2945 0.0
C1211 C 0.75354 0.46097 0.30396 0.0
C1212 C 0.76649 0.44934 0.32392 0.0
C1213 C 0.755 0.49479 0.27008 0.0
C1214 C 0.7414 0.5208 0.26578 0.0
C1215 C 0.7594 0.47568 0.25113 0.0
C1216 C 0.77636 0.44927 0.25402 0.0
C1217 C 0.76452 0.42271 0.24838 0.0
C1218 C 0.78031 0.39786 0.25164 0.0
C1219 C 0.80801 0.3993 0.26046 0.0
C1220 C 0.82003 0.42561 0.26594 0.0
C1221 C 0.80436 0.45052 0.26266 0.0
H1222 H 0.82016 0.38003 0.26303 0.0
H1223 H 0.68145 0.62902 0.22859 0.0
H1224 H 0.98805 0.21008 0.63852 0.0
H1225 H 0.00688 0.24994 0.66197 0.0
H1226 H 0.99468 0.20134 0.72597 0.0
H1227 H 0.97571 0.1621 0.70289 0.0
H1228 H 0.97371 0.27698 0.69368 0.0
H1229 H 0.04048 0.21946 0.76773 0.0
H1230 H 0.07811 0.18316 0.76983 0.0
H1231 H 0.10147 0.20062 0.69779 0.0
H1232 H 0.06431 0.23735 0.69533 0.0
H1233 H 0.93561 0.32055 0.80277 0.0
H1234 H 0.95255 0.28997 0.77098 0.0
H1235 H 0.03435 0.33113 0.77321 0.0
H1236 H 0.01756 0.36163 0.80577 0.0
H1237 H 0.03738 0.27188 0.76368 0.0
H1238 H 0.99173 0.35352 0.73178 0.0
H1239 H 0.95443 0.39023 0.7295 0.0
H1240 H 0.89195 0.32617 0.71492 0.0
H1241 H 0.92878 0.28904 0.71758 0.0
C1242 C 0.99011 0.2078 0.65754 0.0
C1243 C 0.98013 0.18328 0.66899 0.0
C1244 C 0.0009 0.23046 0.67087 0.0
C1245 C 0.00246 0.22847 0.69568 0.0
C1246 C 0.9942 0.2032 0.70684 0.0
C1247 C 0.98301 0.1809 0.69365 0.0
C1248 C 0.0076 0.25382 0.71057 0.0
C1249 C 0.98817 0.27625 0.70864 0.0
C1250 C 0.02688 0.25318 0.72982 0.0
C1251 C 0.04949 0.23122 0.73135 0.0
C1252 C 0.05377 0.21577 0.75239 0.0
C1253 C 0.075 0.19505 0.75362 0.0
C1254 C 0.09216 0.18957 0.73396 0.0
C1255 C 0.08813 0.20483 0.71301 0.0
C1256 C 0.06695 0.22558 0.71167 0.0
C1257 C 0.9574 0.32271 0.79686 0.0
C1258 C 0.9752 0.34361 0.80649 0.0
C1259 C 0.96702 0.30533 0.77865 0.0
C1260 C 0.99441 0.3089 0.76935 0.0
C1261 C 0.01304 0.3283 0.78005 0.0
C1262 C 0.00348 0.34557 0.79864 0.0
C1263 C 0.00215 0.29352 0.74745 0.0
C1264 C 0.02385 0.27315 0.74817 0.0
C1265 C 0.98522 0.29619 0.72685 0.0
C1266 C 0.96306 0.31851 0.72473 0.0
C1267 C 0.97003 0.34726 0.72811 0.0
C1268 C 0.94896 0.36814 0.7268 0.0
C1269 C 0.92085 0.36054 0.72202 0.0
C1270 C 0.91375 0.33204 0.71854 0.0
C1271 C 0.93472 0.31108 0.71989 0.0
H1272 H 0.90456 0.37673 0.72104 0.0
H1273 H 0.10857 0.17351 0.73495 0.0
H1274 H 0.32646 0.03237 0.65898 0.0
H1275 H 0.29907 0.04956 0.69297 0.0
H1276 H 0.25315 0.97038 0.69498 0.0
H1277 H 0.28097 0.95288 0.66157 0.0
H1278 H 0.22148 0.0188 0.71259 0.0
H1279 H 0.31304 0.96832 0.72034 0.0
H1280 H 0.36405 0.96383 0.71094 0.0
H1281 H 0.37934 0.04682 0.73975 0.0
H1282 H 0.32825 0.05196 0.74891 0.0
H1283 H 0.23146 0.9393 0.82079 0.0
H1284 H 0.25879 0.9614 0.78911 0.0
H1285 H 0.21511 0.04065 0.80103 0.0
H1286 H 0.18781 0.01867 0.83306 0.0
H1287 H 0.29215 0.00921 0.77748 0.0
H1288 H 0.18844 0.05741 0.74606 0.0
H1289 H 0.13695 0.05445 0.75416 0.0
H1290 H 0.14574 0.96631 0.7723 0.0
H1291 H 0.19714 0.96871 0.76393 0.0
C1292 C 0.30944 0.01929 0.66588 0.0
C1293 C 0.30588 0.99123 0.65793 0.0
C1294 C 0.29391 0.0291 0.68533 0.0
C1295 C 0.27444 0.01105 0.69659 0.0
C1296 C 0.26807 0.98461 0.68647 0.0
C1297 C 0.28397 0.9746 0.6674 0.0
C1298 C 0.26589 0.0161 0.72138 0.0
C1299 C 0.23692 0.01774 0.72684 0.0
C1300 C 0.2861 0.01402 0.7399 0.0
C1301 C 0.31686 0.01066 0.73504 0.0
C1302 C 0.32728 0.98566 0.72454 0.0
C1303 C 0.35618 0.983 0.71925 0.0
C1304 C 0.3749 0.00508 0.72465 0.0
C1305 C 0.36478 0.02978 0.73549 0.0
C1306 C 0.33586 0.0326 0.74072 0.0
C1307 C 0.22853 0.96174 0.81734 0.0
C1308 C 0.20721 0.97715 0.82904 0.0
C1309 C 0.24427 0.97441 0.79932 0.0
C1310 C 0.23858 0.0025 0.79253 0.0
C1311 C 0.21968 0.01891 0.80601 0.0
C1312 C 0.20414 0.00631 0.82432 0.0
C1313 C 0.24769 0.01183 0.76873 0.0
C1314 C 0.27676 0.01231 0.7634 0.0
C1315 C 0.22755 0.01526 0.75028 0.0
C1316 C 0.19659 0.01337 0.75467 0.0
C1317 C 0.17931 0.03741 0.75169 0.0
C1318 C 0.15017 0.03582 0.75632 0.0
C1319 C 0.1381 0.01024 0.76383 0.0
C1320 C 0.15512 0.98613 0.76655 0.0
C1321 C 0.18424 0.98759 0.76185 0.0
H1322 H 0.11556 0.00907 0.76747 0.0
H1323 H 0.39725 0.00301 0.72049 0.0
H1324 H 0.56439 0.17436 0.82295 0.0
H1325 H 0.56604 0.19641 0.78401 0.0
H1326 H 0.50545 0.25932 0.80688 0.0
H1327 H 0.50546 0.2384 0.84686 0.0
H1328 H 0.49793 0.22457 0.75798 0.0
H1329 H 0.55766 0.28677 0.80431 0.0
H1330 H 0.59649 0.29916 0.83169 0.0
H1331 H 0.657 0.26065 0.78474 0.0
H1332 H 0.6184 0.24708 0.75749 0.0
H1333 H 0.51813 0.32552 0.66317 0.0
H1334 H 0.50617 0.29576 0.69727 0.0
H1335 H 0.58849 0.25565 0.69293 0.0
H1336 H 0.60084 0.28627 0.6596 0.0
H1337 H 0.58246 0.2801 0.73361 0.0
H1338 H 0.52438 0.21823 0.68679 0.0
H1339 H 0.48648 0.20555 0.65857 0.0
H1340 H 0.42408 0.24273 0.70456 0.0
H1341 H 0.46166 0.25599 0.73293 0.0
C1342 C 0.55258 0.19368 0.8202 0.0
C1343 C 0.53624 0.20572 0.83842 0.0
C1344 C 0.55291 0.20579 0.7977 0.0
C1345 C 0.53613 0.22961 0.79278 0.0
C1346 C 0.51868 0.24101 0.81052 0.0
C1347 C 0.51884 0.22919 0.83327 0.0
C1348 C 0.53768 0.24275 0.76913 0.0
C1349 C 0.51614 0.23711 0.7526 0.0
C1350 C 0.56188 0.25831 0.76218 0.0
C1351 C 0.58502 0.26547 0.77904 0.0
C1352 C 0.57915 0.28038 0.80006 0.0
C1353 C 0.60115 0.2877 0.81553 0.0
C1354 C 0.62919 0.28059 0.81002 0.0
C1355 C 0.63527 0.26605 0.78905 0.0
C1356 C 0.61332 0.25843 0.77363 0.0
C1357 C 0.53311 0.30944 0.66887 0.0
C1358 C 0.56043 0.30819 0.65897 0.0
C1359 C 0.5263 0.29246 0.6884 0.0
C1360 C 0.54657 0.27368 0.69785 0.0
C1361 C 0.57264 0.27021 0.68611 0.0
C1362 C 0.57963 0.28753 0.66698 0.0
C1363 C 0.54293 0.26162 0.72194 0.0
C1364 C 0.56415 0.26754 0.73872 0.0
C1365 C 0.51852 0.24622 0.72895 0.0
C1366 C 0.49589 0.23837 0.71188 0.0
C1367 C 0.50261 0.22395 0.69079 0.0
C1368 C 0.48118 0.2166 0.67478 0.0
C1369 C 0.4529 0.2234 0.67973 0.0
C1370 C 0.446 0.23751 0.70073 0.0
C1371 C 0.46736 0.24491 0.71679 0.0
H1372 H 0.43634 0.21768 0.66732 0.0
H1373 H 0.64621 0.28647 0.82194 0.0
H1374 H 0.31504 0.47704 0.82438 0.0
H1375 H 0.28178 0.46004 0.79396 0.0
H1376 H 0.24594 0.54414 0.78867 0.0
H1377 H 0.27918 0.56117 0.81857 0.0
H1378 H 0.20543 0.50123 0.78156 0.0
H1379 H 0.30124 0.52976 0.75542 0.0
H1380 H 0.35346 0.52499 0.75585 0.0
H1381 H 0.3461 0.43734 0.73576 0.0
H1382 H 0.29378 0.44159 0.73547 0.0
H1383 H 0.2135 0.55996 0.6619 0.0
H1384 H 0.23851 0.53706 0.69443 0.0
H1385 H 0.17311 0.47309 0.69849 0.0
H1386 H 0.14779 0.49612 0.6657 0.0
H1387 H 0.26053 0.48642 0.70765 0.0
H1388 H 0.15949 0.46664 0.76042 0.0
H1389 H 0.10857 0.47934 0.76103 0.0
H1390 H 0.12744 0.55912 0.72774 0.0
H1391 H 0.17846 0.54705 0.72729 0.0
C1392 C 0.29935 0.49157 0.81729 0.0
C1393 C 0.29978 0.52046 0.82355 0.0
C1394 C 0.28044 0.48186 0.79993 0.0
C1395 C 0.26158 0.5009 0.78899 0.0
C1396 C 0.26023 0.52908 0.79697 0.0
C1397 C 0.27934 0.53884 0.81394 0.0
C1398 C 0.24682 0.49357 0.76668 0.0
C1399 C 0.21728 0.49706 0.76544 0.0
C1400 C 0.26236 0.48842 0.74567 0.0
C1401 C 0.29371 0.48588 0.74571 0.0
C1402 C 0.3108 0.50944 0.75125 0.0
C1403 C 0.34038 0.50685 0.75145 0.0
C1404 C 0.35309 0.48085 0.74592 0.0
C1405 C 0.33622 0.45743 0.74011 0.0
C1406 C 0.30662 0.45992 0.73992 0.0
C1407 C 0.20491 0.54048 0.66917 0.0
C1408 C 0.17856 0.53003 0.66149 0.0
C1409 C 0.21927 0.52732 0.68773 0.0
C1410 C 0.20742 0.50364 0.69913 0.0
C1411 C 0.18247 0.49149 0.69003 0.0
C1412 C 0.16814 0.50458 0.67122 0.0
C1413 C 0.2192 0.49505 0.72238 0.0
C1414 C 0.24829 0.48873 0.72382 0.0
C1415 C 0.20328 0.49824 0.74353 0.0
C1416 C 0.17267 0.5057 0.74344 0.0
C1417 C 0.15272 0.48686 0.75319 0.0
C1418 C 0.12387 0.49397 0.75356 0.0
C1419 C 0.11476 0.51996 0.74433 0.0
C1420 C 0.1345 0.53894 0.73479 0.0
C1421 C 0.16338 0.53196 0.73446 0.0
H1422 H 0.09242 0.52544 0.74465 0.0
H1423 H 0.37599 0.47888 0.74607 0.0
H1424 H 0.97095 0.5479 0.09505 0.0
H1425 H 0.96505 0.52063 0.05868 0.0
H1426 H 0.05406 0.53123 0.04284 0.0
H1427 H 0.06008 0.5591 0.07919 0.0
H1428 H 0.0217 0.53713 0.00361 0.0
H1429 H 0.02993 0.46949 0.06658 0.0
H1430 H 0.01831 0.44811 0.10525 0.0
H1431 H 0.93279 0.43304 0.08199 0.0
H1432 H 0.94379 0.45471 0.04328 0.0
H1433 H 0.02583 0.43252 0.91509 0.0
H1434 H 0.03522 0.45547 0.95304 0.0
H1435 H 0.94634 0.44976 0.97094 0.0
H1436 H 0.93677 0.42639 0.93302 0.0
H1437 H 0.9807 0.44027 0.00943 0.0
H1438 H 0.97205 0.50971 0.94721 0.0
H1439 H 0.98357 0.53113 0.90853 0.0
H1440 H 0.07009 0.5428 0.93057 0.0
H1441 H 0.05916 0.52104 0.96927 0.0
C1442 C 0.98927 0.54466 0.08376 0.0
C1443 C 0.01605 0.55547 0.09009 0.0
C1444 C 0.98587 0.52892 0.06303 0.0
C1445 C 0.00924 0.52337 0.04833 0.0
C1446 C 0.03579 0.53511 0.05405 0.0
C1447 C 0.03919 0.55103 0.07479 0.0
C1448 C 0.0059 0.5049 0.02723 0.0
C1449 C 0.01318 0.51579 0.00493 0.0
C1450 C 0.99424 0.47724 0.02891 0.0
C1451 C 0.98763 0.46394 0.0521 0.0
C1452 C 0.00859 0.46179 0.06977 0.0
C1453 C 0.00212 0.4496 0.09168 0.0
C1454 C 0.97481 0.43928 0.09609 0.0
C1455 C 0.95393 0.44106 0.07856 0.0
C1456 C 0.96028 0.45327 0.05662 0.0
C1457 C 0.00832 0.43566 0.92726 0.0
C1458 C 0.98048 0.42793 0.92095 0.0
C1459 C 0.01373 0.44889 0.94891 0.0
C1460 C 0.99138 0.45488 0.96455 0.0
C1461 C 0.96386 0.44549 0.95903 0.0
C1462 C 0.95843 0.43212 0.93736 0.0
C1463 C 0.9964 0.47256 0.98586 0.0
C1464 C 0.9894 0.46154 0.00817 0.0
C1465 C 0.00832 0.5001 0.9842 0.0
C1466 C 0.01485 0.51349 0.96104 0.0
C1467 C 0.99358 0.51666 0.94374 0.0
C1468 C 0.99999 0.52888 0.92183 0.0
C1469 C 0.02756 0.53825 0.91707 0.0
C1470 C 0.04875 0.53549 0.93426 0.0
C1471 C 0.04246 0.52323 0.95619 0.0
H1472 H 0.03249 0.5477 0.90009 0.0
H1473 H 0.96984 0.42985 0.11307 0.0
H1474 H 0.0944 0.02344 0.91825 0.0
H1475 H 0.0596 0.03481 0.94874 0.0
H1476 H 0.05283 0.94602 0.96668 0.0
H1477 H 0.08761 0.93436 0.93587 0.0
H1478 H 0.00116 0.97005 0.95913 0.0
H1479 H 0.08395 0.9918 0.00461 0.0
H1480 H 0.13027 0.01395 0.01316 0.0
H1481 H 0.09298 0.09677 0.00627 0.0
H1482 H 0.04649 0.07512 0.99735 0.0
H1483 H 0.92434 0.98795 0.06679 0.0
H1484 H 0.95618 0.97653 0.03409 0.0
H1485 H 0.96075 0.06524 0.01544 0.0
H1486 H 0.92882 0.0769 0.04831 0.0
H1487 H 0.01307 0.04151 0.0229 0.0
H1488 H 0.92976 0.01924 0.97825 0.0
H1489 H 0.88354 0.99663 0.9702 0.0
H1490 H 0.92187 0.91419 0.9762 0.0
H1491 H 0.96827 0.9363 0.98462 0.0
C1492 C 0.08594 0.00634 0.92896 0.0
C1493 C 0.09369 0.97798 0.92462 0.0
C1494 C 0.06606 0.0129 0.94642 0.0
C1495 C 0.05365 0.99126 0.95997 0.0
C1496 C 0.06216 0.96301 0.95635 0.0
C1497 C 0.08217 0.95641 0.93889 0.0
C1498 C 0.03047 0.99811 0.97676 0.0
C1499 C 0.00385 0.98533 0.97334 0.0
C1500 C 0.03383 0.01871 0.99477 0.0
C1501 C 0.06178 0.03182 8e-05 0.0
C1502 C 0.08567 0.01474 0.00471 0.0
C1503 C 0.11195 0.0272 0.00967 0.0
C1504 C 0.11458 0.05675 0.0102 0.0
C1505 C 0.09092 0.07389 0.00583 0.0
C1506 C 0.06459 0.06153 0.00084 0.0
C1507 C 0.93152 0.00497 0.05537 0.0
C1508 C 0.92425 0.03335 0.06019 0.0
C1509 C 0.94967 0.99839 0.03664 0.0
C1510 C 0.96087 0.02005 0.02241 0.0
C1511 C 0.95233 0.04824 0.02629 0.0
C1512 C 0.93395 0.05484 0.04495 0.0
C1513 C 0.98373 0.01348 0.00527 0.0
C1514 C 0.01033 0.02629 0.00865 0.0
C1515 C 0.98037 0.99284 0.9873 0.0
C1516 C 0.95246 0.97945 0.98229 0.0
C1517 C 0.9283 0.99629 0.97807 0.0
C1518 C 0.90207 0.98356 0.97339 0.0
C1519 C 0.89975 0.95399 0.97275 0.0
C1520 C 0.92369 0.93709 0.97673 0.0
C1521 C 0.94997 0.94971 0.98143 0.0
H1522 H 0.87943 0.94418 0.96911 0.0
H1523 H 0.13495 0.06636 0.01405 0.0
H1524 H 0.51072 0.93878 0.07642 0.0
H1525 H 0.51157 0.97904 0.04928 0.0
H1526 H 0.4273 0.95787 0.02506 0.0
H1527 H 0.42629 0.91723 0.05216 0.0
H1528 H 0.46352 0.97104 0.98852 0.0
H1529 H 0.43559 0.01203 0.06246 0.0
H1530 H 0.43906 0.02155 0.10531 0.0
H1531 H 0.52064 0.06039 0.09516 0.0
H1532 H 0.51787 0.05072 0.05228 0.0
H1533 H 0.45243 0.0977 0.92296 0.0
H1534 H 0.441 0.06282 0.95354 0.0
H1535 H 0.5229 0.07646 0.98588 0.0
H1536 H 0.53431 0.11174 0.95565 0.0
H1537 H 0.48239 0.06812 0.01898 0.0
H1538 H 0.51307 0.02287 0.94667 0.0
H1539 H 0.51135 0.01261 0.90385 0.0
H1540 H 0.42624 0.98104 0.91109 0.0
H1541 H 0.42732 0.99152 0.95392 0.0
C1542 C 0.49238 0.94255 0.06526 0.0
C1543 C 0.46837 0.92487 0.0665 0.0
C1544 C 0.49285 0.96569 0.04986 0.0
C1545 C 0.46931 0.97169 0.03548 0.0
C1546 C 0.4456 0.95366 0.03615 0.0
C1547 C 0.44507 0.93048 0.05162 0.0
C1548 C 0.46973 0.99672 0.01964 0.0
C1549 C 0.46707 0.99236 0.99519 0.0
C1550 C 0.47495 0.0244 0.02839 0.0
C1551 C 0.4766 0.03046 0.05416 0.0
C1552 C 0.45437 0.02242 0.06938 0.0
C1553 C 0.45619 0.02787 0.09368 0.0
C1554 C 0.48008 0.04151 0.10296 0.0
C1555 C 0.50216 0.0498 0.08795 0.0
C1556 C 0.50046 0.04438 0.06364 0.0
C1557 C 0.4678 0.09369 0.93684 0.0
C1558 C 0.49442 0.10721 0.93673 0.0
C1559 C 0.46127 0.07367 0.95424 0.0
C1560 C 0.48135 0.06664 0.97166 0.0
C1561 C 0.50716 0.08149 0.97252 0.0
C1562 C 0.51366 0.10162 0.9552 0.0
C1563 C 0.4765 0.04238 0.98784 0.0
C1564 C 0.47841 0.04687 0.01234 0.0
C1565 C 0.47077 0.01476 0.97914 0.0
C1566 C 0.47015 0.00828 0.95343 0.0
C1567 C 0.49391 0.01394 0.93909 0.0
C1568 C 0.49306 0.00806 0.91483 0.0
C1569 C 0.46867 0.99626 0.90474 0.0
C1570 C 0.4451 0.99024 0.91892 0.0
C1571 C 0.44582 0.99614 0.94319 0.0
H1572 H 0.46805 0.99172 0.88596 0.0
H1573 H 0.48145 0.04571 0.12177 0.0
H1574 H 0.39612 0.48892 0.93542 0.0
H1575 H 0.42754 0.48807 0.96992 0.0
H1576 H 0.44645 0.57681 0.95968 0.0
H1577 H 0.41466 0.57797 0.92531 0.0
H1578 H 0.4949 0.54056 0.9614 0.0
H1579 H 0.41116 0.56119 0.00621 0.0
H1580 H 0.36155 0.55484 0.01912 0.0
H1581 H 0.38108 0.4708 0.04374 0.0
H1582 H 0.43074 0.47649 0.03066 0.0
H1583 H 0.547 0.5308 0.09258 0.0
H1584 H 0.51382 0.54557 0.0618 0.0
H1585 H 0.54575 0.47992 0.01566 0.0
H1586 H 0.57911 0.46477 0.04656 0.0
H1587 H 0.47141 0.51163 0.04358 0.0
H1588 H 0.53884 0.50549 0.95814 0.0
H1589 H 0.58843 0.51288 0.94545 0.0
H1590 H 0.60135 0.57125 0.00288 0.0
H1591 H 0.55175 0.56452 0.01571 0.0
C1592 C 0.40642 0.50842 0.94086 0.0
C1593 C 0.40301 0.5335 0.92767 0.0
C1594 C 0.42436 0.5079 0.96055 0.0
C1595 C 0.43937 0.53234 0.9672 0.0
C1596 C 0.43504 0.55774 0.95473 0.0
C1597 C 0.41673 0.5584 0.93524 0.0
C1598 C 0.46128 0.53058 0.9859 0.0
C1599 C 0.4898 0.53443 0.97943 0.0
C1600 C 0.45449 0.52272 0.00937 0.0
C1601 C 0.42464 0.5192 0.01727 0.0
C1602 C 0.40483 0.54126 0.01419 0.0
C1603 C 0.37671 0.5378 0.02158 0.0
C1604 C 0.36816 0.51241 0.0322 0.0
C1605 C 0.38773 0.49045 0.0355 0.0
C1606 C 0.41588 0.4938 0.02812 0.0
C1607 C 0.54734 0.51971 0.07577 0.0
C1608 C 0.56561 0.49648 0.07204 0.0
C1609 C 0.52825 0.52815 0.05825 0.0
C1610 C 0.52729 0.5138 0.03654 0.0
C1611 C 0.54632 0.49138 0.0323 0.0
C1612 C 0.56534 0.48275 0.04994 0.0
C1613 C 0.5051 0.52111 0.019 0.0
C1614 C 0.47653 0.51807 0.02563 0.0
C1615 C 0.51186 0.52982 0.99572 0.0
C1616 C 0.54164 0.53427 0.988 0.0
C1617 C 0.55223 0.51998 0.968 0.0
C1618 C 0.58035 0.52405 0.96079 0.0
C1619 C 0.59805 0.54245 0.97339 0.0
C1620 C 0.58765 0.55691 0.99319 0.0
C1621 C 0.55955 0.55294 0.00046 0.0
H1622 H 0.61981 0.54556 0.96779 0.0
H1623 H 0.34638 0.50977 0.03792 0.0
H1624 H 0.02679 0.90124 0.44081 0.0
H1625 H 0.01083 0.93054 0.47419 0.0
H1626 H 0.97012 0.98815 0.42526 0.0
H1627 H 0.98434 0.95815 0.39235 0.0
H1628 H 0.02308 0.97915 0.48725 0.0
H1629 H 0.91714 0.02459 0.44779 0.0
H1630 H 0.87689 0.00774 0.42361 0.0
H1631 H 0.8947 0.92173 0.44402 0.0
H1632 H 0.93479 0.93807 0.46858 0.0
H1633 H 0.99659 0.10332 0.54869 0.0
H1634 H 0.00187 0.0701 0.51571 0.0
H1635 H 0.92441 0.02795 0.53666 0.0
H1636 H 0.91814 0.06239 0.56861 0.0
H1637 H 0.92769 0.0235 0.49265 0.0
H1638 H 0.9929 0.00401 0.55429 0.0
H1639 H 0.03028 0.01374 0.5838 0.0
H1640 H 0.08869 0.03471 0.52808 0.0
H1641 H 0.05152 0.02545 0.49824 0.0
C1642 C 0.014 0.91991 0.43733 0.0
C1643 C 0.00657 0.92728 0.41405 0.0
C1644 C 0.00496 0.93671 0.45637 0.0
C1645 C 0.98881 0.96143 0.45238 0.0
C1646 C 0.98165 0.96877 0.42903 0.0
C1647 C 0.99001 0.95166 0.41014 0.0
C1648 C 0.98097 0.98064 0.47229 0.0
C1649 C 0.00214 0.98864 0.48847 0.0
C1650 C 0.95341 0.99254 0.47449 0.0
C1651 C 0.92914 0.98257 0.45988 0.0
C1652 C 0.91239 0.0021 0.44722 0.0
C1653 C 0.88962 0.99263 0.43342 0.0
C1654 C 0.88329 0.96368 0.43223 0.0
C1655 C 0.89968 0.94414 0.44489 0.0
C1656 C 0.92246 0.95349 0.45872 0.0
C1657 C 0.9803 0.08746 0.54577 0.0
C1658 C 0.95703 0.0853 0.56117 0.0
C1659 C 0.98349 0.06825 0.52713 0.0
C1660 C 0.9641 0.04581 0.52419 0.0
C1661 C 0.9398 0.04488 0.53862 0.0
C1662 C 0.93617 0.06464 0.55684 0.0
C1663 C 0.97005 0.02253 0.50707 0.0
C1664 C 0.94854 0.01378 0.49148 0.0
C1665 C 0.99684 0.0088 0.5062 0.0
C1666 C 0.01935 0.01426 0.52405 0.0
C1667 C 0.01367 0.01085 0.54834 0.0
C1668 C 0.03482 0.01627 0.56512 0.0
C1669 C 0.06182 0.0249 0.55782 0.0
C1670 C 0.06775 0.02805 0.53371 0.0
C1671 C 0.04666 0.0227 0.51685 0.0
H1672 H 0.07817 0.02908 0.57084 0.0
H1673 H 0.86566 0.95639 0.42152 0.0
H1674 H 0.60139 0.04634 0.4418 0.0
H1675 H 0.56413 0.04068 0.47141 0.0
H1676 H 0.58128 0.95076 0.47474 0.0
H1677 H 0.61834 0.95616 0.4448 0.0
H1678 H 0.52629 0.96076 0.46637 0.0
H1679 H 0.59549 0.99441 0.52185 0.0
H1680 H 0.63212 0.02676 0.53753 0.0
H1681 H 0.57166 0.09504 0.53887 0.0
H1682 H 0.53475 0.0632 0.52288 0.0
H1683 H 0.4318 0.93403 0.56333 0.0
H1684 H 0.47067 0.93754 0.53479 0.0
H1685 H 0.45766 0.02807 0.53007 0.0
H1686 H 0.41917 0.02481 0.55887 0.0
H1687 H 0.51147 0.01632 0.53993 0.0
H1688 H 0.4428 0.98366 0.48341 0.0
H1689 H 0.40594 0.95188 0.46731 0.0
H1690 H 0.46506 0.88241 0.46751 0.0
H1691 H 0.50219 0.9137 0.48392 0.0
C1692 C 0.59779 0.02547 0.44928 0.0
C1693 C 0.61268 0.00166 0.44082 0.0
C1694 C 0.57645 0.02227 0.46624 0.0
C1695 C 0.56985 0.99527 0.47522 0.0
C1696 C 0.58593 0.97176 0.46792 0.0
C1697 C 0.60723 0.97492 0.45092 0.0
C1698 C 0.54455 0.99125 0.49045 0.0
C1699 C 0.52326 0.97252 0.4827 0.0
C1700 C 0.54025 0.00725 0.51133 0.0
C1701 C 0.56241 0.02645 0.52097 0.0
C1702 C 0.59006 0.01638 0.52531 0.0
C1703 C 0.61086 0.03461 0.53429 0.0
C1704 C 0.60424 0.06295 0.53914 0.0
C1705 C 0.57677 0.07309 0.53508 0.0
C1706 C 0.55589 0.05495 0.52609 0.0
C1707 C 0.43671 0.95457 0.55573 0.0
C1708 C 0.42257 0.97917 0.56347 0.0
C1709 C 0.45897 0.95655 0.53944 0.0
C1710 C 0.46716 0.98311 0.53041 0.0
C1711 C 0.45184 0.00741 0.53698 0.0
C1712 C 0.42974 0.00548 0.55334 0.0
C1713 C 0.49313 0.98597 0.51578 0.0
C1714 C 0.51455 0.00447 0.52365 0.0
C1715 C 0.4975 0.96983 0.49498 0.0
C1716 C 0.4752 0.95097 0.48513 0.0
C1717 C 0.44788 0.96155 0.48022 0.0
C1718 C 0.42694 0.94363 0.471 0.0
C1719 C 0.43313 0.91513 0.46646 0.0
C1720 C 0.46029 0.90449 0.47107 0.0
C1721 C 0.48129 0.92231 0.48032 0.0
H1722 H 0.4169 0.90129 0.45931 0.0
H1723 H 0.62038 0.07703 0.54609 0.0
H1724 H 0.5026 0.41541 0.56369 0.0
H1725 H 0.49099 0.44999 0.5331 0.0
H1726 H 0.58005 0.45992 0.51717 0.0
H1727 H 0.59194 0.42555 0.5482 0.0
H1728 H 0.5552 0.51032 0.52398 0.0
H1729 H 0.53455 0.42762 0.47798 0.0
H1730 H 0.51282 0.3812 0.46909 0.0
H1731 H 0.42964 0.41781 0.47561 0.0
H1732 H 0.45087 0.46438 0.48487 0.0
H1733 H 0.5362 0.59054 0.41795 0.0
H1734 H 0.54826 0.55698 0.44931 0.0
H1735 H 0.45971 0.54997 0.46797 0.0
H1736 H 0.4474 0.58357 0.43647 0.0
H1737 H 0.48432 0.49828 0.45976 0.0
H1738 H 0.50528 0.58113 0.50553 0.0
H1739 H 0.52725 0.62751 0.51412 0.0
H1740 H 0.61025 0.59049 0.50754 0.0
H1741 H 0.58877 0.54394 0.49857 0.0
C1742 C 0.51974 0.42447 0.55337 0.0
C1743 C 0.54822 0.41778 0.55843 0.0
C1744 C 0.51303 0.44424 0.53582 0.0
C1745 C 0.53464 0.45755 0.52281 0.0
C1746 C 0.56305 0.44995 0.52706 0.0
C1747 C 0.56979 0.43015 0.54466 0.0
C1748 C 0.52759 0.48082 0.50607 0.0
C1749 C 0.54007 0.50756 0.50967 0.0
C1750 C 0.50717 0.47745 0.48788 0.0
C1751 C 0.49432 0.44945 0.48234 0.0
C1752 C 0.51163 0.42573 0.47772 0.0
C1753 C 0.4994 0.39939 0.47257 0.0
C1754 C 0.46987 0.39654 0.47184 0.0
C1755 C 0.45251 0.42004 0.47621 0.0
C1756 C 0.46463 0.44642 0.48138 0.0
C1757 C 0.51933 0.58238 0.42907 0.0
C1758 C 0.49082 0.58962 0.42467 0.0
C1759 C 0.52628 0.56321 0.44702 0.0
C1760 C 0.50488 0.55092 0.46093 0.0
C1761 C 0.47653 0.55918 0.45737 0.0
C1762 C 0.46956 0.57854 0.43949 0.0
C1763 C 0.51193 0.52773 0.47769 0.0
C1764 C 0.49946 0.50101 0.47408 0.0
C1765 C 0.53241 0.5311 0.49581 0.0
C1766 C 0.5454 0.55909 0.50115 0.0
C1767 C 0.52822 0.58292 0.5057 0.0
C1768 C 0.54059 0.60923 0.51068 0.0
C1769 C 0.57013 0.61196 0.51131 0.0
C1770 C 0.58736 0.58835 0.50702 0.0
C1771 C 0.57511 0.56199 0.50201 0.0
H1772 H 0.57966 0.63235 0.51518 0.0
H1773 H 0.46045 0.37614 0.46785 0.0
H1774 H 0.88794 0.51805 0.43161 0.0
H1775 H 0.92359 0.53112 0.46097 0.0
H1776 H 0.91567 0.44876 0.49363 0.0
H1777 H 0.87987 0.43532 0.46415 0.0
H1778 H 0.92495 0.49472 0.52629 0.0
H1779 H 0.96511 0.4548 0.4554 0.0
H1780 H 0.97148 0.45036 0.41223 0.0
H1781 H 0.00124 0.53643 0.40875 0.0
H1782 H 0.99474 0.54147 0.45194 0.0
H1783 H 0.05638 0.49066 0.58399 0.0
H1784 H 0.01871 0.47762 0.55641 0.0
H1785 H 0.03041 0.55657 0.51895 0.0
H1786 H 0.06858 0.56968 0.5464 0.0
H1787 H 0.01881 0.5122 0.48884 0.0
H1788 H 0.97968 0.55165 0.56021 0.0
H1789 H 0.97328 0.55571 0.60342 0.0
H1790 H 0.94132 0.47039 0.60608 0.0
H1791 H 0.94795 0.46567 0.5629 0.0
C1792 C 0.89316 0.50293 0.44541 0.0
C1793 C 0.88139 0.47548 0.44536 0.0
C1794 C 0.91362 0.51043 0.46211 0.0
C1795 C 0.92265 0.49066 0.47907 0.0
C1796 C 0.90905 0.46421 0.48053 0.0
C1797 C 0.88855 0.45661 0.46373 0.0
C1798 C 0.94816 0.49663 0.49352 0.0
C1799 C 0.94555 0.49822 0.51818 0.0
C1800 C 0.97488 0.50163 0.48278 0.0
C1801 C 0.97916 0.4986 0.45686 0.0
C1802 C 0.9728 0.47285 0.44541 0.0
C1803 C 0.97647 0.47021 0.42093 0.0
C1804 C 0.98665 0.49314 0.40772 0.0
C1805 C 0.99331 0.51871 0.41899 0.0
C1806 C 0.98968 0.52146 0.44348 0.0
C1807 C 0.05134 0.50505 0.56962 0.0
C1808 C 0.06521 0.53136 0.56751 0.0
C1809 C 0.0297 0.49761 0.55395 0.0
C1810 C 0.02131 0.51645 0.53603 0.0
C1811 C 0.03645 0.54185 0.53281 0.0
C1812 C 0.05828 0.54928 0.54846 0.0
C1813 C 0.99567 0.51036 0.5217 0.0
C1814 C 0.99824 0.50874 0.497 0.0
C1815 C 0.96892 0.50532 0.53243 0.0
C1816 C 0.96456 0.50822 0.55835 0.0
C1817 C 0.97147 0.53369 0.57003 0.0
C1818 C 0.96778 0.53612 0.59451 0.0
C1819 C 0.95696 0.5133 0.60749 0.0
C1820 C 0.94973 0.48803 0.596 0.0
C1821 C 0.95343 0.48548 0.57152 0.0
H1822 H 0.95413 0.51522 0.62645 0.0
H1823 H 0.98944 0.49105 0.38877 0.0
loop_
_geom_bond_atom_site_label_1
_geom_bond_atom_site_label_2
_geom_bond_distance
_geom_bond_site_symmetry_2
_ccdc_geom_bond_type
O0 Cd1 2.223 1_655 S
O0 C8 1.315 1_655 S
Cd1 O0 2.223 1_455 S
Cd1 O4 2.297 1_455 S
Cd1 O5 2.439 . S
Cd1 O11 2.240 . S
Cd2 O3 2.240 . S
Cd2 O10 2.223 . S
Cd2 O12 2.297 . S
Cd2 O13 2.439 . S
O3 Cd2 2.240 . S
O3 C8 1.279 . S
O4 Cd1 2.297 1_655 S
O4 C6 1.247 1_655 S
O5 Cd1 2.439 . S
O5 C6 1.208 . S
C6 O4 1.247 1_455 S
C6 O5 1.208 . S
C7 O12 1.247 . S
C7 O13 1.208 . S
C8 O0 1.315 1_455 S
C8 O3 1.279 . S
C9 O10 1.315 . S
C9 O11 1.279 . S
O10 Cd2 2.223 . S
O10 C9 1.315 . S
O11 Cd1 2.240 . S
O11 C9 1.279 . S
O12 Cd2 2.297 . S
O12 C7 1.247 . S
O13 Cd2 2.439 . S
O13 C7 1.208 . S
O14 Cd15 2.223 1_565 S
O14 C22 1.315 1_565 S
Cd15 O14 2.223 1_545 S
Cd15 O18 2.297 1_545 S
Cd15 O19 2.439 . S
Cd15 O25 2.240 . S
Cd16 O17 2.240 . S
Cd16 O24 2.223 . S
Cd16 O26 2.297 . S
Cd16 O27 2.439 . S
O17 Cd16 2.240 . S
O17 C22 1.279 . S
O18 Cd15 2.297 1_565 S
O18 C20 1.247 1_565 S
O19 Cd15 2.439 . S
O19 C20 1.208 . S
C20 O18 1.247 1_545 S
C20 O19 1.208 . S
C21 O26 1.247 . S
C21 O27 1.208 . S
C22 O14 1.315 1_545 S
C22 O17 1.279 . S
C23 O24 1.315 . S
C23 O25 1.279 . S
O24 Cd16 2.223 . S
O24 C23 1.315 . S
O25 Cd15 2.240 . S
O25 C23 1.279 . S
O26 Cd16 2.297 . S
O26 C21 1.247 . S
O27 Cd16 2.439 . S
O27 C21 1.208 . S
O28 Cd29 2.223 . S
O28 C36 1.315 . S
Cd29 O28 2.223 . S
Cd29 O32 2.297 . S
Cd29 O33 2.439 . S
Cd29 O39 2.240 . S
Cd30 O31 2.240 . S
Cd30 O38 2.223 . S
Cd30 O40 2.297 . S
Cd30 O41 2.439 . S
O31 Cd30 2.240 . S
O31 C36 1.279 . S
O32 Cd29 2.297 . S
O32 C34 1.247 . S
O33 Cd29 2.439 . S
O33 C34 1.208 . S
C34 O32 1.247 . S
C34 O33 1.208 . S
C35 O40 1.247 . S
C35 O41 1.208 . S
C36 O28 1.315 . S
C36 O31 1.279 . S
C37 O38 1.315 . S
C37 O39 1.279 . S
O38 Cd30 2.223 . S
O38 C37 1.315 . S
O39 Cd29 2.240 . S
O39 C37 1.279 . S
O40 Cd30 2.297 . S
O40 C35 1.247 . S
O41 Cd30 2.439 . S
O41 C35 1.208 . S
O42 Cd43 2.223 . S
O42 C50 1.315 . S
Cd43 O42 2.223 . S
Cd43 O46 2.297 . S
Cd43 O47 2.439 . S
Cd43 O53 2.240 . S
Cd44 O45 2.240 . S
Cd44 O52 2.223 . S
Cd44 O54 2.297 . S
Cd44 O55 2.439 . S
O45 Cd44 2.240 . S
O45 C50 1.279 . S
O46 Cd43 2.297 . S
O46 C48 1.247 . S
O47 Cd43 2.439 . S
O47 C48 1.208 . S
C48 O46 1.247 . S
C48 O47 1.208 . S
C49 O54 1.247 . S
C49 O55 1.208 . S
C50 O42 1.315 . S
C50 O45 1.279 . S
C51 O52 1.315 . S
C51 O53 1.279 . S
O52 Cd44 2.223 . S
O52 C51 1.315 . S
O53 Cd43 2.240 . S
O53 C51 1.279 . S
O54 Cd44 2.297 . S
O54 C49 1.247 . S
O55 Cd44 2.439 . S
O55 C49 1.208 . S
O56 Cd57 2.223 1_655 S
O56 C64 1.315 1_655 S
Cd57 O56 2.223 1_455 S
Cd57 O60 2.297 1_455 S
Cd57 O61 2.439 . S
Cd57 O67 2.240 . S
Cd58 O59 2.240 . S
Cd58 O66 2.223 . S
Cd58 O68 2.297 . S
Cd58 O69 2.439 . S
O59 Cd58 2.240 . S
O59 C64 1.279 . S
O60 Cd57 2.297 1_655 S
O60 C62 1.247 1_655 S
O61 Cd57 2.439 . S
O61 C62 1.208 . S
C62 O60 1.247 1_455 S
C62 O61 1.208 . S
C63 O68 1.247 . S
C63 O69 1.208 . S
C64 O56 1.315 1_455 S
C64 O59 1.279 . S
C65 O66 1.315 . S
C65 O67 1.279 . S
O66 Cd58 2.223 . S
O66 C65 1.315 . S
O67 Cd57 2.240 . S
O67 C65 1.279 . S
O68 Cd58 2.297 . S
O68 C63 1.247 . S
O69 Cd58 2.439 . S
O69 C63 1.208 . S
O70 Cd71 2.223 1_565 S
O70 C78 1.315 1_565 S
Cd71 O70 2.223 1_545 S
Cd71 O74 2.297 1_545 S
Cd71 O75 2.439 . S
Cd71 O81 2.240 . S
Cd72 O73 2.240 . S
Cd72 O80 2.223 . S
Cd72 O82 2.297 . S
Cd72 O83 2.439 . S
O73 Cd72 2.240 . S
O73 C78 1.279 . S
O74 Cd71 2.297 1_565 S
O74 C76 1.247 1_565 S
O75 Cd71 2.439 . S
O75 C76 1.208 . S
C76 O74 1.247 1_545 S
C76 O75 1.208 . S
C77 O82 1.247 . S
C77 O83 1.208 . S
C78 O70 1.315 1_545 S
C78 O73 1.279 . S
C79 O80 1.315 . S
C79 O81 1.279 . S
O80 Cd72 2.223 . S
O80 C79 1.315 . S
O81 Cd71 2.240 . S
O81 C79 1.279 . S
O82 Cd72 2.297 . S
O82 C77 1.247 . S
O83 Cd72 2.439 . S
O83 C77 1.208 . S
O84 Cd85 2.223 . S
O84 C92 1.315 . S
Cd85 O84 2.223 . S
Cd85 O88 2.297 . S
Cd85 O89 2.439 . S
Cd85 O95 2.240 . S
Cd86 O87 2.240 . S
Cd86 O94 2.223 . S
Cd86 O96 2.297 . S
Cd86 O97 2.439 . S
O87 Cd86 2.240 . S
O87 C92 1.279 . S
O88 Cd85 2.297 . S
O88 C90 1.247 . S
O89 Cd85 2.439 . S
O89 C90 1.208 . S
C90 O88 1.247 . S
C90 O89 1.208 . S
C91 O96 1.247 . S
C91 O97 1.208 . S
C92 O84 1.315 . S
C92 O87 1.279 . S
C93 O94 1.315 . S
C93 O95 1.279 . S
O94 Cd86 2.223 . S
O94 C93 1.315 . S
O95 Cd85 2.240 . S
O95 C93 1.279 . S
O96 Cd86 2.297 . S
O96 C91 1.247 . S
O97 Cd86 2.439 . S
O97 C91 1.208 . S
O98 Cd99 2.223 . S
O98 C106 1.315 . S
Cd99 O98 2.223 . S
Cd99 O102 2.297 . S
Cd99 O103 2.439 . S
Cd99 O109 2.240 . S
Cd100 O101 2.240 . S
Cd100 O108 2.223 . S
Cd100 O110 2.297 . S
Cd100 O111 2.439 . S
O101 Cd100 2.240 . S
O101 C106 1.279 . S
O102 Cd99 2.297 . S
O102 C104 1.247 . S
O103 Cd99 2.439 . S
O103 C104 1.208 . S
C104 O102 1.247 . S
C104 O103 1.208 . S
C105 O110 1.247 . S
C105 O111 1.208 . S
C106 O98 1.315 . S
C106 O101 1.279 . S
C107 O108 1.315 . S
C107 O109 1.279 . S
O108 Cd100 2.223 . S
O108 C107 1.315 . S
O109 Cd99 2.240 . S
O109 C107 1.279 . S
O110 Cd100 2.297 . S
O110 C105 1.247 . S
O111 Cd100 2.439 . S
O111 C105 1.208 . S
O112 Cd113 2.223 1_455 S
O112 C120 1.315 1_455 S
Cd113 O112 2.223 1_655 S
Cd113 O116 2.297 1_655 S
Cd113 O117 2.439 . S
Cd113 O123 2.240 . S
Cd114 O115 2.240 . S
Cd114 O122 2.223 . S
Cd114 O124 2.297 . S
Cd114 O125 2.439 . S
O115 Cd114 2.240 . S
O115 C120 1.279 . S
O116 Cd113 2.297 1_455 S
O116 C118 1.247 1_455 S
O117 Cd113 2.439 . S
O117 C118 1.208 . S
C118 O116 1.247 1_655 S
C118 O117 1.208 . S
C119 O124 1.247 . S
C119 O125 1.208 . S
C120 O112 1.315 1_655 S
C120 O115 1.279 . S
C121 O122 1.315 . S
C121 O123 1.279 . S
O122 Cd114 2.223 . S
O122 C121 1.315 . S
O123 Cd113 2.240 . S
O123 C121 1.279 . S
O124 Cd114 2.297 . S
O124 C119 1.247 . S
O125 Cd114 2.439 . S
O125 C119 1.208 . S
O126 Cd127 2.223 1_545 S
O126 C134 1.315 1_545 S
Cd127 O126 2.223 1_565 S
Cd127 O130 2.297 1_565 S
Cd127 O131 2.439 . S
Cd127 O137 2.240 . S
Cd128 O129 2.240 . S
Cd128 O136 2.223 . S
Cd128 O138 2.297 . S
Cd128 O139 2.439 . S
O129 Cd128 2.240 . S
O129 C134 1.279 . S
O130 Cd127 2.297 1_545 S
O130 C132 1.247 1_545 S
O131 Cd127 2.439 . S
O131 C132 1.208 . S
C132 O130 1.247 1_565 S
C132 O131 1.208 . S
C133 O138 1.247 . S
C133 O139 1.208 . S
C134 O126 1.315 1_565 S
C134 O129 1.279 . S
C135 O136 1.315 . S
C135 O137 1.279 . S
O136 Cd128 2.223 . S
O136 C135 1.315 . S
O137 Cd127 2.240 . S
O137 C135 1.279 . S
O138 Cd128 2.297 . S
O138 C133 1.247 . S
O139 Cd128 2.439 . S
O139 C133 1.208 . S
O140 Cd141 2.223 . S
O140 C148 1.315 . S
Cd141 O140 2.223 . S
Cd141 O144 2.297 . S
Cd141 O145 2.439 . S
Cd141 O151 2.240 . S
Cd142 O143 2.240 . S
Cd142 O150 2.223 . S
Cd142 O152 2.297 . S
Cd142 O153 2.439 . S
O143 Cd142 2.240 . S
O143 C148 1.279 . S
O144 Cd141 2.297 . S
O144 C146 1.247 . S
O145 Cd141 2.439 . S
O145 C146 1.208 . S
C146 O144 1.247 . S
C146 O145 1.208 . S
C147 O152 1.247 . S
C147 O153 1.208 . S
C148 O140 1.315 . S
C148 O143 1.279 . S
C149 O150 1.315 . S
C149 O151 1.279 . S
O150 Cd142 2.223 . S
O150 C149 1.315 . S
O151 Cd141 2.240 . S
O151 C149 1.279 . S
O152 Cd142 2.297 . S
O152 C147 1.247 . S
O153 Cd142 2.439 . S
O153 C147 1.208 . S
O154 Cd155 2.223 . S
O154 C162 1.315 . S
Cd155 O154 2.223 . S
Cd155 O158 2.297 . S
Cd155 O159 2.439 . S
Cd155 O165 2.240 . S
Cd156 O157 2.240 . S
Cd156 O164 2.223 . S
Cd156 O166 2.297 . S
Cd156 O167 2.439 . S
O157 Cd156 2.240 . S
O157 C162 1.279 . S
O158 Cd155 2.297 . S
O158 C160 1.247 . S
O159 Cd155 2.439 . S
O159 C160 1.208 . S
C160 O158 1.247 . S
C160 O159 1.208 . S
C161 O166 1.247 . S
C161 O167 1.208 . S
C162 O154 1.315 . S
C162 O157 1.279 . S
C163 O164 1.315 . S
C163 O165 1.279 . S
O164 Cd156 2.223 . S
O164 C163 1.315 . S
O165 Cd155 2.240 . S
O165 C163 1.279 . S
O166 Cd156 2.297 . S
O166 C161 1.247 . S
O167 Cd156 2.439 . S
O167 C161 1.208 . S
O168 Cd169 2.223 1_455 S
O168 C176 1.315 1_455 S
Cd169 O168 2.223 1_655 S
Cd169 O172 2.297 1_655 S
Cd169 O173 2.439 . S
Cd169 O179 2.240 . S
Cd170 O171 2.240 . S
Cd170 O178 2.223 . S
Cd170 O180 2.297 . S
Cd170 O181 2.439 . S
O171 Cd170 2.240 . S
O171 C176 1.279 . S
O172 Cd169 2.297 1_455 S
O172 C174 1.247 1_455 S
O173 Cd169 2.439 . S
O173 C174 1.208 . S
C174 O172 1.247 1_655 S
C174 O173 1.208 . S
C175 O180 1.247 . S
C175 O181 1.208 . S
C176 O168 1.315 1_655 S
C176 O171 1.279 . S
C177 O178 1.315 . S
C177 O179 1.279 . S
O178 Cd170 2.223 . S
O178 C177 1.315 . S
O179 Cd169 2.240 . S
O179 C177 1.279 . S
O180 Cd170 2.297 . S
O180 C175 1.247 . S
O181 Cd170 2.439 . S
O181 C175 1.208 . S
O182 Cd183 2.223 1_545 S
O182 C190 1.315 1_545 S
Cd183 O182 2.223 1_565 S
Cd183 O186 2.297 1_565 S
Cd183 O187 2.439 . S
Cd183 O193 2.240 . S
Cd184 O185 2.240 . S
Cd184 O192 2.223 . S
Cd184 O194 2.297 . S
Cd184 O195 2.439 . S
O185 Cd184 2.240 . S
O185 C190 1.279 . S
O186 Cd183 2.297 1_545 S
O186 C188 1.247 1_545 S
O187 Cd183 2.439 . S
O187 C188 1.208 . S
C188 O186 1.247 1_565 S
C188 O187 1.208 . S
C189 O194 1.247 . S
C189 O195 1.208 . S
C190 O182 1.315 1_565 S
C190 O185 1.279 . S
C191 O192 1.315 . S
C191 O193 1.279 . S
O192 Cd184 2.223 . S
O192 C191 1.315 . S
O193 Cd183 2.240 . S
O193 C191 1.279 . S
O194 Cd184 2.297 . S
O194 C189 1.247 . S
O195 Cd184 2.439 . S
O195 C189 1.208 . S
O196 Cd197 2.223 . S
O196 C204 1.315 . S
Cd197 O196 2.223 . S
Cd197 O200 2.297 . S
Cd197 O201 2.439 . S
Cd197 O207 2.240 . S
Cd198 O199 2.240 . S
Cd198 O206 2.223 . S
Cd198 O208 2.297 . S
Cd198 O209 2.439 . S
O199 Cd198 2.240 . S
O199 C204 1.279 . S
O200 Cd197 2.297 . S
O200 C202 1.247 . S
O201 Cd197 2.439 . S
O201 C202 1.208 . S
C202 O200 1.247 . S
C202 O201 1.208 . S
C203 O208 1.247 . S
C203 O209 1.208 . S
C204 O196 1.315 . S
C204 O199 1.279 . S
C205 O206 1.315 . S
C205 O207 1.279 . S
O206 Cd198 2.223 . S
O206 C205 1.315 . S
O207 Cd197 2.240 . S
O207 C205 1.279 . S
O208 Cd198 2.297 . S
O208 C203 1.247 . S
O209 Cd198 2.439 . S
O209 C203 1.208 . S
O210 Cd211 2.223 . S
O210 C218 1.315 . S
Cd211 O210 2.223 . S
Cd211 O214 2.297 . S
Cd211 O215 2.439 . S
Cd211 O221 2.240 . S
Cd212 O213 2.240 . S
Cd212 O220 2.223 . S
Cd212 O222 2.297 . S
Cd212 O223 2.439 . S
O213 Cd212 2.240 . S
O213 C218 1.279 . S
O214 Cd211 2.297 . S
O214 C216 1.247 . S
O215 Cd211 2.439 . S
O215 C216 1.208 . S
C216 O214 1.247 . S
C216 O215 1.208 . S
C217 O222 1.247 . S
C217 O223 1.208 . S
C218 O210 1.315 . S
C218 O213 1.279 . S
C219 O220 1.315 . S
C219 O221 1.279 . S
O220 Cd212 2.223 . S
O220 C219 1.315 . S
O221 Cd211 2.240 . S
O221 C219 1.279 . S
O222 Cd212 2.297 . S
O222 C217 1.247 . S
O223 Cd212 2.439 . S
O223 C217 1.208 . S
H224 C242 0.951 . S
H225 C244 0.951 . S
H226 C246 0.950 . S
H227 C247 0.950 . S
H228 C249 0.950 . S
H229 C252 0.950 . S
H230 C253 0.950 . S
H231 C255 0.950 . S
H232 C256 0.950 . S
H233 C257 0.951 . S
H234 C259 0.951 . S
H235 C261 0.950 . S
H236 C262 0.950 . S
H237 C264 0.950 . S
H238 C267 0.950 . S
H239 C268 0.950 . S
H240 C270 0.950 . S
H241 C271 0.950 . S
C242 H224 0.951 . S
C242 C243 1.366 . S
C242 C244 1.388 . S
C243 C242 1.366 . S
C243 C247 1.385 . S
C244 H225 0.951 . S
C244 C242 1.388 . S
C244 C245 1.366 . S
C245 C244 1.366 . S
C245 C246 1.414 . S
C245 C248 1.499 . S
C246 H226 0.950 . S
C246 C245 1.414 . S
C246 C247 1.374 . S
C247 H227 0.950 . S
C247 C243 1.385 . S
C247 C246 1.374 . S
C248 C245 1.499 . S
C248 C249 1.373 . S
C248 C250 1.389 . S
C249 H228 0.950 . S
C249 C248 1.373 . S
C249 C265 1.377 . S
C250 C248 1.389 . S
C250 C251 1.524 . S
C250 C264 1.377 . S
C251 C250 1.524 . S
C251 C252 1.397 . S
C251 C256 1.363 . S
C252 H229 0.950 . S
C252 C251 1.397 . S
C252 C253 1.334 . S
C253 H230 0.950 . S
C253 C252 1.334 . S
C253 C254 1.287 . S
C254 C253 1.287 . S
C254 C255 1.524 . S
C254 H273 0.913 . S
C255 H231 0.950 . S
C255 C254 1.524 . S
C255 C256 1.415 . S
C256 H232 0.950 . S
C256 C251 1.363 . S
C256 C255 1.415 . S
C257 H233 0.951 . S
C257 C258 1.366 . S
C257 C259 1.388 . S
C258 C257 1.366 . S
C258 C262 1.385 . S
C259 H234 0.951 . S
C259 C257 1.388 . S
C259 C260 1.366 . S
C260 C259 1.366 . S
C260 C261 1.414 . S
C260 C263 1.499 . S
C261 H235 0.950 . S
C261 C260 1.414 . S
C261 C262 1.374 . S
C262 H236 0.950 . S
C262 C258 1.385 . S
C262 C261 1.374 . S
C263 C260 1.499 . S
C263 C264 1.373 . S
C263 C265 1.389 . S
C264 H237 0.950 . S
C264 C250 1.377 . S
C264 C263 1.373 . S
C265 C249 1.377 . S
C265 C263 1.389 . S
C265 C266 1.524 . S
C266 C265 1.524 . S
C266 C267 1.397 . S
C266 C271 1.363 . S
C267 H238 0.950 . S
C267 C266 1.397 . S
C267 C268 1.334 . S
C268 H239 0.950 . S
C268 C267 1.334 . S
C268 C269 1.287 . S
C269 C268 1.287 . S
C269 C270 1.524 . S
C269 H272 0.999 . S
C270 H240 0.950 . S
C270 C269 1.524 . S
C270 C271 1.415 . S
C271 H241 0.950 . S
C271 C266 1.363 . S
C271 C270 1.415 . S
H272 C269 0.999 . S
H273 C254 0.913 . S
H274 C292 0.951 . S
H275 C294 0.951 . S
H276 C296 0.950 . S
H277 C297 0.950 . S
H278 C299 0.950 . S
H279 C302 0.950 . S
H280 C303 0.950 . S
H281 C305 0.950 . S
H282 C306 0.950 . S
H283 C307 0.951 . S
H284 C309 0.951 . S
H285 C311 0.950 . S
H286 C312 0.950 . S
H287 C314 0.950 . S
H288 C317 0.950 . S
H289 C318 0.950 . S
H290 C320 0.950 . S
H291 C321 0.950 . S
C292 H274 0.951 . S
C292 C293 1.366 . S
C292 C294 1.388 . S
C293 C292 1.366 . S
C293 C297 1.385 . S
C294 H275 0.951 . S
C294 C292 1.388 . S
C294 C295 1.366 . S
C295 C294 1.366 . S
C295 C296 1.414 . S
C295 C298 1.499 . S
C296 H276 0.950 . S
C296 C295 1.414 . S
C296 C297 1.374 . S
C297 H277 0.950 . S
C297 C293 1.385 . S
C297 C296 1.374 . S
C298 C295 1.499 . S
C298 C299 1.373 . S
C298 C300 1.389 . S
C299 H278 0.950 . S
C299 C298 1.373 . S
C299 C315 1.377 . S
C300 C298 1.389 . S
C300 C301 1.524 . S
C300 C314 1.377 . S
C301 C300 1.524 . S
C301 C302 1.397 . S
C301 C306 1.363 . S
C302 H279 0.950 . S
C302 C301 1.397 . S
C302 C303 1.334 . S
C303 H280 0.950 . S
C303 C302 1.334 . S
C303 C304 1.287 . S
C304 C303 1.287 . S
C304 C305 1.524 . S
C304 H323 0.913 . S
C305 H281 0.950 . S
C305 C304 1.524 . S
C305 C306 1.415 . S
C306 H282 0.950 . S
C306 C301 1.363 . S
C306 C305 1.415 . S
C307 H283 0.951 . S
C307 C308 1.366 . S
C307 C309 1.388 . S
C308 C307 1.366 . S
C308 C312 1.385 . S
C309 H284 0.951 . S
C309 C307 1.388 . S
C309 C310 1.366 . S
C310 C309 1.366 . S
C310 C311 1.414 . S
C310 C313 1.499 . S
C311 H285 0.950 . S
C311 C310 1.414 . S
C311 C312 1.374 . S
C312 H286 0.950 . S
C312 C308 1.385 . S
C312 C311 1.374 . S
C313 C310 1.499 . S
C313 C314 1.373 . S
C313 C315 1.389 . S
C314 H287 0.950 . S
C314 C300 1.377 . S
C314 C313 1.373 . S
C315 C299 1.377 . S
C315 C313 1.389 . S
C315 C316 1.524 . S
C316 C315 1.524 . S
C316 C317 1.397 . S
C316 C321 1.363 . S
C317 H288 0.950 . S
C317 C316 1.397 . S
C317 C318 1.334 . S
C318 H289 0.950 . S
C318 C317 1.334 . S
C318 C319 1.287 . S
C319 C318 1.287 . S
C319 C320 1.524 . S
C319 H322 0.999 . S
C320 H290 0.950 . S
C320 C319 1.524 . S
C320 C321 1.415 . S
C321 H291 0.950 . S
C321 C316 1.363 . S
C321 C320 1.415 . S
H322 C319 0.999 . S
H323 C304 0.913 . S
H324 C342 0.951 . S
H325 C344 0.951 . S
H326 C346 0.950 . S
H327 C347 0.950 . S
H328 C349 0.950 . S
H329 C352 0.950 . S
H330 C353 0.950 . S
H331 C355 0.950 . S
H332 C356 0.950 . S
H333 C357 0.951 . S
H334 C359 0.951 . S
H335 C361 0.950 . S
H336 C362 0.950 . S
H337 C364 0.950 . S
H338 C367 0.950 . S
H339 C368 0.950 . S
H340 C370 0.950 . S
H341 C371 0.950 . S
C342 H324 0.951 . S
C342 C343 1.366 . S
C342 C344 1.388 . S
C343 C342 1.366 . S
C343 C347 1.385 . S
C344 H325 0.951 . S
C344 C342 1.388 . S
C344 C345 1.366 . S
C345 C344 1.366 . S
C345 C346 1.414 . S
C345 C348 1.499 . S
C346 H326 0.950 . S
C346 C345 1.414 . S
C346 C347 1.374 . S
C347 H327 0.950 . S
C347 C343 1.385 . S
C347 C346 1.374 . S
C348 C345 1.499 . S
C348 C349 1.373 . S
C348 C350 1.389 . S
C349 H328 0.950 . S
C349 C348 1.373 . S
C349 C365 1.377 . S
C350 C348 1.389 . S
C350 C351 1.524 . S
C350 C364 1.377 . S
C351 C350 1.524 . S
C351 C352 1.397 . S
C351 C356 1.363 . S
C352 H329 0.950 . S
C352 C351 1.397 . S
C352 C353 1.334 . S
C353 H330 0.950 . S
C353 C352 1.334 . S
C353 C354 1.287 . S
C354 C353 1.287 . S
C354 C355 1.524 . S
C354 H373 0.913 . S
C355 H331 0.950 . S
C355 C354 1.524 . S
C355 C356 1.415 . S
C356 H332 0.950 . S
C356 C351 1.363 . S
C356 C355 1.415 . S
C357 H333 0.951 . S
C357 C358 1.366 . S
C357 C359 1.388 . S
C358 C357 1.366 . S
C358 C362 1.385 . S
C359 H334 0.951 . S
C359 C357 1.388 . S
C359 C360 1.366 . S
C360 C359 1.366 . S
C360 C361 1.414 . S
C360 C363 1.499 . S
C361 H335 0.950 . S
C361 C360 1.414 . S
C361 C362 1.374 . S
C362 H336 0.950 . S
C362 C358 1.385 . S
C362 C361 1.374 . S
C363 C360 1.499 . S
C363 C364 1.373 . S
C363 C365 1.389 . S
C364 H337 0.950 . S
C364 C350 1.377 . S
C364 C363 1.373 . S
C365 C349 1.377 . S
C365 C363 1.389 . S
C365 C366 1.524 . S
C366 C365 1.524 . S
C366 C367 1.397 . S
C366 C371 1.363 . S
C367 H338 0.950 . S
C367 C366 1.397 . S
C367 C368 1.334 . S
C368 H339 0.950 . S
C368 C367 1.334 . S
C368 C369 1.287 . S
C369 C368 1.287 . S
C369 C370 1.524 . S
C369 H372 0.999 . S
C370 H340 0.950 . S
C370 C369 1.524 . S
C370 C371 1.415 . S
C371 H341 0.950 . S
C371 C366 1.363 . S
C371 C370 1.415 . S
H372 C369 0.999 . S
H373 C354 0.913 . S
H374 C392 0.951 . S
H375 C394 0.951 . S
H376 C396 0.950 . S
H377 C397 0.950 . S
H378 C399 0.950 . S
H379 C402 0.950 . S
H380 C403 0.950 . S
H381 C405 0.950 . S
H382 C406 0.950 . S
H383 C407 0.951 . S
H384 C409 0.951 . S
H385 C411 0.950 . S
H386 C412 0.950 . S
H387 C414 0.950 . S
H388 C417 0.950 . S
H389 C418 0.950 . S
H390 C420 0.950 . S
H391 C421 0.950 . S
C392 H374 0.951 . S
C392 C393 1.366 . S
C392 C394 1.388 . S
C393 C392 1.366 . S
C393 C397 1.385 . S
C394 H375 0.951 . S
C394 C392 1.388 . S
C394 C395 1.366 . S
C395 C394 1.366 . S
C395 C396 1.414 . S
C395 C398 1.499 . S
C396 H376 0.950 . S
C396 C395 1.414 . S
C396 C397 1.374 . S
C397 H377 0.950 . S
C397 C393 1.385 . S
C397 C396 1.374 . S
C398 C395 1.499 . S
C398 C399 1.373 . S
C398 C400 1.389 . S
C399 H378 0.950 . S
C399 C398 1.373 . S
C399 C415 1.377 . S
C400 C398 1.389 . S
C400 C401 1.524 . S
C400 C414 1.377 . S
C401 C400 1.524 . S
C401 C402 1.397 . S
C401 C406 1.363 . S
C402 H379 0.950 . S
C402 C401 1.397 . S
C402 C403 1.334 . S
C403 H380 0.950 . S
C403 C402 1.334 . S
C403 C404 1.287 . S
C404 C403 1.287 . S
C404 C405 1.524 . S
C404 H423 0.913 . S
C405 H381 0.950 . S
C405 C404 1.524 . S
C405 C406 1.415 . S
C406 H382 0.950 . S
C406 C401 1.363 . S
C406 C405 1.415 . S
C407 H383 0.951 . S
C407 C408 1.366 . S
C407 C409 1.388 . S
C408 C407 1.366 . S
C408 C412 1.385 . S
C409 H384 0.951 . S
C409 C407 1.388 . S
C409 C410 1.366 . S
C410 C409 1.366 . S
C410 C411 1.414 . S
C410 C413 1.499 . S
C411 H385 0.950 . S
C411 C410 1.414 . S
C411 C412 1.374 . S
C412 H386 0.950 . S
C412 C408 1.385 . S
C412 C411 1.374 . S
C413 C410 1.499 . S
C413 C414 1.373 . S
C413 C415 1.389 . S
C414 H387 0.950 . S
C414 C400 1.377 . S
C414 C413 1.373 . S
C415 C399 1.377 . S
C415 C413 1.389 . S
C415 C416 1.524 . S
C416 C415 1.524 . S
C416 C417 1.397 . S
C416 C421 1.363 . S
C417 H388 0.950 . S
C417 C416 1.397 . S
C417 C418 1.334 . S
C418 H389 0.950 . S
C418 C417 1.334 . S
C418 C419 1.287 . S
C419 C418 1.287 . S
C419 C420 1.524 . S
C419 H422 0.999 . S
C420 H390 0.950 . S
C420 C419 1.524 . S
C420 C421 1.415 . S
C421 H391 0.950 . S
C421 C416 1.363 . S
C421 C420 1.415 . S
H422 C419 0.999 . S
H423 C404 0.913 . S
H424 C442 0.951 . S
H425 C444 0.951 . S
H426 C446 0.950 . S
H427 C447 0.950 . S
H428 C449 0.950 . S
H429 C452 0.950 . S
H430 C453 0.950 . S
H431 C455 0.950 . S
H432 C456 0.950 . S
H433 C457 0.951 . S
H434 C459 0.951 . S
H435 C461 0.950 . S
H436 C462 0.950 . S
H437 C464 0.950 . S
H438 C467 0.950 . S
H439 C468 0.950 . S
H440 C470 0.950 . S
H441 C471 0.950 . S
C442 H424 0.951 . S
C442 C443 1.366 . S
C442 C444 1.388 . S
C443 C442 1.366 . S
C443 C447 1.385 . S
C444 H425 0.951 . S
C444 C442 1.388 . S
C444 C445 1.366 . S
C445 C444 1.366 . S
C445 C446 1.414 . S
C445 C448 1.499 . S
C446 H426 0.950 . S
C446 C445 1.414 . S
C446 C447 1.374 . S
C447 H427 0.950 . S
C447 C443 1.385 . S
C447 C446 1.374 . S
C448 C445 1.499 . S
C448 C449 1.373 . S
C448 C450 1.389 . S
C449 H428 0.950 . S
C449 C448 1.373 . S
C449 C465 1.377 . S
C450 C448 1.389 . S
C450 C451 1.524 . S
C450 C464 1.377 . S
C451 C450 1.524 . S
C451 C452 1.397 . S
C451 C456 1.363 . S
C452 H429 0.950 . S
C452 C451 1.397 . S
C452 C453 1.334 . S
C453 H430 0.950 . S
C453 C452 1.334 . S
C453 C454 1.287 . S
C454 C453 1.287 . S
C454 C455 1.524 . S
C454 H473 0.913 . S
C455 H431 0.950 . S
C455 C454 1.524 . S
C455 C456 1.415 . S
C456 H432 0.950 . S
C456 C451 1.363 . S
C456 C455 1.415 . S
C457 H433 0.951 . S
C457 C458 1.366 . S
C457 C459 1.388 . S
C458 C457 1.366 . S
C458 C462 1.385 . S
C459 H434 0.951 . S
C459 C457 1.388 . S
C459 C460 1.366 . S
C460 C459 1.366 . S
C460 C461 1.414 . S
C460 C463 1.499 . S
C461 H435 0.950 . S
C461 C460 1.414 . S
C461 C462 1.374 . S
C462 H436 0.950 . S
C462 C458 1.385 . S
C462 C461 1.374 . S
C463 C460 1.499 . S
C463 C464 1.373 . S
C463 C465 1.389 . S
C464 H437 0.950 . S
C464 C450 1.377 . S
C464 C463 1.373 . S
C465 C449 1.377 . S
C465 C463 1.389 . S
C465 C466 1.524 . S
C466 C465 1.524 . S
C466 C467 1.397 . S
C466 C471 1.363 . S
C467 H438 0.950 . S
C467 C466 1.397 . S
C467 C468 1.334 . S
C468 H439 0.950 . S
C468 C467 1.334 . S
C468 C469 1.287 . S
C469 C468 1.287 . S
C469 C470 1.524 . S
C469 H472 0.999 . S
C470 H440 0.950 . S
C470 C469 1.524 . S
C470 C471 1.415 . S
C471 H441 0.950 . S
C471 C466 1.363 . S
C471 C470 1.415 . S
H472 C469 0.999 . S
H473 C454 0.913 . S
H474 C492 0.951 . S
H475 C494 0.951 . S
H476 C496 0.950 . S
H477 C497 0.950 . S
H478 C499 0.950 . S
H479 C502 0.950 . S
H480 C503 0.950 . S
H481 C505 0.950 . S
H482 C506 0.950 . S
H483 C507 0.951 . S
H484 C509 0.951 . S
H485 C511 0.950 . S
H486 C512 0.950 . S
H487 C514 0.950 . S
H488 C517 0.950 . S
H489 C518 0.950 . S
H490 C520 0.950 . S
H491 C521 0.950 . S
C492 H474 0.951 . S
C492 C493 1.366 . S
C492 C494 1.388 . S
C493 C492 1.366 . S
C493 C497 1.385 . S
C494 H475 0.951 . S
C494 C492 1.388 . S
C494 C495 1.366 . S
C495 C494 1.366 . S
C495 C496 1.414 . S
C495 C498 1.499 . S
C496 H476 0.950 . S
C496 C495 1.414 . S
C496 C497 1.374 . S
C497 H477 0.950 . S
C497 C493 1.385 . S
C497 C496 1.374 . S
C498 C495 1.499 . S
C498 C499 1.373 . S
C498 C500 1.389 . S
C499 H478 0.950 . S
C499 C498 1.373 . S
C499 C515 1.377 . S
C500 C498 1.389 . S
C500 C501 1.524 . S
C500 C514 1.377 . S
C501 C500 1.524 . S
C501 C502 1.397 . S
C501 C506 1.363 . S
C502 H479 0.950 . S
C502 C501 1.397 . S
C502 C503 1.334 . S
C503 H480 0.950 . S
C503 C502 1.334 . S
C503 C504 1.287 . S
C504 C503 1.287 . S
C504 C505 1.524 . S
C504 H523 0.913 . S
C505 H481 0.950 . S
C505 C504 1.524 . S
C505 C506 1.415 . S
C506 H482 0.950 . S
C506 C501 1.363 . S
C506 C505 1.415 . S
C507 H483 0.951 . S
C507 C508 1.366 . S
C507 C509 1.388 . S
C508 C507 1.366 . S
C508 C512 1.385 . S
C509 H484 0.951 . S
C509 C507 1.388 . S
C509 C510 1.366 . S
C510 C509 1.366 . S
C510 C511 1.414 . S
C510 C513 1.499 . S
C511 H485 0.950 . S
C511 C510 1.414 . S
C511 C512 1.374 . S
C512 H486 0.950 . S
C512 C508 1.385 . S
C512 C511 1.374 . S
C513 C510 1.499 . S
C513 C514 1.373 . S
C513 C515 1.389 . S
C514 H487 0.950 . S
C514 C500 1.377 . S
C514 C513 1.373 . S
C515 C499 1.377 . S
C515 C513 1.389 . S
C515 C516 1.524 . S
C516 C515 1.524 . S
C516 C517 1.397 . S
C516 C521 1.363 . S
C517 H488 0.950 . S
C517 C516 1.397 . S
C517 C518 1.334 . S
C518 H489 0.950 . S
C518 C517 1.334 . S
C518 C519 1.287 . S
C519 C518 1.287 . S
C519 C520 1.524 . S
C519 H522 0.999 . S
C520 H490 0.950 . S
C520 C519 1.524 . S
C520 C521 1.415 . S
C521 H491 0.950 . S
C521 C516 1.363 . S
C521 C520 1.415 . S
H522 C519 0.999 . S
H523 C504 0.913 . S
H524 C542 0.951 . S
H525 C544 0.951 . S
H526 C546 0.950 . S
H527 C547 0.950 . S
H528 C549 0.950 . S
H529 C552 0.950 . S
H530 C553 0.950 . S
H531 C555 0.950 . S
H532 C556 0.950 . S
H533 C557 0.951 . S
H534 C559 0.951 . S
H535 C561 0.950 . S
H536 C562 0.950 . S
H537 C564 0.950 . S
H538 C567 0.950 . S
H539 C568 0.950 . S
H540 C570 0.950 . S
H541 C571 0.950 . S
C542 H524 0.951 . S
C542 C543 1.366 . S
C542 C544 1.388 . S
C543 C542 1.366 . S
C543 C547 1.385 . S
C544 H525 0.951 . S
C544 C542 1.388 . S
C544 C545 1.366 . S
C545 C544 1.366 . S
C545 C546 1.414 . S
C545 C548 1.499 . S
C546 H526 0.950 . S
C546 C545 1.414 . S
C546 C547 1.374 . S
C547 H527 0.950 . S
C547 C543 1.385 . S
C547 C546 1.374 . S
C548 C545 1.499 . S
C548 C549 1.373 . S
C548 C550 1.389 . S
C549 H528 0.950 . S
C549 C548 1.373 . S
C549 C565 1.377 . S
C550 C548 1.389 . S
C550 C551 1.524 . S
C550 C564 1.377 . S
C551 C550 1.524 . S
C551 C552 1.397 . S
C551 C556 1.363 . S
C552 H529 0.950 . S
C552 C551 1.397 . S
C552 C553 1.334 . S
C553 H530 0.950 . S
C553 C552 1.334 . S
C553 C554 1.287 . S
C554 C553 1.287 . S
C554 C555 1.524 . S
C554 H573 0.913 . S
C555 H531 0.950 . S
C555 C554 1.524 . S
C555 C556 1.415 . S
C556 H532 0.950 . S
C556 C551 1.363 . S
C556 C555 1.415 . S
C557 H533 0.951 . S
C557 C558 1.366 . S
C557 C559 1.388 . S
C558 C557 1.366 . S
C558 C562 1.385 . S
C559 H534 0.951 . S
C559 C557 1.388 . S
C559 C560 1.366 . S
C560 C559 1.366 . S
C560 C561 1.414 . S
C560 C563 1.499 . S
C561 H535 0.950 . S
C561 C560 1.414 . S
C561 C562 1.374 . S
C562 H536 0.950 . S
C562 C558 1.385 . S
C562 C561 1.374 . S
C563 C560 1.499 . S
C563 C564 1.373 . S
C563 C565 1.389 . S
C564 H537 0.950 . S
C564 C550 1.377 . S
C564 C563 1.373 . S
C565 C549 1.377 . S
C565 C563 1.389 . S
C565 C566 1.524 . S
C566 C565 1.524 . S
C566 C567 1.397 . S
C566 C571 1.363 . S
C567 H538 0.950 . S
C567 C566 1.397 . S
C567 C568 1.334 . S
C568 H539 0.950 . S
C568 C567 1.334 . S
C568 C569 1.287 . S
C569 C568 1.287 . S
C569 C570 1.524 . S
C569 H572 0.999 . S
C570 H540 0.950 . S
C570 C569 1.524 . S
C570 C571 1.415 . S
C571 H541 0.950 . S
C571 C566 1.363 . S
C571 C570 1.415 . S
H572 C569 0.999 . S
H573 C554 0.913 . S
H574 C592 0.951 . S
H575 C594 0.951 . S
H576 C596 0.950 . S
H577 C597 0.950 . S
H578 C599 0.950 . S
H579 C602 0.950 . S
H580 C603 0.950 . S
H581 C605 0.950 . S
H582 C606 0.950 . S
H583 C607 0.951 . S
H584 C609 0.951 . S
H585 C611 0.950 . S
H586 C612 0.950 . S
H587 C614 0.950 . S
H588 C617 0.950 . S
H589 C618 0.950 . S
H590 C620 0.950 . S
H591 C621 0.950 . S
C592 H574 0.951 . S
C592 C593 1.366 . S
C592 C594 1.388 . S
C593 C592 1.366 . S
C593 C597 1.385 . S
C594 H575 0.951 . S
C594 C592 1.388 . S
C594 C595 1.366 . S
C595 C594 1.366 . S
C595 C596 1.414 . S
C595 C598 1.499 . S
C596 H576 0.950 . S
C596 C595 1.414 . S
C596 C597 1.374 . S
C597 H577 0.950 . S
C597 C593 1.385 . S
C597 C596 1.374 . S
C598 C595 1.499 . S
C598 C599 1.373 . S
C598 C600 1.389 . S
C599 H578 0.950 . S
C599 C598 1.373 . S
C599 C615 1.377 . S
C600 C598 1.389 . S
C600 C601 1.524 . S
C600 C614 1.377 . S
C601 C600 1.524 . S
C601 C602 1.397 . S
C601 C606 1.363 . S
C602 H579 0.950 . S
C602 C601 1.397 . S
C602 C603 1.334 . S
C603 H580 0.950 . S
C603 C602 1.334 . S
C603 C604 1.287 . S
C604 C603 1.287 . S
C604 C605 1.524 . S
C604 H623 0.913 . S
C605 H581 0.950 . S
C605 C604 1.524 . S
C605 C606 1.415 . S
C606 H582 0.950 . S
C606 C601 1.363 . S
C606 C605 1.415 . S
C607 H583 0.951 . S
C607 C608 1.366 . S
C607 C609 1.388 . S
C608 C607 1.366 . S
C608 C612 1.385 . S
C609 H584 0.951 . S
C609 C607 1.388 . S
C609 C610 1.366 . S
C610 C609 1.366 . S
C610 C611 1.414 . S
C610 C613 1.499 . S
C611 H585 0.950 . S
C611 C610 1.414 . S
C611 C612 1.374 . S
C612 H586 0.950 . S
C612 C608 1.385 . S
C612 C611 1.374 . S
C613 C610 1.499 . S
C613 C614 1.373 . S
C613 C615 1.389 . S
C614 H587 0.950 . S
C614 C600 1.377 . S
C614 C613 1.373 . S
C615 C599 1.377 . S
C615 C613 1.389 . S
C615 C616 1.524 . S
C616 C615 1.524 . S
C616 C617 1.397 . S
C616 C621 1.363 . S
C617 H588 0.950 . S
C617 C616 1.397 . S
C617 C618 1.334 . S
C618 H589 0.950 . S
C618 C617 1.334 . S
C618 C619 1.287 . S
C619 C618 1.287 . S
C619 C620 1.524 . S
C619 H622 0.999 . S
C620 H590 0.950 . S
C620 C619 1.524 . S
C620 C621 1.415 . S
C621 H591 0.950 . S
C621 C616 1.363 . S
C621 C620 1.415 . S
H622 C619 0.999 . S
H623 C604 0.913 . S
H624 C642 0.951 . S
H625 C644 0.951 . S
H626 C646 0.950 . S
H627 C647 0.950 . S
H628 C649 0.950 . S
H629 C652 0.950 . S
H630 C653 0.950 . S
H631 C655 0.950 . S
H632 C656 0.950 . S
H633 C657 0.951 1_455 S
H634 C659 0.951 . S
H635 C661 0.950 . S
H636 C662 0.950 . S
H637 C664 0.950 . S
H638 C667 0.950 . S
H639 C668 0.950 . S
H640 C670 0.950 . S
H641 C671 0.950 . S
C642 H624 0.951 . S
C642 C643 1.366 . S
C642 C644 1.388 . S
C643 C642 1.366 . S
C643 C647 1.385 . S
C644 H625 0.951 . S
C644 C642 1.388 . S
C644 C645 1.366 . S
C645 C644 1.366 . S
C645 C646 1.414 . S
C645 C648 1.499 . S
C646 H626 0.950 . S
C646 C645 1.414 . S
C646 C647 1.374 . S
C647 H627 0.950 . S
C647 C643 1.385 . S
C647 C646 1.374 . S
C648 C645 1.499 . S
C648 C649 1.373 . S
C648 C650 1.389 . S
C649 H628 0.950 . S
C649 C648 1.373 . S
C649 C665 1.377 . S
C650 C648 1.389 . S
C650 C651 1.524 . S
C650 C664 1.377 . S
C651 C650 1.524 . S
C651 C652 1.397 . S
C651 C656 1.363 . S
C652 H629 0.950 . S
C652 C651 1.397 . S
C652 C653 1.334 . S
C653 H630 0.950 . S
C653 C652 1.334 . S
C653 C654 1.287 . S
C654 C653 1.287 . S
C654 C655 1.524 . S
C654 H673 0.913 1_655 S
C655 H631 0.950 . S
C655 C654 1.524 . S
C655 C656 1.415 . S
C656 H632 0.950 . S
C656 C651 1.363 . S
C656 C655 1.415 . S
C657 H633 0.951 1_655 S
C657 C658 1.370 . S
C657 C659 1.388 . S
C658 C657 1.370 . S
C658 C662 1.394 . S
C659 H634 0.951 . S
C659 C657 1.388 . S
C659 C660 1.366 . S
C660 C659 1.366 . S
C660 C661 1.414 . S
C660 C663 1.499 . S
C661 H635 0.950 . S
C661 C660 1.414 . S
C661 C662 1.374 . S
C662 H636 0.950 . S
C662 C658 1.394 . S
C662 C661 1.374 . S
C663 C660 1.499 . S
C663 C664 1.373 . S
C663 C665 1.389 . S
C664 H637 0.950 . S
C664 C650 1.377 . S
C664 C663 1.373 . S
C665 C649 1.377 . S
C665 C663 1.389 . S
C665 C666 1.524 . S
C666 C665 1.524 . S
C666 C667 1.397 . S
C666 C671 1.363 . S
C667 H638 0.950 . S
C667 C666 1.397 . S
C667 C668 1.334 . S
C668 H639 0.950 . S
C668 C667 1.334 . S
C668 C669 1.287 . S
C669 C668 1.287 . S
C669 C670 1.524 . S
C669 H672 0.999 . S
C670 H640 0.950 . S
C670 C669 1.524 . S
C670 C671 1.415 . S
C671 H641 0.950 . S
C671 C666 1.363 . S
C671 C670 1.415 . S
H672 C669 0.999 . S
H673 C654 0.913 1_455 S
H674 C692 0.951 . S
H675 C694 0.951 . S
H676 C696 0.967 . S
H677 C697 0.950 . S
H678 C699 0.950 . S
H679 C702 0.950 . S
H680 C703 0.950 . S
H681 C705 0.950 . S
H682 C706 0.950 . S
H683 C707 0.951 . S
H684 C709 0.951 . S
H685 C711 0.950 . S
H686 C712 0.950 . S
H687 C714 0.950 . S
H688 C717 0.950 . S
H689 C718 0.950 . S
H690 C720 0.950 . S
H691 C721 0.950 1_545 S
C692 H674 0.951 . S
C692 C693 1.392 . S
C692 C694 1.388 . S
C693 C692 1.392 . S
C693 C697 1.371 1_565 S
C694 H675 0.951 . S
C694 C692 1.388 . S
C694 C695 1.366 . S
C695 C694 1.366 . S
C695 C696 1.383 1_565 S
C695 C698 1.499 . S
C696 H676 0.967 . S
C696 C695 1.383 1_545 S
C696 C697 1.389 . S
C697 H677 0.950 . S
C697 C693 1.371 1_545 S
C697 C696 1.389 . S
C698 C695 1.499 . S
C698 C699 1.373 . S
C698 C700 1.389 . S
C699 H678 0.950 . S
C699 C698 1.373 . S
C699 C715 1.377 . S
C700 C698 1.389 . S
C700 C701 1.524 . S
C700 C714 1.377 . S
C701 C700 1.524 . S
C701 C702 1.397 . S
C701 C706 1.363 . S
C702 H679 0.950 . S
C702 C701 1.397 . S
C702 C703 1.334 . S
C703 H680 0.950 . S
C703 C702 1.334 . S
C703 C704 1.287 . S
C704 C703 1.287 . S
C704 C705 1.524 . S
C704 H723 0.913 . S
C705 H681 0.950 . S
C705 C704 1.524 . S
C705 C706 1.415 . S
C706 H682 0.950 . S
C706 C701 1.363 . S
C706 C705 1.415 . S
C707 H683 0.951 . S
C707 C708 1.373 . S
C707 C709 1.388 . S
C708 C707 1.373 . S
C708 C712 1.392 . S
C709 H684 0.951 . S
C709 C707 1.388 . S
C709 C710 1.366 . S
C710 C709 1.366 . S
C710 C711 1.414 . S
C710 C713 1.499 . S
C711 H685 0.950 . S
C711 C710 1.414 . S
C711 C712 1.374 . S
C712 H686 0.950 . S
C712 C708 1.392 . S
C712 C711 1.374 . S
C713 C710 1.499 . S
C713 C714 1.373 . S
C713 C715 1.389 . S
C714 H687 0.950 . S
C714 C700 1.377 . S
C714 C713 1.373 . S
C715 C699 1.377 . S
C715 C713 1.389 . S
C715 C716 1.524 . S
C716 C715 1.524 . S
C716 C717 1.397 1_655 S
C716 C721 1.363 . S
C717 H688 0.950 . S
C717 C716 1.397 1_455 S
C717 C718 1.334 . S
C718 H689 0.950 . S
C718 C717 1.334 . S
C718 C719 1.287 . S
C719 C718 1.287 . S
C719 C720 1.524 1_565 S
C719 H722 0.999 . S
C720 H690 0.950 . S
C720 C719 1.524 1_545 S
C720 C721 1.415 1_445 S
C721 H691 0.950 1_565 S
C721 C716 1.363 . S
C721 C720 1.415 1_665 S
H722 C719 0.999 . S
H723 C704 0.913 . S
H724 C742 0.951 . S
H725 C744 0.951 . S
H726 C746 0.950 . S
H727 C747 0.950 . S
H728 C749 0.950 . S
H729 C752 0.950 . S
H730 C753 0.950 . S
H731 C755 0.950 . S
H732 C756 0.950 . S
H733 C757 0.951 . S
H734 C759 0.951 . S
H735 C761 0.950 . S
H736 C762 0.950 . S
H737 C764 0.950 . S
H738 C767 0.950 . S
H739 C768 0.950 . S
H740 C770 0.950 . S
H741 C771 0.950 . S
C742 H724 0.951 . S
C742 C743 1.362 1_545 S
C742 C744 1.388 1_545 S
C743 C742 1.362 1_565 S
C743 C747 1.402 . S
C744 H725 0.951 . S
C744 C742 1.388 1_565 S
C744 C745 1.366 . S
C745 C744 1.366 . S
C745 C746 1.414 . S
C745 C748 1.499 . S
C746 H726 0.950 . S
C746 C745 1.414 . S
C746 C747 1.374 . S
C747 H727 0.950 . S
C747 C743 1.402 . S
C747 C746 1.374 . S
C748 C745 1.499 . S
C748 C749 1.373 . S
C748 C750 1.389 . S
C749 H728 0.950 . S
C749 C748 1.373 . S
C749 C765 1.377 . S
C750 C748 1.389 . S
C750 C751 1.524 1_565 S
C750 C764 1.377 . S
C751 C750 1.524 1_545 S
C751 C752 1.397 . S
C751 C756 1.363 . S
C752 H729 0.950 . S
C752 C751 1.397 . S
C752 C753 1.334 . S
C753 H730 0.950 . S
C753 C752 1.334 . S
C753 C754 1.287 . S
C754 C753 1.287 . S
C754 C755 1.524 . S
C754 H773 0.913 . S
C755 H731 0.950 . S
C755 C754 1.524 . S
C755 C756 1.415 . S
C756 H732 0.950 . S
C756 C751 1.363 . S
C756 C755 1.415 . S
C757 H733 0.951 . S
C757 C758 1.366 . S
C757 C759 1.388 . S
C758 C757 1.366 . S
C758 C762 1.385 . S
C759 H734 0.951 . S
C759 C757 1.388 . S
C759 C760 1.366 . S
C760 C759 1.366 . S
C760 C761 1.414 . S
C760 C763 1.499 . S
C761 H735 0.950 . S
C761 C760 1.414 . S
C761 C762 1.374 . S
C762 H736 0.950 . S
C762 C758 1.385 . S
C762 C761 1.374 . S
C763 C760 1.499 . S
C763 C764 1.373 . S
C763 C765 1.389 . S
C764 H737 0.950 . S
C764 C750 1.377 . S
C764 C763 1.373 . S
C765 C749 1.377 . S
C765 C763 1.389 . S
C765 C766 1.524 . S
C766 C765 1.524 . S
C766 C767 1.397 . S
C766 C771 1.363 . S
C767 H738 0.950 . S
C767 C766 1.397 . S
C767 C768 1.334 . S
C768 H739 0.950 . S
C768 C767 1.334 . S
C768 C769 1.287 . S
C769 C768 1.287 . S
C769 C770 1.524 . S
C769 H772 0.999 . S
C770 H740 0.950 . S
C770 C769 1.524 . S
C770 C771 1.415 . S
C771 H741 0.950 . S
C771 C766 1.363 . S
C771 C770 1.415 . S
H772 C769 0.999 . S
H773 C754 0.913 . S
H774 C792 0.951 . S
H775 C794 0.951 . S
H776 C796 0.950 . S
H777 C797 0.950 . S
H778 C799 0.950 . S
H779 C802 0.950 . S
H780 C803 0.950 . S
H781 C805 0.950 . S
H782 C806 0.950 . S
H783 C807 0.951 . S
H784 C809 0.951 . S
H785 C811 0.950 . S
H786 C812 0.950 . S
H787 C814 0.950 . S
H788 C817 0.950 . S
H789 C818 0.950 . S
H790 C820 0.950 . S
H791 C821 0.950 . S
C792 H774 0.951 . S
C792 C793 1.366 . S
C792 C794 1.388 . S
C793 C792 1.366 . S
C793 C797 1.385 . S
C794 H775 0.951 . S
C794 C792 1.388 . S
C794 C795 1.366 . S
C795 C794 1.366 . S
C795 C796 1.414 . S
C795 C798 1.499 . S
C796 H776 0.950 . S
C796 C795 1.414 . S
C796 C797 1.374 . S
C797 H777 0.950 . S
C797 C793 1.385 . S
C797 C796 1.374 . S
C798 C795 1.499 . S
C798 C799 1.373 . S
C798 C800 1.389 . S
C799 H778 0.950 . S
C799 C798 1.373 . S
C799 C815 1.377 . S
C800 C798 1.389 . S
C800 C801 1.524 . S
C800 C814 1.377 . S
C801 C800 1.524 . S
C801 C802 1.397 . S
C801 C806 1.363 . S
C802 H779 0.950 . S
C802 C801 1.397 . S
C802 C803 1.334 . S
C803 H780 0.950 . S
C803 C802 1.334 . S
C803 C804 1.287 . S
C804 C803 1.287 . S
C804 C805 1.524 . S
C804 H823 0.913 . S
C805 H781 0.950 . S
C805 C804 1.524 . S
C805 C806 1.415 . S
C806 H782 0.950 . S
C806 C801 1.363 . S
C806 C805 1.415 . S
C807 H783 0.951 . S
C807 C808 1.366 . S
C807 C809 1.388 . S
C808 C807 1.366 . S
C808 C812 1.385 . S
C809 H784 0.951 . S
C809 C807 1.388 . S
C809 C810 1.366 . S
C810 C809 1.366 . S
C810 C811 1.414 . S
C810 C813 1.499 . S
C811 H785 0.950 . S
C811 C810 1.414 . S
C811 C812 1.374 . S
C812 H786 0.950 . S
C812 C808 1.385 . S
C812 C811 1.374 . S
C813 C810 1.499 . S
C813 C814 1.373 . S
C813 C815 1.389 . S
C814 H787 0.950 . S
C814 C800 1.377 . S
C814 C813 1.373 . S
C815 C799 1.377 . S
C815 C813 1.389 . S
C815 C816 1.524 . S
C816 C815 1.524 . S
C816 C817 1.397 . S
C816 C821 1.363 . S
C817 H788 0.950 . S
C817 C816 1.397 . S
C817 C818 1.334 . S
C818 H789 0.950 . S
C818 C817 1.334 . S
C818 C819 1.287 . S
C819 C818 1.287 . S
C819 C820 1.524 . S
C819 H822 0.999 . S
C820 H790 0.950 . S
C820 C819 1.524 . S
C820 C821 1.415 . S
C821 H791 0.950 . S
C821 C816 1.363 . S
C821 C820 1.415 . S
H822 C819 0.999 . S
H823 C804 0.913 . S
H824 C842 0.951 . S
H825 C844 0.951 . S
H826 C846 0.950 . S
H827 C847 0.950 . S
H828 C849 0.950 . S
H829 C852 0.950 . S
H830 C853 0.950 . S
H831 C855 0.950 . S
H832 C856 0.950 . S
H833 C857 0.951 . S
H834 C859 0.951 . S
H835 C861 0.950 . S
H836 C862 0.950 . S
H837 C864 0.950 . S
H838 C867 0.950 . S
H839 C868 0.950 . S
H840 C870 0.950 . S
H841 C871 0.950 . S
C842 H824 0.951 . S
C842 C843 1.366 . S
C842 C844 1.388 . S
C843 C842 1.366 . S
C843 C847 1.385 . S
C844 H825 0.951 . S
C844 C842 1.388 . S
C844 C845 1.366 . S
C845 C844 1.366 . S
C845 C846 1.414 . S
C845 C848 1.499 . S
C846 H826 0.950 . S
C846 C845 1.414 . S
C846 C847 1.374 . S
C847 H827 0.950 . S
C847 C843 1.385 . S
C847 C846 1.374 . S
C848 C845 1.499 . S
C848 C849 1.373 . S
C848 C850 1.389 . S
C849 H828 0.950 . S
C849 C848 1.373 . S
C849 C865 1.377 . S
C850 C848 1.389 . S
C850 C851 1.524 . S
C850 C864 1.377 . S
C851 C850 1.524 . S
C851 C852 1.397 . S
C851 C856 1.363 1_455 S
C852 H829 0.950 . S
C852 C851 1.397 . S
C852 C853 1.334 . S
C853 H830 0.950 . S
C853 C852 1.334 . S
C853 C854 1.287 1_455 S
C854 C853 1.287 1_655 S
C854 C855 1.524 . S
C854 H873 0.913 . S
C855 H831 0.950 . S
C855 C854 1.524 . S
C855 C856 1.415 . S
C856 H832 0.950 . S
C856 C851 1.363 1_655 S
C856 C855 1.415 . S
C857 H833 0.951 . S
C857 C858 1.385 . S
C857 C859 1.388 . S
C858 C857 1.385 . S
C858 C862 1.378 1_455 S
C859 H834 0.951 . S
C859 C857 1.388 . S
C859 C860 1.366 . S
C860 C859 1.366 . S
C860 C861 1.414 . S
C860 C863 1.499 . S
C861 H835 0.950 . S
C861 C860 1.414 . S
C861 C862 1.374 1_455 S
C862 H836 0.950 . S
C862 C858 1.378 1_655 S
C862 C861 1.374 1_655 S
C863 C860 1.499 . S
C863 C864 1.373 . S
C863 C865 1.389 . S
C864 H837 0.950 . S
C864 C850 1.377 . S
C864 C863 1.373 . S
C865 C849 1.377 . S
C865 C863 1.389 . S
C865 C866 1.524 . S
C866 C865 1.524 . S
C866 C867 1.397 . S
C866 C871 1.363 . S
C867 H838 0.950 . S
C867 C866 1.397 . S
C867 C868 1.334 . S
C868 H839 0.950 . S
C868 C867 1.334 . S
C868 C869 1.287 . S
C869 C868 1.287 . S
C869 C870 1.524 . S
C869 H872 0.999 . S
C870 H840 0.950 . S
C870 C869 1.524 . S
C870 C871 1.415 . S
C871 H841 0.950 . S
C871 C866 1.363 . S
C871 C870 1.415 . S
H872 C869 0.999 . S
H873 C854 0.913 . S
H874 C892 0.951 . S
H875 C894 0.951 . S
H876 C896 0.950 1_565 S
H877 C897 0.950 . S
H878 C899 0.950 . S
H879 C902 0.950 . S
H880 C903 0.950 . S
H881 C905 0.950 . S
H882 C906 0.950 . S
H883 C907 0.951 . S
H884 C909 0.951 1_655 S
H885 C911 0.950 . S
H886 C912 0.950 . S
H887 C914 0.950 . S
H888 C917 0.950 . S
H889 C918 0.950 . S
H890 C920 0.950 . S
H891 C921 0.950 . S
C892 H874 0.951 . S
C892 C893 1.389 . S
C892 C894 1.388 . S
C893 C892 1.389 . S
C893 C897 1.374 1_545 S
C894 H875 0.951 . S
C894 C892 1.388 . S
C894 C895 1.366 . S
C895 C894 1.366 . S
C895 C896 1.414 . S
C895 C898 1.499 . S
C896 H876 0.950 1_545 S
C896 C895 1.414 . S
C896 C897 1.374 1_545 S
C897 H877 0.950 . S
C897 C893 1.374 1_565 S
C897 C896 1.374 1_565 S
C898 C895 1.499 . S
C898 C899 1.373 . S
C898 C900 1.389 . S
C899 H878 0.950 . S
C899 C898 1.373 . S
C899 C915 1.377 . S
C900 C898 1.389 . S
C900 C901 1.524 . S
C900 C914 1.377 . S
C901 C900 1.524 . S
C901 C902 1.397 . S
C901 C906 1.363 . S
C902 H879 0.950 . S
C902 C901 1.397 . S
C902 C903 1.334 . S
C903 H880 0.950 . S
C903 C902 1.334 . S
C903 C904 1.287 . S
C904 C903 1.287 . S
C904 C905 1.524 . S
C904 H923 0.913 . S
C905 H881 0.950 . S
C905 C904 1.524 . S
C905 C906 1.415 . S
C906 H882 0.950 . S
C906 C901 1.363 . S
C906 C905 1.415 . S
C907 H883 0.951 . S
C907 C908 1.357 1_655 S
C907 C909 1.388 1_655 S
C908 C907 1.357 1_455 S
C908 C912 1.406 . S
C909 H884 0.951 1_455 S
C909 C907 1.388 1_455 S
C909 C910 1.366 . S
C910 C909 1.366 . S
C910 C911 1.414 . S
C910 C913 1.499 . S
C911 H885 0.950 . S
C911 C910 1.414 . S
C911 C912 1.374 . S
C912 H886 0.950 . S
C912 C908 1.406 . S
C912 C911 1.374 . S
C913 C910 1.499 . S
C913 C914 1.373 . S
C913 C915 1.389 . S
C914 H887 0.950 . S
C914 C900 1.377 . S
C914 C913 1.373 . S
C915 C899 1.377 . S
C915 C913 1.389 . S
C915 C916 1.524 . S
C916 C915 1.524 . S
C916 C917 1.397 . S
C916 C921 1.363 1_545 S
C917 H888 0.950 . S
C917 C916 1.397 . S
C917 C918 1.334 . S
C918 H889 0.950 . S
C918 C917 1.334 . S
C918 C919 1.287 1_545 S
C919 C918 1.287 1_565 S
C919 C920 1.524 . S
C919 H922 0.999 . S
C920 H890 0.950 . S
C920 C919 1.524 . S
C920 C921 1.415 . S
C921 H891 0.950 . S
C921 C916 1.363 1_565 S
C921 C920 1.415 . S
H922 C919 0.999 . S
H923 C904 0.913 . S
H924 C942 0.951 . S
H925 C944 0.951 . S
H926 C946 0.950 . S
H927 C947 0.950 . S
H928 C949 0.950 . S
H929 C952 0.950 . S
H930 C953 0.950 . S
H931 C955 0.950 . S
H932 C956 0.950 . S
H933 C957 0.951 . S
H934 C959 0.951 . S
H935 C961 0.950 . S
H936 C962 0.950 . S
H937 C964 0.950 . S
H938 C967 0.950 . S
H939 C968 0.950 . S
H940 C970 0.950 . S
H941 C971 0.950 . S
C942 H924 0.951 . S
C942 C943 1.366 . S
C942 C944 1.388 . S
C943 C942 1.366 . S
C943 C947 1.385 . S
C944 H925 0.951 . S
C944 C942 1.388 . S
C944 C945 1.366 . S
C945 C944 1.366 . S
C945 C946 1.414 . S
C945 C948 1.499 . S
C946 H926 0.950 . S
C946 C945 1.414 . S
C946 C947 1.374 . S
C947 H927 0.950 . S
C947 C943 1.385 . S
C947 C946 1.374 . S
C948 C945 1.499 . S
C948 C949 1.373 . S
C948 C950 1.389 . S
C949 H928 0.950 . S
C949 C948 1.373 . S
C949 C965 1.377 . S
C950 C948 1.389 . S
C950 C951 1.524 . S
C950 C964 1.377 . S
C951 C950 1.524 . S
C951 C952 1.397 . S
C951 C956 1.363 . S
C952 H929 0.950 . S
C952 C951 1.397 . S
C952 C953 1.334 . S
C953 H930 0.950 . S
C953 C952 1.334 . S
C953 C954 1.287 . S
C954 C953 1.287 . S
C954 C955 1.524 . S
C954 H973 0.913 . S
C955 H931 0.950 . S
C955 C954 1.524 . S
C955 C956 1.415 . S
C956 H932 0.950 . S
C956 C951 1.363 . S
C956 C955 1.415 . S
C957 H933 0.951 . S
C957 C958 1.385 . S
C957 C959 1.388 . S
C958 C957 1.385 . S
C958 C962 1.379 1_545 S
C959 H934 0.951 . S
C959 C957 1.388 . S
C959 C960 1.366 . S
C960 C959 1.366 . S
C960 C961 1.414 . S
C960 C963 1.499 . S
C961 H935 0.950 . S
C961 C960 1.414 . S
C961 C962 1.374 1_545 S
C962 H936 0.950 . S
C962 C958 1.379 1_565 S
C962 C961 1.374 1_565 S
C963 C960 1.499 . S
C963 C964 1.373 . S
C963 C965 1.389 . S
C964 H937 0.950 . S
C964 C950 1.377 . S
C964 C963 1.373 . S
C965 C949 1.377 . S
C965 C963 1.389 . S
C965 C966 1.524 . S
C966 C965 1.524 . S
C966 C967 1.397 1_545 S
C966 C971 1.363 . S
C967 H938 0.950 . S
C967 C966 1.397 1_565 S
C967 C968 1.334 . S
C968 H939 0.950 . S
C968 C967 1.334 . S
C968 C969 1.287 . S
C969 C968 1.287 . S
C969 C970 1.524 1_565 S
C969 H972 0.999 . S
C970 H940 0.950 . S
C970 C969 1.524 1_545 S
C970 C971 1.415 . S
C971 H941 0.950 . S
C971 C966 1.363 . S
C971 C970 1.415 . S
H972 C969 0.999 . S
H973 C954 0.913 . S
H974 C992 0.951 . S
H975 C994 0.951 . S
H976 C996 0.950 . S
H977 C997 0.950 . S
H978 C999 0.950 . S
H979 C1002 0.950 . S
H980 C1003 0.950 . S
H981 C1005 0.950 . S
H982 C1006 0.950 . S
H983 C1007 0.951 . S
H984 C1009 0.951 . S
H985 C1011 0.950 . S
H986 C1012 0.950 . S
H987 C1014 0.950 . S
H988 C1017 0.950 . S
H989 C1018 0.950 . S
H990 C1020 0.950 . S
H991 C1021 0.950 . S
C992 H974 0.951 . S
C992 C993 1.366 . S
C992 C994 1.388 . S
C993 C992 1.366 . S
C993 C997 1.385 . S
C994 H975 0.951 . S
C994 C992 1.388 . S
C994 C995 1.366 . S
C995 C994 1.366 . S
C995 C996 1.414 . S
C995 C998 1.499 . S
C996 H976 0.950 . S
C996 C995 1.414 . S
C996 C997 1.374 . S
C997 H977 0.950 . S
C997 C993 1.385 . S
C997 C996 1.374 . S
C998 C995 1.499 . S
C998 C999 1.373 . S
C998 C1000 1.389 . S
C999 H978 0.950 . S
C999 C998 1.373 . S
C999 C1015 1.377 . S
C1000 C998 1.389 . S
C1000 C1001 1.524 . S
C1000 C1014 1.377 . S
C1001 C1000 1.524 . S
C1001 C1002 1.397 . S
C1001 C1006 1.363 . S
C1002 H979 0.950 . S
C1002 C1001 1.397 . S
C1002 C1003 1.334 . S
C1003 H980 0.950 . S
C1003 C1002 1.334 . S
C1003 C1004 1.287 . S
C1004 C1003 1.287 . S
C1004 C1005 1.524 . S
C1004 H1023 0.913 . S
C1005 H981 0.950 . S
C1005 C1004 1.524 . S
C1005 C1006 1.415 . S
C1006 H982 0.950 . S
C1006 C1001 1.363 . S
C1006 C1005 1.415 . S
C1007 H983 0.951 . S
C1007 C1008 1.366 . S
C1007 C1009 1.388 . S
C1008 C1007 1.366 . S
C1008 C1012 1.385 . S
C1009 H984 0.951 . S
C1009 C1007 1.388 . S
C1009 C1010 1.366 . S
C1010 C1009 1.366 . S
C1010 C1011 1.414 . S
C1010 C1013 1.499 . S
C1011 H985 0.950 . S
C1011 C1010 1.414 . S
C1011 C1012 1.374 . S
C1012 H986 0.950 . S
C1012 C1008 1.385 . S
C1012 C1011 1.374 . S
C1013 C1010 1.499 . S
C1013 C1014 1.373 . S
C1013 C1015 1.389 . S
C1014 H987 0.950 . S
C1014 C1000 1.377 . S
C1014 C1013 1.373 . S
C1015 C999 1.377 . S
C1015 C1013 1.389 . S
C1015 C1016 1.524 . S
C1016 C1015 1.524 . S
C1016 C1017 1.397 . S
C1016 C1021 1.363 . S
C1017 H988 0.950 . S
C1017 C1016 1.397 . S
C1017 C1018 1.334 . S
C1018 H989 0.950 . S
C1018 C1017 1.334 . S
C1018 C1019 1.287 . S
C1019 C1018 1.287 . S
C1019 C1020 1.524 . S
C1019 H1022 0.999 . S
C1020 H990 0.950 . S
C1020 C1019 1.524 . S
C1020 C1021 1.415 . S
C1021 H991 0.950 . S
C1021 C1016 1.363 . S
C1021 C1020 1.415 . S
H1022 C1019 0.999 . S
H1023 C1004 0.913 . S
H1024 C1042 0.924 1_655 S
H1025 C1044 0.951 1_655 S
H1026 C1046 0.950 . S
H1027 C1047 0.950 . S
H1028 C1049 0.950 . S
H1029 C1052 0.950 . S
H1030 C1053 0.950 . S
H1031 C1055 0.950 . S
H1032 C1056 0.950 . S
H1033 C1057 0.951 . S
H1034 C1059 0.951 . S
H1035 C1061 0.961 . S
H1036 C1062 0.951 1_655 S
H1037 C1064 0.950 . S
H1038 C1067 0.950 1_655 S
H1039 C1068 0.950 1_655 S
H1040 C1070 0.950 . S
H1041 C1071 0.950 . S
C1042 H1024 0.924 1_455 S
C1042 C1043 1.393 . S
C1042 C1044 1.389 . S
C1043 C1042 1.393 . S
C1043 C1047 1.385 . S
C1044 H1025 0.951 1_455 S
C1044 C1042 1.389 . S
C1044 C1045 1.366 . S
C1045 C1044 1.366 . S
C1045 C1046 1.414 . S
C1045 C1048 1.499 . S
C1046 H1026 0.950 . S
C1046 C1045 1.414 . S
C1046 C1047 1.374 . S
C1047 H1027 0.950 . S
C1047 C1043 1.385 . S
C1047 C1046 1.374 . S
C1048 C1045 1.499 . S
C1048 C1049 1.373 . S
C1048 C1050 1.389 . S
C1049 H1028 0.950 . S
C1049 C1048 1.373 . S
C1049 C1065 1.377 . S
C1050 C1048 1.389 . S
C1050 C1051 1.524 . S
C1050 C1064 1.377 . S
C1051 C1050 1.524 . S
C1051 C1052 1.397 . S
C1051 C1056 1.363 1_455 S
C1052 H1029 0.950 . S
C1052 C1051 1.397 . S
C1052 C1053 1.334 . S
C1053 H1030 0.950 . S
C1053 C1052 1.334 . S
C1053 C1054 1.287 . S
C1054 C1053 1.287 . S
C1054 C1055 1.524 1_455 S
C1054 H1073 0.913 . S
C1055 H1031 0.950 . S
C1055 C1054 1.524 1_655 S
C1055 C1056 1.415 . S
C1056 H1032 0.950 . S
C1056 C1051 1.363 1_655 S
C1056 C1055 1.415 . S
C1057 H1033 0.951 . S
C1057 C1058 1.366 . S
C1057 C1059 1.388 . S
C1058 C1057 1.366 . S
C1058 C1062 1.383 . S
C1059 H1034 0.951 . S
C1059 C1057 1.388 . S
C1059 C1060 1.366 . S
C1060 C1059 1.366 . S
C1060 C1061 1.403 1_455 S
C1060 C1063 1.499 . S
C1061 H1035 0.961 . S
C1061 C1060 1.403 1_655 S
C1061 C1062 1.374 1_655 S
C1062 H1036 0.951 1_455 S
C1062 C1058 1.383 . S
C1062 C1061 1.374 1_455 S
C1063 C1060 1.499 . S
C1063 C1064 1.373 . S
C1063 C1065 1.389 . S
C1064 H1037 0.950 . S
C1064 C1050 1.377 . S
C1064 C1063 1.373 . S
C1065 C1049 1.377 . S
C1065 C1063 1.389 . S
C1065 C1066 1.524 . S
C1066 C1065 1.524 . S
C1066 C1067 1.397 . S
C1066 C1071 1.363 . S
C1067 H1038 0.950 1_455 S
C1067 C1066 1.397 . S
C1067 C1068 1.334 . S
C1068 H1039 0.950 1_455 S
C1068 C1067 1.334 . S
C1068 C1069 1.287 . S
C1069 C1068 1.287 . S
C1069 C1070 1.524 . S
C1069 H1072 0.999 . S
C1070 H1040 0.950 . S
C1070 C1069 1.524 . S
C1070 C1071 1.415 . S
C1071 H1041 0.950 . S
C1071 C1066 1.363 . S
C1071 C1070 1.415 . S
H1072 C1069 0.999 . S
H1073 C1054 0.913 . S
H1074 C1092 0.951 . S
H1075 C1094 0.951 . S
H1076 C1096 0.950 . S
H1077 C1097 0.973 . S
H1078 C1099 0.950 . S
H1079 C1102 0.950 1_565 S
H1080 C1103 0.950 1_565 S
H1081 C1105 0.950 . S
H1082 C1106 0.950 . S
H1083 C1107 0.952 1_565 S
H1084 C1109 0.939 1_565 S
H1085 C1111 0.950 . S
H1086 C1112 0.950 . S
H1087 C1114 0.950 . S
H1088 C1117 0.950 . S
H1089 C1118 0.950 . S
H1090 C1120 0.950 . S
H1091 C1121 0.950 . S
C1092 H1074 0.951 . S
C1092 C1093 1.366 . S
C1092 C1094 1.388 . S
C1093 C1092 1.366 . S
C1093 C1097 1.362 1_545 S
C1094 H1075 0.951 . S
C1094 C1092 1.388 . S
C1094 C1095 1.366 . S
C1095 C1094 1.366 . S
C1095 C1096 1.414 1_545 S
C1095 C1098 1.499 . S
C1096 H1076 0.950 . S
C1096 C1095 1.414 1_565 S
C1096 C1097 1.375 . S
C1097 H1077 0.973 . S
C1097 C1093 1.362 1_565 S
C1097 C1096 1.375 . S
C1098 C1095 1.499 . S
C1098 C1099 1.373 . S
C1098 C1100 1.389 . S
C1099 H1078 0.950 . S
C1099 C1098 1.373 . S
C1099 C1115 1.377 . S
C1100 C1098 1.389 . S
C1100 C1101 1.524 . S
C1100 C1114 1.377 . S
C1101 C1100 1.524 . S
C1101 C1102 1.397 . S
C1101 C1106 1.363 . S
C1102 H1079 0.950 1_545 S
C1102 C1101 1.397 . S
C1102 C1103 1.334 . S
C1103 H1080 0.950 1_545 S
C1103 C1102 1.334 . S
C1103 C1104 1.287 . S
C1104 C1103 1.287 . S
C1104 C1105 1.524 . S
C1104 H1123 0.913 . S
C1105 H1081 0.950 . S
C1105 C1104 1.524 . S
C1105 C1106 1.415 . S
C1106 H1082 0.950 . S
C1106 C1101 1.363 . S
C1106 C1105 1.415 . S
C1107 H1083 0.952 1_545 S
C1107 C1108 1.365 . S
C1107 C1109 1.388 . S
C1108 C1107 1.365 . S
C1108 C1112 1.385 . S
C1109 H1084 0.939 1_545 S
C1109 C1107 1.388 . S
C1109 C1110 1.378 . S
C1110 C1109 1.378 . S
C1110 C1111 1.414 . S
C1110 C1113 1.499 . S
C1111 H1085 0.950 . S
C1111 C1110 1.414 . S
C1111 C1112 1.374 . S
C1112 H1086 0.950 . S
C1112 C1108 1.385 . S
C1112 C1111 1.374 . S
C1113 C1110 1.499 . S
C1113 C1114 1.373 . S
C1113 C1115 1.389 . S
C1114 H1087 0.950 . S
C1114 C1100 1.377 . S
C1114 C1113 1.373 . S
C1115 C1099 1.377 . S
C1115 C1113 1.389 . S
C1115 C1116 1.524 . S
C1116 C1115 1.524 . S
C1116 C1117 1.397 . S
C1116 C1121 1.363 1_545 S
C1117 H1088 0.950 . S
C1117 C1116 1.397 . S
C1117 C1118 1.334 . S
C1118 H1089 0.950 . S
C1118 C1117 1.334 . S
C1118 C1119 1.287 . S
C1119 C1118 1.287 . S
C1119 C1120 1.524 1_545 S
C1119 H1122 0.999 . S
C1120 H1090 0.950 . S
C1120 C1119 1.524 1_565 S
C1120 C1121 1.415 . S
C1121 H1091 0.950 . S
C1121 C1116 1.363 1_565 S
C1121 C1120 1.415 . S
H1122 C1119 0.999 . S
H1123 C1104 0.913 . S
H1124 C1142 0.951 . S
H1125 C1144 0.951 . S
H1126 C1146 0.950 . S
H1127 C1147 0.950 . S
H1128 C1149 0.950 . S
H1129 C1152 0.950 . S
H1130 C1153 0.950 . S
H1131 C1155 0.950 . S
H1132 C1156 0.950 . S
H1133 C1157 0.951 . S
H1134 C1159 0.951 . S
H1135 C1161 0.950 . S
H1136 C1162 0.950 . S
H1137 C1164 0.950 . S
H1138 C1167 0.950 . S
H1139 C1168 0.950 . S
H1140 C1170 0.950 . S
H1141 C1171 0.950 . S
C1142 H1124 0.951 . S
C1142 C1143 1.366 . S
C1142 C1144 1.388 . S
C1143 C1142 1.366 . S
C1143 C1147 1.385 . S
C1144 H1125 0.951 . S
C1144 C1142 1.388 . S
C1144 C1145 1.366 . S
C1145 C1144 1.366 . S
C1145 C1146 1.414 . S
C1145 C1148 1.499 . S
C1146 H1126 0.950 . S
C1146 C1145 1.414 . S
C1146 C1147 1.374 . S
C1147 H1127 0.950 . S
C1147 C1143 1.385 . S
C1147 C1146 1.374 . S
C1148 C1145 1.499 . S
C1148 C1149 1.373 . S
C1148 C1150 1.389 . S
C1149 H1128 0.950 . S
C1149 C1148 1.373 . S
C1149 C1165 1.377 . S
C1150 C1148 1.389 . S
C1150 C1151 1.524 . S
C1150 C1164 1.377 . S
C1151 C1150 1.524 . S
C1151 C1152 1.397 . S
C1151 C1156 1.363 . S
C1152 H1129 0.950 . S
C1152 C1151 1.397 . S
C1152 C1153 1.334 . S
C1153 H1130 0.950 . S
C1153 C1152 1.334 . S
C1153 C1154 1.287 . S
C1154 C1153 1.287 . S
C1154 C1155 1.524 . S
C1154 H1173 0.913 . S
C1155 H1131 0.950 . S
C1155 C1154 1.524 . S
C1155 C1156 1.415 . S
C1156 H1132 0.950 . S
C1156 C1151 1.363 . S
C1156 C1155 1.415 . S
C1157 H1133 0.951 . S
C1157 C1158 1.366 . S
C1157 C1159 1.388 . S
C1158 C1157 1.366 . S
C1158 C1162 1.385 . S
C1159 H1134 0.951 . S
C1159 C1157 1.388 . S
C1159 C1160 1.366 . S
C1160 C1159 1.366 . S
C1160 C1161 1.414 . S
C1160 C1163 1.499 . S
C1161 H1135 0.950 . S
C1161 C1160 1.414 . S
C1161 C1162 1.374 . S
C1162 H1136 0.950 . S
C1162 C1158 1.385 . S
C1162 C1161 1.374 . S
C1163 C1160 1.499 . S
C1163 C1164 1.373 . S
C1163 C1165 1.389 . S
C1164 H1137 0.950 . S
C1164 C1150 1.377 . S
C1164 C1163 1.373 . S
C1165 C1149 1.377 . S
C1165 C1163 1.389 . S
C1165 C1166 1.524 . S
C1166 C1165 1.524 . S
C1166 C1167 1.397 . S
C1166 C1171 1.363 . S
C1167 H1138 0.950 . S
C1167 C1166 1.397 . S
C1167 C1168 1.334 . S
C1168 H1139 0.950 . S
C1168 C1167 1.334 . S
C1168 C1169 1.287 . S
C1169 C1168 1.287 . S
C1169 C1170 1.524 . S
C1169 H1172 0.999 . S
C1170 H1140 0.950 . S
C1170 C1169 1.524 . S
C1170 C1171 1.415 . S
C1171 H1141 0.950 . S
C1171 C1166 1.363 . S
C1171 C1170 1.415 . S
H1172 C1169 0.999 . S
H1173 C1154 0.913 . S
H1174 C1192 0.951 . S
H1175 C1194 0.951 . S
H1176 C1196 0.950 . S
H1177 C1197 0.950 . S
H1178 C1199 0.950 . S
H1179 C1202 0.950 . S
H1180 C1203 0.950 . S
H1181 C1205 0.950 . S
H1182 C1206 0.950 . S
H1183 C1207 0.951 . S
H1184 C1209 0.951 . S
H1185 C1211 0.950 . S
H1186 C1212 0.950 . S
H1187 C1214 0.950 . S
H1188 C1217 0.950 . S
H1189 C1218 0.950 . S
H1190 C1220 0.950 . S
H1191 C1221 0.950 . S
C1192 H1174 0.951 . S
C1192 C1193 1.366 . S
C1192 C1194 1.388 . S
C1193 C1192 1.366 . S
C1193 C1197 1.385 . S
C1194 H1175 0.951 . S
C1194 C1192 1.388 . S
C1194 C1195 1.366 . S
C1195 C1194 1.366 . S
C1195 C1196 1.414 . S
C1195 C1198 1.499 . S
C1196 H1176 0.950 . S
C1196 C1195 1.414 . S
C1196 C1197 1.374 . S
C1197 H1177 0.950 . S
C1197 C1193 1.385 . S
C1197 C1196 1.374 . S
C1198 C1195 1.499 . S
C1198 C1199 1.373 . S
C1198 C1200 1.389 . S
C1199 H1178 0.950 . S
C1199 C1198 1.373 . S
C1199 C1215 1.377 . S
C1200 C1198 1.389 . S
C1200 C1201 1.524 . S
C1200 C1214 1.377 . S
C1201 C1200 1.524 . S
C1201 C1202 1.397 . S
C1201 C1206 1.363 . S
C1202 H1179 0.950 . S
C1202 C1201 1.397 . S
C1202 C1203 1.334 . S
C1203 H1180 0.950 . S
C1203 C1202 1.334 . S
C1203 C1204 1.287 . S
C1204 C1203 1.287 . S
C1204 C1205 1.524 . S
C1204 H1223 0.913 . S
C1205 H1181 0.950 . S
C1205 C1204 1.524 . S
C1205 C1206 1.415 . S
C1206 H1182 0.950 . S
C1206 C1201 1.363 . S
C1206 C1205 1.415 . S
C1207 H1183 0.951 . S
C1207 C1208 1.366 . S
C1207 C1209 1.388 . S
C1208 C1207 1.366 . S
C1208 C1212 1.385 . S
C1209 H1184 0.951 . S
C1209 C1207 1.388 . S
C1209 C1210 1.366 . S
C1210 C1209 1.366 . S
C1210 C1211 1.414 . S
C1210 C1213 1.499 . S
C1211 H1185 0.950 . S
C1211 C1210 1.414 . S
C1211 C1212 1.374 . S
C1212 H1186 0.950 . S
C1212 C1208 1.385 . S
C1212 C1211 1.374 . S
C1213 C1210 1.499 . S
C1213 C1214 1.373 . S
C1213 C1215 1.389 . S
C1214 H1187 0.950 . S
C1214 C1200 1.377 . S
C1214 C1213 1.373 . S
C1215 C1199 1.377 . S
C1215 C1213 1.389 . S
C1215 C1216 1.524 . S
C1216 C1215 1.524 . S
C1216 C1217 1.397 . S
C1216 C1221 1.363 . S
C1217 H1188 0.950 . S
C1217 C1216 1.397 . S
C1217 C1218 1.334 . S
C1218 H1189 0.950 . S
C1218 C1217 1.334 . S
C1218 C1219 1.287 . S
C1219 C1218 1.287 . S
C1219 C1220 1.524 . S
C1219 H1222 0.999 . S
C1220 H1190 0.950 . S
C1220 C1219 1.524 . S
C1220 C1221 1.415 . S
C1221 H1191 0.950 . S
C1221 C1216 1.363 . S
C1221 C1220 1.415 . S
H1222 C1219 0.999 . S
H1223 C1204 0.913 . S
H1224 C1242 0.951 . S
H1225 C1244 0.951 . S
H1226 C1246 0.950 . S
H1227 C1247 0.950 . S
H1228 C1249 0.950 . S
H1229 C1252 0.950 . S
H1230 C1253 0.950 . S
H1231 C1255 0.950 . S
H1232 C1256 0.950 . S
H1233 C1257 0.951 . S
H1234 C1259 0.951 . S
H1235 C1261 0.950 . S
H1236 C1262 0.950 . S
H1237 C1264 0.950 1_455 S
H1238 C1267 0.950 . S
H1239 C1268 0.950 . S
H1240 C1270 0.950 . S
H1241 C1271 0.950 . S
C1242 H1224 0.951 . S
C1242 C1243 1.366 . S
C1242 C1244 1.388 . S
C1243 C1242 1.366 . S
C1243 C1247 1.385 . S
C1244 H1225 0.951 . S
C1244 C1242 1.388 . S
C1244 C1245 1.366 . S
C1245 C1244 1.366 . S
C1245 C1246 1.414 . S
C1245 C1248 1.499 . S
C1246 H1226 0.950 . S
C1246 C1245 1.414 . S
C1246 C1247 1.374 . S
C1247 H1227 0.950 . S
C1247 C1243 1.385 . S
C1247 C1246 1.374 . S
C1248 C1245 1.499 . S
C1248 C1249 1.373 . S
C1248 C1250 1.398 . S
C1249 H1228 0.950 . S
C1249 C1248 1.373 . S
C1249 C1265 1.377 . S
C1250 C1248 1.398 . S
C1250 C1251 1.515 1_655 S
C1250 C1264 1.377 . S
C1251 C1250 1.515 1_455 S
C1251 C1252 1.397 . S
C1251 C1256 1.363 . S
C1252 H1229 0.950 . S
C1252 C1251 1.397 . S
C1252 C1253 1.334 . S
C1253 H1230 0.950 . S
C1253 C1252 1.334 . S
C1253 C1254 1.287 . S
C1254 C1253 1.287 . S
C1254 C1255 1.524 . S
C1254 H1273 0.913 . S
C1255 H1231 0.950 . S
C1255 C1254 1.524 . S
C1255 C1256 1.415 . S
C1256 H1232 0.950 . S
C1256 C1251 1.363 . S
C1256 C1255 1.415 . S
C1257 H1233 0.951 . S
C1257 C1258 1.366 . S
C1257 C1259 1.388 . S
C1258 C1257 1.366 . S
C1258 C1262 1.385 . S
C1259 H1234 0.951 . S
C1259 C1257 1.388 . S
C1259 C1260 1.366 . S
C1260 C1259 1.366 . S
C1260 C1261 1.414 . S
C1260 C1263 1.499 . S
C1261 H1235 0.950 . S
C1261 C1260 1.414 . S
C1261 C1262 1.374 . S
C1262 H1236 0.950 . S
C1262 C1258 1.385 . S
C1262 C1261 1.374 . S
C1263 C1260 1.499 . S
C1263 C1264 1.373 . S
C1263 C1265 1.389 . S
C1264 H1237 0.950 1_655 S
C1264 C1250 1.377 . S
C1264 C1263 1.373 . S
C1265 C1249 1.377 . S
C1265 C1263 1.389 . S
C1265 C1266 1.524 . S
C1266 C1265 1.524 . S
C1266 C1267 1.397 . S
C1266 C1271 1.363 . S
C1267 H1238 0.950 . S
C1267 C1266 1.397 . S
C1267 C1268 1.334 . S
C1268 H1239 0.950 . S
C1268 C1267 1.334 . S
C1268 C1269 1.287 . S
C1269 C1268 1.287 . S
C1269 C1270 1.524 . S
C1269 H1272 0.999 . S
C1270 H1240 0.950 . S
C1270 C1269 1.524 . S
C1270 C1271 1.415 . S
C1271 H1241 0.950 . S
C1271 C1266 1.363 . S
C1271 C1270 1.415 . S
H1272 C1269 0.999 . S
H1273 C1254 0.913 . S
H1274 C1292 0.966 . S
H1275 C1294 0.975 . S
H1276 C1296 0.950 . S
H1277 C1297 0.950 . S
H1278 C1299 0.950 . S
H1279 C1302 0.949 . S
H1280 C1303 0.950 . S
H1281 C1305 0.950 . S
H1282 C1306 0.950 . S
H1283 C1307 0.951 . S
H1284 C1309 0.951 . S
H1285 C1311 0.950 . S
H1286 C1312 0.980 . S
H1287 C1314 0.970 . S
H1288 C1317 0.950 . S
H1289 C1318 0.950 . S
H1290 C1320 0.950 . S
H1291 C1321 0.950 . S
C1292 H1274 0.966 . S
C1292 C1293 1.350 1_545 S
C1292 C1294 1.388 . S
C1293 C1292 1.350 1_565 S
C1293 C1297 1.385 . S
C1294 H1275 0.975 . S
C1294 C1292 1.388 . S
C1294 C1295 1.342 1_545 S
C1295 C1294 1.342 1_565 S
C1295 C1296 1.414 . S
C1295 C1298 1.499 . S
C1296 H1276 0.950 . S
C1296 C1295 1.414 . S
C1296 C1297 1.374 . S
C1297 H1277 0.950 . S
C1297 C1293 1.385 . S
C1297 C1296 1.374 . S
C1298 C1295 1.499 . S
C1298 C1299 1.373 . S
C1298 C1300 1.380 1_565 S
C1299 H1278 0.950 . S
C1299 C1298 1.373 . S
C1299 C1315 1.377 . S
C1300 C1298 1.380 1_545 S
C1300 C1301 1.534 . S
C1300 C1314 1.376 . S
C1301 C1300 1.534 . S
C1301 C1302 1.397 . S
C1301 C1306 1.363 . S
C1302 H1279 0.949 . S
C1302 C1301 1.397 . S
C1302 C1303 1.334 . S
C1303 H1280 0.950 . S
C1303 C1302 1.334 . S
C1303 C1304 1.287 . S
C1304 C1303 1.287 . S
C1304 C1305 1.524 . S
C1304 H1323 0.913 . S
C1305 H1281 0.950 . S
C1305 C1304 1.524 . S
C1305 C1306 1.415 . S
C1306 H1282 0.950 . S
C1306 C1301 1.363 . S
C1306 C1305 1.415 . S
C1307 H1283 0.951 . S
C1307 C1308 1.366 . S
C1307 C1309 1.388 . S
C1308 C1307 1.366 . S
C1308 C1312 1.355 1_565 S
C1309 H1284 0.951 . S
C1309 C1307 1.388 . S
C1309 C1310 1.366 . S
C1310 C1309 1.366 . S
C1310 C1311 1.414 1_565 S
C1310 C1313 1.499 . S
C1311 H1285 0.950 . S
C1311 C1310 1.414 1_545 S
C1311 C1312 1.374 . S
C1312 H1286 0.980 . S
C1312 C1308 1.355 1_545 S
C1312 C1311 1.374 . S
C1313 C1310 1.499 . S
C1313 C1314 1.354 1_565 S
C1313 C1315 1.389 . S
C1314 H1287 0.970 . S
C1314 C1300 1.376 . S
C1314 C1313 1.354 1_545 S
C1315 C1299 1.377 . S
C1315 C1313 1.389 . S
C1315 C1316 1.524 . S
C1316 C1315 1.524 . S
C1316 C1317 1.397 . S
C1316 C1321 1.363 . S
C1317 H1288 0.950 . S
C1317 C1316 1.397 . S
C1317 C1318 1.334 . S
C1318 H1289 0.950 . S
C1318 C1317 1.334 . S
C1318 C1319 1.287 . S
C1319 C1318 1.287 . S
C1319 C1320 1.524 . S
C1319 H1322 0.999 . S
C1320 H1290 0.950 . S
C1320 C1319 1.524 . S
C1320 C1321 1.415 . S
C1321 H1291 0.950 . S
C1321 C1316 1.363 . S
C1321 C1320 1.415 . S
H1322 C1319 0.999 . S
H1323 C1304 0.913 . S
H1324 C1342 0.951 . S
H1325 C1344 0.951 . S
H1326 C1346 0.950 . S
H1327 C1347 0.950 . S
H1328 C1349 0.950 . S
H1329 C1352 0.950 . S
H1330 C1353 0.950 . S
H1331 C1355 0.950 . S
H1332 C1356 0.950 . S
H1333 C1357 0.951 . S
H1334 C1359 0.951 . S
H1335 C1361 0.950 . S
H1336 C1362 0.950 . S
H1337 C1364 0.950 . S
H1338 C1367 0.950 . S
H1339 C1368 0.950 . S
H1340 C1370 0.950 . S
H1341 C1371 0.950 . S
C1342 H1324 0.951 . S
C1342 C1343 1.366 . S
C1342 C1344 1.388 . S
C1343 C1342 1.366 . S
C1343 C1347 1.385 . S
C1344 H1325 0.951 . S
C1344 C1342 1.388 . S
C1344 C1345 1.366 . S
C1345 C1344 1.366 . S
C1345 C1346 1.414 . S
C1345 C1348 1.499 . S
C1346 H1326 0.950 . S
C1346 C1345 1.414 . S
C1346 C1347 1.374 . S
C1347 H1327 0.950 . S
C1347 C1343 1.385 . S
C1347 C1346 1.374 . S
C1348 C1345 1.499 . S
C1348 C1349 1.373 . S
C1348 C1350 1.389 . S
C1349 H1328 0.950 . S
C1349 C1348 1.373 . S
C1349 C1365 1.377 . S
C1350 C1348 1.389 . S
C1350 C1351 1.524 . S
C1350 C1364 1.377 . S
C1351 C1350 1.524 . S
C1351 C1352 1.397 . S
C1351 C1356 1.363 . S
C1352 H1329 0.950 . S
C1352 C1351 1.397 . S
C1352 C1353 1.334 . S
C1353 H1330 0.950 . S
C1353 C1352 1.334 . S
C1353 C1354 1.287 . S
C1354 C1353 1.287 . S
C1354 C1355 1.524 . S
C1354 H1373 0.913 . S
C1355 H1331 0.950 . S
C1355 C1354 1.524 . S
C1355 C1356 1.415 . S
C1356 H1332 0.950 . S
C1356 C1351 1.363 . S
C1356 C1355 1.415 . S
C1357 H1333 0.951 . S
C1357 C1358 1.366 . S
C1357 C1359 1.388 . S
C1358 C1357 1.366 . S
C1358 C1362 1.385 . S
C1359 H1334 0.951 . S
C1359 C1357 1.388 . S
C1359 C1360 1.366 . S
C1360 C1359 1.366 . S
C1360 C1361 1.414 . S
C1360 C1363 1.499 . S
C1361 H1335 0.950 . S
C1361 C1360 1.414 . S
C1361 C1362 1.374 . S
C1362 H1336 0.950 . S
C1362 C1358 1.385 . S
C1362 C1361 1.374 . S
C1363 C1360 1.499 . S
C1363 C1364 1.373 . S
C1363 C1365 1.389 . S
C1364 H1337 0.950 . S
C1364 C1350 1.377 . S
C1364 C1363 1.373 . S
C1365 C1349 1.377 . S
C1365 C1363 1.389 . S
C1365 C1366 1.524 . S
C1366 C1365 1.524 . S
C1366 C1367 1.397 . S
C1366 C1371 1.363 . S
C1367 H1338 0.950 . S
C1367 C1366 1.397 . S
C1367 C1368 1.334 . S
C1368 H1339 0.950 . S
C1368 C1367 1.334 . S
C1368 C1369 1.287 . S
C1369 C1368 1.287 . S
C1369 C1370 1.524 . S
C1369 H1372 0.999 . S
C1370 H1340 0.950 . S
C1370 C1369 1.524 . S
C1370 C1371 1.415 . S
C1371 H1341 0.950 . S
C1371 C1366 1.363 . S
C1371 C1370 1.415 . S
H1372 C1369 0.999 . S
H1373 C1354 0.913 . S
H1374 C1392 0.951 . S
H1375 C1394 0.951 . S
H1376 C1396 0.950 . S
H1377 C1397 0.950 . S
H1378 C1399 0.950 . S
H1379 C1402 0.950 . S
H1380 C1403 0.950 . S
H1381 C1405 0.950 . S
H1382 C1406 0.950 . S
H1383 C1407 0.951 . S
H1384 C1409 0.951 . S
H1385 C1411 0.950 . S
H1386 C1412 0.950 . S
H1387 C1414 0.950 . S
H1388 C1417 0.950 . S
H1389 C1418 0.950 . S
H1390 C1420 0.950 . S
H1391 C1421 0.950 . S
C1392 H1374 0.951 . S
C1392 C1393 1.366 . S
C1392 C1394 1.388 . S
C1393 C1392 1.366 . S
C1393 C1397 1.385 . S
C1394 H1375 0.951 . S
C1394 C1392 1.388 . S
C1394 C1395 1.366 . S
C1395 C1394 1.366 . S
C1395 C1396 1.414 . S
C1395 C1398 1.499 . S
C1396 H1376 0.950 . S
C1396 C1395 1.414 . S
C1396 C1397 1.374 . S
C1397 H1377 0.950 . S
C1397 C1393 1.385 . S
C1397 C1396 1.374 . S
C1398 C1395 1.499 . S
C1398 C1399 1.373 . S
C1398 C1400 1.389 . S
C1399 H1378 0.950 . S
C1399 C1398 1.373 . S
C1399 C1415 1.377 . S
C1400 C1398 1.389 . S
C1400 C1401 1.524 . S
C1400 C1414 1.377 . S
C1401 C1400 1.524 . S
C1401 C1402 1.397 . S
C1401 C1406 1.363 . S
C1402 H1379 0.950 . S
C1402 C1401 1.397 . S
C1402 C1403 1.334 . S
C1403 H1380 0.950 . S
C1403 C1402 1.334 . S
C1403 C1404 1.287 . S
C1404 C1403 1.287 . S
C1404 C1405 1.524 . S
C1404 H1423 0.913 . S
C1405 H1381 0.950 . S
C1405 C1404 1.524 . S
C1405 C1406 1.415 . S
C1406 H1382 0.950 . S
C1406 C1401 1.363 . S
C1406 C1405 1.415 . S
C1407 H1383 0.951 . S
C1407 C1408 1.366 . S
C1407 C1409 1.388 . S
C1408 C1407 1.366 . S
C1408 C1412 1.385 . S
C1409 H1384 0.951 . S
C1409 C1407 1.388 . S
C1409 C1410 1.366 . S
C1410 C1409 1.366 . S
C1410 C1411 1.414 . S
C1410 C1413 1.499 . S
C1411 H1385 0.950 . S
C1411 C1410 1.414 . S
C1411 C1412 1.374 . S
C1412 H1386 0.950 . S
C1412 C1408 1.385 . S
C1412 C1411 1.374 . S
C1413 C1410 1.499 . S
C1413 C1414 1.373 . S
C1413 C1415 1.389 . S
C1414 H1387 0.950 . S
C1414 C1400 1.377 . S
C1414 C1413 1.373 . S
C1415 C1399 1.377 . S
C1415 C1413 1.389 . S
C1415 C1416 1.524 . S
C1416 C1415 1.524 . S
C1416 C1417 1.397 . S
C1416 C1421 1.363 . S
C1417 H1388 0.950 . S
C1417 C1416 1.397 . S
C1417 C1418 1.334 . S
C1418 H1389 0.950 . S
C1418 C1417 1.334 . S
C1418 C1419 1.287 . S
C1419 C1418 1.287 . S
C1419 C1420 1.524 . S
C1419 H1422 0.999 . S
C1420 H1390 0.950 . S
C1420 C1419 1.524 . S
C1420 C1421 1.415 . S
C1421 H1391 0.950 . S
C1421 C1416 1.363 . S
C1421 C1420 1.415 . S
H1422 C1419 0.999 . S
H1423 C1404 0.913 . S
H1424 C1442 0.951 . S
H1425 C1444 0.951 . S
H1426 C1446 0.950 . S
H1427 C1447 0.950 . S
H1428 C1449 0.950 . S
H1429 C1452 0.950 . S
H1430 C1453 0.950 . S
H1431 C1455 0.950 1_556 S
H1432 C1456 0.950 . S
H1433 C1457 0.951 . S
H1434 C1459 0.951 . S
H1435 C1461 0.950 . S
H1436 C1462 0.950 . S
H1437 C1464 0.950 . S
H1438 C1467 0.950 . S
H1439 C1468 0.950 . S
H1440 C1470 0.950 1_554 S
H1441 C1471 0.950 . S
C1442 H1424 0.951 . S
C1442 C1443 1.366 1_655 S
C1442 C1444 1.388 . S
C1443 C1442 1.366 1_455 S
C1443 C1447 1.385 . S
C1444 H1425 0.951 . S
C1444 C1442 1.388 . S
C1444 C1445 1.366 1_655 S
C1445 C1444 1.366 1_455 S
C1445 C1446 1.414 . S
C1445 C1448 1.499 . S
C1446 H1426 0.950 . S
C1446 C1445 1.414 . S
C1446 C1447 1.374 . S
C1447 H1427 0.950 . S
C1447 C1443 1.385 . S
C1447 C1446 1.374 . S
C1448 C1445 1.499 . S
C1448 C1449 1.373 . S
C1448 C1450 1.389 1_455 S
C1449 H1428 0.950 . S
C1449 C1448 1.373 . S
C1449 C1465 1.377 1_554 S
C1450 C1448 1.389 1_655 S
C1450 C1451 1.524 . S
C1450 C1464 1.377 1_554 S
C1451 C1450 1.524 . S
C1451 C1452 1.397 . S
C1451 C1456 1.363 1_554 S
C1452 H1429 0.950 . S
C1452 C1451 1.397 . S
C1452 C1453 1.334 . S
C1453 H1430 0.950 . S
C1453 C1452 1.334 . S
C1453 C1454 1.287 . S
C1454 C1453 1.287 . S
C1454 C1455 1.524 . S
C1454 H1473 0.913 . S
C1455 H1431 0.950 1_554 S
C1455 C1454 1.524 . S
C1455 C1456 1.415 1_554 S
C1456 H1432 0.950 . S
C1456 C1451 1.363 1_556 S
C1456 C1455 1.415 1_556 S
C1457 H1433 0.951 . S
C1457 C1458 1.366 1_455 S
C1457 C1459 1.388 . S
C1458 C1457 1.366 1_655 S
C1458 C1462 1.385 . S
C1459 H1434 0.951 . S
C1459 C1457 1.388 . S
C1459 C1460 1.366 1_455 S
C1460 C1459 1.366 1_655 S
C1460 C1461 1.414 . S
C1460 C1463 1.499 . S
C1461 H1435 0.950 . S
C1461 C1460 1.414 . S
C1461 C1462 1.374 . S
C1462 H1436 0.950 . S
C1462 C1458 1.385 . S
C1462 C1461 1.374 . S
C1463 C1460 1.499 . S
C1463 C1464 1.373 . S
C1463 C1465 1.389 1_655 S
C1464 H1437 0.950 . S
C1464 C1450 1.377 1_556 S
C1464 C1463 1.373 . S
C1465 C1449 1.377 1_556 S
C1465 C1463 1.389 1_455 S
C1465 C1466 1.524 . S
C1466 C1465 1.524 . S
C1466 C1467 1.397 . S
C1466 C1471 1.363 1_556 S
C1467 H1438 0.950 . S
C1467 C1466 1.397 . S
C1467 C1468 1.334 . S
C1468 H1439 0.950 . S
C1468 C1467 1.334 . S
C1468 C1469 1.287 . S
C1469 C1468 1.287 . S
C1469 C1470 1.524 . S
C1469 H1472 0.999 . S
C1470 H1440 0.950 1_556 S
C1470 C1469 1.524 . S
C1470 C1471 1.415 1_556 S
C1471 H1441 0.950 . S
C1471 C1466 1.363 1_554 S
C1471 C1470 1.415 1_554 S
H1472 C1469 0.999 . S
H1473 C1454 0.913 . S
H1474 C1492 0.951 . S
H1475 C1494 0.951 . S
H1476 C1496 0.950 . S
H1477 C1497 0.950 . S
H1478 C1499 0.951 . S
H1479 C1502 0.950 . S
H1480 C1503 0.950 . S
H1481 C1505 0.950 . S
H1482 C1506 0.950 1_545 S
H1483 C1507 0.951 . S
H1484 C1509 0.951 . S
H1485 C1511 0.950 . S
H1486 C1512 0.950 . S
H1487 C1514 0.951 . S
H1488 C1517 0.950 . S
H1489 C1518 0.950 . S
H1490 C1520 0.950 . S
H1491 C1521 0.950 1_565 S
C1492 H1474 0.951 . S
C1492 C1493 1.366 1_545 S
C1492 C1494 1.388 . S
C1493 C1492 1.366 1_565 S
C1493 C1497 1.385 . S
C1494 H1475 0.951 . S
C1494 C1492 1.388 . S
C1494 C1495 1.366 1_545 S
C1495 C1494 1.366 1_565 S
C1495 C1496 1.414 . S
C1495 C1498 1.499 . S
C1496 H1476 0.950 . S
C1496 C1495 1.414 . S
C1496 C1497 1.374 . S
C1497 H1477 0.950 . S
C1497 C1493 1.385 . S
C1497 C1496 1.374 . S
C1498 C1495 1.499 . S
C1498 C1499 1.358 1_465 S
C1498 C1500 1.389 1_556 S
C1499 H1478 0.951 . S
C1499 C1498 1.358 1_645 S
C1499 C1515 1.391 . S
C1500 C1498 1.389 1_554 S
C1500 C1501 1.524 . S
C1500 C1514 1.391 . S
C1501 C1500 1.524 . S
C1501 C1502 1.397 . S
C1501 C1506 1.363 . S
C1502 H1479 0.950 . S
C1502 C1501 1.397 . S
C1502 C1503 1.334 . S
C1503 H1480 0.950 . S
C1503 C1502 1.334 . S
C1503 C1504 1.287 . S
C1504 C1503 1.287 . S
C1504 C1505 1.524 . S
C1504 H1523 0.913 . S
C1505 H1481 0.950 . S
C1505 C1504 1.524 . S
C1505 C1506 1.415 . S
C1506 H1482 0.950 1_565 S
C1506 C1501 1.363 . S
C1506 C1505 1.415 . S
C1507 H1483 0.951 . S
C1507 C1508 1.366 1_565 S
C1507 C1509 1.388 . S
C1508 C1507 1.366 1_545 S
C1508 C1512 1.385 . S
C1509 H1484 0.951 . S
C1509 C1507 1.388 . S
C1509 C1510 1.366 1_565 S
C1510 C1509 1.366 1_545 S
C1510 C1511 1.414 . S
C1510 C1513 1.499 . S
C1511 H1485 0.950 . S
C1511 C1510 1.414 . S
C1511 C1512 1.374 . S
C1512 H1486 0.950 . S
C1512 C1508 1.385 . S
C1512 C1511 1.374 . S
C1513 C1510 1.499 . S
C1513 C1514 1.358 1_645 S
C1513 C1515 1.389 1_554 S
C1514 H1487 0.951 . S
C1514 C1500 1.391 . S
C1514 C1513 1.358 1_465 S
C1515 C1499 1.391 . S
C1515 C1513 1.389 1_556 S
C1515 C1516 1.524 . S
C1516 C1515 1.524 . S
C1516 C1517 1.397 . S
C1516 C1521 1.363 . S
C1517 H1488 0.950 . S
C1517 C1516 1.397 . S
C1517 C1518 1.334 . S
C1518 H1489 0.950 . S
C1518 C1517 1.334 . S
C1518 C1519 1.287 . S
C1519 C1518 1.287 . S
C1519 C1520 1.524 . S
C1519 H1522 0.999 . S
C1520 H1490 0.950 . S
C1520 C1519 1.524 . S
C1520 C1521 1.415 . S
C1521 H1491 0.950 1_545 S
C1521 C1516 1.363 . S
C1521 C1520 1.415 . S
H1522 C1519 0.999 . S
H1523 C1504 0.913 . S
H1524 C1542 0.951 . S
H1525 C1544 0.951 . S
H1526 C1546 0.950 . S
H1527 C1547 0.950 . S
H1528 C1549 0.950 . S
H1529 C1552 0.950 . S
H1530 C1553 0.936 1_565 S
H1531 C1555 0.950 . S
H1532 C1556 0.950 . S
H1533 C1557 0.951 . S
H1534 C1559 0.951 . S
H1535 C1561 0.950 . S
H1536 C1562 0.950 . S
H1537 C1564 0.950 . S
H1538 C1567 0.950 . S
H1539 C1568 0.936 1_545 S
H1540 C1570 0.950 . S
H1541 C1571 0.950 . S
C1542 H1524 0.951 . S
C1542 C1543 1.366 . S
C1542 C1544 1.388 . S
C1543 C1542 1.366 . S
C1543 C1547 1.385 . S
C1544 H1525 0.951 . S
C1544 C1542 1.388 . S
C1544 C1545 1.366 . S
C1545 C1544 1.366 . S
C1545 C1546 1.414 . S
C1545 C1548 1.499 . S
C1546 H1526 0.950 . S
C1546 C1545 1.414 . S
C1546 C1547 1.374 . S
C1547 H1527 0.950 . S
C1547 C1543 1.385 . S
C1547 C1546 1.374 . S
C1548 C1545 1.499 . S
C1548 C1549 1.373 1_554 S
C1548 C1550 1.389 1_565 S
C1549 H1528 0.950 . S
C1549 C1548 1.373 1_556 S
C1549 C1565 1.377 . S
C1550 C1548 1.389 1_545 S
C1550 C1551 1.524 . S
C1550 C1564 1.377 . S
C1551 C1550 1.524 . S
C1551 C1552 1.397 1_545 S
C1551 C1556 1.363 . S
C1552 H1529 0.950 . S
C1552 C1551 1.397 1_565 S
C1552 C1553 1.329 1_565 S
C1553 H1530 0.936 1_545 S
C1553 C1552 1.329 1_545 S
C1553 C1554 1.308 . S
C1554 C1553 1.308 . S
C1554 C1555 1.524 . S
C1554 H1573 0.913 . S
C1555 H1531 0.950 . S
C1555 C1554 1.524 . S
C1555 C1556 1.415 . S
C1556 H1532 0.950 . S
C1556 C1551 1.363 . S
C1556 C1555 1.415 . S
C1557 H1533 0.951 . S
C1557 C1558 1.366 . S
C1557 C1559 1.388 . S
C1558 C1557 1.366 . S
C1558 C1562 1.385 . S
C1559 H1534 0.951 . S
C1559 C1557 1.388 . S
C1559 C1560 1.366 . S
C1560 C1559 1.366 . S
C1560 C1561 1.414 . S
C1560 C1563 1.499 . S
C1561 H1535 0.950 . S
C1561 C1560 1.414 . S
C1561 C1562 1.374 . S
C1562 H1536 0.950 . S
C1562 C1558 1.385 . S
C1562 C1561 1.374 . S
C1563 C1560 1.499 . S
C1563 C1564 1.373 1_556 S
C1563 C1565 1.389 1_545 S
C1564 H1537 0.950 . S
C1564 C1550 1.377 . S
C1564 C1563 1.373 1_554 S
C1565 C1549 1.377 . S
C1565 C1563 1.389 1_565 S
C1565 C1566 1.524 . S
C1566 C1565 1.524 . S
C1566 C1567 1.397 1_565 S
C1566 C1571 1.363 . S
C1567 H1538 0.950 . S
C1567 C1566 1.397 1_545 S
C1567 C1568 1.329 1_545 S
C1568 H1539 0.936 1_565 S
C1568 C1567 1.329 1_565 S
C1568 C1569 1.308 . S
C1569 C1568 1.308 . S
C1569 C1570 1.524 . S
C1569 H1572 0.999 . S
C1570 H1540 0.950 . S
C1570 C1569 1.524 . S
C1570 C1571 1.415 . S
C1571 H1541 0.950 . S
C1571 C1566 1.363 . S
C1571 C1570 1.415 . S
H1572 C1569 0.999 . S
H1573 C1554 0.913 . S
H1574 C1592 0.951 . S
H1575 C1594 0.951 . S
H1576 C1596 0.950 . S
H1577 C1597 0.950 . S
H1578 C1599 0.950 . S
H1579 C1602 0.950 1_556 S
H1580 C1603 0.950 . S
H1581 C1605 0.950 . S
H1582 C1606 0.950 . S
H1583 C1607 0.951 . S
H1584 C1609 0.951 . S
H1585 C1611 0.950 . S
H1586 C1612 0.950 . S
H1587 C1614 0.950 . S
H1588 C1617 0.950 1_554 S
H1589 C1618 0.950 . S
H1590 C1620 0.950 . S
H1591 C1621 0.950 . S
C1592 H1574 0.951 . S
C1592 C1593 1.366 . S
C1592 C1594 1.388 . S
C1593 C1592 1.366 . S
C1593 C1597 1.385 . S
C1594 H1575 0.951 . S
C1594 C1592 1.388 . S
C1594 C1595 1.366 . S
C1595 C1594 1.366 . S
C1595 C1596 1.414 . S
C1595 C1598 1.499 . S
C1596 H1576 0.950 . S
C1596 C1595 1.414 . S
C1596 C1597 1.374 . S
C1597 H1577 0.950 . S
C1597 C1593 1.385 . S
C1597 C1596 1.374 . S
C1598 C1595 1.499 . S
C1598 C1599 1.373 . S
C1598 C1600 1.389 1_556 S
C1599 H1578 0.950 . S
C1599 C1598 1.373 . S
C1599 C1615 1.377 . S
C1600 C1598 1.389 1_554 S
C1600 C1601 1.524 . S
C1600 C1614 1.377 . S
C1601 C1600 1.524 . S
C1601 C1602 1.397 . S
C1601 C1606 1.363 . S
C1602 H1579 0.950 1_554 S
C1602 C1601 1.397 . S
C1602 C1603 1.334 . S
C1603 H1580 0.950 . S
C1603 C1602 1.334 . S
C1603 C1604 1.287 . S
C1604 C1603 1.287 . S
C1604 C1605 1.524 . S
C1604 H1623 0.913 . S
C1605 H1581 0.950 . S
C1605 C1604 1.524 . S
C1605 C1606 1.415 . S
C1606 H1582 0.950 . S
C1606 C1601 1.363 . S
C1606 C1605 1.415 . S
C1607 H1583 0.951 . S
C1607 C1608 1.366 . S
C1607 C1609 1.388 . S
C1608 C1607 1.366 . S
C1608 C1612 1.385 . S
C1609 H1584 0.951 . S
C1609 C1607 1.388 . S
C1609 C1610 1.366 . S
C1610 C1609 1.366 . S
C1610 C1611 1.414 . S
C1610 C1613 1.499 . S
C1611 H1585 0.950 . S
C1611 C1610 1.414 . S
C1611 C1612 1.374 . S
C1612 H1586 0.950 . S
C1612 C1608 1.385 . S
C1612 C1611 1.374 . S
C1613 C1610 1.499 . S
C1613 C1614 1.373 . S
C1613 C1615 1.389 1_554 S
C1614 H1587 0.950 . S
C1614 C1600 1.377 . S
C1614 C1613 1.373 . S
C1615 C1599 1.377 . S
C1615 C1613 1.389 1_556 S
C1615 C1616 1.524 . S
C1616 C1615 1.524 . S
C1616 C1617 1.397 . S
C1616 C1621 1.363 . S
C1617 H1588 0.950 1_556 S
C1617 C1616 1.397 . S
C1617 C1618 1.334 . S
C1618 H1589 0.950 . S
C1618 C1617 1.334 . S
C1618 C1619 1.287 . S
C1619 C1618 1.287 . S
C1619 C1620 1.524 . S
C1619 H1622 0.999 . S
C1620 H1590 0.950 . S
C1620 C1619 1.524 . S
C1620 C1621 1.415 . S
C1621 H1591 0.950 . S
C1621 C1616 1.363 . S
C1621 C1620 1.415 . S
H1622 C1619 0.999 . S
H1623 C1604 0.913 . S
H1624 C1642 0.951 . S
H1625 C1644 0.951 . S
H1626 C1646 0.950 . S
H1627 C1647 0.950 . S
H1628 C1649 0.950 . S
H1629 C1652 0.950 . S
H1630 C1653 0.950 . S
H1631 C1655 0.950 . S
H1632 C1656 0.950 . S
H1633 C1657 0.951 . S
H1634 C1659 0.951 . S
H1635 C1661 0.950 . S
H1636 C1662 0.950 . S
H1637 C1664 0.950 . S
H1638 C1667 0.950 . S
H1639 C1668 0.950 . S
H1640 C1670 0.950 . S
H1641 C1671 0.950 . S
C1642 H1624 0.951 . S
C1642 C1643 1.366 . S
C1642 C1644 1.388 . S
C1643 C1642 1.366 . S
C1643 C1647 1.385 . S
C1644 H1625 0.951 . S
C1644 C1642 1.388 . S
C1644 C1645 1.366 . S
C1645 C1644 1.366 . S
C1645 C1646 1.414 . S
C1645 C1648 1.501 . S
C1646 H1626 0.950 . S
C1646 C1645 1.414 . S
C1646 C1647 1.374 . S
C1647 H1627 0.950 . S
C1647 C1643 1.385 . S
C1647 C1646 1.374 . S
C1648 C1645 1.501 . S
C1648 C1649 1.389 . S
C1648 C1650 1.374 1_455 S
C1649 H1628 0.950 . S
C1649 C1648 1.389 . S
C1649 C1665 1.377 1_565 S
C1650 C1648 1.374 1_655 S
C1650 C1651 1.524 . S
C1650 C1664 1.377 1_565 S
C1651 C1650 1.524 . S
C1651 C1652 1.397 . S
C1651 C1656 1.363 . S
C1652 H1629 0.950 . S
C1652 C1651 1.397 . S
C1652 C1653 1.334 . S
C1653 H1630 0.950 . S
C1653 C1652 1.334 . S
C1653 C1654 1.287 . S
C1654 C1653 1.287 . S
C1654 C1655 1.524 . S
C1654 H1673 0.913 . S
C1655 H1631 0.950 . S
C1655 C1654 1.524 . S
C1655 C1656 1.415 . S
C1656 H1632 0.950 . S
C1656 C1651 1.363 . S
C1656 C1655 1.415 . S
C1657 H1633 0.951 . S
C1657 C1658 1.366 . S
C1657 C1659 1.388 . S
C1658 C1657 1.366 . S
C1658 C1662 1.385 . S
C1659 H1634 0.951 . S
C1659 C1657 1.388 . S
C1659 C1660 1.366 . S
C1660 C1659 1.366 . S
C1660 C1661 1.414 . S
C1660 C1663 1.501 . S
C1661 H1635 0.950 . S
C1661 C1660 1.414 . S
C1661 C1662 1.374 . S
C1662 H1636 0.950 . S
C1662 C1658 1.385 . S
C1662 C1661 1.374 . S
C1663 C1660 1.501 . S
C1663 C1664 1.389 . S
C1663 C1665 1.374 1_655 S
C1664 H1637 0.950 . S
C1664 C1650 1.377 1_545 S
C1664 C1663 1.389 . S
C1665 C1649 1.377 1_545 S
C1665 C1663 1.374 1_455 S
C1665 C1666 1.524 . S
C1666 C1665 1.524 . S
C1666 C1667 1.397 . S
C1666 C1671 1.363 . S
C1667 H1638 0.950 . S
C1667 C1666 1.397 . S
C1667 C1668 1.334 . S
C1668 H1639 0.950 . S
C1668 C1667 1.334 . S
C1668 C1669 1.287 . S
C1669 C1668 1.287 . S
C1669 C1670 1.524 . S
C1669 H1672 0.999 . S
C1670 H1640 0.950 . S
C1670 C1669 1.524 . S
C1670 C1671 1.415 . S
C1671 H1641 0.950 . S
C1671 C1666 1.363 . S
C1671 C1670 1.415 . S
H1672 C1669 0.999 . S
H1673 C1654 0.913 . S
H1674 C1692 0.951 . S
H1675 C1694 0.951 . S
H1676 C1696 0.950 . S
H1677 C1697 0.956 . S
H1678 C1699 0.950 . S
H1679 C1702 0.950 . S
H1680 C1703 0.950 . S
H1681 C1705 0.950 . S
H1682 C1706 0.950 . S
H1683 C1707 0.951 . S
H1684 C1709 0.951 . S
H1685 C1711 0.950 . S
H1686 C1712 0.956 . S
H1687 C1714 0.950 . S
H1688 C1717 0.950 . S
H1689 C1718 0.950 . S
H1690 C1720 0.950 . S
H1691 C1721 0.950 . S
C1692 H1674 0.951 . S
C1692 C1693 1.366 . S
C1692 C1694 1.388 . S
C1693 C1692 1.366 . S
C1693 C1697 1.378 1_545 S
C1694 H1675 0.951 . S
C1694 C1692 1.388 . S
C1694 C1695 1.366 . S
C1695 C1694 1.366 . S
C1695 C1696 1.414 1_545 S
C1695 C1698 1.499 . S
C1696 H1676 0.950 . S
C1696 C1695 1.414 1_565 S
C1696 C1697 1.375 . S
C1697 H1677 0.956 . S
C1697 C1693 1.378 1_565 S
C1697 C1696 1.375 . S
C1698 C1695 1.499 . S
C1698 C1699 1.373 1_545 S
C1698 C1700 1.389 . S
C1699 H1678 0.950 . S
C1699 C1698 1.373 1_565 S
C1699 C1715 1.377 . S
C1700 C1698 1.389 . S
C1700 C1701 1.524 . S
C1700 C1714 1.377 . S
C1701 C1700 1.524 . S
C1701 C1702 1.397 . S
C1701 C1706 1.363 . S
C1702 H1679 0.950 . S
C1702 C1701 1.397 . S
C1702 C1703 1.334 . S
C1703 H1680 0.950 . S
C1703 C1702 1.334 . S
C1703 C1704 1.287 . S
C1704 C1703 1.287 . S
C1704 C1705 1.524 . S
C1704 H1723 0.913 . S
C1705 H1681 0.950 . S
C1705 C1704 1.524 . S
C1705 C1706 1.415 . S
C1706 H1682 0.950 . S
C1706 C1701 1.363 . S
C1706 C1705 1.415 . S
C1707 H1683 0.951 . S
C1707 C1708 1.366 . S
C1707 C1709 1.388 . S
C1708 C1707 1.366 . S
C1708 C1712 1.378 1_565 S
C1709 H1684 0.951 . S
C1709 C1707 1.388 . S
C1709 C1710 1.366 . S
C1710 C1709 1.366 . S
C1710 C1711 1.414 1_565 S
C1710 C1713 1.499 . S
C1711 H1685 0.950 . S
C1711 C1710 1.414 1_545 S
C1711 C1712 1.375 . S
C1712 H1686 0.956 . S
C1712 C1708 1.378 1_545 S
C1712 C1711 1.375 . S
C1713 C1710 1.499 . S
C1713 C1714 1.373 1_565 S
C1713 C1715 1.389 . S
C1714 H1687 0.950 . S
C1714 C1700 1.377 . S
C1714 C1713 1.373 1_545 S
C1715 C1699 1.377 . S
C1715 C1713 1.389 . S
C1715 C1716 1.524 . S
C1716 C1715 1.524 . S
C1716 C1717 1.397 . S
C1716 C1721 1.363 . S
C1717 H1688 0.950 . S
C1717 C1716 1.397 . S
C1717 C1718 1.334 . S
C1718 H1689 0.950 . S
C1718 C1717 1.334 . S
C1718 C1719 1.287 . S
C1719 C1718 1.287 . S
C1719 C1720 1.524 . S
C1719 H1722 0.999 . S
C1720 H1690 0.950 . S
C1720 C1719 1.524 . S
C1720 C1721 1.415 . S
C1721 H1691 0.950 . S
C1721 C1716 1.363 . S
C1721 C1720 1.415 . S
H1722 C1719 0.999 . S
H1723 C1704 0.913 . S
H1724 C1742 0.951 . S
H1725 C1744 0.951 . S
H1726 C1746 0.950 . S
H1727 C1747 0.950 . S
H1728 C1749 0.950 . S
H1729 C1752 0.950 . S
H1730 C1753 0.950 . S
H1731 C1755 0.950 . S
H1732 C1756 0.950 . S
H1733 C1757 0.951 . S
H1734 C1759 0.951 . S
H1735 C1761 0.950 . S
H1736 C1762 0.950 . S
H1737 C1764 0.950 . S
H1738 C1767 0.950 . S
H1739 C1768 0.950 . S
H1740 C1770 0.950 . S
H1741 C1771 0.950 . S
C1742 H1724 0.951 . S
C1742 C1743 1.366 . S
C1742 C1744 1.388 . S
C1743 C1742 1.366 . S
C1743 C1747 1.385 . S
C1744 H1725 0.951 . S
C1744 C1742 1.388 . S
C1744 C1745 1.366 . S
C1745 C1744 1.366 . S
C1745 C1746 1.414 . S
C1745 C1748 1.499 . S
C1746 H1726 0.950 . S
C1746 C1745 1.414 . S
C1746 C1747 1.374 . S
C1747 H1727 0.950 . S
C1747 C1743 1.385 . S
C1747 C1746 1.374 . S
C1748 C1745 1.499 . S
C1748 C1749 1.373 . S
C1748 C1750 1.389 . S
C1749 H1728 0.950 . S
C1749 C1748 1.373 . S
C1749 C1765 1.377 . S
C1750 C1748 1.389 . S
C1750 C1751 1.524 . S
C1750 C1764 1.377 . S
C1751 C1750 1.524 . S
C1751 C1752 1.397 . S
C1751 C1756 1.363 . S
C1752 H1729 0.950 . S
C1752 C1751 1.397 . S
C1752 C1753 1.334 . S
C1753 H1730 0.950 . S
C1753 C1752 1.334 . S
C1753 C1754 1.287 . S
C1754 C1753 1.287 . S
C1754 C1755 1.524 . S
C1754 H1773 0.913 . S
C1755 H1731 0.950 . S
C1755 C1754 1.524 . S
C1755 C1756 1.415 . S
C1756 H1732 0.950 . S
C1756 C1751 1.363 . S
C1756 C1755 1.415 . S
C1757 H1733 0.951 . S
C1757 C1758 1.366 . S
C1757 C1759 1.388 . S
C1758 C1757 1.366 . S
C1758 C1762 1.385 . S
C1759 H1734 0.951 . S
C1759 C1757 1.388 . S
C1759 C1760 1.366 . S
C1760 C1759 1.366 . S
C1760 C1761 1.414 . S
C1760 C1763 1.499 . S
C1761 H1735 0.950 . S
C1761 C1760 1.414 . S
C1761 C1762 1.374 . S
C1762 H1736 0.950 . S
C1762 C1758 1.385 . S
C1762 C1761 1.374 . S
C1763 C1760 1.499 . S
C1763 C1764 1.373 . S
C1763 C1765 1.389 . S
C1764 H1737 0.950 . S
C1764 C1750 1.377 . S
C1764 C1763 1.373 . S
C1765 C1749 1.377 . S
C1765 C1763 1.389 . S
C1765 C1766 1.524 . S
C1766 C1765 1.524 . S
C1766 C1767 1.397 . S
C1766 C1771 1.363 . S
C1767 H1738 0.950 . S
C1767 C1766 1.397 . S
C1767 C1768 1.334 . S
C1768 H1739 0.950 . S
C1768 C1767 1.334 . S
C1768 C1769 1.287 . S
C1769 C1768 1.287 . S
C1769 C1770 1.524 . S
C1769 H1772 0.999 . S
C1770 H1740 0.950 . S
C1770 C1769 1.524 . S
C1770 C1771 1.415 . S
C1771 H1741 0.950 . S
C1771 C1766 1.363 . S
C1771 C1770 1.415 . S
H1772 C1769 0.999 . S
H1773 C1754 0.913 . S
H1774 C1792 0.951 . S
H1775 C1794 0.951 . S
H1776 C1796 0.950 . S
H1777 C1797 0.950 . S
H1778 C1799 0.950 . S
H1779 C1802 0.950 . S
H1780 C1803 0.950 . S
H1781 C1805 0.950 . S
H1782 C1806 0.950 . S
H1783 C1807 0.951 . S
H1784 C1809 0.951 . S
H1785 C1811 0.950 . S
H1786 C1812 0.950 . S
H1787 C1814 0.950 . S
H1788 C1817 0.950 . S
H1789 C1818 0.950 . S
H1790 C1820 0.950 . S
H1791 C1821 0.950 . S
C1792 H1774 0.951 . S
C1792 C1793 1.366 . S
C1792 C1794 1.388 . S
C1793 C1792 1.366 . S
C1793 C1797 1.385 . S
C1794 H1775 0.951 . S
C1794 C1792 1.388 . S
C1794 C1795 1.366 . S
C1795 C1794 1.366 . S
C1795 C1796 1.414 . S
C1795 C1798 1.499 . S
C1796 H1776 0.950 . S
C1796 C1795 1.414 . S
C1796 C1797 1.374 . S
C1797 H1777 0.950 . S
C1797 C1793 1.385 . S
C1797 C1796 1.374 . S
C1798 C1795 1.499 . S
C1798 C1799 1.373 . S
C1798 C1800 1.389 1_655 S
C1799 H1778 0.950 . S
C1799 C1798 1.373 . S
C1799 C1815 1.377 . S
C1800 C1798 1.389 1_455 S
C1800 C1801 1.524 . S
C1800 C1814 1.377 . S
C1801 C1800 1.524 . S
C1801 C1802 1.397 1_455 S
C1801 C1806 1.363 . S
C1802 H1779 0.950 . S
C1802 C1801 1.397 1_655 S
C1802 C1803 1.334 . S
C1803 H1780 0.950 . S
C1803 C1802 1.334 . S
C1803 C1804 1.287 1_655 S
C1804 C1803 1.287 1_455 S
C1804 C1805 1.524 . S
C1804 H1823 0.913 . S
C1805 H1781 0.950 . S
C1805 C1804 1.524 . S
C1805 C1806 1.415 . S
C1806 H1782 0.950 . S
C1806 C1801 1.363 . S
C1806 C1805 1.415 . S
C1807 H1783 0.951 . S
C1807 C1808 1.366 . S
C1807 C1809 1.388 . S
C1808 C1807 1.366 . S
C1808 C1812 1.385 . S
C1809 H1784 0.951 . S
C1809 C1807 1.388 . S
C1809 C1810 1.366 . S
C1810 C1809 1.366 . S
C1810 C1811 1.414 . S
C1810 C1813 1.499 . S
C1811 H1785 0.950 . S
C1811 C1810 1.414 . S
C1811 C1812 1.374 . S
C1812 H1786 0.950 . S
C1812 C1808 1.385 . S
C1812 C1811 1.374 . S
C1813 C1810 1.499 . S
C1813 C1814 1.373 . S
C1813 C1815 1.389 1_455 S
C1814 H1787 0.950 . S
C1814 C1800 1.377 . S
C1814 C1813 1.373 . S
C1815 C1799 1.377 . S
C1815 C1813 1.389 1_655 S
C1815 C1816 1.524 . S
C1816 C1815 1.524 . S
C1816 C1817 1.397 1_655 S
C1816 C1821 1.363 . S
C1817 H1788 0.950 . S
C1817 C1816 1.397 1_455 S
C1817 C1818 1.334 . S
C1818 H1789 0.950 . S
C1818 C1817 1.334 . S
C1818 C1819 1.287 1_455 S
C1819 C1818 1.287 1_655 S
C1819 C1820 1.524 . S
C1819 H1822 0.999 . S
C1820 H1790 0.950 . S
C1820 C1819 1.524 . S
C1820 C1821 1.415 . S
C1821 H1791 0.950 . S
C1821 C1816 1.363 . S
C1821 C1820 1.415 . S
H1822 C1819 0.999 . S
H1823 C1804 0.913 . S
C243 C7 1.592 . S
C258 C35 1.592 . S
C293 C21 1.592 . S
C308 C49 1.592 . S
C343 C63 1.592 . S
C358 C91 1.592 . S
C393 C105 1.591 . S
C408 C77 1.592 . S
C443 C119 1.592 . S
C458 C147 1.592 . S
C493 C161 1.592 . S
C508 C133 1.592 . S
C543 C203 1.591 . S
C558 C175 1.592 . S
C593 C217 1.592 . S
C608 C189 1.592 . S
C643 C106 1.573 . S
C658 C8 1.565 1_655 S
C693 C22 1.565 1_565 S
C708 C64 1.563 1_655 S
C743 C78 1.563 1_565 S
C758 C36 1.573 . S
C793 C50 1.573 . S
C808 C92 1.573 . S
C843 C218 1.573 . S
C858 C120 1.565 1_455 S
C893 C134 1.565 1_545 S
C908 C176 1.565 1_455 S
C943 C148 1.573 . S
C958 C190 1.564 1_545 S
C993 C204 1.573 . S
C1008 C162 1.573 . S
C1043 C9 0.655 . S
C1058 C65 0.654 . S
C1093 C23 0.657 . S
C1108 C79 0.658 . S
C1143 C93 0.657 . S
C1158 C37 0.655 . S
C1193 C51 0.655 . S
C1208 C107 0.658 . S
C1243 C177 0.654 . S
C1258 C121 0.657 . S
C1293 C191 0.656 . S
C1308 C135 0.658 . S
C1343 C149 0.657 . S
C1358 C205 0.654 . S
C1393 C163 0.656 . S
C1408 C219 0.658 . S
C1443 C6 1.737 . S
C1458 C118 1.737 . S
C1493 C132 1.736 . S
C1508 C20 1.736 . S
C1543 C34 1.737 . S
C1558 C146 1.737 . S
C1593 C160 1.737 . S
C1608 C48 1.737 . S
C1643 C62 1.737 . S
C1658 C174 1.737 . S
C1693 C76 1.737 . S
C1708 C188 1.737 . S
C1743 C202 1.736 . S
C1758 C90 1.736 . S
C1793 C104 1.737 . S
C1808 C216 1.737 . S
