# Generated by pormake.
# Topology wme, (6)-cn, num edge types: 1
# Building blocks:
#     Node 0, Type 0, BuildingBlock: CUKXOW_clean_sbu_0, # of connection points: 6
#     Node 1, Type 0, BuildingBlock: CUKXOW_clean_sbu_0, # of connection points: 6
#     Node 2, Type 0, BuildingBlock: CUKXOW_clean_sbu_0, # of connection points: 6
#     Node 3, Type 0, BuildingBlock: CUKXOW_clean_sbu_0, # of connection points: 6
#     Node 4, Type 0, BuildingBlock: CUKXOW_clean_sbu_0, # of connection points: 6
#     Node 5, Type 0, BuildingBlock: CUKXOW_clean_sbu_0, # of connection points: 6
#     Node 6, Type 0, BuildingBlock: CUKXOW_clean_sbu_0, # of connection points: 6
#     Node 7, Type 0, BuildingBlock: CUKXOW_clean_sbu_0, # of connection points: 6
#     Node 8, Type 0, BuildingBlock: CUKXOW_clean_sbu_0, # of connection points: 6
#     Node 9, Type 0, BuildingBlock: CUKXOW_clean_sbu_0, # of connection points: 6
#     Node 10, Type 0, BuildingBlock: CUKXOW_clean_sbu_0, # of connection points: 6
#     Node 11, Type 0, BuildingBlock: CUKXOW_clean_sbu_0, # of connection points: 6
#     Edge 12, Type (0, 0), BuildingBlock: MIFKUJ_clean_linker_0, # of connection points: 2
#     Edge 13, Type (0, 0), BuildingBlock: MIFKUJ_clean_linker_0, # of connection points: 2
#     Edge 14, Type (0, 0), BuildingBlock: MIFKUJ_clean_linker_0, # of connection points: 2
#     Edge 15, Type (0, 0), BuildingBlock: MIFKUJ_clean_linker_0, # of connection points: 2
#     Edge 16, Type (0, 0), BuildingBlock: MIFKUJ_clean_linker_0, # of connection points: 2
#     Edge 17, Type (0, 0), BuildingBlock: MIFKUJ_clean_linker_0, # of connection points: 2
#     Edge 18, Type (0, 0), BuildingBlock: MIFKUJ_clean_linker_0, # of connection points: 2
#     Edge 19, Type (0, 0), BuildingBlock: MIFKUJ_clean_linker_0, # of connection points: 2
#     Edge 20, Type (0, 0), BuildingBlock: MIFKUJ_clean_linker_0, # of connection points: 2
#     Edge 21, Type (0, 0), BuildingBlock: MIFKUJ_clean_linker_0, # of connection points: 2
#     Edge 22, Type (0, 0), BuildingBlock: MIFKUJ_clean_linker_0, # of connection points: 2
#     Edge 23, Type (0, 0), BuildingBlock: MIFKUJ_clean_linker_0, # of connection points: 2
#     Edge 24, Type (0, 0), BuildingBlock: MIFKUJ_clean_linker_0, # of connection points: 2
#     Edge 25, Type (0, 0), BuildingBlock: MIFKUJ_clean_linker_0, # of connection points: 2
#     Edge 26, Type (0, 0), BuildingBlock: MIFKUJ_clean_linker_0, # of connection points: 2
#     Edge 27, Type (0, 0), BuildingBlock: MIFKUJ_clean_linker_0, # of connection points: 2
#     Edge 28, Type (0, 0), BuildingBlock: MIFKUJ_clean_linker_0, # of connection points: 2
#     Edge 29, Type (0, 0), BuildingBlock: MIFKUJ_clean_linker_0, # of connection points: 2
#     Edge 30, Type (0, 0), BuildingBlock: MIFKUJ_clean_linker_0, # of connection points: 2
#     Edge 31, Type (0, 0), BuildingBlock: MIFKUJ_clean_linker_0, # of connection points: 2
#     Edge 32, Type (0, 0), BuildingBlock: MIFKUJ_clean_linker_0, # of connection points: 2
#     Edge 33, Type (0, 0), BuildingBlock: MIFKUJ_clean_linker_0, # of connection points: 2
#     Edge 34, Type (0, 0), BuildingBlock: MIFKUJ_clean_linker_0, # of connection points: 2
#     Edge 35, Type (0, 0), BuildingBlock: MIFKUJ_clean_linker_0, # of connection points: 2
#     Edge 36, Type (0, 0), BuildingBlock: MIFKUJ_clean_linker_0, # of connection points: 2
#     Edge 37, Type (0, 0), BuildingBlock: MIFKUJ_clean_linker_0, # of connection points: 2
#     Edge 38, Type (0, 0), BuildingBlock: MIFKUJ_clean_linker_0, # of connection points: 2
#     Edge 39, Type (0, 0), BuildingBlock: MIFKUJ_clean_linker_0, # of connection points: 2
#     Edge 40, Type (0, 0), BuildingBlock: MIFKUJ_clean_linker_0, # of connection points: 2
#     Edge 41, Type (0, 0), BuildingBlock: MIFKUJ_clean_linker_0, # of connection points: 2
#     Edge 42, Type (0, 0), BuildingBlock: MIFKUJ_clean_linker_0, # of connection points: 2
#     Edge 43, Type (0, 0), BuildingBlock: MIFKUJ_clean_linker_0, # of connection points: 2
#     Edge 44, Type (0, 0), BuildingBlock: MIFKUJ_clean_linker_0, # of connection points: 2
#     Edge 45, Type (0, 0), BuildingBlock: MIFKUJ_clean_linker_0, # of connection points: 2
#     Edge 46, Type (0, 0), BuildingBlock: MIFKUJ_clean_linker_0, # of connection points: 2
#     Edge 47, Type (0, 0), BuildingBlock: MIFKUJ_clean_linker_0, # of connection points: 2
# Relax obj value: 0.055
# Max RMSD: 0.146
# Mean RMSD: 0.146
data_MOF--net-wme--node1-CUKXOW_clean_sbu_0--edge1-MIFKUJ_clean_linker_0
_symmetry_space_group_name_H-M    P1
_symmetry_Int_Tables_number       1
_symmetry_cell_setting            triclinic
loop_
_symmetry_equiv_pos_as_xyz
'x, y, z'
_cell_length_a     40.985855
_cell_length_b     41.01115
_cell_length_c     73.808604
_cell_angle_alpha  89.884526
_cell_angle_beta   90.034483
_cell_angle_gamma 119.96667
loop_
_atom_site_label
_atom_site_type_symbol
_atom_site_fract_x
_atom_site_fract_y
_atom_site_fract_z
_atom_type_partial_charge
Tb0 Tb 0.24769 0.37413 0.12233 0.0
C1 C 0.21628 0.3263 0.08737 0.0
Tb2 Tb 0.16601 0.30977 0.12262 0.0
O3 O 0.26937 0.33494 0.1203 0.0
O4 O 0.21789 0.31873 0.13277 0.0
O5 O 0.2391 0.36081 0.09355 0.0
C6 C 0.09949 0.24627 0.12118 0.0
O7 O 0.1879 0.30057 0.09723 0.0
C8 C 0.17539 0.37753 0.11911 0.0
C9 C 0.2009 0.35118 0.15951 0.0
O10 O 0.10863 0.27683 0.11216 0.0
O11 O 0.1281 0.25118 0.13081 0.0
O12 O 0.14668 0.34979 0.12699 0.0
O13 O 0.1958 0.36584 0.11216 0.0
O14 O 0.1726 0.32141 0.15156 0.0
O15 O 0.23202 0.37558 0.15069 0.0
C16 C 0.30796 0.4434 0.1231 0.0
O17 O 0.3084 0.41275 0.11927 0.0
O18 O 0.27364 0.43501 0.12662 0.0
C19 C 0.23909 0.30695 0.12715 0.0
Tb20 Tb 0.87558 0.23541 0.62063 0.0
C21 C 0.90078 0.21094 0.58552 0.0
Tb22 Tb 0.86245 0.1543 0.61859 0.0
O23 O 0.93721 0.26009 0.61958 0.0
O24 O 0.90282 0.20628 0.62981 0.0
O25 O 0.88998 0.23395 0.59239 0.0
C26 C 0.86447 0.09028 0.61589 0.0
O27 O 0.89588 0.18033 0.59417 0.0
C28 C 0.80143 0.15958 0.61604 0.0
C29 C 0.84732 0.18267 0.65535 0.0
O30 O 0.84872 0.10206 0.60435 0.0
O31 O 0.8793 0.11468 0.62885 0.0
O32 O 0.8016 0.12955 0.62136 0.0
O33 O 0.83372 0.18297 0.61008 0.0
O34 O 0.85753 0.15985 0.64765 0.0
O35 O 0.8471 0.21084 0.64646 0.0
C36 C 0.86693 0.29589 0.62094 0.0
O37 O 0.88522 0.2882 0.63301 0.0
O38 O 0.85367 0.26961 0.60877 0.0
C39 C 0.93604 0.22947 0.62522 0.0
Tb40 Tb 0.65027 0.88134 0.12177 0.0
C41 C 0.69157 0.88985 0.08358 0.0
Tb42 Tb 0.71166 0.85927 0.11887 0.0
O43 O 0.68958 0.93585 0.13449 0.0
O44 O 0.70859 0.9088 0.11736 0.0
O45 O 0.66255 0.88842 0.09249 0.0
C46 C 0.77216 0.85069 0.12152 0.0
O47 O 0.7161 0.88203 0.09154 0.0
C48 C 0.64255 0.80591 0.11186 0.0
C49 C 0.67716 0.86095 0.15742 0.0
O50 O 0.73743 0.82421 0.1234 0.0
O51 O 0.77289 0.8821 0.11819 0.0
O52 O 0.67223 0.8085 0.10414 0.0
O53 O 0.65285 0.83119 0.12372 0.0
O54 O 0.70686 0.86447 0.14834 0.0
O55 O 0.64844 0.8611 0.14916 0.0
C56 C 0.58233 0.87468 0.11793 0.0
O57 O 0.61074 0.90209 0.12627 0.0
O58 O 0.59248 0.85163 0.1116 0.0
C59 C 0.71923 0.93576 0.12817 0.0
Tb60 Tb 0.7792 0.6414 0.62081 0.0
C61 C 0.81126 0.6895 0.58548 0.0
Tb62 Tb 0.86155 0.70672 0.62108 0.0
O63 O 0.75824 0.68078 0.61605 0.0
O64 O 0.80871 0.69778 0.62963 0.0
O65 O 0.78615 0.6562 0.59219 0.0
C66 C 0.92763 0.77055 0.61821 0.0
O67 O 0.84084 0.71447 0.59494 0.0
C68 C 0.85314 0.63903 0.62086 0.0
C69 C 0.82552 0.66641 0.65789 0.0
O70 O 0.91727 0.74022 0.60883 0.0
O71 O 0.90063 0.76508 0.62923 0.0
O72 O 0.88261 0.6685 0.62715 0.0
O73 O 0.83237 0.64921 0.61289 0.0
O74 O 0.8515 0.69813 0.65009 0.0
O75 O 0.79752 0.63862 0.6486 0.0
C76 C 0.71745 0.5732 0.61982 0.0
O77 O 0.72153 0.60118 0.62973 0.0
O78 O 0.74802 0.58373 0.61058 0.0
C79 C 0.78808 0.70924 0.62293 0.0
Tb80 Tb 0.14381 0.77371 0.12159 0.0
C81 C 0.12785 0.80425 0.08482 0.0
Tb82 Tb 0.16473 0.8596 0.11812 0.0
O83 O 0.0821 0.75028 0.12573 0.0
O84 O 0.11856 0.80621 0.12109 0.0
O85 O 0.13605 0.77971 0.09251 0.0
C86 C 0.1696 0.92704 0.12015 0.0
O87 O 0.13266 0.83507 0.09328 0.0
C88 C 0.21838 0.84363 0.11123 0.0
C89 C 0.16654 0.82503 0.15699 0.0
O90 O 0.18885 0.91815 0.10933 0.0
O91 O 0.14744 0.89787 0.12992 0.0
O92 O 0.21722 0.87217 0.10435 0.0
O93 O 0.19231 0.82817 0.12264 0.0
O94 O 0.16934 0.85414 0.14752 0.0
O95 O 0.15961 0.79257 0.14952 0.0
C96 C 0.15659 0.71607 0.11971 0.0
O97 O 0.13252 0.71804 0.13052 0.0
O98 O 0.17308 0.74639 0.10984 0.0
C99 C 0.08464 0.78319 0.12404 0.0
Tb100 Tb 0.37596 0.13854 0.62279 0.0
C101 C 0.33119 0.1245 0.58605 0.0
Tb102 Tb 0.31202 0.15806 0.61986 0.0
O103 O 0.33657 0.07851 0.61774 0.0
O104 O 0.31831 0.11292 0.62934 0.0
O105 O 0.3644 0.13452 0.59359 0.0
C106 C 0.25094 0.16538 0.62241 0.0
O107 O 0.30448 0.12762 0.59468 0.0
C108 C 0.38016 0.21072 0.60956 0.0
C109 C 0.34847 0.16077 0.65853 0.0
O110 O 0.25067 0.13424 0.61882 0.0
O111 O 0.28547 0.19216 0.62467 0.0
O112 O 0.34921 0.20652 0.6026 0.0
O113 O 0.37141 0.18747 0.62225 0.0
O114 O 0.32067 0.16107 0.64925 0.0
O115 O 0.3745 0.15485 0.65086 0.0
C116 C 0.44502 0.14732 0.62374 0.0
O117 O 0.4168 0.12385 0.63377 0.0
O118 O 0.43413 0.16546 0.61318 0.0
C119 C 0.30738 0.08073 0.62292 0.0
Tb120 Tb 0.65424 0.78065 0.38843 0.0
C121 C 0.70225 0.80919 0.42384 0.0
Tb122 Tb 0.72066 0.862 0.38901 0.0
O123 O 0.69169 0.75734 0.39233 0.0
O124 O 0.71091 0.80929 0.37959 0.0
O125 O 0.66873 0.78504 0.417 0.0
C126 C 0.78499 0.9276 0.3922 0.0
O127 O 0.72775 0.83909 0.41468 0.0
C128 C 0.65326 0.85455 0.39037 0.0
C129 C 0.68009 0.82916 0.35191 0.0
O130 O 0.75501 0.91684 0.40198 0.0
O131 O 0.77887 0.90125 0.38068 0.0
O132 O 0.68236 0.88327 0.38328 0.0
O133 O 0.66354 0.8334 0.39777 0.0
O134 O 0.71177 0.85468 0.35987 0.0
O135 O 0.65246 0.80055 0.36096 0.0
C136 C 0.58467 0.72092 0.38797 0.0
O137 O 0.61323 0.72394 0.3789 0.0
O138 O 0.59537 0.75145 0.39722 0.0
C139 C 0.72102 0.78713 0.38588 0.0
Tb140 Tb 0.87533 0.64269 0.88825 0.0
C141 C 0.89794 0.69217 0.92352 0.0
Tb142 Tb 0.86008 0.70944 0.88984 0.0
O143 O 0.93681 0.67966 0.88944 0.0
O144 O 0.9024 0.69941 0.87942 0.0
O145 O 0.88838 0.65871 0.91658 0.0
C146 C 0.85687 0.77298 0.89291 0.0
O147 O 0.89264 0.7175 0.91471 0.0
C148 C 0.80003 0.64211 0.89151 0.0
C149 C 0.8491 0.66754 0.85279 0.0
O150 O 0.8411 0.74431 0.9038 0.0
O151 O 0.87474 0.76602 0.8804 0.0
O152 O 0.79976 0.67185 0.88585 0.0
O153 O 0.83204 0.65188 0.89812 0.0
O154 O 0.85745 0.69995 0.86069 0.0
O155 O 0.84921 0.63937 0.86179 0.0
C156 C 0.86574 0.57299 0.88883 0.0
O157 O 0.88372 0.59817 0.87637 0.0
O158 O 0.85349 0.58722 0.9009 0.0
C159 C 0.93561 0.70937 0.88422 0.0
Tb160 Tb 0.24959 0.87655 0.38787 0.0
C161 C 0.22322 0.89861 0.42335 0.0
Tb162 Tb 0.16816 0.86192 0.38943 0.0
O163 O 0.27324 0.93759 0.39067 0.0
O164 O 0.22036 0.90393 0.37904 0.0
O165 O 0.24729 0.88921 0.41636 0.0
C166 C 0.10233 0.86015 0.39333 0.0
O167 O 0.19256 0.89323 0.41456 0.0
C168 C 0.17523 0.80182 0.39092 0.0
C169 C 0.19906 0.85312 0.35194 0.0
O170 O 0.11351 0.84086 0.4028 0.0
O171 O 0.12842 0.88079 0.38174 0.0
O172 O 0.14625 0.80231 0.38426 0.0
O173 O 0.19711 0.83343 0.39799 0.0
O174 O 0.17375 0.85916 0.36022 0.0
O175 O 0.22835 0.85458 0.36058 0.0
C176 C 0.30896 0.86573 0.38675 0.0
O177 O 0.30575 0.89111 0.37761 0.0
O178 O 0.27889 0.84675 0.39647 0.0
C179 C 0.24294 0.93664 0.38458 0.0
Tb180 Tb 0.37166 0.24265 0.88855 0.0
C181 C 0.327 0.21112 0.92531 0.0
Tb182 Tb 0.30784 0.15917 0.89134 0.0
O183 O 0.3325 0.264 0.89272 0.0
O184 O 0.31389 0.21068 0.88199 0.0
O185 O 0.35995 0.23462 0.91768 0.0
C186 C 0.24847 0.08975 0.88828 0.0
O187 O 0.3001 0.18157 0.91665 0.0
C188 C 0.37597 0.17466 0.90173 0.0
C189 C 0.34472 0.1936 0.85282 0.0
O190 O 0.24718 0.11911 0.89391 0.0
O191 O 0.28304 0.09961 0.88433 0.0
O192 O 0.34499 0.14768 0.90851 0.0
O193 O 0.36726 0.18925 0.88908 0.0
O194 O 0.3159 0.16619 0.8619 0.0
O195 O 0.37151 0.22477 0.86067 0.0
C196 C 0.44102 0.30236 0.88871 0.0
O197 O 0.41414 0.29764 0.87768 0.0
O198 O 0.42861 0.27367 0.89959 0.0
C199 C 0.30307 0.23236 0.88804 0.0
Tb200 Tb 0.15304 0.37562 0.39104 0.0
C201 C 0.13681 0.32884 0.42667 0.0
Tb202 Tb 0.16953 0.31008 0.39136 0.0
O203 O 0.0928 0.33683 0.39573 0.0
O204 O 0.12597 0.31914 0.38219 0.0
O205 O 0.14565 0.36225 0.41981 0.0
C206 C 0.17198 0.24624 0.39434 0.0
O207 O 0.14102 0.30339 0.41739 0.0
C208 C 0.22848 0.37792 0.39212 0.0
C209 C 0.17417 0.34931 0.35414 0.0
O210 O 0.19362 0.27742 0.40283 0.0
O211 O 0.14864 0.25088 0.38424 0.0
O212 O 0.22837 0.3491 0.38489 0.0
O213 O 0.19742 0.36726 0.39999 0.0
O214 O 0.16991 0.31842 0.36225 0.0
O215 O 0.17197 0.3764 0.36305 0.0
C216 C 0.16135 0.44468 0.39001 0.0
O217 O 0.13239 0.41422 0.38397 0.0
O218 O 0.18554 0.43618 0.39656 0.0
C219 C 0.09388 0.30818 0.38886 0.0
Tb220 Tb 0.77092 0.13715 0.88703 0.0
C221 C 0.80197 0.11988 0.92198 0.0
Tb222 Tb 0.8525 0.15381 0.88677 0.0
O223 O 0.7484 0.07626 0.88945 0.0
O224 O 0.80026 0.11055 0.87717 0.0
O225 O 0.77936 0.13186 0.91576 0.0
C226 C 0.92017 0.15919 0.88945 0.0
O227 O 0.83067 0.12289 0.91228 0.0
C228 C 0.84308 0.21242 0.8889 0.0
C229 C 0.81653 0.15777 0.84957 0.0
O230 O 0.90981 0.18046 0.89766 0.0
O231 O 0.89221 0.13444 0.87985 0.0
O232 O 0.87102 0.21244 0.88072 0.0
O233 O 0.82316 0.18107 0.89668 0.0
O234 O 0.84411 0.15489 0.8576 0.0
O235 O 0.78658 0.15383 0.85859 0.0
C236 C 0.71018 0.1456 0.8872 0.0
O237 O 0.71009 0.11431 0.88988 0.0
O238 O 0.74448 0.17218 0.88415 0.0
C239 C 0.77858 0.07778 0.88296 0.0
H240 H 0.13137 0.94983 0.14233 0.0
H241 H 0.13978 0.01336 0.14478 0.0
H242 H 0.225 0.05236 0.10312 0.0
H243 H 0.21682 0.98928 0.10077 0.0
H244 H 0.24808 0.0991 0.13171 0.0
H245 H 0.13624 0.03585 0.09487 0.0
H246 H 0.07109 0.98706 0.08773 0.0
H247 H 0.03064 0.02035 0.13374 0.0
H248 H 0.09568 0.06885 0.1414 0.0
H249 H 0.27236 0.2757 0.10743 0.0
H250 H 0.25734 0.20999 0.10742 0.0
H251 H 0.17077 0.18317 0.14745 0.0
H252 H 0.18553 0.24899 0.14729 0.0
H253 H 0.14625 0.12939 0.1224 0.0
H254 H 0.25616 0.19254 0.15929 0.0
H255 H 0.32084 0.24146 0.16716 0.0
H256 H 0.36414 0.20803 0.12232 0.0
H257 H 0.29964 0.15922 0.11403 0.0
C258 C 0.1517 0.97201 0.13366 0.0
C259 C 0.17344 0.96474 0.12138 0.0
C260 C 0.15642 0.00821 0.13502 0.0
C261 C 0.18292 0.03763 0.12406 0.0
C262 C 0.20445 0.03017 0.11173 0.0
C263 C 0.19969 0.99409 0.11037 0.0
C264 C 0.18929 0.07653 0.12564 0.0
C265 C 0.22587 0.10574 0.12949 0.0
C266 C 0.16003 0.08506 0.12337 0.0
C267 C 0.12093 0.05571 0.11884 0.0
C268 C 0.11352 0.0325 0.10359 0.0
C269 C 0.07659 1.00494 0.09943 0.0
C270 C 0.04676 1.00059 0.11028 0.0
C271 C 0.05379 0.02377 0.12534 0.0
C272 C 0.09069 0.05126 0.12962 0.0
C273 C 0.25024 0.25579 0.11627 0.0
C274 C 0.23012 0.26734 0.12738 0.0
C275 C 0.24168 0.21825 0.11628 0.0
C276 C 0.21326 0.19164 0.12763 0.0
C277 C 0.1928 0.20312 0.13858 0.0
C278 C 0.20122 0.24068 0.13848 0.0
C279 C 0.20523 0.15201 0.1281 0.0
C280 C 0.16839 0.12269 0.12473 0.0
C281 C 0.23415 0.14322 0.13095 0.0
C282 C 0.27302 0.17242 0.13595 0.0
C283 C 0.27945 0.19579 0.15103 0.0
C284 C 0.31608 0.22348 0.15558 0.0
C285 C 0.34657 0.22791 0.14523 0.0
C286 C 0.34049 0.20459 0.13032 0.0
C287 C 0.3039 0.17687 0.1257 0.0
H288 H 0.37491 0.24937 0.14877 0.0
H289 H 0.01818 0.97928 0.10702 0.0
H290 H 0.1771 0.11114 0.62661 0.0
H291 H 0.1223 0.12011 0.62779 0.0
H292 H 0.19525 0.23954 0.6195 0.0
H293 H 0.24994 0.23078 0.61951 0.0
H294 H 0.14819 0.23248 0.64267 0.0
H295 H 0.13532 0.17197 0.58551 0.0
H296 H 0.12916 0.12282 0.56431 0.0
H297 H 0.02652 0.04225 0.59039 0.0
H298 H 0.03257 0.09056 0.6121 0.0
H299 H 1.00637 0.27364 0.61118 0.0
H300 H 0.05906 0.26112 0.61128 0.0
H301 H 0.99023 0.15667 0.63964 0.0
H302 H 0.93833 0.17013 0.64044 0.0
H303 H 0.03258 0.15432 0.60676 0.0
H304 H 0.04816 0.21827 0.66386 0.0
H305 H 0.05438 0.27032 0.68298 0.0
H306 H 0.15315 0.34834 0.65338 0.0
H307 H 0.14716 0.29679 0.6339 0.0
C308 C 0.18127 0.13926 0.62509 0.0
C309 C 0.21765 0.17029 0.62298 0.0
C310 C 0.14993 0.14438 0.62561 0.0
C311 C 0.15433 0.18049 0.62342 0.0
C312 C 0.19088 0.2114 0.62128 0.0
C313 C 0.22218 0.20639 0.62123 0.0
C314 C 0.12128 0.18652 0.62369 0.0
C315 C 0.12322 0.21557 0.63458 0.0
C316 C 0.08808 0.16415 0.61346 0.0
C317 C 0.08471 0.13483 0.6006 0.0
C318 C 0.11169 0.14365 0.58688 0.0
C319 C 0.10821 0.11591 0.57477 0.0
C320 C 0.0776 0.07934 0.57609 0.0
C321 C 0.05037 0.07047 0.58949 0.0
C322 C 0.05383 0.09801 0.60172 0.0
C323 C 1.00259 0.24812 0.6175 0.0
C324 C 0.96804 0.22243 0.62552 0.0
C325 C 0.0326 0.24095 0.61749 0.0
C326 C 0.02835 0.20782 0.62534 0.0
C327 C 0.99388 0.18216 0.63333 0.0
C328 C 0.96416 0.18969 0.63364 0.0
C329 C 0.06014 0.20028 0.62547 0.0
C330 C 0.05777 0.171 0.61475 0.0
C331 C 0.09321 0.22279 0.63554 0.0
C332 C 0.09697 0.25375 0.64731 0.0
C333 C 0.07099 0.24658 0.66132 0.0
C334 C 0.07452 0.27598 0.67224 0.0
C335 C 0.10408 0.31263 0.66936 0.0
C336 C 0.13023 0.31994 0.65558 0.0
C337 C 0.1268 0.29064 0.6446 0.0
H338 H 0.10677 0.33536 0.67784 0.0
H339 H 0.07488 0.05792 0.56667 0.0
H340 H 0.74832 0.99913 0.14945 0.0
H341 H 0.81346 0.0522 0.14936 0.0
H342 H 0.84357 0.99466 0.10964 0.0
H343 H 0.77869 0.94376 0.10867 0.0
H344 H 0.88065 0.06244 0.15714 0.0
H345 H 0.9053 0.04978 0.08117 0.0
H346 H 0.86997 0.03133 0.05237 0.0
H347 H 0.79102 0.06111 0.07392 0.0
H348 H 0.82553 0.07915 0.10282 0.0
H349 H 0.07697 0.17896 0.13813 0.0
H350 H 0.01257 0.12543 0.14047 0.0
H351 H 0.97183 0.18659 0.10898 0.0
H352 H 0.03602 0.23927 0.1061 0.0
H353 H 0.93933 0.11849 0.09792 0.0
H354 H 0.96236 0.17684 0.15646 0.0
H355 H 0.99725 0.20172 0.18504 0.0
H356 H 0.97888 0.09202 0.19879 0.0
H357 H 0.9443 0.06659 0.17016 0.0
C358 C 0.76897 0.99801 0.14072 0.0
C359 C 0.75853 0.9671 0.12922 0.0
C360 C 0.80617 0.02818 0.14074 0.0
C361 C 0.83341 0.02775 0.12929 0.0
C362 C 0.82307 0.99617 0.11832 0.0
C363 C 0.78598 0.96662 0.11803 0.0
C364 C 0.87234 0.06055 0.12824 0.0
C365 C 0.89346 0.07477 0.14421 0.0
C366 C 0.88912 0.07704 0.11141 0.0
C367 C 0.86781 0.06555 0.09416 0.0
C368 C 0.88032 0.05227 0.07973 0.0
C369 C 0.86036 0.04173 0.06341 0.0
C370 C 0.82812 0.04479 0.06131 0.0
C371 C 0.81571 0.05829 0.07556 0.0
C372 C 0.83537 0.06855 0.09195 0.0
C373 C 0.0542 0.18072 0.13162 0.0
C374 C 0.06135 0.21314 0.12192 0.0
C375 C 0.01742 0.15031 0.13309 0.0
C376 C 0.98719 0.15216 0.12514 0.0
C377 C 0.99459 0.18443 0.11524 0.0
C378 C 0.03129 0.21454 0.11359 0.0
C379 C 0.94781 0.12049 0.12679 0.0
C380 C 0.92662 0.10628 0.1109 0.0
C381 C 0.93084 0.10482 0.14372 0.0
C382 C 0.95104 0.11989 0.16109 0.0
C383 C 0.96594 0.15807 0.16553 0.0
C384 C 0.98564 0.17227 0.18174 0.0
C385 C 0.99038 0.1485 0.1937 0.0
C386 C 0.97525 0.11042 0.1895 0.0
C387 C 0.95555 0.09609 0.17329 0.0
H388 H 1.00571 0.15956 0.20623 0.0
H389 H 0.81293 0.0369 0.0486 0.0
H390 H 0.83836 0.76738 0.64362 0.0
H391 H 0.85565 0.83377 0.64139 0.0
H392 H 0.77902 0.80741 0.59654 0.0
H393 H 0.76127 0.74074 0.59888 0.0
H394 H 0.85476 0.8748 0.59218 0.0
H395 H 0.74903 0.81805 0.63361 0.0
H396 H 0.71499 0.78093 0.66053 0.0
H397 H 0.80537 0.85823 0.69475 0.0
H398 H 0.84021 0.89551 0.66797 0.0
H399 H 0.83245 0.03629 0.58985 0.0
H400 H 0.82487 0.97314 0.59024 0.0
H401 H 0.88442 0.99796 0.64112 0.0
H402 H 0.89185 0.06107 0.64082 0.0
H403 H 0.82049 0.93183 0.64263 0.0
H404 H 0.92467 0.99172 0.60283 0.0
H405 H 0.96203 0.0292 0.5767 0.0
H406 H 0.88032 0.94795 0.54026 0.0
H407 H 0.84202 0.91024 0.56618 0.0
C408 C 0.82533 0.77582 0.63326 0.0
C409 C 0.79833 0.74908 0.62149 0.0
C410 C 0.8352 0.81366 0.632 0.0
C411 C 0.81854 0.82539 0.61882 0.0
C412 C 0.79218 0.79884 0.60678 0.0
C413 C 0.78186 0.76084 0.60822 0.0
C414 C 0.82757 0.86515 0.61814 0.0
C415 C 0.84689 0.88727 0.60306 0.0
C416 C 0.81841 0.88156 0.63266 0.0
C417 C 0.7974 0.85932 0.64877 0.0
C418 C 0.7618 0.82694 0.64686 0.0
C419 C 0.74233 0.80591 0.66209 0.0
C420 C 0.75806 0.81715 0.67933 0.0
C421 C 0.79325 0.84952 0.68138 0.0
C422 C 0.81285 0.87062 0.66618 0.0
C423 C 0.84427 0.02838 0.601 0.0
C424 C 0.86266 0.05345 0.61532 0.0
C425 C 0.84004 0.99236 0.60119 0.0
C426 C 0.85422 0.98085 0.61567 0.0
C427 C 0.87322 1.00621 0.62982 0.0
C428 C 0.87755 0.04226 0.62961 0.0
C429 C 0.84743 0.94174 0.61653 0.0
C430 C 0.82853 0.91962 0.6317 0.0
C431 C 0.85744 0.92556 0.60216 0.0
C432 C 0.88021 0.94832 0.58649 0.0
C433 C 0.91438 0.98203 0.58925 0.0
C434 C 0.93581 1.00328 0.57447 0.0
C435 C 0.92352 0.99101 0.55683 0.0
C436 C 0.88978 0.95743 0.55394 0.0
C437 C 0.86821 0.93609 0.56867 0.0
H438 H 0.94018 1.00748 0.5454 0.0
H439 H 0.74294 0.80084 0.69111 0.0
H440 H 0.08665 0.84805 0.11389 0.0
H441 H 0.03483 0.8613 0.11377 0.0
H442 H 0.96019 0.75 0.13477 0.0
H443 H 1.01216 0.73653 0.13465 0.0
H444 H 0.92817 0.76653 0.10743 0.0
H445 H 0.99549 0.83071 0.16194 0.0
H446 H 0.05188 0.87535 0.17916 0.0
H447 H 0.06378 0.96627 0.1456 0.0
H448 H 1.00757 0.9221 0.12808 0.0
H449 H 0.77354 0.78746 0.13133 0.0
H450 H 0.8279 0.77802 0.13204 0.0
H451 H 0.89958 0.89234 0.11386 0.0
H452 H 0.84527 0.9022 0.1137 0.0
H453 H 0.93463 0.87641 0.13888 0.0
H454 H 0.86933 0.81611 0.08473 0.0
H455 H 0.8153 0.77369 0.0656 0.0
H456 H 0.80246 0.67828 0.09572 0.0
H457 H 0.85611 0.7202 0.1152 0.0
C458 C 0.05937 0.82663 0.11873 0.0
C459 C 0.05353 0.79147 0.12453 0.0
C460 C 0.02971 0.83421 0.11864 0.0
C461 C 0.99369 0.80687 0.12454 0.0
C462 C 0.98777 0.77159 0.13024 0.0
C463 C 0.01745 0.76395 0.13022 0.0
C464 C 0.96192 0.81462 0.12429 0.0
C465 C 0.92933 0.79021 0.11455 0.0
C466 C 0.96405 0.84643 0.13294 0.0
C467 C 0.99747 0.87307 0.14364 0.0
C468 C 1.01022 0.8602 0.15819 0.0
C469 C 0.0421 0.88542 0.16802 0.0
C470 C 0.06134 0.92363 0.16348 0.0
C471 C 0.04874 0.9367 0.14912 0.0
C472 C 0.01685 0.91161 0.13926 0.0
C473 C 0.80093 0.81059 0.12754 0.0
C474 C 0.80524 0.84548 0.12237 0.0
C475 C 0.83195 0.80512 0.12784 0.0
C476 C 0.8678 0.83424 0.12267 0.0
C477 C 0.87223 0.86941 0.11784 0.0
C478 C 0.84121 0.87499 0.11771 0.0
C479 C 0.90049 0.82786 0.12229 0.0
C480 C 0.93335 0.85264 0.13181 0.0
C481 C 0.89887 0.79668 0.1132 0.0
C482 C 0.86652 0.77135 0.10154 0.0
C483 C 0.85479 0.78612 0.08737 0.0
C484 C 0.82427 0.76215 0.07645 0.0
C485 C 0.8054 0.72333 0.07948 0.0
C486 C 0.81707 0.70837 0.09341 0.0
C487 C 0.84756 0.73222 0.10439 0.0
H488 H 0.78178 0.70482 0.071 0.0
H489 H 0.08606 0.9431 0.17108 0.0
H490 H 0.95387 0.83555 0.63769 0.0
H491 H 0.01758 0.89056 0.63701 0.0
H492 H 0.04936 0.83732 0.59573 0.0
H493 H 0.98602 0.78232 0.59652 0.0
H494 H 0.10062 0.86482 0.62228 0.0
H495 H 0.0349 0.91024 0.58565 0.0
H496 H 0.98447 0.92456 0.57882 0.0
H497 H 0.01949 1.00142 0.62359 0.0
H498 H 0.0698 0.98713 0.63088 0.0
H499 H 0.27914 0.01909 0.60119 0.0
H500 H 0.21334 0.96878 0.59856 0.0
H501 H 0.1808 0.02462 0.63811 0.0
H502 H 0.24641 0.07547 0.64034 0.0
H503 H 0.12961 0.99626 0.61208 0.0
H504 H 0.19248 0.9486 0.64977 0.0
H505 H 0.2424 0.93389 0.65727 0.0
H506 H 0.21232 0.86137 0.61092 0.0
H507 H 0.16244 0.87595 0.60306 0.0
C508 C 0.97443 0.8358 0.6284 0.0
C509 C 0.96511 0.80473 0.61718 0.0
C510 C 1.01075 0.86725 0.62796 0.0
C511 C 0.03823 0.86817 0.61624 0.0
C512 C 0.02868 0.83725 0.60489 0.0
C513 C 0.99245 0.80589 0.60531 0.0
C514 C 0.07739 0.90056 0.61628 0.0
C515 C 0.10696 0.89349 0.61979 0.0
C516 C 0.08565 0.9381 0.61348 0.0
C517 C 0.05583 0.94724 0.60895 0.0
C518 C 0.03166 0.92996 0.59414 0.0
C519 C 1.00312 0.93809 0.59017 0.0
C520 C 0.99864 0.96367 0.60084 0.0
C521 C 0.02288 0.98144 0.61541 0.0
C522 C 0.05145 0.97338 0.61944 0.0
C523 C 0.25786 0.02051 0.6093 0.0
C524 C 0.26774 0.05081 0.6211 0.0
C525 C 0.22034 0.99181 0.60782 0.0
C526 C 0.19217 0.99249 0.61841 0.0
C527 C 0.20198 0.02337 0.62984 0.0
C528 C 0.23945 0.05233 0.63115 0.0
C529 C 0.15279 0.96044 0.61803 0.0
C530 C 0.12322 0.96756 0.61451 0.0
C531 C 0.1444 0.92288 0.62089 0.0
C532 C 0.17394 0.91357 0.62576 0.0
C533 C 0.19663 0.92963 0.64114 0.0
C534 C 0.22489 0.92131 0.64546 0.0
C535 C 0.23058 0.89677 0.63455 0.0
C536 C 0.2079 0.88039 0.61935 0.0
C537 C 0.17959 0.88862 0.61497 0.0
H538 H 0.2525 0.89039 0.63791 0.0
H539 H 0.97651 0.96986 0.59777 0.0
H540 H 0.04396 0.81256 0.41492 0.0
H541 H 0.97959 0.80191 0.41487 0.0
H542 H 1.01079 0.88776 0.37399 0.0
H543 H 0.07531 0.89839 0.37392 0.0
H544 H 0.96422 0.8903 0.40226 0.0
H545 H 0.96728 0.80094 0.36074 0.0
H546 H 0.98029 0.75057 0.35193 0.0
H547 H 0.90488 0.67855 0.39326 0.0
H548 H 0.89183 0.72874 0.4025 0.0
H549 H 0.7831 0.84298 0.36905 0.0
H550 H 0.84841 0.85702 0.37191 0.0
H551 H 0.81255 0.76243 0.40811 0.0
H552 H 0.74723 0.74856 0.40538 0.0
H553 H 0.86167 0.76432 0.38333 0.0
H554 H 0.85518 0.85017 0.42424 0.0
H555 H 0.84138 0.89944 0.43403 0.0
H556 H 0.92271 0.977 0.39613 0.0
H557 H 0.93627 0.92798 0.38576 0.0
C558 C 0.03717 0.82938 0.40604 0.0
C559 C 0.06449 0.85612 0.39434 0.0
C560 C 1.0004 0.82323 0.406 0.0
C561 C 0.99033 0.8438 0.39431 0.0
C562 C 0.01796 0.87153 0.38309 0.0
C563 C 0.05472 0.87748 0.38301 0.0
C564 C 0.95059 0.83507 0.3932 0.0
C565 C 0.94181 0.86294 0.39791 0.0
C566 C 0.92127 0.79899 0.38804 0.0
C567 C 0.92889 0.76872 0.38243 0.0
C568 C 0.95371 0.77447 0.36805 0.0
C569 C 0.96105 0.74594 0.36296 0.0
C570 C 0.9435 0.71142 0.37206 0.0
C571 C 0.91849 0.70533 0.38624 0.0
C572 C 0.9111 0.73379 0.3914 0.0
C573 C 0.78926 0.82548 0.37776 0.0
C574 C 0.76025 0.79498 0.38715 0.0
C575 C 0.82654 0.83344 0.37935 0.0
C576 C 0.83548 0.81102 0.39039 0.0
C577 C 0.80635 0.78012 0.39954 0.0
C578 C 0.76908 0.77223 0.39797 0.0
C579 C 0.87515 0.81964 0.39225 0.0
C580 C 0.88396 0.79171 0.38771 0.0
C581 C 0.90439 0.85553 0.39777 0.0
C582 C 0.89646 0.88523 0.40407 0.0
C583 C 0.86986 0.87763 0.41785 0.0
C584 C 0.86206 0.90553 0.42352 0.0
C585 C 0.88105 0.94129 0.41568 0.0
C586 C 0.90793 0.94928 0.40218 0.0
C587 C 0.91566 0.92143 0.39638 0.0
H588 H 0.87492 0.96281 0.42007 0.0
H589 H 0.94922 0.68936 0.3681 0.0
H590 H 1.00967 0.73174 0.89004 0.0
H591 H 0.06354 0.79577 0.88905 0.0
H592 H 0.98882 0.83835 0.87622 0.0
H593 H 0.9361 0.77404 0.87524 0.0
H594 H 0.04676 0.87809 0.8592 0.0
H595 H 0.02762 0.83757 0.92067 0.0
H596 H 0.02007 0.79586 0.94616 0.0
H597 H 0.13358 0.81873 0.939 0.0
H598 H 0.14124 0.85933 0.91276 0.0
H599 H 0.17346 0.06669 0.89089 0.0
H600 H 0.12029 1.00185 0.88922 0.0
H601 H 0.19788 0.96079 0.88194 0.0
H602 H 0.25093 0.02541 0.88323 0.0
H603 H 0.13956 0.92202 0.90939 0.0
H604 H 0.15456 0.96331 0.84662 0.0
H605 H 0.15877 1.00686 0.82244 0.0
H606 H 0.04853 0.98703 0.83623 0.0
H607 H 0.04388 0.94371 0.86065 0.0
C608 C 1.00488 0.75481 0.88689 0.0
C609 C 0.96838 0.74802 0.88322 0.0
C610 C 0.03567 0.79154 0.88649 0.0
C611 C 0.03041 0.82246 0.88318 0.0
C612 C 0.99396 0.81536 0.87902 0.0
C613 C 0.96351 0.77855 0.87876 0.0
C614 C 0.06254 0.86207 0.88417 0.0
C615 C 0.06663 0.88757 0.87035 0.0
C616 C 0.08903 0.87498 0.8986 0.0
C617 C 0.08483 0.85115 0.91459 0.0
C618 C 0.0509 0.8335 0.92441 0.0
C619 C 0.0466 0.80999 0.93902 0.0
C620 C 0.07637 0.80466 0.94428 0.0
C621 C 0.11051 0.82282 0.93489 0.0
C622 C 0.11479 0.84595 0.92008 0.0
C623 C 0.17907 0.04379 0.88888 0.0
C624 C 0.21623 0.05098 0.88716 0.0
C625 C 0.14875 1.00685 0.88791 0.0
C626 C 0.15521 0.97658 0.88543 0.0
C627 C 0.19233 0.98376 0.88388 0.0
C628 C 0.22256 0.02066 0.88455 0.0
C629 C 0.12333 0.93731 0.88452 0.0
C630 C 0.11942 0.91212 0.89834 0.0
C631 C 0.09645 0.92499 0.87042 0.0
C632 C 0.09902 0.95053 0.85555 0.0
C633 C 0.13133 0.96844 0.84457 0.0
C634 C 0.13377 0.99304 0.83081 0.0
C635 C 0.10397 0.99978 0.82783 0.0
C636 C 0.07161 0.98181 0.83856 0.0
C637 C 0.06903 0.95719 0.85235 0.0
H638 H 0.10593 0.01886 0.81718 0.0
H639 H 0.07303 0.78645 0.95561 0.0
H640 H 0.22408 0.23674 0.41284 0.0
H641 H 0.23381 0.18253 0.41193 0.0
H642 H 0.13863 0.12497 0.37609 0.0
H643 H 0.12868 0.17925 0.37701 0.0
H644 H 0.14153 0.07763 0.40286 0.0
H645 H 0.2246 0.16789 0.3586 0.0
H646 H 0.27387 0.23065 0.3483 0.0
H647 H 0.35181 0.22807 0.38637 0.0
H648 H 0.30281 0.16548 0.39709 0.0
H649 H 0.18421 0.94022 0.36926 0.0
H650 H 0.16954 0.99107 0.37191 0.0
H651 H 0.2715 0.0564 0.4025 0.0
H652 H 0.28517 1.00479 0.40077 0.0
H653 H 0.26394 0.09928 0.37898 0.0
H654 H 0.18369 0.00888 0.42267 0.0
H655 H 0.13515 0.94721 0.43437 0.0
H656 H 0.05268 0.95022 0.3996 0.0
H657 H 0.10094 0.01154 0.38734 0.0
C658 C 0.20502 0.21239 0.4049 0.0
C659 C 0.17578 0.21226 0.39489 0.0
C660 C 0.21066 0.18149 0.40436 0.0
C661 C 0.18723 0.14988 0.39377 0.0
C662 C 0.15708 0.14909 0.38432 0.0
C663 C 0.1515 0.18011 0.38481 0.0
C664 C 0.19534 0.11851 0.39193 0.0
C665 C 0.16806 0.08215 0.39741 0.0
C666 C 0.23038 0.1247 0.38529 0.0
C667 C 0.25994 0.16217 0.37875 0.0
C668 C 0.25216 0.18083 0.36487 0.0
C669 C 0.28005 0.21635 0.35894 0.0
C670 C 0.31592 0.23338 0.36671 0.0
C671 C 0.324 0.21487 0.38038 0.0
C672 C 0.2962 0.17936 0.38638 0.0
C673 C 0.20293 0.96505 0.37696 0.0
C674 C 0.2352 0.96813 0.38526 0.0
C675 C 0.19469 0.99419 0.37837 0.0
C676 C 0.21886 0.02717 0.38794 0.0
C677 C 0.25196 0.03085 0.39553 0.0
C678 C 0.25987 1.00148 0.3944 0.0
C679 C 0.21008 0.0581 0.38986 0.0
C680 C 0.23731 0.09452 0.38441 0.0
C681 C 0.17512 0.05192 0.39671 0.0
C682 C 0.14611 0.01474 0.40393 0.0
C683 C 0.15533 0.99626 0.41735 0.0
C684 C 0.12784 0.96133 0.4241 0.0
C685 C 0.09089 0.94474 0.41769 0.0
C686 C 0.08135 0.96305 0.40451 0.0
C687 C 0.10877 0.99788 0.39764 0.0
H688 H 0.06962 0.91773 0.42295 0.0
H689 H 0.33747 0.26088 0.3621 0.0
H690 H 0.27716 0.27845 0.89956 0.0
H691 H 0.21207 0.26556 0.89963 0.0
H692 H 0.17503 0.15505 0.8776 0.0
H693 H 0.24042 0.16919 0.87621 0.0
H694 H 0.13926 0.18342 0.86162 0.0
H695 H 0.16874 0.17732 0.9252 0.0
H696 H 0.20552 0.2039 0.95314 0.0
H697 H 0.17799 0.29213 0.95258 0.0
H698 H 0.14188 0.26667 0.92439 0.0
H699 H 0.94381 0.11215 0.87637 0.0
H700 H 1.00798 0.12224 0.87666 0.0
H701 H 0.04741 0.22993 0.9025 0.0
H702 H 0.98308 0.21868 0.90324 0.0
H703 H 0.08153 0.20105 0.91701 0.0
H704 H 0.05892 0.21583 0.85447 0.0
H705 H 0.02528 0.19713 0.82525 0.0
H706 H 0.04212 0.10197 0.82262 0.0
H707 H 0.07549 0.11987 0.85193 0.0
C708 C 0.25508 0.25144 0.89472 0.0
C709 C 0.26371 0.22447 0.88824 0.0
C710 C 0.21779 0.24393 0.89492 0.0
C711 C 0.18826 0.20885 0.88911 0.0
C712 C 0.1971 0.18215 0.88236 0.0
C713 C 0.23445 0.19003 0.88178 0.0
C714 C 0.14829 0.2001 0.88966 0.0
C715 C 0.12652 0.18679 0.87382 0.0
C716 C 0.13179 0.20567 0.90538 0.0
C717 C 0.15288 0.22025 0.92258 0.0
C718 C 0.1707 0.20249 0.93098 0.0
C719 C 0.19146 0.21741 0.94687 0.0
C720 C 0.19416 0.24978 0.9546 0.0
C721 C 0.17594 0.26714 0.94654 0.0
C722 C 0.15538 0.2525 0.93061 0.0
C723 C 0.96625 0.13783 0.88219 0.0
C724 C 0.95856 0.1646 0.88981 0.0
C725 C 1.00301 0.14378 0.88221 0.0
C726 C 0.03297 0.17723 0.8893 0.0
C727 C 0.02501 0.20384 0.89698 0.0
C728 C 0.9882 0.19746 0.89736 0.0
C729 C 0.07256 0.18469 0.88892 0.0
C730 C 0.09421 0.19756 0.9048 0.0
C731 C 0.08925 0.17969 0.87313 0.0
C732 C 0.06936 0.16898 0.85547 0.0
C733 C 0.05524 0.19079 0.84771 0.0
C734 C 0.03625 0.18035 0.83113 0.0
C735 C 0.03148 0.14832 0.82211 0.0
C736 C 0.04579 0.12673 0.82963 0.0
C737 C 0.06477 0.13702 0.84622 0.0
H738 H 0.01676 0.14028 0.80928 0.0
H739 H 0.2104 0.26163 0.96679 0.0
H740 H 0.08749 0.24898 0.36942 0.0
H741 H 0.03688 0.18322 0.37096 0.0
H742 H 0.98024 0.21269 0.41147 0.0
H743 H 0.03122 0.2785 0.41015 0.0
H744 H 0.98127 0.14751 0.42006 0.0
H745 H 0.94976 0.19896 0.36855 0.0
H746 H 0.962 0.23206 0.33925 0.0
H747 H 0.98157 0.14878 0.3144 0.0
H748 H 0.96994 0.11544 0.34363 0.0
H749 H 0.79997 0.98422 0.41585 0.0
H750 H 0.85495 0.04755 0.41627 0.0
H751 H 0.90249 0.01868 0.37113 0.0
H752 H 0.84709 0.9554 0.37051 0.0
H753 H 0.90776 0.08343 0.365 0.0
H754 H 0.94261 0.03318 0.41512 0.0
H755 H 0.93465 0.99997 0.44412 0.0
H756 H 0.91296 0.07976 0.47117 0.0
H757 H 0.9204 0.11323 0.44226 0.0
C758 C 0.06436 0.24133 0.37874 0.0
C759 C 0.06317 0.26869 0.38967 0.0
C760 C 0.03537 0.20385 0.37952 0.0
C761 C 1.00461 0.19312 0.39121 0.0
C762 C 1.00367 0.22038 0.40233 0.0
C763 C 0.03263 0.25794 0.40149 0.0
C764 C 0.97325 0.15353 0.39168 0.0
C765 C 0.96482 0.13359 0.40809 0.0
C766 C 0.95262 0.13505 0.37593 0.0
C767 C 0.95933 0.15491 0.35832 0.0
C768 C 0.95695 0.18786 0.35687 0.0
C769 C 0.96373 0.20664 0.34027 0.0
C770 C 0.97266 0.19259 0.32498 0.0
C771 C 0.9747 0.15965 0.32626 0.0
C772 C 0.96798 0.14079 0.34283 0.0
C773 C 0.82232 0.99132 0.40612 0.0
C774 C 0.81931 0.96498 0.39313 0.0
C775 C 0.8539 0.02746 0.40645 0.0
C776 C 0.88321 0.0379 0.39387 0.0
C777 C 0.88031 0.01137 0.38098 0.0
C778 C 0.8487 0.97521 0.38065 0.0
C779 C 0.91562 0.07713 0.39341 0.0
C780 C 0.9242 0.09714 0.377 0.0
C781 C 0.93667 0.09553 0.40911 0.0
C782 C 0.93147 0.07528 0.42648 0.0
C783 C 0.93565 0.04332 0.42721 0.0
C784 C 0.93138 0.02457 0.44364 0.0
C785 C 0.92304 0.03762 0.45945 0.0
C786 C 0.9192 0.0696 0.45888 0.0
C787 C 0.9235 0.0885 0.44249 0.0
H788 H 0.91973 0.02307 0.47216 0.0
H789 H 0.97791 0.20717 0.31214 0.0
H790 H 0.80824 0.78347 0.91396 0.0
H791 H 0.7967 0.83667 0.91317 0.0
H792 H 0.88333 0.89117 0.87268 0.0
H793 H 0.89461 0.83773 0.87322 0.0
H794 H 0.88388 0.94016 0.90146 0.0
H795 H 0.79855 0.84747 0.85837 0.0
H796 H 0.74919 0.78385 0.84929 0.0
H797 H 0.67408 0.78669 0.88897 0.0
H798 H 0.72324 0.85016 0.89847 0.0
H799 H 0.83737 0.07472 0.86717 0.0
H800 H 0.85308 0.02455 0.87013 0.0
H801 H 0.75233 0.95923 0.90168 0.0
H802 H 0.73777 0.01005 0.89962 0.0
H803 H 0.75969 0.91574 0.87882 0.0
H804 H 0.84015 0.00992 0.92012 0.0
H805 H 0.88865 0.07132 0.93178 0.0
H806 H 0.97235 0.06553 0.89923 0.0
H807 H 0.92411 1.00453 0.88687 0.0
C808 C 0.82507 0.80697 0.90502 0.0
C809 C 0.8522 0.80646 0.89359 0.0
C810 C 0.81841 0.83728 0.90457 0.0
C811 C 0.83903 0.86776 0.89279 0.0
C812 C 0.86715 0.86795 0.88187 0.0
C813 C 0.87347 0.8374 0.88215 0.0
C814 C 0.82991 0.89846 0.89119 0.0
C815 C 0.85699 0.93513 0.89627 0.0
C816 C 0.79429 0.89141 0.88503 0.0
C817 C 0.76469 0.85337 0.87925 0.0
C818 C 0.77162 0.83439 0.86526 0.0
C819 C 0.74366 0.79839 0.86002 0.0
C820 C 0.70856 0.7812 0.86858 0.0
C821 C 0.7013 0.80002 0.88237 0.0
C822 C 0.72919 0.83601 0.88768 0.0
C823 C 0.81916 0.05003 0.87511 0.0
C824 C 0.78701 0.04674 0.88361 0.0
C825 C 0.82798 0.02126 0.8767 0.0
C826 C 0.80446 0.98847 0.88663 0.0
C827 C 0.77142 0.98457 0.8944 0.0
C828 C 0.76298 0.01355 0.89308 0.0
C829 C 0.81391 0.95803 0.88884 0.0
C830 C 0.78676 0.92118 0.88396 0.0
C831 C 0.84935 0.96501 0.89546 0.0
C832 C 0.87825 1.00253 0.90241 0.0
C833 C 0.86874 0.02181 0.91523 0.0
C834 C 0.89624 0.05665 0.92198 0.0
C835 C 0.93355 0.07239 0.91622 0.0
C836 C 0.9434 0.05337 0.90364 0.0
C837 C 0.91595 0.01869 0.89671 0.0
H838 H 0.95484 0.09932 0.9215 0.0
H839 H 0.68694 0.75333 0.8645 0.0
H840 H 0.21052 0.71179 0.09979 0.0
H841 H 0.22386 0.65979 0.09891 0.0
H842 H 0.13404 0.59774 0.13716 0.0
H843 H 0.12116 0.64989 0.13832 0.0
H844 H 0.1948 0.59293 0.1459 0.0
H845 H 0.12404 0.579 0.09061 0.0
H846 H 0.11316 0.60102 0.0613 0.0
H847 H 0.21914 0.61818 0.04153 0.0
H848 H 0.23081 0.59663 0.07081 0.0
H849 H 0.1352 0.40327 0.1367 0.0
H850 H 0.14249 0.46582 0.13568 0.0
H851 H 0.23602 0.50237 0.09878 0.0
H852 H 0.22818 0.43869 0.09946 0.0
H853 H 0.18719 0.52706 0.08837 0.0
H854 H 0.25346 0.53151 0.14175 0.0
H855 H 0.26405 0.50819 0.1707 0.0
H856 H 0.16893 0.50976 0.19408 0.0
H857 H 0.15734 0.53249 0.16517 0.0
C858 C 0.19361 0.68699 0.10798 0.0
C859 C 0.16462 0.68471 0.11904 0.0
C860 C 0.20121 0.65726 0.10744 0.0
C861 C 0.17972 0.62459 0.11783 0.0
C862 C 0.15105 0.62261 0.12903 0.0
C863 C 0.14358 0.65234 0.12963 0.0
C864 C 0.18653 0.59215 0.11705 0.0
C865 C 0.19296 0.57845 0.13332 0.0
C866 C 0.18569 0.57405 0.10057 0.0
C867 C 0.17846 0.5866 0.08294 0.0
C868 C 0.14511 0.58769 0.08004 0.0
C869 C 0.13879 0.60005 0.06344 0.0
C870 C 0.16549 0.6111 0.04958 0.0
C871 C 0.19851 0.60968 0.05228 0.0
C872 C 0.20498 0.59736 0.06887 0.0
C873 C 0.15742 0.42455 0.12836 0.0
C874 C 0.18133 0.41617 0.11827 0.0
C875 C 0.16168 0.46043 0.12787 0.0
C876 C 0.19019 0.48905 0.1174 0.0
C877 C 0.21397 0.48077 0.10705 0.0
C878 C 0.20963 0.44454 0.10752 0.0
C879 C 0.19408 0.52714 0.11729 0.0
C880 C 0.18975 0.54195 0.1009 0.0
C881 C 0.19711 0.54646 0.13365 0.0
C882 C 0.20444 0.53359 0.15124 0.0
C883 C 0.23468 0.52673 0.15304 0.0
C884 C 0.24087 0.5136 0.16944 0.0
C885 C 0.21716 0.50746 0.18422 0.0
C886 C 0.18729 0.51455 0.18262 0.0
C887 C 0.18093 0.52762 0.16623 0.0
H888 H 0.22195 0.49724 0.1969 0.0
H889 H 0.16056 0.62068 0.03674 0.0
H890 H 0.7942 0.22151 0.62262 0.0
H891 H 0.73576 0.22424 0.6235 0.0
H892 H 0.6723 0.10591 0.61069 0.0
H893 H 0.73071 0.1036 0.60933 0.0
H894 H 0.64674 0.14508 0.5917 0.0
H895 H 0.67913 0.13574 0.65362 0.0
H896 H 0.72111 0.15629 0.68023 0.0
H897 H 0.7224 0.26159 0.68053 0.0
H898 H 0.68095 0.24196 0.65367 0.0
H899 H 0.4728 0.11333 0.64591 0.0
H900 H 0.53587 0.12022 0.64505 0.0
H901 H 0.5667 0.19981 0.60113 0.0
H902 H 0.50391 0.19308 0.60196 0.0
H903 H 0.60943 0.18205 0.64861 0.0
H904 H 0.61736 0.17946 0.5708 0.0
H905 H 0.57467 0.15544 0.54446 0.0
H906 H 0.49033 0.06684 0.57725 0.0
H907 H 0.53269 0.09001 0.6037 0.0
C908 C 0.76798 0.19658 0.61933 0.0
C909 C 0.7671 0.1627 0.61537 0.0
C910 C 0.73448 0.19791 0.62018 0.0
C911 C 0.69957 0.16522 0.61718 0.0
C912 C 0.69885 0.13152 0.61295 0.0
C913 C 0.73222 0.13021 0.61222 0.0
C914 C 0.66352 0.16543 0.61892 0.0
C915 C 0.63876 0.15345 0.6041 0.0
C916 C 0.65283 0.17587 0.63519 0.0
C917 C 0.67722 0.18751 0.65152 0.0
C918 C 0.68858 0.1634 0.65927 0.0
C919 C 0.71229 0.17489 0.6744 0.0
C920 C 0.72458 0.21032 0.682 0.0
C921 C 0.713 0.23424 0.67456 0.0
C922 C 0.68937 0.22293 0.65939 0.0
C923 C 0.49315 0.13245 0.63617 0.0
C924 C 0.48339 0.15242 0.6239 0.0
C925 C 0.52921 0.13653 0.63575 0.0
C926 C 0.55593 0.16036 0.62296 0.0
C927 C 0.54646 0.18106 0.61103 0.0
C928 C 0.51056 0.17715 0.6115 0.0
C929 C 0.59285 0.1619 0.62133 0.0
C930 C 0.61769 0.17416 0.63615 0.0
C931 C 0.60355 0.1513 0.60513 0.0
C932 C 0.57805 0.13674 0.58926 0.0
C933 C 0.58975 0.15478 0.57236 0.0
C934 C 0.56561 0.14132 0.55742 0.0
C935 C 0.52976 0.10972 0.5592 0.0
C936 C 0.51804 0.0914 0.57591 0.0
C937 C 0.54209 0.10472 0.59088 0.0
H938 H 0.51111 0.09937 0.54762 0.0
H939 H 0.74297 0.21919 0.6937 0.0
H940 H 0.57942 0.79171 0.1308 0.0
H941 H 0.51912 0.7329 0.13185 0.0
H942 H 0.56208 0.68254 0.09447 0.0
H943 H 0.62144 0.74207 0.09247 0.0
H944 H 0.49295 0.65785 0.08683 0.0
H945 H 0.55915 0.66993 0.14229 0.0
H946 H 0.59268 0.70162 0.1703 0.0
H947 H 0.49359 0.70041 0.19011 0.0
H948 H 0.45963 0.66923 0.16204 0.0
H949 H 0.37806 0.46485 0.11029 0.0
H950 H 0.43202 0.52888 0.10822 0.0
H951 H 0.3663 0.57249 0.13288 0.0
H952 H 0.31188 0.50843 0.13468 0.0
H953 H 0.44314 0.60167 0.14724 0.0
H954 H 0.37679 0.58399 0.0908 0.0
H955 H 0.34606 0.5498 0.06276 0.0
H956 H 0.44976 0.55797 0.04519 0.0
H957 H 0.48098 0.59174 0.07327 0.0
C958 C 0.57567 0.76836 0.12249 0.0
C959 C 0.6051 0.77151 0.1115 0.0
C960 C 0.54133 0.73454 0.12328 0.0
C961 C 0.5362 0.70285 0.11357 0.0
C962 C 0.56524 0.70644 0.10214 0.0
C963 C 0.59926 0.74047 0.10105 0.0
C964 C 0.50125 0.66562 0.11569 0.0
C965 C 0.48235 0.64555 0.10006 0.0
C966 C 0.48688 0.64951 0.13295 0.0
C967 C 0.50698 0.66761 0.14998 0.0
C968 C 0.54457 0.67661 0.15258 0.0
C969 C 0.56366 0.69448 0.16847 0.0
C970 C 0.54532 0.70312 0.18197 0.0
C971 C 0.50779 0.69376 0.17963 0.0
C972 C 0.4886 0.67598 0.16373 0.0
C973 C 0.37518 0.48808 0.11533 0.0
C974 C 0.34087 0.48179 0.12262 0.0
C975 C 0.40595 0.52459 0.11411 0.0
C976 C 0.40305 0.55537 0.12033 0.0
C977 C 0.36906 0.54907 0.12802 0.0
C978 C 0.33805 0.51256 0.129 0.0
C979 C 0.43541 0.59412 0.11841 0.0
C980 C 0.45374 0.61431 0.13406 0.0
C981 C 0.44974 0.61002 0.1012 0.0
C982 C 0.43113 0.59011 0.08421 0.0
C983 C 0.39297 0.57825 0.08102 0.0
C984 C 0.37548 0.55898 0.06511 0.0
C985 C 0.39593 0.55164 0.05222 0.0
C986 C 0.43395 0.56365 0.0552 0.0
C987 C 0.45156 0.58289 0.0711 0.0
H988 H 0.38233 0.53671 0.03991 0.0
H989 H 0.56016 0.71701 0.19425 0.0
H990 H 0.90939 0.62478 0.61355 0.0
H991 H 0.90654 0.56377 0.61295 0.0
H992 H 0.78796 0.50829 0.62562 0.0
H993 H 0.79141 0.56971 0.62702 0.0
H994 H 0.82225 0.47937 0.64535 0.0
H995 H 0.81695 0.50476 0.58275 0.0
H996 H 0.83644 0.54205 0.55454 0.0
H997 H 0.94348 0.54693 0.55667 0.0
H998 H 0.92485 0.5101 0.58504 0.0
H999 H 0.82863 0.31324 0.59627 0.0
H1000 H 0.82074 0.36859 0.59576 0.0
H1001 H 0.88654 0.40921 0.6447 0.0
H1002 H 0.89408 0.35355 0.64536 0.0
H1003 H 0.87054 0.44124 0.59263 0.0
H1004 H 0.85445 0.45618 0.66981 0.0
H1005 H 0.82979 0.41496 0.69668 0.0
H1006 H 0.75418 0.32275 0.6629 0.0
H1007 H 0.77805 0.36346 0.63591 0.0
C1008 C 0.88264 0.5995 0.61603 0.0
C1009 C 0.85018 0.60174 0.61958 0.0
C1010 C 0.881 0.56465 0.61563 0.0
C1011 C 0.84686 0.5313 0.61886 0.0
C1012 C 0.8145 0.53357 0.6228 0.0
C1013 C 0.8162 0.56855 0.62318 0.0
C1014 C 0.84541 0.49431 0.61841 0.0
C1015 C 0.8327 0.471 0.6338 0.0
C1016 C 0.85831 0.4829 0.60322 0.0
C1017 C 0.86959 0.5049 0.5861 0.0
C1018 C 0.84475 0.51401 0.57727 0.0
C1019 C 0.85563 0.53503 0.56124 0.0
C1020 C 0.8912 0.54691 0.55384 0.0
C1021 C 0.91594 0.53772 0.56243 0.0
C1022 C 0.90522 0.51673 0.57847 0.0
C1023 C 0.84131 0.33394 0.60694 0.0
C1024 C 0.86196 0.32916 0.62086 0.0
C1025 C 0.83686 0.36559 0.60662 0.0
C1026 C 0.8528 0.39297 0.62025 0.0
C1027 C 0.87352 0.38822 0.63417 0.0
C1028 C 0.87796 0.35652 0.6345 0.0
C1029 C 0.84833 0.42681 0.61972 0.0
C1030 C 0.85995 0.44954 0.60415 0.0
C1031 C 0.83361 0.43719 0.63457 0.0
C1032 C 0.8183 0.41282 0.65083 0.0
C1033 C 0.83241 0.42717 0.66815 0.0
C1034 C 0.81861 0.40386 0.68339 0.0
C1035 C 0.79053 0.3662 0.6815 0.0
C1036 C 0.77604 0.35185 0.66436 0.0
C1037 C 0.78972 0.37502 0.64909 0.0
H1038 H 0.77997 0.34818 0.69331 0.0
H1039 H 0.89957 0.56319 0.54143 0.0
H1040 H 0.55816 0.92354 0.12744 0.0
H1041 H 0.49367 0.91256 0.12605 0.0
H1042 H 0.45503 0.80088 0.1052 0.0
H1043 H 0.51956 0.81232 0.10597 0.0
H1044 H 0.42126 0.82934 0.08772 0.0
H1045 H 0.44103 0.81746 0.15035 0.0
H1046 H 0.47323 0.83581 0.17991 0.0
H1047 H 0.45882 0.93253 0.18131 0.0
H1048 H 0.42697 0.91504 0.15162 0.0
H1049 H 0.23471 0.79991 0.13317 0.0
H1050 H 0.29352 0.79791 0.13412 0.0
H1051 H 0.33658 0.87569 0.08922 0.0
H1052 H 0.27793 0.87771 0.08821 0.0
H1053 H 0.36392 0.85539 0.14092 0.0
H1054 H 0.39281 0.85524 0.06354 0.0
H1055 H 0.35647 0.82824 0.03549 0.0
H1056 H 0.26675 0.74017 0.06629 0.0
H1057 H 0.30272 0.76631 0.09446 0.0
C1058 C 0.53587 0.89675 0.1225 0.0
C1059 C 0.54378 0.8688 0.11681 0.0
C1060 C 0.49898 0.89037 0.12182 0.0
C1061 C 0.46924 0.85563 0.11577 0.0
C1062 C 0.47736 0.82789 0.1099 0.0
C1063 C 0.51425 0.83444 0.11038 0.0
C1064 C 0.42974 0.84823 0.11547 0.0
C1065 C 0.4088 0.83505 0.09938 0.0
C1066 C 0.41281 0.85448 0.13081 0.0
C1067 C 0.43191 0.8651 0.14868 0.0
C1068 C 0.44497 0.84279 0.1569 0.0
C1069 C 0.46312 0.85302 0.17369 0.0
C1070 C 0.46815 0.88537 0.18246 0.0
C1071 C 0.45494 0.90751 0.17448 0.0
C1072 C 0.43681 0.89743 0.15768 0.0
C1073 C 0.25654 0.81612 0.12334 0.0
C1074 C 0.25184 0.83899 0.11061 0.0
C1075 C 0.29017 0.81513 0.12397 0.0
C1076 C 0.31944 0.83662 0.11174 0.0
C1077 C 0.31427 0.85861 0.09868 0.0
C1078 C 0.2808 0.8598 0.09813 0.0
C1079 C 0.35611 0.83762 0.11305 0.0
C1080 C 0.37646 0.8496 0.12931 0.0
C1081 C 0.37201 0.8291 0.09807 0.0
C1082 C 0.35037 0.813 0.08113 0.0
C1083 C 0.36541 0.83004 0.06431 0.0
C1084 C 0.34485 0.81489 0.04839 0.0
C1085 C 0.30928 0.78258 0.04911 0.0
C1086 C 0.29423 0.76528 0.06575 0.0
C1087 C 0.31468 0.7803 0.0817 0.0
H1088 H 0.29342 0.77092 0.03677 0.0
H1089 H 0.4822 0.89323 0.19546 0.0
H1090 H 0.64747 0.55036 0.63379 0.0
H1091 H 0.59117 0.48794 0.63125 0.0
H1092 H 0.65534 0.44838 0.60156 0.0
H1093 H 0.71112 0.511 0.60353 0.0
H1094 H 0.59101 0.42252 0.58609 0.0
H1095 H 0.63045 0.42643 0.64744 0.0
H1096 H 0.64888 0.45207 0.67831 0.0
H1097 H 0.54048 0.44206 0.68634 0.0
H1098 H 0.52159 0.41687 0.6554 0.0
H1099 H 0.44307 0.22885 0.62927 0.0
H1100 H 0.50207 0.28885 0.62992 0.0
H1101 H 0.45905 0.33282 0.58902 0.0
H1102 H 0.40021 0.27222 0.58794 0.0
H1103 H 0.51446 0.35492 0.63992 0.0
H1104 H 0.53164 0.40044 0.56437 0.0
H1105 H 0.51775 0.37121 0.53407 0.0
H1106 H 0.52099 0.27551 0.5556 0.0
H1107 H 0.5354 0.30438 0.58595 0.0
C1108 C 0.64947 0.52826 0.62676 0.0
C1109 C 0.68359 0.53543 0.61887 0.0
C1110 C 0.61734 0.49254 0.62537 0.0
C1111 C 0.61897 0.46316 0.61637 0.0
C1112 C 0.6532 0.47048 0.60851 0.0
C1113 C 0.68513 0.50625 0.60971 0.0
C1114 C 0.5851 0.42487 0.61501 0.0
C1115 C 0.57428 0.4078 0.59788 0.0
C1116 C 0.56354 0.40514 0.63039 0.0
C1117 C 0.57475 0.42013 0.64903 0.0
C1118 C 0.61064 0.42996 0.65574 0.0
C1119 C 0.62116 0.44438 0.67325 0.0
C1120 C 0.59591 0.4488 0.68426 0.0
C1121 C 0.56004 0.43869 0.67778 0.0
C1122 C 0.5494 0.42432 0.66026 0.0
C1123 C 0.44647 0.25101 0.62011 0.0
C1124 C 0.41712 0.24573 0.60843 0.0
C1125 C 0.4801 0.28547 0.62064 0.0
C1126 C 0.48516 0.31547 0.60952 0.0
C1127 C 0.4561 0.31001 0.59757 0.0
C1128 C 0.42245 0.27539 0.59697 0.0
C1129 C 0.52022 0.35277 0.61099 0.0
C1130 C 0.53118 0.36968 0.62813 0.0
C1131 C 0.54252 0.37187 0.59571 0.0
C1132 C 0.53419 0.35443 0.57747 0.0
C1133 C 0.52951 0.37322 0.56262 0.0
C1134 C 0.52153 0.3567 0.54544 0.0
C1135 C 0.51836 0.32147 0.54293 0.0
C1136 C 0.5233 0.30273 0.55757 0.0
C1137 C 0.53132 0.31914 0.57477 0.0
H1138 H 0.51216 0.30873 0.52962 0.0
H1139 H 0.60411 0.45998 0.69781 0.0
H1140 H 0.31878 0.81564 0.40695 0.0
H1141 H 0.37349 0.80655 0.40741 0.0
H1142 H 0.42745 0.89254 0.36654 0.0
H1143 H 0.37269 0.90175 0.36605 0.0
H1144 H 0.43528 0.82982 0.35999 0.0
H1145 H 0.45231 0.91318 0.40989 0.0
H1146 H 0.43365 0.93174 0.43808 0.0
H1147 H 0.42459 0.83491 0.4653 0.0
H1148 H 0.44271 0.8155 0.43718 0.0
H1149 H 0.62751 0.88913 0.36816 0.0
H1150 H 0.56517 0.88299 0.36763 0.0
H1151 H 0.5293 0.80153 0.41098 0.0
H1152 H 0.5925 0.80848 0.41187 0.0
H1153 H 0.50792 0.85341 0.41701 0.0
H1154 H 0.49558 0.77213 0.36841 0.0
H1155 H 0.51608 0.75383 0.34075 0.0
H1156 H 0.51644 0.84465 0.31151 0.0
H1157 H 0.4962 0.86369 0.33906 0.0
C1158 C 0.34229 0.83255 0.39803 0.0
C1159 C 0.34163 0.8596 0.38654 0.0
C1160 C 0.37354 0.82734 0.39832 0.0
C1161 C 0.40475 0.84906 0.38712 0.0
C1162 C 0.40371 0.87545 0.3753 0.0
C1163 C 0.37251 0.88082 0.37508 0.0
C1164 C 0.43893 0.84515 0.38811 0.0
C1165 C 0.45129 0.83523 0.37242 0.0
C1166 C 0.45923 0.85097 0.40447 0.0
C1167 C 0.44843 0.86266 0.42138 0.0
C1168 C 0.44602 0.89568 0.42185 0.0
C1169 C 0.4356 0.90638 0.43781 0.0
C1170 C 0.42782 0.88445 0.45345 0.0
C1171 C 0.43055 0.85183 0.45316 0.0
C1172 C 0.44091 0.84097 0.43722 0.0
C1173 C 0.60631 0.86974 0.37753 0.0
C1174 C 0.6147 0.84891 0.38991 0.0
C1175 C 0.57056 0.86606 0.37714 0.0
C1176 C 0.54225 0.84135 0.38907 0.0
C1177 C 0.55058 0.82054 0.40154 0.0
C1178 C 0.58653 0.82423 0.40193 0.0
C1179 C 0.50466 0.83873 0.38881 0.0
C1180 C 0.49162 0.84743 0.40463 0.0
C1181 C 0.48359 0.83149 0.37261 0.0
C1182 C 0.49456 0.81946 0.35583 0.0
C1183 C 0.50012 0.78827 0.35609 0.0
C1184 C 0.51168 0.77775 0.34043 0.0
C1185 C 0.51764 0.79811 0.32438 0.0
C1186 C 0.51179 0.82889 0.32394 0.0
C1187 C 0.50016 0.83949 0.33957 0.0
H1188 H 0.52675 0.79004 0.31229 0.0
H1189 H 0.41977 0.89279 0.46581 0.0
H1190 H 0.72908 0.62752 0.89776 0.0
H1191 H 0.67113 0.56643 0.89828 0.0
H1192 H 0.73523 0.5111 0.88781 0.0
H1193 H 0.79321 0.57262 0.88676 0.0
H1194 H 0.67273 0.48279 0.86674 0.0
H1195 H 0.70025 0.5061 0.92948 0.0
H1196 H 0.71704 0.54239 0.95791 0.0
H1197 H 0.61564 0.54857 0.95488 0.0
H1198 H 0.59848 0.51277 0.92628 0.0
H1199 H 0.4962 0.31625 0.9131 0.0
H1200 H 0.56004 0.37062 0.91423 0.0
H1201 H 0.53744 0.4161 0.86624 0.0
H1202 H 0.47321 0.3619 0.86515 0.0
H1203 H 0.58335 0.44415 0.91834 0.0
H1204 H 0.62002 0.46174 0.84154 0.0
H1205 H 0.60595 0.42188 0.8144 0.0
H1206 H 0.58369 0.32727 0.84794 0.0
H1207 H 0.59812 0.36665 0.87523 0.0
C1208 C 0.73085 0.60228 0.89576 0.0
C1209 C 0.76583 0.60466 0.89284 0.0
C1210 C 0.69773 0.56738 0.89611 0.0
C1211 C 0.69882 0.53406 0.8934 0.0
C1212 C 0.73373 0.53638 0.89018 0.0
C1213 C 0.76698 0.57144 0.88994 0.0
C1214 C 0.66325 0.49712 0.89353 0.0
C1215 C 0.65323 0.4743 0.87803 0.0
C1216 C 0.63812 0.48553 0.90842 0.0
C1217 C 0.64823 0.50699 0.92565 0.0
C1218 C 0.68166 0.51544 0.9348 0.0
C1219 C 0.69123 0.53588 0.95096 0.0
C1220 C 0.66746 0.54784 0.95818 0.0
C1221 C 0.63404 0.53931 0.94927 0.0
C1222 C 0.62435 0.5189 0.93309 0.0
C1223 C 0.50483 0.33783 0.90278 0.0
C1224 C 0.47973 0.33497 0.88906 0.0
C1225 C 0.54131 0.36883 0.90345 0.0
C1226 C 0.55365 0.39726 0.89028 0.0
C1227 C 0.52868 0.3943 0.87645 0.0
C1228 C 0.49198 0.36344 0.87588 0.0
C1229 C 0.59227 0.43048 0.89131 0.0
C1230 C 0.60287 0.45259 0.90705 0.0
C1231 C 0.61821 0.44092 0.87681 0.0
C1232 C 0.60978 0.4171 0.86044 0.0
C1233 C 0.61225 0.43247 0.84311 0.0
C1234 C 0.60419 0.40994 0.8277 0.0
C1235 C 0.59381 0.37204 0.82944 0.0
C1236 C 0.59158 0.35659 0.8466 0.0
C1237 C 0.59963 0.37899 0.86205 0.0
H1238 H 0.58757 0.35465 0.8175 0.0
H1239 H 0.67491 0.56367 0.97069 0.0
H1240 H 0.13273 0.73733 0.37254 0.0
H1241 H 0.13523 0.67913 0.37367 0.0
H1242 H 0.22834 0.73034 0.41102 0.0
H1243 H 0.22474 0.7885 0.41065 0.0
H1244 H 0.23269 0.68484 0.3781 0.0
H1245 H 0.15758 0.67719 0.43015 0.0
H1246 H 0.10659 0.68164 0.44557 0.0
H1247 H 0.02504 0.59666 0.41041 0.0
H1248 H 0.07565 0.59214 0.3946 0.0
H1249 H 0.22173 0.51011 0.40165 0.0
H1250 H 0.22828 0.57287 0.4024 0.0
H1251 H 0.11747 0.52773 0.37909 0.0
H1252 H 0.11072 0.46491 0.37847 0.0
H1253 H 0.12582 0.57273 0.40668 0.0
H1254 H 0.19616 0.57867 0.35442 0.0
H1255 H 0.24427 0.57417 0.33634 0.0
H1256 H 0.33167 0.66216 0.36792 0.0
H1257 H 0.28415 0.66632 0.38669 0.0
C1258 C 0.15387 0.73635 0.38098 0.0
C1259 C 0.17897 0.76774 0.3913 0.0
C1260 C 0.15529 0.70308 0.38156 0.0
C1261 C 0.18204 0.7005 0.39236 0.0
C1262 C 0.20773 0.73196 0.40246 0.0
C1263 C 0.20589 0.76525 0.40211 0.0
C1264 C 0.18159 0.66416 0.3935 0.0
C1265 C 0.20986 0.66044 0.38469 0.0
C1266 C 0.15097 0.63215 0.4015 0.0
C1267 C 0.12045 0.63459 0.41109 0.0
C1268 C 0.12881 0.6597 0.4256 0.0
C1269 C 0.09997 0.66219 0.43443 0.0
C1270 C 0.0626 0.63952 0.42894 0.0
C1271 C 0.054 0.61424 0.41464 0.0
C1272 C 0.08275 0.61167 0.40575 0.0
C1273 C 0.19884 0.51366 0.39664 0.0
C1274 C 0.16571 0.4827 0.38999 0.0
C1275 C 0.20266 0.54954 0.39702 0.0
C1276 C 0.17346 0.55513 0.3907 0.0
C1277 C 0.14035 0.52414 0.38406 0.0
C1278 C 0.13656 0.48829 0.38365 0.0
C1279 C 0.17704 0.59309 0.39128 0.0
C1280 C 0.14912 0.59711 0.40032 0.0
C1281 C 0.20771 0.62518 0.38321 0.0
C1282 C 0.23649 0.62237 0.37217 0.0
C1283 C 0.22563 0.59665 0.35773 0.0
C1284 C 0.25283 0.59416 0.34736 0.0
C1285 C 0.29104 0.61763 0.35111 0.0
C1286 C 0.3021 0.6437 0.3652 0.0
C1287 C 0.27504 0.6461 0.37573 0.0
H1288 H 0.31209 0.6158 0.34303 0.0
H1289 H 0.04031 0.64148 0.4358 0.0
H1290 H 0.64193 0.09634 0.90146 0.0
H1291 H 0.58722 0.10451 0.90484 0.0
H1292 H 0.64805 0.21341 0.879 0.0
H1293 H 0.70372 0.20601 0.87652 0.0
H1294 H 0.61035 0.21901 0.90505 0.0
H1295 H 0.57667 0.13134 0.85684 0.0
H1296 H 0.56725 0.07455 0.84085 0.0
H1297 H 0.48609 1.00456 0.88079 0.0
H1298 H 0.49538 0.06095 0.89717 0.0
H1299 H 0.44038 0.22256 0.88365 0.0
H1300 H 0.49931 0.22117 0.88267 0.0
H1301 H 0.45331 0.12805 0.92023 0.0
H1302 H 0.39446 0.12998 0.92167 0.0
H1303 H 0.48347 0.11626 0.88742 0.0
H1304 H 0.52007 0.20873 0.93515 0.0
H1305 H 0.52916 0.26765 0.94864 0.0
H1306 H 0.60394 0.33124 0.90527 0.0
H1307 H 0.59506 0.27259 0.89142 0.0
C1308 C 0.64356 0.12196 0.89644 0.0
C1309 C 0.67688 0.1504 0.88859 0.0
C1310 C 0.61217 0.12656 0.89829 0.0
C1311 C 0.613 0.15925 0.89181 0.0
C1312 C 0.64652 0.18786 0.88405 0.0
C1313 C 0.67825 0.18356 0.88255 0.0
C1314 C 0.57902 0.16353 0.89336 0.0
C1315 C 0.58275 0.19669 0.90093 0.0
C1316 C 0.54272 0.13443 0.88814 0.0
C1317 C 0.53699 0.1004 0.87833 0.0
C1318 C 0.55701 0.10384 0.86229 0.0
C1319 C 0.55166 0.07172 0.85314 0.0
C1320 C 0.52616 0.03597 0.85982 0.0
C1321 C 0.50587 0.03227 0.87564 0.0
C1322 C 0.51114 0.0643 0.88486 0.0
C1323 C 0.44315 0.20246 0.8921 0.0
C1324 C 0.41292 0.17659 0.90288 0.0
C1325 C 0.47679 0.20159 0.89144 0.0
C1326 C 0.48067 0.17454 0.90139 0.0
C1327 C 0.45084 0.14916 0.91246 0.0
C1328 C 0.41734 0.15039 0.91333 0.0
C1329 C 0.51494 0.17126 0.89933 0.0
C1330 C 0.51118 0.13842 0.89153 0.0
C1331 C 0.5512 0.20096 0.9039 0.0
C1332 C 0.55674 0.23626 0.91221 0.0
C1333 C 0.53827 0.23525 0.92843 0.0
C1334 C 0.54344 0.26859 0.93616 0.0
C1335 C 0.56715 0.30314 0.92784 0.0
C1336 C 0.58566 0.30444 0.91173 0.0
C1337 C 0.58063 0.27117 0.90395 0.0
H1338 H 0.57125 0.3289 0.93392 0.0
H1339 H 0.52206 0.01114 0.85272 0.0
H1340 H 0.28654 0.40427 0.36863 0.0
H1341 H 0.34372 0.46575 0.3684 0.0
H1342 H 0.30217 0.50053 0.41377 0.0
H1343 H 0.24435 0.43844 0.41404 0.0
H1344 H 0.34108 0.55885 0.38762 0.0
H1345 H 0.3618 0.47225 0.42243 0.0
H1346 H 0.36023 0.4124 0.42866 0.0
H1347 H 0.43223 0.43089 0.38294 0.0
H1348 H 0.43377 0.49062 0.37626 0.0
H1349 H 0.52542 0.71024 0.40887 0.0
H1350 H 0.4626 0.65446 0.41026 0.0
H1351 H 0.49446 0.60148 0.36886 0.0
H1352 H 0.55776 0.65684 0.36788 0.0
H1353 H 0.45872 0.55365 0.39549 0.0
H1354 H 0.43472 0.63874 0.35973 0.0
H1355 H 0.43986 0.70065 0.35478 0.0
H1356 H 0.37671 0.68669 0.40342 0.0
H1357 H 0.3712 0.62464 0.40865 0.0
C1358 C 0.28937 0.4251 0.37847 0.0
C1359 C 0.26109 0.41657 0.3914 0.0
C1360 C 0.32205 0.46026 0.3783 0.0
C1361 C 0.32747 0.4876 0.39121 0.0
C1362 C 0.29855 0.47985 0.40368 0.0
C1363 C 0.26557 0.44445 0.40382 0.0
C1364 C 0.36457 0.52283 0.3923 0.0
C1365 C 0.36677 0.5578 0.38959 0.0
C1366 C 0.39819 0.52151 0.39469 0.0
C1367 C 0.39764 0.48577 0.39876 0.0
C1368 C 0.37708 0.46343 0.41362 0.0
C1369 C 0.37623 0.42954 0.41725 0.0
C1370 C 0.39606 0.41781 0.40618 0.0
C1371 C 0.41686 0.44 0.39149 0.0
C1372 C 0.41777 0.4739 0.38779 0.0
C1373 C 0.51894 0.6867 0.40003 0.0
C1374 C 0.54639 0.68778 0.38826 0.0
C1375 C 0.48295 0.65492 0.40076 0.0
C1376 C 0.47353 0.62386 0.38949 0.0
C1377 C 0.501 0.62507 0.37767 0.0
C1378 C 0.53711 0.65672 0.37707 0.0
C1379 C 0.43548 0.58966 0.39035 0.0
C1380 C 0.43308 0.5548 0.39352 0.0
C1381 C 0.40185 0.59122 0.38843 0.0
C1382 C 0.40279 0.62721 0.38464 0.0
C1383 C 0.42186 0.64886 0.36934 0.0
C1384 C 0.42491 0.684 0.36651 0.0
C1385 C 0.40892 0.69776 0.37887 0.0
C1386 C 0.38931 0.6761 0.39393 0.0
C1387 C 0.386 0.64084 0.39677 0.0
H1388 H 0.41151 0.72507 0.37671 0.0
H1389 H 0.39536 0.39156 0.409 0.0
H1390 H 0.88777 0.53867 0.86383 0.0
H1391 H 0.87642 0.47402 0.86458 0.0
H1392 H 0.81726 0.45478 0.91532 0.0
H1393 H 0.82882 0.51944 0.91466 0.0
H1394 H 0.86411 0.42717 0.91669 0.0
H1395 H 0.76879 0.41683 0.87649 0.0
H1396 H 0.74193 0.43321 0.85049 0.0
H1397 H 0.80911 0.40984 0.81393 0.0
H1398 H 0.83678 0.3938 0.83974 0.0
H1399 H 0.80067 0.22834 0.91246 0.0
H1400 H 0.79674 0.28642 0.91329 0.0
H1401 H 0.86809 0.32776 0.86609 0.0
H1402 H 0.87249 0.27059 0.86538 0.0
H1403 H 0.80694 0.34051 0.86462 0.0
H1404 H 0.90621 0.35712 0.90593 0.0
H1405 H 0.93187 0.34037 0.93231 0.0
H1406 H 0.85397 0.35086 0.96731 0.0
H1407 H 0.82748 0.36717 0.94107 0.0
C1408 C 0.87234 0.52061 0.87512 0.0
C1409 C 0.85919 0.53406 0.88918 0.0
C1410 C 0.86568 0.4836 0.87551 0.0
C1411 C 0.8456 0.45928 0.88992 0.0
C1412 C 0.83275 0.47289 0.90405 0.0
C1413 C 0.83933 0.50984 0.90364 0.0
C1414 C 0.8386 0.41992 0.89037 0.0
C1415 C 0.85096 0.40802 0.90543 0.0
C1416 C 0.82168 0.39486 0.87567 0.0
C1417 C 0.80511 0.40443 0.86007 0.0
C1418 C 0.77807 0.41547 0.86292 0.0
C1419 C 0.76265 0.42464 0.84821 0.0
C1420 C 0.77387 0.42265 0.83057 0.0
C1421 C 0.80047 0.4114 0.8276 0.0
C1422 C 0.816 0.40222 0.84227 0.0
C1423 C 0.81514 0.24974 0.9022 0.0
C1424 C 0.83709 0.24514 0.88894 0.0
C1425 C 0.81298 0.28288 0.9027 0.0
C1426 C 0.83232 0.31154 0.88979 0.0
C1427 C 0.85292 0.3061 0.87616 0.0
C1428 C 0.85553 0.27345 0.87583 0.0
C1429 C 0.83301 0.34814 0.89077 0.0
C1430 C 0.81955 0.35954 0.87597 0.0
C1431 C 0.84862 0.37262 0.90577 0.0
C1432 C 0.86454 0.36287 0.92152 0.0
C1433 C 0.89431 0.3555 0.91923 0.0
C1434 C 0.90906 0.34616 0.93415 0.0
C1435 C 0.89447 0.34442 0.95146 0.0
C1436 C 0.86518 0.35213 0.95389 0.0
C1437 C 0.85029 0.36143 0.939 0.0
H1438 H 0.90594 0.3372 0.963 0.0
H1439 H 0.7619 0.42976 0.8192 0.0
H1440 H 0.19411 0.30862 0.33214 0.0
H1441 H 0.20084 0.31236 0.29923 0.0
H1442 H 0.17142 0.39975 0.29801 0.0
H1443 H 0.16586 0.39702 0.33101 0.0
H1444 H 0.15309 0.29785 0.27357 0.0
H1445 H 0.21188 0.45747 0.26204 0.0
H1446 H 0.25132 0.51752 0.27795 0.0
H1447 H 0.30591 0.46786 0.30749 0.0
H1448 H 0.26718 0.4077 0.29159 0.0
H1449 H 0.13781 0.32409 0.18046 0.0
H1450 H 0.13431 0.32778 0.21337 0.0
H1451 H 0.25571 0.39026 0.21628 0.0
H1452 H 0.25926 0.38822 0.18326 0.0
H1453 H 0.22996 0.41728 0.23996 0.0
H1454 H 0.20116 0.29171 0.22486 0.0
H1455 H 0.167 0.23084 0.20897 0.0
H1456 H 0.06316 0.21043 0.23313 0.0
H1457 H 0.09667 0.2714 0.24902 0.0
C1458 C 0.18932 0.32884 0.32489 0.0
C1459 C 0.17955 0.3526 0.33423 0.0
C1460 C 0.19306 0.33086 0.30604 0.0
C1461 C 0.18693 0.35652 0.29608 0.0
C1462 C 0.17704 0.38022 0.30537 0.0
C1463 C 0.17376 0.37855 0.32427 0.0
C1464 C 0.19008 0.35776 0.27596 0.0
C1465 C 0.16994 0.324 0.26625 0.0
C1466 C 0.21243 0.39173 0.26633 0.0
C1467 C 0.23633 0.42798 0.27575 0.0
C1468 C 0.23241 0.45942 0.27187 0.0
C1469 C 0.25462 0.49347 0.2809 0.0
C1470 C 0.28101 0.49647 0.29376 0.0
C1471 C 0.28536 0.46547 0.29757 0.0
C1472 C 0.26326 0.43138 0.28857 0.0
C1473 C 0.16374 0.33884 0.18812 0.0
C1474 C 0.19882 0.35554 0.1793 0.0
C1475 C 0.16173 0.34079 0.20695 0.0
C1476 C 0.19476 0.35848 0.21742 0.0
C1477 C 0.2298 0.37631 0.20856 0.0
C1478 C 0.23181 0.37506 0.18967 0.0
C1479 C 0.19287 0.3574 0.23759 0.0
C1480 C 0.21312 0.39115 0.24729 0.0
C1481 C 0.17147 0.32326 0.24726 0.0
C1482 C 0.15138 0.28625 0.23801 0.0
C1483 C 0.17102 0.2743 0.22673 0.0
C1484 C 0.15178 0.23978 0.21773 0.0
C1485 C 0.11292 0.21682 0.22001 0.0
C1486 C 0.09326 0.22826 0.23137 0.0
C1487 C 0.11236 0.26277 0.2404 0.0
H1488 H 0.09805 0.19015 0.213 0.0
H1489 H 0.29813 0.52283 0.30076 0.0
H1490 H 0.79774 0.19661 0.67394 0.0
H1491 H 0.78559 0.1904 0.70666 0.0
H1492 H 0.86876 0.15602 0.71361 0.0
H1493 H 0.87866 0.15947 0.68096 0.0
H1494 H 0.81564 0.11645 0.73449 0.0
H1495 H 0.88316 0.25155 0.72281 0.0
H1496 H 0.8916 0.30892 0.7076 0.0
H1497 H 0.78536 0.28857 0.72864 0.0
H1498 H 0.77621 0.23094 0.74388 0.0
H1499 H 0.86804 0.15835 0.82578 0.0
H1500 H 0.86814 0.16275 0.7928 0.0
H1501 H 0.7683 0.17262 0.79486 0.0
H1502 H 0.76798 0.1684 0.82798 0.0
H1503 H 0.82146 0.22203 0.76981 0.0
H1504 H 0.75884 0.09032 0.78433 0.0
H1505 H 0.75195 0.03355 0.79946 0.0
H1506 H 0.85164 0.04861 0.77278 0.0
H1507 H 0.85945 0.10581 0.75769 0.0
C1508 C 0.81313 0.18748 0.68252 0.0
C1509 C 0.83908 0.17847 0.67496 0.0
C1510 C 0.80646 0.18425 0.70124 0.0
C1511 C 0.82683 0.1735 0.71281 0.0
C1512 C 0.85254 0.16427 0.70511 0.0
C1513 C 0.85827 0.16632 0.68641 0.0
C1514 C 0.82191 0.17182 0.7329 0.0
C1515 C 0.81737 0.13982 0.74215 0.0
C1516 C 0.82285 0.20164 0.74305 0.0
C1517 C 0.82889 0.23685 0.73436 0.0
C1518 C 0.8616 0.25932 0.72417 0.0
C1519 C 0.8665 0.29186 0.71554 0.0
C1520 C 0.83899 0.30234 0.71712 0.0
C1521 C 0.80663 0.28041 0.72742 0.0
C1522 C 0.80161 0.24786 0.73609 0.0
C1523 C 0.84617 0.16168 0.81929 0.0
C1524 C 0.8178 0.16268 0.82958 0.0
C1525 C 0.84624 0.1641 0.8004 0.0
C1526 C 0.81795 0.16753 0.79136 0.0
C1527 C 0.79032 0.16986 0.80157 0.0
C1528 C 0.79012 0.16728 0.8205 0.0
C1529 C 0.81671 0.16737 0.77123 0.0
C1530 C 0.81973 0.19878 0.76205 0.0
C1531 C 0.81478 0.1372 0.76111 0.0
C1532 C 0.80987 0.10251 0.76998 0.0
C1533 C 0.77943 0.08166 0.78178 0.0
C1534 C 0.77534 0.04939 0.79034 0.0
C1535 C 0.80138 0.03752 0.78711 0.0
C1536 C 0.8315 0.05785 0.77528 0.0
C1537 C 0.83575 0.09017 0.7667 0.0
H1538 H 0.79818 0.01254 0.79376 0.0
H1539 H 0.84277 0.32746 0.71038 0.0
H1540 H 0.72841 0.85641 0.17981 0.0
H1541 H 0.72513 0.8487 0.21277 0.0
H1542 H 0.61879 0.8464 0.21332 0.0
H1543 H 0.62193 0.85443 0.18049 0.0
H1544 H 0.66274 0.8903 0.23976 0.0
H1545 H 0.62149 0.76559 0.21885 0.0
H1546 H 0.62456 0.71602 0.20137 0.0
H1547 H 0.7271 0.74094 0.22852 0.0
H1548 H 0.72484 0.79092 0.24608 0.0
H1549 H 0.62685 0.77609 0.32939 0.0
H1550 H 0.62247 0.77925 0.29642 0.0
H1551 H 0.7201 0.89049 0.29634 0.0
H1552 H 0.72487 0.8876 0.32925 0.0
H1553 H 0.67403 0.78801 0.2698 0.0
H1554 H 0.70536 0.94223 0.26419 0.0
H1555 H 0.69498 0.98707 0.28204 0.0
H1556 H 0.59926 0.89518 0.30789 0.0
H1557 H 0.60873 0.84986 0.29003 0.0
C1558 C 0.70429 0.85424 0.18692 0.0
C1559 C 0.67544 0.85603 0.17743 0.0
C1560 C 0.70239 0.84968 0.20578 0.0
C1561 C 0.67156 0.8467 0.21554 0.0
C1562 C 0.64287 0.84868 0.20611 0.0
C1563 C 0.6447 0.85317 0.18729 0.0
C1564 C 0.66936 0.84192 0.23559 0.0
C1565 C 0.66527 0.86795 0.2463 0.0
C1566 C 0.67169 0.81223 0.24419 0.0
C1567 C 0.67318 0.78223 0.23365 0.0
C1568 C 0.64485 0.7607 0.22099 0.0
C1569 C 0.64641 0.7325 0.21109 0.0
C1570 C 0.67607 0.72543 0.21378 0.0
C1571 C 0.70417 0.74648 0.22643 0.0
C1572 C 0.70273 0.77471 0.23639 0.0
C1573 C 0.64732 0.80134 0.3224 0.0
C1574 C 0.67624 0.8316 0.33201 0.0
C1575 C 0.64486 0.80298 0.30352 0.0
C1576 C 0.67091 0.83511 0.29392 0.0
C1577 C 0.69955 0.8655 0.30349 0.0
C1578 C 0.70226 0.86375 0.32232 0.0
C1579 C 0.66841 0.83694 0.27389 0.0
C1580 C 0.67159 0.81037 0.26321 0.0
C1581 C 0.66431 0.86557 0.2653 0.0
C1582 C 0.65803 0.89268 0.27589 0.0
C1583 C 0.68201 0.93162 0.27363 0.0
C1584 C 0.6763 0.95712 0.28376 0.0
C1585 C 0.64656 0.94399 0.29613 0.0
C1586 C 0.62237 0.90533 0.29836 0.0
C1587 C 0.62794 0.87973 0.28825 0.0
H1588 H 0.64222 0.96378 0.30397 0.0
H1589 H 0.67722 0.70358 0.20609 0.0
H1590 H 0.79427 0.60221 0.67871 0.0
H1591 H 0.79656 0.59783 0.71176 0.0
H1592 H 0.86013 0.71907 0.71519 0.0
H1593 H 0.85946 0.72343 0.6823 0.0
H1594 H 0.88902 0.6936 0.73725 0.0
H1595 H 0.76075 0.66173 0.72541 0.0
H1596 H 0.69792 0.62571 0.71141 0.0
H1597 H 0.68281 0.52417 0.73609 0.0
H1598 H 0.74577 0.55953 0.75008 0.0
H1599 H 0.86029 0.72277 0.82857 0.0
H1600 H 0.85375 0.71782 0.79566 0.0
H1601 H 0.81583 0.5992 0.79885 0.0
H1602 H 0.82247 0.60383 0.83191 0.0
H1603 H 0.77377 0.61823 0.77398 0.0
H1604 H 0.90228 0.65384 0.78739 0.0
H1605 H 0.96426 0.69245 0.80183 0.0
H1606 H 0.97757 0.79064 0.77423 0.0
H1607 H 0.91538 0.75271 0.75983 0.0
C1608 C 0.80876 0.62788 0.68655 0.0
C1609 C 0.82671 0.66315 0.67787 0.0
C1610 C 0.80987 0.62538 0.70547 0.0
C1611 C 0.82803 0.65815 0.71613 0.0
C1612 C 0.84601 0.69332 0.70739 0.0
C1613 C 0.84558 0.69578 0.68852 0.0
C1614 C 0.8289 0.65625 0.73633 0.0
C1615 C 0.86365 0.6774 0.74521 0.0
C1616 C 0.79608 0.63443 0.74689 0.0
C1617 C 0.75812 0.6132 0.73863 0.0
C1618 C 0.74412 0.63168 0.72776 0.0
C1619 C 0.70847 0.61139 0.71984 0.0
C1620 C 0.68643 0.57265 0.72281 0.0
C1621 C 0.69994 0.55416 0.73377 0.0
C1622 C 0.73558 0.57431 0.74171 0.0
C1623 C 0.85021 0.69549 0.82236 0.0
C1624 C 0.84212 0.66373 0.83294 0.0
C1625 C 0.8466 0.69276 0.80351 0.0
C1626 C 0.83465 0.65822 0.79479 0.0
C1627 C 0.82516 0.62613 0.80531 0.0
C1628 C 0.82911 0.62889 0.8242 0.0
C1629 C 0.83362 0.6562 0.77468 0.0
C1630 C 0.799 0.63426 0.7659 0.0
C1631 C 0.86643 0.67769 0.76417 0.0
C1632 C 0.90403 0.70048 0.77265 0.0
C1633 C 0.9183 0.68372 0.78451 0.0
C1634 C 0.95349 0.70548 0.79267 0.0
C1635 C 0.9748 0.74399 0.78898 0.0
C1636 C 0.96101 0.76081 0.77708 0.0
C1637 C 0.92581 0.73919 0.76891 0.0
H1638 H 1.00203 0.76079 0.79532 0.0
H1639 H 0.65886 0.55699 0.71666 0.0
H1640 H 0.19485 0.88941 0.17746 0.0
H1641 H 0.20333 0.89517 0.21035 0.0
H1642 H 0.15711 0.77509 0.21466 0.0
H1643 H 0.14974 0.76929 0.18187 0.0
H1644 H 0.15795 0.87117 0.23748 0.0
H1645 H 0.19385 0.75229 0.24968 0.0
H1646 H 0.22594 0.72323 0.23385 0.0
H1647 H 0.29082 0.82454 0.20303 0.0
H1648 H 0.25952 0.85437 0.21885 0.0
H1649 H 0.13648 0.82874 0.33068 0.0
H1650 H 0.13267 0.82371 0.29767 0.0
H1651 H 0.2516 0.86183 0.29507 0.0
H1652 H 0.25513 0.86519 0.32812 0.0
H1653 H 0.21945 0.81159 0.27112 0.0
H1654 H 0.21286 0.92117 0.28623 0.0
H1655 H 0.18888 0.95813 0.3018 0.0
H1656 H 0.08034 0.89006 0.27737 0.0
H1657 H 0.10354 0.85234 0.26184 0.0
C1658 C 0.18668 0.86424 0.1854 0.0
C1659 C 0.17191 0.82893 0.17695 0.0
C1660 C 0.19144 0.86757 0.20423 0.0
C1661 C 0.18137 0.83566 0.21505 0.0
C1662 C 0.166 0.80031 0.20665 0.0
C1663 C 0.16165 0.79702 0.18783 0.0
C1664 C 0.18635 0.83913 0.23512 0.0
C1665 C 0.17146 0.85818 0.24481 0.0
C1666 C 0.20473 0.82299 0.24476 0.0
C1667 C 0.22405 0.80541 0.23533 0.0
C1668 C 0.21508 0.76841 0.23958 0.0
C1669 C 0.23311 0.7518 0.2306 0.0
C1670 C 0.26032 0.77198 0.21741 0.0
C1671 C 0.26965 0.80888 0.21321 0.0
C1672 C 0.25173 0.82564 0.22216 0.0
C1673 C 0.16176 0.83579 0.32308 0.0
C1674 C 0.19615 0.84755 0.33203 0.0
C1675 C 0.15962 0.83315 0.30417 0.0
C1676 C 0.19203 0.84324 0.29374 0.0
C1677 C 0.22617 0.85397 0.30272 0.0
C1678 C 0.22817 0.8559 0.32166 0.0
C1679 C 0.19047 0.84308 0.27352 0.0
C1680 C 0.20598 0.82463 0.26379 0.0
C1681 C 0.17384 0.86093 0.2638 0.0
C1682 C 0.15986 0.88373 0.273 0.0
C1683 C 0.18382 0.91394 0.28426 0.0
C1684 C 0.17037 0.93504 0.29308 0.0
C1685 C 0.13309 0.9264 0.29061 0.0
C1686 C 0.1092 0.8967 0.27929 0.0
C1687 C 0.12249 0.87547 0.27046 0.0
H1688 H 0.12273 0.94275 0.29745 0.0
H1689 H 0.27422 0.75906 0.21046 0.0
H1690 H 0.28583 0.15458 0.82976 0.0
H1691 H 0.28788 0.14983 0.79688 0.0
H1692 H 0.40914 0.218 0.79811 0.0
H1693 H 0.40691 0.22461 0.83097 0.0
H1694 H 0.38657 0.23901 0.77112 0.0
H1695 H 0.35832 0.11715 0.7916 0.0
H1696 H 0.32418 0.05759 0.80865 0.0
H1697 H 0.22259 0.0299 0.7798 0.0
H1698 H 0.25603 0.08953 0.76272 0.0
H1699 H 0.40857 0.18299 0.68139 0.0
H1700 H 0.40925 0.18925 0.71445 0.0
H1701 H 0.29114 0.15455 0.71379 0.0
H1702 H 0.2903 0.1489 0.68077 0.0
H1703 H 0.31419 0.116 0.74001 0.0
H1704 H 0.34642 0.24099 0.71976 0.0
H1705 H 0.3841 0.2997 0.70251 0.0
H1706 H 0.48372 0.3195 0.731 0.0
H1707 H 0.44669 0.26057 0.74825 0.0
C1708 C 0.31294 0.16842 0.82302 0.0
C1709 C 0.34623 0.18979 0.83295 0.0
C1710 C 0.31413 0.16551 0.80419 0.0
C1711 C 0.34875 0.18283 0.79492 0.0
C1712 C 0.38205 0.20428 0.80487 0.0
C1713 C 0.38078 0.20797 0.82367 0.0
C1714 C 0.35011 0.17923 0.77485 0.0
C1715 C 0.37119 0.21196 0.76442 0.0
C1716 C 0.32975 0.14406 0.76589 0.0
C1717 C 0.30962 0.10797 0.77599 0.0
C1718 C 0.32865 0.09846 0.78896 0.0
C1719 C 0.30943 0.06467 0.79862 0.0
C1720 C 0.27122 0.04002 0.79534 0.0
C1721 C 0.25218 0.04904 0.78234 0.0
C1722 C 0.27127 0.0828 0.77264 0.0
C1723 C 0.38277 0.17681 0.68828 0.0
C1724 C 0.3494 0.16555 0.67845 0.0
C1725 C 0.38324 0.18045 0.70715 0.0
C1726 C 0.35024 0.17236 0.71653 0.0
C1727 C 0.31687 0.16089 0.70678 0.0
C1728 C 0.31652 0.15789 0.68791 0.0
C1729 C 0.35041 0.17565 0.73653 0.0
C1730 C 0.32966 0.14288 0.74686 0.0
C1731 C 0.37165 0.21059 0.74541 0.0
C1732 C 0.39386 0.24616 0.73515 0.0
C1733 C 0.37642 0.25769 0.72223 0.0
C1734 C 0.39764 0.29104 0.71248 0.0
C1735 C 0.4363 0.31327 0.71561 0.0
C1736 C 0.45379 0.30223 0.72856 0.0
C1737 C 0.43269 0.26887 0.73834 0.0
H1738 H 0.45269 0.33908 0.70804 0.0
H1739 H 0.25638 0.0139 0.80284 0.0
H1740 H 0.36392 0.27829 0.94326 0.0
H1741 H 0.34587 0.29534 0.97161 0.0
H1742 H 0.25355 0.18156 0.97742 0.0
H1743 H 0.27055 0.1648 0.94858 0.0
H1744 H 0.22874 0.22508 0.98394 0.0
H1745 H 0.33641 0.22269 0.00563 0.0
H1746 H 0.40244 0.23708 0.00626 0.0
H1747 H 0.44002 0.35479 0.01202 0.0
H1748 H 0.37423 0.34118 0.01118 0.0
H1749 H 0.18138 0.2561 0.07211 0.0
H1750 H 0.20053 0.23534 0.04528 0.0
H1751 H 0.29075 0.34884 0.036 0.0
H1752 H 0.27219 0.36981 0.0631 0.0
H1753 H 0.31641 0.30163 0.03278 0.0
H1754 H 0.21091 0.30671 0.00877 0.0
H1755 H 0.14562 0.29408 0.00626 0.0
H1756 H 0.10538 0.1755 1.00262 0.0
H1757 H 0.17041 0.18738 0.00536 0.0
C1758 C 0.34014 0.25669 0.9507 0.0
C1759 C 0.31875 0.22012 0.94364 0.0
C1760 C 0.32992 0.26645 0.96703 0.0
C1761 C 0.29861 0.23967 0.97694 0.0
C1762 C 0.27785 0.20282 0.97013 0.0
C1763 C 0.28767 0.19321 0.95363 0.0
C1764 C 0.28578 0.25086 0.99356 0.0
C1765 C 0.24794 0.2417 0.99462 0.0
C1766 C 0.31074 0.27262 0.00761 0.0
C1767 C 0.35036 0.28092 0.00819 0.0
C1768 C 0.35876 0.25167 0.0069 0.0
C1769 C 0.39615 0.25969 0.00732 0.0
C1770 C 0.42541 0.29683 0.00914 0.0
C1771 C 0.41733 0.32603 0.0106 0.0
C1772 C 0.37999 0.31818 0.01017 0.0
C1773 C 0.20497 0.27687 0.06424 0.0
C1774 C 0.22512 0.31474 0.06979 0.0
C1775 C 0.21589 0.26489 0.04883 0.0
C1776 C 0.24699 0.29051 0.03847 0.0
C1777 C 0.26671 0.32848 0.04376 0.0
C1778 C 0.25588 0.34049 0.05923 0.0
C1779 C 0.25977 0.27738 0.02256 0.0
C1780 C 0.29743 0.28566 0.02185 0.0
C1781 C 0.23479 0.2553 0.00861 0.0
C1782 C 0.19551 0.24791 0.00756 0.0
C1783 C 0.1881 0.2779 0.00769 0.0
C1784 C 0.15115 0.27089 0.00615 0.0
C1785 C 0.12136 0.234 1.00436 0.0
C1786 C 0.12847 0.20405 1.00407 0.0
C1787 C 0.16537 0.21091 0.00562 0.0
H1788 H 0.09278 0.22864 1.00313 0.0
H1789 H 0.45434 0.30298 0.00945 0.0
H1790 H 0.12382 0.37242 0.45051 0.0
H1791 H 0.08468 0.35172 0.47774 0.0
H1792 H 0.06482 0.23901 0.47009 0.0
H1793 H 0.1036 0.25931 0.44277 0.0
H1794 H 0.99992 0.23853 0.47653 0.0
H1795 H 0.122 0.29436 0.5039 0.0
H1796 H 0.18745 0.34414 0.5097 0.0
H1797 H 0.14834 0.41741 0.5289 0.0
H1798 H 0.08264 0.36822 0.52297 0.0
H1799 H 0.91837 0.16753 0.56391 0.0
H1800 H 0.95841 0.18725 0.5369 0.0
H1801 H 0.97325 0.29866 0.54139 0.0
H1802 H 0.93306 0.2792 0.56829 0.0
H1803 H 0.04085 0.29909 0.53675 0.0
H1804 H 0.91923 0.2439 0.50928 0.0
H1805 H 0.85365 0.19464 0.50338 0.0
H1806 H 0.89172 0.12056 0.48425 0.0
H1807 H 0.95763 0.16918 0.49031 0.0
C1808 C 0.11161 0.34333 0.45473 0.0
C1809 C 0.11708 0.31762 0.44442 0.0
C1810 C 0.08922 0.33153 0.47035 0.0
C1811 C 0.07188 0.2938 0.47604 0.0
C1812 C 0.07786 0.26824 0.46598 0.0
C1813 C 0.10033 0.28003 0.4504 0.0
C1814 C 0.04636 0.28071 0.49205 0.0
C1815 C 1.00907 0.25137 0.48977 0.0
C1816 C 0.05794 0.29808 0.50923 0.0
C1817 C 0.09741 0.32772 0.51282 0.0
C1818 C 0.12737 0.32119 0.50921 0.0
C1819 C 0.16451 0.34928 0.51255 0.0
C1820 C 0.17205 0.38395 0.51962 0.0
C1821 C 0.14245 0.39056 0.5234 0.0
C1822 C 0.10525 0.36257 0.52007 0.0
C1823 C 0.9298 0.19612 0.55906 0.0
C1824 C 0.92234 0.22172 0.56827 0.0
C1825 C 0.95268 0.20734 0.5436 0.0
C1826 C 0.9688 0.24443 0.53712 0.0
C1827 C 0.96114 0.26993 0.54617 0.0
C1828 C 0.93792 0.25863 0.56149 0.0
C1829 C 0.99451 0.25696 0.52121 0.0
C1830 C 0.03179 0.28618 0.52352 0.0
C1831 C 0.98293 0.23949 0.50407 0.0
C1832 C 0.94336 0.21004 0.50048 0.0
C1833 C 0.91363 0.21696 0.50401 0.0
C1834 C 0.8764 0.18918 0.50059 0.0
C1835 C 0.86854 0.15444 0.49351 0.0
C1836 C 0.89791 0.14745 0.48978 0.0
C1837 C 0.9352 0.17512 0.4932 0.0
H1838 H 0.8397 0.13297 0.49085 0.0
H1839 H 0.20083 0.40566 0.5222 0.0
H1840 H 0.7585 0.91938 0.06526 0.0
H1841 H 0.77623 0.95694 0.03753 0.0
H1842 H 0.66318 0.93795 0.03258 0.0
H1843 H 0.64544 0.90112 0.06062 0.0
H1844 H 0.75357 0.94442 1.00295 0.0
H1845 H 0.66923 0.02153 0.01377 0.0
H1846 H 0.63985 0.03812 0.03852 0.0
H1847 H 0.71682 0.03399 0.07667 0.0
H1848 H 0.74686 0.01783 0.05211 0.0
H1849 H 0.73666 0.09262 0.9415 0.0
H1850 H 0.71714 0.05077 0.96769 0.0
H1851 H 0.82488 0.05584 0.96797 0.0
H1852 H 0.84399 0.09656 0.94127 0.0
H1853 H 0.7369 0.05603 1.00011 0.0
H1854 H 0.82581 0.98838 0.98316 0.0
H1855 H 0.84347 0.96158 0.95752 0.0
H1856 H 0.74026 0.93449 0.93044 0.0
H1857 H 0.72313 0.96297 0.95537 0.0
C1858 C 0.73715 0.9226 0.05814 0.0
C1859 C 0.70052 0.90729 0.06526 0.0
C1860 C 0.74741 0.94422 0.04227 0.0
C1861 C 0.72128 0.95094 0.0331 0.0
C1862 C 0.6841 0.9339 0.0396 0.0
C1863 C 0.67392 0.91261 0.0556 0.0
C1864 C 0.73344 0.97674 0.01713 0.0
C1865 C 0.75034 0.96911 1.00246 0.0
C1866 C 0.728 0.00827 0.01612 0.0
C1867 C 0.71033 0.01832 0.03107 0.0
C1868 C 0.68007 0.02438 0.02742 0.0
C1869 C 0.66323 0.03367 0.04142 0.0
C1870 C 0.67644 0.03709 0.05916 0.0
C1871 C 0.70659 0.03134 0.06292 0.0
C1872 C 0.72358 0.02216 0.04895 0.0
C1873 C 0.75639 0.0851 0.94718 0.0
C1874 C 0.79199 0.09813 0.93923 0.0
C1875 C 0.74508 0.06094 0.96218 0.0
C1876 C 0.76912 0.0493 0.96974 0.0
C1877 C 0.80519 0.06326 0.96216 0.0
C1878 C 0.81635 0.08708 0.94699 0.0
C1879 C 0.75673 0.02352 0.98581 0.0
C1880 C 0.74006 0.03132 1.00058 0.0
C1881 C 0.76122 0.99148 0.98674 0.0
C1882 C 0.77346 0.97814 0.97097 0.0
C1883 C 0.8073 0.97731 0.97154 0.0
C1884 C 0.81729 0.96201 0.9571 0.0
C1885 C 0.79318 0.94666 0.94225 0.0
C1886 C 0.75935 0.94715 0.9417 0.0
C1887 C 0.74966 0.96321 0.95589 0.0
H1888 H 0.80063 0.93428 0.93121 0.0
H1889 H 0.66332 0.04421 0.06999 0.0
H1890 H 0.7504 0.64953 0.56325 0.0
H1891 H 0.73406 0.67148 0.53577 0.0
H1892 H 0.837 0.7781 0.54001 0.0
H1893 H 0.85374 0.75638 0.56746 0.0
H1894 H 0.72153 0.7304 0.53256 0.0
H1895 H 0.86517 0.81411 0.49665 0.0
H1896 H 0.92488 0.81365 0.49356 0.0
H1897 H 0.86705 0.69474 0.50402 0.0
H1898 H 0.80694 0.69438 0.50692 0.0
H1899 H 0.768 0.85081 0.44282 0.0
H1900 H 0.7878 0.83302 0.47061 0.0
H1901 H 0.68219 0.72835 0.47216 0.0
H1902 H 0.66181 0.7463 0.44478 0.0
H1903 H 0.80076 0.77804 0.47737 0.0
H1904 H 0.65697 0.69631 0.51459 0.0
H1905 H 0.59828 0.69862 0.51801 0.0
H1906 H 0.65791 0.81676 0.50563 0.0
H1907 H 0.71702 0.81528 0.50238 0.0
C1908 C 0.76992 0.67746 0.55823 0.0
C1909 C 0.80349 0.7011 0.56762 0.0
C1910 C 0.76039 0.69005 0.54255 0.0
C1911 C 0.78429 0.72641 0.53577 0.0
C1912 C 0.81826 0.74978 0.54484 0.0
C1913 C 0.82779 0.73726 0.56057 0.0
C1914 C 0.77283 0.74032 0.51969 0.0
C1915 C 0.73861 0.74036 0.52039 0.0
C1916 C 0.79573 0.75458 0.50406 0.0
C1917 C 0.83164 0.75434 0.50222 0.0
C1918 C 0.8652 0.78785 0.49825 0.0
C1919 C 0.89911 0.78773 0.49653 0.0
C1920 C 0.89978 0.75421 0.49866 0.0
C1921 C 0.86652 0.72071 0.50245 0.0
C1922 C 0.83253 0.72067 0.50417 0.0
C1923 C 0.7487 0.82426 0.44923 0.0
C1924 C 0.71312 0.80016 0.44158 0.0
C1925 C 0.76019 0.81402 0.46508 0.0
C1926 C 0.7364 0.77948 0.47367 0.0
C1927 C 0.70082 0.75551 0.46609 0.0
C1928 C 0.6892 0.76582 0.45034 0.0
C1929 C 0.74919 0.7678 0.49013 0.0
C1930 C 0.78368 0.76823 0.48954 0.0
C1931 C 0.7267 0.75428 0.50595 0.0
C1932 C 0.69135 0.75557 0.50807 0.0
C1933 C 0.65758 0.72281 0.51267 0.0
C1934 C 0.62424 0.72397 0.51457 0.0
C1935 C 0.62434 0.75779 0.51198 0.0
C1936 C 0.65783 0.79055 0.50756 0.0
C1937 C 0.69126 0.78955 0.50566 0.0
H1938 H 0.59849 0.75862 0.51345 0.0
H1939 H 0.92606 0.75418 0.49734 0.0
H1940 H 0.92064 0.65131 0.94405 0.0
H1941 H 0.95819 0.67059 0.97169 0.0
H1942 H 0.95857 0.77593 0.97103 0.0
H1943 H 0.9217 0.75724 0.94304 0.0
H1944 H 0.02694 0.78825 0.97706 0.0
H1945 H 0.90656 0.70574 1.00255 0.0
H1946 H 0.84578 0.64704 0.00613 0.0
H1947 H 0.90369 0.58669 0.01841 0.0
H1948 H 0.96487 0.64496 0.01466 0.0
H1949 H 0.10532 0.84595 0.06485 0.0
H1950 H 0.06655 0.82705 0.03758 0.0
H1951 H 0.06563 0.72146 0.03724 0.0
H1952 H 0.10418 0.73995 0.06469 0.0
H1953 H 0.99609 0.70995 0.03244 0.0
H1954 H 0.11637 0.79041 0.00616 0.0
H1955 H 0.17765 0.84781 1.00119 0.0
H1956 H 0.12155 0.90977 0.9886 0.0
H1957 H 0.05991 0.85288 0.99379 0.0
C1958 C 0.92827 0.67844 0.94984 0.0
C1959 C 0.91795 0.70264 0.94125 0.0
C1960 C 0.94969 0.68938 0.96576 0.0
C1961 C 0.96098 0.7246 0.97364 0.0
C1962 C 0.95017 0.74857 0.96528 0.0
C1963 C 0.92895 0.73777 0.94926 0.0
C1964 C 0.98573 0.73713 0.98999 0.0
C1965 C 0.02002 0.77121 0.98917 0.0
C1966 C 0.97705 0.71477 0.00585 0.0
C1967 C 0.94031 0.67967 0.00815 0.0
C1968 C 0.90635 0.6799 0.00587 0.0
C1969 C 0.87182 0.64671 0.00796 0.0
C1970 C 0.87088 0.61314 0.01245 0.0
C1971 C 0.90447 0.61271 0.01491 0.0
C1972 C 0.93908 0.64582 0.01282 0.0
C1973 C 0.09736 0.81887 0.05889 0.0
C1974 C 0.10803 0.79453 0.06704 0.0
C1975 C 0.07517 0.80813 0.04322 0.0
C1976 C 0.06321 0.77285 0.03525 0.0
C1977 C 0.07442 0.74878 0.04313 0.0
C1978 C 0.0967 0.75954 0.0588 0.0
C1979 C 0.0378 0.76057 0.01917 0.0
C1980 C 1.00322 0.7267 0.02016 0.0
C1981 C 0.04642 0.78291 1.00331 0.0
C1982 C 0.0835 0.81747 1.00064 0.0
C1983 C 0.11709 0.81638 1.00257 0.0
C1984 C 0.1519 0.84881 0.99966 0.0
C1985 C 0.1535 0.88245 0.99465 0.0
C1986 C 0.12028 0.88372 0.99253 0.0
C1987 C 0.08539 0.85139 0.99546 0.0
H1988 H 0.18048 0.90751 0.99236 0.0
H1989 H 0.84412 0.58747 0.01406 0.0
H1990 H 0.18336 0.92595 0.4413 0.0
H1991 H 0.20126 0.9642 0.4687 0.0
H1992 H 0.30305 0.95801 0.47236 0.0
H1993 H 0.28505 0.91913 0.44506 0.0
H1994 H 0.27288 0.94988 0.50509 0.0
H1995 H 0.30984 0.04496 0.45816 0.0
H1996 H 0.30157 0.07429 0.43072 0.0
H1997 H 0.20333 0.06984 0.45394 0.0
H1998 H 0.21197 0.04163 0.48187 0.0
H1999 H 0.37249 0.10089 0.56643 0.0
H2000 H 0.35333 0.06238 0.539 0.0
H2001 H 0.24903 0.06411 0.5381 0.0
H2002 H 0.26795 0.10274 0.56545 0.0
H2003 H 0.27924 0.07394 0.5043 0.0
H2004 H 0.24953 0.98662 0.55349 0.0
H2005 H 0.26213 0.96078 0.58114 0.0
H2006 H 0.34829 0.95028 0.55326 0.0
H2007 H 0.33627 0.97608 0.52544 0.0
C2008 C 0.20945 0.93241 0.44796 0.0
C2009 C 0.23273 0.91935 0.44088 0.0
C2010 C 0.21984 0.95466 0.4636 0.0
C2011 C 0.25389 0.96466 0.47249 0.0
C2012 C 0.27671 0.95084 0.46574 0.0
C2013 C 0.26632 0.92854 0.4501 0.0
C2014 C 0.26565 0.98947 0.4888 0.0
C2015 C 0.27472 0.9772 0.50483 0.0
C2016 C 0.26726 0.02478 0.48873 0.0
C2017 C 0.26135 0.04096 0.47196 0.0
C2018 C 0.28639 0.05011 0.45735 0.0
C2019 C 0.2817 0.06665 0.44175 0.0
C2020 C 0.2517 0.07364 0.44048 0.0
C2021 C 0.22654 0.06441 0.45493 0.0
C2022 C 0.23149 0.04842 0.47071 0.0
C2023 C 0.34568 0.09354 0.56029 0.0
C2024 C 0.3218 0.105 0.56822 0.0
C2025 C 0.33461 0.07121 0.54467 0.0
C2026 C 0.29945 0.05982 0.53662 0.0
C2027 C 0.2762 0.07238 0.54409 0.0
C2028 C 0.28714 0.09455 0.55976 0.0
C2029 C 0.28673 0.03448 0.52054 0.0
C2030 C 0.27733 0.04658 0.50459 0.0
C2031 C 0.28493 0.99906 0.52071 0.0
C2032 C 0.29223 0.98359 0.53743 0.0
C2033 C 0.27135 0.97905 0.55329 0.0
C2034 C 0.27833 0.96437 0.56898 0.0
C2035 C 0.30611 0.9541 0.56898 0.0
C2036 C 0.32683 0.95831 0.55325 0.0
C2037 C 0.31987 0.97285 0.5375 0.0
H2038 H 0.31148 0.94277 0.58115 0.0
H2039 H 0.24802 0.08632 0.42834 0.0
loop_
_geom_bond_atom_site_label_1
_geom_bond_atom_site_label_2
_geom_bond_distance
_geom_bond_site_symmetry_2
_ccdc_geom_bond_type
Tb0 O3 2.453 . S
Tb0 O4 2.596 . S
Tb0 O5 2.374 . S
Tb0 O13 2.343 . S
Tb0 O15 2.353 . S
Tb0 O17 2.427 . S
Tb0 O18 2.513 . S
C1 O5 1.251 . S
C1 O7 1.263 . S
Tb2 O4 2.343 . S
Tb2 O7 2.353 . S
Tb2 O10 2.427 . S
Tb2 O11 2.513 . S
Tb2 O12 2.453 . S
Tb2 O13 2.596 . S
Tb2 O14 2.374 . S
O3 Tb0 2.453 . S
O3 C19 1.245 . S
O4 Tb0 2.596 . S
O4 Tb2 2.343 . S
O4 C19 1.259 . S
O5 Tb0 2.374 . S
O5 C1 1.251 . S
C6 O10 1.275 . S
C6 O11 1.246 . S
O7 C1 1.263 . S
O7 Tb2 2.353 . S
C8 O12 1.245 . S
C8 O13 1.259 . S
C9 O14 1.250 . S
C9 O15 1.263 . S
O10 Tb2 2.427 . S
O10 C6 1.275 . S
O11 Tb2 2.513 . S
O11 C6 1.246 . S
O12 Tb2 2.453 . S
O12 C8 1.245 . S
O13 Tb0 2.343 . S
O13 Tb2 2.596 . S
O13 C8 1.259 . S
O14 Tb2 2.374 . S
O14 C9 1.250 . S
O15 Tb0 2.353 . S
O15 C9 1.263 . S
C16 O17 1.275 . S
C16 O18 1.246 . S
O17 Tb0 2.427 . S
O17 C16 1.275 . S
O18 Tb0 2.513 . S
O18 C16 1.246 . S
C19 O3 1.245 . S
C19 O4 1.259 . S
Tb20 O23 2.453 . S
Tb20 O24 2.596 . S
Tb20 O25 2.374 . S
Tb20 O33 2.343 . S
Tb20 O35 2.353 . S
Tb20 O37 2.427 . S
Tb20 O38 2.513 . S
C21 O25 1.251 . S
C21 O27 1.263 . S
Tb22 O24 2.343 . S
Tb22 O27 2.353 . S
Tb22 O30 2.427 . S
Tb22 O31 2.513 . S
Tb22 O32 2.453 . S
Tb22 O33 2.596 . S
Tb22 O34 2.374 . S
O23 Tb20 2.453 . S
O23 C39 1.245 . S
O24 Tb20 2.596 . S
O24 Tb22 2.343 . S
O24 C39 1.259 . S
O25 Tb20 2.374 . S
O25 C21 1.251 . S
C26 O30 1.275 . S
C26 O31 1.246 . S
O27 C21 1.263 . S
O27 Tb22 2.353 . S
C28 O32 1.245 . S
C28 O33 1.259 . S
C29 O34 1.250 . S
C29 O35 1.263 . S
O30 Tb22 2.427 . S
O30 C26 1.275 . S
O31 Tb22 2.513 . S
O31 C26 1.246 . S
O32 Tb22 2.453 . S
O32 C28 1.245 . S
O33 Tb20 2.343 . S
O33 Tb22 2.596 . S
O33 C28 1.259 . S
O34 Tb22 2.374 . S
O34 C29 1.250 . S
O35 Tb20 2.353 . S
O35 C29 1.263 . S
C36 O37 1.275 . S
C36 O38 1.246 . S
O37 Tb20 2.427 . S
O37 C36 1.275 . S
O38 Tb20 2.513 . S
O38 C36 1.246 . S
C39 O23 1.245 . S
C39 O24 1.259 . S
Tb40 O43 2.453 . S
Tb40 O44 2.596 . S
Tb40 O45 2.374 . S
Tb40 O53 2.343 . S
Tb40 O55 2.353 . S
Tb40 O57 2.427 . S
Tb40 O58 2.513 . S
C41 O45 1.251 . S
C41 O47 1.263 . S
Tb42 O44 2.343 . S
Tb42 O47 2.353 . S
Tb42 O50 2.427 . S
Tb42 O51 2.513 . S
Tb42 O52 2.453 . S
Tb42 O53 2.596 . S
Tb42 O54 2.374 . S
O43 Tb40 2.453 . S
O43 C59 1.245 . S
O44 Tb40 2.596 . S
O44 Tb42 2.343 . S
O44 C59 1.259 . S
O45 Tb40 2.374 . S
O45 C41 1.251 . S
C46 O50 1.275 . S
C46 O51 1.246 . S
O47 C41 1.263 . S
O47 Tb42 2.353 . S
C48 O52 1.245 . S
C48 O53 1.259 . S
C49 O54 1.250 . S
C49 O55 1.263 . S
O50 Tb42 2.427 . S
O50 C46 1.275 . S
O51 Tb42 2.513 . S
O51 C46 1.246 . S
O52 Tb42 2.453 . S
O52 C48 1.245 . S
O53 Tb40 2.343 . S
O53 Tb42 2.596 . S
O53 C48 1.259 . S
O54 Tb42 2.374 . S
O54 C49 1.250 . S
O55 Tb40 2.353 . S
O55 C49 1.263 . S
C56 O57 1.275 . S
C56 O58 1.246 . S
O57 Tb40 2.427 . S
O57 C56 1.275 . S
O58 Tb40 2.513 . S
O58 C56 1.246 . S
C59 O43 1.245 . S
C59 O44 1.259 . S
Tb60 O63 2.453 . S
Tb60 O64 2.596 . S
Tb60 O65 2.374 . S
Tb60 O73 2.343 . S
Tb60 O75 2.353 . S
Tb60 O77 2.427 . S
Tb60 O78 2.513 . S
C61 O65 1.251 . S
C61 O67 1.263 . S
Tb62 O64 2.343 . S
Tb62 O67 2.353 . S
Tb62 O70 2.427 . S
Tb62 O71 2.513 . S
Tb62 O72 2.453 . S
Tb62 O73 2.596 . S
Tb62 O74 2.374 . S
O63 Tb60 2.453 . S
O63 C79 1.245 . S
O64 Tb60 2.596 . S
O64 Tb62 2.343 . S
O64 C79 1.259 . S
O65 Tb60 2.374 . S
O65 C61 1.251 . S
C66 O70 1.275 . S
C66 O71 1.246 . S
O67 C61 1.263 . S
O67 Tb62 2.353 . S
C68 O72 1.245 . S
C68 O73 1.259 . S
C69 O74 1.250 . S
C69 O75 1.263 . S
O70 Tb62 2.427 . S
O70 C66 1.275 . S
O71 Tb62 2.513 . S
O71 C66 1.246 . S
O72 Tb62 2.453 . S
O72 C68 1.245 . S
O73 Tb60 2.343 . S
O73 Tb62 2.596 . S
O73 C68 1.259 . S
O74 Tb62 2.374 . S
O74 C69 1.250 . S
O75 Tb60 2.353 . S
O75 C69 1.263 . S
C76 O77 1.275 . S
C76 O78 1.246 . S
O77 Tb60 2.427 . S
O77 C76 1.275 . S
O78 Tb60 2.513 . S
O78 C76 1.246 . S
C79 O63 1.245 . S
C79 O64 1.259 . S
Tb80 O83 2.453 . S
Tb80 O84 2.596 . S
Tb80 O85 2.374 . S
Tb80 O93 2.343 . S
Tb80 O95 2.353 . S
Tb80 O97 2.427 . S
Tb80 O98 2.513 . S
C81 O85 1.251 . S
C81 O87 1.263 . S
Tb82 O84 2.343 . S
Tb82 O87 2.353 . S
Tb82 O90 2.427 . S
Tb82 O91 2.513 . S
Tb82 O92 2.453 . S
Tb82 O93 2.596 . S
Tb82 O94 2.374 . S
O83 Tb80 2.453 . S
O83 C99 1.245 . S
O84 Tb80 2.596 . S
O84 Tb82 2.343 . S
O84 C99 1.259 . S
O85 Tb80 2.374 . S
O85 C81 1.251 . S
C86 O90 1.275 . S
C86 O91 1.246 . S
O87 C81 1.263 . S
O87 Tb82 2.353 . S
C88 O92 1.245 . S
C88 O93 1.259 . S
C89 O94 1.250 . S
C89 O95 1.263 . S
O90 Tb82 2.427 . S
O90 C86 1.275 . S
O91 Tb82 2.513 . S
O91 C86 1.246 . S
O92 Tb82 2.453 . S
O92 C88 1.245 . S
O93 Tb80 2.343 . S
O93 Tb82 2.596 . S
O93 C88 1.259 . S
O94 Tb82 2.374 . S
O94 C89 1.250 . S
O95 Tb80 2.353 . S
O95 C89 1.263 . S
C96 O97 1.275 . S
C96 O98 1.246 . S
O97 Tb80 2.427 . S
O97 C96 1.275 . S
O98 Tb80 2.513 . S
O98 C96 1.246 . S
C99 O83 1.245 . S
C99 O84 1.259 . S
Tb100 O103 2.453 . S
Tb100 O104 2.596 . S
Tb100 O105 2.374 . S
Tb100 O113 2.343 . S
Tb100 O115 2.353 . S
Tb100 O117 2.427 . S
Tb100 O118 2.513 . S
C101 O105 1.251 . S
C101 O107 1.263 . S
Tb102 O104 2.343 . S
Tb102 O107 2.353 . S
Tb102 O110 2.427 . S
Tb102 O111 2.513 . S
Tb102 O112 2.453 . S
Tb102 O113 2.596 . S
Tb102 O114 2.374 . S
O103 Tb100 2.453 . S
O103 C119 1.245 . S
O104 Tb100 2.596 . S
O104 Tb102 2.343 . S
O104 C119 1.259 . S
O105 Tb100 2.374 . S
O105 C101 1.251 . S
C106 O110 1.275 . S
C106 O111 1.246 . S
O107 C101 1.263 . S
O107 Tb102 2.353 . S
C108 O112 1.245 . S
C108 O113 1.259 . S
C109 O114 1.250 . S
C109 O115 1.263 . S
O110 Tb102 2.427 . S
O110 C106 1.275 . S
O111 Tb102 2.513 . S
O111 C106 1.246 . S
O112 Tb102 2.453 . S
O112 C108 1.245 . S
O113 Tb100 2.343 . S
O113 Tb102 2.596 . S
O113 C108 1.259 . S
O114 Tb102 2.374 . S
O114 C109 1.250 . S
O115 Tb100 2.353 . S
O115 C109 1.263 . S
C116 O117 1.275 . S
C116 O118 1.246 . S
O117 Tb100 2.427 . S
O117 C116 1.275 . S
O118 Tb100 2.513 . S
O118 C116 1.246 . S
C119 O103 1.245 . S
C119 O104 1.259 . S
Tb120 O123 2.453 . S
Tb120 O124 2.596 . S
Tb120 O125 2.374 . S
Tb120 O133 2.343 . S
Tb120 O135 2.353 . S
Tb120 O137 2.427 . S
Tb120 O138 2.513 . S
C121 O125 1.251 . S
C121 O127 1.263 . S
Tb122 O124 2.343 . S
Tb122 O127 2.353 . S
Tb122 O130 2.427 . S
Tb122 O131 2.513 . S
Tb122 O132 2.453 . S
Tb122 O133 2.596 . S
Tb122 O134 2.374 . S
O123 Tb120 2.453 . S
O123 C139 1.245 . S
O124 Tb120 2.596 . S
O124 Tb122 2.343 . S
O124 C139 1.259 . S
O125 Tb120 2.374 . S
O125 C121 1.251 . S
C126 O130 1.275 . S
C126 O131 1.246 . S
O127 C121 1.263 . S
O127 Tb122 2.353 . S
C128 O132 1.245 . S
C128 O133 1.259 . S
C129 O134 1.250 . S
C129 O135 1.263 . S
O130 Tb122 2.427 . S
O130 C126 1.275 . S
O131 Tb122 2.513 . S
O131 C126 1.246 . S
O132 Tb122 2.453 . S
O132 C128 1.245 . S
O133 Tb120 2.343 . S
O133 Tb122 2.596 . S
O133 C128 1.259 . S
O134 Tb122 2.374 . S
O134 C129 1.250 . S
O135 Tb120 2.353 . S
O135 C129 1.263 . S
C136 O137 1.275 . S
C136 O138 1.246 . S
O137 Tb120 2.427 . S
O137 C136 1.275 . S
O138 Tb120 2.513 . S
O138 C136 1.246 . S
C139 O123 1.245 . S
C139 O124 1.259 . S
Tb140 O143 2.453 . S
Tb140 O144 2.596 . S
Tb140 O145 2.374 . S
Tb140 O153 2.343 . S
Tb140 O155 2.353 . S
Tb140 O157 2.427 . S
Tb140 O158 2.513 . S
C141 O145 1.251 . S
C141 O147 1.263 . S
Tb142 O144 2.343 . S
Tb142 O147 2.353 . S
Tb142 O150 2.427 . S
Tb142 O151 2.513 . S
Tb142 O152 2.453 . S
Tb142 O153 2.596 . S
Tb142 O154 2.374 . S
O143 Tb140 2.453 . S
O143 C159 1.245 . S
O144 Tb140 2.596 . S
O144 Tb142 2.343 . S
O144 C159 1.259 . S
O145 Tb140 2.374 . S
O145 C141 1.251 . S
C146 O150 1.275 . S
C146 O151 1.246 . S
O147 C141 1.263 . S
O147 Tb142 2.353 . S
C148 O152 1.245 . S
C148 O153 1.259 . S
C149 O154 1.250 . S
C149 O155 1.263 . S
O150 Tb142 2.427 . S
O150 C146 1.275 . S
O151 Tb142 2.513 . S
O151 C146 1.246 . S
O152 Tb142 2.453 . S
O152 C148 1.245 . S
O153 Tb140 2.343 . S
O153 Tb142 2.596 . S
O153 C148 1.259 . S
O154 Tb142 2.374 . S
O154 C149 1.250 . S
O155 Tb140 2.353 . S
O155 C149 1.263 . S
C156 O157 1.275 . S
C156 O158 1.246 . S
O157 Tb140 2.427 . S
O157 C156 1.275 . S
O158 Tb140 2.513 . S
O158 C156 1.246 . S
C159 O143 1.245 . S
C159 O144 1.259 . S
Tb160 O163 2.453 . S
Tb160 O164 2.596 . S
Tb160 O165 2.374 . S
Tb160 O173 2.343 . S
Tb160 O175 2.353 . S
Tb160 O177 2.427 . S
Tb160 O178 2.513 . S
C161 O165 1.251 . S
C161 O167 1.263 . S
Tb162 O164 2.343 . S
Tb162 O167 2.353 . S
Tb162 O170 2.427 . S
Tb162 O171 2.513 . S
Tb162 O172 2.453 . S
Tb162 O173 2.596 . S
Tb162 O174 2.374 . S
O163 Tb160 2.453 . S
O163 C179 1.245 . S
O164 Tb160 2.596 . S
O164 Tb162 2.343 . S
O164 C179 1.259 . S
O165 Tb160 2.374 . S
O165 C161 1.251 . S
C166 O170 1.275 . S
C166 O171 1.246 . S
O167 C161 1.263 . S
O167 Tb162 2.353 . S
C168 O172 1.245 . S
C168 O173 1.259 . S
C169 O174 1.250 . S
C169 O175 1.263 . S
O170 Tb162 2.427 . S
O170 C166 1.275 . S
O171 Tb162 2.513 . S
O171 C166 1.246 . S
O172 Tb162 2.453 . S
O172 C168 1.245 . S
O173 Tb160 2.343 . S
O173 Tb162 2.596 . S
O173 C168 1.259 . S
O174 Tb162 2.374 . S
O174 C169 1.250 . S
O175 Tb160 2.353 . S
O175 C169 1.263 . S
C176 O177 1.275 . S
C176 O178 1.246 . S
O177 Tb160 2.427 . S
O177 C176 1.275 . S
O178 Tb160 2.513 . S
O178 C176 1.246 . S
C179 O163 1.245 . S
C179 O164 1.259 . S
Tb180 O183 2.453 . S
Tb180 O184 2.596 . S
Tb180 O185 2.374 . S
Tb180 O193 2.343 . S
Tb180 O195 2.353 . S
Tb180 O197 2.427 . S
Tb180 O198 2.513 . S
C181 O185 1.251 . S
C181 O187 1.263 . S
Tb182 O184 2.343 . S
Tb182 O187 2.353 . S
Tb182 O190 2.427 . S
Tb182 O191 2.513 . S
Tb182 O192 2.453 . S
Tb182 O193 2.596 . S
Tb182 O194 2.374 . S
O183 Tb180 2.453 . S
O183 C199 1.245 . S
O184 Tb180 2.596 . S
O184 Tb182 2.343 . S
O184 C199 1.259 . S
O185 Tb180 2.374 . S
O185 C181 1.251 . S
C186 O190 1.275 . S
C186 O191 1.246 . S
O187 C181 1.263 . S
O187 Tb182 2.353 . S
C188 O192 1.245 . S
C188 O193 1.259 . S
C189 O194 1.250 . S
C189 O195 1.263 . S
O190 Tb182 2.427 . S
O190 C186 1.275 . S
O191 Tb182 2.513 . S
O191 C186 1.246 . S
O192 Tb182 2.453 . S
O192 C188 1.245 . S
O193 Tb180 2.343 . S
O193 Tb182 2.596 . S
O193 C188 1.259 . S
O194 Tb182 2.374 . S
O194 C189 1.250 . S
O195 Tb180 2.353 . S
O195 C189 1.263 . S
C196 O197 1.275 . S
C196 O198 1.246 . S
O197 Tb180 2.427 . S
O197 C196 1.275 . S
O198 Tb180 2.513 . S
O198 C196 1.246 . S
C199 O183 1.245 . S
C199 O184 1.259 . S
Tb200 O203 2.453 . S
Tb200 O204 2.596 . S
Tb200 O205 2.374 . S
Tb200 O213 2.343 . S
Tb200 O215 2.353 . S
Tb200 O217 2.427 . S
Tb200 O218 2.513 . S
C201 O205 1.251 . S
C201 O207 1.263 . S
Tb202 O204 2.343 . S
Tb202 O207 2.353 . S
Tb202 O210 2.427 . S
Tb202 O211 2.513 . S
Tb202 O212 2.453 . S
Tb202 O213 2.596 . S
Tb202 O214 2.374 . S
O203 Tb200 2.453 . S
O203 C219 1.245 . S
O204 Tb200 2.596 . S
O204 Tb202 2.343 . S
O204 C219 1.259 . S
O205 Tb200 2.374 . S
O205 C201 1.251 . S
C206 O210 1.275 . S
C206 O211 1.246 . S
O207 C201 1.263 . S
O207 Tb202 2.353 . S
C208 O212 1.245 . S
C208 O213 1.259 . S
C209 O214 1.250 . S
C209 O215 1.263 . S
O210 Tb202 2.427 . S
O210 C206 1.275 . S
O211 Tb202 2.513 . S
O211 C206 1.246 . S
O212 Tb202 2.453 . S
O212 C208 1.245 . S
O213 Tb200 2.343 . S
O213 Tb202 2.596 . S
O213 C208 1.259 . S
O214 Tb202 2.374 . S
O214 C209 1.250 . S
O215 Tb200 2.353 . S
O215 C209 1.263 . S
C216 O217 1.275 . S
C216 O218 1.246 . S
O217 Tb200 2.427 . S
O217 C216 1.275 . S
O218 Tb200 2.513 . S
O218 C216 1.246 . S
C219 O203 1.245 . S
C219 O204 1.259 . S
Tb220 O223 2.453 . S
Tb220 O224 2.596 . S
Tb220 O225 2.374 . S
Tb220 O233 2.343 . S
Tb220 O235 2.353 . S
Tb220 O237 2.427 . S
Tb220 O238 2.513 . S
C221 O225 1.251 . S
C221 O227 1.263 . S
Tb222 O224 2.343 . S
Tb222 O227 2.353 . S
Tb222 O230 2.427 . S
Tb222 O231 2.513 . S
Tb222 O232 2.453 . S
Tb222 O233 2.596 . S
Tb222 O234 2.374 . S
O223 Tb220 2.453 . S
O223 C239 1.245 . S
O224 Tb220 2.596 . S
O224 Tb222 2.343 . S
O224 C239 1.259 . S
O225 Tb220 2.374 . S
O225 C221 1.251 . S
C226 O230 1.275 . S
C226 O231 1.246 . S
O227 C221 1.263 . S
O227 Tb222 2.353 . S
C228 O232 1.245 . S
C228 O233 1.259 . S
C229 O234 1.250 . S
C229 O235 1.263 . S
O230 Tb222 2.427 . S
O230 C226 1.275 . S
O231 Tb222 2.513 . S
O231 C226 1.246 . S
O232 Tb222 2.453 . S
O232 C228 1.245 . S
O233 Tb220 2.343 . S
O233 Tb222 2.596 . S
O233 C228 1.259 . S
O234 Tb222 2.374 . S
O234 C229 1.250 . S
O235 Tb220 2.353 . S
O235 C229 1.263 . S
C236 O237 1.275 . S
C236 O238 1.246 . S
O237 Tb220 2.427 . S
O237 C236 1.275 . S
O238 Tb220 2.513 . S
O238 C236 1.246 . S
C239 O223 1.245 . S
C239 O224 1.259 . S
H240 C258 0.951 . S
H241 C260 0.951 . S
H242 C262 0.950 . S
H243 C263 0.950 . S
H244 C265 0.950 . S
H245 C268 0.950 . S
H246 C269 0.950 . S
H247 C271 0.950 1_565 S
H248 C272 0.950 . S
H249 C273 0.951 . S
H250 C275 0.951 . S
H251 C277 0.950 . S
H252 C278 0.950 . S
H253 C280 0.950 . S
H254 C283 0.950 . S
H255 C284 0.950 . S
H256 C286 0.950 . S
H257 C287 0.950 . S
C258 H240 0.951 . S
C258 C259 1.366 . S
C258 C260 1.388 . S
C259 C258 1.366 . S
C259 C263 1.385 . S
C260 H241 0.951 . S
C260 C258 1.388 . S
C260 C261 1.366 1_565 S
C261 C260 1.366 1_545 S
C261 C262 1.414 . S
C261 C264 1.499 . S
C262 H242 0.950 . S
C262 C261 1.414 . S
C262 C263 1.374 1_545 S
C263 H243 0.950 . S
C263 C259 1.385 . S
C263 C262 1.374 1_565 S
C264 C261 1.499 . S
C264 C265 1.373 . S
C264 C266 1.389 . S
C265 H244 0.950 . S
C265 C264 1.373 . S
C265 C281 1.377 . S
C266 C264 1.389 . S
C266 C267 1.524 . S
C266 C280 1.377 . S
C267 C266 1.524 . S
C267 C268 1.397 . S
C267 C272 1.363 . S
C268 H245 0.950 . S
C268 C267 1.397 . S
C268 C269 1.334 1_545 S
C269 H246 0.950 . S
C269 C268 1.334 1_565 S
C269 C270 1.287 . S
C270 C269 1.287 . S
C270 C271 1.524 1_565 S
C270 H289 0.913 . S
C271 H247 0.950 1_545 S
C271 C270 1.524 1_545 S
C271 C272 1.415 . S
C272 H248 0.950 . S
C272 C267 1.363 . S
C272 C271 1.415 . S
C273 H249 0.951 . S
C273 C274 1.366 . S
C273 C275 1.388 . S
C274 C273 1.366 . S
C274 C278 1.385 . S
C275 H250 0.951 . S
C275 C273 1.388 . S
C275 C276 1.366 . S
C276 C275 1.366 . S
C276 C277 1.414 . S
C276 C279 1.499 . S
C277 H251 0.950 . S
C277 C276 1.414 . S
C277 C278 1.374 . S
C278 H252 0.950 . S
C278 C274 1.385 . S
C278 C277 1.374 . S
C279 C276 1.499 . S
C279 C280 1.373 . S
C279 C281 1.389 . S
C280 H253 0.950 . S
C280 C266 1.377 . S
C280 C279 1.373 . S
C281 C265 1.377 . S
C281 C279 1.389 . S
C281 C282 1.524 . S
C282 C281 1.524 . S
C282 C283 1.397 . S
C282 C287 1.363 . S
C283 H254 0.950 . S
C283 C282 1.397 . S
C283 C284 1.334 . S
C284 H255 0.950 . S
C284 C283 1.334 . S
C284 C285 1.287 . S
C285 C284 1.287 . S
C285 C286 1.524 . S
C285 H288 0.999 . S
C286 H256 0.950 . S
C286 C285 1.524 . S
C286 C287 1.415 . S
C287 H257 0.950 . S
C287 C282 1.363 . S
C287 C286 1.415 . S
H288 C285 0.999 . S
H289 C270 0.913 . S
H290 C308 0.951 . S
H291 C310 0.951 . S
H292 C312 0.950 . S
H293 C313 0.950 . S
H294 C315 0.950 . S
H295 C318 0.950 . S
H296 C319 0.950 . S
H297 C321 0.950 . S
H298 C322 0.950 . S
H299 C323 0.951 . S
H300 C325 0.951 . S
H301 C327 0.950 . S
H302 C328 0.950 . S
H303 C330 0.950 . S
H304 C333 0.950 . S
H305 C334 0.950 . S
H306 C336 0.950 . S
H307 C337 0.950 . S
C308 H290 0.951 . S
C308 C309 1.366 . S
C308 C310 1.388 . S
C309 C308 1.366 . S
C309 C313 1.385 . S
C310 H291 0.951 . S
C310 C308 1.388 . S
C310 C311 1.366 . S
C311 C310 1.366 . S
C311 C312 1.414 . S
C311 C314 1.499 . S
C312 H292 0.950 . S
C312 C311 1.414 . S
C312 C313 1.374 . S
C313 H293 0.950 . S
C313 C309 1.385 . S
C313 C312 1.374 . S
C314 C311 1.499 . S
C314 C315 1.373 . S
C314 C316 1.389 . S
C315 H294 0.950 . S
C315 C314 1.373 . S
C315 C331 1.377 . S
C316 C314 1.389 . S
C316 C317 1.524 . S
C316 C330 1.377 . S
C317 C316 1.524 . S
C317 C318 1.397 . S
C317 C322 1.363 . S
C318 H295 0.950 . S
C318 C317 1.397 . S
C318 C319 1.334 . S
C319 H296 0.950 . S
C319 C318 1.334 . S
C319 C320 1.287 . S
C320 C319 1.287 . S
C320 C321 1.524 . S
C320 H339 0.913 . S
C321 H297 0.950 . S
C321 C320 1.524 . S
C321 C322 1.415 . S
C322 H298 0.950 . S
C322 C317 1.363 . S
C322 C321 1.415 . S
C323 H299 0.951 . S
C323 C324 1.366 . S
C323 C325 1.388 1_655 S
C324 C323 1.366 . S
C324 C328 1.385 . S
C325 H300 0.951 . S
C325 C323 1.388 1_455 S
C325 C326 1.366 . S
C326 C325 1.366 . S
C326 C327 1.414 1_455 S
C326 C329 1.499 . S
C327 H301 0.950 . S
C327 C326 1.414 1_655 S
C327 C328 1.374 . S
C328 H302 0.950 . S
C328 C324 1.385 . S
C328 C327 1.374 . S
C329 C326 1.499 . S
C329 C330 1.373 . S
C329 C331 1.389 . S
C330 H303 0.950 . S
C330 C316 1.377 . S
C330 C329 1.373 . S
C331 C315 1.377 . S
C331 C329 1.389 . S
C331 C332 1.524 . S
C332 C331 1.524 . S
C332 C333 1.397 . S
C332 C337 1.363 . S
C333 H304 0.950 . S
C333 C332 1.397 . S
C333 C334 1.334 . S
C334 H305 0.950 . S
C334 C333 1.334 . S
C334 C335 1.287 . S
C335 C334 1.287 . S
C335 C336 1.524 . S
C335 H338 0.999 . S
C336 H306 0.950 . S
C336 C335 1.524 . S
C336 C337 1.415 . S
C337 H307 0.950 . S
C337 C332 1.363 . S
C337 C336 1.415 . S
H338 C335 0.999 . S
H339 C320 0.913 . S
H340 C358 0.951 . S
H341 C360 0.951 . S
H342 C362 0.950 . S
H343 C363 0.950 . S
H344 C365 0.950 . S
H345 C368 0.950 . S
H346 C369 0.950 . S
H347 C371 0.950 . S
H348 C372 0.950 . S
H349 C373 0.951 . S
H350 C375 0.951 . S
H351 C377 0.950 . S
H352 C378 0.950 . S
H353 C380 0.950 . S
H354 C383 0.950 . S
H355 C384 0.950 1_455 S
H356 C386 0.950 . S
H357 C387 0.950 . S
C358 H340 0.951 . S
C358 C359 1.366 . S
C358 C360 1.388 1_565 S
C359 C358 1.366 . S
C359 C363 1.385 . S
C360 H341 0.951 . S
C360 C358 1.388 1_545 S
C360 C361 1.366 . S
C361 C360 1.366 . S
C361 C362 1.414 1_545 S
C361 C364 1.499 . S
C362 H342 0.950 . S
C362 C361 1.414 1_565 S
C362 C363 1.374 . S
C363 H343 0.950 . S
C363 C359 1.385 . S
C363 C362 1.374 . S
C364 C361 1.499 . S
C364 C365 1.373 . S
C364 C366 1.389 . S
C365 H344 0.950 . S
C365 C364 1.373 . S
C365 C381 1.377 . S
C366 C364 1.389 . S
C366 C367 1.524 . S
C366 C380 1.377 . S
C367 C366 1.524 . S
C367 C368 1.397 . S
C367 C372 1.363 . S
C368 H345 0.950 . S
C368 C367 1.397 . S
C368 C369 1.334 . S
C369 H346 0.950 . S
C369 C368 1.334 . S
C369 C370 1.287 . S
C370 C369 1.287 . S
C370 C371 1.524 . S
C370 H389 0.913 . S
C371 H347 0.950 . S
C371 C370 1.524 . S
C371 C372 1.415 . S
C372 H348 0.950 . S
C372 C367 1.363 . S
C372 C371 1.415 . S
C373 H349 0.951 . S
C373 C374 1.366 . S
C373 C375 1.388 . S
C374 C373 1.366 . S
C374 C378 1.385 . S
C375 H350 0.951 . S
C375 C373 1.388 . S
C375 C376 1.366 1_455 S
C376 C375 1.366 1_655 S
C376 C377 1.414 . S
C376 C379 1.499 . S
C377 H351 0.950 . S
C377 C376 1.414 . S
C377 C378 1.374 1_655 S
C378 H352 0.950 . S
C378 C374 1.385 . S
C378 C377 1.374 1_455 S
C379 C376 1.499 . S
C379 C380 1.373 . S
C379 C381 1.389 . S
C380 H353 0.950 . S
C380 C366 1.377 . S
C380 C379 1.373 . S
C381 C365 1.377 . S
C381 C379 1.389 . S
C381 C382 1.524 . S
C382 C381 1.524 . S
C382 C383 1.397 . S
C382 C387 1.363 . S
C383 H354 0.950 . S
C383 C382 1.397 . S
C383 C384 1.334 . S
C384 H355 0.950 1_655 S
C384 C383 1.334 . S
C384 C385 1.287 . S
C385 C384 1.287 . S
C385 C386 1.524 . S
C385 H388 0.999 1_655 S
C386 H356 0.950 . S
C386 C385 1.524 . S
C386 C387 1.415 . S
C387 H357 0.950 . S
C387 C382 1.363 . S
C387 C386 1.415 . S
H388 C385 0.999 1_455 S
H389 C370 0.913 . S
H390 C408 0.951 . S
H391 C410 0.951 . S
H392 C412 0.950 . S
H393 C413 0.950 . S
H394 C415 0.950 . S
H395 C418 0.950 . S
H396 C419 0.950 . S
H397 C421 0.950 . S
H398 C422 0.950 . S
H399 C423 0.951 . S
H400 C425 0.951 . S
H401 C427 0.942 1_565 S
H402 C428 0.950 . S
H403 C430 0.950 . S
H404 C433 0.950 . S
H405 C434 0.950 . S
H406 C436 0.950 . S
H407 C437 0.950 . S
C408 H390 0.951 . S
C408 C409 1.366 . S
C408 C410 1.388 . S
C409 C408 1.366 . S
C409 C413 1.385 . S
C410 H391 0.951 . S
C410 C408 1.388 . S
C410 C411 1.366 . S
C411 C410 1.366 . S
C411 C412 1.414 . S
C411 C414 1.499 . S
C412 H392 0.950 . S
C412 C411 1.414 . S
C412 C413 1.374 . S
C413 H393 0.950 . S
C413 C409 1.385 . S
C413 C412 1.374 . S
C414 C411 1.499 . S
C414 C415 1.373 . S
C414 C416 1.389 . S
C415 H394 0.950 . S
C415 C414 1.373 . S
C415 C431 1.377 . S
C416 C414 1.389 . S
C416 C417 1.524 . S
C416 C430 1.377 . S
C417 C416 1.524 . S
C417 C418 1.397 . S
C417 C422 1.363 . S
C418 H395 0.950 . S
C418 C417 1.397 . S
C418 C419 1.334 . S
C419 H396 0.950 . S
C419 C418 1.334 . S
C419 C420 1.287 . S
C420 C419 1.287 . S
C420 C421 1.524 . S
C420 H439 0.913 . S
C421 H397 0.950 . S
C421 C420 1.524 . S
C421 C422 1.415 . S
C422 H398 0.950 . S
C422 C417 1.363 . S
C422 C421 1.415 . S
C423 H399 0.951 . S
C423 C424 1.366 . S
C423 C425 1.388 1_545 S
C424 C423 1.366 . S
C424 C428 1.385 . S
C425 H400 0.951 . S
C425 C423 1.388 1_565 S
C425 C426 1.366 . S
C426 C425 1.366 . S
C426 C427 1.414 1_565 S
C426 C429 1.499 . S
C427 H401 0.942 1_545 S
C427 C426 1.414 1_545 S
C427 C428 1.374 . S
C428 H402 0.950 . S
C428 C424 1.385 . S
C428 C427 1.374 . S
C429 C426 1.499 . S
C429 C430 1.373 . S
C429 C431 1.389 . S
C430 H403 0.950 . S
C430 C416 1.377 . S
C430 C429 1.373 . S
C431 C415 1.377 . S
C431 C429 1.389 . S
C431 C432 1.524 . S
C432 C431 1.524 . S
C432 C433 1.397 . S
C432 C437 1.363 . S
C433 H404 0.950 . S
C433 C432 1.397 . S
C433 C434 1.334 1_565 S
C434 H405 0.950 . S
C434 C433 1.334 1_545 S
C434 C435 1.286 . S
C435 C434 1.286 . S
C435 C436 1.524 1_545 S
C435 H438 0.999 . S
C436 H406 0.950 . S
C436 C435 1.524 1_565 S
C436 C437 1.415 . S
C437 H407 0.950 . S
C437 C432 1.363 . S
C437 C436 1.415 . S
H438 C435 0.999 . S
H439 C420 0.913 . S
H440 C458 0.951 . S
H441 C460 0.951 . S
H442 C462 0.950 . S
H443 C463 0.950 . S
H444 C465 0.950 . S
H445 C468 0.950 . S
H446 C469 0.950 . S
H447 C471 0.950 . S
H448 C472 0.950 . S
H449 C473 0.951 . S
H450 C475 0.951 . S
H451 C477 0.950 . S
H452 C478 0.950 . S
H453 C480 0.950 . S
H454 C483 0.950 . S
H455 C484 0.950 . S
H456 C486 0.950 . S
H457 C487 0.950 . S
C458 H440 0.951 . S
C458 C459 1.366 . S
C458 C460 1.388 . S
C459 C458 1.366 . S
C459 C463 1.385 . S
C460 H441 0.951 . S
C460 C458 1.388 . S
C460 C461 1.366 1_455 S
C461 C460 1.366 1_655 S
C461 C462 1.414 . S
C461 C464 1.499 . S
C462 H442 0.950 . S
C462 C461 1.414 . S
C462 C463 1.374 1_655 S
C463 H443 0.950 . S
C463 C459 1.385 . S
C463 C462 1.374 1_455 S
C464 C461 1.499 . S
C464 C465 1.373 . S
C464 C466 1.389 . S
C465 H444 0.950 . S
C465 C464 1.373 . S
C465 C481 1.377 . S
C466 C464 1.389 . S
C466 C467 1.524 . S
C466 C480 1.377 . S
C467 C466 1.524 . S
C467 C468 1.397 . S
C467 C472 1.363 . S
C468 H445 0.950 . S
C468 C467 1.397 . S
C468 C469 1.334 1_655 S
C469 H446 0.950 . S
C469 C468 1.334 1_455 S
C469 C470 1.287 . S
C470 C469 1.287 . S
C470 C471 1.524 . S
C470 H489 0.913 . S
C471 H447 0.950 . S
C471 C470 1.524 . S
C471 C472 1.415 1_455 S
C472 H448 0.950 . S
C472 C467 1.363 . S
C472 C471 1.415 1_655 S
C473 H449 0.951 . S
C473 C474 1.366 . S
C473 C475 1.388 . S
C474 C473 1.366 . S
C474 C478 1.385 . S
C475 H450 0.951 . S
C475 C473 1.388 . S
C475 C476 1.366 . S
C476 C475 1.366 . S
C476 C477 1.414 . S
C476 C479 1.499 . S
C477 H451 0.950 . S
C477 C476 1.414 . S
C477 C478 1.374 . S
C478 H452 0.950 . S
C478 C474 1.385 . S
C478 C477 1.374 . S
C479 C476 1.499 . S
C479 C480 1.373 . S
C479 C481 1.389 . S
C480 H453 0.950 . S
C480 C466 1.377 . S
C480 C479 1.373 . S
C481 C465 1.377 . S
C481 C479 1.389 . S
C481 C482 1.524 . S
C482 C481 1.524 . S
C482 C483 1.397 . S
C482 C487 1.363 . S
C483 H454 0.950 . S
C483 C482 1.397 . S
C483 C484 1.334 . S
C484 H455 0.950 . S
C484 C483 1.334 . S
C484 C485 1.287 . S
C485 C484 1.287 . S
C485 C486 1.524 . S
C485 H488 0.999 . S
C486 H456 0.950 . S
C486 C485 1.524 . S
C486 C487 1.415 . S
C487 H457 0.950 . S
C487 C482 1.363 . S
C487 C486 1.415 . S
H488 C485 0.999 . S
H489 C470 0.913 . S
H490 C508 0.951 . S
H491 C510 0.951 . S
H492 C512 0.950 . S
H493 C513 0.950 . S
H494 C515 0.950 . S
H495 C518 0.950 . S
H496 C519 0.950 . S
H497 C521 0.931 1_655 S
H498 C522 0.950 . S
H499 C523 0.951 . S
H500 C525 0.951 . S
H501 C527 0.950 . S
H502 C528 0.950 . S
H503 C530 0.950 . S
H504 C533 0.950 . S
H505 C534 0.950 . S
H506 C536 0.950 . S
H507 C537 0.950 . S
C508 H490 0.951 . S
C508 C509 1.366 . S
C508 C510 1.388 . S
C509 C508 1.366 . S
C509 C513 1.385 . S
C510 H491 0.951 . S
C510 C508 1.388 . S
C510 C511 1.366 1_655 S
C511 C510 1.366 1_455 S
C511 C512 1.414 . S
C511 C514 1.499 . S
C512 H492 0.950 . S
C512 C511 1.414 . S
C512 C513 1.374 1_455 S
C513 H493 0.950 . S
C513 C509 1.385 . S
C513 C512 1.374 1_655 S
C514 C511 1.499 . S
C514 C515 1.373 . S
C514 C516 1.389 . S
C515 H494 0.950 . S
C515 C514 1.373 . S
C515 C531 1.377 . S
C516 C514 1.389 . S
C516 C517 1.524 . S
C516 C530 1.377 . S
C517 C516 1.524 . S
C517 C518 1.397 . S
C517 C522 1.363 . S
C518 H495 0.950 . S
C518 C517 1.397 . S
C518 C519 1.334 1_455 S
C519 H496 0.950 . S
C519 C518 1.334 1_655 S
C519 C520 1.287 . S
C520 C519 1.287 . S
C520 C521 1.519 1_655 S
C520 H539 0.913 . S
C521 H497 0.931 1_455 S
C521 C520 1.519 1_455 S
C521 C522 1.441 . S
C522 H498 0.950 . S
C522 C517 1.363 . S
C522 C521 1.441 . S
C523 H499 0.951 . S
C523 C524 1.366 . S
C523 C525 1.388 1_545 S
C524 C523 1.366 . S
C524 C528 1.385 . S
C525 H500 0.951 . S
C525 C523 1.388 1_565 S
C525 C526 1.366 . S
C526 C525 1.366 . S
C526 C527 1.414 1_565 S
C526 C529 1.499 . S
C527 H501 0.950 . S
C527 C526 1.414 1_545 S
C527 C528 1.374 . S
C528 H502 0.950 . S
C528 C524 1.385 . S
C528 C527 1.374 . S
C529 C526 1.499 . S
C529 C530 1.373 . S
C529 C531 1.389 . S
C530 H503 0.950 . S
C530 C516 1.377 . S
C530 C529 1.373 . S
C531 C515 1.377 . S
C531 C529 1.389 . S
C531 C532 1.524 . S
C532 C531 1.524 . S
C532 C533 1.397 . S
C532 C537 1.363 . S
C533 H504 0.950 . S
C533 C532 1.397 . S
C533 C534 1.334 . S
C534 H505 0.950 . S
C534 C533 1.334 . S
C534 C535 1.287 . S
C535 C534 1.287 . S
C535 C536 1.524 . S
C535 H538 0.999 . S
C536 H506 0.950 . S
C536 C535 1.524 . S
C536 C537 1.415 . S
C537 H507 0.950 . S
C537 C532 1.363 . S
C537 C536 1.415 . S
H538 C535 0.999 . S
H539 C520 0.913 . S
H540 C558 0.951 . S
H541 C560 0.951 . S
H542 C562 0.950 . S
H543 C563 0.950 . S
H544 C565 0.950 . S
H545 C568 0.950 . S
H546 C569 0.950 . S
H547 C571 0.950 . S
H548 C572 0.950 . S
H549 C573 0.951 . S
H550 C575 0.951 . S
H551 C577 0.950 . S
H552 C578 0.950 . S
H553 C580 0.950 . S
H554 C583 0.950 . S
H555 C584 0.950 . S
H556 C586 0.950 . S
H557 C587 0.950 . S
C558 H540 0.951 . S
C558 C559 1.366 . S
C558 C560 1.388 1_455 S
C559 C558 1.366 . S
C559 C563 1.385 . S
C560 H541 0.951 . S
C560 C558 1.388 1_655 S
C560 C561 1.366 . S
C561 C560 1.366 . S
C561 C562 1.414 1_655 S
C561 C564 1.499 . S
C562 H542 0.950 . S
C562 C561 1.414 1_455 S
C562 C563 1.374 . S
C563 H543 0.950 . S
C563 C559 1.385 . S
C563 C562 1.374 . S
C564 C561 1.499 . S
C564 C565 1.373 . S
C564 C566 1.389 . S
C565 H544 0.950 . S
C565 C564 1.373 . S
C565 C581 1.377 . S
C566 C564 1.389 . S
C566 C567 1.524 . S
C566 C580 1.377 . S
C567 C566 1.524 . S
C567 C568 1.397 . S
C567 C572 1.363 . S
C568 H545 0.950 . S
C568 C567 1.397 . S
C568 C569 1.334 . S
C569 H546 0.950 . S
C569 C568 1.334 . S
C569 C570 1.287 . S
C570 C569 1.287 . S
C570 C571 1.524 . S
C570 H589 0.913 . S
C571 H547 0.950 . S
C571 C570 1.524 . S
C571 C572 1.415 . S
C572 H548 0.950 . S
C572 C567 1.363 . S
C572 C571 1.415 . S
C573 H549 0.951 . S
C573 C574 1.366 . S
C573 C575 1.388 . S
C574 C573 1.366 . S
C574 C578 1.385 . S
C575 H550 0.951 . S
C575 C573 1.388 . S
C575 C576 1.366 . S
C576 C575 1.366 . S
C576 C577 1.414 . S
C576 C579 1.499 . S
C577 H551 0.950 . S
C577 C576 1.414 . S
C577 C578 1.374 . S
C578 H552 0.950 . S
C578 C574 1.385 . S
C578 C577 1.374 . S
C579 C576 1.499 . S
C579 C580 1.373 . S
C579 C581 1.389 . S
C580 H553 0.950 . S
C580 C566 1.377 . S
C580 C579 1.373 . S
C581 C565 1.377 . S
C581 C579 1.389 . S
C581 C582 1.524 . S
C582 C581 1.524 . S
C582 C583 1.397 . S
C582 C587 1.363 . S
C583 H554 0.950 . S
C583 C582 1.397 . S
C583 C584 1.334 . S
C584 H555 0.950 . S
C584 C583 1.334 . S
C584 C585 1.287 . S
C585 C584 1.287 . S
C585 C586 1.524 . S
C585 H588 0.999 . S
C586 H556 0.950 . S
C586 C585 1.524 . S
C586 C587 1.415 . S
C587 H557 0.950 . S
C587 C582 1.363 . S
C587 C586 1.415 . S
H588 C585 0.999 . S
H589 C570 0.913 . S
H590 C608 0.951 . S
H591 C610 0.951 . S
H592 C612 0.950 . S
H593 C613 0.950 . S
H594 C615 0.950 . S
H595 C618 0.950 . S
H596 C619 0.950 . S
H597 C621 0.950 . S
H598 C622 0.950 . S
H599 C623 0.951 . S
H600 C625 0.951 . S
H601 C627 0.950 . S
H602 C628 0.950 . S
H603 C630 0.950 . S
H604 C633 0.950 . S
H605 C634 0.950 . S
H606 C636 0.950 1_545 S
H607 C637 0.950 . S
C608 H590 0.951 . S
C608 C609 1.366 . S
C608 C610 1.388 1_655 S
C609 C608 1.366 . S
C609 C613 1.385 . S
C610 H591 0.951 . S
C610 C608 1.388 1_455 S
C610 C611 1.366 . S
C611 C610 1.366 . S
C611 C612 1.414 1_455 S
C611 C614 1.499 . S
C612 H592 0.950 . S
C612 C611 1.414 1_655 S
C612 C613 1.374 . S
C613 H593 0.950 . S
C613 C609 1.385 . S
C613 C612 1.374 . S
C614 C611 1.499 . S
C614 C615 1.373 . S
C614 C616 1.389 . S
C615 H594 0.950 . S
C615 C614 1.373 . S
C615 C631 1.377 . S
C616 C614 1.389 . S
C616 C617 1.524 . S
C616 C630 1.377 . S
C617 C616 1.524 . S
C617 C618 1.397 . S
C617 C622 1.363 . S
C618 H595 0.950 . S
C618 C617 1.397 . S
C618 C619 1.334 . S
C619 H596 0.950 . S
C619 C618 1.334 . S
C619 C620 1.287 . S
C620 C619 1.287 . S
C620 C621 1.524 . S
C620 H639 0.913 . S
C621 H597 0.950 . S
C621 C620 1.524 . S
C621 C622 1.415 . S
C622 H598 0.950 . S
C622 C617 1.363 . S
C622 C621 1.415 . S
C623 H599 0.951 . S
C623 C624 1.366 . S
C623 C625 1.388 . S
C624 C623 1.366 . S
C624 C628 1.385 . S
C625 H600 0.951 . S
C625 C623 1.388 . S
C625 C626 1.366 1_545 S
C626 C625 1.366 1_565 S
C626 C627 1.414 . S
C626 C629 1.499 . S
C627 H601 0.950 . S
C627 C626 1.414 . S
C627 C628 1.374 1_565 S
C628 H602 0.950 . S
C628 C624 1.385 . S
C628 C627 1.374 1_545 S
C629 C626 1.499 . S
C629 C630 1.373 . S
C629 C631 1.389 . S
C630 H603 0.950 . S
C630 C616 1.377 . S
C630 C629 1.373 . S
C631 C615 1.377 . S
C631 C629 1.389 . S
C631 C632 1.524 . S
C632 C631 1.524 . S
C632 C633 1.397 . S
C632 C637 1.363 . S
C633 H604 0.950 . S
C633 C632 1.397 . S
C633 C634 1.334 1_565 S
C634 H605 0.950 . S
C634 C633 1.334 1_545 S
C634 C635 1.287 . S
C635 C634 1.287 . S
C635 C636 1.524 1_545 S
C635 H638 0.999 . S
C636 H606 0.950 1_565 S
C636 C635 1.524 1_565 S
C636 C637 1.415 . S
C637 H607 0.950 . S
C637 C632 1.363 . S
C637 C636 1.415 . S
H638 C635 0.999 . S
H639 C620 0.913 . S
H640 C658 0.951 . S
H641 C660 0.951 . S
H642 C662 0.950 . S
H643 C663 0.950 . S
H644 C665 0.950 . S
H645 C668 0.950 . S
H646 C669 0.950 . S
H647 C671 0.950 . S
H648 C672 0.950 . S
H649 C673 0.951 . S
H650 C675 0.951 . S
H651 C677 0.950 . S
H652 C678 0.950 . S
H653 C680 0.950 . S
H654 C683 0.950 . S
H655 C684 0.950 . S
H656 C686 0.950 . S
H657 C687 0.950 1_545 S
C658 H640 0.951 . S
C658 C659 1.366 . S
C658 C660 1.388 . S
C659 C658 1.366 . S
C659 C663 1.385 . S
C660 H641 0.951 . S
C660 C658 1.388 . S
C660 C661 1.366 . S
C661 C660 1.366 . S
C661 C662 1.414 . S
C661 C664 1.499 . S
C662 H642 0.950 . S
C662 C661 1.414 . S
C662 C663 1.374 . S
C663 H643 0.950 . S
C663 C659 1.385 . S
C663 C662 1.374 . S
C664 C661 1.499 . S
C664 C665 1.373 . S
C664 C666 1.389 . S
C665 H644 0.950 . S
C665 C664 1.373 . S
C665 C681 1.377 . S
C666 C664 1.389 . S
C666 C667 1.524 . S
C666 C680 1.377 . S
C667 C666 1.524 . S
C667 C668 1.397 . S
C667 C672 1.363 . S
C668 H645 0.950 . S
C668 C667 1.397 . S
C668 C669 1.334 . S
C669 H646 0.950 . S
C669 C668 1.334 . S
C669 C670 1.287 . S
C670 C669 1.287 . S
C670 C671 1.524 . S
C670 H689 0.913 . S
C671 H647 0.950 . S
C671 C670 1.524 . S
C671 C672 1.415 . S
C672 H648 0.950 . S
C672 C667 1.363 . S
C672 C671 1.415 . S
C673 H649 0.951 . S
C673 C674 1.366 . S
C673 C675 1.388 . S
C674 C673 1.366 . S
C674 C678 1.385 . S
C675 H650 0.951 . S
C675 C673 1.388 . S
C675 C676 1.366 1_565 S
C676 C675 1.366 1_545 S
C676 C677 1.414 . S
C676 C679 1.499 . S
C677 H651 0.950 . S
C677 C676 1.414 . S
C677 C678 1.374 1_545 S
C678 H652 0.950 . S
C678 C674 1.385 . S
C678 C677 1.374 1_565 S
C679 C676 1.499 . S
C679 C680 1.373 . S
C679 C681 1.389 . S
C680 H653 0.950 . S
C680 C666 1.377 . S
C680 C679 1.373 . S
C681 C665 1.377 . S
C681 C679 1.389 . S
C681 C682 1.543 . S
C682 C681 1.543 . S
C682 C683 1.376 1_545 S
C682 C687 1.368 1_545 S
C683 H654 0.950 . S
C683 C682 1.376 1_565 S
C683 C684 1.334 . S
C684 H655 0.950 . S
C684 C683 1.334 . S
C684 C685 1.287 . S
C685 C684 1.287 . S
C685 C686 1.524 . S
C685 H688 0.999 . S
C686 H656 0.950 . S
C686 C685 1.524 . S
C686 C687 1.415 . S
C687 H657 0.950 1_565 S
C687 C682 1.368 1_565 S
C687 C686 1.415 . S
H688 C685 0.999 . S
H689 C670 0.913 . S
H690 C708 0.951 . S
H691 C710 0.951 . S
H692 C712 0.950 . S
H693 C713 0.950 . S
H694 C715 0.950 . S
H695 C718 0.950 . S
H696 C719 0.950 . S
H697 C721 0.950 . S
H698 C722 0.950 . S
H699 C723 0.951 . S
H700 C725 0.951 . S
H701 C727 0.950 . S
H702 C728 0.950 . S
H703 C730 0.950 . S
H704 C733 0.950 . S
H705 C734 0.950 . S
H706 C736 0.950 . S
H707 C737 0.950 . S
C708 H690 0.951 . S
C708 C709 1.366 . S
C708 C710 1.388 . S
C709 C708 1.366 . S
C709 C713 1.385 . S
C710 H691 0.951 . S
C710 C708 1.388 . S
C710 C711 1.366 . S
C711 C710 1.366 . S
C711 C712 1.414 . S
C711 C714 1.499 . S
C712 H692 0.950 . S
C712 C711 1.414 . S
C712 C713 1.374 . S
C713 H693 0.950 . S
C713 C709 1.385 . S
C713 C712 1.374 . S
C714 C711 1.499 . S
C714 C715 1.373 . S
C714 C716 1.389 . S
C715 H694 0.950 . S
C715 C714 1.373 . S
C715 C731 1.377 . S
C716 C714 1.389 . S
C716 C717 1.524 . S
C716 C730 1.377 . S
C717 C716 1.524 . S
C717 C718 1.397 . S
C717 C722 1.363 . S
C718 H695 0.950 . S
C718 C717 1.397 . S
C718 C719 1.334 . S
C719 H696 0.950 . S
C719 C718 1.334 . S
C719 C720 1.287 . S
C720 C719 1.287 . S
C720 C721 1.524 . S
C720 H739 0.913 . S
C721 H697 0.950 . S
C721 C720 1.524 . S
C721 C722 1.415 . S
C722 H698 0.950 . S
C722 C717 1.363 . S
C722 C721 1.415 . S
C723 H699 0.951 . S
C723 C724 1.366 . S
C723 C725 1.388 . S
C724 C723 1.366 . S
C724 C728 1.385 . S
C725 H700 0.951 . S
C725 C723 1.388 . S
C725 C726 1.366 1_655 S
C726 C725 1.366 1_455 S
C726 C727 1.414 . S
C726 C729 1.499 . S
C727 H701 0.950 . S
C727 C726 1.414 . S
C727 C728 1.374 1_455 S
C728 H702 0.950 . S
C728 C724 1.385 . S
C728 C727 1.374 1_655 S
C729 C726 1.499 . S
C729 C730 1.373 . S
C729 C731 1.389 . S
C730 H703 0.950 . S
C730 C716 1.377 . S
C730 C729 1.373 . S
C731 C715 1.377 . S
C731 C729 1.389 . S
C731 C732 1.524 . S
C732 C731 1.524 . S
C732 C733 1.397 . S
C732 C737 1.363 . S
C733 H704 0.950 . S
C733 C732 1.397 . S
C733 C734 1.334 . S
C734 H705 0.950 . S
C734 C733 1.334 . S
C734 C735 1.287 . S
C735 C734 1.287 . S
C735 C736 1.524 . S
C735 H738 0.999 1_455 S
C736 H706 0.950 . S
C736 C735 1.524 . S
C736 C737 1.415 . S
C737 H707 0.950 . S
C737 C732 1.363 . S
C737 C736 1.415 . S
H738 C735 0.999 1_655 S
H739 C720 0.913 . S
H740 C758 0.951 . S
H741 C760 0.951 . S
H742 C762 0.950 . S
H743 C763 0.950 . S
H744 C765 0.950 . S
H745 C768 0.950 . S
H746 C769 0.959 1_455 S
H747 C771 0.950 . S
H748 C772 0.950 . S
H749 C773 0.951 . S
H750 C775 0.951 . S
H751 C777 0.950 . S
H752 C778 0.950 . S
H753 C780 0.950 . S
H754 C783 0.950 . S
H755 C784 0.950 . S
H756 C786 0.950 . S
H757 C787 0.950 . S
C758 H740 0.951 . S
C758 C759 1.366 . S
C758 C760 1.388 . S
C759 C758 1.366 . S
C759 C763 1.385 . S
C760 H741 0.951 . S
C760 C758 1.388 . S
C760 C761 1.366 1_455 S
C761 C760 1.366 1_655 S
C761 C762 1.414 . S
C761 C764 1.499 . S
C762 H742 0.950 . S
C762 C761 1.414 . S
C762 C763 1.374 1_655 S
C763 H743 0.950 . S
C763 C759 1.385 . S
C763 C762 1.374 1_455 S
C764 C761 1.499 . S
C764 C765 1.373 . S
C764 C766 1.389 . S
C765 H744 0.950 . S
C765 C764 1.373 . S
C765 C781 1.377 . S
C766 C764 1.389 . S
C766 C767 1.524 . S
C766 C780 1.377 . S
C767 C766 1.524 . S
C767 C768 1.397 . S
C767 C772 1.363 . S
C768 H745 0.950 . S
C768 C767 1.397 . S
C768 C769 1.348 . S
C769 H746 0.959 1_655 S
C769 C768 1.348 . S
C769 C770 1.265 1_655 S
C770 C769 1.265 1_455 S
C770 C771 1.524 . S
C770 H789 0.913 . S
C771 H747 0.950 . S
C771 C770 1.524 . S
C771 C772 1.415 1_455 S
C772 H748 0.950 . S
C772 C767 1.363 . S
C772 C771 1.415 1_655 S
C773 H749 0.951 . S
C773 C774 1.366 . S
C773 C775 1.388 1_565 S
C774 C773 1.366 . S
C774 C778 1.385 . S
C775 H750 0.951 . S
C775 C773 1.388 1_545 S
C775 C776 1.366 . S
C776 C775 1.366 . S
C776 C777 1.414 1_545 S
C776 C779 1.499 . S
C777 H751 0.950 . S
C777 C776 1.414 1_565 S
C777 C778 1.374 . S
C778 H752 0.950 . S
C778 C774 1.385 . S
C778 C777 1.374 . S
C779 C776 1.499 . S
C779 C780 1.373 . S
C779 C781 1.389 . S
C780 H753 0.950 . S
C780 C766 1.377 . S
C780 C779 1.373 . S
C781 C765 1.377 . S
C781 C779 1.389 . S
C781 C782 1.524 . S
C782 C781 1.524 . S
C782 C783 1.397 . S
C782 C787 1.363 . S
C783 H754 0.950 . S
C783 C782 1.397 . S
C783 C784 1.334 . S
C784 H755 0.950 . S
C784 C783 1.334 . S
C784 C785 1.287 . S
C785 C784 1.287 . S
C785 C786 1.524 . S
C785 H788 0.999 . S
C786 H756 0.950 . S
C786 C785 1.524 . S
C786 C787 1.415 . S
C787 H757 0.950 . S
C787 C782 1.363 . S
C787 C786 1.415 . S
H788 C785 0.999 . S
H789 C770 0.913 . S
H790 C808 0.951 . S
H791 C810 0.951 . S
H792 C812 0.950 . S
H793 C813 0.950 . S
H794 C815 0.950 . S
H795 C818 0.950 . S
H796 C819 0.950 . S
H797 C821 0.950 . S
H798 C822 0.950 . S
H799 C823 0.951 . S
H800 C825 0.951 . S
H801 C827 0.950 . S
H802 C828 0.950 . S
H803 C830 0.950 . S
H804 C833 0.950 . S
H805 C834 0.950 . S
H806 C836 0.950 . S
H807 C837 0.950 1_565 S
C808 H790 0.951 . S
C808 C809 1.366 . S
C808 C810 1.388 . S
C809 C808 1.366 . S
C809 C813 1.385 . S
C810 H791 0.951 . S
C810 C808 1.388 . S
C810 C811 1.366 . S
C811 C810 1.366 . S
C811 C812 1.414 . S
C811 C814 1.499 . S
C812 H792 0.950 . S
C812 C811 1.414 . S
C812 C813 1.374 . S
C813 H793 0.950 . S
C813 C809 1.385 . S
C813 C812 1.374 . S
C814 C811 1.499 . S
C814 C815 1.373 . S
C814 C816 1.389 . S
C815 H794 0.950 . S
C815 C814 1.373 . S
C815 C831 1.377 . S
C816 C814 1.389 . S
C816 C817 1.524 . S
C816 C830 1.377 . S
C817 C816 1.524 . S
C817 C818 1.397 . S
C817 C822 1.363 . S
C818 H795 0.950 . S
C818 C817 1.397 . S
C818 C819 1.334 . S
C819 H796 0.950 . S
C819 C818 1.334 . S
C819 C820 1.287 . S
C820 C819 1.287 . S
C820 C821 1.524 . S
C820 H839 0.913 . S
C821 H797 0.950 . S
C821 C820 1.524 . S
C821 C822 1.415 . S
C822 H798 0.950 . S
C822 C817 1.363 . S
C822 C821 1.415 . S
C823 H799 0.951 . S
C823 C824 1.366 . S
C823 C825 1.388 . S
C824 C823 1.366 . S
C824 C828 1.385 . S
C825 H800 0.951 . S
C825 C823 1.388 . S
C825 C826 1.366 1_545 S
C826 C825 1.366 1_565 S
C826 C827 1.414 . S
C826 C829 1.499 . S
C827 H801 0.950 . S
C827 C826 1.414 . S
C827 C828 1.374 1_565 S
C828 H802 0.950 . S
C828 C824 1.385 . S
C828 C827 1.374 1_545 S
C829 C826 1.499 . S
C829 C830 1.373 . S
C829 C831 1.389 . S
C830 H803 0.950 . S
C830 C816 1.377 . S
C830 C829 1.373 . S
C831 C815 1.377 . S
C831 C829 1.389 . S
C831 C832 1.524 . S
C832 C831 1.524 . S
C832 C833 1.397 . S
C832 C837 1.363 1_565 S
C833 H804 0.950 . S
C833 C832 1.397 . S
C833 C834 1.334 1_565 S
C834 H805 0.950 . S
C834 C833 1.334 1_545 S
C834 C835 1.287 . S
C835 C834 1.287 . S
C835 C836 1.524 . S
C835 H838 0.999 . S
C836 H806 0.950 . S
C836 C835 1.524 . S
C836 C837 1.415 . S
C837 H807 0.950 1_545 S
C837 C832 1.363 1_545 S
C837 C836 1.415 . S
H838 C835 0.999 . S
H839 C820 0.913 . S
H840 C858 0.951 . S
H841 C860 0.951 . S
H842 C862 0.950 . S
H843 C863 0.950 . S
H844 C865 0.950 . S
H845 C868 0.950 . S
H846 C869 0.950 . S
H847 C871 0.950 . S
H848 C872 0.950 . S
H849 C873 0.951 . S
H850 C875 0.951 . S
H851 C877 0.950 . S
H852 C878 0.950 . S
H853 C880 0.950 . S
H854 C883 0.950 . S
H855 C884 0.950 . S
H856 C886 0.950 . S
H857 C887 0.950 . S
C858 H840 0.951 . S
C858 C859 1.366 . S
C858 C860 1.388 . S
C859 C858 1.366 . S
C859 C863 1.385 . S
C860 H841 0.951 . S
C860 C858 1.388 . S
C860 C861 1.366 . S
C861 C860 1.366 . S
C861 C862 1.414 . S
C861 C864 1.499 . S
C862 H842 0.950 . S
C862 C861 1.414 . S
C862 C863 1.374 . S
C863 H843 0.950 . S
C863 C859 1.385 . S
C863 C862 1.374 . S
C864 C861 1.499 . S
C864 C865 1.373 . S
C864 C866 1.389 . S
C865 H844 0.950 . S
C865 C864 1.373 . S
C865 C881 1.377 . S
C866 C864 1.389 . S
C866 C867 1.524 . S
C866 C880 1.377 . S
C867 C866 1.524 . S
C867 C868 1.397 . S
C867 C872 1.363 . S
C868 H845 0.950 . S
C868 C867 1.397 . S
C868 C869 1.334 . S
C869 H846 0.950 . S
C869 C868 1.334 . S
C869 C870 1.287 . S
C870 C869 1.287 . S
C870 C871 1.524 . S
C870 H889 0.913 . S
C871 H847 0.950 . S
C871 C870 1.524 . S
C871 C872 1.415 . S
C872 H848 0.950 . S
C872 C867 1.363 . S
C872 C871 1.415 . S
C873 H849 0.951 . S
C873 C874 1.366 . S
C873 C875 1.388 . S
C874 C873 1.366 . S
C874 C878 1.385 . S
C875 H850 0.951 . S
C875 C873 1.388 . S
C875 C876 1.366 . S
C876 C875 1.366 . S
C876 C877 1.414 . S
C876 C879 1.499 . S
C877 H851 0.950 . S
C877 C876 1.414 . S
C877 C878 1.374 . S
C878 H852 0.950 . S
C878 C874 1.385 . S
C878 C877 1.374 . S
C879 C876 1.499 . S
C879 C880 1.373 . S
C879 C881 1.389 . S
C880 H853 0.950 . S
C880 C866 1.377 . S
C880 C879 1.373 . S
C881 C865 1.377 . S
C881 C879 1.389 . S
C881 C882 1.524 . S
C882 C881 1.524 . S
C882 C883 1.397 . S
C882 C887 1.363 . S
C883 H854 0.950 . S
C883 C882 1.397 . S
C883 C884 1.334 . S
C884 H855 0.950 . S
C884 C883 1.334 . S
C884 C885 1.287 . S
C885 C884 1.287 . S
C885 C886 1.524 . S
C885 H888 0.999 . S
C886 H856 0.950 . S
C886 C885 1.524 . S
C886 C887 1.415 . S
C887 H857 0.950 . S
C887 C882 1.363 . S
C887 C886 1.415 . S
H888 C885 0.999 . S
H889 C870 0.913 . S
H890 C908 0.951 . S
H891 C910 0.951 . S
H892 C912 0.950 . S
H893 C913 0.950 . S
H894 C915 0.950 . S
H895 C918 0.950 . S
H896 C919 0.950 . S
H897 C921 0.950 . S
H898 C922 0.950 . S
H899 C923 0.951 . S
H900 C925 0.951 . S
H901 C927 0.950 . S
H902 C928 0.950 . S
H903 C930 0.950 . S
H904 C933 0.950 . S
H905 C934 0.950 . S
H906 C936 0.950 . S
H907 C937 0.950 . S
C908 H890 0.951 . S
C908 C909 1.366 . S
C908 C910 1.388 . S
C909 C908 1.366 . S
C909 C913 1.385 . S
C910 H891 0.951 . S
C910 C908 1.388 . S
C910 C911 1.366 . S
C911 C910 1.366 . S
C911 C912 1.414 . S
C911 C914 1.499 . S
C912 H892 0.950 . S
C912 C911 1.414 . S
C912 C913 1.374 . S
C913 H893 0.950 . S
C913 C909 1.385 . S
C913 C912 1.374 . S
C914 C911 1.499 . S
C914 C915 1.373 . S
C914 C916 1.389 . S
C915 H894 0.950 . S
C915 C914 1.373 . S
C915 C931 1.377 . S
C916 C914 1.389 . S
C916 C917 1.524 . S
C916 C930 1.377 . S
C917 C916 1.524 . S
C917 C918 1.397 . S
C917 C922 1.363 . S
C918 H895 0.950 . S
C918 C917 1.397 . S
C918 C919 1.334 . S
C919 H896 0.950 . S
C919 C918 1.334 . S
C919 C920 1.287 . S
C920 C919 1.287 . S
C920 C921 1.524 . S
C920 H939 0.913 . S
C921 H897 0.950 . S
C921 C920 1.524 . S
C921 C922 1.415 . S
C922 H898 0.950 . S
C922 C917 1.363 . S
C922 C921 1.415 . S
C923 H899 0.951 . S
C923 C924 1.366 . S
C923 C925 1.388 . S
C924 C923 1.366 . S
C924 C928 1.385 . S
C925 H900 0.951 . S
C925 C923 1.388 . S
C925 C926 1.366 . S
C926 C925 1.366 . S
C926 C927 1.414 . S
C926 C929 1.499 . S
C927 H901 0.950 . S
C927 C926 1.414 . S
C927 C928 1.374 . S
C928 H902 0.950 . S
C928 C924 1.385 . S
C928 C927 1.374 . S
C929 C926 1.499 . S
C929 C930 1.373 . S
C929 C931 1.389 . S
C930 H903 0.950 . S
C930 C916 1.377 . S
C930 C929 1.373 . S
C931 C915 1.377 . S
C931 C929 1.389 . S
C931 C932 1.524 . S
C932 C931 1.524 . S
C932 C933 1.397 . S
C932 C937 1.363 . S
C933 H904 0.950 . S
C933 C932 1.397 . S
C933 C934 1.334 . S
C934 H905 0.950 . S
C934 C933 1.334 . S
C934 C935 1.287 . S
C935 C934 1.287 . S
C935 C936 1.524 . S
C935 H938 0.999 . S
C936 H906 0.950 . S
C936 C935 1.524 . S
C936 C937 1.415 . S
C937 H907 0.950 . S
C937 C932 1.363 . S
C937 C936 1.415 . S
H938 C935 0.999 . S
H939 C920 0.913 . S
H940 C958 0.951 . S
H941 C960 0.951 . S
H942 C962 0.950 . S
H943 C963 0.950 . S
H944 C965 0.950 . S
H945 C968 0.950 . S
H946 C969 0.950 . S
H947 C971 0.950 . S
H948 C972 0.950 . S
H949 C973 0.951 . S
H950 C975 0.951 . S
H951 C977 0.950 . S
H952 C978 0.950 . S
H953 C980 0.950 . S
H954 C983 0.950 . S
H955 C984 0.950 . S
H956 C986 0.950 . S
H957 C987 0.950 . S
C958 H940 0.951 . S
C958 C959 1.366 . S
C958 C960 1.388 . S
C959 C958 1.366 . S
C959 C963 1.385 . S
C960 H941 0.951 . S
C960 C958 1.388 . S
C960 C961 1.366 . S
C961 C960 1.366 . S
C961 C962 1.414 . S
C961 C964 1.499 . S
C962 H942 0.950 . S
C962 C961 1.414 . S
C962 C963 1.374 . S
C963 H943 0.950 . S
C963 C959 1.385 . S
C963 C962 1.374 . S
C964 C961 1.499 . S
C964 C965 1.373 . S
C964 C966 1.389 . S
C965 H944 0.950 . S
C965 C964 1.373 . S
C965 C981 1.377 . S
C966 C964 1.389 . S
C966 C967 1.524 . S
C966 C980 1.377 . S
C967 C966 1.524 . S
C967 C968 1.397 . S
C967 C972 1.363 . S
C968 H945 0.950 . S
C968 C967 1.397 . S
C968 C969 1.334 . S
C969 H946 0.950 . S
C969 C968 1.334 . S
C969 C970 1.287 . S
C970 C969 1.287 . S
C970 C971 1.524 . S
C970 H989 0.913 . S
C971 H947 0.950 . S
C971 C970 1.524 . S
C971 C972 1.415 . S
C972 H948 0.950 . S
C972 C967 1.363 . S
C972 C971 1.415 . S
C973 H949 0.951 . S
C973 C974 1.366 . S
C973 C975 1.388 . S
C974 C973 1.366 . S
C974 C978 1.385 . S
C975 H950 0.951 . S
C975 C973 1.388 . S
C975 C976 1.366 . S
C976 C975 1.366 . S
C976 C977 1.414 . S
C976 C979 1.499 . S
C977 H951 0.950 . S
C977 C976 1.414 . S
C977 C978 1.374 . S
C978 H952 0.950 . S
C978 C974 1.385 . S
C978 C977 1.374 . S
C979 C976 1.499 . S
C979 C980 1.373 . S
C979 C981 1.389 . S
C980 H953 0.950 . S
C980 C966 1.377 . S
C980 C979 1.373 . S
C981 C965 1.377 . S
C981 C979 1.389 . S
C981 C982 1.524 . S
C982 C981 1.524 . S
C982 C983 1.397 . S
C982 C987 1.363 . S
C983 H954 0.950 . S
C983 C982 1.397 . S
C983 C984 1.334 . S
C984 H955 0.950 . S
C984 C983 1.334 . S
C984 C985 1.287 . S
C985 C984 1.287 . S
C985 C986 1.524 . S
C985 H988 0.999 . S
C986 H956 0.950 . S
C986 C985 1.524 . S
C986 C987 1.415 . S
C987 H957 0.950 . S
C987 C982 1.363 . S
C987 C986 1.415 . S
H988 C985 0.999 . S
H989 C970 0.913 . S
H990 C1008 0.951 . S
H991 C1010 0.951 . S
H992 C1012 0.950 . S
H993 C1013 0.950 . S
H994 C1015 0.950 . S
H995 C1018 0.950 . S
H996 C1019 0.950 . S
H997 C1021 0.950 . S
H998 C1022 0.950 . S
H999 C1023 0.951 . S
H1000 C1025 0.951 . S
H1001 C1027 0.950 . S
H1002 C1028 0.950 . S
H1003 C1030 0.950 . S
H1004 C1033 0.950 . S
H1005 C1034 0.950 . S
H1006 C1036 0.950 . S
H1007 C1037 0.950 . S
C1008 H990 0.951 . S
C1008 C1009 1.366 . S
C1008 C1010 1.388 . S
C1009 C1008 1.366 . S
C1009 C1013 1.385 . S
C1010 H991 0.951 . S
C1010 C1008 1.388 . S
C1010 C1011 1.366 . S
C1011 C1010 1.366 . S
C1011 C1012 1.414 . S
C1011 C1014 1.499 . S
C1012 H992 0.950 . S
C1012 C1011 1.414 . S
C1012 C1013 1.374 . S
C1013 H993 0.950 . S
C1013 C1009 1.385 . S
C1013 C1012 1.374 . S
C1014 C1011 1.499 . S
C1014 C1015 1.373 . S
C1014 C1016 1.389 . S
C1015 H994 0.950 . S
C1015 C1014 1.373 . S
C1015 C1031 1.377 . S
C1016 C1014 1.389 . S
C1016 C1017 1.524 . S
C1016 C1030 1.377 . S
C1017 C1016 1.524 . S
C1017 C1018 1.397 . S
C1017 C1022 1.363 . S
C1018 H995 0.950 . S
C1018 C1017 1.397 . S
C1018 C1019 1.334 . S
C1019 H996 0.950 . S
C1019 C1018 1.334 . S
C1019 C1020 1.287 . S
C1020 C1019 1.287 . S
C1020 C1021 1.524 . S
C1020 H1039 0.913 . S
C1021 H997 0.950 . S
C1021 C1020 1.524 . S
C1021 C1022 1.415 . S
C1022 H998 0.950 . S
C1022 C1017 1.363 . S
C1022 C1021 1.415 . S
C1023 H999 0.951 . S
C1023 C1024 1.366 . S
C1023 C1025 1.388 . S
C1024 C1023 1.366 . S
C1024 C1028 1.385 . S
C1025 H1000 0.951 . S
C1025 C1023 1.388 . S
C1025 C1026 1.366 . S
C1026 C1025 1.366 . S
C1026 C1027 1.414 . S
C1026 C1029 1.499 . S
C1027 H1001 0.950 . S
C1027 C1026 1.414 . S
C1027 C1028 1.374 . S
C1028 H1002 0.950 . S
C1028 C1024 1.385 . S
C1028 C1027 1.374 . S
C1029 C1026 1.499 . S
C1029 C1030 1.373 . S
C1029 C1031 1.389 . S
C1030 H1003 0.950 . S
C1030 C1016 1.377 . S
C1030 C1029 1.373 . S
C1031 C1015 1.377 . S
C1031 C1029 1.389 . S
C1031 C1032 1.524 . S
C1032 C1031 1.524 . S
C1032 C1033 1.397 . S
C1032 C1037 1.363 . S
C1033 H1004 0.950 . S
C1033 C1032 1.397 . S
C1033 C1034 1.334 . S
C1034 H1005 0.950 . S
C1034 C1033 1.334 . S
C1034 C1035 1.287 . S
C1035 C1034 1.287 . S
C1035 C1036 1.524 . S
C1035 H1038 0.999 . S
C1036 H1006 0.950 . S
C1036 C1035 1.524 . S
C1036 C1037 1.415 . S
C1037 H1007 0.950 . S
C1037 C1032 1.363 . S
C1037 C1036 1.415 . S
H1038 C1035 0.999 . S
H1039 C1020 0.913 . S
H1040 C1058 0.951 . S
H1041 C1060 0.951 . S
H1042 C1062 0.950 . S
H1043 C1063 0.950 . S
H1044 C1065 0.950 . S
H1045 C1068 0.950 . S
H1046 C1069 0.950 . S
H1047 C1071 0.950 . S
H1048 C1072 0.950 . S
H1049 C1073 0.951 . S
H1050 C1075 0.951 . S
H1051 C1077 0.950 . S
H1052 C1078 0.950 . S
H1053 C1080 0.950 . S
H1054 C1083 0.950 . S
H1055 C1084 0.950 . S
H1056 C1086 0.950 . S
H1057 C1087 0.950 . S
C1058 H1040 0.951 . S
C1058 C1059 1.366 . S
C1058 C1060 1.388 . S
C1059 C1058 1.366 . S
C1059 C1063 1.385 . S
C1060 H1041 0.951 . S
C1060 C1058 1.388 . S
C1060 C1061 1.366 . S
C1061 C1060 1.366 . S
C1061 C1062 1.414 . S
C1061 C1064 1.499 . S
C1062 H1042 0.950 . S
C1062 C1061 1.414 . S
C1062 C1063 1.374 . S
C1063 H1043 0.950 . S
C1063 C1059 1.385 . S
C1063 C1062 1.374 . S
C1064 C1061 1.499 . S
C1064 C1065 1.373 . S
C1064 C1066 1.389 . S
C1065 H1044 0.950 . S
C1065 C1064 1.373 . S
C1065 C1081 1.377 . S
C1066 C1064 1.389 . S
C1066 C1067 1.524 . S
C1066 C1080 1.377 . S
C1067 C1066 1.524 . S
C1067 C1068 1.397 . S
C1067 C1072 1.363 . S
C1068 H1045 0.950 . S
C1068 C1067 1.397 . S
C1068 C1069 1.334 . S
C1069 H1046 0.950 . S
C1069 C1068 1.334 . S
C1069 C1070 1.287 . S
C1070 C1069 1.287 . S
C1070 C1071 1.524 . S
C1070 H1089 0.913 . S
C1071 H1047 0.950 . S
C1071 C1070 1.524 . S
C1071 C1072 1.415 . S
C1072 H1048 0.950 . S
C1072 C1067 1.363 . S
C1072 C1071 1.415 . S
C1073 H1049 0.951 . S
C1073 C1074 1.366 . S
C1073 C1075 1.388 . S
C1074 C1073 1.366 . S
C1074 C1078 1.385 . S
C1075 H1050 0.951 . S
C1075 C1073 1.388 . S
C1075 C1076 1.366 . S
C1076 C1075 1.366 . S
C1076 C1077 1.414 . S
C1076 C1079 1.499 . S
C1077 H1051 0.950 . S
C1077 C1076 1.414 . S
C1077 C1078 1.374 . S
C1078 H1052 0.950 . S
C1078 C1074 1.385 . S
C1078 C1077 1.374 . S
C1079 C1076 1.499 . S
C1079 C1080 1.373 . S
C1079 C1081 1.389 . S
C1080 H1053 0.950 . S
C1080 C1066 1.377 . S
C1080 C1079 1.373 . S
C1081 C1065 1.377 . S
C1081 C1079 1.389 . S
C1081 C1082 1.524 . S
C1082 C1081 1.524 . S
C1082 C1083 1.397 . S
C1082 C1087 1.363 . S
C1083 H1054 0.950 . S
C1083 C1082 1.397 . S
C1083 C1084 1.334 . S
C1084 H1055 0.950 . S
C1084 C1083 1.334 . S
C1084 C1085 1.287 . S
C1085 C1084 1.287 . S
C1085 C1086 1.524 . S
C1085 H1088 0.999 . S
C1086 H1056 0.950 . S
C1086 C1085 1.524 . S
C1086 C1087 1.415 . S
C1087 H1057 0.950 . S
C1087 C1082 1.363 . S
C1087 C1086 1.415 . S
H1088 C1085 0.999 . S
H1089 C1070 0.913 . S
H1090 C1108 0.951 . S
H1091 C1110 0.951 . S
H1092 C1112 0.950 . S
H1093 C1113 0.950 . S
H1094 C1115 0.950 . S
H1095 C1118 0.950 . S
H1096 C1119 0.950 . S
H1097 C1121 0.950 . S
H1098 C1122 0.950 . S
H1099 C1123 0.951 . S
H1100 C1125 0.951 . S
H1101 C1127 0.950 . S
H1102 C1128 0.950 . S
H1103 C1130 0.950 . S
H1104 C1133 0.950 . S
H1105 C1134 0.950 . S
H1106 C1136 0.950 . S
H1107 C1137 0.950 . S
C1108 H1090 0.951 . S
C1108 C1109 1.366 . S
C1108 C1110 1.388 . S
C1109 C1108 1.366 . S
C1109 C1113 1.385 . S
C1110 H1091 0.951 . S
C1110 C1108 1.388 . S
C1110 C1111 1.366 . S
C1111 C1110 1.366 . S
C1111 C1112 1.414 . S
C1111 C1114 1.499 . S
C1112 H1092 0.950 . S
C1112 C1111 1.414 . S
C1112 C1113 1.374 . S
C1113 H1093 0.950 . S
C1113 C1109 1.385 . S
C1113 C1112 1.374 . S
C1114 C1111 1.499 . S
C1114 C1115 1.373 . S
C1114 C1116 1.389 . S
C1115 H1094 0.950 . S
C1115 C1114 1.373 . S
C1115 C1131 1.377 . S
C1116 C1114 1.389 . S
C1116 C1117 1.524 . S
C1116 C1130 1.377 . S
C1117 C1116 1.524 . S
C1117 C1118 1.397 . S
C1117 C1122 1.363 . S
C1118 H1095 0.950 . S
C1118 C1117 1.397 . S
C1118 C1119 1.334 . S
C1119 H1096 0.950 . S
C1119 C1118 1.334 . S
C1119 C1120 1.287 . S
C1120 C1119 1.287 . S
C1120 C1121 1.524 . S
C1120 H1139 0.913 . S
C1121 H1097 0.950 . S
C1121 C1120 1.524 . S
C1121 C1122 1.415 . S
C1122 H1098 0.950 . S
C1122 C1117 1.363 . S
C1122 C1121 1.415 . S
C1123 H1099 0.951 . S
C1123 C1124 1.366 . S
C1123 C1125 1.388 . S
C1124 C1123 1.366 . S
C1124 C1128 1.385 . S
C1125 H1100 0.951 . S
C1125 C1123 1.388 . S
C1125 C1126 1.366 . S
C1126 C1125 1.366 . S
C1126 C1127 1.414 . S
C1126 C1129 1.499 . S
C1127 H1101 0.950 . S
C1127 C1126 1.414 . S
C1127 C1128 1.374 . S
C1128 H1102 0.950 . S
C1128 C1124 1.385 . S
C1128 C1127 1.374 . S
C1129 C1126 1.499 . S
C1129 C1130 1.373 . S
C1129 C1131 1.389 . S
C1130 H1103 0.950 . S
C1130 C1116 1.377 . S
C1130 C1129 1.373 . S
C1131 C1115 1.377 . S
C1131 C1129 1.389 . S
C1131 C1132 1.524 . S
C1132 C1131 1.524 . S
C1132 C1133 1.397 . S
C1132 C1137 1.363 . S
C1133 H1104 0.950 . S
C1133 C1132 1.397 . S
C1133 C1134 1.334 . S
C1134 H1105 0.950 . S
C1134 C1133 1.334 . S
C1134 C1135 1.287 . S
C1135 C1134 1.287 . S
C1135 C1136 1.524 . S
C1135 H1138 0.999 . S
C1136 H1106 0.950 . S
C1136 C1135 1.524 . S
C1136 C1137 1.415 . S
C1137 H1107 0.950 . S
C1137 C1132 1.363 . S
C1137 C1136 1.415 . S
H1138 C1135 0.999 . S
H1139 C1120 0.913 . S
H1140 C1158 0.951 . S
H1141 C1160 0.951 . S
H1142 C1162 0.950 . S
H1143 C1163 0.950 . S
H1144 C1165 0.950 . S
H1145 C1168 0.950 . S
H1146 C1169 0.950 . S
H1147 C1171 0.950 . S
H1148 C1172 0.950 . S
H1149 C1173 0.951 . S
H1150 C1175 0.951 . S
H1151 C1177 0.950 . S
H1152 C1178 0.950 . S
H1153 C1180 0.950 . S
H1154 C1183 0.950 . S
H1155 C1184 0.950 . S
H1156 C1186 0.950 . S
H1157 C1187 0.950 . S
C1158 H1140 0.951 . S
C1158 C1159 1.366 . S
C1158 C1160 1.388 . S
C1159 C1158 1.366 . S
C1159 C1163 1.385 . S
C1160 H1141 0.951 . S
C1160 C1158 1.388 . S
C1160 C1161 1.366 . S
C1161 C1160 1.366 . S
C1161 C1162 1.414 . S
C1161 C1164 1.499 . S
C1162 H1142 0.950 . S
C1162 C1161 1.414 . S
C1162 C1163 1.374 . S
C1163 H1143 0.950 . S
C1163 C1159 1.385 . S
C1163 C1162 1.374 . S
C1164 C1161 1.499 . S
C1164 C1165 1.373 . S
C1164 C1166 1.389 . S
C1165 H1144 0.950 . S
C1165 C1164 1.373 . S
C1165 C1181 1.377 . S
C1166 C1164 1.389 . S
C1166 C1167 1.524 . S
C1166 C1180 1.377 . S
C1167 C1166 1.524 . S
C1167 C1168 1.397 . S
C1167 C1172 1.363 . S
C1168 H1145 0.950 . S
C1168 C1167 1.397 . S
C1168 C1169 1.334 . S
C1169 H1146 0.950 . S
C1169 C1168 1.334 . S
C1169 C1170 1.287 . S
C1170 C1169 1.287 . S
C1170 C1171 1.524 . S
C1170 H1189 0.913 . S
C1171 H1147 0.950 . S
C1171 C1170 1.524 . S
C1171 C1172 1.415 . S
C1172 H1148 0.950 . S
C1172 C1167 1.363 . S
C1172 C1171 1.415 . S
C1173 H1149 0.951 . S
C1173 C1174 1.366 . S
C1173 C1175 1.388 . S
C1174 C1173 1.366 . S
C1174 C1178 1.385 . S
C1175 H1150 0.951 . S
C1175 C1173 1.388 . S
C1175 C1176 1.366 . S
C1176 C1175 1.366 . S
C1176 C1177 1.414 . S
C1176 C1179 1.499 . S
C1177 H1151 0.950 . S
C1177 C1176 1.414 . S
C1177 C1178 1.374 . S
C1178 H1152 0.950 . S
C1178 C1174 1.385 . S
C1178 C1177 1.374 . S
C1179 C1176 1.499 . S
C1179 C1180 1.373 . S
C1179 C1181 1.389 . S
C1180 H1153 0.950 . S
C1180 C1166 1.377 . S
C1180 C1179 1.373 . S
C1181 C1165 1.377 . S
C1181 C1179 1.389 . S
C1181 C1182 1.524 . S
C1182 C1181 1.524 . S
C1182 C1183 1.397 . S
C1182 C1187 1.363 . S
C1183 H1154 0.950 . S
C1183 C1182 1.397 . S
C1183 C1184 1.334 . S
C1184 H1155 0.950 . S
C1184 C1183 1.334 . S
C1184 C1185 1.287 . S
C1185 C1184 1.287 . S
C1185 C1186 1.524 . S
C1185 H1188 0.999 . S
C1186 H1156 0.950 . S
C1186 C1185 1.524 . S
C1186 C1187 1.415 . S
C1187 H1157 0.950 . S
C1187 C1182 1.363 . S
C1187 C1186 1.415 . S
H1188 C1185 0.999 . S
H1189 C1170 0.913 . S
H1190 C1208 0.951 . S
H1191 C1210 0.951 . S
H1192 C1212 0.950 . S
H1193 C1213 0.950 . S
H1194 C1215 0.950 . S
H1195 C1218 0.950 . S
H1196 C1219 0.950 . S
H1197 C1221 0.950 . S
H1198 C1222 0.950 . S
H1199 C1223 0.951 . S
H1200 C1225 0.951 . S
H1201 C1227 0.950 . S
H1202 C1228 0.950 . S
H1203 C1230 0.950 . S
H1204 C1233 0.950 . S
H1205 C1234 0.950 . S
H1206 C1236 0.950 . S
H1207 C1237 0.950 . S
C1208 H1190 0.951 . S
C1208 C1209 1.366 . S
C1208 C1210 1.388 . S
C1209 C1208 1.366 . S
C1209 C1213 1.385 . S
C1210 H1191 0.951 . S
C1210 C1208 1.388 . S
C1210 C1211 1.366 . S
C1211 C1210 1.366 . S
C1211 C1212 1.414 . S
C1211 C1214 1.499 . S
C1212 H1192 0.950 . S
C1212 C1211 1.414 . S
C1212 C1213 1.374 . S
C1213 H1193 0.950 . S
C1213 C1209 1.385 . S
C1213 C1212 1.374 . S
C1214 C1211 1.499 . S
C1214 C1215 1.373 . S
C1214 C1216 1.389 . S
C1215 H1194 0.950 . S
C1215 C1214 1.373 . S
C1215 C1231 1.377 . S
C1216 C1214 1.389 . S
C1216 C1217 1.524 . S
C1216 C1230 1.377 . S
C1217 C1216 1.524 . S
C1217 C1218 1.397 . S
C1217 C1222 1.363 . S
C1218 H1195 0.950 . S
C1218 C1217 1.397 . S
C1218 C1219 1.334 . S
C1219 H1196 0.950 . S
C1219 C1218 1.334 . S
C1219 C1220 1.287 . S
C1220 C1219 1.287 . S
C1220 C1221 1.524 . S
C1220 H1239 0.913 . S
C1221 H1197 0.950 . S
C1221 C1220 1.524 . S
C1221 C1222 1.415 . S
C1222 H1198 0.950 . S
C1222 C1217 1.363 . S
C1222 C1221 1.415 . S
C1223 H1199 0.951 . S
C1223 C1224 1.366 . S
C1223 C1225 1.388 . S
C1224 C1223 1.366 . S
C1224 C1228 1.385 . S
C1225 H1200 0.951 . S
C1225 C1223 1.388 . S
C1225 C1226 1.366 . S
C1226 C1225 1.366 . S
C1226 C1227 1.414 . S
C1226 C1229 1.499 . S
C1227 H1201 0.950 . S
C1227 C1226 1.414 . S
C1227 C1228 1.374 . S
C1228 H1202 0.950 . S
C1228 C1224 1.385 . S
C1228 C1227 1.374 . S
C1229 C1226 1.499 . S
C1229 C1230 1.373 . S
C1229 C1231 1.389 . S
C1230 H1203 0.950 . S
C1230 C1216 1.377 . S
C1230 C1229 1.373 . S
C1231 C1215 1.377 . S
C1231 C1229 1.389 . S
C1231 C1232 1.524 . S
C1232 C1231 1.524 . S
C1232 C1233 1.397 . S
C1232 C1237 1.363 . S
C1233 H1204 0.950 . S
C1233 C1232 1.397 . S
C1233 C1234 1.334 . S
C1234 H1205 0.950 . S
C1234 C1233 1.334 . S
C1234 C1235 1.287 . S
C1235 C1234 1.287 . S
C1235 C1236 1.524 . S
C1235 H1238 0.999 . S
C1236 H1206 0.950 . S
C1236 C1235 1.524 . S
C1236 C1237 1.415 . S
C1237 H1207 0.950 . S
C1237 C1232 1.363 . S
C1237 C1236 1.415 . S
H1238 C1235 0.999 . S
H1239 C1220 0.913 . S
H1240 C1258 0.951 . S
H1241 C1260 0.951 . S
H1242 C1262 0.950 . S
H1243 C1263 0.950 . S
H1244 C1265 0.950 . S
H1245 C1268 0.950 . S
H1246 C1269 0.950 . S
H1247 C1271 0.950 . S
H1248 C1272 0.950 . S
H1249 C1273 0.951 . S
H1250 C1275 0.951 . S
H1251 C1277 0.950 . S
H1252 C1278 0.950 . S
H1253 C1280 0.950 . S
H1254 C1283 0.950 . S
H1255 C1284 0.950 . S
H1256 C1286 0.950 . S
H1257 C1287 0.950 . S
C1258 H1240 0.951 . S
C1258 C1259 1.366 . S
C1258 C1260 1.388 . S
C1259 C1258 1.366 . S
C1259 C1263 1.385 . S
C1260 H1241 0.951 . S
C1260 C1258 1.388 . S
C1260 C1261 1.366 . S
C1261 C1260 1.366 . S
C1261 C1262 1.414 . S
C1261 C1264 1.499 . S
C1262 H1242 0.950 . S
C1262 C1261 1.414 . S
C1262 C1263 1.374 . S
C1263 H1243 0.950 . S
C1263 C1259 1.385 . S
C1263 C1262 1.374 . S
C1264 C1261 1.499 . S
C1264 C1265 1.373 . S
C1264 C1266 1.389 . S
C1265 H1244 0.950 . S
C1265 C1264 1.373 . S
C1265 C1281 1.377 . S
C1266 C1264 1.389 . S
C1266 C1267 1.524 . S
C1266 C1280 1.377 . S
C1267 C1266 1.524 . S
C1267 C1268 1.397 . S
C1267 C1272 1.363 . S
C1268 H1245 0.950 . S
C1268 C1267 1.397 . S
C1268 C1269 1.334 . S
C1269 H1246 0.950 . S
C1269 C1268 1.334 . S
C1269 C1270 1.287 . S
C1270 C1269 1.287 . S
C1270 C1271 1.524 . S
C1270 H1289 0.913 . S
C1271 H1247 0.950 . S
C1271 C1270 1.524 . S
C1271 C1272 1.415 . S
C1272 H1248 0.950 . S
C1272 C1267 1.363 . S
C1272 C1271 1.415 . S
C1273 H1249 0.951 . S
C1273 C1274 1.366 . S
C1273 C1275 1.388 . S
C1274 C1273 1.366 . S
C1274 C1278 1.385 . S
C1275 H1250 0.951 . S
C1275 C1273 1.388 . S
C1275 C1276 1.366 . S
C1276 C1275 1.366 . S
C1276 C1277 1.414 . S
C1276 C1279 1.499 . S
C1277 H1251 0.950 . S
C1277 C1276 1.414 . S
C1277 C1278 1.374 . S
C1278 H1252 0.950 . S
C1278 C1274 1.385 . S
C1278 C1277 1.374 . S
C1279 C1276 1.499 . S
C1279 C1280 1.373 . S
C1279 C1281 1.389 . S
C1280 H1253 0.950 . S
C1280 C1266 1.377 . S
C1280 C1279 1.373 . S
C1281 C1265 1.377 . S
C1281 C1279 1.389 . S
C1281 C1282 1.524 . S
C1282 C1281 1.524 . S
C1282 C1283 1.397 . S
C1282 C1287 1.363 . S
C1283 H1254 0.950 . S
C1283 C1282 1.397 . S
C1283 C1284 1.334 . S
C1284 H1255 0.950 . S
C1284 C1283 1.334 . S
C1284 C1285 1.287 . S
C1285 C1284 1.287 . S
C1285 C1286 1.524 . S
C1285 H1288 0.999 . S
C1286 H1256 0.950 . S
C1286 C1285 1.524 . S
C1286 C1287 1.415 . S
C1287 H1257 0.950 . S
C1287 C1282 1.363 . S
C1287 C1286 1.415 . S
H1288 C1285 0.999 . S
H1289 C1270 0.913 . S
H1290 C1308 0.951 . S
H1291 C1310 0.951 . S
H1292 C1312 0.950 . S
H1293 C1313 0.950 . S
H1294 C1315 0.950 . S
H1295 C1318 0.950 . S
H1296 C1319 0.950 . S
H1297 C1321 0.950 . S
H1298 C1322 0.950 . S
H1299 C1323 0.951 . S
H1300 C1325 0.951 . S
H1301 C1327 0.950 . S
H1302 C1328 0.950 . S
H1303 C1330 0.950 . S
H1304 C1333 0.950 . S
H1305 C1334 0.950 . S
H1306 C1336 0.950 . S
H1307 C1337 0.950 . S
C1308 H1290 0.951 . S
C1308 C1309 1.366 . S
C1308 C1310 1.388 . S
C1309 C1308 1.366 . S
C1309 C1313 1.385 . S
C1310 H1291 0.951 . S
C1310 C1308 1.388 . S
C1310 C1311 1.366 . S
C1311 C1310 1.366 . S
C1311 C1312 1.414 . S
C1311 C1314 1.499 . S
C1312 H1292 0.950 . S
C1312 C1311 1.414 . S
C1312 C1313 1.374 . S
C1313 H1293 0.950 . S
C1313 C1309 1.385 . S
C1313 C1312 1.374 . S
C1314 C1311 1.499 . S
C1314 C1315 1.373 . S
C1314 C1316 1.389 . S
C1315 H1294 0.950 . S
C1315 C1314 1.373 . S
C1315 C1331 1.377 . S
C1316 C1314 1.389 . S
C1316 C1317 1.524 . S
C1316 C1330 1.377 . S
C1317 C1316 1.524 . S
C1317 C1318 1.397 . S
C1317 C1322 1.363 . S
C1318 H1295 0.950 . S
C1318 C1317 1.397 . S
C1318 C1319 1.334 . S
C1319 H1296 0.950 . S
C1319 C1318 1.334 . S
C1319 C1320 1.287 . S
C1320 C1319 1.287 . S
C1320 C1321 1.524 . S
C1320 H1339 0.913 . S
C1321 H1297 0.950 . S
C1321 C1320 1.524 . S
C1321 C1322 1.415 . S
C1322 H1298 0.950 . S
C1322 C1317 1.363 . S
C1322 C1321 1.415 . S
C1323 H1299 0.951 . S
C1323 C1324 1.366 . S
C1323 C1325 1.388 . S
C1324 C1323 1.366 . S
C1324 C1328 1.385 . S
C1325 H1300 0.951 . S
C1325 C1323 1.388 . S
C1325 C1326 1.366 . S
C1326 C1325 1.366 . S
C1326 C1327 1.414 . S
C1326 C1329 1.499 . S
C1327 H1301 0.950 . S
C1327 C1326 1.414 . S
C1327 C1328 1.374 . S
C1328 H1302 0.950 . S
C1328 C1324 1.385 . S
C1328 C1327 1.374 . S
C1329 C1326 1.499 . S
C1329 C1330 1.373 . S
C1329 C1331 1.389 . S
C1330 H1303 0.950 . S
C1330 C1316 1.377 . S
C1330 C1329 1.373 . S
C1331 C1315 1.377 . S
C1331 C1329 1.389 . S
C1331 C1332 1.524 . S
C1332 C1331 1.524 . S
C1332 C1333 1.397 . S
C1332 C1337 1.363 . S
C1333 H1304 0.950 . S
C1333 C1332 1.397 . S
C1333 C1334 1.334 . S
C1334 H1305 0.950 . S
C1334 C1333 1.334 . S
C1334 C1335 1.287 . S
C1335 C1334 1.287 . S
C1335 C1336 1.524 . S
C1335 H1338 0.999 . S
C1336 H1306 0.950 . S
C1336 C1335 1.524 . S
C1336 C1337 1.415 . S
C1337 H1307 0.950 . S
C1337 C1332 1.363 . S
C1337 C1336 1.415 . S
H1338 C1335 0.999 . S
H1339 C1320 0.913 . S
H1340 C1358 0.951 . S
H1341 C1360 0.951 . S
H1342 C1362 0.950 . S
H1343 C1363 0.950 . S
H1344 C1365 0.950 . S
H1345 C1368 0.950 . S
H1346 C1369 0.950 . S
H1347 C1371 0.950 . S
H1348 C1372 0.950 . S
H1349 C1373 0.951 . S
H1350 C1375 0.951 . S
H1351 C1377 0.950 . S
H1352 C1378 0.950 . S
H1353 C1380 0.950 . S
H1354 C1383 0.950 . S
H1355 C1384 0.950 . S
H1356 C1386 0.950 . S
H1357 C1387 0.950 . S
C1358 H1340 0.951 . S
C1358 C1359 1.366 . S
C1358 C1360 1.388 . S
C1359 C1358 1.366 . S
C1359 C1363 1.385 . S
C1360 H1341 0.951 . S
C1360 C1358 1.388 . S
C1360 C1361 1.366 . S
C1361 C1360 1.366 . S
C1361 C1362 1.414 . S
C1361 C1364 1.499 . S
C1362 H1342 0.950 . S
C1362 C1361 1.414 . S
C1362 C1363 1.374 . S
C1363 H1343 0.950 . S
C1363 C1359 1.385 . S
C1363 C1362 1.374 . S
C1364 C1361 1.499 . S
C1364 C1365 1.373 . S
C1364 C1366 1.389 . S
C1365 H1344 0.950 . S
C1365 C1364 1.373 . S
C1365 C1381 1.377 . S
C1366 C1364 1.389 . S
C1366 C1367 1.524 . S
C1366 C1380 1.377 . S
C1367 C1366 1.524 . S
C1367 C1368 1.397 . S
C1367 C1372 1.363 . S
C1368 H1345 0.950 . S
C1368 C1367 1.397 . S
C1368 C1369 1.334 . S
C1369 H1346 0.950 . S
C1369 C1368 1.334 . S
C1369 C1370 1.287 . S
C1370 C1369 1.287 . S
C1370 C1371 1.524 . S
C1370 H1389 0.913 . S
C1371 H1347 0.950 . S
C1371 C1370 1.524 . S
C1371 C1372 1.415 . S
C1372 H1348 0.950 . S
C1372 C1367 1.363 . S
C1372 C1371 1.415 . S
C1373 H1349 0.951 . S
C1373 C1374 1.366 . S
C1373 C1375 1.388 . S
C1374 C1373 1.366 . S
C1374 C1378 1.385 . S
C1375 H1350 0.951 . S
C1375 C1373 1.388 . S
C1375 C1376 1.366 . S
C1376 C1375 1.366 . S
C1376 C1377 1.414 . S
C1376 C1379 1.499 . S
C1377 H1351 0.950 . S
C1377 C1376 1.414 . S
C1377 C1378 1.374 . S
C1378 H1352 0.950 . S
C1378 C1374 1.385 . S
C1378 C1377 1.374 . S
C1379 C1376 1.499 . S
C1379 C1380 1.373 . S
C1379 C1381 1.389 . S
C1380 H1353 0.950 . S
C1380 C1366 1.377 . S
C1380 C1379 1.373 . S
C1381 C1365 1.377 . S
C1381 C1379 1.389 . S
C1381 C1382 1.524 . S
C1382 C1381 1.524 . S
C1382 C1383 1.397 . S
C1382 C1387 1.363 . S
C1383 H1354 0.950 . S
C1383 C1382 1.397 . S
C1383 C1384 1.334 . S
C1384 H1355 0.950 . S
C1384 C1383 1.334 . S
C1384 C1385 1.287 . S
C1385 C1384 1.287 . S
C1385 C1386 1.524 . S
C1385 H1388 0.999 . S
C1386 H1356 0.950 . S
C1386 C1385 1.524 . S
C1386 C1387 1.415 . S
C1387 H1357 0.950 . S
C1387 C1382 1.363 . S
C1387 C1386 1.415 . S
H1388 C1385 0.999 . S
H1389 C1370 0.913 . S
H1390 C1408 0.951 . S
H1391 C1410 0.951 . S
H1392 C1412 0.950 . S
H1393 C1413 0.950 . S
H1394 C1415 0.950 . S
H1395 C1418 0.950 . S
H1396 C1419 0.950 . S
H1397 C1421 0.950 . S
H1398 C1422 0.950 . S
H1399 C1423 0.951 . S
H1400 C1425 0.951 . S
H1401 C1427 0.950 . S
H1402 C1428 0.950 . S
H1403 C1430 0.950 . S
H1404 C1433 0.950 . S
H1405 C1434 0.950 . S
H1406 C1436 0.950 . S
H1407 C1437 0.950 . S
C1408 H1390 0.951 . S
C1408 C1409 1.366 . S
C1408 C1410 1.388 . S
C1409 C1408 1.366 . S
C1409 C1413 1.385 . S
C1410 H1391 0.951 . S
C1410 C1408 1.388 . S
C1410 C1411 1.366 . S
C1411 C1410 1.366 . S
C1411 C1412 1.414 . S
C1411 C1414 1.499 . S
C1412 H1392 0.950 . S
C1412 C1411 1.414 . S
C1412 C1413 1.374 . S
C1413 H1393 0.950 . S
C1413 C1409 1.385 . S
C1413 C1412 1.374 . S
C1414 C1411 1.499 . S
C1414 C1415 1.373 . S
C1414 C1416 1.389 . S
C1415 H1394 0.950 . S
C1415 C1414 1.373 . S
C1415 C1431 1.377 . S
C1416 C1414 1.389 . S
C1416 C1417 1.524 . S
C1416 C1430 1.377 . S
C1417 C1416 1.524 . S
C1417 C1418 1.397 . S
C1417 C1422 1.363 . S
C1418 H1395 0.950 . S
C1418 C1417 1.397 . S
C1418 C1419 1.334 . S
C1419 H1396 0.950 . S
C1419 C1418 1.334 . S
C1419 C1420 1.287 . S
C1420 C1419 1.287 . S
C1420 C1421 1.524 . S
C1420 H1439 0.913 . S
C1421 H1397 0.950 . S
C1421 C1420 1.524 . S
C1421 C1422 1.415 . S
C1422 H1398 0.950 . S
C1422 C1417 1.363 . S
C1422 C1421 1.415 . S
C1423 H1399 0.951 . S
C1423 C1424 1.366 . S
C1423 C1425 1.388 . S
C1424 C1423 1.366 . S
C1424 C1428 1.385 . S
C1425 H1400 0.951 . S
C1425 C1423 1.388 . S
C1425 C1426 1.366 . S
C1426 C1425 1.366 . S
C1426 C1427 1.414 . S
C1426 C1429 1.499 . S
C1427 H1401 0.950 . S
C1427 C1426 1.414 . S
C1427 C1428 1.374 . S
C1428 H1402 0.950 . S
C1428 C1424 1.385 . S
C1428 C1427 1.374 . S
C1429 C1426 1.499 . S
C1429 C1430 1.373 . S
C1429 C1431 1.389 . S
C1430 H1403 0.950 . S
C1430 C1416 1.377 . S
C1430 C1429 1.373 . S
C1431 C1415 1.377 . S
C1431 C1429 1.389 . S
C1431 C1432 1.524 . S
C1432 C1431 1.524 . S
C1432 C1433 1.397 . S
C1432 C1437 1.363 . S
C1433 H1404 0.950 . S
C1433 C1432 1.397 . S
C1433 C1434 1.334 . S
C1434 H1405 0.950 . S
C1434 C1433 1.334 . S
C1434 C1435 1.287 . S
C1435 C1434 1.287 . S
C1435 C1436 1.524 . S
C1435 H1438 0.999 . S
C1436 H1406 0.950 . S
C1436 C1435 1.524 . S
C1436 C1437 1.415 . S
C1437 H1407 0.950 . S
C1437 C1432 1.363 . S
C1437 C1436 1.415 . S
H1438 C1435 0.999 . S
H1439 C1420 0.913 . S
H1440 C1458 0.951 . S
H1441 C1460 0.951 . S
H1442 C1462 0.950 . S
H1443 C1463 0.950 . S
H1444 C1465 0.950 . S
H1445 C1468 0.950 . S
H1446 C1469 0.950 . S
H1447 C1471 0.950 . S
H1448 C1472 0.950 . S
H1449 C1473 0.951 . S
H1450 C1475 0.951 . S
H1451 C1477 0.950 . S
H1452 C1478 0.950 . S
H1453 C1480 0.950 . S
H1454 C1483 0.950 . S
H1455 C1484 0.950 . S
H1456 C1486 0.950 . S
H1457 C1487 0.950 . S
C1458 H1440 0.951 . S
C1458 C1459 1.366 . S
C1458 C1460 1.388 . S
C1459 C1458 1.366 . S
C1459 C1463 1.385 . S
C1460 H1441 0.951 . S
C1460 C1458 1.388 . S
C1460 C1461 1.366 . S
C1461 C1460 1.366 . S
C1461 C1462 1.414 . S
C1461 C1464 1.499 . S
C1462 H1442 0.950 . S
C1462 C1461 1.414 . S
C1462 C1463 1.374 . S
C1463 H1443 0.950 . S
C1463 C1459 1.385 . S
C1463 C1462 1.374 . S
C1464 C1461 1.499 . S
C1464 C1465 1.373 . S
C1464 C1466 1.389 . S
C1465 H1444 0.950 . S
C1465 C1464 1.373 . S
C1465 C1481 1.377 . S
C1466 C1464 1.389 . S
C1466 C1467 1.524 . S
C1466 C1480 1.377 . S
C1467 C1466 1.524 . S
C1467 C1468 1.397 . S
C1467 C1472 1.363 . S
C1468 H1445 0.950 . S
C1468 C1467 1.397 . S
C1468 C1469 1.334 . S
C1469 H1446 0.950 . S
C1469 C1468 1.334 . S
C1469 C1470 1.287 . S
C1470 C1469 1.287 . S
C1470 C1471 1.524 . S
C1470 H1489 0.913 . S
C1471 H1447 0.950 . S
C1471 C1470 1.524 . S
C1471 C1472 1.415 . S
C1472 H1448 0.950 . S
C1472 C1467 1.363 . S
C1472 C1471 1.415 . S
C1473 H1449 0.951 . S
C1473 C1474 1.366 . S
C1473 C1475 1.388 . S
C1474 C1473 1.366 . S
C1474 C1478 1.385 . S
C1475 H1450 0.951 . S
C1475 C1473 1.388 . S
C1475 C1476 1.366 . S
C1476 C1475 1.366 . S
C1476 C1477 1.414 . S
C1476 C1479 1.499 . S
C1477 H1451 0.950 . S
C1477 C1476 1.414 . S
C1477 C1478 1.374 . S
C1478 H1452 0.950 . S
C1478 C1474 1.385 . S
C1478 C1477 1.374 . S
C1479 C1476 1.499 . S
C1479 C1480 1.373 . S
C1479 C1481 1.389 . S
C1480 H1453 0.950 . S
C1480 C1466 1.377 . S
C1480 C1479 1.373 . S
C1481 C1465 1.377 . S
C1481 C1479 1.389 . S
C1481 C1482 1.524 . S
C1482 C1481 1.524 . S
C1482 C1483 1.397 . S
C1482 C1487 1.363 . S
C1483 H1454 0.950 . S
C1483 C1482 1.397 . S
C1483 C1484 1.334 . S
C1484 H1455 0.950 . S
C1484 C1483 1.334 . S
C1484 C1485 1.287 . S
C1485 C1484 1.287 . S
C1485 C1486 1.524 . S
C1485 H1488 0.999 . S
C1486 H1456 0.950 . S
C1486 C1485 1.524 . S
C1486 C1487 1.415 . S
C1487 H1457 0.950 . S
C1487 C1482 1.363 . S
C1487 C1486 1.415 . S
H1488 C1485 0.999 . S
H1489 C1470 0.913 . S
H1490 C1508 0.951 . S
H1491 C1510 0.951 . S
H1492 C1512 0.950 . S
H1493 C1513 0.950 . S
H1494 C1515 0.950 . S
H1495 C1518 0.950 . S
H1496 C1519 0.950 . S
H1497 C1521 0.950 . S
H1498 C1522 0.950 . S
H1499 C1523 0.951 . S
H1500 C1525 0.951 . S
H1501 C1527 0.950 . S
H1502 C1528 0.950 . S
H1503 C1530 0.950 . S
H1504 C1533 0.950 . S
H1505 C1534 0.950 . S
H1506 C1536 0.950 . S
H1507 C1537 0.950 . S
C1508 H1490 0.951 . S
C1508 C1509 1.366 . S
C1508 C1510 1.388 . S
C1509 C1508 1.366 . S
C1509 C1513 1.385 . S
C1510 H1491 0.951 . S
C1510 C1508 1.388 . S
C1510 C1511 1.366 . S
C1511 C1510 1.366 . S
C1511 C1512 1.414 . S
C1511 C1514 1.499 . S
C1512 H1492 0.950 . S
C1512 C1511 1.414 . S
C1512 C1513 1.374 . S
C1513 H1493 0.950 . S
C1513 C1509 1.385 . S
C1513 C1512 1.374 . S
C1514 C1511 1.499 . S
C1514 C1515 1.373 . S
C1514 C1516 1.389 . S
C1515 H1494 0.950 . S
C1515 C1514 1.373 . S
C1515 C1531 1.377 . S
C1516 C1514 1.389 . S
C1516 C1517 1.524 . S
C1516 C1530 1.377 . S
C1517 C1516 1.524 . S
C1517 C1518 1.397 . S
C1517 C1522 1.363 . S
C1518 H1495 0.950 . S
C1518 C1517 1.397 . S
C1518 C1519 1.334 . S
C1519 H1496 0.950 . S
C1519 C1518 1.334 . S
C1519 C1520 1.287 . S
C1520 C1519 1.287 . S
C1520 C1521 1.524 . S
C1520 H1539 0.913 . S
C1521 H1497 0.950 . S
C1521 C1520 1.524 . S
C1521 C1522 1.415 . S
C1522 H1498 0.950 . S
C1522 C1517 1.363 . S
C1522 C1521 1.415 . S
C1523 H1499 0.951 . S
C1523 C1524 1.366 . S
C1523 C1525 1.388 . S
C1524 C1523 1.366 . S
C1524 C1528 1.385 . S
C1525 H1500 0.951 . S
C1525 C1523 1.388 . S
C1525 C1526 1.366 . S
C1526 C1525 1.366 . S
C1526 C1527 1.414 . S
C1526 C1529 1.499 . S
C1527 H1501 0.950 . S
C1527 C1526 1.414 . S
C1527 C1528 1.374 . S
C1528 H1502 0.950 . S
C1528 C1524 1.385 . S
C1528 C1527 1.374 . S
C1529 C1526 1.499 . S
C1529 C1530 1.373 . S
C1529 C1531 1.389 . S
C1530 H1503 0.950 . S
C1530 C1516 1.377 . S
C1530 C1529 1.373 . S
C1531 C1515 1.377 . S
C1531 C1529 1.389 . S
C1531 C1532 1.524 . S
C1532 C1531 1.524 . S
C1532 C1533 1.397 . S
C1532 C1537 1.363 . S
C1533 H1504 0.950 . S
C1533 C1532 1.397 . S
C1533 C1534 1.334 . S
C1534 H1505 0.950 . S
C1534 C1533 1.334 . S
C1534 C1535 1.287 . S
C1535 C1534 1.287 . S
C1535 C1536 1.524 . S
C1535 H1538 0.999 . S
C1536 H1506 0.950 . S
C1536 C1535 1.524 . S
C1536 C1537 1.415 . S
C1537 H1507 0.950 . S
C1537 C1532 1.363 . S
C1537 C1536 1.415 . S
H1538 C1535 0.999 . S
H1539 C1520 0.913 . S
H1540 C1558 0.951 . S
H1541 C1560 0.951 . S
H1542 C1562 0.950 . S
H1543 C1563 0.950 . S
H1544 C1565 0.950 . S
H1545 C1568 0.950 . S
H1546 C1569 0.950 . S
H1547 C1571 0.950 . S
H1548 C1572 0.950 . S
H1549 C1573 0.951 . S
H1550 C1575 0.951 . S
H1551 C1577 0.950 . S
H1552 C1578 0.950 . S
H1553 C1580 0.950 . S
H1554 C1583 0.950 . S
H1555 C1584 0.950 . S
H1556 C1586 0.950 . S
H1557 C1587 0.950 . S
C1558 H1540 0.951 . S
C1558 C1559 1.366 . S
C1558 C1560 1.388 . S
C1559 C1558 1.366 . S
C1559 C1563 1.385 . S
C1560 H1541 0.951 . S
C1560 C1558 1.388 . S
C1560 C1561 1.366 . S
C1561 C1560 1.366 . S
C1561 C1562 1.414 . S
C1561 C1564 1.499 . S
C1562 H1542 0.950 . S
C1562 C1561 1.414 . S
C1562 C1563 1.374 . S
C1563 H1543 0.950 . S
C1563 C1559 1.385 . S
C1563 C1562 1.374 . S
C1564 C1561 1.499 . S
C1564 C1565 1.373 . S
C1564 C1566 1.389 . S
C1565 H1544 0.950 . S
C1565 C1564 1.373 . S
C1565 C1581 1.377 . S
C1566 C1564 1.389 . S
C1566 C1567 1.524 . S
C1566 C1580 1.377 . S
C1567 C1566 1.524 . S
C1567 C1568 1.397 . S
C1567 C1572 1.363 . S
C1568 H1545 0.950 . S
C1568 C1567 1.397 . S
C1568 C1569 1.334 . S
C1569 H1546 0.950 . S
C1569 C1568 1.334 . S
C1569 C1570 1.287 . S
C1570 C1569 1.287 . S
C1570 C1571 1.524 . S
C1570 H1589 0.913 . S
C1571 H1547 0.950 . S
C1571 C1570 1.524 . S
C1571 C1572 1.415 . S
C1572 H1548 0.950 . S
C1572 C1567 1.363 . S
C1572 C1571 1.415 . S
C1573 H1549 0.951 . S
C1573 C1574 1.366 . S
C1573 C1575 1.388 . S
C1574 C1573 1.366 . S
C1574 C1578 1.385 . S
C1575 H1550 0.951 . S
C1575 C1573 1.388 . S
C1575 C1576 1.366 . S
C1576 C1575 1.366 . S
C1576 C1577 1.414 . S
C1576 C1579 1.499 . S
C1577 H1551 0.950 . S
C1577 C1576 1.414 . S
C1577 C1578 1.374 . S
C1578 H1552 0.950 . S
C1578 C1574 1.385 . S
C1578 C1577 1.374 . S
C1579 C1576 1.499 . S
C1579 C1580 1.373 . S
C1579 C1581 1.389 . S
C1580 H1553 0.950 . S
C1580 C1566 1.377 . S
C1580 C1579 1.373 . S
C1581 C1565 1.377 . S
C1581 C1579 1.389 . S
C1581 C1582 1.524 . S
C1582 C1581 1.524 . S
C1582 C1583 1.397 . S
C1582 C1587 1.363 . S
C1583 H1554 0.950 . S
C1583 C1582 1.397 . S
C1583 C1584 1.334 . S
C1584 H1555 0.950 . S
C1584 C1583 1.334 . S
C1584 C1585 1.287 . S
C1585 C1584 1.287 . S
C1585 C1586 1.524 . S
C1585 H1588 0.999 . S
C1586 H1556 0.950 . S
C1586 C1585 1.524 . S
C1586 C1587 1.415 . S
C1587 H1557 0.950 . S
C1587 C1582 1.363 . S
C1587 C1586 1.415 . S
H1588 C1585 0.999 . S
H1589 C1570 0.913 . S
H1590 C1608 0.951 . S
H1591 C1610 0.951 . S
H1592 C1612 0.950 . S
H1593 C1613 0.950 . S
H1594 C1615 0.950 . S
H1595 C1618 0.950 . S
H1596 C1619 0.950 . S
H1597 C1621 0.950 . S
H1598 C1622 0.950 . S
H1599 C1623 0.951 . S
H1600 C1625 0.951 . S
H1601 C1627 0.950 . S
H1602 C1628 0.950 . S
H1603 C1630 0.950 . S
H1604 C1633 0.950 . S
H1605 C1634 0.950 . S
H1606 C1636 0.950 . S
H1607 C1637 0.950 . S
C1608 H1590 0.951 . S
C1608 C1609 1.366 . S
C1608 C1610 1.388 . S
C1609 C1608 1.366 . S
C1609 C1613 1.385 . S
C1610 H1591 0.951 . S
C1610 C1608 1.388 . S
C1610 C1611 1.366 . S
C1611 C1610 1.366 . S
C1611 C1612 1.414 . S
C1611 C1614 1.499 . S
C1612 H1592 0.950 . S
C1612 C1611 1.414 . S
C1612 C1613 1.374 . S
C1613 H1593 0.950 . S
C1613 C1609 1.385 . S
C1613 C1612 1.374 . S
C1614 C1611 1.499 . S
C1614 C1615 1.373 . S
C1614 C1616 1.389 . S
C1615 H1594 0.950 . S
C1615 C1614 1.373 . S
C1615 C1631 1.377 . S
C1616 C1614 1.389 . S
C1616 C1617 1.524 . S
C1616 C1630 1.377 . S
C1617 C1616 1.524 . S
C1617 C1618 1.397 . S
C1617 C1622 1.363 . S
C1618 H1595 0.950 . S
C1618 C1617 1.397 . S
C1618 C1619 1.334 . S
C1619 H1596 0.950 . S
C1619 C1618 1.334 . S
C1619 C1620 1.287 . S
C1620 C1619 1.287 . S
C1620 C1621 1.524 . S
C1620 H1639 0.913 . S
C1621 H1597 0.950 . S
C1621 C1620 1.524 . S
C1621 C1622 1.415 . S
C1622 H1598 0.950 . S
C1622 C1617 1.363 . S
C1622 C1621 1.415 . S
C1623 H1599 0.951 . S
C1623 C1624 1.366 . S
C1623 C1625 1.388 . S
C1624 C1623 1.366 . S
C1624 C1628 1.385 . S
C1625 H1600 0.951 . S
C1625 C1623 1.388 . S
C1625 C1626 1.366 . S
C1626 C1625 1.366 . S
C1626 C1627 1.414 . S
C1626 C1629 1.499 . S
C1627 H1601 0.950 . S
C1627 C1626 1.414 . S
C1627 C1628 1.374 . S
C1628 H1602 0.950 . S
C1628 C1624 1.385 . S
C1628 C1627 1.374 . S
C1629 C1626 1.499 . S
C1629 C1630 1.373 . S
C1629 C1631 1.389 . S
C1630 H1603 0.950 . S
C1630 C1616 1.377 . S
C1630 C1629 1.373 . S
C1631 C1615 1.377 . S
C1631 C1629 1.389 . S
C1631 C1632 1.524 . S
C1632 C1631 1.524 . S
C1632 C1633 1.397 . S
C1632 C1637 1.363 . S
C1633 H1604 0.950 . S
C1633 C1632 1.397 . S
C1633 C1634 1.334 . S
C1634 H1605 0.950 . S
C1634 C1633 1.334 . S
C1634 C1635 1.287 . S
C1635 C1634 1.287 . S
C1635 C1636 1.524 . S
C1635 H1638 0.999 . S
C1636 H1606 0.950 . S
C1636 C1635 1.524 . S
C1636 C1637 1.415 . S
C1637 H1607 0.950 . S
C1637 C1632 1.363 . S
C1637 C1636 1.415 . S
H1638 C1635 0.999 . S
H1639 C1620 0.913 . S
H1640 C1658 0.951 . S
H1641 C1660 0.951 . S
H1642 C1662 0.950 . S
H1643 C1663 0.950 . S
H1644 C1665 0.950 . S
H1645 C1668 0.950 . S
H1646 C1669 0.950 . S
H1647 C1671 0.950 . S
H1648 C1672 0.950 . S
H1649 C1673 0.951 . S
H1650 C1675 0.951 . S
H1651 C1677 0.950 . S
H1652 C1678 0.950 . S
H1653 C1680 0.950 . S
H1654 C1683 0.950 . S
H1655 C1684 0.950 . S
H1656 C1686 0.950 . S
H1657 C1687 0.950 . S
C1658 H1640 0.951 . S
C1658 C1659 1.366 . S
C1658 C1660 1.388 . S
C1659 C1658 1.366 . S
C1659 C1663 1.385 . S
C1660 H1641 0.951 . S
C1660 C1658 1.388 . S
C1660 C1661 1.366 . S
C1661 C1660 1.366 . S
C1661 C1662 1.414 . S
C1661 C1664 1.499 . S
C1662 H1642 0.950 . S
C1662 C1661 1.414 . S
C1662 C1663 1.374 . S
C1663 H1643 0.950 . S
C1663 C1659 1.385 . S
C1663 C1662 1.374 . S
C1664 C1661 1.499 . S
C1664 C1665 1.373 . S
C1664 C1666 1.389 . S
C1665 H1644 0.950 . S
C1665 C1664 1.373 . S
C1665 C1681 1.377 . S
C1666 C1664 1.389 . S
C1666 C1667 1.524 . S
C1666 C1680 1.377 . S
C1667 C1666 1.524 . S
C1667 C1668 1.397 . S
C1667 C1672 1.363 . S
C1668 H1645 0.950 . S
C1668 C1667 1.397 . S
C1668 C1669 1.334 . S
C1669 H1646 0.950 . S
C1669 C1668 1.334 . S
C1669 C1670 1.287 . S
C1670 C1669 1.287 . S
C1670 C1671 1.524 . S
C1670 H1689 0.913 . S
C1671 H1647 0.950 . S
C1671 C1670 1.524 . S
C1671 C1672 1.415 . S
C1672 H1648 0.950 . S
C1672 C1667 1.363 . S
C1672 C1671 1.415 . S
C1673 H1649 0.951 . S
C1673 C1674 1.366 . S
C1673 C1675 1.388 . S
C1674 C1673 1.366 . S
C1674 C1678 1.385 . S
C1675 H1650 0.951 . S
C1675 C1673 1.388 . S
C1675 C1676 1.366 . S
C1676 C1675 1.366 . S
C1676 C1677 1.414 . S
C1676 C1679 1.499 . S
C1677 H1651 0.950 . S
C1677 C1676 1.414 . S
C1677 C1678 1.374 . S
C1678 H1652 0.950 . S
C1678 C1674 1.385 . S
C1678 C1677 1.374 . S
C1679 C1676 1.499 . S
C1679 C1680 1.373 . S
C1679 C1681 1.389 . S
C1680 H1653 0.950 . S
C1680 C1666 1.377 . S
C1680 C1679 1.373 . S
C1681 C1665 1.377 . S
C1681 C1679 1.389 . S
C1681 C1682 1.524 . S
C1682 C1681 1.524 . S
C1682 C1683 1.397 . S
C1682 C1687 1.363 . S
C1683 H1654 0.950 . S
C1683 C1682 1.397 . S
C1683 C1684 1.334 . S
C1684 H1655 0.950 . S
C1684 C1683 1.334 . S
C1684 C1685 1.287 . S
C1685 C1684 1.287 . S
C1685 C1686 1.524 . S
C1685 H1688 0.999 . S
C1686 H1656 0.950 . S
C1686 C1685 1.524 . S
C1686 C1687 1.415 . S
C1687 H1657 0.950 . S
C1687 C1682 1.363 . S
C1687 C1686 1.415 . S
H1688 C1685 0.999 . S
H1689 C1670 0.913 . S
H1690 C1708 0.951 . S
H1691 C1710 0.951 . S
H1692 C1712 0.950 . S
H1693 C1713 0.950 . S
H1694 C1715 0.950 . S
H1695 C1718 0.950 . S
H1696 C1719 0.950 . S
H1697 C1721 0.950 . S
H1698 C1722 0.950 . S
H1699 C1723 0.951 . S
H1700 C1725 0.951 . S
H1701 C1727 0.950 . S
H1702 C1728 0.950 . S
H1703 C1730 0.950 . S
H1704 C1733 0.950 . S
H1705 C1734 0.950 . S
H1706 C1736 0.950 . S
H1707 C1737 0.950 . S
C1708 H1690 0.951 . S
C1708 C1709 1.366 . S
C1708 C1710 1.388 . S
C1709 C1708 1.366 . S
C1709 C1713 1.385 . S
C1710 H1691 0.951 . S
C1710 C1708 1.388 . S
C1710 C1711 1.366 . S
C1711 C1710 1.366 . S
C1711 C1712 1.414 . S
C1711 C1714 1.499 . S
C1712 H1692 0.950 . S
C1712 C1711 1.414 . S
C1712 C1713 1.374 . S
C1713 H1693 0.950 . S
C1713 C1709 1.385 . S
C1713 C1712 1.374 . S
C1714 C1711 1.499 . S
C1714 C1715 1.373 . S
C1714 C1716 1.389 . S
C1715 H1694 0.950 . S
C1715 C1714 1.373 . S
C1715 C1731 1.377 . S
C1716 C1714 1.389 . S
C1716 C1717 1.524 . S
C1716 C1730 1.377 . S
C1717 C1716 1.524 . S
C1717 C1718 1.397 . S
C1717 C1722 1.363 . S
C1718 H1695 0.950 . S
C1718 C1717 1.397 . S
C1718 C1719 1.334 . S
C1719 H1696 0.950 . S
C1719 C1718 1.334 . S
C1719 C1720 1.287 . S
C1720 C1719 1.287 . S
C1720 C1721 1.524 . S
C1720 H1739 0.913 . S
C1721 H1697 0.950 . S
C1721 C1720 1.524 . S
C1721 C1722 1.415 . S
C1722 H1698 0.950 . S
C1722 C1717 1.363 . S
C1722 C1721 1.415 . S
C1723 H1699 0.951 . S
C1723 C1724 1.366 . S
C1723 C1725 1.388 . S
C1724 C1723 1.366 . S
C1724 C1728 1.385 . S
C1725 H1700 0.951 . S
C1725 C1723 1.388 . S
C1725 C1726 1.366 . S
C1726 C1725 1.366 . S
C1726 C1727 1.414 . S
C1726 C1729 1.499 . S
C1727 H1701 0.950 . S
C1727 C1726 1.414 . S
C1727 C1728 1.374 . S
C1728 H1702 0.950 . S
C1728 C1724 1.385 . S
C1728 C1727 1.374 . S
C1729 C1726 1.499 . S
C1729 C1730 1.373 . S
C1729 C1731 1.389 . S
C1730 H1703 0.950 . S
C1730 C1716 1.377 . S
C1730 C1729 1.373 . S
C1731 C1715 1.377 . S
C1731 C1729 1.389 . S
C1731 C1732 1.524 . S
C1732 C1731 1.524 . S
C1732 C1733 1.397 . S
C1732 C1737 1.363 . S
C1733 H1704 0.950 . S
C1733 C1732 1.397 . S
C1733 C1734 1.334 . S
C1734 H1705 0.950 . S
C1734 C1733 1.334 . S
C1734 C1735 1.287 . S
C1735 C1734 1.287 . S
C1735 C1736 1.524 . S
C1735 H1738 0.999 . S
C1736 H1706 0.950 . S
C1736 C1735 1.524 . S
C1736 C1737 1.415 . S
C1737 H1707 0.950 . S
C1737 C1732 1.363 . S
C1737 C1736 1.415 . S
H1738 C1735 0.999 . S
H1739 C1720 0.913 . S
H1740 C1758 0.951 . S
H1741 C1760 0.951 . S
H1742 C1762 0.950 . S
H1743 C1763 0.950 . S
H1744 C1765 0.950 . S
H1745 C1768 0.950 . S
H1746 C1769 0.950 . S
H1747 C1771 0.950 . S
H1748 C1772 0.950 . S
H1749 C1773 0.951 . S
H1750 C1775 0.951 . S
H1751 C1777 0.950 . S
H1752 C1778 0.950 . S
H1753 C1780 0.950 . S
H1754 C1783 0.950 . S
H1755 C1784 0.950 . S
H1756 C1786 0.950 . S
H1757 C1787 0.950 . S
C1758 H1740 0.951 . S
C1758 C1759 1.366 . S
C1758 C1760 1.388 . S
C1759 C1758 1.366 . S
C1759 C1763 1.385 . S
C1760 H1741 0.951 . S
C1760 C1758 1.388 . S
C1760 C1761 1.366 . S
C1761 C1760 1.366 . S
C1761 C1762 1.414 . S
C1761 C1764 1.499 . S
C1762 H1742 0.950 . S
C1762 C1761 1.414 . S
C1762 C1763 1.374 . S
C1763 H1743 0.950 . S
C1763 C1759 1.385 . S
C1763 C1762 1.374 . S
C1764 C1761 1.499 . S
C1764 C1765 1.373 . S
C1764 C1766 1.389 . S
C1765 H1744 0.950 . S
C1765 C1764 1.373 . S
C1765 C1781 1.377 1_556 S
C1766 C1764 1.389 . S
C1766 C1767 1.524 . S
C1766 C1780 1.377 1_556 S
C1767 C1766 1.524 . S
C1767 C1768 1.397 . S
C1767 C1772 1.363 . S
C1768 H1745 0.950 . S
C1768 C1767 1.397 . S
C1768 C1769 1.334 . S
C1769 H1746 0.950 . S
C1769 C1768 1.334 . S
C1769 C1770 1.287 . S
C1770 C1769 1.287 . S
C1770 C1771 1.524 . S
C1770 H1789 0.913 . S
C1771 H1747 0.950 . S
C1771 C1770 1.524 . S
C1771 C1772 1.415 . S
C1772 H1748 0.950 . S
C1772 C1767 1.363 . S
C1772 C1771 1.415 . S
C1773 H1749 0.951 . S
C1773 C1774 1.366 . S
C1773 C1775 1.388 . S
C1774 C1773 1.366 . S
C1774 C1778 1.385 . S
C1775 H1750 0.951 . S
C1775 C1773 1.388 . S
C1775 C1776 1.366 . S
C1776 C1775 1.366 . S
C1776 C1777 1.414 . S
C1776 C1779 1.499 . S
C1777 H1751 0.950 . S
C1777 C1776 1.414 . S
C1777 C1778 1.374 . S
C1778 H1752 0.950 . S
C1778 C1774 1.385 . S
C1778 C1777 1.374 . S
C1779 C1776 1.499 . S
C1779 C1780 1.373 . S
C1779 C1781 1.389 . S
C1780 H1753 0.950 . S
C1780 C1766 1.377 1_554 S
C1780 C1779 1.373 . S
C1781 C1765 1.377 1_554 S
C1781 C1779 1.389 . S
C1781 C1782 1.524 . S
C1782 C1781 1.524 . S
C1782 C1783 1.397 . S
C1782 C1787 1.363 . S
C1783 H1754 0.950 . S
C1783 C1782 1.397 . S
C1783 C1784 1.334 . S
C1784 H1755 0.950 . S
C1784 C1783 1.334 . S
C1784 C1785 1.287 . S
C1785 C1784 1.287 . S
C1785 C1786 1.524 . S
C1785 H1788 0.999 . S
C1786 H1756 0.950 . S
C1786 C1785 1.524 . S
C1786 C1787 1.415 . S
C1787 H1757 0.950 . S
C1787 C1782 1.363 . S
C1787 C1786 1.415 . S
H1788 C1785 0.999 . S
H1789 C1770 0.913 . S
H1790 C1808 0.951 . S
H1791 C1810 0.951 . S
H1792 C1812 0.950 . S
H1793 C1813 0.950 . S
H1794 C1815 0.950 . S
H1795 C1818 0.950 . S
H1796 C1819 0.950 . S
H1797 C1821 0.950 . S
H1798 C1822 0.950 . S
H1799 C1823 0.951 . S
H1800 C1825 0.951 . S
H1801 C1827 0.950 . S
H1802 C1828 0.950 . S
H1803 C1830 0.950 . S
H1804 C1833 0.950 . S
H1805 C1834 0.950 . S
H1806 C1836 0.950 . S
H1807 C1837 0.950 . S
C1808 H1790 0.951 . S
C1808 C1809 1.366 . S
C1808 C1810 1.388 . S
C1809 C1808 1.366 . S
C1809 C1813 1.385 . S
C1810 H1791 0.951 . S
C1810 C1808 1.388 . S
C1810 C1811 1.366 . S
C1811 C1810 1.366 . S
C1811 C1812 1.414 . S
C1811 C1814 1.499 . S
C1812 H1792 0.950 . S
C1812 C1811 1.414 . S
C1812 C1813 1.374 . S
C1813 H1793 0.950 . S
C1813 C1809 1.385 . S
C1813 C1812 1.374 . S
C1814 C1811 1.499 . S
C1814 C1815 1.373 1_455 S
C1814 C1816 1.389 . S
C1815 H1794 0.950 . S
C1815 C1814 1.373 1_655 S
C1815 C1831 1.377 . S
C1816 C1814 1.389 . S
C1816 C1817 1.524 . S
C1816 C1830 1.377 . S
C1817 C1816 1.524 . S
C1817 C1818 1.397 . S
C1817 C1822 1.363 . S
C1818 H1795 0.950 . S
C1818 C1817 1.397 . S
C1818 C1819 1.334 . S
C1819 H1796 0.950 . S
C1819 C1818 1.334 . S
C1819 C1820 1.287 . S
C1820 C1819 1.287 . S
C1820 C1821 1.524 . S
C1820 H1839 0.913 . S
C1821 H1797 0.950 . S
C1821 C1820 1.524 . S
C1821 C1822 1.415 . S
C1822 H1798 0.950 . S
C1822 C1817 1.363 . S
C1822 C1821 1.415 . S
C1823 H1799 0.951 . S
C1823 C1824 1.366 . S
C1823 C1825 1.388 . S
C1824 C1823 1.366 . S
C1824 C1828 1.385 . S
C1825 H1800 0.951 . S
C1825 C1823 1.388 . S
C1825 C1826 1.366 . S
C1826 C1825 1.366 . S
C1826 C1827 1.414 . S
C1826 C1829 1.499 . S
C1827 H1801 0.950 . S
C1827 C1826 1.414 . S
C1827 C1828 1.374 . S
C1828 H1802 0.950 . S
C1828 C1824 1.385 . S
C1828 C1827 1.374 . S
C1829 C1826 1.499 . S
C1829 C1830 1.373 1_655 S
C1829 C1831 1.389 . S
C1830 H1803 0.950 . S
C1830 C1816 1.377 . S
C1830 C1829 1.373 1_455 S
C1831 C1815 1.377 . S
C1831 C1829 1.389 . S
C1831 C1832 1.524 . S
C1832 C1831 1.524 . S
C1832 C1833 1.397 . S
C1832 C1837 1.363 . S
C1833 H1804 0.950 . S
C1833 C1832 1.397 . S
C1833 C1834 1.334 . S
C1834 H1805 0.950 . S
C1834 C1833 1.334 . S
C1834 C1835 1.287 . S
C1835 C1834 1.287 . S
C1835 C1836 1.524 . S
C1835 H1838 0.999 . S
C1836 H1806 0.950 . S
C1836 C1835 1.524 . S
C1836 C1837 1.415 . S
C1837 H1807 0.950 . S
C1837 C1832 1.363 . S
C1837 C1836 1.415 . S
H1838 C1835 0.999 . S
H1839 C1820 0.913 . S
H1840 C1858 0.951 . S
H1841 C1860 0.951 . S
H1842 C1862 0.950 . S
H1843 C1863 0.950 . S
H1844 C1865 0.950 1_556 S
H1845 C1868 0.950 . S
H1846 C1869 0.960 . S
H1847 C1871 0.950 . S
H1848 C1872 0.950 . S
H1849 C1873 0.951 . S
H1850 C1875 0.951 . S
H1851 C1877 0.950 . S
H1852 C1878 0.950 . S
H1853 C1880 0.950 1_554 S
H1854 C1883 0.950 . S
H1855 C1884 0.960 . S
H1856 C1886 0.950 . S
H1857 C1887 0.950 . S
C1858 H1840 0.951 . S
C1858 C1859 1.366 . S
C1858 C1860 1.388 . S
C1859 C1858 1.366 . S
C1859 C1863 1.385 . S
C1860 H1841 0.951 . S
C1860 C1858 1.388 . S
C1860 C1861 1.366 . S
C1861 C1860 1.366 . S
C1861 C1862 1.414 . S
C1861 C1864 1.499 . S
C1862 H1842 0.950 . S
C1862 C1861 1.414 . S
C1862 C1863 1.374 . S
C1863 H1843 0.950 . S
C1863 C1859 1.385 . S
C1863 C1862 1.374 . S
C1864 C1861 1.499 . S
C1864 C1865 1.369 . S
C1864 C1866 1.389 1_565 S
C1865 H1844 0.950 1_554 S
C1865 C1864 1.369 . S
C1865 C1881 1.381 1_554 S
C1866 C1864 1.389 1_545 S
C1866 C1867 1.524 . S
C1866 C1880 1.381 1_554 S
C1867 C1866 1.524 . S
C1867 C1868 1.397 1_545 S
C1867 C1872 1.363 . S
C1868 H1845 0.950 . S
C1868 C1867 1.397 1_565 S
C1868 C1869 1.352 . S
C1869 H1846 0.960 . S
C1869 C1868 1.352 . S
C1869 C1870 1.259 1_565 S
C1870 C1869 1.259 1_545 S
C1870 C1871 1.524 . S
C1870 H1889 0.913 . S
C1871 H1847 0.950 . S
C1871 C1870 1.524 . S
C1871 C1872 1.415 . S
C1872 H1848 0.950 . S
C1872 C1867 1.363 . S
C1872 C1871 1.415 . S
C1873 H1849 0.951 . S
C1873 C1874 1.366 . S
C1873 C1875 1.388 . S
C1874 C1873 1.366 . S
C1874 C1878 1.385 . S
C1875 H1850 0.951 . S
C1875 C1873 1.388 . S
C1875 C1876 1.366 . S
C1876 C1875 1.366 . S
C1876 C1877 1.414 . S
C1876 C1879 1.499 . S
C1877 H1851 0.950 . S
C1877 C1876 1.414 . S
C1877 C1878 1.374 . S
C1878 H1852 0.950 . S
C1878 C1874 1.385 . S
C1878 C1877 1.374 . S
C1879 C1876 1.499 . S
C1879 C1880 1.369 . S
C1879 C1881 1.389 1_545 S
C1880 H1853 0.950 1_556 S
C1880 C1866 1.381 1_556 S
C1880 C1879 1.369 . S
C1881 C1865 1.381 1_556 S
C1881 C1879 1.389 1_565 S
C1881 C1882 1.524 . S
C1882 C1881 1.524 . S
C1882 C1883 1.397 1_565 S
C1882 C1887 1.363 . S
C1883 H1854 0.950 . S
C1883 C1882 1.397 1_545 S
C1883 C1884 1.352 . S
C1884 H1855 0.960 . S
C1884 C1883 1.352 . S
C1884 C1885 1.260 1_545 S
C1885 C1884 1.260 1_565 S
C1885 C1886 1.524 . S
C1885 H1888 0.999 . S
C1886 H1856 0.950 . S
C1886 C1885 1.524 . S
C1886 C1887 1.415 . S
C1887 H1857 0.950 . S
C1887 C1882 1.363 . S
C1887 C1886 1.415 . S
H1888 C1885 0.999 . S
H1889 C1870 0.913 . S
H1890 C1908 0.951 . S
H1891 C1910 0.951 . S
H1892 C1912 0.950 . S
H1893 C1913 0.950 . S
H1894 C1915 0.950 . S
H1895 C1918 0.950 . S
H1896 C1919 0.950 . S
H1897 C1921 0.950 . S
H1898 C1922 0.950 . S
H1899 C1923 0.951 . S
H1900 C1925 0.951 . S
H1901 C1927 0.950 . S
H1902 C1928 0.950 . S
H1903 C1930 0.950 . S
H1904 C1933 0.950 . S
H1905 C1934 0.950 . S
H1906 C1936 0.950 . S
H1907 C1937 0.950 . S
C1908 H1890 0.951 . S
C1908 C1909 1.366 . S
C1908 C1910 1.388 . S
C1909 C1908 1.366 . S
C1909 C1913 1.385 . S
C1910 H1891 0.951 . S
C1910 C1908 1.388 . S
C1910 C1911 1.366 . S
C1911 C1910 1.366 . S
C1911 C1912 1.414 . S
C1911 C1914 1.499 . S
C1912 H1892 0.950 . S
C1912 C1911 1.414 . S
C1912 C1913 1.374 . S
C1913 H1893 0.950 . S
C1913 C1909 1.385 . S
C1913 C1912 1.374 . S
C1914 C1911 1.499 . S
C1914 C1915 1.373 . S
C1914 C1916 1.389 . S
C1915 H1894 0.950 . S
C1915 C1914 1.373 . S
C1915 C1931 1.377 . S
C1916 C1914 1.389 . S
C1916 C1917 1.524 . S
C1916 C1930 1.377 . S
C1917 C1916 1.524 . S
C1917 C1918 1.397 . S
C1917 C1922 1.363 . S
C1918 H1895 0.950 . S
C1918 C1917 1.397 . S
C1918 C1919 1.334 . S
C1919 H1896 0.950 . S
C1919 C1918 1.334 . S
C1919 C1920 1.287 . S
C1920 C1919 1.287 . S
C1920 C1921 1.524 . S
C1920 H1939 0.913 . S
C1921 H1897 0.950 . S
C1921 C1920 1.524 . S
C1921 C1922 1.415 . S
C1922 H1898 0.950 . S
C1922 C1917 1.363 . S
C1922 C1921 1.415 . S
C1923 H1899 0.951 . S
C1923 C1924 1.366 . S
C1923 C1925 1.388 . S
C1924 C1923 1.366 . S
C1924 C1928 1.385 . S
C1925 H1900 0.951 . S
C1925 C1923 1.388 . S
C1925 C1926 1.366 . S
C1926 C1925 1.366 . S
C1926 C1927 1.414 . S
C1926 C1929 1.499 . S
C1927 H1901 0.950 . S
C1927 C1926 1.414 . S
C1927 C1928 1.374 . S
C1928 H1902 0.950 . S
C1928 C1924 1.385 . S
C1928 C1927 1.374 . S
C1929 C1926 1.499 . S
C1929 C1930 1.373 . S
C1929 C1931 1.389 . S
C1930 H1903 0.950 . S
C1930 C1916 1.377 . S
C1930 C1929 1.373 . S
C1931 C1915 1.377 . S
C1931 C1929 1.389 . S
C1931 C1932 1.524 . S
C1932 C1931 1.524 . S
C1932 C1933 1.397 . S
C1932 C1937 1.363 . S
C1933 H1904 0.950 . S
C1933 C1932 1.397 . S
C1933 C1934 1.334 . S
C1934 H1905 0.950 . S
C1934 C1933 1.334 . S
C1934 C1935 1.287 . S
C1935 C1934 1.287 . S
C1935 C1936 1.524 . S
C1935 H1938 0.999 . S
C1936 H1906 0.950 . S
C1936 C1935 1.524 . S
C1936 C1937 1.415 . S
C1937 H1907 0.950 . S
C1937 C1932 1.363 . S
C1937 C1936 1.415 . S
H1938 C1935 0.999 . S
H1939 C1920 0.913 . S
H1940 C1958 0.951 . S
H1941 C1960 0.951 . S
H1942 C1962 0.950 . S
H1943 C1963 0.950 . S
H1944 C1965 0.950 . S
H1945 C1968 0.941 1_556 S
H1946 C1969 0.950 . S
H1947 C1971 0.950 . S
H1948 C1972 0.950 . S
H1949 C1973 0.951 . S
H1950 C1975 0.951 . S
H1951 C1977 0.950 . S
H1952 C1978 0.950 . S
H1953 C1980 0.950 . S
H1954 C1983 0.941 1_554 S
H1955 C1984 0.950 . S
H1956 C1986 0.950 . S
H1957 C1987 0.950 . S
C1958 H1940 0.951 . S
C1958 C1959 1.366 . S
C1958 C1960 1.388 . S
C1959 C1958 1.366 . S
C1959 C1963 1.385 . S
C1960 H1941 0.951 . S
C1960 C1958 1.388 . S
C1960 C1961 1.366 . S
C1961 C1960 1.366 . S
C1961 C1962 1.414 . S
C1961 C1964 1.499 . S
C1962 H1942 0.950 . S
C1962 C1961 1.414 . S
C1962 C1963 1.374 . S
C1963 H1943 0.950 . S
C1963 C1959 1.385 . S
C1963 C1962 1.374 . S
C1964 C1961 1.499 . S
C1964 C1965 1.373 1_655 S
C1964 C1966 1.389 1_556 S
C1965 H1944 0.950 . S
C1965 C1964 1.373 1_455 S
C1965 C1981 1.377 . S
C1966 C1964 1.389 1_554 S
C1966 C1967 1.524 . S
C1966 C1980 1.377 . S
C1967 C1966 1.524 . S
C1967 C1968 1.397 . S
C1967 C1972 1.363 . S
C1968 H1945 0.941 1_554 S
C1968 C1967 1.397 . S
C1968 C1969 1.334 . S
C1969 H1946 0.950 . S
C1969 C1968 1.334 . S
C1969 C1970 1.287 . S
C1970 C1969 1.287 . S
C1970 C1971 1.524 . S
C1970 H1989 0.913 . S
C1971 H1947 0.950 . S
C1971 C1970 1.524 . S
C1971 C1972 1.415 . S
C1972 H1948 0.950 . S
C1972 C1967 1.363 . S
C1972 C1971 1.415 . S
C1973 H1949 0.951 . S
C1973 C1974 1.366 . S
C1973 C1975 1.388 . S
C1974 C1973 1.366 . S
C1974 C1978 1.385 . S
C1975 H1950 0.951 . S
C1975 C1973 1.388 . S
C1975 C1976 1.366 . S
C1976 C1975 1.366 . S
C1976 C1977 1.414 . S
C1976 C1979 1.499 . S
C1977 H1951 0.950 . S
C1977 C1976 1.414 . S
C1977 C1978 1.374 . S
C1978 H1952 0.950 . S
C1978 C1974 1.385 . S
C1978 C1977 1.374 . S
C1979 C1976 1.499 . S
C1979 C1980 1.373 1_455 S
C1979 C1981 1.389 1_554 S
C1980 H1953 0.950 . S
C1980 C1966 1.377 . S
C1980 C1979 1.373 1_655 S
C1981 C1965 1.377 . S
C1981 C1979 1.389 1_556 S
C1981 C1982 1.524 . S
C1982 C1981 1.524 . S
C1982 C1983 1.397 . S
C1982 C1987 1.363 . S
C1983 H1954 0.941 1_556 S
C1983 C1982 1.397 . S
C1983 C1984 1.334 . S
C1984 H1955 0.950 . S
C1984 C1983 1.334 . S
C1984 C1985 1.287 . S
C1985 C1984 1.287 . S
C1985 C1986 1.524 . S
C1985 H1988 0.999 . S
C1986 H1956 0.950 . S
C1986 C1985 1.524 . S
C1986 C1987 1.415 . S
C1987 H1957 0.950 . S
C1987 C1982 1.363 . S
C1987 C1986 1.415 . S
H1988 C1985 0.999 . S
H1989 C1970 0.913 . S
H1990 C2008 0.951 . S
H1991 C2010 0.951 . S
H1992 C2012 0.950 . S
H1993 C2013 0.950 . S
H1994 C2015 0.950 . S
H1995 C2018 0.949 . S
H1996 C2019 0.950 . S
H1997 C2021 0.950 . S
H1998 C2022 0.950 . S
H1999 C2023 0.951 . S
H2000 C2025 0.951 . S
H2001 C2027 0.950 . S
H2002 C2028 0.950 . S
H2003 C2030 0.950 . S
H2004 C2033 0.949 . S
H2005 C2034 0.950 . S
H2006 C2036 0.950 . S
H2007 C2037 0.950 . S
C2008 H1990 0.951 . S
C2008 C2009 1.366 . S
C2008 C2010 1.388 . S
C2009 C2008 1.366 . S
C2009 C2013 1.385 . S
C2010 H1991 0.951 . S
C2010 C2008 1.388 . S
C2010 C2011 1.366 . S
C2011 C2010 1.366 . S
C2011 C2012 1.414 . S
C2011 C2014 1.499 . S
C2012 H1992 0.950 . S
C2012 C2011 1.414 . S
C2012 C2013 1.374 . S
C2013 H1993 0.950 . S
C2013 C2009 1.385 . S
C2013 C2012 1.374 . S
C2014 C2011 1.499 . S
C2014 C2015 1.373 . S
C2014 C2016 1.389 . S
C2015 H1994 0.950 . S
C2015 C2014 1.373 . S
C2015 C2031 1.377 1_565 S
C2016 C2014 1.389 . S
C2016 C2017 1.524 . S
C2016 C2030 1.377 1_565 S
C2017 C2016 1.524 . S
C2017 C2018 1.397 . S
C2017 C2022 1.363 . S
C2018 H1995 0.949 . S
C2018 C2017 1.397 . S
C2018 C2019 1.334 . S
C2019 H1996 0.950 . S
C2019 C2018 1.334 . S
C2019 C2020 1.287 . S
C2020 C2019 1.287 . S
C2020 C2021 1.524 . S
C2020 H2039 0.913 . S
C2021 H1997 0.950 . S
C2021 C2020 1.524 . S
C2021 C2022 1.415 . S
C2022 H1998 0.950 . S
C2022 C2017 1.363 . S
C2022 C2021 1.415 . S
C2023 H1999 0.951 . S
C2023 C2024 1.366 . S
C2023 C2025 1.388 . S
C2024 C2023 1.366 . S
C2024 C2028 1.385 . S
C2025 H2000 0.951 . S
C2025 C2023 1.388 . S
C2025 C2026 1.366 . S
C2026 C2025 1.366 . S
C2026 C2027 1.414 . S
C2026 C2029 1.499 . S
C2027 H2001 0.950 . S
C2027 C2026 1.414 . S
C2027 C2028 1.374 . S
C2028 H2002 0.950 . S
C2028 C2024 1.385 . S
C2028 C2027 1.374 . S
C2029 C2026 1.499 . S
C2029 C2030 1.373 . S
C2029 C2031 1.389 . S
C2030 H2003 0.950 . S
C2030 C2016 1.377 1_545 S
C2030 C2029 1.373 . S
C2031 C2015 1.377 1_545 S
C2031 C2029 1.389 . S
C2031 C2032 1.524 . S
C2032 C2031 1.524 . S
C2032 C2033 1.397 . S
C2032 C2037 1.363 . S
C2033 H2004 0.949 . S
C2033 C2032 1.397 . S
C2033 C2034 1.334 . S
C2034 H2005 0.950 . S
C2034 C2033 1.334 . S
C2034 C2035 1.287 . S
C2035 C2034 1.287 . S
C2035 C2036 1.524 . S
C2035 H2038 0.999 . S
C2036 H2006 0.950 . S
C2036 C2035 1.524 . S
C2036 C2037 1.415 . S
C2037 H2007 0.950 . S
C2037 C2032 1.363 . S
C2037 C2036 1.415 . S
H2038 C2035 0.999 . S
H2039 C2020 0.913 . S
C259 C86 1.365 . S
C274 C19 1.378 . S
C309 C106 1.365 . S
C324 C39 1.378 . S
C359 C59 1.377 . S
C374 C6 1.365 . S
C409 C79 1.378 . S
C424 C26 1.365 . S
C459 C99 1.378 . S
C474 C46 1.366 . S
C509 C66 1.365 . S
C524 C119 1.378 . S
C559 C166 1.366 . S
C574 C139 1.377 . S
C609 C159 1.377 . S
C624 C186 1.365 . S
C659 C206 1.366 . S
C674 C179 1.377 . S
C709 C199 1.377 . S
C724 C226 1.365 . S
C759 C219 1.377 . S
C774 C126 1.365 . S
C809 C146 1.366 . S
C824 C239 1.377 . S
C859 C96 1.592 . S
C874 C8 1.524 . S
C909 C28 1.524 . S
C924 C116 1.592 . S
C959 C48 1.523 . S
C974 C16 1.592 . S
C1009 C68 1.524 . S
C1024 C36 1.592 . S
C1059 C56 1.592 . S
C1074 C88 1.524 . S
C1109 C76 1.592 . S
C1124 C108 1.524 . S
C1159 C176 1.593 . S
C1174 C128 1.523 . S
C1209 C148 1.523 . S
C1224 C196 1.592 . S
C1259 C168 1.524 . S
C1274 C216 1.592 . S
C1309 C236 1.593 . S
C1324 C188 1.524 . S
C1359 C208 1.524 . S
C1374 C136 1.592 . S
C1409 C156 1.592 . S
C1424 C228 1.524 . S
C1459 C209 1.723 . S
C1474 C9 1.724 . S
C1509 C29 1.723 . S
C1524 C229 1.724 . S
C1559 C49 1.723 . S
C1574 C129 1.724 . S
C1609 C69 1.723 . S
C1624 C149 1.724 . S
C1659 C89 1.723 . S
C1674 C169 1.724 . S
C1709 C189 1.724 . S
C1724 C109 1.723 . S
C1759 C181 1.849 . S
C1774 C1 1.849 . S
C1809 C201 1.849 . S
C1824 C21 1.849 . S
C1859 C41 1.849 . S
C1874 C221 1.848 . S
C1909 C61 1.849 . S
C1924 C121 1.849 . S
C1959 C141 1.849 . S
C1974 C81 1.849 . S
C2009 C161 1.848 . S
C2024 C101 1.849 . S
