# Generated by pormake.
# Topology umx, (4)-cn, num edge types: 1
# Building blocks:
#     Node 0, Type 0, BuildingBlock: TATPOV_clean_sbu_0, # of connection points: 4
#     Node 1, Type 0, BuildingBlock: TATPOV_clean_sbu_0, # of connection points: 4
#     Node 2, Type 0, BuildingBlock: TATPOV_clean_sbu_0, # of connection points: 4
#     Node 3, Type 0, BuildingBlock: TATPOV_clean_sbu_0, # of connection points: 4
#     Node 4, Type 0, BuildingBlock: TATPOV_clean_sbu_0, # of connection points: 4
#     Node 5, Type 0, BuildingBlock: TATPOV_clean_sbu_0, # of connection points: 4
#     Node 6, Type 0, BuildingBlock: TATPOV_clean_sbu_0, # of connection points: 4
#     Node 7, Type 0, BuildingBlock: TATPOV_clean_sbu_0, # of connection points: 4
#     Edge 8, Type (0, 0), BuildingBlock: FUNLAD_clean_linker_0, # of connection points: 2
#     Edge 9, Type (0, 0), BuildingBlock: FUNLAD_clean_linker_0, # of connection points: 2
#     Edge 10, Type (0, 0), BuildingBlock: FUNLAD_clean_linker_0, # of connection points: 2
#     Edge 11, Type (0, 0), BuildingBlock: FUNLAD_clean_linker_0, # of connection points: 2
#     Edge 12, Type (0, 0), BuildingBlock: FUNLAD_clean_linker_0, # of connection points: 2
#     Edge 13, Type (0, 0), BuildingBlock: FUNLAD_clean_linker_0, # of connection points: 2
#     Edge 14, Type (0, 0), BuildingBlock: FUNLAD_clean_linker_0, # of connection points: 2
#     Edge 15, Type (0, 0), BuildingBlock: FUNLAD_clean_linker_0, # of connection points: 2
#     Edge 16, Type (0, 0), BuildingBlock: FUNLAD_clean_linker_0, # of connection points: 2
#     Edge 17, Type (0, 0), BuildingBlock: FUNLAD_clean_linker_0, # of connection points: 2
#     Edge 18, Type (0, 0), BuildingBlock: FUNLAD_clean_linker_0, # of connection points: 2
#     Edge 19, Type (0, 0), BuildingBlock: FUNLAD_clean_linker_0, # of connection points: 2
#     Edge 20, Type (0, 0), BuildingBlock: FUNLAD_clean_linker_0, # of connection points: 2
#     Edge 21, Type (0, 0), BuildingBlock: FUNLAD_clean_linker_0, # of connection points: 2
#     Edge 22, Type (0, 0), BuildingBlock: FUNLAD_clean_linker_0, # of connection points: 2
#     Edge 23, Type (0, 0), BuildingBlock: FUNLAD_clean_linker_0, # of connection points: 2
# Relax obj value: 0.211
# Max RMSD: 0.756
# Mean RMSD: 0.324
data_MOF--net-umx--node1-TATPOV_clean_sbu_0--edge1-FUNLAD_clean_linker_0
_symmetry_space_group_name_H-M    P1
_symmetry_Int_Tables_number       1
_symmetry_cell_setting            triclinic
loop_
_symmetry_equiv_pos_as_xyz
'x, y, z'
_cell_length_a     49.966901
_cell_length_b     23.177974
_cell_length_c     32.513194
_cell_angle_alpha  89.543085
_cell_angle_beta   90.270544
_cell_angle_gamma 101.24863
loop_
_atom_site_label
_atom_site_type_symbol
_atom_site_fract_x
_atom_site_fract_y
_atom_site_fract_z
_atom_type_partial_charge
Zn0 Zn 0.16504 0.33913 0.98113 0.0
Zn1 Zn 0.13203 0.22863 -0.01 0.0
O2 O 0.14794 0.23026 0.93272 0.0
O3 O 0.17683 0.31436 0.92527 0.0
O4 O 0.11052 0.1451 -0.0031 0.0
O5 O 0.18585 0.32414 0.03266 0.0
O6 O 0.15917 0.23679 0.03761 0.0
C7 C 0.16548 0.26469 0.91127 0.0
C8 C 0.10634 0.33768 -0.00822 0.0
O9 O 0.10401 0.28201 -0.00548 0.0
O10 O 0.1296 0.37024 -0.01397 0.0
C11 C 0.12109 0.09993 0.003 0.0
O12 O 0.10517 0.04903 0.01105 0.0
C13 C 0.17891 0.27525 0.05117 0.0
Zn14 Zn 0.45032 0.33755 0.51547 0.0
Zn15 Zn 0.50446 0.38763 0.50659 0.0
O16 O 0.48578 0.42131 0.45784 0.0
O17 O 0.4423 0.38016 0.46381 0.0
O18 O 0.5448 0.42096 0.50075 0.0
O19 O 0.45137 0.379 0.57025 0.0
O20 O 0.49539 0.41477 0.56354 0.0
C21 C 0.46122 0.41427 0.44485 0.0
C22 C 0.48537 0.25285 0.50753 0.0
O23 O 0.50359 0.29941 0.50455 0.0
O24 O 0.46059 0.25647 0.5124 0.0
C25 C 0.55853 0.40265 0.47253 0.0
O26 O 0.54582 0.36443 0.44588 0.0
C27 C 0.47349 0.40854 0.58437 0.0
Zn28 Zn 0.85655 0.61397 -0.01482 0.0
Zn29 Zn 0.89224 0.7222 0.98356 0.0
O30 O 0.8729 0.7163 0.92822 0.0
O31 O 0.84315 0.63264 0.92827 0.0
O32 O 0.9158 0.80419 0.98394 0.0
O33 O 0.83846 0.63967 0.03616 0.0
O34 O 0.8685 0.72277 0.03402 0.0
C35 C 0.85405 0.6802 0.91043 0.0
C36 C 0.91512 0.60997 -0.00822 0.0
O37 O 0.91872 0.66584 -0.01087 0.0
O38 O 0.89115 0.57903 -0.00901 0.0
C39 C 0.90638 0.85034 -0.00874 0.0
O40 O 0.92325 0.90108 -0.00491 0.0
C41 C 0.84834 0.68956 0.05123 0.0
Zn42 Zn 0.57396 0.67063 0.55196 0.0
Zn43 Zn 0.52041 0.61662 0.54155 0.0
O44 O 0.54126 0.58178 0.4967 0.0
O45 O 0.58427 0.6261 0.50337 0.0
O46 O 0.48074 0.57842 0.53366 0.0
O47 O 0.57231 0.63305 0.60858 0.0
O48 O 0.52853 0.59516 0.60083 0.0
C49 C 0.56606 0.58969 0.48495 0.0
C50 C 0.53746 0.7511 0.53485 0.0
O51 O 0.51963 0.70371 0.53331 0.0
O52 O 0.56216 0.74925 0.54273 0.0
C53 C 0.4695 0.57316 0.49835 0.0
O54 O 0.4844 0.59036 0.46568 0.0
C55 C 0.55014 0.60378 0.62267 0.0
Zn56 Zn 0.1298 0.26556 0.47742 0.0
Zn57 Zn 0.17057 0.36426 0.47583 0.0
O58 O 0.17567 0.32057 0.52911 0.0
O59 O 0.14392 0.24025 0.53172 0.0
O60 O 0.20519 0.42666 0.47455 0.0
O61 O 0.14415 0.23814 0.42447 0.0
O62 O 0.17544 0.31936 0.42368 0.0
C63 C 0.16457 0.27328 0.54738 0.0
C64 C 0.11139 0.37948 0.47494 0.0
O65 O 0.13672 0.4033 0.47497 0.0
O66 O 0.10411 0.32386 0.47584 0.0
C67 C 0.21697 0.44815 0.50733 0.0
O68 O 0.20409 0.43727 0.54252 0.0
C69 C 0.16438 0.27078 0.40737 0.0
Zn70 Zn 0.47729 0.35032 0.02887 0.0
Zn71 Zn 0.42422 0.29256 0.02343 0.0
O72 O 0.425 0.34493 0.07402 0.0
O73 O 0.46742 0.39328 0.07876 0.0
O74 O 0.38438 0.25401 0.01892 0.0
O75 O 0.47425 0.38446 0.972 0.0
O76 O 0.43182 0.33574 0.96817 0.0
C77 C 0.44319 0.38229 0.09221 0.0
C78 C 0.46972 0.22269 0.03614 0.0
O79 O 0.44452 0.22448 0.03169 0.0
O80 O 0.48751 0.26992 0.03584 0.0
C81 C 0.37096 0.23112 0.0501 0.0
O82 O 0.38358 0.23082 0.08562 0.0
C83 C 0.4521 0.37039 0.95214 0.0
Zn84 Zn 0.89639 0.75442 0.47467 0.0
Zn85 Zn 0.85616 0.6545 0.47442 0.0
O86 O 0.85144 0.69586 0.5282 0.0
O87 O 0.88256 0.77731 0.5297 0.0
O88 O 0.82206 0.5908 0.47232 0.0
O89 O 0.88148 0.78197 0.42127 0.0
O90 O 0.85046 0.70041 0.42258 0.0
C91 C 0.86261 0.743 0.54624 0.0
C92 C 0.91561 0.64134 0.47327 0.0
O93 O 0.89037 0.61689 0.47347 0.0
O94 O 0.92259 0.69704 0.47346 0.0
C95 C 0.80952 0.5681 0.50429 0.0
O96 O 0.82109 0.57939 0.54046 0.0
C97 C 0.86099 0.74884 0.40524 0.0
Zn98 Zn 0.5516 0.63254 0.06483 0.0
Zn99 Zn 0.60496 0.68722 0.05726 0.0
O100 O 0.60378 0.64049 0.11128 0.0
O101 O 0.56113 0.59418 0.11759 0.0
O102 O 0.64509 0.72166 0.04991 0.0
O103 O 0.55334 0.5925 0.01016 0.0
O104 O 0.59599 0.63914 0.00467 0.0
C105 C 0.58537 0.6057 0.13117 0.0
C106 C 0.56076 0.76112 0.06273 0.0
O107 O 0.58587 0.75791 0.05963 0.0
O108 O 0.54267 0.71455 0.0656 0.0
C109 C 0.66108 0.74068 0.07947 0.0
O110 O 0.65118 0.74051 0.11684 0.0
C111 C 0.57535 0.60422 -0.01006 0.0
C112 C 0.21018 0.30992 0.11038 0.0
C113 C 0.19182 0.26468 0.09081 0.0
C114 C 0.21828 0.30282 0.15105 0.0
C115 C 0.20828 0.25039 0.17265 0.0
C116 C 0.19241 0.20303 0.15145 0.0
C117 C 0.18383 0.2106 0.11133 0.0
C118 C 0.21164 0.24946 0.21804 0.0
C119 C 0.1924 0.21769 0.2425 0.0
C120 C 0.18942 0.22786 0.28713 0.0
C121 C 0.16946 0.18832 0.30886 0.0
C122 C 0.16202 0.2011 0.34854 0.0
C123 C 0.17441 0.25389 0.36743 0.0
H124 H 0.21818 0.31146 0.29155 0.0
C125 C 0.19551 0.29191 0.34676 0.0
C126 C 0.20292 0.27922 0.30698 0.0
H127 H 0.20562 0.33278 0.36062 0.0
H128 H 0.21699 0.35201 0.09528 0.0
H129 H 0.23089 0.33976 0.16646 0.0
H130 H 0.18539 0.16087 0.16627 0.0
H131 H 0.1697 0.17493 0.09734 0.0
H132 H 0.22811 0.28147 0.2312 0.0
H133 H 0.17587 0.18639 0.22872 0.0
H134 H 0.15868 0.14845 0.29441 0.0
H135 H 0.14587 0.17054 0.36378 0.0
C136 C 0.45043 0.43983 0.64589 0.0
C137 C 0.47428 0.42959 0.62707 0.0
C138 C 0.44996 0.45005 0.68813 0.0
C139 C 0.47319 0.44854 0.71251 0.0
C140 C 0.49745 0.44188 0.69311 0.0
C141 C 0.4981 0.43314 0.65073 0.0
C142 C 0.47266 0.45027 0.75818 0.0
C143 C 0.44964 0.43376 0.78031 0.0
C144 C 0.44961 0.42355 0.82548 0.0
C145 C 0.42756 0.38423 0.84291 0.0
C146 C 0.42791 0.3684 0.8844 0.0
C147 C 0.45036 0.39174 0.9094 0.0
H148 H 0.48811 0.48208 0.83931 0.0
C149 C 0.47175 0.43361 0.89256 0.0
C150 C 0.47131 0.44969 0.85109 0.0
H151 H 0.48909 0.45333 0.91123 0.0
H152 H 0.43192 0.43841 0.62812 0.0
H153 H 0.43118 0.4576 0.70149 0.0
H154 H 0.51573 0.44108 0.71099 0.0
H155 H 0.51682 0.4256 0.63698 0.0
H156 H 0.49227 0.45863 0.77377 0.0
H157 H 0.43026 0.42049 0.76454 0.0
H158 H 0.4104 0.36397 0.82403 0.0
H159 H 0.41098 0.33641 0.89648 0.0
C160 C 0.82631 0.72937 0.34878 0.0
C161 C 0.8502 0.76409 0.36502 0.0
C162 C 0.81805 0.73842 0.30856 0.0
C163 C 0.83373 0.78203 0.2836 0.0
C164 C 0.8563 0.81978 0.30098 0.0
C165 C 0.86452 0.81087 0.34128 0.0
C166 C 0.82928 0.78555 0.23854 0.0
C167 C 0.8185 0.73809 0.21593 0.0
C168 C 0.82328 0.73395 0.17111 0.0
C169 C 0.84644 0.76781 0.15213 0.0
C170 C 0.85377 0.75466 0.11254 0.0
C171 C 0.83818 0.70762 0.09078 0.0
H172 H 0.78916 0.66153 0.16262 0.0
C173 C 0.81426 0.67568 0.10876 0.0
C174 C 0.80696 0.68864 0.14864 0.0
H175 H 0.80176 0.63928 0.0927 0.0
H176 H 0.81442 0.69385 0.36666 0.0
H177 H 0.79985 0.71003 0.29694 0.0
H178 H 0.86858 0.85416 0.28259 0.0
H179 H 0.88281 0.8389 0.35306 0.0
H180 H 0.83882 0.82603 0.22314 0.0
H181 H 0.80855 0.69774 0.23105 0.0
H182 H 0.86017 0.80185 0.1685 0.0
H183 H 0.8726 0.77949 0.09996 0.0
C184 C 0.55301 0.54689 0.92975 0.0
C185 C 0.57622 0.58224 0.94747 0.0
C186 C 0.55246 0.53371 0.88786 0.0
C187 C 0.57505 0.55611 0.86282 0.0
C188 C 0.59889 0.58756 0.88119 0.0
C189 C 0.59948 0.60068 0.92304 0.0
C190 C 0.57411 0.55101 0.81733 0.0
C191 C 0.55084 0.54688 0.79539 0.0
C192 C 0.55021 0.555 0.75001 0.0
C193 C 0.5271 0.57132 0.73211 0.0
C194 C 0.52651 0.58452 0.69016 0.0
C195 C 0.54926 0.58268 0.6655 0.0
H196 H 0.59012 0.5351 0.73651 0.0
C197 C 0.57199 0.56434 0.68285 0.0
C198 C 0.57233 0.5497 0.72455 0.0
H199 H 0.58962 0.56178 0.66417 0.0
H200 H 0.5349 0.53103 0.94789 0.0
H201 H 0.53415 0.5071 0.87516 0.0
H202 H 0.61674 0.60457 0.86274 0.0
H203 H 0.61781 0.62742 0.93577 0.0
H204 H 0.5936 0.55863 0.80166 0.0
H205 H 0.53165 0.54423 0.81146 0.0
H206 H 0.50968 0.57532 0.75082 0.0
H207 H 0.50871 0.59844 0.6774 0.0
C208 C 0.86861 0.80066 0.61163 0.0
C209 C 0.8536 0.75484 0.58805 0.0
C210 C 0.86242 0.80618 0.65309 0.0
C211 C 0.84129 0.76584 0.67179 0.0
C212 C 0.82488 0.723 0.64738 0.0
C213 C 0.83105 0.71745 0.60596 0.0
C214 C 0.83857 0.76673 0.71717 0.0
C215 C 0.83051 0.71714 0.73948 0.0
C216 C 0.83408 0.71304 0.78474 0.0
C217 C 0.82062 0.66217 0.80533 0.0
C218 C 0.82634 0.65226 0.8466 0.0
C219 C 0.84583 0.69297 0.8681 0.0
H220 H 0.86424 0.79401 0.79221 0.0
C221 C 0.85853 0.74497 0.84801 0.0
C222 C 0.85282 0.75487 0.8068 0.0
H223 H 0.87366 0.7773 0.86365 0.0
H224 H 0.88591 0.83065 0.59864 0.0
H225 H 0.87515 0.84008 0.67112 0.0
H226 H 0.80769 0.69272 0.66032 0.0
H227 H 0.81866 0.68255 0.58838 0.0
H228 H 0.84637 0.80808 0.73241 0.0
H229 H 0.82289 0.676 0.72378 0.0
H230 H 0.80621 0.62902 0.78909 0.0
H231 H 0.8161 0.61185 0.86122 0.0
C232 C 0.57134 0.54447 0.194 0.0
C233 C 0.59165 0.58267 0.17194 0.0
C234 C 0.57572 0.52974 0.23486 0.0
C235 C 0.60064 0.55272 0.25458 0.0
C236 C 0.62148 0.58803 0.2317 0.0
C237 C 0.61711 0.60268 0.19076 0.0
C238 C 0.60401 0.549 0.29992 0.0
C239 C 0.58762 0.51009 0.32426 0.0
C240 C 0.58442 0.52096 0.36872 0.0
C241 C 0.55849 0.50329 0.38623 0.0
C242 C 0.55289 0.52337 0.42501 0.0
C243 C 0.57319 0.56078 0.44727 0.0
H244 H 0.62603 0.56625 0.38079 0.0
C245 C 0.59986 0.57385 0.43146 0.0
C246 C 0.60546 0.55399 0.39256 0.0
H247 H 0.61619 0.60137 0.44835 0.0
H248 H 0.55152 0.52807 0.18038 0.0
H249 H 0.55879 0.50352 0.25128 0.0
H250 H 0.64081 0.60662 0.2461 0.0
H251 H 0.63326 0.63199 0.17459 0.0
H252 H 0.6186 0.58444 0.3138 0.0
H253 H 0.5731 0.47442 0.31057 0.0
H254 H 0.54206 0.47683 0.36884 0.0
H255 H 0.53245 0.51116 0.43715 0.0
C256 C 0.19003 0.28538 0.84418 0.0
C257 C 0.17134 0.2476 0.86909 0.0
C258 C 0.19316 0.27207 0.80288 0.0
C259 C 0.17773 0.2204 0.78577 0.0
C260 C 0.16002 0.18147 0.81122 0.0
C261 C 0.15691 0.19473 0.85245 0.0
C262 C 0.17648 0.20987 0.74084 0.0
C263 C 0.1958 0.2357 0.71427 0.0
C264 C 0.19053 0.23865 0.66944 0.0
C265 C 0.20405 0.28794 0.64739 0.0
C266 C 0.19636 0.29802 0.60708 0.0
C267 C 0.17502 0.25874 0.58796 0.0
H268 H 0.16069 0.15691 0.6645 0.0
C269 C 0.16294 0.20703 0.60889 0.0
C270 C 0.17073 0.19683 0.64917 0.0
H271 H 0.1469 0.17518 0.59464 0.0
H272 H 0.20147 0.32641 0.8561 0.0
H273 H 0.20652 0.30414 0.78422 0.0
H274 H 0.14776 0.14162 0.79879 0.0
H275 H 0.14235 0.16453 0.87076 0.0
H276 H 0.15756 0.18376 0.7293 0.0
H277 H 0.21475 0.26168 0.72585 0.0
H278 H 0.21963 0.32045 0.66207 0.0
H279 H 0.20647 0.33778 0.59156 0.0
C280 C 0.42821 0.43063 0.38969 0.0
C281 C 0.4549 0.44204 0.40575 0.0
C282 C 0.423 0.44942 0.35003 0.0
C283 C 0.44447 0.47969 0.32561 0.0
C284 C 0.47056 0.49569 0.34306 0.0
C285 C 0.47574 0.47681 0.38263 0.0
C286 C 0.44143 0.48912 0.28078 0.0
C287 C 0.42455 0.45014 0.25733 0.0
C288 C 0.42781 0.44404 0.21223 0.0
C289 C 0.407 0.40701 0.19046 0.0
C290 C 0.41136 0.38962 0.1504 0.0
C291 C 0.43676 0.40867 0.13134 0.0
H292 H 0.46947 0.49403 0.20748 0.0
C293 C 0.45694 0.4489 0.15198 0.0
C294 C 0.45259 0.46631 0.19199 0.0
H295 H 0.4767 0.4647 0.13808 0.0
H296 H 0.41147 0.40524 0.40709 0.0
H297 H 0.40238 0.4384 0.33817 0.0
H298 H 0.48742 0.5196 0.32512 0.0
H299 H 0.49632 0.48721 0.39424 0.0
H300 H 0.4564 0.52343 0.26638 0.0
H301 H 0.4096 0.41606 0.27209 0.0
H302 H 0.38775 0.38902 0.20524 0.0
H303 H 0.39529 0.35884 0.13527 0.0
C304 C 0.93542 0.51935 -0.00125 0.0
C305 C 0.939 0.58093 -0.00451 0.0
C306 C 0.95796 0.49193 0.00173 0.0
C307 C 0.98468 0.52555 0.00125 0.0
C308 C 0.98817 0.5871 -0.00133 0.0
C309 C 0.96566 0.61448 -0.0043 0.0
C310 C 1.00947 0.49883 0.00389 0.0
C311 C 1.0098 0.44209 -0.00472 0.0
C312 C 0.03504 0.4168 -0.00398 0.0
C313 C 0.03259 0.3556 0.00013 0.0
C314 C 0.05569 0.32984 -0.0006 0.0
C315 C 0.08182 0.36476 -0.00582 0.0
H316 H 0.0641 0.49876 -0.01393 0.0
C317 C 0.08429 0.42602 -0.00996 0.0
C318 C 0.06122 0.45173 -0.00922 0.0
H319 H 0.10406 0.45428 -0.01441 0.0
H320 H 0.91516 0.49214 -0.00091 0.0
H321 H 0.95415 0.44459 0.00494 0.0
H322 H 1.00845 0.61425 -0.00146 0.0
H323 H 0.96922 0.66201 -0.00659 0.0
H324 H 0.02834 0.52806 0.01247 0.0
H325 H 0.991 0.41238 -0.01289 0.0
H326 H 1.01269 0.32751 0.00385 0.0
H327 H 0.05301 0.28251 0.00253 0.0
C328 C 0.54899 0.86068 0.52559 0.0
C329 C 0.52927 0.80846 0.52757 0.0
C330 C 0.54128 0.91486 0.51905 0.0
C331 C 0.51353 0.9182 0.51478 0.0
C332 C 0.49391 0.86579 0.5161 0.0
C333 C 0.50164 0.8116 0.52245 0.0
C334 C 0.50409 0.97485 0.50856 0.0
C335 C 0.51952 0.02813 0.51657 0.0
C336 C 0.50976 0.08447 0.51168 0.0
C337 C 0.52919 0.13663 0.50684 0.0
C338 C 0.52119 0.19102 0.50444 0.0
C339 C 0.4935 0.19466 0.50728 0.0
H340 H 0.46636 0.04905 0.51888 0.0
C341 C 0.47395 0.14245 0.51172 0.0
C342 C 0.48197 0.08792 0.51399 0.0
H343 H 0.45247 0.14371 0.51429 0.0
H344 H 0.57049 0.85978 0.52888 0.0
H345 H 0.55729 0.95348 0.51689 0.0
H346 H 0.47242 0.86677 0.5126 0.0
H347 H 0.48589 0.77221 0.52362 0.0
H348 H 0.48333 0.97202 0.49758 0.0
H349 H 0.54035 0.03156 0.52723 0.0
H350 H 0.55072 0.13538 0.5052 0.0
H351 H 0.53684 0.2303 0.50108 0.0
C352 C 0.06226 0.38849 0.47117 0.0
C353 C 0.08996 0.41588 0.47357 0.0
C354 C 0.04176 0.42174 0.46962 0.0
C355 C 0.04836 0.48358 0.47082 0.0
C356 C 0.07607 0.511 0.47282 0.0
C357 C 0.09664 0.47762 0.47428 0.0
C358 C 0.02716 0.52097 0.46873 0.0
C359 C 1.00046 0.50136 0.47744 0.0
C360 C 0.97917 0.53852 0.47542 0.0
C361 C 0.95149 0.51072 0.47435 0.0
C362 C 0.93078 0.54372 0.47331 0.0
C363 C 0.93727 0.60549 0.47353 0.0
H364 H 1.00646 0.62404 0.47796 0.0
C365 C 0.96495 0.6333 0.47478 0.0
C366 C 0.98561 0.6004 0.47587 0.0
H367 H 0.97079 0.68082 0.47537 0.0
H368 H 0.05628 0.34102 0.47011 0.0
H369 H 0.0209 0.39843 0.46667 0.0
H370 H 0.08186 0.55854 0.47342 0.0
H371 H 0.11774 0.50022 0.47596 0.0
H372 H 0.03421 0.56655 0.45985 0.0
H373 H 0.99347 0.45579 0.48645 0.0
H374 H 0.94582 0.46315 0.47428 0.0
H375 H 0.90971 0.52078 0.47252 0.0
C376 C 0.52451 0.82208 0.0617 0.0
C377 C 0.55234 0.81904 0.06145 0.0
C378 C 0.51627 0.87618 0.05859 0.0
C379 C 0.53572 0.92891 0.05557 0.0
C380 C 0.56354 0.92581 0.05551 0.0
C381 C 0.57179 0.87159 0.0585 0.0
C382 C 0.52798 0.98757 0.05067 0.0
C383 C 0.50303 -0.00162 0.05939 0.0
C384 C 0.49521 0.05664 0.05318 0.0
C385 C 0.46743 0.05886 0.04889 0.0
C386 C 0.4591 0.11258 0.04316 0.0
C387 C 0.4784 0.16551 0.04194 0.0
H388 H 0.53602 0.11042 0.05699 0.0
C389 C 0.50619 0.16342 0.04676 0.0
C390 C 0.51451 0.10972 0.05244 0.0
H391 H 0.52161 0.20338 0.0464 0.0
H392 H 0.50893 0.78246 0.06354 0.0
H393 H 0.49462 0.87578 0.05752 0.0
H394 H 0.57901 0.96554 0.05296 0.0
H395 H 0.5934 0.8709 0.05809 0.0
H396 H 0.54366 0.02297 0.03906 0.0
H397 H 0.4872 0.96319 0.07082 0.0
H398 H 0.45207 0.01877 0.04968 0.0
H399 H 0.43752 0.11255 0.03977 0.0
C400 C 0.16417 0.09055 0.03915 0.0
C401 C 0.15089 0.10482 0.00354 0.0
C402 C 0.1927 0.09981 0.04065 0.0
C403 C 0.20834 0.12269 0.00616 0.0
C404 C 0.19473 0.13244 0.96962 0.0
C405 C 0.16627 0.12323 0.9683 0.0
C406 C 0.2387 0.13643 0.00678 0.0
C407 C 0.25356 0.1509 0.04124 0.0
C408 C 0.28389 0.16893 0.04184 0.0
C409 C 0.29774 0.16659 0.07932 0.0
C410 C 0.32604 0.18567 0.08185 0.0
C411 C 0.34117 0.20807 0.04694 0.0
H412 H 0.28931 0.19553 0.97753 0.0
C413 C 0.32738 0.21022 0.00934 0.0
C414 C 0.29909 0.1911 0.00679 0.0
H415 H 0.33838 0.22767 0.9819 0.0
H416 H 0.15252 0.07409 0.06626 0.0
H417 H 0.2023 0.0891 0.06883 0.0
H418 H 0.20616 0.14815 0.94215 0.0
H419 H 0.15622 0.12974 0.93963 0.0
H420 H 0.24887 0.137 0.97735 0.0
H421 H 0.24322 0.15046 0.07057 0.0
H422 H 0.28661 0.15022 0.1069 0.0
H423 H 0.33596 0.18355 0.11136 0.0
C424 C 0.7661 0.53808 0.46396 0.0
C425 C 0.78036 0.53891 0.50143 0.0
C426 C 0.73779 0.51834 0.46237 0.0
C427 C 0.72304 0.49831 0.49828 0.0
C428 C 0.73753 0.49719 0.53536 0.0
C429 C 0.76579 0.51717 0.53696 0.0
C430 C 0.69262 0.48144 0.49923 0.0
C431 C 0.67645 0.47205 0.4656 0.0
C432 C 0.64612 0.45615 0.4678 0.0
C433 C 0.63171 0.42401 0.43552 0.0
C434 C 0.60329 0.40708 0.43689 0.0
C435 C 0.58855 0.42267 0.47037 0.0
H436 H 0.6415 0.50009 0.52545 0.0
C437 C 0.60284 0.45668 0.50202 0.0
C438 C 0.63129 0.47332 0.50076 0.0
H439 H 0.59207 0.47019 0.52796 0.0
H440 H 0.77663 0.5549 0.43601 0.0
H441 H 0.7277 0.52109 0.43318 0.0
H442 H 0.72684 0.48205 0.56354 0.0
H443 H 0.77607 0.51722 0.56637 0.0
H444 H 0.68322 0.47546 0.52941 0.0
H445 H 0.68547 0.47304 0.43529 0.0
H446 H 0.64252 0.41106 0.40941 0.0
H447 H 0.59289 0.38161 0.4117 0.0
C448 C 0.86697 0.86173 0.03519 0.0
C449 C 0.87697 0.84677 -0.00267 0.0
C450 C 0.83881 0.85374 0.04185 0.0
C451 C 0.82027 0.83137 0.01038 0.0
C452 C 0.83054 0.82008 0.97176 0.0
C453 C 0.85862 0.82781 0.9653 0.0
C454 C 0.7902 0.82021 0.01619 0.0
C455 C 0.77795 0.80613 0.05279 0.0
C456 C 0.74775 0.7913 0.0583 0.0
C457 C 0.73698 0.79363 0.09795 0.0
C458 C 0.70884 0.77823 0.10478 0.0
C459 C 0.69079 0.75963 0.07208 0.0
H460 H 0.73689 0.76809 -0.00528 0.0
C461 C 0.70152 0.75724 0.03239 0.0
C462 C 0.72963 0.77259 0.02556 0.0
H463 H 0.68825 0.74254 0.00655 0.0
H464 H 0.88092 0.87796 0.05998 0.0
H465 H 0.83173 0.86517 0.07153 0.0
H466 H 0.81678 0.80433 0.94663 0.0
H467 H 0.86605 0.81952 0.93517 0.0
H468 H 0.77794 0.82154 -0.01128 0.0
H469 H 0.79042 0.80471 0.08009 0.0
H470 H 0.7504 0.80729 0.12385 0.0
H471 H 0.7013 0.78031 0.13581 0.0
C472 C 0.4232 0.53954 0.52966 0.0
C473 C 0.43953 0.55316 0.49447 0.0
C474 C 0.39475 0.52529 0.52625 0.0
C475 C 0.38198 0.52417 0.48749 0.0
C476 C 0.39836 0.53523 0.45224 0.0
C477 C 0.4268 0.55014 0.45567 0.0
C478 C 0.35175 0.51044 0.48272 0.0
C479 C 0.33456 0.52366 0.51153 0.0
C480 C 0.30418 0.50889 0.50841 0.0
C481 C 0.28884 0.50902 0.5445 0.0
C482 C 0.26041 0.49197 0.54384 0.0
C483 C 0.24653 0.47467 0.50691 0.0
H484 H 0.30094 0.49568 0.44218 0.0
C485 C 0.26169 0.47742 0.47035 0.0
C486 C 0.29017 0.49442 0.47102 0.0
H487 H 0.25166 0.4648 0.44128 0.0
H488 H 0.43234 0.5407 0.56 0.0
H489 H 0.3829 0.51476 0.55402 0.0
H490 H 0.38911 0.53369 0.42196 0.0
H491 H 0.43874 0.56008 0.4279 0.0
H492 H 0.34377 0.48989 0.45419 0.0
H493 H 0.34305 0.54516 0.53955 0.0
H494 H 0.29894 0.52068 0.57368 0.0
H495 H 0.24942 0.49059 0.57258 0.0
loop_
_geom_bond_atom_site_label_1
_geom_bond_atom_site_label_2
_geom_bond_distance
_geom_bond_site_symmetry_2
_ccdc_geom_bond_type
Zn0 O3 2.031 1_554 S
Zn0 O5 2.049 . S
Zn0 O10 2.067 . S
Zn1 O2 1.962 1_554 S
Zn1 O4 1.986 . S
Zn1 O6 1.996 . S
Zn1 O9 1.943 . S
O2 Zn1 1.962 1_556 S
O2 C7 1.254 . S
O3 Zn0 2.031 1_556 S
O3 C7 1.269 . S
O4 Zn1 1.986 . S
O4 C11 1.262 . S
O5 Zn0 2.049 . S
O5 C13 1.260 . S
O6 Zn1 1.996 . S
O6 C13 1.257 . S
C7 O2 1.254 . S
C7 O3 1.269 . S
C8 O9 1.249 . S
C8 O10 1.270 . S
O9 Zn1 1.943 . S
O9 C8 1.249 . S
O10 Zn0 2.067 . S
O10 C8 1.270 . S
C11 O4 1.262 . S
C11 O12 1.232 1_554 S
O12 C11 1.232 1_556 S
C13 O5 1.260 . S
C13 O6 1.257 . S
Zn14 O17 2.031 . S
Zn14 O19 2.049 . S
Zn14 O24 2.067 . S
Zn15 O16 1.962 . S
Zn15 O18 1.986 . S
Zn15 O20 1.996 . S
Zn15 O23 1.943 . S
O16 Zn15 1.962 . S
O16 C21 1.254 . S
O17 Zn14 2.031 . S
O17 C21 1.269 . S
O18 Zn15 1.986 . S
O18 C25 1.262 . S
O19 Zn14 2.049 . S
O19 C27 1.260 . S
O20 Zn15 1.996 . S
O20 C27 1.257 . S
C21 O16 1.254 . S
C21 O17 1.269 . S
C22 O23 1.249 . S
C22 O24 1.270 . S
O23 Zn15 1.943 . S
O23 C22 1.249 . S
O24 Zn14 2.067 . S
O24 C22 1.270 . S
C25 O18 1.262 . S
C25 O26 1.232 . S
O26 C25 1.232 . S
C27 O19 1.260 . S
C27 O20 1.257 . S
Zn28 O31 2.031 1_554 S
Zn28 O33 2.049 . S
Zn28 O38 2.067 . S
Zn29 O30 1.962 1_554 S
Zn29 O32 1.986 . S
Zn29 O34 1.996 . S
Zn29 O37 1.943 . S
O30 Zn29 1.962 1_556 S
O30 C35 1.254 . S
O31 Zn28 2.031 1_556 S
O31 C35 1.269 . S
O32 Zn29 1.986 . S
O32 C39 1.262 . S
O33 Zn28 2.049 . S
O33 C41 1.260 . S
O34 Zn29 1.996 . S
O34 C41 1.257 . S
C35 O30 1.254 . S
C35 O31 1.269 . S
C36 O37 1.249 . S
C36 O38 1.270 . S
O37 Zn29 1.943 . S
O37 C36 1.249 . S
O38 Zn28 2.067 . S
O38 C36 1.270 . S
C39 O32 1.262 . S
C39 O40 1.232 1_554 S
O40 C39 1.232 1_556 S
C41 O33 1.260 . S
C41 O34 1.257 . S
Zn42 O45 2.031 . S
Zn42 O47 2.049 . S
Zn42 O52 2.067 . S
Zn43 O44 1.962 . S
Zn43 O46 1.986 . S
Zn43 O48 1.996 . S
Zn43 O51 1.943 . S
O44 Zn43 1.962 . S
O44 C49 1.254 . S
O45 Zn42 2.031 . S
O45 C49 1.269 . S
O46 Zn43 1.986 . S
O46 C53 1.262 . S
O47 Zn42 2.049 . S
O47 C55 1.260 . S
O48 Zn43 1.996 . S
O48 C55 1.257 . S
C49 O44 1.254 . S
C49 O45 1.269 . S
C50 O51 1.249 . S
C50 O52 1.270 . S
O51 Zn43 1.943 . S
O51 C50 1.249 . S
O52 Zn42 2.067 . S
O52 C50 1.270 . S
C53 O46 1.262 . S
C53 O54 1.232 . S
O54 C53 1.232 . S
C55 O47 1.260 . S
C55 O48 1.257 . S
Zn56 O59 2.031 . S
Zn56 O61 2.049 . S
Zn56 O66 2.067 . S
Zn57 O58 1.962 . S
Zn57 O60 1.986 . S
Zn57 O62 1.996 . S
Zn57 O65 1.943 . S
O58 Zn57 1.962 . S
O58 C63 1.254 . S
O59 Zn56 2.031 . S
O59 C63 1.269 . S
O60 Zn57 1.986 . S
O60 C67 1.262 . S
O61 Zn56 2.049 . S
O61 C69 1.260 . S
O62 Zn57 1.996 . S
O62 C69 1.257 . S
C63 O58 1.254 . S
C63 O59 1.269 . S
C64 O65 1.249 . S
C64 O66 1.270 . S
O65 Zn57 1.943 . S
O65 C64 1.249 . S
O66 Zn56 2.067 . S
O66 C64 1.270 . S
C67 O60 1.262 . S
C67 O68 1.232 . S
O68 C67 1.232 . S
C69 O61 1.260 . S
C69 O62 1.257 . S
Zn70 O73 2.031 . S
Zn70 O75 2.049 1_554 S
Zn70 O80 2.067 . S
Zn71 O72 1.962 . S
Zn71 O74 1.986 . S
Zn71 O76 1.996 1_554 S
Zn71 O79 1.943 . S
O72 Zn71 1.962 . S
O72 C77 1.254 . S
O73 Zn70 2.031 . S
O73 C77 1.269 . S
O74 Zn71 1.986 . S
O74 C81 1.262 . S
O75 Zn70 2.049 1_556 S
O75 C83 1.260 . S
O76 Zn71 1.996 1_556 S
O76 C83 1.257 . S
C77 O72 1.254 . S
C77 O73 1.269 . S
C78 O79 1.249 . S
C78 O80 1.270 . S
O79 Zn71 1.943 . S
O79 C78 1.249 . S
O80 Zn70 2.067 . S
O80 C78 1.270 . S
C81 O74 1.262 . S
C81 O82 1.232 . S
O82 C81 1.232 . S
C83 O75 1.260 . S
C83 O76 1.257 . S
Zn84 O87 2.031 . S
Zn84 O89 2.049 . S
Zn84 O94 2.067 . S
Zn85 O86 1.962 . S
Zn85 O88 1.986 . S
Zn85 O90 1.996 . S
Zn85 O93 1.943 . S
O86 Zn85 1.962 . S
O86 C91 1.254 . S
O87 Zn84 2.031 . S
O87 C91 1.269 . S
O88 Zn85 1.986 . S
O88 C95 1.262 . S
O89 Zn84 2.049 . S
O89 C97 1.260 . S
O90 Zn85 1.996 . S
O90 C97 1.257 . S
C91 O86 1.254 . S
C91 O87 1.269 . S
C92 O93 1.249 . S
C92 O94 1.270 . S
O93 Zn85 1.943 . S
O93 C92 1.249 . S
O94 Zn84 2.067 . S
O94 C92 1.270 . S
C95 O88 1.262 . S
C95 O96 1.232 . S
O96 C95 1.232 . S
C97 O89 1.260 . S
C97 O90 1.257 . S
Zn98 O101 2.031 . S
Zn98 O103 2.049 1_554 S
Zn98 O108 2.067 . S
Zn99 O100 1.962 . S
Zn99 O102 1.986 . S
Zn99 O104 1.996 1_554 S
Zn99 O107 1.943 . S
O100 Zn99 1.962 . S
O100 C105 1.254 . S
O101 Zn98 2.031 . S
O101 C105 1.269 . S
O102 Zn99 1.986 . S
O102 C109 1.262 . S
O103 Zn98 2.049 1_556 S
O103 C111 1.260 . S
O104 Zn99 1.996 1_556 S
O104 C111 1.257 . S
C105 O100 1.254 . S
C105 O101 1.269 . S
C106 O107 1.249 . S
C106 O108 1.270 . S
O107 Zn99 1.943 . S
O107 C106 1.249 . S
O108 Zn98 2.067 . S
O108 C106 1.270 . S
C109 O102 1.262 . S
C109 O110 1.232 . S
O110 C109 1.232 . S
C111 O103 1.260 . S
C111 O104 1.257 . S
C112 C113 1.386 . S
C112 C114 1.383 . S
C112 H128 0.951 . S
C113 C112 1.386 . S
C113 C117 1.383 . S
C114 C112 1.383 . S
C114 C115 1.402 . S
C114 H129 0.951 . S
C115 C114 1.402 . S
C115 C116 1.375 . S
C115 C118 1.481 . S
C116 C115 1.375 . S
C116 C117 1.367 . S
C116 H130 0.951 . S
C117 C113 1.383 . S
C117 C116 1.367 . S
C117 H131 0.950 . S
C118 C115 1.481 . S
C118 C119 1.297 . S
C118 H132 0.950 . S
C119 C118 1.297 . S
C119 C120 1.479 . S
C119 H133 0.950 . S
C120 C119 1.479 . S
C120 C121 1.375 . S
C120 C126 1.404 . S
C121 C120 1.375 . S
C121 C122 1.369 . S
C121 H134 0.950 . S
C122 C121 1.369 . S
C122 C123 1.392 . S
C122 H135 0.951 . S
C123 C122 1.392 . S
C123 C125 1.384 . S
H124 C126 0.949 . S
C125 C123 1.384 . S
C125 C126 1.385 . S
C125 H127 0.950 . S
C126 C120 1.404 . S
C126 H124 0.949 . S
C126 C125 1.385 . S
H127 C125 0.950 . S
H128 C112 0.951 . S
H129 C114 0.951 . S
H130 C116 0.951 . S
H131 C117 0.950 . S
H132 C118 0.950 . S
H133 C119 0.950 . S
H134 C121 0.950 . S
H135 C122 0.951 . S
C136 C137 1.386 . S
C136 C138 1.383 . S
C136 H152 0.951 . S
C137 C136 1.386 . S
C137 C141 1.383 . S
C138 C136 1.383 . S
C138 C139 1.402 . S
C138 H153 0.951 . S
C139 C138 1.402 . S
C139 C140 1.375 . S
C139 C142 1.481 . S
C140 C139 1.375 . S
C140 C141 1.367 . S
C140 H154 0.951 . S
C141 C137 1.383 . S
C141 C140 1.367 . S
C141 H155 0.950 . S
C142 C139 1.481 . S
C142 C143 1.297 . S
C142 H156 0.950 . S
C143 C142 1.297 . S
C143 C144 1.479 . S
C143 H157 0.950 . S
C144 C143 1.479 . S
C144 C145 1.375 . S
C144 C150 1.404 . S
C145 C144 1.375 . S
C145 C146 1.369 . S
C145 H158 0.950 . S
C146 C145 1.369 . S
C146 C147 1.392 . S
C146 H159 0.951 . S
C147 C146 1.392 . S
C147 C149 1.384 . S
H148 C150 0.949 . S
C149 C147 1.384 . S
C149 C150 1.385 . S
C149 H151 0.950 . S
C150 C144 1.404 . S
C150 H148 0.949 . S
C150 C149 1.385 . S
H151 C149 0.950 . S
H152 C136 0.951 . S
H153 C138 0.951 . S
H154 C140 0.951 . S
H155 C141 0.950 . S
H156 C142 0.950 . S
H157 C143 0.950 . S
H158 C145 0.950 . S
H159 C146 0.951 . S
C160 C161 1.386 . S
C160 C162 1.383 . S
C160 H176 0.951 . S
C161 C160 1.386 . S
C161 C165 1.383 . S
C162 C160 1.383 . S
C162 C163 1.402 . S
C162 H177 0.951 . S
C163 C162 1.402 . S
C163 C164 1.375 . S
C163 C166 1.481 . S
C164 C163 1.375 . S
C164 C165 1.367 . S
C164 H178 0.951 . S
C165 C161 1.383 . S
C165 C164 1.367 . S
C165 H179 0.950 . S
C166 C163 1.481 . S
C166 C167 1.297 . S
C166 H180 0.950 . S
C167 C166 1.297 . S
C167 C168 1.479 . S
C167 H181 0.950 . S
C168 C167 1.479 . S
C168 C169 1.375 . S
C168 C174 1.404 . S
C169 C168 1.375 . S
C169 C170 1.369 . S
C169 H182 0.950 . S
C170 C169 1.369 . S
C170 C171 1.392 . S
C170 H183 0.951 . S
C171 C170 1.392 . S
C171 C173 1.384 . S
H172 C174 0.949 . S
C173 C171 1.384 . S
C173 C174 1.385 . S
C173 H175 0.950 . S
C174 C168 1.404 . S
C174 H172 0.949 . S
C174 C173 1.385 . S
H175 C173 0.950 . S
H176 C160 0.951 . S
H177 C162 0.951 . S
H178 C164 0.951 . S
H179 C165 0.950 . S
H180 C166 0.950 . S
H181 C167 0.950 . S
H182 C169 0.950 . S
H183 C170 0.951 . S
C184 C185 1.386 . S
C184 C186 1.383 . S
C184 H200 0.951 . S
C185 C184 1.386 . S
C185 C189 1.383 . S
C186 C184 1.383 . S
C186 C187 1.402 . S
C186 H201 0.951 . S
C187 C186 1.402 . S
C187 C188 1.375 . S
C187 C190 1.481 . S
C188 C187 1.375 . S
C188 C189 1.367 . S
C188 H202 0.951 . S
C189 C185 1.383 . S
C189 C188 1.367 . S
C189 H203 0.950 . S
C190 C187 1.481 . S
C190 C191 1.297 . S
C190 H204 0.950 . S
C191 C190 1.297 . S
C191 C192 1.479 . S
C191 H205 0.950 . S
C192 C191 1.479 . S
C192 C193 1.375 . S
C192 C198 1.404 . S
C193 C192 1.375 . S
C193 C194 1.369 . S
C193 H206 0.950 . S
C194 C193 1.369 . S
C194 C195 1.392 . S
C194 H207 0.951 . S
C195 C194 1.392 . S
C195 C197 1.384 . S
H196 C198 0.949 . S
C197 C195 1.384 . S
C197 C198 1.385 . S
C197 H199 0.950 . S
C198 C192 1.404 . S
C198 H196 0.949 . S
C198 C197 1.385 . S
H199 C197 0.950 . S
H200 C184 0.951 . S
H201 C186 0.951 . S
H202 C188 0.951 . S
H203 C189 0.950 . S
H204 C190 0.950 . S
H205 C191 0.950 . S
H206 C193 0.950 . S
H207 C194 0.951 . S
C208 C209 1.386 . S
C208 C210 1.383 . S
C208 H224 0.951 . S
C209 C208 1.386 . S
C209 C213 1.383 . S
C210 C208 1.383 . S
C210 C211 1.402 . S
C210 H225 0.951 . S
C211 C210 1.402 . S
C211 C212 1.375 . S
C211 C214 1.481 . S
C212 C211 1.375 . S
C212 C213 1.367 . S
C212 H226 0.951 . S
C213 C209 1.383 . S
C213 C212 1.367 . S
C213 H227 0.950 . S
C214 C211 1.481 . S
C214 C215 1.297 . S
C214 H228 0.950 . S
C215 C214 1.297 . S
C215 C216 1.479 . S
C215 H229 0.950 . S
C216 C215 1.479 . S
C216 C217 1.375 . S
C216 C222 1.404 . S
C217 C216 1.375 . S
C217 C218 1.369 . S
C217 H230 0.950 . S
C218 C217 1.369 . S
C218 C219 1.392 . S
C218 H231 0.951 . S
C219 C218 1.392 . S
C219 C221 1.384 . S
H220 C222 0.949 . S
C221 C219 1.384 . S
C221 C222 1.385 . S
C221 H223 0.950 . S
C222 C216 1.404 . S
C222 H220 0.949 . S
C222 C221 1.385 . S
H223 C221 0.950 . S
H224 C208 0.951 . S
H225 C210 0.951 . S
H226 C212 0.951 . S
H227 C213 0.950 . S
H228 C214 0.950 . S
H229 C215 0.950 . S
H230 C217 0.950 . S
H231 C218 0.951 . S
C232 C233 1.386 . S
C232 C234 1.383 . S
C232 H248 0.951 . S
C233 C232 1.386 . S
C233 C237 1.383 . S
C234 C232 1.383 . S
C234 C235 1.402 . S
C234 H249 0.951 . S
C235 C234 1.402 . S
C235 C236 1.375 . S
C235 C238 1.481 . S
C236 C235 1.375 . S
C236 C237 1.367 . S
C236 H250 0.951 . S
C237 C233 1.383 . S
C237 C236 1.367 . S
C237 H251 0.950 . S
C238 C235 1.481 . S
C238 C239 1.297 . S
C238 H252 0.950 . S
C239 C238 1.297 . S
C239 C240 1.479 . S
C239 H253 0.950 . S
C240 C239 1.479 . S
C240 C241 1.375 . S
C240 C246 1.404 . S
C241 C240 1.375 . S
C241 C242 1.369 . S
C241 H254 0.950 . S
C242 C241 1.369 . S
C242 C243 1.392 . S
C242 H255 0.951 . S
C243 C242 1.392 . S
C243 C245 1.384 . S
H244 C246 0.949 . S
C245 C243 1.384 . S
C245 C246 1.385 . S
C245 H247 0.950 . S
C246 C240 1.404 . S
C246 H244 0.949 . S
C246 C245 1.385 . S
H247 C245 0.950 . S
H248 C232 0.951 . S
H249 C234 0.951 . S
H250 C236 0.951 . S
H251 C237 0.950 . S
H252 C238 0.950 . S
H253 C239 0.950 . S
H254 C241 0.950 . S
H255 C242 0.951 . S
C256 C257 1.386 . S
C256 C258 1.383 . S
C256 H272 0.951 . S
C257 C256 1.386 . S
C257 C261 1.383 . S
C258 C256 1.383 . S
C258 C259 1.402 . S
C258 H273 0.951 . S
C259 C258 1.402 . S
C259 C260 1.375 . S
C259 C262 1.481 . S
C260 C259 1.375 . S
C260 C261 1.367 . S
C260 H274 0.951 . S
C261 C257 1.383 . S
C261 C260 1.367 . S
C261 H275 0.950 . S
C262 C259 1.481 . S
C262 C263 1.297 . S
C262 H276 0.950 . S
C263 C262 1.297 . S
C263 C264 1.479 . S
C263 H277 0.950 . S
C264 C263 1.479 . S
C264 C265 1.375 . S
C264 C270 1.404 . S
C265 C264 1.375 . S
C265 C266 1.369 . S
C265 H278 0.950 . S
C266 C265 1.369 . S
C266 C267 1.392 . S
C266 H279 0.951 . S
C267 C266 1.392 . S
C267 C269 1.384 . S
H268 C270 0.949 . S
C269 C267 1.384 . S
C269 C270 1.385 . S
C269 H271 0.950 . S
C270 C264 1.404 . S
C270 H268 0.949 . S
C270 C269 1.385 . S
H271 C269 0.950 . S
H272 C256 0.951 . S
H273 C258 0.951 . S
H274 C260 0.951 . S
H275 C261 0.950 . S
H276 C262 0.950 . S
H277 C263 0.950 . S
H278 C265 0.950 . S
H279 C266 0.951 . S
C280 C281 1.386 . S
C280 C282 1.383 . S
C280 H296 0.951 . S
C281 C280 1.386 . S
C281 C285 1.383 . S
C282 C280 1.383 . S
C282 C283 1.402 . S
C282 H297 0.951 . S
C283 C282 1.402 . S
C283 C284 1.375 . S
C283 C286 1.481 . S
C284 C283 1.375 . S
C284 C285 1.367 . S
C284 H298 0.951 . S
C285 C281 1.383 . S
C285 C284 1.367 . S
C285 H299 0.950 . S
C286 C283 1.481 . S
C286 C287 1.297 . S
C286 H300 0.950 . S
C287 C286 1.297 . S
C287 C288 1.479 . S
C287 H301 0.950 . S
C288 C287 1.479 . S
C288 C289 1.375 . S
C288 C294 1.404 . S
C289 C288 1.375 . S
C289 C290 1.369 . S
C289 H302 0.950 . S
C290 C289 1.369 . S
C290 C291 1.392 . S
C290 H303 0.951 . S
C291 C290 1.392 . S
C291 C293 1.384 . S
H292 C294 0.949 . S
C293 C291 1.384 . S
C293 C294 1.385 . S
C293 H295 0.950 . S
C294 C288 1.404 . S
C294 H292 0.949 . S
C294 C293 1.385 . S
H295 C293 0.950 . S
H296 C280 0.951 . S
H297 C282 0.951 . S
H298 C284 0.951 . S
H299 C285 0.950 . S
H300 C286 0.950 . S
H301 C287 0.950 . S
H302 C289 0.950 . S
H303 C290 0.951 . S
C304 C305 1.386 1_456 S
C304 C306 1.383 . S
C304 H320 0.951 . S
C305 C304 1.386 1_654 S
C305 C309 1.383 . S
C306 C304 1.383 . S
C306 C307 1.402 1_456 S
C306 H321 0.951 . S
C307 C306 1.402 1_654 S
C307 C308 1.375 . S
C307 C310 1.487 . S
C308 C307 1.375 . S
C308 C309 1.367 . S
C308 H322 0.951 . S
C309 C305 1.383 . S
C309 C308 1.367 . S
C309 H323 0.950 . S
C310 C307 1.487 . S
C310 C311 1.280 1_655 S
C310 H324 0.961 . S
C311 C310 1.280 1_455 S
C311 C312 1.479 . S
C311 H325 0.950 1_554 S
C312 C311 1.479 . S
C312 C313 1.375 1_554 S
C312 C318 1.404 . S
C313 C312 1.375 1_556 S
C313 C314 1.369 . S
C313 H326 0.950 . S
C314 C313 1.369 . S
C314 C315 1.392 1_556 S
C314 H327 0.951 . S
C315 C314 1.392 1_554 S
C315 C317 1.397 . S
H316 C318 0.949 1_655 S
C317 C315 1.397 . S
C317 C318 1.381 . S
C317 H319 0.942 1_455 S
C318 C312 1.404 . S
C318 H316 0.949 1_455 S
C318 C317 1.381 . S
H319 C317 0.942 1_655 S
H320 C304 0.951 . S
H321 C306 0.951 . S
H322 C308 0.951 . S
H323 C309 0.950 . S
H324 C310 0.961 . S
H325 C311 0.950 1_556 S
H326 C313 0.950 . S
H327 C314 0.951 . S
C328 C329 1.386 . S
C328 C330 1.383 . S
C328 H344 0.951 . S
C329 C328 1.386 . S
C329 C333 1.383 . S
C330 C328 1.383 . S
C330 C331 1.402 . S
C330 H345 0.951 . S
C331 C330 1.402 . S
C331 C332 1.375 . S
C331 C334 1.481 . S
C332 C331 1.375 . S
C332 C333 1.367 . S
C332 H346 0.951 . S
C333 C329 1.383 . S
C333 C332 1.367 . S
C333 H347 0.950 . S
C334 C331 1.481 . S
C334 C335 1.297 1_565 S
C334 H348 0.950 . S
C335 C334 1.297 1_545 S
C335 C336 1.479 . S
C335 H349 0.950 . S
C336 C335 1.479 . S
C336 C337 1.375 . S
C336 C342 1.404 . S
C337 C336 1.375 . S
C337 C338 1.369 . S
C337 H350 0.950 . S
C338 C337 1.369 . S
C338 C339 1.392 . S
C338 H351 0.951 . S
C339 C338 1.392 . S
C339 C341 1.384 . S
H340 C342 0.949 . S
C341 C339 1.384 . S
C341 C342 1.385 . S
C341 H343 0.950 . S
C342 C336 1.404 . S
C342 H340 0.949 . S
C342 C341 1.385 . S
H343 C341 0.950 . S
H344 C328 0.951 . S
H345 C330 0.951 . S
H346 C332 0.951 . S
H347 C333 0.950 . S
H348 C334 0.950 . S
H349 C335 0.950 . S
H350 C337 0.950 . S
H351 C338 0.951 . S
C352 C353 1.386 . S
C352 C354 1.383 . S
C352 H368 0.951 . S
C353 C352 1.386 . S
C353 C357 1.383 . S
C354 C352 1.383 . S
C354 C355 1.402 . S
C354 H369 0.951 1_455 S
C355 C354 1.402 . S
C355 C356 1.375 . S
C355 C358 1.481 . S
C356 C355 1.375 . S
C356 C357 1.367 . S
C356 H370 0.951 . S
C357 C353 1.383 . S
C357 C356 1.367 . S
C357 H371 0.950 . S
C358 C355 1.481 . S
C358 C359 1.297 1_455 S
C358 H372 0.950 . S
C359 C358 1.297 1_655 S
C359 C360 1.479 . S
C359 H373 0.950 . S
C360 C359 1.479 . S
C360 C361 1.375 . S
C360 C366 1.404 . S
C361 C360 1.375 . S
C361 C362 1.369 . S
C361 H374 0.950 . S
C362 C361 1.369 . S
C362 C363 1.392 . S
C362 H375 0.951 . S
C363 C362 1.392 . S
C363 C365 1.384 . S
H364 C366 0.949 . S
C365 C363 1.384 . S
C365 C366 1.385 . S
C365 H367 0.950 . S
C366 C360 1.404 . S
C366 H364 0.949 . S
C366 C365 1.385 . S
H367 C365 0.950 . S
H368 C352 0.951 . S
H369 C354 0.951 1_655 S
H370 C356 0.951 . S
H371 C357 0.950 . S
H372 C358 0.950 . S
H373 C359 0.950 . S
H374 C361 0.950 . S
H375 C362 0.951 . S
C376 C377 1.386 . S
C376 C378 1.383 . S
C376 H392 0.951 1_554 S
C377 C376 1.386 . S
C377 C381 1.383 . S
C378 C376 1.383 . S
C378 C379 1.402 . S
C378 H393 0.944 1_554 S
C379 C378 1.402 . S
C379 C380 1.375 . S
C379 C382 1.481 . S
C380 C379 1.375 . S
C380 C381 1.367 . S
C380 H394 0.951 . S
C381 C377 1.383 . S
C381 C380 1.367 . S
C381 H395 0.950 . S
C382 C379 1.481 . S
C382 C383 1.297 . S
C382 H396 0.950 1_565 S
C383 C382 1.297 . S
C383 C384 1.479 1_565 S
C383 H397 0.950 . S
C384 C383 1.479 1_545 S
C384 C385 1.375 . S
C384 C390 1.404 . S
C385 C384 1.375 . S
C385 C386 1.369 . S
C385 H398 0.950 1_554 S
C386 C385 1.369 . S
C386 C387 1.392 . S
C386 H399 0.951 1_554 S
C387 C386 1.392 . S
C387 C389 1.384 . S
H388 C390 0.949 . S
C389 C387 1.384 . S
C389 C390 1.385 . S
C389 H391 0.950 . S
C390 C384 1.404 . S
C390 H388 0.949 . S
C390 C389 1.385 . S
H391 C389 0.950 . S
H392 C376 0.951 1_556 S
H393 C378 0.944 1_556 S
H394 C380 0.951 . S
H395 C381 0.950 . S
H396 C382 0.950 1_545 S
H397 C383 0.950 . S
H398 C385 0.950 1_556 S
H399 C386 0.951 1_556 S
C400 C401 1.386 . S
C400 C402 1.383 . S
C400 H416 0.951 . S
C401 C400 1.386 . S
C401 C405 1.383 1_554 S
C402 C400 1.383 . S
C402 C403 1.402 . S
C402 H417 0.951 . S
C403 C402 1.402 . S
C403 C404 1.375 1_554 S
C403 C406 1.481 . S
C404 C403 1.375 1_556 S
C404 C405 1.367 . S
C404 H418 0.951 . S
C405 C401 1.383 1_556 S
C405 C404 1.367 . S
C405 H419 0.950 . S
C406 C403 1.481 . S
C406 C407 1.297 . S
C406 H420 0.950 1_554 S
C407 C406 1.297 . S
C407 C408 1.479 . S
C407 H421 0.950 . S
C408 C407 1.479 . S
C408 C409 1.375 . S
C408 C414 1.404 1_554 S
C409 C408 1.375 . S
C409 C410 1.369 . S
C409 H422 0.950 . S
C410 C409 1.369 . S
C410 C411 1.392 . S
C410 H423 0.951 . S
C411 C410 1.392 . S
C411 C413 1.384 1_554 S
H412 C414 0.949 . S
C413 C411 1.384 1_556 S
C413 C414 1.385 . S
C413 H415 0.950 . S
C414 C408 1.404 1_556 S
C414 H412 0.949 . S
C414 C413 1.385 . S
H415 C413 0.950 . S
H416 C400 0.951 . S
H417 C402 0.951 . S
H418 C404 0.951 . S
H419 C405 0.950 . S
H420 C406 0.950 1_556 S
H421 C407 0.950 . S
H422 C409 0.950 . S
H423 C410 0.951 . S
C424 C425 1.386 . S
C424 C426 1.383 . S
C424 H440 0.951 . S
C425 C424 1.386 . S
C425 C429 1.383 . S
C426 C424 1.383 . S
C426 C427 1.402 . S
C426 H441 0.951 . S
C427 C426 1.402 . S
C427 C428 1.375 . S
C427 C430 1.481 . S
C428 C427 1.375 . S
C428 C429 1.367 . S
C428 H442 0.951 . S
C429 C425 1.383 . S
C429 C428 1.367 . S
C429 H443 0.950 . S
C430 C427 1.481 . S
C430 C431 1.297 . S
C430 H444 0.950 . S
C431 C430 1.297 . S
C431 C432 1.479 . S
C431 H445 0.950 . S
C432 C431 1.479 . S
C432 C433 1.375 . S
C432 C438 1.404 . S
C433 C432 1.375 . S
C433 C434 1.369 . S
C433 H446 0.950 . S
C434 C433 1.369 . S
C434 C435 1.392 . S
C434 H447 0.951 . S
C435 C434 1.392 . S
C435 C437 1.384 . S
H436 C438 0.949 . S
C437 C435 1.384 . S
C437 C438 1.385 . S
C437 H439 0.950 . S
C438 C432 1.404 . S
C438 H436 0.949 . S
C438 C437 1.385 . S
H439 C437 0.950 . S
H440 C424 0.951 . S
H441 C426 0.951 . S
H442 C428 0.951 . S
H443 C429 0.950 . S
H444 C430 0.950 . S
H445 C431 0.950 . S
H446 C433 0.950 . S
H447 C434 0.951 . S
C448 C449 1.386 . S
C448 C450 1.383 . S
C448 H464 0.951 . S
C449 C448 1.386 . S
C449 C453 1.383 1_554 S
C450 C448 1.383 . S
C450 C451 1.402 . S
C450 H465 0.951 . S
C451 C450 1.402 . S
C451 C452 1.375 1_554 S
C451 C454 1.481 . S
C452 C451 1.375 1_556 S
C452 C453 1.367 . S
C452 H466 0.951 . S
C453 C449 1.383 1_556 S
C453 C452 1.367 . S
C453 H467 0.950 . S
C454 C451 1.481 . S
C454 C455 1.297 . S
C454 H468 0.950 1_554 S
C455 C454 1.297 . S
C455 C456 1.479 . S
C455 H469 0.950 . S
C456 C455 1.479 . S
C456 C457 1.375 . S
C456 C462 1.404 1_554 S
C457 C456 1.375 . S
C457 C458 1.369 . S
C457 H470 0.950 . S
C458 C457 1.369 . S
C458 C459 1.392 . S
C458 H471 0.951 . S
C459 C458 1.392 . S
C459 C461 1.384 1_554 S
H460 C462 0.949 . S
C461 C459 1.384 1_556 S
C461 C462 1.385 . S
C461 H463 0.950 . S
C462 C456 1.404 1_556 S
C462 H460 0.949 . S
C462 C461 1.385 . S
H463 C461 0.950 . S
H464 C448 0.951 . S
H465 C450 0.951 . S
H466 C452 0.951 . S
H467 C453 0.950 . S
H468 C454 0.950 1_556 S
H469 C455 0.950 . S
H470 C457 0.950 . S
H471 C458 0.951 . S
C472 C473 1.386 . S
C472 C474 1.383 . S
C472 H488 0.951 . S
C473 C472 1.386 . S
C473 C477 1.383 . S
C474 C472 1.383 . S
C474 C475 1.402 . S
C474 H489 0.951 . S
C475 C474 1.402 . S
C475 C476 1.375 . S
C475 C478 1.481 . S
C476 C475 1.375 . S
C476 C477 1.367 . S
C476 H490 0.951 . S
C477 C473 1.383 . S
C477 C476 1.367 . S
C477 H491 0.950 . S
C478 C475 1.481 . S
C478 C479 1.297 . S
C478 H492 0.950 . S
C479 C478 1.297 . S
C479 C480 1.479 . S
C479 H493 0.950 . S
C480 C479 1.479 . S
C480 C481 1.375 . S
C480 C486 1.404 . S
C481 C480 1.375 . S
C481 C482 1.369 . S
C481 H494 0.950 . S
C482 C481 1.369 . S
C482 C483 1.392 . S
C482 H495 0.951 . S
C483 C482 1.392 . S
C483 C485 1.384 . S
H484 C486 0.949 . S
C485 C483 1.384 . S
C485 C486 1.385 . S
C485 H487 0.950 . S
C486 C480 1.404 . S
C486 H484 0.949 . S
C486 C485 1.385 . S
H487 C485 0.950 . S
H488 C472 0.951 . S
H489 C474 0.951 . S
H490 C476 0.951 . S
H491 C477 0.950 . S
H492 C478 0.950 . S
H493 C479 0.950 . S
H494 C481 0.950 . S
H495 C482 0.951 . S
C113 C13 1.156 . S
C123 C69 1.094 . S
C137 C27 1.215 . S
C147 C83 1.250 . S
C161 C97 1.121 . S
C171 C41 1.133 . S
C185 C111 1.271 . S
C195 C55 1.160 . S
C209 C91 1.087 . S
C219 C35 0.985 . S
C233 C105 1.146 . S
C243 C49 1.157 . S
C257 C7 1.007 . S
C267 C63 1.077 . S
C281 C21 1.150 . S
C291 C77 1.140 . S
C305 C36 3.115 . S
C315 C8 3.067 . S
C329 C50 1.425 . S
C339 C22 1.384 . S
C353 C64 1.161 . S
C363 C92 1.178 . S
C377 C106 1.466 . S
C387 C78 1.492 . S
C401 C11 2.125 . S
C411 C81 2.516 . S
C425 C95 1.557 . S
C435 C25 1.563 . S
C449 C39 2.114 . S
C459 C109 2.519 . S
C473 C53 1.558 . S
C483 C67 1.569 . S
