# Generated by pormake.
# Topology umo, (4)-cn, num edge types: 1
# Building blocks:
#     Node 0, Type 0, BuildingBlock: KOZSID_clean_sbu_0, # of connection points: 4
#     Node 1, Type 0, BuildingBlock: KOZSID_clean_sbu_0, # of connection points: 4
#     Node 2, Type 0, BuildingBlock: KOZSID_clean_sbu_0, # of connection points: 4
#     Node 3, Type 0, BuildingBlock: KOZSID_clean_sbu_0, # of connection points: 4
#     Node 4, Type 0, BuildingBlock: KOZSID_clean_sbu_0, # of connection points: 4
#     Node 5, Type 0, BuildingBlock: KOZSID_clean_sbu_0, # of connection points: 4
#     Node 6, Type 0, BuildingBlock: KOZSID_clean_sbu_0, # of connection points: 4
#     Node 7, Type 0, BuildingBlock: KOZSID_clean_sbu_0, # of connection points: 4
#     Node 8, Type 0, BuildingBlock: KOZSID_clean_sbu_0, # of connection points: 4
#     Node 9, Type 0, BuildingBlock: KOZSID_clean_sbu_0, # of connection points: 4
#     Node 10, Type 0, BuildingBlock: KOZSID_clean_sbu_0, # of connection points: 4
#     Node 11, Type 0, BuildingBlock: KOZSID_clean_sbu_0, # of connection points: 4
#     Edge 12, Type (0, 0), BuildingBlock: TEMPAE_clean_linker_10, # of connection points: 2
#     Edge 13, Type (0, 0), BuildingBlock: TEMPAE_clean_linker_10, # of connection points: 2
#     Edge 14, Type (0, 0), BuildingBlock: TEMPAE_clean_linker_10, # of connection points: 2
#     Edge 15, Type (0, 0), BuildingBlock: TEMPAE_clean_linker_10, # of connection points: 2
#     Edge 16, Type (0, 0), BuildingBlock: TEMPAE_clean_linker_10, # of connection points: 2
#     Edge 17, Type (0, 0), BuildingBlock: TEMPAE_clean_linker_10, # of connection points: 2
#     Edge 18, Type (0, 0), BuildingBlock: TEMPAE_clean_linker_10, # of connection points: 2
#     Edge 19, Type (0, 0), BuildingBlock: TEMPAE_clean_linker_10, # of connection points: 2
#     Edge 20, Type (0, 0), BuildingBlock: TEMPAE_clean_linker_10, # of connection points: 2
#     Edge 21, Type (0, 0), BuildingBlock: TEMPAE_clean_linker_10, # of connection points: 2
#     Edge 22, Type (0, 0), BuildingBlock: TEMPAE_clean_linker_10, # of connection points: 2
#     Edge 23, Type (0, 0), BuildingBlock: TEMPAE_clean_linker_10, # of connection points: 2
#     Edge 24, Type (0, 0), BuildingBlock: TEMPAE_clean_linker_10, # of connection points: 2
#     Edge 25, Type (0, 0), BuildingBlock: TEMPAE_clean_linker_10, # of connection points: 2
#     Edge 26, Type (0, 0), BuildingBlock: TEMPAE_clean_linker_10, # of connection points: 2
#     Edge 27, Type (0, 0), BuildingBlock: TEMPAE_clean_linker_10, # of connection points: 2
#     Edge 28, Type (0, 0), BuildingBlock: TEMPAE_clean_linker_10, # of connection points: 2
#     Edge 29, Type (0, 0), BuildingBlock: TEMPAE_clean_linker_10, # of connection points: 2
#     Edge 30, Type (0, 0), BuildingBlock: TEMPAE_clean_linker_10, # of connection points: 2
#     Edge 31, Type (0, 0), BuildingBlock: TEMPAE_clean_linker_10, # of connection points: 2
#     Edge 32, Type (0, 0), BuildingBlock: TEMPAE_clean_linker_10, # of connection points: 2
#     Edge 33, Type (0, 0), BuildingBlock: TEMPAE_clean_linker_10, # of connection points: 2
#     Edge 34, Type (0, 0), BuildingBlock: TEMPAE_clean_linker_10, # of connection points: 2
#     Edge 35, Type (0, 0), BuildingBlock: TEMPAE_clean_linker_10, # of connection points: 2
# Relax obj value: 0.199
# Max RMSD: 0.249
# Mean RMSD: 0.249
data_MOF--net-umo--node1-KOZSID_clean_sbu_0--edge1-TEMPAE_clean_linker_10
_symmetry_space_group_name_H-M    P1
_symmetry_Int_Tables_number       1
_symmetry_cell_setting            triclinic
loop_
_symmetry_equiv_pos_as_xyz
'x, y, z'
_cell_length_a     65.307699
_cell_length_b     65.387153
_cell_length_c     39.429509
_cell_angle_alpha  90.025249
_cell_angle_beta   89.989517
_cell_angle_gamma 120.10935
loop_
_atom_site_label
_atom_site_type_symbol
_atom_site_fract_x
_atom_site_fract_y
_atom_site_fract_z
_atom_type_partial_charge
C0 C 0.20226 0.52321 0.33542 0.0
C1 C 0.20703 0.50498 0.3307 0.0
C2 C 0.19661 0.48964 0.35735 0.0
C3 C 0.18614 0.49936 0.37674 0.0
N4 N 0.18926 0.51971 0.36369 0.0
Co5 Co 0.17835 0.54029 0.38359 0.0
N6 N 0.17598 0.52681 0.4293 0.0
C7 C 0.17547 0.5064 0.43628 0.0
C8 C 0.1754 0.50243 0.47044 0.0
C9 C 0.17561 0.52136 0.48579 0.0
C10 C 0.17532 0.53573 0.46004 0.0
N11 N 0.16674 0.5604 0.40316 0.0
C12 C 0.16552 0.56578 0.43599 0.0
C13 C 0.15502 0.57966 0.43848 0.0
C14 C 0.14959 0.583 0.40599 0.0
C15 C 0.15692 0.57091 0.38543 0.0
N16 N 0.1815 0.554 0.33794 0.0
C17 C 0.1709 0.56577 0.32674 0.0
C18 C 0.17813 0.5745 0.29446 0.0
C19 C 0.19429 0.56778 0.28517 0.0
C20 C 0.196 0.55534 0.31238 0.0
N21 N 0.14509 0.51601 0.37397 0.0
C22 C 0.09668 0.48634 0.35863 0.0
C23 C 0.11414 0.49234 0.33372 0.0
C24 C 0.13821 0.50682 0.34203 0.0
C25 C 0.10405 0.4948 0.39158 0.0
C26 C 0.12817 0.50972 0.39863 0.0
N27 N 0.21126 0.56496 0.39283 0.0
C28 C 0.24097 0.60627 0.39136 0.0
C29 C 0.25894 0.60132 0.39975 0.0
C30 C 0.25207 0.57748 0.4058 0.0
C31 C 0.22817 0.55967 0.40269 0.0
C32 C 0.21767 0.58805 0.3874 0.0
H33 H 0.22345 0.54158 0.40749 0.0
H34 H 0.20487 0.59281 0.37932 0.0
H35 H 0.15123 0.51114 0.32231 0.0
H36 H 0.13298 0.51678 0.42393 0.0
C37 C 0.1792 0.49373 0.41065 0.0
C38 C 0.21033 0.54376 0.31323 0.0
C39 C 0.17249 0.55655 0.4652 0.0
C40 C 0.15883 0.57247 0.34977 0.0
H41 H 0.21745 0.50329 0.31072 0.0
H42 H 0.19809 0.47426 0.36319 0.0
H43 H 0.17622 0.48807 0.48278 0.0
H44 H 0.17598 0.52407 0.51287 0.0
H45 H 0.15147 0.58651 0.46136 0.0
H46 H 0.142 0.59366 0.39827 0.0
H47 H 0.17334 0.58559 0.28013 0.0
H48 H 0.2038 0.57168 0.26139 0.0
H49 H 0.10919 0.486 0.30797 0.0
H50 H 0.09116 0.49064 0.41156 0.0
H51 H 0.24466 0.6242 0.3877 0.0
H52 H 0.265 0.57239 0.41224 0.0
C53 C 0.68726 0.19992 0.5048 0.0
C54 C 0.7104 0.20477 0.50108 0.0
C55 C 0.71495 0.19453 0.5283 0.0
C56 C 0.69444 0.18412 0.54705 0.0
N57 N 0.67735 0.18709 0.53308 0.0
Co58 Co 0.64556 0.1764 0.55202 0.0
N59 N 0.65612 0.17443 0.59827 0.0
C60 C 0.67597 0.17397 0.60614 0.0
C61 C 0.6796 0.17438 0.64043 0.0
C62 C 0.66076 0.17481 0.65495 0.0
C63 C 0.64624 0.1741 0.62861 0.0
N64 N 0.6136 0.16533 0.57069 0.0
C65 C 0.60664 0.16451 0.60328 0.0
C66 C 0.5822 0.15423 0.60509 0.0
C67 C 0.57378 0.14852 0.57244 0.0
C68 C 0.59342 0.15544 0.55247 0.0
N69 N 0.63554 0.1789 0.50572 0.0
C70 C 0.61325 0.16813 0.49395 0.0
C71 C 0.61213 0.17503 0.46131 0.0
C72 C 0.63516 0.19115 0.45242 0.0
C73 C 0.64901 0.1932 0.48022 0.0
N74 N 0.63645 0.14304 0.54365 0.0
C75 C 0.61723 0.09421 0.5293 0.0
C76 C 0.6316 0.11181 0.50565 0.0
C77 C 0.64087 0.13595 0.5132 0.0
C78 C 0.61367 0.10207 0.56079 0.0
C79 C 0.62361 0.12625 0.56755 0.0
N80 N 0.65386 0.2094 0.56008 0.0
C81 C 0.64236 0.23906 0.55648 0.0
C82 C 0.66486 0.25686 0.56695 0.0
C83 C 0.68164 0.25002 0.57477 0.0
C84 C 0.6757 0.22621 0.57149 0.0
C85 C 0.63741 0.21584 0.55273 0.0
H86 H 0.68889 0.22145 0.57764 0.0
H87 H 0.62016 0.20311 0.54344 0.0
H88 H 0.65116 0.1489 0.49406 0.0
H89 H 0.62005 0.13127 0.59191 0.0
C90 C 0.69269 0.17747 0.58113 0.0
C91 C 0.67495 0.20769 0.4817 0.0
C92 C 0.62246 0.17118 0.63299 0.0
C93 C 0.59418 0.15664 0.51673 0.0
H94 H 0.7229 0.21512 0.48145 0.0
H95 H 0.73178 0.19614 0.53493 0.0
H96 H 0.69471 0.17541 0.65336 0.0
H97 H 0.65825 0.17562 0.68191 0.0
H98 H 0.57153 0.15089 0.62763 0.0
H99 H 0.55557 0.14088 0.56423 0.0
H100 H 0.59638 0.17013 0.44649 0.0
H101 H 0.64106 0.20048 0.42854 0.0
H102 H 0.63563 0.10712 0.48124 0.0
H103 H 0.60255 0.0897 0.58007 0.0
H104 H 0.62832 0.24282 0.55121 0.0
H105 H 0.69933 0.26292 0.58284 0.0
C106 C 0.49101 0.6817 0.67252 0.0
C107 C 0.51013 0.70442 0.66907 0.0
C108 C 0.5251 0.70781 0.69576 0.0
C109 C 0.51426 0.68706 0.71392 0.0
N110 N 0.49356 0.67097 0.7001 0.0
Co111 Co 0.47153 0.63927 0.71817 0.0
N112 N 0.48452 0.64889 0.76426 0.0
C113 C 0.50617 0.66701 0.7719 0.0
C114 C 0.51105 0.66846 0.80596 0.0
C115 C 0.49127 0.65003 0.82045 0.0
C116 C 0.47524 0.63843 0.79435 0.0
N117 N 0.44974 0.60737 0.73629 0.0
C118 C 0.44236 0.60067 0.76866 0.0
C119 C 0.42516 0.57686 0.76953 0.0
C120 C 0.42263 0.56847 0.73689 0.0
C121 C 0.43798 0.58754 0.71759 0.0
N122 N 0.45866 0.63026 0.67184 0.0
C123 C 0.44622 0.6082 0.65951 0.0
C124 C 0.43829 0.6079 0.62702 0.0
C125 C 0.44624 0.63123 0.61885 0.0
C126 C 0.45854 0.64444 0.64688 0.0
N127 N 0.49484 0.62906 0.7087 0.0
C128 C 0.52392 0.60941 0.69376 0.0
C129 C 0.51983 0.62286 0.66961 0.0
C130 C 0.50548 0.63264 0.67764 0.0
C131 C 0.51371 0.60699 0.72596 0.0
C132 C 0.49922 0.61663 0.73273 0.0
N133 N 0.44772 0.64865 0.72727 0.0
C134 C 0.40688 0.63851 0.72392 0.0
C135 C 0.41235 0.66112 0.73475 0.0
C136 C 0.43617 0.67721 0.74293 0.0
C137 C 0.45353 0.67054 0.73933 0.0
C138 C 0.42461 0.63288 0.71979 0.0
H139 H 0.47168 0.68318 0.74564 0.0
H140 H 0.41944 0.61563 0.70996 0.0
H141 H 0.50246 0.64257 0.65836 0.0
H142 H 0.49109 0.61346 0.75741 0.0
C143 C 0.51976 0.684 0.74727 0.0
C144 C 0.47081 0.67037 0.64936 0.0
C145 C 0.45234 0.61645 0.79851 0.0
C146 C 0.43761 0.58884 0.68188 0.0
H147 H 0.51279 0.71724 0.64971 0.0
H148 H 0.54114 0.724 0.70228 0.0
H149 H 0.52683 0.68162 0.81886 0.0
H150 H 0.48913 0.64547 0.8471 0.0
H151 H 0.41497 0.56655 0.79103 0.0
H152 H 0.4099 0.55093 0.72803 0.0
H153 H 0.42677 0.59254 0.61192 0.0
H154 H 0.44309 0.63774 0.59534 0.0
H155 H 0.52703 0.62532 0.64426 0.0
H156 H 0.51668 0.59752 0.74608 0.0
H157 H 0.38886 0.6249 0.71853 0.0
H158 H 0.44153 0.69493 0.75143 0.0
C159 C 0.81338 0.49049 0.84247 0.0
C160 C 0.80823 0.50863 0.84092 0.0
C161 C 0.81871 0.52267 0.8688 0.0
C162 C 0.82958 0.51231 0.88574 0.0
N163 N 0.82665 0.4928 0.87002 0.0
Co164 Co 0.83781 0.47146 0.88601 0.0
N165 N 0.8403 0.48261 0.93326 0.0
C166 C 0.84093 0.50268 0.94302 0.0
C167 C 0.84112 0.50501 0.97759 0.0
C168 C 0.8409 0.48539 0.99026 0.0
C169 C 0.8411 0.47228 0.96258 0.0
N170 N 0.84898 0.45005 0.90181 0.0
C171 C 0.84999 0.44286 0.9337 0.0
C172 C 0.86004 0.42851 0.93342 0.0
C173 C 0.86547 0.42684 0.90018 0.0
C174 C 0.85858 0.44029 0.88197 0.0
N175 N 0.83512 0.46059 0.83863 0.0
C176 C 0.84603 0.44978 0.82499 0.0
C177 C 0.83904 0.44294 0.79196 0.0
C178 C 0.82272 0.44986 0.78482 0.0
C179 C 0.82064 0.46049 0.81397 0.0
N180 N 0.87107 0.49618 0.87784 0.0
C181 C 0.91977 0.52658 0.86309 0.0
C182 C 0.90187 0.52431 0.84072 0.0
C183 C 0.8778 0.50899 0.8484 0.0
C184 C 0.91227 0.51378 0.89362 0.0
C185 C 0.88815 0.4992 0.90066 0.0
N186 N 0.80497 0.4463 0.89396 0.0
C187 C 0.77502 0.40544 0.88676 0.0
C188 C 0.7584 0.40889 0.90448 0.0
C189 C 0.76561 0.43186 0.91625 0.0
C190 C 0.78896 0.45032 0.91066 0.0
C191 C 0.79801 0.4241 0.88216 0.0
H192 H 0.79411 0.46777 0.91998 0.0
H193 H 0.8102 0.42043 0.86885 0.0
H194 H 0.86461 0.50707 0.83014 0.0
H195 H 0.88342 0.48963 0.92427 0.0
C196 C 0.83686 0.51641 0.91965 0.0
C197 C 0.80574 0.47129 0.81775 0.0
C198 C 0.84391 0.45128 0.96474 0.0
C199 C 0.85744 0.44129 0.84631 0.0
H200 H 0.79759 0.51115 0.8222 0.0
H201 H 0.81706 0.53758 0.877 0.0
H202 H 0.84031 0.51871 0.99193 0.0
H203 H 0.84056 0.48136 0.01691 0.0
H204 H 0.86345 0.42043 0.955 0.0
H205 H 0.87297 0.41654 0.89045 0.0
H206 H 0.84395 0.43273 0.77575 0.0
H207 H 0.81321 0.44712 0.76123 0.0
H208 H 0.90626 0.5341 0.81717 0.0
H209 H 0.92483 0.51419 0.91186 0.0
H210 H 0.77037 0.38835 0.87624 0.0
H211 H 0.75351 0.43551 0.93019 0.0
C212 C 0.33038 0.81309 0.01122 0.0
C213 C 0.30794 0.81048 0.01118 0.0
C214 C 0.30701 0.823 0.03862 0.0
C215 C 0.32881 0.83242 0.05393 0.0
N216 N 0.34322 0.82657 0.03767 0.0
Co217 Co 0.37544 0.8348 0.05172 0.0
N218 N 0.3692 0.83986 0.09894 0.0
C219 C 0.35269 0.84515 0.10895 0.0
C220 C 0.35366 0.8496 0.14311 0.0
C221 C 0.37198 0.84702 0.15512 0.0
C222 C 0.38105 0.84088 0.12753 0.0
N223 N 0.40764 0.84275 0.06591 0.0
C224 C 0.41562 0.84173 0.0973 0.0
C225 C 0.43889 0.84661 0.09543 0.0
C226 C 0.44569 0.85166 0.06201 0.0
C227 C 0.42621 0.84923 0.04506 0.0
N228 N 0.38133 0.82996 0.00413 0.0
C229 C 0.40258 0.83846 0.98929 0.0
C230 C 0.40061 0.83053 0.95642 0.0
C231 C 0.37668 0.81615 0.95067 0.0
C232 C 0.3654 0.81607 0.98045 0.0
N233 N 0.38714 0.86858 0.04218 0.0
C234 C 0.40641 0.91734 0.02767 0.0
C235 C 0.38937 0.89968 0.00633 0.0
C236 C 0.38016 0.87556 0.01385 0.0
C237 C 0.4132 0.90964 0.05662 0.0
C238 C 0.40325 0.88549 0.06356 0.0
N239 N 0.36442 0.80132 0.06103 0.0
C240 C 0.3696 0.76773 0.05229 0.0
C241 C 0.34951 0.75341 0.07162 0.0
C242 C 0.33705 0.76357 0.08608 0.0
C243 C 0.34467 0.78758 0.08012 0.0
C244 C 0.37688 0.79153 0.04769 0.0
H245 H 0.33464 0.79505 0.09082 0.0
H246 H 0.39269 0.80197 0.0331 0.0
H247 H 0.3675 0.86253 0.99657 0.0
H248 H 0.40901 0.88056 0.08615 0.0
C249 C 0.3345 0.84199 0.08675 0.0
C250 C 0.33965 0.80342 0.98575 0.0
C251 C 0.40175 0.8376 0.12885 0.0
C252 C 0.42309 0.84785 0.00956 0.0
H253 H 0.29363 0.80041 0.99363 0.0
H254 H 0.29178 0.82387 0.04745 0.0
H255 H 0.34203 0.85352 0.15775 0.0
H256 H 0.37805 0.8496 0.18113 0.0
H257 H 0.44985 0.84627 0.11568 0.0
H258 H 0.4624 0.85526 0.05116 0.0
H259 H 0.41485 0.83337 0.93948 0.0
H260 H 0.36851 0.8065 0.92762 0.0
H261 H 0.38301 0.9043 0.98393 0.0
H262 H 0.42657 0.9221 0.07378 0.0
H263 H 0.3799 0.76063 0.04112 0.0
H264 H 0.32145 0.75301 0.10136 0.0
C265 C 0.52439 0.32845 0.17265 0.0
C266 C 0.50551 0.30551 0.17047 0.0
C267 C 0.49138 0.30226 0.19814 0.0
C268 C 0.50243 0.32334 0.21555 0.0
N269 N 0.52244 0.33953 0.2003 0.0
Co270 Co 0.54487 0.3716 0.21697 0.0
N271 N 0.53321 0.36284 0.26399 0.0
C272 C 0.51254 0.34384 0.27328 0.0
C273 C 0.50993 0.34144 0.3078 0.0
C274 C 0.53002 0.36019 0.32092 0.0
C275 C 0.54369 0.37343 0.29355 0.0
N276 N 0.5674 0.40375 0.23342 0.0
C277 C 0.57463 0.41149 0.26548 0.0
C278 C 0.58991 0.43578 0.26571 0.0
C279 C 0.59216 0.4433 0.23263 0.0
C280 C 0.5781 0.4233 0.21398 0.0
N281 N 0.55619 0.37989 0.16979 0.0
C282 C 0.568 0.40174 0.15657 0.0
C283 C 0.57491 0.40154 0.1236 0.0
C284 C 0.56697 0.37812 0.11605 0.0
C285 C 0.5557 0.36538 0.14492 0.0
N286 N 0.52131 0.38164 0.2089 0.0
C287 C 0.49181 0.401 0.19524 0.0
C288 C 0.49378 0.38558 0.17217 0.0
C289 C 0.50863 0.37624 0.17937 0.0
C290 C 0.50456 0.40574 0.22573 0.0
C291 C 0.51877 0.39574 0.23219 0.0
N292 N 0.5688 0.36229 0.22488 0.0
C293 C 0.60877 0.37044 0.2166 0.0
C294 C 0.60373 0.34972 0.23367 0.0
C295 C 0.58085 0.3354 0.24662 0.0
C296 C 0.56352 0.34187 0.2416 0.0
C297 C 0.59127 0.37653 0.21289 0.0
H298 H 0.54588 0.33038 0.25112 0.0
H299 H 0.59599 0.39284 0.20007 0.0
H300 H 0.51021 0.365 0.16073 0.0
H301 H 0.52832 0.40013 0.25582 0.0
C302 C 0.49835 0.32649 0.2495 0.0
C303 C 0.54393 0.33958 0.1484 0.0
C304 C 0.56545 0.39674 0.2962 0.0
C305 C 0.57724 0.4215 0.17829 0.0
H306 H 0.50258 0.29239 0.15142 0.0
H307 H 0.47591 0.28594 0.2059 0.0
H308 H 0.49571 0.32712 0.32181 0.0
H309 H 0.53397 0.3635 0.34765 0.0
H310 H 0.59824 0.44696 0.28753 0.0
H311 H 0.60321 0.46111 0.22327 0.0
H312 H 0.58583 0.41666 0.10773 0.0
H313 H 0.5695 0.37125 0.09242 0.0
H314 H 0.48405 0.38074 0.14854 0.0
H315 H 0.50432 0.41773 0.24442 0.0
H316 H 0.62632 0.3821 0.2066 0.0
H317 H 0.57633 0.31923 0.26007 0.0
C318 C 0.49247 0.81213 0.49439 0.0
C319 C 0.51172 0.80863 0.49613 0.0
C320 C 0.52606 0.82055 0.46903 0.0
C321 C 0.51475 0.83054 0.45229 0.0
N322 N 0.49434 0.82562 0.46736 0.0
Co323 Co 0.47177 0.83519 0.45136 0.0
N324 N 0.48388 0.83925 0.40467 0.0
C325 C 0.5055 0.84326 0.39578 0.0
C326 C 0.50968 0.84714 0.36161 0.0
C327 C 0.48947 0.84555 0.34841 0.0
C328 C 0.47392 0.84055 0.37535 0.0
N329 N 0.44925 0.84493 0.43525 0.0
C330 C 0.44107 0.84422 0.40338 0.0
C331 C 0.42371 0.85058 0.4039 0.0
C332 C 0.42182 0.85622 0.43695 0.0
C333 C 0.43774 0.85267 0.45507 0.0
N334 N 0.45995 0.83094 0.49832 0.0
C335 C 0.4477 0.84035 0.51196 0.0
C336 C 0.44056 0.83251 0.54462 0.0
C337 C 0.44883 0.81723 0.5515 0.0
C338 C 0.4605 0.81657 0.52257 0.0
N339 N 0.49506 0.86874 0.46094 0.0
C340 C 0.52462 0.91708 0.47658 0.0
C341 C 0.52302 0.8994 0.49846 0.0
C342 C 0.50799 0.87537 0.49036 0.0
C343 C 0.51167 0.91002 0.44635 0.0
C344 C 0.49736 0.88594 0.43881 0.0
N345 N 0.44801 0.80196 0.44218 0.0
C346 C 0.40738 0.77082 0.44684 0.0
C347 C 0.41275 0.75406 0.43402 0.0
C348 C 0.4364 0.76219 0.42436 0.0
C349 C 0.4537 0.78625 0.42835 0.0
C350 C 0.42508 0.79422 0.45125 0.0
H351 H 0.47171 0.79208 0.42081 0.0
H352 H 0.42002 0.806 0.46247 0.0
H353 H 0.50642 0.86213 0.50821 0.0
H354 H 0.48768 0.88128 0.41526 0.0
C355 C 0.51961 0.83964 0.41917 0.0
C356 C 0.47284 0.80308 0.51869 0.0
C357 C 0.45061 0.83882 0.37269 0.0
C358 C 0.43832 0.85096 0.4907 0.0
H359 H 0.51492 0.79833 0.5146 0.0
H360 H 0.542 0.82062 0.46133 0.0
H361 H 0.52524 0.85009 0.34777 0.0
H362 H 0.48667 0.84807 0.32206 0.0
H363 H 0.41308 0.85073 0.38304 0.0
H364 H 0.4092 0.86084 0.44684 0.0
H365 H 0.42931 0.83612 0.56069 0.0
H366 H 0.44628 0.80745 0.57476 0.0
H367 H 0.53275 0.90411 0.52213 0.0
H368 H 0.51253 0.92308 0.42862 0.0
H369 H 0.38947 0.76611 0.45352 0.0
H370 H 0.44167 0.75013 0.41431 0.0
C371 C 0.68565 0.48825 0.66523 0.0
C372 C 0.70868 0.50649 0.6702 0.0
C373 C 0.71386 0.52178 0.64343 0.0
C374 C 0.69377 0.51199 0.62373 0.0
N375 N 0.67636 0.49167 0.63672 0.0
Co376 Co 0.64495 0.47096 0.61644 0.0
N377 N 0.65649 0.48428 0.57076 0.0
C378 C 0.67656 0.50465 0.56388 0.0
C379 C 0.68085 0.50843 0.52976 0.0
C380 C 0.6622 0.48943 0.51432 0.0
C381 C 0.64715 0.47523 0.53997 0.0
N382 N 0.61331 0.45066 0.59647 0.0
C383 C 0.60693 0.44524 0.56357 0.0
C384 C 0.58249 0.43134 0.56077 0.0
C385 C 0.57349 0.42805 0.59312 0.0
C386 C 0.5928 0.44018 0.61391 0.0
N387 N 0.63401 0.45747 0.66212 0.0
C388 C 0.61151 0.44573 0.67301 0.0
C389 C 0.60976 0.43709 0.7054 0.0
C390 C 0.6326 0.44383 0.71507 0.0
C391 C 0.64699 0.45619 0.68797 0.0
N392 N 0.63585 0.49517 0.62521 0.0
C393 C 0.61563 0.52382 0.63945 0.0
C394 C 0.62776 0.51869 0.66456 0.0
C395 C 0.6379 0.50462 0.65687 0.0
C396 C 0.61518 0.51521 0.60662 0.0
C397 C 0.62511 0.50094 0.60016 0.0
N398 N 0.65319 0.44629 0.60793 0.0
C399 C 0.64134 0.40497 0.60983 0.0
C400 C 0.66411 0.4098 0.60069 0.0
C401 C 0.6812 0.43359 0.59428 0.0
C402 C 0.67532 0.45149 0.59768 0.0
C403 C 0.63644 0.42325 0.61383 0.0
H404 H 0.68875 0.46955 0.59263 0.0
H405 H 0.61894 0.41858 0.62219 0.0
H406 H 0.64664 0.50067 0.67691 0.0
H407 H 0.62331 0.49391 0.57493 0.0
C408 C 0.69278 0.51747 0.58967 0.0
C409 C 0.67294 0.46771 0.6874 0.0
C410 C 0.62335 0.45454 0.53455 0.0
C411 C 0.59288 0.43884 0.64962 0.0
H412 H 0.72066 0.50823 0.69041 0.0
H413 H 0.73084 0.53714 0.63771 0.0
H414 H 0.69623 0.52269 0.51754 0.0
H415 H 0.66014 0.48656 0.48724 0.0
H416 H 0.57222 0.4245 0.53777 0.0
H417 H 0.55513 0.41744 0.60059 0.0
H418 H 0.59373 0.42601 0.71955 0.0
H419 H 0.63805 0.43998 0.73902 0.0
H420 H 0.62877 0.52473 0.69038 0.0
H421 H 0.6069 0.51914 0.58582 0.0
H422 H 0.62707 0.38706 0.61392 0.0
H423 H 0.69911 0.43852 0.58727 0.0
C424 C 0.20189 0.68325 0.82815 0.0
C425 C 0.20657 0.70633 0.83124 0.0
C426 C 0.19613 0.7104 0.80377 0.0
C427 C 0.18571 0.68962 0.78561 0.0
N428 N 0.18889 0.67286 0.80019 0.0
Co429 Co 0.17812 0.64079 0.78252 0.0
N430 N 0.17565 0.65043 0.73588 0.0
C431 C 0.1749 0.66998 0.72727 0.0
C432 C 0.17471 0.67282 0.69284 0.0
C433 C 0.1751 0.65377 0.67904 0.0
C434 C 0.17502 0.63997 0.70594 0.0
N435 N 0.16698 0.60856 0.76506 0.0
C436 C 0.16609 0.60108 0.73276 0.0
C437 C 0.15599 0.57666 0.7318 0.0
C438 C 0.15046 0.5688 0.76471 0.0
C439 C 0.15732 0.58873 0.78396 0.0
N440 N 0.181 0.63163 0.82922 0.0
C441 C 0.17037 0.60957 0.84176 0.0
C442 C 0.17735 0.60905 0.87457 0.0
C443 C 0.19336 0.63222 0.88279 0.0
C444 C 0.19522 0.64557 0.85447 0.0
N445 N 0.14481 0.63182 0.79124 0.0
C446 C 0.09648 0.61324 0.80664 0.0
C447 C 0.11417 0.62832 0.82941 0.0
C448 C 0.1382 0.63725 0.82137 0.0
C449 C 0.10355 0.60853 0.7755 0.0
C450 C 0.12766 0.61824 0.76809 0.0
N451 N 0.21112 0.6491 0.77419 0.0
C452 C 0.24109 0.63799 0.77804 0.0
C453 C 0.25882 0.66054 0.76759 0.0
C454 C 0.25172 0.67707 0.75949 0.0
C455 C 0.2278 0.67089 0.76251 0.0
C456 C 0.21777 0.63286 0.7818 0.0
H457 H 0.22288 0.6839 0.75605 0.0
H458 H 0.20515 0.61566 0.79135 0.0
H459 H 0.15142 0.64801 0.83995 0.0
H460 H 0.13234 0.61405 0.74392 0.0
C461 C 0.17863 0.68718 0.75163 0.0
C462 C 0.20975 0.67142 0.85191 0.0
C463 C 0.1726 0.61636 0.70253 0.0
C464 C 0.15879 0.59012 0.81966 0.0
H465 H 0.21686 0.71897 0.8508 0.0
H466 H 0.19751 0.72703 0.79668 0.0
H467 H 0.17537 0.68754 0.67932 0.0
H468 H 0.17547 0.65064 0.65219 0.0
H469 H 0.1527 0.56567 0.70965 0.0
H470 H 0.14303 0.55079 0.77357 0.0
H471 H 0.17256 0.59359 0.88997 0.0
H472 H 0.20274 0.63852 0.90656 0.0
H473 H 0.10946 0.63244 0.85377 0.0
H474 H 0.09048 0.5972 0.75702 0.0
H475 H 0.24494 0.62404 0.78339 0.0
H476 H 0.26446 0.6948 0.75145 0.0
C477 C 0.5243 0.19915 0.99504 0.0
C478 C 0.50545 0.20322 0.99721 0.0
C479 C 0.49124 0.19223 0.96963 0.0
C480 C 0.50223 0.18215 0.95226 0.0
N481 N 0.52228 0.18605 0.96743 0.0
Co482 Co 0.5446 0.1763 0.95072 0.0
N483 N 0.53274 0.17315 0.90377 0.0
C484 C 0.51208 0.17148 0.89458 0.0
C485 C 0.50935 0.17118 0.86008 0.0
C486 C 0.52935 0.17243 0.84686 0.0
C487 C 0.54309 0.17289 0.87416 0.0
N488 N 0.56701 0.16657 0.93422 0.0
C489 C 0.57406 0.16584 0.90212 0.0
C490 C 0.58927 0.15678 0.9019 0.0
C491 C 0.59166 0.15171 0.93503 0.0
C492 C 0.57775 0.1578 0.95369 0.0
N493 N 0.55613 0.17958 0.99782 0.0
C494 C 0.56796 0.16959 0.01105 0.0
C495 C 0.57497 0.17681 0.04396 0.0
C496 C 0.56708 0.19231 0.05147 0.0
C497 C 0.55573 0.19369 0.02264 0.0
N498 N 0.52105 0.14273 0.95924 0.0
C499 C 0.49247 0.09421 0.97431 0.0
C500 C 0.49397 0.11156 0.9968 0.0
C501 C 0.50849 0.1357 0.98894 0.0
C502 C 0.50475 0.1017 0.94356 0.0
C503 C 0.51854 0.12587 0.93632 0.0
N504 N 0.56854 0.20952 0.94246 0.0
C505 C 0.60852 0.2414 0.95064 0.0
C506 C 0.60344 0.25712 0.93383 0.0
C507 C 0.58054 0.24852 0.92093 0.0
C508 C 0.56322 0.22466 0.92586 0.0
C509 C 0.59104 0.21776 0.95427 0.0
H510 H 0.54556 0.21848 0.91644 0.0
H511 H 0.59579 0.20617 0.96699 0.0
H512 H 0.51011 0.1487 0.0073 0.0
H513 H 0.52782 0.13085 0.91245 0.0
C514 C 0.49802 0.17478 0.91839 0.0
C515 C 0.54388 0.20763 0.01925 0.0
C516 C 0.56475 0.17123 0.87138 0.0
C517 C 0.57705 0.15893 0.98937 0.0
H518 H 0.50255 0.21347 0.01616 0.0
H519 H 0.47577 0.19305 0.96189 0.0
H520 H 0.49513 0.17128 0.84613 0.0
H521 H 0.53322 0.17301 0.8201 0.0
H522 H 0.59745 0.15376 0.88007 0.0
H523 H 0.6027 0.14495 0.9444 0.0
H524 H 0.5859 0.17264 0.05982 0.0
H525 H 0.56965 0.20176 0.07507 0.0
H526 H 0.48471 0.10654 0.02085 0.0
H527 H 0.50385 0.08892 0.92525 0.0
H528 H 0.62609 0.24729 0.96056 0.0
H529 H 0.57598 0.26019 0.90765 0.0
C530 C 0.33264 0.52373 0.16024 0.0
C531 C 0.30993 0.5043 0.16045 0.0
C532 C 0.30852 0.4906 0.13303 0.0
C533 C 0.33035 0.50245 0.11766 0.0
N534 N 0.34522 0.52259 0.13389 0.0
Co535 Co 0.37774 0.54588 0.12003 0.0
N536 N 0.37121 0.53479 0.07275 0.0
C537 C 0.35417 0.51321 0.0626 0.0
C538 C 0.35505 0.50974 0.02842 0.0
C539 C 0.37385 0.53038 0.01656 0.0
C540 C 0.3833 0.54547 0.04424 0.0
N541 N 0.4103 0.56934 0.10602 0.0
C542 C 0.41854 0.57837 0.07472 0.0
C543 C 0.44207 0.59621 0.07678 0.0
C544 C 0.44874 0.59754 0.1102 0.0
C545 C 0.42894 0.58082 0.127 0.0
N546 N 0.38381 0.55647 0.16766 0.0
C547 C 0.40508 0.56862 0.18265 0.0
C548 C 0.40326 0.57485 0.21543 0.0
C549 C 0.37942 0.56612 0.22093 0.0
C550 C 0.36804 0.5551 0.19111 0.0
N551 N 0.38833 0.52291 0.12939 0.0
C552 C 0.40719 0.49343 0.14459 0.0
C553 C 0.39015 0.49399 0.16569 0.0
C554 C 0.38114 0.50902 0.15786 0.0
C555 C 0.41402 0.50742 0.11533 0.0
C556 C 0.40422 0.52168 0.10799 0.0
N557 N 0.36794 0.56929 0.11096 0.0
C558 C 0.37602 0.60926 0.11792 0.0
C559 C 0.35579 0.60436 0.09943 0.0
C560 C 0.34136 0.58118 0.08732 0.0
C561 C 0.34782 0.5639 0.09325 0.0
C562 C 0.38177 0.59171 0.12322 0.0
H563 H 0.33667 0.54624 0.0835 0.0
H564 H 0.39757 0.59646 0.13745 0.0
H565 H 0.36868 0.50975 0.17514 0.0
H566 H 0.40996 0.53213 0.08515 0.0
C567 C 0.33577 0.49841 0.08475 0.0
C568 C 0.34233 0.54281 0.18541 0.0
C569 C 0.40458 0.56913 0.04309 0.0
C570 C 0.42569 0.57911 0.1625 0.0
H571 H 0.29582 0.50055 0.17816 0.0
H572 H 0.29297 0.47471 0.12424 0.0
H573 H 0.34309 0.49435 0.01368 0.0
H574 H 0.38001 0.53379 0.99057 0.0
H575 H 0.4533 0.60748 0.05669 0.0
H576 H 0.4656 0.61022 0.12119 0.0
H577 H 0.4176 0.58593 0.23245 0.0
H578 H 0.37138 0.56804 0.24382 0.0
H579 H 0.38438 0.48346 0.18861 0.0
H580 H 0.42694 0.50737 0.09815 0.0
H581 H 0.38747 0.62666 0.12849 0.0
H582 H 0.32553 0.57657 0.07287 0.0
C583 C 0.81287 0.32783 0.32938 0.0
C584 C 0.80749 0.30455 0.33286 0.0
C585 C 0.81793 0.29997 0.3059 0.0
C586 C 0.82902 0.32064 0.28758 0.0
N587 N 0.82628 0.33784 0.3016 0.0
Co588 Co 0.83795 0.3699 0.28338 0.0
N589 N 0.84033 0.35966 0.23706 0.0
C590 C 0.84058 0.33975 0.22902 0.0
C591 C 0.84067 0.33649 0.19468 0.0
C592 C 0.84079 0.35564 0.18034 0.0
C593 C 0.84128 0.36994 0.20686 0.0
N594 N 0.8499 0.40209 0.26538 0.0
C595 C 0.85127 0.40941 0.23288 0.0
C596 C 0.86189 0.43386 0.23156 0.0
C597 C 0.86728 0.44192 0.26442 0.0
C598 C 0.8598 0.42205 0.28403 0.0
N599 N 0.83507 0.37958 0.32981 0.0
C600 C 0.84617 0.40171 0.34212 0.0
C601 C 0.83901 0.40264 0.37469 0.0
C602 C 0.82239 0.37965 0.38295 0.0
C603 C 0.82033 0.36602 0.35488 0.0
N604 N 0.87104 0.37823 0.29267 0.0
C605 C 0.91948 0.39677 0.30805 0.0
C606 C 0.90182 0.38423 0.33242 0.0
C607 C 0.87777 0.37483 0.3241 0.0
C608 C 0.91216 0.39892 0.27549 0.0
C609 C 0.88808 0.38974 0.26843 0.0
N610 N 0.80532 0.36248 0.27433 0.0
C611 C 0.77584 0.37417 0.27912 0.0
C612 C 0.75884 0.35338 0.26312 0.0
C613 C 0.76568 0.33696 0.25328 0.0
C614 C 0.78898 0.34183 0.25917 0.0
C615 C 0.79877 0.37844 0.28407 0.0
H616 H 0.79382 0.32899 0.25142 0.0
H617 H 0.81121 0.39479 0.29615 0.0
H618 H 0.86463 0.36544 0.34345 0.0
H619 H 0.88339 0.39281 0.24352 0.0
C620 C 0.83629 0.32264 0.25375 0.0
C621 C 0.80522 0.34021 0.35249 0.0
C622 C 0.84461 0.39387 0.20287 0.0
C623 C 0.8582 0.42095 0.31976 0.0
H624 H 0.7967 0.29207 0.35227 0.0
H625 H 0.81609 0.28307 0.29916 0.0
H626 H 0.83957 0.32142 0.18156 0.0
H627 H 0.84048 0.35851 0.15341 0.0
H628 H 0.86563 0.44476 0.20919 0.0
H629 H 0.87506 0.46003 0.27299 0.0
H630 H 0.84406 0.41826 0.38983 0.0
H631 H 0.81271 0.37366 0.40657 0.0
H632 H 0.90657 0.38182 0.35781 0.0
H633 H 0.92506 0.40852 0.25584 0.0
H634 H 0.77152 0.38718 0.28816 0.0
H635 H 0.75331 0.32066 0.24068 0.0
C636 C 0.2921 0.64195 0.38316 0.0
C637 C 0.28429 0.62111 0.40222 0.0
C638 C 0.31457 0.66191 0.38816 0.0
C639 C 0.33054 0.66086 0.41138 0.0
C640 C 0.32371 0.63932 0.42853 0.0
C641 C 0.30059 0.61993 0.42436 0.0
C642 C 0.32072 0.68454 0.36973 0.0
C643 C 0.34056 0.6369 0.45215 0.0
C644 C 0.39316 0.71411 0.40419 0.0
C645 C 0.39338 0.72865 0.43067 0.0
C646 C 0.37355 0.69124 0.39904 0.0
C647 C 0.35322 0.683 0.41994 0.0
C648 C 0.35378 0.6971 0.44754 0.0
C649 C 0.374 0.71926 0.45312 0.0
C650 C 0.37432 0.6763 0.37047 0.0
C651 C 0.33248 0.68944 0.47019 0.0
H652 H 0.28046 0.64302 0.36462 0.0
H653 H 0.2952 0.60416 0.43931 0.0
H654 H 0.32462 0.69876 0.3884 0.0
H655 H 0.33684 0.69041 0.35415 0.0
H656 H 0.30619 0.68257 0.3529 0.0
H657 H 0.33489 0.61807 0.4571 0.0
H658 H 0.35874 0.64582 0.44149 0.0
H659 H 0.34126 0.64544 0.47676 0.0
H660 H 0.4079 0.7208 0.38668 0.0
H661 H 0.3742 0.72956 0.47477 0.0
H662 H 0.36428 0.67725 0.34845 0.0
H663 H 0.36602 0.65748 0.37822 0.0
H664 H 0.39276 0.68248 0.36209 0.0
H665 H 0.31711 0.68677 0.45475 0.0
H666 H 0.33566 0.7026 0.49033 0.0
H667 H 0.32754 0.67233 0.48245 0.0
C668 C 0.6585 0.2903 0.54866 0.0
C669 C 0.67013 0.28202 0.56988 0.0
C670 C 0.66039 0.31245 0.55379 0.0
C671 C 0.67529 0.32755 0.57975 0.0
C672 C 0.68865 0.32025 0.59947 0.0
C673 C 0.68561 0.29748 0.59475 0.0
C674 C 0.64543 0.31914 0.53247 0.0
C675 C 0.70558 0.33617 0.62637 0.0
C676 C 0.68584 0.39055 0.57414 0.0
C677 C 0.66937 0.38991 0.59776 0.0
C678 C 0.68912 0.37096 0.5695 0.0
C679 C 0.67503 0.34983 0.58796 0.0
C680 C 0.65905 0.34935 0.61263 0.0
C681 C 0.6569 0.36946 0.6178 0.0
C682 C 0.70718 0.37269 0.54405 0.0
C683 C 0.64329 0.32717 0.63256 0.0
H684 H 0.64732 0.27921 0.52829 0.0
H685 H 0.69483 0.29161 0.61138 0.0
H686 H 0.63316 0.3217 0.54906 0.0
H687 H 0.6568 0.33612 0.51925 0.0
H688 H 0.63481 0.30549 0.51319 0.0
H689 H 0.71785 0.33004 0.63476 0.0
H690 H 0.71616 0.35457 0.61686 0.0
H691 H 0.69548 0.33649 0.64878 0.0
H692 H 0.69572 0.40605 0.55842 0.0
H693 H 0.64492 0.36884 0.63728 0.0
H694 H 0.69805 0.36265 0.52086 0.0
H695 H 0.71746 0.36481 0.55445 0.0
H696 H 0.71966 0.39129 0.53668 0.0
H697 H 0.63188 0.31263 0.6149 0.0
H698 H 0.63173 0.32965 0.65078 0.0
H699 H 0.65415 0.32144 0.64686 0.0
C700 C 0.30005 0.68269 0.7414 0.0
C701 C 0.28419 0.66618 0.765 0.0
C702 C 0.32314 0.68638 0.73721 0.0
C703 C 0.33034 0.67254 0.75588 0.0
C704 C 0.31483 0.65655 0.78054 0.0
C705 C 0.29241 0.65413 0.78546 0.0
C706 C 0.33951 0.7046 0.71194 0.0
C707 C 0.32139 0.64099 0.80064 0.0
C708 C 0.37308 0.65597 0.716 0.0
C709 C 0.39293 0.66708 0.73753 0.0
C710 C 0.35293 0.65803 0.72127 0.0
C711 C 0.35287 0.67278 0.7475 0.0
C712 C 0.37361 0.68588 0.76731 0.0
C713 C 0.39317 0.68253 0.76258 0.0
C714 C 0.33119 0.64331 0.69985 0.0
C715 C 0.3749 0.70284 0.79431 0.0
H716 H 0.29434 0.69231 0.72534 0.0
H717 H 0.28113 0.64223 0.80507 0.0
H718 H 0.35788 0.7144 0.72187 0.0
H719 H 0.33978 0.69569 0.68815 0.0
H720 H 0.3337 0.71747 0.70566 0.0
H721 H 0.30722 0.62921 0.81856 0.0
H722 H 0.32493 0.62985 0.78308 0.0
H723 H 0.33781 0.652 0.81529 0.0
H724 H 0.37288 0.64495 0.69537 0.0
H725 H 0.40828 0.69145 0.77935 0.0
H726 H 0.32598 0.65485 0.68634 0.0
H727 H 0.31614 0.63132 0.71639 0.0
H728 H 0.33399 0.63243 0.68079 0.0
H729 H 0.3664 0.71293 0.78549 0.0
H730 H 0.39348 0.71552 0.80164 0.0
H731 H 0.36531 0.69282 0.81726 0.0
C732 C 0.71388 0.39084 0.90953 0.0
C733 C 0.73404 0.38835 0.91069 0.0
C734 C 0.69094 0.37115 0.91372 0.0
C735 C 0.688 0.34834 0.91866 0.0
C736 C 0.70827 0.3458 0.92026 0.0
C737 C 0.73089 0.36576 0.91676 0.0
C738 C 0.66984 0.37471 0.91261 0.0
C739 C 0.70609 0.32188 0.92527 0.0
C740 C 0.63405 0.29587 0.95813 0.0
C741 C 0.62247 0.28213 0.92957 0.0
C742 C 0.65439 0.3183 0.95483 0.0
C743 C 0.6639 0.32691 0.92218 0.0
C744 C 0.65168 0.31344 0.89316 0.0
C745 C 0.63095 0.29132 0.89721 0.0
C746 C 0.66638 0.33219 0.98644 0.0
C747 C 0.66137 0.32163 0.85793 0.0
H748 H 0.71595 0.40809 0.90466 0.0
H749 H 0.74623 0.36357 0.91874 0.0
H750 H 0.6584 0.36498 0.89073 0.0
H751 H 0.65903 0.36738 0.93589 0.0
H752 H 0.67511 0.39366 0.91035 0.0
H753 H 0.72354 0.32279 0.92482 0.0
H754 H 0.69743 0.31426 0.94992 0.0
H755 H 0.69479 0.30954 0.90509 0.0
H756 H 0.62754 0.28872 0.98318 0.0
H757 H 0.62216 0.28057 0.87514 0.0
H758 H 0.67143 0.35102 0.98332 0.0
H759 H 0.68285 0.33164 0.99104 0.0
H760 H 0.65486 0.32498 0.00916 0.0
H761 H 0.66577 0.34019 0.85396 0.0
H762 H 0.6487 0.31039 0.83795 0.0
H763 H 0.67799 0.32111 0.85486 0.0
C764 C 0.34415 0.72001 0.10885 0.0
C765 C 0.34253 0.72822 0.07673 0.0
C766 C 0.34272 0.6979 0.11272 0.0
C767 C 0.33924 0.68355 0.08381 0.0
C768 C 0.33579 0.6911 0.05171 0.0
C769 C 0.33779 0.71345 0.04852 0.0
C770 C 0.34679 0.69076 0.14734 0.0
C771 C 0.3316 0.67633 0.02028 0.0
C772 C 0.36922 0.64647 0.08439 0.0
C773 C 0.35061 0.62384 0.09283 0.0
C774 C 0.36563 0.66582 0.08131 0.0
C775 C 0.34272 0.66261 0.08626 0.0
C776 C 0.32362 0.63967 0.09363 0.0
C777 C 0.32779 0.62054 0.0969 0.0
C778 C 0.38657 0.68987 0.07336 0.0
C779 C 0.29888 0.63542 0.09863 0.0
H780 H 0.3481 0.73154 0.13061 0.0
H781 H 0.33666 0.71986 0.02366 0.0
H782 H 0.33327 0.67216 0.15291 0.0
H783 H 0.36434 0.69194 0.14785 0.0
H784 H 0.34635 0.70228 0.16771 0.0
H785 H 0.32541 0.6827 0.99865 0.0
H786 H 0.34833 0.67706 0.01277 0.0
H787 H 0.31833 0.65754 0.02527 0.0
H788 H 0.38683 0.64914 0.08052 0.0
H789 H 0.31333 0.60319 0.10363 0.0
H790 H 0.38898 0.70252 0.09386 0.0
H791 H 0.38333 0.69679 0.0495 0.0
H792 H 0.40327 0.68943 0.07056 0.0
H793 H 0.29844 0.64542 0.12108 0.0
H794 H 0.28574 0.6164 0.10239 0.0
H795 H 0.29351 0.642 0.07636 0.0
C796 C 0.71421 0.3269 0.25974 0.0
C797 C 0.73444 0.34943 0.25683 0.0
C798 C 0.69126 0.32362 0.2556 0.0
C799 C 0.68839 0.34335 0.24898 0.0
C800 C 0.70873 0.36602 0.24559 0.0
C801 C 0.73134 0.3687 0.24902 0.0
C802 C 0.67009 0.29907 0.25862 0.0
C803 C 0.70664 0.38765 0.2388 0.0
C804 C 0.63378 0.34064 0.20982 0.0
C805 C 0.62281 0.34387 0.23823 0.0
C806 C 0.65414 0.33861 0.2132 0.0
C807 C 0.66429 0.3407 0.24571 0.0
C808 C 0.6527 0.34309 0.27463 0.0
C809 C 0.63195 0.34439 0.27055 0.0
C810 C 0.66542 0.33544 0.18174 0.0
C811 C 0.66309 0.3459 0.30966 0.0
H812 H 0.71623 0.31187 0.26597 0.0
H813 H 0.74671 0.3861 0.24566 0.0
H814 H 0.65911 0.29823 0.28063 0.0
H815 H 0.65883 0.29477 0.23566 0.0
H816 H 0.67528 0.2854 0.2619 0.0
H817 H 0.72415 0.40414 0.23793 0.0
H818 H 0.69752 0.38569 0.21427 0.0
H819 H 0.69578 0.38955 0.25885 0.0
H820 H 0.62678 0.34037 0.18479 0.0
H821 H 0.62362 0.34719 0.29248 0.0
H822 H 0.67044 0.32174 0.18591 0.0
H823 H 0.68185 0.35225 0.17579 0.0
H824 H 0.65346 0.33033 0.15942 0.0
H825 H 0.6674 0.33181 0.31475 0.0
H826 H 0.65091 0.34538 0.32975 0.0
H827 H 0.67987 0.36309 0.31131 0.0
C828 C 0.15463 0.60418 0.64439 0.0
C829 C 0.17148 0.60616 0.66821 0.0
C830 C 0.15461 0.59644 0.61115 0.0
C831 C 0.1709 0.58908 0.60206 0.0
C832 C 0.18698 0.58962 0.62672 0.0
C833 C 0.18729 0.59847 0.65939 0.0
C834 C 0.13758 0.59677 0.58555 0.0
C835 C 0.2039 0.58093 0.61856 0.0
C836 C 0.15538 0.5496 0.52411 0.0
C837 C 0.17171 0.565 0.50014 0.0
C838 C 0.15537 0.557 0.55756 0.0
C839 C 0.17108 0.58081 0.56677 0.0
C840 C 0.18672 0.59679 0.54207 0.0
C841 C 0.18706 0.5886 0.50918 0.0
C842 C 0.13883 0.5392 0.58317 0.0
C843 C 0.20299 0.62256 0.55036 0.0
H844 H 0.14182 0.60932 0.65156 0.0
H845 H 0.19998 0.59953 0.67804 0.0
H846 H 0.1475 0.60764 0.56333 0.0
H847 H 0.12544 0.57863 0.57616 0.0
H848 H 0.1268 0.60401 0.59632 0.0
H849 H 0.21411 0.58101 0.64115 0.0
H850 H 0.19402 0.56268 0.60827 0.0
H851 H 0.21656 0.59227 0.59872 0.0
H852 H 0.14285 0.53156 0.5168 0.0
H853 H 0.19934 0.60064 0.49043 0.0
H854 H 0.12599 0.54432 0.59238 0.0
H855 H 0.14902 0.53891 0.60552 0.0
H856 H 0.12881 0.52106 0.57247 0.0
H857 H 0.19259 0.63037 0.56053 0.0
H858 H 0.2131 0.63293 0.52786 0.0
H859 H 0.21573 0.6243 0.57032 0.0
C860 C 0.61201 0.15325 0.69133 0.0
C861 C 0.61271 0.16966 0.66777 0.0
C862 C 0.60505 0.15315 0.72505 0.0
C863 C 0.59691 0.16868 0.73488 0.0
C864 C 0.596 0.18416 0.71051 0.0
C865 C 0.60431 0.18475 0.67738 0.0
C866 C 0.60707 0.13691 0.75033 0.0
C867 C 0.58627 0.2001 0.71944 0.0
C868 C 0.55862 0.15207 0.81414 0.0
C869 C 0.57366 0.16949 0.83723 0.0
C870 C 0.56575 0.15192 0.78061 0.0
C871 C 0.58913 0.16854 0.77055 0.0
C872 C 0.605 0.18503 0.79459 0.0
C873 C 0.59694 0.18557 0.82751 0.0
C874 C 0.54798 0.13455 0.75567 0.0
C875 C 0.63042 0.20221 0.78545 0.0
H876 H 0.61765 0.14093 0.68359 0.0
H877 H 0.60436 0.19709 0.65896 0.0
H878 H 0.61809 0.14732 0.77219 0.0
H879 H 0.58936 0.12402 0.7604 0.0
H880 H 0.61509 0.12698 0.73902 0.0
H881 H 0.58503 0.20967 0.69697 0.0
H882 H 0.56841 0.18959 0.73087 0.0
H883 H 0.5978 0.2133 0.7386 0.0
H884 H 0.54085 0.13908 0.82202 0.0
H885 H 0.60873 0.19872 0.84559 0.0
H886 H 0.55412 0.1227 0.74565 0.0
H887 H 0.54627 0.14422 0.73373 0.0
H888 H 0.53022 0.1235 0.76722 0.0
H889 H 0.641 0.21237 0.8078 0.0
H890 H 0.63115 0.21488 0.76614 0.0
H891 H 0.63876 0.19261 0.77415 0.0
C892 C 0.397 0.58254 0.98751 0.0
C893 C 0.41296 0.58047 0.00906 0.0
C894 C 0.40219 0.58828 0.95304 0.0
C895 C 0.42473 0.59396 0.94018 0.0
C896 C 0.44159 0.59361 0.96258 0.0
C897 C 0.43508 0.58577 0.99616 0.0
C898 C 0.38304 0.58746 0.93063 0.0
C899 C 0.46642 0.60082 0.95139 0.0
C900 C 0.43896 0.58805 0.84806 0.0
C901 C 0.44267 0.60925 0.83369 0.0
C902 C 0.43162 0.58224 0.88193 0.0
C903 C 0.43028 0.59908 0.90321 0.0
C904 C 0.43481 0.62091 0.88904 0.0
C905 C 0.44005 0.62528 0.8543 0.0
C906 C 0.42576 0.5581 0.89456 0.0
C907 C 0.43474 0.64016 0.91013 0.0
H908 H 0.37973 0.57818 0.99721 0.0
H909 H 0.44716 0.58308 0.0118 0.0
H910 H 0.38429 0.60501 0.93095 0.0
H911 H 0.38454 0.58289 0.90399 0.0
H912 H 0.36517 0.57436 0.9402 0.0
H913 H 0.46733 0.58478 0.94496 0.0
H914 H 0.4722 0.61276 0.92907 0.0
H915 H 0.47917 0.60989 0.97238 0.0
H916 H 0.44225 0.57609 0.83315 0.0
H917 H 0.4433 0.64192 0.84353 0.0
H918 H 0.41337 0.55211 0.9164 0.0
H919 H 0.4423 0.55858 0.90234 0.0
H920 H 0.41771 0.54476 0.87399 0.0
H921 H 0.41753 0.63945 0.90681 0.0
H922 H 0.44874 0.65786 0.90128 0.0
H923 H 0.43755 0.63859 0.93753 0.0
C924 C 0.86298 0.40477 0.14483 0.0
C925 C 0.84638 0.40389 0.16824 0.0
C926 C 0.86318 0.41177 0.11111 0.0
C927 C 0.84748 0.41966 0.1011 0.0
C928 C 0.8318 0.42039 0.12535 0.0
C929 C 0.83118 0.41213 0.15851 0.0
C930 C 0.87968 0.41 0.08598 0.0
C931 C 0.8156 0.42978 0.11622 0.0
C932 C 0.86346 0.45773 0.02171 0.0
C933 C 0.84615 0.44245 0.99868 0.0
C934 C 0.86386 0.45069 0.05522 0.0
C935 C 0.84755 0.42726 0.06535 0.0
C936 C 0.8312 0.41119 0.04134 0.0
C937 C 0.83045 0.4191 0.0084 0.0
C938 C 0.88108 0.46864 0.08011 0.0
C939 C 0.81431 0.38574 0.05057 0.0
H940 H 0.87533 0.39919 0.15267 0.0
H941 H 0.81868 0.41191 0.17682 0.0
H942 H 0.86935 0.39861 0.06436 0.0
H943 H 0.89221 0.42768 0.07551 0.0
H944 H 0.89004 0.40253 0.09754 0.0
H945 H 0.8059 0.43093 0.1386 0.0
H946 H 0.82596 0.44761 0.10471 0.0
H947 H 0.8025 0.4181 0.09707 0.0
H948 H 0.87609 0.4756 0.01384 0.0
H949 H 0.81737 0.40715 0.99037 0.0
H950 H 0.89289 0.46261 0.09067 0.0
H951 H 0.87123 0.47051 0.10171 0.0
H952 H 0.8922 0.4863 0.06835 0.0
H953 H 0.82416 0.37771 0.06203 0.0
H954 H 0.80429 0.37502 0.02824 0.0
H955 H 0.80148 0.38484 0.06979 0.0
C956 C 0.4321 0.85113 0.17589 0.0
C957 C 0.40988 0.83451 0.16297 0.0
C958 C 0.43842 0.8498 0.20957 0.0
C959 C 0.42134 0.83277 0.23196 0.0
C960 C 0.39873 0.81608 0.21906 0.0
C961 C 0.39366 0.81668 0.18456 0.0
C962 C 0.46329 0.86722 0.22094 0.0
C963 C 0.3794 0.7979 0.24145 0.0
C964 C 0.43737 0.81716 0.31748 0.0
C965 C 0.43997 0.8358 0.33812 0.0
C966 C 0.43172 0.81607 0.28288 0.0
C967 C 0.42685 0.83317 0.26891 0.0
C968 C 0.42801 0.85123 0.29027 0.0
C969 C 0.43564 0.85294 0.32404 0.0
C970 C 0.43163 0.79683 0.26159 0.0
C971 C 0.42178 0.86925 0.27773 0.0
H972 H 0.4444 0.86572 0.16013 0.0
H973 H 0.37631 0.80394 0.17482 0.0
H974 H 0.4642 0.88396 0.22864 0.0
H975 H 0.46906 0.86047 0.24258 0.0
H976 H 0.47603 0.87147 0.19976 0.0
H977 H 0.36165 0.79364 0.23207 0.0
H978 H 0.38013 0.78133 0.24073 0.0
H979 H 0.38114 0.80384 0.26819 0.0
H980 H 0.44105 0.80402 0.32807 0.0
H981 H 0.43882 0.86816 0.33898 0.0
H982 H 0.4357 0.80195 0.23454 0.0
H983 H 0.41391 0.78071 0.26318 0.0
H984 H 0.44469 0.79211 0.27133 0.0
H985 H 0.43809 0.88524 0.269 0.0
H986 H 0.41417 0.87482 0.29855 0.0
H987 H 0.4089 0.86241 0.25648 0.0
C988 C 0.55979 0.40996 0.35353 0.0
C989 C 0.57459 0.40736 0.33029 0.0
C990 C 0.56718 0.41737 0.38695 0.0
C991 C 0.59055 0.42394 0.39675 0.0
C992 C 0.60615 0.42301 0.37258 0.0
C993 C 0.59785 0.41435 0.33975 0.0
C994 C 0.54969 0.41734 0.41205 0.0
C995 C 0.63155 0.43098 0.38147 0.0
C996 C 0.61402 0.46235 0.4757 0.0
C997 C 0.61425 0.44651 0.49946 0.0
C998 C 0.60708 0.45546 0.44198 0.0
C999 C 0.59857 0.43168 0.43231 0.0
C1000 C 0.59737 0.41522 0.4568 0.0
C1001 C 0.6056 0.42294 0.48996 0.0
C1002 C 0.60934 0.47376 0.41658 0.0
C1003 C 0.5873 0.38946 0.44802 0.0
H1004 H 0.54204 0.40532 0.34584 0.0
H1005 H 0.60945 0.4128 0.32154 0.0
H1006 H 0.54794 0.40601 0.43409 0.0
H1007 H 0.55612 0.43544 0.42188 0.0
H1008 H 0.53189 0.41075 0.4007 0.0
H1009 H 0.6419 0.43105 0.35907 0.0
H1010 H 0.6402 0.44905 0.39247 0.0
H1011 H 0.63216 0.41909 0.40097 0.0
H1012 H 0.61981 0.48037 0.48336 0.0
H1013 H 0.60528 0.41056 0.50853 0.0
H1014 H 0.59163 0.46925 0.40687 0.0
H1015 H 0.61999 0.47395 0.39451 0.0
H1016 H 0.61783 0.49181 0.42767 0.0
H1017 H 0.56933 0.38221 0.43701 0.0
H1018 H 0.58617 0.37868 0.47047 0.0
H1019 H 0.59851 0.38757 0.42857 0.0
C1020 C 0.95451 0.42248 0.34563 0.0
C1021 C 0.94537 0.40835 0.31652 0.0
C1022 C 0.97904 0.43487 0.35258 0.0
C1023 C 0.99499 0.43279 0.33033 0.0
C1024 C 0.98577 0.41806 0.30134 0.0
C1025 C 0.96123 0.4063 0.29462 0.0
C1026 C 0.98796 0.4507 0.38337 0.0
C1027 C 1.00188 0.41479 0.27727 0.0
C1028 C 0.06042 0.4814 0.32877 0.0
C1029 C 0.07089 0.47216 0.35029 0.0
C1030 C 0.03583 0.46894 0.32235 0.0
C1031 C 0.0213 0.4463 0.33702 0.0
C1032 C 0.03197 0.43672 0.35822 0.0
C1033 C 0.0565 0.44989 0.36501 0.0
C1034 C 0.02532 0.48023 0.30035 0.0
C1035 C 0.01746 0.41248 0.37373 0.0
H1036 H 0.9425 0.42446 0.36248 0.0
H1037 H 0.95438 0.39532 0.27219 0.0
H1038 H 0.9979 0.44514 0.40017 0.0
H1039 H 1.0004 0.46915 0.37539 0.0
H1040 H 0.97337 0.45045 0.3982 0.0
H1041 H 0.99191 0.40187 0.25684 0.0
H1042 H 0.01451 0.43195 0.2654 0.0
H1043 H 0.01246 0.40861 0.29139 0.0
H1044 H 0.07144 0.49872 0.31766 0.0
H1045 H 0.06452 0.4427 0.38169 0.0
H1046 H 0.01157 0.4818 0.31475 0.0
H1047 H 0.01654 0.46893 0.27794 0.0
H1048 H 0.03886 0.49808 0.29138 0.0
H1049 H 1.00387 0.41221 0.39091 0.0
H1050 H 0.0285 0.40707 0.38836 0.0
H1051 H 1.00796 0.3992 0.35353 0.0
C1052 C 0.56377 0.95414 0.48751 0.0
C1053 C 0.53902 0.94277 0.48536 0.0
C1054 C 0.57748 0.97869 0.49393 0.0
C1055 C 0.56618 0.99217 0.49933 0.0
C1056 C 0.5411 0.98054 0.49783 0.0
C1057 C 0.52791 0.95616 0.49038 0.0
C1058 C 0.60411 0.99029 0.49432 0.0
C1059 C 0.52813 0.99384 0.50428 0.0
C1060 C 0.59958 0.05112 0.54712 0.0
C1061 C 0.60543 0.06803 0.5212 0.0
C1062 C 0.58692 0.0266 0.5404 0.0
C1063 C 0.58045 0.01834 0.50668 0.0
C1064 C 0.58704 0.03517 0.48019 0.0
C1065 C 0.59905 0.0596 0.48774 0.0
C1066 C 0.57999 0.00948 0.56964 0.0
C1067 C 0.58108 0.02734 0.44374 0.0
H1068 H 0.57244 0.94391 0.48332 0.0
H1069 H 0.50878 0.94743 0.48878 0.0
H1070 H 0.61182 1.00461 0.47509 0.0
H1071 H 0.61111 0.99857 0.51938 0.0
H1072 H 0.61025 0.97755 0.48897 0.0
H1073 H 0.5086 0.98212 0.50353 0.0
H1074 H 0.53316 1.00259 0.52946 0.0
H1075 H 0.53325 0.00794 0.48501 0.0
H1076 H 0.6048 0.05692 0.57299 0.0
H1077 H 0.60293 0.07204 0.46726 0.0
H1078 H 0.58759 0.9978 0.56613 0.0
H1079 H 0.56045 0.99797 0.57039 0.0
H1080 H 0.58603 0.01861 0.59447 0.0
H1081 H 0.58731 0.01485 0.43716 0.0
H1082 H 0.58914 0.04246 0.42578 0.0
H1083 H 0.56161 0.01781 0.4402 0.0
C1084 C 0.53276 0.57597 0.70111 0.0
C1085 C 0.53812 0.59751 0.68556 0.0
C1086 C 0.54589 0.56468 0.69426 0.0
C1087 C 0.56473 0.57465 0.67055 0.0
C1088 C 0.57015 0.59618 0.65439 0.0
C1089 C 0.557 0.60739 0.66224 0.0
C1090 C 0.53948 0.54189 0.71239 0.0
C1091 C 0.58979 0.60733 0.62855 0.0
C1092 C 0.61115 0.55492 0.67251 0.0
C1093 C 0.60293 0.5373 0.64729 0.0
C1094 C 0.59903 0.5672 0.68026 0.0
C1095 C 0.57826 0.56217 0.6621 0.0
C1096 C 0.57 0.54466 0.63641 0.0
C1097 C 0.58216 0.53235 0.62964 0.0
C1098 C 0.60837 0.58544 0.7082 0.0
C1099 C 0.5481 0.53873 0.61611 0.0
H1100 H 0.51796 0.56758 0.71848 0.0
H1101 H 0.56175 0.62407 0.65022 0.0
H1102 H 0.53353 0.52729 0.69376 0.0
H1103 H 0.55525 0.54349 0.72549 0.0
H1104 H 0.52519 0.537 0.73138 0.0
H1105 H 0.59173 0.62395 0.61792 0.0
H1106 H 0.60683 0.61129 0.64026 0.0
H1107 H 0.58627 0.59478 0.60741 0.0
H1108 H 0.62722 0.55933 0.68619 0.0
H1109 H 0.57502 0.51849 0.61071 0.0
H1110 H 0.59466 0.58049 0.72811 0.0
H1111 H 0.61238 0.60287 0.69803 0.0
H1112 H 0.62464 0.5873 0.7201 0.0
H1113 H 0.53246 0.53144 0.63309 0.0
H1114 H 0.54465 0.52563 0.59575 0.0
H1115 H 0.54992 0.55498 0.60437 0.0
C1116 C 0.05711 0.57688 0.81743 0.0
C1117 C 0.07078 0.60161 0.81555 0.0
C1118 C 0.03279 0.56541 0.82542 0.0
C1119 C 0.0215 0.57888 0.83068 0.0
C1120 C 0.03524 0.60391 0.8284 0.0
C1121 C 0.05974 0.61496 0.82139 0.0
C1122 C 0.01921 0.53881 0.82854 0.0
C1123 C 0.02397 0.61901 0.8328 0.0
C1124 C 0.95389 0.5453 0.82071 0.0
C1125 C 0.94589 0.54138 0.85457 0.0
C1126 C 0.97825 0.55811 0.81261 0.0
C1127 C 0.99543 0.56673 0.83885 0.0
C1128 C 0.98762 0.56304 0.87299 0.0
C1129 C 0.96317 0.55096 0.88036 0.0
C1130 C 0.98562 0.5621 0.77582 0.0
C1131 C 1.00513 0.57139 0.90192 0.0
H1132 H 0.0656 0.56649 0.81307 0.0
H1133 H 0.07019 0.63406 0.81969 0.0
H1134 H 0.01076 0.53363 0.85391 0.0
H1135 H 1.00484 0.53111 0.8094 0.0
H1136 H 0.0307 0.53095 0.82498 0.0
H1137 H 0.03684 0.63813 0.82926 0.0
H1138 H 0.00935 0.61358 0.81426 0.0
H1139 H 0.01612 0.6164 0.85849 0.0
H1140 H 0.94119 0.53793 0.80023 0.0
H1141 H 0.95774 0.549 0.90664 0.0
H1142 H 0.99476 0.55219 0.76934 0.0
H1143 H 0.99833 0.58112 0.77125 0.0
H1144 H 0.97029 0.55632 0.75846 0.0
H1145 H 0.01651 0.56331 0.89981 0.0
H1146 H 0.9963 0.5668 0.92709 0.0
H1147 H 0.01692 0.59083 0.90063 0.0
C1148 C 0.49059 0.05524 0.98316 0.0
C1149 C 0.47904 0.06846 0.98303 0.0
C1150 C 0.47834 0.03088 0.99075 0.0
C1151 C 0.45367 0.01909 0.99745 0.0
C1152 C 0.44188 0.03237 0.99702 0.0
C1153 C 0.45475 0.05691 0.99033 0.0
C1154 C 0.49189 0.01778 0.99185 0.0
C1155 C 0.41556 0.02056 0.00308 0.0
C1156 C 0.42025 0.95169 0.98616 0.0
C1157 C 0.4174 0.94344 0.01981 0.0
C1158 C 0.43127 0.97607 0.97862 0.0
C1159 C 0.44039 0.99298 0.00517 0.0
C1160 C 0.4375 0.98489 0.03912 0.0
C1161 C 0.42578 0.96043 0.04599 0.0
C1162 C 0.43344 0.98374 0.94207 0.0
C1163 C 0.44725 1.00214 0.0683 0.0
H1164 H 0.50939 0.0641 0.97772 0.0
H1165 H 0.4457 0.067 0.98997 0.0
H1166 H 0.48953 0.00921 0.01696 0.0
H1167 H 0.48486 1.00357 0.97247 0.0
H1168 H 0.51112 0.02961 0.98723 0.0
H1169 H 0.40888 0.03315 0.00107 0.0
H1170 H 0.40604 0.00614 0.98436 0.0
H1171 H 0.41118 0.0124 0.02864 0.0
H1172 H 0.41433 0.93915 0.96542 0.0
H1173 H 0.42326 0.9547 0.07217 0.0
H1174 H 0.45235 0.99346 0.93453 0.0
H1175 H 0.4265 0.99602 0.9389 0.0
H1176 H 0.42374 0.96853 0.92457 0.0
H1177 H 0.46665 0.0138 0.06523 0.0
H1178 H 0.44381 0.99311 0.09325 0.0
H1179 H 0.43929 0.01365 0.06841 0.0
C1180 C 0.44311 0.48992 0.15662 0.0
C1181 C 0.41844 0.47899 0.15314 0.0
C1182 C 0.45426 0.4767 0.16378 0.0
C1183 C 0.44055 0.45172 0.16658 0.0
C1184 C 0.41559 0.44057 0.16279 0.0
C1185 C 0.40483 0.45435 0.15663 0.0
C1186 C 0.48076 0.48952 0.16853 0.0
C1187 C 0.40028 0.41403 0.16462 0.0
C1188 C 0.47417 0.41808 0.15405 0.0
C1189 C 0.47728 0.41265 0.18755 0.0
C1190 C 0.46166 0.43002 0.14683 0.0
C1191 C 0.45239 0.43742 0.17367 0.0
C1192 C 0.45521 0.43183 0.20743 0.0
C1193 C 0.46716 0.41928 0.21387 0.0
C1194 C 0.45869 0.43506 0.11037 0.0
C1195 C 0.44606 0.43964 0.23699 0.0
H1196 H 0.45371 0.50897 0.15407 0.0
H1197 H 0.38579 0.44579 0.15363 0.0
H1198 H 0.48516 0.48505 0.19363 0.0
H1199 H 0.489 0.48375 0.14896 0.0
H1200 H 0.4888 0.50902 0.16685 0.0
H1201 H 0.38125 0.408 0.16048 0.0
H1202 H 0.40609 0.40571 0.14521 0.0
H1203 H 0.40227 0.4076 0.18973 0.0
H1204 H 0.48198 0.41354 0.13327 0.0
H1205 H 0.4686 0.41477 0.23983 0.0
H1206 H 0.46871 0.4544 0.10578 0.0
H1207 H 0.43979 0.42885 0.10496 0.0
H1208 H 0.46504 0.42643 0.09228 0.0
H1209 H 0.45438 0.45918 0.23688 0.0
H1210 H 0.44975 0.43408 0.26178 0.0
H1211 H 0.42668 0.4322 0.23459 0.0
C1212 C 0.25388 0.56491 0.30309 0.0
C1213 C 0.23094 0.55046 0.29056 0.0
C1214 C 0.27373 0.56715 0.28564 0.0
C1215 C 0.27048 0.55428 0.25521 0.0
C1216 C 0.24732 0.54061 0.24166 0.0
C1217 C 0.22784 0.53891 0.25949 0.0
C1218 C 0.298 0.58215 0.30089 0.0
C1219 C 0.24292 0.52649 0.20948 0.0
C1220 C 0.32188 0.56583 0.19657 0.0
C1221 C 0.32622 0.54771 0.20611 0.0
C1222 C 0.30435 0.56877 0.21301 0.0
C1223 C 0.29074 0.55306 0.23942 0.0
C1224 C 0.29571 0.5352 0.24974 0.0
C1225 C 0.31343 0.5328 0.23301 0.0
C1226 C 0.29987 0.58816 0.20134 0.0
C1227 C 0.28167 0.518 0.27762 0.0
H1228 H 0.2562 0.57356 0.32741 0.0
H1229 H 0.21002 0.5274 0.2502 0.0
H1230 H 0.30447 0.57054 0.31089 0.0
H1231 H 0.31076 0.59368 0.28128 0.0
H1232 H 0.29791 0.59338 0.32199 0.0
H1233 H 0.2243 0.5185 0.20069 0.0
H1234 H 0.25482 0.53784 0.18897 0.0
H1235 H 0.24691 0.51209 0.2139 0.0
H1236 H 0.33172 0.57723 0.17554 0.0
H1237 H 0.31676 0.51873 0.24016 0.0
H1238 H 0.30033 0.599 0.22329 0.0
H1239 H 0.28197 0.58028 0.18995 0.0
H1240 H 0.31307 0.59991 0.18226 0.0
H1241 H 0.28243 0.52772 0.30108 0.0
H1242 H 0.28825 0.50569 0.28345 0.0
H1243 H 0.26279 0.50744 0.27003 0.0
C1244 C 0.76157 0.31836 0.36214 0.0
C1245 C 0.78437 0.32616 0.37473 0.0
C1246 C 0.74142 0.3008 0.37917 0.0
C1247 C 0.74422 0.29048 0.40917 0.0
C1248 C 0.76727 0.2992 0.42273 0.0
C1249 C 0.78705 0.31699 0.40539 0.0
C1250 C 0.71728 0.29241 0.364 0.0
C1251 C 0.7712 0.28865 0.4544 0.0
C1252 C 0.69358 0.25084 0.46894 0.0
C1253 C 0.68892 0.22832 0.45906 0.0
C1254 C 0.71063 0.27126 0.45183 0.0
C1255 C 0.72357 0.26907 0.42454 0.0
C1256 C 0.71799 0.24617 0.41354 0.0
C1257 C 0.70063 0.22609 0.4308 0.0
C1258 C 0.7156 0.29519 0.46406 0.0
C1259 C 0.73138 0.24289 0.38482 0.0
H1260 H 0.75958 0.32524 0.3381 0.0
H1261 H 0.80475 0.32275 0.4147 0.0
H1262 H 0.71031 0.27441 0.35334 0.0
H1263 H 0.70468 0.29127 0.38382 0.0
H1264 H 0.7178 0.30426 0.3434 0.0
H1265 H 0.78991 0.29849 0.46302 0.0
H1266 H 0.75972 0.28849 0.47524 0.0
H1267 H 0.76629 0.27003 0.44943 0.0
H1268 H 0.68463 0.25252 0.49103 0.0
H1269 H 0.69713 0.20865 0.42345 0.0
H1270 H 0.71607 0.3062 0.44235 0.0
H1271 H 0.73324 0.30452 0.47639 0.0
H1272 H 0.70216 0.29381 0.48262 0.0
H1273 H 0.73095 0.25254 0.36196 0.0
H1274 H 0.72403 0.22398 0.37811 0.0
H1275 H 0.75022 0.2504 0.39212 0.0
C1276 C 0.47716 0.69409 0.59653 0.0
C1277 C 0.46515 0.6853 0.62723 0.0
C1278 C 0.4756 0.71192 0.57869 0.0
C1279 C 0.46165 0.72115 0.59187 0.0
C1280 C 0.44855 0.71138 0.6221 0.0
C1281 C 0.45062 0.6937 0.63954 0.0
C1282 C 0.48996 0.7218 0.54672 0.0
C1283 C 0.43327 0.7204 0.63697 0.0
C1284 C 0.4824 0.78519 0.56804 0.0
C1285 C 0.46766 0.78249 0.5406 0.0
C1286 C 0.48012 0.7654 0.58557 0.0
C1287 C 0.46251 0.74231 0.57558 0.0
C1288 C 0.44685 0.73964 0.54878 0.0
C1289 C 0.4497 0.75978 0.53151 0.0
C1290 C 0.49727 0.76919 0.61383 0.0
C1291 C 0.42767 0.71548 0.53749 0.0
H1292 H 0.48868 0.68781 0.58737 0.0
H1293 H 0.44158 0.68706 0.66356 0.0
H1294 H 0.47856 0.72175 0.52584 0.0
H1295 H 0.50395 0.74044 0.55104 0.0
H1296 H 0.49853 0.71162 0.53851 0.0
H1297 H 0.42211 0.70915 0.6582 0.0
H1298 H 0.44468 0.73864 0.64663 0.0
H1299 H 0.4216 0.72118 0.61718 0.0
H1300 H 0.49637 0.80279 0.57487 0.0
H1301 H 0.43841 0.75775 0.51008 0.0
H1302 H 0.50827 0.76132 0.60668 0.0
H1303 H 0.48749 0.76014 0.63724 0.0
H1304 H 0.50918 0.78822 0.61959 0.0
H1305 H 0.43582 0.70574 0.52609 0.0
H1306 H 0.41564 0.71648 0.51848 0.0
H1307 H 0.41704 0.70506 0.55958 0.0
C1308 C 0.76252 0.44674 0.80496 0.0
C1309 C 0.78498 0.46508 0.79558 0.0
C1310 C 0.74203 0.44323 0.78792 0.0
C1311 C 0.74409 0.45867 0.76118 0.0
C1312 C 0.76695 0.47665 0.75087 0.0
C1313 C 0.78711 0.47954 0.76809 0.0
C1314 C 0.71815 0.42366 0.79948 0.0
C1315 C 0.77007 0.49364 0.72273 0.0
C1316 C 0.69524 0.44656 0.69759 0.0
C1317 C 0.68671 0.46092 0.71014 0.0
C1318 C 0.71289 0.44441 0.71501 0.0
C1319 C 0.72254 0.4573 0.74542 0.0
C1320 C 0.71301 0.47087 0.75901 0.0
C1321 C 0.69517 0.47247 0.74122 0.0
C1322 C 0.72218 0.42948 0.69976 0.0
C1323 C 0.72279 0.48505 0.79115 0.0
H1324 H 0.76094 0.43572 0.82649 0.0
H1325 H 0.80451 0.49387 0.76117 0.0
H1326 H 0.70811 0.43137 0.81123 0.0
H1327 H 0.70769 0.41292 0.77747 0.0
H1328 H 0.71966 0.41183 0.81829 0.0
H1329 H 0.78901 0.50591 0.71671 0.0
H1330 H 0.76098 0.48377 0.69941 0.0
H1331 H 0.76184 0.50425 0.73021 0.0
H1332 H 0.68891 0.43793 0.67324 0.0
H1333 H 0.68885 0.48393 0.75052 0.0
H1334 H 0.72358 0.4181 0.71942 0.0
H1335 H 0.74021 0.44113 0.6895 0.0
H1336 H 0.71071 0.41808 0.67884 0.0
H1337 H 0.72326 0.47373 0.81171 0.0
H1338 H 0.7122 0.49306 0.79988 0.0
H1339 H 0.74125 0.49944 0.78673 0.0
C1340 C 0.30925 0.78548 0.93959 0.0
C1341 C 0.32333 0.78299 0.96412 0.0
C1342 C 0.29187 0.76577 0.92169 0.0
C1343 C 0.28874 0.74302 0.92809 0.0
C1344 C 0.30381 0.74067 0.95172 0.0
C1345 C 0.32083 0.76069 0.96963 0.0
C1346 C 0.27636 0.76921 0.89666 0.0
C1347 C 0.30149 0.71697 0.95922 0.0
C1348 C 0.22707 0.69202 0.907 0.0
C1349 C 0.23039 0.68603 0.87419 0.0
C1350 C 0.24617 0.70977 0.92553 0.0
C1351 C 0.26909 0.72182 0.91082 0.0
C1352 C 0.27265 0.71481 0.87835 0.0
C1353 C 0.2532 0.69716 0.86031 0.0
C1354 C 0.2416 0.71651 0.96014 0.0
C1355 C 0.2968 0.72667 0.86203 0.0
H1356 H 0.31142 0.80282 0.93511 0.0
H1357 H 0.33178 0.75879 0.98863 0.0
H1358 H 0.27739 0.7623 0.87141 0.0
H1359 H 0.25762 0.75907 0.90504 0.0
H1360 H 0.28145 0.78809 0.89393 0.0
H1361 H 0.31827 0.71899 0.96931 0.0
H1362 H 0.28751 0.70773 0.97864 0.0
H1363 H 0.29639 0.7056 0.93631 0.0
H1364 H 0.20932 0.68367 0.91742 0.0
H1365 H 0.25566 0.69266 0.83474 0.0
H1366 H 0.24479 0.73485 0.95945 0.0
H1367 H 0.25403 0.71611 0.97894 0.0
H1368 H 0.22319 0.70453 0.9689 0.0
H1369 H 0.30229 0.74529 0.85594 0.0
H1370 H 0.29707 0.71764 0.83829 0.0
H1371 H 0.31009 0.72696 0.87987 0.0
C1372 C 0.53669 0.31447 0.09693 0.0
C1373 C 0.54962 0.32457 0.12658 0.0
C1374 C 0.53862 0.29672 0.07953 0.0
C1375 C 0.55395 0.28895 0.09208 0.0
C1376 C 0.56788 0.29997 0.12125 0.0
C1377 C 0.56544 0.31758 0.13826 0.0
C1378 C 0.52331 0.28541 0.04874 0.0
C1379 C 0.58461 0.29249 0.13526 0.0
C1380 C 0.53554 0.22523 0.07003 0.0
C1381 C 0.54942 0.22817 0.04141 0.0
C1382 C 0.53749 0.2449 0.0875 0.0
C1383 C 0.55385 0.26808 0.07616 0.0
C1384 C 0.56874 0.27105 0.04817 0.0
C1385 C 0.56625 0.25102 0.031 0.0
C1386 C 0.52115 0.24084 0.11701 0.0
C1387 C 0.58659 0.29536 0.03551 0.0
H1388 H 0.52422 0.3197 0.0883 0.0
H1389 H 0.57523 0.32528 0.16147 0.0
H1390 H 0.53429 0.28569 0.02708 0.0
H1391 H 0.51033 0.2666 0.05426 0.0
H1392 H 0.51346 0.29442 0.041 0.0
H1393 H 0.59451 0.30309 0.15773 0.0
H1394 H 0.57461 0.27358 0.14268 0.0
H1395 H 0.59749 0.29431 0.11546 0.0
H1396 H 0.52235 0.20751 0.07772 0.0
H1397 H 0.5768 0.25321 0.0086 0.0
H1398 H 0.50892 0.2474 0.11049 0.0
H1399 H 0.53147 0.25089 0.13953 0.0
H1400 H 0.51045 0.22184 0.12392 0.0
H1401 H 0.57736 0.3047 0.02658 0.0
H1402 H 0.59746 0.29469 0.01435 0.0
H1403 H 0.59853 0.306 0.05647 0.0
loop_
_geom_bond_atom_site_label_1
_geom_bond_atom_site_label_2
_geom_bond_distance
_geom_bond_site_symmetry_2
_ccdc_geom_bond_type
C0 C1 1.443 . S
C0 N4 1.376 . S
C0 C38 1.389 . S
C1 C0 1.443 . S
C1 C2 1.340 . S
C1 H41 0.951 . S
C2 C1 1.340 . S
C2 C3 1.439 . S
C2 H42 0.950 . S
C3 C2 1.439 . S
C3 N4 1.374 . S
C3 C37 1.395 . S
N4 C0 1.376 . S
N4 C3 1.374 . S
N4 Co5 2.008 . S
Co5 N4 2.008 . S
Co5 N6 1.995 . S
Co5 N11 2.008 . S
Co5 N16 1.995 . S
Co5 N21 2.282 . S
Co5 N27 2.282 . S
N6 Co5 1.995 . S
N6 C7 1.376 . S
N6 C10 1.383 . S
C7 N6 1.376 . S
C7 C8 1.446 . S
C7 C37 1.391 . S
C8 C7 1.446 . S
C8 C9 1.339 . S
C8 H43 0.949 . S
C9 C8 1.339 . S
C9 C10 1.439 . S
C9 H44 0.950 . S
C10 N6 1.383 . S
C10 C9 1.439 . S
C10 C39 1.392 . S
N11 Co5 2.008 . S
N11 C12 1.376 . S
N11 C15 1.374 . S
C12 N11 1.376 . S
C12 C13 1.443 . S
C12 C39 1.389 . S
C13 C12 1.443 . S
C13 C14 1.340 . S
C13 H45 0.951 . S
C14 C13 1.340 . S
C14 C15 1.439 . S
C14 H46 0.950 . S
C15 N11 1.374 . S
C15 C14 1.439 . S
C15 C40 1.395 . S
N16 Co5 1.995 . S
N16 C17 1.376 . S
N16 C20 1.383 . S
C17 N16 1.376 . S
C17 C18 1.446 . S
C17 C40 1.391 . S
C18 C17 1.446 . S
C18 C19 1.339 . S
C18 H47 0.949 . S
C19 C18 1.339 . S
C19 C20 1.439 . S
C19 H48 0.950 . S
C20 N16 1.383 . S
C20 C19 1.439 . S
C20 C38 1.392 . S
N21 Co5 2.282 . S
N21 C24 1.332 . S
N21 C26 1.332 . S
C22 C23 1.386 . S
C22 C25 1.388 . S
C23 C22 1.386 . S
C23 C24 1.382 . S
C23 H49 0.950 . S
C24 N21 1.332 . S
C24 C23 1.382 . S
C24 H35 0.952 . S
C25 C22 1.388 . S
C25 C26 1.382 . S
C25 H50 0.950 . S
C26 N21 1.332 . S
C26 C25 1.382 . S
C26 H36 0.948 . S
N27 Co5 2.282 . S
N27 C31 1.332 . S
N27 C32 1.332 . S
C28 C29 1.388 . S
C28 C32 1.382 . S
C28 H51 0.950 . S
C29 C28 1.388 . S
C29 C30 1.386 . S
C30 C29 1.386 . S
C30 C31 1.382 . S
C30 H52 0.950 . S
C31 N27 1.332 . S
C31 C30 1.382 . S
C31 H33 0.952 . S
C32 N27 1.332 . S
C32 C28 1.382 . S
C32 H34 0.948 . S
H33 C31 0.952 . S
H34 C32 0.948 . S
H35 C24 0.952 . S
H36 C26 0.948 . S
C37 C3 1.395 . S
C37 C7 1.391 . S
C38 C0 1.389 . S
C38 C20 1.392 . S
C39 C10 1.392 . S
C39 C12 1.389 . S
C40 C15 1.395 . S
C40 C17 1.391 . S
H41 C1 0.951 . S
H42 C2 0.950 . S
H43 C8 0.949 . S
H44 C9 0.950 . S
H45 C13 0.951 . S
H46 C14 0.950 . S
H47 C18 0.949 . S
H48 C19 0.950 . S
H49 C23 0.950 . S
H50 C25 0.950 . S
H51 C28 0.950 . S
H52 C30 0.950 . S
C53 C54 1.443 . S
C53 N57 1.376 . S
C53 C91 1.389 . S
C54 C53 1.443 . S
C54 C55 1.340 . S
C54 H94 0.951 . S
C55 C54 1.340 . S
C55 C56 1.439 . S
C55 H95 0.950 . S
C56 C55 1.439 . S
C56 N57 1.374 . S
C56 C90 1.395 . S
N57 C53 1.376 . S
N57 C56 1.374 . S
N57 Co58 2.008 . S
Co58 N57 2.008 . S
Co58 N59 1.995 . S
Co58 N64 2.008 . S
Co58 N69 1.995 . S
Co58 N74 2.282 . S
Co58 N80 2.282 . S
N59 Co58 1.995 . S
N59 C60 1.376 . S
N59 C63 1.383 . S
C60 N59 1.376 . S
C60 C61 1.446 . S
C60 C90 1.391 . S
C61 C60 1.446 . S
C61 C62 1.339 . S
C61 H96 0.949 . S
C62 C61 1.339 . S
C62 C63 1.439 . S
C62 H97 0.950 . S
C63 N59 1.383 . S
C63 C62 1.439 . S
C63 C92 1.392 . S
N64 Co58 2.008 . S
N64 C65 1.376 . S
N64 C68 1.374 . S
C65 N64 1.376 . S
C65 C66 1.443 . S
C65 C92 1.389 . S
C66 C65 1.443 . S
C66 C67 1.340 . S
C66 H98 0.951 . S
C67 C66 1.340 . S
C67 C68 1.439 . S
C67 H99 0.950 . S
C68 N64 1.374 . S
C68 C67 1.439 . S
C68 C93 1.395 . S
N69 Co58 1.995 . S
N69 C70 1.376 . S
N69 C73 1.383 . S
C70 N69 1.376 . S
C70 C71 1.446 . S
C70 C93 1.391 . S
C71 C70 1.446 . S
C71 C72 1.339 . S
C71 H100 0.949 . S
C72 C71 1.339 . S
C72 C73 1.439 . S
C72 H101 0.950 . S
C73 N69 1.383 . S
C73 C72 1.439 . S
C73 C91 1.392 . S
N74 Co58 2.282 . S
N74 C77 1.332 . S
N74 C79 1.332 . S
C75 C76 1.386 . S
C75 C78 1.388 . S
C76 C75 1.386 . S
C76 C77 1.382 . S
C76 H102 0.950 . S
C77 N74 1.332 . S
C77 C76 1.382 . S
C77 H88 0.952 . S
C78 C75 1.388 . S
C78 C79 1.382 . S
C78 H103 0.950 . S
C79 N74 1.332 . S
C79 C78 1.382 . S
C79 H89 0.948 . S
N80 Co58 2.282 . S
N80 C84 1.332 . S
N80 C85 1.332 . S
C81 C82 1.388 . S
C81 C85 1.382 . S
C81 H104 0.950 . S
C82 C81 1.388 . S
C82 C83 1.386 . S
C83 C82 1.386 . S
C83 C84 1.382 . S
C83 H105 0.950 . S
C84 N80 1.332 . S
C84 C83 1.382 . S
C84 H86 0.952 . S
C85 N80 1.332 . S
C85 C81 1.382 . S
C85 H87 0.948 . S
H86 C84 0.952 . S
H87 C85 0.948 . S
H88 C77 0.952 . S
H89 C79 0.948 . S
C90 C56 1.395 . S
C90 C60 1.391 . S
C91 C53 1.389 . S
C91 C73 1.392 . S
C92 C63 1.392 . S
C92 C65 1.389 . S
C93 C68 1.395 . S
C93 C70 1.391 . S
H94 C54 0.951 . S
H95 C55 0.950 . S
H96 C61 0.949 . S
H97 C62 0.950 . S
H98 C66 0.951 . S
H99 C67 0.950 . S
H100 C71 0.949 . S
H101 C72 0.950 . S
H102 C76 0.950 . S
H103 C78 0.950 . S
H104 C81 0.950 . S
H105 C83 0.950 . S
C106 C107 1.443 . S
C106 N110 1.376 . S
C106 C144 1.389 . S
C107 C106 1.443 . S
C107 C108 1.340 . S
C107 H147 0.951 . S
C108 C107 1.340 . S
C108 C109 1.439 . S
C108 H148 0.950 . S
C109 C108 1.439 . S
C109 N110 1.374 . S
C109 C143 1.395 . S
N110 C106 1.376 . S
N110 C109 1.374 . S
N110 Co111 2.008 . S
Co111 N110 2.008 . S
Co111 N112 1.995 . S
Co111 N117 2.008 . S
Co111 N122 1.995 . S
Co111 N127 2.282 . S
Co111 N133 2.282 . S
N112 Co111 1.995 . S
N112 C113 1.376 . S
N112 C116 1.383 . S
C113 N112 1.376 . S
C113 C114 1.446 . S
C113 C143 1.391 . S
C114 C113 1.446 . S
C114 C115 1.339 . S
C114 H149 0.949 . S
C115 C114 1.339 . S
C115 C116 1.439 . S
C115 H150 0.950 . S
C116 N112 1.383 . S
C116 C115 1.439 . S
C116 C145 1.392 . S
N117 Co111 2.008 . S
N117 C118 1.376 . S
N117 C121 1.374 . S
C118 N117 1.376 . S
C118 C119 1.443 . S
C118 C145 1.389 . S
C119 C118 1.443 . S
C119 C120 1.340 . S
C119 H151 0.951 . S
C120 C119 1.340 . S
C120 C121 1.439 . S
C120 H152 0.950 . S
C121 N117 1.374 . S
C121 C120 1.439 . S
C121 C146 1.395 . S
N122 Co111 1.995 . S
N122 C123 1.376 . S
N122 C126 1.383 . S
C123 N122 1.376 . S
C123 C124 1.446 . S
C123 C146 1.391 . S
C124 C123 1.446 . S
C124 C125 1.339 . S
C124 H153 0.949 . S
C125 C124 1.339 . S
C125 C126 1.439 . S
C125 H154 0.950 . S
C126 N122 1.383 . S
C126 C125 1.439 . S
C126 C144 1.392 . S
N127 Co111 2.282 . S
N127 C130 1.332 . S
N127 C132 1.332 . S
C128 C129 1.386 . S
C128 C131 1.388 . S
C129 C128 1.386 . S
C129 C130 1.382 . S
C129 H155 0.950 . S
C130 N127 1.332 . S
C130 C129 1.382 . S
C130 H141 0.952 . S
C131 C128 1.388 . S
C131 C132 1.382 . S
C131 H156 0.950 . S
C132 N127 1.332 . S
C132 C131 1.382 . S
C132 H142 0.948 . S
N133 Co111 2.282 . S
N133 C137 1.332 . S
N133 C138 1.332 . S
C134 C135 1.388 . S
C134 C138 1.382 . S
C134 H157 0.950 . S
C135 C134 1.388 . S
C135 C136 1.386 . S
C136 C135 1.386 . S
C136 C137 1.382 . S
C136 H158 0.950 . S
C137 N133 1.332 . S
C137 C136 1.382 . S
C137 H139 0.952 . S
C138 N133 1.332 . S
C138 C134 1.382 . S
C138 H140 0.948 . S
H139 C137 0.952 . S
H140 C138 0.948 . S
H141 C130 0.952 . S
H142 C132 0.948 . S
C143 C109 1.395 . S
C143 C113 1.391 . S
C144 C106 1.389 . S
C144 C126 1.392 . S
C145 C116 1.392 . S
C145 C118 1.389 . S
C146 C121 1.395 . S
C146 C123 1.391 . S
H147 C107 0.951 . S
H148 C108 0.950 . S
H149 C114 0.949 . S
H150 C115 0.950 . S
H151 C119 0.951 . S
H152 C120 0.950 . S
H153 C124 0.949 . S
H154 C125 0.950 . S
H155 C129 0.950 . S
H156 C131 0.950 . S
H157 C134 0.950 . S
H158 C136 0.950 . S
C159 C160 1.443 . S
C159 N163 1.376 . S
C159 C197 1.389 . S
C160 C159 1.443 . S
C160 C161 1.340 . S
C160 H200 0.951 . S
C161 C160 1.340 . S
C161 C162 1.439 . S
C161 H201 0.950 . S
C162 C161 1.439 . S
C162 N163 1.374 . S
C162 C196 1.395 . S
N163 C159 1.376 . S
N163 C162 1.374 . S
N163 Co164 2.008 . S
Co164 N163 2.008 . S
Co164 N165 1.995 . S
Co164 N170 2.008 . S
Co164 N175 1.995 . S
Co164 N180 2.282 . S
Co164 N186 2.282 . S
N165 Co164 1.995 . S
N165 C166 1.376 . S
N165 C169 1.383 . S
C166 N165 1.376 . S
C166 C167 1.446 1_556 S
C166 C196 1.391 . S
C167 C166 1.446 1_554 S
C167 C168 1.339 . S
C167 H202 0.949 . S
C168 C167 1.339 . S
C168 C169 1.439 1_554 S
C168 H203 0.950 . S
C169 N165 1.383 . S
C169 C168 1.439 1_556 S
C169 C198 1.392 . S
N170 Co164 2.008 . S
N170 C171 1.376 . S
N170 C174 1.374 . S
C171 N170 1.376 . S
C171 C172 1.443 . S
C171 C198 1.389 . S
C172 C171 1.443 . S
C172 C173 1.340 . S
C172 H204 0.951 . S
C173 C172 1.340 . S
C173 C174 1.439 . S
C173 H205 0.950 . S
C174 N170 1.374 . S
C174 C173 1.439 . S
C174 C199 1.395 . S
N175 Co164 1.995 . S
N175 C176 1.376 . S
N175 C179 1.383 . S
C176 N175 1.376 . S
C176 C177 1.446 . S
C176 C199 1.391 . S
C177 C176 1.446 . S
C177 C178 1.339 . S
C177 H206 0.949 . S
C178 C177 1.339 . S
C178 C179 1.439 . S
C178 H207 0.950 . S
C179 N175 1.383 . S
C179 C178 1.439 . S
C179 C197 1.392 . S
N180 Co164 2.282 . S
N180 C183 1.332 . S
N180 C185 1.332 . S
C181 C182 1.386 . S
C181 C184 1.388 . S
C182 C181 1.386 . S
C182 C183 1.382 . S
C182 H208 0.950 . S
C183 N180 1.332 . S
C183 C182 1.382 . S
C183 H194 0.952 . S
C184 C181 1.388 . S
C184 C185 1.382 . S
C184 H209 0.950 . S
C185 N180 1.332 . S
C185 C184 1.382 . S
C185 H195 0.948 . S
N186 Co164 2.282 . S
N186 C190 1.332 . S
N186 C191 1.332 . S
C187 C188 1.388 . S
C187 C191 1.382 . S
C187 H210 0.950 . S
C188 C187 1.388 . S
C188 C189 1.386 . S
C189 C188 1.386 . S
C189 C190 1.382 . S
C189 H211 0.950 . S
C190 N186 1.332 . S
C190 C189 1.382 . S
C190 H192 0.952 . S
C191 N186 1.332 . S
C191 C187 1.382 . S
C191 H193 0.948 . S
H192 C190 0.952 . S
H193 C191 0.948 . S
H194 C183 0.952 . S
H195 C185 0.948 . S
C196 C162 1.395 . S
C196 C166 1.391 . S
C197 C159 1.389 . S
C197 C179 1.392 . S
C198 C169 1.392 . S
C198 C171 1.389 . S
C199 C174 1.395 . S
C199 C176 1.391 . S
H200 C160 0.951 . S
H201 C161 0.950 . S
H202 C167 0.949 . S
H203 C168 0.950 . S
H204 C172 0.951 . S
H205 C173 0.950 . S
H206 C177 0.949 . S
H207 C178 0.950 . S
H208 C182 0.950 . S
H209 C184 0.950 . S
H210 C187 0.950 . S
H211 C189 0.950 . S
C212 C213 1.443 . S
C212 N216 1.376 . S
C212 C250 1.389 . S
C213 C212 1.443 . S
C213 C214 1.340 . S
C213 H253 0.951 . S
C214 C213 1.340 . S
C214 C215 1.439 . S
C214 H254 0.950 . S
C215 C214 1.439 . S
C215 N216 1.374 . S
C215 C249 1.395 . S
N216 C212 1.376 . S
N216 C215 1.374 . S
N216 Co217 2.008 . S
Co217 N216 2.008 . S
Co217 N218 1.995 . S
Co217 N223 2.008 . S
Co217 N228 1.995 . S
Co217 N233 2.282 . S
Co217 N239 2.282 . S
N218 Co217 1.995 . S
N218 C219 1.376 . S
N218 C222 1.383 . S
C219 N218 1.376 . S
C219 C220 1.446 . S
C219 C249 1.391 . S
C220 C219 1.446 . S
C220 C221 1.339 . S
C220 H255 0.949 . S
C221 C220 1.339 . S
C221 C222 1.439 . S
C221 H256 0.950 . S
C222 N218 1.383 . S
C222 C221 1.439 . S
C222 C251 1.392 . S
N223 Co217 2.008 . S
N223 C224 1.376 . S
N223 C227 1.374 . S
C224 N223 1.376 . S
C224 C225 1.443 . S
C224 C251 1.389 . S
C225 C224 1.443 . S
C225 C226 1.340 . S
C225 H257 0.951 . S
C226 C225 1.340 . S
C226 C227 1.439 . S
C226 H258 0.950 . S
C227 N223 1.374 . S
C227 C226 1.439 . S
C227 C252 1.395 . S
N228 Co217 1.995 . S
N228 C229 1.376 . S
N228 C232 1.384 1_554 S
C229 N228 1.376 . S
C229 C230 1.446 1_554 S
C229 C252 1.391 . S
C230 C229 1.446 1_556 S
C230 C231 1.339 . S
C230 H259 0.949 . S
C231 C230 1.339 . S
C231 C232 1.437 . S
C231 H260 0.950 . S
C232 N228 1.384 1_556 S
C232 C231 1.437 . S
C232 C250 1.392 1_556 S
N233 Co217 2.282 . S
N233 C236 1.332 . S
N233 C238 1.332 . S
C234 C235 1.386 . S
C234 C237 1.388 . S
C235 C234 1.386 . S
C235 C236 1.382 . S
C235 H261 0.950 . S
C236 N233 1.332 . S
C236 C235 1.382 . S
C236 H247 0.952 . S
C237 C234 1.388 . S
C237 C238 1.382 . S
C237 H262 0.950 . S
C238 N233 1.332 . S
C238 C237 1.382 . S
C238 H248 0.948 . S
N239 Co217 2.282 . S
N239 C243 1.332 . S
N239 C244 1.332 . S
C240 C241 1.388 . S
C240 C244 1.382 . S
C240 H263 0.950 . S
C241 C240 1.388 . S
C241 C242 1.386 . S
C242 C241 1.386 . S
C242 C243 1.382 . S
C242 H264 0.950 . S
C243 N239 1.332 . S
C243 C242 1.382 . S
C243 H245 0.952 . S
C244 N239 1.332 . S
C244 C240 1.382 . S
C244 H246 0.948 . S
H245 C243 0.952 . S
H246 C244 0.948 . S
H247 C236 0.952 . S
H248 C238 0.948 . S
C249 C215 1.395 . S
C249 C219 1.391 . S
C250 C212 1.389 . S
C250 C232 1.392 1_554 S
C251 C222 1.392 . S
C251 C224 1.389 . S
C252 C227 1.395 . S
C252 C229 1.391 . S
H253 C213 0.951 . S
H254 C214 0.950 . S
H255 C220 0.949 . S
H256 C221 0.950 . S
H257 C225 0.951 . S
H258 C226 0.950 . S
H259 C230 0.949 . S
H260 C231 0.950 . S
H261 C235 0.950 . S
H262 C237 0.950 . S
H263 C240 0.950 . S
H264 C242 0.950 . S
C265 C266 1.443 . S
C265 N269 1.376 . S
C265 C303 1.389 . S
C266 C265 1.443 . S
C266 C267 1.340 . S
C266 H306 0.951 . S
C267 C266 1.340 . S
C267 C268 1.439 . S
C267 H307 0.950 . S
C268 C267 1.439 . S
C268 N269 1.374 . S
C268 C302 1.395 . S
N269 C265 1.376 . S
N269 C268 1.374 . S
N269 Co270 2.008 . S
Co270 N269 2.008 . S
Co270 N271 1.995 . S
Co270 N276 2.008 . S
Co270 N281 1.995 . S
Co270 N286 2.282 . S
Co270 N292 2.282 . S
N271 Co270 1.995 . S
N271 C272 1.376 . S
N271 C275 1.383 . S
C272 N271 1.376 . S
C272 C273 1.446 . S
C272 C302 1.391 . S
C273 C272 1.446 . S
C273 C274 1.339 . S
C273 H308 0.949 . S
C274 C273 1.339 . S
C274 C275 1.439 . S
C274 H309 0.950 . S
C275 N271 1.383 . S
C275 C274 1.439 . S
C275 C304 1.392 . S
N276 Co270 2.008 . S
N276 C277 1.376 . S
N276 C280 1.374 . S
C277 N276 1.376 . S
C277 C278 1.443 . S
C277 C304 1.389 . S
C278 C277 1.443 . S
C278 C279 1.340 . S
C278 H310 0.951 . S
C279 C278 1.340 . S
C279 C280 1.439 . S
C279 H311 0.950 . S
C280 N276 1.374 . S
C280 C279 1.439 . S
C280 C305 1.395 . S
N281 Co270 1.995 . S
N281 C282 1.376 . S
N281 C285 1.383 . S
C282 N281 1.376 . S
C282 C283 1.446 . S
C282 C305 1.391 . S
C283 C282 1.446 . S
C283 C284 1.339 . S
C283 H312 0.949 . S
C284 C283 1.339 . S
C284 C285 1.439 . S
C284 H313 0.950 . S
C285 N281 1.383 . S
C285 C284 1.439 . S
C285 C303 1.392 . S
N286 Co270 2.282 . S
N286 C289 1.332 . S
N286 C291 1.332 . S
C287 C288 1.386 . S
C287 C290 1.388 . S
C288 C287 1.386 . S
C288 C289 1.382 . S
C288 H314 0.950 . S
C289 N286 1.332 . S
C289 C288 1.382 . S
C289 H300 0.952 . S
C290 C287 1.388 . S
C290 C291 1.382 . S
C290 H315 0.950 . S
C291 N286 1.332 . S
C291 C290 1.382 . S
C291 H301 0.948 . S
N292 Co270 2.282 . S
N292 C296 1.332 . S
N292 C297 1.332 . S
C293 C294 1.388 . S
C293 C297 1.382 . S
C293 H316 0.950 . S
C294 C293 1.388 . S
C294 C295 1.386 . S
C295 C294 1.386 . S
C295 C296 1.382 . S
C295 H317 0.950 . S
C296 N292 1.332 . S
C296 C295 1.382 . S
C296 H298 0.952 . S
C297 N292 1.332 . S
C297 C293 1.382 . S
C297 H299 0.948 . S
H298 C296 0.952 . S
H299 C297 0.948 . S
H300 C289 0.952 . S
H301 C291 0.948 . S
C302 C268 1.395 . S
C302 C272 1.391 . S
C303 C265 1.389 . S
C303 C285 1.392 . S
C304 C275 1.392 . S
C304 C277 1.389 . S
C305 C280 1.395 . S
C305 C282 1.391 . S
H306 C266 0.951 . S
H307 C267 0.950 . S
H308 C273 0.949 . S
H309 C274 0.950 . S
H310 C278 0.951 . S
H311 C279 0.950 . S
H312 C283 0.949 . S
H313 C284 0.950 . S
H314 C288 0.950 . S
H315 C290 0.950 . S
H316 C293 0.950 . S
H317 C295 0.950 . S
C318 C319 1.443 . S
C318 N322 1.376 . S
C318 C356 1.389 . S
C319 C318 1.443 . S
C319 C320 1.340 . S
C319 H359 0.951 . S
C320 C319 1.340 . S
C320 C321 1.439 . S
C320 H360 0.950 . S
C321 C320 1.439 . S
C321 N322 1.374 . S
C321 C355 1.395 . S
N322 C318 1.376 . S
N322 C321 1.374 . S
N322 Co323 2.008 . S
Co323 N322 2.008 . S
Co323 N324 1.995 . S
Co323 N329 2.008 . S
Co323 N334 1.995 . S
Co323 N339 2.282 . S
Co323 N345 2.282 . S
N324 Co323 1.995 . S
N324 C325 1.376 . S
N324 C328 1.383 . S
C325 N324 1.376 . S
C325 C326 1.446 . S
C325 C355 1.391 . S
C326 C325 1.446 . S
C326 C327 1.339 . S
C326 H361 0.949 . S
C327 C326 1.339 . S
C327 C328 1.439 . S
C327 H362 0.950 . S
C328 N324 1.383 . S
C328 C327 1.439 . S
C328 C357 1.392 . S
N329 Co323 2.008 . S
N329 C330 1.376 . S
N329 C333 1.374 . S
C330 N329 1.376 . S
C330 C331 1.443 . S
C330 C357 1.389 . S
C331 C330 1.443 . S
C331 C332 1.340 . S
C331 H363 0.951 . S
C332 C331 1.340 . S
C332 C333 1.439 . S
C332 H364 0.950 . S
C333 N329 1.374 . S
C333 C332 1.439 . S
C333 C358 1.395 . S
N334 Co323 1.995 . S
N334 C335 1.376 . S
N334 C338 1.383 . S
C335 N334 1.376 . S
C335 C336 1.446 . S
C335 C358 1.391 . S
C336 C335 1.446 . S
C336 C337 1.339 . S
C336 H365 0.949 . S
C337 C336 1.339 . S
C337 C338 1.439 . S
C337 H366 0.950 . S
C338 N334 1.383 . S
C338 C337 1.439 . S
C338 C356 1.392 . S
N339 Co323 2.282 . S
N339 C342 1.332 . S
N339 C344 1.332 . S
C340 C341 1.386 . S
C340 C343 1.388 . S
C341 C340 1.386 . S
C341 C342 1.382 . S
C341 H367 0.950 . S
C342 N339 1.332 . S
C342 C341 1.382 . S
C342 H353 0.952 . S
C343 C340 1.388 . S
C343 C344 1.382 . S
C343 H368 0.950 . S
C344 N339 1.332 . S
C344 C343 1.382 . S
C344 H354 0.948 . S
N345 Co323 2.282 . S
N345 C349 1.332 . S
N345 C350 1.332 . S
C346 C347 1.388 . S
C346 C350 1.382 . S
C346 H369 0.950 . S
C347 C346 1.388 . S
C347 C348 1.386 . S
C348 C347 1.386 . S
C348 C349 1.382 . S
C348 H370 0.950 . S
C349 N345 1.332 . S
C349 C348 1.382 . S
C349 H351 0.952 . S
C350 N345 1.332 . S
C350 C346 1.382 . S
C350 H352 0.948 . S
H351 C349 0.952 . S
H352 C350 0.948 . S
H353 C342 0.952 . S
H354 C344 0.948 . S
C355 C321 1.395 . S
C355 C325 1.391 . S
C356 C318 1.389 . S
C356 C338 1.392 . S
C357 C328 1.392 . S
C357 C330 1.389 . S
C358 C333 1.395 . S
C358 C335 1.391 . S
H359 C319 0.951 . S
H360 C320 0.950 . S
H361 C326 0.949 . S
H362 C327 0.950 . S
H363 C331 0.951 . S
H364 C332 0.950 . S
H365 C336 0.949 . S
H366 C337 0.950 . S
H367 C341 0.950 . S
H368 C343 0.950 . S
H369 C346 0.950 . S
H370 C348 0.950 . S
C371 C372 1.443 . S
C371 N375 1.376 . S
C371 C409 1.389 . S
C372 C371 1.443 . S
C372 C373 1.340 . S
C372 H412 0.951 . S
C373 C372 1.340 . S
C373 C374 1.439 . S
C373 H413 0.950 . S
C374 C373 1.439 . S
C374 N375 1.374 . S
C374 C408 1.395 . S
N375 C371 1.376 . S
N375 C374 1.374 . S
N375 Co376 2.008 . S
Co376 N375 2.008 . S
Co376 N377 1.995 . S
Co376 N382 2.008 . S
Co376 N387 1.995 . S
Co376 N392 2.282 . S
Co376 N398 2.282 . S
N377 Co376 1.995 . S
N377 C378 1.376 . S
N377 C381 1.383 . S
C378 N377 1.376 . S
C378 C379 1.446 . S
C378 C408 1.391 . S
C379 C378 1.446 . S
C379 C380 1.339 . S
C379 H414 0.949 . S
C380 C379 1.339 . S
C380 C381 1.439 . S
C380 H415 0.950 . S
C381 N377 1.383 . S
C381 C380 1.439 . S
C381 C410 1.392 . S
N382 Co376 2.008 . S
N382 C383 1.376 . S
N382 C386 1.374 . S
C383 N382 1.376 . S
C383 C384 1.443 . S
C383 C410 1.389 . S
C384 C383 1.443 . S
C384 C385 1.340 . S
C384 H416 0.951 . S
C385 C384 1.340 . S
C385 C386 1.439 . S
C385 H417 0.950 . S
C386 N382 1.374 . S
C386 C385 1.439 . S
C386 C411 1.395 . S
N387 Co376 1.995 . S
N387 C388 1.376 . S
N387 C391 1.383 . S
C388 N387 1.376 . S
C388 C389 1.446 . S
C388 C411 1.391 . S
C389 C388 1.446 . S
C389 C390 1.339 . S
C389 H418 0.949 . S
C390 C389 1.339 . S
C390 C391 1.439 . S
C390 H419 0.950 . S
C391 N387 1.383 . S
C391 C390 1.439 . S
C391 C409 1.392 . S
N392 Co376 2.282 . S
N392 C395 1.332 . S
N392 C397 1.332 . S
C393 C394 1.386 . S
C393 C396 1.388 . S
C394 C393 1.386 . S
C394 C395 1.382 . S
C394 H420 0.950 . S
C395 N392 1.332 . S
C395 C394 1.382 . S
C395 H406 0.952 . S
C396 C393 1.388 . S
C396 C397 1.382 . S
C396 H421 0.950 . S
C397 N392 1.332 . S
C397 C396 1.382 . S
C397 H407 0.948 . S
N398 Co376 2.282 . S
N398 C402 1.332 . S
N398 C403 1.332 . S
C399 C400 1.388 . S
C399 C403 1.382 . S
C399 H422 0.950 . S
C400 C399 1.388 . S
C400 C401 1.386 . S
C401 C400 1.386 . S
C401 C402 1.382 . S
C401 H423 0.950 . S
C402 N398 1.332 . S
C402 C401 1.382 . S
C402 H404 0.952 . S
C403 N398 1.332 . S
C403 C399 1.382 . S
C403 H405 0.948 . S
H404 C402 0.952 . S
H405 C403 0.948 . S
H406 C395 0.952 . S
H407 C397 0.948 . S
C408 C374 1.395 . S
C408 C378 1.391 . S
C409 C371 1.389 . S
C409 C391 1.392 . S
C410 C381 1.392 . S
C410 C383 1.389 . S
C411 C386 1.395 . S
C411 C388 1.391 . S
H412 C372 0.951 . S
H413 C373 0.950 . S
H414 C379 0.949 . S
H415 C380 0.950 . S
H416 C384 0.951 . S
H417 C385 0.950 . S
H418 C389 0.949 . S
H419 C390 0.950 . S
H420 C394 0.950 . S
H421 C396 0.950 . S
H422 C399 0.950 . S
H423 C401 0.950 . S
C424 C425 1.443 . S
C424 N428 1.376 . S
C424 C462 1.389 . S
C425 C424 1.443 . S
C425 C426 1.340 . S
C425 H465 0.951 . S
C426 C425 1.340 . S
C426 C427 1.439 . S
C426 H466 0.950 . S
C427 C426 1.439 . S
C427 N428 1.374 . S
C427 C461 1.395 . S
N428 C424 1.376 . S
N428 C427 1.374 . S
N428 Co429 2.008 . S
Co429 N428 2.008 . S
Co429 N430 1.995 . S
Co429 N435 2.008 . S
Co429 N440 1.995 . S
Co429 N445 2.282 . S
Co429 N451 2.282 . S
N430 Co429 1.995 . S
N430 C431 1.376 . S
N430 C434 1.383 . S
C431 N430 1.376 . S
C431 C432 1.446 . S
C431 C461 1.391 . S
C432 C431 1.446 . S
C432 C433 1.339 . S
C432 H467 0.949 . S
C433 C432 1.339 . S
C433 C434 1.439 . S
C433 H468 0.950 . S
C434 N430 1.383 . S
C434 C433 1.439 . S
C434 C463 1.392 . S
N435 Co429 2.008 . S
N435 C436 1.376 . S
N435 C439 1.374 . S
C436 N435 1.376 . S
C436 C437 1.443 . S
C436 C463 1.389 . S
C437 C436 1.443 . S
C437 C438 1.340 . S
C437 H469 0.951 . S
C438 C437 1.340 . S
C438 C439 1.439 . S
C438 H470 0.950 . S
C439 N435 1.374 . S
C439 C438 1.439 . S
C439 C464 1.395 . S
N440 Co429 1.995 . S
N440 C441 1.376 . S
N440 C444 1.383 . S
C441 N440 1.376 . S
C441 C442 1.446 . S
C441 C464 1.391 . S
C442 C441 1.446 . S
C442 C443 1.339 . S
C442 H471 0.949 . S
C443 C442 1.339 . S
C443 C444 1.439 . S
C443 H472 0.950 . S
C444 N440 1.383 . S
C444 C443 1.439 . S
C444 C462 1.392 . S
N445 Co429 2.282 . S
N445 C448 1.332 . S
N445 C450 1.332 . S
C446 C447 1.386 . S
C446 C449 1.388 . S
C447 C446 1.386 . S
C447 C448 1.382 . S
C447 H473 0.950 . S
C448 N445 1.332 . S
C448 C447 1.382 . S
C448 H459 0.952 . S
C449 C446 1.388 . S
C449 C450 1.382 . S
C449 H474 0.950 . S
C450 N445 1.332 . S
C450 C449 1.382 . S
C450 H460 0.948 . S
N451 Co429 2.282 . S
N451 C455 1.332 . S
N451 C456 1.332 . S
C452 C453 1.388 . S
C452 C456 1.382 . S
C452 H475 0.950 . S
C453 C452 1.388 . S
C453 C454 1.386 . S
C454 C453 1.386 . S
C454 C455 1.382 . S
C454 H476 0.950 . S
C455 N451 1.332 . S
C455 C454 1.382 . S
C455 H457 0.952 . S
C456 N451 1.332 . S
C456 C452 1.382 . S
C456 H458 0.948 . S
H457 C455 0.952 . S
H458 C456 0.948 . S
H459 C448 0.952 . S
H460 C450 0.948 . S
C461 C427 1.395 . S
C461 C431 1.391 . S
C462 C424 1.389 . S
C462 C444 1.392 . S
C463 C434 1.392 . S
C463 C436 1.389 . S
C464 C439 1.395 . S
C464 C441 1.391 . S
H465 C425 0.951 . S
H466 C426 0.950 . S
H467 C432 0.949 . S
H468 C433 0.950 . S
H469 C437 0.951 . S
H470 C438 0.950 . S
H471 C442 0.949 . S
H472 C443 0.950 . S
H473 C447 0.950 . S
H474 C449 0.950 . S
H475 C452 0.950 . S
H476 C454 0.950 . S
C477 C478 1.443 . S
C477 N481 1.376 . S
C477 C515 1.389 . S
C478 C477 1.443 . S
C478 C479 1.340 . S
C478 H518 0.951 . S
C479 C478 1.340 . S
C479 C480 1.439 . S
C479 H519 0.950 . S
C480 C479 1.439 . S
C480 N481 1.374 . S
C480 C514 1.395 . S
N481 C477 1.376 . S
N481 C480 1.374 . S
N481 Co482 2.008 . S
Co482 N481 2.008 . S
Co482 N483 1.995 . S
Co482 N488 2.008 . S
Co482 N493 1.995 . S
Co482 N498 2.282 . S
Co482 N504 2.282 . S
N483 Co482 1.995 . S
N483 C484 1.376 . S
N483 C487 1.383 . S
C484 N483 1.376 . S
C484 C485 1.446 . S
C484 C514 1.391 . S
C485 C484 1.446 . S
C485 C486 1.339 . S
C485 H520 0.949 . S
C486 C485 1.339 . S
C486 C487 1.439 . S
C486 H521 0.950 . S
C487 N483 1.383 . S
C487 C486 1.439 . S
C487 C516 1.392 . S
N488 Co482 2.008 . S
N488 C489 1.376 . S
N488 C492 1.374 . S
C489 N488 1.376 . S
C489 C490 1.443 . S
C489 C516 1.389 . S
C490 C489 1.443 . S
C490 C491 1.340 . S
C490 H522 0.951 . S
C491 C490 1.340 . S
C491 C492 1.439 . S
C491 H523 0.950 . S
C492 N488 1.374 . S
C492 C491 1.439 . S
C492 C517 1.395 . S
N493 Co482 1.995 . S
N493 C494 1.376 . S
N493 C497 1.384 1_556 S
C494 N493 1.376 . S
C494 C495 1.446 1_556 S
C494 C517 1.391 . S
C495 C494 1.446 1_554 S
C495 C496 1.339 . S
C495 H524 0.949 . S
C496 C495 1.339 . S
C496 C497 1.438 . S
C496 H525 0.950 . S
C497 N493 1.384 1_554 S
C497 C496 1.438 . S
C497 C515 1.392 1_554 S
N498 Co482 2.282 . S
N498 C501 1.332 . S
N498 C503 1.332 . S
C499 C500 1.386 . S
C499 C502 1.388 . S
C500 C499 1.386 . S
C500 C501 1.382 . S
C500 H526 0.950 . S
C501 N498 1.332 . S
C501 C500 1.382 . S
C501 H512 0.952 . S
C502 C499 1.388 . S
C502 C503 1.382 . S
C502 H527 0.950 . S
C503 N498 1.332 . S
C503 C502 1.382 . S
C503 H513 0.948 . S
N504 Co482 2.282 . S
N504 C508 1.332 . S
N504 C509 1.332 . S
C505 C506 1.388 . S
C505 C509 1.382 . S
C505 H528 0.950 . S
C506 C505 1.388 . S
C506 C507 1.386 . S
C507 C506 1.386 . S
C507 C508 1.382 . S
C507 H529 0.950 . S
C508 N504 1.332 . S
C508 C507 1.382 . S
C508 H510 0.952 . S
C509 N504 1.332 . S
C509 C505 1.382 . S
C509 H511 0.948 . S
H510 C508 0.952 . S
H511 C509 0.948 . S
H512 C501 0.952 . S
H513 C503 0.948 . S
C514 C480 1.395 . S
C514 C484 1.391 . S
C515 C477 1.389 . S
C515 C497 1.392 1_556 S
C516 C487 1.392 . S
C516 C489 1.389 . S
C517 C492 1.395 . S
C517 C494 1.391 . S
H518 C478 0.951 . S
H519 C479 0.950 . S
H520 C485 0.949 . S
H521 C486 0.950 . S
H522 C490 0.951 . S
H523 C491 0.950 . S
H524 C495 0.949 . S
H525 C496 0.950 . S
H526 C500 0.950 . S
H527 C502 0.950 . S
H528 C505 0.950 . S
H529 C507 0.950 . S
C530 C531 1.443 . S
C530 N534 1.376 . S
C530 C568 1.389 . S
C531 C530 1.443 . S
C531 C532 1.340 . S
C531 H571 0.951 . S
C532 C531 1.340 . S
C532 C533 1.439 . S
C532 H572 0.950 . S
C533 C532 1.439 . S
C533 N534 1.374 . S
C533 C567 1.395 . S
N534 C530 1.376 . S
N534 C533 1.374 . S
N534 Co535 2.008 . S
Co535 N534 2.008 . S
Co535 N536 1.995 . S
Co535 N541 2.008 . S
Co535 N546 1.995 . S
Co535 N551 2.282 . S
Co535 N557 2.282 . S
N536 Co535 1.995 . S
N536 C537 1.376 . S
N536 C540 1.383 . S
C537 N536 1.376 . S
C537 C538 1.446 1_554 S
C537 C567 1.391 . S
C538 C537 1.446 1_556 S
C538 C539 1.339 . S
C538 H573 0.949 . S
C539 C538 1.339 . S
C539 C540 1.439 1_556 S
C539 H574 0.950 . S
C540 N536 1.383 . S
C540 C539 1.439 1_554 S
C540 C569 1.392 . S
N541 Co535 2.008 . S
N541 C542 1.376 . S
N541 C545 1.374 . S
C542 N541 1.376 . S
C542 C543 1.443 . S
C542 C569 1.389 . S
C543 C542 1.443 . S
C543 C544 1.340 . S
C543 H575 0.951 . S
C544 C543 1.340 . S
C544 C545 1.439 . S
C544 H576 0.950 . S
C545 N541 1.374 . S
C545 C544 1.439 . S
C545 C570 1.395 . S
N546 Co535 1.995 . S
N546 C547 1.376 . S
N546 C550 1.383 . S
C547 N546 1.376 . S
C547 C548 1.446 . S
C547 C570 1.391 . S
C548 C547 1.446 . S
C548 C549 1.339 . S
C548 H577 0.949 . S
C549 C548 1.339 . S
C549 C550 1.439 . S
C549 H578 0.950 . S
C550 N546 1.383 . S
C550 C549 1.439 . S
C550 C568 1.392 . S
N551 Co535 2.282 . S
N551 C554 1.332 . S
N551 C556 1.332 . S
C552 C553 1.386 . S
C552 C555 1.388 . S
C553 C552 1.386 . S
C553 C554 1.382 . S
C553 H579 0.950 . S
C554 N551 1.332 . S
C554 C553 1.382 . S
C554 H565 0.952 . S
C555 C552 1.388 . S
C555 C556 1.382 . S
C555 H580 0.950 . S
C556 N551 1.332 . S
C556 C555 1.382 . S
C556 H566 0.948 . S
N557 Co535 2.282 . S
N557 C561 1.332 . S
N557 C562 1.332 . S
C558 C559 1.388 . S
C558 C562 1.382 . S
C558 H581 0.950 . S
C559 C558 1.388 . S
C559 C560 1.386 . S
C560 C559 1.386 . S
C560 C561 1.382 . S
C560 H582 0.950 . S
C561 N557 1.332 . S
C561 C560 1.382 . S
C561 H563 0.952 . S
C562 N557 1.332 . S
C562 C558 1.382 . S
C562 H564 0.948 . S
H563 C561 0.952 . S
H564 C562 0.948 . S
H565 C554 0.952 . S
H566 C556 0.948 . S
C567 C533 1.395 . S
C567 C537 1.391 . S
C568 C530 1.389 . S
C568 C550 1.392 . S
C569 C540 1.392 . S
C569 C542 1.389 . S
C570 C545 1.395 . S
C570 C547 1.391 . S
H571 C531 0.951 . S
H572 C532 0.950 . S
H573 C538 0.949 . S
H574 C539 0.950 . S
H575 C543 0.951 . S
H576 C544 0.950 . S
H577 C548 0.949 . S
H578 C549 0.950 . S
H579 C553 0.950 . S
H580 C555 0.950 . S
H581 C558 0.950 . S
H582 C560 0.950 . S
C583 C584 1.443 . S
C583 N587 1.376 . S
C583 C621 1.389 . S
C584 C583 1.443 . S
C584 C585 1.340 . S
C584 H624 0.951 . S
C585 C584 1.340 . S
C585 C586 1.439 . S
C585 H625 0.950 . S
C586 C585 1.439 . S
C586 N587 1.374 . S
C586 C620 1.395 . S
N587 C583 1.376 . S
N587 C586 1.374 . S
N587 Co588 2.008 . S
Co588 N587 2.008 . S
Co588 N589 1.995 . S
Co588 N594 2.008 . S
Co588 N599 1.995 . S
Co588 N604 2.282 . S
Co588 N610 2.282 . S
N589 Co588 1.995 . S
N589 C590 1.376 . S
N589 C593 1.383 . S
C590 N589 1.376 . S
C590 C591 1.446 . S
C590 C620 1.391 . S
C591 C590 1.446 . S
C591 C592 1.339 . S
C591 H626 0.949 . S
C592 C591 1.339 . S
C592 C593 1.439 . S
C592 H627 0.950 . S
C593 N589 1.383 . S
C593 C592 1.439 . S
C593 C622 1.392 . S
N594 Co588 2.008 . S
N594 C595 1.376 . S
N594 C598 1.374 . S
C595 N594 1.376 . S
C595 C596 1.443 . S
C595 C622 1.389 . S
C596 C595 1.443 . S
C596 C597 1.340 . S
C596 H628 0.951 . S
C597 C596 1.340 . S
C597 C598 1.439 . S
C597 H629 0.950 . S
C598 N594 1.374 . S
C598 C597 1.439 . S
C598 C623 1.395 . S
N599 Co588 1.995 . S
N599 C600 1.376 . S
N599 C603 1.383 . S
C600 N599 1.376 . S
C600 C601 1.446 . S
C600 C623 1.391 . S
C601 C600 1.446 . S
C601 C602 1.339 . S
C601 H630 0.949 . S
C602 C601 1.339 . S
C602 C603 1.439 . S
C602 H631 0.950 . S
C603 N599 1.383 . S
C603 C602 1.439 . S
C603 C621 1.392 . S
N604 Co588 2.282 . S
N604 C607 1.332 . S
N604 C609 1.332 . S
C605 C606 1.386 . S
C605 C608 1.388 . S
C606 C605 1.386 . S
C606 C607 1.382 . S
C606 H632 0.950 . S
C607 N604 1.332 . S
C607 C606 1.382 . S
C607 H618 0.952 . S
C608 C605 1.388 . S
C608 C609 1.382 . S
C608 H633 0.950 . S
C609 N604 1.332 . S
C609 C608 1.382 . S
C609 H619 0.948 . S
N610 Co588 2.282 . S
N610 C614 1.332 . S
N610 C615 1.332 . S
C611 C612 1.388 . S
C611 C615 1.382 . S
C611 H634 0.950 . S
C612 C611 1.388 . S
C612 C613 1.386 . S
C613 C612 1.386 . S
C613 C614 1.382 . S
C613 H635 0.950 . S
C614 N610 1.332 . S
C614 C613 1.382 . S
C614 H616 0.952 . S
C615 N610 1.332 . S
C615 C611 1.382 . S
C615 H617 0.948 . S
H616 C614 0.952 . S
H617 C615 0.948 . S
H618 C607 0.952 . S
H619 C609 0.948 . S
C620 C586 1.395 . S
C620 C590 1.391 . S
C621 C583 1.389 . S
C621 C603 1.392 . S
C622 C593 1.392 . S
C622 C595 1.389 . S
C623 C598 1.395 . S
C623 C600 1.391 . S
H624 C584 0.951 . S
H625 C585 0.950 . S
H626 C591 0.949 . S
H627 C592 0.950 . S
H628 C596 0.951 . S
H629 C597 0.950 . S
H630 C601 0.949 . S
H631 C602 0.950 . S
H632 C606 0.950 . S
H633 C608 0.950 . S
H634 C611 0.950 . S
H635 C613 0.950 . S
C636 C637 1.391 . S
C636 C638 1.394 . S
C636 H652 0.931 . S
C637 C636 1.391 . S
C637 C641 1.376 . S
C638 C636 1.394 . S
C638 C639 1.369 . S
C638 C642 1.531 . S
C639 C638 1.369 . S
C639 C640 1.410 . S
C639 C647 1.503 . S
C640 C639 1.410 . S
C640 C641 1.392 . S
C640 C643 1.511 . S
C641 C637 1.376 . S
C641 C640 1.392 . S
C641 H653 0.929 . S
C642 C638 1.531 . S
C642 H654 0.960 . S
C642 H655 0.962 . S
C642 H656 0.960 . S
C643 C640 1.511 . S
C643 H657 0.961 . S
C643 H658 0.961 . S
C643 H659 0.961 . S
C644 C645 1.370 . S
C644 C646 1.363 . S
C644 H660 0.931 . S
C645 C644 1.370 . S
C645 C649 1.408 . S
C646 C644 1.363 . S
C646 C647 1.370 . S
C646 C650 1.524 . S
C647 C639 1.503 . S
C647 C646 1.370 . S
C647 C648 1.403 . S
C648 C647 1.403 . S
C648 C649 1.404 . S
C648 C651 1.539 . S
C649 C645 1.408 . S
C649 C648 1.404 . S
C649 H661 0.930 . S
C650 C646 1.524 . S
C650 H662 0.956 . S
C650 H663 0.961 . S
C650 H664 0.961 . S
C651 C648 1.539 . S
C651 H665 0.958 . S
C651 H666 0.961 . S
C651 H667 0.960 . S
H652 C636 0.931 . S
H653 C641 0.929 . S
H654 C642 0.960 . S
H655 C642 0.962 . S
H656 C642 0.960 . S
H657 C643 0.961 . S
H658 C643 0.961 . S
H659 C643 0.961 . S
H660 C644 0.931 . S
H661 C649 0.930 . S
H662 C650 0.956 . S
H663 C650 0.961 . S
H664 C650 0.961 . S
H665 C651 0.958 . S
H666 C651 0.961 . S
H667 C651 0.960 . S
C668 C669 1.391 . S
C668 C670 1.394 . S
C668 H684 0.931 . S
C669 C668 1.391 . S
C669 C673 1.376 . S
C670 C668 1.394 . S
C670 C671 1.369 . S
C670 C674 1.531 . S
C671 C670 1.369 . S
C671 C672 1.410 . S
C671 C679 1.503 . S
C672 C671 1.410 . S
C672 C673 1.392 . S
C672 C675 1.511 . S
C673 C669 1.376 . S
C673 C672 1.392 . S
C673 H685 0.929 . S
C674 C670 1.531 . S
C674 H686 0.960 . S
C674 H687 0.962 . S
C674 H688 0.960 . S
C675 C672 1.511 . S
C675 H689 0.961 . S
C675 H690 0.961 . S
C675 H691 0.961 . S
C676 C677 1.370 . S
C676 C678 1.363 . S
C676 H692 0.931 . S
C677 C676 1.370 . S
C677 C681 1.408 . S
C678 C676 1.363 . S
C678 C679 1.370 . S
C678 C682 1.524 . S
C679 C671 1.503 . S
C679 C678 1.370 . S
C679 C680 1.403 . S
C680 C679 1.403 . S
C680 C681 1.404 . S
C680 C683 1.539 . S
C681 C677 1.408 . S
C681 C680 1.404 . S
C681 H693 0.930 . S
C682 C678 1.524 . S
C682 H694 0.956 . S
C682 H695 0.961 . S
C682 H696 0.961 . S
C683 C680 1.539 . S
C683 H697 0.958 . S
C683 H698 0.961 . S
C683 H699 0.960 . S
H684 C668 0.931 . S
H685 C673 0.929 . S
H686 C674 0.960 . S
H687 C674 0.962 . S
H688 C674 0.960 . S
H689 C675 0.961 . S
H690 C675 0.961 . S
H691 C675 0.961 . S
H692 C676 0.931 . S
H693 C681 0.930 . S
H694 C682 0.956 . S
H695 C682 0.961 . S
H696 C682 0.961 . S
H697 C683 0.958 . S
H698 C683 0.961 . S
H699 C683 0.960 . S
C700 C701 1.391 . S
C700 C702 1.394 . S
C700 H716 0.931 . S
C701 C700 1.391 . S
C701 C705 1.376 . S
C702 C700 1.394 . S
C702 C703 1.369 . S
C702 C706 1.531 . S
C703 C702 1.369 . S
C703 C704 1.410 . S
C703 C711 1.503 . S
C704 C703 1.410 . S
C704 C705 1.392 . S
C704 C707 1.511 . S
C705 C701 1.376 . S
C705 C704 1.392 . S
C705 H717 0.929 . S
C706 C702 1.531 . S
C706 H718 0.960 . S
C706 H719 0.962 . S
C706 H720 0.960 . S
C707 C704 1.511 . S
C707 H721 0.961 . S
C707 H722 0.961 . S
C707 H723 0.961 . S
C708 C709 1.370 . S
C708 C710 1.363 . S
C708 H724 0.931 . S
C709 C708 1.370 . S
C709 C713 1.408 . S
C710 C708 1.363 . S
C710 C711 1.370 . S
C710 C714 1.524 . S
C711 C703 1.503 . S
C711 C710 1.370 . S
C711 C712 1.403 . S
C712 C711 1.403 . S
C712 C713 1.404 . S
C712 C715 1.539 . S
C713 C709 1.408 . S
C713 C712 1.404 . S
C713 H725 0.930 . S
C714 C710 1.524 . S
C714 H726 0.956 . S
C714 H727 0.961 . S
C714 H728 0.961 . S
C715 C712 1.539 . S
C715 H729 0.958 . S
C715 H730 0.961 . S
C715 H731 0.960 . S
H716 C700 0.931 . S
H717 C705 0.929 . S
H718 C706 0.960 . S
H719 C706 0.962 . S
H720 C706 0.960 . S
H721 C707 0.961 . S
H722 C707 0.961 . S
H723 C707 0.961 . S
H724 C708 0.931 . S
H725 C713 0.930 . S
H726 C714 0.956 . S
H727 C714 0.961 . S
H728 C714 0.961 . S
H729 C715 0.958 . S
H730 C715 0.961 . S
H731 C715 0.960 . S
C732 C733 1.391 . S
C732 C734 1.394 . S
C732 H748 0.931 . S
C733 C732 1.391 . S
C733 C737 1.376 . S
C734 C732 1.394 . S
C734 C735 1.369 . S
C734 C738 1.531 . S
C735 C734 1.369 . S
C735 C736 1.410 . S
C735 C743 1.503 . S
C736 C735 1.410 . S
C736 C737 1.392 . S
C736 C739 1.511 . S
C737 C733 1.376 . S
C737 C736 1.392 . S
C737 H749 0.929 . S
C738 C734 1.531 . S
C738 H750 0.960 . S
C738 H751 0.962 . S
C738 H752 0.960 . S
C739 C736 1.511 . S
C739 H753 0.961 . S
C739 H754 0.961 . S
C739 H755 0.961 . S
C740 C741 1.370 . S
C740 C742 1.363 . S
C740 H756 0.931 . S
C741 C740 1.370 . S
C741 C745 1.408 . S
C742 C740 1.363 . S
C742 C743 1.370 . S
C742 C746 1.524 . S
C743 C735 1.503 . S
C743 C742 1.370 . S
C743 C744 1.403 . S
C744 C743 1.403 . S
C744 C745 1.404 . S
C744 C747 1.539 . S
C745 C741 1.408 . S
C745 C744 1.404 . S
C745 H757 0.930 . S
C746 C742 1.524 . S
C746 H758 0.956 . S
C746 H759 0.961 . S
C746 H760 0.961 . S
C747 C744 1.539 . S
C747 H761 0.958 . S
C747 H762 0.961 . S
C747 H763 0.960 . S
H748 C732 0.931 . S
H749 C737 0.929 . S
H750 C738 0.960 . S
H751 C738 0.962 . S
H752 C738 0.960 . S
H753 C739 0.961 . S
H754 C739 0.961 . S
H755 C739 0.961 . S
H756 C740 0.931 . S
H757 C745 0.930 . S
H758 C746 0.956 . S
H759 C746 0.961 . S
H760 C746 0.961 . S
H761 C747 0.958 . S
H762 C747 0.961 . S
H763 C747 0.960 . S
C764 C765 1.391 . S
C764 C766 1.394 . S
C764 H780 0.931 . S
C765 C764 1.391 . S
C765 C769 1.376 . S
C766 C764 1.394 . S
C766 C767 1.369 . S
C766 C770 1.531 . S
C767 C766 1.369 . S
C767 C768 1.410 . S
C767 C775 1.503 . S
C768 C767 1.410 . S
C768 C769 1.392 . S
C768 C771 1.511 . S
C769 C765 1.376 . S
C769 C768 1.392 . S
C769 H781 0.929 . S
C770 C766 1.531 . S
C770 H782 0.960 . S
C770 H783 0.962 . S
C770 H784 0.960 . S
C771 C768 1.511 . S
C771 H785 0.961 . S
C771 H786 0.961 . S
C771 H787 0.961 . S
C772 C773 1.370 . S
C772 C774 1.363 . S
C772 H788 0.931 . S
C773 C772 1.370 . S
C773 C777 1.408 . S
C774 C772 1.363 . S
C774 C775 1.370 . S
C774 C778 1.524 . S
C775 C767 1.503 . S
C775 C774 1.370 . S
C775 C776 1.403 . S
C776 C775 1.403 . S
C776 C777 1.404 . S
C776 C779 1.539 . S
C777 C773 1.408 . S
C777 C776 1.404 . S
C777 H789 0.930 . S
C778 C774 1.524 . S
C778 H790 0.956 . S
C778 H791 0.961 . S
C778 H792 0.961 . S
C779 C776 1.539 . S
C779 H793 0.958 . S
C779 H794 0.961 . S
C779 H795 0.960 . S
H780 C764 0.931 . S
H781 C769 0.929 . S
H782 C770 0.960 . S
H783 C770 0.962 . S
H784 C770 0.960 . S
H785 C771 0.961 . S
H786 C771 0.961 . S
H787 C771 0.961 . S
H788 C772 0.931 . S
H789 C777 0.930 . S
H790 C778 0.956 . S
H791 C778 0.961 . S
H792 C778 0.961 . S
H793 C779 0.958 . S
H794 C779 0.961 . S
H795 C779 0.960 . S
C796 C797 1.391 . S
C796 C798 1.394 . S
C796 H812 0.931 . S
C797 C796 1.391 . S
C797 C801 1.376 . S
C798 C796 1.394 . S
C798 C799 1.369 . S
C798 C802 1.531 . S
C799 C798 1.369 . S
C799 C800 1.410 . S
C799 C807 1.503 . S
C800 C799 1.410 . S
C800 C801 1.392 . S
C800 C803 1.511 . S
C801 C797 1.376 . S
C801 C800 1.392 . S
C801 H813 0.929 . S
C802 C798 1.531 . S
C802 H814 0.960 . S
C802 H815 0.962 . S
C802 H816 0.960 . S
C803 C800 1.511 . S
C803 H817 0.961 . S
C803 H818 0.961 . S
C803 H819 0.961 . S
C804 C805 1.370 . S
C804 C806 1.363 . S
C804 H820 0.931 . S
C805 C804 1.370 . S
C805 C809 1.408 . S
C806 C804 1.363 . S
C806 C807 1.370 . S
C806 C810 1.524 . S
C807 C799 1.503 . S
C807 C806 1.370 . S
C807 C808 1.403 . S
C808 C807 1.403 . S
C808 C809 1.404 . S
C808 C811 1.539 . S
C809 C805 1.408 . S
C809 C808 1.404 . S
C809 H821 0.930 . S
C810 C806 1.524 . S
C810 H822 0.956 . S
C810 H823 0.961 . S
C810 H824 0.961 . S
C811 C808 1.539 . S
C811 H825 0.958 . S
C811 H826 0.961 . S
C811 H827 0.960 . S
H812 C796 0.931 . S
H813 C801 0.929 . S
H814 C802 0.960 . S
H815 C802 0.962 . S
H816 C802 0.960 . S
H817 C803 0.961 . S
H818 C803 0.961 . S
H819 C803 0.961 . S
H820 C804 0.931 . S
H821 C809 0.930 . S
H822 C810 0.956 . S
H823 C810 0.961 . S
H824 C810 0.961 . S
H825 C811 0.958 . S
H826 C811 0.961 . S
H827 C811 0.960 . S
C828 C829 1.391 . S
C828 C830 1.394 . S
C828 H844 0.931 . S
C829 C828 1.391 . S
C829 C833 1.376 . S
C830 C828 1.394 . S
C830 C831 1.369 . S
C830 C834 1.531 . S
C831 C830 1.369 . S
C831 C832 1.410 . S
C831 C839 1.503 . S
C832 C831 1.410 . S
C832 C833 1.392 . S
C832 C835 1.511 . S
C833 C829 1.376 . S
C833 C832 1.392 . S
C833 H845 0.929 . S
C834 C830 1.531 . S
C834 H846 0.960 . S
C834 H847 0.962 . S
C834 H848 0.960 . S
C835 C832 1.511 . S
C835 H849 0.961 . S
C835 H850 0.961 . S
C835 H851 0.961 . S
C836 C837 1.370 . S
C836 C838 1.363 . S
C836 H852 0.931 . S
C837 C836 1.370 . S
C837 C841 1.408 . S
C838 C836 1.363 . S
C838 C839 1.370 . S
C838 C842 1.524 . S
C839 C831 1.503 . S
C839 C838 1.370 . S
C839 C840 1.403 . S
C840 C839 1.403 . S
C840 C841 1.404 . S
C840 C843 1.539 . S
C841 C837 1.408 . S
C841 C840 1.404 . S
C841 H853 0.930 . S
C842 C838 1.524 . S
C842 H854 0.956 . S
C842 H855 0.961 . S
C842 H856 0.961 . S
C843 C840 1.539 . S
C843 H857 0.958 . S
C843 H858 0.961 . S
C843 H859 0.960 . S
H844 C828 0.931 . S
H845 C833 0.929 . S
H846 C834 0.960 . S
H847 C834 0.962 . S
H848 C834 0.960 . S
H849 C835 0.961 . S
H850 C835 0.961 . S
H851 C835 0.961 . S
H852 C836 0.931 . S
H853 C841 0.930 . S
H854 C842 0.956 . S
H855 C842 0.961 . S
H856 C842 0.961 . S
H857 C843 0.958 . S
H858 C843 0.961 . S
H859 C843 0.960 . S
C860 C861 1.391 . S
C860 C862 1.394 . S
C860 H876 0.931 . S
C861 C860 1.391 . S
C861 C865 1.376 . S
C862 C860 1.394 . S
C862 C863 1.369 . S
C862 C866 1.531 . S
C863 C862 1.369 . S
C863 C864 1.410 . S
C863 C871 1.503 . S
C864 C863 1.410 . S
C864 C865 1.392 . S
C864 C867 1.511 . S
C865 C861 1.376 . S
C865 C864 1.392 . S
C865 H877 0.929 . S
C866 C862 1.531 . S
C866 H878 0.960 . S
C866 H879 0.962 . S
C866 H880 0.960 . S
C867 C864 1.511 . S
C867 H881 0.961 . S
C867 H882 0.961 . S
C867 H883 0.961 . S
C868 C869 1.370 . S
C868 C870 1.363 . S
C868 H884 0.931 . S
C869 C868 1.370 . S
C869 C873 1.408 . S
C870 C868 1.363 . S
C870 C871 1.370 . S
C870 C874 1.524 . S
C871 C863 1.503 . S
C871 C870 1.370 . S
C871 C872 1.403 . S
C872 C871 1.403 . S
C872 C873 1.404 . S
C872 C875 1.539 . S
C873 C869 1.408 . S
C873 C872 1.404 . S
C873 H885 0.930 . S
C874 C870 1.524 . S
C874 H886 0.956 . S
C874 H887 0.961 . S
C874 H888 0.961 . S
C875 C872 1.539 . S
C875 H889 0.958 . S
C875 H890 0.961 . S
C875 H891 0.960 . S
H876 C860 0.931 . S
H877 C865 0.929 . S
H878 C866 0.960 . S
H879 C866 0.962 . S
H880 C866 0.960 . S
H881 C867 0.961 . S
H882 C867 0.961 . S
H883 C867 0.961 . S
H884 C868 0.931 . S
H885 C873 0.930 . S
H886 C874 0.956 . S
H887 C874 0.961 . S
H888 C874 0.961 . S
H889 C875 0.958 . S
H890 C875 0.961 . S
H891 C875 0.960 . S
C892 C893 1.391 . S
C892 C894 1.394 . S
C892 H908 0.931 . S
C893 C892 1.391 . S
C893 C897 1.376 . S
C894 C892 1.394 . S
C894 C895 1.369 . S
C894 C898 1.531 . S
C895 C894 1.369 . S
C895 C896 1.410 . S
C895 C903 1.503 . S
C896 C895 1.410 . S
C896 C897 1.392 . S
C896 C899 1.511 . S
C897 C893 1.376 . S
C897 C896 1.392 . S
C897 H909 0.929 1_556 S
C898 C894 1.531 . S
C898 H910 0.960 . S
C898 H911 0.962 . S
C898 H912 0.960 . S
C899 C896 1.511 . S
C899 H913 0.961 . S
C899 H914 0.961 . S
C899 H915 0.961 . S
C900 C901 1.370 . S
C900 C902 1.363 . S
C900 H916 0.931 . S
C901 C900 1.370 . S
C901 C905 1.408 . S
C902 C900 1.363 . S
C902 C903 1.370 . S
C902 C906 1.524 . S
C903 C895 1.503 . S
C903 C902 1.370 . S
C903 C904 1.403 . S
C904 C903 1.403 . S
C904 C905 1.404 . S
C904 C907 1.539 . S
C905 C901 1.408 . S
C905 C904 1.404 . S
C905 H917 0.930 . S
C906 C902 1.524 . S
C906 H918 0.956 . S
C906 H919 0.961 . S
C906 H920 0.961 . S
C907 C904 1.539 . S
C907 H921 0.958 . S
C907 H922 0.961 . S
C907 H923 0.960 . S
H908 C892 0.931 . S
H909 C897 0.929 1_554 S
H910 C898 0.960 . S
H911 C898 0.962 . S
H912 C898 0.960 . S
H913 C899 0.961 . S
H914 C899 0.961 . S
H915 C899 0.961 . S
H916 C900 0.931 . S
H917 C905 0.930 . S
H918 C906 0.956 . S
H919 C906 0.961 . S
H920 C906 0.961 . S
H921 C907 0.958 . S
H922 C907 0.961 . S
H923 C907 0.960 . S
C924 C925 1.391 . S
C924 C926 1.394 . S
C924 H940 0.931 . S
C925 C924 1.391 . S
C925 C929 1.376 . S
C926 C924 1.394 . S
C926 C927 1.369 . S
C926 C930 1.531 . S
C927 C926 1.369 . S
C927 C928 1.410 . S
C927 C935 1.503 . S
C928 C927 1.410 . S
C928 C929 1.392 . S
C928 C931 1.511 . S
C929 C925 1.376 . S
C929 C928 1.392 . S
C929 H941 0.929 . S
C930 C926 1.531 . S
C930 H942 0.960 . S
C930 H943 0.962 . S
C930 H944 0.960 . S
C931 C928 1.511 . S
C931 H945 0.961 . S
C931 H946 0.961 . S
C931 H947 0.961 . S
C932 C933 1.370 . S
C932 C934 1.363 . S
C932 H948 0.931 . S
C933 C932 1.370 . S
C933 C937 1.408 . S
C934 C932 1.363 . S
C934 C935 1.370 . S
C934 C938 1.524 . S
C935 C927 1.503 . S
C935 C934 1.370 . S
C935 C936 1.403 . S
C936 C935 1.403 . S
C936 C937 1.404 . S
C936 C939 1.539 . S
C937 C933 1.408 . S
C937 C936 1.404 . S
C937 H949 0.929 1_554 S
C938 C934 1.524 . S
C938 H950 0.956 . S
C938 H951 0.961 . S
C938 H952 0.961 . S
C939 C936 1.539 . S
C939 H953 0.958 . S
C939 H954 0.961 . S
C939 H955 0.960 . S
H940 C924 0.931 . S
H941 C929 0.929 . S
H942 C930 0.960 . S
H943 C930 0.962 . S
H944 C930 0.960 . S
H945 C931 0.961 . S
H946 C931 0.961 . S
H947 C931 0.961 . S
H948 C932 0.931 . S
H949 C937 0.929 1_556 S
H950 C938 0.956 . S
H951 C938 0.961 . S
H952 C938 0.961 . S
H953 C939 0.958 . S
H954 C939 0.961 . S
H955 C939 0.960 . S
C956 C957 1.391 . S
C956 C958 1.394 . S
C956 H972 0.931 . S
C957 C956 1.391 . S
C957 C961 1.376 . S
C958 C956 1.394 . S
C958 C959 1.369 . S
C958 C962 1.531 . S
C959 C958 1.369 . S
C959 C960 1.410 . S
C959 C967 1.503 . S
C960 C959 1.410 . S
C960 C961 1.392 . S
C960 C963 1.511 . S
C961 C957 1.376 . S
C961 C960 1.392 . S
C961 H973 0.929 . S
C962 C958 1.531 . S
C962 H974 0.960 . S
C962 H975 0.962 . S
C962 H976 0.960 . S
C963 C960 1.511 . S
C963 H977 0.961 . S
C963 H978 0.961 . S
C963 H979 0.961 . S
C964 C965 1.370 . S
C964 C966 1.363 . S
C964 H980 0.931 . S
C965 C964 1.370 . S
C965 C969 1.408 . S
C966 C964 1.363 . S
C966 C967 1.370 . S
C966 C970 1.524 . S
C967 C959 1.503 . S
C967 C966 1.370 . S
C967 C968 1.403 . S
C968 C967 1.403 . S
C968 C969 1.404 . S
C968 C971 1.539 . S
C969 C965 1.408 . S
C969 C968 1.404 . S
C969 H981 0.930 . S
C970 C966 1.524 . S
C970 H982 0.956 . S
C970 H983 0.961 . S
C970 H984 0.961 . S
C971 C968 1.539 . S
C971 H985 0.958 . S
C971 H986 0.961 . S
C971 H987 0.960 . S
H972 C956 0.931 . S
H973 C961 0.929 . S
H974 C962 0.960 . S
H975 C962 0.962 . S
H976 C962 0.960 . S
H977 C963 0.961 . S
H978 C963 0.961 . S
H979 C963 0.961 . S
H980 C964 0.931 . S
H981 C969 0.930 . S
H982 C970 0.956 . S
H983 C970 0.961 . S
H984 C970 0.961 . S
H985 C971 0.958 . S
H986 C971 0.961 . S
H987 C971 0.960 . S
C988 C989 1.391 . S
C988 C990 1.394 . S
C988 H1004 0.931 . S
C989 C988 1.391 . S
C989 C993 1.376 . S
C990 C988 1.394 . S
C990 C991 1.369 . S
C990 C994 1.531 . S
C991 C990 1.369 . S
C991 C992 1.410 . S
C991 C999 1.503 . S
C992 C991 1.410 . S
C992 C993 1.392 . S
C992 C995 1.511 . S
C993 C989 1.376 . S
C993 C992 1.392 . S
C993 H1005 0.929 . S
C994 C990 1.531 . S
C994 H1006 0.960 . S
C994 H1007 0.962 . S
C994 H1008 0.960 . S
C995 C992 1.511 . S
C995 H1009 0.961 . S
C995 H1010 0.961 . S
C995 H1011 0.961 . S
C996 C997 1.370 . S
C996 C998 1.363 . S
C996 H1012 0.931 . S
C997 C996 1.370 . S
C997 C1001 1.408 . S
C998 C996 1.363 . S
C998 C999 1.370 . S
C998 C1002 1.524 . S
C999 C991 1.503 . S
C999 C998 1.370 . S
C999 C1000 1.403 . S
C1000 C999 1.403 . S
C1000 C1001 1.404 . S
C1000 C1003 1.539 . S
C1001 C997 1.408 . S
C1001 C1000 1.404 . S
C1001 H1013 0.930 . S
C1002 C998 1.524 . S
C1002 H1014 0.956 . S
C1002 H1015 0.961 . S
C1002 H1016 0.961 . S
C1003 C1000 1.539 . S
C1003 H1017 0.958 . S
C1003 H1018 0.961 . S
C1003 H1019 0.960 . S
H1004 C988 0.931 . S
H1005 C993 0.929 . S
H1006 C994 0.960 . S
H1007 C994 0.962 . S
H1008 C994 0.960 . S
H1009 C995 0.961 . S
H1010 C995 0.961 . S
H1011 C995 0.961 . S
H1012 C996 0.931 . S
H1013 C1001 0.930 . S
H1014 C1002 0.956 . S
H1015 C1002 0.961 . S
H1016 C1002 0.961 . S
H1017 C1003 0.958 . S
H1018 C1003 0.961 . S
H1019 C1003 0.960 . S
C1020 C1021 1.391 . S
C1020 C1022 1.394 . S
C1020 H1036 0.931 . S
C1021 C1020 1.391 . S
C1021 C1025 1.376 . S
C1022 C1020 1.394 . S
C1022 C1023 1.369 . S
C1022 C1026 1.531 . S
C1023 C1022 1.369 . S
C1023 C1024 1.410 . S
C1023 C1031 1.503 1_655 S
C1024 C1023 1.410 . S
C1024 C1025 1.392 . S
C1024 C1027 1.511 1_655 S
C1025 C1021 1.376 . S
C1025 C1024 1.392 . S
C1025 H1037 0.929 . S
C1026 C1022 1.531 . S
C1026 H1038 0.960 . S
C1026 H1039 0.962 . S
C1026 H1040 0.960 . S
C1027 C1024 1.511 1_455 S
C1027 H1041 0.961 . S
C1027 H1042 0.961 . S
C1027 H1043 0.961 . S
C1028 C1029 1.370 . S
C1028 C1030 1.363 . S
C1028 H1044 0.931 . S
C1029 C1028 1.370 . S
C1029 C1033 1.408 . S
C1030 C1028 1.363 . S
C1030 C1031 1.370 . S
C1030 C1034 1.524 . S
C1031 C1023 1.503 1_455 S
C1031 C1030 1.370 . S
C1031 C1032 1.403 . S
C1032 C1031 1.403 . S
C1032 C1033 1.404 . S
C1032 C1035 1.539 1_455 S
C1033 C1029 1.408 . S
C1033 C1032 1.404 . S
C1033 H1045 0.930 . S
C1034 C1030 1.524 . S
C1034 H1046 0.956 . S
C1034 H1047 0.961 . S
C1034 H1048 0.961 . S
C1035 C1032 1.539 1_655 S
C1035 H1049 0.958 . S
C1035 H1050 0.961 1_655 S
C1035 H1051 0.960 . S
H1036 C1020 0.931 . S
H1037 C1025 0.929 . S
H1038 C1026 0.960 . S
H1039 C1026 0.962 . S
H1040 C1026 0.960 . S
H1041 C1027 0.961 . S
H1042 C1027 0.961 . S
H1043 C1027 0.961 . S
H1044 C1028 0.931 . S
H1045 C1033 0.930 . S
H1046 C1034 0.956 . S
H1047 C1034 0.961 . S
H1048 C1034 0.961 . S
H1049 C1035 0.958 . S
H1050 C1035 0.961 1_455 S
H1051 C1035 0.960 . S
C1052 C1053 1.391 . S
C1052 C1054 1.394 . S
C1052 H1068 0.931 . S
C1053 C1052 1.391 . S
C1053 C1057 1.376 . S
C1054 C1052 1.394 . S
C1054 C1055 1.369 . S
C1054 C1058 1.525 1_565 S
C1055 C1054 1.369 . S
C1055 C1056 1.410 . S
C1055 C1063 1.503 1_565 S
C1056 C1055 1.410 . S
C1056 C1057 1.392 . S
C1056 C1059 1.511 . S
C1057 C1053 1.376 . S
C1057 C1056 1.392 . S
C1057 H1069 0.929 . S
C1058 C1054 1.525 1_545 S
C1058 H1070 1.013 . S
C1058 H1071 0.936 1_545 S
C1058 H1072 0.942 1_545 S
C1059 C1056 1.511 . S
C1059 H1073 0.961 . S
C1059 H1074 0.961 . S
C1059 H1075 0.961 . S
C1060 C1061 1.370 . S
C1060 C1062 1.363 . S
C1060 H1076 0.931 . S
C1061 C1060 1.370 . S
C1061 C1065 1.408 . S
C1062 C1060 1.363 . S
C1062 C1063 1.370 . S
C1062 C1066 1.524 1_545 S
C1063 C1055 1.503 1_545 S
C1063 C1062 1.370 . S
C1063 C1064 1.403 . S
C1064 C1063 1.403 . S
C1064 C1065 1.404 . S
C1064 C1067 1.539 . S
C1065 C1061 1.408 . S
C1065 C1064 1.404 . S
C1065 H1077 0.930 . S
C1066 C1062 1.524 1_565 S
C1066 H1078 0.956 . S
C1066 H1079 0.961 . S
C1066 H1080 0.961 . S
C1067 C1064 1.539 . S
C1067 H1081 0.958 . S
C1067 H1082 0.961 . S
C1067 H1083 0.960 . S
H1068 C1052 0.931 . S
H1069 C1057 0.929 . S
H1070 C1058 1.013 . S
H1071 C1058 0.936 1_565 S
H1072 C1058 0.942 1_565 S
H1073 C1059 0.961 . S
H1074 C1059 0.961 . S
H1075 C1059 0.961 . S
H1076 C1060 0.931 . S
H1077 C1065 0.930 . S
H1078 C1066 0.956 . S
H1079 C1066 0.961 . S
H1080 C1066 0.961 . S
H1081 C1067 0.958 . S
H1082 C1067 0.961 . S
H1083 C1067 0.960 . S
C1084 C1085 1.391 . S
C1084 C1086 1.394 . S
C1084 H1100 0.931 . S
C1085 C1084 1.391 . S
C1085 C1089 1.376 . S
C1086 C1084 1.394 . S
C1086 C1087 1.369 . S
C1086 C1090 1.531 . S
C1087 C1086 1.369 . S
C1087 C1088 1.410 . S
C1087 C1095 1.503 . S
C1088 C1087 1.410 . S
C1088 C1089 1.392 . S
C1088 C1091 1.511 . S
C1089 C1085 1.376 . S
C1089 C1088 1.392 . S
C1089 H1101 0.929 . S
C1090 C1086 1.531 . S
C1090 H1102 0.960 . S
C1090 H1103 0.962 . S
C1090 H1104 0.960 . S
C1091 C1088 1.511 . S
C1091 H1105 0.961 . S
C1091 H1106 0.961 . S
C1091 H1107 0.961 . S
C1092 C1093 1.370 . S
C1092 C1094 1.363 . S
C1092 H1108 0.931 . S
C1093 C1092 1.370 . S
C1093 C1097 1.408 . S
C1094 C1092 1.363 . S
C1094 C1095 1.370 . S
C1094 C1098 1.524 . S
C1095 C1087 1.503 . S
C1095 C1094 1.370 . S
C1095 C1096 1.403 . S
C1096 C1095 1.403 . S
C1096 C1097 1.404 . S
C1096 C1099 1.539 . S
C1097 C1093 1.408 . S
C1097 C1096 1.404 . S
C1097 H1109 0.930 . S
C1098 C1094 1.524 . S
C1098 H1110 0.956 . S
C1098 H1111 0.961 . S
C1098 H1112 0.961 . S
C1099 C1096 1.539 . S
C1099 H1113 0.958 . S
C1099 H1114 0.961 . S
C1099 H1115 0.960 . S
H1100 C1084 0.931 . S
H1101 C1089 0.929 . S
H1102 C1090 0.960 . S
H1103 C1090 0.962 . S
H1104 C1090 0.960 . S
H1105 C1091 0.961 . S
H1106 C1091 0.961 . S
H1107 C1091 0.961 . S
H1108 C1092 0.931 . S
H1109 C1097 0.930 . S
H1110 C1098 0.956 . S
H1111 C1098 0.961 . S
H1112 C1098 0.961 . S
H1113 C1099 0.958 . S
H1114 C1099 0.961 . S
H1115 C1099 0.960 . S
C1116 C1117 1.391 . S
C1116 C1118 1.394 . S
C1116 H1132 0.931 . S
C1117 C1116 1.391 . S
C1117 C1121 1.376 . S
C1118 C1116 1.394 . S
C1118 C1119 1.369 . S
C1118 C1122 1.531 . S
C1119 C1118 1.369 . S
C1119 C1120 1.410 . S
C1119 C1127 1.503 1_455 S
C1120 C1119 1.410 . S
C1120 C1121 1.392 . S
C1120 C1123 1.511 . S
C1121 C1117 1.376 . S
C1121 C1120 1.392 . S
C1121 H1133 0.929 . S
C1122 C1118 1.531 . S
C1122 H1134 0.959 1_455 S
C1122 H1135 0.962 1_455 S
C1122 H1136 0.960 . S
C1123 C1120 1.511 . S
C1123 H1137 0.961 . S
C1123 H1138 0.961 . S
C1123 H1139 0.961 . S
C1124 C1125 1.370 . S
C1124 C1126 1.363 . S
C1124 H1140 0.931 . S
C1125 C1124 1.370 . S
C1125 C1129 1.408 . S
C1126 C1124 1.363 . S
C1126 C1127 1.370 . S
C1126 C1130 1.524 . S
C1127 C1119 1.503 1_655 S
C1127 C1126 1.370 . S
C1127 C1128 1.403 . S
C1128 C1127 1.403 . S
C1128 C1129 1.404 . S
C1128 C1131 1.539 1_655 S
C1129 C1125 1.408 . S
C1129 C1128 1.404 . S
C1129 H1141 0.930 . S
C1130 C1126 1.524 . S
C1130 H1142 0.956 . S
C1130 H1143 0.961 . S
C1130 H1144 0.961 . S
C1131 C1128 1.539 1_455 S
C1131 H1145 0.958 . S
C1131 H1146 0.961 . S
C1131 H1147 0.960 . S
H1132 C1116 0.931 . S
H1133 C1121 0.929 . S
H1134 C1122 0.959 1_655 S
H1135 C1122 0.962 1_655 S
H1136 C1122 0.960 . S
H1137 C1123 0.961 . S
H1138 C1123 0.961 . S
H1139 C1123 0.961 . S
H1140 C1124 0.931 . S
H1141 C1129 0.930 . S
H1142 C1130 0.956 . S
H1143 C1130 0.961 . S
H1144 C1130 0.961 . S
H1145 C1131 0.958 . S
H1146 C1131 0.961 . S
H1147 C1131 0.960 . S
C1148 C1149 1.391 . S
C1148 C1150 1.394 . S
C1148 H1164 0.931 . S
C1149 C1148 1.391 . S
C1149 C1153 1.376 . S
C1150 C1148 1.394 . S
C1150 C1151 1.369 . S
C1150 C1154 1.531 . S
C1151 C1150 1.369 . S
C1151 C1152 1.410 . S
C1151 C1159 1.503 1_546 S
C1152 C1151 1.410 . S
C1152 C1153 1.392 . S
C1152 C1155 1.511 1_556 S
C1153 C1149 1.376 . S
C1153 C1152 1.392 . S
C1153 H1165 0.929 . S
C1154 C1150 1.531 . S
C1154 H1166 0.960 1_545 S
C1154 H1167 0.962 1_545 S
C1154 H1168 0.960 . S
C1155 C1152 1.511 1_554 S
C1155 H1169 0.961 . S
C1155 H1170 0.961 . S
C1155 H1171 0.961 . S
C1156 C1157 1.370 . S
C1156 C1158 1.363 1_554 S
C1156 H1172 0.931 . S
C1157 C1156 1.370 . S
C1157 C1161 1.408 . S
C1158 C1156 1.363 1_556 S
C1158 C1159 1.370 1_556 S
C1158 C1162 1.524 . S
C1159 C1151 1.503 1_564 S
C1159 C1158 1.370 1_554 S
C1159 C1160 1.403 . S
C1160 C1159 1.403 . S
C1160 C1161 1.404 . S
C1160 C1163 1.539 1_565 S
C1161 C1157 1.408 . S
C1161 C1160 1.404 . S
C1161 H1173 0.930 . S
C1162 C1158 1.524 . S
C1162 H1174 0.956 . S
C1162 H1175 0.961 . S
C1162 H1176 0.961 . S
C1163 C1160 1.539 1_545 S
C1163 H1177 0.958 . S
C1163 H1178 0.961 . S
C1163 H1179 0.960 . S
H1164 C1148 0.931 . S
H1165 C1153 0.929 . S
H1166 C1154 0.960 1_565 S
H1167 C1154 0.962 1_565 S
H1168 C1154 0.960 . S
H1169 C1155 0.961 . S
H1170 C1155 0.961 . S
H1171 C1155 0.961 . S
H1172 C1156 0.931 . S
H1173 C1161 0.930 . S
H1174 C1162 0.956 . S
H1175 C1162 0.961 . S
H1176 C1162 0.961 . S
H1177 C1163 0.958 . S
H1178 C1163 0.961 . S
H1179 C1163 0.960 . S
C1180 C1181 1.391 . S
C1180 C1182 1.394 . S
C1180 H1196 0.931 . S
C1181 C1180 1.391 . S
C1181 C1185 1.376 . S
C1182 C1180 1.394 . S
C1182 C1183 1.369 . S
C1182 C1186 1.531 . S
C1183 C1182 1.369 . S
C1183 C1184 1.410 . S
C1183 C1191 1.503 . S
C1184 C1183 1.410 . S
C1184 C1185 1.392 . S
C1184 C1187 1.511 . S
C1185 C1181 1.376 . S
C1185 C1184 1.392 . S
C1185 H1197 0.929 . S
C1186 C1182 1.531 . S
C1186 H1198 0.960 . S
C1186 H1199 0.962 . S
C1186 H1200 0.960 . S
C1187 C1184 1.511 . S
C1187 H1201 0.961 . S
C1187 H1202 0.961 . S
C1187 H1203 0.961 . S
C1188 C1189 1.370 . S
C1188 C1190 1.363 . S
C1188 H1204 0.931 . S
C1189 C1188 1.370 . S
C1189 C1193 1.408 . S
C1190 C1188 1.363 . S
C1190 C1191 1.370 . S
C1190 C1194 1.524 . S
C1191 C1183 1.503 . S
C1191 C1190 1.370 . S
C1191 C1192 1.403 . S
C1192 C1191 1.403 . S
C1192 C1193 1.404 . S
C1192 C1195 1.539 . S
C1193 C1189 1.408 . S
C1193 C1192 1.404 . S
C1193 H1205 0.930 . S
C1194 C1190 1.524 . S
C1194 H1206 0.956 . S
C1194 H1207 0.961 . S
C1194 H1208 0.961 . S
C1195 C1192 1.539 . S
C1195 H1209 0.958 . S
C1195 H1210 0.961 . S
C1195 H1211 0.960 . S
H1196 C1180 0.931 . S
H1197 C1185 0.929 . S
H1198 C1186 0.960 . S
H1199 C1186 0.962 . S
H1200 C1186 0.960 . S
H1201 C1187 0.961 . S
H1202 C1187 0.961 . S
H1203 C1187 0.961 . S
H1204 C1188 0.931 . S
H1205 C1193 0.930 . S
H1206 C1194 0.956 . S
H1207 C1194 0.961 . S
H1208 C1194 0.961 . S
H1209 C1195 0.958 . S
H1210 C1195 0.961 . S
H1211 C1195 0.960 . S
C1212 C1213 1.391 . S
C1212 C1214 1.394 . S
C1212 H1228 0.931 . S
C1213 C1212 1.391 . S
C1213 C1217 1.376 . S
C1214 C1212 1.394 . S
C1214 C1215 1.369 . S
C1214 C1218 1.531 . S
C1215 C1214 1.369 . S
C1215 C1216 1.410 . S
C1215 C1223 1.503 . S
C1216 C1215 1.410 . S
C1216 C1217 1.392 . S
C1216 C1219 1.511 . S
C1217 C1213 1.376 . S
C1217 C1216 1.392 . S
C1217 H1229 0.929 . S
C1218 C1214 1.531 . S
C1218 H1230 0.960 . S
C1218 H1231 0.962 . S
C1218 H1232 0.960 . S
C1219 C1216 1.511 . S
C1219 H1233 0.961 . S
C1219 H1234 0.961 . S
C1219 H1235 0.961 . S
C1220 C1221 1.370 . S
C1220 C1222 1.363 . S
C1220 H1236 0.931 . S
C1221 C1220 1.370 . S
C1221 C1225 1.408 . S
C1222 C1220 1.363 . S
C1222 C1223 1.370 . S
C1222 C1226 1.524 . S
C1223 C1215 1.503 . S
C1223 C1222 1.370 . S
C1223 C1224 1.403 . S
C1224 C1223 1.403 . S
C1224 C1225 1.404 . S
C1224 C1227 1.539 . S
C1225 C1221 1.408 . S
C1225 C1224 1.404 . S
C1225 H1237 0.930 . S
C1226 C1222 1.524 . S
C1226 H1238 0.956 . S
C1226 H1239 0.961 . S
C1226 H1240 0.961 . S
C1227 C1224 1.539 . S
C1227 H1241 0.958 . S
C1227 H1242 0.961 . S
C1227 H1243 0.960 . S
H1228 C1212 0.931 . S
H1229 C1217 0.929 . S
H1230 C1218 0.960 . S
H1231 C1218 0.962 . S
H1232 C1218 0.960 . S
H1233 C1219 0.961 . S
H1234 C1219 0.961 . S
H1235 C1219 0.961 . S
H1236 C1220 0.931 . S
H1237 C1225 0.930 . S
H1238 C1226 0.956 . S
H1239 C1226 0.961 . S
H1240 C1226 0.961 . S
H1241 C1227 0.958 . S
H1242 C1227 0.961 . S
H1243 C1227 0.960 . S
C1244 C1245 1.391 . S
C1244 C1246 1.394 . S
C1244 H1260 0.931 . S
C1245 C1244 1.391 . S
C1245 C1249 1.376 . S
C1246 C1244 1.394 . S
C1246 C1247 1.369 . S
C1246 C1250 1.531 . S
C1247 C1246 1.369 . S
C1247 C1248 1.410 . S
C1247 C1255 1.503 . S
C1248 C1247 1.410 . S
C1248 C1249 1.392 . S
C1248 C1251 1.511 . S
C1249 C1245 1.376 . S
C1249 C1248 1.392 . S
C1249 H1261 0.929 . S
C1250 C1246 1.531 . S
C1250 H1262 0.960 . S
C1250 H1263 0.962 . S
C1250 H1264 0.960 . S
C1251 C1248 1.511 . S
C1251 H1265 0.961 . S
C1251 H1266 0.961 . S
C1251 H1267 0.961 . S
C1252 C1253 1.370 . S
C1252 C1254 1.363 . S
C1252 H1268 0.931 . S
C1253 C1252 1.370 . S
C1253 C1257 1.408 . S
C1254 C1252 1.363 . S
C1254 C1255 1.370 . S
C1254 C1258 1.524 . S
C1255 C1247 1.503 . S
C1255 C1254 1.370 . S
C1255 C1256 1.403 . S
C1256 C1255 1.403 . S
C1256 C1257 1.404 . S
C1256 C1259 1.539 . S
C1257 C1253 1.408 . S
C1257 C1256 1.404 . S
C1257 H1269 0.930 . S
C1258 C1254 1.524 . S
C1258 H1270 0.956 . S
C1258 H1271 0.961 . S
C1258 H1272 0.961 . S
C1259 C1256 1.539 . S
C1259 H1273 0.958 . S
C1259 H1274 0.961 . S
C1259 H1275 0.960 . S
H1260 C1244 0.931 . S
H1261 C1249 0.929 . S
H1262 C1250 0.960 . S
H1263 C1250 0.962 . S
H1264 C1250 0.960 . S
H1265 C1251 0.961 . S
H1266 C1251 0.961 . S
H1267 C1251 0.961 . S
H1268 C1252 0.931 . S
H1269 C1257 0.930 . S
H1270 C1258 0.956 . S
H1271 C1258 0.961 . S
H1272 C1258 0.961 . S
H1273 C1259 0.958 . S
H1274 C1259 0.961 . S
H1275 C1259 0.960 . S
C1276 C1277 1.391 . S
C1276 C1278 1.394 . S
C1276 H1292 0.931 . S
C1277 C1276 1.391 . S
C1277 C1281 1.376 . S
C1278 C1276 1.394 . S
C1278 C1279 1.369 . S
C1278 C1282 1.531 . S
C1279 C1278 1.369 . S
C1279 C1280 1.410 . S
C1279 C1287 1.503 . S
C1280 C1279 1.410 . S
C1280 C1281 1.392 . S
C1280 C1283 1.511 . S
C1281 C1277 1.376 . S
C1281 C1280 1.392 . S
C1281 H1293 0.929 . S
C1282 C1278 1.531 . S
C1282 H1294 0.960 . S
C1282 H1295 0.962 . S
C1282 H1296 0.960 . S
C1283 C1280 1.511 . S
C1283 H1297 0.961 . S
C1283 H1298 0.961 . S
C1283 H1299 0.961 . S
C1284 C1285 1.370 . S
C1284 C1286 1.363 . S
C1284 H1300 0.931 . S
C1285 C1284 1.370 . S
C1285 C1289 1.408 . S
C1286 C1284 1.363 . S
C1286 C1287 1.370 . S
C1286 C1290 1.524 . S
C1287 C1279 1.503 . S
C1287 C1286 1.370 . S
C1287 C1288 1.403 . S
C1288 C1287 1.403 . S
C1288 C1289 1.404 . S
C1288 C1291 1.539 . S
C1289 C1285 1.408 . S
C1289 C1288 1.404 . S
C1289 H1301 0.930 . S
C1290 C1286 1.524 . S
C1290 H1302 0.956 . S
C1290 H1303 0.961 . S
C1290 H1304 0.961 . S
C1291 C1288 1.539 . S
C1291 H1305 0.958 . S
C1291 H1306 0.961 . S
C1291 H1307 0.960 . S
H1292 C1276 0.931 . S
H1293 C1281 0.929 . S
H1294 C1282 0.960 . S
H1295 C1282 0.962 . S
H1296 C1282 0.960 . S
H1297 C1283 0.961 . S
H1298 C1283 0.961 . S
H1299 C1283 0.961 . S
H1300 C1284 0.931 . S
H1301 C1289 0.930 . S
H1302 C1290 0.956 . S
H1303 C1290 0.961 . S
H1304 C1290 0.961 . S
H1305 C1291 0.958 . S
H1306 C1291 0.961 . S
H1307 C1291 0.960 . S
C1308 C1309 1.391 . S
C1308 C1310 1.394 . S
C1308 H1324 0.931 . S
C1309 C1308 1.391 . S
C1309 C1313 1.376 . S
C1310 C1308 1.394 . S
C1310 C1311 1.369 . S
C1310 C1314 1.531 . S
C1311 C1310 1.369 . S
C1311 C1312 1.410 . S
C1311 C1319 1.503 . S
C1312 C1311 1.410 . S
C1312 C1313 1.392 . S
C1312 C1315 1.511 . S
C1313 C1309 1.376 . S
C1313 C1312 1.392 . S
C1313 H1325 0.929 . S
C1314 C1310 1.531 . S
C1314 H1326 0.960 . S
C1314 H1327 0.962 . S
C1314 H1328 0.960 . S
C1315 C1312 1.511 . S
C1315 H1329 0.961 . S
C1315 H1330 0.961 . S
C1315 H1331 0.961 . S
C1316 C1317 1.370 . S
C1316 C1318 1.363 . S
C1316 H1332 0.931 . S
C1317 C1316 1.370 . S
C1317 C1321 1.408 . S
C1318 C1316 1.363 . S
C1318 C1319 1.370 . S
C1318 C1322 1.524 . S
C1319 C1311 1.503 . S
C1319 C1318 1.370 . S
C1319 C1320 1.403 . S
C1320 C1319 1.403 . S
C1320 C1321 1.404 . S
C1320 C1323 1.539 . S
C1321 C1317 1.408 . S
C1321 C1320 1.404 . S
C1321 H1333 0.930 . S
C1322 C1318 1.524 . S
C1322 H1334 0.956 . S
C1322 H1335 0.961 . S
C1322 H1336 0.961 . S
C1323 C1320 1.539 . S
C1323 H1337 0.958 . S
C1323 H1338 0.961 . S
C1323 H1339 0.960 . S
H1324 C1308 0.931 . S
H1325 C1313 0.929 . S
H1326 C1314 0.960 . S
H1327 C1314 0.962 . S
H1328 C1314 0.960 . S
H1329 C1315 0.961 . S
H1330 C1315 0.961 . S
H1331 C1315 0.961 . S
H1332 C1316 0.931 . S
H1333 C1321 0.930 . S
H1334 C1322 0.956 . S
H1335 C1322 0.961 . S
H1336 C1322 0.961 . S
H1337 C1323 0.958 . S
H1338 C1323 0.961 . S
H1339 C1323 0.960 . S
C1340 C1341 1.391 . S
C1340 C1342 1.394 . S
C1340 H1356 0.931 . S
C1341 C1340 1.391 . S
C1341 C1345 1.376 . S
C1342 C1340 1.394 . S
C1342 C1343 1.369 . S
C1342 C1346 1.531 . S
C1343 C1342 1.369 . S
C1343 C1344 1.410 . S
C1343 C1351 1.503 . S
C1344 C1343 1.410 . S
C1344 C1345 1.392 . S
C1344 C1347 1.511 . S
C1345 C1341 1.376 . S
C1345 C1344 1.392 . S
C1345 H1357 0.929 . S
C1346 C1342 1.531 . S
C1346 H1358 0.960 . S
C1346 H1359 0.962 . S
C1346 H1360 0.960 . S
C1347 C1344 1.511 . S
C1347 H1361 0.961 . S
C1347 H1362 0.961 . S
C1347 H1363 0.961 . S
C1348 C1349 1.370 . S
C1348 C1350 1.363 . S
C1348 H1364 0.931 . S
C1349 C1348 1.370 . S
C1349 C1353 1.408 . S
C1350 C1348 1.363 . S
C1350 C1351 1.370 . S
C1350 C1354 1.524 . S
C1351 C1343 1.503 . S
C1351 C1350 1.370 . S
C1351 C1352 1.403 . S
C1352 C1351 1.403 . S
C1352 C1353 1.404 . S
C1352 C1355 1.539 . S
C1353 C1349 1.408 . S
C1353 C1352 1.404 . S
C1353 H1365 0.930 . S
C1354 C1350 1.524 . S
C1354 H1366 0.956 . S
C1354 H1367 0.961 . S
C1354 H1368 0.961 . S
C1355 C1352 1.539 . S
C1355 H1369 0.958 . S
C1355 H1370 0.961 . S
C1355 H1371 0.960 . S
H1356 C1340 0.931 . S
H1357 C1345 0.929 . S
H1358 C1346 0.960 . S
H1359 C1346 0.962 . S
H1360 C1346 0.960 . S
H1361 C1347 0.961 . S
H1362 C1347 0.961 . S
H1363 C1347 0.961 . S
H1364 C1348 0.931 . S
H1365 C1353 0.930 . S
H1366 C1354 0.956 . S
H1367 C1354 0.961 . S
H1368 C1354 0.961 . S
H1369 C1355 0.958 . S
H1370 C1355 0.961 . S
H1371 C1355 0.960 . S
C1372 C1373 1.391 . S
C1372 C1374 1.394 . S
C1372 H1388 0.931 . S
C1373 C1372 1.391 . S
C1373 C1377 1.376 . S
C1374 C1372 1.394 . S
C1374 C1375 1.369 . S
C1374 C1378 1.531 . S
C1375 C1374 1.369 . S
C1375 C1376 1.410 . S
C1375 C1383 1.503 . S
C1376 C1375 1.410 . S
C1376 C1377 1.392 . S
C1376 C1379 1.511 . S
C1377 C1373 1.376 . S
C1377 C1376 1.392 . S
C1377 H1389 0.929 . S
C1378 C1374 1.531 . S
C1378 H1390 0.960 . S
C1378 H1391 0.962 . S
C1378 H1392 0.960 . S
C1379 C1376 1.511 . S
C1379 H1393 0.961 . S
C1379 H1394 0.961 . S
C1379 H1395 0.961 . S
C1380 C1381 1.370 . S
C1380 C1382 1.363 . S
C1380 H1396 0.931 . S
C1381 C1380 1.370 . S
C1381 C1385 1.408 . S
C1382 C1380 1.363 . S
C1382 C1383 1.370 . S
C1382 C1386 1.524 . S
C1383 C1375 1.503 . S
C1383 C1382 1.370 . S
C1383 C1384 1.403 . S
C1384 C1383 1.403 . S
C1384 C1385 1.404 . S
C1384 C1387 1.539 . S
C1385 C1381 1.408 . S
C1385 C1384 1.404 . S
C1385 H1397 0.930 . S
C1386 C1382 1.524 . S
C1386 H1398 0.956 . S
C1386 H1399 0.961 . S
C1386 H1400 0.961 . S
C1387 C1384 1.539 . S
C1387 H1401 0.958 . S
C1387 H1402 0.961 . S
C1387 H1403 0.960 . S
H1388 C1372 0.931 . S
H1389 C1377 0.929 . S
H1390 C1378 0.960 . S
H1391 C1378 0.962 . S
H1392 C1378 0.960 . S
H1393 C1379 0.961 . S
H1394 C1379 0.961 . S
H1395 C1379 0.961 . S
H1396 C1380 0.931 . S
H1397 C1385 0.930 . S
H1398 C1386 0.956 . S
H1399 C1386 0.961 . S
H1400 C1386 0.961 . S
H1401 C1387 0.958 . S
H1402 C1387 0.961 . S
H1403 C1387 0.960 . S
C637 C29 1.518 . S
C645 C347 1.531 . S
C669 C82 1.516 . S
C677 C400 1.531 . S
C701 C453 1.547 . S
C709 C135 1.543 . S
C733 C188 1.529 . S
C741 C506 1.535 . S
C765 C241 1.550 . S
C773 C559 1.545 . S
C797 C612 1.540 . S
C805 C294 1.539 . S
C829 C463 1.371 . S
C837 C39 1.387 . S
C861 C92 1.366 . S
C869 C516 1.389 . S
C893 C569 1.377 1_556 S
C901 C145 1.400 . S
C925 C622 1.370 . S
C933 C198 1.387 1_554 S
C957 C251 1.428 . S
C965 C357 1.410 . S
C989 C304 1.384 . S
C997 C410 1.389 . S
C1021 C605 2.089 . S
C1029 C22 2.106 . S
C1053 C340 2.110 . S
C1061 C75 2.090 . S
C1085 C128 2.078 . S
C1093 C393 2.101 . S
C1117 C446 2.072 . S
C1125 C181 2.107 . S
C1149 C499 2.072 . S
C1157 C234 2.107 . S
C1181 C552 2.072 . S
C1189 C287 2.107 . S
C1213 C38 1.884 . S
C1221 C568 1.893 . S
C1245 C621 1.886 . S
C1253 C91 1.892 . S
C1277 C144 1.890 . S
C1285 C356 1.888 . S
C1309 C197 1.873 . S
C1317 C409 1.896 . S
C1341 C250 1.900 1_556 S
C1349 C462 1.885 . S
C1373 C303 1.892 . S
C1381 C515 1.887 1_554 S
