# Generated by pormake.
# Topology unr, (4)-cn, num edge types: 1
# Building blocks:
#     Node 0, Type 0, BuildingBlock: CEKHIL_clean_sbu_0, # of connection points: 4
#     Node 1, Type 0, BuildingBlock: CEKHIL_clean_sbu_0, # of connection points: 4
#     Node 2, Type 0, BuildingBlock: CEKHIL_clean_sbu_0, # of connection points: 4
#     Node 3, Type 0, BuildingBlock: CEKHIL_clean_sbu_0, # of connection points: 4
#     Node 4, Type 0, BuildingBlock: CEKHIL_clean_sbu_0, # of connection points: 4
#     Node 5, Type 0, BuildingBlock: CEKHIL_clean_sbu_0, # of connection points: 4
#     Node 6, Type 0, BuildingBlock: CEKHIL_clean_sbu_0, # of connection points: 4
#     Node 7, Type 0, BuildingBlock: CEKHIL_clean_sbu_0, # of connection points: 4
#     Node 8, Type 0, BuildingBlock: CEKHIL_clean_sbu_0, # of connection points: 4
#     Node 9, Type 0, BuildingBlock: CEKHIL_clean_sbu_0, # of connection points: 4
#     Node 10, Type 0, BuildingBlock: CEKHIL_clean_sbu_0, # of connection points: 4
#     Node 11, Type 0, BuildingBlock: CEKHIL_clean_sbu_0, # of connection points: 4
#     Node 12, Type 0, BuildingBlock: CEKHIL_clean_sbu_0, # of connection points: 4
#     Node 13, Type 0, BuildingBlock: CEKHIL_clean_sbu_0, # of connection points: 4
#     Node 14, Type 0, BuildingBlock: CEKHIL_clean_sbu_0, # of connection points: 4
#     Node 15, Type 0, BuildingBlock: CEKHIL_clean_sbu_0, # of connection points: 4
#     Node 16, Type 0, BuildingBlock: CEKHIL_clean_sbu_0, # of connection points: 4
#     Node 17, Type 0, BuildingBlock: CEKHIL_clean_sbu_0, # of connection points: 4
#     Node 18, Type 0, BuildingBlock: CEKHIL_clean_sbu_0, # of connection points: 4
#     Node 19, Type 0, BuildingBlock: CEKHIL_clean_sbu_0, # of connection points: 4
#     Node 20, Type 0, BuildingBlock: CEKHIL_clean_sbu_0, # of connection points: 4
#     Node 21, Type 0, BuildingBlock: CEKHIL_clean_sbu_0, # of connection points: 4
#     Node 22, Type 0, BuildingBlock: CEKHIL_clean_sbu_0, # of connection points: 4
#     Node 23, Type 0, BuildingBlock: CEKHIL_clean_sbu_0, # of connection points: 4
#     Node 24, Type 0, BuildingBlock: CEKHIL_clean_sbu_0, # of connection points: 4
#     Node 25, Type 0, BuildingBlock: CEKHIL_clean_sbu_0, # of connection points: 4
#     Node 26, Type 0, BuildingBlock: CEKHIL_clean_sbu_0, # of connection points: 4
#     Node 27, Type 0, BuildingBlock: CEKHIL_clean_sbu_0, # of connection points: 4
#     Node 28, Type 0, BuildingBlock: CEKHIL_clean_sbu_0, # of connection points: 4
#     Node 29, Type 0, BuildingBlock: CEKHIL_clean_sbu_0, # of connection points: 4
#     Node 30, Type 0, BuildingBlock: CEKHIL_clean_sbu_0, # of connection points: 4
#     Node 31, Type 0, BuildingBlock: CEKHIL_clean_sbu_0, # of connection points: 4
#     Node 32, Type 0, BuildingBlock: CEKHIL_clean_sbu_0, # of connection points: 4
#     Node 33, Type 0, BuildingBlock: CEKHIL_clean_sbu_0, # of connection points: 4
#     Node 34, Type 0, BuildingBlock: CEKHIL_clean_sbu_0, # of connection points: 4
#     Node 35, Type 0, BuildingBlock: CEKHIL_clean_sbu_0, # of connection points: 4
#     Edge 36, Type (0, 0), BuildingBlock: KIFKEQ_clean_linker_1, # of connection points: 2
#     Edge 37, Type (0, 0), BuildingBlock: KIFKEQ_clean_linker_1, # of connection points: 2
#     Edge 38, Type (0, 0), BuildingBlock: KIFKEQ_clean_linker_1, # of connection points: 2
#     Edge 39, Type (0, 0), BuildingBlock: KIFKEQ_clean_linker_1, # of connection points: 2
#     Edge 40, Type (0, 0), BuildingBlock: KIFKEQ_clean_linker_1, # of connection points: 2
#     Edge 41, Type (0, 0), BuildingBlock: KIFKEQ_clean_linker_1, # of connection points: 2
#     Edge 42, Type (0, 0), BuildingBlock: KIFKEQ_clean_linker_1, # of connection points: 2
#     Edge 43, Type (0, 0), BuildingBlock: KIFKEQ_clean_linker_1, # of connection points: 2
#     Edge 44, Type (0, 0), BuildingBlock: KIFKEQ_clean_linker_1, # of connection points: 2
#     Edge 45, Type (0, 0), BuildingBlock: KIFKEQ_clean_linker_1, # of connection points: 2
#     Edge 46, Type (0, 0), BuildingBlock: KIFKEQ_clean_linker_1, # of connection points: 2
#     Edge 47, Type (0, 0), BuildingBlock: KIFKEQ_clean_linker_1, # of connection points: 2
#     Edge 48, Type (0, 0), BuildingBlock: KIFKEQ_clean_linker_1, # of connection points: 2
#     Edge 49, Type (0, 0), BuildingBlock: KIFKEQ_clean_linker_1, # of connection points: 2
#     Edge 50, Type (0, 0), BuildingBlock: KIFKEQ_clean_linker_1, # of connection points: 2
#     Edge 51, Type (0, 0), BuildingBlock: KIFKEQ_clean_linker_1, # of connection points: 2
#     Edge 52, Type (0, 0), BuildingBlock: KIFKEQ_clean_linker_1, # of connection points: 2
#     Edge 53, Type (0, 0), BuildingBlock: KIFKEQ_clean_linker_1, # of connection points: 2
#     Edge 54, Type (0, 0), BuildingBlock: KIFKEQ_clean_linker_1, # of connection points: 2
#     Edge 55, Type (0, 0), BuildingBlock: KIFKEQ_clean_linker_1, # of connection points: 2
#     Edge 56, Type (0, 0), BuildingBlock: KIFKEQ_clean_linker_1, # of connection points: 2
#     Edge 57, Type (0, 0), BuildingBlock: KIFKEQ_clean_linker_1, # of connection points: 2
#     Edge 58, Type (0, 0), BuildingBlock: KIFKEQ_clean_linker_1, # of connection points: 2
#     Edge 59, Type (0, 0), BuildingBlock: KIFKEQ_clean_linker_1, # of connection points: 2
#     Edge 60, Type (0, 0), BuildingBlock: KIFKEQ_clean_linker_1, # of connection points: 2
#     Edge 61, Type (0, 0), BuildingBlock: KIFKEQ_clean_linker_1, # of connection points: 2
#     Edge 62, Type (0, 0), BuildingBlock: KIFKEQ_clean_linker_1, # of connection points: 2
#     Edge 63, Type (0, 0), BuildingBlock: KIFKEQ_clean_linker_1, # of connection points: 2
#     Edge 64, Type (0, 0), BuildingBlock: KIFKEQ_clean_linker_1, # of connection points: 2
#     Edge 65, Type (0, 0), BuildingBlock: KIFKEQ_clean_linker_1, # of connection points: 2
#     Edge 66, Type (0, 0), BuildingBlock: KIFKEQ_clean_linker_1, # of connection points: 2
#     Edge 67, Type (0, 0), BuildingBlock: KIFKEQ_clean_linker_1, # of connection points: 2
#     Edge 68, Type (0, 0), BuildingBlock: KIFKEQ_clean_linker_1, # of connection points: 2
#     Edge 69, Type (0, 0), BuildingBlock: KIFKEQ_clean_linker_1, # of connection points: 2
#     Edge 70, Type (0, 0), BuildingBlock: KIFKEQ_clean_linker_1, # of connection points: 2
#     Edge 71, Type (0, 0), BuildingBlock: KIFKEQ_clean_linker_1, # of connection points: 2
#     Edge 72, Type (0, 0), BuildingBlock: KIFKEQ_clean_linker_1, # of connection points: 2
#     Edge 73, Type (0, 0), BuildingBlock: KIFKEQ_clean_linker_1, # of connection points: 2
#     Edge 74, Type (0, 0), BuildingBlock: KIFKEQ_clean_linker_1, # of connection points: 2
#     Edge 75, Type (0, 0), BuildingBlock: KIFKEQ_clean_linker_1, # of connection points: 2
#     Edge 76, Type (0, 0), BuildingBlock: KIFKEQ_clean_linker_1, # of connection points: 2
#     Edge 77, Type (0, 0), BuildingBlock: KIFKEQ_clean_linker_1, # of connection points: 2
#     Edge 78, Type (0, 0), BuildingBlock: KIFKEQ_clean_linker_1, # of connection points: 2
#     Edge 79, Type (0, 0), BuildingBlock: KIFKEQ_clean_linker_1, # of connection points: 2
#     Edge 80, Type (0, 0), BuildingBlock: KIFKEQ_clean_linker_1, # of connection points: 2
#     Edge 81, Type (0, 0), BuildingBlock: KIFKEQ_clean_linker_1, # of connection points: 2
#     Edge 82, Type (0, 0), BuildingBlock: KIFKEQ_clean_linker_1, # of connection points: 2
#     Edge 83, Type (0, 0), BuildingBlock: KIFKEQ_clean_linker_1, # of connection points: 2
#     Edge 84, Type (0, 0), BuildingBlock: KIFKEQ_clean_linker_1, # of connection points: 2
#     Edge 85, Type (0, 0), BuildingBlock: KIFKEQ_clean_linker_1, # of connection points: 2
#     Edge 86, Type (0, 0), BuildingBlock: KIFKEQ_clean_linker_1, # of connection points: 2
#     Edge 87, Type (0, 0), BuildingBlock: KIFKEQ_clean_linker_1, # of connection points: 2
#     Edge 88, Type (0, 0), BuildingBlock: KIFKEQ_clean_linker_1, # of connection points: 2
#     Edge 89, Type (0, 0), BuildingBlock: KIFKEQ_clean_linker_1, # of connection points: 2
#     Edge 90, Type (0, 0), BuildingBlock: KIFKEQ_clean_linker_1, # of connection points: 2
#     Edge 91, Type (0, 0), BuildingBlock: KIFKEQ_clean_linker_1, # of connection points: 2
#     Edge 92, Type (0, 0), BuildingBlock: KIFKEQ_clean_linker_1, # of connection points: 2
#     Edge 93, Type (0, 0), BuildingBlock: KIFKEQ_clean_linker_1, # of connection points: 2
#     Edge 94, Type (0, 0), BuildingBlock: KIFKEQ_clean_linker_1, # of connection points: 2
#     Edge 95, Type (0, 0), BuildingBlock: KIFKEQ_clean_linker_1, # of connection points: 2
#     Edge 96, Type (0, 0), BuildingBlock: KIFKEQ_clean_linker_1, # of connection points: 2
#     Edge 97, Type (0, 0), BuildingBlock: KIFKEQ_clean_linker_1, # of connection points: 2
#     Edge 98, Type (0, 0), BuildingBlock: KIFKEQ_clean_linker_1, # of connection points: 2
#     Edge 99, Type (0, 0), BuildingBlock: KIFKEQ_clean_linker_1, # of connection points: 2
#     Edge 100, Type (0, 0), BuildingBlock: KIFKEQ_clean_linker_1, # of connection points: 2
#     Edge 101, Type (0, 0), BuildingBlock: KIFKEQ_clean_linker_1, # of connection points: 2
#     Edge 102, Type (0, 0), BuildingBlock: KIFKEQ_clean_linker_1, # of connection points: 2
#     Edge 103, Type (0, 0), BuildingBlock: KIFKEQ_clean_linker_1, # of connection points: 2
#     Edge 104, Type (0, 0), BuildingBlock: KIFKEQ_clean_linker_1, # of connection points: 2
#     Edge 105, Type (0, 0), BuildingBlock: KIFKEQ_clean_linker_1, # of connection points: 2
#     Edge 106, Type (0, 0), BuildingBlock: KIFKEQ_clean_linker_1, # of connection points: 2
#     Edge 107, Type (0, 0), BuildingBlock: KIFKEQ_clean_linker_1, # of connection points: 2
# Relax obj value: 0.390
# Max RMSD: 0.181
# Mean RMSD: 0.175
data_MOF--net-unr--node1-CEKHIL_clean_sbu_0--edge1-KIFKEQ_clean_linker_1
_symmetry_space_group_name_H-M    P1
_symmetry_Int_Tables_number       1
_symmetry_cell_setting            triclinic
loop_
_symmetry_equiv_pos_as_xyz
'x, y, z'
_cell_length_a     49.320467
_cell_length_b     49.322906
_cell_length_c     101.06832
_cell_angle_alpha  89.98937
_cell_angle_beta   90.022996
_cell_angle_gamma 119.9899
loop_
_atom_site_label
_atom_site_type_symbol
_atom_site_fract_x
_atom_site_fract_y
_atom_site_fract_z
_atom_type_partial_charge
Co0 Co 0.21518 0.12098 0.20881 0.0
O1 O 0.25068 0.11733 0.20395 0.0
O2 O 0.21847 0.12096 0.1897 0.0
C3 C 0.23843 0.15871 0.22424 0.0
O4 O 0.17687 0.12637 0.21056 0.0
Co5 Co 0.18971 0.10334 0.23755 0.0
O6 O 0.1659 0.12425 0.2323 0.0
C7 C 0.17514 0.05327 0.21823 0.0
C8 C 0.24341 0.11882 0.19174 0.0
C9 C 0.16189 0.12968 0.22032 0.0
O10 O 0.18774 0.07383 0.20899 0.0
O11 O 0.17604 0.06051 0.23045 0.0
O12 O 0.24165 0.16591 0.21176 0.0
O13 O 0.22576 0.12915 0.22672 0.0
Co14 Co 0.89516 0.09562 0.20164 0.0
O15 O 0.90054 0.13567 0.19723 0.0
O16 O 0.89919 0.10144 0.18264 0.0
C17 C 0.8543 0.07998 0.21554 0.0
O18 O 0.88873 0.05153 0.20289 0.0
Co19 Co 0.90625 0.08374 0.23089 0.0
O20 O 0.88626 0.03976 0.22455 0.0
C21 C 0.96017 0.12212 0.21377 0.0
C22 C 0.90112 0.12833 0.18496 0.0
C23 C 0.88328 0.03196 0.21237 0.0
O24 O 0.9419 0.11433 0.20366 0.0
O25 O 0.95025 0.11507 0.22568 0.0
O26 O 0.84987 0.07766 0.20283 0.0
O27 O 0.88325 0.09582 0.21919 0.0
Co28 Co 0.92175 0.80061 0.19857 0.0
O29 O 0.88175 0.76554 0.1945 0.0
O30 O 0.91726 0.79475 0.17953 0.0
C31 C 0.93462 0.77736 0.21464 0.0
O32 O 0.96605 0.83812 0.19961 0.0
Co33 Co 0.93225 0.82936 0.22687 0.0
O34 O 0.97682 0.84885 0.22131 0.0
C35 C 0.89514 0.84147 0.20738 0.0
C36 C 0.88985 0.77079 0.18216 0.0
C37 C 0.98528 0.85204 0.20921 0.0
O38 O 0.90359 0.82932 0.19813 0.0
O39 O 0.90146 0.84089 0.21963 0.0
O40 O 0.93885 0.77311 0.2023 0.0
O41 O 0.91943 0.79198 0.21663 0.0
Co42 Co 0.09346 0.19691 0.30087 0.0
O43 O 0.08602 0.23042 0.305 0.0
O44 O 0.08922 0.19898 0.31983 0.0
C45 C 0.13395 0.22326 0.28691 0.0
O46 O 0.10216 0.16073 0.3 0.0
Co47 Co 0.08358 0.17292 0.2718 0.0
O48 O 0.1057 0.15124 0.27846 0.0
C49 C 0.02902 0.15587 0.28875 0.0
C50 C 0.08589 0.22306 0.31733 0.0
C51 C 0.10886 0.14715 0.29072 0.0
O52 O 0.04706 0.16711 0.29889 0.0
O53 O 0.03917 0.15883 0.27688 0.0
O54 O 0.13847 0.22591 0.29961 0.0
O55 O 0.10496 0.20872 0.28328 0.0
Co56 Co 0.78295 0.89298 0.29108 0.0
O57 O 0.74894 0.85259 0.2957 0.0
O58 O 0.78028 0.88841 0.31015 0.0
C59 C 0.75766 0.90653 0.27627 0.0
O60 O 0.81954 0.93776 0.2897 0.0
Co61 Co 0.80808 0.90447 0.2622 0.0
O62 O 0.82969 0.94881 0.26803 0.0
C63 C 0.82625 0.87005 0.28061 0.0
C64 C 0.75608 0.86089 0.30796 0.0
C65 C 0.83348 0.95719 0.28014 0.0
O66 O 0.81251 0.87575 0.29016 0.0
O67 O 0.82484 0.87726 0.26856 0.0
O68 O 0.75441 0.90928 0.28886 0.0
O69 O 0.77175 0.89122 0.27327 0.0
Co70 Co 0.08524 0.8845 0.30475 0.0
O71 O 0.1249 0.8913 0.31077 0.0
O72 O 0.08487 0.88149 0.32387 0.0
C73 C 0.07776 0.85006 0.28852 0.0
O74 O 0.04061 0.87551 0.30167 0.0
Co75 Co 0.08006 0.90403 0.27594 0.0
O76 O 0.03452 0.8774 0.27964 0.0
C77 C 0.11094 0.95215 0.29655 0.0
C78 C 0.11338 0.88677 0.32261 0.0
C79 C 0.02343 0.87059 0.29134 0.0
O80 O 0.101 0.9309 0.30557 0.0
O81 O 0.10784 0.94611 0.28414 0.0
O82 O 0.07131 0.84068 0.30071 0.0
O83 O 0.09224 0.88002 0.28693 0.0
Co84 Co 0.81422 0.9058 0.81482 0.0
O85 O 0.77381 0.89923 0.80969 0.0
O86 O 0.78281 0.86277 0.8179 0.0
C87 C 0.83034 0.95073 0.82612 0.0
O88 O 0.85189 0.90391 0.82187 0.0
Co89 Co 0.87571 0.96429 0.80562 0.0
O90 O 0.89535 0.95075 0.81936 0.0
C91 C 0.84093 0.91154 0.78713 0.0
C92 C 0.76278 0.87044 0.81349 0.0
C93 C 0.88111 0.92305 0.82406 0.0
O94 O 0.82186 0.89506 0.7964 0.0
O95 O 0.86204 0.94028 0.78861 0.0
O96 O 0.81202 0.92399 0.83177 0.0
O97 O 0.83521 0.94938 0.81368 0.0
Co98 Co 0.08028 0.90107 0.81596 0.0
O99 O 0.08651 0.86782 0.80961 0.0
O100 O 0.12351 0.91246 0.81821 0.0
C101 C 0.03605 0.87061 0.82754 0.0
O102 O 0.08278 0.94002 0.82407 0.0
Co103 Co 0.02049 0.90451 0.80917 0.0
O104 O 0.03596 0.93725 0.8231 0.0
C105 C 0.07339 0.9284 0.7901 0.0
C106 C 0.1155 0.88515 0.81323 0.0
C107 C 0.06428 0.95045 0.82705 0.0
O108 O 0.08975 0.92155 0.79791 0.0
O109 O 0.04524 0.92171 0.79256 0.0
O110 O 0.06321 0.8789 0.83274 0.0
O111 O 0.03659 0.87835 0.81534 0.0
Co112 Co 0.08651 0.17582 0.81529 0.0
O113 O 0.11937 0.21593 0.80934 0.0
O114 O 0.07578 0.20749 0.81933 0.0
C115 C 0.1171 0.15976 0.82506 0.0
O116 O 0.04829 0.13837 0.82328 0.0
Co117 Co 0.08153 0.1141 0.80499 0.0
O118 O 0.05093 0.09479 0.8197 0.0
C119 C 0.05834 0.14757 0.78849 0.0
C120 C 0.10253 0.22722 0.81402 0.0
C121 C 0.03832 0.10907 0.82517 0.0
O122 O 0.06424 0.16764 0.79775 0.0
O123 O 0.06526 0.12582 0.78909 0.0
O124 O 0.11011 0.1785 0.8313 0.0
O125 O 0.10859 0.15458 0.81283 0.0
Co126 Co 0.9041 0.81626 0.68079 0.0
O127 O 0.89524 0.77484 0.68552 0.0
O128 O 0.86082 0.78651 0.67708 0.0
C129 C 0.94946 0.83145 0.66995 0.0
O130 O 0.90473 0.85541 0.67404 0.0
Co131 Co 0.96352 0.87554 0.69106 0.0
O132 O 0.95244 0.89721 0.6773 0.0
C133 C 0.90907 0.84138 0.70876 0.0
C134 C 0.86693 0.76528 0.68138 0.0
C135 C 0.92513 0.88444 0.67221 0.0
O136 O 0.89271 0.82342 0.69918 0.0
O137 O 0.93825 0.86155 0.70773 0.0
O138 O 0.92288 0.81424 0.66398 0.0
O139 O 0.94753 0.83549 0.68244 0.0
Co140 Co 0.17674 0.08575 0.68205 0.0
O141 O 0.21671 0.11655 0.6891 0.0
O142 O 0.20692 0.07232 0.67932 0.0
C143 C 0.16596 0.11928 0.67116 0.0
O144 O 0.13928 0.0489 0.67322 0.0
Co145 Co 0.11519 0.08567 0.68898 0.0
O146 O 0.09674 0.05427 0.67457 0.0
C147 C 0.14107 0.05751 0.70751 0.0
C148 C 0.22704 0.09844 0.68497 0.0
C149 C 0.11065 0.04013 0.67027 0.0
O150 O 0.16397 0.0634 0.69968 0.0
O151 O 0.12101 0.06623 0.70529 0.0
O152 O 0.18398 0.11017 0.66577 0.0
O153 O 0.15797 0.11051 0.68322 0.0
Co154 Co 0.91015 0.08983 0.67991 0.0
O155 O 0.87631 0.09645 0.68492 0.0
O156 O 0.92256 0.1333 0.67755 0.0
C157 C 0.88158 0.04615 0.66785 0.0
O158 O 0.95 0.09182 0.67323 0.0
Co159 Co 0.91149 0.02996 0.68834 0.0
O160 O 0.94593 0.04455 0.67516 0.0
C161 C 0.92817 0.08076 0.70769 0.0
C162 C 0.89464 0.12555 0.6817 0.0
C163 C 0.96004 0.07269 0.67094 0.0
O164 O 0.92694 0.09839 0.69859 0.0
O165 O 0.92028 0.05206 0.70579 0.0
O166 O 0.89096 0.07347 0.66258 0.0
O167 O 0.887 0.04627 0.68033 0.0
Co168 Co 0.86997 0.44118 0.53716 0.0
O169 O 0.90161 0.4332 0.53053 0.0
O170 O 0.86675 0.4373 0.51808 0.0
C171 C 0.90032 0.48174 0.55052 0.0
O172 O 0.8346 0.45046 0.5409 0.0
Co173 Co 0.85446 0.43118 0.5672 0.0
O174 O 0.83081 0.45287 0.56303 0.0
C175 C 0.82984 0.37648 0.54958 0.0
C176 C 0.89099 0.43349 0.51883 0.0
C177 C 0.82344 0.45651 0.55133 0.0
O178 O 0.8404 0.39479 0.53949 0.0
O179 O 0.83531 0.38642 0.56153 0.0
O180 O 0.89964 0.48593 0.53788 0.0
O181 O 0.88693 0.45277 0.5542 0.0
Co182 Co 0.55659 0.42865 0.54223 0.0
O183 O 0.56232 0.46895 0.53797 0.0
O184 O 0.55878 0.43417 0.52318 0.0
C185 C 0.51724 0.41401 0.55684 0.0
O186 O 0.54932 0.38418 0.54337 0.0
Co187 Co 0.57036 0.41726 0.57114 0.0
O188 O 0.54892 0.37307 0.56502 0.0
C189 C 0.62277 0.45371 0.55306 0.0
C190 C 0.56143 0.46131 0.52564 0.0
C191 C 0.54451 0.36482 0.55287 0.0
O192 O 0.6034 0.4465 0.54337 0.0
O193 O 0.61418 0.44703 0.56513 0.0
O194 O 0.51159 0.41152 0.54422 0.0
O195 O 0.54654 0.42951 0.56001 0.0
Co196 Co 0.56931 0.12694 0.53348 0.0
O197 O 0.52943 0.09289 0.52842 0.0
O198 O 0.56539 0.1257 0.51437 0.0
C199 C 0.58279 0.10068 0.54785 0.0
O200 O 0.61355 0.16406 0.5355 0.0
Co201 Co 0.57883 0.14895 0.56287 0.0
O202 O 0.62354 0.17064 0.55741 0.0
C203 C 0.54333 0.16658 0.54488 0.0
C204 C 0.53804 0.10101 0.51627 0.0
C205 C 0.63241 0.17629 0.54537 0.0
O206 O 0.55129 0.1557 0.53497 0.0
O207 O 0.54927 0.16333 0.55692 0.0
O208 O 0.58639 0.09889 0.53521 0.0
O209 O 0.567 0.11412 0.55106 0.0
Co210 Co 0.76955 0.53825 0.62294 0.0
O211 O 0.76199 0.57154 0.62743 0.0
O212 O 0.7652 0.53962 0.64196 0.0
C213 C 0.81029 0.56536 0.60921 0.0
O214 O 0.77856 0.5021 0.62159 0.0
Co215 Co 0.7601 0.51577 0.59366 0.0
O216 O 0.78265 0.4943 0.59989 0.0
C217 C 0.70503 0.4949 0.61086 0.0
C218 C 0.76202 0.56389 0.6397 0.0
C219 C 0.78559 0.48929 0.61205 0.0
O220 O 0.72313 0.50832 0.62083 0.0
O221 O 0.7152 0.49732 0.59901 0.0
O222 O 0.81444 0.56744 0.62192 0.0
O223 O 0.78137 0.55106 0.60543 0.0
Co224 Co 0.45881 0.23578 0.63457 0.0
O225 O 0.42608 0.19653 0.64105 0.0
O226 O 0.46014 0.2354 0.65374 0.0
C227 C 0.43023 0.24639 0.62027 0.0
O228 O 0.49502 0.27991 0.63093 0.0
Co229 Co 0.47666 0.23986 0.60479 0.0
O230 O 0.49922 0.28542 0.60873 0.0
C231 C 0.49774 0.20861 0.62348 0.0
C232 C 0.43572 0.20752 0.65282 0.0
C233 C 0.50612 0.29672 0.6204 0.0
O234 O 0.48806 0.21831 0.63323 0.0
O235 O 0.49253 0.21197 0.61135 0.0
O236 O 0.42986 0.2517 0.63282 0.0
O237 O 0.44345 0.23026 0.61724 0.0
Co238 Co 0.76173 0.22559 0.62728 0.0
O239 O 0.80219 0.23197 0.63167 0.0
O240 O 0.76654 0.22679 0.64635 0.0
C241 C 0.74856 0.18729 0.61223 0.0
O242 O 0.717 0.2175 0.62599 0.0
Co243 Co 0.75083 0.24043 0.59846 0.0
O244 O 0.70644 0.2181 0.60433 0.0
C245 C 0.78655 0.29201 0.61703 0.0
C246 C 0.79406 0.23026 0.64397 0.0
C247 C 0.69785 0.21292 0.61643 0.0
O248 O 0.77876 0.27231 0.62661 0.0
O249 O 0.7806 0.28388 0.60488 0.0
O250 O 0.74553 0.18083 0.62478 0.0
O251 O 0.76357 0.21678 0.60942 0.0
Co252 Co 0.49269 0.24965 0.14944 0.0
O253 O 0.45262 0.24324 0.14384 0.0
O254 O 0.46139 0.20619 0.15148 0.0
C255 C 0.50651 0.29298 0.16164 0.0
O256 O 0.52984 0.24722 0.15681 0.0
Co257 Co 0.5551 0.30993 0.14256 0.0
O258 O 0.57331 0.29449 0.15611 0.0
C259 C 0.52367 0.25971 0.12249 0.0
C260 C 0.44148 0.21414 0.14718 0.0
C261 C 0.55868 0.26599 0.15983 0.0
O262 O 0.50262 0.24178 0.13088 0.0
O263 O 0.54463 0.28798 0.12508 0.0
O264 O 0.48828 0.26545 0.16667 0.0
O265 O 0.51316 0.29329 0.1493 0.0
Co266 Co 0.75424 0.23556 0.14876 0.0
O267 O 0.76213 0.20248 0.14382 0.0
O268 O 0.79781 0.24906 0.15141 0.0
C269 C 0.71023 0.20654 0.16058 0.0
O270 O 0.75508 0.27481 0.15544 0.0
Co271 Co 0.69418 0.23592 0.13988 0.0
O272 O 0.70781 0.27045 0.15298 0.0
C273 C 0.74609 0.25417 0.12095 0.0
C274 C 0.79103 0.2215 0.14716 0.0
C275 C 0.73572 0.28466 0.15748 0.0
O276 O 0.76341 0.25282 0.13017 0.0
O277 O 0.7172 0.24573 0.12263 0.0
O278 O 0.73746 0.21597 0.16597 0.0
O279 O 0.71067 0.21177 0.14807 0.0
Co280 Co 0.76254 0.51133 0.148 0.0
O281 O 0.79667 0.55066 0.14207 0.0
O282 O 0.7526 0.54405 0.15089 0.0
C283 C 0.7914 0.49495 0.15911 0.0
O284 O 0.72306 0.47495 0.15583 0.0
Co285 Co 0.75708 0.44834 0.13934 0.0
O286 O 0.72484 0.43056 0.15349 0.0
C287 C 0.73798 0.4823 0.1209 0.0
C288 C 0.78009 0.56295 0.14594 0.0
C289 C 0.7124 0.44572 0.15826 0.0
O290 O 0.74241 0.50259 0.12991 0.0
O291 O 0.74498 0.46075 0.12246 0.0
O292 O 0.78422 0.51427 0.16469 0.0
O293 O 0.78398 0.48921 0.1468 0.0
Co294 Co 0.57185 0.15835 0.01224 0.0
O295 O 0.56131 0.11745 0.01862 0.0
O296 O 0.52863 0.12906 0.00837 0.0
C297 C 0.61734 0.17002 0.00224 0.0
O298 O 0.57399 0.19693 0.00387 0.0
Co299 Co 0.63224 0.21869 0.02112 0.0
O300 O 0.62182 0.23891 0.00654 0.0
C301 C 0.57574 0.19124 0.03817 0.0
C302 C 0.53352 0.10806 0.01388 0.0
C303 C 0.59443 0.22573 0.00154 0.0
O304 O 0.56006 0.16915 0.02981 0.0
O305 O 0.60458 0.212 0.03671 0.0
O306 O 0.59088 0.1527 0.99622 0.0
O307 O 0.61517 0.17665 0.0144 0.0
Co308 Co 0.84626 0.42068 0.0165 0.0
O309 O 0.88654 0.45238 0.02288 0.0
O310 O 0.87687 0.40824 0.01303 0.0
C311 C 0.83281 0.45275 0.00614 0.0
O312 O 0.80862 0.38317 0.00823 0.0
Co313 Co 0.78483 0.4185 0.02529 0.0
O314 O 0.76551 0.38711 0.01087 0.0
C315 C 0.81649 0.39591 0.04338 0.0
C316 C 0.89702 0.4346 0.01849 0.0
C317 C 0.77963 0.37383 0.00586 0.0
O318 O 0.83612 0.39904 0.03428 0.0
O319 O 0.79638 0.40491 0.042 0.0
O320 O 0.85095 0.44443 0.00025 0.0
O321 O 0.82646 0.44428 0.01832 0.0
Co322 Co 0.57784 0.42967 0.01581 0.0
O323 O 0.54503 0.43793 0.02074 0.0
O324 O 0.59199 0.47356 0.01353 0.0
C325 C 0.54856 0.38653 0.00351 0.0
O326 O 0.61692 0.42989 0.00924 0.0
Co327 Co 0.57604 0.3682 0.02423 0.0
O328 O 0.61066 0.38171 0.0112 0.0
C329 C 0.59538 0.41959 0.04355 0.0
C330 C 0.56429 0.46687 0.01759 0.0
C331 C 0.62586 0.40986 0.00702 0.0
O332 O 0.59455 0.43757 0.03452 0.0
O333 O 0.58627 0.39061 0.04163 0.0
O334 O 0.55875 0.41415 0.9984 0.0
O335 O 0.55323 0.38611 0.01603 0.0
Co336 Co 0.53303 0.77373 0.87067 0.0
O337 O 0.56749 0.7683 0.86594 0.0
O338 O 0.53516 0.77131 0.85156 0.0
C339 C 0.55833 0.81334 0.88512 0.0
O340 O 0.49558 0.78052 0.87241 0.0
Co341 Co 0.51003 0.75983 0.89989 0.0
O342 O 0.48629 0.78061 0.89425 0.0
C343 C 0.49375 0.70757 0.8817 0.0
C344 C 0.55988 0.76883 0.85371 0.0
C345 C 0.48152 0.785 0.88222 0.0
O346 O 0.50458 0.7269 0.87195 0.0
O347 O 0.49666 0.71621 0.8938 0.0
O348 O 0.56069 0.8188 0.87249 0.0
O349 O 0.54506 0.7841 0.88833 0.0
Co350 Co 0.21415 0.75384 0.8703 0.0
O351 O 0.2193 0.79332 0.86504 0.0
O352 O 0.21381 0.75619 0.85113 0.0
C353 C 0.17692 0.74188 0.88575 0.0
O354 O 0.20719 0.70969 0.87264 0.0
Co355 Co 0.23186 0.74764 0.89929 0.0
O356 O 0.20979 0.70252 0.89453 0.0
C357 C 0.28161 0.78147 0.87975 0.0
C358 C 0.21702 0.7838 0.85293 0.0
C359 C 0.20376 0.69211 0.88269 0.0
O360 O 0.26107 0.77189 0.87044 0.0
O361 O 0.27452 0.77715 0.89205 0.0
O362 O 0.16943 0.73707 0.87331 0.0
O363 O 0.2066 0.75785 0.8881 0.0
Co364 Co 0.23486 0.45628 0.87173 0.0
O365 O 0.19532 0.4218 0.86667 0.0
O366 O 0.23158 0.45402 0.85258 0.0
C367 C 0.24855 0.43147 0.8867 0.0
O368 O 0.27896 0.49373 0.87391 0.0
Co369 Co 0.24155 0.4795 0.90082 0.0
O370 O 0.28647 0.50338 0.8958 0.0
C371 C 0.20686 0.49542 0.8818 0.0
C372 C 0.2042 0.42939 0.85451 0.0
C373 C 0.29667 0.5079 0.88393 0.0
O374 O 0.21635 0.48472 0.87236 0.0
O375 O 0.21154 0.4925 0.89404 0.0
O376 O 0.25223 0.42873 0.87415 0.0
O377 O 0.23201 0.4444 0.88947 0.0
Co378 Co 0.44082 0.87842 0.96072 0.0
O379 O 0.43332 0.91091 0.96672 0.0
O380 O 0.43817 0.87746 0.97983 0.0
C381 C 0.48044 0.90682 0.94664 0.0
O382 O 0.44989 0.8427 0.9578 0.0
Co383 Co 0.42908 0.85896 0.93108 0.0
O384 O 0.45134 0.83616 0.93581 0.0
C385 C 0.37539 0.83684 0.94916 0.0
C386 C 0.4343 0.90159 0.97861 0.0
C387 C 0.45566 0.83041 0.94768 0.0
O388 O 0.39424 0.84861 0.95905 0.0
O389 O 0.38472 0.84084 0.93713 0.0
O390 O 0.48557 0.90786 0.95927 0.0
O391 O 0.45123 0.89313 0.94332 0.0
Co392 Co 0.13061 0.57552 0.96893 0.0
O393 O 0.09808 0.53548 0.9748 0.0
O394 O 0.13023 0.57416 0.98808 0.0
C395 C 0.10236 0.58534 0.95414 0.0
O396 O 0.16621 0.62023 0.96611 0.0
Co397 Co 0.15192 0.58317 0.93949 0.0
O398 O 0.172 0.62836 0.94408 0.0
C399 C 0.17197 0.55097 0.95826 0.0
C400 C 0.10648 0.54598 0.98674 0.0
C401 C 0.17762 0.63834 0.95598 0.0
O402 O 0.16098 0.55938 0.96799 0.0
O403 O 0.16794 0.55542 0.94611 0.0
O404 O 0.10079 0.59029 0.96665 0.0
O405 O 0.11704 0.57052 0.95135 0.0
Co406 Co 0.43628 0.56905 0.9622 0.0
O407 O 0.47676 0.57548 0.96661 0.0
O408 O 0.44181 0.57223 0.98124 0.0
C409 C 0.42186 0.52905 0.94796 0.0
O410 O 0.39163 0.56119 0.96093 0.0
Co411 Co 0.42455 0.58116 0.93308 0.0
O412 O 0.38039 0.55976 0.93924 0.0
C413 C 0.46089 0.63452 0.95074 0.0
C414 C 0.46908 0.57507 0.9789 0.0
C415 C 0.37219 0.55577 0.95138 0.0
O416 O 0.45363 0.6157 0.96063 0.0
O417 O 0.45437 0.62525 0.93873 0.0
O418 O 0.41962 0.52404 0.96062 0.0
O419 O 0.43716 0.55819 0.94454 0.0
Co420 Co 0.14826 0.57183 0.48402 0.0
O421 O 0.10707 0.5618 0.47828 0.0
O422 O 0.11826 0.53 0.48954 0.0
C423 C 0.16376 0.61985 0.49225 0.0
O424 O 0.18715 0.57403 0.49196 0.0
Co425 Co 0.20779 0.62779 0.47182 0.0
O426 O 0.2298 0.61945 0.48641 0.0
C427 C 0.17215 0.56947 0.45664 0.0
C428 C 0.09732 0.53477 0.48387 0.0
C429 C 0.21658 0.59389 0.49294 0.0
O430 O 0.15552 0.55551 0.46688 0.0
O431 O 0.19183 0.59886 0.4562 0.0
O432 O 0.14624 0.59515 0.49933 0.0
O433 O 0.16784 0.61446 0.48015 0.0
Co434 Co 0.42044 0.57515 0.48586 0.0
O435 O 0.42797 0.54152 0.48157 0.0
O436 O 0.46398 0.58835 0.48874 0.0
C437 C 0.37642 0.54697 0.49782 0.0
O438 O 0.42128 0.61489 0.49193 0.0
Co439 Co 0.36019 0.57452 0.47639 0.0
O440 O 0.37368 0.60964 0.48914 0.0
C441 C 0.41223 0.59167 0.45764 0.0
C442 C 0.45683 0.5603 0.485 0.0
C443 C 0.40153 0.6244 0.49368 0.0
O444 O 0.42967 0.59118 0.46702 0.0
O445 O 0.38327 0.58307 0.45921 0.0
O446 O 0.40365 0.55682 0.50327 0.0
O447 O 0.37685 0.55131 0.48523 0.0
Co448 Co 0.42569 0.84713 0.48035 0.0
O449 O 0.45991 0.88741 0.47538 0.0
O450 O 0.41298 0.87817 0.48166 0.0
C451 C 0.45316 0.83265 0.49353 0.0
O452 O 0.38525 0.80961 0.48677 0.0
Co453 Co 0.42502 0.78541 0.47349 0.0
O454 O 0.38933 0.76627 0.4861 0.0
C455 C 0.40939 0.81801 0.45289 0.0
C456 C 0.44124 0.89823 0.47785 0.0
C457 C 0.37487 0.78057 0.48948 0.0
O458 O 0.41057 0.83794 0.46144 0.0
O459 O 0.41679 0.79716 0.45559 0.0
O460 O 0.44332 0.85084 0.49811 0.0
O461 O 0.44889 0.82675 0.48105 0.0
Co462 Co 0.23508 0.47863 0.34989 0.0
O463 O 0.22689 0.43775 0.35508 0.0
O464 O 0.19171 0.44866 0.34681 0.0
C465 C 0.27985 0.49371 0.33872 0.0
O466 O 0.23475 0.51701 0.3429 0.0
Co467 Co 0.29408 0.53872 0.35969 0.0
O468 O 0.2818 0.55977 0.34605 0.0
C469 C 0.24092 0.5043 0.37779 0.0
C470 C 0.19815 0.42796 0.3515 0.0
C471 C 0.25438 0.5462 0.34104 0.0
O472 O 0.22451 0.48653 0.3682 0.0
O473 O 0.27002 0.5247 0.37673 0.0
O474 O 0.25305 0.47588 0.333 0.0
O475 O 0.27854 0.49844 0.3512 0.0
Co476 Co 0.50721 0.74817 0.35038 0.0
O477 O 0.54808 0.78051 0.35583 0.0
O478 O 0.53714 0.73446 0.34762 0.0
C479 C 0.49389 0.77884 0.33877 0.0
O480 O 0.4688 0.70981 0.34305 0.0
Co481 Co 0.44681 0.74845 0.35878 0.0
O482 O 0.42681 0.71598 0.3448 0.0
C483 C 0.4779 0.72683 0.37768 0.0
C484 C 0.558 0.7618 0.35206 0.0
C485 C 0.44009 0.70126 0.34043 0.0
O486 O 0.49771 0.7294 0.36876 0.0
O487 O 0.45767 0.73553 0.37586 0.0
O488 O 0.51152 0.7692 0.33341 0.0
O489 O 0.48807 0.77261 0.35118 0.0
Co490 Co 0.24312 0.75342 0.34735 0.0
O491 O 0.2119 0.76125 0.35486 0.0
O492 O 0.25366 0.79593 0.3437 0.0
C493 C 0.21006 0.70701 0.3379 0.0
O494 O 0.27981 0.75375 0.33793 0.0
Co495 Co 0.24844 0.69562 0.35583 0.0
O496 O 0.27713 0.70721 0.34046 0.0
C497 C 0.27737 0.75299 0.37227 0.0
C498 C 0.22817 0.78933 0.35008 0.0
C499 C 0.28942 0.7344 0.33529 0.0
O500 O 0.26813 0.767 0.36426 0.0
O501 O 0.27105 0.72464 0.37088 0.0
O502 O 0.21676 0.73291 0.33189 0.0
O503 O 0.22074 0.7101 0.34978 0.0
H504 H 0.14084 0.1388 0.19635 0.0
H505 H 0.12825 0.14105 0.2386 0.0
H506 H 0.09705 0.14787 0.19263 0.0
H507 H 0.08413 0.14833 0.23495 0.0
H508 H 0.98874 0.10836 0.19403 0.0
H509 H 0.04239 0.11874 0.19405 0.0
H510 H 0.06221 0.17786 0.22849 0.0
H511 H 0.0078 0.16543 0.22894 0.0
C512 C 0.12892 0.14142 0.20483 0.0
C513 C 0.13774 0.13858 0.21776 0.0
C514 C 0.10368 0.14646 0.2027 0.0
C515 C 0.08666 0.14859 0.21346 0.0
C516 C 0.09671 0.14735 0.22636 0.0
C517 C 0.12195 0.14266 0.22847 0.0
C518 C 0.00484 0.12424 0.20138 0.0
C519 C 0.99408 0.13567 0.21162 0.0
C520 C 0.03575 0.13033 0.20138 0.0
C521 C 0.05662 0.1485 0.2115 0.0
C522 C 0.04656 0.1628 0.22083 0.0
C523 C 0.01548 0.15601 0.22103 0.0
H524 H 0.86548 0.98374 0.22969 0.0
H525 H 0.88182 0.00596 0.18803 0.0
H526 H 0.85925 0.93292 0.22554 0.0
H527 H 0.87404 0.95378 0.1837 0.0
H528 H 0.91477 0.88588 0.18824 0.0
H529 H 0.90318 0.92837 0.18709 0.0
H530 H 0.83199 0.88271 0.21714 0.0
H531 H 0.84548 0.84157 0.21889 0.0
C532 C 0.86717 0.97757 0.21956 0.0
C533 C 0.87487 -0.0007 0.20924 0.0
C534 C 0.8631 0.94799 0.21712 0.0
C535 C 0.86622 0.93901 0.20425 0.0
C536 C 0.87197 0.96003 0.19377 0.0
C537 C 0.87628 0.98991 0.19624 0.0
C538 C 0.89599 0.88455 0.19428 0.0
C539 C 0.88132 0.86087 0.2038 0.0
C540 C 0.88923 0.90889 0.19362 0.0
C541 C 0.86723 0.90956 0.20231 0.0
C542 C 0.84989 0.88363 0.21065 0.0
C543 C 0.85731 0.85984 0.21157 0.0
H544 H 0.15622 0.02742 0.19343 0.0
H545 H 0.14895 0.0031 0.23488 0.0
H546 H 0.11573 0.97384 0.18827 0.0
H547 H 0.10812 0.95057 0.22987 0.0
H548 H 0.0363 0.85657 0.22132 0.0
H549 H 0.08938 0.90118 0.22072 0.0
H550 H 0.06062 0.94507 0.1911 0.0
H551 H 0.00811 0.89936 0.19118 0.0
C552 C 0.14646 0.01057 0.20141 0.0
C553 C 0.1555 0.01976 0.21461 0.0
C554 C 0.12304 0.97989 0.19846 0.0
C555 C 0.10822 0.95781 0.20864 0.0
C556 C 0.11905 0.96657 0.22169 0.0
C557 C 0.14242 0.99702 0.22461 0.0
C558 C 0.04177 0.87537 0.21437 0.0
C559 C 0.01824 0.87486 0.20639 0.0
C560 C 0.07207 0.90107 0.21409 0.0
C561 C 0.07919 0.92727 0.20616 0.0
C562 C 0.05619 0.9254 0.19732 0.0
C563 C 0.026 0.89924 0.19737 0.0
H564 H 0.11006 0.12339 0.31524 0.0
H565 H 0.13116 0.11964 0.274 0.0
H566 H 0.12109 0.0813 0.32011 0.0
H567 H 0.14078 0.07731 0.27867 0.0
H568 H 0.16053 0.00412 0.28626 0.0
H569 H 0.17043 0.0576 0.28808 0.0
H570 H 0.09469 0.02655 0.31629 0.0
H571 H 0.08649 0.97366 0.31508 0.0
C572 C 0.11736 0.11387 0.30725 0.0
C573 C 0.11913 0.1245 0.29419 0.0
C574 C 0.12356 0.08965 0.31003 0.0
C575 C 0.13165 0.07563 0.2998 0.0
C576 C 0.13513 0.08766 0.2869 0.0
C577 C 0.12912 0.1118 0.28415 0.0
C578 C 0.14688 0.00912 0.29321 0.0
C579 C 0.12252 0.98488 0.3004 0.0
C580 C 0.15228 0.03965 0.29418 0.0
C581 C 0.13264 0.04626 0.30197 0.0
C582 C 0.11033 0.02248 0.31018 0.0
C583 C 0.10552 0.99206 0.30948 0.0
H584 H 0.86565 0.00419 0.26245 0.0
H585 H 0.85263 0.98586 0.30448 0.0
H586 H 0.90768 0.0564 0.26674 0.0
H587 H 0.89422 0.03943 0.30888 0.0
H588 H 0.98072 0.15058 0.2738 0.0
H589 H 0.92706 0.10701 0.2739 0.0
H590 H 0.94887 0.0675 0.30772 0.0
H591 H 0.00164 0.11229 0.30812 0.0
C592 C 0.87137 0.01148 0.27266 0.0
C593 C 0.85617 0.99046 0.28312 0.0
C594 C 0.89538 0.04185 0.27516 0.0
C595 C 0.9047 0.0524 0.2882 0.0
C596 C 0.88815 0.032 0.29871 0.0
C597 C 0.86418 0.0013 0.29619 0.0
C598 C 0.97357 0.13306 0.28151 0.0
C599 C 0.99529 0.1345 0.29084 0.0
C600 C 0.94294 0.10788 0.28151 0.0
C601 C 0.93377 0.08302 0.29053 0.0
C602 C 0.95484 0.08606 0.30062 0.0
C603 C 0.98524 0.11176 0.30084 0.0
H604 H 0.85833 0.85433 0.26318 0.0
H605 H 0.84355 0.85909 0.30508 0.0
H606 H 0.90133 0.84574 0.26789 0.0
H607 H 0.88623 0.84898 0.30987 0.0
H608 H 0.99485 0.88826 0.30971 0.0
H609 H 0.94137 0.87871 0.30871 0.0
H610 H 0.92228 0.81595 0.27564 0.0
H611 H 0.97636 0.82731 0.2762 0.0
C612 C 0.86369 0.85271 0.27345 0.0
C613 C 0.84775 0.85803 0.28374 0.0
C614 C 0.88836 0.84743 0.27618 0.0
C615 C 0.89766 0.84692 0.2893 0.0
C616 C 0.88017 0.84984 0.29965 0.0
C617 C 0.8555 0.85539 0.2969 0.0
C618 C 0.97889 0.87186 0.30246 0.0
C619 C 0.9897 0.85893 0.29289 0.0
C620 C 0.94813 0.86622 0.30189 0.0
C621 C 0.92753 0.84707 0.29188 0.0
C622 C 0.93769 0.83164 0.2832 0.0
C623 C 0.96859 0.8379 0.28357 0.0
H624 H 0.94245 0.95671 0.83178 0.0
H625 H 0.86175 0.86352 0.83291 0.0
H626 H 0.97522 0.93624 0.83959 0.0
H627 H 0.89468 0.84311 0.84096 0.0
H628 H 0.97586 0.82943 0.82202 0.0
H629 H 0.93276 0.8378 0.82747 0.0
H630 H 0.99164 0.90939 0.85551 0.0
H631 H 0.0349 0.90054 0.85003 0.0
C632 C 0.93151 0.93196 0.834 0.0
C633 C 0.89961 0.91164 0.83133 0.0
C634 C 0.9503 0.92024 0.83867 0.0
C635 C 0.93764 0.88793 0.84077 0.0
C636 C 0.90519 0.86805 0.83928 0.0
C637 C 0.88635 0.87979 0.83463 0.0
C638 C 0.97898 0.84556 0.82994 0.0
C639 C 0.00867 0.86459 0.83548 0.0
C640 C 0.95427 0.85051 0.83306 0.0
C641 C 0.95901 0.8749 0.84167 0.0
C642 C 0.98746 0.89077 0.84867 0.0
C643 C 0.01212 0.88542 0.84568 0.0
H644 H 0.15194 0.13529 0.81635 0.0
H645 H 0.09394 0.13202 0.84894 0.0
H646 H 0.14557 0.08516 0.82303 0.0
H647 H 0.08714 0.08132 0.85565 0.0
H648 H 0.12582 0.99223 0.83257 0.0
H649 H 0.14783 0.04727 0.83837 0.0
H650 H 0.05451 0.0333 0.84236 0.0
H651 H 0.03251 0.97844 0.83674 0.0
C652 C 0.13908 0.12448 0.82534 0.0
C653 C 0.12324 0.13726 0.83206 0.0
C654 C 0.13543 0.09572 0.82921 0.0
C655 C 0.11539 0.079 0.83975 0.0
C656 C 0.10249 0.09357 0.84742 0.0
C657 C 0.10662 0.12271 0.84366 0.0
C658 C 0.10997 0.00064 0.83509 0.0
C659 C 0.07738 0.98113 0.8338 0.0
C660 C 0.12263 0.0322 0.83842 0.0
C661 C 0.10295 0.04475 0.84061 0.0
C662 C 0.07038 0.0244 0.84079 0.0
C663 C 0.05772 0.99293 0.83741 0.0
H664 H 0.85197 0.01098 0.81955 0.0
H665 H 0.86133 0.95242 0.84875 0.0
H666 H 0.90275 0.05434 0.82576 0.0
H667 H 0.91273 0.99595 0.85499 0.0
H668 H 0.01242 0.04822 0.83334 0.0
H669 H 0.95862 0.01399 0.84018 0.0
H670 H 0.94299 0.09269 0.84072 0.0
H671 H 0.9969 0.12708 0.83368 0.0
C672 C 0.86427 0.00795 0.8278 0.0
C673 C 0.85297 0.97844 0.83361 0.0
C674 C 0.89345 0.03282 0.83139 0.0
C675 C 0.91207 0.02842 0.84071 0.0
C676 C 0.89903 -9e-05 0.84767 0.0
C677 C 0.86946 0.9751 0.84421 0.0
C678 C -0.00218 0.05845 0.83525 0.0
C679 C 0.00871 0.09022 0.83256 0.0
C680 C 0.96698 0.03882 0.83933 0.0
C681 C 0.94636 0.05055 0.84079 0.0
C682 C 0.95823 0.08293 0.8395 0.0
C683 C 0.98915 0.10261 0.83545 0.0
H684 H 0.91379 0.04464 0.64624 0.0
H685 H 0.83873 0.98617 0.67285 0.0
H686 H 0.92092 0.00024 0.64087 0.0
H687 H 0.8454 0.94195 0.6675 0.0
H688 H 0.86724 0.86822 0.66223 0.0
H689 H 0.84998 0.90352 0.65389 0.0
H690 H 0.94449 0.98114 0.65727 0.0
H691 H 0.96183 0.94603 0.66537 0.0
C692 C 0.89757 0.02184 0.65031 0.0
C693 C 0.87596 0.01871 0.66007 0.0
C694 C 0.90189 0.99651 0.64736 0.0
C695 C 0.88425 0.96778 0.654 0.0
C696 C 0.85942 0.96366 0.66219 0.0
C697 C 0.85549 0.98901 0.66526 0.0
C698 C 0.88449 0.89269 0.66089 0.0
C699 C 0.91577 0.90445 0.66484 0.0
C700 C 0.87458 0.91288 0.65606 0.0
C701 C 0.89574 0.94518 0.65506 0.0
C702 C 0.92756 0.95638 0.6578 0.0
C703 C 0.93746 0.93624 0.66265 0.0
H704 H 0.12785 0.9971 0.66323 0.0
H705 H 0.05039 0.01467 0.66131 0.0
H706 H 0.09293 0.94285 0.65679 0.0
H707 H 0.01565 0.96058 0.65506 0.0
H708 H 0.95311 0.86269 0.64711 0.0
H709 H 0.99739 0.91375 0.64104 0.0
H710 H 0.05327 0.90371 0.6715 0.0
H711 H 0.0092 0.85319 0.6775 0.0
C712 C 0.10361 0.98971 0.66109 0.0
C713 C 0.09176 0.01007 0.66316 0.0
C714 C 0.0836 0.95857 0.6574 0.0
C715 C 0.05141 0.94723 0.65564 0.0
C716 C 0.04032 0.96849 0.65629 0.0
C717 C 0.06026 -0.00044 0.66001 0.0
C718 C 0.9754 0.87073 0.652 0.0
C719 C 0.97781 0.85424 0.66284 0.0
C720 C 0.00064 0.90012 0.64863 0.0
C721 C 0.02869 0.91305 0.65593 0.0
C722 C 0.03215 0.8945 0.66561 0.0
C723 C 0.00686 0.86547 0.66908 0.0
H724 H 0.98702 0.03901 0.6624 0.0
H725 H 0.00251 0.13329 0.6642 0.0
H726 H 0.04104 0.05934 0.65577 0.0
H727 H 0.0567 0.15362 0.65735 0.0
H728 H 0.14728 0.16022 0.67779 0.0
H729 H 0.09732 0.15467 0.67151 0.0
H730 H 0.0868 0.08811 0.64128 0.0
H731 H 0.13731 0.09401 0.64765 0.0
C732 C 0.00172 0.06404 0.66106 0.0
C733 C 0.99065 0.08455 0.66423 0.0
C734 C 0.0327 0.07572 0.65708 0.0
C735 C 0.05335 0.10819 0.65619 0.0
C736 C 0.04146 0.12852 0.65811 0.0
C737 C 0.0104 0.11682 0.66206 0.0
C738 C 0.13516 0.14585 0.66929 0.0
C739 C 0.14584 0.12727 0.66331 0.0
C740 C 0.10639 0.14255 0.66567 0.0
C741 C 0.08766 0.12029 0.65611 0.0
C742 C 0.10051 0.10508 0.64883 0.0
C743 C 0.12963 0.10875 0.65235 0.0
H744 H 0.64767 0.43952 0.53201 0.0
H745 H 0.67314 0.49484 0.5677 0.0
H746 H 0.70057 0.4484 0.53016 0.0
H747 H 0.72689 0.50605 0.56537 0.0
H748 H 0.79493 0.47005 0.57123 0.0
H749 H 0.75075 0.4779 0.56986 0.0
H750 H 0.75409 0.47535 0.5271 0.0
H751 H 0.79773 0.46531 0.5286 0.0
C752 C 0.66501 0.45469 0.53917 0.0
C753 C 0.65624 0.46611 0.55011 0.0
C754 C 0.69553 0.45995 0.53809 0.0
C755 C 0.71815 0.47736 0.5478 0.0
C756 C 0.70997 0.49151 0.55797 0.0
C757 C 0.67923 0.48545 0.55925 0.0
C758 C 0.78648 0.47128 0.5615 0.0
C759 C 0.7995 0.46621 0.55003 0.0
C760 C 0.76117 0.47632 0.56068 0.0
C761 C 0.74831 0.47706 0.54835 0.0
C762 C 0.76274 0.47417 0.5368 0.0
C763 C 0.78795 0.46862 0.53764 0.0
H764 H 0.53722 0.33688 0.52847 0.0
H765 H 0.5298 0.31765 0.57046 0.0
H766 H 0.52647 0.28368 0.52402 0.0
H767 H 0.52066 0.26578 0.56613 0.0
H768 H 0.49888 0.17143 0.55891 0.0
H769 H 0.48914 0.21523 0.55853 0.0
H770 H 0.55356 0.25573 0.52575 0.0
H771 H 0.5614 0.21077 0.52564 0.0
C772 C 0.53309 0.32131 0.53674 0.0
C773 C 0.53489 0.33179 0.54983 0.0
C774 C 0.52706 0.29083 0.5342 0.0
C775 C 0.5228 0.27026 0.54469 0.0
C776 C 0.5232 0.28047 0.55772 0.0
C777 C 0.52894 0.31064 0.56024 0.0
C778 C 0.51002 0.1892 0.55134 0.0
C779 C 0.53113 0.18797 0.54241 0.0
C780 C 0.50477 0.21452 0.55119 0.0
C781 C 0.52138 0.23968 0.5424 0.0
C782 C 0.54027 0.2369 0.53267 0.0
C783 C 0.54486 0.2111 0.5326 0.0
H784 H 0.65688 0.22136 0.52623 0.0
H785 H 0.68234 0.18356 0.55935 0.0
H786 H 0.70982 0.26635 0.52567 0.0
H787 H 0.73579 0.22731 0.55836 0.0
H788 H 0.80037 0.33115 0.56832 0.0
H789 H 0.7568 0.27896 0.56522 0.0
H790 H 0.76481 0.29193 0.52279 0.0
H791 H 0.80807 0.34523 0.52594 0.0
C792 C 0.67419 0.22218 0.53307 0.0
C793 C 0.66556 0.19941 0.54298 0.0
C794 C 0.70463 0.24789 0.53274 0.0
C795 C 0.72706 0.25091 0.54216 0.0
C796 C 0.71896 0.22635 0.55122 0.0
C797 C 0.68844 0.20114 0.55174 0.0
C798 C 0.7933 0.32286 0.55829 0.0
C799 C 0.80748 0.34271 0.5474 0.0
C800 C 0.76831 0.29259 0.55649 0.0
C801 C 0.75694 0.28111 0.54373 0.0
C802 C 0.77252 0.30018 0.53277 0.0
C803 C 0.7975 0.33069 0.53458 0.0
H804 H 0.78937 0.46531 0.63624 0.0
H805 H 0.80528 0.46111 0.59443 0.0
H806 H 0.80025 0.42277 0.64019 0.0
H807 H 0.81412 0.41808 0.59815 0.0
H808 H 0.83238 0.34274 0.60419 0.0
H809 H 0.84265 0.39636 0.60566 0.0
H810 H 0.7747 0.36878 0.63727 0.0
H811 H 0.76662 0.31598 0.63641 0.0
C812 C 0.79538 0.45551 0.62791 0.0
C813 C 0.79579 0.46626 0.61499 0.0
C814 C 0.80143 0.43095 0.63016 0.0
C815 C 0.8078 0.4165 0.61951 0.0
C816 C 0.80985 0.42861 0.60671 0.0
C817 C 0.80422 0.45321 0.60451 0.0
C818 C 0.82056 0.34858 0.61175 0.0
C819 C 0.79853 0.3253 0.6201 0.0
C820 C 0.82609 0.3792 0.61251 0.0
C821 C 0.8087 0.38688 0.62127 0.0
C822 C 0.78866 0.36404 0.6304 0.0
C823 C 0.7839 0.33362 0.62991 0.0
H824 H 0.55161 0.32612 0.6392 0.0
H825 H 0.51309 0.34289 0.60388 0.0
H826 H 0.59622 0.37923 0.63799 0.0
H827 H 0.55638 0.39652 0.60305 0.0
H828 H 0.65992 0.46089 0.59253 0.0
H829 H 0.60816 0.41725 0.5965 0.0
H830 H 0.62085 0.43451 0.63862 0.0
H831 H 0.67369 0.47783 0.63464 0.0
C832 C 0.55218 0.34158 0.63145 0.0
C833 C 0.52924 0.33037 0.62152 0.0
C834 C 0.57767 0.37213 0.63076 0.0
C835 C 0.58034 0.39214 0.62025 0.0
C836 C 0.55571 0.38159 0.61105 0.0
C837 C 0.53071 0.35094 0.61158 0.0
C838 C 0.65164 0.45583 0.60265 0.0
C839 C 0.67132 0.47264 0.61327 0.0
C840 C 0.62162 0.43078 0.60494 0.0
C841 C 0.61022 0.42197 0.61792 0.0
C842 C 0.62906 0.44019 0.62851 0.0
C843 C 0.6593 0.46522 0.62622 0.0
H844 H 0.66966 0.20596 0.64073 0.0
H845 H 0.65057 0.19672 0.59872 0.0
H846 H 0.61623 0.19475 0.64499 0.0
H847 H 0.5984 0.18705 0.60286 0.0
H848 H 0.54265 0.22876 0.64255 0.0
H849 H 0.58806 0.22169 0.64271 0.0
H850 H 0.54784 0.15517 0.61062 0.0
H851 H 0.50344 0.16395 0.60998 0.0
C852 C 0.65406 0.20129 0.63242 0.0
C853 C 0.66464 0.20276 0.61938 0.0
C854 C 0.62346 0.19501 0.63486 0.0
C855 C 0.60286 0.19012 0.62429 0.0
C856 C 0.61316 0.19011 0.61131 0.0
C857 C 0.64347 0.19615 0.60891 0.0
C858 C 0.54314 0.21196 0.63579 0.0
C859 C 0.51986 0.19732 0.62609 0.0
C860 C 0.5692 0.2078 0.63589 0.0
C861 C 0.57215 0.18848 0.62643 0.0
C862 C 0.54695 0.1711 0.61775 0.0
C863 C 0.52132 0.17584 0.61744 0.0
H864 H 0.71 0.23672 0.18319 0.0
H865 H 0.64954 0.16854 0.15448 0.0
H866 H 0.66777 0.24663 0.18929 0.0
H867 H 0.60755 0.17825 0.16043 0.0
H868 H 0.6197 0.29784 0.16811 0.0
H869 H 0.65162 0.27563 0.17492 0.0
H870 H 0.57018 0.18301 0.17426 0.0
H871 H 0.5381 0.20522 0.16722 0.0
C872 C 0.68716 0.22257 0.17873 0.0
C873 C 0.683 0.20215 0.16826 0.0
C874 C 0.66308 0.22853 0.18209 0.0
C875 C 0.63453 0.21383 0.17512 0.0
C876 C 0.62913 0.19004 0.16604 0.0
C877 C 0.65323 0.18439 0.1626 0.0
C878 C 0.60837 0.2728 0.16969 0.0
C879 C 0.57649 0.25325 0.16671 0.0
C880 C 0.62668 0.26004 0.17376 0.0
C881 C 0.61357 0.22743 0.17493 0.0
C882 C 0.58108 0.20818 0.17324 0.0
C883 C 0.56272 0.22095 0.16917 0.0
H884 H 0.79516 0.32509 0.16627 0.0
H885 H 0.70235 0.31341 0.16411 0.0
H886 H 0.8159 0.3791 0.17343 0.0
H887 H 0.72316 0.36725 0.17121 0.0
H888 H 0.76115 0.46396 0.18155 0.0
H889 H 0.7511 0.41148 0.18721 0.0
H890 H 0.82052 0.42121 0.15861 0.0
H891 H 0.8299 0.47299 0.15288 0.0
C892 C 0.77902 0.33374 0.1676 0.0
C893 C 0.74717 0.31511 0.16428 0.0
C894 C 0.79095 0.36467 0.17176 0.0
C895 C 0.77126 0.37755 0.17276 0.0
C896 C 0.73895 0.35802 0.17065 0.0
C897 C 0.72704 0.32716 0.16642 0.0
C898 C 0.77548 0.45551 0.17705 0.0
C899 C 0.79607 0.47221 0.16669 0.0
C900 C 0.76947 0.42534 0.18018 0.0
C901 C 0.78457 0.41199 0.17317 0.0
C902 C 0.80851 0.43075 0.16423 0.0
C903 C 0.81401 0.46052 0.16094 0.0
H904 H 0.52542 0.35327 0.15638 0.0
H905 H 0.53691 0.29369 0.18431 0.0
H906 H 0.57645 0.39642 0.16227 0.0
H907 H 0.58844 0.33711 0.19034 0.0
H908 H 0.68477 0.38516 0.16687 0.0
H909 H 0.63182 0.35328 0.17496 0.0
H910 H 0.61999 0.43436 0.17539 0.0
H911 H 0.67318 0.46643 0.167 0.0
C912 C 0.53818 0.35001 0.16437 0.0
C913 C 0.5276 0.32018 0.16974 0.0
C914 C 0.56758 0.37479 0.16777 0.0
C915 C 0.58698 0.36996 0.1765 0.0
C916 C 0.57425 0.34135 0.18339 0.0
C917 C 0.54456 0.31657 0.18007 0.0
C918 C 0.67123 0.39645 0.16897 0.0
C919 C 0.68294 0.42817 0.16589 0.0
C920 C 0.64086 0.37817 0.1738 0.0
C921 C 0.62143 0.39116 0.17567 0.0
C922 C 0.63423 0.42357 0.17388 0.0
C923 C 0.66471 0.44192 0.16904 0.0
H924 H 0.57881 0.38661 0.98089 0.0
H925 H 0.50876 0.32578 0.0089 0.0
H926 H 0.58591 0.34315 0.97377 0.0
H927 H 0.51551 0.28252 0.00185 0.0
H928 H 0.53556 0.20952 0.99281 0.0
H929 H 0.51728 0.24531 0.98639 0.0
H930 H 0.6123 0.32258 0.98783 0.0
H931 H 0.63064 0.28699 0.99405 0.0
C932 C 0.5637 0.36355 0.98499 0.0
C933 C 0.54343 0.35946 0.99552 0.0
C934 C 0.568 0.33874 0.98102 0.0
C935 C 0.55171 0.30953 0.98741 0.0
C936 C 0.52838 0.3046 0.99666 0.0
C937 C 0.52445 0.32941 0.00073 0.0
C938 C 0.5527 0.234 0.99137 0.0
C939 C 0.58449 0.24552 0.99435 0.0
C940 C 0.54217 0.25449 0.98768 0.0
C941 C 0.56322 0.28686 0.98686 0.0
C942 C 0.59541 0.2978 0.98834 0.0
C943 C 0.60593 0.27735 0.99206 0.0
H944 H 0.71976 0.34935 0.99659 0.0
H945 H 0.79719 0.33167 0.99795 0.0
H946 H 0.68556 0.29621 0.98895 0.0
H947 H 0.7628 0.27838 0.99016 0.0
H948 H 0.67621 0.18792 0.00993 0.0
H949 H 0.72172 0.23777 0.00433 0.0
H950 H 0.66888 0.25126 0.9735 0.0
H951 H 0.62325 0.20076 0.97907 0.0
C952 C 0.72972 0.33443 0.99492 0.0
C953 C 0.761 0.34449 0.99827 0.0
C954 C 0.71014 0.30399 0.99036 0.0
C955 C 0.72139 0.28293 0.98911 0.0
C956 C 0.75342 0.294 0.99117 0.0
C957 C 0.77308 0.32454 0.99566 0.0
C958 C 0.67491 0.20069 0.00145 0.0
C959 C 0.64628 0.19079 0.99503 0.0
C960 C 0.701 0.22935 0.99822 0.0
C961 C 0.69867 0.24881 0.98866 0.0
C962 C 0.67121 0.23689 0.98102 0.0
C963 C 0.64519 0.20783 0.98411 0.0
H964 H 0.81397 0.49312 0.01348 0.0
H965 H 0.80162 0.4263 0.98321 0.0
H966 H 0.76376 0.4879 0.00781 0.0
H967 H 0.75078 0.42059 0.97753 0.0
H968 H 0.65138 0.37435 0.99914 0.0
H969 H 0.7052 0.39292 0.99261 0.0
H970 H 0.72378 0.48826 0.99333 0.0
H971 H 0.6698 0.46974 3e-05 0.0
C972 C 0.8012 0.4786 0.00511 0.0
C973 C 0.81143 0.45997 0.99885 0.0
C974 C 0.77232 0.4755 0.00184 0.0
C975 C 0.75297 0.45331 0.99239 0.0
C976 C 0.76506 0.43761 0.98496 0.0
C977 C 0.79433 0.44116 0.98809 0.0
C978 C 0.66666 0.39923 0.99762 0.0
C979 C 0.65645 0.42059 0.00046 0.0
C980 C 0.69752 0.40988 0.9937 0.0
C981 C 0.71888 0.44213 0.99258 0.0
C982 C 0.70792 0.4633 0.99425 0.0
C983 C 0.67699 0.45264 0.99812 0.0
H984 H 0.30504 0.76174 0.86001 0.0
H985 H 0.33276 0.82805 0.89209 0.0
H986 H 0.35819 0.77078 0.85855 0.0
H987 H 0.38652 0.83894 0.89009 0.0
H988 H 0.45211 0.80175 0.9005 0.0
H989 H 0.40813 0.80949 0.89732 0.0
H990 H 0.41272 0.79853 0.85505 0.0
H991 H 0.45649 0.78916 0.85838 0.0
C992 C 0.32289 0.7793 0.86636 0.0
C993 C 0.31479 0.79382 0.87631 0.0
C994 C 0.35348 0.78459 0.86552 0.0
C995 C 0.37664 0.80499 0.87446 0.0
C996 C 0.3691 0.82221 0.88336 0.0
C997 C 0.33839 0.81627 0.88443 0.0
C998 C 0.44403 0.80118 0.89048 0.0
C999 C 0.45752 0.79415 0.87972 0.0
C1000 C 0.41888 0.80612 0.88862 0.0
C1001 C 0.40657 0.80461 0.87591 0.0
C1002 C 0.42121 0.79939 0.86501 0.0
C1003 C 0.44643 0.79418 0.8669 0.0
H1004 H 0.18879 0.64769 0.90166 0.0
H1005 H 0.19653 0.66053 0.85924 0.0
H1006 H 0.1806 0.59563 0.89911 0.0
H1007 H 0.18664 0.60706 0.85657 0.0
H1008 H 0.22425 0.53699 0.8615 0.0
H1009 H 0.21489 0.58082 0.85986 0.0
H1010 H 0.15066 0.54389 0.89286 0.0
H1011 H 0.16191 0.50128 0.89499 0.0
C1012 C 0.18818 0.63919 0.89172 0.0
C1013 C 0.19405 0.65867 0.88067 0.0
C1014 C 0.18296 0.6089 0.89022 0.0
C1015 C 0.18303 0.59688 0.87761 0.0
C1016 C 0.18696 0.61567 0.86646 0.0
C1017 C 0.19245 0.64628 0.86797 0.0
C1018 C 0.20749 0.53783 0.86816 0.0
C1019 C 0.19424 0.51613 0.87853 0.0
C1020 C 0.20199 0.56298 0.8672 0.0
C1021 C 0.18264 0.56652 0.87646 0.0
C1022 C 0.16661 0.54263 0.88586 0.0
C1023 C 0.17276 0.518 0.88702 0.0
H1024 H 0.34094 0.53817 0.90289 0.0
H1025 H 0.32844 0.53121 0.86044 0.0
H1026 H 0.39303 0.58179 0.90023 0.0
H1027 H 0.38201 0.57446 0.85767 0.0
H1028 H 0.45244 0.68192 0.86139 0.0
H1029 H 0.40852 0.62876 0.86026 0.0
H1030 H 0.44469 0.6038 0.89431 0.0
H1031 H 0.48733 0.65774 0.89593 0.0
C1032 C 0.34951 0.54561 0.89292 0.0
C1033 C 0.33009 0.5316 0.88188 0.0
C1034 C 0.37985 0.57055 0.89136 0.0
C1035 C 0.392 0.58206 0.8787 0.0
C1036 C 0.37329 0.56671 0.86759 0.0
C1037 C 0.34261 0.54177 0.86916 0.0
C1038 C 0.45139 0.66482 0.86841 0.0
C1039 C 0.47291 0.67401 0.87889 0.0
C1040 C 0.42619 0.63418 0.86775 0.0
C1041 C 0.4224 0.61196 0.87741 0.0
C1042 C 0.44609 0.62048 0.88698 0.0
C1043 C 0.47076 0.65131 0.88786 0.0
H1044 H 0.44543 0.66012 0.97112 0.0
H1045 H 0.50208 0.68424 0.93585 0.0
H1046 H 0.45254 0.7125 0.97187 0.0
H1047 H 0.51128 0.73752 0.93705 0.0
H1048 H 0.46939 0.80001 0.92867 0.0
H1049 H 0.4798 0.75764 0.93136 0.0
H1050 H 0.47866 0.76679 0.97391 0.0
H1051 H 0.46638 0.8087 0.97114 0.0
C1052 C 0.46056 0.67711 0.96385 0.0
C1053 C 0.47278 0.66804 0.9533 0.0
C1054 C 0.46476 0.70731 0.96428 0.0
C1055 C 0.48183 0.72923 0.95431 0.0
C1056 C 0.49699 0.721 0.94463 0.0
C1057 C 0.49207 0.69057 0.944 0.0
C1058 C 0.4715 0.79325 0.93862 0.0
C1059 C 0.46627 0.80737 0.94968 0.0
C1060 C 0.47799 0.76903 0.94021 0.0
C1061 C 0.47996 0.75839 0.95289 0.0
C1062 C 0.47669 0.77384 0.96399 0.0
C1063 C 0.4698 0.79799 0.96238 0.0
H1064 H 0.22313 0.66509 0.9748 0.0
H1065 H 0.18307 0.68682 0.94135 0.0
H1066 H 0.26725 0.71849 0.97474 0.0
H1067 H 0.22596 0.74079 0.94171 0.0
H1068 H 0.32908 0.80626 0.93094 0.0
H1069 H 0.27728 0.76264 0.9346 0.0
H1070 H 0.29231 0.77337 0.9769 0.0
H1071 H 0.34535 0.81668 0.97316 0.0
C1072 C 0.22326 0.68169 0.96774 0.0
C1073 C 0.20013 0.67185 0.95793 0.0
C1074 C 0.24848 0.71241 0.96772 0.0
C1075 C 0.25065 0.73396 0.95802 0.0
C1076 C 0.22569 0.72467 0.94906 0.0
C1077 C 0.20096 0.69383 0.94889 0.0
C1078 C 0.32134 0.7998 0.94104 0.0
C1079 C 0.34173 0.81471 0.95172 0.0
C1080 C 0.29127 0.77476 0.94319 0.0
C1081 C 0.28048 0.76408 0.95608 0.0
C1082 C 0.30002 0.7805 0.96683 0.0
C1083 C 0.33036 0.8055 0.96466 0.0
H1084 H 0.17768 0.50609 0.94503 0.0
H1085 H 0.2168 0.57167 0.97734 0.0
H1086 H 0.22217 0.49746 0.94582 0.0
H1087 H 0.26238 0.56484 0.97761 0.0
H1088 H 0.34442 0.54978 0.97572 0.0
H1089 H 0.29096 0.53844 0.98002 0.0
H1090 H 0.27251 0.52923 0.93794 0.0
H1091 H 0.32467 0.53899 0.93375 0.0
C1092 C 0.19558 0.51818 0.95248 0.0
C1093 C 0.19408 0.53979 0.96101 0.0
C1094 C 0.22126 0.51353 0.95286 0.0
C1095 C 0.24649 0.53123 0.96148 0.0
C1096 C 0.2435 0.55072 0.97084 0.0
C1097 C 0.21736 0.55473 0.97068 0.0
C1098 C 0.32868 0.54478 0.96743 0.0
C1099 C 0.33907 0.54582 0.95438 0.0
C1100 C 0.29807 0.53841 0.96989 0.0
C1101 C 0.27727 0.53303 0.95935 0.0
C1102 C 0.28741 0.53266 0.94638 0.0
C1103 C 0.31772 0.53876 0.94394 0.0
H1104 H 0.19993 0.53713 0.50421 0.0
H1105 H 0.27843 0.63082 0.49945 0.0
H1106 H 0.23517 0.51978 0.5125 0.0
H1107 H 0.31346 0.61337 0.50767 0.0
H1108 H 0.37591 0.58057 0.51914 0.0
H1109 H 0.33257 0.5895 0.52441 0.0
H1110 H 0.27261 0.51441 0.49794 0.0
H1111 H 0.31586 0.50609 0.49258 0.0
C1112 C 0.22454 0.55425 0.50525 0.0
C1113 C 0.23649 0.58519 0.50079 0.0
C1114 C 0.2447 0.54426 0.51004 0.0
C1115 C 0.27714 0.56506 0.51056 0.0
C1116 C 0.28859 0.59675 0.50745 0.0
C1117 C 0.2685 0.6067 0.50258 0.0
C1118 C 0.35297 0.56488 0.51505 0.0
C1119 C 0.34914 0.54284 0.50536 0.0
C1120 C 0.32826 0.57022 0.51796 0.0
C1121 C 0.29935 0.55306 0.51141 0.0
C1122 C 0.29449 0.528 0.5032 0.0
C1123 C 0.31927 0.52314 0.50012 0.0
H1124 H 0.46031 0.6658 0.50299 0.0
H1125 H 0.36689 0.65212 0.49959 0.0
H1126 H 0.47951 0.71954 0.51022 0.0
H1127 H 0.38612 0.70563 0.50661 0.0
H1128 H 0.4197 0.80139 0.51538 0.0
H1129 H 0.41069 0.74977 0.52188 0.0
H1130 H 0.48595 0.76207 0.49612 0.0
H1131 H 0.49467 0.81318 0.48973 0.0
C1132 C 0.44372 0.67398 0.50402 0.0
C1133 C 0.41218 0.65487 0.50035 0.0
C1134 C 0.45475 0.70478 0.50821 0.0
C1135 C 0.43447 0.71707 0.50883 0.0
C1136 C 0.40241 0.69698 0.50635 0.0
C1137 C 0.39141 0.66627 0.50215 0.0
C1138 C 0.43547 0.79375 0.51176 0.0
C1139 C 0.45762 0.81092 0.50194 0.0
C1140 C 0.43005 0.76402 0.51534 0.0
C1141 C 0.44703 0.75144 0.50925 0.0
C1142 C 0.47237 0.77088 0.50101 0.0
C1143 C 0.47748 0.8003 0.49734 0.0
H1144 H 0.34735 0.7209 0.49923 0.0
H1145 H 0.33137 0.79874 0.49377 0.0
H1146 H 0.29287 0.68773 0.50546 0.0
H1147 H 0.2767 0.76538 0.5001 0.0
H1148 H 0.19542 0.62913 0.51546 0.0
H1149 H 0.24703 0.67429 0.52003 0.0
H1150 H 0.23674 0.72235 0.48635 0.0
H1151 H 0.18565 0.6773 0.48178 0.0
C1152 C 0.33243 0.73116 0.49966 0.0
C1153 C 0.34359 0.76228 0.49569 0.0
C1154 C 0.3012 0.7122 0.50339 0.0
C1155 C 0.28039 0.72388 0.50317 0.0
C1156 C 0.29215 0.75569 0.50026 0.0
C1157 C 0.32348 0.77475 0.49661 0.0
C1158 C 0.20354 0.65003 0.50949 0.0
C1159 C 0.18681 0.6498 0.49821 0.0
C1160 C 0.23322 0.67573 0.51202 0.0
C1161 C 0.24617 0.70164 0.50342 0.0
C1162 C 0.22746 0.70287 0.4932 0.0
C1163 C 0.19813 0.67706 0.49057 0.0
H1164 H 0.2347 0.70164 0.31464 0.0
H1165 H 0.17003 0.64804 0.34569 0.0
H1166 H 0.24092 0.65674 0.30914 0.0
H1167 H 0.17539 0.60309 0.34005 0.0
H1168 H 0.28937 0.60728 0.33311 0.0
H1169 H 0.26994 0.64122 0.32554 0.0
H1170 H 0.17566 0.56257 0.32502 0.0
H1171 H 0.195 0.52842 0.33263 0.0
C1172 C 0.22029 0.67965 0.31971 0.0
C1173 C 0.20215 0.67819 0.33068 0.0
C1174 C 0.22409 0.65407 0.31665 0.0
C1175 C 0.20911 0.62665 0.32433 0.0
C1176 C 0.18722 0.62383 0.33392 0.0
C1177 C 0.18404 0.64956 0.33716 0.0
C1178 C 0.26461 0.597 0.33107 0.0
C1179 C 0.24366 0.56532 0.33384 0.0
C1180 C 0.25349 0.61641 0.32655 0.0
C1181 C 0.22121 0.60456 0.32479 0.0
C1182 C 0.20062 0.57232 0.32637 0.0
C1183 C 0.21176 0.55284 0.3308 0.0
H1184 H 0.33987 0.51405 0.34527 0.0
H1185 H 0.28221 0.5255 0.31627 0.0
H1186 H 0.38373 0.56474 0.33937 0.0
H1187 H 0.32625 0.57681 0.31034 0.0
H1188 H 0.45724 0.659 0.33219 0.0
H1189 H 0.42253 0.60539 0.32491 0.0
H1190 H 0.34456 0.62218 0.32531 0.0
H1191 H 0.37913 0.67573 0.33237 0.0
C1192 C 0.33715 0.52679 0.33712 0.0
C1193 C 0.30775 0.51613 0.33131 0.0
C1194 C 0.3623 0.55593 0.33371 0.0
C1195 C 0.3583 0.57513 0.32456 0.0
C1196 C 0.3299 0.56268 0.31754 0.0
C1197 C 0.30479 0.53316 0.32082 0.0
C1198 C 0.43285 0.65153 0.3304 0.0
C1199 C 0.42078 0.67138 0.33328 0.0
C1200 C 0.41299 0.6208 0.32619 0.0
C1201 C 0.38071 0.60934 0.32475 0.0
C1202 C 0.36931 0.63021 0.32627 0.0
C1203 C 0.38912 0.6609 0.33049 0.0
H1204 H 0.33184 0.79465 0.32809 0.0
H1205 H 0.31423 0.69969 0.32563 0.0
H1206 H 0.38635 0.81417 0.32204 0.0
H1207 H 0.36858 0.71918 0.31987 0.0
H1208 H 0.46662 0.75341 0.31502 0.0
H1209 H 0.41736 0.74838 0.30719 0.0
H1210 H 0.42318 0.81242 0.33773 0.0
H1211 H 0.47193 0.81719 0.34545 0.0
C1212 C 0.33926 0.77787 0.32584 0.0
C1213 C 0.31892 0.74563 0.32777 0.0
C1214 C 0.37055 0.7891 0.32239 0.0
C1215 C 0.382 0.7683 0.32077 0.0
C1216 C 0.36065 0.73593 0.32103 0.0
C1217 C 0.32943 0.72471 0.32449 0.0
C1218 C 0.45814 0.76765 0.31957 0.0
C1219 C 0.47276 0.78545 0.33091 0.0
C1220 C 0.42978 0.76454 0.31517 0.0
C1221 C 0.41603 0.77954 0.32198 0.0
C1222 C 0.43305 0.80062 0.33219 0.0
C1223 C 0.46104 0.80335 0.33667 0.0
H1224 H 0.19204 0.23298 0.29316 0.0
H1225 H 0.13175 0.22124 0.26002 0.0
H1226 H 0.22802 0.22733 0.27833 0.0
H1227 H 0.16761 0.21556 0.24525 0.0
H1228 H 0.23901 0.21365 0.21991 0.0
H1229 H 0.2221 0.24002 0.23551 0.0
H1230 H 0.21766 0.17773 0.26654 0.0
H1231 H 0.23454 0.15138 0.25098 0.0
C1232 C 0.18694 0.23015 0.28266 0.0
C1233 C 0.15895 0.22725 0.27774 0.0
C1234 C 0.20747 0.22678 0.2742 0.0
C1235 C 0.20055 0.22089 0.26067 0.0
C1236 C 0.17378 0.22047 0.25561 0.0
C1237 C 0.15313 0.22354 0.26408 0.0
C1238 C 0.23554 0.20632 0.23017 0.0
C1239 C 0.23767 0.18017 0.23421 0.0
C1240 C 0.22566 0.2213 0.23906 0.0
C1241 C 0.21822 0.21067 0.25217 0.0
C1242 C 0.22342 0.18658 0.25651 0.0
C1243 C 0.233 0.17141 0.2476 0.0
H1244 H 0.7969 0.03069 0.2092 0.0
H1245 H 0.85688 0.07906 0.24244 0.0
H1246 H 0.76239 0.98757 0.22374 0.0
H1247 H 0.82248 0.03597 0.25692 0.0
H1248 H 0.75405 0.95884 0.28174 0.0
H1249 H 0.76855 0.00292 0.26682 0.0
H1250 H 0.77554 0.94936 0.23455 0.0
H1251 H 0.76107 0.90534 0.24943 0.0
C1252 C 0.80222 0.03257 0.21967 0.0
C1253 C 0.82979 0.05806 0.22467 0.0
C1254 C 0.78252 0.00781 0.22796 0.0
C1255 C 0.78986 0.00834 0.24142 0.0
C1256 C 0.81602 0.03505 0.24661 0.0
C1257 C 0.83584 0.05967 0.23831 0.0
C1258 C 0.75754 0.95605 0.27136 0.0
C1259 C 0.75685 0.92881 0.26676 0.0
C1260 C 0.76605 0.98138 0.26286 0.0
C1261 C 0.77351 0.97967 0.24959 0.0
C1262 C 0.76971 0.95129 0.24471 0.0
C1263 C 0.76151 0.92609 0.25324 0.0
H1264 H 0.02646 0.79143 0.28963 0.0
H1265 H 0.09026 0.86184 0.26232 0.0
H1266 H 0.99111 0.76329 0.27132 0.0
H1267 H 0.05499 0.83379 0.24407 0.0
H1268 H 0.98927 0.77629 0.21239 0.0
H1269 H 0.02619 0.78481 0.23026 0.0
H1270 H 0.95966 0.78219 0.25875 0.0
H1271 H 0.92304 0.77393 0.24095 0.0
C1272 C 0.03346 0.80031 0.27967 0.0
C1273 C 0.06093 0.82899 0.27739 0.0
C1274 C 0.01314 0.78429 0.26921 0.0
C1275 C 0.02019 0.79649 0.25631 0.0
C1276 C 0.04905 0.82365 0.25389 0.0
C1277 C 0.06919 0.83981 0.26435 0.0
C1278 C 0.98218 0.77647 0.22251 0.0
C1279 C 0.95341 0.77462 0.22532 0.0
C1280 C 0.00337 0.78153 0.23272 0.0
C1281 C 0.99585 0.78429 0.24587 0.0
C1282 C 0.96601 0.77984 0.24873 0.0
C1283 C 0.94508 0.77525 0.23854 0.0
H1284 H 0.93651 0.86746 0.7323 0.0
H1285 H 0.846 0.81733 0.71324 0.0
H1286 H 0.91289 0.8794 0.75086 0.0
H1287 H 0.82238 0.82924 0.73215 0.0
H1288 H 0.87092 0.93986 0.76427 0.0
H1289 H 0.88194 0.91578 0.74562 0.0
H1290 H 0.82381 0.82439 0.76264 0.0
H1291 H 0.81279 0.84843 0.78165 0.0
C1292 C 0.91146 0.85835 0.73218 0.0
C1293 C 0.89325 0.84188 0.72116 0.0
C1294 C 0.898 0.8652 0.74283 0.0
C1295 C 0.86602 0.85551 0.74278 0.0
C1296 C 0.84713 0.83688 0.73234 0.0
C1297 C 0.86068 0.83007 0.72157 0.0
C1298 C 0.8599 0.91458 0.764 0.0
C1299 C 0.84139 0.89614 0.7746 0.0
C1300 C 0.86623 0.90086 0.7533 0.0
C1301 C 0.85397 0.8684 0.75286 0.0
C1302 C 0.83345 0.84952 0.76283 0.0
C1303 C 0.82717 0.86331 0.77367 0.0
H1304 H 0.12018 0.93105 0.77399 0.0
H1305 H 0.0606 0.97102 0.77991 0.0
H1306 H 0.14064 0.96217 0.75353 0.0
H1307 H 0.0813 0.00211 0.76013 0.0
H1308 H 0.18333 0.05162 0.72363 0.0
H1309 H 0.17075 0.01979 0.74397 0.0
H1310 H 0.0723 0.98441 0.73692 0.0
H1311 H 0.08462 0.01623 0.71725 0.0
C1312 C 0.1117 0.94658 0.77099 0.0
C1313 C 0.0881 0.9479 0.77829 0.0
C1314 C 0.1235 0.96445 0.75939 0.0
C1315 C 0.11198 0.98397 0.75511 0.0
C1316 C 0.08993 0.98657 0.76295 0.0
C1317 C 0.078 0.96865 0.77428 0.0
C1318 C 0.15909 0.03687 0.72649 0.0
C1319 C 0.135 0.03708 0.71912 0.0
C1320 C 0.15191 0.0186 0.73803 0.0
C1321 C 0.12059 0.00023 0.74216 0.0
C1322 C 0.09669 -0.00096 0.73422 0.0
C1323 C 0.10379 0.01736 0.72294 0.0
H1324 H 0.96569 0.14285 0.71387 0.0
H1325 H 0.92302 0.04997 0.73077 0.0
H1326 H 0.99557 0.16447 0.73429 0.0
H1327 H 0.95277 0.07153 0.751 0.0
H1328 H 0.07528 0.17067 0.76348 0.0
H1329 H 0.03996 0.15872 0.74449 0.0
H1330 H 0.96037 0.10672 0.77018 0.0
H1331 H 0.99573 0.11893 0.78905 0.0
C1332 C 0.96216 0.12714 0.72202 0.0
C1333 C 0.94214 0.09466 0.72066 0.0
C1334 C 0.97942 0.13951 0.73365 0.0
C1335 C 0.97657 0.11967 0.74419 0.0
C1336 C 0.95525 0.08746 0.74309 0.0
C1337 C 0.93832 0.07508 0.73146 0.0
C1338 C 0.0502 0.15749 0.76503 0.0
C1339 C 0.03798 0.14583 0.7776 0.0
C1340 C 0.03001 0.1507 0.75424 0.0
C1341 C 0.99744 0.13169 0.75588 0.0
C1342 C 0.98535 0.12128 0.76863 0.0
C1343 C 0.00548 0.12837 0.7794 0.0
H1344 H 0.89891 0.4795 0.5775 0.0
H1345 H 0.9093 0.53954 0.54444 0.0
H1346 H 0.88748 0.51209 0.59192 0.0
H1347 H 0.89795 0.57213 0.5589 0.0
H1348 H 0.80872 0.5618 0.58231 0.0
H1349 H 0.84337 0.55235 0.56836 0.0
H1350 H 0.90255 0.56518 0.60203 0.0
H1351 H 0.86786 0.57467 0.61605 0.0
C1352 C 0.89995 0.50032 0.57342 0.0
C1353 C 0.9042 0.50652 0.5598 0.0
C1354 C 0.89353 0.51908 0.58169 0.0
C1355 C 0.89135 0.54432 0.57644 0.0
C1356 C 0.89913 0.55256 0.56313 0.0
C1357 C 0.90575 0.53393 0.55488 0.0
C1358 C 0.8297 0.5637 0.58664 0.0
C1359 C 0.83535 0.56853 0.60028 0.0
C1360 C 0.84966 0.55844 0.57864 0.0
C1361 C 0.87553 0.55785 0.58416 0.0
C1362 C 0.88266 0.56536 0.59758 0.0
C1363 C 0.86284 0.5709 0.60556 0.0
H1364 H 0.46091 0.36253 0.55121 0.0
H1365 H 0.52046 0.41616 0.58374 0.0
H1366 H 0.42816 0.32026 0.56642 0.0
H1367 H 0.48742 0.37423 0.59896 0.0
H1368 H 0.43143 0.24261 0.59339 0.0
H1369 H 0.44307 0.28478 0.57785 0.0
H1370 H 0.43557 0.3397 0.60941 0.0
H1371 H 0.42414 0.29759 0.625 0.0
C1372 C 0.46643 0.36573 0.56166 0.0
C1373 C 0.49347 0.39245 0.56629 0.0
C1374 C 0.44774 0.34145 0.57035 0.0
C1375 C 0.45549 0.34372 0.58383 0.0
C1376 C 0.48083 0.37174 0.58862 0.0
C1377 C 0.49982 0.39577 0.57991 0.0
C1378 C 0.43118 0.26322 0.59692 0.0
C1379 C 0.42745 0.26702 0.61044 0.0
C1380 C 0.43775 0.28738 0.58801 0.0
C1381 C 0.44065 0.31572 0.59247 0.0
C1382 C 0.43386 0.31826 0.60575 0.0
C1383 C 0.42711 0.29402 0.61465 0.0
H1384 H 0.63575 0.09798 0.54263 0.0
H1385 H 0.57894 0.10016 0.57467 0.0
H1386 H 0.67803 0.10952 0.5582 0.0
H1387 H 0.62113 0.11181 0.59019 0.0
H1388 H 0.69823 0.12944 0.61692 0.0
H1389 H 0.65716 0.0971 0.60114 0.0
H1390 H 0.71116 0.16039 0.56965 0.0
H1391 H 0.75195 0.19285 0.58541 0.0
C1392 C 0.63185 0.09981 0.55306 0.0
C1393 C 0.60419 0.09854 0.55744 0.0
C1394 C 0.65616 0.10663 0.56195 0.0
C1395 C 0.65302 0.11188 0.57538 0.0
C1396 C 0.6242 0.10762 0.57992 0.0
C1397 C 0.60004 0.10106 0.57103 0.0
C1398 C 0.70173 0.13594 0.60656 0.0
C1399 C 0.72805 0.16392 0.6024 0.0
C1400 C 0.67814 0.11748 0.59755 0.0
C1401 C 0.6807 0.12648 0.58422 0.0
C1402 C 0.70845 0.15282 0.57986 0.0
C1403 C 0.73182 0.1715 0.58889 0.0
H1404 H 0.57134 0.24234 0.04225 0.0
H1405 H 0.54384 0.15162 0.05881 0.0
H1406 H 0.55215 0.25597 0.06184 0.0
H1407 H 0.52567 0.16577 0.07898 0.0
H1408 H 0.48364 0.20174 0.11145 0.0
H1409 H 0.48995 0.18154 0.09013 0.0
H1410 H 0.57562 0.26876 0.08332 0.0
H1411 H 0.56912 0.28897 0.10399 0.0
C1412 C 0.56081 0.22521 0.0501 0.0
C1413 C 0.55933 0.19617 0.04919 0.0
C1414 C 0.54997 0.23302 0.06134 0.0
C1415 C 0.53812 0.21226 0.07211 0.0
C1416 C 0.53468 0.18225 0.07084 0.0
C1417 C 0.54513 0.17417 0.05938 0.0
C1418 C 0.50358 0.21663 0.10529 0.0
C1419 C 0.52565 0.24712 0.10942 0.0
C1420 C 0.50726 0.205 0.09314 0.0
C1421 C 0.53303 0.2237 0.08495 0.0
C1422 C 0.55502 0.25399 0.08918 0.0
C1423 C 0.55131 0.26556 0.10115 0.0
H1424 H 0.84325 0.35947 0.0485 0.0
H1425 H 0.78397 0.39153 0.06578 0.0
H1426 H 0.83029 0.32243 0.06693 0.0
H1427 H 0.77101 0.35453 0.08379 0.0
H1428 H 0.71642 0.25488 0.09833 0.0
H1429 H 0.73928 0.29003 0.07961 0.0
H1430 H 0.83162 0.3246 0.0959 0.0
H1431 H 0.80882 0.28947 0.11495 0.0
C1432 C 0.82808 0.35915 0.05632 0.0
C1433 C 0.81424 0.37812 0.05554 0.0
C1434 C 0.82067 0.33793 0.0668 0.0
C1435 C 0.79926 0.33542 0.07654 0.0
C1436 C 0.78721 0.3558 0.07624 0.0
C1437 C 0.79471 0.37701 0.06591 0.0
C1438 C 0.74165 0.26943 0.09788 0.0
C1439 C 0.76072 0.26978 0.1083 0.0
C1440 C 0.75469 0.28953 0.08714 0.0
C1441 C 0.78705 0.31021 0.08651 0.0
C1442 C 0.80656 0.30881 0.09625 0.0
C1443 C 0.79346 0.2887 0.10712 0.0
H1444 H 0.72969 0.44703 0.09894 0.0
H1445 H 0.70634 0.51389 0.11527 0.0
H1446 H 0.6928 0.43599 0.08104 0.0
H1447 H 0.6694 0.50282 0.09697 0.0
H1448 H 0.59396 0.38857 0.06607 0.0
H1449 H 0.62975 0.40937 0.08471 0.0
H1450 H 0.6695 0.50259 0.06868 0.0
H1451 H 0.6337 0.48183 0.04973 0.0
C1452 C 0.71713 0.45982 0.09862 0.0
C1453 C 0.72064 0.48098 0.1087 0.0
C1454 C 0.69593 0.45338 0.08837 0.0
C1455 C 0.67793 0.46812 0.08784 0.0
C1456 C 0.68297 0.49106 0.09727 0.0
C1457 C 0.70415 0.4974 0.10768 0.0
C1458 C 0.60981 0.4136 0.06658 0.0
C1459 C 0.61136 0.43343 0.05625 0.0
C1460 C 0.63031 0.42546 0.07726 0.0
C1461 C 0.65264 0.45741 0.07793 0.0
C1462 C 0.65247 0.47783 0.0683 0.0
C1463 C 0.63195 0.4659 0.0575 0.0
H1464 H 0.47757 0.9063 0.91973 0.0
H1465 H 0.53604 0.90997 0.95232 0.0
H1466 H 0.50752 0.89244 0.90479 0.0
H1467 H 0.5659 0.896 0.93736 0.0
H1468 H 0.55253 0.80829 0.91197 0.0
H1469 H 0.5438 0.84215 0.92678 0.0
H1470 H 0.55979 0.90574 0.89447 0.0
H1471 H 0.56852 0.87185 0.8796 0.0
C1472 C 0.49754 0.90531 0.9236 0.0
C1473 C 0.50414 0.90872 0.9372 0.0
C1474 C 0.51475 0.89743 0.91505 0.0
C1475 C 0.53874 0.89274 0.91999 0.0
C1476 C 0.5473 0.89917 0.93335 0.0
C1477 C 0.5303 0.90738 0.94188 0.0
C1478 C 0.55513 0.82996 0.90811 0.0
C1479 C 0.56081 0.83721 0.89461 0.0
C1480 C 0.55029 0.84945 0.91661 0.0
C1481 C 0.55096 0.87647 0.91173 0.0
C1482 C 0.55898 0.88494 0.89844 0.0
C1483 C 0.56408 0.86558 0.88997 0.0
H1484 H 0.10077 0.57805 0.92745 0.0
H1485 H 0.09655 0.63702 0.95802 0.0
H1486 H 0.1091 0.61738 0.91092 0.0
H1487 H 0.10483 0.67644 0.94143 0.0
H1488 H 0.18455 0.74912 0.91241 0.0
H1489 H 0.15493 0.70979 0.92915 0.0
H1490 H 0.09037 0.64978 0.89917 0.0
H1491 H 0.11992 0.68933 0.88239 0.0
C1492 C 0.10052 0.59895 0.93056 0.0
C1493 C 0.09837 0.60462 0.94402 0.0
C1494 C 0.10516 0.62145 0.92109 0.0
C1495 C 0.10788 0.65011 0.92491 0.0
C1496 C 0.10306 0.65464 0.93824 0.0
C1497 C 0.09812 0.63198 0.94771 0.0
C1498 C 0.16346 0.72797 0.90947 0.0
C1499 C 0.15477 0.72211 0.8961 0.0
C1500 C 0.14641 0.70545 0.91906 0.0
C1501 C 0.12057 0.67653 0.91542 0.0
C1502 C 0.11037 0.67176 0.90221 0.0
C1503 C 0.12721 0.69448 0.89263 0.0
H1504 H 0.24722 0.43624 0.91353 0.0
H1505 H 0.30111 0.42809 0.88166 0.0
H1506 H 0.29121 0.45142 0.92855 0.0
H1507 H 0.3451 0.44339 0.8967 0.0
H1508 H 0.42084 0.53242 0.92108 0.0
H1509 H 0.37769 0.49829 0.90652 0.0
H1510 H 0.32944 0.4374 0.9395 0.0
H1511 H 0.37265 0.4715 0.95409 0.0
C1512 C 0.26804 0.43663 0.90985 0.0
C1513 C 0.27088 0.43141 0.8964 0.0
C1514 C 0.29321 0.44524 0.91846 0.0
C1515 C 0.32164 0.44889 0.91372 0.0
C1516 C 0.3235 0.44099 0.90055 0.0
C1517 C 0.29822 0.43206 0.89198 0.0
C1518 C 0.40149 0.51124 0.92513 0.0
C1519 C 0.39997 0.5048 0.93873 0.0
C1520 C 0.37684 0.49162 0.9168 0.0
C1521 C 0.35019 0.46531 0.92193 0.0
C1522 C 0.34967 0.45764 0.93533 0.0
C1523 C 0.37448 0.4771 0.94365 0.0
H1524 H 0.17665 0.51691 0.4573 0.0
H1525 H 0.16882 0.58099 0.43062 0.0
H1526 H 0.18834 0.49286 0.4385 0.0
H1527 H 0.1792 0.55614 0.41183 0.0
H1528 H 0.2661 0.52038 0.40256 0.0
H1529 H 0.24159 0.52773 0.42223 0.0
H1530 H 0.15562 0.49607 0.40053 0.0
H1531 H 0.17968 0.48778 0.38091 0.0
C1532 C 0.17623 0.52498 0.44736 0.0
C1533 C 0.17175 0.55063 0.44531 0.0
C1534 C 0.18306 0.51138 0.43668 0.0
C1535 C 0.1845 0.52268 0.42381 0.0
C1536 C 0.17785 0.54688 0.42168 0.0
C1537 C 0.17196 0.56107 0.43238 0.0
C1538 C 0.24174 0.51422 0.40208 0.0
C1539 C 0.22484 0.50364 0.3902 0.0
C1540 C 0.22772 0.51827 0.41333 0.0
C1541 C 0.19681 0.5124 0.4128 0.0
C1542 C 0.17945 0.50055 0.40113 0.0
C1543 C 0.19322 0.49579 0.38996 0.0
H1544 H 0.50849 0.69483 0.38458 0.0
H1545 H 0.44162 0.72019 0.39912 0.0
H1546 H 0.49679 0.6597 0.40364 0.0
H1547 H 0.42997 0.68507 0.41775 0.0
H1548 H 0.38209 0.58762 0.43453 0.0
H1549 H 0.40343 0.62131 0.41528 0.0
H1550 H 0.49604 0.66353 0.43214 0.0
H1551 H 0.4747 0.62987 0.45173 0.0
C1552 C 0.49182 0.69343 0.39191 0.0
C1553 C 0.47567 0.71005 0.39019 0.0
C1554 C 0.48515 0.6733 0.40277 0.0
C1555 C 0.46212 0.6694 0.41195 0.0
C1556 C 0.44747 0.68737 0.41066 0.0
C1557 C 0.45426 0.70756 0.39997 0.0
C1558 C 0.40712 0.60357 0.43409 0.0
C1559 C 0.42659 0.60644 0.4448 0.0
C1560 C 0.41928 0.62286 0.42306 0.0
C1561 C 0.4512 0.64526 0.4224 0.0
C1562 C 0.4713 0.6464 0.43249 0.0
C1563 C 0.45906 0.6271 0.44366 0.0
H1564 H 0.38127 0.85059 0.44373 0.0
H1565 H 0.40646 0.78171 0.43203 0.0
H1566 H 0.35265 0.84196 0.42294 0.0
H1567 H 0.37731 0.77243 0.41177 0.0
H1568 H 0.26779 0.778 0.39474 0.0
H1569 H 0.30431 0.80071 0.41338 0.0
H1570 H 0.37463 0.79252 0.391 0.0
H1571 H 0.33761 0.7685 0.37287 0.0
C1572 C 0.38111 0.83399 0.43668 0.0
C1573 C 0.39603 0.81671 0.43962 0.0
C1574 C 0.36448 0.82885 0.42483 0.0
C1575 C 0.36256 0.80644 0.41569 0.0
C1576 C 0.37865 0.79026 0.41843 0.0
C1577 C 0.39525 0.79543 0.43017 0.0
C1578 C 0.29126 0.78162 0.39385 0.0
C1579 C 0.30002 0.77132 0.38258 0.0
C1580 C 0.31224 0.79475 0.40443 0.0
C1581 C 0.34227 0.79797 0.40377 0.0
C1582 C 0.35147 0.78964 0.392 0.0
C1583 C 0.33042 0.77609 0.38159 0.0
H1584 H 0.29007 0.10519 0.19325 0.0
H1585 H 0.24549 0.1385 0.16614 0.0
H1586 H 0.3329 0.1206 0.17796 0.0
H1587 H 0.28838 0.15326 0.1504 0.0
H1588 H 0.39491 0.22807 0.14424 0.0
H1589 H 0.34078 0.19598 0.151 0.0
H1590 H 0.35622 0.11824 0.15798 0.0
H1591 H 0.41103 0.15107 0.15176 0.0
C1592 C 0.289 0.11502 0.18381 0.0
C1593 C 0.26478 0.12126 0.18101 0.0
C1594 C 0.31351 0.12359 0.17492 0.0
C1595 C 0.31441 0.13859 0.16296 0.0
C1596 C 0.28868 0.14226 0.15962 0.0
C1597 C 0.26402 0.13363 0.16859 0.0
C1598 C 0.38659 0.2039 0.1469 0.0
C1599 C 0.4074 0.19233 0.14784 0.0
C1600 C 0.35535 0.18531 0.15068 0.0
C1601 C 0.34422 0.15467 0.15535 0.0
C1602 C 0.36425 0.14204 0.1548 0.0
C1603 C 0.39563 0.16079 0.15119 0.0
H1604 H 0.91612 0.18895 0.18683 0.0
H1605 H 0.88045 0.11142 0.15947 0.0
H1606 H 0.8969 0.21532 0.17281 0.0
H1607 H 0.86191 0.13849 0.14498 0.0
H1608 H 0.78073 0.16227 0.14412 0.0
H1609 H 0.81733 0.14408 0.14849 0.0
H1610 H 0.89166 0.23977 0.15383 0.0
H1611 H 0.8544 0.25781 0.15003 0.0
C1612 C 0.90517 0.17808 0.17752 0.0
C1613 C 0.899 0.1478 0.1744 0.0
C1614 C 0.89432 0.19337 0.16937 0.0
C1615 C 0.8771 0.17872 0.15788 0.0
C1616 C 0.87438 0.15006 0.15394 0.0
C1617 C 0.88526 0.13467 0.16216 0.0
C1618 C 0.80502 0.17948 0.14596 0.0
C1619 C 0.81455 0.21137 0.1471 0.0
C1620 C 0.82619 0.16907 0.14833 0.0
C1621 C 0.85745 0.19041 0.15175 0.0
C1622 C 0.8676 0.22263 0.15155 0.0
C1623 C 0.84628 0.23299 0.14937 0.0
H1624 H 0.82858 0.72768 0.18461 0.0
H1625 H 0.90581 0.76168 0.15716 0.0
H1626 H 0.79926 0.68121 0.17142 0.0
H1627 H 0.87567 0.71519 0.1434 0.0
H1628 H 0.84092 0.60775 0.14237 0.0
H1629 H 0.8644 0.6633 0.14673 0.0
H1630 H 0.7724 0.65163 0.15303 0.0
H1631 H 0.74907 0.59544 0.14937 0.0
C1632 C 0.8389 0.72565 0.17547 0.0
C1633 C 0.86976 0.74791 0.17208 0.0
C1634 C 0.82187 0.69899 0.16777 0.0
C1635 C 0.83523 0.69397 0.15641 0.0
C1636 C 0.86494 0.71793 0.15226 0.0
C1637 C 0.88212 0.74472 0.16006 0.0
C1638 C 0.82565 0.61713 0.14444 0.0
C1639 C 0.79324 0.59718 0.14588 0.0
C1640 C 0.83912 0.64918 0.14682 0.0
C1641 C 0.8204 0.66205 0.15049 0.0
C1642 C 0.78763 0.64242 0.15059 0.0
C1643 C 0.77421 0.61023 0.14846 0.0
H1644 H 0.13477 0.40173 0.34917 0.0
H1645 H 0.20764 0.37877 0.35529 0.0
H1646 H 0.09645 0.34625 0.34671 0.0
H1647 H 0.17 0.32377 0.3522 0.0
H1648 H 0.10671 0.22808 0.34285 0.0
H1649 H 0.1255 0.27458 0.35675 0.0
H1650 H 0.08882 0.31399 0.32849 0.0
H1651 H 0.06926 0.26746 0.31509 0.0
C1652 C 0.1425 0.38477 0.35013 0.0
C1653 C 0.17426 0.39452 0.35207 0.0
C1654 C 0.12057 0.35299 0.34874 0.0
C1655 C 0.13014 0.33047 0.34898 0.0
C1656 C 0.16155 0.34023 0.35205 0.0
C1657 C 0.18333 0.37192 0.35366 0.0
C1658 C 0.10153 0.24615 0.33996 0.0
C1659 C 0.08738 0.24467 0.32772 0.0
C1660 C 0.11254 0.27294 0.34785 0.0
C1661 C 0.10965 0.29854 0.34354 0.0
C1662 C 0.09168 0.29497 0.33218 0.0
C1663 C 0.08061 0.26826 0.32438 0.0
H1664 H 0.58597 0.72712 0.34672 0.0
H1665 H 0.60638 0.82118 0.35547 0.0
H1666 H 0.64057 0.74716 0.34062 0.0
H1667 H 0.66029 0.84137 0.34881 0.0
H1668 H 0.75474 0.87688 0.33387 0.0
H1669 H 0.71156 0.84871 0.34943 0.0
H1670 H 0.66569 0.77343 0.32109 0.0
H1671 H 0.70893 0.80084 0.30598 0.0
C1672 C 0.60225 0.75201 0.34757 0.0
C1673 C 0.59179 0.77267 0.35126 0.0
C1674 C 0.63352 0.76354 0.34403 0.0
C1675 C 0.65476 0.79599 0.34388 0.0
C1676 C 0.64481 0.81626 0.34882 0.0
C1677 C 0.61369 0.80468 0.35254 0.0
C1678 C 0.73588 0.85383 0.33121 0.0
C1679 C 0.73484 0.84133 0.31861 0.0
C1680 C 0.71102 0.83778 0.34007 0.0
C1681 C 0.68475 0.80905 0.33644 0.0
C1682 C 0.68544 0.79534 0.32434 0.0
C1683 C 0.71022 0.81126 0.31556 0.0
H1684 H 0.09151 0.839 0.34013 0.0
H1685 H 0.17446 0.92443 0.32882 0.0
H1686 H 0.12357 0.82148 0.35134 0.0
H1687 H 0.20682 0.90831 0.3409 0.0
H1688 H 0.18363 0.78713 0.36677 0.0
H1689 H 0.15893 0.81931 0.36582 0.0
H1690 H 0.2212 0.87282 0.33385 0.0
H1691 H 0.24669 0.84187 0.33539 0.0
C1692 C 0.11655 0.8548 0.34073 0.0
C1693 C 0.13067 0.88277 0.33351 0.0
C1694 C 0.1351 0.8448 0.34717 0.0
C1695 C 0.16804 0.86301 0.34667 0.0
C1696 C 0.18166 0.89311 0.34105 0.0
C1697 C 0.16316 0.90263 0.3343 0.0
C1698 C 0.19242 0.80629 0.35977 0.0
C1699 C 0.21672 0.81173 0.351 0.0
C1700 C 0.17819 0.82467 0.35918 0.0
C1701 C 0.18759 0.84847 0.34963 0.0
C1702 C 0.21341 0.85511 0.34149 0.0
C1703 C 0.22796 0.83711 0.34226 0.0
H1704 H 0.71595 0.88403 0.81086 0.0
H1705 H 0.73275 0.80709 0.81722 0.0
H1706 H 0.66111 0.85037 0.81621 0.0
H1707 H 0.67728 0.77267 0.82194 0.0
H1708 H 0.6044 0.75228 0.85527 0.0
H1709 H 0.6494 0.76988 0.84105 0.0
H1710 H 0.60954 0.80787 0.81366 0.0
H1711 H 0.56455 0.79101 0.8284 0.0
C1712 C 0.70769 0.85961 0.813 0.0
C1713 C 0.72874 0.84836 0.81396 0.0
C1714 C 0.67605 0.84011 0.81594 0.0
C1715 C 0.66471 0.80881 0.81975 0.0
C1716 C 0.68533 0.79685 0.81939 0.0
C1717 C 0.71711 0.81652 0.81665 0.0
C1718 C 0.60478 0.76364 0.84604 0.0
C1719 C 0.58136 0.77095 0.84309 0.0
C1720 C 0.63059 0.77356 0.83776 0.0
C1721 C 0.63356 0.79095 0.82628 0.0
C1722 C 0.60836 0.79519 0.82259 0.0
C1723 C 0.58242 0.78527 0.83095 0.0
H1724 H 0.23466 0.84518 0.85368 0.0
H1725 H 0.19242 0.7644 0.82804 0.0
H1726 H 0.21694 0.87217 0.8393 0.0
H1727 H 0.17547 0.79212 0.81308 0.0
H1728 H 0.10092 0.82451 0.81045 0.0
H1729 H 0.1342 0.80272 0.81547 0.0
H1730 H 0.21326 0.89621 0.82017 0.0
H1731 H 0.17918 0.91788 0.81587 0.0
C1732 C 0.22244 0.83357 0.84467 0.0
C1733 C 0.21424 0.80242 0.84214 0.0
C1734 C 0.21247 0.84924 0.83629 0.0
C1735 C 0.19413 0.83419 0.82509 0.0
C1736 C 0.18889 0.80416 0.82179 0.0
C1737 C 0.19884 0.78835 0.83027 0.0
C1738 C 0.12556 0.84045 0.81227 0.0
C1739 C 0.1373 0.87284 0.81313 0.0
C1740 C 0.14484 0.82794 0.81504 0.0
C1741 C 0.17641 0.84763 0.81853 0.0
C1742 C 0.18885 0.88027 0.81792 0.0
C1743 C 0.16939 0.89275 0.81541 0.0
H1744 H 0.14297 0.38542 0.85564 0.0
H1745 H 0.22258 0.42481 0.82934 0.0
H1746 H 0.11564 0.34082 0.84125 0.0
H1747 H 0.19447 0.38027 0.81437 0.0
H1748 H 0.16294 0.27367 0.81118 0.0
H1749 H 0.18451 0.32859 0.81648 0.0
H1750 H 0.09089 0.31312 0.82227 0.0
H1751 H 0.06953 0.25753 0.81772 0.0
C1752 C 0.15422 0.38502 0.84649 0.0
C1753 C 0.18518 0.40816 0.84377 0.0
C1754 C 0.13835 0.35945 0.8381 0.0
C1755 C 0.15301 0.35644 0.82671 0.0
C1756 C 0.18276 0.38143 0.82323 0.0
C1757 C 0.19878 0.40712 0.83172 0.0
C1758 C 0.14694 0.28213 0.81333 0.0
C1759 C 0.11464 0.26125 0.8144 0.0
C1760 C 0.1593 0.31382 0.81625 0.0
C1761 C 0.13953 0.32536 0.82009 0.0
C1762 C 0.10691 0.30491 0.81975 0.0
C1763 C 0.09461 0.27307 0.81711 0.0
H1764 H 0.78112 0.56686 0.66544 0.0
H1765 H 0.74765 0.61 0.63767 0.0
H1766 H 0.79822 0.61165 0.68028 0.0
H1767 H 0.76564 0.65488 0.65201 0.0
H1768 H 0.8042 0.738 0.67632 0.0
H1769 H 0.76835 0.68317 0.67097 0.0
H1770 H 0.84235 0.66221 0.67834 0.0
H1771 H 0.87737 0.7164 0.68428 0.0
C1772 C 0.77656 0.58544 0.66269 0.0
C1773 C 0.7637 0.5853 0.65028 0.0
C1774 C 0.78665 0.61127 0.67112 0.0
C1775 C 0.78412 0.63737 0.66723 0.0
C1776 C 0.76802 0.63539 0.65545 0.0
C1777 C 0.75787 0.60963 0.64711 0.0
C1778 C 0.81248 0.72145 0.67709 0.0
C1779 C 0.84374 0.73157 0.68044 0.0
C1780 C 0.79199 0.69002 0.67399 0.0
C1781 C 0.80253 0.66823 0.67394 0.0
C1782 C 0.83314 0.67806 0.67835 0.0
C1783 C 0.85344 0.70934 0.68164 0.0
H1784 H 0.41149 0.14633 0.65918 0.0
H1785 H 0.41335 0.23103 0.6712 0.0
H1786 H 0.36454 0.11545 0.67238 0.0
H1787 H 0.3651 0.20053 0.68345 0.0
H1788 H 0.27206 0.14389 0.70058 0.0
H1789 H 0.32862 0.16716 0.69837 0.0
H1790 H 0.31407 0.10094 0.66722 0.0
H1791 H 0.2581 0.0768 0.67013 0.0
C1792 C 0.4023 0.15833 0.66503 0.0
C1793 C 0.41576 0.19091 0.66418 0.0
C1794 C 0.37506 0.14068 0.67241 0.0
C1795 C 0.36002 0.15521 0.67858 0.0
C1796 C 0.37568 0.18822 0.67889 0.0
C1797 C 0.40352 0.20591 0.67186 0.0
C1798 C 0.28115 0.1339 0.69351 0.0
C1799 C 0.26075 0.10884 0.68538 0.0
C1800 C 0.31359 0.14736 0.69217 0.0
C1801 C 0.3263 0.13652 0.68243 0.0
C1802 C 0.30561 0.10993 0.67498 0.0
C1803 C 0.27327 0.0961 0.67654 0.0
H1804 H 0.85505 0.24662 0.64193 0.0
H1805 H 0.77736 0.20749 0.66924 0.0
H1806 H 0.88266 0.2283 0.65565 0.0
H1807 H 0.80572 0.18995 0.68348 0.0
H1808 H 0.8346 0.11271 0.68481 0.0
H1809 H 0.81399 0.14718 0.6802 0.0
H1810 H 0.90814 0.22428 0.67444 0.0
H1811 H 0.92863 0.18907 0.67844 0.0
C1812 C 0.84433 0.23502 0.65116 0.0
C1813 C 0.81374 0.22776 0.65435 0.0
C1814 C 0.86035 0.2247 0.65915 0.0
C1815 C 0.8462 0.20696 0.67058 0.0
C1816 C 0.81699 0.20287 0.67456 0.0
C1817 C 0.80084 0.21316 0.66648 0.0
C1818 C 0.85096 0.13716 0.68281 0.0
C1819 C 0.88315 0.14803 0.68163 0.0
C1820 C 0.83915 0.15712 0.6803 0.0
C1821 C 0.85933 0.18852 0.6767 0.0
C1822 C 0.89184 0.20006 0.67684 0.0
C1823 C 0.90362 0.17993 0.67916 0.0
H1824 H 0.05018 0.53155 0.46854 0.0
H1825 H 0.06862 0.48529 0.50063 0.0
H1826 H 0.99403 0.4971 0.4716 0.0
H1827 H 0.01302 0.45232 0.50431 0.0
H1828 H 0.91658 0.39738 0.51312 0.0
H1829 H 0.96301 0.41363 0.49954 0.0
H1830 H 0.95762 0.49447 0.48659 0.0
H1831 H 0.90994 0.47651 0.49929 0.0
C1832 C 0.04216 0.51382 0.47619 0.0
C1833 C 0.06368 0.51136 0.48449 0.0
C1834 C 0.00997 0.49413 0.47799 0.0
C1835 C -0.00136 0.47205 0.48833 0.0
C1836 C 0.02046 0.46852 0.49609 0.0
C1837 C 0.05256 0.48774 0.4941 0.0
C1838 C 0.92456 0.4177 0.50679 0.0
C1839 C 0.91003 0.43589 0.50727 0.0
C1840 C 0.95147 0.42739 0.49918 0.0
C1841 C 0.96505 0.45617 0.49239 0.0
C1842 C 0.94816 0.47225 0.49166 0.0
C1843 C 0.92064 0.46195 0.49895 0.0
H1844 H 0.5755 0.52163 0.52798 0.0
H1845 H 0.54065 0.44519 0.50008 0.0
H1846 H 0.55727 0.54887 0.51394 0.0
H1847 H 0.52319 0.47318 0.48557 0.0
H1848 H 0.44505 0.5005 0.48227 0.0
H1849 H 0.47942 0.48041 0.48801 0.0
H1850 H 0.55498 0.57482 0.49488 0.0
H1851 H 0.51985 0.5948 0.48969 0.0
C1852 C 0.56486 0.51112 0.51858 0.0
C1853 C 0.55883 0.48097 0.51527 0.0
C1854 C 0.55459 0.52693 0.51042 0.0
C1855 C 0.53813 0.513 0.49869 0.0
C1856 C 0.53513 0.48425 0.49469 0.0
C1857 C 0.54539 0.46833 0.50293 0.0
C1858 C 0.46917 0.51705 0.48475 0.0
C1859 C 0.47955 0.54916 0.48584 0.0
C1860 C 0.48908 0.50553 0.48792 0.0
C1861 C 0.51996 0.52591 0.49213 0.0
C1862 C 0.53113 0.55836 0.492 0.0
C1863 C 0.51105 0.56986 0.48899 0.0
H1864 H 0.55698 0.09679 0.4912 0.0
H1865 H 0.47673 0.05694 0.51714 0.0
H1866 H 0.52989 0.05178 0.4764 0.0
H1867 H 0.45026 0.01192 0.50284 0.0
H1868 H 0.40681 0.92761 0.47974 0.0
H1869 H 0.42676 0.98326 0.48357 0.0
H1870 H 0.52146 0.00058 0.47979 0.0
H1871 H 0.50146 0.94553 0.47536 0.0
C1872 C 0.5332 0.07894 0.49351 0.0
C1873 C 0.51919 0.07993 0.50545 0.0
C1874 C 0.51776 0.05301 0.48511 0.0
C1875 C 0.48817 0.02774 0.48857 0.0
C1876 C 0.47292 0.03076 0.49975 0.0
C1877 C 0.48826 0.05657 0.50808 0.0
C1878 C 0.43185 0.94352 0.47939 0.0
C1879 C 0.45262 0.93217 0.47758 0.0
C1880 C 0.44331 0.9754 0.48161 0.0
C1881 C 0.47577 0.99642 0.48231 0.0
C1882 C 0.49635 0.98531 0.47927 0.0
C1883 C 0.48487 0.95355 0.47686 0.0
H1884 H 0.53053 0.06097 0.02919 0.0
H1885 H 0.48312 0.07954 0.99763 0.0
H1886 H 0.49648 0.00484 0.02592 0.0
H1887 H 0.45073 0.02408 0.99365 0.0
H1888 H 0.47745 0.92184 0.99814 0.0
H1889 H 0.49446 0.96922 0.01092 0.0
H1890 H 0.41334 0.97359 0.99747 0.0
H1891 H 0.39825 0.9276 0.98374 0.0
C1892 C 0.51257 0.05297 0.02164 0.0
C1893 C 0.50973 0.07453 0.01353 0.0
C1894 C 0.49315 0.02078 0.01968 0.0
C1895 C 0.47107 0.00952 0.00932 0.0
C1896 C 0.46697 0.03137 0.00186 0.0
C1897 C 0.48584 0.06344 0.00404 0.0
C1898 C 0.46272 0.93236 0.99833 0.0
C1899 C 0.43687 0.92152 0.98986 0.0
C1900 C 0.47242 0.95967 0.00569 0.0
C1901 C 0.45593 0.97617 0.00492 0.0
C1902 C 0.42747 0.96246 0.99787 0.0
C1903 C 0.41844 0.93579 0.99016 0.0
H1904 H 0.92807 0.41433 0.00289 0.0
H1905 H 0.94205 0.47919 0.03435 0.0
H1906 H 0.98404 0.43861 -6e-05 0.0
H1907 H -0.0014 0.5025 0.03211 0.0
H1908 H 0.08155 0.48419 0.99208 0.0
H1909 H 0.03437 0.45246 0.00502 0.0
H1910 H 0.03523 0.53686 0.01753 0.0
H1911 H 0.0837 0.56813 0.00554 0.0
C1912 C 0.94325 0.43318 0.00949 0.0
C1913 C 0.93078 0.4453 0.01865 0.0
C1914 C 0.97558 0.44706 0.00791 0.0
C1915 C 0.99627 0.47302 0.01568 0.0
C1916 C 0.98357 0.48322 0.02568 0.0
C1917 C 0.95115 0.46976 0.02703 0.0
C1918 C 0.07232 0.4958 0.99816 0.0
C1919 C 0.08592 0.52844 0.9978 0.0
C1920 C 0.04499 0.47768 0.00541 0.0
C1921 C 0.03001 0.49186 0.01192 0.0
C1922 C 0.04577 0.52482 0.0127 0.0
C1923 C 0.07371 0.54294 0.0058 0.0
H1924 H 0.45263 0.55451 0.00445 0.0
H1925 H 0.52967 0.58989 0.97685 0.0
H1926 H 0.48019 0.53657 0.01895 0.0
H1927 H 0.55647 0.57116 0.99087 0.0
H1928 H 0.60022 0.53016 0.01398 0.0
H1929 H 0.58162 0.56683 0.00973 0.0
H1930 H 0.48637 0.4924 0.01602 0.0
H1931 H 0.50511 0.4565 0.02085 0.0
C1932 C 0.47584 0.55932 0.00168 0.0
C1933 C 0.48871 0.5729 0.98939 0.0
C1934 C 0.49153 0.54878 0.00992 0.0
C1935 C 0.52022 0.55161 0.00595 0.0
C1936 C 0.53452 0.56851 0.99435 0.0
C1937 C 0.51897 0.57908 0.9862 0.0
C1938 C 0.57539 0.52193 0.01477 0.0
C1939 C 0.55405 0.49033 0.01744 0.0
C1940 C 0.56469 0.5429 0.01231 0.0
C1941 C 0.5324 0.53251 0.01224 0.0
C1942 C 0.5114 0.50147 0.01606 0.0
C1943 C 0.52214 0.48068 0.0187 0.0
loop_
_geom_bond_atom_site_label_1
_geom_bond_atom_site_label_2
_geom_bond_distance
_geom_bond_site_symmetry_2
_ccdc_geom_bond_type
Co0 O1 2.216 . S
Co0 O2 2.091 . S
Co0 O4 2.004 . S
Co0 O10 2.021 . S
Co0 O12 2.137 . S
Co0 O13 2.244 . S
O1 Co0 2.216 . S
O1 C8 1.247 . S
O2 Co0 2.091 . S
O2 C8 1.261 . S
C3 O12 1.247 . S
C3 O13 1.272 . S
O4 Co0 2.004 . S
O4 C9 1.259 . S
Co5 O6 2.061 . S
Co5 O11 2.052 . S
Co5 O13 2.135 . S
O6 Co5 2.061 . S
O6 C9 1.235 . S
C7 O10 1.238 . S
C7 O11 1.241 . S
C8 O1 1.247 . S
C8 O2 1.261 . S
C9 O4 1.259 . S
C9 O6 1.235 . S
O10 Co0 2.021 . S
O10 C7 1.238 . S
O11 Co5 2.052 . S
O11 C7 1.241 . S
O12 Co0 2.137 . S
O12 C3 1.247 . S
O13 Co0 2.244 . S
O13 C3 1.272 . S
O13 Co5 2.135 . S
Co14 O15 2.216 . S
Co14 O16 2.091 . S
Co14 O18 2.004 1_545 S
Co14 O24 2.021 . S
Co14 O26 2.137 . S
Co14 O27 2.244 . S
O15 Co14 2.216 . S
O15 C22 1.247 . S
O16 Co14 2.091 . S
O16 C22 1.261 . S
C17 O26 1.247 . S
C17 O27 1.272 . S
O18 Co14 2.004 1_565 S
O18 C23 1.259 . S
Co19 O20 2.061 1_545 S
Co19 O25 2.052 . S
Co19 O27 2.135 . S
O20 Co19 2.061 1_565 S
O20 C23 1.235 . S
C21 O24 1.238 . S
C21 O25 1.241 . S
C22 O15 1.247 . S
C22 O16 1.261 . S
C23 O18 1.259 . S
C23 O20 1.235 . S
O24 Co14 2.021 . S
O24 C21 1.238 . S
O25 Co19 2.052 . S
O25 C21 1.241 . S
O26 Co14 2.137 . S
O26 C17 1.247 . S
O27 Co14 2.244 . S
O27 C17 1.272 . S
O27 Co19 2.135 . S
Co28 O29 2.216 . S
Co28 O30 2.091 . S
Co28 O32 2.004 1_655 S
Co28 O38 2.021 . S
Co28 O40 2.137 . S
Co28 O41 2.244 . S
O29 Co28 2.216 . S
O29 C36 1.247 . S
O30 Co28 2.091 . S
O30 C36 1.261 . S
C31 O40 1.247 . S
C31 O41 1.272 . S
O32 Co28 2.004 1_455 S
O32 C37 1.259 . S
Co33 O34 2.061 1_655 S
Co33 O39 2.052 . S
Co33 O41 2.135 . S
O34 Co33 2.061 1_455 S
O34 C37 1.235 . S
C35 O38 1.238 . S
C35 O39 1.241 . S
C36 O29 1.247 . S
C36 O30 1.261 . S
C37 O32 1.259 . S
C37 O34 1.235 . S
O38 Co28 2.021 . S
O38 C35 1.238 . S
O39 Co33 2.052 . S
O39 C35 1.241 . S
O40 Co28 2.137 . S
O40 C31 1.247 . S
O41 Co28 2.244 . S
O41 C31 1.272 . S
O41 Co33 2.135 . S
Co42 O43 2.216 . S
Co42 O44 2.091 . S
Co42 O46 2.004 . S
Co42 O52 2.021 . S
Co42 O54 2.137 . S
Co42 O55 2.244 . S
O43 Co42 2.216 . S
O43 C50 1.247 . S
O44 Co42 2.091 . S
O44 C50 1.261 . S
C45 O54 1.247 . S
C45 O55 1.272 . S
O46 Co42 2.004 . S
O46 C51 1.259 . S
Co47 O48 2.061 . S
Co47 O53 2.052 . S
Co47 O55 2.135 . S
O48 Co47 2.061 . S
O48 C51 1.235 . S
C49 O52 1.238 . S
C49 O53 1.241 . S
C50 O43 1.247 . S
C50 O44 1.261 . S
C51 O46 1.259 . S
C51 O48 1.235 . S
O52 Co42 2.021 . S
O52 C49 1.238 . S
O53 Co47 2.052 . S
O53 C49 1.241 . S
O54 Co42 2.137 . S
O54 C45 1.247 . S
O55 Co42 2.244 . S
O55 C45 1.272 . S
O55 Co47 2.135 . S
Co56 O57 2.216 . S
Co56 O58 2.091 . S
Co56 O60 2.004 1_565 S
Co56 O66 2.021 . S
Co56 O68 2.137 . S
Co56 O69 2.244 . S
O57 Co56 2.216 . S
O57 C64 1.247 . S
O58 Co56 2.091 . S
O58 C64 1.261 . S
C59 O68 1.247 . S
C59 O69 1.272 . S
O60 Co56 2.004 1_545 S
O60 C65 1.259 . S
Co61 O62 2.061 1_565 S
Co61 O67 2.052 . S
Co61 O69 2.135 . S
O62 Co61 2.061 1_545 S
O62 C65 1.235 . S
C63 O66 1.238 . S
C63 O67 1.241 . S
C64 O57 1.247 . S
C64 O58 1.261 . S
C65 O60 1.259 . S
C65 O62 1.235 . S
O66 Co56 2.021 . S
O66 C63 1.238 . S
O67 Co61 2.052 . S
O67 C63 1.241 . S
O68 Co56 2.137 . S
O68 C59 1.247 . S
O69 Co56 2.244 . S
O69 C59 1.272 . S
O69 Co61 2.135 . S
Co70 O71 2.216 . S
Co70 O72 2.091 . S
Co70 O74 2.004 1_455 S
Co70 O80 2.021 . S
Co70 O82 2.137 . S
Co70 O83 2.244 . S
O71 Co70 2.216 . S
O71 C78 1.247 . S
O72 Co70 2.091 . S
O72 C78 1.261 . S
C73 O82 1.247 . S
C73 O83 1.272 . S
O74 Co70 2.004 1_655 S
O74 C79 1.259 . S
Co75 O76 2.061 1_455 S
Co75 O81 2.052 . S
Co75 O83 2.135 . S
O76 Co75 2.061 1_655 S
O76 C79 1.235 . S
C77 O80 1.238 . S
C77 O81 1.241 . S
C78 O71 1.247 . S
C78 O72 1.261 . S
C79 O74 1.259 . S
C79 O76 1.235 . S
O80 Co70 2.021 . S
O80 C77 1.238 . S
O81 Co75 2.052 . S
O81 C77 1.241 . S
O82 Co70 2.137 . S
O82 C73 1.247 . S
O83 Co70 2.244 . S
O83 C73 1.272 . S
O83 Co75 2.135 . S
Co84 O85 2.216 . S
Co84 O86 2.091 . S
Co84 O88 2.004 . S
Co84 O94 2.021 . S
Co84 O96 2.137 . S
Co84 O97 2.244 . S
O85 Co84 2.216 . S
O85 C92 1.247 . S
O86 Co84 2.091 . S
O86 C92 1.261 . S
C87 O96 1.247 . S
C87 O97 1.272 . S
O88 Co84 2.004 . S
O88 C93 1.259 . S
Co89 O90 2.061 . S
Co89 O95 2.052 . S
Co89 O97 2.135 . S
O90 Co89 2.061 . S
O90 C93 1.235 . S
C91 O94 1.238 . S
C91 O95 1.241 . S
C92 O85 1.247 . S
C92 O86 1.261 . S
C93 O88 1.259 . S
C93 O90 1.235 . S
O94 Co84 2.021 . S
O94 C91 1.238 . S
O95 Co89 2.052 . S
O95 C91 1.241 . S
O96 Co84 2.137 . S
O96 C87 1.247 . S
O97 Co84 2.244 . S
O97 C87 1.272 . S
O97 Co89 2.135 . S
Co98 O99 2.216 . S
Co98 O100 2.091 . S
Co98 O102 2.004 1_565 S
Co98 O108 2.021 . S
Co98 O110 2.137 . S
Co98 O111 2.244 . S
O99 Co98 2.216 . S
O99 C106 1.247 . S
O100 Co98 2.091 . S
O100 C106 1.261 . S
C101 O110 1.247 . S
C101 O111 1.272 . S
O102 Co98 2.004 1_545 S
O102 C107 1.259 . S
Co103 O104 2.061 1_565 S
Co103 O109 2.052 . S
Co103 O111 2.135 . S
O104 Co103 2.061 1_545 S
O104 C107 1.235 . S
C105 O108 1.238 . S
C105 O109 1.241 . S
C106 O99 1.247 . S
C106 O100 1.261 . S
C107 O102 1.259 . S
C107 O104 1.235 . S
O108 Co98 2.021 . S
O108 C105 1.238 . S
O109 Co103 2.052 . S
O109 C105 1.241 . S
O110 Co98 2.137 . S
O110 C101 1.247 . S
O111 Co98 2.244 . S
O111 C101 1.272 . S
O111 Co103 2.135 . S
Co112 O113 2.216 . S
Co112 O114 2.091 . S
Co112 O116 2.004 1_455 S
Co112 O122 2.021 . S
Co112 O124 2.137 . S
Co112 O125 2.244 . S
O113 Co112 2.216 . S
O113 C120 1.247 . S
O114 Co112 2.091 . S
O114 C120 1.261 . S
C115 O124 1.247 . S
C115 O125 1.272 . S
O116 Co112 2.004 1_655 S
O116 C121 1.259 . S
Co117 O118 2.061 1_455 S
Co117 O123 2.052 . S
Co117 O125 2.135 . S
O118 Co117 2.061 1_655 S
O118 C121 1.235 . S
C119 O122 1.238 . S
C119 O123 1.241 . S
C120 O113 1.247 . S
C120 O114 1.261 . S
C121 O116 1.259 . S
C121 O118 1.235 . S
O122 Co112 2.021 . S
O122 C119 1.238 . S
O123 Co117 2.052 . S
O123 C119 1.241 . S
O124 Co112 2.137 . S
O124 C115 1.247 . S
O125 Co112 2.244 . S
O125 C115 1.272 . S
O125 Co117 2.135 . S
Co126 O127 2.216 . S
Co126 O128 2.091 . S
Co126 O130 2.004 . S
Co126 O136 2.021 . S
Co126 O138 2.137 . S
Co126 O139 2.244 . S
O127 Co126 2.216 . S
O127 C134 1.247 . S
O128 Co126 2.091 . S
O128 C134 1.261 . S
C129 O138 1.247 . S
C129 O139 1.272 . S
O130 Co126 2.004 . S
O130 C135 1.259 . S
Co131 O132 2.061 . S
Co131 O137 2.052 . S
Co131 O139 2.135 . S
O132 Co131 2.061 . S
O132 C135 1.235 . S
C133 O136 1.238 . S
C133 O137 1.241 . S
C134 O127 1.247 . S
C134 O128 1.261 . S
C135 O130 1.259 . S
C135 O132 1.235 . S
O136 Co126 2.021 . S
O136 C133 1.238 . S
O137 Co131 2.052 . S
O137 C133 1.241 . S
O138 Co126 2.137 . S
O138 C129 1.247 . S
O139 Co126 2.244 . S
O139 C129 1.272 . S
O139 Co131 2.135 . S
Co140 O141 2.216 . S
Co140 O142 2.091 . S
Co140 O144 2.004 1_545 S
Co140 O150 2.021 . S
Co140 O152 2.137 . S
Co140 O153 2.244 . S
O141 Co140 2.216 . S
O141 C148 1.247 . S
O142 Co140 2.091 . S
O142 C148 1.261 . S
C143 O152 1.247 . S
C143 O153 1.272 . S
O144 Co140 2.004 1_565 S
O144 C149 1.259 . S
Co145 O146 2.061 1_545 S
Co145 O151 2.052 . S
Co145 O153 2.135 . S
O146 Co145 2.061 1_565 S
O146 C149 1.235 . S
C147 O150 1.238 . S
C147 O151 1.241 . S
C148 O141 1.247 . S
C148 O142 1.261 . S
C149 O144 1.259 . S
C149 O146 1.235 . S
O150 Co140 2.021 . S
O150 C147 1.238 . S
O151 Co145 2.052 . S
O151 C147 1.241 . S
O152 Co140 2.137 . S
O152 C143 1.247 . S
O153 Co140 2.244 . S
O153 C143 1.272 . S
O153 Co145 2.135 . S
Co154 O155 2.216 . S
Co154 O156 2.091 . S
Co154 O158 2.004 1_655 S
Co154 O164 2.021 . S
Co154 O166 2.137 . S
Co154 O167 2.244 . S
O155 Co154 2.216 . S
O155 C162 1.247 . S
O156 Co154 2.091 . S
O156 C162 1.261 . S
C157 O166 1.247 . S
C157 O167 1.272 . S
O158 Co154 2.004 1_455 S
O158 C163 1.259 . S
Co159 O160 2.042 1_655 S
Co159 O165 2.074 . S
Co159 O167 2.167 . S
O160 Co159 2.042 1_455 S
O160 C163 1.235 . S
C161 O164 1.238 . S
C161 O165 1.241 . S
C162 O155 1.247 . S
C162 O156 1.261 . S
C163 O158 1.259 . S
C163 O160 1.235 . S
O164 Co154 2.021 . S
O164 C161 1.238 . S
O165 Co159 2.074 . S
O165 C161 1.241 . S
O166 Co154 2.137 . S
O166 C157 1.247 . S
O167 Co154 2.244 . S
O167 C157 1.272 . S
O167 Co159 2.167 . S
Co168 O169 2.216 . S
Co168 O170 2.091 . S
Co168 O172 2.004 . S
Co168 O178 2.021 . S
Co168 O180 2.137 . S
Co168 O181 2.244 . S
O169 Co168 2.216 . S
O169 C176 1.247 . S
O170 Co168 2.091 . S
O170 C176 1.261 . S
C171 O180 1.247 . S
C171 O181 1.272 . S
O172 Co168 2.004 . S
O172 C177 1.259 . S
Co173 O174 2.061 . S
Co173 O179 2.052 . S
Co173 O181 2.135 . S
O174 Co173 2.061 . S
O174 C177 1.235 . S
C175 O178 1.238 . S
C175 O179 1.241 . S
C176 O169 1.247 . S
C176 O170 1.261 . S
C177 O172 1.259 . S
C177 O174 1.235 . S
O178 Co168 2.021 . S
O178 C175 1.238 . S
O179 Co173 2.052 . S
O179 C175 1.241 . S
O180 Co168 2.137 . S
O180 C171 1.247 . S
O181 Co168 2.244 . S
O181 C171 1.272 . S
O181 Co173 2.135 . S
Co182 O183 2.216 . S
Co182 O184 2.091 . S
Co182 O186 2.004 . S
Co182 O192 2.021 . S
Co182 O194 2.137 . S
Co182 O195 2.244 . S
O183 Co182 2.216 . S
O183 C190 1.247 . S
O184 Co182 2.091 . S
O184 C190 1.261 . S
C185 O194 1.247 . S
C185 O195 1.272 . S
O186 Co182 2.004 . S
O186 C191 1.259 . S
Co187 O188 2.061 . S
Co187 O193 2.052 . S
Co187 O195 2.135 . S
O188 Co187 2.061 . S
O188 C191 1.235 . S
C189 O192 1.238 . S
C189 O193 1.241 . S
C190 O183 1.247 . S
C190 O184 1.261 . S
C191 O186 1.259 . S
C191 O188 1.235 . S
O192 Co182 2.021 . S
O192 C189 1.238 . S
O193 Co187 2.052 . S
O193 C189 1.241 . S
O194 Co182 2.137 . S
O194 C185 1.247 . S
O195 Co182 2.244 . S
O195 C185 1.272 . S
O195 Co187 2.135 . S
Co196 O197 2.216 . S
Co196 O198 2.091 . S
Co196 O200 2.004 . S
Co196 O206 2.021 . S
Co196 O208 2.137 . S
Co196 O209 2.244 . S
O197 Co196 2.216 . S
O197 C204 1.247 . S
O198 Co196 2.091 . S
O198 C204 1.261 . S
C199 O208 1.247 . S
C199 O209 1.272 . S
O200 Co196 2.004 . S
O200 C205 1.259 . S
Co201 O202 2.061 . S
Co201 O207 2.052 . S
Co201 O209 2.135 . S
O202 Co201 2.061 . S
O202 C205 1.235 . S
C203 O206 1.238 . S
C203 O207 1.241 . S
C204 O197 1.247 . S
C204 O198 1.261 . S
C205 O200 1.259 . S
C205 O202 1.235 . S
O206 Co196 2.021 . S
O206 C203 1.238 . S
O207 Co201 2.052 . S
O207 C203 1.241 . S
O208 Co196 2.137 . S
O208 C199 1.247 . S
O209 Co196 2.244 . S
O209 C199 1.272 . S
O209 Co201 2.135 . S
Co210 O211 2.216 . S
Co210 O212 2.091 . S
Co210 O214 2.004 . S
Co210 O220 2.021 . S
Co210 O222 2.137 . S
Co210 O223 2.244 . S
O211 Co210 2.216 . S
O211 C218 1.247 . S
O212 Co210 2.091 . S
O212 C218 1.261 . S
C213 O222 1.247 . S
C213 O223 1.272 . S
O214 Co210 2.004 . S
O214 C219 1.259 . S
Co215 O216 2.061 . S
Co215 O221 2.052 . S
Co215 O223 2.135 . S
O216 Co215 2.061 . S
O216 C219 1.235 . S
C217 O220 1.238 . S
C217 O221 1.241 . S
C218 O211 1.247 . S
C218 O212 1.261 . S
C219 O214 1.259 . S
C219 O216 1.235 . S
O220 Co210 2.021 . S
O220 C217 1.238 . S
O221 Co215 2.052 . S
O221 C217 1.241 . S
O222 Co210 2.137 . S
O222 C213 1.247 . S
O223 Co210 2.244 . S
O223 C213 1.272 . S
O223 Co215 2.135 . S
Co224 O225 2.216 . S
Co224 O226 2.091 . S
Co224 O228 2.004 . S
Co224 O234 2.021 . S
Co224 O236 2.137 . S
Co224 O237 2.244 . S
O225 Co224 2.216 . S
O225 C232 1.247 . S
O226 Co224 2.091 . S
O226 C232 1.261 . S
C227 O236 1.247 . S
C227 O237 1.272 . S
O228 Co224 2.004 . S
O228 C233 1.259 . S
Co229 O230 2.061 . S
Co229 O235 2.052 . S
Co229 O237 2.135 . S
O230 Co229 2.061 . S
O230 C233 1.235 . S
C231 O234 1.238 . S
C231 O235 1.241 . S
C232 O225 1.247 . S
C232 O226 1.261 . S
C233 O228 1.259 . S
C233 O230 1.235 . S
O234 Co224 2.021 . S
O234 C231 1.238 . S
O235 Co229 2.052 . S
O235 C231 1.241 . S
O236 Co224 2.137 . S
O236 C227 1.247 . S
O237 Co224 2.244 . S
O237 C227 1.272 . S
O237 Co229 2.135 . S
Co238 O239 2.216 . S
Co238 O240 2.091 . S
Co238 O242 2.004 . S
Co238 O248 2.021 . S
Co238 O250 2.137 . S
Co238 O251 2.244 . S
O239 Co238 2.216 . S
O239 C246 1.247 . S
O240 Co238 2.091 . S
O240 C246 1.261 . S
C241 O250 1.247 . S
C241 O251 1.272 . S
O242 Co238 2.004 . S
O242 C247 1.259 . S
Co243 O244 2.061 . S
Co243 O249 2.052 . S
Co243 O251 2.135 . S
O244 Co243 2.061 . S
O244 C247 1.235 . S
C245 O248 1.238 . S
C245 O249 1.241 . S
C246 O239 1.247 . S
C246 O240 1.261 . S
C247 O242 1.259 . S
C247 O244 1.235 . S
O248 Co238 2.021 . S
O248 C245 1.238 . S
O249 Co243 2.052 . S
O249 C245 1.241 . S
O250 Co238 2.137 . S
O250 C241 1.247 . S
O251 Co238 2.244 . S
O251 C241 1.272 . S
O251 Co243 2.135 . S
Co252 O253 2.216 . S
Co252 O254 2.091 . S
Co252 O256 2.004 . S
Co252 O262 2.021 . S
Co252 O264 2.137 . S
Co252 O265 2.244 . S
O253 Co252 2.216 . S
O253 C260 1.247 . S
O254 Co252 2.091 . S
O254 C260 1.261 . S
C255 O264 1.247 . S
C255 O265 1.272 . S
O256 Co252 2.004 . S
O256 C261 1.259 . S
Co257 O258 2.061 . S
Co257 O263 2.052 . S
Co257 O265 2.135 . S
O258 Co257 2.061 . S
O258 C261 1.235 . S
C259 O262 1.238 . S
C259 O263 1.241 . S
C260 O253 1.247 . S
C260 O254 1.261 . S
C261 O256 1.259 . S
C261 O258 1.235 . S
O262 Co252 2.021 . S
O262 C259 1.238 . S
O263 Co257 2.052 . S
O263 C259 1.241 . S
O264 Co252 2.137 . S
O264 C255 1.247 . S
O265 Co252 2.244 . S
O265 C255 1.272 . S
O265 Co257 2.135 . S
Co266 O267 2.216 . S
Co266 O268 2.091 . S
Co266 O270 2.004 . S
Co266 O276 2.021 . S
Co266 O278 2.137 . S
Co266 O279 2.244 . S
O267 Co266 2.216 . S
O267 C274 1.247 . S
O268 Co266 2.091 . S
O268 C274 1.261 . S
C269 O278 1.247 . S
C269 O279 1.272 . S
O270 Co266 2.004 . S
O270 C275 1.259 . S
Co271 O272 2.061 . S
Co271 O277 2.052 . S
Co271 O279 2.135 . S
O272 Co271 2.061 . S
O272 C275 1.235 . S
C273 O276 1.238 . S
C273 O277 1.241 . S
C274 O267 1.247 . S
C274 O268 1.261 . S
C275 O270 1.259 . S
C275 O272 1.235 . S
O276 Co266 2.021 . S
O276 C273 1.238 . S
O277 Co271 2.052 . S
O277 C273 1.241 . S
O278 Co266 2.137 . S
O278 C269 1.247 . S
O279 Co266 2.244 . S
O279 C269 1.272 . S
O279 Co271 2.135 . S
Co280 O281 2.216 . S
Co280 O282 2.091 . S
Co280 O284 2.004 . S
Co280 O290 2.021 . S
Co280 O292 2.137 . S
Co280 O293 2.244 . S
O281 Co280 2.216 . S
O281 C288 1.247 . S
O282 Co280 2.091 . S
O282 C288 1.261 . S
C283 O292 1.247 . S
C283 O293 1.272 . S
O284 Co280 2.004 . S
O284 C289 1.259 . S
Co285 O286 2.061 . S
Co285 O291 2.052 . S
Co285 O293 2.135 . S
O286 Co285 2.061 . S
O286 C289 1.235 . S
C287 O290 1.238 . S
C287 O291 1.241 . S
C288 O281 1.247 . S
C288 O282 1.261 . S
C289 O284 1.259 . S
C289 O286 1.235 . S
O290 Co280 2.021 . S
O290 C287 1.238 . S
O291 Co285 2.052 . S
O291 C287 1.241 . S
O292 Co280 2.137 . S
O292 C283 1.247 . S
O293 Co280 2.244 . S
O293 C283 1.272 . S
O293 Co285 2.135 . S
Co294 O295 2.216 . S
Co294 O296 2.091 1_554 S
Co294 O298 2.004 1_554 S
Co294 O304 2.021 . S
Co294 O306 2.137 1_554 S
Co294 O307 2.244 . S
O295 Co294 2.216 . S
O295 C302 1.243 1_554 S
O296 Co294 2.091 1_556 S
O296 C302 1.264 . S
C297 O306 1.247 1_554 S
C297 O307 1.272 . S
O298 Co294 2.004 1_556 S
O298 C303 1.259 1_556 S
Co299 O300 2.061 . S
Co299 O305 2.052 . S
Co299 O307 2.135 . S
O300 Co299 2.061 . S
O300 C303 1.235 . S
C301 O304 1.238 . S
C301 O305 1.241 . S
C302 O295 1.243 1_556 S
C302 O296 1.264 . S
C303 O298 1.259 1_554 S
C303 O300 1.235 . S
O304 Co294 2.021 . S
O304 C301 1.238 . S
O305 Co299 2.052 . S
O305 C301 1.241 . S
O306 Co294 2.137 1_556 S
O306 C297 1.247 1_556 S
O307 Co294 2.244 . S
O307 C297 1.272 . S
O307 Co299 2.135 . S
Co308 O309 2.216 . S
Co308 O310 2.091 1_554 S
Co308 O312 2.004 1_554 S
Co308 O318 2.021 . S
Co308 O320 2.137 1_554 S
Co308 O321 2.244 . S
O309 Co308 2.216 . S
O309 C316 1.243 1_554 S
O310 Co308 2.091 1_556 S
O310 C316 1.263 . S
C311 O320 1.247 1_554 S
C311 O321 1.272 . S
O312 Co308 2.004 1_556 S
O312 C317 1.259 1_556 S
Co313 O314 2.061 . S
Co313 O319 2.052 . S
Co313 O321 2.135 . S
O314 Co313 2.061 . S
O314 C317 1.235 . S
C315 O318 1.238 . S
C315 O319 1.241 . S
C316 O309 1.243 1_556 S
C316 O310 1.263 . S
C317 O312 1.259 1_554 S
C317 O314 1.235 . S
O318 Co308 2.021 . S
O318 C315 1.238 . S
O319 Co313 2.052 . S
O319 C315 1.241 . S
O320 Co308 2.137 1_556 S
O320 C311 1.247 1_556 S
O321 Co308 2.244 . S
O321 C311 1.272 . S
O321 Co313 2.135 . S
Co322 O323 2.216 . S
Co322 O324 2.091 1_554 S
Co322 O326 2.004 1_554 S
Co322 O332 2.021 . S
Co322 O334 2.137 1_554 S
Co322 O335 2.244 . S
O323 Co322 2.216 . S
O323 C330 1.243 1_554 S
O324 Co322 2.091 1_556 S
O324 C330 1.264 . S
C325 O334 1.247 1_554 S
C325 O335 1.272 . S
O326 Co322 2.004 1_556 S
O326 C331 1.259 1_556 S
Co327 O328 2.061 . S
Co327 O333 2.052 . S
Co327 O335 2.135 . S
O328 Co327 2.061 . S
O328 C331 1.235 . S
C329 O332 1.238 . S
C329 O333 1.241 . S
C330 O323 1.243 1_556 S
C330 O324 1.264 . S
C331 O326 1.259 1_554 S
C331 O328 1.235 . S
O332 Co322 2.021 . S
O332 C329 1.238 . S
O333 Co327 2.052 . S
O333 C329 1.241 . S
O334 Co322 2.137 1_556 S
O334 C325 1.247 1_556 S
O335 Co322 2.244 . S
O335 C325 1.272 . S
O335 Co327 2.135 . S
Co336 O337 2.216 . S
Co336 O338 2.091 . S
Co336 O340 2.004 . S
Co336 O346 2.021 . S
Co336 O348 2.137 . S
Co336 O349 2.244 . S
O337 Co336 2.216 . S
O337 C344 1.247 . S
O338 Co336 2.091 . S
O338 C344 1.261 . S
C339 O348 1.247 . S
C339 O349 1.272 . S
O340 Co336 2.004 . S
O340 C345 1.259 . S
Co341 O342 2.061 . S
Co341 O347 2.052 . S
Co341 O349 2.135 . S
O342 Co341 2.061 . S
O342 C345 1.235 . S
C343 O346 1.238 . S
C343 O347 1.241 . S
C344 O337 1.247 . S
C344 O338 1.261 . S
C345 O340 1.259 . S
C345 O342 1.235 . S
O346 Co336 2.021 . S
O346 C343 1.238 . S
O347 Co341 2.052 . S
O347 C343 1.241 . S
O348 Co336 2.137 . S
O348 C339 1.247 . S
O349 Co336 2.244 . S
O349 C339 1.272 . S
O349 Co341 2.135 . S
Co350 O351 2.216 . S
Co350 O352 2.091 . S
Co350 O354 2.004 . S
Co350 O360 2.021 . S
Co350 O362 2.137 . S
Co350 O363 2.244 . S
O351 Co350 2.216 . S
O351 C358 1.247 . S
O352 Co350 2.091 . S
O352 C358 1.261 . S
C353 O362 1.247 . S
C353 O363 1.272 . S
O354 Co350 2.004 . S
O354 C359 1.259 . S
Co355 O356 2.061 . S
Co355 O361 2.052 . S
Co355 O363 2.135 . S
O356 Co355 2.061 . S
O356 C359 1.235 . S
C357 O360 1.238 . S
C357 O361 1.241 . S
C358 O351 1.247 . S
C358 O352 1.261 . S
C359 O354 1.259 . S
C359 O356 1.235 . S
O360 Co350 2.021 . S
O360 C357 1.238 . S
O361 Co355 2.052 . S
O361 C357 1.241 . S
O362 Co350 2.137 . S
O362 C353 1.247 . S
O363 Co350 2.244 . S
O363 C353 1.272 . S
O363 Co355 2.135 . S
Co364 O365 2.216 . S
Co364 O366 2.091 . S
Co364 O368 2.004 . S
Co364 O374 2.021 . S
Co364 O376 2.137 . S
Co364 O377 2.244 . S
O365 Co364 2.216 . S
O365 C372 1.247 . S
O366 Co364 2.091 . S
O366 C372 1.261 . S
C367 O376 1.247 . S
C367 O377 1.272 . S
O368 Co364 2.004 . S
O368 C373 1.259 . S
Co369 O370 2.061 . S
Co369 O375 2.052 . S
Co369 O377 2.135 . S
O370 Co369 2.061 . S
O370 C373 1.235 . S
C371 O374 1.238 . S
C371 O375 1.241 . S
C372 O365 1.247 . S
C372 O366 1.261 . S
C373 O368 1.259 . S
C373 O370 1.235 . S
O374 Co364 2.021 . S
O374 C371 1.238 . S
O375 Co369 2.052 . S
O375 C371 1.241 . S
O376 Co364 2.137 . S
O376 C367 1.247 . S
O377 Co364 2.244 . S
O377 C367 1.272 . S
O377 Co369 2.135 . S
Co378 O379 2.216 . S
Co378 O380 2.091 1_556 S
Co378 O382 2.006 . S
Co378 O388 2.021 1_556 S
Co378 O390 2.137 . S
Co378 O391 2.244 . S
O379 Co378 2.216 . S
O379 C386 1.193 1_556 S
O380 Co378 2.091 1_554 S
O380 C386 1.294 . S
C381 O390 1.247 . S
C381 O391 1.272 . S
O382 Co378 2.006 . S
O382 C387 1.260 . S
Co383 O384 2.061 . S
Co383 O389 2.052 . S
Co383 O391 2.135 . S
O384 Co383 2.061 . S
O384 C387 1.235 . S
C385 O388 1.238 1_556 S
C385 O389 1.241 . S
C386 O379 1.193 1_554 S
C386 O380 1.294 . S
C387 O382 1.260 . S
C387 O384 1.235 . S
O388 Co378 2.021 1_554 S
O388 C385 1.238 1_554 S
O389 Co383 2.052 . S
O389 C385 1.241 . S
O390 Co378 2.137 . S
O390 C381 1.247 . S
O391 Co378 2.244 . S
O391 C381 1.272 . S
O391 Co383 2.135 . S
Co392 O393 2.216 . S
Co392 O394 2.091 1_556 S
Co392 O396 2.007 . S
Co392 O402 2.021 1_556 S
Co392 O404 2.137 . S
Co392 O405 2.244 . S
O393 Co392 2.216 . S
O393 C400 1.195 1_556 S
O394 Co392 2.091 1_554 S
O394 C400 1.293 . S
C395 O404 1.247 . S
C395 O405 1.272 . S
O396 Co392 2.007 . S
O396 C401 1.261 . S
Co397 O398 2.061 . S
Co397 O403 2.052 . S
Co397 O405 2.135 . S
O398 Co397 2.061 . S
O398 C401 1.235 . S
C399 O402 1.238 1_556 S
C399 O403 1.241 . S
C400 O393 1.195 1_554 S
C400 O394 1.293 . S
C401 O396 1.261 . S
C401 O398 1.235 . S
O402 Co392 2.021 1_554 S
O402 C399 1.238 1_554 S
O403 Co397 2.052 . S
O403 C399 1.241 . S
O404 Co392 2.137 . S
O404 C395 1.247 . S
O405 Co392 2.244 . S
O405 C395 1.272 . S
O405 Co397 2.135 . S
Co406 O407 2.216 . S
Co406 O408 2.091 1_556 S
Co406 O410 2.006 . S
Co406 O416 2.021 1_556 S
Co406 O418 2.137 . S
Co406 O419 2.244 . S
O407 Co406 2.216 . S
O407 C414 1.193 1_556 S
O408 Co406 2.091 1_554 S
O408 C414 1.294 . S
C409 O418 1.247 . S
C409 O419 1.272 . S
O410 Co406 2.006 . S
O410 C415 1.260 . S
Co411 O412 2.061 . S
Co411 O417 2.052 . S
Co411 O419 2.135 . S
O412 Co411 2.061 . S
O412 C415 1.235 . S
C413 O416 1.238 1_556 S
C413 O417 1.241 . S
C414 O407 1.193 1_554 S
C414 O408 1.294 . S
C415 O410 1.260 . S
C415 O412 1.235 . S
O416 Co406 2.021 1_554 S
O416 C413 1.238 1_554 S
O417 Co411 2.052 . S
O417 C413 1.241 . S
O418 Co406 2.137 . S
O418 C409 1.247 . S
O419 Co406 2.244 . S
O419 C409 1.272 . S
O419 Co411 2.135 . S
Co420 O421 2.216 . S
Co420 O422 2.091 . S
Co420 O424 2.004 . S
Co420 O430 2.021 . S
Co420 O432 2.137 . S
Co420 O433 2.244 . S
O421 Co420 2.216 . S
O421 C428 1.247 . S
O422 Co420 2.091 . S
O422 C428 1.261 . S
C423 O432 1.247 . S
C423 O433 1.272 . S
O424 Co420 2.004 . S
O424 C429 1.259 . S
Co425 O426 2.061 . S
Co425 O431 2.052 . S
Co425 O433 2.135 . S
O426 Co425 2.061 . S
O426 C429 1.235 . S
C427 O430 1.238 . S
C427 O431 1.241 . S
C428 O421 1.247 . S
C428 O422 1.261 . S
C429 O424 1.259 . S
C429 O426 1.235 . S
O430 Co420 2.021 . S
O430 C427 1.238 . S
O431 Co425 2.052 . S
O431 C427 1.241 . S
O432 Co420 2.137 . S
O432 C423 1.247 . S
O433 Co420 2.244 . S
O433 C423 1.272 . S
O433 Co425 2.135 . S
Co434 O435 2.216 . S
Co434 O436 2.091 . S
Co434 O438 2.004 . S
Co434 O444 2.021 . S
Co434 O446 2.137 . S
Co434 O447 2.244 . S
O435 Co434 2.216 . S
O435 C442 1.247 . S
O436 Co434 2.091 . S
O436 C442 1.261 . S
C437 O446 1.247 . S
C437 O447 1.272 . S
O438 Co434 2.004 . S
O438 C443 1.259 . S
Co439 O440 2.061 . S
Co439 O445 2.052 . S
Co439 O447 2.135 . S
O440 Co439 2.061 . S
O440 C443 1.235 . S
C441 O444 1.238 . S
C441 O445 1.241 . S
C442 O435 1.247 . S
C442 O436 1.261 . S
C443 O438 1.259 . S
C443 O440 1.235 . S
O444 Co434 2.021 . S
O444 C441 1.238 . S
O445 Co439 2.052 . S
O445 C441 1.241 . S
O446 Co434 2.137 . S
O446 C437 1.247 . S
O447 Co434 2.244 . S
O447 C437 1.272 . S
O447 Co439 2.135 . S
Co448 O449 2.216 . S
Co448 O450 2.091 . S
Co448 O452 2.004 . S
Co448 O458 2.021 . S
Co448 O460 2.137 . S
Co448 O461 2.244 . S
O449 Co448 2.216 . S
O449 C456 1.247 . S
O450 Co448 2.091 . S
O450 C456 1.261 . S
C451 O460 1.247 . S
C451 O461 1.272 . S
O452 Co448 2.004 . S
O452 C457 1.259 . S
Co453 O454 2.061 . S
Co453 O459 2.052 . S
Co453 O461 2.135 . S
O454 Co453 2.061 . S
O454 C457 1.235 . S
C455 O458 1.238 . S
C455 O459 1.241 . S
C456 O449 1.247 . S
C456 O450 1.261 . S
C457 O452 1.259 . S
C457 O454 1.235 . S
O458 Co448 2.021 . S
O458 C455 1.238 . S
O459 Co453 2.052 . S
O459 C455 1.241 . S
O460 Co448 2.137 . S
O460 C451 1.247 . S
O461 Co448 2.244 . S
O461 C451 1.272 . S
O461 Co453 2.135 . S
Co462 O463 2.216 . S
Co462 O464 2.091 . S
Co462 O466 2.004 . S
Co462 O472 2.021 . S
Co462 O474 2.137 . S
Co462 O475 2.244 . S
O463 Co462 2.216 . S
O463 C470 1.247 . S
O464 Co462 2.091 . S
O464 C470 1.261 . S
C465 O474 1.247 . S
C465 O475 1.272 . S
O466 Co462 2.004 . S
O466 C471 1.259 . S
Co467 O468 2.061 . S
Co467 O473 2.052 . S
Co467 O475 2.135 . S
O468 Co467 2.061 . S
O468 C471 1.235 . S
C469 O472 1.238 . S
C469 O473 1.241 . S
C470 O463 1.247 . S
C470 O464 1.261 . S
C471 O466 1.259 . S
C471 O468 1.235 . S
O472 Co462 2.021 . S
O472 C469 1.238 . S
O473 Co467 2.052 . S
O473 C469 1.241 . S
O474 Co462 2.137 . S
O474 C465 1.247 . S
O475 Co462 2.244 . S
O475 C465 1.272 . S
O475 Co467 2.135 . S
Co476 O477 2.216 . S
Co476 O478 2.091 . S
Co476 O480 2.004 . S
Co476 O486 2.021 . S
Co476 O488 2.137 . S
Co476 O489 2.244 . S
O477 Co476 2.216 . S
O477 C484 1.247 . S
O478 Co476 2.091 . S
O478 C484 1.261 . S
C479 O488 1.247 . S
C479 O489 1.272 . S
O480 Co476 2.004 . S
O480 C485 1.259 . S
Co481 O482 2.061 . S
Co481 O487 2.052 . S
Co481 O489 2.135 . S
O482 Co481 2.061 . S
O482 C485 1.235 . S
C483 O486 1.238 . S
C483 O487 1.241 . S
C484 O477 1.247 . S
C484 O478 1.261 . S
C485 O480 1.259 . S
C485 O482 1.235 . S
O486 Co476 2.021 . S
O486 C483 1.238 . S
O487 Co481 2.052 . S
O487 C483 1.241 . S
O488 Co476 2.137 . S
O488 C479 1.247 . S
O489 Co476 2.244 . S
O489 C479 1.272 . S
O489 Co481 2.135 . S
Co490 O491 2.216 . S
Co490 O492 2.091 . S
Co490 O494 2.004 . S
Co490 O500 2.021 . S
Co490 O502 2.137 . S
Co490 O503 2.244 . S
O491 Co490 2.216 . S
O491 C498 1.247 . S
O492 Co490 2.091 . S
O492 C498 1.261 . S
C493 O502 1.247 . S
C493 O503 1.272 . S
O494 Co490 2.004 . S
O494 C499 1.259 . S
Co495 O496 2.061 . S
Co495 O501 2.052 . S
Co495 O503 2.135 . S
O496 Co495 2.061 . S
O496 C499 1.235 . S
C497 O500 1.238 . S
C497 O501 1.241 . S
C498 O491 1.247 . S
C498 O492 1.261 . S
C499 O494 1.259 . S
C499 O496 1.235 . S
O500 Co490 2.021 . S
O500 C497 1.238 . S
O501 Co495 2.052 . S
O501 C497 1.241 . S
O502 Co490 2.137 . S
O502 C493 1.247 . S
O503 Co490 2.244 . S
O503 C493 1.272 . S
O503 Co495 2.135 . S
H504 C512 0.950 . S
H505 C517 0.950 . S
H506 C514 0.950 . S
H507 C516 0.950 . S
H508 C518 0.950 . S
H509 C520 0.950 . S
H510 C522 0.950 . S
H511 C523 0.950 . S
C512 H504 0.950 . S
C512 C513 1.386 . S
C512 C514 1.391 . S
C513 C512 1.386 . S
C513 C517 1.393 . S
C514 H506 0.950 . S
C514 C512 1.391 . S
C514 C515 1.400 . S
C515 C514 1.400 . S
C515 C516 1.398 . S
C515 C521 1.491 1_455 S
C516 H507 0.950 . S
C516 C515 1.398 . S
C516 C517 1.391 . S
C517 H505 0.950 . S
C517 C513 1.393 . S
C517 C516 1.391 . S
C518 H508 0.950 . S
C518 C519 1.386 . S
C518 C520 1.391 . S
C519 C518 1.386 . S
C519 C523 1.393 . S
C520 H509 0.950 . S
C520 C518 1.391 . S
C520 C521 1.400 . S
C521 C515 1.491 1_655 S
C521 C520 1.400 . S
C521 C522 1.398 . S
C522 H510 0.950 . S
C522 C521 1.398 . S
C522 C523 1.391 . S
C523 H511 0.950 . S
C523 C519 1.393 . S
C523 C522 1.391 . S
H524 C532 0.950 . S
H525 C537 0.950 . S
H526 C534 0.950 . S
H527 C536 0.950 . S
H528 C538 0.950 . S
H529 C540 0.950 . S
H530 C542 0.950 . S
H531 C543 0.950 . S
C532 H524 0.950 . S
C532 C533 1.386 . S
C532 C534 1.391 . S
C533 C532 1.386 . S
C533 C537 1.393 . S
C534 H526 0.950 . S
C534 C532 1.391 . S
C534 C535 1.400 . S
C535 C534 1.400 . S
C535 C536 1.398 . S
C535 C541 1.491 . S
C536 H527 0.950 . S
C536 C535 1.398 . S
C536 C537 1.391 . S
C537 H525 0.950 . S
C537 C533 1.393 . S
C537 C536 1.391 . S
C538 H528 0.950 . S
C538 C539 1.386 . S
C538 C540 1.391 . S
C539 C538 1.386 . S
C539 C543 1.393 . S
C540 H529 0.950 . S
C540 C538 1.391 . S
C540 C541 1.400 . S
C541 C535 1.491 . S
C541 C540 1.400 . S
C541 C542 1.398 . S
C542 H530 0.950 . S
C542 C541 1.398 . S
C542 C543 1.391 . S
C543 H531 0.950 . S
C543 C539 1.393 . S
C543 C542 1.391 . S
H544 C552 0.950 . S
H545 C557 0.950 . S
H546 C554 0.950 . S
H547 C556 0.950 . S
H548 C558 0.950 . S
H549 C560 0.950 . S
H550 C562 0.950 . S
H551 C563 0.950 . S
C552 H544 0.950 . S
C552 C553 1.386 . S
C552 C554 1.391 . S
C553 C552 1.386 . S
C553 C557 1.393 . S
C554 H546 0.950 . S
C554 C552 1.391 . S
C554 C555 1.400 . S
C555 C554 1.400 . S
C555 C556 1.398 . S
C555 C561 1.491 1_545 S
C556 H547 0.950 . S
C556 C555 1.398 . S
C556 C557 1.391 . S
C557 H545 0.950 . S
C557 C553 1.393 . S
C557 C556 1.391 . S
C558 H548 0.950 . S
C558 C559 1.386 . S
C558 C560 1.391 . S
C559 C558 1.386 . S
C559 C563 1.393 . S
C560 H549 0.950 . S
C560 C558 1.391 . S
C560 C561 1.400 . S
C561 C555 1.491 1_565 S
C561 C560 1.400 . S
C561 C562 1.398 . S
C562 H550 0.950 . S
C562 C561 1.398 . S
C562 C563 1.391 . S
C563 H551 0.950 . S
C563 C559 1.393 . S
C563 C562 1.391 . S
H564 C572 0.950 . S
H565 C577 0.950 . S
H566 C574 0.950 . S
H567 C576 0.950 . S
H568 C578 0.950 . S
H569 C580 0.950 . S
H570 C582 0.950 . S
H571 C583 0.950 . S
C572 H564 0.950 . S
C572 C573 1.386 . S
C572 C574 1.391 . S
C573 C572 1.386 . S
C573 C577 1.393 . S
C574 H566 0.950 . S
C574 C572 1.391 . S
C574 C575 1.400 . S
C575 C574 1.400 . S
C575 C576 1.398 . S
C575 C581 1.491 1_545 S
C576 H567 0.950 . S
C576 C575 1.398 . S
C576 C577 1.391 . S
C577 H565 0.950 . S
C577 C573 1.393 . S
C577 C576 1.391 . S
C578 H568 0.950 . S
C578 C579 1.386 . S
C578 C580 1.391 . S
C579 C578 1.386 . S
C579 C583 1.393 . S
C580 H569 0.950 . S
C580 C578 1.391 . S
C580 C581 1.400 . S
C581 C575 1.491 1_565 S
C581 C580 1.400 . S
C581 C582 1.398 . S
C582 H570 0.950 . S
C582 C581 1.398 . S
C582 C583 1.391 . S
C583 H571 0.950 . S
C583 C579 1.393 . S
C583 C582 1.391 . S
H584 C592 0.950 . S
H585 C597 0.950 . S
H586 C594 0.950 . S
H587 C596 0.950 . S
H588 C598 0.950 . S
H589 C600 0.950 . S
H590 C602 0.950 . S
H591 C603 0.950 . S
C592 H584 0.950 . S
C592 C593 1.386 . S
C592 C594 1.391 . S
C593 C592 1.386 . S
C593 C597 1.393 . S
C594 H586 0.950 . S
C594 C592 1.391 . S
C594 C595 1.400 . S
C595 C594 1.400 . S
C595 C596 1.398 . S
C595 C601 1.491 1_655 S
C596 H587 0.950 . S
C596 C595 1.398 . S
C596 C597 1.391 . S
C597 H585 0.950 . S
C597 C593 1.393 . S
C597 C596 1.391 . S
C598 H588 0.950 . S
C598 C599 1.386 . S
C598 C600 1.391 . S
C599 C598 1.386 . S
C599 C603 1.393 . S
C600 H589 0.950 . S
C600 C598 1.391 . S
C600 C601 1.400 . S
C601 C595 1.491 1_455 S
C601 C600 1.400 . S
C601 C602 1.398 . S
C602 H590 0.950 . S
C602 C601 1.398 . S
C602 C603 1.391 . S
C603 H591 0.950 . S
C603 C599 1.393 . S
C603 C602 1.391 . S
H604 C612 0.950 . S
H605 C617 0.950 . S
H606 C614 0.950 . S
H607 C616 0.950 . S
H608 C618 0.950 . S
H609 C620 0.950 . S
H610 C622 0.950 . S
H611 C623 0.950 . S
C612 H604 0.950 . S
C612 C613 1.386 . S
C612 C614 1.391 . S
C613 C612 1.386 . S
C613 C617 1.393 . S
C614 H606 0.950 . S
C614 C612 1.391 . S
C614 C615 1.400 . S
C615 C614 1.400 . S
C615 C616 1.398 . S
C615 C621 1.491 . S
C616 H607 0.950 . S
C616 C615 1.398 . S
C616 C617 1.391 . S
C617 H605 0.950 . S
C617 C613 1.393 . S
C617 C616 1.391 . S
C618 H608 0.950 . S
C618 C619 1.386 . S
C618 C620 1.391 . S
C619 C618 1.386 . S
C619 C623 1.393 . S
C620 H609 0.950 . S
C620 C618 1.391 . S
C620 C621 1.400 . S
C621 C615 1.491 . S
C621 C620 1.400 . S
C621 C622 1.398 . S
C622 H610 0.950 . S
C622 C621 1.398 . S
C622 C623 1.391 . S
C623 H611 0.950 . S
C623 C619 1.393 . S
C623 C622 1.391 . S
H624 C632 0.950 . S
H625 C637 0.950 . S
H626 C634 0.950 . S
H627 C636 0.950 . S
H628 C638 0.950 . S
H629 C640 0.950 . S
H630 C642 0.950 . S
H631 C643 0.950 . S
C632 H624 0.950 . S
C632 C633 1.386 . S
C632 C634 1.391 . S
C633 C632 1.386 . S
C633 C637 1.393 . S
C634 H626 0.950 . S
C634 C632 1.391 . S
C634 C635 1.400 . S
C635 C634 1.400 . S
C635 C636 1.398 . S
C635 C641 1.491 1_655 S
C636 H627 0.950 . S
C636 C635 1.398 . S
C636 C637 1.391 . S
C637 H625 0.950 . S
C637 C633 1.393 . S
C637 C636 1.391 . S
C638 H628 0.950 . S
C638 C639 1.386 . S
C638 C640 1.391 . S
C639 C638 1.386 . S
C639 C643 1.393 . S
C640 H629 0.950 . S
C640 C638 1.391 . S
C640 C641 1.400 . S
C641 C635 1.491 1_455 S
C641 C640 1.400 . S
C641 C642 1.398 . S
C642 H630 0.950 . S
C642 C641 1.398 . S
C642 C643 1.391 . S
C643 H631 0.950 . S
C643 C639 1.393 . S
C643 C642 1.391 . S
H644 C652 0.950 . S
H645 C657 0.950 . S
H646 C654 0.950 . S
H647 C656 0.950 . S
H648 C658 0.950 . S
H649 C660 0.950 . S
H650 C662 0.950 . S
H651 C663 0.950 . S
C652 H644 0.950 . S
C652 C653 1.386 . S
C652 C654 1.391 . S
C653 C652 1.386 . S
C653 C657 1.393 . S
C654 H646 0.950 . S
C654 C652 1.391 . S
C654 C655 1.400 . S
C655 C654 1.400 . S
C655 C656 1.398 . S
C655 C661 1.491 . S
C656 H647 0.950 . S
C656 C655 1.398 . S
C656 C657 1.391 . S
C657 H645 0.950 . S
C657 C653 1.393 . S
C657 C656 1.391 . S
C658 H648 0.950 . S
C658 C659 1.386 . S
C658 C660 1.391 . S
C659 C658 1.386 . S
C659 C663 1.393 . S
C660 H649 0.950 . S
C660 C658 1.391 . S
C660 C661 1.400 . S
C661 C655 1.491 . S
C661 C660 1.400 . S
C661 C662 1.398 . S
C662 H650 0.950 . S
C662 C661 1.398 . S
C662 C663 1.391 . S
C663 H651 0.950 . S
C663 C659 1.393 . S
C663 C662 1.391 . S
H664 C672 0.950 . S
H665 C677 0.950 . S
H666 C674 0.950 . S
H667 C676 0.950 . S
H668 C678 0.950 . S
H669 C680 0.950 . S
H670 C682 0.950 . S
H671 C683 0.950 . S
C672 H664 0.950 . S
C672 C673 1.386 . S
C672 C674 1.391 . S
C673 C672 1.386 . S
C673 C677 1.393 . S
C674 H666 0.950 . S
C674 C672 1.391 . S
C674 C675 1.400 . S
C675 C674 1.400 . S
C675 C676 1.398 . S
C675 C681 1.491 1_565 S
C676 H667 0.950 . S
C676 C675 1.398 . S
C676 C677 1.391 . S
C677 H665 0.950 . S
C677 C673 1.393 . S
C677 C676 1.391 . S
C678 H668 0.950 . S
C678 C679 1.386 . S
C678 C680 1.391 . S
C679 C678 1.386 . S
C679 C683 1.393 . S
C680 H669 0.950 . S
C680 C678 1.391 . S
C680 C681 1.400 . S
C681 C675 1.491 1_545 S
C681 C680 1.400 . S
C681 C682 1.398 . S
C682 H670 0.950 . S
C682 C681 1.398 . S
C682 C683 1.391 . S
C683 H671 0.950 . S
C683 C679 1.393 . S
C683 C682 1.391 . S
H684 C692 0.950 . S
H685 C697 0.950 . S
H686 C694 0.950 . S
H687 C696 0.950 . S
H688 C698 0.950 . S
H689 C700 0.950 . S
H690 C702 0.950 . S
H691 C703 0.950 . S
C692 H684 0.950 . S
C692 C693 1.386 . S
C692 C694 1.391 . S
C693 C692 1.386 . S
C693 C697 1.393 . S
C694 H686 0.950 . S
C694 C692 1.391 . S
C694 C695 1.400 . S
C695 C694 1.400 . S
C695 C696 1.398 . S
C695 C701 1.491 1_545 S
C696 H687 0.950 . S
C696 C695 1.398 . S
C696 C697 1.391 . S
C697 H685 0.950 . S
C697 C693 1.393 . S
C697 C696 1.391 . S
C698 H688 0.950 . S
C698 C699 1.386 . S
C698 C700 1.391 . S
C699 C698 1.386 . S
C699 C703 1.393 . S
C700 H689 0.950 . S
C700 C698 1.391 . S
C700 C701 1.400 . S
C701 C695 1.491 1_565 S
C701 C700 1.400 . S
C701 C702 1.398 . S
C702 H690 0.950 . S
C702 C701 1.398 . S
C702 C703 1.391 . S
C703 H691 0.950 . S
C703 C699 1.393 . S
C703 C702 1.391 . S
H704 C712 0.950 . S
H705 C717 0.950 . S
H706 C714 0.950 . S
H707 C716 0.950 . S
H708 C718 0.950 . S
H709 C720 0.950 . S
H710 C722 0.950 . S
H711 C723 0.950 . S
C712 H704 0.950 . S
C712 C713 1.386 . S
C712 C714 1.391 . S
C713 C712 1.386 . S
C713 C717 1.393 . S
C714 H706 0.950 . S
C714 C712 1.391 . S
C714 C715 1.400 . S
C715 C714 1.400 . S
C715 C716 1.398 . S
C715 C721 1.491 1_455 S
C716 H707 0.950 . S
C716 C715 1.398 . S
C716 C717 1.391 . S
C717 H705 0.950 . S
C717 C713 1.393 . S
C717 C716 1.391 . S
C718 H708 0.950 . S
C718 C719 1.386 . S
C718 C720 1.391 . S
C719 C718 1.386 . S
C719 C723 1.393 . S
C720 H709 0.950 . S
C720 C718 1.391 . S
C720 C721 1.400 . S
C721 C715 1.491 1_655 S
C721 C720 1.400 . S
C721 C722 1.398 . S
C722 H710 0.950 . S
C722 C721 1.398 . S
C722 C723 1.391 . S
C723 H711 0.950 . S
C723 C719 1.393 . S
C723 C722 1.391 . S
H724 C732 0.950 . S
H725 C737 0.950 . S
H726 C734 0.950 . S
H727 C736 0.950 . S
H728 C738 0.950 . S
H729 C740 0.950 . S
H730 C742 0.950 . S
H731 C743 0.950 . S
C732 H724 0.950 . S
C732 C733 1.386 . S
C732 C734 1.391 . S
C733 C732 1.386 . S
C733 C737 1.393 . S
C734 H726 0.950 . S
C734 C732 1.391 . S
C734 C735 1.400 . S
C735 C734 1.400 . S
C735 C736 1.398 . S
C735 C741 1.491 . S
C736 H727 0.950 . S
C736 C735 1.398 . S
C736 C737 1.391 . S
C737 H725 0.950 . S
C737 C733 1.393 . S
C737 C736 1.391 . S
C738 H728 0.950 . S
C738 C739 1.386 . S
C738 C740 1.391 . S
C739 C738 1.386 . S
C739 C743 1.393 . S
C740 H729 0.950 . S
C740 C738 1.391 . S
C740 C741 1.400 . S
C741 C735 1.491 . S
C741 C740 1.400 . S
C741 C742 1.398 . S
C742 H730 0.950 . S
C742 C741 1.398 . S
C742 C743 1.391 . S
C743 H731 0.950 . S
C743 C739 1.393 . S
C743 C742 1.391 . S
H744 C752 0.950 . S
H745 C757 0.950 . S
H746 C754 0.950 . S
H747 C756 0.950 . S
H748 C758 0.950 . S
H749 C760 0.950 . S
H750 C762 0.950 . S
H751 C763 0.950 . S
C752 H744 0.950 . S
C752 C753 1.386 . S
C752 C754 1.391 . S
C753 C752 1.386 . S
C753 C757 1.393 . S
C754 H746 0.950 . S
C754 C752 1.391 . S
C754 C755 1.400 . S
C755 C754 1.400 . S
C755 C756 1.398 . S
C755 C761 1.491 . S
C756 H747 0.950 . S
C756 C755 1.398 . S
C756 C757 1.391 . S
C757 H745 0.950 . S
C757 C753 1.393 . S
C757 C756 1.391 . S
C758 H748 0.950 . S
C758 C759 1.386 . S
C758 C760 1.391 . S
C759 C758 1.386 . S
C759 C763 1.393 . S
C760 H749 0.950 . S
C760 C758 1.391 . S
C760 C761 1.400 . S
C761 C755 1.491 . S
C761 C760 1.400 . S
C761 C762 1.398 . S
C762 H750 0.950 . S
C762 C761 1.398 . S
C762 C763 1.391 . S
C763 H751 0.950 . S
C763 C759 1.393 . S
C763 C762 1.391 . S
H764 C772 0.950 . S
H765 C777 0.950 . S
H766 C774 0.950 . S
H767 C776 0.950 . S
H768 C778 0.950 . S
H769 C780 0.950 . S
H770 C782 0.950 . S
H771 C783 0.950 . S
C772 H764 0.950 . S
C772 C773 1.386 . S
C772 C774 1.391 . S
C773 C772 1.386 . S
C773 C777 1.393 . S
C774 H766 0.950 . S
C774 C772 1.391 . S
C774 C775 1.400 . S
C775 C774 1.400 . S
C775 C776 1.398 . S
C775 C781 1.491 . S
C776 H767 0.950 . S
C776 C775 1.398 . S
C776 C777 1.391 . S
C777 H765 0.950 . S
C777 C773 1.393 . S
C777 C776 1.391 . S
C778 H768 0.950 . S
C778 C779 1.386 . S
C778 C780 1.391 . S
C779 C778 1.386 . S
C779 C783 1.393 . S
C780 H769 0.950 . S
C780 C778 1.391 . S
C780 C781 1.400 . S
C781 C775 1.491 . S
C781 C780 1.400 . S
C781 C782 1.398 . S
C782 H770 0.950 . S
C782 C781 1.398 . S
C782 C783 1.391 . S
C783 H771 0.950 . S
C783 C779 1.393 . S
C783 C782 1.391 . S
H784 C792 0.950 . S
H785 C797 0.950 . S
H786 C794 0.950 . S
H787 C796 0.950 . S
H788 C798 0.950 . S
H789 C800 0.950 . S
H790 C802 0.950 . S
H791 C803 0.950 . S
C792 H784 0.950 . S
C792 C793 1.386 . S
C792 C794 1.391 . S
C793 C792 1.386 . S
C793 C797 1.393 . S
C794 H786 0.950 . S
C794 C792 1.391 . S
C794 C795 1.400 . S
C795 C794 1.400 . S
C795 C796 1.398 . S
C795 C801 1.491 . S
C796 H787 0.950 . S
C796 C795 1.398 . S
C796 C797 1.391 . S
C797 H785 0.950 . S
C797 C793 1.393 . S
C797 C796 1.391 . S
C798 H788 0.950 . S
C798 C799 1.386 . S
C798 C800 1.391 . S
C799 C798 1.386 . S
C799 C803 1.393 . S
C800 H789 0.950 . S
C800 C798 1.391 . S
C800 C801 1.400 . S
C801 C795 1.491 . S
C801 C800 1.400 . S
C801 C802 1.398 . S
C802 H790 0.950 . S
C802 C801 1.398 . S
C802 C803 1.391 . S
C803 H791 0.950 . S
C803 C799 1.393 . S
C803 C802 1.391 . S
H804 C812 0.950 . S
H805 C817 0.950 . S
H806 C814 0.950 . S
H807 C816 0.950 . S
H808 C818 0.950 . S
H809 C820 0.950 . S
H810 C822 0.950 . S
H811 C823 0.950 . S
C812 H804 0.950 . S
C812 C813 1.386 . S
C812 C814 1.391 . S
C813 C812 1.386 . S
C813 C817 1.393 . S
C814 H806 0.950 . S
C814 C812 1.391 . S
C814 C815 1.400 . S
C815 C814 1.400 . S
C815 C816 1.398 . S
C815 C821 1.491 . S
C816 H807 0.950 . S
C816 C815 1.398 . S
C816 C817 1.391 . S
C817 H805 0.950 . S
C817 C813 1.393 . S
C817 C816 1.391 . S
C818 H808 0.950 . S
C818 C819 1.386 . S
C818 C820 1.391 . S
C819 C818 1.386 . S
C819 C823 1.393 . S
C820 H809 0.950 . S
C820 C818 1.391 . S
C820 C821 1.400 . S
C821 C815 1.491 . S
C821 C820 1.400 . S
C821 C822 1.398 . S
C822 H810 0.950 . S
C822 C821 1.398 . S
C822 C823 1.391 . S
C823 H811 0.950 . S
C823 C819 1.393 . S
C823 C822 1.391 . S
H824 C832 0.950 . S
H825 C837 0.950 . S
H826 C834 0.950 . S
H827 C836 0.950 . S
H828 C838 0.950 . S
H829 C840 0.950 . S
H830 C842 0.950 . S
H831 C843 0.950 . S
C832 H824 0.950 . S
C832 C833 1.386 . S
C832 C834 1.391 . S
C833 C832 1.386 . S
C833 C837 1.393 . S
C834 H826 0.950 . S
C834 C832 1.391 . S
C834 C835 1.400 . S
C835 C834 1.400 . S
C835 C836 1.398 . S
C835 C841 1.491 . S
C836 H827 0.950 . S
C836 C835 1.398 . S
C836 C837 1.391 . S
C837 H825 0.950 . S
C837 C833 1.393 . S
C837 C836 1.391 . S
C838 H828 0.950 . S
C838 C839 1.386 . S
C838 C840 1.391 . S
C839 C838 1.386 . S
C839 C843 1.393 . S
C840 H829 0.950 . S
C840 C838 1.391 . S
C840 C841 1.400 . S
C841 C835 1.491 . S
C841 C840 1.400 . S
C841 C842 1.398 . S
C842 H830 0.950 . S
C842 C841 1.398 . S
C842 C843 1.391 . S
C843 H831 0.950 . S
C843 C839 1.393 . S
C843 C842 1.391 . S
H844 C852 0.950 . S
H845 C857 0.950 . S
H846 C854 0.950 . S
H847 C856 0.950 . S
H848 C858 0.950 . S
H849 C860 0.950 . S
H850 C862 0.950 . S
H851 C863 0.950 . S
C852 H844 0.950 . S
C852 C853 1.386 . S
C852 C854 1.391 . S
C853 C852 1.386 . S
C853 C857 1.393 . S
C854 H846 0.950 . S
C854 C852 1.391 . S
C854 C855 1.400 . S
C855 C854 1.400 . S
C855 C856 1.398 . S
C855 C861 1.491 . S
C856 H847 0.950 . S
C856 C855 1.398 . S
C856 C857 1.391 . S
C857 H845 0.950 . S
C857 C853 1.393 . S
C857 C856 1.391 . S
C858 H848 0.950 . S
C858 C859 1.386 . S
C858 C860 1.391 . S
C859 C858 1.386 . S
C859 C863 1.393 . S
C860 H849 0.950 . S
C860 C858 1.391 . S
C860 C861 1.400 . S
C861 C855 1.491 . S
C861 C860 1.400 . S
C861 C862 1.398 . S
C862 H850 0.950 . S
C862 C861 1.398 . S
C862 C863 1.391 . S
C863 H851 0.950 . S
C863 C859 1.393 . S
C863 C862 1.391 . S
H864 C872 0.950 . S
H865 C877 0.950 . S
H866 C874 0.950 . S
H867 C876 0.950 . S
H868 C878 0.950 . S
H869 C880 0.950 . S
H870 C882 0.950 . S
H871 C883 0.950 . S
C872 H864 0.950 . S
C872 C873 1.386 . S
C872 C874 1.391 . S
C873 C872 1.386 . S
C873 C877 1.393 . S
C874 H866 0.950 . S
C874 C872 1.391 . S
C874 C875 1.400 . S
C875 C874 1.400 . S
C875 C876 1.398 . S
C875 C881 1.491 . S
C876 H867 0.950 . S
C876 C875 1.398 . S
C876 C877 1.391 . S
C877 H865 0.950 . S
C877 C873 1.393 . S
C877 C876 1.391 . S
C878 H868 0.950 . S
C878 C879 1.386 . S
C878 C880 1.391 . S
C879 C878 1.386 . S
C879 C883 1.393 . S
C880 H869 0.950 . S
C880 C878 1.391 . S
C880 C881 1.400 . S
C881 C875 1.491 . S
C881 C880 1.400 . S
C881 C882 1.398 . S
C882 H870 0.950 . S
C882 C881 1.398 . S
C882 C883 1.391 . S
C883 H871 0.950 . S
C883 C879 1.393 . S
C883 C882 1.391 . S
H884 C892 0.950 . S
H885 C897 0.950 . S
H886 C894 0.950 . S
H887 C896 0.950 . S
H888 C898 0.950 . S
H889 C900 0.950 . S
H890 C902 0.950 . S
H891 C903 0.950 . S
C892 H884 0.950 . S
C892 C893 1.386 . S
C892 C894 1.391 . S
C893 C892 1.386 . S
C893 C897 1.393 . S
C894 H886 0.950 . S
C894 C892 1.391 . S
C894 C895 1.400 . S
C895 C894 1.400 . S
C895 C896 1.398 . S
C895 C901 1.491 . S
C896 H887 0.950 . S
C896 C895 1.398 . S
C896 C897 1.391 . S
C897 H885 0.950 . S
C897 C893 1.393 . S
C897 C896 1.391 . S
C898 H888 0.950 . S
C898 C899 1.386 . S
C898 C900 1.391 . S
C899 C898 1.386 . S
C899 C903 1.393 . S
C900 H889 0.950 . S
C900 C898 1.391 . S
C900 C901 1.400 . S
C901 C895 1.491 . S
C901 C900 1.400 . S
C901 C902 1.398 . S
C902 H890 0.950 . S
C902 C901 1.398 . S
C902 C903 1.391 . S
C903 H891 0.950 . S
C903 C899 1.393 . S
C903 C902 1.391 . S
H904 C912 0.950 . S
H905 C917 0.950 . S
H906 C914 0.950 . S
H907 C916 0.950 . S
H908 C918 0.950 . S
H909 C920 0.950 . S
H910 C922 0.950 . S
H911 C923 0.950 . S
C912 H904 0.950 . S
C912 C913 1.386 . S
C912 C914 1.391 . S
C913 C912 1.386 . S
C913 C917 1.393 . S
C914 H906 0.950 . S
C914 C912 1.391 . S
C914 C915 1.400 . S
C915 C914 1.400 . S
C915 C916 1.398 . S
C915 C921 1.491 . S
C916 H907 0.950 . S
C916 C915 1.398 . S
C916 C917 1.391 . S
C917 H905 0.950 . S
C917 C913 1.393 . S
C917 C916 1.391 . S
C918 H908 0.950 . S
C918 C919 1.386 . S
C918 C920 1.391 . S
C919 C918 1.386 . S
C919 C923 1.393 . S
C920 H909 0.950 . S
C920 C918 1.391 . S
C920 C921 1.400 . S
C921 C915 1.491 . S
C921 C920 1.400 . S
C921 C922 1.398 . S
C922 H910 0.950 . S
C922 C921 1.398 . S
C922 C923 1.391 . S
C923 H911 0.950 . S
C923 C919 1.393 . S
C923 C922 1.391 . S
H924 C932 0.950 . S
H925 C937 0.950 . S
H926 C934 0.950 . S
H927 C936 0.950 . S
H928 C938 0.950 . S
H929 C940 0.950 . S
H930 C942 0.950 . S
H931 C943 0.950 . S
C932 H924 0.950 . S
C932 C933 1.386 1_556 S
C932 C934 1.391 . S
C933 C932 1.386 1_554 S
C933 C937 1.393 . S
C934 H926 0.950 . S
C934 C932 1.391 . S
C934 C935 1.358 1_556 S
C935 C934 1.358 1_554 S
C935 C936 1.442 . S
C935 C941 1.490 . S
C936 H927 0.950 . S
C936 C935 1.442 . S
C936 C937 1.391 . S
C937 H925 0.950 . S
C937 C933 1.393 . S
C937 C936 1.391 . S
C938 H928 0.950 . S
C938 C939 1.371 1_554 S
C938 C940 1.391 . S
C939 C938 1.371 1_556 S
C939 C943 1.408 . S
C940 H929 0.950 . S
C940 C938 1.391 . S
C940 C941 1.415 . S
C941 C935 1.490 . S
C941 C940 1.415 . S
C941 C942 1.384 1_554 S
C942 H930 0.950 . S
C942 C941 1.384 1_556 S
C942 C943 1.391 . S
C943 H931 0.950 . S
C943 C939 1.408 . S
C943 C942 1.391 . S
H944 C952 0.950 . S
H945 C957 0.950 . S
H946 C954 0.950 . S
H947 C956 0.950 . S
H948 C958 0.950 . S
H949 C960 0.950 . S
H950 C962 0.950 . S
H951 C963 0.950 . S
C952 H944 0.950 . S
C952 C953 1.408 . S
C952 C954 1.391 . S
C953 C952 1.408 . S
C953 C957 1.371 1_556 S
C954 H946 0.950 . S
C954 C952 1.391 . S
C954 C955 1.400 1_556 S
C955 C954 1.400 1_554 S
C955 C956 1.399 . S
C955 C961 1.489 . S
C956 H947 0.950 . S
C956 C955 1.399 . S
C956 C957 1.391 . S
C957 H945 0.950 . S
C957 C953 1.371 1_554 S
C957 C956 1.391 . S
C958 H948 0.950 . S
C958 C959 1.386 . S
C958 C960 1.391 . S
C959 C958 1.386 . S
C959 C963 1.393 1_554 S
C960 H949 0.950 . S
C960 C958 1.391 . S
C960 C961 1.434 . S
C961 C955 1.489 . S
C961 C960 1.434 . S
C961 C962 1.370 1_554 S
C962 H950 0.950 . S
C962 C961 1.370 1_556 S
C962 C963 1.391 . S
C963 H951 0.950 . S
C963 C959 1.393 1_556 S
C963 C962 1.391 . S
H964 C972 0.950 . S
H965 C977 0.950 . S
H966 C974 0.950 . S
H967 C976 0.950 . S
H968 C978 0.950 . S
H969 C980 0.950 . S
H970 C982 0.950 . S
H971 C983 0.950 . S
C972 H964 0.950 . S
C972 C973 1.386 . S
C972 C974 1.391 . S
C973 C972 1.386 . S
C973 C977 1.393 1_554 S
C974 H966 0.950 . S
C974 C972 1.391 . S
C974 C975 1.442 . S
C975 C974 1.442 . S
C975 C976 1.358 1_554 S
C975 C981 1.490 . S
C976 H967 0.950 . S
C976 C975 1.358 1_556 S
C976 C977 1.391 . S
C977 H965 0.950 . S
C977 C973 1.393 1_556 S
C977 C976 1.391 . S
C978 H968 0.950 . S
C978 C979 1.393 . S
C978 C980 1.391 . S
C979 C978 1.393 . S
C979 C983 1.385 1_556 S
C980 H969 0.950 . S
C980 C978 1.391 . S
C980 C981 1.383 1_556 S
C981 C975 1.490 . S
C981 C980 1.383 1_554 S
C981 C982 1.415 . S
C982 H970 0.950 . S
C982 C981 1.415 . S
C982 C983 1.391 . S
C983 H971 0.950 . S
C983 C979 1.385 1_554 S
C983 C982 1.391 . S
H984 C992 0.950 . S
H985 C997 0.950 . S
H986 C994 0.950 . S
H987 C996 0.950 . S
H988 C998 0.950 . S
H989 C1000 0.950 . S
H990 C1002 0.950 . S
H991 C1003 0.950 . S
C992 H984 0.950 . S
C992 C993 1.386 . S
C992 C994 1.391 . S
C993 C992 1.386 . S
C993 C997 1.393 . S
C994 H986 0.950 . S
C994 C992 1.391 . S
C994 C995 1.400 . S
C995 C994 1.400 . S
C995 C996 1.398 . S
C995 C1001 1.491 . S
C996 H987 0.950 . S
C996 C995 1.398 . S
C996 C997 1.391 . S
C997 H985 0.950 . S
C997 C993 1.393 . S
C997 C996 1.391 . S
C998 H988 0.950 . S
C998 C999 1.386 . S
C998 C1000 1.391 . S
C999 C998 1.386 . S
C999 C1003 1.393 . S
C1000 H989 0.950 . S
C1000 C998 1.391 . S
C1000 C1001 1.400 . S
C1001 C995 1.491 . S
C1001 C1000 1.400 . S
C1001 C1002 1.398 . S
C1002 H990 0.950 . S
C1002 C1001 1.398 . S
C1002 C1003 1.391 . S
C1003 H991 0.950 . S
C1003 C999 1.393 . S
C1003 C1002 1.391 . S
H1004 C1012 0.950 . S
H1005 C1017 0.950 . S
H1006 C1014 0.950 . S
H1007 C1016 0.950 . S
H1008 C1018 0.950 . S
H1009 C1020 0.950 . S
H1010 C1022 0.950 . S
H1011 C1023 0.950 . S
C1012 H1004 0.950 . S
C1012 C1013 1.386 . S
C1012 C1014 1.391 . S
C1013 C1012 1.386 . S
C1013 C1017 1.393 . S
C1014 H1006 0.950 . S
C1014 C1012 1.391 . S
C1014 C1015 1.400 . S
C1015 C1014 1.400 . S
C1015 C1016 1.398 . S
C1015 C1021 1.491 . S
C1016 H1007 0.950 . S
C1016 C1015 1.398 . S
C1016 C1017 1.391 . S
C1017 H1005 0.950 . S
C1017 C1013 1.393 . S
C1017 C1016 1.391 . S
C1018 H1008 0.950 . S
C1018 C1019 1.386 . S
C1018 C1020 1.391 . S
C1019 C1018 1.386 . S
C1019 C1023 1.393 . S
C1020 H1009 0.950 . S
C1020 C1018 1.391 . S
C1020 C1021 1.400 . S
C1021 C1015 1.491 . S
C1021 C1020 1.400 . S
C1021 C1022 1.398 . S
C1022 H1010 0.950 . S
C1022 C1021 1.398 . S
C1022 C1023 1.391 . S
C1023 H1011 0.950 . S
C1023 C1019 1.393 . S
C1023 C1022 1.391 . S
H1024 C1032 0.950 . S
H1025 C1037 0.950 . S
H1026 C1034 0.950 . S
H1027 C1036 0.950 . S
H1028 C1038 0.950 . S
H1029 C1040 0.950 . S
H1030 C1042 0.950 . S
H1031 C1043 0.950 . S
C1032 H1024 0.950 . S
C1032 C1033 1.386 . S
C1032 C1034 1.391 . S
C1033 C1032 1.386 . S
C1033 C1037 1.393 . S
C1034 H1026 0.950 . S
C1034 C1032 1.391 . S
C1034 C1035 1.400 . S
C1035 C1034 1.400 . S
C1035 C1036 1.398 . S
C1035 C1041 1.491 . S
C1036 H1027 0.950 . S
C1036 C1035 1.398 . S
C1036 C1037 1.391 . S
C1037 H1025 0.950 . S
C1037 C1033 1.393 . S
C1037 C1036 1.391 . S
C1038 H1028 0.950 . S
C1038 C1039 1.386 . S
C1038 C1040 1.391 . S
C1039 C1038 1.386 . S
C1039 C1043 1.393 . S
C1040 H1029 0.950 . S
C1040 C1038 1.391 . S
C1040 C1041 1.400 . S
C1041 C1035 1.491 . S
C1041 C1040 1.400 . S
C1041 C1042 1.398 . S
C1042 H1030 0.950 . S
C1042 C1041 1.398 . S
C1042 C1043 1.391 . S
C1043 H1031 0.950 . S
C1043 C1039 1.393 . S
C1043 C1042 1.391 . S
H1044 C1052 0.950 . S
H1045 C1057 0.950 . S
H1046 C1054 0.950 . S
H1047 C1056 0.950 . S
H1048 C1058 0.950 . S
H1049 C1060 0.950 . S
H1050 C1062 0.950 . S
H1051 C1063 0.950 . S
C1052 H1044 0.950 . S
C1052 C1053 1.388 . S
C1052 C1054 1.391 . S
C1053 C1052 1.388 . S
C1053 C1057 1.391 1_554 S
C1054 H1046 0.950 . S
C1054 C1052 1.391 . S
C1054 C1055 1.404 . S
C1055 C1054 1.404 . S
C1055 C1056 1.395 1_554 S
C1055 C1061 1.490 1_554 S
C1056 H1047 0.950 . S
C1056 C1055 1.395 1_556 S
C1056 C1057 1.391 . S
C1057 H1045 0.950 . S
C1057 C1053 1.391 1_556 S
C1057 C1056 1.391 . S
C1058 H1048 0.950 . S
C1058 C1059 1.386 1_556 S
C1058 C1060 1.391 . S
C1059 C1058 1.386 1_554 S
C1059 C1063 1.392 . S
C1060 H1049 0.950 . S
C1060 C1058 1.391 . S
C1060 C1061 1.399 . S
C1061 C1055 1.490 1_556 S
C1061 C1060 1.399 . S
C1061 C1062 1.400 1_556 S
C1062 H1050 0.950 . S
C1062 C1061 1.400 1_554 S
C1062 C1063 1.391 . S
C1063 H1051 0.950 . S
C1063 C1059 1.392 . S
C1063 C1062 1.391 . S
H1064 C1072 0.950 . S
H1065 C1077 0.950 . S
H1066 C1074 0.950 . S
H1067 C1076 0.950 . S
H1068 C1078 0.950 . S
H1069 C1080 0.950 . S
H1070 C1082 0.950 . S
H1071 C1083 0.950 . S
C1072 H1064 0.950 . S
C1072 C1073 1.417 . S
C1072 C1074 1.391 . S
C1073 C1072 1.417 . S
C1073 C1077 1.361 1_554 S
C1074 H1066 0.950 . S
C1074 C1072 1.391 . S
C1074 C1075 1.408 . S
C1075 C1074 1.408 . S
C1075 C1076 1.391 1_554 S
C1075 C1081 1.491 . S
C1076 H1067 0.950 . S
C1076 C1075 1.391 1_556 S
C1076 C1077 1.391 . S
C1077 H1065 0.950 . S
C1077 C1073 1.361 1_556 S
C1077 C1076 1.391 . S
C1078 H1068 0.950 . S
C1078 C1079 1.395 . S
C1078 C1080 1.391 . S
C1079 C1078 1.395 . S
C1079 C1083 1.384 1_556 S
C1080 H1069 0.950 . S
C1080 C1078 1.391 . S
C1080 C1081 1.403 1_556 S
C1081 C1075 1.491 . S
C1081 C1080 1.403 1_554 S
C1081 C1082 1.396 . S
C1082 H1070 0.950 . S
C1082 C1081 1.396 . S
C1082 C1083 1.391 . S
C1083 H1071 0.950 . S
C1083 C1079 1.384 1_554 S
C1083 C1082 1.391 . S
H1084 C1092 0.950 . S
H1085 C1097 0.950 . S
H1086 C1094 0.950 . S
H1087 C1096 0.950 . S
H1088 C1098 0.950 . S
H1089 C1100 0.950 . S
H1090 C1102 0.950 . S
H1091 C1103 0.950 . S
C1092 H1084 0.950 . S
C1092 C1093 1.415 . S
C1092 C1094 1.391 . S
C1093 C1092 1.415 . S
C1093 C1097 1.364 1_556 S
C1094 H1086 0.950 . S
C1094 C1092 1.391 . S
C1094 C1095 1.400 . S
C1095 C1094 1.400 . S
C1095 C1096 1.398 1_556 S
C1095 C1101 1.490 1_556 S
C1096 H1087 0.950 . S
C1096 C1095 1.398 1_554 S
C1096 C1097 1.391 . S
C1097 H1085 0.950 . S
C1097 C1093 1.364 1_554 S
C1097 C1096 1.391 . S
C1098 H1088 0.950 . S
C1098 C1099 1.432 . S
C1098 C1100 1.391 . S
C1099 C1098 1.432 . S
C1099 C1103 1.348 1_554 S
C1100 H1089 0.950 . S
C1100 C1098 1.391 . S
C1100 C1101 1.417 . S
C1101 C1095 1.490 1_554 S
C1101 C1100 1.417 . S
C1101 C1102 1.382 1_554 S
C1102 H1090 0.950 . S
C1102 C1101 1.382 1_556 S
C1102 C1103 1.391 . S
C1103 H1091 0.950 . S
C1103 C1099 1.348 1_556 S
C1103 C1102 1.391 . S
H1104 C1112 0.950 . S
H1105 C1117 0.950 . S
H1106 C1114 0.950 . S
H1107 C1116 0.950 . S
H1108 C1118 0.950 . S
H1109 C1120 0.950 . S
H1110 C1122 0.950 . S
H1111 C1123 0.950 . S
C1112 H1104 0.950 . S
C1112 C1113 1.386 . S
C1112 C1114 1.391 . S
C1113 C1112 1.386 . S
C1113 C1117 1.393 . S
C1114 H1106 0.950 . S
C1114 C1112 1.391 . S
C1114 C1115 1.400 . S
C1115 C1114 1.400 . S
C1115 C1116 1.398 . S
C1115 C1121 1.491 . S
C1116 H1107 0.950 . S
C1116 C1115 1.398 . S
C1116 C1117 1.391 . S
C1117 H1105 0.950 . S
C1117 C1113 1.393 . S
C1117 C1116 1.391 . S
C1118 H1108 0.950 . S
C1118 C1119 1.386 . S
C1118 C1120 1.391 . S
C1119 C1118 1.386 . S
C1119 C1123 1.393 . S
C1120 H1109 0.950 . S
C1120 C1118 1.391 . S
C1120 C1121 1.400 . S
C1121 C1115 1.491 . S
C1121 C1120 1.400 . S
C1121 C1122 1.398 . S
C1122 H1110 0.950 . S
C1122 C1121 1.398 . S
C1122 C1123 1.391 . S
C1123 H1111 0.950 . S
C1123 C1119 1.393 . S
C1123 C1122 1.391 . S
H1124 C1132 0.950 . S
H1125 C1137 0.950 . S
H1126 C1134 0.950 . S
H1127 C1136 0.950 . S
H1128 C1138 0.950 . S
H1129 C1140 0.950 . S
H1130 C1142 0.950 . S
H1131 C1143 0.950 . S
C1132 H1124 0.950 . S
C1132 C1133 1.386 . S
C1132 C1134 1.391 . S
C1133 C1132 1.386 . S
C1133 C1137 1.393 . S
C1134 H1126 0.950 . S
C1134 C1132 1.391 . S
C1134 C1135 1.400 . S
C1135 C1134 1.400 . S
C1135 C1136 1.398 . S
C1135 C1141 1.491 . S
C1136 H1127 0.950 . S
C1136 C1135 1.398 . S
C1136 C1137 1.391 . S
C1137 H1125 0.950 . S
C1137 C1133 1.393 . S
C1137 C1136 1.391 . S
C1138 H1128 0.950 . S
C1138 C1139 1.386 . S
C1138 C1140 1.391 . S
C1139 C1138 1.386 . S
C1139 C1143 1.393 . S
C1140 H1129 0.950 . S
C1140 C1138 1.391 . S
C1140 C1141 1.400 . S
C1141 C1135 1.491 . S
C1141 C1140 1.400 . S
C1141 C1142 1.398 . S
C1142 H1130 0.950 . S
C1142 C1141 1.398 . S
C1142 C1143 1.391 . S
C1143 H1131 0.950 . S
C1143 C1139 1.393 . S
C1143 C1142 1.391 . S
H1144 C1152 0.950 . S
H1145 C1157 0.950 . S
H1146 C1154 0.950 . S
H1147 C1156 0.950 . S
H1148 C1158 0.950 . S
H1149 C1160 0.950 . S
H1150 C1162 0.950 . S
H1151 C1163 0.950 . S
C1152 H1144 0.950 . S
C1152 C1153 1.386 . S
C1152 C1154 1.391 . S
C1153 C1152 1.386 . S
C1153 C1157 1.393 . S
C1154 H1146 0.950 . S
C1154 C1152 1.391 . S
C1154 C1155 1.400 . S
C1155 C1154 1.400 . S
C1155 C1156 1.398 . S
C1155 C1161 1.491 . S
C1156 H1147 0.950 . S
C1156 C1155 1.398 . S
C1156 C1157 1.391 . S
C1157 H1145 0.950 . S
C1157 C1153 1.393 . S
C1157 C1156 1.391 . S
C1158 H1148 0.950 . S
C1158 C1159 1.386 . S
C1158 C1160 1.391 . S
C1159 C1158 1.386 . S
C1159 C1163 1.393 . S
C1160 H1149 0.950 . S
C1160 C1158 1.391 . S
C1160 C1161 1.400 . S
C1161 C1155 1.491 . S
C1161 C1160 1.400 . S
C1161 C1162 1.398 . S
C1162 H1150 0.950 . S
C1162 C1161 1.398 . S
C1162 C1163 1.391 . S
C1163 H1151 0.950 . S
C1163 C1159 1.393 . S
C1163 C1162 1.391 . S
H1164 C1172 0.950 . S
H1165 C1177 0.950 . S
H1166 C1174 0.950 . S
H1167 C1176 0.950 . S
H1168 C1178 0.950 . S
H1169 C1180 0.950 . S
H1170 C1182 0.950 . S
H1171 C1183 0.950 . S
C1172 H1164 0.950 . S
C1172 C1173 1.386 . S
C1172 C1174 1.391 . S
C1173 C1172 1.386 . S
C1173 C1177 1.393 . S
C1174 H1166 0.950 . S
C1174 C1172 1.391 . S
C1174 C1175 1.400 . S
C1175 C1174 1.400 . S
C1175 C1176 1.398 . S
C1175 C1181 1.491 . S
C1176 H1167 0.950 . S
C1176 C1175 1.398 . S
C1176 C1177 1.391 . S
C1177 H1165 0.950 . S
C1177 C1173 1.393 . S
C1177 C1176 1.391 . S
C1178 H1168 0.950 . S
C1178 C1179 1.386 . S
C1178 C1180 1.391 . S
C1179 C1178 1.386 . S
C1179 C1183 1.393 . S
C1180 H1169 0.950 . S
C1180 C1178 1.391 . S
C1180 C1181 1.400 . S
C1181 C1175 1.491 . S
C1181 C1180 1.400 . S
C1181 C1182 1.398 . S
C1182 H1170 0.950 . S
C1182 C1181 1.398 . S
C1182 C1183 1.391 . S
C1183 H1171 0.950 . S
C1183 C1179 1.393 . S
C1183 C1182 1.391 . S
H1184 C1192 0.950 . S
H1185 C1197 0.950 . S
H1186 C1194 0.950 . S
H1187 C1196 0.950 . S
H1188 C1198 0.950 . S
H1189 C1200 0.950 . S
H1190 C1202 0.950 . S
H1191 C1203 0.950 . S
C1192 H1184 0.950 . S
C1192 C1193 1.386 . S
C1192 C1194 1.391 . S
C1193 C1192 1.386 . S
C1193 C1197 1.393 . S
C1194 H1186 0.950 . S
C1194 C1192 1.391 . S
C1194 C1195 1.400 . S
C1195 C1194 1.400 . S
C1195 C1196 1.398 . S
C1195 C1201 1.491 . S
C1196 H1187 0.950 . S
C1196 C1195 1.398 . S
C1196 C1197 1.391 . S
C1197 H1185 0.950 . S
C1197 C1193 1.393 . S
C1197 C1196 1.391 . S
C1198 H1188 0.950 . S
C1198 C1199 1.386 . S
C1198 C1200 1.391 . S
C1199 C1198 1.386 . S
C1199 C1203 1.393 . S
C1200 H1189 0.950 . S
C1200 C1198 1.391 . S
C1200 C1201 1.400 . S
C1201 C1195 1.491 . S
C1201 C1200 1.400 . S
C1201 C1202 1.398 . S
C1202 H1190 0.950 . S
C1202 C1201 1.398 . S
C1202 C1203 1.391 . S
C1203 H1191 0.950 . S
C1203 C1199 1.393 . S
C1203 C1202 1.391 . S
H1204 C1212 0.950 . S
H1205 C1217 0.950 . S
H1206 C1214 0.950 . S
H1207 C1216 0.950 . S
H1208 C1218 0.950 . S
H1209 C1220 0.950 . S
H1210 C1222 0.950 . S
H1211 C1223 0.950 . S
C1212 H1204 0.950 . S
C1212 C1213 1.386 . S
C1212 C1214 1.391 . S
C1213 C1212 1.386 . S
C1213 C1217 1.393 . S
C1214 H1206 0.950 . S
C1214 C1212 1.391 . S
C1214 C1215 1.400 . S
C1215 C1214 1.400 . S
C1215 C1216 1.398 . S
C1215 C1221 1.491 . S
C1216 H1207 0.950 . S
C1216 C1215 1.398 . S
C1216 C1217 1.391 . S
C1217 H1205 0.950 . S
C1217 C1213 1.393 . S
C1217 C1216 1.391 . S
C1218 H1208 0.950 . S
C1218 C1219 1.386 . S
C1218 C1220 1.391 . S
C1219 C1218 1.386 . S
C1219 C1223 1.393 . S
C1220 H1209 0.950 . S
C1220 C1218 1.391 . S
C1220 C1221 1.400 . S
C1221 C1215 1.491 . S
C1221 C1220 1.400 . S
C1221 C1222 1.398 . S
C1222 H1210 0.950 . S
C1222 C1221 1.398 . S
C1222 C1223 1.391 . S
C1223 H1211 0.950 . S
C1223 C1219 1.393 . S
C1223 C1222 1.391 . S
H1224 C1232 0.950 . S
H1225 C1237 0.950 . S
H1226 C1234 0.950 . S
H1227 C1236 0.950 . S
H1228 C1238 0.950 . S
H1229 C1240 0.950 . S
H1230 C1242 0.950 . S
H1231 C1243 0.950 . S
C1232 H1224 0.950 . S
C1232 C1233 1.386 . S
C1232 C1234 1.391 . S
C1233 C1232 1.386 . S
C1233 C1237 1.393 . S
C1234 H1226 0.950 . S
C1234 C1232 1.391 . S
C1234 C1235 1.400 . S
C1235 C1234 1.400 . S
C1235 C1236 1.398 . S
C1235 C1241 1.491 . S
C1236 H1227 0.950 . S
C1236 C1235 1.398 . S
C1236 C1237 1.391 . S
C1237 H1225 0.950 . S
C1237 C1233 1.393 . S
C1237 C1236 1.391 . S
C1238 H1228 0.950 . S
C1238 C1239 1.386 . S
C1238 C1240 1.391 . S
C1239 C1238 1.386 . S
C1239 C1243 1.393 . S
C1240 H1229 0.950 . S
C1240 C1238 1.391 . S
C1240 C1241 1.400 . S
C1241 C1235 1.491 . S
C1241 C1240 1.400 . S
C1241 C1242 1.398 . S
C1242 H1230 0.950 . S
C1242 C1241 1.398 . S
C1242 C1243 1.391 . S
C1243 H1231 0.950 . S
C1243 C1239 1.393 . S
C1243 C1242 1.391 . S
H1244 C1252 0.950 . S
H1245 C1257 0.950 . S
H1246 C1254 0.950 . S
H1247 C1256 0.950 . S
H1248 C1258 0.950 . S
H1249 C1260 0.950 . S
H1250 C1262 0.950 . S
H1251 C1263 0.950 . S
C1252 H1244 0.950 . S
C1252 C1253 1.386 1_565 S
C1252 C1254 1.391 . S
C1253 C1252 1.386 1_545 S
C1253 C1257 1.393 . S
C1254 H1246 0.950 . S
C1254 C1252 1.391 . S
C1254 C1255 1.373 1_565 S
C1255 C1254 1.373 1_545 S
C1255 C1256 1.426 . S
C1255 C1261 1.491 1_545 S
C1256 H1247 0.950 . S
C1256 C1255 1.426 . S
C1256 C1257 1.391 . S
C1257 H1245 0.950 . S
C1257 C1253 1.393 . S
C1257 C1256 1.391 . S
C1258 H1248 0.950 . S
C1258 C1259 1.386 1_545 S
C1258 C1260 1.391 . S
C1259 C1258 1.386 1_565 S
C1259 C1263 1.393 . S
C1260 H1249 0.950 . S
C1260 C1258 1.391 . S
C1260 C1261 1.394 1_545 S
C1261 C1255 1.491 1_565 S
C1261 C1260 1.394 1_565 S
C1261 C1262 1.405 . S
C1262 H1250 0.950 . S
C1262 C1261 1.405 . S
C1262 C1263 1.391 . S
C1263 H1251 0.950 . S
C1263 C1259 1.393 . S
C1263 C1262 1.391 . S
H1264 C1272 0.950 . S
H1265 C1277 0.950 . S
H1266 C1274 0.950 . S
H1267 C1276 0.950 . S
H1268 C1278 0.950 . S
H1269 C1280 0.950 . S
H1270 C1282 0.950 . S
H1271 C1283 0.950 . S
C1272 H1264 0.950 . S
C1272 C1273 1.371 1_655 S
C1272 C1274 1.391 . S
C1273 C1272 1.371 1_455 S
C1273 C1277 1.408 . S
C1274 H1266 0.950 . S
C1274 C1272 1.391 . S
C1274 C1275 1.397 1_655 S
C1275 C1274 1.397 1_455 S
C1275 C1276 1.401 . S
C1275 C1281 1.491 . S
C1276 H1267 0.950 . S
C1276 C1275 1.401 . S
C1276 C1277 1.391 . S
C1277 H1265 0.950 . S
C1277 C1273 1.408 . S
C1277 C1276 1.391 . S
C1278 H1268 0.950 . S
C1278 C1279 1.383 1_455 S
C1278 C1280 1.391 . S
C1279 C1278 1.383 1_655 S
C1279 C1283 1.395 . S
C1280 H1269 0.950 . S
C1280 C1278 1.391 . S
C1280 C1281 1.405 . S
C1281 C1275 1.491 . S
C1281 C1280 1.405 . S
C1281 C1282 1.394 1_455 S
C1282 H1270 0.950 . S
C1282 C1281 1.394 1_655 S
C1282 C1283 1.391 . S
C1283 H1271 0.950 . S
C1283 C1279 1.395 . S
C1283 C1282 1.391 . S
H1284 C1292 0.950 . S
H1285 C1297 0.950 . S
H1286 C1294 0.950 . S
H1287 C1296 0.950 . S
H1288 C1298 0.950 . S
H1289 C1300 0.950 . S
H1290 C1302 0.950 . S
H1291 C1303 0.950 . S
C1292 H1284 0.950 . S
C1292 C1293 1.386 . S
C1292 C1294 1.391 . S
C1293 C1292 1.386 . S
C1293 C1297 1.393 . S
C1294 H1286 0.950 . S
C1294 C1292 1.391 . S
C1294 C1295 1.400 . S
C1295 C1294 1.400 . S
C1295 C1296 1.398 . S
C1295 C1301 1.491 . S
C1296 H1287 0.950 . S
C1296 C1295 1.398 . S
C1296 C1297 1.391 . S
C1297 H1285 0.950 . S
C1297 C1293 1.393 . S
C1297 C1296 1.391 . S
C1298 H1288 0.950 . S
C1298 C1299 1.386 . S
C1298 C1300 1.391 . S
C1299 C1298 1.386 . S
C1299 C1303 1.393 . S
C1300 H1289 0.950 . S
C1300 C1298 1.391 . S
C1300 C1301 1.400 . S
C1301 C1295 1.491 . S
C1301 C1300 1.400 . S
C1301 C1302 1.398 . S
C1302 H1290 0.950 . S
C1302 C1301 1.398 . S
C1302 C1303 1.391 . S
C1303 H1291 0.950 . S
C1303 C1299 1.393 . S
C1303 C1302 1.391 . S
H1304 C1312 0.950 . S
H1305 C1317 0.950 . S
H1306 C1314 0.950 . S
H1307 C1316 0.950 . S
H1308 C1318 0.950 . S
H1309 C1320 0.950 . S
H1310 C1322 0.950 . S
H1311 C1323 0.950 . S
C1312 H1304 0.950 . S
C1312 C1313 1.394 . S
C1312 C1314 1.391 . S
C1313 C1312 1.394 . S
C1313 C1317 1.384 1_565 S
C1314 H1306 0.950 . S
C1314 C1312 1.391 . S
C1314 C1315 1.396 1_565 S
C1315 C1314 1.396 1_545 S
C1315 C1316 1.402 . S
C1315 C1321 1.491 . S
C1316 H1307 0.950 . S
C1316 C1315 1.402 . S
C1316 C1317 1.391 . S
C1317 H1305 0.950 . S
C1317 C1313 1.384 1_545 S
C1317 C1316 1.391 . S
C1318 H1308 0.950 . S
C1318 C1319 1.410 . S
C1318 C1320 1.391 . S
C1319 C1318 1.410 . S
C1319 C1323 1.369 1_545 S
C1320 H1309 0.950 . S
C1320 C1318 1.391 . S
C1320 C1321 1.405 . S
C1321 C1315 1.491 . S
C1321 C1320 1.405 . S
C1321 C1322 1.393 1_545 S
C1322 H1310 0.950 . S
C1322 C1321 1.393 1_565 S
C1322 C1323 1.391 . S
C1323 H1311 0.950 . S
C1323 C1319 1.369 1_565 S
C1323 C1322 1.391 . S
H1324 C1332 0.950 . S
H1325 C1337 0.950 . S
H1326 C1334 0.950 . S
H1327 C1336 0.950 . S
H1328 C1338 0.950 . S
H1329 C1340 0.950 . S
H1330 C1342 0.950 . S
H1331 C1343 0.950 . S
C1332 H1324 0.950 . S
C1332 C1333 1.386 . S
C1332 C1334 1.391 . S
C1333 C1332 1.386 . S
C1333 C1337 1.393 1_655 S
C1334 H1326 0.950 . S
C1334 C1332 1.391 . S
C1334 C1335 1.403 . S
C1335 C1334 1.403 . S
C1335 C1336 1.395 1_655 S
C1335 C1341 1.491 1_655 S
C1336 H1327 0.950 . S
C1336 C1335 1.395 1_455 S
C1336 C1337 1.391 . S
C1337 H1325 0.950 . S
C1337 C1333 1.393 1_455 S
C1337 C1336 1.391 . S
C1338 H1328 0.950 . S
C1338 C1339 1.386 . S
C1338 C1340 1.391 . S
C1339 C1338 1.386 . S
C1339 C1343 1.393 1_455 S
C1340 H1329 0.950 . S
C1340 C1338 1.391 . S
C1340 C1341 1.433 . S
C1341 C1335 1.491 1_455 S
C1341 C1340 1.433 . S
C1341 C1342 1.367 1_455 S
C1342 H1330 0.950 . S
C1342 C1341 1.367 1_655 S
C1342 C1343 1.391 . S
C1343 H1331 0.950 . S
C1343 C1339 1.393 1_655 S
C1343 C1342 1.391 . S
H1344 C1352 0.950 . S
H1345 C1357 0.950 . S
H1346 C1354 0.950 . S
H1347 C1356 0.950 . S
H1348 C1358 0.950 . S
H1349 C1360 0.950 . S
H1350 C1362 0.950 . S
H1351 C1363 0.950 . S
C1352 H1344 0.950 . S
C1352 C1353 1.386 . S
C1352 C1354 1.391 . S
C1353 C1352 1.386 . S
C1353 C1357 1.393 . S
C1354 H1346 0.950 . S
C1354 C1352 1.391 . S
C1354 C1355 1.400 . S
C1355 C1354 1.400 . S
C1355 C1356 1.398 . S
C1355 C1361 1.491 . S
C1356 H1347 0.950 . S
C1356 C1355 1.398 . S
C1356 C1357 1.391 . S
C1357 H1345 0.950 . S
C1357 C1353 1.393 . S
C1357 C1356 1.391 . S
C1358 H1348 0.950 . S
C1358 C1359 1.386 . S
C1358 C1360 1.391 . S
C1359 C1358 1.386 . S
C1359 C1363 1.393 . S
C1360 H1349 0.950 . S
C1360 C1358 1.391 . S
C1360 C1361 1.400 . S
C1361 C1355 1.491 . S
C1361 C1360 1.400 . S
C1361 C1362 1.398 . S
C1362 H1350 0.950 . S
C1362 C1361 1.398 . S
C1362 C1363 1.391 . S
C1363 H1351 0.950 . S
C1363 C1359 1.393 . S
C1363 C1362 1.391 . S
H1364 C1372 0.950 . S
H1365 C1377 0.950 . S
H1366 C1374 0.950 . S
H1367 C1376 0.950 . S
H1368 C1378 0.950 . S
H1369 C1380 0.950 . S
H1370 C1382 0.950 . S
H1371 C1383 0.950 . S
C1372 H1364 0.950 . S
C1372 C1373 1.386 . S
C1372 C1374 1.391 . S
C1373 C1372 1.386 . S
C1373 C1377 1.393 . S
C1374 H1366 0.950 . S
C1374 C1372 1.391 . S
C1374 C1375 1.400 . S
C1375 C1374 1.400 . S
C1375 C1376 1.398 . S
C1375 C1381 1.491 . S
C1376 H1367 0.950 . S
C1376 C1375 1.398 . S
C1376 C1377 1.391 . S
C1377 H1365 0.950 . S
C1377 C1373 1.393 . S
C1377 C1376 1.391 . S
C1378 H1368 0.950 . S
C1378 C1379 1.386 . S
C1378 C1380 1.391 . S
C1379 C1378 1.386 . S
C1379 C1383 1.393 . S
C1380 H1369 0.950 . S
C1380 C1378 1.391 . S
C1380 C1381 1.400 . S
C1381 C1375 1.491 . S
C1381 C1380 1.400 . S
C1381 C1382 1.398 . S
C1382 H1370 0.950 . S
C1382 C1381 1.398 . S
C1382 C1383 1.391 . S
C1383 H1371 0.950 . S
C1383 C1379 1.393 . S
C1383 C1382 1.391 . S
H1384 C1392 0.950 . S
H1385 C1397 0.950 . S
H1386 C1394 0.950 . S
H1387 C1396 0.950 . S
H1388 C1398 0.950 . S
H1389 C1400 0.950 . S
H1390 C1402 0.950 . S
H1391 C1403 0.950 . S
C1392 H1384 0.950 . S
C1392 C1393 1.386 . S
C1392 C1394 1.391 . S
C1393 C1392 1.386 . S
C1393 C1397 1.393 . S
C1394 H1386 0.950 . S
C1394 C1392 1.391 . S
C1394 C1395 1.400 . S
C1395 C1394 1.400 . S
C1395 C1396 1.398 . S
C1395 C1401 1.491 . S
C1396 H1387 0.950 . S
C1396 C1395 1.398 . S
C1396 C1397 1.391 . S
C1397 H1385 0.950 . S
C1397 C1393 1.393 . S
C1397 C1396 1.391 . S
C1398 H1388 0.950 . S
C1398 C1399 1.386 . S
C1398 C1400 1.391 . S
C1399 C1398 1.386 . S
C1399 C1403 1.393 . S
C1400 H1389 0.950 . S
C1400 C1398 1.391 . S
C1400 C1401 1.400 . S
C1401 C1395 1.491 . S
C1401 C1400 1.400 . S
C1401 C1402 1.398 . S
C1402 H1390 0.950 . S
C1402 C1401 1.398 . S
C1402 C1403 1.391 . S
C1403 H1391 0.950 . S
C1403 C1399 1.393 . S
C1403 C1402 1.391 . S
H1404 C1412 0.950 . S
H1405 C1417 0.950 . S
H1406 C1414 0.950 . S
H1407 C1416 0.950 . S
H1408 C1418 0.950 . S
H1409 C1420 0.950 . S
H1410 C1422 0.950 . S
H1411 C1423 0.950 . S
C1412 H1404 0.950 . S
C1412 C1413 1.386 . S
C1412 C1414 1.391 . S
C1413 C1412 1.386 . S
C1413 C1417 1.393 . S
C1414 H1406 0.950 . S
C1414 C1412 1.391 . S
C1414 C1415 1.400 . S
C1415 C1414 1.400 . S
C1415 C1416 1.398 . S
C1415 C1421 1.491 . S
C1416 H1407 0.950 . S
C1416 C1415 1.398 . S
C1416 C1417 1.391 . S
C1417 H1405 0.950 . S
C1417 C1413 1.393 . S
C1417 C1416 1.391 . S
C1418 H1408 0.950 . S
C1418 C1419 1.386 . S
C1418 C1420 1.391 . S
C1419 C1418 1.386 . S
C1419 C1423 1.393 . S
C1420 H1409 0.950 . S
C1420 C1418 1.391 . S
C1420 C1421 1.400 . S
C1421 C1415 1.491 . S
C1421 C1420 1.400 . S
C1421 C1422 1.398 . S
C1422 H1410 0.950 . S
C1422 C1421 1.398 . S
C1422 C1423 1.391 . S
C1423 H1411 0.950 . S
C1423 C1419 1.393 . S
C1423 C1422 1.391 . S
H1424 C1432 0.950 . S
H1425 C1437 0.950 . S
H1426 C1434 0.950 . S
H1427 C1436 0.950 . S
H1428 C1438 0.950 . S
H1429 C1440 0.950 . S
H1430 C1442 0.950 . S
H1431 C1443 0.950 . S
C1432 H1424 0.950 . S
C1432 C1433 1.386 . S
C1432 C1434 1.391 . S
C1433 C1432 1.386 . S
C1433 C1437 1.393 . S
C1434 H1426 0.950 . S
C1434 C1432 1.391 . S
C1434 C1435 1.400 . S
C1435 C1434 1.400 . S
C1435 C1436 1.398 . S
C1435 C1441 1.491 . S
C1436 H1427 0.950 . S
C1436 C1435 1.398 . S
C1436 C1437 1.391 . S
C1437 H1425 0.950 . S
C1437 C1433 1.393 . S
C1437 C1436 1.391 . S
C1438 H1428 0.950 . S
C1438 C1439 1.386 . S
C1438 C1440 1.391 . S
C1439 C1438 1.386 . S
C1439 C1443 1.393 . S
C1440 H1429 0.950 . S
C1440 C1438 1.391 . S
C1440 C1441 1.400 . S
C1441 C1435 1.491 . S
C1441 C1440 1.400 . S
C1441 C1442 1.398 . S
C1442 H1430 0.950 . S
C1442 C1441 1.398 . S
C1442 C1443 1.391 . S
C1443 H1431 0.950 . S
C1443 C1439 1.393 . S
C1443 C1442 1.391 . S
H1444 C1452 0.950 . S
H1445 C1457 0.950 . S
H1446 C1454 0.950 . S
H1447 C1456 0.950 . S
H1448 C1458 0.950 . S
H1449 C1460 0.950 . S
H1450 C1462 0.950 . S
H1451 C1463 0.950 . S
C1452 H1444 0.950 . S
C1452 C1453 1.386 . S
C1452 C1454 1.391 . S
C1453 C1452 1.386 . S
C1453 C1457 1.393 . S
C1454 H1446 0.950 . S
C1454 C1452 1.391 . S
C1454 C1455 1.400 . S
C1455 C1454 1.400 . S
C1455 C1456 1.398 . S
C1455 C1461 1.491 . S
C1456 H1447 0.950 . S
C1456 C1455 1.398 . S
C1456 C1457 1.391 . S
C1457 H1445 0.950 . S
C1457 C1453 1.393 . S
C1457 C1456 1.391 . S
C1458 H1448 0.950 . S
C1458 C1459 1.386 . S
C1458 C1460 1.391 . S
C1459 C1458 1.386 . S
C1459 C1463 1.393 . S
C1460 H1449 0.950 . S
C1460 C1458 1.391 . S
C1460 C1461 1.400 . S
C1461 C1455 1.491 . S
C1461 C1460 1.400 . S
C1461 C1462 1.398 . S
C1462 H1450 0.950 . S
C1462 C1461 1.398 . S
C1462 C1463 1.391 . S
C1463 H1451 0.950 . S
C1463 C1459 1.393 . S
C1463 C1462 1.391 . S
H1464 C1472 0.950 . S
H1465 C1477 0.950 . S
H1466 C1474 0.950 . S
H1467 C1476 0.950 . S
H1468 C1478 0.950 . S
H1469 C1480 0.950 . S
H1470 C1482 0.950 . S
H1471 C1483 0.950 . S
C1472 H1464 0.950 . S
C1472 C1473 1.386 . S
C1472 C1474 1.391 . S
C1473 C1472 1.386 . S
C1473 C1477 1.393 . S
C1474 H1466 0.950 . S
C1474 C1472 1.391 . S
C1474 C1475 1.400 . S
C1475 C1474 1.400 . S
C1475 C1476 1.398 . S
C1475 C1481 1.491 . S
C1476 H1467 0.950 . S
C1476 C1475 1.398 . S
C1476 C1477 1.391 . S
C1477 H1465 0.950 . S
C1477 C1473 1.393 . S
C1477 C1476 1.391 . S
C1478 H1468 0.950 . S
C1478 C1479 1.386 . S
C1478 C1480 1.391 . S
C1479 C1478 1.386 . S
C1479 C1483 1.393 . S
C1480 H1469 0.950 . S
C1480 C1478 1.391 . S
C1480 C1481 1.400 . S
C1481 C1475 1.491 . S
C1481 C1480 1.400 . S
C1481 C1482 1.398 . S
C1482 H1470 0.950 . S
C1482 C1481 1.398 . S
C1482 C1483 1.391 . S
C1483 H1471 0.950 . S
C1483 C1479 1.393 . S
C1483 C1482 1.391 . S
H1484 C1492 0.950 . S
H1485 C1497 0.950 . S
H1486 C1494 0.950 . S
H1487 C1496 0.950 . S
H1488 C1498 0.950 . S
H1489 C1500 0.950 . S
H1490 C1502 0.950 . S
H1491 C1503 0.950 . S
C1492 H1484 0.950 . S
C1492 C1493 1.386 . S
C1492 C1494 1.391 . S
C1493 C1492 1.386 . S
C1493 C1497 1.393 . S
C1494 H1486 0.950 . S
C1494 C1492 1.391 . S
C1494 C1495 1.400 . S
C1495 C1494 1.400 . S
C1495 C1496 1.398 . S
C1495 C1501 1.491 . S
C1496 H1487 0.950 . S
C1496 C1495 1.398 . S
C1496 C1497 1.391 . S
C1497 H1485 0.950 . S
C1497 C1493 1.393 . S
C1497 C1496 1.391 . S
C1498 H1488 0.950 . S
C1498 C1499 1.386 . S
C1498 C1500 1.391 . S
C1499 C1498 1.386 . S
C1499 C1503 1.393 . S
C1500 H1489 0.950 . S
C1500 C1498 1.391 . S
C1500 C1501 1.400 . S
C1501 C1495 1.491 . S
C1501 C1500 1.400 . S
C1501 C1502 1.398 . S
C1502 H1490 0.950 . S
C1502 C1501 1.398 . S
C1502 C1503 1.391 . S
C1503 H1491 0.950 . S
C1503 C1499 1.393 . S
C1503 C1502 1.391 . S
H1504 C1512 0.950 . S
H1505 C1517 0.950 . S
H1506 C1514 0.950 . S
H1507 C1516 0.950 . S
H1508 C1518 0.950 . S
H1509 C1520 0.950 . S
H1510 C1522 0.950 . S
H1511 C1523 0.950 . S
C1512 H1504 0.950 . S
C1512 C1513 1.386 . S
C1512 C1514 1.391 . S
C1513 C1512 1.386 . S
C1513 C1517 1.393 . S
C1514 H1506 0.950 . S
C1514 C1512 1.391 . S
C1514 C1515 1.400 . S
C1515 C1514 1.400 . S
C1515 C1516 1.398 . S
C1515 C1521 1.491 . S
C1516 H1507 0.950 . S
C1516 C1515 1.398 . S
C1516 C1517 1.391 . S
C1517 H1505 0.950 . S
C1517 C1513 1.393 . S
C1517 C1516 1.391 . S
C1518 H1508 0.950 . S
C1518 C1519 1.386 . S
C1518 C1520 1.391 . S
C1519 C1518 1.386 . S
C1519 C1523 1.393 . S
C1520 H1509 0.950 . S
C1520 C1518 1.391 . S
C1520 C1521 1.400 . S
C1521 C1515 1.491 . S
C1521 C1520 1.400 . S
C1521 C1522 1.398 . S
C1522 H1510 0.950 . S
C1522 C1521 1.398 . S
C1522 C1523 1.391 . S
C1523 H1511 0.950 . S
C1523 C1519 1.393 . S
C1523 C1522 1.391 . S
H1524 C1532 0.950 . S
H1525 C1537 0.950 . S
H1526 C1534 0.950 . S
H1527 C1536 0.950 . S
H1528 C1538 0.950 . S
H1529 C1540 0.950 . S
H1530 C1542 0.950 . S
H1531 C1543 0.950 . S
C1532 H1524 0.950 . S
C1532 C1533 1.386 . S
C1532 C1534 1.391 . S
C1533 C1532 1.386 . S
C1533 C1537 1.393 . S
C1534 H1526 0.950 . S
C1534 C1532 1.391 . S
C1534 C1535 1.400 . S
C1535 C1534 1.400 . S
C1535 C1536 1.398 . S
C1535 C1541 1.491 . S
C1536 H1527 0.950 . S
C1536 C1535 1.398 . S
C1536 C1537 1.391 . S
C1537 H1525 0.950 . S
C1537 C1533 1.393 . S
C1537 C1536 1.391 . S
C1538 H1528 0.950 . S
C1538 C1539 1.386 . S
C1538 C1540 1.391 . S
C1539 C1538 1.386 . S
C1539 C1543 1.393 . S
C1540 H1529 0.950 . S
C1540 C1538 1.391 . S
C1540 C1541 1.400 . S
C1541 C1535 1.491 . S
C1541 C1540 1.400 . S
C1541 C1542 1.398 . S
C1542 H1530 0.950 . S
C1542 C1541 1.398 . S
C1542 C1543 1.391 . S
C1543 H1531 0.950 . S
C1543 C1539 1.393 . S
C1543 C1542 1.391 . S
H1544 C1552 0.950 . S
H1545 C1557 0.950 . S
H1546 C1554 0.950 . S
H1547 C1556 0.950 . S
H1548 C1558 0.950 . S
H1549 C1560 0.950 . S
H1550 C1562 0.950 . S
H1551 C1563 0.950 . S
C1552 H1544 0.950 . S
C1552 C1553 1.386 . S
C1552 C1554 1.391 . S
C1553 C1552 1.386 . S
C1553 C1557 1.393 . S
C1554 H1546 0.950 . S
C1554 C1552 1.391 . S
C1554 C1555 1.400 . S
C1555 C1554 1.400 . S
C1555 C1556 1.398 . S
C1555 C1561 1.491 . S
C1556 H1547 0.950 . S
C1556 C1555 1.398 . S
C1556 C1557 1.391 . S
C1557 H1545 0.950 . S
C1557 C1553 1.393 . S
C1557 C1556 1.391 . S
C1558 H1548 0.950 . S
C1558 C1559 1.386 . S
C1558 C1560 1.391 . S
C1559 C1558 1.386 . S
C1559 C1563 1.393 . S
C1560 H1549 0.950 . S
C1560 C1558 1.391 . S
C1560 C1561 1.400 . S
C1561 C1555 1.491 . S
C1561 C1560 1.400 . S
C1561 C1562 1.398 . S
C1562 H1550 0.950 . S
C1562 C1561 1.398 . S
C1562 C1563 1.391 . S
C1563 H1551 0.950 . S
C1563 C1559 1.393 . S
C1563 C1562 1.391 . S
H1564 C1572 0.950 . S
H1565 C1577 0.950 . S
H1566 C1574 0.950 . S
H1567 C1576 0.950 . S
H1568 C1578 0.950 . S
H1569 C1580 0.950 . S
H1570 C1582 0.950 . S
H1571 C1583 0.950 . S
C1572 H1564 0.950 . S
C1572 C1573 1.386 . S
C1572 C1574 1.391 . S
C1573 C1572 1.386 . S
C1573 C1577 1.393 . S
C1574 H1566 0.950 . S
C1574 C1572 1.391 . S
C1574 C1575 1.400 . S
C1575 C1574 1.400 . S
C1575 C1576 1.398 . S
C1575 C1581 1.491 . S
C1576 H1567 0.950 . S
C1576 C1575 1.398 . S
C1576 C1577 1.391 . S
C1577 H1565 0.950 . S
C1577 C1573 1.393 . S
C1577 C1576 1.391 . S
C1578 H1568 0.950 . S
C1578 C1579 1.386 . S
C1578 C1580 1.391 . S
C1579 C1578 1.386 . S
C1579 C1583 1.393 . S
C1580 H1569 0.950 . S
C1580 C1578 1.391 . S
C1580 C1581 1.400 . S
C1581 C1575 1.491 . S
C1581 C1580 1.400 . S
C1581 C1582 1.398 . S
C1582 H1570 0.950 . S
C1582 C1581 1.398 . S
C1582 C1583 1.391 . S
C1583 H1571 0.950 . S
C1583 C1579 1.393 . S
C1583 C1582 1.391 . S
H1584 C1592 0.950 . S
H1585 C1597 0.950 . S
H1586 C1594 0.950 . S
H1587 C1596 0.950 . S
H1588 C1598 0.950 . S
H1589 C1600 0.950 . S
H1590 C1602 0.950 . S
H1591 C1603 0.950 . S
C1592 H1584 0.950 . S
C1592 C1593 1.386 . S
C1592 C1594 1.391 . S
C1593 C1592 1.386 . S
C1593 C1597 1.393 . S
C1594 H1586 0.950 . S
C1594 C1592 1.391 . S
C1594 C1595 1.400 . S
C1595 C1594 1.400 . S
C1595 C1596 1.398 . S
C1595 C1601 1.491 . S
C1596 H1587 0.950 . S
C1596 C1595 1.398 . S
C1596 C1597 1.391 . S
C1597 H1585 0.950 . S
C1597 C1593 1.393 . S
C1597 C1596 1.391 . S
C1598 H1588 0.950 . S
C1598 C1599 1.386 . S
C1598 C1600 1.391 . S
C1599 C1598 1.386 . S
C1599 C1603 1.393 . S
C1600 H1589 0.950 . S
C1600 C1598 1.391 . S
C1600 C1601 1.400 . S
C1601 C1595 1.491 . S
C1601 C1600 1.400 . S
C1601 C1602 1.398 . S
C1602 H1590 0.950 . S
C1602 C1601 1.398 . S
C1602 C1603 1.391 . S
C1603 H1591 0.950 . S
C1603 C1599 1.393 . S
C1603 C1602 1.391 . S
H1604 C1612 0.950 . S
H1605 C1617 0.950 . S
H1606 C1614 0.950 . S
H1607 C1616 0.950 . S
H1608 C1618 0.950 . S
H1609 C1620 0.950 . S
H1610 C1622 0.950 . S
H1611 C1623 0.950 . S
C1612 H1604 0.950 . S
C1612 C1613 1.386 . S
C1612 C1614 1.391 . S
C1613 C1612 1.386 . S
C1613 C1617 1.393 . S
C1614 H1606 0.950 . S
C1614 C1612 1.391 . S
C1614 C1615 1.400 . S
C1615 C1614 1.400 . S
C1615 C1616 1.398 . S
C1615 C1621 1.491 . S
C1616 H1607 0.950 . S
C1616 C1615 1.398 . S
C1616 C1617 1.391 . S
C1617 H1605 0.950 . S
C1617 C1613 1.393 . S
C1617 C1616 1.391 . S
C1618 H1608 0.950 . S
C1618 C1619 1.386 . S
C1618 C1620 1.391 . S
C1619 C1618 1.386 . S
C1619 C1623 1.393 . S
C1620 H1609 0.950 . S
C1620 C1618 1.391 . S
C1620 C1621 1.400 . S
C1621 C1615 1.491 . S
C1621 C1620 1.400 . S
C1621 C1622 1.398 . S
C1622 H1610 0.950 . S
C1622 C1621 1.398 . S
C1622 C1623 1.391 . S
C1623 H1611 0.950 . S
C1623 C1619 1.393 . S
C1623 C1622 1.391 . S
H1624 C1632 0.950 . S
H1625 C1637 0.950 . S
H1626 C1634 0.950 . S
H1627 C1636 0.950 . S
H1628 C1638 0.950 . S
H1629 C1640 0.950 . S
H1630 C1642 0.950 . S
H1631 C1643 0.950 . S
C1632 H1624 0.950 . S
C1632 C1633 1.386 . S
C1632 C1634 1.391 . S
C1633 C1632 1.386 . S
C1633 C1637 1.393 . S
C1634 H1626 0.950 . S
C1634 C1632 1.391 . S
C1634 C1635 1.400 . S
C1635 C1634 1.400 . S
C1635 C1636 1.398 . S
C1635 C1641 1.491 . S
C1636 H1627 0.950 . S
C1636 C1635 1.398 . S
C1636 C1637 1.391 . S
C1637 H1625 0.950 . S
C1637 C1633 1.393 . S
C1637 C1636 1.391 . S
C1638 H1628 0.950 . S
C1638 C1639 1.386 . S
C1638 C1640 1.391 . S
C1639 C1638 1.386 . S
C1639 C1643 1.393 . S
C1640 H1629 0.950 . S
C1640 C1638 1.391 . S
C1640 C1641 1.400 . S
C1641 C1635 1.491 . S
C1641 C1640 1.400 . S
C1641 C1642 1.398 . S
C1642 H1630 0.950 . S
C1642 C1641 1.398 . S
C1642 C1643 1.391 . S
C1643 H1631 0.950 . S
C1643 C1639 1.393 . S
C1643 C1642 1.391 . S
H1644 C1652 0.950 . S
H1645 C1657 0.950 . S
H1646 C1654 0.950 . S
H1647 C1656 0.950 . S
H1648 C1658 0.950 . S
H1649 C1660 0.950 . S
H1650 C1662 0.950 . S
H1651 C1663 0.950 . S
C1652 H1644 0.950 . S
C1652 C1653 1.386 . S
C1652 C1654 1.391 . S
C1653 C1652 1.386 . S
C1653 C1657 1.393 . S
C1654 H1646 0.950 . S
C1654 C1652 1.391 . S
C1654 C1655 1.400 . S
C1655 C1654 1.400 . S
C1655 C1656 1.398 . S
C1655 C1661 1.491 . S
C1656 H1647 0.950 . S
C1656 C1655 1.398 . S
C1656 C1657 1.391 . S
C1657 H1645 0.950 . S
C1657 C1653 1.393 . S
C1657 C1656 1.391 . S
C1658 H1648 0.950 . S
C1658 C1659 1.386 . S
C1658 C1660 1.391 . S
C1659 C1658 1.386 . S
C1659 C1663 1.393 . S
C1660 H1649 0.950 . S
C1660 C1658 1.391 . S
C1660 C1661 1.400 . S
C1661 C1655 1.491 . S
C1661 C1660 1.400 . S
C1661 C1662 1.398 . S
C1662 H1650 0.950 . S
C1662 C1661 1.398 . S
C1662 C1663 1.391 . S
C1663 H1651 0.950 . S
C1663 C1659 1.393 . S
C1663 C1662 1.391 . S
H1664 C1672 0.950 . S
H1665 C1677 0.950 . S
H1666 C1674 0.950 . S
H1667 C1676 0.950 . S
H1668 C1678 0.950 . S
H1669 C1680 0.950 . S
H1670 C1682 0.950 . S
H1671 C1683 0.950 . S
C1672 H1664 0.950 . S
C1672 C1673 1.386 . S
C1672 C1674 1.391 . S
C1673 C1672 1.386 . S
C1673 C1677 1.393 . S
C1674 H1666 0.950 . S
C1674 C1672 1.391 . S
C1674 C1675 1.400 . S
C1675 C1674 1.400 . S
C1675 C1676 1.398 . S
C1675 C1681 1.491 . S
C1676 H1667 0.950 . S
C1676 C1675 1.398 . S
C1676 C1677 1.391 . S
C1677 H1665 0.950 . S
C1677 C1673 1.393 . S
C1677 C1676 1.391 . S
C1678 H1668 0.950 . S
C1678 C1679 1.386 . S
C1678 C1680 1.391 . S
C1679 C1678 1.386 . S
C1679 C1683 1.393 . S
C1680 H1669 0.950 . S
C1680 C1678 1.391 . S
C1680 C1681 1.400 . S
C1681 C1675 1.491 . S
C1681 C1680 1.400 . S
C1681 C1682 1.398 . S
C1682 H1670 0.950 . S
C1682 C1681 1.398 . S
C1682 C1683 1.391 . S
C1683 H1671 0.950 . S
C1683 C1679 1.393 . S
C1683 C1682 1.391 . S
H1684 C1692 0.950 . S
H1685 C1697 0.950 . S
H1686 C1694 0.950 . S
H1687 C1696 0.950 . S
H1688 C1698 0.950 . S
H1689 C1700 0.950 . S
H1690 C1702 0.950 . S
H1691 C1703 0.950 . S
C1692 H1684 0.950 . S
C1692 C1693 1.386 . S
C1692 C1694 1.391 . S
C1693 C1692 1.386 . S
C1693 C1697 1.393 . S
C1694 H1686 0.950 . S
C1694 C1692 1.391 . S
C1694 C1695 1.400 . S
C1695 C1694 1.400 . S
C1695 C1696 1.398 . S
C1695 C1701 1.491 . S
C1696 H1687 0.950 . S
C1696 C1695 1.398 . S
C1696 C1697 1.391 . S
C1697 H1685 0.950 . S
C1697 C1693 1.393 . S
C1697 C1696 1.391 . S
C1698 H1688 0.950 . S
C1698 C1699 1.386 . S
C1698 C1700 1.391 . S
C1699 C1698 1.386 . S
C1699 C1703 1.393 . S
C1700 H1689 0.950 . S
C1700 C1698 1.391 . S
C1700 C1701 1.400 . S
C1701 C1695 1.491 . S
C1701 C1700 1.400 . S
C1701 C1702 1.398 . S
C1702 H1690 0.950 . S
C1702 C1701 1.398 . S
C1702 C1703 1.391 . S
C1703 H1691 0.950 . S
C1703 C1699 1.393 . S
C1703 C1702 1.391 . S
H1704 C1712 0.950 . S
H1705 C1717 0.950 . S
H1706 C1714 0.950 . S
H1707 C1716 0.950 . S
H1708 C1718 0.950 . S
H1709 C1720 0.950 . S
H1710 C1722 0.950 . S
H1711 C1723 0.950 . S
C1712 H1704 0.950 . S
C1712 C1713 1.386 . S
C1712 C1714 1.391 . S
C1713 C1712 1.386 . S
C1713 C1717 1.393 . S
C1714 H1706 0.950 . S
C1714 C1712 1.391 . S
C1714 C1715 1.400 . S
C1715 C1714 1.400 . S
C1715 C1716 1.398 . S
C1715 C1721 1.491 . S
C1716 H1707 0.950 . S
C1716 C1715 1.398 . S
C1716 C1717 1.391 . S
C1717 H1705 0.950 . S
C1717 C1713 1.393 . S
C1717 C1716 1.391 . S
C1718 H1708 0.950 . S
C1718 C1719 1.386 . S
C1718 C1720 1.391 . S
C1719 C1718 1.386 . S
C1719 C1723 1.393 . S
C1720 H1709 0.950 . S
C1720 C1718 1.391 . S
C1720 C1721 1.400 . S
C1721 C1715 1.491 . S
C1721 C1720 1.400 . S
C1721 C1722 1.398 . S
C1722 H1710 0.950 . S
C1722 C1721 1.398 . S
C1722 C1723 1.391 . S
C1723 H1711 0.950 . S
C1723 C1719 1.393 . S
C1723 C1722 1.391 . S
H1724 C1732 0.950 . S
H1725 C1737 0.950 . S
H1726 C1734 0.950 . S
H1727 C1736 0.950 . S
H1728 C1738 0.950 . S
H1729 C1740 0.950 . S
H1730 C1742 0.950 . S
H1731 C1743 0.950 . S
C1732 H1724 0.950 . S
C1732 C1733 1.386 . S
C1732 C1734 1.391 . S
C1733 C1732 1.386 . S
C1733 C1737 1.393 . S
C1734 H1726 0.950 . S
C1734 C1732 1.391 . S
C1734 C1735 1.400 . S
C1735 C1734 1.400 . S
C1735 C1736 1.398 . S
C1735 C1741 1.491 . S
C1736 H1727 0.950 . S
C1736 C1735 1.398 . S
C1736 C1737 1.391 . S
C1737 H1725 0.950 . S
C1737 C1733 1.393 . S
C1737 C1736 1.391 . S
C1738 H1728 0.950 . S
C1738 C1739 1.386 . S
C1738 C1740 1.391 . S
C1739 C1738 1.386 . S
C1739 C1743 1.393 . S
C1740 H1729 0.950 . S
C1740 C1738 1.391 . S
C1740 C1741 1.400 . S
C1741 C1735 1.491 . S
C1741 C1740 1.400 . S
C1741 C1742 1.398 . S
C1742 H1730 0.950 . S
C1742 C1741 1.398 . S
C1742 C1743 1.391 . S
C1743 H1731 0.950 . S
C1743 C1739 1.393 . S
C1743 C1742 1.391 . S
H1744 C1752 0.950 . S
H1745 C1757 0.950 . S
H1746 C1754 0.950 . S
H1747 C1756 0.950 . S
H1748 C1758 0.950 . S
H1749 C1760 0.950 . S
H1750 C1762 0.950 . S
H1751 C1763 0.950 . S
C1752 H1744 0.950 . S
C1752 C1753 1.386 . S
C1752 C1754 1.391 . S
C1753 C1752 1.386 . S
C1753 C1757 1.393 . S
C1754 H1746 0.950 . S
C1754 C1752 1.391 . S
C1754 C1755 1.400 . S
C1755 C1754 1.400 . S
C1755 C1756 1.398 . S
C1755 C1761 1.491 . S
C1756 H1747 0.950 . S
C1756 C1755 1.398 . S
C1756 C1757 1.391 . S
C1757 H1745 0.950 . S
C1757 C1753 1.393 . S
C1757 C1756 1.391 . S
C1758 H1748 0.950 . S
C1758 C1759 1.386 . S
C1758 C1760 1.391 . S
C1759 C1758 1.386 . S
C1759 C1763 1.393 . S
C1760 H1749 0.950 . S
C1760 C1758 1.391 . S
C1760 C1761 1.400 . S
C1761 C1755 1.491 . S
C1761 C1760 1.400 . S
C1761 C1762 1.398 . S
C1762 H1750 0.950 . S
C1762 C1761 1.398 . S
C1762 C1763 1.391 . S
C1763 H1751 0.950 . S
C1763 C1759 1.393 . S
C1763 C1762 1.391 . S
H1764 C1772 0.950 . S
H1765 C1777 0.950 . S
H1766 C1774 0.950 . S
H1767 C1776 0.950 . S
H1768 C1778 0.950 . S
H1769 C1780 0.950 . S
H1770 C1782 0.950 . S
H1771 C1783 0.950 . S
C1772 H1764 0.950 . S
C1772 C1773 1.386 . S
C1772 C1774 1.391 . S
C1773 C1772 1.386 . S
C1773 C1777 1.393 . S
C1774 H1766 0.950 . S
C1774 C1772 1.391 . S
C1774 C1775 1.400 . S
C1775 C1774 1.400 . S
C1775 C1776 1.398 . S
C1775 C1781 1.491 . S
C1776 H1767 0.950 . S
C1776 C1775 1.398 . S
C1776 C1777 1.391 . S
C1777 H1765 0.950 . S
C1777 C1773 1.393 . S
C1777 C1776 1.391 . S
C1778 H1768 0.950 . S
C1778 C1779 1.386 . S
C1778 C1780 1.391 . S
C1779 C1778 1.386 . S
C1779 C1783 1.393 . S
C1780 H1769 0.950 . S
C1780 C1778 1.391 . S
C1780 C1781 1.400 . S
C1781 C1775 1.491 . S
C1781 C1780 1.400 . S
C1781 C1782 1.398 . S
C1782 H1770 0.950 . S
C1782 C1781 1.398 . S
C1782 C1783 1.391 . S
C1783 H1771 0.950 . S
C1783 C1779 1.393 . S
C1783 C1782 1.391 . S
H1784 C1792 0.950 . S
H1785 C1797 0.950 . S
H1786 C1794 0.950 . S
H1787 C1796 0.950 . S
H1788 C1798 0.950 . S
H1789 C1800 0.950 . S
H1790 C1802 0.950 . S
H1791 C1803 0.950 . S
C1792 H1784 0.950 . S
C1792 C1793 1.386 . S
C1792 C1794 1.391 . S
C1793 C1792 1.386 . S
C1793 C1797 1.393 . S
C1794 H1786 0.950 . S
C1794 C1792 1.391 . S
C1794 C1795 1.400 . S
C1795 C1794 1.400 . S
C1795 C1796 1.398 . S
C1795 C1801 1.491 . S
C1796 H1787 0.950 . S
C1796 C1795 1.398 . S
C1796 C1797 1.391 . S
C1797 H1785 0.950 . S
C1797 C1793 1.393 . S
C1797 C1796 1.391 . S
C1798 H1788 0.950 . S
C1798 C1799 1.386 . S
C1798 C1800 1.391 . S
C1799 C1798 1.386 . S
C1799 C1803 1.393 . S
C1800 H1789 0.950 . S
C1800 C1798 1.391 . S
C1800 C1801 1.400 . S
C1801 C1795 1.491 . S
C1801 C1800 1.400 . S
C1801 C1802 1.398 . S
C1802 H1790 0.950 . S
C1802 C1801 1.398 . S
C1802 C1803 1.391 . S
C1803 H1791 0.950 . S
C1803 C1799 1.393 . S
C1803 C1802 1.391 . S
H1804 C1812 0.950 . S
H1805 C1817 0.950 . S
H1806 C1814 0.950 . S
H1807 C1816 0.950 . S
H1808 C1818 0.950 . S
H1809 C1820 0.950 . S
H1810 C1822 0.950 . S
H1811 C1823 0.950 . S
C1812 H1804 0.950 . S
C1812 C1813 1.386 . S
C1812 C1814 1.391 . S
C1813 C1812 1.386 . S
C1813 C1817 1.393 . S
C1814 H1806 0.950 . S
C1814 C1812 1.391 . S
C1814 C1815 1.400 . S
C1815 C1814 1.400 . S
C1815 C1816 1.398 . S
C1815 C1821 1.491 . S
C1816 H1807 0.950 . S
C1816 C1815 1.398 . S
C1816 C1817 1.391 . S
C1817 H1805 0.950 . S
C1817 C1813 1.393 . S
C1817 C1816 1.391 . S
C1818 H1808 0.950 . S
C1818 C1819 1.386 . S
C1818 C1820 1.391 . S
C1819 C1818 1.386 . S
C1819 C1823 1.393 . S
C1820 H1809 0.950 . S
C1820 C1818 1.391 . S
C1820 C1821 1.400 . S
C1821 C1815 1.491 . S
C1821 C1820 1.400 . S
C1821 C1822 1.398 . S
C1822 H1810 0.950 . S
C1822 C1821 1.398 . S
C1822 C1823 1.391 . S
C1823 H1811 0.950 . S
C1823 C1819 1.393 . S
C1823 C1822 1.391 . S
H1824 C1832 0.950 . S
H1825 C1837 0.950 . S
H1826 C1834 0.950 . S
H1827 C1836 0.950 1_655 S
H1828 C1838 0.950 . S
H1829 C1840 0.950 . S
H1830 C1842 0.950 1_455 S
H1831 C1843 0.950 . S
C1832 H1824 0.950 . S
C1832 C1833 1.386 . S
C1832 C1834 1.391 . S
C1833 C1832 1.386 . S
C1833 C1837 1.393 . S
C1834 H1826 0.950 . S
C1834 C1832 1.391 . S
C1834 C1835 1.400 . S
C1835 C1834 1.400 . S
C1835 C1836 1.398 . S
C1835 C1841 1.491 1_455 S
C1836 H1827 0.950 1_455 S
C1836 C1835 1.398 . S
C1836 C1837 1.391 . S
C1837 H1825 0.950 . S
C1837 C1833 1.393 . S
C1837 C1836 1.391 . S
C1838 H1828 0.950 . S
C1838 C1839 1.386 . S
C1838 C1840 1.391 . S
C1839 C1838 1.386 . S
C1839 C1843 1.393 . S
C1840 H1829 0.950 . S
C1840 C1838 1.391 . S
C1840 C1841 1.400 . S
C1841 C1835 1.491 1_655 S
C1841 C1840 1.400 . S
C1841 C1842 1.398 . S
C1842 H1830 0.950 1_655 S
C1842 C1841 1.398 . S
C1842 C1843 1.391 . S
C1843 H1831 0.950 . S
C1843 C1839 1.393 . S
C1843 C1842 1.391 . S
H1844 C1852 0.950 . S
H1845 C1857 0.950 . S
H1846 C1854 0.950 . S
H1847 C1856 0.950 . S
H1848 C1858 0.950 . S
H1849 C1860 0.950 . S
H1850 C1862 0.950 . S
H1851 C1863 0.950 . S
C1852 H1844 0.950 . S
C1852 C1853 1.386 . S
C1852 C1854 1.391 . S
C1853 C1852 1.386 . S
C1853 C1857 1.393 . S
C1854 H1846 0.950 . S
C1854 C1852 1.391 . S
C1854 C1855 1.400 . S
C1855 C1854 1.400 . S
C1855 C1856 1.398 . S
C1855 C1861 1.491 . S
C1856 H1847 0.950 . S
C1856 C1855 1.398 . S
C1856 C1857 1.391 . S
C1857 H1845 0.950 . S
C1857 C1853 1.393 . S
C1857 C1856 1.391 . S
C1858 H1848 0.950 . S
C1858 C1859 1.386 . S
C1858 C1860 1.391 . S
C1859 C1858 1.386 . S
C1859 C1863 1.393 . S
C1860 H1849 0.950 . S
C1860 C1858 1.391 . S
C1860 C1861 1.400 . S
C1861 C1855 1.491 . S
C1861 C1860 1.400 . S
C1861 C1862 1.398 . S
C1862 H1850 0.950 . S
C1862 C1861 1.398 . S
C1862 C1863 1.391 . S
C1863 H1851 0.950 . S
C1863 C1859 1.393 . S
C1863 C1862 1.391 . S
H1864 C1872 0.950 . S
H1865 C1877 0.950 . S
H1866 C1874 0.950 1_565 S
H1867 C1876 0.950 . S
H1868 C1878 0.950 . S
H1869 C1880 0.950 1_545 S
H1870 C1882 0.950 . S
H1871 C1883 0.950 . S
C1872 H1864 0.950 . S
C1872 C1873 1.386 . S
C1872 C1874 1.391 . S
C1873 C1872 1.386 . S
C1873 C1877 1.393 . S
C1874 H1866 0.950 1_545 S
C1874 C1872 1.391 . S
C1874 C1875 1.400 . S
C1875 C1874 1.400 . S
C1875 C1876 1.398 . S
C1875 C1881 1.491 1_545 S
C1876 H1867 0.950 . S
C1876 C1875 1.398 . S
C1876 C1877 1.391 . S
C1877 H1865 0.950 . S
C1877 C1873 1.393 . S
C1877 C1876 1.391 . S
C1878 H1868 0.950 . S
C1878 C1879 1.386 . S
C1878 C1880 1.391 . S
C1879 C1878 1.386 . S
C1879 C1883 1.393 . S
C1880 H1869 0.950 1_565 S
C1880 C1878 1.391 . S
C1880 C1881 1.400 . S
C1881 C1875 1.491 1_565 S
C1881 C1880 1.400 . S
C1881 C1882 1.398 . S
C1882 H1870 0.950 . S
C1882 C1881 1.398 . S
C1882 C1883 1.391 . S
C1883 H1871 0.950 . S
C1883 C1879 1.393 . S
C1883 C1882 1.391 . S
H1884 C1892 0.950 . S
H1885 C1897 0.950 . S
H1886 C1894 0.950 1_565 S
H1887 C1896 0.950 . S
H1888 C1898 0.971 . S
H1889 C1900 0.950 1_545 S
H1890 C1902 0.950 . S
H1891 C1903 0.950 . S
C1892 H1884 0.950 . S
C1892 C1893 1.386 1_554 S
C1892 C1894 1.391 . S
C1893 C1892 1.386 1_556 S
C1893 C1897 1.393 . S
C1894 H1886 0.950 1_545 S
C1894 C1892 1.391 . S
C1894 C1895 1.402 1_554 S
C1895 C1894 1.402 1_556 S
C1895 C1896 1.396 . S
C1895 C1901 1.491 1_546 S
C1896 H1887 0.950 . S
C1896 C1895 1.396 . S
C1896 C1897 1.391 . S
C1897 H1885 0.950 . S
C1897 C1893 1.393 . S
C1897 C1896 1.391 . S
C1898 H1888 0.971 . S
C1898 C1899 1.364 1_556 S
C1898 C1900 1.399 . S
C1899 C1898 1.364 1_554 S
C1899 C1903 1.393 . S
C1900 H1889 0.950 1_565 S
C1900 C1898 1.399 . S
C1900 C1901 1.400 1_556 S
C1901 C1895 1.491 1_564 S
C1901 C1900 1.400 1_554 S
C1901 C1902 1.398 . S
C1902 H1890 0.950 . S
C1902 C1901 1.398 . S
C1902 C1903 1.391 . S
C1903 H1891 0.950 . S
C1903 C1899 1.393 . S
C1903 C1902 1.391 . S
H1904 C1912 0.950 . S
H1905 C1917 0.950 . S
H1906 C1914 0.950 . S
H1907 C1916 0.950 1_455 S
H1908 C1918 0.950 . S
H1909 C1920 0.950 . S
H1910 C1922 0.950 1_655 S
H1911 C1923 0.950 . S
C1912 H1904 0.950 . S
C1912 C1913 1.408 . S
C1912 C1914 1.391 . S
C1913 C1912 1.408 . S
C1913 C1917 1.369 1_556 S
C1914 H1906 0.950 . S
C1914 C1912 1.391 . S
C1914 C1915 1.389 1_556 S
C1915 C1914 1.389 1_554 S
C1915 C1916 1.409 . S
C1915 C1921 1.490 1_655 S
C1916 H1907 0.950 1_655 S
C1916 C1915 1.409 . S
C1916 C1917 1.391 . S
C1917 H1905 0.950 . S
C1917 C1913 1.369 1_554 S
C1917 C1916 1.391 . S
C1918 H1908 0.950 . S
C1918 C1919 1.386 . S
C1918 C1920 1.391 . S
C1919 C1918 1.386 . S
C1919 C1923 1.393 1_554 S
C1920 H1909 0.950 . S
C1920 C1918 1.391 . S
C1920 C1921 1.424 . S
C1921 C1915 1.490 1_455 S
C1921 C1920 1.424 . S
C1921 C1922 1.379 1_554 S
C1922 H1910 0.950 1_455 S
C1922 C1921 1.379 1_556 S
C1922 C1923 1.391 . S
C1923 H1911 0.950 . S
C1923 C1919 1.393 1_556 S
C1923 C1922 1.391 . S
H1924 C1932 0.950 . S
H1925 C1937 0.950 . S
H1926 C1934 0.950 . S
H1927 C1936 0.950 . S
H1928 C1938 0.950 . S
H1929 C1940 0.950 . S
H1930 C1942 0.950 . S
H1931 C1943 0.950 . S
C1932 H1924 0.950 . S
C1932 C1933 1.386 . S
C1932 C1934 1.391 . S
C1933 C1932 1.386 . S
C1933 C1937 1.393 1_554 S
C1934 H1926 0.950 . S
C1934 C1932 1.391 . S
C1934 C1935 1.400 . S
C1935 C1934 1.400 . S
C1935 C1936 1.398 1_554 S
C1935 C1941 1.490 . S
C1936 H1927 0.950 . S
C1936 C1935 1.398 1_556 S
C1936 C1937 1.391 . S
C1937 H1925 0.950 . S
C1937 C1933 1.393 1_556 S
C1937 C1936 1.391 . S
C1938 H1928 0.950 . S
C1938 C1939 1.386 . S
C1938 C1940 1.391 . S
C1939 C1938 1.386 . S
C1939 C1943 1.393 1_556 S
C1940 H1929 0.950 . S
C1940 C1938 1.391 . S
C1940 C1941 1.404 1_556 S
C1941 C1935 1.490 . S
C1941 C1940 1.404 1_554 S
C1941 C1942 1.396 . S
C1942 H1930 0.950 . S
C1942 C1941 1.396 . S
C1942 C1943 1.391 . S
C1943 H1931 0.950 . S
C1943 C1939 1.393 1_554 S
C1943 C1942 1.391 . S
C513 C9 1.106 . S
C519 C21 1.214 . S
C533 C23 1.142 . S
C539 C35 1.194 . S
C553 C7 1.223 . S
C559 C37 1.094 . S
C573 C51 1.110 . S
C579 C77 1.221 . S
C593 C65 1.135 . S
C599 C49 1.205 . S
C613 C63 1.200 . S
C619 C79 1.141 . S
C633 C93 1.154 . S
C639 C101 1.287 . S
C653 C115 1.287 . S
C659 C107 1.122 . S
C673 C87 1.293 . S
C679 C121 1.106 . S
C693 C157 1.289 . S
C699 C135 1.150 . S
C713 C149 1.099 . S
C719 C129 1.290 . S
C733 C163 1.153 . S
C739 C143 1.288 . S
C753 C189 1.227 . S
C759 C177 1.096 . S
C773 C191 1.093 . S
C779 C203 1.228 . S
C793 C205 1.090 . S
C799 C175 1.227 . S
C813 C219 1.092 . S
C819 C245 1.228 . S
C833 C233 1.126 . S
C839 C217 1.211 . S
C853 C247 1.102 . S
C859 C231 1.217 . S
C873 C269 1.292 . S
C879 C261 1.124 . S
C893 C275 1.115 . S
C899 C283 1.287 . S
C913 C255 1.288 . S
C919 C289 1.109 . S
C933 C325 1.289 . S
C939 C303 1.147 1_556 S
C953 C317 1.139 1_556 S
C959 C297 1.286 . S
C973 C311 1.289 . S
C979 C331 1.099 1_556 S
C993 C357 1.228 . S
C999 C345 1.092 . S
C1013 C359 1.130 . S
C1019 C371 1.200 . S
C1033 C373 1.135 . S
C1039 C343 1.197 . S
C1053 C413 1.224 1_554 S
C1059 C387 1.096 1_554 S
C1073 C401 1.083 1_554 S
C1079 C385 1.226 . S
C1093 C399 1.207 . S
C1099 C415 1.124 1_554 S
C1113 C429 1.098 . S
C1119 C437 1.291 . S
C1133 C443 1.100 . S
C1139 C451 1.290 . S
C1153 C457 1.121 . S
C1159 C423 1.286 . S
C1173 C493 1.293 . S
C1179 C471 1.112 . S
C1193 C465 1.287 . S
C1199 C485 1.119 . S
C1213 C499 1.099 . S
C1219 C479 1.292 . S
C1233 C45 1.705 . S
C1239 C3 1.714 . S
C1253 C17 1.704 . S
C1259 C59 1.712 . S
C1273 C73 1.710 . S
C1279 C31 1.717 . S
C1293 C133 1.613 . S
C1299 C91 1.622 . S
C1313 C105 1.605 . S
C1319 C147 1.643 . S
C1333 C161 1.605 . S
C1339 C119 1.632 . S
C1353 C171 1.716 . S
C1359 C213 1.707 . S
C1373 C185 1.717 . S
C1379 C227 1.711 . S
C1393 C199 1.708 . S
C1399 C241 1.716 . S
C1413 C301 1.620 . S
C1419 C259 1.623 . S
C1433 C315 1.622 . S
C1439 C273 1.613 . S
C1453 C287 1.614 . S
C1459 C329 1.620 . S
C1473 C381 1.714 . S
C1479 C339 1.705 . S
C1493 C395 1.705 . S
C1499 C353 1.709 . S
C1513 C367 1.716 . S
C1519 C409 1.707 . S
C1533 C427 1.633 . S
C1539 C469 1.604 . S
C1553 C483 1.622 . S
C1559 C441 1.614 . S
C1573 C455 1.608 . S
C1579 C497 1.633 . S
C1593 C8 1.629 . S
C1599 C260 1.617 . S
C1613 C22 1.649 . S
C1619 C274 1.635 . S
C1633 C36 1.628 . S
C1639 C288 1.615 . S
C1653 C470 1.626 . S
C1659 C50 1.641 . S
C1673 C484 1.634 . S
C1679 C64 1.648 . S
C1693 C78 1.629 . S
C1699 C498 1.618 . S
C1713 C92 1.642 . S
C1719 C344 1.652 . S
C1733 C358 1.647 . S
C1739 C106 1.632 . S
C1753 C372 1.629 . S
C1759 C120 1.617 . S
C1773 C218 1.646 . S
C1779 C134 1.637 . S
C1793 C232 1.638 . S
C1799 C148 1.623 . S
C1813 C246 1.648 . S
C1819 C162 1.633 . S
C1833 C428 1.636 . S
C1839 C176 1.645 . S
C1853 C190 1.634 . S
C1859 C442 1.619 . S
C1873 C204 1.633 . S
C1879 C456 1.623 . S
C1893 C302 1.639 . S
C1899 C386 1.663 . S
C1913 C316 1.619 . S
C1919 C400 1.639 . S
C1933 C414 1.664 . S
C1939 C330 1.642 . S
