# Generated by pormake.
# Topology xfw, (5)-cn, num edge types: 1
# Building blocks:
#     Node 0, Type 0, BuildingBlock: XOMCOT_clean_sbu_0, # of connection points: 5
#     Node 1, Type 0, BuildingBlock: XOMCOT_clean_sbu_0, # of connection points: 5
#     Node 2, Type 0, BuildingBlock: XOMCOT_clean_sbu_0, # of connection points: 5
#     Node 3, Type 0, BuildingBlock: XOMCOT_clean_sbu_0, # of connection points: 5
#     Node 4, Type 0, BuildingBlock: XOMCOT_clean_sbu_0, # of connection points: 5
#     Node 5, Type 0, BuildingBlock: XOMCOT_clean_sbu_0, # of connection points: 5
#     Node 6, Type 0, BuildingBlock: XOMCOT_clean_sbu_0, # of connection points: 5
#     Node 7, Type 0, BuildingBlock: XOMCOT_clean_sbu_0, # of connection points: 5
#     Edge 8, Type (0, 0), BuildingBlock: KIFKEQ_clean_linker_1, # of connection points: 2
#     Edge 9, Type (0, 0), BuildingBlock: KIFKEQ_clean_linker_1, # of connection points: 2
#     Edge 10, Type (0, 0), BuildingBlock: KIFKEQ_clean_linker_1, # of connection points: 2
#     Edge 11, Type (0, 0), BuildingBlock: KIFKEQ_clean_linker_1, # of connection points: 2
#     Edge 12, Type (0, 0), BuildingBlock: KIFKEQ_clean_linker_1, # of connection points: 2
#     Edge 13, Type (0, 0), BuildingBlock: KIFKEQ_clean_linker_1, # of connection points: 2
#     Edge 14, Type (0, 0), BuildingBlock: KIFKEQ_clean_linker_1, # of connection points: 2
#     Edge 15, Type (0, 0), BuildingBlock: KIFKEQ_clean_linker_1, # of connection points: 2
#     Edge 16, Type (0, 0), BuildingBlock: KIFKEQ_clean_linker_1, # of connection points: 2
#     Edge 17, Type (0, 0), BuildingBlock: KIFKEQ_clean_linker_1, # of connection points: 2
#     Edge 18, Type (0, 0), BuildingBlock: KIFKEQ_clean_linker_1, # of connection points: 2
#     Edge 19, Type (0, 0), BuildingBlock: KIFKEQ_clean_linker_1, # of connection points: 2
#     Edge 20, Type (0, 0), BuildingBlock: KIFKEQ_clean_linker_1, # of connection points: 2
#     Edge 21, Type (0, 0), BuildingBlock: KIFKEQ_clean_linker_1, # of connection points: 2
#     Edge 22, Type (0, 0), BuildingBlock: KIFKEQ_clean_linker_1, # of connection points: 2
#     Edge 23, Type (0, 0), BuildingBlock: KIFKEQ_clean_linker_1, # of connection points: 2
#     Edge 24, Type (0, 0), BuildingBlock: KIFKEQ_clean_linker_1, # of connection points: 2
#     Edge 25, Type (0, 0), BuildingBlock: KIFKEQ_clean_linker_1, # of connection points: 2
#     Edge 26, Type (0, 0), BuildingBlock: KIFKEQ_clean_linker_1, # of connection points: 2
#     Edge 27, Type (0, 0), BuildingBlock: KIFKEQ_clean_linker_1, # of connection points: 2
# Relax obj value: 0.378
# Max RMSD: 0.290
# Mean RMSD: 0.290
data_MOF--net-xfw--node1-XOMCOT_clean_sbu_0--edge1-KIFKEQ_clean_linker_1
_symmetry_space_group_name_H-M    P1
_symmetry_Int_Tables_number       1
_symmetry_cell_setting            triclinic
loop_
_symmetry_equiv_pos_as_xyz
'x, y, z'
_cell_length_a     30.576326
_cell_length_b     30.548441
_cell_length_c     58.71818
_cell_angle_alpha  90.096208
_cell_angle_beta   90.041268
_cell_angle_gamma 90.121352
loop_
_atom_site_label
_atom_site_type_symbol
_atom_site_fract_x
_atom_site_fract_y
_atom_site_fract_z
_atom_type_partial_charge
Co0 Co 0.16767 0.03081 0.63204 0.0
C1 C 0.18684 0.08852 0.67096 0.0
C2 C 0.14983 0.12232 0.64563 0.0
C3 C 0.15072 0.1475 0.66518 0.0
N4 N 0.173 0.08536 0.64912 0.0
N5 N 0.17349 0.12573 0.6812 0.0
H6 H 0.20234 0.06223 0.68009 0.0
H7 H 0.12968 0.12857 0.63086 0.0
C8 C 0.17661 0.09756 0.59365 0.0
O9 O 0.20825 0.11871 0.60412 0.0
N10 N 0.16215 0.97601 0.61566 0.0
C11 C 0.17875 0.93731 0.62237 0.0
C12 C 0.17406 0.90752 0.60491 0.0
C13 C 0.14751 0.96924 0.59425 0.0
N14 N 0.15467 0.9277 0.58715 0.0
C15 C 0.25519 0.01524 0.64702 0.0
C16 C 0.29369 0.01782 0.60445 0.0
C17 C 0.3191 0.00714 0.6234 0.0
C18 C 0.29954 0.00578 0.64488 0.0
C19 C 0.24919 0.02611 0.60728 0.0
N20 N 0.23062 0.02616 0.62847 0.0
H21 H 0.24032 0.01128 0.66348 0.0
H22 H 0.22954 0.03009 0.59219 0.0
H23 H 0.1951 0.93168 0.63843 0.0
H24 H 0.13288 -0.00562 0.58388 0.0
O25 O 0.16004 -0.00039 0.66067 0.0
O26 O 0.10708 0.02925 0.63982 0.0
O27 O 0.1597 0.06337 0.60251 0.0
C28 C 0.11875 0.00856 0.65811 0.0
H29 H 0.13222 0.17715 0.66812 0.0
H30 H 0.18608 0.87423 0.60494 0.0
H31 H 0.30765 0.01762 0.58749 0.0
H32 H 0.31821 -0.00342 0.65981 0.0
Co33 Co 0.03328 0.81185 0.38996 0.0
C34 C 0.09666 0.7967 0.35291 0.0
C35 C 0.12533 0.8336 0.38007 0.0
C36 C 0.15308 0.83497 0.36158 0.0
N37 N 0.08991 0.80918 0.37476 0.0
N38 N 0.13473 0.81203 0.34441 0.0
H39 H 0.07189 0.78183 0.34235 0.0
H40 H 0.12885 0.85304 0.39535 0.0
C41 C 0.09475 0.80475 0.43073 0.0
O42 O 0.1172 0.77275 0.42144 0.0
N43 N 0.97669 0.81505 0.40464 0.0
C44 C 0.93918 0.79743 0.39678 0.0
C45 C 0.90753 0.80138 0.41334 0.0
C46 C 0.96737 0.82956 0.4258 0.0
N47 N 0.92536 0.82138 0.43167 0.0
C48 C 0.0248 0.72359 0.37443 0.0
C49 C 0.01924 0.68559 0.41705 0.0
C50 C 0.01297 0.65971 0.39768 0.0
C51 C 0.01598 0.67898 0.37618 0.0
C52 C 0.02711 0.73032 0.41455 0.0
N53 N 0.03085 0.74872 0.39341 0.0
H54 H 0.02406 0.73818 0.35779 0.0
H55 H 0.02762 0.7503 0.42969 0.0
H56 H 0.93551 0.78132 0.38048 0.0
H57 H 0.99129 0.84399 0.4371 0.0
O58 O 0.00518 0.81793 0.36037 0.0
O59 O 0.03001 0.87232 0.3821 0.0
O60 O 0.06201 0.82125 0.42041 0.0
C61 C 0.012 0.85964 0.36318 0.0
H62 H 0.18274 0.8542 0.36036 0.0
H63 H 0.87419 0.78973 0.41204 0.0
H64 H 0.0157 0.67184 0.43394 0.0
H65 H 0.01037 0.65992 0.36087 0.0
Co66 Co 0.79461 0.94545 0.62564 0.0
C67 C 0.78987 0.88282 0.66384 0.0
C68 C 0.82822 0.85728 0.6365 0.0
C69 C 0.83332 0.83054 0.65518 0.0
N70 N 0.80029 0.88989 0.64173 0.0
N71 N 0.80957 0.84699 0.67255 0.0
H72 H 0.77301 0.90638 0.67429 0.0
H73 H 0.84712 0.85523 0.62099 0.0
C74 C 0.79413 0.88093 0.58604 0.0
O75 O 0.76826 0.85372 0.59694 0.0
N76 N 0.7899 0.00095 0.61015 0.0
C77 C 0.76289 0.03419 0.61536 0.0
C78 C 0.7668 0.06594 0.59882 0.0
C79 C 0.81026 0.01301 0.5908 0.0
N80 N 0.79644 0.05245 0.58325 0.0
C81 C 0.70657 0.94035 0.64179 0.0
C82 C 0.66699 0.93817 0.59948 0.0
C83 C 0.64062 0.94001 0.61898 0.0
C84 C 0.66112 0.94097 0.64035 0.0
C85 C 0.7124 0.93841 0.60169 0.0
N86 N 0.73176 0.93834 0.62267 0.0
H87 H 0.7213 0.9442 0.65829 0.0
H88 H 0.73174 0.94085 0.58639 0.0
H89 H 0.74103 0.03476 0.62984 0.0
H90 H 0.83381 0.99263 0.58217 0.0
O91 O 0.79723 0.97588 0.65469 0.0
O92 O 0.85422 0.95808 0.63302 0.0
O93 O 0.80632 0.91679 0.59528 0.0
C94 C 0.83938 0.97533 0.65171 0.0
H95 H 0.85548 0.80307 0.65625 0.0
H96 H 0.74876 0.09633 0.59829 0.0
H97 H 0.65285 0.93774 0.58257 0.0
H98 H 0.64242 0.94438 0.6559 0.0
Co99 Co 0.95041 0.18359 0.3954 0.0
C100 C 0.89054 0.18955 0.3559 0.0
C101 C 0.86811 0.14301 0.38042 0.0
C102 C 0.84392 0.13795 0.36078 0.0
N103 N 0.89718 0.17581 0.37753 0.0
N104 N 0.85845 0.16691 0.3452 0.0
H105 H 0.91142 0.21264 0.34738 0.0
H106 H 0.86743 0.12126 0.39492 0.0
C107 C 0.87937 0.18161 0.43147 0.0
O108 O 0.85239 0.20357 0.41837 0.0
N109 N 0.0037 0.19017 0.4128 0.0
C110 C 0.0378 0.21665 0.40814 0.0
C111 C 0.06762 0.21376 0.42573 0.0
C112 C 0.01324 0.17133 0.43293 0.0
N113 N 0.05192 0.18546 0.44138 0.0
C114 C 0.95045 0.27116 0.37841 0.0
C115 C 0.93535 0.31235 0.41956 0.0
C116 C 0.9434 0.33799 0.40023 0.0
C117 C 0.95087 0.31669 0.37944 0.0
C118 C 0.93589 0.2668 0.41783 0.0
N119 N 0.94217 0.24659 0.3973 0.0
H120 H 0.95965 0.25593 0.3626 0.0
H121 H 0.93366 0.24824 0.43336 0.0
H122 H 0.04027 0.23744 0.39331 0.0
H123 H 0.99223 0.14779 0.44125 0.0
O124 O 0.98399 0.18028 0.36739 0.0
O125 O 0.96502 0.12385 0.38917 0.0
O126 O 0.918 0.17256 0.42473 0.0
C127 C 0.98387 0.13826 0.37083 0.0
H128 H 0.82051 0.11204 0.35759 0.0
H129 H 0.09774 0.23221 0.42725 0.0
H130 H 0.92995 0.32719 0.43607 0.0
H131 H 0.95928 0.33483 0.36423 0.0
Co132 Co 0.8128 0.03254 0.12786 0.0
C133 C 0.79927 0.09331 0.1663 0.0
C134 C 0.84416 0.11932 0.14192 0.0
C135 C 0.84665 0.14422 0.16146 0.0
N136 N 0.8141 0.08743 0.1448 0.0
N137 N 0.81885 0.12739 0.177 0.0
H138 H 0.77799 0.07054 0.1748 0.0
H139 H 0.86626 0.12148 0.12759 0.0
C140 C 0.80836 0.10146 0.09056 0.0
O141 O 0.78458 0.12764 0.10326 0.0
N142 N 0.81237 0.97754 0.11151 0.0
C143 C 0.79092 0.94076 0.1175 0.0
C144 C 0.79519 0.91043 0.10022 0.0
C145 C 0.82963 0.96907 0.09084 0.0
N146 N 0.81926 0.92844 0.0834 0.0
C147 C 0.72589 0.02143 0.1447 0.0
C148 C 0.68358 0.03048 0.10337 0.0
C149 C 0.65958 0.01825 0.12256 0.0
C150 C 0.68101 0.01398 0.14344 0.0
C151 C 0.72865 0.03675 0.10526 0.0
N152 N 0.74931 0.03312 0.12586 0.0
H153 H 0.74199 0.01491 0.16063 0.0
H154 H 0.74679 0.0416 0.08977 0.0
H155 H 0.77223 0.93681 0.13299 0.0
H156 H 0.84911 0.99228 0.08136 0.0
O157 O 0.81997 0.00138 0.15644 0.0
O158 O 0.87379 0.02561 0.13432 0.0
O159 O 0.82032 0.06404 0.09794 0.0
C160 C 0.86165 0.00643 0.15301 0.0
H161 H 0.8705 0.1697 0.16472 0.0
H162 H 0.78015 0.87834 0.0997 0.0
H163 H 0.66807 0.03261 0.08681 0.0
H164 H 0.66342 0.00363 0.15852 0.0
Co165 Co 0.04412 0.18744 0.89616 0.0
C166 C 0.10636 0.19302 0.85776 0.0
C167 C 0.13445 0.15847 0.88574 0.0
C168 C 0.16132 0.15366 0.86704 0.0
N169 N 0.10009 0.18396 0.88011 0.0
N170 N 0.14333 0.17515 0.84933 0.0
H171 H 0.08168 0.20736 0.847 0.0
H172 H 0.13783 0.1408 0.90156 0.0
C173 C 0.10717 0.19161 0.9359 0.0
O174 O 0.13181 0.22023 0.9252 0.0
N175 N 0.98816 0.18963 0.91147 0.0
C176 C 0.95365 0.21451 0.90567 0.0
C177 C 0.92185 0.20999 0.92213 0.0
C178 C 0.9768 0.16989 0.93112 0.0
N179 N 0.93655 0.18212 0.93825 0.0
C180 C 0.05293 0.27683 0.88146 0.0
C181 C 0.04068 0.31367 0.92404 0.0
C182 C 0.04508 0.341 0.90511 0.0
C183 C 0.05186 0.32225 0.88367 0.0
C184 C 0.04287 0.26842 0.92115 0.0
N185 N 0.04923 0.25041 0.90006 0.0
H186 H 0.05439 0.2632 0.86463 0.0
H187 H 0.03729 0.24784 0.9358 0.0
H188 H 0.95228 0.23553 0.89088 0.0
H189 H -0.00179 0.14812 0.94032 0.0
O190 O 0.01404 0.18505 0.86703 0.0
O191 O 0.03361 0.12775 0.88809 0.0
O192 O 0.07289 0.17602 0.92646 0.0
C193 C 0.01601 0.14276 0.86955 0.0
H194 H 0.19012 0.13321 0.86625 0.0
H195 H 0.89059 0.22648 0.92225 0.0
H196 H 0.0346 0.32713 0.94082 0.0
H197 H 0.05395 0.34247 0.86856 0.0
Co198 Co 0.1843 0.94932 0.12996 0.0
C199 C 0.19203 0.88603 0.16779 0.0
C200 C 0.15308 0.86016 0.14067 0.0
C201 C 0.14899 0.83303 0.15929 0.0
N202 N 0.18058 0.89335 0.14583 0.0
N203 N 0.17331 0.84961 0.17642 0.0
H204 H 0.20895 0.9096 0.17828 0.0
H205 H 0.1337 0.85796 0.12531 0.0
C206 C 0.18478 0.88602 0.08988 0.0
O207 O 0.21475 0.86128 0.09941 0.0
N208 N 0.18712 0.00521 0.1146 0.0
C209 C 0.20984 0.0407 0.12135 0.0
C210 C 0.20623 0.07252 0.10486 0.0
C211 C 0.16993 0.01585 0.09419 0.0
N212 N 0.18127 0.05681 0.08767 0.0
C213 C 0.27313 0.94581 0.14497 0.0
C214 C 0.31072 0.94719 0.10219 0.0
C215 C 0.33796 0.94854 0.12141 0.0
C216 C 0.31847 0.94774 0.14301 0.0
C217 C 0.26542 0.94597 0.10494 0.0
N218 N 0.2471 0.94406 0.12614 0.0
H219 H 0.25911 0.94839 0.16168 0.0
H220 H 0.24521 0.94853 0.08994 0.0
H221 H 0.22856 0.04292 0.13695 0.0
H222 H 0.15067 -0.00649 0.08403 0.0
O223 O 0.18245 0.97928 0.1592 0.0
O224 O 0.12492 0.96021 0.13812 0.0
O225 O 0.17118 0.92048 0.09988 0.0
C226 C 0.14019 0.97759 0.15669 0.0
H227 H 0.1273 0.80511 0.16058 0.0
H228 H 0.2212 0.1046 0.10554 0.0
H229 H 0.32408 0.94815 0.08513 0.0
H230 H 0.33783 0.95075 0.15838 0.0
Co231 Co 0.95729 0.81533 0.88901 0.0
C232 C 0.89926 0.80177 0.84958 0.0
C233 C 0.86374 0.83013 0.87717 0.0
C234 C 0.83789 0.83138 0.85783 0.0
N235 N 0.9023 0.81093 0.87209 0.0
N236 N 0.86075 0.81401 0.84044 0.0
H237 H 0.92621 0.79033 0.83936 0.0
H238 H 0.8563 0.8463 0.89307 0.0
C239 C 0.89459 0.80476 0.92901 0.0
O240 O 0.87573 0.77016 0.91995 0.0
N241 N 0.01236 0.82043 0.90515 0.0
C242 C 0.05033 0.80173 0.89887 0.0
C243 C 0.08018 0.80673 0.91625 0.0
C244 C 0.01967 0.83687 0.92616 0.0
N245 N 0.06077 0.82854 0.93351 0.0
C246 C 0.96144 0.72555 0.87456 0.0
C247 C 0.97602 0.69092 0.91734 0.0
C248 C 0.97688 0.66291 0.89841 0.0
C249 C 0.96866 0.68076 0.87684 0.0
C250 C 0.96782 0.73544 0.91433 0.0
N251 N 0.96032 0.75231 0.89314 0.0
H252 H 0.95882 0.7387 0.85769 0.0
H253 H 0.96962 0.75665 0.92902 0.0
H254 H 0.05524 0.78356 0.88326 0.0
H255 H -0.00494 0.85338 0.93614 0.0
O256 O 0.98867 0.82142 0.86034 0.0
O257 O 0.96011 0.87565 0.88086 0.0
O258 O 0.92554 0.82436 0.91862 0.0
C259 C 0.9807 0.86307 0.86268 0.0
H260 H 0.80661 0.84761 0.85624 0.0
H261 H 0.11281 0.79313 0.9166 0.0
H262 H 0.98343 0.67907 0.93427 0.0
H263 H 0.96877 0.66058 0.86167 0.0
H264 H 0.14482 0.84198 0.57571 0.0
H265 H 0.14817 0.97233 0.54726 0.0
H266 H 0.13326 0.81161 0.53772 0.0
H267 H 0.13632 0.94199 0.50946 0.0
H268 H 0.06165 0.87748 0.45117 0.0
H269 H 0.07723 0.90604 0.48882 0.0
H270 H 0.16949 0.80144 0.50013 0.0
H271 H 0.15317 0.77194 0.46217 0.0
C272 C 0.14339 0.86418 0.56139 0.0
C273 C 0.14717 0.90971 0.56469 0.0
C274 C 0.13687 0.84671 0.53959 0.0
C275 C 0.13378 0.87435 0.52055 0.0
C276 C 0.13787 0.9198 0.52381 0.0
C277 C 0.14449 0.93725 0.54556 0.0
C278 C 0.08524 0.86031 0.4616 0.0
C279 C 0.10604 0.8222 0.45361 0.0
C280 C 0.09445 0.87702 0.48318 0.0
C281 C 0.12473 0.85619 0.49747 0.0
C282 C 0.14572 0.81807 0.48957 0.0
C283 C 0.13659 0.80133 0.46779 0.0
H284 H 0.82292 0.93889 0.55431 0.0
H285 H 0.7998 0.80091 0.56471 0.0
H286 H 0.85286 0.9239 0.51693 0.0
H287 H 0.83083 0.78552 0.52707 0.0
H288 H 0.85421 0.78013 0.44961 0.0
H289 H 0.82002 0.79393 0.48635 0.0
H290 H 0.91735 0.89287 0.5008 0.0
H291 H 0.95018 0.88067 0.46372 0.0
C292 C 0.82455 0.90522 0.54869 0.0
C293 C 0.80954 0.87104 0.56267 0.0
C294 C 0.84188 0.89658 0.5272 0.0
C295 C 0.84498 0.85343 0.51906 0.0
C296 C 0.82877 0.81919 0.53275 0.0
C297 C 0.81108 0.82794 0.55433 0.0
C298 C 0.86804 0.80525 0.46044 0.0
C299 C 0.90496 0.82943 0.4535 0.0
C300 C 0.8487 0.81274 0.4817 0.0
C301 C 0.86578 0.8446 0.49656 0.0
C302 C 0.90285 0.86853 0.48968 0.0
C303 C 0.92207 0.86114 0.46844 0.0
H304 H 0.75208 0.117 0.56102 0.0
H305 H 0.86812 0.03668 0.55703 0.0
H306 H 0.77173 0.15173 0.52524 0.0
H307 H 0.88624 0.06956 0.52076 0.0
H308 H 0.93228 0.16355 0.46736 0.0
H309 H 0.91215 0.13542 0.50453 0.0
H310 H 0.77581 0.13837 0.48503 0.0
H311 H 0.79632 0.16796 0.44782 0.0
C312 C 0.78183 0.10671 0.55267 0.0
C313 C 0.80845 0.07386 0.56217 0.0
C314 C 0.7928 0.12633 0.5319 0.0
C315 C 0.83059 0.11355 0.52002 0.0
C316 C 0.85721 0.08081 0.52953 0.0
C317 C 0.84644 0.06142 0.55032 0.0
C318 C 0.89802 0.15822 0.47099 0.0
C319 C 0.86596 0.16747 0.45455 0.0
C320 C 0.88642 0.14189 0.49232 0.0
C321 C 0.84235 0.1339 0.49776 0.0
C322 C 0.81006 0.14439 0.48153 0.0
C323 C 0.82175 0.16122 0.46017 0.0
H324 H 0.10875 0.06297 0.56949 0.0
H325 H 0.20635 0.16536 0.56668 0.0
H326 H 0.08099 0.08498 0.53274 0.0
H327 H 0.17706 0.1887 0.52976 0.0
H328 H 0.13808 0.1854 0.45284 0.0
H329 H 0.16979 0.16615 0.48975 0.0
H330 H 0.04009 0.14346 0.51644 0.0
H331 H 0.0088 0.16212 0.47973 0.0
C332 C 0.12444 0.09026 0.56105 0.0
C333 C 0.16006 0.11221 0.57111 0.0
C334 C 0.10806 0.10324 0.53997 0.0
C335 C 0.12643 0.1389 0.52831 0.0
C336 C 0.1623 0.16088 0.53821 0.0
C337 C 0.17892 0.14769 0.55943 0.0
C338 C 0.11641 0.17651 0.46665 0.0
C339 C 0.07088 0.17477 0.46321 0.0
C340 C 0.13457 0.16562 0.48783 0.0
C341 C 0.10757 0.15285 0.50605 0.0
C342 C 0.06201 0.15211 0.50267 0.0
C343 C 0.04397 0.16277 0.48156 0.0
H344 H 0.83456 0.77018 0.9592 0.0
H345 H 0.92463 0.87805 0.95035 0.0
H346 H 0.81437 0.79927 0.99669 0.0
H347 H 0.90583 0.90579 0.98761 0.0
H348 H 0.83113 0.97198 0.04375 0.0
H349 H 0.8465 0.94105 1.00652 0.0
H350 H 0.84338 0.81097 0.03525 0.0
H351 H 0.82747 0.84227 0.0727 0.0
C352 C 0.8501 0.79992 0.96521 0.0
C353 C 0.88123 0.82166 0.95169 0.0
C354 C 0.83879 0.81642 0.98676 0.0
C355 C 0.85831 0.85504 0.99515 0.0
C356 C 0.8895 0.87647 0.9816 0.0
C357 C 0.90062 0.86018 0.9602 0.0
C358 C 0.83416 0.93686 0.04225 0.0
C359 C 0.82856 0.90972 0.06132 0.0
C360 C 0.84288 0.91901 0.02083 0.0
C361 C 0.84655 0.87346 0.01787 0.0
C362 C 0.84033 0.84615 0.03686 0.0
C363 C 0.83138 0.86409 0.05835 0.0
H364 H 0.81939 0.18434 0.07341 0.0
H365 H 0.82717 0.04783 0.05506 0.0
H366 H 0.84873 0.20432 0.03604 0.0
H367 H 0.8553 0.06735 0.01777 0.0
H368 H 0.95422 0.11221 0.96537 0.0
H369 H 0.92112 0.09451 1.00172 0.0
H370 H 0.83583 0.20645 0.99565 0.0
H371 H 0.87058 0.22561 0.95978 0.0
C372 C 0.82679 0.15865 0.06128 0.0
C373 C 0.82167 0.11446 0.06729 0.0
C374 C 0.84352 0.17004 0.03984 0.0
C375 C 0.85507 0.13742 0.02393 0.0
C376 C 0.84803 0.09335 0.02974 0.0
C377 C 0.83175 0.08208 0.05113 0.0
C378 C 0.92871 0.13338 0.97176 0.0
C379 C 0.91532 0.17045 0.95944 0.0
C380 C 0.90923 0.12286 0.99258 0.0
C381 C 0.87554 0.1489 1.00166 0.0
C382 C 0.86193 0.18585 0.98932 0.0
C383 C 0.88157 0.19651 0.96852 0.0
H384 H 0.05184 0.16142 0.96845 0.0
H385 H 0.18839 0.18757 0.95572 0.0
H386 H 0.06984 0.13141 1.00549 0.0
H387 H 0.20696 0.15603 0.99279 0.0
H388 H 0.22103 0.12838 0.06897 0.0
H389 H 0.20314 0.16405 0.03323 0.0
H390 H 0.10164 0.06816 0.02113 0.0
H391 H 0.11755 0.03418 0.05735 0.0
C392 C 0.08584 0.16042 0.97352 0.0
C393 C 0.11874 0.17633 0.95903 0.0
C394 C 0.09624 0.14301 0.99478 0.0
C395 C 0.13996 0.14052 1.00208 0.0
C396 C 0.17289 0.15765 0.98783 0.0
C397 C 0.16233 0.17562 0.96656 0.0
C398 C 0.19446 0.11514 0.05893 0.0
C399 C 0.17076 0.0782 0.06635 0.0
C400 C 0.18458 0.13538 0.03818 0.0
C401 C 0.15086 0.11917 0.02421 0.0
C402 C 0.12735 0.08215 0.03156 0.0
C403 C 0.13696 0.06215 0.05234 0.0
H404 H 0.1466 0.83416 0.94528 0.0
H405 H 0.01586 0.84045 0.97302 0.0
H406 H 0.17682 0.84548 0.9833 0.0
H407 H 0.04611 0.85221 1.01083 0.0
H408 H 0.11514 0.92413 0.06895 0.0
H409 H 0.08602 0.90958 0.03127 0.0
H410 H 0.18321 0.80905 0.02113 0.0
H411 H 0.21318 0.82415 0.05909 0.0
C412 C 0.12425 0.83772 0.95944 0.0
C413 C 0.0787 0.83656 0.95593 0.0
C414 C 0.14164 0.84411 0.98125 0.0
C415 C 0.1139 0.84975 1.00009 0.0
C416 C 0.0684 0.84858 0.99663 0.0
C417 C 0.05102 0.84202 0.97486 0.0
C418 C 0.1305 0.89889 0.05877 0.0
C419 C 0.16669 0.87538 0.06708 0.0
C420 C 0.11349 0.89034 0.03717 0.0
C421 C 0.13217 0.85809 0.0232 0.0
C422 C 0.16831 0.83439 0.03144 0.0
C423 C 0.1853 0.84282 0.05322 0.0
H424 H 0.59356 0.98422 0.5865 0.0
H425 H 0.57799 0.90654 0.64749 0.0
H426 H 0.51523 -0.00413 0.58513 0.0
H427 H 0.50029 0.92174 0.64735 0.0
H428 H 0.35624 0.92964 0.6344 0.0
H429 H 0.43284 0.90885 0.63057 0.0
H430 H 0.46223 0.0374 0.60356 0.0
H431 H 0.38498 0.05666 0.60617 0.0
C432 C 0.57351 0.96926 0.59954 0.0
C433 C 0.59234 0.94453 0.61718 0.0
C434 C 0.52851 0.97669 0.59899 0.0
C435 C 0.50128 0.9603 0.61628 0.0
C436 C 0.51998 0.93458 0.63358 0.0
C437 C 0.56483 0.92643 0.63388 0.0
C438 C 0.37929 0.95314 0.62753 0.0
C439 C 0.36522 -0.00529 0.62067 0.0
C440 C 0.42317 0.94145 0.62544 0.0
C441 C 0.45399 0.9715 0.61691 0.0
C442 C 0.43946 0.01305 0.60982 0.0
C443 C 0.39536 0.02435 0.61147 0.0
H444 H 0.05731 0.59444 0.41896 0.0
H445 H 0.93922 0.62175 0.38146 0.0
H446 H 0.03715 0.51716 0.42091 0.0
H447 H 0.91735 0.54522 0.38445 0.0
H448 H 0.91897 0.39945 0.36881 0.0
H449 H 0.93467 0.4772 0.36931 0.0
H450 H 0.99041 0.46476 0.43671 0.0
H451 H 0.9783 0.38629 0.43532 0.0
C452 C 0.02673 0.58376 0.41143 0.0
C453 C -2e-05 0.61351 0.39985 0.0
C454 C 0.01489 0.53966 0.41268 0.0
C455 C 0.97559 0.52474 0.40277 0.0
C456 C 0.94829 0.55518 0.39181 0.0
C457 C 0.9606 0.59902 0.39017 0.0
C458 C 0.93488 0.41319 0.38368 0.0
C459 C 0.94776 0.38635 0.4019 0.0
C460 C 0.9433 0.45806 0.38413 0.0
C461 C 0.96406 0.47744 0.40302 0.0
C462 C 0.97517 0.45091 0.42168 0.0
C463 C 0.96744 0.40587 0.42106 0.0
H464 H 0.59258 0.06921 0.10773 0.0
H465 H 0.62286 0.93999 0.13249 0.0
H466 H 0.51511 0.04982 0.10594 0.0
H467 H 0.54607 0.91926 0.12949 0.0
H468 H 0.40226 0.91418 0.14848 0.0
H469 H 0.47977 0.93055 0.1477 0.0
H470 H 0.46104 0.00922 0.0873 0.0
H471 H 0.38286 -0.0039 0.08934 0.0
C472 C 0.58247 0.03647 0.11249 0.0
C473 C 0.61315 0.00618 0.12049 0.0
C474 C 0.53826 0.02511 0.1113 0.0
C475 C 0.52414 0.98292 0.11765 0.0
C476 C 0.55544 0.95233 0.12498 0.0
C477 C 0.59943 0.96401 0.12661 0.0
C478 C 0.41455 0.9353 0.13514 0.0
C479 C 0.38605 0.95416 0.11915 0.0
C480 C 0.45927 0.94416 0.13445 0.0
C481 C 0.47686 0.97143 0.11747 0.0
C482 C 0.44862 0.98878 0.10089 0.0
C483 C 0.40373 0.98055 0.10182 0.0
H484 H 0.09949 0.40584 0.89072 0.0
H485 H 0.97571 0.38286 0.92384 0.0
H486 H 0.0859 0.48452 0.89142 0.0
H487 H 0.96062 0.46111 0.9235 0.0
H488 H 0.95601 0.60707 0.93344 0.0
H489 H 0.97688 0.53079 0.93775 0.0
H490 H 0.04245 0.53534 0.87256 0.0
H491 H 0.02507 0.61224 0.86925 0.0
C492 C 0.0694 0.41785 0.89817 0.0
C493 C 0.03864 0.38863 0.90724 0.0
C494 C 0.06135 0.4628 0.89843 0.0
C495 C 0.02188 0.47931 0.90728 0.0
C496 C 0.99163 0.44983 0.91686 0.0
C497 C 0.00012 0.40497 0.91699 0.0
C498 C 0.97554 0.59201 0.92021 0.0
C499 C 0.98858 0.61594 0.90093 0.0
C500 C 0.98703 0.54801 0.92254 0.0
C501 C 0.01133 0.52668 0.9055 0.0
C502 C 0.02437 0.55068 0.88625 0.0
C503 C 0.01353 0.59477 0.88411 0.0
H504 H 0.07726 0.93192 0.66572 0.0
H505 H 0.08485 0.06628 0.68777 0.0
H506 H 0.00299 0.92698 0.68028 0.0
H507 H 0.01049 0.06161 0.70276 0.0
H508 H 0.88338 0.05151 0.65441 0.0
H509 H 0.95421 0.06012 0.6726 0.0
H510 H 0.93822 0.9345 0.70542 0.0
H511 H 0.86678 0.92643 0.6871 0.0
C512 C 0.06389 0.95945 0.67505 0.0
C513 C 0.08607 -0.00052 0.67554 0.0
C514 C 0.02129 0.95677 0.68347 0.0
C515 C 0.00045 -0.00561 0.69214 0.0
C516 C 0.0255 0.03236 0.69586 0.0
C517 C 0.06804 0.035 0.68738 0.0
C518 C 0.89396 0.02711 0.6666 0.0
C519 C 0.87014 0.98845 0.66944 0.0
C520 C 0.93455 0.03192 0.67713 0.0
C521 C 0.95222 -0.00248 0.69017 0.0
C522 C 0.92558 0.96132 0.69534 0.0
C523 C 0.88469 0.95679 0.68495 0.0
H524 H 0.93671 0.90216 0.35414 0.0
H525 H 0.07183 0.89166 0.33416 0.0
H526 H 0.93466 0.97678 0.33981 0.0
H527 H 0.07015 0.96653 0.31971 0.0
H528 H 0.93942 0.11373 0.33329 0.0
H529 H 0.94726 0.04264 0.31447 0.0
H530 H 0.06665 0.0205 0.35217 0.0
H531 H 0.05797 0.09076 0.37109 0.0
C532 C 0.96504 0.91493 0.34525 0.0
C533 C 0.00442 0.8918 0.34531 0.0
C534 C 0.96401 0.95774 0.33699 0.0
C535 C 0.00268 0.97784 0.32917 0.0
C536 C 0.04008 0.95196 0.32587 0.0
C537 C 0.041 0.90913 0.33407 0.0
C538 C 0.96852 0.09453 0.3365 0.0
C539 C -0.00182 0.10715 0.35354 0.0
C540 C 0.97295 0.0539 0.32579 0.0
C541 C 0.00723 0.02579 0.33202 0.0
C542 C 0.04006 0.04147 0.3468 0.0
C543 C 0.03517 0.08167 0.35775 0.0
H544 H 0.11041 0.9256 0.1902 0.0
H545 H 0.0989 0.0548 0.16157 0.0
H546 H 0.03667 0.93144 0.20583 0.0
H547 H 0.02561 0.06112 0.17711 0.0
H548 H 0.90766 0.93175 0.15767 0.0
H549 H 0.97924 0.92695 0.17556 0.0
H550 H 0.96237 0.05655 0.20387 0.0
H551 H 0.89037 0.06085 0.18585 0.0
C552 C 0.09311 0.95637 0.18858 0.0
C553 C 0.10973 0.98975 0.17468 0.0
C554 C 0.05086 0.95964 0.19742 0.0
C555 C 0.02495 -0.00379 0.1922 0.0
C556 C 0.04463 0.03246 0.18148 0.0
C557 C 0.08671 0.029 0.17253 0.0
C558 C 0.91833 0.95802 0.1688 0.0
C559 C 0.89414 -0.00338 0.17042 0.0
C560 C 0.95928 0.95536 0.17919 0.0
C561 C 0.97676 0.99177 0.19086 0.0
C562 C 0.94982 0.02818 0.19488 0.0
C563 C 0.9087 0.03063 0.18461 0.0
H564 H 0.92425 0.89793 0.83275 0.0
H565 H 0.05815 0.90322 0.85544 0.0
H566 H 0.93036 0.97225 0.81793 0.0
H567 H 0.06438 0.97769 0.84126 0.0
H568 H 0.93937 0.10003 0.86539 0.0
H569 H 0.93107 0.02896 0.84735 0.0
H570 H 0.05905 0.04269 0.81684 0.0
H571 H 0.06694 0.11419 0.83516 0.0
C572 C 0.95579 0.91416 0.83327 0.0
C573 C 0.99078 0.89538 0.84519 0.0
C574 C 0.95921 0.9568 0.82496 0.0
C575 C -0.00263 0.98134 0.82902 0.0
C576 C 0.03446 0.95984 0.83782 0.0
C577 C 0.03104 0.91707 0.84599 0.0
C578 C 0.96446 0.0889 0.85372 0.0
C579 C 0.00365 0.11211 0.85158 0.0
C580 C 0.95986 0.04812 0.84328 0.0
C581 C -0.00513 0.02972 0.83096 0.0
C582 C 0.03176 0.05581 0.8264 0.0
C583 C 0.03618 0.09679 0.83677 0.0
H584 H 0.17914 0.20492 0.70184 0.0
H585 H 0.16731 0.06668 0.71537 0.0
H586 H 0.1778 0.21985 0.74285 0.0
H587 H 0.16491 0.08121 0.75595 0.0
H588 H 0.19289 0.11238 0.82867 0.0
H589 H 0.2055 0.10323 0.78813 0.0
H590 H 0.13006 0.21978 0.77462 0.0
H591 H 0.11977 0.23045 0.81528 0.0
C592 C 0.17633 0.1778 0.7136 0.0
C593 C 0.17398 0.13466 0.70536 0.0
C594 C 0.17538 0.18625 0.73709 0.0
C595 C 0.17154 0.15173 0.75288 0.0
C596 C 0.16911 0.10862 0.74449 0.0
C597 C 0.17045 0.10022 0.72111 0.0
C598 C 0.17975 0.13667 0.81719 0.0
C599 C 0.15479 0.17193 0.82544 0.0
C600 C 0.18648 0.13105 0.79378 0.0
C601 C 0.16823 0.16032 0.77791 0.0
C602 C 0.14486 0.1966 0.78621 0.0
C603 C 0.13843 0.20242 0.80962 0.0
H604 H 0.23658 0.86305 0.20797 0.0
H605 H 0.10678 0.80979 0.19916 0.0
H606 H 0.2318 0.84989 0.2489 0.0
H607 H 0.10186 0.79677 0.23995 0.0
H608 H 0.11636 0.75024 0.31269 0.0
H609 H 0.12937 0.75461 0.27173 0.0
H610 H 0.19249 0.88001 0.28104 0.0
H611 H 0.17962 0.87549 0.32185 0.0
C612 C 0.2071 0.84836 0.21475 0.0
C613 C 0.17207 0.83761 0.20023 0.0
C614 C 0.2043 0.8409 0.23822 0.0
C615 C 0.16635 0.82246 0.2478 0.0
C616 C 0.13185 0.81044 0.23318 0.0
C617 C 0.13469 0.81787 0.2097 0.0
C618 C 0.13325 0.77859 0.30598 0.0
C619 C 0.14683 0.81251 0.32061 0.0
C620 C 0.14061 0.78118 0.28249 0.0
C621 C 0.16176 0.81779 0.273 0.0
C622 C 0.17665 0.85103 0.28773 0.0
C623 C 0.16931 0.84841 0.31122 0.0
H624 H 0.91787 0.82872 0.80608 0.0
H625 H 0.78117 0.80639 0.82021 0.0
H626 H 0.90233 0.83258 0.76574 0.0
H627 H 0.7653 0.80953 0.77926 0.0
H628 H 0.75233 0.86818 0.70633 0.0
H629 H 0.76269 0.85848 0.74712 0.0
H630 H 0.88268 0.78838 0.73417 0.0
H631 H 0.87377 0.80022 0.69366 0.0
C632 C 0.88447 0.8238 0.80054 0.0
C633 C 0.85081 0.81651 0.81641 0.0
C634 C 0.87552 0.82596 0.77728 0.0
C635 C 0.83263 0.82065 0.76907 0.0
C636 C 0.79871 0.81393 0.78494 0.0
C637 C 0.80772 0.81205 0.80839 0.0
C638 C 0.78104 0.85082 0.71214 0.0
C639 C 0.81256 0.83577 0.69648 0.0
C640 C 0.78669 0.84477 0.7356 0.0
C641 C 0.82389 0.82321 0.74406 0.0
C642 C 0.85413 0.80608 0.72836 0.0
C643 C 0.84867 0.81238 0.70495 0.0
H644 H 0.91013 0.19569 0.31033 0.0
H645 H 0.78426 0.13733 0.32473 0.0
H646 H 0.89555 0.19019 0.26983 0.0
H647 H 0.77012 0.13116 0.28392 0.0
H648 H 0.79518 0.07284 0.21172 0.0
H649 H 0.80042 0.08701 0.25224 0.0
H650 H 0.84823 0.21737 0.23859 0.0
H651 H 0.84225 0.20358 0.19772 0.0
C652 C 0.87894 0.18245 0.30502 0.0
C653 C 0.8484 0.16691 0.32107 0.0
C654 C 0.87064 0.17922 0.28164 0.0
C655 C 0.83173 0.16013 0.2736 0.0
C656 C 0.80069 0.14554 0.28955 0.0
C657 C 0.80884 0.14904 0.31297 0.0
C658 C 0.80581 0.10497 0.21713 0.0
C659 C 0.81829 0.13707 0.20117 0.0
C660 C 0.80892 0.11303 0.24053 0.0
C661 C 0.82486 0.15326 0.2487 0.0
C662 C 0.83633 0.1858 0.23286 0.0
C663 C 0.83293 0.17786 0.20941 0.0
loop_
_geom_bond_atom_site_label_1
_geom_bond_atom_site_label_2
_geom_bond_distance
_geom_bond_site_symmetry_2
_ccdc_geom_bond_type
Co0 N4 2.148 . S
Co0 N10 2.128 . S
Co0 N20 2.194 . S
Co0 O25 2.351 . S
Co0 O26 2.155 . S
Co0 O27 2.096 . S
C1 N4 1.301 . S
C1 N5 1.328 . S
C1 H6 0.930 . S
C2 C3 1.333 . S
C2 N4 1.317 . S
C2 H7 0.930 . S
C3 C2 1.333 . S
C3 N5 1.350 . S
C3 H29 0.931 . S
N4 Co0 2.148 . S
N4 C1 1.301 . S
N4 C2 1.317 . S
N5 C1 1.328 . S
N5 C3 1.350 . S
H6 C1 0.930 . S
H7 C2 0.930 . S
C8 O9 1.224 . S
C8 O27 1.247 . S
O9 C8 1.224 . S
N10 Co0 2.128 . S
N10 C11 1.355 1_545 S
N10 C13 1.311 . S
C11 N10 1.355 1_565 S
C11 C12 1.363 . S
C11 H23 0.929 . S
C12 C11 1.363 . S
C12 N14 1.375 . S
C12 H30 0.931 . S
C13 N10 1.311 . S
C13 N14 1.347 1_545 S
C13 H24 0.929 . S
N14 C12 1.375 . S
N14 C13 1.347 1_565 S
C15 C18 1.365 . S
C15 N20 1.328 . S
C15 H21 0.929 . S
C16 C17 1.362 . S
C16 C19 1.378 . S
C16 H31 0.929 . S
C17 C16 1.362 . S
C17 C18 1.366 . S
C18 C15 1.365 . S
C18 C17 1.366 . S
C18 H32 0.930 1_545 S
C19 C16 1.378 . S
C19 N20 1.315 . S
C19 H22 0.930 . S
N20 Co0 2.194 . S
N20 C15 1.328 . S
N20 C19 1.315 . S
H21 C15 0.929 . S
H22 C19 0.930 . S
H23 C11 0.929 . S
H24 C13 0.929 . S
O25 Co0 2.351 . S
O25 C28 1.244 . S
O26 Co0 2.155 . S
O26 C28 1.240 . S
O27 Co0 2.096 . S
O27 C8 1.247 . S
C28 O25 1.244 . S
C28 O26 1.240 . S
H29 C3 0.931 . S
H30 C12 0.931 . S
H31 C16 0.929 . S
H32 C18 0.930 1_565 S
Co33 N37 2.148 . S
Co33 N43 2.128 . S
Co33 N53 2.194 . S
Co33 O58 2.351 . S
Co33 O59 2.155 . S
Co33 O60 2.096 . S
C34 N37 1.301 . S
C34 N38 1.328 . S
C34 H39 0.930 . S
C35 C36 1.333 . S
C35 N37 1.317 . S
C35 H40 0.930 . S
C36 C35 1.333 . S
C36 N38 1.350 . S
C36 H62 0.931 . S
N37 Co33 2.148 . S
N37 C34 1.301 . S
N37 C35 1.317 . S
N38 C34 1.328 . S
N38 C36 1.350 . S
H39 C34 0.930 . S
H40 C35 0.930 . S
C41 O42 1.224 . S
C41 O60 1.247 . S
O42 C41 1.224 . S
N43 Co33 2.128 . S
N43 C44 1.355 1_455 S
N43 C46 1.311 . S
C44 N43 1.355 1_655 S
C44 C45 1.363 . S
C44 H56 0.929 . S
C45 C44 1.363 . S
C45 N47 1.375 . S
C45 H63 0.931 . S
C46 N43 1.311 . S
C46 N47 1.347 1_455 S
C46 H57 0.929 . S
N47 C45 1.375 . S
N47 C46 1.347 1_655 S
C48 C51 1.365 . S
C48 N53 1.328 . S
C48 H54 0.929 . S
C49 C50 1.362 . S
C49 C52 1.378 . S
C49 H64 0.929 . S
C50 C49 1.362 . S
C50 C51 1.366 . S
C51 C48 1.365 . S
C51 C50 1.366 . S
C51 H65 0.930 1_455 S
C52 C49 1.378 . S
C52 N53 1.315 . S
C52 H55 0.930 . S
N53 Co33 2.194 . S
N53 C48 1.328 . S
N53 C52 1.315 . S
H54 C48 0.929 . S
H55 C52 0.930 . S
H56 C44 0.929 . S
H57 C46 0.929 . S
O58 Co33 2.351 . S
O58 C61 1.244 . S
O59 Co33 2.155 . S
O59 C61 1.240 . S
O60 Co33 2.096 . S
O60 C41 1.247 . S
C61 O58 1.244 . S
C61 O59 1.240 . S
H62 C36 0.931 . S
H63 C45 0.931 . S
H64 C49 0.929 . S
H65 C51 0.930 1_655 S
Co66 N70 2.148 . S
Co66 N76 2.128 . S
Co66 N86 2.194 . S
Co66 O91 2.351 . S
Co66 O92 2.155 . S
Co66 O93 2.096 . S
C67 N70 1.301 . S
C67 N71 1.328 . S
C67 H72 0.930 . S
C68 C69 1.333 . S
C68 N70 1.317 . S
C68 H73 0.930 . S
C69 C68 1.333 . S
C69 N71 1.350 . S
C69 H95 0.931 . S
N70 Co66 2.148 . S
N70 C67 1.301 . S
N70 C68 1.317 . S
N71 C67 1.328 . S
N71 C69 1.350 . S
H72 C67 0.930 . S
H73 C68 0.930 . S
C74 O75 1.224 . S
C74 O93 1.247 . S
O75 C74 1.224 . S
N76 Co66 2.128 . S
N76 C77 1.355 1_565 S
N76 C79 1.311 . S
C77 N76 1.355 1_545 S
C77 C78 1.363 . S
C77 H89 0.929 . S
C78 C77 1.363 . S
C78 N80 1.375 . S
C78 H96 0.931 . S
C79 N76 1.311 . S
C79 N80 1.347 1_565 S
C79 H90 0.929 . S
N80 C78 1.375 . S
N80 C79 1.347 1_545 S
C81 C84 1.365 . S
C81 N86 1.328 . S
C81 H87 0.929 . S
C82 C83 1.362 . S
C82 C85 1.378 . S
C82 H97 0.929 . S
C83 C82 1.362 . S
C83 C84 1.366 . S
C84 C81 1.365 . S
C84 C83 1.366 . S
C84 H98 0.930 1_565 S
C85 C82 1.378 . S
C85 N86 1.315 . S
C85 H88 0.930 . S
N86 Co66 2.194 . S
N86 C81 1.328 . S
N86 C85 1.315 . S
H87 C81 0.929 . S
H88 C85 0.930 . S
H89 C77 0.929 . S
H90 C79 0.929 . S
O91 Co66 2.351 . S
O91 C94 1.244 . S
O92 Co66 2.155 . S
O92 C94 1.240 . S
O93 Co66 2.096 . S
O93 C74 1.247 . S
C94 O91 1.244 . S
C94 O92 1.240 . S
H95 C69 0.931 . S
H96 C78 0.931 . S
H97 C82 0.929 . S
H98 C84 0.930 1_545 S
Co99 N103 2.148 . S
Co99 N109 2.128 . S
Co99 N119 2.194 . S
Co99 O124 2.351 . S
Co99 O125 2.155 . S
Co99 O126 2.096 . S
C100 N103 1.301 . S
C100 N104 1.328 . S
C100 H105 0.930 . S
C101 C102 1.333 . S
C101 N103 1.317 . S
C101 H106 0.930 . S
C102 C101 1.333 . S
C102 N104 1.350 . S
C102 H128 0.931 . S
N103 Co99 2.148 . S
N103 C100 1.301 . S
N103 C101 1.317 . S
N104 C100 1.328 . S
N104 C102 1.350 . S
H105 C100 0.930 . S
H106 C101 0.930 . S
C107 O108 1.224 . S
C107 O126 1.247 . S
O108 C107 1.224 . S
N109 Co99 2.128 . S
N109 C110 1.355 1_655 S
N109 C112 1.311 . S
C110 N109 1.355 1_455 S
C110 C111 1.363 . S
C110 H122 0.929 . S
C111 C110 1.363 . S
C111 N113 1.375 . S
C111 H129 0.931 . S
C112 N109 1.311 . S
C112 N113 1.347 1_655 S
C112 H123 0.929 . S
N113 C111 1.375 . S
N113 C112 1.347 1_455 S
C114 C117 1.365 . S
C114 N119 1.328 . S
C114 H120 0.929 . S
C115 C116 1.362 . S
C115 C118 1.378 . S
C115 H130 0.929 . S
C116 C115 1.362 . S
C116 C117 1.366 . S
C117 C114 1.365 . S
C117 C116 1.366 . S
C117 H131 0.930 1_655 S
C118 C115 1.378 . S
C118 N119 1.315 . S
C118 H121 0.930 . S
N119 Co99 2.194 . S
N119 C114 1.328 . S
N119 C118 1.315 . S
H120 C114 0.929 . S
H121 C118 0.930 . S
H122 C110 0.929 . S
H123 C112 0.929 . S
O124 Co99 2.351 . S
O124 C127 1.244 . S
O125 Co99 2.155 . S
O125 C127 1.240 . S
O126 Co99 2.096 . S
O126 C107 1.247 . S
C127 O124 1.244 . S
C127 O125 1.240 . S
H128 C102 0.931 . S
H129 C111 0.931 . S
H130 C115 0.929 . S
H131 C117 0.930 1_455 S
Co132 N136 2.148 . S
Co132 N142 2.128 . S
Co132 N152 2.194 . S
Co132 O157 2.351 . S
Co132 O158 2.155 . S
Co132 O159 2.096 . S
C133 N136 1.301 . S
C133 N137 1.328 . S
C133 H138 0.930 . S
C134 C135 1.333 . S
C134 N136 1.317 . S
C134 H139 0.930 . S
C135 C134 1.333 . S
C135 N137 1.350 . S
C135 H161 0.931 . S
N136 Co132 2.148 . S
N136 C133 1.301 . S
N136 C134 1.317 . S
N137 C133 1.328 . S
N137 C135 1.350 . S
H138 C133 0.930 . S
H139 C134 0.930 . S
C140 O141 1.224 . S
C140 O159 1.247 . S
O141 C140 1.224 . S
N142 Co132 2.128 . S
N142 C143 1.355 1_545 S
N142 C145 1.311 . S
C143 N142 1.355 1_565 S
C143 C144 1.363 . S
C143 H155 0.929 . S
C144 C143 1.363 . S
C144 N146 1.375 . S
C144 H162 0.931 . S
C145 N142 1.311 . S
C145 N146 1.347 1_545 S
C145 H156 0.929 . S
N146 C144 1.375 . S
N146 C145 1.347 1_565 S
C147 C150 1.365 . S
C147 N152 1.328 . S
C147 H153 0.929 . S
C148 C149 1.362 . S
C148 C151 1.378 . S
C148 H163 0.929 . S
C149 C148 1.362 . S
C149 C150 1.366 . S
C150 C147 1.365 . S
C150 C149 1.366 . S
C150 H164 0.930 1_545 S
C151 C148 1.378 . S
C151 N152 1.315 . S
C151 H154 0.930 . S
N152 Co132 2.194 . S
N152 C147 1.328 . S
N152 C151 1.315 . S
H153 C147 0.929 . S
H154 C151 0.930 . S
H155 C143 0.929 . S
H156 C145 0.929 . S
O157 Co132 2.351 . S
O157 C160 1.244 . S
O158 Co132 2.155 . S
O158 C160 1.240 . S
O159 Co132 2.096 . S
O159 C140 1.247 . S
C160 O157 1.244 . S
C160 O158 1.240 . S
H161 C135 0.931 . S
H162 C144 0.931 . S
H163 C148 0.929 . S
H164 C150 0.930 1_565 S
Co165 N169 2.148 . S
Co165 N175 2.128 . S
Co165 N185 2.194 . S
Co165 O190 2.351 . S
Co165 O191 2.155 . S
Co165 O192 2.096 . S
C166 N169 1.301 . S
C166 N170 1.328 . S
C166 H171 0.930 . S
C167 C168 1.333 . S
C167 N169 1.317 . S
C167 H172 0.930 . S
C168 C167 1.333 . S
C168 N170 1.350 . S
C168 H194 0.931 . S
N169 Co165 2.148 . S
N169 C166 1.301 . S
N169 C167 1.317 . S
N170 C166 1.328 . S
N170 C168 1.350 . S
H171 C166 0.930 . S
H172 C167 0.930 . S
C173 O174 1.224 . S
C173 O192 1.247 . S
O174 C173 1.224 . S
N175 Co165 2.128 . S
N175 C176 1.355 1_455 S
N175 C178 1.311 . S
C176 N175 1.355 1_655 S
C176 C177 1.363 . S
C176 H188 0.929 . S
C177 C176 1.363 . S
C177 N179 1.375 . S
C177 H195 0.931 . S
C178 N175 1.311 . S
C178 N179 1.347 1_455 S
C178 H189 0.929 . S
N179 C177 1.375 . S
N179 C178 1.347 1_655 S
C180 C183 1.365 . S
C180 N185 1.328 . S
C180 H186 0.929 . S
C181 C182 1.362 . S
C181 C184 1.378 . S
C181 H196 0.929 . S
C182 C181 1.362 . S
C182 C183 1.366 . S
C183 C180 1.365 . S
C183 C182 1.366 . S
C183 H197 0.930 1_455 S
C184 C181 1.378 . S
C184 N185 1.315 . S
C184 H187 0.930 . S
N185 Co165 2.194 . S
N185 C180 1.328 . S
N185 C184 1.315 . S
H186 C180 0.929 . S
H187 C184 0.930 . S
H188 C176 0.929 . S
H189 C178 0.929 . S
O190 Co165 2.351 . S
O190 C193 1.244 . S
O191 Co165 2.155 . S
O191 C193 1.240 . S
O192 Co165 2.096 . S
O192 C173 1.247 . S
C193 O190 1.244 . S
C193 O191 1.240 . S
H194 C168 0.931 . S
H195 C177 0.931 . S
H196 C181 0.929 . S
H197 C183 0.930 1_655 S
Co198 N202 2.148 . S
Co198 N208 2.128 . S
Co198 N218 2.194 . S
Co198 O223 2.351 . S
Co198 O224 2.155 . S
Co198 O225 2.096 . S
C199 N202 1.301 . S
C199 N203 1.328 . S
C199 H204 0.930 . S
C200 C201 1.333 . S
C200 N202 1.317 . S
C200 H205 0.930 . S
C201 C200 1.333 . S
C201 N203 1.350 . S
C201 H227 0.931 . S
N202 Co198 2.148 . S
N202 C199 1.301 . S
N202 C200 1.317 . S
N203 C199 1.328 . S
N203 C201 1.350 . S
H204 C199 0.930 . S
H205 C200 0.930 . S
C206 O207 1.224 . S
C206 O225 1.247 . S
O207 C206 1.224 . S
N208 Co198 2.128 . S
N208 C209 1.355 1_565 S
N208 C211 1.311 . S
C209 N208 1.355 1_545 S
C209 C210 1.363 . S
C209 H221 0.929 . S
C210 C209 1.363 . S
C210 N212 1.375 . S
C210 H228 0.931 . S
C211 N208 1.311 . S
C211 N212 1.347 1_565 S
C211 H222 0.929 . S
N212 C210 1.375 . S
N212 C211 1.347 1_545 S
C213 C216 1.365 . S
C213 N218 1.328 . S
C213 H219 0.929 . S
C214 C215 1.362 . S
C214 C217 1.378 . S
C214 H229 0.929 . S
C215 C214 1.362 . S
C215 C216 1.366 . S
C216 C213 1.365 . S
C216 C215 1.366 . S
C216 H230 0.930 1_565 S
C217 C214 1.378 . S
C217 N218 1.315 . S
C217 H220 0.930 . S
N218 Co198 2.194 . S
N218 C213 1.328 . S
N218 C217 1.315 . S
H219 C213 0.929 . S
H220 C217 0.930 . S
H221 C209 0.929 . S
H222 C211 0.929 . S
O223 Co198 2.351 . S
O223 C226 1.244 . S
O224 Co198 2.155 . S
O224 C226 1.240 . S
O225 Co198 2.096 . S
O225 C206 1.247 . S
C226 O223 1.244 . S
C226 O224 1.240 . S
H227 C201 0.931 . S
H228 C210 0.931 . S
H229 C214 0.929 . S
H230 C216 0.930 1_545 S
Co231 N235 2.148 . S
Co231 N241 2.128 . S
Co231 N251 2.194 . S
Co231 O256 2.351 . S
Co231 O257 2.155 . S
Co231 O258 2.096 . S
C232 N235 1.301 . S
C232 N236 1.328 . S
C232 H237 0.930 . S
C233 C234 1.333 . S
C233 N235 1.317 . S
C233 H238 0.930 . S
C234 C233 1.333 . S
C234 N236 1.350 . S
C234 H260 0.931 . S
N235 Co231 2.148 . S
N235 C232 1.301 . S
N235 C233 1.317 . S
N236 C232 1.328 . S
N236 C234 1.350 . S
H237 C232 0.930 . S
H238 C233 0.930 . S
C239 O240 1.224 . S
C239 O258 1.247 . S
O240 C239 1.224 . S
N241 Co231 2.128 . S
N241 C242 1.355 1_655 S
N241 C244 1.311 . S
C242 N241 1.355 1_455 S
C242 C243 1.363 . S
C242 H254 0.929 . S
C243 C242 1.363 . S
C243 N245 1.375 . S
C243 H261 0.931 . S
C244 N241 1.311 . S
C244 N245 1.347 1_655 S
C244 H255 0.929 . S
N245 C243 1.375 . S
N245 C244 1.347 1_455 S
C246 C249 1.365 . S
C246 N251 1.328 . S
C246 H252 0.929 . S
C247 C248 1.362 . S
C247 C250 1.378 . S
C247 H262 0.929 . S
C248 C247 1.362 . S
C248 C249 1.366 . S
C249 C246 1.365 . S
C249 C248 1.366 . S
C249 H263 0.930 1_655 S
C250 C247 1.378 . S
C250 N251 1.315 . S
C250 H253 0.930 . S
N251 Co231 2.194 . S
N251 C246 1.328 . S
N251 C250 1.315 . S
H252 C246 0.929 . S
H253 C250 0.930 . S
H254 C242 0.929 . S
H255 C244 0.929 . S
O256 Co231 2.351 . S
O256 C259 1.244 . S
O257 Co231 2.155 . S
O257 C259 1.240 . S
O258 Co231 2.096 . S
O258 C239 1.247 . S
C259 O256 1.244 . S
C259 O257 1.240 . S
H260 C234 0.931 . S
H261 C243 0.931 . S
H262 C247 0.929 . S
H263 C249 0.930 1_455 S
H264 C272 0.950 . S
H265 C277 0.950 1_545 S
H266 C274 0.950 . S
H267 C276 0.950 . S
H268 C278 0.950 . S
H269 C280 0.950 . S
H270 C282 0.950 . S
H271 C283 0.950 . S
C272 H264 0.950 . S
C272 C273 1.386 . S
C272 C274 1.391 . S
C273 C272 1.386 . S
C273 C277 1.393 . S
C274 H266 0.950 . S
C274 C272 1.391 . S
C274 C275 1.400 . S
C275 C274 1.400 . S
C275 C276 1.398 . S
C275 C281 1.491 . S
C276 H267 0.950 . S
C276 C275 1.398 . S
C276 C277 1.391 . S
C277 H265 0.950 1_565 S
C277 C273 1.393 . S
C277 C276 1.391 . S
C278 H268 0.950 . S
C278 C279 1.386 . S
C278 C280 1.391 . S
C279 C278 1.386 . S
C279 C283 1.393 . S
C280 H269 0.950 . S
C280 C278 1.391 . S
C280 C281 1.400 . S
C281 C275 1.491 . S
C281 C280 1.400 . S
C281 C282 1.398 . S
C282 H270 0.950 . S
C282 C281 1.398 . S
C282 C283 1.391 . S
C283 H271 0.950 . S
C283 C279 1.393 . S
C283 C282 1.391 . S
H284 C292 0.950 . S
H285 C297 0.950 . S
H286 C294 0.950 . S
H287 C296 0.950 . S
H288 C298 0.950 . S
H289 C300 0.950 . S
H290 C302 0.950 . S
H291 C303 0.950 . S
C292 H284 0.950 . S
C292 C293 1.386 . S
C292 C294 1.391 . S
C293 C292 1.386 . S
C293 C297 1.393 . S
C294 H286 0.950 . S
C294 C292 1.391 . S
C294 C295 1.400 . S
C295 C294 1.400 . S
C295 C296 1.398 . S
C295 C301 1.491 . S
C296 H287 0.950 . S
C296 C295 1.398 . S
C296 C297 1.391 . S
C297 H285 0.950 . S
C297 C293 1.393 . S
C297 C296 1.391 . S
C298 H288 0.950 . S
C298 C299 1.386 . S
C298 C300 1.391 . S
C299 C298 1.386 . S
C299 C303 1.393 . S
C300 H289 0.950 . S
C300 C298 1.391 . S
C300 C301 1.400 . S
C301 C295 1.491 . S
C301 C300 1.400 . S
C301 C302 1.398 . S
C302 H290 0.950 . S
C302 C301 1.398 . S
C302 C303 1.391 . S
C303 H291 0.950 . S
C303 C299 1.393 . S
C303 C302 1.391 . S
H304 C312 0.950 . S
H305 C317 0.950 . S
H306 C314 0.950 . S
H307 C316 0.950 . S
H308 C318 0.950 . S
H309 C320 0.950 . S
H310 C322 0.950 . S
H311 C323 0.950 . S
C312 H304 0.950 . S
C312 C313 1.386 . S
C312 C314 1.391 . S
C313 C312 1.386 . S
C313 C317 1.393 . S
C314 H306 0.950 . S
C314 C312 1.391 . S
C314 C315 1.400 . S
C315 C314 1.400 . S
C315 C316 1.398 . S
C315 C321 1.491 . S
C316 H307 0.950 . S
C316 C315 1.398 . S
C316 C317 1.391 . S
C317 H305 0.950 . S
C317 C313 1.393 . S
C317 C316 1.391 . S
C318 H308 0.950 . S
C318 C319 1.386 . S
C318 C320 1.391 . S
C319 C318 1.386 . S
C319 C323 1.393 . S
C320 H309 0.950 . S
C320 C318 1.391 . S
C320 C321 1.400 . S
C321 C315 1.491 . S
C321 C320 1.400 . S
C321 C322 1.398 . S
C322 H310 0.950 . S
C322 C321 1.398 . S
C322 C323 1.391 . S
C323 H311 0.950 . S
C323 C319 1.393 . S
C323 C322 1.391 . S
H324 C332 0.950 . S
H325 C337 0.950 . S
H326 C334 0.950 . S
H327 C336 0.950 . S
H328 C338 0.950 . S
H329 C340 0.950 . S
H330 C342 0.950 . S
H331 C343 0.950 1_655 S
C332 H324 0.950 . S
C332 C333 1.386 . S
C332 C334 1.391 . S
C333 C332 1.386 . S
C333 C337 1.393 . S
C334 H326 0.950 . S
C334 C332 1.391 . S
C334 C335 1.400 . S
C335 C334 1.400 . S
C335 C336 1.398 . S
C335 C341 1.491 . S
C336 H327 0.950 . S
C336 C335 1.398 . S
C336 C337 1.391 . S
C337 H325 0.950 . S
C337 C333 1.393 . S
C337 C336 1.391 . S
C338 H328 0.950 . S
C338 C339 1.386 . S
C338 C340 1.391 . S
C339 C338 1.386 . S
C339 C343 1.393 . S
C340 H329 0.950 . S
C340 C338 1.391 . S
C340 C341 1.400 . S
C341 C335 1.491 . S
C341 C340 1.400 . S
C341 C342 1.398 . S
C342 H330 0.950 . S
C342 C341 1.398 . S
C342 C343 1.391 . S
C343 H331 0.950 1_455 S
C343 C339 1.393 . S
C343 C342 1.391 . S
H344 C352 0.950 . S
H345 C357 0.950 . S
H346 C354 0.950 . S
H347 C356 0.950 . S
H348 C358 0.950 1_545 S
H349 C360 0.950 . S
H350 C362 0.950 . S
H351 C363 0.950 . S
C352 H344 0.950 . S
C352 C353 1.386 . S
C352 C354 1.391 . S
C353 C352 1.386 . S
C353 C357 1.393 . S
C354 H346 0.950 . S
C354 C352 1.391 . S
C354 C355 1.400 . S
C355 C354 1.400 . S
C355 C356 1.398 . S
C355 C361 1.491 . S
C356 H347 0.950 . S
C356 C355 1.398 . S
C356 C357 1.391 . S
C357 H345 0.950 . S
C357 C353 1.393 . S
C357 C356 1.391 . S
C358 H348 0.950 1_565 S
C358 C359 1.386 . S
C358 C360 1.391 1_554 S
C359 C358 1.386 . S
C359 C363 1.393 . S
C360 H349 0.950 . S
C360 C358 1.391 1_556 S
C360 C361 1.400 . S
C361 C355 1.491 . S
C361 C360 1.400 . S
C361 C362 1.398 1_556 S
C362 H350 0.950 . S
C362 C361 1.398 1_554 S
C362 C363 1.391 . S
C363 H351 0.950 . S
C363 C359 1.393 . S
C363 C362 1.391 . S
H364 C372 0.950 . S
H365 C377 0.950 . S
H366 C374 0.950 . S
H367 C376 0.950 . S
H368 C378 0.950 . S
H369 C380 0.950 . S
H370 C382 0.950 . S
H371 C383 0.950 . S
C372 H364 0.950 . S
C372 C373 1.386 . S
C372 C374 1.391 . S
C373 C372 1.386 . S
C373 C377 1.393 . S
C374 H366 0.950 . S
C374 C372 1.391 . S
C374 C375 1.400 . S
C375 C374 1.400 . S
C375 C376 1.398 . S
C375 C381 1.491 . S
C376 H367 0.950 . S
C376 C375 1.398 . S
C376 C377 1.391 . S
C377 H365 0.950 . S
C377 C373 1.393 . S
C377 C376 1.391 . S
C378 H368 0.950 . S
C378 C379 1.386 . S
C378 C380 1.391 . S
C379 C378 1.386 . S
C379 C383 1.393 . S
C380 H369 0.950 . S
C380 C378 1.391 . S
C380 C381 1.400 1_556 S
C381 C375 1.491 . S
C381 C380 1.400 1_554 S
C381 C382 1.398 . S
C382 H370 0.950 . S
C382 C381 1.398 . S
C382 C383 1.391 1_554 S
C383 H371 0.950 . S
C383 C379 1.393 . S
C383 C382 1.391 1_556 S
H384 C392 0.950 . S
H385 C397 0.950 . S
H386 C394 0.950 . S
H387 C396 0.950 . S
H388 C398 0.950 . S
H389 C400 0.950 . S
H390 C402 0.950 . S
H391 C403 0.950 . S
C392 H384 0.950 . S
C392 C393 1.386 . S
C392 C394 1.391 . S
C393 C392 1.386 . S
C393 C397 1.393 . S
C394 H386 0.950 . S
C394 C392 1.391 . S
C394 C395 1.400 . S
C395 C394 1.400 . S
C395 C396 1.398 . S
C395 C401 1.491 . S
C396 H387 0.950 . S
C396 C395 1.398 . S
C396 C397 1.391 . S
C397 H385 0.950 . S
C397 C393 1.393 . S
C397 C396 1.391 . S
C398 H388 0.950 . S
C398 C399 1.386 . S
C398 C400 1.391 1_554 S
C399 C398 1.386 . S
C399 C403 1.393 . S
C400 H389 0.950 . S
C400 C398 1.391 1_556 S
C400 C401 1.400 . S
C401 C395 1.491 . S
C401 C400 1.400 . S
C401 C402 1.398 1_556 S
C402 H390 0.950 . S
C402 C401 1.398 1_554 S
C402 C403 1.391 . S
C403 H391 0.950 . S
C403 C399 1.393 . S
C403 C402 1.391 . S
H404 C412 0.950 . S
H405 C417 0.950 1_655 S
H406 C414 0.950 . S
H407 C416 0.950 . S
H408 C418 0.950 . S
H409 C420 0.950 . S
H410 C422 0.950 . S
H411 C423 0.950 . S
C412 H404 0.950 . S
C412 C413 1.386 . S
C412 C414 1.391 . S
C413 C412 1.386 . S
C413 C417 1.393 . S
C414 H406 0.950 . S
C414 C412 1.391 . S
C414 C415 1.400 1_556 S
C415 C414 1.400 1_554 S
C415 C416 1.398 . S
C415 C421 1.491 . S
C416 H407 0.950 . S
C416 C415 1.398 . S
C416 C417 1.391 1_554 S
C417 H405 0.950 1_455 S
C417 C413 1.393 . S
C417 C416 1.391 1_556 S
C418 H408 0.950 . S
C418 C419 1.386 . S
C418 C420 1.391 . S
C419 C418 1.386 . S
C419 C423 1.393 . S
C420 H409 0.950 . S
C420 C418 1.391 . S
C420 C421 1.400 . S
C421 C415 1.491 . S
C421 C420 1.400 . S
C421 C422 1.398 . S
C422 H410 0.950 . S
C422 C421 1.398 . S
C422 C423 1.391 . S
C423 H411 0.950 . S
C423 C419 1.393 . S
C423 C422 1.391 . S
H424 C432 0.950 . S
H425 C437 0.950 . S
H426 C434 0.950 . S
H427 C436 0.950 . S
H428 C438 0.950 . S
H429 C440 0.950 . S
H430 C442 0.950 . S
H431 C443 0.950 . S
C432 H424 0.950 . S
C432 C433 1.386 1_545 S
C432 C434 1.391 . S
C433 C432 1.386 1_565 S
C433 C437 1.393 . S
C434 H426 0.950 . S
C434 C432 1.391 . S
C434 C435 1.400 1_545 S
C435 C434 1.400 1_565 S
C435 C436 1.398 . S
C435 C441 1.491 1_565 S
C436 H427 0.950 . S
C436 C435 1.398 . S
C436 C437 1.391 . S
C437 H425 0.950 . S
C437 C433 1.393 . S
C437 C436 1.391 . S
C438 H428 0.950 . S
C438 C439 1.386 1_565 S
C438 C440 1.391 . S
C439 C438 1.386 1_545 S
C439 C443 1.393 . S
C440 H429 0.950 . S
C440 C438 1.391 . S
C440 C441 1.400 1_565 S
C441 C435 1.491 1_545 S
C441 C440 1.400 1_545 S
C441 C442 1.398 . S
C442 H430 0.950 . S
C442 C441 1.398 . S
C442 C443 1.391 . S
C443 H431 0.950 . S
C443 C439 1.393 . S
C443 C442 1.391 . S
H444 C452 0.950 . S
H445 C457 0.950 . S
H446 C454 0.950 . S
H447 C456 0.950 . S
H448 C458 0.950 . S
H449 C460 0.950 . S
H450 C462 0.950 . S
H451 C463 0.950 . S
C452 H444 0.950 . S
C452 C453 1.386 . S
C452 C454 1.391 . S
C453 C452 1.386 . S
C453 C457 1.393 1_455 S
C454 H446 0.950 . S
C454 C452 1.391 . S
C454 C455 1.400 . S
C455 C454 1.400 . S
C455 C456 1.398 1_455 S
C455 C461 1.491 1_455 S
C456 H447 0.950 . S
C456 C455 1.398 1_655 S
C456 C457 1.391 . S
C457 H445 0.950 . S
C457 C453 1.393 1_655 S
C457 C456 1.391 . S
C458 H448 0.950 . S
C458 C459 1.386 . S
C458 C460 1.391 . S
C459 C458 1.386 . S
C459 C463 1.393 1_655 S
C460 H449 0.950 . S
C460 C458 1.391 . S
C460 C461 1.400 . S
C461 C455 1.491 1_655 S
C461 C460 1.400 . S
C461 C462 1.398 1_655 S
C462 H450 0.950 . S
C462 C461 1.398 1_455 S
C462 C463 1.391 . S
C463 H451 0.950 . S
C463 C459 1.393 1_455 S
C463 C462 1.391 . S
H464 C472 0.950 . S
H465 C477 0.950 . S
H466 C474 0.950 . S
H467 C476 0.950 . S
H468 C478 0.950 . S
H469 C480 0.950 . S
H470 C482 0.950 . S
H471 C483 0.950 . S
C472 H464 0.950 . S
C472 C473 1.386 . S
C472 C474 1.391 . S
C473 C472 1.386 . S
C473 C477 1.393 1_545 S
C474 H466 0.950 . S
C474 C472 1.391 . S
C474 C475 1.400 . S
C475 C474 1.400 . S
C475 C476 1.398 1_545 S
C475 C481 1.491 1_545 S
C476 H467 0.950 . S
C476 C475 1.398 1_565 S
C476 C477 1.391 . S
C477 H465 0.950 . S
C477 C473 1.393 1_565 S
C477 C476 1.391 . S
C478 H468 0.950 . S
C478 C479 1.386 . S
C478 C480 1.391 . S
C479 C478 1.386 . S
C479 C483 1.393 1_565 S
C480 H469 0.950 . S
C480 C478 1.391 . S
C480 C481 1.400 . S
C481 C475 1.491 1_565 S
C481 C480 1.400 . S
C481 C482 1.398 1_565 S
C482 H470 0.950 . S
C482 C481 1.398 1_545 S
C482 C483 1.391 . S
C483 H471 0.950 . S
C483 C479 1.393 1_545 S
C483 C482 1.391 . S
H484 C492 0.950 . S
H485 C497 0.950 . S
H486 C494 0.950 . S
H487 C496 0.950 . S
H488 C498 0.950 . S
H489 C500 0.950 . S
H490 C502 0.950 . S
H491 C503 0.950 . S
C492 H484 0.950 . S
C492 C493 1.386 . S
C492 C494 1.391 . S
C493 C492 1.386 . S
C493 C497 1.393 1_455 S
C494 H486 0.950 . S
C494 C492 1.391 . S
C494 C495 1.400 . S
C495 C494 1.400 . S
C495 C496 1.398 1_455 S
C495 C501 1.491 1_455 S
C496 H487 0.950 . S
C496 C495 1.398 1_655 S
C496 C497 1.391 . S
C497 H485 0.950 . S
C497 C493 1.393 1_655 S
C497 C496 1.391 . S
C498 H488 0.950 . S
C498 C499 1.386 . S
C498 C500 1.391 . S
C499 C498 1.386 . S
C499 C503 1.393 1_655 S
C500 H489 0.950 . S
C500 C498 1.391 . S
C500 C501 1.400 . S
C501 C495 1.491 1_655 S
C501 C500 1.400 . S
C501 C502 1.398 1_655 S
C502 H490 0.950 . S
C502 C501 1.398 1_455 S
C502 C503 1.391 . S
C503 H491 0.950 . S
C503 C499 1.393 1_455 S
C503 C502 1.391 . S
H504 C512 0.950 . S
H505 C517 0.950 . S
H506 C514 0.950 . S
H507 C516 0.950 . S
H508 C518 0.950 . S
H509 C520 0.950 . S
H510 C522 0.950 . S
H511 C523 0.950 . S
C512 H504 0.950 . S
C512 C513 1.386 1_565 S
C512 C514 1.391 . S
C513 C512 1.386 1_545 S
C513 C517 1.393 . S
C514 H506 0.950 . S
C514 C512 1.391 . S
C514 C515 1.400 1_565 S
C515 C514 1.400 1_545 S
C515 C516 1.398 . S
C515 C521 1.491 1_445 S
C516 H507 0.950 . S
C516 C515 1.398 . S
C516 C517 1.391 . S
C517 H505 0.950 . S
C517 C513 1.393 . S
C517 C516 1.391 . S
C518 H508 0.950 . S
C518 C519 1.386 1_545 S
C518 C520 1.391 . S
C519 C518 1.386 1_565 S
C519 C523 1.393 . S
C520 H509 0.950 . S
C520 C518 1.391 . S
C520 C521 1.400 1_545 S
C521 C515 1.491 1_665 S
C521 C520 1.400 1_565 S
C521 C522 1.398 . S
C522 H510 0.950 . S
C522 C521 1.398 . S
C522 C523 1.391 . S
C523 H511 0.950 . S
C523 C519 1.393 . S
C523 C522 1.391 . S
H524 C532 0.950 . S
H525 C537 0.950 . S
H526 C534 0.950 . S
H527 C536 0.950 . S
H528 C538 0.950 . S
H529 C540 0.950 . S
H530 C542 0.950 . S
H531 C543 0.950 . S
C532 H524 0.950 . S
C532 C533 1.386 . S
C532 C534 1.391 . S
C533 C532 1.386 . S
C533 C537 1.393 1_455 S
C534 H526 0.950 . S
C534 C532 1.391 . S
C534 C535 1.400 . S
C535 C534 1.400 . S
C535 C536 1.398 1_455 S
C535 C541 1.491 1_465 S
C536 H527 0.950 . S
C536 C535 1.398 1_655 S
C536 C537 1.391 . S
C537 H525 0.950 . S
C537 C533 1.393 1_655 S
C537 C536 1.391 . S
C538 H528 0.950 . S
C538 C539 1.386 . S
C538 C540 1.391 . S
C539 C538 1.386 . S
C539 C543 1.393 1_655 S
C540 H529 0.950 . S
C540 C538 1.391 . S
C540 C541 1.400 . S
C541 C535 1.491 1_645 S
C541 C540 1.400 . S
C541 C542 1.398 1_655 S
C542 H530 0.950 . S
C542 C541 1.398 1_455 S
C542 C543 1.391 . S
C543 H531 0.950 . S
C543 C539 1.393 1_455 S
C543 C542 1.391 . S
H544 C552 0.950 . S
H545 C557 0.950 . S
H546 C554 0.950 . S
H547 C556 0.950 . S
H548 C558 0.950 . S
H549 C560 0.950 . S
H550 C562 0.950 . S
H551 C563 0.950 . S
C552 H544 0.950 . S
C552 C553 1.386 . S
C552 C554 1.391 . S
C553 C552 1.386 . S
C553 C557 1.393 1_565 S
C554 H546 0.950 . S
C554 C552 1.391 . S
C554 C555 1.400 . S
C555 C554 1.400 . S
C555 C556 1.399 1_565 S
C555 C561 1.491 1_465 S
C556 H547 0.950 . S
C556 C555 1.399 1_545 S
C556 C557 1.391 . S
C557 H545 0.950 . S
C557 C553 1.393 1_545 S
C557 C556 1.391 . S
C558 H548 0.950 . S
C558 C559 1.386 . S
C558 C560 1.391 . S
C559 C558 1.386 . S
C559 C563 1.393 1_545 S
C560 H549 0.950 . S
C560 C558 1.391 . S
C560 C561 1.400 . S
C561 C555 1.491 1_645 S
C561 C560 1.400 . S
C561 C562 1.399 1_545 S
C562 H550 0.950 . S
C562 C561 1.399 1_565 S
C562 C563 1.391 . S
C563 H551 0.950 . S
C563 C559 1.393 1_565 S
C563 C562 1.391 . S
H564 C572 0.950 . S
H565 C577 0.950 . S
H566 C574 0.950 . S
H567 C576 0.950 . S
H568 C578 0.950 . S
H569 C580 0.950 . S
H570 C582 0.950 . S
H571 C583 0.950 . S
C572 H564 0.950 . S
C572 C573 1.386 . S
C572 C574 1.391 . S
C573 C572 1.386 . S
C573 C577 1.393 1_655 S
C574 H566 0.950 . S
C574 C572 1.391 . S
C574 C575 1.400 . S
C575 C574 1.400 . S
C575 C576 1.398 1_655 S
C575 C581 1.491 1_665 S
C576 H567 0.950 . S
C576 C575 1.398 1_455 S
C576 C577 1.391 . S
C577 H565 0.950 . S
C577 C573 1.393 1_455 S
C577 C576 1.391 . S
C578 H568 0.950 . S
C578 C579 1.386 . S
C578 C580 1.391 . S
C579 C578 1.386 . S
C579 C583 1.393 1_455 S
C580 H569 0.950 . S
C580 C578 1.391 . S
C580 C581 1.400 . S
C581 C575 1.491 1_445 S
C581 C580 1.400 . S
C581 C582 1.398 1_455 S
C582 H570 0.950 . S
C582 C581 1.398 1_655 S
C582 C583 1.391 . S
C583 H571 0.950 . S
C583 C579 1.393 1_655 S
C583 C582 1.391 . S
H584 C592 0.950 . S
H585 C597 0.950 . S
H586 C594 0.950 . S
H587 C596 0.950 . S
H588 C598 0.950 . S
H589 C600 0.950 . S
H590 C602 0.950 . S
H591 C603 0.950 . S
C592 H584 0.950 . S
C592 C593 1.386 . S
C592 C594 1.391 . S
C593 C592 1.386 . S
C593 C597 1.393 . S
C594 H586 0.950 . S
C594 C592 1.391 . S
C594 C595 1.400 . S
C595 C594 1.400 . S
C595 C596 1.398 . S
C595 C601 1.491 . S
C596 H587 0.950 . S
C596 C595 1.398 . S
C596 C597 1.391 . S
C597 H585 0.950 . S
C597 C593 1.393 . S
C597 C596 1.391 . S
C598 H588 0.950 . S
C598 C599 1.386 . S
C598 C600 1.391 . S
C599 C598 1.386 . S
C599 C603 1.393 . S
C600 H589 0.950 . S
C600 C598 1.391 . S
C600 C601 1.400 . S
C601 C595 1.491 . S
C601 C600 1.400 . S
C601 C602 1.398 . S
C602 H590 0.950 . S
C602 C601 1.398 . S
C602 C603 1.391 . S
C603 H591 0.950 . S
C603 C599 1.393 . S
C603 C602 1.391 . S
H604 C612 0.950 . S
H605 C617 0.950 . S
H606 C614 0.950 . S
H607 C616 0.950 . S
H608 C618 0.950 . S
H609 C620 0.950 . S
H610 C622 0.950 . S
H611 C623 0.950 . S
C612 H604 0.950 . S
C612 C613 1.386 . S
C612 C614 1.391 . S
C613 C612 1.386 . S
C613 C617 1.393 . S
C614 H606 0.950 . S
C614 C612 1.391 . S
C614 C615 1.400 . S
C615 C614 1.400 . S
C615 C616 1.398 . S
C615 C621 1.491 . S
C616 H607 0.950 . S
C616 C615 1.398 . S
C616 C617 1.391 . S
C617 H605 0.950 . S
C617 C613 1.393 . S
C617 C616 1.391 . S
C618 H608 0.950 . S
C618 C619 1.386 . S
C618 C620 1.391 . S
C619 C618 1.386 . S
C619 C623 1.393 . S
C620 H609 0.950 . S
C620 C618 1.391 . S
C620 C621 1.400 . S
C621 C615 1.491 . S
C621 C620 1.400 . S
C621 C622 1.398 . S
C622 H610 0.950 . S
C622 C621 1.398 . S
C622 C623 1.391 . S
C623 H611 0.950 . S
C623 C619 1.393 . S
C623 C622 1.391 . S
H624 C632 0.950 . S
H625 C637 0.950 . S
H626 C634 0.950 . S
H627 C636 0.950 . S
H628 C638 0.950 . S
H629 C640 0.950 . S
H630 C642 0.950 . S
H631 C643 0.950 . S
C632 H624 0.950 . S
C632 C633 1.386 . S
C632 C634 1.391 . S
C633 C632 1.386 . S
C633 C637 1.393 . S
C634 H626 0.950 . S
C634 C632 1.391 . S
C634 C635 1.400 . S
C635 C634 1.400 . S
C635 C636 1.398 . S
C635 C641 1.491 . S
C636 H627 0.950 . S
C636 C635 1.398 . S
C636 C637 1.391 . S
C637 H625 0.950 . S
C637 C633 1.393 . S
C637 C636 1.391 . S
C638 H628 0.950 . S
C638 C639 1.386 . S
C638 C640 1.391 . S
C639 C638 1.386 . S
C639 C643 1.393 . S
C640 H629 0.950 . S
C640 C638 1.391 . S
C640 C641 1.400 . S
C641 C635 1.491 . S
C641 C640 1.400 . S
C641 C642 1.398 . S
C642 H630 0.950 . S
C642 C641 1.398 . S
C642 C643 1.391 . S
C643 H631 0.950 . S
C643 C639 1.393 . S
C643 C642 1.391 . S
H644 C652 0.950 . S
H645 C657 0.950 . S
H646 C654 0.950 . S
H647 C656 0.950 . S
H648 C658 0.950 . S
H649 C660 0.950 . S
H650 C662 0.950 . S
H651 C663 0.950 . S
C652 H644 0.950 . S
C652 C653 1.386 . S
C652 C654 1.391 . S
C653 C652 1.386 . S
C653 C657 1.393 . S
C654 H646 0.950 . S
C654 C652 1.391 . S
C654 C655 1.400 . S
C655 C654 1.400 . S
C655 C656 1.398 . S
C655 C661 1.491 . S
C656 H647 0.950 . S
C656 C655 1.398 . S
C656 C657 1.391 . S
C657 H645 0.950 . S
C657 C653 1.393 . S
C657 C656 1.391 . S
C658 H648 0.950 . S
C658 C659 1.386 . S
C658 C660 1.391 . S
C659 C658 1.386 . S
C659 C663 1.393 . S
C660 H649 0.950 . S
C660 C658 1.391 . S
C660 C661 1.400 . S
C661 C655 1.491 . S
C661 C660 1.400 . S
C661 C662 1.398 . S
C662 H650 0.950 . S
C662 C661 1.398 . S
C662 C663 1.391 . S
C663 H651 0.950 . S
C663 C659 1.393 . S
C663 C662 1.391 . S
C273 N14 1.011 . S
C279 C41 1.018 . S
C293 C74 0.986 . S
C299 N47 0.993 . S
C313 N80 0.993 . S
C319 C107 0.985 . S
C333 C8 1.018 . S
C339 N113 1.011 . S
C353 C239 0.973 . S
C359 N146 1.009 . S
C373 C140 0.981 . S
C379 N179 0.995 . S
C393 C173 0.986 . S
C399 N212 0.993 . S
C413 N245 1.020 . S
C419 C206 1.018 . S
C433 C83 1.301 . S
C439 C17 1.306 . S
C453 C50 1.304 . S
C459 C116 1.308 . S
C473 C149 1.304 . S
C479 C215 1.308 . S
C493 C182 1.308 . S
C499 C248 1.305 . S
C513 C28 0.612 . S
C519 C94 0.565 . S
C533 C61 0.602 . S
C539 C127 0.568 . S
C553 C226 0.647 . S
C559 C160 0.621 . S
C573 C259 0.570 . S
C579 C193 0.596 . S
C593 N5 1.681 . S
C599 N170 1.686 . S
C613 N203 1.684 . S
C619 N38 1.686 . S
C633 N236 1.687 . S
C639 N71 1.681 . S
C653 N104 1.683 . S
C659 N137 1.687 . S
