# Generated by pormake.
# Topology pcb, (4)-cn, num edge types: 1
# Building blocks:
#     Node 0, Type 0, BuildingBlock: GALJAG_clean_sbu_0, # of connection points: 4
#     Node 1, Type 0, BuildingBlock: GALJAG_clean_sbu_0, # of connection points: 4
#     Node 2, Type 0, BuildingBlock: GALJAG_clean_sbu_0, # of connection points: 4
#     Node 3, Type 0, BuildingBlock: GALJAG_clean_sbu_0, # of connection points: 4
#     Node 4, Type 0, BuildingBlock: GALJAG_clean_sbu_0, # of connection points: 4
#     Node 5, Type 0, BuildingBlock: GALJAG_clean_sbu_0, # of connection points: 4
#     Node 6, Type 0, BuildingBlock: GALJAG_clean_sbu_0, # of connection points: 4
#     Node 7, Type 0, BuildingBlock: GALJAG_clean_sbu_0, # of connection points: 4
#     Node 8, Type 0, BuildingBlock: GALJAG_clean_sbu_0, # of connection points: 4
#     Node 9, Type 0, BuildingBlock: GALJAG_clean_sbu_0, # of connection points: 4
#     Node 10, Type 0, BuildingBlock: GALJAG_clean_sbu_0, # of connection points: 4
#     Node 11, Type 0, BuildingBlock: GALJAG_clean_sbu_0, # of connection points: 4
#     Node 12, Type 0, BuildingBlock: GALJAG_clean_sbu_0, # of connection points: 4
#     Node 13, Type 0, BuildingBlock: GALJAG_clean_sbu_0, # of connection points: 4
#     Node 14, Type 0, BuildingBlock: GALJAG_clean_sbu_0, # of connection points: 4
#     Node 15, Type 0, BuildingBlock: GALJAG_clean_sbu_0, # of connection points: 4
#     Edge 16, Type (0, 0), BuildingBlock: XUDNAN_clean_linker_2, # of connection points: 2
#     Edge 17, Type (0, 0), BuildingBlock: XUDNAN_clean_linker_2, # of connection points: 2
#     Edge 18, Type (0, 0), BuildingBlock: XUDNAN_clean_linker_2, # of connection points: 2
#     Edge 19, Type (0, 0), BuildingBlock: XUDNAN_clean_linker_2, # of connection points: 2
#     Edge 20, Type (0, 0), BuildingBlock: XUDNAN_clean_linker_2, # of connection points: 2
#     Edge 21, Type (0, 0), BuildingBlock: XUDNAN_clean_linker_2, # of connection points: 2
#     Edge 22, Type (0, 0), BuildingBlock: XUDNAN_clean_linker_2, # of connection points: 2
#     Edge 23, Type (0, 0), BuildingBlock: XUDNAN_clean_linker_2, # of connection points: 2
#     Edge 24, Type (0, 0), BuildingBlock: XUDNAN_clean_linker_2, # of connection points: 2
#     Edge 25, Type (0, 0), BuildingBlock: XUDNAN_clean_linker_2, # of connection points: 2
#     Edge 26, Type (0, 0), BuildingBlock: XUDNAN_clean_linker_2, # of connection points: 2
#     Edge 27, Type (0, 0), BuildingBlock: XUDNAN_clean_linker_2, # of connection points: 2
#     Edge 28, Type (0, 0), BuildingBlock: XUDNAN_clean_linker_2, # of connection points: 2
#     Edge 29, Type (0, 0), BuildingBlock: XUDNAN_clean_linker_2, # of connection points: 2
#     Edge 30, Type (0, 0), BuildingBlock: XUDNAN_clean_linker_2, # of connection points: 2
#     Edge 31, Type (0, 0), BuildingBlock: XUDNAN_clean_linker_2, # of connection points: 2
#     Edge 32, Type (0, 0), BuildingBlock: XUDNAN_clean_linker_2, # of connection points: 2
#     Edge 33, Type (0, 0), BuildingBlock: XUDNAN_clean_linker_2, # of connection points: 2
#     Edge 34, Type (0, 0), BuildingBlock: XUDNAN_clean_linker_2, # of connection points: 2
#     Edge 35, Type (0, 0), BuildingBlock: XUDNAN_clean_linker_2, # of connection points: 2
#     Edge 36, Type (0, 0), BuildingBlock: XUDNAN_clean_linker_2, # of connection points: 2
#     Edge 37, Type (0, 0), BuildingBlock: XUDNAN_clean_linker_2, # of connection points: 2
#     Edge 38, Type (0, 0), BuildingBlock: XUDNAN_clean_linker_2, # of connection points: 2
#     Edge 39, Type (0, 0), BuildingBlock: XUDNAN_clean_linker_2, # of connection points: 2
#     Edge 40, Type (0, 0), BuildingBlock: XUDNAN_clean_linker_2, # of connection points: 2
#     Edge 41, Type (0, 0), BuildingBlock: XUDNAN_clean_linker_2, # of connection points: 2
#     Edge 42, Type (0, 0), BuildingBlock: XUDNAN_clean_linker_2, # of connection points: 2
#     Edge 43, Type (0, 0), BuildingBlock: XUDNAN_clean_linker_2, # of connection points: 2
#     Edge 44, Type (0, 0), BuildingBlock: XUDNAN_clean_linker_2, # of connection points: 2
#     Edge 45, Type (0, 0), BuildingBlock: XUDNAN_clean_linker_2, # of connection points: 2
#     Edge 46, Type (0, 0), BuildingBlock: XUDNAN_clean_linker_2, # of connection points: 2
#     Edge 47, Type (0, 0), BuildingBlock: XUDNAN_clean_linker_2, # of connection points: 2
# Relax obj value: 0.356
# Max RMSD: 0.193
# Mean RMSD: 0.171
data_MOF--net-pcb--node1-GALJAG_clean_sbu_0--edge1-XUDNAN_clean_linker_2
_symmetry_space_group_name_H-M    P1
_symmetry_Int_Tables_number       1
_symmetry_cell_setting            triclinic
loop_
_symmetry_equiv_pos_as_xyz
'x, y, z'
_cell_length_a     37.998684
_cell_length_b     48.114654
_cell_length_c     48.146115
_cell_angle_alpha  99.075818
_cell_angle_beta   95.860402
_cell_angle_gamma 95.945127
loop_
_atom_site_label
_atom_site_type_symbol
_atom_site_fract_x
_atom_site_fract_y
_atom_site_fract_z
_atom_type_partial_charge
In0 In 0.25208 0.12776 0.14699 0.0
O1 O 0.27605 0.1365 0.19298 0.0
O2 O 0.28032 0.17046 0.16979 0.0
C3 C 0.25868 0.07508 0.15663 0.0
C4 C 0.18674 0.14371 0.1522 0.0
C5 C 0.2653 0.12856 0.09315 0.0
O6 O 0.2845 0.09033 0.1498 0.0
O7 O 0.23039 0.08647 0.15822 0.0
O8 O 0.23539 0.12011 0.09986 0.0
O9 O 0.28936 0.13669 0.11378 0.0
C10 C 0.28495 0.16254 0.19353 0.0
O11 O 0.21393 0.16145 0.15338 0.0
O12 O 0.19234 0.11813 0.1473 0.0
In13 In 0.86528 0.14675 0.16629 0.0
O14 O 0.84183 0.16411 0.2066 0.0
O15 O 0.83392 0.18431 0.17072 0.0
C16 C 0.93694 0.15597 0.17856 0.0
C17 C 0.84024 0.09345 0.17118 0.0
C18 C 0.84843 0.1531 0.11223 0.0
O19 O 0.91776 0.17582 0.18223 0.0
O20 O 0.91987 0.13179 0.16988 0.0
O21 O 0.82525 0.14634 0.12775 0.0
O22 O 0.88027 0.15593 0.12373 0.0
C23 C 0.82717 0.18274 0.1955 0.0
O24 O 0.84471 0.10096 0.14773 0.0
O25 O 0.84859 0.11285 0.19243 0.0
In26 In 0.76749 0.83317 0.12312 0.0
O27 O 0.76623 0.80785 0.15931 0.0
O28 O 0.71916 0.80441 0.13073 0.0
C29 C 0.77264 0.88888 0.14346 0.0
C30 C 0.8353 0.82201 0.11968 0.0
C31 C 0.7312 0.82926 0.0715 0.0
O32 O 0.75933 0.87065 0.15697 0.0
O33 O 0.78283 0.87882 0.12025 0.0
O34 O 0.75178 0.81144 0.07727 0.0
O35 O 0.72847 0.84863 0.09182 0.0
C36 C 0.7348 0.79614 0.15169 0.0
O37 O 0.8093 0.80788 0.10337 0.0
O38 O 0.82705 0.84153 0.13758 0.0
In39 In 0.16479 0.82462 0.15446 0.0
O40 O 0.11018 0.84018 0.1542 0.0
O41 O 0.11279 0.79747 0.13536 0.0
C42 C 0.20031 0.87702 0.16834 0.0
C43 C 0.18104 0.80188 0.20099 0.0
C44 C 0.18246 0.807 0.10252 0.0
O45 O 0.16671 0.87231 0.16586 0.0
O46 O 0.21609 0.85517 0.16437 0.0
O47 O 0.17614 0.78986 0.11927 0.0
O48 O 0.18013 0.83257 0.11215 0.0
C49 C 0.09352 0.81687 0.14138 0.0
O50 O 0.15399 0.81455 0.19762 0.0
O51 O 0.19963 0.80023 0.1807 0.0
In52 In 0.14668 0.82821 0.85518 0.0
O53 O 0.13434 0.79732 0.81297 0.0
O54 O 0.18577 0.80107 0.83634 0.0
C55 C 0.08234 0.84188 0.86702 0.0
C56 C 0.16586 0.80951 0.90343 0.0
C57 C 0.17722 0.87471 0.83842 0.0
O58 O 0.11126 0.85622 0.87853 0.0
O59 O 0.08565 0.82023 0.84922 0.0
O60 O 0.19239 0.86343 0.85758 0.0
O61 O 0.14668 0.86263 0.82786 0.0
C62 C 0.1653 0.78979 0.81434 0.0
O63 O 0.17768 0.83363 0.89874 0.0
O64 O 0.14431 0.79465 0.88363 0.0
In65 In 0.21364 0.12431 0.83415 0.0
O66 O 0.15271 0.11971 0.82788 0.0
O67 O 0.18066 0.16055 0.84418 0.0
C68 C 0.22154 0.06964 0.81708 0.0
C69 C 0.24107 0.15376 0.79687 0.0
C70 C 0.23845 0.12835 0.88918 0.0
O71 O 0.19171 0.07895 0.81451 0.0
O72 O 0.24754 0.08817 0.8273 0.0
O73 O 0.25748 0.13733 0.87169 0.0
O74 O 0.20726 0.11765 0.87887 0.0
C75 C 0.15094 0.1456 0.8368 0.0
O76 O 0.2486 0.16114 0.8233 0.0
O77 O 0.22054 0.13091 0.78912 0.0
In78 In 0.8367 0.18649 0.86154 0.0
O79 O 0.89303 0.20905 0.86414 0.0
O80 O 0.88469 0.16438 0.85037 0.0
C81 C 0.83234 0.18951 0.91744 0.0
C82 C 0.81726 0.22662 0.83201 0.0
C83 C 0.79431 0.13771 0.84095 0.0
O84 O 0.8581 0.18052 0.90575 0.0
O85 O 0.80903 0.19773 0.90108 0.0
O86 O 0.82512 0.14304 0.83403 0.0
O87 O 0.78435 0.15742 0.85775 0.0
C88 C 0.90645 0.18673 0.85576 0.0
O89 O 0.81571 0.20092 0.82099 0.0
O90 O 0.82805 0.2321 0.85814 0.0
In91 In 0.76824 0.88853 0.84716 0.0
O92 O 0.74863 0.84846 0.81542 0.0
O93 O 0.77515 0.88329 0.80042 0.0
C94 C 0.72947 0.87301 0.88707 0.0
C95 C 0.8356 0.88181 0.86682 0.0
C96 C 0.75118 0.93876 0.83602 0.0
O97 O 0.72502 0.8598 0.86193 0.0
O98 O 0.75274 0.89443 0.89182 0.0
O99 O 0.78245 0.93212 0.83713 0.0
O100 O 0.72786 0.92002 0.84085 0.0
C101 C 0.76085 0.85791 0.79488 0.0
O102 O 0.82232 0.90447 0.8738 0.0
O103 O 0.81472 0.86261 0.85074 0.0
In104 In 0.72309 0.66339 0.59745 0.0
O105 O 0.74628 0.68312 0.64217 0.0
O106 O 0.75541 0.70701 0.60949 0.0
C107 C 0.73941 0.6117 0.6043 0.0
C108 C 0.65792 0.67249 0.61199 0.0
C109 C 0.73147 0.66413 0.54271 0.0
O110 O 0.76119 0.6338 0.61279 0.0
O111 O 0.70992 0.61574 0.59195 0.0
O112 O 0.70146 0.66351 0.55176 0.0
O113 O 0.75744 0.66436 0.5613 0.0
C114 C 0.759 0.70614 0.63566 0.0
O115 O 0.67681 0.69003 0.60114 0.0
O116 O 0.67133 0.65 0.61455 0.0
In117 In 0.34895 0.64841 0.66165 0.0
O118 O 0.33506 0.67926 0.69871 0.0
O119 O 0.29885 0.67009 0.66075 0.0
C120 C 0.41909 0.66743 0.66937 0.0
C121 C 0.3258 0.60258 0.68332 0.0
C122 C 0.3443 0.63864 0.60479 0.0
O123 O 0.39543 0.68384 0.66741 0.0
O124 O 0.40726 0.64192 0.66914 0.0
O125 O 0.35099 0.61991 0.6195 0.0
O126 O 0.33885 0.66194 0.6187 0.0
C127 C 0.30561 0.68299 0.68594 0.0
O128 O 0.30854 0.61048 0.66278 0.0
O129 O 0.35511 0.61757 0.69275 0.0
In130 In 0.31896 0.35934 0.67927 0.0
O131 O 0.37063 0.35392 0.65981 0.0
O132 O 0.37266 0.35977 0.70473 0.0
C133 C 0.28612 0.36086 0.62747 0.0
C134 C 0.29821 0.31056 0.69654 0.0
C135 C 0.30546 0.41018 0.70581 0.0
O136 O 0.31745 0.37264 0.636 0.0
O137 O 0.2715 0.34797 0.64494 0.0
O138 O 0.28122 0.38967 0.69781 0.0
O139 O 0.33626 0.40449 0.70159 0.0
C140 C 0.38949 0.35615 0.68342 0.0
O141 O 0.30041 0.33429 0.71258 0.0
O142 O 0.30592 0.31159 0.67186 0.0
In143 In 0.71084 0.36356 0.64922 0.0
O144 O 0.72911 0.32626 0.66827 0.0
O145 O 0.74449 0.36783 0.69169 0.0
C146 C 0.72162 0.33426 0.59896 0.0
C147 C 0.64432 0.36152 0.66436 0.0
C148 C 0.7288 0.41774 0.64294 0.0
O149 O 0.74517 0.35243 0.61388 0.0
O150 O 0.69325 0.33005 0.60998 0.0
O151 O 0.69771 0.40501 0.63602 0.0
O152 O 0.7509 0.40327 0.65338 0.0
C153 C 0.74513 0.34155 0.69063 0.0
O154 O 0.65028 0.35578 0.63892 0.0
O155 O 0.67184 0.36849 0.68208 0.0
In156 In 0.63536 0.30917 0.34534 0.0
O157 O 0.68359 0.31776 0.37915 0.0
O158 O 0.63614 0.29576 0.38869 0.0
C159 C 0.65985 0.35835 0.33 0.0
C160 C 0.65396 0.2684 0.30662 0.0
C161 C 0.56445 0.30803 0.34741 0.0
O162 O 0.64934 0.3572 0.3539 0.0
O163 O 0.65825 0.33473 0.31403 0.0
O164 O 0.58016 0.28619 0.34752 0.0
O165 O 0.58429 0.33013 0.34557 0.0
C166 C 0.66815 0.30583 0.39688 0.0
O167 O 0.62938 0.28309 0.30099 0.0
O168 O 0.66758 0.27317 0.33214 0.0
In169 In 0.6656 0.60403 0.28555 0.0
O170 O 0.70079 0.6384 0.27029 0.0
O171 O 0.66256 0.61163 0.23991 0.0
C172 C 0.69596 0.62945 0.33729 0.0
C173 C 0.59499 0.60678 0.27942 0.0
C174 C 0.6778 0.55028 0.2879 0.0
O175 O 0.71399 0.61806 0.31894 0.0
O176 O 0.66317 0.62857 0.32912 0.0
O177 O 0.65952 0.56406 0.3042 0.0
O178 O 0.69013 0.56349 0.26963 0.0
C179 C 0.68603 0.63285 0.2451 0.0
O180 O 0.60845 0.5855 0.2682 0.0
O181 O 0.61715 0.62657 0.29356 0.0
In182 In 0.29744 0.64123 0.34739 0.0
O183 O 0.32358 0.61795 0.31159 0.0
O184 O 0.35509 0.65152 0.34067 0.0
C185 C 0.32418 0.64066 0.40122 0.0
C186 C 0.27036 0.68751 0.33344 0.0
C187 C 0.24641 0.59653 0.33579 0.0
O188 O 0.32673 0.62132 0.38089 0.0
O189 O 0.30884 0.6611 0.3944 0.0
O190 O 0.26298 0.60503 0.31667 0.0
O191 O 0.25452 0.61141 0.36003 0.0
C192 C 0.35367 0.63247 0.31915 0.0
O193 O 0.25355 0.67042 0.34609 0.0
O194 O 0.30074 0.6815 0.32842 0.0
In195 In 0.25491 0.36135 0.37518 0.0
O196 O 0.31313 0.37033 0.36647 0.0
O197 O 0.29975 0.33822 0.39055 0.0
C198 C 0.22905 0.40586 0.35693 0.0
C199 C 0.23761 0.31478 0.33624 0.0
C200 C 0.2369 0.36715 0.428 0.0
O201 O 0.25835 0.40797 0.37245 0.0
O202 O 0.2126 0.38117 0.35017 0.0
O203 O 0.21771 0.35085 0.40764 0.0
O204 O 0.26405 0.38071 0.42129 0.0
C205 C 0.32339 0.35082 0.37894 0.0
O206 O 0.22929 0.31591 0.36115 0.0
O207 O 0.25153 0.3379 0.33058 0.0
H208 H 0.24934 0.30728 0.28087 0.0
H209 H 0.23256 0.26189 0.35041 0.0
H210 H 0.25042 0.21889 0.3229 0.0
H211 H 0.21615 0.24762 0.22432 0.0
H212 H 0.24828 0.25828 0.20177 0.0
H213 H 0.23272 0.28456 0.22697 0.0
H214 H 0.29841 0.30213 0.24789 0.0
H215 H 0.31399 0.27508 0.22347 0.0
H216 H 0.32595 0.27757 0.26107 0.0
H217 H 0.27342 0.18196 0.28902 0.0
H218 H 0.28719 0.15031 0.24708 0.0
H219 H 0.28885 0.22013 0.19989 0.0
C220 C 0.24867 0.2881 0.29006 0.0
C221 C 0.23956 0.2878 0.31768 0.0
C222 C 0.23911 0.26242 0.32911 0.0
C223 C 0.24971 0.23806 0.31384 0.0
C224 C 0.26034 0.23952 0.28721 0.0
C225 C 0.25896 0.26363 0.2751 0.0
C226 C 0.27068 0.25943 0.24581 0.0
C227 C 0.24014 0.26265 0.2234 0.0
C228 C 0.30425 0.27977 0.24451 0.0
C229 C 0.27882 0.22911 0.24329 0.0
C230 C 0.27326 0.21817 0.26757 0.0
C231 C 0.2778 0.19025 0.26986 0.0
C232 C 0.28598 0.17252 0.24602 0.0
C233 C 0.28904 0.1828 0.22027 0.0
C234 C 0.28712 0.21178 0.21938 0.0
H235 H 0.70395 0.2324 0.31368 0.0
H236 H 0.64312 0.26831 0.2498 0.0
H237 H 0.68102 0.24972 0.2143 0.0
H238 H 0.78699 0.24833 0.29371 0.0
H239 H 0.80428 0.21595 0.29955 0.0
H240 H 0.76988 0.22872 0.31943 0.0
H241 H 0.72934 0.18113 0.30221 0.0
H242 H 0.76402 0.16786 0.28288 0.0
H243 H 0.72001 0.16754 0.26478 0.0
H244 H 0.73037 0.23378 0.18802 0.0
H245 H 0.78196 0.21351 0.16953 0.0
H246 H 0.80954 0.18592 0.24975 0.0
C247 C 0.69794 0.23556 0.29201 0.0
C248 C 0.67066 0.25174 0.28441 0.0
C249 C 0.66372 0.25575 0.25596 0.0
C250 C 0.68525 0.24546 0.23571 0.0
C251 C 0.71308 0.23082 0.24423 0.0
C252 C 0.71889 0.22514 0.27146 0.0
C253 C 0.75126 0.20958 0.27526 0.0
C254 C 0.77977 0.22668 0.29836 0.0
C255 C 0.74051 0.17975 0.28165 0.0
C256 C 0.76339 0.20825 0.24616 0.0
C257 C 0.74107 0.22077 0.22869 0.0
C258 C 0.74769 0.22344 0.20129 0.0
C259 C 0.77726 0.21212 0.19111 0.0
C260 C 0.79963 0.1981 0.20822 0.0
C261 C 0.79281 0.19647 0.23622 0.0
H262 H 0.76182 0.77651 0.19869 0.0
H263 H 0.67482 0.75989 0.13018 0.0
H264 H 0.65503 0.71459 0.1451 0.0
H265 H 0.78253 0.70612 0.19498 0.0
H266 H 0.7916 0.70793 0.23275 0.0
H267 H 0.79848 0.73962 0.21748 0.0
H268 H 0.75629 0.76415 0.24991 0.0
H269 H 0.74995 0.73278 0.26574 0.0
H270 H 0.71192 0.74693 0.25028 0.0
H271 H 0.64712 0.66992 0.1655 0.0
H272 H 0.64566 0.63213 0.19474 0.0
H273 H 0.73676 0.67863 0.25074 0.0
C274 C 0.73828 0.76354 0.18712 0.0
C275 C 0.71982 0.77161 0.1633 0.0
C276 C 0.68919 0.75412 0.14861 0.0
C277 C 0.67794 0.72827 0.15676 0.0
C278 C 0.69745 0.72047 0.17976 0.0
C279 C 0.7265 0.73783 0.19511 0.0
C280 C 0.7424 0.7247 0.21931 0.0
C281 C 0.78104 0.71927 0.21591 0.0
C282 C 0.73997 0.74324 0.24801 0.0
C283 C 0.71781 0.69719 0.21509 0.0
C284 C 0.69237 0.695 0.19194 0.0
C285 C 0.66677 0.67143 0.18377 0.0
C286 C 0.66634 0.64999 0.20036 0.0
C287 C 0.69111 0.65251 0.22494 0.0
C288 C 0.71761 0.67612 0.23198 0.0
H289 H 0.29766 0.71945 0.29735 0.0
H290 H 0.2064 0.70647 0.34311 0.0
H291 H 0.17606 0.74003 0.31794 0.0
H292 H 0.29101 0.79548 0.2909 0.0
H293 H 0.30382 0.78993 0.25561 0.0
H294 H 0.32094 0.76979 0.28141 0.0
H295 H 0.29693 0.72319 0.24683 0.0
H296 H 0.27933 0.74305 0.22114 0.0
H297 H 0.25026 0.71667 0.23329 0.0
H298 H 0.15293 0.7698 0.28342 0.0
H299 H 0.13846 0.79278 0.2419 0.0
H300 H 0.24406 0.7838 0.21757 0.0
C301 C 0.27177 0.72439 0.30278 0.0
C302 C 0.2544 0.71064 0.32227 0.0
C303 C 0.2202 0.71703 0.32835 0.0
C304 C 0.20285 0.73609 0.31423 0.0
C305 C 0.22022 0.74848 0.29426 0.0
C306 C 0.25404 0.74299 0.28868 0.0
C307 C 0.26524 0.7561 0.26394 0.0
C308 C 0.29714 0.7792 0.27355 0.0
C309 C 0.27339 0.73339 0.23989 0.0
C310 C 0.23184 0.76877 0.25563 0.0
C311 C 0.20647 0.76477 0.27374 0.0
C312 C 0.17276 0.77341 0.26935 0.0
C313 C 0.16475 0.78631 0.2457 0.0
C314 C 0.19016 0.78987 0.22661 0.0
C315 C 0.22417 0.78129 0.23187 0.0
H316 H 0.31239 0.7097 0.74093 0.0
H317 H 0.24 0.6922 0.6628 0.0
H318 H 0.19461 0.71618 0.68744 0.0
H319 H 0.24688 0.69805 0.78725 0.0
H320 H 0.26744 0.72622 0.81521 0.0
H321 H 0.29439 0.70817 0.79126 0.0
H322 H 0.31918 0.75612 0.77825 0.0
H323 H 0.29266 0.77434 0.80243 0.0
H324 H 0.28856 0.77899 0.76587 0.0
H325 H 0.15676 0.74158 0.72122 0.0
H326 H 0.13129 0.76901 0.76076 0.0
H327 H 0.22894 0.76897 0.81602 0.0
C328 C 0.28711 0.71112 0.72893 0.0
C329 C 0.27967 0.69919 0.7 0.0
C330 C 0.24623 0.70132 0.68502 0.0
C331 C 0.22025 0.71477 0.69884 0.0
C332 C 0.22823 0.72592 0.72756 0.0
C333 C 0.26095 0.72439 0.74236 0.0
C334 C 0.26304 0.7381 0.77302 0.0
C335 C 0.26823 0.71633 0.79284 0.0
C336 C 0.2926 0.76339 0.78031 0.0
C337 C 0.22645 0.7477 0.77315 0.0
C338 C 0.2066 0.74039 0.74684 0.0
C339 C 0.17205 0.74742 0.74194 0.0
C340 C 0.15775 0.76284 0.76448 0.0
C341 C 0.17816 0.77103 0.79135 0.0
C342 C 0.21267 0.76296 0.7957 0.0
H343 H 0.26794 0.20941 0.80945 0.0
H344 H 0.23771 0.13969 0.73925 0.0
H345 H 0.25088 0.17219 0.70556 0.0
H346 H 0.22733 0.26015 0.77674 0.0
H347 H 0.26114 0.28922 0.79174 0.0
H348 H 0.25295 0.26002 0.81036 0.0
H349 H 0.31942 0.25174 0.81182 0.0
H350 H 0.32794 0.28115 0.79349 0.0
H351 H 0.3394 0.24676 0.77928 0.0
H352 H 0.26531 0.21277 0.67977 0.0
H353 H 0.27929 0.25852 0.66361 0.0
H354 H 0.29668 0.30166 0.75098 0.0
C355 C 0.26481 0.20084 0.78702 0.0
C356 C 0.25223 0.17206 0.77685 0.0
C357 C 0.2476 0.16171 0.74737 0.0
C358 C 0.25498 0.17997 0.72814 0.0
C359 C 0.26664 0.20844 0.73886 0.0
C360 C 0.27151 0.2188 0.76761 0.0
C361 C 0.28215 0.25051 0.77368 0.0
C362 C 0.25422 0.26587 0.78903 0.0
C363 C 0.31945 0.25797 0.79056 0.0
C364 C 0.28229 0.25646 0.74382 0.0
C365 C 0.27361 0.23191 0.72403 0.0
C366 C 0.27217 0.23213 0.69506 0.0
C367 C 0.28008 0.25816 0.6861 0.0
C368 C 0.28883 0.28351 0.70609 0.0
C369 C 0.28976 0.2826 0.73526 0.0
H370 H 0.78944 0.21871 0.77647 0.0
H371 H 0.82582 0.28403 0.84975 0.0
H372 H 0.8135 0.32089 0.82086 0.0
H373 H 0.82523 0.25572 0.72453 0.0
H374 H 0.7878 0.24306 0.69781 0.0
H375 H 0.79975 0.22188 0.72419 0.0
H376 H 0.73581 0.22021 0.7387 0.0
H377 H 0.72358 0.24118 0.71223 0.0
H378 H 0.71745 0.25292 0.74866 0.0
H379 H 0.79759 0.35039 0.7839 0.0
H380 H 0.77577 0.37054 0.7422 0.0
H381 H 0.74924 0.28566 0.69344 0.0
C382 C 0.79477 0.24078 0.78645 0.0
C383 C 0.80861 0.24862 0.81528 0.0
C384 C 0.81515 0.27765 0.82766 0.0
C385 C 0.80837 0.29868 0.81142 0.0
C386 C 0.79502 0.29023 0.78295 0.0
C387 C 0.78805 0.26197 0.77063 0.0
C388 C 0.77302 0.25846 0.73979 0.0
C389 C 0.79795 0.24392 0.72044 0.0
C390 C 0.73522 0.24224 0.73455 0.0
C391 C 0.77251 0.28919 0.73669 0.0
C392 C 0.78553 0.30719 0.76176 0.0
C393 C 0.78735 0.33653 0.76414 0.0
C394 C 0.775 0.34776 0.74035 0.0
C395 C 0.7609 0.32963 0.71466 0.0
C396 C 0.76002 0.30002 0.7128 0.0
H397 H 0.74699 0.80043 0.78286 0.0
H398 H 0.78061 0.87419 0.74623 0.0
H399 H 0.78977 0.8428 0.70231 0.0
H400 H 0.81005 0.75664 0.75377 0.0
H401 H 0.77934 0.72453 0.7478 0.0
H402 H 0.77534 0.75279 0.77626 0.0
H403 H 0.70967 0.75446 0.75629 0.0
H404 H 0.71326 0.72583 0.7282 0.0
H405 H 0.69946 0.75859 0.71987 0.0
H406 H 0.79324 0.80319 0.662 0.0
H407 H 0.78691 0.7586 0.62739 0.0
H408 H 0.75417 0.71138 0.69204 0.0
C409 C 0.75594 0.81 0.7655 0.0
C410 C 0.76286 0.83965 0.76774 0.0
C411 C 0.77498 0.85144 0.74476 0.0
C412 C 0.7805 0.83382 0.71988 0.0
C413 C 0.77415 0.80457 0.7186 0.0
C414 C 0.76199 0.79279 0.74077 0.0
C415 C 0.75663 0.76081 0.73401 0.0
C416 C 0.78185 0.74795 0.75416 0.0
C417 C 0.71743 0.74925 0.73462 0.0
C418 C 0.7669 0.7564 0.70429 0.0
C419 C 0.7772 0.78185 0.69581 0.0
C420 C 0.78563 0.7831 0.66849 0.0
C421 C 0.78212 0.75771 0.64905 0.0
C422 C 0.77035 0.73162 0.65717 0.0
C423 C 0.76384 0.73097 0.68537 0.0
H424 H 0.20124 0.10934 0.92903 0.0
H425 H 0.30418 0.15114 0.91751 0.0
H426 H 0.32416 0.1542 0.9687 0.0
H427 H 0.1933 0.1502 -0.00476 0.0
H428 H 0.17187 0.12091 0.00893 0.0
H429 H 0.1669 0.12111 0.9714 0.0
H430 H 0.19077 0.07227 0.96266 0.0
H431 H 0.19587 0.07193 0.00021 0.0
H432 H 0.23345 0.068 0.98051 0.0
H433 H 0.33154 0.15373 0.02208 0.0
H434 H 0.32517 0.15043 0.07231 0.0
H435 H 0.21719 0.10893 0.04694 0.0
C436 C 0.22808 0.11903 0.93718 0.0
C437 C 0.25121 0.13001 0.91941 0.0
C438 C 0.28608 0.14258 0.93087 0.0
C439 C 0.29764 0.14436 0.95985 0.0
C440 C 0.27398 0.13336 0.97685 0.0
C441 C 0.23994 0.12093 0.96583 0.0
C442 C 0.21913 0.11135 0.98838 0.0
C443 C 0.18585 0.12683 0.99115 0.0
C444 C 0.20924 0.07897 0.98259 0.0
C445 C 0.24655 0.12063 0.01401 0.0
C446 C 0.27814 0.13314 0.00709 0.0
C447 C 0.30696 0.14384 0.02769 0.0
C448 C 0.30314 0.14187 0.05609 0.0
C449 C 0.27071 0.12943 0.06342 0.0
C450 C 0.24234 0.11852 0.042 0.0
H451 H 0.88313 0.17985 0.95786 0.0
H452 H 0.77272 0.19534 0.94411 0.0
H453 H 0.76479 0.18795 0.99289 0.0
H454 H 0.87003 0.12514 -0.00219 0.0
H455 H 0.91043 0.13611 0.02182 0.0
H456 H 0.90796 0.144 0.9864 0.0
H457 H 0.92537 0.19748 0.00639 0.0
H458 H 0.9283 0.18971 0.04189 0.0
H459 H 0.89976 0.21505 0.03184 0.0
H460 H 0.76785 0.17514 0.04167 0.0
H461 H 0.78321 0.16253 0.08888 0.0
H462 H 0.89226 0.15738 0.07114 0.0
C463 C 0.85741 0.18204 0.96525 0.0
C464 C 0.8285 0.18813 0.94732 0.0
C465 C 0.79523 0.19082 0.95764 0.0
C466 C 0.79046 0.18655 0.98523 0.0
C467 C 0.81934 0.17997 0.00218 0.0
C468 C 0.85231 0.17816 0.99275 0.0
C469 C 0.87897 0.17065 0.01508 0.0
C470 C 0.89263 0.14229 0.00465 0.0
C471 C 0.90992 0.19466 0.02435 0.0
C472 C 0.85571 0.16811 0.03843 0.0
C473 C 0.82136 0.17338 0.03053 0.0
C474 C 0.79475 0.17126 0.04822 0.0
C475 C 0.80366 0.16393 0.07487 0.0
C476 C 0.83891 0.1591 0.08356 0.0
C477 C 0.86516 0.16116 0.06506 0.0
H478 H 0.72202 0.90247 0.93874 0.0
H479 H 0.70177 0.81858 0.88763 0.0
H480 H 0.68794 0.79823 0.92978 0.0
H481 H 0.76757 0.88592 -0.00544 0.0
H482 H 0.7501 0.90874 0.02188 0.0
H483 H 0.74958 0.91755 0.98703 0.0
H484 H 0.68133 0.91901 0.98376 0.0
H485 H 0.68167 0.91049 0.01894 0.0
H486 H 0.65269 0.88883 0.98983 0.0
H487 H 0.69329 0.7862 0.97827 0.0
H488 H 0.70984 0.78415 0.02892 0.0
H489 H 0.72075 0.87583 0.04851 0.0
C490 C 0.71319 0.87999 0.93628 0.0
C491 C 0.71291 0.86205 0.91011 0.0
C492 C 0.70177 0.83269 0.90753 0.0
C493 C 0.69387 0.82096 0.93136 0.0
C494 C 0.69621 0.83904 0.9573 0.0
C495 C 0.70455 0.86808 0.95974 0.0
C496 C 0.7091 0.88252 0.99038 0.0
C497 C 0.74629 0.89966 -0.00106 0.0
C498 C 0.67942 0.90132 -0.00394 0.0
C499 C 0.70496 0.85691 0.0049 0.0
C500 C 0.69709 0.832 0.98549 0.0
C501 C 0.69793 0.80552 0.99374 0.0
C502 C 0.70754 0.80451 0.02245 0.0
C503 C 0.71567 0.82981 0.04244 0.0
C504 C 0.71329 0.8562 0.03367 0.0
H505 H 0.21211 0.84006 0.06852 0.0
H506 H 0.16469 0.75444 0.06975 0.0
H507 H 0.16386 0.74299 0.01768 0.0
H508 H 0.16116 0.85098 0.01136 0.0
H509 H 0.19501 0.87123 -0.00334 0.0
H510 H 0.1992 0.87076 0.03404 0.0
H511 H 0.26112 0.85297 0.03195 0.0
H512 H 0.25737 0.85372 0.99445 0.0
H513 H 0.26571 0.82154 0.00737 0.0
H514 H 0.15694 0.7443 0.96536 0.0
H515 H 0.14817 0.75728 0.91762 0.0
H516 H 0.20194 0.84163 0.95128 0.0
C517 C 0.2027 0.81861 0.05792 0.0
C518 C 0.18853 0.79808 0.07295 0.0
C519 C 0.17602 0.77034 0.05851 0.0
C520 C 0.17544 0.76368 0.02898 0.0
C521 C 0.18819 0.78488 0.01454 0.0
C522 C 0.20228 0.81164 0.02867 0.0
C523 C 0.21078 0.83158 0.00831 0.0
C524 C 0.1903 0.85764 0.01287 0.0
C525 C 0.25115 0.84046 0.01066 0.0
C526 C 0.1973 0.81243 0.9805 0.0
C527 C 0.18484 0.78544 0.9844 0.0
C528 C 0.16752 0.7651 0.96197 0.0
C529 C 0.16249 0.77268 0.93499 0.0
C530 C 0.17465 0.80037 0.93083 0.0
C531 C 0.19296 0.82015 0.95376 0.0
H532 H 0.12564 0.10858 0.1516 0.0
H533 H 0.16868 0.19747 0.16638 0.0
H534 H 0.10999 0.21072 0.17814 0.0
H535 H 0.04003 0.11672 0.11873 0.0
H536 H 0.01707 0.08967 0.13457 0.0
H537 H 0.06263 0.08774 0.12809 0.0
H538 H 0.08009 0.08545 0.18111 0.0
H539 H 0.03461 0.08771 0.18782 0.0
H540 H 0.06992 0.11305 0.20794 0.0
H541 H 0.04552 0.21387 0.18721 0.0
H542 H 0.9806 0.20667 0.19036 0.0
H543 H 0.98163 0.11565 0.17028 0.0
C544 C 0.12276 0.13085 0.15725 0.0
C545 C 0.15157 0.15202 0.15798 0.0
C546 C 0.14679 0.18093 0.16555 0.0
C547 C 0.11366 0.18863 0.17241 0.0
C548 C 0.0858 0.16714 0.17169 0.0
C549 C 0.09008 0.13886 0.1642 0.0
C550 C 0.05596 0.11978 0.16434 0.0
C551 C 0.04317 0.10247 0.13467 0.0
C552 C 0.06043 0.10036 0.18664 0.0
C553 C 0.03156 0.14171 0.1727 0.0
C554 C 0.04918 0.16893 0.17708 0.0
C555 C 0.03153 0.19264 0.18402 0.0
C556 C 0.99474 0.18837 0.18586 0.0
C557 C 0.97619 0.16062 0.18068 0.0
C558 C 0.99512 0.13711 0.17458 0.0
H559 H 0.78626 0.92995 0.11233 0.0
H560 H 0.76963 0.91716 0.19743 0.0
H561 H 0.78276 0.96912 0.21419 0.0
H562 H 0.85895 0.98259 0.13086 0.0
H563 H 0.84601 0.00251 0.10358 0.0
H564 H 0.83276 0.96489 0.09835 0.0
H565 H 0.76647 0.97291 0.08887 0.0
H566 H 0.77951 0.0106 0.09386 0.0
H567 H 0.74748 -0.00362 0.11469 0.0
H568 H 0.80261 0.02254 0.22167 0.0
H569 H 0.82424 0.07231 0.2188 0.0
H570 H 0.82616 0.0484 0.12829 0.0
C571 C 0.78498 0.93805 0.13447 0.0
C572 C 0.77705 0.91968 0.15366 0.0
C573 C 0.77553 0.93103 0.18241 0.0
C574 C 0.78301 0.96043 0.19207 0.0
C575 C 0.79146 0.97794 0.17257 0.0
C576 C 0.79204 0.96709 0.1443 0.0
C577 C 0.80273 0.98995 0.12757 0.0
C578 C 0.83716 0.98466 0.11433 0.0
C579 C 0.77222 0.99262 0.10491 0.0
C580 C 0.80886 0.01545 0.15089 0.0
C581 C 0.8022 0.00827 0.17673 0.0
C582 C 0.80751 0.0284 0.20148 0.0
C583 C 0.81987 0.05655 0.19968 0.0
C584 C 0.8267 0.06413 0.17331 0.0
C585 C 0.82092 0.04327 0.14871 0.0
H586 H 0.89526 0.85487 0.14719 0.0
H587 H 0.85908 0.77632 0.08895 0.0
H588 H 0.92163 0.76646 0.08774 0.0
H589 H 0.97427 0.87341 0.11497 0.0
H590 H 0.00047 0.88824 0.14836 0.0
H591 H 0.95295 0.88898 0.1444 0.0
H592 H 0.94785 0.86306 0.18737 0.0
H593 H 0.99533 0.86218 0.19143 0.0
H594 H 0.96558 0.8297 0.18726 0.0
H595 H 0.988 0.76457 0.09443 0.0
H596 H 0.05346 0.77171 0.10681 0.0
H597 H 0.0457 0.85232 0.15942 0.0
C598 C 0.90049 0.8356 0.13414 0.0
C599 C 0.87245 0.81626 0.11823 0.0
C600 C 0.88029 0.79138 0.10128 0.0
C601 C 0.91566 0.78562 0.10049 0.0
C602 C 0.94271 0.80509 0.11658 0.0
C603 C 0.93554 0.82968 0.13292 0.0
C604 C 0.96934 0.84725 0.14812 0.0
C605 C 0.97456 0.87618 0.13837 0.0
C606 C 0.96952 0.85074 0.18046 0.0
C607 C 0.99671 0.82857 0.13803 0.0
C608 C 0.98085 0.80431 0.11992 0.0
C609 C 0.00073 0.78356 0.10844 0.0
C610 C 0.03782 0.78777 0.11564 0.0
C611 C 0.05453 0.8126 0.13397 0.0
C612 C 0.03364 0.83322 0.1452 0.0
H613 H 0.2063 0.04152 0.17346 0.0
H614 H 0.3145 0.04299 0.15193 0.0
H615 H 0.31423 0.99286 0.15861 0.0
H616 H 0.21405 -0.00577 0.22642 0.0
H617 H 0.16935 0.97689 0.21524 0.0
H618 H 0.18021 0.0136 0.21237 0.0
H619 H 0.15686 0.00217 0.15879 0.0
H620 H 0.14593 0.96554 0.16148 0.0
H621 H 0.17493 0.97502 0.1362 0.0
H622 H 0.29927 0.94119 0.16327 0.0
H623 H 0.27052 0.89265 0.16343 0.0
H624 H 0.17221 0.9264 0.18136 0.0
C625 C 0.23023 0.03151 0.17059 0.0
C626 C 0.26046 0.04603 0.16223 0.0
C627 C 0.29112 0.03215 0.15845 0.0
C628 C 0.29122 0.00379 0.16231 0.0
C629 C 0.26058 0.98995 0.17015 0.0
C630 C 0.23073 0.00348 0.17432 0.0
C631 C 0.2001 0.9836 0.18032 0.0
C632 C 0.19037 0.99262 0.21038 0.0
C633 C 0.16757 0.98146 0.15785 0.0
C634 C 0.21684 0.95639 0.17791 0.0
C635 C 0.25192 0.96045 0.17255 0.0
C636 C 0.272 0.93786 0.16784 0.0
C637 C 0.25549 0.91041 0.168 0.0
C638 C 0.21921 0.90591 0.17247 0.0
C639 C 0.20006 0.92928 0.1781 0.0
H640 H 0.87136 0.83832 0.84619 0.0
H641 H 0.88513 0.91856 0.90404 0.0
H642 H 0.94965 0.91503 0.91321 0.0
H643 H 0.93895 0.80403 0.8846 0.0
H644 H 0.95312 0.7869 0.85228 0.0
H645 H 0.90762 0.79421 0.85294 0.0
H646 H 0.91348 0.82181 0.81125 0.0
H647 H 0.959 0.8148 0.81057 0.0
H648 H 0.94857 0.85081 0.81457 0.0
H649 H 0.01288 0.90456 0.91311 0.0
H650 H 0.07062 0.8883 0.90366 0.0
H651 H 0.0156 0.81532 0.84489 0.0
C652 C 0.88781 0.85486 0.86127 0.0
C653 C 0.87332 0.87863 0.87462 0.0
C654 C 0.89576 0.90011 0.89376 0.0
C655 C 0.93236 0.89825 0.8991 0.0
C656 C 0.94593 0.87479 0.88512 0.0
C657 C 0.92433 0.85343 0.86665 0.0
C658 C 0.94583 0.83151 0.85278 0.0
C659 C 0.93578 0.80244 0.86116 0.0
C660 C 0.94146 0.82964 0.82038 0.0
C661 C 0.98306 0.8442 0.86585 0.0
C662 C 0.98248 0.86897 0.88468 0.0
C663 C 0.01365 0.88506 0.89862 0.0
C664 C 0.0463 0.87566 0.89305 0.0
C665 C 0.04754 0.85053 0.87356 0.0
C666 C 0.01545 0.83452 0.85999 0.0
H667 H 0.14275 0.91103 0.81074 0.0
H668 H 0.24701 0.89785 0.84839 0.0
H669 H 0.27226 0.94415 0.83833 0.0
H670 H 0.17339 0.95269 0.75597 0.0
H671 H 0.13942 0.97587 0.76118 0.0
H672 H 0.13114 0.93942 0.76585 0.0
H673 H 0.11569 0.95585 0.81661 0.0
H674 H 0.12382 0.9922 0.81207 0.0
H675 H 0.14757 0.98031 0.8415 0.0
H676 H 0.28435 0.9939 0.83012 0.0
H677 H 0.28149 0.04455 0.82814 0.0
H678 H 0.16882 0.02595 0.79736 0.0
C679 C 0.17111 0.91754 0.81606 0.0
C680 C 0.19309 0.90088 0.83004 0.0
C681 C 0.22983 0.91035 0.83751 0.0
C682 C 0.24442 0.93648 0.83168 0.0
C683 C 0.22185 0.95278 0.81842 0.0
C684 C 0.18593 0.9437 0.81076 0.0
C685 C 0.16645 0.96673 0.80048 0.0
C686 C 0.15174 0.95816 0.76899 0.0
C687 C 0.13665 0.97421 0.81877 0.0
C688 C 0.19668 0.99063 0.80482 0.0
C689 C 0.22861 0.98193 0.81442 0.0
C690 C 0.25967 0.00086 0.82215 0.0
C691 C 0.25778 0.02958 0.82096 0.0
C692 C 0.22494 0.03908 0.81253 0.0
C693 C 0.19436 0.01919 0.80351 0.0
H694 H 0.08357 0.1168 0.82785 0.0
H695 H 0.14169 0.20121 0.85172 0.0
H696 H 0.08511 0.22118 0.85769 0.0
H697 H 0.00589 0.13706 0.78891 0.0
H698 H 0.97507 0.11199 0.80119 0.0
H699 H 0.02001 0.1045 0.79756 0.0
H700 H 0.02869 0.09783 0.8501 0.0
H701 H 0.98383 0.10536 0.85391 0.0
H702 H 0.02064 0.12591 0.87738 0.0
H703 H 0.0226 0.23181 0.86259 0.0
H704 H 0.95822 0.23222 0.86613 0.0
H705 H 0.94104 0.14088 0.83938 0.0
C706 C 0.08433 0.1395 0.83407 0.0
C707 C 0.11693 0.15749 0.83925 0.0
C708 C 0.11694 0.18706 0.84762 0.0
C709 C 0.08497 0.19861 0.85104 0.0
C710 C 0.05329 0.18028 0.84601 0.0
C711 C 0.05269 0.15138 0.83769 0.0
C712 C 0.01515 0.13627 0.83449 0.0
C713 C 0.00334 0.1216 0.8037 0.0
C714 C 0.0119 0.1151 0.85521 0.0
C715 C 0.99481 0.16118 0.8425 0.0
C716 C 0.01727 0.18639 0.84897 0.0
C717 C 0.0047 0.21221 0.85745 0.0
C718 C 0.96814 0.21226 0.85943 0.0
C719 C 0.94472 0.18662 0.853 0.0
C720 C 0.95832 0.16084 0.84434 0.0
H721 H 0.79095 0.97378 0.80961 0.0
H722 H 0.69509 0.96718 0.85094 0.0
H723 H 0.68901 0.01756 0.84843 0.0
H724 H 0.82755 0.03694 0.84551 0.0
H725 H 0.84645 0.05021 0.81661 0.0
H726 H 0.83856 0.01271 0.816 0.0
H727 H 0.79976 0.00643 0.76737 0.0
H728 H 0.80769 0.0441 0.76776 0.0
H729 H 0.76269 0.02662 0.76346 0.0
H730 H 0.7009 0.07035 0.85026 0.0
H731 H 0.72858 0.11998 0.85517 0.0
H732 H 0.81532 0.09108 0.81086 0.0
C733 C 0.76807 0.98273 0.81734 0.0
C734 C 0.7435 0.96684 0.83049 0.0
C735 C 0.71401 0.97911 0.84058 0.0
C736 C 0.71034 0.00763 0.83917 0.0
C737 C 0.73593 0.02315 0.82699 0.0
C738 C 0.76388 0.01089 0.81578 0.0
C739 C 0.79008 0.03253 0.80674 0.0
C740 C 0.82785 0.03313 0.82215 0.0
C741 C 0.79003 0.02709 0.77441 0.0
C742 C 0.77393 0.05925 0.81638 0.0
C743 C 0.74232 0.05346 0.82749 0.0
C744 C 0.72504 0.07509 0.84088 0.0
C745 C 0.74097 0.1032 0.84363 0.0
C746 C 0.77393 0.10928 0.8332 0.0
C747 C 0.78978 0.08708 0.81856 0.0
H748 H 0.65962 0.649 0.38054 0.0
H749 H 0.76549 0.63323 0.36104 0.0
H750 H 0.78809 0.64561 0.41208 0.0
H751 H 0.68711 0.70759 0.44136 0.0
H752 H 0.6518 0.69526 0.46039 0.0
H753 H 0.64566 0.68958 0.42222 0.0
H754 H 0.63003 0.63565 0.42119 0.0
H755 H 0.63641 0.64108 0.45925 0.0
H756 H 0.66117 0.61669 0.43922 0.0
H757 H 0.79725 0.65459 0.46565 0.0
H758 H 0.79213 0.65906 0.51697 0.0
H759 H 0.6797 0.66754 0.5004 0.0
C760 C 0.68778 0.64888 0.38689 0.0
C761 C 0.71092 0.64038 0.36691 0.0
C762 C 0.74742 0.63992 0.37607 0.0
C763 C 0.76046 0.64694 0.40497 0.0
C764 C 0.73662 0.65444 0.42424 0.0
C765 C 0.70107 0.65559 0.41551 0.0
C766 C 0.68013 0.66159 0.44037 0.0
C767 C 0.66531 0.69021 0.44112 0.0
C768 C 0.65019 0.6373 0.43997 0.0
C769 C 0.70917 0.66279 0.46453 0.0
C770 C 0.7417 0.65906 0.45492 0.0
C771 C 0.77202 0.65791 0.47343 0.0
C772 C 0.76885 0.6604 0.50249 0.0
C773 C 0.73553 0.66365 0.51255 0.0
C774 C 0.70554 0.66521 0.49331 0.0
H775 H 0.32501 0.67418 0.56845 0.0
H776 H 0.3652 0.59336 0.57161 0.0
H777 H 0.36864 0.58697 0.52007 0.0
H778 H 0.26973 0.65249 0.50253 0.0
H779 H 0.27829 0.68606 0.4908 0.0
H780 H 0.28057 0.68473 0.52808 0.0
H781 H 0.34498 0.71065 0.53569 0.0
H782 H 0.34301 0.71181 0.49834 0.0
H783 H 0.37825 0.69597 0.51561 0.0
H784 H 0.36691 0.58903 0.46855 0.0
H785 H 0.35574 0.59745 0.41941 0.0
H786 H 0.31576 0.67668 0.44959 0.0
C787 C 0.33458 0.65516 0.55828 0.0
C788 C 0.34489 0.63425 0.57391 0.0
C789 C 0.35709 0.60958 0.55993 0.0
C790 C 0.35934 0.60586 0.53075 0.0
C791 C 0.34922 0.62698 0.51598 0.0
C792 C 0.33681 0.65104 0.52918 0.0
C793 C 0.32618 0.66993 0.5082 0.0
C794 C 0.28633 0.67349 0.50735 0.0
C795 C 0.34951 0.6988 0.51487 0.0
C796 C 0.33412 0.65253 0.48105 0.0
C797 C 0.3478 0.62802 0.4861 0.0
C798 C 0.35634 0.60818 0.46431 0.0
C799 C 0.34996 0.6132 0.4365 0.0
C800 C 0.33495 0.63775 0.43077 0.0
C801 C 0.32753 0.65787 0.4534 0.0
H802 H 0.27773 0.39881 0.47373 0.0
H803 H 0.1845 0.33622 0.44962 0.0
H804 H 0.1824 0.33202 0.50007 0.0
H805 H 0.31973 0.36436 0.52098 0.0
H806 H 0.33895 0.39543 0.54604 0.0
H807 H 0.32877 0.39793 0.50932 0.0
H808 H 0.28925 0.43763 0.52263 0.0
H809 H 0.29972 0.43559 0.55957 0.0
H810 H 0.25388 0.43156 0.54404 0.0
H811 H 0.19587 0.33002 0.55219 0.0
H812 H 0.22337 0.33049 0.60117 0.0
H813 H 0.30893 0.39312 0.58972 0.0
C814 C 0.25616 0.38486 0.47909 0.0
C815 C 0.23114 0.36794 0.45788 0.0
C816 C 0.20373 0.34955 0.46566 0.0
C817 C 0.20234 0.34706 0.49423 0.0
C818 C 0.22843 0.36325 0.51455 0.0
C819 C 0.25462 0.38199 0.50729 0.0
C820 C 0.28192 0.3946 0.53234 0.0
C821 C 0.31954 0.38764 0.52683 0.0
C822 C 0.28112 0.42675 0.54011 0.0
C823 C 0.2679 0.37918 0.55467 0.0
C824 C 0.23666 0.3616 0.54424 0.0
C825 C 0.22001 0.34403 0.56068 0.0
C826 C 0.23586 0.34436 0.58839 0.0
C827 C 0.26825 0.36181 0.59909 0.0
C828 C 0.2841 0.37963 0.58208 0.0
H829 H 0.6372 0.28832 0.44082 0.0
H830 H 0.73831 0.32177 0.41733 0.0
H831 H 0.76627 0.32425 0.46642 0.0
H832 H 0.64248 0.33301 0.50378 0.0
H833 H 0.62171 0.30777 0.52293 0.0
H834 H 0.61161 0.30336 0.48513 0.0
H835 H 0.63068 0.25278 0.4802 0.0
H836 H 0.64098 0.25712 0.51815 0.0
H837 H 0.67441 0.2478 0.49551 0.0
H838 H 0.78075 0.32996 0.51879 0.0
H839 H 0.77989 0.34052 0.57057 0.0
H840 H 0.66943 0.30323 0.56003 0.0
C841 C 0.66546 0.29542 0.44585 0.0
C842 C 0.68569 0.30472 0.42535 0.0
C843 C 0.7224 0.31445 0.43277 0.0
C844 C 0.73854 0.31574 0.46053 0.0
C845 C 0.71764 0.30703 0.48048 0.0
C846 C 0.68189 0.29695 0.47345 0.0
C847 C 0.66429 0.29223 0.4994 0.0
C848 C 0.63322 0.31017 0.50301 0.0
C849 C 0.65187 0.26059 0.49824 0.0
C850 C 0.69526 0.30262 0.52229 0.0
C851 C 0.72601 0.31044 0.51091 0.0
C852 C 0.75708 0.32334 0.52796 0.0
C853 C 0.75635 0.32928 0.55734 0.0
C854 C 0.72467 0.32251 0.56925 0.0
C855 C 0.69421 0.30813 0.55154 0.0
H856 H 0.61106 0.63629 0.63267 0.0
H857 H 0.62757 0.72184 0.61442 0.0
H858 H 0.57068 0.73175 0.63245 0.0
H859 H 0.51857 0.62442 0.61056 0.0
H860 H 0.50834 0.60398 0.63765 0.0
H861 H 0.55148 0.60467 0.62533 0.0
H862 H 0.58139 0.62179 0.67692 0.0
H863 H 0.53822 0.62146 0.68936 0.0
H864 H 0.56929 0.65341 0.69726 0.0
H865 H 0.51053 0.73141 0.65028 0.0
H866 H 0.44994 0.71969 0.6629 0.0
H867 H 0.47324 0.63438 0.66935 0.0
C868 C 0.60282 0.65717 0.63263 0.0
C869 C 0.62366 0.67833 0.62219 0.0
C870 C 0.6119 0.70532 0.62229 0.0
C871 C 0.57979 0.7112 0.63266 0.0
C872 C 0.55988 0.68987 0.6429 0.0
C873 C 0.57087 0.66335 0.64281 0.0
C874 C 0.54364 0.64357 0.65334 0.0
C875 C 0.52968 0.61764 0.63035 0.0
C876 C 0.55907 0.63454 0.68086 0.0
C877 C 0.5152 0.66288 0.65875 0.0
C878 C 0.52525 0.68963 0.65302 0.0
C879 C 0.50251 0.71063 0.6551 0.0
C880 C 0.46821 0.70382 0.66238 0.0
C881 C 0.45699 0.67619 0.66725 0.0
C882 C 0.4812 0.65578 0.66611 0.0
H883 H 0.36628 0.57044 0.71204 0.0
H884 H 0.25776 0.57635 0.67806 0.0
H885 H 0.23812 0.53026 0.69151 0.0
H886 H 0.36611 0.50203 0.6833 0.0
H887 H 0.39368 0.49214 0.71202 0.0
H888 H 0.39737 0.52835 0.70674 0.0
H889 H 0.38454 0.54418 0.75838 0.0
H890 H 0.38059 0.50778 0.76373 0.0
H891 H 0.3447 0.52874 0.77027 0.0
H892 H 0.23204 0.48081 0.70095 0.0
H893 H 0.24108 0.43071 0.70071 0.0
H894 H 0.3539 0.4561 0.72699 0.0
C895 C 0.3382 0.56246 0.70842 0.0
C896 C 0.31341 0.57694 0.69438 0.0
C897 C 0.27707 0.56553 0.689 0.0
C898 C 0.26565 0.53952 0.6968 0.0
C899 C 0.29094 0.52524 0.70991 0.0
C900 C 0.32653 0.5363 0.71563 0.0
C901 C 0.3493 0.51481 0.72529 0.0
C902 C 0.37828 0.50899 0.70566 0.0
C903 C 0.36574 0.52446 0.75626 0.0
C904 C 0.32133 0.48942 0.72245 0.0
C905 C 0.28763 0.49612 0.71455 0.0
C906 C 0.25813 0.47542 0.70774 0.0
C907 C 0.26348 0.44701 0.70772 0.0
C908 C 0.29817 0.43966 0.71391 0.0
C909 C 0.32704 0.46124 0.72258 0.0
H910 H 0.58104 0.35345 0.62971 0.0
H911 H 0.62588 0.36682 0.71807 0.0
H912 H 0.56522 0.36503 0.73242 0.0
H913 H 0.51111 0.39682 0.63976 0.0
H914 H 0.47907 0.37417 0.61345 0.0
H915 H 0.52592 0.37528 0.61008 0.0
H916 H 0.52138 0.32081 0.60761 0.0
H917 H 0.47449 0.31953 0.61101 0.0
H918 H 0.50349 0.3051 0.63559 0.0
H919 H 0.50014 0.36271 0.73721 0.0
H920 H 0.43467 0.36136 0.73224 0.0
H921 H 0.43215 0.35014 0.64077 0.0
C922 C 0.57806 0.35583 0.65206 0.0
C923 C 0.60806 0.3602 0.67281 0.0
C924 C 0.60318 0.36346 0.70185 0.0
C925 C 0.56887 0.3624 0.7102 0.0
C926 C 0.53983 0.35814 0.68922 0.0
C927 C 0.54403 0.35499 0.66076 0.0
C928 C 0.50841 0.35158 0.64255 0.0
C929 C 0.506 0.37592 0.62546 0.0
C930 C 0.50155 0.32252 0.62304 0.0
C931 C 0.48356 0.35346 0.66525 0.0
C932 C 0.50224 0.35708 0.692 0.0
C933 C 0.48519 0.3598 0.71637 0.0
C934 C 0.44802 0.35901 0.71334 0.0
C935 C 0.4284 0.35563 0.68614 0.0
C936 C 0.44646 0.35264 0.66182 0.0
H937 H 0.69303 0.56318 0.59363 0.0
H938 H 0.80173 0.59682 0.62841 0.0
H939 H 0.8119 0.55001 0.64078 0.0
H940 H 0.67616 0.52221 0.64636 0.0
H941 H 0.64927 0.49342 0.62248 0.0
H942 H 0.65157 0.52881 0.61448 0.0
H943 H 0.67232 0.51116 0.5658 0.0
H944 H 0.66985 0.47564 0.57357 0.0
H945 H 0.71081 0.49223 0.56437 0.0
H946 H 0.80899 0.49989 0.65111 0.0
H947 H 0.79326 0.45057 0.65845 0.0
H948 H 0.68611 0.45096 0.61763 0.0
C949 C 0.71915 0.56063 0.60348 0.0
C950 C 0.74668 0.5835 0.60994 0.0
C951 C 0.78033 0.57945 0.62318 0.0
C952 C 0.78634 0.55299 0.63027 0.0
C953 C 0.75838 0.53096 0.62397 0.0
C954 C 0.72549 0.53453 0.61081 0.0
C955 C 0.69934 0.50798 0.60741 0.0
C956 C 0.6672 0.51344 0.62366 0.0
C957 C 0.68739 0.49605 0.57592 0.0
C958 C 0.72252 0.48893 0.62096 0.0
C959 C 0.75655 0.50244 0.63025 0.0
C960 C 0.78247 0.48907 0.64381 0.0
C961 C 0.77331 0.46112 0.64793 0.0
C962 C 0.7385 0.44706 0.63864 0.0
C963 C 0.71294 0.46121 0.62498 0.0
H964 H 0.38237 0.37613 0.35948 0.0
H965 H 0.34362 0.30238 0.39425 0.0
H966 H 0.40007 0.28262 0.388 0.0
H967 H 0.42993 0.3399 0.30715 0.0
H968 H 0.4669 0.36756 0.31185 0.0
H969 H 0.42332 0.37625 0.31889 0.0
H970 H 0.44896 0.40092 0.36979 0.0
H971 H 0.49268 0.3926 0.36278 0.0
H972 H 0.47361 0.38157 0.39266 0.0
H973 H 0.45933 0.26974 0.37634 0.0
H974 H 0.52096 0.26716 0.36491 0.0
H975 H 0.52281 0.35001 0.33976 0.0
C976 C 0.38595 0.35595 0.36597 0.0
C977 C 0.35866 0.3408 0.37736 0.0
C978 C 0.36426 0.31445 0.38561 0.0
C979 C 0.39614 0.30293 0.38199 0.0
C980 C 0.42233 0.31814 0.37034 0.0
C981 C 0.4179 0.34426 0.36284 0.0
C982 C 0.45081 0.35648 0.3515 0.0
C983 C 0.44221 0.36026 0.32051 0.0
C984 C 0.4675 0.38455 0.37031 0.0
C985 C 0.4743 0.33314 0.35385 0.0
C986 C 0.45713 0.31107 0.36442 0.0
C987 C 0.47318 0.28695 0.36818 0.0
C988 C 0.50808 0.2856 0.36151 0.0
C989 C 0.52658 0.30839 0.35155 0.0
C990 C 0.50928 0.3323 0.34741 0.0
H991 H 0.65341 0.41161 0.35646 0.0
H992 H 0.69018 0.36569 0.2821 0.0
H993 H 0.70401 0.4108 0.26466 0.0
H994 H 0.60898 0.45795 0.32111 0.0
H995 H 0.61993 0.48808 0.34923 0.0
H996 H 0.61722 0.45277 0.35738 0.0
H997 H 0.68167 0.46341 0.38324 0.0
H998 H 0.68454 0.49886 0.37525 0.0
H999 H 0.71738 0.4761 0.36478 0.0
H1000 H 0.7097 0.46092 0.25386 0.0
H1001 H 0.70493 0.51131 0.25022 0.0
H1002 H 0.66285 0.523 0.33115 0.0
C1003 C 0.66507 0.41111 0.3368 0.0
C1004 C 0.671 0.3853 0.32071 0.0
C1005 C 0.68561 0.38537 0.2948 0.0
C1006 C 0.69363 0.41085 0.28477 0.0
C1007 C 0.68683 0.43597 0.30093 0.0
C1008 C 0.67291 0.43624 0.32642 0.0
C1009 C 0.66541 0.46558 0.33873 0.0
C1010 C 0.62552 0.46611 0.34177 0.0
C1011 C 0.68864 0.47663 0.36718 0.0
C1012 C 0.67659 0.48169 0.31595 0.0
C1013 C 0.68934 0.46445 0.29446 0.0
C1014 C 0.70004 0.47468 0.27068 0.0
C1015 C 0.69725 0.50324 0.26877 0.0
C1016 C 0.68347 0.52091 0.29035 0.0
C1017 C 0.67348 0.50997 0.31429 0.0
H1018 H 0.56071 0.64736 0.30762 0.0
H1019 H 0.54208 0.5686 0.24742 0.0
H1020 H 0.47701 0.5692 0.24713 0.0
H1021 H 0.49471 0.63013 0.34884 0.0
H1022 H 0.48202 0.66537 0.35632 0.0
H1023 H 0.52661 0.6606 0.34886 0.0
H1024 H 0.51959 0.68973 0.3081 0.0
H1025 H 0.47488 0.69464 0.31549 0.0
H1026 H 0.4828 0.67932 0.28037 0.0
H1027 H 0.41435 0.57643 0.2567 0.0
H1028 H 0.35932 0.58885 0.27645 0.0
H1029 H 0.41984 0.66236 0.33089 0.0
C1030 C 0.54294 0.63053 0.29393 0.0
C1031 C 0.55628 0.60801 0.27741 0.0
C1032 C 0.53228 0.5861 0.26015 0.0
C1033 C 0.49535 0.58633 0.25978 0.0
C1034 C 0.48303 0.60865 0.27672 0.0
C1035 C 0.50616 0.63036 0.29344 0.0
C1036 C 0.48643 0.65064 0.31147 0.0
C1037 C 0.49814 0.65172 0.34324 0.0
C1038 C 0.49121 0.68034 0.30336 0.0
C1039 C 0.44864 0.63652 0.30291 0.0
C1040 C 0.4471 0.61258 0.28253 0.0
C1041 C 0.41517 0.59531 0.2724 0.0
C1042 C 0.3841 0.60251 0.28374 0.0
C1043 C 0.38542 0.62656 0.30513 0.0
C1044 C 0.41802 0.64395 0.31443 0.0
H1045 H 0.22296 0.45503 0.39026 0.0
H1046 H 0.20651 0.41249 0.30302 0.0
H1047 H 0.19521 0.4578 0.2873 0.0
H1048 H 0.15517 0.50802 0.38089 0.0
H1049 H 0.18332 0.53506 0.406 0.0
H1050 H 0.18189 0.49838 0.41021 0.0
H1051 H 0.25057 0.50189 0.41096 0.0
H1052 H 0.25216 0.53832 0.40679 0.0
H1053 H 0.27074 0.51362 0.38183 0.0
H1054 H 0.20209 0.5089 0.28135 0.0
H1055 H 0.22213 0.56018 0.28594 0.0
H1056 H 0.2269 0.56868 0.37723 0.0
C1057 C 0.21559 0.4552 0.36795 0.0
C1058 C 0.21544 0.43069 0.34775 0.0
C1059 C 0.20626 0.43127 0.3187 0.0
C1060 C 0.19975 0.45683 0.30966 0.0
C1061 C 0.20135 0.48112 0.33013 0.0
C1062 C 0.20807 0.48027 0.35878 0.0
C1063 C 0.21219 0.50954 0.37642 0.0
C1064 C 0.18129 0.51294 0.39444 0.0
C1065 C 0.24856 0.51621 0.39505 0.0
C1066 C 0.20986 0.52725 0.35319 0.0
C1067 C 0.20304 0.51059 0.32659 0.0
C1068 C 0.206 0.52223 0.30201 0.0
C1069 C 0.21744 0.55135 0.30477 0.0
C1070 C 0.22556 0.56836 0.33191 0.0
C1071 C 0.21991 0.55633 0.35618 0.0
loop_
_geom_bond_atom_site_label_1
_geom_bond_atom_site_label_2
_geom_bond_distance
_geom_bond_site_symmetry_2
_ccdc_geom_bond_type
In0 O1 2.294 . S
In0 O2 2.326 . S
In0 O6 2.266 . S
In0 O7 2.326 . S
In0 O8 2.266 . S
In0 O9 2.326 . S
In0 O11 2.294 . S
In0 O12 2.326 . S
O1 In0 2.294 . S
O1 C10 1.240 . S
O2 In0 2.326 . S
O2 C10 1.252 . S
C3 O6 1.252 . S
C3 O7 1.260 . S
C4 O11 1.240 . S
C4 O12 1.252 . S
C5 O8 1.252 . S
C5 O9 1.260 . S
O6 In0 2.266 . S
O6 C3 1.252 . S
O7 In0 2.326 . S
O7 C3 1.260 . S
O8 In0 2.266 . S
O8 C5 1.252 . S
O9 In0 2.326 . S
O9 C5 1.260 . S
C10 O1 1.240 . S
C10 O2 1.252 . S
O11 In0 2.294 . S
O11 C4 1.240 . S
O12 In0 2.326 . S
O12 C4 1.252 . S
In13 O14 2.294 . S
In13 O15 2.326 . S
In13 O19 2.266 . S
In13 O20 2.326 . S
In13 O21 2.266 . S
In13 O22 2.326 . S
In13 O24 2.294 . S
In13 O25 2.326 . S
O14 In13 2.294 . S
O14 C23 1.240 . S
O15 In13 2.326 . S
O15 C23 1.252 . S
C16 O19 1.252 . S
C16 O20 1.260 . S
C17 O24 1.240 . S
C17 O25 1.252 . S
C18 O21 1.252 . S
C18 O22 1.260 . S
O19 In13 2.266 . S
O19 C16 1.252 . S
O20 In13 2.326 . S
O20 C16 1.260 . S
O21 In13 2.266 . S
O21 C18 1.252 . S
O22 In13 2.326 . S
O22 C18 1.260 . S
C23 O14 1.240 . S
C23 O15 1.252 . S
O24 In13 2.294 . S
O24 C17 1.240 . S
O25 In13 2.326 . S
O25 C17 1.252 . S
In26 O27 2.294 . S
In26 O28 2.326 . S
In26 O32 2.266 . S
In26 O33 2.326 . S
In26 O34 2.266 . S
In26 O35 2.326 . S
In26 O37 2.294 . S
In26 O38 2.326 . S
O27 In26 2.294 . S
O27 C36 1.240 . S
O28 In26 2.326 . S
O28 C36 1.252 . S
C29 O32 1.252 . S
C29 O33 1.260 . S
C30 O37 1.240 . S
C30 O38 1.252 . S
C31 O34 1.252 . S
C31 O35 1.260 . S
O32 In26 2.266 . S
O32 C29 1.252 . S
O33 In26 2.326 . S
O33 C29 1.260 . S
O34 In26 2.266 . S
O34 C31 1.252 . S
O35 In26 2.326 . S
O35 C31 1.260 . S
C36 O27 1.240 . S
C36 O28 1.252 . S
O37 In26 2.294 . S
O37 C30 1.240 . S
O38 In26 2.326 . S
O38 C30 1.252 . S
In39 O40 2.294 . S
In39 O41 2.326 . S
In39 O45 2.266 . S
In39 O46 2.326 . S
In39 O47 2.266 . S
In39 O48 2.326 . S
In39 O50 2.294 . S
In39 O51 2.326 . S
O40 In39 2.294 . S
O40 C49 1.240 . S
O41 In39 2.326 . S
O41 C49 1.252 . S
C42 O45 1.252 . S
C42 O46 1.260 . S
C43 O50 1.240 . S
C43 O51 1.252 . S
C44 O47 1.252 . S
C44 O48 1.260 . S
O45 In39 2.266 . S
O45 C42 1.252 . S
O46 In39 2.326 . S
O46 C42 1.260 . S
O47 In39 2.266 . S
O47 C44 1.252 . S
O48 In39 2.326 . S
O48 C44 1.260 . S
C49 O40 1.240 . S
C49 O41 1.252 . S
O50 In39 2.294 . S
O50 C43 1.240 . S
O51 In39 2.326 . S
O51 C43 1.252 . S
In52 O53 2.294 . S
In52 O54 2.326 . S
In52 O58 2.266 . S
In52 O59 2.326 . S
In52 O60 2.266 . S
In52 O61 2.326 . S
In52 O63 2.294 . S
In52 O64 2.326 . S
O53 In52 2.294 . S
O53 C62 1.240 . S
O54 In52 2.326 . S
O54 C62 1.252 . S
C55 O58 1.252 . S
C55 O59 1.260 . S
C56 O63 1.240 . S
C56 O64 1.252 . S
C57 O60 1.252 . S
C57 O61 1.260 . S
O58 In52 2.266 . S
O58 C55 1.252 . S
O59 In52 2.326 . S
O59 C55 1.260 . S
O60 In52 2.266 . S
O60 C57 1.252 . S
O61 In52 2.326 . S
O61 C57 1.260 . S
C62 O53 1.240 . S
C62 O54 1.252 . S
O63 In52 2.294 . S
O63 C56 1.240 . S
O64 In52 2.326 . S
O64 C56 1.252 . S
In65 O66 2.294 . S
In65 O67 2.326 . S
In65 O71 2.266 . S
In65 O72 2.326 . S
In65 O73 2.266 . S
In65 O74 2.326 . S
In65 O76 2.294 . S
In65 O77 2.326 . S
O66 In65 2.294 . S
O66 C75 1.240 . S
O67 In65 2.326 . S
O67 C75 1.252 . S
C68 O71 1.252 . S
C68 O72 1.260 . S
C69 O76 1.240 . S
C69 O77 1.252 . S
C70 O73 1.252 . S
C70 O74 1.260 . S
O71 In65 2.266 . S
O71 C68 1.252 . S
O72 In65 2.326 . S
O72 C68 1.260 . S
O73 In65 2.266 . S
O73 C70 1.252 . S
O74 In65 2.326 . S
O74 C70 1.260 . S
C75 O66 1.240 . S
C75 O67 1.252 . S
O76 In65 2.294 . S
O76 C69 1.240 . S
O77 In65 2.326 . S
O77 C69 1.252 . S
In78 O79 2.294 . S
In78 O80 2.326 . S
In78 O84 2.266 . S
In78 O85 2.326 . S
In78 O86 2.266 . S
In78 O87 2.326 . S
In78 O89 2.294 . S
In78 O90 2.326 . S
O79 In78 2.294 . S
O79 C88 1.240 . S
O80 In78 2.326 . S
O80 C88 1.252 . S
C81 O84 1.252 . S
C81 O85 1.260 . S
C82 O89 1.240 . S
C82 O90 1.252 . S
C83 O86 1.252 . S
C83 O87 1.260 . S
O84 In78 2.266 . S
O84 C81 1.252 . S
O85 In78 2.326 . S
O85 C81 1.260 . S
O86 In78 2.266 . S
O86 C83 1.252 . S
O87 In78 2.326 . S
O87 C83 1.260 . S
C88 O79 1.240 . S
C88 O80 1.252 . S
O89 In78 2.294 . S
O89 C82 1.240 . S
O90 In78 2.326 . S
O90 C82 1.252 . S
In91 O92 2.294 . S
In91 O93 2.326 . S
In91 O97 2.266 . S
In91 O98 2.326 . S
In91 O99 2.266 . S
In91 O100 2.326 . S
In91 O102 2.294 . S
In91 O103 2.326 . S
O92 In91 2.294 . S
O92 C101 1.240 . S
O93 In91 2.326 . S
O93 C101 1.252 . S
C94 O97 1.252 . S
C94 O98 1.260 . S
C95 O102 1.240 . S
C95 O103 1.252 . S
C96 O99 1.252 . S
C96 O100 1.260 . S
O97 In91 2.266 . S
O97 C94 1.252 . S
O98 In91 2.326 . S
O98 C94 1.260 . S
O99 In91 2.266 . S
O99 C96 1.252 . S
O100 In91 2.326 . S
O100 C96 1.260 . S
C101 O92 1.240 . S
C101 O93 1.252 . S
O102 In91 2.294 . S
O102 C95 1.240 . S
O103 In91 2.326 . S
O103 C95 1.252 . S
In104 O105 2.294 . S
In104 O106 2.326 . S
In104 O110 2.266 . S
In104 O111 2.326 . S
In104 O112 2.266 . S
In104 O113 2.326 . S
In104 O115 2.294 . S
In104 O116 2.326 . S
O105 In104 2.294 . S
O105 C114 1.240 . S
O106 In104 2.326 . S
O106 C114 1.252 . S
C107 O110 1.252 . S
C107 O111 1.260 . S
C108 O115 1.240 . S
C108 O116 1.252 . S
C109 O112 1.252 . S
C109 O113 1.260 . S
O110 In104 2.266 . S
O110 C107 1.252 . S
O111 In104 2.326 . S
O111 C107 1.260 . S
O112 In104 2.266 . S
O112 C109 1.252 . S
O113 In104 2.326 . S
O113 C109 1.260 . S
C114 O105 1.240 . S
C114 O106 1.252 . S
O115 In104 2.294 . S
O115 C108 1.240 . S
O116 In104 2.326 . S
O116 C108 1.252 . S
In117 O118 2.294 . S
In117 O119 2.326 . S
In117 O123 2.266 . S
In117 O124 2.326 . S
In117 O125 2.266 . S
In117 O126 2.326 . S
In117 O128 2.294 . S
In117 O129 2.326 . S
O118 In117 2.294 . S
O118 C127 1.240 . S
O119 In117 2.326 . S
O119 C127 1.252 . S
C120 O123 1.252 . S
C120 O124 1.260 . S
C121 O128 1.240 . S
C121 O129 1.252 . S
C122 O125 1.252 . S
C122 O126 1.260 . S
O123 In117 2.266 . S
O123 C120 1.252 . S
O124 In117 2.326 . S
O124 C120 1.260 . S
O125 In117 2.266 . S
O125 C122 1.252 . S
O126 In117 2.326 . S
O126 C122 1.260 . S
C127 O118 1.240 . S
C127 O119 1.252 . S
O128 In117 2.294 . S
O128 C121 1.240 . S
O129 In117 2.326 . S
O129 C121 1.252 . S
In130 O131 2.294 . S
In130 O132 2.326 . S
In130 O136 2.266 . S
In130 O137 2.326 . S
In130 O138 2.266 . S
In130 O139 2.326 . S
In130 O141 2.294 . S
In130 O142 2.326 . S
O131 In130 2.294 . S
O131 C140 1.240 . S
O132 In130 2.326 . S
O132 C140 1.252 . S
C133 O136 1.252 . S
C133 O137 1.260 . S
C134 O141 1.240 . S
C134 O142 1.252 . S
C135 O138 1.252 . S
C135 O139 1.260 . S
O136 In130 2.266 . S
O136 C133 1.252 . S
O137 In130 2.326 . S
O137 C133 1.260 . S
O138 In130 2.266 . S
O138 C135 1.252 . S
O139 In130 2.326 . S
O139 C135 1.260 . S
C140 O131 1.240 . S
C140 O132 1.252 . S
O141 In130 2.294 . S
O141 C134 1.240 . S
O142 In130 2.326 . S
O142 C134 1.252 . S
In143 O144 2.294 . S
In143 O145 2.326 . S
In143 O149 2.266 . S
In143 O150 2.326 . S
In143 O151 2.266 . S
In143 O152 2.326 . S
In143 O154 2.294 . S
In143 O155 2.326 . S
O144 In143 2.294 . S
O144 C153 1.240 . S
O145 In143 2.326 . S
O145 C153 1.252 . S
C146 O149 1.252 . S
C146 O150 1.260 . S
C147 O154 1.240 . S
C147 O155 1.252 . S
C148 O151 1.252 . S
C148 O152 1.260 . S
O149 In143 2.266 . S
O149 C146 1.252 . S
O150 In143 2.326 . S
O150 C146 1.260 . S
O151 In143 2.266 . S
O151 C148 1.252 . S
O152 In143 2.326 . S
O152 C148 1.260 . S
C153 O144 1.240 . S
C153 O145 1.252 . S
O154 In143 2.294 . S
O154 C147 1.240 . S
O155 In143 2.326 . S
O155 C147 1.252 . S
In156 O157 2.294 . S
In156 O158 2.326 . S
In156 O162 2.266 . S
In156 O163 2.326 . S
In156 O164 2.266 . S
In156 O165 2.326 . S
In156 O167 2.294 . S
In156 O168 2.326 . S
O157 In156 2.294 . S
O157 C166 1.240 . S
O158 In156 2.326 . S
O158 C166 1.252 . S
C159 O162 1.252 . S
C159 O163 1.260 . S
C160 O167 1.240 . S
C160 O168 1.252 . S
C161 O164 1.252 . S
C161 O165 1.260 . S
O162 In156 2.266 . S
O162 C159 1.252 . S
O163 In156 2.326 . S
O163 C159 1.260 . S
O164 In156 2.266 . S
O164 C161 1.252 . S
O165 In156 2.326 . S
O165 C161 1.260 . S
C166 O157 1.240 . S
C166 O158 1.252 . S
O167 In156 2.294 . S
O167 C160 1.240 . S
O168 In156 2.326 . S
O168 C160 1.252 . S
In169 O170 2.294 . S
In169 O171 2.326 . S
In169 O175 2.266 . S
In169 O176 2.326 . S
In169 O177 2.266 . S
In169 O178 2.326 . S
In169 O180 2.294 . S
In169 O181 2.326 . S
O170 In169 2.294 . S
O170 C179 1.240 . S
O171 In169 2.326 . S
O171 C179 1.252 . S
C172 O175 1.252 . S
C172 O176 1.260 . S
C173 O180 1.240 . S
C173 O181 1.252 . S
C174 O177 1.252 . S
C174 O178 1.260 . S
O175 In169 2.266 . S
O175 C172 1.252 . S
O176 In169 2.326 . S
O176 C172 1.260 . S
O177 In169 2.266 . S
O177 C174 1.252 . S
O178 In169 2.326 . S
O178 C174 1.260 . S
C179 O170 1.240 . S
C179 O171 1.252 . S
O180 In169 2.294 . S
O180 C173 1.240 . S
O181 In169 2.326 . S
O181 C173 1.252 . S
In182 O183 2.294 . S
In182 O184 2.326 . S
In182 O188 2.266 . S
In182 O189 2.326 . S
In182 O190 2.266 . S
In182 O191 2.326 . S
In182 O193 2.294 . S
In182 O194 2.326 . S
O183 In182 2.294 . S
O183 C192 1.240 . S
O184 In182 2.326 . S
O184 C192 1.252 . S
C185 O188 1.252 . S
C185 O189 1.260 . S
C186 O193 1.240 . S
C186 O194 1.252 . S
C187 O190 1.252 . S
C187 O191 1.260 . S
O188 In182 2.266 . S
O188 C185 1.252 . S
O189 In182 2.326 . S
O189 C185 1.260 . S
O190 In182 2.266 . S
O190 C187 1.252 . S
O191 In182 2.326 . S
O191 C187 1.260 . S
C192 O183 1.240 . S
C192 O184 1.252 . S
O193 In182 2.294 . S
O193 C186 1.240 . S
O194 In182 2.326 . S
O194 C186 1.252 . S
In195 O196 2.294 . S
In195 O197 2.326 . S
In195 O201 2.266 . S
In195 O202 2.326 . S
In195 O203 2.266 . S
In195 O204 2.326 . S
In195 O206 2.294 . S
In195 O207 2.326 . S
O196 In195 2.294 . S
O196 C205 1.240 . S
O197 In195 2.326 . S
O197 C205 1.252 . S
C198 O201 1.252 . S
C198 O202 1.260 . S
C199 O206 1.240 . S
C199 O207 1.252 . S
C200 O203 1.252 . S
C200 O204 1.260 . S
O201 In195 2.266 . S
O201 C198 1.252 . S
O202 In195 2.326 . S
O202 C198 1.260 . S
O203 In195 2.266 . S
O203 C200 1.252 . S
O204 In195 2.326 . S
O204 C200 1.260 . S
C205 O196 1.240 . S
C205 O197 1.252 . S
O206 In195 2.294 . S
O206 C199 1.240 . S
O207 In195 2.326 . S
O207 C199 1.252 . S
H208 C220 0.930 . S
H209 C222 0.930 . S
H210 C223 0.930 . S
H211 C227 0.959 . S
H212 C227 0.959 . S
H213 C227 0.961 . S
H214 C228 0.960 . S
H215 C228 0.961 . S
H216 C228 0.959 . S
H217 C231 0.929 . S
H218 C232 0.931 . S
H219 C234 0.930 . S
C220 H208 0.930 . S
C220 C221 1.399 . S
C220 C225 1.399 . S
C221 C220 1.399 . S
C221 C222 1.376 . S
C222 H209 0.930 . S
C222 C221 1.376 . S
C222 C223 1.388 . S
C223 H210 0.930 . S
C223 C222 1.388 . S
C223 C224 1.390 . S
C224 C223 1.390 . S
C224 C225 1.394 . S
C224 C230 1.465 . S
C225 C220 1.399 . S
C225 C224 1.394 . S
C225 C226 1.516 . S
C226 C225 1.516 . S
C226 C227 1.502 . S
C226 C228 1.561 . S
C226 C229 1.526 . S
C227 H211 0.959 . S
C227 H212 0.959 . S
C227 H213 0.961 . S
C227 C226 1.502 . S
C228 H214 0.960 . S
C228 H215 0.961 . S
C228 H216 0.959 . S
C228 C226 1.561 . S
C229 C226 1.526 . S
C229 C230 1.396 . S
C229 C234 1.390 . S
C230 C224 1.465 . S
C230 C229 1.396 . S
C230 C231 1.399 . S
C231 H217 0.929 . S
C231 C230 1.399 . S
C231 C232 1.385 . S
C232 H218 0.931 . S
C232 C231 1.385 . S
C232 C233 1.389 . S
C233 C232 1.389 . S
C233 C234 1.387 . S
C234 H219 0.930 . S
C234 C229 1.390 . S
C234 C233 1.387 . S
H235 C247 0.930 . S
H236 C249 0.930 . S
H237 C250 0.930 . S
H238 C254 0.959 . S
H239 C254 0.959 . S
H240 C254 0.961 . S
H241 C255 0.960 . S
H242 C255 0.961 . S
H243 C255 0.959 . S
H244 C258 0.929 . S
H245 C259 0.931 . S
H246 C261 0.930 . S
C247 H235 0.930 . S
C247 C248 1.399 . S
C247 C252 1.399 . S
C248 C247 1.399 . S
C248 C249 1.376 . S
C249 H236 0.930 . S
C249 C248 1.376 . S
C249 C250 1.388 . S
C250 H237 0.930 . S
C250 C249 1.388 . S
C250 C251 1.390 . S
C251 C250 1.390 . S
C251 C252 1.394 . S
C251 C257 1.465 . S
C252 C247 1.399 . S
C252 C251 1.394 . S
C252 C253 1.516 . S
C253 C252 1.516 . S
C253 C254 1.502 . S
C253 C255 1.561 . S
C253 C256 1.526 . S
C254 H238 0.959 . S
C254 H239 0.959 . S
C254 H240 0.961 . S
C254 C253 1.502 . S
C255 H241 0.960 . S
C255 H242 0.961 . S
C255 H243 0.959 . S
C255 C253 1.561 . S
C256 C253 1.526 . S
C256 C257 1.396 . S
C256 C261 1.390 . S
C257 C251 1.465 . S
C257 C256 1.396 . S
C257 C258 1.399 . S
C258 H244 0.929 . S
C258 C257 1.399 . S
C258 C259 1.385 . S
C259 H245 0.931 . S
C259 C258 1.385 . S
C259 C260 1.389 . S
C260 C259 1.389 . S
C260 C261 1.387 . S
C261 H246 0.930 . S
C261 C256 1.390 . S
C261 C260 1.387 . S
H262 C274 0.930 . S
H263 C276 0.930 . S
H264 C277 0.930 . S
H265 C281 0.959 . S
H266 C281 0.959 . S
H267 C281 0.961 . S
H268 C282 0.960 . S
H269 C282 0.961 . S
H270 C282 0.959 . S
H271 C285 0.929 . S
H272 C286 0.931 . S
H273 C288 0.930 . S
C274 H262 0.930 . S
C274 C275 1.399 . S
C274 C279 1.399 . S
C275 C274 1.399 . S
C275 C276 1.376 . S
C276 H263 0.930 . S
C276 C275 1.376 . S
C276 C277 1.388 . S
C277 H264 0.930 . S
C277 C276 1.388 . S
C277 C278 1.390 . S
C278 C277 1.390 . S
C278 C279 1.394 . S
C278 C284 1.465 . S
C279 C274 1.399 . S
C279 C278 1.394 . S
C279 C280 1.516 . S
C280 C279 1.516 . S
C280 C281 1.502 . S
C280 C282 1.561 . S
C280 C283 1.526 . S
C281 H265 0.959 . S
C281 H266 0.959 . S
C281 H267 0.961 . S
C281 C280 1.502 . S
C282 H268 0.960 . S
C282 H269 0.961 . S
C282 H270 0.959 . S
C282 C280 1.561 . S
C283 C280 1.526 . S
C283 C284 1.396 . S
C283 C288 1.390 . S
C284 C278 1.465 . S
C284 C283 1.396 . S
C284 C285 1.399 . S
C285 H271 0.929 . S
C285 C284 1.399 . S
C285 C286 1.385 . S
C286 H272 0.931 . S
C286 C285 1.385 . S
C286 C287 1.389 . S
C287 C286 1.389 . S
C287 C288 1.387 . S
C288 H273 0.930 . S
C288 C283 1.390 . S
C288 C287 1.387 . S
H289 C301 0.930 . S
H290 C303 0.930 . S
H291 C304 0.930 . S
H292 C308 0.959 . S
H293 C308 0.959 . S
H294 C308 0.961 . S
H295 C309 0.960 . S
H296 C309 0.961 . S
H297 C309 0.959 . S
H298 C312 0.929 . S
H299 C313 0.931 . S
H300 C315 0.930 . S
C301 H289 0.930 . S
C301 C302 1.399 . S
C301 C306 1.399 . S
C302 C301 1.399 . S
C302 C303 1.376 . S
C303 H290 0.930 . S
C303 C302 1.376 . S
C303 C304 1.388 . S
C304 H291 0.930 . S
C304 C303 1.388 . S
C304 C305 1.390 . S
C305 C304 1.390 . S
C305 C306 1.394 . S
C305 C311 1.465 . S
C306 C301 1.399 . S
C306 C305 1.394 . S
C306 C307 1.516 . S
C307 C306 1.516 . S
C307 C308 1.502 . S
C307 C309 1.561 . S
C307 C310 1.526 . S
C308 H292 0.959 . S
C308 H293 0.959 . S
C308 H294 0.961 . S
C308 C307 1.502 . S
C309 H295 0.960 . S
C309 H296 0.961 . S
C309 H297 0.959 . S
C309 C307 1.561 . S
C310 C307 1.526 . S
C310 C311 1.396 . S
C310 C315 1.390 . S
C311 C305 1.465 . S
C311 C310 1.396 . S
C311 C312 1.399 . S
C312 H298 0.929 . S
C312 C311 1.399 . S
C312 C313 1.385 . S
C313 H299 0.931 . S
C313 C312 1.385 . S
C313 C314 1.389 . S
C314 C313 1.389 . S
C314 C315 1.387 . S
C315 H300 0.930 . S
C315 C310 1.390 . S
C315 C314 1.387 . S
H316 C328 0.930 . S
H317 C330 0.930 . S
H318 C331 0.930 . S
H319 C335 0.959 . S
H320 C335 0.959 . S
H321 C335 0.961 . S
H322 C336 0.960 . S
H323 C336 0.961 . S
H324 C336 0.959 . S
H325 C339 0.929 . S
H326 C340 0.931 . S
H327 C342 0.930 . S
C328 H316 0.930 . S
C328 C329 1.399 . S
C328 C333 1.399 . S
C329 C328 1.399 . S
C329 C330 1.376 . S
C330 H317 0.930 . S
C330 C329 1.376 . S
C330 C331 1.388 . S
C331 H318 0.930 . S
C331 C330 1.388 . S
C331 C332 1.390 . S
C332 C331 1.390 . S
C332 C333 1.394 . S
C332 C338 1.465 . S
C333 C328 1.399 . S
C333 C332 1.394 . S
C333 C334 1.516 . S
C334 C333 1.516 . S
C334 C335 1.502 . S
C334 C336 1.561 . S
C334 C337 1.526 . S
C335 H319 0.959 . S
C335 H320 0.959 . S
C335 H321 0.961 . S
C335 C334 1.502 . S
C336 H322 0.960 . S
C336 H323 0.961 . S
C336 H324 0.959 . S
C336 C334 1.561 . S
C337 C334 1.526 . S
C337 C338 1.396 . S
C337 C342 1.390 . S
C338 C332 1.465 . S
C338 C337 1.396 . S
C338 C339 1.399 . S
C339 H325 0.929 . S
C339 C338 1.399 . S
C339 C340 1.385 . S
C340 H326 0.931 . S
C340 C339 1.385 . S
C340 C341 1.389 . S
C341 C340 1.389 . S
C341 C342 1.387 . S
C342 H327 0.930 . S
C342 C337 1.390 . S
C342 C341 1.387 . S
H343 C355 0.930 . S
H344 C357 0.930 . S
H345 C358 0.930 . S
H346 C362 0.959 . S
H347 C362 0.959 . S
H348 C362 0.961 . S
H349 C363 0.960 . S
H350 C363 0.961 . S
H351 C363 0.959 . S
H352 C366 0.929 . S
H353 C367 0.931 . S
H354 C369 0.930 . S
C355 H343 0.930 . S
C355 C356 1.399 . S
C355 C360 1.399 . S
C356 C355 1.399 . S
C356 C357 1.376 . S
C357 H344 0.930 . S
C357 C356 1.376 . S
C357 C358 1.388 . S
C358 H345 0.930 . S
C358 C357 1.388 . S
C358 C359 1.390 . S
C359 C358 1.390 . S
C359 C360 1.394 . S
C359 C365 1.465 . S
C360 C355 1.399 . S
C360 C359 1.394 . S
C360 C361 1.516 . S
C361 C360 1.516 . S
C361 C362 1.502 . S
C361 C363 1.561 . S
C361 C364 1.526 . S
C362 H346 0.959 . S
C362 H347 0.959 . S
C362 H348 0.961 . S
C362 C361 1.502 . S
C363 H349 0.960 . S
C363 H350 0.961 . S
C363 H351 0.959 . S
C363 C361 1.561 . S
C364 C361 1.526 . S
C364 C365 1.396 . S
C364 C369 1.390 . S
C365 C359 1.465 . S
C365 C364 1.396 . S
C365 C366 1.399 . S
C366 H352 0.929 . S
C366 C365 1.399 . S
C366 C367 1.385 . S
C367 H353 0.931 . S
C367 C366 1.385 . S
C367 C368 1.389 . S
C368 C367 1.389 . S
C368 C369 1.387 . S
C369 H354 0.930 . S
C369 C364 1.390 . S
C369 C368 1.387 . S
H370 C382 0.930 . S
H371 C384 0.930 . S
H372 C385 0.930 . S
H373 C389 0.959 . S
H374 C389 0.959 . S
H375 C389 0.961 . S
H376 C390 0.960 . S
H377 C390 0.961 . S
H378 C390 0.959 . S
H379 C393 0.929 . S
H380 C394 0.931 . S
H381 C396 0.930 . S
C382 H370 0.930 . S
C382 C383 1.399 . S
C382 C387 1.399 . S
C383 C382 1.399 . S
C383 C384 1.376 . S
C384 H371 0.930 . S
C384 C383 1.376 . S
C384 C385 1.388 . S
C385 H372 0.930 . S
C385 C384 1.388 . S
C385 C386 1.390 . S
C386 C385 1.390 . S
C386 C387 1.394 . S
C386 C392 1.465 . S
C387 C382 1.399 . S
C387 C386 1.394 . S
C387 C388 1.516 . S
C388 C387 1.516 . S
C388 C389 1.502 . S
C388 C390 1.561 . S
C388 C391 1.526 . S
C389 H373 0.959 . S
C389 H374 0.959 . S
C389 H375 0.961 . S
C389 C388 1.502 . S
C390 H376 0.960 . S
C390 H377 0.961 . S
C390 H378 0.959 . S
C390 C388 1.561 . S
C391 C388 1.526 . S
C391 C392 1.396 . S
C391 C396 1.390 . S
C392 C386 1.465 . S
C392 C391 1.396 . S
C392 C393 1.399 . S
C393 H379 0.929 . S
C393 C392 1.399 . S
C393 C394 1.385 . S
C394 H380 0.931 . S
C394 C393 1.385 . S
C394 C395 1.389 . S
C395 C394 1.389 . S
C395 C396 1.387 . S
C396 H381 0.930 . S
C396 C391 1.390 . S
C396 C395 1.387 . S
H397 C409 0.930 . S
H398 C411 0.930 . S
H399 C412 0.930 . S
H400 C416 0.959 . S
H401 C416 0.959 . S
H402 C416 0.961 . S
H403 C417 0.960 . S
H404 C417 0.961 . S
H405 C417 0.959 . S
H406 C420 0.929 . S
H407 C421 0.931 . S
H408 C423 0.930 . S
C409 H397 0.930 . S
C409 C410 1.399 . S
C409 C414 1.399 . S
C410 C409 1.399 . S
C410 C411 1.376 . S
C411 H398 0.930 . S
C411 C410 1.376 . S
C411 C412 1.388 . S
C412 H399 0.930 . S
C412 C411 1.388 . S
C412 C413 1.390 . S
C413 C412 1.390 . S
C413 C414 1.394 . S
C413 C419 1.465 . S
C414 C409 1.399 . S
C414 C413 1.394 . S
C414 C415 1.516 . S
C415 C414 1.516 . S
C415 C416 1.502 . S
C415 C417 1.561 . S
C415 C418 1.526 . S
C416 H400 0.959 . S
C416 H401 0.959 . S
C416 H402 0.961 . S
C416 C415 1.502 . S
C417 H403 0.960 . S
C417 H404 0.961 . S
C417 H405 0.959 . S
C417 C415 1.561 . S
C418 C415 1.526 . S
C418 C419 1.396 . S
C418 C423 1.390 . S
C419 C413 1.465 . S
C419 C418 1.396 . S
C419 C420 1.399 . S
C420 H406 0.929 . S
C420 C419 1.399 . S
C420 C421 1.385 . S
C421 H407 0.931 . S
C421 C420 1.385 . S
C421 C422 1.389 . S
C422 C421 1.389 . S
C422 C423 1.387 . S
C423 H408 0.930 . S
C423 C418 1.390 . S
C423 C422 1.387 . S
H424 C436 0.930 . S
H425 C438 0.930 . S
H426 C439 0.930 . S
H427 C443 0.959 . S
H428 C443 0.959 . S
H429 C443 0.961 . S
H430 C444 0.960 . S
H431 C444 0.961 . S
H432 C444 0.959 . S
H433 C447 0.929 . S
H434 C448 0.931 . S
H435 C450 0.930 . S
C436 H424 0.930 . S
C436 C437 1.399 . S
C436 C441 1.399 . S
C437 C436 1.399 . S
C437 C438 1.376 . S
C438 H425 0.930 . S
C438 C437 1.376 . S
C438 C439 1.388 . S
C439 H426 0.930 . S
C439 C438 1.388 . S
C439 C440 1.390 . S
C440 C439 1.390 . S
C440 C441 1.394 . S
C440 C446 1.465 . S
C441 C436 1.399 . S
C441 C440 1.394 . S
C441 C442 1.516 . S
C442 C441 1.516 . S
C442 C443 1.502 . S
C442 C444 1.561 . S
C442 C445 1.526 . S
C443 H427 0.959 . S
C443 H428 0.959 . S
C443 H429 0.961 . S
C443 C442 1.502 . S
C444 H430 0.960 . S
C444 H431 0.961 . S
C444 H432 0.959 . S
C444 C442 1.561 . S
C445 C442 1.526 . S
C445 C446 1.396 . S
C445 C450 1.390 1_556 S
C446 C440 1.465 . S
C446 C445 1.396 . S
C446 C447 1.399 1_556 S
C447 H433 0.929 . S
C447 C446 1.399 1_554 S
C447 C448 1.385 . S
C448 H434 0.931 . S
C448 C447 1.385 . S
C448 C449 1.389 . S
C449 C448 1.389 . S
C449 C450 1.387 . S
C450 H435 0.930 . S
C450 C445 1.390 1_554 S
C450 C449 1.387 . S
H451 C463 0.930 . S
H452 C465 0.930 . S
H453 C466 0.930 . S
H454 C470 0.959 . S
H455 C470 0.959 . S
H456 C470 0.961 . S
H457 C471 0.960 . S
H458 C471 0.961 . S
H459 C471 0.959 . S
H460 C474 0.929 . S
H461 C475 0.931 . S
H462 C477 0.930 . S
C463 H451 0.930 . S
C463 C464 1.399 . S
C463 C468 1.399 1_556 S
C464 C463 1.399 . S
C464 C465 1.376 . S
C465 H452 0.930 . S
C465 C464 1.376 . S
C465 C466 1.388 . S
C466 H453 0.930 . S
C466 C465 1.388 . S
C466 C467 1.390 1_556 S
C467 C466 1.390 1_554 S
C467 C468 1.394 . S
C467 C473 1.465 . S
C468 C463 1.399 1_554 S
C468 C467 1.394 . S
C468 C469 1.516 . S
C469 C468 1.516 . S
C469 C470 1.502 . S
C469 C471 1.561 . S
C469 C472 1.526 . S
C470 H454 0.959 . S
C470 H455 0.959 . S
C470 H456 0.961 . S
C470 C469 1.502 . S
C471 H457 0.960 . S
C471 H458 0.961 . S
C471 H459 0.959 . S
C471 C469 1.561 . S
C472 C469 1.526 . S
C472 C473 1.396 . S
C472 C477 1.390 . S
C473 C467 1.465 . S
C473 C472 1.396 . S
C473 C474 1.399 . S
C474 H460 0.929 . S
C474 C473 1.399 . S
C474 C475 1.385 . S
C475 H461 0.931 . S
C475 C474 1.385 . S
C475 C476 1.389 . S
C476 C475 1.389 . S
C476 C477 1.387 . S
C477 H462 0.930 . S
C477 C472 1.390 . S
C477 C476 1.387 . S
H478 C490 0.930 . S
H479 C492 0.930 . S
H480 C493 0.930 . S
H481 C497 0.959 . S
H482 C497 0.959 . S
H483 C497 0.961 . S
H484 C498 0.960 . S
H485 C498 0.961 . S
H486 C498 0.959 . S
H487 C501 0.929 . S
H488 C502 0.931 . S
H489 C504 0.930 . S
C490 H478 0.930 . S
C490 C491 1.399 . S
C490 C495 1.399 1_556 S
C491 C490 1.399 . S
C491 C492 1.376 . S
C492 H479 0.930 . S
C492 C491 1.376 . S
C492 C493 1.388 . S
C493 H480 0.930 . S
C493 C492 1.388 . S
C493 C494 1.390 1_556 S
C494 C493 1.390 1_554 S
C494 C495 1.394 . S
C494 C500 1.465 . S
C495 C490 1.399 1_554 S
C495 C494 1.394 . S
C495 C496 1.516 . S
C496 C495 1.516 . S
C496 C497 1.502 . S
C496 C498 1.561 . S
C496 C499 1.526 . S
C497 H481 0.959 . S
C497 H482 0.959 . S
C497 H483 0.961 . S
C497 C496 1.502 . S
C498 H484 0.960 . S
C498 H485 0.961 . S
C498 H486 0.959 . S
C498 C496 1.561 . S
C499 C496 1.526 . S
C499 C500 1.396 . S
C499 C504 1.390 . S
C500 C494 1.465 . S
C500 C499 1.396 . S
C500 C501 1.399 . S
C501 H487 0.929 . S
C501 C500 1.399 . S
C501 C502 1.385 . S
C502 H488 0.931 . S
C502 C501 1.385 . S
C502 C503 1.389 . S
C503 C502 1.389 . S
C503 C504 1.387 . S
C504 H489 0.930 . S
C504 C499 1.390 . S
C504 C503 1.387 . S
H505 C517 0.930 . S
H506 C519 0.930 . S
H507 C520 0.930 . S
H508 C524 0.959 . S
H509 C524 0.959 . S
H510 C524 0.961 1_554 S
H511 C525 0.960 1_554 S
H512 C525 0.961 . S
H513 C525 0.959 . S
H514 C528 0.929 . S
H515 C529 0.931 . S
H516 C531 0.930 . S
C517 H505 0.930 . S
C517 C518 1.399 . S
C517 C522 1.399 . S
C518 C517 1.399 . S
C518 C519 1.376 . S
C519 H506 0.930 . S
C519 C518 1.376 . S
C519 C520 1.388 . S
C520 H507 0.930 . S
C520 C519 1.388 . S
C520 C521 1.390 1_554 S
C521 C520 1.390 1_556 S
C521 C522 1.394 1_556 S
C521 C527 1.465 . S
C522 C517 1.399 . S
C522 C521 1.394 1_554 S
C522 C523 1.516 1_554 S
C523 C522 1.516 1_556 S
C523 C524 1.502 . S
C523 C525 1.561 . S
C523 C526 1.526 . S
C524 H508 0.959 . S
C524 H509 0.959 . S
C524 H510 0.961 1_556 S
C524 C523 1.502 . S
C525 H511 0.960 1_556 S
C525 H512 0.961 . S
C525 H513 0.959 . S
C525 C523 1.561 . S
C526 C523 1.526 . S
C526 C527 1.396 . S
C526 C531 1.390 . S
C527 C521 1.465 . S
C527 C526 1.396 . S
C527 C528 1.399 . S
C528 H514 0.929 . S
C528 C527 1.399 . S
C528 C529 1.385 . S
C529 H515 0.931 . S
C529 C528 1.385 . S
C529 C530 1.389 . S
C530 C529 1.389 . S
C530 C531 1.387 . S
C531 H516 0.930 . S
C531 C526 1.390 . S
C531 C530 1.387 . S
H532 C544 0.930 . S
H533 C546 0.930 . S
H534 C547 0.930 . S
H535 C551 0.959 . S
H536 C551 0.959 . S
H537 C551 0.961 . S
H538 C552 0.960 . S
H539 C552 0.961 . S
H540 C552 0.959 . S
H541 C555 0.929 . S
H542 C556 0.931 . S
H543 C558 0.930 . S
C544 H532 0.930 . S
C544 C545 1.399 . S
C544 C549 1.399 . S
C545 C544 1.399 . S
C545 C546 1.376 . S
C546 H533 0.930 . S
C546 C545 1.376 . S
C546 C547 1.388 . S
C547 H534 0.930 . S
C547 C546 1.388 . S
C547 C548 1.390 . S
C548 C547 1.390 . S
C548 C549 1.394 . S
C548 C554 1.465 . S
C549 C544 1.399 . S
C549 C548 1.394 . S
C549 C550 1.516 . S
C550 C549 1.516 . S
C550 C551 1.502 . S
C550 C552 1.561 . S
C550 C553 1.526 . S
C551 H535 0.959 . S
C551 H536 0.959 . S
C551 H537 0.961 . S
C551 C550 1.502 . S
C552 H538 0.960 . S
C552 H539 0.961 . S
C552 H540 0.959 . S
C552 C550 1.561 . S
C553 C550 1.526 . S
C553 C554 1.396 . S
C553 C558 1.390 1_455 S
C554 C548 1.465 . S
C554 C553 1.396 . S
C554 C555 1.399 . S
C555 H541 0.929 . S
C555 C554 1.399 . S
C555 C556 1.385 1_455 S
C556 H542 0.931 . S
C556 C555 1.385 1_655 S
C556 C557 1.389 . S
C557 C556 1.389 . S
C557 C558 1.387 . S
C558 H543 0.930 . S
C558 C553 1.390 1_655 S
C558 C557 1.387 . S
H559 C571 0.930 . S
H560 C573 0.930 . S
H561 C574 0.930 . S
H562 C578 0.959 . S
H563 C578 0.959 . S
H564 C578 0.961 1_565 S
H565 C579 0.960 1_565 S
H566 C579 0.961 . S
H567 C579 0.959 . S
H568 C582 0.929 . S
H569 C583 0.931 . S
H570 C585 0.930 . S
C571 H559 0.930 . S
C571 C572 1.399 . S
C571 C576 1.399 . S
C572 C571 1.399 . S
C572 C573 1.376 . S
C573 H560 0.930 . S
C573 C572 1.376 . S
C573 C574 1.388 . S
C574 H561 0.930 . S
C574 C573 1.388 . S
C574 C575 1.390 1_565 S
C575 C574 1.390 1_545 S
C575 C576 1.394 1_545 S
C575 C581 1.465 . S
C576 C571 1.399 . S
C576 C575 1.394 1_565 S
C576 C577 1.516 1_565 S
C577 C576 1.516 1_545 S
C577 C578 1.502 . S
C577 C579 1.561 . S
C577 C580 1.526 . S
C578 H562 0.959 . S
C578 H563 0.959 . S
C578 H564 0.961 1_545 S
C578 C577 1.502 . S
C579 H565 0.960 1_545 S
C579 H566 0.961 . S
C579 H567 0.959 . S
C579 C577 1.561 . S
C580 C577 1.526 . S
C580 C581 1.396 . S
C580 C585 1.390 . S
C581 C575 1.465 . S
C581 C580 1.396 . S
C581 C582 1.399 . S
C582 H568 0.929 . S
C582 C581 1.399 . S
C582 C583 1.385 . S
C583 H569 0.931 . S
C583 C582 1.385 . S
C583 C584 1.389 . S
C584 C583 1.389 . S
C584 C585 1.387 . S
C585 H570 0.930 . S
C585 C580 1.390 . S
C585 C584 1.387 . S
H586 C598 0.930 . S
H587 C600 0.930 . S
H588 C601 0.930 . S
H589 C605 0.959 . S
H590 C605 0.959 . S
H591 C605 0.961 . S
H592 C606 0.960 . S
H593 C606 0.961 . S
H594 C606 0.959 . S
H595 C609 0.929 . S
H596 C610 0.931 . S
H597 C612 0.930 . S
C598 H586 0.930 . S
C598 C599 1.399 . S
C598 C603 1.399 . S
C599 C598 1.399 . S
C599 C600 1.376 . S
C600 H587 0.930 . S
C600 C599 1.376 . S
C600 C601 1.388 . S
C601 H588 0.930 . S
C601 C600 1.388 . S
C601 C602 1.390 . S
C602 C601 1.390 . S
C602 C603 1.394 . S
C602 C608 1.465 1_655 S
C603 C598 1.399 . S
C603 C602 1.394 . S
C603 C604 1.516 1_655 S
C604 C603 1.516 1_455 S
C604 C605 1.502 . S
C604 C606 1.561 . S
C604 C607 1.526 . S
C605 H589 0.959 . S
C605 H590 0.959 . S
C605 H591 0.961 . S
C605 C604 1.502 . S
C606 H592 0.960 . S
C606 H593 0.961 . S
C606 H594 0.959 . S
C606 C604 1.561 . S
C607 C604 1.526 . S
C607 C608 1.396 . S
C607 C612 1.390 . S
C608 C602 1.465 1_455 S
C608 C607 1.396 . S
C608 C609 1.399 . S
C609 H595 0.929 . S
C609 C608 1.399 . S
C609 C610 1.385 . S
C610 H596 0.931 . S
C610 C609 1.385 . S
C610 C611 1.389 . S
C611 C610 1.389 . S
C611 C612 1.387 . S
C612 H597 0.930 . S
C612 C607 1.390 . S
C612 C611 1.387 . S
H613 C625 0.930 . S
H614 C627 0.930 . S
H615 C628 0.930 1_565 S
H616 C632 0.959 . S
H617 C632 0.959 . S
H618 C632 0.961 1_545 S
H619 C633 0.960 1_545 S
H620 C633 0.961 . S
H621 C633 0.959 . S
H622 C636 0.929 . S
H623 C637 0.931 . S
H624 C639 0.930 . S
C625 H613 0.930 . S
C625 C626 1.399 . S
C625 C630 1.399 . S
C626 C625 1.399 . S
C626 C627 1.376 . S
C627 H614 0.930 . S
C627 C626 1.376 . S
C627 C628 1.388 . S
C628 H615 0.930 1_545 S
C628 C627 1.388 . S
C628 C629 1.390 1_545 S
C629 C628 1.390 1_565 S
C629 C630 1.394 1_565 S
C629 C635 1.465 . S
C630 C625 1.399 . S
C630 C629 1.394 1_545 S
C630 C631 1.516 1_545 S
C631 C630 1.516 1_565 S
C631 C632 1.502 . S
C631 C633 1.561 . S
C631 C634 1.526 . S
C632 H616 0.959 . S
C632 H617 0.959 . S
C632 H618 0.961 1_565 S
C632 C631 1.502 . S
C633 H619 0.960 1_565 S
C633 H620 0.961 . S
C633 H621 0.959 . S
C633 C631 1.561 . S
C634 C631 1.526 . S
C634 C635 1.396 . S
C634 C639 1.390 . S
C635 C629 1.465 . S
C635 C634 1.396 . S
C635 C636 1.399 . S
C636 H622 0.929 . S
C636 C635 1.399 . S
C636 C637 1.385 . S
C637 H623 0.931 . S
C637 C636 1.385 . S
C637 C638 1.389 . S
C638 C637 1.389 . S
C638 C639 1.387 . S
C639 H624 0.930 . S
C639 C634 1.390 . S
C639 C638 1.387 . S
H640 C652 0.930 . S
H641 C654 0.930 . S
H642 C655 0.930 . S
H643 C659 0.959 . S
H644 C659 0.959 . S
H645 C659 0.961 . S
H646 C660 0.960 . S
H647 C660 0.961 . S
H648 C660 0.959 . S
H649 C663 0.929 . S
H650 C664 0.931 . S
H651 C666 0.930 . S
C652 H640 0.930 . S
C652 C653 1.399 . S
C652 C657 1.399 . S
C653 C652 1.399 . S
C653 C654 1.376 . S
C654 H641 0.930 . S
C654 C653 1.376 . S
C654 C655 1.388 . S
C655 H642 0.930 . S
C655 C654 1.388 . S
C655 C656 1.390 . S
C656 C655 1.390 . S
C656 C657 1.394 . S
C656 C662 1.465 . S
C657 C652 1.399 . S
C657 C656 1.394 . S
C657 C658 1.516 . S
C658 C657 1.516 . S
C658 C659 1.502 . S
C658 C660 1.561 . S
C658 C661 1.526 . S
C659 H643 0.959 . S
C659 H644 0.959 . S
C659 H645 0.961 . S
C659 C658 1.502 . S
C660 H646 0.960 . S
C660 H647 0.961 . S
C660 H648 0.959 . S
C660 C658 1.561 . S
C661 C658 1.526 . S
C661 C662 1.396 . S
C661 C666 1.388 1_655 S
C662 C656 1.465 . S
C662 C661 1.396 . S
C662 C663 1.399 . S
C663 H649 0.929 . S
C663 C662 1.399 . S
C663 C664 1.385 1_655 S
C664 H650 0.931 . S
C664 C663 1.385 1_455 S
C664 C665 1.389 . S
C665 C664 1.389 . S
C665 C666 1.388 . S
C666 H651 0.930 . S
C666 C661 1.388 1_455 S
C666 C665 1.388 . S
H667 C679 0.930 . S
H668 C681 0.930 . S
H669 C682 0.930 . S
H670 C686 0.959 . S
H671 C686 0.959 . S
H672 C686 0.961 . S
H673 C687 0.960 . S
H674 C687 0.961 . S
H675 C687 0.959 . S
H676 C690 0.929 . S
H677 C691 0.931 . S
H678 C693 0.930 . S
C679 H667 0.930 . S
C679 C680 1.399 . S
C679 C684 1.399 . S
C680 C679 1.399 . S
C680 C681 1.376 . S
C681 H668 0.930 . S
C681 C680 1.376 . S
C681 C682 1.388 . S
C682 H669 0.930 . S
C682 C681 1.388 . S
C682 C683 1.390 . S
C683 C682 1.390 . S
C683 C684 1.394 . S
C683 C689 1.465 . S
C684 C679 1.399 . S
C684 C683 1.394 . S
C684 C685 1.516 . S
C685 C684 1.516 . S
C685 C686 1.502 . S
C685 C687 1.561 . S
C685 C688 1.526 . S
C686 H670 0.959 . S
C686 H671 0.959 . S
C686 H672 0.961 . S
C686 C685 1.502 . S
C687 H673 0.960 . S
C687 H674 0.961 . S
C687 H675 0.959 . S
C687 C685 1.561 . S
C688 C685 1.526 . S
C688 C689 1.396 . S
C688 C693 1.390 1_565 S
C689 C683 1.465 . S
C689 C688 1.396 . S
C689 C690 1.399 1_565 S
C690 H676 0.929 . S
C690 C689 1.399 1_545 S
C690 C691 1.385 . S
C691 H677 0.931 . S
C691 C690 1.385 . S
C691 C692 1.389 . S
C692 C691 1.389 . S
C692 C693 1.387 . S
C693 H678 0.930 . S
C693 C688 1.390 1_545 S
C693 C692 1.387 . S
H694 C706 0.930 . S
H695 C708 0.930 . S
H696 C709 0.930 . S
H697 C713 0.959 . S
H698 C713 0.959 . S
H699 C713 0.952 1_455 S
H700 C714 0.960 . S
H701 C714 0.961 . S
H702 C714 0.959 . S
H703 C717 0.929 . S
H704 C718 0.931 . S
H705 C720 0.930 . S
C706 H694 0.930 . S
C706 C707 1.399 . S
C706 C711 1.399 . S
C707 C706 1.399 . S
C707 C708 1.376 . S
C708 H695 0.930 . S
C708 C707 1.376 . S
C708 C709 1.388 . S
C709 H696 0.930 . S
C709 C708 1.388 . S
C709 C710 1.390 . S
C710 C709 1.390 . S
C710 C711 1.394 . S
C710 C716 1.465 1_455 S
C711 C706 1.399 . S
C711 C710 1.394 . S
C711 C712 1.516 1_455 S
C712 C711 1.516 1_655 S
C712 C713 1.502 . S
C712 C714 1.561 . S
C712 C715 1.526 . S
C713 H697 0.959 . S
C713 H698 0.959 . S
C713 H699 0.952 1_655 S
C713 C712 1.502 . S
C714 H700 0.960 . S
C714 H701 0.961 . S
C714 H702 0.959 . S
C714 C712 1.561 . S
C715 C712 1.526 . S
C715 C716 1.396 . S
C715 C720 1.390 . S
C716 C710 1.465 1_655 S
C716 C715 1.396 . S
C716 C717 1.399 . S
C717 H703 0.929 . S
C717 C716 1.399 . S
C717 C718 1.385 . S
C718 H704 0.931 . S
C718 C717 1.385 . S
C718 C719 1.389 . S
C719 C718 1.389 . S
C719 C720 1.387 . S
C720 H705 0.930 . S
C720 C715 1.390 . S
C720 C719 1.387 . S
H721 C733 0.930 . S
H722 C735 0.930 . S
H723 C736 0.945 . S
H724 C740 0.959 . S
H725 C740 0.959 . S
H726 C740 0.957 1_565 S
H727 C741 0.960 . S
H728 C741 0.961 . S
H729 C741 0.959 . S
H730 C744 0.929 . S
H731 C745 0.931 . S
H732 C747 0.930 . S
C733 H721 0.930 . S
C733 C734 1.399 . S
C733 C738 1.399 1_565 S
C734 C733 1.399 . S
C734 C735 1.376 . S
C735 H722 0.930 . S
C735 C734 1.376 . S
C735 C736 1.349 1_565 S
C736 H723 0.945 . S
C736 C735 1.349 1_545 S
C736 C737 1.415 . S
C737 C736 1.415 . S
C737 C738 1.394 . S
C737 C743 1.465 . S
C738 C733 1.399 1_545 S
C738 C737 1.394 . S
C738 C739 1.516 . S
C739 C738 1.516 . S
C739 C740 1.502 . S
C739 C741 1.561 . S
C739 C742 1.526 . S
C740 H724 0.959 . S
C740 H725 0.959 . S
C740 H726 0.957 1_545 S
C740 C739 1.502 . S
C741 H727 0.960 . S
C741 H728 0.961 . S
C741 H729 0.959 . S
C741 C739 1.561 . S
C742 C739 1.526 . S
C742 C743 1.396 . S
C742 C747 1.390 . S
C743 C737 1.465 . S
C743 C742 1.396 . S
C743 C744 1.399 . S
C744 H730 0.929 . S
C744 C743 1.399 . S
C744 C745 1.385 . S
C745 H731 0.931 . S
C745 C744 1.385 . S
C745 C746 1.389 . S
C746 C745 1.389 . S
C746 C747 1.387 . S
C747 H732 0.930 . S
C747 C742 1.390 . S
C747 C746 1.387 . S
H748 C760 0.930 . S
H749 C762 0.930 . S
H750 C763 0.930 . S
H751 C767 0.959 . S
H752 C767 0.959 . S
H753 C767 0.961 . S
H754 C768 0.960 . S
H755 C768 0.961 . S
H756 C768 0.959 . S
H757 C771 0.929 . S
H758 C772 0.931 . S
H759 C774 0.930 . S
C760 H748 0.930 . S
C760 C761 1.399 . S
C760 C765 1.399 . S
C761 C760 1.399 . S
C761 C762 1.376 . S
C762 H749 0.930 . S
C762 C761 1.376 . S
C762 C763 1.388 . S
C763 H750 0.930 . S
C763 C762 1.388 . S
C763 C764 1.390 . S
C764 C763 1.390 . S
C764 C765 1.394 . S
C764 C770 1.465 . S
C765 C760 1.399 . S
C765 C764 1.394 . S
C765 C766 1.516 . S
C766 C765 1.516 . S
C766 C767 1.502 . S
C766 C768 1.561 . S
C766 C769 1.526 . S
C767 H751 0.959 . S
C767 H752 0.959 . S
C767 H753 0.961 . S
C767 C766 1.502 . S
C768 H754 0.960 . S
C768 H755 0.961 . S
C768 H756 0.959 . S
C768 C766 1.561 . S
C769 C766 1.526 . S
C769 C770 1.396 . S
C769 C774 1.390 . S
C770 C764 1.465 . S
C770 C769 1.396 . S
C770 C771 1.399 . S
C771 H757 0.929 . S
C771 C770 1.399 . S
C771 C772 1.385 . S
C772 H758 0.931 . S
C772 C771 1.385 . S
C772 C773 1.389 . S
C773 C772 1.389 . S
C773 C774 1.387 . S
C774 H759 0.930 . S
C774 C769 1.390 . S
C774 C773 1.387 . S
H775 C787 0.930 . S
H776 C789 0.930 . S
H777 C790 0.930 . S
H778 C794 0.959 . S
H779 C794 0.959 . S
H780 C794 0.961 . S
H781 C795 0.960 . S
H782 C795 0.961 . S
H783 C795 0.959 . S
H784 C798 0.929 . S
H785 C799 0.931 . S
H786 C801 0.930 . S
C787 H775 0.930 . S
C787 C788 1.399 . S
C787 C792 1.399 . S
C788 C787 1.399 . S
C788 C789 1.376 . S
C789 H776 0.930 . S
C789 C788 1.376 . S
C789 C790 1.388 . S
C790 H777 0.930 . S
C790 C789 1.388 . S
C790 C791 1.390 . S
C791 C790 1.390 . S
C791 C792 1.394 . S
C791 C797 1.465 . S
C792 C787 1.399 . S
C792 C791 1.394 . S
C792 C793 1.516 . S
C793 C792 1.516 . S
C793 C794 1.502 . S
C793 C795 1.561 . S
C793 C796 1.526 . S
C794 H778 0.959 . S
C794 H779 0.959 . S
C794 H780 0.961 . S
C794 C793 1.502 . S
C795 H781 0.960 . S
C795 H782 0.961 . S
C795 H783 0.959 . S
C795 C793 1.561 . S
C796 C793 1.526 . S
C796 C797 1.396 . S
C796 C801 1.390 . S
C797 C791 1.465 . S
C797 C796 1.396 . S
C797 C798 1.399 . S
C798 H784 0.929 . S
C798 C797 1.399 . S
C798 C799 1.385 . S
C799 H785 0.931 . S
C799 C798 1.385 . S
C799 C800 1.389 . S
C800 C799 1.389 . S
C800 C801 1.387 . S
C801 H786 0.930 . S
C801 C796 1.390 . S
C801 C800 1.387 . S
H802 C814 0.930 . S
H803 C816 0.930 . S
H804 C817 0.930 . S
H805 C821 0.959 . S
H806 C821 0.959 . S
H807 C821 0.961 . S
H808 C822 0.960 . S
H809 C822 0.961 . S
H810 C822 0.959 . S
H811 C825 0.929 . S
H812 C826 0.931 . S
H813 C828 0.930 . S
C814 H802 0.930 . S
C814 C815 1.399 . S
C814 C819 1.399 . S
C815 C814 1.399 . S
C815 C816 1.376 . S
C816 H803 0.930 . S
C816 C815 1.376 . S
C816 C817 1.388 . S
C817 H804 0.930 . S
C817 C816 1.388 . S
C817 C818 1.390 . S
C818 C817 1.390 . S
C818 C819 1.394 . S
C818 C824 1.465 . S
C819 C814 1.399 . S
C819 C818 1.394 . S
C819 C820 1.516 . S
C820 C819 1.516 . S
C820 C821 1.502 . S
C820 C822 1.561 . S
C820 C823 1.526 . S
C821 H805 0.959 . S
C821 H806 0.959 . S
C821 H807 0.961 . S
C821 C820 1.502 . S
C822 H808 0.960 . S
C822 H809 0.961 . S
C822 H810 0.959 . S
C822 C820 1.561 . S
C823 C820 1.526 . S
C823 C824 1.396 . S
C823 C828 1.390 . S
C824 C818 1.465 . S
C824 C823 1.396 . S
C824 C825 1.399 . S
C825 H811 0.929 . S
C825 C824 1.399 . S
C825 C826 1.385 . S
C826 H812 0.931 . S
C826 C825 1.385 . S
C826 C827 1.389 . S
C827 C826 1.389 . S
C827 C828 1.387 . S
C828 H813 0.930 . S
C828 C823 1.390 . S
C828 C827 1.387 . S
H829 C841 0.930 . S
H830 C843 0.930 . S
H831 C844 0.930 . S
H832 C848 0.959 . S
H833 C848 0.959 . S
H834 C848 0.961 . S
H835 C849 0.960 . S
H836 C849 0.961 . S
H837 C849 0.959 . S
H838 C852 0.929 . S
H839 C853 0.931 . S
H840 C855 0.930 . S
C841 H829 0.930 . S
C841 C842 1.399 . S
C841 C846 1.399 . S
C842 C841 1.399 . S
C842 C843 1.376 . S
C843 H830 0.930 . S
C843 C842 1.376 . S
C843 C844 1.388 . S
C844 H831 0.930 . S
C844 C843 1.388 . S
C844 C845 1.390 . S
C845 C844 1.390 . S
C845 C846 1.394 . S
C845 C851 1.465 . S
C846 C841 1.399 . S
C846 C845 1.394 . S
C846 C847 1.516 . S
C847 C846 1.516 . S
C847 C848 1.502 . S
C847 C849 1.561 . S
C847 C850 1.526 . S
C848 H832 0.959 . S
C848 H833 0.959 . S
C848 H834 0.961 . S
C848 C847 1.502 . S
C849 H835 0.960 . S
C849 H836 0.961 . S
C849 H837 0.959 . S
C849 C847 1.561 . S
C850 C847 1.526 . S
C850 C851 1.396 . S
C850 C855 1.390 . S
C851 C845 1.465 . S
C851 C850 1.396 . S
C851 C852 1.399 . S
C852 H838 0.929 . S
C852 C851 1.399 . S
C852 C853 1.385 . S
C853 H839 0.931 . S
C853 C852 1.385 . S
C853 C854 1.389 . S
C854 C853 1.389 . S
C854 C855 1.387 . S
C855 H840 0.930 . S
C855 C850 1.390 . S
C855 C854 1.387 . S
H856 C868 0.930 . S
H857 C870 0.930 . S
H858 C871 0.930 . S
H859 C875 0.959 . S
H860 C875 0.959 . S
H861 C875 0.961 . S
H862 C876 0.960 . S
H863 C876 0.961 . S
H864 C876 0.959 . S
H865 C879 0.929 . S
H866 C880 0.931 . S
H867 C882 0.930 . S
C868 H856 0.930 . S
C868 C869 1.399 . S
C868 C873 1.399 . S
C869 C868 1.399 . S
C869 C870 1.376 . S
C870 H857 0.930 . S
C870 C869 1.376 . S
C870 C871 1.388 . S
C871 H858 0.930 . S
C871 C870 1.388 . S
C871 C872 1.390 . S
C872 C871 1.390 . S
C872 C873 1.394 . S
C872 C878 1.465 . S
C873 C868 1.399 . S
C873 C872 1.394 . S
C873 C874 1.516 . S
C874 C873 1.516 . S
C874 C875 1.502 . S
C874 C876 1.561 . S
C874 C877 1.526 . S
C875 H859 0.959 . S
C875 H860 0.959 . S
C875 H861 0.961 . S
C875 C874 1.502 . S
C876 H862 0.960 . S
C876 H863 0.961 . S
C876 H864 0.959 . S
C876 C874 1.561 . S
C877 C874 1.526 . S
C877 C878 1.396 . S
C877 C882 1.390 . S
C878 C872 1.465 . S
C878 C877 1.396 . S
C878 C879 1.399 . S
C879 H865 0.929 . S
C879 C878 1.399 . S
C879 C880 1.385 . S
C880 H866 0.931 . S
C880 C879 1.385 . S
C880 C881 1.389 . S
C881 C880 1.389 . S
C881 C882 1.387 . S
C882 H867 0.930 . S
C882 C877 1.390 . S
C882 C881 1.387 . S
H883 C895 0.930 . S
H884 C897 0.930 . S
H885 C898 0.930 . S
H886 C902 0.959 . S
H887 C902 0.959 . S
H888 C902 0.961 . S
H889 C903 0.960 . S
H890 C903 0.961 . S
H891 C903 0.959 . S
H892 C906 0.929 . S
H893 C907 0.931 . S
H894 C909 0.930 . S
C895 H883 0.930 . S
C895 C896 1.399 . S
C895 C900 1.399 . S
C896 C895 1.399 . S
C896 C897 1.376 . S
C897 H884 0.930 . S
C897 C896 1.376 . S
C897 C898 1.388 . S
C898 H885 0.930 . S
C898 C897 1.388 . S
C898 C899 1.390 . S
C899 C898 1.390 . S
C899 C900 1.394 . S
C899 C905 1.465 . S
C900 C895 1.399 . S
C900 C899 1.394 . S
C900 C901 1.516 . S
C901 C900 1.516 . S
C901 C902 1.502 . S
C901 C903 1.561 . S
C901 C904 1.526 . S
C902 H886 0.959 . S
C902 H887 0.959 . S
C902 H888 0.961 . S
C902 C901 1.502 . S
C903 H889 0.960 . S
C903 H890 0.961 . S
C903 H891 0.959 . S
C903 C901 1.561 . S
C904 C901 1.526 . S
C904 C905 1.396 . S
C904 C909 1.390 . S
C905 C899 1.465 . S
C905 C904 1.396 . S
C905 C906 1.399 . S
C906 H892 0.929 . S
C906 C905 1.399 . S
C906 C907 1.385 . S
C907 H893 0.931 . S
C907 C906 1.385 . S
C907 C908 1.389 . S
C908 C907 1.389 . S
C908 C909 1.387 . S
C909 H894 0.930 . S
C909 C904 1.390 . S
C909 C908 1.387 . S
H910 C922 0.930 . S
H911 C924 0.930 . S
H912 C925 0.930 . S
H913 C929 0.959 . S
H914 C929 0.959 . S
H915 C929 0.961 . S
H916 C930 0.960 . S
H917 C930 0.961 . S
H918 C930 0.959 . S
H919 C933 0.929 . S
H920 C934 0.931 . S
H921 C936 0.930 . S
C922 H910 0.930 . S
C922 C923 1.399 . S
C922 C927 1.399 . S
C923 C922 1.399 . S
C923 C924 1.376 . S
C924 H911 0.930 . S
C924 C923 1.376 . S
C924 C925 1.388 . S
C925 H912 0.930 . S
C925 C924 1.388 . S
C925 C926 1.390 . S
C926 C925 1.390 . S
C926 C927 1.394 . S
C926 C932 1.465 . S
C927 C922 1.399 . S
C927 C926 1.394 . S
C927 C928 1.516 . S
C928 C927 1.516 . S
C928 C929 1.502 . S
C928 C930 1.561 . S
C928 C931 1.526 . S
C929 H913 0.959 . S
C929 H914 0.959 . S
C929 H915 0.961 . S
C929 C928 1.502 . S
C930 H916 0.960 . S
C930 H917 0.961 . S
C930 H918 0.959 . S
C930 C928 1.561 . S
C931 C928 1.526 . S
C931 C932 1.396 . S
C931 C936 1.390 . S
C932 C926 1.465 . S
C932 C931 1.396 . S
C932 C933 1.399 . S
C933 H919 0.929 . S
C933 C932 1.399 . S
C933 C934 1.385 . S
C934 H920 0.931 . S
C934 C933 1.385 . S
C934 C935 1.389 . S
C935 C934 1.389 . S
C935 C936 1.387 . S
C936 H921 0.930 . S
C936 C931 1.390 . S
C936 C935 1.387 . S
H937 C949 0.930 . S
H938 C951 0.930 . S
H939 C952 0.930 . S
H940 C956 0.959 . S
H941 C956 0.959 . S
H942 C956 0.961 . S
H943 C957 0.960 . S
H944 C957 0.961 . S
H945 C957 0.959 . S
H946 C960 0.929 . S
H947 C961 0.931 . S
H948 C963 0.930 . S
C949 H937 0.930 . S
C949 C950 1.399 . S
C949 C954 1.399 . S
C950 C949 1.399 . S
C950 C951 1.376 . S
C951 H938 0.930 . S
C951 C950 1.376 . S
C951 C952 1.388 . S
C952 H939 0.930 . S
C952 C951 1.388 . S
C952 C953 1.390 . S
C953 C952 1.390 . S
C953 C954 1.394 . S
C953 C959 1.465 . S
C954 C949 1.399 . S
C954 C953 1.394 . S
C954 C955 1.516 . S
C955 C954 1.516 . S
C955 C956 1.502 . S
C955 C957 1.561 . S
C955 C958 1.526 . S
C956 H940 0.959 . S
C956 H941 0.959 . S
C956 H942 0.961 . S
C956 C955 1.502 . S
C957 H943 0.960 . S
C957 H944 0.961 . S
C957 H945 0.959 . S
C957 C955 1.561 . S
C958 C955 1.526 . S
C958 C959 1.396 . S
C958 C963 1.390 . S
C959 C953 1.465 . S
C959 C958 1.396 . S
C959 C960 1.399 . S
C960 H946 0.929 . S
C960 C959 1.399 . S
C960 C961 1.385 . S
C961 H947 0.931 . S
C961 C960 1.385 . S
C961 C962 1.389 . S
C962 C961 1.389 . S
C962 C963 1.387 . S
C963 H948 0.930 . S
C963 C958 1.390 . S
C963 C962 1.387 . S
H964 C976 0.930 . S
H965 C978 0.930 . S
H966 C979 0.930 . S
H967 C983 0.959 . S
H968 C983 0.959 . S
H969 C983 0.961 . S
H970 C984 0.960 . S
H971 C984 0.961 . S
H972 C984 0.959 . S
H973 C987 0.929 . S
H974 C988 0.931 . S
H975 C990 0.930 . S
C976 H964 0.930 . S
C976 C977 1.399 . S
C976 C981 1.399 . S
C977 C976 1.399 . S
C977 C978 1.376 . S
C978 H965 0.930 . S
C978 C977 1.376 . S
C978 C979 1.388 . S
C979 H966 0.930 . S
C979 C978 1.388 . S
C979 C980 1.390 . S
C980 C979 1.390 . S
C980 C981 1.394 . S
C980 C986 1.465 . S
C981 C976 1.399 . S
C981 C980 1.394 . S
C981 C982 1.516 . S
C982 C981 1.516 . S
C982 C983 1.502 . S
C982 C984 1.561 . S
C982 C985 1.526 . S
C983 H967 0.959 . S
C983 H968 0.959 . S
C983 H969 0.961 . S
C983 C982 1.502 . S
C984 H970 0.960 . S
C984 H971 0.961 . S
C984 H972 0.959 . S
C984 C982 1.561 . S
C985 C982 1.526 . S
C985 C986 1.396 . S
C985 C990 1.390 . S
C986 C980 1.465 . S
C986 C985 1.396 . S
C986 C987 1.399 . S
C987 H973 0.929 . S
C987 C986 1.399 . S
C987 C988 1.385 . S
C988 H974 0.931 . S
C988 C987 1.385 . S
C988 C989 1.389 . S
C989 C988 1.389 . S
C989 C990 1.387 . S
C990 H975 0.930 . S
C990 C985 1.390 . S
C990 C989 1.387 . S
H991 C1003 0.930 . S
H992 C1005 0.930 . S
H993 C1006 0.930 . S
H994 C1010 0.959 . S
H995 C1010 0.959 . S
H996 C1010 0.961 . S
H997 C1011 0.960 . S
H998 C1011 0.961 . S
H999 C1011 0.959 . S
H1000 C1014 0.929 . S
H1001 C1015 0.931 . S
H1002 C1017 0.930 . S
C1003 H991 0.930 . S
C1003 C1004 1.399 . S
C1003 C1008 1.399 . S
C1004 C1003 1.399 . S
C1004 C1005 1.376 . S
C1005 H992 0.930 . S
C1005 C1004 1.376 . S
C1005 C1006 1.388 . S
C1006 H993 0.930 . S
C1006 C1005 1.388 . S
C1006 C1007 1.390 . S
C1007 C1006 1.390 . S
C1007 C1008 1.394 . S
C1007 C1013 1.465 . S
C1008 C1003 1.399 . S
C1008 C1007 1.394 . S
C1008 C1009 1.516 . S
C1009 C1008 1.516 . S
C1009 C1010 1.502 . S
C1009 C1011 1.561 . S
C1009 C1012 1.526 . S
C1010 H994 0.959 . S
C1010 H995 0.959 . S
C1010 H996 0.961 . S
C1010 C1009 1.502 . S
C1011 H997 0.960 . S
C1011 H998 0.961 . S
C1011 H999 0.959 . S
C1011 C1009 1.561 . S
C1012 C1009 1.526 . S
C1012 C1013 1.396 . S
C1012 C1017 1.390 . S
C1013 C1007 1.465 . S
C1013 C1012 1.396 . S
C1013 C1014 1.399 . S
C1014 H1000 0.929 . S
C1014 C1013 1.399 . S
C1014 C1015 1.385 . S
C1015 H1001 0.931 . S
C1015 C1014 1.385 . S
C1015 C1016 1.389 . S
C1016 C1015 1.389 . S
C1016 C1017 1.387 . S
C1017 H1002 0.930 . S
C1017 C1012 1.390 . S
C1017 C1016 1.387 . S
H1018 C1030 0.930 . S
H1019 C1032 0.930 . S
H1020 C1033 0.930 . S
H1021 C1037 0.959 . S
H1022 C1037 0.959 . S
H1023 C1037 0.961 . S
H1024 C1038 0.960 . S
H1025 C1038 0.961 . S
H1026 C1038 0.959 . S
H1027 C1041 0.929 . S
H1028 C1042 0.931 . S
H1029 C1044 0.930 . S
C1030 H1018 0.930 . S
C1030 C1031 1.399 . S
C1030 C1035 1.399 . S
C1031 C1030 1.399 . S
C1031 C1032 1.376 . S
C1032 H1019 0.930 . S
C1032 C1031 1.376 . S
C1032 C1033 1.388 . S
C1033 H1020 0.930 . S
C1033 C1032 1.388 . S
C1033 C1034 1.390 . S
C1034 C1033 1.390 . S
C1034 C1035 1.394 . S
C1034 C1040 1.465 . S
C1035 C1030 1.399 . S
C1035 C1034 1.394 . S
C1035 C1036 1.516 . S
C1036 C1035 1.516 . S
C1036 C1037 1.502 . S
C1036 C1038 1.561 . S
C1036 C1039 1.526 . S
C1037 H1021 0.959 . S
C1037 H1022 0.959 . S
C1037 H1023 0.961 . S
C1037 C1036 1.502 . S
C1038 H1024 0.960 . S
C1038 H1025 0.961 . S
C1038 H1026 0.959 . S
C1038 C1036 1.561 . S
C1039 C1036 1.526 . S
C1039 C1040 1.396 . S
C1039 C1044 1.390 . S
C1040 C1034 1.465 . S
C1040 C1039 1.396 . S
C1040 C1041 1.399 . S
C1041 H1027 0.929 . S
C1041 C1040 1.399 . S
C1041 C1042 1.385 . S
C1042 H1028 0.931 . S
C1042 C1041 1.385 . S
C1042 C1043 1.389 . S
C1043 C1042 1.389 . S
C1043 C1044 1.387 . S
C1044 H1029 0.930 . S
C1044 C1039 1.390 . S
C1044 C1043 1.387 . S
H1045 C1057 0.930 . S
H1046 C1059 0.930 . S
H1047 C1060 0.930 . S
H1048 C1064 0.959 . S
H1049 C1064 0.959 . S
H1050 C1064 0.961 . S
H1051 C1065 0.960 . S
H1052 C1065 0.961 . S
H1053 C1065 0.959 . S
H1054 C1068 0.929 . S
H1055 C1069 0.931 . S
H1056 C1071 0.930 . S
C1057 H1045 0.930 . S
C1057 C1058 1.399 . S
C1057 C1062 1.399 . S
C1058 C1057 1.399 . S
C1058 C1059 1.376 . S
C1059 H1046 0.930 . S
C1059 C1058 1.376 . S
C1059 C1060 1.388 . S
C1060 H1047 0.930 . S
C1060 C1059 1.388 . S
C1060 C1061 1.390 . S
C1061 C1060 1.390 . S
C1061 C1062 1.394 . S
C1061 C1067 1.465 . S
C1062 C1057 1.399 . S
C1062 C1061 1.394 . S
C1062 C1063 1.516 . S
C1063 C1062 1.516 . S
C1063 C1064 1.502 . S
C1063 C1065 1.561 . S
C1063 C1066 1.526 . S
C1064 H1048 0.959 . S
C1064 H1049 0.959 . S
C1064 H1050 0.961 . S
C1064 C1063 1.502 . S
C1065 H1051 0.960 . S
C1065 H1052 0.961 . S
C1065 H1053 0.959 . S
C1065 C1063 1.561 . S
C1066 C1063 1.526 . S
C1066 C1067 1.396 . S
C1066 C1071 1.390 . S
C1067 C1061 1.465 . S
C1067 C1066 1.396 . S
C1067 C1068 1.399 . S
C1068 H1054 0.929 . S
C1068 C1067 1.399 . S
C1068 C1069 1.385 . S
C1069 H1055 0.931 . S
C1069 C1068 1.385 . S
C1069 C1070 1.389 . S
C1070 C1069 1.389 . S
C1070 C1071 1.387 . S
C1071 H1056 0.930 . S
C1071 C1066 1.390 . S
C1071 C1070 1.387 . S
C221 C199 1.475 . S
C233 C10 1.390 . S
C248 C160 0.918 . S
C260 C23 0.909 . S
C275 C36 1.145 . S
C287 C179 1.148 . S
C302 C186 1.066 . S
C314 C43 1.158 . S
C329 C127 0.913 . S
C341 C62 0.926 . S
C356 C69 1.153 . S
C368 C134 1.125 . S
C383 C82 1.162 . S
C395 C153 1.128 . S
C410 C101 1.493 . S
C422 C114 1.411 . S
C437 C70 1.748 . S
C449 C5 1.676 . S
C464 C81 1.491 . S
C476 C18 1.522 . S
C491 C94 1.714 . S
C503 C31 1.684 . S
C518 C44 1.376 . S
C530 C56 1.370 . S
C545 C4 1.425 . S
C557 C16 1.447 . S
C572 C29 1.375 . S
C584 C17 1.371 . S
C599 C30 1.803 . S
C611 C49 1.836 . S
C626 C3 1.722 . S
C638 C42 1.667 . S
C653 C95 1.421 . S
C665 C55 1.440 . S
C680 C57 1.535 . S
C692 C68 1.432 . S
C707 C75 1.526 . S
C719 C88 1.529 . S
C734 C96 1.695 . S
C746 C83 1.757 . S
C761 C172 1.750 . S
C773 C109 1.692 . S
C788 C122 1.537 . S
C800 C185 1.430 . S
C815 C200 1.729 . S
C827 C133 1.709 . S
C842 C166 1.329 . S
C854 C146 1.359 . S
C869 C108 1.423 . S
C881 C120 1.444 . S
C896 C121 1.333 . S
C908 C135 1.361 . S
C923 C147 1.833 . S
C935 C140 1.844 . S
C950 C107 1.721 . S
C962 C148 1.666 . S
C977 C205 1.454 . S
C989 C161 1.450 . S
C1004 C159 1.537 . S
C1016 C174 1.515 . S
C1031 C173 1.535 . S
C1043 C192 1.533 . S
C1058 C198 1.659 . S
C1070 C187 1.747 . S
