# Generated by pormake.
# Topology wmy, (6)-cn, num edge types: 1
# Building blocks:
#     Node 0, Type 0, BuildingBlock: OJICUG_clean_sbu_0, # of connection points: 6
#     Node 1, Type 0, BuildingBlock: OJICUG_clean_sbu_0, # of connection points: 6
#     Node 2, Type 0, BuildingBlock: OJICUG_clean_sbu_0, # of connection points: 6
#     Node 3, Type 0, BuildingBlock: OJICUG_clean_sbu_0, # of connection points: 6
#     Node 4, Type 0, BuildingBlock: OJICUG_clean_sbu_0, # of connection points: 6
#     Node 5, Type 0, BuildingBlock: OJICUG_clean_sbu_0, # of connection points: 6
#     Node 6, Type 0, BuildingBlock: OJICUG_clean_sbu_0, # of connection points: 6
#     Node 7, Type 0, BuildingBlock: OJICUG_clean_sbu_0, # of connection points: 6
#     Node 8, Type 0, BuildingBlock: OJICUG_clean_sbu_0, # of connection points: 6
#     Node 9, Type 0, BuildingBlock: OJICUG_clean_sbu_0, # of connection points: 6
#     Node 10, Type 0, BuildingBlock: OJICUG_clean_sbu_0, # of connection points: 6
#     Node 11, Type 0, BuildingBlock: OJICUG_clean_sbu_0, # of connection points: 6
#     Node 12, Type 0, BuildingBlock: OJICUG_clean_sbu_0, # of connection points: 6
#     Node 13, Type 0, BuildingBlock: OJICUG_clean_sbu_0, # of connection points: 6
#     Node 14, Type 0, BuildingBlock: OJICUG_clean_sbu_0, # of connection points: 6
#     Node 15, Type 0, BuildingBlock: OJICUG_clean_sbu_0, # of connection points: 6
#     Node 16, Type 0, BuildingBlock: OJICUG_clean_sbu_0, # of connection points: 6
#     Node 17, Type 0, BuildingBlock: OJICUG_clean_sbu_0, # of connection points: 6
#     Node 18, Type 0, BuildingBlock: OJICUG_clean_sbu_0, # of connection points: 6
#     Node 19, Type 0, BuildingBlock: OJICUG_clean_sbu_0, # of connection points: 6
#     Node 20, Type 0, BuildingBlock: OJICUG_clean_sbu_0, # of connection points: 6
#     Node 21, Type 0, BuildingBlock: OJICUG_clean_sbu_0, # of connection points: 6
#     Node 22, Type 0, BuildingBlock: OJICUG_clean_sbu_0, # of connection points: 6
#     Node 23, Type 0, BuildingBlock: OJICUG_clean_sbu_0, # of connection points: 6
#     Node 24, Type 0, BuildingBlock: OJICUG_clean_sbu_0, # of connection points: 6
#     Node 25, Type 0, BuildingBlock: OJICUG_clean_sbu_0, # of connection points: 6
#     Node 26, Type 0, BuildingBlock: OJICUG_clean_sbu_0, # of connection points: 6
#     Node 27, Type 0, BuildingBlock: OJICUG_clean_sbu_0, # of connection points: 6
#     Node 28, Type 0, BuildingBlock: OJICUG_clean_sbu_0, # of connection points: 6
#     Node 29, Type 0, BuildingBlock: OJICUG_clean_sbu_0, # of connection points: 6
#     Node 30, Type 0, BuildingBlock: OJICUG_clean_sbu_0, # of connection points: 6
#     Node 31, Type 0, BuildingBlock: OJICUG_clean_sbu_0, # of connection points: 6
#     Node 32, Type 0, BuildingBlock: OJICUG_clean_sbu_0, # of connection points: 6
#     Node 33, Type 0, BuildingBlock: OJICUG_clean_sbu_0, # of connection points: 6
#     Node 34, Type 0, BuildingBlock: OJICUG_clean_sbu_0, # of connection points: 6
#     Node 35, Type 0, BuildingBlock: OJICUG_clean_sbu_0, # of connection points: 6
#     Edge 36, Type (0, 0), None
#     Edge 37, Type (0, 0), None
#     Edge 38, Type (0, 0), None
#     Edge 39, Type (0, 0), None
#     Edge 40, Type (0, 0), None
#     Edge 41, Type (0, 0), None
#     Edge 42, Type (0, 0), None
#     Edge 43, Type (0, 0), None
#     Edge 44, Type (0, 0), None
#     Edge 45, Type (0, 0), None
#     Edge 46, Type (0, 0), None
#     Edge 47, Type (0, 0), None
#     Edge 48, Type (0, 0), None
#     Edge 49, Type (0, 0), None
#     Edge 50, Type (0, 0), None
#     Edge 51, Type (0, 0), None
#     Edge 52, Type (0, 0), None
#     Edge 53, Type (0, 0), None
#     Edge 54, Type (0, 0), None
#     Edge 55, Type (0, 0), None
#     Edge 56, Type (0, 0), None
#     Edge 57, Type (0, 0), None
#     Edge 58, Type (0, 0), None
#     Edge 59, Type (0, 0), None
#     Edge 60, Type (0, 0), None
#     Edge 61, Type (0, 0), None
#     Edge 62, Type (0, 0), None
#     Edge 63, Type (0, 0), None
#     Edge 64, Type (0, 0), None
#     Edge 65, Type (0, 0), None
#     Edge 66, Type (0, 0), None
#     Edge 67, Type (0, 0), None
#     Edge 68, Type (0, 0), None
#     Edge 69, Type (0, 0), None
#     Edge 70, Type (0, 0), None
#     Edge 71, Type (0, 0), None
#     Edge 72, Type (0, 0), None
#     Edge 73, Type (0, 0), None
#     Edge 74, Type (0, 0), None
#     Edge 75, Type (0, 0), None
#     Edge 76, Type (0, 0), None
#     Edge 77, Type (0, 0), None
#     Edge 78, Type (0, 0), None
#     Edge 79, Type (0, 0), None
#     Edge 80, Type (0, 0), None
#     Edge 81, Type (0, 0), None
#     Edge 82, Type (0, 0), None
#     Edge 83, Type (0, 0), None
#     Edge 84, Type (0, 0), None
#     Edge 85, Type (0, 0), None
#     Edge 86, Type (0, 0), None
#     Edge 87, Type (0, 0), None
#     Edge 88, Type (0, 0), None
#     Edge 89, Type (0, 0), None
#     Edge 90, Type (0, 0), None
#     Edge 91, Type (0, 0), None
#     Edge 92, Type (0, 0), None
#     Edge 93, Type (0, 0), None
#     Edge 94, Type (0, 0), None
#     Edge 95, Type (0, 0), None
#     Edge 96, Type (0, 0), None
#     Edge 97, Type (0, 0), None
#     Edge 98, Type (0, 0), None
#     Edge 99, Type (0, 0), None
#     Edge 100, Type (0, 0), None
#     Edge 101, Type (0, 0), None
#     Edge 102, Type (0, 0), None
#     Edge 103, Type (0, 0), None
#     Edge 104, Type (0, 0), None
#     Edge 105, Type (0, 0), None
#     Edge 106, Type (0, 0), None
#     Edge 107, Type (0, 0), None
#     Edge 108, Type (0, 0), None
#     Edge 109, Type (0, 0), None
#     Edge 110, Type (0, 0), None
#     Edge 111, Type (0, 0), None
#     Edge 112, Type (0, 0), None
#     Edge 113, Type (0, 0), None
#     Edge 114, Type (0, 0), None
#     Edge 115, Type (0, 0), None
#     Edge 116, Type (0, 0), None
#     Edge 117, Type (0, 0), None
#     Edge 118, Type (0, 0), None
#     Edge 119, Type (0, 0), None
#     Edge 120, Type (0, 0), None
#     Edge 121, Type (0, 0), None
#     Edge 122, Type (0, 0), None
#     Edge 123, Type (0, 0), None
#     Edge 124, Type (0, 0), None
#     Edge 125, Type (0, 0), None
#     Edge 126, Type (0, 0), None
#     Edge 127, Type (0, 0), None
#     Edge 128, Type (0, 0), None
#     Edge 129, Type (0, 0), None
#     Edge 130, Type (0, 0), None
#     Edge 131, Type (0, 0), None
#     Edge 132, Type (0, 0), None
#     Edge 133, Type (0, 0), None
#     Edge 134, Type (0, 0), None
#     Edge 135, Type (0, 0), None
#     Edge 136, Type (0, 0), None
#     Edge 137, Type (0, 0), None
#     Edge 138, Type (0, 0), None
#     Edge 139, Type (0, 0), None
#     Edge 140, Type (0, 0), None
#     Edge 141, Type (0, 0), None
#     Edge 142, Type (0, 0), None
#     Edge 143, Type (0, 0), None
# Relax obj value: 0.454
# Max RMSD: 0.185
# Mean RMSD: 0.185
data_MOF--net-wmy--node1-OJICUG_clean_sbu_0--edge1-none
_symmetry_space_group_name_H-M    P1
_symmetry_Int_Tables_number       1
_symmetry_cell_setting            triclinic
loop_
_symmetry_equiv_pos_as_xyz
'x, y, z'
_cell_length_a     25.770472
_cell_length_b     25.771257
_cell_length_c     27.436056
_cell_angle_alpha  89.998612
_cell_angle_beta   90.002109
_cell_angle_gamma 119.99968
loop_
_atom_site_label
_atom_site_type_symbol
_atom_site_fract_x
_atom_site_fract_y
_atom_site_fract_z
_atom_type_partial_charge
Sc0 Sc 0.03468 0.11895 0.10263 0.0
Sc1 Sc 0.10879 0.25947 0.14058 0.0
Sc2 Sc 0.94889 0.18321 0.13074 0.0
O3 O 0.02869 0.18746 0.12408 0.0
C4 C 0.94422 0.13031 0.02596 0.0
C5 C 0.12824 0.21583 0.0419 0.0
C6 C 0.03657 0.32105 0.10827 0.0
C7 C 0.13601 0.15837 0.17029 0.0
C8 C 0.91111 0.04741 0.15508 0.0
C9 C 0.02372 0.23234 0.23149 0.0
O10 O 0.98539 0.11751 0.03706 0.0
O11 O 0.12967 0.26239 0.06066 0.0
O12 O 0.98864 0.27279 0.09783 0.0
O13 O 0.07925 0.12884 0.17183 0.0
O14 O 0.89863 0.0894 0.16001 0.0
O15 O 0.07617 0.24705 0.2149 0.0
O16 O 0.9575 0.0557 0.13412 0.0
O17 O 0.15922 0.21151 0.15413 0.0
O18 O 0.9767 0.21533 0.20504 0.0
O19 O 0.1181 0.17281 0.06899 0.0
O20 O 0.92161 0.15068 0.05662 0.0
O21 O 0.07578 0.32079 0.13551 0.0
Sc22 Sc 0.91355 0.92224 0.10261 0.0
Sc23 Sc 0.77301 0.85588 0.14056 0.0
Sc24 Sc 0.84923 0.77218 0.13076 0.0
O25 O 0.84501 0.84775 0.12409 0.0
C26 C 0.90212 0.82036 0.02597 0.0
C27 C 0.81669 0.91896 0.04187 0.0
C28 C 0.71139 0.72207 0.10827 0.0
C29 C 0.87415 0.98416 0.17026 0.0
C30 C 0.98505 0.87017 0.15509 0.0
C31 C 0.8001 0.79792 0.23149 0.0
O32 O 0.91493 0.87434 0.03706 0.0
O33 O 0.77012 0.87386 0.06064 0.0
O34 O 0.75964 0.72237 0.09786 0.0
O35 O 0.90375 0.95701 0.17179 0.0
O36 O 0.94303 0.81572 0.16005 0.0
O37 O 0.78541 0.83566 0.21489 0.0
O38 O 0.97678 0.90826 0.13409 0.0
O39 O 0.821 0.95426 0.1541 0.0
O40 O 0.8171 0.7679 0.20506 0.0
O41 O 0.85974 0.95183 0.06895 0.0
O42 O 0.88175 0.7774 0.05664 0.0
O43 O 0.71165 0.76157 0.13548 0.0
Sc44 Sc 0.11016 0.99779 0.10268 0.0
Sc45 Sc 0.17657 0.92364 0.14058 0.0
Sc46 Sc 0.26024 0.08355 0.13076 0.0
O47 O 0.18467 1.00376 0.12411 0.0
C48 C 0.21199 0.08824 0.026 0.0
C49 C 0.11345 0.90422 0.04191 0.0
C50 C 0.31036 0.99584 0.10827 0.0
C51 C 0.04828 0.89643 0.17031 0.0
C52 C 0.16226 0.12137 0.15514 0.0
C53 C 0.23452 1.0087 0.2315 0.0
O54 O 0.15802 0.0471 0.03712 0.0
O55 O 0.15856 0.90277 0.06066 0.0
O56 O 0.31005 0.04378 0.09785 0.0
O57 O 0.07543 0.95319 0.17187 0.0
O58 O 0.21673 0.13385 0.16002 0.0
O59 O 0.19679 0.95625 0.2149 0.0
O60 O 0.12413 0.07497 0.13421 0.0
O61 O 0.07819 0.87321 0.15413 0.0
O62 O 0.26454 0.05572 0.20506 0.0
O63 O 0.08058 0.9144 0.06899 0.0
O64 O 0.25499 0.11082 0.05664 0.0
O65 O 0.27088 0.95661 0.1355 0.0
Sc66 Sc 0.12538 0.02816 0.41339 0.0
Sc67 Sc 0.2659 0.10228 0.37543 0.0
Sc68 Sc 0.18965 0.94238 0.38526 0.0
O69 O 0.19389 0.02217 0.39192 0.0
C70 C 0.13675 0.93768 0.49004 0.0
C71 C 0.22226 0.1217 0.47413 0.0
C72 C 0.3275 0.03008 0.40773 0.0
C73 C 0.16479 0.1295 0.34574 0.0
C74 C 0.05385 0.9046 0.36091 0.0
C75 C 0.2388 0.01723 0.28452 0.0
O76 O 0.12395 0.97885 0.47894 0.0
O77 O 0.26882 0.12315 0.45536 0.0
O78 O 0.27924 0.98215 0.41818 0.0
O79 O 0.13525 0.07274 0.3442 0.0
O80 O 0.09584 0.89213 0.35598 0.0
O81 O 0.25347 0.06967 0.30111 0.0
O82 O 0.06214 0.95098 0.38189 0.0
O83 O 0.21794 0.15271 0.36191 0.0
O84 O 0.22178 0.9702 0.31096 0.0
O85 O 0.17922 0.11156 0.44705 0.0
O86 O 0.15712 0.91509 0.45938 0.0
O87 O 0.32722 0.06926 0.38047 0.0
Sc88 Sc 1.00422 0.10371 0.41332 0.0
Sc89 Sc 0.93012 0.17015 0.37542 0.0
Sc90 Sc 0.09002 0.25378 0.38525 0.0
O91 O 1.01022 0.17823 0.3919 0.0
C92 C 0.09471 0.20551 0.49001 0.0
C93 C 0.91069 0.10705 0.47409 0.0
C94 C 1.00233 0.30393 0.40773 0.0
C95 C 0.90284 0.04182 0.3457 0.0
C96 C 0.1278 0.15576 0.36086 0.0
C97 C 1.01518 0.22809 0.2845 0.0
O98 O 0.05356 0.15154 0.47888 0.0
O99 O 0.90925 0.15217 0.45534 0.0
O100 O 0.05026 0.30359 0.41817 0.0
O101 O 0.9596 0.06903 0.34413 0.0
O102 O 0.14031 0.21025 0.356 0.0
O103 O 0.96274 0.19034 0.3011 0.0
O104 O 0.08137 0.11764 0.38177 0.0
O105 O 0.87966 0.07177 0.36188 0.0
O106 O 0.06221 0.25809 0.31095 0.0
O107 O 0.92084 0.07416 0.44701 0.0
O108 O 0.11729 0.24851 0.45938 0.0
O109 O 0.96314 0.26448 0.38046 0.0
Sc110 Sc 0.92869 0.90711 0.41334 0.0
Sc111 Sc 0.86231 0.76656 0.37544 0.0
Sc112 Sc 0.77861 0.84277 0.38524 0.0
O113 O 0.85419 0.83856 0.3919 0.0
C114 C 0.82683 0.89571 0.49 0.0
C115 C 0.9254 0.81026 0.47413 0.0
C116 C 0.72851 0.70494 0.40773 0.0
C117 C 0.9906 0.86764 0.34573 0.0
C118 C 0.87659 0.97857 0.36086 0.0
C119 C 0.80434 0.79364 0.28451 0.0
O120 O 0.88081 0.90856 0.47889 0.0
O121 O 0.8803 0.76369 0.45536 0.0
O122 O 0.72882 0.75319 0.41815 0.0
O123 O 0.96346 0.89725 0.34417 0.0
O124 O 0.82212 0.93658 0.35598 0.0
O125 O 0.8421 0.77896 0.30111 0.0
O126 O 0.91472 0.9703 0.3818 0.0
O127 O 0.96069 0.81451 0.36191 0.0
O128 O 0.77433 0.81066 0.31094 0.0
O129 O 0.95828 0.85331 0.44705 0.0
O130 O 0.78384 0.87529 0.45936 0.0
O131 O 0.76799 0.70521 0.38049 0.0
Sc132 Sc 0.09002 0.84277 0.88525 0.0
Sc133 Sc 0.9301 0.7665 0.87544 0.0
Sc134 Sc 1.00422 0.90702 0.91338 0.0
O135 O 1.01021 0.8385 0.89193 0.0
C136 C 0.09469 0.89566 0.99004 0.0
C137 C 1.00234 0.70491 0.90773 0.0
C138 C 0.91065 0.81015 0.97411 0.0
C139 C 1.01517 0.79362 0.78451 0.0
C140 C 0.12779 0.97857 0.86092 0.0
C141 C 0.90291 0.86762 0.84571 0.0
O142 O 0.1173 0.87529 0.95938 0.0
O143 O 0.96309 0.70516 0.88053 0.0
O144 O 0.9208 0.85318 0.94702 0.0
O145 O 0.0622 0.81065 0.81095 0.0
O146 O 0.0814 0.97026 0.8819 0.0
O147 O 0.87968 0.81447 0.86187 0.0
O148 O 0.14028 0.93658 0.85598 0.0
O149 O 0.96272 0.7789 0.80111 0.0
O150 O 0.95967 0.89713 0.84417 0.0
O151 O 0.05027 0.75319 0.91816 0.0
O152 O 0.05351 0.90845 0.97894 0.0
O153 O 0.90921 0.76359 0.95535 0.0
Sc154 Sc 0.18964 0.25378 0.88523 0.0
Sc155 Sc 0.26586 0.17008 0.87546 0.0
Sc156 Sc 0.12532 0.10374 0.9134 0.0
O157 O 0.19386 0.17822 0.89192 0.0
C158 C 0.13676 0.20561 0.99003 0.0
C159 C 0.3275 0.30393 0.90773 0.0
C160 C 0.22218 0.10699 0.97413 0.0
C161 C 0.23878 0.22805 0.78451 0.0
C162 C 0.05382 0.15579 0.86091 0.0
C163 C 0.16471 0.04182 0.84574 0.0
O164 O 0.15712 0.24857 0.95936 0.0
O165 O 0.32724 0.26439 0.88057 0.0
O166 O 0.17913 0.07412 0.94706 0.0
O167 O 0.22176 0.25806 0.81094 0.0
O168 O 0.0621 0.11771 0.88192 0.0
O169 O 0.21786 0.0717 0.8619 0.0
O170 O 0.09583 0.21025 0.85595 0.0
O171 O 0.25349 0.19031 0.80112 0.0
O172 O 0.13513 0.06899 0.8442 0.0
O173 O 0.27923 0.3036 0.91813 0.0
O174 O 0.12395 0.15164 0.97895 0.0
O175 O 0.26874 0.15208 0.95537 0.0
Sc176 Sc 0.77864 0.9424 0.88523 0.0
Sc177 Sc 0.86232 0.10231 0.87544 0.0
Sc178 Sc 0.92871 0.02815 0.91333 0.0
O179 O 0.8542 0.02219 0.8919 0.0
C180 C 0.82688 0.9377 0.99 0.0
C181 C 0.72849 0.03009 0.90773 0.0
C182 C 0.92545 0.12173 0.9741 0.0
C183 C 0.80436 0.01726 0.7845 0.0
C184 C 0.87663 0.90458 0.86086 0.0
C185 C 0.99059 0.12949 0.84569 0.0
O186 O 0.78388 0.91512 0.95936 0.0
O187 O 0.76801 0.06936 0.88055 0.0
O188 O 0.95831 0.11155 0.94702 0.0
O189 O 0.77436 0.97023 0.81093 0.0
O190 O 0.91474 0.95098 0.8818 0.0
O191 O 0.9607 0.15273 0.86187 0.0
O192 O 0.82215 0.89209 0.85597 0.0
O193 O 0.84208 0.0697 0.80111 0.0
O194 O 0.96342 0.07273 0.84413 0.0
O195 O 0.72883 0.98216 0.91814 0.0
O196 O 0.88085 0.97884 0.97889 0.0
O197 O 0.88034 0.12319 0.95535 0.0
Sc198 Sc 0.84925 0.0836 0.63075 0.0
Sc199 Sc 0.773 0.9237 0.64056 0.0
Sc200 Sc 0.91352 0.99782 0.60261 0.0
O201 O 0.845 1.00381 0.62407 0.0
C202 C 0.90215 0.0883 0.52596 0.0
C203 C 0.71139 0.99591 0.60827 0.0
C204 C 0.81664 0.90426 0.54187 0.0
C205 C 0.80009 1.00874 0.73148 0.0
C206 C 0.98505 0.12138 0.65508 0.0
C207 C 0.87411 0.8965 0.67026 0.0
O208 O 0.88178 0.1109 0.55662 0.0
O209 O 0.71167 0.95669 0.6355 0.0
O210 O 0.85968 0.91442 0.56895 0.0
O211 O 0.81712 0.05577 0.70505 0.0
O212 O 0.97675 0.075 0.6341 0.0
O213 O 0.82097 0.87327 0.65409 0.0
O214 O 0.94306 0.13386 0.66002 0.0
O215 O 0.78541 0.9563 0.71488 0.0
O216 O 0.90364 0.95325 0.67181 0.0
O217 O 0.75967 0.04384 0.59782 0.0
O218 O 0.91494 0.04713 0.53705 0.0
O219 O 0.77009 0.90282 0.56064 0.0
Sc220 Sc 0.94884 0.77218 0.63075 0.0
Sc221 Sc 0.10875 0.85581 0.64057 0.0
Sc222 Sc 0.03464 0.92224 0.60268 0.0
O223 O 0.02865 0.84772 0.62409 0.0
C224 C 0.94416 0.82044 0.52599 0.0
C225 C 0.03652 0.72201 0.60827 0.0
C226 C 0.12819 0.91893 0.5419 0.0
C227 C 0.02369 0.79786 0.73149 0.0
C228 C 0.91107 0.8702 0.65514 0.0
C229 C 0.13601 0.98413 0.6703 0.0
O230 O 0.92157 0.77744 0.55663 0.0
O231 O 0.07574 0.76149 0.6355 0.0
O232 O 0.11803 0.9518 0.56898 0.0
O233 O 0.97666 0.76788 0.70506 0.0
O234 O 0.95749 0.9083 0.63422 0.0
O235 O 0.15921 0.9542 0.65412 0.0
O236 O 0.89855 0.81571 0.66 0.0
O237 O 0.07614 0.83561 0.7149 0.0
O238 O 0.07925 0.9569 0.67188 0.0
O239 O 0.9886 0.72236 0.59783 0.0
O240 O 0.98531 0.87441 0.53711 0.0
O241 O 0.12963 0.8738 0.56066 0.0
Sc242 Sc 0.26027 0.18317 0.63076 0.0
Sc243 Sc 0.17657 0.25939 0.64055 0.0
Sc244 Sc 0.1102 0.11884 0.60265 0.0
O245 O 0.1847 0.18739 0.62409 0.0
C246 C 0.21206 0.13024 0.526 0.0
C247 C 0.3104 0.32102 0.60827 0.0
C248 C 0.11347 0.21568 0.54187 0.0
C249 C 0.23454 0.23232 0.73149 0.0
C250 C 0.16229 0.04737 0.65514 0.0
C251 C 0.0483 0.15829 0.67027 0.0
O252 O 0.25505 0.15065 0.55664 0.0
O253 O 0.27089 0.32075 0.63547 0.0
O254 O 0.0806 0.17263 0.56894 0.0
O255 O 0.26455 0.21529 0.70506 0.0
O256 O 0.12418 0.05565 0.63419 0.0
O257 O 0.07819 0.21143 0.65409 0.0
O258 O 0.21677 0.08936 0.66003 0.0
O259 O 0.19679 0.24701 0.71488 0.0
O260 O 0.07546 0.1287 0.67183 0.0
O261 O 0.31007 0.27275 0.59785 0.0
O262 O 0.15809 0.1174 0.5371 0.0
O263 O 0.15857 0.26225 0.56063 0.0
Sc264 Sc 0.70137 0.4523 0.43596 0.0
Sc265 Sc 0.77551 0.59282 0.47391 0.0
Sc266 Sc 0.6156 0.51658 0.46407 0.0
O267 O 0.69539 0.52082 0.45741 0.0
C268 C 0.61092 0.46368 0.35928 0.0
C269 C 0.79495 0.54916 0.37524 0.0
C270 C 0.70329 0.65443 0.44167 0.0
C271 C 0.80269 0.49168 0.50362 0.0
C272 C 0.5778 0.38077 0.48841 0.0
C273 C 0.69041 0.56569 0.56482 0.0
O274 O 0.65208 0.45087 0.37039 0.0
O275 O 0.7964 0.59573 0.394 0.0
O276 O 0.65536 0.60617 0.4312 0.0
O277 O 0.74593 0.46216 0.50516 0.0
O278 O 0.56533 0.42276 0.49333 0.0
O279 O 0.74287 0.5804 0.54823 0.0
O280 O 0.62419 0.38906 0.46744 0.0
O281 O 0.82591 0.54483 0.48747 0.0
O282 O 0.6434 0.54868 0.53837 0.0
O283 O 0.78479 0.50613 0.40232 0.0
O284 O 0.58833 0.48407 0.38993 0.0
O285 O 0.74259 0.65419 0.46881 0.0
Sc286 Sc 0.58021 0.25558 0.43593 0.0
Sc287 Sc 0.43967 0.18925 0.47389 0.0
Sc288 Sc 0.51586 0.10553 0.46409 0.0
O289 O 0.51165 0.1811 0.45741 0.0
C290 C 0.56875 0.1537 0.35929 0.0
C291 C 0.48336 0.25234 0.37521 0.0
C292 C 0.378 0.05539 0.44167 0.0
C293 C 0.54083 0.31753 0.5036 0.0
C294 C 0.65169 0.2035 0.48842 0.0
C295 C 0.46676 0.13127 0.56482 0.0
O296 O 0.58158 0.20767 0.37038 0.0
O297 O 0.43678 0.20725 0.39398 0.0
O298 O 0.42626 0.0557 0.43122 0.0
O299 O 0.57043 0.29036 0.50512 0.0
O300 O 0.60967 0.14905 0.49337 0.0
O301 O 0.45205 0.16901 0.54822 0.0
O302 O 0.64343 0.2416 0.46742 0.0
O303 O 0.48768 0.28763 0.48744 0.0
O304 O 0.48376 0.10125 0.53839 0.0
O305 O 0.52641 0.2852 0.40228 0.0
O306 O 0.54836 0.11073 0.38996 0.0
O307 O 0.37825 0.09497 0.46877 0.0
Sc308 Sc 0.77682 0.3311 0.43601 0.0
Sc309 Sc 0.84319 0.25692 0.47391 0.0
Sc310 Sc 0.9269 0.41683 0.46409 0.0
O311 O 0.85132 0.33705 0.45743 0.0
C312 C 0.87866 0.42154 0.35932 0.0
C313 C 0.78007 0.23752 0.37524 0.0
C314 C 0.97704 0.32912 0.44167 0.0
C315 C 0.71491 0.22976 0.50364 0.0
C316 C 0.82893 0.45468 0.48847 0.0
C317 C 0.90118 0.342 0.56483 0.0
O318 O 0.82468 0.38041 0.37044 0.0
O319 O 0.82517 0.23604 0.394 0.0
O320 O 0.97672 0.37706 0.43122 0.0
O321 O 0.74208 0.28651 0.50519 0.0
O322 O 0.8834 0.46715 0.49334 0.0
O323 O 0.86344 0.28955 0.54824 0.0
O324 O 0.7908 0.40828 0.46754 0.0
O325 O 0.74482 0.20652 0.48747 0.0
O326 O 0.93118 0.38903 0.53839 0.0
O327 O 0.74721 0.2477 0.40232 0.0
O328 O 0.92166 0.4441 0.38996 0.0
O329 O 0.93748 0.28981 0.46879 0.0
Sc330 Sc 0.79205 0.3615 0.74672 0.0
Sc331 Sc 0.93256 0.43561 0.70876 0.0
Sc332 Sc 0.85632 0.27572 0.71859 0.0
O333 O 0.86056 0.35551 0.72525 0.0
C334 C 0.80344 0.27105 0.82337 0.0
C335 C 0.88893 0.45506 0.80745 0.0
C336 C 0.99416 0.36343 0.74107 0.0
C337 C 0.83145 0.46284 0.67906 0.0
C338 C 0.72052 0.23794 0.69424 0.0
C339 C 0.90545 0.35054 0.61785 0.0
O340 O 0.79063 0.31221 0.81228 0.0
O341 O 0.93548 0.4565 0.78868 0.0
O342 O 0.94591 0.31549 0.75151 0.0
O343 O 0.80191 0.40608 0.67753 0.0
O344 O 0.76251 0.22547 0.68931 0.0
O345 O 0.92013 0.40298 0.63444 0.0
O346 O 0.72881 0.28432 0.71522 0.0
O347 O 0.8846 0.48604 0.69522 0.0
O348 O 0.88845 0.30353 0.64429 0.0
O349 O 0.84589 0.44491 0.78037 0.0
O350 O 0.8238 0.24844 0.79272 0.0
O351 O 0.99388 0.40261 0.7138 0.0
Sc352 Sc 0.67088 0.43703 0.74664 0.0
Sc353 Sc 0.59678 0.50348 0.70874 0.0
Sc354 Sc 0.75669 0.58711 0.71859 0.0
O355 O 0.67688 0.51156 0.72523 0.0
C356 C 0.76134 0.53884 0.82334 0.0
C357 C 0.57733 0.44036 0.80742 0.0
C358 C 0.66899 0.63725 0.74106 0.0
C359 C 0.56951 0.37514 0.67902 0.0
C360 C 0.79446 0.48909 0.69419 0.0
C361 C 0.68187 0.56143 0.61783 0.0
O362 O 0.7202 0.48487 0.81221 0.0
O363 O 0.5759 0.48548 0.78866 0.0
O364 O 0.71692 0.63692 0.7515 0.0
O365 O 0.62626 0.40236 0.67745 0.0
O366 O 0.80698 0.54359 0.68934 0.0
O367 O 0.62942 0.52368 0.63442 0.0
O368 O 0.74803 0.45098 0.7151 0.0
O369 O 0.54632 0.40509 0.6952 0.0
O370 O 0.72889 0.59143 0.64428 0.0
O371 O 0.58749 0.40748 0.78033 0.0
O372 O 0.78393 0.58184 0.79271 0.0
O373 O 0.6298 0.5978 0.71379 0.0
Sc374 Sc 0.59537 0.24044 0.74667 0.0
Sc375 Sc 0.52898 0.0999 0.70876 0.0
Sc376 Sc 0.44529 0.1761 0.71857 0.0
O377 O 0.52087 0.1719 0.72523 0.0
C378 C 0.49351 0.22903 0.82334 0.0
C379 C 0.5921 0.1436 0.80745 0.0
C380 C 0.39519 0.03827 0.74106 0.0
C381 C 0.65728 0.20098 0.67905 0.0
C382 C 0.54326 0.3119 0.69419 0.0
C383 C 0.471 0.12698 0.61784 0.0
O384 O 0.54749 0.24187 0.81222 0.0
O385 O 0.54699 0.09703 0.78868 0.0
O386 O 0.39549 0.08652 0.75149 0.0
O387 O 0.63013 0.23059 0.6775 0.0
O388 O 0.48879 0.26991 0.68931 0.0
O389 O 0.50876 0.1123 0.63444 0.0
O390 O 0.58139 0.30364 0.71513 0.0
O391 O 0.62736 0.14785 0.69523 0.0
O392 O 0.44099 0.14399 0.64427 0.0
O393 O 0.62497 0.18665 0.78038 0.0
O394 O 0.45051 0.20861 0.7927 0.0
O395 O 0.43467 0.03855 0.71383 0.0
Sc396 Sc 0.75668 0.1761 0.21859 0.0
Sc397 Sc 0.59677 0.09983 0.20876 0.0
Sc398 Sc 0.67088 0.24035 0.24671 0.0
O399 O 0.67687 0.17184 0.22526 0.0
C400 C 0.76132 0.22897 0.32338 0.0
C401 C 0.669 0.03824 0.24106 0.0
C402 C 0.57729 0.14348 0.30743 0.0
C403 C 0.68185 0.12696 0.11784 0.0
C404 C 0.79445 0.3119 0.19425 0.0
C405 C 0.56958 0.20096 0.17904 0.0
O406 O 0.78394 0.20862 0.29272 0.0
O407 O 0.62974 0.0385 0.21387 0.0
O408 O 0.58746 0.18652 0.28034 0.0
O409 O 0.72888 0.14398 0.14429 0.0
O410 O 0.74807 0.3036 0.21523 0.0
O411 O 0.54635 0.14781 0.19519 0.0
O412 O 0.80694 0.26991 0.18932 0.0
O413 O 0.6294 0.11224 0.13444 0.0
O414 O 0.62634 0.23047 0.17749 0.0
O415 O 0.71693 0.08652 0.25149 0.0
O416 O 0.72015 0.24177 0.31228 0.0
O417 O 0.57586 0.09693 0.28867 0.0
Sc418 Sc 0.85631 0.58711 0.21857 0.0
Sc419 Sc 0.93252 0.50341 0.20878 0.0
Sc420 Sc 0.79199 0.43706 0.24673 0.0
O421 O 0.86053 0.51155 0.22525 0.0
C422 C 0.80345 0.53894 0.32337 0.0
C423 C 0.99417 0.63725 0.24106 0.0
C424 C 0.88884 0.44029 0.30746 0.0
C425 C 0.90544 0.56139 0.11784 0.0
C426 C 0.72049 0.48912 0.19424 0.0
C427 C 0.83137 0.37514 0.17906 0.0
O428 O 0.8238 0.5819 0.29269 0.0
O429 O 0.99391 0.59771 0.2139 0.0
O430 O 0.84579 0.40744 0.28038 0.0
O431 O 0.88843 0.5914 0.14427 0.0
O432 O 0.72876 0.45104 0.21525 0.0
O433 O 0.88452 0.40503 0.19522 0.0
O434 O 0.7625 0.54358 0.18928 0.0
O435 O 0.92015 0.52365 0.13445 0.0
O436 O 0.80179 0.40231 0.17753 0.0
O437 O 0.9459 0.63693 0.25146 0.0
O438 O 0.79063 0.48496 0.31228 0.0
O439 O 0.93541 0.48539 0.28869 0.0
Sc440 Sc 0.44531 0.27574 0.21857 0.0
Sc441 Sc 0.52899 0.43565 0.20876 0.0
Sc442 Sc 0.59539 0.36149 0.24666 0.0
O443 O 0.52088 0.35553 0.22523 0.0
C444 C 0.49355 0.27106 0.32334 0.0
C445 C 0.39516 0.36344 0.24106 0.0
C446 C 0.59215 0.45509 0.30742 0.0
C447 C 0.47102 0.35057 0.11783 0.0
C448 C 0.54329 0.23792 0.19419 0.0
C449 C 0.65726 0.46282 0.17902 0.0
O450 O 0.45056 0.24847 0.29269 0.0
O451 O 0.43468 0.40271 0.21389 0.0
O452 O 0.625 0.44489 0.28034 0.0
O453 O 0.44101 0.30355 0.14427 0.0
O454 O 0.58141 0.28431 0.21514 0.0
O455 O 0.62737 0.48607 0.19519 0.0
O456 O 0.48882 0.22543 0.18931 0.0
O457 O 0.50874 0.40302 0.13443 0.0
O458 O 0.63009 0.40606 0.17746 0.0
O459 O 0.3955 0.3155 0.25147 0.0
O460 O 0.54753 0.3122 0.31222 0.0
O461 O 0.54703 0.45654 0.28867 0.0
Sc462 Sc 0.51588 0.41689 0.96407 0.0
Sc463 Sc 0.43965 0.25697 0.97389 0.0
Sc464 Sc 0.58017 0.33114 0.93593 0.0
O465 O 0.51164 0.3371 0.95739 0.0
C466 C 0.56878 0.4216 0.85928 0.0
C467 C 0.37801 0.3292 0.94167 0.0
C468 C 0.48331 0.23755 0.87521 0.0
C469 C 0.46674 0.34204 0.06481 0.0
C470 C 0.65169 0.45469 0.98841 0.0
C471 C 0.5408 0.22982 1.00359 0.0
O472 O 0.54839 0.44418 0.88994 0.0
O473 O 0.37827 0.28989 0.96879 0.0
O474 O 0.52636 0.24773 0.90228 0.0
O475 O 0.48378 0.38907 0.03837 0.0
O476 O 0.6434 0.40831 0.96742 0.0
O477 O 0.48765 0.20658 0.98744 0.0
O478 O 0.6097 0.46716 0.99334 0.0
O479 O 0.45205 0.2896 0.04821 0.0
O480 O 0.57031 0.28658 1.00513 0.0
O481 O 0.42628 0.37712 0.93119 0.0
O482 O 0.58159 0.38043 0.87037 0.0
O483 O 0.43675 0.23608 0.89398 0.0
Sc484 Sc 0.61555 0.10552 0.96408 0.0
Sc485 Sc 0.77548 0.18919 0.97391 0.0
Sc486 Sc 0.70133 0.25559 0.93601 0.0
O487 O 0.69535 0.18107 0.95742 0.0
C488 C 0.61086 0.15377 0.85931 0.0
C489 C 0.70323 0.05534 0.94167 0.0
C490 C 0.7949 0.2523 0.87524 0.0
C491 C 0.69039 0.13121 0.06482 0.0
C492 C 0.57776 0.20353 0.98846 0.0
C493 C 0.80268 0.31749 1.00363 0.0
O494 O 0.58829 0.11077 0.88995 0.0
O495 O 0.74255 0.09489 0.96879 0.0
O496 O 0.78473 0.28517 0.90232 0.0
O497 O 0.64336 0.10123 0.03839 0.0
O498 O 0.62418 0.24164 0.96755 0.0
O499 O 0.8259 0.28757 0.98747 0.0
O500 O 0.56524 0.14904 0.99332 0.0
O501 O 0.74284 0.16895 0.04823 0.0
O502 O 0.74593 0.29025 1.0052 0.0
O503 O 0.65532 0.0557 0.9312 0.0
O504 O 0.652 0.20774 0.87044 0.0
O505 O 0.79636 0.2072 0.894 0.0
Sc506 Sc 0.92693 0.51654 0.96409 0.0
Sc507 Sc 0.8432 0.59273 0.97388 0.0
Sc508 Sc 0.77686 0.45218 0.93598 0.0
O509 O 0.85135 0.52075 0.95741 0.0
C510 C 0.87873 0.4636 0.85932 0.0
C511 C 0.97707 0.6544 0.94167 0.0
C512 C 0.78009 0.54901 0.87521 0.0
C513 C 0.9012 0.56567 0.06482 0.0
C514 C 0.82896 0.38073 0.98846 0.0
C515 C 0.71493 0.49161 1.00361 0.0
O516 O 0.92172 0.48404 0.88996 0.0
O517 O 0.93748 0.65415 0.96876 0.0
O518 O 0.74723 0.50595 0.90228 0.0
O519 O 0.93119 0.54863 0.03839 0.0
O520 O 0.79084 0.389 0.96752 0.0
O521 O 0.74481 0.54474 0.98743 0.0
O522 O 0.88344 0.42273 0.99334 0.0
O523 O 0.86345 0.58036 0.04821 0.0
O524 O 0.74211 0.46203 1.00516 0.0
O525 O 0.97674 0.60614 0.93122 0.0
O526 O 0.82475 0.45075 0.87043 0.0
O527 O 0.82518 0.59559 0.89397 0.0
Sc528 Sc 0.36805 0.78563 0.76929 0.0
Sc529 Sc 0.44218 0.92615 0.80726 0.0
Sc530 Sc 0.28227 0.84991 0.7974 0.0
O531 O 0.36207 0.85416 0.79074 0.0
C532 C 0.27762 0.79703 0.69261 0.0
C533 C 0.46164 0.8825 0.70858 0.0
C534 C 0.36996 0.98777 0.775 0.0
C535 C 0.46936 0.82501 0.83696 0.0
C536 C 0.24447 0.7141 0.82174 0.0
C537 C 0.35706 0.89901 0.89816 0.0
O538 O 0.31877 0.78422 0.70372 0.0
O539 O 0.46309 0.92906 0.72734 0.0
O540 O 0.32203 0.93951 0.76453 0.0
O541 O 0.4126 0.79549 0.8385 0.0
O542 O 0.232 0.7561 0.82666 0.0
O543 O 0.40952 0.91373 0.88157 0.0
O544 O 0.29086 0.72239 0.80078 0.0
O545 O 0.49258 0.87816 0.82082 0.0
O546 O 0.31005 0.88201 0.8717 0.0
O547 O 0.45147 0.83946 0.73566 0.0
O548 O 0.25502 0.81741 0.72327 0.0
O549 O 0.40926 0.98753 0.80214 0.0
Sc550 Sc 0.24688 0.58892 0.76927 0.0
Sc551 Sc 0.10634 0.5226 0.80723 0.0
Sc552 Sc 0.18252 0.43886 0.79742 0.0
O553 O 0.17832 0.51444 0.79075 0.0
C554 C 0.23539 0.48704 0.69262 0.0
C555 C 0.15003 0.5857 0.70855 0.0
C556 C 0.04467 0.38874 0.775 0.0
C557 C 0.20751 0.65087 0.83694 0.0
C558 C 0.31835 0.53684 0.82176 0.0
C559 C 0.13343 0.46459 0.89816 0.0
O560 O 0.24823 0.54102 0.70372 0.0
O561 O 0.10345 0.54061 0.72732 0.0
O562 O 0.09292 0.38904 0.76456 0.0
O563 O 0.2371 0.6237 0.83846 0.0
O564 O 0.27633 0.48238 0.8267 0.0
O565 O 0.11873 0.50234 0.88156 0.0
O566 O 0.31009 0.57493 0.80075 0.0
O567 O 0.15435 0.62097 0.82079 0.0
O568 O 0.15043 0.43457 0.87172 0.0
O569 O 0.19308 0.61855 0.73563 0.0
O570 O 0.21502 0.44407 0.72329 0.0
O571 O 0.04492 0.42831 0.8021 0.0
Sc572 Sc 0.44348 0.66443 0.76934 0.0
Sc573 Sc 0.50985 0.59025 0.80726 0.0
Sc574 Sc 0.59356 0.75016 0.79742 0.0
O575 O 0.51798 0.67037 0.79077 0.0
C576 C 0.54532 0.75484 0.69265 0.0
C577 C 0.44671 0.57082 0.70859 0.0
C578 C 0.6437 0.66245 0.77501 0.0
C579 C 0.38157 0.56309 0.83699 0.0
C580 C 0.49559 0.788 0.8218 0.0
C581 C 0.56785 0.67536 0.89817 0.0
O582 O 0.49134 0.71372 0.70378 0.0
O583 O 0.49181 0.56935 0.72735 0.0
O584 O 0.64338 0.71038 0.76456 0.0
O585 O 0.40874 0.61985 0.83853 0.0
O586 O 0.55007 0.80048 0.82667 0.0
O587 O 0.53012 0.6229 0.88158 0.0
O588 O 0.45746 0.74161 0.80087 0.0
O589 O 0.41148 0.53985 0.82082 0.0
O590 O 0.59786 0.72237 0.87172 0.0
O591 O 0.41386 0.58102 0.73567 0.0
O592 O 0.58832 0.77742 0.72329 0.0
O593 O 0.60414 0.62313 0.80212 0.0
Sc594 Sc 0.45872 0.69485 0.08006 0.0
Sc595 Sc 0.59924 0.769 0.04209 0.0
Sc596 Sc 0.52303 0.6091 0.05193 0.0
O597 O 0.52725 0.68889 0.0586 0.0
C598 C 0.47014 0.60442 0.15672 0.0
C599 C 0.55559 0.78844 0.14078 0.0
C600 C 0.66088 0.69681 0.07433 0.0
C601 C 0.4981 0.79618 0.0124 0.0
C602 C 0.38721 0.5713 0.02759 0.0
C603 C 0.57213 0.6839 0.95118 0.0
O604 O 0.45732 0.64557 0.14562 0.0
O605 O 0.60215 0.7899 0.12201 0.0
O606 O 0.61263 0.64888 0.08481 0.0
O607 O 0.46857 0.73942 0.01086 0.0
O608 O 0.42921 0.55883 0.02267 0.0
O609 O 0.58682 0.73635 0.96777 0.0
O610 O 0.39549 0.61767 0.04856 0.0
O611 O 0.55125 0.8194 0.02854 0.0
O612 O 0.55512 0.63689 0.97763 0.0
O613 O 0.51254 0.77827 0.1137 0.0
O614 O 0.49052 0.58182 0.12606 0.0
O615 O 0.66062 0.73608 0.04718 0.0
Sc616 Sc 0.33752 0.77036 0.07998 0.0
Sc617 Sc 0.26339 0.83677 0.04207 0.0
Sc618 Sc 0.42331 0.92043 0.05193 0.0
O619 O 0.34351 0.84488 0.05857 0.0
C620 C 0.42797 0.87217 0.15669 0.0
C621 C 0.24396 0.77365 0.14075 0.0
C622 C 0.33561 0.97059 0.07433 0.0
C623 C 0.23616 0.70845 0.01235 0.0
C624 C 0.4611 0.82243 0.02753 0.0
C625 C 0.34851 0.89475 0.95117 0.0
O626 O 0.38684 0.8182 0.14556 0.0
O627 O 0.2425 0.81876 0.12199 0.0
O628 O 0.38353 0.97025 0.0848 0.0
O629 O 0.29292 0.73567 0.01079 0.0
O630 O 0.47361 0.87692 0.02269 0.0
O631 O 0.29605 0.85701 0.96775 0.0
O632 O 0.41468 0.78431 0.04844 0.0
O633 O 0.21296 0.73839 0.02852 0.0
O634 O 0.39553 0.92474 0.97762 0.0
O635 O 0.25413 0.74078 0.11367 0.0
O636 O 0.45055 0.91518 0.12606 0.0
O637 O 0.29633 0.93106 0.04717 0.0
Sc638 Sc 0.26204 0.57377 0.08001 0.0
Sc639 Sc 0.1957 0.43322 0.0421 0.0
Sc640 Sc 0.11196 0.5094 0.05191 0.0
O641 O 0.18755 0.5052 0.05857 0.0
C642 C 0.16017 0.56232 0.15668 0.0
C643 C 0.25881 0.47693 0.14078 0.0
C644 C 0.06185 0.37155 0.07433 0.0
C645 C 0.32397 0.53434 0.01238 0.0
C646 C 0.20993 0.64521 0.02753 0.0
C647 C 0.13768 0.4603 0.95117 0.0
O648 O 0.21416 0.57519 0.14557 0.0
O649 O 0.21372 0.43036 0.12201 0.0
O650 O 0.06215 0.4198 0.08479 0.0
O651 O 0.29681 0.56394 0.01083 0.0
O652 O 0.15545 0.60321 0.02266 0.0
O653 O 0.17544 0.44561 0.96777 0.0
O654 O 0.24806 0.63695 0.04847 0.0
O655 O 0.29407 0.4812 0.02855 0.0
O656 O 0.10768 0.47732 0.97761 0.0
O657 O 0.29167 0.51999 0.11371 0.0
O658 O 0.11718 0.54189 0.12604 0.0
O659 O 0.10141 0.37181 0.0472 0.0
Sc660 Sc 0.4233 0.5094 0.55193 0.0
Sc661 Sc 0.26338 0.43316 0.54209 0.0
Sc662 Sc 0.33753 0.57368 0.58005 0.0
O663 O 0.3435 0.50514 0.5586 0.0
C664 C 0.42795 0.56227 0.65672 0.0
C665 C 0.33562 0.37153 0.57433 0.0
C666 C 0.24391 0.47682 0.64076 0.0
C667 C 0.34849 0.46028 0.45118 0.0
C668 C 0.46109 0.64521 0.52759 0.0
C669 C 0.23623 0.53431 0.51237 0.0
O670 O 0.45056 0.54189 0.62607 0.0
O671 O 0.29627 0.37176 0.54724 0.0
O672 O 0.2541 0.51986 0.61367 0.0
O673 O 0.39551 0.47731 0.47762 0.0
O674 O 0.41471 0.63691 0.54857 0.0
O675 O 0.21299 0.48115 0.52851 0.0
O676 O 0.47357 0.60322 0.52267 0.0
O677 O 0.29604 0.44555 0.46777 0.0
O678 O 0.29299 0.56381 0.51083 0.0
O679 O 0.38354 0.4198 0.58479 0.0
O680 O 0.3868 0.57508 0.64562 0.0
O681 O 0.24246 0.43026 0.622 0.0
Sc682 Sc 0.52301 0.92043 0.55191 0.0
Sc683 Sc 0.5992 0.8367 0.54211 0.0
Sc684 Sc 0.45866 0.77038 0.58007 0.0
O685 O 0.52722 0.84486 0.5586 0.0
C686 C 0.47015 0.87227 0.65671 0.0
C687 C 0.66088 0.97059 0.57433 0.0
C688 C 0.55551 0.77358 0.64079 0.0
C689 C 0.57212 0.89471 0.45118 0.0
C690 C 0.38719 0.82246 0.52758 0.0
C691 C 0.49802 0.70844 0.5124 0.0
O692 O 0.49052 0.91524 0.62604 0.0
O693 O 0.66064 0.93097 0.54728 0.0
O694 O 0.51245 0.74073 0.61371 0.0
O695 O 0.5551 0.92471 0.47761 0.0
O696 O 0.39545 0.78437 0.54859 0.0
O697 O 0.55117 0.73832 0.52854 0.0
O698 O 0.4292 0.87691 0.52263 0.0
O699 O 0.58683 0.85697 0.46778 0.0
O700 O 0.46844 0.73563 0.51087 0.0
O701 O 0.61262 0.97027 0.58476 0.0
O702 O 0.45731 0.81829 0.64562 0.0
O703 O 0.60208 0.81867 0.62202 0.0
Sc704 Sc 0.11199 0.60911 0.55191 0.0
Sc705 Sc 0.1957 0.76904 0.54209 0.0
Sc706 Sc 0.26206 0.69484 0.58 0.0
O707 O 0.18756 0.68891 0.55857 0.0
C708 C 0.16022 0.60443 0.65668 0.0
C709 C 0.06182 0.69682 0.57433 0.0
C710 C 0.25886 0.78847 0.64075 0.0
C711 C 0.1377 0.68394 0.45117 0.0
C712 C 0.20996 0.57128 0.52754 0.0
C713 C 0.32396 0.79616 0.51235 0.0
O714 O 0.11722 0.58186 0.62604 0.0
O715 O 0.10142 0.73618 0.54726 0.0
O716 O 0.2917 0.77826 0.61367 0.0
O717 O 0.1077 0.63691 0.4776 0.0
O718 O 0.24808 0.61767 0.54848 0.0
O719 O 0.29408 0.81942 0.52851 0.0
O720 O 0.15548 0.55879 0.52266 0.0
O721 O 0.17542 0.73639 0.46777 0.0
O722 O 0.29678 0.73941 0.5108 0.0
O723 O 0.06216 0.64889 0.58477 0.0
O724 O 0.2142 0.64556 0.64556 0.0
O725 O 0.21376 0.78994 0.622 0.0
Sc726 Sc 0.18254 0.75022 0.29741 0.0
Sc727 Sc 0.10632 0.5903 0.30723 0.0
Sc728 Sc 0.24684 0.66446 0.26927 0.0
O729 O 0.17831 0.67043 0.29073 0.0
C730 C 0.23542 0.7549 0.19261 0.0
C731 C 0.04468 0.66252 0.275 0.0
C732 C 0.14998 0.57086 0.20855 0.0
C733 C 0.13342 0.6754 0.39815 0.0
C734 C 0.31836 0.78801 0.32174 0.0
C735 C 0.20747 0.56316 0.33693 0.0
O736 O 0.21504 0.7775 0.22327 0.0
O737 O 0.04493 0.62321 0.30212 0.0
O738 O 0.19303 0.58105 0.23563 0.0
O739 O 0.15045 0.72242 0.37171 0.0
O740 O 0.31007 0.74164 0.30076 0.0
O741 O 0.15432 0.53991 0.32079 0.0
O742 O 0.27636 0.80049 0.32667 0.0
O743 O 0.11873 0.62295 0.38155 0.0
O744 O 0.23698 0.61991 0.33847 0.0
O745 O 0.09294 0.71044 0.26453 0.0
O746 O 0.24824 0.71374 0.20371 0.0
O747 O 0.10341 0.5694 0.22732 0.0
Sc748 Sc 0.28222 0.43886 0.29741 0.0
Sc749 Sc 0.44215 0.52253 0.30725 0.0
Sc750 Sc 0.36801 0.58893 0.26934 0.0
O751 O 0.36203 0.51441 0.29076 0.0
C752 C 0.27755 0.48711 0.19265 0.0
C753 C 0.36991 0.38868 0.27501 0.0
C754 C 0.46159 0.58566 0.20858 0.0
C755 C 0.35704 0.46454 0.39816 0.0
C756 C 0.24443 0.53686 0.3218 0.0
C757 C 0.46935 0.65083 0.33698 0.0
O758 O 0.25498 0.44411 0.22328 0.0
O759 O 0.40923 0.42824 0.30213 0.0
O760 O 0.45141 0.61852 0.23566 0.0
O761 O 0.31001 0.43455 0.37172 0.0
O762 O 0.29085 0.57498 0.30088 0.0
O763 O 0.49257 0.62091 0.32082 0.0
O764 O 0.23191 0.48237 0.32665 0.0
O765 O 0.40949 0.50228 0.38157 0.0
O766 O 0.41259 0.62359 0.33855 0.0
O767 O 0.32199 0.38904 0.26454 0.0
O768 O 0.31869 0.54109 0.20377 0.0
O769 O 0.46305 0.54055 0.22734 0.0
Sc770 Sc 0.59359 0.84988 0.29742 0.0
Sc771 Sc 0.50985 0.92606 0.30723 0.0
Sc772 Sc 0.44352 0.78552 0.26932 0.0
O773 O 0.51801 0.85408 0.29075 0.0
C774 C 0.54539 0.79696 0.19265 0.0
C775 C 0.64373 0.98774 0.27501 0.0
C776 C 0.44673 0.88234 0.20855 0.0
C777 C 0.56787 0.89899 0.39816 0.0
C778 C 0.49563 0.71407 0.3218 0.0
C779 C 0.38159 0.82493 0.33695 0.0
O780 O 0.58838 0.81739 0.22329 0.0
O781 O 0.60414 0.98748 0.30209 0.0
O782 O 0.41388 0.83928 0.23562 0.0
O783 O 0.59787 0.88196 0.37173 0.0
O784 O 0.45751 0.72234 0.30085 0.0
O785 O 0.41148 0.87807 0.32078 0.0
O786 O 0.5501 0.75606 0.32668 0.0
O787 O 0.53012 0.91369 0.38155 0.0
O788 O 0.40877 0.79535 0.3385 0.0
O789 O 0.6434 0.93948 0.26455 0.0
O790 O 0.49141 0.7841 0.20376 0.0
O791 O 0.49182 0.92892 0.22732 0.0
loop_
_geom_bond_atom_site_label_1
_geom_bond_atom_site_label_2
_geom_bond_distance
_geom_bond_site_symmetry_2
_ccdc_geom_bond_type
Sc0 O3 2.025 . S
Sc0 O10 2.105 1_455 S
Sc0 O13 2.105 . S
Sc0 O16 2.105 1_455 S
Sc0 O19 2.105 . S
Sc1 O3 2.025 . S
Sc1 O11 2.105 . S
Sc1 O15 2.105 . S
Sc1 O17 2.105 . S
Sc1 O21 2.105 . S
Sc2 O3 2.025 1_655 S
Sc2 O12 2.105 1_655 S
Sc2 O14 2.105 . S
Sc2 O18 2.105 . S
Sc2 O20 2.105 . S
O3 Sc0 2.025 . S
O3 Sc1 2.025 . S
O3 Sc2 2.025 1_455 S
C4 O10 1.268 . S
C4 O20 1.268 . S
C5 O11 1.268 . S
C5 O19 1.268 . S
C6 O12 1.268 . S
C6 O21 1.268 . S
C7 O13 1.268 . S
C7 O17 1.268 . S
C8 O14 1.268 . S
C8 O16 1.268 . S
C9 O15 1.268 . S
C9 O18 1.268 1_455 S
O10 Sc0 2.105 1_655 S
O10 C4 1.268 . S
O11 Sc1 2.105 . S
O11 C5 1.268 . S
O12 Sc2 2.105 1_455 S
O12 C6 1.268 . S
O13 Sc0 2.105 . S
O13 C7 1.268 . S
O14 Sc2 2.105 . S
O14 C8 1.268 . S
O15 Sc1 2.105 . S
O15 C9 1.268 . S
O16 Sc0 2.105 1_655 S
O16 C8 1.268 . S
O17 Sc1 2.105 . S
O17 C7 1.268 . S
O18 Sc2 2.105 . S
O18 C9 1.268 1_655 S
O19 Sc0 2.105 . S
O19 C5 1.268 . S
O20 Sc2 2.105 . S
O20 C4 1.268 . S
O21 Sc1 2.105 . S
O21 C6 1.268 . S
Sc22 O25 2.025 . S
Sc22 O32 2.105 . S
Sc22 O35 2.105 . S
Sc22 O38 2.105 . S
Sc22 O41 2.105 . S
Sc23 O25 2.025 . S
Sc23 O33 2.105 . S
Sc23 O37 2.105 . S
Sc23 O39 2.105 . S
Sc23 O43 2.105 . S
Sc24 O25 2.025 . S
Sc24 O34 2.105 . S
Sc24 O36 2.105 . S
Sc24 O40 2.105 . S
Sc24 O42 2.105 . S
O25 Sc22 2.025 . S
O25 Sc23 2.025 . S
O25 Sc24 2.025 . S
C26 O32 1.268 . S
C26 O42 1.268 . S
C27 O33 1.268 . S
C27 O41 1.268 . S
C28 O34 1.268 . S
C28 O43 1.268 . S
C29 O35 1.268 . S
C29 O39 1.268 . S
C30 O36 1.268 . S
C30 O38 1.268 . S
C31 O37 1.268 . S
C31 O40 1.268 . S
O32 Sc22 2.105 . S
O32 C26 1.268 . S
O33 Sc23 2.105 . S
O33 C27 1.268 . S
O34 Sc24 2.105 . S
O34 C28 1.268 . S
O35 Sc22 2.105 . S
O35 C29 1.268 . S
O36 Sc24 2.105 . S
O36 C30 1.268 . S
O37 Sc23 2.105 . S
O37 C31 1.268 . S
O38 Sc22 2.105 . S
O38 C30 1.268 . S
O39 Sc23 2.105 . S
O39 C29 1.268 . S
O40 Sc24 2.105 . S
O40 C31 1.268 . S
O41 Sc22 2.105 . S
O41 C27 1.268 . S
O42 Sc24 2.105 . S
O42 C26 1.268 . S
O43 Sc23 2.105 . S
O43 C28 1.268 . S
Sc44 O47 2.025 . S
Sc44 O54 2.105 1_565 S
Sc44 O57 2.105 . S
Sc44 O60 2.105 1_565 S
Sc44 O63 2.105 . S
Sc45 O47 2.025 . S
Sc45 O55 2.105 . S
Sc45 O59 2.105 . S
Sc45 O61 2.105 . S
Sc45 O65 2.105 . S
Sc46 O47 2.025 1_545 S
Sc46 O56 2.105 1_545 S
Sc46 O58 2.105 . S
Sc46 O62 2.105 . S
Sc46 O64 2.105 . S
O47 Sc44 2.025 . S
O47 Sc45 2.025 . S
O47 Sc46 2.025 1_565 S
C48 O54 1.268 . S
C48 O64 1.268 . S
C49 O55 1.268 . S
C49 O63 1.268 . S
C50 O56 1.268 . S
C50 O65 1.268 . S
C51 O57 1.268 . S
C51 O61 1.268 . S
C52 O58 1.268 . S
C52 O60 1.268 . S
C53 O59 1.268 . S
C53 O62 1.268 1_565 S
O54 Sc44 2.105 1_545 S
O54 C48 1.268 . S
O55 Sc45 2.105 . S
O55 C49 1.268 . S
O56 Sc46 2.105 1_565 S
O56 C50 1.268 . S
O57 Sc44 2.105 . S
O57 C51 1.268 . S
O58 Sc46 2.105 . S
O58 C52 1.268 . S
O59 Sc45 2.105 . S
O59 C53 1.268 . S
O60 Sc44 2.105 1_545 S
O60 C52 1.268 . S
O61 Sc45 2.105 . S
O61 C51 1.268 . S
O62 Sc46 2.105 . S
O62 C53 1.268 1_545 S
O63 Sc44 2.105 . S
O63 C49 1.268 . S
O64 Sc46 2.105 . S
O64 C48 1.268 . S
O65 Sc45 2.105 . S
O65 C50 1.268 . S
Sc66 O69 2.025 . S
Sc66 O76 2.105 1_545 S
Sc66 O79 2.105 . S
Sc66 O82 2.105 1_545 S
Sc66 O85 2.105 . S
Sc67 O69 2.025 . S
Sc67 O77 2.105 . S
Sc67 O81 2.105 . S
Sc67 O83 2.105 . S
Sc67 O87 2.105 . S
Sc68 O69 2.025 1_565 S
Sc68 O78 2.105 1_565 S
Sc68 O80 2.105 . S
Sc68 O84 2.105 . S
Sc68 O86 2.105 . S
O69 Sc66 2.025 . S
O69 Sc67 2.025 . S
O69 Sc68 2.025 1_545 S
C70 O76 1.268 . S
C70 O86 1.268 . S
C71 O77 1.268 . S
C71 O85 1.268 . S
C72 O78 1.268 . S
C72 O87 1.268 . S
C73 O79 1.268 . S
C73 O83 1.268 . S
C74 O80 1.268 . S
C74 O82 1.268 . S
C75 O81 1.268 . S
C75 O84 1.268 1_545 S
O76 Sc66 2.105 1_565 S
O76 C70 1.268 . S
O77 Sc67 2.105 . S
O77 C71 1.268 . S
O78 Sc68 2.105 1_545 S
O78 C72 1.268 . S
O79 Sc66 2.105 . S
O79 C73 1.268 . S
O80 Sc68 2.105 . S
O80 C74 1.268 . S
O81 Sc67 2.105 . S
O81 C75 1.268 . S
O82 Sc66 2.105 1_565 S
O82 C74 1.268 . S
O83 Sc67 2.105 . S
O83 C73 1.268 . S
O84 Sc68 2.105 . S
O84 C75 1.268 1_565 S
O85 Sc66 2.105 . S
O85 C71 1.268 . S
O86 Sc68 2.105 . S
O86 C70 1.268 . S
O87 Sc67 2.105 . S
O87 C72 1.268 . S
Sc88 O91 2.025 . S
Sc88 O98 2.105 1_655 S
Sc88 O101 2.105 . S
Sc88 O104 2.105 1_655 S
Sc88 O107 2.105 . S
Sc89 O91 2.025 . S
Sc89 O99 2.105 . S
Sc89 O103 2.105 . S
Sc89 O105 2.105 . S
Sc89 O109 2.105 . S
Sc90 O91 2.025 1_455 S
Sc90 O100 2.105 1_455 S
Sc90 O102 2.105 . S
Sc90 O106 2.105 . S
Sc90 O108 2.105 . S
O91 Sc88 2.025 . S
O91 Sc89 2.025 . S
O91 Sc90 2.025 1_655 S
C92 O98 1.268 . S
C92 O108 1.268 . S
C93 O99 1.268 . S
C93 O107 1.268 . S
C94 O100 1.268 . S
C94 O109 1.268 . S
C95 O101 1.268 . S
C95 O105 1.268 . S
C96 O102 1.268 . S
C96 O104 1.268 . S
C97 O103 1.268 . S
C97 O106 1.268 1_655 S
O98 Sc88 2.105 1_455 S
O98 C92 1.268 . S
O99 Sc89 2.105 . S
O99 C93 1.268 . S
O100 Sc90 2.105 1_655 S
O100 C94 1.268 . S
O101 Sc88 2.105 . S
O101 C95 1.268 . S
O102 Sc90 2.105 . S
O102 C96 1.268 . S
O103 Sc89 2.105 . S
O103 C97 1.268 . S
O104 Sc88 2.105 1_455 S
O104 C96 1.268 . S
O105 Sc89 2.105 . S
O105 C95 1.268 . S
O106 Sc90 2.105 . S
O106 C97 1.268 1_455 S
O107 Sc88 2.105 . S
O107 C93 1.268 . S
O108 Sc90 2.105 . S
O108 C92 1.268 . S
O109 Sc89 2.105 . S
O109 C94 1.268 . S
Sc110 O113 2.025 . S
Sc110 O120 2.105 . S
Sc110 O123 2.105 . S
Sc110 O126 2.105 . S
Sc110 O129 2.105 . S
Sc111 O113 2.025 . S
Sc111 O121 2.105 . S
Sc111 O125 2.105 . S
Sc111 O127 2.105 . S
Sc111 O131 2.105 . S
Sc112 O113 2.025 . S
Sc112 O122 2.105 . S
Sc112 O124 2.105 . S
Sc112 O128 2.105 . S
Sc112 O130 2.105 . S
O113 Sc110 2.025 . S
O113 Sc111 2.025 . S
O113 Sc112 2.025 . S
C114 O120 1.268 . S
C114 O130 1.268 . S
C115 O121 1.268 . S
C115 O129 1.268 . S
C116 O122 1.268 . S
C116 O131 1.268 . S
C117 O123 1.268 . S
C117 O127 1.268 . S
C118 O124 1.268 . S
C118 O126 1.268 . S
C119 O125 1.268 . S
C119 O128 1.268 . S
O120 Sc110 2.105 . S
O120 C114 1.268 . S
O121 Sc111 2.105 . S
O121 C115 1.268 . S
O122 Sc112 2.105 . S
O122 C116 1.268 . S
O123 Sc110 2.105 . S
O123 C117 1.268 . S
O124 Sc112 2.105 . S
O124 C118 1.268 . S
O125 Sc111 2.105 . S
O125 C119 1.268 . S
O126 Sc110 2.105 . S
O126 C118 1.268 . S
O127 Sc111 2.105 . S
O127 C117 1.268 . S
O128 Sc112 2.105 . S
O128 C119 1.268 . S
O129 Sc110 2.105 . S
O129 C115 1.268 . S
O130 Sc112 2.105 . S
O130 C114 1.268 . S
O131 Sc111 2.105 . S
O131 C116 1.268 . S
Sc132 O135 2.025 1_455 S
Sc132 O142 2.105 . S
Sc132 O145 2.105 . S
Sc132 O148 2.105 . S
Sc132 O151 2.105 1_455 S
Sc133 O135 2.025 . S
Sc133 O143 2.105 . S
Sc133 O147 2.105 . S
Sc133 O149 2.105 . S
Sc133 O153 2.105 . S
Sc134 O135 2.025 . S
Sc134 O144 2.105 . S
Sc134 O146 2.105 1_655 S
Sc134 O150 2.105 . S
Sc134 O152 2.105 1_655 S
O135 Sc132 2.025 1_655 S
O135 Sc133 2.025 . S
O135 Sc134 2.025 . S
C136 O142 1.268 . S
C136 O152 1.268 . S
C137 O143 1.268 . S
C137 O151 1.268 . S
C138 O144 1.268 . S
C138 O153 1.268 . S
C139 O145 1.268 1_655 S
C139 O149 1.268 . S
C140 O146 1.268 . S
C140 O148 1.268 . S
C141 O147 1.268 . S
C141 O150 1.268 . S
O142 Sc132 2.105 . S
O142 C136 1.268 . S
O143 Sc133 2.105 . S
O143 C137 1.268 . S
O144 Sc134 2.105 . S
O144 C138 1.268 . S
O145 Sc132 2.105 . S
O145 C139 1.268 1_455 S
O146 Sc134 2.105 1_455 S
O146 C140 1.268 . S
O147 Sc133 2.105 . S
O147 C141 1.268 . S
O148 Sc132 2.105 . S
O148 C140 1.268 . S
O149 Sc133 2.105 . S
O149 C139 1.268 . S
O150 Sc134 2.105 . S
O150 C141 1.268 . S
O151 Sc132 2.105 1_655 S
O151 C137 1.268 . S
O152 Sc134 2.105 1_455 S
O152 C136 1.268 . S
O153 Sc133 2.105 . S
O153 C138 1.268 . S
Sc154 O157 2.025 . S
Sc154 O164 2.105 . S
Sc154 O167 2.105 . S
Sc154 O170 2.105 . S
Sc154 O173 2.105 . S
Sc155 O157 2.025 . S
Sc155 O165 2.105 . S
Sc155 O169 2.105 . S
Sc155 O171 2.105 . S
Sc155 O175 2.105 . S
Sc156 O157 2.025 . S
Sc156 O166 2.105 . S
Sc156 O168 2.105 . S
Sc156 O172 2.105 . S
Sc156 O174 2.105 . S
O157 Sc154 2.025 . S
O157 Sc155 2.025 . S
O157 Sc156 2.025 . S
C158 O164 1.268 . S
C158 O174 1.268 . S
C159 O165 1.268 . S
C159 O173 1.268 . S
C160 O166 1.268 . S
C160 O175 1.268 . S
C161 O167 1.268 . S
C161 O171 1.268 . S
C162 O168 1.268 . S
C162 O170 1.268 . S
C163 O169 1.268 . S
C163 O172 1.268 . S
O164 Sc154 2.105 . S
O164 C158 1.268 . S
O165 Sc155 2.105 . S
O165 C159 1.268 . S
O166 Sc156 2.105 . S
O166 C160 1.268 . S
O167 Sc154 2.105 . S
O167 C161 1.268 . S
O168 Sc156 2.105 . S
O168 C162 1.268 . S
O169 Sc155 2.105 . S
O169 C163 1.268 . S
O170 Sc154 2.105 . S
O170 C162 1.268 . S
O171 Sc155 2.105 . S
O171 C161 1.268 . S
O172 Sc156 2.105 . S
O172 C163 1.268 . S
O173 Sc154 2.105 . S
O173 C159 1.268 . S
O174 Sc156 2.105 . S
O174 C158 1.268 . S
O175 Sc155 2.105 . S
O175 C160 1.268 . S
Sc176 O179 2.025 1_565 S
Sc176 O186 2.105 . S
Sc176 O189 2.105 . S
Sc176 O192 2.105 . S
Sc176 O195 2.105 1_565 S
Sc177 O179 2.025 . S
Sc177 O187 2.105 . S
Sc177 O191 2.105 . S
Sc177 O193 2.105 . S
Sc177 O197 2.105 . S
Sc178 O179 2.025 . S
Sc178 O188 2.105 . S
Sc178 O190 2.105 1_545 S
Sc178 O194 2.105 . S
Sc178 O196 2.105 1_545 S
O179 Sc176 2.025 1_545 S
O179 Sc177 2.025 . S
O179 Sc178 2.025 . S
C180 O186 1.268 . S
C180 O196 1.268 . S
C181 O187 1.268 . S
C181 O195 1.268 . S
C182 O188 1.268 . S
C182 O197 1.268 . S
C183 O189 1.268 1_545 S
C183 O193 1.268 . S
C184 O190 1.268 . S
C184 O192 1.268 . S
C185 O191 1.268 . S
C185 O194 1.268 . S
O186 Sc176 2.105 . S
O186 C180 1.268 . S
O187 Sc177 2.105 . S
O187 C181 1.268 . S
O188 Sc178 2.105 . S
O188 C182 1.268 . S
O189 Sc176 2.105 . S
O189 C183 1.268 1_565 S
O190 Sc178 2.105 1_565 S
O190 C184 1.268 . S
O191 Sc177 2.105 . S
O191 C185 1.268 . S
O192 Sc176 2.105 . S
O192 C184 1.268 . S
O193 Sc177 2.105 . S
O193 C183 1.268 . S
O194 Sc178 2.105 . S
O194 C185 1.268 . S
O195 Sc176 2.105 1_545 S
O195 C181 1.268 . S
O196 Sc178 2.105 1_565 S
O196 C180 1.268 . S
O197 Sc177 2.105 . S
O197 C182 1.268 . S
Sc198 O201 2.025 1_545 S
Sc198 O208 2.105 . S
Sc198 O211 2.105 . S
Sc198 O214 2.105 . S
Sc198 O217 2.105 1_545 S
Sc199 O201 2.025 . S
Sc199 O209 2.105 . S
Sc199 O213 2.105 . S
Sc199 O215 2.105 . S
Sc199 O219 2.105 . S
Sc200 O201 2.025 . S
Sc200 O210 2.105 . S
Sc200 O212 2.105 1_565 S
Sc200 O216 2.105 . S
Sc200 O218 2.105 1_565 S
O201 Sc198 2.025 1_565 S
O201 Sc199 2.025 . S
O201 Sc200 2.025 . S
C202 O208 1.268 . S
C202 O218 1.268 . S
C203 O209 1.268 . S
C203 O217 1.268 . S
C204 O210 1.268 . S
C204 O219 1.268 . S
C205 O211 1.268 1_565 S
C205 O215 1.268 . S
C206 O212 1.268 . S
C206 O214 1.268 . S
C207 O213 1.268 . S
C207 O216 1.268 . S
O208 Sc198 2.105 . S
O208 C202 1.268 . S
O209 Sc199 2.105 . S
O209 C203 1.268 . S
O210 Sc200 2.105 . S
O210 C204 1.268 . S
O211 Sc198 2.105 . S
O211 C205 1.268 1_545 S
O212 Sc200 2.105 1_545 S
O212 C206 1.268 . S
O213 Sc199 2.105 . S
O213 C207 1.268 . S
O214 Sc198 2.105 . S
O214 C206 1.268 . S
O215 Sc199 2.105 . S
O215 C205 1.268 . S
O216 Sc200 2.105 . S
O216 C207 1.268 . S
O217 Sc198 2.105 1_565 S
O217 C203 1.268 . S
O218 Sc200 2.105 1_545 S
O218 C202 1.268 . S
O219 Sc199 2.105 . S
O219 C204 1.268 . S
Sc220 O223 2.025 1_655 S
Sc220 O230 2.105 . S
Sc220 O233 2.105 . S
Sc220 O236 2.105 . S
Sc220 O239 2.105 1_655 S
Sc221 O223 2.025 . S
Sc221 O231 2.105 . S
Sc221 O235 2.105 . S
Sc221 O237 2.105 . S
Sc221 O241 2.105 . S
Sc222 O223 2.025 . S
Sc222 O232 2.105 . S
Sc222 O234 2.105 1_455 S
Sc222 O238 2.105 . S
Sc222 O240 2.105 1_455 S
O223 Sc220 2.025 1_455 S
O223 Sc221 2.025 . S
O223 Sc222 2.025 . S
C224 O230 1.268 . S
C224 O240 1.268 . S
C225 O231 1.268 . S
C225 O239 1.268 . S
C226 O232 1.268 . S
C226 O241 1.268 . S
C227 O233 1.268 1_455 S
C227 O237 1.268 . S
C228 O234 1.268 . S
C228 O236 1.268 . S
C229 O235 1.268 . S
C229 O238 1.268 . S
O230 Sc220 2.105 . S
O230 C224 1.268 . S
O231 Sc221 2.105 . S
O231 C225 1.268 . S
O232 Sc222 2.105 . S
O232 C226 1.268 . S
O233 Sc220 2.105 . S
O233 C227 1.268 1_655 S
O234 Sc222 2.105 1_655 S
O234 C228 1.268 . S
O235 Sc221 2.105 . S
O235 C229 1.268 . S
O236 Sc220 2.105 . S
O236 C228 1.268 . S
O237 Sc221 2.105 . S
O237 C227 1.268 . S
O238 Sc222 2.105 . S
O238 C229 1.268 . S
O239 Sc220 2.105 1_455 S
O239 C225 1.268 . S
O240 Sc222 2.105 1_655 S
O240 C224 1.268 . S
O241 Sc221 2.105 . S
O241 C226 1.268 . S
Sc242 O245 2.025 . S
Sc242 O252 2.105 . S
Sc242 O255 2.105 . S
Sc242 O258 2.105 . S
Sc242 O261 2.105 . S
Sc243 O245 2.025 . S
Sc243 O253 2.105 . S
Sc243 O257 2.105 . S
Sc243 O259 2.105 . S
Sc243 O263 2.105 . S
Sc244 O245 2.025 . S
Sc244 O254 2.105 . S
Sc244 O256 2.105 . S
Sc244 O260 2.105 . S
Sc244 O262 2.105 . S
O245 Sc242 2.025 . S
O245 Sc243 2.025 . S
O245 Sc244 2.025 . S
C246 O252 1.268 . S
C246 O262 1.268 . S
C247 O253 1.268 . S
C247 O261 1.268 . S
C248 O254 1.268 . S
C248 O263 1.268 . S
C249 O255 1.268 . S
C249 O259 1.268 . S
C250 O256 1.268 . S
C250 O258 1.268 . S
C251 O257 1.268 . S
C251 O260 1.268 . S
O252 Sc242 2.105 . S
O252 C246 1.268 . S
O253 Sc243 2.105 . S
O253 C247 1.268 . S
O254 Sc244 2.105 . S
O254 C248 1.268 . S
O255 Sc242 2.105 . S
O255 C249 1.268 . S
O256 Sc244 2.105 . S
O256 C250 1.268 . S
O257 Sc243 2.105 . S
O257 C251 1.268 . S
O258 Sc242 2.105 . S
O258 C250 1.268 . S
O259 Sc243 2.105 . S
O259 C249 1.268 . S
O260 Sc244 2.105 . S
O260 C251 1.268 . S
O261 Sc242 2.105 . S
O261 C247 1.268 . S
O262 Sc244 2.105 . S
O262 C246 1.268 . S
O263 Sc243 2.105 . S
O263 C248 1.268 . S
Sc264 O267 2.025 . S
Sc264 O274 2.105 . S
Sc264 O277 2.105 . S
Sc264 O280 2.105 . S
Sc264 O283 2.105 . S
Sc265 O267 2.025 . S
Sc265 O275 2.105 . S
Sc265 O279 2.105 . S
Sc265 O281 2.105 . S
Sc265 O285 2.105 . S
Sc266 O267 2.025 . S
Sc266 O276 2.105 . S
Sc266 O278 2.105 . S
Sc266 O282 2.105 . S
Sc266 O284 2.105 . S
O267 Sc264 2.025 . S
O267 Sc265 2.025 . S
O267 Sc266 2.025 . S
C268 O274 1.268 . S
C268 O284 1.268 . S
C269 O275 1.268 . S
C269 O283 1.268 . S
C270 O276 1.268 . S
C270 O285 1.268 . S
C271 O277 1.268 . S
C271 O281 1.268 . S
C272 O278 1.268 . S
C272 O280 1.268 . S
C273 O279 1.268 . S
C273 O282 1.268 . S
O274 Sc264 2.105 . S
O274 C268 1.268 . S
O275 Sc265 2.105 . S
O275 C269 1.268 . S
O276 Sc266 2.105 . S
O276 C270 1.268 . S
O277 Sc264 2.105 . S
O277 C271 1.268 . S
O278 Sc266 2.105 . S
O278 C272 1.268 . S
O279 Sc265 2.105 . S
O279 C273 1.268 . S
O280 Sc264 2.105 . S
O280 C272 1.268 . S
O281 Sc265 2.105 . S
O281 C271 1.268 . S
O282 Sc266 2.105 . S
O282 C273 1.268 . S
O283 Sc264 2.105 . S
O283 C269 1.268 . S
O284 Sc266 2.105 . S
O284 C268 1.268 . S
O285 Sc265 2.105 . S
O285 C270 1.268 . S
Sc286 O289 2.025 . S
Sc286 O296 2.105 . S
Sc286 O299 2.105 . S
Sc286 O302 2.105 . S
Sc286 O305 2.105 . S
Sc287 O289 2.025 . S
Sc287 O297 2.105 . S
Sc287 O301 2.105 . S
Sc287 O303 2.105 . S
Sc287 O307 2.105 . S
Sc288 O289 2.025 . S
Sc288 O298 2.105 . S
Sc288 O300 2.105 . S
Sc288 O304 2.105 . S
Sc288 O306 2.105 . S
O289 Sc286 2.025 . S
O289 Sc287 2.025 . S
O289 Sc288 2.025 . S
C290 O296 1.268 . S
C290 O306 1.268 . S
C291 O297 1.268 . S
C291 O305 1.268 . S
C292 O298 1.268 . S
C292 O307 1.268 . S
C293 O299 1.268 . S
C293 O303 1.268 . S
C294 O300 1.268 . S
C294 O302 1.268 . S
C295 O301 1.268 . S
C295 O304 1.268 . S
O296 Sc286 2.105 . S
O296 C290 1.268 . S
O297 Sc287 2.105 . S
O297 C291 1.268 . S
O298 Sc288 2.105 . S
O298 C292 1.268 . S
O299 Sc286 2.105 . S
O299 C293 1.268 . S
O300 Sc288 2.105 . S
O300 C294 1.268 . S
O301 Sc287 2.105 . S
O301 C295 1.268 . S
O302 Sc286 2.105 . S
O302 C294 1.268 . S
O303 Sc287 2.105 . S
O303 C293 1.268 . S
O304 Sc288 2.105 . S
O304 C295 1.268 . S
O305 Sc286 2.105 . S
O305 C291 1.268 . S
O306 Sc288 2.105 . S
O306 C290 1.268 . S
O307 Sc287 2.105 . S
O307 C292 1.268 . S
Sc308 O311 2.025 . S
Sc308 O318 2.105 . S
Sc308 O321 2.105 . S
Sc308 O324 2.105 . S
Sc308 O327 2.105 . S
Sc309 O311 2.025 . S
Sc309 O319 2.105 . S
Sc309 O323 2.105 . S
Sc309 O325 2.105 . S
Sc309 O329 2.105 . S
Sc310 O311 2.025 . S
Sc310 O320 2.105 . S
Sc310 O322 2.105 . S
Sc310 O326 2.105 . S
Sc310 O328 2.105 . S
O311 Sc308 2.025 . S
O311 Sc309 2.025 . S
O311 Sc310 2.025 . S
C312 O318 1.268 . S
C312 O328 1.268 . S
C313 O319 1.268 . S
C313 O327 1.268 . S
C314 O320 1.268 . S
C314 O329 1.268 . S
C315 O321 1.268 . S
C315 O325 1.268 . S
C316 O322 1.268 . S
C316 O324 1.268 . S
C317 O323 1.268 . S
C317 O326 1.268 . S
O318 Sc308 2.105 . S
O318 C312 1.268 . S
O319 Sc309 2.105 . S
O319 C313 1.268 . S
O320 Sc310 2.105 . S
O320 C314 1.268 . S
O321 Sc308 2.105 . S
O321 C315 1.268 . S
O322 Sc310 2.105 . S
O322 C316 1.268 . S
O323 Sc309 2.105 . S
O323 C317 1.268 . S
O324 Sc308 2.105 . S
O324 C316 1.268 . S
O325 Sc309 2.105 . S
O325 C315 1.268 . S
O326 Sc310 2.105 . S
O326 C317 1.268 . S
O327 Sc308 2.105 . S
O327 C313 1.268 . S
O328 Sc310 2.105 . S
O328 C312 1.268 . S
O329 Sc309 2.105 . S
O329 C314 1.268 . S
Sc330 O333 2.025 . S
Sc330 O340 2.105 . S
Sc330 O343 2.105 . S
Sc330 O346 2.105 . S
Sc330 O349 2.105 . S
Sc331 O333 2.025 . S
Sc331 O341 2.105 . S
Sc331 O345 2.105 . S
Sc331 O347 2.105 . S
Sc331 O351 2.105 . S
Sc332 O333 2.025 . S
Sc332 O342 2.105 . S
Sc332 O344 2.105 . S
Sc332 O348 2.105 . S
Sc332 O350 2.105 . S
O333 Sc330 2.025 . S
O333 Sc331 2.025 . S
O333 Sc332 2.025 . S
C334 O340 1.268 . S
C334 O350 1.268 . S
C335 O341 1.268 . S
C335 O349 1.268 . S
C336 O342 1.268 . S
C336 O351 1.268 . S
C337 O343 1.268 . S
C337 O347 1.268 . S
C338 O344 1.268 . S
C338 O346 1.268 . S
C339 O345 1.268 . S
C339 O348 1.268 . S
O340 Sc330 2.105 . S
O340 C334 1.268 . S
O341 Sc331 2.105 . S
O341 C335 1.268 . S
O342 Sc332 2.105 . S
O342 C336 1.268 . S
O343 Sc330 2.105 . S
O343 C337 1.268 . S
O344 Sc332 2.105 . S
O344 C338 1.268 . S
O345 Sc331 2.105 . S
O345 C339 1.268 . S
O346 Sc330 2.105 . S
O346 C338 1.268 . S
O347 Sc331 2.105 . S
O347 C337 1.268 . S
O348 Sc332 2.105 . S
O348 C339 1.268 . S
O349 Sc330 2.105 . S
O349 C335 1.268 . S
O350 Sc332 2.105 . S
O350 C334 1.268 . S
O351 Sc331 2.105 . S
O351 C336 1.268 . S
Sc352 O355 2.025 . S
Sc352 O362 2.105 . S
Sc352 O365 2.105 . S
Sc352 O368 2.105 . S
Sc352 O371 2.105 . S
Sc353 O355 2.025 . S
Sc353 O363 2.105 . S
Sc353 O367 2.105 . S
Sc353 O369 2.105 . S
Sc353 O373 2.105 . S
Sc354 O355 2.025 . S
Sc354 O364 2.105 . S
Sc354 O366 2.105 . S
Sc354 O370 2.105 . S
Sc354 O372 2.105 . S
O355 Sc352 2.025 . S
O355 Sc353 2.025 . S
O355 Sc354 2.025 . S
C356 O362 1.268 . S
C356 O372 1.268 . S
C357 O363 1.268 . S
C357 O371 1.268 . S
C358 O364 1.268 . S
C358 O373 1.268 . S
C359 O365 1.268 . S
C359 O369 1.268 . S
C360 O366 1.268 . S
C360 O368 1.268 . S
C361 O367 1.268 . S
C361 O370 1.268 . S
O362 Sc352 2.105 . S
O362 C356 1.268 . S
O363 Sc353 2.105 . S
O363 C357 1.268 . S
O364 Sc354 2.105 . S
O364 C358 1.268 . S
O365 Sc352 2.105 . S
O365 C359 1.268 . S
O366 Sc354 2.105 . S
O366 C360 1.268 . S
O367 Sc353 2.105 . S
O367 C361 1.268 . S
O368 Sc352 2.105 . S
O368 C360 1.268 . S
O369 Sc353 2.105 . S
O369 C359 1.268 . S
O370 Sc354 2.105 . S
O370 C361 1.268 . S
O371 Sc352 2.105 . S
O371 C357 1.268 . S
O372 Sc354 2.105 . S
O372 C356 1.268 . S
O373 Sc353 2.105 . S
O373 C358 1.268 . S
Sc374 O377 2.025 . S
Sc374 O384 2.105 . S
Sc374 O387 2.105 . S
Sc374 O390 2.105 . S
Sc374 O393 2.105 . S
Sc375 O377 2.025 . S
Sc375 O385 2.105 . S
Sc375 O389 2.105 . S
Sc375 O391 2.105 . S
Sc375 O395 2.105 . S
Sc376 O377 2.025 . S
Sc376 O386 2.105 . S
Sc376 O388 2.105 . S
Sc376 O392 2.105 . S
Sc376 O394 2.105 . S
O377 Sc374 2.025 . S
O377 Sc375 2.025 . S
O377 Sc376 2.025 . S
C378 O384 1.268 . S
C378 O394 1.268 . S
C379 O385 1.268 . S
C379 O393 1.268 . S
C380 O386 1.268 . S
C380 O395 1.268 . S
C381 O387 1.268 . S
C381 O391 1.268 . S
C382 O388 1.268 . S
C382 O390 1.268 . S
C383 O389 1.268 . S
C383 O392 1.268 . S
O384 Sc374 2.105 . S
O384 C378 1.268 . S
O385 Sc375 2.105 . S
O385 C379 1.268 . S
O386 Sc376 2.105 . S
O386 C380 1.268 . S
O387 Sc374 2.105 . S
O387 C381 1.268 . S
O388 Sc376 2.105 . S
O388 C382 1.268 . S
O389 Sc375 2.105 . S
O389 C383 1.268 . S
O390 Sc374 2.105 . S
O390 C382 1.268 . S
O391 Sc375 2.105 . S
O391 C381 1.268 . S
O392 Sc376 2.105 . S
O392 C383 1.268 . S
O393 Sc374 2.105 . S
O393 C379 1.268 . S
O394 Sc376 2.105 . S
O394 C378 1.268 . S
O395 Sc375 2.105 . S
O395 C380 1.268 . S
Sc396 O399 2.025 . S
Sc396 O406 2.105 . S
Sc396 O409 2.105 . S
Sc396 O412 2.105 . S
Sc396 O415 2.105 . S
Sc397 O399 2.025 . S
Sc397 O407 2.105 . S
Sc397 O411 2.105 . S
Sc397 O413 2.105 . S
Sc397 O417 2.105 . S
Sc398 O399 2.025 . S
Sc398 O408 2.105 . S
Sc398 O410 2.105 . S
Sc398 O414 2.105 . S
Sc398 O416 2.105 . S
O399 Sc396 2.025 . S
O399 Sc397 2.025 . S
O399 Sc398 2.025 . S
C400 O406 1.268 . S
C400 O416 1.268 . S
C401 O407 1.268 . S
C401 O415 1.268 . S
C402 O408 1.268 . S
C402 O417 1.268 . S
C403 O409 1.268 . S
C403 O413 1.268 . S
C404 O410 1.268 . S
C404 O412 1.268 . S
C405 O411 1.268 . S
C405 O414 1.268 . S
O406 Sc396 2.105 . S
O406 C400 1.268 . S
O407 Sc397 2.105 . S
O407 C401 1.268 . S
O408 Sc398 2.105 . S
O408 C402 1.268 . S
O409 Sc396 2.105 . S
O409 C403 1.268 . S
O410 Sc398 2.105 . S
O410 C404 1.268 . S
O411 Sc397 2.105 . S
O411 C405 1.268 . S
O412 Sc396 2.105 . S
O412 C404 1.268 . S
O413 Sc397 2.105 . S
O413 C403 1.268 . S
O414 Sc398 2.105 . S
O414 C405 1.268 . S
O415 Sc396 2.105 . S
O415 C401 1.268 . S
O416 Sc398 2.105 . S
O416 C400 1.268 . S
O417 Sc397 2.105 . S
O417 C402 1.268 . S
Sc418 O421 2.025 . S
Sc418 O428 2.105 . S
Sc418 O431 2.105 . S
Sc418 O434 2.105 . S
Sc418 O437 2.105 . S
Sc419 O421 2.025 . S
Sc419 O429 2.105 . S
Sc419 O433 2.105 . S
Sc419 O435 2.105 . S
Sc419 O439 2.105 . S
Sc420 O421 2.025 . S
Sc420 O430 2.105 . S
Sc420 O432 2.105 . S
Sc420 O436 2.105 . S
Sc420 O438 2.105 . S
O421 Sc418 2.025 . S
O421 Sc419 2.025 . S
O421 Sc420 2.025 . S
C422 O428 1.268 . S
C422 O438 1.268 . S
C423 O429 1.268 . S
C423 O437 1.268 . S
C424 O430 1.268 . S
C424 O439 1.268 . S
C425 O431 1.268 . S
C425 O435 1.268 . S
C426 O432 1.268 . S
C426 O434 1.268 . S
C427 O433 1.268 . S
C427 O436 1.268 . S
O428 Sc418 2.105 . S
O428 C422 1.268 . S
O429 Sc419 2.105 . S
O429 C423 1.268 . S
O430 Sc420 2.105 . S
O430 C424 1.268 . S
O431 Sc418 2.105 . S
O431 C425 1.268 . S
O432 Sc420 2.105 . S
O432 C426 1.268 . S
O433 Sc419 2.105 . S
O433 C427 1.268 . S
O434 Sc418 2.105 . S
O434 C426 1.268 . S
O435 Sc419 2.105 . S
O435 C425 1.268 . S
O436 Sc420 2.105 . S
O436 C427 1.268 . S
O437 Sc418 2.105 . S
O437 C423 1.268 . S
O438 Sc420 2.105 . S
O438 C422 1.268 . S
O439 Sc419 2.105 . S
O439 C424 1.268 . S
Sc440 O443 2.025 . S
Sc440 O450 2.105 . S
Sc440 O453 2.105 . S
Sc440 O456 2.105 . S
Sc440 O459 2.105 . S
Sc441 O443 2.025 . S
Sc441 O451 2.105 . S
Sc441 O455 2.105 . S
Sc441 O457 2.105 . S
Sc441 O461 2.105 . S
Sc442 O443 2.025 . S
Sc442 O452 2.105 . S
Sc442 O454 2.105 . S
Sc442 O458 2.105 . S
Sc442 O460 2.105 . S
O443 Sc440 2.025 . S
O443 Sc441 2.025 . S
O443 Sc442 2.025 . S
C444 O450 1.268 . S
C444 O460 1.268 . S
C445 O451 1.268 . S
C445 O459 1.268 . S
C446 O452 1.268 . S
C446 O461 1.268 . S
C447 O453 1.268 . S
C447 O457 1.268 . S
C448 O454 1.268 . S
C448 O456 1.268 . S
C449 O455 1.268 . S
C449 O458 1.268 . S
O450 Sc440 2.105 . S
O450 C444 1.268 . S
O451 Sc441 2.105 . S
O451 C445 1.268 . S
O452 Sc442 2.105 . S
O452 C446 1.268 . S
O453 Sc440 2.105 . S
O453 C447 1.268 . S
O454 Sc442 2.105 . S
O454 C448 1.268 . S
O455 Sc441 2.105 . S
O455 C449 1.268 . S
O456 Sc440 2.105 . S
O456 C448 1.268 . S
O457 Sc441 2.105 . S
O457 C447 1.268 . S
O458 Sc442 2.105 . S
O458 C449 1.268 . S
O459 Sc440 2.105 . S
O459 C445 1.268 . S
O460 Sc442 2.105 . S
O460 C444 1.268 . S
O461 Sc441 2.105 . S
O461 C446 1.268 . S
Sc462 O465 2.025 . S
Sc462 O472 2.105 . S
Sc462 O475 2.105 1_556 S
Sc462 O478 2.105 . S
Sc462 O481 2.105 . S
Sc463 O465 2.025 . S
Sc463 O473 2.105 . S
Sc463 O477 2.105 . S
Sc463 O479 2.105 1_556 S
Sc463 O483 2.105 . S
Sc464 O465 2.025 . S
Sc464 O474 2.105 . S
Sc464 O476 2.105 . S
Sc464 O480 2.105 . S
Sc464 O482 2.105 . S
O465 Sc462 2.025 . S
O465 Sc463 2.025 . S
O465 Sc464 2.025 . S
C466 O472 1.268 . S
C466 O482 1.268 . S
C467 O473 1.268 . S
C467 O481 1.268 . S
C468 O474 1.268 . S
C468 O483 1.268 . S
C469 O475 1.268 . S
C469 O479 1.268 . S
C470 O476 1.268 . S
C470 O478 1.268 . S
C471 O477 1.268 . S
C471 O480 1.268 . S
O472 Sc462 2.105 . S
O472 C466 1.268 . S
O473 Sc463 2.105 . S
O473 C467 1.268 . S
O474 Sc464 2.105 . S
O474 C468 1.268 . S
O475 Sc462 2.105 1_554 S
O475 C469 1.268 . S
O476 Sc464 2.105 . S
O476 C470 1.268 . S
O477 Sc463 2.105 . S
O477 C471 1.268 . S
O478 Sc462 2.105 . S
O478 C470 1.268 . S
O479 Sc463 2.105 1_554 S
O479 C469 1.268 . S
O480 Sc464 2.105 . S
O480 C471 1.268 . S
O481 Sc462 2.105 . S
O481 C467 1.268 . S
O482 Sc464 2.105 . S
O482 C466 1.268 . S
O483 Sc463 2.105 . S
O483 C468 1.268 . S
Sc484 O487 2.025 . S
Sc484 O494 2.105 . S
Sc484 O497 2.105 1_556 S
Sc484 O500 2.105 . S
Sc484 O503 2.105 . S
Sc485 O487 2.025 . S
Sc485 O495 2.105 . S
Sc485 O499 2.105 . S
Sc485 O501 2.105 1_556 S
Sc485 O505 2.105 . S
Sc486 O487 2.025 . S
Sc486 O496 2.105 . S
Sc486 O498 2.105 . S
Sc486 O502 2.105 . S
Sc486 O504 2.105 . S
O487 Sc484 2.025 . S
O487 Sc485 2.025 . S
O487 Sc486 2.025 . S
C488 O494 1.268 . S
C488 O504 1.268 . S
C489 O495 1.268 . S
C489 O503 1.268 . S
C490 O496 1.268 . S
C490 O505 1.268 . S
C491 O497 1.268 . S
C491 O501 1.268 . S
C492 O498 1.268 . S
C492 O500 1.268 . S
C493 O499 1.268 . S
C493 O502 1.268 . S
O494 Sc484 2.105 . S
O494 C488 1.268 . S
O495 Sc485 2.105 . S
O495 C489 1.268 . S
O496 Sc486 2.105 . S
O496 C490 1.268 . S
O497 Sc484 2.105 1_554 S
O497 C491 1.268 . S
O498 Sc486 2.105 . S
O498 C492 1.268 . S
O499 Sc485 2.105 . S
O499 C493 1.268 . S
O500 Sc484 2.105 . S
O500 C492 1.268 . S
O501 Sc485 2.105 1_554 S
O501 C491 1.268 . S
O502 Sc486 2.105 . S
O502 C493 1.268 . S
O503 Sc484 2.105 . S
O503 C489 1.268 . S
O504 Sc486 2.105 . S
O504 C488 1.268 . S
O505 Sc485 2.105 . S
O505 C490 1.268 . S
Sc506 O509 2.025 . S
Sc506 O516 2.105 . S
Sc506 O519 2.105 1_556 S
Sc506 O522 2.105 . S
Sc506 O525 2.105 . S
Sc507 O509 2.025 . S
Sc507 O517 2.105 . S
Sc507 O521 2.105 . S
Sc507 O523 2.105 1_556 S
Sc507 O527 2.105 . S
Sc508 O509 2.025 . S
Sc508 O518 2.105 . S
Sc508 O520 2.105 . S
Sc508 O524 2.105 . S
Sc508 O526 2.105 . S
O509 Sc506 2.025 . S
O509 Sc507 2.025 . S
O509 Sc508 2.025 . S
C510 O516 1.268 . S
C510 O526 1.268 . S
C511 O517 1.268 . S
C511 O525 1.268 . S
C512 O518 1.268 . S
C512 O527 1.268 . S
C513 O519 1.268 . S
C513 O523 1.268 . S
C514 O520 1.268 . S
C514 O522 1.268 . S
C515 O521 1.268 . S
C515 O524 1.268 . S
O516 Sc506 2.105 . S
O516 C510 1.268 . S
O517 Sc507 2.105 . S
O517 C511 1.268 . S
O518 Sc508 2.105 . S
O518 C512 1.268 . S
O519 Sc506 2.105 1_554 S
O519 C513 1.268 . S
O520 Sc508 2.105 . S
O520 C514 1.268 . S
O521 Sc507 2.105 . S
O521 C515 1.268 . S
O522 Sc506 2.105 . S
O522 C514 1.268 . S
O523 Sc507 2.105 1_554 S
O523 C513 1.268 . S
O524 Sc508 2.105 . S
O524 C515 1.268 . S
O525 Sc506 2.105 . S
O525 C511 1.268 . S
O526 Sc508 2.105 . S
O526 C510 1.268 . S
O527 Sc507 2.105 . S
O527 C512 1.268 . S
Sc528 O531 2.025 . S
Sc528 O538 2.105 . S
Sc528 O541 2.105 . S
Sc528 O544 2.105 . S
Sc528 O547 2.105 . S
Sc529 O531 2.025 . S
Sc529 O539 2.105 . S
Sc529 O543 2.105 . S
Sc529 O545 2.105 . S
Sc529 O549 2.105 . S
Sc530 O531 2.025 . S
Sc530 O540 2.105 . S
Sc530 O542 2.105 . S
Sc530 O546 2.105 . S
Sc530 O548 2.105 . S
O531 Sc528 2.025 . S
O531 Sc529 2.025 . S
O531 Sc530 2.025 . S
C532 O538 1.268 . S
C532 O548 1.268 . S
C533 O539 1.268 . S
C533 O547 1.268 . S
C534 O540 1.268 . S
C534 O549 1.268 . S
C535 O541 1.268 . S
C535 O545 1.268 . S
C536 O542 1.268 . S
C536 O544 1.268 . S
C537 O543 1.268 . S
C537 O546 1.268 . S
O538 Sc528 2.105 . S
O538 C532 1.268 . S
O539 Sc529 2.105 . S
O539 C533 1.268 . S
O540 Sc530 2.105 . S
O540 C534 1.268 . S
O541 Sc528 2.105 . S
O541 C535 1.268 . S
O542 Sc530 2.105 . S
O542 C536 1.268 . S
O543 Sc529 2.105 . S
O543 C537 1.268 . S
O544 Sc528 2.105 . S
O544 C536 1.268 . S
O545 Sc529 2.105 . S
O545 C535 1.268 . S
O546 Sc530 2.105 . S
O546 C537 1.268 . S
O547 Sc528 2.105 . S
O547 C533 1.268 . S
O548 Sc530 2.105 . S
O548 C532 1.268 . S
O549 Sc529 2.105 . S
O549 C534 1.268 . S
Sc550 O553 2.025 . S
Sc550 O560 2.105 . S
Sc550 O563 2.105 . S
Sc550 O566 2.105 . S
Sc550 O569 2.105 . S
Sc551 O553 2.025 . S
Sc551 O561 2.105 . S
Sc551 O565 2.105 . S
Sc551 O567 2.105 . S
Sc551 O571 2.105 . S
Sc552 O553 2.025 . S
Sc552 O562 2.105 . S
Sc552 O564 2.105 . S
Sc552 O568 2.105 . S
Sc552 O570 2.105 . S
O553 Sc550 2.025 . S
O553 Sc551 2.025 . S
O553 Sc552 2.025 . S
C554 O560 1.268 . S
C554 O570 1.268 . S
C555 O561 1.268 . S
C555 O569 1.268 . S
C556 O562 1.268 . S
C556 O571 1.268 . S
C557 O563 1.268 . S
C557 O567 1.268 . S
C558 O564 1.268 . S
C558 O566 1.268 . S
C559 O565 1.268 . S
C559 O568 1.268 . S
O560 Sc550 2.105 . S
O560 C554 1.268 . S
O561 Sc551 2.105 . S
O561 C555 1.268 . S
O562 Sc552 2.105 . S
O562 C556 1.268 . S
O563 Sc550 2.105 . S
O563 C557 1.268 . S
O564 Sc552 2.105 . S
O564 C558 1.268 . S
O565 Sc551 2.105 . S
O565 C559 1.268 . S
O566 Sc550 2.105 . S
O566 C558 1.268 . S
O567 Sc551 2.105 . S
O567 C557 1.268 . S
O568 Sc552 2.105 . S
O568 C559 1.268 . S
O569 Sc550 2.105 . S
O569 C555 1.268 . S
O570 Sc552 2.105 . S
O570 C554 1.268 . S
O571 Sc551 2.105 . S
O571 C556 1.268 . S
Sc572 O575 2.025 . S
Sc572 O582 2.105 . S
Sc572 O585 2.105 . S
Sc572 O588 2.105 . S
Sc572 O591 2.105 . S
Sc573 O575 2.025 . S
Sc573 O583 2.105 . S
Sc573 O587 2.105 . S
Sc573 O589 2.105 . S
Sc573 O593 2.105 . S
Sc574 O575 2.025 . S
Sc574 O584 2.105 . S
Sc574 O586 2.105 . S
Sc574 O590 2.105 . S
Sc574 O592 2.105 . S
O575 Sc572 2.025 . S
O575 Sc573 2.025 . S
O575 Sc574 2.025 . S
C576 O582 1.268 . S
C576 O592 1.268 . S
C577 O583 1.268 . S
C577 O591 1.268 . S
C578 O584 1.268 . S
C578 O593 1.268 . S
C579 O585 1.268 . S
C579 O589 1.268 . S
C580 O586 1.268 . S
C580 O588 1.268 . S
C581 O587 1.268 . S
C581 O590 1.268 . S
O582 Sc572 2.105 . S
O582 C576 1.268 . S
O583 Sc573 2.105 . S
O583 C577 1.268 . S
O584 Sc574 2.105 . S
O584 C578 1.268 . S
O585 Sc572 2.105 . S
O585 C579 1.268 . S
O586 Sc574 2.105 . S
O586 C580 1.268 . S
O587 Sc573 2.105 . S
O587 C581 1.268 . S
O588 Sc572 2.105 . S
O588 C580 1.268 . S
O589 Sc573 2.105 . S
O589 C579 1.268 . S
O590 Sc574 2.105 . S
O590 C581 1.268 . S
O591 Sc572 2.105 . S
O591 C577 1.268 . S
O592 Sc574 2.105 . S
O592 C576 1.268 . S
O593 Sc573 2.105 . S
O593 C578 1.268 . S
Sc594 O597 2.025 . S
Sc594 O604 2.105 . S
Sc594 O607 2.105 . S
Sc594 O610 2.105 . S
Sc594 O613 2.105 . S
Sc595 O597 2.025 . S
Sc595 O605 2.105 . S
Sc595 O609 2.105 1_554 S
Sc595 O611 2.105 . S
Sc595 O615 2.105 . S
Sc596 O597 2.025 . S
Sc596 O606 2.105 . S
Sc596 O608 2.105 . S
Sc596 O612 2.105 1_554 S
Sc596 O614 2.105 . S
O597 Sc594 2.025 . S
O597 Sc595 2.025 . S
O597 Sc596 2.025 . S
C598 O604 1.268 . S
C598 O614 1.268 . S
C599 O605 1.268 . S
C599 O613 1.268 . S
C600 O606 1.268 . S
C600 O615 1.268 . S
C601 O607 1.268 . S
C601 O611 1.268 . S
C602 O608 1.268 . S
C602 O610 1.268 . S
C603 O609 1.268 . S
C603 O612 1.268 . S
O604 Sc594 2.105 . S
O604 C598 1.268 . S
O605 Sc595 2.105 . S
O605 C599 1.268 . S
O606 Sc596 2.105 . S
O606 C600 1.268 . S
O607 Sc594 2.105 . S
O607 C601 1.268 . S
O608 Sc596 2.105 . S
O608 C602 1.268 . S
O609 Sc595 2.105 1_556 S
O609 C603 1.268 . S
O610 Sc594 2.105 . S
O610 C602 1.268 . S
O611 Sc595 2.105 . S
O611 C601 1.268 . S
O612 Sc596 2.105 1_556 S
O612 C603 1.268 . S
O613 Sc594 2.105 . S
O613 C599 1.268 . S
O614 Sc596 2.105 . S
O614 C598 1.268 . S
O615 Sc595 2.105 . S
O615 C600 1.268 . S
Sc616 O619 2.025 . S
Sc616 O626 2.105 . S
Sc616 O629 2.105 . S
Sc616 O632 2.105 . S
Sc616 O635 2.105 . S
Sc617 O619 2.025 . S
Sc617 O627 2.105 . S
Sc617 O631 2.105 1_554 S
Sc617 O633 2.105 . S
Sc617 O637 2.105 . S
Sc618 O619 2.025 . S
Sc618 O628 2.105 . S
Sc618 O630 2.105 . S
Sc618 O634 2.105 1_554 S
Sc618 O636 2.105 . S
O619 Sc616 2.025 . S
O619 Sc617 2.025 . S
O619 Sc618 2.025 . S
C620 O626 1.268 . S
C620 O636 1.268 . S
C621 O627 1.268 . S
C621 O635 1.268 . S
C622 O628 1.268 . S
C622 O637 1.268 . S
C623 O629 1.268 . S
C623 O633 1.268 . S
C624 O630 1.268 . S
C624 O632 1.268 . S
C625 O631 1.268 . S
C625 O634 1.268 . S
O626 Sc616 2.105 . S
O626 C620 1.268 . S
O627 Sc617 2.105 . S
O627 C621 1.268 . S
O628 Sc618 2.105 . S
O628 C622 1.268 . S
O629 Sc616 2.105 . S
O629 C623 1.268 . S
O630 Sc618 2.105 . S
O630 C624 1.268 . S
O631 Sc617 2.105 1_556 S
O631 C625 1.268 . S
O632 Sc616 2.105 . S
O632 C624 1.268 . S
O633 Sc617 2.105 . S
O633 C623 1.268 . S
O634 Sc618 2.105 1_556 S
O634 C625 1.268 . S
O635 Sc616 2.105 . S
O635 C621 1.268 . S
O636 Sc618 2.105 . S
O636 C620 1.268 . S
O637 Sc617 2.105 . S
O637 C622 1.268 . S
Sc638 O641 2.025 . S
Sc638 O648 2.105 . S
Sc638 O651 2.105 . S
Sc638 O654 2.105 . S
Sc638 O657 2.105 . S
Sc639 O641 2.025 . S
Sc639 O649 2.105 . S
Sc639 O653 2.105 1_554 S
Sc639 O655 2.105 . S
Sc639 O659 2.105 . S
Sc640 O641 2.025 . S
Sc640 O650 2.105 . S
Sc640 O652 2.105 . S
Sc640 O656 2.105 1_554 S
Sc640 O658 2.105 . S
O641 Sc638 2.025 . S
O641 Sc639 2.025 . S
O641 Sc640 2.025 . S
C642 O648 1.268 . S
C642 O658 1.268 . S
C643 O649 1.268 . S
C643 O657 1.268 . S
C644 O650 1.268 . S
C644 O659 1.268 . S
C645 O651 1.268 . S
C645 O655 1.268 . S
C646 O652 1.268 . S
C646 O654 1.268 . S
C647 O653 1.268 . S
C647 O656 1.268 . S
O648 Sc638 2.105 . S
O648 C642 1.268 . S
O649 Sc639 2.105 . S
O649 C643 1.268 . S
O650 Sc640 2.105 . S
O650 C644 1.268 . S
O651 Sc638 2.105 . S
O651 C645 1.268 . S
O652 Sc640 2.105 . S
O652 C646 1.268 . S
O653 Sc639 2.105 1_556 S
O653 C647 1.268 . S
O654 Sc638 2.105 . S
O654 C646 1.268 . S
O655 Sc639 2.105 . S
O655 C645 1.268 . S
O656 Sc640 2.105 1_556 S
O656 C647 1.268 . S
O657 Sc638 2.105 . S
O657 C643 1.268 . S
O658 Sc640 2.105 . S
O658 C642 1.268 . S
O659 Sc639 2.105 . S
O659 C644 1.268 . S
Sc660 O663 2.025 . S
Sc660 O670 2.105 . S
Sc660 O673 2.105 . S
Sc660 O676 2.105 . S
Sc660 O679 2.105 . S
Sc661 O663 2.025 . S
Sc661 O671 2.105 . S
Sc661 O675 2.105 . S
Sc661 O677 2.105 . S
Sc661 O681 2.105 . S
Sc662 O663 2.025 . S
Sc662 O672 2.105 . S
Sc662 O674 2.105 . S
Sc662 O678 2.105 . S
Sc662 O680 2.105 . S
O663 Sc660 2.025 . S
O663 Sc661 2.025 . S
O663 Sc662 2.025 . S
C664 O670 1.268 . S
C664 O680 1.268 . S
C665 O671 1.268 . S
C665 O679 1.268 . S
C666 O672 1.268 . S
C666 O681 1.268 . S
C667 O673 1.268 . S
C667 O677 1.268 . S
C668 O674 1.268 . S
C668 O676 1.268 . S
C669 O675 1.268 . S
C669 O678 1.268 . S
O670 Sc660 2.105 . S
O670 C664 1.268 . S
O671 Sc661 2.105 . S
O671 C665 1.268 . S
O672 Sc662 2.105 . S
O672 C666 1.268 . S
O673 Sc660 2.105 . S
O673 C667 1.268 . S
O674 Sc662 2.105 . S
O674 C668 1.268 . S
O675 Sc661 2.105 . S
O675 C669 1.268 . S
O676 Sc660 2.105 . S
O676 C668 1.268 . S
O677 Sc661 2.105 . S
O677 C667 1.268 . S
O678 Sc662 2.105 . S
O678 C669 1.268 . S
O679 Sc660 2.105 . S
O679 C665 1.268 . S
O680 Sc662 2.105 . S
O680 C664 1.268 . S
O681 Sc661 2.105 . S
O681 C666 1.268 . S
Sc682 O685 2.025 . S
Sc682 O692 2.105 . S
Sc682 O695 2.105 . S
Sc682 O698 2.105 . S
Sc682 O701 2.105 . S
Sc683 O685 2.025 . S
Sc683 O693 2.105 . S
Sc683 O697 2.105 . S
Sc683 O699 2.105 . S
Sc683 O703 2.105 . S
Sc684 O685 2.025 . S
Sc684 O694 2.105 . S
Sc684 O696 2.105 . S
Sc684 O700 2.105 . S
Sc684 O702 2.105 . S
O685 Sc682 2.025 . S
O685 Sc683 2.025 . S
O685 Sc684 2.025 . S
C686 O692 1.268 . S
C686 O702 1.268 . S
C687 O693 1.268 . S
C687 O701 1.268 . S
C688 O694 1.268 . S
C688 O703 1.268 . S
C689 O695 1.268 . S
C689 O699 1.268 . S
C690 O696 1.268 . S
C690 O698 1.268 . S
C691 O697 1.268 . S
C691 O700 1.268 . S
O692 Sc682 2.105 . S
O692 C686 1.268 . S
O693 Sc683 2.105 . S
O693 C687 1.268 . S
O694 Sc684 2.105 . S
O694 C688 1.268 . S
O695 Sc682 2.105 . S
O695 C689 1.268 . S
O696 Sc684 2.105 . S
O696 C690 1.268 . S
O697 Sc683 2.105 . S
O697 C691 1.268 . S
O698 Sc682 2.105 . S
O698 C690 1.268 . S
O699 Sc683 2.105 . S
O699 C689 1.268 . S
O700 Sc684 2.105 . S
O700 C691 1.268 . S
O701 Sc682 2.105 . S
O701 C687 1.268 . S
O702 Sc684 2.105 . S
O702 C686 1.268 . S
O703 Sc683 2.105 . S
O703 C688 1.268 . S
Sc704 O707 2.025 . S
Sc704 O714 2.105 . S
Sc704 O717 2.105 . S
Sc704 O720 2.105 . S
Sc704 O723 2.105 . S
Sc705 O707 2.025 . S
Sc705 O715 2.105 . S
Sc705 O719 2.105 . S
Sc705 O721 2.105 . S
Sc705 O725 2.105 . S
Sc706 O707 2.025 . S
Sc706 O716 2.105 . S
Sc706 O718 2.105 . S
Sc706 O722 2.105 . S
Sc706 O724 2.105 . S
O707 Sc704 2.025 . S
O707 Sc705 2.025 . S
O707 Sc706 2.025 . S
C708 O714 1.268 . S
C708 O724 1.268 . S
C709 O715 1.268 . S
C709 O723 1.268 . S
C710 O716 1.268 . S
C710 O725 1.268 . S
C711 O717 1.268 . S
C711 O721 1.268 . S
C712 O718 1.268 . S
C712 O720 1.268 . S
C713 O719 1.268 . S
C713 O722 1.268 . S
O714 Sc704 2.105 . S
O714 C708 1.268 . S
O715 Sc705 2.105 . S
O715 C709 1.268 . S
O716 Sc706 2.105 . S
O716 C710 1.268 . S
O717 Sc704 2.105 . S
O717 C711 1.268 . S
O718 Sc706 2.105 . S
O718 C712 1.268 . S
O719 Sc705 2.105 . S
O719 C713 1.268 . S
O720 Sc704 2.105 . S
O720 C712 1.268 . S
O721 Sc705 2.105 . S
O721 C711 1.268 . S
O722 Sc706 2.105 . S
O722 C713 1.268 . S
O723 Sc704 2.105 . S
O723 C709 1.268 . S
O724 Sc706 2.105 . S
O724 C708 1.268 . S
O725 Sc705 2.105 . S
O725 C710 1.268 . S
Sc726 O729 2.025 . S
Sc726 O736 2.105 . S
Sc726 O739 2.105 . S
Sc726 O742 2.105 . S
Sc726 O745 2.105 . S
Sc727 O729 2.025 . S
Sc727 O737 2.105 . S
Sc727 O741 2.105 . S
Sc727 O743 2.105 . S
Sc727 O747 2.105 . S
Sc728 O729 2.025 . S
Sc728 O738 2.105 . S
Sc728 O740 2.105 . S
Sc728 O744 2.105 . S
Sc728 O746 2.105 . S
O729 Sc726 2.025 . S
O729 Sc727 2.025 . S
O729 Sc728 2.025 . S
C730 O736 1.268 . S
C730 O746 1.268 . S
C731 O737 1.268 . S
C731 O745 1.268 . S
C732 O738 1.268 . S
C732 O747 1.268 . S
C733 O739 1.268 . S
C733 O743 1.268 . S
C734 O740 1.268 . S
C734 O742 1.268 . S
C735 O741 1.268 . S
C735 O744 1.268 . S
O736 Sc726 2.105 . S
O736 C730 1.268 . S
O737 Sc727 2.105 . S
O737 C731 1.268 . S
O738 Sc728 2.105 . S
O738 C732 1.268 . S
O739 Sc726 2.105 . S
O739 C733 1.268 . S
O740 Sc728 2.105 . S
O740 C734 1.268 . S
O741 Sc727 2.105 . S
O741 C735 1.268 . S
O742 Sc726 2.105 . S
O742 C734 1.268 . S
O743 Sc727 2.105 . S
O743 C733 1.268 . S
O744 Sc728 2.105 . S
O744 C735 1.268 . S
O745 Sc726 2.105 . S
O745 C731 1.268 . S
O746 Sc728 2.105 . S
O746 C730 1.268 . S
O747 Sc727 2.105 . S
O747 C732 1.268 . S
Sc748 O751 2.025 . S
Sc748 O758 2.105 . S
Sc748 O761 2.105 . S
Sc748 O764 2.105 . S
Sc748 O767 2.105 . S
Sc749 O751 2.025 . S
Sc749 O759 2.105 . S
Sc749 O763 2.105 . S
Sc749 O765 2.105 . S
Sc749 O769 2.105 . S
Sc750 O751 2.025 . S
Sc750 O760 2.105 . S
Sc750 O762 2.105 . S
Sc750 O766 2.105 . S
Sc750 O768 2.105 . S
O751 Sc748 2.025 . S
O751 Sc749 2.025 . S
O751 Sc750 2.025 . S
C752 O758 1.268 . S
C752 O768 1.268 . S
C753 O759 1.268 . S
C753 O767 1.268 . S
C754 O760 1.268 . S
C754 O769 1.268 . S
C755 O761 1.268 . S
C755 O765 1.268 . S
C756 O762 1.268 . S
C756 O764 1.268 . S
C757 O763 1.268 . S
C757 O766 1.268 . S
O758 Sc748 2.105 . S
O758 C752 1.268 . S
O759 Sc749 2.105 . S
O759 C753 1.268 . S
O760 Sc750 2.105 . S
O760 C754 1.268 . S
O761 Sc748 2.105 . S
O761 C755 1.268 . S
O762 Sc750 2.105 . S
O762 C756 1.268 . S
O763 Sc749 2.105 . S
O763 C757 1.268 . S
O764 Sc748 2.105 . S
O764 C756 1.268 . S
O765 Sc749 2.105 . S
O765 C755 1.268 . S
O766 Sc750 2.105 . S
O766 C757 1.268 . S
O767 Sc748 2.105 . S
O767 C753 1.268 . S
O768 Sc750 2.105 . S
O768 C752 1.268 . S
O769 Sc749 2.105 . S
O769 C754 1.268 . S
Sc770 O773 2.025 . S
Sc770 O780 2.105 . S
Sc770 O783 2.105 . S
Sc770 O786 2.105 . S
Sc770 O789 2.105 . S
Sc771 O773 2.025 . S
Sc771 O781 2.105 . S
Sc771 O785 2.105 . S
Sc771 O787 2.105 . S
Sc771 O791 2.105 . S
Sc772 O773 2.025 . S
Sc772 O782 2.105 . S
Sc772 O784 2.105 . S
Sc772 O788 2.105 . S
Sc772 O790 2.105 . S
O773 Sc770 2.025 . S
O773 Sc771 2.025 . S
O773 Sc772 2.025 . S
C774 O780 1.268 . S
C774 O790 1.268 . S
C775 O781 1.268 . S
C775 O789 1.268 . S
C776 O782 1.268 . S
C776 O791 1.268 . S
C777 O783 1.268 . S
C777 O787 1.268 . S
C778 O784 1.268 . S
C778 O786 1.268 . S
C779 O785 1.268 . S
C779 O788 1.268 . S
O780 Sc770 2.105 . S
O780 C774 1.268 . S
O781 Sc771 2.105 . S
O781 C775 1.268 . S
O782 Sc772 2.105 . S
O782 C776 1.268 . S
O783 Sc770 2.105 . S
O783 C777 1.268 . S
O784 Sc772 2.105 . S
O784 C778 1.268 . S
O785 Sc771 2.105 . S
O785 C779 1.268 . S
O786 Sc770 2.105 . S
O786 C778 1.268 . S
O787 Sc771 2.105 . S
O787 C777 1.268 . S
O788 Sc772 2.105 . S
O788 C779 1.268 . S
O789 Sc770 2.105 . S
O789 C775 1.268 . S
O790 Sc772 2.105 . S
O790 C774 1.268 . S
O791 Sc771 2.105 . S
O791 C776 1.268 . S
C5 C158 1.503 1_554 S
C27 C180 1.503 1_554 S
C49 C136 1.504 1_554 S
C71 C246 1.503 . S
C202 C93 1.504 . S
C224 C115 1.503 . S
C26 C138 1.503 1_554 S
C160 C48 1.503 1_556 S
C182 C4 1.504 1_556 S
C114 C204 1.503 . S
C226 C70 1.504 . S
C248 C92 1.503 . S
C269 C422 1.503 . S
C291 C444 1.503 . S
C400 C313 1.503 . S
C510 C335 1.503 . S
C466 C357 1.504 . S
C379 C488 1.503 . S
C290 C402 1.503 . S
C312 C424 1.503 . S
C268 C446 1.504 . S
C378 C468 1.503 . S
C490 C334 1.503 . S
C356 C512 1.503 . S
C533 C686 1.503 . S
C708 C555 1.503 . S
C577 C664 1.504 . S
C599 C774 1.503 . S
C730 C621 1.503 . S
C752 C643 1.503 . S
C666 C554 1.503 . S
C688 C576 1.503 . S
C710 C532 1.503 . S
C642 C732 1.503 . S
C598 C754 1.504 . S
C620 C776 1.503 . S
C7 C52 1.182 . S
C29 C8 1.182 1_565 S
C30 C51 1.182 1_655 S
C96 C73 1.182 . S
C95 C118 1.182 1_545 S
C74 C117 1.182 1_455 S
C141 C184 1.182 . S
C163 C140 1.182 1_545 S
C185 C162 1.182 1_655 S
C228 C207 1.182 . S
C229 C250 1.182 1_565 S
C206 C251 1.182 1_655 S
C316 C271 1.182 . S
C293 C272 1.182 . S
C315 C294 1.182 . S
C337 C360 1.182 . S
C382 C359 1.182 . S
C381 C338 1.182 . S
C405 C448 1.182 . S
C427 C404 1.182 . S
C426 C449 1.182 . S
C492 C471 1.182 . S
C493 C514 1.182 . S
C515 C470 1.182 . S
C580 C535 1.182 . S
C557 C536 1.182 . S
C579 C558 1.182 . S
C624 C601 1.182 . S
C623 C646 1.182 . S
C645 C602 1.182 . S
C669 C712 1.182 . S
C691 C668 1.182 . S
C690 C713 1.182 . S
C756 C735 1.182 . S
C778 C757 1.182 . S
C734 C779 1.182 . S
C97 C9 1.976 1_655 S
C119 C31 1.977 . S
C75 C53 1.976 1_545 S
C227 C139 1.976 1_455 S
C249 C161 1.977 . S
C183 C205 1.976 1_545 S
C361 C273 1.976 . S
C383 C295 1.977 . S
C317 C339 1.976 . S
C491 C403 1.976 . S
C425 C513 1.977 . S
C469 C447 1.976 . S
C537 C625 1.976 . S
C647 C559 1.977 . S
C603 C581 1.976 . S
C755 C667 1.976 . S
C777 C689 1.977 . S
C733 C711 1.976 . S
C644 C6 1.936 . S
C28 C600 1.936 . S
C50 C622 1.935 . S
C72 C292 1.936 . S
C94 C314 1.935 . S
C116 C270 1.936 . S
C511 C137 1.936 . S
C467 C159 1.936 . S
C489 C181 1.935 . S
C203 C687 1.936 . S
C225 C709 1.935 . S
C665 C247 1.936 . S
C556 C336 1.936 1_455 S
C578 C358 1.935 . S
C380 C534 1.936 1_545 S
C401 C775 1.936 1_545 S
C731 C423 1.936 1_455 S
C753 C445 1.935 . S
