# Generated by pormake.
# Topology unb, (4)-cn, num edge types: 1
# Building blocks:
#     Node 0, Type 0, BuildingBlock: TATPOV_clean_sbu_0, # of connection points: 4
#     Node 1, Type 0, BuildingBlock: TATPOV_clean_sbu_0, # of connection points: 4
#     Node 2, Type 0, BuildingBlock: TATPOV_clean_sbu_0, # of connection points: 4
#     Node 3, Type 0, BuildingBlock: TATPOV_clean_sbu_0, # of connection points: 4
#     Node 4, Type 0, BuildingBlock: TATPOV_clean_sbu_0, # of connection points: 4
#     Node 5, Type 0, BuildingBlock: TATPOV_clean_sbu_0, # of connection points: 4
#     Node 6, Type 0, BuildingBlock: TATPOV_clean_sbu_0, # of connection points: 4
#     Node 7, Type 0, BuildingBlock: TATPOV_clean_sbu_0, # of connection points: 4
#     Node 8, Type 0, BuildingBlock: TATPOV_clean_sbu_0, # of connection points: 4
#     Node 9, Type 0, BuildingBlock: TATPOV_clean_sbu_0, # of connection points: 4
#     Node 10, Type 0, BuildingBlock: TATPOV_clean_sbu_0, # of connection points: 4
#     Node 11, Type 0, BuildingBlock: TATPOV_clean_sbu_0, # of connection points: 4
#     Node 12, Type 0, BuildingBlock: TATPOV_clean_sbu_0, # of connection points: 4
#     Node 13, Type 0, BuildingBlock: TATPOV_clean_sbu_0, # of connection points: 4
#     Node 14, Type 0, BuildingBlock: TATPOV_clean_sbu_0, # of connection points: 4
#     Node 15, Type 0, BuildingBlock: TATPOV_clean_sbu_0, # of connection points: 4
#     Node 16, Type 0, BuildingBlock: TATPOV_clean_sbu_0, # of connection points: 4
#     Node 17, Type 0, BuildingBlock: TATPOV_clean_sbu_0, # of connection points: 4
#     Edge 18, Type (0, 0), BuildingBlock: ZUJKAS_clean_linker_0, # of connection points: 2
#     Edge 19, Type (0, 0), BuildingBlock: ZUJKAS_clean_linker_0, # of connection points: 2
#     Edge 20, Type (0, 0), BuildingBlock: ZUJKAS_clean_linker_0, # of connection points: 2
#     Edge 21, Type (0, 0), BuildingBlock: ZUJKAS_clean_linker_0, # of connection points: 2
#     Edge 22, Type (0, 0), BuildingBlock: ZUJKAS_clean_linker_0, # of connection points: 2
#     Edge 23, Type (0, 0), BuildingBlock: ZUJKAS_clean_linker_0, # of connection points: 2
#     Edge 24, Type (0, 0), BuildingBlock: ZUJKAS_clean_linker_0, # of connection points: 2
#     Edge 25, Type (0, 0), BuildingBlock: ZUJKAS_clean_linker_0, # of connection points: 2
#     Edge 26, Type (0, 0), BuildingBlock: ZUJKAS_clean_linker_0, # of connection points: 2
#     Edge 27, Type (0, 0), BuildingBlock: ZUJKAS_clean_linker_0, # of connection points: 2
#     Edge 28, Type (0, 0), BuildingBlock: ZUJKAS_clean_linker_0, # of connection points: 2
#     Edge 29, Type (0, 0), BuildingBlock: ZUJKAS_clean_linker_0, # of connection points: 2
#     Edge 30, Type (0, 0), BuildingBlock: ZUJKAS_clean_linker_0, # of connection points: 2
#     Edge 31, Type (0, 0), BuildingBlock: ZUJKAS_clean_linker_0, # of connection points: 2
#     Edge 32, Type (0, 0), BuildingBlock: ZUJKAS_clean_linker_0, # of connection points: 2
#     Edge 33, Type (0, 0), BuildingBlock: ZUJKAS_clean_linker_0, # of connection points: 2
#     Edge 34, Type (0, 0), BuildingBlock: ZUJKAS_clean_linker_0, # of connection points: 2
#     Edge 35, Type (0, 0), BuildingBlock: ZUJKAS_clean_linker_0, # of connection points: 2
#     Edge 36, Type (0, 0), BuildingBlock: ZUJKAS_clean_linker_0, # of connection points: 2
#     Edge 37, Type (0, 0), BuildingBlock: ZUJKAS_clean_linker_0, # of connection points: 2
#     Edge 38, Type (0, 0), BuildingBlock: ZUJKAS_clean_linker_0, # of connection points: 2
#     Edge 39, Type (0, 0), BuildingBlock: ZUJKAS_clean_linker_0, # of connection points: 2
#     Edge 40, Type (0, 0), BuildingBlock: ZUJKAS_clean_linker_0, # of connection points: 2
#     Edge 41, Type (0, 0), BuildingBlock: ZUJKAS_clean_linker_0, # of connection points: 2
#     Edge 42, Type (0, 0), BuildingBlock: ZUJKAS_clean_linker_0, # of connection points: 2
#     Edge 43, Type (0, 0), BuildingBlock: ZUJKAS_clean_linker_0, # of connection points: 2
#     Edge 44, Type (0, 0), BuildingBlock: ZUJKAS_clean_linker_0, # of connection points: 2
#     Edge 45, Type (0, 0), BuildingBlock: ZUJKAS_clean_linker_0, # of connection points: 2
#     Edge 46, Type (0, 0), BuildingBlock: ZUJKAS_clean_linker_0, # of connection points: 2
#     Edge 47, Type (0, 0), BuildingBlock: ZUJKAS_clean_linker_0, # of connection points: 2
#     Edge 48, Type (0, 0), BuildingBlock: ZUJKAS_clean_linker_0, # of connection points: 2
#     Edge 49, Type (0, 0), BuildingBlock: ZUJKAS_clean_linker_0, # of connection points: 2
#     Edge 50, Type (0, 0), BuildingBlock: ZUJKAS_clean_linker_0, # of connection points: 2
#     Edge 51, Type (0, 0), BuildingBlock: ZUJKAS_clean_linker_0, # of connection points: 2
#     Edge 52, Type (0, 0), BuildingBlock: ZUJKAS_clean_linker_0, # of connection points: 2
#     Edge 53, Type (0, 0), BuildingBlock: ZUJKAS_clean_linker_0, # of connection points: 2
# Relax obj value: 0.025
# Max RMSD: 0.034
# Mean RMSD: 0.034
data_MOF--net-unb--node1-TATPOV_clean_sbu_0--edge1-ZUJKAS_clean_linker_0
_symmetry_space_group_name_H-M    P1
_symmetry_Int_Tables_number       1
_symmetry_cell_setting            triclinic
loop_
_symmetry_equiv_pos_as_xyz
'x, y, z'
_cell_length_a     85.534326
_cell_length_b     85.59217
_cell_length_c     32.103377
_cell_angle_alpha  90.021031
_cell_angle_beta   90.008227
_cell_angle_gamma 119.99252
loop_
_atom_site_label
_atom_site_type_symbol
_atom_site_fract_x
_atom_site_fract_y
_atom_site_fract_z
_atom_type_partial_charge
Zn0 Zn 0.12022 0.23964 0.02116 0.0
Zn1 Zn 0.1249 0.25416 0.08579 0.0
O2 O 0.09715 0.24357 0.07408 0.0
O3 O 0.0987 0.24147 0.00628 0.0
O4 O 0.12988 0.26603 0.14301 0.0
O5 O 0.11736 0.21646 0.04224 0.0
O6 O 0.13469 0.23603 0.08913 0.0
C7 C 0.08991 0.24122 0.03807 0.0
C8 C 0.14902 0.27382 0.01426 0.0
O9 O 0.14089 0.27524 0.04606 0.0
O10 O 0.14438 0.25838 0.9998 0.0
C11 C 0.12679 0.27887 0.1502 0.0
O12 O 0.11969 0.28391 0.1205 0.0
C13 C 0.12892 0.22086 0.07089 0.0
Zn14 Zn 0.76639 0.88565 0.03104 0.0
Zn15 Zn 0.74256 0.87136 0.08938 0.0
O16 O 0.75837 0.85888 0.09125 0.0
O17 O 0.77946 0.87269 0.04385 0.0
O18 O 0.72679 0.86157 0.14108 0.0
O19 O 0.77623 0.91088 0.04967 0.0
O20 O 0.75328 0.89936 0.09315 0.0
C21 C 0.77225 0.86078 0.07174 0.0
C22 C 0.72927 0.86496 1.00135 0.0
O23 O 0.72535 0.86181 0.03986 0.0
O24 O 0.74557 0.87477 0.99014 0.0
C25 C 0.71504 0.86591 0.15086 0.0
O26 O 0.71281 0.87698 0.12648 0.0
C27 C 0.76666 0.91306 0.0764 0.0
Zn28 Zn 0.11813 0.87207 0.01361 0.0
Zn29 Zn 0.12649 0.86678 0.08029 0.0
O30 O 0.14631 0.89353 0.06686 0.0
O31 O 0.14275 0.89173 0.99899 0.0
O32 O 0.13255 0.86147 0.13819 0.0
O33 O 0.09935 0.87773 0.03246 0.0
O34 O 0.09955 0.86097 0.08376 0.0
C35 C 0.15187 0.90014 0.03058 0.0
C36 C 0.11918 0.84071 0.01028 0.0
O37 O 0.1287 0.84829 0.04252 0.0
O38 O 0.11015 0.84708 0.99379 0.0
C39 C 0.14834 0.86427 0.14606 0.0
O40 O 0.16067 0.87115 0.11671 0.0
C41 C 0.09149 0.8677 0.06331 0.0
Zn42 Zn 0.22454 0.10472 0.98049 0.0
Zn43 Zn 0.24722 0.11964 0.91952 0.0
O44 O 0.23621 0.09169 0.91253 0.0
O45 O 0.21578 0.07973 0.96212 0.0
O46 O 0.26277 0.12993 0.86756 0.0
O47 O 0.21017 0.11628 0.96739 0.0
O48 O 0.2308 0.13149 0.91977 0.0
C49 C 0.2239 0.07785 0.93141 0.0
C50 C 0.26164 0.12649 0.00748 0.0
O51 O 0.26494 0.12906 0.96859 0.0
O52 O 0.24556 0.11676 0.02013 0.0
C53 C 0.27501 0.1261 0.8589 0.0
O54 O 0.27765 0.11566 0.88448 0.0
C55 C 0.21664 0.12842 0.93988 0.0
Zn56 Zn 0.8749 0.10754 0.97612 0.0
Zn57 Zn 0.86656 0.12258 0.91767 0.0
O58 O 0.89474 0.13444 0.91469 0.0
O59 O 0.90118 0.12168 0.96627 0.0
O60 O 0.85953 0.13189 0.86661 0.0
O61 O 0.86096 0.08258 0.95492 0.0
O62 O 0.8488 0.09454 0.91506 0.0
C63 C 0.90635 0.13292 0.93676 0.0
C64 C 0.85871 0.12821 0.00539 0.0
O65 O 0.86004 0.13301 0.96742 0.0
O66 O 0.86315 0.11676 0.01656 0.0
C67 C 0.86974 0.14726 0.85022 0.0
O68 O 0.88568 0.15785 0.86676 0.0
C69 C 0.84877 0.08066 0.92982 0.0
Zn70 Zn 0.87429 0.74623 0.00833 0.0
Zn71 Zn 0.86939 0.73836 0.93621 0.0
O72 O 0.8519 0.74841 0.94779 0.0
O73 O 0.85056 0.74495 0.01567 0.0
O74 O 0.86551 0.73013 0.87552 0.0
O75 O 0.89621 0.77009 1.00051 0.0
O76 O 0.89708 0.75763 0.94146 0.0
C77 C 0.84473 0.74836 0.98276 0.0
C78 C 0.86783 0.71202 1.00183 0.0
O79 O 0.86169 0.7143 0.96762 0.0
O80 O 0.87717 0.72539 0.02512 0.0
C81 C 0.85005 0.71741 0.86432 0.0
O82 O 0.83689 0.71078 0.89176 0.0
C83 C 0.90484 0.77017 0.96856 0.0
Zn84 Zn 0.78377 0.55744 0.38599 0.0
Zn85 Zn 0.79405 0.58553 0.42815 0.0
O86 O 0.76562 0.57128 0.42814 0.0
O87 O 0.75752 0.54611 0.39407 0.0
O88 O 0.8005 0.60389 0.47497 0.0
O89 O 0.79714 0.54717 0.4141 0.0
O90 O 0.81135 0.57493 0.43762 0.0
C91 C 0.75325 0.55625 0.4135 0.0
C92 C 0.80176 0.59155 0.33878 0.0
O93 O 0.80179 0.59898 0.37322 0.0
O94 O 0.79558 0.57464 0.33697 0.0
C95 C 0.81655 0.61633 0.48291 0.0
O96 O 0.82978 0.61798 0.45908 0.0
C97 C 0.8107 0.55984 0.43193 0.0
Zn98 Zn 0.43205 0.21523 0.36444 0.0
Zn99 Zn 0.40689 0.2036 0.41891 0.0
O100 O 0.4196 0.18803 0.42432 0.0
O101 O 0.44308 0.20092 0.38257 0.0
O102 O 0.39037 0.19646 0.46961 0.0
O103 O 0.44383 0.24105 0.37874 0.0
O104 O 0.4203 0.23199 0.41984 0.0
C105 C 0.43369 0.18878 0.40863 0.0
C106 C 0.3955 0.19691 0.32995 0.0
O107 O 0.39054 0.19488 0.36794 0.0
O108 O 0.41216 0.20502 0.32087 0.0
C109 C 0.37978 0.18007 0.4796 0.0
O110 O 0.3792 0.16725 0.45596 0.0
C111 C 0.43458 0.24472 0.4032 0.0
Zn112 Zn 0.78291 0.22141 0.3598 0.0
Zn113 Zn 0.79509 0.21009 0.41857 0.0
O114 O 0.81064 0.23837 0.42091 0.0
O115 O 0.79929 0.2473 0.37088 0.0
O116 O 0.80227 0.20135 0.47029 0.0
O117 O 0.75768 0.20994 0.37891 0.0
O118 O 0.76663 0.19553 0.42048 0.0
C119 C 0.81064 0.25101 0.39973 0.0
C120 C 0.79969 0.20104 0.33133 0.0
O121 O 0.80373 0.20128 0.36958 0.0
O122 O 0.7903 0.20793 0.31965 0.0
C123 C 0.8185 0.2085 0.48306 0.0
O124 O 0.83125 0.22211 0.46218 0.0
C125 C 0.75395 0.19739 0.40455 0.0
Zn126 Zn 0.88848 0.44702 0.28513 0.0
Zn127 Zn 0.91848 0.46255 0.24915 0.0
O128 O 0.90674 0.43452 0.24184 0.0
O129 O 0.87881 0.42209 0.26417 0.0
O130 O 0.93771 0.47349 0.20383 0.0
O131 O 0.87792 0.46189 0.26685 0.0
O132 O 0.90609 0.47841 0.247 0.0
C133 C 0.89143 0.42046 0.24839 0.0
C134 C 0.9213 0.46328 0.33929 0.0
O135 O 0.93041 0.46787 0.30562 0.0
O136 O 0.90415 0.45479 0.33799 0.0
C137 C 0.94738 0.46685 0.19197 0.0
O138 O 0.94569 0.45249 0.21099 0.0
C139 C 0.89063 0.47676 0.25388 0.0
Zn140 Zn 0.548 0.44523 0.31122 0.0
Zn141 Zn 0.53789 0.45883 0.25292 0.0
O142 O 0.56629 0.47268 0.25251 0.0
O143 O 0.57402 0.45877 0.29867 0.0
O144 O 0.53177 0.46847 0.20117 0.0
O145 O 0.53349 0.41996 0.2928 0.0
O146 O 0.52177 0.43063 0.24779 0.0
C147 C 0.57846 0.471 0.27174 0.0
C148 C 0.53014 0.46448 0.34088 0.0
O149 O 0.52913 0.4674 0.30232 0.0
O150 O 0.53743 0.45542 0.35222 0.0
C151 C 0.51569 0.46416 0.19129 0.0
O152 O 0.50235 0.4531 0.21556 0.0
C153 C 0.52197 0.41727 0.26502 0.0
Zn154 Zn 0.55428 0.11245 0.29544 0.0
Zn155 Zn 0.54033 0.08388 0.25272 0.0
O156 O 0.52292 0.09454 0.24903 0.0
O157 O 0.53686 0.12047 0.28212 0.0
O158 O 0.5323 0.06529 0.20604 0.0
O159 O 0.57886 0.12526 0.27153 0.0
O160 O 0.56861 0.09797 0.2468 0.0
C161 C 0.52335 0.10887 0.26198 0.0
C162 C 0.54092 0.07852 0.34273 0.0
O163 O 0.53517 0.07067 0.30775 0.0
O164 O 0.54953 0.09562 0.34493 0.0
C165 C 0.51593 0.05456 0.19602 0.0
O166 O 0.50301 0.05487 0.2175 0.0
C167 C 0.58182 0.11376 0.25421 0.0
Zn168 Zn 0.4611 0.9206 0.67058 0.0
Zn169 Zn 0.46343 0.93165 0.7438 0.0
O170 O 0.43586 0.91992 0.72994 0.0
O171 O 0.43626 0.91628 0.66227 0.0
O172 O 0.46587 0.94103 0.8032 0.0
O173 O 0.46452 0.90011 0.68558 0.0
O174 O 0.47447 0.91451 0.74505 0.0
C175 C 0.42768 0.91564 0.69485 0.0
C176 C 0.48647 0.95725 0.67518 0.0
O177 O 0.479 0.95513 0.71063 0.0
O178 O 0.48242 0.94379 0.65211 0.0
C179 C 0.48155 0.95098 0.81845 0.0
O180 O 0.49569 0.95424 0.79591 0.0
C181 C 0.47245 0.90203 0.71995 0.0
Zn182 Zn 0.07903 0.54073 0.66236 0.0
Zn183 Zn 0.06803 0.53314 0.73615 0.0
O184 O 0.07899 0.5165 0.72364 0.0
O185 O 0.08299 0.51997 0.65593 0.0
O186 O 0.05863 0.52679 0.79569 0.0
O187 O 0.09977 0.56465 0.67628 0.0
O188 O 0.08611 0.56113 0.73651 0.0
C189 C 0.08323 0.51215 0.68909 0.0
C190 C 0.04253 0.53024 0.66611 0.0
O191 O 0.04466 0.52578 0.70265 0.0
O192 O 0.05602 0.53876 0.6425 0.0
C193 C 0.0491 0.53299 0.81104 0.0
O194 O 0.04615 0.54407 0.78847 0.0
C195 C 0.09851 0.57107 0.71069 0.0
Zn196 Zn 0.45481 0.55904 0.69638 0.0
Zn197 Zn 0.46201 0.54244 0.7523 0.0
O198 O 0.48083 0.5701 0.75909 0.0
O199 O 0.47164 0.58368 0.71554 0.0
O200 O 0.46638 0.53097 0.80329 0.0
O201 O 0.42896 0.5485 0.70823 0.0
O202 O 0.43377 0.53144 0.75154 0.0
C203 C 0.48257 0.58455 0.74305 0.0
C204 C 0.46855 0.53646 0.66385 0.0
O205 O 0.4692 0.53283 0.70208 0.0
O206 O 0.46299 0.54717 0.65376 0.0
C207 C 0.4822 0.5345 0.81359 0.0
O208 O 0.49592 0.54558 0.79023 0.0
C209 C 0.42291 0.53538 0.73321 0.0
Zn210 Zn 0.55889 0.774 0.64563 0.0
Zn211 Zn 0.58303 0.79049 0.59009 0.0
O212 O 0.57369 0.76278 0.58355 0.0
O213 O 0.55035 0.74927 0.6255 0.0
O214 O 0.59892 0.8016 0.53899 0.0
O215 O 0.54437 0.78554 0.63456 0.0
O216 O 0.5664 0.80217 0.59117 0.0
C217 C 0.56068 0.74834 0.5988 0.0
C218 C 0.59549 0.79558 0.6783 0.0
O219 O 0.59985 0.79958 0.64022 0.0
O220 O 0.57914 0.78505 0.68816 0.0
C221 C 0.61086 0.79757 0.52879 0.0
O222 O 0.61314 0.78632 0.5524 0.0
C223 C 0.55177 0.79868 0.6097 0.0
Zn224 Zn 0.20971 0.78125 0.65748 0.0
Zn225 Zn 0.20111 0.79185 0.59689 0.0
O226 O 0.2288 0.81066 0.60467 0.0
O227 O 0.23193 0.80429 0.6693 0.0
O228 O 0.19378 0.79881 0.54249 0.0
O229 O 0.21101 0.76093 0.63092 0.0
O230 O 0.19254 0.76434 0.58968 0.0
C231 C 0.2382 0.81451 0.63802 0.0
C232 C 0.17986 0.78516 0.67516 0.0
O233 O 0.18536 0.79457 0.64197 0.0
O234 O 0.18688 0.77592 0.68662 0.0
C235 C 0.1985 0.81508 0.53358 0.0
O236 O 0.20862 0.82789 0.56009 0.0
C237 C 0.19866 0.75449 0.60383 0.0
Zn238 Zn 0.21679 0.42646 0.65504 0.0
Zn239 Zn 0.20526 0.40752 0.59457 0.0
O240 O 0.18751 0.41765 0.60248 0.0
O241 O 0.19442 0.42695 0.66713 0.0
O242 O 0.19743 0.39308 0.54052 0.0
O243 O 0.2376 0.44751 0.62841 0.0
O244 O 0.23306 0.42538 0.5867 0.0
C245 C 0.18416 0.42347 0.63607 0.0
C246 C 0.21057 0.3921 0.67335 0.0
O247 O 0.20132 0.38883 0.64003 0.0
O248 O 0.22091 0.40824 0.68456 0.0
C249 C 0.18094 0.3818 0.5328 0.0
O250 O 0.16863 0.37956 0.56035 0.0
C251 C 0.24348 0.44123 0.60088 0.0
H252 H 0.20296 0.38102 0.47154 0.0
H253 H 0.19396 0.36323 0.40727 0.0
H254 H 0.13793 0.34092 0.44036 0.0
H255 H 0.1468 0.35835 0.50501 0.0
H256 H 0.1449 0.31505 0.41227 0.0
H257 H 0.17358 0.37289 0.3028 0.0
H258 H 0.18979 0.37328 0.33895 0.0
H259 H 0.17119 0.37551 0.35779 0.0
C260 C 0.18871 0.37238 0.4651 0.0
C261 C 0.17561 0.3712 0.49343 0.0
C262 C 0.18358 0.36228 0.42818 0.0
C263 C 0.16524 0.35094 0.41855 0.0
C264 C 0.15216 0.34962 0.44696 0.0
H265 H 0.12023 0.30547 0.17638 0.0
H266 H 0.12921 0.32217 0.242 0.0
C267 C 0.15727 0.35964 0.48394 0.0
C268 C 0.15963 0.3402 0.37927 0.0
H269 H 0.1627 0.34386 0.27318 0.0
C270 C 0.14877 0.32135 0.38184 0.0
C271 C 0.16448 0.34842 0.3395 0.0
C272 C 0.17525 0.36865 0.33442 0.0
C273 C 0.14277 0.31051 0.34589 0.0
C274 C 0.14805 0.31869 0.30616 0.0
C275 C 0.15878 0.33755 0.30359 0.0
C276 C 0.14222 0.30802 0.26679 0.0
C277 C 0.13045 0.29044 0.35083 0.0
C278 C 0.14656 0.2945 0.25864 0.0
C279 C 0.14132 0.28481 0.22113 0.0
C280 C 0.1318 0.28858 0.19076 0.0
C281 C 0.12752 0.30217 0.19901 0.0
C282 C 0.13269 0.31177 0.23654 0.0
H283 H 0.12378 0.28701 0.38183 0.0
H284 H 0.11986 0.28502 0.32635 0.0
H285 H 0.1385 0.28358 0.34799 0.0
H286 H 0.15425 0.29161 0.28101 0.0
H287 H 0.14498 0.27456 0.2157 0.0
H288 H 0.60932 0.82068 0.47174 0.0
H289 H 0.62679 0.83211 0.40733 0.0
H290 H 0.65461 0.80295 0.43433 0.0
H291 H 0.63712 0.7913 0.49837 0.0
H292 H 0.66416 0.85269 0.39583 0.0
H293 H 0.63632 0.78662 0.31578 0.0
H294 H 0.626 0.78979 0.36162 0.0
H295 H 0.64555 0.78724 0.36639 0.0
C296 C 0.61913 0.81666 0.46396 0.0
C297 C 0.62172 0.80497 0.49018 0.0
C298 C 0.62911 0.82323 0.42712 0.0
C299 C 0.64179 0.81815 0.41559 0.0
C300 C 0.64462 0.80674 0.44206 0.0
H301 H 0.71634 0.843 0.20878 0.0
H302 H 0.69874 0.83187 0.27303 0.0
C303 C 0.63467 0.80018 0.47886 0.0
C304 C 0.65228 0.82501 0.37628 0.0
H305 H 0.6614 0.81151 0.28362 0.0
C306 C 0.66349 0.8437 0.37119 0.0
C307 C 0.65142 0.81327 0.34415 0.0
C308 C 0.63906 0.79312 0.34694 0.0
C309 C 0.67413 0.85094 0.33527 0.0
C310 C 0.6733 0.83919 0.30318 0.0
C311 C 0.66206 0.82051 0.30824 0.0
C312 C 0.68396 0.84602 0.26407 0.0
C313 C 0.6865 0.87109 0.33246 0.0
C314 C 0.68133 0.85747 0.23729 0.0
C315 C 0.69137 0.86387 0.20054 0.0
C316 C 0.70421 0.85887 0.18961 0.0
C317 C 0.70663 0.84718 0.21623 0.0
C318 C 0.69656 0.84078 0.25299 0.0
H319 H 0.68913 0.87762 0.36358 0.0
H320 H 0.69961 0.87441 0.31808 0.0
H321 H 0.68007 0.87696 0.31273 0.0
H322 H 0.6714 0.86138 0.24467 0.0
H323 H 0.68906 0.87275 0.18071 0.0
H324 H 0.2081 0.84858 0.50319 0.0
H325 H 0.19833 0.85609 0.43846 0.0
H326 H 0.16544 0.7995 0.40979 0.0
H327 H 0.17545 0.79186 0.4742 0.0
H328 H 0.18441 0.81855 0.34258 0.0
H329 H 0.15038 0.8526 0.41368 0.0
H330 H 0.17343 0.8622 0.43002 0.0
H331 H 0.1573 0.83929 0.44377 0.0
C332 C 0.19873 0.83769 0.48325 0.0
C333 C 0.19251 0.81959 0.4941 0.0
C334 C 0.19304 0.84203 0.44631 0.0
C335 C 0.18084 0.82837 0.41954 0.0
C336 C 0.17476 0.81029 0.43004 0.0
H337 H 0.12544 0.84658 0.21137 0.0
H338 H 0.13274 0.83722 0.2773 0.0
C339 C 0.1805 0.80593 0.46692 0.0
C340 C 0.1749 0.83299 0.38001 0.0
H341 H 0.1557 0.85657 0.34039 0.0
C342 C 0.17803 0.82677 0.34216 0.0
C343 C 0.1663 0.84348 0.37934 0.0
C344 C 0.16147 0.84962 0.41889 0.0
C345 C 0.17326 0.83113 0.30375 0.0
C346 C 0.16547 0.84236 0.30298 0.0
C347 C 0.16188 0.84816 0.34087 0.0
C348 C 0.16108 0.84831 0.26318 0.0
C349 C 0.17641 0.82345 0.2644 0.0
C350 C 0.17462 0.858 0.23359 0.0
C351 C 0.17048 0.86329 0.19586 0.0
C352 C 0.15272 0.85921 0.18696 0.0
C353 C 0.13925 0.84992 0.21711 0.0
C354 C 0.1434 0.84455 0.25484 0.0
H355 H 0.17725 0.81114 0.27085 0.0
H356 H 0.16548 0.82003 0.24136 0.0
H357 H 0.1894 0.8336 0.25025 0.0
H358 H 0.18845 0.8615 0.23968 0.0
H359 H 0.18124 0.87056 0.17361 0.0
H360 H 0.37801 0.20312 0.53653 0.0
H361 H 0.36008 0.19524 0.60054 0.0
H362 H 0.3385 0.13874 0.57411 0.0
H363 H 0.35618 0.14646 0.50988 0.0
H364 H 0.31223 0.14675 0.59959 0.0
H365 H 0.37068 0.17645 0.70792 0.0
H366 H 0.371 0.19176 0.66923 0.0
H367 H 0.37288 0.17261 0.65349 0.0
C368 C 0.36945 0.18901 0.54429 0.0
C369 C 0.36863 0.17543 0.51807 0.0
C370 C 0.35927 0.18453 0.58106 0.0
C371 C 0.34814 0.1664 0.59251 0.0
C372 C 0.34705 0.15283 0.56604 0.0
H373 H 0.30196 0.1202 0.832 0.0
H374 H 0.31927 0.1305 0.76738 0.0
C375 C 0.3572 0.15728 0.5293 0.0
C376 C 0.33756 0.16147 0.63195 0.0
H377 H 0.34176 0.16521 0.73794 0.0
C378 C 0.31867 0.15082 0.62984 0.0
C379 C 0.34599 0.16662 0.67147 0.0
C380 C 0.36626 0.17735 0.67591 0.0
C381 C 0.308 0.14522 0.66608 0.0
C382 C 0.31641 0.15061 0.70556 0.0
C383 C 0.3353 0.16122 0.70767 0.0
C384 C 0.30593 0.14471 0.74512 0.0
C385 C 0.28785 0.13314 0.66179 0.0
C386 C 0.2928 0.14947 0.75451 0.0
C387 C 0.28282 0.14356 0.79154 0.0
C388 C 0.28583 0.13285 0.82004 0.0
C389 C 0.29921 0.12838 0.8108 0.0
C390 C 0.30917 0.13429 0.77384 0.0
H391 H 0.28403 0.12681 0.63046 0.0
H392 H 0.28258 0.12231 0.68568 0.0
H393 H 0.28116 0.14127 0.66639 0.0
H394 H 0.29029 0.15779 0.73323 0.0
H395 H 0.27271 0.14735 0.79773 0.0
H396 H 0.85137 0.22227 0.52141 0.0
H397 H 0.85889 0.21103 0.5839 0.0
H398 H 0.80362 0.16813 0.59367 0.0
H399 H 0.79593 0.17923 0.53103 0.0
H400 H 0.84336 0.20625 0.66537 0.0
H401 H 0.83323 0.14185 0.59888 0.0
H402 H 0.83589 0.16032 0.56666 0.0
H403 H 0.81477 0.14604 0.59224 0.0
C404 C 0.84079 0.2104 0.5367 0.0
C405 C 0.82304 0.20162 0.52104 0.0
C406 C 0.84513 0.20401 0.57249 0.0
C407 C 0.83188 0.18862 0.59319 0.0
C408 C 0.81413 0.17986 0.57782 0.0
H409 H 0.83669 0.13006 0.81145 0.0
H410 H 0.82704 0.14017 0.7503 0.0
C411 C 0.80974 0.18629 0.54211 0.0
C412 C 0.83663 0.18203 0.63133 0.0
H413 H 0.83988 0.14667 0.67074 0.0
C414 C 0.84262 0.19324 0.66657 0.0
C415 C 0.83554 0.16499 0.63291 0.0
C416 C 0.82965 0.15261 0.59562 0.0
C417 C 0.84744 0.18783 0.70346 0.0
C418 C 0.84669 0.17092 0.70485 0.0
C419 C 0.84049 0.15963 0.66971 0.0
C420 C 0.85256 0.16484 0.74219 0.0
C421 C 0.85295 0.20016 0.74083 0.0
C422 C 0.8702 0.17518 0.75772 0.0
C423 C 0.87572 0.16949 0.7928 0.0
C424 C 0.8638 0.1532 0.81289 0.0
C425 C 0.84622 0.1427 0.79686 0.0
C426 C 0.84067 0.14846 0.76185 0.0
H427 H 0.84761 0.20961 0.73894 0.0
H428 H 0.8481 0.19236 0.77023 0.0
H429 H 0.86789 0.20835 0.74208 0.0
H430 H 0.87978 0.18762 0.7425 0.0
H431 H 0.8894 0.17784 0.80399 0.0
H432 H 0.875 0.72482 0.80227 0.0
H433 H 0.87003 0.70975 0.73455 0.0
H434 H 0.81358 0.67608 0.76363 0.0
H435 H 0.81835 0.69108 0.83093 0.0
H436 H 0.85681 0.6728 0.72051 0.0
H437 H 0.81212 0.69448 0.64689 0.0
H438 H 0.82562 0.70549 0.69234 0.0
H439 H 0.80468 0.68458 0.69748 0.0
C440 C 0.86149 0.71436 0.79405 0.0
C441 C 0.84707 0.70922 0.82209 0.0
C442 C 0.85868 0.70573 0.75535 0.0
C443 C 0.84138 0.69193 0.74371 0.0
C444 C 0.82697 0.68692 0.77148 0.0
H445 H 0.7928 0.61496 0.54228 0.0
H446 H 0.79954 0.63383 0.60446 0.0
C447 C 0.82976 0.69547 0.81014 0.0
C448 C 0.83849 0.6821 0.70359 0.0
H449 H 0.81389 0.67055 0.61346 0.0
C450 C 0.84757 0.67245 0.69689 0.0
C451 C 0.82636 0.68157 0.67286 0.0
C452 C 0.81675 0.69221 0.67746 0.0
C453 C 0.84444 0.66186 0.66097 0.0
C454 C 0.83217 0.66118 0.63038 0.0
C455 C 0.82327 0.67102 0.63687 0.0
C456 C 0.82814 0.65008 0.59185 0.0
C457 C 0.85384 0.65099 0.65685 0.0
C458 C 0.84189 0.65312 0.56352 0.0
C459 C 0.8381 0.6423 0.52799 0.0
C460 C 0.82041 0.62829 0.51975 0.0
C461 C 0.80658 0.62558 0.54763 0.0
C462 C 0.8104 0.63637 0.58323 0.0
H463 H 0.85889 0.64921 0.68736 0.0
H464 H 0.84466 0.63746 0.64343 0.0
H465 H 0.86561 0.65815 0.63576 0.0
H466 H 0.8556 0.66388 0.56888 0.0
H467 H 0.84907 0.64489 0.50708 0.0
H468 H 0.95214 0.49477 0.14153 0.0
H469 H 0.97091 0.50615 0.07905 0.0
H470 H 0.98926 0.468 0.09727 0.0
H471 H 0.97029 0.45632 0.15934 0.0
H472 H 0.00775 0.52143 0.06774 0.0
H473 H 0.97109 0.45769 0.97779 0.0
H474 H 0.96227 0.46152 0.02537 0.0
H475 H 0.97948 0.45531 0.02723 0.0
C476 C 0.96018 0.4888 0.13233 0.0
C477 C 0.95957 0.47452 0.15538 0.0
C478 C 0.97092 0.49534 0.09657 0.0
C479 C 0.98126 0.48772 0.08295 0.0
C480 C 0.98108 0.47381 0.10654 0.0
H481 H 0.05002 0.50823 0.86406 0.0
H482 H 0.03472 0.49782 0.93139 0.0
C483 C 0.9703 0.46723 0.14224 0.0
C484 C 0.99218 0.49435 0.0441 0.0
H485 H 0.99758 0.4812 0.94709 0.0
C486 C 0.00551 0.51263 0.04135 0.0
C487 C 0.98929 0.48287 0.00963 0.0
C488 C 0.97466 0.4633 0.00983 0.0
C489 C 0.0161 0.51971 0.0053 0.0
C490 C 0.01311 0.50827 0.97073 0.0
C491 C -8e-05 0.48995 0.97363 0.0
C492 C 0.02304 0.51515 0.93073 0.0
C493 C 0.03057 0.53934 0.00474 0.0
C494 C 0.02149 0.52827 0.90781 0.0
C495 C 0.03019 0.53424 0.86937 0.0
C496 C 0.04059 0.52715 0.8528 0.0
C497 C 0.04219 0.51404 0.87591 0.0
C498 C 0.03343 0.50805 0.91439 0.0
H499 H 0.03456 0.54486 0.03676 0.0
H500 H 0.04276 0.54131 0.98786 0.0
H501 H 0.02534 0.54724 0.98852 0.0
H502 H 0.01325 0.53369 0.91929 0.0
H503 H 0.02856 0.54427 0.8524 0.0
H504 H 0.54003 0.48693 0.13341 0.0
H505 H 0.53379 0.4986 0.06972 0.0
H506 H 0.47686 0.46916 0.09737 0.0
H507 H 0.48296 0.45759 0.1613 0.0
H508 H 0.51244 0.47946 1.00148 0.0
H509 H 0.48609 0.52018 0.07608 0.0
H510 H 0.49839 0.51162 0.1047 0.0
H511 H 0.47497 0.497 0.09219 0.0
C512 C 0.52618 0.483 0.1261 0.0
C513 C 0.512 0.47138 0.15267 0.0
C514 C 0.52264 0.48967 0.08961 0.0
C515 C 0.50489 0.48498 0.07903 0.0
C516 C 0.4907 0.47328 0.10529 0.0
H517 H 0.45705 0.51151 0.86996 0.0
H518 H 0.46238 0.49894 0.93342 0.0
C519 C 0.49422 0.46659 0.14176 0.0
C520 C 0.50119 0.49197 0.04002 0.0
H521 H 0.48327 0.51706 1.00265 0.0
C522 C 0.50613 0.48774 1.00174 0.0
C523 C 0.49288 0.50272 0.04034 0.0
C524 C 0.4879 0.50831 0.08051 0.0
C525 C 0.50277 0.49375 0.9638 0.0
C526 C 0.49455 0.50457 0.96412 0.0
C527 C 0.48953 0.50873 1.00239 0.0
C528 C 0.49131 0.51197 0.92517 0.0
C529 C 0.50774 0.48813 0.92365 0.0
C530 C 0.50581 0.52363 0.89959 0.0
C531 C 0.50281 0.53081 0.86329 0.0
C532 C 0.48524 0.52659 0.85186 0.0
C533 C 0.47074 0.515 0.8777 0.0
C534 C 0.47377 0.50782 0.91404 0.0
H535 H 0.50913 0.476 0.92797 0.0
H536 H 0.49747 0.4852 0.89913 0.0
H537 H 0.52089 0.49927 0.91248 0.0
H538 H 0.51951 0.52736 0.90795 0.0
H539 H 0.51432 0.53978 0.84435 0.0
H540 H 0.53937 0.05144 0.14299 0.0
H541 H 0.53203 0.03228 0.0812 0.0
H542 H 0.47527 0.01074 0.10451 0.0
H543 H 0.48246 0.03004 0.16602 0.0
H544 H 0.5119 0.99486 0.07303 0.0
H545 H 0.48039 0.02755 0.98377 0.0
H546 H 0.49374 0.03754 0.02997 0.0
H547 H 0.47077 0.01949 0.03436 0.0
C548 C 0.52531 0.04264 0.13503 0.0
C549 C 0.51151 0.0424 0.1594 0.0
C550 C 0.52114 0.03167 0.09967 0.0
C551 C 0.50311 0.02028 0.08776 0.0
C552 C 0.48929 0.0197 0.11252 0.0
H553 H 0.45553 0.94911 0.87188 0.0
H554 H 0.46009 0.96466 0.93879 0.0
C555 C 0.49344 0.03068 0.14787 0.0
C556 C 0.49883 0.00899 0.04954 0.0
H557 H 0.47894 0.00165 0.95364 0.0
C558 C 0.5047 0.99635 0.04692 0.0
C559 C 0.48936 0.01088 0.01549 0.0
C560 C 0.48332 0.0247 0.01569 0.0
C561 C 0.50131 0.98552 0.01135 0.0
C562 C 0.49207 0.98758 0.97709 0.0
C563 C 0.48597 4e-05 0.97993 0.0
C564 C 0.48922 0.97749 0.93739 0.0
C565 C 0.50747 0.97179 0.01101 0.0
C566 C 0.50406 0.9796 0.91418 0.0
C567 C 0.50151 0.97074 0.87602 0.0
C568 C 0.48404 0.95964 0.85998 0.0
C569 C 0.46916 0.95749 0.88334 0.0
C570 C 0.47174 0.96639 0.92157 0.0
H571 H 0.5094 0.96819 0.0431 0.0
H572 H 0.49762 0.95929 0.99452 0.0
H573 H 0.52061 0.97755 0.99457 0.0
H574 H 0.51769 0.98839 0.92521 0.0
H575 H 0.51329 0.97281 0.85884 0.0
H576 H 0.14731 0.30424 0.99953 0.0
H577 H 0.16243 0.32553 0.9424 0.0
H578 H 0.19409 0.30016 0.9164 0.0
H579 H 0.17844 0.27839 0.97219 0.0
H580 H 0.1961 0.34978 0.9167 0.0
H581 H 0.16567 0.29086 0.80993 0.0
H582 H 0.15997 0.28905 0.86442 0.0
H583 H 0.18049 0.28986 0.84804 0.0
C584 C 0.15789 0.30359 0.9824 0.0
C585 C 0.16159 0.28961 0.98967 0.0
C586 C 0.16644 0.31567 0.94966 0.0
C587 C 0.1789 0.31397 0.92433 0.0
C588 C 0.18406 0.30128 0.93471 0.0
H589 H 0.23512 0.39168 0.72602 0.0
H590 H 0.22884 0.37141 0.78519 0.0
C591 C 0.17527 0.28901 0.9668 0.0
C592 C 0.18517 0.32429 0.88503 0.0
H593 H 0.18477 0.31926 0.77942 0.0
C594 C 0.19372 0.34314 0.88667 0.0
C595 C 0.18164 0.31551 0.84586 0.0
C596 C 0.17128 0.29521 0.84177 0.0
C597 C 0.19881 0.35352 0.85017 0.0
C598 C 0.1958 0.34477 0.81107 0.0
C599 C 0.18731 0.32591 0.80945 0.0
C600 C 0.20035 0.35492 0.77145 0.0
C601 C 0.20671 0.37367 0.85389 0.0
C602 C 0.18673 0.35138 0.74225 0.0
C603 C 0.19041 0.36263 0.70773 0.0
C604 C 0.2077 0.37764 0.7024 0.0
C605 C 0.22162 0.38028 0.72982 0.0
C606 C 0.21802 0.36885 0.76381 0.0
H607 H 0.20359 0.37751 0.88455 0.0
H608 H 0.2216 0.38043 0.85091 0.0
H609 H 0.2015 0.37886 0.82898 0.0
H610 H 0.17304 0.34053 0.74738 0.0
H611 H 0.17945 0.36037 0.68709 0.0
H612 H 0.63203 0.81793 0.66977 0.0
H613 H 0.65471 0.82961 0.72534 0.0
H614 H 0.61297 0.8014 0.81685 0.0
H615 H 0.59024 0.78985 0.76192 0.0
H616 H 0.63754 0.83772 0.83706 0.0
H617 H 0.67224 0.8 0.79201 0.0
H618 H 0.66999 0.81304 0.75103 0.0
H619 H 0.65016 0.79418 0.77261 0.0
C620 C 0.62769 0.81421 0.70171 0.0
C621 C 0.60934 0.80292 0.7114 0.0
C622 C 0.64065 0.82081 0.73334 0.0
C623 C 0.63547 0.81614 0.77502 0.0
C624 C 0.6172 0.80507 0.78481 0.0
H625 H 0.69278 0.84296 0.01242 0.0
H626 H 0.66945 0.83074 0.9583 0.0
C627 C 0.60425 0.79848 0.75332 0.0
C628 C 0.64903 0.82295 0.8087 0.0
H629 H 0.68565 0.82158 0.84601 0.0
C630 C 0.64804 0.83416 0.83919 0.0
C631 C 0.66261 0.81818 0.81128 0.0
C632 C 0.6638 0.80556 0.78024 0.0
C633 C 0.66057 0.8411 0.87187 0.0
C634 C 0.67421 0.8364 0.87433 0.0
C635 C 0.67513 0.8251 0.84395 0.0
C636 C 0.6881 0.84361 0.90729 0.0
C637 C 0.6594 0.85374 0.90285 0.0
C638 C 0.70626 0.85453 0.89632 0.0
C639 C 0.71958 0.8614 0.92695 0.0
C640 C 0.71498 0.85743 0.96924 0.0
C641 C 0.69675 0.84633 0.98017 0.0
C642 C 0.6834 0.83943 0.94936 0.0
H643 H 0.65079 0.85914 0.89128 0.0
H644 H 0.65343 0.84635 0.93228 0.0
H645 H 0.67303 0.86525 0.91002 0.0
H646 H 0.71013 0.85784 0.86397 0.0
H647 H 0.73349 0.86989 0.91739 0.0
H648 H 0.09275 0.81264 0.96764 0.0
H649 H 0.09703 0.79498 0.91368 0.0
H650 H 0.15377 0.82113 0.94395 0.0
H651 H 0.14929 0.8381 0.99925 0.0
H652 H 0.1159 0.81079 0.8484 0.0
H653 H 0.14487 0.772 0.91803 0.0
H654 H 0.1342 0.78157 0.94927 0.0
H655 H 0.15755 0.79509 0.93417 0.0
C656 C 0.10596 0.81399 0.96389 0.0
C657 C 0.12071 0.82668 0.98742 0.0
C658 C 0.10842 0.80398 0.93295 0.0
C659 C 0.12571 0.80672 0.92465 0.0
C660 C 0.14021 0.81844 0.95031 0.0
H661 H 0.17587 0.81424 0.69154 0.0
H662 H 0.15912 0.81722 0.74985 0.0
C663 C 0.13767 0.82818 0.98191 0.0
C664 C 0.12912 0.79973 0.88551 0.0
H665 H 0.15236 0.78048 0.84542 0.0
C666 C 0.12355 0.8038 0.84782 0.0
C667 C 0.13887 0.79042 0.88457 0.0
C668 C 0.14402 0.78436 0.92378 0.0
C669 C 0.12823 0.79962 0.80927 0.0
C670 C 0.13929 0.7917 0.80836 0.0
C671 C 0.14407 0.78679 0.84602 0.0
C672 C 0.14695 0.78926 0.76915 0.0
C673 C 0.12136 0.80387 0.77003 0.0
C674 C 0.14558 0.77258 0.76033 0.0
C675 C 0.15545 0.77101 0.72772 0.0
C676 C 0.16668 0.78604 0.703 0.0
C677 C 0.1671 0.80242 0.70984 0.0
C678 C 0.15748 0.80409 0.74309 0.0
H679 H 0.10832 0.8034 0.77567 0.0
H680 H 0.13124 0.81773 0.75966 0.0
H681 H 0.11947 0.7943 0.74455 0.0
H682 H 0.13752 0.76096 0.77992 0.0
H683 H 0.1549 0.75821 0.72292 0.0
H684 H 0.3586 0.1779 0.33662 0.0
H685 H 0.33659 0.16627 0.27969 0.0
H686 H 0.37988 0.18833 0.18995 0.0
H687 H 0.40195 0.20013 0.24632 0.0
H688 H 0.35167 0.19575 0.17319 0.0
H689 H 0.32617 0.12306 0.20379 0.0
H690 H 0.32586 0.13574 0.24809 0.0
H691 H 0.34707 0.14071 0.22547 0.0
C692 C 0.36344 0.18026 0.30478 0.0
C693 C 0.38202 0.18987 0.29602 0.0
C694 C 0.35086 0.17354 0.27235 0.0
C695 C 0.35668 0.17627 0.23076 0.0
C696 C 0.37517 0.18604 0.2219 0.0
H697 H 0.2982 0.14631 0.99342 0.0
H698 H 0.32225 0.159 0.04596 0.0
C699 C 0.38774 0.19273 0.25421 0.0
C700 C 0.3435 0.16914 0.19631 0.0
H701 H 0.31023 0.1301 0.15374 0.0
C702 C 0.34265 0.1814 0.16868 0.0
C703 C 0.33191 0.15043 0.19057 0.0
C704 C 0.33284 0.13667 0.21828 0.0
C705 C 0.33004 0.17542 0.13609 0.0
C706 C 0.31825 0.1567 0.13077 0.0
C707 C 0.31932 0.14445 0.158 0.0
C708 C 0.304 0.1495 0.09861 0.0
C709 C 0.32904 0.18915 0.10846 0.0
C710 C 0.28589 0.1398 0.11093 0.0
C711 C 0.27221 0.13247 0.08122 0.0
C712 C 0.27637 0.13467 0.03846 0.0
C713 C 0.29456 0.14446 0.0261 0.0
C714 C 0.3083 0.15178 0.05602 0.0
H715 H 0.33642 0.20294 0.122 0.0
H716 H 0.33519 0.18946 0.07781 0.0
H717 H 0.31479 0.1855 0.10304 0.0
H718 H 0.28233 0.13789 0.14367 0.0
H719 H 0.25836 0.12504 0.0919 0.0
H720 H 0.86606 0.163 0.0103 0.0
H721 H 0.85801 0.17676 0.06722 0.0
H722 H 0.82826 0.12475 0.12697 0.0
H723 H 0.83738 0.11133 0.07177 0.0
H724 H 0.82879 0.17337 0.09495 0.0
H725 H 0.85773 0.15271 0.22257 0.0
H726 H 0.86145 0.14975 0.16862 0.0
H727 H 0.84125 0.13322 0.19495 0.0
C728 C 0.85782 0.15458 0.03571 0.0
C729 C 0.85247 0.1362 0.03711 0.0
C730 C 0.85325 0.16242 0.06821 0.0
C731 C 0.84298 0.1519 0.10211 0.0
C732 C 0.83685 0.13331 0.10219 0.0
H733 H 0.78155 0.18162 0.26355 0.0
H734 H 0.79272 0.1699 0.2088 0.0
C735 C 0.84186 0.1256 0.07042 0.0
C736 C 0.83827 0.16022 0.13685 0.0
H737 H 0.83618 0.16157 0.24282 0.0
C738 C 0.83063 0.17097 0.12728 0.0
C739 C 0.84109 0.15753 0.17911 0.0
C740 C 0.85103 0.14786 0.19185 0.0
C741 C 0.82521 0.17861 0.1587 0.0
C742 C 0.82656 0.17459 0.2009 0.0
C743 C 0.83477 0.16435 0.2105 0.0
C744 C 0.81944 0.18072 0.23548 0.0
C745 C 0.81843 0.19117 0.1461 0.0
C746 C 0.83029 0.18959 0.27024 0.0
C747 C 0.82363 0.19562 0.30245 0.0
C748 C 0.80617 0.19316 0.2999 0.0
C749 C 0.79517 0.18389 0.26578 0.0
C750 C 0.80162 0.1774 0.23428 0.0
H751 H 0.82437 0.19787 0.11592 0.0
H752 H 0.80357 0.18329 0.14194 0.0
H753 H 0.82169 0.20178 0.16991 0.0
H754 H 0.84402 0.19215 0.2721 0.0
H755 H 0.83234 0.20277 0.32852 0.0
H756 H 0.83325 0.68468 0.0067 0.0
H757 H 0.82197 0.6602 0.05778 0.0
H758 H 0.8767 0.67433 0.08751 0.0
H759 H 0.88797 0.69952 0.03836 0.0
H760 H 0.82352 0.63086 0.08101 0.0
H761 H 0.86069 0.68621 0.19458 0.0
H762 H 0.85872 0.69038 0.14041 0.0
H763 H 0.87525 0.6845 0.15695 0.0
C764 C 0.84281 0.68209 0.02303 0.0
C765 C 0.86143 0.69399 0.01916 0.0
C766 C 0.83638 0.66818 0.05236 0.0
C767 C 0.84854 0.66591 0.0775 0.0
C768 C 0.86712 0.67627 0.06942 0.0
H769 H 0.81492 0.58344 0.27011 0.0
H770 H 0.82614 0.60096 0.20611 0.0
C771 C 0.87355 0.69048 0.04103 0.0
C772 C 0.84197 0.65459 0.11544 0.0
H773 H 0.84621 0.65661 0.22128 0.0
C774 C 0.82847 0.63644 0.11171 0.0
C775 C 0.84808 0.66208 0.15559 0.0
C776 C 0.86133 0.68189 0.16227 0.0
C777 C 0.82102 0.62551 0.14705 0.0
C778 C 0.82773 0.63282 0.18703 0.0
C779 C 0.84118 0.65098 0.19064 0.0
C780 C 0.82086 0.62209 0.22579 0.0
C781 C 0.80565 0.60647 0.14113 0.0
C782 C 0.81492 0.62853 0.25898 0.0
C783 C 0.80901 0.61881 0.29614 0.0
C784 C 0.80871 0.60235 0.30047 0.0
C785 C 0.81478 0.59598 0.26738 0.0
C786 C 0.82103 0.60589 0.23061 0.0
H787 H 0.79846 0.60496 0.11127 0.0
H788 H 0.8111 0.59712 0.14027 0.0
H789 H 0.79574 0.60233 0.16698 0.0
H790 H 0.8148 0.64108 0.25607 0.0
H791 H 0.80437 0.62399 0.32111 0.0
H792 H 0.95747 0.47853 0.35539 0.0
H793 H 0.97237 0.48692 0.42341 0.0
H794 H 0.92083 0.46737 0.48355 0.0
H795 H 0.90578 0.45893 0.41586 0.0
H796 H 0.94854 0.50298 0.50808 0.0
H797 H 0.97082 0.45234 0.51697 0.0
H798 H 0.97634 0.46453 0.46862 0.0
H799 H 0.95308 0.44995 0.4824 0.0
C800 C 0.94929 0.47592 0.38307 0.0
C801 C 0.93045 0.46803 0.38021 0.0
C802 C 0.9578 0.48063 0.42188 0.0
C803 C 0.94763 0.47754 0.45837 0.0
C804 C 0.92886 0.46974 0.45568 0.0
H805 H 0.01099 0.49983 0.68696 0.0
H806 H 0.98312 0.4858 0.64552 0.0
C807 C 0.92032 0.46492 0.41696 0.0
C808 C 0.95676 0.48318 0.49911 0.0
H809 H 0.98567 0.47784 0.56254 0.0
C810 C 0.95641 0.49729 0.5205 0.0
C811 C 0.96665 0.47544 0.51559 0.0
C812 C 0.96665 0.4596 0.49496 0.0
C813 C 0.96684 0.50479 0.55646 0.0
C814 C 0.97791 0.49803 0.57097 0.0
C815 C 0.97719 0.48303 0.5513 0.0
C816 C 0.9924 0.50791 0.60177 0.0
C817 C 0.96642 0.52028 0.57775 0.0
C818 C 0.00653 0.52516 0.59154 0.0
C819 C 0.0224 0.53306 0.61477 0.0
C820 C 0.02441 0.52386 0.6487 0.0
C821 C 0.00972 0.50724 0.66107 0.0
C822 C 0.99385 0.4992 0.63741 0.0
H823 H 0.95329 0.5197 0.5726 0.0
H824 H 0.96878 0.52032 0.61178 0.0
H825 H 0.97718 0.53318 0.5645 0.0
H826 H 0.00584 0.53196 0.56374 0.0
H827 H 0.0335 0.54592 0.60467 0.0
H828 H 0.46762 0.54085 0.58 0.0
H829 H 0.4771 0.52777 0.52499 0.0
H830 H 0.49212 0.50097 0.61708 0.0
H831 H 0.48242 0.51385 0.67269 0.0
H832 H 0.51148 0.5323 0.51313 0.0
H833 H 0.45979 0.46022 0.536 0.0
H834 H 0.45766 0.47844 0.55831 0.0
H835 H 0.47233 0.47159 0.58195 0.0
C836 C 0.47286 0.53211 0.58871 0.0
C837 C 0.47422 0.52834 0.63079 0.0
C838 C 0.47827 0.52466 0.55717 0.0
C839 C 0.48508 0.51326 0.56701 0.0
C840 C 0.48656 0.50949 0.6089 0.0
H841 H 0.52986 0.45995 0.42493 0.0
H842 H 0.51863 0.47207 0.47835 0.0
C843 C 0.48111 0.51693 0.6406 0.0
C844 C 0.49115 0.50583 0.53323 0.0
H845 H 0.48325 0.4665 0.48787 0.0
C846 C 0.50527 0.51792 0.50742 0.0
C847 C 0.48295 0.48707 0.52597 0.0
C848 C 0.46723 0.47355 0.55174 0.0
C849 C 0.5117 0.51173 0.47491 0.0
C850 C 0.50357 0.49298 0.46779 0.0
C851 C 0.48939 0.48088 0.49347 0.0
C852 C 0.51007 0.48559 0.43485 0.0
C853 C 0.52743 0.52525 0.44913 0.0
C854 C 0.50876 0.48906 0.39264 0.0
C855 C 0.51521 0.48217 0.36185 0.0
C856 C 0.52299 0.47165 0.37292 0.0
C857 C 0.52401 0.46804 0.41528 0.0
C858 C 0.51757 0.47492 0.44591 0.0
H859 H 0.53455 0.53874 0.4642 0.0
H860 H 0.53726 0.52059 0.44374 0.0
H861 H 0.52241 0.52675 0.41836 0.0
H862 H 0.50273 0.49706 0.38356 0.0
H863 H 0.51414 0.4851 0.3295 0.0
H864 H 0.52001 0.97035 0.64364 0.0
H865 H 0.53566 0.99645 0.59757 0.0
H866 H 0.49309 0.00893 0.61661 0.0
H867 H 0.47826 0.98366 0.665 0.0
H868 H 0.52236 0.99661 0.52803 0.0
H869 H 0.53378 0.05853 0.6072 0.0
H870 H 0.52826 0.03826 0.63572 0.0
H871 H 0.51065 0.04138 0.61334 0.0
C872 C 0.51455 0.97927 0.63945 0.0
C873 C 0.49811 0.97524 0.65786 0.0
C874 C 0.5234 0.99408 0.61297 0.0
C875 C 0.51561 0.00474 0.6035 0.0
C876 C 0.4997 0.00132 0.62415 0.0
H877 H 0.51454 0.04379 0.35788 0.0
H878 H 0.50959 0.02663 0.42221 0.0
C879 C 0.49115 0.98681 0.6517 0.0
C880 C 0.5222 0.01707 0.56713 0.0
H881 H 0.53007 0.05796 0.53182 0.0
C882 C 0.52441 0.01017 0.52922 0.0
C883 C 0.52507 0.03484 0.5684 0.0
C884 C 0.5245 0.04371 0.60853 0.0
C885 C 0.52873 0.02024 0.4924 0.0
C886 C 0.53007 0.03738 0.49302 0.0
C887 C 0.52865 0.04463 0.53116 0.0
C888 C 0.53276 0.04789 0.45439 0.0
C889 C 0.53189 0.01235 0.45338 0.0
C890 C 0.54694 0.06577 0.45171 0.0
C891 C 0.54948 0.07573 0.41544 0.0
C892 C 0.53799 0.06791 0.38101 0.0
C893 C 0.52373 0.05005 0.38375 0.0
C894 C 0.52098 0.04021 0.42038 0.0
H895 H 0.53657 0.00268 0.46096 0.0
H896 H 0.51902 0.00483 0.43594 0.0
H897 H 0.54208 0.02302 0.43284 0.0
H898 H 0.55615 0.072 0.47759 0.0
H899 H 0.56062 0.08948 0.41415 0.0
H900 H 0.11575 0.1851 0.05774 0.0
H901 H 0.13346 0.17126 0.03632 0.0
H902 H 0.18259 0.221 0.06256 0.0
H903 H 0.1649 0.23474 0.08516 0.0
H904 H 0.15511 0.18504 0.968 0.0
H905 H 0.19544 0.18383 0.10237 0.0
H906 H 0.176 0.18661 0.10874 0.0
H907 H 0.19725 0.20533 0.09261 0.0
C908 C 0.13031 0.19281 0.06077 0.0
C909 C 0.13894 0.21098 0.0731 0.0
C910 C 0.14043 0.18495 0.04815 0.0
C911 C 0.15935 0.19513 0.04747 0.0
C912 C 0.16802 0.2128 0.06331 0.0
H913 H 0.23493 0.16518 0.93828 0.0
H914 H 0.22232 0.18441 0.95797 0.0
C915 C 0.15787 0.22062 0.07645 0.0
C916 C 0.16968 0.18804 0.02504 0.0
H917 H 0.20217 0.1763 0.03631 0.0
C918 C 0.16541 0.18315 0.98299 0.0
C919 C 0.18333 0.18588 0.04435 0.0
C920 C 0.18822 0.19054 0.08959 0.0
C921 C 0.17407 0.17571 0.96008 0.0
C922 C 0.18729 0.17302 0.97974 0.0
C923 C 0.19208 0.17852 0.02127 0.0
C924 C 0.19466 0.1625 0.95964 0.0
C925 C 0.16885 0.17055 0.91517 0.0
C926 C 0.18319 0.14401 0.95258 0.0
C927 C 0.19034 0.13309 0.9416 0.0
C928 C 0.20905 0.14048 0.9371 0.0
C929 C 0.22042 0.15923 0.94074 0.0
C930 C 0.21326 0.17017 0.95243 0.0
H931 H 0.16243 0.1779 0.90154 0.0
H932 H 0.18081 0.17335 0.89611 0.0
H933 H 0.15901 0.15589 0.91332 0.0
H934 H 0.16884 0.1378 0.95847 0.0
H935 H 0.18134 0.11864 0.9395 0.0
H936 H 0.8481 0.0491 0.91633 0.0
H937 H 0.82407 0.01949 0.93904 0.0
H938 H 0.78994 0.042 0.96567 0.0
H939 H 0.81385 0.07164 0.94171 0.0
H940 H 0.80142 0.02724 0.03649 0.0
H941 H 0.77113 0.97923 0.90493 0.0
H942 H 0.79518 0.99388 0.90162 0.0
H943 H 0.78058 0.00332 0.89903 0.0
C944 C 0.83511 0.0475 0.92478 0.0
C945 C 0.83274 0.06256 0.92695 0.0
C946 C 0.82141 0.03061 0.93794 0.0
C947 C 0.80527 0.02859 0.95408 0.0
C948 C 0.80227 0.04328 0.95298 0.0
H949 H 0.7406 0.92217 0.06967 0.0
H950 H 0.74579 0.95176 0.04675 0.0
C951 C 0.81586 0.06014 0.93889 0.0
C952 C 0.79345 0.01231 0.97887 0.0
H953 H 0.77029 0.96643 0.97217 0.0
C954 C 0.79413 0.01394 0.02248 0.0
C955 C 0.78399 0.99504 0.96054 0.0
C956 C 0.7825 0.99268 0.91391 0.0
C957 C 0.78683 -0.00137 0.04818 0.0
C958 C 0.77861 0.98136 0.02974 0.0
C959 C 0.77661 0.97973 0.98625 0.0
C960 C 0.77478 0.9651 0.05388 0.0
C961 C 0.78883 0.00098 0.09477 0.0
C962 C 0.7893 0.96309 0.06714 0.0
C963 C 0.7864 0.94623 0.07967 0.0
C964 C 0.7689 0.93121 0.07976 0.0
C965 C 0.75418 0.93364 0.07069 0.0
C966 C 0.75713 0.95047 0.05722 0.0
H967 H 0.79121 0.01445 0.10454 0.0
H968 H 0.77663 0.99037 0.11084 0.0
H969 H 0.80055 -0.00028 0.10498 0.0
H970 H 0.80304 0.97417 0.06431 0.0
H971 H 0.79797 0.94461 0.0859 0.0
H972 H 0.93186 0.76541 0.93634 0.0
H973 H 0.96413 0.78368 0.95328 0.0
H974 H 0.95406 0.82215 0.01695 0.0
H975 H 0.92195 0.80392 1.0008 0.0
H976 H 0.99166 0.82028 0.94247 0.0
H977 H 0.97392 0.80326 0.10895 0.0
H978 H 0.95811 0.79179 0.06723 0.0
H979 H 0.96245 0.81359 0.08454 0.0
C980 C 0.93665 0.77805 0.95279 0.0
C981 C 0.92441 0.78318 0.96763 0.0
C982 C 0.95503 0.78839 0.96275 0.0
C983 C 0.96133 0.80395 0.98747 0.0
C984 C 0.94937 0.80992 0.99885 0.0
H985 H 0.0724 0.88372 0.03888 0.0
H986 H 0.04003 0.86838 0.02437 0.0
C987 C 0.93107 0.79958 0.98925 0.0
C988 C 0.98005 0.81335 1.00378 0.0
H989 H 0.00438 0.82525 0.09432 0.0
C990 C 0.99446 0.82135 0.97562 0.0
C991 C 0.98366 0.81442 0.0471 0.0
C992 C 0.96874 0.80517 0.07875 0.0
C993 C 0.01241 0.8308 0.98966 0.0
C994 C 0.01597 0.83255 0.03305 0.0
C995 C 0.00158 0.82415 0.06116 0.0
C996 C 0.03465 0.84271 0.04947 0.0
C997 C 0.02741 0.8386 0.95787 0.0
C998 C 0.04203 0.83376 0.07155 0.0
C999 C 0.06053 0.8426 0.08059 0.0
C1000 C 0.07184 0.86048 0.06741 0.0
C1001 C 0.06404 0.86989 0.0491 0.0
C1002 C 0.04558 0.8611 0.04038 0.0
H1003 H 0.0227 0.83227 0.92676 0.0
H1004 H 0.03247 0.85327 0.9546 0.0
H1005 H 0.03885 0.8368 0.96779 0.0
H1006 H 0.03375 0.81961 0.07932 0.0
H1007 H 0.06614 0.83496 0.09454 0.0
H1008 H 0.83995 0.77156 0.93235 0.0
H1009 H 0.82351 0.78731 0.9509 0.0
H1010 H 0.80358 0.7551 0.06219 0.0
H1011 H 0.81998 0.7395 0.0442 0.0
H1012 H 0.78552 0.77588 0.97641 0.0
H1013 H 0.8368 0.80863 0.10171 0.0
H1014 H 0.83986 0.79688 0.05857 0.0
H1015 H 0.8251 0.78438 0.10076 0.0
C1016 C 0.8316 0.76747 0.96003 0.0
C1017 C 0.83144 0.7545 0.98712 0.0
C1018 C 0.82229 0.77651 0.97069 0.0
C1019 C 0.81267 0.77258 0.00834 0.0
C1020 C 0.81117 0.7585 0.03336 0.0
H1021 H 0.75261 0.82526 0.09493 0.0
H1022 H 0.7614 0.80222 0.08451 0.0
C1023 C 0.82051 0.74958 0.02294 0.0
C1024 C 0.80592 0.7844 0.02388 0.0
H1025 H 0.81379 0.81607 0.09826 0.0
C1026 C 0.79158 0.78458 1.00318 0.0
C1027 C 0.814 0.79583 0.05866 0.0
C1028 C 0.82989 0.79661 0.08114 0.0
C1029 C 0.78515 0.79603 0.01631 0.0
C1030 C 0.79323 0.80741 0.05118 0.0
C1031 C 0.80748 0.80711 0.07197 0.0
C1032 C 0.78844 0.82117 0.06354 0.0
C1033 C 0.77023 0.79635 0.99195 0.0
C1034 C 0.80105 0.83944 0.05742 0.0
C1035 C 0.79613 0.85254 0.06348 0.0
C1036 C 0.77853 0.84762 0.07614 0.0
C1037 C 0.76631 0.82944 0.08544 0.0
C1038 C 0.77122 0.81627 0.07899 0.0
H1039 H 0.76737 0.78878 0.96218 0.0
H1040 H 0.75771 0.79015 0.01089 0.0
H1041 H 0.77381 0.81046 0.98497 0.0
H1042 H 0.81445 0.8435 0.04583 0.0
H1043 H 0.80585 0.86645 0.05617 0.0
H1044 H 0.17613 0.91037 0.96807 0.0
H1045 H 0.19667 0.94118 0.94502 0.0
H1046 H 0.18244 0.96164 0.05268 0.0
H1047 H 0.16227 0.93071 0.07654 0.0
H1048 H 0.18311 0.96152 0.92246 0.0
H1049 H 0.2353 -0.00158 0.04198 0.0
H1050 H 0.22217 0.97408 0.04065 0.0
H1051 H 0.21315 0.98696 0.06447 0.0
C1052 C 0.17794 0.92147 0.98765 0.0
C1053 C 0.16762 0.91823 0.024 0.0
C1054 C 0.18964 0.93907 0.97439 0.0
C1055 C 0.19112 0.95376 0.99701 0.0
C1056 C 0.18184 0.95056 0.03508 0.0
H1057 H 0.19154 0.04725 0.93146 0.0
H1058 H 0.18625 0.0166 0.93779 0.0
C1059 C 0.17028 0.93288 0.04873 0.0
C1060 C 0.19973 0.9719 0.97742 0.0
H1061 H 0.22809 0.01666 0.99659 0.0
C1062 C 0.19326 0.97353 0.93833 0.0
C1063 C 0.21314 0.98759 0.99767 0.0
C1064 C 0.22147 0.98666 0.03831 0.0
C1065 C 0.19892 0.99044 0.92033 0.0
C1066 C 0.21116 0.00616 0.94223 0.0
C1067 C 0.2186 0.00456 0.97991 0.0
C1068 C 0.21429 0.02417 0.92991 0.0
C1069 C 0.19124 0.99136 0.8787 0.0
C1070 C 0.23177 0.03856 0.92212 0.0
C1071 C 0.23479 0.05616 0.91783 0.0
C1072 C 0.2204 0.05952 0.92228 0.0
C1073 C 0.20282 0.04495 0.9275 0.0
C1074 C 0.19979 0.02744 0.93115 0.0
H1075 H 0.18713 0.97894 0.86014 0.0
H1076 H 0.17905 0.99257 0.88379 0.0
H1077 H 0.20114 0.00323 0.86044 0.0
H1078 H 0.24315 0.03629 0.92135 0.0
H1079 H 0.2485 0.06723 0.91458 0.0
H1080 H 0.93364 0.12682 0.9562 0.0
H1081 H 0.96518 0.14947 0.9679 0.0
H1082 H 0.95488 0.19095 0.92294 0.0
H1083 H 0.92305 0.16818 0.91114 0.0
H1084 H 0.99291 0.17591 0.91645 0.0
H1085 H 0.97274 0.20558 0.04571 0.0
H1086 H 0.95743 0.1838 0.02345 0.0
H1087 H 0.96264 0.20399 0.99555 0.0
C1088 C 0.93817 0.14069 0.94778 0.0
C1089 C 0.92588 0.14576 0.93296 0.0
C1090 C 0.95618 0.15363 0.95463 0.0
C1091 C 0.96224 0.17191 0.94716 0.0
C1092 C 0.95035 0.17692 0.92953 0.0
H1093 H 0.07614 0.25051 0.97322 0.0
H1094 H 0.04448 0.23613 0.95242 0.0
C1095 C 0.93226 0.16389 0.92229 0.0
C1096 C 0.9807 0.18553 0.96043 0.0
H1097 H 0.00391 0.21752 0.03483 0.0
C1098 C 0.99536 0.18518 0.94194 0.0
C1099 C 0.98375 0.19734 0.99429 0.0
C1100 C 0.96836 0.19772 0.01626 0.0
C1101 C 0.013 0.19616 0.95666 0.0
C1102 C 0.01609 0.208 0.99047 0.0
C1103 C 0.00147 0.20851 0.00878 0.0
C1104 C 0.03447 0.2195 0.00751 0.0
C1105 C 0.02815 0.19457 0.93681 0.0
C1106 C 0.03916 0.21578 0.04676 0.0
C1107 C 0.05732 0.2242 0.05907 0.0
C1108 C 0.07089 0.23629 0.03203 0.0
C1109 C 0.06593 0.24111 0.9945 0.0
C1110 C 0.04788 0.23288 0.98248 0.0
H1111 H 0.02303 0.18222 0.91738 0.0
H1112 H 0.03614 0.20643 0.91647 0.0
H1113 H 0.03735 0.19434 0.96091 0.0
H1114 H 0.02894 0.20552 0.06658 0.0
H1115 H 0.0608 0.22018 0.08801 0.0
H1116 H 0.81318 0.53005 0.44879 0.0
H1117 H 0.83675 0.52461 0.42223 0.0
H1118 H 0.86852 0.58054 0.38694 0.0
H1119 H 0.845 0.58613 0.41409 0.0
H1120 H 0.85696 0.55547 0.31987 0.0
H1121 H 0.88908 0.53614 0.44368 0.0
H1122 H 0.86503 0.52557 0.44942 0.0
H1123 H 0.87868 0.54969 0.45382 0.0
C1124 C 0.82562 0.5414 0.43751 0.0
C1125 C 0.82723 0.55848 0.43342 0.0
C1126 C 0.8391 0.53827 0.42221 0.0
C1127 C 0.85436 0.55216 0.40242 0.0
C1128 C 0.85687 0.56967 0.40225 0.0
H1129 H 0.91682 0.51113 0.27258 0.0
H1130 H 0.91175 0.53446 0.30307 0.0
C1131 C 0.84349 0.57287 0.41818 0.0
C1132 C 0.8654 0.54744 0.37523 0.0
H1133 H 0.88791 0.52393 0.375 0.0
C1134 C 0.86418 0.54902 0.33192 0.0
C1135 C 0.87483 0.53907 0.39091 0.0
C1136 C 0.87715 0.53765 0.43704 0.0
C1137 C 0.87093 0.54121 0.30396 0.0
C1138 C 0.87909 0.53161 0.31974 0.0
C1139 C 0.88157 0.53124 0.36293 0.0
C1140 C 0.88291 0.51985 0.29283 0.0
C1141 C 0.86858 0.54259 0.25781 0.0
C1142 C 0.86846 0.50427 0.27544 0.0
C1143 C 0.87128 0.49087 0.25829 0.0
C1144 C 0.88862 0.49288 0.25804 0.0
C1145 C 0.90333 0.50926 0.27186 0.0
C1146 C 0.90045 0.52256 0.28964 0.0
H1147 H 0.86689 0.55433 0.25033 0.0
H1148 H 0.88031 0.5438 0.24021 0.0
H1149 H 0.85631 0.53019 0.24713 0.0
H1150 H 0.85479 0.50182 0.278 0.0
H1151 H 0.85969 0.47837 0.24811 0.0
H1152 H 0.48602 0.40574 0.26652 0.0
H1153 H 0.46254 0.37535 0.28772 0.0
H1154 H 0.50087 0.3568 0.27759 0.0
H1155 H 0.52433 0.38707 0.25728 0.0
H1156 H 0.46079 0.33074 0.25308 0.0
H1157 H 0.47457 0.36274 0.41036 0.0
H1158 H 0.46957 0.37309 0.36737 0.0
H1159 H 0.49045 0.37295 0.36817 0.0
C1160 C 0.48914 0.39493 0.26674 0.0
C1161 C 0.50694 0.39867 0.26023 0.0
C1162 C 0.47579 0.37766 0.27929 0.0
C1163 C 0.48009 0.36397 0.28471 0.0
C1164 C 0.49731 0.36721 0.27359 0.0
H1165 H 0.46759 0.27473 0.40614 0.0
H1166 H 0.47479 0.30478 0.38278 0.0
C1167 C 0.51068 0.38446 0.26172 0.0
C1168 C 0.46803 0.34729 0.30799 0.0
H1169 H 0.45908 0.33111 0.40766 0.0
C1170 C 0.45988 0.33078 0.28677 0.0
C1171 C 0.46712 0.34748 0.35202 0.0
C1172 C 0.47589 0.36496 0.37614 0.0
C1173 C 0.45159 0.31437 0.30864 0.0
C1174 C 0.45164 0.31458 0.35271 0.0
C1175 C 0.45896 0.33107 0.37388 0.0
C1176 C 0.44694 0.29804 0.37657 0.0
C1177 C 0.44392 0.29689 0.28473 0.0
C1178 C 0.42889 0.2847 0.38317 0.0
C1179 C 0.42475 0.26757 0.39739 0.0
C1180 C 0.43862 0.2636 0.40438 0.0
C1181 C 0.45667 0.27749 0.40125 0.0
C1182 C 0.46079 0.29462 0.38769 0.0
H1183 H 0.44471 0.29902 0.25048 0.0
H1184 H 0.45138 0.2898 0.29295 0.0
H1185 H 0.42957 0.28794 0.29351 0.0
H1186 H 0.41805 0.28716 0.37465 0.0
H1187 H 0.41073 0.25701 0.39889 0.0
H1188 H 0.59327 0.08947 0.2655 0.0
H1189 H 0.62308 0.09676 0.29172 0.0
H1190 H 0.64237 0.15332 0.2721 0.0
H1191 H 0.61262 0.14621 0.24645 0.0
H1192 H 0.66811 0.13706 0.25564 0.0
H1193 H 0.63466 0.12581 0.41067 0.0
H1194 H 0.62393 0.10937 0.36978 0.0
H1195 H 0.62568 0.13105 0.36527 0.0
C1196 C 0.60408 0.10339 0.26494 0.0
C1197 C 0.60059 0.11731 0.25418 0.0
C1198 C 0.62105 0.10753 0.28031 0.0
C1199 C 0.63476 0.12557 0.28436 0.0
C1200 C 0.6319 0.13931 0.26929 0.0
H1201 H 0.72467 0.20163 0.40908 0.0
H1202 H 0.69423 0.17945 0.3864 0.0
C1203 C 0.61493 0.13523 0.25445 0.0
C1204 C 0.65107 0.13053 0.30954 0.0
H1205 H 0.6663 0.13996 0.40994 0.0
C1206 C 0.66773 0.13726 0.2894 0.0
C1207 C 0.65044 0.13091 0.35356 0.0
C1208 C 0.63277 0.12395 0.37642 0.0
C1209 C 0.68392 0.1451 0.31218 0.0
C1210 C 0.68335 0.14626 0.3561 0.0
C1211 C 0.66663 0.13884 0.37633 0.0
C1212 C 0.69999 0.15767 0.38023 0.0
C1213 C 0.70164 0.15314 0.28908 0.0
C1214 C 0.71289 0.15238 0.38689 0.0
C1215 C 0.73026 0.16499 0.40071 0.0
C1216 C 0.7349 0.18304 0.4073 0.0
C1217 C 0.72139 0.18777 0.40449 0.0
C1218 C 0.70404 0.17514 0.3913 0.0
H1219 H 0.69976 0.15194 0.25475 0.0
H1220 H 0.71016 0.16762 0.29726 0.0
H1221 H 0.70906 0.14616 0.29855 0.0
H1222 H 0.70995 0.1389 0.37857 0.0
H1223 H 0.74049 0.16107 0.402 0.0
H1224 H 0.52176 0.13954 0.2539 0.0
H1225 H 0.4974 0.14409 0.27927 0.0
H1226 H 0.46417 0.08693 0.30051 0.0
H1227 H 0.48852 0.08224 0.27441 0.0
H1228 H 0.45658 0.12636 0.26317 0.0
H1229 H 0.47799 0.11463 0.4187 0.0
H1230 H 0.4925 0.12017 0.37376 0.0
H1231 H 0.47266 0.09836 0.37762 0.0
C1232 C 0.50897 0.12785 0.2622 0.0
C1233 C 0.50702 0.11056 0.26225 0.0
C1234 C 0.4951 0.13047 0.27686 0.0
C1235 C 0.47914 0.11587 0.29232 0.0
C1236 C 0.47645 0.09835 0.28882 0.0
H1237 H 0.40932 0.1528 0.40601 0.0
H1238 H 0.41631 0.12946 0.3841 0.0
C1239 C 0.49029 0.09568 0.27351 0.0
C1240 C 0.46686 0.11967 0.31724 0.0
H1241 H 0.46038 0.12859 0.41755 0.0
C1242 C 0.45687 0.12632 0.29694 0.0
C1243 C 0.46751 0.11976 0.36131 0.0
C1244 C 0.47824 0.11291 0.38445 0.0
C1245 C 0.44835 0.13402 0.31955 0.0
C1246 C 0.44995 0.13513 0.3635 0.0
C1247 C 0.45906 0.12754 0.38392 0.0
C1248 C 0.44525 0.14702 0.38732 0.0
C1249 C 0.43887 0.1422 0.29617 0.0
C1250 C 0.45919 0.16418 0.39891 0.0
C1251 C 0.45525 0.17747 0.41122 0.0
C1252 C 0.43729 0.17372 0.41265 0.0
C1253 C 0.42326 0.15596 0.40574 0.0
C1254 C 0.42723 0.14268 0.39279 0.0
H1255 H 0.43967 0.14103 0.26186 0.0
H1256 H 0.42443 0.13529 0.30531 0.0
H1257 H 0.4449 0.15668 0.30439 0.0
H1258 H 0.47317 0.16778 0.39493 0.0
H1259 H 0.46629 0.19109 0.41608 0.0
H1260 H 0.84653 0.26298 0.39434 0.0
H1261 H 0.86939 0.29331 0.37114 0.0
H1262 H 0.83068 0.31125 0.38438 0.0
H1263 H 0.80776 0.28094 0.40622 0.0
H1264 H 0.85821 0.30656 0.29465 0.0
H1265 H 0.88129 0.35415 0.42829 0.0
H1266 H 0.87364 0.33036 0.43412 0.0
H1267 H 0.85755 0.33781 0.42741 0.0
C1268 C 0.84323 0.27367 0.3943 0.0
C1269 C 0.82549 0.26977 0.40244 0.0
C1270 C 0.85621 0.2909 0.38065 0.0
C1271 C 0.85169 0.30447 0.37613 0.0
C1272 C 0.83448 0.30101 0.38814 0.0
H1273 H 0.86094 0.38826 0.23482 0.0
H1274 H 0.85553 0.35896 0.25955 0.0
C1275 C 0.82143 0.28374 0.40085 0.0
C1276 C 0.86347 0.32113 0.35249 0.0
H1277 H 0.88433 0.36694 0.36033 0.0
C1278 C 0.86438 0.31979 0.30904 0.0
C1279 C 0.87144 0.33831 0.37136 0.0
C1280 C 0.87111 0.34035 0.41793 0.0
C1281 C 0.87194 0.33524 0.28372 0.0
C1282 C 0.87877 0.35236 0.30242 0.0
C1283 C 0.87907 0.35376 0.34606 0.0
C1284 C 0.88324 0.36865 0.27767 0.0
C1285 C 0.87179 0.33315 0.23709 0.0
C1286 C 0.90079 0.38358 0.27781 0.0
C1287 C 0.90399 0.40028 0.2628 0.0
C1288 C 0.88956 0.40235 0.24859 0.0
C1289 C 0.87231 0.38702 0.24532 0.0
C1290 C 0.8692 0.37029 0.25956 0.0
H1291 H 0.87029 0.31993 0.22809 0.0
H1292 H 0.86025 0.33399 0.22382 0.0
H1293 H 0.88439 0.34413 0.22312 0.0
H1294 H 0.91176 0.38257 0.2919 0.0
H1295 H 0.91738 0.4119 0.26625 0.0
H1296 H 0.60691 0.46546 0.27402 0.0
H1297 H 0.63783 0.48774 0.29301 0.0
H1298 H 0.62432 0.52994 0.28649 0.0
H1299 H 0.5932 0.50756 0.26689 0.0
H1300 H 0.66605 0.5233 0.25885 0.0
H1301 H 0.63713 0.52593 0.41278 0.0
H1302 H 0.62454 0.50787 0.37626 0.0
H1303 H 0.62801 0.52997 0.36606 0.0
C1304 C 0.61071 0.47958 0.27498 0.0
C1305 C 0.59771 0.48481 0.26902 0.0
C1306 C 0.62835 0.49228 0.28602 0.0
C1307 C 0.63323 0.5104 0.29182 0.0
C1308 C 0.62073 0.51597 0.28243 0.0
H1309 H 0.74043 0.57972 0.40682 0.0
H1310 H 0.71055 0.57214 0.37978 0.0
C1311 C 0.60304 0.50323 0.27078 0.0
C1312 C 0.65063 0.52258 0.31248 0.0
H1313 H 0.66849 0.53795 0.40923 0.0
C1314 C 0.66666 0.52699 0.29138 0.0
C1315 C 0.65132 0.52721 0.35508 0.0
C1316 C 0.63439 0.52251 0.37919 0.0
C1317 C 0.68328 0.5351 0.31234 0.0
C1318 C 0.68379 0.53864 0.35549 0.0
C1319 C 0.66797 0.53523 0.37611 0.0
C1320 C 0.70015 0.54335 0.38013 0.0
C1321 C 0.70009 0.53886 0.28892 0.0
C1322 C 0.70371 0.5296 0.39114 0.0
C1323 C 0.72064 0.53384 0.40646 0.0
C1324 C 0.73427 0.55193 0.41121 0.0
C1325 C 0.73011 0.56566 0.40394 0.0
C1326 C 0.71313 0.56138 0.38819 0.0
H1327 H 0.698 0.538 0.25465 0.0
H1328 H 0.71142 0.55247 0.29689 0.0
H1329 H 0.70409 0.52885 0.29819 0.0
H1330 H 0.6938 0.5156 0.38522 0.0
H1331 H 0.72348 0.523 0.41176 0.0
H1332 H 0.5714 0.83551 0.6074 0.0
H1333 H 0.56076 0.85589 0.63106 0.0
H1334 H 0.50632 0.811 0.6371 0.0
H1335 H 0.51691 0.79061 0.61458 0.0
H1336 H 0.53434 0.86476 0.60748 0.0
H1337 H 0.51723 0.82841 0.75808 0.0
H1338 H 0.53065 0.82544 0.71887 0.0
H1339 H 0.50642 0.81364 0.71474 0.0
C1340 C 0.55708 0.83013 0.61232 0.0
C1341 C 0.54497 0.81148 0.60947 0.0
C1342 C 0.55105 0.84175 0.62626 0.0
C1343 C 0.53286 0.83481 0.63722 0.0
C1344 C 0.5205 0.81652 0.63004 0.0
H1345 H 0.45868 0.86653 0.70469 0.0
H1346 H 0.47604 0.85136 0.69232 0.0
C1347 C 0.52652 0.80493 0.61665 0.0
C1348 C 0.52683 0.84621 0.65877 0.0
H1349 H 0.5048 0.84772 0.74619 0.0
C1350 C 0.52817 0.86126 0.6381 0.0
C1351 C 0.51904 0.84176 0.69907 0.0
C1352 C 0.51841 0.82655 0.7242 0.0
C1353 C 0.52086 0.87127 0.65557 0.0
C1354 C 0.51212 0.86611 0.69469 0.0
C1355 C 0.51152 0.8516 0.71621 0.0
C1356 C 0.50157 0.87419 0.71085 0.0
C1357 C 0.52168 0.88675 0.63129 0.0
C1358 C 0.51009 0.89168 0.72765 0.0
C1359 C 0.50008 0.90027 0.7356 0.0
C1360 C 0.48156 0.89149 0.7262 0.0
C1361 C 0.47292 0.8735 0.7125 0.0
C1362 C 0.48282 0.86488 0.70518 0.0
H1363 H 0.52821 0.88851 0.6004 0.0
H1364 H 0.50784 0.8845 0.62655 0.0
H1365 H 0.5294 0.89944 0.64929 0.0
H1366 H 0.52457 0.89902 0.73229 0.0
H1367 H 0.50709 0.91425 0.74546 0.0
H1368 H 0.21136 0.73108 0.60924 0.0
H1369 H 0.19343 0.69904 0.62638 0.0
H1370 H 0.14458 0.70147 0.61101 0.0
H1371 H 0.16242 0.73329 0.59229 0.0
H1372 H 0.17371 0.68861 0.69532 0.0
H1373 H 0.12903 0.65305 0.5614 0.0
H1374 H 0.14835 0.67542 0.55684 0.0
H1375 H 0.12745 0.67223 0.57792 0.0
C1376 C 0.19677 0.72455 0.60764 0.0
C1377 C 0.18829 0.73467 0.59936 0.0
C1378 C 0.18654 0.70629 0.61785 0.0
C1379 C 0.16764 0.69783 0.62026 0.0
C1380 C 0.1591 0.70756 0.6087 0.0
H1381 H 0.08772 0.5951 0.73101 0.0
H1382 H 0.1047 0.62759 0.71559 0.0
C1383 C 0.16934 0.72579 0.59781 0.0
C1384 C 0.15723 0.67975 0.6399 0.0
H1385 H 0.12162 0.63715 0.62598 0.0
C1386 C 0.16238 0.67735 0.67998 0.0
C1387 C 0.14231 0.66509 0.62018 0.0
C1388 C 0.13655 0.66649 0.57657 0.0
C1389 C 0.15313 0.6607 0.70061 0.0
C1390 C 0.1383 0.64613 0.68086 0.0
C1391 C 0.1329 0.64852 0.6412 0.0
C1392 C 0.12928 0.62778 0.69881 0.0
C1393 C 0.15927 0.65868 0.74329 0.0
C1394 C 0.13777 0.61743 0.69601 0.0
C1395 C 0.12812 0.59898 0.70446 0.0
C1396 C 0.1099 0.59066 0.7164 0.0
C1397 C 0.10186 0.60131 0.72274 0.0
C1398 C 0.11146 0.61978 0.71351 0.0
H1399 H 0.16905 0.67192 0.7572 0.0
H1400 H 0.1475 0.6516 0.76449 0.0
H1401 H 0.16585 0.65036 0.74094 0.0
H1402 H 0.15147 0.62337 0.68441 0.0
H1403 H 0.13449 0.59097 0.69878 0.0
H1404 H 0.40489 0.49855 0.73361 0.0
H1405 H 0.37409 0.47922 0.70725 0.0
H1406 H 0.36611 0.52511 0.70391 0.0
H1407 H 0.39683 0.54446 0.72943 0.0
H1408 H 0.33774 0.47177 0.72816 0.0
H1409 H 0.36347 0.5095 0.58022 0.0
H1410 H 0.37821 0.51057 0.62177 0.0
H1411 H 0.36717 0.52374 0.62454 0.0
C1412 C 0.39628 0.50433 0.72895 0.0
C1413 C 0.40324 0.523 0.73326 0.0
C1414 C 0.37878 0.49332 0.71346 0.0
C1415 C 0.3681 0.5009 0.70244 0.0
C1416 C 0.37433 0.51912 0.71129 0.0
H1417 H 0.26766 0.47707 0.60646 0.0
H1418 H 0.2996 0.49021 0.62382 0.0
C1419 C 0.39179 0.53011 0.72632 0.0
C1420 C 0.35126 0.49044 0.67818 0.0
H1421 H 0.33143 0.491 0.58619 0.0
C1422 C 0.33639 0.47574 0.69689 0.0
C1423 C 0.34967 0.49557 0.63714 0.0
C1424 C 0.36553 0.51059 0.61451 0.0
C1425 C 0.3196 0.46671 0.67654 0.0
C1426 C 0.31781 0.47244 0.63632 0.0
C1427 C 0.33289 0.48664 0.61695 0.0
C1428 C 0.29992 0.46526 0.61631 0.0
C1429 C 0.30367 0.45172 0.69903 0.0
C1430 C 0.28993 0.4472 0.60348 0.0
C1431 C 0.27168 0.4397 0.5929 0.0
C1432 C 0.26324 0.45017 0.59554 0.0
C1433 C 0.27382 0.4687 0.60419 0.0
C1434 C 0.29204 0.47619 0.61436 0.0
H1435 H 0.30681 0.4505 0.73204 0.0
H1436 H 0.29199 0.45401 0.69818 0.0
H1437 H 0.29956 0.43871 0.68315 0.0
H1438 H 0.2959 0.43864 0.60424 0.0
H1439 H 0.26384 0.42535 0.58667 0.0
H1440 H 0.16719 0.42337 0.70707 0.0
H1441 H 0.14538 0.4334 0.71689 0.0
H1442 H 0.14491 0.44172 0.5845 0.0
H1443 H 0.16678 0.43134 0.57425 0.0
H1444 H 0.15414 0.46818 0.6953 0.0
H1445 H 0.09098 0.41744 0.6172 0.0
H1446 H 0.10859 0.41274 0.63213 0.0
H1447 H 0.11115 0.42587 0.58638 0.0
C1448 C 0.16223 0.42703 0.67984 0.0
C1449 C 0.16884 0.42678 0.63988 0.0
C1450 C 0.14972 0.4327 0.68557 0.0
C1451 C 0.14352 0.43828 0.65151 0.0
C1452 C 0.14934 0.43721 0.61117 0.0
H1453 H 0.09015 0.49882 0.61904 0.0
H1454 H 0.10303 0.47925 0.61367 0.0
C1455 C 0.16186 0.43135 0.60533 0.0
C1456 C 0.13271 0.44715 0.65926 0.0
H1457 H 0.09228 0.44457 0.63954 0.0
C1458 C 0.14054 0.46294 0.68344 0.0
C1459 C 0.11503 0.44027 0.64369 0.0
C1460 C 0.10582 0.42306 0.61867 0.0
C1461 C 0.13137 0.47235 0.69156 0.0
C1462 C 0.1137 0.46556 0.67577 0.0
C1463 C 0.10576 0.44963 0.65197 0.0
C1464 C 0.10404 0.4758 0.68014 0.0
C1465 C 0.14098 0.48986 0.7155 0.0
C1466 C 0.09986 0.48001 0.71944 0.0
C1467 C 0.09255 0.49142 0.72277 0.0
C1468 C 0.08926 0.49869 0.68677 0.0
C1469 C 0.09267 0.49366 0.64751 0.0
C1470 C 0.09997 0.48236 0.64428 0.0
H1471 H 0.15573 0.49505 0.71771 0.0
H1472 H 0.13884 0.50035 0.70061 0.0
H1473 H 0.13549 0.48766 0.74762 0.0
H1474 H 0.10262 0.4748 0.74752 0.0
H1475 H 0.08994 0.49492 0.7534 0.0
H1476 H 0.48475 0.61667 0.7572 0.0
H1477 H 0.5097 0.64562 0.73427 0.0
H1478 H 0.54226 0.62093 0.71254 0.0
H1479 H 0.51723 0.59183 0.73615 0.0
H1480 H 0.54927 0.66905 0.74724 0.0
H1481 H 0.52881 0.63299 0.59472 0.0
H1482 H 0.51488 0.62394 0.64045 0.0
H1483 H 0.53564 0.62363 0.63641 0.0
C1484 C 0.49757 0.61765 0.74982 0.0
C1485 C 0.49911 0.60209 0.74839 0.0
C1486 C 0.51179 0.63416 0.73644 0.0
C1487 C 0.52766 0.63529 0.72092 0.0
C1488 C 0.53005 0.62026 0.72415 0.0
H1489 H 0.58859 0.74163 0.60077 0.0
H1490 H 0.58589 0.71298 0.62347 0.0
C1491 C 0.51583 0.60371 0.73813 0.0
C1492 C 0.53968 0.65104 0.6948 0.0
H1493 H 0.54466 0.66451 0.59312 0.0
C1494 C 0.54889 0.6681 0.71352 0.0
C1495 C 0.53894 0.64968 0.65078 0.0
C1496 C 0.52902 0.63163 0.6291 0.0
C1497 C 0.55621 0.6839 0.68944 0.0
C1498 C 0.55423 0.68251 0.64556 0.0
C1499 C 0.54625 0.66547 0.62671 0.0
C1500 C 0.55673 0.6981 0.62045 0.0
C1501 C 0.56457 0.70193 0.71124 0.0
C1502 C 0.54133 0.69878 0.60837 0.0
C1503 C 0.54282 0.71504 0.59554 0.0
C1504 C 0.55978 0.7308 0.59412 0.0
C1505 C 0.57538 0.7296 0.6011 0.0
C1506 C 0.57385 0.71332 0.61454 0.0
H1507 H 0.56421 0.70058 0.74569 0.0
H1508 H 0.57886 0.71031 0.7014 0.0
H1509 H 0.55736 0.70921 0.70238 0.0
H1510 H 0.52799 0.68716 0.61261 0.0
H1511 H 0.53061 0.71566 0.59058 0.0
H1512 H 0.25473 0.83295 0.70786 0.0
H1513 H 0.2866 0.85485 0.71734 0.0
H1514 H 0.29566 0.85301 0.58572 0.0
H1515 H 0.2634 0.83107 0.57583 0.0
H1516 H 0.31224 0.84512 0.69878 0.0
H1517 H 0.32611 0.90732 0.61396 0.0
H1518 H 0.30362 0.8903 0.62935 0.0
H1519 H 0.31412 0.8867 0.58479 0.0
C1520 C 0.26341 0.83749 0.6807 0.0
C1521 C 0.25664 0.83018 0.64112 0.0
C1522 C 0.28161 0.85003 0.68621 0.0
C1523 C 0.29349 0.85555 0.65232 0.0
C1524 C 0.28665 0.84911 0.61223 0.0
H1525 H 0.40788 0.90741 0.62364 0.0
H1526 H 0.37545 0.89443 0.61651 0.0
C1527 C 0.26826 0.83657 0.60659 0.0
C1528 C 0.31318 0.86616 0.66025 0.0
H1529 H 0.35156 0.90583 0.63858 0.0
C1530 C 0.32083 0.85847 0.68593 0.0
C1531 C 0.3243 0.88351 0.64333 0.0
C1532 C 0.31666 0.89257 0.61657 0.0
C1533 C 0.33939 0.86745 0.69436 0.0
C1534 C 0.35058 0.88481 0.67735 0.0
C1535 C 0.34291 0.8926 0.65194 0.0
C1536 C 0.37046 0.89431 0.68256 0.0
C1537 C 0.34693 0.85796 0.72005 0.0
C1538 C 0.37855 0.89898 0.72217 0.0
C1539 C 0.39725 0.90634 0.72653 0.0
C1540 C 0.40811 0.90923 0.69125 0.0
C1541 C 0.39996 0.90524 0.6516 0.0
C1542 C 0.38138 0.89788 0.64735 0.0
H1543 H 0.3372 0.84329 0.72298 0.0
H1544 H 0.35961 0.85975 0.70613 0.0
H1545 H 0.35005 0.86383 0.75185 0.0
H1546 H 0.37037 0.89662 0.74974 0.0
H1547 H 0.40312 0.90941 0.75743 0.0
loop_
_geom_bond_atom_site_label_1
_geom_bond_atom_site_label_2
_geom_bond_distance
_geom_bond_site_symmetry_2
_ccdc_geom_bond_type
Zn0 O3 2.031 1_556 S
Zn0 O5 2.049 . S
Zn0 O10 2.067 . S
Zn1 O2 1.962 . S
Zn1 O4 1.986 . S
Zn1 O6 1.996 . S
Zn1 O9 1.943 . S
O2 Zn1 1.962 . S
O2 C7 1.254 . S
O3 Zn0 2.031 1_554 S
O3 C7 1.269 . S
O4 Zn1 1.986 . S
O4 C11 1.262 . S
O5 Zn0 2.049 . S
O5 C13 1.260 1_556 S
O6 Zn1 1.996 . S
O6 C13 1.257 . S
C7 O2 1.254 . S
C7 O3 1.269 . S
C8 O9 1.249 1_556 S
C8 O10 1.270 . S
O9 Zn1 1.943 . S
O9 C8 1.249 1_554 S
O10 Zn0 2.067 . S
O10 C8 1.270 . S
C11 O4 1.262 . S
C11 O12 1.232 . S
O12 C11 1.232 . S
C13 O5 1.260 1_554 S
C13 O6 1.257 . S
Zn14 O17 2.031 1_556 S
Zn14 O19 2.049 . S
Zn14 O24 2.067 . S
Zn15 O16 1.962 . S
Zn15 O18 1.986 . S
Zn15 O20 1.996 . S
Zn15 O23 1.943 . S
O16 Zn15 1.962 . S
O16 C21 1.254 . S
O17 Zn14 2.031 1_554 S
O17 C21 1.269 . S
O18 Zn15 1.986 . S
O18 C25 1.262 . S
O19 Zn14 2.049 . S
O19 C27 1.260 1_556 S
O20 Zn15 1.996 . S
O20 C27 1.257 . S
C21 O16 1.254 . S
C21 O17 1.269 . S
C22 O23 1.249 1_556 S
C22 O24 1.270 . S
O23 Zn15 1.943 . S
O23 C22 1.249 1_554 S
O24 Zn14 2.067 . S
O24 C22 1.270 . S
C25 O18 1.262 . S
C25 O26 1.232 . S
O26 C25 1.232 . S
C27 O19 1.260 1_554 S
C27 O20 1.257 . S
Zn28 O31 2.031 1_556 S
Zn28 O33 2.049 . S
Zn28 O38 2.067 . S
Zn29 O30 1.962 . S
Zn29 O32 1.986 . S
Zn29 O34 1.996 . S
Zn29 O37 1.943 . S
O30 Zn29 1.962 . S
O30 C35 1.254 . S
O31 Zn28 2.031 1_554 S
O31 C35 1.269 . S
O32 Zn29 1.986 . S
O32 C39 1.262 . S
O33 Zn28 2.049 . S
O33 C41 1.260 1_556 S
O34 Zn29 1.996 . S
O34 C41 1.257 . S
C35 O30 1.254 . S
C35 O31 1.269 . S
C36 O37 1.249 1_556 S
C36 O38 1.270 . S
O37 Zn29 1.943 . S
O37 C36 1.249 1_554 S
O38 Zn28 2.067 . S
O38 C36 1.270 . S
C39 O32 1.262 . S
C39 O40 1.232 . S
O40 C39 1.232 . S
C41 O33 1.260 1_554 S
C41 O34 1.257 . S
Zn42 O45 2.031 1_554 S
Zn42 O47 2.049 . S
Zn42 O52 2.067 . S
Zn43 O44 1.962 . S
Zn43 O46 1.986 . S
Zn43 O48 1.996 . S
Zn43 O51 1.943 . S
O44 Zn43 1.962 . S
O44 C49 1.254 . S
O45 Zn42 2.031 1_556 S
O45 C49 1.269 . S
O46 Zn43 1.986 . S
O46 C53 1.262 . S
O47 Zn42 2.049 . S
O47 C55 1.260 1_554 S
O48 Zn43 1.996 . S
O48 C55 1.257 . S
C49 O44 1.254 . S
C49 O45 1.269 . S
C50 O51 1.249 1_554 S
C50 O52 1.270 . S
O51 Zn43 1.943 . S
O51 C50 1.249 1_556 S
O52 Zn42 2.067 . S
O52 C50 1.270 . S
C53 O46 1.262 . S
C53 O54 1.232 . S
O54 C53 1.232 . S
C55 O47 1.260 1_556 S
C55 O48 1.257 . S
Zn56 O59 2.031 1_554 S
Zn56 O61 2.049 . S
Zn56 O66 2.067 . S
Zn57 O58 1.962 . S
Zn57 O60 1.986 . S
Zn57 O62 1.996 . S
Zn57 O65 1.943 . S
O58 Zn57 1.962 . S
O58 C63 1.254 . S
O59 Zn56 2.031 1_556 S
O59 C63 1.269 . S
O60 Zn57 1.986 . S
O60 C67 1.262 . S
O61 Zn56 2.049 . S
O61 C69 1.260 1_554 S
O62 Zn57 1.996 . S
O62 C69 1.257 . S
C63 O58 1.254 . S
C63 O59 1.269 . S
C64 O65 1.249 1_554 S
C64 O66 1.270 . S
O65 Zn57 1.943 . S
O65 C64 1.249 1_556 S
O66 Zn56 2.067 . S
O66 C64 1.270 . S
C67 O60 1.262 . S
C67 O68 1.232 . S
O68 C67 1.232 . S
C69 O61 1.260 1_556 S
C69 O62 1.257 . S
Zn70 O73 2.031 1_554 S
Zn70 O75 2.049 . S
Zn70 O80 2.067 . S
Zn71 O72 1.962 . S
Zn71 O74 1.986 . S
Zn71 O76 1.996 . S
Zn71 O79 1.943 . S
O72 Zn71 1.962 . S
O72 C77 1.254 . S
O73 Zn70 2.031 1_556 S
O73 C77 1.269 . S
O74 Zn71 1.986 . S
O74 C81 1.262 . S
O75 Zn70 2.049 . S
O75 C83 1.260 1_554 S
O76 Zn71 1.996 . S
O76 C83 1.257 . S
C77 O72 1.254 . S
C77 O73 1.269 . S
C78 O79 1.249 1_554 S
C78 O80 1.270 . S
O79 Zn71 1.943 . S
O79 C78 1.249 1_556 S
O80 Zn70 2.067 . S
O80 C78 1.270 . S
C81 O74 1.262 . S
C81 O82 1.232 . S
O82 C81 1.232 . S
C83 O75 1.260 1_556 S
C83 O76 1.257 . S
Zn84 O87 2.031 . S
Zn84 O89 2.049 . S
Zn84 O94 2.067 . S
Zn85 O86 1.962 . S
Zn85 O88 1.986 . S
Zn85 O90 1.996 . S
Zn85 O93 1.943 . S
O86 Zn85 1.962 . S
O86 C91 1.254 . S
O87 Zn84 2.031 . S
O87 C91 1.269 . S
O88 Zn85 1.986 . S
O88 C95 1.262 . S
O89 Zn84 2.049 . S
O89 C97 1.260 . S
O90 Zn85 1.996 . S
O90 C97 1.257 . S
C91 O86 1.254 . S
C91 O87 1.269 . S
C92 O93 1.249 . S
C92 O94 1.270 . S
O93 Zn85 1.943 . S
O93 C92 1.249 . S
O94 Zn84 2.067 . S
O94 C92 1.270 . S
C95 O88 1.262 . S
C95 O96 1.232 . S
O96 C95 1.232 . S
C97 O89 1.260 . S
C97 O90 1.257 . S
Zn98 O101 2.031 . S
Zn98 O103 2.049 . S
Zn98 O108 2.067 . S
Zn99 O100 1.962 . S
Zn99 O102 1.986 . S
Zn99 O104 1.996 . S
Zn99 O107 1.943 . S
O100 Zn99 1.962 . S
O100 C105 1.254 . S
O101 Zn98 2.031 . S
O101 C105 1.269 . S
O102 Zn99 1.986 . S
O102 C109 1.262 . S
O103 Zn98 2.049 . S
O103 C111 1.260 . S
O104 Zn99 1.996 . S
O104 C111 1.257 . S
C105 O100 1.254 . S
C105 O101 1.269 . S
C106 O107 1.249 . S
C106 O108 1.270 . S
O107 Zn99 1.943 . S
O107 C106 1.249 . S
O108 Zn98 2.067 . S
O108 C106 1.270 . S
C109 O102 1.262 . S
C109 O110 1.232 . S
O110 C109 1.232 . S
C111 O103 1.260 . S
C111 O104 1.257 . S
Zn112 O115 2.031 . S
Zn112 O117 2.049 . S
Zn112 O122 2.067 . S
Zn113 O114 1.962 . S
Zn113 O116 1.986 . S
Zn113 O118 1.996 . S
Zn113 O121 1.943 . S
O114 Zn113 1.962 . S
O114 C119 1.254 . S
O115 Zn112 2.031 . S
O115 C119 1.269 . S
O116 Zn113 1.986 . S
O116 C123 1.262 . S
O117 Zn112 2.049 . S
O117 C125 1.260 . S
O118 Zn113 1.996 . S
O118 C125 1.257 . S
C119 O114 1.254 . S
C119 O115 1.269 . S
C120 O121 1.249 . S
C120 O122 1.270 . S
O121 Zn113 1.943 . S
O121 C120 1.249 . S
O122 Zn112 2.067 . S
O122 C120 1.270 . S
C123 O116 1.262 . S
C123 O124 1.232 . S
O124 C123 1.232 . S
C125 O117 1.260 . S
C125 O118 1.257 . S
Zn126 O129 2.031 . S
Zn126 O131 2.049 . S
Zn126 O136 2.067 . S
Zn127 O128 1.962 . S
Zn127 O130 1.986 . S
Zn127 O132 1.996 . S
Zn127 O135 1.943 . S
O128 Zn127 1.962 . S
O128 C133 1.254 . S
O129 Zn126 2.031 . S
O129 C133 1.269 . S
O130 Zn127 1.986 . S
O130 C137 1.262 . S
O131 Zn126 2.049 . S
O131 C139 1.260 . S
O132 Zn127 1.996 . S
O132 C139 1.257 . S
C133 O128 1.254 . S
C133 O129 1.269 . S
C134 O135 1.249 . S
C134 O136 1.270 . S
O135 Zn127 1.943 . S
O135 C134 1.249 . S
O136 Zn126 2.067 . S
O136 C134 1.270 . S
C137 O130 1.262 . S
C137 O138 1.232 . S
O138 C137 1.232 . S
C139 O131 1.260 . S
C139 O132 1.257 . S
Zn140 O143 2.031 . S
Zn140 O145 2.049 . S
Zn140 O150 2.067 . S
Zn141 O142 1.962 . S
Zn141 O144 1.986 . S
Zn141 O146 1.996 . S
Zn141 O149 1.943 . S
O142 Zn141 1.962 . S
O142 C147 1.254 . S
O143 Zn140 2.031 . S
O143 C147 1.269 . S
O144 Zn141 1.986 . S
O144 C151 1.262 . S
O145 Zn140 2.049 . S
O145 C153 1.260 . S
O146 Zn141 1.996 . S
O146 C153 1.257 . S
C147 O142 1.254 . S
C147 O143 1.269 . S
C148 O149 1.249 . S
C148 O150 1.270 . S
O149 Zn141 1.943 . S
O149 C148 1.249 . S
O150 Zn140 2.067 . S
O150 C148 1.270 . S
C151 O144 1.262 . S
C151 O152 1.232 . S
O152 C151 1.232 . S
C153 O145 1.260 . S
C153 O146 1.257 . S
Zn154 O157 2.031 . S
Zn154 O159 2.049 . S
Zn154 O164 2.067 . S
Zn155 O156 1.962 . S
Zn155 O158 1.986 . S
Zn155 O160 1.996 . S
Zn155 O163 1.943 . S
O156 Zn155 1.962 . S
O156 C161 1.254 . S
O157 Zn154 2.031 . S
O157 C161 1.269 . S
O158 Zn155 1.986 . S
O158 C165 1.262 . S
O159 Zn154 2.049 . S
O159 C167 1.260 . S
O160 Zn155 1.996 . S
O160 C167 1.257 . S
C161 O156 1.254 . S
C161 O157 1.269 . S
C162 O163 1.249 . S
C162 O164 1.270 . S
O163 Zn155 1.943 . S
O163 C162 1.249 . S
O164 Zn154 2.067 . S
O164 C162 1.270 . S
C165 O158 1.262 . S
C165 O166 1.232 . S
O166 C165 1.232 . S
C167 O159 1.260 . S
C167 O160 1.257 . S
Zn168 O171 2.031 . S
Zn168 O173 2.049 . S
Zn168 O178 2.067 . S
Zn169 O170 1.962 . S
Zn169 O172 1.986 . S
Zn169 O174 1.996 . S
Zn169 O177 1.943 . S
O170 Zn169 1.962 . S
O170 C175 1.254 . S
O171 Zn168 2.031 . S
O171 C175 1.269 . S
O172 Zn169 1.986 . S
O172 C179 1.262 . S
O173 Zn168 2.049 . S
O173 C181 1.260 . S
O174 Zn169 1.996 . S
O174 C181 1.257 . S
C175 O170 1.254 . S
C175 O171 1.269 . S
C176 O177 1.249 . S
C176 O178 1.270 . S
O177 Zn169 1.943 . S
O177 C176 1.249 . S
O178 Zn168 2.067 . S
O178 C176 1.270 . S
C179 O172 1.262 . S
C179 O180 1.232 . S
O180 C179 1.232 . S
C181 O173 1.260 . S
C181 O174 1.257 . S
Zn182 O185 2.031 . S
Zn182 O187 2.049 . S
Zn182 O192 2.067 . S
Zn183 O184 1.962 . S
Zn183 O186 1.986 . S
Zn183 O188 1.996 . S
Zn183 O191 1.943 . S
O184 Zn183 1.962 . S
O184 C189 1.254 . S
O185 Zn182 2.031 . S
O185 C189 1.269 . S
O186 Zn183 1.986 . S
O186 C193 1.262 . S
O187 Zn182 2.049 . S
O187 C195 1.260 . S
O188 Zn183 1.996 . S
O188 C195 1.257 . S
C189 O184 1.254 . S
C189 O185 1.269 . S
C190 O191 1.249 . S
C190 O192 1.270 . S
O191 Zn183 1.943 . S
O191 C190 1.249 . S
O192 Zn182 2.067 . S
O192 C190 1.270 . S
C193 O186 1.262 . S
C193 O194 1.232 . S
O194 C193 1.232 . S
C195 O187 1.260 . S
C195 O188 1.257 . S
Zn196 O199 2.031 . S
Zn196 O201 2.049 . S
Zn196 O206 2.067 . S
Zn197 O198 1.962 . S
Zn197 O200 1.986 . S
Zn197 O202 1.996 . S
Zn197 O205 1.943 . S
O198 Zn197 1.962 . S
O198 C203 1.254 . S
O199 Zn196 2.031 . S
O199 C203 1.269 . S
O200 Zn197 1.986 . S
O200 C207 1.262 . S
O201 Zn196 2.049 . S
O201 C209 1.260 . S
O202 Zn197 1.996 . S
O202 C209 1.257 . S
C203 O198 1.254 . S
C203 O199 1.269 . S
C204 O205 1.249 . S
C204 O206 1.270 . S
O205 Zn197 1.943 . S
O205 C204 1.249 . S
O206 Zn196 2.067 . S
O206 C204 1.270 . S
C207 O200 1.262 . S
C207 O208 1.232 . S
O208 C207 1.232 . S
C209 O201 1.260 . S
C209 O202 1.257 . S
Zn210 O213 2.031 . S
Zn210 O215 2.049 . S
Zn210 O220 2.067 . S
Zn211 O212 1.962 . S
Zn211 O214 1.986 . S
Zn211 O216 1.996 . S
Zn211 O219 1.943 . S
O212 Zn211 1.962 . S
O212 C217 1.254 . S
O213 Zn210 2.031 . S
O213 C217 1.269 . S
O214 Zn211 1.986 . S
O214 C221 1.262 . S
O215 Zn210 2.049 . S
O215 C223 1.260 . S
O216 Zn211 1.996 . S
O216 C223 1.257 . S
C217 O212 1.254 . S
C217 O213 1.269 . S
C218 O219 1.249 . S
C218 O220 1.270 . S
O219 Zn211 1.943 . S
O219 C218 1.249 . S
O220 Zn210 2.067 . S
O220 C218 1.270 . S
C221 O214 1.262 . S
C221 O222 1.232 . S
O222 C221 1.232 . S
C223 O215 1.260 . S
C223 O216 1.257 . S
Zn224 O227 2.031 . S
Zn224 O229 2.049 . S
Zn224 O234 2.067 . S
Zn225 O226 1.962 . S
Zn225 O228 1.986 . S
Zn225 O230 1.996 . S
Zn225 O233 1.943 . S
O226 Zn225 1.962 . S
O226 C231 1.254 . S
O227 Zn224 2.031 . S
O227 C231 1.269 . S
O228 Zn225 1.986 . S
O228 C235 1.262 . S
O229 Zn224 2.049 . S
O229 C237 1.260 . S
O230 Zn225 1.996 . S
O230 C237 1.257 . S
C231 O226 1.254 . S
C231 O227 1.269 . S
C232 O233 1.249 . S
C232 O234 1.270 . S
O233 Zn225 1.943 . S
O233 C232 1.249 . S
O234 Zn224 2.067 . S
O234 C232 1.270 . S
C235 O228 1.262 . S
C235 O236 1.232 . S
O236 C235 1.232 . S
C237 O229 1.260 . S
C237 O230 1.257 . S
Zn238 O241 2.031 . S
Zn238 O243 2.049 . S
Zn238 O248 2.067 . S
Zn239 O240 1.962 . S
Zn239 O242 1.986 . S
Zn239 O244 1.996 . S
Zn239 O247 1.943 . S
O240 Zn239 1.962 . S
O240 C245 1.254 . S
O241 Zn238 2.031 . S
O241 C245 1.269 . S
O242 Zn239 1.986 . S
O242 C249 1.262 . S
O243 Zn238 2.049 . S
O243 C251 1.260 . S
O244 Zn239 1.996 . S
O244 C251 1.257 . S
C245 O240 1.254 . S
C245 O241 1.269 . S
C246 O247 1.249 . S
C246 O248 1.270 . S
O247 Zn239 1.943 . S
O247 C246 1.249 . S
O248 Zn238 2.067 . S
O248 C246 1.270 . S
C249 O242 1.262 . S
C249 O250 1.232 . S
O250 C249 1.232 . S
C251 O243 1.260 . S
C251 O244 1.257 . S
H252 C260 0.929 . S
H253 C262 0.930 . S
H254 C264 0.930 . S
H255 C267 0.929 . S
H256 C270 0.930 . S
H257 C272 0.960 . S
H258 C272 0.960 . S
H259 C272 0.960 . S
C260 H252 0.929 . S
C260 C261 1.377 . S
C260 C262 1.384 . S
C261 C260 1.377 . S
C261 C267 1.390 . S
C262 H253 0.930 . S
C262 C260 1.384 . S
C262 C263 1.372 . S
C263 C262 1.372 . S
C263 C264 1.400 . S
C263 C268 1.490 . S
C264 H254 0.930 . S
C264 C263 1.400 . S
C264 C267 1.386 . S
H265 C281 0.930 . S
H266 C282 0.931 . S
C267 H255 0.929 . S
C267 C261 1.390 . S
C267 C264 1.386 . S
C268 C263 1.490 . S
C268 C270 1.395 . S
C268 C271 1.403 . S
H269 C275 0.930 . S
C270 H256 0.930 . S
C270 C268 1.395 . S
C270 C273 1.403 . S
C271 C268 1.403 . S
C271 C272 1.524 . S
C271 C275 1.400 . S
C272 H257 0.960 . S
C272 H258 0.960 . S
C272 H259 0.960 . S
C272 C271 1.524 . S
C273 C270 1.403 . S
C273 C274 1.392 . S
C273 C277 1.495 . S
C274 C273 1.392 . S
C274 C275 1.385 . S
C274 C276 1.478 . S
C275 H269 0.930 . S
C275 C271 1.400 . S
C275 C274 1.385 . S
C276 C274 1.478 . S
C276 C278 1.381 . S
C276 C282 1.383 . S
C277 C273 1.495 . S
C277 H283 0.959 . S
C277 H284 0.961 . S
C277 H285 0.960 . S
C278 C276 1.381 . S
C278 C279 1.394 . S
C278 H286 0.930 . S
C279 C278 1.394 . S
C279 C280 1.383 . S
C279 H287 0.929 . S
C280 C279 1.383 . S
C280 C281 1.377 . S
C281 H265 0.930 . S
C281 C280 1.377 . S
C281 C282 1.379 . S
C282 H266 0.931 . S
C282 C276 1.383 . S
C282 C281 1.379 . S
H283 C277 0.959 . S
H284 C277 0.961 . S
H285 C277 0.960 . S
H286 C278 0.930 . S
H287 C279 0.929 . S
H288 C296 0.929 . S
H289 C298 0.930 . S
H290 C300 0.930 . S
H291 C303 0.929 . S
H292 C306 0.930 . S
H293 C308 0.960 . S
H294 C308 0.960 . S
H295 C308 0.960 . S
C296 H288 0.929 . S
C296 C297 1.377 . S
C296 C298 1.384 . S
C297 C296 1.377 . S
C297 C303 1.390 . S
C298 H289 0.930 . S
C298 C296 1.384 . S
C298 C299 1.372 . S
C299 C298 1.372 . S
C299 C300 1.400 . S
C299 C304 1.490 . S
C300 H290 0.930 . S
C300 C299 1.400 . S
C300 C303 1.386 . S
H301 C317 0.930 . S
H302 C318 0.931 . S
C303 H291 0.929 . S
C303 C297 1.390 . S
C303 C300 1.386 . S
C304 C299 1.490 . S
C304 C306 1.395 . S
C304 C307 1.403 . S
H305 C311 0.930 . S
C306 H292 0.930 . S
C306 C304 1.395 . S
C306 C309 1.403 . S
C307 C304 1.403 . S
C307 C308 1.524 . S
C307 C311 1.400 . S
C308 H293 0.960 . S
C308 H294 0.960 . S
C308 H295 0.960 . S
C308 C307 1.524 . S
C309 C306 1.403 . S
C309 C310 1.392 . S
C309 C313 1.495 . S
C310 C309 1.392 . S
C310 C311 1.385 . S
C310 C312 1.478 . S
C311 H305 0.930 . S
C311 C307 1.400 . S
C311 C310 1.385 . S
C312 C310 1.478 . S
C312 C314 1.381 . S
C312 C318 1.383 . S
C313 C309 1.495 . S
C313 H319 0.959 . S
C313 H320 0.961 . S
C313 H321 0.960 . S
C314 C312 1.381 . S
C314 C315 1.394 . S
C314 H322 0.930 . S
C315 C314 1.394 . S
C315 C316 1.383 . S
C315 H323 0.929 . S
C316 C315 1.383 . S
C316 C317 1.377 . S
C317 H301 0.930 . S
C317 C316 1.377 . S
C317 C318 1.379 . S
C318 H302 0.931 . S
C318 C312 1.383 . S
C318 C317 1.379 . S
H319 C313 0.959 . S
H320 C313 0.961 . S
H321 C313 0.960 . S
H322 C314 0.930 . S
H323 C315 0.929 . S
H324 C332 0.929 . S
H325 C334 0.930 . S
H326 C336 0.930 . S
H327 C339 0.929 . S
H328 C342 0.930 . S
H329 C344 0.960 . S
H330 C344 0.960 . S
H331 C344 0.960 . S
C332 H324 0.929 . S
C332 C333 1.377 . S
C332 C334 1.384 . S
C333 C332 1.377 . S
C333 C339 1.390 . S
C334 H325 0.930 . S
C334 C332 1.384 . S
C334 C335 1.372 . S
C335 C334 1.372 . S
C335 C336 1.400 . S
C335 C340 1.490 . S
C336 H326 0.930 . S
C336 C335 1.400 . S
C336 C339 1.386 . S
H337 C353 0.930 . S
H338 C354 0.931 . S
C339 H327 0.929 . S
C339 C333 1.390 . S
C339 C336 1.386 . S
C340 C335 1.490 . S
C340 C342 1.395 . S
C340 C343 1.403 . S
H341 C347 0.930 . S
C342 H328 0.930 . S
C342 C340 1.395 . S
C342 C345 1.403 . S
C343 C340 1.403 . S
C343 C344 1.524 . S
C343 C347 1.400 . S
C344 H329 0.960 . S
C344 H330 0.960 . S
C344 H331 0.960 . S
C344 C343 1.524 . S
C345 C342 1.403 . S
C345 C346 1.392 . S
C345 C349 1.495 . S
C346 C345 1.392 . S
C346 C347 1.385 . S
C346 C348 1.478 . S
C347 H341 0.930 . S
C347 C343 1.400 . S
C347 C346 1.385 . S
C348 C346 1.478 . S
C348 C350 1.381 . S
C348 C354 1.383 . S
C349 C345 1.495 . S
C349 H355 0.959 . S
C349 H356 0.961 . S
C349 H357 0.960 . S
C350 C348 1.381 . S
C350 C351 1.394 . S
C350 H358 0.930 . S
C351 C350 1.394 . S
C351 C352 1.383 . S
C351 H359 0.929 . S
C352 C351 1.383 . S
C352 C353 1.377 . S
C353 H337 0.930 . S
C353 C352 1.377 . S
C353 C354 1.379 . S
C354 H338 0.931 . S
C354 C348 1.383 . S
C354 C353 1.379 . S
H355 C349 0.959 . S
H356 C349 0.961 . S
H357 C349 0.960 . S
H358 C350 0.930 . S
H359 C351 0.929 . S
H360 C368 0.929 . S
H361 C370 0.930 . S
H362 C372 0.930 . S
H363 C375 0.929 . S
H364 C378 0.930 . S
H365 C380 0.960 . S
H366 C380 0.960 . S
H367 C380 0.960 . S
C368 H360 0.929 . S
C368 C369 1.377 . S
C368 C370 1.384 . S
C369 C368 1.377 . S
C369 C375 1.390 . S
C370 H361 0.930 . S
C370 C368 1.384 . S
C370 C371 1.372 . S
C371 C370 1.372 . S
C371 C372 1.400 . S
C371 C376 1.490 . S
C372 H362 0.930 . S
C372 C371 1.400 . S
C372 C375 1.386 . S
H373 C389 0.930 . S
H374 C390 0.931 . S
C375 H363 0.929 . S
C375 C369 1.390 . S
C375 C372 1.386 . S
C376 C371 1.490 . S
C376 C378 1.395 . S
C376 C379 1.403 . S
H377 C383 0.930 . S
C378 H364 0.930 . S
C378 C376 1.395 . S
C378 C381 1.403 . S
C379 C376 1.403 . S
C379 C380 1.524 . S
C379 C383 1.400 . S
C380 H365 0.960 . S
C380 H366 0.960 . S
C380 H367 0.960 . S
C380 C379 1.524 . S
C381 C378 1.403 . S
C381 C382 1.392 . S
C381 C385 1.495 . S
C382 C381 1.392 . S
C382 C383 1.385 . S
C382 C384 1.478 . S
C383 H377 0.930 . S
C383 C379 1.400 . S
C383 C382 1.385 . S
C384 C382 1.478 . S
C384 C386 1.381 . S
C384 C390 1.383 . S
C385 C381 1.495 . S
C385 H391 0.959 . S
C385 H392 0.961 . S
C385 H393 0.960 . S
C386 C384 1.381 . S
C386 C387 1.394 . S
C386 H394 0.930 . S
C387 C386 1.394 . S
C387 C388 1.383 . S
C387 H395 0.929 . S
C388 C387 1.383 . S
C388 C389 1.377 . S
C389 H373 0.930 . S
C389 C388 1.377 . S
C389 C390 1.379 . S
C390 H374 0.931 . S
C390 C384 1.383 . S
C390 C389 1.379 . S
H391 C385 0.959 . S
H392 C385 0.961 . S
H393 C385 0.960 . S
H394 C386 0.930 . S
H395 C387 0.929 . S
H396 C404 0.929 . S
H397 C406 0.930 . S
H398 C408 0.930 . S
H399 C411 0.929 . S
H400 C414 0.930 . S
H401 C416 0.960 . S
H402 C416 0.960 . S
H403 C416 0.960 . S
C404 H396 0.929 . S
C404 C405 1.377 . S
C404 C406 1.384 . S
C405 C404 1.377 . S
C405 C411 1.390 . S
C406 H397 0.930 . S
C406 C404 1.384 . S
C406 C407 1.372 . S
C407 C406 1.372 . S
C407 C408 1.400 . S
C407 C412 1.490 . S
C408 H398 0.930 . S
C408 C407 1.400 . S
C408 C411 1.386 . S
H409 C425 0.930 . S
H410 C426 0.931 . S
C411 H399 0.929 . S
C411 C405 1.390 . S
C411 C408 1.386 . S
C412 C407 1.490 . S
C412 C414 1.395 . S
C412 C415 1.403 . S
H413 C419 0.930 . S
C414 H400 0.930 . S
C414 C412 1.395 . S
C414 C417 1.403 . S
C415 C412 1.403 . S
C415 C416 1.524 . S
C415 C419 1.400 . S
C416 H401 0.960 . S
C416 H402 0.960 . S
C416 H403 0.960 . S
C416 C415 1.524 . S
C417 C414 1.403 . S
C417 C418 1.392 . S
C417 C421 1.495 . S
C418 C417 1.392 . S
C418 C419 1.385 . S
C418 C420 1.478 . S
C419 H413 0.930 . S
C419 C415 1.400 . S
C419 C418 1.385 . S
C420 C418 1.478 . S
C420 C422 1.381 . S
C420 C426 1.383 . S
C421 C417 1.495 . S
C421 H427 0.959 . S
C421 H428 0.961 . S
C421 H429 0.960 . S
C422 C420 1.381 . S
C422 C423 1.394 . S
C422 H430 0.930 . S
C423 C422 1.394 . S
C423 C424 1.383 . S
C423 H431 0.929 . S
C424 C423 1.383 . S
C424 C425 1.377 . S
C425 H409 0.930 . S
C425 C424 1.377 . S
C425 C426 1.379 . S
C426 H410 0.931 . S
C426 C420 1.383 . S
C426 C425 1.379 . S
H427 C421 0.959 . S
H428 C421 0.961 . S
H429 C421 0.960 . S
H430 C422 0.930 . S
H431 C423 0.929 . S
H432 C440 0.929 . S
H433 C442 0.930 . S
H434 C444 0.930 . S
H435 C447 0.929 . S
H436 C450 0.930 . S
H437 C452 0.960 . S
H438 C452 0.960 . S
H439 C452 0.960 . S
C440 H432 0.929 . S
C440 C441 1.377 . S
C440 C442 1.384 . S
C441 C440 1.377 . S
C441 C447 1.390 . S
C442 H433 0.930 . S
C442 C440 1.384 . S
C442 C443 1.372 . S
C443 C442 1.372 . S
C443 C444 1.400 . S
C443 C448 1.490 . S
C444 H434 0.930 . S
C444 C443 1.400 . S
C444 C447 1.386 . S
H445 C461 0.930 . S
H446 C462 0.931 . S
C447 H435 0.929 . S
C447 C441 1.390 . S
C447 C444 1.386 . S
C448 C443 1.490 . S
C448 C450 1.395 . S
C448 C451 1.403 . S
H449 C455 0.930 . S
C450 H436 0.930 . S
C450 C448 1.395 . S
C450 C453 1.403 . S
C451 C448 1.403 . S
C451 C452 1.524 . S
C451 C455 1.400 . S
C452 H437 0.960 . S
C452 H438 0.960 . S
C452 H439 0.960 . S
C452 C451 1.524 . S
C453 C450 1.403 . S
C453 C454 1.392 . S
C453 C457 1.495 . S
C454 C453 1.392 . S
C454 C455 1.385 . S
C454 C456 1.478 . S
C455 H449 0.930 . S
C455 C451 1.400 . S
C455 C454 1.385 . S
C456 C454 1.478 . S
C456 C458 1.381 . S
C456 C462 1.383 . S
C457 C453 1.495 . S
C457 H463 0.959 . S
C457 H464 0.961 . S
C457 H465 0.960 . S
C458 C456 1.381 . S
C458 C459 1.394 . S
C458 H466 0.930 . S
C459 C458 1.394 . S
C459 C460 1.383 . S
C459 H467 0.929 . S
C460 C459 1.383 . S
C460 C461 1.377 . S
C461 H445 0.930 . S
C461 C460 1.377 . S
C461 C462 1.379 . S
C462 H446 0.931 . S
C462 C456 1.383 . S
C462 C461 1.379 . S
H463 C457 0.959 . S
H464 C457 0.961 . S
H465 C457 0.960 . S
H466 C458 0.930 . S
H467 C459 0.929 . S
H468 C476 0.929 . S
H469 C478 0.930 . S
H470 C480 0.930 . S
H471 C483 0.929 . S
H472 C486 0.930 . S
H473 C488 0.945 1_455 S
H474 C488 0.960 . S
H475 C488 0.960 . S
C476 H468 0.929 . S
C476 C477 1.377 . S
C476 C478 1.384 . S
C477 C476 1.377 . S
C477 C483 1.390 . S
C478 H469 0.930 . S
C478 C476 1.384 . S
C478 C479 1.372 . S
C479 C478 1.372 . S
C479 C480 1.400 . S
C479 C484 1.490 . S
C480 H470 0.930 . S
C480 C479 1.400 . S
C480 C483 1.386 . S
H481 C497 0.930 . S
H482 C498 0.931 . S
C483 H471 0.929 . S
C483 C477 1.390 . S
C483 C480 1.386 . S
C484 C479 1.490 . S
C484 C486 1.395 . S
C484 C487 1.403 . S
H485 C491 0.930 . S
C486 H472 0.930 . S
C486 C484 1.395 . S
C486 C489 1.403 1_654 S
C487 C484 1.403 . S
C487 C488 1.524 . S
C487 C491 1.400 1_654 S
C488 H473 0.945 1_655 S
C488 H474 0.960 . S
C488 H475 0.960 . S
C488 C487 1.524 . S
C489 C486 1.403 1_456 S
C489 C490 1.392 . S
C489 C493 1.495 . S
C490 C489 1.392 . S
C490 C491 1.385 . S
C490 C492 1.478 . S
C491 H485 0.930 . S
C491 C487 1.400 1_456 S
C491 C490 1.385 . S
C492 C490 1.478 . S
C492 C494 1.381 . S
C492 C498 1.383 . S
C493 C489 1.495 . S
C493 H499 0.959 1_455 S
C493 H500 0.961 . S
C493 H501 0.940 1_455 S
C494 C492 1.381 . S
C494 C495 1.394 . S
C494 H502 0.963 . S
C495 C494 1.394 . S
C495 C496 1.383 . S
C495 H503 0.929 . S
C496 C495 1.383 . S
C496 C497 1.377 . S
C497 H481 0.930 . S
C497 C496 1.377 . S
C497 C498 1.379 . S
C498 H482 0.931 . S
C498 C492 1.383 . S
C498 C497 1.379 . S
H499 C493 0.959 1_655 S
H500 C493 0.961 . S
H501 C493 0.940 1_655 S
H502 C494 0.963 . S
H503 C495 0.929 . S
H504 C512 0.929 . S
H505 C514 0.930 . S
H506 C516 0.930 . S
H507 C519 0.929 . S
H508 C522 0.930 . S
H509 C524 0.960 . S
H510 C524 0.960 . S
H511 C524 0.960 . S
C512 H504 0.929 . S
C512 C513 1.377 . S
C512 C514 1.384 . S
C513 C512 1.377 . S
C513 C519 1.390 . S
C514 H505 0.930 . S
C514 C512 1.384 . S
C514 C515 1.372 . S
C515 C514 1.372 . S
C515 C516 1.400 . S
C515 C520 1.490 . S
C516 H506 0.930 . S
C516 C515 1.400 . S
C516 C519 1.386 . S
H517 C533 0.930 . S
H518 C534 0.931 . S
C519 H507 0.929 . S
C519 C513 1.390 . S
C519 C516 1.386 . S
C520 C515 1.490 . S
C520 C522 1.395 1_554 S
C520 C523 1.403 . S
H521 C527 0.930 . S
C522 H508 0.930 . S
C522 C520 1.395 1_556 S
C522 C525 1.403 . S
C523 C520 1.403 . S
C523 C524 1.524 . S
C523 C527 1.400 1_554 S
C524 H509 0.960 . S
C524 H510 0.960 . S
C524 H511 0.960 . S
C524 C523 1.524 . S
C525 C522 1.403 . S
C525 C526 1.392 . S
C525 C529 1.495 . S
C526 C525 1.392 . S
C526 C527 1.385 . S
C526 C528 1.478 . S
C527 H521 0.930 . S
C527 C523 1.400 1_556 S
C527 C526 1.385 . S
C528 C526 1.478 . S
C528 C530 1.381 . S
C528 C534 1.383 . S
C529 C525 1.495 . S
C529 H535 0.959 . S
C529 H536 0.961 . S
C529 H537 0.960 . S
C530 C528 1.381 . S
C530 C531 1.394 . S
C530 H538 0.930 . S
C531 C530 1.394 . S
C531 C532 1.383 . S
C531 H539 0.929 . S
C532 C531 1.383 . S
C532 C533 1.377 . S
C533 H517 0.930 . S
C533 C532 1.377 . S
C533 C534 1.379 . S
C534 H518 0.931 . S
C534 C528 1.383 . S
C534 C533 1.379 . S
H535 C529 0.959 . S
H536 C529 0.961 . S
H537 C529 0.960 . S
H538 C530 0.930 . S
H539 C531 0.929 . S
H540 C548 0.929 . S
H541 C550 0.930 . S
H542 C552 0.930 . S
H543 C555 0.929 . S
H544 C558 0.930 . S
H545 C560 0.960 1_565 S
H546 C560 0.960 . S
H547 C560 0.962 . S
C548 H540 0.929 . S
C548 C549 1.377 . S
C548 C550 1.384 . S
C549 C548 1.377 . S
C549 C555 1.390 . S
C550 H541 0.930 . S
C550 C548 1.384 . S
C550 C551 1.372 . S
C551 C550 1.372 . S
C551 C552 1.400 . S
C551 C556 1.490 . S
C552 H542 0.930 . S
C552 C551 1.400 . S
C552 C555 1.386 . S
H553 C569 0.930 . S
H554 C570 0.931 . S
C555 H543 0.929 . S
C555 C549 1.390 . S
C555 C552 1.386 . S
C556 C551 1.490 . S
C556 C558 1.395 . S
C556 C559 1.403 . S
H557 C563 0.930 . S
C558 H544 0.930 . S
C558 C556 1.395 . S
C558 C561 1.377 1_544 S
C559 C556 1.403 . S
C559 C560 1.524 . S
C559 C563 1.400 1_544 S
C560 H545 0.960 1_545 S
C560 H546 0.960 . S
C560 H547 0.962 . S
C560 C559 1.524 . S
C561 C558 1.377 1_566 S
C561 C562 1.392 . S
C561 C565 1.524 . S
C562 C561 1.392 . S
C562 C563 1.385 . S
C562 C564 1.478 . S
C563 H557 0.930 . S
C563 C559 1.400 1_566 S
C563 C562 1.385 . S
C564 C562 1.478 . S
C564 C566 1.381 . S
C564 C570 1.383 . S
C565 C561 1.524 . S
C565 H571 0.959 1_565 S
C565 H572 0.961 . S
C565 H573 0.960 1_565 S
C566 C564 1.381 . S
C566 C567 1.394 . S
C566 H574 0.930 . S
C567 C566 1.394 . S
C567 C568 1.383 . S
C567 H575 0.929 . S
C568 C567 1.383 . S
C568 C569 1.377 . S
C569 H553 0.930 . S
C569 C568 1.377 . S
C569 C570 1.379 . S
C570 H554 0.931 . S
C570 C564 1.383 . S
C570 C569 1.379 . S
H571 C565 0.959 1_545 S
H572 C565 0.961 . S
H573 C565 0.960 1_545 S
H574 C566 0.930 . S
H575 C567 0.929 . S
H576 C584 0.929 . S
H577 C586 0.930 . S
H578 C588 0.930 . S
H579 C591 0.929 . S
H580 C594 0.930 . S
H581 C596 0.960 . S
H582 C596 0.960 . S
H583 C596 0.960 . S
C584 H576 0.929 . S
C584 C585 1.377 . S
C584 C586 1.384 . S
C585 C584 1.377 . S
C585 C591 1.390 . S
C586 H577 0.930 . S
C586 C584 1.384 . S
C586 C587 1.372 . S
C587 C586 1.372 . S
C587 C588 1.400 . S
C587 C592 1.490 . S
C588 H578 0.930 . S
C588 C587 1.400 . S
C588 C591 1.386 . S
H589 C605 0.930 . S
H590 C606 0.931 . S
C591 H579 0.929 . S
C591 C585 1.390 . S
C591 C588 1.386 . S
C592 C587 1.490 . S
C592 C594 1.395 . S
C592 C595 1.403 . S
H593 C599 0.930 . S
C594 H580 0.930 . S
C594 C592 1.395 . S
C594 C597 1.403 . S
C595 C592 1.403 . S
C595 C596 1.524 . S
C595 C599 1.400 . S
C596 H581 0.960 . S
C596 H582 0.960 . S
C596 H583 0.960 . S
C596 C595 1.524 . S
C597 C594 1.403 . S
C597 C598 1.392 . S
C597 C601 1.495 . S
C598 C597 1.392 . S
C598 C599 1.385 . S
C598 C600 1.478 . S
C599 H593 0.930 . S
C599 C595 1.400 . S
C599 C598 1.385 . S
C600 C598 1.478 . S
C600 C602 1.381 . S
C600 C606 1.383 . S
C601 C597 1.495 . S
C601 H607 0.959 . S
C601 H608 0.961 . S
C601 H609 0.960 . S
C602 C600 1.381 . S
C602 C603 1.394 . S
C602 H610 0.930 . S
C603 C602 1.394 . S
C603 C604 1.383 . S
C603 H611 0.929 . S
C604 C603 1.383 . S
C604 C605 1.377 . S
C605 H589 0.930 . S
C605 C604 1.377 . S
C605 C606 1.379 . S
C606 H590 0.931 . S
C606 C600 1.383 . S
C606 C605 1.379 . S
H607 C601 0.959 . S
H608 C601 0.961 . S
H609 C601 0.960 . S
H610 C602 0.930 . S
H611 C603 0.929 . S
H612 C620 0.929 . S
H613 C622 0.930 . S
H614 C624 0.930 . S
H615 C627 0.929 . S
H616 C630 0.930 . S
H617 C632 0.960 . S
H618 C632 0.960 . S
H619 C632 0.960 . S
C620 H612 0.929 . S
C620 C621 1.377 . S
C620 C622 1.384 . S
C621 C620 1.377 . S
C621 C627 1.390 . S
C622 H613 0.930 . S
C622 C620 1.384 . S
C622 C623 1.372 . S
C623 C622 1.372 . S
C623 C624 1.400 . S
C623 C628 1.490 . S
C624 H614 0.930 . S
C624 C623 1.400 . S
C624 C627 1.386 . S
H625 C641 0.930 . S
H626 C642 0.931 . S
C627 H615 0.929 . S
C627 C621 1.390 . S
C627 C624 1.386 . S
C628 C623 1.490 . S
C628 C630 1.395 . S
C628 C631 1.403 . S
H629 C635 0.930 . S
C630 H616 0.930 . S
C630 C628 1.395 . S
C630 C633 1.403 . S
C631 C628 1.403 . S
C631 C632 1.524 . S
C631 C635 1.400 . S
C632 H617 0.960 . S
C632 H618 0.960 . S
C632 H619 0.960 . S
C632 C631 1.524 . S
C633 C630 1.403 . S
C633 C634 1.392 . S
C633 C637 1.495 . S
C634 C633 1.392 . S
C634 C635 1.385 . S
C634 C636 1.478 . S
C635 H629 0.930 . S
C635 C631 1.400 . S
C635 C634 1.385 . S
C636 C634 1.478 . S
C636 C638 1.381 . S
C636 C642 1.383 . S
C637 C633 1.495 . S
C637 H643 0.959 . S
C637 H644 0.961 . S
C637 H645 0.960 . S
C638 C636 1.381 . S
C638 C639 1.394 . S
C638 H646 0.930 . S
C639 C638 1.394 . S
C639 C640 1.383 . S
C639 H647 0.929 . S
C640 C639 1.383 . S
C640 C641 1.377 . S
C641 H625 0.930 . S
C641 C640 1.377 . S
C641 C642 1.379 . S
C642 H626 0.931 . S
C642 C636 1.383 . S
C642 C641 1.379 . S
H643 C637 0.959 . S
H644 C637 0.961 . S
H645 C637 0.960 . S
H646 C638 0.930 . S
H647 C639 0.929 . S
H648 C656 0.929 . S
H649 C658 0.930 . S
H650 C660 0.930 . S
H651 C663 0.929 . S
H652 C666 0.930 . S
H653 C668 0.960 . S
H654 C668 0.960 . S
H655 C668 0.960 . S
C656 H648 0.929 . S
C656 C657 1.377 . S
C656 C658 1.384 . S
C657 C656 1.377 . S
C657 C663 1.390 . S
C658 H649 0.930 . S
C658 C656 1.384 . S
C658 C659 1.372 . S
C659 C658 1.372 . S
C659 C660 1.400 . S
C659 C664 1.490 . S
C660 H650 0.930 . S
C660 C659 1.400 . S
C660 C663 1.386 . S
H661 C677 0.930 . S
H662 C678 0.931 . S
C663 H651 0.929 . S
C663 C657 1.390 . S
C663 C660 1.386 . S
C664 C659 1.490 . S
C664 C666 1.395 . S
C664 C667 1.403 . S
H665 C671 0.930 . S
C666 H652 0.930 . S
C666 C664 1.395 . S
C666 C669 1.403 . S
C667 C664 1.403 . S
C667 C668 1.524 . S
C667 C671 1.400 . S
C668 H653 0.960 . S
C668 H654 0.960 . S
C668 H655 0.960 . S
C668 C667 1.524 . S
C669 C666 1.403 . S
C669 C670 1.392 . S
C669 C673 1.495 . S
C670 C669 1.392 . S
C670 C671 1.385 . S
C670 C672 1.478 . S
C671 H665 0.930 . S
C671 C667 1.400 . S
C671 C670 1.385 . S
C672 C670 1.478 . S
C672 C674 1.381 . S
C672 C678 1.383 . S
C673 C669 1.495 . S
C673 H679 0.959 . S
C673 H680 0.961 . S
C673 H681 0.960 . S
C674 C672 1.381 . S
C674 C675 1.394 . S
C674 H682 0.930 . S
C675 C674 1.394 . S
C675 C676 1.383 . S
C675 H683 0.929 . S
C676 C675 1.383 . S
C676 C677 1.377 . S
C677 H661 0.930 . S
C677 C676 1.377 . S
C677 C678 1.379 . S
C678 H662 0.931 . S
C678 C672 1.383 . S
C678 C677 1.379 . S
H679 C673 0.959 . S
H680 C673 0.961 . S
H681 C673 0.960 . S
H682 C674 0.930 . S
H683 C675 0.929 . S
H684 C692 0.929 . S
H685 C694 0.930 . S
H686 C696 0.930 . S
H687 C699 0.929 . S
H688 C702 0.930 . S
H689 C704 0.960 . S
H690 C704 0.960 . S
H691 C704 0.960 . S
C692 H684 0.929 . S
C692 C693 1.377 . S
C692 C694 1.384 . S
C693 C692 1.377 . S
C693 C699 1.390 . S
C694 H685 0.930 . S
C694 C692 1.384 . S
C694 C695 1.372 . S
C695 C694 1.372 . S
C695 C696 1.400 . S
C695 C700 1.490 . S
C696 H686 0.930 . S
C696 C695 1.400 . S
C696 C699 1.386 . S
H697 C713 0.930 . S
H698 C714 0.931 . S
C699 H687 0.929 . S
C699 C693 1.390 . S
C699 C696 1.386 . S
C700 C695 1.490 . S
C700 C702 1.395 . S
C700 C703 1.403 . S
H701 C707 0.930 . S
C702 H688 0.930 . S
C702 C700 1.395 . S
C702 C705 1.403 . S
C703 C700 1.403 . S
C703 C704 1.524 . S
C703 C707 1.400 . S
C704 H689 0.960 . S
C704 H690 0.960 . S
C704 H691 0.960 . S
C704 C703 1.524 . S
C705 C702 1.403 . S
C705 C706 1.392 . S
C705 C709 1.495 . S
C706 C705 1.392 . S
C706 C707 1.385 . S
C706 C708 1.478 . S
C707 H701 0.930 . S
C707 C703 1.400 . S
C707 C706 1.385 . S
C708 C706 1.478 . S
C708 C710 1.381 . S
C708 C714 1.383 . S
C709 C705 1.495 . S
C709 H715 0.959 . S
C709 H716 0.961 . S
C709 H717 0.960 . S
C710 C708 1.381 . S
C710 C711 1.394 . S
C710 H718 0.930 . S
C711 C710 1.394 . S
C711 C712 1.383 . S
C711 H719 0.929 . S
C712 C711 1.383 . S
C712 C713 1.377 . S
C713 H697 0.930 . S
C713 C712 1.377 . S
C713 C714 1.379 . S
C714 H698 0.931 . S
C714 C708 1.383 . S
C714 C713 1.379 . S
H715 C709 0.959 . S
H716 C709 0.961 . S
H717 C709 0.960 . S
H718 C710 0.930 . S
H719 C711 0.929 . S
H720 C728 0.929 . S
H721 C730 0.930 . S
H722 C732 0.930 . S
H723 C735 0.929 . S
H724 C738 0.930 . S
H725 C740 0.960 . S
H726 C740 0.960 . S
H727 C740 0.960 . S
C728 H720 0.929 . S
C728 C729 1.377 . S
C728 C730 1.384 . S
C729 C728 1.377 . S
C729 C735 1.390 . S
C730 H721 0.930 . S
C730 C728 1.384 . S
C730 C731 1.372 . S
C731 C730 1.372 . S
C731 C732 1.400 . S
C731 C736 1.490 . S
C732 H722 0.930 . S
C732 C731 1.400 . S
C732 C735 1.386 . S
H733 C749 0.930 . S
H734 C750 0.931 . S
C735 H723 0.929 . S
C735 C729 1.390 . S
C735 C732 1.386 . S
C736 C731 1.490 . S
C736 C738 1.395 . S
C736 C739 1.403 . S
H737 C743 0.930 . S
C738 H724 0.930 . S
C738 C736 1.395 . S
C738 C741 1.403 . S
C739 C736 1.403 . S
C739 C740 1.524 . S
C739 C743 1.400 . S
C740 H725 0.960 . S
C740 H726 0.960 . S
C740 H727 0.960 . S
C740 C739 1.524 . S
C741 C738 1.403 . S
C741 C742 1.392 . S
C741 C745 1.495 . S
C742 C741 1.392 . S
C742 C743 1.385 . S
C742 C744 1.478 . S
C743 H737 0.930 . S
C743 C739 1.400 . S
C743 C742 1.385 . S
C744 C742 1.478 . S
C744 C746 1.381 . S
C744 C750 1.383 . S
C745 C741 1.495 . S
C745 H751 0.959 . S
C745 H752 0.961 . S
C745 H753 0.960 . S
C746 C744 1.381 . S
C746 C747 1.394 . S
C746 H754 0.930 . S
C747 C746 1.394 . S
C747 C748 1.383 . S
C747 H755 0.929 . S
C748 C747 1.383 . S
C748 C749 1.377 . S
C749 H733 0.930 . S
C749 C748 1.377 . S
C749 C750 1.379 . S
C750 H734 0.931 . S
C750 C744 1.383 . S
C750 C749 1.379 . S
H751 C745 0.959 . S
H752 C745 0.961 . S
H753 C745 0.960 . S
H754 C746 0.930 . S
H755 C747 0.929 . S
H756 C764 0.929 . S
H757 C766 0.930 . S
H758 C768 0.930 . S
H759 C771 0.929 . S
H760 C774 0.930 . S
H761 C776 0.960 . S
H762 C776 0.960 . S
H763 C776 0.960 . S
C764 H756 0.929 . S
C764 C765 1.377 . S
C764 C766 1.384 . S
C765 C764 1.377 . S
C765 C771 1.390 . S
C766 H757 0.930 . S
C766 C764 1.384 . S
C766 C767 1.372 . S
C767 C766 1.372 . S
C767 C768 1.400 . S
C767 C772 1.490 . S
C768 H758 0.930 . S
C768 C767 1.400 . S
C768 C771 1.386 . S
H769 C785 0.930 . S
H770 C786 0.931 . S
C771 H759 0.929 . S
C771 C765 1.390 . S
C771 C768 1.386 . S
C772 C767 1.490 . S
C772 C774 1.395 . S
C772 C775 1.403 . S
H773 C779 0.930 . S
C774 H760 0.930 . S
C774 C772 1.395 . S
C774 C777 1.403 . S
C775 C772 1.403 . S
C775 C776 1.524 . S
C775 C779 1.400 . S
C776 H761 0.960 . S
C776 H762 0.960 . S
C776 H763 0.960 . S
C776 C775 1.524 . S
C777 C774 1.403 . S
C777 C778 1.392 . S
C777 C781 1.495 . S
C778 C777 1.392 . S
C778 C779 1.385 . S
C778 C780 1.478 . S
C779 H773 0.930 . S
C779 C775 1.400 . S
C779 C778 1.385 . S
C780 C778 1.478 . S
C780 C782 1.381 . S
C780 C786 1.383 . S
C781 C777 1.495 . S
C781 H787 0.959 . S
C781 H788 0.961 . S
C781 H789 0.960 . S
C782 C780 1.381 . S
C782 C783 1.394 . S
C782 H790 0.930 . S
C783 C782 1.394 . S
C783 C784 1.383 . S
C783 H791 0.929 . S
C784 C783 1.383 . S
C784 C785 1.377 . S
C785 H769 0.930 . S
C785 C784 1.377 . S
C785 C786 1.379 . S
C786 H770 0.931 . S
C786 C780 1.383 . S
C786 C785 1.379 . S
H787 C781 0.959 . S
H788 C781 0.961 . S
H789 C781 0.960 . S
H790 C782 0.930 . S
H791 C783 0.929 . S
H792 C800 0.929 . S
H793 C802 0.930 . S
H794 C804 0.930 . S
H795 C807 0.929 . S
H796 C810 0.930 . S
H797 C812 0.960 . S
H798 C812 0.960 . S
H799 C812 0.960 1_655 S
C800 H792 0.929 . S
C800 C801 1.377 . S
C800 C802 1.384 . S
C801 C800 1.377 . S
C801 C807 1.390 . S
C802 H793 0.930 . S
C802 C800 1.384 . S
C802 C803 1.372 . S
C803 C802 1.372 . S
C803 C804 1.400 . S
C803 C808 1.490 . S
C804 H794 0.930 . S
C804 C803 1.400 . S
C804 C807 1.386 . S
H805 C821 0.930 . S
H806 C822 0.931 . S
C807 H795 0.929 . S
C807 C801 1.390 . S
C807 C804 1.386 . S
C808 C803 1.490 . S
C808 C810 1.395 . S
C808 C811 1.403 1_655 S
H809 C815 0.930 . S
C810 H796 0.930 . S
C810 C808 1.395 . S
C810 C813 1.403 . S
C811 C808 1.403 1_455 S
C811 C812 1.524 . S
C811 C815 1.400 . S
C812 H797 0.960 . S
C812 H798 0.960 . S
C812 H799 0.960 1_455 S
C812 C811 1.524 . S
C813 C810 1.403 . S
C813 C814 1.392 1_655 S
C813 C817 1.495 . S
C814 C813 1.392 1_455 S
C814 C815 1.385 . S
C814 C816 1.478 . S
C815 H809 0.930 . S
C815 C811 1.400 . S
C815 C814 1.385 . S
C816 C814 1.478 . S
C816 C818 1.381 . S
C816 C822 1.383 . S
C817 C813 1.495 . S
C817 H823 0.959 . S
C817 H824 0.961 . S
C817 H825 0.960 1_655 S
C818 C816 1.381 . S
C818 C819 1.394 . S
C818 H826 0.930 . S
C819 C818 1.394 . S
C819 C820 1.383 . S
C819 H827 0.929 . S
C820 C819 1.383 . S
C820 C821 1.377 . S
C821 H805 0.930 . S
C821 C820 1.377 . S
C821 C822 1.379 . S
C822 H806 0.931 . S
C822 C816 1.383 . S
C822 C821 1.379 . S
H823 C817 0.959 . S
H824 C817 0.961 . S
H825 C817 0.960 1_455 S
H826 C818 0.930 . S
H827 C819 0.929 . S
H828 C836 0.929 . S
H829 C838 0.930 . S
H830 C840 0.930 . S
H831 C843 0.929 . S
H832 C846 0.930 . S
H833 C848 0.960 . S
H834 C848 0.960 . S
H835 C848 0.960 . S
C836 H828 0.929 . S
C836 C837 1.377 . S
C836 C838 1.384 . S
C837 C836 1.377 . S
C837 C843 1.390 . S
C838 H829 0.930 . S
C838 C836 1.384 . S
C838 C839 1.372 . S
C839 C838 1.372 . S
C839 C840 1.400 . S
C839 C844 1.490 . S
C840 H830 0.930 . S
C840 C839 1.400 . S
C840 C843 1.386 . S
H841 C857 0.930 . S
H842 C858 0.931 . S
C843 H831 0.929 . S
C843 C837 1.390 . S
C843 C840 1.386 . S
C844 C839 1.490 . S
C844 C846 1.395 . S
C844 C847 1.403 . S
H845 C851 0.930 . S
C846 H832 0.930 . S
C846 C844 1.395 . S
C846 C849 1.403 . S
C847 C844 1.403 . S
C847 C848 1.524 . S
C847 C851 1.400 . S
C848 H833 0.960 . S
C848 H834 0.960 . S
C848 H835 0.960 . S
C848 C847 1.524 . S
C849 C846 1.403 . S
C849 C850 1.392 . S
C849 C853 1.495 . S
C850 C849 1.392 . S
C850 C851 1.385 . S
C850 C852 1.478 . S
C851 H845 0.930 . S
C851 C847 1.400 . S
C851 C850 1.385 . S
C852 C850 1.478 . S
C852 C854 1.381 . S
C852 C858 1.383 . S
C853 C849 1.495 . S
C853 H859 0.959 . S
C853 H860 0.961 . S
C853 H861 0.960 . S
C854 C852 1.381 . S
C854 C855 1.394 . S
C854 H862 0.930 . S
C855 C854 1.394 . S
C855 C856 1.383 . S
C855 H863 0.929 . S
C856 C855 1.383 . S
C856 C857 1.377 . S
C857 H841 0.930 . S
C857 C856 1.377 . S
C857 C858 1.379 . S
C858 H842 0.931 . S
C858 C852 1.383 . S
C858 C857 1.379 . S
H859 C853 0.959 . S
H860 C853 0.961 . S
H861 C853 0.960 . S
H862 C854 0.930 . S
H863 C855 0.929 . S
H864 C872 0.929 . S
H865 C874 0.930 . S
H866 C876 0.930 . S
H867 C879 0.929 . S
H868 C882 0.930 . S
H869 C884 1.006 . S
H870 C884 0.974 . S
H871 C884 0.928 1_565 S
C872 H864 0.929 . S
C872 C873 1.377 . S
C872 C874 1.384 . S
C873 C872 1.377 . S
C873 C879 1.390 . S
C874 H865 0.930 . S
C874 C872 1.384 . S
C874 C875 1.372 . S
C875 C874 1.372 . S
C875 C876 1.400 . S
C875 C880 1.490 . S
C876 H866 0.930 . S
C876 C875 1.400 . S
C876 C879 1.386 . S
H877 C893 0.930 . S
H878 C894 0.931 . S
C879 H867 0.929 . S
C879 C873 1.390 . S
C879 C876 1.386 . S
C880 C875 1.490 . S
C880 C882 1.395 . S
C880 C883 1.405 . S
H881 C887 0.930 . S
C882 H868 0.930 . S
C882 C880 1.395 . S
C882 C885 1.384 1_565 S
C883 C880 1.405 . S
C883 C884 1.498 1_565 S
C883 C887 1.399 1_565 S
C884 H869 1.006 . S
C884 H870 0.974 . S
C884 H871 0.928 1_545 S
C884 C883 1.498 1_545 S
C885 C882 1.384 1_545 S
C885 C886 1.432 . S
C885 C889 1.490 . S
C886 C885 1.432 . S
C886 C887 1.385 . S
C886 C888 1.478 . S
C887 H881 0.930 . S
C887 C883 1.399 1_545 S
C887 C886 1.385 . S
C888 C886 1.478 . S
C888 C890 1.381 . S
C888 C894 1.383 . S
C889 C885 1.490 . S
C889 H895 0.930 1_545 S
C889 H896 0.954 1_545 S
C889 H897 0.981 . S
C890 C888 1.381 . S
C890 C891 1.394 . S
C890 H898 0.930 . S
C891 C890 1.394 . S
C891 C892 1.383 . S
C891 H899 0.929 . S
C892 C891 1.383 . S
C892 C893 1.377 . S
C893 H877 0.930 . S
C893 C892 1.377 . S
C893 C894 1.379 . S
C894 H878 0.931 . S
C894 C888 1.383 . S
C894 C893 1.379 . S
H895 C889 0.930 1_565 S
H896 C889 0.954 1_565 S
H897 C889 0.981 . S
H898 C890 0.930 . S
H899 C891 0.929 . S
H900 C908 0.929 . S
H901 C910 0.930 . S
H902 C912 0.930 1_556 S
H903 C915 0.929 1_556 S
H904 C918 0.930 . S
H905 C920 0.960 . S
H906 C920 0.960 . S
H907 C920 0.960 . S
C908 H900 0.929 . S
C908 C909 1.377 . S
C908 C910 1.384 . S
C909 C908 1.377 . S
C909 C915 1.390 . S
C910 H901 0.930 . S
C910 C908 1.384 . S
C910 C911 1.372 . S
C911 C910 1.372 . S
C911 C912 1.400 . S
C911 C916 1.490 . S
C912 H902 0.930 1_554 S
C912 C911 1.400 . S
C912 C915 1.386 . S
H913 C929 0.930 . S
H914 C930 0.931 . S
C915 H903 0.929 1_554 S
C915 C909 1.390 . S
C915 C912 1.386 . S
C916 C911 1.490 . S
C916 C918 1.395 1_554 S
C916 C919 1.403 . S
H917 C923 0.930 . S
C918 H904 0.930 . S
C918 C916 1.395 1_556 S
C918 C921 1.403 . S
C919 C916 1.403 . S
C919 C920 1.524 . S
C919 C923 1.400 . S
C920 H905 0.960 . S
C920 H906 0.960 . S
C920 H907 0.960 . S
C920 C919 1.524 . S
C921 C918 1.403 . S
C921 C922 1.392 . S
C921 C925 1.495 . S
C922 C921 1.392 . S
C922 C923 1.385 1_556 S
C922 C924 1.478 . S
C923 H917 0.930 . S
C923 C919 1.400 . S
C923 C922 1.385 1_554 S
C924 C922 1.478 . S
C924 C926 1.378 1_556 S
C924 C930 1.383 . S
C925 C921 1.495 . S
C925 H931 0.959 . S
C925 H932 0.961 . S
C925 H933 0.960 . S
C926 C924 1.378 1_554 S
C926 C927 1.393 1_554 S
C926 H934 0.934 . S
C927 C926 1.393 1_556 S
C927 C928 1.383 . S
C927 H935 0.929 1_556 S
C928 C927 1.383 . S
C928 C929 1.377 . S
C929 H913 0.930 . S
C929 C928 1.377 . S
C929 C930 1.379 . S
C930 H914 0.931 . S
C930 C924 1.383 . S
C930 C929 1.379 . S
H931 C925 0.959 . S
H932 C925 0.961 . S
H933 C925 0.960 . S
H934 C926 0.934 . S
H935 C927 0.929 1_554 S
H936 C944 0.929 . S
H937 C946 0.930 . S
H938 C948 0.930 1_554 S
H939 C951 0.929 . S
H940 C954 0.930 . S
H941 C956 0.960 . S
H942 C956 0.960 . S
H943 C956 0.960 . S
C944 H936 0.929 . S
C944 C945 1.377 . S
C944 C946 1.384 . S
C945 C944 1.377 . S
C945 C951 1.390 . S
C946 H937 0.930 . S
C946 C944 1.384 . S
C946 C947 1.372 . S
C947 C946 1.372 . S
C947 C948 1.400 . S
C947 C952 1.490 . S
C948 H938 0.930 1_556 S
C948 C947 1.400 . S
C948 C951 1.386 . S
H949 C965 0.930 . S
H950 C966 0.931 . S
C951 H939 0.929 . S
C951 C945 1.390 . S
C951 C948 1.386 . S
C952 C947 1.490 . S
C952 C954 1.395 1_556 S
C952 C955 1.403 . S
H953 C959 0.930 . S
C954 H940 0.930 . S
C954 C952 1.395 1_554 S
C954 C957 1.403 1_545 S
C955 C952 1.403 . S
C955 C956 1.524 . S
C955 C959 1.400 1_545 S
C956 H941 0.960 . S
C956 H942 0.960 . S
C956 H943 0.960 . S
C956 C955 1.524 . S
C957 C954 1.403 1_565 S
C957 C958 1.392 . S
C957 C961 1.495 . S
C958 C957 1.392 . S
C958 C959 1.385 1_554 S
C958 C960 1.478 . S
C959 H953 0.930 . S
C959 C955 1.400 1_565 S
C959 C958 1.385 1_556 S
C960 C958 1.478 . S
C960 C962 1.381 . S
C960 C966 1.383 . S
C961 C957 1.495 . S
C961 H967 0.959 . S
C961 H968 0.961 . S
C961 H969 0.960 . S
C962 C960 1.381 . S
C962 C963 1.394 . S
C962 H970 0.930 1_554 S
C963 C962 1.394 . S
C963 C964 1.383 . S
C963 H971 0.929 . S
C964 C963 1.383 . S
C964 C965 1.377 . S
C965 H949 0.930 . S
C965 C964 1.377 . S
C965 C966 1.379 . S
C966 H950 0.931 . S
C966 C960 1.383 . S
C966 C965 1.379 . S
H967 C961 0.959 . S
H968 C961 0.961 . S
H969 C961 0.960 . S
H970 C962 0.930 1_556 S
H971 C963 0.929 . S
H972 C980 0.929 1_554 S
H973 C982 0.930 . S
H974 C984 0.930 . S
H975 C987 0.929 . S
H976 C990 0.930 . S
H977 C992 0.960 . S
H978 C992 0.958 . S
H979 C992 0.960 . S
C980 H972 0.929 1_556 S
C980 C981 1.377 . S
C980 C982 1.384 1_556 S
C981 C980 1.377 . S
C981 C987 1.390 . S
C982 H973 0.930 . S
C982 C980 1.384 1_554 S
C982 C983 1.372 1_554 S
C983 C982 1.372 1_556 S
C983 C984 1.400 . S
C983 C988 1.490 . S
C984 H974 0.930 . S
C984 C983 1.400 . S
C984 C987 1.386 . S
H985 C1001 0.930 1_556 S
H986 C1002 0.931 . S
C987 H975 0.929 . S
C987 C981 1.390 . S
C987 C984 1.386 . S
C988 C983 1.490 . S
C988 C990 1.395 1_556 S
C988 C991 1.403 . S
H989 C995 0.930 1_556 S
C990 H976 0.930 . S
C990 C988 1.395 1_554 S
C990 C993 1.403 1_655 S
C991 C988 1.403 . S
C991 C992 1.524 . S
C991 C995 1.400 1_656 S
C992 H977 0.960 . S
C992 H978 0.958 . S
C992 H979 0.960 . S
C992 C991 1.524 . S
C993 C990 1.403 1_455 S
C993 C994 1.392 . S
C993 C997 1.495 . S
C994 C993 1.392 . S
C994 C995 1.385 . S
C994 C996 1.478 . S
C995 H989 0.930 1_554 S
C995 C991 1.400 1_454 S
C995 C994 1.385 . S
C996 C994 1.478 . S
C996 C998 1.381 . S
C996 C1002 1.383 1_554 S
C997 C993 1.495 . S
C997 H1003 0.959 . S
C997 H1004 0.961 . S
C997 H1005 0.960 . S
C998 C996 1.381 . S
C998 C999 1.394 . S
C998 H1006 0.930 . S
C999 C998 1.394 . S
C999 C1000 1.383 . S
C999 H1007 0.929 . S
C1000 C999 1.383 . S
C1000 C1001 1.377 . S
C1001 H985 0.930 1_554 S
C1001 C1000 1.377 . S
C1001 C1002 1.379 1_554 S
C1002 H986 0.931 . S
C1002 C996 1.383 1_556 S
C1002 C1001 1.379 1_556 S
H1003 C997 0.959 . S
H1004 C997 0.961 . S
H1005 C997 0.960 . S
H1006 C998 0.930 . S
H1007 C999 0.929 . S
H1008 C1016 0.929 . S
H1009 C1018 0.930 . S
H1010 C1020 0.930 . S
H1011 C1023 0.929 1_554 S
H1012 C1026 0.930 . S
H1013 C1028 0.960 . S
H1014 C1028 0.960 . S
H1015 C1028 0.960 . S
C1016 H1008 0.929 . S
C1016 C1017 1.377 . S
C1016 C1018 1.384 . S
C1017 C1016 1.377 . S
C1017 C1023 1.390 . S
C1018 H1009 0.930 . S
C1018 C1016 1.384 . S
C1018 C1019 1.372 . S
C1019 C1018 1.372 . S
C1019 C1020 1.400 1_556 S
C1019 C1024 1.490 . S
C1020 H1010 0.930 . S
C1020 C1019 1.400 1_554 S
C1020 C1023 1.386 1_554 S
H1021 C1037 0.930 . S
H1022 C1038 0.931 . S
C1023 H1011 0.929 1_556 S
C1023 C1017 1.390 . S
C1023 C1020 1.386 1_556 S
C1024 C1019 1.490 . S
C1024 C1026 1.395 . S
C1024 C1027 1.403 1_556 S
H1025 C1031 0.930 . S
C1026 H1012 0.930 . S
C1026 C1024 1.395 . S
C1026 C1029 1.403 . S
C1027 C1024 1.403 1_554 S
C1027 C1028 1.524 . S
C1027 C1031 1.400 . S
C1028 H1013 0.960 . S
C1028 H1014 0.960 . S
C1028 H1015 0.960 . S
C1028 C1027 1.524 . S
C1029 C1026 1.403 . S
C1029 C1030 1.368 1_556 S
C1029 C1033 1.495 . S
C1030 C1029 1.368 1_554 S
C1030 C1031 1.405 . S
C1030 C1032 1.483 . S
C1031 H1025 0.930 . S
C1031 C1027 1.400 . S
C1031 C1030 1.405 . S
C1032 C1030 1.483 . S
C1032 C1034 1.381 1_554 S
C1032 C1038 1.383 . S
C1033 C1029 1.495 . S
C1033 H1039 0.959 . S
C1033 H1040 0.961 . S
C1033 H1041 0.960 . S
C1034 C1032 1.381 1_556 S
C1034 C1035 1.394 1_556 S
C1034 H1042 0.930 . S
C1035 C1034 1.394 1_554 S
C1035 C1036 1.383 . S
C1035 H1043 0.929 1_554 S
C1036 C1035 1.383 . S
C1036 C1037 1.377 . S
C1037 H1021 0.930 . S
C1037 C1036 1.377 . S
C1037 C1038 1.379 . S
C1038 H1022 0.931 . S
C1038 C1032 1.383 . S
C1038 C1037 1.379 . S
H1039 C1033 0.959 . S
H1040 C1033 0.961 . S
H1041 C1033 0.960 . S
H1042 C1034 0.930 . S
H1043 C1035 0.929 1_556 S
H1044 C1052 0.929 1_556 S
H1045 C1054 0.930 . S
H1046 C1056 0.930 . S
H1047 C1059 0.929 . S
H1048 C1062 0.930 . S
H1049 C1064 0.918 1_545 S
H1050 C1064 0.960 . S
H1051 C1064 0.960 . S
C1052 H1044 0.929 1_554 S
C1052 C1053 1.377 . S
C1052 C1054 1.384 1_554 S
C1053 C1052 1.377 . S
C1053 C1059 1.390 . S
C1054 H1045 0.930 . S
C1054 C1052 1.384 1_556 S
C1054 C1055 1.372 1_556 S
C1055 C1054 1.372 1_554 S
C1055 C1056 1.400 . S
C1055 C1060 1.490 . S
C1056 H1046 0.930 . S
C1056 C1055 1.400 . S
C1056 C1059 1.386 . S
H1057 C1073 0.930 1_554 S
H1058 C1074 0.931 1_554 S
C1059 H1047 0.929 . S
C1059 C1053 1.390 . S
C1059 C1056 1.386 . S
C1060 C1055 1.490 . S
C1060 C1062 1.395 1_554 S
C1060 C1063 1.403 . S
H1061 C1067 0.930 . S
C1062 H1048 0.930 . S
C1062 C1060 1.395 1_556 S
C1062 C1065 1.403 1_565 S
C1063 C1060 1.403 . S
C1063 C1064 1.524 . S
C1063 C1067 1.400 1_565 S
C1064 H1049 0.918 1_565 S
C1064 H1050 0.960 . S
C1064 H1051 0.960 . S
C1064 C1063 1.524 . S
C1065 C1062 1.403 1_545 S
C1065 C1066 1.392 . S
C1065 C1069 1.495 . S
C1066 C1065 1.392 . S
C1066 C1067 1.385 1_556 S
C1066 C1068 1.478 . S
C1067 H1061 0.930 . S
C1067 C1063 1.400 1_545 S
C1067 C1066 1.385 1_554 S
C1068 C1066 1.478 . S
C1068 C1070 1.381 . S
C1068 C1074 1.383 . S
C1069 C1065 1.495 . S
C1069 H1075 0.959 1_545 S
C1069 H1076 0.961 . S
C1069 H1077 0.960 . S
C1070 C1068 1.381 . S
C1070 C1071 1.394 . S
C1070 H1078 0.930 . S
C1071 C1070 1.394 . S
C1071 C1072 1.383 . S
C1071 H1079 0.929 . S
C1072 C1071 1.383 . S
C1072 C1073 1.377 . S
C1073 H1057 0.930 1_556 S
C1073 C1072 1.377 . S
C1073 C1074 1.379 . S
C1074 H1058 0.931 1_556 S
C1074 C1068 1.383 . S
C1074 C1073 1.379 . S
H1075 C1069 0.959 1_565 S
H1076 C1069 0.961 . S
H1077 C1069 0.960 . S
H1078 C1070 0.930 . S
H1079 C1071 0.929 . S
H1080 C1088 0.929 1_554 S
H1081 C1090 0.930 . S
H1082 C1092 0.930 . S
H1083 C1095 0.929 . S
H1084 C1098 0.930 . S
H1085 C1100 0.960 . S
H1086 C1100 0.960 . S
H1087 C1100 0.960 1_556 S
C1088 H1080 0.929 1_556 S
C1088 C1089 1.377 . S
C1088 C1090 1.384 1_556 S
C1089 C1088 1.377 . S
C1089 C1095 1.390 . S
C1090 H1081 0.930 . S
C1090 C1088 1.384 1_554 S
C1090 C1091 1.372 1_554 S
C1091 C1090 1.372 1_556 S
C1091 C1092 1.400 . S
C1091 C1096 1.490 . S
C1092 H1082 0.930 . S
C1092 C1091 1.400 . S
C1092 C1095 1.386 . S
H1093 C1109 0.930 1_556 S
H1094 C1110 0.931 . S
C1095 H1083 0.929 . S
C1095 C1089 1.390 . S
C1095 C1092 1.386 . S
C1096 C1091 1.490 . S
C1096 C1098 1.395 . S
C1096 C1099 1.403 1_556 S
H1097 C1103 0.930 . S
C1098 H1084 0.930 . S
C1098 C1096 1.395 . S
C1098 C1101 1.403 1_655 S
C1099 C1096 1.403 1_554 S
C1099 C1100 1.524 . S
C1099 C1103 1.400 1_655 S
C1100 H1085 0.960 . S
C1100 H1086 0.960 . S
C1100 H1087 0.960 1_554 S
C1100 C1099 1.524 . S
C1101 C1098 1.403 1_455 S
C1101 C1102 1.392 1_556 S
C1101 C1105 1.495 . S
C1102 C1101 1.392 1_554 S
C1102 C1103 1.385 . S
C1102 C1104 1.478 . S
C1103 H1097 0.930 . S
C1103 C1099 1.400 1_455 S
C1103 C1102 1.385 . S
C1104 C1102 1.478 . S
C1104 C1106 1.381 . S
C1104 C1110 1.383 1_554 S
C1105 C1101 1.495 . S
C1105 H1111 0.959 . S
C1105 H1112 0.961 . S
C1105 H1113 0.960 1_556 S
C1106 C1104 1.381 . S
C1106 C1107 1.394 . S
C1106 H1114 0.930 . S
C1107 C1106 1.394 . S
C1107 C1108 1.383 . S
C1107 H1115 0.929 . S
C1108 C1107 1.383 . S
C1108 C1109 1.377 . S
C1109 H1093 0.930 1_554 S
C1109 C1108 1.377 . S
C1109 C1110 1.379 1_554 S
C1110 H1094 0.931 . S
C1110 C1104 1.383 1_556 S
C1110 C1109 1.379 1_556 S
H1111 C1105 0.959 . S
H1112 C1105 0.961 . S
H1113 C1105 0.960 1_554 S
H1114 C1106 0.930 . S
H1115 C1107 0.929 . S
H1116 C1124 0.929 . S
H1117 C1126 0.930 . S
H1118 C1128 0.930 . S
H1119 C1131 0.929 . S
H1120 C1134 0.930 . S
H1121 C1136 0.960 . S
H1122 C1136 0.960 . S
H1123 C1136 0.960 . S
C1124 H1116 0.929 . S
C1124 C1125 1.377 . S
C1124 C1126 1.384 . S
C1125 C1124 1.377 . S
C1125 C1131 1.390 . S
C1126 H1117 0.930 . S
C1126 C1124 1.384 . S
C1126 C1127 1.372 . S
C1127 C1126 1.372 . S
C1127 C1128 1.400 . S
C1127 C1132 1.490 . S
C1128 H1118 0.930 . S
C1128 C1127 1.400 . S
C1128 C1131 1.386 . S
H1129 C1145 0.930 . S
H1130 C1146 0.931 . S
C1131 H1119 0.929 . S
C1131 C1125 1.390 . S
C1131 C1128 1.386 . S
C1132 C1127 1.490 . S
C1132 C1134 1.395 . S
C1132 C1135 1.403 . S
H1133 C1139 0.930 . S
C1134 H1120 0.930 . S
C1134 C1132 1.395 . S
C1134 C1137 1.403 . S
C1135 C1132 1.403 . S
C1135 C1136 1.524 . S
C1135 C1139 1.400 . S
C1136 H1121 0.960 . S
C1136 H1122 0.960 . S
C1136 H1123 0.960 . S
C1136 C1135 1.524 . S
C1137 C1134 1.403 . S
C1137 C1138 1.392 . S
C1137 C1141 1.495 . S
C1138 C1137 1.392 . S
C1138 C1139 1.385 . S
C1138 C1140 1.478 . S
C1139 H1133 0.930 . S
C1139 C1135 1.400 . S
C1139 C1138 1.385 . S
C1140 C1138 1.478 . S
C1140 C1142 1.381 . S
C1140 C1146 1.383 . S
C1141 C1137 1.495 . S
C1141 H1147 0.959 . S
C1141 H1148 0.961 . S
C1141 H1149 0.960 . S
C1142 C1140 1.381 . S
C1142 C1143 1.394 . S
C1142 H1150 0.930 . S
C1143 C1142 1.394 . S
C1143 C1144 1.383 . S
C1143 H1151 0.929 . S
C1144 C1143 1.383 . S
C1144 C1145 1.377 . S
C1145 H1129 0.930 . S
C1145 C1144 1.377 . S
C1145 C1146 1.379 . S
C1146 H1130 0.931 . S
C1146 C1140 1.383 . S
C1146 C1145 1.379 . S
H1147 C1141 0.959 . S
H1148 C1141 0.961 . S
H1149 C1141 0.960 . S
H1150 C1142 0.930 . S
H1151 C1143 0.929 . S
H1152 C1160 0.929 . S
H1153 C1162 0.930 . S
H1154 C1164 0.930 . S
H1155 C1167 0.929 . S
H1156 C1170 0.930 . S
H1157 C1172 0.960 . S
H1158 C1172 0.960 . S
H1159 C1172 0.960 . S
C1160 H1152 0.929 . S
C1160 C1161 1.377 . S
C1160 C1162 1.384 . S
C1161 C1160 1.377 . S
C1161 C1167 1.390 . S
C1162 H1153 0.930 . S
C1162 C1160 1.384 . S
C1162 C1163 1.372 . S
C1163 C1162 1.372 . S
C1163 C1164 1.400 . S
C1163 C1168 1.490 . S
C1164 H1154 0.930 . S
C1164 C1163 1.400 . S
C1164 C1167 1.386 . S
H1165 C1181 0.930 . S
H1166 C1182 0.931 . S
C1167 H1155 0.929 . S
C1167 C1161 1.390 . S
C1167 C1164 1.386 . S
C1168 C1163 1.490 . S
C1168 C1170 1.395 . S
C1168 C1171 1.403 . S
H1169 C1175 0.930 . S
C1170 H1156 0.930 . S
C1170 C1168 1.395 . S
C1170 C1173 1.403 . S
C1171 C1168 1.403 . S
C1171 C1172 1.524 . S
C1171 C1175 1.400 . S
C1172 H1157 0.960 . S
C1172 H1158 0.960 . S
C1172 H1159 0.960 . S
C1172 C1171 1.524 . S
C1173 C1170 1.403 . S
C1173 C1174 1.392 . S
C1173 C1177 1.495 . S
C1174 C1173 1.392 . S
C1174 C1175 1.385 . S
C1174 C1176 1.478 . S
C1175 H1169 0.930 . S
C1175 C1171 1.400 . S
C1175 C1174 1.385 . S
C1176 C1174 1.478 . S
C1176 C1178 1.381 . S
C1176 C1182 1.383 . S
C1177 C1173 1.495 . S
C1177 H1183 0.959 . S
C1177 H1184 0.961 . S
C1177 H1185 0.960 . S
C1178 C1176 1.381 . S
C1178 C1179 1.394 . S
C1178 H1186 0.930 . S
C1179 C1178 1.394 . S
C1179 C1180 1.383 . S
C1179 H1187 0.929 . S
C1180 C1179 1.383 . S
C1180 C1181 1.377 . S
C1181 H1165 0.930 . S
C1181 C1180 1.377 . S
C1181 C1182 1.379 . S
C1182 H1166 0.931 . S
C1182 C1176 1.383 . S
C1182 C1181 1.379 . S
H1183 C1177 0.959 . S
H1184 C1177 0.961 . S
H1185 C1177 0.960 . S
H1186 C1178 0.930 . S
H1187 C1179 0.929 . S
H1188 C1196 0.929 . S
H1189 C1198 0.930 . S
H1190 C1200 0.930 . S
H1191 C1203 0.929 . S
H1192 C1206 0.930 . S
H1193 C1208 0.960 . S
H1194 C1208 0.960 . S
H1195 C1208 0.960 . S
C1196 H1188 0.929 . S
C1196 C1197 1.377 . S
C1196 C1198 1.384 . S
C1197 C1196 1.377 . S
C1197 C1203 1.390 . S
C1198 H1189 0.930 . S
C1198 C1196 1.384 . S
C1198 C1199 1.372 . S
C1199 C1198 1.372 . S
C1199 C1200 1.400 . S
C1199 C1204 1.490 . S
C1200 H1190 0.930 . S
C1200 C1199 1.400 . S
C1200 C1203 1.386 . S
H1201 C1217 0.930 . S
H1202 C1218 0.931 . S
C1203 H1191 0.929 . S
C1203 C1197 1.390 . S
C1203 C1200 1.386 . S
C1204 C1199 1.490 . S
C1204 C1206 1.395 . S
C1204 C1207 1.403 . S
H1205 C1211 0.930 . S
C1206 H1192 0.930 . S
C1206 C1204 1.395 . S
C1206 C1209 1.403 . S
C1207 C1204 1.403 . S
C1207 C1208 1.524 . S
C1207 C1211 1.400 . S
C1208 H1193 0.960 . S
C1208 H1194 0.960 . S
C1208 H1195 0.960 . S
C1208 C1207 1.524 . S
C1209 C1206 1.403 . S
C1209 C1210 1.392 . S
C1209 C1213 1.495 . S
C1210 C1209 1.392 . S
C1210 C1211 1.385 . S
C1210 C1212 1.478 . S
C1211 H1205 0.930 . S
C1211 C1207 1.400 . S
C1211 C1210 1.385 . S
C1212 C1210 1.478 . S
C1212 C1214 1.381 . S
C1212 C1218 1.383 . S
C1213 C1209 1.495 . S
C1213 H1219 0.959 . S
C1213 H1220 0.961 . S
C1213 H1221 0.960 . S
C1214 C1212 1.381 . S
C1214 C1215 1.394 . S
C1214 H1222 0.930 . S
C1215 C1214 1.394 . S
C1215 C1216 1.383 . S
C1215 H1223 0.929 . S
C1216 C1215 1.383 . S
C1216 C1217 1.377 . S
C1217 H1201 0.930 . S
C1217 C1216 1.377 . S
C1217 C1218 1.379 . S
C1218 H1202 0.931 . S
C1218 C1212 1.383 . S
C1218 C1217 1.379 . S
H1219 C1213 0.959 . S
H1220 C1213 0.961 . S
H1221 C1213 0.960 . S
H1222 C1214 0.930 . S
H1223 C1215 0.929 . S
H1224 C1232 0.929 . S
H1225 C1234 0.930 . S
H1226 C1236 0.930 . S
H1227 C1239 0.929 . S
H1228 C1242 0.930 . S
H1229 C1244 0.960 . S
H1230 C1244 0.960 . S
H1231 C1244 0.960 . S
C1232 H1224 0.929 . S
C1232 C1233 1.377 . S
C1232 C1234 1.384 . S
C1233 C1232 1.377 . S
C1233 C1239 1.390 . S
C1234 H1225 0.930 . S
C1234 C1232 1.384 . S
C1234 C1235 1.372 . S
C1235 C1234 1.372 . S
C1235 C1236 1.400 . S
C1235 C1240 1.490 . S
C1236 H1226 0.930 . S
C1236 C1235 1.400 . S
C1236 C1239 1.386 . S
H1237 C1253 0.930 . S
H1238 C1254 0.931 . S
C1239 H1227 0.929 . S
C1239 C1233 1.390 . S
C1239 C1236 1.386 . S
C1240 C1235 1.490 . S
C1240 C1242 1.395 . S
C1240 C1243 1.403 . S
H1241 C1247 0.930 . S
C1242 H1228 0.930 . S
C1242 C1240 1.395 . S
C1242 C1245 1.403 . S
C1243 C1240 1.403 . S
C1243 C1244 1.524 . S
C1243 C1247 1.400 . S
C1244 H1229 0.960 . S
C1244 H1230 0.960 . S
C1244 H1231 0.960 . S
C1244 C1243 1.524 . S
C1245 C1242 1.403 . S
C1245 C1246 1.392 . S
C1245 C1249 1.495 . S
C1246 C1245 1.392 . S
C1246 C1247 1.385 . S
C1246 C1248 1.478 . S
C1247 H1241 0.930 . S
C1247 C1243 1.400 . S
C1247 C1246 1.385 . S
C1248 C1246 1.478 . S
C1248 C1250 1.381 . S
C1248 C1254 1.383 . S
C1249 C1245 1.495 . S
C1249 H1255 0.959 . S
C1249 H1256 0.961 . S
C1249 H1257 0.960 . S
C1250 C1248 1.381 . S
C1250 C1251 1.394 . S
C1250 H1258 0.930 . S
C1251 C1250 1.394 . S
C1251 C1252 1.383 . S
C1251 H1259 0.929 . S
C1252 C1251 1.383 . S
C1252 C1253 1.377 . S
C1253 H1237 0.930 . S
C1253 C1252 1.377 . S
C1253 C1254 1.379 . S
C1254 H1238 0.931 . S
C1254 C1248 1.383 . S
C1254 C1253 1.379 . S
H1255 C1249 0.959 . S
H1256 C1249 0.961 . S
H1257 C1249 0.960 . S
H1258 C1250 0.930 . S
H1259 C1251 0.929 . S
H1260 C1268 0.929 . S
H1261 C1270 0.930 . S
H1262 C1272 0.930 . S
H1263 C1275 0.929 . S
H1264 C1278 0.930 . S
H1265 C1280 0.960 . S
H1266 C1280 0.960 . S
H1267 C1280 0.960 . S
C1268 H1260 0.929 . S
C1268 C1269 1.377 . S
C1268 C1270 1.384 . S
C1269 C1268 1.377 . S
C1269 C1275 1.390 . S
C1270 H1261 0.930 . S
C1270 C1268 1.384 . S
C1270 C1271 1.372 . S
C1271 C1270 1.372 . S
C1271 C1272 1.400 . S
C1271 C1276 1.490 . S
C1272 H1262 0.930 . S
C1272 C1271 1.400 . S
C1272 C1275 1.386 . S
H1273 C1289 0.930 . S
H1274 C1290 0.931 . S
C1275 H1263 0.929 . S
C1275 C1269 1.390 . S
C1275 C1272 1.386 . S
C1276 C1271 1.490 . S
C1276 C1278 1.395 . S
C1276 C1279 1.403 . S
H1277 C1283 0.930 . S
C1278 H1264 0.930 . S
C1278 C1276 1.395 . S
C1278 C1281 1.403 . S
C1279 C1276 1.403 . S
C1279 C1280 1.524 . S
C1279 C1283 1.400 . S
C1280 H1265 0.960 . S
C1280 H1266 0.960 . S
C1280 H1267 0.960 . S
C1280 C1279 1.524 . S
C1281 C1278 1.403 . S
C1281 C1282 1.392 . S
C1281 C1285 1.495 . S
C1282 C1281 1.392 . S
C1282 C1283 1.385 . S
C1282 C1284 1.478 . S
C1283 H1277 0.930 . S
C1283 C1279 1.400 . S
C1283 C1282 1.385 . S
C1284 C1282 1.478 . S
C1284 C1286 1.381 . S
C1284 C1290 1.383 . S
C1285 C1281 1.495 . S
C1285 H1291 0.959 . S
C1285 H1292 0.961 . S
C1285 H1293 0.960 . S
C1286 C1284 1.381 . S
C1286 C1287 1.394 . S
C1286 H1294 0.930 . S
C1287 C1286 1.394 . S
C1287 C1288 1.383 . S
C1287 H1295 0.929 . S
C1288 C1287 1.383 . S
C1288 C1289 1.377 . S
C1289 H1273 0.930 . S
C1289 C1288 1.377 . S
C1289 C1290 1.379 . S
C1290 H1274 0.931 . S
C1290 C1284 1.383 . S
C1290 C1289 1.379 . S
H1291 C1285 0.959 . S
H1292 C1285 0.961 . S
H1293 C1285 0.960 . S
H1294 C1286 0.930 . S
H1295 C1287 0.929 . S
H1296 C1304 0.929 . S
H1297 C1306 0.930 . S
H1298 C1308 0.930 . S
H1299 C1311 0.929 . S
H1300 C1314 0.930 . S
H1301 C1316 0.960 . S
H1302 C1316 0.960 . S
H1303 C1316 0.960 . S
C1304 H1296 0.929 . S
C1304 C1305 1.377 . S
C1304 C1306 1.384 . S
C1305 C1304 1.377 . S
C1305 C1311 1.390 . S
C1306 H1297 0.930 . S
C1306 C1304 1.384 . S
C1306 C1307 1.372 . S
C1307 C1306 1.372 . S
C1307 C1308 1.400 . S
C1307 C1312 1.490 . S
C1308 H1298 0.930 . S
C1308 C1307 1.400 . S
C1308 C1311 1.386 . S
H1309 C1325 0.930 . S
H1310 C1326 0.931 . S
C1311 H1299 0.929 . S
C1311 C1305 1.390 . S
C1311 C1308 1.386 . S
C1312 C1307 1.490 . S
C1312 C1314 1.395 . S
C1312 C1315 1.403 . S
H1313 C1319 0.930 . S
C1314 H1300 0.930 . S
C1314 C1312 1.395 . S
C1314 C1317 1.403 . S
C1315 C1312 1.403 . S
C1315 C1316 1.524 . S
C1315 C1319 1.400 . S
C1316 H1301 0.960 . S
C1316 H1302 0.960 . S
C1316 H1303 0.960 . S
C1316 C1315 1.524 . S
C1317 C1314 1.403 . S
C1317 C1318 1.392 . S
C1317 C1321 1.495 . S
C1318 C1317 1.392 . S
C1318 C1319 1.385 . S
C1318 C1320 1.478 . S
C1319 H1313 0.930 . S
C1319 C1315 1.400 . S
C1319 C1318 1.385 . S
C1320 C1318 1.478 . S
C1320 C1322 1.381 . S
C1320 C1326 1.383 . S
C1321 C1317 1.495 . S
C1321 H1327 0.959 . S
C1321 H1328 0.961 . S
C1321 H1329 0.960 . S
C1322 C1320 1.381 . S
C1322 C1323 1.394 . S
C1322 H1330 0.930 . S
C1323 C1322 1.394 . S
C1323 C1324 1.383 . S
C1323 H1331 0.929 . S
C1324 C1323 1.383 . S
C1324 C1325 1.377 . S
C1325 H1309 0.930 . S
C1325 C1324 1.377 . S
C1325 C1326 1.379 . S
C1326 H1310 0.931 . S
C1326 C1320 1.383 . S
C1326 C1325 1.379 . S
H1327 C1321 0.959 . S
H1328 C1321 0.961 . S
H1329 C1321 0.960 . S
H1330 C1322 0.930 . S
H1331 C1323 0.929 . S
H1332 C1340 0.929 . S
H1333 C1342 0.930 . S
H1334 C1344 0.930 . S
H1335 C1347 0.929 . S
H1336 C1350 0.930 . S
H1337 C1352 0.960 . S
H1338 C1352 0.960 . S
H1339 C1352 0.960 . S
C1340 H1332 0.929 . S
C1340 C1341 1.377 . S
C1340 C1342 1.384 . S
C1341 C1340 1.377 . S
C1341 C1347 1.390 . S
C1342 H1333 0.930 . S
C1342 C1340 1.384 . S
C1342 C1343 1.372 . S
C1343 C1342 1.372 . S
C1343 C1344 1.400 . S
C1343 C1348 1.490 . S
C1344 H1334 0.930 . S
C1344 C1343 1.400 . S
C1344 C1347 1.386 . S
H1345 C1361 0.930 . S
H1346 C1362 0.931 . S
C1347 H1335 0.929 . S
C1347 C1341 1.390 . S
C1347 C1344 1.386 . S
C1348 C1343 1.490 . S
C1348 C1350 1.395 . S
C1348 C1351 1.403 . S
H1349 C1355 0.930 . S
C1350 H1336 0.930 . S
C1350 C1348 1.395 . S
C1350 C1353 1.403 . S
C1351 C1348 1.403 . S
C1351 C1352 1.524 . S
C1351 C1355 1.400 . S
C1352 H1337 0.960 . S
C1352 H1338 0.960 . S
C1352 H1339 0.960 . S
C1352 C1351 1.524 . S
C1353 C1350 1.403 . S
C1353 C1354 1.392 . S
C1353 C1357 1.495 . S
C1354 C1353 1.392 . S
C1354 C1355 1.385 . S
C1354 C1356 1.478 . S
C1355 H1349 0.930 . S
C1355 C1351 1.400 . S
C1355 C1354 1.385 . S
C1356 C1354 1.478 . S
C1356 C1358 1.381 . S
C1356 C1362 1.383 . S
C1357 C1353 1.495 . S
C1357 H1363 0.959 . S
C1357 H1364 0.961 . S
C1357 H1365 0.960 . S
C1358 C1356 1.381 . S
C1358 C1359 1.394 . S
C1358 H1366 0.930 . S
C1359 C1358 1.394 . S
C1359 C1360 1.383 . S
C1359 H1367 0.929 . S
C1360 C1359 1.383 . S
C1360 C1361 1.377 . S
C1361 H1345 0.930 . S
C1361 C1360 1.377 . S
C1361 C1362 1.379 . S
C1362 H1346 0.931 . S
C1362 C1356 1.383 . S
C1362 C1361 1.379 . S
H1363 C1357 0.959 . S
H1364 C1357 0.961 . S
H1365 C1357 0.960 . S
H1366 C1358 0.930 . S
H1367 C1359 0.929 . S
H1368 C1376 0.929 . S
H1369 C1378 0.930 . S
H1370 C1380 0.930 . S
H1371 C1383 0.929 . S
H1372 C1386 0.930 . S
H1373 C1388 0.960 . S
H1374 C1388 0.960 . S
H1375 C1388 0.960 . S
C1376 H1368 0.929 . S
C1376 C1377 1.377 . S
C1376 C1378 1.384 . S
C1377 C1376 1.377 . S
C1377 C1383 1.390 . S
C1378 H1369 0.930 . S
C1378 C1376 1.384 . S
C1378 C1379 1.372 . S
C1379 C1378 1.372 . S
C1379 C1380 1.400 . S
C1379 C1384 1.490 . S
C1380 H1370 0.930 . S
C1380 C1379 1.400 . S
C1380 C1383 1.386 . S
H1381 C1397 0.930 . S
H1382 C1398 0.931 . S
C1383 H1371 0.929 . S
C1383 C1377 1.390 . S
C1383 C1380 1.386 . S
C1384 C1379 1.490 . S
C1384 C1386 1.395 . S
C1384 C1387 1.403 . S
H1385 C1391 0.930 . S
C1386 H1372 0.930 . S
C1386 C1384 1.395 . S
C1386 C1389 1.403 . S
C1387 C1384 1.403 . S
C1387 C1388 1.524 . S
C1387 C1391 1.400 . S
C1388 H1373 0.960 . S
C1388 H1374 0.960 . S
C1388 H1375 0.960 . S
C1388 C1387 1.524 . S
C1389 C1386 1.403 . S
C1389 C1390 1.392 . S
C1389 C1393 1.495 . S
C1390 C1389 1.392 . S
C1390 C1391 1.385 . S
C1390 C1392 1.478 . S
C1391 H1385 0.930 . S
C1391 C1387 1.400 . S
C1391 C1390 1.385 . S
C1392 C1390 1.478 . S
C1392 C1394 1.381 . S
C1392 C1398 1.383 . S
C1393 C1389 1.495 . S
C1393 H1399 0.959 . S
C1393 H1400 0.961 . S
C1393 H1401 0.960 . S
C1394 C1392 1.381 . S
C1394 C1395 1.394 . S
C1394 H1402 0.930 . S
C1395 C1394 1.394 . S
C1395 C1396 1.383 . S
C1395 H1403 0.929 . S
C1396 C1395 1.383 . S
C1396 C1397 1.377 . S
C1397 H1381 0.930 . S
C1397 C1396 1.377 . S
C1397 C1398 1.379 . S
C1398 H1382 0.931 . S
C1398 C1392 1.383 . S
C1398 C1397 1.379 . S
H1399 C1393 0.959 . S
H1400 C1393 0.961 . S
H1401 C1393 0.960 . S
H1402 C1394 0.930 . S
H1403 C1395 0.929 . S
H1404 C1412 0.929 . S
H1405 C1414 0.930 . S
H1406 C1416 0.930 . S
H1407 C1419 0.929 . S
H1408 C1422 0.930 . S
H1409 C1424 0.960 . S
H1410 C1424 0.960 . S
H1411 C1424 0.960 . S
C1412 H1404 0.929 . S
C1412 C1413 1.377 . S
C1412 C1414 1.384 . S
C1413 C1412 1.377 . S
C1413 C1419 1.390 . S
C1414 H1405 0.930 . S
C1414 C1412 1.384 . S
C1414 C1415 1.372 . S
C1415 C1414 1.372 . S
C1415 C1416 1.400 . S
C1415 C1420 1.490 . S
C1416 H1406 0.930 . S
C1416 C1415 1.400 . S
C1416 C1419 1.386 . S
H1417 C1433 0.930 . S
H1418 C1434 0.931 . S
C1419 H1407 0.929 . S
C1419 C1413 1.390 . S
C1419 C1416 1.386 . S
C1420 C1415 1.490 . S
C1420 C1422 1.395 . S
C1420 C1423 1.403 . S
H1421 C1427 0.930 . S
C1422 H1408 0.930 . S
C1422 C1420 1.395 . S
C1422 C1425 1.403 . S
C1423 C1420 1.403 . S
C1423 C1424 1.524 . S
C1423 C1427 1.400 . S
C1424 H1409 0.960 . S
C1424 H1410 0.960 . S
C1424 H1411 0.960 . S
C1424 C1423 1.524 . S
C1425 C1422 1.403 . S
C1425 C1426 1.392 . S
C1425 C1429 1.495 . S
C1426 C1425 1.392 . S
C1426 C1427 1.385 . S
C1426 C1428 1.478 . S
C1427 H1421 0.930 . S
C1427 C1423 1.400 . S
C1427 C1426 1.385 . S
C1428 C1426 1.478 . S
C1428 C1430 1.381 . S
C1428 C1434 1.383 . S
C1429 C1425 1.495 . S
C1429 H1435 0.959 . S
C1429 H1436 0.961 . S
C1429 H1437 0.960 . S
C1430 C1428 1.381 . S
C1430 C1431 1.394 . S
C1430 H1438 0.930 . S
C1431 C1430 1.394 . S
C1431 C1432 1.383 . S
C1431 H1439 0.929 . S
C1432 C1431 1.383 . S
C1432 C1433 1.377 . S
C1433 H1417 0.930 . S
C1433 C1432 1.377 . S
C1433 C1434 1.379 . S
C1434 H1418 0.931 . S
C1434 C1428 1.383 . S
C1434 C1433 1.379 . S
H1435 C1429 0.959 . S
H1436 C1429 0.961 . S
H1437 C1429 0.960 . S
H1438 C1430 0.930 . S
H1439 C1431 0.929 . S
H1440 C1448 0.929 . S
H1441 C1450 0.930 . S
H1442 C1452 0.930 . S
H1443 C1455 0.929 . S
H1444 C1458 0.930 . S
H1445 C1460 0.960 . S
H1446 C1460 0.960 . S
H1447 C1460 0.960 . S
C1448 H1440 0.929 . S
C1448 C1449 1.377 . S
C1448 C1450 1.384 . S
C1449 C1448 1.377 . S
C1449 C1455 1.390 . S
C1450 H1441 0.930 . S
C1450 C1448 1.384 . S
C1450 C1451 1.372 . S
C1451 C1450 1.372 . S
C1451 C1452 1.400 . S
C1451 C1456 1.490 . S
C1452 H1442 0.930 . S
C1452 C1451 1.400 . S
C1452 C1455 1.386 . S
H1453 C1469 0.930 . S
H1454 C1470 0.931 . S
C1455 H1443 0.929 . S
C1455 C1449 1.390 . S
C1455 C1452 1.386 . S
C1456 C1451 1.490 . S
C1456 C1458 1.395 . S
C1456 C1459 1.403 . S
H1457 C1463 0.930 . S
C1458 H1444 0.930 . S
C1458 C1456 1.395 . S
C1458 C1461 1.403 . S
C1459 C1456 1.403 . S
C1459 C1460 1.524 . S
C1459 C1463 1.400 . S
C1460 H1445 0.960 . S
C1460 H1446 0.960 . S
C1460 H1447 0.960 . S
C1460 C1459 1.524 . S
C1461 C1458 1.403 . S
C1461 C1462 1.392 . S
C1461 C1465 1.495 . S
C1462 C1461 1.392 . S
C1462 C1463 1.385 . S
C1462 C1464 1.478 . S
C1463 H1457 0.930 . S
C1463 C1459 1.400 . S
C1463 C1462 1.385 . S
C1464 C1462 1.478 . S
C1464 C1466 1.381 . S
C1464 C1470 1.383 . S
C1465 C1461 1.495 . S
C1465 H1471 0.959 . S
C1465 H1472 0.961 . S
C1465 H1473 0.960 . S
C1466 C1464 1.381 . S
C1466 C1467 1.394 . S
C1466 H1474 0.930 . S
C1467 C1466 1.394 . S
C1467 C1468 1.383 . S
C1467 H1475 0.929 . S
C1468 C1467 1.383 . S
C1468 C1469 1.377 . S
C1469 H1453 0.930 . S
C1469 C1468 1.377 . S
C1469 C1470 1.379 . S
C1470 H1454 0.931 . S
C1470 C1464 1.383 . S
C1470 C1469 1.379 . S
H1471 C1465 0.959 . S
H1472 C1465 0.961 . S
H1473 C1465 0.960 . S
H1474 C1466 0.930 . S
H1475 C1467 0.929 . S
H1476 C1484 0.929 . S
H1477 C1486 0.930 . S
H1478 C1488 0.930 . S
H1479 C1491 0.929 . S
H1480 C1494 0.930 . S
H1481 C1496 0.960 . S
H1482 C1496 0.960 . S
H1483 C1496 0.960 . S
C1484 H1476 0.929 . S
C1484 C1485 1.377 . S
C1484 C1486 1.384 . S
C1485 C1484 1.377 . S
C1485 C1491 1.390 . S
C1486 H1477 0.930 . S
C1486 C1484 1.384 . S
C1486 C1487 1.372 . S
C1487 C1486 1.372 . S
C1487 C1488 1.400 . S
C1487 C1492 1.490 . S
C1488 H1478 0.930 . S
C1488 C1487 1.400 . S
C1488 C1491 1.386 . S
H1489 C1505 0.930 . S
H1490 C1506 0.931 . S
C1491 H1479 0.929 . S
C1491 C1485 1.390 . S
C1491 C1488 1.386 . S
C1492 C1487 1.490 . S
C1492 C1494 1.395 . S
C1492 C1495 1.403 . S
H1493 C1499 0.930 . S
C1494 H1480 0.930 . S
C1494 C1492 1.395 . S
C1494 C1497 1.403 . S
C1495 C1492 1.403 . S
C1495 C1496 1.524 . S
C1495 C1499 1.400 . S
C1496 H1481 0.960 . S
C1496 H1482 0.960 . S
C1496 H1483 0.960 . S
C1496 C1495 1.524 . S
C1497 C1494 1.403 . S
C1497 C1498 1.392 . S
C1497 C1501 1.495 . S
C1498 C1497 1.392 . S
C1498 C1499 1.385 . S
C1498 C1500 1.478 . S
C1499 H1493 0.930 . S
C1499 C1495 1.400 . S
C1499 C1498 1.385 . S
C1500 C1498 1.478 . S
C1500 C1502 1.381 . S
C1500 C1506 1.383 . S
C1501 C1497 1.495 . S
C1501 H1507 0.959 . S
C1501 H1508 0.961 . S
C1501 H1509 0.960 . S
C1502 C1500 1.381 . S
C1502 C1503 1.394 . S
C1502 H1510 0.930 . S
C1503 C1502 1.394 . S
C1503 C1504 1.383 . S
C1503 H1511 0.929 . S
C1504 C1503 1.383 . S
C1504 C1505 1.377 . S
C1505 H1489 0.930 . S
C1505 C1504 1.377 . S
C1505 C1506 1.379 . S
C1506 H1490 0.931 . S
C1506 C1500 1.383 . S
C1506 C1505 1.379 . S
H1507 C1501 0.959 . S
H1508 C1501 0.961 . S
H1509 C1501 0.960 . S
H1510 C1502 0.930 . S
H1511 C1503 0.929 . S
H1512 C1520 0.929 . S
H1513 C1522 0.930 . S
H1514 C1524 0.930 . S
H1515 C1527 0.929 . S
H1516 C1530 0.930 . S
H1517 C1532 0.960 . S
H1518 C1532 0.960 . S
H1519 C1532 0.960 . S
C1520 H1512 0.929 . S
C1520 C1521 1.377 . S
C1520 C1522 1.384 . S
C1521 C1520 1.377 . S
C1521 C1527 1.390 . S
C1522 H1513 0.930 . S
C1522 C1520 1.384 . S
C1522 C1523 1.372 . S
C1523 C1522 1.372 . S
C1523 C1524 1.400 . S
C1523 C1528 1.490 . S
C1524 H1514 0.930 . S
C1524 C1523 1.400 . S
C1524 C1527 1.386 . S
H1525 C1541 0.930 . S
H1526 C1542 0.931 . S
C1527 H1515 0.929 . S
C1527 C1521 1.390 . S
C1527 C1524 1.386 . S
C1528 C1523 1.490 . S
C1528 C1530 1.395 . S
C1528 C1531 1.403 . S
H1529 C1535 0.930 . S
C1530 H1516 0.930 . S
C1530 C1528 1.395 . S
C1530 C1533 1.403 . S
C1531 C1528 1.403 . S
C1531 C1532 1.524 . S
C1531 C1535 1.400 . S
C1532 H1517 0.960 . S
C1532 H1518 0.960 . S
C1532 H1519 0.960 . S
C1532 C1531 1.524 . S
C1533 C1530 1.403 . S
C1533 C1534 1.392 . S
C1533 C1537 1.495 . S
C1534 C1533 1.392 . S
C1534 C1535 1.385 . S
C1534 C1536 1.478 . S
C1535 H1529 0.930 . S
C1535 C1531 1.400 . S
C1535 C1534 1.385 . S
C1536 C1534 1.478 . S
C1536 C1538 1.381 . S
C1536 C1542 1.383 . S
C1537 C1533 1.495 . S
C1537 H1543 0.959 . S
C1537 H1544 0.961 . S
C1537 H1545 0.960 . S
C1538 C1536 1.381 . S
C1538 C1539 1.394 . S
C1538 H1546 0.930 . S
C1539 C1538 1.394 . S
C1539 C1540 1.383 . S
C1539 H1547 0.929 . S
C1540 C1539 1.383 . S
C1540 C1541 1.377 . S
C1541 H1525 0.930 . S
C1541 C1540 1.377 . S
C1541 C1542 1.379 . S
C1542 H1526 0.931 . S
C1542 C1536 1.383 . S
C1542 C1541 1.379 . S
H1543 C1537 0.959 . S
H1544 C1537 0.961 . S
H1545 C1537 0.960 . S
H1546 C1538 0.930 . S
H1547 C1539 0.929 . S
C261 C249 1.742 . S
C280 C11 1.736 . S
C297 C221 1.740 . S
C316 C25 1.744 . S
C333 C235 1.738 . S
C352 C39 1.735 . S
C369 C109 1.742 . S
C388 C53 1.736 . S
C405 C123 1.739 . S
C424 C67 1.730 . S
C441 C81 1.739 . S
C460 C95 1.743 . S
C477 C137 1.740 . S
C496 C193 1.744 . S
C513 C151 1.739 . S
C532 C207 1.738 . S
C549 C165 1.739 . S
C568 C179 1.744 . S
C585 C8 0.954 . S
C604 C246 0.941 . S
C621 C218 0.959 . S
C640 C22 0.963 . S
C657 C36 0.953 . S
C676 C232 0.986 . S
C693 C106 0.961 . S
C712 C50 0.951 . S
C729 C64 0.955 . S
C748 C120 0.935 . S
C765 C78 0.956 . S
C784 C92 0.931 . S
C801 C134 0.961 . S
C820 C190 0.952 . S
C837 C204 0.948 . S
C856 C148 0.980 . S
C873 C176 0.962 . S
C892 C162 0.944 . S
C909 C13 1.414 . S
C928 C55 1.396 . S
C945 C69 1.413 . S
C964 C27 1.405 . S
C981 C83 1.398 . S
C1000 C41 1.427 . S
C1017 C77 1.462 . S
C1036 C21 1.454 . S
C1053 C35 1.465 . S
C1072 C49 1.466 . S
C1089 C63 1.462 . S
C1108 C7 1.450 . S
C1125 C97 1.412 . S
C1144 C139 1.413 . S
C1161 C153 1.400 . S
C1180 C111 1.394 . S
C1197 C167 1.398 . S
C1216 C125 1.427 . S
C1233 C161 1.462 . S
C1252 C105 1.449 . S
C1269 C119 1.466 . S
C1288 C133 1.471 . S
C1305 C147 1.462 . S
C1324 C91 1.450 . S
C1341 C223 1.399 . S
C1360 C181 1.403 . S
C1377 C237 1.412 . S
C1396 C195 1.415 . S
C1413 C209 1.404 . S
C1432 C251 1.377 . S
C1449 C245 1.465 . S
C1468 C189 1.462 . S
C1485 C203 1.462 . S
C1504 C217 1.448 . S
C1521 C231 1.463 . S
C1540 C175 1.455 . S
