# Generated by pormake.
# Topology pcl, (4)-cn, num edge types: 1
# Building blocks:
#     Node 0, Type 0, BuildingBlock: NAHDIM_clean_sbu_0, # of connection points: 4
#     Node 1, Type 0, BuildingBlock: NAHDIM_clean_sbu_0, # of connection points: 4
#     Node 2, Type 0, BuildingBlock: NAHDIM_clean_sbu_0, # of connection points: 4
#     Node 3, Type 0, BuildingBlock: NAHDIM_clean_sbu_0, # of connection points: 4
#     Node 4, Type 0, BuildingBlock: NAHDIM_clean_sbu_0, # of connection points: 4
#     Node 5, Type 0, BuildingBlock: NAHDIM_clean_sbu_0, # of connection points: 4
#     Node 6, Type 0, BuildingBlock: NAHDIM_clean_sbu_0, # of connection points: 4
#     Node 7, Type 0, BuildingBlock: NAHDIM_clean_sbu_0, # of connection points: 4
#     Node 8, Type 0, BuildingBlock: NAHDIM_clean_sbu_0, # of connection points: 4
#     Node 9, Type 0, BuildingBlock: NAHDIM_clean_sbu_0, # of connection points: 4
#     Node 10, Type 0, BuildingBlock: NAHDIM_clean_sbu_0, # of connection points: 4
#     Node 11, Type 0, BuildingBlock: NAHDIM_clean_sbu_0, # of connection points: 4
#     Node 12, Type 0, BuildingBlock: NAHDIM_clean_sbu_0, # of connection points: 4
#     Node 13, Type 0, BuildingBlock: NAHDIM_clean_sbu_0, # of connection points: 4
#     Node 14, Type 0, BuildingBlock: NAHDIM_clean_sbu_0, # of connection points: 4
#     Node 15, Type 0, BuildingBlock: NAHDIM_clean_sbu_0, # of connection points: 4
#     Edge 16, Type (0, 0), BuildingBlock: CIFDUS_clean_linker_0, # of connection points: 2
#     Edge 17, Type (0, 0), BuildingBlock: CIFDUS_clean_linker_0, # of connection points: 2
#     Edge 18, Type (0, 0), BuildingBlock: CIFDUS_clean_linker_0, # of connection points: 2
#     Edge 19, Type (0, 0), BuildingBlock: CIFDUS_clean_linker_0, # of connection points: 2
#     Edge 20, Type (0, 0), BuildingBlock: CIFDUS_clean_linker_0, # of connection points: 2
#     Edge 21, Type (0, 0), BuildingBlock: CIFDUS_clean_linker_0, # of connection points: 2
#     Edge 22, Type (0, 0), BuildingBlock: CIFDUS_clean_linker_0, # of connection points: 2
#     Edge 23, Type (0, 0), BuildingBlock: CIFDUS_clean_linker_0, # of connection points: 2
#     Edge 24, Type (0, 0), BuildingBlock: CIFDUS_clean_linker_0, # of connection points: 2
#     Edge 25, Type (0, 0), BuildingBlock: CIFDUS_clean_linker_0, # of connection points: 2
#     Edge 26, Type (0, 0), BuildingBlock: CIFDUS_clean_linker_0, # of connection points: 2
#     Edge 27, Type (0, 0), BuildingBlock: CIFDUS_clean_linker_0, # of connection points: 2
#     Edge 28, Type (0, 0), BuildingBlock: CIFDUS_clean_linker_0, # of connection points: 2
#     Edge 29, Type (0, 0), BuildingBlock: CIFDUS_clean_linker_0, # of connection points: 2
#     Edge 30, Type (0, 0), BuildingBlock: CIFDUS_clean_linker_0, # of connection points: 2
#     Edge 31, Type (0, 0), BuildingBlock: CIFDUS_clean_linker_0, # of connection points: 2
#     Edge 32, Type (0, 0), BuildingBlock: CIFDUS_clean_linker_0, # of connection points: 2
#     Edge 33, Type (0, 0), BuildingBlock: CIFDUS_clean_linker_0, # of connection points: 2
#     Edge 34, Type (0, 0), BuildingBlock: CIFDUS_clean_linker_0, # of connection points: 2
#     Edge 35, Type (0, 0), BuildingBlock: CIFDUS_clean_linker_0, # of connection points: 2
#     Edge 36, Type (0, 0), BuildingBlock: CIFDUS_clean_linker_0, # of connection points: 2
#     Edge 37, Type (0, 0), BuildingBlock: CIFDUS_clean_linker_0, # of connection points: 2
#     Edge 38, Type (0, 0), BuildingBlock: CIFDUS_clean_linker_0, # of connection points: 2
#     Edge 39, Type (0, 0), BuildingBlock: CIFDUS_clean_linker_0, # of connection points: 2
#     Edge 40, Type (0, 0), BuildingBlock: CIFDUS_clean_linker_0, # of connection points: 2
#     Edge 41, Type (0, 0), BuildingBlock: CIFDUS_clean_linker_0, # of connection points: 2
#     Edge 42, Type (0, 0), BuildingBlock: CIFDUS_clean_linker_0, # of connection points: 2
#     Edge 43, Type (0, 0), BuildingBlock: CIFDUS_clean_linker_0, # of connection points: 2
#     Edge 44, Type (0, 0), BuildingBlock: CIFDUS_clean_linker_0, # of connection points: 2
#     Edge 45, Type (0, 0), BuildingBlock: CIFDUS_clean_linker_0, # of connection points: 2
#     Edge 46, Type (0, 0), BuildingBlock: CIFDUS_clean_linker_0, # of connection points: 2
#     Edge 47, Type (0, 0), BuildingBlock: CIFDUS_clean_linker_0, # of connection points: 2
# Relax obj value: 0.089
# Max RMSD: 0.097
# Mean RMSD: 0.088
data_MOF--net-pcl--node1-NAHDIM_clean_sbu_0--edge1-CIFDUS_clean_linker_0
_symmetry_space_group_name_H-M    P1
_symmetry_Int_Tables_number       1
_symmetry_cell_setting            triclinic
loop_
_symmetry_equiv_pos_as_xyz
'x, y, z'
_cell_length_a     42.502191
_cell_length_b     42.118354
_cell_length_c     37.42539
_cell_angle_alpha  90.000186
_cell_angle_beta   89.893589
_cell_angle_gamma 90.21835
loop_
_atom_site_label
_atom_site_type_symbol
_atom_site_fract_x
_atom_site_fract_y
_atom_site_fract_z
_atom_type_partial_charge
C0 C 0.20253 0.33578 0.02804 0.0
O1 O 0.2172 0.35682 0.04794 0.0
O2 O 0.15981 0.37653 0.09809 0.0
Zn3 Zn 0.14952 0.37444 0.04586 0.0
O4 O 0.16004 0.4162 0.02277 0.0
C5 C 0.0899 0.34733 0.06373 0.0
O6 O 0.1075 0.33224 0.087 0.0
O7 O 0.17315 0.3387 0.0229 0.0
C8 C 0.15572 0.42024 0.98952 0.0
O9 O 0.14528 0.39636 0.97024 0.0
C10 C 0.14656 0.39801 0.11651 0.0
O11 O 0.12845 0.41868 0.10027 0.0
O12 O 0.10291 0.36651 0.04197 0.0
C13 C 0.81294 0.70776 0.54471 0.0
O14 O 0.79604 0.69052 0.56689 0.0
O15 O 0.85003 0.66335 0.61517 0.0
Zn16 Zn 0.85897 0.66111 0.56212 0.0
O17 O 0.84191 0.62214 0.53741 0.0
C18 C 0.92301 0.646 0.5773 0.0
O19 O 0.90955 0.63189 0.60468 0.0
O20 O 0.84118 0.69975 0.53835 0.0
C21 C 0.84416 0.5941 0.54966 0.0
O22 O 0.8563 0.58967 0.58151 0.0
C23 C 0.82952 0.64858 0.63362 0.0
O24 O 0.81011 0.62868 0.61791 0.0
O25 O 0.90594 0.66086 0.55509 0.0
C26 C 0.17785 0.67787 0.94751 0.0
O27 O 0.17236 0.65012 0.96234 0.0
O28 O 0.15781 0.65988 0.83539 0.0
Zn29 Zn 0.14453 0.65135 0.88611 0.0
O30 O 0.15584 0.60682 0.90127 0.0
C31 C 0.08136 0.64811 0.86105 0.0
O32 O 0.09678 0.64163 0.83152 0.0
O33 O 0.16706 0.68354 0.91653 0.0
C34 C 0.14864 0.58317 0.88178 0.0
O35 O 0.13537 0.58819 0.85063 0.0
C36 C 0.17996 0.64639 0.81844 0.0
O37 O 0.19708 0.62477 0.83448 0.0
O38 O 0.09689 0.65477 0.88915 0.0
C39 C 0.79428 0.32169 0.46949 0.0
O40 O 0.77695 0.34612 0.46028 0.0
O41 O 0.83736 0.35862 0.38627 0.0
Zn42 Zn 0.844 0.35994 0.4396 0.0
O43 O 0.82906 0.39996 0.4635 0.0
C44 C 0.90781 0.33923 0.42994 0.0
O45 O 0.89484 0.32112 0.40543 0.0
O46 O 0.82358 0.32222 0.46282 0.0
C47 C 0.83442 0.42746 0.45088 0.0
O48 O 0.84791 0.43015 0.4194 0.0
C49 C 0.81689 0.37266 0.36734 0.0
O50 O 0.79604 0.3911 0.38278 0.0
O51 O 0.89048 0.35756 0.4483 0.0
C52 C 0.778 0.65477 0.94356 0.0
O53 O 0.76434 0.63019 0.92841 0.0
O54 O 0.82739 0.58227 0.94543 0.0
Zn55 Zn 0.83321 0.62321 0.91842 0.0
O56 O 0.81964 0.61926 0.86689 0.0
C57 C 0.89748 0.62363 0.89608 0.0
O58 O 0.8857 0.60435 0.87192 0.0
O59 O 0.8078 0.65711 0.9425 0.0
C60 C 0.82524 0.64286 0.84666 0.0
O61 O 0.83806 0.66845 0.86058 0.0
C62 C 0.82228 0.55548 0.9309 0.0
O63 O 0.82005 0.55368 0.89595 0.0
O64 O 0.87935 0.63506 0.91984 0.0
C65 C 0.21234 0.30164 0.42148 0.0
O66 O 0.22712 0.32702 0.40968 0.0
O67 O 0.16719 0.3754 0.41936 0.0
Zn68 Zn 0.15875 0.33432 0.39344 0.0
O69 O 0.16981 0.33882 0.34149 0.0
C70 C 0.09523 0.33527 0.42108 0.0
O71 O 0.10814 0.35235 0.44655 0.0
O72 O 0.18285 0.29922 0.41678 0.0
C73 C 0.15513 0.3604 0.32471 0.0
O74 O 0.13493 0.37809 0.34229 0.0
C75 C 0.18578 0.397 0.4083 0.0
O76 O 0.20152 0.39273 0.37847 0.0
O77 O 0.11247 0.32453 0.39612 0.0
C78 C 0.79161 0.31013 0.06524 0.0
O79 O 0.77524 0.33505 0.07509 0.0
O80 O 0.82873 0.38892 0.06095 0.0
Zn81 Zn 0.84296 0.34987 0.08734 0.0
O82 O 0.83408 0.35391 0.14014 0.0
C83 C 0.90264 0.3555 0.05131 0.0
O84 O 0.88491 0.36738 0.02594 0.0
O85 O 0.82139 0.31099 0.06794 0.0
C86 C 0.84755 0.33442 0.16097 0.0
O87 O 0.86581 0.31249 0.14714 0.0
C88 C 0.83343 0.41614 0.0746 0.0
O89 O 0.84563 0.41805 0.10677 0.0
O90 O 0.8898 0.34586 0.08006 0.0
C91 C 0.21451 0.65997 0.5117 0.0
O92 O 0.23295 0.64255 0.53183 0.0
O93 O 0.17594 0.57535 0.51521 0.0
Zn94 Zn 0.16816 0.6172 0.53953 0.0
O95 O 0.18842 0.61739 0.58802 0.0
C96 C 0.10796 0.61315 0.57473 0.0
O97 O 0.12497 0.59904 0.59926 0.0
O98 O 0.18539 0.65325 0.51017 0.0
C99 C 0.18539 0.6422 0.60697 0.0
O100 O 0.17118 0.66698 0.59316 0.0
C101 C 0.17147 0.54988 0.53275 0.0
O102 O 0.1628 0.55171 0.56638 0.0
O103 O 0.12128 0.62305 0.54634 0.0
C104 C 0.70159 0.79635 0.05574 0.0
O105 O 0.71582 0.82011 0.07185 0.0
O106 O 0.66522 0.82389 0.13841 0.0
Zn107 Zn 0.65022 0.8275 0.08737 0.0
O108 O 0.66082 0.87033 0.0662 0.0
C109 C 0.5875 0.82892 0.11495 0.0
O110 O 0.60317 0.83829 0.14328 0.0
O111 O 0.67184 0.79395 0.05826 0.0
C112 C 0.64843 0.89572 0.07787 0.0
O113 O 0.62889 0.89415 0.10505 0.0
C114 C 0.68132 0.84444 0.15533 0.0
O115 O 0.69121 0.87006 0.13868 0.0
O116 O 0.6027 0.82192 0.08671 0.0
C117 C 0.27837 0.1592 0.54002 0.0
O118 O 0.26361 0.13434 0.5532 0.0
O119 O 0.3217 0.13406 0.62625 0.0
Zn120 Zn 0.33217 0.13068 0.57383 0.0
O121 O 0.32377 0.08682 0.55446 0.0
C122 C 0.39651 0.14902 0.5913 0.0
O123 O 0.38478 0.15407 0.62329 0.0
O124 O 0.30761 0.16257 0.54584 0.0
C125 C 0.34508 0.06618 0.55917 0.0
O126 O 0.36991 0.07378 0.57825 0.0
C127 C 0.31111 0.11147 0.64535 0.0
O128 O 0.30506 0.08389 0.63043 0.0
O129 O 0.37837 0.13985 0.56636 0.0
C130 C 0.6808 0.16955 0.9954 0.0
O131 O 0.69676 0.14372 0.98794 0.0
O132 O 0.64005 0.12112 0.9211 0.0
Zn133 Zn 0.62794 0.13143 0.97197 0.0
O134 O 0.63499 0.09347 0.00363 0.0
C135 C 0.56797 0.15473 0.94718 0.0
O136 O 0.58512 0.16586 0.92073 0.0
O137 O 0.65121 0.16967 0.9906 0.0
C138 C 0.65173 0.06987 0.9945 0.0
O139 O 0.66673 0.07061 0.96378 0.0
C140 C 0.65414 0.14024 0.90016 0.0
O141 O 0.66285 0.16824 0.91212 0.0
O142 O 0.58139 0.14002 0.97255 0.0
C143 C 0.30734 0.80694 0.42654 0.0
O144 O 0.28945 0.82424 0.40565 0.0
O145 O 0.33783 0.85991 0.35862 0.0
Zn146 Zn 0.35568 0.853 0.40779 0.0
O147 O 0.35043 0.89204 0.43917 0.0
C148 C 0.4183 0.83253 0.42687 0.0
O149 O 0.40416 0.8228 0.45616 0.0
O150 O 0.33586 0.81497 0.43123 0.0
C151 C 0.37422 0.90986 0.44445 0.0
O152 O 0.40084 0.90344 0.42821 0.0
C153 C 0.33889 0.887 0.3437 0.0
O154 O 0.3502 0.9113 0.36163 0.0
O155 O 0.40195 0.84461 0.40197 0.0
C156 C 0.26928 0.17798 0.93757 0.0
O157 O 0.25478 0.15707 0.91734 0.0
O158 O 0.30893 0.09651 0.94922 0.0
Zn159 Zn 0.32202 0.13703 0.92473 0.0
O160 O 0.31421 0.13322 0.87197 0.0
C161 C 0.38127 0.13927 0.96225 0.0
O162 O 0.36381 0.12969 0.98921 0.0
O163 O 0.29823 0.17409 0.94464 0.0
C164 C 0.31945 0.15708 0.85204 0.0
O165 O 0.32906 0.18375 0.8667 0.0
C166 C 0.32557 0.072 0.94364 0.0
O167 O 0.34987 0.07422 0.92201 0.0
O168 O 0.36837 0.14426 0.93217 0.0
C169 C 0.71195 0.84776 0.45909 0.0
O170 O 0.72796 0.86376 0.43497 0.0
O171 O 0.66105 0.92959 0.45763 0.0
Zn172 Zn 0.66016 0.88642 0.43437 0.0
O173 O 0.67818 0.8883 0.38461 0.0
C174 C 0.59828 0.8817 0.40432 0.0
O175 O 0.6109 0.90053 0.3802 0.0
O176 O 0.68301 0.85395 0.46378 0.0
C177 C 0.67774 0.86282 0.36643 0.0
O178 O 0.66728 0.83666 0.38156 0.0
C179 C 0.68034 0.93768 0.48193 0.0
O180 O 0.70184 0.9174 0.4924 0.0
O181 O 0.61495 0.87253 0.4305 0.0
C182 C 0.29991 0.81225 0.00773 0.0
O183 O 0.31091 0.83633 0.98917 0.0
O184 O 0.33935 0.88127 0.03859 0.0
Zn185 Zn 0.33847 0.8392 0.06422 0.0
O186 O 0.32478 0.84358 0.11581 0.0
C187 C 0.40187 0.83612 0.08592 0.0
O188 O 0.39064 0.85779 0.10763 0.0
O189 O 0.30896 0.8085 0.0398 0.0
C190 C 0.32387 0.8695 0.13321 0.0
O191 O 0.33101 0.89619 0.11689 0.0
C192 C 0.31693 0.90091 0.03531 0.0
O193 O 0.28952 0.89457 0.05002 0.0
O194 O 0.38338 0.8231 0.06355 0.0
C195 C 0.69597 0.19162 0.57817 0.0
O196 O 0.71383 0.16794 0.58846 0.0
O197 O 0.65861 0.11386 0.59151 0.0
Zn198 Zn 0.64915 0.15555 0.61571 0.0
O199 O 0.66593 0.15696 0.66589 0.0
C200 C 0.58419 0.15632 0.59278 0.0
O201 O 0.5964 0.14894 0.5616 0.0
O202 O 0.66707 0.19159 0.58689 0.0
C203 C 0.65684 0.13577 0.68781 0.0
O204 O 0.63855 0.11275 0.67625 0.0
C205 C 0.6816 0.09604 0.59955 0.0
O206 O 0.70088 0.1047 0.6252 0.0
O207 O 0.60231 0.16051 0.61932 0.0
H208 H 0.04726 0.37138 0.01687 0.0
H209 H 0.05465 0.31541 0.11313 0.0
H210 H 0.99745 0.3123 0.11726 0.0
H211 H 0.94529 0.32714 0.09492 0.0
H212 H 0.93783 0.38261 -0.00169 0.0
H213 H 0.99505 0.3841 0.99296 0.0
C214 C 0.03637 0.35837 0.03866 0.0
C215 C 0.05525 0.34381 0.06474 0.0
C216 C 0.00342 0.35664 0.04091 0.0
C217 C 0.04073 0.32687 0.09267 0.0
C218 C 0.00798 0.32513 0.09514 0.0
C219 C 0.95617 0.33946 0.07261 0.0
C220 C 0.93728 0.35489 0.04719 0.0
C221 C 0.9891 0.34019 0.06962 0.0
C222 C 0.95177 0.37054 0.01831 0.0
C223 C 0.98452 0.37147 0.01523 0.0
H224 H 0.96528 0.61728 0.62066 0.0
H225 H 0.95808 0.66935 0.52167 0.0
H226 H 0.0147 0.66394 0.51213 0.0
H227 H 0.06618 0.64371 0.53155 0.0
H228 H 0.07283 0.59184 0.63079 0.0
H229 H 0.01649 0.59792 0.64046 0.0
C230 C 0.97605 0.62752 0.597 0.0
C231 C 0.95743 0.64363 0.57191 0.0
C232 C 0.00855 0.6243 0.59165 0.0
C233 C 0.97185 0.65681 0.54145 0.0
C234 C 0.00423 0.6537 0.53593 0.0
C235 C 0.0553 0.63374 0.55529 0.0
C236 C 0.07374 0.61727 0.58033 0.0
C237 C 0.0228 0.63736 0.56079 0.0
C238 C 0.05926 0.60461 0.61102 0.0
C239 C 0.027 0.60805 0.61661 0.0
H240 H 0.93761 0.61636 0.84067 0.0
H241 H 0.93324 0.64973 0.94952 0.0
H242 H 0.98975 0.66132 0.94824 0.0
H243 H 0.04087 0.66016 0.91651 0.0
H244 H 0.04377 0.6278 0.80701 0.0
H245 H 0.98743 0.61785 0.80828 0.0
C246 C 0.94899 0.62617 0.86415 0.0
C247 C 0.93133 0.63188 0.89523 0.0
C248 C 0.98128 0.633 0.86311 0.0
C249 C 0.94635 0.64505 0.92525 0.0
C250 C 0.97866 0.65163 0.92455 0.0
C251 C 0.02912 0.65113 0.89289 0.0
C252 C 0.04666 0.64458 0.86181 0.0
C253 C 0.99645 0.64547 0.89368 0.0
C254 C 0.03099 0.63303 0.83136 0.0
C255 C -0.0013 0.62722 0.83203 0.0
H256 H 0.05131 0.36113 0.46508 0.0
H257 H 0.06164 0.29867 0.37437 0.0
H258 H 0.00459 0.29324 0.37018 0.0
H259 H 0.95176 0.30805 0.39057 0.0
H260 H 0.94148 0.37158 0.48035 0.0
H261 H -0.00147 0.37463 0.48662 0.0
C262 C 0.04112 0.34614 0.44455 0.0
C263 C 0.06075 0.33043 0.42002 0.0
C264 C 0.00828 0.34339 0.44201 0.0
C265 C 0.0471 0.31113 0.39354 0.0
C266 C 0.01446 0.30802 0.39109 0.0
C267 C 0.96197 0.32241 0.41166 0.0
C268 C 0.94235 0.33964 0.43485 0.0
C269 C 0.99482 0.32433 0.41492 0.0
C270 C 0.95601 0.35815 0.46202 0.0
C271 C 0.98866 0.35993 0.46564 0.0
H272 H 0.44244 0.84898 0.13924 0.0
H273 H 0.43761 0.80688 0.03433 0.0
H274 H 0.49485 0.79974 0.0343 0.0
H275 H 0.54664 0.80842 0.06309 0.0
H276 H 0.54991 0.85006 0.16854 0.0
H277 H 0.49293 0.85434 0.16926 0.0
C278 C 0.45385 0.83809 0.11638 0.0
C279 C 0.43587 0.82876 0.0867 0.0
C280 C 0.48655 0.83411 0.11658 0.0
C281 C 0.45096 0.81428 0.05753 0.0
C282 C 0.48368 0.81032 0.05745 0.0
C283 C 0.53484 0.81824 0.08628 0.0
C284 C 0.55265 0.82914 0.11557 0.0
C285 C 0.5018 0.82061 0.08665 0.0
C286 C 0.53694 0.84158 0.14554 0.0
C287 C 0.50428 0.8441 0.14601 0.0
H288 H 0.53877 0.14642 0.54271 0.0
H289 H 0.55198 0.17092 0.65374 0.0
H290 H 0.49517 0.17218 0.66259 0.0
H291 H 0.44179 0.16444 0.63954 0.0
H292 H 0.42839 0.13921 0.52877 0.0
H293 H 0.48519 0.14033 0.51915 0.0
C294 C 0.52924 0.15218 0.56881 0.0
C295 C 0.54966 0.15843 0.59752 0.0
C296 C 0.49649 0.15271 0.57383 0.0
C297 C 0.53686 0.16591 0.63115 0.0
C298 C 0.50433 0.16664 0.63629 0.0
C299 C 0.45124 0.15937 0.61322 0.0
C300 C 0.43082 0.15165 0.58498 0.0
C301 C 0.48394 0.15979 0.60791 0.0
C302 C 0.44353 0.14517 0.55104 0.0
C303 C 0.47604 0.14575 0.5455 0.0
H304 H 0.52615 0.13628 -0.00165 0.0
H305 H 0.53166 0.17792 0.89308 0.0
H306 H 0.47437 0.1778 0.889 0.0
H307 H 0.42284 0.16361 0.91409 0.0
H308 H 0.41727 0.12213 0.01942 0.0
H309 H 0.47447 0.12458 0.02468 0.0
C310 C 0.51484 0.14551 0.97458 0.0
C311 C 0.53323 0.1569 0.94598 0.0
C312 C 0.48187 0.14529 0.97234 0.0
C313 C 0.51813 0.16896 0.91549 0.0
C314 C 0.48534 0.16883 0.91308 0.0
C315 C 0.4341 0.15522 0.93827 0.0
C316 C 0.41578 0.14251 0.96621 0.0
C317 C 0.467 0.15668 0.94114 0.0
C318 C 0.43078 0.13198 0.99746 0.0
C319 C 0.46351 0.13332 0.00049 0.0
H320 H 0.45386 0.86027 0.37515 0.0
H321 H 0.4608 0.81019 0.47547 0.0
H322 H 0.51754 0.81965 0.47646 0.0
H323 H 0.56448 0.84532 0.45089 0.0
H324 H 0.55687 0.89663 0.35139 0.0
H325 H 0.50105 0.88345 0.34811 0.0
C326 C 0.46779 0.85105 0.39706 0.0
C327 C 0.45304 0.83468 0.4253 0.0
C328 C 0.50025 0.85707 0.39779 0.0
C329 C 0.47151 0.82295 0.45344 0.0
C330 C 0.50396 0.82845 0.45409 0.0
C331 C 0.55066 0.85348 0.42838 0.0
C332 C 0.56482 0.87218 0.40159 0.0
C333 C 0.51846 0.84603 0.42677 0.0
C334 C 0.54658 0.8824 0.37252 0.0
C335 C 0.51462 0.87485 0.37058 0.0
H336 H 0.17816 0.35594 0.15831 0.0
H337 H 0.11908 0.43903 0.1634 0.0
H338 H 0.11789 0.4355 0.22841 0.0
H339 H 0.13086 0.4071 0.28342 0.0
H340 H 0.18948 0.32372 0.27871 0.0
H341 H 0.19371 0.32924 0.21388 0.0
C342 C 0.16526 0.37346 0.17363 0.0
C343 C 0.14855 0.39757 0.15595 0.0
C344 C 0.16441 0.37115 0.21105 0.0
C345 C 0.13205 0.42013 0.17626 0.0
C346 C 0.13128 0.41811 0.21347 0.0
C347 C 0.1447 0.39019 0.26828 0.0
C348 C 0.15958 0.36487 0.28585 0.0
C349 C 0.14692 0.39342 0.23107 0.0
C350 C 0.17767 0.34336 0.26583 0.0
C351 C 0.18007 0.34647 0.22875 0.0
H352 H 0.80191 0.61051 0.68382 0.0
H353 H 0.85567 0.69701 0.67146 0.0
H354 H 0.85734 0.70372 0.73609 0.0
H355 H 0.84579 0.68399 0.79605 0.0
H356 H 0.79425 0.5963 0.80939 0.0
H357 H 0.78932 0.5912 0.7445 0.0
C358 C 0.81373 0.63096 0.69529 0.0
C359 C 0.82868 0.65318 0.67282 0.0
C360 C 0.81511 0.63442 0.73266 0.0
C361 C 0.84411 0.67944 0.68812 0.0
C362 C 0.84507 0.68333 0.7251 0.0
C363 C 0.83322 0.66387 0.78485 0.0
C364 C 0.82041 0.64057 0.80757 0.0
C365 C 0.83099 0.6608 0.74762 0.0
C366 C 0.80439 0.61456 0.7925 0.0
C367 C 0.80158 0.61162 0.75539 0.0
H368 H 0.2094 0.60972 0.76878 0.0
H369 H 0.15877 0.69765 0.78166 0.0
H370 H 0.1593 0.70585 0.71718 0.0
H371 H 0.16951 0.68567 0.65713 0.0
H372 H 0.21727 0.59621 0.64352 0.0
H373 H 0.22285 0.59121 0.70826 0.0
C374 C 0.19894 0.6309 0.75748 0.0
C375 C 0.18388 0.65291 0.77992 0.0
C376 C 0.19862 0.63511 0.72024 0.0
C377 C 0.17028 0.68019 0.76491 0.0
C378 C 0.17055 0.68492 0.72804 0.0
C379 C 0.18157 0.66529 0.66824 0.0
C380 C 0.19274 0.64125 0.64554 0.0
C381 C 0.18395 0.66216 0.70543 0.0
C382 C 0.20829 0.61499 0.66043 0.0
C383 C 0.21142 0.61206 0.69746 0.0
H384 H 0.80949 0.37471 0.19848 0.0
H385 H 0.87758 0.2998 0.21189 0.0
H386 H 0.87355 0.30475 0.27656 0.0
H387 H 0.85186 0.33092 0.32926 0.0
H388 H 0.78332 0.40545 0.31691 0.0
H389 H 0.7863 0.39994 0.25189 0.0
C390 C 0.82338 0.35941 0.21556 0.0
C391 C 0.84391 0.337 0.20026 0.0
C392 C 0.82092 0.36231 0.25292 0.0
C393 C 0.86161 0.31728 0.22283 0.0
C394 C 0.85937 0.3201 0.25988 0.0
C395 C 0.83749 0.34597 0.31242 0.0
C396 C 0.81751 0.36868 0.32799 0.0
C397 C 0.83927 0.34264 0.27519 0.0
C398 C 0.79891 0.38778 0.30567 0.0
C399 C 0.80065 0.38468 0.26847 0.0
H400 H 0.67278 0.814 0.31947 0.0
H401 H 0.69914 0.91289 0.32644 0.0
H402 H 0.70568 0.91507 0.26162 0.0
H403 H 0.69937 0.89011 0.20264 0.0
H404 H 0.67075 0.79182 0.19602 0.0
H405 H 0.66995 0.78817 0.26104 0.0
C406 C 0.6803 0.83597 0.30691 0.0
C407 C 0.68518 0.8633 0.32778 0.0
C408 C 0.68347 0.83721 0.26962 0.0
C409 C 0.69503 0.89152 0.31101 0.0
C410 C 0.69874 0.89281 0.27392 0.0
C411 C 0.69342 0.86776 0.21541 0.0
C412 C 0.68492 0.84135 0.19448 0.0
C413 C 0.69235 0.86598 0.25289 0.0
C414 C 0.67718 0.81259 0.21149 0.0
C415 C 0.67667 0.81047 0.24869 0.0
H416 H 0.3014 0.10526 0.8135 0.0
H417 H 0.3313 0.20286 0.80216 0.0
H418 H 0.32986 0.19771 0.73728 0.0
H419 H 0.32252 0.16496 0.68388 0.0
H420 H 0.29308 0.06721 0.69491 0.0
H421 H 0.29177 0.0731 0.75982 0.0
C422 C 0.30743 0.12548 0.79686 0.0
C423 C 0.31663 0.15435 0.81274 0.0
C424 C 0.30672 0.12233 0.75951 0.0
C425 C 0.32425 0.18032 0.79072 0.0
C426 C 0.32346 0.1774 0.75357 0.0
C427 C 0.3156 0.14496 0.70041 0.0
C428 C 0.30807 0.11564 0.6845 0.0
C429 C 0.3151 0.14843 0.7377 0.0
C430 C 0.29907 0.09004 0.70641 0.0
C431 C 0.29836 0.09336 0.74356 0.0
H432 H 0.68028 0.17651 0.84755 0.0
H433 H 0.6343 0.0864 0.86624 0.0
H434 H 0.63342 0.07599 0.80218 0.0
H435 H 0.64167 0.09433 0.74075 0.0
H436 H 0.68705 0.18465 0.72175 0.0
H437 H 0.69246 0.19289 0.78602 0.0
C438 C 0.67036 0.15444 0.83766 0.0
C439 C 0.65705 0.13247 0.8617 0.0
C440 C 0.66966 0.14868 0.8007 0.0
C441 C 0.64452 0.10387 0.84838 0.0
C442 C 0.64394 0.09789 0.81171 0.0
C443 C 0.65303 0.11569 0.75061 0.0
C444 C 0.66359 0.13898 0.72644 0.0
C445 C 0.6558 0.12043 0.78759 0.0
C446 C 0.67854 0.16638 0.73973 0.0
C447 C 0.68157 0.17117 0.77652 0.0
H448 H 0.32943 0.91887 0.17976 0.0
H449 H 0.30919 0.8184 0.17505 0.0
H450 H 0.30913 0.81564 0.24013 0.0
H451 H 0.31969 0.84059 0.29803 0.0
H452 H 0.34153 0.94071 0.3028 0.0
H453 H 0.33575 0.94474 0.23809 0.0
C454 C 0.3246 0.89643 0.19293 0.0
C455 C 0.31968 0.86883 0.17249 0.0
C456 C 0.32509 0.89487 0.23042 0.0
C457 C 0.31331 0.84 0.19008 0.0
C458 C 0.31332 0.83836 0.22733 0.0
C459 C 0.32283 0.8634 0.28501 0.0
C460 C 0.3314 0.89022 0.30524 0.0
C461 C 0.31996 0.86547 0.24773 0.0
C462 C 0.33515 0.91961 0.2879 0.0
C463 C 0.33192 0.92194 0.25085 0.0
H464 H 0.29326 0.22643 0.97721 0.0
H465 H 0.20706 0.19234 0.92956 0.0
H466 H 0.17897 0.23837 0.9529 0.0
H467 H 0.17877 0.28799 0.98718 0.0
H468 H 0.265 0.32206 0.03479 0.0
H469 H 0.29317 0.27631 0.01096 0.0
C470 C 0.26832 0.22902 0.97192 0.0
C471 C 0.25229 0.2059 0.95172 0.0
C472 C 0.25231 0.25555 0.98536 0.0
C473 C 0.21999 0.20974 0.94505 0.0
C474 C 0.20389 0.23606 0.95838 0.0
C475 C 0.20374 0.28548 0.99231 0.0
C476 C 0.21972 0.30844 0.01279 0.0
C477 C 0.21981 0.25908 0.9786 0.0
C478 C 0.25209 0.30477 0.01913 0.0
C479 C 0.26824 0.27858 0.00554 0.0
H480 H 0.75398 0.73128 0.55324 0.0
H481 H 0.84086 0.7471 0.49585 0.0
H482 H 0.81758 0.79236 0.46511 0.0
H483 H 0.77217 0.82664 0.45341 0.0
H484 H 0.68525 0.81051 0.51065 0.0
H485 H 0.70905 0.76626 0.54261 0.0
C486 C 0.76788 0.74464 0.53407 0.0
C487 C 0.79908 0.73571 0.52679 0.0
C488 C 0.75435 0.7706 0.51642 0.0
C489 C 0.81676 0.75339 0.50194 0.0
C490 C 0.80347 0.7793 0.48431 0.0
C491 C 0.75846 0.81355 0.47298 0.0
C492 C 0.72695 0.82186 0.47951 0.0
C493 C 0.77223 0.788 0.49119 0.0
C494 C 0.70955 0.80462 0.50501 0.0
C495 C 0.72311 0.77927 0.52331 0.0
H496 H 0.27332 0.75987 0.03834 0.0
H497 H 0.27379 0.81532 0.94127 0.0
H498 H 0.23505 0.77951 0.9149 0.0
H499 H 0.20181 0.73207 0.91883 0.0
H500 H 0.20193 0.67576 0.01523 0.0
H501 H 0.23949 0.71252 0.0425 0.0
C502 C 0.26496 0.76415 0.01141 0.0
C503 C 0.27656 0.79024 0.99181 0.0
C504 C 0.2427 0.74339 0.99632 0.0
C505 C 0.2654 0.7954 0.95696 0.0
C506 C 0.24317 0.77496 0.94185 0.0
C507 C 0.20983 0.72791 0.94592 0.0
C508 C 0.19901 0.70118 0.96496 0.0
C509 C 0.23173 0.74886 0.96124 0.0
C510 C 0.20986 0.69612 -5e-05 0.0
C511 C 0.2314 0.7171 0.01555 0.0
H512 H 0.75625 0.19831 0.55506 0.0
H513 H 0.66568 0.24436 0.55341 0.0
H514 H 0.68792 0.28829 0.51898 0.0
H515 H 0.73327 0.31405 0.49017 0.0
H516 H 0.82382 0.26791 0.49214 0.0
H517 H 0.8013 0.22359 0.52552 0.0
C518 C 0.74133 0.21792 0.54716 0.0
C519 C 0.70937 0.21805 0.55691 0.0
C520 C 0.75426 0.24312 0.5274 0.0
C521 C 0.69039 0.24366 0.54635 0.0
C522 C 0.70308 0.26881 0.52664 0.0
C523 C 0.74807 0.29426 0.49779 0.0
C524 C 0.7802 0.29438 0.4887 0.0
C525 C 0.73501 0.26884 0.51713 0.0
C526 C 0.79902 0.2685 0.4988 0.0
C527 C 0.78618 0.24312 0.51794 0.0
H528 H 0.67978 0.74455 0.01962 0.0
H529 H 0.76516 0.79513 0.0462 0.0
H530 H 0.79614 0.75613 0.01351 0.0
H531 H 0.79921 0.70744 0.978 0.0
H532 H 0.71406 0.65654 0.95138 0.0
H533 H 0.68285 0.69596 0.9834 0.0
C534 C 0.70516 0.74707 0.01823 0.0
C535 C 0.72009 0.77273 0.03541 0.0
C536 C 0.72292 0.72451 -0.00062 0.0
C537 C 0.75301 0.77563 0.03328 0.0
C538 C 0.77079 0.75332 0.01458 0.0
C539 C 0.77382 0.70495 0.97911 0.0
C540 C 0.75903 0.67902 0.96234 0.0
C541 C 0.75601 0.72764 -0.00238 0.0
C542 C 0.72609 0.67624 0.96407 0.0
C543 C 0.70819 0.69877 0.9824 0.0
H544 H 0.30288 0.21116 0.50706 0.0
H545 H 0.21565 0.1604 0.52395 0.0
H546 H 0.1877 0.19961 0.48805 0.0
H547 H 0.18795 0.24856 0.45251 0.0
H548 H 0.27524 0.29933 0.43591 0.0
H549 H 0.30326 0.25965 0.47099 0.0
C550 C 0.27775 0.20863 0.50293 0.0
C551 C 0.26138 0.1829 0.51826 0.0
C552 C 0.26184 0.23121 0.48226 0.0
C553 C 0.22883 0.17998 0.51251 0.0
C554 C 0.21282 0.20239 0.49196 0.0
C555 C 0.21313 0.25092 0.45643 0.0
C556 C 0.22945 0.27692 0.44161 0.0
C557 C 0.22909 0.22812 0.47678 0.0
C558 C 0.26207 0.27958 0.44701 0.0
C559 C 0.27813 0.25692 0.46711 0.0
H560 H 0.72893 0.3015 0.05429 0.0
H561 H 0.81841 0.25395 0.04519 0.0
H562 H 0.79207 0.20634 0.02288 0.0
H563 H 0.74363 0.1781 0.00609 0.0
H564 H 0.65425 0.22589 0.01494 0.0
H565 H 0.68062 0.27344 0.03719 0.0
C566 C 0.74271 0.28074 0.04744 0.0
C567 C 0.7756 0.28134 0.05146 0.0
C568 C 0.72744 0.25343 0.03457 0.0
C569 C 0.79305 0.2542 0.04237 0.0
C570 C 0.77801 0.22692 0.02961 0.0
C571 C 0.7299 0.19889 0.01289 0.0
C572 C 0.697 0.19835 0.00887 0.0
C573 C 0.74521 0.22625 0.02563 0.0
C574 C 0.67961 0.22559 0.01776 0.0
C575 C 0.69466 0.25283 0.03051 0.0
H576 H 0.27429 0.68288 0.51348 0.0
H577 H 0.18322 0.6998 0.4664 0.0
H578 H 0.20392 0.7466 0.43571 0.0
H579 H 0.24772 0.78315 0.42285 0.0
H580 H 0.33858 0.7662 0.47053 0.0
H581 H 0.31802 0.71903 0.50035 0.0
C582 C 0.25895 0.69671 0.49642 0.0
C583 C 0.22726 0.68781 0.49228 0.0
C584 C 0.27093 0.72368 0.47901 0.0
C585 C 0.20773 0.7061 0.4701 0.0
C586 C 0.21953 0.7329 0.45254 0.0
C587 C 0.26304 0.76914 0.43974 0.0
C588 C 0.29463 0.77828 0.44444 0.0
C589 C 0.25107 0.74199 0.45692 0.0
C590 C 0.31414 0.75979 0.46643 0.0
C591 C 0.30243 0.73277 0.48352 0.0
H592 H 0.16886 0.56468 0.94755 0.0
H593 H 0.1365 0.52785 0.84635 0.0
H594 H 0.13777 0.47396 0.87013 0.0
H595 H 0.1447 0.43765 0.9207 0.0
H596 H 0.17593 0.47457 0.02231 0.0
H597 H 0.17863 0.52797 0.99719 0.0
C598 C 0.16238 0.54486 0.93056 0.0
C599 C 0.15238 0.55037 0.89529 0.0
C600 C 0.16277 0.51391 0.94452 0.0
C601 C 0.14412 0.52436 0.87366 0.0
C602 C 0.14479 0.49349 0.88724 0.0
C603 C 0.15234 0.45731 0.93731 0.0
C604 C 0.15986 0.4521 0.97341 0.0
C605 C 0.15354 0.48805 0.92281 0.0
C606 C 0.16984 0.47788 0.99447 0.0
C607 C 0.17137 0.50848 0.98015 0.0
H608 H 0.83335 0.53306 0.56985 0.0
H609 H 0.83949 0.59353 0.477 0.0
H610 H 0.83479 0.54735 0.43796 0.0
H611 H 0.8336 0.48937 0.43024 0.0
H612 H 0.82577 0.42905 0.52309 0.0
H613 H 0.82609 0.47555 0.56194 0.0
C614 C 0.83333 0.53613 0.54107 0.0
C615 C 0.83716 0.56661 0.52638 0.0
C616 C 0.83045 0.50948 0.51873 0.0
C617 C 0.83664 0.57031 0.48903 0.0
C618 C 0.83408 0.54389 0.46665 0.0
C619 C 0.8316 0.48644 0.45895 0.0
C620 C 0.83008 0.45578 0.47372 0.0
C621 C 0.83169 0.5133 0.4812 0.0
C622 C 0.82706 0.45238 0.51097 0.0
C623 C 0.82739 0.47896 0.53327 0.0
H624 H 0.82004 0.4202 0.0036 0.0
H625 H 0.83615 0.47756 0.09748 0.0
H626 H 0.8326 0.52571 0.06149 0.0
H627 H 0.82776 0.55141 0.0031 0.0
H628 H 0.81301 0.49422 0.90881 0.0
H629 H 0.8131 0.44614 0.94533 0.0
C630 C 0.82245 0.44324 0.01627 0.0
C631 C 0.82846 0.44524 0.05319 0.0
C632 C 0.82084 0.47087 0.99533 0.0
C633 C 0.83164 0.4753 0.06911 0.0
C634 C 0.82966 0.50288 0.04855 0.0
C635 C 0.82439 0.52846 0.99049 0.0
C636 C 0.82056 0.52646 0.95321 0.0
C637 C 0.82474 0.50092 0.01157 0.0
C638 C 0.81612 0.49649 0.93742 0.0
C639 C 0.81618 0.46896 0.95829 0.0
H640 H 0.16501 0.40942 0.47538 0.0
H641 H 0.21153 0.45286 0.38505 0.0
H642 H 0.21195 0.50398 0.41595 0.0
H643 H 0.1971 0.53676 0.46768 0.0
H644 H 0.15158 0.49269 0.55832 0.0
H645 H 0.1529 0.44138 0.52821 0.0
C646 C 0.17536 0.43004 0.46248 0.0
C647 C 0.18801 0.42739 0.42788 0.0
C648 C 0.17563 0.45927 0.4804 0.0
C649 C 0.20162 0.45426 0.41169 0.0
C650 C 0.20179 0.48352 0.42929 0.0
C651 C 0.18758 0.51591 0.48088 0.0
C652 C 0.17407 0.51861 0.51508 0.0
C653 C 0.18854 0.48638 0.46349 0.0
C654 C 0.1621 0.49131 0.53199 0.0
C655 C 0.16277 0.46194 0.51477 0.0
H656 H 0.68006 0.01346 0.97976 0.0
H657 H 0.62253 0.06052 0.05872 0.0
H658 H 0.61775 0.01113 0.0923 0.0
H659 H 0.62719 0.95396 0.09745 0.0
H660 H 0.68418 0.9066 0.01825 0.0
H661 H 0.69193 0.95677 0.98672 0.0
C662 C 0.66671 0.01301 0.00448 0.0
C663 C 0.6515 0.04065 0.01651 0.0
C664 C 0.66377 0.98442 0.02354 0.0
C665 C 0.63438 0.0396 0.04869 0.0
C666 C 0.63156 0.01133 0.06792 0.0
C667 C 0.64146 0.9546 0.0734 0.0
C668 C 0.65484 0.92648 0.0601 0.0
C669 C 0.6457 0.98348 0.05528 0.0
C670 C 0.67346 0.92784 0.02902 0.0
C671 C 0.67789 0.95653 0.01093 0.0
H672 H 0.32253 0.94391 0.46449 0.0
H673 H 0.42293 0.93699 0.47954 0.0
H674 H 0.42216 0.9832 0.51862 0.0
H675 H 0.39376 0.02694 0.54617 0.0
H676 H 0.29404 0.03706 0.5285 0.0
H677 H 0.29365 0.98815 0.49303 0.0
C678 C 0.34413 0.95246 0.47658 0.0
C679 C 0.37274 0.93715 0.4691 0.0
C680 C 0.34366 0.97961 0.49848 0.0
C681 C 0.40064 0.94854 0.48466 0.0
C682 C 0.40023 0.97491 0.5071 0.0
C683 C 0.37184 0.0183 0.53492 0.0
C684 C 0.34397 0.03552 0.54002 0.0
C685 C 0.37198 0.99082 0.51386 0.0
C686 C 0.31583 0.0242 0.52489 0.0
C687 C 0.31561 0.99628 0.50459 0.0
H688 H 0.279 0.95304 0.03257 0.0
H689 H 0.36698 0.91585 0.99303 0.0
H690 H 0.37686 0.96505 0.96068 0.0
H691 H 0.36122 0.01883 0.9443 0.0
H692 H 0.27413 0.05723 0.9847 0.0
H693 H 0.26324 0.00737 0.01594 0.0
C694 C 0.30025 0.95567 0.01676 0.0
C695 C 0.32219 0.93077 0.01528 0.0
C696 C 0.30602 0.98426 -0.0016 0.0
C697 C 0.34972 0.93464 0.99479 0.0
C698 C 0.35541 0.96278 0.97621 0.0
C699 C 0.33977 0.01631 0.95981 0.0
C700 C 0.31852 0.04171 0.96209 0.0
C701 C 0.33382 0.98777 0.97795 0.0
C702 C 0.29093 0.03805 0.98251 0.0
C703 C 0.28467 0.00954 0.00038 0.0
H704 H 0.64738 0.07279 0.54407 0.0
H705 H 0.72649 0.05099 0.61186 0.0
H706 H 0.73358 0.00046 0.5809 0.0
H707 H 0.71665 0.96199 0.53536 0.0
H708 H 0.63745 0.98408 0.46777 0.0
H709 H 0.63121 0.03501 0.49786 0.0
C710 C 0.66622 0.05704 0.55209 0.0
C711 C 0.6863 0.06567 0.58035 0.0
C712 C 0.67017 0.02804 0.53421 0.0
C713 C 0.71065 0.04496 0.59025 0.0
C714 C 0.71472 0.01603 0.57256 0.0
C715 C 0.69809 0.97797 0.52711 0.0
C716 C 0.67752 0.96912 0.49938 0.0
C717 C 0.69453 0.00726 0.54461 0.0
C718 C 0.65362 0.9902 0.48903 0.0
C719 C 0.64999 0.01936 0.50626 0.0
loop_
_geom_bond_atom_site_label_1
_geom_bond_atom_site_label_2
_geom_bond_distance
_geom_bond_site_symmetry_2
_ccdc_geom_bond_type
C0 O1 1.160 . S
C0 O7 1.185 . S
O1 C0 1.160 . S
O2 Zn3 1.899 . S
O2 C10 1.284 . S
Zn3 O2 1.899 . S
Zn3 O4 2.032 . S
Zn3 O7 2.086 . S
Zn3 O12 1.977 . S
O4 Zn3 2.032 . S
O4 C8 1.278 . S
C5 O6 1.203 . S
C5 O12 1.267 . S
O6 C5 1.203 . S
O7 C0 1.185 . S
O7 Zn3 2.086 . S
C8 O4 1.278 . S
C8 O9 1.211 . S
O9 C8 1.211 . S
C10 O2 1.284 . S
C10 O11 1.273 . S
O11 C10 1.273 . S
O12 Zn3 1.977 . S
O12 C5 1.267 . S
C13 O14 1.160 . S
C13 O20 1.185 . S
O14 C13 1.160 . S
O15 Zn16 1.899 . S
O15 C23 1.284 . S
Zn16 O15 1.899 . S
Zn16 O17 2.032 . S
Zn16 O20 2.086 . S
Zn16 O25 1.977 . S
O17 Zn16 2.032 . S
O17 C21 1.278 . S
C18 O19 1.203 . S
C18 O25 1.267 . S
O19 C18 1.203 . S
O20 C13 1.185 . S
O20 Zn16 2.086 . S
C21 O17 1.278 . S
C21 O22 1.211 . S
O22 C21 1.211 . S
C23 O15 1.284 . S
C23 O24 1.273 . S
O24 C23 1.273 . S
O25 Zn16 1.977 . S
O25 C18 1.267 . S
C26 O27 1.160 . S
C26 O33 1.185 . S
O27 C26 1.160 . S
O28 Zn29 1.899 . S
O28 C36 1.284 . S
Zn29 O28 1.899 . S
Zn29 O30 2.032 . S
Zn29 O33 2.086 . S
Zn29 O38 1.977 . S
O30 Zn29 2.032 . S
O30 C34 1.278 . S
C31 O32 1.203 . S
C31 O38 1.267 . S
O32 C31 1.203 . S
O33 C26 1.185 . S
O33 Zn29 2.086 . S
C34 O30 1.278 . S
C34 O35 1.211 . S
O35 C34 1.211 . S
C36 O28 1.284 . S
C36 O37 1.273 . S
O37 C36 1.273 . S
O38 Zn29 1.977 . S
O38 C31 1.267 . S
C39 O40 1.160 . S
C39 O46 1.185 . S
O40 C39 1.160 . S
O41 Zn42 1.899 . S
O41 C49 1.284 . S
Zn42 O41 1.899 . S
Zn42 O43 2.032 . S
Zn42 O46 2.086 . S
Zn42 O51 1.977 . S
O43 Zn42 2.032 . S
O43 C47 1.278 . S
C44 O45 1.203 . S
C44 O51 1.267 . S
O45 C44 1.203 . S
O46 C39 1.185 . S
O46 Zn42 2.086 . S
C47 O43 1.278 . S
C47 O48 1.211 . S
O48 C47 1.211 . S
C49 O41 1.284 . S
C49 O50 1.273 . S
O50 C49 1.273 . S
O51 Zn42 1.977 . S
O51 C44 1.267 . S
C52 O53 1.160 . S
C52 O59 1.185 . S
O53 C52 1.160 . S
O54 Zn55 1.899 . S
O54 C62 1.284 . S
Zn55 O54 1.899 . S
Zn55 O56 2.032 . S
Zn55 O59 2.086 . S
Zn55 O64 1.977 . S
O56 Zn55 2.032 . S
O56 C60 1.278 . S
C57 O58 1.203 . S
C57 O64 1.267 . S
O58 C57 1.203 . S
O59 C52 1.185 . S
O59 Zn55 2.086 . S
C60 O56 1.278 . S
C60 O61 1.211 . S
O61 C60 1.211 . S
C62 O54 1.284 . S
C62 O63 1.273 . S
O63 C62 1.273 . S
O64 Zn55 1.977 . S
O64 C57 1.267 . S
C65 O66 1.160 . S
C65 O72 1.185 . S
O66 C65 1.160 . S
O67 Zn68 1.899 . S
O67 C75 1.284 . S
Zn68 O67 1.899 . S
Zn68 O69 2.032 . S
Zn68 O72 2.086 . S
Zn68 O77 1.977 . S
O69 Zn68 2.032 . S
O69 C73 1.278 . S
C70 O71 1.203 . S
C70 O77 1.267 . S
O71 C70 1.203 . S
O72 C65 1.185 . S
O72 Zn68 2.086 . S
C73 O69 1.278 . S
C73 O74 1.211 . S
O74 C73 1.211 . S
C75 O67 1.284 . S
C75 O76 1.273 . S
O76 C75 1.273 . S
O77 Zn68 1.977 . S
O77 C70 1.267 . S
C78 O79 1.160 . S
C78 O85 1.185 . S
O79 C78 1.160 . S
O80 Zn81 1.899 . S
O80 C88 1.284 . S
Zn81 O80 1.899 . S
Zn81 O82 2.032 . S
Zn81 O85 2.086 . S
Zn81 O90 1.977 . S
O82 Zn81 2.032 . S
O82 C86 1.278 . S
C83 O84 1.203 . S
C83 O90 1.267 . S
O84 C83 1.203 . S
O85 C78 1.185 . S
O85 Zn81 2.086 . S
C86 O82 1.278 . S
C86 O87 1.211 . S
O87 C86 1.211 . S
C88 O80 1.284 . S
C88 O89 1.273 . S
O89 C88 1.273 . S
O90 Zn81 1.977 . S
O90 C83 1.267 . S
C91 O92 1.160 . S
C91 O98 1.185 . S
O92 C91 1.160 . S
O93 Zn94 1.899 . S
O93 C101 1.284 . S
Zn94 O93 1.899 . S
Zn94 O95 2.032 . S
Zn94 O98 2.086 . S
Zn94 O103 1.977 . S
O95 Zn94 2.032 . S
O95 C99 1.278 . S
C96 O97 1.203 . S
C96 O103 1.267 . S
O97 C96 1.203 . S
O98 C91 1.185 . S
O98 Zn94 2.086 . S
C99 O95 1.278 . S
C99 O100 1.211 . S
O100 C99 1.211 . S
C101 O93 1.284 . S
C101 O102 1.273 . S
O102 C101 1.273 . S
O103 Zn94 1.977 . S
O103 C96 1.267 . S
C104 O105 1.160 . S
C104 O111 1.185 . S
O105 C104 1.160 . S
O106 Zn107 1.899 . S
O106 C114 1.284 . S
Zn107 O106 1.899 . S
Zn107 O108 2.032 . S
Zn107 O111 2.086 . S
Zn107 O116 1.977 . S
O108 Zn107 2.032 . S
O108 C112 1.278 . S
C109 O110 1.203 . S
C109 O116 1.267 . S
O110 C109 1.203 . S
O111 C104 1.185 . S
O111 Zn107 2.086 . S
C112 O108 1.278 . S
C112 O113 1.211 . S
O113 C112 1.211 . S
C114 O106 1.284 . S
C114 O115 1.273 . S
O115 C114 1.273 . S
O116 Zn107 1.977 . S
O116 C109 1.267 . S
C117 O118 1.160 . S
C117 O124 1.185 . S
O118 C117 1.160 . S
O119 Zn120 1.899 . S
O119 C127 1.284 . S
Zn120 O119 1.899 . S
Zn120 O121 2.032 . S
Zn120 O124 2.086 . S
Zn120 O129 1.977 . S
O121 Zn120 2.032 . S
O121 C125 1.278 . S
C122 O123 1.203 . S
C122 O129 1.267 . S
O123 C122 1.203 . S
O124 C117 1.185 . S
O124 Zn120 2.086 . S
C125 O121 1.278 . S
C125 O126 1.211 . S
O126 C125 1.211 . S
C127 O119 1.284 . S
C127 O128 1.273 . S
O128 C127 1.273 . S
O129 Zn120 1.977 . S
O129 C122 1.267 . S
C130 O131 1.160 . S
C130 O137 1.185 . S
O131 C130 1.160 . S
O132 Zn133 1.899 . S
O132 C140 1.284 . S
Zn133 O132 1.899 . S
Zn133 O134 2.032 . S
Zn133 O137 2.086 . S
Zn133 O142 1.977 . S
O134 Zn133 2.032 . S
O134 C138 1.278 . S
C135 O136 1.203 . S
C135 O142 1.267 . S
O136 C135 1.203 . S
O137 C130 1.185 . S
O137 Zn133 2.086 . S
C138 O134 1.278 . S
C138 O139 1.211 . S
O139 C138 1.211 . S
C140 O132 1.284 . S
C140 O141 1.273 . S
O141 C140 1.273 . S
O142 Zn133 1.977 . S
O142 C135 1.267 . S
C143 O144 1.160 . S
C143 O150 1.185 . S
O144 C143 1.160 . S
O145 Zn146 1.899 . S
O145 C153 1.284 . S
Zn146 O145 1.899 . S
Zn146 O147 2.032 . S
Zn146 O150 2.086 . S
Zn146 O155 1.977 . S
O147 Zn146 2.032 . S
O147 C151 1.278 . S
C148 O149 1.203 . S
C148 O155 1.267 . S
O149 C148 1.203 . S
O150 C143 1.185 . S
O150 Zn146 2.086 . S
C151 O147 1.278 . S
C151 O152 1.211 . S
O152 C151 1.211 . S
C153 O145 1.284 . S
C153 O154 1.273 . S
O154 C153 1.273 . S
O155 Zn146 1.977 . S
O155 C148 1.267 . S
C156 O157 1.160 . S
C156 O163 1.185 . S
O157 C156 1.160 . S
O158 Zn159 1.899 . S
O158 C166 1.284 . S
Zn159 O158 1.899 . S
Zn159 O160 2.032 . S
Zn159 O163 2.086 . S
Zn159 O168 1.977 . S
O160 Zn159 2.032 . S
O160 C164 1.278 . S
C161 O162 1.203 . S
C161 O168 1.267 . S
O162 C161 1.203 . S
O163 C156 1.185 . S
O163 Zn159 2.086 . S
C164 O160 1.278 . S
C164 O165 1.211 . S
O165 C164 1.211 . S
C166 O158 1.284 . S
C166 O167 1.273 . S
O167 C166 1.273 . S
O168 Zn159 1.977 . S
O168 C161 1.267 . S
C169 O170 1.160 . S
C169 O176 1.185 . S
O170 C169 1.160 . S
O171 Zn172 1.899 . S
O171 C179 1.284 . S
Zn172 O171 1.899 . S
Zn172 O173 2.032 . S
Zn172 O176 2.086 . S
Zn172 O181 1.977 . S
O173 Zn172 2.032 . S
O173 C177 1.278 . S
C174 O175 1.203 . S
C174 O181 1.267 . S
O175 C174 1.203 . S
O176 C169 1.185 . S
O176 Zn172 2.086 . S
C177 O173 1.278 . S
C177 O178 1.211 . S
O178 C177 1.211 . S
C179 O171 1.284 . S
C179 O180 1.273 . S
O180 C179 1.273 . S
O181 Zn172 1.977 . S
O181 C174 1.267 . S
C182 O183 1.160 . S
C182 O189 1.185 . S
O183 C182 1.160 . S
O184 Zn185 1.899 . S
O184 C192 1.284 . S
Zn185 O184 1.899 . S
Zn185 O186 2.032 . S
Zn185 O189 2.086 . S
Zn185 O194 1.977 . S
O186 Zn185 2.032 . S
O186 C190 1.278 . S
C187 O188 1.203 . S
C187 O194 1.267 . S
O188 C187 1.203 . S
O189 C182 1.185 . S
O189 Zn185 2.086 . S
C190 O186 1.278 . S
C190 O191 1.211 . S
O191 C190 1.211 . S
C192 O184 1.284 . S
C192 O193 1.273 . S
O193 C192 1.273 . S
O194 Zn185 1.977 . S
O194 C187 1.267 . S
C195 O196 1.160 . S
C195 O202 1.185 . S
O196 C195 1.160 . S
O197 Zn198 1.899 . S
O197 C205 1.284 . S
Zn198 O197 1.899 . S
Zn198 O199 2.032 . S
Zn198 O202 2.086 . S
Zn198 O207 1.977 . S
O199 Zn198 2.032 . S
O199 C203 1.278 . S
C200 O201 1.203 . S
C200 O207 1.267 . S
O201 C200 1.203 . S
O202 C195 1.185 . S
O202 Zn198 2.086 . S
C203 O199 1.278 . S
C203 O204 1.211 . S
O204 C203 1.211 . S
C205 O197 1.284 . S
C205 O206 1.273 . S
O206 C205 1.273 . S
O207 Zn198 1.977 . S
O207 C200 1.267 . S
H208 C214 0.930 . S
H209 C217 0.930 . S
H210 C218 0.930 . S
H211 C219 0.930 . S
H212 C222 0.930 . S
H213 C223 0.919 1_455 S
C214 H208 0.930 . S
C214 C215 1.355 . S
C214 C216 1.415 . S
C215 C214 1.355 . S
C215 C217 1.419 . S
C216 C214 1.415 . S
C216 C221 1.425 . S
C216 C223 1.409 1_455 S
C217 H209 0.930 . S
C217 C215 1.419 . S
C217 C218 1.362 . S
C218 H210 0.930 . S
C218 C217 1.362 . S
C218 C221 1.409 . S
C219 H211 0.930 . S
C219 C220 1.355 . S
C219 C221 1.415 1_655 S
C220 C219 1.355 . S
C220 C222 1.419 . S
C221 C216 1.425 . S
C221 C218 1.409 . S
C221 C219 1.415 1_455 S
C222 H212 0.930 . S
C222 C220 1.419 . S
C222 C223 1.362 . S
C223 H213 0.919 1_655 S
C223 C216 1.409 1_655 S
C223 C222 1.362 . S
H224 C230 0.930 . S
H225 C233 0.930 . S
H226 C234 0.930 . S
H227 C235 0.930 . S
H228 C238 0.930 . S
H229 C239 0.930 1_655 S
C230 H224 0.930 . S
C230 C231 1.355 . S
C230 C232 1.415 . S
C231 C230 1.355 . S
C231 C233 1.419 . S
C232 C230 1.415 . S
C232 C237 1.425 . S
C232 C239 1.409 1_655 S
C233 H225 0.930 . S
C233 C231 1.419 . S
C233 C234 1.362 . S
C234 H226 0.930 . S
C234 C233 1.362 . S
C234 C237 1.409 . S
C235 H227 0.930 . S
C235 C236 1.355 . S
C235 C237 1.415 1_455 S
C236 C235 1.355 . S
C236 C238 1.419 . S
C237 C232 1.425 . S
C237 C234 1.409 . S
C237 C235 1.415 1_655 S
C238 H228 0.930 . S
C238 C236 1.419 . S
C238 C239 1.362 . S
C239 H229 0.930 1_455 S
C239 C232 1.409 1_455 S
C239 C238 1.362 . S
H240 C246 0.930 . S
H241 C249 0.930 . S
H242 C250 0.930 1_455 S
H243 C251 0.930 . S
H244 C254 0.930 . S
H245 C255 0.930 . S
C246 H240 0.930 . S
C246 C247 1.355 . S
C246 C248 1.415 1_655 S
C247 C246 1.355 . S
C247 C249 1.419 . S
C248 C246 1.415 1_455 S
C248 C253 1.425 . S
C248 C255 1.409 . S
C249 H241 0.930 . S
C249 C247 1.419 . S
C249 C250 1.362 . S
C250 H242 0.930 1_655 S
C250 C249 1.362 . S
C250 C253 1.409 1_655 S
C251 H243 0.930 . S
C251 C252 1.355 . S
C251 C253 1.415 . S
C252 C251 1.355 . S
C252 C254 1.419 . S
C253 C248 1.425 . S
C253 C250 1.409 1_455 S
C253 C251 1.415 . S
C254 H244 0.930 . S
C254 C252 1.419 . S
C254 C255 1.362 . S
C255 H245 0.930 . S
C255 C248 1.409 . S
C255 C254 1.362 . S
H256 C262 0.930 . S
H257 C265 0.930 . S
H258 C266 0.919 1_655 S
H259 C267 0.930 . S
H260 C270 0.930 . S
H261 C271 0.930 . S
C262 H256 0.930 . S
C262 C263 1.355 . S
C262 C264 1.415 1_455 S
C263 C262 1.355 . S
C263 C265 1.419 . S
C264 C262 1.415 1_655 S
C264 C269 1.425 . S
C264 C271 1.409 . S
C265 H257 0.930 . S
C265 C263 1.419 . S
C265 C266 1.362 . S
C266 H258 0.919 1_455 S
C266 C265 1.362 . S
C266 C269 1.409 1_455 S
C267 H259 0.930 . S
C267 C268 1.355 . S
C267 C269 1.415 . S
C268 C267 1.355 . S
C268 C270 1.419 . S
C269 C264 1.425 . S
C269 C266 1.409 1_655 S
C269 C267 1.415 . S
C270 H260 0.930 . S
C270 C268 1.419 . S
C270 C271 1.362 . S
C271 H261 0.930 . S
C271 C264 1.409 . S
C271 C270 1.362 . S
H272 C278 0.930 . S
H273 C281 0.930 . S
H274 C282 0.930 . S
H275 C283 0.930 . S
H276 C286 0.930 . S
H277 C287 0.930 . S
C278 H272 0.930 . S
C278 C279 1.355 . S
C278 C280 1.415 . S
C279 C278 1.355 . S
C279 C281 1.419 . S
C280 C278 1.415 . S
C280 C285 1.425 . S
C280 C287 1.409 . S
C281 H273 0.930 . S
C281 C279 1.419 . S
C281 C282 1.362 . S
C282 H274 0.930 . S
C282 C281 1.362 . S
C282 C285 1.409 . S
C283 H275 0.930 . S
C283 C284 1.355 . S
C283 C285 1.415 . S
C284 C283 1.355 . S
C284 C286 1.419 . S
C285 C280 1.425 . S
C285 C282 1.409 . S
C285 C283 1.415 . S
C286 H276 0.930 . S
C286 C284 1.419 . S
C286 C287 1.362 . S
C287 H277 0.930 . S
C287 C280 1.409 . S
C287 C286 1.362 . S
H288 C294 0.930 . S
H289 C297 0.930 . S
H290 C298 0.930 . S
H291 C299 0.930 . S
H292 C302 0.930 . S
H293 C303 0.930 . S
C294 H288 0.930 . S
C294 C295 1.355 . S
C294 C296 1.415 . S
C295 C294 1.355 . S
C295 C297 1.419 . S
C296 C294 1.415 . S
C296 C301 1.425 . S
C296 C303 1.409 . S
C297 H289 0.930 . S
C297 C295 1.419 . S
C297 C298 1.362 . S
C298 H290 0.930 . S
C298 C297 1.362 . S
C298 C301 1.409 . S
C299 H291 0.930 . S
C299 C300 1.355 . S
C299 C301 1.415 . S
C300 C299 1.355 . S
C300 C302 1.419 . S
C301 C296 1.425 . S
C301 C298 1.409 . S
C301 C299 1.415 . S
C302 H292 0.930 . S
C302 C300 1.419 . S
C302 C303 1.362 . S
C303 H293 0.930 . S
C303 C296 1.409 . S
C303 C302 1.362 . S
H304 C310 0.930 . S
H305 C313 0.930 . S
H306 C314 0.930 . S
H307 C315 0.930 . S
H308 C318 0.930 . S
H309 C319 0.930 . S
C310 H304 0.930 . S
C310 C311 1.355 . S
C310 C312 1.415 . S
C311 C310 1.355 . S
C311 C313 1.419 . S
C312 C310 1.415 . S
C312 C317 1.425 . S
C312 C319 1.409 . S
C313 H305 0.930 . S
C313 C311 1.419 . S
C313 C314 1.362 . S
C314 H306 0.930 . S
C314 C313 1.362 . S
C314 C317 1.409 . S
C315 H307 0.930 . S
C315 C316 1.355 . S
C315 C317 1.415 . S
C316 C315 1.355 . S
C316 C318 1.419 . S
C317 C312 1.425 . S
C317 C314 1.409 . S
C317 C315 1.415 . S
C318 H308 0.930 . S
C318 C316 1.419 . S
C318 C319 1.362 . S
C319 H309 0.930 . S
C319 C312 1.409 . S
C319 C318 1.362 . S
H320 C326 0.930 . S
H321 C329 0.930 . S
H322 C330 0.930 . S
H323 C331 0.930 . S
H324 C334 0.930 . S
H325 C335 0.930 . S
C326 H320 0.930 . S
C326 C327 1.355 . S
C326 C328 1.415 . S
C327 C326 1.355 . S
C327 C329 1.419 . S
C328 C326 1.415 . S
C328 C333 1.425 . S
C328 C335 1.409 . S
C329 H321 0.930 . S
C329 C327 1.419 . S
C329 C330 1.362 . S
C330 H322 0.930 . S
C330 C329 1.362 . S
C330 C333 1.409 . S
C331 H323 0.930 . S
C331 C332 1.355 . S
C331 C333 1.415 . S
C332 C331 1.355 . S
C332 C334 1.419 . S
C333 C328 1.425 . S
C333 C330 1.409 . S
C333 C331 1.415 . S
C334 H324 0.930 . S
C334 C332 1.419 . S
C334 C335 1.362 . S
C335 H325 0.930 . S
C335 C328 1.409 . S
C335 C334 1.362 . S
H336 C342 0.930 . S
H337 C345 0.930 . S
H338 C346 0.930 . S
H339 C347 0.930 . S
H340 C350 0.930 . S
H341 C351 0.930 . S
C342 H336 0.930 . S
C342 C343 1.355 . S
C342 C344 1.415 . S
C343 C342 1.355 . S
C343 C345 1.419 . S
C344 C342 1.415 . S
C344 C349 1.425 . S
C344 C351 1.409 . S
C345 H337 0.930 . S
C345 C343 1.419 . S
C345 C346 1.362 . S
C346 H338 0.930 . S
C346 C345 1.362 . S
C346 C349 1.409 . S
C347 H339 0.930 . S
C347 C348 1.355 . S
C347 C349 1.415 . S
C348 C347 1.355 . S
C348 C350 1.419 . S
C349 C344 1.425 . S
C349 C346 1.409 . S
C349 C347 1.415 . S
C350 H340 0.930 . S
C350 C348 1.419 . S
C350 C351 1.362 . S
C351 H341 0.930 . S
C351 C344 1.409 . S
C351 C350 1.362 . S
H352 C358 0.930 . S
H353 C361 0.930 . S
H354 C362 0.930 . S
H355 C363 0.930 . S
H356 C366 0.930 . S
H357 C367 0.930 . S
C358 H352 0.930 . S
C358 C359 1.355 . S
C358 C360 1.415 . S
C359 C358 1.355 . S
C359 C361 1.419 . S
C360 C358 1.415 . S
C360 C365 1.425 . S
C360 C367 1.409 . S
C361 H353 0.930 . S
C361 C359 1.419 . S
C361 C362 1.362 . S
C362 H354 0.930 . S
C362 C361 1.362 . S
C362 C365 1.409 . S
C363 H355 0.930 . S
C363 C364 1.355 . S
C363 C365 1.415 . S
C364 C363 1.355 . S
C364 C366 1.419 . S
C365 C360 1.425 . S
C365 C362 1.409 . S
C365 C363 1.415 . S
C366 H356 0.930 . S
C366 C364 1.419 . S
C366 C367 1.362 . S
C367 H357 0.930 . S
C367 C360 1.409 . S
C367 C366 1.362 . S
H368 C374 0.930 . S
H369 C377 0.930 . S
H370 C378 0.930 . S
H371 C379 0.930 . S
H372 C382 0.930 . S
H373 C383 0.930 . S
C374 H368 0.930 . S
C374 C375 1.355 . S
C374 C376 1.415 . S
C375 C374 1.355 . S
C375 C377 1.419 . S
C376 C374 1.415 . S
C376 C381 1.425 . S
C376 C383 1.409 . S
C377 H369 0.930 . S
C377 C375 1.419 . S
C377 C378 1.362 . S
C378 H370 0.930 . S
C378 C377 1.362 . S
C378 C381 1.409 . S
C379 H371 0.930 . S
C379 C380 1.355 . S
C379 C381 1.415 . S
C380 C379 1.355 . S
C380 C382 1.419 . S
C381 C376 1.425 . S
C381 C378 1.409 . S
C381 C379 1.415 . S
C382 H372 0.930 . S
C382 C380 1.419 . S
C382 C383 1.362 . S
C383 H373 0.930 . S
C383 C376 1.409 . S
C383 C382 1.362 . S
H384 C390 0.930 . S
H385 C393 0.930 . S
H386 C394 0.930 . S
H387 C395 0.930 . S
H388 C398 0.930 . S
H389 C399 0.930 . S
C390 H384 0.930 . S
C390 C391 1.355 . S
C390 C392 1.415 . S
C391 C390 1.355 . S
C391 C393 1.419 . S
C392 C390 1.415 . S
C392 C397 1.425 . S
C392 C399 1.409 . S
C393 H385 0.930 . S
C393 C391 1.419 . S
C393 C394 1.362 . S
C394 H386 0.930 . S
C394 C393 1.362 . S
C394 C397 1.409 . S
C395 H387 0.930 . S
C395 C396 1.355 . S
C395 C397 1.415 . S
C396 C395 1.355 . S
C396 C398 1.419 . S
C397 C392 1.425 . S
C397 C394 1.409 . S
C397 C395 1.415 . S
C398 H388 0.930 . S
C398 C396 1.419 . S
C398 C399 1.362 . S
C399 H389 0.930 . S
C399 C392 1.409 . S
C399 C398 1.362 . S
H400 C406 0.930 . S
H401 C409 0.930 . S
H402 C410 0.930 . S
H403 C411 0.930 . S
H404 C414 0.930 . S
H405 C415 0.930 . S
C406 H400 0.930 . S
C406 C407 1.355 . S
C406 C408 1.415 . S
C407 C406 1.355 . S
C407 C409 1.419 . S
C408 C406 1.415 . S
C408 C413 1.425 . S
C408 C415 1.409 . S
C409 H401 0.930 . S
C409 C407 1.419 . S
C409 C410 1.362 . S
C410 H402 0.930 . S
C410 C409 1.362 . S
C410 C413 1.409 . S
C411 H403 0.930 . S
C411 C412 1.355 . S
C411 C413 1.415 . S
C412 C411 1.355 . S
C412 C414 1.419 . S
C413 C408 1.425 . S
C413 C410 1.409 . S
C413 C411 1.415 . S
C414 H404 0.930 . S
C414 C412 1.419 . S
C414 C415 1.362 . S
C415 H405 0.930 . S
C415 C408 1.409 . S
C415 C414 1.362 . S
H416 C422 0.930 . S
H417 C425 0.930 . S
H418 C426 0.930 . S
H419 C427 0.930 . S
H420 C430 0.930 . S
H421 C431 0.930 . S
C422 H416 0.930 . S
C422 C423 1.355 . S
C422 C424 1.415 . S
C423 C422 1.355 . S
C423 C425 1.419 . S
C424 C422 1.415 . S
C424 C429 1.425 . S
C424 C431 1.409 . S
C425 H417 0.930 . S
C425 C423 1.419 . S
C425 C426 1.362 . S
C426 H418 0.930 . S
C426 C425 1.362 . S
C426 C429 1.409 . S
C427 H419 0.930 . S
C427 C428 1.355 . S
C427 C429 1.415 . S
C428 C427 1.355 . S
C428 C430 1.419 . S
C429 C424 1.425 . S
C429 C426 1.409 . S
C429 C427 1.415 . S
C430 H420 0.930 . S
C430 C428 1.419 . S
C430 C431 1.362 . S
C431 H421 0.930 . S
C431 C424 1.409 . S
C431 C430 1.362 . S
H432 C438 0.930 . S
H433 C441 0.930 . S
H434 C442 0.930 . S
H435 C443 0.930 . S
H436 C446 0.930 . S
H437 C447 0.930 . S
C438 H432 0.930 . S
C438 C439 1.355 . S
C438 C440 1.415 . S
C439 C438 1.355 . S
C439 C441 1.419 . S
C440 C438 1.415 . S
C440 C445 1.425 . S
C440 C447 1.409 . S
C441 H433 0.930 . S
C441 C439 1.419 . S
C441 C442 1.362 . S
C442 H434 0.930 . S
C442 C441 1.362 . S
C442 C445 1.409 . S
C443 H435 0.930 . S
C443 C444 1.355 . S
C443 C445 1.415 . S
C444 C443 1.355 . S
C444 C446 1.419 . S
C445 C440 1.425 . S
C445 C442 1.409 . S
C445 C443 1.415 . S
C446 H436 0.930 . S
C446 C444 1.419 . S
C446 C447 1.362 . S
C447 H437 0.930 . S
C447 C440 1.409 . S
C447 C446 1.362 . S
H448 C454 0.930 . S
H449 C457 0.930 . S
H450 C458 0.930 . S
H451 C459 0.930 . S
H452 C462 0.930 . S
H453 C463 0.930 . S
C454 H448 0.930 . S
C454 C455 1.355 . S
C454 C456 1.415 . S
C455 C454 1.355 . S
C455 C457 1.419 . S
C456 C454 1.415 . S
C456 C461 1.425 . S
C456 C463 1.409 . S
C457 H449 0.930 . S
C457 C455 1.419 . S
C457 C458 1.362 . S
C458 H450 0.930 . S
C458 C457 1.362 . S
C458 C461 1.409 . S
C459 H451 0.930 . S
C459 C460 1.355 . S
C459 C461 1.415 . S
C460 C459 1.355 . S
C460 C462 1.419 . S
C461 C456 1.425 . S
C461 C458 1.409 . S
C461 C459 1.415 . S
C462 H452 0.930 . S
C462 C460 1.419 . S
C462 C463 1.362 . S
C463 H453 0.930 . S
C463 C456 1.409 . S
C463 C462 1.362 . S
H464 C470 0.930 1_554 S
H465 C473 0.930 . S
H466 C474 0.930 . S
H467 C475 0.930 1_556 S
H468 C478 0.930 . S
H469 C479 0.930 . S
C470 H464 0.930 1_556 S
C470 C471 1.355 . S
C470 C472 1.415 1_556 S
C471 C470 1.355 . S
C471 C473 1.419 . S
C472 C470 1.415 1_554 S
C472 C477 1.425 1_554 S
C472 C479 1.409 . S
C473 H465 0.930 . S
C473 C471 1.419 . S
C473 C474 1.362 . S
C474 H466 0.930 . S
C474 C473 1.362 . S
C474 C477 1.409 . S
C475 H467 0.930 1_554 S
C475 C476 1.355 . S
C475 C477 1.415 1_554 S
C476 C475 1.355 . S
C476 C478 1.419 . S
C477 C472 1.425 1_556 S
C477 C474 1.409 . S
C477 C475 1.415 1_556 S
C478 H468 0.930 . S
C478 C476 1.419 . S
C478 C479 1.362 . S
C479 H469 0.930 . S
C479 C472 1.409 . S
C479 C478 1.362 . S
H480 C486 0.930 . S
H481 C489 0.930 . S
H482 C490 0.930 . S
H483 C491 0.930 . S
H484 C494 0.930 . S
H485 C495 0.930 . S
C486 H480 0.930 . S
C486 C487 1.355 . S
C486 C488 1.415 . S
C487 C486 1.355 . S
C487 C489 1.419 . S
C488 C486 1.415 . S
C488 C493 1.425 . S
C488 C495 1.409 . S
C489 H481 0.930 . S
C489 C487 1.419 . S
C489 C490 1.362 . S
C490 H482 0.930 . S
C490 C489 1.362 . S
C490 C493 1.409 . S
C491 H483 0.930 . S
C491 C492 1.355 . S
C491 C493 1.415 . S
C492 C491 1.355 . S
C492 C494 1.419 . S
C493 C488 1.425 . S
C493 C490 1.409 . S
C493 C491 1.415 . S
C494 H484 0.930 . S
C494 C492 1.419 . S
C494 C495 1.362 . S
C495 H485 0.930 . S
C495 C488 1.409 . S
C495 C494 1.362 . S
H496 C502 0.930 . S
H497 C505 0.930 . S
H498 C506 0.930 . S
H499 C507 0.930 . S
H500 C510 0.930 . S
H501 C511 0.930 . S
C502 H496 0.930 . S
C502 C503 1.355 . S
C502 C504 1.415 . S
C503 C502 1.355 . S
C503 C505 1.419 1_554 S
C504 C502 1.415 . S
C504 C509 1.425 1_554 S
C504 C511 1.409 . S
C505 H497 0.930 . S
C505 C503 1.419 1_556 S
C505 C506 1.362 . S
C506 H498 0.930 . S
C506 C505 1.362 . S
C506 C509 1.409 . S
C507 H499 0.930 . S
C507 C508 1.355 . S
C507 C509 1.415 . S
C508 C507 1.355 . S
C508 C510 1.419 1_556 S
C509 C504 1.425 1_556 S
C509 C506 1.409 . S
C509 C507 1.415 . S
C510 H500 0.930 . S
C510 C508 1.419 1_554 S
C510 C511 1.362 . S
C511 H501 0.930 . S
C511 C504 1.409 . S
C511 C510 1.362 . S
H512 C518 0.930 . S
H513 C521 0.930 . S
H514 C522 0.930 . S
H515 C523 0.930 . S
H516 C526 0.930 . S
H517 C527 0.930 . S
C518 H512 0.930 . S
C518 C519 1.355 . S
C518 C520 1.415 . S
C519 C518 1.355 . S
C519 C521 1.419 . S
C520 C518 1.415 . S
C520 C525 1.425 . S
C520 C527 1.409 . S
C521 H513 0.930 . S
C521 C519 1.419 . S
C521 C522 1.362 . S
C522 H514 0.930 . S
C522 C521 1.362 . S
C522 C525 1.409 . S
C523 H515 0.930 . S
C523 C524 1.355 . S
C523 C525 1.415 . S
C524 C523 1.355 . S
C524 C526 1.419 . S
C525 C520 1.425 . S
C525 C522 1.409 . S
C525 C523 1.415 . S
C526 H516 0.930 . S
C526 C524 1.419 . S
C526 C527 1.362 . S
C527 H517 0.930 . S
C527 C520 1.409 . S
C527 C526 1.362 . S
H528 C534 0.926 1_556 S
H529 C537 0.930 . S
H530 C538 0.930 . S
H531 C539 0.924 1_554 S
H532 C542 0.930 . S
H533 C543 0.930 . S
C534 H528 0.926 1_554 S
C534 C535 1.361 . S
C534 C536 1.413 1_554 S
C535 C534 1.361 . S
C535 C537 1.419 . S
C536 C534 1.413 1_556 S
C536 C541 1.425 1_556 S
C536 C543 1.409 . S
C537 H529 0.930 . S
C537 C535 1.419 . S
C537 C538 1.362 . S
C538 H530 0.930 . S
C538 C537 1.362 . S
C538 C541 1.409 . S
C539 H531 0.924 1_556 S
C539 C540 1.362 . S
C539 C541 1.412 1_556 S
C540 C539 1.362 . S
C540 C542 1.419 . S
C541 C536 1.425 1_554 S
C541 C538 1.409 . S
C541 C539 1.412 1_554 S
C542 H532 0.930 . S
C542 C540 1.419 . S
C542 C543 1.362 . S
C543 H533 0.930 . S
C543 C536 1.409 . S
C543 C542 1.362 . S
H544 C550 0.930 . S
H545 C553 0.930 . S
H546 C554 0.930 . S
H547 C555 0.930 . S
H548 C558 0.930 . S
H549 C559 0.930 . S
C550 H544 0.930 . S
C550 C551 1.355 . S
C550 C552 1.415 . S
C551 C550 1.355 . S
C551 C553 1.419 . S
C552 C550 1.415 . S
C552 C557 1.425 . S
C552 C559 1.409 . S
C553 H545 0.930 . S
C553 C551 1.419 . S
C553 C554 1.362 . S
C554 H546 0.930 . S
C554 C553 1.362 . S
C554 C557 1.409 . S
C555 H547 0.930 . S
C555 C556 1.355 . S
C555 C557 1.415 . S
C556 C555 1.355 . S
C556 C558 1.419 . S
C557 C552 1.425 . S
C557 C554 1.409 . S
C557 C555 1.415 . S
C558 H548 0.930 . S
C558 C556 1.419 . S
C558 C559 1.362 . S
C559 H549 0.930 . S
C559 C552 1.409 . S
C559 C558 1.362 . S
H560 C566 0.930 . S
H561 C569 0.930 . S
H562 C570 0.930 . S
H563 C571 0.930 . S
H564 C574 0.930 . S
H565 C575 0.930 . S
C566 H560 0.930 . S
C566 C567 1.355 . S
C566 C568 1.415 1_554 S
C567 C566 1.355 . S
C567 C569 1.419 . S
C568 C566 1.415 1_556 S
C568 C573 1.425 1_556 S
C568 C575 1.409 . S
C569 H561 0.930 . S
C569 C567 1.419 . S
C569 C570 1.362 . S
C570 H562 0.930 . S
C570 C569 1.362 . S
C570 C573 1.409 . S
C571 H563 0.930 . S
C571 C572 1.355 . S
C571 C573 1.415 1_556 S
C572 C571 1.355 . S
C572 C574 1.419 . S
C573 C568 1.425 1_554 S
C573 C570 1.409 . S
C573 C571 1.415 1_554 S
C574 H564 0.930 . S
C574 C572 1.419 . S
C574 C575 1.362 . S
C575 H565 0.930 . S
C575 C568 1.409 . S
C575 C574 1.362 . S
H576 C582 0.930 . S
H577 C585 0.930 . S
H578 C586 0.930 . S
H579 C587 0.930 . S
H580 C590 0.930 . S
H581 C591 0.930 . S
C582 H576 0.930 . S
C582 C583 1.355 . S
C582 C584 1.415 . S
C583 C582 1.355 . S
C583 C585 1.419 . S
C584 C582 1.415 . S
C584 C589 1.425 . S
C584 C591 1.409 . S
C585 H577 0.930 . S
C585 C583 1.419 . S
C585 C586 1.362 . S
C586 H578 0.930 . S
C586 C585 1.362 . S
C586 C589 1.409 . S
C587 H579 0.930 . S
C587 C588 1.355 . S
C587 C589 1.415 . S
C588 C587 1.355 . S
C588 C590 1.419 . S
C589 C584 1.425 . S
C589 C586 1.409 . S
C589 C587 1.415 . S
C590 H580 0.930 . S
C590 C588 1.419 . S
C590 C591 1.362 . S
C591 H581 0.930 . S
C591 C584 1.409 . S
C591 C590 1.362 . S
H592 C598 0.930 . S
H593 C601 0.930 . S
H594 C602 0.930 . S
H595 C603 0.930 . S
H596 C606 0.930 . S
H597 C607 0.930 . S
C598 H592 0.930 . S
C598 C599 1.355 . S
C598 C600 1.415 . S
C599 C598 1.355 . S
C599 C601 1.419 . S
C600 C598 1.415 . S
C600 C605 1.425 1_556 S
C600 C607 1.409 1_556 S
C601 H593 0.930 . S
C601 C599 1.419 . S
C601 C602 1.362 . S
C602 H594 0.930 . S
C602 C601 1.362 . S
C602 C605 1.409 1_556 S
C603 H595 0.930 . S
C603 C604 1.355 . S
C603 C605 1.415 . S
C604 C603 1.355 . S
C604 C606 1.419 . S
C605 C600 1.425 1_554 S
C605 C602 1.409 1_554 S
C605 C603 1.415 . S
C606 H596 0.930 . S
C606 C604 1.419 . S
C606 C607 1.362 . S
C607 H597 0.930 . S
C607 C600 1.409 1_554 S
C607 C606 1.362 . S
H608 C614 0.930 . S
H609 C617 0.930 . S
H610 C618 0.930 . S
H611 C619 0.930 . S
H612 C622 0.930 . S
H613 C623 0.930 . S
C614 H608 0.930 . S
C614 C615 1.355 . S
C614 C616 1.415 . S
C615 C614 1.355 . S
C615 C617 1.419 . S
C616 C614 1.415 . S
C616 C621 1.425 . S
C616 C623 1.409 . S
C617 H609 0.930 . S
C617 C615 1.419 . S
C617 C618 1.362 . S
C618 H610 0.930 . S
C618 C617 1.362 . S
C618 C621 1.409 . S
C619 H611 0.930 . S
C619 C620 1.355 . S
C619 C621 1.415 . S
C620 C619 1.355 . S
C620 C622 1.419 . S
C621 C616 1.425 . S
C621 C618 1.409 . S
C621 C619 1.415 . S
C622 H612 0.930 . S
C622 C620 1.419 . S
C622 C623 1.362 . S
C623 H613 0.930 . S
C623 C616 1.409 . S
C623 C622 1.362 . S
H624 C630 0.930 . S
H625 C633 0.930 . S
H626 C634 0.930 . S
H627 C635 0.930 . S
H628 C638 0.930 . S
H629 C639 0.930 . S
C630 H624 0.930 . S
C630 C631 1.355 . S
C630 C632 1.415 1_554 S
C631 C630 1.355 . S
C631 C633 1.419 . S
C632 C630 1.415 1_556 S
C632 C637 1.425 1_556 S
C632 C639 1.409 . S
C633 H625 0.930 . S
C633 C631 1.419 . S
C633 C634 1.362 . S
C634 H626 0.930 . S
C634 C633 1.362 . S
C634 C637 1.409 . S
C635 H627 0.930 . S
C635 C636 1.355 . S
C635 C637 1.415 1_556 S
C636 C635 1.355 . S
C636 C638 1.419 . S
C637 C632 1.425 1_554 S
C637 C634 1.409 . S
C637 C635 1.415 1_554 S
C638 H628 0.930 . S
C638 C636 1.419 . S
C638 C639 1.362 . S
C639 H629 0.930 . S
C639 C632 1.409 . S
C639 C638 1.362 . S
H640 C646 0.930 . S
H641 C649 0.930 . S
H642 C650 0.930 . S
H643 C651 0.930 . S
H644 C654 0.930 . S
H645 C655 0.930 . S
C646 H640 0.930 . S
C646 C647 1.355 . S
C646 C648 1.415 . S
C647 C646 1.355 . S
C647 C649 1.419 . S
C648 C646 1.415 . S
C648 C653 1.425 . S
C648 C655 1.409 . S
C649 H641 0.930 . S
C649 C647 1.419 . S
C649 C650 1.362 . S
C650 H642 0.930 . S
C650 C649 1.362 . S
C650 C653 1.409 . S
C651 H643 0.930 . S
C651 C652 1.355 . S
C651 C653 1.415 . S
C652 C651 1.355 . S
C652 C654 1.419 . S
C653 C648 1.425 . S
C653 C650 1.409 . S
C653 C651 1.415 . S
C654 H644 0.930 . S
C654 C652 1.419 . S
C654 C655 1.362 . S
C655 H645 0.930 . S
C655 C648 1.409 . S
C655 C654 1.362 . S
H656 C662 0.930 . S
H657 C665 0.930 . S
H658 C666 0.930 . S
H659 C667 0.930 . S
H660 C670 0.930 . S
H661 C671 0.930 . S
C662 H656 0.930 . S
C662 C663 1.355 . S
C662 C664 1.415 1_545 S
C663 C662 1.355 . S
C663 C665 1.419 1_556 S
C664 C662 1.415 1_565 S
C664 C669 1.425 1_566 S
C664 C671 1.409 . S
C665 H657 0.930 . S
C665 C663 1.419 1_554 S
C665 C666 1.362 . S
C666 H658 0.930 . S
C666 C665 1.362 . S
C666 C669 1.409 . S
C667 H659 0.930 . S
C667 C668 1.355 . S
C667 C669 1.415 1_565 S
C668 C667 1.355 . S
C668 C670 1.419 1_554 S
C669 C664 1.425 1_544 S
C669 C666 1.409 . S
C669 C667 1.415 1_545 S
C670 H660 0.930 . S
C670 C668 1.419 1_556 S
C670 C671 1.362 . S
C671 H661 0.930 . S
C671 C664 1.409 . S
C671 C670 1.362 . S
H672 C678 0.930 . S
H673 C681 0.930 . S
H674 C682 0.930 . S
H675 C683 0.930 . S
H676 C686 0.930 . S
H677 C687 0.930 . S
C678 H672 0.930 . S
C678 C679 1.355 . S
C678 C680 1.415 . S
C679 C678 1.355 . S
C679 C681 1.419 . S
C680 C678 1.415 . S
C680 C685 1.425 1_565 S
C680 C687 1.409 1_565 S
C681 H673 0.930 . S
C681 C679 1.419 . S
C681 C682 1.362 . S
C682 H674 0.930 . S
C682 C681 1.362 . S
C682 C685 1.409 1_565 S
C683 H675 0.930 . S
C683 C684 1.355 . S
C683 C685 1.415 . S
C684 C683 1.355 . S
C684 C686 1.419 . S
C685 C680 1.425 1_545 S
C685 C682 1.409 1_545 S
C685 C683 1.415 . S
C686 H676 0.930 . S
C686 C684 1.419 . S
C686 C687 1.362 . S
C687 H677 0.930 . S
C687 C680 1.409 1_545 S
C687 C686 1.362 . S
H688 C694 0.930 . S
H689 C697 0.930 . S
H690 C698 0.930 1_556 S
H691 C699 0.930 . S
H692 C702 0.930 . S
H693 C703 0.930 1_554 S
C694 H688 0.930 . S
C694 C695 1.355 . S
C694 C696 1.415 . S
C695 C694 1.355 . S
C695 C697 1.419 . S
C696 C694 1.415 . S
C696 C701 1.425 1_564 S
C696 C703 1.409 1_564 S
C697 H689 0.930 . S
C697 C695 1.419 . S
C697 C698 1.363 . S
C698 H690 0.930 1_554 S
C698 C697 1.363 . S
C698 C701 1.409 1_564 S
C699 H691 0.930 . S
C699 C700 1.355 . S
C699 C701 1.415 . S
C700 C699 1.355 . S
C700 C702 1.419 . S
C701 C696 1.425 1_546 S
C701 C698 1.409 1_546 S
C701 C699 1.415 . S
C702 H692 0.930 . S
C702 C700 1.419 . S
C702 C703 1.363 . S
C703 H693 0.930 1_556 S
C703 C696 1.409 1_546 S
C703 C702 1.363 . S
H704 C710 0.930 . S
H705 C713 0.930 . S
H706 C714 0.930 . S
H707 C715 0.930 . S
H708 C718 0.930 . S
H709 C719 0.930 . S
C710 H704 0.930 . S
C710 C711 1.355 . S
C710 C712 1.415 . S
C711 C710 1.355 . S
C711 C713 1.419 . S
C712 C710 1.415 . S
C712 C717 1.425 1_545 S
C712 C719 1.409 1_545 S
C713 H705 0.930 . S
C713 C711 1.419 . S
C713 C714 1.362 . S
C714 H706 0.930 . S
C714 C713 1.362 . S
C714 C717 1.409 1_545 S
C715 H707 0.930 . S
C715 C716 1.355 . S
C715 C717 1.415 . S
C716 C715 1.355 . S
C716 C718 1.419 . S
C717 C712 1.425 1_565 S
C717 C714 1.409 1_565 S
C717 C715 1.415 . S
C718 H708 0.930 . S
C718 C716 1.419 . S
C718 C719 1.362 . S
C719 H709 0.930 . S
C719 C712 1.409 1_565 S
C719 C718 1.362 . S
C215 C5 1.390 . S
C220 C83 1.421 . S
C231 C18 1.450 . S
C236 C96 1.390 . S
C247 C57 1.436 . S
C252 C31 1.383 . S
C263 C70 1.447 . S
C268 C44 1.406 . S
C279 C187 1.451 . S
C284 C109 1.389 . S
C295 C200 1.444 . S
C300 C122 1.411 . S
C311 C135 1.389 . S
C316 C161 1.424 . S
C327 C148 1.410 . S
C332 C174 1.400 . S
C343 C10 1.390 . S
C348 C73 1.399 . S
C359 C23 1.400 . S
C364 C60 1.402 . S
C375 C36 1.421 . S
C380 C99 1.365 . S
C391 C86 1.335 . S
C396 C49 1.411 . S
C407 C177 1.391 . S
C412 C114 1.409 . S
C423 C164 1.332 . S
C428 C127 1.414 . S
C439 C140 1.393 . S
C444 C203 1.405 . S
C455 C190 1.363 . S
C460 C153 1.397 . S
C471 C156 1.283 . S
C476 C0 1.291 . S
C487 C13 1.323 . S
C492 C169 1.268 . S
C503 C182 1.267 . S
C508 C26 1.323 . S
C519 C195 1.271 . S
C524 C39 1.323 . S
C535 C104 1.268 . S
C540 C52 1.316 . S
C551 C117 1.276 . S
C556 C65 1.300 . S
C567 C78 1.322 . S
C572 C130 1.275 . S
C583 C91 1.271 . S
C588 C143 1.323 . S
C599 C34 1.322 . S
C604 C8 1.399 . S
C615 C21 1.329 . S
C620 C47 1.384 . S
C631 C88 1.403 . S
C636 C62 1.392 . S
C647 C75 1.390 . S
C652 C101 1.393 . S
C663 C138 1.327 . S
C668 C112 1.386 . S
C679 C151 1.319 . S
C684 C125 1.400 . S
C695 C192 1.408 . S
C700 C166 1.420 . S
C711 C205 1.406 . S
C716 C179 1.394 . S
