# Generated by pormake.
# Topology sow, (4)-cn, num edge types: 1
# Building blocks:
#     Node 0, Type 0, BuildingBlock: CEKHIL_clean_sbu_0, # of connection points: 4
#     Node 1, Type 0, BuildingBlock: CEKHIL_clean_sbu_0, # of connection points: 4
#     Node 2, Type 0, BuildingBlock: CEKHIL_clean_sbu_0, # of connection points: 4
#     Node 3, Type 0, BuildingBlock: CEKHIL_clean_sbu_0, # of connection points: 4
#     Node 4, Type 0, BuildingBlock: CEKHIL_clean_sbu_0, # of connection points: 4
#     Node 5, Type 0, BuildingBlock: CEKHIL_clean_sbu_0, # of connection points: 4
#     Node 6, Type 0, BuildingBlock: CEKHIL_clean_sbu_0, # of connection points: 4
#     Node 7, Type 0, BuildingBlock: CEKHIL_clean_sbu_0, # of connection points: 4
#     Edge 8, Type (0, 0), BuildingBlock: AJUNOK_clean_linker_0, # of connection points: 2
#     Edge 9, Type (0, 0), BuildingBlock: AJUNOK_clean_linker_0, # of connection points: 2
#     Edge 10, Type (0, 0), BuildingBlock: AJUNOK_clean_linker_0, # of connection points: 2
#     Edge 11, Type (0, 0), BuildingBlock: AJUNOK_clean_linker_0, # of connection points: 2
#     Edge 12, Type (0, 0), BuildingBlock: AJUNOK_clean_linker_0, # of connection points: 2
#     Edge 13, Type (0, 0), BuildingBlock: AJUNOK_clean_linker_0, # of connection points: 2
#     Edge 14, Type (0, 0), BuildingBlock: AJUNOK_clean_linker_0, # of connection points: 2
#     Edge 15, Type (0, 0), BuildingBlock: AJUNOK_clean_linker_0, # of connection points: 2
#     Edge 16, Type (0, 0), BuildingBlock: AJUNOK_clean_linker_0, # of connection points: 2
#     Edge 17, Type (0, 0), BuildingBlock: AJUNOK_clean_linker_0, # of connection points: 2
#     Edge 18, Type (0, 0), BuildingBlock: AJUNOK_clean_linker_0, # of connection points: 2
#     Edge 19, Type (0, 0), BuildingBlock: AJUNOK_clean_linker_0, # of connection points: 2
#     Edge 20, Type (0, 0), BuildingBlock: AJUNOK_clean_linker_0, # of connection points: 2
#     Edge 21, Type (0, 0), BuildingBlock: AJUNOK_clean_linker_0, # of connection points: 2
#     Edge 22, Type (0, 0), BuildingBlock: AJUNOK_clean_linker_0, # of connection points: 2
#     Edge 23, Type (0, 0), BuildingBlock: AJUNOK_clean_linker_0, # of connection points: 2
# Relax obj value: 0.168
# Max RMSD: 0.209
# Mean RMSD: 0.209
data_MOF--net-sow--node1-CEKHIL_clean_sbu_0--edge1-AJUNOK_clean_linker_0
_symmetry_space_group_name_H-M    P1
_symmetry_Int_Tables_number       1
_symmetry_cell_setting            triclinic
loop_
_symmetry_equiv_pos_as_xyz
'x, y, z'
_cell_length_a     28.757543
_cell_length_b     16.035125
_cell_length_c     17.095173
_cell_angle_alpha  90.033674
_cell_angle_beta   90.013282
_cell_angle_gamma 89.92556
loop_
_atom_site_label
_atom_site_type_symbol
_atom_site_fract_x
_atom_site_fract_y
_atom_site_fract_z
_atom_type_partial_charge
Co0 Co 0.14436 0.18735 0.02951 0.0
O1 O 0.18806 0.1638 0.94752 0.0
O2 O 0.16622 0.29049 0.98244 0.0
C3 C 0.08874 0.09552 0.99274 0.0
O4 O 0.09791 0.23338 0.10834 0.0
Co5 Co 0.12198 0.04235 0.14653 0.0
O6 O 0.07358 0.12276 0.17941 0.0
C7 C 0.20578 0.14339 0.17192 0.0
C8 C 0.18953 0.2433 0.93427 0.0
C9 C 0.07178 0.19962 0.1605 0.0
O10 O 0.19515 0.19041 0.11299 0.0
O11 O 0.18323 0.07739 0.18953 0.0
O12 O 0.09251 0.16698 0.95782 0.0
O13 O 0.12275 0.07756 0.03905 0.0
Co14 Co 0.35623 0.33213 0.52958 0.0
O15 O 0.31448 0.35427 0.44381 0.0
O16 O 0.33453 0.2285 0.48472 0.0
C17 C 0.41378 0.42018 0.49587 0.0
O18 O 0.40007 0.28575 0.61201 0.0
Co19 Co 0.37727 0.47735 0.64692 0.0
O20 O 0.4215 0.3937 0.68895 0.0
C21 C 0.29352 0.37667 0.67033 0.0
C22 C 0.31247 0.2741 0.43382 0.0
C23 C 0.42343 0.31713 0.66892 0.0
O24 O 0.30402 0.33218 0.60972 0.0
O25 O 0.31595 0.44212 0.69027 0.0
O26 O 0.40962 0.34861 0.4612 0.0
O27 O 0.37888 0.44128 0.53928 0.0
Co28 Co 0.64496 0.31258 0.97836 0.0
O29 O 0.68744 0.336 0.06233 0.0
O30 O 0.66962 0.20934 0.0211 0.0
C31 C 0.58615 0.3958 0.01852 0.0
O32 O 0.60014 0.26667 0.89696 0.0
Co33 Co 0.61903 0.46178 0.86816 0.0
O34 O 0.57259 0.37937 0.83215 0.0
C35 C 0.70357 0.36449 0.83459 0.0
C36 C 0.69055 0.25614 0.07252 0.0
C37 C 0.57293 0.30141 0.84687 0.0
O38 O 0.69578 0.31787 0.89502 0.0
O39 O 0.67895 0.42863 0.81817 0.0
O40 O 0.59267 0.3234 0.05026 0.0
O41 O 0.6197 0.4206 0.97389 0.0
Co42 Co 0.85533 0.17286 0.47855 0.0
O43 O 0.81463 0.15145 0.566 0.0
O44 O 0.83263 0.27711 0.52215 0.0
C45 C 0.91388 0.08603 0.51312 0.0
O46 O 0.8982 0.21827 0.39417 0.0
Co47 Co 0.87742 0.02479 0.36429 0.0
O48 O 0.9205 0.10865 0.31987 0.0
C49 C 0.79259 0.12373 0.33917 0.0
C50 C 0.81177 0.23166 0.5745 0.0
C51 C 0.92166 0.18585 0.33779 0.0
O52 O 0.80251 0.16999 0.39897 0.0
O53 O 0.81586 0.05851 0.32101 0.0
O54 O 0.90962 0.15853 0.54611 0.0
O55 O 0.87885 0.06386 0.47072 0.0
Co56 Co 0.84862 0.84754 0.97629 0.0
O57 O 0.8079 0.87222 0.06284 0.0
O58 O 0.8254 0.74542 0.0212 0.0
C59 C 0.90835 0.93155 0.01013 0.0
O60 O 0.89088 0.79828 0.89327 0.0
Co61 Co 0.87313 0.99143 0.85952 0.0
O62 O 0.9147 0.90447 0.81638 0.0
C63 C 0.78678 0.89609 0.83618 0.0
C64 C 0.80485 0.79218 0.07295 0.0
C65 C 0.91461 0.82779 0.83606 0.0
O66 O 0.79581 0.85094 0.89698 0.0
O67 O 0.8118 0.95787 0.81517 0.0
O68 O 0.90265 0.86001 0.04401 0.0
O69 O 0.87385 0.95538 0.967 0.0
Co70 Co 0.64075 0.69683 0.4803 0.0
O71 O 0.68499 0.68222 0.56325 0.0
O72 O 0.65726 0.80421 0.52505 0.0
C73 C 0.58946 0.59809 0.51799 0.0
O74 O 0.59257 0.73302 0.39985 0.0
Co75 Co 0.62727 0.54595 0.36601 0.0
O76 O 0.57652 0.61839 0.32751 0.0
C77 C 0.70567 0.65912 0.34096 0.0
C78 C 0.68259 0.76206 0.57437 0.0
C79 C 0.56988 0.69458 0.34587 0.0
O80 O 0.6915 0.70626 0.39756 0.0
O81 O 0.68743 0.58852 0.32495 0.0
O82 O 0.58992 0.67052 0.55178 0.0
O83 O 0.62455 0.58385 0.47274 0.0
Co84 Co 0.34675 0.64293 0.03911 0.0
O85 O 0.30426 0.62092 0.95402 0.0
O86 O 0.32509 0.74639 0.99508 0.0
C87 C 0.4039 0.55383 1.0046 0.0
O88 O 0.39124 0.6895 0.12026 0.0
Co89 Co 0.36818 0.49945 0.15735 0.0
O90 O 0.41202 0.58336 0.19974 0.0
C91 C 0.28409 0.59966 0.18009 0.0
C92 C 0.30222 0.70121 0.94492 0.0
C93 C 0.41421 0.65937 0.17817 0.0
O94 O 0.29505 0.64492 0.12035 0.0
O95 O 0.3064 0.5339 0.19968 0.0
O96 O 0.3996 0.62525 0.96971 0.0
O97 O 0.36933 0.5335 0.04905 0.0
Co98 Co 0.14062 0.80679 0.53584 0.0
O99 O 0.18651 0.82164 0.45517 0.0
O100 O 0.1585 0.69974 0.49256 0.0
C101 C 0.08941 0.90508 0.49468 0.0
O102 O 0.09147 0.76836 0.61277 0.0
Co103 Co 0.1202 0.95696 0.64876 0.0
O104 O 0.0692 0.88214 0.68142 0.0
C105 C 0.19866 0.84406 0.68338 0.0
C106 C 0.18439 0.74166 0.44411 0.0
C107 C 0.0657 0.80522 0.66346 0.0
O108 O 0.18943 0.79873 0.62255 0.0
O109 O 0.17758 0.91241 0.69832 0.0
O110 O 0.0909 0.83248 0.46125 0.0
O111 O 0.12325 0.91956 0.54227 0.0
C112 C 0.24077 0.39575 0.78629 0.0
C113 C 0.26028 0.34286 0.72896 0.0
C114 C 0.21759 0.36344 0.85205 0.0
C115 C 0.21355 0.27689 0.8638 0.0
H116 H 0.24467 0.46276 0.78159 0.0
H117 H 0.2037 0.40669 0.89479 0.0
S118 S 0.25697 0.1115 0.72961 0.0
N119 N 0.27239 0.19953 0.68732 0.0
N120 N 0.22932 0.13897 0.81016 0.0
C121 C 0.23166 0.22346 0.80566 0.0
C122 C 0.25473 0.25634 0.73843 0.0
C123 C 0.24963 0.25871 0.23825 0.0
C124 C 0.24028 0.17294 0.23081 0.0
C125 C 0.27339 0.2903 0.30363 0.0
C126 C 0.2887 0.23771 0.36447 0.0
H127 H 0.23663 0.30251 0.19524 0.0
H128 H 0.27924 0.35685 0.3069 0.0
S129 S 0.2781 0.00711 0.36918 0.0
N130 N 0.2524 0.03484 0.28684 0.0
N131 N 0.2963 0.09465 0.40969 0.0
C132 C 0.28183 0.15142 0.35588 0.0
C133 C 0.25786 0.11904 0.28916 0.0
C134 C 0.74954 0.1047 0.21239 0.0
C135 C 0.75866 0.15407 0.27929 0.0
C136 C 0.72703 0.13754 0.1463 0.0
C137 C 0.7129 0.22131 0.14386 0.0
H138 H 0.76156 0.04075 0.20943 0.0
H139 H 0.72201 0.09758 0.09588 0.0
S140 S 0.72081 0.37356 0.30747 0.0
N141 N 0.74621 0.28874 0.34158 0.0
N142 N 0.70415 0.35032 0.21768 0.0
C143 C 0.71901 0.27002 0.21187 0.0
C144 C 0.7416 0.2364 0.27949 0.0
C145 C 0.73759 0.3759 0.69932 0.0
C146 C 0.73749 0.33661 0.7735 0.0
C147 C 0.76255 0.34293 0.63579 0.0
C148 C 0.78806 0.26879 0.64331 0.0
H149 H 0.71679 0.43113 0.6889 0.0
H150 H 0.76044 0.37409 0.57967 0.0
S151 S 0.80729 0.15065 0.82704 0.0
N152 N 0.77094 0.22562 0.85229 0.0
N153 N 0.81724 0.16316 0.73263 0.0
C154 C 0.79066 0.23143 0.71771 0.0
C155 C 0.76565 0.26551 0.78278 0.0
C156 C 0.75955 0.81022 0.19718 0.0
C157 C 0.78238 0.75697 0.14391 0.0
C158 C 0.73797 0.77896 0.26474 0.0
C159 C 0.73833 0.69311 0.28175 0.0
H160 H 0.75735 0.87657 0.18588 0.0
H161 H 0.7188 0.82195 0.30154 0.0
S162 S 0.79831 0.52837 0.16677 0.0
N163 N 0.80752 0.61487 0.11684 0.0
N164 N 0.76726 0.55643 0.2436 0.0
C165 C 0.76317 0.63983 0.23116 0.0
C166 C 0.78499 0.67157 0.1623 0.0
C167 C 0.7214 0.74805 0.70441 0.0
C168 C 0.70495 0.80029 0.6441 0.0
C169 C 0.7441 0.78043 0.77027 0.0
C170 C 0.75187 0.86652 0.77837 0.0
H171 H 0.71756 0.681 0.70026 0.0
H172 H 0.7581 0.73696 0.81271 0.0
S173 S 0.71133 0.0314 0.64152 0.0
N174 N 0.69445 0.94332 0.60024 0.0
N175 N 0.73764 0.00436 0.72358 0.0
C176 C 0.73343 0.92 0.72055 0.0
C177 C 0.70992 0.88692 0.65357 0.0
C178 C 0.26823 0.69236 0.80969 0.0
C179 C 0.27735 0.73921 0.87777 0.0
C180 C 0.24527 0.72785 0.74504 0.0
C181 C 0.23009 0.81146 0.74616 0.0
H182 H 0.27887 0.62762 0.80625 0.0
H183 H 0.23809 0.68852 0.69496 0.0
S184 S 0.2453 0.96002 0.91228 0.0
N185 N 0.26975 0.87291 0.94274 0.0
N186 N 0.2265 0.93987 0.8231 0.0
C187 C 0.2398 0.85904 0.81413 0.0
C188 C 0.26334 0.82289 0.87937 0.0
C189 C 0.25021 0.72041 0.25222 0.0
C190 C 0.25117 0.63386 0.23889 0.0
C191 C 0.22876 0.75405 0.3188 0.0
C192 C 0.20695 0.70275 0.37474 0.0
H193 H 0.26835 0.76248 0.21319 0.0
H194 H 0.22996 0.82102 0.32682 0.0
S195 S 0.19498 0.47255 0.36248 0.0
N196 N 0.22518 0.49791 0.28387 0.0
N197 N 0.18442 0.56107 0.40866 0.0
C198 C 0.20563 0.61635 0.36021 0.0
C199 C 0.22777 0.58202 0.29244 0.0
C200 C 0.99068 0.24337 0.1647 0.0
C201 C 0.03503 0.24761 0.19873 0.0
C202 C 0.95103 0.23724 0.21183 0.0
C203 C 0.95492 0.23653 0.2938 0.0
H204 H 0.98714 0.23163 0.10252 0.0
H205 H 0.91817 0.22192 0.18431 0.0
S206 S 0.06215 0.26817 0.4093 0.0
N207 N 0.07984 0.2677 0.31736 0.0
N208 N 0.00502 0.25754 0.40622 0.0
C209 C -0.00195 0.25502 0.32764 0.0
C210 C 0.03842 0.26052 0.27968 0.0
C211 C 0.4534 0.25983 0.79235 0.0
C212 C 0.45757 0.2661 0.71066 0.0
C213 C 0.49299 0.2525 0.83954 0.0
C214 C 0.53752 0.25296 0.80591 0.0
H215 H 0.42018 0.27157 0.82024 0.0
H216 H 0.48903 0.25996 0.90224 0.0
S217 S 0.5657 0.24886 0.59489 0.0
N218 N 0.50839 0.25584 0.59788 0.0
N219 N 0.58306 0.24371 0.6869 0.0
C220 C 0.54141 0.24571 0.7244 0.0
C221 C 0.50113 0.25233 0.67636 0.0
C222 C 0.98417 0.76435 0.6663 0.0
C223 C 0.02809 0.76019 0.70177 0.0
C224 C 0.94413 0.77184 0.7122 0.0
C225 C 0.94737 0.77433 0.79419 0.0
H226 H 0.98131 0.77482 0.60383 0.0
H227 H 0.91159 0.78724 0.68359 0.0
S228 S 0.05329 0.74356 0.91323 0.0
N229 N 0.07183 0.74188 0.82179 0.0
N230 N -0.00377 0.75474 0.9084 0.0
C231 C 0.99003 0.75564 0.8296 0.0
C232 C 0.03078 0.74874 0.78292 0.0
C233 C 0.4908 0.72723 0.18096 0.0
C234 C 0.44842 0.71123 0.21864 0.0
C235 C 0.53148 0.73843 0.22478 0.0
C236 C 0.53043 0.7345 0.30696 0.0
H237 H 0.49369 0.71977 0.11812 0.0
H238 H 0.56453 0.73857 0.1943 0.0
S239 S 0.42593 0.71556 0.43162 0.0
N240 N 0.40603 0.70802 0.34123 0.0
N241 N 0.48255 0.73088 0.42367 0.0
C242 C 0.48718 0.73228 0.34459 0.0
C243 C 0.44594 0.71966 0.30016 0.0
C244 C 0.00412 0.08549 0.9597 0.0
C245 C 0.04391 0.04984 0.99432 0.0
C246 C 0.96035 0.04758 0.96607 0.0
C247 C 0.95456 0.97258 0.0075 0.0
H248 H 0.00652 0.14397 0.9283 0.0
H249 H 0.93086 0.07752 0.93838 0.0
S250 S 0.04795 0.85222 0.10707 0.0
N251 N 0.07487 0.93357 0.06929 0.0
N252 N 0.99274 0.86322 0.08284 0.0
C253 C 0.99415 0.93587 0.04194 0.0
C254 C 0.03877 0.97414 0.03482 0.0
C255 C 0.50586 0.57822 0.5522 0.0
C256 C 0.54632 0.54762 0.51571 0.0
C257 C 0.46313 0.53734 0.54437 0.0
C258 C 0.45903 0.46411 0.49974 0.0
H259 H 0.5068 0.63539 0.58594 0.0
H260 H 0.43305 0.56384 0.57332 0.0
S261 S 0.55504 0.35513 0.39589 0.0
N262 N 0.58004 0.43692 0.43662 0.0
N263 N 0.49962 0.36087 0.42043 0.0
C264 C 0.49938 0.43184 0.46397 0.0
C265 C 0.54304 0.47322 0.47252 0.0
C266 C 0.48882 0.54857 0.97386 0.0
C267 C 0.4494 0.51033 0.00708 0.0
C268 C 0.53301 0.5121 0.9794 0.0
C269 C 0.53964 0.4359 0.01837 0.0
H270 H 0.48575 0.6078 0.94387 0.0
H271 H 0.56213 0.54389 0.95258 0.0
S272 S 0.44759 0.30895 0.11372 0.0
N273 N 0.41975 0.39095 0.07886 0.0
N274 N 0.50269 0.32259 0.09006 0.0
C275 C 0.50048 0.39677 0.05178 0.0
C276 C 0.45542 0.43384 0.04581 0.0
C277 C 0.00484 0.92215 0.46389 0.0
C278 C 0.04602 0.95537 0.49563 0.0
C279 C 0.96226 0.9642 0.47095 0.0
C280 C 0.95905 0.04119 0.51012 0.0
H281 H 0.00516 0.86226 0.43456 0.0
H282 H 0.93159 0.93578 0.44566 0.0
S283 S 0.057 0.15671 0.60132 0.0
N284 N 0.08117 0.07158 0.56527 0.0
N285 N 0.00118 0.14986 0.57985 0.0
C286 C 6e-05 0.07561 0.54148 0.0
C287 C 0.0435 0.03303 0.53375 0.0
loop_
_geom_bond_atom_site_label_1
_geom_bond_atom_site_label_2
_geom_bond_distance
_geom_bond_site_symmetry_2
_ccdc_geom_bond_type
Co0 O1 2.216 1_554 S
Co0 O2 2.091 1_554 S
Co0 O4 2.004 . S
Co0 O10 2.021 . S
Co0 O12 2.137 1_554 S
Co0 O13 2.244 . S
O1 Co0 2.216 1_556 S
O1 C8 1.247 . S
O2 Co0 2.091 1_556 S
O2 C8 1.261 . S
C3 O12 1.247 1_554 S
C3 O13 1.272 . S
O4 Co0 2.004 . S
O4 C9 1.259 . S
Co5 O6 2.061 . S
Co5 O11 2.052 . S
Co5 O13 2.135 . S
O6 Co5 2.061 . S
O6 C9 1.235 . S
C7 O10 1.238 . S
C7 O11 1.241 . S
C8 O1 1.247 . S
C8 O2 1.261 . S
C9 O4 1.259 . S
C9 O6 1.235 . S
O10 Co0 2.021 . S
O10 C7 1.238 . S
O11 Co5 2.052 . S
O11 C7 1.241 . S
O12 Co0 2.137 1_556 S
O12 C3 1.247 1_556 S
O13 Co0 2.244 . S
O13 C3 1.272 . S
O13 Co5 2.135 . S
Co14 O15 2.216 . S
Co14 O16 2.091 . S
Co14 O18 2.004 . S
Co14 O24 2.021 . S
Co14 O26 2.137 . S
Co14 O27 2.244 . S
O15 Co14 2.216 . S
O15 C22 1.247 . S
O16 Co14 2.091 . S
O16 C22 1.261 . S
C17 O26 1.247 . S
C17 O27 1.272 . S
O18 Co14 2.004 . S
O18 C23 1.259 . S
Co19 O20 2.061 . S
Co19 O25 2.052 . S
Co19 O27 2.135 . S
O20 Co19 2.061 . S
O20 C23 1.235 . S
C21 O24 1.238 . S
C21 O25 1.241 . S
C22 O15 1.247 . S
C22 O16 1.261 . S
C23 O18 1.259 . S
C23 O20 1.235 . S
O24 Co14 2.021 . S
O24 C21 1.238 . S
O25 Co19 2.052 . S
O25 C21 1.241 . S
O26 Co14 2.137 . S
O26 C17 1.247 . S
O27 Co14 2.244 . S
O27 C17 1.272 . S
O27 Co19 2.135 . S
Co28 O29 2.216 1_556 S
Co28 O30 2.091 1_556 S
Co28 O32 2.004 . S
Co28 O38 2.021 . S
Co28 O40 2.137 1_556 S
Co28 O41 2.244 . S
O29 Co28 2.216 1_554 S
O29 C36 1.247 . S
O30 Co28 2.091 1_554 S
O30 C36 1.261 . S
C31 O40 1.247 1_556 S
C31 O41 1.272 . S
O32 Co28 2.004 . S
O32 C37 1.259 . S
Co33 O34 2.061 . S
Co33 O39 2.052 . S
Co33 O41 2.135 . S
O34 Co33 2.061 . S
O34 C37 1.235 . S
C35 O38 1.238 . S
C35 O39 1.241 . S
C36 O29 1.247 . S
C36 O30 1.261 . S
C37 O32 1.259 . S
C37 O34 1.235 . S
O38 Co28 2.021 . S
O38 C35 1.238 . S
O39 Co33 2.052 . S
O39 C35 1.241 . S
O40 Co28 2.137 1_554 S
O40 C31 1.247 1_554 S
O41 Co28 2.244 . S
O41 C31 1.272 . S
O41 Co33 2.135 . S
Co42 O43 2.216 . S
Co42 O44 2.091 . S
Co42 O46 2.004 . S
Co42 O52 2.021 . S
Co42 O54 2.137 . S
Co42 O55 2.244 . S
O43 Co42 2.216 . S
O43 C50 1.247 . S
O44 Co42 2.091 . S
O44 C50 1.261 . S
C45 O54 1.247 . S
C45 O55 1.272 . S
O46 Co42 2.004 . S
O46 C51 1.259 . S
Co47 O48 2.061 . S
Co47 O53 2.052 . S
Co47 O55 2.135 . S
O48 Co47 2.061 . S
O48 C51 1.235 . S
C49 O52 1.238 . S
C49 O53 1.241 . S
C50 O43 1.247 . S
C50 O44 1.261 . S
C51 O46 1.259 . S
C51 O48 1.235 . S
O52 Co42 2.021 . S
O52 C49 1.238 . S
O53 Co47 2.052 . S
O53 C49 1.241 . S
O54 Co42 2.137 . S
O54 C45 1.247 . S
O55 Co42 2.244 . S
O55 C45 1.272 . S
O55 Co47 2.135 . S
Co56 O57 2.216 1_556 S
Co56 O58 2.091 1_556 S
Co56 O60 2.004 . S
Co56 O66 2.021 . S
Co56 O68 2.137 1_556 S
Co56 O69 2.244 . S
O57 Co56 2.216 1_554 S
O57 C64 1.247 . S
O58 Co56 2.091 1_554 S
O58 C64 1.261 . S
C59 O68 1.247 1_556 S
C59 O69 1.272 . S
O60 Co56 2.004 . S
O60 C65 1.259 . S
Co61 O62 2.061 . S
Co61 O67 2.052 . S
Co61 O69 2.135 . S
O62 Co61 2.061 . S
O62 C65 1.235 . S
C63 O66 1.238 . S
C63 O67 1.241 . S
C64 O57 1.247 . S
C64 O58 1.261 . S
C65 O60 1.259 . S
C65 O62 1.235 . S
O66 Co56 2.021 . S
O66 C63 1.238 . S
O67 Co61 2.052 . S
O67 C63 1.241 . S
O68 Co56 2.137 1_554 S
O68 C59 1.247 1_554 S
O69 Co56 2.244 . S
O69 C59 1.272 . S
O69 Co61 2.135 . S
Co70 O71 2.216 . S
Co70 O72 2.091 . S
Co70 O74 2.004 . S
Co70 O80 2.021 . S
Co70 O82 2.137 . S
Co70 O83 2.244 . S
O71 Co70 2.216 . S
O71 C78 1.247 . S
O72 Co70 2.091 . S
O72 C78 1.261 . S
C73 O82 1.247 . S
C73 O83 1.272 . S
O74 Co70 2.004 . S
O74 C79 1.259 . S
Co75 O76 2.061 . S
Co75 O81 2.052 . S
Co75 O83 2.135 . S
O76 Co75 2.061 . S
O76 C79 1.235 . S
C77 O80 1.238 . S
C77 O81 1.241 . S
C78 O71 1.247 . S
C78 O72 1.261 . S
C79 O74 1.259 . S
C79 O76 1.235 . S
O80 Co70 2.021 . S
O80 C77 1.238 . S
O81 Co75 2.052 . S
O81 C77 1.241 . S
O82 Co70 2.137 . S
O82 C73 1.247 . S
O83 Co70 2.244 . S
O83 C73 1.272 . S
O83 Co75 2.135 . S
Co84 O85 2.216 1_554 S
Co84 O86 2.091 1_554 S
Co84 O88 2.004 . S
Co84 O94 2.021 . S
Co84 O96 2.137 1_554 S
Co84 O97 2.244 . S
O85 Co84 2.216 1_556 S
O85 C92 1.247 . S
O86 Co84 2.091 1_556 S
O86 C92 1.261 . S
C87 O96 1.247 1_554 S
C87 O97 1.272 . S
O88 Co84 2.004 . S
O88 C93 1.259 . S
Co89 O90 2.061 . S
Co89 O95 2.052 . S
Co89 O97 2.135 . S
O90 Co89 2.061 . S
O90 C93 1.235 . S
C91 O94 1.238 . S
C91 O95 1.241 . S
C92 O85 1.247 . S
C92 O86 1.261 . S
C93 O88 1.259 . S
C93 O90 1.235 . S
O94 Co84 2.021 . S
O94 C91 1.238 . S
O95 Co89 2.052 . S
O95 C91 1.241 . S
O96 Co84 2.137 1_556 S
O96 C87 1.247 1_556 S
O97 Co84 2.244 . S
O97 C87 1.272 . S
O97 Co89 2.135 . S
Co98 O99 2.216 . S
Co98 O100 2.091 . S
Co98 O102 2.004 . S
Co98 O108 2.021 . S
Co98 O110 2.137 . S
Co98 O111 2.244 . S
O99 Co98 2.216 . S
O99 C106 1.247 . S
O100 Co98 2.091 . S
O100 C106 1.261 . S
C101 O110 1.247 . S
C101 O111 1.272 . S
O102 Co98 2.004 . S
O102 C107 1.259 . S
Co103 O104 2.061 . S
Co103 O109 2.052 . S
Co103 O111 2.135 . S
O104 Co103 2.061 . S
O104 C107 1.235 . S
C105 O108 1.238 . S
C105 O109 1.241 . S
C106 O99 1.247 . S
C106 O100 1.261 . S
C107 O102 1.259 . S
C107 O104 1.235 . S
O108 Co98 2.021 . S
O108 C105 1.238 . S
O109 Co103 2.052 . S
O109 C105 1.241 . S
O110 Co98 2.137 . S
O110 C101 1.247 . S
O111 Co98 2.244 . S
O111 C101 1.272 . S
O111 Co103 2.135 . S
C112 C113 1.369 . S
C112 C114 1.419 . S
C112 H116 0.930 . S
C113 C112 1.369 . S
C113 C122 1.429 . S
C114 C112 1.419 . S
C114 C115 1.363 . S
C114 H117 0.929 . S
C115 C114 1.363 . S
C115 C121 1.428 . S
H116 C112 0.930 . S
H117 C114 0.929 . S
S118 N119 1.613 . S
S118 N120 1.610 . S
N119 S118 1.613 . S
N119 C122 1.350 . S
N120 S118 1.610 . S
N120 C121 1.351 . S
C121 C115 1.428 . S
C121 N120 1.351 . S
C121 C122 1.434 . S
C122 C113 1.429 . S
C122 N119 1.350 . S
C122 C121 1.434 . S
C123 C124 1.369 . S
C123 C125 1.419 . S
C123 H127 0.930 . S
C124 C123 1.369 . S
C124 C133 1.429 . S
C125 C123 1.419 . S
C125 C126 1.363 . S
C125 H128 0.929 . S
C126 C125 1.363 . S
C126 C132 1.428 . S
H127 C123 0.930 . S
H128 C125 0.929 . S
S129 N130 1.613 . S
S129 N131 1.610 . S
N130 S129 1.613 . S
N130 C133 1.350 . S
N131 S129 1.610 . S
N131 C132 1.351 . S
C132 C126 1.428 . S
C132 N131 1.351 . S
C132 C133 1.434 . S
C133 C124 1.429 . S
C133 N130 1.350 . S
C133 C132 1.434 . S
C134 C135 1.369 . S
C134 C136 1.419 . S
C134 H138 0.930 . S
C135 C134 1.369 . S
C135 C144 1.429 . S
C136 C134 1.419 . S
C136 C137 1.363 . S
C136 H139 0.929 . S
C137 C136 1.363 . S
C137 C143 1.428 . S
H138 C134 0.930 . S
H139 C136 0.929 . S
S140 N141 1.613 . S
S140 N142 1.610 . S
N141 S140 1.613 . S
N141 C144 1.350 . S
N142 S140 1.610 . S
N142 C143 1.351 . S
C143 C137 1.428 . S
C143 N142 1.351 . S
C143 C144 1.434 . S
C144 C135 1.429 . S
C144 N141 1.350 . S
C144 C143 1.434 . S
C145 C146 1.369 . S
C145 C147 1.419 . S
C145 H149 0.930 . S
C146 C145 1.369 . S
C146 C155 1.429 . S
C147 C145 1.419 . S
C147 C148 1.363 . S
C147 H150 0.929 . S
C148 C147 1.363 . S
C148 C154 1.428 . S
H149 C145 0.930 . S
H150 C147 0.929 . S
S151 N152 1.613 . S
S151 N153 1.610 . S
N152 S151 1.613 . S
N152 C155 1.350 . S
N153 S151 1.610 . S
N153 C154 1.351 . S
C154 C148 1.428 . S
C154 N153 1.351 . S
C154 C155 1.434 . S
C155 C146 1.429 . S
C155 N152 1.350 . S
C155 C154 1.434 . S
C156 C157 1.369 . S
C156 C158 1.419 . S
C156 H160 0.930 . S
C157 C156 1.369 . S
C157 C166 1.429 . S
C158 C156 1.419 . S
C158 C159 1.363 . S
C158 H161 0.929 . S
C159 C158 1.363 . S
C159 C165 1.428 . S
H160 C156 0.930 . S
H161 C158 0.929 . S
S162 N163 1.613 . S
S162 N164 1.610 . S
N163 S162 1.613 . S
N163 C166 1.350 . S
N164 S162 1.610 . S
N164 C165 1.351 . S
C165 C159 1.428 . S
C165 N164 1.351 . S
C165 C166 1.434 . S
C166 C157 1.429 . S
C166 N163 1.350 . S
C166 C165 1.434 . S
C167 C168 1.369 . S
C167 C169 1.419 . S
C167 H171 0.930 . S
C168 C167 1.369 . S
C168 C177 1.429 . S
C169 C167 1.419 . S
C169 C170 1.363 . S
C169 H172 0.929 . S
C170 C169 1.363 . S
C170 C176 1.428 . S
H171 C167 0.930 . S
H172 C169 0.929 . S
S173 N174 1.613 . S
S173 N175 1.610 . S
N174 S173 1.613 . S
N174 C177 1.350 . S
N175 S173 1.610 . S
N175 C176 1.351 . S
C176 C170 1.428 . S
C176 N175 1.351 . S
C176 C177 1.434 . S
C177 C168 1.429 . S
C177 N174 1.350 . S
C177 C176 1.434 . S
C178 C179 1.369 . S
C178 C180 1.419 . S
C178 H182 0.930 . S
C179 C178 1.369 . S
C179 C188 1.429 . S
C180 C178 1.419 . S
C180 C181 1.363 . S
C180 H183 0.929 . S
C181 C180 1.363 . S
C181 C187 1.428 . S
H182 C178 0.930 . S
H183 C180 0.929 . S
S184 N185 1.613 . S
S184 N186 1.610 . S
N185 S184 1.613 . S
N185 C188 1.350 . S
N186 S184 1.610 . S
N186 C187 1.351 . S
C187 C181 1.428 . S
C187 N186 1.351 . S
C187 C188 1.434 . S
C188 C179 1.429 . S
C188 N185 1.350 . S
C188 C187 1.434 . S
C189 C190 1.369 . S
C189 C191 1.419 . S
C189 H193 0.930 . S
C190 C189 1.369 . S
C190 C199 1.429 . S
C191 C189 1.419 . S
C191 C192 1.363 . S
C191 H194 0.929 . S
C192 C191 1.363 . S
C192 C198 1.428 . S
H193 C189 0.930 . S
H194 C191 0.929 . S
S195 N196 1.613 . S
S195 N197 1.610 . S
N196 S195 1.613 . S
N196 C199 1.350 . S
N197 S195 1.610 . S
N197 C198 1.351 . S
C198 C192 1.428 . S
C198 N197 1.351 . S
C198 C199 1.434 . S
C199 C190 1.429 . S
C199 N196 1.350 . S
C199 C198 1.434 . S
C200 C201 1.369 1_655 S
C200 C202 1.419 . S
C200 H204 0.930 . S
C201 C200 1.369 1_455 S
C201 C210 1.429 . S
C202 C200 1.419 . S
C202 C203 1.363 . S
C202 H205 0.929 . S
C203 C202 1.363 . S
C203 C209 1.428 1_655 S
H204 C200 0.930 . S
H205 C202 0.929 . S
S206 N207 1.613 . S
S206 N208 1.610 . S
N207 S206 1.613 . S
N207 C210 1.350 . S
N208 S206 1.610 . S
N208 C209 1.351 . S
C209 C203 1.428 1_455 S
C209 N208 1.351 . S
C209 C210 1.434 . S
C210 C201 1.429 . S
C210 N207 1.350 . S
C210 C209 1.434 . S
C211 C212 1.369 . S
C211 C213 1.419 . S
C211 H215 0.930 . S
C212 C211 1.369 . S
C212 C221 1.429 . S
C213 C211 1.419 . S
C213 C214 1.363 . S
C213 H216 0.929 . S
C214 C213 1.363 . S
C214 C220 1.428 . S
H215 C211 0.930 . S
H216 C213 0.929 . S
S217 N218 1.613 . S
S217 N219 1.610 . S
N218 S217 1.613 . S
N218 C221 1.350 . S
N219 S217 1.610 . S
N219 C220 1.351 . S
C220 C214 1.428 . S
C220 N219 1.351 . S
C220 C221 1.434 . S
C221 C212 1.429 . S
C221 N218 1.350 . S
C221 C220 1.434 . S
C222 C223 1.369 1_655 S
C222 C224 1.419 . S
C222 H226 0.930 . S
C223 C222 1.369 1_455 S
C223 C232 1.429 . S
C224 C222 1.419 . S
C224 C225 1.363 . S
C224 H227 0.929 . S
C225 C224 1.363 . S
C225 C231 1.428 1_655 S
H226 C222 0.930 . S
H227 C224 0.929 . S
S228 N229 1.613 . S
S228 N230 1.610 . S
N229 S228 1.613 . S
N229 C232 1.350 . S
N230 S228 1.610 . S
N230 C231 1.351 . S
C231 C225 1.428 1_455 S
C231 N230 1.351 . S
C231 C232 1.434 . S
C232 C223 1.429 . S
C232 N229 1.350 . S
C232 C231 1.434 . S
C233 C234 1.369 . S
C233 C235 1.419 . S
C233 H237 0.930 . S
C234 C233 1.369 . S
C234 C243 1.429 . S
C235 C233 1.419 . S
C235 C236 1.363 . S
C235 H238 0.929 . S
C236 C235 1.363 . S
C236 C242 1.428 . S
H237 C233 0.930 . S
H238 C235 0.929 . S
S239 N240 1.613 . S
S239 N241 1.610 . S
N240 S239 1.613 . S
N240 C243 1.350 . S
N241 S239 1.610 . S
N241 C242 1.351 . S
C242 C236 1.428 . S
C242 N241 1.351 . S
C242 C243 1.434 . S
C243 C234 1.429 . S
C243 N240 1.350 . S
C243 C242 1.434 . S
C244 C245 1.369 1_556 S
C244 C246 1.419 1_445 S
C244 H248 0.930 . S
C245 C244 1.369 1_554 S
C245 C254 1.430 . S
C246 C244 1.419 1_665 S
C246 C247 1.363 . S
C246 H249 0.929 . S
C247 C246 1.363 . S
C247 C253 1.428 1_556 S
H248 C244 0.930 . S
H249 C246 0.929 . S
S250 N251 1.613 . S
S250 N252 1.610 1_455 S
N251 S250 1.613 . S
N251 C254 1.350 1_565 S
N252 S250 1.610 1_655 S
N252 C253 1.351 . S
C253 C247 1.428 1_554 S
C253 N252 1.351 . S
C253 C254 1.433 1_665 S
C254 C245 1.430 . S
C254 N251 1.350 1_545 S
C254 C253 1.433 1_445 S
C255 C256 1.369 . S
C255 C257 1.419 . S
C255 H259 0.930 . S
C256 C255 1.369 . S
C256 C265 1.429 . S
C257 C255 1.419 . S
C257 C258 1.363 . S
C257 H260 0.929 . S
C258 C257 1.363 . S
C258 C264 1.428 . S
H259 C255 0.930 . S
H260 C257 0.929 . S
S261 N262 1.613 . S
S261 N263 1.610 . S
N262 S261 1.613 . S
N262 C265 1.350 . S
N263 S261 1.610 . S
N263 C264 1.351 . S
C264 C258 1.428 . S
C264 N263 1.351 . S
C264 C265 1.434 . S
C265 C256 1.429 . S
C265 N262 1.350 . S
C265 C264 1.434 . S
C266 C267 1.369 1_556 S
C266 C268 1.419 . S
C266 H270 0.930 . S
C267 C266 1.369 1_554 S
C267 C276 1.429 . S
C268 C266 1.419 . S
C268 C269 1.363 . S
C268 H271 0.929 . S
C269 C268 1.363 . S
C269 C275 1.428 1_556 S
H270 C266 0.930 . S
H271 C268 0.929 . S
S272 N273 1.613 . S
S272 N274 1.610 . S
N273 S272 1.613 . S
N273 C276 1.350 . S
N274 S272 1.610 . S
N274 C275 1.351 . S
C275 C269 1.428 1_554 S
C275 N274 1.351 . S
C275 C276 1.434 . S
C276 C267 1.429 . S
C276 N273 1.350 . S
C276 C275 1.434 . S
C277 C278 1.369 1_655 S
C277 C279 1.419 . S
C277 H281 0.930 . S
C278 C277 1.369 1_455 S
C278 C287 1.429 1_565 S
C279 C277 1.419 . S
C279 C280 1.363 1_565 S
C279 H282 0.929 . S
C280 C279 1.363 1_545 S
C280 C286 1.428 1_655 S
H281 C277 0.930 . S
H282 C279 0.929 . S
S283 N284 1.613 . S
S283 N285 1.610 . S
N284 S283 1.613 . S
N284 C287 1.350 . S
N285 S283 1.610 . S
N285 C286 1.351 . S
C286 C280 1.428 1_455 S
C286 N285 1.351 . S
C286 C287 1.434 . S
C287 C278 1.429 1_545 S
C287 N284 1.350 . S
C287 C286 1.434 . S
C113 C21 1.617 . S
C115 C8 1.643 . S
C124 C7 1.615 . S
C126 C22 1.645 . S
C135 C49 1.617 . S
C137 C36 1.643 . S
C146 C35 1.620 . S
C148 C50 1.642 . S
C157 C64 1.648 . S
C159 C77 1.615 . S
C168 C78 1.647 . S
C170 C63 1.619 . S
C179 C92 1.648 . S
C181 C105 1.616 . S
C190 C91 1.613 . S
C192 C106 1.646 . S
C201 C9 0.804 . S
C203 C51 0.812 . S
C212 C23 0.812 . S
C214 C37 0.800 . S
C223 C107 0.807 . S
C225 C65 0.812 . S
C234 C93 0.792 . S
C236 C79 0.799 . S
C245 C3 1.579 . S
C247 C59 1.578 . S
C256 C73 1.579 . S
C258 C17 1.577 . S
C267 C87 1.579 . S
C269 C31 1.577 . S
C278 C101 1.580 . S
C280 C45 1.577 . S
