# Generated by pormake.
# Topology wjz, (5)-cn, num edge types: 1
# Building blocks:
#     Node 0, Type 0, BuildingBlock: XOMCOT_clean_sbu_0, # of connection points: 5
#     Node 1, Type 0, BuildingBlock: XOMCOT_clean_sbu_0, # of connection points: 5
#     Node 2, Type 0, BuildingBlock: XOMCOT_clean_sbu_0, # of connection points: 5
#     Node 3, Type 0, BuildingBlock: XOMCOT_clean_sbu_0, # of connection points: 5
#     Node 4, Type 0, BuildingBlock: XOMCOT_clean_sbu_0, # of connection points: 5
#     Node 5, Type 0, BuildingBlock: XOMCOT_clean_sbu_0, # of connection points: 5
#     Node 6, Type 0, BuildingBlock: XOMCOT_clean_sbu_0, # of connection points: 5
#     Node 7, Type 0, BuildingBlock: XOMCOT_clean_sbu_0, # of connection points: 5
#     Node 8, Type 0, BuildingBlock: XOMCOT_clean_sbu_0, # of connection points: 5
#     Node 9, Type 0, BuildingBlock: XOMCOT_clean_sbu_0, # of connection points: 5
#     Node 10, Type 0, BuildingBlock: XOMCOT_clean_sbu_0, # of connection points: 5
#     Node 11, Type 0, BuildingBlock: XOMCOT_clean_sbu_0, # of connection points: 5
#     Edge 12, Type (0, 0), BuildingBlock: ZUJKAS_clean_linker_0, # of connection points: 2
#     Edge 13, Type (0, 0), BuildingBlock: ZUJKAS_clean_linker_0, # of connection points: 2
#     Edge 14, Type (0, 0), BuildingBlock: ZUJKAS_clean_linker_0, # of connection points: 2
#     Edge 15, Type (0, 0), BuildingBlock: ZUJKAS_clean_linker_0, # of connection points: 2
#     Edge 16, Type (0, 0), BuildingBlock: ZUJKAS_clean_linker_0, # of connection points: 2
#     Edge 17, Type (0, 0), BuildingBlock: ZUJKAS_clean_linker_0, # of connection points: 2
#     Edge 18, Type (0, 0), BuildingBlock: ZUJKAS_clean_linker_0, # of connection points: 2
#     Edge 19, Type (0, 0), BuildingBlock: ZUJKAS_clean_linker_0, # of connection points: 2
#     Edge 20, Type (0, 0), BuildingBlock: ZUJKAS_clean_linker_0, # of connection points: 2
#     Edge 21, Type (0, 0), BuildingBlock: ZUJKAS_clean_linker_0, # of connection points: 2
#     Edge 22, Type (0, 0), BuildingBlock: ZUJKAS_clean_linker_0, # of connection points: 2
#     Edge 23, Type (0, 0), BuildingBlock: ZUJKAS_clean_linker_0, # of connection points: 2
#     Edge 24, Type (0, 0), BuildingBlock: ZUJKAS_clean_linker_0, # of connection points: 2
#     Edge 25, Type (0, 0), BuildingBlock: ZUJKAS_clean_linker_0, # of connection points: 2
#     Edge 26, Type (0, 0), BuildingBlock: ZUJKAS_clean_linker_0, # of connection points: 2
#     Edge 27, Type (0, 0), BuildingBlock: ZUJKAS_clean_linker_0, # of connection points: 2
#     Edge 28, Type (0, 0), BuildingBlock: ZUJKAS_clean_linker_0, # of connection points: 2
#     Edge 29, Type (0, 0), BuildingBlock: ZUJKAS_clean_linker_0, # of connection points: 2
#     Edge 30, Type (0, 0), BuildingBlock: ZUJKAS_clean_linker_0, # of connection points: 2
#     Edge 31, Type (0, 0), BuildingBlock: ZUJKAS_clean_linker_0, # of connection points: 2
#     Edge 32, Type (0, 0), BuildingBlock: ZUJKAS_clean_linker_0, # of connection points: 2
#     Edge 33, Type (0, 0), BuildingBlock: ZUJKAS_clean_linker_0, # of connection points: 2
#     Edge 34, Type (0, 0), BuildingBlock: ZUJKAS_clean_linker_0, # of connection points: 2
#     Edge 35, Type (0, 0), BuildingBlock: ZUJKAS_clean_linker_0, # of connection points: 2
#     Edge 36, Type (0, 0), BuildingBlock: ZUJKAS_clean_linker_0, # of connection points: 2
#     Edge 37, Type (0, 0), BuildingBlock: ZUJKAS_clean_linker_0, # of connection points: 2
#     Edge 38, Type (0, 0), BuildingBlock: ZUJKAS_clean_linker_0, # of connection points: 2
#     Edge 39, Type (0, 0), BuildingBlock: ZUJKAS_clean_linker_0, # of connection points: 2
#     Edge 40, Type (0, 0), BuildingBlock: ZUJKAS_clean_linker_0, # of connection points: 2
#     Edge 41, Type (0, 0), BuildingBlock: ZUJKAS_clean_linker_0, # of connection points: 2
# Relax obj value: 0.147
# Max RMSD: 0.179
# Mean RMSD: 0.179
data_MOF--net-wjz--node1-XOMCOT_clean_sbu_0--edge1-ZUJKAS_clean_linker_0
_symmetry_space_group_name_H-M    P1
_symmetry_Int_Tables_number       1
_symmetry_cell_setting            triclinic
loop_
_symmetry_equiv_pos_as_xyz
'x, y, z'
_cell_length_a     93.027378
_cell_length_b     93.008333
_cell_length_c     21.973222
_cell_angle_alpha  89.986173
_cell_angle_beta   90.015137
_cell_angle_gamma 120.00356
loop_
_atom_site_label
_atom_site_type_symbol
_atom_site_fract_x
_atom_site_fract_y
_atom_site_fract_z
_atom_type_partial_charge
Co0 Co 0.32515 0.47093 0.0844 0.0
C1 C 0.32899 0.47492 0.21973 0.0
C2 C 0.33888 0.49811 0.17276 0.0
C3 C 0.34028 0.50121 0.23427 0.0
N4 N 0.33218 0.48165 0.16342 0.0
N5 N 0.334 0.48659 0.26369 0.0
H6 H 0.32262 0.46182 0.22904 0.0
H7 H 0.34201 0.50723 0.13712 0.0
C8 C 0.36092 0.49573 0.06975 0.0
O9 O 0.3635 0.49023 0.12136 0.0
N10 N 0.31793 0.46071 0.00582 0.0
C11 C 0.30864 0.44436 0.99415 0.0
C12 C 0.30674 0.44219 0.93212 0.0
C13 C 0.3215 0.4683 0.95124 0.0
N14 N 0.31486 0.45725 0.90519 0.0
C15 C 0.32762 0.44439 0.14048 0.0
C16 C 0.35346 0.4472 0.06998 0.0
C17 C 0.34719 0.43533 0.11661 0.0
C18 C 0.33384 0.43376 0.15119 0.0
C19 C 0.34681 0.45754 0.06077 0.0
N20 N 0.33477 0.45682 0.09846 0.0
H21 H 0.31666 0.44219 0.16479 0.0
H22 H 0.35123 0.46597 0.02259 0.0
H23 H 0.30385 0.43469 0.02834 0.0
H24 H 0.32878 0.48162 0.94552 0.0
O25 O 0.30335 0.45653 0.11653 0.0
O26 O 0.31174 0.48132 0.07571 0.0
O27 O 0.3463 0.48908 0.04723 0.0
C28 C 0.30006 0.46816 0.10257 0.0
H29 H 0.34484 0.51321 0.25562 0.0
H30 H 0.30025 0.43039 0.90871 0.0
H31 H 0.36349 0.44858 0.041 0.0
H32 H 0.32799 0.42415 0.18541 0.0
Co33 Co 0.85166 0.32665 0.24242 0.0
C34 C 0.85123 0.3301 0.37553 0.0
C35 C 0.84033 0.3428 0.3302 0.0
C36 C 0.83931 0.34444 0.39214 0.0
N37 N 0.84789 0.3339 0.32006 0.0
N38 N 0.84611 0.33639 0.4205 0.0
H39 H 0.85724 0.32284 0.38265 0.0
H40 H 0.83558 0.34747 0.29514 0.0
C41 C 0.86561 0.35778 0.16925 0.0
O42 O 0.87796 0.35551 0.15367 0.0
N43 N 0.85476 0.31895 0.16352 0.0
C44 C 0.85825 0.30676 0.15178 0.0
C45 C 0.85772 0.30424 0.08993 0.0
C46 C 0.8512 0.32289 0.10845 0.0
N47 N 0.85338 0.31448 0.06264 0.0
C48 C 0.88346 0.32903 0.26212 0.0
C49 C 0.90014 0.36224 0.29379 0.0
C50 C 0.909 0.35377 0.28976 0.0
C51 C 0.90039 0.33684 0.27517 0.0
C52 C 0.88321 0.35391 0.28082 0.0
N53 N 0.87527 0.33777 0.26144 0.0
H54 H 0.87695 0.3159 0.25394 0.0
H55 H 0.8765 0.36055 0.28568 0.0
H56 H 0.86017 0.29944 0.18541 0.0
H57 H 0.84638 0.33121 0.10203 0.0
O58 O 0.84513 0.30533 0.27749 0.0
O59 O 0.82803 0.31238 0.23354 0.0
O60 O 0.85392 0.34732 0.20338 0.0
C61 C 0.83003 0.3013 0.26271 0.0
H62 H 0.83353 0.35062 0.41453 0.0
H63 H 0.86018 0.29539 0.06709 0.0
H64 H 0.9062 0.37516 0.30736 0.0
H65 H 0.90669 0.32972 0.27321 0.0
Co66 Co 0.52404 0.85277 0.41325 0.0
C67 C 0.51976 0.8519 0.54644 0.0
C68 C 0.49629 0.84047 0.50014 0.0
C69 C 0.49344 0.83911 0.56197 0.0
N70 N 0.51278 0.84851 0.49064 0.0
N71 N 0.50821 0.84626 0.59112 0.0
H72 H 0.53302 0.85792 0.5539 0.0
H73 H 0.48698 0.83566 0.46468 0.0
C74 C 0.50672 0.86632 0.33884 0.0
O75 O 0.52134 0.87872 0.32332 0.0
N76 N 0.53513 0.85644 0.33461 0.0
C77 C 0.55122 0.8614 0.32334 0.0
C78 C 0.55351 0.86125 0.26153 0.0
C79 C 0.52776 0.85241 0.27926 0.0
N80 N 0.53875 0.85568 0.23376 0.0
C81 C 0.55305 0.88423 0.43967 0.0
C82 C 0.53638 0.90121 0.46384 0.0
C83 C 0.5538 0.90996 0.46437 0.0
C84 C 0.56209 0.90108 0.45402 0.0
C85 C 0.52786 0.88428 0.45046 0.0
N86 N 0.53621 0.87628 0.43392 0.0
H87 H 0.55963 0.87754 0.43508 0.0
H88 H 0.51446 0.87767 0.45258 0.0
H89 H 0.56064 0.86413 0.35714 0.0
H90 H 0.51456 0.84707 0.27231 0.0
O91 O 0.53899 0.84641 0.44799 0.0
O92 O 0.51507 0.82919 0.40292 0.0
O93 O 0.50553 0.8548 0.37387 0.0
C94 C 0.52819 0.83132 0.4321 0.0
H95 H 0.48138 0.83326 0.58359 0.0
H96 H 0.56508 0.86446 0.23899 0.0
H97 H 0.52931 0.90733 0.47267 0.0
H98 H 0.57547 0.907 0.45771 0.0
Co99 Co 0.67023 0.52511 0.57906 0.0
C100 C 0.66625 0.5212 0.71232 0.0
C101 C 0.65403 0.49764 0.66663 0.0
C102 C 0.65238 0.4949 0.72848 0.0
N103 N 0.66267 0.51412 0.65671 0.0
N104 N 0.66013 0.50972 0.75725 0.0
H105 H 0.67369 0.53445 0.71951 0.0
H106 H 0.64957 0.48826 0.63147 0.0
C107 C 0.63957 0.50776 0.50327 0.0
O108 O 0.6423 0.52241 0.48537 0.0
N109 N 0.6783 0.53592 0.50018 0.0
C110 C 0.69032 0.55172 0.48909 0.0
C111 C 0.69296 0.55395 0.42737 0.0
C112 C 0.6747 0.52855 0.4448 0.0
N113 N 0.68304 0.53938 0.3995 0.0
C114 C 0.66789 0.55451 0.59832 0.0
C115 C 0.6346 0.53813 0.62848 0.0
C116 C 0.64327 0.5555 0.62593 0.0
C117 C 0.66019 0.56371 0.61161 0.0
C118 C 0.64278 0.52943 0.6146 0.0
N119 N 0.65903 0.53759 0.59653 0.0
H120 H 0.68108 0.56107 0.59158 0.0
H121 H 0.636 0.51606 0.61843 0.0
H122 H 0.69746 0.56092 0.52306 0.0
H123 H 0.66624 0.51548 0.43758 0.0
O124 O 0.69136 0.53998 0.61504 0.0
O125 O 0.6846 0.5158 0.57188 0.0
O126 O 0.64968 0.50664 0.53967 0.0
C127 C 0.69552 0.52895 0.6012 0.0
H128 H 0.64604 0.48288 0.75038 0.0
H129 H 0.70192 0.5653 0.40494 0.0
H130 H 0.62156 0.53129 0.64047 0.0
H131 H 0.66752 0.57714 0.612 0.0
Co132 Co 0.14277 0.66928 0.75107 0.0
C133 C 0.14259 0.66546 0.88637 0.0
C134 C 0.15333 0.6529 0.83994 0.0
C135 C 0.15503 0.65157 0.90146 0.0
N136 N 0.14508 0.66119 0.83018 0.0
N137 N 0.14828 0.65951 0.93065 0.0
H138 H 0.13806 0.67388 0.89515 0.0
H139 H 0.15847 0.64871 0.80463 0.0
C140 C 0.13022 0.63343 0.73169 0.0
O141 O 0.12116 0.63091 0.7807 0.0
N142 N 0.14117 0.67762 0.67262 0.0
C143 C 0.13506 0.68777 0.66131 0.0
C144 C 0.13502 0.68994 0.59938 0.0
C145 C 0.14489 0.67383 0.61785 0.0
N146 N 0.14116 0.68113 0.57214 0.0
C147 C 0.11303 0.6659 0.80487 0.0
C148 C 0.09116 0.64275 0.723 0.0
C149 C 0.08483 0.64761 0.7717 0.0
C150 C 0.09603 0.65964 0.81216 0.0
C151 C 0.10825 0.64939 0.71737 0.0
N152 N 0.11892 0.66001 0.76031 0.0
H153 H 0.1214 0.67592 0.83383 0.0
H154 H 0.11289 0.64597 0.6782 0.0
H155 H 0.13063 0.69294 0.69566 0.0
H156 H 0.1497 0.66548 0.61151 0.0
O157 O 0.15006 0.69076 0.78599 0.0
O158 O 0.16668 0.68235 0.74741 0.0
O159 O 0.13962 0.64822 0.71213 0.0
C160 C 0.16508 0.69389 0.77487 0.0
H161 H 0.16115 0.64559 0.92283 0.0
H162 H 0.13074 0.69738 0.57626 0.0
H163 H 0.08301 0.63375 0.6898 0.0
H164 H 0.09174 0.66443 0.84848 0.0
Co165 Co 0.47066 0.14267 0.91813 0.0
C166 C 0.47387 0.14164 0.05333 0.0
C167 C 0.49719 0.1514 0.00751 0.0
C168 C 0.50007 0.15266 0.06913 0.0
N169 N 0.48068 0.14399 0.99728 0.0
N170 N 0.48538 0.14656 0.09787 0.0
H171 H 0.46096 0.13735 0.06188 0.0
H172 H 0.50662 0.15639 0.97256 0.0
C173 C 0.49282 0.12879 0.89707 0.0
O174 O 0.48583 0.11935 0.94494 0.0
N175 N 0.46116 0.14207 0.83969 0.0
C176 C 0.44509 0.13682 0.82768 0.0
C177 C 0.44326 0.13754 0.76578 0.0
C178 C 0.46892 0.14598 0.78543 0.0
N179 N 0.45825 0.14326 0.73927 0.0
C180 C 0.44334 0.11321 0.96997 0.0
C181 C 0.44387 0.0912 0.88685 0.0
C182 C 0.43273 0.08497 0.93574 0.0
C183 C 0.43225 0.09626 0.97672 0.0
C184 C 0.45471 0.10825 0.88188 0.0
N185 N 0.45517 0.11894 0.92556 0.0
H186 H 0.44203 0.1217 0.99943 0.0
H187 H 0.46283 0.11282 0.84283 0.0
H188 H 0.43534 0.13239 0.86146 0.0
H189 H 0.48207 0.15064 0.77993 0.0
O190 O 0.45728 0.15085 0.9539 0.0
O191 O 0.4826 0.16659 0.91612 0.0
O192 O 0.48799 0.13873 0.87865 0.0
C193 C 0.46975 0.16564 0.94368 0.0
H194 H 0.51211 0.15849 0.09097 0.0
H195 H 0.43169 0.13362 0.74208 0.0
H196 H 0.44444 0.08299 0.85323 0.0
H197 H 0.42322 0.09206 0.01321 0.0
Co198 Co 0.52239 0.66879 0.74986 0.0
C199 C 0.51845 0.66507 0.61453 0.0
C200 C 0.49528 0.65573 0.66117 0.0
C201 C 0.49227 0.65463 0.59965 0.0
N202 N 0.51166 0.66187 0.67077 0.0
N203 N 0.50687 0.66055 0.57035 0.0
H204 H 0.53157 0.6717 0.60557 0.0
H205 H 0.48617 0.65279 0.69665 0.0
C206 C 0.49634 0.63362 0.76607 0.0
O207 O 0.50181 0.63066 0.71514 0.0
N208 N 0.53273 0.67603 0.82836 0.0
C209 C 0.54915 0.68477 0.83951 0.0
C210 C 0.55153 0.68654 0.90148 0.0
C211 C 0.5253 0.67269 0.88325 0.0
N212 N 0.53653 0.67891 0.92887 0.0
C213 C 0.54734 0.66319 0.69542 0.0
C214 C 0.54294 0.6379 0.77292 0.0
C215 C 0.55452 0.64258 0.72571 0.0
C216 C 0.55695 0.65565 0.68743 0.0
C217 C 0.53371 0.64586 0.77946 0.0
N218 N 0.53516 0.65759 0.73854 0.0
H219 H 0.55016 0.6739 0.66822 0.0
H220 H 0.52557 0.6427 0.81828 0.0
H221 H 0.55871 0.68925 0.805 0.0
H222 H 0.51201 0.66543 0.88969 0.0
O223 O 0.53791 0.69008 0.7161 0.0
O224 O 0.51345 0.6835 0.75607 0.0
O225 O 0.50335 0.64835 0.78788 0.0
C226 C 0.52696 0.69444 0.7287 0.0
H227 H 0.48029 0.65016 0.57835 0.0
H228 H 0.56339 0.69292 0.92451 0.0
H229 H 0.54127 0.62842 0.80536 0.0
H230 H 0.56618 0.66002 0.6516 0.0
Co231 Co 0.85197 0.52478 0.91945 0.0
C232 C 0.85057 0.52048 0.78384 0.0
C233 C 0.83484 0.49787 0.83154 0.0
C234 C 0.83263 0.49472 0.77013 0.0
N235 N 0.84635 0.51396 0.84033 0.0
N236 N 0.84254 0.50896 0.74018 0.0
H237 H 0.85859 0.53343 0.77419 0.0
H238 H 0.82829 0.48907 0.86759 0.0
C239 C 0.86046 0.49809 0.92625 0.0
O240 O 0.86703 0.50277 0.87184 0.0
N241 N 0.85685 0.53517 0.99819 0.0
C242 C 0.86544 0.55157 0.00989 0.0
C243 C 0.86652 0.55379 0.072 0.0
C244 C 0.85269 0.52762 0.0528 0.0
N245 N 0.8585 0.53872 0.09883 0.0
C246 C 0.88101 0.55036 0.85985 0.0
C247 C 0.90383 0.5454 0.92298 0.0
C248 C 0.9095 0.5577 0.87796 0.0
C249 C 0.89785 0.56029 0.84685 0.0
C250 C 0.88687 0.53576 0.93452 0.0
N251 N 0.87557 0.53761 0.9006 0.0
H252 H 0.87241 0.55334 0.8384 0.0
H253 H 0.88295 0.52713 0.972 0.0
H254 H 0.87062 0.5612 0.97564 0.0
H255 H 0.84582 0.51428 0.05863 0.0
O256 O 0.84543 0.5402 0.89102 0.0
O257 O 0.82852 0.5158 0.93347 0.0
O258 O 0.8542 0.50582 0.95351 0.0
C259 C 0.83045 0.52923 0.90737 0.0
H260 H 0.82428 0.48287 0.74934 0.0
H261 H 0.8726 0.5656 0.09551 0.0
H262 H 0.91241 0.54322 0.94929 0.0
H263 H 0.90174 0.57023 0.81396 0.0
Co264 Co 0.32635 0.85245 0.08539 0.0
C265 C 0.32957 0.85142 0.9498 0.0
C266 C 0.33687 0.836 0.99738 0.0
C267 C 0.33801 0.83396 0.93595 0.0
N268 N 0.33191 0.84721 0.00626 0.0
N269 N 0.33336 0.84363 0.90617 0.0
H270 H 0.32488 0.85964 0.94004 0.0
H271 H 0.33916 0.82945 0.03336 0.0
C272 C 0.36182 0.86193 0.09264 0.0
O273 O 0.36363 0.86852 0.03829 0.0
N274 N 0.3205 0.85695 0.16414 0.0
C275 C 0.31226 0.86508 0.17612 0.0
C276 C 0.3107 0.86566 0.23824 0.0
C277 C 0.32379 0.8526 0.21856 0.0
N278 N 0.31797 0.85781 0.26486 0.0
C279 C 0.32867 0.88107 0.02634 0.0
C280 C 0.35615 0.90454 0.08914 0.0
C281 C 0.34904 0.90983 0.04457 0.0
C282 C 0.33497 0.89785 0.01361 0.0
C283 C 0.34942 0.88761 0.10042 0.0
N284 N 0.33641 0.87602 0.06671 0.0
H285 H 0.3172 0.87217 0.00488 0.0
H286 H 0.35447 0.88395 0.13756 0.0
H287 H 0.3078 0.87031 0.14208 0.0
H288 H 0.33013 0.8456 0.22393 0.0
O289 O 0.30423 0.84518 0.0568 0.0
O290 O 0.3125 0.82889 0.09924 0.0
O291 O 0.34778 0.85538 0.11969 0.0
C292 C 0.30072 0.83034 0.07314 0.0
H293 H 0.34139 0.82554 0.91488 0.0
H294 H 0.30491 0.87165 0.26185 0.0
H295 H 0.36679 0.91337 0.11532 0.0
H296 H 0.32858 0.90141 0.98101 0.0
Co297 Co 0.47209 0.32775 0.25659 0.0
C298 C 0.47579 0.33174 0.12122 0.0
C299 C 0.49906 0.34415 0.16798 0.0
C300 C 0.50213 0.34571 0.10648 0.0
N301 N 0.48251 0.33578 0.17752 0.0
N302 N 0.48746 0.33788 0.07709 0.0
H303 H 0.46283 0.32347 0.11215 0.0
H304 H 0.50836 0.34833 0.20345 0.0
C305 C 0.49476 0.36384 0.27404 0.0
O306 O 0.48808 0.36599 0.22463 0.0
N307 N 0.46216 0.31951 0.33506 0.0
C308 C 0.44596 0.30907 0.34624 0.0
C309 C 0.44372 0.30697 0.40819 0.0
C310 C 0.46962 0.32355 0.38991 0.0
N311 N 0.4586 0.31611 0.43556 0.0
C312 C 0.44499 0.32961 0.20157 0.0
C313 C 0.44578 0.35323 0.27984 0.0
C314 C 0.43449 0.34766 0.23133 0.0
C315 C 0.43391 0.3354 0.19275 0.0
C316 C 0.4566 0.34707 0.28694 0.0
N317 N 0.45692 0.33625 0.24557 0.0
H318 H 0.44354 0.31939 0.17423 0.0
H319 H 0.46473 0.35103 0.32601 0.0
H320 H 0.43641 0.30361 0.31177 0.0
H321 H 0.48273 0.33213 0.39631 0.0
O322 O 0.45857 0.30598 0.22257 0.0
O323 O 0.48367 0.31542 0.26229 0.0
O324 O 0.48954 0.34919 0.2948 0.0
C325 C 0.4708 0.30346 0.23499 0.0
H326 H 0.51424 0.35186 0.08523 0.0
H327 H 0.43204 0.29932 0.43122 0.0
H328 H 0.44642 0.36241 0.31171 0.0
H329 H 0.42476 0.33008 0.15675 0.0
Co330 Co 0.14282 0.47147 0.42669 0.0
C331 C 0.14296 0.47541 0.29343 0.0
C332 C 0.15419 0.49897 0.33913 0.0
C333 C 0.15546 0.50171 0.27726 0.0
N334 N 0.14632 0.48249 0.34906 0.0
N335 N 0.14845 0.48689 0.2485 0.0
H336 H 0.13719 0.46216 0.28625 0.0
H337 H 0.15908 0.50835 0.37429 0.0
C338 C 0.12977 0.48903 0.50317 0.0
O339 O 0.11786 0.47449 0.52195 0.0
N340 N 0.13994 0.46061 0.50547 0.0
C341 C 0.1355 0.44463 0.51656 0.0
C342 C 0.13586 0.44235 0.57827 0.0
C343 C 0.14396 0.46798 0.56081 0.0
N344 N 0.14107 0.45704 0.60614 0.0
C345 C 0.11136 0.4421 0.40396 0.0
C346 C 0.09393 0.45832 0.37996 0.0
C347 C 0.08542 0.44091 0.37995 0.0
C348 C 0.09446 0.43282 0.39077 0.0
C349 C 0.11087 0.46708 0.39301 0.0
N350 N 0.11917 0.45896 0.4087 0.0
H351 H 0.11821 0.43567 0.40828 0.0
H352 H 0.1173 0.48047 0.39049 0.0
H353 H 0.13296 0.43529 0.48264 0.0
H354 H 0.14896 0.48113 0.56795 0.0
O355 O 0.14925 0.45669 0.39095 0.0
O356 O 0.16648 0.48086 0.43457 0.0
O357 O 0.14076 0.48995 0.46598 0.0
C358 C 0.16439 0.46777 0.40519 0.0
H359 H 0.16125 0.51374 0.25535 0.0
H360 H 0.13297 0.43085 0.60068 0.0
H361 H 0.08758 0.46516 0.37065 0.0
H362 H 0.08861 0.41943 0.38793 0.0
Co363 Co 0.66908 0.14492 0.59239 0.0
C364 C 0.66519 0.14479 0.45932 0.0
C365 C 0.65262 0.15583 0.50446 0.0
C366 C 0.6511 0.15695 0.44249 0.0
N367 N 0.66139 0.14816 0.51477 0.0
N368 N 0.6591 0.15008 0.41417 0.0
H369 H 0.67251 0.13883 0.45238 0.0
H370 H 0.64812 0.16079 0.53939 0.0
C371 C 0.63943 0.13267 0.673 0.0
O372 O 0.64258 0.12118 0.69272 0.0
N373 N 0.67719 0.14228 0.67109 0.0
C374 C 0.6869 0.13572 0.6841 0.0
C375 C 0.68975 0.13674 0.74587 0.0
C376 C 0.67507 0.14798 0.72499 0.0
N377 N 0.68214 0.14431 0.77166 0.0
C378 C 0.66685 0.11356 0.56571 0.0
C379 C 0.63278 0.0957 0.55246 0.0
C380 C 0.64175 0.08731 0.54786 0.0
C381 C 0.6591 0.09661 0.55293 0.0
C382 C 0.64109 0.1127 0.56416 0.0
N383 N 0.65778 0.1212 0.57531 0.0
H384 H 0.6802 0.1206 0.56577 0.0
H385 H 0.634 0.119 0.56399 0.0
H386 H 0.69202 0.13083 0.65168 0.0
H387 H 0.66845 0.15472 0.72996 0.0
O388 O 0.69023 0.15117 0.55625 0.0
O389 O 0.68347 0.16861 0.59903 0.0
O390 O 0.64875 0.14311 0.63275 0.0
C391 C 0.69437 0.16637 0.5697 0.0
H392 H 0.64518 0.16299 0.42012 0.0
H393 H 0.69665 0.13198 0.7699 0.0
H394 H 0.61941 0.08924 0.54761 0.0
H395 H 0.6667 0.09095 0.54598 0.0
H396 H 0.30996 0.45965 0.32281 0.0
H397 H 0.3068 0.45531 0.43281 0.0
H398 H 0.35042 0.50312 0.46171 0.0
H399 H 0.35368 0.50755 0.35164 0.0
H400 H 0.32888 0.4545 0.51571 0.0
H401 H 0.31606 0.50527 0.57101 0.0
H402 H 0.31516 0.49792 0.4943 0.0
H403 H 0.33485 0.51184 0.52876 0.0
C404 C 0.31895 0.4692 0.35249 0.0
C405 C 0.33208 0.48397 0.32848 0.0
C406 C 0.31706 0.46674 0.41534 0.0
C407 C 0.32822 0.479 0.45537 0.0
C408 C 0.34144 0.49367 0.43163 0.0
H409 H 0.33969 0.48417 0.8482 0.0
H410 H 0.3429 0.4895 0.7387 0.0
C411 C 0.3433 0.49617 0.36877 0.0
C412 C 0.32628 0.47619 0.52192 0.0
H413 H 0.32024 0.49158 0.65456 0.0
C414 C 0.32691 0.46255 0.54608 0.0
C415 C 0.32376 0.48676 0.56134 0.0
C416 C 0.32226 0.50118 0.53762 0.0
C417 C 0.32531 0.45931 0.60879 0.0
C418 C 0.32278 0.46986 0.64815 0.0
C419 C 0.32221 0.48354 0.62412 0.0
C420 C 0.32055 0.46679 0.71444 0.0
C421 C 0.32661 0.44478 0.63259 0.0
C422 C 0.30675 0.45241 0.73697 0.0
C423 C 0.30481 0.44936 0.7995 0.0
C424 C 0.31661 0.46069 0.84077 0.0
C425 C 0.33027 0.47526 0.81793 0.0
C426 C 0.33219 0.4783 0.75533 0.0
H427 H 0.33243 0.44036 0.59884 0.0
H428 H 0.33398 0.44813 0.67529 0.0
H429 H 0.31399 0.43435 0.64278 0.0
H430 H 0.29746 0.44354 0.70612 0.0
H431 H 0.29398 0.43819 0.81548 0.0
H432 H 0.85564 0.34131 0.00444 0.0
H433 H 0.85335 0.34455 0.89522 0.0
H434 H 0.84575 0.29545 0.86434 0.0
H435 H 0.84734 0.2918 0.97364 0.0
H436 H 0.87314 0.34388 0.80433 0.0
H437 H 0.80796 0.29413 0.76764 0.0
H438 H 0.81638 0.30164 0.84247 0.0
H439 H 0.82054 0.28702 0.80406 0.0
C440 C 0.85315 0.33104 0.9747 0.0
C441 C 0.85157 0.31624 0.99818 0.0
C442 C 0.85197 0.33298 0.91213 0.0
C443 C 0.84915 0.32016 0.87167 0.0
C444 C 0.8476 0.30539 0.89479 0.0
H445 H 0.84569 0.31041 0.4783 0.0
H446 H 0.84689 0.30681 0.58822 0.0
C447 C 0.84872 0.30341 0.95738 0.0
C448 C 0.84853 0.32253 0.80512 0.0
H449 H 0.8242 0.30636 0.67885 0.0
C450 C 0.8624 0.33574 0.77695 0.0
C451 C 0.83451 0.31188 0.76945 0.0
C452 C 0.81894 0.29797 0.79745 0.0
C453 C 0.86275 0.33842 0.71395 0.0
C454 C 0.84879 0.32771 0.67833 0.0
C455 C 0.83491 0.31451 0.70637 0.0
C456 C 0.84831 0.33006 0.61183 0.0
C457 C 0.87818 0.35247 0.68575 0.0
C458 C 0.84858 0.34426 0.58882 0.0
C459 C 0.84792 0.34637 0.52608 0.0
C460 C 0.847 0.33431 0.48517 0.0
C461 C 0.84668 0.32006 0.50848 0.0
C462 C 0.84724 0.31792 0.57126 0.0
H463 H 0.88906 0.35713 0.71666 0.0
H464 H 0.88122 0.3485 0.64227 0.0
H465 H 0.876 0.36292 0.6757 0.0
H466 H 0.84917 0.35367 0.61945 0.0
H467 H 0.84828 0.35751 0.50957 0.0
H468 H 0.50977 0.83452 0.17662 0.0
H469 H 0.5044 0.83223 0.067 0.0
H470 H 0.55487 0.87082 0.03436 0.0
H471 H 0.56034 0.87318 0.14357 0.0
H472 H 0.50649 0.85587 0.98655 0.0
H473 H 0.55034 0.83473 0.91904 0.0
H474 H 0.54432 0.8347 0.99714 0.0
H475 H 0.55994 0.85362 0.96232 0.0
C476 C 0.51973 0.84253 0.14619 0.0
C477 C 0.53554 0.85395 0.16906 0.0
C478 C 0.51665 0.84115 0.08347 0.0
C479 C 0.52931 0.85114 0.04234 0.0
C480 C 0.54503 0.86266 0.06503 0.0
H481 H 0.53611 0.86809 0.65247 0.0
H482 H 0.54088 0.86908 0.76221 0.0
C483 C 0.54814 0.86399 0.12762 0.0
C484 C 0.52595 0.84993 0.97585 0.0
H485 H 0.53894 0.84316 0.83884 0.0
C486 C 0.51349 0.85297 0.95428 0.0
C487 C 0.53511 0.84616 0.93375 0.0
C488 C 0.54806 0.84196 0.95418 0.0
C489 C 0.51022 0.85271 0.89173 0.0
C490 C 0.51951 0.84912 0.84968 0.0
C491 C 0.53189 0.84599 0.87119 0.0
C492 C 0.51652 0.84848 0.78313 0.0
C493 C 0.49711 0.85665 0.871 0.0
C494 C 0.50131 0.83644 0.7584 0.0
C495 C 0.49858 0.83574 0.69562 0.0
C496 C 0.51102 0.84706 0.65608 0.0
C497 C 0.5263 0.85906 0.68118 0.0
C498 C 0.52903 0.85971 0.74401 0.0
H499 H 0.49387 0.86287 0.90725 0.0
H500 H 0.50131 0.86475 0.83012 0.0
H501 H 0.48568 0.84493 0.85871 0.0
H502 H 0.49161 0.82743 0.78765 0.0
H503 H 0.48679 0.82613 0.67812 0.0
H504 H 0.65862 0.48829 0.84461 0.0
H505 H 0.66209 0.49318 0.95404 0.0
H506 H 0.67078 0.54283 0.92735 0.0
H507 H 0.66665 0.53784 0.81794 0.0
H508 H 0.68915 0.5163 0.01737 0.0
H509 H 0.63533 0.5253 0.05847 0.0
H510 H 0.63797 0.51677 0.98839 0.0
H511 H 0.6493 0.53882 0.00117 0.0
C512 C 0.66098 0.50017 0.86185 0.0
C513 C 0.66221 0.51262 0.82212 0.0
C514 C 0.6631 0.50298 0.92455 0.0
C515 C 0.66644 0.51827 0.94905 0.0
C516 C 0.66787 0.53081 0.90964 0.0
H517 H 0.68802 0.5614 0.30998 0.0
H518 H 0.68442 0.55601 0.20055 0.0
C519 C 0.6657 0.52799 0.84689 0.0
C520 C 0.66884 0.5212 0.01567 0.0
H521 H 0.65426 0.53178 0.14056 0.0
C522 C 0.68146 0.51959 0.04438 0.0
C523 C 0.65877 0.52547 0.05088 0.0
C524 C 0.64448 0.52654 0.02336 0.0
C525 C 0.68449 0.52244 0.10709 0.0
C526 C 0.67454 0.52686 0.14206 0.0
C527 C 0.6619 0.52843 0.11349 0.0
C528 C 0.67713 0.53007 0.20835 0.0
C529 C 0.69853 0.52106 0.1353 0.0
C530 C 0.67415 0.51723 0.24903 0.0
C531 C 0.67623 0.52028 0.31171 0.0
C532 C 0.68134 0.53623 0.33482 0.0
C533 C 0.68434 0.54905 0.29373 0.0
C534 C 0.68217 0.54597 0.23119 0.0
H535 H 0.70713 0.52097 0.10038 0.0
H536 H 0.70572 0.53149 0.16727 0.0
H537 H 0.69335 0.50931 0.16152 0.0
H538 H 0.67005 0.50482 0.23234 0.0
H539 H 0.67391 0.51016 0.34195 0.0
H540 H 0.12665 0.66537 0.99337 0.0
H541 H 0.12645 0.66977 0.10297 0.0
H542 H 0.16914 0.66366 0.12478 0.0
H543 H 0.16961 0.65948 0.0152 0.0
H544 H 0.1426 0.64485 0.20746 0.0
H545 H 0.15969 0.71124 0.20047 0.0
H546 H 0.14254 0.69775 0.15252 0.0
H547 H 0.16286 0.70089 0.13669 0.0
C548 C 0.13613 0.66518 0.02128 0.0
C549 C 0.14817 0.66213 0.99531 0.0
C550 C 0.13599 0.66768 0.08392 0.0
C551 C 0.14791 0.66724 0.12174 0.0
C552 C 0.15986 0.66408 0.09622 0.0
H553 H 0.16313 0.67458 0.51526 0.0
H554 H 0.16521 0.67109 0.4058 0.0
C555 C 0.16004 0.6616 0.03359 0.0
C556 C 0.14763 0.66964 0.1882 0.0
H557 H 0.15106 0.69761 0.2959 0.0
C558 C 0.14455 0.65641 0.22696 0.0
C559 C 0.15017 0.68473 0.21324 0.0
C560 C 0.15414 0.69954 0.17373 0.0
C561 C 0.1435 0.65772 0.29025 0.0
C562 C 0.14594 0.67279 0.31532 0.0
C563 C 0.14918 0.68607 0.27651 0.0
C564 C 0.14484 0.67495 0.38163 0.0
C565 C 0.1393 0.64281 0.32949 0.0
C566 C 0.13297 0.67868 0.40415 0.0
C567 C 0.13182 0.68076 0.46653 0.0
C568 C 0.14254 0.6792 0.50769 0.0
C569 C 0.15452 0.6756 0.48489 0.0
C570 C 0.15571 0.67359 0.42238 0.0
H571 H 0.13372 0.63115 0.30248 0.0
H572 H 0.15082 0.64443 0.35091 0.0
H573 H 0.13053 0.64145 0.36631 0.0
H574 H 0.12447 0.6798 0.37343 0.0
H575 H 0.12232 0.68331 0.48254 0.0
H576 H 0.48333 0.1418 0.6818 0.0
H577 H 0.48868 0.14375 0.57243 0.0
H578 H 0.44625 0.14978 0.54079 0.0
H579 H 0.44113 0.14842 0.65023 0.0
H580 H 0.4673 0.12266 0.48341 0.0
H581 H 0.4826 0.18765 0.44145 0.0
H582 H 0.48234 0.17978 0.51681 0.0
H583 H 0.46323 0.1752 0.48014 0.0
C584 C 0.47532 0.14387 0.65181 0.0
C585 C 0.46182 0.14501 0.67495 0.0
C586 C 0.47833 0.14486 0.58923 0.0
C587 C 0.46799 0.14712 0.54861 0.0
C588 C 0.45457 0.14835 0.57144 0.0
H589 H 0.46082 0.14894 0.15548 0.0
H590 H 0.45648 0.14868 0.26536 0.0
C591 C 0.45154 0.14736 0.634 0.0
C592 C 0.47076 0.14734 0.48217 0.0
H593 H 0.47858 0.17094 0.35417 0.0
C594 C 0.46987 0.13325 0.45516 0.0
C595 C 0.47403 0.16116 0.44551 0.0
C596 C 0.47576 0.17687 0.47241 0.0
C597 C 0.4719 0.13248 0.39222 0.0
C598 C 0.47516 0.14628 0.35556 0.0
C599 C 0.47604 0.16038 0.3825 0.0
C600 C 0.47779 0.14636 0.28913 0.0
C601 C 0.47018 0.11677 0.36528 0.0
C602 C 0.49131 0.14531 0.26625 0.0
C603 C 0.49377 0.14535 0.20354 0.0
C604 C 0.48277 0.1465 0.16253 0.0
C605 C 0.46933 0.14772 0.18571 0.0
C606 C 0.46691 0.14772 0.24848 0.0
H607 H 0.46366 0.10604 0.39668 0.0
H608 H 0.46331 0.1137 0.3215 0.0
H609 H 0.48272 0.11858 0.35624 0.0
H610 H 0.50001 0.14453 0.29694 0.0
H611 H 0.50418 0.14431 0.18713 0.0
H612 H 0.53264 0.66188 0.5079 0.0
H613 H 0.53754 0.66561 0.39824 0.0
H614 H 0.49216 0.66692 0.37564 0.0
H615 H 0.48748 0.66382 0.4853 0.0
H616 H 0.51762 0.64529 0.30516 0.0
H617 H 0.52589 0.7085 0.28495 0.0
H618 H 0.52649 0.69956 0.35718 0.0
H619 H 0.50692 0.69373 0.32154 0.0
C620 C 0.52383 0.66321 0.47978 0.0
C621 C 0.50971 0.66263 0.50559 0.0
C622 C 0.52659 0.66523 0.41707 0.0
C623 C 0.51534 0.66679 0.37897 0.0
C624 C 0.50117 0.66606 0.40437 0.0
H625 H 0.5092 0.67539 0.98673 0.0
H626 H 0.50362 0.67192 0.09634 0.0
C627 C 0.4984 0.66407 0.46708 0.0
C628 C 0.5182 0.66867 0.31243 0.0
H629 H 0.52398 0.6944 0.19255 0.0
C630 C 0.51908 0.65605 0.28055 0.0
C631 C 0.52006 0.68271 0.2805 0.0
C632 C 0.51995 0.69698 0.31277 0.0
C633 C 0.52159 0.65702 0.21738 0.0
C634 C 0.52345 0.67106 0.18553 0.0
C635 C 0.52249 0.68363 0.21725 0.0
C636 C 0.52678 0.67307 0.11937 0.0
C637 C 0.52199 0.64292 0.18502 0.0
C638 C 0.54171 0.67504 0.09636 0.0
C639 C 0.54492 0.677 0.03395 0.0
C640 C 0.53326 0.67706 0.99334 0.0
C641 C 0.51834 0.67519 0.0167 0.0
C642 C 0.51517 0.67331 0.07925 0.0
H643 H 0.51656 0.63148 0.21325 0.0
H644 H 0.51513 0.64006 0.14125 0.0
H645 H 0.53506 0.64658 0.17481 0.0
H646 H 0.55091 0.67509 0.12676 0.0
H647 H 0.55644 0.67824 0.01747 0.0
H648 H 0.86864 0.53308 0.67777 0.0
H649 H 0.87063 0.53777 0.56801 0.0
H650 H 0.82187 0.49507 0.54466 0.0
H651 H 0.81946 0.49068 0.65455 0.0
H652 H 0.86939 0.51705 0.47627 0.0
H653 H 0.81808 0.53082 0.45155 0.0
H654 H 0.82681 0.53045 0.52453 0.0
H655 H 0.81209 0.51136 0.48816 0.0
C656 C 0.85822 0.52483 0.64951 0.0
C657 C 0.84383 0.51158 0.67523 0.0
C658 C 0.85943 0.52746 0.5867 0.0
C659 C 0.84629 0.51692 0.54833 0.0
C660 C 0.83202 0.50355 0.57359 0.0
H661 H 0.83337 0.51214 0.1555 0.0
H662 H 0.83053 0.50631 0.26491 0.0
C663 C 0.83076 0.50094 0.63645 0.0
C664 C 0.84773 0.51974 0.48174 0.0
H665 H 0.8299 0.52771 0.36022 0.0
C666 C 0.8608 0.51944 0.4509 0.0
C667 C 0.83648 0.52283 0.44884 0.0
C668 C 0.82266 0.52405 0.47995 0.0
C669 C 0.86281 0.52199 0.38783 0.0
C670 C 0.85157 0.52508 0.35503 0.0
C671 C 0.83845 0.52528 0.38569 0.0
C672 C 0.85343 0.52849 0.28895 0.0
C673 C 0.87682 0.52116 0.35659 0.0
C674 C 0.86716 0.54295 0.26657 0.0
C675 C 0.86883 0.5463 0.20423 0.0
C676 C 0.85676 0.53525 0.16314 0.0
C677 C 0.84298 0.52078 0.18585 0.0
C678 C 0.84128 0.51748 0.2483 0.0
H679 H 0.88196 0.51499 0.38545 0.0
H680 H 0.87259 0.51436 0.31275 0.0
H681 H 0.88697 0.53395 0.34663 0.0
H682 H 0.87656 0.5517 0.29741 0.0
H683 H 0.87965 0.55746 0.18817 0.0
H684 H 0.34125 0.85308 0.32142 0.0
H685 H 0.34354 0.84945 0.43044 0.0
H686 H 0.30075 0.85475 0.4638 0.0
H687 H 0.29795 0.85774 0.35482 0.0
H688 H 0.34841 0.8714 0.52322 0.0
H689 H 0.28915 0.81242 0.55628 0.0
H690 H 0.29788 0.82008 0.48192 0.0
H691 H 0.28662 0.8284 0.52078 0.0
C692 C 0.33214 0.85319 0.35173 0.0
C693 C 0.31935 0.85561 0.32915 0.0
C694 C 0.33355 0.85123 0.4141 0.0
C695 C 0.32216 0.85157 0.45506 0.0
C696 C 0.30947 0.85411 0.43285 0.0
H697 H 0.31169 0.84996 0.84583 0.0
H698 H 0.30954 0.85209 0.73563 0.0
C699 C 0.30802 0.85603 0.37052 0.0
C700 C 0.32391 0.84989 0.52125 0.0
H701 H 0.30343 0.82686 0.64606 0.0
C702 C 0.33864 0.86159 0.55004 0.0
C703 C 0.31113 0.83707 0.55604 0.0
C704 C 0.29536 0.82368 0.52715 0.0
C705 C 0.34077 0.86105 0.61305 0.0
C706 C 0.3279 0.84837 0.64785 0.0
C707 C 0.31323 0.83659 0.61909 0.0
C708 C 0.32938 0.84718 0.7144 0.0
C709 C 0.35659 0.87427 0.64219 0.0
C710 C 0.34116 0.84356 0.73871 0.0
C711 C 0.34245 0.84238 0.80164 0.0
C712 C 0.33199 0.84481 0.8413 0.0
C713 C 0.32012 0.84831 0.81662 0.0
C714 C 0.31879 0.84942 0.75369 0.0
H715 H 0.36366 0.88505 0.61146 0.0
H716 H 0.35387 0.87874 0.68515 0.0
H717 H 0.3646 0.86894 0.65343 0.0
H718 H 0.34929 0.84158 0.70898 0.0
H719 H 0.35177 0.83977 0.8193 0.0
H720 H 0.50886 0.33844 0.99169 0.0
H721 H 0.50443 0.33526 0.88182 0.0
H722 H 0.45537 0.32842 0.90523 0.0
H723 H 0.45992 0.33222 0.01495 0.0
H724 H 0.48033 0.30851 0.81693 0.0
H725 H 0.47549 0.36484 0.77667 0.0
H726 H 0.48343 0.36138 0.84677 0.0
H727 H 0.46142 0.3512 0.83351 0.0
C728 C 0.49721 0.3365 0.97354 0.0
C729 C 0.48479 0.33571 0.01227 0.0
C730 C 0.49466 0.33456 0.91071 0.0
C731 C 0.47968 0.33187 0.88533 0.0
C732 C 0.46716 0.33082 0.92379 0.0
H733 H 0.43731 0.31345 0.52479 0.0
H734 H 0.44284 0.31694 0.63407 0.0
C735 C 0.46971 0.33279 0.98661 0.0
C736 C 0.47705 0.32984 0.81868 0.0
H737 H 0.46821 0.34596 0.694 0.0
C738 C 0.47779 0.31675 0.78993 0.0
C739 C 0.47376 0.34065 0.78366 0.0
C740 C 0.47363 0.35541 0.81153 0.0
C741 C 0.47494 0.31393 0.72718 0.0
C742 C 0.47146 0.32462 0.69236 0.0
C743 C 0.47084 0.33777 0.721 0.0
C744 C 0.46819 0.32223 0.62619 0.0
C745 C 0.47526 0.29933 0.69883 0.0
C746 C 0.48068 0.32418 0.58561 0.0
C747 C 0.47755 0.32213 0.52305 0.0
C748 C 0.46186 0.31812 0.50004 0.0
C749 C 0.44942 0.31626 0.541 0.0
C750 C 0.45259 0.31836 0.60343 0.0
H751 H 0.47456 0.29033 0.73365 0.0
H752 H 0.46481 0.29276 0.66638 0.0
H753 H 0.48702 0.30384 0.67316 0.0
H754 H 0.49289 0.32739 0.6023 0.0
H755 H 0.48735 0.32355 0.49281 0.0
H756 H 0.12687 0.45891 0.18718 0.0
H757 H 0.12642 0.4539 0.07778 0.0
H758 H 0.1678 0.50338 0.05256 0.0
H759 H 0.16877 0.50829 0.16184 0.0
H760 H 0.12172 0.47049 0.98276 0.0
H761 H 0.18348 0.47537 0.96399 0.0
H762 H 0.17336 0.47327 0.03618 0.0
H763 H 0.18407 0.49311 0.99879 0.0
C764 C 0.13603 0.46867 0.15859 0.0
C765 C 0.14791 0.48399 0.1837 0.0
C766 C 0.13568 0.46581 0.09594 0.0
C767 C 0.14725 0.47817 0.05709 0.0
C768 C 0.15897 0.49354 0.08177 0.0
H769 H 0.16165 0.48605 0.66412 0.0
H770 H 0.16306 0.49138 0.77381 0.0
C771 C 0.15935 0.4964 0.14436 0.0
C772 C 0.14676 0.47515 0.99055 0.0
H773 H 0.16987 0.47433 0.87107 0.0
C774 C 0.13221 0.47124 0.9584 0.0
C775 C 0.16049 0.47617 0.9588 0.0
C776 C 0.17618 0.47955 0.99121 0.0
C777 C 0.1311 0.46857 0.89525 0.0
C778 C 0.14483 0.46964 0.86355 0.0
C779 C 0.1594 0.47358 0.89555 0.0
C780 C 0.14415 0.46637 0.79727 0.0
C781 C 0.11533 0.46489 0.8627 0.0
C782 C 0.13325 0.45049 0.77432 0.0
C783 C 0.13241 0.44742 0.71181 0.0
C784 C 0.14248 0.46016 0.67086 0.0
C785 C 0.15358 0.47602 0.69419 0.0
C786 C 0.15446 0.47906 0.75687 0.0
H787 H 0.10754 0.4683 0.89065 0.0
H788 H 0.11816 0.47167 0.81875 0.0
H789 H 0.10798 0.4514 0.85282 0.0
H790 H 0.12534 0.44047 0.80482 0.0
H791 H 0.12361 0.43512 0.6955 0.0
H792 H 0.70324 0.14685 0.86193 0.0
H793 H 0.69935 0.14828 0.97139 0.0
H794 H 0.65395 0.14874 0.93713 0.0
H795 H 0.65742 0.14673 0.82788 0.0
H796 H 0.69628 0.17171 0.04114 0.0
H797 H 0.63918 0.10989 0.05506 0.0
H798 H 0.6526 0.11649 0.9893 0.0
H799 H 0.63809 0.12369 1.0005 0.0
C800 C 0.69238 0.14717 0.87761 0.0
C801 C 0.6806 0.14655 0.83592 0.0
C802 C 0.69023 0.14809 0.94021 0.0
C803 C 0.67621 0.14832 0.96247 0.0
C804 C 0.6647 0.14826 0.92102 0.0
H805 H 0.63912 0.14972 0.32361 0.0
H806 H 0.64377 0.14987 0.214 0.0
C807 C 0.66683 0.14733 0.85842 0.0
C808 C 0.67358 0.14848 0.02907 0.0
H809 H 0.64684 0.12648 0.14408 0.0
C810 C 0.68551 0.1618 0.06373 0.0
C811 C 0.65952 0.13552 0.05844 0.0
C812 C 0.64668 0.1205 0.02411 0.0
C813 C 0.68359 0.16267 0.12684 0.0
C814 C 0.66951 0.14972 0.15615 0.0
C815 C 0.6576 0.1364 0.12148 0.0
C816 C 0.66686 0.14974 0.22276 0.0
C817 C 0.69647 0.17761 0.16138 0.0
C818 C 0.67818 0.14938 0.26411 0.0
C819 C 0.67559 0.14936 0.32683 0.0
C820 C 0.66157 0.14962 0.34948 0.0
C821 C 0.65015 0.14975 0.30781 0.0
C822 C 0.65274 0.14975 0.24512 0.0
H823 H 0.70405 0.18823 0.13057 0.0
H824 H 0.69057 0.18163 0.19623 0.0
H825 H 0.70498 0.17432 0.18504 0.0
H826 H 0.68902 0.14907 0.24786 0.0
H827 H 0.68472 0.14942 0.35747 0.0
H828 H 0.47726 0.60178 0.72663 0.0
H829 H 0.45412 0.57877 0.77929 0.0
H830 H 0.4607 0.61082 0.93138 0.0
H831 H 0.48379 0.63409 0.87848 0.0
H832 H 0.45429 0.56485 0.88957 0.0
H833 H 0.4112 0.58992 0.89329 0.0
H834 H 0.42949 0.59859 0.84588 0.0
H835 H 0.43127 0.60346 0.92565 0.0
C836 C 0.47378 0.604 0.7712 0.0
C837 C 0.48232 0.61979 0.7983 0.0
C838 C 0.46055 0.59081 0.8012 0.0
C839 C 0.45558 0.59315 0.85882 0.0
C840 C 0.46414 0.60885 0.88637 0.0
H841 H 0.39291 0.51428 0.10928 0.0
H842 H 0.41594 0.53784 0.05806 0.0
C843 C 0.47737 0.62211 0.85622 0.0
C844 C 0.44167 0.57896 0.89033 0.0
H845 H 0.4029 0.56505 0.94835 0.0
C846 C 0.44304 0.56488 0.90244 0.0
C847 C 0.42696 0.57898 0.90625 0.0
C848 C 0.42451 0.59347 0.89168 0.0
C849 C 0.4301 0.55081 0.9305 0.0
C850 C 0.41556 0.551 0.94784 0.0
C851 C 0.41413 0.56502 0.93532 0.0
C852 C 0.40162 0.53669 0.97869 0.0
C853 C 0.43198 0.53577 0.94019 0.0
C854 C 0.38587 0.52847 0.95152 0.0
C855 C 0.37264 0.51505 0.98083 0.0
C856 C 0.37494 0.50969 0.03797 0.0
C857 C 0.39074 0.51801 0.0651 0.0
C858 C 0.40394 0.53144 0.03583 0.0
H859 H 0.44176 0.53602 0.91044 0.0
H860 H 0.43557 0.53552 0.98817 0.0
H861 H 0.42012 0.52413 0.93118 0.0
H862 H 0.38385 0.53239 0.90747 0.0
H863 H 0.36062 0.50892 0.95873 0.0
H864 H 0.89225 0.38857 0.15353 0.0
H865 H 0.89216 0.4138 0.12272 0.0
H866 H 0.83879 0.38569 0.10476 0.0
H867 H 0.83882 0.36073 0.13972 0.0
H868 H 0.8846 0.4221 0.02457 0.0
H869 H 0.84228 0.42346 0.19721 0.0
H870 H 0.85015 0.4093 0.20236 0.0
H871 H 0.83212 0.40421 0.15657 0.0
C872 C 0.88051 0.38787 0.14341 0.0
C873 C 0.86553 0.37281 0.14915 0.0
C874 C 0.88045 0.40227 0.12592 0.0
C875 C 0.86543 0.40179 0.11265 0.0
C876 C 0.85048 0.38658 0.11699 0.0
H877 H 0.85875 0.47117 0.87198 0.0
H878 H 0.86016 0.44828 0.9203 0.0
C879 C 0.85051 0.37228 0.13625 0.0
C880 C 0.86553 0.41697 0.0909 0.0
H881 H 0.84619 0.43973 0.10684 0.0
C882 C 0.87634 0.42606 0.04325 0.0
C883 C 0.85508 0.42246 0.116 0.0
C884 C 0.84442 0.41444 0.17132 0.0
C885 C 0.87662 0.44011 0.01878 0.0
C886 C 0.86515 0.44472 0.04029 0.0
C887 C 0.85475 0.43601 0.08939 0.0
C888 C 0.8635 0.45827 0.01161 0.0
C889 C 0.88945 0.44996 0.97083 0.0
C890 C 0.86386 0.47102 0.04717 0.0
C891 C 0.86245 0.48383 0.01972 0.0
C892 C 0.86093 0.48419 0.95625 0.0
C893 C 0.86022 0.4713 0.92093 0.0
C894 C 0.86119 0.4583 0.94847 0.0
H895 H 0.90066 0.4487 0.97616 0.0
H896 H 0.88418 0.44511 0.92513 0.0
H897 H 0.89336 0.46335 0.97283 0.0
H898 H 0.86547 0.47119 0.09604 0.0
H899 H 0.86301 0.49366 0.04785 0.0
H900 H 0.36882 0.86438 0.21418 0.0
H901 H 0.39364 0.86653 0.26223 0.0
H902 H 0.41114 0.86129 0.08621 0.0
H903 H 0.387 0.86025 0.03804 0.0
H904 H 0.40545 0.84702 0.27271 0.0
H905 H 0.45149 0.90131 0.14247 0.0
H906 H 0.42961 0.89427 0.1389 0.0
H907 H 0.43852 0.8849 0.09139 0.0
C908 C 0.37807 0.86381 0.18594 0.0
C909 C 0.37621 0.86241 0.12245 0.0
C910 C 0.39222 0.86503 0.21332 0.0
C911 C 0.40454 0.86456 0.17768 0.0
C912 C 0.40221 0.8624 0.11448 0.0
H913 H 0.47701 0.83944 0.30944 0.0
H914 H 0.45208 0.83933 0.27323 0.0
C915 C 0.38834 0.86165 0.08701 0.0
C916 C 0.41964 0.86596 0.20637 0.0
H917 H 0.46171 0.88507 0.19143 0.0
C918 C 0.41778 0.8555 0.25547 0.0
C919 C 0.43579 0.87732 0.18506 0.0
C920 C 0.43897 0.8902 0.13706 0.0
C921 C 0.43156 0.8557 0.28246 0.0
C922 C 0.44757 0.86607 0.25775 0.0
C923 C 0.44945 0.87689 0.20989 0.0
C924 C 0.46259 0.86598 0.28038 0.0
C925 C 0.42874 0.845 0.33785 0.0
C926 C 0.47709 0.88103 0.29378 0.0
C927 C 0.49152 0.88113 0.31196 0.0
C928 C 0.4916 0.86617 0.31834 0.0
C929 C 0.47714 0.85111 0.30547 0.0
C930 C 0.46284 0.85104 0.28548 0.0
H931 H 0.41751 0.84286 0.36326 0.0
H932 H 0.42668 0.83269 0.32323 0.0
H933 H 0.43952 0.85071 0.3693 0.0
H934 H 0.47726 0.89273 0.29008 0.0
H935 H 0.50252 0.89289 0.32206 0.0
H936 H 0.5077 0.39646 0.24443 0.0
H937 H 0.53218 0.42029 0.28752 0.0
H938 H 0.53853 0.38802 0.41191 0.0
H939 H 0.5138 0.364 0.36959 0.0
H940 H 0.54281 0.41746 0.4657 0.0
H941 H 0.57969 0.43052 0.25369 0.0
H942 H 0.56004 0.42942 0.24279 0.0
H943 H 0.56065 0.41121 0.26629 0.0
C944 C 0.51424 0.39439 0.2811 0.0
C945 C 0.5089 0.37831 0.30319 0.0
C946 C 0.52828 0.40803 0.30543 0.0
C947 C 0.53734 0.40585 0.3519 0.0
C948 C 0.53175 0.38991 0.37563 0.0
H949 H 0.62852 0.47576 0.53924 0.0
H950 H 0.60365 0.45068 0.50446 0.0
C951 C 0.51764 0.37622 0.35141 0.0
C952 C 0.55272 0.42025 0.37517 0.0
H953 H 0.59094 0.45124 0.3308 0.0
C954 C 0.5534 0.42479 0.43645 0.0
C955 C 0.5665 0.42971 0.33678 0.0
C956 C 0.5668 0.4249 0.27138 0.0
C957 C 0.56736 0.43889 0.45993 0.0
C958 C 0.58098 0.44852 0.42117 0.0
C959 C 0.5804 0.44385 0.36018 0.0
C960 C 0.59592 0.46365 0.44274 0.0
C961 C 0.56729 0.44367 0.5255 0.0
C962 C 0.59993 0.47917 0.41859 0.0
C963 C 0.61413 0.49352 0.43822 0.0
C964 C 0.62465 0.49256 0.48196 0.0
C965 C 0.62067 0.47694 0.50557 0.0
C966 C 0.60642 0.4626 0.48607 0.0
H967 H 0.55465 0.43694 0.54566 0.0
H968 H 0.57549 0.44061 0.55247 0.0
H969 H 0.57214 0.45723 0.52958 0.0
H970 H 0.59199 0.48018 0.38479 0.0
H971 H 0.61686 0.50535 0.41901 0.0
H972 H 0.1509 0.52079 0.4655 0.0
H973 H 0.1513 0.54611 0.49777 0.0
H974 H 0.11036 0.51752 0.61944 0.0
H975 H 0.10965 0.49204 0.58671 0.0
H976 H 0.1064 0.54024 0.54843 0.0
H977 H 0.16831 0.5702 0.66005 0.0
H978 H 0.16817 0.56397 0.5826 0.0
H979 H 0.15724 0.54848 0.63991 0.0
C980 C 0.14202 0.51987 0.49936 0.0
C981 C 0.13027 0.5044 0.52374 0.0
C982 C 0.14233 0.53437 0.51792 0.0
C983 C 0.13102 0.5337 0.56159 0.0
C984 C 0.11923 0.51828 0.58581 0.0
H985 H 0.11014 0.60063 0.75747 0.0
H986 H 0.11027 0.57698 0.71024 0.0
C987 C 0.11887 0.50375 0.56713 0.0
C988 C 0.13124 0.54901 0.58122 0.0
H989 H 0.15508 0.58622 0.65221 0.0
C990 C 0.11704 0.5503 0.57111 0.0
C991 C 0.14518 0.56213 0.61047 0.0
C992 C 0.16055 0.56113 0.62446 0.0
C993 C 0.11637 0.56438 0.5897 0.0
C994 C 0.13021 0.57737 0.61977 0.0
C995 C 0.14453 0.57623 0.62885 0.0
C996 C 0.12969 0.59175 0.6457 0.0
C997 C 0.10091 0.56528 0.57691 0.0
C998 C 0.14072 0.60791 0.62541 0.0
C999 C 0.14071 0.62152 0.65242 0.0
C1000 C 0.12979 0.61915 0.70061 0.0
C1001 C 0.1187 0.6029 0.72042 0.0
C1002 C 0.11867 0.58935 0.69327 0.0
H1003 H 0.0934 0.55667 0.53981 0.0
H1004 H 0.09312 0.56172 0.61854 0.0
H1005 H 0.10407 0.57809 0.56419 0.0
H1006 H 0.14938 0.60997 0.58895 0.0
H1007 H 0.14943 0.63388 0.63624 0.0
H1008 H 0.62772 0.15297 0.63551 0.0
H1009 H 0.60285 0.15304 0.67124 0.0
H1010 H 0.59263 0.1131 0.79525 0.0
H1011 H 0.61753 0.11302 0.76041 0.0
H1012 H 0.56956 0.12628 0.6686 0.0
H1013 H 0.59103 0.14833 0.90387 0.0
H1014 H 0.60506 0.15027 0.84351 0.0
H1015 H 0.59282 0.13072 0.88157 0.0
C1016 C 0.62025 0.14427 0.67067 0.0
C1017 C 0.62463 0.13302 0.69529 0.0
C1018 C 0.60603 0.14431 0.69087 0.0
C1019 C 0.59605 0.13321 0.73631 0.0
C1020 C 0.60035 0.12195 0.76085 0.0
H1021 H 0.50593 0.10913 0.92482 0.0
H1022 H 0.5306 0.11024 0.88137 0.0
C1023 C 0.61454 0.12187 0.74066 0.0
C1024 C 0.58091 0.13312 0.75719 0.0
H1025 H 0.56246 0.13814 0.88317 0.0
C1026 C 0.56802 0.12899 0.71537 0.0
C1027 C 0.57901 0.13669 0.81819 0.0
C1028 C 0.59276 0.1419 0.86434 0.0
C1029 C 0.553 0.12783 0.73349 0.0
C1030 C 0.55102 0.13114 0.79474 0.0
C1031 C 0.56402 0.13553 0.83628 0.0
C1032 C 0.53544 0.12984 0.81737 0.0
C1033 C 0.53922 0.12258 0.68749 0.0
C1034 C 0.52994 0.14043 0.79538 0.0
C1035 C 0.51579 0.1398 0.82002 0.0
C1036 C 0.50701 0.12866 0.86741 0.0
C1037 C 0.51241 0.11788 0.88846 0.0
C1038 C 0.52652 0.1185 0.86376 0.0
H1039 H 0.54129 0.11681 0.64665 0.0
H1040 H 0.52704 0.11363 0.70784 0.0
H1041 H 0.53861 0.13366 0.67245 0.0
H1042 H 0.53683 0.14946 0.76027 0.0
H1043 H 0.51197 0.14831 0.80294 0.0
H1044 H 0.27353 0.4417 0.1546 0.0
H1045 H 0.24975 0.44128 0.20341 0.0
H1046 H 0.268 0.49205 0.14881 0.0
H1047 H 0.29184 0.49256 0.09925 0.0
H1048 H 0.25358 0.46332 0.29953 0.0
H1049 H 0.218 0.46804 0.10448 0.0
H1050 H 0.23324 0.46158 0.09538 0.0
H1051 H 0.23979 0.48313 0.10601 0.0
C1052 C 0.27233 0.45269 0.15191 0.0
C1053 C 0.28454 0.46719 0.12325 0.0
C1054 C 0.25877 0.45243 0.17995 0.0
C1055 C 0.25715 0.46661 0.17953 0.0
C1056 C 0.26895 0.48091 0.14886 0.0
H1057 H 0.19748 0.4898 0.42054 0.0
H1058 H 0.22062 0.48933 0.36906 0.0
C1059 C 0.28255 0.48118 0.12065 0.0
C1060 C 0.24381 0.46676 0.21529 0.0
H1061 H 0.20889 0.46981 0.20341 0.0
C1062 C 0.24379 0.46473 0.27862 0.0
C1063 C 0.2311 0.46855 0.18759 0.0
C1064 C 0.23037 0.47033 0.11958 0.0
C1065 C 0.23132 0.46447 0.31518 0.0
C1066 C 0.2187 0.46639 0.28754 0.0
C1067 C 0.21869 0.4684 0.22424 0.0
C1068 C 0.20509 0.46597 0.32326 0.0
C1069 C 0.23153 0.46186 0.38286 0.0
C1070 C 0.18884 0.45287 0.31501 0.0
C1071 C 0.17567 0.45306 0.34441 0.0
C1072 C 0.17854 0.46645 0.38209 0.0
C1073 C 0.19492 0.47929 0.39197 0.0
C1074 C 0.20812 0.47905 0.36266 0.0
H1075 H 0.24051 0.4578 0.39562 0.0
H1076 H 0.23509 0.47368 0.40684 0.0
H1077 H 0.21899 0.45243 0.39903 0.0
H1078 H 0.18633 0.44268 0.28471 0.0
H1079 H 0.16318 0.443 0.3358 0.0
H1080 H 0.79704 0.29122 0.25227 0.0
H1081 H 0.77396 0.26764 0.30402 0.0
H1082 H 0.80782 0.25295 0.3761 0.0
H1083 H 0.83094 0.27649 0.32507 0.0
H1084 H 0.76213 0.2325 0.30127 0.0
H1085 H 0.7861 0.2609 0.52803 0.0
H1086 H 0.79331 0.2725 0.45795 0.0
H1087 H 0.80079 0.25888 0.48102 0.0
C1088 C 0.79952 0.28281 0.27833 0.0
C1089 C 0.8158 0.28577 0.28513 0.0
C1090 C 0.78635 0.26939 0.30792 0.0
C1091 C 0.78931 0.25883 0.34475 0.0
C1092 C 0.80539 0.2612 0.34876 0.0
H1093 H 0.71849 0.1649 0.50464 0.0
H1094 H 0.74189 0.18771 0.45185 0.0
C1095 C 0.81855 0.27459 0.31928 0.0
C1096 C 0.77573 0.24573 0.38105 0.0
H1097 H 0.76319 0.2334 0.5272 0.0
C1098 C 0.76231 0.23267 0.35063 0.0
C1099 C 0.77596 0.24622 0.44541 0.0
C1100 C 0.78972 0.26044 0.4802 0.0
C1101 C 0.74922 0.21981 0.38308 0.0
C1102 C 0.74975 0.22 0.44744 0.0
C1103 C 0.76298 0.23325 0.47784 0.0
C1104 C 0.73656 0.20654 0.48387 0.0
C1105 C 0.73483 0.20623 0.34832 0.0
C1106 C 0.72634 0.20978 0.52154 0.0
C1107 C 0.713 0.19679 0.55214 0.0
C1108 C 0.70979 0.18041 0.54561 0.0
C1109 C 0.7206 0.17738 0.51034 0.0
C1110 C 0.7339 0.19036 0.4798 0.0
H1111 H 0.7344 0.20994 0.30058 0.0
H1112 H 0.73615 0.19501 0.34724 0.0
H1113 H 0.72285 0.20284 0.37078 0.0
H1114 H 0.72833 0.22226 0.52552 0.0
H1115 H 0.70488 0.19949 0.57901 0.0
H1116 H 0.55434 0.83269 0.49259 0.0
H1117 H 0.55569 0.80969 0.54042 0.0
H1118 H 0.50729 0.77521 0.46866 0.0
H1119 H 0.50586 0.79818 0.42017 0.0
H1120 H 0.53223 0.78885 0.62841 0.0
H1121 H 0.53558 0.75324 0.43109 0.0
H1122 H 0.54058 0.77462 0.42507 0.0
H1123 H 0.51929 0.75827 0.42754 0.0
C1124 C 0.54411 0.82018 0.48597 0.0
C1125 C 0.52997 0.81722 0.45277 0.0
C1126 C 0.54489 0.80708 0.51344 0.0
C1127 C 0.53162 0.7908 0.50785 0.0
C1128 C 0.51775 0.78769 0.47275 0.0
H1129 H 0.50515 0.70589 0.73911 0.0
H1130 H 0.50699 0.73026 0.68884 0.0
C1131 C 0.51695 0.80081 0.44519 0.0
C1132 C 0.53177 0.77732 0.54282 0.0
H1133 H 0.53117 0.74054 0.52824 0.0
C1134 C 0.53207 0.77831 0.6066 0.0
C1135 C 0.53165 0.7637 0.51403 0.0
C1136 C 0.5319 0.76238 0.44565 0.0
C1137 C 0.53205 0.76585 0.64256 0.0
C1138 C 0.53156 0.75203 0.6138 0.0
C1139 C 0.53148 0.75116 0.55001 0.0
C1140 C 0.53111 0.73829 0.64893 0.0
C1141 C 0.53273 0.76761 0.71091 0.0
C1142 C 0.54412 0.73489 0.6434 0.0
C1143 C 0.54311 0.72103 0.67201 0.0
C1144 C 0.52899 0.71027 0.70621 0.0
C1145 C 0.51621 0.71402 0.71333 0.0
C1146 C 0.51725 0.72793 0.68475 0.0
H1147 H 0.53681 0.78056 0.72519 0.0
H1148 H 0.52017 0.75941 0.72998 0.0
H1149 H 0.54129 0.76381 0.73083 0.0
H1150 H 0.55489 0.74277 0.61585 0.0
H1151 H 0.55315 0.71846 0.66558 0.0
H1152 H 0.83137 0.55577 0.85159 0.0
H1153 H 0.80827 0.55671 0.80281 0.0
H1154 H 0.77437 0.50747 0.86903 0.0
H1155 H 0.79745 0.50639 0.91825 0.0
H1156 H 0.78847 0.53241 0.7117 0.0
H1157 H 0.75101 0.53507 0.90423 0.0
H1158 H 0.77265 0.54115 0.91213 0.0
H1159 H 0.75712 0.51956 0.90949 0.0
C1160 C 0.81895 0.54527 0.857 0.0
C1161 C 0.8162 0.53096 0.88851 0.0
C1162 C 0.8058 0.54583 0.82895 0.0
C1163 C 0.78969 0.53217 0.83241 0.0
C1164 C 0.78673 0.5182 0.86649 0.0
H1165 H 0.70603 0.50631 0.5929 0.0
H1166 H 0.72977 0.50738 0.64563 0.0
C1167 C 0.79991 0.5176 0.89454 0.0
C1168 C 0.77634 0.53201 0.79572 0.0
H1169 H 0.73946 0.53135 0.80552 0.0
C1170 C 0.77775 0.53221 0.73208 0.0
C1171 C 0.76248 0.53179 0.82274 0.0
C1172 C 0.76069 0.532 0.89091 0.0
C1173 C 0.76554 0.53213 0.6945 0.0
C1174 C 0.75157 0.53172 0.7215 0.0
C1175 C 0.75021 0.53161 0.78516 0.0
C1176 C 0.7383 0.53169 0.68466 0.0
C1177 C 0.76775 0.53273 0.62635 0.0
C1178 C 0.73546 0.54509 0.68872 0.0
C1179 C 0.72199 0.54453 0.65872 0.0
C1180 C 0.71107 0.53049 0.62454 0.0
C1181 C 0.7143 0.51732 0.61864 0.0
C1182 C 0.72783 0.51791 0.64867 0.0
H1183 H 0.78066 0.53633 0.61331 0.0
H1184 H 0.75927 0.52027 0.607 0.0
H1185 H 0.76454 0.54166 0.6056 0.0
H1186 H 0.74346 0.55582 0.71631 0.0
H1187 H 0.71983 0.55487 0.66413 0.0
H1188 H 0.2748 0.8302 0.01536 0.0
H1189 H 0.25099 0.80645 0.96834 0.0
H1190 H 0.26737 0.77383 0.03953 0.0
H1191 H 0.29132 0.79757 0.08697 0.0
H1192 H 0.25592 0.78596 0.88009 0.0
H1193 H 0.21627 0.75022 0.0764 0.0
H1194 H 0.23148 0.77206 0.08138 0.0
H1195 H 0.23803 0.7569 0.08177 0.0
C1196 C 0.27317 0.81794 0.02218 0.0
C1197 C 0.28495 0.81573 0.05465 0.0
C1198 C 0.2596 0.80441 0.99513 0.0
C1199 C 0.25749 0.78846 1.00056 0.0
C1200 C 0.26875 0.78606 0.03543 0.0
H1201 H 0.19788 0.7027 0.76972 0.0
H1202 H 0.22107 0.72617 0.82176 0.0
C1203 C 0.28239 0.79962 0.06246 0.0
C1204 C 0.24434 0.77467 0.96532 0.0
H1205 H 0.20801 0.738 0.979 0.0
C1206 C 0.24543 0.77545 0.90158 0.0
C1207 C 0.23074 0.76107 0.9938 0.0
C1208 C 0.22889 0.75995 0.0621 0.0
C1209 C 0.23318 0.76291 0.86532 0.0
C1210 C 0.21962 0.74928 0.89379 0.0
C1211 C 0.21852 0.74849 0.95754 0.0
C1212 C 0.20607 0.73593 0.85828 0.0
C1213 C 0.23462 0.76447 0.79696 0.0
C1214 C 0.19011 0.73386 0.86127 0.0
C1215 C 0.17692 0.72057 0.8316 0.0
C1216 C 0.17946 0.70906 0.79883 0.0
C1217 C 0.19558 0.71144 0.79436 0.0
C1218 C 0.20881 0.7248 0.82401 0.0
H1219 H 0.24427 0.7771 0.78233 0.0
H1220 H 0.238 0.75541 0.77883 0.0
H1221 H 0.22256 0.76158 0.77643 0.0
H1222 H 0.18781 0.74237 0.8875 0.0
H1223 H 0.16464 0.71906 0.83596 0.0
H1224 H 0.49539 0.29563 0.24594 0.0
H1225 H 0.49639 0.27242 0.19716 0.0
H1226 H 0.44727 0.25457 0.12455 0.0
H1227 H 0.44613 0.27761 0.17285 0.0
H1228 H 0.47295 0.23626 0.20535 0.0
H1229 H 0.47839 0.26274 0.97408 0.0
H1230 H 0.48275 0.27498 0.04258 0.0
H1231 H 0.46166 0.2613 0.01959 0.0
C1232 C 0.48473 0.28663 0.22026 0.0
C1233 C 0.47073 0.28848 0.21283 0.0
C1234 C 0.48533 0.27343 0.1924 0.0
C1235 C 0.47201 0.26203 0.15656 0.0
C1236 C 0.45776 0.26344 0.15132 0.0
H1237 H 0.44552 0.16666 0.00961 0.0
H1238 H 0.44703 0.19071 0.06052 0.0
C1239 C 0.45711 0.27656 0.17921 0.0
C1240 C 0.47308 0.24888 0.12304 0.0
H1241 H 0.4734 0.23508 0.97944 0.0
C1242 C 0.47317 0.23602 0.15601 0.0
C1243 C 0.47359 0.24881 0.05874 0.0
C1244 C 0.47424 0.26276 0.02148 0.0
C1245 C 0.47315 0.22271 0.12605 0.0
C1246 C 0.4729 0.22227 0.06171 0.0
C1247 C 0.47342 0.23542 0.02879 0.0
C1248 C 0.47171 0.20802 0.02788 0.0
C1249 C 0.47337 0.20919 0.16336 0.0
C1250 C 0.48485 0.21 0.99086 0.0
C1251 C 0.48401 0.19628 0.96143 0.0
C1252 C 0.46995 0.18046 0.96837 0.0
C1253 C 0.45654 0.17869 0.00351 0.0
C1254 C 0.45742 0.19237 0.03298 0.0
H1255 H 0.47757 0.21331 0.21076 0.0
H1256 H 0.46064 0.19829 0.16529 0.0
H1257 H 0.48162 0.20514 0.14237 0.0
H1258 H 0.49592 0.22205 0.9861 0.0
H1259 H 0.49453 0.198 0.93463 0.0
H1260 H 0.35763 0.42038 0.03402 0.0
H1261 H 0.3706 0.40364 0.05541 0.0
H1262 H 0.36554 0.40875 0.24811 0.0
H1263 H 0.35315 0.42602 0.22726 0.0
H1264 H 0.39695 0.41586 0.21473 0.0
H1265 H 0.34946 0.35579 0.11554 0.0
H1266 H 0.3566 0.37305 0.06418 0.0
H1267 H 0.34539 0.37246 0.13167 0.0
C1268 C 0.35932 0.41798 0.08095 0.0
C1269 C 0.35437 0.42454 0.12897 0.0
C1270 C 0.36652 0.40823 0.09306 0.0
C1271 C 0.36876 0.40475 0.1533 0.0
C1272 C 0.36376 0.41119 0.20129 0.0
H1273 H 0.41771 0.35521 0.31633 0.0
H1274 H 0.40101 0.36844 0.29882 0.0
C1275 C 0.3566 0.42096 0.18927 0.0
C1276 C 0.37726 0.39527 0.16646 0.0
H1277 H 0.37539 0.35812 0.14227 0.0
C1278 C 0.39217 0.40318 0.19939 0.0
C1279 C 0.37098 0.37877 0.14619 0.0
C1280 C 0.35465 0.36944 0.11291 0.0
C1281 C 0.4012 0.39515 0.21145 0.0
C1282 C 0.39501 0.37872 0.19066 0.0
C1283 C 0.38005 0.37074 0.15808 0.0
C1284 C 0.40419 0.36981 0.20107 0.0
C1285 C 0.41752 0.40445 0.24491 0.0
C1286 C 0.41108 0.36583 0.15168 0.0
C1287 C 0.42067 0.35835 0.16148 0.0
C1288 C 0.42345 0.35465 0.2209 0.0
C1289 C 0.41607 0.3582 0.27015 0.0
C1290 C 0.40649 0.3657 0.26027 0.0
H1291 H 0.42215 0.41801 0.24661 0.0
H1292 H 0.41585 0.39979 0.29235 0.0
H1293 H 0.4271 0.4024 0.223 0.0
H1294 H 0.40939 0.36892 0.10567 0.0
H1295 H 0.4263 0.35591 0.12266 0.0
H1296 H 0.92683 0.34327 0.35681 0.0
H1297 H 0.95691 0.35794 0.37324 0.0
H1298 H 0.9621 0.39854 0.2623 0.0
H1299 H 0.93208 0.38405 0.24616 0.0
H1300 H 0.98206 0.36827 0.28912 0.0
H1301 H 0.98704 0.42218 0.41563 0.0
H1302 H 0.96743 0.40354 0.40229 0.0
H1303 H 0.97688 0.41892 0.34338 0.0
C1304 C 0.93441 0.35532 0.33596 0.0
C1305 C 0.92713 0.36259 0.30056 0.0
C1306 C 0.95155 0.36369 0.3455 0.0
C1307 C 0.96166 0.37943 0.31985 0.0
C1308 C 0.95445 0.3866 0.28382 0.0
H1309 H 0.06727 0.4477 0.29838 0.0
H1310 H 0.03718 0.43228 0.28329 0.0
C1311 C 0.93733 0.3783 0.27458 0.0
C1312 C 0.97982 0.38819 0.32932 0.0
H1313 H 0.0124 0.42434 0.38214 0.0
C1314 C 0.9887 0.38048 0.30984 0.0
C1315 C 0.98841 0.4041 0.35645 0.0
C1316 C 0.97944 0.41261 0.3812 0.0
C1317 C 0.00601 0.38843 0.31565 0.0
C1318 C 0.01457 0.40442 0.34187 0.0
C1319 C 0.00573 0.4121 0.36166 0.0
C1320 C 0.03274 0.41337 0.34982 0.0
C1321 C 0.0151 0.37987 0.29278 0.0
C1322 C 0.04007 0.40781 0.39247 0.0
C1323 C 0.0572 0.41668 0.40179 0.0
C1324 C 0.06728 0.43126 0.36852 0.0
C1325 C 0.05985 0.43668 0.32539 0.0
C1326 C 0.04269 0.42784 0.31638 0.0
H1327 H 0.00708 0.36896 0.26381 0.0
H1328 H 0.02623 0.38864 0.26621 0.0
H1329 H 0.01937 0.37552 0.33219 0.0
H1330 H 0.03249 0.39678 0.41931 0.0
H1331 H 0.06248 0.41231 0.43605 0.0
H1332 H 0.61375 0.06819 0.47956 0.0
H1333 H 0.59867 0.03811 0.46871 0.0
H1334 H 0.63576 0.03501 0.57674 0.0
H1335 H 0.65021 0.06495 0.59217 0.0
H1336 H 0.60647 0.01764 0.41824 0.0
H1337 H 0.59482 0.00182 0.66285 0.0
H1338 H 0.60297 0.02273 0.63522 0.0
H1339 H 0.61654 0.01436 0.6467 0.0
C1340 C 0.61856 0.06113 0.50219 0.0
C1341 C 0.63311 0.06907 0.53757 0.0
C1342 C 0.60999 0.04391 0.49533 0.0
C1343 C 0.61587 0.03425 0.52307 0.0
C1344 C 0.63071 0.04215 0.55644 0.0
H1345 H 0.58356 0.93289 0.41428 0.0
H1346 H 0.5988 0.96278 0.43038 0.0
C1347 C 0.63913 0.05934 0.56427 0.0
C1348 C 0.6066 0.01596 0.51601 0.0
H1349 H 0.58941 0.97957 0.59548 0.0
C1350 C 0.60265 0.00931 0.45702 0.0
C1351 C 0.60134 0.00509 0.56667 0.0
C1352 C 0.60397 0.01136 0.63139 0.0
C1353 C 0.59377 0.99212 0.44719 0.0
C1354 C 0.58929 0.98127 0.49771 0.0
C1355 C 0.59305 0.9879 0.55674 0.0
C1356 C 0.58047 0.96298 0.49046 0.0
C1357 C 0.58893 0.98584 0.38284 0.0
C1358 C 0.56551 0.95303 0.52148 0.0
C1359 C 0.55703 0.93581 0.51417 0.0
C1360 C 0.56324 0.9282 0.47514 0.0
C1361 C 0.57842 0.93823 0.44512 0.0
C1362 C 0.58704 0.9554 0.45336 0.0
H1363 H 0.58849 0.99529 0.35314 0.0
H1364 H 0.59833 0.98311 0.36359 0.0
H1365 H 0.57662 0.97433 0.38134 0.0
H1366 H 0.56031 0.9586 0.55097 0.0
H1367 H 0.54561 0.92851 0.53927 0.0
H1368 H 0.6212 0.55044 0.71711 0.0
H1369 H 0.6065 0.56575 0.73522 0.0
H1370 H 0.63162 0.59749 0.58212 0.0
H1371 H 0.64618 0.58211 0.56305 0.0
H1372 H 0.62113 0.60183 0.75451 0.0
H1373 H 0.58058 0.57748 0.55017 0.0
H1374 H 0.59121 0.56745 0.58215 0.0
H1375 H 0.60245 0.58595 0.5374 0.0
C1376 C 0.62351 0.56062 0.68711 0.0
C1377 C 0.63475 0.56503 0.63845 0.0
C1378 C 0.61521 0.56939 0.69776 0.0
C1379 C 0.61791 0.5826 0.65961 0.0
C1380 C 0.6293 0.58721 0.61162 0.0
H1381 H 0.58781 0.65654 0.70393 0.0
H1382 H 0.60354 0.6421 0.68921 0.0
C1383 C 0.63766 0.5785 0.60111 0.0
C1384 C 0.60868 0.59146 0.66962 0.0
H1385 H 0.57903 0.59825 0.60705 0.0
C1386 C 0.61193 0.60108 0.72239 0.0
C1387 C 0.59661 0.59027 0.6277 0.0
C1388 C 0.59235 0.57964 0.57132 0.0
C1389 C 0.60349 0.60976 0.73402 0.0
C1390 C 0.59162 0.60878 0.69158 0.0
C1391 C 0.58825 0.59901 0.63917 0.0
C1392 C 0.58229 0.61754 0.70131 0.0
C1393 C 0.60711 0.61972 0.79186 0.0
C1394 C 0.56516 0.60843 0.71213 0.0
C1395 C 0.55617 0.61661 0.7204 0.0
C1396 C 0.56416 0.63402 0.71733 0.0
C1397 C 0.58133 0.64311 0.70606 0.0
C1398 C 0.59033 0.63491 0.69818 0.0
H1399 H 0.61434 0.61679 0.82482 0.0
H1400 H 0.61442 0.63315 0.78079 0.0
H1401 H 0.59539 0.61737 0.81389 0.0
H1402 H 0.55876 0.595 0.71427 0.0
H1403 H 0.54292 0.60929 0.72833 0.0
H1404 H 0.061 0.64001 0.6844 0.0
H1405 H 0.03093 0.62638 0.69912 0.0
H1406 H 0.03759 0.62492 0.89278 0.0
H1407 H 0.06759 0.63825 0.87857 0.0
H1408 H 0.01111 0.59466 0.7556 0.0
H1409 H 0.00666 0.64483 0.87573 0.0
H1410 H 0.02464 0.64865 0.83176 0.0
H1411 H 0.02162 0.64003 0.90699 0.0
C1412 C 0.05607 0.63677 0.73012 0.0
C1413 C 0.06668 0.6402 0.78035 0.0
C1414 C 0.03892 0.62909 0.73843 0.0
C1415 C 0.03213 0.62487 0.79705 0.0
C1416 C 0.04266 0.62841 0.8473 0.0
H1417 H 0.93528 0.57112 0.95908 0.0
H1418 H 0.96493 0.58753 0.9364 0.0
C1419 C 0.05979 0.63604 0.83907 0.0
C1420 C 0.01397 0.61584 0.80556 0.0
H1421 H 0.98242 0.61808 0.87546 0.0
C1422 C 0.00477 0.59981 0.78125 0.0
C1423 C 0.00586 0.62264 0.8393 0.0
C1424 C 0.01515 0.64004 0.86457 0.0
C1425 C 0.98764 0.59013 0.79138 0.0
C1426 C 0.97954 0.59686 0.82566 0.0
C1427 C 0.98872 0.61299 0.84924 0.0
C1428 C 0.96159 0.58716 0.83885 0.0
C1429 C 0.97848 0.5726 0.76709 0.0
C1430 C 0.94994 0.58173 0.79147 0.0
C1431 C 0.93301 0.57221 0.8042 0.0
C1432 C 0.92745 0.56806 0.8646 0.0
C1433 C 0.93918 0.57383 0.91202 0.0
C1434 C 0.9561 0.58332 0.89922 0.0
H1435 H 0.9871 0.56805 0.75477 0.0
H1436 H 0.96942 0.56398 0.80101 0.0
H1437 H 0.97153 0.57225 0.72553 0.0
H1438 H 0.95395 0.58482 0.74465 0.0
H1439 H 0.92429 0.56788 0.76667 0.0
H1440 H 0.4252 0.06767 0.04239 0.0
H1441 H 0.40876 0.03761 0.05635 0.0
H1442 H 0.39948 0.03116 0.86324 0.0
H1443 H 0.41576 0.06127 0.84879 0.0
H1444 H 0.37493 0.01443 0.02215 0.0
H1445 H 0.42119 0.00275 0.90529 0.0
H1446 H 0.42609 0.02311 0.93139 0.0
H1447 H 0.41417 0.01465 0.86316 0.0
C1448 C 0.41947 0.05989 0.00296 0.0
C1449 C 0.42188 0.06684 0.94441 0.0
C1450 C 0.41014 0.04273 0.01102 0.0
C1451 C 0.40315 0.03223 0.96072 0.0
C1452 C 0.40507 0.0391 0.90244 0.0
H1453 H 0.35314 0.92458 0.9335 0.0
H1454 H 0.36483 0.95416 0.9117 0.0
C1455 C 0.41439 0.05627 0.8943 0.0
C1456 C 0.39423 0.01406 0.96935 0.0
H1457 H 0.39664 0.97934 0.93956 0.0
C1458 C 0.37961 0.00671 0.00401 0.0
C1459 C 0.40043 0.00411 0.94549 0.0
C1460 C 0.4164 0.01151 0.90962 0.0
C1461 C 0.37097 0.98958 0.01541 0.0
C1462 C 0.37733 0.97967 0.99244 0.0
C1463 C 0.39181 0.987 0.95701 0.0
C1464 C 0.36947 0.96175 0.00607 0.0
C1465 C 0.35503 0.98221 0.05141 0.0
C1466 C 0.36833 0.9563 0.06631 0.0
C1467 C 0.36158 0.93943 0.07895 0.0
C1468 C 0.35597 0.92773 0.03145 0.0
C1469 C 0.35715 0.93327 0.97111 0.0
C1470 C 0.36389 0.95014 0.95855 0.0
H1471 H 0.3495 0.99038 0.05071 0.0
H1472 H 0.34578 0.96982 0.03343 0.0
H1473 H 0.35766 0.98069 0.09951 0.0
H1474 H 0.37287 0.96511 0.10353 0.0
H1475 H 0.36069 0.93554 0.12593 0.0
loop_
_geom_bond_atom_site_label_1
_geom_bond_atom_site_label_2
_geom_bond_distance
_geom_bond_site_symmetry_2
_ccdc_geom_bond_type
Co0 N4 2.148 . S
Co0 N10 2.128 . S
Co0 N20 2.194 . S
Co0 O25 2.351 . S
Co0 O26 2.155 . S
Co0 O27 2.096 . S
C1 N4 1.301 . S
C1 N5 1.328 . S
C1 H6 0.930 . S
C2 C3 1.333 . S
C2 N4 1.317 . S
C2 H7 0.930 . S
C3 C2 1.333 . S
C3 N5 1.350 . S
C3 H29 0.931 . S
N4 Co0 2.148 . S
N4 C1 1.301 . S
N4 C2 1.317 . S
N5 C1 1.328 . S
N5 C3 1.350 . S
H6 C1 0.930 . S
H7 C2 0.930 . S
C8 O9 1.224 . S
C8 O27 1.247 . S
O9 C8 1.224 . S
N10 Co0 2.128 . S
N10 C11 1.355 1_554 S
N10 C13 1.311 1_554 S
C11 N10 1.355 1_556 S
C11 C12 1.363 . S
C11 H23 0.929 1_556 S
C12 C11 1.363 . S
C12 N14 1.375 . S
C12 H30 0.931 . S
C13 N10 1.311 1_556 S
C13 N14 1.347 . S
C13 H24 0.929 . S
N14 C12 1.375 . S
N14 C13 1.347 . S
C15 C18 1.365 . S
C15 N20 1.328 . S
C15 H21 0.929 . S
C16 C17 1.362 . S
C16 C19 1.378 . S
C16 H31 0.929 . S
C17 C16 1.362 . S
C17 C18 1.366 . S
C18 C15 1.365 . S
C18 C17 1.366 . S
C18 H32 0.930 . S
C19 C16 1.378 . S
C19 N20 1.315 . S
C19 H22 0.930 . S
N20 Co0 2.194 . S
N20 C15 1.328 . S
N20 C19 1.315 . S
H21 C15 0.929 . S
H22 C19 0.930 . S
H23 C11 0.929 1_554 S
H24 C13 0.929 . S
O25 Co0 2.351 . S
O25 C28 1.244 . S
O26 Co0 2.155 . S
O26 C28 1.240 . S
O27 Co0 2.096 . S
O27 C8 1.247 . S
C28 O25 1.244 . S
C28 O26 1.240 . S
H29 C3 0.931 . S
H30 C12 0.931 . S
H31 C16 0.929 . S
H32 C18 0.930 . S
Co33 N37 2.148 . S
Co33 N43 2.128 . S
Co33 N53 2.194 . S
Co33 O58 2.351 . S
Co33 O59 2.155 . S
Co33 O60 2.096 . S
C34 N37 1.301 . S
C34 N38 1.328 . S
C34 H39 0.930 . S
C35 C36 1.333 . S
C35 N37 1.317 . S
C35 H40 0.930 . S
C36 C35 1.333 . S
C36 N38 1.350 . S
C36 H62 0.931 . S
N37 Co33 2.148 . S
N37 C34 1.301 . S
N37 C35 1.317 . S
N38 C34 1.328 . S
N38 C36 1.350 . S
H39 C34 0.930 . S
H40 C35 0.930 . S
C41 O42 1.224 . S
C41 O60 1.247 . S
O42 C41 1.224 . S
N43 Co33 2.128 . S
N43 C44 1.355 . S
N43 C46 1.311 . S
C44 N43 1.355 . S
C44 C45 1.363 . S
C44 H56 0.929 . S
C45 C44 1.363 . S
C45 N47 1.375 . S
C45 H63 0.931 . S
C46 N43 1.311 . S
C46 N47 1.347 . S
C46 H57 0.929 . S
N47 C45 1.375 . S
N47 C46 1.347 . S
C48 C51 1.365 . S
C48 N53 1.328 . S
C48 H54 0.929 . S
C49 C50 1.362 . S
C49 C52 1.378 . S
C49 H64 0.929 . S
C50 C49 1.362 . S
C50 C51 1.366 . S
C51 C48 1.365 . S
C51 C50 1.366 . S
C51 H65 0.930 . S
C52 C49 1.378 . S
C52 N53 1.315 . S
C52 H55 0.930 . S
N53 Co33 2.194 . S
N53 C48 1.328 . S
N53 C52 1.315 . S
H54 C48 0.929 . S
H55 C52 0.930 . S
H56 C44 0.929 . S
H57 C46 0.929 . S
O58 Co33 2.351 . S
O58 C61 1.244 . S
O59 Co33 2.155 . S
O59 C61 1.240 . S
O60 Co33 2.096 . S
O60 C41 1.247 . S
C61 O58 1.244 . S
C61 O59 1.240 . S
H62 C36 0.931 . S
H63 C45 0.931 . S
H64 C49 0.929 . S
H65 C51 0.930 . S
Co66 N70 2.148 . S
Co66 N76 2.128 . S
Co66 N86 2.194 . S
Co66 O91 2.351 . S
Co66 O92 2.155 . S
Co66 O93 2.096 . S
C67 N70 1.301 . S
C67 N71 1.328 . S
C67 H72 0.930 . S
C68 C69 1.333 . S
C68 N70 1.317 . S
C68 H73 0.930 . S
C69 C68 1.333 . S
C69 N71 1.350 . S
C69 H95 0.931 . S
N70 Co66 2.148 . S
N70 C67 1.301 . S
N70 C68 1.317 . S
N71 C67 1.328 . S
N71 C69 1.350 . S
H72 C67 0.930 . S
H73 C68 0.930 . S
C74 O75 1.224 . S
C74 O93 1.247 . S
O75 C74 1.224 . S
N76 Co66 2.128 . S
N76 C77 1.355 . S
N76 C79 1.311 . S
C77 N76 1.355 . S
C77 C78 1.363 . S
C77 H89 0.929 . S
C78 C77 1.363 . S
C78 N80 1.375 . S
C78 H96 0.931 . S
C79 N76 1.311 . S
C79 N80 1.347 . S
C79 H90 0.929 . S
N80 C78 1.375 . S
N80 C79 1.347 . S
C81 C84 1.365 . S
C81 N86 1.328 . S
C81 H87 0.929 . S
C82 C83 1.362 . S
C82 C85 1.378 . S
C82 H97 0.929 . S
C83 C82 1.362 . S
C83 C84 1.366 . S
C84 C81 1.365 . S
C84 C83 1.366 . S
C84 H98 0.930 . S
C85 C82 1.378 . S
C85 N86 1.315 . S
C85 H88 0.930 . S
N86 Co66 2.194 . S
N86 C81 1.328 . S
N86 C85 1.315 . S
H87 C81 0.929 . S
H88 C85 0.930 . S
H89 C77 0.929 . S
H90 C79 0.929 . S
O91 Co66 2.351 . S
O91 C94 1.244 . S
O92 Co66 2.155 . S
O92 C94 1.240 . S
O93 Co66 2.096 . S
O93 C74 1.247 . S
C94 O91 1.244 . S
C94 O92 1.240 . S
H95 C69 0.931 . S
H96 C78 0.931 . S
H97 C82 0.929 . S
H98 C84 0.930 . S
Co99 N103 2.148 . S
Co99 N109 2.128 . S
Co99 N119 2.194 . S
Co99 O124 2.351 . S
Co99 O125 2.155 . S
Co99 O126 2.096 . S
C100 N103 1.301 . S
C100 N104 1.328 . S
C100 H105 0.930 . S
C101 C102 1.333 . S
C101 N103 1.317 . S
C101 H106 0.930 . S
C102 C101 1.333 . S
C102 N104 1.350 . S
C102 H128 0.931 . S
N103 Co99 2.148 . S
N103 C100 1.301 . S
N103 C101 1.317 . S
N104 C100 1.328 . S
N104 C102 1.350 . S
H105 C100 0.930 . S
H106 C101 0.930 . S
C107 O108 1.224 . S
C107 O126 1.247 . S
O108 C107 1.224 . S
N109 Co99 2.128 . S
N109 C110 1.355 . S
N109 C112 1.311 . S
C110 N109 1.355 . S
C110 C111 1.363 . S
C110 H122 0.929 . S
C111 C110 1.363 . S
C111 N113 1.375 . S
C111 H129 0.931 . S
C112 N109 1.311 . S
C112 N113 1.347 . S
C112 H123 0.929 . S
N113 C111 1.375 . S
N113 C112 1.347 . S
C114 C117 1.365 . S
C114 N119 1.328 . S
C114 H120 0.929 . S
C115 C116 1.362 . S
C115 C118 1.378 . S
C115 H130 0.929 . S
C116 C115 1.362 . S
C116 C117 1.366 . S
C117 C114 1.365 . S
C117 C116 1.366 . S
C117 H131 0.930 . S
C118 C115 1.378 . S
C118 N119 1.315 . S
C118 H121 0.930 . S
N119 Co99 2.194 . S
N119 C114 1.328 . S
N119 C118 1.315 . S
H120 C114 0.929 . S
H121 C118 0.930 . S
H122 C110 0.929 . S
H123 C112 0.929 . S
O124 Co99 2.351 . S
O124 C127 1.244 . S
O125 Co99 2.155 . S
O125 C127 1.240 . S
O126 Co99 2.096 . S
O126 C107 1.247 . S
C127 O124 1.244 . S
C127 O125 1.240 . S
H128 C102 0.931 . S
H129 C111 0.931 . S
H130 C115 0.929 . S
H131 C117 0.930 . S
Co132 N136 2.148 . S
Co132 N142 2.128 . S
Co132 N152 2.194 . S
Co132 O157 2.351 . S
Co132 O158 2.155 . S
Co132 O159 2.096 . S
C133 N136 1.301 . S
C133 N137 1.328 . S
C133 H138 0.930 . S
C134 C135 1.333 . S
C134 N136 1.317 . S
C134 H139 0.930 . S
C135 C134 1.333 . S
C135 N137 1.350 . S
C135 H161 0.931 . S
N136 Co132 2.148 . S
N136 C133 1.301 . S
N136 C134 1.317 . S
N137 C133 1.328 . S
N137 C135 1.350 . S
H138 C133 0.930 . S
H139 C134 0.930 . S
C140 O141 1.224 . S
C140 O159 1.247 . S
O141 C140 1.224 . S
N142 Co132 2.128 . S
N142 C143 1.355 . S
N142 C145 1.311 . S
C143 N142 1.355 . S
C143 C144 1.363 . S
C143 H155 0.929 . S
C144 C143 1.363 . S
C144 N146 1.375 . S
C144 H162 0.931 . S
C145 N142 1.311 . S
C145 N146 1.347 . S
C145 H156 0.929 . S
N146 C144 1.375 . S
N146 C145 1.347 . S
C147 C150 1.365 . S
C147 N152 1.328 . S
C147 H153 0.929 . S
C148 C149 1.362 . S
C148 C151 1.378 . S
C148 H163 0.929 . S
C149 C148 1.362 . S
C149 C150 1.366 . S
C150 C147 1.365 . S
C150 C149 1.366 . S
C150 H164 0.930 . S
C151 C148 1.378 . S
C151 N152 1.315 . S
C151 H154 0.930 . S
N152 Co132 2.194 . S
N152 C147 1.328 . S
N152 C151 1.315 . S
H153 C147 0.929 . S
H154 C151 0.930 . S
H155 C143 0.929 . S
H156 C145 0.929 . S
O157 Co132 2.351 . S
O157 C160 1.244 . S
O158 Co132 2.155 . S
O158 C160 1.240 . S
O159 Co132 2.096 . S
O159 C140 1.247 . S
C160 O157 1.244 . S
C160 O158 1.240 . S
H161 C135 0.931 . S
H162 C144 0.931 . S
H163 C148 0.929 . S
H164 C150 0.930 . S
Co165 N169 2.148 1_556 S
Co165 N175 2.128 . S
Co165 N185 2.194 . S
Co165 O190 2.351 . S
Co165 O191 2.155 . S
Co165 O192 2.096 . S
C166 N169 1.301 . S
C166 N170 1.328 . S
C166 H171 0.930 . S
C167 C168 1.333 . S
C167 N169 1.317 . S
C167 H172 0.930 . S
C168 C167 1.333 . S
C168 N170 1.350 . S
C168 H194 0.931 . S
N169 Co165 2.148 1_554 S
N169 C166 1.301 . S
N169 C167 1.317 . S
N170 C166 1.328 . S
N170 C168 1.350 . S
H171 C166 0.930 . S
H172 C167 0.930 . S
C173 O174 1.224 . S
C173 O192 1.247 . S
O174 C173 1.224 . S
N175 Co165 2.128 . S
N175 C176 1.355 . S
N175 C178 1.311 . S
C176 N175 1.355 . S
C176 C177 1.363 . S
C176 H188 0.929 . S
C177 C176 1.363 . S
C177 N179 1.375 . S
C177 H195 0.931 . S
C178 N175 1.311 . S
C178 N179 1.347 . S
C178 H189 0.929 . S
N179 C177 1.375 . S
N179 C178 1.347 . S
C180 C183 1.365 . S
C180 N185 1.328 . S
C180 H186 0.929 . S
C181 C182 1.362 . S
C181 C184 1.378 . S
C181 H196 0.929 . S
C182 C181 1.362 . S
C182 C183 1.366 . S
C183 C180 1.365 . S
C183 C182 1.366 . S
C183 H197 0.930 . S
C184 C181 1.378 . S
C184 N185 1.315 . S
C184 H187 0.930 . S
N185 Co165 2.194 . S
N185 C180 1.328 . S
N185 C184 1.315 . S
H186 C180 0.929 . S
H187 C184 0.930 . S
H188 C176 0.929 . S
H189 C178 0.929 . S
O190 Co165 2.351 . S
O190 C193 1.244 . S
O191 Co165 2.155 . S
O191 C193 1.240 . S
O192 Co165 2.096 . S
O192 C173 1.247 . S
C193 O190 1.244 . S
C193 O191 1.240 . S
H194 C168 0.931 . S
H195 C177 0.931 . S
H196 C181 0.929 . S
H197 C183 0.930 . S
Co198 N202 2.148 . S
Co198 N208 2.128 . S
Co198 N218 2.194 . S
Co198 O223 2.351 . S
Co198 O224 2.155 . S
Co198 O225 2.096 . S
C199 N202 1.301 . S
C199 N203 1.328 . S
C199 H204 0.930 . S
C200 C201 1.333 . S
C200 N202 1.317 . S
C200 H205 0.930 . S
C201 C200 1.333 . S
C201 N203 1.350 . S
C201 H227 0.931 . S
N202 Co198 2.148 . S
N202 C199 1.301 . S
N202 C200 1.317 . S
N203 C199 1.328 . S
N203 C201 1.350 . S
H204 C199 0.930 . S
H205 C200 0.930 . S
C206 O207 1.224 . S
C206 O225 1.247 . S
O207 C206 1.224 . S
N208 Co198 2.128 . S
N208 C209 1.355 . S
N208 C211 1.311 . S
C209 N208 1.355 . S
C209 C210 1.363 . S
C209 H221 0.929 . S
C210 C209 1.363 . S
C210 N212 1.375 . S
C210 H228 0.931 . S
C211 N208 1.311 . S
C211 N212 1.347 . S
C211 H222 0.929 . S
N212 C210 1.375 . S
N212 C211 1.347 . S
C213 C216 1.365 . S
C213 N218 1.328 . S
C213 H219 0.929 . S
C214 C215 1.362 . S
C214 C217 1.378 . S
C214 H229 0.929 . S
C215 C214 1.362 . S
C215 C216 1.366 . S
C216 C213 1.365 . S
C216 C215 1.366 . S
C216 H230 0.930 . S
C217 C214 1.378 . S
C217 N218 1.315 . S
C217 H220 0.930 . S
N218 Co198 2.194 . S
N218 C213 1.328 . S
N218 C217 1.315 . S
H219 C213 0.929 . S
H220 C217 0.930 . S
H221 C209 0.929 . S
H222 C211 0.929 . S
O223 Co198 2.351 . S
O223 C226 1.244 . S
O224 Co198 2.155 . S
O224 C226 1.240 . S
O225 Co198 2.096 . S
O225 C206 1.247 . S
C226 O223 1.244 . S
C226 O224 1.240 . S
H227 C201 0.931 . S
H228 C210 0.931 . S
H229 C214 0.929 . S
H230 C216 0.930 . S
Co231 N235 2.148 . S
Co231 N241 2.128 . S
Co231 N251 2.194 . S
Co231 O256 2.351 . S
Co231 O257 2.155 . S
Co231 O258 2.096 . S
C232 N235 1.301 . S
C232 N236 1.328 . S
C232 H237 0.930 . S
C233 C234 1.333 . S
C233 N235 1.317 . S
C233 H238 0.930 . S
C234 C233 1.333 . S
C234 N236 1.350 . S
C234 H260 0.931 . S
N235 Co231 2.148 . S
N235 C232 1.301 . S
N235 C233 1.317 . S
N236 C232 1.328 . S
N236 C234 1.350 . S
H237 C232 0.930 . S
H238 C233 0.930 . S
C239 O240 1.224 . S
C239 O258 1.247 . S
O240 C239 1.224 . S
N241 Co231 2.128 . S
N241 C242 1.355 1_556 S
N241 C244 1.311 1_556 S
C242 N241 1.355 1_554 S
C242 C243 1.363 . S
C242 H254 0.929 1_554 S
C243 C242 1.363 . S
C243 N245 1.375 . S
C243 H261 0.931 . S
C244 N241 1.311 1_554 S
C244 N245 1.347 . S
C244 H255 0.929 . S
N245 C243 1.375 . S
N245 C244 1.347 . S
C246 C249 1.365 . S
C246 N251 1.328 . S
C246 H252 0.929 . S
C247 C248 1.362 . S
C247 C250 1.378 . S
C247 H262 0.929 . S
C248 C247 1.362 . S
C248 C249 1.366 . S
C249 C246 1.365 . S
C249 C248 1.366 . S
C249 H263 0.930 . S
C250 C247 1.378 . S
C250 N251 1.315 . S
C250 H253 0.930 . S
N251 Co231 2.194 . S
N251 C246 1.328 . S
N251 C250 1.315 . S
H252 C246 0.929 . S
H253 C250 0.930 . S
H254 C242 0.929 1_556 S
H255 C244 0.929 . S
O256 Co231 2.351 . S
O256 C259 1.244 . S
O257 Co231 2.155 . S
O257 C259 1.240 . S
O258 Co231 2.096 . S
O258 C239 1.247 . S
C259 O256 1.244 . S
C259 O257 1.240 . S
H260 C234 0.931 . S
H261 C243 0.931 . S
H262 C247 0.929 . S
H263 C249 0.930 . S
Co264 N268 2.148 1_554 S
Co264 N274 2.128 . S
Co264 N284 2.194 . S
Co264 O289 2.351 . S
Co264 O290 2.155 . S
Co264 O291 2.096 . S
C265 N268 1.301 . S
C265 N269 1.328 . S
C265 H270 0.930 . S
C266 C267 1.333 . S
C266 N268 1.317 . S
C266 H271 0.930 . S
C267 C266 1.333 . S
C267 N269 1.350 . S
C267 H293 0.931 . S
N268 Co264 2.148 1_556 S
N268 C265 1.301 . S
N268 C266 1.317 . S
N269 C265 1.328 . S
N269 C267 1.350 . S
H270 C265 0.930 . S
H271 C266 0.930 . S
C272 O273 1.224 . S
C272 O291 1.247 . S
O273 C272 1.224 . S
N274 Co264 2.128 . S
N274 C275 1.355 . S
N274 C277 1.311 . S
C275 N274 1.355 . S
C275 C276 1.363 . S
C275 H287 0.929 . S
C276 C275 1.363 . S
C276 N278 1.375 . S
C276 H294 0.931 . S
C277 N274 1.311 . S
C277 N278 1.347 . S
C277 H288 0.929 . S
N278 C276 1.375 . S
N278 C277 1.347 . S
C279 C282 1.365 . S
C279 N284 1.328 . S
C279 H285 0.929 . S
C280 C281 1.362 . S
C280 C283 1.378 . S
C280 H295 0.929 . S
C281 C280 1.362 . S
C281 C282 1.366 . S
C282 C279 1.365 . S
C282 C281 1.366 . S
C282 H296 0.930 . S
C283 C280 1.378 . S
C283 N284 1.315 . S
C283 H286 0.930 . S
N284 Co264 2.194 . S
N284 C279 1.328 . S
N284 C283 1.315 . S
H285 C279 0.929 . S
H286 C283 0.930 . S
H287 C275 0.929 . S
H288 C277 0.929 . S
O289 Co264 2.351 . S
O289 C292 1.244 . S
O290 Co264 2.155 . S
O290 C292 1.240 . S
O291 Co264 2.096 . S
O291 C272 1.247 . S
C292 O289 1.244 . S
C292 O290 1.240 . S
H293 C267 0.931 . S
H294 C276 0.931 . S
H295 C280 0.929 . S
H296 C282 0.930 . S
Co297 N301 2.148 . S
Co297 N307 2.128 . S
Co297 N317 2.194 . S
Co297 O322 2.351 . S
Co297 O323 2.155 . S
Co297 O324 2.096 . S
C298 N301 1.301 . S
C298 N302 1.328 . S
C298 H303 0.930 . S
C299 C300 1.333 . S
C299 N301 1.317 . S
C299 H304 0.930 . S
C300 C299 1.333 . S
C300 N302 1.350 . S
C300 H326 0.931 . S
N301 Co297 2.148 . S
N301 C298 1.301 . S
N301 C299 1.317 . S
N302 C298 1.328 . S
N302 C300 1.350 . S
H303 C298 0.930 . S
H304 C299 0.930 . S
C305 O306 1.224 . S
C305 O324 1.247 . S
O306 C305 1.224 . S
N307 Co297 2.128 . S
N307 C308 1.355 . S
N307 C310 1.311 . S
C308 N307 1.355 . S
C308 C309 1.363 . S
C308 H320 0.929 . S
C309 C308 1.363 . S
C309 N311 1.375 . S
C309 H327 0.931 . S
C310 N307 1.311 . S
C310 N311 1.347 . S
C310 H321 0.929 . S
N311 C309 1.375 . S
N311 C310 1.347 . S
C312 C315 1.365 . S
C312 N317 1.328 . S
C312 H318 0.929 . S
C313 C314 1.362 . S
C313 C316 1.378 . S
C313 H328 0.929 . S
C314 C313 1.362 . S
C314 C315 1.366 . S
C315 C312 1.365 . S
C315 C314 1.366 . S
C315 H329 0.930 . S
C316 C313 1.378 . S
C316 N317 1.315 . S
C316 H319 0.930 . S
N317 Co297 2.194 . S
N317 C312 1.328 . S
N317 C316 1.315 . S
H318 C312 0.929 . S
H319 C316 0.930 . S
H320 C308 0.929 . S
H321 C310 0.929 . S
O322 Co297 2.351 . S
O322 C325 1.244 . S
O323 Co297 2.155 . S
O323 C325 1.240 . S
O324 Co297 2.096 . S
O324 C305 1.247 . S
C325 O322 1.244 . S
C325 O323 1.240 . S
H326 C300 0.931 . S
H327 C309 0.931 . S
H328 C313 0.929 . S
H329 C315 0.930 . S
Co330 N334 2.148 . S
Co330 N340 2.128 . S
Co330 N350 2.194 . S
Co330 O355 2.351 . S
Co330 O356 2.155 . S
Co330 O357 2.096 . S
C331 N334 1.301 . S
C331 N335 1.328 . S
C331 H336 0.930 . S
C332 C333 1.333 . S
C332 N334 1.317 . S
C332 H337 0.930 . S
C333 C332 1.333 . S
C333 N335 1.350 . S
C333 H359 0.931 . S
N334 Co330 2.148 . S
N334 C331 1.301 . S
N334 C332 1.317 . S
N335 C331 1.328 . S
N335 C333 1.350 . S
H336 C331 0.930 . S
H337 C332 0.930 . S
C338 O339 1.224 . S
C338 O357 1.247 . S
O339 C338 1.224 . S
N340 Co330 2.128 . S
N340 C341 1.355 . S
N340 C343 1.311 . S
C341 N340 1.355 . S
C341 C342 1.363 . S
C341 H353 0.929 . S
C342 C341 1.363 . S
C342 N344 1.375 . S
C342 H360 0.931 . S
C343 N340 1.311 . S
C343 N344 1.347 . S
C343 H354 0.929 . S
N344 C342 1.375 . S
N344 C343 1.347 . S
C345 C348 1.365 . S
C345 N350 1.328 . S
C345 H351 0.929 . S
C346 C347 1.362 . S
C346 C349 1.378 . S
C346 H361 0.929 . S
C347 C346 1.362 . S
C347 C348 1.366 . S
C348 C345 1.365 . S
C348 C347 1.366 . S
C348 H362 0.930 . S
C349 C346 1.378 . S
C349 N350 1.315 . S
C349 H352 0.930 . S
N350 Co330 2.194 . S
N350 C345 1.328 . S
N350 C349 1.315 . S
H351 C345 0.929 . S
H352 C349 0.930 . S
H353 C341 0.929 . S
H354 C343 0.929 . S
O355 Co330 2.351 . S
O355 C358 1.244 . S
O356 Co330 2.155 . S
O356 C358 1.240 . S
O357 Co330 2.096 . S
O357 C338 1.247 . S
C358 O355 1.244 . S
C358 O356 1.240 . S
H359 C333 0.931 . S
H360 C342 0.931 . S
H361 C346 0.929 . S
H362 C348 0.930 . S
Co363 N367 2.148 . S
Co363 N373 2.128 . S
Co363 N383 2.194 . S
Co363 O388 2.351 . S
Co363 O389 2.155 . S
Co363 O390 2.096 . S
C364 N367 1.301 . S
C364 N368 1.328 . S
C364 H369 0.930 . S
C365 C366 1.333 . S
C365 N367 1.317 . S
C365 H370 0.930 . S
C366 C365 1.333 . S
C366 N368 1.350 . S
C366 H392 0.931 . S
N367 Co363 2.148 . S
N367 C364 1.301 . S
N367 C365 1.317 . S
N368 C364 1.328 . S
N368 C366 1.350 . S
H369 C364 0.930 . S
H370 C365 0.930 . S
C371 O372 1.224 . S
C371 O390 1.247 . S
O372 C371 1.224 . S
N373 Co363 2.128 . S
N373 C374 1.355 . S
N373 C376 1.311 . S
C374 N373 1.355 . S
C374 C375 1.363 . S
C374 H386 0.929 . S
C375 C374 1.363 . S
C375 N377 1.375 . S
C375 H393 0.931 . S
C376 N373 1.311 . S
C376 N377 1.347 . S
C376 H387 0.929 . S
N377 C375 1.375 . S
N377 C376 1.347 . S
C378 C381 1.365 . S
C378 N383 1.328 . S
C378 H384 0.929 . S
C379 C380 1.362 . S
C379 C382 1.378 . S
C379 H394 0.929 . S
C380 C379 1.362 . S
C380 C381 1.366 . S
C381 C378 1.365 . S
C381 C380 1.366 . S
C381 H395 0.930 . S
C382 C379 1.378 . S
C382 N383 1.315 . S
C382 H385 0.930 . S
N383 Co363 2.194 . S
N383 C378 1.328 . S
N383 C382 1.315 . S
H384 C378 0.929 . S
H385 C382 0.930 . S
H386 C374 0.929 . S
H387 C376 0.929 . S
O388 Co363 2.351 . S
O388 C391 1.244 . S
O389 Co363 2.155 . S
O389 C391 1.240 . S
O390 Co363 2.096 . S
O390 C371 1.247 . S
C391 O388 1.244 . S
C391 O389 1.240 . S
H392 C366 0.931 . S
H393 C375 0.931 . S
H394 C379 0.929 . S
H395 C381 0.930 . S
H396 C404 0.929 . S
H397 C406 0.930 . S
H398 C408 0.930 . S
H399 C411 0.929 . S
H400 C414 0.930 . S
H401 C416 0.960 . S
H402 C416 0.960 . S
H403 C416 0.960 . S
C404 H396 0.929 . S
C404 C405 1.377 . S
C404 C406 1.384 . S
C405 C404 1.377 . S
C405 C411 1.390 . S
C406 H397 0.930 . S
C406 C404 1.384 . S
C406 C407 1.372 . S
C407 C406 1.372 . S
C407 C408 1.400 . S
C407 C412 1.490 . S
C408 H398 0.930 . S
C408 C407 1.400 . S
C408 C411 1.386 . S
H409 C425 0.930 . S
H410 C426 0.931 . S
C411 H399 0.929 . S
C411 C405 1.390 . S
C411 C408 1.386 . S
C412 C407 1.490 . S
C412 C414 1.395 . S
C412 C415 1.403 . S
H413 C419 0.930 . S
C414 H400 0.930 . S
C414 C412 1.395 . S
C414 C417 1.403 . S
C415 C412 1.403 . S
C415 C416 1.524 . S
C415 C419 1.400 . S
C416 H401 0.960 . S
C416 H402 0.960 . S
C416 H403 0.960 . S
C416 C415 1.524 . S
C417 C414 1.403 . S
C417 C418 1.392 . S
C417 C421 1.495 . S
C418 C417 1.392 . S
C418 C419 1.385 . S
C418 C420 1.478 . S
C419 H413 0.930 . S
C419 C415 1.400 . S
C419 C418 1.385 . S
C420 C418 1.478 . S
C420 C422 1.381 . S
C420 C426 1.383 . S
C421 C417 1.495 . S
C421 H427 0.959 . S
C421 H428 0.961 . S
C421 H429 0.960 . S
C422 C420 1.381 . S
C422 C423 1.394 . S
C422 H430 0.930 . S
C423 C422 1.394 . S
C423 C424 1.383 . S
C423 H431 0.929 . S
C424 C423 1.383 . S
C424 C425 1.377 . S
C425 H409 0.930 . S
C425 C424 1.377 . S
C425 C426 1.379 . S
C426 H410 0.931 . S
C426 C420 1.383 . S
C426 C425 1.379 . S
H427 C421 0.959 . S
H428 C421 0.961 . S
H429 C421 0.960 . S
H430 C422 0.930 . S
H431 C423 0.929 . S
H432 C440 0.929 1_554 S
H433 C442 0.930 . S
H434 C444 0.930 . S
H435 C447 0.929 . S
H436 C450 0.930 . S
H437 C452 0.960 . S
H438 C452 0.960 . S
H439 C452 0.960 . S
C440 H432 0.929 1_556 S
C440 C441 1.377 1_556 S
C440 C442 1.384 . S
C441 C440 1.377 1_554 S
C441 C447 1.390 1_554 S
C442 H433 0.930 . S
C442 C440 1.384 . S
C442 C443 1.372 . S
C443 C442 1.372 . S
C443 C444 1.400 . S
C443 C448 1.490 . S
C444 H434 0.930 . S
C444 C443 1.400 . S
C444 C447 1.386 . S
H445 C461 0.930 . S
H446 C462 0.931 . S
C447 H435 0.929 . S
C447 C441 1.390 1_556 S
C447 C444 1.386 . S
C448 C443 1.490 . S
C448 C450 1.395 . S
C448 C451 1.403 . S
H449 C455 0.930 . S
C450 H436 0.930 . S
C450 C448 1.395 . S
C450 C453 1.403 . S
C451 C448 1.403 . S
C451 C452 1.524 . S
C451 C455 1.400 . S
C452 H437 0.960 . S
C452 H438 0.960 . S
C452 H439 0.960 . S
C452 C451 1.524 . S
C453 C450 1.403 . S
C453 C454 1.392 . S
C453 C457 1.495 . S
C454 C453 1.392 . S
C454 C455 1.385 . S
C454 C456 1.478 . S
C455 H449 0.930 . S
C455 C451 1.400 . S
C455 C454 1.385 . S
C456 C454 1.478 . S
C456 C458 1.381 . S
C456 C462 1.383 . S
C457 C453 1.495 . S
C457 H463 0.959 . S
C457 H464 0.961 . S
C457 H465 0.960 . S
C458 C456 1.381 . S
C458 C459 1.394 . S
C458 H466 0.930 . S
C459 C458 1.394 . S
C459 C460 1.383 . S
C459 H467 0.929 . S
C460 C459 1.383 . S
C460 C461 1.377 . S
C461 H445 0.930 . S
C461 C460 1.377 . S
C461 C462 1.379 . S
C462 H446 0.931 . S
C462 C456 1.383 . S
C462 C461 1.379 . S
H463 C457 0.959 . S
H464 C457 0.961 . S
H465 C457 0.960 . S
H466 C458 0.930 . S
H467 C459 0.929 . S
H468 C476 0.929 . S
H469 C478 0.930 . S
H470 C480 0.930 . S
H471 C483 0.929 . S
H472 C486 0.930 . S
H473 C488 0.960 . S
H474 C488 0.960 . S
H475 C488 0.966 . S
C476 H468 0.929 . S
C476 C477 1.377 . S
C476 C478 1.384 . S
C477 C476 1.377 . S
C477 C483 1.390 . S
C478 H469 0.930 . S
C478 C476 1.384 . S
C478 C479 1.372 . S
C479 C478 1.372 . S
C479 C480 1.400 . S
C479 C484 1.490 1_554 S
C480 H470 0.930 . S
C480 C479 1.400 . S
C480 C483 1.386 . S
H481 C497 0.930 . S
H482 C498 0.931 . S
C483 H471 0.929 . S
C483 C477 1.390 . S
C483 C480 1.386 . S
C484 C479 1.490 1_556 S
C484 C486 1.395 . S
C484 C487 1.403 . S
H485 C491 0.930 . S
C486 H472 0.930 . S
C486 C484 1.395 . S
C486 C489 1.403 . S
C487 C484 1.403 . S
C487 C488 1.524 . S
C487 C491 1.400 . S
C488 H473 0.960 . S
C488 H474 0.960 . S
C488 H475 0.966 . S
C488 C487 1.524 . S
C489 C486 1.403 . S
C489 C490 1.392 . S
C489 C493 1.495 . S
C490 C489 1.392 . S
C490 C491 1.385 . S
C490 C492 1.478 . S
C491 H485 0.930 . S
C491 C487 1.400 . S
C491 C490 1.385 . S
C492 C490 1.478 . S
C492 C494 1.381 . S
C492 C498 1.383 . S
C493 C489 1.495 . S
C493 H499 0.959 . S
C493 H500 0.961 . S
C493 H501 0.960 . S
C494 C492 1.381 . S
C494 C495 1.394 . S
C494 H502 0.930 . S
C495 C494 1.394 . S
C495 C496 1.383 . S
C495 H503 0.929 . S
C496 C495 1.383 . S
C496 C497 1.377 . S
C497 H481 0.930 . S
C497 C496 1.377 . S
C497 C498 1.379 . S
C498 H482 0.931 . S
C498 C492 1.383 . S
C498 C497 1.379 . S
H499 C493 0.959 . S
H500 C493 0.961 . S
H501 C493 0.960 . S
H502 C494 0.930 . S
H503 C495 0.929 . S
H504 C512 0.929 . S
H505 C514 0.930 . S
H506 C516 0.930 . S
H507 C519 0.929 . S
H508 C522 0.930 . S
H509 C524 0.960 . S
H510 C524 0.960 . S
H511 C524 0.960 . S
C512 H504 0.929 . S
C512 C513 1.377 . S
C512 C514 1.384 . S
C513 C512 1.377 . S
C513 C519 1.390 . S
C514 H505 0.930 . S
C514 C512 1.384 . S
C514 C515 1.372 . S
C515 C514 1.372 . S
C515 C516 1.400 . S
C515 C520 1.490 1_556 S
C516 H506 0.930 . S
C516 C515 1.400 . S
C516 C519 1.386 . S
H517 C533 0.930 . S
H518 C534 0.931 . S
C519 H507 0.929 . S
C519 C513 1.390 . S
C519 C516 1.386 . S
C520 C515 1.490 1_554 S
C520 C522 1.395 . S
C520 C523 1.403 . S
H521 C527 0.930 . S
C522 H508 0.930 . S
C522 C520 1.395 . S
C522 C525 1.403 . S
C523 C520 1.403 . S
C523 C524 1.524 . S
C523 C527 1.400 . S
C524 H509 0.960 . S
C524 H510 0.960 . S
C524 H511 0.960 . S
C524 C523 1.524 . S
C525 C522 1.403 . S
C525 C526 1.392 . S
C525 C529 1.495 . S
C526 C525 1.392 . S
C526 C527 1.385 . S
C526 C528 1.478 . S
C527 H521 0.930 . S
C527 C523 1.400 . S
C527 C526 1.385 . S
C528 C526 1.478 . S
C528 C530 1.381 . S
C528 C534 1.383 . S
C529 C525 1.495 . S
C529 H535 0.959 . S
C529 H536 0.961 . S
C529 H537 0.960 . S
C530 C528 1.381 . S
C530 C531 1.394 . S
C530 H538 0.930 . S
C531 C530 1.394 . S
C531 C532 1.383 . S
C531 H539 0.929 . S
C532 C531 1.383 . S
C532 C533 1.377 . S
C533 H517 0.930 . S
C533 C532 1.377 . S
C533 C534 1.379 . S
C534 H518 0.931 . S
C534 C528 1.383 . S
C534 C533 1.379 . S
H535 C529 0.959 . S
H536 C529 0.961 . S
H537 C529 0.960 . S
H538 C530 0.930 . S
H539 C531 0.929 . S
H540 C548 0.929 . S
H541 C550 0.930 . S
H542 C552 0.930 . S
H543 C555 0.929 . S
H544 C558 0.930 . S
H545 C560 0.960 . S
H546 C560 0.960 . S
H547 C560 0.960 . S
C548 H540 0.929 . S
C548 C549 1.377 . S
C548 C550 1.384 . S
C549 C548 1.377 . S
C549 C555 1.390 . S
C550 H541 0.930 . S
C550 C548 1.384 . S
C550 C551 1.372 . S
C551 C550 1.372 . S
C551 C552 1.400 . S
C551 C556 1.490 . S
C552 H542 0.930 . S
C552 C551 1.400 . S
C552 C555 1.386 . S
H553 C569 0.930 . S
H554 C570 0.931 . S
C555 H543 0.929 . S
C555 C549 1.390 . S
C555 C552 1.386 . S
C556 C551 1.490 . S
C556 C558 1.395 . S
C556 C559 1.403 . S
H557 C563 0.930 . S
C558 H544 0.930 . S
C558 C556 1.395 . S
C558 C561 1.403 . S
C559 C556 1.403 . S
C559 C560 1.524 . S
C559 C563 1.400 . S
C560 H545 0.960 . S
C560 H546 0.960 . S
C560 H547 0.960 . S
C560 C559 1.524 . S
C561 C558 1.403 . S
C561 C562 1.392 . S
C561 C565 1.495 . S
C562 C561 1.392 . S
C562 C563 1.385 . S
C562 C564 1.478 . S
C563 H557 0.930 . S
C563 C559 1.400 . S
C563 C562 1.385 . S
C564 C562 1.478 . S
C564 C566 1.381 . S
C564 C570 1.383 . S
C565 C561 1.495 . S
C565 H571 0.959 . S
C565 H572 0.961 . S
C565 H573 0.960 . S
C566 C564 1.381 . S
C566 C567 1.394 . S
C566 H574 0.930 . S
C567 C566 1.394 . S
C567 C568 1.383 . S
C567 H575 0.929 . S
C568 C567 1.383 . S
C568 C569 1.377 . S
C569 H553 0.930 . S
C569 C568 1.377 . S
C569 C570 1.379 . S
C570 H554 0.931 . S
C570 C564 1.383 . S
C570 C569 1.379 . S
H571 C565 0.959 . S
H572 C565 0.961 . S
H573 C565 0.960 . S
H574 C566 0.930 . S
H575 C567 0.929 . S
H576 C584 0.929 . S
H577 C586 0.930 . S
H578 C588 0.930 . S
H579 C591 0.929 . S
H580 C594 0.930 . S
H581 C596 0.960 . S
H582 C596 0.960 . S
H583 C596 0.960 . S
C584 H576 0.929 . S
C584 C585 1.377 . S
C584 C586 1.384 . S
C585 C584 1.377 . S
C585 C591 1.390 . S
C586 H577 0.930 . S
C586 C584 1.384 . S
C586 C587 1.372 . S
C587 C586 1.372 . S
C587 C588 1.400 . S
C587 C592 1.490 . S
C588 H578 0.930 . S
C588 C587 1.400 . S
C588 C591 1.386 . S
H589 C605 0.930 . S
H590 C606 0.931 . S
C591 H579 0.929 . S
C591 C585 1.390 . S
C591 C588 1.386 . S
C592 C587 1.490 . S
C592 C594 1.395 . S
C592 C595 1.403 . S
H593 C599 0.930 . S
C594 H580 0.930 . S
C594 C592 1.395 . S
C594 C597 1.403 . S
C595 C592 1.403 . S
C595 C596 1.524 . S
C595 C599 1.400 . S
C596 H581 0.960 . S
C596 H582 0.960 . S
C596 H583 0.960 . S
C596 C595 1.524 . S
C597 C594 1.403 . S
C597 C598 1.392 . S
C597 C601 1.495 . S
C598 C597 1.392 . S
C598 C599 1.385 . S
C598 C600 1.478 . S
C599 H593 0.930 . S
C599 C595 1.400 . S
C599 C598 1.385 . S
C600 C598 1.478 . S
C600 C602 1.381 . S
C600 C606 1.383 . S
C601 C597 1.495 . S
C601 H607 0.959 . S
C601 H608 0.961 . S
C601 H609 0.960 . S
C602 C600 1.381 . S
C602 C603 1.394 . S
C602 H610 0.930 . S
C603 C602 1.394 . S
C603 C604 1.383 . S
C603 H611 0.929 . S
C604 C603 1.383 . S
C604 C605 1.377 . S
C605 H589 0.930 . S
C605 C604 1.377 . S
C605 C606 1.379 . S
C606 H590 0.931 . S
C606 C600 1.383 . S
C606 C605 1.379 . S
H607 C601 0.959 . S
H608 C601 0.961 . S
H609 C601 0.960 . S
H610 C602 0.930 . S
H611 C603 0.929 . S
H612 C620 0.929 . S
H613 C622 0.930 . S
H614 C624 0.930 . S
H615 C627 0.929 . S
H616 C630 0.930 . S
H617 C632 0.960 . S
H618 C632 0.960 . S
H619 C632 0.960 . S
C620 H612 0.929 . S
C620 C621 1.377 . S
C620 C622 1.384 . S
C621 C620 1.377 . S
C621 C627 1.390 . S
C622 H613 0.930 . S
C622 C620 1.384 . S
C622 C623 1.372 . S
C623 C622 1.372 . S
C623 C624 1.400 . S
C623 C628 1.490 . S
C624 H614 0.930 . S
C624 C623 1.400 . S
C624 C627 1.386 . S
H625 C641 0.930 1_556 S
H626 C642 0.931 . S
C627 H615 0.929 . S
C627 C621 1.390 . S
C627 C624 1.386 . S
C628 C623 1.490 . S
C628 C630 1.395 . S
C628 C631 1.403 . S
H629 C635 0.930 . S
C630 H616 0.930 . S
C630 C628 1.395 . S
C630 C633 1.403 . S
C631 C628 1.403 . S
C631 C632 1.524 . S
C631 C635 1.400 . S
C632 H617 0.960 . S
C632 H618 0.960 . S
C632 H619 0.960 . S
C632 C631 1.524 . S
C633 C630 1.403 . S
C633 C634 1.392 . S
C633 C637 1.495 . S
C634 C633 1.392 . S
C634 C635 1.385 . S
C634 C636 1.478 . S
C635 H629 0.930 . S
C635 C631 1.400 . S
C635 C634 1.385 . S
C636 C634 1.478 . S
C636 C638 1.381 . S
C636 C642 1.383 . S
C637 C633 1.495 . S
C637 H643 0.959 . S
C637 H644 0.961 . S
C637 H645 0.960 . S
C638 C636 1.381 . S
C638 C639 1.394 . S
C638 H646 0.930 . S
C639 C638 1.394 . S
C639 C640 1.383 1_554 S
C639 H647 0.929 1_554 S
C640 C639 1.383 1_556 S
C640 C641 1.377 1_556 S
C641 H625 0.930 1_554 S
C641 C640 1.377 1_554 S
C641 C642 1.379 . S
C642 H626 0.931 . S
C642 C636 1.383 . S
C642 C641 1.379 . S
H643 C637 0.959 . S
H644 C637 0.961 . S
H645 C637 0.960 . S
H646 C638 0.930 . S
H647 C639 0.929 1_556 S
H648 C656 0.929 . S
H649 C658 0.930 . S
H650 C660 0.930 . S
H651 C663 0.929 . S
H652 C666 0.930 . S
H653 C668 0.960 . S
H654 C668 0.960 . S
H655 C668 0.960 . S
C656 H648 0.929 . S
C656 C657 1.377 . S
C656 C658 1.384 . S
C657 C656 1.377 . S
C657 C663 1.390 . S
C658 H649 0.930 . S
C658 C656 1.384 . S
C658 C659 1.372 . S
C659 C658 1.372 . S
C659 C660 1.400 . S
C659 C664 1.490 . S
C660 H650 0.930 . S
C660 C659 1.400 . S
C660 C663 1.386 . S
H661 C677 0.930 . S
H662 C678 0.931 . S
C663 H651 0.929 . S
C663 C657 1.390 . S
C663 C660 1.386 . S
C664 C659 1.490 . S
C664 C666 1.395 . S
C664 C667 1.403 . S
H665 C671 0.930 . S
C666 H652 0.930 . S
C666 C664 1.395 . S
C666 C669 1.403 . S
C667 C664 1.403 . S
C667 C668 1.524 . S
C667 C671 1.400 . S
C668 H653 0.960 . S
C668 H654 0.960 . S
C668 H655 0.960 . S
C668 C667 1.524 . S
C669 C666 1.403 . S
C669 C670 1.392 . S
C669 C673 1.495 . S
C670 C669 1.392 . S
C670 C671 1.385 . S
C670 C672 1.478 . S
C671 H665 0.930 . S
C671 C667 1.400 . S
C671 C670 1.385 . S
C672 C670 1.478 . S
C672 C674 1.381 . S
C672 C678 1.383 . S
C673 C669 1.495 . S
C673 H679 0.959 . S
C673 H680 0.961 . S
C673 H681 0.960 . S
C674 C672 1.381 . S
C674 C675 1.394 . S
C674 H682 0.930 . S
C675 C674 1.394 . S
C675 C676 1.383 . S
C675 H683 0.929 . S
C676 C675 1.383 . S
C676 C677 1.377 . S
C677 H661 0.930 . S
C677 C676 1.377 . S
C677 C678 1.379 . S
C678 H662 0.931 . S
C678 C672 1.383 . S
C678 C677 1.379 . S
H679 C673 0.959 . S
H680 C673 0.961 . S
H681 C673 0.960 . S
H682 C674 0.930 . S
H683 C675 0.929 . S
H684 C692 0.929 . S
H685 C694 0.930 . S
H686 C696 0.930 . S
H687 C699 0.929 . S
H688 C702 0.930 . S
H689 C704 0.960 . S
H690 C704 0.960 . S
H691 C704 0.960 . S
C692 H684 0.929 . S
C692 C693 1.377 . S
C692 C694 1.384 . S
C693 C692 1.377 . S
C693 C699 1.390 . S
C694 H685 0.930 . S
C694 C692 1.384 . S
C694 C695 1.372 . S
C695 C694 1.372 . S
C695 C696 1.400 . S
C695 C700 1.490 . S
C696 H686 0.930 . S
C696 C695 1.400 . S
C696 C699 1.386 . S
H697 C713 0.930 . S
H698 C714 0.931 . S
C699 H687 0.929 . S
C699 C693 1.390 . S
C699 C696 1.386 . S
C700 C695 1.490 . S
C700 C702 1.395 . S
C700 C703 1.403 . S
H701 C707 0.930 . S
C702 H688 0.930 . S
C702 C700 1.395 . S
C702 C705 1.403 . S
C703 C700 1.403 . S
C703 C704 1.524 . S
C703 C707 1.400 . S
C704 H689 0.960 . S
C704 H690 0.960 . S
C704 H691 0.960 . S
C704 C703 1.524 . S
C705 C702 1.403 . S
C705 C706 1.392 . S
C705 C709 1.495 . S
C706 C705 1.392 . S
C706 C707 1.385 . S
C706 C708 1.478 . S
C707 H701 0.930 . S
C707 C703 1.400 . S
C707 C706 1.385 . S
C708 C706 1.478 . S
C708 C710 1.381 . S
C708 C714 1.383 . S
C709 C705 1.495 . S
C709 H715 0.959 . S
C709 H716 0.961 . S
C709 H717 0.960 . S
C710 C708 1.381 . S
C710 C711 1.394 . S
C710 H718 0.930 . S
C711 C710 1.394 . S
C711 C712 1.383 . S
C711 H719 0.929 . S
C712 C711 1.383 . S
C712 C713 1.377 . S
C713 H697 0.930 . S
C713 C712 1.377 . S
C713 C714 1.379 . S
C714 H698 0.931 . S
C714 C708 1.383 . S
C714 C713 1.379 . S
H715 C709 0.959 . S
H716 C709 0.961 . S
H717 C709 0.960 . S
H718 C710 0.930 . S
H719 C711 0.929 . S
H720 C728 0.929 . S
H721 C730 0.930 . S
H722 C732 0.930 . S
H723 C735 0.929 . S
H724 C738 0.930 . S
H725 C740 0.960 . S
H726 C740 0.960 . S
H727 C740 0.960 . S
C728 H720 0.929 . S
C728 C729 1.377 . S
C728 C730 1.384 . S
C729 C728 1.377 . S
C729 C735 1.390 . S
C730 H721 0.930 . S
C730 C728 1.384 . S
C730 C731 1.372 . S
C731 C730 1.372 . S
C731 C732 1.400 . S
C731 C736 1.490 . S
C732 H722 0.930 . S
C732 C731 1.400 . S
C732 C735 1.386 . S
H733 C749 0.930 . S
H734 C750 0.931 . S
C735 H723 0.929 . S
C735 C729 1.390 . S
C735 C732 1.386 . S
C736 C731 1.490 . S
C736 C738 1.395 . S
C736 C739 1.403 . S
H737 C743 0.930 . S
C738 H724 0.930 . S
C738 C736 1.395 . S
C738 C741 1.403 . S
C739 C736 1.403 . S
C739 C740 1.524 . S
C739 C743 1.400 . S
C740 H725 0.960 . S
C740 H726 0.960 . S
C740 H727 0.960 . S
C740 C739 1.524 . S
C741 C738 1.403 . S
C741 C742 1.392 . S
C741 C745 1.495 . S
C742 C741 1.392 . S
C742 C743 1.385 . S
C742 C744 1.478 . S
C743 H737 0.930 . S
C743 C739 1.400 . S
C743 C742 1.385 . S
C744 C742 1.478 . S
C744 C746 1.381 . S
C744 C750 1.383 . S
C745 C741 1.495 . S
C745 H751 0.959 . S
C745 H752 0.961 . S
C745 H753 0.960 . S
C746 C744 1.381 . S
C746 C747 1.394 . S
C746 H754 0.930 . S
C747 C746 1.394 . S
C747 C748 1.383 . S
C747 H755 0.929 . S
C748 C747 1.383 . S
C748 C749 1.377 . S
C749 H733 0.930 . S
C749 C748 1.377 . S
C749 C750 1.379 . S
C750 H734 0.931 . S
C750 C744 1.383 . S
C750 C749 1.379 . S
H751 C745 0.959 . S
H752 C745 0.961 . S
H753 C745 0.960 . S
H754 C746 0.930 . S
H755 C747 0.929 . S
H756 C764 0.929 . S
H757 C766 0.930 . S
H758 C768 0.930 . S
H759 C771 0.929 . S
H760 C774 0.930 . S
H761 C776 0.960 . S
H762 C776 0.960 . S
H763 C776 0.960 . S
C764 H756 0.929 . S
C764 C765 1.377 . S
C764 C766 1.384 . S
C765 C764 1.377 . S
C765 C771 1.390 . S
C766 H757 0.930 . S
C766 C764 1.384 . S
C766 C767 1.372 . S
C767 C766 1.372 . S
C767 C768 1.400 . S
C767 C772 1.490 1_554 S
C768 H758 0.930 . S
C768 C767 1.400 . S
C768 C771 1.386 . S
H769 C785 0.930 . S
H770 C786 0.931 . S
C771 H759 0.929 . S
C771 C765 1.390 . S
C771 C768 1.386 . S
C772 C767 1.490 1_556 S
C772 C774 1.395 . S
C772 C775 1.403 . S
H773 C779 0.930 . S
C774 H760 0.930 . S
C774 C772 1.395 . S
C774 C777 1.403 . S
C775 C772 1.403 . S
C775 C776 1.524 . S
C775 C779 1.400 . S
C776 H761 0.960 . S
C776 H762 0.960 . S
C776 H763 0.960 . S
C776 C775 1.524 . S
C777 C774 1.403 . S
C777 C778 1.392 . S
C777 C781 1.495 . S
C778 C777 1.392 . S
C778 C779 1.385 . S
C778 C780 1.478 . S
C779 H773 0.930 . S
C779 C775 1.400 . S
C779 C778 1.385 . S
C780 C778 1.478 . S
C780 C782 1.381 . S
C780 C786 1.383 . S
C781 C777 1.495 . S
C781 H787 0.959 . S
C781 H788 0.961 . S
C781 H789 0.960 . S
C782 C780 1.381 . S
C782 C783 1.394 . S
C782 H790 0.930 . S
C783 C782 1.394 . S
C783 C784 1.383 . S
C783 H791 0.929 . S
C784 C783 1.383 . S
C784 C785 1.377 . S
C785 H769 0.930 . S
C785 C784 1.377 . S
C785 C786 1.379 . S
C786 H770 0.931 . S
C786 C780 1.383 . S
C786 C785 1.379 . S
H787 C781 0.959 . S
H788 C781 0.961 . S
H789 C781 0.960 . S
H790 C782 0.930 . S
H791 C783 0.929 . S
H792 C800 0.929 . S
H793 C802 0.930 . S
H794 C804 0.930 . S
H795 C807 0.929 . S
H796 C810 0.930 . S
H797 C812 0.960 . S
H798 C812 0.960 1_556 S
H799 C812 0.960 1_556 S
C800 H792 0.929 . S
C800 C801 1.377 . S
C800 C802 1.384 . S
C801 C800 1.377 . S
C801 C807 1.390 . S
C802 H793 0.930 . S
C802 C800 1.384 . S
C802 C803 1.372 . S
C803 C802 1.372 . S
C803 C804 1.400 . S
C803 C808 1.490 1_556 S
C804 H794 0.930 . S
C804 C803 1.400 . S
C804 C807 1.386 . S
H805 C821 0.930 . S
H806 C822 0.931 . S
C807 H795 0.929 . S
C807 C801 1.390 . S
C807 C804 1.386 . S
C808 C803 1.490 1_554 S
C808 C810 1.395 . S
C808 C811 1.403 . S
H809 C815 0.930 . S
C810 H796 0.930 . S
C810 C808 1.395 . S
C810 C813 1.403 . S
C811 C808 1.403 . S
C811 C812 1.524 . S
C811 C815 1.400 . S
C812 H797 0.960 . S
C812 H798 0.960 1_554 S
C812 H799 0.960 1_554 S
C812 C811 1.524 . S
C813 C810 1.403 . S
C813 C814 1.392 . S
C813 C817 1.495 . S
C814 C813 1.392 . S
C814 C815 1.385 . S
C814 C816 1.478 . S
C815 H809 0.930 . S
C815 C811 1.400 . S
C815 C814 1.385 . S
C816 C814 1.478 . S
C816 C818 1.381 . S
C816 C822 1.383 . S
C817 C813 1.495 . S
C817 H823 0.959 . S
C817 H824 0.961 . S
C817 H825 0.960 . S
C818 C816 1.381 . S
C818 C819 1.394 . S
C818 H826 0.930 . S
C819 C818 1.394 . S
C819 C820 1.383 . S
C819 H827 0.929 . S
C820 C819 1.383 . S
C820 C821 1.377 . S
C821 H805 0.930 . S
C821 C820 1.377 . S
C821 C822 1.379 . S
C822 H806 0.931 . S
C822 C816 1.383 . S
C822 C821 1.379 . S
H823 C817 0.959 . S
H824 C817 0.961 . S
H825 C817 0.960 . S
H826 C818 0.930 . S
H827 C819 0.929 . S
H828 C836 0.929 . S
H829 C838 0.930 . S
H830 C840 0.930 . S
H831 C843 0.929 . S
H832 C846 0.930 . S
H833 C848 0.960 . S
H834 C848 0.960 . S
H835 C848 0.960 . S
C836 H828 0.929 . S
C836 C837 1.377 . S
C836 C838 1.384 . S
C837 C836 1.377 . S
C837 C843 1.390 . S
C838 H829 0.930 . S
C838 C836 1.384 . S
C838 C839 1.372 . S
C839 C838 1.372 . S
C839 C840 1.400 . S
C839 C844 1.490 . S
C840 H830 0.930 . S
C840 C839 1.400 . S
C840 C843 1.386 . S
H841 C857 0.930 . S
H842 C858 0.931 . S
C843 H831 0.929 . S
C843 C837 1.390 . S
C843 C840 1.386 . S
C844 C839 1.490 . S
C844 C846 1.395 . S
C844 C847 1.403 . S
H845 C851 0.930 . S
C846 H832 0.930 . S
C846 C844 1.395 . S
C846 C849 1.403 . S
C847 C844 1.403 . S
C847 C848 1.524 . S
C847 C851 1.400 . S
C848 H833 0.960 . S
C848 H834 0.960 . S
C848 H835 0.960 . S
C848 C847 1.524 . S
C849 C846 1.403 . S
C849 C850 1.392 . S
C849 C853 1.495 . S
C850 C849 1.392 . S
C850 C851 1.385 . S
C850 C852 1.478 . S
C851 H845 0.930 . S
C851 C847 1.400 . S
C851 C850 1.385 . S
C852 C850 1.478 . S
C852 C854 1.381 . S
C852 C858 1.383 1_556 S
C853 C849 1.495 . S
C853 H859 0.959 . S
C853 H860 0.961 . S
C853 H861 0.960 . S
C854 C852 1.381 . S
C854 C855 1.394 . S
C854 H862 0.930 . S
C855 C854 1.394 . S
C855 C856 1.383 1_556 S
C855 H863 0.929 . S
C856 C855 1.383 1_554 S
C856 C857 1.377 . S
C857 H841 0.930 . S
C857 C856 1.377 . S
C857 C858 1.379 . S
C858 H842 0.931 . S
C858 C852 1.383 1_554 S
C858 C857 1.379 . S
H859 C853 0.959 . S
H860 C853 0.961 . S
H861 C853 0.960 . S
H862 C854 0.930 . S
H863 C855 0.929 . S
H864 C872 0.929 . S
H865 C874 0.930 . S
H866 C876 0.930 . S
H867 C879 0.929 . S
H868 C882 0.930 . S
H869 C884 0.960 . S
H870 C884 0.960 . S
H871 C884 0.960 . S
C872 H864 0.929 . S
C872 C873 1.377 . S
C872 C874 1.384 . S
C873 C872 1.377 . S
C873 C879 1.390 . S
C874 H865 0.930 . S
C874 C872 1.384 . S
C874 C875 1.372 . S
C875 C874 1.372 . S
C875 C876 1.400 . S
C875 C880 1.490 . S
C876 H866 0.930 . S
C876 C875 1.400 . S
C876 C879 1.386 . S
H877 C893 0.930 . S
H878 C894 0.931 . S
C879 H867 0.929 . S
C879 C873 1.390 . S
C879 C876 1.386 . S
C880 C875 1.490 . S
C880 C882 1.395 . S
C880 C883 1.403 . S
H881 C887 0.930 . S
C882 H868 0.930 . S
C882 C880 1.395 . S
C882 C885 1.403 . S
C883 C880 1.403 . S
C883 C884 1.524 . S
C883 C887 1.400 . S
C884 H869 0.960 . S
C884 H870 0.960 . S
C884 H871 0.960 . S
C884 C883 1.524 . S
C885 C882 1.403 . S
C885 C886 1.392 . S
C885 C889 1.495 . S
C886 C885 1.392 . S
C886 C887 1.385 . S
C886 C888 1.478 . S
C887 H881 0.930 . S
C887 C883 1.400 . S
C887 C886 1.385 . S
C888 C886 1.478 . S
C888 C890 1.381 . S
C888 C894 1.383 1_554 S
C889 C885 1.495 . S
C889 H895 0.959 . S
C889 H896 0.961 1_554 S
C889 H897 0.960 . S
C890 C888 1.381 . S
C890 C891 1.394 . S
C890 H898 0.930 . S
C891 C890 1.394 . S
C891 C892 1.383 1_554 S
C891 H899 0.929 . S
C892 C891 1.383 1_556 S
C892 C893 1.377 . S
C893 H877 0.930 . S
C893 C892 1.377 . S
C893 C894 1.379 . S
C894 H878 0.931 . S
C894 C888 1.383 1_556 S
C894 C893 1.379 . S
H895 C889 0.959 . S
H896 C889 0.961 1_556 S
H897 C889 0.960 . S
H898 C890 0.930 . S
H899 C891 0.929 . S
H900 C908 0.929 . S
H901 C910 0.930 . S
H902 C912 0.930 . S
H903 C915 0.929 . S
H904 C918 0.930 . S
H905 C920 0.960 . S
H906 C920 0.960 . S
H907 C920 0.960 . S
C908 H900 0.929 . S
C908 C909 1.377 . S
C908 C910 1.384 . S
C909 C908 1.377 . S
C909 C915 1.390 . S
C910 H901 0.930 . S
C910 C908 1.384 . S
C910 C911 1.372 . S
C911 C910 1.372 . S
C911 C912 1.400 . S
C911 C916 1.490 . S
C912 H902 0.930 . S
C912 C911 1.400 . S
C912 C915 1.386 . S
H913 C929 0.930 . S
H914 C930 0.931 . S
C915 H903 0.929 . S
C915 C909 1.390 . S
C915 C912 1.386 . S
C916 C911 1.490 . S
C916 C918 1.395 . S
C916 C919 1.403 . S
H917 C923 0.930 . S
C918 H904 0.930 . S
C918 C916 1.395 . S
C918 C921 1.403 . S
C919 C916 1.403 . S
C919 C920 1.524 . S
C919 C923 1.400 . S
C920 H905 0.960 . S
C920 H906 0.960 . S
C920 H907 0.960 . S
C920 C919 1.524 . S
C921 C918 1.403 . S
C921 C922 1.392 . S
C921 C925 1.495 . S
C922 C921 1.392 . S
C922 C923 1.385 . S
C922 C924 1.478 . S
C923 H917 0.930 . S
C923 C919 1.400 . S
C923 C922 1.385 . S
C924 C922 1.478 . S
C924 C926 1.381 . S
C924 C930 1.383 . S
C925 C921 1.495 . S
C925 H931 0.959 . S
C925 H932 0.961 . S
C925 H933 0.960 . S
C926 C924 1.381 . S
C926 C927 1.394 . S
C926 H934 0.930 . S
C927 C926 1.394 . S
C927 C928 1.383 . S
C927 H935 0.929 . S
C928 C927 1.383 . S
C928 C929 1.377 . S
C929 H913 0.930 . S
C929 C928 1.377 . S
C929 C930 1.379 . S
C930 H914 0.931 . S
C930 C924 1.383 . S
C930 C929 1.379 . S
H931 C925 0.959 . S
H932 C925 0.961 . S
H933 C925 0.960 . S
H934 C926 0.930 . S
H935 C927 0.929 . S
H936 C944 0.929 . S
H937 C946 0.930 . S
H938 C948 0.930 . S
H939 C951 0.929 . S
H940 C954 0.930 . S
H941 C956 0.960 . S
H942 C956 0.960 . S
H943 C956 0.960 . S
C944 H936 0.929 . S
C944 C945 1.377 . S
C944 C946 1.384 . S
C945 C944 1.377 . S
C945 C951 1.390 . S
C946 H937 0.930 . S
C946 C944 1.384 . S
C946 C947 1.372 . S
C947 C946 1.372 . S
C947 C948 1.400 . S
C947 C952 1.490 . S
C948 H938 0.930 . S
C948 C947 1.400 . S
C948 C951 1.386 . S
H949 C965 0.930 . S
H950 C966 0.931 . S
C951 H939 0.929 . S
C951 C945 1.390 . S
C951 C948 1.386 . S
C952 C947 1.490 . S
C952 C954 1.395 . S
C952 C955 1.403 . S
H953 C959 0.930 . S
C954 H940 0.930 . S
C954 C952 1.395 . S
C954 C957 1.403 . S
C955 C952 1.403 . S
C955 C956 1.524 . S
C955 C959 1.400 . S
C956 H941 0.960 . S
C956 H942 0.960 . S
C956 H943 0.960 . S
C956 C955 1.524 . S
C957 C954 1.403 . S
C957 C958 1.392 . S
C957 C961 1.495 . S
C958 C957 1.392 . S
C958 C959 1.385 . S
C958 C960 1.478 . S
C959 H953 0.930 . S
C959 C955 1.400 . S
C959 C958 1.385 . S
C960 C958 1.478 . S
C960 C962 1.381 . S
C960 C966 1.383 . S
C961 C957 1.495 . S
C961 H967 0.959 . S
C961 H968 0.961 . S
C961 H969 0.960 . S
C962 C960 1.381 . S
C962 C963 1.394 . S
C962 H970 0.930 . S
C963 C962 1.394 . S
C963 C964 1.383 . S
C963 H971 0.929 . S
C964 C963 1.383 . S
C964 C965 1.377 . S
C965 H949 0.930 . S
C965 C964 1.377 . S
C965 C966 1.379 . S
C966 H950 0.931 . S
C966 C960 1.383 . S
C966 C965 1.379 . S
H967 C961 0.959 . S
H968 C961 0.961 . S
H969 C961 0.960 . S
H970 C962 0.930 . S
H971 C963 0.929 . S
H972 C980 0.929 . S
H973 C982 0.930 . S
H974 C984 0.930 . S
H975 C987 0.929 . S
H976 C990 0.930 . S
H977 C992 0.960 . S
H978 C992 0.960 . S
H979 C992 0.960 . S
C980 H972 0.929 . S
C980 C981 1.377 . S
C980 C982 1.384 . S
C981 C980 1.377 . S
C981 C987 1.390 . S
C982 H973 0.930 . S
C982 C980 1.384 . S
C982 C983 1.372 . S
C983 C982 1.372 . S
C983 C984 1.400 . S
C983 C988 1.490 . S
C984 H974 0.930 . S
C984 C983 1.400 . S
C984 C987 1.386 . S
H985 C1001 0.930 . S
H986 C1002 0.931 . S
C987 H975 0.929 . S
C987 C981 1.390 . S
C987 C984 1.386 . S
C988 C983 1.490 . S
C988 C990 1.395 . S
C988 C991 1.403 . S
H989 C995 0.930 . S
C990 H976 0.930 . S
C990 C988 1.395 . S
C990 C993 1.403 . S
C991 C988 1.403 . S
C991 C992 1.524 . S
C991 C995 1.400 . S
C992 H977 0.960 . S
C992 H978 0.960 . S
C992 H979 0.960 . S
C992 C991 1.524 . S
C993 C990 1.403 . S
C993 C994 1.392 . S
C993 C997 1.495 . S
C994 C993 1.392 . S
C994 C995 1.385 . S
C994 C996 1.478 . S
C995 H989 0.930 . S
C995 C991 1.400 . S
C995 C994 1.385 . S
C996 C994 1.478 . S
C996 C998 1.381 . S
C996 C1002 1.383 . S
C997 C993 1.495 . S
C997 H1003 0.959 . S
C997 H1004 0.961 . S
C997 H1005 0.960 . S
C998 C996 1.381 . S
C998 C999 1.394 . S
C998 H1006 0.930 . S
C999 C998 1.394 . S
C999 C1000 1.383 . S
C999 H1007 0.929 . S
C1000 C999 1.383 . S
C1000 C1001 1.377 . S
C1001 H985 0.930 . S
C1001 C1000 1.377 . S
C1001 C1002 1.379 . S
C1002 H986 0.931 . S
C1002 C996 1.383 . S
C1002 C1001 1.379 . S
H1003 C997 0.959 . S
H1004 C997 0.961 . S
H1005 C997 0.960 . S
H1006 C998 0.930 . S
H1007 C999 0.929 . S
H1008 C1016 0.929 . S
H1009 C1018 0.930 . S
H1010 C1020 0.930 . S
H1011 C1023 0.929 . S
H1012 C1026 0.930 . S
H1013 C1028 0.960 . S
H1014 C1028 0.960 . S
H1015 C1028 0.960 . S
C1016 H1008 0.929 . S
C1016 C1017 1.377 . S
C1016 C1018 1.384 . S
C1017 C1016 1.377 . S
C1017 C1023 1.390 . S
C1018 H1009 0.930 . S
C1018 C1016 1.384 . S
C1018 C1019 1.372 . S
C1019 C1018 1.372 . S
C1019 C1020 1.400 . S
C1019 C1024 1.490 . S
C1020 H1010 0.930 . S
C1020 C1019 1.400 . S
C1020 C1023 1.386 . S
H1021 C1037 0.930 . S
H1022 C1038 0.931 . S
C1023 H1011 0.929 . S
C1023 C1017 1.390 . S
C1023 C1020 1.386 . S
C1024 C1019 1.490 . S
C1024 C1026 1.395 . S
C1024 C1027 1.403 . S
H1025 C1031 0.930 . S
C1026 H1012 0.930 . S
C1026 C1024 1.395 . S
C1026 C1029 1.403 . S
C1027 C1024 1.403 . S
C1027 C1028 1.524 . S
C1027 C1031 1.400 . S
C1028 H1013 0.960 . S
C1028 H1014 0.960 . S
C1028 H1015 0.960 . S
C1028 C1027 1.524 . S
C1029 C1026 1.403 . S
C1029 C1030 1.392 . S
C1029 C1033 1.495 . S
C1030 C1029 1.392 . S
C1030 C1031 1.385 . S
C1030 C1032 1.478 . S
C1031 H1025 0.930 . S
C1031 C1027 1.400 . S
C1031 C1030 1.385 . S
C1032 C1030 1.478 . S
C1032 C1034 1.381 . S
C1032 C1038 1.383 . S
C1033 C1029 1.495 . S
C1033 H1039 0.959 . S
C1033 H1040 0.961 . S
C1033 H1041 0.960 . S
C1034 C1032 1.381 . S
C1034 C1035 1.394 . S
C1034 H1042 0.930 . S
C1035 C1034 1.394 . S
C1035 C1036 1.383 . S
C1035 H1043 0.929 . S
C1036 C1035 1.383 . S
C1036 C1037 1.377 . S
C1037 H1021 0.930 . S
C1037 C1036 1.377 . S
C1037 C1038 1.379 . S
C1038 H1022 0.931 . S
C1038 C1032 1.383 . S
C1038 C1037 1.379 . S
H1039 C1033 0.959 . S
H1040 C1033 0.961 . S
H1041 C1033 0.960 . S
H1042 C1034 0.930 . S
H1043 C1035 0.929 . S
H1044 C1052 0.929 . S
H1045 C1054 0.930 . S
H1046 C1056 0.930 . S
H1047 C1059 0.929 . S
H1048 C1062 0.930 . S
H1049 C1064 0.960 . S
H1050 C1064 0.960 . S
H1051 C1064 0.960 . S
C1052 H1044 0.929 . S
C1052 C1053 1.377 . S
C1052 C1054 1.384 . S
C1053 C1052 1.377 . S
C1053 C1059 1.390 . S
C1054 H1045 0.930 . S
C1054 C1052 1.384 . S
C1054 C1055 1.372 . S
C1055 C1054 1.372 . S
C1055 C1056 1.400 . S
C1055 C1060 1.490 . S
C1056 H1046 0.930 . S
C1056 C1055 1.400 . S
C1056 C1059 1.386 . S
H1057 C1073 0.930 . S
H1058 C1074 0.931 . S
C1059 H1047 0.929 . S
C1059 C1053 1.390 . S
C1059 C1056 1.386 . S
C1060 C1055 1.490 . S
C1060 C1062 1.395 . S
C1060 C1063 1.403 . S
H1061 C1067 0.930 . S
C1062 H1048 0.930 . S
C1062 C1060 1.395 . S
C1062 C1065 1.403 . S
C1063 C1060 1.403 . S
C1063 C1064 1.524 . S
C1063 C1067 1.400 . S
C1064 H1049 0.960 . S
C1064 H1050 0.960 . S
C1064 H1051 0.960 . S
C1064 C1063 1.524 . S
C1065 C1062 1.403 . S
C1065 C1066 1.392 . S
C1065 C1069 1.495 . S
C1066 C1065 1.392 . S
C1066 C1067 1.385 . S
C1066 C1068 1.478 . S
C1067 H1061 0.930 . S
C1067 C1063 1.400 . S
C1067 C1066 1.385 . S
C1068 C1066 1.478 . S
C1068 C1070 1.381 . S
C1068 C1074 1.383 . S
C1069 C1065 1.495 . S
C1069 H1075 0.959 . S
C1069 H1076 0.961 . S
C1069 H1077 0.960 . S
C1070 C1068 1.381 . S
C1070 C1071 1.394 . S
C1070 H1078 0.930 . S
C1071 C1070 1.394 . S
C1071 C1072 1.383 . S
C1071 H1079 0.929 . S
C1072 C1071 1.383 . S
C1072 C1073 1.377 . S
C1073 H1057 0.930 . S
C1073 C1072 1.377 . S
C1073 C1074 1.379 . S
C1074 H1058 0.931 . S
C1074 C1068 1.383 . S
C1074 C1073 1.379 . S
H1075 C1069 0.959 . S
H1076 C1069 0.961 . S
H1077 C1069 0.960 . S
H1078 C1070 0.930 . S
H1079 C1071 0.929 . S
H1080 C1088 0.929 . S
H1081 C1090 0.930 . S
H1082 C1092 0.930 . S
H1083 C1095 0.929 . S
H1084 C1098 0.930 . S
H1085 C1100 0.960 . S
H1086 C1100 0.960 . S
H1087 C1100 0.960 . S
C1088 H1080 0.929 . S
C1088 C1089 1.377 . S
C1088 C1090 1.384 . S
C1089 C1088 1.377 . S
C1089 C1095 1.390 . S
C1090 H1081 0.930 . S
C1090 C1088 1.384 . S
C1090 C1091 1.372 . S
C1091 C1090 1.372 . S
C1091 C1092 1.400 . S
C1091 C1096 1.490 . S
C1092 H1082 0.930 . S
C1092 C1091 1.400 . S
C1092 C1095 1.386 . S
H1093 C1109 0.930 . S
H1094 C1110 0.931 . S
C1095 H1083 0.929 . S
C1095 C1089 1.390 . S
C1095 C1092 1.386 . S
C1096 C1091 1.490 . S
C1096 C1098 1.395 . S
C1096 C1099 1.403 . S
H1097 C1103 0.930 . S
C1098 H1084 0.930 . S
C1098 C1096 1.395 . S
C1098 C1101 1.403 . S
C1099 C1096 1.403 . S
C1099 C1100 1.524 . S
C1099 C1103 1.400 . S
C1100 H1085 0.960 . S
C1100 H1086 0.960 . S
C1100 H1087 0.960 . S
C1100 C1099 1.524 . S
C1101 C1098 1.403 . S
C1101 C1102 1.392 . S
C1101 C1105 1.495 . S
C1102 C1101 1.392 . S
C1102 C1103 1.385 . S
C1102 C1104 1.478 . S
C1103 H1097 0.930 . S
C1103 C1099 1.400 . S
C1103 C1102 1.385 . S
C1104 C1102 1.478 . S
C1104 C1106 1.381 . S
C1104 C1110 1.383 . S
C1105 C1101 1.495 . S
C1105 H1111 0.959 . S
C1105 H1112 0.961 . S
C1105 H1113 0.960 . S
C1106 C1104 1.381 . S
C1106 C1107 1.394 . S
C1106 H1114 0.930 . S
C1107 C1106 1.394 . S
C1107 C1108 1.383 . S
C1107 H1115 0.929 . S
C1108 C1107 1.383 . S
C1108 C1109 1.377 . S
C1109 H1093 0.930 . S
C1109 C1108 1.377 . S
C1109 C1110 1.379 . S
C1110 H1094 0.931 . S
C1110 C1104 1.383 . S
C1110 C1109 1.379 . S
H1111 C1105 0.959 . S
H1112 C1105 0.961 . S
H1113 C1105 0.960 . S
H1114 C1106 0.930 . S
H1115 C1107 0.929 . S
H1116 C1124 0.929 . S
H1117 C1126 0.930 . S
H1118 C1128 0.930 . S
H1119 C1131 0.929 . S
H1120 C1134 0.930 . S
H1121 C1136 0.960 . S
H1122 C1136 0.960 . S
H1123 C1136 0.960 . S
C1124 H1116 0.929 . S
C1124 C1125 1.377 . S
C1124 C1126 1.384 . S
C1125 C1124 1.377 . S
C1125 C1131 1.390 . S
C1126 H1117 0.930 . S
C1126 C1124 1.384 . S
C1126 C1127 1.372 . S
C1127 C1126 1.372 . S
C1127 C1128 1.400 . S
C1127 C1132 1.490 . S
C1128 H1118 0.930 . S
C1128 C1127 1.400 . S
C1128 C1131 1.386 . S
H1129 C1145 0.930 . S
H1130 C1146 0.931 . S
C1131 H1119 0.929 . S
C1131 C1125 1.390 . S
C1131 C1128 1.386 . S
C1132 C1127 1.490 . S
C1132 C1134 1.395 . S
C1132 C1135 1.403 . S
H1133 C1139 0.930 . S
C1134 H1120 0.930 . S
C1134 C1132 1.395 . S
C1134 C1137 1.403 . S
C1135 C1132 1.403 . S
C1135 C1136 1.524 . S
C1135 C1139 1.400 . S
C1136 H1121 0.960 . S
C1136 H1122 0.960 . S
C1136 H1123 0.960 . S
C1136 C1135 1.524 . S
C1137 C1134 1.403 . S
C1137 C1138 1.392 . S
C1137 C1141 1.495 . S
C1138 C1137 1.392 . S
C1138 C1139 1.385 . S
C1138 C1140 1.478 . S
C1139 H1133 0.930 . S
C1139 C1135 1.400 . S
C1139 C1138 1.385 . S
C1140 C1138 1.478 . S
C1140 C1142 1.381 . S
C1140 C1146 1.383 . S
C1141 C1137 1.495 . S
C1141 H1147 0.959 . S
C1141 H1148 0.961 . S
C1141 H1149 0.960 . S
C1142 C1140 1.381 . S
C1142 C1143 1.394 . S
C1142 H1150 0.930 . S
C1143 C1142 1.394 . S
C1143 C1144 1.383 . S
C1143 H1151 0.929 . S
C1144 C1143 1.383 . S
C1144 C1145 1.377 . S
C1145 H1129 0.930 . S
C1145 C1144 1.377 . S
C1145 C1146 1.379 . S
C1146 H1130 0.931 . S
C1146 C1140 1.383 . S
C1146 C1145 1.379 . S
H1147 C1141 0.959 . S
H1148 C1141 0.961 . S
H1149 C1141 0.960 . S
H1150 C1142 0.930 . S
H1151 C1143 0.929 . S
H1152 C1160 0.929 . S
H1153 C1162 0.930 . S
H1154 C1164 0.930 . S
H1155 C1167 0.929 . S
H1156 C1170 0.930 . S
H1157 C1172 0.960 . S
H1158 C1172 0.960 . S
H1159 C1172 0.960 . S
C1160 H1152 0.929 . S
C1160 C1161 1.377 . S
C1160 C1162 1.384 . S
C1161 C1160 1.377 . S
C1161 C1167 1.390 . S
C1162 H1153 0.930 . S
C1162 C1160 1.384 . S
C1162 C1163 1.372 . S
C1163 C1162 1.372 . S
C1163 C1164 1.400 . S
C1163 C1168 1.490 . S
C1164 H1154 0.930 . S
C1164 C1163 1.400 . S
C1164 C1167 1.386 . S
H1165 C1181 0.930 . S
H1166 C1182 0.931 . S
C1167 H1155 0.929 . S
C1167 C1161 1.390 . S
C1167 C1164 1.386 . S
C1168 C1163 1.490 . S
C1168 C1170 1.395 . S
C1168 C1171 1.403 . S
H1169 C1175 0.930 . S
C1170 H1156 0.930 . S
C1170 C1168 1.395 . S
C1170 C1173 1.403 . S
C1171 C1168 1.403 . S
C1171 C1172 1.524 . S
C1171 C1175 1.400 . S
C1172 H1157 0.960 . S
C1172 H1158 0.960 . S
C1172 H1159 0.960 . S
C1172 C1171 1.524 . S
C1173 C1170 1.403 . S
C1173 C1174 1.392 . S
C1173 C1177 1.495 . S
C1174 C1173 1.392 . S
C1174 C1175 1.385 . S
C1174 C1176 1.478 . S
C1175 H1169 0.930 . S
C1175 C1171 1.400 . S
C1175 C1174 1.385 . S
C1176 C1174 1.478 . S
C1176 C1178 1.381 . S
C1176 C1182 1.383 . S
C1177 C1173 1.495 . S
C1177 H1183 0.959 . S
C1177 H1184 0.961 . S
C1177 H1185 0.960 . S
C1178 C1176 1.381 . S
C1178 C1179 1.394 . S
C1178 H1186 0.930 . S
C1179 C1178 1.394 . S
C1179 C1180 1.383 . S
C1179 H1187 0.929 . S
C1180 C1179 1.383 . S
C1180 C1181 1.377 . S
C1181 H1165 0.930 . S
C1181 C1180 1.377 . S
C1181 C1182 1.379 . S
C1182 H1166 0.931 . S
C1182 C1176 1.383 . S
C1182 C1181 1.379 . S
H1183 C1177 0.959 . S
H1184 C1177 0.961 . S
H1185 C1177 0.960 . S
H1186 C1178 0.930 . S
H1187 C1179 0.929 . S
H1188 C1196 0.929 . S
H1189 C1198 0.930 . S
H1190 C1200 0.930 . S
H1191 C1203 0.929 . S
H1192 C1206 0.930 . S
H1193 C1208 0.960 . S
H1194 C1208 0.960 . S
H1195 C1208 0.960 . S
C1196 H1188 0.929 . S
C1196 C1197 1.377 1_556 S
C1196 C1198 1.384 . S
C1197 C1196 1.377 1_554 S
C1197 C1203 1.390 . S
C1198 H1189 0.930 . S
C1198 C1196 1.384 . S
C1198 C1199 1.372 . S
C1199 C1198 1.372 . S
C1199 C1200 1.400 1_556 S
C1199 C1204 1.490 . S
C1200 H1190 0.930 . S
C1200 C1199 1.400 1_554 S
C1200 C1203 1.386 . S
H1201 C1217 0.930 . S
H1202 C1218 0.931 . S
C1203 H1191 0.929 . S
C1203 C1197 1.390 . S
C1203 C1200 1.386 . S
C1204 C1199 1.490 . S
C1204 C1206 1.395 . S
C1204 C1207 1.403 . S
H1205 C1211 0.930 . S
C1206 H1192 0.930 . S
C1206 C1204 1.395 . S
C1206 C1209 1.403 . S
C1207 C1204 1.403 . S
C1207 C1208 1.524 1_556 S
C1207 C1211 1.400 . S
C1208 H1193 0.960 . S
C1208 H1194 0.960 . S
C1208 H1195 0.960 . S
C1208 C1207 1.524 1_554 S
C1209 C1206 1.403 . S
C1209 C1210 1.392 . S
C1209 C1213 1.495 . S
C1210 C1209 1.392 . S
C1210 C1211 1.385 . S
C1210 C1212 1.478 . S
C1211 H1205 0.930 . S
C1211 C1207 1.400 . S
C1211 C1210 1.385 . S
C1212 C1210 1.478 . S
C1212 C1214 1.381 . S
C1212 C1218 1.383 . S
C1213 C1209 1.495 . S
C1213 H1219 0.959 . S
C1213 H1220 0.961 . S
C1213 H1221 0.960 . S
C1214 C1212 1.381 . S
C1214 C1215 1.394 . S
C1214 H1222 0.930 . S
C1215 C1214 1.394 . S
C1215 C1216 1.383 . S
C1215 H1223 0.929 . S
C1216 C1215 1.383 . S
C1216 C1217 1.377 . S
C1217 H1201 0.930 . S
C1217 C1216 1.377 . S
C1217 C1218 1.379 . S
C1218 H1202 0.931 . S
C1218 C1212 1.383 . S
C1218 C1217 1.379 . S
H1219 C1213 0.959 . S
H1220 C1213 0.961 . S
H1221 C1213 0.960 . S
H1222 C1214 0.930 . S
H1223 C1215 0.929 . S
H1224 C1232 0.929 . S
H1225 C1234 0.930 . S
H1226 C1236 0.930 . S
H1227 C1239 0.929 . S
H1228 C1242 0.930 . S
H1229 C1244 0.960 1_556 S
H1230 C1244 0.960 . S
H1231 C1244 0.960 . S
C1232 H1224 0.929 . S
C1232 C1233 1.377 . S
C1232 C1234 1.384 . S
C1233 C1232 1.377 . S
C1233 C1239 1.390 . S
C1234 H1225 0.930 . S
C1234 C1232 1.384 . S
C1234 C1235 1.372 . S
C1235 C1234 1.372 . S
C1235 C1236 1.400 . S
C1235 C1240 1.490 . S
C1236 H1226 0.930 . S
C1236 C1235 1.400 . S
C1236 C1239 1.386 . S
H1237 C1253 0.930 . S
H1238 C1254 0.931 . S
C1239 H1227 0.929 . S
C1239 C1233 1.390 . S
C1239 C1236 1.386 . S
C1240 C1235 1.490 . S
C1240 C1242 1.395 . S
C1240 C1243 1.403 . S
H1241 C1247 0.930 1_556 S
C1242 H1228 0.930 . S
C1242 C1240 1.395 . S
C1242 C1245 1.403 . S
C1243 C1240 1.403 . S
C1243 C1244 1.524 . S
C1243 C1247 1.400 . S
C1244 H1229 0.960 1_554 S
C1244 H1230 0.960 . S
C1244 H1231 0.960 . S
C1244 C1243 1.524 . S
C1245 C1242 1.403 . S
C1245 C1246 1.392 . S
C1245 C1249 1.495 . S
C1246 C1245 1.392 . S
C1246 C1247 1.385 . S
C1246 C1248 1.478 . S
C1247 H1241 0.930 1_554 S
C1247 C1243 1.400 . S
C1247 C1246 1.385 . S
C1248 C1246 1.478 . S
C1248 C1250 1.381 . S
C1248 C1254 1.383 1_554 S
C1249 C1245 1.495 . S
C1249 H1255 0.959 . S
C1249 H1256 0.961 . S
C1249 H1257 0.960 . S
C1250 C1248 1.381 . S
C1250 C1251 1.394 . S
C1250 H1258 0.930 . S
C1251 C1250 1.394 . S
C1251 C1252 1.383 1_554 S
C1251 H1259 0.929 . S
C1252 C1251 1.383 1_556 S
C1252 C1253 1.377 . S
C1253 H1237 0.930 . S
C1253 C1252 1.377 . S
C1253 C1254 1.379 . S
C1254 H1238 0.931 . S
C1254 C1248 1.383 1_556 S
C1254 C1253 1.379 . S
H1255 C1249 0.959 . S
H1256 C1249 0.961 . S
H1257 C1249 0.960 . S
H1258 C1250 0.930 . S
H1259 C1251 0.929 . S
H1260 C1268 0.929 . S
H1261 C1270 0.930 . S
H1262 C1272 0.930 . S
H1263 C1275 0.929 . S
H1264 C1278 0.930 . S
H1265 C1280 0.960 . S
H1266 C1280 0.960 . S
H1267 C1280 0.960 . S
C1268 H1260 0.929 . S
C1268 C1269 1.377 . S
C1268 C1270 1.384 . S
C1269 C1268 1.377 . S
C1269 C1275 1.390 . S
C1270 H1261 0.930 . S
C1270 C1268 1.384 . S
C1270 C1271 1.372 . S
C1271 C1270 1.372 . S
C1271 C1272 1.400 . S
C1271 C1276 1.490 . S
C1272 H1262 0.930 . S
C1272 C1271 1.400 . S
C1272 C1275 1.386 . S
H1273 C1289 0.930 . S
H1274 C1290 0.931 . S
C1275 H1263 0.929 . S
C1275 C1269 1.390 . S
C1275 C1272 1.386 . S
C1276 C1271 1.490 . S
C1276 C1278 1.395 . S
C1276 C1279 1.403 . S
H1277 C1283 0.930 . S
C1278 H1264 0.930 . S
C1278 C1276 1.395 . S
C1278 C1281 1.403 . S
C1279 C1276 1.403 . S
C1279 C1280 1.524 . S
C1279 C1283 1.400 . S
C1280 H1265 0.960 . S
C1280 H1266 0.960 . S
C1280 H1267 0.960 . S
C1280 C1279 1.524 . S
C1281 C1278 1.403 . S
C1281 C1282 1.392 . S
C1281 C1285 1.495 . S
C1282 C1281 1.392 . S
C1282 C1283 1.385 . S
C1282 C1284 1.478 . S
C1283 H1277 0.930 . S
C1283 C1279 1.400 . S
C1283 C1282 1.385 . S
C1284 C1282 1.478 . S
C1284 C1286 1.381 . S
C1284 C1290 1.383 . S
C1285 C1281 1.495 . S
C1285 H1291 0.959 . S
C1285 H1292 0.961 . S
C1285 H1293 0.960 . S
C1286 C1284 1.381 . S
C1286 C1287 1.394 . S
C1286 H1294 0.930 . S
C1287 C1286 1.394 . S
C1287 C1288 1.383 . S
C1287 H1295 0.929 . S
C1288 C1287 1.383 . S
C1288 C1289 1.377 . S
C1289 H1273 0.930 . S
C1289 C1288 1.377 . S
C1289 C1290 1.379 . S
C1290 H1274 0.931 . S
C1290 C1284 1.383 . S
C1290 C1289 1.379 . S
H1291 C1285 0.959 . S
H1292 C1285 0.961 . S
H1293 C1285 0.960 . S
H1294 C1286 0.930 . S
H1295 C1287 0.929 . S
H1296 C1304 0.929 . S
H1297 C1306 0.930 . S
H1298 C1308 0.930 . S
H1299 C1311 0.929 . S
H1300 C1314 0.930 . S
H1301 C1316 0.960 . S
H1302 C1316 0.960 . S
H1303 C1316 0.960 . S
C1304 H1296 0.929 . S
C1304 C1305 1.377 . S
C1304 C1306 1.384 . S
C1305 C1304 1.377 . S
C1305 C1311 1.390 . S
C1306 H1297 0.930 . S
C1306 C1304 1.384 . S
C1306 C1307 1.372 . S
C1307 C1306 1.372 . S
C1307 C1308 1.400 . S
C1307 C1312 1.490 . S
C1308 H1298 0.930 . S
C1308 C1307 1.400 . S
C1308 C1311 1.386 . S
H1309 C1325 0.930 . S
H1310 C1326 0.931 . S
C1311 H1299 0.929 . S
C1311 C1305 1.390 . S
C1311 C1308 1.386 . S
C1312 C1307 1.490 . S
C1312 C1314 1.395 . S
C1312 C1315 1.403 . S
H1313 C1319 0.930 . S
C1314 H1300 0.930 . S
C1314 C1312 1.395 . S
C1314 C1317 1.403 1_655 S
C1315 C1312 1.403 . S
C1315 C1316 1.524 . S
C1315 C1319 1.400 1_655 S
C1316 H1301 0.960 . S
C1316 H1302 0.960 . S
C1316 H1303 0.960 . S
C1316 C1315 1.524 . S
C1317 C1314 1.403 1_455 S
C1317 C1318 1.392 . S
C1317 C1321 1.495 . S
C1318 C1317 1.392 . S
C1318 C1319 1.385 . S
C1318 C1320 1.478 . S
C1319 H1313 0.930 . S
C1319 C1315 1.400 1_455 S
C1319 C1318 1.385 . S
C1320 C1318 1.478 . S
C1320 C1322 1.381 . S
C1320 C1326 1.383 . S
C1321 C1317 1.495 . S
C1321 H1327 0.959 . S
C1321 H1328 0.961 . S
C1321 H1329 0.960 . S
C1322 C1320 1.381 . S
C1322 C1323 1.394 . S
C1322 H1330 0.930 . S
C1323 C1322 1.394 . S
C1323 C1324 1.383 . S
C1323 H1331 0.929 . S
C1324 C1323 1.383 . S
C1324 C1325 1.377 . S
C1325 H1309 0.930 . S
C1325 C1324 1.377 . S
C1325 C1326 1.379 . S
C1326 H1310 0.931 . S
C1326 C1320 1.383 . S
C1326 C1325 1.379 . S
H1327 C1321 0.959 . S
H1328 C1321 0.961 . S
H1329 C1321 0.960 . S
H1330 C1322 0.930 . S
H1331 C1323 0.929 . S
H1332 C1340 0.929 . S
H1333 C1342 0.930 . S
H1334 C1344 0.930 . S
H1335 C1347 0.929 . S
H1336 C1350 0.930 . S
H1337 C1352 0.960 . S
H1338 C1352 0.960 . S
H1339 C1352 0.960 . S
C1340 H1332 0.929 . S
C1340 C1341 1.377 . S
C1340 C1342 1.384 . S
C1341 C1340 1.377 . S
C1341 C1347 1.390 . S
C1342 H1333 0.930 . S
C1342 C1340 1.384 . S
C1342 C1343 1.372 . S
C1343 C1342 1.372 . S
C1343 C1344 1.400 . S
C1343 C1348 1.490 . S
C1344 H1334 0.930 . S
C1344 C1343 1.400 . S
C1344 C1347 1.386 . S
H1345 C1361 0.930 . S
H1346 C1362 0.931 . S
C1347 H1335 0.929 . S
C1347 C1341 1.390 . S
C1347 C1344 1.386 . S
C1348 C1343 1.490 . S
C1348 C1350 1.395 . S
C1348 C1351 1.403 . S
H1349 C1355 0.930 . S
C1350 H1336 0.930 . S
C1350 C1348 1.395 . S
C1350 C1353 1.403 1_545 S
C1351 C1348 1.403 . S
C1351 C1352 1.524 . S
C1351 C1355 1.400 1_545 S
C1352 H1337 0.960 . S
C1352 H1338 0.960 . S
C1352 H1339 0.960 . S
C1352 C1351 1.524 . S
C1353 C1350 1.403 1_565 S
C1353 C1354 1.392 . S
C1353 C1357 1.495 . S
C1354 C1353 1.392 . S
C1354 C1355 1.385 . S
C1354 C1356 1.478 . S
C1355 H1349 0.930 . S
C1355 C1351 1.400 1_565 S
C1355 C1354 1.385 . S
C1356 C1354 1.478 . S
C1356 C1358 1.381 . S
C1356 C1362 1.383 . S
C1357 C1353 1.495 . S
C1357 H1363 0.959 . S
C1357 H1364 0.961 . S
C1357 H1365 0.960 . S
C1358 C1356 1.381 . S
C1358 C1359 1.394 . S
C1358 H1366 0.930 . S
C1359 C1358 1.394 . S
C1359 C1360 1.383 . S
C1359 H1367 0.929 . S
C1360 C1359 1.383 . S
C1360 C1361 1.377 . S
C1361 H1345 0.930 . S
C1361 C1360 1.377 . S
C1361 C1362 1.379 . S
C1362 H1346 0.931 . S
C1362 C1356 1.383 . S
C1362 C1361 1.379 . S
H1363 C1357 0.959 . S
H1364 C1357 0.961 . S
H1365 C1357 0.960 . S
H1366 C1358 0.930 . S
H1367 C1359 0.929 . S
H1368 C1376 0.929 . S
H1369 C1378 0.930 . S
H1370 C1380 0.930 . S
H1371 C1383 0.929 . S
H1372 C1386 0.930 . S
H1373 C1388 0.960 . S
H1374 C1388 0.960 . S
H1375 C1388 0.960 . S
C1376 H1368 0.929 . S
C1376 C1377 1.377 . S
C1376 C1378 1.384 . S
C1377 C1376 1.377 . S
C1377 C1383 1.390 . S
C1378 H1369 0.930 . S
C1378 C1376 1.384 . S
C1378 C1379 1.372 . S
C1379 C1378 1.372 . S
C1379 C1380 1.400 . S
C1379 C1384 1.490 . S
C1380 H1370 0.930 . S
C1380 C1379 1.400 . S
C1380 C1383 1.386 . S
H1381 C1397 0.930 . S
H1382 C1398 0.931 . S
C1383 H1371 0.929 . S
C1383 C1377 1.390 . S
C1383 C1380 1.386 . S
C1384 C1379 1.490 . S
C1384 C1386 1.395 . S
C1384 C1387 1.403 . S
H1385 C1391 0.930 . S
C1386 H1372 0.930 . S
C1386 C1384 1.395 . S
C1386 C1389 1.403 . S
C1387 C1384 1.403 . S
C1387 C1388 1.524 . S
C1387 C1391 1.400 . S
C1388 H1373 0.960 . S
C1388 H1374 0.960 . S
C1388 H1375 0.960 . S
C1388 C1387 1.524 . S
C1389 C1386 1.403 . S
C1389 C1390 1.392 . S
C1389 C1393 1.495 . S
C1390 C1389 1.392 . S
C1390 C1391 1.385 . S
C1390 C1392 1.478 . S
C1391 H1385 0.930 . S
C1391 C1387 1.400 . S
C1391 C1390 1.385 . S
C1392 C1390 1.478 . S
C1392 C1394 1.381 . S
C1392 C1398 1.383 . S
C1393 C1389 1.495 . S
C1393 H1399 0.959 . S
C1393 H1400 0.961 . S
C1393 H1401 0.960 . S
C1394 C1392 1.381 . S
C1394 C1395 1.394 . S
C1394 H1402 0.930 . S
C1395 C1394 1.394 . S
C1395 C1396 1.383 . S
C1395 H1403 0.929 . S
C1396 C1395 1.383 . S
C1396 C1397 1.377 . S
C1397 H1381 0.930 . S
C1397 C1396 1.377 . S
C1397 C1398 1.379 . S
C1398 H1382 0.931 . S
C1398 C1392 1.383 . S
C1398 C1397 1.379 . S
H1399 C1393 0.959 . S
H1400 C1393 0.961 . S
H1401 C1393 0.960 . S
H1402 C1394 0.930 . S
H1403 C1395 0.929 . S
H1404 C1412 0.929 . S
H1405 C1414 0.930 . S
H1406 C1416 0.930 . S
H1407 C1419 0.929 . S
H1408 C1422 0.930 . S
H1409 C1424 0.960 . S
H1410 C1424 0.960 . S
H1411 C1424 0.960 . S
C1412 H1404 0.929 . S
C1412 C1413 1.377 . S
C1412 C1414 1.384 . S
C1413 C1412 1.377 . S
C1413 C1419 1.390 . S
C1414 H1405 0.930 . S
C1414 C1412 1.384 . S
C1414 C1415 1.372 . S
C1415 C1414 1.372 . S
C1415 C1416 1.400 . S
C1415 C1420 1.490 . S
C1416 H1406 0.930 . S
C1416 C1415 1.400 . S
C1416 C1419 1.386 . S
H1417 C1433 0.930 . S
H1418 C1434 0.931 . S
C1419 H1407 0.929 . S
C1419 C1413 1.390 . S
C1419 C1416 1.386 . S
C1420 C1415 1.490 . S
C1420 C1422 1.395 . S
C1420 C1423 1.403 . S
H1421 C1427 0.930 . S
C1422 H1408 0.930 . S
C1422 C1420 1.395 . S
C1422 C1425 1.403 1_455 S
C1423 C1420 1.403 . S
C1423 C1424 1.524 . S
C1423 C1427 1.400 1_455 S
C1424 H1409 0.960 . S
C1424 H1410 0.960 . S
C1424 H1411 0.960 . S
C1424 C1423 1.524 . S
C1425 C1422 1.403 1_655 S
C1425 C1426 1.392 . S
C1425 C1429 1.495 . S
C1426 C1425 1.392 . S
C1426 C1427 1.385 . S
C1426 C1428 1.478 . S
C1427 H1421 0.930 . S
C1427 C1423 1.400 1_655 S
C1427 C1426 1.385 . S
C1428 C1426 1.478 . S
C1428 C1430 1.381 . S
C1428 C1434 1.383 . S
C1429 C1425 1.495 . S
C1429 H1435 0.959 . S
C1429 H1436 0.961 . S
C1429 H1437 0.960 . S
C1430 C1428 1.381 . S
C1430 C1431 1.394 . S
C1430 H1438 0.930 . S
C1431 C1430 1.394 . S
C1431 C1432 1.383 . S
C1431 H1439 0.929 . S
C1432 C1431 1.383 . S
C1432 C1433 1.377 . S
C1433 H1417 0.930 . S
C1433 C1432 1.377 . S
C1433 C1434 1.379 . S
C1434 H1418 0.931 . S
C1434 C1428 1.383 . S
C1434 C1433 1.379 . S
H1435 C1429 0.959 . S
H1436 C1429 0.961 . S
H1437 C1429 0.960 . S
H1438 C1430 0.930 . S
H1439 C1431 0.929 . S
H1440 C1448 0.929 . S
H1441 C1450 0.930 . S
H1442 C1452 0.930 . S
H1443 C1455 0.929 . S
H1444 C1458 0.930 . S
H1445 C1460 0.988 . S
H1446 C1460 0.960 . S
H1447 C1460 0.960 . S
C1448 H1440 0.929 . S
C1448 C1449 1.377 1_554 S
C1448 C1450 1.384 . S
C1449 C1448 1.377 1_556 S
C1449 C1455 1.390 . S
C1450 H1441 0.930 . S
C1450 C1448 1.384 . S
C1450 C1451 1.372 1_554 S
C1451 C1450 1.372 1_556 S
C1451 C1452 1.400 . S
C1451 C1456 1.490 . S
C1452 H1442 0.930 . S
C1452 C1451 1.400 . S
C1452 C1455 1.386 . S
H1453 C1469 0.930 1_556 S
H1454 C1470 0.931 . S
C1455 H1443 0.929 . S
C1455 C1449 1.390 . S
C1455 C1452 1.386 . S
C1456 C1451 1.490 . S
C1456 C1458 1.395 1_556 S
C1456 C1459 1.403 . S
H1457 C1463 0.930 . S
C1458 H1444 0.930 . S
C1458 C1456 1.395 1_554 S
C1458 C1461 1.403 1_545 S
C1459 C1456 1.403 . S
C1459 C1460 1.524 . S
C1459 C1463 1.400 1_545 S
C1460 H1445 0.988 . S
C1460 H1446 0.960 . S
C1460 H1447 0.960 . S
C1460 C1459 1.524 . S
C1461 C1458 1.403 1_565 S
C1461 C1462 1.392 . S
C1461 C1465 1.495 . S
C1462 C1461 1.392 . S
C1462 C1463 1.385 1_554 S
C1462 C1464 1.478 . S
C1463 H1457 0.930 . S
C1463 C1459 1.400 1_565 S
C1463 C1462 1.385 1_556 S
C1464 C1462 1.478 . S
C1464 C1466 1.381 . S
C1464 C1470 1.383 1_554 S
C1465 C1461 1.495 . S
C1465 H1471 0.984 . S
C1465 H1472 0.961 . S
C1465 H1473 0.960 . S
C1466 C1464 1.381 . S
C1466 C1467 1.394 . S
C1466 H1474 0.930 . S
C1467 C1466 1.394 . S
C1467 C1468 1.383 . S
C1467 H1475 0.929 . S
C1468 C1467 1.383 . S
C1468 C1469 1.377 . S
C1469 H1453 0.930 1_554 S
C1469 C1468 1.377 . S
C1469 C1470 1.379 1_554 S
C1470 H1454 0.931 . S
C1470 C1464 1.383 1_556 S
C1470 C1469 1.379 1_556 S
H1471 C1465 0.984 . S
H1472 C1465 0.961 . S
H1473 C1465 0.960 . S
H1474 C1466 0.930 . S
H1475 C1467 0.929 . S
C405 N5 1.180 . S
C424 N14 1.169 . S
C441 N47 1.179 . S
C460 N38 1.174 . S
C477 N80 1.175 . S
C496 N71 1.164 . S
C513 N104 1.176 . S
C532 N113 1.162 . S
C549 N137 1.179 1_554 S
C568 N146 1.187 . S
C585 N179 1.179 . S
C604 N170 1.173 . S
C621 N203 1.180 . S
C640 N212 1.185 . S
C657 N236 1.180 . S
C676 N245 1.178 . S
C693 N278 1.179 . S
C712 N269 1.176 . S
C729 N302 1.176 1_556 S
C748 N311 1.171 . S
C765 N335 1.180 . S
C784 N344 1.181 . S
C801 N377 1.174 . S
C820 N368 1.177 . S
C837 C206 1.492 . S
C856 C8 1.472 . S
C873 C41 1.490 . S
C892 C239 1.479 . S
C909 C272 1.487 . S
C928 C74 1.496 . S
C945 C305 1.488 . S
C964 C107 1.489 . S
C981 C338 1.492 . S
C1000 C140 1.473 . S
C1017 C371 1.489 . S
C1036 C173 1.486 . S
C1053 C28 0.997 . S
C1072 C358 1.013 . S
C1089 C61 0.992 . S
C1108 C391 0.974 . S
C1125 C94 0.999 . S
C1144 C226 1.003 . S
C1161 C259 0.999 . S
C1180 C127 0.998 . S
C1197 C292 0.999 . S
C1216 C160 1.001 . S
C1233 C325 0.992 . S
C1252 C193 0.990 . S
C1269 C17 1.431 . S
C1288 C314 1.419 . S
C1305 C50 1.426 . S
C1324 C347 1.439 . S
C1341 C380 1.430 . S
C1360 C83 1.425 . S
C1377 C116 1.428 . S
C1396 C215 1.434 . S
C1413 C149 1.433 . S
C1432 C248 1.409 . S
C1449 C182 1.426 . S
C1468 C281 1.443 . S
