# Generated by pormake.
# Topology vmi, (6)-cn, num edge types: 1
# Building blocks:
#     Node 0, Type 0, BuildingBlock: IZENUY_clean_sbu_0, # of connection points: 6
#     Node 1, Type 0, BuildingBlock: IZENUY_clean_sbu_0, # of connection points: 6
#     Node 2, Type 0, BuildingBlock: IZENUY_clean_sbu_0, # of connection points: 6
#     Node 3, Type 0, BuildingBlock: IZENUY_clean_sbu_0, # of connection points: 6
#     Node 4, Type 0, BuildingBlock: IZENUY_clean_sbu_0, # of connection points: 6
#     Node 5, Type 0, BuildingBlock: IZENUY_clean_sbu_0, # of connection points: 6
#     Node 6, Type 0, BuildingBlock: IZENUY_clean_sbu_0, # of connection points: 6
#     Node 7, Type 0, BuildingBlock: IZENUY_clean_sbu_0, # of connection points: 6
#     Edge 8, Type (0, 0), BuildingBlock: XIVTED_clean_linker_0, # of connection points: 2
#     Edge 9, Type (0, 0), BuildingBlock: XIVTED_clean_linker_0, # of connection points: 2
#     Edge 10, Type (0, 0), BuildingBlock: XIVTED_clean_linker_0, # of connection points: 2
#     Edge 11, Type (0, 0), BuildingBlock: XIVTED_clean_linker_0, # of connection points: 2
#     Edge 12, Type (0, 0), BuildingBlock: XIVTED_clean_linker_0, # of connection points: 2
#     Edge 13, Type (0, 0), BuildingBlock: XIVTED_clean_linker_0, # of connection points: 2
#     Edge 14, Type (0, 0), BuildingBlock: XIVTED_clean_linker_0, # of connection points: 2
#     Edge 15, Type (0, 0), BuildingBlock: XIVTED_clean_linker_0, # of connection points: 2
#     Edge 16, Type (0, 0), BuildingBlock: XIVTED_clean_linker_0, # of connection points: 2
#     Edge 17, Type (0, 0), BuildingBlock: XIVTED_clean_linker_0, # of connection points: 2
#     Edge 18, Type (0, 0), BuildingBlock: XIVTED_clean_linker_0, # of connection points: 2
#     Edge 19, Type (0, 0), BuildingBlock: XIVTED_clean_linker_0, # of connection points: 2
#     Edge 20, Type (0, 0), BuildingBlock: XIVTED_clean_linker_0, # of connection points: 2
#     Edge 21, Type (0, 0), BuildingBlock: XIVTED_clean_linker_0, # of connection points: 2
#     Edge 22, Type (0, 0), BuildingBlock: XIVTED_clean_linker_0, # of connection points: 2
#     Edge 23, Type (0, 0), BuildingBlock: XIVTED_clean_linker_0, # of connection points: 2
#     Edge 24, Type (0, 0), BuildingBlock: XIVTED_clean_linker_0, # of connection points: 2
#     Edge 25, Type (0, 0), BuildingBlock: XIVTED_clean_linker_0, # of connection points: 2
#     Edge 26, Type (0, 0), BuildingBlock: XIVTED_clean_linker_0, # of connection points: 2
#     Edge 27, Type (0, 0), BuildingBlock: XIVTED_clean_linker_0, # of connection points: 2
#     Edge 28, Type (0, 0), BuildingBlock: XIVTED_clean_linker_0, # of connection points: 2
#     Edge 29, Type (0, 0), BuildingBlock: XIVTED_clean_linker_0, # of connection points: 2
#     Edge 30, Type (0, 0), BuildingBlock: XIVTED_clean_linker_0, # of connection points: 2
#     Edge 31, Type (0, 0), BuildingBlock: XIVTED_clean_linker_0, # of connection points: 2
# Relax obj value: 0.332
# Max RMSD: 0.290
# Mean RMSD: 0.290
data_MOF--net-vmi--node1-IZENUY_clean_sbu_0--edge1-XIVTED_clean_linker_0
_symmetry_space_group_name_H-M    P1
_symmetry_Int_Tables_number       1
_symmetry_cell_setting            triclinic
loop_
_symmetry_equiv_pos_as_xyz
'x, y, z'
_cell_length_a     27.330282
_cell_length_b     45.433374
_cell_length_c     29.880623
_cell_angle_alpha  90.045698
_cell_angle_beta   109.39407
_cell_angle_gamma 89.370897
loop_
_atom_site_label
_atom_site_type_symbol
_atom_site_fract_x
_atom_site_fract_y
_atom_site_fract_z
_atom_type_partial_charge
Fe0 Fe 0.17224 0.04983 0.23833 0.0
Fe1 Fe 0.128 0.1071 0.18582 0.0
O2 O 0.18254 0.08589 0.22061 0.0
Fe3 Fe 0.24623 0.10001 0.23616 0.0
O4 O 0.27075 0.06855 0.21216 0.0
O5 O 0.23524 0.03393 0.24109 0.0
O6 O 0.14602 0.03822 0.17663 0.0
C7 C 0.10696 0.05078 0.14728 0.0
C8 C 0.24002 0.07236 0.32005 0.0
O9 O 0.09082 0.07529 0.15702 0.0
C10 C 0.19525 0.15156 0.23961 0.0
O11 O 0.10766 0.05837 0.24111 0.0
O12 O 0.09801 0.10641 0.23215 0.0
O13 O 0.26611 0.08462 0.29707 0.0
O14 O 0.19757 0.05975 0.29965 0.0
C15 C 0.19807 0.1149 0.13848 0.0
O16 O 0.15568 0.14333 0.20628 0.0
O17 O 0.22938 0.13316 0.26152 0.0
C18 C 0.0859 0.08222 0.24665 0.0
O19 O 0.15302 0.10821 0.13727 0.0
O20 O 0.23512 0.11746 0.1776 0.0
C21 C 0.26886 0.04212 0.22354 0.0
Fe22 Fe 0.35573 0.10413 0.80268 0.0
Fe23 Fe 0.24458 0.09501 0.73576 0.0
O24 O 0.30895 0.08175 0.76178 0.0
Fe25 Fe 0.32514 0.04622 0.74636 0.0
O26 O 0.37149 0.03751 0.80522 0.0
O27 O 0.36921 0.0764 0.84844 0.0
O28 O 0.30864 0.11963 0.82835 0.0
C29 C 0.26594 0.10927 0.8292 0.0
C30 C 0.41412 0.07519 0.751 0.0
O31 O 0.23602 0.09556 0.79375 0.0
C32 C 0.26625 0.07252 0.65973 0.0
O33 O 0.34555 0.1347 0.76057 0.0
O34 O 0.26097 0.13375 0.74041 0.0
O35 O 0.37572 0.06054 0.72645 0.0
O36 O 0.41118 0.09118 0.78494 0.0
C37 C 0.2278 0.03448 0.74578 0.0
O38 O 0.25227 0.09503 0.67758 0.0
O39 O 0.28234 0.04944 0.68442 0.0
C40 C 0.30176 0.14716 0.74262 0.0
O41 O 0.21396 0.05892 0.72522 0.0
O42 O 0.27531 0.02856 0.76505 0.0
C43 C 0.38153 0.04992 0.84514 0.0
Fe44 Fe 0.83463 0.96106 0.74889 0.0
Fe45 Fe 0.76164 0.90991 0.75049 0.0
O46 O 0.82475 0.92483 0.76619 0.0
Fe47 Fe 0.87972 0.9037 0.80071 0.0
O48 O 0.91829 0.93538 0.82817 0.0
O49 O 0.86298 0.97219 0.81057 0.0
O50 O 0.77278 0.97706 0.74933 0.0
C51 C 0.73754 0.96772 0.76402 0.0
C52 C 0.91883 0.92767 0.73742 0.0
O53 O 0.73499 0.94091 0.77298 0.0
C54 C 0.8135 0.8588 0.74846 0.0
O55 O 0.8071 0.95218 0.68718 0.0
O56 O 0.74114 0.92482 0.68943 0.0
O57 O 0.90752 0.90371 0.75317 0.0
O58 O 0.89804 0.95184 0.74346 0.0
C59 C 0.81096 0.89642 0.84895 0.0
O60 O 0.78004 0.87712 0.72553 0.0
O61 O 0.85207 0.86729 0.78235 0.0
C62 C 0.76567 0.93866 0.66667 0.0
O63 O 0.7738 0.89301 0.80992 0.0
O64 O 0.85574 0.90346 0.84974 0.0
C65 C 0.90289 0.9598 0.83871 0.0
Fe66 Fe 0.75977 0.91104 0.25051 0.0
Fe67 Fe 0.65013 0.90282 0.18036 0.0
O68 O 0.69594 0.92475 0.22301 0.0
Fe69 Fe 0.67921 0.96029 0.23813 0.0
O70 O 0.73106 0.97791 0.22215 0.0
O71 O 0.79129 0.94695 0.26211 0.0
O72 O 0.77057 0.91046 0.19328 0.0
C73 C 0.74144 0.89676 0.15743 0.0
C74 C 0.73564 0.93354 0.32553 0.0
O75 O 0.69856 0.88644 0.15748 0.0
C76 C 0.58823 0.93213 0.22815 0.0
O77 O 0.74202 0.87234 0.2453 0.0
O78 O 0.65705 0.87226 0.22202 0.0
O79 O 0.71948 0.95663 0.30084 0.0
O80 O 0.75023 0.91112 0.30792 0.0
C81 C 0.62766 0.95723 0.13832 0.0
O82 O 0.59333 0.91653 0.19473 0.0
O83 O 0.62603 0.94619 0.25521 0.0
C84 C 0.70023 0.85939 0.24152 0.0
O85 O 0.64026 0.93075 0.13517 0.0
O86 O 0.63552 0.96933 0.17826 0.0
C87 C 0.77836 0.97159 0.24198 0.0
Fe88 Fe 0.63555 0.60732 0.68397 0.0
Fe89 Fe 0.75123 0.59942 0.74423 0.0
O90 O 0.68763 0.58513 0.72064 0.0
Fe91 Fe 0.67445 0.54829 0.73271 0.0
O92 O 0.65435 0.5391 0.67005 0.0
O93 O 0.60017 0.57652 0.64989 0.0
O94 O 0.66692 0.61045 0.64028 0.0
C95 C 0.71318 0.6176 0.64663 0.0
C96 C 0.58638 0.58029 0.73721 0.0
O97 O 0.74732 0.61828 0.68796 0.0
C98 C 0.73252 0.56925 0.82069 0.0
O99 O 0.66141 0.64288 0.70873 0.0
O100 O 0.73009 0.63168 0.76862 0.0
O101 O 0.60782 0.55661 0.73037 0.0
O102 O 0.60009 0.60491 0.72582 0.0
C103 C 0.77681 0.54209 0.72912 0.0
O104 O 0.76311 0.58243 0.8033 0.0
O105 O 0.69315 0.55581 0.79489 0.0
C106 C 0.6979 0.65047 0.74512 0.0
O107 O 0.78115 0.56914 0.72312 0.0
O108 O 0.73859 0.53244 0.73907 0.0
C109 C 0.61795 0.55273 0.63943 0.0
Fe110 Fe 0.8708 0.60301 0.30764 0.0
Fe111 Fe 0.75584 0.59483 0.24651 0.0
O112 O 0.8209 0.58182 0.26803 0.0
Fe113 Fe 0.83688 0.54665 0.25025 0.0
O114 O 0.85476 0.53293 0.31076 0.0
O115 O 0.90563 0.57072 0.33957 0.0
O116 O 0.83825 0.60394 0.35068 0.0
C117 C 0.79175 0.61062 0.34479 0.0
C118 C 0.92601 0.57953 0.25569 0.0
O119 O 0.75756 0.61147 0.30368 0.0
C120 C 0.77884 0.57214 0.16677 0.0
O121 O 0.84296 0.63917 0.28446 0.0
O122 O 0.77274 0.62917 0.22497 0.0
O123 O 0.90434 0.55544 0.25793 0.0
O124 O 0.90884 0.60319 0.26753 0.0
C125 C 0.73658 0.53629 0.25369 0.0
O126 O 0.74533 0.58028 0.18575 0.0
O127 O 0.82073 0.55955 0.19054 0.0
C128 C 0.80459 0.64753 0.24944 0.0
O129 O 0.73156 0.56208 0.26664 0.0
O130 O 0.77243 0.53007 0.23741 0.0
C131 C 0.88874 0.5455 0.34476 0.0
Fe132 Fe 0.3377 0.46238 0.24577 0.0
Fe133 Fe 0.25991 0.41434 0.24827 0.0
O134 O 0.3247 0.42687 0.26396 0.0
Fe135 Fe 0.37751 0.40471 0.29907 0.0
O136 O 0.41599 0.43588 0.32844 0.0
O137 O 0.36396 0.47438 0.30721 0.0
O138 O 0.2755 0.47977 0.24191 0.0
C139 C 0.24177 0.47297 0.26019 0.0
C140 C 0.42325 0.42819 0.23976 0.0
O141 O 0.23807 0.44683 0.27216 0.0
C142 C 0.30754 0.36148 0.24473 0.0
O143 O 0.31252 0.45192 0.18472 0.0
O144 O 0.2416 0.42959 0.18737 0.0
O145 O 0.40847 0.40449 0.25339 0.0
O146 O 0.40231 0.45247 0.24432 0.0
C147 C 0.30629 0.39851 0.34581 0.0
O148 O 0.27408 0.38035 0.22319 0.0
O149 O 0.34782 0.36909 0.27783 0.0
C150 C 0.26902 0.44039 0.16437 0.0
O151 O 0.2691 0.39715 0.30663 0.0
O152 O 0.35182 0.40421 0.34728 0.0
C153 C 0.40138 0.46101 0.33734 0.0
Fe154 Fe 0.26546 0.41114 0.75045 0.0
Fe155 Fe 0.15387 0.40069 0.68549 0.0
O156 O 0.20076 0.42388 0.7246 0.0
Fe157 Fe 0.18451 0.45975 0.73844 0.0
O158 O 0.23337 0.47686 0.71774 0.0
O159 O 0.29544 0.44743 0.75906 0.0
O160 O 0.2729 0.40975 0.69217 0.0
C161 C 0.24266 0.39571 0.65733 0.0
C162 C 0.24471 0.43503 0.82582 0.0
O163 O 0.2006 0.38497 0.65931 0.0
C164 C 0.09638 0.43098 0.73702 0.0
O165 O 0.24996 0.37229 0.74761 0.0
O166 O 0.16564 0.37093 0.72916 0.0
O167 O 0.22834 0.4577 0.80014 0.0
O168 O 0.2586 0.4121 0.80889 0.0
C169 C 0.12597 0.45388 0.64047 0.0
O170 O 0.09882 0.41401 0.7039 0.0
O171 O 0.13492 0.44601 0.76016 0.0
C172 C 0.20972 0.35878 0.74675 0.0
O173 O 0.13872 0.4274 0.63835 0.0
O174 O 0.1371 0.46726 0.67968 0.0
C175 C 0.28103 0.47135 0.73702 0.0
H176 H 0.5015 0.93925 0.15068 0.0
H177 H 0.31366 0.99777 0.286 0.0
H178 H 0.55578 0.94675 0.30319 0.0
H179 H 0.32016 0.03984 0.15882 0.0
H180 H 0.38825 0.96656 0.28727 0.0
H181 H 0.41969 0.96323 0.14791 0.0
C182 C 0.49562 0.94509 0.18371 0.0
C183 C 0.53542 0.94077 0.22734 0.0
C184 C 0.37287 0.98244 0.2589 0.0
C185 C 0.44192 0.9682 0.22419 0.0
C186 C 0.33024 1.0001 0.25793 0.0
C187 C 0.31075 0.02143 0.22222 0.0
C188 C 0.39517 0.98552 0.22313 0.0
C189 C 0.33411 0.02374 0.18703 0.0
C190 C 0.4492 0.95908 0.18197 0.0
C191 C 0.52602 0.94952 0.26889 0.0
N192 N 0.37487 0.00588 0.18817 0.0
N193 N 0.48015 0.96276 0.26634 0.0
H194 H 0.93085 0.95438 0.66114 0.0
H195 H 0.23085 0.98421 0.79929 0.0
H196 H 0.01626 0.90943 0.79087 0.0
H197 H 0.13325 0.03266 0.67759 0.0
H198 H 0.1594 0.94938 0.78943 0.0
H199 H 0.01184 0.97419 0.65707 0.0
C200 C 0.96709 0.94781 0.68782 0.0
C201 C 0.96708 0.93013 0.72612 0.0
C202 C 0.15407 0.9675 0.76467 0.0
C203 C 0.05986 0.95405 0.72345 0.0
C204 C 0.19473 0.98736 0.77034 0.0
C205 C 0.18772 0.01168 0.73976 0.0
C206 C 0.10656 0.9719 0.72783 0.0
C207 C 0.14024 0.01462 0.70266 0.0
C208 C 0.01333 0.95944 0.68596 0.0
C209 C 0.01491 0.9227 0.76038 0.0
N210 N 0.10167 0.99515 0.69795 0.0
N211 N 0.05942 0.93523 0.75885 0.0
H212 H 0.73781 0.0278 0.7796 0.0
H213 H 0.43278 0.0415 0.6826 0.0
H214 H 0.63725 0.95254 0.74697 0.0
H215 H 0.51275 0.09023 0.80959 0.0
H216 H 0.51483 0.01849 0.68599 0.0
H217 H 0.66175 0.05946 0.77424 0.0
C218 C 0.69994 0.01796 0.77151 0.0
C219 C 0.69388 0.98745 0.76403 0.0
C220 C 0.51446 0.03463 0.71259 0.0
C221 C 0.60742 0.02343 0.75627 0.0
C222 C 0.46768 0.04796 0.71067 0.0
C223 C 0.46541 0.06756 0.74639 0.0
C224 C 0.55984 0.04123 0.7499 0.0
C225 C 0.51248 0.07514 0.78146 0.0
C226 C 0.65683 0.03598 0.76851 0.0
C227 C 0.64393 0.97584 0.75349 0.0
N228 N 0.55789 0.06173 0.78265 0.0
N229 N 0.60269 0.99385 0.74931 0.0
H230 H 0.87346 0.97259 0.30981 0.0
H231 H 0.98796 0.09975 0.19201 0.0
H232 H 0.77728 0.02165 0.18825 0.0
H233 H 0.07263 0.0541 0.32122 0.0
H234 H 0.90731 0.07747 0.1948 0.0
H235 H 0.94337 0.00681 0.31835 0.0
C236 C 0.86694 0.99065 0.28478 0.0
C237 C 0.81942 0.99395 0.24784 0.0
C238 C 0.94327 0.07306 0.22331 0.0
C239 C 0.90043 0.03365 0.2574 0.0
C240 C 0.98917 0.08616 0.22214 0.0
C241 C 0.03689 0.07898 0.25679 0.0
C242 C 0.94546 0.05256 0.25925 0.0
C243 C 0.03658 0.06043 0.29412 0.0
C244 C 0.90702 0.0104 0.28988 0.0
C245 C 0.81333 0.01817 0.2171 0.0
N246 N 0.99187 0.04763 0.29402 0.0
N247 N 0.85364 0.0369 0.22215 0.0
H248 H 0.08008 0.46375 0.80741 0.0
H249 H 0.77425 0.48311 0.7054 0.0
H250 H 0.9965 0.41827 0.67808 0.0
H251 H 0.87925 0.55538 0.75555 0.0
H252 H 0.84926 0.45091 0.70956 0.0
H253 H 0.9996 0.48795 0.8059 0.0
C254 C 0.04466 0.45826 0.77916 0.0
C255 C 0.04555 0.43914 0.74237 0.0
C256 C 0.85549 0.47384 0.71954 0.0
C257 C 0.95275 0.46699 0.74087 0.0
C258 C 0.81293 0.49217 0.71729 0.0
C259 C 0.82048 0.52204 0.7299 0.0
C260 C 0.90585 0.48529 0.73609 0.0
C261 C 0.87144 0.53262 0.74507 0.0
C262 C 0.99875 0.4723 0.77828 0.0
C263 C 0.99786 0.43286 0.70711 0.0
N264 N 0.91204 0.51425 0.74824 0.0
N265 N 0.95333 0.44696 0.70696 0.0
H266 H 0.68833 0.52803 0.31923 0.0
H267 H 0.45049 0.44285 0.16271 0.0
H268 H 0.69326 0.49484 0.18559 0.0
H269 H 0.51406 0.42307 0.31192 0.0
H270 H 0.5341 0.46419 0.16619 0.0
H271 H 0.61842 0.49348 0.31497 0.0
C272 C 0.67486 0.51333 0.28915 0.0
C273 C 0.69666 0.51421 0.25279 0.0
C274 C 0.53021 0.45428 0.19778 0.0
C275 C 0.61602 0.47519 0.24717 0.0
C276 C 0.48281 0.4418 0.19567 0.0
C277 C 0.47592 0.43043 0.23679 0.0
C278 C 0.57002 0.45656 0.24175 0.0
C279 C 0.5183 0.43085 0.27917 0.0
C280 C 0.63526 0.49355 0.28687 0.0
C281 C 0.67771 0.49469 0.21452 0.0
N282 N 0.56308 0.44438 0.28084 0.0
N283 N 0.63775 0.47634 0.21221 0.0
H284 H 0.01136 0.57642 0.33352 0.0
H285 H 0.20139 0.51855 0.19871 0.0
H286 H 0.96173 0.57308 0.18097 0.0
H287 H 0.19092 0.47718 0.32501 0.0
H288 H 0.12981 0.55204 0.19813 0.0
H289 H 0.09513 0.55461 0.33702 0.0
C290 C 0.01912 0.5724 0.30074 0.0
C291 C 0.98019 0.57716 0.25685 0.0
C292 C 0.14377 0.53586 0.22622 0.0
C293 C 0.07516 0.55164 0.26062 0.0
C294 C 0.18463 0.51684 0.22675 0.0
C295 C 0.20196 0.49498 0.26191 0.0
C296 C 0.12114 0.53354 0.26188 0.0
C297 C 0.17854 0.49359 0.29713 0.0
C298 C 0.0665 0.55953 0.30279 0.0
C299 C 0.9913 0.57039 0.21541 0.0
N300 N 0.13949 0.51267 0.29635 0.0
N301 N 0.03781 0.55786 0.21825 0.0
H302 H 0.48899 0.5973 0.6812 0.0
H303 H 0.37147 0.47717 0.80928 0.0
H304 H 0.57266 0.55337 0.81237 0.0
H305 H 0.28049 0.5181 0.67719 0.0
H306 H 0.44035 0.51183 0.81652 0.0
H307 H 0.40776 0.57642 0.68516 0.0
C308 C 0.48984 0.58433 0.71187 0.0
C309 C 0.5373 0.57719 0.74683 0.0
C310 C 0.40537 0.51353 0.78596 0.0
C311 C 0.44543 0.5526 0.75086 0.0
C312 C 0.36595 0.49356 0.78166 0.0
C313 C 0.32045 0.49438 0.7421 0.0
C314 C 0.40014 0.53442 0.75004 0.0
C315 C 0.31516 0.51658 0.70806 0.0
C316 C 0.44367 0.57209 0.71378 0.0
C317 C 0.53676 0.55958 0.78501 0.0
N318 N 0.35499 0.53549 0.7124 0.0
N319 N 0.49175 0.54767 0.78575 0.0
H320 H 0.0206 0.07274 0.08064 0.0
H321 H 0.99128 0.93828 0.9035 0.0
H322 H 0.12463 0.99744 0.1111 0.0
H323 H 0.88567 0.0128 0.87563 0.0
H324 H 0.04137 0.95995 0.97874 0.0
H325 H 0.9717 0.05117 0.00524 0.0
C326 C 0.03313 0.05152 0.07161 0.0
C327 C 0.07679 0.03676 0.10241 0.0
C328 C 0.00738 0.97163 0.95618 0.0
C329 C 0.02064 0.01202 0.01552 0.0
C330 C 0.9787 0.95934 0.91306 0.0
C331 C 0.93417 0.97385 0.88314 0.0
C332 C 0.99151 0.99863 0.96961 0.0
C333 C 0.91977 1.00095 0.89756 0.0
C334 C 1.00507 0.03927 0.02835 0.0
C335 C 0.09113 0.00947 0.0885 0.0
N336 N 0.94844 0.01249 0.93995 0.0
N337 N 0.06301 0.99793 0.04588 0.0
H338 H 0.57941 0.01104 0.13096 0.0
H339 H 0.43054 0.99629 0.85196 0.0
H340 H 0.60174 0.93816 0.0465 0.0
H341 H 0.40914 0.06918 0.93683 0.0
H342 H 0.49263 0.97426 0.92302 0.0
H343 H 0.5182 0.03317 0.05969 0.0
C344 C 0.57192 0.99983 0.09738 0.0
C345 C 0.59561 0.97262 0.09479 0.0
C346 C 0.47418 0.99503 0.92608 0.0
C347 C 0.52501 0.99767 0.01314 0.0
C348 C 0.43847 0.00753 0.88557 0.0
C349 C 0.41473 0.03469 0.88837 0.0
C350 C 0.4862 0.00978 0.96967 0.0
C351 C 0.42667 0.04828 0.93289 0.0
C352 C 0.53669 0.0124 0.05671 0.0
C353 C 0.58423 0.9591 0.05025 0.0
N354 N 0.46171 0.03574 0.97173 0.0
N355 N 0.54954 0.9717 0.01122 0.0
H356 H 0.5535 0.58102 0.56237 0.0
H357 H 0.47128 0.43418 0.41265 0.0
H358 H 0.62009 0.49538 0.611 0.0
H359 H 0.40348 0.51944 0.36274 0.0
H360 H 0.52737 0.4567 0.48449 0.0
H361 H 0.50122 0.55938 0.48765 0.0
C362 C 0.55716 0.55759 0.55723 0.0
C363 C 0.59052 0.53978 0.59311 0.0
C364 C 0.5004 0.47057 0.45792 0.0
C365 C 0.53078 0.51499 0.5077 0.0
C366 C 0.46826 0.45776 0.41677 0.0
C367 C 0.43296 0.47509 0.38148 0.0
C368 C 0.49727 0.50097 0.46406 0.0
C369 C 0.43023 0.50536 0.38909 0.0
C370 C 0.52731 0.54531 0.51454 0.0
C371 C 0.59458 0.50978 0.58431 0.0
N372 N 0.46224 0.51743 0.42974 0.0
N373 N 0.5646 0.49824 0.54244 0.0
H374 H 0.08483 0.50966 0.63014 0.0
H375 H 0.90739 0.48608 0.35956 0.0
H376 H 0.08624 0.42969 0.55208 0.0
H377 H 0.9308 0.57001 0.43089 0.0
H378 H 0.96372 0.46288 0.43319 0.0
H379 H 0.02091 0.53067 0.55941 0.0
C380 C 0.07202 0.4966 0.59807 0.0
C381 C 0.091 0.46792 0.59703 0.0
C382 C 0.95609 0.48634 0.43267 0.0
C383 C 0.01739 0.49164 0.51622 0.0
C384 C 0.9237 0.49945 0.39092 0.0
C385 C 0.91521 0.52993 0.38931 0.0
C386 C 0.97938 0.50394 0.47272 0.0
C387 C 0.93718 0.54644 0.43065 0.0
C388 C 0.03533 0.50854 0.55777 0.0
C389 C 0.07276 0.45194 0.5545 0.0
N390 N 0.9685 0.53326 0.47061 0.0
N391 N 0.03682 0.46401 0.51578 0.0
H392 H 0.17561 0.09442 0.8452 0.0
H393 H 0.28809 0.13064 0.1225 0.0
H394 H 0.32491 0.13411 0.91264 0.0
H395 H 0.12863 0.10727 0.04944 0.0
H396 H 0.30252 0.13231 0.04588 0.0
H397 H 0.15743 0.09908 0.91986 0.0
C398 C 0.20434 0.10433 0.87548 0.0
C399 C 0.25182 0.11386 0.87252 0.0
C400 C 0.26427 0.12708 0.04669 0.0
C401 C 0.2316 0.11897 0.95819 0.0
C402 C 0.25603 0.12615 0.09044 0.0
C403 C 0.20715 0.11878 0.09259 0.0
C404 C 0.22348 0.12031 0.00487 0.0
C405 C 0.16704 0.11308 0.04974 0.0
C406 C 0.19399 0.10699 0.91812 0.0
C407 C 0.2877 0.12647 0.91308 0.0
N408 N 0.17621 0.11375 0.00782 0.0
N409 N 0.277 0.12845 0.95422 0.0
H410 H 0.88088 0.9062 0.93696 0.0
H411 H 0.68601 0.86841 0.07623 0.0
H412 H 0.72316 0.87836 0.86724 0.0
H413 H 0.82875 0.91562 0.13921 0.0
H414 H 0.70437 0.86545 0.00214 0.0
H415 H 0.86705 0.90331 0.01303 0.0
C416 C 0.84332 0.8992 0.93753 0.0
C417 C 0.80298 0.89253 0.8953 0.0
C418 C 0.73184 0.87631 0.03219 0.0
C419 C 0.78709 0.88933 0.98305 0.0
C420 C 0.7216 0.87794 0.07476 0.0
C421 C 0.7559 0.89242 0.11424 0.0
C422 C 0.77685 0.88909 0.02879 0.0
C423 C 0.80125 0.90427 0.10983 0.0
C424 C 0.83552 0.8977 0.98118 0.0
C425 C 0.7553 0.88373 0.89871 0.0
N426 N 0.81033 0.90242 0.06777 0.0
N427 N 0.74866 0.88244 0.94187 0.0
H428 H 0.69525 0.61978 0.35368 0.0
H429 H 0.81006 0.62219 0.63766 0.0
H430 H 0.85888 0.61783 0.43466 0.0
H431 H 0.64655 0.62779 0.55716 0.0
H432 H 0.82916 0.62595 0.56333 0.0
H433 H 0.67656 0.6276 0.42766 0.0
C434 C 0.72717 0.62125 0.3868 0.0
C435 C 0.77859 0.6178 0.38787 0.0
C436 C 0.78911 0.62668 0.56207 0.0
C437 C 0.75767 0.62665 0.47256 0.0
C438 C 0.77828 0.62468 0.60456 0.0
C439 C 0.7267 0.62431 0.6037 0.0
C440 C 0.74805 0.62823 0.51854 0.0
C441 C 0.68698 0.62757 0.55962 0.0
C442 C 0.71656 0.6257 0.42905 0.0
C443 C 0.8185 0.61999 0.43195 0.0
N444 N 0.69846 0.62908 0.51889 0.0
N445 N 0.80718 0.62404 0.4724 0.0
H446 H 0.33303 0.40966 0.64118 0.0
H447 H 0.21541 0.38358 0.36107 0.0
H448 H 0.18091 0.37372 0.57231 0.0
H449 H 0.37626 0.40343 0.4352 0.0
H450 H 0.20147 0.37962 0.4378 0.0
H451 H 0.34951 0.40724 0.56567 0.0
C452 C 0.3033 0.40099 0.61035 0.0
C453 C 0.25555 0.39186 0.61322 0.0
C454 C 0.23988 0.38461 0.43715 0.0
C455 C 0.27386 0.3894 0.52639 0.0
C456 C 0.24783 0.38688 0.39335 0.0
C457 C 0.29703 0.39389 0.3915 0.0
C458 C 0.28129 0.38965 0.47934 0.0
C459 C 0.3376 0.39797 0.43464 0.0
C460 C 0.31268 0.39963 0.56719 0.0
C461 C 0.2184 0.38091 0.57192 0.0
N462 N 0.32873 0.39598 0.4766 0.0
N463 N 0.22817 0.38021 0.5302 0.0
H464 H 0.27655 0.11851 0.3805 0.0
H465 H 0.27171 0.02505 0.60583 0.0
H466 H 0.24177 0.02605 0.37699 0.0
H467 H 0.25807 0.11986 0.60029 0.0
H468 H 0.27538 0.02507 0.52561 0.0
H469 H 0.28689 0.11923 0.46565 0.0
C470 C 0.27266 0.09824 0.39805 0.0
C471 C 0.25849 0.07216 0.37213 0.0
C472 C 0.27144 0.0459 0.54181 0.0
C473 C 0.26925 0.07287 0.46828 0.0
C474 C 0.26914 0.04591 0.58761 0.0
C475 C 0.26405 0.07249 0.60966 0.0
C476 C 0.26908 0.07266 0.51776 0.0
C477 C 0.2613 0.09885 0.58433 0.0
C478 C 0.2778 0.09873 0.44627 0.0
C479 C 0.25275 0.04658 0.39595 0.0
N480 N 0.26396 0.09829 0.53964 0.0
N481 N 0.25796 0.04759 0.44261 0.0
H482 H 0.76214 0.9851 0.60926 0.0
H483 H 0.74663 0.88623 0.38562 0.0
H484 H 0.73149 0.89214 0.60644 0.0
H485 H 0.72822 0.98082 0.37929 0.0
H486 H 0.74471 0.88718 0.4672 0.0
H487 H 0.75063 0.98359 0.52481 0.0
C488 C 0.75183 0.96447 0.59041 0.0
C489 C 0.7474 0.93875 0.61452 0.0
C490 C 0.74095 0.90766 0.44776 0.0
C491 C 0.73594 0.93656 0.51823 0.0
C492 C 0.74261 0.90718 0.40146 0.0
C493 C 0.73799 0.93351 0.37571 0.0
C494 C 0.73521 0.93468 0.46849 0.0
C495 C 0.7321 0.95998 0.39775 0.0
C496 C 0.74553 0.96356 0.54229 0.0
C497 C 0.73452 0.9125 0.58877 0.0
N498 N 0.73116 0.95987 0.44285 0.0
N499 N 0.73003 0.91194 0.54198 0.0
H500 H 0.66609 0.55069 0.86517 0.0
H501 H 0.85161 0.58249 0.12616 0.0
H502 H 0.81542 0.59144 0.89351 0.0
H503 H 0.68669 0.57102 0.09169 0.0
H504 H 0.84052 0.58414 0.04186 0.0
H505 H 0.67496 0.55528 0.94836 0.0
C506 C 0.70105 0.56048 0.88889 0.0
C507 C 0.74033 0.57055 0.87212 0.0
C508 C 0.80665 0.58155 0.05259 0.0
C509 C 0.75035 0.57593 0.96802 0.0
C510 C 0.81288 0.58048 0.10067 0.0
C511 C 0.76995 0.57627 0.11578 0.0
C512 C 0.75721 0.5779 0.0192 0.0
C513 C 0.7207 0.57423 0.08143 0.0
C514 C 0.70574 0.5633 0.93645 0.0
C515 C 0.78435 0.58322 0.90481 0.0
N516 N 0.71573 0.57465 0.03454 0.0
N517 N 0.78834 0.58538 0.95135 0.0
H518 H 0.24129 0.48358 0.87812 0.0
H519 H 0.2296 0.39433 0.10483 0.0
H520 H 0.25092 0.3887 0.88652 0.0
H521 H 0.2705 0.48581 0.10687 0.0
H522 H 0.21971 0.39246 0.01984 0.0
H523 H 0.23694 0.4851 0.9581 0.0
C524 C 0.24286 0.46303 0.89695 0.0
C525 C 0.24699 0.43597 0.87581 0.0
C526 C 0.23003 0.41302 0.03886 0.0
C527 C 0.24114 0.43757 0.96728 0.0
C528 C 0.23492 0.41417 0.08695 0.0
C529 C 0.25071 0.44028 0.11239 0.0
C530 C 0.24047 0.43825 0.01651 0.0
C531 C 0.25825 0.46529 0.08824 0.0
C532 C 0.24017 0.46393 0.94256 0.0
C533 C 0.24849 0.41005 0.90182 0.0
N534 N 0.25326 0.46364 0.04168 0.0
N535 N 0.24542 0.41147 0.9463 0.0
H536 H 0.27916 0.17751 0.30484 0.0
H537 H 0.2213 0.33643 0.18087 0.0
H538 H 0.14173 0.19817 0.18616 0.0
H539 H 0.36103 0.31429 0.29616 0.0
H540 H 0.19181 0.28591 0.18158 0.0
H541 H 0.30793 0.2281 0.30396 0.0
C542 C 0.25455 0.19276 0.27904 0.0
C543 C 0.20793 0.18338 0.2454 0.0
C544 C 0.2291 0.29204 0.20649 0.0
C545 C 0.24135 0.24145 0.24366 0.0
C546 C 0.24623 0.32088 0.20586 0.0
C547 C 0.29377 0.3298 0.23861 0.0
C548 C 0.25955 0.27189 0.2402 0.0
C549 C 0.32417 0.30854 0.27019 0.0
C550 C 0.27129 0.22165 0.2783 0.0
C551 C 0.17788 0.20429 0.21284 0.0
N552 N 0.30638 0.28071 0.27042 0.0
N553 N 0.19528 0.23223 0.21257 0.0
H554 H 0.22681 0.17677 0.67481 0.0
H555 H 0.2864 0.3298 0.81401 0.0
H556 H 0.36066 0.19037 0.79903 0.0
H557 H 0.15035 0.31506 0.69231 0.0
H558 H 0.31299 0.27856 0.81064 0.0
H559 H 0.20046 0.22798 0.67862 0.0
C560 C 0.25152 0.19088 0.70208 0.0
C561 C 0.29624 0.1794 0.73641 0.0
C562 C 0.2769 0.28631 0.78508 0.0
C563 C 0.26517 0.23783 0.74219 0.0
C564 C 0.26128 0.31543 0.78743 0.0
C565 C 0.21585 0.3266 0.75365 0.0
C566 C 0.24716 0.26816 0.74831 0.0
C567 C 0.18516 0.30722 0.71951 0.0
C568 C 0.23602 0.21999 0.70469 0.0
C569 C 0.32643 0.19847 0.7714 0.0
N570 N 0.20172 0.27902 0.71736 0.0
N571 N 0.31001 0.22669 0.77372 0.0
H572 H 0.78169 0.67559 0.81202 0.0
H573 H 0.73087 0.83263 0.68233 0.0
H574 H 0.64503 0.69751 0.69327 0.0
H575 H 0.86456 0.81288 0.80514 0.0
H576 H 0.70048 0.78258 0.6846 0.0
H577 H 0.81187 0.72597 0.8116 0.0
C578 C 0.75749 0.69109 0.78643 0.0
C579 C 0.71083 0.68212 0.75241 0.0
C580 C 0.73664 0.78911 0.7109 0.0
C581 C 0.74587 0.73974 0.75109 0.0
C582 C 0.75432 0.81766 0.70936 0.0
C583 C 0.8003 0.82712 0.74373 0.0
C584 C 0.76504 0.76977 0.74707 0.0
C585 C 0.82892 0.80662 0.77788 0.0
C586 C 0.77505 0.71982 0.78592 0.0
C587 C 0.68131 0.70329 0.72009 0.0
N588 N 0.81063 0.779 0.77889 0.0
N589 N 0.69956 0.73097 0.71995 0.0
H590 H 0.72123 0.67409 0.18207 0.0
H591 H 0.77 0.83016 0.31385 0.0
H592 H 0.85304 0.69359 0.30574 0.0
H593 H 0.64363 0.81565 0.18401 0.0
H594 H 0.79517 0.77844 0.31483 0.0
H595 H 0.68959 0.72466 0.1829 0.0
C596 C 0.74404 0.68907 0.20897 0.0
C597 C 0.79009 0.67938 0.24389 0.0
C598 C 0.76143 0.78631 0.28641 0.0
C599 C 0.75314 0.73727 0.24561 0.0
C600 C 0.7466 0.81578 0.28622 0.0
C601 C 0.70441 0.82715 0.24903 0.0
C602 C 0.73429 0.76791 0.24877 0.0
C603 C 0.67589 0.80766 0.21375 0.0
C604 C 0.72559 0.7179 0.20964 0.0
C605 C 0.81756 0.69989 0.27794 0.0
N606 N 0.69173 0.77902 0.21415 0.0
N607 N 0.79852 0.72768 0.27809 0.0
loop_
_geom_bond_atom_site_label_1
_geom_bond_atom_site_label_2
_geom_bond_distance
_geom_bond_site_symmetry_2
_ccdc_geom_bond_type
Fe0 O2 1.918 . S
Fe0 O5 1.997 . S
Fe0 O6 2.002 . S
Fe0 O11 1.976 . S
Fe0 O14 1.996 . S
Fe1 O2 1.918 . S
Fe1 O9 1.997 . S
Fe1 O12 1.996 . S
Fe1 O16 1.976 . S
Fe1 O19 2.002 . S
O2 Fe0 1.918 . S
O2 Fe1 1.918 . S
O2 Fe3 1.918 . S
Fe3 O2 1.918 . S
Fe3 O4 2.002 . S
Fe3 O13 1.976 . S
Fe3 O17 1.996 . S
Fe3 O20 1.997 . S
O4 Fe3 2.002 . S
O4 C21 1.295 . S
O5 Fe0 1.997 . S
O5 C21 1.235 . S
O6 Fe0 2.002 . S
O6 C7 1.295 . S
C7 O6 1.295 . S
C7 O9 1.235 . S
C8 O13 1.287 . S
C8 O14 1.255 . S
O9 Fe1 1.997 . S
O9 C7 1.235 . S
C10 O16 1.287 . S
C10 O17 1.255 . S
O11 Fe0 1.976 . S
O11 C18 1.287 . S
O12 Fe1 1.996 . S
O12 C18 1.255 . S
O13 Fe3 1.976 . S
O13 C8 1.287 . S
O14 Fe0 1.996 . S
O14 C8 1.255 . S
C15 O19 1.295 . S
C15 O20 1.235 . S
O16 Fe1 1.976 . S
O16 C10 1.287 . S
O17 Fe3 1.996 . S
O17 C10 1.255 . S
C18 O11 1.287 . S
C18 O12 1.255 . S
O19 Fe1 2.002 . S
O19 C15 1.295 . S
O20 Fe3 1.997 . S
O20 C15 1.235 . S
C21 O4 1.295 . S
C21 O5 1.235 . S
Fe22 O24 1.918 . S
Fe22 O27 1.997 . S
Fe22 O28 2.002 . S
Fe22 O33 1.976 . S
Fe22 O36 1.996 . S
Fe23 O24 1.918 . S
Fe23 O31 1.997 . S
Fe23 O34 1.996 . S
Fe23 O38 1.976 . S
Fe23 O41 2.002 . S
O24 Fe22 1.918 . S
O24 Fe23 1.918 . S
O24 Fe25 1.918 . S
Fe25 O24 1.918 . S
Fe25 O26 2.002 . S
Fe25 O35 1.976 . S
Fe25 O39 1.996 . S
Fe25 O42 1.997 . S
O26 Fe25 2.002 . S
O26 C43 1.295 . S
O27 Fe22 1.997 . S
O27 C43 1.235 . S
O28 Fe22 2.002 . S
O28 C29 1.295 . S
C29 O28 1.295 . S
C29 O31 1.235 . S
C30 O35 1.287 . S
C30 O36 1.255 . S
O31 Fe23 1.997 . S
O31 C29 1.235 . S
C32 O38 1.287 . S
C32 O39 1.255 . S
O33 Fe22 1.976 . S
O33 C40 1.287 . S
O34 Fe23 1.996 . S
O34 C40 1.255 . S
O35 Fe25 1.976 . S
O35 C30 1.287 . S
O36 Fe22 1.996 . S
O36 C30 1.255 . S
C37 O41 1.295 . S
C37 O42 1.235 . S
O38 Fe23 1.976 . S
O38 C32 1.287 . S
O39 Fe25 1.996 . S
O39 C32 1.255 . S
C40 O33 1.287 . S
C40 O34 1.255 . S
O41 Fe23 2.002 . S
O41 C37 1.295 . S
O42 Fe25 1.997 . S
O42 C37 1.235 . S
C43 O26 1.295 . S
C43 O27 1.235 . S
Fe44 O46 1.918 . S
Fe44 O49 1.997 . S
Fe44 O50 2.002 . S
Fe44 O55 1.976 . S
Fe44 O58 1.996 . S
Fe45 O46 1.918 . S
Fe45 O53 1.997 . S
Fe45 O56 1.996 . S
Fe45 O60 1.976 . S
Fe45 O63 2.002 . S
O46 Fe44 1.918 . S
O46 Fe45 1.918 . S
O46 Fe47 1.918 . S
Fe47 O46 1.918 . S
Fe47 O48 2.002 . S
Fe47 O57 1.976 . S
Fe47 O61 1.996 . S
Fe47 O64 1.997 . S
O48 Fe47 2.002 . S
O48 C65 1.295 . S
O49 Fe44 1.997 . S
O49 C65 1.235 . S
O50 Fe44 2.002 . S
O50 C51 1.295 . S
C51 O50 1.295 . S
C51 O53 1.235 . S
C52 O57 1.287 . S
C52 O58 1.255 . S
O53 Fe45 1.997 . S
O53 C51 1.235 . S
C54 O60 1.287 . S
C54 O61 1.255 . S
O55 Fe44 1.976 . S
O55 C62 1.287 . S
O56 Fe45 1.996 . S
O56 C62 1.255 . S
O57 Fe47 1.976 . S
O57 C52 1.287 . S
O58 Fe44 1.996 . S
O58 C52 1.255 . S
C59 O63 1.295 . S
C59 O64 1.235 . S
O60 Fe45 1.976 . S
O60 C54 1.287 . S
O61 Fe47 1.996 . S
O61 C54 1.255 . S
C62 O55 1.287 . S
C62 O56 1.255 . S
O63 Fe45 2.002 . S
O63 C59 1.295 . S
O64 Fe47 1.997 . S
O64 C59 1.235 . S
C65 O48 1.295 . S
C65 O49 1.235 . S
Fe66 O68 1.918 . S
Fe66 O71 1.997 . S
Fe66 O72 2.002 . S
Fe66 O77 1.976 . S
Fe66 O80 1.996 . S
Fe67 O68 1.918 . S
Fe67 O75 1.997 . S
Fe67 O78 1.996 . S
Fe67 O82 1.976 . S
Fe67 O85 2.002 . S
O68 Fe66 1.918 . S
O68 Fe67 1.918 . S
O68 Fe69 1.918 . S
Fe69 O68 1.918 . S
Fe69 O70 2.002 . S
Fe69 O79 1.976 . S
Fe69 O83 1.996 . S
Fe69 O86 1.997 . S
O70 Fe69 2.002 . S
O70 C87 1.295 . S
O71 Fe66 1.997 . S
O71 C87 1.235 . S
O72 Fe66 2.002 . S
O72 C73 1.295 . S
C73 O72 1.295 . S
C73 O75 1.235 . S
C74 O79 1.287 . S
C74 O80 1.255 . S
O75 Fe67 1.997 . S
O75 C73 1.235 . S
C76 O82 1.287 . S
C76 O83 1.255 . S
O77 Fe66 1.976 . S
O77 C84 1.287 . S
O78 Fe67 1.996 . S
O78 C84 1.255 . S
O79 Fe69 1.976 . S
O79 C74 1.287 . S
O80 Fe66 1.996 . S
O80 C74 1.255 . S
C81 O85 1.295 . S
C81 O86 1.235 . S
O82 Fe67 1.976 . S
O82 C76 1.287 . S
O83 Fe69 1.996 . S
O83 C76 1.255 . S
C84 O77 1.287 . S
C84 O78 1.255 . S
O85 Fe67 2.002 . S
O85 C81 1.295 . S
O86 Fe69 1.997 . S
O86 C81 1.235 . S
C87 O70 1.295 . S
C87 O71 1.235 . S
Fe88 O90 1.918 . S
Fe88 O93 1.997 . S
Fe88 O94 2.002 . S
Fe88 O99 1.976 . S
Fe88 O102 1.996 . S
Fe89 O90 1.918 . S
Fe89 O97 1.997 . S
Fe89 O100 1.996 . S
Fe89 O104 1.976 . S
Fe89 O107 2.002 . S
O90 Fe88 1.918 . S
O90 Fe89 1.918 . S
O90 Fe91 1.918 . S
Fe91 O90 1.918 . S
Fe91 O92 2.002 . S
Fe91 O101 1.976 . S
Fe91 O105 1.996 . S
Fe91 O108 1.997 . S
O92 Fe91 2.002 . S
O92 C109 1.295 . S
O93 Fe88 1.997 . S
O93 C109 1.235 . S
O94 Fe88 2.002 . S
O94 C95 1.295 . S
C95 O94 1.295 . S
C95 O97 1.235 . S
C96 O101 1.287 . S
C96 O102 1.255 . S
O97 Fe89 1.997 . S
O97 C95 1.235 . S
C98 O104 1.287 . S
C98 O105 1.255 . S
O99 Fe88 1.976 . S
O99 C106 1.287 . S
O100 Fe89 1.996 . S
O100 C106 1.255 . S
O101 Fe91 1.976 . S
O101 C96 1.287 . S
O102 Fe88 1.996 . S
O102 C96 1.255 . S
C103 O107 1.295 . S
C103 O108 1.235 . S
O104 Fe89 1.976 . S
O104 C98 1.287 . S
O105 Fe91 1.996 . S
O105 C98 1.255 . S
C106 O99 1.287 . S
C106 O100 1.255 . S
O107 Fe89 2.002 . S
O107 C103 1.295 . S
O108 Fe91 1.997 . S
O108 C103 1.235 . S
C109 O92 1.295 . S
C109 O93 1.235 . S
Fe110 O112 1.918 . S
Fe110 O115 1.997 . S
Fe110 O116 2.002 . S
Fe110 O121 1.976 . S
Fe110 O124 1.996 . S
Fe111 O112 1.918 . S
Fe111 O119 1.997 . S
Fe111 O122 1.996 . S
Fe111 O126 1.976 . S
Fe111 O129 2.002 . S
O112 Fe110 1.918 . S
O112 Fe111 1.918 . S
O112 Fe113 1.918 . S
Fe113 O112 1.918 . S
Fe113 O114 2.002 . S
Fe113 O123 1.976 . S
Fe113 O127 1.996 . S
Fe113 O130 1.997 . S
O114 Fe113 2.002 . S
O114 C131 1.295 . S
O115 Fe110 1.997 . S
O115 C131 1.235 . S
O116 Fe110 2.002 . S
O116 C117 1.295 . S
C117 O116 1.295 . S
C117 O119 1.235 . S
C118 O123 1.287 . S
C118 O124 1.255 . S
O119 Fe111 1.997 . S
O119 C117 1.235 . S
C120 O126 1.287 . S
C120 O127 1.255 . S
O121 Fe110 1.976 . S
O121 C128 1.287 . S
O122 Fe111 1.996 . S
O122 C128 1.255 . S
O123 Fe113 1.976 . S
O123 C118 1.287 . S
O124 Fe110 1.996 . S
O124 C118 1.255 . S
C125 O129 1.295 . S
C125 O130 1.235 . S
O126 Fe111 1.976 . S
O126 C120 1.287 . S
O127 Fe113 1.996 . S
O127 C120 1.255 . S
C128 O121 1.287 . S
C128 O122 1.255 . S
O129 Fe111 2.002 . S
O129 C125 1.295 . S
O130 Fe113 1.997 . S
O130 C125 1.235 . S
C131 O114 1.295 . S
C131 O115 1.235 . S
Fe132 O134 1.918 . S
Fe132 O137 1.997 . S
Fe132 O138 2.002 . S
Fe132 O143 1.976 . S
Fe132 O146 1.996 . S
Fe133 O134 1.918 . S
Fe133 O141 1.997 . S
Fe133 O144 1.996 . S
Fe133 O148 1.976 . S
Fe133 O151 2.002 . S
O134 Fe132 1.918 . S
O134 Fe133 1.918 . S
O134 Fe135 1.918 . S
Fe135 O134 1.918 . S
Fe135 O136 2.002 . S
Fe135 O145 1.976 . S
Fe135 O149 1.996 . S
Fe135 O152 1.997 . S
O136 Fe135 2.002 . S
O136 C153 1.295 . S
O137 Fe132 1.997 . S
O137 C153 1.235 . S
O138 Fe132 2.002 . S
O138 C139 1.295 . S
C139 O138 1.295 . S
C139 O141 1.235 . S
C140 O145 1.287 . S
C140 O146 1.255 . S
O141 Fe133 1.997 . S
O141 C139 1.235 . S
C142 O148 1.287 . S
C142 O149 1.255 . S
O143 Fe132 1.976 . S
O143 C150 1.287 . S
O144 Fe133 1.996 . S
O144 C150 1.255 . S
O145 Fe135 1.976 . S
O145 C140 1.287 . S
O146 Fe132 1.996 . S
O146 C140 1.255 . S
C147 O151 1.295 . S
C147 O152 1.235 . S
O148 Fe133 1.976 . S
O148 C142 1.287 . S
O149 Fe135 1.996 . S
O149 C142 1.255 . S
C150 O143 1.287 . S
C150 O144 1.255 . S
O151 Fe133 2.002 . S
O151 C147 1.295 . S
O152 Fe135 1.997 . S
O152 C147 1.235 . S
C153 O136 1.295 . S
C153 O137 1.235 . S
Fe154 O156 1.918 . S
Fe154 O159 1.997 . S
Fe154 O160 2.002 . S
Fe154 O165 1.976 . S
Fe154 O168 1.996 . S
Fe155 O156 1.918 . S
Fe155 O163 1.997 . S
Fe155 O166 1.996 . S
Fe155 O170 1.976 . S
Fe155 O173 2.002 . S
O156 Fe154 1.918 . S
O156 Fe155 1.918 . S
O156 Fe157 1.918 . S
Fe157 O156 1.918 . S
Fe157 O158 2.002 . S
Fe157 O167 1.976 . S
Fe157 O171 1.996 . S
Fe157 O174 1.997 . S
O158 Fe157 2.002 . S
O158 C175 1.295 . S
O159 Fe154 1.997 . S
O159 C175 1.235 . S
O160 Fe154 2.002 . S
O160 C161 1.295 . S
C161 O160 1.295 . S
C161 O163 1.235 . S
C162 O167 1.287 . S
C162 O168 1.255 . S
O163 Fe155 1.997 . S
O163 C161 1.235 . S
C164 O170 1.287 . S
C164 O171 1.255 . S
O165 Fe154 1.976 . S
O165 C172 1.287 . S
O166 Fe155 1.996 . S
O166 C172 1.255 . S
O167 Fe157 1.976 . S
O167 C162 1.287 . S
O168 Fe154 1.996 . S
O168 C162 1.255 . S
C169 O173 1.295 . S
C169 O174 1.235 . S
O170 Fe155 1.976 . S
O170 C164 1.287 . S
O171 Fe157 1.996 . S
O171 C164 1.255 . S
C172 O165 1.287 . S
C172 O166 1.255 . S
O173 Fe155 2.002 . S
O173 C169 1.295 . S
O174 Fe157 1.997 . S
O174 C169 1.235 . S
C175 O158 1.295 . S
C175 O159 1.235 . S
H176 C182 0.930 . S
H177 C186 0.930 . S
H178 C191 0.929 . S
H179 C189 0.929 . S
H180 C184 0.929 . S
H181 C190 0.929 . S
C182 H176 0.930 . S
C182 C183 1.367 . S
C182 C190 1.378 . S
C183 C182 1.367 . S
C183 C191 1.433 . S
C184 H180 0.929 . S
C184 C186 1.378 . S
C184 C188 1.350 . S
C185 C188 1.463 . S
C185 C190 1.350 . S
C185 N193 1.427 . S
C186 H177 0.930 . S
C186 C184 1.378 . S
C186 C187 1.367 1_565 S
C187 C186 1.367 1_545 S
C187 C189 1.433 . S
C188 C184 1.350 . S
C188 C185 1.463 . S
C188 N192 1.427 1_565 S
C189 H179 0.929 . S
C189 C187 1.433 . S
C189 N192 1.384 . S
C190 H181 0.929 . S
C190 C182 1.378 . S
C190 C185 1.350 . S
C191 H178 0.929 . S
C191 C183 1.433 . S
C191 N193 1.384 . S
N192 C188 1.427 1_545 S
N192 C189 1.384 . S
N193 C185 1.427 . S
N193 C191 1.384 . S
H194 C200 0.930 . S
H195 C204 0.930 . S
H196 C209 0.924 1_655 S
H197 C207 0.929 . S
H198 C202 0.929 . S
H199 C208 0.929 . S
C200 H194 0.930 . S
C200 C201 1.367 . S
C200 C208 1.378 1_655 S
C201 C200 1.367 . S
C201 C209 1.433 1_655 S
C202 H198 0.929 . S
C202 C204 1.378 1_565 S
C202 C206 1.350 . S
C203 C206 1.463 . S
C203 C208 1.350 . S
C203 N211 1.427 . S
C204 H195 0.930 . S
C204 C202 1.378 1_545 S
C204 C205 1.367 . S
C205 C204 1.367 . S
C205 C207 1.433 . S
C206 C202 1.350 . S
C206 C203 1.463 . S
C206 N210 1.427 . S
C207 H197 0.929 . S
C207 C205 1.433 . S
C207 N210 1.384 1_545 S
C208 H199 0.929 . S
C208 C200 1.378 1_455 S
C208 C203 1.350 . S
C209 H196 0.924 1_455 S
C209 C201 1.433 1_455 S
C209 N211 1.384 . S
N210 C206 1.427 . S
N210 C207 1.384 1_565 S
N211 C203 1.427 . S
N211 C209 1.384 . S
H212 C218 0.930 . S
H213 C222 0.930 . S
H214 C227 0.929 . S
H215 C225 0.929 . S
H216 C220 0.929 1_565 S
H217 C226 0.929 . S
C218 H212 0.930 . S
C218 C219 1.367 1_545 S
C218 C226 1.378 . S
C219 C218 1.367 1_565 S
C219 C227 1.433 . S
C220 H216 0.929 1_545 S
C220 C222 1.378 . S
C220 C224 1.350 . S
C221 C224 1.463 . S
C221 C226 1.350 . S
C221 N229 1.427 1_545 S
C222 H213 0.930 . S
C222 C220 1.378 . S
C222 C223 1.367 . S
C223 C222 1.367 . S
C223 C225 1.433 . S
C224 C220 1.350 . S
C224 C221 1.463 . S
C224 N228 1.427 . S
C225 H215 0.929 . S
C225 C223 1.433 . S
C225 N228 1.384 . S
C226 H217 0.929 . S
C226 C218 1.378 . S
C226 C221 1.350 . S
C227 H214 0.929 . S
C227 C219 1.433 . S
C227 N229 1.384 . S
N228 C224 1.427 . S
N228 C225 1.384 . S
N229 C221 1.427 1_565 S
N229 C227 1.384 . S
H230 C236 0.930 . S
H231 C240 0.930 . S
H232 C245 0.929 . S
H233 C243 0.929 . S
H234 C238 0.929 . S
H235 C244 0.929 . S
C236 H230 0.930 . S
C236 C237 1.367 . S
C236 C244 1.378 . S
C237 C236 1.367 . S
C237 C245 1.433 1_565 S
C238 H234 0.929 . S
C238 C240 1.378 . S
C238 C242 1.350 . S
C239 C242 1.463 . S
C239 C244 1.350 1_545 S
C239 N247 1.427 . S
C240 H231 0.930 . S
C240 C238 1.378 . S
C240 C241 1.367 1_655 S
C241 C240 1.367 1_455 S
C241 C243 1.433 . S
C242 C238 1.350 . S
C242 C239 1.463 . S
C242 N246 1.427 . S
C243 H233 0.929 . S
C243 C241 1.433 . S
C243 N246 1.384 1_455 S
C244 H235 0.929 . S
C244 C236 1.378 . S
C244 C239 1.350 1_565 S
C245 H232 0.929 . S
C245 C237 1.433 1_545 S
C245 N247 1.384 . S
N246 C242 1.427 . S
N246 C243 1.384 1_655 S
N247 C239 1.427 . S
N247 C245 1.384 . S
H248 C254 0.930 . S
H249 C258 0.930 . S
H250 C263 0.929 . S
H251 C261 0.929 . S
H252 C256 0.929 . S
H253 C262 0.929 . S
C254 H248 0.930 . S
C254 C255 1.367 . S
C254 C262 1.378 1_455 S
C255 C254 1.367 . S
C255 C263 1.433 1_455 S
C256 H252 0.929 . S
C256 C258 1.378 . S
C256 C260 1.350 . S
C257 C260 1.463 . S
C257 C262 1.350 . S
C257 N265 1.427 . S
C258 H249 0.930 . S
C258 C256 1.378 . S
C258 C259 1.367 . S
C259 C258 1.367 . S
C259 C261 1.433 . S
C260 C256 1.350 . S
C260 C257 1.463 . S
C260 N264 1.427 . S
C261 H251 0.929 . S
C261 C259 1.433 . S
C261 N264 1.384 . S
C262 H253 0.929 . S
C262 C254 1.378 1_655 S
C262 C257 1.350 . S
C263 H250 0.929 . S
C263 C255 1.433 1_655 S
C263 N265 1.384 . S
N264 C260 1.427 . S
N264 C261 1.384 . S
N265 C257 1.427 . S
N265 C263 1.384 . S
H266 C272 0.930 . S
H267 C276 0.930 . S
H268 C281 0.929 . S
H269 C279 0.929 . S
H270 C274 0.929 . S
H271 C280 0.929 . S
C272 H266 0.930 . S
C272 C273 1.367 . S
C272 C280 1.378 . S
C273 C272 1.367 . S
C273 C281 1.433 . S
C274 H270 0.929 . S
C274 C276 1.378 . S
C274 C278 1.350 . S
C275 C278 1.463 . S
C275 C280 1.350 . S
C275 N283 1.427 . S
C276 H267 0.930 . S
C276 C274 1.378 . S
C276 C277 1.367 . S
C277 C276 1.367 . S
C277 C279 1.433 . S
C278 C274 1.350 . S
C278 C275 1.463 . S
C278 N282 1.427 . S
C279 H269 0.929 . S
C279 C277 1.433 . S
C279 N282 1.384 . S
C280 H271 0.929 . S
C280 C272 1.378 . S
C280 C275 1.350 . S
C281 H268 0.929 . S
C281 C273 1.433 . S
C281 N283 1.384 . S
N282 C278 1.427 . S
N282 C279 1.384 . S
N283 C275 1.427 . S
N283 C281 1.384 . S
H284 C290 0.930 . S
H285 C294 0.930 . S
H286 C299 0.929 1_655 S
H287 C297 0.929 . S
H288 C292 0.929 . S
H289 C298 0.929 . S
C290 H284 0.930 . S
C290 C291 1.367 . S
C290 C298 1.378 1_655 S
C291 C290 1.367 . S
C291 C299 1.433 1_655 S
C292 H288 0.929 . S
C292 C294 1.378 . S
C292 C296 1.350 . S
C293 C296 1.463 . S
C293 C298 1.350 . S
C293 N301 1.427 . S
C294 H285 0.930 . S
C294 C292 1.378 . S
C294 C295 1.367 . S
C295 C294 1.367 . S
C295 C297 1.433 . S
C296 C292 1.350 . S
C296 C293 1.463 . S
C296 N300 1.427 . S
C297 H287 0.929 . S
C297 C295 1.433 . S
C297 N300 1.384 . S
C298 H289 0.929 . S
C298 C290 1.378 1_455 S
C298 C293 1.350 . S
C299 H286 0.929 1_455 S
C299 C291 1.433 1_455 S
C299 N301 1.384 . S
N300 C296 1.427 . S
N300 C297 1.384 . S
N301 C293 1.427 . S
N301 C299 1.384 . S
H302 C308 0.930 . S
H303 C312 0.930 . S
H304 C317 0.929 . S
H305 C315 0.929 . S
H306 C310 0.929 . S
H307 C316 0.929 . S
C308 H302 0.930 . S
C308 C309 1.367 . S
C308 C316 1.378 . S
C309 C308 1.367 . S
C309 C317 1.433 . S
C310 H306 0.929 . S
C310 C312 1.378 . S
C310 C314 1.350 . S
C311 C314 1.463 . S
C311 C316 1.350 . S
C311 N319 1.427 . S
C312 H303 0.930 . S
C312 C310 1.378 . S
C312 C313 1.367 . S
C313 C312 1.367 . S
C313 C315 1.433 . S
C314 C310 1.350 . S
C314 C311 1.463 . S
C314 N318 1.427 . S
C315 H305 0.929 . S
C315 C313 1.433 . S
C315 N318 1.384 . S
C316 H307 0.929 . S
C316 C308 1.378 . S
C316 C311 1.350 . S
C317 H304 0.929 . S
C317 C309 1.433 . S
C317 N319 1.384 . S
N318 C314 1.427 . S
N318 C315 1.384 . S
N319 C311 1.427 . S
N319 C317 1.384 . S
H320 C326 0.930 . S
H321 C330 0.930 . S
H322 C335 0.929 . S
H323 C333 0.929 . S
H324 C328 0.929 . S
H325 C334 0.929 . S
C326 H320 0.930 . S
C326 C327 1.367 . S
C326 C334 1.378 . S
C327 C326 1.367 . S
C327 C335 1.433 1_545 S
C328 H324 0.929 . S
C328 C330 1.378 . S
C328 C332 1.350 . S
C329 C332 1.463 1_444 S
C329 C334 1.350 . S
C329 N337 1.427 1_545 S
C330 H321 0.930 . S
C330 C328 1.378 . S
C330 C331 1.367 . S
C331 C330 1.367 . S
C331 C333 1.433 1_565 S
C332 C328 1.350 . S
C332 C329 1.463 1_666 S
C332 N336 1.427 1_565 S
C333 H323 0.929 . S
C333 C331 1.433 1_545 S
C333 N336 1.384 . S
C334 H325 0.929 . S
C334 C326 1.378 . S
C334 C329 1.350 . S
C335 H322 0.929 . S
C335 C327 1.433 1_565 S
C335 N337 1.384 . S
N336 C332 1.427 1_545 S
N336 C333 1.384 . S
N337 C329 1.427 1_565 S
N337 C335 1.384 . S
H338 C344 0.930 . S
H339 C348 0.930 . S
H340 C353 0.929 . S
H341 C351 0.929 . S
H342 C346 0.923 1_565 S
H343 C352 0.928 1_545 S
C344 H338 0.930 . S
C344 C345 1.367 . S
C344 C352 1.378 . S
C345 C344 1.367 . S
C345 C353 1.433 . S
C346 H342 0.923 1_545 S
C346 C348 1.378 . S
C346 C350 1.350 . S
C347 C350 1.463 1_564 S
C347 C352 1.350 . S
C347 N355 1.427 . S
C348 H339 0.930 . S
C348 C346 1.378 . S
C348 C349 1.367 . S
C349 C348 1.367 . S
C349 C351 1.433 . S
C350 C346 1.350 . S
C350 C347 1.463 1_546 S
C350 N354 1.427 . S
C351 H341 0.929 . S
C351 C349 1.433 . S
C351 N354 1.384 . S
C352 H343 0.928 1_565 S
C352 C344 1.378 . S
C352 C347 1.350 . S
C353 H340 0.929 . S
C353 C345 1.433 . S
C353 N355 1.384 . S
N354 C350 1.427 . S
N354 C351 1.384 . S
N355 C347 1.427 . S
N355 C353 1.384 . S
H356 C362 0.930 . S
H357 C366 0.930 . S
H358 C371 0.929 . S
H359 C369 0.929 . S
H360 C364 0.929 . S
H361 C370 0.929 . S
C362 H356 0.930 . S
C362 C363 1.367 . S
C362 C370 1.378 . S
C363 C362 1.367 . S
C363 C371 1.433 . S
C364 H360 0.929 . S
C364 C366 1.378 . S
C364 C368 1.350 . S
C365 C368 1.463 . S
C365 C370 1.350 . S
C365 N373 1.427 . S
C366 H357 0.930 . S
C366 C364 1.378 . S
C366 C367 1.367 . S
C367 C366 1.367 . S
C367 C369 1.433 . S
C368 C364 1.350 . S
C368 C365 1.463 . S
C368 N372 1.427 . S
C369 H359 0.929 . S
C369 C367 1.433 . S
C369 N372 1.384 . S
C370 H361 0.929 . S
C370 C362 1.378 . S
C370 C365 1.350 . S
C371 H358 0.929 . S
C371 C363 1.433 . S
C371 N373 1.384 . S
N372 C368 1.427 . S
N372 C369 1.384 . S
N373 C365 1.427 . S
N373 C371 1.384 . S
H374 C380 0.930 . S
H375 C384 0.930 . S
H376 C389 0.929 . S
H377 C387 0.929 . S
H378 C382 0.929 . S
H379 C388 0.929 . S
C380 H374 0.930 . S
C380 C381 1.367 . S
C380 C388 1.378 . S
C381 C380 1.367 . S
C381 C389 1.433 . S
C382 H378 0.929 . S
C382 C384 1.378 . S
C382 C386 1.350 . S
C383 C386 1.463 1_455 S
C383 C388 1.350 . S
C383 N391 1.427 . S
C384 H375 0.930 . S
C384 C382 1.378 . S
C384 C385 1.367 . S
C385 C384 1.367 . S
C385 C387 1.433 . S
C386 C382 1.350 . S
C386 C383 1.463 1_655 S
C386 N390 1.427 . S
C387 H377 0.929 . S
C387 C385 1.433 . S
C387 N390 1.384 . S
C388 H379 0.929 . S
C388 C380 1.378 . S
C388 C383 1.350 . S
C389 H376 0.929 . S
C389 C381 1.433 . S
C389 N391 1.384 . S
N390 C386 1.427 . S
N390 C387 1.384 . S
N391 C383 1.427 . S
N391 C389 1.384 . S
H392 C398 0.930 . S
H393 C402 0.930 . S
H394 C407 0.929 . S
H395 C405 0.929 . S
H396 C400 0.929 . S
H397 C406 0.929 . S
C398 H392 0.930 . S
C398 C399 1.367 . S
C398 C406 1.378 . S
C399 C398 1.367 . S
C399 C407 1.433 . S
C400 H396 0.929 . S
C400 C402 1.378 . S
C400 C404 1.350 . S
C401 C404 1.463 1_556 S
C401 C406 1.350 . S
C401 N409 1.427 . S
C402 H393 0.930 . S
C402 C400 1.378 . S
C402 C403 1.367 . S
C403 C402 1.367 . S
C403 C405 1.433 . S
C404 C400 1.350 . S
C404 C401 1.463 1_554 S
C404 N408 1.427 . S
C405 H395 0.929 . S
C405 C403 1.433 . S
C405 N408 1.384 . S
C406 H397 0.929 . S
C406 C398 1.378 . S
C406 C401 1.350 . S
C407 H394 0.929 . S
C407 C399 1.433 . S
C407 N409 1.384 . S
N408 C404 1.427 . S
N408 C405 1.384 . S
N409 C401 1.427 . S
N409 C407 1.384 . S
H410 C416 0.930 . S
H411 C420 0.930 . S
H412 C425 0.929 . S
H413 C423 0.929 . S
H414 C418 0.929 1_556 S
H415 C424 0.929 1_554 S
C416 H410 0.930 . S
C416 C417 1.367 . S
C416 C424 1.378 . S
C417 C416 1.367 . S
C417 C425 1.433 . S
C418 H414 0.929 1_554 S
C418 C420 1.378 . S
C418 C422 1.350 . S
C419 C422 1.463 1_556 S
C419 C424 1.350 . S
C419 N427 1.427 . S
C420 H411 0.930 . S
C420 C418 1.378 . S
C420 C421 1.367 . S
C421 C420 1.367 . S
C421 C423 1.433 . S
C422 C418 1.350 . S
C422 C419 1.463 1_554 S
C422 N426 1.427 . S
C423 H413 0.929 . S
C423 C421 1.433 . S
C423 N426 1.384 . S
C424 H415 0.929 1_556 S
C424 C416 1.378 . S
C424 C419 1.350 . S
C425 H412 0.929 . S
C425 C417 1.433 . S
C425 N427 1.384 . S
N426 C422 1.427 . S
N426 C423 1.384 . S
N427 C419 1.427 . S
N427 C425 1.384 . S
H428 C434 0.930 . S
H429 C438 0.930 . S
H430 C443 0.929 . S
H431 C441 0.929 . S
H432 C436 0.929 . S
H433 C442 0.929 . S
C434 H428 0.930 . S
C434 C435 1.367 . S
C434 C442 1.378 . S
C435 C434 1.367 . S
C435 C443 1.433 . S
C436 H432 0.929 . S
C436 C438 1.378 . S
C436 C440 1.350 . S
C437 C440 1.463 . S
C437 C442 1.350 . S
C437 N445 1.427 . S
C438 H429 0.930 . S
C438 C436 1.378 . S
C438 C439 1.367 . S
C439 C438 1.367 . S
C439 C441 1.433 . S
C440 C436 1.350 . S
C440 C437 1.463 . S
C440 N444 1.427 . S
C441 H431 0.929 . S
C441 C439 1.433 . S
C441 N444 1.384 . S
C442 H433 0.929 . S
C442 C434 1.378 . S
C442 C437 1.350 . S
C443 H430 0.929 . S
C443 C435 1.433 . S
C443 N445 1.384 . S
N444 C440 1.427 . S
N444 C441 1.384 . S
N445 C437 1.427 . S
N445 C443 1.384 . S
H446 C452 0.930 . S
H447 C456 0.930 . S
H448 C461 0.929 . S
H449 C459 0.929 . S
H450 C454 0.929 . S
H451 C460 0.929 . S
C452 H446 0.930 . S
C452 C453 1.367 . S
C452 C460 1.378 . S
C453 C452 1.367 . S
C453 C461 1.433 . S
C454 H450 0.929 . S
C454 C456 1.378 . S
C454 C458 1.350 . S
C455 C458 1.463 . S
C455 C460 1.350 . S
C455 N463 1.427 . S
C456 H447 0.930 . S
C456 C454 1.378 . S
C456 C457 1.367 . S
C457 C456 1.367 . S
C457 C459 1.433 . S
C458 C454 1.350 . S
C458 C455 1.463 . S
C458 N462 1.427 . S
C459 H449 0.929 . S
C459 C457 1.433 . S
C459 N462 1.384 . S
C460 H451 0.929 . S
C460 C452 1.378 . S
C460 C455 1.350 . S
C461 H448 0.929 . S
C461 C453 1.433 . S
C461 N463 1.384 . S
N462 C458 1.427 . S
N462 C459 1.384 . S
N463 C455 1.427 . S
N463 C461 1.384 . S
H464 C470 0.930 . S
H465 C474 0.930 . S
H466 C479 0.929 . S
H467 C477 0.929 . S
H468 C472 0.929 . S
H469 C478 0.929 . S
C470 H464 0.930 . S
C470 C471 1.367 . S
C470 C478 1.378 . S
C471 C470 1.367 . S
C471 C479 1.433 . S
C472 H468 0.929 . S
C472 C474 1.378 . S
C472 C476 1.350 . S
C473 C476 1.463 . S
C473 C478 1.350 . S
C473 N481 1.427 . S
C474 H465 0.930 . S
C474 C472 1.378 . S
C474 C475 1.367 . S
C475 C474 1.367 . S
C475 C477 1.433 . S
C476 C472 1.350 . S
C476 C473 1.463 . S
C476 N480 1.427 . S
C477 H467 0.929 . S
C477 C475 1.433 . S
C477 N480 1.384 . S
C478 H469 0.929 . S
C478 C470 1.378 . S
C478 C473 1.350 . S
C479 H466 0.929 . S
C479 C471 1.433 . S
C479 N481 1.384 . S
N480 C476 1.427 . S
N480 C477 1.384 . S
N481 C473 1.427 . S
N481 C479 1.384 . S
H482 C488 0.930 . S
H483 C492 0.930 . S
H484 C497 0.929 . S
H485 C495 0.929 . S
H486 C490 0.929 . S
H487 C496 0.929 . S
C488 H482 0.930 . S
C488 C489 1.367 . S
C488 C496 1.378 . S
C489 C488 1.367 . S
C489 C497 1.433 . S
C490 H486 0.929 . S
C490 C492 1.378 . S
C490 C494 1.350 . S
C491 C494 1.463 . S
C491 C496 1.350 . S
C491 N499 1.427 . S
C492 H483 0.930 . S
C492 C490 1.378 . S
C492 C493 1.367 . S
C493 C492 1.367 . S
C493 C495 1.433 . S
C494 C490 1.350 . S
C494 C491 1.463 . S
C494 N498 1.427 . S
C495 H485 0.929 . S
C495 C493 1.433 . S
C495 N498 1.384 . S
C496 H487 0.929 . S
C496 C488 1.378 . S
C496 C491 1.350 . S
C497 H484 0.929 . S
C497 C489 1.433 . S
C497 N499 1.384 . S
N498 C494 1.427 . S
N498 C495 1.384 . S
N499 C491 1.427 . S
N499 C497 1.384 . S
H500 C506 0.930 . S
H501 C510 0.930 . S
H502 C515 0.929 . S
H503 C513 0.929 . S
H504 C508 0.929 . S
H505 C514 0.929 . S
C506 H500 0.930 . S
C506 C507 1.367 . S
C506 C514 1.378 . S
C507 C506 1.367 . S
C507 C515 1.433 . S
C508 H504 0.929 . S
C508 C510 1.378 . S
C508 C512 1.350 . S
C509 C512 1.463 1_556 S
C509 C514 1.350 . S
C509 N517 1.427 . S
C510 H501 0.930 . S
C510 C508 1.378 . S
C510 C511 1.367 . S
C511 C510 1.367 . S
C511 C513 1.433 . S
C512 C508 1.350 . S
C512 C509 1.463 1_554 S
C512 N516 1.427 . S
C513 H503 0.929 . S
C513 C511 1.433 . S
C513 N516 1.384 . S
C514 H505 0.929 . S
C514 C506 1.378 . S
C514 C509 1.350 . S
C515 H502 0.929 . S
C515 C507 1.433 . S
C515 N517 1.384 . S
N516 C512 1.427 . S
N516 C513 1.384 . S
N517 C509 1.427 . S
N517 C515 1.384 . S
H518 C524 0.930 . S
H519 C528 0.930 . S
H520 C533 0.929 . S
H521 C531 0.929 . S
H522 C526 0.929 . S
H523 C532 0.929 . S
C524 H518 0.930 . S
C524 C525 1.367 . S
C524 C532 1.378 . S
C525 C524 1.367 . S
C525 C533 1.433 . S
C526 H522 0.929 . S
C526 C528 1.378 . S
C526 C530 1.350 . S
C527 C530 1.463 1_556 S
C527 C532 1.350 . S
C527 N535 1.427 . S
C528 H519 0.930 . S
C528 C526 1.378 . S
C528 C529 1.367 . S
C529 C528 1.367 . S
C529 C531 1.433 . S
C530 C526 1.350 . S
C530 C527 1.463 1_554 S
C530 N534 1.427 . S
C531 H521 0.929 . S
C531 C529 1.433 . S
C531 N534 1.384 . S
C532 H523 0.929 . S
C532 C524 1.378 . S
C532 C527 1.350 . S
C533 H520 0.929 . S
C533 C525 1.433 . S
C533 N535 1.384 . S
N534 C530 1.427 . S
N534 C531 1.384 . S
N535 C527 1.427 . S
N535 C533 1.384 . S
H536 C542 0.930 . S
H537 C546 0.930 . S
H538 C551 0.929 . S
H539 C549 0.929 . S
H540 C544 0.929 . S
H541 C550 0.929 . S
C542 H536 0.930 . S
C542 C543 1.367 . S
C542 C550 1.378 . S
C543 C542 1.367 . S
C543 C551 1.433 . S
C544 H540 0.929 . S
C544 C546 1.378 . S
C544 C548 1.350 . S
C545 C548 1.463 . S
C545 C550 1.350 . S
C545 N553 1.427 . S
C546 H537 0.930 . S
C546 C544 1.378 . S
C546 C547 1.367 . S
C547 C546 1.367 . S
C547 C549 1.433 . S
C548 C544 1.350 . S
C548 C545 1.463 . S
C548 N552 1.427 . S
C549 H539 0.929 . S
C549 C547 1.433 . S
C549 N552 1.384 . S
C550 H541 0.929 . S
C550 C542 1.378 . S
C550 C545 1.350 . S
C551 H538 0.929 . S
C551 C543 1.433 . S
C551 N553 1.384 . S
N552 C548 1.427 . S
N552 C549 1.384 . S
N553 C545 1.427 . S
N553 C551 1.384 . S
H554 C560 0.930 . S
H555 C564 0.930 . S
H556 C569 0.929 . S
H557 C567 0.929 . S
H558 C562 0.929 . S
H559 C568 0.929 . S
C560 H554 0.930 . S
C560 C561 1.367 . S
C560 C568 1.378 . S
C561 C560 1.367 . S
C561 C569 1.433 . S
C562 H558 0.929 . S
C562 C564 1.378 . S
C562 C566 1.350 . S
C563 C566 1.463 . S
C563 C568 1.350 . S
C563 N571 1.427 . S
C564 H555 0.930 . S
C564 C562 1.378 . S
C564 C565 1.367 . S
C565 C564 1.367 . S
C565 C567 1.433 . S
C566 C562 1.350 . S
C566 C563 1.463 . S
C566 N570 1.427 . S
C567 H557 0.929 . S
C567 C565 1.433 . S
C567 N570 1.384 . S
C568 H559 0.929 . S
C568 C560 1.378 . S
C568 C563 1.350 . S
C569 H556 0.929 . S
C569 C561 1.433 . S
C569 N571 1.384 . S
N570 C566 1.427 . S
N570 C567 1.384 . S
N571 C563 1.427 . S
N571 C569 1.384 . S
H572 C578 0.930 . S
H573 C582 0.930 . S
H574 C587 0.929 . S
H575 C585 0.929 . S
H576 C580 0.929 . S
H577 C586 0.929 . S
C578 H572 0.930 . S
C578 C579 1.367 . S
C578 C586 1.378 . S
C579 C578 1.367 . S
C579 C587 1.433 . S
C580 H576 0.929 . S
C580 C582 1.378 . S
C580 C584 1.350 . S
C581 C584 1.463 . S
C581 C586 1.350 . S
C581 N589 1.427 . S
C582 H573 0.930 . S
C582 C580 1.378 . S
C582 C583 1.367 . S
C583 C582 1.367 . S
C583 C585 1.433 . S
C584 C580 1.350 . S
C584 C581 1.463 . S
C584 N588 1.427 . S
C585 H575 0.929 . S
C585 C583 1.433 . S
C585 N588 1.384 . S
C586 H577 0.929 . S
C586 C578 1.378 . S
C586 C581 1.350 . S
C587 H574 0.929 . S
C587 C579 1.433 . S
C587 N589 1.384 . S
N588 C584 1.427 . S
N588 C585 1.384 . S
N589 C581 1.427 . S
N589 C587 1.384 . S
H590 C596 0.930 . S
H591 C600 0.930 . S
H592 C605 0.929 . S
H593 C603 0.929 . S
H594 C598 0.929 . S
H595 C604 0.929 . S
C596 H590 0.930 . S
C596 C597 1.367 . S
C596 C604 1.378 . S
C597 C596 1.367 . S
C597 C605 1.433 . S
C598 H594 0.929 . S
C598 C600 1.378 . S
C598 C602 1.350 . S
C599 C602 1.463 . S
C599 C604 1.350 . S
C599 N607 1.427 . S
C600 H591 0.930 . S
C600 C598 1.378 . S
C600 C601 1.367 . S
C601 C600 1.367 . S
C601 C603 1.433 . S
C602 C598 1.350 . S
C602 C599 1.463 . S
C602 N606 1.427 . S
C603 H593 0.929 . S
C603 C601 1.433 . S
C603 N606 1.384 . S
C604 H595 0.929 . S
C604 C596 1.378 . S
C604 C599 1.350 . S
C605 H592 0.929 . S
C605 C597 1.433 . S
C605 N607 1.384 . S
N606 C602 1.427 . S
N606 C603 1.384 . S
N607 C599 1.427 . S
N607 C605 1.384 . S
C183 C76 1.328 . S
C187 C21 1.396 . S
C201 C52 1.340 . S
C205 C37 1.395 . S
C219 C51 1.412 . S
C223 C30 1.348 . S
C237 C87 1.408 . S
C241 C18 1.363 . S
C255 C164 1.328 . S
C259 C103 1.397 . S
C273 C125 1.393 . S
C277 C140 1.345 . S
C291 C118 1.347 . S
C295 C139 1.411 . S
C309 C96 1.360 . S
C313 C175 1.408 . S
C327 C7 1.144 . S
C331 C65 1.136 . S
C345 C81 1.141 . S
C349 C43 1.148 . S
C363 C109 1.149 . S
C367 C153 1.141 . S
C381 C169 1.149 . S
C385 C131 1.156 . S
C399 C29 0.993 . S
C403 C15 0.987 . S
C417 C59 0.987 . S
C421 C73 0.985 . S
C435 C117 0.993 . S
C439 C95 0.987 . S
C453 C161 0.992 . S
C457 C147 0.991 . S
C471 C8 1.357 . S
C475 C32 1.356 . S
C489 C62 1.379 . S
C493 C74 1.379 . S
C507 C98 1.358 . S
C511 C120 1.356 . S
C525 C162 1.379 . S
C529 C150 1.379 . S
C543 C10 1.659 . S
C547 C142 1.672 . S
C561 C40 1.655 . S
C565 C172 1.668 . S
C579 C106 1.660 . S
C583 C54 1.673 . S
C597 C128 1.655 . S
C601 C84 1.669 . S
