# Generated by pormake.
# Topology why, (6)-cn, num edge types: 1
# Building blocks:
#     Node 0, Type 0, BuildingBlock: FUNLAD_clean_sbu_0, # of connection points: 6
#     Node 1, Type 0, BuildingBlock: FUNLAD_clean_sbu_0, # of connection points: 6
#     Node 2, Type 0, BuildingBlock: FUNLAD_clean_sbu_0, # of connection points: 6
#     Node 3, Type 0, BuildingBlock: FUNLAD_clean_sbu_0, # of connection points: 6
#     Node 4, Type 0, BuildingBlock: FUNLAD_clean_sbu_0, # of connection points: 6
#     Node 5, Type 0, BuildingBlock: FUNLAD_clean_sbu_0, # of connection points: 6
#     Node 6, Type 0, BuildingBlock: FUNLAD_clean_sbu_0, # of connection points: 6
#     Node 7, Type 0, BuildingBlock: FUNLAD_clean_sbu_0, # of connection points: 6
#     Node 8, Type 0, BuildingBlock: FUNLAD_clean_sbu_0, # of connection points: 6
#     Node 9, Type 0, BuildingBlock: FUNLAD_clean_sbu_0, # of connection points: 6
#     Node 10, Type 0, BuildingBlock: FUNLAD_clean_sbu_0, # of connection points: 6
#     Node 11, Type 0, BuildingBlock: FUNLAD_clean_sbu_0, # of connection points: 6
#     Node 12, Type 0, BuildingBlock: FUNLAD_clean_sbu_0, # of connection points: 6
#     Node 13, Type 0, BuildingBlock: FUNLAD_clean_sbu_0, # of connection points: 6
#     Node 14, Type 0, BuildingBlock: FUNLAD_clean_sbu_0, # of connection points: 6
#     Node 15, Type 0, BuildingBlock: FUNLAD_clean_sbu_0, # of connection points: 6
#     Edge 16, Type (0, 0), BuildingBlock: CIFDUS_clean_linker_0, # of connection points: 2
#     Edge 17, Type (0, 0), BuildingBlock: CIFDUS_clean_linker_0, # of connection points: 2
#     Edge 18, Type (0, 0), BuildingBlock: CIFDUS_clean_linker_0, # of connection points: 2
#     Edge 19, Type (0, 0), BuildingBlock: CIFDUS_clean_linker_0, # of connection points: 2
#     Edge 20, Type (0, 0), BuildingBlock: CIFDUS_clean_linker_0, # of connection points: 2
#     Edge 21, Type (0, 0), BuildingBlock: CIFDUS_clean_linker_0, # of connection points: 2
#     Edge 22, Type (0, 0), BuildingBlock: CIFDUS_clean_linker_0, # of connection points: 2
#     Edge 23, Type (0, 0), BuildingBlock: CIFDUS_clean_linker_0, # of connection points: 2
#     Edge 24, Type (0, 0), BuildingBlock: CIFDUS_clean_linker_0, # of connection points: 2
#     Edge 25, Type (0, 0), BuildingBlock: CIFDUS_clean_linker_0, # of connection points: 2
#     Edge 26, Type (0, 0), BuildingBlock: CIFDUS_clean_linker_0, # of connection points: 2
#     Edge 27, Type (0, 0), BuildingBlock: CIFDUS_clean_linker_0, # of connection points: 2
#     Edge 28, Type (0, 0), BuildingBlock: CIFDUS_clean_linker_0, # of connection points: 2
#     Edge 29, Type (0, 0), BuildingBlock: CIFDUS_clean_linker_0, # of connection points: 2
#     Edge 30, Type (0, 0), BuildingBlock: CIFDUS_clean_linker_0, # of connection points: 2
#     Edge 31, Type (0, 0), BuildingBlock: CIFDUS_clean_linker_0, # of connection points: 2
#     Edge 32, Type (0, 0), BuildingBlock: CIFDUS_clean_linker_0, # of connection points: 2
#     Edge 33, Type (0, 0), BuildingBlock: CIFDUS_clean_linker_0, # of connection points: 2
#     Edge 34, Type (0, 0), BuildingBlock: CIFDUS_clean_linker_0, # of connection points: 2
#     Edge 35, Type (0, 0), BuildingBlock: CIFDUS_clean_linker_0, # of connection points: 2
#     Edge 36, Type (0, 0), BuildingBlock: CIFDUS_clean_linker_0, # of connection points: 2
#     Edge 37, Type (0, 0), BuildingBlock: CIFDUS_clean_linker_0, # of connection points: 2
#     Edge 38, Type (0, 0), BuildingBlock: CIFDUS_clean_linker_0, # of connection points: 2
#     Edge 39, Type (0, 0), BuildingBlock: CIFDUS_clean_linker_0, # of connection points: 2
#     Edge 40, Type (0, 0), BuildingBlock: CIFDUS_clean_linker_0, # of connection points: 2
#     Edge 41, Type (0, 0), BuildingBlock: CIFDUS_clean_linker_0, # of connection points: 2
#     Edge 42, Type (0, 0), BuildingBlock: CIFDUS_clean_linker_0, # of connection points: 2
#     Edge 43, Type (0, 0), BuildingBlock: CIFDUS_clean_linker_0, # of connection points: 2
#     Edge 44, Type (0, 0), BuildingBlock: CIFDUS_clean_linker_0, # of connection points: 2
#     Edge 45, Type (0, 0), BuildingBlock: CIFDUS_clean_linker_0, # of connection points: 2
#     Edge 46, Type (0, 0), BuildingBlock: CIFDUS_clean_linker_0, # of connection points: 2
#     Edge 47, Type (0, 0), BuildingBlock: CIFDUS_clean_linker_0, # of connection points: 2
#     Edge 48, Type (0, 0), BuildingBlock: CIFDUS_clean_linker_0, # of connection points: 2
#     Edge 49, Type (0, 0), BuildingBlock: CIFDUS_clean_linker_0, # of connection points: 2
#     Edge 50, Type (0, 0), BuildingBlock: CIFDUS_clean_linker_0, # of connection points: 2
#     Edge 51, Type (0, 0), BuildingBlock: CIFDUS_clean_linker_0, # of connection points: 2
#     Edge 52, Type (0, 0), BuildingBlock: CIFDUS_clean_linker_0, # of connection points: 2
#     Edge 53, Type (0, 0), BuildingBlock: CIFDUS_clean_linker_0, # of connection points: 2
#     Edge 54, Type (0, 0), BuildingBlock: CIFDUS_clean_linker_0, # of connection points: 2
#     Edge 55, Type (0, 0), BuildingBlock: CIFDUS_clean_linker_0, # of connection points: 2
#     Edge 56, Type (0, 0), BuildingBlock: CIFDUS_clean_linker_0, # of connection points: 2
#     Edge 57, Type (0, 0), BuildingBlock: CIFDUS_clean_linker_0, # of connection points: 2
#     Edge 58, Type (0, 0), BuildingBlock: CIFDUS_clean_linker_0, # of connection points: 2
#     Edge 59, Type (0, 0), BuildingBlock: CIFDUS_clean_linker_0, # of connection points: 2
#     Edge 60, Type (0, 0), BuildingBlock: CIFDUS_clean_linker_0, # of connection points: 2
#     Edge 61, Type (0, 0), BuildingBlock: CIFDUS_clean_linker_0, # of connection points: 2
#     Edge 62, Type (0, 0), BuildingBlock: CIFDUS_clean_linker_0, # of connection points: 2
#     Edge 63, Type (0, 0), BuildingBlock: CIFDUS_clean_linker_0, # of connection points: 2
# Relax obj value: 0.466
# Max RMSD: 0.187
# Mean RMSD: 0.187
data_MOF--net-why--node1-FUNLAD_clean_sbu_0--edge1-CIFDUS_clean_linker_0
_symmetry_space_group_name_H-M    P1
_symmetry_Int_Tables_number       1
_symmetry_cell_setting            triclinic
loop_
_symmetry_equiv_pos_as_xyz
'x, y, z'
_cell_length_a     44.634667
_cell_length_b     44.669321
_cell_length_c     28.01864
_cell_angle_alpha  90.053146
_cell_angle_beta   90.001067
_cell_angle_gamma 90.259736
loop_
_atom_site_label
_atom_site_type_symbol
_atom_site_fract_x
_atom_site_fract_y
_atom_site_fract_z
_atom_type_partial_charge
C0 C 0.32191 0.2331 0.17611 0.0
N1 N 0.36711 0.15083 0.17188 0.0
C2 C 0.37553 0.15557 0.218 0.0
C3 C 0.38264 0.13136 0.24734 0.0
C4 C 0.38141 0.10236 0.22845 0.0
C5 C 0.37194 0.09803 0.18133 0.0
C6 C 0.3646 0.12271 0.15359 0.0
Zn7 Zn 0.35978 0.18585 0.1275 0.0
C8 C 0.30225 0.17945 0.07596 0.0
N9 N 0.34408 0.25948 0.03307 0.0
C10 C 0.35704 0.28686 0.03928 0.0
C11 C 0.33301 0.25114 0.98967 0.0
C12 C 0.3367 0.26952 0.94988 0.0
C13 C 0.35233 0.29667 0.95433 0.0
C14 C 0.36151 0.30587 0.00012 0.0
Zn15 Zn 0.34999 0.22558 0.08227 0.0
O16 O 0.33567 0.20847 0.18185 0.0
C17 C 0.40939 0.23069 0.13218 0.0
O18 O 0.32515 0.24754 0.13714 0.0
H19 H 0.32361 0.22905 0.98463 0.0
H20 H 0.37741 0.17815 0.23165 0.0
H21 H 0.36592 0.29312 0.07379 0.0
O22 O 0.40125 0.20538 0.14841 0.0
O23 O 0.39169 0.24508 0.10505 0.0
H24 H 0.35757 0.11943 0.11703 0.0
O25 O 0.37288 0.20208 0.02751 0.0
O26 O 0.38218 0.16325 0.07247 0.0
O27 O 0.30959 0.20526 0.06098 0.0
O28 O 0.31925 0.16584 0.10493 0.0
C29 C 0.38351 0.17595 0.03213 0.0
H30 H 0.39009 0.13527 0.28362 0.0
H31 H 0.37075 0.07578 0.16594 0.0
H32 H 0.32962 0.26131 0.91527 0.0
H33 H 0.37343 0.3268 0.00517 0.0
C34 C 0.51879 0.5755 0.42583 0.0
N35 N 0.60546 0.61451 0.41301 0.0
C36 C 0.6034 0.62451 0.45877 0.0
C37 C 0.62918 0.6282 0.48637 0.0
C38 C 0.65719 0.62103 0.46686 0.0
C39 C 0.65861 0.60987 0.42014 0.0
C40 C 0.63233 0.607 0.39353 0.0
Zn41 Zn 0.56765 0.61136 0.37259 0.0
C42 C 0.56575 0.55509 0.31894 0.0
N43 N 0.48746 0.604 0.29173 0.0
C44 C 0.46111 0.61741 0.30315 0.0
C45 C 0.49303 0.59448 0.24647 0.0
C46 C 0.47309 0.6008 0.20977 0.0
C47 C 0.44695 0.61706 0.2195 0.0
C48 C 0.44032 0.62409 0.26733 0.0
Zn49 Zn 0.52396 0.6064 0.33566 0.0
O50 O 0.54569 0.58532 0.42805 0.0
C51 C 0.52752 0.66471 0.38779 0.0
O52 O 0.50218 0.58355 0.39128 0.0
H53 H 0.51432 0.58448 0.23766 0.0
H54 H 0.58177 0.6301 0.47362 0.0
H55 H 0.45717 0.62495 0.33929 0.0
O56 O 0.55242 0.65325 0.39989 0.0
O57 O 0.50973 0.64949 0.36174 0.0
H58 H 0.63349 0.59927 0.357 0.0
O59 O 0.54625 0.62819 0.27926 0.0
O60 O 0.58922 0.63489 0.31519 0.0
O61 O 0.53925 0.56384 0.31021 0.0
O62 O 0.58291 0.57125 0.34418 0.0
C63 C 0.57298 0.63782 0.27824 0.0
H64 H 0.62732 0.63687 0.52236 0.0
H65 H 0.67991 0.60455 0.40375 0.0
H66 H 0.47957 0.59527 0.1736 0.0
H67 H 0.42018 0.63619 0.27662 0.0
C68 C 0.17886 0.76613 0.67634 0.0
N69 N 0.13434 0.8485 0.6542 0.0
C70 C 0.12681 0.84644 0.70118 0.0
C71 C 0.1203 0.87219 0.72747 0.0
C72 C 0.12099 0.90016 0.70486 0.0
C73 C 0.12894 0.90172 0.6565 0.0
C74 C 0.13585 0.8755 0.63181 0.0
Zn75 Zn 0.14275 0.81031 0.61636 0.0
C76 C 0.20194 0.81137 0.57009 0.0
N77 N 0.1596 0.72926 0.53791 0.0
C78 C 0.14252 0.70408 0.5429 0.0
C79 C 0.17512 0.73431 0.49668 0.0
C80 C 0.17173 0.71538 0.45746 0.0
C81 C 0.15167 0.69126 0.45993 0.0
C82 C 0.13802 0.68482 0.50399 0.0
Zn83 Zn 0.15257 0.76633 0.58149 0.0
O84 O 0.16592 0.79151 0.67622 0.0
C85 C 0.09222 0.76563 0.62759 0.0
O86 O 0.17538 0.74843 0.64098 0.0
H87 H 0.18782 0.75464 0.49179 0.0
H88 H 0.12552 0.82476 0.71821 0.0
H89 H 0.13025 0.70016 0.57555 0.0
O90 O 0.10033 0.79212 0.63852 0.0
O91 O 0.11028 0.74899 0.60469 0.0
H92 H 0.14218 0.87671 0.59462 0.0
O93 O 0.13142 0.78537 0.52163 0.0
O94 O 0.12163 0.82846 0.55525 0.0
O95 O 0.19392 0.78474 0.56082 0.0
O96 O 0.18434 0.82847 0.5929 0.0
C97 C 0.12079 0.81157 0.51882 0.0
H98 H 0.11402 0.87021 0.76468 0.0
H99 H 0.12985 0.92301 0.63807 0.0
H100 H 0.18241 0.7214 0.42408 0.0
H101 H 0.12252 0.66621 0.50741 0.0
C102 C 0.98402 0.42619 0.92799 0.0
N103 N 0.89779 0.3861 0.91771 0.0
C104 C 0.89864 0.37587 0.96343 0.0
C105 C 0.87218 0.36711 0.98622 0.0
C106 C 0.84506 0.36871 0.96117 0.0
C107 C 0.84461 0.3811 0.91536 0.0
C108 C 0.87139 0.38989 0.89425 0.0
Zn109 Zn 0.93568 0.39012 0.87842 0.0
C110 C 0.93569 0.44603 0.8223 0.0
N111 N 0.01368 0.39725 0.7927 0.0
C112 C 0.04029 0.3849 0.80556 0.0
C113 C 0.00851 0.4062 0.74709 0.0
C114 C 0.02937 0.40042 0.71145 0.0
C115 C 0.05598 0.38533 0.72271 0.0
C116 C 0.06196 0.37879 0.77088 0.0
Zn117 Zn 0.97719 0.39477 0.83617 0.0
O118 O 0.9573 0.41635 0.93279 0.0
C119 C 0.97497 0.3365 0.89019 0.0
O120 O 0.99948 0.41778 0.89223 0.0
H121 H 0.98706 0.41552 0.73735 0.0
H122 H 0.91995 0.37293 0.98115 0.0
H123 H 0.04387 0.37787 0.84204 0.0
O124 O 0.9512 0.34856 0.90595 0.0
O125 O 0.99145 0.35127 0.86143 0.0
H126 H 0.8712 0.39802 0.85793 0.0
O127 O 0.95411 0.37332 0.77924 0.0
O128 O 0.91418 0.36615 0.82277 0.0
O129 O 0.96186 0.43733 0.8112 0.0
O130 O 0.91968 0.43007 0.84966 0.0
C131 C 0.92753 0.36352 0.7831 0.0
H132 H 0.87309 0.35746 0.02164 0.0
H133 H 0.82392 0.38265 0.89531 0.0
H134 H 0.02341 0.40552 0.6749 0.0
H135 H 0.0824 0.36757 0.78129 0.0
C136 C 0.61765 0.82172 0.97055 0.0
N137 N 0.66012 0.74013 0.96694 0.0
C138 C 0.67368 0.74825 0.00863 0.0
C139 C 0.67149 0.73009 0.04896 0.0
C140 C 0.65476 0.70351 0.04676 0.0
C141 C 0.64317 0.69436 0.00238 0.0
C142 C 0.64625 0.71306 0.9626 0.0
Zn143 Zn 0.65193 0.77393 0.91861 0.0
C144 C 0.58941 0.76666 0.87462 0.0
N145 N 0.62906 0.84768 0.83001 0.0
C146 C 0.63618 0.87504 0.84833 0.0
C147 C 0.61764 0.84478 0.78517 0.0
C148 C 0.61289 0.87018 0.75701 0.0
C149 C 0.62071 0.89847 0.77504 0.0
C150 C 0.63252 0.90077 0.82113 0.0
Zn151 Zn 0.63747 0.81161 0.8724 0.0
O152 O 0.63271 0.79797 0.97582 0.0
C153 C 0.69809 0.8197 0.91891 0.0
O154 O 0.61423 0.83256 0.92909 0.0
H155 H 0.61219 0.8228 0.77134 0.0
H156 H 0.68388 0.77011 0.01221 0.0
H157 H 0.64472 0.87703 0.88429 0.0
O158 O 0.69353 0.79321 0.93333 0.0
O159 O 0.67814 0.83281 0.89453 0.0
H160 H 0.63546 0.70699 0.9294 0.0
O161 O 0.66197 0.79063 0.81678 0.0
O162 O 0.67338 0.75147 0.86081 0.0
O163 O 0.59635 0.79028 0.85174 0.0
O164 O 0.6084 0.7554 0.90335 0.0
C165 C 0.67613 0.76615 0.82196 0.0
H166 H 0.68045 0.73817 0.08254 0.0
H167 H 0.63029 0.67385 0.99919 0.0
H168 H 0.60341 0.86782 0.72161 0.0
H169 H 0.63816 0.92238 0.83638 0.0
C170 C 0.43875 0.36758 0.73089 0.0
N171 N 0.52217 0.40703 0.71968 0.0
C172 C 0.51497 0.42028 0.76196 0.0
C173 C 0.53381 0.4177 0.80128 0.0
C174 C 0.56003 0.4008 0.79744 0.0
C175 C 0.56843 0.38977 0.75241 0.0
C176 C 0.54908 0.39334 0.71358 0.0
Zn177 Zn 0.48735 0.39933 0.67345 0.0
C178 C 0.49022 0.33984 0.6276 0.0
N179 N 0.40863 0.38136 0.59152 0.0
C180 C 0.38069 0.38786 0.60793 0.0
C181 C 0.4126 0.36635 0.54968 0.0
C182 C 0.38788 0.35602 0.52376 0.0
C183 C 0.35892 0.3619 0.54052 0.0
C184 C 0.35539 0.37858 0.58253 0.0
Zn185 Zn 0.445 0.3906 0.63374 0.0
O186 O 0.46498 0.3786 0.7312 0.0
C187 C 0.44239 0.44913 0.67976 0.0
O188 O 0.42367 0.36836 0.69244 0.0
H189 H 0.43496 0.36153 0.5371 0.0
H190 H 0.49325 0.43034 0.76696 0.0
H191 H 0.37796 0.39939 0.64158 0.0
O192 O 0.46862 0.44107 0.69129 0.0
O193 O 0.42581 0.43152 0.6558 0.0
H194 H 0.55446 0.38291 0.67984 0.0
O195 O 0.46682 0.41554 0.57671 0.0
O196 O 0.50898 0.42095 0.61672 0.0
O197 O 0.46471 0.34848 0.61294 0.0
O198 O 0.50564 0.35726 0.65381 0.0
C199 C 0.49314 0.42679 0.58015 0.0
H200 H 0.52632 0.42617 0.83549 0.0
H201 H 0.58863 0.37669 0.74814 0.0
H202 H 0.39131 0.34328 0.49131 0.0
H203 H 0.33329 0.38328 0.59658 0.0
C204 C 0.88257 0.17682 0.46585 0.0
N205 N 0.85128 0.26354 0.45926 0.0
C206 C 0.84224 0.25686 0.5044 0.0
C207 C 0.84946 0.27575 0.54225 0.0
C208 C 0.866 0.30204 0.53375 0.0
C209 C 0.8723 0.30992 0.48612 0.0
C210 C 0.86485 0.29012 0.44919 0.0
Zn211 Zn 0.85376 0.22818 0.413 0.0
C212 C 0.91461 0.22628 0.36437 0.0
N213 N 0.86367 0.15097 0.32724 0.0
C214 C 0.85729 0.12365 0.34609 0.0
C215 C 0.8728 0.15413 0.28116 0.0
C216 C 0.87696 0.12891 0.25255 0.0
C217 C 0.87194 0.10049 0.27208 0.0
C218 C 0.86144 0.09793 0.31901 0.0
Zn219 Zn 0.86023 0.18716 0.37004 0.0
O220 O 0.87439 0.2039 0.46885 0.0
C221 C 0.80194 0.18664 0.42191 0.0
O222 O 0.88019 0.16333 0.42624 0.0
H223 H 0.87766 0.17615 0.26705 0.0
H224 H 0.83199 0.23542 0.512 0.0
H225 H 0.84976 0.12171 0.38264 0.0
O226 O 0.81106 0.21211 0.4362 0.0
O227 O 0.81802 0.17171 0.39324 0.0
H228 H 0.87201 0.29494 0.41312 0.0
O229 O 0.83849 0.21072 0.31442 0.0
O230 O 0.83075 0.25121 0.35725 0.0
O231 O 0.90364 0.20184 0.34879 0.0
O232 O 0.89809 0.24322 0.38975 0.0
C233 C 0.82637 0.23627 0.31906 0.0
H234 H 0.84437 0.26834 0.57813 0.0
H235 H 0.88445 0.33027 0.47769 0.0
H236 H 0.88541 0.13147 0.21653 0.0
H237 H 0.8574 0.0762 0.33498 0.0
C238 C 0.06813 0.63622 0.22298 0.0
N239 N 0.98074 0.60882 0.20478 0.0
C240 C 0.98516 0.59853 0.24989 0.0
C241 C 0.9656 0.60621 0.28639 0.0
C242 C 0.94097 0.62468 0.27673 0.0
C243 C 0.9353 0.63267 0.22898 0.0
C244 C 0.9557 0.62453 0.1933 0.0
Zn245 Zn 0.01808 0.60897 0.1624 0.0
C246 C 0.02637 0.66673 0.11196 0.0
N247 N 0.10136 0.61234 0.08896 0.0
C248 C 0.12748 0.60281 0.10877 0.0
C249 C 0.10065 0.62441 0.04441 0.0
C250 C 0.12714 0.62861 0.01885 0.0
C251 C 0.1544 0.61969 0.039 0.0
C252 C 0.15443 0.60604 0.084 0.0
Zn253 Zn 0.06273 0.61083 0.12759 0.0
O254 O 0.04061 0.62934 0.22023 0.0
C255 C 0.05557 0.5546 0.17894 0.0
O256 O 0.08487 0.63165 0.18704 0.0
H257 H 0.07961 0.63158 0.02921 0.0
H258 H 0.0055 0.58682 0.25894 0.0
H259 H 0.12756 0.59347 0.14436 0.0
O260 O 0.03008 0.56583 0.18779 0.0
O261 O 0.07435 0.56924 0.15429 0.0
H262 H 0.95267 0.63272 0.15731 0.0
O263 O 0.04015 0.5873 0.07013 0.0
O264 O 0.99617 0.58742 0.10559 0.0
O265 O 0.05104 0.65416 0.10181 0.0
O266 O 0.00693 0.65236 0.13604 0.0
C267 C 0.01283 0.5787 0.07145 0.0
H268 H 0.97145 0.59988 0.32248 0.0
H269 H 0.91632 0.6465 0.2197 0.0
H270 H 0.12644 0.63923 0.98411 0.0
H271 H 0.1752 0.59923 0.10069 0.0
C272 C 0.82927 0.73902 0.68162 0.0
N273 N 0.87221 0.65549 0.66758 0.0
C274 C 0.88832 0.65854 0.70856 0.0
C275 C 0.89879 0.63329 0.73249 0.0
C276 C 0.89208 0.60476 0.71447 0.0
C277 C 0.87413 0.6022 0.67358 0.0
C278 C 0.86459 0.62801 0.6503 0.0
Zn279 Zn 0.8639 0.69226 0.62693 0.0
C280 C 0.80435 0.69097 0.58009 0.0
N281 N 0.84968 0.76943 0.54025 0.0
C282 C 0.86265 0.79642 0.54969 0.0
C283 C 0.84022 0.76239 0.4954 0.0
C284 C 0.84682 0.78117 0.45711 0.0
C285 C 0.86319 0.80765 0.46486 0.0
C286 C 0.8695 0.81606 0.51229 0.0
Zn287 Zn 0.85526 0.73379 0.58563 0.0
O288 O 0.84283 0.71409 0.68547 0.0
C289 C 0.91581 0.73563 0.63127 0.0
O290 O 0.83223 0.75436 0.64348 0.0
H291 H 0.83046 0.74066 0.48822 0.0
H292 H 0.89403 0.6806 0.72173 0.0
H293 H 0.87012 0.8016 0.58548 0.0
O294 O 0.90751 0.70976 0.6449 0.0
O295 O 0.89767 0.75152 0.60737 0.0
H296 H 0.85214 0.62608 0.61732 0.0
O297 O 0.87639 0.71131 0.52745 0.0
O298 O 0.8829 0.67022 0.56832 0.0
O299 O 0.8137 0.71616 0.56531 0.0
O300 O 0.8209 0.67514 0.60693 0.0
C301 C 0.88495 0.68429 0.52924 0.0
H302 H 0.91239 0.636 0.76425 0.0
H303 H 0.86871 0.58048 0.65856 0.0
H304 H 0.84163 0.77342 0.42141 0.0
H305 H 0.88148 0.83661 0.52017 0.0
C306 C 0.0133 0.07511 0.91999 0.0
N307 N 0.09938 0.11251 0.90325 0.0
C308 C 0.09619 0.12427 0.94776 0.0
C309 C 0.12126 0.13298 0.97384 0.0
C310 C 0.14974 0.12896 0.95417 0.0
C311 C 0.15267 0.115 0.90961 0.0
C312 C 0.12688 0.10705 0.88429 0.0
Zn313 Zn 0.06167 0.10822 0.86375 0.0
C314 C 0.05716 0.05308 0.80996 0.0
N315 N 0.97987 0.10462 0.78747 0.0
C316 C 0.95346 0.11751 0.8 0.0
C317 C 0.98494 0.09528 0.74197 0.0
C318 C 0.9643 0.10109 0.70621 0.0
C319 C 0.938 0.11678 0.71698 0.0
C320 C 0.93198 0.12378 0.76503 0.0
Zn321 Zn 0.01706 0.10684 0.82965 0.0
O322 O 0.0402 0.08476 0.92148 0.0
C323 C 0.0229 0.16409 0.88022 0.0
O324 O 0.99649 0.08292 0.88551 0.0
H325 H 0.00629 0.08586 0.73208 0.0
H326 H 0.07408 0.1283 0.9621 0.0
H327 H 0.94995 0.12494 0.83631 0.0
O328 O 0.04806 0.15185 0.88827 0.0
O329 O 0.003 0.14925 0.85784 0.0
H330 H 0.12878 0.09783 0.84872 0.0
O331 O 0.03812 0.1296 0.77319 0.0
O332 O 0.08301 0.1294 0.8044 0.0
O333 O 0.03201 0.06514 0.80129 0.0
O334 O 0.07549 0.06621 0.83767 0.0
C335 C 0.06577 0.13575 0.76982 0.0
H336 H 0.11844 0.14375 0.00821 0.0
H337 H 0.1745 0.11187 0.89353 0.0
H338 H 0.97044 0.09574 0.66981 0.0
H339 H 0.91178 0.13557 0.77504 0.0
C340 C 0.67206 0.26343 0.18249 0.0
N341 N 0.62386 0.34405 0.16553 0.0
C342 C 0.60808 0.34101 0.20683 0.0
C343 C 0.59736 0.36628 0.23057 0.0
C344 C 0.6035 0.39477 0.21192 0.0
C345 C 0.62058 0.39728 0.17014 0.0
C346 C 0.63038 0.37149 0.14717 0.0
Zn347 Zn 0.63501 0.30741 0.12656 0.0
C348 C 0.69371 0.313 0.08123 0.0
N349 N 0.65459 0.2304 0.04086 0.0
C350 C 0.6403 0.2036 0.04626 0.0
C351 C 0.66828 0.23749 0.9988 0.0
C352 C 0.66571 0.21873 0.95925 0.0
C353 C 0.64835 0.19262 0.96237 0.0
C354 C 0.63669 0.18436 0.00711 0.0
Zn355 Zn 0.64569 0.26588 0.08634 0.0
O356 O 0.65672 0.28734 0.18657 0.0
C357 C 0.58549 0.26135 0.1313 0.0
O358 O 0.67008 0.24793 0.14432 0.0
H359 H 0.67866 0.2591 0.99385 0.0
H360 H 0.60318 0.31895 0.22075 0.0
H361 H 0.62942 0.19819 0.07963 0.0
O362 O 0.59272 0.28784 0.14321 0.0
O363 O 0.60441 0.24538 0.10892 0.0
H364 H 0.64252 0.37341 0.11392 0.0
O365 O 0.62311 0.28504 0.02841 0.0
O366 O 0.61555 0.32755 0.0651 0.0
O367 O 0.68587 0.28751 0.06541 0.0
O368 O 0.67647 0.32695 0.10933 0.0
C369 C 0.61361 0.3117 0.0276 0.0
H370 H 0.58438 0.36364 0.26298 0.0
H371 H 0.62547 0.41896 0.15458 0.0
H372 H 0.67472 0.22617 0.92535 0.0
H373 H 0.62331 0.16422 0.01101 0.0
C374 C 0.49079 0.92322 0.43173 0.0
N375 N 0.40239 0.89138 0.41086 0.0
C376 C 0.40312 0.87983 0.45573 0.0
C377 C 0.37668 0.87604 0.48151 0.0
C378 C 0.34932 0.88453 0.46105 0.0
C379 C 0.34931 0.89761 0.41557 0.0
C380 C 0.37628 0.90069 0.39079 0.0
Zn381 Zn 0.4412 0.89304 0.37298 0.0
C382 C 0.44963 0.95071 0.32504 0.0
N383 N 0.5246 0.89609 0.2973 0.0
C384 C 0.54636 0.87516 0.30362 0.0
C385 C 0.52424 0.91337 0.25725 0.0
C386 C 0.54445 0.90831 0.22036 0.0
C387 C 0.56447 0.88426 0.22324 0.0
C388 C 0.56634 0.86857 0.26665 0.0
Zn389 Zn 0.48629 0.89531 0.33903 0.0
O390 O 0.46347 0.91467 0.43172 0.0
C391 C 0.47661 0.83601 0.38599 0.0
O392 O 0.50797 0.91501 0.39792 0.0
H393 H 0.50691 0.92966 0.25153 0.0
H394 H 0.42418 0.87283 0.47109 0.0
H395 H 0.54694 0.86183 0.33572 0.0
O396 O 0.452 0.84858 0.39664 0.0
O397 O 0.49618 0.85082 0.36289 0.0
H398 H 0.37626 0.90978 0.35503 0.0
O399 O 0.46386 0.87763 0.27923 0.0
O400 O 0.41946 0.874 0.3121 0.0
O401 O 0.4749 0.93899 0.31656 0.0
O402 O 0.43021 0.93608 0.34853 0.0
C403 C 0.43623 0.87115 0.27574 0.0
H404 H 0.3775 0.866 0.51666 0.0
H405 H 0.32855 0.90411 0.39851 0.0
H406 H 0.54289 0.92193 0.18852 0.0
H407 H 0.58146 0.8499 0.271 0.0
C408 C 0.1216 0.32865 0.47505 0.0
N409 N 0.15368 0.24202 0.46478 0.0
C410 C 0.16744 0.24782 0.50724 0.0
C411 C 0.16493 0.22784 0.54515 0.0
C412 C 0.14753 0.2019 0.53983 0.0
C413 C 0.13529 0.19531 0.49477 0.0
C414 C 0.13882 0.21575 0.45735 0.0
Zn415 Zn 0.14876 0.27766 0.41927 0.0
C416 C 0.08711 0.27973 0.37449 0.0
N417 N 0.13657 0.35556 0.33605 0.0
C418 C 0.14662 0.38252 0.35222 0.0
C419 C 0.12218 0.35283 0.29345 0.0
C420 C 0.11642 0.37814 0.26601 0.0
C421 C 0.12624 0.40613 0.28233 0.0
C422 C 0.14191 0.40826 0.32545 0.0
Zn423 Zn 0.14199 0.31911 0.37745 0.0
O424 O 0.12954 0.30144 0.4774 0.0
C425 C 0.20157 0.31916 0.42418 0.0
O426 O 0.12388 0.34239 0.43566 0.0
H427 H 0.11462 0.3311 0.28126 0.0
H428 H 0.17835 0.26909 0.51338 0.0
H429 H 0.1577 0.38419 0.38643 0.0
O430 O 0.19224 0.29391 0.43888 0.0
O431 O 0.18501 0.33453 0.39693 0.0
H432 H 0.12787 0.21159 0.42355 0.0
O433 O 0.16171 0.29602 0.31928 0.0
O434 O 0.16992 0.25526 0.36118 0.0
O435 O 0.09802 0.30435 0.35977 0.0
O436 O 0.10378 0.26229 0.39873 0.0
C437 C 0.17345 0.27022 0.32282 0.0
H438 H 0.17426 0.234 0.57949 0.0
H439 H 0.12171 0.17543 0.48939 0.0
H440 H 0.10415 0.37598 0.23281 0.0
H441 H 0.14936 0.42974 0.33912 0.0
C442 C 0.92694 0.86602 0.21489 0.0
N443 N 0.01434 0.89733 0.21307 0.0
C444 C 0.00712 0.90855 0.25679 0.0
C445 C 0.02678 0.90588 0.29497 0.0
C446 C 0.05393 0.89086 0.28869 0.0
C447 C 0.06165 0.88067 0.24284 0.0
C448 C 0.04143 0.88437 0.20511 0.0
Zn449 Zn 0.97997 0.89472 0.16476 0.0
C450 C 0.97792 0.83799 0.11199 0.0
N451 N 0.90321 0.88918 0.07633 0.0
C452 C 0.87502 0.89533 0.09178 0.0
C453 C 0.90828 0.87733 0.03233 0.0
C454 C 0.8843 0.86919 0.00322 0.0
C455 C 0.85498 0.87375 0.0194 0.0
C456 C 0.85037 0.88792 0.06349 0.0
Zn457 Zn 0.93838 0.89305 0.12158 0.0
O458 O 0.9546 0.87243 0.21839 0.0
C459 C 0.93937 0.94794 0.17631 0.0
O460 O 0.9134 0.87155 0.17608 0.0
H461 H 0.93092 0.87282 0.02075 0.0
H462 H 0.98519 0.91777 0.26332 0.0
H463 H 0.87158 0.90461 0.12701 0.0
O464 O 0.96373 0.93596 0.1893 0.0
O465 O 0.92291 0.93479 0.14583 0.0
H466 H 0.04667 0.87535 0.17029 0.0
O467 O 0.96314 0.91647 0.06872 0.0
O468 O 0.0043 0.91884 0.11165 0.0
O469 O 0.95369 0.8502 0.09857 0.0
O470 O 0.99549 0.85243 0.13941 0.0
C471 C 0.9896 0.92654 0.07467 0.0
H472 H 0.01969 0.91342 0.32995 0.0
H473 H 0.08244 0.86885 0.23679 0.0
H474 H 0.88857 0.85841 0.96925 0.0
H475 H 0.82797 0.89148 0.07719 0.0
C476 C 0.38537 0.67556 0.96968 0.0
N477 N 0.35806 0.76377 0.96294 0.0
C478 C 0.33345 0.77792 0.98071 0.0
C479 C 0.33617 0.7972 0.02021 0.0
C480 C 0.3645 0.80201 0.04097 0.0
C481 C 0.38939 0.78791 0.02059 0.0
C482 C 0.38568 0.76885 0.98199 0.0
Zn483 Zn 0.35665 0.72757 0.91724 0.0
C484 C 0.41525 0.7233 0.8621 0.0
N485 N 0.36123 0.64828 0.83365 0.0
C486 C 0.35155 0.62183 0.8523 0.0
C487 C 0.37237 0.65 0.78855 0.0
C488 C 0.37559 0.62415 0.76119 0.0
C489 C 0.36685 0.59645 0.78031 0.0
C490 C 0.35398 0.59548 0.8259 0.0
Zn491 Zn 0.36092 0.68561 0.87496 0.0
O492 O 0.37765 0.70281 0.97259 0.0
C493 C 0.30365 0.68996 0.93139 0.0
O494 O 0.38172 0.66176 0.93054 0.0
H495 H 0.37964 0.67133 0.77434 0.0
H496 H 0.31154 0.77311 0.966 0.0
H497 H 0.34289 0.62097 0.88832 0.0
O498 O 0.31493 0.7148 0.94422 0.0
O499 O 0.31804 0.67312 0.90294 0.0
H500 H 0.40488 0.75648 0.9697 0.0
O501 O 0.33893 0.70917 0.82028 0.0
O502 O 0.33316 0.75071 0.86158 0.0
O503 O 0.40438 0.69845 0.84816 0.0
O504 O 0.39967 0.73993 0.88911 0.0
C505 C 0.32805 0.73532 0.82398 0.0
H506 H 0.31635 0.80755 0.03505 0.0
H507 H 0.41152 0.79004 0.03616 0.0
H508 H 0.38562 0.62561 0.72606 0.0
H509 H 0.3474 0.57439 0.84193 0.0
C510 C 0.56425 0.13358 0.72867 0.0
N511 N 0.47926 0.09883 0.71014 0.0
C512 C 0.48517 0.08913 0.75513 0.0
C513 C 0.46537 0.09516 0.79212 0.0
C514 C 0.43895 0.1111 0.78279 0.0
C515 C 0.43168 0.1175 0.73499 0.0
C516 C 0.45242 0.11131 0.69894 0.0
Zn517 Zn 0.51576 0.10432 0.66731 0.0
C518 C 0.51689 0.1637 0.62223 0.0
N519 N 0.59717 0.11859 0.59155 0.0
C520 C 0.62483 0.11225 0.60921 0.0
C521 C 0.59381 0.13339 0.54945 0.0
C522 C 0.61883 0.14404 0.52479 0.0
C523 C 0.6475 0.13872 0.5431 0.0
C524 C 0.65051 0.12193 0.58507 0.0
Zn525 Zn 0.55971 0.11074 0.63163 0.0
O526 O 0.53723 0.12487 0.72629 0.0
C527 C 0.55766 0.05202 0.67715 0.0
O528 O 0.58077 0.13115 0.69198 0.0
H529 H 0.57164 0.13802 0.53588 0.0
H530 H 0.50675 0.07962 0.76357 0.0
H531 H 0.62697 0.10073 0.64296 0.0
O532 O 0.53196 0.06208 0.68783 0.0
O533 O 0.57585 0.06834 0.65375 0.0
H534 H 0.44817 0.11886 0.66292 0.0
O535 O 0.53843 0.08743 0.57277 0.0
O536 O 0.49513 0.08292 0.60969 0.0
O537 O 0.54283 0.1544 0.61085 0.0
O538 O 0.49959 0.14653 0.64555 0.0
C539 C 0.51189 0.07665 0.5744 0.0
H540 H 0.47235 0.08995 0.82815 0.0
H541 H 0.41122 0.12911 0.72591 0.0
H542 H 0.61582 0.15679 0.49228 0.0
H543 H 0.67242 0.11757 0.60015 0.0
H544 H 0.45925 0.19696 0.14352 0.0
H545 H 0.42946 0.28851 0.1354 0.0
H546 H 0.48149 0.30603 0.13941 0.0
H547 H 0.53547 0.29518 0.13934 0.0
H548 H 0.56539 0.20351 0.13831 0.0
H549 H 0.51337 0.18611 0.14397 0.0
C550 C 0.46415 0.22077 0.14348 0.0
C551 C 0.44051 0.24146 0.13974 0.0
C552 C 0.49417 0.23059 0.14376 0.0
C553 C 0.44724 0.27219 0.13853 0.0
C554 C 0.47698 0.28218 0.14068 0.0
C555 C 0.53064 0.27138 0.14108 0.0
C556 C 0.55431 0.25064 0.13884 0.0
C557 C 0.50064 0.26158 0.14248 0.0
C558 C 0.54761 0.2199 0.14013 0.0
C559 C 0.51786 0.20997 0.14329 0.0
H560 H 0.47375 0.69446 0.38918 0.0
H561 H 0.56891 0.70792 0.40664 0.0
H562 H 0.56174 0.76194 0.40965 0.0
H563 H 0.52896 0.80591 0.4005 0.0
H564 H 0.43347 0.7928 0.38943 0.0
H565 H 0.44019 0.73851 0.39119 0.0
C566 C 0.49283 0.70921 0.39444 0.0
C567 C 0.52184 0.69701 0.39734 0.0
C568 C 0.48854 0.74049 0.39697 0.0
C569 C 0.54629 0.71653 0.40446 0.0
C570 C 0.54227 0.74755 0.40589 0.0
C571 C 0.50961 0.79114 0.39923 0.0
C572 C 0.48079 0.80344 0.39454 0.0
C573 C 0.51358 0.75985 0.40118 0.0
C574 C 0.45591 0.78398 0.39328 0.0
C575 C 0.45975 0.75287 0.39398 0.0
H576 H 0.04229 0.79983 0.63761 0.0
H577 H 0.07195 0.70809 0.63635 0.0
H578 H 0.02 0.69076 0.64272 0.0
H579 H 0.96584 0.70159 0.64221 0.0
H580 H 0.93623 0.79324 0.63537 0.0
H581 H 0.98822 0.81067 0.63898 0.0
C582 C 0.03741 0.77605 0.63956 0.0
C583 C 0.06104 0.75529 0.63685 0.0
C584 C 0.00737 0.76623 0.64144 0.0
C585 C 0.05424 0.72454 0.63848 0.0
C586 C 0.0245 0.71462 0.64201 0.0
C587 C 0.97076 0.72539 0.64234 0.0
C588 C 0.94713 0.74609 0.63886 0.0
C589 C 1.00083 0.73523 0.64263 0.0
C590 C 0.95395 0.77684 0.63813 0.0
C591 C 0.98371 0.78682 0.64008 0.0
H592 H 0.02807 0.30563 0.88722 0.0
H593 H 0.93318 0.29388 0.90998 0.0
H594 H 0.93923 0.23963 0.9105 0.0
H595 H 0.97097 0.19498 0.89799 0.0
H596 H 0.06641 0.20671 0.88239 0.0
H597 H 0.0607 0.26097 0.88597 0.0
C598 C 0.00882 0.29119 0.89313 0.0
C599 C 0.98021 0.30395 0.89833 0.0
C600 C 0.0125 0.25979 0.89434 0.0
C601 C 0.95553 0.28482 0.90617 0.0
C602 C 0.95891 0.25367 0.90614 0.0
C603 C 0.99053 0.20943 0.89613 0.0
C604 C 0.01904 0.19668 0.88966 0.0
C605 C 0.9872 0.24082 0.8993 0.0
C606 C 0.04419 0.2158 0.88762 0.0
C607 C 0.04095 0.24694 0.88938 0.0
H608 H 0.54954 0.75344 0.80177 0.0
H609 H 0.55791 0.75891 0.95489 0.0
H610 H 0.50475 0.7477 0.96415 0.0
H611 H 0.45561 0.73698 0.92939 0.0
H612 H 0.44679 0.72497 0.77761 0.0
H613 H 0.50011 0.73784 0.76686 0.0
C614 C 0.53966 0.75184 0.83702 0.0
C615 C 0.55766 0.75691 0.87764 0.0
C616 C 0.50895 0.74436 0.84226 0.0
C617 C 0.54463 0.75473 0.92316 0.0
C618 C 0.51417 0.74851 0.92851 0.0
C619 C 0.46537 0.73732 0.89392 0.0
C620 C 0.44729 0.73067 0.85424 0.0
C621 C 0.49609 0.74345 0.88841 0.0
C622 C 0.46029 0.73035 0.8086 0.0
C623 C 0.49075 0.73767 0.80254 0.0
H624 H 0.45603 0.29066 0.60876 0.0
H625 H 0.54771 0.31914 0.62767 0.0
H626 H 0.56447 0.26718 0.6217 0.0
H627 H 0.55266 0.21318 0.61819 0.0
H628 H 0.46047 0.1847 0.60772 0.0
H629 H 0.44437 0.23688 0.60281 0.0
C630 C 0.47973 0.28554 0.61073 0.0
C631 C 0.5006 0.3088 0.61841 0.0
C632 C 0.4891 0.25548 0.60906 0.0
C633 C 0.53118 0.30169 0.62174 0.0
C634 C 0.54078 0.27195 0.61842 0.0
C635 C 0.52911 0.21843 0.61389 0.0
C636 C 0.5078 0.19508 0.61295 0.0
C637 C 0.5199 0.24858 0.61305 0.0
C638 C 0.4773 0.20225 0.6084 0.0
C639 C 0.46808 0.2321 0.60573 0.0
H640 H 0.94489 0.28005 0.36942 0.0
H641 H 0.95864 0.18536 0.34956 0.0
H642 H 0.01281 0.1928 0.35148 0.0
H643 H 0.05703 0.22605 0.36262 0.0
H644 H 0.04313 0.3212 0.37481 0.0
H645 H 0.98898 0.31377 0.37204 0.0
C646 C 0.95974 0.26111 0.36489 0.0
C647 C 0.94748 0.23219 0.35941 0.0
C648 C 0.99116 0.26559 0.36501 0.0
C649 C 0.96725 0.20795 0.35346 0.0
C650 C 0.99838 0.21212 0.35488 0.0
C651 C 0.04211 0.24512 0.3643 0.0
C652 C 0.05427 0.27412 0.36913 0.0
C653 C 0.01069 0.2408 0.36124 0.0
C654 C 0.03452 0.29861 0.37084 0.0
C655 C 0.00343 0.2944 0.36943 0.0
H656 H 0.97418 0.69719 0.09856 0.0
H657 H 0.06999 0.70913 0.10572 0.0
H658 H 0.06398 0.76343 0.10407 0.0
H659 H 0.03109 0.80777 0.10806 0.0
H660 H 0.93552 0.79568 0.09454 0.0
H661 H 0.94184 0.74155 0.09069 0.0
C662 C 0.99372 0.71171 0.09891 0.0
C663 C 0.02244 0.69914 0.1026 0.0
C664 C 0.99016 0.743 0.09714 0.0
C665 C 0.04761 0.71822 0.10267 0.0
C666 C 0.0442 0.74932 0.10206 0.0
C667 C 0.01174 0.79327 0.10349 0.0
C668 C 0.9829 0.80577 0.10201 0.0
C669 C 0.01554 0.76201 0.1004 0.0
C670 C 0.95802 0.7867 0.09565 0.0
C671 C 0.96157 0.75566 0.09372 0.0
H672 H 0.19709 0.10028 0.99329 0.0
H673 H 0.16022 0.18772 0.96716 0.0
H674 H 0.20417 0.21132 0.00365 0.0
H675 H 0.25345 0.20699 0.04087 0.0
H676 H 0.28972 0.11971 0.0712 0.0
H677 H 0.24548 0.09594 0.0357 0.0
C678 C 0.19885 0.12445 0.99588 0.0
C679 C 0.1759 0.14242 0.97765 0.0
C680 C 0.22389 0.13778 0.01764 0.0
C681 C 0.17788 0.17368 0.98121 0.0
C682 C 0.20291 0.18711 0.00193 0.0
C683 C 0.25158 0.18277 0.03984 0.0
C684 C 0.27475 0.16508 0.05817 0.0
C685 C 0.2261 0.16938 0.01997 0.0
C686 C 0.27201 0.13374 0.05731 0.0
C687 C 0.24685 0.12016 0.03686 0.0
H688 H 0.63485 0.4438 0.23773 0.0
H689 H 0.54573 0.40631 0.23709 0.0
H690 H 0.52566 0.45311 0.2695 0.0
H691 H 0.53363 0.50529 0.2959 0.0
H692 H 0.62345 0.54139 0.29956 0.0
H693 H 0.64314 0.49463 0.2677 0.0
C694 C 0.61105 0.44595 0.24487 0.0
C695 C 0.5917 0.42194 0.23498 0.0
C696 C 0.59984 0.47268 0.26365 0.0
C697 C 0.56098 0.42462 0.2448 0.0
C698 C 0.54953 0.45136 0.26298 0.0
C699 C 0.55746 0.50285 0.28951 0.0
C700 C 0.57706 0.52669 0.29962 0.0
C701 C 0.56873 0.47565 0.27212 0.0
C702 C 0.60796 0.52324 0.29201 0.0
C703 C 0.61924 0.49656 0.2738 0.0
H704 H 0.33344 0.83102 0.49685 0.0
H705 H 0.30119 0.92097 0.47732 0.0
H706 H 0.25288 0.90687 0.5128 0.0
H707 H 0.21917 0.86796 0.54601 0.0
H708 H 0.2514 0.77744 0.5598 0.0
H709 H 0.30053 0.79278 0.53048 0.0
C710 C 0.31596 0.84763 0.50106 0.0
C711 C 0.32079 0.87698 0.485 0.0
C712 C 0.28826 0.83919 0.52028 0.0
C713 C 0.29783 0.8982 0.48954 0.0
C714 C 0.2703 0.89015 0.5098 0.0
C715 C 0.2371 0.85177 0.54295 0.0
C716 C 0.23178 0.82166 0.55487 0.0
C717 C 0.26515 0.86059 0.52482 0.0
C718 C 0.25499 0.80072 0.55041 0.0
C719 C 0.28307 0.80945 0.53374 0.0
H720 H 0.86226 0.5551 0.74268 0.0
H721 H 0.95061 0.59412 0.73518 0.0
H722 H 0.97239 0.54801 0.76696 0.0
H723 H 0.96617 0.49608 0.79538 0.0
H724 H 0.87724 0.45848 0.80663 0.0
H725 H 0.85579 0.5044 0.77463 0.0
C726 C 0.88626 0.55342 0.74818 0.0
C727 C 0.90487 0.57772 0.73663 0.0
C728 C 0.89849 0.52708 0.76683 0.0
C729 C 0.9359 0.57562 0.74425 0.0
C730 C 0.94834 0.54926 0.7621 0.0
C731 C 0.94213 0.49802 0.79064 0.0
C732 C 0.92331 0.47398 0.80297 0.0
C733 C 0.92986 0.52476 0.77321 0.0
C734 C 0.89216 0.47678 0.7974 0.0
C735 C 0.87987 0.50299 0.77909 0.0
H736 H 0.75201 0.7946 0.93315 0.0
H737 H 0.70644 0.87951 0.93263 0.0
H738 H 0.75193 0.90453 0.96146 0.0
H739 H 0.80364 0.90131 0.9923 0.0
H740 H 0.84925 0.81642 0.98965 0.0
H741 H 0.80486 0.79228 0.95593 0.0
C742 C 0.75217 0.81862 0.93911 0.0
C743 C 0.72602 0.83522 0.9316 0.0
C744 C 0.77834 0.83277 0.95502 0.0
C745 C 0.72645 0.86636 0.93843 0.0
C746 C 0.75235 0.88061 0.95501 0.0
C747 C 0.80381 0.87762 0.98375 0.0
C748 C 0.82943 0.86057 0.99346 0.0
C749 C 0.77826 0.86393 0.96424 0.0
C750 C 0.82974 0.82995 0.98203 0.0
C751 C 0.80436 0.81612 0.96311 0.0
H752 H 0.42122 0.58101 0.74864 0.0
H753 H 0.33026 0.54898 0.75904 0.0
H754 H 0.34522 0.50063 0.72501 0.0
H755 H 0.38513 0.46669 0.69694 0.0
H756 H 0.47657 0.49845 0.69343 0.0
H757 H 0.46051 0.54786 0.71979 0.0
C758 C 0.40462 0.56358 0.74259 0.0
C759 C 0.37472 0.56841 0.75567 0.0
C760 C 0.41355 0.53581 0.72465 0.0
C761 C 0.35342 0.54558 0.74892 0.0
C762 C 0.36198 0.51803 0.72962 0.0
C763 C 0.4014 0.48457 0.70161 0.0
C764 C 0.43193 0.47906 0.69351 0.0
C765 C 0.39211 0.51274 0.71806 0.0
C766 C 0.45295 0.5022 0.69995 0.0
C767 C 0.44381 0.53044 0.71487 0.0
H768 H 0.69474 0.1099 0.50412 0.0
H769 H 0.65913 0.19777 0.53087 0.0
H770 H 0.70388 0.22081 0.49564 0.0
H771 H 0.75372 0.21574 0.4587 0.0
H772 H 0.78769 0.12761 0.42735 0.0
H773 H 0.74306 0.10485 0.46249 0.0
C774 C 0.6969 0.13406 0.50201 0.0
C775 C 0.67402 0.15222 0.52009 0.0
C776 C 0.72234 0.14705 0.48087 0.0
C777 C 0.67664 0.18349 0.51696 0.0
C778 C 0.70218 0.19661 0.49697 0.0
C779 C 0.75124 0.19158 0.45947 0.0
C780 C 0.77398 0.1734 0.44071 0.0
C781 C 0.72526 0.17861 0.47902 0.0
C782 C 0.77041 0.1421 0.44142 0.0
C783 C 0.74496 0.12905 0.46168 0.0
H784 H 0.07057 0.42569 0.26569 0.0
H785 H 0.16368 0.44769 0.24422 0.0
H786 H 0.14969 0.49553 0.20788 0.0
H787 H 0.11111 0.53164 0.18612 0.0
H788 H 0.01795 0.51122 0.21272 0.0
H789 H 0.03176 0.46198 0.24355 0.0
C790 C 0.08764 0.4409 0.25233 0.0
C791 C 0.11797 0.43347 0.25684 0.0
C792 C 0.07944 0.46854 0.23306 0.0
C793 C 0.14018 0.45324 0.24059 0.0
C794 C 0.1322 0.48047 0.22008 0.0
C795 C 0.0938 0.51634 0.19842 0.0
C796 C 0.06359 0.52492 0.19723 0.0
C797 C 0.10192 0.48846 0.21675 0.0
C798 C 0.04139 0.50507 0.21361 0.0
C799 C 0.04925 0.47695 0.23105 0.0
H800 H 0.67253 0.67341 0.50751 0.0
H801 H 0.70434 0.5837 0.48385 0.0
H802 H 0.75229 0.59657 0.52162 0.0
H803 H 0.78632 0.6347 0.55628 0.0
H804 H 0.75513 0.72535 0.5728 0.0
H805 H 0.70563 0.71081 0.5436 0.0
C806 C 0.68981 0.65659 0.51143 0.0
C807 C 0.68503 0.62768 0.49336 0.0
C808 C 0.71743 0.66441 0.5317 0.0
C809 C 0.7077 0.60614 0.49761 0.0
C810 C 0.73504 0.61349 0.51913 0.0
C811 C 0.76847 0.65105 0.554 0.0
C812 C 0.77415 0.68098 0.56647 0.0
C813 C 0.74034 0.64273 0.53558 0.0
C814 C 0.75115 0.7022 0.56297 0.0
C815 C 0.7229 0.69392 0.54634 0.0
H816 H 0.09994 0.01303 0.83642 0.0
H817 H 0.0324 0.02972 0.72954 0.0
H818 H 0.04656 0.98419 0.68735 0.0
H819 H 0.07849 0.93988 0.68002 0.0
H820 H 0.14419 0.92121 0.7885 0.0
H821 H 0.13044 0.96718 0.83102 0.0
C822 C 0.08834 0.00664 0.80393 0.0
C823 C 0.06526 0.02478 0.78604 0.0
C824 C 0.0963 0.98012 0.78014 0.0
C825 C 0.05018 0.01609 0.74416 0.0
C826 C 0.05832 0.99011 0.71989 0.0
C827 C 0.08981 0.94602 0.71291 0.0
C828 C 0.11245 0.92755 0.73103 0.0
C829 C 0.08141 0.97204 0.73741 0.0
C830 C 0.12668 0.93526 0.77404 0.0
C831 C 0.11886 0.96149 0.79821 0.0
H832 H 0.72806 0.29617 0.00685 0.0
H833 H 0.72368 0.35976 0.12266 0.0
H834 H 0.7713 0.38193 0.09726 0.0
H835 H 0.81374 0.38383 0.0405 0.0
H836 H 0.8159 0.32176 0.92273 0.0
H837 H 0.76963 0.29815 0.95063 0.0
C838 C 0.73758 0.31478 0.0267 0.0
C839 C 0.72248 0.3263 0.06653 0.0
C840 C 0.76455 0.32765 0.01151 0.0
C841 C 0.73492 0.3506 0.09168 0.0
C842 C 0.76213 0.36323 0.07728 0.0
C843 C 0.804 0.36503 0.02138 0.0
C844 C 0.81785 0.35438 0.97986 0.0
C845 C 0.77707 0.35203 0.03707 0.0
C846 C 0.80527 0.33022 0.95476 0.0
C847 C 0.77893 0.31677 0.97066 0.0
H848 H 0.40492 0.9879 0.35291 0.0
H849 H 0.47845 0.98009 0.25355 0.0
H850 H 0.46444 0.02731 0.21646 0.0
H851 H 0.42951 0.06916 0.20896 0.0
H852 H 0.3569 0.07845 0.30898 0.0
H853 H 0.37237 0.03231 0.34963 0.0
C854 C 0.41794 0.99667 0.32332 0.0
C855 C 0.44245 0.98042 0.30562 0.0
C856 C 0.40989 0.02396 0.30234 0.0
C857 C 0.45943 0.99216 0.26773 0.0
C858 C 0.45141 0.01911 0.2464 0.0
C859 C 0.41733 0.06108 0.23996 0.0
C860 C 0.3921 0.07663 0.25605 0.0
C861 C 0.42644 0.0349 0.26293 0.0
C862 C 0.37643 0.06653 0.29632 0.0
C863 C 0.3852 0.04021 0.31927 0.0
H864 H 0.25024 0.2885 0.45571 0.0
H865 H 0.21743 0.37779 0.43037 0.0
H866 H 0.26344 0.39904 0.46348 0.0
H867 H 0.31225 0.39228 0.50292 0.0
H868 H 0.34657 0.30329 0.52389 0.0
H869 H 0.30091 0.2818 0.48907 0.0
C870 C 0.25329 0.31259 0.45726 0.0
C871 C 0.23043 0.33155 0.441 0.0
C872 C 0.28004 0.32468 0.47562 0.0
C873 C 0.23476 0.36272 0.44261 0.0
C874 C 0.261 0.37491 0.4617 0.0
C875 C 0.30968 0.36822 0.49946 0.0
C876 C 0.33243 0.34931 0.51599 0.0
C877 C 0.28365 0.35612 0.47877 0.0
C878 C 0.32922 0.31817 0.51113 0.0
C879 C 0.30313 0.30592 0.49145 0.0
H880 H 0.91227 0.06095 0.30159 0.0
H881 H 0.85274 0.08049 0.18486 0.0
H882 H 0.86829 0.03432 0.14406 0.0
H883 H 0.89854 0.98802 0.14318 0.0
H884 H 0.95951 0.97092 0.25969 0.0
H885 H 0.94366 0.01663 0.29922 0.0
C886 C 0.90267 0.05493 0.26727 0.0
C887 C 0.88122 0.07348 0.24628 0.0
C888 C 0.91198 0.02894 0.24417 0.0
C889 C 0.86923 0.06616 0.20147 0.0
C890 C 0.87808 0.03988 0.17836 0.0
C891 C 0.90829 0.99439 0.17719 0.0
C892 C 0.93002 0.97614 0.19861 0.0
C893 C 0.89936 0.02101 0.19957 0.0
C894 C 0.94279 0.98468 0.24242 0.0
C895 C 0.93371 0.01075 0.26515 0.0
H896 H 0.17362 0.67455 0.01464 0.0
H897 H 0.19895 0.58164 0.0119 0.0
H898 H 0.24719 0.59499 0.97534 0.0
H899 H 0.28264 0.63361 0.94664 0.0
H900 H 0.25822 0.72678 0.95618 0.0
H901 H 0.20903 0.71293 0.98744 0.0
C902 C 0.18967 0.65728 0.00551 0.0
C903 C 0.1829 0.62722 0.01525 0.0
C904 C 0.21745 0.66522 0.98598 0.0
C905 C 0.20388 0.60493 0.00438 0.0
C906 C 0.23135 0.61256 0.98358 0.0
C907 C 0.26641 0.65078 0.95534 0.0
C908 C 0.27388 0.68112 0.94913 0.0
C909 C 0.23846 0.64269 0.97455 0.0
C910 C 0.25293 0.70327 0.96097 0.0
C911 C 0.22482 0.69539 0.97872 0.0
H912 H 0.61323 0.02797 0.68827 0.0
H913 H 0.51892 0.00668 0.69562 0.0
H914 H 0.53043 0.95583 0.72075 0.0
H915 H 0.56702 0.91845 0.7464 0.0
H916 H 0.66104 0.94044 0.74595 0.0
H917 H 0.65014 0.98974 0.71176 0.0
C918 C 0.59529 0.01208 0.69507 0.0
C919 C 0.56532 0.02109 0.69053 0.0
C920 C 0.60204 0.98298 0.71061 0.0
C921 C 0.5422 1.00037 0.69952 0.0
C922 C 0.54873 0.97124 0.71368 0.0
C923 C 0.58506 0.93389 0.73778 0.0
C924 C 0.61471 0.92602 0.74797 0.0
C925 C 0.57851 0.96244 0.72006 0.0
C926 C 0.63804 0.94622 0.73787 0.0
C927 C 0.6318 0.97436 0.71865 0.0
H928 H 0.38546 0.19561 0.94061 0.0
H929 H 0.40531 0.11893 0.02872 0.0
H930 H 0.4204 0.09068 0.95815 0.0
H931 H 0.42888 0.08812 0.87193 0.0
H932 H 0.41245 0.16627 0.78508 0.0
H933 H 0.3935 0.19286 0.85439 0.0
C934 C 0.39326 0.17277 0.94449 0.0
C935 C 0.39454 0.15952 0.98994 0.0
C936 C 0.40182 0.15663 0.90384 0.0
C937 C 0.4044 0.12979 0.9942 0.0
C938 C 0.41282 0.11353 0.95383 0.0
C939 C 0.42121 0.11098 0.86802 0.0
C940 C 0.42233 0.12505 0.82309 0.0
C941 C 0.41171 0.12678 0.90851 0.0
C942 C 0.41148 0.15448 0.81878 0.0
C943 C 0.40107 0.17 0.85866 0.0
H944 H 0.63116 0.65203 0.25428 0.0
H945 H 0.54057 0.65216 0.19986 0.0
H946 H 0.55825 0.67017 0.12319 0.0
H947 H 0.59885 0.68661 0.07135 0.0
H948 H 0.6896 0.68817 0.12384 0.0
H949 H 0.67254 0.66864 0.20108 0.0
C950 C 0.61533 0.65621 0.22572 0.0
C951 C 0.58457 0.65075 0.23308 0.0
C952 C 0.62568 0.66659 0.18108 0.0
C953 C 0.56438 0.65611 0.19546 0.0
C954 C 0.57444 0.66636 0.15136 0.0
C955 C 0.61501 0.68209 0.09934 0.0
C956 C 0.64548 0.6884 0.09166 0.0
C957 C 0.60499 0.67154 0.14368 0.0
C958 C 0.66601 0.6833 0.12883 0.0
C959 C 0.65624 0.67227 0.17302 0.0
H960 H 0.07361 0.83561 0.31061 0.0
H961 H 0.07155 0.92628 0.36329 0.0
H962 H 0.09196 0.90975 0.43994 0.0
H963 H 0.10759 0.8689 0.49333 0.0
H964 H 0.10868 0.77817 0.43996 0.0
H965 H 0.09128 0.79533 0.36236 0.0
C966 C 0.07836 0.85184 0.33847 0.0
C967 C 0.07134 0.8821 0.33134 0.0
C968 C 0.08935 0.84208 0.38262 0.0
C969 C 0.0769 0.90284 0.36808 0.0
C970 C 0.08837 0.89338 0.41192 0.0
C971 C 0.10389 0.85291 0.46476 0.0
C972 C 0.10915 0.8223 0.4726 0.0
C973 C 0.09405 0.86294 0.41994 0.0
C974 C 0.10463 0.80186 0.43502 0.0
C975 C 0.09479 0.81164 0.39051 0.0
H976 H 0.84241 0.31217 0.62256 0.0
H977 H 0.92162 0.32803 0.53744 0.0
H978 H 0.94729 0.34863 0.60672 0.0
H979 H 0.94858 0.35929 0.69241 0.0
H980 H 0.87047 0.34111 0.77876 0.0
H981 H 0.84354 0.32325 0.70832 0.0
C982 C 0.8653 0.32007 0.61905 0.0
C983 C 0.87991 0.31844 0.57454 0.0
C984 C 0.88043 0.33091 0.65952 0.0
C985 C 0.90944 0.32943 0.57077 0.0
C986 C 0.92439 0.34084 0.61064 0.0
C987 C 0.92571 0.35129 0.69595 0.0
C988 C 0.91168 0.35131 0.74092 0.0
C989 C 0.9103 0.34117 0.65533 0.0
C990 C 0.88192 0.34112 0.74467 0.0
C991 C 0.86643 0.33105 0.70435 0.0
H992 H 0.64016 0.82236 0.06004 0.0
H993 H 0.56659 0.85462 0.97484 0.0
H994 H 0.5441 0.87748 0.04563 0.0
H995 H 0.5442 0.88573 0.13152 0.0
H996 H 0.61993 0.85752 0.21625 0.0
H997 H 0.64257 0.83507 0.14553 0.0
C998 C 0.61922 0.83447 0.05709 0.0
C999 C 0.60479 0.83661 0.01261 0.0
C1000 C 0.60682 0.84806 0.09764 0.0
C1001 C 0.578 0.85272 0.00883 0.0
C1002 C 0.56516 0.8657 0.04924 0.0
C1003 C 0.56609 0.87553 0.13471 0.0
C1004 C 0.58023 0.87345 0.17961 0.0
C1005 C 0.5793 0.86332 0.09381 0.0
C1006 C 0.60819 0.85914 0.18255 0.0
C1007 C 0.62126 0.8464 0.14203 0.0
H1008 H 0.38101 0.34947 0.74944 0.0
H1009 H 0.46855 0.35805 0.81397 0.0
H1010 H 0.449 0.33917 0.88913 0.0
H1011 H 0.40774 0.31879 0.93637 0.0
H1012 H 0.32004 0.30946 0.87346 0.0
H1013 H 0.33888 0.33017 0.79824 0.0
C1014 C 0.39579 0.3471 0.77991 0.0
C1015 C 0.42625 0.35507 0.77577 0.0
C1016 C 0.38436 0.33627 0.82356 0.0
C1017 C 0.44502 0.35206 0.81585 0.0
C1018 C 0.43387 0.34131 0.85906 0.0
C1019 C 0.39255 0.32188 0.90657 0.0
C1020 C 0.36247 0.3128 0.91071 0.0
C1021 C 0.40362 0.33334 0.86335 0.0
C1022 C 0.34331 0.31627 0.87123 0.0
C1023 C 0.3541 0.32803 0.82816 0.0
H1024 H 0.9247 0.09123 0.63098 0.0
H1025 H 0.91214 0.17215 0.71301 0.0
H1026 H 0.89297 0.19747 0.64254 0.0
H1027 H 0.88485 0.19837 0.55624 0.0
H1028 H 0.90093 0.11869 0.47277 0.0
H1029 H 0.91494 0.09158 0.54501 0.0
C1030 C 0.91768 0.11439 0.63355 0.0
C1031 C 0.9202 0.12975 0.67729 0.0
C1032 C 0.90816 0.12933 0.59236 0.0
C1033 C 0.91018 0.15952 0.68014 0.0
C1034 C 0.89968 0.17425 0.6396 0.0
C1035 C 0.89153 0.17509 0.55373 0.0
C1036 C 0.89225 0.16069 0.50909 0.0
C1037 C 0.89951 0.15966 0.59529 0.0
C1038 C 0.90054 0.13041 0.50662 0.0
C1039 C 0.90835 0.11484 0.54793 0.0
H1040 H 0.0946 0.68187 0.43186 0.0
H1041 H 0.18594 0.6696 0.38626 0.0
H1042 H 0.16846 0.65223 0.30795 0.0
H1043 H 0.12681 0.64193 0.25155 0.0
H1044 H 0.03575 0.6556 0.29873 0.0
H1045 H 0.05355 0.67115 0.37687 0.0
C1046 C 0.11068 0.67475 0.40517 0.0
C1047 C 0.14149 0.67662 0.41508 0.0
C1048 C 0.10051 0.66551 0.36009 0.0
C1049 C 0.16207 0.66816 0.37957 0.0
C1050 C 0.15209 0.6584 0.33473 0.0
C1051 C 0.11093 0.64854 0.27884 0.0
C1052 C 0.07999 0.64768 0.26901 0.0
C1053 C 0.12132 0.65737 0.32431 0.0
C1054 C 0.0597 0.65606 0.30505 0.0
C1055 C 0.06982 0.66487 0.34998 0.0
H1056 H 0.89036 0.70744 0.43979 0.0
H1057 H 0.90108 0.62575 0.52026 0.0
H1058 H 0.91534 0.5992 0.44774 0.0
H1059 H 0.92617 0.5994 0.36228 0.0
H1060 H 0.91935 0.68193 0.28286 0.0
H1061 H 0.90064 0.70742 0.35366 0.0
C1062 C 0.89594 0.68386 0.44152 0.0
C1063 C 0.89494 0.6687 0.48551 0.0
C1064 C 0.90421 0.66868 0.39969 0.0
C1065 C 0.90196 0.63806 0.48699 0.0
C1066 C 0.90993 0.62279 0.44548 0.0
C1067 C 0.92065 0.62299 0.36033 0.0
C1068 C 0.92446 0.63864 0.31715 0.0
C1069 C 0.9113 0.63791 0.40172 0.0
C1070 C 0.91633 0.66904 0.31522 0.0
C1071 C 0.90605 0.68383 0.35598 0.0
H1072 H 0.12416 0.14547 0.74322 0.0
H1073 H 0.03285 0.15391 0.6939 0.0
H1074 H 0.0504 0.1722 0.61726 0.0
H1075 H 0.09119 0.18723 0.56463 0.0
H1076 H 0.18264 0.18085 0.61272 0.0
H1077 H 0.16559 0.15999 0.68906 0.0
C1078 C 0.10816 0.15147 0.71576 0.0
C1079 C 0.07724 0.14842 0.72454 0.0
C1080 C 0.1184 0.16202 0.67128 0.0
C1081 C 0.05678 0.1561 0.68838 0.0
C1082 C 0.06676 0.16647 0.64431 0.0
C1083 C 0.10743 0.18062 0.5914 0.0
C1084 C 0.1381 0.18514 0.58291 0.0
C1085 C 0.09745 0.16949 0.63536 0.0
C1086 C 0.15888 0.17732 0.61844 0.0
C1087 C 0.14913 0.16559 0.66212 0.0
H1088 H 0.57321 0.34375 0.81883 0.0
H1089 H 0.57759 0.43336 0.8757 0.0
H1090 H 0.59379 0.41364 0.95314 0.0
H1091 H 0.60478 0.37049 0.00527 0.0
H1092 H 0.59913 0.28104 0.94711 0.0
H1093 H 0.58506 0.30117 0.86968 0.0
C1094 C 0.57845 0.35903 0.84782 0.0
C1095 C 0.57467 0.38995 0.84149 0.0
C1096 C 0.58691 0.34751 0.89225 0.0
C1097 C 0.58063 0.40945 0.87976 0.0
C1098 C 0.58965 0.39817 0.92404 0.0
C1099 C 0.60021 0.35544 0.97573 0.0
C1100 C 0.60281 0.32432 0.98209 0.0
C1101 C 0.59237 0.36717 0.93092 0.0
C1102 C 0.59718 0.30509 0.9433 0.0
C1103 C 0.58927 0.31656 0.89888 0.0
H1104 H 0.40891 0.84128 0.06092 0.0
H1105 H 0.33018 0.80061 0.12254 0.0
H1106 H 0.34417 0.82026 0.20126 0.0
H1107 H 0.38228 0.84419 0.25405 0.0
H1108 H 0.46299 0.88007 0.19046 0.0
H1109 H 0.44516 0.86641 0.11164 0.0
C1110 C 0.39465 0.83687 0.09152 0.0
C1111 C 0.36878 0.8192 0.08596 0.0
C1112 C 0.40361 0.84681 0.1367 0.0
C1113 C 0.35017 0.8143 0.12574 0.0
C1114 C 0.3584 0.82517 0.1709 0.0
C1115 C 0.39583 0.84905 0.22287 0.0
C1116 C 0.42412 0.86274 0.22837 0.0
C1117 C 0.38564 0.84062 0.1771 0.0
C1118 C 0.44137 0.86909 0.18754 0.0
C1119 C 0.43113 0.86148 0.14225 0.0
H1120 H 0.11782 0.30667 0.56518 0.0
H1121 H 0.10176 0.38626 0.48176 0.0
H1122 H 0.08368 0.41217 0.55279 0.0
H1123 H 0.07004 0.41138 0.63746 0.0
H1124 H 0.08331 0.33069 0.71946 0.0
H1125 H 0.10611 0.30661 0.65057 0.0
C1126 C 0.11037 0.32969 0.56248 0.0
C1127 C 0.1108 0.34437 0.51811 0.0
C1128 C 0.09993 0.34445 0.60338 0.0
C1129 C 0.1014 0.37432 0.51539 0.0
C1130 C 0.09117 0.38921 0.55602 0.0
C1131 C 0.078 0.38856 0.64036 0.0
C1132 C 0.07472 0.3729 0.68364 0.0
C1133 C 0.09 0.37437 0.60005 0.0
C1134 C 0.08584 0.34354 0.68695 0.0
C1135 C 0.09852 0.32953 0.6473 0.0
H1136 H 0.94727 0.86194 0.30582 0.0
H1137 H 0.8692 0.84501 0.21879 0.0
H1138 H 0.84161 0.82795 0.28923 0.0
H1139 H 0.84003 0.8171 0.37534 0.0
H1140 H 0.91908 0.83278 0.46098 0.0
H1141 H 0.94538 0.85216 0.39155 0.0
C1142 C 0.92426 0.85436 0.30209 0.0
C1143 C 0.91044 0.85445 0.25694 0.0
C1144 C 0.90848 0.84487 0.3427 0.0
C1145 C 0.88047 0.84496 0.25303 0.0
C1146 C 0.86463 0.83533 0.29334 0.0
C1147 C 0.863 0.82477 0.37892 0.0
C1148 C 0.87738 0.82344 0.42369 0.0
C1149 C 0.87845 0.83512 0.33836 0.0
C1150 C 0.90705 0.83401 0.42749 0.0
C1151 C 0.92236 0.84473 0.38754 0.0
H1152 H 0.3903 0.6977 0.05951 0.0
H1153 H 0.40481 0.61769 0.97619 0.0
H1154 H 0.42183 0.59139 0.04758 0.0
H1155 H 0.43403 0.59165 0.13299 0.0
H1156 H 0.42178 0.67269 0.21485 0.0
H1157 H 0.40111 0.69751 0.14506 0.0
C1158 C 0.39726 0.67452 0.05683 0.0
C1159 C 0.39657 0.65979 0.01244 0.0
C1160 C 0.40689 0.65952 0.09795 0.0
C1161 C 0.40536 0.62966 0.00982 0.0
C1162 C 0.41496 0.61455 0.05067 0.0
C1163 C 0.4268 0.61473 0.13566 0.0
C1164 C 0.42964 0.63019 0.17929 0.0
C1165 C 0.41598 0.62933 0.09486 0.0
C1166 C 0.41949 0.65993 0.18216 0.0
C1167 C 0.40806 0.67437 0.14199 0.0
H1168 H 0.59183 0.17714 0.93832 0.0
H1169 H 0.6825 0.17582 0.88548 0.0
H1170 H 0.66463 0.15797 0.80772 0.0
H1171 H 0.6227 0.14452 0.75383 0.0
H1172 H 0.53215 0.14703 0.80809 0.0
H1173 H 0.55052 0.16274 0.88589 0.0
C1174 C 0.60776 0.17227 0.91016 0.0
C1175 C 0.63846 0.17744 0.91783 0.0
C1176 C 0.59729 0.1627 0.86544 0.0
C1177 C 0.65875 0.17185 0.88049 0.0
C1178 C 0.64852 0.16181 0.83598 0.0
C1179 C 0.60702 0.14867 0.78262 0.0
C1180 C 0.57607 0.14473 0.77488 0.0
C1181 C 0.61775 0.1576 0.82778 0.0
C1182 C 0.55608 0.14995 0.8128 0.0
C1183 C 0.56654 0.15885 0.85751 0.0
H1184 H 0.27012 0.26331 0.15885 0.0
H1185 H 0.31923 0.21861 0.27036 0.0
H1186 H 0.27629 0.22309 0.32393 0.0
H1187 H 0.2245 0.23915 0.33901 0.0
H1188 H 0.17545 0.28449 0.22821 0.0
H1189 H 0.21818 0.27949 0.17407 0.0
C1190 C 0.27165 0.25515 0.19521 0.0
C1191 C 0.29809 0.24107 0.21078 0.0
C1192 C 0.24651 0.25708 0.22551 0.0
C1193 C 0.29933 0.22989 0.25765 0.0
C1194 C 0.27465 0.23214 0.28815 0.0
C1195 C 0.22288 0.24725 0.30262 0.0
C1196 C 0.19655 0.26162 0.28736 0.0
C1197 C 0.24795 0.24528 0.27227 0.0
C1198 C 0.19524 0.27288 0.24057 0.0
C1199 C 0.21983 0.27037 0.2098 0.0
H1200 H 0.55379 0.53708 0.4765 0.0
H1201 H 0.46152 0.55623 0.44295 0.0
H1202 H 0.44568 0.51042 0.48373 0.0
H1203 H 0.45803 0.46452 0.52837 0.0
H1204 H 0.5503 0.44556 0.56203 0.0
H1205 H 0.56614 0.49116 0.52072 0.0
C1206 C 0.53015 0.53156 0.47884 0.0
C1207 C 0.50886 0.55043 0.45717 0.0
C1208 C 0.52124 0.50473 0.50133 0.0
C1209 C 0.47838 0.5424 0.4597 0.0
C1210 C 0.46932 0.51601 0.48265 0.0
C1211 C 0.48166 0.47 0.52577 0.0
C1212 C 0.50298 0.45129 0.5477 0.0
C1213 C 0.49057 0.49679 0.50307 0.0
C1214 C 0.53345 0.45929 0.54501 0.0
C1215 C 0.5425 0.48555 0.52179 0.0
H1216 H 0.23138 0.73791 0.6612 0.0
H1217 H 0.18139 0.78479 0.76932 0.0
H1218 H 0.22459 0.78261 0.82331 0.0
H1219 H 0.27677 0.76686 0.83981 0.0
H1220 H 0.32654 0.72117 0.72998 0.0
H1221 H 0.28368 0.72432 0.67612 0.0
C1222 C 0.22971 0.74709 0.69696 0.0
C1223 C 0.20292 0.76074 0.71174 0.0
C1224 C 0.25497 0.74679 0.72698 0.0
C1225 C 0.20155 0.77358 0.75752 0.0
C1226 C 0.22637 0.77265 0.78815 0.0
C1227 C 0.27848 0.7584 0.80361 0.0
C1228 C 0.305 0.74417 0.7887 0.0
C1229 C 0.25334 0.75955 0.77312 0.0
C1230 C 0.30654 0.73255 0.74211 0.0
C1231 C 0.2819 0.734 0.71149 0.0
H1232 H 0.04711 0.53894 0.02185 0.0
H1233 H 0.95522 0.56061 0.05431 0.0
H1234 H 0.93854 0.5141 0.01653 0.0
H1235 H 0.95002 0.46659 0.97609 0.0
H1236 H 0.04175 0.445 0.94272 0.0
H1237 H 0.05854 0.4917 0.98014 0.0
C1238 C 0.02337 0.53384 0.01979 0.0
C1239 C 0.00244 0.55358 0.0405 0.0
C1240 C 0.01395 0.5066 0.99902 0.0
C1241 C 0.97182 0.54611 0.0383 0.0
C1242 C 0.96228 0.51931 0.01711 0.0
C1243 C 0.97375 0.47178 0.97779 0.0
C1244 C 0.99464 0.45194 0.95732 0.0
C1245 C 0.98316 0.49914 0.99809 0.0
C1246 C 0.02523 0.45958 0.95875 0.0
C1247 C 0.03481 0.48646 0.97973 0.0
H1248 H 0.7292 0.73891 0.84098 0.0
H1249 H 0.67912 0.78041 0.72746 0.0
H1250 H 0.72315 0.77855 0.67558 0.0
H1251 H 0.77626 0.7661 0.6629 0.0
H1252 H 0.82636 0.72432 0.77609 0.0
H1253 H 0.78233 0.72619 0.82811 0.0
C1254 C 0.7277 0.74686 0.8045 0.0
C1255 C 0.70065 0.75926 0.78786 0.0
C1256 C 0.75345 0.7466 0.77532 0.0
C1257 C 0.69947 0.77032 0.74093 0.0
C1258 C 0.72477 0.76961 0.71144 0.0
C1259 C 0.77777 0.75809 0.69936 0.0
C1260 C 0.80483 0.74571 0.71593 0.0
C1261 C 0.75203 0.75828 0.7285 0.0
C1262 C 0.80601 0.73447 0.76275 0.0
C1263 C 0.78071 0.73519 0.7923 0.0
H1264 H 0.72495 0.23648 0.16328 0.0
H1265 H 0.6767 0.281 0.27599 0.0
H1266 H 0.72148 0.27979 0.32656 0.0
H1267 H 0.77458 0.26592 0.33866 0.0
H1268 H 0.82246 0.22196 0.22496 0.0
H1269 H 0.77796 0.22406 0.17432 0.0
C1270 C 0.72399 0.24537 0.19929 0.0
C1271 C 0.69722 0.25819 0.21619 0.0
C1272 C 0.7501 0.24554 0.22746 0.0
C1273 C 0.6968 0.2705 0.2624 0.0
C1274 C 0.72253 0.27013 0.29111 0.0
C1275 C 0.77551 0.25758 0.30232 0.0
C1276 C 0.80204 0.24425 0.28534 0.0
C1277 C 0.74944 0.25802 0.27382 0.0
C1278 C 0.80252 0.23273 0.23864 0.0
C1279 C 0.77694 0.23356 0.20989 0.0
H1280 H 0.04851 0.04013 0.97673 0.0
H1281 H 0.95672 0.05311 0.933 0.0
H1282 H 0.94212 0.00699 0.97362 0.0
H1283 H 0.95539 0.96241 0.01936 0.0
H1284 H 0.04666 0.94938 0.06537 0.0
H1285 H 0.06162 0.99574 0.02486 0.0
C1286 C 0.0252 0.03321 0.97683 0.0
C1287 C 0.00371 0.05032 0.952 0.0
C1288 C 0.01701 0.00624 0.99955 0.0
C1289 C 0.9737 0.04061 0.952 0.0
C1290 C 0.96537 0.01405 0.97486 0.0
C1291 C 0.97871 0.96935 0.01996 0.0
C1292 C 0.99999 0.95203 0.04474 0.0
C1293 C 0.9869 0.99645 0.998 0.0
C1294 C 0.02991 0.96196 0.04603 0.0
C1295 C 0.0384 0.98864 0.02326 0.0
H1296 H 0.54871 0.03697 0.53015 0.0
H1297 H 0.45543 0.05811 0.55121 0.0
H1298 H 0.44088 0.01093 0.51323 0.0
H1299 H 0.45456 0.96325 0.47581 0.0
H1300 H 0.54773 0.94189 0.45398 0.0
H1301 H 0.56244 0.98914 0.49194 0.0
C1302 C 0.52518 0.03161 0.52538 0.0
C1303 C 0.50316 0.05138 0.54278 0.0
C1304 C 0.51698 0.00395 0.50479 0.0
C1305 C 0.4728 0.04357 0.53754 0.0
C1306 C 0.46448 0.0164 0.51634 0.0
C1307 C 0.47814 0.96855 0.48023 0.0
C1308 C 0.50003 0.94868 0.46275 0.0
C1309 C 0.48638 0.9962 0.50059 0.0
C1310 C 0.53043 0.95648 0.46772 0.0
C1311 C 0.53883 0.98369 0.48891 0.0
loop_
_geom_bond_atom_site_label_1
_geom_bond_atom_site_label_2
_geom_bond_distance
_geom_bond_site_symmetry_2
_ccdc_geom_bond_type
C0 O16 1.251 . S
C0 O18 1.254 . S
N1 C2 1.333 . S
N1 C6 1.307 . S
N1 Zn7 2.020 . S
C2 N1 1.333 . S
C2 C3 1.379 . S
C2 H20 0.952 . S
C3 C2 1.379 . S
C3 C4 1.390 . S
C3 H30 0.949 . S
C4 C3 1.390 . S
C4 C5 1.357 . S
C5 C4 1.357 . S
C5 C6 1.370 . S
C5 H31 0.950 . S
C6 N1 1.307 . S
C6 C5 1.370 . S
C6 H24 0.948 . S
Zn7 N1 2.020 . S
Zn7 O16 2.039 . S
Zn7 O22 2.034 . S
Zn7 O26 2.025 . S
Zn7 O28 2.024 . S
C8 O27 1.246 . S
C8 O28 1.249 . S
N9 C10 1.307 . S
N9 C11 1.333 1_554 S
N9 Zn15 2.020 . S
C10 N9 1.307 . S
C10 C14 1.370 . S
C10 H21 0.948 . S
C11 N9 1.333 1_556 S
C11 C12 1.379 . S
C11 H19 0.952 . S
C12 C11 1.379 . S
C12 C13 1.390 . S
C12 H32 0.949 . S
C13 C12 1.390 . S
C13 C14 1.357 1_556 S
C14 C10 1.370 . S
C14 C13 1.357 1_554 S
C14 H33 0.950 . S
Zn15 N9 2.020 . S
Zn15 O18 2.025 . S
Zn15 O23 2.024 . S
Zn15 O25 2.039 . S
Zn15 O27 2.034 . S
O16 C0 1.251 . S
O16 Zn7 2.039 . S
C17 O22 1.246 . S
C17 O23 1.249 . S
O18 C0 1.254 . S
O18 Zn15 2.025 . S
H19 C11 0.952 . S
H20 C2 0.952 . S
H21 C10 0.948 . S
O22 Zn7 2.034 . S
O22 C17 1.246 . S
O23 Zn15 2.024 . S
O23 C17 1.249 . S
H24 C6 0.948 . S
O25 Zn15 2.039 . S
O25 C29 1.251 . S
O26 Zn7 2.025 . S
O26 C29 1.254 . S
O27 C8 1.246 . S
O27 Zn15 2.034 . S
O28 Zn7 2.024 . S
O28 C8 1.249 . S
C29 O25 1.251 . S
C29 O26 1.254 . S
H30 C3 0.949 . S
H31 C5 0.950 . S
H32 C12 0.949 . S
H33 C14 0.950 . S
C34 O50 1.251 . S
C34 O52 1.254 . S
N35 C36 1.333 . S
N35 C40 1.307 . S
N35 Zn41 2.020 . S
C36 N35 1.333 . S
C36 C37 1.379 . S
C36 H54 0.952 . S
C37 C36 1.379 . S
C37 C38 1.390 . S
C37 H64 0.949 . S
C38 C37 1.390 . S
C38 C39 1.357 . S
C39 C38 1.357 . S
C39 C40 1.370 . S
C39 H65 0.950 . S
C40 N35 1.307 . S
C40 C39 1.370 . S
C40 H58 0.948 . S
Zn41 N35 2.020 . S
Zn41 O50 2.039 . S
Zn41 O56 2.034 . S
Zn41 O60 2.025 . S
Zn41 O62 2.024 . S
C42 O61 1.246 . S
C42 O62 1.249 . S
N43 C44 1.307 . S
N43 C45 1.333 . S
N43 Zn49 2.020 . S
C44 N43 1.307 . S
C44 C48 1.370 . S
C44 H55 0.948 . S
C45 N43 1.333 . S
C45 C46 1.379 . S
C45 H53 0.952 . S
C46 C45 1.379 . S
C46 C47 1.390 . S
C46 H66 0.949 . S
C47 C46 1.390 . S
C47 C48 1.357 . S
C48 C44 1.370 . S
C48 C47 1.357 . S
C48 H67 0.950 . S
Zn49 N43 2.020 . S
Zn49 O52 2.025 . S
Zn49 O57 2.024 . S
Zn49 O59 2.039 . S
Zn49 O61 2.034 . S
O50 C34 1.251 . S
O50 Zn41 2.039 . S
C51 O56 1.246 . S
C51 O57 1.249 . S
O52 C34 1.254 . S
O52 Zn49 2.025 . S
H53 C45 0.952 . S
H54 C36 0.952 . S
H55 C44 0.948 . S
O56 Zn41 2.034 . S
O56 C51 1.246 . S
O57 Zn49 2.024 . S
O57 C51 1.249 . S
H58 C40 0.948 . S
O59 Zn49 2.039 . S
O59 C63 1.251 . S
O60 Zn41 2.025 . S
O60 C63 1.254 . S
O61 C42 1.246 . S
O61 Zn49 2.034 . S
O62 Zn41 2.024 . S
O62 C42 1.249 . S
C63 O59 1.251 . S
C63 O60 1.254 . S
H64 C37 0.949 . S
H65 C39 0.950 . S
H66 C46 0.949 . S
H67 C48 0.950 . S
C68 O84 1.251 . S
C68 O86 1.254 . S
N69 C70 1.333 . S
N69 C74 1.307 . S
N69 Zn75 2.020 . S
C70 N69 1.333 . S
C70 C71 1.379 . S
C70 H88 0.952 . S
C71 C70 1.379 . S
C71 C72 1.390 . S
C71 H98 0.949 . S
C72 C71 1.390 . S
C72 C73 1.357 . S
C73 C72 1.357 . S
C73 C74 1.370 . S
C73 H99 0.950 . S
C74 N69 1.307 . S
C74 C73 1.370 . S
C74 H92 0.948 . S
Zn75 N69 2.020 . S
Zn75 O84 2.039 . S
Zn75 O90 2.034 . S
Zn75 O94 2.025 . S
Zn75 O96 2.024 . S
C76 O95 1.246 . S
C76 O96 1.249 . S
N77 C78 1.307 . S
N77 C79 1.333 . S
N77 Zn83 2.020 . S
C78 N77 1.307 . S
C78 C82 1.370 . S
C78 H89 0.948 . S
C79 N77 1.333 . S
C79 C80 1.379 . S
C79 H87 0.952 . S
C80 C79 1.379 . S
C80 C81 1.390 . S
C80 H100 0.949 . S
C81 C80 1.390 . S
C81 C82 1.357 . S
C82 C78 1.370 . S
C82 C81 1.357 . S
C82 H101 0.950 . S
Zn83 N77 2.020 . S
Zn83 O86 2.025 . S
Zn83 O91 2.024 . S
Zn83 O93 2.039 . S
Zn83 O95 2.034 . S
O84 C68 1.251 . S
O84 Zn75 2.039 . S
C85 O90 1.246 . S
C85 O91 1.249 . S
O86 C68 1.254 . S
O86 Zn83 2.025 . S
H87 C79 0.952 . S
H88 C70 0.952 . S
H89 C78 0.948 . S
O90 Zn75 2.034 . S
O90 C85 1.246 . S
O91 Zn83 2.024 . S
O91 C85 1.249 . S
H92 C74 0.948 . S
O93 Zn83 2.039 . S
O93 C97 1.251 . S
O94 Zn75 2.025 . S
O94 C97 1.254 . S
O95 C76 1.246 . S
O95 Zn83 2.034 . S
O96 Zn75 2.024 . S
O96 C76 1.249 . S
C97 O93 1.251 . S
C97 O94 1.254 . S
H98 C71 0.949 . S
H99 C73 0.950 . S
H100 C80 0.949 . S
H101 C82 0.950 . S
C102 O118 1.251 . S
C102 O120 1.254 . S
N103 C104 1.333 . S
N103 C108 1.307 . S
N103 Zn109 2.020 . S
C104 N103 1.333 . S
C104 C105 1.379 . S
C104 H122 0.952 . S
C105 C104 1.379 . S
C105 C106 1.390 . S
C105 H132 0.949 1_556 S
C106 C105 1.390 . S
C106 C107 1.357 . S
C107 C106 1.357 . S
C107 C108 1.370 . S
C107 H133 0.950 . S
C108 N103 1.307 . S
C108 C107 1.370 . S
C108 H126 0.948 . S
Zn109 N103 2.020 . S
Zn109 O118 2.039 . S
Zn109 O124 2.034 . S
Zn109 O128 2.025 . S
Zn109 O130 2.024 . S
C110 O129 1.246 . S
C110 O130 1.249 . S
N111 C112 1.307 . S
N111 C113 1.335 . S
N111 Zn117 2.020 1_455 S
C112 N111 1.307 . S
C112 C116 1.370 . S
C112 H123 0.948 . S
C113 N111 1.335 . S
C113 C114 1.391 . S
C113 H121 0.937 1_455 S
C114 C113 1.391 . S
C114 C115 1.390 . S
C114 H134 0.949 . S
C115 C114 1.390 . S
C115 C116 1.357 . S
C116 C112 1.370 . S
C116 C115 1.357 . S
C116 H135 0.950 . S
Zn117 N111 2.020 1_655 S
Zn117 O120 2.025 . S
Zn117 O125 2.024 . S
Zn117 O127 2.039 . S
Zn117 O129 2.034 . S
O118 C102 1.251 . S
O118 Zn109 2.039 . S
C119 O124 1.246 . S
C119 O125 1.249 . S
O120 C102 1.254 . S
O120 Zn117 2.025 . S
H121 C113 0.937 1_655 S
H122 C104 0.952 . S
H123 C112 0.948 . S
O124 Zn109 2.034 . S
O124 C119 1.246 . S
O125 Zn117 2.024 . S
O125 C119 1.249 . S
H126 C108 0.948 . S
O127 Zn117 2.039 . S
O127 C131 1.251 . S
O128 Zn109 2.025 . S
O128 C131 1.254 . S
O129 C110 1.246 . S
O129 Zn117 2.034 . S
O130 Zn109 2.024 . S
O130 C110 1.249 . S
C131 O127 1.251 . S
C131 O128 1.254 . S
H132 C105 0.949 1_554 S
H133 C107 0.950 . S
H134 C114 0.949 . S
H135 C116 0.950 . S
C136 O152 1.251 . S
C136 O154 1.254 . S
N137 C138 1.333 1_556 S
N137 C142 1.307 . S
N137 Zn143 2.020 . S
C138 N137 1.333 1_554 S
C138 C139 1.379 . S
C138 H156 0.952 . S
C139 C138 1.379 . S
C139 C140 1.390 . S
C139 H166 0.949 . S
C140 C139 1.390 . S
C140 C141 1.357 1_554 S
C141 C140 1.357 1_556 S
C141 C142 1.370 . S
C141 H167 0.950 . S
C142 N137 1.307 . S
C142 C141 1.370 . S
C142 H160 0.948 . S
Zn143 N137 2.020 . S
Zn143 O152 2.039 . S
Zn143 O158 2.034 . S
Zn143 O162 2.025 . S
Zn143 O164 2.024 . S
C144 O163 1.246 . S
C144 O164 1.249 . S
N145 C146 1.307 . S
N145 C147 1.333 . S
N145 Zn151 2.020 . S
C146 N145 1.307 . S
C146 C150 1.370 . S
C146 H157 0.948 . S
C147 N145 1.333 . S
C147 C148 1.379 . S
C147 H155 0.952 . S
C148 C147 1.379 . S
C148 C149 1.390 . S
C148 H168 0.949 . S
C149 C148 1.390 . S
C149 C150 1.357 . S
C150 C146 1.370 . S
C150 C149 1.357 . S
C150 H169 0.950 . S
Zn151 N145 2.020 . S
Zn151 O154 2.025 . S
Zn151 O159 2.024 . S
Zn151 O161 2.039 . S
Zn151 O163 2.034 . S
O152 C136 1.251 . S
O152 Zn143 2.039 . S
C153 O158 1.246 . S
C153 O159 1.249 . S
O154 C136 1.254 . S
O154 Zn151 2.025 . S
H155 C147 0.952 . S
H156 C138 0.952 . S
H157 C146 0.948 . S
O158 Zn143 2.034 . S
O158 C153 1.246 . S
O159 Zn151 2.024 . S
O159 C153 1.249 . S
H160 C142 0.948 . S
O161 Zn151 2.039 . S
O161 C165 1.251 . S
O162 Zn143 2.025 . S
O162 C165 1.254 . S
O163 C144 1.246 . S
O163 Zn151 2.034 . S
O164 Zn143 2.024 . S
O164 C144 1.249 . S
C165 O161 1.251 . S
C165 O162 1.254 . S
H166 C139 0.949 . S
H167 C141 0.950 . S
H168 C148 0.949 . S
H169 C150 0.950 . S
C170 O186 1.251 . S
C170 O188 1.254 . S
N171 C172 1.333 . S
N171 C176 1.307 . S
N171 Zn177 2.020 . S
C172 N171 1.333 . S
C172 C173 1.379 . S
C172 H190 0.952 . S
C173 C172 1.379 . S
C173 C174 1.390 . S
C173 H200 0.949 . S
C174 C173 1.390 . S
C174 C175 1.357 . S
C175 C174 1.357 . S
C175 C176 1.370 . S
C175 H201 0.950 . S
C176 N171 1.307 . S
C176 C175 1.370 . S
C176 H194 0.948 . S
Zn177 N171 2.020 . S
Zn177 O186 2.039 . S
Zn177 O192 2.034 . S
Zn177 O196 2.025 . S
Zn177 O198 2.024 . S
C178 O197 1.246 . S
C178 O198 1.249 . S
N179 C180 1.307 . S
N179 C181 1.333 . S
N179 Zn185 2.020 . S
C180 N179 1.307 . S
C180 C184 1.370 . S
C180 H191 0.948 . S
C181 N179 1.333 . S
C181 C182 1.379 . S
C181 H189 0.952 . S
C182 C181 1.379 . S
C182 C183 1.390 . S
C182 H202 0.949 . S
C183 C182 1.390 . S
C183 C184 1.357 . S
C184 C180 1.370 . S
C184 C183 1.357 . S
C184 H203 0.950 . S
Zn185 N179 2.020 . S
Zn185 O188 2.025 . S
Zn185 O193 2.024 . S
Zn185 O195 2.039 . S
Zn185 O197 2.034 . S
O186 C170 1.251 . S
O186 Zn177 2.039 . S
C187 O192 1.246 . S
C187 O193 1.249 . S
O188 C170 1.254 . S
O188 Zn185 2.025 . S
H189 C181 0.952 . S
H190 C172 0.952 . S
H191 C180 0.948 . S
O192 Zn177 2.034 . S
O192 C187 1.246 . S
O193 Zn185 2.024 . S
O193 C187 1.249 . S
H194 C176 0.948 . S
O195 Zn185 2.039 . S
O195 C199 1.251 . S
O196 Zn177 2.025 . S
O196 C199 1.254 . S
O197 C178 1.246 . S
O197 Zn185 2.034 . S
O198 Zn177 2.024 . S
O198 C178 1.249 . S
C199 O195 1.251 . S
C199 O196 1.254 . S
H200 C173 0.949 . S
H201 C175 0.950 . S
H202 C182 0.949 . S
H203 C184 0.950 . S
C204 O220 1.251 . S
C204 O222 1.254 . S
N205 C206 1.333 . S
N205 C210 1.307 . S
N205 Zn211 2.020 . S
C206 N205 1.333 . S
C206 C207 1.379 . S
C206 H224 0.952 . S
C207 C206 1.379 . S
C207 C208 1.390 . S
C207 H234 0.949 . S
C208 C207 1.390 . S
C208 C209 1.357 . S
C209 C208 1.357 . S
C209 C210 1.370 . S
C209 H235 0.950 . S
C210 N205 1.307 . S
C210 C209 1.370 . S
C210 H228 0.948 . S
Zn211 N205 2.020 . S
Zn211 O220 2.039 . S
Zn211 O226 2.034 . S
Zn211 O230 2.025 . S
Zn211 O232 2.024 . S
C212 O231 1.246 . S
C212 O232 1.249 . S
N213 C214 1.307 . S
N213 C215 1.333 . S
N213 Zn219 2.020 . S
C214 N213 1.307 . S
C214 C218 1.370 . S
C214 H225 0.948 . S
C215 N213 1.333 . S
C215 C216 1.379 . S
C215 H223 0.952 . S
C216 C215 1.379 . S
C216 C217 1.390 . S
C216 H236 0.949 . S
C217 C216 1.390 . S
C217 C218 1.357 . S
C218 C214 1.370 . S
C218 C217 1.357 . S
C218 H237 0.950 . S
Zn219 N213 2.020 . S
Zn219 O222 2.025 . S
Zn219 O227 2.024 . S
Zn219 O229 2.039 . S
Zn219 O231 2.034 . S
O220 C204 1.251 . S
O220 Zn211 2.039 . S
C221 O226 1.246 . S
C221 O227 1.249 . S
O222 C204 1.254 . S
O222 Zn219 2.025 . S
H223 C215 0.952 . S
H224 C206 0.952 . S
H225 C214 0.948 . S
O226 Zn211 2.034 . S
O226 C221 1.246 . S
O227 Zn219 2.024 . S
O227 C221 1.249 . S
H228 C210 0.948 . S
O229 Zn219 2.039 . S
O229 C233 1.251 . S
O230 Zn211 2.025 . S
O230 C233 1.254 . S
O231 C212 1.246 . S
O231 Zn219 2.034 . S
O232 Zn211 2.024 . S
O232 C212 1.249 . S
C233 O229 1.251 . S
C233 O230 1.254 . S
H234 C207 0.949 . S
H235 C209 0.950 . S
H236 C216 0.949 . S
H237 C218 0.950 . S
C238 O254 1.251 . S
C238 O256 1.254 . S
N239 C240 1.335 . S
N239 C244 1.307 . S
N239 Zn245 2.020 1_655 S
C240 N239 1.335 . S
C240 C241 1.391 . S
C240 H258 0.937 1_655 S
C241 C240 1.391 . S
C241 C242 1.390 . S
C241 H268 0.949 . S
C242 C241 1.390 . S
C242 C243 1.357 . S
C243 C242 1.357 . S
C243 C244 1.370 . S
C243 H269 0.950 . S
C244 N239 1.307 . S
C244 C243 1.370 . S
C244 H262 0.948 . S
Zn245 N239 2.020 1_455 S
Zn245 O254 2.039 . S
Zn245 O260 2.034 . S
Zn245 O264 2.025 . S
Zn245 O266 2.024 . S
C246 O265 1.246 . S
C246 O266 1.249 . S
N247 C248 1.307 . S
N247 C249 1.333 . S
N247 Zn253 2.020 . S
C248 N247 1.307 . S
C248 C252 1.370 . S
C248 H259 0.948 . S
C249 N247 1.333 . S
C249 C250 1.379 . S
C249 H257 0.952 . S
C250 C249 1.379 . S
C250 C251 1.390 . S
C250 H270 0.949 1_554 S
C251 C250 1.390 . S
C251 C252 1.357 . S
C252 C248 1.370 . S
C252 C251 1.357 . S
C252 H271 0.950 . S
Zn253 N247 2.020 . S
Zn253 O256 2.025 . S
Zn253 O261 2.024 . S
Zn253 O263 2.039 . S
Zn253 O265 2.034 . S
O254 C238 1.251 . S
O254 Zn245 2.039 . S
C255 O260 1.246 . S
C255 O261 1.249 . S
O256 C238 1.254 . S
O256 Zn253 2.025 . S
H257 C249 0.952 . S
H258 C240 0.937 1_455 S
H259 C248 0.948 . S
O260 Zn245 2.034 . S
O260 C255 1.246 . S
O261 Zn253 2.024 . S
O261 C255 1.249 . S
H262 C244 0.948 . S
O263 Zn253 2.039 . S
O263 C267 1.251 . S
O264 Zn245 2.025 . S
O264 C267 1.254 . S
O265 C246 1.246 . S
O265 Zn253 2.034 . S
O266 Zn245 2.024 . S
O266 C246 1.249 . S
C267 O263 1.251 . S
C267 O264 1.254 . S
H268 C241 0.949 . S
H269 C243 0.950 . S
H270 C250 0.949 1_556 S
H271 C252 0.950 . S
C272 O288 1.251 . S
C272 O290 1.254 . S
N273 C274 1.333 . S
N273 C278 1.307 . S
N273 Zn279 2.020 . S
C274 N273 1.333 . S
C274 C275 1.379 . S
C274 H292 0.952 . S
C275 C274 1.379 . S
C275 C276 1.390 . S
C275 H302 0.949 . S
C276 C275 1.390 . S
C276 C277 1.357 . S
C277 C276 1.357 . S
C277 C278 1.370 . S
C277 H303 0.950 . S
C278 N273 1.307 . S
C278 C277 1.370 . S
C278 H296 0.948 . S
Zn279 N273 2.020 . S
Zn279 O288 2.039 . S
Zn279 O294 2.034 . S
Zn279 O298 2.025 . S
Zn279 O300 2.024 . S
C280 O299 1.246 . S
C280 O300 1.249 . S
N281 C282 1.307 . S
N281 C283 1.333 . S
N281 Zn287 2.020 . S
C282 N281 1.307 . S
C282 C286 1.370 . S
C282 H293 0.948 . S
C283 N281 1.333 . S
C283 C284 1.379 . S
C283 H291 0.952 . S
C284 C283 1.379 . S
C284 C285 1.390 . S
C284 H304 0.949 . S
C285 C284 1.390 . S
C285 C286 1.357 . S
C286 C282 1.370 . S
C286 C285 1.357 . S
C286 H305 0.950 . S
Zn287 N281 2.020 . S
Zn287 O290 2.025 . S
Zn287 O295 2.024 . S
Zn287 O297 2.039 . S
Zn287 O299 2.034 . S
O288 C272 1.251 . S
O288 Zn279 2.039 . S
C289 O294 1.246 . S
C289 O295 1.249 . S
O290 C272 1.254 . S
O290 Zn287 2.025 . S
H291 C283 0.952 . S
H292 C274 0.952 . S
H293 C282 0.948 . S
O294 Zn279 2.034 . S
O294 C289 1.246 . S
O295 Zn287 2.024 . S
O295 C289 1.249 . S
H296 C278 0.948 . S
O297 Zn287 2.039 . S
O297 C301 1.251 . S
O298 Zn279 2.025 . S
O298 C301 1.254 . S
O299 C280 1.246 . S
O299 Zn287 2.034 . S
O300 Zn279 2.024 . S
O300 C280 1.249 . S
C301 O297 1.251 . S
C301 O298 1.254 . S
H302 C275 0.949 . S
H303 C277 0.950 . S
H304 C284 0.949 . S
H305 C286 0.950 . S
C306 O322 1.251 . S
C306 O324 1.254 . S
N307 C308 1.333 . S
N307 C312 1.307 . S
N307 Zn313 2.020 . S
C308 N307 1.333 . S
C308 C309 1.379 . S
C308 H326 0.952 . S
C309 C308 1.379 . S
C309 C310 1.390 . S
C309 H336 0.949 1_556 S
C310 C309 1.390 . S
C310 C311 1.357 . S
C311 C310 1.357 . S
C311 C312 1.370 . S
C311 H337 0.950 . S
C312 N307 1.307 . S
C312 C311 1.370 . S
C312 H330 0.948 . S
Zn313 N307 2.020 . S
Zn313 O322 2.039 . S
Zn313 O328 2.034 . S
Zn313 O332 2.025 . S
Zn313 O334 2.024 . S
C314 O333 1.246 . S
C314 O334 1.249 . S
N315 C316 1.307 . S
N315 C317 1.335 . S
N315 Zn321 2.020 1_655 S
C316 N315 1.307 . S
C316 C320 1.370 . S
C316 H327 0.948 . S
C317 N315 1.335 . S
C317 C318 1.391 . S
C317 H325 0.937 1_655 S
C318 C317 1.391 . S
C318 C319 1.390 . S
C318 H338 0.949 . S
C319 C318 1.390 . S
C319 C320 1.357 . S
C320 C316 1.370 . S
C320 C319 1.357 . S
C320 H339 0.950 . S
Zn321 N315 2.020 1_455 S
Zn321 O324 2.025 . S
Zn321 O329 2.024 . S
Zn321 O331 2.039 . S
Zn321 O333 2.034 . S
O322 C306 1.251 . S
O322 Zn313 2.039 . S
C323 O328 1.246 . S
C323 O329 1.249 . S
O324 C306 1.254 . S
O324 Zn321 2.025 . S
H325 C317 0.937 1_455 S
H326 C308 0.952 . S
H327 C316 0.948 . S
O328 Zn313 2.034 . S
O328 C323 1.246 . S
O329 Zn321 2.024 . S
O329 C323 1.249 . S
H330 C312 0.948 . S
O331 Zn321 2.039 . S
O331 C335 1.251 . S
O332 Zn313 2.025 . S
O332 C335 1.254 . S
O333 C314 1.246 . S
O333 Zn321 2.034 . S
O334 Zn313 2.024 . S
O334 C314 1.249 . S
C335 O331 1.251 . S
C335 O332 1.254 . S
H336 C309 0.949 1_554 S
H337 C311 0.950 . S
H338 C318 0.949 . S
H339 C320 0.950 . S
C340 O356 1.251 . S
C340 O358 1.254 . S
N341 C342 1.333 . S
N341 C346 1.307 . S
N341 Zn347 2.020 . S
C342 N341 1.333 . S
C342 C343 1.379 . S
C342 H360 0.952 . S
C343 C342 1.379 . S
C343 C344 1.390 . S
C343 H370 0.949 . S
C344 C343 1.390 . S
C344 C345 1.357 . S
C345 C344 1.357 . S
C345 C346 1.370 . S
C345 H371 0.950 . S
C346 N341 1.307 . S
C346 C345 1.370 . S
C346 H364 0.948 . S
Zn347 N341 2.020 . S
Zn347 O356 2.039 . S
Zn347 O362 2.034 . S
Zn347 O366 2.025 . S
Zn347 O368 2.024 . S
C348 O367 1.246 . S
C348 O368 1.249 . S
N349 C350 1.307 . S
N349 C351 1.333 1_554 S
N349 Zn355 2.020 . S
C350 N349 1.307 . S
C350 C354 1.370 . S
C350 H361 0.948 . S
C351 N349 1.333 1_556 S
C351 C352 1.379 . S
C351 H359 0.952 . S
C352 C351 1.379 . S
C352 C353 1.390 . S
C352 H372 0.949 . S
C353 C352 1.390 . S
C353 C354 1.357 1_556 S
C354 C350 1.370 . S
C354 C353 1.357 1_554 S
C354 H373 0.950 . S
Zn355 N349 2.020 . S
Zn355 O358 2.025 . S
Zn355 O363 2.024 . S
Zn355 O365 2.039 . S
Zn355 O367 2.034 . S
O356 C340 1.251 . S
O356 Zn347 2.039 . S
C357 O362 1.246 . S
C357 O363 1.249 . S
O358 C340 1.254 . S
O358 Zn355 2.025 . S
H359 C351 0.952 . S
H360 C342 0.952 . S
H361 C350 0.948 . S
O362 Zn347 2.034 . S
O362 C357 1.246 . S
O363 Zn355 2.024 . S
O363 C357 1.249 . S
H364 C346 0.948 . S
O365 Zn355 2.039 . S
O365 C369 1.251 . S
O366 Zn347 2.025 . S
O366 C369 1.254 . S
O367 C348 1.246 . S
O367 Zn355 2.034 . S
O368 Zn347 2.024 . S
O368 C348 1.249 . S
C369 O365 1.251 . S
C369 O366 1.254 . S
H370 C343 0.949 . S
H371 C345 0.950 . S
H372 C352 0.949 . S
H373 C354 0.950 . S
C374 O390 1.251 . S
C374 O392 1.254 . S
N375 C376 1.333 . S
N375 C380 1.307 . S
N375 Zn381 2.020 . S
C376 N375 1.333 . S
C376 C377 1.379 . S
C376 H394 0.952 . S
C377 C376 1.379 . S
C377 C378 1.390 . S
C377 H404 0.949 . S
C378 C377 1.390 . S
C378 C379 1.357 . S
C379 C378 1.357 . S
C379 C380 1.370 . S
C379 H405 0.950 . S
C380 N375 1.307 . S
C380 C379 1.370 . S
C380 H398 0.948 . S
Zn381 N375 2.020 . S
Zn381 O390 2.039 . S
Zn381 O396 2.034 . S
Zn381 O400 2.025 . S
Zn381 O402 2.024 . S
C382 O401 1.246 . S
C382 O402 1.249 . S
N383 C384 1.307 . S
N383 C385 1.333 . S
N383 Zn389 2.020 . S
C384 N383 1.307 . S
C384 C388 1.370 . S
C384 H395 0.948 . S
C385 N383 1.333 . S
C385 C386 1.379 . S
C385 H393 0.952 . S
C386 C385 1.379 . S
C386 C387 1.390 . S
C386 H406 0.949 . S
C387 C386 1.390 . S
C387 C388 1.357 . S
C388 C384 1.370 . S
C388 C387 1.357 . S
C388 H407 0.950 . S
Zn389 N383 2.020 . S
Zn389 O392 2.025 . S
Zn389 O397 2.024 . S
Zn389 O399 2.039 . S
Zn389 O401 2.034 . S
O390 C374 1.251 . S
O390 Zn381 2.039 . S
C391 O396 1.246 . S
C391 O397 1.249 . S
O392 C374 1.254 . S
O392 Zn389 2.025 . S
H393 C385 0.952 . S
H394 C376 0.952 . S
H395 C384 0.948 . S
O396 Zn381 2.034 . S
O396 C391 1.246 . S
O397 Zn389 2.024 . S
O397 C391 1.249 . S
H398 C380 0.948 . S
O399 Zn389 2.039 . S
O399 C403 1.251 . S
O400 Zn381 2.025 . S
O400 C403 1.254 . S
O401 C382 1.246 . S
O401 Zn389 2.034 . S
O402 Zn381 2.024 . S
O402 C382 1.249 . S
C403 O399 1.251 . S
C403 O400 1.254 . S
H404 C377 0.949 . S
H405 C379 0.950 . S
H406 C386 0.949 . S
H407 C388 0.950 . S
C408 O424 1.251 . S
C408 O426 1.254 . S
N409 C410 1.333 . S
N409 C414 1.307 . S
N409 Zn415 2.020 . S
C410 N409 1.333 . S
C410 C411 1.379 . S
C410 H428 0.952 . S
C411 C410 1.379 . S
C411 C412 1.390 . S
C411 H438 0.949 . S
C412 C411 1.390 . S
C412 C413 1.357 . S
C413 C412 1.357 . S
C413 C414 1.370 . S
C413 H439 0.950 . S
C414 N409 1.307 . S
C414 C413 1.370 . S
C414 H432 0.948 . S
Zn415 N409 2.020 . S
Zn415 O424 2.039 . S
Zn415 O430 2.034 . S
Zn415 O434 2.025 . S
Zn415 O436 2.024 . S
C416 O435 1.246 . S
C416 O436 1.249 . S
N417 C418 1.307 . S
N417 C419 1.333 . S
N417 Zn423 2.020 . S
C418 N417 1.307 . S
C418 C422 1.370 . S
C418 H429 0.948 . S
C419 N417 1.333 . S
C419 C420 1.379 . S
C419 H427 0.952 . S
C420 C419 1.379 . S
C420 C421 1.390 . S
C420 H440 0.949 . S
C421 C420 1.390 . S
C421 C422 1.357 . S
C422 C418 1.370 . S
C422 C421 1.357 . S
C422 H441 0.950 . S
Zn423 N417 2.020 . S
Zn423 O426 2.025 . S
Zn423 O431 2.024 . S
Zn423 O433 2.039 . S
Zn423 O435 2.034 . S
O424 C408 1.251 . S
O424 Zn415 2.039 . S
C425 O430 1.246 . S
C425 O431 1.249 . S
O426 C408 1.254 . S
O426 Zn423 2.025 . S
H427 C419 0.952 . S
H428 C410 0.952 . S
H429 C418 0.948 . S
O430 Zn415 2.034 . S
O430 C425 1.246 . S
O431 Zn423 2.024 . S
O431 C425 1.249 . S
H432 C414 0.948 . S
O433 Zn423 2.039 . S
O433 C437 1.251 . S
O434 Zn415 2.025 . S
O434 C437 1.254 . S
O435 C416 1.246 . S
O435 Zn423 2.034 . S
O436 Zn415 2.024 . S
O436 C416 1.249 . S
C437 O433 1.251 . S
C437 O434 1.254 . S
H438 C411 0.949 . S
H439 C413 0.950 . S
H440 C420 0.949 . S
H441 C422 0.950 . S
C442 O458 1.251 . S
C442 O460 1.254 . S
N443 C444 1.335 . S
N443 C448 1.307 . S
N443 Zn449 2.020 1_455 S
C444 N443 1.335 . S
C444 C445 1.391 . S
C444 H462 0.937 1_455 S
C445 C444 1.391 . S
C445 C446 1.390 . S
C445 H472 0.949 . S
C446 C445 1.390 . S
C446 C447 1.357 . S
C447 C446 1.357 . S
C447 C448 1.370 . S
C447 H473 0.950 . S
C448 N443 1.307 . S
C448 C447 1.370 . S
C448 H466 0.948 . S
Zn449 N443 2.020 1_655 S
Zn449 O458 2.039 . S
Zn449 O464 2.034 . S
Zn449 O468 2.025 . S
Zn449 O470 2.024 . S
C450 O469 1.246 . S
C450 O470 1.249 . S
N451 C452 1.307 . S
N451 C453 1.333 . S
N451 Zn457 2.020 . S
C452 N451 1.307 . S
C452 C456 1.370 . S
C452 H463 0.948 . S
C453 N451 1.333 . S
C453 C454 1.379 . S
C453 H461 0.952 . S
C454 C453 1.379 . S
C454 C455 1.390 . S
C454 H474 0.949 1_554 S
C455 C454 1.390 . S
C455 C456 1.357 . S
C456 C452 1.370 . S
C456 C455 1.357 . S
C456 H475 0.950 . S
Zn457 N451 2.020 . S
Zn457 O460 2.025 . S
Zn457 O465 2.024 . S
Zn457 O467 2.039 . S
Zn457 O469 2.034 . S
O458 C442 1.251 . S
O458 Zn449 2.039 . S
C459 O464 1.246 . S
C459 O465 1.249 . S
O460 C442 1.254 . S
O460 Zn457 2.025 . S
H461 C453 0.952 . S
H462 C444 0.937 1_655 S
H463 C452 0.948 . S
O464 Zn449 2.034 . S
O464 C459 1.246 . S
O465 Zn457 2.024 . S
O465 C459 1.249 . S
H466 C448 0.948 . S
O467 Zn457 2.039 . S
O467 C471 1.251 . S
O468 Zn449 2.025 . S
O468 C471 1.254 . S
O469 C450 1.246 . S
O469 Zn457 2.034 . S
O470 Zn449 2.024 . S
O470 C450 1.249 . S
C471 O467 1.251 . S
C471 O468 1.254 . S
H472 C445 0.949 . S
H473 C447 0.950 . S
H474 C454 0.949 1_556 S
H475 C456 0.950 . S
C476 O492 1.251 . S
C476 O494 1.254 . S
N477 C478 1.333 1_556 S
N477 C482 1.307 . S
N477 Zn483 2.020 . S
C478 N477 1.333 1_554 S
C478 C479 1.379 . S
C478 H496 0.952 . S
C479 C478 1.379 . S
C479 C480 1.390 . S
C479 H506 0.949 . S
C480 C479 1.390 . S
C480 C481 1.357 1_554 S
C481 C480 1.357 1_556 S
C481 C482 1.370 . S
C481 H507 0.950 . S
C482 N477 1.307 . S
C482 C481 1.370 . S
C482 H500 0.948 . S
Zn483 N477 2.020 . S
Zn483 O492 2.039 . S
Zn483 O498 2.034 . S
Zn483 O502 2.025 . S
Zn483 O504 2.024 . S
C484 O503 1.246 . S
C484 O504 1.249 . S
N485 C486 1.307 . S
N485 C487 1.333 . S
N485 Zn491 2.020 . S
C486 N485 1.307 . S
C486 C490 1.370 . S
C486 H497 0.948 . S
C487 N485 1.333 . S
C487 C488 1.379 . S
C487 H495 0.952 . S
C488 C487 1.379 . S
C488 C489 1.390 . S
C488 H508 0.949 . S
C489 C488 1.390 . S
C489 C490 1.357 . S
C490 C486 1.370 . S
C490 C489 1.357 . S
C490 H509 0.950 . S
Zn491 N485 2.020 . S
Zn491 O494 2.025 . S
Zn491 O499 2.024 . S
Zn491 O501 2.039 . S
Zn491 O503 2.034 . S
O492 C476 1.251 . S
O492 Zn483 2.039 . S
C493 O498 1.246 . S
C493 O499 1.249 . S
O494 C476 1.254 . S
O494 Zn491 2.025 . S
H495 C487 0.952 . S
H496 C478 0.952 . S
H497 C486 0.948 . S
O498 Zn483 2.034 . S
O498 C493 1.246 . S
O499 Zn491 2.024 . S
O499 C493 1.249 . S
H500 C482 0.948 . S
O501 Zn491 2.039 . S
O501 C505 1.251 . S
O502 Zn483 2.025 . S
O502 C505 1.254 . S
O503 C484 1.246 . S
O503 Zn491 2.034 . S
O504 Zn483 2.024 . S
O504 C484 1.249 . S
C505 O501 1.251 . S
C505 O502 1.254 . S
H506 C479 0.949 . S
H507 C481 0.950 . S
H508 C488 0.949 . S
H509 C490 0.950 . S
C510 O526 1.251 . S
C510 O528 1.254 . S
N511 C512 1.333 . S
N511 C516 1.307 . S
N511 Zn517 2.020 . S
C512 N511 1.333 . S
C512 C513 1.379 . S
C512 H530 0.952 . S
C513 C512 1.379 . S
C513 C514 1.390 . S
C513 H540 0.949 . S
C514 C513 1.390 . S
C514 C515 1.357 . S
C515 C514 1.357 . S
C515 C516 1.370 . S
C515 H541 0.950 . S
C516 N511 1.307 . S
C516 C515 1.370 . S
C516 H534 0.948 . S
Zn517 N511 2.020 . S
Zn517 O526 2.039 . S
Zn517 O532 2.034 . S
Zn517 O536 2.025 . S
Zn517 O538 2.024 . S
C518 O537 1.246 . S
C518 O538 1.249 . S
N519 C520 1.307 . S
N519 C521 1.333 . S
N519 Zn525 2.020 . S
C520 N519 1.307 . S
C520 C524 1.370 . S
C520 H531 0.948 . S
C521 N519 1.333 . S
C521 C522 1.379 . S
C521 H529 0.952 . S
C522 C521 1.379 . S
C522 C523 1.390 . S
C522 H542 0.949 . S
C523 C522 1.390 . S
C523 C524 1.357 . S
C524 C520 1.370 . S
C524 C523 1.357 . S
C524 H543 0.950 . S
Zn525 N519 2.020 . S
Zn525 O528 2.025 . S
Zn525 O533 2.024 . S
Zn525 O535 2.039 . S
Zn525 O537 2.034 . S
O526 C510 1.251 . S
O526 Zn517 2.039 . S
C527 O532 1.246 . S
C527 O533 1.249 . S
O528 C510 1.254 . S
O528 Zn525 2.025 . S
H529 C521 0.952 . S
H530 C512 0.952 . S
H531 C520 0.948 . S
O532 Zn517 2.034 . S
O532 C527 1.246 . S
O533 Zn525 2.024 . S
O533 C527 1.249 . S
H534 C516 0.948 . S
O535 Zn525 2.039 . S
O535 C539 1.251 . S
O536 Zn517 2.025 . S
O536 C539 1.254 . S
O537 C518 1.246 . S
O537 Zn525 2.034 . S
O538 Zn517 2.024 . S
O538 C518 1.249 . S
C539 O535 1.251 . S
C539 O536 1.254 . S
H540 C513 0.949 . S
H541 C515 0.950 . S
H542 C522 0.949 . S
H543 C524 0.950 . S
H544 C550 0.930 . S
H545 C553 0.930 . S
H546 C554 0.930 . S
H547 C555 0.930 . S
H548 C558 0.930 . S
H549 C559 0.930 . S
C550 H544 0.930 . S
C550 C551 1.355 . S
C550 C552 1.415 . S
C551 C550 1.355 . S
C551 C553 1.419 . S
C552 C550 1.415 . S
C552 C557 1.425 . S
C552 C559 1.409 . S
C553 H545 0.930 . S
C553 C551 1.419 . S
C553 C554 1.362 . S
C554 H546 0.930 . S
C554 C553 1.362 . S
C554 C557 1.409 . S
C555 H547 0.930 . S
C555 C556 1.355 . S
C555 C557 1.415 . S
C556 C555 1.355 . S
C556 C558 1.419 . S
C557 C552 1.425 . S
C557 C554 1.409 . S
C557 C555 1.415 . S
C558 H548 0.930 . S
C558 C556 1.419 . S
C558 C559 1.362 . S
C559 H549 0.930 . S
C559 C552 1.409 . S
C559 C558 1.362 . S
H560 C566 0.930 . S
H561 C569 0.930 . S
H562 C570 0.930 . S
H563 C571 0.930 . S
H564 C574 0.930 . S
H565 C575 0.930 . S
C566 H560 0.930 . S
C566 C567 1.355 . S
C566 C568 1.415 . S
C567 C566 1.355 . S
C567 C569 1.419 . S
C568 C566 1.415 . S
C568 C573 1.425 . S
C568 C575 1.409 . S
C569 H561 0.930 . S
C569 C567 1.419 . S
C569 C570 1.362 . S
C570 H562 0.930 . S
C570 C569 1.362 . S
C570 C573 1.409 . S
C571 H563 0.930 . S
C571 C572 1.355 . S
C571 C573 1.415 . S
C572 C571 1.355 . S
C572 C574 1.419 . S
C573 C568 1.425 . S
C573 C570 1.409 . S
C573 C571 1.415 . S
C574 H564 0.930 . S
C574 C572 1.419 . S
C574 C575 1.362 . S
C575 H565 0.930 . S
C575 C568 1.409 . S
C575 C574 1.362 . S
H576 C582 0.930 . S
H577 C585 0.930 . S
H578 C586 0.930 . S
H579 C587 0.930 . S
H580 C590 0.930 . S
H581 C591 0.930 . S
C582 H576 0.930 . S
C582 C583 1.355 . S
C582 C584 1.415 1_455 S
C583 C582 1.355 . S
C583 C585 1.419 . S
C584 C582 1.415 1_655 S
C584 C589 1.425 1_655 S
C584 C591 1.409 . S
C585 H577 0.930 . S
C585 C583 1.419 . S
C585 C586 1.362 . S
C586 H578 0.930 . S
C586 C585 1.362 . S
C586 C589 1.409 . S
C587 H579 0.930 . S
C587 C588 1.355 . S
C587 C589 1.415 1_655 S
C588 C587 1.355 . S
C588 C590 1.419 . S
C589 C584 1.425 1_455 S
C589 C586 1.409 . S
C589 C587 1.415 1_455 S
C590 H580 0.930 . S
C590 C588 1.419 . S
C590 C591 1.362 . S
C591 H581 0.930 . S
C591 C584 1.409 . S
C591 C590 1.362 . S
H592 C598 0.930 . S
H593 C601 0.930 . S
H594 C602 0.930 . S
H595 C603 0.930 . S
H596 C606 0.930 . S
H597 C607 0.930 . S
C598 H592 0.930 . S
C598 C599 1.355 1_455 S
C598 C600 1.415 . S
C599 C598 1.355 1_655 S
C599 C601 1.419 . S
C600 C598 1.415 . S
C600 C605 1.425 1_455 S
C600 C607 1.409 . S
C601 H593 0.930 . S
C601 C599 1.419 . S
C601 C602 1.362 . S
C602 H594 0.930 . S
C602 C601 1.362 . S
C602 C605 1.409 . S
C603 H595 0.930 . S
C603 C604 1.355 1_655 S
C603 C605 1.415 . S
C604 C603 1.355 1_455 S
C604 C606 1.419 . S
C605 C600 1.425 1_655 S
C605 C602 1.409 . S
C605 C603 1.415 . S
C606 H596 0.930 . S
C606 C604 1.419 . S
C606 C607 1.362 . S
C607 H597 0.930 . S
C607 C600 1.409 . S
C607 C606 1.362 . S
H608 C614 0.930 . S
H609 C617 0.930 . S
H610 C618 0.930 . S
H611 C619 0.930 . S
H612 C622 0.930 . S
H613 C623 0.930 . S
C614 H608 0.930 . S
C614 C615 1.355 . S
C614 C616 1.415 . S
C615 C614 1.355 . S
C615 C617 1.419 . S
C616 C614 1.415 . S
C616 C621 1.425 . S
C616 C623 1.409 . S
C617 H609 0.930 . S
C617 C615 1.419 . S
C617 C618 1.362 . S
C618 H610 0.930 . S
C618 C617 1.362 . S
C618 C621 1.409 . S
C619 H611 0.930 . S
C619 C620 1.355 . S
C619 C621 1.415 . S
C620 C619 1.355 . S
C620 C622 1.419 . S
C621 C616 1.425 . S
C621 C618 1.409 . S
C621 C619 1.415 . S
C622 H612 0.930 . S
C622 C620 1.419 . S
C622 C623 1.362 . S
C623 H613 0.930 . S
C623 C616 1.409 . S
C623 C622 1.362 . S
H624 C630 0.930 . S
H625 C633 0.930 . S
H626 C634 0.930 . S
H627 C635 0.930 . S
H628 C638 0.930 . S
H629 C639 0.930 . S
C630 H624 0.930 . S
C630 C631 1.355 . S
C630 C632 1.415 . S
C631 C630 1.355 . S
C631 C633 1.419 . S
C632 C630 1.415 . S
C632 C637 1.425 . S
C632 C639 1.409 . S
C633 H625 0.930 . S
C633 C631 1.419 . S
C633 C634 1.362 . S
C634 H626 0.930 . S
C634 C633 1.362 . S
C634 C637 1.409 . S
C635 H627 0.930 . S
C635 C636 1.355 . S
C635 C637 1.415 . S
C636 C635 1.355 . S
C636 C638 1.419 . S
C637 C632 1.425 . S
C637 C634 1.409 . S
C637 C635 1.415 . S
C638 H628 0.930 . S
C638 C636 1.419 . S
C638 C639 1.362 . S
C639 H629 0.930 . S
C639 C632 1.409 . S
C639 C638 1.362 . S
H640 C646 0.930 . S
H641 C649 0.930 . S
H642 C650 0.934 . S
H643 C651 0.930 . S
H644 C654 0.930 . S
H645 C655 0.934 . S
C646 H640 0.930 . S
C646 C647 1.355 . S
C646 C648 1.415 . S
C647 C646 1.355 . S
C647 C649 1.419 . S
C648 C646 1.415 . S
C648 C653 1.425 1_655 S
C648 C655 1.411 . S
C649 H641 0.930 . S
C649 C647 1.419 . S
C649 C650 1.357 1_655 S
C650 H642 0.934 . S
C650 C649 1.357 1_455 S
C650 C653 1.411 . S
C651 H643 0.930 . S
C651 C652 1.355 . S
C651 C653 1.415 . S
C652 C651 1.355 . S
C652 C654 1.419 . S
C653 C648 1.425 1_455 S
C653 C650 1.411 . S
C653 C651 1.415 . S
C654 H644 0.930 . S
C654 C652 1.419 . S
C654 C655 1.357 1_455 S
C655 H645 0.934 . S
C655 C648 1.411 . S
C655 C654 1.357 1_655 S
H656 C662 0.930 . S
H657 C665 0.930 . S
H658 C666 0.930 1_655 S
H659 C667 0.930 . S
H660 C670 0.930 . S
H661 C671 0.930 1_455 S
C662 H656 0.930 . S
C662 C663 1.355 . S
C662 C664 1.415 . S
C663 C662 1.355 . S
C663 C665 1.419 . S
C664 C662 1.415 . S
C664 C669 1.425 1_455 S
C664 C671 1.409 1_455 S
C665 H657 0.930 . S
C665 C663 1.419 . S
C665 C666 1.362 . S
C666 H658 0.930 1_455 S
C666 C665 1.362 . S
C666 C669 1.409 1_455 S
C667 H659 0.930 . S
C667 C668 1.355 . S
C667 C669 1.415 . S
C668 C667 1.355 . S
C668 C670 1.419 . S
C669 C664 1.425 1_655 S
C669 C666 1.409 1_655 S
C669 C667 1.415 . S
C670 H660 0.930 . S
C670 C668 1.419 . S
C670 C671 1.362 . S
C671 H661 0.930 1_655 S
C671 C664 1.409 1_655 S
C671 C670 1.362 . S
H672 C678 0.930 . S
H673 C681 0.930 . S
H674 C682 0.930 . S
H675 C683 0.930 . S
H676 C686 0.930 . S
H677 C687 0.930 . S
C678 H672 0.930 . S
C678 C679 1.354 1_556 S
C678 C680 1.415 1_556 S
C679 C678 1.354 1_554 S
C679 C681 1.422 . S
C680 C678 1.415 1_554 S
C680 C685 1.425 . S
C680 C687 1.409 1_554 S
C681 H673 0.930 . S
C681 C679 1.422 . S
C681 C682 1.362 . S
C682 H674 0.930 . S
C682 C681 1.362 . S
C682 C685 1.409 . S
C683 H675 0.930 . S
C683 C684 1.355 . S
C683 C685 1.415 . S
C684 C683 1.355 . S
C684 C686 1.419 . S
C685 C680 1.425 . S
C685 C682 1.409 . S
C685 C683 1.415 . S
C686 H676 0.930 . S
C686 C684 1.419 . S
C686 C687 1.362 1_554 S
C687 H677 0.930 . S
C687 C680 1.409 1_556 S
C687 C686 1.362 1_556 S
H688 C694 0.930 . S
H689 C697 0.930 . S
H690 C698 0.930 . S
H691 C699 0.930 . S
H692 C702 0.930 . S
H693 C703 0.930 . S
C694 H688 0.930 . S
C694 C695 1.355 . S
C694 C696 1.415 . S
C695 C694 1.355 . S
C695 C697 1.419 . S
C696 C694 1.415 . S
C696 C701 1.425 . S
C696 C703 1.409 . S
C697 H689 0.930 . S
C697 C695 1.419 . S
C697 C698 1.362 . S
C698 H690 0.930 . S
C698 C697 1.362 . S
C698 C701 1.409 . S
C699 H691 0.930 . S
C699 C700 1.355 . S
C699 C701 1.415 . S
C700 C699 1.355 . S
C700 C702 1.419 . S
C701 C696 1.425 . S
C701 C698 1.409 . S
C701 C699 1.415 . S
C702 H692 0.930 . S
C702 C700 1.419 . S
C702 C703 1.362 . S
C703 H693 0.930 . S
C703 C696 1.409 . S
C703 C702 1.362 . S
H704 C710 0.930 . S
H705 C713 0.930 . S
H706 C714 0.930 . S
H707 C715 0.930 . S
H708 C718 0.930 . S
H709 C719 0.930 . S
C710 H704 0.930 . S
C710 C711 1.355 . S
C710 C712 1.415 . S
C711 C710 1.355 . S
C711 C713 1.419 . S
C712 C710 1.415 . S
C712 C717 1.425 . S
C712 C719 1.409 . S
C713 H705 0.930 . S
C713 C711 1.419 . S
C713 C714 1.362 . S
C714 H706 0.930 . S
C714 C713 1.362 . S
C714 C717 1.409 . S
C715 H707 0.930 . S
C715 C716 1.355 . S
C715 C717 1.415 . S
C716 C715 1.355 . S
C716 C718 1.419 . S
C717 C712 1.425 . S
C717 C714 1.409 . S
C717 C715 1.415 . S
C718 H708 0.930 . S
C718 C716 1.419 . S
C718 C719 1.362 . S
C719 H709 0.930 . S
C719 C712 1.409 . S
C719 C718 1.362 . S
H720 C726 0.930 . S
H721 C729 0.930 . S
H722 C730 0.930 . S
H723 C731 0.930 . S
H724 C734 0.930 . S
H725 C735 0.930 . S
C726 H720 0.930 . S
C726 C727 1.355 . S
C726 C728 1.415 . S
C727 C726 1.355 . S
C727 C729 1.419 . S
C728 C726 1.415 . S
C728 C733 1.425 . S
C728 C735 1.409 . S
C729 H721 0.930 . S
C729 C727 1.419 . S
C729 C730 1.362 . S
C730 H722 0.930 . S
C730 C729 1.362 . S
C730 C733 1.409 . S
C731 H723 0.930 . S
C731 C732 1.355 . S
C731 C733 1.415 . S
C732 C731 1.355 . S
C732 C734 1.419 . S
C733 C728 1.425 . S
C733 C730 1.409 . S
C733 C731 1.415 . S
C734 H724 0.930 . S
C734 C732 1.419 . S
C734 C735 1.362 . S
C735 H725 0.930 . S
C735 C728 1.409 . S
C735 C734 1.362 . S
H736 C742 0.930 . S
H737 C745 0.930 . S
H738 C746 0.930 . S
H739 C747 0.930 . S
H740 C750 0.930 . S
H741 C751 0.930 . S
C742 H736 0.930 . S
C742 C743 1.355 . S
C742 C744 1.415 . S
C743 C742 1.355 . S
C743 C745 1.419 . S
C744 C742 1.415 . S
C744 C749 1.425 . S
C744 C751 1.409 . S
C745 H737 0.930 . S
C745 C743 1.419 . S
C745 C746 1.362 . S
C746 H738 0.930 . S
C746 C745 1.362 . S
C746 C749 1.409 . S
C747 H739 0.930 . S
C747 C748 1.355 1_556 S
C747 C749 1.415 . S
C748 C747 1.355 1_554 S
C748 C750 1.419 . S
C749 C744 1.425 . S
C749 C746 1.409 . S
C749 C747 1.415 . S
C750 H740 0.930 . S
C750 C748 1.419 . S
C750 C751 1.362 1_554 S
C751 H741 0.930 . S
C751 C744 1.409 . S
C751 C750 1.362 1_556 S
H752 C758 0.930 . S
H753 C761 0.930 . S
H754 C762 0.930 . S
H755 C763 0.930 . S
H756 C766 0.930 . S
H757 C767 0.930 . S
C758 H752 0.930 . S
C758 C759 1.355 . S
C758 C760 1.415 . S
C759 C758 1.355 . S
C759 C761 1.419 . S
C760 C758 1.415 . S
C760 C765 1.425 . S
C760 C767 1.409 . S
C761 H753 0.930 . S
C761 C759 1.419 . S
C761 C762 1.362 . S
C762 H754 0.930 . S
C762 C761 1.362 . S
C762 C765 1.409 . S
C763 H755 0.930 . S
C763 C764 1.355 . S
C763 C765 1.415 . S
C764 C763 1.355 . S
C764 C766 1.419 . S
C765 C760 1.425 . S
C765 C762 1.409 . S
C765 C763 1.415 . S
C766 H756 0.930 . S
C766 C764 1.419 . S
C766 C767 1.362 . S
C767 H757 0.930 . S
C767 C760 1.409 . S
C767 C766 1.362 . S
H768 C774 0.930 . S
H769 C777 0.930 . S
H770 C778 0.930 . S
H771 C779 0.930 . S
H772 C782 0.930 . S
H773 C783 0.930 . S
C774 H768 0.930 . S
C774 C775 1.355 . S
C774 C776 1.415 . S
C775 C774 1.355 . S
C775 C777 1.419 . S
C776 C774 1.415 . S
C776 C781 1.425 . S
C776 C783 1.409 . S
C777 H769 0.930 . S
C777 C775 1.419 . S
C777 C778 1.362 . S
C778 H770 0.930 . S
C778 C777 1.362 . S
C778 C781 1.409 . S
C779 H771 0.930 . S
C779 C780 1.355 . S
C779 C781 1.415 . S
C780 C779 1.355 . S
C780 C782 1.419 . S
C781 C776 1.425 . S
C781 C778 1.409 . S
C781 C779 1.415 . S
C782 H772 0.930 . S
C782 C780 1.419 . S
C782 C783 1.362 . S
C783 H773 0.930 . S
C783 C776 1.409 . S
C783 C782 1.362 . S
H784 C790 0.930 . S
H785 C793 0.930 . S
H786 C794 0.930 . S
H787 C795 0.930 . S
H788 C798 0.930 . S
H789 C799 0.930 . S
C790 H784 0.930 . S
C790 C791 1.355 . S
C790 C792 1.415 . S
C791 C790 1.355 . S
C791 C793 1.419 . S
C792 C790 1.415 . S
C792 C797 1.425 . S
C792 C799 1.409 . S
C793 H785 0.930 . S
C793 C791 1.419 . S
C793 C794 1.362 . S
C794 H786 0.930 . S
C794 C793 1.362 . S
C794 C797 1.409 . S
C795 H787 0.930 . S
C795 C796 1.355 . S
C795 C797 1.415 . S
C796 C795 1.355 . S
C796 C798 1.419 . S
C797 C792 1.425 . S
C797 C794 1.409 . S
C797 C795 1.415 . S
C798 H788 0.930 . S
C798 C796 1.419 . S
C798 C799 1.362 . S
C799 H789 0.930 . S
C799 C792 1.409 . S
C799 C798 1.362 . S
H800 C806 0.930 . S
H801 C809 0.930 . S
H802 C810 0.930 . S
H803 C811 0.930 . S
H804 C814 0.930 . S
H805 C815 0.930 . S
C806 H800 0.930 . S
C806 C807 1.355 . S
C806 C808 1.415 . S
C807 C806 1.355 . S
C807 C809 1.419 . S
C808 C806 1.415 . S
C808 C813 1.425 . S
C808 C815 1.409 . S
C809 H801 0.930 . S
C809 C807 1.419 . S
C809 C810 1.362 . S
C810 H802 0.930 . S
C810 C809 1.362 . S
C810 C813 1.409 . S
C811 H803 0.930 . S
C811 C812 1.355 . S
C811 C813 1.415 . S
C812 C811 1.355 . S
C812 C814 1.419 . S
C813 C808 1.425 . S
C813 C810 1.409 . S
C813 C811 1.415 . S
C814 H804 0.930 . S
C814 C812 1.419 . S
C814 C815 1.362 . S
C815 H805 0.930 . S
C815 C808 1.409 . S
C815 C814 1.362 . S
H816 C822 0.930 . S
H817 C825 0.930 . S
H818 C826 0.930 . S
H819 C827 0.930 . S
H820 C830 0.930 . S
H821 C831 0.930 . S
C822 H816 0.930 . S
C822 C823 1.355 . S
C822 C824 1.415 1_545 S
C823 C822 1.355 . S
C823 C825 1.419 . S
C824 C822 1.415 1_565 S
C824 C829 1.425 . S
C824 C831 1.409 . S
C825 H817 0.930 . S
C825 C823 1.419 . S
C825 C826 1.362 1_545 S
C826 H818 0.930 . S
C826 C825 1.362 1_565 S
C826 C829 1.409 . S
C827 H819 0.930 . S
C827 C828 1.355 . S
C827 C829 1.415 . S
C828 C827 1.355 . S
C828 C830 1.419 . S
C829 C824 1.425 . S
C829 C826 1.409 . S
C829 C827 1.415 . S
C830 H820 0.930 . S
C830 C828 1.419 . S
C830 C831 1.362 . S
C831 H821 0.930 . S
C831 C824 1.409 . S
C831 C830 1.362 . S
H832 C838 0.930 1_556 S
H833 C841 0.930 . S
H834 C842 0.930 . S
H835 C843 0.930 . S
H836 C846 0.930 . S
H837 C847 0.930 . S
C838 H832 0.930 1_554 S
C838 C839 1.355 . S
C838 C840 1.416 . S
C839 C838 1.355 . S
C839 C841 1.419 . S
C840 C838 1.416 . S
C840 C845 1.432 . S
C840 C847 1.402 1_554 S
C841 H833 0.930 . S
C841 C839 1.419 . S
C841 C842 1.362 . S
C842 H834 0.930 . S
C842 C841 1.362 . S
C842 C845 1.409 . S
C843 H835 0.930 . S
C843 C844 1.355 1_554 S
C843 C845 1.415 . S
C844 C843 1.355 1_556 S
C844 C846 1.419 . S
C845 C840 1.432 . S
C845 C842 1.409 . S
C845 C843 1.415 . S
C846 H836 0.930 . S
C846 C844 1.419 . S
C846 C847 1.362 . S
C847 H837 0.930 . S
C847 C840 1.402 1_556 S
C847 C846 1.362 . S
H848 C854 0.930 . S
H849 C857 0.930 . S
H850 C858 0.930 1_545 S
H851 C859 0.930 . S
H852 C862 0.930 . S
H853 C863 0.930 . S
C854 H848 0.930 . S
C854 C855 1.355 . S
C854 C856 1.415 1_565 S
C855 C854 1.355 . S
C855 C857 1.419 . S
C856 C854 1.415 1_545 S
C856 C861 1.425 . S
C856 C863 1.409 . S
C857 H849 0.930 . S
C857 C855 1.419 . S
C857 C858 1.362 . S
C858 H850 0.930 1_565 S
C858 C857 1.362 . S
C858 C861 1.409 1_565 S
C859 H851 0.930 . S
C859 C860 1.355 . S
C859 C861 1.415 . S
C860 C859 1.355 . S
C860 C862 1.419 . S
C861 C856 1.425 . S
C861 C858 1.409 1_545 S
C861 C859 1.415 . S
C862 H852 0.930 . S
C862 C860 1.419 . S
C862 C863 1.362 . S
C863 H853 0.930 . S
C863 C856 1.409 . S
C863 C862 1.362 . S
H864 C870 0.930 . S
H865 C873 0.930 . S
H866 C874 0.930 . S
H867 C875 0.930 . S
H868 C878 0.930 . S
H869 C879 0.930 . S
C870 H864 0.930 . S
C870 C871 1.355 . S
C870 C872 1.415 . S
C871 C870 1.355 . S
C871 C873 1.419 . S
C872 C870 1.415 . S
C872 C877 1.425 . S
C872 C879 1.409 . S
C873 H865 0.930 . S
C873 C871 1.419 . S
C873 C874 1.362 . S
C874 H866 0.930 . S
C874 C873 1.362 . S
C874 C877 1.409 . S
C875 H867 0.930 . S
C875 C876 1.355 . S
C875 C877 1.415 . S
C876 C875 1.355 . S
C876 C878 1.419 . S
C877 C872 1.425 . S
C877 C874 1.409 . S
C877 C875 1.415 . S
C878 H868 0.930 . S
C878 C876 1.419 . S
C878 C879 1.362 . S
C879 H869 0.930 . S
C879 C872 1.409 . S
C879 C878 1.362 . S
H880 C886 0.930 . S
H881 C889 0.930 . S
H882 C890 0.930 . S
H883 C891 0.930 . S
H884 C894 0.930 . S
H885 C895 0.930 1_545 S
C886 H880 0.930 . S
C886 C887 1.355 . S
C886 C888 1.415 . S
C887 C886 1.355 . S
C887 C889 1.419 . S
C888 C886 1.415 . S
C888 C893 1.425 . S
C888 C895 1.409 1_545 S
C889 H881 0.930 . S
C889 C887 1.419 . S
C889 C890 1.362 . S
C890 H882 0.930 . S
C890 C889 1.362 . S
C890 C893 1.409 . S
C891 H883 0.930 . S
C891 C892 1.355 . S
C891 C893 1.415 1_565 S
C892 C891 1.355 . S
C892 C894 1.419 . S
C893 C888 1.425 . S
C893 C890 1.409 . S
C893 C891 1.415 1_545 S
C894 H884 0.930 . S
C894 C892 1.419 . S
C894 C895 1.362 . S
C895 H885 0.930 1_565 S
C895 C888 1.409 1_565 S
C895 C894 1.362 . S
H896 C902 0.930 . S
H897 C905 0.930 . S
H898 C906 0.930 . S
H899 C907 0.930 . S
H900 C910 0.930 . S
H901 C911 0.930 . S
C902 H896 0.930 . S
C902 C903 1.355 1_556 S
C902 C904 1.415 . S
C903 C902 1.355 1_554 S
C903 C905 1.419 . S
C904 C902 1.415 . S
C904 C909 1.425 . S
C904 C911 1.409 . S
C905 H897 0.930 . S
C905 C903 1.419 . S
C905 C906 1.362 . S
C906 H898 0.930 . S
C906 C905 1.362 . S
C906 C909 1.409 1_554 S
C907 H899 0.930 . S
C907 C908 1.355 . S
C907 C909 1.415 . S
C908 C907 1.355 . S
C908 C910 1.419 . S
C909 C904 1.425 . S
C909 C906 1.409 1_556 S
C909 C907 1.415 . S
C910 H900 0.930 . S
C910 C908 1.419 . S
C910 C911 1.362 . S
C911 H901 0.930 . S
C911 C904 1.409 . S
C911 C910 1.362 . S
H912 C918 0.930 . S
H913 C921 0.930 . S
H914 C922 0.930 . S
H915 C923 0.930 . S
H916 C926 0.930 . S
H917 C927 0.930 . S
C918 H912 0.930 . S
C918 C919 1.355 . S
C918 C920 1.415 1_545 S
C919 C918 1.355 . S
C919 C921 1.419 . S
C920 C918 1.415 1_565 S
C920 C925 1.425 . S
C920 C927 1.409 . S
C921 H913 0.930 . S
C921 C919 1.419 . S
C921 C922 1.362 1_545 S
C922 H914 0.930 . S
C922 C921 1.362 1_565 S
C922 C925 1.409 . S
C923 H915 0.930 . S
C923 C924 1.355 . S
C923 C925 1.415 . S
C924 C923 1.355 . S
C924 C926 1.419 . S
C925 C920 1.425 . S
C925 C922 1.409 . S
C925 C923 1.415 . S
C926 H916 0.930 . S
C926 C924 1.419 . S
C926 C927 1.362 . S
C927 H917 0.930 . S
C927 C920 1.409 . S
C927 C926 1.362 . S
H928 C934 0.930 . S
H929 C937 0.930 1_554 S
H930 C938 0.930 . S
H931 C939 0.930 . S
H932 C942 0.930 . S
H933 C943 0.930 . S
C934 H928 0.930 . S
C934 C935 1.355 . S
C934 C936 1.415 . S
C935 C934 1.355 . S
C935 C937 1.419 . S
C936 C934 1.415 . S
C936 C941 1.425 . S
C936 C943 1.409 . S
C937 H929 0.930 1_556 S
C937 C935 1.419 . S
C937 C938 1.362 . S
C938 H930 0.930 . S
C938 C937 1.362 . S
C938 C941 1.409 . S
C939 H931 0.930 . S
C939 C940 1.355 . S
C939 C941 1.415 . S
C940 C939 1.355 . S
C940 C942 1.419 . S
C941 C936 1.425 . S
C941 C938 1.409 . S
C941 C939 1.415 . S
C942 H932 0.930 . S
C942 C940 1.419 . S
C942 C943 1.362 . S
C943 H933 0.930 . S
C943 C936 1.409 . S
C943 C942 1.362 . S
H944 C950 0.930 . S
H945 C953 0.930 . S
H946 C954 0.930 . S
H947 C955 0.930 . S
H948 C958 0.930 . S
H949 C959 0.930 . S
C950 H944 0.930 . S
C950 C951 1.355 . S
C950 C952 1.415 . S
C951 C950 1.355 . S
C951 C953 1.419 . S
C952 C950 1.415 . S
C952 C957 1.425 . S
C952 C959 1.409 . S
C953 H945 0.930 . S
C953 C951 1.419 . S
C953 C954 1.362 . S
C954 H946 0.930 . S
C954 C953 1.362 . S
C954 C957 1.409 . S
C955 H947 0.930 . S
C955 C956 1.355 . S
C955 C957 1.415 . S
C956 C955 1.355 . S
C956 C958 1.419 . S
C957 C952 1.425 . S
C957 C954 1.409 . S
C957 C955 1.415 . S
C958 H948 0.930 . S
C958 C956 1.419 . S
C958 C959 1.362 . S
C959 H949 0.930 . S
C959 C952 1.409 . S
C959 C958 1.362 . S
H960 C966 0.930 . S
H961 C969 0.930 . S
H962 C970 0.930 . S
H963 C971 0.930 . S
H964 C974 0.930 . S
H965 C975 0.930 . S
C966 H960 0.930 . S
C966 C967 1.355 . S
C966 C968 1.415 . S
C967 C966 1.355 . S
C967 C969 1.419 . S
C968 C966 1.415 . S
C968 C973 1.425 . S
C968 C975 1.409 . S
C969 H961 0.930 . S
C969 C967 1.419 . S
C969 C970 1.362 . S
C970 H962 0.930 . S
C970 C969 1.362 . S
C970 C973 1.409 . S
C971 H963 0.930 . S
C971 C972 1.355 . S
C971 C973 1.415 . S
C972 C971 1.355 . S
C972 C974 1.419 . S
C973 C968 1.425 . S
C973 C970 1.409 . S
C973 C971 1.415 . S
C974 H964 0.930 . S
C974 C972 1.419 . S
C974 C975 1.362 . S
C975 H965 0.930 . S
C975 C968 1.409 . S
C975 C974 1.362 . S
H976 C982 0.930 . S
H977 C985 0.930 . S
H978 C986 0.930 . S
H979 C987 0.930 . S
H980 C990 0.930 . S
H981 C991 0.930 . S
C982 H976 0.930 . S
C982 C983 1.355 . S
C982 C984 1.415 . S
C983 C982 1.355 . S
C983 C985 1.419 . S
C984 C982 1.415 . S
C984 C989 1.425 . S
C984 C991 1.409 . S
C985 H977 0.930 . S
C985 C983 1.419 . S
C985 C986 1.362 . S
C986 H978 0.930 . S
C986 C985 1.362 . S
C986 C989 1.409 . S
C987 H979 0.930 . S
C987 C988 1.355 . S
C987 C989 1.415 . S
C988 C987 1.355 . S
C988 C990 1.419 . S
C989 C984 1.425 . S
C989 C986 1.409 . S
C989 C987 1.415 . S
C990 H980 0.930 . S
C990 C988 1.419 . S
C990 C991 1.362 . S
C991 H981 0.930 . S
C991 C984 1.409 . S
C991 C990 1.362 . S
H992 C998 0.930 . S
H993 C1001 0.930 1_556 S
H994 C1002 0.930 . S
H995 C1003 0.930 . S
H996 C1006 0.930 . S
H997 C1007 0.930 . S
C998 H992 0.930 . S
C998 C999 1.355 . S
C998 C1000 1.415 . S
C999 C998 1.355 . S
C999 C1001 1.419 . S
C1000 C998 1.415 . S
C1000 C1005 1.425 . S
C1000 C1007 1.409 . S
C1001 H993 0.930 1_554 S
C1001 C999 1.419 . S
C1001 C1002 1.362 . S
C1002 H994 0.930 . S
C1002 C1001 1.362 . S
C1002 C1005 1.409 . S
C1003 H995 0.930 . S
C1003 C1004 1.355 . S
C1003 C1005 1.415 . S
C1004 C1003 1.355 . S
C1004 C1006 1.419 . S
C1005 C1000 1.425 . S
C1005 C1002 1.409 . S
C1005 C1003 1.415 . S
C1006 H996 0.930 . S
C1006 C1004 1.419 . S
C1006 C1007 1.362 . S
C1007 H997 0.930 . S
C1007 C1000 1.409 . S
C1007 C1006 1.362 . S
H1008 C1014 0.930 . S
H1009 C1017 0.930 . S
H1010 C1018 0.930 . S
H1011 C1019 0.930 . S
H1012 C1022 0.930 . S
H1013 C1023 0.930 . S
C1014 H1008 0.930 . S
C1014 C1015 1.355 . S
C1014 C1016 1.415 . S
C1015 C1014 1.355 . S
C1015 C1017 1.419 . S
C1016 C1014 1.415 . S
C1016 C1021 1.425 . S
C1016 C1023 1.409 . S
C1017 H1009 0.930 . S
C1017 C1015 1.419 . S
C1017 C1018 1.362 . S
C1018 H1010 0.930 . S
C1018 C1017 1.362 . S
C1018 C1021 1.409 . S
C1019 H1011 0.930 . S
C1019 C1020 1.355 . S
C1019 C1021 1.415 . S
C1020 C1019 1.355 . S
C1020 C1022 1.419 . S
C1021 C1016 1.425 . S
C1021 C1018 1.409 . S
C1021 C1019 1.415 . S
C1022 H1012 0.930 . S
C1022 C1020 1.419 . S
C1022 C1023 1.362 . S
C1023 H1013 0.930 . S
C1023 C1016 1.409 . S
C1023 C1022 1.362 . S
H1024 C1030 0.930 . S
H1025 C1033 0.930 . S
H1026 C1034 0.930 . S
H1027 C1035 0.930 . S
H1028 C1038 0.930 . S
H1029 C1039 0.930 . S
C1030 H1024 0.930 . S
C1030 C1031 1.355 . S
C1030 C1032 1.415 . S
C1031 C1030 1.355 . S
C1031 C1033 1.419 . S
C1032 C1030 1.415 . S
C1032 C1037 1.425 . S
C1032 C1039 1.409 . S
C1033 H1025 0.930 . S
C1033 C1031 1.419 . S
C1033 C1034 1.362 . S
C1034 H1026 0.930 . S
C1034 C1033 1.362 . S
C1034 C1037 1.409 . S
C1035 H1027 0.930 . S
C1035 C1036 1.355 . S
C1035 C1037 1.415 . S
C1036 C1035 1.355 . S
C1036 C1038 1.419 . S
C1037 C1032 1.425 . S
C1037 C1034 1.409 . S
C1037 C1035 1.415 . S
C1038 H1028 0.930 . S
C1038 C1036 1.419 . S
C1038 C1039 1.362 . S
C1039 H1029 0.930 . S
C1039 C1032 1.409 . S
C1039 C1038 1.362 . S
H1040 C1046 0.930 . S
H1041 C1049 0.930 . S
H1042 C1050 0.930 . S
H1043 C1051 0.930 . S
H1044 C1054 0.930 . S
H1045 C1055 0.930 . S
C1046 H1040 0.930 . S
C1046 C1047 1.355 . S
C1046 C1048 1.415 . S
C1047 C1046 1.355 . S
C1047 C1049 1.419 . S
C1048 C1046 1.415 . S
C1048 C1053 1.425 . S
C1048 C1055 1.409 . S
C1049 H1041 0.930 . S
C1049 C1047 1.419 . S
C1049 C1050 1.362 . S
C1050 H1042 0.930 . S
C1050 C1049 1.362 . S
C1050 C1053 1.409 . S
C1051 H1043 0.930 . S
C1051 C1052 1.355 . S
C1051 C1053 1.415 . S
C1052 C1051 1.355 . S
C1052 C1054 1.419 . S
C1053 C1048 1.425 . S
C1053 C1050 1.409 . S
C1053 C1051 1.415 . S
C1054 H1044 0.930 . S
C1054 C1052 1.419 . S
C1054 C1055 1.362 . S
C1055 H1045 0.930 . S
C1055 C1048 1.409 . S
C1055 C1054 1.362 . S
H1056 C1062 0.930 . S
H1057 C1065 0.930 . S
H1058 C1066 0.930 . S
H1059 C1067 0.930 . S
H1060 C1070 0.930 . S
H1061 C1071 0.930 . S
C1062 H1056 0.930 . S
C1062 C1063 1.355 . S
C1062 C1064 1.415 . S
C1063 C1062 1.355 . S
C1063 C1065 1.419 . S
C1064 C1062 1.415 . S
C1064 C1069 1.425 . S
C1064 C1071 1.409 . S
C1065 H1057 0.930 . S
C1065 C1063 1.419 . S
C1065 C1066 1.362 . S
C1066 H1058 0.930 . S
C1066 C1065 1.362 . S
C1066 C1069 1.409 . S
C1067 H1059 0.930 . S
C1067 C1068 1.355 . S
C1067 C1069 1.415 . S
C1068 C1067 1.355 . S
C1068 C1070 1.419 . S
C1069 C1064 1.425 . S
C1069 C1066 1.409 . S
C1069 C1067 1.415 . S
C1070 H1060 0.930 . S
C1070 C1068 1.419 . S
C1070 C1071 1.362 . S
C1071 H1061 0.930 . S
C1071 C1064 1.409 . S
C1071 C1070 1.362 . S
H1072 C1078 0.930 . S
H1073 C1081 0.930 . S
H1074 C1082 0.930 . S
H1075 C1083 0.930 . S
H1076 C1086 0.930 . S
H1077 C1087 0.930 . S
C1078 H1072 0.930 . S
C1078 C1079 1.355 . S
C1078 C1080 1.415 . S
C1079 C1078 1.355 . S
C1079 C1081 1.419 . S
C1080 C1078 1.415 . S
C1080 C1085 1.425 . S
C1080 C1087 1.409 . S
C1081 H1073 0.930 . S
C1081 C1079 1.419 . S
C1081 C1082 1.362 . S
C1082 H1074 0.930 . S
C1082 C1081 1.362 . S
C1082 C1085 1.409 . S
C1083 H1075 0.930 . S
C1083 C1084 1.355 . S
C1083 C1085 1.415 . S
C1084 C1083 1.355 . S
C1084 C1086 1.419 . S
C1085 C1080 1.425 . S
C1085 C1082 1.409 . S
C1085 C1083 1.415 . S
C1086 H1076 0.930 . S
C1086 C1084 1.419 . S
C1086 C1087 1.362 . S
C1087 H1077 0.930 . S
C1087 C1080 1.409 . S
C1087 C1086 1.362 . S
H1088 C1094 0.930 . S
H1089 C1097 0.930 . S
H1090 C1098 0.930 . S
H1091 C1099 0.930 . S
H1092 C1102 0.930 . S
H1093 C1103 0.930 . S
C1094 H1088 0.930 . S
C1094 C1095 1.355 . S
C1094 C1096 1.415 . S
C1095 C1094 1.355 . S
C1095 C1097 1.419 . S
C1096 C1094 1.415 . S
C1096 C1101 1.425 . S
C1096 C1103 1.409 . S
C1097 H1089 0.930 . S
C1097 C1095 1.419 . S
C1097 C1098 1.362 . S
C1098 H1090 0.930 . S
C1098 C1097 1.362 . S
C1098 C1101 1.409 . S
C1099 H1091 0.930 . S
C1099 C1100 1.355 . S
C1099 C1101 1.415 . S
C1100 C1099 1.355 . S
C1100 C1102 1.419 . S
C1101 C1096 1.425 . S
C1101 C1098 1.409 . S
C1101 C1099 1.415 . S
C1102 H1092 0.930 . S
C1102 C1100 1.419 . S
C1102 C1103 1.362 . S
C1103 H1093 0.930 . S
C1103 C1096 1.409 . S
C1103 C1102 1.362 . S
H1104 C1110 0.930 . S
H1105 C1113 0.930 . S
H1106 C1114 0.930 . S
H1107 C1115 0.930 . S
H1108 C1118 0.930 . S
H1109 C1119 0.930 . S
C1110 H1104 0.930 . S
C1110 C1111 1.355 . S
C1110 C1112 1.415 . S
C1111 C1110 1.355 . S
C1111 C1113 1.419 . S
C1112 C1110 1.415 . S
C1112 C1117 1.425 . S
C1112 C1119 1.409 . S
C1113 H1105 0.930 . S
C1113 C1111 1.419 . S
C1113 C1114 1.362 . S
C1114 H1106 0.930 . S
C1114 C1113 1.362 . S
C1114 C1117 1.409 . S
C1115 H1107 0.930 . S
C1115 C1116 1.355 . S
C1115 C1117 1.415 . S
C1116 C1115 1.355 . S
C1116 C1118 1.419 . S
C1117 C1112 1.425 . S
C1117 C1114 1.409 . S
C1117 C1115 1.415 . S
C1118 H1108 0.930 . S
C1118 C1116 1.419 . S
C1118 C1119 1.362 . S
C1119 H1109 0.930 . S
C1119 C1112 1.409 . S
C1119 C1118 1.362 . S
H1120 C1126 0.930 . S
H1121 C1129 0.930 . S
H1122 C1130 0.930 . S
H1123 C1131 0.930 . S
H1124 C1134 0.930 . S
H1125 C1135 0.930 . S
C1126 H1120 0.930 . S
C1126 C1127 1.355 . S
C1126 C1128 1.415 . S
C1127 C1126 1.355 . S
C1127 C1129 1.419 . S
C1128 C1126 1.415 . S
C1128 C1133 1.425 . S
C1128 C1135 1.409 . S
C1129 H1121 0.930 . S
C1129 C1127 1.419 . S
C1129 C1130 1.362 . S
C1130 H1122 0.930 . S
C1130 C1129 1.362 . S
C1130 C1133 1.409 . S
C1131 H1123 0.930 . S
C1131 C1132 1.355 . S
C1131 C1133 1.415 . S
C1132 C1131 1.355 . S
C1132 C1134 1.419 . S
C1133 C1128 1.425 . S
C1133 C1130 1.409 . S
C1133 C1131 1.415 . S
C1134 H1124 0.930 . S
C1134 C1132 1.419 . S
C1134 C1135 1.362 . S
C1135 H1125 0.930 . S
C1135 C1128 1.409 . S
C1135 C1134 1.362 . S
H1136 C1142 0.930 . S
H1137 C1145 0.930 . S
H1138 C1146 0.930 . S
H1139 C1147 0.930 . S
H1140 C1150 0.930 . S
H1141 C1151 0.930 . S
C1142 H1136 0.930 . S
C1142 C1143 1.355 . S
C1142 C1144 1.415 . S
C1143 C1142 1.355 . S
C1143 C1145 1.419 . S
C1144 C1142 1.415 . S
C1144 C1149 1.425 . S
C1144 C1151 1.409 . S
C1145 H1137 0.930 . S
C1145 C1143 1.419 . S
C1145 C1146 1.362 . S
C1146 H1138 0.930 . S
C1146 C1145 1.362 . S
C1146 C1149 1.409 . S
C1147 H1139 0.930 . S
C1147 C1148 1.355 . S
C1147 C1149 1.415 . S
C1148 C1147 1.355 . S
C1148 C1150 1.419 . S
C1149 C1144 1.425 . S
C1149 C1146 1.409 . S
C1149 C1147 1.415 . S
C1150 H1140 0.930 . S
C1150 C1148 1.419 . S
C1150 C1151 1.362 . S
C1151 H1141 0.930 . S
C1151 C1144 1.409 . S
C1151 C1150 1.362 . S
H1152 C1158 0.930 . S
H1153 C1161 0.930 1_556 S
H1154 C1162 0.930 . S
H1155 C1163 0.930 . S
H1156 C1166 0.930 . S
H1157 C1167 0.930 . S
C1158 H1152 0.930 . S
C1158 C1159 1.355 . S
C1158 C1160 1.415 . S
C1159 C1158 1.355 . S
C1159 C1161 1.419 . S
C1160 C1158 1.415 . S
C1160 C1165 1.425 . S
C1160 C1167 1.409 . S
C1161 H1153 0.930 1_554 S
C1161 C1159 1.419 . S
C1161 C1162 1.362 . S
C1162 H1154 0.930 . S
C1162 C1161 1.362 . S
C1162 C1165 1.409 . S
C1163 H1155 0.930 . S
C1163 C1164 1.355 . S
C1163 C1165 1.415 . S
C1164 C1163 1.355 . S
C1164 C1166 1.419 . S
C1165 C1160 1.425 . S
C1165 C1162 1.409 . S
C1165 C1163 1.415 . S
C1166 H1156 0.930 . S
C1166 C1164 1.419 . S
C1166 C1167 1.362 . S
C1167 H1157 0.930 . S
C1167 C1160 1.409 . S
C1167 C1166 1.362 . S
H1168 C1174 0.930 . S
H1169 C1177 0.930 . S
H1170 C1178 0.930 . S
H1171 C1179 0.930 . S
H1172 C1182 0.930 . S
H1173 C1183 0.930 . S
C1174 H1168 0.930 . S
C1174 C1175 1.355 . S
C1174 C1176 1.415 . S
C1175 C1174 1.355 . S
C1175 C1177 1.419 . S
C1176 C1174 1.415 . S
C1176 C1181 1.425 . S
C1176 C1183 1.409 . S
C1177 H1169 0.930 . S
C1177 C1175 1.419 . S
C1177 C1178 1.362 . S
C1178 H1170 0.930 . S
C1178 C1177 1.362 . S
C1178 C1181 1.409 . S
C1179 H1171 0.930 . S
C1179 C1180 1.355 . S
C1179 C1181 1.415 . S
C1180 C1179 1.355 . S
C1180 C1182 1.419 . S
C1181 C1176 1.425 . S
C1181 C1178 1.409 . S
C1181 C1179 1.415 . S
C1182 H1172 0.930 . S
C1182 C1180 1.419 . S
C1182 C1183 1.362 . S
C1183 H1173 0.930 . S
C1183 C1176 1.409 . S
C1183 C1182 1.362 . S
H1184 C1190 0.930 . S
H1185 C1193 0.930 . S
H1186 C1194 0.930 . S
H1187 C1195 0.930 . S
H1188 C1198 0.930 . S
H1189 C1199 0.930 . S
C1190 H1184 0.930 . S
C1190 C1191 1.355 . S
C1190 C1192 1.415 . S
C1191 C1190 1.355 . S
C1191 C1193 1.419 . S
C1192 C1190 1.415 . S
C1192 C1197 1.425 . S
C1192 C1199 1.409 . S
C1193 H1185 0.930 . S
C1193 C1191 1.419 . S
C1193 C1194 1.362 . S
C1194 H1186 0.930 . S
C1194 C1193 1.362 . S
C1194 C1197 1.409 . S
C1195 H1187 0.930 . S
C1195 C1196 1.355 . S
C1195 C1197 1.415 . S
C1196 C1195 1.355 . S
C1196 C1198 1.419 . S
C1197 C1192 1.425 . S
C1197 C1194 1.409 . S
C1197 C1195 1.415 . S
C1198 H1188 0.930 . S
C1198 C1196 1.419 . S
C1198 C1199 1.362 . S
C1199 H1189 0.930 . S
C1199 C1192 1.409 . S
C1199 C1198 1.362 . S
H1200 C1206 0.930 . S
H1201 C1209 0.930 . S
H1202 C1210 0.930 . S
H1203 C1211 0.930 . S
H1204 C1214 0.930 . S
H1205 C1215 0.930 . S
C1206 H1200 0.930 . S
C1206 C1207 1.355 . S
C1206 C1208 1.415 . S
C1207 C1206 1.355 . S
C1207 C1209 1.419 . S
C1208 C1206 1.415 . S
C1208 C1213 1.425 . S
C1208 C1215 1.409 . S
C1209 H1201 0.930 . S
C1209 C1207 1.419 . S
C1209 C1210 1.362 . S
C1210 H1202 0.930 . S
C1210 C1209 1.362 . S
C1210 C1213 1.409 . S
C1211 H1203 0.930 . S
C1211 C1212 1.355 . S
C1211 C1213 1.415 . S
C1212 C1211 1.355 . S
C1212 C1214 1.419 . S
C1213 C1208 1.425 . S
C1213 C1210 1.409 . S
C1213 C1211 1.415 . S
C1214 H1204 0.930 . S
C1214 C1212 1.419 . S
C1214 C1215 1.362 . S
C1215 H1205 0.930 . S
C1215 C1208 1.409 . S
C1215 C1214 1.362 . S
H1216 C1222 0.930 . S
H1217 C1225 0.930 . S
H1218 C1226 0.930 . S
H1219 C1227 0.930 . S
H1220 C1230 0.930 . S
H1221 C1231 0.930 . S
C1222 H1216 0.930 . S
C1222 C1223 1.355 . S
C1222 C1224 1.415 . S
C1223 C1222 1.355 . S
C1223 C1225 1.419 . S
C1224 C1222 1.415 . S
C1224 C1229 1.425 . S
C1224 C1231 1.409 . S
C1225 H1217 0.930 . S
C1225 C1223 1.419 . S
C1225 C1226 1.362 . S
C1226 H1218 0.930 . S
C1226 C1225 1.362 . S
C1226 C1229 1.409 . S
C1227 H1219 0.930 . S
C1227 C1228 1.355 . S
C1227 C1229 1.415 . S
C1228 C1227 1.355 . S
C1228 C1230 1.419 . S
C1229 C1224 1.425 . S
C1229 C1226 1.409 . S
C1229 C1227 1.415 . S
C1230 H1220 0.930 . S
C1230 C1228 1.419 . S
C1230 C1231 1.362 . S
C1231 H1221 0.930 . S
C1231 C1224 1.409 . S
C1231 C1230 1.362 . S
H1232 C1238 0.930 1_556 S
H1233 C1241 0.930 . S
H1234 C1242 0.930 . S
H1235 C1243 0.930 1_554 S
H1236 C1246 0.930 . S
H1237 C1247 0.930 . S
C1238 H1232 0.930 1_554 S
C1238 C1239 1.355 . S
C1238 C1240 1.415 1_554 S
C1239 C1238 1.355 . S
C1239 C1241 1.419 1_455 S
C1240 C1238 1.415 1_556 S
C1240 C1245 1.425 1_456 S
C1240 C1247 1.409 . S
C1241 H1233 0.930 . S
C1241 C1239 1.419 1_655 S
C1241 C1242 1.362 . S
C1242 H1234 0.930 . S
C1242 C1241 1.362 . S
C1242 C1245 1.409 . S
C1243 H1235 0.930 1_556 S
C1243 C1244 1.355 . S
C1243 C1245 1.415 1_556 S
C1244 C1243 1.355 . S
C1244 C1246 1.419 1_655 S
C1245 C1240 1.425 1_654 S
C1245 C1242 1.409 . S
C1245 C1243 1.415 1_554 S
C1246 H1236 0.930 . S
C1246 C1244 1.419 1_455 S
C1246 C1247 1.362 . S
C1247 H1237 0.930 . S
C1247 C1240 1.409 . S
C1247 C1246 1.362 . S
H1248 C1254 0.930 . S
H1249 C1257 0.930 . S
H1250 C1258 0.930 . S
H1251 C1259 0.930 . S
H1252 C1262 0.930 . S
H1253 C1263 0.930 . S
C1254 H1248 0.930 . S
C1254 C1255 1.355 . S
C1254 C1256 1.415 . S
C1255 C1254 1.355 . S
C1255 C1257 1.419 . S
C1256 C1254 1.415 . S
C1256 C1261 1.425 . S
C1256 C1263 1.409 . S
C1257 H1249 0.930 . S
C1257 C1255 1.419 . S
C1257 C1258 1.362 . S
C1258 H1250 0.930 . S
C1258 C1257 1.362 . S
C1258 C1261 1.409 . S
C1259 H1251 0.930 . S
C1259 C1260 1.355 . S
C1259 C1261 1.415 . S
C1260 C1259 1.355 . S
C1260 C1262 1.419 . S
C1261 C1256 1.425 . S
C1261 C1258 1.409 . S
C1261 C1259 1.415 . S
C1262 H1252 0.930 . S
C1262 C1260 1.419 . S
C1262 C1263 1.362 . S
C1263 H1253 0.930 . S
C1263 C1256 1.409 . S
C1263 C1262 1.362 . S
H1264 C1270 0.930 . S
H1265 C1273 0.930 . S
H1266 C1274 0.930 . S
H1267 C1275 0.930 . S
H1268 C1278 0.930 . S
H1269 C1279 0.930 . S
C1270 H1264 0.930 . S
C1270 C1271 1.355 . S
C1270 C1272 1.415 . S
C1271 C1270 1.355 . S
C1271 C1273 1.419 . S
C1272 C1270 1.415 . S
C1272 C1277 1.425 . S
C1272 C1279 1.409 . S
C1273 H1265 0.930 . S
C1273 C1271 1.419 . S
C1273 C1274 1.362 . S
C1274 H1266 0.930 . S
C1274 C1273 1.362 . S
C1274 C1277 1.409 . S
C1275 H1267 0.930 . S
C1275 C1276 1.355 . S
C1275 C1277 1.415 . S
C1276 C1275 1.355 . S
C1276 C1278 1.419 . S
C1277 C1272 1.425 . S
C1277 C1274 1.409 . S
C1277 C1275 1.415 . S
C1278 H1268 0.930 . S
C1278 C1276 1.419 . S
C1278 C1279 1.362 . S
C1279 H1269 0.930 . S
C1279 C1272 1.409 . S
C1279 C1278 1.362 . S
H1280 C1286 0.930 1_554 S
H1281 C1289 0.930 . S
H1282 C1290 0.932 . S
H1283 C1291 0.930 1_556 S
H1284 C1294 0.930 . S
H1285 C1295 0.932 . S
C1286 H1280 0.930 1_556 S
C1286 C1287 1.355 . S
C1286 C1288 1.415 1_556 S
C1287 C1286 1.355 . S
C1287 C1289 1.419 . S
C1288 C1286 1.415 1_554 S
C1288 C1293 1.425 1_444 S
C1288 C1295 1.409 1_455 S
C1289 H1281 0.930 . S
C1289 C1287 1.419 . S
C1289 C1290 1.362 1_545 S
C1290 H1282 0.932 . S
C1290 C1289 1.362 1_565 S
C1290 C1293 1.409 1_455 S
C1291 H1283 0.930 1_554 S
C1291 C1292 1.355 . S
C1291 C1293 1.415 1_554 S
C1292 C1291 1.355 . S
C1292 C1294 1.419 . S
C1293 C1288 1.425 1_666 S
C1293 C1290 1.409 1_655 S
C1293 C1291 1.415 1_556 S
C1294 H1284 0.930 . S
C1294 C1292 1.419 . S
C1294 C1295 1.362 1_565 S
C1295 H1285 0.932 . S
C1295 C1288 1.409 1_655 S
C1295 C1294 1.362 1_545 S
H1296 C1302 0.930 . S
H1297 C1305 0.930 . S
H1298 C1306 0.930 . S
H1299 C1307 0.930 . S
H1300 C1310 0.930 . S
H1301 C1311 0.930 . S
C1302 H1296 0.930 . S
C1302 C1303 1.355 . S
C1302 C1304 1.415 . S
C1303 C1302 1.355 . S
C1303 C1305 1.419 . S
C1304 C1302 1.415 . S
C1304 C1309 1.425 1_545 S
C1304 C1311 1.409 1_545 S
C1305 H1297 0.930 . S
C1305 C1303 1.419 . S
C1305 C1306 1.362 . S
C1306 H1298 0.930 . S
C1306 C1305 1.362 . S
C1306 C1309 1.409 1_545 S
C1307 H1299 0.930 . S
C1307 C1308 1.355 . S
C1307 C1309 1.415 . S
C1308 C1307 1.355 . S
C1308 C1310 1.419 . S
C1309 C1304 1.425 1_565 S
C1309 C1306 1.409 1_565 S
C1309 C1307 1.415 . S
C1310 H1300 0.930 . S
C1310 C1308 1.419 . S
C1310 C1311 1.362 . S
C1311 H1301 0.930 . S
C1311 C1304 1.409 1_565 S
C1311 C1310 1.362 . S
C551 C17 1.908 . S
C556 C357 1.894 . S
C567 C51 1.921 . S
C572 C391 1.911 . S
C583 C85 1.903 . S
C588 C289 1.897 . S
C599 C119 1.917 . S
C604 C323 1.916 . S
C615 C144 1.903 . S
C620 C484 1.925 . S
C631 C178 1.895 . S
C636 C518 1.926 . S
C647 C212 1.916 . S
C652 C416 1.918 . S
C663 C246 1.894 . S
C668 C450 1.925 . S
C679 C310 1.068 1_554 S
C684 C8 1.083 . S
C695 C344 1.079 . S
C700 C42 1.084 . S
C711 C378 1.014 . S
C716 C76 1.087 . S
C727 C276 1.055 . S
C732 C110 1.080 . S
C743 C153 1.078 . S
C748 C455 1.040 . S
C759 C489 1.083 . S
C764 C187 1.098 . S
C775 C523 1.043 . S
C780 C221 1.078 . S
C791 C421 1.043 . S
C796 C255 1.093 . S
C807 C38 1.078 . S
C812 C280 1.097 . S
C823 C314 1.095 . S
C828 C72 1.104 . S
C839 C348 1.088 . S
C844 C106 1.017 . S
C855 C382 1.094 . S
C860 C4 1.103 . S
C871 C425 1.079 . S
C876 C183 1.050 . S
C887 C217 1.102 . S
C892 C459 1.093 . S
C903 C251 1.078 . S
C908 C493 1.098 . S
C919 C527 1.097 . S
C924 C149 1.072 . S
C935 C29 1.351 1_556 S
C940 C514 1.256 . S
C951 C63 1.336 . S
C956 C140 1.274 . S
C967 C446 1.263 . S
C972 C97 1.333 . S
C983 C208 1.245 . S
C988 C131 1.335 . S
C999 C136 1.385 1_554 S
C1004 C387 1.347 . S
C1015 C170 1.349 . S
C1020 C13 1.306 . S
C1031 C319 1.245 . S
C1036 C204 1.340 . S
C1047 C81 1.323 . S
C1052 C238 1.358 . S
C1063 C301 1.337 . S
C1068 C242 1.244 . S
C1079 C335 1.356 . S
C1084 C412 1.320 . S
C1095 C174 1.341 . S
C1100 C369 1.371 1_556 S
C1111 C480 1.246 . S
C1116 C403 1.333 . S
C1127 C408 1.342 . S
C1132 C115 1.247 . S
C1143 C442 1.347 . S
C1148 C285 1.251 . S
C1159 C476 1.370 1_554 S
C1164 C47 1.286 . S
C1175 C353 1.330 . S
C1180 C510 1.363 . S
C1191 C0 2.138 . S
C1196 C437 2.138 . S
C1207 C34 2.137 . S
C1212 C199 2.137 . S
C1223 C68 2.138 . S
C1228 C505 2.138 . S
C1239 C267 2.122 . S
C1244 C102 2.122 . S
C1255 C165 2.136 . S
C1260 C272 2.136 . S
C1271 C340 2.115 . S
C1276 C233 2.115 . S
C1287 C306 2.112 . S
C1292 C471 2.112 . S
C1303 C539 2.128 . S
C1308 C374 2.128 . S
