# Generated by pormake.
# Topology qtz-a, (4)-cn, num edge types: 1
# Building blocks:
#     Node 0, Type 0, BuildingBlock: UXUYUI_clean_sbu_0, # of connection points: 4
#     Node 1, Type 0, BuildingBlock: UXUYUI_clean_sbu_0, # of connection points: 4
#     Node 2, Type 0, BuildingBlock: UXUYUI_clean_sbu_0, # of connection points: 4
#     Node 3, Type 0, BuildingBlock: UXUYUI_clean_sbu_0, # of connection points: 4
#     Node 4, Type 0, BuildingBlock: UXUYUI_clean_sbu_0, # of connection points: 4
#     Node 5, Type 0, BuildingBlock: UXUYUI_clean_sbu_0, # of connection points: 4
#     Node 6, Type 0, BuildingBlock: UXUYUI_clean_sbu_0, # of connection points: 4
#     Node 7, Type 0, BuildingBlock: UXUYUI_clean_sbu_0, # of connection points: 4
#     Node 8, Type 0, BuildingBlock: UXUYUI_clean_sbu_0, # of connection points: 4
#     Node 9, Type 0, BuildingBlock: UXUYUI_clean_sbu_0, # of connection points: 4
#     Node 10, Type 0, BuildingBlock: UXUYUI_clean_sbu_0, # of connection points: 4
#     Node 11, Type 0, BuildingBlock: UXUYUI_clean_sbu_0, # of connection points: 4
#     Edge 12, Type (0, 0), BuildingBlock: ZUJKAS_clean_linker_0, # of connection points: 2
#     Edge 13, Type (0, 0), BuildingBlock: ZUJKAS_clean_linker_0, # of connection points: 2
#     Edge 14, Type (0, 0), BuildingBlock: ZUJKAS_clean_linker_0, # of connection points: 2
#     Edge 15, Type (0, 0), BuildingBlock: ZUJKAS_clean_linker_0, # of connection points: 2
#     Edge 16, Type (0, 0), BuildingBlock: ZUJKAS_clean_linker_0, # of connection points: 2
#     Edge 17, Type (0, 0), BuildingBlock: ZUJKAS_clean_linker_0, # of connection points: 2
#     Edge 18, Type (0, 0), BuildingBlock: ZUJKAS_clean_linker_0, # of connection points: 2
#     Edge 19, Type (0, 0), BuildingBlock: ZUJKAS_clean_linker_0, # of connection points: 2
#     Edge 20, Type (0, 0), BuildingBlock: ZUJKAS_clean_linker_0, # of connection points: 2
#     Edge 21, Type (0, 0), BuildingBlock: ZUJKAS_clean_linker_0, # of connection points: 2
#     Edge 22, Type (0, 0), BuildingBlock: ZUJKAS_clean_linker_0, # of connection points: 2
#     Edge 23, Type (0, 0), BuildingBlock: ZUJKAS_clean_linker_0, # of connection points: 2
#     Edge 24, Type (0, 0), BuildingBlock: ZUJKAS_clean_linker_0, # of connection points: 2
#     Edge 25, Type (0, 0), BuildingBlock: ZUJKAS_clean_linker_0, # of connection points: 2
#     Edge 26, Type (0, 0), BuildingBlock: ZUJKAS_clean_linker_0, # of connection points: 2
#     Edge 27, Type (0, 0), BuildingBlock: ZUJKAS_clean_linker_0, # of connection points: 2
#     Edge 28, Type (0, 0), BuildingBlock: ZUJKAS_clean_linker_0, # of connection points: 2
#     Edge 29, Type (0, 0), BuildingBlock: ZUJKAS_clean_linker_0, # of connection points: 2
#     Edge 30, Type (0, 0), BuildingBlock: ZUJKAS_clean_linker_0, # of connection points: 2
#     Edge 31, Type (0, 0), BuildingBlock: ZUJKAS_clean_linker_0, # of connection points: 2
#     Edge 32, Type (0, 0), BuildingBlock: ZUJKAS_clean_linker_0, # of connection points: 2
#     Edge 33, Type (0, 0), BuildingBlock: ZUJKAS_clean_linker_0, # of connection points: 2
#     Edge 34, Type (0, 0), BuildingBlock: ZUJKAS_clean_linker_0, # of connection points: 2
#     Edge 35, Type (0, 0), BuildingBlock: ZUJKAS_clean_linker_0, # of connection points: 2
# Relax obj value: 0.910
# Max RMSD: 0.301
# Mean RMSD: 0.301
data_MOF--net-qtz-a--node1-UXUYUI_clean_sbu_0--edge1-ZUJKAS_clean_linker_0
_symmetry_space_group_name_H-M    P1
_symmetry_Int_Tables_number       1
_symmetry_cell_setting            triclinic
loop_
_symmetry_equiv_pos_as_xyz
'x, y, z'
_cell_length_a     88.970164
_cell_length_b     88.942001
_cell_length_c     50.64884
_cell_angle_alpha  89.992298
_cell_angle_beta   90.001047
_cell_angle_gamma 120.00435
loop_
_atom_site_label
_atom_site_type_symbol
_atom_site_fract_x
_atom_site_fract_y
_atom_site_fract_z
_atom_type_partial_charge
Li0 Li 0.42679 0.06378 0.18565 0.0
Li1 Li 0.44429 0.09351 0.20238 0.0
Li2 Li 0.45813 0.07947 0.17891 0.0
Li3 Li 0.44606 0.07048 0.22373 0.0
C4 C 0.43144 0.08447 0.14427 0.0
N5 N 0.41056 0.08151 0.10189 0.0
C6 C 0.42238 0.09356 0.14414 0.0
C7 C 0.42994 0.07395 0.12276 0.0
C8 C 0.41189 0.09189 0.12253 0.0
C9 C 0.41927 0.07258 0.10157 0.0
C10 C 0.41619 0.06602 0.24287 0.0
C11 C 0.41249 0.0671 0.28985 0.0
N12 N 0.39843 0.05084 0.28892 0.0
C13 C 0.40163 0.04937 0.24231 0.0
C14 C 0.42161 0.07504 0.26675 0.0
C15 C 0.39284 0.0419 0.26583 0.0
C16 C 0.40436 0.03413 0.15613 0.0
N17 N 0.40564 0.04828 0.16845 0.0
C18 C 0.38065 0.04493 0.14567 0.0
C19 C 0.39363 0.05326 0.16465 0.0
C20 C 0.37999 0.03127 0.13084 0.0
C21 C 0.39154 0.02535 0.13716 0.0
H22 H 0.41403 0.03042 0.15964 0.0
H23 H 0.39499 0.06457 0.1748 0.0
C24 C 0.45639 0.12737 0.18732 0.0
N25 N 0.44497 0.11502 0.20407 0.0
C26 C 0.45605 0.14267 0.18351 0.0
C27 C 0.43221 0.13237 0.21445 0.0
C28 C 0.43316 0.11727 0.21793 0.0
C29 C 0.44349 0.14512 0.19651 0.0
H30 H 0.46526 0.12495 0.17596 0.0
H31 H 0.42396 0.10699 0.23061 0.0
C32 C 0.45143 0.04696 0.18386 0.0
N33 N 0.46899 0.03073 0.16552 0.0
C34 C 0.46089 0.0427 0.20133 0.0
C35 C 0.45083 0.04288 0.15707 0.0
C36 C 0.46968 0.0345 0.19167 0.0
C37 C 0.45983 0.03472 0.14818 0.0
C38 C 0.47676 0.1095 0.21966 0.0
C39 C 0.49056 0.12052 0.20326 0.0
C40 C 0.47423 0.11573 0.24359 0.0
C41 C 0.50149 0.13772 0.21096 0.0
C42 C 0.48544 0.13303 0.25057 0.0
N43 N 0.49872 0.14357 0.23424 0.0
C44 C 0.47645 0.09172 0.13167 0.0
C45 C 0.489 0.08012 0.16063 0.0
C46 C 0.48904 0.0951 0.11263 0.0
N47 N 0.47641 0.08404 0.15487 0.0
C48 C 0.50183 0.08317 0.14201 0.0
C49 C 0.50185 0.09064 0.11754 0.0
H50 H 0.46664 0.0952 0.12786 0.0
H51 H 0.489 0.07451 0.17956 0.0
C52 C 0.43816 0.0457 0.26465 0.0
N53 N 0.44998 0.06174 0.25568 0.0
C54 C 0.44268 0.03777 0.28448 0.0
C55 C 0.47129 0.06318 0.28584 0.0
C56 C 0.46611 0.07073 0.26636 0.0
C57 C 0.45971 0.0462 0.29454 0.0
H58 H 0.42559 0.0386 0.2553 0.0
H59 H 0.47541 0.08327 0.25842 0.0
O60 O 0.44155 0.08569 0.16545 0.0
O61 O 0.42497 0.07353 0.22009 0.0
O62 O 0.44281 0.05508 0.19289 0.0
O63 O 0.4658 0.09268 0.21234 0.0
H64 H 0.42326 0.10167 0.16065 0.0
H65 H 0.43679 0.06677 0.12256 0.0
H66 H 0.40476 0.09879 0.12222 0.0
H67 H 0.41787 0.06436 0.08491 0.0
H68 H 0.41659 0.07388 0.30851 0.0
H69 H 0.39724 0.04226 0.22395 0.0
H70 H 0.43278 0.08799 0.26744 0.0
H71 H 0.38161 0.02899 0.26574 0.0
H72 H 0.37189 0.04978 0.14156 0.0
H73 H 0.3916 0.01496 0.1261 0.0
H74 H 0.46521 0.15225 0.16986 0.0
H75 H 0.4222 0.13363 0.22466 0.0
H76 H 0.46153 0.04572 0.2221 0.0
H77 H 0.4437 0.0462 0.14322 0.0
H78 H 0.47708 0.03116 0.20497 0.0
H79 H 0.45957 0.0316 0.12748 0.0
H80 H 0.49271 0.11586 0.1847 0.0
H81 H 0.46366 0.10733 0.25653 0.0
H82 H 0.51217 0.14643 0.19842 0.0
H83 H 0.48358 0.13807 0.26896 0.0
H84 H 0.48849 0.10078 0.094 0.0
H85 H 0.51163 0.07977 0.14672 0.0
H86 H 0.43319 0.02479 0.29078 0.0
H87 H 0.48464 0.07014 0.29246 0.0
Li88 Li 0.37752 0.44144 0.55725 0.0
Li89 Li 0.38013 0.45378 0.51266 0.0
Li90 Li 0.35287 0.44084 0.53801 0.0
Li91 Li 0.36341 0.4223 0.51948 0.0
C92 C 0.3707 0.47338 0.55415 0.0
N93 N 0.35978 0.49632 0.56861 0.0
C94 C 0.37388 0.48724 0.5376 0.0
C95 C 0.36215 0.47129 0.57818 0.0
C96 C 0.36821 0.49868 0.54524 0.0
C97 C 0.35667 0.48299 0.5851 0.0
C98 C 0.40485 0.44461 0.51563 0.0
C99 C 0.42442 0.45015 0.4792 0.0
N100 N 0.43815 0.45891 0.49575 0.0
C101 C 0.41916 0.45365 0.53229 0.0
C102 C 0.40749 0.4428 0.48888 0.0
C103 C 0.43589 0.46078 0.52185 0.0
C104 C 0.39558 0.43298 0.59528 0.0
N105 N 0.39056 0.44461 0.58855 0.0
C106 C 0.40918 0.46453 0.62129 0.0
C107 C 0.39672 0.45994 0.60154 0.0
C108 C 0.4154 0.45323 0.62773 0.0
C109 C 0.4079 0.43696 0.61514 0.0
H110 H 0.39078 0.42106 0.5842 0.0
H111 H 0.39279 0.4691 0.59543 0.0
C112 C 0.38514 0.47297 0.46658 0.0
N113 N 0.39374 0.47153 0.48772 0.0
C114 C 0.39417 0.4849 0.44659 0.0
C115 C 0.42077 0.49411 0.47085 0.0
C116 C 0.41115 0.48219 0.49063 0.0
C117 C 0.41226 0.49541 0.44836 0.0
H118 H 0.37124 0.46472 0.46507 0.0
H119 H 0.41762 0.48127 0.50807 0.0
C120 C 0.35242 0.41239 0.57745 0.0
N121 N 0.35155 0.39523 0.62336 0.0
C122 C 0.35437 0.39776 0.57643 0.0
C123 C 0.34987 0.41822 0.60174 0.0
C124 C 0.35392 0.38927 0.59989 0.0
C125 C 0.34953 0.4094 0.62476 0.0
C126 C 0.34764 0.42875 0.47885 0.0
C127 C 0.32954 0.42078 0.47837 0.0
C128 C 0.35642 0.42718 0.45708 0.0
C129 C 0.32051 0.41119 0.45617 0.0
C130 C 0.34691 0.41742 0.4353 0.0
N131 N 0.3293 0.40969 0.43531 0.0
C132 C 0.33109 0.45391 0.52666 0.0
C133 C 0.31918 0.43065 0.55739 0.0
C134 C 0.31564 0.45428 0.52608 0.0
N135 N 0.33254 0.44221 0.5421 0.0
C136 C 0.30333 0.43036 0.55706 0.0
C137 C 0.30144 0.44219 0.54103 0.0
H138 H 0.34174 0.4625 0.514 0.0
H139 H 0.32064 0.42126 0.56902 0.0
C140 C 0.3691 0.39817 0.49168 0.0
N141 N 0.3566 0.40095 0.50194 0.0
C142 C 0.36476 0.38501 0.47317 0.0
C143 C 0.33461 0.37703 0.47769 0.0
C144 C 0.33952 0.39018 0.49644 0.0
C145 C 0.34741 0.37477 0.46512 0.0
H146 H 0.38255 0.4068 0.49666 0.0
H147 H 0.32985 0.3926 0.50517 0.0
O148 O 0.37596 0.46193 0.54688 0.0
O149 O 0.38836 0.43755 0.52545 0.0
O150 O 0.35298 0.42095 0.55475 0.0
O151 O 0.3567 0.43788 0.50064 0.0
H152 H 0.38053 0.48907 0.51898 0.0
H153 H 0.35964 0.46064 0.59122 0.0
H154 H 0.37049 0.50941 0.53258 0.0
H155 H 0.34993 0.48147 0.60355 0.0
H156 H 0.42665 0.44892 0.45851 0.0
H157 H 0.41742 0.45529 0.55299 0.0
H158 H 0.39659 0.43592 0.47567 0.0
H159 H 0.44707 0.46784 0.5345 0.0
H160 H 0.41475 0.47733 0.62999 0.0
H161 H 0.41214 0.42776 0.61961 0.0
H162 H 0.38715 0.48553 0.42955 0.0
H163 H 0.43469 0.50221 0.47306 0.0
H164 H 0.35633 0.39308 0.55775 0.0
H165 H 0.34828 0.4295 0.6028 0.0
H166 H 0.35549 0.37798 0.59944 0.0
H167 H 0.34766 0.41381 0.64373 0.0
H168 H 0.32253 0.4218 0.49507 0.0
H169 H 0.37042 0.43329 0.45713 0.0
H170 H 0.30649 0.40486 0.45559 0.0
H171 H 0.35352 0.41597 0.41843 0.0
H172 H 0.31454 0.46336 0.51307 0.0
H173 H 0.29259 0.42081 0.56876 0.0
H174 H 0.37503 0.38375 0.46384 0.0
H175 H 0.32108 0.36929 0.47212 0.0
Li176 Li 0.90989 0.3745 0.84651 0.0
Li177 Li 0.92336 0.37623 0.88942 0.0
Li178 Li 0.9294 0.36272 0.85131 0.0
Li179 Li 0.90142 0.34862 0.87407 0.0
C180 C 0.95134 0.3971 0.84695 0.0
N181 N 0.98525 0.41658 0.82974 0.0
C182 C 0.96485 0.40525 0.86521 0.0
C183 C 0.95507 0.39891 0.81993 0.0
C184 C 0.9819 0.41506 0.85611 0.0
C185 C 0.9723 0.40878 0.81163 0.0
C186 C 0.89412 0.37677 0.90011 0.0
C187 C 0.88781 0.38002 0.94535 0.0
N188 N 0.88636 0.394 0.9383 0.0
C189 C 0.89242 0.39107 0.89325 0.0
C190 C 0.89165 0.37108 0.92631 0.0
C191 C 0.88854 0.39964 0.91287 0.0
C192 C 0.88551 0.37856 0.81512 0.0
N193 N 0.90241 0.38596 0.82264 0.0
C194 C 0.91034 0.40975 0.79323 0.0
C195 C 0.91469 0.40145 0.8126 0.0
C196 C 0.89316 0.40204 0.78413 0.0
C197 C 0.88059 0.38634 0.79556 0.0
H198 H 0.87592 0.36642 0.82389 0.0
H199 H 0.92796 0.40722 0.81927 0.0
C200 C 0.93913 0.38804 0.94078 0.0
N201 N 0.93305 0.39162 0.91839 0.0
C202 C 0.94643 0.40053 0.96084 0.0
C203 C 0.94052 0.41969 0.9345 0.0
C204 C 0.93383 0.40713 0.91483 0.0
C205 C 0.94698 0.41648 0.95774 0.0
H206 H 0.93852 0.37565 0.94289 0.0
H207 H 0.92931 0.40974 0.89652 0.0
C208 C 0.89699 0.34816 0.81284 0.0
N209 N 0.87838 0.34237 0.76663 0.0
C210 C 0.87909 0.33667 0.81258 0.0
C211 C 0.90545 0.35662 0.78957 0.0
C212 C 0.86991 0.33392 0.789 0.0
C213 C 0.8958 0.35355 0.76643 0.0
C214 C 0.92102 0.33972 0.90117 0.0
C215 C 0.92549 0.32825 0.88953 0.0
C216 C 0.91235 0.33553 0.92539 0.0
C217 C 0.92096 0.31259 0.9022 0.0
C218 C 0.90803 0.31974 0.93743 0.0
N219 N 0.91238 0.30869 0.92567 0.0
C220 C 0.96271 0.36709 0.83583 0.0
C221 C 0.93804 0.34711 0.8114 0.0
C222 C 0.97372 0.36558 0.81762 0.0
N223 N 0.94526 0.3585 0.83168 0.0
C224 C 0.94847 0.34518 0.79284 0.0
C225 C 0.96661 0.35493 0.79526 0.0
H226 H 0.96814 0.37569 0.85256 0.0
H227 H 0.92413 0.34003 0.80893 0.0
C228 C 0.86783 0.32498 0.89322 0.0
N229 N 0.88225 0.32651 0.88144 0.0
C230 C 0.85245 0.30898 0.8934 0.0
C231 C 0.8674 0.29639 0.87052 0.0
C232 C 0.8824 0.31263 0.87056 0.0
C233 C 0.85203 0.29456 0.88132 0.0
H234 H 0.868 0.33635 0.90112 0.0
H235 H 0.89388 0.31441 0.86044 0.0
O236 O 0.93456 0.38741 0.85547 0.0
O237 O 0.89821 0.3684 0.88126 0.0
O238 O 0.9062 0.35123 0.83579 0.0
O239 O 0.92516 0.355 0.88892 0.0
H240 H 0.96222 0.40396 0.88619 0.0
H241 H 0.94479 0.39261 0.80554 0.0
H242 H 0.99249 0.42141 0.87001 0.0
H243 H 0.97539 0.41019 0.79079 0.0
H244 H 0.886 0.37586 0.96575 0.0
H245 H 0.89426 0.3956 0.87303 0.0
H246 H 0.89286 0.36 0.9319 0.0
H247 H 0.8873 0.4108 0.90789 0.0
H248 H 0.92047 0.42178 0.78485 0.0
H249 H 0.86716 0.3801 0.78932 0.0
H250 H 0.95157 0.39781 0.97845 0.0
H251 H 0.94113 0.43203 0.93128 0.0
H252 H 0.8723 0.33009 0.8304 0.0
H253 H 0.91929 0.36558 0.78946 0.0
H254 H 0.85604 0.32513 0.78853 0.0
H255 H 0.90216 0.3601 0.74832 0.0
H256 H 0.93225 0.33134 0.87081 0.0
H257 H 0.9089 0.34434 0.93471 0.0
H258 H 0.92424 0.30353 0.89336 0.0
H259 H 0.90122 0.31627 0.9561 0.0
H260 H 0.98762 0.3731 0.82054 0.0
H261 H 0.94233 0.33689 0.77593 0.0
H262 H 0.84085 0.30805 0.90193 0.0
H263 H 0.86753 0.28569 0.86054 0.0
Li264 Li 0.54274 0.92181 0.18006 0.0
Li265 Li 0.55469 0.93026 0.22382 0.0
Li266 Li 0.57424 0.93537 0.18568 0.0
Li267 Li 0.55421 0.90575 0.20294 0.0
C268 C 0.56059 0.9596 0.17978 0.0
N269 N 0.56277 0.98779 0.15327 0.0
C270 C 0.55508 0.97011 0.19197 0.0
C271 C 0.56716 0.96342 0.15407 0.0
C272 C 0.55628 0.9843 0.17824 0.0
C273 C 0.56819 0.97774 0.14102 0.0
C274 C 0.51894 0.9077 0.22043 0.0
C275 C 0.49022 0.8929 0.23936 0.0
N276 N 0.48913 0.90752 0.23632 0.0
C277 C 0.51751 0.92256 0.21742 0.0
C278 C 0.50517 0.89273 0.23144 0.0
C279 C 0.50236 0.92222 0.22561 0.0
C280 C 0.51382 0.90204 0.1477 0.0
N281 N 0.52476 0.91862 0.15571 0.0
C282 C 0.51079 0.92917 0.12691 0.0
C283 C 0.52307 0.93203 0.14631 0.0
C284 C 0.50007 0.91234 0.11714 0.0
C285 C 0.50148 0.8986 0.12808 0.0
H286 H 0.51488 0.89149 0.15627 0.0
H287 H 0.53126 0.945 0.1535 0.0
C288 C 0.5613 0.95751 0.25839 0.0
N289 N 0.55227 0.93995 0.25595 0.0
C290 C 0.55683 0.96562 0.27796 0.0
C291 C 0.53487 0.93734 0.29346 0.0
C292 C 0.53988 0.92977 0.27375 0.0
C293 C 0.54289 0.9555 0.29496 0.0
H294 H 0.57112 0.96525 0.24396 0.0
H295 H 0.53302 0.91582 0.27156 0.0
C296 C 0.55319 0.90682 0.14202 0.0
N297 N 0.54195 0.89215 0.09268 0.0
C298 C 0.54292 0.88881 0.13933 0.0
C299 C 0.55796 0.91733 0.11954 0.0
C300 C 0.53731 0.88165 0.11424 0.0
C301 C 0.55208 0.90968 0.0948 0.0
C302 C 0.57684 0.92023 0.24566 0.0
C303 C 0.59348 0.92755 0.25647 0.0
C304 C 0.56264 0.90752 0.25976 0.0
C305 C 0.59566 0.92204 0.28129 0.0
C306 C 0.56535 0.90236 0.28451 0.0
N307 N 0.58166 0.90967 0.29468 0.0
C308 C 0.60461 0.96642 0.16805 0.0
C309 C 0.60011 0.93954 0.15154 0.0
C310 C 0.6178 0.97547 0.14957 0.0
N311 N 0.59565 0.94878 0.16788 0.0
C312 C 0.61321 0.94802 0.13288 0.0
C313 C 0.62179 0.9662 0.13102 0.0
H314 H 0.60075 0.97343 0.18129 0.0
H315 H 0.59272 0.92551 0.15185 0.0
C316 C 0.53718 0.86936 0.21176 0.0
N317 N 0.55247 0.88386 0.20596 0.0
C318 C 0.53565 0.85301 0.20931 0.0
C319 C 0.56579 0.86702 0.19599 0.0
C320 C 0.56673 0.88305 0.19869 0.0
C321 C 0.54999 0.85169 0.20073 0.0
H322 H 0.52602 0.87047 0.21714 0.0
H323 H 0.57859 0.89486 0.19379 0.0
O324 O 0.55951 0.94566 0.19301 0.0
O325 O 0.53373 0.90771 0.21292 0.0
O326 O 0.55869 0.91408 0.16648 0.0
O327 O 0.57455 0.92557 0.22141 0.0
H328 H 0.54979 0.96729 0.21175 0.0
H329 H 0.57136 0.9554 0.14425 0.0
H330 H 0.55203 0.99252 0.18743 0.0
H331 H 0.57326 0.98083 0.12113 0.0
H332 H 0.47948 0.88141 0.24796 0.0
H333 H 0.52799 0.93427 0.20902 0.0
H334 H 0.50607 0.88112 0.23396 0.0
H335 H 0.50112 0.93366 0.22347 0.0
H336 H 0.51011 0.94014 0.11906 0.0
H337 H 0.4932 0.88537 0.12146 0.0
H338 H 0.56324 0.97967 0.27833 0.0
H339 H 0.52417 0.9291 0.30637 0.0
H340 H 0.5391 0.88043 0.15644 0.0
H341 H 0.56614 0.93123 0.12111 0.0
H342 H 0.52923 0.86775 0.11193 0.0
H343 H 0.55561 0.91768 0.07726 0.0
H344 H 0.6046 0.93741 0.24578 0.0
H345 H 0.54967 0.90168 0.25173 0.0
H346 H 0.60847 0.9276 0.2899 0.0
H347 H 0.55449 0.89255 0.29565 0.0
H348 H 0.62423 0.98951 0.14898 0.0
H349 H 0.61566 0.9403 0.11885 0.0
H350 H 0.52328 0.84153 0.21339 0.0
H351 H 0.57708 0.86663 0.18891 0.0
Li352 Li 0.63556 0.5774 0.52163 0.0
Li353 Li 0.64862 0.55935 0.53928 0.0
Li354 Li 0.62076 0.54565 0.51531 0.0
Li355 Li 0.62298 0.55703 0.5587 0.0
C356 C 0.64746 0.56109 0.47722 0.0
N357 N 0.65439 0.55585 0.42588 0.0
C358 C 0.66007 0.55648 0.47208 0.0
C359 C 0.63853 0.56323 0.45618 0.0
C360 C 0.66335 0.55384 0.44601 0.0
C361 C 0.64217 0.56046 0.4304 0.0
C362 C 0.64699 0.58469 0.58127 0.0
C363 C 0.65193 0.58465 0.62804 0.0
N364 N 0.64626 0.59616 0.63163 0.0
C365 C 0.64128 0.59656 0.58535 0.0
C366 C 0.65243 0.57871 0.6027 0.0
C367 C 0.64099 0.60219 0.611 0.0
C368 C 0.63045 0.60517 0.50477 0.0
N369 N 0.64101 0.59823 0.50382 0.0
C370 C 0.65699 0.6167 0.46792 0.0
C371 C 0.65454 0.60423 0.4867 0.0
C372 C 0.64541 0.6231 0.46682 0.0
C373 C 0.63244 0.61773 0.48631 0.0
H374 H 0.61978 0.60012 0.51864 0.0
H375 H 0.66273 0.59846 0.48645 0.0
C376 C 0.66984 0.54446 0.5394 0.0
N377 N 0.66967 0.55951 0.54295 0.0
C378 C 0.68559 0.54473 0.53716 0.0
C379 C 0.70059 0.57584 0.54377 0.0
C380 C 0.68454 0.57498 0.54572 0.0
C381 C 0.70125 0.56065 0.53864 0.0
H382 H 0.65774 0.53242 0.53678 0.0
H383 H 0.6839 0.58672 0.5483 0.0
C384 C 0.59658 0.55883 0.51659 0.0
N385 N 0.56719 0.55573 0.49278 0.0
C386 C 0.58065 0.55068 0.52987 0.0
C387 C 0.59752 0.56546 0.49125 0.0
C388 C 0.56595 0.54922 0.51748 0.0
C389 C 0.58254 0.56376 0.47954 0.0
C390 C 0.61374 0.52171 0.55522 0.0
C391 C 0.59655 0.51797 0.55327 0.0
C392 C 0.61729 0.50904 0.5646 0.0
C393 C 0.58315 0.50161 0.56083 0.0
C394 C 0.60353 0.49281 0.57196 0.0
N395 N 0.58689 0.48947 0.56995 0.0
C396 C 0.61589 0.52064 0.47684 0.0
C397 C 0.59054 0.52221 0.48526 0.0
C398 C 0.6076 0.50882 0.45635 0.0
N399 N 0.60752 0.52758 0.49016 0.0
C400 C 0.58168 0.51027 0.46519 0.0
C401 C 0.59034 0.50373 0.45003 0.0
H402 H 0.62916 0.52454 0.48179 0.0
H403 H 0.58382 0.52724 0.49663 0.0
C404 C 0.60067 0.56062 0.5942 0.0
N405 N 0.61068 0.55318 0.5911 0.0
C406 C 0.58864 0.55534 0.61474 0.0
C407 C 0.59845 0.53588 0.62971 0.0
C408 C 0.61041 0.54165 0.609 0.0
C409 C 0.58691 0.54224 0.6321 0.0
H410 H 0.60128 0.56986 0.57975 0.0
H411 H 0.61876 0.53618 0.60633 0.0
O412 O 0.64398 0.56356 0.5027 0.0
O413 O 0.6469 0.57865 0.55645 0.0
O414 O 0.61111 0.56032 0.52846 0.0
O415 O 0.62712 0.53769 0.54815 0.0
H416 H 0.66724 0.55491 0.488 0.0
H417 H 0.62885 0.5669 0.45967 0.0
H418 H 0.67302 0.5502 0.44179 0.0
H419 H 0.63527 0.56198 0.41397 0.0
H420 H 0.656 0.58007 0.64486 0.0
H421 H 0.63696 0.60122 0.56891 0.0
H422 H 0.6568 0.56945 0.59978 0.0
H423 H 0.63652 0.6113 0.61452 0.0
H424 H 0.66704 0.62026 0.45321 0.0
H425 H 0.62337 0.62249 0.48641 0.0
H426 H 0.68546 0.53274 0.53283 0.0
H427 H 0.71233 0.58834 0.54544 0.0
H428 H 0.57957 0.54536 0.54942 0.0
H429 H 0.60967 0.57193 0.48074 0.0
H430 H 0.55355 0.54288 0.52749 0.0
H431 H 0.58312 0.56885 0.45993 0.0
H432 H 0.59357 0.52761 0.54613 0.0
H433 H 0.63054 0.51173 0.56627 0.0
H434 H 0.56979 0.49857 0.55948 0.0
H435 H 0.60609 0.48288 0.5793 0.0
H436 H 0.61462 0.50379 0.44548 0.0
H437 H 0.56835 0.50665 0.46102 0.0
H438 H 0.5799 0.56049 0.61574 0.0
H439 H 0.59763 0.52589 0.64287 0.0
Li440 Li 0.06204 0.63508 0.8521 0.0
Li441 Li 0.09154 0.64895 0.87076 0.0
Li442 Li 0.07974 0.62111 0.84725 0.0
Li443 Li 0.06911 0.62366 0.89107 0.0
C444 C 0.08366 0.65139 0.81098 0.0
N445 N 0.08105 0.66726 0.76569 0.0
C446 C 0.09241 0.66949 0.80917 0.0
C447 C 0.07368 0.64136 0.78968 0.0
C448 C 0.09091 0.67727 0.7861 0.0
C449 C 0.07248 0.64962 0.76699 0.0
C450 C 0.06198 0.64691 0.90923 0.0
C451 C 0.06169 0.6506 0.95633 0.0
N452 N 0.04469 0.64613 0.95493 0.0
C453 C 0.04454 0.64247 0.90818 0.0
C454 C 0.07069 0.65113 0.93342 0.0
C455 C 0.03601 0.64212 0.93154 0.0
C456 C 0.03195 0.62483 0.82233 0.0
N457 N 0.04593 0.63893 0.83281 0.0
C458 C 0.04221 0.65784 0.80344 0.0
C459 C 0.05046 0.65531 0.82506 0.0
C460 C 0.02912 0.64333 0.7901 0.0
C461 C 0.02328 0.62674 0.80083 0.0
H462 H 0.02839 0.612 0.82927 0.0
H463 H 0.0616 0.6663 0.8339 0.0
C464 C 0.12539 0.67228 0.85742 0.0
N465 N 0.11231 0.67046 0.87336 0.0
C466 C 0.14072 0.68814 0.85574 0.0
C467 C 0.12875 0.70016 0.88658 0.0
C468 C 0.11367 0.68389 0.88801 0.0
C469 C 0.14243 0.70238 0.87013 0.0
H470 H 0.12365 0.6615 0.84535 0.0
H471 H 0.10288 0.68211 0.90011 0.0
C472 C 0.04748 0.59394 0.85105 0.0
N473 N 0.0325 0.56002 0.83355 0.0
C474 C 0.04435 0.5806 0.86873 0.0
C475 C 0.043 0.59 0.82446 0.0
C476 C 0.03673 0.56354 0.8595 0.0
C477 C 0.03546 0.57279 0.816 0.0
C478 C 0.10912 0.63437 0.88882 0.0
C479 C 0.1206 0.63197 0.87294 0.0
C480 C 0.11511 0.64401 0.91211 0.0
C481 C 0.13799 0.63947 0.88048 0.0
C482 C 0.1326 0.65132 0.91894 0.0
N483 N 0.14358 0.64893 0.90311 0.0
C484 C 0.09426 0.61703 0.80105 0.0
C485 C 0.08132 0.59153 0.82719 0.0
C486 C 0.09761 0.60846 0.78092 0.0
N487 N 0.0857 0.60837 0.8232 0.0
C488 C 0.08438 0.58239 0.80745 0.0
C489 C 0.09233 0.59079 0.7837 0.0
H490 H 0.09822 0.63056 0.79872 0.0
H491 H 0.07512 0.58509 0.84539 0.0
C492 C 0.04253 0.6036 0.92721 0.0
N493 N 0.0599 0.61117 0.923 0.0
C494 C 0.03469 0.59138 0.94731 0.0
C495 C 0.06289 0.59568 0.95924 0.0
C496 C 0.0702 0.60787 0.93893 0.0
C497 C 0.04482 0.58679 0.96298 0.0
H498 H 0.03461 0.60614 0.91379 0.0
H499 H 0.08393 0.61388 0.93488 0.0
O500 O 0.08472 0.64352 0.83359 0.0
O501 O 0.07046 0.64708 0.88666 0.0
O502 O 0.05491 0.61075 0.8597 0.0
O503 O 0.09211 0.62732 0.88159 0.0
H504 H 0.10011 0.67747 0.82548 0.0
H505 H 0.0668 0.62734 0.79078 0.0
H506 H 0.09754 0.69126 0.78446 0.0
H507 H 0.06468 0.64202 0.75046 0.0
H508 H 0.06823 0.65372 0.97524 0.0
H509 H 0.03765 0.63918 0.88956 0.0
H510 H 0.0842 0.65464 0.93449 0.0
H511 H 0.02249 0.63861 0.93108 0.0
H512 H 0.0471 0.67085 0.79584 0.0
H513 H 0.01291 0.61525 0.79154 0.0
H514 H 0.15083 0.68944 0.84241 0.0
H515 H 0.12963 0.71091 0.89788 0.0
H516 H 0.04789 0.58335 0.88929 0.0
H517 H 0.04548 0.60014 0.81042 0.0
H518 H 0.03427 0.5531 0.87295 0.0
H519 H 0.03201 0.56958 0.79546 0.0
H520 H 0.11616 0.6245 0.85488 0.0
H521 H 0.10639 0.64598 0.9246 0.0
H522 H 0.14704 0.6378 0.86831 0.0
H523 H 0.13745 0.65892 0.9368 0.0
H524 H 0.10372 0.61549 0.76298 0.0
H525 H 0.08042 0.56887 0.81065 0.0
H526 H 0.02068 0.58463 0.94913 0.0
H527 H 0.07116 0.59258 0.97095 0.0
Li528 Li 0.90343 0.55131 0.45913 0.0
Li529 Li 0.93335 0.56788 0.4781 0.0
Li530 Li 0.92579 0.54619 0.44175 0.0
Li531 Li 0.91484 0.53687 0.4855 0.0
C532 C 0.92503 0.58108 0.42695 0.0
N533 N 0.9239 0.60689 0.39812 0.0
C534 C 0.92671 0.59579 0.43964 0.0
C535 C 0.92323 0.57972 0.39948 0.0
C536 C 0.92596 0.60863 0.42476 0.0
C537 C 0.92257 0.59284 0.38529 0.0
C538 C 0.9033 0.55076 0.52014 0.0
C539 C 0.90559 0.54925 0.56739 0.0
N540 N 0.88806 0.53895 0.56894 0.0
C541 C 0.8853 0.54021 0.52219 0.0
C542 C 0.91355 0.55539 0.54289 0.0
C543 C 0.87784 0.53436 0.54706 0.0
C544 C 0.86762 0.53941 0.44801 0.0
N545 N 0.88326 0.55331 0.45445 0.0
C546 C 0.86988 0.57012 0.46481 0.0
C547 C 0.88462 0.56849 0.46263 0.0
C548 C 0.85352 0.55584 0.45905 0.0
C549 C 0.85253 0.54045 0.44996 0.0
H550 H 0.86658 0.52717 0.44286 0.0
H551 H 0.897 0.57898 0.46912 0.0
C552 C 0.96676 0.59384 0.49552 0.0
N553 N 0.94956 0.58856 0.49538 0.0
C554 C 0.97788 0.60669 0.51319 0.0
C555 C 0.95346 0.60896 0.52908 0.0
C556 C 0.94287 0.59616 0.51108 0.0
C557 C 0.97111 0.61397 0.53098 0.0
H558 H 0.97166 0.58742 0.48297 0.0
H559 H 0.92907 0.59147 0.51081 0.0
C560 C 0.89167 0.52008 0.43077 0.0
N561 N 0.87191 0.50321 0.38695 0.0
C562 C 0.88104 0.50203 0.43088 0.0
C563 C 0.89227 0.52954 0.4084 0.0
C564 C 0.87114 0.49374 0.40852 0.0
C565 C 0.88218 0.52079 0.38644 0.0
C566 C 0.94662 0.5388 0.47327 0.0
C567 C 0.93606 0.52108 0.46808 0.0
C568 C 0.96448 0.54572 0.47653 0.0
C569 C 0.94357 0.51058 0.46617 0.0
C570 C 0.9715 0.53479 0.47449 0.0
N571 N 0.96098 0.5176 0.46938 0.0
C572 C 0.94932 0.55388 0.39945 0.0
C573 C 0.92845 0.52407 0.40446 0.0
C574 C 0.95782 0.54994 0.37974 0.0
N575 N 0.93511 0.54095 0.41163 0.0
C576 C 0.93641 0.51957 0.38479 0.0
C577 C 0.95154 0.53253 0.37258 0.0
H578 H 0.95444 0.56718 0.40579 0.0
H579 H 0.91747 0.51396 0.41491 0.0
C580 C 0.8928 0.50616 0.51419 0.0
N581 N 0.90912 0.52004 0.51251 0.0
C582 C 0.88819 0.49467 0.53546 0.0
C583 C 0.91738 0.51185 0.55242 0.0
C584 C 0.9214 0.523 0.53091 0.0
C585 C 0.90053 0.49757 0.55509 0.0
H586 H 0.88326 0.50431 0.49939 0.0
H587 H 0.93423 0.53425 0.52916 0.0
O588 O 0.92595 0.56847 0.44114 0.0
O589 O 0.91089 0.55619 0.49591 0.0
O590 O 0.90165 0.52829 0.45237 0.0
O591 O 0.93963 0.54942 0.4749 0.0
H592 H 0.92846 0.59725 0.46078 0.0
H593 H 0.92253 0.56874 0.38916 0.0
H594 H 0.92707 0.62 0.43439 0.0
H595 H 0.92109 0.59191 0.36405 0.0
H596 H 0.91337 0.55262 0.58515 0.0
H597 H 0.8772 0.5364 0.50475 0.0
H598 H 0.92752 0.5634 0.5416 0.0
H599 H 0.86394 0.52611 0.54894 0.0
H600 H 0.87117 0.58207 0.47253 0.0
H601 H 0.84014 0.52912 0.4454 0.0
H602 H 0.99144 0.6103 0.51375 0.0
H603 H 0.94757 0.61394 0.5426 0.0
H604 H 0.88052 0.49451 0.44803 0.0
H605 H 0.90031 0.54347 0.40815 0.0
H606 H 0.86287 0.47978 0.40831 0.0
H607 H 0.88249 0.52797 0.36901 0.0
H608 H 0.92222 0.51547 0.4654 0.0
H609 H 0.97284 0.55941 0.48054 0.0
H610 H 0.93555 0.49686 0.46209 0.0
H611 H 0.9853 0.53998 0.47694 0.0
H612 H 0.96946 0.56031 0.37082 0.0
H613 H 0.93137 0.50596 0.38039 0.0
H614 H 0.87501 0.48394 0.53688 0.0
H615 H 0.92737 0.51444 0.56686 0.0
Li616 Li 0.37479 0.93309 0.77446 0.0
Li617 Li 0.37935 0.92324 0.81732 0.0
Li618 Li 0.35132 0.90988 0.79482 0.0
Li619 Li 0.36328 0.93972 0.81242 0.0
C620 C 0.36657 0.89428 0.77348 0.0
N621 N 0.35262 0.86092 0.754 0.0
C622 C 0.37003 0.88234 0.78603 0.0
C623 C 0.35627 0.88935 0.75078 0.0
C624 C 0.36279 0.86551 0.77594 0.0
C625 C 0.34926 0.8724 0.74131 0.0
C626 C 0.40411 0.95834 0.79563 0.0
C627 C 0.42647 0.98653 0.7808 0.0
N628 N 0.43618 0.97945 0.77285 0.0
C629 C 0.41434 0.95135 0.78733 0.0
C630 C 0.41021 0.97607 0.79234 0.0
C631 C 0.4305 0.96223 0.77583 0.0
C632 C 0.39178 0.95932 0.73517 0.0
N633 N 0.38676 0.94265 0.74185 0.0
C634 C 0.40556 0.94154 0.7092 0.0
C635 C 0.39286 0.9335 0.72862 0.0
C636 C 0.41212 0.9592 0.70356 0.0
C637 C 0.4045 0.96789 0.71593 0.0
H638 H 0.38706 0.96646 0.74633 0.0
H639 H 0.38896 0.9204 0.73459 0.0
C640 C 0.38483 0.90307 0.85414 0.0
N641 N 0.3927 0.91887 0.84216 0.0
C642 C 0.39295 0.89973 0.87507 0.0
C643 C 0.41724 0.92891 0.8707 0.0
C644 C 0.4086 0.93172 0.84998 0.0
C645 C 0.4093 0.91282 0.88377 0.0
H646 H 0.37195 0.89327 0.84802 0.0
H647 H 0.41429 0.94439 0.84091 0.0
C648 C 0.34998 0.93882 0.75737 0.0
N649 N 0.34802 0.95679 0.71427 0.0
C650 C 0.3528 0.95566 0.76046 0.0
C651 C 0.34592 0.93103 0.73247 0.0
C652 C 0.3518 0.96455 0.73839 0.0
C653 C 0.34508 0.94036 0.71089 0.0
C654 C 0.3565 0.91921 0.85832 0.0
C655 C 0.34271 0.90662 0.87317 0.0
C656 C 0.37008 0.93354 0.87098 0.0
C657 C 0.34272 0.90858 0.90054 0.0
C658 C 0.3696 0.93504 0.89837 0.0
N659 N 0.35604 0.92264 0.91247 0.0
C660 C 0.32972 0.87571 0.80949 0.0
C661 C 0.31618 0.88653 0.78096 0.0
C662 C 0.31408 0.86037 0.81324 0.0
N663 N 0.33043 0.88842 0.79381 0.0
C664 C 0.30015 0.87141 0.78439 0.0
C665 C 0.2989 0.85825 0.80124 0.0
H666 H 0.34123 0.87779 0.81989 0.0
H667 H 0.31712 0.89706 0.76904 0.0
C668 C 0.36955 0.96982 0.84085 0.0
N669 N 0.35724 0.95375 0.83274 0.0
C670 C 0.36582 0.97822 0.86092 0.0
C671 C 0.33668 0.95359 0.86319 0.0
C672 C 0.3409 0.94579 0.84282 0.0
C673 C 0.3494 0.96978 0.87297 0.0
H674 H 0.38256 0.97558 0.83305 0.0
H675 H 0.33151 0.93285 0.83631 0.0
O676 O 0.37338 0.91076 0.78321 0.0
O677 O 0.38806 0.94775 0.80631 0.0
O678 O 0.35091 0.92994 0.77874 0.0
O679 O 0.35657 0.91755 0.83148 0.0
H680 H 0.37821 0.88602 0.80334 0.0
H681 H 0.35362 0.8985 0.74071 0.0
H682 H 0.36528 0.8561 0.78553 0.0
H683 H 0.34115 0.86838 0.72389 0.0
H684 H 0.43132 0.00025 0.77801 0.0
H685 H 0.40973 0.93761 0.78945 0.0
H686 H 0.40239 0.98168 0.79824 0.0
H687 H 0.43849 0.95697 0.76917 0.0
H688 H 0.41123 0.93442 0.70045 0.0
H689 H 0.40917 0.9815 0.7121 0.0
H690 H 0.38639 0.88715 0.8846 0.0
H691 H 0.42967 0.93947 0.87717 0.0
H692 H 0.35588 0.96185 0.77963 0.0
H693 H 0.34349 0.91793 0.72981 0.0
H694 H 0.35407 0.97763 0.74044 0.0
H695 H 0.34205 0.93453 0.69146 0.0
H696 H 0.3321 0.89547 0.86363 0.0
H697 H 0.38085 0.94342 0.85977 0.0
H698 H 0.33213 0.89894 0.9123 0.0
H699 H 0.38 0.94607 0.90843 0.0
H700 H 0.31381 0.85046 0.826 0.0
H701 H 0.28877 0.87043 0.77499 0.0
H702 H 0.37605 0.99057 0.86826 0.0
H703 H 0.3239 0.9467 0.87205 0.0
Li704 Li 0.45233 0.37924 0.15601 0.0
Li705 Li 0.44073 0.37809 0.11328 0.0
Li706 Li 0.42134 0.36339 0.15037 0.0
Li707 Li 0.43948 0.35166 0.13144 0.0
C708 C 0.44433 0.40459 0.1564 0.0
N709 N 0.45934 0.43716 0.17922 0.0
C710 C 0.4534 0.41947 0.14083 0.0
C711 C 0.44281 0.40631 0.18357 0.0
C712 C 0.4609 0.43581 0.15274 0.0
C713 C 0.45053 0.42288 0.19474 0.0
C714 C 0.47768 0.38553 0.12259 0.0
C715 C 0.50683 0.39164 0.13165 0.0
N716 N 0.51296 0.40862 0.12556 0.0
C717 C 0.48429 0.40304 0.11637 0.0
C718 C 0.48905 0.37977 0.13022 0.0
C719 C 0.50215 0.41451 0.11798 0.0
C720 C 0.47142 0.38245 0.20157 0.0
N721 N 0.47036 0.39205 0.18151 0.0
C722 C 0.49311 0.41811 0.20075 0.0
C723 C 0.48124 0.40953 0.18041 0.0
C724 C 0.49382 0.40858 0.22235 0.0
C725 C 0.48302 0.39048 0.22232 0.0
H726 H 0.46307 0.36853 0.20169 0.0
H727 H 0.48051 0.41694 0.16412 0.0
C728 C 0.43315 0.39818 0.07885 0.0
N729 N 0.4432 0.39078 0.08179 0.0
C730 C 0.43697 0.41058 0.05922 0.0
C731 C 0.46063 0.40655 0.04484 0.0
C732 C 0.45617 0.39402 0.06452 0.0
C733 C 0.45147 0.4156 0.04278 0.0
H734 H 0.42287 0.39528 0.09286 0.0
H735 H 0.46384 0.3878 0.0672 0.0
C736 C 0.4269 0.34628 0.18974 0.0
N737 N 0.407 0.32687 0.232 0.0
C738 C 0.4183 0.32815 0.18874 0.0
C739 C 0.42553 0.35453 0.21235 0.0
C740 C 0.40829 0.31857 0.2103 0.0
C741 C 0.41534 0.34449 0.23345 0.0
C742 C 0.41272 0.3529 0.09116 0.0
C743 C 0.39906 0.35636 0.08964 0.0
C744 C 0.41911 0.34941 0.06817 0.0
C745 C 0.39205 0.35637 0.06496 0.0
C746 C 0.41175 0.34956 0.04387 0.0
N747 N 0.3985 0.35302 0.04279 0.0
C748 C 0.39795 0.36869 0.18076 0.0
C749 C 0.38865 0.3392 0.17147 0.0
C750 C 0.3852 0.36384 0.20009 0.0
N751 N 0.39997 0.35641 0.16795 0.0
C752 C 0.37574 0.33374 0.19076 0.0
C753 C 0.37444 0.34617 0.2062 0.0
H754 H 0.40699 0.38227 0.17731 0.0
H755 H 0.39053 0.32972 0.16083 0.0
C756 C 0.45252 0.32978 0.14092 0.0
N757 N 0.44022 0.33107 0.12686 0.0
C758 C 0.45255 0.31415 0.14174 0.0
C759 C 0.42708 0.30135 0.11378 0.0
C760 C 0.4277 0.31737 0.11319 0.0
C761 C 0.43954 0.29962 0.12843 0.0
H762 H 0.46179 0.34068 0.15255 0.0
H763 H 0.41781 0.31869 0.10277 0.0
O764 O 0.43677 0.38846 0.14505 0.0
O765 O 0.46019 0.37414 0.12136 0.0
O766 O 0.43648 0.3559 0.16861 0.0
O767 O 0.42002 0.35323 0.11503 0.0
H768 H 0.45476 0.41846 0.11981 0.0
H769 H 0.43592 0.39498 0.19596 0.0
H770 H 0.468 0.44742 0.14093 0.0
H771 H 0.44955 0.42438 0.21575 0.0
H772 H 0.51576 0.38735 0.13759 0.0
H773 H 0.47571 0.40782 0.11081 0.0
H774 H 0.48423 0.36628 0.13496 0.0
H775 H 0.50741 0.4281 0.11337 0.0
H776 H 0.5012 0.43211 0.2 0.0
H777 H 0.48342 0.3826 0.23831 0.0
H778 H 0.42929 0.4169 0.05798 0.0
H779 H 0.47195 0.40999 0.03278 0.0
H780 H 0.41916 0.32152 0.17141 0.0
H781 H 0.43216 0.36854 0.21351 0.0
H782 H 0.40148 0.30453 0.20973 0.0
H783 H 0.41403 0.3507 0.25096 0.0
H784 H 0.39405 0.35914 0.10731 0.0
H785 H 0.42974 0.34679 0.06908 0.0
H786 H 0.38152 0.35911 0.06344 0.0
H787 H 0.41661 0.34698 0.02587 0.0
H788 H 0.38476 0.37389 0.21155 0.0
H789 H 0.36756 0.31999 0.19461 0.0
H790 H 0.46212 0.31321 0.15374 0.0
H791 H 0.41681 0.29037 0.10339 0.0
Li792 Li 0.07269 0.44725 0.43919 0.0
Li793 Li 0.08173 0.46017 0.48348 0.0
Li794 Li 0.09527 0.44541 0.46092 0.0
Li795 Li 0.06531 0.42846 0.47772 0.0
C796 C 0.11211 0.47787 0.44367 0.0
N797 N 0.14669 0.49935 0.43128 0.0
C798 C 0.12255 0.4922 0.45961 0.0
C799 C 0.1192 0.47457 0.4213 0.0
C800 C 0.14002 0.50288 0.45304 0.0
C801 C 0.13673 0.48555 0.41542 0.0
C802 C 0.04907 0.45363 0.47776 0.0
C803 C 0.03524 0.46132 0.51195 0.0
N804 N 0.03233 0.47109 0.49427 0.0
C805 C 0.04599 0.4638 0.45994 0.0
C806 C 0.04366 0.45238 0.50399 0.0
C807 C 0.03747 0.47249 0.46866 0.0
C808 C 0.04671 0.44064 0.40185 0.0
N809 N 0.06402 0.45034 0.40659 0.0
C810 C 0.06771 0.46866 0.3698 0.0
C811 C 0.07464 0.46377 0.39062 0.0
C812 C 0.04967 0.45971 0.36564 0.0
C813 C 0.03922 0.44508 0.3813 0.0
H814 H 0.03854 0.43026 0.41525 0.0
H815 H 0.08833 0.47138 0.39501 0.0
C816 C 0.09543 0.47875 0.52983 0.0
N817 N 0.08654 0.47845 0.50784 0.0
C818 C 0.0984 0.49051 0.55005 0.0
C819 C 0.08403 0.50237 0.52398 0.0
C820 C 0.08137 0.49034 0.50415 0.0
C821 C 0.0924 0.50234 0.54752 0.0
H822 H 0.10003 0.46966 0.53193 0.0
H823 H 0.07496 0.49033 0.48605 0.0
C824 C 0.06744 0.4177 0.42069 0.0
N825 N 0.05179 0.40169 0.37381 0.0
C826 C 0.05003 0.40462 0.42043 0.0
C827 C 0.07696 0.42255 0.3972 0.0
C828 C 0.04234 0.39669 0.3965 0.0
C829 C 0.06878 0.41433 0.37368 0.0
C830 C 0.08613 0.43441 0.52024 0.0
C831 C 0.09549 0.42571 0.5228 0.0
C832 C 0.0755 0.43393 0.54095 0.0
C833 C 0.094 0.4166 0.54604 0.0
C834 C 0.07433 0.42464 0.56384 0.0
N835 N 0.08353 0.41625 0.56589 0.0
C836 C 0.12881 0.45739 0.4771 0.0
C837 C 0.11885 0.43353 0.44769 0.0
C838 C 0.14406 0.4571 0.48169 0.0
N839 N 0.11657 0.44566 0.46052 0.0
C840 C 0.13389 0.43261 0.45203 0.0
C841 C 0.14656 0.44427 0.46974 0.0
H842 H 0.12636 0.46652 0.48762 0.0
H843 H 0.10866 0.42411 0.43512 0.0
C844 C 0.03491 0.40675 0.50618 0.0
N845 N 0.04956 0.40788 0.49604 0.0
C846 C 0.026 0.39505 0.5265 0.0
C847 C 0.04645 0.38472 0.52361 0.0
C848 C 0.05487 0.39653 0.50316 0.0
C849 C 0.03232 0.3845 0.5364 0.0
H850 H 0.03087 0.41579 0.49991 0.0
H851 H 0.06654 0.3977 0.4946 0.0
O852 O 0.09503 0.46717 0.44994 0.0
O853 O 0.05734 0.44495 0.4696 0.0
O854 O 0.07511 0.42581 0.44382 0.0
O855 O 0.08725 0.44324 0.4975 0.0
H856 H 0.11726 0.49497 0.47694 0.0
H857 H 0.11128 0.46353 0.40878 0.0
H858 H 0.14828 0.51396 0.46525 0.0
H859 H 0.14242 0.48308 0.39827 0.0
H860 H 0.03106 0.46052 0.53221 0.0
H861 H 0.05027 0.46517 0.43969 0.0
H862 H 0.0461 0.44476 0.51815 0.0
H863 H 0.03502 0.48042 0.45509 0.0
H864 H 0.07624 0.47992 0.35805 0.0
H865 H 0.02524 0.43798 0.37916 0.0
H866 H 0.10486 0.48994 0.56782 0.0
H867 H 0.07952 0.51152 0.52099 0.0
H868 H 0.04251 0.40074 0.43849 0.0
H869 H 0.09047 0.43264 0.39714 0.0
H870 H 0.02884 0.3866 0.39595 0.0
H871 H 0.07595 0.41802 0.35531 0.0
H872 H 0.10369 0.42583 0.50694 0.0
H873 H 0.06815 0.44056 0.53928 0.0
H874 H 0.10112 0.40975 0.54825 0.0
H875 H 0.06606 0.42405 0.57994 0.0
H876 H 0.15357 0.46655 0.4951 0.0
H877 H 0.1352 0.42239 0.44261 0.0
H878 H 0.01521 0.39537 0.53582 0.0
H879 H 0.05159 0.37665 0.53046 0.0
Li880 Li 0.64842 0.08517 0.80076 0.0
Li881 Li 0.63857 0.05555 0.81894 0.0
Li882 Li 0.62321 0.06054 0.78164 0.0
Li883 Li 0.62161 0.07007 0.82543 0.0
C884 C 0.65447 0.06929 0.75752 0.0
N885 N 0.66834 0.0786 0.70738 0.0
C886 C 0.66345 0.06168 0.74642 0.0
C887 C 0.65255 0.08164 0.74313 0.0
C888 C 0.67037 0.06657 0.72104 0.0
C889 C 0.65965 0.08617 0.71782 0.0
C890 C 0.64512 0.08226 0.8631 0.0
C891 C 0.63705 0.07488 0.90873 0.0
N892 N 0.64306 0.09192 0.91422 0.0
C893 C 0.65131 0.09971 0.86921 0.0
C894 C 0.63801 0.06974 0.88302 0.0
C895 C 0.65012 0.10433 0.89517 0.0
C896 C 0.66761 0.12146 0.80085 0.0
N897 N 0.66856 0.10691 0.79636 0.0
C898 C 0.69946 0.12335 0.79455 0.0
C899 C 0.68398 0.10755 0.79265 0.0
C900 C 0.69901 0.13852 0.80082 0.0
C901 C 0.68278 0.13752 0.8032 0.0
H902 H 0.65511 0.12042 0.8042 0.0
H903 H 0.68429 0.09568 0.78947 0.0
C904 C 0.63735 0.02413 0.83578 0.0
N905 N 0.64633 0.04178 0.83626 0.0
C906 C 0.64102 0.01475 0.85432 0.0
C907 C 0.66417 0.04186 0.8715 0.0
C908 C 0.66003 0.05067 0.85275 0.0
C909 C 0.65411 0.0237 0.87325 0.0
H910 H 0.62653 0.0174 0.82236 0.0
H911 H 0.66695 0.06471 0.85264 0.0
C912 C 0.61242 0.08547 0.78451 0.0
N913 N 0.58488 0.08932 0.76831 0.0
C914 C 0.59542 0.07271 0.79044 0.0
C915 C 0.61545 0.10028 0.77052 0.0
C916 C 0.58166 0.07486 0.78204 0.0
C917 C 0.60134 0.10196 0.76245 0.0
C918 C 0.59882 0.03217 0.8235 0.0
C919 C 0.58297 0.0258 0.81029 0.0
C920 C 0.59959 0.02397 0.84662 0.0
C921 C 0.56817 0.01147 0.82056 0.0
C922 C 0.58449 0.00968 0.85626 0.0
N923 N 0.56922 0.00377 0.84314 0.0
C924 C 0.60241 0.03254 0.74883 0.0
C925 C 0.60631 0.05934 0.73305 0.0
C926 C 0.58934 0.02345 0.73032 0.0
N927 N 0.60997 0.05008 0.75066 0.0
C928 C 0.59322 0.05077 0.71431 0.0
C929 C 0.58399 0.03252 0.71363 0.0
H930 H 0.60572 0.02554 0.76295 0.0
H931 H 0.61277 0.07331 0.73451 0.0
C932 C 0.61119 0.09079 0.85311 0.0
N933 N 0.60817 0.07425 0.85102 0.0
C934 C 0.60323 0.0952 0.87304 0.0
C935 C 0.58882 0.06539 0.88785 0.0
C936 C 0.59716 0.06161 0.86784 0.0
C937 C 0.59194 0.0824 0.89082 0.0
H938 H 0.62019 0.10067 0.83972 0.0
H939 H 0.59523 0.04873 0.86643 0.0
O940 O 0.64761 0.06458 0.78233 0.0
O941 O 0.6456 0.07741 0.83763 0.0
O942 O 0.62613 0.08363 0.79231 0.0
O943 O 0.61358 0.04596 0.81342 0.0
H944 H 0.66504 0.0521 0.75732 0.0
H945 H 0.64568 0.08771 0.75137 0.0
H946 H 0.67735 0.06079 0.7122 0.0
H947 H 0.65825 0.0957 0.70646 0.0
H948 H 0.63147 0.06531 0.9243 0.0
H949 H 0.65679 0.10956 0.85403 0.0
H950 H 0.63306 0.05617 0.8786 0.0
H951 H 0.65475 0.11777 0.90015 0.0
H952 H 0.71166 0.12356 0.79212 0.0
H953 H 0.68177 0.14879 0.80839 0.0
H954 H 0.6331 0.00074 0.85476 0.0
H955 H 0.67424 0.04934 0.88578 0.0
H956 H 0.59289 0.06133 0.80154 0.0
H957 H 0.62856 0.1103 0.76583 0.0
H958 H 0.56843 0.06505 0.78647 0.0
H959 H 0.60348 0.11332 0.75152 0.0
H960 H 0.58206 0.03177 0.79223 0.0
H961 H 0.61162 0.02881 0.85736 0.0
H962 H 0.55584 0.00644 0.81053 0.0
H963 H 0.5849 0.00331 0.87422 0.0
H964 H 0.58282 0.0094 0.73009 0.0
H965 H 0.58955 0.05832 0.70189 0.0
H966 H 0.60594 0.10847 0.87462 0.0
H967 H 0.58047 0.05521 0.90144 0.0
Li968 Li 0.57545 0.64079 0.14498 0.0
Li969 Li 0.55472 0.64835 0.12255 0.0
Li970 Li 0.54374 0.62142 0.14978 0.0
Li971 Li 0.55738 0.62419 0.10788 0.0
C972 C 0.56166 0.65502 0.18329 0.0
N973 N 0.56994 0.67427 0.2293 0.0
C974 C 0.56725 0.67277 0.18232 0.0
C975 C 0.56004 0.64703 0.20772 0.0
C976 C 0.57143 0.68228 0.20578 0.0
C977 C 0.56436 0.65699 0.23074 0.0
C978 C 0.58391 0.64965 0.08532 0.0
C979 C 0.58519 0.65155 0.03783 0.0
N980 N 0.59874 0.64852 0.03804 0.0
C981 C 0.59788 0.64663 0.08512 0.0
C982 C 0.57752 0.6522 0.06155 0.0
C983 C 0.6052 0.64609 0.06098 0.0
C984 C 0.60301 0.63977 0.17142 0.0
N985 N 0.5965 0.65017 0.16466 0.0
C986 C 0.61466 0.67144 0.19628 0.0
C987 C 0.6029 0.66623 0.17536 0.0
C988 C 0.61998 0.66003 0.20595 0.0
C989 C 0.61478 0.64442 0.19228 0.0
H990 H 0.59807 0.62725 0.16207 0.0
H991 H 0.59799 0.67453 0.16889 0.0
C992 C 0.5363 0.66592 0.12538 0.0
N993 N 0.55118 0.66712 0.11611 0.0
C994 C 0.53457 0.68065 0.12646 0.0
C995 C 0.56322 0.69732 0.10732 0.0
C996 C 0.56438 0.68225 0.10654 0.0
C997 C 0.54838 0.69672 0.11814 0.0
H998 H 0.52622 0.65373 0.13338 0.0
H999 H 0.57617 0.6828 0.09974 0.0
C1000 C 0.56136 0.60286 0.1572 0.0
N1001 N 0.55973 0.57744 0.19047 0.0
C1002 C 0.55701 0.58652 0.1472 0.0
C1003 C 0.5649 0.60625 0.18411 0.0
C1004 C 0.55625 0.57385 0.16435 0.0
C1005 C 0.56401 0.59325 0.20061 0.0
C1006 C 0.52082 0.60941 0.10794 0.0
C1007 C 0.52018 0.59351 0.11143 0.0
C1008 C 0.50641 0.60973 0.09768 0.0
C1009 C 0.50513 0.57817 0.10449 0.0
C1010 C 0.49158 0.59411 0.09099 0.0
N1011 N 0.49126 0.57879 0.0945 0.0
C1012 C 0.51916 0.61565 0.18869 0.0
C1013 C 0.52142 0.59073 0.17977 0.0
C1014 C 0.50769 0.60714 0.20947 0.0
N1015 N 0.52615 0.60755 0.17484 0.0
C1016 C 0.51018 0.58179 0.20056 0.0
C1017 C 0.5034 0.5901 0.21614 0.0
H1018 H 0.52287 0.62893 0.18402 0.0
H1019 H 0.52668 0.58432 0.16807 0.0
C1020 C 0.56654 0.60334 0.07812 0.0
N1021 N 0.55663 0.61101 0.07771 0.0
C1022 C 0.56367 0.5905 0.05974 0.0
C1023 C 0.54132 0.59461 0.03972 0.0
C1024 C 0.54482 0.60757 0.05826 0.0
C1025 C 0.55026 0.58531 0.04107 0.0
H1026 H 0.57598 0.60649 0.09369 0.0
H1027 H 0.53727 0.61404 0.05822 0.0
O1028 O 0.55764 0.64554 0.16044 0.0
O1029 O 0.57628 0.64976 0.10866 0.0
O1030 O 0.56192 0.61534 0.14072 0.0
O1031 O 0.53541 0.62463 0.11453 0.0
H1032 H 0.56858 0.6792 0.16365 0.0
H1033 H 0.55537 0.63327 0.20899 0.0
H1034 H 0.57589 0.69604 0.20528 0.0
H1035 H 0.56322 0.65097 0.24976 0.0
H1036 H 0.58034 0.6534 0.01925 0.0
H1037 H 0.60289 0.64456 0.1034 0.0
H1038 H 0.56665 0.65447 0.06145 0.0
H1039 H 0.61596 0.64368 0.06048 0.0
H1040 H 0.61871 0.68379 0.20579 0.0
H1041 H 0.61855 0.63522 0.19896 0.0
H1042 H 0.52302 0.67966 0.13528 0.0
H1043 H 0.57409 0.70944 0.10052 0.0
H1044 H 0.5541 0.58358 0.12648 0.0
H1045 H 0.56838 0.61882 0.19214 0.0
H1046 H 0.55285 0.56114 0.15689 0.0
H1047 H 0.56673 0.59573 0.22147 0.0
H1048 H 0.53121 0.593 0.11923 0.0
H1049 H 0.5067 0.62195 0.09489 0.0
H1050 H 0.50449 0.56579 0.10703 0.0
H1051 H 0.48033 0.59417 0.083 0.0
H1052 H 0.50246 0.61395 0.2204 0.0
H1053 H 0.50738 0.56872 0.2049 0.0
H1054 H 0.5712 0.58402 0.06112 0.0
H1055 H 0.53082 0.59107 0.02583 0.0
H1056 H 0.51283 0.06821 0.10251 0.0
H1057 H 0.53149 0.07116 0.0651 0.0
H1058 H 0.53817 0.12163 0.04774 0.0
H1059 H 0.51953 0.11878 0.08517 0.0
H1060 H 0.52786 0.10019 0.00468 0.0
H1061 H 0.58368 0.1003 0.05327 0.0
H1062 H 0.56318 0.08234 0.0633 0.0
H1063 H 0.56835 0.10415 0.07115 0.0
C1064 C 0.51861 0.08011 0.09112 0.0
C1065 C 0.51468 0.09324 0.09674 0.0
C1066 C 0.52929 0.08179 0.06976 0.0
C1067 C 0.53636 0.0967 0.05381 0.0
C1068 C 0.53286 0.11004 0.05983 0.0
H1069 H 0.60749 0.1103 0.92411 0.0
H1070 H 0.59468 0.11615 0.96287 0.0
C1071 C 0.52217 0.10836 0.08114 0.0
C1072 C 0.54612 0.09766 0.02958 0.0
H1073 H 0.58031 0.09409 0.00681 0.0
C1074 C 0.53946 0.09908 0.00516 0.0
C1075 C 0.56137 0.09646 0.03025 0.0
C1076 C 0.56968 0.0959 0.05592 0.0
C1077 C 0.54721 0.09855 0.98133 0.0
C1078 C 0.56183 0.09627 0.98198 0.0
C1079 C 0.56897 0.09566 0.00639 0.0
C1080 C 0.56929 0.0935 0.9576 0.0
C1081 C 0.53959 0.10026 0.95567 0.0
C1082 C 0.55923 0.07887 0.94185 0.0
C1083 C 0.56647 0.07553 0.91975 0.0
C1084 C 0.58394 0.08674 0.91304 0.0
C1085 C 0.59393 0.10157 0.9286 0.0
C1086 C 0.58668 0.10486 0.95081 0.0
H1087 H 0.53195 0.10691 0.95853 0.0
H1088 H 0.5499 0.10758 0.94083 0.0
H1089 H 0.53073 0.08712 0.94763 0.0
H1090 H 0.54587 0.06979 0.947 0.0
H1091 H 0.55844 0.06406 0.90805 0.0
H1092 H 0.50305 0.60481 0.26364 0.0
H1093 H 0.48675 0.59024 0.3033 0.0
H1094 H 0.46413 0.54093 0.26313 0.0
H1095 H 0.4794 0.55551 0.22273 0.0
H1096 H 0.44061 0.54288 0.29271 0.0
H1097 H 0.49997 0.56352 0.35248 0.0
H1098 H 0.49857 0.58147 0.33923 0.0
H1099 H 0.50069 0.56673 0.31726 0.0
C1100 C 0.49435 0.59091 0.26297 0.0
C1101 C 0.49269 0.58135 0.2399 0.0
C1102 C 0.48526 0.58255 0.28588 0.0
C1103 C 0.4746 0.56444 0.28644 0.0
C1104 C 0.47245 0.55491 0.26327 0.0
H1105 H 0.44091 0.4983 0.42417 0.0
H1106 H 0.45579 0.5156 0.38514 0.0
C1107 C 0.48134 0.56327 0.24023 0.0
C1108 C 0.46579 0.55533 0.31116 0.0
H1109 H 0.47315 0.5493 0.37542 0.0
C1110 C 0.44772 0.54426 0.3108 0.0
C1111 C 0.47512 0.55694 0.33465 0.0
C1112 C 0.49467 0.56766 0.33593 0.0
C1113 C 0.43872 0.53474 0.33323 0.0
C1114 C 0.44798 0.5368 0.35696 0.0
C1115 C 0.46604 0.54788 0.35732 0.0
C1116 C 0.43932 0.52697 0.3813 0.0
C1117 C 0.41948 0.52216 0.33093 0.0
C1118 C 0.42539 0.52794 0.39252 0.0
C1119 C 0.41675 0.5179 0.41462 0.0
C1120 C 0.42216 0.50704 0.42624 0.0
C1121 C 0.43656 0.50666 0.41569 0.0
C1122 C 0.44502 0.51649 0.39336 0.0
H1123 H 0.41548 0.51849 0.31005 0.0
H1124 H 0.41564 0.51014 0.34243 0.0
H1125 H 0.41223 0.52835 0.33873 0.0
H1126 H 0.4211 0.53634 0.38408 0.0
H1127 H 0.40582 0.51859 0.42261 0.0
H1128 H 0.90996 0.50693 0.60645 0.0
H1129 H 0.90382 0.48791 0.64457 0.0
H1130 H 0.87374 0.44313 0.5953 0.0
H1131 H 0.88038 0.46206 0.55675 0.0
H1132 H 0.87234 0.46334 0.6675 0.0
H1133 H 0.90943 0.43285 0.6291 0.0
H1134 H 0.91119 0.45223 0.61473 0.0
H1135 H 0.89259 0.4314 0.60785 0.0
C1136 C 0.90218 0.49303 0.60363 0.0
C1137 C 0.89588 0.486 0.57847 0.0
C1138 C 0.89853 0.48219 0.6255 0.0
C1139 C 0.88854 0.46412 0.62267 0.0
C1140 C 0.88173 0.45704 0.5978 0.0
H1141 H 0.87327 0.38582 0.74083 0.0
H1142 H 0.86882 0.39946 0.70185 0.0
C1143 C 0.8854 0.46789 0.57585 0.0
C1144 C 0.88578 0.4528 0.64577 0.0
H1145 H 0.89611 0.42342 0.67054 0.0
C1146 C 0.87741 0.4545 0.66812 0.0
C1147 C 0.89238 0.44126 0.64647 0.0
C1148 C 0.90203 0.43936 0.62338 0.0
C1149 C 0.87573 0.44518 0.69136 0.0
C1150 C 0.88282 0.43407 0.69231 0.0
C1151 C 0.89065 0.43192 0.66968 0.0
C1152 C 0.88355 0.42563 0.71708 0.0
C1153 C 0.8665 0.44738 0.71473 0.0
C1154 C 0.89316 0.43582 0.73862 0.0
C1155 C 0.8957 0.42809 0.76087 0.0
C1156 C 0.88873 0.41001 0.76195 0.0
C1157 C 0.87862 0.39976 0.7407 0.0
C1158 C 0.87614 0.40753 0.71839 0.0
H1159 H 0.85744 0.45191 0.70854 0.0
H1160 H 0.85911 0.43504 0.72585 0.0
H1161 H 0.87624 0.45728 0.72825 0.0
H1162 H 0.89927 0.44984 0.73783 0.0
H1163 H 0.90345 0.4363 0.777 0.0
H1164 H 0.47839 0.92554 0.11076 0.0
H1165 H 0.46077 0.92288 0.07202 0.0
H1166 H 0.47757 0.89033 0.0342 0.0
H1167 H 0.49504 0.89279 0.07299 0.0
H1168 H 0.47307 0.93404 0.02301 0.0
H1169 H 0.42582 0.86344 0.02029 0.0
H1170 H 0.43898 0.87402 0.04893 0.0
H1171 H 0.44797 0.86831 0.0215 0.0
C1172 C 0.47816 0.91767 0.09428 0.0
C1173 C 0.48807 0.90937 0.09488 0.0
C1174 C 0.46807 0.91612 0.07222 0.0
C1175 C 0.4677 0.90625 0.05034 0.0
C1176 C 0.47731 0.89766 0.0511 0.0
H1177 H 0.4434 0.92217 0.89037 0.0
H1178 H 0.45738 0.9198 0.93056 0.0
C1179 C 0.48732 0.8991 0.07325 0.0
C1180 C 0.45841 0.90615 0.02598 0.0
H1181 H 0.42759 0.87962 0.98161 0.0
C1182 C 0.46305 0.92214 0.01405 0.0
C1183 C 0.44525 0.89063 0.01444 0.0
C1184 C 0.43907 0.87314 0.02707 0.0
C1185 C 0.45507 0.92304 0.99072 0.0
C1186 C 0.44238 0.90749 0.97862 0.0
C1187 C 0.4375 0.8915 0.99075 0.0
C1188 C 0.43376 0.90768 0.9537 0.0
C1189 C 0.4601 0.94067 0.9795 0.0
C1190 C 0.41576 0.90102 0.95311 0.0
C1191 C 0.40774 0.90225 0.93015 0.0
C1192 C 0.41759 0.91016 0.90736 0.0
C1193 C 0.43553 0.91627 0.90775 0.0
C1194 C 0.44353 0.91494 0.93068 0.0
H1195 H 0.4664 0.95107 0.99458 0.0
H1196 H 0.46947 0.94369 0.96313 0.0
H1197 H 0.44859 0.94092 0.97155 0.0
H1198 H 0.408 0.89533 0.97066 0.0
H1199 H 0.39392 0.89757 0.93054 0.0
H1200 H 0.60352 0.50582 0.40061 0.0
H1201 H 0.58812 0.48879 0.3616 0.0
H1202 H 0.54213 0.45886 0.40862 0.0
H1203 H 0.55738 0.47595 0.44762 0.0
H1204 H 0.57149 0.4537 0.34993 0.0
H1205 H 0.5248 0.47783 0.3504 0.0
H1206 H 0.54415 0.4874 0.37048 0.0
H1207 H 0.52517 0.46769 0.38084 0.0
C1208 C 0.59019 0.49545 0.40269 0.0
C1209 C 0.58158 0.49231 0.42709 0.0
C1210 C 0.5814 0.48579 0.38038 0.0
C1211 C 0.56388 0.47283 0.38211 0.0
C1212 C 0.55552 0.46912 0.40672 0.0
H1213 H 0.48543 0.40207 0.27446 0.0
H1214 H 0.50343 0.41739 0.31263 0.0
C1215 C 0.56424 0.47885 0.42897 0.0
C1216 C 0.55421 0.46352 0.35808 0.0
H1217 H 0.51884 0.45484 0.32069 0.0
C1218 C 0.56003 0.45401 0.34342 0.0
C1219 C 0.53936 0.4641 0.34953 0.0
C1220 C 0.53308 0.47494 0.36346 0.0
C1221 C 0.55108 0.44465 0.32083 0.0
C1222 C 0.53604 0.44494 0.3127 0.0
C1223 C 0.53034 0.45459 0.32715 0.0
C1224 C 0.52577 0.4351 0.28948 0.0
C1225 C 0.55749 0.4342 0.30612 0.0
C1226 C 0.53242 0.44005 0.26385 0.0
C1227 C 0.52215 0.43133 0.24195 0.0
C1228 C 0.5051 0.41749 0.24539 0.0
C1229 C 0.4986 0.41249 0.27116 0.0
C1230 C 0.50881 0.42127 0.29298 0.0
H1231 H 0.56748 0.43293 0.31746 0.0
H1232 H 0.54653 0.42102 0.30162 0.0
H1233 H 0.56329 0.44069 0.28708 0.0
H1234 H 0.54542 0.45086 0.26079 0.0
H1235 H 0.52754 0.43541 0.22234 0.0
H1236 H 0.06849 0.51066 0.56567 0.0
H1237 H 0.07037 0.52714 0.60544 0.0
H1238 H 0.12187 0.53601 0.62046 0.0
H1239 H 0.1203 0.51989 0.58045 0.0
H1240 H 0.09756 0.52136 0.66383 0.0
H1241 H 0.10037 0.58026 0.62092 0.0
H1242 H 0.08347 0.55985 0.60829 0.0
H1243 H 0.10578 0.56633 0.60218 0.0
C1244 C 0.08039 0.51648 0.57705 0.0
C1245 C 0.09422 0.51391 0.56993 0.0
C1246 C 0.0814 0.52583 0.59982 0.0
C1247 C 0.09627 0.5328 0.61577 0.0
C1248 C 0.11028 0.53068 0.60838 0.0
H1249 H 0.11989 0.60186 0.74983 0.0
H1250 H 0.12152 0.58738 0.70977 0.0
C1251 C 0.10931 0.52141 0.58559 0.0
C1252 C 0.09683 0.54141 0.641 0.0
H1253 H 0.09639 0.57651 0.66727 0.0
C1254 C 0.09738 0.53346 0.66463 0.0
C1255 C 0.09671 0.55723 0.64187 0.0
C1256 C 0.09669 0.56655 0.61699 0.0
C1257 C 0.09749 0.54077 0.68923 0.0
C1258 C 0.09694 0.55636 0.6901 0.0
C1259 C 0.09672 0.56449 0.66647 0.0
C1260 C 0.09643 0.56442 0.71535 0.0
C1261 C 0.0983 0.53186 0.71409 0.0
C1262 C 0.08184 0.55618 0.73183 0.0
C1263 C 0.08079 0.56446 0.75463 0.0
C1264 C 0.09431 0.58116 0.76127 0.0
C1265 C 0.10915 0.58911 0.74509 0.0
C1266 C 0.11014 0.58085 0.72226 0.0
H1267 H 0.10242 0.52218 0.71001 0.0
H1268 H 0.10742 0.54149 0.72854 0.0
H1269 H 0.08524 0.52498 0.72331 0.0
H1270 H 0.07101 0.54358 0.72659 0.0
H1271 H 0.06907 0.55809 0.76641 0.0
H1272 H 0.37592 0.05074 0.09305 0.0
H1273 H 0.36403 0.04145 0.04875 0.0
H1274 H 0.34916 0.98863 0.06836 0.0
H1275 H 0.36083 0.99779 0.11293 0.0
H1276 H 0.37911 0.02607 0.01729 0.0
H1277 H 0.30765 0.9837 0.02385 0.0
H1278 H 0.32027 -0.00058 0.04901 0.0
H1279 H 0.31977 0.97899 0.04756 0.0
C1280 C 0.36952 0.03704 0.08831 0.0
C1281 C 0.36937 0.02499 0.10647 0.0
C1282 C 0.3628 0.03178 0.06293 0.0
C1283 C 0.35563 0.01436 0.05535 0.0
C1284 C 0.35439 0.0021 0.07396 0.0
H1285 H 0.33636 0.95236 0.91894 0.0
H1286 H 0.33593 0.96457 0.96193 0.0
C1287 C 0.3612 0.00736 0.09933 0.0
C1288 C 0.35218 0.00953 0.02714 0.0
H1289 H 0.32116 0.98188 0.98405 0.0
C1290 C 0.36639 0.01664 0.00984 0.0
C1291 C 0.33561 0.99712 0.0177 0.0
C1292 C 0.31989 0.98944 0.03541 0.0
C1293 C 0.36468 0.01104 0.98359 0.0
C1294 C 0.34815 0.99836 0.97414 0.0
C1295 C 0.33379 0.99167 0.99126 0.0
C1296 C 0.34593 0.99076 0.94738 0.0
C1297 C 0.38084 0.01804 0.96679 0.0
C1298 C 0.35105 0.00129 0.92473 0.0
C1299 C 0.35153 0.99437 0.90015 0.0
C1300 C 0.34646 0.97672 0.89779 0.0
C1301 C 0.34017 0.96597 0.92015 0.0
C1302 C 0.33995 0.97294 0.94474 0.0
H1303 H 0.39286 0.0244 0.97888 0.0
H1304 H 0.3809 0.00751 0.95507 0.0
H1305 H 0.38124 0.02787 0.9529 0.0
H1306 H 0.35529 0.01498 0.92622 0.0
H1307 H 0.35628 0.00287 0.88314 0.0
H1308 H 0.35462 0.35921 0.22625 0.0
H1309 H 0.34373 0.3559 0.27154 0.0
H1310 H 0.36021 0.31874 0.28753 0.0
H1311 H 0.37145 0.32221 0.24262 0.0
H1312 H 0.32067 0.32498 0.30742 0.0
H1313 H 0.39073 0.36341 0.3343 0.0
H1314 H 0.38322 0.36243 0.30091 0.0
H1315 H 0.38396 0.34423 0.31467 0.0
C1316 C 0.35558 0.35006 0.23924 0.0
C1317 C 0.36408 0.34114 0.23093 0.0
C1318 C 0.34925 0.34809 0.26502 0.0
C1319 C 0.35135 0.33721 0.28284 0.0
C1320 C 0.35852 0.32722 0.27401 0.0
H1321 H 0.35794 0.35143 0.45324 0.0
H1322 H 0.35573 0.33775 0.41034 0.0
C1323 C 0.36484 0.32916 0.24826 0.0
C1324 C 0.34848 0.33834 0.31133 0.0
H1325 H 0.37057 0.35646 0.36827 0.0
C1326 C 0.33152 0.33168 0.32088 0.0
C1327 C 0.3627 0.34706 0.32872 0.0
C1328 C 0.38121 0.35482 0.31926 0.0
C1329 C 0.32843 0.33371 0.34751 0.0
C1330 C 0.3427 0.34303 0.36471 0.0
C1331 C 0.35961 0.34922 0.35518 0.0
C1332 C 0.34077 0.34802 0.39193 0.0
C1333 C 0.30992 0.32588 0.35689 0.0
C1334 C 0.33269 0.35793 0.39609 0.0
C1335 C 0.33379 0.36558 0.42063 0.0
C1336 C 0.34324 0.36371 0.44133 0.0
C1337 C 0.3506 0.3531 0.43758 0.0
C1338 C 0.34932 0.34527 0.41312 0.0
H1339 H 0.30109 0.31428 0.345 0.0
H1340 H 0.30863 0.32208 0.37801 0.0
H1341 H 0.30561 0.33555 0.35448 0.0
H1342 H 0.32648 0.36071 0.37993 0.0
H1343 H 0.32827 0.37396 0.42279 0.0
H1344 H -0.00132 0.36554 0.55371 0.0
H1345 H 0.98908 0.3567 0.59927 0.0
H1346 H 0.04202 0.37526 0.62312 0.0
H1347 H 0.05168 0.38395 0.57772 0.0
H1348 H 0.01765 0.3449 0.65034 0.0
H1349 H -0.00013 0.39652 0.6509 0.0
H1350 H 0.98921 0.3804 0.6257 0.0
H1351 H 0.01238 0.39438 0.62467 0.0
C1352 C 0.00821 0.3674 0.56857 0.0
C1353 C 0.02595 0.37562 0.56218 0.0
C1354 C 0.00273 0.36238 0.59457 0.0
C1355 C 0.0149 0.3657 0.61461 0.0
C1356 C 0.03243 0.37265 0.60794 0.0
H1357 H 0.99566 0.38315 0.77566 0.0
H1358 H 0.01013 0.38514 0.73386 0.0
C1359 C 0.03792 0.37755 0.58193 0.0
C1360 C 0.00969 0.36372 0.64273 0.0
H1361 H 0.99266 0.37887 0.68888 0.0
C1362 C 0.01219 0.35231 0.65885 0.0
C1363 C 0.003 0.37375 0.65388 0.0
C1364 C 0.00109 0.38708 0.63801 0.0
C1365 C 0.00777 0.35037 0.6858 0.0
C1366 C 0.00044 0.35993 0.69666 0.0
C1367 C -0.00174 0.37154 0.68056 0.0
C1368 C 0.99433 0.35786 0.72438 0.0
C1369 C 0.0112 0.33834 0.7024 0.0
C1370 C 0.98111 0.34172 0.73349 0.0
C1371 C 0.973 0.34047 0.75767 0.0
C1372 C 0.97774 0.35541 0.77298 0.0
C1373 C 0.99177 0.37134 0.76459 0.0
C1374 C -3e-05 0.37254 0.74054 0.0
H1375 H 0.02159 0.33644 0.69367 0.0
H1376 H 0.01502 0.34337 0.72282 0.0
H1377 H -0.00079 0.32546 0.70344 0.0
H1378 H 0.97633 0.33026 0.72123 0.0
H1379 H 0.96241 0.32795 0.76373 0.0
H1380 H 0.64578 0.95977 0.10722 0.0
H1381 H 0.65939 0.97026 0.06397 0.0
H1382 H 0.63577 0.0023 0.05835 0.0
H1383 H 0.62216 0.9919 0.10123 0.0
H1384 H 0.64105 0.96432 0.01898 0.0
H1385 H 0.68386 0.03499 0.03074 0.0
H1386 H 0.67576 0.0204 0.05864 0.0
H1387 H 0.66265 0.02827 0.04357 0.0
C1388 C 0.6438 0.96933 0.09698 0.0
C1389 C 0.63287 0.97499 0.10768 0.0
C1390 C 0.65162 0.97534 0.07232 0.0
C1391 C 0.64876 0.9872 0.05804 0.0
C1392 C 0.63856 0.9935 0.06928 0.0
H1393 H 0.6278 0.99831 0.90209 0.0
H1394 H 0.62973 0.98772 0.9455 0.0
C1395 C 0.63077 0.98753 0.09388 0.0
C1396 C 0.65441 0.99134 0.03014 0.0
H1397 H 0.67237 0.02506 0.98656 0.0
C1398 C 0.64827 0.97761 0.01194 0.0
C1399 C 0.66408 0.00863 0.02093 0.0
C1400 C 0.67212 0.02389 0.03958 0.0
C1401 C 0.65036 0.98075 0.98466 0.0
C1402 C 0.65853 0.99805 0.97539 0.0
C1403 C 0.66589 0.01177 0.99364 0.0
C1404 C 0.6578 0.00225 0.94725 0.0
C1405 C 0.64334 0.96548 0.96605 0.0
C1406 C 0.67296 0.01384 0.93358 0.0
C1407 C 0.67189 0.01994 0.90858 0.0
C1408 C 0.65563 0.01466 0.89693 0.0
C1409 C 0.64055 0.00237 0.91015 0.0
C1410 C 0.64163 0.9963 0.93508 0.0
H1411 H 0.64347 0.95423 0.97536 0.0
H1412 H 0.62967 0.96138 0.96112 0.0
H1413 H 0.65095 0.96883 0.94744 0.0
H1414 H 0.68557 0.01865 0.94266 0.0
H1415 H 0.68376 0.0293 0.89882 0.0
H1416 H 0.64611 0.65385 0.22103 0.0
H1417 H 0.65546 0.65311 0.26631 0.0
H1418 H 0.62207 0.67159 0.29541 0.0
H1419 H 0.6126 0.67229 0.25051 0.0
H1420 H 0.65445 0.68519 0.32321 0.0
H1421 H 0.6191 0.61324 0.31283 0.0
H1422 H 0.63595 0.625 0.28901 0.0
H1423 H 0.61695 0.6272 0.28917 0.0
C1424 C 0.641 0.65805 0.23704 0.0
C1425 C 0.6285 0.66298 0.23216 0.0
C1426 C 0.64637 0.65764 0.26286 0.0
C1427 C 0.63923 0.66204 0.28418 0.0
C1428 C 0.62775 0.66817 0.27921 0.0
H1429 H 0.61732 0.61962 0.43978 0.0
H1430 H 0.61712 0.63179 0.39679 0.0
C1431 C 0.62241 0.66863 0.25346 0.0
C1432 C 0.64197 0.65831 0.31168 0.0
H1433 H 0.63216 0.62469 0.35377 0.0
C1434 C 0.64973 0.672 0.32993 0.0
C1435 C 0.63549 0.64103 0.32039 0.0
C1436 C 0.62627 0.62572 0.30196 0.0
C1437 C 0.65112 0.66882 0.35678 0.0
C1438 C 0.64466 0.65154 0.36539 0.0
C1439 C 0.63709 0.63792 0.34706 0.0
C1440 C 0.64507 0.64699 0.3934 0.0
C1441 C 0.65899 0.68384 0.37585 0.0
C1442 C 0.66087 0.65197 0.40614 0.0
C1443 C 0.66104 0.64517 0.43099 0.0
C1444 C 0.6454 0.63316 0.44337 0.0
C1445 C 0.6296 0.62901 0.43111 0.0
C1446 C 0.62946 0.63584 0.40638 0.0
H1447 H 0.66 0.69579 0.36716 0.0
H1448 H 0.65118 0.68058 0.39424 0.0
H1449 H 0.67224 0.68667 0.38126 0.0
H1450 H 0.67307 0.6604 0.39633 0.0
H1451 H 0.67343 0.64876 0.44 0.0
H1452 H 0.021 0.66765 0.7719 0.0
H1453 H 0.01374 0.67118 0.72623 0.0
H1454 H 0.01813 0.62703 0.70224 0.0
H1455 H 0.02555 0.62356 0.74723 0.0
H1456 H 0.03742 0.66036 0.67046 0.0
H1457 H 0.96674 0.63549 0.68592 0.0
H1458 H 0.98246 0.65123 0.7084 0.0
H1459 H 0.9788 0.62951 0.70806 0.0
C1460 C 0.02032 0.65867 0.75686 0.0
C1461 C 0.02356 0.64515 0.76325 0.0
C1462 C 0.01617 0.6607 0.73087 0.0
C1463 C 0.01537 0.64932 0.71101 0.0
C1464 C 0.01864 0.6359 0.71736 0.0
H1465 H 0.99425 0.60963 0.56069 0.0
H1466 H 0.00746 0.62364 0.60223 0.0
C1467 C 0.02267 0.63382 0.74317 0.0
C1468 C 0.01116 0.65105 0.68337 0.0
H1469 H 0.97654 0.63825 0.64223 0.0
C1470 C 0.02419 0.65593 0.66423 0.0
C1471 C 0.99394 0.64542 0.67542 0.0
C1472 C 0.97957 0.64006 0.69539 0.0
C1473 C 0.02023 0.65429 0.63721 0.0
C1474 C 0.00274 0.64721 0.62924 0.0
C1475 C 0.98994 0.64361 0.64837 0.0
C1476 C 0.99707 0.64106 0.60189 0.0
C1477 C 0.03472 0.65955 0.61749 0.0
C1478 C 0.98688 0.64624 0.58768 0.0
C1479 C 0.9793 0.63824 0.56369 0.0
C1480 C 0.98161 0.62476 0.55364 0.0
C1481 C 0.99246 0.62018 0.56742 0.0
C1482 C 5e-05 0.62821 0.59129 0.0
H1483 H 0.04716 0.6702 0.62539 0.0
H1484 H 0.03653 0.64829 0.61349 0.0
H1485 H 0.03177 0.66384 0.59857 0.0
H1486 H 0.98434 0.65607 0.59559 0.0
H1487 H 0.97115 0.64219 0.55345 0.0
H1488 H 0.50886 0.94607 0.29701 0.0
H1489 H 0.49635 0.96283 0.31464 0.0
H1490 H 0.54628 0.00052 0.34615 0.0
H1491 H 0.55908 0.98397 0.3275 0.0
H1492 H 0.49254 0.97535 0.36085 0.0
H1493 H 0.53761 0.02994 0.29562 0.0
H1494 H 0.53594 0.00894 0.29414 0.0
H1495 H 0.54766 0.02366 0.32063 0.0
C1496 C 0.51711 0.95768 0.30829 0.0
C1497 C 0.53498 0.96381 0.31069 0.0
C1498 C 0.50994 0.96729 0.31835 0.0
C1499 C 0.52045 0.98316 0.33118 0.0
C1500 C 0.53802 0.98856 0.33566 0.0
H1501 H 0.48443 0.05875 0.33405 0.0
H1502 H 0.49949 0.04439 0.35236 0.0
C1503 C 0.5453 0.97907 0.32516 0.0
C1504 C 0.51319 0.99466 0.33684 0.0
H1505 H 0.51513 0.03199 0.31539 0.0
C1506 C 0.49768 0.98791 0.35137 0.0
C1507 C 0.51991 0.01109 0.32449 0.0
C1508 C 0.53611 0.01884 0.30768 0.0
C1509 C 0.48815 0.99659 0.35238 0.0
C1510 C 0.49433 0.0124 0.33862 0.0
C1511 C 0.5105 0.01986 0.32599 0.0
C1512 C 0.48311 0.01988 0.33288 0.0
C1513 C 0.47114 0.9884 0.36708 0.0
C1514 C 0.46872 0.01074 0.3163 0.0
C1515 C 0.46037 0.01898 0.30528 0.0
C1516 C 0.46618 0.03658 0.3107 0.0
C1517 C 0.4798 0.04531 0.32898 0.0
C1518 C 0.48832 0.03709 0.33972 0.0
H1519 H 0.47083 0.97962 0.38295 0.0
H1520 H 0.46875 0.99844 0.3759 0.0
H1521 H 0.46043 0.98055 0.35309 0.0
H1522 H 0.46473 0.99757 0.31028 0.0
H1523 H 0.4502 0.01183 0.29099 0.0
H1524 H 0.57307 0.557 0.66446 0.0
H1525 H 0.54411 0.54228 0.68452 0.0
H1526 H 0.53646 0.49307 0.65667 0.0
H1527 H 0.56531 0.50756 0.6375 0.0
H1528 H 0.51696 0.52756 0.65567 0.0
H1529 H 0.51108 0.47707 0.72413 0.0
H1530 H 0.53198 0.49455 0.71368 0.0
H1531 H 0.52053 0.47503 0.69415 0.0
C1532 C 0.56539 0.54298 0.66348 0.0
C1533 C 0.57144 0.53343 0.64941 0.0
C1534 C 0.54887 0.53456 0.67499 0.0
C1535 C 0.53809 0.5165 0.67243 0.0
C1536 C 0.54463 0.5069 0.65979 0.0
H1537 H 0.44232 0.44711 0.62053 0.0
H1538 H 0.47074 0.46217 0.64126 0.0
C1539 C 0.56117 0.51525 0.64862 0.0
C1540 C 0.51919 0.50811 0.67796 0.0
H1541 H 0.48466 0.46955 0.69777 0.0
C1542 C 0.50993 0.51518 0.66577 0.0
C1543 C 0.50992 0.49197 0.69119 0.0
C1544 C 0.51898 0.48437 0.70675 0.0
C1545 C 0.49178 0.50581 0.66415 0.0
C1546 C 0.48265 0.48895 0.6751 0.0
C1547 C 0.49174 0.48244 0.6892 0.0
C1548 C 0.46432 0.47708 0.66796 0.0
C1549 C 0.48258 0.51338 0.64875 0.0
C1550 C 0.45105 0.47991 0.67704 0.0
C1551 C 0.4346 0.47114 0.66536 0.0
C1552 C 0.43124 0.45951 0.64432 0.0
C1553 C 0.44426 0.45577 0.63684 0.0
C1554 C 0.4606 0.46443 0.64862 0.0
H1555 H 0.49176 0.5262 0.63993 0.0
H1556 H 0.47472 0.50439 0.63266 0.0
H1557 H 0.4736 0.51506 0.66202 0.0
H1558 H 0.4537 0.48957 0.69209 0.0
H1559 H 0.42478 0.47409 0.67196 0.0
H1560 H 0.05292 0.56113 0.96683 0.0
H1561 H 0.03492 0.53223 0.98523 0.0
H1562 H -0.00105 0.54729 0.01492 0.0
H1563 H 0.01695 0.57643 0.99632 0.0
H1564 H 0.01864 0.51567 0.03409 0.0
H1565 H 0.97185 0.5114 0.95706 0.0
H1566 H 0.99382 0.52928 0.95836 0.0
H1567 H 0.97799 0.52801 0.98165 0.0
C1568 C 0.04154 0.55856 0.97811 0.0
C1569 C 0.03623 0.57101 0.97978 0.0
C1570 C 0.03123 0.54198 0.98861 0.0
C1571 C 0.01546 0.53754 0.00099 0.0
C1572 C 0.01096 0.55041 0.00504 0.0
H1573 H 0.93205 0.43134 0.98628 0.0
H1574 H 0.94726 0.45975 0.0079 0.0
C1575 C 0.02122 0.56702 0.99437 0.0
C1576 C 0.00269 0.51896 0.00531 0.0
H1577 H 0.96622 0.48585 0.9777 0.0
C1578 C 0.00696 0.50913 0.02222 0.0
C1579 C 0.98747 0.51047 0.98976 0.0
C1580 C 0.98248 0.52024 0.97053 0.0
C1581 C 0.99674 0.49093 0.02316 0.0
C1582 C 0.98214 0.48239 0.00636 0.0
C1583 C 0.97735 0.49235 0.9907 0.0
C1584 C 0.97294 0.46337 0.00157 0.0
C1585 C 0.00193 0.48104 0.04167 0.0
C1586 C 0.98223 0.45551 0.99214 0.0
C1587 C 0.9735 0.43913 0.98027 0.0
C1588 C 0.95542 0.43056 0.97727 0.0
C1589 C 0.94602 0.43773 0.98859 0.0
C1590 C 0.9547 0.45395 0.00086 0.0
H1591 H 0.00825 0.48879 0.05967 0.0
H1592 H 0.9906 0.46846 0.04768 0.0
H1593 H 0.0115 0.47844 0.03167 0.0
H1594 H 0.99627 0.46262 0.99175 0.0
H1595 H 0.98099 0.43393 0.97126 0.0
H1596 H 0.9396 0.50811 0.33316 0.0
H1597 H 0.95547 0.49528 0.31244 0.0
H1598 H 0.00212 0.53229 0.35286 0.0
H1599 H 0.98645 0.54518 0.37348 0.0
H1600 H 0.00784 0.52285 0.30065 0.0
H1601 H 0.96577 0.4659 0.36444 0.0
H1602 H 0.95516 0.47263 0.34096 0.0
H1603 H 0.96666 0.48647 0.36832 0.0
C1604 C 0.95334 0.51375 0.33712 0.0
C1605 C 0.96173 0.52748 0.35525 0.0
C1606 C 0.96238 0.50643 0.32524 0.0
C1607 C 0.97987 0.51264 0.33153 0.0
C1608 C 0.98862 0.52732 0.34775 0.0
H1609 H 0.05875 0.49371 0.36113 0.0
H1610 H 0.04162 0.50529 0.34222 0.0
C1611 C 0.97964 0.5347 0.3595 0.0
C1612 C 0.98843 0.50252 0.32491 0.0
H1613 H 0.98975 0.46663 0.34501 0.0
C1614 C 0.00371 0.51036 0.30982 0.0
C1615 C 0.98294 0.48617 0.33676 0.0
C1616 C 0.96681 0.47726 0.35366 0.0
C1617 C 0.01418 0.50272 0.30754 0.0
C1618 C 0.00939 0.48708 0.3212 0.0
C1619 C 0.99343 0.47861 0.33452 0.0
C1620 C 0.02177 0.48079 0.32606 0.0
C1621 C 0.03053 0.51179 0.29126 0.0
C1622 C 0.01655 0.46314 0.32295 0.0
C1623 C 0.02634 0.45639 0.33405 0.0
C1624 C 0.04149 0.46718 0.3485 0.0
C1625 C 0.04734 0.48506 0.34977 0.0
C1626 C 0.03754 0.49176 0.3388 0.0
H1627 H 0.02875 0.5186 0.2742 0.0
H1628 H 0.04117 0.52174 0.30359 0.0
H1629 H 0.0345 0.50255 0.2838 0.0
H1630 H 0.00437 0.4544 0.31332 0.0
H1631 H 0.02158 0.44259 0.33252 0.0
H1632 H 0.43999 0.99006 0.71725 0.0
H1633 H 0.46914 0.00307 0.69963 0.0
H1634 H 0.45145 0.96359 0.63926 0.0
H1635 H 0.42201 0.95008 0.65758 0.0
H1636 H 0.47718 0.96464 0.66293 0.0
H1637 H 0.49771 0.03248 0.64092 0.0
H1638 H 0.48862 0.02815 0.67341 0.0
H1639 H 0.47511 0.01648 0.64554 0.0
C1640 C 0.44209 0.98448 0.69962 0.0
C1641 C 0.42866 0.96903 0.68881 0.0
C1642 C 0.45885 0.99203 0.68938 0.0
C1643 C 0.46256 0.98454 0.66775 0.0
C1644 C 0.44893 0.96969 0.65586 0.0
H1645 H 0.57641 0.03945 0.6638 0.0
H1646 H 0.54769 0.02632 0.64287 0.0
C1647 C 0.43213 0.96197 0.66634 0.0
C1648 C 0.48097 0.99057 0.66093 0.0
H1649 H 0.52056 0.02749 0.66071 0.0
C1650 C 0.48662 0.97838 0.66155 0.0
C1651 C 0.49343 0.0084 0.65819 0.0
C1652 C 0.4883 0.02204 0.65415 0.0
C1653 C 0.50433 0.98368 0.66276 0.0
C1654 C 0.51664 0.0016 0.66428 0.0
C1655 C 0.51113 0.01372 0.66034 0.0
C1656 C 0.53447 0.00791 0.67438 0.0
C1657 C 0.50957 0.96997 0.66373 0.0
C1658 C 0.53662 0.00188 0.69891 0.0
C1659 C 0.55288 0.00929 0.71082 0.0
C1660 C 0.56745 0.0231 0.69865 0.0
C1661 C 0.56543 0.02886 0.6737 0.0
C1662 C 0.54906 0.02134 0.66169 0.0
H1663 H 0.50074 0.95862 0.65138 0.0
H1664 H 0.5231 0.97506 0.65679 0.0
H1665 H 0.50848 0.96528 0.68433 0.0
H1666 H 0.52552 0.99201 0.70963 0.0
H1667 H 0.55379 0.00484 0.73034 0.0
H1668 H 0.45252 0.44576 0.05618 0.0
H1669 H 0.46854 0.47372 0.03483 0.0
H1670 H 0.48381 0.45103 0.97259 0.0
H1671 H 0.46743 0.42254 0.99394 0.0
H1672 H 0.5113 0.47787 0.99417 0.0
H1673 H 0.46436 0.49911 0.97269 0.0
H1674 H 0.46061 0.49083 0.00571 0.0
H1675 H 0.45764 0.47655 0.9784 0.0
C1676 C 0.45862 0.44642 0.03738 0.0
C1677 C 0.45859 0.43179 0.02679 0.0
C1678 C 0.46781 0.46253 0.02509 0.0
C1679 C 0.47716 0.46449 0.0018 0.0
C1680 C 0.47656 0.4498 0.99042 0.0
H1681 H 0.53728 0.57758 0.99023 0.0
H1682 H 0.522 0.54874 0.96971 0.0
C1683 C 0.46728 0.43356 0.00274 0.0
C1684 C 0.48956 0.48227 0.99239 0.0
H1685 H 0.49312 0.52218 0.98913 0.0
C1686 C 0.5073 0.48751 0.99209 0.0
C1687 C 0.48449 0.49488 0.98879 0.0
C1688 C 0.4657 0.48996 0.9861 0.0
C1689 C 0.52001 0.50516 0.99189 0.0
C1690 C 0.51479 0.51779 0.99263 0.0
C1691 C 0.49718 0.51253 0.98926 0.0
C1692 C 0.52663 0.53571 0.00212 0.0
C1693 C 0.53886 0.51006 0.99257 0.0
C1694 C 0.53444 0.538 0.02697 0.0
C1695 C 0.54299 0.55431 0.03878 0.0
C1696 C 0.54388 0.56881 0.02611 0.0
C1697 C 0.53673 0.56667 0.00064 0.0
C1698 C 0.52808 0.55023 0.9888 0.0
H1699 H 0.54098 0.50071 0.98088 0.0
H1700 H 0.5474 0.52335 0.98472 0.0
H1701 H 0.54269 0.50952 0.01325 0.0
H1702 H 0.53299 0.52695 0.0381 0.0
H1703 H 0.54788 0.55526 0.05865 0.0
H1704 H 0.46557 0.29208 0.12356 0.0
H1705 H 0.46434 0.26461 0.13393 0.0
H1706 H 0.40991 0.24156 0.15262 0.0
H1707 H 0.411 0.26889 0.14167 0.0
H1708 H 0.45688 0.24885 0.18113 0.0
H1709 H 0.40982 0.20447 0.10679 0.0
H1710 H 0.4197 0.22776 0.1046 0.0
H1711 H 0.40162 0.2156 0.1264 0.0
C1712 C 0.45329 0.28105 0.12948 0.0
C1713 C 0.43836 0.28254 0.1317 0.0
C1714 C 0.4526 0.2654 0.13543 0.0
C1715 C 0.437 0.25099 0.14382 0.0
C1716 C 0.42198 0.25237 0.14559 0.0
H1717 H 0.43587 0.16483 0.22985 0.0
H1718 H 0.4329 0.18997 0.21824 0.0
C1719 C 0.42262 0.26798 0.13935 0.0
C1720 C 0.4368 0.23496 0.15233 0.0
H1721 H 0.41769 0.19141 0.14094 0.0
C1722 C 0.44834 0.23628 0.17231 0.0
C1723 C 0.42569 0.21861 0.1407 0.0
C1724 C 0.41362 0.2165 0.11826 0.0
C1725 C 0.44921 0.22174 0.18085 0.0
C1726 C 0.43787 0.20533 0.16959 0.0
C1727 C 0.42623 0.20398 0.14974 0.0
C1728 C 0.4387 0.18963 0.17679 0.0
C1729 C 0.46267 0.22422 0.20119 0.0
C1730 C 0.44229 0.18075 0.15721 0.0
C1731 C 0.44366 0.16625 0.16366 0.0
C1732 C 0.44158 0.16036 0.18992 0.0
C1733 C 0.43758 0.16904 0.20946 0.0
C1734 C 0.43606 0.18352 0.20291 0.0
H1735 H 0.47305 0.23804 0.2028 0.0
H1736 H 0.45634 0.22003 0.22078 0.0
H1737 H 0.46877 0.21631 0.19631 0.0
H1738 H 0.44423 0.18515 0.13689 0.0
H1739 H 0.44626 0.1596 0.14796 0.0
H1740 H 0.16101 0.4483 0.51861 0.0
H1741 H 0.18672 0.44687 0.53076 0.0
H1742 H 0.19159 0.4335 0.45059 0.0
H1743 H 0.16634 0.43592 0.43781 0.0
H1744 H 0.19339 0.42073 0.52942 0.0
H1745 H 0.23946 0.47417 0.46416 0.0
H1746 H 0.21766 0.46985 0.47009 0.0
H1747 H 0.22156 0.45683 0.44693 0.0
C1748 C 0.16771 0.44537 0.50337 0.0
C1749 C 0.16181 0.44258 0.47708 0.0
C1750 C 0.1823 0.44435 0.51046 0.0
C1751 C 0.19125 0.44038 0.4915 0.0
C1752 C 0.1851 0.43698 0.4654 0.0
H1753 H 0.2703 0.41344 0.53067 0.0
H1754 H 0.24296 0.41232 0.51977 0.0
C1755 C 0.17055 0.43817 0.4582 0.0
C1756 C 0.20706 0.43993 0.49932 0.0
H1757 H 0.25045 0.45858 0.48718 0.0
C1758 C 0.20588 0.429 0.5202 0.0
C1759 C 0.22337 0.45094 0.48753 0.0
C1760 C 0.22569 0.46374 0.46611 0.0
C1761 C 0.2206 0.4288 0.52967 0.0
C1762 C 0.23682 0.43947 0.51742 0.0
C1763 C 0.23798 0.45035 0.49648 0.0
C1764 C 0.25288 0.43979 0.52604 0.0
C1765 C 0.21867 0.41753 0.55317 0.0
C1766 C 0.26757 0.45561 0.53296 0.0
C1767 C 0.28323 0.4563 0.53882 0.0
C1768 C 0.28443 0.44116 0.53802 0.0
C1769 C 0.2696 0.42524 0.53189 0.0
C1770 C 0.25399 0.42459 0.5257 0.0
H1771 H 0.20689 0.41437 0.56487 0.0
H1772 H 0.2174 0.40513 0.54616 0.0
H1773 H 0.23016 0.42396 0.56635 0.0
H1774 H 0.26699 0.46749 0.53333 0.0
H1775 H 0.29449 0.46872 0.54353 0.0
H1776 H 0.72715 0.14207 0.82799 0.0
H1777 H 0.75294 0.16889 0.84154 0.0
H1778 H 0.73324 0.19885 0.80341 0.0
H1779 H 0.7075 0.17203 0.78898 0.0
H1780 H 0.77738 0.19869 0.80725 0.0
H1781 H 0.7427 0.2148 0.88378 0.0
H1782 H 0.73418 0.19308 0.87095 0.0
H1783 H 0.73321 0.20936 0.85132 0.0
C1784 C 0.72841 0.15433 0.82193 0.0
C1785 C 0.71523 0.15487 0.80731 0.0
C1786 C 0.7431 0.16963 0.82992 0.0
C1787 C 0.74482 0.18575 0.82371 0.0
C1788 C 0.73196 0.18646 0.80866 0.0
H1789 H 0.82146 0.29121 0.86433 0.0
H1790 H 0.79522 0.26453 0.85134 0.0
C1791 C 0.71728 0.17114 0.80049 0.0
C1792 C 0.76004 0.20181 0.83331 0.0
H1793 H 0.77247 0.23478 0.87772 0.0
C1794 C 0.77636 0.20662 0.82265 0.0
C1795 C 0.75854 0.21203 0.85335 0.0
C1796 C 0.74126 0.20709 0.86574 0.0
C1797 C 0.79132 0.22161 0.8313 0.0
C1798 C 0.7899 0.23173 0.85167 0.0
C1799 C 0.77352 0.22692 0.86224 0.0
C1800 C 0.80523 0.2476 0.86178 0.0
C1801 C 0.80842 0.22668 0.81809 0.0
C1802 C 0.81929 0.24683 0.87286 0.0
C1803 C 0.83431 0.26205 0.88027 0.0
C1804 C 0.83539 0.27826 0.87709 0.0
C1805 C 0.82093 0.27889 0.8673 0.0
C1806 C 0.80598 0.26368 0.85972 0.0
H1807 H 0.80653 0.22036 0.79849 0.0
H1808 H 0.81628 0.24096 0.81541 0.0
H1809 H 0.81589 0.22249 0.83063 0.0
H1810 H 0.81878 0.23448 0.87527 0.0
H1811 H 0.8452 0.26119 0.88804 0.0
H1812 H 0.57443 0.727 0.13826 0.0
H1813 H 0.57314 0.75276 0.15116 0.0
H1814 H 0.52026 0.72889 0.12356 0.0
H1815 H 0.52142 0.70293 0.11063 0.0
H1816 H 0.56649 0.77517 0.12238 0.0
H1817 H 0.51639 0.74138 0.19988 0.0
H1818 H 0.52781 0.73169 0.1845 0.0
H1819 H 0.51028 0.73207 0.16747 0.0
C1820 C 0.56261 0.72732 0.1345 0.0
C1821 C 0.54801 0.71293 0.12343 0.0
C1822 C 0.56186 0.74201 0.14206 0.0
C1823 C 0.54651 0.74259 0.13876 0.0
C1824 C 0.5321 0.72852 0.12685 0.0
H1825 H 0.52283 0.82395 0.17636 0.0
H1826 H 0.52135 0.79701 0.16188 0.0
C1827 C 0.5328 0.71375 0.11938 0.0
C1828 C 0.54569 0.75793 0.14811 0.0
H1829 H 0.52539 0.77094 0.19219 0.0
C1830 C 0.5575 0.77425 0.13762 0.0
C1831 C 0.53395 0.75665 0.16805 0.0
C1832 C 0.52148 0.73954 0.18084 0.0
C1833 C 0.55788 0.78936 0.14651 0.0
C1834 C 0.54628 0.7881 0.16659 0.0
C1835 C 0.53428 0.77178 0.17682 0.0
C1836 C 0.54658 0.80368 0.17733 0.0
C1837 C 0.57061 0.80657 0.13424 0.0
C1838 C 0.56104 0.81603 0.19154 0.0
C1839 C 0.56186 0.83135 0.20009 0.0
C1840 C 0.54823 0.83457 0.19457 0.0
C1841 C 0.53345 0.8218 0.18123 0.0
C1842 C 0.53263 0.80646 0.17276 0.0
H1843 H 0.57592 0.8049 0.11531 0.0
H1844 H 0.56439 0.81453 0.13058 0.0
H1845 H 0.58162 0.81386 0.14802 0.0
H1846 H 0.5718 0.81393 0.19563 0.0
H1847 H 0.57329 0.84079 0.21069 0.0
H1848 H 0.84669 0.58206 0.44861 0.0
H1849 H 0.82119 0.58384 0.4625 0.0
H1850 H 0.79901 0.53289 0.4973 0.0
H1851 H 0.82446 0.5311 0.48393 0.0
H1852 H 0.78412 0.55902 0.45104 0.0
H1853 H 0.80078 0.56602 0.55785 0.0
H1854 H 0.81657 0.57032 0.53224 0.0
H1855 H 0.80112 0.54835 0.54114 0.0
C1856 C 0.83635 0.57124 0.45917 0.0
C1857 C 0.83755 0.55644 0.46517 0.0
C1858 C 0.82182 0.57226 0.467 0.0
C1859 C 0.80841 0.55859 0.48118 0.0
C1860 C 0.80936 0.54364 0.48662 0.0
H1861 H 0.71203 0.53785 0.55334 0.0
H1862 H 0.73837 0.53791 0.53919 0.0
C1863 C 0.82381 0.54257 0.4787 0.0
C1864 C 0.79343 0.55993 0.49053 0.0
H1865 H 0.77323 0.56211 0.54646 0.0
C1866 C 0.78175 0.55981 0.47186 0.0
C1867 C 0.79045 0.56089 0.51773 0.0
C1868 C 0.80293 0.56154 0.53847 0.0
C1869 C 0.76683 0.56019 0.47973 0.0
C1870 C 0.76382 0.56114 0.50697 0.0
C1871 C 0.7756 0.5614 0.52562 0.0
C1872 C 0.74836 0.56163 0.5165 0.0
C1873 C 0.75419 0.55906 0.45887 0.0
C1874 C 0.74553 0.57518 0.509 0.0
C1875 C 0.73045 0.57509 0.51681 0.0
C1876 C 0.718 0.56153 0.53255 0.0
C1877 C 0.72123 0.54833 0.5409 0.0
C1878 C 0.7363 0.5484 0.53297 0.0
H1879 H 0.75602 0.55384 0.43997 0.0
H1880 H 0.74057 0.55068 0.46552 0.0
H1881 H 0.75627 0.57224 0.45497 0.0
H1882 H 0.75487 0.5857 0.49675 0.0
H1883 H 0.72831 0.58537 0.50976 0.0
H1884 H 0.14359 0.73303 0.85974 0.0
H1885 H 0.16912 0.76066 0.8473 0.0
H1886 H 0.20177 0.73817 0.8594 0.0
H1887 H 0.17627 0.71048 0.87132 0.0
H1888 H 0.19921 0.783 0.87205 0.0
H1889 H 0.21304 0.75512 0.78389 0.0
H1890 H 0.19306 0.74356 0.80226 0.0
H1891 H 0.21237 0.74384 0.81362 0.0
C1892 C 0.15626 0.7341 0.8601 0.0
C1893 C 0.15799 0.71963 0.86626 0.0
C1894 C 0.1708 0.74982 0.85287 0.0
C1895 C 0.18725 0.7513 0.85175 0.0
C1896 C 0.18911 0.73714 0.85934 0.0
H1897 H 0.28779 0.8424 0.84917 0.0
H1898 H 0.26001 0.81707 0.86001 0.0
C1899 C 0.17459 0.72139 0.86631 0.0
C1900 C 0.20246 0.76754 0.84232 0.0
H1901 H 0.2355 0.78321 0.79748 0.0
C1902 C 0.20708 0.78309 0.85561 0.0
C1903 C 0.21244 0.76771 0.82044 0.0
C1904 C 0.20738 0.75169 0.80405 0.0
C1905 C 0.22185 0.79871 0.84828 0.0
C1906 C 0.23248 0.79862 0.82755 0.0
C1907 C 0.22746 0.78321 0.81359 0.0
C1908 C 0.24925 0.81417 0.82077 0.0
C1909 C 0.22585 0.81513 0.86275 0.0
C1910 C 0.2527 0.8206 0.79484 0.0
C1911 C 0.26881 0.83489 0.78836 0.0
C1912 C 0.28178 0.84294 0.80771 0.0
C1913 C 0.27824 0.83639 0.83365 0.0
C1914 C 0.26221 0.82207 0.84003 0.0
H1915 H 0.21391 0.81421 0.87127 0.0
H1916 H 0.23485 0.81719 0.87931 0.0
H1917 H 0.23207 0.82661 0.84953 0.0
H1918 H 0.24291 0.81456 0.77961 0.0
H1919 H 0.27118 0.83949 0.76815 0.0
loop_
_geom_bond_atom_site_label_1
_geom_bond_atom_site_label_2
_geom_bond_distance
_geom_bond_site_symmetry_2
_ccdc_geom_bond_type
Li0 N17 1.990 . S
Li0 O60 1.956 . S
Li0 O61 1.970 . S
Li0 O62 1.961 . S
Li1 N25 1.990 . S
Li1 O60 1.970 . S
Li1 O61 1.956 . S
Li1 O63 1.961 . S
Li2 N47 1.990 . S
Li2 O60 1.961 . S
Li2 O62 1.956 . S
Li2 O63 1.970 . S
Li3 N53 1.990 . S
Li3 O61 1.961 . S
Li3 O62 1.970 . S
Li3 O63 1.956 . S
C4 C6 1.348 . S
C4 C7 1.356 . S
C4 O60 1.325 . S
N5 C8 1.314 . S
N5 C9 1.279 . S
C6 C4 1.348 . S
C6 C8 1.353 . S
C6 H64 0.929 . S
C7 C4 1.356 . S
C7 C9 1.358 . S
C7 H65 0.930 . S
C8 N5 1.314 . S
C8 C6 1.353 . S
C8 H66 0.930 . S
C9 N5 1.279 . S
C9 C7 1.358 . S
C9 H67 0.930 . S
C10 C13 1.348 . S
C10 C14 1.356 . S
C10 O61 1.325 . S
C11 N12 1.279 . S
C11 C14 1.358 . S
C11 H68 0.930 . S
N12 C11 1.279 . S
N12 C15 1.314 . S
C13 C10 1.348 . S
C13 C15 1.353 . S
C13 H69 0.929 . S
C14 C10 1.356 . S
C14 C11 1.358 . S
C14 H70 0.930 . S
C15 N12 1.314 . S
C15 C13 1.353 . S
C15 H71 0.930 . S
C16 N17 1.314 . S
C16 C21 1.353 . S
C16 H22 0.930 . S
N17 Li0 1.990 . S
N17 C16 1.314 . S
N17 C19 1.279 . S
C18 C19 1.358 . S
C18 C20 1.356 . S
C18 H72 0.930 . S
C19 N17 1.279 . S
C19 C18 1.358 . S
C19 H23 0.930 . S
C20 C18 1.356 . S
C20 C21 1.348 . S
C21 C16 1.353 . S
C21 C20 1.348 . S
C21 H73 0.929 . S
H22 C16 0.930 . S
H23 C19 0.930 . S
C24 N25 1.314 . S
C24 C26 1.353 . S
C24 H30 0.930 . S
N25 Li1 1.990 . S
N25 C24 1.314 . S
N25 C28 1.279 . S
C26 C24 1.353 . S
C26 C29 1.348 . S
C26 H74 0.929 . S
C27 C28 1.358 . S
C27 C29 1.356 . S
C27 H75 0.930 . S
C28 N25 1.279 . S
C28 C27 1.358 . S
C28 H31 0.930 . S
C29 C26 1.348 . S
C29 C27 1.356 . S
H30 C24 0.930 . S
H31 C28 0.930 . S
C32 C34 1.348 . S
C32 C35 1.356 . S
C32 O62 1.325 . S
N33 C36 1.314 . S
N33 C37 1.279 . S
C34 C32 1.348 . S
C34 C36 1.353 . S
C34 H76 0.929 . S
C35 C32 1.356 . S
C35 C37 1.358 . S
C35 H77 0.930 . S
C36 N33 1.314 . S
C36 C34 1.353 . S
C36 H78 0.930 . S
C37 N33 1.279 . S
C37 C35 1.358 . S
C37 H79 0.930 . S
C38 C39 1.348 . S
C38 C40 1.356 . S
C38 O63 1.325 . S
C39 C38 1.348 . S
C39 C41 1.353 . S
C39 H80 0.929 . S
C40 C38 1.356 . S
C40 C42 1.358 . S
C40 H81 0.930 . S
C41 C39 1.353 . S
C41 N43 1.314 . S
C41 H82 0.930 . S
C42 C40 1.358 . S
C42 N43 1.279 . S
C42 H83 0.930 . S
N43 C41 1.314 . S
N43 C42 1.279 . S
C44 C46 1.353 . S
C44 N47 1.314 . S
C44 H50 0.930 . S
C45 N47 1.279 . S
C45 C48 1.358 . S
C45 H51 0.930 . S
C46 C44 1.353 . S
C46 C49 1.348 . S
C46 H84 0.929 . S
N47 Li2 1.990 . S
N47 C44 1.314 . S
N47 C45 1.279 . S
C48 C45 1.358 . S
C48 C49 1.356 . S
C48 H85 0.930 . S
C49 C46 1.348 . S
C49 C48 1.356 . S
H50 C44 0.930 . S
H51 C45 0.930 . S
C52 N53 1.314 . S
C52 C54 1.353 . S
C52 H58 0.930 . S
N53 Li3 1.990 . S
N53 C52 1.314 . S
N53 C56 1.279 . S
C54 C52 1.353 . S
C54 C57 1.348 . S
C54 H86 0.929 . S
C55 C56 1.358 . S
C55 C57 1.356 . S
C55 H87 0.930 . S
C56 N53 1.279 . S
C56 C55 1.358 . S
C56 H59 0.930 . S
C57 C54 1.348 . S
C57 C55 1.356 . S
H58 C52 0.930 . S
H59 C56 0.930 . S
O60 Li0 1.956 . S
O60 Li1 1.970 . S
O60 Li2 1.961 . S
O60 C4 1.325 . S
O61 Li0 1.970 . S
O61 Li1 1.956 . S
O61 Li3 1.961 . S
O61 C10 1.325 . S
O62 Li0 1.961 . S
O62 Li2 1.956 . S
O62 Li3 1.970 . S
O62 C32 1.325 . S
O63 Li1 1.961 . S
O63 Li2 1.970 . S
O63 Li3 1.956 . S
O63 C38 1.325 . S
H64 C6 0.929 . S
H65 C7 0.930 . S
H66 C8 0.930 . S
H67 C9 0.930 . S
H68 C11 0.930 . S
H69 C13 0.929 . S
H70 C14 0.930 . S
H71 C15 0.930 . S
H72 C18 0.930 . S
H73 C21 0.929 . S
H74 C26 0.929 . S
H75 C27 0.930 . S
H76 C34 0.929 . S
H77 C35 0.930 . S
H78 C36 0.930 . S
H79 C37 0.930 . S
H80 C39 0.929 . S
H81 C40 0.930 . S
H82 C41 0.930 . S
H83 C42 0.930 . S
H84 C46 0.929 . S
H85 C48 0.930 . S
H86 C54 0.929 . S
H87 C55 0.930 . S
Li88 N105 1.990 . S
Li88 O148 1.956 . S
Li88 O149 1.970 . S
Li88 O150 1.961 . S
Li89 N113 1.990 . S
Li89 O148 1.970 . S
Li89 O149 1.956 . S
Li89 O151 1.961 . S
Li90 N135 1.990 . S
Li90 O148 1.961 . S
Li90 O150 1.956 . S
Li90 O151 1.970 . S
Li91 N141 1.990 . S
Li91 O149 1.961 . S
Li91 O150 1.970 . S
Li91 O151 1.956 . S
C92 C94 1.348 . S
C92 C95 1.356 . S
C92 O148 1.325 . S
N93 C96 1.314 . S
N93 C97 1.279 . S
C94 C92 1.348 . S
C94 C96 1.353 . S
C94 H152 0.929 . S
C95 C92 1.356 . S
C95 C97 1.358 . S
C95 H153 0.930 . S
C96 N93 1.314 . S
C96 C94 1.353 . S
C96 H154 0.930 . S
C97 N93 1.279 . S
C97 C95 1.358 . S
C97 H155 0.930 . S
C98 C101 1.348 . S
C98 C102 1.356 . S
C98 O149 1.325 . S
C99 N100 1.279 . S
C99 C102 1.358 . S
C99 H156 0.930 . S
N100 C99 1.279 . S
N100 C103 1.314 . S
C101 C98 1.348 . S
C101 C103 1.353 . S
C101 H157 0.929 . S
C102 C98 1.356 . S
C102 C99 1.358 . S
C102 H158 0.930 . S
C103 N100 1.314 . S
C103 C101 1.353 . S
C103 H159 0.930 . S
C104 N105 1.314 . S
C104 C109 1.353 . S
C104 H110 0.930 . S
N105 Li88 1.990 . S
N105 C104 1.314 . S
N105 C107 1.279 . S
C106 C107 1.358 . S
C106 C108 1.356 . S
C106 H160 0.930 . S
C107 N105 1.279 . S
C107 C106 1.358 . S
C107 H111 0.930 . S
C108 C106 1.356 . S
C108 C109 1.348 . S
C109 C104 1.353 . S
C109 C108 1.348 . S
C109 H161 0.929 . S
H110 C104 0.930 . S
H111 C107 0.930 . S
C112 N113 1.314 . S
C112 C114 1.353 . S
C112 H118 0.930 . S
N113 Li89 1.990 . S
N113 C112 1.314 . S
N113 C116 1.279 . S
C114 C112 1.353 . S
C114 C117 1.348 . S
C114 H162 0.929 . S
C115 C116 1.358 . S
C115 C117 1.356 . S
C115 H163 0.930 . S
C116 N113 1.279 . S
C116 C115 1.358 . S
C116 H119 0.930 . S
C117 C114 1.348 . S
C117 C115 1.356 . S
H118 C112 0.930 . S
H119 C116 0.930 . S
C120 C122 1.348 . S
C120 C123 1.356 . S
C120 O150 1.325 . S
N121 C124 1.314 . S
N121 C125 1.279 . S
C122 C120 1.348 . S
C122 C124 1.353 . S
C122 H164 0.929 . S
C123 C120 1.356 . S
C123 C125 1.358 . S
C123 H165 0.930 . S
C124 N121 1.314 . S
C124 C122 1.353 . S
C124 H166 0.930 . S
C125 N121 1.279 . S
C125 C123 1.358 . S
C125 H167 0.930 . S
C126 C127 1.348 . S
C126 C128 1.356 . S
C126 O151 1.325 . S
C127 C126 1.348 . S
C127 C129 1.353 . S
C127 H168 0.929 . S
C128 C126 1.356 . S
C128 C130 1.358 . S
C128 H169 0.930 . S
C129 C127 1.353 . S
C129 N131 1.314 . S
C129 H170 0.930 . S
C130 C128 1.358 . S
C130 N131 1.279 . S
C130 H171 0.930 . S
N131 C129 1.314 . S
N131 C130 1.279 . S
C132 C134 1.353 . S
C132 N135 1.314 . S
C132 H138 0.930 . S
C133 N135 1.279 . S
C133 C136 1.358 . S
C133 H139 0.930 . S
C134 C132 1.353 . S
C134 C137 1.348 . S
C134 H172 0.929 . S
N135 Li90 1.990 . S
N135 C132 1.314 . S
N135 C133 1.279 . S
C136 C133 1.358 . S
C136 C137 1.356 . S
C136 H173 0.930 . S
C137 C134 1.348 . S
C137 C136 1.356 . S
H138 C132 0.930 . S
H139 C133 0.930 . S
C140 N141 1.314 . S
C140 C142 1.353 . S
C140 H146 0.930 . S
N141 Li91 1.990 . S
N141 C140 1.314 . S
N141 C144 1.279 . S
C142 C140 1.353 . S
C142 C145 1.348 . S
C142 H174 0.929 . S
C143 C144 1.358 . S
C143 C145 1.356 . S
C143 H175 0.930 . S
C144 N141 1.279 . S
C144 C143 1.358 . S
C144 H147 0.930 . S
C145 C142 1.348 . S
C145 C143 1.356 . S
H146 C140 0.930 . S
H147 C144 0.930 . S
O148 Li88 1.956 . S
O148 Li89 1.970 . S
O148 Li90 1.961 . S
O148 C92 1.325 . S
O149 Li88 1.970 . S
O149 Li89 1.956 . S
O149 Li91 1.961 . S
O149 C98 1.325 . S
O150 Li88 1.961 . S
O150 Li90 1.956 . S
O150 Li91 1.970 . S
O150 C120 1.325 . S
O151 Li89 1.961 . S
O151 Li90 1.970 . S
O151 Li91 1.956 . S
O151 C126 1.325 . S
H152 C94 0.929 . S
H153 C95 0.930 . S
H154 C96 0.930 . S
H155 C97 0.930 . S
H156 C99 0.930 . S
H157 C101 0.929 . S
H158 C102 0.930 . S
H159 C103 0.930 . S
H160 C106 0.930 . S
H161 C109 0.929 . S
H162 C114 0.929 . S
H163 C115 0.930 . S
H164 C122 0.929 . S
H165 C123 0.930 . S
H166 C124 0.930 . S
H167 C125 0.930 . S
H168 C127 0.929 . S
H169 C128 0.930 . S
H170 C129 0.930 . S
H171 C130 0.930 . S
H172 C134 0.929 . S
H173 C136 0.930 . S
H174 C142 0.929 . S
H175 C143 0.930 . S
Li176 N193 1.990 . S
Li176 O236 1.956 . S
Li176 O237 1.970 . S
Li176 O238 1.961 . S
Li177 N201 1.990 . S
Li177 O236 1.970 . S
Li177 O237 1.956 . S
Li177 O239 1.961 . S
Li178 N223 1.990 . S
Li178 O236 1.961 . S
Li178 O238 1.956 . S
Li178 O239 1.970 . S
Li179 N229 1.990 . S
Li179 O237 1.961 . S
Li179 O238 1.970 . S
Li179 O239 1.956 . S
C180 C182 1.348 . S
C180 C183 1.356 . S
C180 O236 1.325 . S
N181 C184 1.314 . S
N181 C185 1.279 . S
C182 C180 1.348 . S
C182 C184 1.353 . S
C182 H240 0.929 . S
C183 C180 1.356 . S
C183 C185 1.358 . S
C183 H241 0.930 . S
C184 N181 1.314 . S
C184 C182 1.353 . S
C184 H242 0.930 . S
C185 N181 1.279 . S
C185 C183 1.358 . S
C185 H243 0.930 . S
C186 C189 1.348 . S
C186 C190 1.356 . S
C186 O237 1.325 . S
C187 N188 1.279 . S
C187 C190 1.358 . S
C187 H244 0.930 . S
N188 C187 1.279 . S
N188 C191 1.314 . S
C189 C186 1.348 . S
C189 C191 1.353 . S
C189 H245 0.929 . S
C190 C186 1.356 . S
C190 C187 1.358 . S
C190 H246 0.930 . S
C191 N188 1.314 . S
C191 C189 1.353 . S
C191 H247 0.930 . S
C192 N193 1.314 . S
C192 C197 1.353 . S
C192 H198 0.930 . S
N193 Li176 1.990 . S
N193 C192 1.314 . S
N193 C195 1.279 . S
C194 C195 1.358 . S
C194 C196 1.356 . S
C194 H248 0.930 . S
C195 N193 1.279 . S
C195 C194 1.358 . S
C195 H199 0.930 . S
C196 C194 1.356 . S
C196 C197 1.348 . S
C197 C192 1.353 . S
C197 C196 1.348 . S
C197 H249 0.929 . S
H198 C192 0.930 . S
H199 C195 0.930 . S
C200 N201 1.314 . S
C200 C202 1.353 . S
C200 H206 0.930 . S
N201 Li177 1.990 . S
N201 C200 1.314 . S
N201 C204 1.279 . S
C202 C200 1.353 . S
C202 C205 1.348 . S
C202 H250 0.929 . S
C203 C204 1.358 . S
C203 C205 1.356 . S
C203 H251 0.930 . S
C204 N201 1.279 . S
C204 C203 1.358 . S
C204 H207 0.930 . S
C205 C202 1.348 . S
C205 C203 1.356 . S
H206 C200 0.930 . S
H207 C204 0.930 . S
C208 C210 1.348 . S
C208 C211 1.356 . S
C208 O238 1.325 . S
N209 C212 1.314 . S
N209 C213 1.279 . S
C210 C208 1.348 . S
C210 C212 1.353 . S
C210 H252 0.929 . S
C211 C208 1.356 . S
C211 C213 1.358 . S
C211 H253 0.930 . S
C212 N209 1.314 . S
C212 C210 1.353 . S
C212 H254 0.930 . S
C213 N209 1.279 . S
C213 C211 1.358 . S
C213 H255 0.930 . S
C214 C215 1.348 . S
C214 C216 1.356 . S
C214 O239 1.325 . S
C215 C214 1.348 . S
C215 C217 1.353 . S
C215 H256 0.929 . S
C216 C214 1.356 . S
C216 C218 1.358 . S
C216 H257 0.930 . S
C217 C215 1.353 . S
C217 N219 1.314 . S
C217 H258 0.930 . S
C218 C216 1.358 . S
C218 N219 1.279 . S
C218 H259 0.930 . S
N219 C217 1.314 . S
N219 C218 1.279 . S
C220 C222 1.353 . S
C220 N223 1.314 . S
C220 H226 0.930 . S
C221 N223 1.279 . S
C221 C224 1.358 . S
C221 H227 0.930 . S
C222 C220 1.353 . S
C222 C225 1.348 . S
C222 H260 0.929 . S
N223 Li178 1.990 . S
N223 C220 1.314 . S
N223 C221 1.279 . S
C224 C221 1.358 . S
C224 C225 1.356 . S
C224 H261 0.930 . S
C225 C222 1.348 . S
C225 C224 1.356 . S
H226 C220 0.930 . S
H227 C221 0.930 . S
C228 N229 1.314 . S
C228 C230 1.353 . S
C228 H234 0.930 . S
N229 Li179 1.990 . S
N229 C228 1.314 . S
N229 C232 1.279 . S
C230 C228 1.353 . S
C230 C233 1.348 . S
C230 H262 0.929 . S
C231 C232 1.358 . S
C231 C233 1.356 . S
C231 H263 0.930 . S
C232 N229 1.279 . S
C232 C231 1.358 . S
C232 H235 0.930 . S
C233 C230 1.348 . S
C233 C231 1.356 . S
H234 C228 0.930 . S
H235 C232 0.930 . S
O236 Li176 1.956 . S
O236 Li177 1.970 . S
O236 Li178 1.961 . S
O236 C180 1.325 . S
O237 Li176 1.970 . S
O237 Li177 1.956 . S
O237 Li179 1.961 . S
O237 C186 1.325 . S
O238 Li176 1.961 . S
O238 Li178 1.956 . S
O238 Li179 1.970 . S
O238 C208 1.325 . S
O239 Li177 1.961 . S
O239 Li178 1.970 . S
O239 Li179 1.956 . S
O239 C214 1.325 . S
H240 C182 0.929 . S
H241 C183 0.930 . S
H242 C184 0.930 . S
H243 C185 0.930 . S
H244 C187 0.930 . S
H245 C189 0.929 . S
H246 C190 0.930 . S
H247 C191 0.930 . S
H248 C194 0.930 . S
H249 C197 0.929 . S
H250 C202 0.929 . S
H251 C203 0.930 . S
H252 C210 0.929 . S
H253 C211 0.930 . S
H254 C212 0.930 . S
H255 C213 0.930 . S
H256 C215 0.929 . S
H257 C216 0.930 . S
H258 C217 0.930 . S
H259 C218 0.930 . S
H260 C222 0.929 . S
H261 C224 0.930 . S
H262 C230 0.929 . S
H263 C231 0.930 . S
Li264 N281 1.990 . S
Li264 O324 1.956 . S
Li264 O325 1.970 . S
Li264 O326 1.961 . S
Li265 N289 1.990 . S
Li265 O324 1.970 . S
Li265 O325 1.956 . S
Li265 O327 1.961 . S
Li266 N311 1.990 . S
Li266 O324 1.961 . S
Li266 O326 1.956 . S
Li266 O327 1.970 . S
Li267 N317 1.990 . S
Li267 O325 1.961 . S
Li267 O326 1.970 . S
Li267 O327 1.956 . S
C268 C270 1.348 . S
C268 C271 1.356 . S
C268 O324 1.325 . S
N269 C272 1.314 . S
N269 C273 1.279 . S
C270 C268 1.348 . S
C270 C272 1.353 . S
C270 H328 0.929 . S
C271 C268 1.356 . S
C271 C273 1.358 . S
C271 H329 0.930 . S
C272 N269 1.314 . S
C272 C270 1.353 . S
C272 H330 0.930 . S
C273 N269 1.279 . S
C273 C271 1.358 . S
C273 H331 0.930 . S
C274 C277 1.348 . S
C274 C278 1.356 . S
C274 O325 1.325 . S
C275 N276 1.279 . S
C275 C278 1.358 . S
C275 H332 0.930 . S
N276 C275 1.279 . S
N276 C279 1.314 . S
C277 C274 1.348 . S
C277 C279 1.353 . S
C277 H333 0.929 . S
C278 C274 1.356 . S
C278 C275 1.358 . S
C278 H334 0.930 . S
C279 N276 1.314 . S
C279 C277 1.353 . S
C279 H335 0.930 . S
C280 N281 1.314 . S
C280 C285 1.353 . S
C280 H286 0.930 . S
N281 Li264 1.990 . S
N281 C280 1.314 . S
N281 C283 1.279 . S
C282 C283 1.358 . S
C282 C284 1.356 . S
C282 H336 0.930 . S
C283 N281 1.279 . S
C283 C282 1.358 . S
C283 H287 0.930 . S
C284 C282 1.356 . S
C284 C285 1.348 . S
C285 C280 1.353 . S
C285 C284 1.348 . S
C285 H337 0.929 . S
H286 C280 0.930 . S
H287 C283 0.930 . S
C288 N289 1.314 . S
C288 C290 1.353 . S
C288 H294 0.930 . S
N289 Li265 1.990 . S
N289 C288 1.314 . S
N289 C292 1.279 . S
C290 C288 1.353 . S
C290 C293 1.348 . S
C290 H338 0.929 . S
C291 C292 1.358 . S
C291 C293 1.356 . S
C291 H339 0.930 . S
C292 N289 1.279 . S
C292 C291 1.358 . S
C292 H295 0.930 . S
C293 C290 1.348 . S
C293 C291 1.356 . S
H294 C288 0.930 . S
H295 C292 0.930 . S
C296 C298 1.348 . S
C296 C299 1.356 . S
C296 O326 1.325 . S
N297 C300 1.314 . S
N297 C301 1.279 . S
C298 C296 1.348 . S
C298 C300 1.353 . S
C298 H340 0.929 . S
C299 C296 1.356 . S
C299 C301 1.358 . S
C299 H341 0.930 . S
C300 N297 1.314 . S
C300 C298 1.353 . S
C300 H342 0.930 . S
C301 N297 1.279 . S
C301 C299 1.358 . S
C301 H343 0.930 . S
C302 C303 1.348 . S
C302 C304 1.356 . S
C302 O327 1.325 . S
C303 C302 1.348 . S
C303 C305 1.353 . S
C303 H344 0.929 . S
C304 C302 1.356 . S
C304 C306 1.358 . S
C304 H345 0.930 . S
C305 C303 1.353 . S
C305 N307 1.314 . S
C305 H346 0.930 . S
C306 C304 1.358 . S
C306 N307 1.279 . S
C306 H347 0.930 . S
N307 C305 1.314 . S
N307 C306 1.279 . S
C308 C310 1.353 . S
C308 N311 1.314 . S
C308 H314 0.930 . S
C309 N311 1.279 . S
C309 C312 1.358 . S
C309 H315 0.930 . S
C310 C308 1.353 . S
C310 C313 1.348 . S
C310 H348 0.929 . S
N311 Li266 1.990 . S
N311 C308 1.314 . S
N311 C309 1.279 . S
C312 C309 1.358 . S
C312 C313 1.356 . S
C312 H349 0.930 . S
C313 C310 1.348 . S
C313 C312 1.356 . S
H314 C308 0.930 . S
H315 C309 0.930 . S
C316 N317 1.314 . S
C316 C318 1.353 . S
C316 H322 0.930 . S
N317 Li267 1.990 . S
N317 C316 1.314 . S
N317 C320 1.279 . S
C318 C316 1.353 . S
C318 C321 1.348 . S
C318 H350 0.929 . S
C319 C320 1.358 . S
C319 C321 1.356 . S
C319 H351 0.930 . S
C320 N317 1.279 . S
C320 C319 1.358 . S
C320 H323 0.930 . S
C321 C318 1.348 . S
C321 C319 1.356 . S
H322 C316 0.930 . S
H323 C320 0.930 . S
O324 Li264 1.956 . S
O324 Li265 1.970 . S
O324 Li266 1.961 . S
O324 C268 1.325 . S
O325 Li264 1.970 . S
O325 Li265 1.956 . S
O325 Li267 1.961 . S
O325 C274 1.325 . S
O326 Li264 1.961 . S
O326 Li266 1.956 . S
O326 Li267 1.970 . S
O326 C296 1.325 . S
O327 Li265 1.961 . S
O327 Li266 1.970 . S
O327 Li267 1.956 . S
O327 C302 1.325 . S
H328 C270 0.929 . S
H329 C271 0.930 . S
H330 C272 0.930 . S
H331 C273 0.930 . S
H332 C275 0.930 . S
H333 C277 0.929 . S
H334 C278 0.930 . S
H335 C279 0.930 . S
H336 C282 0.930 . S
H337 C285 0.929 . S
H338 C290 0.929 . S
H339 C291 0.930 . S
H340 C298 0.929 . S
H341 C299 0.930 . S
H342 C300 0.930 . S
H343 C301 0.930 . S
H344 C303 0.929 . S
H345 C304 0.930 . S
H346 C305 0.930 . S
H347 C306 0.930 . S
H348 C310 0.929 . S
H349 C312 0.930 . S
H350 C318 0.929 . S
H351 C319 0.930 . S
Li352 N369 1.990 . S
Li352 O412 1.956 . S
Li352 O413 1.970 . S
Li352 O414 1.961 . S
Li353 N377 1.990 . S
Li353 O412 1.970 . S
Li353 O413 1.956 . S
Li353 O415 1.961 . S
Li354 N399 1.990 . S
Li354 O412 1.961 . S
Li354 O414 1.956 . S
Li354 O415 1.970 . S
Li355 N405 1.990 . S
Li355 O413 1.961 . S
Li355 O414 1.970 . S
Li355 O415 1.956 . S
C356 C358 1.348 . S
C356 C359 1.356 . S
C356 O412 1.325 . S
N357 C360 1.314 . S
N357 C361 1.279 . S
C358 C356 1.348 . S
C358 C360 1.353 . S
C358 H416 0.929 . S
C359 C356 1.356 . S
C359 C361 1.358 . S
C359 H417 0.930 . S
C360 N357 1.314 . S
C360 C358 1.353 . S
C360 H418 0.930 . S
C361 N357 1.279 . S
C361 C359 1.358 . S
C361 H419 0.930 . S
C362 C365 1.348 . S
C362 C366 1.356 . S
C362 O413 1.325 . S
C363 N364 1.279 . S
C363 C366 1.358 . S
C363 H420 0.930 . S
N364 C363 1.279 . S
N364 C367 1.314 . S
C365 C362 1.348 . S
C365 C367 1.353 . S
C365 H421 0.929 . S
C366 C362 1.356 . S
C366 C363 1.358 . S
C366 H422 0.930 . S
C367 N364 1.314 . S
C367 C365 1.353 . S
C367 H423 0.930 . S
C368 N369 1.314 . S
C368 C373 1.353 . S
C368 H374 0.930 . S
N369 Li352 1.990 . S
N369 C368 1.314 . S
N369 C371 1.279 . S
C370 C371 1.358 . S
C370 C372 1.356 . S
C370 H424 0.930 . S
C371 N369 1.279 . S
C371 C370 1.358 . S
C371 H375 0.930 . S
C372 C370 1.356 . S
C372 C373 1.348 . S
C373 C368 1.353 . S
C373 C372 1.348 . S
C373 H425 0.929 . S
H374 C368 0.930 . S
H375 C371 0.930 . S
C376 N377 1.314 . S
C376 C378 1.353 . S
C376 H382 0.930 . S
N377 Li353 1.990 . S
N377 C376 1.314 . S
N377 C380 1.279 . S
C378 C376 1.353 . S
C378 C381 1.348 . S
C378 H426 0.929 . S
C379 C380 1.358 . S
C379 C381 1.356 . S
C379 H427 0.930 . S
C380 N377 1.279 . S
C380 C379 1.358 . S
C380 H383 0.930 . S
C381 C378 1.348 . S
C381 C379 1.356 . S
H382 C376 0.930 . S
H383 C380 0.930 . S
C384 C386 1.348 . S
C384 C387 1.356 . S
C384 O414 1.325 . S
N385 C388 1.314 . S
N385 C389 1.279 . S
C386 C384 1.348 . S
C386 C388 1.353 . S
C386 H428 0.929 . S
C387 C384 1.356 . S
C387 C389 1.358 . S
C387 H429 0.930 . S
C388 N385 1.314 . S
C388 C386 1.353 . S
C388 H430 0.930 . S
C389 N385 1.279 . S
C389 C387 1.358 . S
C389 H431 0.930 . S
C390 C391 1.348 . S
C390 C392 1.356 . S
C390 O415 1.325 . S
C391 C390 1.348 . S
C391 C393 1.353 . S
C391 H432 0.929 . S
C392 C390 1.356 . S
C392 C394 1.358 . S
C392 H433 0.930 . S
C393 C391 1.353 . S
C393 N395 1.314 . S
C393 H434 0.930 . S
C394 C392 1.358 . S
C394 N395 1.279 . S
C394 H435 0.930 . S
N395 C393 1.314 . S
N395 C394 1.279 . S
C396 C398 1.353 . S
C396 N399 1.314 . S
C396 H402 0.930 . S
C397 N399 1.279 . S
C397 C400 1.358 . S
C397 H403 0.930 . S
C398 C396 1.353 . S
C398 C401 1.348 . S
C398 H436 0.929 . S
N399 Li354 1.990 . S
N399 C396 1.314 . S
N399 C397 1.279 . S
C400 C397 1.358 . S
C400 C401 1.356 . S
C400 H437 0.930 . S
C401 C398 1.348 . S
C401 C400 1.356 . S
H402 C396 0.930 . S
H403 C397 0.930 . S
C404 N405 1.314 . S
C404 C406 1.353 . S
C404 H410 0.930 . S
N405 Li355 1.990 . S
N405 C404 1.314 . S
N405 C408 1.279 . S
C406 C404 1.353 . S
C406 C409 1.348 . S
C406 H438 0.929 . S
C407 C408 1.358 . S
C407 C409 1.356 . S
C407 H439 0.930 . S
C408 N405 1.279 . S
C408 C407 1.358 . S
C408 H411 0.930 . S
C409 C406 1.348 . S
C409 C407 1.356 . S
H410 C404 0.930 . S
H411 C408 0.930 . S
O412 Li352 1.956 . S
O412 Li353 1.970 . S
O412 Li354 1.961 . S
O412 C356 1.325 . S
O413 Li352 1.970 . S
O413 Li353 1.956 . S
O413 Li355 1.961 . S
O413 C362 1.325 . S
O414 Li352 1.961 . S
O414 Li354 1.956 . S
O414 Li355 1.970 . S
O414 C384 1.325 . S
O415 Li353 1.961 . S
O415 Li354 1.970 . S
O415 Li355 1.956 . S
O415 C390 1.325 . S
H416 C358 0.929 . S
H417 C359 0.930 . S
H418 C360 0.930 . S
H419 C361 0.930 . S
H420 C363 0.930 . S
H421 C365 0.929 . S
H422 C366 0.930 . S
H423 C367 0.930 . S
H424 C370 0.930 . S
H425 C373 0.929 . S
H426 C378 0.929 . S
H427 C379 0.930 . S
H428 C386 0.929 . S
H429 C387 0.930 . S
H430 C388 0.930 . S
H431 C389 0.930 . S
H432 C391 0.929 . S
H433 C392 0.930 . S
H434 C393 0.930 . S
H435 C394 0.930 . S
H436 C398 0.929 . S
H437 C400 0.930 . S
H438 C406 0.929 . S
H439 C407 0.930 . S
Li440 N457 1.990 . S
Li440 O500 1.956 . S
Li440 O501 1.970 . S
Li440 O502 1.961 . S
Li441 N465 1.990 . S
Li441 O500 1.970 . S
Li441 O501 1.956 . S
Li441 O503 1.961 . S
Li442 N487 1.990 . S
Li442 O500 1.961 . S
Li442 O502 1.956 . S
Li442 O503 1.970 . S
Li443 N493 1.990 . S
Li443 O501 1.961 . S
Li443 O502 1.970 . S
Li443 O503 1.956 . S
C444 C446 1.348 . S
C444 C447 1.356 . S
C444 O500 1.325 . S
N445 C448 1.314 . S
N445 C449 1.279 . S
C446 C444 1.348 . S
C446 C448 1.353 . S
C446 H504 0.929 . S
C447 C444 1.356 . S
C447 C449 1.358 . S
C447 H505 0.930 . S
C448 N445 1.314 . S
C448 C446 1.353 . S
C448 H506 0.930 . S
C449 N445 1.279 . S
C449 C447 1.358 . S
C449 H507 0.930 . S
C450 C453 1.348 . S
C450 C454 1.356 . S
C450 O501 1.325 . S
C451 N452 1.279 . S
C451 C454 1.358 . S
C451 H508 0.930 . S
N452 C451 1.279 . S
N452 C455 1.314 . S
C453 C450 1.348 . S
C453 C455 1.353 . S
C453 H509 0.929 . S
C454 C450 1.356 . S
C454 C451 1.358 . S
C454 H510 0.930 . S
C455 N452 1.314 . S
C455 C453 1.353 . S
C455 H511 0.930 . S
C456 N457 1.314 . S
C456 C461 1.353 . S
C456 H462 0.930 . S
N457 Li440 1.990 . S
N457 C456 1.314 . S
N457 C459 1.279 . S
C458 C459 1.358 . S
C458 C460 1.356 . S
C458 H512 0.930 . S
C459 N457 1.279 . S
C459 C458 1.358 . S
C459 H463 0.930 . S
C460 C458 1.356 . S
C460 C461 1.348 . S
C461 C456 1.353 . S
C461 C460 1.348 . S
C461 H513 0.929 . S
H462 C456 0.930 . S
H463 C459 0.930 . S
C464 N465 1.314 . S
C464 C466 1.353 . S
C464 H470 0.930 . S
N465 Li441 1.990 . S
N465 C464 1.314 . S
N465 C468 1.279 . S
C466 C464 1.353 . S
C466 C469 1.348 . S
C466 H514 0.929 . S
C467 C468 1.358 . S
C467 C469 1.356 . S
C467 H515 0.930 . S
C468 N465 1.279 . S
C468 C467 1.358 . S
C468 H471 0.930 . S
C469 C466 1.348 . S
C469 C467 1.356 . S
H470 C464 0.930 . S
H471 C468 0.930 . S
C472 C474 1.348 . S
C472 C475 1.356 . S
C472 O502 1.325 . S
N473 C476 1.314 . S
N473 C477 1.279 . S
C474 C472 1.348 . S
C474 C476 1.353 . S
C474 H516 0.929 . S
C475 C472 1.356 . S
C475 C477 1.358 . S
C475 H517 0.930 . S
C476 N473 1.314 . S
C476 C474 1.353 . S
C476 H518 0.930 . S
C477 N473 1.279 . S
C477 C475 1.358 . S
C477 H519 0.930 . S
C478 C479 1.348 . S
C478 C480 1.356 . S
C478 O503 1.325 . S
C479 C478 1.348 . S
C479 C481 1.353 . S
C479 H520 0.929 . S
C480 C478 1.356 . S
C480 C482 1.358 . S
C480 H521 0.930 . S
C481 C479 1.353 . S
C481 N483 1.314 . S
C481 H522 0.930 . S
C482 C480 1.358 . S
C482 N483 1.279 . S
C482 H523 0.930 . S
N483 C481 1.314 . S
N483 C482 1.279 . S
C484 C486 1.353 . S
C484 N487 1.314 . S
C484 H490 0.930 . S
C485 N487 1.279 . S
C485 C488 1.358 . S
C485 H491 0.930 . S
C486 C484 1.353 . S
C486 C489 1.348 . S
C486 H524 0.929 . S
N487 Li442 1.990 . S
N487 C484 1.314 . S
N487 C485 1.279 . S
C488 C485 1.358 . S
C488 C489 1.356 . S
C488 H525 0.930 . S
C489 C486 1.348 . S
C489 C488 1.356 . S
H490 C484 0.930 . S
H491 C485 0.930 . S
C492 N493 1.314 . S
C492 C494 1.353 . S
C492 H498 0.930 . S
N493 Li443 1.990 . S
N493 C492 1.314 . S
N493 C496 1.279 . S
C494 C492 1.353 . S
C494 C497 1.348 . S
C494 H526 0.929 . S
C495 C496 1.358 . S
C495 C497 1.356 . S
C495 H527 0.930 . S
C496 N493 1.279 . S
C496 C495 1.358 . S
C496 H499 0.930 . S
C497 C494 1.348 . S
C497 C495 1.356 . S
H498 C492 0.930 . S
H499 C496 0.930 . S
O500 Li440 1.956 . S
O500 Li441 1.970 . S
O500 Li442 1.961 . S
O500 C444 1.325 . S
O501 Li440 1.970 . S
O501 Li441 1.956 . S
O501 Li443 1.961 . S
O501 C450 1.325 . S
O502 Li440 1.961 . S
O502 Li442 1.956 . S
O502 Li443 1.970 . S
O502 C472 1.325 . S
O503 Li441 1.961 . S
O503 Li442 1.970 . S
O503 Li443 1.956 . S
O503 C478 1.325 . S
H504 C446 0.929 . S
H505 C447 0.930 . S
H506 C448 0.930 . S
H507 C449 0.930 . S
H508 C451 0.930 . S
H509 C453 0.929 . S
H510 C454 0.930 . S
H511 C455 0.930 . S
H512 C458 0.930 . S
H513 C461 0.929 . S
H514 C466 0.929 . S
H515 C467 0.930 . S
H516 C474 0.929 . S
H517 C475 0.930 . S
H518 C476 0.930 . S
H519 C477 0.930 . S
H520 C479 0.929 . S
H521 C480 0.930 . S
H522 C481 0.930 . S
H523 C482 0.930 . S
H524 C486 0.929 . S
H525 C488 0.930 . S
H526 C494 0.929 . S
H527 C495 0.930 . S
Li528 N545 1.990 . S
Li528 O588 1.956 . S
Li528 O589 1.970 . S
Li528 O590 1.961 . S
Li529 N553 1.990 . S
Li529 O588 1.970 . S
Li529 O589 1.956 . S
Li529 O591 1.961 . S
Li530 N575 1.990 . S
Li530 O588 1.961 . S
Li530 O590 1.956 . S
Li530 O591 1.970 . S
Li531 N581 1.990 . S
Li531 O589 1.961 . S
Li531 O590 1.970 . S
Li531 O591 1.956 . S
C532 C534 1.348 . S
C532 C535 1.356 . S
C532 O588 1.325 . S
N533 C536 1.314 . S
N533 C537 1.279 . S
C534 C532 1.348 . S
C534 C536 1.353 . S
C534 H592 0.929 . S
C535 C532 1.356 . S
C535 C537 1.358 . S
C535 H593 0.930 . S
C536 N533 1.314 . S
C536 C534 1.353 . S
C536 H594 0.930 . S
C537 N533 1.279 . S
C537 C535 1.358 . S
C537 H595 0.930 . S
C538 C541 1.348 . S
C538 C542 1.356 . S
C538 O589 1.325 . S
C539 N540 1.279 . S
C539 C542 1.358 . S
C539 H596 0.930 . S
N540 C539 1.279 . S
N540 C543 1.314 . S
C541 C538 1.348 . S
C541 C543 1.353 . S
C541 H597 0.929 . S
C542 C538 1.356 . S
C542 C539 1.358 . S
C542 H598 0.930 . S
C543 N540 1.314 . S
C543 C541 1.353 . S
C543 H599 0.930 . S
C544 N545 1.314 . S
C544 C549 1.353 . S
C544 H550 0.930 . S
N545 Li528 1.990 . S
N545 C544 1.314 . S
N545 C547 1.279 . S
C546 C547 1.358 . S
C546 C548 1.356 . S
C546 H600 0.930 . S
C547 N545 1.279 . S
C547 C546 1.358 . S
C547 H551 0.930 . S
C548 C546 1.356 . S
C548 C549 1.348 . S
C549 C544 1.353 . S
C549 C548 1.348 . S
C549 H601 0.929 . S
H550 C544 0.930 . S
H551 C547 0.930 . S
C552 N553 1.314 . S
C552 C554 1.353 . S
C552 H558 0.930 . S
N553 Li529 1.990 . S
N553 C552 1.314 . S
N553 C556 1.279 . S
C554 C552 1.353 . S
C554 C557 1.348 . S
C554 H602 0.929 . S
C555 C556 1.358 . S
C555 C557 1.356 . S
C555 H603 0.930 . S
C556 N553 1.279 . S
C556 C555 1.358 . S
C556 H559 0.930 . S
C557 C554 1.348 . S
C557 C555 1.356 . S
H558 C552 0.930 . S
H559 C556 0.930 . S
C560 C562 1.348 . S
C560 C563 1.356 . S
C560 O590 1.325 . S
N561 C564 1.314 . S
N561 C565 1.279 . S
C562 C560 1.348 . S
C562 C564 1.353 . S
C562 H604 0.929 . S
C563 C560 1.356 . S
C563 C565 1.358 . S
C563 H605 0.930 . S
C564 N561 1.314 . S
C564 C562 1.353 . S
C564 H606 0.930 . S
C565 N561 1.279 . S
C565 C563 1.358 . S
C565 H607 0.930 . S
C566 C567 1.348 . S
C566 C568 1.356 . S
C566 O591 1.325 . S
C567 C566 1.348 . S
C567 C569 1.353 . S
C567 H608 0.929 . S
C568 C566 1.356 . S
C568 C570 1.358 . S
C568 H609 0.930 . S
C569 C567 1.353 . S
C569 N571 1.314 . S
C569 H610 0.930 . S
C570 C568 1.358 . S
C570 N571 1.279 . S
C570 H611 0.930 . S
N571 C569 1.314 . S
N571 C570 1.279 . S
C572 C574 1.353 . S
C572 N575 1.314 . S
C572 H578 0.930 . S
C573 N575 1.279 . S
C573 C576 1.358 . S
C573 H579 0.930 . S
C574 C572 1.353 . S
C574 C577 1.348 . S
C574 H612 0.929 . S
N575 Li530 1.990 . S
N575 C572 1.314 . S
N575 C573 1.279 . S
C576 C573 1.358 . S
C576 C577 1.356 . S
C576 H613 0.930 . S
C577 C574 1.348 . S
C577 C576 1.356 . S
H578 C572 0.930 . S
H579 C573 0.930 . S
C580 N581 1.314 . S
C580 C582 1.353 . S
C580 H586 0.930 . S
N581 Li531 1.990 . S
N581 C580 1.314 . S
N581 C584 1.279 . S
C582 C580 1.353 . S
C582 C585 1.348 . S
C582 H614 0.929 . S
C583 C584 1.358 . S
C583 C585 1.356 . S
C583 H615 0.930 . S
C584 N581 1.279 . S
C584 C583 1.358 . S
C584 H587 0.930 . S
C585 C582 1.348 . S
C585 C583 1.356 . S
H586 C580 0.930 . S
H587 C584 0.930 . S
O588 Li528 1.956 . S
O588 Li529 1.970 . S
O588 Li530 1.961 . S
O588 C532 1.325 . S
O589 Li528 1.970 . S
O589 Li529 1.956 . S
O589 Li531 1.961 . S
O589 C538 1.325 . S
O590 Li528 1.961 . S
O590 Li530 1.956 . S
O590 Li531 1.970 . S
O590 C560 1.325 . S
O591 Li529 1.961 . S
O591 Li530 1.970 . S
O591 Li531 1.956 . S
O591 C566 1.325 . S
H592 C534 0.929 . S
H593 C535 0.930 . S
H594 C536 0.930 . S
H595 C537 0.930 . S
H596 C539 0.930 . S
H597 C541 0.929 . S
H598 C542 0.930 . S
H599 C543 0.930 . S
H600 C546 0.930 . S
H601 C549 0.929 . S
H602 C554 0.929 . S
H603 C555 0.930 . S
H604 C562 0.929 . S
H605 C563 0.930 . S
H606 C564 0.930 . S
H607 C565 0.930 . S
H608 C567 0.929 . S
H609 C568 0.930 . S
H610 C569 0.930 . S
H611 C570 0.930 . S
H612 C574 0.929 . S
H613 C576 0.930 . S
H614 C582 0.929 . S
H615 C583 0.930 . S
Li616 N633 1.990 . S
Li616 O676 1.956 . S
Li616 O677 1.970 . S
Li616 O678 1.961 . S
Li617 N641 1.990 . S
Li617 O676 1.970 . S
Li617 O677 1.956 . S
Li617 O679 1.961 . S
Li618 N663 1.990 . S
Li618 O676 1.961 . S
Li618 O678 1.956 . S
Li618 O679 1.970 . S
Li619 N669 1.990 . S
Li619 O677 1.961 . S
Li619 O678 1.970 . S
Li619 O679 1.956 . S
C620 C622 1.348 . S
C620 C623 1.356 . S
C620 O676 1.325 . S
N621 C624 1.314 . S
N621 C625 1.279 . S
C622 C620 1.348 . S
C622 C624 1.353 . S
C622 H680 0.929 . S
C623 C620 1.356 . S
C623 C625 1.358 . S
C623 H681 0.930 . S
C624 N621 1.314 . S
C624 C622 1.353 . S
C624 H682 0.930 . S
C625 N621 1.279 . S
C625 C623 1.358 . S
C625 H683 0.930 . S
C626 C629 1.348 . S
C626 C630 1.356 . S
C626 O677 1.325 . S
C627 N628 1.279 . S
C627 C630 1.358 . S
C627 H684 0.930 . S
N628 C627 1.279 . S
N628 C631 1.314 . S
C629 C626 1.348 . S
C629 C631 1.353 . S
C629 H685 0.929 . S
C630 C626 1.356 . S
C630 C627 1.358 . S
C630 H686 0.930 . S
C631 N628 1.314 . S
C631 C629 1.353 . S
C631 H687 0.930 . S
C632 N633 1.314 . S
C632 C637 1.353 . S
C632 H638 0.930 . S
N633 Li616 1.990 . S
N633 C632 1.314 . S
N633 C635 1.279 . S
C634 C635 1.358 . S
C634 C636 1.356 . S
C634 H688 0.930 . S
C635 N633 1.279 . S
C635 C634 1.358 . S
C635 H639 0.930 . S
C636 C634 1.356 . S
C636 C637 1.348 . S
C637 C632 1.353 . S
C637 C636 1.348 . S
C637 H689 0.929 . S
H638 C632 0.930 . S
H639 C635 0.930 . S
C640 N641 1.314 . S
C640 C642 1.353 . S
C640 H646 0.930 . S
N641 Li617 1.990 . S
N641 C640 1.314 . S
N641 C644 1.279 . S
C642 C640 1.353 . S
C642 C645 1.348 . S
C642 H690 0.929 . S
C643 C644 1.358 . S
C643 C645 1.356 . S
C643 H691 0.930 . S
C644 N641 1.279 . S
C644 C643 1.358 . S
C644 H647 0.930 . S
C645 C642 1.348 . S
C645 C643 1.356 . S
H646 C640 0.930 . S
H647 C644 0.930 . S
C648 C650 1.348 . S
C648 C651 1.356 . S
C648 O678 1.325 . S
N649 C652 1.314 . S
N649 C653 1.279 . S
C650 C648 1.348 . S
C650 C652 1.353 . S
C650 H692 0.929 . S
C651 C648 1.356 . S
C651 C653 1.358 . S
C651 H693 0.930 . S
C652 N649 1.314 . S
C652 C650 1.353 . S
C652 H694 0.930 . S
C653 N649 1.279 . S
C653 C651 1.358 . S
C653 H695 0.930 . S
C654 C655 1.348 . S
C654 C656 1.356 . S
C654 O679 1.325 . S
C655 C654 1.348 . S
C655 C657 1.353 . S
C655 H696 0.929 . S
C656 C654 1.356 . S
C656 C658 1.358 . S
C656 H697 0.930 . S
C657 C655 1.353 . S
C657 N659 1.314 . S
C657 H698 0.930 . S
C658 C656 1.358 . S
C658 N659 1.279 . S
C658 H699 0.930 . S
N659 C657 1.314 . S
N659 C658 1.279 . S
C660 C662 1.353 . S
C660 N663 1.314 . S
C660 H666 0.930 . S
C661 N663 1.279 . S
C661 C664 1.358 . S
C661 H667 0.930 . S
C662 C660 1.353 . S
C662 C665 1.348 . S
C662 H700 0.929 . S
N663 Li618 1.990 . S
N663 C660 1.314 . S
N663 C661 1.279 . S
C664 C661 1.358 . S
C664 C665 1.356 . S
C664 H701 0.930 . S
C665 C662 1.348 . S
C665 C664 1.356 . S
H666 C660 0.930 . S
H667 C661 0.930 . S
C668 N669 1.314 . S
C668 C670 1.353 . S
C668 H674 0.930 . S
N669 Li619 1.990 . S
N669 C668 1.314 . S
N669 C672 1.279 . S
C670 C668 1.353 . S
C670 C673 1.348 . S
C670 H702 0.929 . S
C671 C672 1.358 . S
C671 C673 1.356 . S
C671 H703 0.930 . S
C672 N669 1.279 . S
C672 C671 1.358 . S
C672 H675 0.930 . S
C673 C670 1.348 . S
C673 C671 1.356 . S
H674 C668 0.930 . S
H675 C672 0.930 . S
O676 Li616 1.956 . S
O676 Li617 1.970 . S
O676 Li618 1.961 . S
O676 C620 1.325 . S
O677 Li616 1.970 . S
O677 Li617 1.956 . S
O677 Li619 1.961 . S
O677 C626 1.325 . S
O678 Li616 1.961 . S
O678 Li618 1.956 . S
O678 Li619 1.970 . S
O678 C648 1.325 . S
O679 Li617 1.961 . S
O679 Li618 1.970 . S
O679 Li619 1.956 . S
O679 C654 1.325 . S
H680 C622 0.929 . S
H681 C623 0.930 . S
H682 C624 0.930 . S
H683 C625 0.930 . S
H684 C627 0.930 . S
H685 C629 0.929 . S
H686 C630 0.930 . S
H687 C631 0.930 . S
H688 C634 0.930 . S
H689 C637 0.929 . S
H690 C642 0.929 . S
H691 C643 0.930 . S
H692 C650 0.929 . S
H693 C651 0.930 . S
H694 C652 0.930 . S
H695 C653 0.930 . S
H696 C655 0.929 . S
H697 C656 0.930 . S
H698 C657 0.930 . S
H699 C658 0.930 . S
H700 C662 0.929 . S
H701 C664 0.930 . S
H702 C670 0.929 . S
H703 C671 0.930 . S
Li704 N721 1.990 . S
Li704 O764 1.956 . S
Li704 O765 1.970 . S
Li704 O766 1.961 . S
Li705 N729 1.990 . S
Li705 O764 1.970 . S
Li705 O765 1.956 . S
Li705 O767 1.961 . S
Li706 N751 1.990 . S
Li706 O764 1.961 . S
Li706 O766 1.956 . S
Li706 O767 1.970 . S
Li707 N757 1.990 . S
Li707 O765 1.961 . S
Li707 O766 1.970 . S
Li707 O767 1.956 . S
C708 C710 1.348 . S
C708 C711 1.356 . S
C708 O764 1.325 . S
N709 C712 1.314 . S
N709 C713 1.279 . S
C710 C708 1.348 . S
C710 C712 1.353 . S
C710 H768 0.929 . S
C711 C708 1.356 . S
C711 C713 1.358 . S
C711 H769 0.930 . S
C712 N709 1.314 . S
C712 C710 1.353 . S
C712 H770 0.930 . S
C713 N709 1.279 . S
C713 C711 1.358 . S
C713 H771 0.930 . S
C714 C717 1.348 . S
C714 C718 1.356 . S
C714 O765 1.325 . S
C715 N716 1.279 . S
C715 C718 1.358 . S
C715 H772 0.930 . S
N716 C715 1.279 . S
N716 C719 1.314 . S
C717 C714 1.348 . S
C717 C719 1.353 . S
C717 H773 0.929 . S
C718 C714 1.356 . S
C718 C715 1.358 . S
C718 H774 0.930 . S
C719 N716 1.314 . S
C719 C717 1.353 . S
C719 H775 0.930 . S
C720 N721 1.314 . S
C720 C725 1.353 . S
C720 H726 0.930 . S
N721 Li704 1.990 . S
N721 C720 1.314 . S
N721 C723 1.279 . S
C722 C723 1.358 . S
C722 C724 1.356 . S
C722 H776 0.930 . S
C723 N721 1.279 . S
C723 C722 1.358 . S
C723 H727 0.930 . S
C724 C722 1.356 . S
C724 C725 1.348 . S
C725 C720 1.353 . S
C725 C724 1.348 . S
C725 H777 0.929 . S
H726 C720 0.930 . S
H727 C723 0.930 . S
C728 N729 1.314 . S
C728 C730 1.353 . S
C728 H734 0.930 . S
N729 Li705 1.990 . S
N729 C728 1.314 . S
N729 C732 1.279 . S
C730 C728 1.353 . S
C730 C733 1.348 . S
C730 H778 0.929 . S
C731 C732 1.358 . S
C731 C733 1.356 . S
C731 H779 0.930 . S
C732 N729 1.279 . S
C732 C731 1.358 . S
C732 H735 0.930 . S
C733 C730 1.348 . S
C733 C731 1.356 . S
H734 C728 0.930 . S
H735 C732 0.930 . S
C736 C738 1.348 . S
C736 C739 1.356 . S
C736 O766 1.325 . S
N737 C740 1.314 . S
N737 C741 1.279 . S
C738 C736 1.348 . S
C738 C740 1.353 . S
C738 H780 0.929 . S
C739 C736 1.356 . S
C739 C741 1.358 . S
C739 H781 0.930 . S
C740 N737 1.314 . S
C740 C738 1.353 . S
C740 H782 0.930 . S
C741 N737 1.279 . S
C741 C739 1.358 . S
C741 H783 0.930 . S
C742 C743 1.348 . S
C742 C744 1.356 . S
C742 O767 1.325 . S
C743 C742 1.348 . S
C743 C745 1.353 . S
C743 H784 0.929 . S
C744 C742 1.356 . S
C744 C746 1.358 . S
C744 H785 0.930 . S
C745 C743 1.353 . S
C745 N747 1.314 . S
C745 H786 0.930 . S
C746 C744 1.358 . S
C746 N747 1.279 . S
C746 H787 0.930 . S
N747 C745 1.314 . S
N747 C746 1.279 . S
C748 C750 1.353 . S
C748 N751 1.314 . S
C748 H754 0.930 . S
C749 N751 1.279 . S
C749 C752 1.358 . S
C749 H755 0.930 . S
C750 C748 1.353 . S
C750 C753 1.348 . S
C750 H788 0.929 . S
N751 Li706 1.990 . S
N751 C748 1.314 . S
N751 C749 1.279 . S
C752 C749 1.358 . S
C752 C753 1.356 . S
C752 H789 0.930 . S
C753 C750 1.348 . S
C753 C752 1.356 . S
H754 C748 0.930 . S
H755 C749 0.930 . S
C756 N757 1.314 . S
C756 C758 1.353 . S
C756 H762 0.930 . S
N757 Li707 1.990 . S
N757 C756 1.314 . S
N757 C760 1.279 . S
C758 C756 1.353 . S
C758 C761 1.348 . S
C758 H790 0.929 . S
C759 C760 1.358 . S
C759 C761 1.356 . S
C759 H791 0.930 . S
C760 N757 1.279 . S
C760 C759 1.358 . S
C760 H763 0.930 . S
C761 C758 1.348 . S
C761 C759 1.356 . S
H762 C756 0.930 . S
H763 C760 0.930 . S
O764 Li704 1.956 . S
O764 Li705 1.970 . S
O764 Li706 1.961 . S
O764 C708 1.325 . S
O765 Li704 1.970 . S
O765 Li705 1.956 . S
O765 Li707 1.961 . S
O765 C714 1.325 . S
O766 Li704 1.961 . S
O766 Li706 1.956 . S
O766 Li707 1.970 . S
O766 C736 1.325 . S
O767 Li705 1.961 . S
O767 Li706 1.970 . S
O767 Li707 1.956 . S
O767 C742 1.325 . S
H768 C710 0.929 . S
H769 C711 0.930 . S
H770 C712 0.930 . S
H771 C713 0.930 . S
H772 C715 0.930 . S
H773 C717 0.929 . S
H774 C718 0.930 . S
H775 C719 0.930 . S
H776 C722 0.930 . S
H777 C725 0.929 . S
H778 C730 0.929 . S
H779 C731 0.930 . S
H780 C738 0.929 . S
H781 C739 0.930 . S
H782 C740 0.930 . S
H783 C741 0.930 . S
H784 C743 0.929 . S
H785 C744 0.930 . S
H786 C745 0.930 . S
H787 C746 0.930 . S
H788 C750 0.929 . S
H789 C752 0.930 . S
H790 C758 0.929 . S
H791 C759 0.930 . S
Li792 N809 1.990 . S
Li792 O852 1.956 . S
Li792 O853 1.970 . S
Li792 O854 1.961 . S
Li793 N817 1.990 . S
Li793 O852 1.970 . S
Li793 O853 1.956 . S
Li793 O855 1.961 . S
Li794 N839 1.990 . S
Li794 O852 1.961 . S
Li794 O854 1.956 . S
Li794 O855 1.970 . S
Li795 N845 1.990 . S
Li795 O853 1.961 . S
Li795 O854 1.970 . S
Li795 O855 1.956 . S
C796 C798 1.348 . S
C796 C799 1.356 . S
C796 O852 1.325 . S
N797 C800 1.314 . S
N797 C801 1.279 . S
C798 C796 1.348 . S
C798 C800 1.353 . S
C798 H856 0.929 . S
C799 C796 1.356 . S
C799 C801 1.358 . S
C799 H857 0.930 . S
C800 N797 1.314 . S
C800 C798 1.353 . S
C800 H858 0.930 . S
C801 N797 1.279 . S
C801 C799 1.358 . S
C801 H859 0.930 . S
C802 C805 1.348 . S
C802 C806 1.356 . S
C802 O853 1.325 . S
C803 N804 1.279 . S
C803 C806 1.358 . S
C803 H860 0.930 . S
N804 C803 1.279 . S
N804 C807 1.314 . S
C805 C802 1.348 . S
C805 C807 1.353 . S
C805 H861 0.929 . S
C806 C802 1.356 . S
C806 C803 1.358 . S
C806 H862 0.930 . S
C807 N804 1.314 . S
C807 C805 1.353 . S
C807 H863 0.930 . S
C808 N809 1.314 . S
C808 C813 1.353 . S
C808 H814 0.930 . S
N809 Li792 1.990 . S
N809 C808 1.314 . S
N809 C811 1.279 . S
C810 C811 1.358 . S
C810 C812 1.356 . S
C810 H864 0.930 . S
C811 N809 1.279 . S
C811 C810 1.358 . S
C811 H815 0.930 . S
C812 C810 1.356 . S
C812 C813 1.348 . S
C813 C808 1.353 . S
C813 C812 1.348 . S
C813 H865 0.929 . S
H814 C808 0.930 . S
H815 C811 0.930 . S
C816 N817 1.314 . S
C816 C818 1.353 . S
C816 H822 0.930 . S
N817 Li793 1.990 . S
N817 C816 1.314 . S
N817 C820 1.279 . S
C818 C816 1.353 . S
C818 C821 1.348 . S
C818 H866 0.929 . S
C819 C820 1.358 . S
C819 C821 1.356 . S
C819 H867 0.930 . S
C820 N817 1.279 . S
C820 C819 1.358 . S
C820 H823 0.930 . S
C821 C818 1.348 . S
C821 C819 1.356 . S
H822 C816 0.930 . S
H823 C820 0.930 . S
C824 C826 1.348 . S
C824 C827 1.356 . S
C824 O854 1.325 . S
N825 C828 1.314 . S
N825 C829 1.279 . S
C826 C824 1.348 . S
C826 C828 1.353 . S
C826 H868 0.929 . S
C827 C824 1.356 . S
C827 C829 1.358 . S
C827 H869 0.930 . S
C828 N825 1.314 . S
C828 C826 1.353 . S
C828 H870 0.930 . S
C829 N825 1.279 . S
C829 C827 1.358 . S
C829 H871 0.930 . S
C830 C831 1.348 . S
C830 C832 1.356 . S
C830 O855 1.325 . S
C831 C830 1.348 . S
C831 C833 1.353 . S
C831 H872 0.929 . S
C832 C830 1.356 . S
C832 C834 1.358 . S
C832 H873 0.930 . S
C833 C831 1.353 . S
C833 N835 1.314 . S
C833 H874 0.930 . S
C834 C832 1.358 . S
C834 N835 1.279 . S
C834 H875 0.930 . S
N835 C833 1.314 . S
N835 C834 1.279 . S
C836 C838 1.353 . S
C836 N839 1.314 . S
C836 H842 0.930 . S
C837 N839 1.279 . S
C837 C840 1.358 . S
C837 H843 0.930 . S
C838 C836 1.353 . S
C838 C841 1.348 . S
C838 H876 0.929 . S
N839 Li794 1.990 . S
N839 C836 1.314 . S
N839 C837 1.279 . S
C840 C837 1.358 . S
C840 C841 1.356 . S
C840 H877 0.930 . S
C841 C838 1.348 . S
C841 C840 1.356 . S
H842 C836 0.930 . S
H843 C837 0.930 . S
C844 N845 1.314 . S
C844 C846 1.353 . S
C844 H850 0.930 . S
N845 Li795 1.990 . S
N845 C844 1.314 . S
N845 C848 1.279 . S
C846 C844 1.353 . S
C846 C849 1.348 . S
C846 H878 0.929 . S
C847 C848 1.358 . S
C847 C849 1.356 . S
C847 H879 0.930 . S
C848 N845 1.279 . S
C848 C847 1.358 . S
C848 H851 0.930 . S
C849 C846 1.348 . S
C849 C847 1.356 . S
H850 C844 0.930 . S
H851 C848 0.930 . S
O852 Li792 1.956 . S
O852 Li793 1.970 . S
O852 Li794 1.961 . S
O852 C796 1.325 . S
O853 Li792 1.970 . S
O853 Li793 1.956 . S
O853 Li795 1.961 . S
O853 C802 1.325 . S
O854 Li792 1.961 . S
O854 Li794 1.956 . S
O854 Li795 1.970 . S
O854 C824 1.325 . S
O855 Li793 1.961 . S
O855 Li794 1.970 . S
O855 Li795 1.956 . S
O855 C830 1.325 . S
H856 C798 0.929 . S
H857 C799 0.930 . S
H858 C800 0.930 . S
H859 C801 0.930 . S
H860 C803 0.930 . S
H861 C805 0.929 . S
H862 C806 0.930 . S
H863 C807 0.930 . S
H864 C810 0.930 . S
H865 C813 0.929 . S
H866 C818 0.929 . S
H867 C819 0.930 . S
H868 C826 0.929 . S
H869 C827 0.930 . S
H870 C828 0.930 . S
H871 C829 0.930 . S
H872 C831 0.929 . S
H873 C832 0.930 . S
H874 C833 0.930 . S
H875 C834 0.930 . S
H876 C838 0.929 . S
H877 C840 0.930 . S
H878 C846 0.929 . S
H879 C847 0.930 . S
Li880 N897 1.990 . S
Li880 O940 1.956 . S
Li880 O941 1.970 . S
Li880 O942 1.961 . S
Li881 N905 1.990 . S
Li881 O940 1.970 . S
Li881 O941 1.956 . S
Li881 O943 1.961 . S
Li882 N927 1.990 . S
Li882 O940 1.961 . S
Li882 O942 1.956 . S
Li882 O943 1.970 . S
Li883 N933 1.990 . S
Li883 O941 1.961 . S
Li883 O942 1.970 . S
Li883 O943 1.956 . S
C884 C886 1.348 . S
C884 C887 1.356 . S
C884 O940 1.325 . S
N885 C888 1.314 . S
N885 C889 1.279 . S
C886 C884 1.348 . S
C886 C888 1.353 . S
C886 H944 0.929 . S
C887 C884 1.356 . S
C887 C889 1.358 . S
C887 H945 0.930 . S
C888 N885 1.314 . S
C888 C886 1.353 . S
C888 H946 0.930 . S
C889 N885 1.279 . S
C889 C887 1.358 . S
C889 H947 0.930 . S
C890 C893 1.348 . S
C890 C894 1.356 . S
C890 O941 1.325 . S
C891 N892 1.279 . S
C891 C894 1.358 . S
C891 H948 0.930 . S
N892 C891 1.279 . S
N892 C895 1.314 . S
C893 C890 1.348 . S
C893 C895 1.353 . S
C893 H949 0.929 . S
C894 C890 1.356 . S
C894 C891 1.358 . S
C894 H950 0.930 . S
C895 N892 1.314 . S
C895 C893 1.353 . S
C895 H951 0.930 . S
C896 N897 1.314 . S
C896 C901 1.353 . S
C896 H902 0.930 . S
N897 Li880 1.990 . S
N897 C896 1.314 . S
N897 C899 1.279 . S
C898 C899 1.358 . S
C898 C900 1.356 . S
C898 H952 0.930 . S
C899 N897 1.279 . S
C899 C898 1.358 . S
C899 H903 0.930 . S
C900 C898 1.356 . S
C900 C901 1.348 . S
C901 C896 1.353 . S
C901 C900 1.348 . S
C901 H953 0.929 . S
H902 C896 0.930 . S
H903 C899 0.930 . S
C904 N905 1.314 . S
C904 C906 1.353 . S
C904 H910 0.930 . S
N905 Li881 1.990 . S
N905 C904 1.314 . S
N905 C908 1.279 . S
C906 C904 1.353 . S
C906 C909 1.348 . S
C906 H954 0.929 . S
C907 C908 1.358 . S
C907 C909 1.356 . S
C907 H955 0.930 . S
C908 N905 1.279 . S
C908 C907 1.358 . S
C908 H911 0.930 . S
C909 C906 1.348 . S
C909 C907 1.356 . S
H910 C904 0.930 . S
H911 C908 0.930 . S
C912 C914 1.348 . S
C912 C915 1.356 . S
C912 O942 1.325 . S
N913 C916 1.314 . S
N913 C917 1.279 . S
C914 C912 1.348 . S
C914 C916 1.353 . S
C914 H956 0.929 . S
C915 C912 1.356 . S
C915 C917 1.358 . S
C915 H957 0.930 . S
C916 N913 1.314 . S
C916 C914 1.353 . S
C916 H958 0.930 . S
C917 N913 1.279 . S
C917 C915 1.358 . S
C917 H959 0.930 . S
C918 C919 1.348 . S
C918 C920 1.356 . S
C918 O943 1.325 . S
C919 C918 1.348 . S
C919 C921 1.353 . S
C919 H960 0.929 . S
C920 C918 1.356 . S
C920 C922 1.358 . S
C920 H961 0.930 . S
C921 C919 1.353 . S
C921 N923 1.314 . S
C921 H962 0.930 . S
C922 C920 1.358 . S
C922 N923 1.279 . S
C922 H963 0.930 . S
N923 C921 1.314 . S
N923 C922 1.279 . S
C924 C926 1.353 . S
C924 N927 1.314 . S
C924 H930 0.930 . S
C925 N927 1.279 . S
C925 C928 1.358 . S
C925 H931 0.930 . S
C926 C924 1.353 . S
C926 C929 1.348 . S
C926 H964 0.929 . S
N927 Li882 1.990 . S
N927 C924 1.314 . S
N927 C925 1.279 . S
C928 C925 1.358 . S
C928 C929 1.356 . S
C928 H965 0.930 . S
C929 C926 1.348 . S
C929 C928 1.356 . S
H930 C924 0.930 . S
H931 C925 0.930 . S
C932 N933 1.314 . S
C932 C934 1.353 . S
C932 H938 0.930 . S
N933 Li883 1.990 . S
N933 C932 1.314 . S
N933 C936 1.279 . S
C934 C932 1.353 . S
C934 C937 1.348 . S
C934 H966 0.929 . S
C935 C936 1.358 . S
C935 C937 1.356 . S
C935 H967 0.930 . S
C936 N933 1.279 . S
C936 C935 1.358 . S
C936 H939 0.930 . S
C937 C934 1.348 . S
C937 C935 1.356 . S
H938 C932 0.930 . S
H939 C936 0.930 . S
O940 Li880 1.956 . S
O940 Li881 1.970 . S
O940 Li882 1.961 . S
O940 C884 1.325 . S
O941 Li880 1.970 . S
O941 Li881 1.956 . S
O941 Li883 1.961 . S
O941 C890 1.325 . S
O942 Li880 1.961 . S
O942 Li882 1.956 . S
O942 Li883 1.970 . S
O942 C912 1.325 . S
O943 Li881 1.961 . S
O943 Li882 1.970 . S
O943 Li883 1.956 . S
O943 C918 1.325 . S
H944 C886 0.929 . S
H945 C887 0.930 . S
H946 C888 0.930 . S
H947 C889 0.930 . S
H948 C891 0.930 . S
H949 C893 0.929 . S
H950 C894 0.930 . S
H951 C895 0.930 . S
H952 C898 0.930 . S
H953 C901 0.929 . S
H954 C906 0.929 . S
H955 C907 0.930 . S
H956 C914 0.929 . S
H957 C915 0.930 . S
H958 C916 0.930 . S
H959 C917 0.930 . S
H960 C919 0.929 . S
H961 C920 0.930 . S
H962 C921 0.930 . S
H963 C922 0.930 . S
H964 C926 0.929 . S
H965 C928 0.930 . S
H966 C934 0.929 . S
H967 C935 0.930 . S
Li968 N985 1.990 . S
Li968 O1028 1.956 . S
Li968 O1029 1.970 . S
Li968 O1030 1.961 . S
Li969 N993 1.990 . S
Li969 O1028 1.970 . S
Li969 O1029 1.956 . S
Li969 O1031 1.961 . S
Li970 N1015 1.990 . S
Li970 O1028 1.961 . S
Li970 O1030 1.956 . S
Li970 O1031 1.970 . S
Li971 N1021 1.990 . S
Li971 O1029 1.961 . S
Li971 O1030 1.970 . S
Li971 O1031 1.956 . S
C972 C974 1.348 . S
C972 C975 1.356 . S
C972 O1028 1.325 . S
N973 C976 1.314 . S
N973 C977 1.279 . S
C974 C972 1.348 . S
C974 C976 1.353 . S
C974 H1032 0.929 . S
C975 C972 1.356 . S
C975 C977 1.358 . S
C975 H1033 0.930 . S
C976 N973 1.314 . S
C976 C974 1.353 . S
C976 H1034 0.930 . S
C977 N973 1.279 . S
C977 C975 1.358 . S
C977 H1035 0.930 . S
C978 C981 1.348 . S
C978 C982 1.356 . S
C978 O1029 1.325 . S
C979 N980 1.279 . S
C979 C982 1.358 . S
C979 H1036 0.930 . S
N980 C979 1.279 . S
N980 C983 1.314 . S
C981 C978 1.348 . S
C981 C983 1.353 . S
C981 H1037 0.929 . S
C982 C978 1.356 . S
C982 C979 1.358 . S
C982 H1038 0.930 . S
C983 N980 1.314 . S
C983 C981 1.353 . S
C983 H1039 0.930 . S
C984 N985 1.314 . S
C984 C989 1.353 . S
C984 H990 0.930 . S
N985 Li968 1.990 . S
N985 C984 1.314 . S
N985 C987 1.279 . S
C986 C987 1.358 . S
C986 C988 1.356 . S
C986 H1040 0.930 . S
C987 N985 1.279 . S
C987 C986 1.358 . S
C987 H991 0.930 . S
C988 C986 1.356 . S
C988 C989 1.348 . S
C989 C984 1.353 . S
C989 C988 1.348 . S
C989 H1041 0.929 . S
H990 C984 0.930 . S
H991 C987 0.930 . S
C992 N993 1.314 . S
C992 C994 1.353 . S
C992 H998 0.930 . S
N993 Li969 1.990 . S
N993 C992 1.314 . S
N993 C996 1.279 . S
C994 C992 1.353 . S
C994 C997 1.348 . S
C994 H1042 0.929 . S
C995 C996 1.358 . S
C995 C997 1.356 . S
C995 H1043 0.930 . S
C996 N993 1.279 . S
C996 C995 1.358 . S
C996 H999 0.930 . S
C997 C994 1.348 . S
C997 C995 1.356 . S
H998 C992 0.930 . S
H999 C996 0.930 . S
C1000 C1002 1.348 . S
C1000 C1003 1.356 . S
C1000 O1030 1.325 . S
N1001 C1004 1.314 . S
N1001 C1005 1.279 . S
C1002 C1000 1.348 . S
C1002 C1004 1.353 . S
C1002 H1044 0.929 . S
C1003 C1000 1.356 . S
C1003 C1005 1.358 . S
C1003 H1045 0.930 . S
C1004 N1001 1.314 . S
C1004 C1002 1.353 . S
C1004 H1046 0.930 . S
C1005 N1001 1.279 . S
C1005 C1003 1.358 . S
C1005 H1047 0.930 . S
C1006 C1007 1.348 . S
C1006 C1008 1.356 . S
C1006 O1031 1.325 . S
C1007 C1006 1.348 . S
C1007 C1009 1.353 . S
C1007 H1048 0.929 . S
C1008 C1006 1.356 . S
C1008 C1010 1.358 . S
C1008 H1049 0.930 . S
C1009 C1007 1.353 . S
C1009 N1011 1.314 . S
C1009 H1050 0.930 . S
C1010 C1008 1.358 . S
C1010 N1011 1.279 . S
C1010 H1051 0.930 . S
N1011 C1009 1.314 . S
N1011 C1010 1.279 . S
C1012 C1014 1.353 . S
C1012 N1015 1.314 . S
C1012 H1018 0.930 . S
C1013 N1015 1.279 . S
C1013 C1016 1.358 . S
C1013 H1019 0.930 . S
C1014 C1012 1.353 . S
C1014 C1017 1.348 . S
C1014 H1052 0.929 . S
N1015 Li970 1.990 . S
N1015 C1012 1.314 . S
N1015 C1013 1.279 . S
C1016 C1013 1.358 . S
C1016 C1017 1.356 . S
C1016 H1053 0.930 . S
C1017 C1014 1.348 . S
C1017 C1016 1.356 . S
H1018 C1012 0.930 . S
H1019 C1013 0.930 . S
C1020 N1021 1.314 . S
C1020 C1022 1.353 . S
C1020 H1026 0.930 . S
N1021 Li971 1.990 . S
N1021 C1020 1.314 . S
N1021 C1024 1.279 . S
C1022 C1020 1.353 . S
C1022 C1025 1.348 . S
C1022 H1054 0.929 . S
C1023 C1024 1.358 . S
C1023 C1025 1.356 . S
C1023 H1055 0.930 . S
C1024 N1021 1.279 . S
C1024 C1023 1.358 . S
C1024 H1027 0.930 . S
C1025 C1022 1.348 . S
C1025 C1023 1.356 . S
H1026 C1020 0.930 . S
H1027 C1024 0.930 . S
O1028 Li968 1.956 . S
O1028 Li969 1.970 . S
O1028 Li970 1.961 . S
O1028 C972 1.325 . S
O1029 Li968 1.970 . S
O1029 Li969 1.956 . S
O1029 Li971 1.961 . S
O1029 C978 1.325 . S
O1030 Li968 1.961 . S
O1030 Li970 1.956 . S
O1030 Li971 1.970 . S
O1030 C1000 1.325 . S
O1031 Li969 1.961 . S
O1031 Li970 1.970 . S
O1031 Li971 1.956 . S
O1031 C1006 1.325 . S
H1032 C974 0.929 . S
H1033 C975 0.930 . S
H1034 C976 0.930 . S
H1035 C977 0.930 . S
H1036 C979 0.930 . S
H1037 C981 0.929 . S
H1038 C982 0.930 . S
H1039 C983 0.930 . S
H1040 C986 0.930 . S
H1041 C989 0.929 . S
H1042 C994 0.929 . S
H1043 C995 0.930 . S
H1044 C1002 0.929 . S
H1045 C1003 0.930 . S
H1046 C1004 0.930 . S
H1047 C1005 0.930 . S
H1048 C1007 0.929 . S
H1049 C1008 0.930 . S
H1050 C1009 0.930 . S
H1051 C1010 0.930 . S
H1052 C1014 0.929 . S
H1053 C1016 0.930 . S
H1054 C1022 0.929 . S
H1055 C1023 0.930 . S
H1056 C1064 0.929 . S
H1057 C1066 0.930 . S
H1058 C1068 0.930 . S
H1059 C1071 0.929 . S
H1060 C1074 0.930 . S
H1061 C1076 0.960 . S
H1062 C1076 0.960 . S
H1063 C1076 0.960 . S
C1064 H1056 0.929 . S
C1064 C1065 1.377 . S
C1064 C1066 1.384 . S
C1065 C1064 1.377 . S
C1065 C1071 1.390 . S
C1066 H1057 0.930 . S
C1066 C1064 1.384 . S
C1066 C1067 1.372 . S
C1067 C1066 1.372 . S
C1067 C1068 1.400 . S
C1067 C1072 1.490 . S
C1068 H1058 0.930 . S
C1068 C1067 1.400 . S
C1068 C1071 1.386 . S
H1069 C1085 0.930 . S
H1070 C1086 0.931 . S
C1071 H1059 0.929 . S
C1071 C1065 1.390 . S
C1071 C1068 1.386 . S
C1072 C1067 1.490 . S
C1072 C1074 1.395 1_554 S
C1072 C1075 1.403 . S
H1073 C1079 0.930 . S
C1074 H1060 0.930 . S
C1074 C1072 1.395 1_556 S
C1074 C1077 1.403 . S
C1075 C1072 1.403 . S
C1075 C1076 1.524 . S
C1075 C1079 1.400 1_554 S
C1076 H1061 0.960 . S
C1076 H1062 0.960 . S
C1076 H1063 0.960 . S
C1076 C1075 1.524 . S
C1077 C1074 1.403 . S
C1077 C1078 1.392 . S
C1077 C1081 1.495 . S
C1078 C1077 1.392 . S
C1078 C1079 1.385 . S
C1078 C1080 1.478 . S
C1079 H1073 0.930 . S
C1079 C1075 1.400 1_556 S
C1079 C1078 1.385 . S
C1080 C1078 1.478 . S
C1080 C1082 1.381 . S
C1080 C1086 1.383 . S
C1081 C1077 1.495 . S
C1081 H1087 0.959 . S
C1081 H1088 0.961 . S
C1081 H1089 0.960 . S
C1082 C1080 1.381 . S
C1082 C1083 1.394 . S
C1082 H1090 0.930 . S
C1083 C1082 1.394 . S
C1083 C1084 1.383 . S
C1083 H1091 0.929 . S
C1084 C1083 1.383 . S
C1084 C1085 1.377 . S
C1085 H1069 0.930 . S
C1085 C1084 1.377 . S
C1085 C1086 1.379 . S
C1086 H1070 0.931 . S
C1086 C1080 1.383 . S
C1086 C1085 1.379 . S
H1087 C1081 0.959 . S
H1088 C1081 0.961 . S
H1089 C1081 0.960 . S
H1090 C1082 0.930 . S
H1091 C1083 0.929 . S
H1092 C1100 0.929 . S
H1093 C1102 0.930 . S
H1094 C1104 0.930 . S
H1095 C1107 0.929 . S
H1096 C1110 0.930 . S
H1097 C1112 0.960 . S
H1098 C1112 0.960 . S
H1099 C1112 0.960 . S
C1100 H1092 0.929 . S
C1100 C1101 1.377 . S
C1100 C1102 1.384 . S
C1101 C1100 1.377 . S
C1101 C1107 1.390 . S
C1102 H1093 0.930 . S
C1102 C1100 1.384 . S
C1102 C1103 1.372 . S
C1103 C1102 1.372 . S
C1103 C1104 1.400 . S
C1103 C1108 1.490 . S
C1104 H1094 0.930 . S
C1104 C1103 1.400 . S
C1104 C1107 1.386 . S
H1105 C1121 0.930 . S
H1106 C1122 0.931 . S
C1107 H1095 0.929 . S
C1107 C1101 1.390 . S
C1107 C1104 1.386 . S
C1108 C1103 1.490 . S
C1108 C1110 1.395 . S
C1108 C1111 1.403 . S
H1109 C1115 0.930 . S
C1110 H1096 0.930 . S
C1110 C1108 1.395 . S
C1110 C1113 1.403 . S
C1111 C1108 1.403 . S
C1111 C1112 1.524 . S
C1111 C1115 1.400 . S
C1112 H1097 0.960 . S
C1112 H1098 0.960 . S
C1112 H1099 0.960 . S
C1112 C1111 1.524 . S
C1113 C1110 1.403 . S
C1113 C1114 1.392 . S
C1113 C1117 1.495 . S
C1114 C1113 1.392 . S
C1114 C1115 1.385 . S
C1114 C1116 1.478 . S
C1115 H1109 0.930 . S
C1115 C1111 1.400 . S
C1115 C1114 1.385 . S
C1116 C1114 1.478 . S
C1116 C1118 1.381 . S
C1116 C1122 1.383 . S
C1117 C1113 1.495 . S
C1117 H1123 0.959 . S
C1117 H1124 0.961 . S
C1117 H1125 0.960 . S
C1118 C1116 1.381 . S
C1118 C1119 1.394 . S
C1118 H1126 0.930 . S
C1119 C1118 1.394 . S
C1119 C1120 1.383 . S
C1119 H1127 0.929 . S
C1120 C1119 1.383 . S
C1120 C1121 1.377 . S
C1121 H1105 0.930 . S
C1121 C1120 1.377 . S
C1121 C1122 1.379 . S
C1122 H1106 0.931 . S
C1122 C1116 1.383 . S
C1122 C1121 1.379 . S
H1123 C1117 0.959 . S
H1124 C1117 0.961 . S
H1125 C1117 0.960 . S
H1126 C1118 0.930 . S
H1127 C1119 0.929 . S
H1128 C1136 0.929 . S
H1129 C1138 0.930 . S
H1130 C1140 0.930 . S
H1131 C1143 0.929 . S
H1132 C1146 0.930 . S
H1133 C1148 0.960 . S
H1134 C1148 0.960 . S
H1135 C1148 0.960 . S
C1136 H1128 0.929 . S
C1136 C1137 1.377 . S
C1136 C1138 1.384 . S
C1137 C1136 1.377 . S
C1137 C1143 1.390 . S
C1138 H1129 0.930 . S
C1138 C1136 1.384 . S
C1138 C1139 1.372 . S
C1139 C1138 1.372 . S
C1139 C1140 1.400 . S
C1139 C1144 1.490 . S
C1140 H1130 0.930 . S
C1140 C1139 1.400 . S
C1140 C1143 1.386 . S
H1141 C1157 0.930 . S
H1142 C1158 0.931 . S
C1143 H1131 0.929 . S
C1143 C1137 1.390 . S
C1143 C1140 1.386 . S
C1144 C1139 1.490 . S
C1144 C1146 1.395 . S
C1144 C1147 1.403 . S
H1145 C1151 0.930 . S
C1146 H1132 0.930 . S
C1146 C1144 1.395 . S
C1146 C1149 1.403 . S
C1147 C1144 1.403 . S
C1147 C1148 1.524 . S
C1147 C1151 1.400 . S
C1148 H1133 0.960 . S
C1148 H1134 0.960 . S
C1148 H1135 0.960 . S
C1148 C1147 1.524 . S
C1149 C1146 1.403 . S
C1149 C1150 1.392 . S
C1149 C1153 1.495 . S
C1150 C1149 1.392 . S
C1150 C1151 1.385 . S
C1150 C1152 1.478 . S
C1151 H1145 0.930 . S
C1151 C1147 1.400 . S
C1151 C1150 1.385 . S
C1152 C1150 1.478 . S
C1152 C1154 1.381 . S
C1152 C1158 1.383 . S
C1153 C1149 1.495 . S
C1153 H1159 0.959 . S
C1153 H1160 0.961 . S
C1153 H1161 0.960 . S
C1154 C1152 1.381 . S
C1154 C1155 1.394 . S
C1154 H1162 0.930 . S
C1155 C1154 1.394 . S
C1155 C1156 1.383 . S
C1155 H1163 0.929 . S
C1156 C1155 1.383 . S
C1156 C1157 1.377 . S
C1157 H1141 0.930 . S
C1157 C1156 1.377 . S
C1157 C1158 1.379 . S
C1158 H1142 0.931 . S
C1158 C1152 1.383 . S
C1158 C1157 1.379 . S
H1159 C1153 0.959 . S
H1160 C1153 0.961 . S
H1161 C1153 0.960 . S
H1162 C1154 0.930 . S
H1163 C1155 0.929 . S
H1164 C1172 0.929 . S
H1165 C1174 0.930 . S
H1166 C1176 0.930 . S
H1167 C1179 0.929 . S
H1168 C1182 0.930 . S
H1169 C1184 0.960 . S
H1170 C1184 0.960 . S
H1171 C1184 0.960 . S
C1172 H1164 0.929 . S
C1172 C1173 1.377 . S
C1172 C1174 1.384 . S
C1173 C1172 1.377 . S
C1173 C1179 1.390 . S
C1174 H1165 0.930 . S
C1174 C1172 1.384 . S
C1174 C1175 1.372 . S
C1175 C1174 1.372 . S
C1175 C1176 1.400 . S
C1175 C1180 1.490 . S
C1176 H1166 0.930 . S
C1176 C1175 1.400 . S
C1176 C1179 1.386 . S
H1177 C1193 0.930 . S
H1178 C1194 0.931 . S
C1179 H1167 0.929 . S
C1179 C1173 1.390 . S
C1179 C1176 1.386 . S
C1180 C1175 1.490 . S
C1180 C1182 1.395 . S
C1180 C1183 1.403 . S
H1181 C1187 0.930 . S
C1182 H1168 0.930 . S
C1182 C1180 1.395 . S
C1182 C1185 1.403 1_554 S
C1183 C1180 1.403 . S
C1183 C1184 1.524 . S
C1183 C1187 1.400 1_554 S
C1184 H1169 0.960 . S
C1184 H1170 0.960 . S
C1184 H1171 0.960 . S
C1184 C1183 1.524 . S
C1185 C1182 1.403 1_556 S
C1185 C1186 1.392 . S
C1185 C1189 1.495 . S
C1186 C1185 1.392 . S
C1186 C1187 1.385 . S
C1186 C1188 1.478 . S
C1187 H1181 0.930 . S
C1187 C1183 1.400 1_556 S
C1187 C1186 1.385 . S
C1188 C1186 1.478 . S
C1188 C1190 1.381 . S
C1188 C1194 1.383 . S
C1189 C1185 1.495 . S
C1189 H1195 0.959 . S
C1189 H1196 0.961 . S
C1189 H1197 0.960 . S
C1190 C1188 1.381 . S
C1190 C1191 1.394 . S
C1190 H1198 0.930 . S
C1191 C1190 1.394 . S
C1191 C1192 1.383 . S
C1191 H1199 0.929 . S
C1192 C1191 1.383 . S
C1192 C1193 1.377 . S
C1193 H1177 0.930 . S
C1193 C1192 1.377 . S
C1193 C1194 1.379 . S
C1194 H1178 0.931 . S
C1194 C1188 1.383 . S
C1194 C1193 1.379 . S
H1195 C1189 0.959 . S
H1196 C1189 0.961 . S
H1197 C1189 0.960 . S
H1198 C1190 0.930 . S
H1199 C1191 0.929 . S
H1200 C1208 0.929 . S
H1201 C1210 0.930 . S
H1202 C1212 0.930 . S
H1203 C1215 0.929 . S
H1204 C1218 0.930 . S
H1205 C1220 0.960 . S
H1206 C1220 0.960 . S
H1207 C1220 0.960 . S
C1208 H1200 0.929 . S
C1208 C1209 1.377 . S
C1208 C1210 1.384 . S
C1209 C1208 1.377 . S
C1209 C1215 1.390 . S
C1210 H1201 0.930 . S
C1210 C1208 1.384 . S
C1210 C1211 1.372 . S
C1211 C1210 1.372 . S
C1211 C1212 1.400 . S
C1211 C1216 1.490 . S
C1212 H1202 0.930 . S
C1212 C1211 1.400 . S
C1212 C1215 1.386 . S
H1213 C1229 0.930 . S
H1214 C1230 0.931 . S
C1215 H1203 0.929 . S
C1215 C1209 1.390 . S
C1215 C1212 1.386 . S
C1216 C1211 1.490 . S
C1216 C1218 1.395 . S
C1216 C1219 1.403 . S
H1217 C1223 0.930 . S
C1218 H1204 0.930 . S
C1218 C1216 1.395 . S
C1218 C1221 1.403 . S
C1219 C1216 1.403 . S
C1219 C1220 1.524 . S
C1219 C1223 1.400 . S
C1220 H1205 0.960 . S
C1220 H1206 0.960 . S
C1220 H1207 0.960 . S
C1220 C1219 1.524 . S
C1221 C1218 1.403 . S
C1221 C1222 1.392 . S
C1221 C1225 1.495 . S
C1222 C1221 1.392 . S
C1222 C1223 1.385 . S
C1222 C1224 1.478 . S
C1223 H1217 0.930 . S
C1223 C1219 1.400 . S
C1223 C1222 1.385 . S
C1224 C1222 1.478 . S
C1224 C1226 1.381 . S
C1224 C1230 1.383 . S
C1225 C1221 1.495 . S
C1225 H1231 0.959 . S
C1225 H1232 0.961 . S
C1225 H1233 0.960 . S
C1226 C1224 1.381 . S
C1226 C1227 1.394 . S
C1226 H1234 0.930 . S
C1227 C1226 1.394 . S
C1227 C1228 1.383 . S
C1227 H1235 0.929 . S
C1228 C1227 1.383 . S
C1228 C1229 1.377 . S
C1229 H1213 0.930 . S
C1229 C1228 1.377 . S
C1229 C1230 1.379 . S
C1230 H1214 0.931 . S
C1230 C1224 1.383 . S
C1230 C1229 1.379 . S
H1231 C1225 0.959 . S
H1232 C1225 0.961 . S
H1233 C1225 0.960 . S
H1234 C1226 0.930 . S
H1235 C1227 0.929 . S
H1236 C1244 0.929 . S
H1237 C1246 0.930 . S
H1238 C1248 0.930 . S
H1239 C1251 0.929 . S
H1240 C1254 0.930 . S
H1241 C1256 0.960 . S
H1242 C1256 0.960 . S
H1243 C1256 0.960 . S
C1244 H1236 0.929 . S
C1244 C1245 1.377 . S
C1244 C1246 1.384 . S
C1245 C1244 1.377 . S
C1245 C1251 1.390 . S
C1246 H1237 0.930 . S
C1246 C1244 1.384 . S
C1246 C1247 1.372 . S
C1247 C1246 1.372 . S
C1247 C1248 1.400 . S
C1247 C1252 1.490 . S
C1248 H1238 0.930 . S
C1248 C1247 1.400 . S
C1248 C1251 1.386 . S
H1249 C1265 0.930 . S
H1250 C1266 0.931 . S
C1251 H1239 0.929 . S
C1251 C1245 1.390 . S
C1251 C1248 1.386 . S
C1252 C1247 1.490 . S
C1252 C1254 1.395 . S
C1252 C1255 1.403 . S
H1253 C1259 0.930 . S
C1254 H1240 0.930 . S
C1254 C1252 1.395 . S
C1254 C1257 1.403 . S
C1255 C1252 1.403 . S
C1255 C1256 1.524 . S
C1255 C1259 1.400 . S
C1256 H1241 0.960 . S
C1256 H1242 0.960 . S
C1256 H1243 0.960 . S
C1256 C1255 1.524 . S
C1257 C1254 1.403 . S
C1257 C1258 1.392 . S
C1257 C1261 1.495 . S
C1258 C1257 1.392 . S
C1258 C1259 1.385 . S
C1258 C1260 1.478 . S
C1259 H1253 0.930 . S
C1259 C1255 1.400 . S
C1259 C1258 1.385 . S
C1260 C1258 1.478 . S
C1260 C1262 1.381 . S
C1260 C1266 1.383 . S
C1261 C1257 1.495 . S
C1261 H1267 0.959 . S
C1261 H1268 0.961 . S
C1261 H1269 0.960 . S
C1262 C1260 1.381 . S
C1262 C1263 1.394 . S
C1262 H1270 0.930 . S
C1263 C1262 1.394 . S
C1263 C1264 1.383 . S
C1263 H1271 0.929 . S
C1264 C1263 1.383 . S
C1264 C1265 1.377 . S
C1265 H1249 0.930 . S
C1265 C1264 1.377 . S
C1265 C1266 1.379 . S
C1266 H1250 0.931 . S
C1266 C1260 1.383 . S
C1266 C1265 1.379 . S
H1267 C1261 0.959 . S
H1268 C1261 0.961 . S
H1269 C1261 0.960 . S
H1270 C1262 0.930 . S
H1271 C1263 0.929 . S
H1272 C1280 0.929 . S
H1273 C1282 0.930 . S
H1274 C1284 0.930 1_565 S
H1275 C1287 0.942 . S
H1276 C1290 0.930 . S
H1277 C1292 0.960 . S
H1278 C1292 0.960 1_545 S
H1279 C1292 0.960 . S
C1280 H1272 0.929 . S
C1280 C1281 1.377 . S
C1280 C1282 1.384 . S
C1281 C1280 1.377 . S
C1281 C1287 1.390 . S
C1282 H1273 0.930 . S
C1282 C1280 1.384 . S
C1282 C1283 1.372 . S
C1283 C1282 1.372 . S
C1283 C1284 1.400 . S
C1283 C1288 1.490 . S
C1284 H1274 0.930 1_545 S
C1284 C1283 1.400 . S
C1284 C1287 1.386 . S
H1285 C1301 0.930 . S
H1286 C1302 0.931 . S
C1287 H1275 0.942 . S
C1287 C1281 1.390 . S
C1287 C1284 1.386 . S
C1288 C1283 1.490 . S
C1288 C1290 1.395 . S
C1288 C1291 1.403 1_545 S
H1289 C1295 0.930 . S
C1290 H1276 0.930 . S
C1290 C1288 1.395 . S
C1290 C1293 1.403 1_554 S
C1291 C1288 1.403 1_565 S
C1291 C1292 1.524 . S
C1291 C1295 1.400 1_554 S
C1292 H1277 0.960 . S
C1292 H1278 0.960 1_565 S
C1292 H1279 0.960 . S
C1292 C1291 1.524 . S
C1293 C1290 1.403 1_556 S
C1293 C1294 1.392 1_545 S
C1293 C1297 1.495 . S
C1294 C1293 1.392 1_565 S
C1294 C1295 1.385 . S
C1294 C1296 1.478 . S
C1295 H1289 0.930 . S
C1295 C1291 1.400 1_556 S
C1295 C1294 1.385 . S
C1296 C1294 1.478 . S
C1296 C1298 1.421 . S
C1296 C1302 1.383 . S
C1297 C1293 1.495 . S
C1297 H1303 0.959 . S
C1297 H1304 0.961 1_545 S
C1297 H1305 0.960 . S
C1298 C1296 1.421 . S
C1298 C1299 1.416 . S
C1298 H1306 0.871 1_565 S
C1299 C1298 1.416 . S
C1299 C1300 1.383 . S
C1299 H1307 0.936 . S
C1300 C1299 1.383 . S
C1300 C1301 1.377 . S
C1301 H1285 0.930 . S
C1301 C1300 1.377 . S
C1301 C1302 1.379 . S
C1302 H1286 0.931 . S
C1302 C1296 1.383 . S
C1302 C1301 1.379 . S
H1303 C1297 0.959 . S
H1304 C1297 0.961 1_565 S
H1305 C1297 0.960 . S
H1306 C1298 0.871 1_545 S
H1307 C1299 0.936 . S
H1308 C1316 0.929 . S
H1309 C1318 0.930 . S
H1310 C1320 0.930 . S
H1311 C1323 0.929 . S
H1312 C1326 0.930 . S
H1313 C1328 0.960 . S
H1314 C1328 0.960 . S
H1315 C1328 0.960 . S
C1316 H1308 0.929 . S
C1316 C1317 1.377 . S
C1316 C1318 1.384 . S
C1317 C1316 1.377 . S
C1317 C1323 1.390 . S
C1318 H1309 0.930 . S
C1318 C1316 1.384 . S
C1318 C1319 1.372 . S
C1319 C1318 1.372 . S
C1319 C1320 1.400 . S
C1319 C1324 1.490 . S
C1320 H1310 0.930 . S
C1320 C1319 1.400 . S
C1320 C1323 1.386 . S
H1321 C1337 0.930 . S
H1322 C1338 0.931 . S
C1323 H1311 0.929 . S
C1323 C1317 1.390 . S
C1323 C1320 1.386 . S
C1324 C1319 1.490 . S
C1324 C1326 1.395 . S
C1324 C1327 1.403 . S
H1325 C1331 0.930 . S
C1326 H1312 0.930 . S
C1326 C1324 1.395 . S
C1326 C1329 1.403 . S
C1327 C1324 1.403 . S
C1327 C1328 1.524 . S
C1327 C1331 1.400 . S
C1328 H1313 0.960 . S
C1328 H1314 0.960 . S
C1328 H1315 0.960 . S
C1328 C1327 1.524 . S
C1329 C1326 1.403 . S
C1329 C1330 1.392 . S
C1329 C1333 1.495 . S
C1330 C1329 1.392 . S
C1330 C1331 1.385 . S
C1330 C1332 1.478 . S
C1331 H1325 0.930 . S
C1331 C1327 1.400 . S
C1331 C1330 1.385 . S
C1332 C1330 1.478 . S
C1332 C1334 1.381 . S
C1332 C1338 1.383 . S
C1333 C1329 1.495 . S
C1333 H1339 0.959 . S
C1333 H1340 0.961 . S
C1333 H1341 0.960 . S
C1334 C1332 1.381 . S
C1334 C1335 1.394 . S
C1334 H1342 0.930 . S
C1335 C1334 1.394 . S
C1335 C1336 1.383 . S
C1335 H1343 0.929 . S
C1336 C1335 1.383 . S
C1336 C1337 1.377 . S
C1337 H1321 0.930 . S
C1337 C1336 1.377 . S
C1337 C1338 1.379 . S
C1338 H1322 0.931 . S
C1338 C1332 1.383 . S
C1338 C1337 1.379 . S
H1339 C1333 0.959 . S
H1340 C1333 0.961 . S
H1341 C1333 0.960 . S
H1342 C1334 0.930 . S
H1343 C1335 0.929 . S
H1344 C1352 0.929 . S
H1345 C1354 0.930 1_655 S
H1346 C1356 0.930 . S
H1347 C1359 0.929 . S
H1348 C1362 0.930 . S
H1349 C1364 0.960 . S
H1350 C1364 0.960 . S
H1351 C1364 0.960 1_455 S
C1352 H1344 0.929 . S
C1352 C1353 1.377 . S
C1352 C1354 1.384 . S
C1353 C1352 1.377 . S
C1353 C1359 1.390 . S
C1354 H1345 0.930 1_455 S
C1354 C1352 1.384 . S
C1354 C1355 1.372 . S
C1355 C1354 1.372 . S
C1355 C1356 1.400 . S
C1355 C1360 1.490 . S
C1356 H1346 0.930 . S
C1356 C1355 1.400 . S
C1356 C1359 1.386 . S
H1357 C1373 0.930 . S
H1358 C1374 0.931 1_455 S
C1359 H1347 0.929 . S
C1359 C1353 1.390 . S
C1359 C1356 1.386 . S
C1360 C1355 1.490 . S
C1360 C1362 1.395 . S
C1360 C1363 1.369 1_455 S
H1361 C1367 0.930 . S
C1362 H1348 0.930 . S
C1362 C1360 1.395 . S
C1362 C1365 1.397 1_455 S
C1363 C1360 1.369 1_655 S
C1363 C1364 1.548 . S
C1363 C1367 1.411 . S
C1364 H1349 0.960 . S
C1364 H1350 0.960 . S
C1364 H1351 0.960 1_655 S
C1364 C1363 1.548 . S
C1365 C1362 1.397 1_655 S
C1365 C1366 1.412 . S
C1365 C1369 1.483 1_655 S
C1366 C1365 1.412 . S
C1366 C1367 1.385 . S
C1366 C1368 1.478 . S
C1367 H1361 0.930 . S
C1367 C1363 1.411 . S
C1367 C1366 1.385 . S
C1368 C1366 1.478 . S
C1368 C1370 1.381 . S
C1368 C1374 1.383 . S
C1369 C1365 1.483 1_455 S
C1369 H1375 0.959 . S
C1369 H1376 0.961 . S
C1369 H1377 0.960 1_455 S
C1370 C1368 1.381 . S
C1370 C1371 1.394 . S
C1370 H1378 0.930 . S
C1371 C1370 1.394 . S
C1371 C1372 1.383 . S
C1371 H1379 0.929 . S
C1372 C1371 1.383 . S
C1372 C1373 1.377 . S
C1373 H1357 0.930 . S
C1373 C1372 1.377 . S
C1373 C1374 1.379 . S
C1374 H1358 0.931 1_655 S
C1374 C1368 1.383 . S
C1374 C1373 1.379 . S
H1375 C1369 0.959 . S
H1376 C1369 0.961 . S
H1377 C1369 0.960 1_655 S
H1378 C1370 0.930 . S
H1379 C1371 0.929 . S
H1380 C1388 0.929 . S
H1381 C1390 0.930 . S
H1382 C1392 0.930 . S
H1383 C1395 0.929 . S
H1384 C1398 0.930 . S
H1385 C1400 0.960 . S
H1386 C1400 0.960 . S
H1387 C1400 0.960 . S
C1388 H1380 0.929 . S
C1388 C1389 1.377 . S
C1388 C1390 1.384 . S
C1389 C1388 1.377 . S
C1389 C1395 1.390 . S
C1390 H1381 0.930 . S
C1390 C1388 1.384 . S
C1390 C1391 1.372 . S
C1391 C1390 1.372 . S
C1391 C1392 1.400 . S
C1391 C1396 1.490 . S
C1392 H1382 0.930 . S
C1392 C1391 1.400 . S
C1392 C1395 1.386 . S
H1393 C1409 0.930 . S
H1394 C1410 0.931 . S
C1395 H1383 0.929 . S
C1395 C1389 1.390 . S
C1395 C1392 1.386 . S
C1396 C1391 1.490 . S
C1396 C1398 1.395 . S
C1396 C1399 1.403 1_565 S
H1397 C1403 0.930 . S
C1398 H1384 0.930 . S
C1398 C1396 1.395 . S
C1398 C1401 1.403 1_554 S
C1399 C1396 1.403 1_545 S
C1399 C1400 1.524 . S
C1399 C1403 1.400 1_554 S
C1400 H1385 0.960 . S
C1400 H1386 0.960 . S
C1400 H1387 0.960 . S
C1400 C1399 1.524 . S
C1401 C1398 1.403 1_556 S
C1401 C1402 1.392 1_565 S
C1401 C1405 1.495 . S
C1402 C1401 1.392 1_545 S
C1402 C1403 1.385 . S
C1402 C1404 1.478 . S
C1403 H1397 0.930 . S
C1403 C1399 1.400 1_556 S
C1403 C1402 1.385 . S
C1404 C1402 1.478 . S
C1404 C1406 1.381 . S
C1404 C1410 1.383 . S
C1405 C1401 1.495 . S
C1405 H1411 0.959 . S
C1405 H1412 0.961 . S
C1405 H1413 0.960 . S
C1406 C1404 1.381 . S
C1406 C1407 1.394 . S
C1406 H1414 0.992 . S
C1407 C1406 1.394 . S
C1407 C1408 1.383 . S
C1407 H1415 0.929 . S
C1408 C1407 1.383 . S
C1408 C1409 1.377 . S
C1409 H1393 0.930 . S
C1409 C1408 1.377 . S
C1409 C1410 1.379 . S
C1410 H1394 0.931 . S
C1410 C1404 1.383 . S
C1410 C1409 1.379 . S
H1411 C1405 0.959 . S
H1412 C1405 0.961 . S
H1413 C1405 0.960 . S
H1414 C1406 0.992 . S
H1415 C1407 0.929 . S
H1416 C1424 0.929 . S
H1417 C1426 0.930 . S
H1418 C1428 0.930 . S
H1419 C1431 0.929 . S
H1420 C1434 0.930 . S
H1421 C1436 0.960 . S
H1422 C1436 0.960 . S
H1423 C1436 0.960 . S
C1424 H1416 0.929 . S
C1424 C1425 1.377 . S
C1424 C1426 1.384 . S
C1425 C1424 1.377 . S
C1425 C1431 1.390 . S
C1426 H1417 0.930 . S
C1426 C1424 1.384 . S
C1426 C1427 1.372 . S
C1427 C1426 1.372 . S
C1427 C1428 1.400 . S
C1427 C1432 1.490 . S
C1428 H1418 0.930 . S
C1428 C1427 1.400 . S
C1428 C1431 1.386 . S
H1429 C1445 0.930 . S
H1430 C1446 0.931 . S
C1431 H1419 0.929 . S
C1431 C1425 1.390 . S
C1431 C1428 1.386 . S
C1432 C1427 1.490 . S
C1432 C1434 1.395 . S
C1432 C1435 1.403 . S
H1433 C1439 0.930 . S
C1434 H1420 0.930 . S
C1434 C1432 1.395 . S
C1434 C1437 1.403 . S
C1435 C1432 1.403 . S
C1435 C1436 1.524 . S
C1435 C1439 1.400 . S
C1436 H1421 0.960 . S
C1436 H1422 0.960 . S
C1436 H1423 0.960 . S
C1436 C1435 1.524 . S
C1437 C1434 1.403 . S
C1437 C1438 1.392 . S
C1437 C1441 1.495 . S
C1438 C1437 1.392 . S
C1438 C1439 1.385 . S
C1438 C1440 1.478 . S
C1439 H1433 0.930 . S
C1439 C1435 1.400 . S
C1439 C1438 1.385 . S
C1440 C1438 1.478 . S
C1440 C1442 1.381 . S
C1440 C1446 1.383 . S
C1441 C1437 1.495 . S
C1441 H1447 0.959 . S
C1441 H1448 0.961 . S
C1441 H1449 0.960 . S
C1442 C1440 1.381 . S
C1442 C1443 1.394 . S
C1442 H1450 0.930 . S
C1443 C1442 1.394 . S
C1443 C1444 1.383 . S
C1443 H1451 0.929 . S
C1444 C1443 1.383 . S
C1444 C1445 1.377 . S
C1445 H1429 0.930 . S
C1445 C1444 1.377 . S
C1445 C1446 1.379 . S
C1446 H1430 0.931 . S
C1446 C1440 1.383 . S
C1446 C1445 1.379 . S
H1447 C1441 0.959 . S
H1448 C1441 0.961 . S
H1449 C1441 0.960 . S
H1450 C1442 0.930 . S
H1451 C1443 0.929 . S
H1452 C1460 0.929 . S
H1453 C1462 0.930 . S
H1454 C1464 0.930 . S
H1455 C1467 0.929 . S
H1456 C1470 0.930 . S
H1457 C1472 0.960 . S
H1458 C1472 0.960 . S
H1459 C1472 0.960 . S
C1460 H1452 0.929 . S
C1460 C1461 1.377 . S
C1460 C1462 1.384 . S
C1461 C1460 1.377 . S
C1461 C1467 1.390 . S
C1462 H1453 0.930 . S
C1462 C1460 1.384 . S
C1462 C1463 1.372 . S
C1463 C1462 1.372 . S
C1463 C1464 1.400 . S
C1463 C1468 1.490 . S
C1464 H1454 0.930 . S
C1464 C1463 1.400 . S
C1464 C1467 1.386 . S
H1465 C1481 0.930 . S
H1466 C1482 0.931 1_455 S
C1467 H1455 0.929 . S
C1467 C1461 1.390 . S
C1467 C1464 1.386 . S
C1468 C1463 1.490 . S
C1468 C1470 1.395 . S
C1468 C1471 1.403 1_455 S
H1469 C1475 0.930 . S
C1470 H1456 0.930 . S
C1470 C1468 1.395 . S
C1470 C1473 1.403 . S
C1471 C1468 1.403 1_655 S
C1471 C1472 1.524 . S
C1471 C1475 1.400 . S
C1472 H1457 0.960 . S
C1472 H1458 0.960 . S
C1472 H1459 0.960 . S
C1472 C1471 1.524 . S
C1473 C1470 1.403 . S
C1473 C1474 1.392 1_455 S
C1473 C1477 1.495 . S
C1474 C1473 1.392 1_655 S
C1474 C1475 1.385 . S
C1474 C1476 1.478 . S
C1475 H1469 0.930 . S
C1475 C1471 1.400 . S
C1475 C1474 1.385 . S
C1476 C1474 1.478 . S
C1476 C1478 1.381 . S
C1476 C1482 1.383 . S
C1477 C1473 1.495 . S
C1477 H1483 0.959 . S
C1477 H1484 0.961 . S
C1477 H1485 0.960 . S
C1478 C1476 1.381 . S
C1478 C1479 1.394 . S
C1478 H1486 0.930 . S
C1479 C1478 1.394 . S
C1479 C1480 1.383 . S
C1479 H1487 0.929 . S
C1480 C1479 1.383 . S
C1480 C1481 1.377 . S
C1481 H1465 0.930 . S
C1481 C1480 1.377 . S
C1481 C1482 1.379 . S
C1482 H1466 0.931 1_655 S
C1482 C1476 1.383 . S
C1482 C1481 1.379 . S
H1483 C1477 0.959 . S
H1484 C1477 0.961 . S
H1485 C1477 0.960 . S
H1486 C1478 0.930 . S
H1487 C1479 0.929 . S
H1488 C1496 0.929 . S
H1489 C1498 0.930 . S
H1490 C1500 0.930 . S
H1491 C1503 0.929 . S
H1492 C1506 0.930 . S
H1493 C1508 0.960 . S
H1494 C1508 0.960 . S
H1495 C1508 0.960 . S
C1496 H1488 0.929 . S
C1496 C1497 1.377 . S
C1496 C1498 1.384 . S
C1497 C1496 1.377 . S
C1497 C1503 1.390 . S
C1498 H1489 0.930 . S
C1498 C1496 1.384 . S
C1498 C1499 1.372 . S
C1499 C1498 1.372 . S
C1499 C1500 1.400 . S
C1499 C1504 1.490 . S
C1500 H1490 0.930 . S
C1500 C1499 1.400 . S
C1500 C1503 1.386 . S
H1501 C1517 0.930 . S
H1502 C1518 0.931 . S
C1503 H1491 0.929 . S
C1503 C1497 1.390 . S
C1503 C1500 1.386 . S
C1504 C1499 1.490 . S
C1504 C1506 1.395 . S
C1504 C1507 1.403 1_565 S
H1505 C1511 0.930 . S
C1506 H1492 0.930 . S
C1506 C1504 1.395 . S
C1506 C1509 1.403 . S
C1507 C1504 1.403 1_545 S
C1507 C1508 1.524 . S
C1507 C1511 1.400 . S
C1508 H1493 0.960 . S
C1508 H1494 0.960 . S
C1508 H1495 0.960 . S
C1508 C1507 1.524 . S
C1509 C1506 1.403 . S
C1509 C1510 1.392 1_565 S
C1509 C1513 1.495 . S
C1510 C1509 1.392 1_545 S
C1510 C1511 1.385 . S
C1510 C1512 1.478 . S
C1511 H1505 0.930 . S
C1511 C1507 1.400 . S
C1511 C1510 1.385 . S
C1512 C1510 1.478 . S
C1512 C1514 1.381 . S
C1512 C1518 1.383 . S
C1513 C1509 1.495 . S
C1513 H1519 0.959 . S
C1513 H1520 0.961 . S
C1513 H1521 0.960 . S
C1514 C1512 1.381 . S
C1514 C1515 1.394 . S
C1514 H1522 0.930 . S
C1515 C1514 1.394 . S
C1515 C1516 1.383 . S
C1515 H1523 0.929 . S
C1516 C1515 1.383 . S
C1516 C1517 1.377 . S
C1517 H1501 0.930 . S
C1517 C1516 1.377 . S
C1517 C1518 1.379 . S
C1518 H1502 0.931 . S
C1518 C1512 1.383 . S
C1518 C1517 1.379 . S
H1519 C1513 0.959 . S
H1520 C1513 0.961 . S
H1521 C1513 0.960 . S
H1522 C1514 0.930 . S
H1523 C1515 0.929 . S
H1524 C1532 0.929 . S
H1525 C1534 0.930 . S
H1526 C1536 0.930 . S
H1527 C1539 0.929 . S
H1528 C1542 0.930 . S
H1529 C1544 0.960 . S
H1530 C1544 0.960 . S
H1531 C1544 0.960 . S
C1532 H1524 0.929 . S
C1532 C1533 1.377 . S
C1532 C1534 1.384 . S
C1533 C1532 1.377 . S
C1533 C1539 1.390 . S
C1534 H1525 0.930 . S
C1534 C1532 1.384 . S
C1534 C1535 1.372 . S
C1535 C1534 1.372 . S
C1535 C1536 1.400 . S
C1535 C1540 1.490 . S
C1536 H1526 0.930 . S
C1536 C1535 1.400 . S
C1536 C1539 1.386 . S
H1537 C1553 0.930 . S
H1538 C1554 0.931 . S
C1539 H1527 0.929 . S
C1539 C1533 1.390 . S
C1539 C1536 1.386 . S
C1540 C1535 1.490 . S
C1540 C1542 1.395 . S
C1540 C1543 1.403 . S
H1541 C1547 0.930 . S
C1542 H1528 0.930 . S
C1542 C1540 1.395 . S
C1542 C1545 1.403 . S
C1543 C1540 1.403 . S
C1543 C1544 1.524 . S
C1543 C1547 1.400 . S
C1544 H1529 0.960 . S
C1544 H1530 0.960 . S
C1544 H1531 0.960 . S
C1544 C1543 1.524 . S
C1545 C1542 1.403 . S
C1545 C1546 1.392 . S
C1545 C1549 1.495 . S
C1546 C1545 1.392 . S
C1546 C1547 1.385 . S
C1546 C1548 1.478 . S
C1547 H1541 0.930 . S
C1547 C1543 1.400 . S
C1547 C1546 1.385 . S
C1548 C1546 1.478 . S
C1548 C1550 1.381 . S
C1548 C1554 1.383 . S
C1549 C1545 1.495 . S
C1549 H1555 0.959 . S
C1549 H1556 0.961 . S
C1549 H1557 0.960 . S
C1550 C1548 1.381 . S
C1550 C1551 1.394 . S
C1550 H1558 0.930 . S
C1551 C1550 1.394 . S
C1551 C1552 1.383 . S
C1551 H1559 0.929 . S
C1552 C1551 1.383 . S
C1552 C1553 1.377 . S
C1553 H1537 0.930 . S
C1553 C1552 1.377 . S
C1553 C1554 1.379 . S
C1554 H1538 0.931 . S
C1554 C1548 1.383 . S
C1554 C1553 1.379 . S
H1555 C1549 0.959 . S
H1556 C1549 0.961 . S
H1557 C1549 0.960 . S
H1558 C1550 0.930 . S
H1559 C1551 0.929 . S
H1560 C1568 0.929 . S
H1561 C1570 0.930 . S
H1562 C1572 0.930 . S
H1563 C1575 0.929 . S
H1564 C1578 0.930 . S
H1565 C1580 0.960 . S
H1566 C1580 0.960 . S
H1567 C1580 0.960 . S
C1568 H1560 0.929 . S
C1568 C1569 1.377 . S
C1568 C1570 1.384 . S
C1569 C1568 1.377 . S
C1569 C1575 1.390 . S
C1570 H1561 0.930 . S
C1570 C1568 1.384 . S
C1570 C1571 1.372 . S
C1571 C1570 1.372 . S
C1571 C1572 1.400 . S
C1571 C1576 1.490 . S
C1572 H1562 0.930 . S
C1572 C1571 1.400 . S
C1572 C1575 1.386 . S
H1573 C1589 0.930 . S
H1574 C1590 0.931 . S
C1575 H1563 0.929 . S
C1575 C1569 1.390 . S
C1575 C1572 1.386 . S
C1576 C1571 1.490 . S
C1576 C1578 1.395 . S
C1576 C1579 1.403 1_455 S
H1577 C1583 0.930 . S
C1578 H1564 0.930 . S
C1578 C1576 1.395 . S
C1578 C1581 1.403 . S
C1579 C1576 1.403 1_655 S
C1579 C1580 1.524 . S
C1579 C1583 1.400 . S
C1580 H1565 0.960 . S
C1580 H1566 0.960 . S
C1580 H1567 0.960 . S
C1580 C1579 1.524 . S
C1581 C1578 1.403 . S
C1581 C1582 1.392 1_455 S
C1581 C1585 1.495 . S
C1582 C1581 1.392 1_655 S
C1582 C1583 1.385 . S
C1582 C1584 1.478 . S
C1583 H1577 0.930 . S
C1583 C1579 1.400 . S
C1583 C1582 1.385 . S
C1584 C1582 1.478 . S
C1584 C1586 1.381 . S
C1584 C1590 1.383 . S
C1585 C1581 1.495 . S
C1585 H1591 0.959 . S
C1585 H1592 0.961 . S
C1585 H1593 0.960 . S
C1586 C1584 1.381 . S
C1586 C1587 1.394 . S
C1586 H1594 0.930 . S
C1587 C1586 1.394 . S
C1587 C1588 1.383 . S
C1587 H1595 0.929 . S
C1588 C1587 1.383 . S
C1588 C1589 1.377 . S
C1589 H1573 0.930 . S
C1589 C1588 1.377 . S
C1589 C1590 1.379 . S
C1590 H1574 0.931 . S
C1590 C1584 1.383 . S
C1590 C1589 1.379 . S
H1591 C1585 0.959 . S
H1592 C1585 0.961 . S
H1593 C1585 0.960 . S
H1594 C1586 0.930 . S
H1595 C1587 0.929 . S
H1596 C1604 0.929 . S
H1597 C1606 0.930 . S
H1598 C1608 0.930 . S
H1599 C1611 0.929 . S
H1600 C1614 0.930 . S
H1601 C1616 0.960 . S
H1602 C1616 0.960 . S
H1603 C1616 0.960 . S
C1604 H1596 0.929 . S
C1604 C1605 1.377 . S
C1604 C1606 1.384 . S
C1605 C1604 1.377 . S
C1605 C1611 1.390 . S
C1606 H1597 0.930 . S
C1606 C1604 1.384 . S
C1606 C1607 1.372 . S
C1607 C1606 1.372 . S
C1607 C1608 1.400 . S
C1607 C1612 1.490 . S
C1608 H1598 0.930 . S
C1608 C1607 1.400 . S
C1608 C1611 1.386 . S
H1609 C1625 0.930 . S
H1610 C1626 0.931 . S
C1611 H1599 0.929 . S
C1611 C1605 1.390 . S
C1611 C1608 1.386 . S
C1612 C1607 1.490 . S
C1612 C1614 1.395 . S
C1612 C1615 1.403 . S
H1613 C1619 0.930 . S
C1614 H1600 0.930 . S
C1614 C1612 1.395 . S
C1614 C1617 1.403 1_655 S
C1615 C1612 1.403 . S
C1615 C1616 1.524 . S
C1615 C1619 1.400 1_655 S
C1616 H1601 0.960 . S
C1616 H1602 0.960 . S
C1616 H1603 0.960 . S
C1616 C1615 1.524 . S
C1617 C1614 1.403 1_455 S
C1617 C1618 1.392 . S
C1617 C1621 1.495 . S
C1618 C1617 1.392 . S
C1618 C1619 1.385 . S
C1618 C1620 1.478 . S
C1619 H1613 0.930 . S
C1619 C1615 1.400 1_455 S
C1619 C1618 1.385 . S
C1620 C1618 1.478 . S
C1620 C1622 1.381 . S
C1620 C1626 1.383 . S
C1621 C1617 1.495 . S
C1621 H1627 0.959 . S
C1621 H1628 0.961 . S
C1621 H1629 0.960 . S
C1622 C1620 1.381 . S
C1622 C1623 1.394 . S
C1622 H1630 0.930 . S
C1623 C1622 1.394 . S
C1623 C1624 1.383 . S
C1623 H1631 0.929 . S
C1624 C1623 1.383 . S
C1624 C1625 1.377 . S
C1625 H1609 0.930 . S
C1625 C1624 1.377 . S
C1625 C1626 1.379 . S
C1626 H1610 0.931 . S
C1626 C1620 1.383 . S
C1626 C1625 1.379 . S
H1627 C1621 0.959 . S
H1628 C1621 0.961 . S
H1629 C1621 0.960 . S
H1630 C1622 0.930 . S
H1631 C1623 0.929 . S
H1632 C1640 0.929 . S
H1633 C1642 0.930 . S
H1634 C1644 0.930 . S
H1635 C1647 0.929 . S
H1636 C1650 0.930 . S
H1637 C1652 0.960 . S
H1638 C1652 0.960 . S
H1639 C1652 0.960 . S
C1640 H1632 0.929 . S
C1640 C1641 1.377 . S
C1640 C1642 1.384 . S
C1641 C1640 1.377 . S
C1641 C1647 1.390 . S
C1642 H1633 0.930 . S
C1642 C1640 1.384 . S
C1642 C1643 1.372 . S
C1643 C1642 1.372 . S
C1643 C1644 1.400 . S
C1643 C1648 1.490 . S
C1644 H1634 0.930 . S
C1644 C1643 1.400 . S
C1644 C1647 1.386 . S
H1645 C1661 0.930 . S
H1646 C1662 0.931 . S
C1647 H1635 0.929 . S
C1647 C1641 1.390 . S
C1647 C1644 1.386 . S
C1648 C1643 1.490 . S
C1648 C1650 1.395 . S
C1648 C1651 1.403 1_565 S
H1649 C1655 0.930 . S
C1650 H1636 0.930 . S
C1650 C1648 1.395 . S
C1650 C1653 1.403 . S
C1651 C1648 1.403 1_545 S
C1651 C1652 1.524 . S
C1651 C1655 1.400 . S
C1652 H1637 0.960 . S
C1652 H1638 0.960 . S
C1652 H1639 0.960 . S
C1652 C1651 1.524 . S
C1653 C1650 1.403 . S
C1653 C1654 1.392 1_565 S
C1653 C1657 1.495 . S
C1654 C1653 1.392 1_545 S
C1654 C1655 1.385 . S
C1654 C1656 1.478 . S
C1655 H1649 0.930 . S
C1655 C1651 1.400 . S
C1655 C1654 1.385 . S
C1656 C1654 1.478 . S
C1656 C1658 1.381 . S
C1656 C1662 1.383 . S
C1657 C1653 1.495 . S
C1657 H1663 0.959 . S
C1657 H1664 0.961 . S
C1657 H1665 0.960 . S
C1658 C1656 1.381 . S
C1658 C1659 1.394 . S
C1658 H1666 0.930 . S
C1659 C1658 1.394 . S
C1659 C1660 1.383 . S
C1659 H1667 0.929 . S
C1660 C1659 1.383 . S
C1660 C1661 1.377 . S
C1661 H1645 0.930 . S
C1661 C1660 1.377 . S
C1661 C1662 1.379 . S
C1662 H1646 0.931 . S
C1662 C1656 1.383 . S
C1662 C1661 1.379 . S
H1663 C1657 0.959 . S
H1664 C1657 0.961 . S
H1665 C1657 0.960 . S
H1666 C1658 0.930 . S
H1667 C1659 0.929 . S
H1668 C1676 0.929 . S
H1669 C1678 0.930 . S
H1670 C1680 0.930 . S
H1671 C1683 0.929 . S
H1672 C1686 0.930 . S
H1673 C1688 0.960 . S
H1674 C1688 0.960 . S
H1675 C1688 0.960 . S
C1676 H1668 0.929 . S
C1676 C1677 1.377 . S
C1676 C1678 1.384 . S
C1677 C1676 1.377 . S
C1677 C1683 1.390 . S
C1678 H1669 0.930 . S
C1678 C1676 1.384 . S
C1678 C1679 1.372 . S
C1679 C1678 1.372 . S
C1679 C1680 1.400 . S
C1679 C1684 1.490 . S
C1680 H1670 0.930 . S
C1680 C1679 1.400 . S
C1680 C1683 1.386 . S
H1681 C1697 0.930 . S
H1682 C1698 0.931 . S
C1683 H1671 0.929 . S
C1683 C1677 1.390 . S
C1683 C1680 1.386 . S
C1684 C1679 1.490 . S
C1684 C1686 1.395 . S
C1684 C1687 1.403 . S
H1685 C1691 0.930 . S
C1686 H1672 0.930 . S
C1686 C1684 1.395 . S
C1686 C1689 1.403 . S
C1687 C1684 1.403 . S
C1687 C1688 1.524 . S
C1687 C1691 1.400 . S
C1688 H1673 0.960 . S
C1688 H1674 0.960 . S
C1688 H1675 0.960 . S
C1688 C1687 1.524 . S
C1689 C1686 1.403 . S
C1689 C1690 1.392 . S
C1689 C1693 1.495 . S
C1690 C1689 1.392 . S
C1690 C1691 1.385 . S
C1690 C1692 1.478 . S
C1691 H1685 0.930 . S
C1691 C1687 1.400 . S
C1691 C1690 1.385 . S
C1692 C1690 1.478 . S
C1692 C1694 1.381 . S
C1692 C1698 1.383 . S
C1693 C1689 1.495 . S
C1693 H1699 0.959 . S
C1693 H1700 0.961 . S
C1693 H1701 0.960 . S
C1694 C1692 1.381 . S
C1694 C1695 1.394 . S
C1694 H1702 0.930 . S
C1695 C1694 1.394 . S
C1695 C1696 1.383 . S
C1695 H1703 0.929 . S
C1696 C1695 1.383 . S
C1696 C1697 1.377 . S
C1697 H1681 0.930 . S
C1697 C1696 1.377 . S
C1697 C1698 1.379 . S
C1698 H1682 0.931 . S
C1698 C1692 1.383 . S
C1698 C1697 1.379 . S
H1699 C1693 0.959 . S
H1700 C1693 0.961 . S
H1701 C1693 0.960 . S
H1702 C1694 0.930 . S
H1703 C1695 0.929 . S
H1704 C1712 0.929 . S
H1705 C1714 0.930 . S
H1706 C1716 0.930 . S
H1707 C1719 0.929 . S
H1708 C1722 0.930 . S
H1709 C1724 0.960 . S
H1710 C1724 0.960 . S
H1711 C1724 0.960 . S
C1712 H1704 0.929 . S
C1712 C1713 1.377 . S
C1712 C1714 1.384 . S
C1713 C1712 1.377 . S
C1713 C1719 1.390 . S
C1714 H1705 0.930 . S
C1714 C1712 1.384 . S
C1714 C1715 1.372 . S
C1715 C1714 1.372 . S
C1715 C1716 1.400 . S
C1715 C1720 1.490 . S
C1716 H1706 0.930 . S
C1716 C1715 1.400 . S
C1716 C1719 1.386 . S
H1717 C1733 0.930 . S
H1718 C1734 0.931 . S
C1719 H1707 0.929 . S
C1719 C1713 1.390 . S
C1719 C1716 1.386 . S
C1720 C1715 1.490 . S
C1720 C1722 1.395 . S
C1720 C1723 1.403 . S
H1721 C1727 0.930 . S
C1722 H1708 0.930 . S
C1722 C1720 1.395 . S
C1722 C1725 1.403 . S
C1723 C1720 1.403 . S
C1723 C1724 1.524 . S
C1723 C1727 1.400 . S
C1724 H1709 0.960 . S
C1724 H1710 0.960 . S
C1724 H1711 0.960 . S
C1724 C1723 1.524 . S
C1725 C1722 1.403 . S
C1725 C1726 1.392 . S
C1725 C1729 1.495 . S
C1726 C1725 1.392 . S
C1726 C1727 1.385 . S
C1726 C1728 1.478 . S
C1727 H1721 0.930 . S
C1727 C1723 1.400 . S
C1727 C1726 1.385 . S
C1728 C1726 1.478 . S
C1728 C1730 1.381 . S
C1728 C1734 1.383 . S
C1729 C1725 1.495 . S
C1729 H1735 0.959 . S
C1729 H1736 0.961 . S
C1729 H1737 0.960 . S
C1730 C1728 1.381 . S
C1730 C1731 1.394 . S
C1730 H1738 0.930 . S
C1731 C1730 1.394 . S
C1731 C1732 1.383 . S
C1731 H1739 0.929 . S
C1732 C1731 1.383 . S
C1732 C1733 1.377 . S
C1733 H1717 0.930 . S
C1733 C1732 1.377 . S
C1733 C1734 1.379 . S
C1734 H1718 0.931 . S
C1734 C1728 1.383 . S
C1734 C1733 1.379 . S
H1735 C1729 0.959 . S
H1736 C1729 0.961 . S
H1737 C1729 0.960 . S
H1738 C1730 0.930 . S
H1739 C1731 0.929 . S
H1740 C1748 0.929 . S
H1741 C1750 0.930 . S
H1742 C1752 0.930 . S
H1743 C1755 0.929 . S
H1744 C1758 0.930 . S
H1745 C1760 0.960 . S
H1746 C1760 0.960 . S
H1747 C1760 0.960 . S
C1748 H1740 0.929 . S
C1748 C1749 1.377 . S
C1748 C1750 1.384 . S
C1749 C1748 1.377 . S
C1749 C1755 1.390 . S
C1750 H1741 0.930 . S
C1750 C1748 1.384 . S
C1750 C1751 1.372 . S
C1751 C1750 1.372 . S
C1751 C1752 1.400 . S
C1751 C1756 1.490 . S
C1752 H1742 0.930 . S
C1752 C1751 1.400 . S
C1752 C1755 1.386 . S
H1753 C1769 0.930 . S
H1754 C1770 0.931 . S
C1755 H1743 0.929 . S
C1755 C1749 1.390 . S
C1755 C1752 1.386 . S
C1756 C1751 1.490 . S
C1756 C1758 1.395 . S
C1756 C1759 1.403 . S
H1757 C1763 0.930 . S
C1758 H1744 0.930 . S
C1758 C1756 1.395 . S
C1758 C1761 1.403 . S
C1759 C1756 1.403 . S
C1759 C1760 1.524 . S
C1759 C1763 1.400 . S
C1760 H1745 0.960 . S
C1760 H1746 0.960 . S
C1760 H1747 0.960 . S
C1760 C1759 1.524 . S
C1761 C1758 1.403 . S
C1761 C1762 1.392 . S
C1761 C1765 1.495 . S
C1762 C1761 1.392 . S
C1762 C1763 1.385 . S
C1762 C1764 1.478 . S
C1763 H1757 0.930 . S
C1763 C1759 1.400 . S
C1763 C1762 1.385 . S
C1764 C1762 1.478 . S
C1764 C1766 1.381 . S
C1764 C1770 1.383 . S
C1765 C1761 1.495 . S
C1765 H1771 0.959 . S
C1765 H1772 0.961 . S
C1765 H1773 0.960 . S
C1766 C1764 1.381 . S
C1766 C1767 1.394 . S
C1766 H1774 0.930 . S
C1767 C1766 1.394 . S
C1767 C1768 1.383 . S
C1767 H1775 0.929 . S
C1768 C1767 1.383 . S
C1768 C1769 1.377 . S
C1769 H1753 0.930 . S
C1769 C1768 1.377 . S
C1769 C1770 1.379 . S
C1770 H1754 0.931 . S
C1770 C1764 1.383 . S
C1770 C1769 1.379 . S
H1771 C1765 0.959 . S
H1772 C1765 0.961 . S
H1773 C1765 0.960 . S
H1774 C1766 0.930 . S
H1775 C1767 0.929 . S
H1776 C1784 0.929 . S
H1777 C1786 0.930 . S
H1778 C1788 0.930 . S
H1779 C1791 0.929 . S
H1780 C1794 0.930 . S
H1781 C1796 0.960 . S
H1782 C1796 0.960 . S
H1783 C1796 0.960 . S
C1784 H1776 0.929 . S
C1784 C1785 1.377 . S
C1784 C1786 1.384 . S
C1785 C1784 1.377 . S
C1785 C1791 1.390 . S
C1786 H1777 0.930 . S
C1786 C1784 1.384 . S
C1786 C1787 1.372 . S
C1787 C1786 1.372 . S
C1787 C1788 1.400 . S
C1787 C1792 1.490 . S
C1788 H1778 0.930 . S
C1788 C1787 1.400 . S
C1788 C1791 1.386 . S
H1789 C1805 0.930 . S
H1790 C1806 0.931 . S
C1791 H1779 0.929 . S
C1791 C1785 1.390 . S
C1791 C1788 1.386 . S
C1792 C1787 1.490 . S
C1792 C1794 1.395 . S
C1792 C1795 1.403 . S
H1793 C1799 0.930 . S
C1794 H1780 0.930 . S
C1794 C1792 1.395 . S
C1794 C1797 1.403 . S
C1795 C1792 1.403 . S
C1795 C1796 1.524 . S
C1795 C1799 1.400 . S
C1796 H1781 0.960 . S
C1796 H1782 0.960 . S
C1796 H1783 0.960 . S
C1796 C1795 1.524 . S
C1797 C1794 1.403 . S
C1797 C1798 1.392 . S
C1797 C1801 1.495 . S
C1798 C1797 1.392 . S
C1798 C1799 1.385 . S
C1798 C1800 1.478 . S
C1799 H1793 0.930 . S
C1799 C1795 1.400 . S
C1799 C1798 1.385 . S
C1800 C1798 1.478 . S
C1800 C1802 1.381 . S
C1800 C1806 1.383 . S
C1801 C1797 1.495 . S
C1801 H1807 0.959 . S
C1801 H1808 0.961 . S
C1801 H1809 0.960 . S
C1802 C1800 1.381 . S
C1802 C1803 1.394 . S
C1802 H1810 0.930 . S
C1803 C1802 1.394 . S
C1803 C1804 1.383 . S
C1803 H1811 0.929 . S
C1804 C1803 1.383 . S
C1804 C1805 1.377 . S
C1805 H1789 0.930 . S
C1805 C1804 1.377 . S
C1805 C1806 1.379 . S
C1806 H1790 0.931 . S
C1806 C1800 1.383 . S
C1806 C1805 1.379 . S
H1807 C1801 0.959 . S
H1808 C1801 0.961 . S
H1809 C1801 0.960 . S
H1810 C1802 0.930 . S
H1811 C1803 0.929 . S
H1812 C1820 0.929 . S
H1813 C1822 0.930 . S
H1814 C1824 0.930 . S
H1815 C1827 0.929 . S
H1816 C1830 0.930 . S
H1817 C1832 0.960 . S
H1818 C1832 0.960 . S
H1819 C1832 0.960 . S
C1820 H1812 0.929 . S
C1820 C1821 1.377 . S
C1820 C1822 1.384 . S
C1821 C1820 1.377 . S
C1821 C1827 1.390 . S
C1822 H1813 0.930 . S
C1822 C1820 1.384 . S
C1822 C1823 1.372 . S
C1823 C1822 1.372 . S
C1823 C1824 1.400 . S
C1823 C1828 1.490 . S
C1824 H1814 0.930 . S
C1824 C1823 1.400 . S
C1824 C1827 1.386 . S
H1825 C1841 0.930 . S
H1826 C1842 0.931 . S
C1827 H1815 0.929 . S
C1827 C1821 1.390 . S
C1827 C1824 1.386 . S
C1828 C1823 1.490 . S
C1828 C1830 1.395 . S
C1828 C1831 1.403 . S
H1829 C1835 0.930 . S
C1830 H1816 0.930 . S
C1830 C1828 1.395 . S
C1830 C1833 1.403 . S
C1831 C1828 1.403 . S
C1831 C1832 1.524 . S
C1831 C1835 1.400 . S
C1832 H1817 0.960 . S
C1832 H1818 0.960 . S
C1832 H1819 0.960 . S
C1832 C1831 1.524 . S
C1833 C1830 1.403 . S
C1833 C1834 1.392 . S
C1833 C1837 1.495 . S
C1834 C1833 1.392 . S
C1834 C1835 1.385 . S
C1834 C1836 1.478 . S
C1835 H1829 0.930 . S
C1835 C1831 1.400 . S
C1835 C1834 1.385 . S
C1836 C1834 1.478 . S
C1836 C1838 1.381 . S
C1836 C1842 1.383 . S
C1837 C1833 1.495 . S
C1837 H1843 0.959 . S
C1837 H1844 0.961 . S
C1837 H1845 0.960 . S
C1838 C1836 1.381 . S
C1838 C1839 1.394 . S
C1838 H1846 0.930 . S
C1839 C1838 1.394 . S
C1839 C1840 1.383 . S
C1839 H1847 0.929 . S
C1840 C1839 1.383 . S
C1840 C1841 1.377 . S
C1841 H1825 0.930 . S
C1841 C1840 1.377 . S
C1841 C1842 1.379 . S
C1842 H1826 0.931 . S
C1842 C1836 1.383 . S
C1842 C1841 1.379 . S
H1843 C1837 0.959 . S
H1844 C1837 0.961 . S
H1845 C1837 0.960 . S
H1846 C1838 0.930 . S
H1847 C1839 0.929 . S
H1848 C1856 0.929 . S
H1849 C1858 0.930 . S
H1850 C1860 0.930 . S
H1851 C1863 0.929 . S
H1852 C1866 0.930 . S
H1853 C1868 0.960 . S
H1854 C1868 0.960 . S
H1855 C1868 0.960 . S
C1856 H1848 0.929 . S
C1856 C1857 1.377 . S
C1856 C1858 1.384 . S
C1857 C1856 1.377 . S
C1857 C1863 1.390 . S
C1858 H1849 0.930 . S
C1858 C1856 1.384 . S
C1858 C1859 1.372 . S
C1859 C1858 1.372 . S
C1859 C1860 1.400 . S
C1859 C1864 1.490 . S
C1860 H1850 0.930 . S
C1860 C1859 1.400 . S
C1860 C1863 1.386 . S
H1861 C1877 0.930 . S
H1862 C1878 0.931 . S
C1863 H1851 0.929 . S
C1863 C1857 1.390 . S
C1863 C1860 1.386 . S
C1864 C1859 1.490 . S
C1864 C1866 1.395 . S
C1864 C1867 1.403 . S
H1865 C1871 0.930 . S
C1866 H1852 0.930 . S
C1866 C1864 1.395 . S
C1866 C1869 1.403 . S
C1867 C1864 1.403 . S
C1867 C1868 1.524 . S
C1867 C1871 1.400 . S
C1868 H1853 0.960 . S
C1868 H1854 0.960 . S
C1868 H1855 0.960 . S
C1868 C1867 1.524 . S
C1869 C1866 1.403 . S
C1869 C1870 1.392 . S
C1869 C1873 1.495 . S
C1870 C1869 1.392 . S
C1870 C1871 1.385 . S
C1870 C1872 1.478 . S
C1871 H1865 0.930 . S
C1871 C1867 1.400 . S
C1871 C1870 1.385 . S
C1872 C1870 1.478 . S
C1872 C1874 1.381 . S
C1872 C1878 1.383 . S
C1873 C1869 1.495 . S
C1873 H1879 0.959 . S
C1873 H1880 0.961 . S
C1873 H1881 0.960 . S
C1874 C1872 1.381 . S
C1874 C1875 1.394 . S
C1874 H1882 0.930 . S
C1875 C1874 1.394 . S
C1875 C1876 1.383 . S
C1875 H1883 0.929 . S
C1876 C1875 1.383 . S
C1876 C1877 1.377 . S
C1877 H1861 0.930 . S
C1877 C1876 1.377 . S
C1877 C1878 1.379 . S
C1878 H1862 0.931 . S
C1878 C1872 1.383 . S
C1878 C1877 1.379 . S
H1879 C1873 0.959 . S
H1880 C1873 0.961 . S
H1881 C1873 0.960 . S
H1882 C1874 0.930 . S
H1883 C1875 0.929 . S
H1884 C1892 0.929 . S
H1885 C1894 0.930 . S
H1886 C1896 0.930 . S
H1887 C1899 0.929 . S
H1888 C1902 0.930 . S
H1889 C1904 0.960 . S
H1890 C1904 0.960 . S
H1891 C1904 0.960 . S
C1892 H1884 0.929 . S
C1892 C1893 1.377 . S
C1892 C1894 1.384 . S
C1893 C1892 1.377 . S
C1893 C1899 1.390 . S
C1894 H1885 0.930 . S
C1894 C1892 1.384 . S
C1894 C1895 1.372 . S
C1895 C1894 1.372 . S
C1895 C1896 1.400 . S
C1895 C1900 1.490 . S
C1896 H1886 0.930 . S
C1896 C1895 1.400 . S
C1896 C1899 1.386 . S
H1897 C1913 0.930 . S
H1898 C1914 0.931 . S
C1899 H1887 0.929 . S
C1899 C1893 1.390 . S
C1899 C1896 1.386 . S
C1900 C1895 1.490 . S
C1900 C1902 1.395 . S
C1900 C1903 1.403 . S
H1901 C1907 0.930 . S
C1902 H1888 0.930 . S
C1902 C1900 1.395 . S
C1902 C1905 1.403 . S
C1903 C1900 1.403 . S
C1903 C1904 1.524 . S
C1903 C1907 1.400 . S
C1904 H1889 0.960 . S
C1904 H1890 0.960 . S
C1904 H1891 0.960 . S
C1904 C1903 1.524 . S
C1905 C1902 1.403 . S
C1905 C1906 1.392 . S
C1905 C1909 1.495 . S
C1906 C1905 1.392 . S
C1906 C1907 1.385 . S
C1906 C1908 1.478 . S
C1907 H1901 0.930 . S
C1907 C1903 1.400 . S
C1907 C1906 1.385 . S
C1908 C1906 1.478 . S
C1908 C1910 1.381 . S
C1908 C1914 1.383 . S
C1909 C1905 1.495 . S
C1909 H1915 0.959 . S
C1909 H1916 0.961 . S
C1909 H1917 0.960 . S
C1910 C1908 1.381 . S
C1910 C1911 1.394 . S
C1910 H1918 0.930 . S
C1911 C1910 1.394 . S
C1911 C1912 1.383 . S
C1911 H1919 0.929 . S
C1912 C1911 1.383 . S
C1912 C1913 1.377 . S
C1913 H1897 0.930 . S
C1913 C1912 1.377 . S
C1913 C1914 1.379 . S
C1914 H1898 0.931 . S
C1914 C1908 1.383 . S
C1914 C1913 1.379 . S
H1915 C1909 0.959 . S
H1916 C1909 0.961 . S
H1917 C1909 0.960 . S
H1918 C1910 0.930 . S
H1919 C1911 0.929 . S
C1065 C49 0.414 . S
C1084 C937 0.494 . S
C1101 C1017 0.420 . S
C1120 C117 0.461 . S
C1137 C585 0.410 . S
C1156 C196 0.506 . S
C1173 C284 0.437 . S
C1192 C645 0.386 . S
C1209 C401 0.408 . S
C1228 C724 0.515 . S
C1245 C821 0.424 . S
C1264 C489 0.452 . S
C1281 C20 0.586 . S
C1300 C673 0.540 . S
C1317 C753 0.577 . S
C1336 C145 0.635 . S
C1353 C849 0.590 . S
C1372 C225 0.674 . S
C1389 C313 0.600 . S
C1408 C909 0.637 . S
C1425 C988 0.579 . S
C1444 C372 0.643 . S
C1461 C460 0.596 . S
C1480 C557 0.680 . S
C1497 C293 0.615 . S
C1516 C57 0.684 . S
C1533 C409 0.648 . S
C1552 C108 0.591 . S
C1569 C497 0.613 . S
C1588 C205 0.709 . S
C1605 C577 0.626 . S
C1624 C812 0.705 . S
C1641 C636 0.625 . S
C1660 C929 0.619 . S
C1677 C733 0.617 . S
C1696 C1025 0.672 . S
C1713 C761 1.520 . S
C1732 C29 1.527 . S
C1749 C841 1.515 . S
C1768 C137 1.541 . S
C1785 C900 1.508 . S
C1804 C233 1.500 . S
C1821 C997 1.507 . S
C1840 C321 1.500 . S
C1857 C548 1.513 . S
C1876 C381 1.478 . S
C1893 C469 1.507 . S
C1912 C665 1.501 . S
