# Generated by pormake.
# Topology und, (4)-cn, num edge types: 1
# Building blocks:
#     Node 0, Type 0, BuildingBlock: KUFVIS_clean_sbu_0, # of connection points: 4
#     Node 1, Type 0, BuildingBlock: KUFVIS_clean_sbu_0, # of connection points: 4
#     Node 2, Type 0, BuildingBlock: KUFVIS_clean_sbu_0, # of connection points: 4
#     Node 3, Type 0, BuildingBlock: KUFVIS_clean_sbu_0, # of connection points: 4
#     Node 4, Type 0, BuildingBlock: KUFVIS_clean_sbu_0, # of connection points: 4
#     Node 5, Type 0, BuildingBlock: KUFVIS_clean_sbu_0, # of connection points: 4
#     Node 6, Type 0, BuildingBlock: KUFVIS_clean_sbu_0, # of connection points: 4
#     Node 7, Type 0, BuildingBlock: KUFVIS_clean_sbu_0, # of connection points: 4
#     Node 8, Type 0, BuildingBlock: KUFVIS_clean_sbu_0, # of connection points: 4
#     Node 9, Type 0, BuildingBlock: KUFVIS_clean_sbu_0, # of connection points: 4
#     Node 10, Type 0, BuildingBlock: KUFVIS_clean_sbu_0, # of connection points: 4
#     Node 11, Type 0, BuildingBlock: KUFVIS_clean_sbu_0, # of connection points: 4
#     Node 12, Type 0, BuildingBlock: KUFVIS_clean_sbu_0, # of connection points: 4
#     Node 13, Type 0, BuildingBlock: KUFVIS_clean_sbu_0, # of connection points: 4
#     Node 14, Type 0, BuildingBlock: KUFVIS_clean_sbu_0, # of connection points: 4
#     Node 15, Type 0, BuildingBlock: KUFVIS_clean_sbu_0, # of connection points: 4
#     Edge 16, Type (0, 0), BuildingBlock: AJUNOK_clean_linker_0, # of connection points: 2
#     Edge 17, Type (0, 0), BuildingBlock: AJUNOK_clean_linker_0, # of connection points: 2
#     Edge 18, Type (0, 0), BuildingBlock: AJUNOK_clean_linker_0, # of connection points: 2
#     Edge 19, Type (0, 0), BuildingBlock: AJUNOK_clean_linker_0, # of connection points: 2
#     Edge 20, Type (0, 0), BuildingBlock: AJUNOK_clean_linker_0, # of connection points: 2
#     Edge 21, Type (0, 0), BuildingBlock: AJUNOK_clean_linker_0, # of connection points: 2
#     Edge 22, Type (0, 0), BuildingBlock: AJUNOK_clean_linker_0, # of connection points: 2
#     Edge 23, Type (0, 0), BuildingBlock: AJUNOK_clean_linker_0, # of connection points: 2
#     Edge 24, Type (0, 0), BuildingBlock: AJUNOK_clean_linker_0, # of connection points: 2
#     Edge 25, Type (0, 0), BuildingBlock: AJUNOK_clean_linker_0, # of connection points: 2
#     Edge 26, Type (0, 0), BuildingBlock: AJUNOK_clean_linker_0, # of connection points: 2
#     Edge 27, Type (0, 0), BuildingBlock: AJUNOK_clean_linker_0, # of connection points: 2
#     Edge 28, Type (0, 0), BuildingBlock: AJUNOK_clean_linker_0, # of connection points: 2
#     Edge 29, Type (0, 0), BuildingBlock: AJUNOK_clean_linker_0, # of connection points: 2
#     Edge 30, Type (0, 0), BuildingBlock: AJUNOK_clean_linker_0, # of connection points: 2
#     Edge 31, Type (0, 0), BuildingBlock: AJUNOK_clean_linker_0, # of connection points: 2
#     Edge 32, Type (0, 0), BuildingBlock: AJUNOK_clean_linker_0, # of connection points: 2
#     Edge 33, Type (0, 0), BuildingBlock: AJUNOK_clean_linker_0, # of connection points: 2
#     Edge 34, Type (0, 0), BuildingBlock: AJUNOK_clean_linker_0, # of connection points: 2
#     Edge 35, Type (0, 0), BuildingBlock: AJUNOK_clean_linker_0, # of connection points: 2
#     Edge 36, Type (0, 0), BuildingBlock: AJUNOK_clean_linker_0, # of connection points: 2
#     Edge 37, Type (0, 0), BuildingBlock: AJUNOK_clean_linker_0, # of connection points: 2
#     Edge 38, Type (0, 0), BuildingBlock: AJUNOK_clean_linker_0, # of connection points: 2
#     Edge 39, Type (0, 0), BuildingBlock: AJUNOK_clean_linker_0, # of connection points: 2
#     Edge 40, Type (0, 0), BuildingBlock: AJUNOK_clean_linker_0, # of connection points: 2
#     Edge 41, Type (0, 0), BuildingBlock: AJUNOK_clean_linker_0, # of connection points: 2
#     Edge 42, Type (0, 0), BuildingBlock: AJUNOK_clean_linker_0, # of connection points: 2
#     Edge 43, Type (0, 0), BuildingBlock: AJUNOK_clean_linker_0, # of connection points: 2
#     Edge 44, Type (0, 0), BuildingBlock: AJUNOK_clean_linker_0, # of connection points: 2
#     Edge 45, Type (0, 0), BuildingBlock: AJUNOK_clean_linker_0, # of connection points: 2
#     Edge 46, Type (0, 0), BuildingBlock: AJUNOK_clean_linker_0, # of connection points: 2
#     Edge 47, Type (0, 0), BuildingBlock: AJUNOK_clean_linker_0, # of connection points: 2
# Relax obj value: 0.021
# Max RMSD: 0.090
# Mean RMSD: 0.078
data_MOF--net-und--node1-KUFVIS_clean_sbu_0--edge1-AJUNOK_clean_linker_0
_symmetry_space_group_name_H-M    P1
_symmetry_Int_Tables_number       1
_symmetry_cell_setting            triclinic
loop_
_symmetry_equiv_pos_as_xyz
'x, y, z'
_cell_length_a     43.409341
_cell_length_b     43.329611
_cell_length_c     16.212255
_cell_angle_alpha  92.649788
_cell_angle_beta   92.718967
_cell_angle_gamma 90.211502
loop_
_atom_site_label
_atom_site_type_symbol
_atom_site_fract_x
_atom_site_fract_y
_atom_site_fract_z
_atom_type_partial_charge
Mn0 Mn 0.26613 0.34698 0.02614 0.0
Mn1 Mn 0.23069 0.37391 0.85482 0.0
C2 C 0.26914 0.31978 0.90107 0.0
C3 C 0.26276 0.3155 0.13973 0.0
C4 C 0.29078 0.40081 0.93235 0.0
O5 O 0.23658 0.37949 0.07234 0.0
O6 O 0.21055 0.39145 0.9543 0.0
C7 C 0.17012 0.34307 0.86509 0.0
N8 N 0.19573 0.34845 0.82243 0.0
C9 C 0.17723 0.31458 0.7088 0.0
C10 C 0.15046 0.30902 0.75107 0.0
C11 C 0.14695 0.32327 0.82965 0.0
C12 C 0.19944 0.33471 0.74698 0.0
H13 H 0.16752 0.35364 0.92594 0.0
C14 C 0.21499 0.39358 0.03321 0.0
O15 O 0.2834 0.33738 0.13962 0.0
O16 O 0.24346 0.31339 0.0766 0.0
N17 N 0.24779 0.35832 0.75446 0.0
C18 C 0.27565 0.36484 0.72375 0.0
C19 C 0.28319 0.35165 0.64658 0.0
C20 C 0.26204 0.33198 0.60173 0.0
C21 C 0.23336 0.32593 0.63408 0.0
C22 C 0.22695 0.34005 0.7108 0.0
H23 H 0.29208 0.37982 0.75802 0.0
O24 O 0.28914 0.31508 0.96099 0.0
O25 O 0.24808 0.34011 0.91662 0.0
O26 O 0.29491 0.38135 0.98895 0.0
O27 O 0.26702 0.40084 0.88254 0.0
C28 C 0.21109 0.30606 0.59381 0.0
C29 C 0.18307 0.30033 0.63122 0.0
H30 H 0.13265 0.29356 0.72425 0.0
H31 H 0.1265 0.31885 0.86301 0.0
H32 H 0.30537 0.35644 0.62204 0.0
H33 H 0.26811 0.32151 0.54276 0.0
H34 H 0.21546 0.29471 0.53459 0.0
H35 H 0.16633 0.28461 0.60027 0.0
Mn36 Mn 0.93604 0.01972 0.26763 0.0
Mn37 Mn 0.91102 0.0515 0.44604 0.0
C38 C 0.96522 0.01622 0.3893 0.0
C39 C 0.9653 0.02295 0.14995 0.0
C40 C 0.88676 0.99038 0.37254 0.0
O41 O 0.90341 0.04959 0.22548 0.0
O42 O 0.88669 0.06691 0.34867 0.0
C43 C 0.9305 0.11583 0.42045 0.0
N44 N 0.93162 0.09039 0.46683 0.0
C45 C 0.96518 0.11641 0.57042 0.0
C46 C 0.96422 0.14292 0.52398 0.0
C47 C 0.94689 0.14258 0.44854 0.0
C48 C 0.94839 0.09041 0.53928 0.0
H49 H 0.91719 0.11574 0.36249 0.0
C50 C 0.88542 0.06599 0.26926 0.0
O51 O 0.94329 1.00263 0.15303 0.0
O52 O 0.9691 0.04209 0.21325 0.0
N53 N 0.93266 0.0392 0.5449 0.0
C54 C 0.9314 1.0117 0.58216 0.0
C55 C 0.94798 1.00804 0.65759 0.0
C56 C 0.96548 0.03277 0.69432 0.0
C57 C 0.96602 0.06102 0.6556 0.0
C58 C 0.94889 0.06334 0.58071 0.0
H59 H 0.91816 0.99258 0.55402 0.0
O60 O 0.96854 0.99618 0.32859 0.0
O61 O 0.94458 0.03743 0.37762 0.0
O62 O 0.90168 0.99081 0.3061 0.0
O63 O 0.88941 1.01133 0.43054 0.0
C64 C 0.983 0.08691 0.68821 0.0
C65 C 0.98258 0.11459 0.64565 0.0
H66 H 0.97692 0.16357 0.54528 0.0
H67 H 0.94615 0.16291 0.41215 0.0
H68 H 0.94741 0.98616 0.68712 0.0
H69 H 0.97844 0.0298 0.75215 0.0
H70 H 0.99657 0.08575 0.7458 0.0
H71 H 0.99591 0.13428 0.67104 0.0
Mn72 Mn 0.26808 0.6968 0.508 0.0
Mn73 Mn 0.23515 0.67152 0.6773 0.0
C74 C 0.2708 0.72624 0.62981 0.0
C75 C 0.26405 0.72527 0.38843 0.0
C76 C 0.29702 0.64861 0.62102 0.0
O77 O 0.23954 0.66265 0.45944 0.0
O78 O 0.21918 0.64777 0.57625 0.0
C79 C 0.17181 0.69263 0.63457 0.0
N80 N 0.19696 0.69288 0.68815 0.0
C81 C 0.17234 0.72799 0.78343 0.0
C82 C 0.14613 0.72796 0.72946 0.0
C83 C 0.1459 0.71024 0.65465 0.0
C84 C 0.19751 0.71005 0.76 0.0
H85 H 0.17153 0.67917 0.57683 0.0
C86 C 0.22153 0.64556 0.49777 0.0
O87 O 0.28509 0.70423 0.39771 0.0
O88 O 0.24473 0.72849 0.44648 0.0
N89 N 0.24778 0.69249 0.78015 0.0
C90 C 0.27431 0.68905 0.82707 0.0
C91 C 0.2781 0.705 0.90434 0.0
C92 C 0.25436 0.72392 0.93329 0.0
C93 C 0.22679 0.72619 0.8854 0.0
C94 C 0.22427 0.70955 0.80916 0.0
H95 H 0.29241 0.6742 0.80582 0.0
O96 O 0.2905 0.73054 0.5738 0.0
O97 O 0.25 0.70501 0.61276 0.0
O98 O 0.29785 0.6643 0.5561 0.0
O99 O 0.27496 0.64975 0.67068 0.0
C100 C 0.20167 0.74421 0.9105 0.0
C101 C 0.17452 0.74525 0.85934 0.0
H102 H 0.12609 0.74152 0.74471 0.0
H103 H 0.12579 0.71018 0.61253 0.0
H104 H 0.29929 0.70273 0.94148 0.0
H105 H 0.25743 0.73637 0.99262 0.0
H106 H 0.203 0.7574 0.96898 0.0
H107 H 0.15542 0.75934 0.87908 0.0
Mn108 Mn 0.58541 0.02044 0.77395 0.0
Mn109 Mn 0.6143 0.05291 0.60847 0.0
C110 C 0.55824 0.0182 0.64894 0.0
C111 C 0.55423 0.02484 0.88823 0.0
C112 C 0.63496 0.99052 0.66732 0.0
O113 O 0.61879 0.04879 0.82691 0.0
O114 O 0.63679 0.06831 0.71223 0.0
C115 C 0.59519 0.11729 0.64784 0.0
N116 N 0.59446 0.09186 0.59511 0.0
C117 C 0.56189 0.11763 0.49589 0.0
C118 C 0.56246 0.14413 0.54897 0.0
C119 C 0.57912 0.14392 0.62534 0.0
C120 C 0.57837 0.09178 0.52161 0.0
H121 H 0.60791 0.1173 0.70668 0.0
C122 C 0.63715 0.06625 0.79087 0.0
O123 O 0.57525 1.00357 0.88284 0.0
O124 O 0.55279 0.04424 0.83004 0.0
N125 N 0.59431 0.04079 0.50391 0.0
C126 C 0.59673 0.01371 0.45864 0.0
C127 C 0.58104 1.01001 0.38101 0.0
C128 C 0.56344 0.03439 0.35001 0.0
C129 C 0.56212 0.06243 0.3964 0.0
C130 C 0.57835 0.06478 0.47326 0.0
H131 H 0.6105 0.9951 0.4816 0.0
O132 O 0.55282 0.99832 0.70381 0.0
O133 O 0.57943 0.03881 0.66872 0.0
O134 O 0.61849 0.99017 0.73082 0.0
O135 O 0.63477 1.01247 0.6172 0.0
C136 C 0.54533 0.08813 0.36938 0.0
C137 C 0.54522 0.11572 0.41908 0.0
H138 H 0.54999 0.16468 0.53199 0.0
H139 H 0.57955 0.16424 0.66681 0.0
H140 H 0.58249 0.9884 0.3452 0.0
H141 H 0.55119 0.0314 0.29035 0.0
H142 H 0.53239 0.08691 0.31051 0.0
H143 H 0.53212 0.13528 0.39782 0.0
Mn144 Mn 0.75853 0.69792 0.02595 0.0
Mn145 Mn 0.79338 0.6682 0.19475 0.0
C146 C 0.75765 0.72445 0.15207 0.0
C147 C 0.76189 0.73008 0.91364 0.0
C148 C 0.73078 0.64572 0.12272 0.0
O149 O 0.78631 0.66491 0.97598 0.0
O150 O 0.80994 0.64813 0.09273 0.0
C151 C 0.8569 0.69129 0.17696 0.0
N152 N 0.83123 0.68986 0.22182 0.0
C153 C 0.85519 0.72157 0.33289 0.0
C154 C 0.88197 0.72317 0.28813 0.0
C155 C 0.88278 0.70803 0.20973 0.0
C156 C 0.83019 0.70438 0.29729 0.0
H157 H 0.85763 0.67973 0.11666 0.0
C158 C 0.80581 0.64797 0.01382 0.0
O159 O 0.74059 0.70887 0.91433 0.0
O160 O 0.78181 0.7312 0.97546 0.0
N161 N 0.77977 0.68596 0.29704 0.0
C162 C 0.75202 0.68258 0.33168 0.0
C163 C 0.7471 0.69711 0.40915 0.0
C164 C 0.77079 0.71478 0.45043 0.0
C165 C 0.7993 0.71752 0.41415 0.0
C166 C 0.80293 0.70236 0.33705 0.0
H167 H 0.73367 0.66914 0.30016 0.0
O168 O 0.73724 0.72999 0.09383 0.0
O169 O 0.77799 0.70348 0.13473 0.0
O170 O 0.72869 0.66415 0.06296 0.0
O171 O 0.75428 0.6452 0.17324 0.0
C172 C 0.82416 0.73494 0.45112 0.0
C173 C 0.85211 0.73691 0.4106 0.0
H174 H 0.9019 0.73624 0.31292 0.0
H175 H 0.90329 0.70932 0.1746 0.0
H176 H 0.72504 0.69485 0.43677 0.0
H177 H 0.76682 0.72619 0.50982 0.0
H178 H 0.82197 0.74706 0.51049 0.0
H179 H 0.87099 0.75055 0.43939 0.0
Mn180 Mn 0.08626 0.02564 0.7773 0.0
Mn181 Mn 0.1145 0.99042 0.60705 0.0
C182 C 0.05942 0.02747 0.65169 0.0
C183 C 0.05461 0.02273 0.89049 0.0
C184 C 0.13838 0.05245 0.67877 0.0
O185 O 0.11899 0.99706 0.82618 0.0
O186 O 0.13513 0.97401 0.70819 0.0
C187 C 0.08946 0.9279 0.62942 0.0
N188 N 0.09178 0.95299 0.58248 0.0
C189 C 0.05791 0.92969 0.47516 0.0
C190 C 0.05534 0.9035 0.52209 0.0
C191 C 0.07116 0.90262 0.59959 0.0
C192 C 0.07662 0.9541 0.50789 0.0
H193 H 0.10139 0.92723 0.68929 0.0
C194 C 0.13582 0.9778 0.78714 0.0
O195 O 0.07618 0.04365 0.88954 0.0
O196 O 0.05289 1.00288 0.8285 0.0
N197 N 0.09659 1.00391 0.50477 0.0
C198 C 0.10094 0.03116 0.4681 0.0
C199 C 0.08633 0.03595 0.3906 0.0
C200 C 0.06758 1.01263 0.35142 0.0
C201 C 0.06395 0.98455 0.38961 0.0
C202 C 0.07937 0.98097 0.46641 0.0
H203 H 0.11522 0.04923 0.49808 0.0
O204 O 0.05435 0.04776 0.71062 0.0
O205 O 0.07995 1.00662 0.66826 0.0
O206 O 0.12032 0.05494 0.73919 0.0
O207 O 0.13825 0.02915 0.62734 0.0
C208 C 0.04529 0.96014 0.35503 0.0
C209 C 0.04222 0.93276 0.39785 0.0
H210 H 0.0411 0.88403 0.49952 0.0
H211 H 0.06915 0.88256 0.63637 0.0
H212 H 0.08932 0.05766 0.36145 0.0
H213 H 0.05602 0.01657 0.29216 0.0
H214 H 0.03294 0.96231 0.29596 0.0
H215 H 0.02754 0.91428 0.37106 0.0
Mn216 Mn 0.75893 0.3478 0.53008 0.0
Mn217 Mn 0.7963 0.37296 0.36829 0.0
C218 C 0.75725 0.31912 0.40774 0.0
C219 C 0.76136 0.31835 0.64824 0.0
C220 C 0.73464 0.39901 0.41983 0.0
O221 O 0.78775 0.38075 0.58258 0.0
O222 O 0.81368 0.39398 0.47242 0.0
C223 C 0.85829 0.34751 0.40625 0.0
N224 N 0.83291 0.34933 0.35401 0.0
C225 C 0.85571 0.31558 0.25203 0.0
C226 C 0.88218 0.31354 0.3045 0.0
C227 C 0.88341 0.32948 0.38205 0.0
C228 C 0.83143 0.33398 0.27938 0.0
H229 H 0.85936 0.35976 0.46586 0.0
C230 C 0.80872 0.3961 0.54987 0.0
O231 O 0.74065 0.33974 0.63878 0.0
O232 O 0.78101 0.31523 0.59116 0.0
N233 N 0.78203 0.35424 0.26395 0.0
C234 C 0.75471 0.35833 0.22097 0.0
C235 C 0.74947 0.34327 0.14292 0.0
C236 C 0.77244 0.32437 0.10958 0.0
C237 C 0.80053 0.32088 0.15439 0.0
C238 C 0.8045 0.33656 0.2317 0.0
H239 H 0.73693 0.37276 0.24628 0.0
O240 O 0.73646 0.3151 0.46108 0.0
O241 O 0.77848 0.33967 0.42799 0.0
O242 O 0.73067 0.38155 0.48033 0.0
O243 O 0.75863 0.39773 0.37704 0.0
C244 C 0.82469 0.30228 0.12559 0.0
C245 C 0.85226 0.29965 0.17434 0.0
H246 H 0.90155 0.29954 0.28625 0.0
H247 H 0.90369 0.32787 0.42308 0.0
H248 H 0.72773 0.34611 0.10867 0.0
H249 H 0.76824 0.31262 0.04964 0.0
H250 H 0.82223 0.28979 0.06618 0.0
H251 H 0.87059 0.28512 0.15177 0.0
Mn252 Mn 0.43614 0.0268 0.26649 0.0
Mn253 Mn 0.41283 0.98942 0.43071 0.0
C254 C 0.4652 0.0296 0.38876 0.0
C255 C 0.46524 0.02514 0.1479 0.0
C256 C 0.38511 0.0503 0.37784 0.0
O257 O 0.40367 0.99685 0.21519 0.0
O258 O 0.39201 0.97142 0.32763 0.0
C259 C 0.44052 0.92845 0.39191 0.0
N260 N 0.43753 0.95347 0.44488 0.0
C261 C 0.47241 0.93176 0.5462 0.0
C262 C 0.47573 0.90569 0.4929 0.0
C263 C 0.45976 0.90407 0.41536 0.0
C264 C 0.45288 0.95532 0.51951 0.0
H265 H 0.42834 0.92715 0.33218 0.0
C266 C 0.38905 0.9758 0.25007 0.0
O267 O 0.4433 0.04524 0.15728 0.0
O268 O 0.46897 1.00551 0.20505 0.0
N269 N 0.43129 1.00421 0.53487 0.0
C270 C 0.42629 0.03132 0.57809 0.0
C271 C 0.44095 0.03678 0.65656 0.0
C272 C 0.46039 0.01426 0.69008 0.0
C273 C 0.46478 0.98633 0.64508 0.0
C274 C 0.44937 0.98208 0.56746 0.0
H275 H 0.41144 0.04877 0.55266 0.0
O276 O 0.46855 0.05028 0.33461 0.0
O277 O 0.44521 1.00782 0.36938 0.0
O278 O 0.40202 0.05434 0.31641 0.0
O279 O 0.38716 0.02653 0.42167 0.0
C280 C 0.48412 0.96268 0.67381 0.0
C281 C 0.48803 0.93547 0.62427 0.0
H282 H 0.49062 0.88687 0.51064 0.0
H283 H 0.46231 0.88408 0.37375 0.0
H284 H 0.43741 0.05838 0.69095 0.0
H285 H 0.47191 0.01868 0.75025 0.0
H286 H 0.49634 0.96533 0.73355 0.0
H287 H 0.50326 0.91763 0.64659 0.0
Mn288 Mn 0.76539 0.84852 0.53529 0.0
Mn289 Mn 0.73009 0.87082 0.35827 0.0
C290 C 0.76888 0.81853 0.41473 0.0
C291 C 0.76269 0.81975 0.65444 0.0
C292 C 0.79094 0.89882 0.42772 0.0
O293 O 0.73544 0.88131 0.57701 0.0
O294 O 0.71197 0.89275 0.45538 0.0
C295 C 0.66881 0.84344 0.38315 0.0
N296 N 0.69371 0.84625 0.33595 0.0
C297 C 0.67142 0.81086 0.23064 0.0
C298 C 0.64535 0.80795 0.2776 0.0
C299 C 0.64411 0.82421 0.35435 0.0
C300 C 0.6953 0.83042 0.26244 0.0
H301 H 0.66788 0.85563 0.44254 0.0
C302 C 0.71524 0.8959 0.53444 0.0
O303 O 0.78294 0.84179 0.65033 0.0
O304 O 0.74344 0.81576 0.5916 0.0
N305 N 0.74472 0.85117 0.25927 0.0
C306 C 0.77225 0.85493 0.22383 0.0
C307 C 0.77744 0.83979 0.1473 0.0
C308 C 0.75435 0.82078 0.10812 0.0
C309 C 0.72621 0.81723 0.14569 0.0
C310 C 0.72218 0.83328 0.22141 0.0
H311 H 0.79036 0.86885 0.25448 0.0
O312 O 0.78903 0.81572 0.47537 0.0
O313 O 0.7473 0.83868 0.42662 0.0
O314 O 0.79345 0.88264 0.49216 0.0
O315 O 0.76791 0.89643 0.3755 0.0
C316 C 0.70217 0.79802 0.11155 0.0
C317 C 0.67486 0.79471 0.15418 0.0
H318 H 0.6263 0.79304 0.25576 0.0
H319 H 0.6242 0.82186 0.39132 0.0
H320 H 0.79932 0.84245 0.11905 0.0
H321 H 0.75859 0.80879 0.04968 0.0
H322 H 0.70463 0.78535 0.05306 0.0
H323 H 0.65675 0.77947 0.12796 0.0
Mn324 Mn 0.43605 0.5171 0.76892 0.0
Mn325 Mn 0.4113 0.55388 0.9411 0.0
C326 C 0.46437 0.5144 0.89247 0.0
C327 C 0.46584 0.5189 0.65179 0.0
C328 C 0.38313 0.49359 0.86837 0.0
O329 O 0.40362 0.54693 0.72351 0.0
O330 O 0.39272 0.57334 0.84169 0.0
C331 C 0.44189 0.61433 0.92502 0.0
N332 N 0.43703 0.58904 0.96958 0.0
C333 C 0.47154 0.6086 0.08056 0.0
C334 C 0.47662 0.63503 0.03625 0.0
C335 C 0.4618 0.63786 0.95805 0.0
C336 C 0.45131 0.58599 0.0447 0.0
H337 H 0.43079 0.61645 0.86455 0.0
C338 C 0.38991 0.5687 0.76291 0.0
O339 O 0.44372 0.49873 0.65561 0.0
O340 O 0.46942 0.53863 0.71383 0.0
N341 N 0.42786 0.53754 0.0416 0.0
C342 C 0.4217 0.50993 0.07453 0.0
C343 C 0.43546 0.50307 0.15165 0.0
C344 C 0.45529 0.52467 0.19427 0.0
C345 C 0.46096 0.55309 0.15969 0.0
C346 C 0.44634 0.55878 0.08304 0.0
H347 H 0.40654 0.49318 0.04203 0.0
O348 O 0.46816 0.49396 0.83299 0.0
O349 O 0.4443 0.53579 0.87745 0.0
O350 O 0.40175 0.4891 0.81002 0.0
O351 O 0.38408 0.5175 0.91774 0.0
C352 C 0.48091 0.57579 0.19768 0.0
C353 C 0.48626 0.60349 0.15806 0.0
H354 H 0.49213 0.65314 0.06125 0.0
H355 H 0.46581 0.65808 0.92317 0.0
H356 H 0.43096 0.48109 0.17795 0.0
H357 H 0.46614 0.51915 0.25327 0.0
H358 H 0.4926 0.57199 0.25686 0.0
H359 H 0.50204 0.62055 0.18728 0.0
Mn360 Mn 0.76608 0.19828 0.02432 0.0
Mn361 Mn 0.7278 0.17186 0.18282 0.0
C362 C 0.76796 0.22547 0.14904 0.0
C363 C 0.7636 0.22981 0.90995 0.0
C364 C 0.78967 0.14605 0.13232 0.0
O365 O 0.73739 0.16591 0.96832 0.0
O366 O 0.71133 0.15154 0.07697 0.0
C367 C 0.66698 0.19902 0.14009 0.0
N368 N 0.69136 0.19595 0.19506 0.0
C369 C 0.66864 0.2309 0.29433 0.0
C370 C 0.64317 0.23424 0.23902 0.0
C371 C 0.64237 0.21826 0.16153 0.0
C372 C 0.69242 0.2113 0.26968 0.0
H373 H 0.66637 0.18694 0.08024 0.0
C374 C 0.7166 0.14992 0.99973 0.0
O375 O 0.78438 0.2083 0.91634 0.0
O376 O 0.74397 0.23156 0.96709 0.0
N377 N 0.74102 0.18959 0.28913 0.0
C378 C 0.76748 0.18429 0.33483 0.0
C379 C 0.77201 0.19878 0.41381 0.0
C380 C 0.74927 0.21844 0.44516 0.0
C381 C 0.72199 0.22309 0.39766 0.0
C382 C 0.71859 0.20771 0.31981 0.0
H383 H 0.78514 0.16938 0.31093 0.0
O384 O 0.78872 0.23007 0.0961 0.0
O385 O 0.74649 0.20543 0.12668 0.0
O386 O 0.79387 0.16377 0.07233 0.0
O387 O 0.76556 0.14713 0.17485 0.0
C388 C 0.69818 0.24263 0.42415 0.0
C389 C 0.67157 0.2466 0.37243 0.0
H390 H 0.62421 0.24918 0.25515 0.0
H391 H 0.62288 0.22086 0.11833 0.0
H392 H 0.7931 0.195 0.45014 0.0
H393 H 0.75304 0.2299 0.50564 0.0
H394 H 0.70024 0.25494 0.48387 0.0
H395 H 0.65356 0.26194 0.39312 0.0
Mn396 Mn 0.0861 0.51757 0.27661 0.0
Mn397 Mn 0.11704 0.54997 0.11393 0.0
C398 C 0.05925 0.5171 0.15121 0.0
C399 C 0.05505 0.52264 0.39077 0.0
C400 C 0.13578 0.48696 0.17271 0.0
O401 O 0.12043 0.54434 0.33092 0.0
O402 O 0.13892 0.56542 0.21878 0.0
C403 C 0.09862 0.61478 0.14989 0.0
N404 N 0.09791 0.5891 0.09808 0.0
C405 C 0.06676 0.61487 0.9958 0.0
C406 C 0.06737 0.64166 0.04784 0.0
C407 C 0.08329 0.64157 0.1253 0.0
C408 C 0.08256 0.58891 0.02351 0.0
H409 H 0.11078 0.61484 0.20956 0.0
C410 C 0.13894 0.56231 0.29712 0.0
O411 O 0.07515 0.50054 0.38454 0.0
O412 O 0.05438 0.54236 0.3333 0.0
N413 N 0.09764 0.53755 0.00891 0.0
C414 C 0.09936 0.50991 0.96577 0.0
C415 C 0.08405 0.50596 0.88769 0.0
C416 C 0.06741 0.53056 0.85431 0.0
C417 C 0.06658 0.55902 0.89894 0.0
C418 C 0.08242 0.56163 0.97629 0.0
H419 H 0.11222 0.49101 0.99086 0.0
O420 O 0.05285 0.49714 0.20506 0.0
O421 O 0.08129 0.53668 0.17226 0.0
O422 O 0.11797 0.48623 0.23328 0.0
O423 O 0.13713 0.50945 0.12468 0.0
C424 C 0.05051 0.58485 0.86986 0.0
C425 C 0.05063 0.61276 0.91822 0.0
H426 H 0.05543 0.66231 0.0293 0.0
H427 H 0.08371 0.66209 0.16601 0.0
H428 H 0.08499 0.48398 0.85343 0.0
H429 H 0.05543 0.52736 0.79434 0.0
H430 H 0.0379 0.58346 0.81051 0.0
H431 H 0.03805 0.63242 0.89542 0.0
Mn432 Mn 0.25864 0.1966 0.51644 0.0
Mn433 Mn 0.29104 0.17027 0.69307 0.0
C434 C 0.25638 0.22559 0.63879 0.0
C435 C 0.26233 0.22587 0.39891 0.0
C436 C 0.22974 0.1466 0.61833 0.0
O437 O 0.28738 0.16285 0.47344 0.0
O438 O 0.30795 0.14774 0.59547 0.0
C439 C 0.35495 0.19217 0.67512 0.0
N440 N 0.32894 0.19198 0.71889 0.0
C441 C 0.35262 0.22523 0.82709 0.0
C442 C 0.37973 0.22561 0.78342 0.0
C443 C 0.38085 0.20909 0.70698 0.0
C444 C 0.32756 0.20791 0.79232 0.0
H445 H 0.35593 0.17947 0.61641 0.0
C446 C 0.30547 0.14591 0.51617 0.0
O447 O 0.24141 0.20447 0.4025 0.0
O448 O 0.28186 0.22901 0.46159 0.0
N449 N 0.27686 0.1903 0.7919 0.0
C450 C 0.24893 0.18765 0.8261 0.0
C451 C 0.24381 0.20331 0.90201 0.0
C452 C 0.2675 0.22127 0.94227 0.0
C453 C 0.29619 0.22322 0.90656 0.0
C454 C 0.3 0.20699 0.83104 0.0
H455 H 0.23064 0.17386 0.79544 0.0
O456 O 0.23649 0.2299 0.57834 0.0
O457 O 0.27682 0.20428 0.62609 0.0
O458 O 0.22859 0.16351 0.55548 0.0
O459 O 0.25201 0.14716 0.67262 0.0
C460 C 0.32112 0.24076 0.94276 0.0
C461 C 0.34931 0.24176 0.90305 0.0
H462 H 0.39971 0.23873 0.8076 0.0
H463 H 0.40164 0.20941 0.67272 0.0
H464 H 0.22162 0.20162 0.92928 0.0
H465 H 0.26341 0.23349 1.00051 0.0
H466 H 0.31881 0.25366 1.00096 0.0
H467 H 0.36824 0.25549 0.93122 0.0
Mn468 Mn 0.58643 0.52301 0.27903 0.0
Mn469 Mn 0.61412 0.4922 0.10279 0.0
C470 C 0.5585 0.52597 0.15515 0.0
C471 C 0.55542 0.51849 0.39298 0.0
C472 C 0.63539 0.55431 0.17757 0.0
O473 O 0.61958 0.49408 0.3237 0.0
O474 O 0.63806 0.4777 0.20181 0.0
C475 C 0.59615 0.42744 0.12876 0.0
N476 N 0.5947 0.4527 0.08174 0.0
C477 C 0.56135 0.42595 0.97894 0.0
C478 C 0.56266 0.39962 0.02607 0.0
C479 C 0.58008 0.40041 0.10139 0.0
C480 C 0.57783 0.45223 0.00938 0.0
H481 H 0.60943 0.42788 0.18679 0.0
C482 C 0.63858 0.47844 0.28115 0.0
O483 O 0.57692 0.53952 0.39299 0.0
O484 O 0.55345 0.49933 0.32948 0.0
N485 N 0.59299 0.50355 1.00226 0.0
C486 C 0.59471 0.53056 0.96293 0.0
C487 C 0.57828 0.5337 0.88707 0.0
C488 C 0.56065 0.50884 0.85166 0.0
C489 C 0.56005 0.48089 0.89184 0.0
C490 C 0.57702 0.47911 0.96717 0.0
H491 H 0.60845 0.54954 0.98936 0.0
O492 O 0.55391 0.54568 0.21576 0.0
O493 O 0.57954 0.50531 0.16838 0.0
O494 O 0.62022 0.55319 0.24345 0.0
O495 O 0.63418 0.53323 0.1196 0.0
C496 C 0.54328 0.45474 0.86008 0.0
C497 C 0.54391 0.42729 0.90361 0.0
H498 H 0.55021 0.37876 1.00532 0.0
H499 H 0.58109 0.38023 0.13831 0.0
H500 H 0.57918 0.55525 0.85607 0.0
H501 H 0.54782 0.5114 0.79342 0.0
H502 H 0.52977 0.4555 0.80228 0.0
H503 H 0.5308 0.40737 0.87879 0.0
Mn504 Mn 0.25835 0.84599 0.0144 0.0
Mn505 Mn 0.29392 0.87571 0.85539 0.0
C506 C 0.25693 0.81978 0.88801 0.0
C507 C 0.26164 0.81388 0.12713 0.0
C508 C 0.23268 0.89959 0.9158 0.0
O509 O 0.28697 0.87849 0.07068 0.0
O510 O 0.31189 0.89455 0.96143 0.0
C511 C 0.35686 0.8511 0.88388 0.0
N512 N 0.33076 0.85322 0.83449 0.0
C513 C 0.3528 0.82189 0.72613 0.0
C514 C 0.38 0.81956 0.77562 0.0
C515 C 0.38199 0.83415 0.85492 0.0
C516 C 0.32861 0.83929 0.75804 0.0
H517 H 0.35851 0.86229 0.94485 0.0
C518 C 0.3075 0.89489 0.0392 0.0
O519 O 0.24061 0.83514 0.12181 0.0
O520 O 0.28121 0.81256 0.06953 0.0
N521 N 0.27879 0.85892 0.74976 0.0
C522 C 0.25078 0.86303 0.71031 0.0
C523 C 0.24469 0.84909 0.63124 0.0
C524 C 0.26748 0.83124 0.59338 0.0
C525 C 0.29626 0.82766 0.63475 0.0
C526 C 0.30106 0.84222 0.71328 0.0
H527 H 0.23314 0.87666 0.73918 0.0
O528 O 0.23634 0.81422 0.94081 0.0
O529 O 0.27757 0.84062 0.91083 0.0
O530 O 0.22918 0.88014 0.97186 0.0
O531 O 0.25608 0.89975 0.87092 0.0
C532 C 0.32026 0.80997 0.60149 0.0
C533 C 0.34854 0.80715 0.64705 0.0
H534 H 0.39936 0.80633 0.75375 0.0
H535 H 0.40284 0.8323 0.89366 0.0
H536 H 0.22243 0.85198 0.5997 0.0
H537 H 0.26261 0.82032 0.53267 0.0
H538 H 0.31717 0.79832 0.54107 0.0
H539 H 0.36676 0.79336 0.62101 0.0
Mn540 Mn 0.9375 0.52991 0.76992 0.0
Mn541 Mn 0.91165 0.4956 0.93609 0.0
C542 C 0.96602 0.53303 0.89324 0.0
C543 C 0.96662 0.52625 0.65177 0.0
C544 C 0.88561 0.55565 0.87362 0.0
O545 O 0.90418 0.50036 0.72016 0.0
O546 O 0.89204 0.47581 0.83383 0.0
C547 C 0.93918 0.43378 0.90921 0.0
N548 N 0.93592 0.45992 0.95785 0.0
C549 C 0.96965 0.44033 0.0651 0.0
C550 C 0.97326 0.41313 0.0163 0.0
C551 C 0.958 0.40988 0.93796 0.0
C552 C 0.95056 0.46334 0.03322 0.0
H553 H 0.92754 0.43123 0.84889 0.0
C554 C 0.88938 0.47961 0.75591 0.0
O555 O 0.94526 0.547 0.65991 0.0
O556 O 0.96988 0.50703 0.71024 0.0
N557 N 0.92915 0.5125 0.03917 0.0
C558 C 0.92399 0.54054 0.07747 0.0
C559 C 0.93798 0.54768 0.15598 0.0
C560 C 0.95698 0.52588 0.19446 0.0
C561 C 0.96159 0.49702 0.15436 0.0
C562 C 0.94684 0.49111 0.0765 0.0
H563 H 0.9094 0.5574 0.04825 0.0
O564 O 0.97048 0.55291 0.83758 0.0
O565 O 0.94515 0.51203 0.8747 0.0
O566 O 0.90434 0.55913 0.81608 0.0
O567 O 0.8859 0.53243 0.91945 0.0
C568 C 0.98047 0.47398 0.18831 0.0
C569 C 0.98459 0.44571 0.14357 0.0
H570 H 0.98784 0.39468 0.03812 0.0
H571 H 0.96077 0.389 0.89981 0.0
H572 H 0.93426 0.56998 0.18661 0.0
H573 H 0.96795 0.53156 0.25465 0.0
H574 H 0.99217 0.47791 0.24842 0.0
H575 H 0.99949 0.42834 0.16985 0.0
C576 C 0.28177 0.29593 0.27672 0.0
C577 C 0.26216 0.29251 0.20531 0.0
C578 C 0.28201 0.27399 0.33798 0.0
C579 C 0.26271 0.24762 0.3304 0.0
H580 H 0.29703 0.31576 0.28568 0.0
H581 H 0.29726 0.27801 0.39229 0.0
S582 S 0.20805 0.22687 0.15343 0.0
N583 N 0.2235 0.25994 0.12949 0.0
N584 N 0.22411 0.21896 0.24427 0.0
C585 C 0.24326 0.24371 0.25886 0.0
C586 C 0.24294 0.26605 0.19653 0.0
C587 C 0.99687 0.99412 0.50395 0.0
C588 C 0.98939 0.01928 0.45552 0.0
C589 C 0.02007 0.99681 0.56699 0.0
C590 C 0.0372 0.0243 0.58091 0.0
H591 H 0.9842 0.97256 0.4944 0.0
H592 H 0.02442 0.97741 0.60567 0.0
S593 S 0.0295 0.09507 0.46273 0.0
N594 N 1.00288 0.07131 0.41967 0.0
N595 N 0.0463 0.07644 0.53912 0.0
C596 C 0.03047 0.04927 0.53147 0.0
C597 C 1.00686 0.04659 0.46759 0.0
C598 C 0.24036 0.76671 0.70065 0.0
C599 C 0.26777 0.74969 0.69643 0.0
C600 C 0.23708 0.7899 0.76249 0.0
C601 C 0.26143 0.79716 0.82006 0.0
H602 H 0.22134 0.76195 0.65612 0.0
H603 H 0.21548 0.80226 0.7652 0.0
S604 S 0.33664 0.75725 0.83901 0.0
N605 N 0.31912 0.74074 0.75557 0.0
N606 N 0.3126 0.7837 0.87409 0.0
C607 C 0.28876 0.77998 0.81705 0.0
C608 C 0.29217 0.7566 0.75378 0.0
C609 C 0.51315 1.00627 0.08226 0.0
C610 C 0.48689 0.02538 0.07939 0.0
C611 C 0.5349 1.00646 0.02096 0.0
C612 C 0.53144 0.02584 0.95409 0.0
H613 H 0.51721 0.99107 0.1328 0.0
H614 H 0.5546 0.99129 0.02625 0.0
S615 S 0.46619 0.07955 0.91532 0.0
N616 N 0.45837 0.06373 1.00269 0.0
N617 N 0.49906 0.06418 0.88735 0.0
C618 C 0.50517 0.04498 0.94999 0.0
C619 C 0.48298 0.04473 0.01256 0.0
C620 C 0.24317 0.7941 0.25949 0.0
C621 C 0.26262 0.79094 0.19279 0.0
C622 C 0.24348 0.77242 0.32129 0.0
C623 C 0.2632 0.7466 0.319 0.0
H624 H 0.22767 0.81356 0.26443 0.0
H625 H 0.22833 0.77626 0.37192 0.0
S626 S 0.31755 0.72664 0.15519 0.0
N627 N 0.3015 0.75917 0.12665 0.0
N628 N 0.30194 0.71864 0.24265 0.0
C629 C 0.28245 0.7429 0.25205 0.0
C630 C 0.2822 0.76499 0.1891 0.0
C631 C 0.50584 0.99999 0.46154 0.0
C632 C 0.48844 0.02714 0.45612 0.0
C633 C 0.52874 0.9972 0.52429 0.0
C634 C 0.53554 0.02195 0.58097 0.0
H635 H 0.50161 0.98077 0.41724 0.0
H636 H 0.54139 0.97576 0.52806 0.0
S637 S 0.49532 0.09714 0.59514 0.0
N638 N 0.47889 0.07882 0.51276 0.0
N639 N 0.52186 0.0735 0.63188 0.0
C640 C 0.51821 0.04915 0.57635 0.0
C641 C 0.4949 0.05193 0.51267 0.0
C642 C 0.23546 0.25657 0.756 0.0
C643 C 0.26015 0.24927 0.70605 0.0
C644 C 0.23855 0.27974 0.81901 0.0
C645 C 0.26596 0.29704 0.83146 0.0
H646 H 0.21389 0.24391 0.74729 0.0
H647 H 0.21944 0.28407 0.85851 0.0
S648 S 0.33579 0.28938 0.71024 0.0
N649 N 0.31182 0.26277 0.66806 0.0
N650 N 0.3177 0.30618 0.78752 0.0
C651 C 0.29057 0.29033 0.781 0.0
C652 C 0.28748 0.26672 0.71711 0.0
C653 C 0.03531 0.0418 0.02754 0.0
C654 C 0.03159 0.02237 0.95587 0.0
C655 C 0.01349 0.04214 0.08893 0.0
C656 C 0.98692 0.02315 0.08122 0.0
H657 H 0.05532 0.05679 0.03668 0.0
H658 H 0.01777 0.05724 0.14343 0.0
S659 S 0.96526 0.96926 0.90321 0.0
N660 N 0.99845 0.98436 0.87937 0.0
N661 N 0.95769 0.98514 0.99448 0.0
C662 C 0.98267 1.00393 0.00932 0.0
C663 C 1.0049 1.00351 0.94683 0.0
C664 C 0.7428 0.75015 0.77762 0.0
C665 C 0.76265 0.75325 0.84855 0.0
C666 C 0.74275 0.77206 0.71641 0.0
C667 C 0.76247 0.79814 0.7234 0.0
H668 H 0.72723 0.73056 0.76891 0.0
H669 H 0.72723 0.76822 0.66257 0.0
S670 S 0.81786 0.81804 0.89924 0.0
N671 N 0.80197 0.78523 0.92364 0.0
N672 N 0.80173 0.8262 0.80863 0.0
C673 C 0.78216 0.80178 0.79452 0.0
C674 C 0.78229 0.77942 0.85695 0.0
C675 C 0.73602 0.28946 0.28358 0.0
C676 C 0.76059 0.29572 0.34122 0.0
C677 C 0.73845 0.26617 0.22166 0.0
C678 C 0.76504 0.24791 0.21797 0.0
H679 H 0.71508 0.30294 0.28565 0.0
H680 H 0.71954 0.26253 0.17612 0.0
S681 S 0.8338 0.25247 0.36161 0.0
N682 N 0.8109 0.28005 0.39624 0.0
N683 N 0.81572 0.23657 0.27818 0.0
C684 C 0.78948 0.25358 0.2761 0.0
C685 C 0.78701 0.27721 0.33909 0.0
C686 C 0.78156 0.24897 0.77607 0.0
C687 C 0.76278 0.25265 0.84396 0.0
C688 C 0.78112 0.27056 0.71398 0.0
C689 C 0.76194 0.29681 0.71719 0.0
H690 H 0.79661 0.22917 0.77044 0.0
H691 H 0.79579 0.26636 0.66246 0.0
S692 S 0.70955 0.31827 0.88433 0.0
N693 N 0.72517 0.28546 0.91224 0.0
N694 N 0.7245 0.32573 0.79561 0.0
C695 C 0.74334 0.30101 0.78523 0.0
C696 C 0.74373 0.27905 0.8485 0.0
C697 C 0.73692 0.75372 0.27215 0.0
C698 C 0.76176 0.74683 0.2223 0.0
C699 C 0.73953 0.77699 0.33495 0.0
C700 C 0.76669 0.79464 0.34773 0.0
H701 H 0.7154 0.74103 0.2625 0.0
H702 H 0.72011 0.78138 0.37334 0.0
S703 S 0.83691 0.78789 0.22785 0.0
N704 N 0.81333 0.76103 0.18515 0.0
N705 N 0.81854 0.80424 0.30525 0.0
C706 C 0.79166 0.78797 0.29846 0.0
C707 C 0.78896 0.76443 0.23428 0.0
C708 C 0.52801 0.54729 0.03747 0.0
C709 C 0.53507 0.52241 0.08722 0.0
C710 C 0.50489 0.54448 0.9743 0.0
C711 C 0.48737 0.51719 0.96158 0.0
H712 H 0.54079 0.5688 0.04655 0.0
H713 H 0.5007 0.56375 0.93507 0.0
S714 S 0.49464 0.44682 0.08159 0.0
N715 N 0.52135 0.47058 0.12418 0.0
N716 N 0.47793 0.46528 1.00471 0.0
C717 C 0.49393 0.49235 0.01165 0.0
C718 C 0.51753 0.49513 0.07559 0.0
C719 C 0.03488 0.50433 0.52266 0.0
C720 C 0.03241 0.52434 0.45693 0.0
C721 C 0.01324 0.5049 0.58431 0.0
C722 C 0.98808 0.52543 0.5828 0.0
H723 H 0.05374 0.48809 0.52682 0.0
H724 H 0.0165 0.4892 0.63402 0.0
S725 S 0.97027 0.58187 0.4222 0.0
N726 N 1.0022 0.56491 0.39294 0.0
N727 N 0.96163 0.56581 0.50858 0.0
C728 C 0.98513 0.54538 0.517 0.0
C729 C 1.00724 0.54489 0.45424 0.0
C730 C 0.02863 0.49783 0.02652 0.0
C731 C 0.03678 0.52219 0.0833 0.0
C732 C 1.0056 0.50167 0.96465 0.0
C733 C 0.9894 0.52959 0.95998 0.0
H734 H 0.04025 0.4758 0.0297 0.0
H735 H 1.0003 0.48265 0.92046 0.0
S736 S 0.99993 0.59909 0.09962 0.0
N737 N 0.0255 0.57425 0.13529 0.0
N738 N 0.98245 0.58163 0.01745 0.0
C739 C 0.99722 0.55404 0.01655 0.0
C740 C 0.02063 0.55014 0.07951 0.0
C741 C 0.51439 0.53742 0.5916 0.0
C742 C 0.48775 0.51853 0.58367 0.0
C743 C 0.53628 0.53701 0.53047 0.0
C744 C 0.53259 0.51762 0.45872 0.0
H745 H 0.51861 0.5526 0.64596 0.0
H746 H 0.55625 0.55204 0.5397 0.0
S747 S 0.46637 0.46439 0.40601 0.0
N748 N 0.45867 0.48036 0.4971 0.0
N749 N 0.49959 0.47948 0.38228 0.0
C750 C 0.50595 0.49869 0.44968 0.0
C751 C 0.48363 0.49916 0.51201 0.0
C752 C 0.14392 0.44021 0.08302 0.0
C753 C 0.15415 0.45953 0.1507 0.0
C754 C 0.16341 0.41806 0.04791 0.0
C755 C 0.19385 0.41412 0.07965 0.0
H756 H 0.12105 0.44309 0.0548 0.0
H757 H 0.15477 0.40453 0.99382 0.0
S758 S 0.23094 0.45802 0.25998 0.0
N759 N 0.19596 0.47277 0.25073 0.0
N760 N 0.23264 0.43056 0.18611 0.0
C761 C 0.20378 0.43223 0.15041 0.0
C762 C 0.18393 0.45513 0.18553 0.0
C763 C 0.83845 0.93019 0.47356 0.0
C764 C 0.81601 0.92138 0.41116 0.0
C765 C 0.8616 0.95197 0.46002 0.0
C766 C 0.86396 0.96527 0.38284 0.0
H767 H 0.8378 0.92072 0.53412 0.0
H768 H 0.87775 0.95848 0.51073 0.0
S769 S 0.81147 0.95066 0.19824 0.0
N770 N 0.79774 0.92868 0.26856 0.0
N771 N 0.84203 0.96825 0.24326 0.0
C772 C 0.84225 0.95632 0.31938 0.0
C773 C 0.81812 0.93481 0.33351 0.0
C774 C 0.34212 0.63946 0.7159 0.0
C775 C 0.32391 0.62983 0.64554 0.0
C776 C 0.36418 0.6199 0.75114 0.0
C777 C 0.36914 0.58992 0.71705 0.0
H778 H 0.33872 0.66203 0.74543 0.0
H779 H 0.37693 0.62817 0.80689 0.0
S780 S 0.32851 0.5546 0.52899 0.0
N781 N 0.31296 0.58921 0.54017 0.0
N782 N 0.35489 0.55231 0.60539 0.0
C783 C 0.35213 0.58063 0.64379 0.0
C784 C 0.32938 0.60061 0.6083 0.0
C785 C 0.67514 0.10944 0.97869 0.0
C786 C 0.69739 0.12825 0.94469 0.0
C787 C 0.65638 0.08907 0.92887 0.0
C788 C 0.65888 0.08658 0.84258 0.0
H789 H 0.67192 0.11049 0.0446 0.0
H790 H 0.63941 0.07555 0.95853 0.0
S791 S 0.71418 0.12988 0.72213 0.0
N792 N 0.7213 0.14244 0.81876 0.0
N793 N 0.68616 0.1042 0.72528 0.0
C794 C 0.68136 0.1049 0.80763 0.0
C795 C 0.70053 0.12567 0.8585 0.0
C796 C 0.1836 0.59933 0.31473 0.0
C797 C 0.16086 0.58174 0.35076 0.0
C798 C 0.20339 0.61934 0.36271 0.0
C799 C 0.20136 0.62276 0.44905 0.0
H800 H 0.18604 0.59798 0.24848 0.0
H801 H 0.22015 0.63251 0.33133 0.0
S802 S 0.14621 0.58143 0.57478 0.0
N803 N 0.1379 0.56866 0.47888 0.0
N804 N 0.17497 0.6061 0.56903 0.0
C805 C 0.17909 0.60483 0.4863 0.0
C806 C 0.15893 0.58441 0.4373 0.0
C807 C 0.64504 0.94564 0.57232 0.0
C808 C 0.65357 0.96321 0.64473 0.0
C809 C 0.66482 0.92343 0.53886 0.0
C810 C 0.6939 0.91752 0.57701 0.0
H811 H 0.62314 0.94959 0.53995 0.0
H812 H 0.65737 0.91119 0.48158 0.0
S813 S 0.7261 0.95602 0.77187 0.0
N814 N 0.69218 0.97251 0.75627 0.0
N815 N 0.72938 0.93011 0.69474 0.0
C816 C 0.70203 0.93384 0.65226 0.0
C817 C 0.68185 0.95684 0.68581 0.0
C818 C 0.36695 0.43833 0.88395 0.0
C819 C 0.35934 0.46989 0.88231 0.0
C820 C 0.34505 0.41607 0.90387 0.0
C821 C 0.31466 0.42458 0.92109 0.0
H822 H 0.39012 0.43089 0.8713 0.0
H823 H 0.35168 0.39199 0.90378 0.0
S824 S 0.28292 0.50388 0.92335 0.0
N825 N 0.31925 0.50831 0.9 0.0
N826 N 0.27806 0.46649 0.93422 0.0
C827 C 0.30676 0.45593 0.91877 0.0
C828 C 0.3291 0.47857 0.90035 0.0
C829 C 0.81048 0.10874 0.23396 0.0
C830 C 0.81421 0.12413 0.16009 0.0
C831 C 0.83342 0.08982 0.2672 0.0
C832 C 0.86117 0.08476 0.22788 0.0
H833 H 0.78982 0.11171 0.26828 0.0
H834 H 0.8293 0.07912 0.3248 0.0
S835 S 0.88257 0.11773 0.03108 0.0
N836 N 0.84797 0.13193 0.04706 0.0
N837 N 0.89102 0.09563 0.10931 0.0
C838 C 0.86511 0.09895 0.15258 0.0
C839 C 0.84172 0.11879 0.11889 0.0
C840 C 0.85441 0.6334 0.94543 0.0
C841 C 0.82414 0.62591 0.96497 0.0
C842 C 0.87371 0.611 0.9096 0.0
C843 C 0.86341 0.58037 0.89378 0.0
H844 H 0.86356 0.65636 0.96074 0.0
H845 H 0.89734 0.61721 0.89895 0.0
S846 S 0.78535 0.54997 0.92866 0.0
N847 N 0.78414 0.58662 0.96129 0.0
N848 N 0.82043 0.54436 0.89574 0.0
C849 C 0.83278 0.57307 0.91023 0.0
C850 C 0.81311 0.59591 0.94549 0.0
C851 C 0.21099 0.09227 0.61353 0.0
C852 C 0.20499 0.12378 0.62859 0.0
C853 C 0.18935 0.06959 0.63068 0.0
C854 C 0.16108 0.07742 0.6655 0.0
H855 H 0.23273 0.08509 0.58885 0.0
H856 H 0.19506 0.04559 0.6175 0.0
S857 S 0.13479 0.15701 0.71806 0.0
N858 N 0.16914 0.16195 0.68067 0.0
N859 N 0.12846 0.11931 0.71422 0.0
C860 C 0.15497 0.10897 0.68162 0.0
C861 C 0.17691 0.13214 0.66281 0.0
C862 C 0.71392 0.4365 0.31855 0.0
C863 C 0.71003 0.42088 0.39195 0.0
C864 C 0.69097 0.45538 0.28513 0.0
C865 C 0.66298 0.4601 0.32361 0.0
H866 H 0.73471 0.43373 0.28466 0.0
H867 H 0.69523 0.46623 0.22781 0.0
S868 S 0.64109 0.42636 0.519 0.0
N869 N 0.67589 0.41251 0.5038 0.0
N870 N 0.63276 0.44861 0.44102 0.0
C871 C 0.65888 0.44567 0.39851 0.0
C872 C 0.68232 0.42593 0.43249 0.0
C873 C 0.36623 0.9569 0.11171 0.0
C874 C 0.36772 0.95508 0.19828 0.0
C875 C 0.34671 0.93746 0.06126 0.0
C876 C 0.32765 0.91536 0.09497 0.0
H877 H 0.38039 0.97338 0.08216 0.0
H878 H 0.34661 0.93993 0.99507 0.0
S879 S 0.32267 0.90093 0.31818 0.0
N880 N 0.34817 0.92915 0.3157 0.0
N881 N 0.31164 0.89269 0.22088 0.0
C882 C 0.32877 0.91329 0.18151 0.0
C883 C 0.34874 0.93306 0.23303 0.0
C884 C 0.8489 0.43801 0.56878 0.0
C885 C 0.82867 0.41737 0.60404 0.0
C886 C 0.86816 0.45814 0.61809 0.0
C887 C 0.86821 0.45845 0.70497 0.0
H888 H 0.84994 0.43875 0.50228 0.0
H889 H 0.88332 0.47339 0.58753 0.0
S890 S 0.81948 0.40903 0.8288 0.0
N891 N 0.8099 0.39857 0.73187 0.0
N892 N 0.84585 0.43632 0.82433 0.0
C893 C 0.84799 0.43798 0.74121 0.0
C894 C 0.82832 0.41752 0.69093 0.0
C895 C 0.32959 0.09407 0.51404 0.0
C896 C 0.32396 0.12167 0.47407 0.0
C897 C 0.34841 0.07114 0.48057 0.0
C898 C 0.3631 0.07472 0.4057 0.0
H899 H 0.31944 0.0901 0.57246 0.0
H900 H 0.3519 0.05064 0.51553 0.0
S901 S 0.3549 0.14257 0.27454 0.0
N902 N 0.33342 0.15116 0.3538 0.0
N903 N 0.36957 0.10812 0.29089 0.0
C904 C 0.35712 0.10203 0.36373 0.0
C905 C 0.33737 0.12542 0.39775 0.0
C906 C 0.68457 0.58217 0.21817 0.0
C907 C 0.65722 0.58022 0.16863 0.0
C908 C 0.70787 0.60347 0.20284 0.0
C909 C 0.70489 0.62385 0.13714 0.0
H910 H 0.68846 0.56637 0.26746 0.0
H911 H 0.72865 0.60349 0.24254 0.0
S912 S 0.63587 0.62955 0.99419 0.0
N913 N 0.6272 0.6016 0.05514 0.0
N914 N 0.67084 0.64153 0.02549 0.0
C915 C 0.677 0.62268 0.08881 0.0
C916 C 0.65328 0.60089 0.10466 0.0
C917 C 0.17672 0.91559 0.9079 0.0
C918 C 0.20801 0.92236 0.89657 0.0
C919 C 0.15303 0.9346 0.87644 0.0
C920 C 0.15999 0.96096 0.83326 0.0
H921 H 0.17042 0.89467 0.93721 0.0
H922 H 0.12922 0.92784 0.88242 0.0
S923 S 0.2377 0.99122 0.79607 0.0
N924 N 0.24427 0.95941 0.84619 0.0
N925 N 0.19983 0.99436 0.78665 0.0
C926 C 0.19097 0.96889 0.82563 0.0
C927 C 0.21497 0.94983 0.85757 0.0
loop_
_geom_bond_atom_site_label_1
_geom_bond_atom_site_label_2
_geom_bond_distance
_geom_bond_site_symmetry_2
_ccdc_geom_bond_type
Mn0 O5 2.095 . S
Mn0 O15 2.162 . S
Mn0 O16 2.297 . S
Mn0 O24 2.385 1_554 S
Mn0 O25 2.209 1_554 S
Mn0 O26 2.094 . S
Mn1 O6 2.121 . S
Mn1 N8 2.257 . S
Mn1 N17 2.282 . S
Mn1 O25 2.215 . S
Mn1 O27 2.117 . S
C2 O24 1.234 . S
C2 O25 1.283 . S
C3 O15 1.281 . S
C3 O16 1.236 . S
C4 O26 1.240 1_556 S
C4 O27 1.264 . S
O5 Mn0 2.095 . S
O5 C14 1.250 . S
O6 Mn1 2.121 . S
O6 C14 1.258 1_556 S
C7 N8 1.326 . S
C7 C11 1.460 . S
C7 H13 0.929 . S
N8 Mn1 2.257 . S
N8 C7 1.326 . S
N8 C12 1.362 . S
C9 C10 1.258 . S
C9 C12 1.431 . S
C9 C29 1.449 . S
C10 C9 1.258 . S
C10 C11 1.477 . S
C10 H30 0.931 . S
C11 C7 1.460 . S
C11 C10 1.477 . S
C11 H31 0.930 . S
C12 N8 1.362 . S
C12 C9 1.431 . S
C12 C22 1.476 . S
H13 C7 0.929 . S
C14 O5 1.250 . S
C14 O6 1.258 1_554 S
O15 Mn0 2.162 . S
O15 C3 1.281 . S
O16 Mn0 2.297 . S
O16 C3 1.236 . S
N17 Mn1 2.282 . S
N17 C18 1.328 . S
N17 C22 1.318 . S
C18 N17 1.328 . S
C18 C19 1.457 . S
C18 H23 0.929 . S
C19 C18 1.457 . S
C19 C20 1.291 . S
C19 H32 0.931 . S
C20 C19 1.291 . S
C20 C21 1.373 . S
C20 H33 0.929 . S
C21 C20 1.373 . S
C21 C22 1.396 . S
C21 C28 1.403 . S
C22 C12 1.476 . S
C22 N17 1.318 . S
C22 C21 1.396 . S
H23 C18 0.929 . S
O24 Mn0 2.385 1_556 S
O24 C2 1.234 . S
O25 Mn0 2.209 1_556 S
O25 Mn1 2.215 . S
O25 C2 1.283 . S
O26 Mn0 2.094 . S
O26 C4 1.240 1_554 S
O27 Mn1 2.117 . S
O27 C4 1.264 . S
C28 C21 1.403 . S
C28 C29 1.399 . S
C28 H34 0.929 . S
C29 C9 1.449 . S
C29 C28 1.399 . S
C29 H35 0.930 . S
H30 C10 0.931 . S
H31 C11 0.930 . S
H32 C19 0.931 . S
H33 C20 0.929 . S
H34 C28 0.929 . S
H35 C29 0.930 . S
Mn36 O41 2.102 . S
Mn36 O51 2.158 1_545 S
Mn36 O52 2.303 . S
Mn36 O60 2.382 1_545 S
Mn36 O61 2.214 . S
Mn36 O62 2.085 1_545 S
Mn37 O42 2.121 . S
Mn37 N44 2.257 . S
Mn37 N53 2.282 . S
Mn37 O61 2.215 . S
Mn37 O63 2.117 1_545 S
C38 O60 1.234 1_545 S
C38 O61 1.283 . S
C39 O51 1.281 1_545 S
C39 O52 1.236 . S
C40 O62 1.240 . S
C40 O63 1.264 . S
O41 Mn36 2.102 . S
O41 C50 1.250 . S
O42 Mn37 2.121 . S
O42 C50 1.258 . S
C43 N44 1.326 . S
C43 C47 1.460 . S
C43 H49 0.929 . S
N44 Mn37 2.257 . S
N44 C43 1.326 . S
N44 C48 1.362 . S
C45 C46 1.258 . S
C45 C48 1.431 . S
C45 C65 1.449 . S
C46 C45 1.258 . S
C46 C47 1.477 . S
C46 H66 0.931 . S
C47 C43 1.460 . S
C47 C46 1.477 . S
C47 H67 0.930 . S
C48 N44 1.362 . S
C48 C45 1.431 . S
C48 C58 1.476 . S
H49 C43 0.929 . S
C50 O41 1.250 . S
C50 O42 1.258 . S
O51 Mn36 2.158 1_565 S
O51 C39 1.281 1_565 S
O52 Mn36 2.303 . S
O52 C39 1.236 . S
N53 Mn37 2.282 . S
N53 C54 1.328 1_545 S
N53 C58 1.318 . S
C54 N53 1.328 1_565 S
C54 C55 1.457 . S
C54 H59 0.929 . S
C55 C54 1.457 . S
C55 C56 1.291 . S
C55 H68 0.931 . S
C56 C55 1.291 . S
C56 C57 1.373 1_565 S
C56 H69 0.929 . S
C57 C56 1.373 1_545 S
C57 C58 1.396 . S
C57 C64 1.403 . S
C58 C48 1.476 . S
C58 N53 1.318 . S
C58 C57 1.396 . S
H59 C54 0.929 . S
O60 Mn36 2.382 1_565 S
O60 C38 1.234 1_565 S
O61 Mn36 2.214 . S
O61 Mn37 2.215 . S
O61 C38 1.283 . S
O62 Mn36 2.085 1_565 S
O62 C40 1.240 . S
O63 Mn37 2.117 1_565 S
O63 C40 1.264 . S
C64 C57 1.403 . S
C64 C65 1.399 . S
C64 H70 0.929 . S
C65 C45 1.449 . S
C65 C64 1.399 . S
C65 H71 0.930 . S
H66 C46 0.931 . S
H67 C47 0.930 . S
H68 C55 0.931 . S
H69 C56 0.929 . S
H70 C64 0.929 . S
H71 C65 0.930 . S
Mn72 O77 2.095 . S
Mn72 O87 2.162 . S
Mn72 O88 2.297 . S
Mn72 O96 2.385 . S
Mn72 O97 2.209 . S
Mn72 O98 2.094 . S
Mn73 O78 2.121 . S
Mn73 N80 2.257 . S
Mn73 N89 2.282 . S
Mn73 O97 2.215 . S
Mn73 O99 2.117 . S
C74 O96 1.234 . S
C74 O97 1.283 . S
C75 O87 1.281 . S
C75 O88 1.236 . S
C76 O98 1.240 . S
C76 O99 1.264 . S
O77 Mn72 2.095 . S
O77 C86 1.250 . S
O78 Mn73 2.121 . S
O78 C86 1.258 . S
C79 N80 1.326 . S
C79 C83 1.460 . S
C79 H85 0.929 . S
N80 Mn73 2.257 . S
N80 C79 1.326 . S
N80 C84 1.362 . S
C81 C82 1.258 . S
C81 C84 1.431 . S
C81 C101 1.449 . S
C82 C81 1.258 . S
C82 C83 1.477 . S
C82 H102 0.931 . S
C83 C79 1.460 . S
C83 C82 1.477 . S
C83 H103 0.930 . S
C84 N80 1.362 . S
C84 C81 1.431 . S
C84 C94 1.476 . S
H85 C79 0.929 . S
C86 O77 1.250 . S
C86 O78 1.258 . S
O87 Mn72 2.162 . S
O87 C75 1.281 . S
O88 Mn72 2.297 . S
O88 C75 1.236 . S
N89 Mn73 2.282 . S
N89 C90 1.328 . S
N89 C94 1.318 . S
C90 N89 1.328 . S
C90 C91 1.457 . S
C90 H95 0.929 . S
C91 C90 1.457 . S
C91 C92 1.291 . S
C91 H104 0.931 . S
C92 C91 1.291 . S
C92 C93 1.373 . S
C92 H105 0.929 . S
C93 C92 1.373 . S
C93 C94 1.396 . S
C93 C100 1.403 . S
C94 C84 1.476 . S
C94 N89 1.318 . S
C94 C93 1.396 . S
H95 C90 0.929 . S
O96 Mn72 2.385 . S
O96 C74 1.234 . S
O97 Mn72 2.209 . S
O97 Mn73 2.215 . S
O97 C74 1.283 . S
O98 Mn72 2.094 . S
O98 C76 1.240 . S
O99 Mn73 2.117 . S
O99 C76 1.264 . S
C100 C93 1.403 . S
C100 C101 1.399 . S
C100 H106 0.929 1_556 S
C101 C81 1.449 . S
C101 C100 1.399 . S
C101 H107 0.930 . S
H102 C82 0.931 . S
H103 C83 0.930 . S
H104 C91 0.931 . S
H105 C92 0.929 . S
H106 C100 0.929 1_554 S
H107 C101 0.930 . S
Mn108 O113 2.105 . S
Mn108 O123 2.154 1_545 S
Mn108 O124 2.306 . S
Mn108 O132 2.381 1_545 S
Mn108 O133 2.219 . S
Mn108 O134 2.080 1_545 S
Mn109 O114 2.121 . S
Mn109 N116 2.257 . S
Mn109 N125 2.282 . S
Mn109 O133 2.215 . S
Mn109 O135 2.117 1_545 S
C110 O132 1.234 1_545 S
C110 O133 1.283 . S
C111 O123 1.281 1_545 S
C111 O124 1.236 . S
C112 O134 1.240 . S
C112 O135 1.264 . S
O113 Mn108 2.105 . S
O113 C122 1.250 . S
O114 Mn109 2.121 . S
O114 C122 1.258 . S
C115 N116 1.326 . S
C115 C119 1.460 . S
C115 H121 0.929 . S
N116 Mn109 2.257 . S
N116 C115 1.326 . S
N116 C120 1.362 . S
C117 C118 1.258 . S
C117 C120 1.431 . S
C117 C137 1.449 . S
C118 C117 1.258 . S
C118 C119 1.477 . S
C118 H138 0.931 . S
C119 C115 1.460 . S
C119 C118 1.477 . S
C119 H139 0.930 . S
C120 N116 1.362 . S
C120 C117 1.431 . S
C120 C130 1.476 . S
H121 C115 0.929 . S
C122 O113 1.250 . S
C122 O114 1.258 . S
O123 Mn108 2.154 1_565 S
O123 C111 1.281 1_565 S
O124 Mn108 2.306 . S
O124 C111 1.236 . S
N125 Mn109 2.282 . S
N125 C126 1.328 1_545 S
N125 C130 1.318 . S
C126 N125 1.328 1_565 S
C126 C127 1.457 . S
C126 H131 0.929 . S
C127 C126 1.457 . S
C127 C128 1.291 . S
C127 H140 0.931 . S
C128 C127 1.291 . S
C128 C129 1.373 1_565 S
C128 H141 0.929 . S
C129 C128 1.373 1_545 S
C129 C130 1.396 . S
C129 C136 1.403 . S
C130 C120 1.476 . S
C130 N125 1.318 . S
C130 C129 1.396 . S
H131 C126 0.929 . S
O132 Mn108 2.381 1_565 S
O132 C110 1.234 1_565 S
O133 Mn108 2.219 . S
O133 Mn109 2.215 . S
O133 C110 1.283 . S
O134 Mn108 2.080 1_565 S
O134 C112 1.240 . S
O135 Mn109 2.117 1_565 S
O135 C112 1.264 . S
C136 C129 1.403 . S
C136 C137 1.399 . S
C136 H142 0.929 . S
C137 C117 1.449 . S
C137 C136 1.399 . S
C137 H143 0.930 . S
H138 C118 0.931 . S
H139 C119 0.930 . S
H140 C127 0.931 . S
H141 C128 0.929 . S
H142 C136 0.929 . S
H143 C137 0.930 . S
Mn144 O149 2.095 1_554 S
Mn144 O159 2.162 1_554 S
Mn144 O160 2.297 1_554 S
Mn144 O168 2.385 . S
Mn144 O169 2.209 . S
Mn144 O170 2.094 . S
Mn145 O150 2.121 . S
Mn145 N152 2.257 . S
Mn145 N161 2.282 . S
Mn145 O169 2.215 . S
Mn145 O171 2.117 . S
C146 O168 1.234 . S
C146 O169 1.283 . S
C147 O159 1.281 . S
C147 O160 1.236 . S
C148 O170 1.240 . S
C148 O171 1.264 . S
O149 Mn144 2.095 1_556 S
O149 C158 1.253 . S
O150 Mn145 2.121 . S
O150 C158 1.249 1_554 S
C151 N152 1.326 . S
C151 C155 1.460 . S
C151 H157 0.929 . S
N152 Mn145 2.257 . S
N152 C151 1.326 . S
N152 C156 1.362 . S
C153 C154 1.258 . S
C153 C156 1.431 . S
C153 C173 1.449 . S
C154 C153 1.258 . S
C154 C155 1.477 . S
C154 H174 0.931 . S
C155 C151 1.460 . S
C155 C154 1.477 . S
C155 H175 0.930 . S
C156 N152 1.362 . S
C156 C153 1.431 . S
C156 C166 1.476 . S
H157 C151 0.929 . S
C158 O149 1.253 . S
C158 O150 1.249 1_556 S
O159 Mn144 2.162 1_556 S
O159 C147 1.281 . S
O160 Mn144 2.297 1_556 S
O160 C147 1.236 . S
N161 Mn145 2.282 . S
N161 C162 1.328 . S
N161 C166 1.318 . S
C162 N161 1.328 . S
C162 C163 1.457 . S
C162 H167 0.929 . S
C163 C162 1.457 . S
C163 C164 1.291 . S
C163 H176 0.931 . S
C164 C163 1.291 . S
C164 C165 1.373 . S
C164 H177 0.929 . S
C165 C164 1.373 . S
C165 C166 1.396 . S
C165 C172 1.403 . S
C166 C156 1.476 . S
C166 N161 1.318 . S
C166 C165 1.396 . S
H167 C162 0.929 . S
O168 Mn144 2.385 . S
O168 C146 1.234 . S
O169 Mn144 2.209 . S
O169 Mn145 2.215 . S
O169 C146 1.283 . S
O170 Mn144 2.094 . S
O170 C148 1.240 . S
O171 Mn145 2.117 . S
O171 C148 1.264 . S
C172 C165 1.403 . S
C172 C173 1.399 . S
C172 H178 0.929 . S
C173 C153 1.449 . S
C173 C172 1.399 . S
C173 H179 0.930 . S
H174 C154 0.931 . S
H175 C155 0.930 . S
H176 C163 0.931 . S
H177 C164 0.929 . S
H178 C172 0.929 . S
H179 C173 0.930 . S
Mn180 O185 2.095 1_545 S
Mn180 O195 2.162 . S
Mn180 O196 2.297 1_545 S
Mn180 O204 2.385 . S
Mn180 O205 2.209 1_545 S
Mn180 O206 2.094 . S
Mn181 O186 2.121 . S
Mn181 N188 2.257 . S
Mn181 N197 2.282 1_565 S
Mn181 O205 2.215 . S
Mn181 O207 2.117 1_565 S
C182 O204 1.234 . S
C182 O205 1.283 1_545 S
C183 O195 1.281 . S
C183 O196 1.236 1_545 S
C184 O206 1.240 . S
C184 O207 1.264 . S
O185 Mn180 2.095 1_565 S
O185 C194 1.250 . S
O186 Mn181 2.121 . S
O186 C194 1.258 . S
C187 N188 1.326 . S
C187 C191 1.460 . S
C187 H193 0.929 . S
N188 Mn181 2.257 . S
N188 C187 1.326 . S
N188 C192 1.362 . S
C189 C190 1.258 . S
C189 C192 1.431 . S
C189 C209 1.449 . S
C190 C189 1.258 . S
C190 C191 1.477 . S
C190 H210 0.931 . S
C191 C187 1.460 . S
C191 C190 1.477 . S
C191 H211 0.930 . S
C192 N188 1.362 . S
C192 C189 1.431 . S
C192 C202 1.476 . S
H193 C187 0.929 . S
C194 O185 1.250 . S
C194 O186 1.258 . S
O195 Mn180 2.162 . S
O195 C183 1.281 . S
O196 Mn180 2.297 1_565 S
O196 C183 1.236 1_565 S
N197 Mn181 2.282 1_545 S
N197 C198 1.328 . S
N197 C202 1.318 1_545 S
C198 N197 1.328 . S
C198 C199 1.457 . S
C198 H203 0.929 . S
C199 C198 1.457 . S
C199 C200 1.291 . S
C199 H212 0.931 . S
C200 C199 1.291 . S
C200 C201 1.373 1_545 S
C200 H213 0.929 . S
C201 C200 1.373 1_565 S
C201 C202 1.396 . S
C201 C208 1.403 . S
C202 C192 1.476 . S
C202 N197 1.318 1_565 S
C202 C201 1.396 . S
H203 C198 0.929 . S
O204 Mn180 2.385 . S
O204 C182 1.234 . S
O205 Mn180 2.209 1_565 S
O205 Mn181 2.215 . S
O205 C182 1.283 1_565 S
O206 Mn180 2.094 . S
O206 C184 1.240 . S
O207 Mn181 2.117 1_545 S
O207 C184 1.264 . S
C208 C201 1.403 . S
C208 C209 1.399 . S
C208 H214 0.929 . S
C209 C189 1.449 . S
C209 C208 1.399 . S
C209 H215 0.930 . S
H210 C190 0.931 . S
H211 C191 0.930 . S
H212 C199 0.931 . S
H213 C200 0.929 . S
H214 C208 0.929 . S
H215 C209 0.930 . S
Mn216 O221 2.095 . S
Mn216 O231 2.162 . S
Mn216 O232 2.297 . S
Mn216 O240 2.385 . S
Mn216 O241 2.209 . S
Mn216 O242 2.094 . S
Mn217 O222 2.121 . S
Mn217 N224 2.257 . S
Mn217 N233 2.282 . S
Mn217 O241 2.215 . S
Mn217 O243 2.117 . S
C218 O240 1.234 . S
C218 O241 1.283 . S
C219 O231 1.281 . S
C219 O232 1.236 . S
C220 O242 1.240 . S
C220 O243 1.264 . S
O221 Mn216 2.095 . S
O221 C230 1.250 . S
O222 Mn217 2.121 . S
O222 C230 1.258 . S
C223 N224 1.326 . S
C223 C227 1.460 . S
C223 H229 0.929 . S
N224 Mn217 2.257 . S
N224 C223 1.326 . S
N224 C228 1.362 . S
C225 C226 1.258 . S
C225 C228 1.431 . S
C225 C245 1.449 . S
C226 C225 1.258 . S
C226 C227 1.477 . S
C226 H246 0.931 . S
C227 C223 1.460 . S
C227 C226 1.477 . S
C227 H247 0.930 . S
C228 N224 1.362 . S
C228 C225 1.431 . S
C228 C238 1.476 . S
H229 C223 0.929 . S
C230 O221 1.250 . S
C230 O222 1.258 . S
O231 Mn216 2.162 . S
O231 C219 1.281 . S
O232 Mn216 2.297 . S
O232 C219 1.236 . S
N233 Mn217 2.282 . S
N233 C234 1.328 . S
N233 C238 1.318 . S
C234 N233 1.328 . S
C234 C235 1.457 . S
C234 H239 0.929 . S
C235 C234 1.457 . S
C235 C236 1.291 . S
C235 H248 0.931 . S
C236 C235 1.291 . S
C236 C237 1.373 . S
C236 H249 0.929 . S
C237 C236 1.373 . S
C237 C238 1.396 . S
C237 C244 1.403 . S
C238 C228 1.476 . S
C238 N233 1.318 . S
C238 C237 1.396 . S
H239 C234 0.929 . S
O240 Mn216 2.385 . S
O240 C218 1.234 . S
O241 Mn216 2.209 . S
O241 Mn217 2.215 . S
O241 C218 1.283 . S
O242 Mn216 2.094 . S
O242 C220 1.240 . S
O243 Mn217 2.117 . S
O243 C220 1.264 . S
C244 C237 1.403 . S
C244 C245 1.399 . S
C244 H250 0.929 . S
C245 C225 1.449 . S
C245 C244 1.399 . S
C245 H251 0.930 . S
H246 C226 0.931 . S
H247 C227 0.930 . S
H248 C235 0.931 . S
H249 C236 0.929 . S
H250 C244 0.929 . S
H251 C245 0.930 . S
Mn252 O257 2.095 1_545 S
Mn252 O267 2.162 . S
Mn252 O268 2.297 1_545 S
Mn252 O276 2.385 . S
Mn252 O277 2.209 1_545 S
Mn252 O278 2.094 . S
Mn253 O258 2.121 . S
Mn253 N260 2.257 . S
Mn253 N269 2.282 1_565 S
Mn253 O277 2.215 . S
Mn253 O279 2.117 1_565 S
C254 O276 1.234 . S
C254 O277 1.283 1_545 S
C255 O267 1.281 . S
C255 O268 1.236 1_545 S
C256 O278 1.240 . S
C256 O279 1.264 . S
O257 Mn252 2.095 1_565 S
O257 C266 1.250 . S
O258 Mn253 2.121 . S
O258 C266 1.258 . S
C259 N260 1.326 . S
C259 C263 1.460 . S
C259 H265 0.929 . S
N260 Mn253 2.257 . S
N260 C259 1.326 . S
N260 C264 1.362 . S
C261 C262 1.258 . S
C261 C264 1.431 . S
C261 C281 1.449 . S
C262 C261 1.258 . S
C262 C263 1.477 . S
C262 H282 0.931 . S
C263 C259 1.460 . S
C263 C262 1.477 . S
C263 H283 0.930 . S
C264 N260 1.362 . S
C264 C261 1.431 . S
C264 C274 1.476 . S
H265 C259 0.929 . S
C266 O257 1.250 . S
C266 O258 1.258 . S
O267 Mn252 2.162 . S
O267 C255 1.281 . S
O268 Mn252 2.297 1_565 S
O268 C255 1.236 1_565 S
N269 Mn253 2.282 1_545 S
N269 C270 1.328 . S
N269 C274 1.318 1_545 S
C270 N269 1.328 . S
C270 C271 1.457 . S
C270 H275 0.929 . S
C271 C270 1.457 . S
C271 C272 1.291 . S
C271 H284 0.931 . S
C272 C271 1.291 . S
C272 C273 1.373 1_545 S
C272 H285 0.929 . S
C273 C272 1.373 1_565 S
C273 C274 1.396 . S
C273 C280 1.403 . S
C274 C264 1.476 . S
C274 N269 1.318 1_565 S
C274 C273 1.396 . S
H275 C270 0.929 . S
O276 Mn252 2.385 . S
O276 C254 1.234 . S
O277 Mn252 2.209 1_565 S
O277 Mn253 2.215 . S
O277 C254 1.283 1_565 S
O278 Mn252 2.094 . S
O278 C256 1.240 . S
O279 Mn253 2.117 1_545 S
O279 C256 1.264 . S
C280 C273 1.403 . S
C280 C281 1.399 . S
C280 H286 0.929 . S
C281 C261 1.449 . S
C281 C280 1.399 . S
C281 H287 0.930 . S
H282 C262 0.931 . S
H283 C263 0.930 . S
H284 C271 0.931 . S
H285 C272 0.929 . S
H286 C280 0.929 . S
H287 C281 0.930 . S
Mn288 O293 2.095 . S
Mn288 O303 2.162 . S
Mn288 O304 2.297 . S
Mn288 O312 2.385 . S
Mn288 O313 2.209 . S
Mn288 O314 2.094 . S
Mn289 O294 2.121 . S
Mn289 N296 2.257 . S
Mn289 N305 2.282 . S
Mn289 O313 2.215 . S
Mn289 O315 2.117 . S
C290 O312 1.234 . S
C290 O313 1.283 . S
C291 O303 1.281 . S
C291 O304 1.236 . S
C292 O314 1.240 . S
C292 O315 1.264 . S
O293 Mn288 2.095 . S
O293 C302 1.250 . S
O294 Mn289 2.121 . S
O294 C302 1.258 . S
C295 N296 1.326 . S
C295 C299 1.460 . S
C295 H301 0.929 . S
N296 Mn289 2.257 . S
N296 C295 1.326 . S
N296 C300 1.362 . S
C297 C298 1.258 . S
C297 C300 1.431 . S
C297 C317 1.449 . S
C298 C297 1.258 . S
C298 C299 1.477 . S
C298 H318 0.931 . S
C299 C295 1.460 . S
C299 C298 1.477 . S
C299 H319 0.930 . S
C300 N296 1.362 . S
C300 C297 1.431 . S
C300 C310 1.476 . S
H301 C295 0.929 . S
C302 O293 1.250 . S
C302 O294 1.258 . S
O303 Mn288 2.162 . S
O303 C291 1.281 . S
O304 Mn288 2.297 . S
O304 C291 1.236 . S
N305 Mn289 2.282 . S
N305 C306 1.328 . S
N305 C310 1.318 . S
C306 N305 1.328 . S
C306 C307 1.457 . S
C306 H311 0.929 . S
C307 C306 1.457 . S
C307 C308 1.291 . S
C307 H320 0.931 . S
C308 C307 1.291 . S
C308 C309 1.373 . S
C308 H321 0.929 . S
C309 C308 1.373 . S
C309 C310 1.396 . S
C309 C316 1.403 . S
C310 C300 1.476 . S
C310 N305 1.318 . S
C310 C309 1.396 . S
H311 C306 0.929 . S
O312 Mn288 2.385 . S
O312 C290 1.234 . S
O313 Mn288 2.209 . S
O313 Mn289 2.215 . S
O313 C290 1.283 . S
O314 Mn288 2.094 . S
O314 C292 1.240 . S
O315 Mn289 2.117 . S
O315 C292 1.264 . S
C316 C309 1.403 . S
C316 C317 1.399 . S
C316 H322 0.929 1_554 S
C317 C297 1.449 . S
C317 C316 1.399 . S
C317 H323 0.930 . S
H318 C298 0.931 . S
H319 C299 0.930 . S
H320 C307 0.931 . S
H321 C308 0.929 . S
H322 C316 0.929 1_556 S
H323 C317 0.930 . S
Mn324 O329 2.095 . S
Mn324 O339 2.162 . S
Mn324 O340 2.297 . S
Mn324 O348 2.385 . S
Mn324 O349 2.209 . S
Mn324 O350 2.094 . S
Mn325 O330 2.121 . S
Mn325 N332 2.257 1_556 S
Mn325 N341 2.282 1_556 S
Mn325 O349 2.215 . S
Mn325 O351 2.117 . S
C326 O348 1.234 . S
C326 O349 1.283 . S
C327 O339 1.281 . S
C327 O340 1.236 . S
C328 O350 1.240 . S
C328 O351 1.264 . S
O329 Mn324 2.095 . S
O329 C338 1.250 . S
O330 Mn325 2.121 . S
O330 C338 1.258 . S
C331 N332 1.326 1_556 S
C331 C335 1.460 1_556 S
C331 H337 0.929 . S
N332 Mn325 2.257 1_554 S
N332 C331 1.326 1_554 S
N332 C336 1.362 . S
C333 C334 1.258 . S
C333 C336 1.431 . S
C333 C353 1.449 . S
C334 C333 1.258 . S
C334 C335 1.477 . S
C334 H354 0.931 . S
C335 C331 1.460 1_554 S
C335 C334 1.477 . S
C335 H355 0.930 . S
C336 N332 1.362 . S
C336 C333 1.431 . S
C336 C346 1.476 . S
H337 C331 0.929 . S
C338 O329 1.250 . S
C338 O330 1.258 . S
O339 Mn324 2.162 . S
O339 C327 1.281 . S
O340 Mn324 2.297 . S
O340 C327 1.236 . S
N341 Mn325 2.282 1_554 S
N341 C342 1.328 . S
N341 C346 1.318 . S
C342 N341 1.328 . S
C342 C343 1.457 . S
C342 H347 0.929 . S
C343 C342 1.457 . S
C343 C344 1.291 . S
C343 H356 0.931 . S
C344 C343 1.291 . S
C344 C345 1.373 . S
C344 H357 0.929 . S
C345 C344 1.373 . S
C345 C346 1.396 . S
C345 C352 1.403 . S
C346 C336 1.476 . S
C346 N341 1.318 . S
C346 C345 1.396 . S
H347 C342 0.929 . S
O348 Mn324 2.385 . S
O348 C326 1.234 . S
O349 Mn324 2.209 . S
O349 Mn325 2.215 . S
O349 C326 1.283 . S
O350 Mn324 2.094 . S
O350 C328 1.240 . S
O351 Mn325 2.117 . S
O351 C328 1.264 . S
C352 C345 1.403 . S
C352 C353 1.399 . S
C352 H358 0.929 . S
C353 C333 1.449 . S
C353 C352 1.399 . S
C353 H359 0.930 . S
H354 C334 0.931 . S
H355 C335 0.930 . S
H356 C343 0.931 . S
H357 C344 0.929 . S
H358 C352 0.929 . S
H359 C353 0.930 . S
Mn360 O365 2.095 1_554 S
Mn360 O375 2.162 1_554 S
Mn360 O376 2.297 1_554 S
Mn360 O384 2.385 . S
Mn360 O385 2.209 . S
Mn360 O386 2.094 . S
Mn361 O366 2.121 . S
Mn361 N368 2.257 . S
Mn361 N377 2.282 . S
Mn361 O385 2.215 . S
Mn361 O387 2.117 . S
C362 O384 1.234 . S
C362 O385 1.283 . S
C363 O375 1.281 . S
C363 O376 1.236 . S
C364 O386 1.240 . S
C364 O387 1.264 . S
O365 Mn360 2.095 1_556 S
O365 C374 1.250 . S
O366 Mn361 2.121 . S
O366 C374 1.258 1_554 S
C367 N368 1.326 . S
C367 C371 1.460 . S
C367 H373 0.929 . S
N368 Mn361 2.257 . S
N368 C367 1.326 . S
N368 C372 1.362 . S
C369 C370 1.258 . S
C369 C372 1.431 . S
C369 C389 1.449 . S
C370 C369 1.258 . S
C370 C371 1.477 . S
C370 H390 0.931 . S
C371 C367 1.460 . S
C371 C370 1.477 . S
C371 H391 0.930 . S
C372 N368 1.362 . S
C372 C369 1.431 . S
C372 C382 1.476 . S
H373 C367 0.929 . S
C374 O365 1.250 . S
C374 O366 1.258 1_556 S
O375 Mn360 2.162 1_556 S
O375 C363 1.281 . S
O376 Mn360 2.297 1_556 S
O376 C363 1.236 . S
N377 Mn361 2.282 . S
N377 C378 1.328 . S
N377 C382 1.318 . S
C378 N377 1.328 . S
C378 C379 1.457 . S
C378 H383 0.929 . S
C379 C378 1.457 . S
C379 C380 1.291 . S
C379 H392 0.931 . S
C380 C379 1.291 . S
C380 C381 1.373 . S
C380 H393 0.929 . S
C381 C380 1.373 . S
C381 C382 1.396 . S
C381 C388 1.403 . S
C382 C372 1.476 . S
C382 N377 1.318 . S
C382 C381 1.396 . S
H383 C378 0.929 . S
O384 Mn360 2.385 . S
O384 C362 1.234 . S
O385 Mn360 2.209 . S
O385 Mn361 2.215 . S
O385 C362 1.283 . S
O386 Mn360 2.094 . S
O386 C364 1.240 . S
O387 Mn361 2.117 . S
O387 C364 1.264 . S
C388 C381 1.403 . S
C388 C389 1.399 . S
C388 H394 0.929 . S
C389 C369 1.449 . S
C389 C388 1.399 . S
C389 H395 0.930 . S
H390 C370 0.931 . S
H391 C371 0.930 . S
H392 C379 0.931 . S
H393 C380 0.929 . S
H394 C388 0.929 . S
H395 C389 0.930 . S
Mn396 O401 2.095 . S
Mn396 O411 2.162 . S
Mn396 O412 2.297 . S
Mn396 O420 2.385 . S
Mn396 O421 2.209 . S
Mn396 O422 2.094 . S
Mn397 O402 2.121 . S
Mn397 N404 2.257 . S
Mn397 N413 2.282 1_554 S
Mn397 O421 2.215 . S
Mn397 O423 2.117 . S
C398 O420 1.234 . S
C398 O421 1.283 . S
C399 O411 1.281 . S
C399 O412 1.236 . S
C400 O422 1.240 . S
C400 O423 1.264 . S
O401 Mn396 2.095 . S
O401 C410 1.250 . S
O402 Mn397 2.121 . S
O402 C410 1.258 . S
C403 N404 1.326 . S
C403 C407 1.460 . S
C403 H409 0.929 . S
N404 Mn397 2.257 . S
N404 C403 1.326 . S
N404 C408 1.362 1_554 S
C405 C406 1.258 . S
C405 C408 1.431 . S
C405 C425 1.449 . S
C406 C405 1.258 . S
C406 C407 1.477 1_556 S
C406 H426 0.931 . S
C407 C403 1.460 . S
C407 C406 1.477 1_554 S
C407 H427 0.930 . S
C408 N404 1.362 1_556 S
C408 C405 1.431 . S
C408 C418 1.476 . S
H409 C403 0.929 . S
C410 O401 1.250 . S
C410 O402 1.258 . S
O411 Mn396 2.162 . S
O411 C399 1.281 . S
O412 Mn396 2.297 . S
O412 C399 1.236 . S
N413 Mn397 2.282 1_556 S
N413 C414 1.328 . S
N413 C418 1.318 . S
C414 N413 1.328 . S
C414 C415 1.457 . S
C414 H419 0.929 1_556 S
C415 C414 1.457 . S
C415 C416 1.291 . S
C415 H428 0.931 . S
C416 C415 1.291 . S
C416 C417 1.373 . S
C416 H429 0.929 . S
C417 C416 1.373 . S
C417 C418 1.396 . S
C417 C424 1.403 . S
C418 C408 1.476 . S
C418 N413 1.318 . S
C418 C417 1.396 . S
H419 C414 0.929 1_554 S
O420 Mn396 2.385 . S
O420 C398 1.234 . S
O421 Mn396 2.209 . S
O421 Mn397 2.215 . S
O421 C398 1.283 . S
O422 Mn396 2.094 . S
O422 C400 1.240 . S
O423 Mn397 2.117 . S
O423 C400 1.264 . S
C424 C417 1.403 . S
C424 C425 1.399 . S
C424 H430 0.929 . S
C425 C405 1.449 . S
C425 C424 1.399 . S
C425 H431 0.930 . S
H426 C406 0.931 . S
H427 C407 0.930 . S
H428 C415 0.931 . S
H429 C416 0.929 . S
H430 C424 0.929 . S
H431 C425 0.930 . S
Mn432 O437 2.095 . S
Mn432 O447 2.162 . S
Mn432 O448 2.297 . S
Mn432 O456 2.385 . S
Mn432 O457 2.209 . S
Mn432 O458 2.094 . S
Mn433 O438 2.121 . S
Mn433 N440 2.257 . S
Mn433 N449 2.282 . S
Mn433 O457 2.215 . S
Mn433 O459 2.117 . S
C434 O456 1.234 . S
C434 O457 1.283 . S
C435 O447 1.281 . S
C435 O448 1.236 . S
C436 O458 1.240 . S
C436 O459 1.264 . S
O437 Mn432 2.095 . S
O437 C446 1.250 . S
O438 Mn433 2.121 . S
O438 C446 1.258 . S
C439 N440 1.326 . S
C439 C443 1.460 . S
C439 H445 0.929 . S
N440 Mn433 2.257 . S
N440 C439 1.326 . S
N440 C444 1.362 . S
C441 C442 1.258 . S
C441 C444 1.431 . S
C441 C461 1.449 . S
C442 C441 1.258 . S
C442 C443 1.477 . S
C442 H462 0.931 . S
C443 C439 1.460 . S
C443 C442 1.477 . S
C443 H463 0.930 . S
C444 N440 1.362 . S
C444 C441 1.431 . S
C444 C454 1.476 . S
H445 C439 0.929 . S
C446 O437 1.250 . S
C446 O438 1.258 . S
O447 Mn432 2.162 . S
O447 C435 1.281 . S
O448 Mn432 2.297 . S
O448 C435 1.236 . S
N449 Mn433 2.282 . S
N449 C450 1.328 . S
N449 C454 1.318 . S
C450 N449 1.328 . S
C450 C451 1.457 . S
C450 H455 0.929 . S
C451 C450 1.457 . S
C451 C452 1.291 . S
C451 H464 0.931 . S
C452 C451 1.291 . S
C452 C453 1.373 . S
C452 H465 0.929 . S
C453 C452 1.373 . S
C453 C454 1.396 . S
C453 C460 1.403 . S
C454 C444 1.476 . S
C454 N449 1.318 . S
C454 C453 1.396 . S
H455 C450 0.929 . S
O456 Mn432 2.385 . S
O456 C434 1.234 . S
O457 Mn432 2.209 . S
O457 Mn433 2.215 . S
O457 C434 1.283 . S
O458 Mn432 2.094 . S
O458 C436 1.240 . S
O459 Mn433 2.117 . S
O459 C436 1.264 . S
C460 C453 1.403 . S
C460 C461 1.399 . S
C460 H466 0.929 1_556 S
C461 C441 1.449 . S
C461 C460 1.399 . S
C461 H467 0.930 1_556 S
H462 C442 0.931 . S
H463 C443 0.930 . S
H464 C451 0.931 . S
H465 C452 0.929 . S
H466 C460 0.929 1_554 S
H467 C461 0.930 1_554 S
Mn468 O473 2.095 . S
Mn468 O483 2.162 . S
Mn468 O484 2.297 . S
Mn468 O492 2.385 . S
Mn468 O493 2.209 . S
Mn468 O494 2.094 . S
Mn469 O474 2.121 . S
Mn469 N476 2.257 . S
Mn469 N485 2.282 1_554 S
Mn469 O493 2.215 . S
Mn469 O495 2.117 . S
C470 O492 1.234 . S
C470 O493 1.283 . S
C471 O483 1.281 . S
C471 O484 1.236 . S
C472 O494 1.240 . S
C472 O495 1.264 . S
O473 Mn468 2.095 . S
O473 C482 1.250 . S
O474 Mn469 2.121 . S
O474 C482 1.258 . S
C475 N476 1.326 . S
C475 C479 1.460 1_554 S
C475 H481 0.929 . S
N476 Mn469 2.257 . S
N476 C475 1.326 . S
N476 C480 1.362 1_554 S
C477 C478 1.258 . S
C477 C480 1.431 . S
C477 C497 1.449 . S
C478 C477 1.258 . S
C478 C479 1.477 . S
C478 H498 0.931 . S
C479 C475 1.460 1_556 S
C479 C478 1.477 . S
C479 H499 0.930 1_556 S
C480 N476 1.362 1_556 S
C480 C477 1.431 . S
C480 C490 1.476 . S
H481 C475 0.929 . S
C482 O473 1.250 . S
C482 O474 1.258 . S
O483 Mn468 2.162 . S
O483 C471 1.281 . S
O484 Mn468 2.297 . S
O484 C471 1.236 . S
N485 Mn469 2.282 1_556 S
N485 C486 1.328 . S
N485 C490 1.318 . S
C486 N485 1.328 . S
C486 C487 1.457 . S
C486 H491 0.929 1_556 S
C487 C486 1.457 . S
C487 C488 1.291 . S
C487 H500 0.931 . S
C488 C487 1.291 . S
C488 C489 1.373 . S
C488 H501 0.929 . S
C489 C488 1.373 . S
C489 C490 1.396 . S
C489 C496 1.403 . S
C490 C480 1.476 . S
C490 N485 1.318 . S
C490 C489 1.396 . S
H491 C486 0.929 1_554 S
O492 Mn468 2.385 . S
O492 C470 1.234 . S
O493 Mn468 2.209 . S
O493 Mn469 2.215 . S
O493 C470 1.283 . S
O494 Mn468 2.094 . S
O494 C472 1.240 . S
O495 Mn469 2.117 . S
O495 C472 1.264 . S
C496 C489 1.403 . S
C496 C497 1.399 . S
C496 H502 0.929 . S
C497 C477 1.449 . S
C497 C496 1.399 . S
C497 H503 0.930 . S
H498 C478 0.931 . S
H499 C479 0.930 1_554 S
H500 C487 0.931 . S
H501 C488 0.929 . S
H502 C496 0.929 . S
H503 C497 0.930 . S
Mn504 O509 2.095 . S
Mn504 O519 2.162 . S
Mn504 O520 2.297 . S
Mn504 O528 2.385 1_554 S
Mn504 O529 2.209 1_554 S
Mn504 O530 2.094 1_554 S
Mn505 O510 2.121 . S
Mn505 N512 2.257 . S
Mn505 N521 2.282 . S
Mn505 O529 2.215 . S
Mn505 O531 2.117 . S
C506 O528 1.234 . S
C506 O529 1.283 . S
C507 O519 1.281 . S
C507 O520 1.236 . S
C508 O530 1.240 . S
C508 O531 1.264 . S
O509 Mn504 2.095 . S
O509 C518 1.250 . S
O510 Mn505 2.121 . S
O510 C518 1.258 1_556 S
C511 N512 1.326 . S
C511 C515 1.460 . S
C511 H517 0.929 . S
N512 Mn505 2.257 . S
N512 C511 1.326 . S
N512 C516 1.362 . S
C513 C514 1.258 . S
C513 C516 1.431 . S
C513 C533 1.449 . S
C514 C513 1.258 . S
C514 C515 1.477 . S
C514 H534 0.931 . S
C515 C511 1.460 . S
C515 C514 1.477 . S
C515 H535 0.930 . S
C516 N512 1.362 . S
C516 C513 1.431 . S
C516 C526 1.476 . S
H517 C511 0.929 . S
C518 O509 1.250 . S
C518 O510 1.258 1_554 S
O519 Mn504 2.162 . S
O519 C507 1.281 . S
O520 Mn504 2.297 . S
O520 C507 1.236 . S
N521 Mn505 2.282 . S
N521 C522 1.328 . S
N521 C526 1.318 . S
C522 N521 1.328 . S
C522 C523 1.457 . S
C522 H527 0.929 . S
C523 C522 1.457 . S
C523 C524 1.291 . S
C523 H536 0.931 . S
C524 C523 1.291 . S
C524 C525 1.373 . S
C524 H537 0.929 . S
C525 C524 1.373 . S
C525 C526 1.396 . S
C525 C532 1.403 . S
C526 C516 1.476 . S
C526 N521 1.318 . S
C526 C525 1.396 . S
H527 C522 0.929 . S
O528 Mn504 2.385 1_556 S
O528 C506 1.234 . S
O529 Mn504 2.209 1_556 S
O529 Mn505 2.215 . S
O529 C506 1.283 . S
O530 Mn504 2.094 1_556 S
O530 C508 1.240 . S
O531 Mn505 2.117 . S
O531 C508 1.264 . S
C532 C525 1.403 . S
C532 C533 1.399 . S
C532 H538 0.929 . S
C533 C513 1.449 . S
C533 C532 1.399 . S
C533 H539 0.930 . S
H534 C514 0.931 . S
H535 C515 0.930 . S
H536 C523 0.931 . S
H537 C524 0.929 . S
H538 C532 0.929 . S
H539 C533 0.930 . S
Mn540 O545 2.095 . S
Mn540 O555 2.162 . S
Mn540 O556 2.297 . S
Mn540 O564 2.385 . S
Mn540 O565 2.209 . S
Mn540 O566 2.094 . S
Mn541 O546 2.121 . S
Mn541 N548 2.257 . S
Mn541 N557 2.282 1_556 S
Mn541 O565 2.215 . S
Mn541 O567 2.117 . S
C542 O564 1.234 . S
C542 O565 1.283 . S
C543 O555 1.281 . S
C543 O556 1.236 . S
C544 O566 1.240 . S
C544 O567 1.264 . S
O545 Mn540 2.095 . S
O545 C554 1.250 . S
O546 Mn541 2.121 . S
O546 C554 1.258 . S
C547 N548 1.326 . S
C547 C551 1.460 1_556 S
C547 H553 0.929 . S
N548 Mn541 2.257 . S
N548 C547 1.326 . S
N548 C552 1.362 1_556 S
C549 C550 1.258 . S
C549 C552 1.431 . S
C549 C569 1.449 . S
C550 C549 1.258 . S
C550 C551 1.477 . S
C550 H570 0.931 . S
C551 C547 1.460 1_554 S
C551 C550 1.477 . S
C551 H571 0.927 1_554 S
C552 N548 1.362 1_554 S
C552 C549 1.431 . S
C552 C562 1.476 . S
H553 C547 0.929 . S
C554 O545 1.250 . S
C554 O546 1.258 . S
O555 Mn540 2.162 . S
O555 C543 1.281 . S
O556 Mn540 2.297 . S
O556 C543 1.236 . S
N557 Mn541 2.282 1_554 S
N557 C558 1.328 . S
N557 C562 1.318 . S
C558 N557 1.328 . S
C558 C559 1.457 . S
C558 H563 0.929 . S
C559 C558 1.457 . S
C559 C560 1.291 . S
C559 H572 0.931 . S
C560 C559 1.291 . S
C560 C561 1.373 . S
C560 H573 0.929 . S
C561 C560 1.373 . S
C561 C562 1.396 . S
C561 C568 1.403 . S
C562 C552 1.476 . S
C562 N557 1.318 . S
C562 C561 1.396 . S
H563 C558 0.929 . S
O564 Mn540 2.385 . S
O564 C542 1.234 . S
O565 Mn540 2.209 . S
O565 Mn541 2.215 . S
O565 C542 1.283 . S
O566 Mn540 2.094 . S
O566 C544 1.240 . S
O567 Mn541 2.117 . S
O567 C544 1.264 . S
C568 C561 1.403 . S
C568 C569 1.399 . S
C568 H574 0.929 . S
C569 C549 1.449 . S
C569 C568 1.399 . S
C569 H575 0.930 . S
H570 C550 0.931 . S
H571 C551 0.927 1_556 S
H572 C559 0.931 . S
H573 C560 0.929 . S
H574 C568 0.929 . S
H575 C569 0.930 . S
C576 C577 1.369 . S
C576 C578 1.419 . S
C576 H580 0.930 . S
C577 C576 1.369 . S
C577 C586 1.429 . S
C578 C576 1.419 . S
C578 C579 1.363 . S
C578 H581 0.929 . S
C579 C578 1.363 . S
C579 C585 1.428 . S
H580 C576 0.930 . S
H581 C578 0.929 . S
S582 N583 1.613 . S
S582 N584 1.610 . S
N583 S582 1.613 . S
N583 C586 1.350 . S
N584 S582 1.610 . S
N584 C585 1.351 . S
C585 C579 1.428 . S
C585 N584 1.351 . S
C585 C586 1.434 . S
C586 C577 1.429 . S
C586 N583 1.350 . S
C586 C585 1.434 . S
C587 C588 1.369 . S
C587 C589 1.419 . S
C587 H591 0.930 . S
C588 C587 1.369 . S
C588 C597 1.429 1_655 S
C589 C587 1.419 . S
C589 C590 1.363 1_655 S
C589 H592 0.929 1_545 S
C590 C589 1.363 1_455 S
C590 C596 1.428 . S
H591 C587 0.930 . S
H592 C589 0.929 1_565 S
S593 N594 1.613 . S
S593 N595 1.610 . S
N594 S593 1.613 . S
N594 C597 1.350 . S
N595 S593 1.610 . S
N595 C596 1.351 . S
C596 C590 1.428 . S
C596 N595 1.351 . S
C596 C597 1.434 . S
C597 C588 1.429 1_455 S
C597 N594 1.350 . S
C597 C596 1.434 . S
C598 C599 1.369 . S
C598 C600 1.419 . S
C598 H602 0.930 . S
C599 C598 1.369 . S
C599 C608 1.429 . S
C600 C598 1.419 . S
C600 C601 1.363 . S
C600 H603 0.929 . S
C601 C600 1.363 . S
C601 C607 1.428 . S
H602 C598 0.930 . S
H603 C600 0.929 . S
S604 N605 1.613 . S
S604 N606 1.610 . S
N605 S604 1.613 . S
N605 C608 1.350 . S
N606 S604 1.610 . S
N606 C607 1.351 . S
C607 C601 1.428 . S
C607 N606 1.351 . S
C607 C608 1.434 . S
C608 C599 1.429 . S
C608 N605 1.350 . S
C608 C607 1.434 . S
C609 C610 1.369 . S
C609 C611 1.418 1_545 S
C609 H613 0.930 1_545 S
C610 C609 1.369 . S
C610 C619 1.419 1_554 S
C611 C609 1.418 1_565 S
C611 C612 1.354 1_564 S
C611 H614 0.940 . S
C612 C611 1.354 1_546 S
C612 C618 1.428 . S
H613 C609 0.930 1_565 S
H614 C611 0.940 . S
S615 N616 1.613 . S
S615 N617 1.610 . S
N616 S615 1.613 . S
N616 C619 1.353 . S
N617 S615 1.610 . S
N617 C618 1.351 . S
C618 C612 1.428 . S
C618 N617 1.351 . S
C618 C619 1.442 . S
C619 C610 1.419 1_556 S
C619 N616 1.353 . S
C619 C618 1.442 . S
C620 C621 1.369 . S
C620 C622 1.419 . S
C620 H624 0.930 . S
C621 C620 1.369 . S
C621 C630 1.429 . S
C622 C620 1.419 . S
C622 C623 1.363 . S
C622 H625 0.929 . S
C623 C622 1.363 . S
C623 C629 1.428 . S
H624 C620 0.930 . S
H625 C622 0.929 . S
S626 N627 1.613 . S
S626 N628 1.610 . S
N627 S626 1.613 . S
N627 C630 1.350 . S
N628 S626 1.610 . S
N628 C629 1.351 . S
C629 C623 1.428 . S
C629 N628 1.351 . S
C629 C630 1.434 . S
C630 C621 1.429 . S
C630 N627 1.350 . S
C630 C629 1.434 . S
C631 C632 1.369 1_565 S
C631 C633 1.419 . S
C631 H635 0.930 . S
C632 C631 1.369 1_545 S
C632 C641 1.429 . S
C633 C631 1.419 . S
C633 C634 1.363 1_565 S
C633 H636 0.929 . S
C634 C633 1.363 1_545 S
C634 C640 1.428 . S
H635 C631 0.930 . S
H636 C633 0.929 . S
S637 N638 1.613 . S
S637 N639 1.610 . S
N638 S637 1.613 . S
N638 C641 1.350 . S
N639 S637 1.610 . S
N639 C640 1.351 . S
C640 C634 1.428 . S
C640 N639 1.351 . S
C640 C641 1.434 . S
C641 C632 1.429 . S
C641 N638 1.350 . S
C641 C640 1.434 . S
C642 C643 1.369 . S
C642 C644 1.419 . S
C642 H646 0.930 . S
C643 C642 1.369 . S
C643 C652 1.429 . S
C644 C642 1.419 . S
C644 C645 1.363 . S
C644 H647 0.929 . S
C645 C644 1.363 . S
C645 C651 1.428 . S
H646 C642 0.930 . S
H647 C644 0.929 . S
S648 N649 1.613 . S
S648 N650 1.610 . S
N649 S648 1.613 . S
N649 C652 1.350 . S
N650 S648 1.610 . S
N650 C651 1.351 . S
C651 C645 1.428 . S
C651 N650 1.351 . S
C651 C652 1.434 . S
C652 C643 1.429 . S
C652 N649 1.350 . S
C652 C651 1.434 . S
C653 C654 1.369 1_554 S
C653 C655 1.419 . S
C653 H657 0.930 . S
C654 C653 1.369 1_556 S
C654 C663 1.429 1_455 S
C655 C653 1.419 . S
C655 C656 1.363 1_455 S
C655 H658 0.929 . S
C656 C655 1.363 1_655 S
C656 C662 1.428 1_554 S
H657 C653 0.930 . S
H658 C655 0.929 . S
S659 N660 1.613 . S
S659 N661 1.610 . S
N660 S659 1.613 . S
N660 C663 1.350 . S
N661 S659 1.610 . S
N661 C662 1.351 . S
C662 C656 1.428 1_556 S
C662 N661 1.351 . S
C662 C663 1.434 . S
C663 C654 1.429 1_655 S
C663 N660 1.350 . S
C663 C662 1.434 . S
C664 C665 1.369 . S
C664 C666 1.419 . S
C664 H668 0.930 . S
C665 C664 1.369 . S
C665 C674 1.429 . S
C666 C664 1.419 . S
C666 C667 1.363 . S
C666 H669 0.929 . S
C667 C666 1.363 . S
C667 C673 1.428 . S
H668 C664 0.930 . S
H669 C666 0.929 . S
S670 N671 1.613 . S
S670 N672 1.610 . S
N671 S670 1.613 . S
N671 C674 1.350 . S
N672 S670 1.610 . S
N672 C673 1.351 . S
C673 C667 1.428 . S
C673 N672 1.351 . S
C673 C674 1.434 . S
C674 C665 1.429 . S
C674 N671 1.350 . S
C674 C673 1.434 . S
C675 C676 1.369 . S
C675 C677 1.419 . S
C675 H679 0.930 . S
C676 C675 1.369 . S
C676 C685 1.429 . S
C677 C675 1.419 . S
C677 C678 1.363 . S
C677 H680 0.929 . S
C678 C677 1.363 . S
C678 C684 1.428 . S
H679 C675 0.930 . S
H680 C677 0.929 . S
S681 N682 1.613 . S
S681 N683 1.610 . S
N682 S681 1.613 . S
N682 C685 1.350 . S
N683 S681 1.610 . S
N683 C684 1.351 . S
C684 C678 1.428 . S
C684 N683 1.351 . S
C684 C685 1.434 . S
C685 C676 1.429 . S
C685 N682 1.350 . S
C685 C684 1.434 . S
C686 C687 1.369 . S
C686 C688 1.419 . S
C686 H690 0.930 . S
C687 C686 1.369 . S
C687 C696 1.429 . S
C688 C686 1.419 . S
C688 C689 1.363 . S
C688 H691 0.929 . S
C689 C688 1.363 . S
C689 C695 1.428 . S
H690 C686 0.930 . S
H691 C688 0.929 . S
S692 N693 1.613 . S
S692 N694 1.610 . S
N693 S692 1.613 . S
N693 C696 1.350 . S
N694 S692 1.610 . S
N694 C695 1.351 . S
C695 C689 1.428 . S
C695 N694 1.351 . S
C695 C696 1.434 . S
C696 C687 1.429 . S
C696 N693 1.350 . S
C696 C695 1.434 . S
C697 C698 1.369 . S
C697 C699 1.419 . S
C697 H701 0.930 . S
C698 C697 1.369 . S
C698 C707 1.429 . S
C699 C697 1.419 . S
C699 C700 1.363 . S
C699 H702 0.929 . S
C700 C699 1.363 . S
C700 C706 1.428 . S
H701 C697 0.930 . S
H702 C699 0.929 . S
S703 N704 1.613 . S
S703 N705 1.610 . S
N704 S703 1.613 . S
N704 C707 1.350 . S
N705 S703 1.610 . S
N705 C706 1.351 . S
C706 C700 1.428 . S
C706 N705 1.351 . S
C706 C707 1.434 . S
C707 C698 1.429 . S
C707 N704 1.350 . S
C707 C706 1.434 . S
C708 C709 1.369 . S
C708 C710 1.419 1_554 S
C708 H712 0.930 . S
C709 C708 1.369 . S
C709 C718 1.429 . S
C710 C708 1.419 1_556 S
C710 C711 1.363 . S
C710 H713 0.929 . S
C711 C710 1.363 . S
C711 C717 1.428 . S
H712 C708 0.930 . S
H713 C710 0.929 . S
S714 N715 1.613 . S
S714 N716 1.610 1_554 S
N715 S714 1.613 . S
N715 C718 1.350 . S
N716 S714 1.610 1_556 S
N716 C717 1.351 . S
C717 C711 1.428 . S
C717 N716 1.351 . S
C717 C718 1.434 1_556 S
C718 C709 1.429 . S
C718 N715 1.350 . S
C718 C717 1.434 1_554 S
C719 C720 1.369 . S
C719 C721 1.419 . S
C719 H723 0.930 . S
C720 C719 1.369 . S
C720 C729 1.429 1_455 S
C721 C719 1.419 . S
C721 C722 1.363 1_455 S
C721 H724 0.929 . S
C722 C721 1.363 1_655 S
C722 C728 1.428 . S
H723 C719 0.930 . S
H724 C721 0.929 . S
S725 N726 1.613 . S
S725 N727 1.610 . S
N726 S725 1.613 . S
N726 C729 1.350 . S
N727 S725 1.610 . S
N727 C728 1.351 . S
C728 C722 1.428 . S
C728 N727 1.351 . S
C728 C729 1.434 . S
C729 C720 1.429 1_655 S
C729 N726 1.350 . S
C729 C728 1.434 . S
C730 C731 1.369 . S
C730 C732 1.419 1_455 S
C730 H734 0.930 . S
C731 C730 1.369 . S
C731 C740 1.429 . S
C732 C730 1.419 1_655 S
C732 C733 1.363 1_554 S
C732 H735 0.929 . S
C733 C732 1.363 1_556 S
C733 C739 1.428 . S
H734 C730 0.930 . S
H735 C732 0.929 . S
S736 N737 1.613 1_556 S
S736 N738 1.610 1_455 S
N737 S736 1.613 1_554 S
N737 C740 1.350 . S
N738 S736 1.610 1_655 S
N738 C739 1.351 . S
C739 C733 1.428 . S
C739 N738 1.351 . S
C739 C740 1.434 1_656 S
C740 C731 1.429 . S
C740 N737 1.350 . S
C740 C739 1.434 1_454 S
C741 C742 1.369 . S
C741 C743 1.419 . S
C741 H745 0.930 . S
C742 C741 1.369 . S
C742 C751 1.429 . S
C743 C741 1.419 . S
C743 C744 1.363 . S
C743 H746 0.929 . S
C744 C743 1.363 . S
C744 C750 1.428 . S
H745 C741 0.930 . S
H746 C743 0.929 . S
S747 N748 1.613 . S
S747 N749 1.610 . S
N748 S747 1.613 . S
N748 C751 1.350 . S
N749 S747 1.610 . S
N749 C750 1.351 . S
C750 C744 1.428 . S
C750 N749 1.351 . S
C750 C751 1.434 . S
C751 C742 1.429 . S
C751 N748 1.350 . S
C751 C750 1.434 . S
C752 C753 1.369 . S
C752 C754 1.419 . S
C752 H756 0.930 . S
C753 C752 1.369 . S
C753 C762 1.429 . S
C754 C752 1.419 . S
C754 C755 1.363 . S
C754 H757 0.929 . S
C755 C754 1.363 . S
C755 C761 1.428 . S
H756 C752 0.930 . S
H757 C754 0.929 . S
S758 N759 1.613 . S
S758 N760 1.610 . S
N759 S758 1.613 . S
N759 C762 1.350 . S
N760 S758 1.610 . S
N760 C761 1.351 . S
C761 C755 1.428 . S
C761 N760 1.351 . S
C761 C762 1.434 . S
C762 C753 1.429 . S
C762 N759 1.350 . S
C762 C761 1.434 . S
C763 C764 1.369 . S
C763 C765 1.419 . S
C763 H767 0.930 . S
C764 C763 1.369 . S
C764 C773 1.429 . S
C765 C763 1.419 . S
C765 C766 1.363 . S
C765 H768 0.929 . S
C766 C765 1.363 . S
C766 C772 1.428 . S
H767 C763 0.930 . S
H768 C765 0.929 . S
S769 N770 1.613 . S
S769 N771 1.610 . S
N770 S769 1.613 . S
N770 C773 1.350 . S
N771 S769 1.610 . S
N771 C772 1.351 . S
C772 C766 1.428 . S
C772 N771 1.351 . S
C772 C773 1.434 . S
C773 C764 1.429 . S
C773 N770 1.350 . S
C773 C772 1.434 . S
C774 C775 1.369 . S
C774 C776 1.419 . S
C774 H778 0.930 . S
C775 C774 1.369 . S
C775 C784 1.429 . S
C776 C774 1.419 . S
C776 C777 1.363 . S
C776 H779 0.929 . S
C777 C776 1.363 . S
C777 C783 1.428 . S
H778 C774 0.930 . S
H779 C776 0.929 . S
S780 N781 1.613 . S
S780 N782 1.610 . S
N781 S780 1.613 . S
N781 C784 1.350 . S
N782 S780 1.610 . S
N782 C783 1.351 . S
C783 C777 1.428 . S
C783 N782 1.351 . S
C783 C784 1.434 . S
C784 C775 1.429 . S
C784 N781 1.350 . S
C784 C783 1.434 . S
C785 C786 1.369 . S
C785 C787 1.419 . S
C785 H789 0.930 . S
C786 C785 1.369 . S
C786 C795 1.429 . S
C787 C785 1.419 . S
C787 C788 1.363 . S
C787 H790 0.929 . S
C788 C787 1.363 . S
C788 C794 1.428 . S
H789 C785 0.930 . S
H790 C787 0.929 . S
S791 N792 1.613 . S
S791 N793 1.610 . S
N792 S791 1.613 . S
N792 C795 1.350 . S
N793 S791 1.610 . S
N793 C794 1.351 . S
C794 C788 1.428 . S
C794 N793 1.351 . S
C794 C795 1.434 . S
C795 C786 1.429 . S
C795 N792 1.350 . S
C795 C794 1.434 . S
C796 C797 1.369 . S
C796 C798 1.419 . S
C796 H800 0.930 . S
C797 C796 1.369 . S
C797 C806 1.429 . S
C798 C796 1.419 . S
C798 C799 1.363 . S
C798 H801 0.929 . S
C799 C798 1.363 . S
C799 C805 1.428 . S
H800 C796 0.930 . S
H801 C798 0.929 . S
S802 N803 1.613 . S
S802 N804 1.610 . S
N803 S802 1.613 . S
N803 C806 1.350 . S
N804 S802 1.610 . S
N804 C805 1.351 . S
C805 C799 1.428 . S
C805 N804 1.351 . S
C805 C806 1.434 . S
C806 C797 1.429 . S
C806 N803 1.350 . S
C806 C805 1.434 . S
C807 C808 1.369 . S
C807 C809 1.419 . S
C807 H811 0.930 . S
C808 C807 1.369 . S
C808 C817 1.429 . S
C809 C807 1.419 . S
C809 C810 1.363 . S
C809 H812 0.929 . S
C810 C809 1.363 . S
C810 C816 1.428 . S
H811 C807 0.930 . S
H812 C809 0.929 . S
S813 N814 1.613 . S
S813 N815 1.610 . S
N814 S813 1.613 . S
N814 C817 1.350 . S
N815 S813 1.610 . S
N815 C816 1.351 . S
C816 C810 1.428 . S
C816 N815 1.351 . S
C816 C817 1.434 . S
C817 C808 1.429 . S
C817 N814 1.350 . S
C817 C816 1.434 . S
C818 C819 1.369 . S
C818 C820 1.419 . S
C818 H822 0.930 . S
C819 C818 1.369 . S
C819 C828 1.429 . S
C820 C818 1.419 . S
C820 C821 1.363 . S
C820 H823 0.929 . S
C821 C820 1.363 . S
C821 C827 1.428 . S
H822 C818 0.930 . S
H823 C820 0.929 . S
S824 N825 1.613 . S
S824 N826 1.610 . S
N825 S824 1.613 . S
N825 C828 1.350 . S
N826 S824 1.610 . S
N826 C827 1.351 . S
C827 C821 1.428 . S
C827 N826 1.351 . S
C827 C828 1.434 . S
C828 C819 1.429 . S
C828 N825 1.350 . S
C828 C827 1.434 . S
C829 C830 1.369 . S
C829 C831 1.419 . S
C829 H833 0.930 . S
C830 C829 1.369 . S
C830 C839 1.429 . S
C831 C829 1.419 . S
C831 C832 1.363 . S
C831 H834 0.929 . S
C832 C831 1.363 . S
C832 C838 1.428 . S
H833 C829 0.930 . S
H834 C831 0.929 . S
S835 N836 1.613 . S
S835 N837 1.610 . S
N836 S835 1.613 . S
N836 C839 1.350 . S
N837 S835 1.610 . S
N837 C838 1.351 . S
C838 C832 1.428 . S
C838 N837 1.351 . S
C838 C839 1.434 . S
C839 C830 1.429 . S
C839 N836 1.350 . S
C839 C838 1.434 . S
C840 C841 1.369 . S
C840 C842 1.419 . S
C840 H844 0.930 . S
C841 C840 1.369 . S
C841 C850 1.429 . S
C842 C840 1.419 . S
C842 C843 1.363 . S
C842 H845 0.929 . S
C843 C842 1.363 . S
C843 C849 1.428 . S
H844 C840 0.930 . S
H845 C842 0.929 . S
S846 N847 1.613 . S
S846 N848 1.610 . S
N847 S846 1.613 . S
N847 C850 1.350 . S
N848 S846 1.610 . S
N848 C849 1.351 . S
C849 C843 1.428 . S
C849 N848 1.351 . S
C849 C850 1.434 . S
C850 C841 1.429 . S
C850 N847 1.350 . S
C850 C849 1.434 . S
C851 C852 1.369 . S
C851 C853 1.419 . S
C851 H855 0.930 . S
C852 C851 1.369 . S
C852 C861 1.429 . S
C853 C851 1.419 . S
C853 C854 1.363 . S
C853 H856 0.929 . S
C854 C853 1.363 . S
C854 C860 1.428 . S
H855 C851 0.930 . S
H856 C853 0.929 . S
S857 N858 1.613 . S
S857 N859 1.610 . S
N858 S857 1.613 . S
N858 C861 1.350 . S
N859 S857 1.610 . S
N859 C860 1.351 . S
C860 C854 1.428 . S
C860 N859 1.351 . S
C860 C861 1.434 . S
C861 C852 1.429 . S
C861 N858 1.350 . S
C861 C860 1.434 . S
C862 C863 1.369 . S
C862 C864 1.419 . S
C862 H866 0.930 . S
C863 C862 1.369 . S
C863 C872 1.429 . S
C864 C862 1.419 . S
C864 C865 1.363 . S
C864 H867 0.929 . S
C865 C864 1.363 . S
C865 C871 1.428 . S
H866 C862 0.930 . S
H867 C864 0.929 . S
S868 N869 1.613 . S
S868 N870 1.610 . S
N869 S868 1.613 . S
N869 C872 1.350 . S
N870 S868 1.610 . S
N870 C871 1.351 . S
C871 C865 1.428 . S
C871 N870 1.351 . S
C871 C872 1.434 . S
C872 C863 1.429 . S
C872 N869 1.350 . S
C872 C871 1.434 . S
C873 C874 1.369 . S
C873 C875 1.419 . S
C873 H877 0.930 . S
C874 C873 1.369 . S
C874 C883 1.429 . S
C875 C873 1.419 . S
C875 C876 1.363 . S
C875 H878 0.929 . S
C876 C875 1.363 . S
C876 C882 1.428 . S
H877 C873 0.930 . S
H878 C875 0.929 . S
S879 N880 1.613 . S
S879 N881 1.610 . S
N880 S879 1.613 . S
N880 C883 1.350 . S
N881 S879 1.610 . S
N881 C882 1.351 . S
C882 C876 1.428 . S
C882 N881 1.351 . S
C882 C883 1.434 . S
C883 C874 1.429 . S
C883 N880 1.350 . S
C883 C882 1.434 . S
C884 C885 1.369 . S
C884 C886 1.419 . S
C884 H888 0.930 . S
C885 C884 1.369 . S
C885 C894 1.429 . S
C886 C884 1.419 . S
C886 C887 1.363 . S
C886 H889 0.929 . S
C887 C886 1.363 . S
C887 C893 1.428 . S
H888 C884 0.930 . S
H889 C886 0.929 . S
S890 N891 1.613 . S
S890 N892 1.610 . S
N891 S890 1.613 . S
N891 C894 1.350 . S
N892 S890 1.610 . S
N892 C893 1.351 . S
C893 C887 1.428 . S
C893 N892 1.351 . S
C893 C894 1.434 . S
C894 C885 1.429 . S
C894 N891 1.350 . S
C894 C893 1.434 . S
C895 C896 1.369 . S
C895 C897 1.419 . S
C895 H899 0.930 . S
C896 C895 1.369 . S
C896 C905 1.429 . S
C897 C895 1.419 . S
C897 C898 1.363 . S
C897 H900 0.929 . S
C898 C897 1.363 . S
C898 C904 1.428 . S
H899 C895 0.930 . S
H900 C897 0.929 . S
S901 N902 1.613 . S
S901 N903 1.610 . S
N902 S901 1.613 . S
N902 C905 1.350 . S
N903 S901 1.610 . S
N903 C904 1.351 . S
C904 C898 1.428 . S
C904 N903 1.351 . S
C904 C905 1.434 . S
C905 C896 1.429 . S
C905 N902 1.350 . S
C905 C904 1.434 . S
C906 C907 1.369 . S
C906 C908 1.419 . S
C906 H910 0.930 . S
C907 C906 1.369 . S
C907 C916 1.429 . S
C908 C906 1.419 . S
C908 C909 1.363 . S
C908 H911 0.929 . S
C909 C908 1.363 . S
C909 C915 1.428 . S
H910 C906 0.930 . S
H911 C908 0.929 . S
S912 N913 1.613 . S
S912 N914 1.610 . S
N913 S912 1.613 . S
N913 C916 1.350 . S
N914 S912 1.610 . S
N914 C915 1.351 . S
C915 C909 1.428 . S
C915 N914 1.351 . S
C915 C916 1.434 . S
C916 C907 1.429 . S
C916 N913 1.350 . S
C916 C915 1.434 . S
C917 C918 1.369 . S
C917 C919 1.419 . S
C917 H921 0.930 1_556 S
C918 C917 1.369 . S
C918 C927 1.429 . S
C919 C917 1.419 . S
C919 C920 1.363 . S
C919 H922 0.929 . S
C920 C919 1.363 . S
C920 C926 1.428 . S
H921 C917 0.930 1_554 S
H922 C919 0.929 . S
S923 N924 1.613 . S
S923 N925 1.610 . S
N924 S923 1.613 . S
N924 C927 1.350 . S
N925 S923 1.610 . S
N925 C926 1.351 . S
C926 C920 1.428 . S
C926 N925 1.351 . S
C926 C927 1.434 . S
C927 C918 1.429 . S
C927 N924 1.350 . S
C927 C926 1.434 . S
C577 C3 1.406 . S
C579 C435 1.409 . S
C588 C38 1.356 . S
C590 C182 1.361 . S
C599 C74 1.360 . S
C601 C506 1.356 . S
C610 C255 1.409 . S
C612 C111 1.410 . S
C621 C507 1.409 . S
C623 C75 1.410 . S
C632 C254 1.354 . S
C634 C110 1.361 . S
C643 C434 1.362 . S
C645 C2 1.356 . S
C654 C183 1.408 . S
C656 C39 1.407 . S
C665 C147 1.408 . S
C667 C291 1.407 . S
C676 C218 1.358 . S
C678 C362 1.358 . S
C687 C363 1.410 . S
C689 C219 1.409 . S
C698 C146 1.362 . S
C700 C290 1.356 . S
C709 C470 1.363 . S
C711 C326 1.356 . S
C720 C399 1.409 . S
C722 C543 1.410 . S
C731 C398 1.362 . S
C733 C542 1.355 . S
C742 C327 1.407 . S
C744 C471 1.408 . S
C753 C400 1.482 . S
C755 C14 1.469 . S
C764 C292 1.461 . S
C766 C40 1.465 . S
C775 C76 1.481 . S
C777 C338 1.468 . S
C786 C374 1.481 . S
C788 C122 1.477 . S
C797 C410 1.480 . S
C799 C86 1.481 . S
C808 C112 1.481 . S
C810 C302 1.468 . S
C819 C328 1.461 . S
C821 C4 1.464 . S
C830 C364 1.481 . S
C832 C50 1.469 . S
C841 C158 1.473 . S
C843 C544 1.481 . S
C852 C436 1.461 . S
C854 C184 1.465 . S
C863 C220 1.482 . S
C865 C482 1.470 . S
C874 C266 1.479 . S
C876 C518 1.482 . S
C885 C230 1.482 . S
C887 C554 1.480 . S
C896 C446 1.470 . S
C898 C256 1.481 . S
C907 C472 1.461 . S
C909 C148 1.465 . S
C918 C508 1.479 . S
C920 C194 1.467 . S
