# Generated by pormake.
# Topology una, (4)-cn, num edge types: 1
# Building blocks:
#     Node 0, Type 0, BuildingBlock: NAHDIM_clean_sbu_0, # of connection points: 4
#     Node 1, Type 0, BuildingBlock: NAHDIM_clean_sbu_0, # of connection points: 4
#     Node 2, Type 0, BuildingBlock: NAHDIM_clean_sbu_0, # of connection points: 4
#     Node 3, Type 0, BuildingBlock: NAHDIM_clean_sbu_0, # of connection points: 4
#     Node 4, Type 0, BuildingBlock: NAHDIM_clean_sbu_0, # of connection points: 4
#     Node 5, Type 0, BuildingBlock: NAHDIM_clean_sbu_0, # of connection points: 4
#     Node 6, Type 0, BuildingBlock: NAHDIM_clean_sbu_0, # of connection points: 4
#     Node 7, Type 0, BuildingBlock: NAHDIM_clean_sbu_0, # of connection points: 4
#     Node 8, Type 0, BuildingBlock: NAHDIM_clean_sbu_0, # of connection points: 4
#     Node 9, Type 0, BuildingBlock: NAHDIM_clean_sbu_0, # of connection points: 4
#     Node 10, Type 0, BuildingBlock: NAHDIM_clean_sbu_0, # of connection points: 4
#     Node 11, Type 0, BuildingBlock: NAHDIM_clean_sbu_0, # of connection points: 4
#     Edge 12, Type (0, 0), BuildingBlock: ZUJKAS_clean_linker_0, # of connection points: 2
#     Edge 13, Type (0, 0), BuildingBlock: ZUJKAS_clean_linker_0, # of connection points: 2
#     Edge 14, Type (0, 0), BuildingBlock: ZUJKAS_clean_linker_0, # of connection points: 2
#     Edge 15, Type (0, 0), BuildingBlock: ZUJKAS_clean_linker_0, # of connection points: 2
#     Edge 16, Type (0, 0), BuildingBlock: ZUJKAS_clean_linker_0, # of connection points: 2
#     Edge 17, Type (0, 0), BuildingBlock: ZUJKAS_clean_linker_0, # of connection points: 2
#     Edge 18, Type (0, 0), BuildingBlock: ZUJKAS_clean_linker_0, # of connection points: 2
#     Edge 19, Type (0, 0), BuildingBlock: ZUJKAS_clean_linker_0, # of connection points: 2
#     Edge 20, Type (0, 0), BuildingBlock: ZUJKAS_clean_linker_0, # of connection points: 2
#     Edge 21, Type (0, 0), BuildingBlock: ZUJKAS_clean_linker_0, # of connection points: 2
#     Edge 22, Type (0, 0), BuildingBlock: ZUJKAS_clean_linker_0, # of connection points: 2
#     Edge 23, Type (0, 0), BuildingBlock: ZUJKAS_clean_linker_0, # of connection points: 2
#     Edge 24, Type (0, 0), BuildingBlock: ZUJKAS_clean_linker_0, # of connection points: 2
#     Edge 25, Type (0, 0), BuildingBlock: ZUJKAS_clean_linker_0, # of connection points: 2
#     Edge 26, Type (0, 0), BuildingBlock: ZUJKAS_clean_linker_0, # of connection points: 2
#     Edge 27, Type (0, 0), BuildingBlock: ZUJKAS_clean_linker_0, # of connection points: 2
#     Edge 28, Type (0, 0), BuildingBlock: ZUJKAS_clean_linker_0, # of connection points: 2
#     Edge 29, Type (0, 0), BuildingBlock: ZUJKAS_clean_linker_0, # of connection points: 2
#     Edge 30, Type (0, 0), BuildingBlock: ZUJKAS_clean_linker_0, # of connection points: 2
#     Edge 31, Type (0, 0), BuildingBlock: ZUJKAS_clean_linker_0, # of connection points: 2
#     Edge 32, Type (0, 0), BuildingBlock: ZUJKAS_clean_linker_0, # of connection points: 2
#     Edge 33, Type (0, 0), BuildingBlock: ZUJKAS_clean_linker_0, # of connection points: 2
#     Edge 34, Type (0, 0), BuildingBlock: ZUJKAS_clean_linker_0, # of connection points: 2
#     Edge 35, Type (0, 0), BuildingBlock: ZUJKAS_clean_linker_0, # of connection points: 2
# Relax obj value: 0.123
# Max RMSD: 0.175
# Mean RMSD: 0.173
data_MOF--net-una--node1-NAHDIM_clean_sbu_0--edge1-ZUJKAS_clean_linker_0
_symmetry_space_group_name_H-M    P1
_symmetry_Int_Tables_number       1
_symmetry_cell_setting            triclinic
loop_
_symmetry_equiv_pos_as_xyz
'x, y, z'
_cell_length_a     75.40416
_cell_length_b     74.376403
_cell_length_c     27.748823
_cell_angle_alpha  89.944844
_cell_angle_beta   90.044147
_cell_angle_gamma 120.4852
loop_
_atom_site_label
_atom_site_type_symbol
_atom_site_fract_x
_atom_site_fract_y
_atom_site_fract_z
_atom_type_partial_charge
C0 C 0.09149 0.41847 -0.00029 0.0
O1 O 0.10287 0.43723 0.98141 0.0
O2 O 0.14677 0.44197 0.01541 0.0
Zn3 Zn 0.12482 0.43512 0.06504 0.0
O4 O 0.12441 0.46107 0.08292 0.0
C5 C 0.13655 0.40999 0.1185 0.0
O6 O 0.1357 0.40217 0.07553 0.0
O7 O 0.09761 0.41365 0.03758 0.0
C8 C 0.14072 0.47657 0.09953 0.0
O9 O 0.15716 0.47497 0.10536 0.0
C10 C 0.15419 0.45783 0.98791 0.0
O11 O 0.1473 0.47085 0.99089 0.0
O12 O 0.13179 0.42401 0.1232 0.0
C13 C 0.69973 0.13293 0.32735 0.0
O14 O 0.6825 0.13282 0.33527 0.0
O15 O 0.66202 0.12982 0.24643 0.0
Zn16 Zn 0.6866 0.12752 0.22752 0.0
O17 O 0.70502 0.15142 0.18432 0.0
C18 C 0.65991 0.09192 0.1704 0.0
O19 O 0.64791 0.09986 0.17514 0.0
O20 O 0.70382 0.12976 0.28492 0.0
C21 C 0.70067 0.15262 0.14066 0.0
O22 O 0.68325 0.13781 0.12251 0.0
C23 C 0.66212 0.14693 0.24407 0.0
O24 O 0.67904 0.16398 0.23104 0.0
O25 O 0.67738 0.10084 0.19101 0.0
C26 C 0.57318 0.67841 0.28835 0.0
O27 O 0.55639 0.67513 0.26615 0.0
O28 O 0.54983 0.70858 0.31189 0.0
Zn29 Zn 0.55642 0.69249 0.35964 0.0
O30 O 0.53063 0.6655 0.37487 0.0
C31 C 0.58358 0.72813 0.41504 0.0
O32 O 0.59214 0.73468 0.37251 0.0
O33 O 0.5769 0.68618 0.33043 0.0
C34 C 0.51678 0.6647 0.40235 0.0
O35 O 0.51954 0.68194 0.42231 0.0
C36 C 0.54332 0.72055 0.32523 0.0
O37 O 0.54061 0.72232 0.37135 0.0
O38 O 0.56809 0.70985 0.419 0.0
C39 C 0.89863 0.57285 0.47701 0.0
O40 O 0.88723 0.55494 0.45492 0.0
O41 O 0.84457 0.54965 0.47082 0.0
Zn42 Zn 0.86217 0.55576 0.52997 0.0
O43 O 0.86138 0.52961 0.55178 0.0
C44 C 0.83136 0.55491 0.58813 0.0
O45 O 0.82089 0.53746 0.56379 0.0
O46 O 0.89114 0.5773 0.51291 0.0
C47 C 0.86168 0.52516 0.59587 0.0
O48 O 0.86276 0.5382 0.62925 0.0
C49 C 0.8309 0.53132 0.45838 0.0
O50 O 0.82838 0.5153 0.48391 0.0
O51 O 0.85061 0.56614 0.58099 0.0
C52 C 0.27234 0.84282 0.77835 0.0
O53 O 0.26998 0.82923 0.74509 0.0
O54 O 0.33255 0.8684 0.73892 0.0
Zn55 Zn 0.30711 0.86887 0.7194 0.0
O56 O 0.29276 0.84823 0.66609 0.0
C57 C 0.33049 0.91368 0.70939 0.0
O58 O 0.34145 0.91242 0.74463 0.0
O59 O 0.28762 0.86131 0.77567 0.0
C60 C 0.30133 0.84189 0.63674 0.0
O61 O 0.32128 0.84947 0.63931 0.0
C62 C 0.33165 0.85159 0.75205 0.0
O63 O 0.31366 0.83432 0.75407 0.0
O64 O 0.31494 0.89713 0.69382 0.0
C65 C 0.42236 0.31769 0.79089 0.0
O66 O 0.43865 0.32066 0.76696 0.0
O67 O 0.44649 0.28758 0.80421 0.0
Zn68 Zn 0.43775 0.29978 0.85744 0.0
O69 O 0.46274 0.32466 0.88501 0.0
C70 C 0.41369 0.25875 0.89652 0.0
O71 O 0.4111 0.25385 0.85055 0.0
O72 O 0.41844 0.30864 0.83161 0.0
C73 C 0.4774 0.3228 0.90188 0.0
O74 O 0.47568 0.30431 0.9022 0.0
C75 C 0.46315 0.29742 0.78045 0.0
O76 O 0.47589 0.31727 0.78946 0.0
O77 O 0.42409 0.27785 0.90861 0.0
C78 C 0.56982 0.84133 0.79976 0.0
O79 O 0.55703 0.82841 0.83223 0.0
O80 O 0.53686 0.86847 0.83249 0.0
Zn81 Zn 0.56278 0.86945 0.85417 0.0
O82 O 0.55609 0.85038 0.91084 0.0
C83 C 0.58354 0.91444 0.86166 0.0
O84 O 0.57121 0.91276 0.82626 0.0
O85 O 0.57474 0.86039 0.80113 0.0
C86 C 0.54837 0.85283 0.94916 0.0
O87 O 0.54464 0.86825 0.9518 0.0
C88 C 0.5198 0.85135 0.83252 0.0
O89 O 0.51944 0.83413 0.84507 0.0
O90 O 0.58303 0.89815 0.87745 0.0
C91 C 0.68622 0.58956 0.08793 0.0
O92 O 0.7024 0.59087 0.10923 0.0
O93 O 0.70278 0.55281 0.08378 0.0
Zn94 Zn 0.68732 0.55752 0.03122 0.0
O95 O 0.66264 0.53006 0.01297 0.0
C96 C 0.70049 0.5656 0.93169 0.0
O97 O 0.6808 0.55338 0.92257 0.0
O98 O 0.67767 0.57671 0.05357 0.0
C99 C 0.66412 0.51409 0.00445 0.0
O100 O 0.68228 0.5157 0.00656 0.0
C101 C 0.69415 0.53882 0.11592 0.0
O102 O 0.674 0.52703 0.11636 0.0
O103 O 0.70649 0.56985 0.97513 0.0
C104 C 0.09985 0.69526 0.27625 0.0
O105 O 0.11553 0.71166 0.29607 0.0
O106 O 0.15244 0.71053 0.2642 0.0
Zn107 Zn 0.13086 0.69573 0.21344 0.0
O108 O 0.13125 0.67022 0.19158 0.0
C109 C 0.14397 0.73453 0.16569 0.0
O110 O 0.14462 0.74085 0.2102 0.0
O111 O 0.10289 0.6866 0.2403 0.0
C112 C 0.1479 0.67078 0.18086 0.0
O113 O 0.16535 0.68864 0.18308 0.0
C114 C 0.1579 0.70141 0.2944 0.0
O115 O 0.14887 0.68096 0.29391 0.0
O116 O 0.13766 0.71537 0.1579 0.0
C117 C 0.41689 0.12731 0.25808 0.0
O118 O 0.42543 0.11616 0.2478 0.0
O119 O 0.4573 0.12807 0.329 0.0
Zn120 Zn 0.43316 0.12952 0.35458 0.0
O121 O 0.4433 0.15431 0.39864 0.0
C122 C 0.42264 0.10094 0.43083 0.0
O123 O 0.44161 0.11495 0.44258 0.0
O124 O 0.4178 0.13371 0.30093 0.0
C125 C 0.46101 0.16375 0.41815 0.0
O126 O 0.47398 0.15721 0.41017 0.0
C127 C 0.47131 0.14303 0.30475 0.0
O128 O 0.46943 0.15926 0.29472 0.0
O129 O 0.41495 0.10355 0.39256 0.0
C130 C 0.31906 0.42274 0.62287 0.0
O131 O 0.32153 0.43879 0.64809 0.0
O132 O 0.28724 0.44418 0.61626 0.0
Zn133 Zn 0.30089 0.4387 0.56051 0.0
O134 O 0.32585 0.46555 0.54014 0.0
C135 C 0.2704 0.43523 0.4958 0.0
O136 O 0.27421 0.45206 0.51969 0.0
O137 O 0.31009 0.41903 0.58226 0.0
C138 C 0.33135 0.47034 0.49653 0.0
O139 O 0.32032 0.4573 0.46213 0.0
C140 C 0.29049 0.46229 0.62626 0.0
O141 O 0.30334 0.47825 0.59967 0.0
O142 O 0.28045 0.42629 0.50629 0.0
C143 C 0.89993 0.2996 0.76155 0.0
O144 O 0.8845 0.2812 0.77384 0.0
O145 O 0.84834 0.28915 0.76803 0.0
Zn146 Zn 0.86812 0.30366 0.71392 0.0
O147 O 0.86793 0.32993 0.69674 0.0
C148 C 0.84761 0.28398 0.62545 0.0
O149 O 0.84336 0.29906 0.62535 0.0
O150 O 0.89653 0.3115 0.73514 0.0
C151 C 0.85275 0.33212 0.7076 0.0
O152 O 0.83667 0.31672 0.72897 0.0
C153 C 0.85155 0.2957 0.81121 0.0
O154 O 0.86881 0.31282 0.82214 0.0
O155 O 0.85884 0.28337 0.65881 0.0
H156 H 0.15209 0.38375 0.11911 0.0
H157 H 0.17062 0.37845 0.18492 0.0
H158 H 0.16009 0.41914 0.2758 0.0
H159 H 0.14136 0.42425 0.21086 0.0
H160 H 0.20588 0.40968 0.22368 0.0
H161 H 0.14806 0.37216 0.36785 0.0
H162 H 0.141 0.37278 0.30589 0.0
H163 H 0.14822 0.39479 0.34492 0.0
C164 C 0.15334 0.3912 0.15347 0.0
C165 C 0.14534 0.4045 0.15971 0.0
C166 C 0.16392 0.38814 0.19099 0.0
C167 C 0.16649 0.39816 0.23544 0.0
C168 C 0.15786 0.41082 0.24224 0.0
H169 H 0.24429 0.44894 0.47146 0.0
H170 H 0.21836 0.43575 0.4079 0.0
C171 C 0.14729 0.41388 0.20486 0.0
C172 C 0.18024 0.39763 0.27278 0.0
H173 H 0.18373 0.39241 0.39402 0.0
C174 C 0.20096 0.40538 0.26073 0.0
C175 C 0.17375 0.39194 0.32101 0.0
C176 C 0.15148 0.38224 0.33556 0.0
C177 C 0.21566 0.4091 0.2963 0.0
C178 C 0.20937 0.40478 0.34494 0.0
C179 C 0.18847 0.39582 0.35663 0.0
C180 C 0.22452 0.41172 0.38451 0.0
C181 C 0.238 0.41888 0.28215 0.0
C182 C 0.23644 0.40242 0.39248 0.0
C183 C 0.25135 0.40994 0.4289 0.0
C184 C 0.25452 0.42689 0.45769 0.0
C185 C 0.24232 0.43594 0.44981 0.0
C186 C 0.22742 0.42837 0.41367 0.0
H187 H 0.24057 0.42329 0.24343 0.0
H188 H 0.24761 0.43303 0.30419 0.0
H189 H 0.24332 0.40768 0.28917 0.0
H190 H 0.23428 0.38944 0.37043 0.0
H191 H 0.26047 0.4026 0.43422 0.0
H192 H 0.84879 0.24777 0.62314 0.0
H193 H 0.82843 0.21734 0.57164 0.0
H194 H 0.80234 0.25003 0.49974 0.0
H195 H 0.8227 0.28048 0.55043 0.0
H196 H 0.78594 0.19472 0.56823 0.0
H197 H 0.81763 0.22532 0.38747 0.0
H198 H 0.83109 0.23809 0.44223 0.0
H199 H 0.8112 0.24231 0.4189 0.0
C200 C 0.83901 0.24862 0.59573 0.0
C201 C 0.83733 0.26654 0.59089 0.0
C202 C 0.82737 0.23121 0.56645 0.0
C203 C 0.81408 0.23154 0.53156 0.0
C204 C 0.81284 0.24961 0.52577 0.0
H205 H 0.69921 0.1485 0.4161 0.0
H206 H 0.72851 0.16823 0.46941 0.0
C207 C 0.8244 0.26697 0.55501 0.0
C208 C 0.80009 0.21255 0.50387 0.0
H209 H 0.78272 0.19609 0.38985 0.0
C210 C 0.78548 0.1948 0.52916 0.0
C211 C 0.79976 0.21251 0.45297 0.0
C212 C 0.81592 0.23052 0.42382 0.0
C213 C 0.76958 0.17763 0.50488 0.0
C214 C 0.76814 0.17846 0.45421 0.0
C215 C 0.78367 0.19554 0.42879 0.0
C216 C 0.74968 0.1631 0.42713 0.0
C217 C 0.75423 0.15903 0.53384 0.0
C218 C 0.75172 0.1534 0.3859 0.0
C219 C 0.73501 0.14229 0.35496 0.0
C220 C 0.71599 0.1408 0.36462 0.0
C221 C 0.71363 0.14933 0.40761 0.0
C222 C 0.73037 0.16051 0.43839 0.0
H223 H 0.76135 0.15732 0.5673 0.0
H224 H 0.74134 0.16131 0.54465 0.0
H225 H 0.74788 0.14437 0.51269 0.0
H226 H 0.7665 0.15526 0.37648 0.0
H227 H 0.73731 0.1358 0.32225 0.0
H228 H 0.56924 0.71937 0.50735 0.0
H229 H 0.57627 0.74421 0.57233 0.0
H230 H 0.61927 0.79461 0.48141 0.0
H231 H 0.61226 0.76986 0.41579 0.0
H232 H 0.61448 0.77571 0.61895 0.0
H233 H 0.5737 0.80856 0.51638 0.0
H234 H 0.57136 0.78391 0.50062 0.0
H235 H 0.59458 0.80785 0.4869 0.0
C236 C 0.58042 0.73569 0.50129 0.0
C237 C 0.59 0.74269 0.45622 0.0
C238 C 0.58446 0.74984 0.53852 0.0
C239 C 0.59807 0.77121 0.53132 0.0
C240 C 0.60853 0.77817 0.48734 0.0
H241 H 0.5957 0.86328 0.72512 0.0
H242 H 0.60765 0.84953 0.66052 0.0
C243 C 0.60453 0.76399 0.45 0.0
C244 C 0.5998 0.78613 0.56871 0.0
H245 H 0.58292 0.81963 0.59603 0.0
C246 C 0.60791 0.78561 0.61383 0.0
C247 C 0.59132 0.79908 0.56163 0.0
C248 C 0.58212 0.79992 0.51393 0.0
C249 C 0.60699 0.7971 0.6528 0.0
C250 C 0.59729 0.80898 0.64655 0.0
C251 C 0.5903 0.81046 0.60069 0.0
C252 C 0.59199 0.81791 0.6879 0.0
C253 C 0.616 0.79604 0.70053 0.0
C254 C 0.57915 0.80466 0.7244 0.0
C255 C 0.57229 0.8124 0.76111 0.0
C256 C 0.57797 0.83355 0.76183 0.0
C257 C 0.59106 0.84691 0.72555 0.0
C258 C 0.59794 0.83911 0.68873 0.0
H259 H 0.6288 0.79289 0.69543 0.0
H260 H 0.62182 0.81076 0.7212 0.0
H261 H 0.60392 0.78305 0.72221 0.0
H262 H 0.57389 0.78813 0.72372 0.0
H263 H 0.56219 0.80168 0.7884 0.0
H264 H 0.84832 0.58794 0.65105 0.0
H265 H 0.82998 0.59789 0.70832 0.0
H266 H 0.77205 0.54657 0.65925 0.0
H267 H 0.79007 0.53651 0.60223 0.0
H268 H 0.7754 0.58848 0.66956 0.0
H269 H 0.79917 0.5608 0.83057 0.0
H270 H 0.81867 0.57788 0.78851 0.0
H271 H 0.79994 0.55188 0.77053 0.0
C272 C 0.83168 0.57882 0.65242 0.0
C273 C 0.82064 0.56135 0.62237 0.0
C274 C 0.82126 0.58453 0.68508 0.0
C275 C 0.79972 0.5729 0.6879 0.0
C276 C 0.78869 0.55574 0.6574 0.0
H277 H 0.69406 0.55212 0.83836 0.0
H278 H 0.72016 0.55876 0.7779 0.0
C279 C 0.79904 0.54996 0.62505 0.0
C280 C 0.78842 0.57786 0.72378 0.0
H281 H 0.77502 0.57129 0.84244 0.0
C282 C 0.7755 0.58505 0.70753 0.0
C283 C 0.78877 0.57348 0.77317 0.0
C284 C 0.80228 0.56549 0.79207 0.0
C285 C 0.76232 0.58734 0.73936 0.0
C286 C 0.76176 0.58175 0.78831 0.0
C287 C 0.77545 0.57554 0.80488 0.0
C288 C 0.74592 0.58031 0.82218 0.0
C289 C 0.749 0.59546 0.72009 0.0
C290 C 0.75169 0.59017 0.86724 0.0
C291 C 0.7368 0.58614 0.90218 0.0
C292 C 0.71586 0.57213 0.89266 0.0
C293 C 0.71004 0.56306 0.84672 0.0
C294 C 0.72496 0.56698 0.81195 0.0
H295 H 0.75628 0.6058 0.68846 0.0
H296 H 0.73406 0.58211 0.70806 0.0
H297 H 0.74596 0.60424 0.74803 0.0
H298 H 0.76778 0.60044 0.87596 0.0
H299 H 0.74177 0.59345 0.93717 0.0
H300 H 0.23736 0.80522 0.79025 0.0
H301 H 0.21338 0.79375 0.85754 0.0
H302 H 0.24915 0.85411 0.92448 0.0
H303 H 0.27355 0.86578 0.85705 0.0
H304 H 0.24047 0.82126 0.98528 0.0
H305 H 0.1692 0.80717 0.89507 0.0
H306 H 0.18096 0.79483 0.86369 0.0
H307 H 0.19434 0.82285 0.86828 0.0
C308 C 0.24008 0.81619 0.81897 0.0
C309 C 0.25739 0.83641 0.81834 0.0
C310 C 0.22621 0.80965 0.8572 0.0
C311 C 0.22925 0.82322 0.89547 0.0
C312 C 0.24641 0.8435 0.89492 0.0
H313 H 0.16347 0.77713 0.17146 0.0
H314 H 0.1829 0.80229 0.10763 0.0
C315 C 0.26034 0.85011 0.85648 0.0
C316 C 0.21547 0.8153 0.93784 0.0
H317 H 0.16468 0.78779 0.96887 0.0
C318 C 0.22393 0.8144 0.98217 0.0
C319 C 0.19393 0.80645 0.93357 0.0
C320 C 0.1841 0.80806 0.88766 0.0
C321 C 0.21129 0.80344 0.02136 0.0
C322 C 0.18967 0.79343 0.01606 0.0
C323 C 0.18127 0.79542 0.97267 0.0
C324 C 0.17566 0.77882 0.05301 0.0
C325 C 0.22109 0.80147 0.06699 0.0
C326 C 0.16447 0.75742 0.04271 0.0
C327 C 0.15334 0.74304 0.07889 0.0
C328 C 0.15318 0.74984 0.12606 0.0
C329 C 0.16341 0.77139 0.13558 0.0
C330 C 0.17458 0.78579 0.09926 0.0
H331 H 0.23785 0.80759 0.0626 0.0
H332 H 0.21902 0.8104 0.09625 0.0
H333 H 0.21359 0.7849 0.07851 0.0
H334 H 0.16509 0.75178 0.00712 0.0
H335 H 0.14551 0.72657 0.07026 0.0
H336 H 0.41904 0.1231 0.16053 0.0
H337 H 0.41175 0.14151 0.09735 0.0
H338 H 0.39041 0.16801 0.20457 0.0
H339 H 0.39759 0.14977 0.26798 0.0
H340 H 0.36917 0.14822 0.0879 0.0
H341 H 0.44893 0.21389 0.12269 0.0
H342 H 0.44255 0.18709 0.12894 0.0
H343 H 0.43309 0.19812 0.17202 0.0
C344 C 0.41233 0.13243 0.1706 0.0
C345 C 0.40915 0.1352 0.21932 0.0
C346 C 0.40813 0.14286 0.13446 0.0
C347 C 0.40059 0.15605 0.14658 0.0
C348 C 0.39614 0.15778 0.19473 0.0
H349 H 0.41303 0.26302 0.99414 0.0
H350 H 0.40638 0.23672 0.05544 0.0
C351 C 0.40036 0.14742 0.23085 0.0
C352 C 0.4001 0.17022 0.11019 0.0
H353 H 0.42968 0.21908 0.06395 0.0
C354 C 0.38233 0.16373 0.08245 0.0
C355 C 0.41728 0.19041 0.10382 0.0
C356 C 0.43663 0.19796 0.13325 0.0
C357 C 0.38133 0.17711 0.04814 0.0
C358 C 0.39868 0.19727 0.04126 0.0
C359 C 0.41637 0.20367 0.0694 0.0
C360 C 0.39931 0.21199 0.00436 0.0
C361 C 0.36165 0.1697 0.02024 0.0
C362 C 0.39712 0.20669 0.95533 0.0
C363 C 0.40075 0.22165 0.92021 0.0
C364 C 0.40697 0.24226 0.93354 0.0
C365 C 0.40837 0.24731 0.98271 0.0
C366 C 0.40455 0.23229 0.01778 0.0
H367 H 0.34823 0.15691 0.03943 0.0
H368 H 0.35864 0.18265 0.01372 0.0
H369 H 0.36298 0.16357 0.98482 0.0
H370 H 0.39357 0.19127 0.94408 0.0
H371 H 0.39964 0.2173 0.88261 0.0
H372 H 0.17437 0.51397 0.12377 0.0
H373 H 0.17585 0.5472 0.13754 0.0
H374 H 0.11064 0.51765 0.11098 0.0
H375 H 0.10895 0.48433 0.09708 0.0
H376 H 0.16235 0.56816 0.06881 0.0
H377 H 0.12068 0.54831 0.24384 0.0
H378 H 0.13252 0.53422 0.22053 0.0
H379 H 0.10851 0.5296 0.19614 0.0
C380 C 0.16031 0.51449 0.12115 0.0
C381 C 0.14153 0.4965 0.10947 0.0
C382 C 0.16121 0.53349 0.12891 0.0
C383 C 0.14333 0.53476 0.12565 0.0
C384 C 0.12455 0.51687 0.11421 0.0
H385 H 0.11433 0.63213 0.1661 0.0
H386 H 0.11381 0.59958 0.1502 0.0
C387 C 0.12364 0.49788 0.10615 0.0
C388 C 0.14438 0.55495 0.13308 0.0
H389 H 0.12847 0.58033 0.20792 0.0
C390 C 0.15504 0.57092 0.09928 0.0
C391 C 0.13474 0.55834 0.17279 0.0
C392 C 0.12358 0.54181 0.21071 0.0
C393 C 0.15596 0.59018 0.10363 0.0
C394 C 0.14636 0.59362 0.14348 0.0
C395 C 0.13579 0.57763 0.17738 0.0
C396 C 0.14694 0.61364 0.15071 0.0
C397 C 0.16671 0.60641 0.06487 0.0
C398 C 0.16575 0.63235 0.15627 0.0
C399 C 0.16611 0.65104 0.16503 0.0
C400 C 0.14764 0.65127 0.169 0.0
C401 C 0.12883 0.6325 0.16325 0.0
C402 C 0.1285 0.61387 0.15422 0.0
H403 H 0.16814 0.59937 0.03086 0.0
H404 H 0.15837 0.61482 0.05712 0.0
H405 H 0.18246 0.61796 0.07725 0.0
H406 H 0.18015 0.63245 0.15479 0.0
H407 H 0.18084 0.66521 0.16967 0.0
H408 H 0.65587 0.17987 0.23334 0.0
H409 H 0.62359 0.1798 0.24359 0.0
H410 H 0.59277 0.11481 0.28356 0.0
H411 H 0.62492 0.1147 0.27367 0.0
H412 H 0.58565 0.15309 0.19333 0.0
H413 H 0.57759 0.14292 0.39203 0.0
H414 H 0.60173 0.15173 0.36129 0.0
H415 H 0.5823 0.12456 0.36099 0.0
C416 C 0.64228 0.16561 0.24477 0.0
C417 C 0.64297 0.1473 0.25281 0.0
C418 C 0.62386 0.1656 0.25047 0.0
C419 C 0.60591 0.14736 0.26474 0.0
C420 C 0.60657 0.12912 0.27322 0.0
H421 H 0.47946 0.11155 0.31806 0.0
H422 H 0.51206 0.11273 0.30488 0.0
C423 C 0.62493 0.12908 0.26738 0.0
C424 C 0.58627 0.14715 0.26907 0.0
H425 H 0.54885 0.13962 0.34925 0.0
C426 C 0.57762 0.15028 0.22742 0.0
C427 C 0.5759 0.1434 0.31359 0.0
C428 C 0.58489 0.14063 0.35967 0.0
C429 C 0.55853 0.14927 0.22889 0.0
C430 C 0.5481 0.14544 0.27342 0.0
C431 C 0.55687 0.14248 0.31513 0.0
C432 C 0.52803 0.14439 0.27781 0.0
C433 C 0.54946 0.15175 0.18262 0.0
C434 C 0.52618 0.16177 0.2666 0.0
C435 C 0.50752 0.16112 0.27382 0.0
C436 C 0.49047 0.14314 0.2929 0.0
C437 C 0.4923 0.12564 0.30333 0.0
C438 C 0.51092 0.12629 0.29591 0.0
H439 H 0.55653 0.14897 0.15049 0.0
H440 H 0.53257 0.14084 0.18141 0.0
H441 H 0.55234 0.16791 0.18032 0.0
H442 H 0.53932 0.17604 0.25351 0.0
H443 H 0.50665 0.1749 0.26573 0.0
H444 H 0.34713 0.48624 0.4074 0.0
H445 H 0.37877 0.51907 0.38905 0.0
H446 H 0.38965 0.53244 0.54089 0.0
H447 H 0.35821 0.49971 0.55968 0.0
H448 H 0.38962 0.56066 0.41646 0.0
H449 H 0.44363 0.53741 0.48987 0.0
H450 H 0.41711 0.51872 0.47588 0.0
H451 H 0.4235 0.53368 0.53052 0.0
C452 C 0.35627 0.49615 0.4369 0.0
C453 C 0.35022 0.4903 0.48501 0.0
C454 C 0.37431 0.51489 0.42633 0.0
C455 C 0.38664 0.52798 0.46366 0.0
C456 C 0.3805 0.52235 0.51163 0.0
H457 H 0.48348 0.65763 0.45627 0.0
H458 H 0.45167 0.62436 0.46943 0.0
C459 C 0.36248 0.50368 0.52225 0.0
C460 C 0.40585 0.54766 0.4526 0.0
H461 H 0.45787 0.57312 0.46912 0.0
C462 C 0.40457 0.56339 0.42773 0.0
C463 C 0.42529 0.55101 0.46695 0.0
C464 C 0.42759 0.53427 0.49192 0.0
C465 C 0.42227 0.58265 0.41775 0.0
C466 C 0.44164 0.58626 0.43358 0.0
C467 C 0.44295 0.57034 0.45748 0.0
C468 C 0.46079 0.60641 0.42545 0.0
C469 C 0.42013 0.5989 0.38997 0.0
C470 C 0.47659 0.6072 0.39726 0.0
C471 C 0.49481 0.62614 0.38984 0.0
C472 C 0.49759 0.64461 0.4108 0.0
C473 C 0.48179 0.64371 0.43948 0.0
C474 C 0.46356 0.62475 0.4468 0.0
H475 H 0.40521 0.59198 0.37048 0.0
H476 H 0.42087 0.61076 0.41544 0.0
H477 H 0.43283 0.60698 0.36353 0.0
H478 H 0.47476 0.59316 0.38072 0.0
H479 H 0.50668 0.62628 0.36763 0.0
H480 H 0.86096 0.49585 0.53542 0.0
H481 H 0.85878 0.46298 0.55724 0.0
H482 H 0.85729 0.47645 0.70782 0.0
H483 H 0.85982 0.50962 0.6864 0.0
H484 H 0.88421 0.46246 0.68789 0.0
H485 H 0.80781 0.41036 0.60576 0.0
H486 H 0.82599 0.42938 0.56453 0.0
H487 H 0.81758 0.43778 0.61599 0.0
C488 C 0.86013 0.49183 0.57321 0.0
C489 C 0.86047 0.50532 0.6092 0.0
C490 C 0.85875 0.47297 0.58558 0.0
C491 C 0.8575 0.46713 0.63408 0.0
C492 C 0.85811 0.48064 0.67015 0.0
H493 H 0.82411 0.34271 0.73168 0.0
H494 H 0.82545 0.37573 0.71604 0.0
C495 C 0.85954 0.49957 0.65783 0.0
C496 C 0.85603 0.44712 0.64709 0.0
H497 H 0.82712 0.39451 0.62958 0.0
C498 C 0.87167 0.44758 0.67543 0.0
C499 C 0.8395 0.42774 0.63132 0.0
C500 C 0.82165 0.42619 0.60312 0.0
C501 C 0.8715 0.42916 0.68743 0.0
C502 C 0.85545 0.40986 0.66983 0.0
C503 C 0.83953 0.40936 0.64253 0.0
C504 C 0.85482 0.38997 0.67941 0.0
C505 C 0.88837 0.43052 0.71928 0.0
C506 C 0.87076 0.38694 0.66336 0.0
C507 C 0.87009 0.36812 0.67236 0.0
C508 C 0.85334 0.35191 0.69718 0.0
C509 C 0.83724 0.35488 0.71252 0.0
C510 C 0.83797 0.37374 0.70364 0.0
H511 H 0.89598 0.44527 0.74027 0.0
H512 H 0.88228 0.41717 0.74478 0.0
H513 H 0.90024 0.43011 0.69648 0.0
H514 H 0.88368 0.3991 0.64361 0.0
H515 H 0.88267 0.36628 0.65978 0.0
H516 H 0.37118 0.88449 0.75017 0.0
H517 H 0.40284 0.8837 0.76325 0.0
H518 H 0.36723 0.81748 0.78985 0.0
H519 H 0.33543 0.81803 0.77636 0.0
H520 H 0.41519 0.87042 0.84558 0.0
H521 H 0.40807 0.82303 0.68413 0.0
H522 H 0.39311 0.83559 0.69171 0.0
H523 H 0.38604 0.81178 0.72325 0.0
C524 C 0.37005 0.86974 0.75882 0.0
C525 C 0.35078 0.85129 0.76197 0.0
C526 C 0.38816 0.86934 0.76628 0.0
C527 C 0.38735 0.85049 0.77675 0.0
C528 C 0.36816 0.83211 0.78087 0.0
H529 H 0.48067 0.8177 0.8329 0.0
H530 H 0.44855 0.81759 0.81942 0.0
C531 C 0.35002 0.83249 0.77345 0.0
C532 C 0.40664 0.85017 0.78389 0.0
H533 H 0.43529 0.83043 0.73815 0.0
C534 C 0.41964 0.86174 0.82206 0.0
C535 C 0.41232 0.83879 0.7531 0.0
C536 C 0.39928 0.82672 0.71047 0.0
C537 C 0.43811 0.86202 0.83071 0.0
C538 C 0.44385 0.85072 0.79978 0.0
C539 C 0.43081 0.83908 0.76173 0.0
C540 C 0.46337 0.8508 0.8064 0.0
C541 C 0.45111 0.87406 0.87342 0.0
C542 C 0.48233 0.86946 0.80249 0.0
C543 C 0.5007 0.86959 0.81019 0.0
C544 C 0.50043 0.85103 0.82167 0.0
C545 C 0.48141 0.83227 0.82427 0.0
C546 C 0.46304 0.83217 0.81658 0.0
H547 H 0.44216 0.87736 0.90014 0.0
H548 H 0.45762 0.86539 0.89167 0.0
H549 H 0.4641 0.88921 0.86082 0.0
H550 H 0.4829 0.88393 0.79367 0.0
H551 H 0.51509 0.88428 0.80762 0.0
H552 H 0.48516 0.36277 0.90966 0.0
H553 H 0.51774 0.39398 0.93062 0.0
H554 H 0.54598 0.35652 0.94975 0.0
H555 H 0.51344 0.32514 0.92873 0.0
H556 H 0.54256 0.40188 0.01809 0.0
H557 H 0.58284 0.40266 0.84929 0.0
H558 H 0.55515 0.38812 0.85474 0.0
H559 H 0.57026 0.37857 0.88258 0.0
C560 C 0.49826 0.36112 0.9185 0.0
C561 C 0.49675 0.34149 0.91729 0.0
C562 C 0.51684 0.37897 0.9305 0.0
C563 C 0.53425 0.37752 0.94111 0.0
C564 C 0.53273 0.35793 0.94101 0.0
H565 H 0.66108 0.47601 0.99435 0.0
H566 H 0.62977 0.44223 0.98138 0.0
C567 C 0.51411 0.34004 0.92922 0.0
C568 C 0.55403 0.39663 0.9518 0.0
H569 H 0.60198 0.42903 0.90616 0.0
C570 C 0.5556 0.40782 0.99377 0.0
C571 C 0.57096 0.40419 0.92001 0.0
C572 C 0.56982 0.3929 0.8739 0.0
C573 C 0.57373 0.4265 0.00482 0.0
C574 C 0.59051 0.43439 0.97237 0.0
C575 C 0.58906 0.42296 0.93086 0.0
C576 C 0.60944 0.45481 0.98007 0.0
C577 C 0.57481 0.43751 0.05136 0.0
C578 C 0.6084 0.47309 0.98263 0.0
C579 C 0.6262 0.49236 0.99016 0.0
C580 C 0.64543 0.49375 0.99475 0.0
C581 C 0.6465 0.47547 0.99104 0.0
C582 C 0.62864 0.45616 0.98369 0.0
H583 H 0.5635 0.42662 0.07815 0.0
H584 H 0.59045 0.44484 0.06743 0.0
H585 H 0.57116 0.44995 0.04405 0.0
H586 H 0.5938 0.47245 0.97866 0.0
H587 H 0.62485 0.50616 0.99243 0.0
H588 H 0.26591 0.43346 0.69315 0.0
H589 H 0.24573 0.43754 0.75652 0.0
H590 H 0.26883 0.50125 0.71269 0.0
H591 H 0.28917 0.49739 0.64901 0.0
H592 H 0.26132 0.47054 0.83375 0.0
H593 H 0.20354 0.47047 0.70813 0.0
H594 H 0.21953 0.45988 0.69116 0.0
H595 H 0.23041 0.48758 0.69491 0.0
C596 C 0.26677 0.44838 0.69701 0.0
C597 C 0.27905 0.46508 0.66591 0.0
C598 C 0.25528 0.45068 0.73328 0.0
C599 C 0.25573 0.46963 0.73883 0.0
C600 C 0.26821 0.48647 0.70853 0.0
H601 H 0.17489 0.49098 0.92662 0.0
H602 H 0.20151 0.49653 0.86809 0.0
C603 C 0.27984 0.48423 0.67235 0.0
C604 C 0.24275 0.47146 0.77596 0.0
H605 H 0.1981 0.47192 0.79102 0.0
C606 C 0.24759 0.47103 0.82456 0.0
C607 C 0.22499 0.47226 0.76356 0.0
C608 C 0.21912 0.47248 0.71166 0.0
C609 C 0.23483 0.47097 0.86136 0.0
C610 C 0.21654 0.4708 0.84898 0.0
C611 C 0.21211 0.47199 0.80034 0.0
C612 C 0.20112 0.46798 0.88567 0.0
C613 C 0.24104 0.47104 0.91309 0.0
C614 C 0.19194 0.44998 0.91443 0.0
C615 C 0.17682 0.44679 0.94787 0.0
C616 C 0.1704 0.46144 0.95281 0.0
C617 C 0.17952 0.47942 0.92372 0.0
C618 C 0.19473 0.48263 0.89032 0.0
H619 H 0.25795 0.47794 0.91654 0.0
H620 H 0.23621 0.4799 0.93647 0.0
H621 H 0.23355 0.45473 0.92645 0.0
H622 H 0.19625 0.43821 0.9105 0.0
H623 H 0.17001 0.43271 0.96948 0.0
H624 H 0.69905 0.15727 0.04329 0.0
H625 H 0.72514 0.18496 0.99251 0.0
H626 H 0.76188 0.21522 0.11832 0.0
H627 H 0.73611 0.18744 0.16927 0.0
H628 H 0.74173 0.22819 0.99308 0.0
H629 H 0.80142 0.20736 0.03264 0.0
H630 H 0.77468 0.19047 0.04792 0.0
H631 H 0.79081 0.21279 0.08473 0.0
C632 C 0.71264 0.16985 0.06018 0.0
C633 C 0.71564 0.17004 0.11021 0.0
C634 C 0.72751 0.18566 0.03114 0.0
C635 C 0.74558 0.2019 0.05163 0.0
C636 C 0.74825 0.20257 0.10173 0.0
H637 H 0.85502 0.30174 0.90897 0.0
H638 H 0.82923 0.28102 0.97037 0.0
C639 C 0.73346 0.18672 0.13077 0.0
C640 C 0.76181 0.21783 0.02032 0.0
H641 H 0.81134 0.23678 0.98327 0.0
C642 C 0.75698 0.23015 0.99103 0.0
C643 C 0.78169 0.22033 0.01789 0.0
C644 C 0.78748 0.20694 0.04712 0.0
C645 C 0.77149 0.24481 0.95898 0.0
C646 C 0.79119 0.247 0.9559 0.0
C647 C 0.79621 0.23509 0.98602 0.0
C648 C 0.8063 0.26036 0.91909 0.0
C649 C 0.76562 0.2578 0.92851 0.0
C650 C 0.80192 0.25543 0.87019 0.0
C651 C 0.81658 0.26708 0.83521 0.0
C652 C 0.83593 0.28388 0.84852 0.0
C653 C 0.84023 0.28893 0.8976 0.0
C654 C 0.82555 0.27714 0.93267 0.0
H655 H 0.75237 0.25841 0.94415 0.0
H656 H 0.77878 0.27398 0.92449 0.0
H657 H 0.76111 0.25078 0.89206 0.0
H658 H 0.78729 0.24227 0.85911 0.0
H659 H 0.81277 0.26278 0.79773 0.0
H660 H 0.53175 0.74944 0.34167 0.0
H661 H 0.52728 0.77108 0.28193 0.0
H662 H 0.54258 0.74175 0.16831 0.0
H663 H 0.54687 0.71995 0.22744 0.0
H664 H 0.55745 0.79917 0.21905 0.0
H665 H 0.49024 0.73884 0.11771 0.0
H666 H 0.49716 0.7341 0.17673 0.0
H667 H 0.51032 0.73278 0.12398 0.0
C668 C 0.53394 0.74743 0.30391 0.0
C669 C 0.53965 0.73296 0.28926 0.0
C670 C 0.53137 0.7598 0.26989 0.0
C671 C 0.53428 0.75775 0.22073 0.0
C672 C 0.5398 0.74322 0.206 0.0
H673 H 0.55304 0.81884 0.95311 0.0
H674 H 0.54744 0.79623 0.02215 0.0
C675 C 0.5424 0.73089 0.23991 0.0
C676 C 0.53303 0.77178 0.18487 0.0
H677 H 0.51073 0.77182 0.07789 0.0
C678 C 0.54699 0.79328 0.18861 0.0
C679 C 0.51932 0.76399 0.14535 0.0
C680 C 0.50327 0.74118 0.14086 0.0
C681 C 0.54843 0.80711 0.15234 0.0
C682 C 0.53533 0.79917 0.11178 0.0
C683 C 0.52078 0.7778 0.10903 0.0
C684 C 0.53768 0.81252 0.06998 0.0
C685 C 0.56463 0.8299 0.15643 0.0
C686 C 0.53374 0.82897 0.07397 0.0
C687 C 0.53696 0.842 0.03451 0.0
C688 C 0.54414 0.8387 0.99053 0.0
C689 C 0.54761 0.82189 0.98652 0.0
C690 C 0.54436 0.8089 0.02587 0.0
H691 H 0.57575 0.83285 0.18594 0.0
H692 H 0.57326 0.83567 0.12208 0.0
H693 H 0.55708 0.8391 0.16391 0.0
H694 H 0.5283 0.8318 0.10762 0.0
H695 H 0.53405 0.85475 0.03864 0.0
H696 H 0.83437 0.56022 0.39267 0.0
H697 H 0.80908 0.55632 0.33215 0.0
H698 H 0.76958 0.49219 0.37442 0.0
H699 H 0.79486 0.49584 0.4351 0.0
H700 H 0.78843 0.52131 0.2537 0.0
H701 H 0.73706 0.5261 0.39127 0.0
H702 H 0.76425 0.53701 0.40211 0.0
H703 H 0.7474 0.50928 0.40209 0.0
C704 C 0.82041 0.54521 0.38884 0.0
C705 C 0.81655 0.52836 0.41884 0.0
C706 C 0.80602 0.54302 0.35423 0.0
C707 C 0.78751 0.52404 0.3493 0.0
C708 C 0.78381 0.50698 0.37805 0.0
H709 H 0.68151 0.50711 0.18162 0.0
H710 H 0.70312 0.50081 0.23703 0.0
C711 C 0.79828 0.50909 0.41251 0.0
C712 C 0.77179 0.52255 0.31533 0.0
H713 H 0.72809 0.52537 0.30996 0.0
C714 C 0.77509 0.52196 0.26584 0.0
C715 C 0.75441 0.52324 0.33161 0.0
C716 C 0.75044 0.52401 0.38464 0.0
C717 C 0.76161 0.52254 0.23189 0.0
C718 C 0.74477 0.52434 0.24808 0.0
C719 C 0.74106 0.52409 0.29769 0.0
C720 C 0.73166 0.52785 0.21425 0.0
C721 C 0.76558 0.52131 0.17905 0.0
C722 C 0.74051 0.54537 0.18395 0.0
C723 C 0.72828 0.54898 0.15231 0.0
C724 C 0.70688 0.53526 0.15077 0.0
C725 C 0.69795 0.51795 0.18193 0.0
C726 C 0.71026 0.5143 0.2135 0.0
H727 H 0.77441 0.51324 0.17334 0.0
H728 H 0.75097 0.51297 0.1584 0.0
H729 H 0.77484 0.53734 0.16431 0.0
H730 H 0.75692 0.55636 0.18499 0.0
H731 H 0.73562 0.56256 0.12911 0.0
H732 H 0.17673 0.74329 0.31012 0.0
H733 H 0.20428 0.76412 0.3669 0.0
H734 H 0.20488 0.70903 0.41311 0.0
H735 H 0.17685 0.68786 0.35682 0.0
H736 H 0.20514 0.73209 0.48845 0.0
H737 H 0.26482 0.78348 0.35799 0.0
H738 H 0.2414 0.78372 0.34883 0.0
H739 H 0.24174 0.7599 0.33993 0.0
C740 C 0.18276 0.73557 0.33211 0.0
C741 C 0.17464 0.71392 0.32887 0.0
C742 C 0.19866 0.74755 0.36427 0.0
C743 C 0.20696 0.73821 0.39337 0.0
C744 C 0.19881 0.71657 0.39055 0.0
H745 H 0.31366 0.82246 0.57222 0.0
H746 H 0.29206 0.79503 0.51446 0.0
C747 C 0.18279 0.70451 0.35849 0.0
C748 C 0.22327 0.75099 0.42869 0.0
H749 H 0.26922 0.79644 0.43964 0.0
C750 C 0.21932 0.74596 0.47774 0.0
C751 C 0.24197 0.76884 0.41467 0.0
C752 C 0.24784 0.77417 0.36242 0.0
C753 C 0.23297 0.75906 0.51331 0.0
C754 C 0.25076 0.77786 0.49937 0.0
C755 C 0.25539 0.78219 0.45027 0.0
C756 C 0.26386 0.79396 0.53502 0.0
C757 C 0.22802 0.75278 0.56549 0.0
C758 C 0.2552 0.80266 0.56497 0.0
C759 C 0.26742 0.81822 0.59788 0.0
C760 C 0.28863 0.8256 0.60114 0.0
C761 C 0.29737 0.81709 0.57061 0.0
C762 C 0.28507 0.80141 0.53769 0.0
H763 H 0.21838 0.73556 0.56933 0.0
H764 H 0.24224 0.75835 0.58722 0.0
H765 H 0.21919 0.75972 0.58046 0.0
H766 H 0.23898 0.79755 0.56255 0.0
H767 H 0.2602 0.82452 0.62061 0.0
H768 H 0.44095 0.2562 0.75695 0.0
H769 H 0.4483 0.23809 0.69401 0.0
H770 H 0.50333 0.29546 0.65552 0.0
H771 H 0.49603 0.3139 0.71855 0.0
H772 H 0.47816 0.27355 0.5767 0.0
H773 H 0.49267 0.22166 0.69212 0.0
H774 H 0.46911 0.22075 0.70745 0.0
H775 H 0.49325 0.24469 0.71504 0.0
C776 C 0.4547 0.265 0.73537 0.0
C777 C 0.46793 0.2865 0.7428 0.0
C778 C 0.45895 0.25458 0.69964 0.0
C779 C 0.47654 0.26538 0.6708 0.0
C780 C 0.48978 0.28684 0.67783 0.0
H781 H 0.49653 0.18609 0.4702 0.0
H782 H 0.50465 0.21415 0.5279 0.0
C783 C 0.48557 0.29733 0.71378 0.0
C784 C 0.48024 0.25422 0.63167 0.0
H785 H 0.48275 0.21047 0.60993 0.0
C786 C 0.47958 0.25999 0.58386 0.0
C787 C 0.48249 0.23681 0.64114 0.0
C788 C 0.48465 0.23073 0.69176 0.0
C789 C 0.47961 0.24786 0.54523 0.0
C790 C 0.47999 0.22939 0.55494 0.0
C791 C 0.48218 0.2245 0.60259 0.0
C792 C 0.47612 0.2139 0.51694 0.0
C793 C 0.4787 0.25464 0.49449 0.0
C794 C 0.45736 0.20445 0.49192 0.0
C795 C 0.45265 0.18844 0.45915 0.0
C796 C 0.46656 0.18145 0.45103 0.0
C797 C 0.48549 0.19113 0.47564 0.0
C798 C 0.49018 0.20717 0.50854 0.0
H799 H 0.48541 0.27181 0.49233 0.0
H800 H 0.48701 0.25001 0.46895 0.0
H801 H 0.46238 0.24714 0.48292 0.0
H802 H 0.44607 0.20905 0.49878 0.0
H803 H 0.43793 0.18129 0.4409 0.0
H804 H 0.0742 0.42432 0.91934 0.0
H805 H 0.04212 0.39912 0.87993 0.0
H806 H 0.033 0.35266 0.98569 0.0
H807 H 0.06502 0.37789 0.02591 0.0
H808 H 0.03091 0.35946 0.84077 0.0
H809 H 0.97903 0.35397 0.99003 0.0
H810 H 0.00557 0.37467 0.98666 0.0
H811 H -0.00069 0.34903 0.00573 0.0
C812 C 0.06537 0.40877 0.93437 0.0
C813 C 0.07208 0.40315 0.97595 0.0
C814 C 0.04708 0.39438 0.9117 0.0
C815 C 0.03514 0.37414 0.93021 0.0
C816 C 0.04188 0.36833 0.97133 0.0
H817 H 0.91141 0.28133 0.83108 0.0
H818 H 0.94501 0.2963 0.87073 0.0
C819 C 0.06019 0.38275 0.99414 0.0
C820 C 0.01556 0.3593 0.90632 0.0
H821 H 0.96345 0.3342 0.92048 0.0
C822 C 0.01615 0.35376 0.85828 0.0
C823 C 0.99637 0.35182 0.92947 0.0
C824 C 0.99488 0.35774 0.9807 0.0
C825 C -0.00202 0.34133 0.83227 0.0
C826 C 0.97881 0.3346 0.85477 0.0
C827 C 0.97821 0.33939 0.90342 0.0
C828 C 0.95929 0.32437 0.82742 0.0
C829 C -0.00052 0.33575 0.78078 0.0
C830 C 0.9563 0.33519 0.78987 0.0
C831 C 0.93718 0.32676 0.76731 0.0
C832 C 0.92065 0.30738 0.78208 0.0
C833 C 0.92385 0.29627 0.81879 0.0
C834 C 0.94301 0.30478 0.8415 0.0
H835 H 0.01424 0.33625 0.77401 0.0
H836 H 0.98656 0.31996 0.77155 0.0
H837 H -0.0012 0.3472 0.75634 0.0
H838 H 0.96854 0.35053 0.77915 0.0
H839 H 0.93523 0.33572 0.7392 0.0
H840 H 0.60913 0.92237 0.93847 0.0
H841 H 0.62529 0.9537 0.98851 0.0
H842 H 0.60159 0.98286 0.89475 0.0
H843 H 0.58535 0.95157 0.84414 0.0
H844 H 0.6447 0.00951 0.92995 0.0
H845 H 0.58662 0.96649 0.07314 0.0
H846 H 0.60029 0.95421 0.05081 0.0
H847 H 0.58314 0.95742 0.01162 0.0
C848 C 0.60757 0.93554 0.92799 0.0
C849 C 0.59573 0.93439 0.88764 0.0
C850 C 0.61679 0.95339 0.9567 0.0
C851 C 0.61433 0.97037 0.94558 0.0
C852 C 0.60355 0.96981 0.90387 0.0
H853 H 0.62294 0.06833 0.12563 0.0
H854 H 0.61295 0.0391 0.07062 0.0
C855 C 0.59428 0.95193 0.87509 0.0
C856 C 0.62169 0.98804 0.97937 0.0
H857 H 0.61258 0.00099 0.0908 0.0
C858 C 0.63778 0.00771 0.96519 0.0
C859 C 0.61238 0.98554 0.025 0.0
C860 C 0.59454 0.96484 0.04115 0.0
C861 C 0.64494 0.02503 0.99585 0.0
C862 C 0.63578 0.02245 0.04171 0.0
C863 C 0.61963 0.0028 0.05571 0.0
C864 C 0.6421 0.04014 0.07503 0.0
C865 C 0.66189 0.04604 0.97868 0.0
C866 C 0.66169 0.05013 0.09621 0.0
C867 C 0.66744 0.06679 0.1279 0.0
C868 C 0.65365 0.0737 0.1388 0.0
C869 C 0.63394 0.06343 0.11791 0.0
C870 C 0.6282 0.04675 0.08646 0.0
H871 H 0.66461 0.04617 0.9393 0.0
H872 H 0.65815 0.05835 0.98705 0.0
H873 H 0.67638 0.05004 -0.00229 0.0
H874 H 0.67249 0.04499 0.08833 0.0
H875 H 0.68273 0.07437 0.14343 0.0
H876 H 0.69739 0.61479 0.16745 0.0
H877 H 0.67998 0.63233 0.20045 0.0
H878 H 0.63712 0.60953 0.08181 0.0
H879 H 0.65416 0.59176 0.04889 0.0
H880 H 0.67134 0.66239 0.15972 0.0
H881 H 0.60031 0.58749 0.20227 0.0
H882 H 0.62439 0.58905 0.18788 0.0
H883 H 0.60847 0.58985 0.14065 0.0
C884 C 0.68434 0.61363 0.14821 0.0
C885 C 0.677 0.60168 0.10587 0.0
C886 C 0.67445 0.62366 0.16709 0.0
C887 C 0.65708 0.62187 0.14397 0.0
C888 C 0.65027 0.61072 0.10065 0.0
H889 H 0.56843 0.65964 0.20102 0.0
H890 H 0.59019 0.64758 0.16541 0.0
C891 C 0.66007 0.60065 0.08185 0.0
C892 C 0.64561 0.63105 0.16576 0.0
H893 H 0.59852 0.61826 0.2105 0.0
C894 C 0.65546 0.65279 0.17109 0.0
C895 C 0.62494 0.6184 0.18071 0.0
C896 C 0.61393 0.59489 0.17807 0.0
C897 C 0.64492 0.66228 0.18987 0.0
C898 C 0.62415 0.64962 0.20405 0.0
C899 C 0.61441 0.62789 0.19921 0.0
C900 C 0.61209 0.65847 0.22413 0.0
C901 C 0.65588 0.68574 0.19338 0.0
C902 C 0.61728 0.66861 0.26889 0.0
C903 C 0.60485 0.67548 0.28944 0.0
C904 C 0.58699 0.67223 0.26558 0.0
C905 C 0.58206 0.66238 0.22034 0.0
C906 C 0.59447 0.65549 0.19991 0.0
H907 H 0.67015 0.69334 0.17134 0.0
H908 H 0.64567 0.69163 0.18151 0.0
H909 H 0.66019 0.69046 0.23149 0.0
H910 H 0.63064 0.67072 0.28848 0.0
H911 H 0.60905 0.683 0.32437 0.0
H912 H 0.08792 0.70818 0.3561 0.0
H913 H 0.05421 0.69008 0.39589 0.0
H914 H 0.03147 0.64262 0.28593 0.0
H915 H 0.06489 0.66043 0.24599 0.0
H916 H 0.01225 0.67609 0.35495 0.0
H917 H 0.02373 0.6119 0.41878 0.0
H918 H 0.0448 0.63701 0.40022 0.0
H919 H 0.02885 0.61809 0.35583 0.0
C920 C 0.07568 0.69399 0.34016 0.0
C921 C 0.07914 0.68563 0.29812 0.0
C922 C 0.05648 0.68371 0.36292 0.0
C923 C 0.04056 0.66492 0.3441 0.0
C924 C 0.04372 0.65698 0.30126 0.0
H925 H 0.91833 0.56783 0.40053 0.0
H926 H 0.95314 0.59181 0.372 0.0
C927 C 0.06282 0.66723 0.27845 0.0
C928 C 0.02075 0.65305 0.36968 0.0
H929 H 0.98985 0.6063 0.4247 0.0
C930 C 0.00737 0.66095 0.37081 0.0
C931 C 0.01461 0.63338 0.39039 0.0
C932 C 0.02879 0.62461 0.39174 0.0
C933 C 0.98748 0.64914 0.39015 0.0
C934 C 0.98109 0.62913 0.40937 0.0
C935 C 0.99479 0.62161 0.40971 0.0
C936 C 0.95987 0.61514 0.42668 0.0
C937 C 0.97315 0.65771 0.388 0.0
C938 C 0.9522 0.6203 0.4671 0.0
C939 C 0.93223 0.60661 0.48355 0.0
C940 C 0.91972 0.5875 0.45992 0.0
C941 C 0.92754 0.58241 0.41955 0.0
C942 C 0.94744 0.59609 0.40318 0.0
H943 H 0.97905 0.67148 0.36381 0.0
H944 H 0.95766 0.64558 0.37529 0.0
H945 H 0.97143 0.66257 0.42466 0.0
H946 H 0.96171 0.63479 0.48621 0.0
H947 H 0.92667 0.61093 0.51487 0.0
H948 H 0.3838 0.06784 0.41517 0.0
H949 H 0.36472 0.03668 0.46548 0.0
H950 H 0.41549 0.06078 0.56548 0.0
H951 H 0.43455 0.09196 0.51592 0.0
H952 H 0.37771 0.00851 0.48931 0.0
H953 H 0.3657 0.04338 0.65363 0.0
H954 H 0.37272 0.05673 0.59628 0.0
H955 H 0.39198 0.05626 0.63366 0.0
C956 C 0.39082 0.06659 0.4481 0.0
C957 C 0.41069 0.08237 0.46157 0.0
C958 C 0.3799 0.0488 0.47678 0.0
C959 C 0.38858 0.04662 0.51953 0.0
C960 C 0.40833 0.06239 0.53317 0.0
H961 H 0.36528 0.95131 0.72638 0.0
H962 H 0.37773 0.98363 0.68051 0.0
C963 C 0.41927 0.08013 0.50456 0.0
C964 C 0.37768 0.02726 0.54829 0.0
H965 H 0.35991 0.00878 0.66134 0.0
C966 C 0.37355 0.00848 0.52674 0.0
C967 C 0.3724 0.02737 0.59714 0.0
C968 C 0.37574 0.04698 0.62149 0.0
C969 C 0.36494 0.98987 0.55325 0.0
C970 C 0.35999 0.99005 0.60235 0.0
C971 C 0.36376 0.00875 0.62369 0.0
C972 C 0.35154 0.97104 0.6324 0.0
C973 C 0.36194 0.97036 0.52897 0.0
C974 C 0.33244 0.95351 0.62132 0.0
C975 C 0.32532 0.93502 0.64727 0.0
C976 C 0.33714 0.9338 0.68501 0.0
C977 C 0.35585 0.9517 0.6974 0.0
C978 C 0.36298 0.97018 0.67129 0.0
H979 H 0.37078 0.9739 0.49481 0.0
H980 H 0.36672 0.96166 0.55312 0.0
H981 H 0.34539 0.96003 0.52035 0.0
H982 H 0.32321 0.95402 0.59199 0.0
H983 H 0.31074 0.92157 0.6371 0.0
H984 H 0.33786 0.426 0.70912 0.0
H985 H 0.35339 0.40592 0.7369 0.0
H986 H 0.33504 0.37038 0.60502 0.0
H987 H 0.3192 0.39022 0.57702 0.0
H988 H 0.32816 0.34605 0.68957 0.0
H989 H 0.40761 0.41425 0.68086 0.0
H990 H 0.39012 0.41844 0.71631 0.0
H991 H 0.386 0.41414 0.65253 0.0
C992 C 0.33705 0.41387 0.68603 0.0
C993 C 0.32747 0.40983 0.64065 0.0
C994 C 0.34598 0.40246 0.70193 0.0
C995 C 0.34563 0.38694 0.67263 0.0
C996 C 0.33553 0.38239 0.628 0.0
H997 H 0.4262 0.33659 0.70414 0.0
H998 H 0.40619 0.3517 0.6739 0.0
C999 C 0.32654 0.39377 0.61206 0.0
C1000 C 0.35627 0.37582 0.68813 0.0
H1001 H 0.40358 0.38356 0.71732 0.0
C1002 C 0.34465 0.35418 0.69553 0.0
C1003 C 0.37781 0.38651 0.69517 0.0
C1004 C 0.39119 0.40958 0.68541 0.0
C1005 C 0.35402 0.34296 0.71074 0.0
C1006 C 0.37548 0.35377 0.71925 0.0
C1007 C 0.3871 0.37535 0.71106 0.0
C1008 C 0.38635 0.3431 0.73634 0.0
C1009 C 0.34096 0.31963 0.71689 0.0
C1010 C 0.38175 0.3332 0.78144 0.0
C1011 C 0.39314 0.32449 0.79885 0.0
C1012 C 0.40943 0.32572 0.77156 0.0
C1013 C 0.41378 0.3354 0.7261 0.0
C1014 C 0.40237 0.34404 0.70873 0.0
H1015 H 0.32611 0.31315 0.69725 0.0
H1016 H 0.3492 0.31173 0.70388 0.0
H1017 H 0.33748 0.31594 0.75571 0.0
H1018 H 0.36971 0.33268 0.80371 0.0
H1019 H 0.38946 0.31721 0.83408 0.0
loop_
_geom_bond_atom_site_label_1
_geom_bond_atom_site_label_2
_geom_bond_distance
_geom_bond_site_symmetry_2
_ccdc_geom_bond_type
C0 O1 1.160 1_554 S
C0 O7 1.185 . S
O1 C0 1.160 1_556 S
O2 Zn3 1.899 1_556 S
O2 C10 1.284 . S
Zn3 O2 1.899 1_554 S
Zn3 O4 2.032 . S
Zn3 O7 2.086 . S
Zn3 O12 1.977 . S
O4 Zn3 2.032 . S
O4 C8 1.278 . S
C5 O6 1.203 . S
C5 O12 1.267 . S
O6 C5 1.203 . S
O7 C0 1.185 . S
O7 Zn3 2.086 . S
C8 O4 1.278 . S
C8 O9 1.211 . S
O9 C8 1.211 . S
C10 O2 1.284 . S
C10 O11 1.273 . S
O11 C10 1.273 . S
O12 Zn3 1.977 . S
O12 C5 1.267 . S
C13 O14 1.160 . S
C13 O20 1.185 . S
O14 C13 1.160 . S
O15 Zn16 1.899 . S
O15 C23 1.284 . S
Zn16 O15 1.899 . S
Zn16 O17 2.032 . S
Zn16 O20 2.086 . S
Zn16 O25 1.977 . S
O17 Zn16 2.032 . S
O17 C21 1.278 . S
C18 O19 1.203 . S
C18 O25 1.267 . S
O19 C18 1.203 . S
O20 C13 1.185 . S
O20 Zn16 2.086 . S
C21 O17 1.278 . S
C21 O22 1.211 . S
O22 C21 1.211 . S
C23 O15 1.284 . S
C23 O24 1.273 . S
O24 C23 1.273 . S
O25 Zn16 1.977 . S
O25 C18 1.267 . S
C26 O27 1.160 . S
C26 O33 1.185 . S
O27 C26 1.160 . S
O28 Zn29 1.899 . S
O28 C36 1.284 . S
Zn29 O28 1.899 . S
Zn29 O30 2.032 . S
Zn29 O33 2.086 . S
Zn29 O38 1.977 . S
O30 Zn29 2.032 . S
O30 C34 1.278 . S
C31 O32 1.203 . S
C31 O38 1.267 . S
O32 C31 1.203 . S
O33 C26 1.185 . S
O33 Zn29 2.086 . S
C34 O30 1.278 . S
C34 O35 1.211 . S
O35 C34 1.211 . S
C36 O28 1.284 . S
C36 O37 1.273 . S
O37 C36 1.273 . S
O38 Zn29 1.977 . S
O38 C31 1.267 . S
C39 O40 1.160 . S
C39 O46 1.185 . S
O40 C39 1.160 . S
O41 Zn42 1.899 . S
O41 C49 1.284 . S
Zn42 O41 1.899 . S
Zn42 O43 2.032 . S
Zn42 O46 2.086 . S
Zn42 O51 1.977 . S
O43 Zn42 2.032 . S
O43 C47 1.278 . S
C44 O45 1.203 . S
C44 O51 1.267 . S
O45 C44 1.203 . S
O46 C39 1.185 . S
O46 Zn42 2.086 . S
C47 O43 1.278 . S
C47 O48 1.211 . S
O48 C47 1.211 . S
C49 O41 1.284 . S
C49 O50 1.273 . S
O50 C49 1.273 . S
O51 Zn42 1.977 . S
O51 C44 1.267 . S
C52 O53 1.160 . S
C52 O59 1.185 . S
O53 C52 1.160 . S
O54 Zn55 1.899 . S
O54 C62 1.284 . S
Zn55 O54 1.899 . S
Zn55 O56 2.032 . S
Zn55 O59 2.086 . S
Zn55 O64 1.977 . S
O56 Zn55 2.032 . S
O56 C60 1.278 . S
C57 O58 1.203 . S
C57 O64 1.267 . S
O58 C57 1.203 . S
O59 C52 1.185 . S
O59 Zn55 2.086 . S
C60 O56 1.278 . S
C60 O61 1.211 . S
O61 C60 1.211 . S
C62 O54 1.284 . S
C62 O63 1.273 . S
O63 C62 1.273 . S
O64 Zn55 1.977 . S
O64 C57 1.267 . S
C65 O66 1.160 . S
C65 O72 1.185 . S
O66 C65 1.160 . S
O67 Zn68 1.899 . S
O67 C75 1.284 . S
Zn68 O67 1.899 . S
Zn68 O69 2.032 . S
Zn68 O72 2.086 . S
Zn68 O77 1.977 . S
O69 Zn68 2.032 . S
O69 C73 1.278 . S
C70 O71 1.203 . S
C70 O77 1.267 . S
O71 C70 1.203 . S
O72 C65 1.185 . S
O72 Zn68 2.086 . S
C73 O69 1.278 . S
C73 O74 1.211 . S
O74 C73 1.211 . S
C75 O67 1.284 . S
C75 O76 1.273 . S
O76 C75 1.273 . S
O77 Zn68 1.977 . S
O77 C70 1.267 . S
C78 O79 1.160 . S
C78 O85 1.185 . S
O79 C78 1.160 . S
O80 Zn81 1.899 . S
O80 C88 1.284 . S
Zn81 O80 1.899 . S
Zn81 O82 2.032 . S
Zn81 O85 2.086 . S
Zn81 O90 1.977 . S
O82 Zn81 2.032 . S
O82 C86 1.278 . S
C83 O84 1.203 . S
C83 O90 1.267 . S
O84 C83 1.203 . S
O85 C78 1.185 . S
O85 Zn81 2.086 . S
C86 O82 1.278 . S
C86 O87 1.211 . S
O87 C86 1.211 . S
C88 O80 1.284 . S
C88 O89 1.273 . S
O89 C88 1.273 . S
O90 Zn81 1.977 . S
O90 C83 1.267 . S
C91 O92 1.160 . S
C91 O98 1.185 . S
O92 C91 1.160 . S
O93 Zn94 1.899 . S
O93 C101 1.284 . S
Zn94 O93 1.899 . S
Zn94 O95 2.032 . S
Zn94 O98 2.086 . S
Zn94 O103 1.977 1_554 S
O95 Zn94 2.032 . S
O95 C99 1.278 . S
C96 O97 1.203 . S
C96 O103 1.267 . S
O97 C96 1.203 . S
O98 C91 1.185 . S
O98 Zn94 2.086 . S
C99 O95 1.278 . S
C99 O100 1.211 . S
O100 C99 1.211 . S
C101 O93 1.284 . S
C101 O102 1.273 . S
O102 C101 1.273 . S
O103 Zn94 1.977 1_556 S
O103 C96 1.267 . S
C104 O105 1.160 . S
C104 O111 1.185 . S
O105 C104 1.160 . S
O106 Zn107 1.899 . S
O106 C114 1.284 . S
Zn107 O106 1.899 . S
Zn107 O108 2.032 . S
Zn107 O111 2.086 . S
Zn107 O116 1.977 . S
O108 Zn107 2.032 . S
O108 C112 1.278 . S
C109 O110 1.203 . S
C109 O116 1.267 . S
O110 C109 1.203 . S
O111 C104 1.185 . S
O111 Zn107 2.086 . S
C112 O108 1.278 . S
C112 O113 1.211 . S
O113 C112 1.211 . S
C114 O106 1.284 . S
C114 O115 1.273 . S
O115 C114 1.273 . S
O116 Zn107 1.977 . S
O116 C109 1.267 . S
C117 O118 1.160 . S
C117 O124 1.185 . S
O118 C117 1.160 . S
O119 Zn120 1.899 . S
O119 C127 1.284 . S
Zn120 O119 1.899 . S
Zn120 O121 2.032 . S
Zn120 O124 2.086 . S
Zn120 O129 1.977 . S
O121 Zn120 2.032 . S
O121 C125 1.278 . S
C122 O123 1.203 . S
C122 O129 1.267 . S
O123 C122 1.203 . S
O124 C117 1.185 . S
O124 Zn120 2.086 . S
C125 O121 1.278 . S
C125 O126 1.211 . S
O126 C125 1.211 . S
C127 O119 1.284 . S
C127 O128 1.273 . S
O128 C127 1.273 . S
O129 Zn120 1.977 . S
O129 C122 1.267 . S
C130 O131 1.160 . S
C130 O137 1.185 . S
O131 C130 1.160 . S
O132 Zn133 1.899 . S
O132 C140 1.284 . S
Zn133 O132 1.899 . S
Zn133 O134 2.032 . S
Zn133 O137 2.086 . S
Zn133 O142 1.977 . S
O134 Zn133 2.032 . S
O134 C138 1.278 . S
C135 O136 1.203 . S
C135 O142 1.267 . S
O136 C135 1.203 . S
O137 C130 1.185 . S
O137 Zn133 2.086 . S
C138 O134 1.278 . S
C138 O139 1.211 . S
O139 C138 1.211 . S
C140 O132 1.284 . S
C140 O141 1.273 . S
O141 C140 1.273 . S
O142 Zn133 1.977 . S
O142 C135 1.267 . S
C143 O144 1.160 . S
C143 O150 1.185 . S
O144 C143 1.160 . S
O145 Zn146 1.899 . S
O145 C153 1.284 . S
Zn146 O145 1.899 . S
Zn146 O147 2.032 . S
Zn146 O150 2.086 . S
Zn146 O155 1.977 . S
O147 Zn146 2.032 . S
O147 C151 1.278 . S
C148 O149 1.203 . S
C148 O155 1.267 . S
O149 C148 1.203 . S
O150 C143 1.185 . S
O150 Zn146 2.086 . S
C151 O147 1.278 . S
C151 O152 1.211 . S
O152 C151 1.211 . S
C153 O145 1.284 . S
C153 O154 1.273 . S
O154 C153 1.273 . S
O155 Zn146 1.977 . S
O155 C148 1.267 . S
H156 C164 0.929 . S
H157 C166 0.930 . S
H158 C168 0.930 . S
H159 C171 0.929 . S
H160 C174 0.930 . S
H161 C176 0.960 . S
H162 C176 0.960 . S
H163 C176 0.960 . S
C164 H156 0.929 . S
C164 C165 1.377 . S
C164 C166 1.384 . S
C165 C164 1.377 . S
C165 C171 1.390 . S
C166 H157 0.930 . S
C166 C164 1.384 . S
C166 C167 1.372 . S
C167 C166 1.372 . S
C167 C168 1.400 . S
C167 C172 1.490 . S
C168 H158 0.930 . S
C168 C167 1.400 . S
C168 C171 1.386 . S
H169 C185 0.930 . S
H170 C186 0.931 . S
C171 H159 0.929 . S
C171 C165 1.390 . S
C171 C168 1.386 . S
C172 C167 1.490 . S
C172 C174 1.395 . S
C172 C175 1.403 . S
H173 C179 0.930 . S
C174 H160 0.930 . S
C174 C172 1.395 . S
C174 C177 1.403 . S
C175 C172 1.403 . S
C175 C176 1.524 . S
C175 C179 1.400 . S
C176 H161 0.960 . S
C176 H162 0.960 . S
C176 H163 0.960 . S
C176 C175 1.524 . S
C177 C174 1.403 . S
C177 C178 1.392 . S
C177 C181 1.495 . S
C178 C177 1.392 . S
C178 C179 1.385 . S
C178 C180 1.478 . S
C179 H173 0.930 . S
C179 C175 1.400 . S
C179 C178 1.385 . S
C180 C178 1.478 . S
C180 C182 1.381 . S
C180 C186 1.383 . S
C181 C177 1.495 . S
C181 H187 0.959 . S
C181 H188 0.961 . S
C181 H189 0.960 . S
C182 C180 1.381 . S
C182 C183 1.394 . S
C182 H190 0.930 . S
C183 C182 1.394 . S
C183 C184 1.383 . S
C183 H191 0.929 . S
C184 C183 1.383 . S
C184 C185 1.377 . S
C185 H169 0.930 . S
C185 C184 1.377 . S
C185 C186 1.379 . S
C186 H170 0.931 . S
C186 C180 1.383 . S
C186 C185 1.379 . S
H187 C181 0.959 . S
H188 C181 0.961 . S
H189 C181 0.960 . S
H190 C182 0.930 . S
H191 C183 0.929 . S
H192 C200 0.929 . S
H193 C202 0.930 . S
H194 C204 0.930 . S
H195 C207 0.929 . S
H196 C210 0.930 . S
H197 C212 0.960 . S
H198 C212 0.960 . S
H199 C212 0.960 . S
C200 H192 0.929 . S
C200 C201 1.377 . S
C200 C202 1.384 . S
C201 C200 1.377 . S
C201 C207 1.390 . S
C202 H193 0.930 . S
C202 C200 1.384 . S
C202 C203 1.372 . S
C203 C202 1.372 . S
C203 C204 1.400 . S
C203 C208 1.490 . S
C204 H194 0.930 . S
C204 C203 1.400 . S
C204 C207 1.386 . S
H205 C221 0.930 . S
H206 C222 0.931 . S
C207 H195 0.929 . S
C207 C201 1.390 . S
C207 C204 1.386 . S
C208 C203 1.490 . S
C208 C210 1.395 . S
C208 C211 1.403 . S
H209 C215 0.930 . S
C210 H196 0.930 . S
C210 C208 1.395 . S
C210 C213 1.403 . S
C211 C208 1.403 . S
C211 C212 1.524 . S
C211 C215 1.400 . S
C212 H197 0.960 . S
C212 H198 0.960 . S
C212 H199 0.960 . S
C212 C211 1.524 . S
C213 C210 1.403 . S
C213 C214 1.392 . S
C213 C217 1.495 . S
C214 C213 1.392 . S
C214 C215 1.385 . S
C214 C216 1.478 . S
C215 H209 0.930 . S
C215 C211 1.400 . S
C215 C214 1.385 . S
C216 C214 1.478 . S
C216 C218 1.381 . S
C216 C222 1.383 . S
C217 C213 1.495 . S
C217 H223 0.959 . S
C217 H224 0.961 . S
C217 H225 0.960 . S
C218 C216 1.381 . S
C218 C219 1.394 . S
C218 H226 0.930 . S
C219 C218 1.394 . S
C219 C220 1.383 . S
C219 H227 0.929 . S
C220 C219 1.383 . S
C220 C221 1.377 . S
C221 H205 0.930 . S
C221 C220 1.377 . S
C221 C222 1.379 . S
C222 H206 0.931 . S
C222 C216 1.383 . S
C222 C221 1.379 . S
H223 C217 0.959 . S
H224 C217 0.961 . S
H225 C217 0.960 . S
H226 C218 0.930 . S
H227 C219 0.929 . S
H228 C236 0.929 . S
H229 C238 0.930 . S
H230 C240 0.930 . S
H231 C243 0.929 . S
H232 C246 0.930 . S
H233 C248 0.960 . S
H234 C248 0.960 . S
H235 C248 0.960 . S
C236 H228 0.929 . S
C236 C237 1.377 . S
C236 C238 1.384 . S
C237 C236 1.377 . S
C237 C243 1.390 . S
C238 H229 0.930 . S
C238 C236 1.384 . S
C238 C239 1.372 . S
C239 C238 1.372 . S
C239 C240 1.400 . S
C239 C244 1.490 . S
C240 H230 0.930 . S
C240 C239 1.400 . S
C240 C243 1.386 . S
H241 C257 0.930 . S
H242 C258 0.931 . S
C243 H231 0.929 . S
C243 C237 1.390 . S
C243 C240 1.386 . S
C244 C239 1.490 . S
C244 C246 1.395 . S
C244 C247 1.403 . S
H245 C251 0.930 . S
C246 H232 0.930 . S
C246 C244 1.395 . S
C246 C249 1.403 . S
C247 C244 1.403 . S
C247 C248 1.524 . S
C247 C251 1.400 . S
C248 H233 0.960 . S
C248 H234 0.960 . S
C248 H235 0.960 . S
C248 C247 1.524 . S
C249 C246 1.403 . S
C249 C250 1.392 . S
C249 C253 1.495 . S
C250 C249 1.392 . S
C250 C251 1.385 . S
C250 C252 1.478 . S
C251 H245 0.930 . S
C251 C247 1.400 . S
C251 C250 1.385 . S
C252 C250 1.478 . S
C252 C254 1.381 . S
C252 C258 1.383 . S
C253 C249 1.495 . S
C253 H259 0.959 . S
C253 H260 0.961 . S
C253 H261 0.960 . S
C254 C252 1.381 . S
C254 C255 1.394 . S
C254 H262 0.930 . S
C255 C254 1.394 . S
C255 C256 1.383 . S
C255 H263 0.929 . S
C256 C255 1.383 . S
C256 C257 1.377 . S
C257 H241 0.930 . S
C257 C256 1.377 . S
C257 C258 1.379 . S
C258 H242 0.931 . S
C258 C252 1.383 . S
C258 C257 1.379 . S
H259 C253 0.959 . S
H260 C253 0.961 . S
H261 C253 0.960 . S
H262 C254 0.930 . S
H263 C255 0.929 . S
H264 C272 0.929 . S
H265 C274 0.930 . S
H266 C276 0.930 . S
H267 C279 0.929 . S
H268 C282 0.930 . S
H269 C284 0.960 . S
H270 C284 0.960 . S
H271 C284 0.960 . S
C272 H264 0.929 . S
C272 C273 1.377 . S
C272 C274 1.384 . S
C273 C272 1.377 . S
C273 C279 1.390 . S
C274 H265 0.930 . S
C274 C272 1.384 . S
C274 C275 1.372 . S
C275 C274 1.372 . S
C275 C276 1.400 . S
C275 C280 1.490 . S
C276 H266 0.930 . S
C276 C275 1.400 . S
C276 C279 1.386 . S
H277 C293 0.930 . S
H278 C294 0.931 . S
C279 H267 0.929 . S
C279 C273 1.390 . S
C279 C276 1.386 . S
C280 C275 1.490 . S
C280 C282 1.395 . S
C280 C283 1.403 . S
H281 C287 0.930 . S
C282 H268 0.930 . S
C282 C280 1.395 . S
C282 C285 1.403 . S
C283 C280 1.403 . S
C283 C284 1.524 . S
C283 C287 1.400 . S
C284 H269 0.960 . S
C284 H270 0.960 . S
C284 H271 0.960 . S
C284 C283 1.524 . S
C285 C282 1.403 . S
C285 C286 1.392 . S
C285 C289 1.495 . S
C286 C285 1.392 . S
C286 C287 1.385 . S
C286 C288 1.478 . S
C287 H281 0.930 . S
C287 C283 1.400 . S
C287 C286 1.385 . S
C288 C286 1.478 . S
C288 C290 1.381 . S
C288 C294 1.383 . S
C289 C285 1.495 . S
C289 H295 0.959 . S
C289 H296 0.961 . S
C289 H297 0.960 . S
C290 C288 1.381 . S
C290 C291 1.394 . S
C290 H298 0.930 . S
C291 C290 1.394 . S
C291 C292 1.383 . S
C291 H299 0.929 . S
C292 C291 1.383 . S
C292 C293 1.377 . S
C293 H277 0.930 . S
C293 C292 1.377 . S
C293 C294 1.379 . S
C294 H278 0.931 . S
C294 C288 1.383 . S
C294 C293 1.379 . S
H295 C289 0.959 . S
H296 C289 0.961 . S
H297 C289 0.960 . S
H298 C290 0.930 . S
H299 C291 0.929 . S
H300 C308 0.929 . S
H301 C310 0.930 . S
H302 C312 0.930 . S
H303 C315 0.929 . S
H304 C318 0.930 . S
H305 C320 0.960 . S
H306 C320 0.960 . S
H307 C320 0.960 . S
C308 H300 0.929 . S
C308 C309 1.377 . S
C308 C310 1.384 . S
C309 C308 1.377 . S
C309 C315 1.390 . S
C310 H301 0.930 . S
C310 C308 1.384 . S
C310 C311 1.372 . S
C311 C310 1.372 . S
C311 C312 1.400 . S
C311 C316 1.490 . S
C312 H302 0.930 . S
C312 C311 1.400 . S
C312 C315 1.386 . S
H313 C329 0.930 . S
H314 C330 0.931 . S
C315 H303 0.929 . S
C315 C309 1.390 . S
C315 C312 1.386 . S
C316 C311 1.490 . S
C316 C318 1.395 . S
C316 C319 1.403 . S
H317 C323 0.930 1_554 S
C318 H304 0.930 . S
C318 C316 1.395 . S
C318 C321 1.403 . S
C319 C316 1.403 . S
C319 C320 1.524 . S
C319 C323 1.400 . S
C320 H305 0.960 . S
C320 H306 0.960 . S
C320 H307 0.960 . S
C320 C319 1.524 . S
C321 C318 1.403 . S
C321 C322 1.392 1_556 S
C321 C325 1.495 1_556 S
C322 C321 1.392 1_554 S
C322 C323 1.385 1_554 S
C322 C324 1.478 . S
C323 H317 0.930 1_556 S
C323 C319 1.400 . S
C323 C322 1.385 1_556 S
C324 C322 1.478 . S
C324 C326 1.381 . S
C324 C330 1.383 . S
C325 C321 1.495 1_554 S
C325 H331 0.960 1_554 S
C325 H332 0.961 . S
C325 H333 0.960 . S
C326 C324 1.381 . S
C326 C327 1.394 . S
C326 H334 0.930 . S
C327 C326 1.394 . S
C327 C328 1.383 . S
C327 H335 0.929 . S
C328 C327 1.383 . S
C328 C329 1.377 . S
C329 H313 0.930 . S
C329 C328 1.377 . S
C329 C330 1.379 . S
C330 H314 0.931 . S
C330 C324 1.383 . S
C330 C329 1.379 . S
H331 C325 0.960 1_556 S
H332 C325 0.961 . S
H333 C325 0.960 . S
H334 C326 0.930 . S
H335 C327 0.929 . S
H336 C344 0.929 . S
H337 C346 0.930 . S
H338 C348 0.930 . S
H339 C351 0.929 . S
H340 C354 0.930 . S
H341 C356 0.960 . S
H342 C356 0.960 . S
H343 C356 0.960 . S
C344 H336 0.929 . S
C344 C345 1.377 . S
C344 C346 1.384 . S
C345 C344 1.377 . S
C345 C351 1.390 . S
C346 H337 0.930 . S
C346 C344 1.384 . S
C346 C347 1.372 . S
C347 C346 1.372 . S
C347 C348 1.400 . S
C347 C352 1.490 . S
C348 H338 0.930 . S
C348 C347 1.400 . S
C348 C351 1.386 . S
H349 C365 0.930 . S
H350 C366 0.931 . S
C351 H339 0.929 . S
C351 C345 1.390 . S
C351 C348 1.386 . S
C352 C347 1.490 . S
C352 C354 1.395 . S
C352 C355 1.403 . S
H353 C359 0.930 . S
C354 H340 0.930 . S
C354 C352 1.395 . S
C354 C357 1.403 . S
C355 C352 1.403 . S
C355 C356 1.524 . S
C355 C359 1.400 . S
C356 H341 0.960 . S
C356 H342 0.960 . S
C356 H343 0.960 . S
C356 C355 1.524 . S
C357 C354 1.403 . S
C357 C358 1.392 . S
C357 C361 1.495 . S
C358 C357 1.392 . S
C358 C359 1.385 . S
C358 C360 1.478 . S
C359 H353 0.930 . S
C359 C355 1.400 . S
C359 C358 1.385 . S
C360 C358 1.478 . S
C360 C362 1.381 1_554 S
C360 C366 1.383 . S
C361 C357 1.495 . S
C361 H367 0.959 . S
C361 H368 0.961 . S
C361 H369 0.960 1_554 S
C362 C360 1.381 1_556 S
C362 C363 1.394 . S
C362 H370 0.930 . S
C363 C362 1.394 . S
C363 C364 1.383 . S
C363 H371 0.929 . S
C364 C363 1.383 . S
C364 C365 1.377 1_556 S
C365 H349 0.930 . S
C365 C364 1.377 1_554 S
C365 C366 1.379 . S
C366 H350 0.931 . S
C366 C360 1.383 . S
C366 C365 1.379 . S
H367 C361 0.959 . S
H368 C361 0.961 . S
H369 C361 0.960 1_556 S
H370 C362 0.930 . S
H371 C363 0.929 . S
H372 C380 0.929 . S
H373 C382 0.930 . S
H374 C384 0.930 . S
H375 C387 0.929 . S
H376 C390 0.930 . S
H377 C392 0.960 . S
H378 C392 0.960 . S
H379 C392 0.960 . S
C380 H372 0.929 . S
C380 C381 1.377 . S
C380 C382 1.384 . S
C381 C380 1.377 . S
C381 C387 1.390 . S
C382 H373 0.930 . S
C382 C380 1.384 . S
C382 C383 1.372 . S
C383 C382 1.372 . S
C383 C384 1.400 . S
C383 C388 1.490 . S
C384 H374 0.930 . S
C384 C383 1.400 . S
C384 C387 1.386 . S
H385 C401 0.930 . S
H386 C402 0.931 . S
C387 H375 0.929 . S
C387 C381 1.390 . S
C387 C384 1.386 . S
C388 C383 1.490 . S
C388 C390 1.395 . S
C388 C391 1.403 . S
H389 C395 0.930 . S
C390 H376 0.930 . S
C390 C388 1.395 . S
C390 C393 1.403 . S
C391 C388 1.403 . S
C391 C392 1.524 . S
C391 C395 1.400 . S
C392 H377 0.960 . S
C392 H378 0.960 . S
C392 H379 0.960 . S
C392 C391 1.524 . S
C393 C390 1.403 . S
C393 C394 1.392 . S
C393 C397 1.495 . S
C394 C393 1.392 . S
C394 C395 1.385 . S
C394 C396 1.478 . S
C395 H389 0.930 . S
C395 C391 1.400 . S
C395 C394 1.385 . S
C396 C394 1.478 . S
C396 C398 1.381 . S
C396 C402 1.383 . S
C397 C393 1.495 . S
C397 H403 0.959 . S
C397 H404 0.961 . S
C397 H405 0.960 . S
C398 C396 1.381 . S
C398 C399 1.394 . S
C398 H406 0.930 . S
C399 C398 1.394 . S
C399 C400 1.383 . S
C399 H407 0.929 . S
C400 C399 1.383 . S
C400 C401 1.377 . S
C401 H385 0.930 . S
C401 C400 1.377 . S
C401 C402 1.379 . S
C402 H386 0.931 . S
C402 C396 1.383 . S
C402 C401 1.379 . S
H403 C397 0.959 . S
H404 C397 0.961 . S
H405 C397 0.960 . S
H406 C398 0.930 . S
H407 C399 0.929 . S
H408 C416 0.929 . S
H409 C418 0.930 . S
H410 C420 0.930 . S
H411 C423 0.929 . S
H412 C426 0.930 . S
H413 C428 0.960 . S
H414 C428 0.960 . S
H415 C428 0.960 . S
C416 H408 0.929 . S
C416 C417 1.377 . S
C416 C418 1.384 . S
C417 C416 1.377 . S
C417 C423 1.390 . S
C418 H409 0.930 . S
C418 C416 1.384 . S
C418 C419 1.372 . S
C419 C418 1.372 . S
C419 C420 1.400 . S
C419 C424 1.490 . S
C420 H410 0.930 . S
C420 C419 1.400 . S
C420 C423 1.386 . S
H421 C437 0.930 . S
H422 C438 0.931 . S
C423 H411 0.929 . S
C423 C417 1.390 . S
C423 C420 1.386 . S
C424 C419 1.490 . S
C424 C426 1.395 . S
C424 C427 1.403 . S
H425 C431 0.930 . S
C426 H412 0.930 . S
C426 C424 1.395 . S
C426 C429 1.403 . S
C427 C424 1.403 . S
C427 C428 1.524 . S
C427 C431 1.400 . S
C428 H413 0.960 . S
C428 H414 0.960 . S
C428 H415 0.960 . S
C428 C427 1.524 . S
C429 C426 1.403 . S
C429 C430 1.392 . S
C429 C433 1.495 . S
C430 C429 1.392 . S
C430 C431 1.385 . S
C430 C432 1.478 . S
C431 H425 0.930 . S
C431 C427 1.400 . S
C431 C430 1.385 . S
C432 C430 1.478 . S
C432 C434 1.381 . S
C432 C438 1.383 . S
C433 C429 1.495 . S
C433 H439 0.959 . S
C433 H440 0.961 . S
C433 H441 0.960 . S
C434 C432 1.381 . S
C434 C435 1.394 . S
C434 H442 0.930 . S
C435 C434 1.394 . S
C435 C436 1.383 . S
C435 H443 0.929 . S
C436 C435 1.383 . S
C436 C437 1.377 . S
C437 H421 0.930 . S
C437 C436 1.377 . S
C437 C438 1.379 . S
C438 H422 0.931 . S
C438 C432 1.383 . S
C438 C437 1.379 . S
H439 C433 0.959 . S
H440 C433 0.961 . S
H441 C433 0.960 . S
H442 C434 0.930 . S
H443 C435 0.929 . S
H444 C452 0.929 . S
H445 C454 0.930 . S
H446 C456 0.930 . S
H447 C459 0.929 . S
H448 C462 0.930 . S
H449 C464 0.960 . S
H450 C464 0.960 . S
H451 C464 0.960 . S
C452 H444 0.929 . S
C452 C453 1.377 . S
C452 C454 1.384 . S
C453 C452 1.377 . S
C453 C459 1.390 . S
C454 H445 0.930 . S
C454 C452 1.384 . S
C454 C455 1.372 . S
C455 C454 1.372 . S
C455 C456 1.400 . S
C455 C460 1.490 . S
C456 H446 0.930 . S
C456 C455 1.400 . S
C456 C459 1.386 . S
H457 C473 0.930 . S
H458 C474 0.931 . S
C459 H447 0.929 . S
C459 C453 1.390 . S
C459 C456 1.386 . S
C460 C455 1.490 . S
C460 C462 1.395 . S
C460 C463 1.403 . S
H461 C467 0.930 . S
C462 H448 0.930 . S
C462 C460 1.395 . S
C462 C465 1.403 . S
C463 C460 1.403 . S
C463 C464 1.524 . S
C463 C467 1.400 . S
C464 H449 0.960 . S
C464 H450 0.960 . S
C464 H451 0.960 . S
C464 C463 1.524 . S
C465 C462 1.403 . S
C465 C466 1.392 . S
C465 C469 1.495 . S
C466 C465 1.392 . S
C466 C467 1.385 . S
C466 C468 1.478 . S
C467 H461 0.930 . S
C467 C463 1.400 . S
C467 C466 1.385 . S
C468 C466 1.478 . S
C468 C470 1.381 . S
C468 C474 1.383 . S
C469 C465 1.495 . S
C469 H475 0.959 . S
C469 H476 0.961 . S
C469 H477 0.960 . S
C470 C468 1.381 . S
C470 C471 1.394 . S
C470 H478 0.930 . S
C471 C470 1.394 . S
C471 C472 1.383 . S
C471 H479 0.929 . S
C472 C471 1.383 . S
C472 C473 1.377 . S
C473 H457 0.930 . S
C473 C472 1.377 . S
C473 C474 1.379 . S
C474 H458 0.931 . S
C474 C468 1.383 . S
C474 C473 1.379 . S
H475 C469 0.959 . S
H476 C469 0.961 . S
H477 C469 0.960 . S
H478 C470 0.930 . S
H479 C471 0.929 . S
H480 C488 0.929 . S
H481 C490 0.930 . S
H482 C492 0.930 . S
H483 C495 0.929 . S
H484 C498 0.930 . S
H485 C500 0.960 . S
H486 C500 0.960 . S
H487 C500 0.960 . S
C488 H480 0.929 . S
C488 C489 1.377 . S
C488 C490 1.384 . S
C489 C488 1.377 . S
C489 C495 1.390 . S
C490 H481 0.930 . S
C490 C488 1.384 . S
C490 C491 1.372 . S
C491 C490 1.372 . S
C491 C492 1.400 . S
C491 C496 1.490 . S
C492 H482 0.930 . S
C492 C491 1.400 . S
C492 C495 1.386 . S
H493 C509 0.930 . S
H494 C510 0.931 . S
C495 H483 0.929 . S
C495 C489 1.390 . S
C495 C492 1.386 . S
C496 C491 1.490 . S
C496 C498 1.395 . S
C496 C499 1.403 . S
H497 C503 0.930 . S
C498 H484 0.930 . S
C498 C496 1.395 . S
C498 C501 1.403 . S
C499 C496 1.403 . S
C499 C500 1.524 . S
C499 C503 1.400 . S
C500 H485 0.960 . S
C500 H486 0.960 . S
C500 H487 0.960 . S
C500 C499 1.524 . S
C501 C498 1.403 . S
C501 C502 1.392 . S
C501 C505 1.495 . S
C502 C501 1.392 . S
C502 C503 1.385 . S
C502 C504 1.478 . S
C503 H497 0.930 . S
C503 C499 1.400 . S
C503 C502 1.385 . S
C504 C502 1.478 . S
C504 C506 1.381 . S
C504 C510 1.383 . S
C505 C501 1.495 . S
C505 H511 0.959 . S
C505 H512 0.961 . S
C505 H513 0.960 . S
C506 C504 1.381 . S
C506 C507 1.394 . S
C506 H514 0.930 . S
C507 C506 1.394 . S
C507 C508 1.383 . S
C507 H515 0.929 . S
C508 C507 1.383 . S
C508 C509 1.377 . S
C509 H493 0.930 . S
C509 C508 1.377 . S
C509 C510 1.379 . S
C510 H494 0.931 . S
C510 C504 1.383 . S
C510 C509 1.379 . S
H511 C505 0.959 . S
H512 C505 0.961 . S
H513 C505 0.960 . S
H514 C506 0.930 . S
H515 C507 0.929 . S
H516 C524 0.929 . S
H517 C526 0.930 . S
H518 C528 0.930 . S
H519 C531 0.929 . S
H520 C534 0.930 . S
H521 C536 0.960 . S
H522 C536 0.960 . S
H523 C536 0.960 . S
C524 H516 0.929 . S
C524 C525 1.377 . S
C524 C526 1.384 . S
C525 C524 1.377 . S
C525 C531 1.390 . S
C526 H517 0.930 . S
C526 C524 1.384 . S
C526 C527 1.372 . S
C527 C526 1.372 . S
C527 C528 1.400 . S
C527 C532 1.490 . S
C528 H518 0.930 . S
C528 C527 1.400 . S
C528 C531 1.386 . S
H529 C545 0.930 . S
H530 C546 0.931 . S
C531 H519 0.929 . S
C531 C525 1.390 . S
C531 C528 1.386 . S
C532 C527 1.490 . S
C532 C534 1.395 . S
C532 C535 1.403 . S
H533 C539 0.930 . S
C534 H520 0.930 . S
C534 C532 1.395 . S
C534 C537 1.403 . S
C535 C532 1.403 . S
C535 C536 1.524 . S
C535 C539 1.400 . S
C536 H521 0.960 . S
C536 H522 0.960 . S
C536 H523 0.960 . S
C536 C535 1.524 . S
C537 C534 1.403 . S
C537 C538 1.392 . S
C537 C541 1.495 . S
C538 C537 1.392 . S
C538 C539 1.385 . S
C538 C540 1.478 . S
C539 H533 0.930 . S
C539 C535 1.400 . S
C539 C538 1.385 . S
C540 C538 1.478 . S
C540 C542 1.381 . S
C540 C546 1.383 . S
C541 C537 1.495 . S
C541 H547 0.959 . S
C541 H548 0.961 . S
C541 H549 0.960 . S
C542 C540 1.381 . S
C542 C543 1.394 . S
C542 H550 0.930 . S
C543 C542 1.394 . S
C543 C544 1.383 . S
C543 H551 0.929 . S
C544 C543 1.383 . S
C544 C545 1.377 . S
C545 H529 0.930 . S
C545 C544 1.377 . S
C545 C546 1.379 . S
C546 H530 0.931 . S
C546 C540 1.383 . S
C546 C545 1.379 . S
H547 C541 0.959 . S
H548 C541 0.961 . S
H549 C541 0.960 . S
H550 C542 0.930 . S
H551 C543 0.929 . S
H552 C560 0.929 . S
H553 C562 0.930 . S
H554 C564 0.930 . S
H555 C567 0.929 . S
H556 C570 0.930 . S
H557 C572 0.960 . S
H558 C572 0.960 . S
H559 C572 0.960 . S
C560 H552 0.929 . S
C560 C561 1.377 . S
C560 C562 1.384 . S
C561 C560 1.377 . S
C561 C567 1.390 . S
C562 H553 0.930 . S
C562 C560 1.384 . S
C562 C563 1.372 . S
C563 C562 1.372 . S
C563 C564 1.400 . S
C563 C568 1.490 . S
C564 H554 0.930 . S
C564 C563 1.400 . S
C564 C567 1.386 . S
H565 C581 0.930 . S
H566 C582 0.931 . S
C567 H555 0.929 . S
C567 C561 1.390 . S
C567 C564 1.386 . S
C568 C563 1.490 . S
C568 C570 1.395 . S
C568 C571 1.403 . S
H569 C575 0.930 . S
C570 H556 0.930 . S
C570 C568 1.395 . S
C570 C573 1.403 . S
C571 C568 1.403 . S
C571 C572 1.524 . S
C571 C575 1.400 . S
C572 H557 0.960 . S
C572 H558 0.960 . S
C572 H559 0.960 . S
C572 C571 1.524 . S
C573 C570 1.403 . S
C573 C574 1.392 . S
C573 C577 1.495 1_556 S
C574 C573 1.392 . S
C574 C575 1.385 . S
C574 C576 1.478 . S
C575 H569 0.930 . S
C575 C571 1.400 . S
C575 C574 1.385 . S
C576 C574 1.478 . S
C576 C578 1.381 . S
C576 C582 1.383 1_556 S
C577 C573 1.495 1_554 S
C577 H583 0.959 . S
C577 H584 0.961 . S
C577 H585 0.960 . S
C578 C576 1.381 . S
C578 C579 1.394 . S
C578 H586 0.930 . S
C579 C578 1.394 . S
C579 C580 1.383 1_556 S
C579 H587 0.929 . S
C580 C579 1.383 1_554 S
C580 C581 1.377 . S
C581 H565 0.930 . S
C581 C580 1.377 . S
C581 C582 1.379 . S
C582 H566 0.931 . S
C582 C576 1.383 1_554 S
C582 C581 1.379 . S
H583 C577 0.959 . S
H584 C577 0.961 . S
H585 C577 0.960 . S
H586 C578 0.930 . S
H587 C579 0.929 . S
H588 C596 0.929 . S
H589 C598 0.930 . S
H590 C600 0.930 . S
H591 C603 0.929 . S
H592 C606 0.930 . S
H593 C608 0.960 . S
H594 C608 0.960 . S
H595 C608 0.960 . S
C596 H588 0.929 . S
C596 C597 1.377 . S
C596 C598 1.384 . S
C597 C596 1.377 . S
C597 C603 1.390 . S
C598 H589 0.930 . S
C598 C596 1.384 . S
C598 C599 1.372 . S
C599 C598 1.372 . S
C599 C600 1.400 . S
C599 C604 1.490 . S
C600 H590 0.930 . S
C600 C599 1.400 . S
C600 C603 1.386 . S
H601 C617 0.930 . S
H602 C618 0.931 . S
C603 H591 0.929 . S
C603 C597 1.390 . S
C603 C600 1.386 . S
C604 C599 1.490 . S
C604 C606 1.395 . S
C604 C607 1.403 . S
H605 C611 0.930 . S
C606 H592 0.930 . S
C606 C604 1.395 . S
C606 C609 1.403 . S
C607 C604 1.403 . S
C607 C608 1.524 . S
C607 C611 1.400 . S
C608 H593 0.960 . S
C608 H594 0.960 . S
C608 H595 0.960 . S
C608 C607 1.524 . S
C609 C606 1.403 . S
C609 C610 1.392 . S
C609 C613 1.495 . S
C610 C609 1.392 . S
C610 C611 1.385 . S
C610 C612 1.478 . S
C611 H605 0.930 . S
C611 C607 1.400 . S
C611 C610 1.385 . S
C612 C610 1.478 . S
C612 C614 1.381 . S
C612 C618 1.383 . S
C613 C609 1.495 . S
C613 H619 0.959 . S
C613 H620 0.961 . S
C613 H621 0.960 . S
C614 C612 1.381 . S
C614 C615 1.394 . S
C614 H622 0.930 . S
C615 C614 1.394 . S
C615 C616 1.383 . S
C615 H623 0.929 . S
C616 C615 1.383 . S
C616 C617 1.377 . S
C617 H601 0.930 . S
C617 C616 1.377 . S
C617 C618 1.379 . S
C618 H602 0.931 . S
C618 C612 1.383 . S
C618 C617 1.379 . S
H619 C613 0.959 . S
H620 C613 0.961 . S
H621 C613 0.960 . S
H622 C614 0.930 . S
H623 C615 0.929 . S
H624 C632 0.929 . S
H625 C634 0.930 . S
H626 C636 0.930 . S
H627 C639 0.929 . S
H628 C642 0.930 . S
H629 C644 0.960 . S
H630 C644 0.960 . S
H631 C644 0.960 . S
C632 H624 0.929 . S
C632 C633 1.377 . S
C632 C634 1.384 . S
C633 C632 1.377 . S
C633 C639 1.390 . S
C634 H625 0.930 . S
C634 C632 1.384 . S
C634 C635 1.372 . S
C635 C634 1.372 . S
C635 C636 1.400 . S
C635 C640 1.490 . S
C636 H626 0.930 . S
C636 C635 1.400 . S
C636 C639 1.386 . S
H637 C653 0.930 . S
H638 C654 0.931 . S
C639 H627 0.929 . S
C639 C633 1.390 . S
C639 C636 1.386 . S
C640 C635 1.490 . S
C640 C642 1.395 1_554 S
C640 C643 1.403 . S
H641 C647 0.930 . S
C642 H628 0.930 . S
C642 C640 1.395 1_556 S
C642 C645 1.403 . S
C643 C640 1.403 . S
C643 C644 1.524 . S
C643 C647 1.400 1_554 S
C644 H629 0.960 . S
C644 H630 0.960 . S
C644 H631 0.960 . S
C644 C643 1.524 . S
C645 C642 1.403 . S
C645 C646 1.392 . S
C645 C649 1.495 . S
C646 C645 1.392 . S
C646 C647 1.385 . S
C646 C648 1.478 . S
C647 H641 0.930 . S
C647 C643 1.400 1_556 S
C647 C646 1.385 . S
C648 C646 1.478 . S
C648 C650 1.381 . S
C648 C654 1.383 . S
C649 C645 1.495 . S
C649 H655 0.959 . S
C649 H656 0.961 . S
C649 H657 0.960 . S
C650 C648 1.381 . S
C650 C651 1.394 . S
C650 H658 0.930 . S
C651 C650 1.394 . S
C651 C652 1.383 . S
C651 H659 0.929 . S
C652 C651 1.383 . S
C652 C653 1.377 . S
C653 H637 0.930 . S
C653 C652 1.377 . S
C653 C654 1.379 . S
C654 H638 0.931 . S
C654 C648 1.383 . S
C654 C653 1.379 . S
H655 C649 0.959 . S
H656 C649 0.961 . S
H657 C649 0.960 . S
H658 C650 0.930 . S
H659 C651 0.929 . S
H660 C668 0.929 . S
H661 C670 0.930 . S
H662 C672 0.930 . S
H663 C675 0.929 . S
H664 C678 0.930 . S
H665 C680 0.960 . S
H666 C680 0.960 . S
H667 C680 0.960 . S
C668 H660 0.929 . S
C668 C669 1.377 . S
C668 C670 1.384 . S
C669 C668 1.377 . S
C669 C675 1.390 . S
C670 H661 0.930 . S
C670 C668 1.384 . S
C670 C671 1.372 . S
C671 C670 1.372 . S
C671 C672 1.400 . S
C671 C676 1.490 . S
C672 H662 0.930 . S
C672 C671 1.400 . S
C672 C675 1.386 . S
H673 C689 0.930 . S
H674 C690 0.931 . S
C675 H663 0.929 . S
C675 C669 1.390 . S
C675 C672 1.386 . S
C676 C671 1.490 . S
C676 C678 1.395 . S
C676 C679 1.403 . S
H677 C683 0.930 . S
C678 H664 0.930 . S
C678 C676 1.395 . S
C678 C681 1.403 . S
C679 C676 1.403 . S
C679 C680 1.524 . S
C679 C683 1.400 . S
C680 H665 0.960 . S
C680 H666 0.960 . S
C680 H667 0.960 . S
C680 C679 1.524 . S
C681 C678 1.403 . S
C681 C682 1.392 . S
C681 C685 1.495 . S
C682 C681 1.392 . S
C682 C683 1.385 . S
C682 C684 1.478 . S
C683 H677 0.930 . S
C683 C679 1.400 . S
C683 C682 1.385 . S
C684 C682 1.478 . S
C684 C686 1.381 . S
C684 C690 1.383 1_554 S
C685 C681 1.495 . S
C685 H691 0.959 . S
C685 H692 0.961 . S
C685 H693 0.960 . S
C686 C684 1.381 . S
C686 C687 1.394 . S
C686 H694 0.930 . S
C687 C686 1.394 . S
C687 C688 1.383 1_554 S
C687 H695 0.929 . S
C688 C687 1.383 1_556 S
C688 C689 1.377 . S
C689 H673 0.930 . S
C689 C688 1.377 . S
C689 C690 1.379 . S
C690 H674 0.931 . S
C690 C684 1.383 1_556 S
C690 C689 1.379 . S
H691 C685 0.959 . S
H692 C685 0.961 . S
H693 C685 0.960 . S
H694 C686 0.930 . S
H695 C687 0.929 . S
H696 C704 0.929 . S
H697 C706 0.930 . S
H698 C708 0.930 . S
H699 C711 0.929 . S
H700 C714 0.930 . S
H701 C716 0.960 . S
H702 C716 0.960 . S
H703 C716 0.960 . S
C704 H696 0.929 . S
C704 C705 1.377 . S
C704 C706 1.384 . S
C705 C704 1.377 . S
C705 C711 1.390 . S
C706 H697 0.930 . S
C706 C704 1.384 . S
C706 C707 1.372 . S
C707 C706 1.372 . S
C707 C708 1.400 . S
C707 C712 1.490 . S
C708 H698 0.930 . S
C708 C707 1.400 . S
C708 C711 1.386 . S
H709 C725 0.930 . S
H710 C726 0.931 . S
C711 H699 0.929 . S
C711 C705 1.390 . S
C711 C708 1.386 . S
C712 C707 1.490 . S
C712 C714 1.395 . S
C712 C715 1.403 . S
H713 C719 0.930 . S
C714 H700 0.930 . S
C714 C712 1.395 . S
C714 C717 1.403 . S
C715 C712 1.403 . S
C715 C716 1.524 . S
C715 C719 1.400 . S
C716 H701 0.960 . S
C716 H702 0.960 . S
C716 H703 0.960 . S
C716 C715 1.524 . S
C717 C714 1.403 . S
C717 C718 1.392 . S
C717 C721 1.495 . S
C718 C717 1.392 . S
C718 C719 1.385 . S
C718 C720 1.478 . S
C719 H713 0.930 . S
C719 C715 1.400 . S
C719 C718 1.385 . S
C720 C718 1.478 . S
C720 C722 1.381 . S
C720 C726 1.383 . S
C721 C717 1.495 . S
C721 H727 0.959 . S
C721 H728 0.961 . S
C721 H729 0.960 . S
C722 C720 1.381 . S
C722 C723 1.394 . S
C722 H730 0.930 . S
C723 C722 1.394 . S
C723 C724 1.383 . S
C723 H731 0.929 . S
C724 C723 1.383 . S
C724 C725 1.377 . S
C725 H709 0.930 . S
C725 C724 1.377 . S
C725 C726 1.379 . S
C726 H710 0.931 . S
C726 C720 1.383 . S
C726 C725 1.379 . S
H727 C721 0.959 . S
H728 C721 0.961 . S
H729 C721 0.960 . S
H730 C722 0.930 . S
H731 C723 0.929 . S
H732 C740 0.929 . S
H733 C742 0.930 . S
H734 C744 0.930 . S
H735 C747 0.929 . S
H736 C750 0.930 . S
H737 C752 0.960 . S
H738 C752 0.960 . S
H739 C752 0.960 . S
C740 H732 0.929 . S
C740 C741 1.377 . S
C740 C742 1.384 . S
C741 C740 1.377 . S
C741 C747 1.390 . S
C742 H733 0.930 . S
C742 C740 1.384 . S
C742 C743 1.372 . S
C743 C742 1.372 . S
C743 C744 1.400 . S
C743 C748 1.490 . S
C744 H734 0.930 . S
C744 C743 1.400 . S
C744 C747 1.386 . S
H745 C761 0.930 . S
H746 C762 0.931 . S
C747 H735 0.929 . S
C747 C741 1.390 . S
C747 C744 1.386 . S
C748 C743 1.490 . S
C748 C750 1.395 . S
C748 C751 1.403 . S
H749 C755 0.930 . S
C750 H736 0.930 . S
C750 C748 1.395 . S
C750 C753 1.403 . S
C751 C748 1.403 . S
C751 C752 1.524 . S
C751 C755 1.400 . S
C752 H737 0.960 . S
C752 H738 0.960 . S
C752 H739 0.960 . S
C752 C751 1.524 . S
C753 C750 1.403 . S
C753 C754 1.392 . S
C753 C757 1.495 . S
C754 C753 1.392 . S
C754 C755 1.385 . S
C754 C756 1.478 . S
C755 H749 0.930 . S
C755 C751 1.400 . S
C755 C754 1.385 . S
C756 C754 1.478 . S
C756 C758 1.381 . S
C756 C762 1.383 . S
C757 C753 1.495 . S
C757 H763 0.959 . S
C757 H764 0.961 . S
C757 H765 0.960 . S
C758 C756 1.381 . S
C758 C759 1.394 . S
C758 H766 0.930 . S
C759 C758 1.394 . S
C759 C760 1.383 . S
C759 H767 0.929 . S
C760 C759 1.383 . S
C760 C761 1.377 . S
C761 H745 0.930 . S
C761 C760 1.377 . S
C761 C762 1.379 . S
C762 H746 0.931 . S
C762 C756 1.383 . S
C762 C761 1.379 . S
H763 C757 0.959 . S
H764 C757 0.961 . S
H765 C757 0.960 . S
H766 C758 0.930 . S
H767 C759 0.929 . S
H768 C776 0.929 . S
H769 C778 0.930 . S
H770 C780 0.930 . S
H771 C783 0.929 . S
H772 C786 0.930 . S
H773 C788 0.960 . S
H774 C788 0.960 . S
H775 C788 0.960 . S
C776 H768 0.929 . S
C776 C777 1.377 . S
C776 C778 1.384 . S
C777 C776 1.377 . S
C777 C783 1.390 . S
C778 H769 0.930 . S
C778 C776 1.384 . S
C778 C779 1.372 . S
C779 C778 1.372 . S
C779 C780 1.400 . S
C779 C784 1.490 . S
C780 H770 0.930 . S
C780 C779 1.400 . S
C780 C783 1.386 . S
H781 C797 0.930 . S
H782 C798 0.931 . S
C783 H771 0.929 . S
C783 C777 1.390 . S
C783 C780 1.386 . S
C784 C779 1.490 . S
C784 C786 1.395 . S
C784 C787 1.403 . S
H785 C791 0.930 . S
C786 H772 0.930 . S
C786 C784 1.395 . S
C786 C789 1.403 . S
C787 C784 1.403 . S
C787 C788 1.524 . S
C787 C791 1.400 . S
C788 H773 0.960 . S
C788 H774 0.960 . S
C788 H775 0.960 . S
C788 C787 1.524 . S
C789 C786 1.403 . S
C789 C790 1.392 . S
C789 C793 1.495 . S
C790 C789 1.392 . S
C790 C791 1.385 . S
C790 C792 1.478 . S
C791 H785 0.930 . S
C791 C787 1.400 . S
C791 C790 1.385 . S
C792 C790 1.478 . S
C792 C794 1.381 . S
C792 C798 1.383 . S
C793 C789 1.495 . S
C793 H799 0.959 . S
C793 H800 0.961 . S
C793 H801 0.960 . S
C794 C792 1.381 . S
C794 C795 1.394 . S
C794 H802 0.930 . S
C795 C794 1.394 . S
C795 C796 1.383 . S
C795 H803 0.929 . S
C796 C795 1.383 . S
C796 C797 1.377 . S
C797 H781 0.930 . S
C797 C796 1.377 . S
C797 C798 1.379 . S
C798 H782 0.931 . S
C798 C792 1.383 . S
C798 C797 1.379 . S
H799 C793 0.959 . S
H800 C793 0.961 . S
H801 C793 0.960 . S
H802 C794 0.930 . S
H803 C795 0.929 . S
H804 C812 0.929 . S
H805 C814 0.930 . S
H806 C816 0.930 . S
H807 C819 0.929 . S
H808 C822 0.930 . S
H809 C824 0.960 . S
H810 C824 0.960 1_455 S
H811 C824 0.960 1_454 S
C812 H804 0.929 . S
C812 C813 1.377 . S
C812 C814 1.384 . S
C813 C812 1.377 . S
C813 C819 1.390 1_556 S
C814 H805 0.930 . S
C814 C812 1.384 . S
C814 C815 1.372 . S
C815 C814 1.372 . S
C815 C816 1.400 . S
C815 C820 1.490 . S
C816 H806 0.930 . S
C816 C815 1.400 . S
C816 C819 1.386 1_556 S
H817 C833 0.930 . S
H818 C834 0.931 . S
C819 H807 0.929 . S
C819 C813 1.390 1_554 S
C819 C816 1.386 1_554 S
C820 C815 1.490 . S
C820 C822 1.395 . S
C820 C823 1.411 . S
H821 C827 0.930 . S
C822 H808 0.930 . S
C822 C820 1.395 . S
C822 C825 1.403 . S
C823 C820 1.411 . S
C823 C824 1.521 1_455 S
C823 C827 1.394 1_455 S
C824 H809 0.960 . S
C824 H810 0.960 1_655 S
C824 H811 0.960 1_656 S
C824 C823 1.521 1_655 S
C825 C822 1.403 . S
C825 C826 1.392 1_455 S
C825 C829 1.495 . S
C826 C825 1.392 1_655 S
C826 C827 1.385 . S
C826 C828 1.478 . S
C827 H821 0.930 . S
C827 C823 1.394 1_655 S
C827 C826 1.385 . S
C828 C826 1.478 . S
C828 C830 1.381 . S
C828 C834 1.383 . S
C829 C825 1.495 . S
C829 H835 0.959 . S
C829 H836 0.961 1_455 S
C829 H837 0.974 . S
C830 C828 1.381 . S
C830 C831 1.394 . S
C830 H838 0.930 . S
C831 C830 1.394 . S
C831 C832 1.383 . S
C831 H839 0.929 . S
C832 C831 1.383 . S
C832 C833 1.377 . S
C833 H817 0.930 . S
C833 C832 1.377 . S
C833 C834 1.379 . S
C834 H818 0.931 . S
C834 C828 1.383 . S
C834 C833 1.379 . S
H835 C829 0.959 . S
H836 C829 0.961 1_655 S
H837 C829 0.974 . S
H838 C830 0.930 . S
H839 C831 0.929 . S
H840 C848 0.929 . S
H841 C850 0.930 1_554 S
H842 C852 0.930 . S
H843 C855 0.929 . S
H844 C858 0.930 1_556 S
H845 C860 0.960 . S
H846 C860 0.960 . S
H847 C860 0.960 . S
C848 H840 0.929 . S
C848 C849 1.377 . S
C848 C850 1.384 . S
C849 C848 1.377 . S
C849 C855 1.390 . S
C850 H841 0.930 1_556 S
C850 C848 1.384 . S
C850 C851 1.372 . S
C851 C850 1.372 . S
C851 C852 1.400 . S
C851 C856 1.490 1_556 S
C852 H842 0.930 . S
C852 C851 1.400 . S
C852 C855 1.386 . S
H853 C869 0.930 . S
H854 C870 0.931 . S
C855 H843 0.929 . S
C855 C849 1.390 . S
C855 C852 1.386 . S
C856 C851 1.490 1_554 S
C856 C858 1.395 . S
C856 C859 1.403 . S
H857 C863 0.930 . S
C858 H844 0.930 1_554 S
C858 C856 1.395 . S
C858 C861 1.403 1_565 S
C859 C856 1.403 . S
C859 C860 1.524 . S
C859 C863 1.400 1_565 S
C860 H845 0.960 . S
C860 H846 0.960 . S
C860 H847 0.960 . S
C860 C859 1.524 . S
C861 C858 1.403 1_545 S
C861 C862 1.392 . S
C861 C865 1.495 . S
C862 C861 1.392 . S
C862 C863 1.385 . S
C862 C864 1.478 . S
C863 H857 0.930 . S
C863 C859 1.400 1_545 S
C863 C862 1.385 . S
C864 C862 1.478 . S
C864 C866 1.381 . S
C864 C870 1.383 . S
C865 C861 1.495 . S
C865 H871 0.959 . S
C865 H872 0.961 . S
C865 H873 0.960 . S
C866 C864 1.381 . S
C866 C867 1.394 . S
C866 H874 0.930 . S
C867 C866 1.394 . S
C867 C868 1.383 . S
C867 H875 0.929 . S
C868 C867 1.383 . S
C868 C869 1.377 . S
C869 H853 0.930 . S
C869 C868 1.377 . S
C869 C870 1.379 . S
C870 H854 0.931 . S
C870 C864 1.383 . S
C870 C869 1.379 . S
H871 C865 0.959 . S
H872 C865 0.961 . S
H873 C865 0.960 . S
H874 C866 0.930 . S
H875 C867 0.929 . S
H876 C884 0.929 . S
H877 C886 0.930 . S
H878 C888 0.930 . S
H879 C891 0.929 . S
H880 C894 0.930 . S
H881 C896 0.960 . S
H882 C896 0.960 . S
H883 C896 0.960 . S
C884 H876 0.929 . S
C884 C885 1.377 . S
C884 C886 1.384 . S
C885 C884 1.377 . S
C885 C891 1.390 . S
C886 H877 0.930 . S
C886 C884 1.384 . S
C886 C887 1.372 . S
C887 C886 1.372 . S
C887 C888 1.400 . S
C887 C892 1.490 . S
C888 H878 0.930 . S
C888 C887 1.400 . S
C888 C891 1.386 . S
H889 C905 0.930 . S
H890 C906 0.931 . S
C891 H879 0.929 . S
C891 C885 1.390 . S
C891 C888 1.386 . S
C892 C887 1.490 . S
C892 C894 1.395 . S
C892 C895 1.403 . S
H893 C899 0.930 . S
C894 H880 0.930 . S
C894 C892 1.395 . S
C894 C897 1.403 . S
C895 C892 1.403 . S
C895 C896 1.524 . S
C895 C899 1.400 . S
C896 H881 0.960 . S
C896 H882 0.960 . S
C896 H883 0.960 . S
C896 C895 1.524 . S
C897 C894 1.403 . S
C897 C898 1.392 . S
C897 C901 1.495 . S
C898 C897 1.392 . S
C898 C899 1.385 . S
C898 C900 1.478 . S
C899 H893 0.930 . S
C899 C895 1.400 . S
C899 C898 1.385 . S
C900 C898 1.478 . S
C900 C902 1.381 . S
C900 C906 1.383 . S
C901 C897 1.495 . S
C901 H907 0.959 . S
C901 H908 0.961 . S
C901 H909 0.960 . S
C902 C900 1.381 . S
C902 C903 1.394 . S
C902 H910 0.930 . S
C903 C902 1.394 . S
C903 C904 1.383 . S
C903 H911 0.929 . S
C904 C903 1.383 . S
C904 C905 1.377 . S
C905 H889 0.930 . S
C905 C904 1.377 . S
C905 C906 1.379 . S
C906 H890 0.931 . S
C906 C900 1.383 . S
C906 C905 1.379 . S
H907 C901 0.959 . S
H908 C901 0.961 . S
H909 C901 0.960 . S
H910 C902 0.930 . S
H911 C903 0.929 . S
H912 C920 0.929 . S
H913 C922 0.930 . S
H914 C924 0.930 . S
H915 C927 0.929 . S
H916 C930 0.930 . S
H917 C932 0.960 . S
H918 C932 0.960 . S
H919 C932 0.960 . S
C920 H912 0.929 . S
C920 C921 1.377 . S
C920 C922 1.384 . S
C921 C920 1.377 . S
C921 C927 1.390 . S
C922 H913 0.930 . S
C922 C920 1.384 . S
C922 C923 1.372 . S
C923 C922 1.372 . S
C923 C924 1.400 . S
C923 C928 1.490 . S
C924 H914 0.930 . S
C924 C923 1.400 . S
C924 C927 1.386 . S
H925 C941 0.930 . S
H926 C942 0.931 . S
C927 H915 0.929 . S
C927 C921 1.390 . S
C927 C924 1.386 . S
C928 C923 1.490 . S
C928 C930 1.395 . S
C928 C931 1.403 . S
H929 C935 0.930 . S
C930 H916 0.930 . S
C930 C928 1.395 . S
C930 C933 1.403 1_455 S
C931 C928 1.403 . S
C931 C932 1.524 . S
C931 C935 1.400 1_455 S
C932 H917 0.960 . S
C932 H918 0.960 . S
C932 H919 0.960 . S
C932 C931 1.524 . S
C933 C930 1.403 1_655 S
C933 C934 1.392 . S
C933 C937 1.495 . S
C934 C933 1.392 . S
C934 C935 1.385 . S
C934 C936 1.478 . S
C935 H929 0.930 . S
C935 C931 1.400 1_655 S
C935 C934 1.385 . S
C936 C934 1.478 . S
C936 C938 1.381 . S
C936 C942 1.383 . S
C937 C933 1.495 . S
C937 H943 0.959 . S
C937 H944 0.961 . S
C937 H945 0.960 . S
C938 C936 1.381 . S
C938 C939 1.394 . S
C938 H946 0.930 . S
C939 C938 1.394 . S
C939 C940 1.383 . S
C939 H947 0.929 . S
C940 C939 1.383 . S
C940 C941 1.377 . S
C941 H925 0.930 . S
C941 C940 1.377 . S
C941 C942 1.379 . S
C942 H926 0.931 . S
C942 C936 1.383 . S
C942 C941 1.379 . S
H943 C937 0.959 . S
H944 C937 0.961 . S
H945 C937 0.960 . S
H946 C938 0.930 . S
H947 C939 0.929 . S
H948 C956 0.929 . S
H949 C958 0.930 . S
H950 C960 0.930 . S
H951 C963 0.929 . S
H952 C966 0.930 . S
H953 C968 0.960 . S
H954 C968 0.960 . S
H955 C968 0.960 . S
C956 H948 0.929 . S
C956 C957 1.377 . S
C956 C958 1.384 . S
C957 C956 1.377 . S
C957 C963 1.390 . S
C958 H949 0.930 . S
C958 C956 1.384 . S
C958 C959 1.372 . S
C959 C958 1.372 . S
C959 C960 1.400 . S
C959 C964 1.490 . S
C960 H950 0.930 . S
C960 C959 1.400 . S
C960 C963 1.386 . S
H961 C977 0.930 . S
H962 C978 0.931 . S
C963 H951 0.929 . S
C963 C957 1.390 . S
C963 C960 1.386 . S
C964 C959 1.490 . S
C964 C966 1.395 1_545 S
C964 C967 1.403 . S
H965 C971 0.930 . S
C966 H952 0.930 . S
C966 C964 1.395 1_565 S
C966 C969 1.403 . S
C967 C964 1.403 . S
C967 C968 1.524 . S
C967 C971 1.400 1_545 S
C968 H953 0.960 . S
C968 H954 0.960 . S
C968 H955 0.960 . S
C968 C967 1.524 . S
C969 C966 1.403 . S
C969 C970 1.392 . S
C969 C973 1.495 . S
C970 C969 1.392 . S
C970 C971 1.385 . S
C970 C972 1.478 . S
C971 H965 0.930 . S
C971 C967 1.400 1_565 S
C971 C970 1.385 . S
C972 C970 1.478 . S
C972 C974 1.381 . S
C972 C978 1.383 . S
C973 C969 1.495 . S
C973 H979 0.959 . S
C973 H980 0.961 . S
C973 H981 0.960 . S
C974 C972 1.381 . S
C974 C975 1.394 . S
C974 H982 0.930 . S
C975 C974 1.394 . S
C975 C976 1.383 . S
C975 H983 0.929 . S
C976 C975 1.383 . S
C976 C977 1.377 . S
C977 H961 0.930 . S
C977 C976 1.377 . S
C977 C978 1.379 . S
C978 H962 0.931 . S
C978 C972 1.383 . S
C978 C977 1.379 . S
H979 C973 0.959 . S
H980 C973 0.961 . S
H981 C973 0.960 . S
H982 C974 0.930 . S
H983 C975 0.929 . S
H984 C992 0.929 . S
H985 C994 0.930 . S
H986 C996 0.930 . S
H987 C999 0.929 . S
H988 C1002 0.930 . S
H989 C1004 0.960 . S
H990 C1004 0.960 . S
H991 C1004 0.960 . S
C992 H984 0.929 . S
C992 C993 1.377 . S
C992 C994 1.384 . S
C993 C992 1.377 . S
C993 C999 1.390 . S
C994 H985 0.930 . S
C994 C992 1.384 . S
C994 C995 1.372 . S
C995 C994 1.372 . S
C995 C996 1.400 . S
C995 C1000 1.490 . S
C996 H986 0.930 . S
C996 C995 1.400 . S
C996 C999 1.386 . S
H997 C1013 0.930 . S
H998 C1014 0.931 . S
C999 H987 0.929 . S
C999 C993 1.390 . S
C999 C996 1.386 . S
C1000 C995 1.490 . S
C1000 C1002 1.395 . S
C1000 C1003 1.403 . S
H1001 C1007 0.930 . S
C1002 H988 0.930 . S
C1002 C1000 1.395 . S
C1002 C1005 1.403 . S
C1003 C1000 1.403 . S
C1003 C1004 1.524 . S
C1003 C1007 1.400 . S
C1004 H989 0.960 . S
C1004 H990 0.960 . S
C1004 H991 0.960 . S
C1004 C1003 1.524 . S
C1005 C1002 1.403 . S
C1005 C1006 1.392 . S
C1005 C1009 1.495 . S
C1006 C1005 1.392 . S
C1006 C1007 1.385 . S
C1006 C1008 1.478 . S
C1007 H1001 0.930 . S
C1007 C1003 1.400 . S
C1007 C1006 1.385 . S
C1008 C1006 1.478 . S
C1008 C1010 1.381 . S
C1008 C1014 1.383 . S
C1009 C1005 1.495 . S
C1009 H1015 0.959 . S
C1009 H1016 0.961 . S
C1009 H1017 0.960 . S
C1010 C1008 1.381 . S
C1010 C1011 1.394 . S
C1010 H1018 0.930 . S
C1011 C1010 1.394 . S
C1011 C1012 1.383 . S
C1011 H1019 0.929 . S
C1012 C1011 1.383 . S
C1012 C1013 1.377 . S
C1013 H997 0.930 . S
C1013 C1012 1.377 . S
C1013 C1014 1.379 . S
C1014 H998 0.931 . S
C1014 C1008 1.383 . S
C1014 C1013 1.379 . S
H1015 C1009 0.959 . S
H1016 C1009 0.961 . S
H1017 C1009 0.960 . S
H1018 C1010 0.930 . S
H1019 C1011 0.929 . S
C165 C5 1.069 . S
C184 C135 1.079 . S
C201 C148 1.018 . S
C220 C13 1.032 . S
C237 C31 1.002 . S
C256 C78 1.035 . S
C273 C44 1.071 . S
C292 C96 1.098 . S
C309 C52 1.020 . S
C328 C109 0.970 . S
C345 C117 1.010 . S
C364 C70 0.986 . S
C381 C8 1.542 . S
C400 C112 1.525 . S
C417 C23 1.567 . S
C436 C127 1.568 . S
C453 C138 1.543 . S
C472 C34 1.534 . S
C489 C47 1.550 . S
C508 C151 1.554 . S
C525 C62 1.567 . S
C544 C88 1.566 . S
C561 C73 1.550 . S
C580 C99 1.563 . S
C597 C140 0.984 . S
C616 C10 0.984 . S
C633 C21 0.944 . S
C652 C153 0.947 . S
C669 C36 0.958 . S
C688 C86 0.921 . S
C705 C49 0.984 . S
C724 C101 0.985 . S
C741 C114 0.963 . S
C760 C60 0.978 . S
C777 C75 0.963 . S
C796 C125 0.975 . S
C813 C0 1.349 1_556 S
C832 C143 1.377 . S
C849 C83 1.311 . S
C868 C18 1.328 . S
C885 C91 1.341 . S
C904 C26 1.336 . S
C921 C104 1.341 . S
C940 C39 1.325 . S
C957 C122 1.322 . S
C976 C57 1.280 . S
C993 C130 1.342 . S
C1012 C65 1.351 . S
