# Generated by pormake.
# Topology uol, (4)-cn, num edge types: 1
# Building blocks:
#     Node 0, Type 0, BuildingBlock: KUFVIS_clean_sbu_0, # of connection points: 4
#     Node 1, Type 0, BuildingBlock: KUFVIS_clean_sbu_0, # of connection points: 4
#     Node 2, Type 0, BuildingBlock: KUFVIS_clean_sbu_0, # of connection points: 4
#     Node 3, Type 0, BuildingBlock: KUFVIS_clean_sbu_0, # of connection points: 4
#     Node 4, Type 0, BuildingBlock: KUFVIS_clean_sbu_0, # of connection points: 4
#     Node 5, Type 0, BuildingBlock: KUFVIS_clean_sbu_0, # of connection points: 4
#     Node 6, Type 0, BuildingBlock: KUFVIS_clean_sbu_0, # of connection points: 4
#     Node 7, Type 0, BuildingBlock: KUFVIS_clean_sbu_0, # of connection points: 4
#     Node 8, Type 0, BuildingBlock: KUFVIS_clean_sbu_0, # of connection points: 4
#     Node 9, Type 0, BuildingBlock: KUFVIS_clean_sbu_0, # of connection points: 4
#     Node 10, Type 0, BuildingBlock: KUFVIS_clean_sbu_0, # of connection points: 4
#     Node 11, Type 0, BuildingBlock: KUFVIS_clean_sbu_0, # of connection points: 4
#     Edge 12, Type (0, 0), BuildingBlock: KIFKEQ_clean_linker_1, # of connection points: 2
#     Edge 13, Type (0, 0), BuildingBlock: KIFKEQ_clean_linker_1, # of connection points: 2
#     Edge 14, Type (0, 0), BuildingBlock: KIFKEQ_clean_linker_1, # of connection points: 2
#     Edge 15, Type (0, 0), BuildingBlock: KIFKEQ_clean_linker_1, # of connection points: 2
#     Edge 16, Type (0, 0), BuildingBlock: KIFKEQ_clean_linker_1, # of connection points: 2
#     Edge 17, Type (0, 0), BuildingBlock: KIFKEQ_clean_linker_1, # of connection points: 2
#     Edge 18, Type (0, 0), BuildingBlock: KIFKEQ_clean_linker_1, # of connection points: 2
#     Edge 19, Type (0, 0), BuildingBlock: KIFKEQ_clean_linker_1, # of connection points: 2
#     Edge 20, Type (0, 0), BuildingBlock: KIFKEQ_clean_linker_1, # of connection points: 2
#     Edge 21, Type (0, 0), BuildingBlock: KIFKEQ_clean_linker_1, # of connection points: 2
#     Edge 22, Type (0, 0), BuildingBlock: KIFKEQ_clean_linker_1, # of connection points: 2
#     Edge 23, Type (0, 0), BuildingBlock: KIFKEQ_clean_linker_1, # of connection points: 2
#     Edge 24, Type (0, 0), BuildingBlock: KIFKEQ_clean_linker_1, # of connection points: 2
#     Edge 25, Type (0, 0), BuildingBlock: KIFKEQ_clean_linker_1, # of connection points: 2
#     Edge 26, Type (0, 0), BuildingBlock: KIFKEQ_clean_linker_1, # of connection points: 2
#     Edge 27, Type (0, 0), BuildingBlock: KIFKEQ_clean_linker_1, # of connection points: 2
#     Edge 28, Type (0, 0), BuildingBlock: KIFKEQ_clean_linker_1, # of connection points: 2
#     Edge 29, Type (0, 0), BuildingBlock: KIFKEQ_clean_linker_1, # of connection points: 2
#     Edge 30, Type (0, 0), BuildingBlock: KIFKEQ_clean_linker_1, # of connection points: 2
#     Edge 31, Type (0, 0), BuildingBlock: KIFKEQ_clean_linker_1, # of connection points: 2
#     Edge 32, Type (0, 0), BuildingBlock: KIFKEQ_clean_linker_1, # of connection points: 2
#     Edge 33, Type (0, 0), BuildingBlock: KIFKEQ_clean_linker_1, # of connection points: 2
#     Edge 34, Type (0, 0), BuildingBlock: KIFKEQ_clean_linker_1, # of connection points: 2
#     Edge 35, Type (0, 0), BuildingBlock: KIFKEQ_clean_linker_1, # of connection points: 2
# Relax obj value: 0.141
# Max RMSD: 0.196
# Mean RMSD: 0.196
data_MOF--net-uol--node1-KUFVIS_clean_sbu_0--edge1-KIFKEQ_clean_linker_1
_symmetry_space_group_name_H-M    P1
_symmetry_Int_Tables_number       1
_symmetry_cell_setting            triclinic
loop_
_symmetry_equiv_pos_as_xyz
'x, y, z'
_cell_length_a     32.464189
_cell_length_b     32.461657
_cell_length_c     69.252919
_cell_angle_alpha  90.011671
_cell_angle_beta   89.9919
_cell_angle_gamma 119.99514
loop_
_atom_site_label
_atom_site_type_symbol
_atom_site_fract_x
_atom_site_fract_y
_atom_site_fract_z
_atom_type_partial_charge
Mn0 Mn 0.13207 0.33322 0.0999 0.0
Mn1 Mn 0.16575 0.38764 0.14324 0.0
C2 C 0.1631 0.3046 0.12261 0.0
C3 C 0.15375 0.33199 0.0678 0.0
C4 C 0.06276 0.3186 0.13251 0.0
O5 O 0.1321 0.39515 0.09583 0.0
O6 O 0.16259 0.43171 0.12413 0.0
C7 C 0.26406 0.4603 0.1327 0.0
N8 N 0.23362 0.42358 0.1442 0.0
C9 C 0.29849 0.42771 0.16257 0.0
C10 C 0.33055 0.46581 0.15101 0.0
C11 C 0.31325 0.48208 0.13598 0.0
C12 C 0.24989 0.40736 0.15858 0.0
H13 H 0.25088 0.47277 0.12109 0.0
C14 C 0.14737 0.43103 0.10701 0.0
O15 O 0.10918 0.31212 0.07274 0.0
O16 O 0.1848 0.35311 0.08132 0.0
N17 N 0.17056 0.35007 0.16345 0.0
C18 C 0.1349 0.31314 0.17334 0.0
C19 C 0.14619 0.29275 0.18888 0.0
C20 C 0.1939 0.31097 0.19428 0.0
C21 C 0.22987 0.34983 0.18424 0.0
C22 C 0.21644 0.3689 0.16897 0.0
H23 H 0.09814 0.29916 0.16935 0.0
O24 O 0.13962 0.27856 0.10797 0.0
O25 O 0.16959 0.34753 0.12307 0.0
O26 O 0.07015 0.30662 0.11579 0.0
O27 O 0.09571 0.3498 0.14326 0.0
C28 C 0.27855 0.37017 0.18869 0.0
C29 C 0.31286 0.40888 0.17778 0.0
H30 H 0.36851 0.48268 0.15349 0.0
H31 H 0.33778 0.51132 0.12694 0.0
H32 H 0.11819 0.26298 0.19664 0.0
H33 H 0.20251 0.29487 0.20615 0.0
H34 H 0.29002 0.35608 0.20038 0.0
H35 H 0.35021 0.42389 0.18121 0.0
Mn36 Mn 0.80426 0.12578 0.26417 0.0
Mn37 Mn 0.78104 0.15331 0.30835 0.0
C38 C 0.86389 0.15696 0.287 0.0
C39 C 0.82496 0.14915 0.23216 0.0
C40 C 0.75051 0.05256 0.29545 0.0
O41 O 0.74073 0.12322 0.26077 0.0
O42 O 0.73484 0.15256 0.2894 0.0
C43 C 0.80597 0.25268 0.30037 0.0
N44 N 0.81213 0.22088 0.311 0.0
C45 C 0.87104 0.28327 0.33093 0.0
C46 C 0.86511 0.31668 0.32027 0.0
C47 C 0.83253 0.30131 0.30489 0.0
C48 C 0.84374 0.23532 0.32569 0.0
H49 H 0.78105 0.24101 0.28851 0.0
C50 C 0.72034 0.1383 0.27219 0.0
O51 O 0.80272 0.10442 0.2369 0.0
O52 O 0.83445 0.17977 0.24587 0.0
N53 N 0.82266 0.1557 0.32846 0.0
C54 C 0.82371 0.11889 0.33747 0.0
C55 C 0.85423 0.12817 0.35328 0.0
C56 C 0.88277 0.17504 0.35987 0.0
C57 C 0.88009 0.21217 0.35073 0.0
C58 C 0.84875 0.20071 0.33514 0.0
H59 H 0.80156 0.08272 0.33261 0.0
O60 O 0.86787 0.13592 0.2718 0.0
O61 O 0.82616 0.16122 0.28793 0.0
O62 O 0.77184 0.06271 0.27915 0.0
O63 O 0.74935 0.08316 0.30676 0.0
C64 C 0.90743 0.26011 0.35644 0.0
C65 C 0.90317 0.29568 0.34645 0.0
H66 H 0.88551 0.35421 0.32372 0.0
H67 H 0.8279 0.3269 0.29655 0.0
H68 H 0.8558 0.09926 0.36035 0.0
H69 H 0.90657 0.18212 0.37196 0.0
H70 H 0.9321 0.27006 0.3684 0.0
H71 H 0.92475 0.33248 0.35084 0.0
Mn72 Mn 0.66986 0.79914 0.43136 0.0
Mn73 Mn 0.6195 0.77605 0.4756 0.0
C74 C 0.69844 0.85864 0.45417 0.0
C75 C 0.66782 0.82153 0.39949 0.0
C76 C 0.69001 0.7459 0.46275 0.0
O77 O 0.60885 0.73584 0.4279 0.0
O78 O 0.57438 0.7286 0.45683 0.0
C79 C 0.54376 0.79895 0.46731 0.0
N80 N 0.58211 0.80624 0.47795 0.0
C81 C 0.57822 0.86593 0.49719 0.0
C82 C 0.53847 0.85883 0.48653 0.0
C83 C 0.52125 0.82527 0.47149 0.0
C84 C 0.59922 0.83873 0.49233 0.0
H85 H 0.53058 0.77334 0.45568 0.0
C86 C 0.574 0.71443 0.43954 0.0
O87 O 0.68927 0.79803 0.40393 0.0
O88 O 0.64671 0.83038 0.41339 0.0
N89 N 0.65848 0.81876 0.49548 0.0
C90 C 0.69697 0.82111 0.50446 0.0
C91 C 0.7184 0.85285 0.5199 0.0
C92 C 0.69969 0.88135 0.52613 0.0
C93 C 0.65932 0.87741 0.51701 0.0
C94 C 0.63924 0.84484 0.50181 0.0
H95 H 0.71137 0.79911 0.49983 0.0
O96 O 0.72358 0.86244 0.43904 0.0
O97 O 0.65637 0.821 0.4551 0.0
O98 O 0.70026 0.76621 0.44623 0.0
O99 O 0.65892 0.74545 0.47424 0.0
C100 C 0.6384 0.90473 0.52232 0.0
C101 C 0.59806 0.89922 0.51234 0.0
H102 H 0.52103 0.8791 0.4897 0.0
H103 H 0.49073 0.81975 0.46314 0.0
H104 H 0.74936 0.85544 0.52695 0.0
H105 H 0.71659 0.90613 0.53792 0.0
H106 H 0.65328 0.93035 0.53397 0.0
H107 H 0.5826 0.92078 0.51643 0.0
Mn108 Mn 0.87416 0.67776 0.59905 0.0
Mn109 Mn 0.85301 0.62848 0.64356 0.0
C110 C 0.84615 0.70652 0.62295 0.0
C111 C 0.8464 0.67549 0.56774 0.0
C112 C 0.95149 0.70026 0.62917 0.0
O113 O 0.87517 0.61639 0.59471 0.0
O114 O 0.856 0.58433 0.62445 0.0
C115 C 0.75501 0.55018 0.63613 0.0
N116 N 0.78579 0.58899 0.64662 0.0
C117 C 0.7223 0.58279 0.66662 0.0
C118 C 0.68997 0.54253 0.65612 0.0
C119 C 0.7064 0.52623 0.64079 0.0
C120 C 0.7703 0.60524 0.66128 0.0
H121 H 0.76746 0.5377 0.62426 0.0
C122 C 0.8656 0.58289 0.60662 0.0
O123 O 0.89175 0.69688 0.5714 0.0
O124 O 0.81786 0.65487 0.58211 0.0
N125 N 0.84891 0.66631 0.66386 0.0
C126 C 0.88485 0.70504 0.6728 0.0
C127 C 0.87448 0.72549 0.68859 0.0
C128 C 0.82744 0.70552 0.69521 0.0
C129 C 0.79129 0.66482 0.68616 0.0
C130 C 0.80385 0.64573 0.67061 0.0
H131 H 0.92112 0.7204 0.66787 0.0
O132 O 0.86586 0.73163 0.60762 0.0
O133 O 0.84166 0.66437 0.62353 0.0
O134 O 0.93934 0.70827 0.61264 0.0
O135 O 0.92252 0.67019 0.6414 0.0
C136 C 0.74325 0.64257 0.6919 0.0
C137 C 0.70874 0.60175 0.68206 0.0
H138 H 0.65244 0.52398 0.65966 0.0
H139 H 0.68163 0.49532 0.63256 0.0
H140 H 0.90266 0.75667 0.6956 0.0
H141 H 0.8195 0.72168 0.70727 0.0
H142 H 0.73243 0.65672 0.70378 0.0
H143 H 0.67186 0.58518 0.6865 0.0
Mn144 Mn 0.19947 0.86991 0.76603 0.0
Mn145 Mn 0.21893 0.835 0.80932 0.0
C146 C 0.13919 0.83849 0.7885 0.0
C147 C 0.17764 0.84907 0.73378 0.0
C148 C 0.25365 0.93836 0.79895 0.0
O149 O 0.26132 0.86963 0.76213 0.0
O150 O 0.26626 0.83802 0.79031 0.0
C151 C 0.19268 0.73665 0.79854 0.0
N152 N 0.18656 0.7671 0.8101 0.0
C153 C 0.12552 0.70219 0.82835 0.0
C154 C 0.1314 0.67012 0.81673 0.0
C155 C 0.16503 0.68744 0.80172 0.0
C156 C 0.15398 0.75081 0.82445 0.0
H157 H 0.21839 0.74984 0.78695 0.0
C158 C 0.2813 0.85362 0.77327 0.0
O159 O 0.20216 0.89351 0.73893 0.0
O160 O 0.16705 0.81766 0.7472 0.0
N161 N 0.17633 0.83019 0.82945 0.0
C162 C 0.17513 0.86585 0.83938 0.0
C163 C 0.14337 0.85454 0.85489 0.0
C164 C 0.11374 0.8068 0.86023 0.0
C165 C 0.11653 0.77083 0.85014 0.0
C166 C 0.14908 0.78427 0.83489 0.0
H167 H 0.19805 0.90263 0.83545 0.0
O168 O 0.1371 0.86237 0.77392 0.0
O169 O 0.17554 0.83186 0.78904 0.0
O170 O 0.23455 0.93144 0.78218 0.0
O171 O 0.2516 0.90507 0.80956 0.0
C172 C 0.08806 0.72213 0.85453 0.0
C173 C 0.0923 0.68781 0.84356 0.0
H174 H 0.11013 0.63214 0.81913 0.0
H175 H 0.16961 0.6629 0.79263 0.0
H176 H 0.14168 0.88254 0.86269 0.0
H177 H 0.08899 0.79819 0.87209 0.0
H178 H 0.06251 0.71066 0.86623 0.0
H179 H 0.06983 0.65045 0.84693 0.0
Mn180 Mn 0.32006 0.19671 0.93108 0.0
Mn181 Mn 0.37061 0.21981 0.97532 0.0
C182 C 0.29191 0.13691 0.95383 0.0
C183 C 0.32286 0.17614 0.89904 0.0
C184 C 0.29951 0.24932 0.9626 0.0
O185 O 0.38077 0.26048 0.92773 0.0
O186 O 0.4157 0.26667 0.95646 0.0
C187 C 0.44601 0.19637 0.96706 0.0
N188 N 0.40788 0.18949 0.97776 0.0
C189 C 0.41227 0.13066 0.9974 0.0
C190 C 0.45179 0.13734 0.98667 0.0
C191 C 0.46863 0.17024 0.9714 0.0
C192 C 0.39106 0.15755 0.99234 0.0
H193 H 0.45896 0.22153 0.95527 0.0
C194 C 0.41603 0.28114 0.93923 0.0
O195 O 0.30016 0.19817 0.90382 0.0
O196 O 0.3442 0.1669 0.91273 0.0
N197 N 0.33182 0.1776 0.99538 0.0
C198 C 0.29385 0.17598 0.00453 0.0
C199 C 0.273 0.14514 0.02028 0.0
C200 C 0.29184 0.11688 0.02667 0.0
C201 C 0.33178 0.12019 0.0174 0.0
C202 C 0.35126 0.15183 0.00187 0.0
H203 H 0.27946 0.19793 0.99984 0.0
O204 O 0.26687 0.13289 0.93863 0.0
O205 O 0.33378 0.17479 0.95481 0.0
O206 O 0.28894 0.2286 0.94616 0.0
O207 O 0.33125 0.25056 0.97393 0.0
C208 C 0.35292 0.09322 0.02291 0.0
C209 C 0.39292 0.09819 0.01283 0.0
H210 H 0.46936 0.11728 0.98998 0.0
H211 H 0.49899 0.17544 0.963 0.0
H212 H 0.24243 0.14311 0.02746 0.0
H213 H 0.27541 0.09283 0.03871 0.0
H214 H 0.33851 0.06832 0.03481 0.0
H215 H 0.40858 0.07691 0.01708 0.0
Mn216 Mn 0.67872 0.87622 0.73734 0.0
Mn217 Mn 0.62867 0.84618 0.69309 0.0
C218 C 0.70738 0.84358 0.71528 0.0
C219 C 0.67539 0.8543 0.76959 0.0
C220 C 0.69915 0.94761 0.70513 0.0
O221 O 0.61787 0.87916 0.74013 0.0
O222 O 0.58309 0.84854 0.71156 0.0
C223 C 0.55363 0.74758 0.70193 0.0
N224 N 0.59188 0.77846 0.6912 0.0
C225 C 0.58852 0.71445 0.67243 0.0
C226 C 0.54889 0.68198 0.6832 0.0
C227 C 0.53146 0.69862 0.69805 0.0
C228 C 0.60925 0.76279 0.67703 0.0
H229 H 0.54023 0.76023 0.7134 0.0
C230 C 0.58263 0.8637 0.72858 0.0
O231 O 0.69811 0.89883 0.76453 0.0
O232 O 0.65438 0.82313 0.75607 0.0
N233 N 0.66799 0.8421 0.67344 0.0
C234 C 0.70593 0.87814 0.66416 0.0
C235 C 0.72732 0.86755 0.64877 0.0
C236 C 0.70904 0.82015 0.64289 0.0
C237 C 0.66912 0.78382 0.65228 0.0
C238 C 0.64909 0.79657 0.66742 0.0
H239 H 0.7199 0.91469 0.66846 0.0
O240 O 0.73219 0.86548 0.73041 0.0
O241 O 0.66547 0.8394 0.71398 0.0
O242 O 0.7098 0.93845 0.72175 0.0
O243 O 0.66757 0.91638 0.69395 0.0
C244 C 0.64848 0.73544 0.64724 0.0
C245 C 0.60843 0.70074 0.6574 0.0
H246 H 0.53167 0.64419 0.68024 0.0
H247 H 0.50101 0.67376 0.70647 0.0
H248 H 0.75787 0.89585 0.6415 0.0
H249 H 0.72587 0.81207 0.63113 0.0
H250 H 0.66332 0.7245 0.63565 0.0
H251 H 0.59315 0.66361 0.65352 0.0
Mn252 Mn 0.79905 0.66977 0.90096 0.0
Mn253 Mn 0.77838 0.61586 0.85751 0.0
C254 C 0.85876 0.69863 0.87823 0.0
C255 C 0.82175 0.67084 0.93306 0.0
C256 C 0.74425 0.68462 0.86848 0.0
O257 O 0.73724 0.60767 0.90496 0.0
O258 O 0.73135 0.57146 0.87658 0.0
C259 C 0.80441 0.54329 0.86774 0.0
N260 N 0.81047 0.58008 0.85633 0.0
C261 C 0.87103 0.57621 0.83772 0.0
C262 C 0.86521 0.53804 0.84917 0.0
C263 C 0.83185 0.52161 0.86428 0.0
C264 C 0.84278 0.59647 0.84188 0.0
H265 H 0.77892 0.5307 0.87941 0.0
C266 C 0.71681 0.57186 0.89373 0.0
O267 O 0.79701 0.69065 0.9281 0.0
O268 O 0.83193 0.6499 0.91953 0.0
N269 N 0.82066 0.6538 0.83732 0.0
C270 C 0.82188 0.69092 0.8276 0.0
C271 C 0.8534 0.71152 0.81203 0.0
C272 C 0.88278 0.69332 0.80642 0.0
C273 C 0.87997 0.6543 0.8163 0.0
C274 C 0.84765 0.63505 0.83163 0.0
H275 H 0.79917 0.70487 0.83175 0.0
O276 O 0.86126 0.72457 0.8929 0.0
O277 O 0.82234 0.65571 0.87773 0.0
O278 O 0.7637 0.69645 0.88519 0.0
O279 O 0.74596 0.65352 0.85766 0.0
C280 C 0.90823 0.63399 0.81165 0.0
C281 C 0.90401 0.59519 0.82243 0.0
H282 H 0.88632 0.52124 0.84656 0.0
H283 H 0.82732 0.49233 0.87325 0.0
H284 H 0.85512 0.74142 0.8044 0.0
H285 H 0.90735 0.70957 0.79452 0.0
H286 H 0.93361 0.64819 0.7999 0.0
H287 H 0.92632 0.58023 0.81886 0.0
Mn288 Mn 0.12153 0.80399 0.07028 0.0
Mn289 Mn 0.14906 0.78154 0.02594 0.0
C290 C 0.15377 0.86428 0.04775 0.0
C291 C 0.14473 0.82375 0.10236 0.0
C292 C 0.04851 0.75237 0.03864 0.0
O293 O 0.11804 0.73997 0.0734 0.0
O294 O 0.14682 0.73414 0.04463 0.0
C295 C 0.24761 0.80406 0.03421 0.0
N296 N 0.21662 0.81146 0.02356 0.0
C297 C 0.28017 0.87026 0.00405 0.0
C298 C 0.31274 0.86305 0.01472 0.0
C299 C 0.29639 0.82991 0.0299 0.0
C300 C 0.23203 0.84364 0.00907 0.0
H301 H 0.23518 0.7787 0.04592 0.0
C302 C 0.13258 0.71941 0.06182 0.0
O303 O 0.10005 0.80212 0.09756 0.0
O304 O 0.17537 0.8331 0.08868 0.0
N305 N 0.15295 0.82432 0.00605 0.0
C306 C 0.11685 0.82651 0.99696 0.0
C307 C 0.12715 0.85769 0.98131 0.0
C308 C 0.17431 0.8857 0.97495 0.0
C309 C 0.21068 0.88181 0.98416 0.0
C310 C 0.19821 0.84989 0.9996 0.0
H311 H 0.08046 0.80476 0.00163 0.0
O312 O 0.13268 0.86815 0.06295 0.0
O313 O 0.15741 0.82622 0.04662 0.0
O314 O 0.05863 0.77274 0.05515 0.0
O315 O 0.079 0.7512 0.02728 0.0
C316 C 0.25883 0.90849 0.97867 0.0
C317 C 0.2936 0.90299 0.9887 0.0
H318 H 0.35039 0.88288 0.01143 0.0
H319 H 0.32133 0.82429 0.03825 0.0
H320 H 0.09881 0.86018 0.97418 0.0
H321 H 0.18218 0.91 0.96298 0.0
H322 H 0.26955 0.93356 0.96682 0.0
H323 H 0.33057 0.92405 0.98446 0.0
Mn324 Mn 0.33085 0.13094 0.23433 0.0
Mn325 Mn 0.38447 0.16469 0.19085 0.0
C326 C 0.30194 0.16218 0.21181 0.0
C327 C 0.32998 0.15225 0.2665 0.0
C328 C 0.31581 0.06167 0.20166 0.0
O329 O 0.39297 0.13116 0.23815 0.0
O330 O 0.42904 0.16195 0.20979 0.0
C331 C 0.45712 0.26322 0.20113 0.0
N332 N 0.42019 0.23256 0.18977 0.0
C333 C 0.42384 0.29712 0.17132 0.0
C334 C 0.46215 0.32939 0.18274 0.0
C335 C 0.47877 0.31236 0.19774 0.0
C336 C 0.40363 0.24858 0.17542 0.0
H337 H 0.46987 0.25024 0.21271 0.0
C338 C 0.42874 0.14677 0.22689 0.0
O339 O 0.31012 0.10774 0.26146 0.0
O340 O 0.3509 0.18349 0.25302 0.0
N341 N 0.34629 0.16916 0.1708 0.0
C342 C 0.30908 0.13333 0.1611 0.0
C343 C 0.28829 0.14436 0.14563 0.0
C344 C 0.3064 0.19197 0.1401 0.0
C345 C 0.34551 0.22812 0.14997 0.0
C346 C 0.36495 0.21495 0.16519 0.0
H347 H 0.29519 0.09663 0.16517 0.0
O348 O 0.27605 0.13853 0.22645 0.0
O349 O 0.34482 0.16859 0.21121 0.0
O350 O 0.30402 0.06909 0.21841 0.0
O351 O 0.34689 0.09462 0.19089 0.0
C352 C 0.36577 0.27671 0.14538 0.0
C353 C 0.40469 0.31122 0.15614 0.0
H354 H 0.47893 0.36732 0.18017 0.0
H355 H 0.50817 0.33705 0.20667 0.0
H356 H 0.25831 0.11622 0.13801 0.0
H357 H 0.29001 0.20037 0.12828 0.0
H358 H 0.35144 0.28797 0.13371 0.0
H359 H 0.4196 0.34851 0.15262 0.0
Mn360 Mn 0.19613 0.31804 0.40386 0.0
Mn361 Mn 0.21885 0.36844 0.3596 0.0
C362 C 0.1359 0.29038 0.38129 0.0
C363 C 0.17618 0.32108 0.43598 0.0
C364 C 0.24766 0.29668 0.37215 0.0
O365 O 0.26032 0.3784 0.40707 0.0
O366 O 0.26636 0.41326 0.37835 0.0
C367 C 0.19671 0.44465 0.36806 0.0
N368 N 0.1892 0.40635 0.35732 0.0
C369 C 0.13063 0.41161 0.33785 0.0
C370 C 0.13795 0.45132 0.34861 0.0
C371 C 0.17104 0.46781 0.36381 0.0
C372 C 0.15707 0.38985 0.34281 0.0
H373 H 0.22202 0.45735 0.37979 0.0
C374 C 0.2811 0.41353 0.39551 0.0
O375 O 0.19776 0.29802 0.4311 0.0
O376 O 0.16707 0.34269 0.42235 0.0
N377 N 0.17605 0.32988 0.33965 0.0
C378 C 0.17373 0.29161 0.33048 0.0
C379 C 0.1426 0.27102 0.31479 0.0
C380 C 0.11479 0.29044 0.30848 0.0
C381 C 0.11881 0.33066 0.31778 0.0
C382 C 0.15068 0.34983 0.33325 0.0
H383 H 0.19534 0.27679 0.3351 0.0
O384 O 0.13191 0.26526 0.39645 0.0
O385 O 0.17405 0.33203 0.38023 0.0
O386 O 0.22726 0.28636 0.38865 0.0
O387 O 0.24893 0.32846 0.36083 0.0
C388 C 0.09233 0.35239 0.31234 0.0
C389 C 0.09795 0.39261 0.32246 0.0
H390 H 0.11826 0.46931 0.34537 0.0
H391 H 0.17674 0.49831 0.37224 0.0
H392 H 0.14001 0.24023 0.30759 0.0
H393 H 0.09052 0.27423 0.29648 0.0
H394 H 0.0673 0.33827 0.30048 0.0
H395 H 0.07703 0.4087 0.31828 0.0
Mn396 Mn 0.86592 0.19813 0.56698 0.0
Mn397 Mn 0.83409 0.21999 0.52339 0.0
C398 C 0.83604 0.13924 0.54394 0.0
C399 C 0.84356 0.17408 0.59893 0.0
C400 C 0.93646 0.25301 0.53453 0.0
O401 O 0.86467 0.2593 0.57139 0.0
O402 O 0.83873 0.2681 0.5424 0.0
C403 C 0.73647 0.19659 0.53403 0.0
N404 N 0.76627 0.18933 0.52253 0.0
C405 C 0.70048 0.12868 0.50451 0.0
C406 C 0.66909 0.13576 0.51607 0.0
C407 C 0.68717 0.16978 0.53093 0.0
C408 C 0.74923 0.15638 0.50831 0.0
H409 H 0.75024 0.22253 0.54553 0.0
C410 C 0.85179 0.28124 0.55983 0.0
O411 O 0.88821 0.19935 0.59417 0.0
O412 O 0.81276 0.16414 0.58529 0.0
N413 N 0.82811 0.17706 0.5032 0.0
C414 C 0.86324 0.17521 0.49314 0.0
C415 C 0.85117 0.1432 0.47767 0.0
C416 C 0.80323 0.11398 0.47252 0.0
C417 C 0.76783 0.11757 0.48271 0.0
C418 C 0.78204 0.15042 0.49788 0.0
H419 H 0.90018 0.19777 0.49695 0.0
O420 O 0.85935 0.13654 0.5586 0.0
O421 O 0.82918 0.17547 0.54356 0.0
O422 O 0.92847 0.2345 0.55144 0.0
O423 O 0.90392 0.25071 0.52337 0.0
C424 C 0.71898 0.08965 0.47849 0.0
C425 C 0.68531 0.095 0.48945 0.0
H426 H 0.63104 0.11513 0.51373 0.0
H427 H 0.66315 0.17528 0.53997 0.0
H428 H 0.87875 0.14094 0.46978 0.0
H429 H 0.79402 0.089 0.46072 0.0
H430 H 0.7069 0.06375 0.46691 0.0
H431 H 0.64782 0.07304 0.48617 0.0
H432 H 0.1087 0.67678 0.0975 0.0
H433 H 0.16016 0.66533 0.04127 0.0
H434 H 0.1122 0.60702 0.10827 0.0
H435 H 0.1643 0.59638 0.05217 0.0
H436 H 0.17575 0.5145 0.12645 0.0
H437 H 0.17175 0.58371 0.11557 0.0
H438 H 0.11172 0.51355 0.06133 0.0
H439 H 0.11632 0.4445 0.07201 0.0
C440 C 0.12076 0.6595 0.08744 0.0
C441 C 0.13403 0.67673 0.0685 0.0
C442 C 0.12304 0.61969 0.09365 0.0
C443 C 0.13852 0.59618 0.08107 0.0
C444 C 0.15162 0.6133 0.06214 0.0
C445 C 0.14945 0.65306 0.05594 0.0
C446 C 0.16181 0.51376 0.11217 0.0
C447 C 0.14635 0.47378 0.10012 0.0
C448 C 0.15921 0.55338 0.106 0.0
C449 C 0.14125 0.55405 0.08763 0.0
C450 C 0.12619 0.51432 0.0755 0.0
C451 C 0.12869 0.47464 0.08167 0.0
H452 H 0.67753 0.11317 0.23657 0.0
H453 H 0.6666 0.16696 0.29235 0.0
H454 H 0.60711 0.11529 0.22572 0.0
H455 H 0.59693 0.16967 0.28137 0.0
H456 H 0.44378 0.11756 0.26203 0.0
H457 H 0.51399 0.11507 0.27269 0.0
H458 H 0.58213 0.17346 0.21797 0.0
H459 H 0.51182 0.17538 0.20712 0.0
C460 C 0.66028 0.12553 0.24651 0.0
C461 C 0.67778 0.13974 0.26536 0.0
C462 C 0.62007 0.12699 0.24025 0.0
C463 C 0.59641 0.14257 0.25271 0.0
C464 C 0.61394 0.15685 0.27151 0.0
C465 C 0.65412 0.15552 0.27776 0.0
C466 C 0.47371 0.12997 0.25226 0.0
C467 C 0.47198 0.14661 0.23369 0.0
C468 C 0.51405 0.12871 0.25841 0.0
C469 C 0.55358 0.14398 0.24616 0.0
C470 C 0.552 0.16083 0.22765 0.0
C471 C 0.51173 0.1622 0.2215 0.0
H472 H 0.49215 0.65877 0.45985 0.0
H473 H 0.55817 0.67016 0.40434 0.0
H474 H 0.42198 0.58608 0.4493 0.0
H475 H 0.48809 0.59692 0.39397 0.0
H476 H 0.32554 0.43093 0.4308 0.0
H477 H 0.39666 0.50327 0.44132 0.0
H478 H 0.40497 0.56784 0.38586 0.0
H479 H 0.33468 0.49567 0.37519 0.0
C480 C 0.49185 0.6458 0.44541 0.0
C481 C 0.53097 0.67049 0.43295 0.0
C482 C 0.45166 0.60388 0.43942 0.0
C483 C 0.44949 0.58563 0.42083 0.0
C484 C 0.48845 0.61033 0.40833 0.0
C485 C 0.52872 0.65226 0.41431 0.0
C486 C 0.34256 0.46049 0.42083 0.0
C487 C 0.32431 0.45728 0.40212 0.0
C488 C 0.38319 0.50206 0.4269 0.0
C489 C 0.40651 0.54128 0.41441 0.0
C490 C 0.38828 0.53804 0.39574 0.0
C491 C 0.34772 0.49663 0.38967 0.0
H492 H 0.84002 0.54292 0.57084 0.0
H493 H 0.88857 0.5249 0.62652 0.0
H494 H 0.8345 0.4692 0.55971 0.0
H495 H 0.88644 0.453 0.61513 0.0
H496 H 0.8366 0.30211 0.59641 0.0
H497 H 0.83846 0.3742 0.60752 0.0
H498 H 0.87553 0.43253 0.54978 0.0
H499 H 0.87024 0.35909 0.53861 0.0
C500 C 0.85027 0.52348 0.58058 0.0
C501 C 0.86463 0.53952 0.59953 0.0
C502 C 0.84741 0.48126 0.57419 0.0
C503 C 0.86001 0.45468 0.58646 0.0
C504 C 0.87527 0.47153 0.60535 0.0
C505 C 0.87695 0.51308 0.61187 0.0
C506 C 0.84491 0.33038 0.58614 0.0
C507 C 0.85307 0.32497 0.56666 0.0
C508 C 0.84641 0.372 0.5925 0.0
C509 C 0.85735 0.40974 0.57962 0.0
C510 C 0.86591 0.40415 0.56012 0.0
C511 C 0.86322 0.36209 0.55369 0.0
H512 H 0.50089 0.83563 0.70798 0.0
H513 H 0.5641 0.88879 0.76402 0.0
H514 H 0.42807 0.83252 0.7187 0.0
H515 H 0.49122 0.88627 0.77459 0.0
H516 H 0.32567 0.88334 0.73816 0.0
H517 H 0.39866 0.88636 0.72749 0.0
H518 H 0.40822 0.82724 0.78205 0.0
H519 H 0.33572 0.82476 0.79289 0.0
C520 C 0.49944 0.84687 0.72256 0.0
C521 C 0.53854 0.86252 0.73513 0.0
C522 C 0.45768 0.8453 0.72866 0.0
C523 C 0.45388 0.85919 0.74748 0.0
C524 C 0.49287 0.87483 0.76006 0.0
C525 C 0.53476 0.87654 0.75395 0.0
C526 C 0.34321 0.87087 0.74789 0.0
C527 C 0.32474 0.85391 0.76642 0.0
C528 C 0.38498 0.87244 0.74173 0.0
C529 C 0.4093 0.85718 0.75395 0.0
C530 C 0.39069 0.8399 0.7724 0.0
C531 C 0.3489 0.8382 0.77855 0.0
H532 H 0.43397 0.32389 0.90359 0.0
H533 H 0.4982 0.33512 0.9595 0.0
H534 H 0.50669 0.3941 0.89274 0.0
H535 H 0.57077 0.40455 0.94851 0.0
H536 H 0.66208 0.48857 0.87413 0.0
H537 H 0.58965 0.41859 0.88507 0.0
H538 H 0.59987 0.48744 0.93966 0.0
H539 H 0.67277 0.55731 0.92891 0.0
C540 C 0.46351 0.34118 0.91356 0.0
C541 C 0.46004 0.3238 0.93245 0.0
C542 C 0.50529 0.38127 0.9073 0.0
C543 C 0.54448 0.40492 0.91978 0.0
C544 C 0.54101 0.38756 0.93863 0.0
C545 C 0.49937 0.34751 0.94488 0.0
C546 C 0.64905 0.48887 0.8885 0.0
C547 C 0.67339 0.52874 0.90063 0.0
C548 C 0.60729 0.4488 0.8947 0.0
C549 C 0.58891 0.44752 0.91319 0.0
C550 C 0.61338 0.48714 0.92539 0.0
C551 C 0.65511 0.52728 0.91919 0.0
H552 H 0.33773 0.25611 0.20469 0.0
H553 H 0.22337 0.11649 0.18982 0.0
H554 H 0.30392 0.29208 0.18364 0.0
H555 H 0.19061 0.15152 0.16794 0.0
H556 H 0.11626 0.2264 0.1447 0.0
H557 H 0.15019 0.19293 0.16679 0.0
H558 H 0.29159 0.30515 0.15146 0.0
H559 H 0.25674 0.33959 0.13015 0.0
C560 C 0.30575 0.23328 0.19657 0.0
C561 C 0.28371 0.18374 0.19825 0.0
C562 C 0.28632 0.25371 0.18452 0.0
C563 C 0.2445 0.22481 0.17397 0.0
C564 C 0.22232 0.17507 0.17603 0.0
C565 C 0.24128 0.15484 0.18835 0.0
C566 C 0.15456 0.24393 0.14631 0.0
C567 C 0.18402 0.28622 0.13642 0.0
C568 C 0.17415 0.22456 0.15874 0.0
C569 C 0.2238 0.24617 0.16094 0.0
C570 C 0.25326 0.28793 0.15045 0.0
C571 C 0.23348 0.30775 0.13826 0.0
H572 H 0.9212 0.24989 0.29623 0.0
H573 H 0.8946 0.1086 0.30852 0.0
H574 H 0.98821 0.28306 0.31864 0.0
H575 H 0.95901 0.14052 0.33195 0.0
H576 H 0.10328 0.21101 0.35981 0.0
H577 H 0.03845 0.17953 0.33659 0.0
H578 H 0.01215 0.29465 0.35027 0.0
H579 H 0.07963 0.32747 0.37245 0.0
C580 C 0.92946 0.22603 0.30407 0.0
C581 C 0.90233 0.17681 0.30125 0.0
C582 C 0.96774 0.24486 0.31695 0.0
C583 C 0.97935 0.21466 0.32733 0.0
C584 C 0.95218 0.16525 0.32407 0.0
C585 C 0.91477 0.1467 0.31085 0.0
C586 C 0.08365 0.22954 0.35762 0.0
C587 C 0.09707 0.27231 0.36723 0.0
C588 C 0.04599 0.21126 0.34452 0.0
C589 C 0.01956 0.23434 0.34139 0.0
C590 C 0.03208 0.27631 0.35183 0.0
C591 C 0.07062 0.29518 0.36458 0.0
H592 H 0.74244 0.08012 0.53645 0.0
H593 H 0.88312 0.10832 0.52172 0.0
H594 H 0.70781 0.01063 0.51525 0.0
H595 H 0.84948 0.04111 0.49957 0.0
H596 H 0.77809 0.89278 0.47556 0.0
H597 H 0.81041 0.96005 0.49768 0.0
H598 H 0.69434 0.98434 0.48348 0.0
H599 H 0.66079 0.9147 0.46236 0.0
C600 C 0.7658 0.07174 0.5283 0.0
C601 C 0.81525 0.09996 0.53009 0.0
C602 C 0.74614 0.03204 0.51615 0.0
C603 C 0.77571 0.02002 0.50555 0.0
C604 C 0.82536 0.04841 0.50769 0.0
C605 C 0.84482 0.08735 0.52015 0.0
C606 C 0.75945 0.91241 0.47745 0.0
C607 C 0.71634 0.89801 0.46796 0.0
C608 C 0.77817 0.95137 0.48989 0.0
C609 C 0.75514 0.97801 0.49245 0.0
C610 C 0.7126 0.96424 0.48228 0.0
C611 C 0.69333 0.92448 0.47016 0.0
H612 H 0.89328 0.78632 0.64421 0.0
H613 H 0.7533 0.66839 0.63268 0.0
H614 H 0.86016 0.81815 0.66741 0.0
H615 H 0.71885 0.70152 0.65479 0.0
H616 H 0.67234 0.74999 0.7075 0.0
H617 H 0.70695 0.71531 0.68621 0.0
H618 H 0.81931 0.85706 0.67117 0.0
H619 H 0.78633 0.89052 0.69364 0.0
C620 C 0.85522 0.76747 0.64668 0.0
C621 C 0.82585 0.72431 0.63734 0.0
C622 C 0.83596 0.78593 0.65976 0.0
C623 C 0.78653 0.76267 0.66309 0.0
C624 C 0.75707 0.72006 0.65305 0.0
C625 C 0.77663 0.70101 0.64034 0.0
C626 C 0.70441 0.77332 0.69952 0.0
C627 C 0.72612 0.82275 0.70158 0.0
C628 C 0.72427 0.75365 0.68727 0.0
C629 C 0.76597 0.78319 0.67671 0.0
C630 C 0.78784 0.83283 0.67923 0.0
C631 C 0.76866 0.85225 0.69187 0.0
H632 H 0.9169 0.66306 0.87065 0.0
H633 H 0.89091 0.77721 0.85628 0.0
H634 H 0.98605 0.69696 0.84926 0.0
H635 H 0.95818 0.81016 0.83411 0.0
H636 H 0.10746 0.88501 0.81062 0.0
H637 H 0.04001 0.85079 0.83269 0.0
H638 H 0.01094 0.70959 0.81704 0.0
H639 H 0.08029 0.74473 0.79575 0.0
C640 C 0.92574 0.69502 0.86257 0.0
C641 C 0.89819 0.71695 0.86448 0.0
C642 C 0.96527 0.71452 0.85033 0.0
C643 C 0.97787 0.75637 0.83985 0.0
C644 C 0.95027 0.77844 0.84214 0.0
C645 C 0.91138 0.75937 0.85463 0.0
C646 C 0.08668 0.84669 0.81214 0.0
C647 C 0.0996 0.81737 0.80218 0.0
C648 C 0.04768 0.82693 0.82457 0.0
C649 C 0.01971 0.77724 0.8267 0.0
C650 C 0.03202 0.74793 0.81609 0.0
C651 C 0.07165 0.76789 0.80391 0.0
H652 H 0.24708 0.92075 0.03895 0.0
H653 H 0.10689 0.89686 0.02635 0.0
H654 H 0.28165 0.98842 0.01686 0.0
H655 H 0.14015 0.96185 0.0032 0.0
H656 H 0.2128 0.10589 0.97533 0.0
H657 H 0.1804 0.0413 0.99867 0.0
H658 H 0.29403 0.01257 0.98527 0.0
H659 H 0.32779 0.07978 0.96296 0.0
C660 C 0.22377 0.92976 0.03111 0.0
C661 C 0.17445 0.9032 0.03374 0.0
C662 C 0.24338 0.96839 0.01841 0.0
C663 C 0.21388 0.98088 0.008 0.0
C664 C 0.16438 0.95433 0.01111 0.0
C665 C 0.14505 0.91659 0.02416 0.0
C666 C 0.23082 0.08578 0.97762 0.0
C667 C 0.27342 0.0984 0.96803 0.0
C668 C 0.21201 0.04827 0.99079 0.0
C669 C 0.23436 0.02119 0.994 0.0
C670 C 0.27622 0.03298 0.98363 0.0
C671 C 0.29563 0.07137 0.9708 0.0
H672 H 0.09975 0.28106 0.03642 0.0
H673 H 0.24451 0.37401 0.05491 0.0
H674 H 0.1292 0.26787 0.00577 0.0
H675 H 0.27369 0.35953 0.02522 0.0
H676 H 0.32763 0.34107 0.9713 0.0
H677 H 0.286 0.36864 0.99232 0.0
H678 H 0.16628 0.22522 0.99505 0.0
H679 H 0.20702 0.19904 0.97289 0.0
C680 C 0.13773 0.29913 0.03385 0.0
C681 C 0.16975 0.32824 0.04817 0.0
C682 C 0.15468 0.29135 0.01635 0.0
C683 C 0.20397 0.31245 0.01289 0.0
C684 C 0.23557 0.34328 0.02697 0.0
C685 C 0.21873 0.35122 0.04425 0.0
C686 C 0.29159 0.31612 0.97579 0.0
C687 C 0.27023 0.26818 0.97046 0.0
C688 C 0.2679 0.33159 0.98806 0.0
C689 C 0.22314 0.29896 0.99591 0.0
C690 C 0.20041 0.25159 0.98928 0.0
C691 C 0.2237 0.23644 0.97657 0.0
H692 H 0.83195 0.22634 0.2141 0.0
H693 H 0.85873 0.11004 0.2061 0.0
H694 H 0.87597 0.26372 0.18469 0.0
H695 H 0.90555 0.14873 0.17725 0.0
H696 H 0.99078 0.2271 0.12537 0.0
H697 H 0.91956 0.18068 0.14517 0.0
H698 H 0.95793 0.30549 0.17991 0.0
H699 H 0.027 0.35135 0.15996 0.0
C700 C 0.84676 0.20848 0.20583 0.0
C701 C 0.84258 0.16572 0.21244 0.0
C702 C 0.8723 0.23 0.18904 0.0
C703 C 0.89559 0.21004 0.17883 0.0
C704 C 0.88806 0.16518 0.18464 0.0
C705 C 0.86139 0.14301 0.20124 0.0
C706 C 0.9829 0.24477 0.13686 0.0
C707 C 0.0147 0.29277 0.14122 0.0
C708 C 0.94242 0.21808 0.14835 0.0
C709 C 0.93298 0.23905 0.16431 0.0
C710 C 0.96326 0.28794 0.16767 0.0
C711 C 0.00337 0.31436 0.15628 0.0
H712 H 0.65873 0.9914 0.30501 0.0
H713 H 0.79863 0.00726 0.30452 0.0
H714 H 0.63018 0.92157 0.32572 0.0
H715 H 0.77163 0.93972 0.32637 0.0
H716 H 0.71529 0.81703 0.36726 0.0
H717 H 0.72755 0.86027 0.33687 0.0
H718 H 0.64062 0.91677 0.35837 0.0
H719 H 0.62688 0.87237 0.38784 0.0
C720 C 0.68296 0.97899 0.30899 0.0
C721 C 0.73063 0.00419 0.30318 0.0
C722 C 0.66695 0.93945 0.32108 0.0
C723 C 0.69884 0.92556 0.32825 0.0
C724 C 0.74579 0.94885 0.32113 0.0
C725 C 0.76142 0.98764 0.30858 0.0
C726 C 0.69801 0.83788 0.3652 0.0
C727 C 0.67047 0.84159 0.38002 0.0
C728 C 0.70527 0.86296 0.34785 0.0
C729 C 0.68534 0.89242 0.34505 0.0
C730 C 0.65594 0.89396 0.35963 0.0
C731 C 0.64841 0.86873 0.37676 0.0
H732 H 0.89537 0.71815 0.53434 0.0
H733 H 0.75359 0.63651 0.5578 0.0
H734 H 0.86195 0.72688 0.50393 0.0
H735 H 0.72063 0.64675 0.52822 0.0
H736 H 0.65973 0.6556 0.47446 0.0
H737 H 0.7024 0.62999 0.49583 0.0
H738 H 0.82655 0.77047 0.49238 0.0
H739 H 0.78447 0.79444 0.46996 0.0
C740 C 0.85713 0.7017 0.53294 0.0
C741 C 0.82718 0.67693 0.54852 0.0
C742 C 0.83794 0.70689 0.51556 0.0
C743 C 0.78846 0.68761 0.51349 0.0
C744 C 0.75873 0.66131 0.52893 0.0
C745 C 0.77778 0.65584 0.54611 0.0
C746 C 0.69682 0.68013 0.47767 0.0
C747 C 0.71906 0.72675 0.47056 0.0
C748 C 0.72115 0.66584 0.49014 0.0
C749 C 0.76761 0.69853 0.49636 0.0
C750 C 0.79103 0.74412 0.48791 0.0
C751 C 0.76699 0.75796 0.47501 0.0
H752 H 0.17951 0.90357 0.70281 0.0
H753 H 0.13282 0.75897 0.72007 0.0
H754 H 0.13821 0.87444 0.67187 0.0
H755 H 0.0906 0.73 0.69004 0.0
H756 H 0.01904 0.67627 0.63617 0.0
H757 H 0.08857 0.71974 0.6569 0.0
H758 H 0.05808 0.8348 0.66128 0.0
H759 H 0.99077 0.79234 0.63949 0.0
C760 C 0.16107 0.86573 0.69989 0.0
C761 C 0.15905 0.83358 0.71397 0.0
C762 C 0.13713 0.84895 0.68223 0.0
C763 C 0.11074 0.79973 0.67834 0.0
C764 C 0.11108 0.76812 0.69215 0.0
C765 C 0.13499 0.7848 0.70961 0.0
C766 C 0.0288 0.71184 0.64088 0.0
C767 C 0.00015 0.73132 0.63618 0.0
C768 C 0.06813 0.73654 0.65301 0.0
C769 C 0.07837 0.78035 0.66129 0.0
C770 C 0.05178 0.80144 0.65517 0.0
C771 C 0.01314 0.77718 0.64264 0.0
H772 H 0.25014 0.14289 0.87291 0.0
H773 H 0.39265 0.16822 0.88107 0.0
H774 H 0.24171 0.09587 0.84408 0.0
H775 H 0.38569 0.12393 0.8517 0.0
H776 H 0.32144 0.97309 0.8267 0.0
H777 H 0.34477 0.04191 0.84684 0.0
H778 H 0.25981 0.0819 0.81198 0.0
H779 H 0.2349 0.01095 0.79197 0.0
C780 C 0.28026 0.13986 0.86809 0.0
C781 C 0.32171 0.15836 0.87933 0.0
C782 C 0.27559 0.11306 0.85151 0.0
C783 C 0.31265 0.10506 0.84574 0.0
C784 C 0.35584 0.12798 0.85601 0.0
C785 C 0.36003 0.15367 0.87277 0.0
C786 C 0.30842 0.99701 0.82303 0.0
C787 C 0.27591 0.98623 0.80785 0.0
C788 C 0.32219 0.03698 0.83453 0.0
C789 C 0.30406 0.06766 0.83118 0.0
C790 C 0.27399 0.05872 0.81514 0.0
C791 C 0.26014 0.0184 0.80353 0.0
H792 H 0.60484 0.77814 0.78799 0.0
H793 H 0.74845 0.8937 0.79555 0.0
H794 H 0.61169 0.7407 0.81735 0.0
H795 H 0.75668 0.855 0.82438 0.0
H796 H 0.76365 0.77589 0.87602 0.0
H797 H 0.73868 0.8227 0.85657 0.0
H798 H 0.65228 0.6987 0.82143 0.0
H799 H 0.6758 0.65244 0.841 0.0
C800 C 0.63763 0.79591 0.79619 0.0
C801 C 0.67633 0.8384 0.78944 0.0
C802 C 0.64175 0.77434 0.81293 0.0
C803 C 0.6852 0.79403 0.82298 0.0
C804 C 0.72261 0.83878 0.8171 0.0
C805 C 0.71804 0.86097 0.80053 0.0
C806 C 0.7381 0.75847 0.86452 0.0
C807 C 0.722 0.71059 0.85994 0.0
C808 C 0.72419 0.78537 0.85324 0.0
C809 C 0.69371 0.76473 0.83729 0.0
C810 C 0.67521 0.71595 0.83369 0.0
C811 C 0.68908 0.68932 0.84486 0.0
H812 H 0.87 0.62846 0.94613 0.0
H813 H 0.81839 0.72179 0.96435 0.0
H814 H 0.91307 0.64266 0.97599 0.0
H815 H 0.86049 0.73477 0.99512 0.0
H816 H 0.00706 0.80319 0.02811 0.0
H817 H 0.94036 0.77726 0.00586 0.0
H818 H 0.91537 0.63341 0.009 0.0
H819 H 0.98432 0.66068 0.03015 0.0
C820 C 0.86694 0.65128 0.95676 0.0
C821 C 0.84118 0.67445 0.95273 0.0
C822 C 0.89137 0.65906 0.97412 0.0
C823 C 0.89049 0.68994 0.98816 0.0
C824 C 0.86254 0.71123 0.98458 0.0
C825 C 0.83813 0.70359 0.96701 0.0
C826 C 0.98609 0.76576 0.02451 0.0
C827 C 0.00045 0.73379 0.03077 0.0
C828 C 0.94779 0.75076 0.01175 0.0
C829 C 0.92287 0.70332 0.00521 0.0
C830 C 0.93454 0.6705 0.0132 0.0
C831 C 0.97356 0.6858 0.02554 0.0
H832 H 0.22172 0.83007 0.12034 0.0
H833 H 0.10599 0.85761 0.12856 0.0
H834 H 0.25958 0.8742 0.14968 0.0
H835 H 0.14513 0.90444 0.15736 0.0
H836 H 0.22452 0.98972 0.20911 0.0
H837 H 0.17764 0.91836 0.18944 0.0
H838 H 0.30157 0.9565 0.15417 0.0
H839 H 0.3479 0.02581 0.17397 0.0
C840 C 0.20405 0.84502 0.12866 0.0
C841 C 0.16135 0.84107 0.12211 0.0
C842 C 0.22586 0.87061 0.1454 0.0
C843 C 0.2062 0.89414 0.15565 0.0
C844 C 0.16133 0.88676 0.14994 0.0
C845 C 0.1389 0.86008 0.13337 0.0
C846 C 0.24191 0.98178 0.19753 0.0
C847 C 0.2898 0.01359 0.19298 0.0
C848 C 0.21496 0.94121 0.18612 0.0
C849 C 0.23555 0.93166 0.17006 0.0
C850 C 0.28434 0.96194 0.1665 0.0
C851 C 0.31102 0.00218 0.1778 0.0
H852 H 0.37248 0.24276 0.27973 0.0
H853 H 0.27888 0.0977 0.29771 0.0
H854 H 0.35806 0.27143 0.3096 0.0
H855 H 0.26569 0.1266 0.3285 0.0
H856 H 0.19694 0.20451 0.36145 0.0
H857 H 0.22311 0.16392 0.33921 0.0
H858 H 0.3669 0.28276 0.34262 0.0
H859 H 0.33941 0.32427 0.36377 0.0
C860 C 0.34956 0.21681 0.29031 0.0
C861 C 0.32637 0.16791 0.28621 0.0
C862 C 0.34165 0.23334 0.30768 0.0
C863 C 0.31061 0.20148 0.32165 0.0
C864 C 0.28934 0.15226 0.318 0.0
C865 C 0.29711 0.13563 0.30042 0.0
C866 C 0.23441 0.221 0.35791 0.0
C867 C 0.26631 0.26728 0.36425 0.0
C868 C 0.24954 0.1978 0.34515 0.0
C869 C 0.29705 0.22037 0.33869 0.0
C870 C 0.32977 0.26481 0.34676 0.0
C871 C 0.31434 0.28842 0.3591 0.0
H872 H 0.17021 0.39158 0.45431 0.0
H873 H 0.14124 0.24763 0.46178 0.0
H874 H 0.12568 0.38479 0.48359 0.0
H875 H 0.09396 0.23942 0.4905 0.0
H876 H 0.00751 0.23239 0.54204 0.0
H877 H 0.0793 0.2569 0.52262 0.0
H878 H 0.04347 0.34523 0.48786 0.0
H879 H 0.9738 0.32218 0.50743 0.0
C880 C 0.15485 0.35868 0.46245 0.0
C881 C 0.15855 0.31992 0.45571 0.0
C882 C 0.12901 0.3546 0.47916 0.0
C883 C 0.10495 0.3111 0.48917 0.0
C884 C 0.11204 0.27354 0.48327 0.0
C885 C 0.13898 0.27809 0.46675 0.0
C886 C 0.0161 0.25829 0.53065 0.0
C887 C 0.98485 0.27509 0.52616 0.0
C888 C 0.05689 0.27192 0.51937 0.0
C889 C 0.06721 0.3028 0.50351 0.0
C890 C 0.03747 0.32198 0.50004 0.0
C891 C 0.99703 0.30841 0.51121 0.0
H892 H 0.7918 0.99056 0.69495 0.0
H893 H 0.66976 0.00975 0.69558 0.0
H894 H 0.8319 0.05668 0.67238 0.0
H895 H 0.71068 0.0781 0.67409 0.0
H896 H 0.75255 0.12317 0.61138 0.0
H897 H 0.72345 0.07988 0.64118 0.0
H898 H 0.86795 0.13628 0.6613 0.0
H899 H 0.89737 0.17863 0.63059 0.0
C900 C 0.77464 0.01064 0.69096 0.0
C901 C 0.72792 0.99545 0.69694 0.0
C902 C 0.79755 0.04859 0.67801 0.0
C903 C 0.77424 0.07232 0.67099 0.0
C904 C 0.72924 0.05984 0.67866 0.0
C905 C 0.70595 0.02117 0.6912 0.0
C906 C 0.77832 0.127 0.62221 0.0
C907 C 0.82734 0.154 0.61849 0.0
C908 C 0.76152 0.10243 0.63953 0.0
C909 C 0.79319 0.10441 0.65385 0.0
C910 C 0.84244 0.1334 0.65054 0.0
C911 C 0.85936 0.15794 0.63301 0.0
loop_
_geom_bond_atom_site_label_1
_geom_bond_atom_site_label_2
_geom_bond_distance
_geom_bond_site_symmetry_2
_ccdc_geom_bond_type
Mn0 O5 2.095 . S
Mn0 O15 2.162 . S
Mn0 O16 2.297 . S
Mn0 O24 2.385 . S
Mn0 O25 2.209 . S
Mn0 O26 2.094 . S
Mn1 O6 2.121 . S
Mn1 N8 2.257 . S
Mn1 N17 2.282 . S
Mn1 O25 2.215 . S
Mn1 O27 2.117 . S
C2 O24 1.234 . S
C2 O25 1.283 . S
C3 O15 1.281 . S
C3 O16 1.236 . S
C4 O26 1.240 . S
C4 O27 1.264 . S
O5 Mn0 2.095 . S
O5 C14 1.250 . S
O6 Mn1 2.121 . S
O6 C14 1.258 . S
C7 N8 1.326 . S
C7 C11 1.460 . S
C7 H13 0.929 . S
N8 Mn1 2.257 . S
N8 C7 1.326 . S
N8 C12 1.362 . S
C9 C10 1.258 . S
C9 C12 1.431 . S
C9 C29 1.449 . S
C10 C9 1.258 . S
C10 C11 1.477 . S
C10 H30 0.931 . S
C11 C7 1.460 . S
C11 C10 1.477 . S
C11 H31 0.930 . S
C12 N8 1.362 . S
C12 C9 1.431 . S
C12 C22 1.476 . S
H13 C7 0.929 . S
C14 O5 1.250 . S
C14 O6 1.258 . S
O15 Mn0 2.162 . S
O15 C3 1.281 . S
O16 Mn0 2.297 . S
O16 C3 1.236 . S
N17 Mn1 2.282 . S
N17 C18 1.328 . S
N17 C22 1.318 . S
C18 N17 1.328 . S
C18 C19 1.457 . S
C18 H23 0.929 . S
C19 C18 1.457 . S
C19 C20 1.291 . S
C19 H32 0.931 . S
C20 C19 1.291 . S
C20 C21 1.373 . S
C20 H33 0.929 . S
C21 C20 1.373 . S
C21 C22 1.396 . S
C21 C28 1.403 . S
C22 C12 1.476 . S
C22 N17 1.318 . S
C22 C21 1.396 . S
H23 C18 0.929 . S
O24 Mn0 2.385 . S
O24 C2 1.234 . S
O25 Mn0 2.209 . S
O25 Mn1 2.215 . S
O25 C2 1.283 . S
O26 Mn0 2.094 . S
O26 C4 1.240 . S
O27 Mn1 2.117 . S
O27 C4 1.264 . S
C28 C21 1.403 . S
C28 C29 1.399 . S
C28 H34 0.929 . S
C29 C9 1.449 . S
C29 C28 1.399 . S
C29 H35 0.930 . S
H30 C10 0.931 . S
H31 C11 0.930 . S
H32 C19 0.931 . S
H33 C20 0.929 . S
H34 C28 0.929 . S
H35 C29 0.930 . S
Mn36 O41 2.095 . S
Mn36 O51 2.162 . S
Mn36 O52 2.297 . S
Mn36 O60 2.385 . S
Mn36 O61 2.209 . S
Mn36 O62 2.094 . S
Mn37 O42 2.121 . S
Mn37 N44 2.257 . S
Mn37 N53 2.282 . S
Mn37 O61 2.215 . S
Mn37 O63 2.117 . S
C38 O60 1.234 . S
C38 O61 1.283 . S
C39 O51 1.281 . S
C39 O52 1.236 . S
C40 O62 1.240 . S
C40 O63 1.264 . S
O41 Mn36 2.095 . S
O41 C50 1.250 . S
O42 Mn37 2.121 . S
O42 C50 1.258 . S
C43 N44 1.326 . S
C43 C47 1.460 . S
C43 H49 0.929 . S
N44 Mn37 2.257 . S
N44 C43 1.326 . S
N44 C48 1.362 . S
C45 C46 1.258 . S
C45 C48 1.431 . S
C45 C65 1.449 . S
C46 C45 1.258 . S
C46 C47 1.477 . S
C46 H66 0.931 . S
C47 C43 1.460 . S
C47 C46 1.477 . S
C47 H67 0.930 . S
C48 N44 1.362 . S
C48 C45 1.431 . S
C48 C58 1.476 . S
H49 C43 0.929 . S
C50 O41 1.250 . S
C50 O42 1.258 . S
O51 Mn36 2.162 . S
O51 C39 1.281 . S
O52 Mn36 2.297 . S
O52 C39 1.236 . S
N53 Mn37 2.282 . S
N53 C54 1.328 . S
N53 C58 1.318 . S
C54 N53 1.328 . S
C54 C55 1.457 . S
C54 H59 0.929 . S
C55 C54 1.457 . S
C55 C56 1.291 . S
C55 H68 0.931 . S
C56 C55 1.291 . S
C56 C57 1.373 . S
C56 H69 0.929 . S
C57 C56 1.373 . S
C57 C58 1.396 . S
C57 C64 1.403 . S
C58 C48 1.476 . S
C58 N53 1.318 . S
C58 C57 1.396 . S
H59 C54 0.929 . S
O60 Mn36 2.385 . S
O60 C38 1.234 . S
O61 Mn36 2.209 . S
O61 Mn37 2.215 . S
O61 C38 1.283 . S
O62 Mn36 2.094 . S
O62 C40 1.240 . S
O63 Mn37 2.117 . S
O63 C40 1.264 . S
C64 C57 1.403 . S
C64 C65 1.399 . S
C64 H70 0.929 . S
C65 C45 1.449 . S
C65 C64 1.399 . S
C65 H71 0.930 . S
H66 C46 0.931 . S
H67 C47 0.930 . S
H68 C55 0.931 . S
H69 C56 0.929 . S
H70 C64 0.929 . S
H71 C65 0.930 . S
Mn72 O77 2.095 . S
Mn72 O87 2.162 . S
Mn72 O88 2.297 . S
Mn72 O96 2.385 . S
Mn72 O97 2.209 . S
Mn72 O98 2.094 . S
Mn73 O78 2.121 . S
Mn73 N80 2.257 . S
Mn73 N89 2.282 . S
Mn73 O97 2.215 . S
Mn73 O99 2.117 . S
C74 O96 1.234 . S
C74 O97 1.283 . S
C75 O87 1.281 . S
C75 O88 1.236 . S
C76 O98 1.240 . S
C76 O99 1.264 . S
O77 Mn72 2.095 . S
O77 C86 1.250 . S
O78 Mn73 2.121 . S
O78 C86 1.258 . S
C79 N80 1.326 . S
C79 C83 1.460 . S
C79 H85 0.929 . S
N80 Mn73 2.257 . S
N80 C79 1.326 . S
N80 C84 1.362 . S
C81 C82 1.258 . S
C81 C84 1.431 . S
C81 C101 1.449 . S
C82 C81 1.258 . S
C82 C83 1.477 . S
C82 H102 0.931 . S
C83 C79 1.460 . S
C83 C82 1.477 . S
C83 H103 0.930 . S
C84 N80 1.362 . S
C84 C81 1.431 . S
C84 C94 1.476 . S
H85 C79 0.929 . S
C86 O77 1.250 . S
C86 O78 1.258 . S
O87 Mn72 2.162 . S
O87 C75 1.281 . S
O88 Mn72 2.297 . S
O88 C75 1.236 . S
N89 Mn73 2.282 . S
N89 C90 1.328 . S
N89 C94 1.318 . S
C90 N89 1.328 . S
C90 C91 1.457 . S
C90 H95 0.929 . S
C91 C90 1.457 . S
C91 C92 1.291 . S
C91 H104 0.931 . S
C92 C91 1.291 . S
C92 C93 1.373 . S
C92 H105 0.929 . S
C93 C92 1.373 . S
C93 C94 1.396 . S
C93 C100 1.403 . S
C94 C84 1.476 . S
C94 N89 1.318 . S
C94 C93 1.396 . S
H95 C90 0.929 . S
O96 Mn72 2.385 . S
O96 C74 1.234 . S
O97 Mn72 2.209 . S
O97 Mn73 2.215 . S
O97 C74 1.283 . S
O98 Mn72 2.094 . S
O98 C76 1.240 . S
O99 Mn73 2.117 . S
O99 C76 1.264 . S
C100 C93 1.403 . S
C100 C101 1.399 . S
C100 H106 0.929 . S
C101 C81 1.449 . S
C101 C100 1.399 . S
C101 H107 0.930 . S
H102 C82 0.931 . S
H103 C83 0.930 . S
H104 C91 0.931 . S
H105 C92 0.929 . S
H106 C100 0.929 . S
H107 C101 0.930 . S
Mn108 O113 2.095 . S
Mn108 O123 2.162 . S
Mn108 O124 2.297 . S
Mn108 O132 2.385 . S
Mn108 O133 2.209 . S
Mn108 O134 2.094 . S
Mn109 O114 2.121 . S
Mn109 N116 2.257 . S
Mn109 N125 2.282 . S
Mn109 O133 2.215 . S
Mn109 O135 2.117 . S
C110 O132 1.234 . S
C110 O133 1.283 . S
C111 O123 1.281 . S
C111 O124 1.236 . S
C112 O134 1.240 . S
C112 O135 1.264 . S
O113 Mn108 2.095 . S
O113 C122 1.250 . S
O114 Mn109 2.121 . S
O114 C122 1.258 . S
C115 N116 1.326 . S
C115 C119 1.460 . S
C115 H121 0.929 . S
N116 Mn109 2.257 . S
N116 C115 1.326 . S
N116 C120 1.362 . S
C117 C118 1.258 . S
C117 C120 1.431 . S
C117 C137 1.449 . S
C118 C117 1.258 . S
C118 C119 1.477 . S
C118 H138 0.931 . S
C119 C115 1.460 . S
C119 C118 1.477 . S
C119 H139 0.930 . S
C120 N116 1.362 . S
C120 C117 1.431 . S
C120 C130 1.476 . S
H121 C115 0.929 . S
C122 O113 1.250 . S
C122 O114 1.258 . S
O123 Mn108 2.162 . S
O123 C111 1.281 . S
O124 Mn108 2.297 . S
O124 C111 1.236 . S
N125 Mn109 2.282 . S
N125 C126 1.328 . S
N125 C130 1.318 . S
C126 N125 1.328 . S
C126 C127 1.457 . S
C126 H131 0.929 . S
C127 C126 1.457 . S
C127 C128 1.291 . S
C127 H140 0.931 . S
C128 C127 1.291 . S
C128 C129 1.373 . S
C128 H141 0.929 . S
C129 C128 1.373 . S
C129 C130 1.396 . S
C129 C136 1.403 . S
C130 C120 1.476 . S
C130 N125 1.318 . S
C130 C129 1.396 . S
H131 C126 0.929 . S
O132 Mn108 2.385 . S
O132 C110 1.234 . S
O133 Mn108 2.209 . S
O133 Mn109 2.215 . S
O133 C110 1.283 . S
O134 Mn108 2.094 . S
O134 C112 1.240 . S
O135 Mn109 2.117 . S
O135 C112 1.264 . S
C136 C129 1.403 . S
C136 C137 1.399 . S
C136 H142 0.929 . S
C137 C117 1.449 . S
C137 C136 1.399 . S
C137 H143 0.930 . S
H138 C118 0.931 . S
H139 C119 0.930 . S
H140 C127 0.931 . S
H141 C128 0.929 . S
H142 C136 0.929 . S
H143 C137 0.930 . S
Mn144 O149 2.095 . S
Mn144 O159 2.162 . S
Mn144 O160 2.297 . S
Mn144 O168 2.385 . S
Mn144 O169 2.209 . S
Mn144 O170 2.094 . S
Mn145 O150 2.121 . S
Mn145 N152 2.257 . S
Mn145 N161 2.282 . S
Mn145 O169 2.215 . S
Mn145 O171 2.117 . S
C146 O168 1.234 . S
C146 O169 1.283 . S
C147 O159 1.281 . S
C147 O160 1.236 . S
C148 O170 1.240 . S
C148 O171 1.264 . S
O149 Mn144 2.095 . S
O149 C158 1.250 . S
O150 Mn145 2.121 . S
O150 C158 1.258 . S
C151 N152 1.326 . S
C151 C155 1.460 . S
C151 H157 0.929 . S
N152 Mn145 2.257 . S
N152 C151 1.326 . S
N152 C156 1.362 . S
C153 C154 1.258 . S
C153 C156 1.431 . S
C153 C173 1.449 . S
C154 C153 1.258 . S
C154 C155 1.477 . S
C154 H174 0.931 . S
C155 C151 1.460 . S
C155 C154 1.477 . S
C155 H175 0.930 . S
C156 N152 1.362 . S
C156 C153 1.431 . S
C156 C166 1.476 . S
H157 C151 0.929 . S
C158 O149 1.250 . S
C158 O150 1.258 . S
O159 Mn144 2.162 . S
O159 C147 1.281 . S
O160 Mn144 2.297 . S
O160 C147 1.236 . S
N161 Mn145 2.282 . S
N161 C162 1.328 . S
N161 C166 1.318 . S
C162 N161 1.328 . S
C162 C163 1.457 . S
C162 H167 0.929 . S
C163 C162 1.457 . S
C163 C164 1.291 . S
C163 H176 0.931 . S
C164 C163 1.291 . S
C164 C165 1.373 . S
C164 H177 0.929 . S
C165 C164 1.373 . S
C165 C166 1.396 . S
C165 C172 1.403 . S
C166 C156 1.476 . S
C166 N161 1.318 . S
C166 C165 1.396 . S
H167 C162 0.929 . S
O168 Mn144 2.385 . S
O168 C146 1.234 . S
O169 Mn144 2.209 . S
O169 Mn145 2.215 . S
O169 C146 1.283 . S
O170 Mn144 2.094 . S
O170 C148 1.240 . S
O171 Mn145 2.117 . S
O171 C148 1.264 . S
C172 C165 1.403 . S
C172 C173 1.399 . S
C172 H178 0.929 . S
C173 C153 1.449 . S
C173 C172 1.399 . S
C173 H179 0.930 . S
H174 C154 0.931 . S
H175 C155 0.930 . S
H176 C163 0.931 . S
H177 C164 0.929 . S
H178 C172 0.929 . S
H179 C173 0.930 . S
Mn180 O185 2.095 . S
Mn180 O195 2.162 . S
Mn180 O196 2.297 . S
Mn180 O204 2.385 . S
Mn180 O205 2.209 . S
Mn180 O206 2.094 . S
Mn181 O186 2.121 . S
Mn181 N188 2.257 . S
Mn181 N197 2.282 1_556 S
Mn181 O205 2.215 . S
Mn181 O207 2.117 . S
C182 O204 1.234 . S
C182 O205 1.283 . S
C183 O195 1.281 . S
C183 O196 1.236 . S
C184 O206 1.240 . S
C184 O207 1.264 . S
O185 Mn180 2.095 . S
O185 C194 1.250 . S
O186 Mn181 2.121 . S
O186 C194 1.258 . S
C187 N188 1.326 . S
C187 C191 1.460 . S
C187 H193 0.929 . S
N188 Mn181 2.257 . S
N188 C187 1.326 . S
N188 C192 1.362 1_556 S
C189 C190 1.258 . S
C189 C192 1.431 . S
C189 C209 1.449 . S
C190 C189 1.258 . S
C190 C191 1.477 1_554 S
C190 H210 0.931 . S
C191 C187 1.460 . S
C191 C190 1.477 1_556 S
C191 H211 0.930 . S
C192 N188 1.362 1_554 S
C192 C189 1.431 . S
C192 C202 1.476 . S
H193 C187 0.929 . S
C194 O185 1.250 . S
C194 O186 1.258 . S
O195 Mn180 2.162 . S
O195 C183 1.281 . S
O196 Mn180 2.297 . S
O196 C183 1.236 . S
N197 Mn181 2.282 1_554 S
N197 C198 1.328 . S
N197 C202 1.318 . S
C198 N197 1.328 . S
C198 C199 1.457 . S
C198 H203 0.929 . S
C199 C198 1.457 . S
C199 C200 1.291 . S
C199 H212 0.931 . S
C200 C199 1.291 . S
C200 C201 1.373 . S
C200 H213 0.929 . S
C201 C200 1.373 . S
C201 C202 1.396 . S
C201 C208 1.403 . S
C202 C192 1.476 . S
C202 N197 1.318 . S
C202 C201 1.396 . S
H203 C198 0.929 . S
O204 Mn180 2.385 . S
O204 C182 1.234 . S
O205 Mn180 2.209 . S
O205 Mn181 2.215 . S
O205 C182 1.283 . S
O206 Mn180 2.094 . S
O206 C184 1.240 . S
O207 Mn181 2.117 . S
O207 C184 1.264 . S
C208 C201 1.403 . S
C208 C209 1.399 . S
C208 H214 0.929 . S
C209 C189 1.449 . S
C209 C208 1.399 . S
C209 H215 0.930 . S
H210 C190 0.931 . S
H211 C191 0.930 . S
H212 C199 0.931 . S
H213 C200 0.929 . S
H214 C208 0.929 . S
H215 C209 0.930 . S
Mn216 O221 2.095 . S
Mn216 O231 2.162 . S
Mn216 O232 2.297 . S
Mn216 O240 2.385 . S
Mn216 O241 2.209 . S
Mn216 O242 2.094 . S
Mn217 O222 2.121 . S
Mn217 N224 2.257 . S
Mn217 N233 2.282 . S
Mn217 O241 2.215 . S
Mn217 O243 2.117 . S
C218 O240 1.234 . S
C218 O241 1.283 . S
C219 O231 1.281 . S
C219 O232 1.236 . S
C220 O242 1.240 . S
C220 O243 1.264 . S
O221 Mn216 2.095 . S
O221 C230 1.250 . S
O222 Mn217 2.121 . S
O222 C230 1.258 . S
C223 N224 1.326 . S
C223 C227 1.460 . S
C223 H229 0.929 . S
N224 Mn217 2.257 . S
N224 C223 1.326 . S
N224 C228 1.362 . S
C225 C226 1.258 . S
C225 C228 1.431 . S
C225 C245 1.449 . S
C226 C225 1.258 . S
C226 C227 1.477 . S
C226 H246 0.931 . S
C227 C223 1.460 . S
C227 C226 1.477 . S
C227 H247 0.930 . S
C228 N224 1.362 . S
C228 C225 1.431 . S
C228 C238 1.476 . S
H229 C223 0.929 . S
C230 O221 1.250 . S
C230 O222 1.258 . S
O231 Mn216 2.162 . S
O231 C219 1.281 . S
O232 Mn216 2.297 . S
O232 C219 1.236 . S
N233 Mn217 2.282 . S
N233 C234 1.328 . S
N233 C238 1.318 . S
C234 N233 1.328 . S
C234 C235 1.457 . S
C234 H239 0.929 . S
C235 C234 1.457 . S
C235 C236 1.291 . S
C235 H248 0.931 . S
C236 C235 1.291 . S
C236 C237 1.373 . S
C236 H249 0.929 . S
C237 C236 1.373 . S
C237 C238 1.396 . S
C237 C244 1.403 . S
C238 C228 1.476 . S
C238 N233 1.318 . S
C238 C237 1.396 . S
H239 C234 0.929 . S
O240 Mn216 2.385 . S
O240 C218 1.234 . S
O241 Mn216 2.209 . S
O241 Mn217 2.215 . S
O241 C218 1.283 . S
O242 Mn216 2.094 . S
O242 C220 1.240 . S
O243 Mn217 2.117 . S
O243 C220 1.264 . S
C244 C237 1.403 . S
C244 C245 1.399 . S
C244 H250 0.929 . S
C245 C225 1.449 . S
C245 C244 1.399 . S
C245 H251 0.930 . S
H246 C226 0.931 . S
H247 C227 0.930 . S
H248 C235 0.931 . S
H249 C236 0.929 . S
H250 C244 0.929 . S
H251 C245 0.930 . S
Mn252 O257 2.095 . S
Mn252 O267 2.162 . S
Mn252 O268 2.297 . S
Mn252 O276 2.385 . S
Mn252 O277 2.209 . S
Mn252 O278 2.094 . S
Mn253 O258 2.121 . S
Mn253 N260 2.257 . S
Mn253 N269 2.282 . S
Mn253 O277 2.215 . S
Mn253 O279 2.117 . S
C254 O276 1.234 . S
C254 O277 1.283 . S
C255 O267 1.281 . S
C255 O268 1.236 . S
C256 O278 1.240 . S
C256 O279 1.264 . S
O257 Mn252 2.095 . S
O257 C266 1.250 . S
O258 Mn253 2.121 . S
O258 C266 1.258 . S
C259 N260 1.326 . S
C259 C263 1.460 . S
C259 H265 0.929 . S
N260 Mn253 2.257 . S
N260 C259 1.326 . S
N260 C264 1.362 . S
C261 C262 1.258 . S
C261 C264 1.431 . S
C261 C281 1.449 . S
C262 C261 1.258 . S
C262 C263 1.477 . S
C262 H282 0.931 . S
C263 C259 1.460 . S
C263 C262 1.477 . S
C263 H283 0.930 . S
C264 N260 1.362 . S
C264 C261 1.431 . S
C264 C274 1.476 . S
H265 C259 0.929 . S
C266 O257 1.250 . S
C266 O258 1.258 . S
O267 Mn252 2.162 . S
O267 C255 1.281 . S
O268 Mn252 2.297 . S
O268 C255 1.236 . S
N269 Mn253 2.282 . S
N269 C270 1.328 . S
N269 C274 1.318 . S
C270 N269 1.328 . S
C270 C271 1.457 . S
C270 H275 0.929 . S
C271 C270 1.457 . S
C271 C272 1.291 . S
C271 H284 0.931 . S
C272 C271 1.291 . S
C272 C273 1.373 . S
C272 H285 0.929 . S
C273 C272 1.373 . S
C273 C274 1.396 . S
C273 C280 1.403 . S
C274 C264 1.476 . S
C274 N269 1.318 . S
C274 C273 1.396 . S
H275 C270 0.929 . S
O276 Mn252 2.385 . S
O276 C254 1.234 . S
O277 Mn252 2.209 . S
O277 Mn253 2.215 . S
O277 C254 1.283 . S
O278 Mn252 2.094 . S
O278 C256 1.240 . S
O279 Mn253 2.117 . S
O279 C256 1.264 . S
C280 C273 1.403 . S
C280 C281 1.399 . S
C280 H286 0.929 . S
C281 C261 1.449 . S
C281 C280 1.399 . S
C281 H287 0.930 . S
H282 C262 0.931 . S
H283 C263 0.930 . S
H284 C271 0.931 . S
H285 C272 0.929 . S
H286 C280 0.929 . S
H287 C281 0.930 . S
Mn288 O293 2.095 . S
Mn288 O303 2.162 . S
Mn288 O304 2.297 . S
Mn288 O312 2.385 . S
Mn288 O313 2.209 . S
Mn288 O314 2.094 . S
Mn289 O294 2.121 . S
Mn289 N296 2.257 . S
Mn289 N305 2.282 1_554 S
Mn289 O313 2.215 . S
Mn289 O315 2.117 . S
C290 O312 1.234 . S
C290 O313 1.283 . S
C291 O303 1.281 . S
C291 O304 1.236 . S
C292 O314 1.240 . S
C292 O315 1.264 . S
O293 Mn288 2.095 . S
O293 C302 1.250 . S
O294 Mn289 2.121 . S
O294 C302 1.258 . S
C295 N296 1.326 . S
C295 C299 1.460 . S
C295 H301 0.929 . S
N296 Mn289 2.257 . S
N296 C295 1.326 . S
N296 C300 1.362 1_554 S
C297 C298 1.258 . S
C297 C300 1.431 . S
C297 C317 1.449 . S
C298 C297 1.258 . S
C298 C299 1.477 1_556 S
C298 H318 0.931 . S
C299 C295 1.460 . S
C299 C298 1.477 1_554 S
C299 H319 0.930 . S
C300 N296 1.362 1_556 S
C300 C297 1.431 . S
C300 C310 1.476 . S
H301 C295 0.929 . S
C302 O293 1.250 . S
C302 O294 1.258 . S
O303 Mn288 2.162 . S
O303 C291 1.281 . S
O304 Mn288 2.297 . S
O304 C291 1.236 . S
N305 Mn289 2.282 1_556 S
N305 C306 1.328 . S
N305 C310 1.318 . S
C306 N305 1.328 . S
C306 C307 1.457 . S
C306 H311 0.929 . S
C307 C306 1.457 . S
C307 C308 1.291 . S
C307 H320 0.931 . S
C308 C307 1.291 . S
C308 C309 1.373 . S
C308 H321 0.929 . S
C309 C308 1.373 . S
C309 C310 1.396 . S
C309 C316 1.403 . S
C310 C300 1.476 . S
C310 N305 1.318 . S
C310 C309 1.396 . S
H311 C306 0.929 . S
O312 Mn288 2.385 . S
O312 C290 1.234 . S
O313 Mn288 2.209 . S
O313 Mn289 2.215 . S
O313 C290 1.283 . S
O314 Mn288 2.094 . S
O314 C292 1.240 . S
O315 Mn289 2.117 . S
O315 C292 1.264 . S
C316 C309 1.403 . S
C316 C317 1.399 . S
C316 H322 0.929 . S
C317 C297 1.449 . S
C317 C316 1.399 . S
C317 H323 0.930 . S
H318 C298 0.931 . S
H319 C299 0.930 . S
H320 C307 0.931 . S
H321 C308 0.929 . S
H322 C316 0.929 . S
H323 C317 0.930 . S
Mn324 O329 2.095 . S
Mn324 O339 2.162 . S
Mn324 O340 2.297 . S
Mn324 O348 2.385 . S
Mn324 O349 2.209 . S
Mn324 O350 2.094 . S
Mn325 O330 2.121 . S
Mn325 N332 2.257 . S
Mn325 N341 2.282 . S
Mn325 O349 2.215 . S
Mn325 O351 2.117 . S
C326 O348 1.234 . S
C326 O349 1.283 . S
C327 O339 1.281 . S
C327 O340 1.236 . S
C328 O350 1.240 . S
C328 O351 1.264 . S
O329 Mn324 2.095 . S
O329 C338 1.250 . S
O330 Mn325 2.121 . S
O330 C338 1.258 . S
C331 N332 1.326 . S
C331 C335 1.460 . S
C331 H337 0.929 . S
N332 Mn325 2.257 . S
N332 C331 1.326 . S
N332 C336 1.362 . S
C333 C334 1.258 . S
C333 C336 1.431 . S
C333 C353 1.449 . S
C334 C333 1.258 . S
C334 C335 1.477 . S
C334 H354 0.931 . S
C335 C331 1.460 . S
C335 C334 1.477 . S
C335 H355 0.930 . S
C336 N332 1.362 . S
C336 C333 1.431 . S
C336 C346 1.476 . S
H337 C331 0.929 . S
C338 O329 1.250 . S
C338 O330 1.258 . S
O339 Mn324 2.162 . S
O339 C327 1.281 . S
O340 Mn324 2.297 . S
O340 C327 1.236 . S
N341 Mn325 2.282 . S
N341 C342 1.328 . S
N341 C346 1.318 . S
C342 N341 1.328 . S
C342 C343 1.457 . S
C342 H347 0.929 . S
C343 C342 1.457 . S
C343 C344 1.291 . S
C343 H356 0.931 . S
C344 C343 1.291 . S
C344 C345 1.373 . S
C344 H357 0.929 . S
C345 C344 1.373 . S
C345 C346 1.396 . S
C345 C352 1.403 . S
C346 C336 1.476 . S
C346 N341 1.318 . S
C346 C345 1.396 . S
H347 C342 0.929 . S
O348 Mn324 2.385 . S
O348 C326 1.234 . S
O349 Mn324 2.209 . S
O349 Mn325 2.215 . S
O349 C326 1.283 . S
O350 Mn324 2.094 . S
O350 C328 1.240 . S
O351 Mn325 2.117 . S
O351 C328 1.264 . S
C352 C345 1.403 . S
C352 C353 1.399 . S
C352 H358 0.929 . S
C353 C333 1.449 . S
C353 C352 1.399 . S
C353 H359 0.930 . S
H354 C334 0.931 . S
H355 C335 0.930 . S
H356 C343 0.931 . S
H357 C344 0.929 . S
H358 C352 0.929 . S
H359 C353 0.930 . S
Mn360 O365 2.095 . S
Mn360 O375 2.162 . S
Mn360 O376 2.297 . S
Mn360 O384 2.385 . S
Mn360 O385 2.209 . S
Mn360 O386 2.094 . S
Mn361 O366 2.121 . S
Mn361 N368 2.257 . S
Mn361 N377 2.282 . S
Mn361 O385 2.215 . S
Mn361 O387 2.117 . S
C362 O384 1.234 . S
C362 O385 1.283 . S
C363 O375 1.281 . S
C363 O376 1.236 . S
C364 O386 1.240 . S
C364 O387 1.264 . S
O365 Mn360 2.095 . S
O365 C374 1.250 . S
O366 Mn361 2.121 . S
O366 C374 1.258 . S
C367 N368 1.326 . S
C367 C371 1.460 . S
C367 H373 0.929 . S
N368 Mn361 2.257 . S
N368 C367 1.326 . S
N368 C372 1.362 . S
C369 C370 1.258 . S
C369 C372 1.431 . S
C369 C389 1.449 . S
C370 C369 1.258 . S
C370 C371 1.477 . S
C370 H390 0.931 . S
C371 C367 1.460 . S
C371 C370 1.477 . S
C371 H391 0.930 . S
C372 N368 1.362 . S
C372 C369 1.431 . S
C372 C382 1.476 . S
H373 C367 0.929 . S
C374 O365 1.250 . S
C374 O366 1.258 . S
O375 Mn360 2.162 . S
O375 C363 1.281 . S
O376 Mn360 2.297 . S
O376 C363 1.236 . S
N377 Mn361 2.282 . S
N377 C378 1.328 . S
N377 C382 1.318 . S
C378 N377 1.328 . S
C378 C379 1.457 . S
C378 H383 0.929 . S
C379 C378 1.457 . S
C379 C380 1.291 . S
C379 H392 0.931 . S
C380 C379 1.291 . S
C380 C381 1.373 . S
C380 H393 0.929 . S
C381 C380 1.373 . S
C381 C382 1.396 . S
C381 C388 1.403 . S
C382 C372 1.476 . S
C382 N377 1.318 . S
C382 C381 1.396 . S
H383 C378 0.929 . S
O384 Mn360 2.385 . S
O384 C362 1.234 . S
O385 Mn360 2.209 . S
O385 Mn361 2.215 . S
O385 C362 1.283 . S
O386 Mn360 2.094 . S
O386 C364 1.240 . S
O387 Mn361 2.117 . S
O387 C364 1.264 . S
C388 C381 1.403 . S
C388 C389 1.399 . S
C388 H394 0.929 . S
C389 C369 1.449 . S
C389 C388 1.399 . S
C389 H395 0.930 . S
H390 C370 0.931 . S
H391 C371 0.930 . S
H392 C379 0.931 . S
H393 C380 0.929 . S
H394 C388 0.929 . S
H395 C389 0.930 . S
Mn396 O401 2.095 . S
Mn396 O411 2.162 . S
Mn396 O412 2.297 . S
Mn396 O420 2.385 . S
Mn396 O421 2.209 . S
Mn396 O422 2.094 . S
Mn397 O402 2.121 . S
Mn397 N404 2.257 . S
Mn397 N413 2.282 . S
Mn397 O421 2.215 . S
Mn397 O423 2.117 . S
C398 O420 1.234 . S
C398 O421 1.283 . S
C399 O411 1.281 . S
C399 O412 1.236 . S
C400 O422 1.240 . S
C400 O423 1.264 . S
O401 Mn396 2.095 . S
O401 C410 1.250 . S
O402 Mn397 2.121 . S
O402 C410 1.258 . S
C403 N404 1.326 . S
C403 C407 1.460 . S
C403 H409 0.929 . S
N404 Mn397 2.257 . S
N404 C403 1.326 . S
N404 C408 1.362 . S
C405 C406 1.258 . S
C405 C408 1.431 . S
C405 C425 1.449 . S
C406 C405 1.258 . S
C406 C407 1.477 . S
C406 H426 0.931 . S
C407 C403 1.460 . S
C407 C406 1.477 . S
C407 H427 0.930 . S
C408 N404 1.362 . S
C408 C405 1.431 . S
C408 C418 1.476 . S
H409 C403 0.929 . S
C410 O401 1.250 . S
C410 O402 1.258 . S
O411 Mn396 2.162 . S
O411 C399 1.281 . S
O412 Mn396 2.297 . S
O412 C399 1.236 . S
N413 Mn397 2.282 . S
N413 C414 1.328 . S
N413 C418 1.318 . S
C414 N413 1.328 . S
C414 C415 1.457 . S
C414 H419 0.929 . S
C415 C414 1.457 . S
C415 C416 1.291 . S
C415 H428 0.931 . S
C416 C415 1.291 . S
C416 C417 1.373 . S
C416 H429 0.929 . S
C417 C416 1.373 . S
C417 C418 1.396 . S
C417 C424 1.403 . S
C418 C408 1.476 . S
C418 N413 1.318 . S
C418 C417 1.396 . S
H419 C414 0.929 . S
O420 Mn396 2.385 . S
O420 C398 1.234 . S
O421 Mn396 2.209 . S
O421 Mn397 2.215 . S
O421 C398 1.283 . S
O422 Mn396 2.094 . S
O422 C400 1.240 . S
O423 Mn397 2.117 . S
O423 C400 1.264 . S
C424 C417 1.403 . S
C424 C425 1.399 . S
C424 H430 0.929 . S
C425 C405 1.449 . S
C425 C424 1.399 . S
C425 H431 0.930 . S
H426 C406 0.931 . S
H427 C407 0.930 . S
H428 C415 0.931 . S
H429 C416 0.929 . S
H430 C424 0.929 . S
H431 C425 0.930 . S
H432 C440 0.950 . S
H433 C445 0.950 . S
H434 C442 0.950 . S
H435 C444 0.950 . S
H436 C446 0.950 . S
H437 C448 0.950 . S
H438 C450 0.950 . S
H439 C451 0.950 . S
C440 H432 0.950 . S
C440 C441 1.386 . S
C440 C442 1.391 . S
C441 C440 1.386 . S
C441 C445 1.393 . S
C442 H434 0.950 . S
C442 C440 1.391 . S
C442 C443 1.400 . S
C443 C442 1.400 . S
C443 C444 1.398 . S
C443 C449 1.491 . S
C444 H435 0.950 . S
C444 C443 1.398 . S
C444 C445 1.391 . S
C445 H433 0.950 . S
C445 C441 1.393 . S
C445 C444 1.391 . S
C446 H436 0.950 . S
C446 C447 1.386 . S
C446 C448 1.391 . S
C447 C446 1.386 . S
C447 C451 1.393 . S
C448 H437 0.950 . S
C448 C446 1.391 . S
C448 C449 1.400 . S
C449 C443 1.491 . S
C449 C448 1.400 . S
C449 C450 1.398 . S
C450 H438 0.950 . S
C450 C449 1.398 . S
C450 C451 1.391 . S
C451 H439 0.950 . S
C451 C447 1.393 . S
C451 C450 1.391 . S
H452 C460 0.950 . S
H453 C465 0.950 . S
H454 C462 0.950 . S
H455 C464 0.950 . S
H456 C466 0.950 . S
H457 C468 0.950 . S
H458 C470 0.950 . S
H459 C471 0.950 . S
C460 H452 0.950 . S
C460 C461 1.386 . S
C460 C462 1.391 . S
C461 C460 1.386 . S
C461 C465 1.393 . S
C462 H454 0.950 . S
C462 C460 1.391 . S
C462 C463 1.400 . S
C463 C462 1.400 . S
C463 C464 1.398 . S
C463 C469 1.491 . S
C464 H455 0.950 . S
C464 C463 1.398 . S
C464 C465 1.391 . S
C465 H453 0.950 . S
C465 C461 1.393 . S
C465 C464 1.391 . S
C466 H456 0.950 . S
C466 C467 1.386 . S
C466 C468 1.391 . S
C467 C466 1.386 . S
C467 C471 1.393 . S
C468 H457 0.950 . S
C468 C466 1.391 . S
C468 C469 1.400 . S
C469 C463 1.491 . S
C469 C468 1.400 . S
C469 C470 1.398 . S
C470 H458 0.950 . S
C470 C469 1.398 . S
C470 C471 1.391 . S
C471 H459 0.950 . S
C471 C467 1.393 . S
C471 C470 1.391 . S
H472 C480 0.950 . S
H473 C485 0.950 . S
H474 C482 0.950 . S
H475 C484 0.950 . S
H476 C486 0.950 . S
H477 C488 0.950 . S
H478 C490 0.950 . S
H479 C491 0.950 . S
C480 H472 0.950 . S
C480 C481 1.386 . S
C480 C482 1.391 . S
C481 C480 1.386 . S
C481 C485 1.393 . S
C482 H474 0.950 . S
C482 C480 1.391 . S
C482 C483 1.400 . S
C483 C482 1.400 . S
C483 C484 1.398 . S
C483 C489 1.491 . S
C484 H475 0.950 . S
C484 C483 1.398 . S
C484 C485 1.391 . S
C485 H473 0.950 . S
C485 C481 1.393 . S
C485 C484 1.391 . S
C486 H476 0.950 . S
C486 C487 1.386 . S
C486 C488 1.391 . S
C487 C486 1.386 . S
C487 C491 1.393 . S
C488 H477 0.950 . S
C488 C486 1.391 . S
C488 C489 1.400 . S
C489 C483 1.491 . S
C489 C488 1.400 . S
C489 C490 1.398 . S
C490 H478 0.950 . S
C490 C489 1.398 . S
C490 C491 1.391 . S
C491 H479 0.950 . S
C491 C487 1.393 . S
C491 C490 1.391 . S
H492 C500 0.950 . S
H493 C505 0.950 . S
H494 C502 0.950 . S
H495 C504 0.950 . S
H496 C506 0.950 . S
H497 C508 0.950 . S
H498 C510 0.950 . S
H499 C511 0.950 . S
C500 H492 0.950 . S
C500 C501 1.386 . S
C500 C502 1.391 . S
C501 C500 1.386 . S
C501 C505 1.393 . S
C502 H494 0.950 . S
C502 C500 1.391 . S
C502 C503 1.400 . S
C503 C502 1.400 . S
C503 C504 1.398 . S
C503 C509 1.491 . S
C504 H495 0.950 . S
C504 C503 1.398 . S
C504 C505 1.391 . S
C505 H493 0.950 . S
C505 C501 1.393 . S
C505 C504 1.391 . S
C506 H496 0.950 . S
C506 C507 1.386 . S
C506 C508 1.391 . S
C507 C506 1.386 . S
C507 C511 1.393 . S
C508 H497 0.950 . S
C508 C506 1.391 . S
C508 C509 1.400 . S
C509 C503 1.491 . S
C509 C508 1.400 . S
C509 C510 1.398 . S
C510 H498 0.950 . S
C510 C509 1.398 . S
C510 C511 1.391 . S
C511 H499 0.950 . S
C511 C507 1.393 . S
C511 C510 1.391 . S
H512 C520 0.950 . S
H513 C525 0.950 . S
H514 C522 0.950 . S
H515 C524 0.950 . S
H516 C526 0.950 . S
H517 C528 0.950 . S
H518 C530 0.950 . S
H519 C531 0.950 . S
C520 H512 0.950 . S
C520 C521 1.386 . S
C520 C522 1.391 . S
C521 C520 1.386 . S
C521 C525 1.393 . S
C522 H514 0.950 . S
C522 C520 1.391 . S
C522 C523 1.400 . S
C523 C522 1.400 . S
C523 C524 1.398 . S
C523 C529 1.491 . S
C524 H515 0.950 . S
C524 C523 1.398 . S
C524 C525 1.391 . S
C525 H513 0.950 . S
C525 C521 1.393 . S
C525 C524 1.391 . S
C526 H516 0.950 . S
C526 C527 1.386 . S
C526 C528 1.391 . S
C527 C526 1.386 . S
C527 C531 1.393 . S
C528 H517 0.950 . S
C528 C526 1.391 . S
C528 C529 1.400 . S
C529 C523 1.491 . S
C529 C528 1.400 . S
C529 C530 1.398 . S
C530 H518 0.950 . S
C530 C529 1.398 . S
C530 C531 1.391 . S
C531 H519 0.950 . S
C531 C527 1.393 . S
C531 C530 1.391 . S
H532 C540 0.950 . S
H533 C545 0.950 . S
H534 C542 0.950 . S
H535 C544 0.950 . S
H536 C546 0.950 . S
H537 C548 0.950 . S
H538 C550 0.950 . S
H539 C551 0.950 . S
C540 H532 0.950 . S
C540 C541 1.386 . S
C540 C542 1.391 . S
C541 C540 1.386 . S
C541 C545 1.393 . S
C542 H534 0.950 . S
C542 C540 1.391 . S
C542 C543 1.400 . S
C543 C542 1.400 . S
C543 C544 1.398 . S
C543 C549 1.491 . S
C544 H535 0.950 . S
C544 C543 1.398 . S
C544 C545 1.391 . S
C545 H533 0.950 . S
C545 C541 1.393 . S
C545 C544 1.391 . S
C546 H536 0.950 . S
C546 C547 1.386 . S
C546 C548 1.391 . S
C547 C546 1.386 . S
C547 C551 1.393 . S
C548 H537 0.950 . S
C548 C546 1.391 . S
C548 C549 1.400 . S
C549 C543 1.491 . S
C549 C548 1.400 . S
C549 C550 1.398 . S
C550 H538 0.950 . S
C550 C549 1.398 . S
C550 C551 1.391 . S
C551 H539 0.950 . S
C551 C547 1.393 . S
C551 C550 1.391 . S
H552 C560 0.950 . S
H553 C565 0.950 . S
H554 C562 0.950 . S
H555 C564 0.950 . S
H556 C566 0.950 . S
H557 C568 0.950 . S
H558 C570 0.950 . S
H559 C571 0.950 . S
C560 H552 0.950 . S
C560 C561 1.386 . S
C560 C562 1.391 . S
C561 C560 1.386 . S
C561 C565 1.393 . S
C562 H554 0.950 . S
C562 C560 1.391 . S
C562 C563 1.400 . S
C563 C562 1.400 . S
C563 C564 1.398 . S
C563 C569 1.491 . S
C564 H555 0.950 . S
C564 C563 1.398 . S
C564 C565 1.391 . S
C565 H553 0.950 . S
C565 C561 1.393 . S
C565 C564 1.391 . S
C566 H556 0.950 . S
C566 C567 1.386 . S
C566 C568 1.391 . S
C567 C566 1.386 . S
C567 C571 1.393 . S
C568 H557 0.950 . S
C568 C566 1.391 . S
C568 C569 1.400 . S
C569 C563 1.491 . S
C569 C568 1.400 . S
C569 C570 1.398 . S
C570 H558 0.950 . S
C570 C569 1.398 . S
C570 C571 1.391 . S
C571 H559 0.950 . S
C571 C567 1.393 . S
C571 C570 1.391 . S
H572 C580 0.950 . S
H573 C585 0.950 . S
H574 C582 0.950 . S
H575 C584 0.950 . S
H576 C586 0.950 . S
H577 C588 0.950 . S
H578 C590 0.950 . S
H579 C591 0.950 . S
C580 H572 0.950 . S
C580 C581 1.386 . S
C580 C582 1.391 . S
C581 C580 1.386 . S
C581 C585 1.393 . S
C582 H574 0.950 . S
C582 C580 1.391 . S
C582 C583 1.400 . S
C583 C582 1.400 . S
C583 C584 1.398 . S
C583 C589 1.491 1_655 S
C584 H575 0.950 . S
C584 C583 1.398 . S
C584 C585 1.391 . S
C585 H573 0.950 . S
C585 C581 1.393 . S
C585 C584 1.391 . S
C586 H576 0.950 . S
C586 C587 1.386 . S
C586 C588 1.391 . S
C587 C586 1.386 . S
C587 C591 1.393 . S
C588 H577 0.950 . S
C588 C586 1.391 . S
C588 C589 1.400 . S
C589 C583 1.491 1_455 S
C589 C588 1.400 . S
C589 C590 1.398 . S
C590 H578 0.950 . S
C590 C589 1.398 . S
C590 C591 1.391 . S
C591 H579 0.950 . S
C591 C587 1.393 . S
C591 C590 1.391 . S
H592 C600 0.950 . S
H593 C605 0.950 . S
H594 C602 0.950 . S
H595 C604 0.950 . S
H596 C606 0.950 . S
H597 C608 0.950 . S
H598 C610 0.950 . S
H599 C611 0.950 . S
C600 H592 0.950 . S
C600 C601 1.386 . S
C600 C602 1.391 . S
C601 C600 1.386 . S
C601 C605 1.393 . S
C602 H594 0.950 . S
C602 C600 1.391 . S
C602 C603 1.400 . S
C603 C602 1.400 . S
C603 C604 1.398 . S
C603 C609 1.491 1_545 S
C604 H595 0.950 . S
C604 C603 1.398 . S
C604 C605 1.391 . S
C605 H593 0.950 . S
C605 C601 1.393 . S
C605 C604 1.391 . S
C606 H596 0.950 . S
C606 C607 1.386 . S
C606 C608 1.391 . S
C607 C606 1.386 . S
C607 C611 1.393 . S
C608 H597 0.950 . S
C608 C606 1.391 . S
C608 C609 1.400 . S
C609 C603 1.491 1_565 S
C609 C608 1.400 . S
C609 C610 1.398 . S
C610 H598 0.950 . S
C610 C609 1.398 . S
C610 C611 1.391 . S
C611 H599 0.950 . S
C611 C607 1.393 . S
C611 C610 1.391 . S
H612 C620 0.950 . S
H613 C625 0.950 . S
H614 C622 0.950 . S
H615 C624 0.950 . S
H616 C626 0.950 . S
H617 C628 0.950 . S
H618 C630 0.950 . S
H619 C631 0.950 . S
C620 H612 0.950 . S
C620 C621 1.386 . S
C620 C622 1.391 . S
C621 C620 1.386 . S
C621 C625 1.393 . S
C622 H614 0.950 . S
C622 C620 1.391 . S
C622 C623 1.400 . S
C623 C622 1.400 . S
C623 C624 1.398 . S
C623 C629 1.491 . S
C624 H615 0.950 . S
C624 C623 1.398 . S
C624 C625 1.391 . S
C625 H613 0.950 . S
C625 C621 1.393 . S
C625 C624 1.391 . S
C626 H616 0.950 . S
C626 C627 1.386 . S
C626 C628 1.391 . S
C627 C626 1.386 . S
C627 C631 1.393 . S
C628 H617 0.950 . S
C628 C626 1.391 . S
C628 C629 1.400 . S
C629 C623 1.491 . S
C629 C628 1.400 . S
C629 C630 1.398 . S
C630 H618 0.950 . S
C630 C629 1.398 . S
C630 C631 1.391 . S
C631 H619 0.950 . S
C631 C627 1.393 . S
C631 C630 1.391 . S
H632 C640 0.950 . S
H633 C645 0.950 . S
H634 C642 0.950 . S
H635 C644 0.950 . S
H636 C646 0.950 . S
H637 C648 0.950 . S
H638 C650 0.950 . S
H639 C651 0.950 . S
C640 H632 0.950 . S
C640 C641 1.386 . S
C640 C642 1.391 . S
C641 C640 1.386 . S
C641 C645 1.393 . S
C642 H634 0.950 . S
C642 C640 1.391 . S
C642 C643 1.400 . S
C643 C642 1.400 . S
C643 C644 1.398 . S
C643 C649 1.491 1_655 S
C644 H635 0.950 . S
C644 C643 1.398 . S
C644 C645 1.391 . S
C645 H633 0.950 . S
C645 C641 1.393 . S
C645 C644 1.391 . S
C646 H636 0.950 . S
C646 C647 1.386 . S
C646 C648 1.391 . S
C647 C646 1.386 . S
C647 C651 1.393 . S
C648 H637 0.950 . S
C648 C646 1.391 . S
C648 C649 1.400 . S
C649 C643 1.491 1_455 S
C649 C648 1.400 . S
C649 C650 1.398 . S
C650 H638 0.950 . S
C650 C649 1.398 . S
C650 C651 1.391 . S
C651 H639 0.950 . S
C651 C647 1.393 . S
C651 C650 1.391 . S
H652 C660 0.950 . S
H653 C665 0.950 . S
H654 C662 0.939 1_556 S
H655 C664 0.950 1_545 S
H656 C666 0.950 . S
H657 C668 0.939 1_554 S
H658 C670 0.950 1_565 S
H659 C671 0.950 . S
C660 H652 0.950 . S
C660 C661 1.386 . S
C660 C662 1.398 . S
C661 C660 1.386 . S
C661 C665 1.393 . S
C662 H654 0.939 1_554 S
C662 C660 1.398 . S
C662 C663 1.404 . S
C663 C662 1.404 . S
C663 C664 1.398 . S
C663 C669 1.491 1_564 S
C664 H655 0.950 1_565 S
C664 C663 1.398 . S
C664 C665 1.391 . S
C665 H653 0.950 . S
C665 C661 1.393 . S
C665 C664 1.391 . S
C666 H656 0.950 . S
C666 C667 1.386 . S
C666 C668 1.398 . S
C667 C666 1.386 . S
C667 C671 1.393 . S
C668 H657 0.939 1_556 S
C668 C666 1.398 . S
C668 C669 1.404 . S
C669 C663 1.491 1_546 S
C669 C668 1.404 . S
C669 C670 1.398 . S
C670 H658 0.950 1_545 S
C670 C669 1.398 . S
C670 C671 1.391 . S
C671 H659 0.950 . S
C671 C667 1.393 . S
C671 C670 1.391 . S
H672 C680 0.950 . S
H673 C685 0.950 . S
H674 C682 0.950 . S
H675 C684 0.950 . S
H676 C686 0.960 . S
H677 C688 0.950 . S
H678 C690 0.950 . S
H679 C691 0.950 . S
C680 H672 0.950 . S
C680 C681 1.386 . S
C680 C682 1.391 . S
C681 C680 1.386 . S
C681 C685 1.393 . S
C682 H674 0.950 . S
C682 C680 1.391 . S
C682 C683 1.400 . S
C683 C682 1.400 . S
C683 C684 1.398 . S
C683 C689 1.491 . S
C684 H675 0.950 . S
C684 C683 1.398 . S
C684 C685 1.391 . S
C685 H673 0.950 . S
C685 C681 1.393 . S
C685 C684 1.391 . S
C686 H676 0.960 . S
C686 C687 1.386 . S
C686 C688 1.391 1_556 S
C687 C686 1.386 . S
C687 C691 1.393 . S
C688 H677 0.950 . S
C688 C686 1.391 1_554 S
C688 C689 1.400 . S
C689 C683 1.491 . S
C689 C688 1.400 . S
C689 C690 1.398 1_554 S
C690 H678 0.950 . S
C690 C689 1.398 1_556 S
C690 C691 1.391 . S
C691 H679 0.950 . S
C691 C687 1.393 . S
C691 C690 1.391 . S
H692 C700 0.950 . S
H693 C705 0.950 . S
H694 C702 0.950 . S
H695 C704 0.950 . S
H696 C706 0.950 . S
H697 C708 0.950 . S
H698 C710 0.950 . S
H699 C711 0.950 . S
C700 H692 0.950 . S
C700 C701 1.386 . S
C700 C702 1.391 . S
C701 C700 1.386 . S
C701 C705 1.393 . S
C702 H694 0.950 . S
C702 C700 1.391 . S
C702 C703 1.400 . S
C703 C702 1.400 . S
C703 C704 1.398 . S
C703 C709 1.491 . S
C704 H695 0.950 . S
C704 C703 1.398 . S
C704 C705 1.391 . S
C705 H693 0.950 . S
C705 C701 1.393 . S
C705 C704 1.391 . S
C706 H696 0.950 . S
C706 C707 1.386 . S
C706 C708 1.391 . S
C707 C706 1.386 . S
C707 C711 1.393 . S
C708 H697 0.950 . S
C708 C706 1.391 . S
C708 C709 1.400 1_455 S
C709 C703 1.491 . S
C709 C708 1.400 1_655 S
C709 C710 1.398 . S
C710 H698 0.950 . S
C710 C709 1.398 . S
C710 C711 1.391 1_655 S
C711 H699 0.950 . S
C711 C707 1.393 . S
C711 C710 1.391 1_455 S
H712 C720 0.950 . S
H713 C725 0.950 . S
H714 C722 0.950 . S
H715 C724 0.950 . S
H716 C726 0.950 . S
H717 C728 0.950 . S
H718 C730 0.950 . S
H719 C731 0.950 . S
C720 H712 0.950 . S
C720 C721 1.386 . S
C720 C722 1.391 . S
C721 C720 1.386 . S
C721 C725 1.393 . S
C722 H714 0.950 . S
C722 C720 1.391 . S
C722 C723 1.400 1_545 S
C723 C722 1.400 1_565 S
C723 C724 1.398 . S
C723 C729 1.491 . S
C724 H715 0.950 . S
C724 C723 1.398 . S
C724 C725 1.391 1_565 S
C725 H713 0.950 . S
C725 C721 1.393 . S
C725 C724 1.391 1_545 S
C726 H716 0.950 . S
C726 C727 1.386 . S
C726 C728 1.391 . S
C727 C726 1.386 . S
C727 C731 1.393 . S
C728 H717 0.950 . S
C728 C726 1.391 . S
C728 C729 1.400 . S
C729 C723 1.491 . S
C729 C728 1.400 . S
C729 C730 1.398 . S
C730 H718 0.950 . S
C730 C729 1.398 . S
C730 C731 1.391 . S
C731 H719 0.950 . S
C731 C727 1.393 . S
C731 C730 1.391 . S
H732 C740 0.950 . S
H733 C745 0.950 . S
H734 C742 0.950 . S
H735 C744 0.950 . S
H736 C746 0.950 . S
H737 C748 0.950 . S
H738 C750 0.950 . S
H739 C751 0.950 . S
C740 H732 0.950 . S
C740 C741 1.386 . S
C740 C742 1.391 . S
C741 C740 1.386 . S
C741 C745 1.393 . S
C742 H734 0.950 . S
C742 C740 1.391 . S
C742 C743 1.400 . S
C743 C742 1.400 . S
C743 C744 1.398 . S
C743 C749 1.491 . S
C744 H735 0.950 . S
C744 C743 1.398 . S
C744 C745 1.391 . S
C745 H733 0.950 . S
C745 C741 1.393 . S
C745 C744 1.391 . S
C746 H736 0.950 . S
C746 C747 1.386 . S
C746 C748 1.391 . S
C747 C746 1.386 . S
C747 C751 1.393 . S
C748 H737 0.950 . S
C748 C746 1.391 . S
C748 C749 1.400 . S
C749 C743 1.491 . S
C749 C748 1.400 . S
C749 C750 1.398 . S
C750 H738 0.950 . S
C750 C749 1.398 . S
C750 C751 1.391 . S
C751 H739 0.950 . S
C751 C747 1.393 . S
C751 C750 1.391 . S
H752 C760 0.950 . S
H753 C765 0.950 . S
H754 C762 0.950 . S
H755 C764 0.950 . S
H756 C766 0.950 . S
H757 C768 0.950 . S
H758 C770 0.950 . S
H759 C771 0.950 . S
C760 H752 0.950 . S
C760 C761 1.386 . S
C760 C762 1.391 . S
C761 C760 1.386 . S
C761 C765 1.393 . S
C762 H754 0.950 . S
C762 C760 1.391 . S
C762 C763 1.400 . S
C763 C762 1.400 . S
C763 C764 1.398 . S
C763 C769 1.491 . S
C764 H755 0.950 . S
C764 C763 1.398 . S
C764 C765 1.391 . S
C765 H753 0.950 . S
C765 C761 1.393 . S
C765 C764 1.391 . S
C766 H756 0.950 . S
C766 C767 1.386 . S
C766 C768 1.391 . S
C767 C766 1.386 . S
C767 C771 1.393 . S
C768 H757 0.950 . S
C768 C766 1.391 . S
C768 C769 1.400 1_655 S
C769 C763 1.491 . S
C769 C768 1.400 1_455 S
C769 C770 1.398 . S
C770 H758 0.950 . S
C770 C769 1.398 . S
C770 C771 1.391 1_455 S
C771 H759 0.950 . S
C771 C767 1.393 . S
C771 C770 1.391 1_655 S
H772 C780 0.950 . S
H773 C785 0.950 . S
H774 C782 0.950 . S
H775 C784 0.950 . S
H776 C786 0.950 . S
H777 C788 0.950 . S
H778 C790 0.950 . S
H779 C791 0.950 . S
C780 H772 0.950 . S
C780 C781 1.386 . S
C780 C782 1.391 . S
C781 C780 1.386 . S
C781 C785 1.393 . S
C782 H774 0.950 . S
C782 C780 1.391 . S
C782 C783 1.400 . S
C783 C782 1.400 . S
C783 C784 1.398 . S
C783 C789 1.491 . S
C784 H775 0.950 . S
C784 C783 1.398 . S
C784 C785 1.391 . S
C785 H773 0.950 . S
C785 C781 1.393 . S
C785 C784 1.391 . S
C786 H776 0.950 . S
C786 C787 1.386 . S
C786 C788 1.391 1_565 S
C787 C786 1.386 . S
C787 C791 1.393 . S
C788 H777 0.950 . S
C788 C786 1.391 1_545 S
C788 C789 1.400 . S
C789 C783 1.491 . S
C789 C788 1.400 . S
C789 C790 1.398 1_545 S
C790 H778 0.950 . S
C790 C789 1.398 1_565 S
C790 C791 1.391 . S
C791 H779 0.950 . S
C791 C787 1.393 . S
C791 C790 1.391 . S
H792 C800 0.950 . S
H793 C805 0.950 . S
H794 C802 0.950 . S
H795 C804 0.950 . S
H796 C806 0.950 . S
H797 C808 0.950 . S
H798 C810 0.950 . S
H799 C811 0.950 . S
C800 H792 0.950 . S
C800 C801 1.386 . S
C800 C802 1.391 . S
C801 C800 1.386 . S
C801 C805 1.393 . S
C802 H794 0.950 . S
C802 C800 1.391 . S
C802 C803 1.400 . S
C803 C802 1.400 . S
C803 C804 1.398 . S
C803 C809 1.491 . S
C804 H795 0.950 . S
C804 C803 1.398 . S
C804 C805 1.391 . S
C805 H793 0.950 . S
C805 C801 1.393 . S
C805 C804 1.391 . S
C806 H796 0.950 . S
C806 C807 1.386 . S
C806 C808 1.391 . S
C807 C806 1.386 . S
C807 C811 1.393 . S
C808 H797 0.950 . S
C808 C806 1.391 . S
C808 C809 1.400 . S
C809 C803 1.491 . S
C809 C808 1.400 . S
C809 C810 1.398 . S
C810 H798 0.950 . S
C810 C809 1.398 . S
C810 C811 1.391 . S
C811 H799 0.950 . S
C811 C807 1.393 . S
C811 C810 1.391 . S
H812 C820 0.950 . S
H813 C825 0.950 . S
H814 C822 0.950 . S
H815 C824 0.950 . S
H816 C826 0.950 . S
H817 C828 0.950 . S
H818 C830 0.950 . S
H819 C831 0.950 . S
C820 H812 0.950 . S
C820 C821 1.386 . S
C820 C822 1.391 . S
C821 C820 1.386 . S
C821 C825 1.393 . S
C822 H814 0.950 . S
C822 C820 1.391 . S
C822 C823 1.400 . S
C823 C822 1.400 . S
C823 C824 1.398 . S
C823 C829 1.491 . S
C824 H815 0.950 . S
C824 C823 1.398 . S
C824 C825 1.391 . S
C825 H813 0.950 . S
C825 C821 1.393 . S
C825 C824 1.391 . S
C826 H816 0.950 . S
C826 C827 1.386 . S
C826 C828 1.391 1_455 S
C827 C826 1.386 . S
C827 C831 1.393 . S
C828 H817 0.950 . S
C828 C826 1.391 1_655 S
C828 C829 1.400 1_554 S
C829 C823 1.491 . S
C829 C828 1.400 1_556 S
C829 C830 1.398 1_655 S
C830 H818 0.950 . S
C830 C829 1.398 1_455 S
C830 C831 1.391 1_556 S
C831 H819 0.950 . S
C831 C827 1.393 . S
C831 C830 1.391 1_554 S
H832 C840 0.950 . S
H833 C845 0.950 . S
H834 C842 0.950 . S
H835 C844 0.950 . S
H836 C846 0.950 . S
H837 C848 0.950 . S
H838 C850 0.950 . S
H839 C851 0.951 . S
C840 H832 0.950 . S
C840 C841 1.386 . S
C840 C842 1.391 . S
C841 C840 1.386 . S
C841 C845 1.393 . S
C842 H834 0.950 . S
C842 C840 1.391 . S
C842 C843 1.400 . S
C843 C842 1.400 . S
C843 C844 1.398 . S
C843 C849 1.491 . S
C844 H835 0.950 . S
C844 C843 1.398 . S
C844 C845 1.391 . S
C845 H833 0.950 . S
C845 C841 1.393 . S
C845 C844 1.391 . S
C846 H836 0.950 . S
C846 C847 1.386 . S
C846 C848 1.391 . S
C847 C846 1.386 . S
C847 C851 1.393 . S
C848 H837 0.950 . S
C848 C846 1.391 . S
C848 C849 1.400 1_545 S
C849 C843 1.491 . S
C849 C848 1.400 1_565 S
C849 C850 1.398 . S
C850 H838 0.950 . S
C850 C849 1.398 . S
C850 C851 1.391 1_565 S
C851 H839 0.951 . S
C851 C847 1.393 . S
C851 C850 1.391 1_545 S
H852 C860 0.950 . S
H853 C865 0.950 . S
H854 C862 0.950 . S
H855 C864 0.950 . S
H856 C866 0.950 . S
H857 C868 0.950 . S
H858 C870 0.950 . S
H859 C871 0.950 . S
C860 H852 0.950 . S
C860 C861 1.386 . S
C860 C862 1.391 . S
C861 C860 1.386 . S
C861 C865 1.393 . S
C862 H854 0.950 . S
C862 C860 1.391 . S
C862 C863 1.400 . S
C863 C862 1.400 . S
C863 C864 1.398 . S
C863 C869 1.491 . S
C864 H855 0.950 . S
C864 C863 1.398 . S
C864 C865 1.391 . S
C865 H853 0.950 . S
C865 C861 1.393 . S
C865 C864 1.391 . S
C866 H856 0.950 . S
C866 C867 1.386 . S
C866 C868 1.391 . S
C867 C866 1.386 . S
C867 C871 1.393 . S
C868 H857 0.950 . S
C868 C866 1.391 . S
C868 C869 1.400 . S
C869 C863 1.491 . S
C869 C868 1.400 . S
C869 C870 1.398 . S
C870 H858 0.950 . S
C870 C869 1.398 . S
C870 C871 1.391 . S
C871 H859 0.950 . S
C871 C867 1.393 . S
C871 C870 1.391 . S
H872 C880 0.950 . S
H873 C885 0.950 . S
H874 C882 0.950 . S
H875 C884 0.950 1_655 S
H876 C886 0.950 . S
H877 C888 0.950 . S
H878 C890 0.950 . S
H879 C891 0.950 1_455 S
C880 H872 0.950 . S
C880 C881 1.386 . S
C880 C882 1.391 . S
C881 C880 1.386 . S
C881 C885 1.393 . S
C882 H874 0.950 . S
C882 C880 1.391 . S
C882 C883 1.400 . S
C883 C882 1.400 . S
C883 C884 1.398 . S
C883 C889 1.491 . S
C884 H875 0.950 1_455 S
C884 C883 1.398 . S
C884 C885 1.391 . S
C885 H873 0.950 . S
C885 C881 1.393 . S
C885 C884 1.391 . S
C886 H876 0.950 . S
C886 C887 1.386 . S
C886 C888 1.391 . S
C887 C886 1.386 . S
C887 C891 1.393 . S
C888 H877 0.950 . S
C888 C886 1.391 . S
C888 C889 1.400 1_655 S
C889 C883 1.491 . S
C889 C888 1.400 1_455 S
C889 C890 1.398 . S
C890 H878 0.950 . S
C890 C889 1.398 . S
C890 C891 1.391 1_455 S
C891 H879 0.950 1_655 S
C891 C887 1.393 . S
C891 C890 1.391 1_655 S
H892 C900 0.950 . S
H893 C905 0.950 . S
H894 C902 0.950 1_545 S
H895 C904 0.950 . S
H896 C906 0.950 . S
H897 C908 0.950 . S
H898 C910 0.950 . S
H899 C911 0.950 . S
C900 H892 0.950 . S
C900 C901 1.386 . S
C900 C902 1.391 . S
C901 C900 1.386 . S
C901 C905 1.393 . S
C902 H894 0.950 1_565 S
C902 C900 1.391 . S
C902 C903 1.400 1_565 S
C903 C902 1.400 1_545 S
C903 C904 1.398 1_545 S
C903 C909 1.491 . S
C904 H895 0.950 . S
C904 C903 1.398 1_565 S
C904 C905 1.391 . S
C905 H893 0.950 . S
C905 C901 1.393 . S
C905 C904 1.391 . S
C906 H896 0.950 . S
C906 C907 1.386 . S
C906 C908 1.391 . S
C907 C906 1.386 . S
C907 C911 1.393 . S
C908 H897 0.950 . S
C908 C906 1.391 . S
C908 C909 1.400 . S
C909 C903 1.491 . S
C909 C908 1.400 . S
C909 C910 1.398 . S
C910 H898 0.950 . S
C910 C909 1.398 . S
C910 C911 1.391 . S
C911 H899 0.950 . S
C911 C907 1.393 . S
C911 C910 1.391 . S
C441 C302 1.137 . S
C447 C14 1.136 . S
C461 C50 1.139 . S
C467 C338 1.149 . S
C481 C86 1.167 . S
C487 C374 1.163 . S
C501 C122 1.149 . S
C507 C410 1.161 . S
C521 C230 1.167 . S
C527 C158 1.165 . S
C541 C194 1.143 . S
C547 C266 1.136 . S
C561 C326 0.870 . S
C567 C2 0.843 . S
C581 C38 0.869 . S
C587 C362 0.846 . S
C601 C398 0.869 . S
C607 C74 0.846 . S
C621 C110 0.845 . S
C627 C218 0.851 . S
C641 C254 0.856 . S
C647 C146 0.861 . S
C661 C290 0.837 . S
C667 C182 0.874 . S
C681 C3 1.441 . S
C687 C184 1.414 . S
C701 C39 1.441 . S
C707 C4 1.423 . S
C721 C40 1.423 . S
C727 C75 1.444 . S
C741 C111 1.445 . S
C747 C76 1.401 . S
C761 C147 1.442 . S
C767 C112 1.408 . S
C781 C183 1.449 . S
C787 C148 1.401 . S
C801 C219 1.440 . S
C807 C256 1.421 . S
C821 C255 1.447 . S
C827 C292 1.417 . S
C841 C291 1.440 . S
C847 C328 1.418 . S
C861 C327 1.445 . S
C867 C364 1.421 . S
C881 C363 1.440 . S
C887 C400 1.416 . S
C901 C220 1.400 . S
C907 C399 1.448 . S
