# Generated by pormake.
# Topology ske, (6)-cn, num edge types: 1
# Building blocks:
#     Node 0, Type 0, BuildingBlock: GEDQOX_clean_sbu_0, # of connection points: 6
#     Node 1, Type 0, BuildingBlock: GEDQOX_clean_sbu_0, # of connection points: 6
#     Node 2, Type 0, BuildingBlock: GEDQOX_clean_sbu_0, # of connection points: 6
#     Node 3, Type 0, BuildingBlock: GEDQOX_clean_sbu_0, # of connection points: 6
#     Node 4, Type 0, BuildingBlock: GEDQOX_clean_sbu_0, # of connection points: 6
#     Node 5, Type 0, BuildingBlock: GEDQOX_clean_sbu_0, # of connection points: 6
#     Node 6, Type 0, BuildingBlock: GEDQOX_clean_sbu_0, # of connection points: 6
#     Node 7, Type 0, BuildingBlock: GEDQOX_clean_sbu_0, # of connection points: 6
#     Edge 8, Type (0, 0), BuildingBlock: MIFKUJ_clean_linker_0, # of connection points: 2
#     Edge 9, Type (0, 0), BuildingBlock: MIFKUJ_clean_linker_0, # of connection points: 2
#     Edge 10, Type (0, 0), BuildingBlock: MIFKUJ_clean_linker_0, # of connection points: 2
#     Edge 11, Type (0, 0), BuildingBlock: MIFKUJ_clean_linker_0, # of connection points: 2
#     Edge 12, Type (0, 0), BuildingBlock: MIFKUJ_clean_linker_0, # of connection points: 2
#     Edge 13, Type (0, 0), BuildingBlock: MIFKUJ_clean_linker_0, # of connection points: 2
#     Edge 14, Type (0, 0), BuildingBlock: MIFKUJ_clean_linker_0, # of connection points: 2
#     Edge 15, Type (0, 0), BuildingBlock: MIFKUJ_clean_linker_0, # of connection points: 2
#     Edge 16, Type (0, 0), BuildingBlock: MIFKUJ_clean_linker_0, # of connection points: 2
#     Edge 17, Type (0, 0), BuildingBlock: MIFKUJ_clean_linker_0, # of connection points: 2
#     Edge 18, Type (0, 0), BuildingBlock: MIFKUJ_clean_linker_0, # of connection points: 2
#     Edge 19, Type (0, 0), BuildingBlock: MIFKUJ_clean_linker_0, # of connection points: 2
#     Edge 20, Type (0, 0), BuildingBlock: MIFKUJ_clean_linker_0, # of connection points: 2
#     Edge 21, Type (0, 0), BuildingBlock: MIFKUJ_clean_linker_0, # of connection points: 2
#     Edge 22, Type (0, 0), BuildingBlock: MIFKUJ_clean_linker_0, # of connection points: 2
#     Edge 23, Type (0, 0), BuildingBlock: MIFKUJ_clean_linker_0, # of connection points: 2
#     Edge 24, Type (0, 0), BuildingBlock: MIFKUJ_clean_linker_0, # of connection points: 2
#     Edge 25, Type (0, 0), BuildingBlock: MIFKUJ_clean_linker_0, # of connection points: 2
#     Edge 26, Type (0, 0), BuildingBlock: MIFKUJ_clean_linker_0, # of connection points: 2
#     Edge 27, Type (0, 0), BuildingBlock: MIFKUJ_clean_linker_0, # of connection points: 2
#     Edge 28, Type (0, 0), BuildingBlock: MIFKUJ_clean_linker_0, # of connection points: 2
#     Edge 29, Type (0, 0), BuildingBlock: MIFKUJ_clean_linker_0, # of connection points: 2
#     Edge 30, Type (0, 0), BuildingBlock: MIFKUJ_clean_linker_0, # of connection points: 2
#     Edge 31, Type (0, 0), BuildingBlock: MIFKUJ_clean_linker_0, # of connection points: 2
# Relax obj value: 0.195
# Max RMSD: 0.219
# Mean RMSD: 0.219
data_MOF--net-ske--node1-GEDQOX_clean_sbu_0--edge1-MIFKUJ_clean_linker_0
_symmetry_space_group_name_H-M    P1
_symmetry_Int_Tables_number       1
_symmetry_cell_setting            triclinic
loop_
_symmetry_equiv_pos_as_xyz
'x, y, z'
_cell_length_a     69.898541
_cell_length_b     38.310551
_cell_length_c     30.136817
_cell_angle_alpha  89.731144
_cell_angle_beta   89.859528
_cell_angle_gamma 96.887196
loop_
_atom_site_label
_atom_site_type_symbol
_atom_site_fract_x
_atom_site_fract_y
_atom_site_fract_z
_atom_type_partial_charge
Nd0 Nd 0.16548 0.2642 0.51069 0.0
Nd1 Nd 0.14722 0.25076 0.59594 0.0
C2 C 0.17447 0.28511 0.42803 0.0
C3 C 0.16843 0.27784 0.38122 0.0
C4 C 0.15625 0.29913 0.35955 0.0
C5 C 0.15203 0.29467 0.31432 0.0
C6 C 0.16006 0.26907 0.28924 0.0
C7 C 0.17187 0.24722 0.31134 0.0
C8 C 0.17595 0.2515 0.35662 0.0
C9 C 0.16252 0.19414 0.53225 0.0
C10 C 0.11751 0.24863 0.52001 0.0
C11 C 0.13848 0.23324 0.67925 0.0
C12 C 0.1465 0.24108 0.7241 0.0
C13 C 0.15979 0.22051 0.74291 0.0
C14 C 0.16579 0.22569 0.78689 0.0
C15 C 0.15848 0.2513 0.81327 0.0
C16 C 0.14583 0.27282 0.79369 0.0
C17 C 0.13995 0.26781 0.74969 0.0
C18 C 0.15226 0.32137 0.57162 0.0
C19 C 0.19343 0.26154 0.59559 0.0
O20 O 0.16284 0.30026 0.45358 0.0
O21 O 0.18291 0.2614 0.44922 0.0
O22 O 0.17737 0.21175 0.5137 0.0
O23 O 0.14911 0.21325 0.53823 0.0
O24 O 0.13228 0.26675 0.49918 0.0
O25 O 0.12033 0.23232 0.55725 0.0
O26 O 0.14804 0.21442 0.65309 0.0
O27 O 0.13125 0.25848 0.65814 0.0
O28 O 0.13686 0.3057 0.59022 0.0
O29 O 0.16475 0.30051 0.56756 0.0
O30 O 0.17808 0.24244 0.61093 0.0
O31 O 0.19237 0.27851 0.55721 0.0
H32 H 0.15026 0.31982 0.37735 0.0
H33 H 0.1426 0.31164 0.299 0.0
H34 H 0.17865 0.22758 0.29341 0.0
H35 H 0.1855 0.23475 0.37199 0.0
H36 H 0.16522 0.19978 0.72405 0.0
H37 H 0.17584 0.20906 0.80046 0.0
H38 H 0.13965 0.29252 0.81288 0.0
H39 H 0.12971 0.28413 0.73626 0.0
Nd40 Nd 0.86584 0.24624 0.50472 0.0
Nd41 Nd 0.88443 0.25781 0.60515 0.0
C42 C 0.8562 0.22028 0.42593 0.0
C43 C 0.86187 0.22734 0.37927 0.0
C44 C 0.86766 0.19978 0.35399 0.0
C45 C 0.87203 0.20465 0.30905 0.0
C46 C 0.87084 0.23728 0.28877 0.0
C47 C 0.866 0.2655 0.31429 0.0
C48 C 0.86152 0.26058 0.35939 0.0
C49 C 0.87316 0.31702 0.52446 0.0
C50 C 0.91375 0.25937 0.52176 0.0
C51 C 0.89345 0.28436 0.683 0.0
C52 C 0.88576 0.27726 0.72792 0.0
C53 C 0.87922 0.30482 0.75181 0.0
C54 C 0.87305 0.29955 0.79553 0.0
C55 C 0.87326 0.26661 0.81571 0.0
C56 C 0.87854 0.23833 0.79112 0.0
C57 C 0.88474 0.24357 0.74726 0.0
C58 C 0.87715 0.18699 0.58107 0.0
C59 C 0.83727 0.24381 0.59483 0.0
O60 O 0.86928 0.2086 0.45098 0.0
O61 O 0.84645 0.24274 0.44623 0.0
O62 O 0.86565 0.30492 0.48751 0.0
O63 O 0.87689 0.29133 0.54796 0.0
O64 O 0.89919 0.2467 0.49564 0.0
O65 O 0.91137 0.27012 0.56277 0.0
O66 O 0.88192 0.29838 0.65565 0.0
O67 O 0.90281 0.26027 0.66476 0.0
O68 O 0.88472 0.1972 0.61892 0.0
O69 O 0.87364 0.21406 0.56071 0.0
O70 O 0.85238 0.2541 0.61963 0.0
O71 O 0.83851 0.23643 0.55153 0.0
H72 H 0.86833 0.17412 0.36879 0.0
H73 H 0.87575 0.18263 0.28974 0.0
H74 H 0.86487 0.2908 0.29892 0.0
H75 H 0.85737 0.28245 0.37831 0.0
H76 H 0.87951 0.33075 0.73713 0.0
H77 H 0.86907 0.32162 0.81436 0.0
H78 H 0.87897 0.21284 0.8066 0.0
H79 H 0.88931 0.22164 0.72916 0.0
Nd80 Nd 0.14625 0.7558 0.43381 0.0
Nd81 Nd 0.1653 0.76235 0.52348 0.0
C82 C 0.13652 0.74706 0.34971 0.0
C83 C 0.14637 0.75 0.30612 0.0
C84 C 0.15479 0.72157 0.28835 0.0
C85 C 0.16186 0.72309 0.24488 0.0
C86 C 0.16062 0.75303 0.21839 0.0
C87 C 0.15338 0.78228 0.23719 0.0
C88 C 0.14628 0.78074 0.28054 0.0
C89 C 0.15057 0.82192 0.47026 0.0
C90 C 0.19309 0.75798 0.4359 0.0
C91 C 0.17516 0.78851 0.60248 0.0
C92 C 0.16985 0.78218 0.64994 0.0
C93 C 0.16308 0.80931 0.67442 0.0
C94 C 0.15907 0.8052 0.71979 0.0
C95 C 0.16178 0.77381 0.74203 0.0
C96 C 0.16787 0.74608 0.71719 0.0
C97 C 0.17188 0.7502 0.67164 0.0
C98 C 0.15674 0.69135 0.51077 0.0
C99 C 0.1174 0.74653 0.51242 0.0
O100 O 0.13984 0.72109 0.37578 0.0
O101 O 0.13547 0.77632 0.37115 0.0
O102 O 0.13457 0.80717 0.45347 0.0
O103 O 0.16346 0.80151 0.46894 0.0
O104 O 0.17688 0.75181 0.41409 0.0
O105 O 0.19329 0.76624 0.47884 0.0
O106 O 0.16221 0.80062 0.57724 0.0
O107 O 0.18462 0.76565 0.58216 0.0
O108 O 0.1648 0.70551 0.54588 0.0
O109 O 0.15295 0.71452 0.48302 0.0
O110 O 0.13196 0.76298 0.53545 0.0
O111 O 0.12031 0.73389 0.47301 0.0
H112 H 0.15528 0.69763 0.30735 0.0
H113 H 0.16762 0.70034 0.23141 0.0
H114 H 0.15206 0.80562 0.21754 0.0
H115 H 0.13996 0.80315 0.29333 0.0
H116 H 0.1612 0.8341 0.65854 0.0
H117 H 0.15405 0.82686 0.7376 0.0
H118 H 0.17022 0.7216 0.73325 0.0
H119 H 0.17691 0.72862 0.65371 0.0
Nd120 Nd 0.88639 0.75445 0.43607 0.0
Nd121 Nd 0.86728 0.74782 0.52388 0.0
C122 C 0.89911 0.76114 0.35342 0.0
C123 C 0.89216 0.76061 0.30727 0.0
C124 C 0.88871 0.79182 0.28591 0.0
C125 C 0.88424 0.7918 0.24086 0.0
C126 C 0.88298 0.76051 0.21607 0.0
C127 C 0.88606 0.72915 0.23793 0.0
C128 C 0.89061 0.72922 0.28294 0.0
C129 C 0.88192 0.68792 0.47286 0.0
C130 C 0.83968 0.75227 0.43651 0.0
C131 C 0.85702 0.72138 0.60283 0.0
C132 C 0.86251 0.72786 0.64995 0.0
C133 C 0.86998 0.70122 0.6742 0.0
C134 C 0.87454 0.70569 0.71912 0.0
C135 C 0.87162 0.7369 0.7412 0.0
C136 C 0.86473 0.76412 0.71656 0.0
C137 C 0.86024 0.75968 0.6714 0.0
C138 C 0.8754 0.81907 0.5122 0.0
C139 C 0.91509 0.76269 0.51513 0.0
O140 O 0.89633 0.788 0.37826 0.0
O141 O 0.89676 0.73136 0.37503 0.0
O142 O 0.89815 0.70342 0.45802 0.0
O143 O 0.86897 0.70813 0.47046 0.0
O144 O 0.85582 0.76093 0.4146 0.0
O145 O 0.83972 0.74245 0.47892 0.0
O146 O 0.86993 0.7091 0.57764 0.0
O147 O 0.84765 0.74435 0.5823 0.0
O148 O 0.86695 0.80383 0.54646 0.0
O149 O 0.87966 0.79688 0.48366 0.0
O150 O 0.90024 0.7471 0.53803 0.0
O151 O 0.91277 0.77463 0.47504 0.0
H152 H 0.88991 0.81649 0.3037 0.0
H153 H 0.88193 0.81654 0.22567 0.0
H154 H 0.88568 0.70463 0.2201 0.0
H155 H 0.89345 0.70476 0.29832 0.0
H156 H 0.87207 0.67658 0.65846 0.0
H157 H 0.88019 0.68444 0.73668 0.0
H158 H 0.86219 0.78843 0.73248 0.0
H159 H 0.8547 0.78091 0.65359 0.0
Nd160 Nd 0.66562 0.76387 1.01093 0.0
Nd161 Nd 0.64525 0.75371 0.10085 0.0
C162 C 0.67628 0.7914 0.93283 0.0
C163 C 0.67146 0.78429 0.88566 0.0
C164 C 0.6696 0.81262 0.85708 0.0
C165 C 0.66536 0.80698 0.81217 0.0
C166 C 0.66276 0.77271 0.79466 0.0
C167 C 0.66416 0.74419 0.82373 0.0
C168 C 0.66845 0.74991 0.86878 0.0
C169 C 0.65793 0.69226 0.02393 0.0
C170 C 0.61793 0.74691 0.019 0.0
C171 C 0.63251 0.74088 0.18261 0.0
C172 C 0.63913 0.74487 0.22884 0.0
C173 C 0.63648 0.7156 0.25719 0.0
C174 C 0.64111 0.71902 0.30207 0.0
C175 C 0.6485 0.75186 0.31939 0.0
C176 C 0.65157 0.78109 0.29079 0.0
C177 C 0.64702 0.77761 0.24576 0.0
C178 C 0.65045 0.82125 0.06672 0.0
C179 C 0.69251 0.76056 0.09987 0.0
O180 O 0.66267 0.80247 0.95708 0.0
O181 O 0.68589 0.76904 0.95385 0.0
O182 O 0.66677 0.70681 0.98963 0.0
O183 O 0.65358 0.71557 0.05035 0.0
O184 O 0.63261 0.76544 0.99838 0.0
O185 O 0.62035 0.73197 0.05748 0.0
O186 O 0.63989 0.71752 0.1585 0.0
O187 O 0.63022 0.76955 0.16064 0.0
O188 O 0.63425 0.80649 0.08279 0.0
O189 O 0.66301 0.80032 0.06783 0.0
O190 O 0.6764 0.75141 0.12196 0.0
O191 O 0.69259 0.77024 0.05736 0.0
H192 H 0.67168 0.83932 0.86944 0.0
H193 H 0.66468 0.82968 0.79097 0.0
H194 H 0.66192 0.71741 0.81176 0.0
H195 H 0.66947 0.72748 0.89029 0.0
H196 H 0.63043 0.69016 0.24478 0.0
H197 H 0.63851 0.69612 0.32343 0.0
H198 H 0.65748 0.80659 0.30328 0.0
H199 H 0.64938 0.80059 0.22448 0.0
Nd200 Nd 0.36693 0.75047 1.01259 0.0
Nd201 Nd 0.38529 0.75579 0.09883 0.0
C202 C 0.35741 0.73644 0.92848 0.0
C203 C 0.36509 0.74246 0.88273 0.0
C204 C 0.36827 0.71355 0.85634 0.0
C205 C 0.37336 0.71814 0.81152 0.0
C206 C 0.37537 0.75182 0.79195 0.0
C207 C 0.3731 0.78092 0.81902 0.0
C208 C 0.36799 0.77631 0.86381 0.0
C209 C 0.37229 0.81869 0.04216 0.0
C210 C 0.41499 0.76116 0.02187 0.0
C211 C 0.39402 0.76812 0.18316 0.0
C212 C 0.38492 0.76171 0.22735 0.0
C213 C 0.38073 0.79039 0.25295 0.0
C214 C 0.37442 0.78549 0.29685 0.0
C215 C 0.3722 0.75174 0.31617 0.0
C216 C 0.37515 0.72278 0.28952 0.0
C217 C 0.38147 0.72769 0.24561 0.0
C218 C 0.37937 0.6878 0.06676 0.0
C219 C 0.3386 0.75324 0.09635 0.0
O220 O 0.36576 0.71526 0.95394 0.0
O221 O 0.35234 0.76327 0.95018 0.0
O222 O 0.35705 0.8044 0.022 0.0
O223 O 0.38477 0.79732 0.04492 0.0
O224 O 0.3999 0.74672 0.99894 0.0
O225 O 0.41267 0.77384 0.06152 0.0
O226 O 0.3869 0.79082 0.15744 0.0
O227 O 0.39893 0.74109 0.16145 0.0
O228 O 0.39476 0.70113 0.08723 0.0
O229 O 0.36706 0.70942 0.0653 0.0
O230 O 0.3548 0.76486 0.11583 0.0
O231 O 0.33887 0.73975 0.05588 0.0
H232 H 0.36615 0.68715 0.87002 0.0
H233 H 0.3748 0.69504 0.79179 0.0
H234 H 0.37489 0.80731 0.80538 0.0
H235 H 0.36582 0.79923 0.88324 0.0
H236 H 0.38312 0.81687 0.2396 0.0
H237 H 0.3724 0.80844 0.31635 0.0
H238 H 0.3732 0.69636 0.30309 0.0
H239 H 0.38426 0.70492 0.22657 0.0
Nd240 Nd 0.6477 0.25576 0.93413 0.0
Nd241 Nd 0.66595 0.26369 0.02541 0.0
C242 C 0.63827 0.24417 0.85037 0.0
C243 C 0.64783 0.24696 0.8065 0.0
C244 C 0.653 0.21664 0.78591 0.0
C245 C 0.65946 0.21795 0.74205 0.0
C246 C 0.66081 0.24958 0.7179 0.0
C247 C 0.65696 0.28044 0.73935 0.0
C248 C 0.65046 0.27915 0.78327 0.0
C249 C 0.6508 0.32204 0.97031 0.0
C250 C 0.69493 0.26529 0.93832 0.0
C251 C 0.67494 0.29026 0.1046 0.0
C252 C 0.66941 0.28387 0.15178 0.0
C253 C 0.66458 0.31214 0.17719 0.0
C254 C 0.66051 0.30798 0.22246 0.0
C255 C 0.66108 0.2753 0.24349 0.0
C256 C 0.66504 0.24645 0.21771 0.0
C257 C 0.66922 0.2507 0.17224 0.0
C258 C 0.65941 0.19251 1.01128 0.0
C259 C 0.6182 0.24682 1.01255 0.0
O260 O 0.64274 0.21948 0.87723 0.0
O261 O 0.63615 0.27348 0.87079 0.0
O262 O 0.63524 0.30703 0.95174 0.0
O263 O 0.66385 0.30199 0.97013 0.0
O264 O 0.67926 0.25822 0.91446 0.0
O265 O 0.69417 0.27069 0.98194 0.0
O266 O 0.66194 0.3017 0.07891 0.0
O267 O 0.68482 0.26776 0.08483 0.0
O268 O 0.66702 0.20693 0.04674 0.0
O269 O 0.65526 0.21566 0.98392 0.0
O270 O 0.63256 0.26348 0.03593 0.0
O271 O 0.62135 0.23406 0.97326 0.0
H272 H 0.65127 0.19153 0.80304 0.0
H273 H 0.66255 0.19388 0.72631 0.0
H274 H 0.65775 0.30513 0.72135 0.0
H275 H 0.64669 0.30306 0.79823 0.0
H276 H 0.66436 0.33776 0.16207 0.0
H277 H 0.65724 0.33056 0.24128 0.0
H278 H 0.66565 0.22098 0.23305 0.0
H279 H 0.67267 0.22826 0.15339 0.0
Nd280 Nd 0.38645 0.25947 0.93522 0.0
Nd281 Nd 0.36672 0.24612 0.02687 0.0
C282 C 0.39479 0.28029 0.85339 0.0
C283 C 0.38627 0.27249 0.80923 0.0
C284 C 0.3774 0.29832 0.78642 0.0
C285 C 0.3714 0.29288 0.74252 0.0
C286 C 0.37437 0.26167 0.72083 0.0
C287 C 0.38187 0.23485 0.74461 0.0
C288 C 0.38771 0.24012 0.7885 0.0
C289 C 0.38047 0.18978 0.96209 0.0
C290 C 0.3391 0.2491 0.93787 0.0
C291 C 0.35765 0.21769 0.10537 0.0
C292 C 0.36204 0.22555 0.15272 0.0
C293 C 0.37183 0.20221 0.17774 0.0
C294 C 0.3754 0.20797 0.22296 0.0
C295 C 0.3691 0.23705 0.24429 0.0
C296 C 0.35992 0.26111 0.21895 0.0
C297 C 0.35649 0.25552 0.17361 0.0
C298 C 0.37601 0.3179 1.01761 0.0
C299 C 0.41457 0.25988 1.01497 0.0
O300 O 0.38489 0.29776 0.88052 0.0
O301 O 0.40295 0.2554 0.87316 0.0
O302 O 0.39528 0.2034 0.9392 0.0
O303 O 0.36878 0.21205 0.96747 0.0
O304 O 0.35528 0.25942 0.91698 0.0
O305 O 0.33897 0.24023 0.98089 0.0
O306 O 0.37209 0.20968 0.08129 0.0
O307 O 0.34649 0.23731 0.08399 0.0
O308 O 0.36742 0.30286 0.0519 0.0
O309 O 0.3793 0.29491 0.98979 0.0
O310 O 0.39975 0.24121 0.03501 0.0
O311 O 0.41228 0.27689 0.97788 0.0
H312 H 0.37589 0.32332 0.80186 0.0
H313 H 0.3657 0.31393 0.72465 0.0
H314 H 0.38412 0.21046 0.72843 0.0
H315 H 0.3941 0.21939 0.8054 0.0
H316 H 0.37639 0.17903 0.16243 0.0
H317 H 0.38241 0.18888 0.24161 0.0
H318 H 0.35516 0.28406 0.23439 0.0
H319 H 0.34922 0.27435 0.15519 0.0
H320 H 0.23353 0.26627 0.58083 0.0
H321 H 0.25852 0.26472 0.63866 0.0
H322 H 0.21465 0.26278 0.74 0.0
H323 H 0.1905 0.26643 0.68378 0.0
H324 H 0.2426 0.30082 0.7693 0.0
H325 H 0.23773 0.18712 0.69524 0.0
H326 H 0.24103 0.14668 0.63299 0.0
H327 H 0.30129 0.18411 0.62237 0.0
H328 H 0.29823 0.22554 0.68362 0.0
H329 H 0.29925 0.25067 0.95572 0.0
H330 H 0.27349 0.25203 0.89965 0.0
H331 H 0.31537 0.24531 0.79542 0.0
H332 H 0.33981 0.24051 0.84935 0.0
H333 H 0.28764 0.21062 0.76804 0.0
H334 H 0.29321 0.32671 0.83616 0.0
H335 H 0.29083 0.36971 0.89608 0.0
H336 H 0.23124 0.33035 0.91588 0.0
H337 H 0.23336 0.2869 0.85645 0.0
C338 C 0.22943 0.26647 0.61548 0.0
C339 C 0.20995 0.26645 0.62743 0.0
C340 C 0.24366 0.26494 0.6487 0.0
C341 C 0.23861 0.26298 0.69433 0.0
C342 C 0.21924 0.26428 0.70561 0.0
C343 C 0.2053 0.26623 0.673 0.0
C344 C 0.25288 0.25938 0.73118 0.0
C345 C 0.25238 0.28086 0.76892 0.0
C346 C 0.26606 0.23398 0.73121 0.0
C347 C 0.26768 0.20972 0.69363 0.0
C348 C 0.25162 0.187 0.67929 0.0
C349 C 0.25347 0.16383 0.64425 0.0
C350 C 0.27136 0.16276 0.62379 0.0
C351 C 0.28743 0.18499 0.63817 0.0
C352 C 0.28563 0.20839 0.67294 0.0
C353 C 0.30273 0.24866 0.92088 0.0
C354 C 0.32184 0.2459 0.90767 0.0
C355 C 0.28806 0.25008 0.88854 0.0
C356 C 0.29229 0.24944 0.84245 0.0
C357 C 0.31126 0.2457 0.83009 0.0
C358 C 0.3255 0.24335 0.8617 0.0
C359 C 0.27768 0.25257 0.806 0.0
C360 C 0.278 0.2308 0.7684 0.0
C361 C 0.26455 0.27806 0.80578 0.0
C362 C 0.26353 0.30331 0.84239 0.0
C363 C 0.27968 0.32702 0.85366 0.0
C364 C 0.27836 0.35151 0.88744 0.0
C365 C 0.26092 0.35268 0.90987 0.0
C366 C 0.24476 0.32935 0.89859 0.0
C367 C 0.24601 0.30479 0.86491 0.0
H368 H 0.25991 0.37173 0.93591 0.0
H369 H 0.27276 0.14467 0.59683 0.0
H370 H 0.72438 0.22332 0.9405 0.0
H371 H 0.74851 0.21898 0.88185 0.0
H372 H 0.72954 0.30864 0.81538 0.0
H373 H 0.70526 0.31215 0.87308 0.0
H374 H 0.73162 0.26201 0.75695 0.0
H375 H 0.77638 0.30817 0.86909 0.0
H376 H 0.79245 0.31052 0.942 0.0
H377 H 0.80936 0.20775 0.92078 0.0
H378 H 0.79338 0.2048 0.84783 0.0
H379 H 0.8081 0.28605 0.59286 0.0
H380 H 0.78399 0.29038 0.65152 0.0
H381 H 0.80219 0.19947 0.71651 0.0
H382 H 0.82638 0.19577 0.65853 0.0
H383 H 0.8005 0.24665 0.77571 0.0
H384 H 0.75639 0.20185 0.66187 0.0
H385 H 0.74012 0.19998 0.58926 0.0
H386 H 0.72147 0.30092 0.61398 0.0
H387 H 0.73787 0.30363 0.68645 0.0
C388 C 0.72596 0.24296 0.91436 0.0
C389 C 0.71327 0.26879 0.91231 0.0
C390 C 0.73969 0.24033 0.88039 0.0
C391 C 0.74114 0.26358 0.84361 0.0
C392 C 0.72892 0.29021 0.84286 0.0
C393 C 0.71518 0.29262 0.87643 0.0
C394 C 0.75432 0.25917 0.80457 0.0
C395 C 0.74677 0.25921 0.76124 0.0
C396 C 0.77404 0.25447 0.80932 0.0
C397 C 0.78355 0.25614 0.85324 0.0
C398 C 0.78343 0.286 0.88013 0.0
C399 C 0.79258 0.28749 0.9214 0.0
C400 C 0.80193 0.25931 0.93603 0.0
C401 C 0.80216 0.2296 0.90941 0.0
C402 C 0.7931 0.22803 0.86807 0.0
C403 C 0.80629 0.26604 0.61853 0.0
C404 C 0.81869 0.23969 0.61992 0.0
C405 C 0.79261 0.26873 0.65257 0.0
C406 C 0.79097 0.24514 0.68898 0.0
C407 C 0.80294 0.2181 0.68923 0.0
C408 C 0.81659 0.21554 0.65545 0.0
C409 C 0.77781 0.24958 0.72804 0.0
C410 C 0.78536 0.24952 0.77139 0.0
C411 C 0.75809 0.25442 0.72327 0.0
C412 C 0.74856 0.25311 0.67935 0.0
C413 C 0.749 0.22381 0.65161 0.0
C414 C 0.73971 0.22257 0.61052 0.0
C415 C 0.72979 0.25034 0.59697 0.0
C416 C 0.72916 0.27943 0.62448 0.0
C417 C 0.73846 0.28084 0.66555 0.0
H418 H 0.72257 0.24929 0.5652 0.0
H419 H 0.80903 0.26053 0.96796 0.0
H420 H 0.30124 0.71639 0.09168 0.0
H421 H 0.27527 0.71825 0.14761 0.0
H422 H 0.31088 0.79871 0.21889 0.0
H423 H 0.33593 0.79818 0.16387 0.0
H424 H 0.29729 0.73718 0.27027 0.0
H425 H 0.27467 0.8212 0.16753 0.0
H426 H 0.26203 0.83965 0.09597 0.0
H427 H 0.21323 0.76068 0.10887 0.0
H428 H 0.22572 0.74144 0.18023 0.0
H429 H 0.23104 0.79251 0.44111 0.0
H430 H 0.25616 0.79248 0.38274 0.0
H431 H 0.2185 0.71776 0.30741 0.0
H432 H 0.19439 0.71601 0.3651 0.0
H433 H 0.23262 0.77677 0.25682 0.0
H434 H 0.25203 0.68735 0.34397 0.0
H435 H 0.26409 0.65078 0.40236 0.0
H436 H 0.3161 0.72241 0.41131 0.0
H437 H 0.30414 0.76002 0.35333 0.0
C438 C 0.30326 0.73503 0.11865 0.0
C439 C 0.32088 0.7567 0.12329 0.0
C440 C 0.28848 0.73597 0.15076 0.0
C441 C 0.29123 0.7584 0.1879 0.0
C442 C 0.3084 0.78101 0.19099 0.0
C443 C 0.3228 0.7805 0.15914 0.0
C444 C 0.27726 0.75737 0.22573 0.0
C445 C 0.28327 0.7465 0.26748 0.0
C446 C 0.25867 0.76812 0.2219 0.0
C447 C 0.25127 0.77958 0.17891 0.0
C448 C 0.26137 0.8075 0.15486 0.0
C449 C 0.25418 0.81818 0.1144 0.0
C450 C 0.23684 0.80132 0.09784 0.0
C451 C 0.22664 0.77374 0.12173 0.0
C452 C 0.23377 0.76294 0.16217 0.0
C453 C 0.22842 0.77536 0.41276 0.0
C454 C 0.21053 0.75457 0.40793 0.0
C455 C 0.24267 0.77562 0.37913 0.0
C456 C 0.23905 0.7556 0.34007 0.0
C457 C 0.2216 0.73386 0.33659 0.0
C458 C 0.20779 0.73292 0.37007 0.0
C459 C 0.25286 0.75729 0.30176 0.0
C460 C 0.2468 0.76819 0.2599 0.0
C461 C 0.27117 0.74538 0.30504 0.0
C462 C 0.27704 0.72679 0.34488 0.0
C463 C 0.26575 0.696 0.35938 0.0
C464 C 0.27264 0.67489 0.39205 0.0
C465 C 0.2909 0.68409 0.41005 0.0
C466 C 0.30199 0.71526 0.39699 0.0
C467 C 0.29513 0.73658 0.36438 0.0
H468 H 0.2965 0.66664 0.43357 0.0
H469 H 0.23129 0.80966 0.06655 0.0
H470 H 0.70508 0.70329 0.13715 0.0
H471 H 0.72966 0.70166 0.19447 0.0
H472 H 0.74325 0.8143 0.18396 0.0
H473 H 0.71924 0.81545 0.12463 0.0
H474 H 0.77439 0.78836 0.19885 0.0
H475 H 0.71222 0.76585 0.26754 0.0
H476 H 0.67998 0.73334 0.27475 0.0
H477 H 0.70453 0.6394 0.30901 0.0
H478 H 0.73718 0.67095 0.29916 0.0
H479 H 0.82951 0.80902 0.39317 0.0
H480 H 0.80451 0.81114 0.33727 0.0
H481 H 0.78576 0.70094 0.35958 0.0
H482 H 0.8103 0.6996 0.41774 0.0
H483 H 0.75618 0.72581 0.33989 0.0
H484 H 0.8135 0.73643 0.25063 0.0
H485 H 0.84418 0.75656 0.21439 0.0
H486 H 0.8297 0.86245 0.21103 0.0
H487 H 0.79831 0.84228 0.2461 0.0
C488 C 0.71379 0.72755 0.1461 0.0
C489 C 0.7105 0.75939 0.12573 0.0
C490 C 0.7276 0.72674 0.17967 0.0
C491 C 0.73801 0.75799 0.19522 0.0
C492 C 0.73538 0.78972 0.17325 0.0
C493 C 0.72178 0.79041 0.13889 0.0
C494 C 0.75154 0.75772 0.23421 0.0
C495 C 0.77017 0.77534 0.23005 0.0
C496 C 0.74662 0.73937 0.2746 0.0
C497 C 0.72712 0.72073 0.28236 0.0
C498 C 0.71077 0.73823 0.27648 0.0
C499 C 0.69239 0.71993 0.28102 0.0
C500 C 0.6901 0.68438 0.2929 0.0
C501 C 0.70629 0.66696 0.29992 0.0
C502 C 0.72476 0.68499 0.29458 0.0
C503 C 0.81967 0.78548 0.38704 0.0
C504 C 0.82167 0.75435 0.41064 0.0
C505 C 0.80558 0.78645 0.35411 0.0
C506 C 0.79338 0.75595 0.34239 0.0
C507 C 0.79487 0.72501 0.36733 0.0
C508 C 0.80882 0.72424 0.40107 0.0
C509 C 0.77921 0.75654 0.30448 0.0
C510 C 0.76038 0.73919 0.30897 0.0
C511 C 0.78399 0.77443 0.26381 0.0
C512 C 0.80388 0.78803 0.25171 0.0
C513 C 0.81712 0.76416 0.24332 0.0
C514 C 0.83456 0.77557 0.22244 0.0
C515 C 0.83906 0.81092 0.21048 0.0
C516 C 0.82623 0.8351 0.22034 0.0
C517 C 0.80858 0.82368 0.24056 0.0
H518 H 0.85226 0.81957 0.19286 0.0
H519 H 0.67579 0.67034 0.29651 0.0
H520 H 0.1232 0.85554 0.50962 0.0
H521 H 0.12559 0.91689 0.53282 0.0
H522 H 0.18533 0.93191 0.49251 0.0
H523 H 0.18323 0.86948 0.47215 0.0
H524 H 0.18154 0.97171 0.56016 0.0
H525 H 0.1466 0.95411 0.42364 0.0
H526 H 0.12118 0.92542 0.37486 0.0
H527 H 0.07769 0.95646 0.46224 0.0
H528 H 0.10288 0.98497 0.51182 0.0
H529 H 0.19008 0.15299 0.5127 0.0
H530 H 0.18788 0.08936 0.51269 0.0
H531 H 0.12937 0.08273 0.56093 0.0
H532 H 0.13132 0.14741 0.55941 0.0
H533 H 0.13174 0.03849 0.49512 0.0
H534 H 0.16879 0.06193 0.62823 0.0
H535 H 0.19545 0.09075 0.67348 0.0
H536 H 0.23659 0.05081 0.58714 0.0
H537 H 0.21018 0.02202 0.54112 0.0
C538 C 0.13691 0.87185 0.50627 0.0
C539 C 0.15295 0.85799 0.48844 0.0
C540 C 0.13826 0.90703 0.51928 0.0
C541 C 0.15545 0.92963 0.51296 0.0
C542 C 0.17182 0.91526 0.49736 0.0
C543 C 0.17062 0.87962 0.48559 0.0
C544 C 0.15592 0.96837 0.52009 0.0
C545 C 0.17073 0.98631 0.54563 0.0
C546 C 0.14172 0.98771 0.5018 0.0
C547 C 0.12658 0.97139 0.47154 0.0
C548 C 0.1316 0.95471 0.43247 0.0
C549 C 0.11725 0.93848 0.40471 0.0
C550 C 0.09784 0.93906 0.41549 0.0
C551 C 0.09274 0.95601 0.45396 0.0
C552 C 0.10704 0.97224 0.48187 0.0
C553 C 0.17672 0.13814 0.52363 0.0
C554 C 0.16083 0.15529 0.53592 0.0
C555 C 0.17557 0.10157 0.52404 0.0
C556 C 0.15861 0.08099 0.53766 0.0
C557 C 0.14269 0.09801 0.55057 0.0
C558 C 0.14379 0.13492 0.5498 0.0
C559 C 0.15728 0.04185 0.53532 0.0
C560 C 0.14239 0.02385 0.51028 0.0
C561 C 0.1716 0.02269 0.55349 0.0
C562 C 0.1875 0.03985 0.58124 0.0
C563 C 0.18352 0.05942 0.6188 0.0
C564 C 0.19859 0.07573 0.64459 0.0
C565 C 0.21769 0.07252 0.63325 0.0
C566 C 0.22178 0.05315 0.59597 0.0
C567 C 0.20677 0.03677 0.57009 0.0
H568 H 0.22933 0.08495 0.65344 0.0
H569 H 0.08674 0.92642 0.39399 0.0
H570 H 0.90097 0.363 0.56679 0.0
H571 H 0.90152 0.42764 0.5698 0.0
H572 H 0.84475 0.41848 0.51204 0.0
H573 H 0.84426 0.35496 0.50883 0.0
H574 H 0.86975 0.46248 0.46473 0.0
H575 H 0.85128 0.44439 0.61612 0.0
H576 H 0.8539 0.42306 0.69287 0.0
H577 H 0.908 0.48796 0.70764 0.0
H578 H 0.90589 0.50915 0.63057 0.0
H579 H 0.84932 0.64028 0.47119 0.0
H580 H 0.84674 0.57746 0.49096 0.0
H581 H 0.90604 0.5905 0.53324 0.0
H582 H 0.90883 0.65282 0.51221 0.0
H583 H 0.88026 0.5453 0.59074 0.0
H584 H 0.89806 0.5621 0.43707 0.0
H585 H 0.89464 0.58215 0.36001 0.0
H586 H 0.84019 0.51765 0.3498 0.0
H587 H 0.84306 0.4979 0.42728 0.0
C588 C 0.88844 0.37488 0.55618 0.0
C589 C 0.87258 0.35407 0.53754 0.0
C590 C 0.88877 0.41176 0.55761 0.0
C591 C 0.87323 0.42802 0.54064 0.0
C592 C 0.85699 0.40676 0.52486 0.0
C593 C 0.85669 0.37037 0.52328 0.0
C594 C 0.87421 0.46698 0.53526 0.0
C595 C 0.87181 0.48047 0.49249 0.0
C596 C 0.87722 0.49067 0.57115 0.0
C597 C 0.87856 0.47798 0.6174 0.0
C598 C 0.86385 0.45381 0.63555 0.0
C599 C 0.86522 0.44179 0.67914 0.0
C600 C 0.88114 0.45405 0.70507 0.0
C601 C 0.8957 0.47841 0.68748 0.0
C602 C 0.89443 0.49043 0.64383 0.0
C603 C 0.86169 0.62978 0.48528 0.0
C604 C 0.87932 0.65127 0.4898 0.0
C605 C 0.86022 0.59393 0.49653 0.0
C606 C 0.87624 0.57921 0.51343 0.0
C607 C 0.8935 0.60121 0.52032 0.0
C608 C 0.8951 0.63675 0.50807 0.0
C609 C 0.87557 0.54051 0.52035 0.0
C610 C 0.87812 0.52716 0.56317 0.0
C611 C 0.87251 0.51675 0.48455 0.0
C612 C 0.87063 0.52899 0.43821 0.0
C613 C 0.88522 0.55261 0.41863 0.0
C614 C 0.8834 0.56385 0.37483 0.0
C615 C 0.86717 0.5513 0.35008 0.0
C616 C 0.85272 0.52746 0.36908 0.0
C617 C 0.85442 0.51629 0.41296 0.0
H618 H 0.86581 0.55995 0.31611 0.0
H619 H 0.88217 0.44474 0.73884 0.0
H620 H 0.88128 0.86128 0.43667 0.0
H621 H 0.8808 0.92575 0.43332 0.0
H622 H 0.87452 0.92796 0.57565 0.0
H623 H 0.87499 0.86483 0.57912 0.0
H624 H 0.84728 0.96145 0.53362 0.0
H625 H 0.91675 0.95795 0.52726 0.0
H626 H 0.94615 0.94059 0.49251 0.0
H627 H 0.93391 0.99479 0.3727 0.0
H628 H 0.90429 0.01208 0.40667 0.0
H629 H 0.87074 0.12677 0.62935 0.0
H630 H 0.86928 0.06607 0.60342 0.0
H631 H 0.87861 0.10324 0.46892 0.0
H632 H 0.88093 0.16404 0.49553 0.0
H633 H 0.9007 0.05131 0.48719 0.0
H634 H 0.83381 0.0627 0.49865 0.0
H635 H 0.80399 0.0786 0.53295 0.0
H636 H 0.81063 0.00827 0.64173 0.0
H637 H 0.84058 0.99221 0.60828 0.0
C638 C 0.88015 0.87579 0.46714 0.0
C639 C 0.87806 0.85797 0.50813 0.0
C640 C 0.87979 0.91253 0.46522 0.0
C641 C 0.87739 0.9317 0.50428 0.0
C642 C 0.87611 0.91384 0.54504 0.0
C643 C 0.87647 0.87762 0.54694 0.0
C644 C 0.87552 0.9701 0.50411 0.0
C645 C 0.85898 0.98109 0.52342 0.0
C646 C 0.8904 0.99587 0.48939 0.0
C647 C 0.90826 0.98596 0.46927 0.0
C648 C 0.92029 0.96595 0.4934 0.0
C649 C 0.93699 0.95616 0.47389 0.0
C650 C 0.94187 0.96649 0.43038 0.0
C651 C 0.93009 0.98675 0.40637 0.0
C652 C 0.91336 0.99657 0.42574 0.0
C653 C 0.87227 0.122 0.5942 0.0
C654 C 0.87523 0.15028 0.5642 0.0
C655 C 0.87134 0.08725 0.5793 0.0
C656 C 0.87343 0.07983 0.53397 0.0
C657 C 0.87666 0.1081 0.50393 0.0
C658 C 0.87755 0.14293 0.51897 0.0
C659 C 0.87283 0.04254 0.5189 0.0
C660 C 0.88881 0.03179 0.49653 0.0
C661 C 0.8574 0.01679 0.53078 0.0
C662 C 0.83947 0.02644 0.5511 0.0
C663 C 0.82896 0.05082 0.53003 0.0
C664 C 0.81203 0.05981 0.54928 0.0
C665 C 0.80543 0.0445 0.58953 0.0
C666 C 0.81574 0.02011 0.61056 0.0
C667 C 0.83267 0.011 0.59143 0.0
H668 H 0.79232 0.05151 0.6044 0.0
H669 H 0.9548 0.95887 0.41531 0.0
H670 H 0.16019 0.65134 0.43561 0.0
H671 H 0.16117 0.58712 0.43397 0.0
H672 H 0.14723 0.58107 0.57361 0.0
H673 H 0.14683 0.64445 0.57543 0.0
H674 H 0.17783 0.54939 0.55816 0.0
H675 H 0.11484 0.54988 0.48939 0.0
H676 H 0.09306 0.56689 0.43095 0.0
H677 H 0.12575 0.51893 0.33236 0.0
H678 H 0.14786 0.50205 0.39024 0.0
H679 H 0.13646 0.37475 0.61097 0.0
H680 H 0.13971 0.43691 0.58904 0.0
H681 H 0.17622 0.41521 0.47965 0.0
H682 H 0.17412 0.35328 0.50347 0.0
H683 H 0.13939 0.45969 0.46636 0.0
H684 H 0.20053 0.45449 0.53576 0.0
H685 H 0.22281 0.43859 0.59367 0.0
H686 H 0.19449 0.4972 0.68975 0.0
H687 H 0.17174 0.51277 0.63255 0.0
C688 C 0.15686 0.63598 0.46551 0.0
C689 C 0.1534 0.65274 0.50565 0.0
C690 C 0.15752 0.59936 0.46467 0.0
C691 C 0.15443 0.57914 0.50383 0.0
C692 C 0.14991 0.59595 0.5431 0.0
C693 C 0.14954 0.63221 0.54404 0.0
C694 C 0.15689 0.54095 0.50577 0.0
C695 C 0.16935 0.52988 0.53806 0.0
C696 C 0.14649 0.51532 0.47853 0.0
C697 C 0.13309 0.52507 0.44398 0.0
C698 C 0.11744 0.54319 0.4552 0.0
C699 C 0.10503 0.55277 0.4222 0.0
C700 C 0.10805 0.54409 0.37795 0.0
C701 C 0.12345 0.52569 0.36663 0.0
C702 C 0.13591 0.51609 0.39951 0.0
C703 C 0.14526 0.38325 0.58238 0.0
C704 C 0.15491 0.3591 0.55875 0.0
C705 C 0.14705 0.41871 0.5698 0.0
C706 C 0.15804 0.4306 0.53246 0.0
C707 C 0.16759 0.40653 0.50842 0.0
C708 C 0.16638 0.3712 0.52206 0.0
C709 C 0.1597 0.46846 0.5199 0.0
C710 C 0.14808 0.47938 0.48581 0.0
C711 C 0.17091 0.49413 0.54535 0.0
C712 C 0.18426 0.48428 0.58005 0.0
C713 C 0.19886 0.46349 0.5694 0.0
C714 C 0.21162 0.45465 0.60205 0.0
C715 C 0.21002 0.46675 0.64541 0.0
C716 C 0.19567 0.48774 0.65619 0.0
C717 C 0.18283 0.49655 0.62367 0.0
H718 H 0.21995 0.45996 0.67063 0.0
H719 H 0.09843 0.55155 0.35244 0.0
H720 H 0.68813 0.65572 1.01629 0.0
H721 H 0.68824 0.59214 0.0194 0.0
H722 H 0.62781 0.5794 0.05361 0.0
H723 H 0.62796 0.64388 0.05244 0.0
H724 H 0.64621 0.53012 0.09513 0.0
H725 H 0.64314 0.57196 0.94494 0.0
H726 H 0.65361 0.60946 0.88052 0.0
H727 H 0.7086 0.57005 0.8815 0.0
H728 H 0.69854 0.53268 0.94635 0.0
H729 H 0.62236 0.35961 0.99753 0.0
H730 H 0.62537 0.42147 0.01984 0.0
H731 H 0.68702 0.42881 1.00341 0.0
H732 H 0.6841 0.36648 0.98221 0.0
H733 H 0.66912 0.48023 0.95574 0.0
H734 H 0.67204 0.43681 0.10338 0.0
H735 H 0.66227 0.4003 0.16899 0.0
H736 H 0.60783 0.44157 0.17214 0.0
H737 H 0.61729 0.47844 0.1065 0.0
C738 C 0.67496 0.63938 0.02541 0.0
C739 C 0.65801 0.65454 0.03391 0.0
C740 C 0.67499 0.60301 0.0269 0.0
C741 C 0.65791 0.58079 0.03542 0.0
C742 C 0.64115 0.59597 0.04661 0.0
C743 C 0.64122 0.63272 0.04605 0.0
C744 C 0.65745 0.54202 0.02952 0.0
C745 C 0.65096 0.5192 0.06443 0.0
C746 C 0.66414 0.52761 0.9899 0.0
C747 C 0.67015 0.54978 0.95067 0.0
C748 C 0.6575 0.57146 0.93155 0.0
C749 C 0.66336 0.59267 0.89497 0.0
C750 C 0.68178 0.59219 0.87698 0.0
C751 C 0.69435 0.57042 0.89549 0.0
C752 C 0.68858 0.54921 0.93213 0.0
C753 C 0.63658 0.37431 0.99924 0.0
C754 C 0.65298 0.35839 0.98772 0.0
C755 C 0.63829 0.40958 1.01224 0.0
C756 C 0.65641 0.4298 1.0133 0.0
C757 C 0.6729 0.41368 1.00291 0.0
C758 C 0.67122 0.37812 0.99083 0.0
C759 C 0.65784 0.46835 0.02125 0.0
C760 C 0.66443 0.49114 0.98653 0.0
C761 C 0.65121 0.4826 0.06089 0.0
C762 C 0.64527 0.46002 0.09972 0.0
C763 C 0.65789 0.43779 0.11775 0.0
C764 C 0.65243 0.4171 0.15501 0.0
C765 C 0.63438 0.41836 0.1745 0.0
C766 C 0.62178 0.44051 0.15691 0.0
C767 C 0.62721 0.46139 0.11976 0.0
H768 H 0.63018 0.4023 0.20336 0.0
H769 H 0.68628 0.60864 0.84866 0.0
H770 H 0.38234 0.85925 0.97069 0.0
H771 H 0.38333 0.92314 0.96482 0.0
H772 H 0.37167 0.92877 0.10514 0.0
H773 H 0.37031 0.8643 0.11065 0.0
H774 H 0.34938 0.96849 0.0584 0.0
H775 H 0.41666 0.95719 0.06278 0.0
H776 H 0.44628 0.93273 0.04052 0.0
H777 H 0.44026 0.97042 0.90743 0.0
H778 H 0.41042 0.99455 0.92873 0.0
H779 H 0.36231 0.15823 0.03594 0.0
H780 H 0.36154 0.09689 0.05919 0.0
H781 H 0.38618 0.07301 0.93283 0.0
H782 H 0.38961 0.13514 0.9131 0.0
H783 H 0.40356 0.04302 0.98625 0.0
H784 H 0.33401 0.04968 0.98011 0.0
H785 H 0.30321 0.0701 1.00222 0.0
H786 H 0.31228 0.03961 0.13713 0.0
H787 H 0.34326 0.01958 0.11597 0.0
C788 C 0.38056 0.87431 1.00046 0.0
C789 C 0.37684 0.85719 0.04135 0.0
C790 C 0.38101 0.91079 0.9971 0.0
C791 C 0.37783 0.931 0.03465 0.0
C792 C 0.37429 0.91385 0.07577 0.0
C793 C 0.37379 0.87717 0.07907 0.0
C794 C 0.37773 0.96982 0.03019 0.0
C795 C 0.36129 0.98502 0.04304 0.0
C796 C 0.39315 0.99136 1.00992 0.0
C797 C 0.41128 0.9775 0.99731 0.0
C798 C 0.42162 0.9601 0.02873 0.0
C799 C 0.43844 0.94629 1.01627 0.0
C800 C 0.44514 0.94998 0.97258 0.0
C801 C 0.43506 0.96757 0.94126 0.0
C802 C 0.4182 0.98135 0.95352 0.0
C803 C 0.36786 0.13996 1.01363 0.0
C804 C 0.37668 0.15179 0.97344 0.0
C805 C 0.36701 0.10447 0.02649 0.0
C806 C 0.37377 0.07956 0.99794 0.0
C807 C 0.38122 0.09134 0.95626 0.0
C808 C 0.38308 0.12697 0.94469 0.0
C809 C 0.37458 0.04192 1.01157 0.0
C810 C 0.39143 0.02685 1.00123 0.0
C811 C 0.35941 0.0206 0.03385 0.0
C812 C 0.34107 0.03363 0.04654 0.0
C813 C 0.32953 0.04772 1.01456 0.0
C814 C 0.31202 0.05916 0.02692 0.0
C815 C 0.30583 0.05628 0.07107 0.0
C816 C 0.31712 0.04196 0.10298 0.0
C817 C 0.33466 0.03061 0.09083 0.0
H818 H 0.29225 0.06505 0.08053 0.0
H819 H 0.45816 0.93924 0.96299 0.0
H820 H 0.37776 0.35779 0.9404 0.0
H821 H 0.37705 0.42206 0.93568 0.0
H822 H 0.37981 0.42833 0.07847 0.0
H823 H 0.38025 0.36506 0.08318 0.0
H824 H 0.35014 0.45961 0.0461 0.0
H825 H 0.4181 0.4575 1.01325 0.0
H826 H 0.44515 0.44055 0.96882 0.0
H827 H 0.42463 0.49197 0.8545 0.0
H828 H 0.39726 0.50873 0.89815 0.0
H829 H 0.38011 0.63135 0.1209 0.0
H830 H 0.37761 0.56913 0.1001 0.0
H831 H 0.36988 0.59731 0.96321 0.0
H832 H 0.37211 0.65937 0.98424 0.0
H833 H 0.39788 0.54942 0.97592 0.0
H834 H 0.33237 0.55794 1.01165 0.0
H835 H 0.3049 0.57381 0.0555 0.0
H836 H 0.32036 0.50924 0.16342 0.0
H837 H 0.34809 0.49341 0.12044 0.0
C838 C 0.37865 0.37318 0.97054 0.0
C839 C 0.37901 0.35654 1.01219 0.0
C840 C 0.37814 0.40979 0.96787 0.0
C841 C 0.37818 0.43002 1.00683 0.0
C842 C 0.37952 0.41334 0.04802 0.0
C843 C 0.37987 0.37715 0.05066 0.0
C844 C 0.37587 0.46819 1.00619 0.0
C845 C 0.36064 0.47921 0.03082 0.0
C846 C 0.38906 0.49382 0.98484 0.0
C847 C 0.40553 0.48396 0.95876 0.0
C848 C 0.41927 0.46491 0.97853 0.0
C849 C 0.43467 0.45538 0.95352 0.0
C850 C 0.43657 0.46507 0.90882 0.0
C851 C 0.42311 0.48441 0.88909 0.0
C852 C 0.40765 0.49392 0.91394 0.0
C853 C 0.37754 0.62416 0.08652 0.0
C854 C 0.37584 0.65019 0.05435 0.0
C855 C 0.37616 0.58866 0.0746 0.0
C856 C 0.37347 0.57847 0.03007 0.0
C857 C 0.37186 0.60447 0.99777 0.0
C858 C 0.37286 0.63997 1.00991 0.0
C859 C 0.37271 0.54068 0.0178 0.0
C860 C 0.38723 0.52979 0.99057 0.0
C861 C 0.35887 0.51497 0.03678 0.0
C862 C 0.34239 0.52476 0.06298 0.0
C863 C 0.33002 0.54742 0.0449 0.0
C864 C 0.31437 0.55634 0.06956 0.0
C865 C 0.31091 0.54261 0.11226 0.0
C866 C 0.32307 0.51989 0.13037 0.0
C867 C 0.33874 0.51091 0.10586 0.0
H868 H 0.29878 0.54951 0.13129 0.0
H869 H 0.44852 0.45769 0.88952 0.0
H870 H 0.63341 0.14728 0.96303 0.0
H871 H 0.63232 0.08261 0.95949 0.0
H872 H 0.68403 0.08827 0.03838 0.0
H873 H 0.68504 0.15181 0.04211 0.0
H874 H 0.68541 0.04127 0.97461 0.0
H875 H 0.64008 0.06938 0.08494 0.0
H876 H 0.61166 0.09419 0.11415 0.0
H877 H 0.57507 0.02947 0.0252 0.0
H878 H 0.60337 1.00478 0.99487 0.0
H879 H 0.68237 0.86988 0.07331 0.0
H880 H 0.68505 0.93212 0.05217 0.0
H881 H 0.62813 0.91536 0.99469 0.0
H882 H 0.62492 0.8542 0.01957 0.0
H883 H 0.62881 0.96837 0.03945 0.0
H884 H 0.67644 0.93587 0.93435 0.0
H885 H 0.70617 0.91269 0.90997 0.0
H886 H 0.73983 0.98602 0.99463 0.0
H887 H 0.7103 0.00929 0.01992 0.0
C888 C 0.64464 0.13457 0.97888 0.0
C889 C 0.65922 0.15443 1.00309 0.0
C890 C 0.64398 0.09771 0.97711 0.0
C891 C 0.65803 0.08048 0.99902 0.0
C892 C 0.67303 0.10075 0.02121 0.0
C893 C 0.67353 0.13714 0.0235 0.0
C894 C 0.6569 0.04138 1.00148 0.0
C895 C 0.67301 0.02519 0.98867 0.0
C896 C 0.64076 0.02034 0.01963 0.0
C897 C 0.62385 0.03572 0.03712 0.0
C898 C 0.62601 0.06081 0.0712 0.0
C899 C 0.60992 0.07478 0.08804 0.0
C900 C 0.59158 0.06354 0.0714 0.0
C901 C 0.58929 0.03828 0.03792 0.0
C902 C 0.60535 0.02433 0.02085 0.0
C903 C 0.67056 0.87958 0.05572 0.0
C904 C 0.65336 0.85743 0.04842 0.0
C905 C 0.67215 0.91517 0.04313 0.0
C906 C 0.65686 0.92891 0.02122 0.0
C907 C 0.64012 0.9059 1.01184 0.0
C908 C 0.63827 0.87082 0.02592 0.0
C909 C 0.65729 0.96753 1.01194 0.0
C910 C 0.64108 0.9839 0.0241 0.0
C911 C 0.67349 0.98874 0.99371 0.0
C912 C 0.69114 0.97408 0.97926 0.0
C913 C 0.69016 0.9468 0.94805 0.0
C914 C 0.70699 0.93371 0.93401 0.0
C915 C 0.72487 0.94783 0.9508 0.0
C916 C 0.72597 0.97507 0.98169 0.0
C917 C 0.7092 0.98822 0.99585 0.0
H918 H 0.73788 0.9377 0.93982 0.0
H919 H 0.57912 0.07432 0.08456 0.0
H920 H 0.15754 0.20976 0.23682 0.0
H921 H 0.15697 0.20679 0.15593 0.0
H922 H 0.15428 0.31838 0.14829 0.0
H923 H 0.1559 0.3222 0.22904 0.0
H924 H 0.12941 0.27469 0.08443 0.0
H925 H 0.19493 0.29779 0.1355 0.0
H926 H 0.22247 0.28681 0.18233 0.0
H927 H 0.22134 0.18341 0.12717 0.0
H928 H 0.1935 0.19357 0.08067 0.0
H929 H 0.16313 0.31037 0.86562 0.0
H930 H 0.16382 0.31252 0.94662 0.0
H931 H 0.16449 0.20028 0.95234 0.0
H932 H 0.16273 0.1974 0.87156 0.0
H933 H 0.19 0.24378 1.01657 0.0
H934 H 0.12474 0.21994 0.96554 0.0
H935 H 0.09858 0.23149 0.91488 0.0
H936 H 0.09963 0.33567 0.96757 0.0
H937 H 0.12617 0.32495 0.01789 0.0
C938 C 0.15691 0.23382 0.2182 0.0
C939 C 0.1571 0.26634 0.24001 0.0
C940 C 0.15635 0.23193 0.17185 0.0
C941 C 0.15567 0.26238 0.14615 0.0
C942 C 0.15469 0.29453 0.16756 0.0
C943 C 0.15556 0.29657 0.21393 0.0
C944 C 0.15795 0.26116 0.09718 0.0
C945 C 0.1427 0.26824 0.06965 0.0
C946 C 0.17517 0.25227 0.07775 0.0
C947 C 0.19203 0.24626 0.1051 0.0
C948 C 0.20045 0.27259 0.1337 0.0
C949 C 0.21611 0.26654 0.16013 0.0
C950 C 0.22361 0.23439 0.15784 0.0
C951 C 0.21549 0.20827 0.12899 0.0
C952 C 0.19976 0.21415 0.10261 0.0
C953 C 0.16345 0.28608 0.88395 0.0
C954 C 0.16252 0.25363 0.86181 0.0
C955 C 0.16404 0.28745 0.93024 0.0
C956 C 0.16404 0.25652 0.95529 0.0
C957 C 0.16456 0.22444 0.93346 0.0
C958 C 0.16364 0.22293 0.88716 0.0
C959 C 0.16152 0.25728 1.00404 0.0
C960 C 0.1767 0.25011 0.03145 0.0
C961 C 0.14422 0.26592 0.02326 0.0
C962 C 0.1275 0.27175 0.99522 0.0
C963 C 0.11942 0.24535 0.96622 0.0
C964 C 0.10456 0.25176 0.93752 0.0
C965 C 0.09746 0.28432 0.93795 0.0
C966 C 0.10515 0.31046 0.96727 0.0
C967 C 0.1201 0.30424 0.99591 0.0
H968 H 0.08598 0.28928 0.91561 0.0
H969 H 0.23576 0.22975 0.17833 0.0
H970 H 0.84536 0.20641 0.23044 0.0
H971 H 0.84612 0.21136 0.14974 0.0
H972 H 0.90032 0.27837 0.15695 0.0
H973 H 0.89888 0.2749 0.23852 0.0
H974 H 0.87879 0.30423 0.09992 0.0
H975 H 0.89663 0.18748 0.11835 0.0
H976 H 0.89417 0.12621 0.14546 0.0
H977 H 0.83789 0.10492 0.08772 0.0
H978 H 0.84002 0.16606 0.06037 0.0
H979 H 0.89966 0.29458 0.87303 0.0
H980 H 0.8992 0.28922 0.95364 0.0
H981 H 0.84327 0.22781 0.94762 0.0
H982 H 0.84422 0.23185 0.8659 0.0
H983 H 0.86593 0.19957 1.00323 0.0
H984 H 0.84871 0.31688 0.98364 0.0
H985 H 0.85314 0.37615 0.95 0.0
H986 H 0.90978 0.39512 1.00644 0.0
H987 H 0.90569 0.33588 0.04029 0.0
C988 C 0.85744 0.22207 0.21462 0.0
C989 C 0.87208 0.2402 0.24018 0.0
C990 C 0.85799 0.22462 0.16856 0.0
C991 C 0.87352 0.2445 0.14711 0.0
C992 C 0.88825 0.26269 0.17277 0.0
C993 C 0.88747 0.26073 0.21915 0.0
C994 C 0.87371 0.24757 0.09806 0.0
C995 C 0.87627 0.28127 0.07885 0.0
C996 C 0.86994 0.21777 0.07034 0.0
C997 C 0.86842 0.18134 0.08773 0.0
C998 C 0.88367 0.16978 0.11181 0.0
C999 C 0.88236 0.13506 0.12706 0.0
C1000 C 0.86586 0.11171 0.11842 0.0
C1001 C 0.85065 0.12302 0.09442 0.0
C1002 C 0.85192 0.15766 0.07895 0.0
C1003 C 0.88723 0.28018 0.88911 0.0
C1004 C 0.8719 0.26391 0.86401 0.0
C1005 C 0.8869 0.27732 0.93502 0.0
C1006 C 0.87095 0.25898 0.95662 0.0
C1007 C 0.85558 0.24244 0.93142 0.0
C1008 C 0.85609 0.24475 0.88511 0.0
C1009 C 0.87085 0.25604 1.00547 0.0
C1010 C 0.86836 0.22245 0.02451 0.0
C1011 C 0.87475 0.28586 0.03293 0.0
C1012 C 0.87689 0.32204 1.01447 0.0
C1013 C 0.86208 0.33377 0.98895 0.0
C1014 C 0.86454 0.36731 0.96982 0.0
C1015 C 0.88173 0.38939 0.97609 0.0
C1016 C 0.89645 0.37803 1.00173 0.0
C1017 C 0.89404 0.34454 0.02105 0.0
H1018 H 0.88364 0.41529 0.96108 0.0
H1019 H 0.86488 0.08484 0.13024 0.0
H1020 H 0.17943 0.80496 0.16571 0.0
H1021 H 0.18003 0.80678 0.08447 0.0
H1022 H 0.14995 0.70167 0.08073 0.0
H1023 H 0.1495 0.69956 0.16151 0.0
H1024 H 0.17524 0.71008 1.01628 0.0
H1025 H 0.126 0.77405 0.07244 0.0
H1026 H 0.11403 0.81851 0.12069 0.0
H1027 H 0.15008 0.90032 0.0523 0.0
H1028 H 0.1626 0.8562 1.00424 0.0
H1029 H 0.1453 0.71744 0.79186 0.0
H1030 H 0.14361 0.71242 0.87288 0.0
H1031 H 0.17175 0.81852 0.88453 0.0
H1032 H 0.17307 0.82394 0.80401 0.0
H1033 H 0.1458 0.80817 0.94617 0.0
H1034 H 0.19549 0.74017 0.89145 0.0
H1035 H 0.20788 0.69295 0.84856 0.0
H1036 H 0.16925 0.61557 0.91797 0.0
H1037 H 0.15638 0.66239 0.96062 0.0
C1038 C 0.17319 0.7821 0.14748 0.0
C1039 C 0.16427 0.75224 0.16996 0.0
C1040 C 0.17348 0.7832 0.10112 0.0
C1041 C 0.16458 0.75467 0.07656 0.0
C1042 C 0.15681 0.72404 0.09897 0.0
C1043 C 0.15665 0.72281 0.14522 0.0
C1044 C 0.16227 0.75734 0.02778 0.0
C1045 C 0.16861 0.73131 1.00094 0.0
C1046 C 0.15362 0.78505 1.00783 0.0
C1047 C 0.14533 0.81181 0.03493 0.0
C1048 C 0.13139 0.80152 0.06772 0.0
C1049 C 0.12454 0.82664 0.09511 0.0
C1050 C 0.13131 0.86222 0.08961 0.0
C1051 C 0.14486 0.87275 0.05653 0.0
C1052 C 0.15184 0.84769 0.02919 0.0
C1053 C 0.15107 0.73972 0.81171 0.0
C1054 C 0.15946 0.77101 0.79128 0.0
C1055 C 0.15011 0.73683 0.85809 0.0
C1056 C 0.15794 0.76484 0.88504 0.0
C1057 C 0.16564 0.79647 0.86466 0.0
C1058 C 0.16638 0.79954 0.81844 0.0
C1059 C 0.15906 0.76103 0.93424 0.0
C1060 C 0.15239 0.78685 0.96135 0.0
C1061 C 0.16715 0.73275 0.9546 0.0
C1062 C 0.17482 0.70477 0.92873 0.0
C1063 C 0.18953 0.7131 0.89724 0.0
C1064 C 0.19664 0.68641 0.87301 0.0
C1065 C 0.18931 0.65129 0.88043 0.0
C1066 C 0.17487 0.64277 0.91214 0.0
C1067 C 0.16765 0.66937 0.9363 0.0
H1068 H 0.19487 0.63066 0.86169 0.0
H1069 H 0.12603 0.88163 0.11093 0.0
H1070 H 0.86279 0.68601 0.80442 0.0
H1071 H 0.86554 0.69142 0.8847 0.0
H1072 H 0.88913 0.80011 0.87031 0.0
H1073 H 0.88699 0.7947 0.78929 0.0
H1074 H 0.90721 0.76327 0.93873 0.0
H1075 H 0.84337 0.78344 0.89206 0.0
H1076 H 0.81301 0.76829 0.85121 0.0
H1077 H 0.80185 0.67204 0.92554 0.0
H1078 H 0.83233 0.6864 0.96634 0.0
H1079 H 0.89321 0.8134 0.15549 0.0
H1080 H 0.88855 0.81191 0.07578 0.0
H1081 H 0.86017 0.70582 0.08541 0.0
H1082 H 0.86306 0.70809 0.16599 0.0
H1083 H 0.84478 0.74212 0.01955 0.0
H1084 H 0.90784 0.71781 0.06298 0.0
H1085 H 0.93623 0.73224 0.11081 0.0
H1086 H 0.94809 0.83299 0.04693 0.0
H1087 H 0.91957 0.81926 0.99907 0.0
C1088 C 0.86898 0.71093 0.81804 0.0
C1089 C 0.87459 0.73997 0.79016 0.0
C1090 C 0.87042 0.714 0.86407 0.0
C1091 C 0.87735 0.74625 0.88346 0.0
C1092 C 0.88371 0.77499 0.85596 0.0
C1093 C 0.88227 0.77195 0.8097 0.0
C1094 C 0.87645 0.75039 0.93234 0.0
C1095 C 0.89355 0.75909 0.95626 0.0
C1096 C 0.85869 0.74412 0.95551 0.0
C1097 C 0.84016 0.73585 0.93193 0.0
C1098 C 0.83447 0.75897 0.8995 0.0
C1099 C 0.81726 0.75052 0.87637 0.0
C1100 C 0.80553 0.71918 0.8857 0.0
C1101 C 0.81096 0.69629 0.91832 0.0
C1102 C 0.82819 0.70457 0.94148 0.0
C1103 C 0.88544 0.79003 0.14119 0.0
C1104 C 0.87891 0.76057 0.16754 0.0
C1105 C 0.88296 0.78914 0.09534 0.0
C1106 C 0.87453 0.7584 0.07461 0.0
C1107 C 0.86694 0.72967 0.10074 0.0
C1108 C 0.86898 0.73082 0.14682 0.0
C1109 C 0.87546 0.75513 0.02572 0.0
C1110 C 0.85842 0.7464 1.00191 0.0
C1111 C 0.89327 0.76082 1.00277 0.0
C1112 C 0.91168 0.76746 0.02733 0.0
C1113 C 0.91666 0.74287 0.05878 0.0
C1114 C 0.93269 0.751 0.08608 0.0
C1115 C 0.94397 0.7835 0.08187 0.0
C1116 C 0.93936 0.80777 0.05002 0.0
C1117 C 0.92331 0.79979 0.02268 0.0
H1118 H 0.95628 0.7899 0.10332 0.0
H1119 H 0.79221 0.71267 0.86771 0.0
H1120 H 0.66762 0.70968 0.37248 0.0
H1121 H 0.67118 0.71276 0.45315 0.0
H1122 H 0.64107 0.80477 0.45523 0.0
H1123 H 0.638 0.80235 0.37452 0.0
H1124 H 0.66929 0.81198 0.51208 0.0
H1125 H 0.61873 0.71979 0.47673 0.0
H1126 H 0.60592 0.66549 0.43792 0.0
H1127 H 0.64627 0.6085 0.50633 0.0
H1128 H 0.65962 0.66267 0.54484 0.0
H1129 H 0.64154 0.80928 0.73782 0.0
H1130 H 0.63938 0.80454 0.65717 0.0
H1131 H 0.67383 0.71847 0.66018 0.0
H1132 H 0.67657 0.72357 0.74071 0.0
H1133 H 0.64404 0.70692 0.60077 0.0
H1134 H 0.69377 0.79944 0.63751 0.0
H1135 H 0.70849 0.85491 0.67061 0.0
H1136 H 0.67016 0.91227 0.59613 0.0
H1137 H 0.65483 0.85701 0.5635 0.0
C1138 C 0.66191 0.73069 0.39021 0.0
C1139 C 0.65236 0.75558 0.36743 0.0
C1140 C 0.66389 0.73238 0.43626 0.0
C1141 C 0.65595 0.75848 0.46036 0.0
C1142 C 0.6472 0.78427 0.43737 0.0
C1143 C 0.64547 0.7829 0.39128 0.0
C1144 C 0.6561 0.75836 0.50958 0.0
C1145 C 0.6635 0.78918 0.53149 0.0
C1146 C 0.64895 0.72829 0.53484 0.0
C1147 C 0.64026 0.69534 0.51346 0.0
C1148 C 0.62489 0.69569 0.48345 0.0
C1149 C 0.61757 0.66496 0.46142 0.0
C1150 C 0.6253 0.63358 0.4696 0.0
C1151 C 0.64031 0.63283 0.5 0.0
C1152 C 0.64776 0.66355 0.52195 0.0
C1153 C 0.64874 0.78939 0.72147 0.0
C1154 C 0.6595 0.76719 0.74603 0.0
C1155 C 0.64739 0.7866 0.6753 0.0
C1156 C 0.6567 0.76151 0.6526 0.0
C1157 C 0.66657 0.73809 0.67703 0.0
C1158 C 0.66804 0.74098 0.72321 0.0
C1159 C 0.65696 0.76085 0.60331 0.0
C1160 C 0.6497 0.72981 0.58139 0.0
C1161 C 0.66411 0.79085 0.57792 0.0
C1162 C 0.67294 0.82397 0.5986 0.0
C1163 C 0.68826 0.82379 0.62872 0.0
C1164 C 0.69675 0.85523 0.64732 0.0
C1165 C 0.69022 0.88708 0.63561 0.0
C1166 C 0.67516 0.88756 0.60532 0.0
C1167 C 0.66653 0.85618 0.58685 0.0
H1168 H 0.69688 0.9114 0.64989 0.0
H1169 H 0.61964 0.60982 0.45243 0.0
H1170 H 0.39765 0.71665 0.73552 0.0
H1171 H 0.39844 0.71923 0.65425 0.0
H1172 H 0.36031 0.79974 0.6563 0.0
H1173 H 0.35879 0.79637 0.73682 0.0
H1174 H 0.34657 0.74726 0.60566 0.0
H1175 H 0.40836 0.81537 0.62364 0.0
H1176 H 0.44239 0.83035 0.64474 0.0
H1177 H 0.45786 0.74292 0.56964 0.0
H1178 H 0.42388 0.72689 0.54895 0.0
H1179 H 0.34867 0.78528 0.37116 0.0
H1180 H 0.34854 0.78504 0.45242 0.0
H1181 H 0.3888 0.70805 0.45265 0.0
H1182 H 0.38964 0.70924 0.37201 0.0
H1183 H 0.40192 0.76117 0.50159 0.0
H1184 H 0.3405 0.68014 0.5185 0.0
H1185 H 0.30606 0.65808 0.51075 0.0
H1186 H 0.29135 0.76354 0.51964 0.0
H1187 H 0.32572 0.78588 0.5298 0.0
C1188 C 0.38954 0.7351 0.71867 0.0
C1189 C 0.37809 0.75621 0.74295 0.0
C1190 C 0.39022 0.73686 0.67218 0.0
C1191 C 0.37952 0.75986 0.64911 0.0
C1192 C 0.36876 0.78191 0.67334 0.0
C1193 C 0.36802 0.7801 0.71958 0.0
C1194 C 0.37745 0.75804 0.60005 0.0
C1195 C 0.35875 0.75097 0.58298 0.0
C1196 C 0.39328 0.76135 0.5703 0.0
C1197 C 0.41349 0.76966 0.58527 0.0
C1198 C 0.41894 0.79893 0.61233 0.0
C1199 C 0.43826 0.8077 0.62405 0.0
C1200 C 0.45227 0.78754 0.60866 0.0
C1201 C 0.44699 0.75845 0.58169 0.0
C1202 C 0.4277 0.74948 0.57003 0.0
C1203 C 0.35732 0.76801 0.38857 0.0
C1204 C 0.36925 0.74743 0.36496 0.0
C1205 C 0.35705 0.76756 0.43508 0.0
C1206 C 0.36863 0.74643 0.45877 0.0
C1207 C 0.37973 0.72456 0.43517 0.0
C1208 C 0.38006 0.72505 0.38889 0.0
C1209 C 0.37109 0.75004 0.50758 0.0
C1210 C 0.38983 0.75762 0.5245 0.0
C1211 C 0.35543 0.74662 0.53745 0.0
C1212 C 0.33556 0.73466 0.52368 0.0
C1213 C 0.32992 0.69861 0.5179 0.0
C1214 C 0.31041 0.68603 0.51396 0.0
C1215 C 0.29652 0.70942 0.51444 0.0
C1216 C 0.30213 0.74547 0.51905 0.0
C1217 C 0.32159 0.75808 0.52424 0.0
H1218 H 0.28142 0.6996 0.51119 0.0
H1219 H 0.46723 0.79453 0.61752 0.0
H1220 H 0.67908 0.31905 0.30513 0.0
H1221 H 0.67779 0.31319 0.38586 0.0
H1222 H 0.63753 0.21927 0.37433 0.0
H1223 H 0.63893 0.22472 0.29284 0.0
H1224 H 0.62996 0.27354 0.44664 0.0
H1225 H 0.67643 0.20069 0.3932 0.0
H1226 H 0.70399 0.18747 0.34769 0.0
H1227 H 0.74025 0.27134 0.41044 0.0
H1228 H 0.71277 0.28543 0.45578 0.0
H1229 H 0.64187 0.20418 0.65995 0.0
H1230 H 0.64236 0.20761 0.5791 0.0
H1231 H 0.68521 0.29836 0.58458 0.0
H1232 H 0.6848 0.29511 0.66615 0.0
H1233 H 0.69067 0.24481 0.51583 0.0
H1234 H 0.64446 0.31777 0.56945 0.0
H1235 H 0.6179 0.32807 0.61986 0.0
H1236 H 0.58167 0.24259 0.56035 0.0
H1237 H 0.60818 0.23142 0.51002 0.0
C1238 C 0.66971 0.29741 0.31969 0.0
C1239 C 0.65912 0.27234 0.2926 0.0
C1240 C 0.66901 0.29412 0.36581 0.0
C1241 C 0.65754 0.26589 0.38596 0.0
C1242 C 0.64638 0.24136 0.35929 0.0
C1243 C 0.64732 0.24433 0.31287 0.0
C1244 C 0.65873 0.26077 0.4346 0.0
C1245 C 0.64312 0.2668 0.4617 0.0
C1246 C 0.67602 0.25271 0.45439 0.0
C1247 C 0.69253 0.2444 0.42733 0.0
C1248 C 0.69024 0.21656 0.39688 0.0
C1249 C 0.70584 0.20886 0.37121 0.0
C1250 C 0.72385 0.22864 0.37604 0.0
C1251 C 0.72629 0.25611 0.40665 0.0
C1252 C 0.71071 0.26396 0.43234 0.0
C1253 C 0.65176 0.22436 0.64398 0.0
C1254 C 0.66334 0.24935 0.66921 0.0
C1255 C 0.65192 0.2264 0.59786 0.0
C1256 C 0.6637 0.25336 0.57614 0.0
C1257 C 0.67602 0.27739 0.60099 0.0
C1258 C 0.67572 0.27561 0.64737 0.0
C1259 C 0.66201 0.25764 0.52767 0.0
C1260 C 0.67753 0.25154 0.50068 0.0
C1261 C 0.64466 0.26565 0.50816 0.0
C1262 C 0.62828 0.27371 0.53608 0.0
C1263 C 0.63081 0.30119 0.56711 0.0
C1264 C 0.6158 0.30714 0.59572 0.0
C1265 C 0.59811 0.28598 0.59332 0.0
C1266 C 0.59538 0.25898 0.56211 0.0
C1267 C 0.61038 0.25286 0.53347 0.0
H1268 H 0.58651 0.29053 0.61563 0.0
H1269 H 0.73593 0.22262 0.35615 0.0
H1270 H 0.40045 0.23057 0.2976 0.0
H1271 H 0.40221 0.23563 0.37865 0.0
H1272 H 0.3426 0.25486 0.3823 0.0
H1273 H 0.34112 0.25137 0.30176 0.0
H1274 H 0.36054 0.29683 0.43494 0.0
H1275 H 0.36268 0.17148 0.40925 0.0
H1276 H 0.37562 0.11737 0.38552 0.0
H1277 H 0.42741 0.14719 0.45942 0.0
H1278 H 0.41498 0.20178 0.48274 0.0
H1279 H 0.34298 0.26827 0.66796 0.0
H1280 H 0.34182 0.26494 0.58642 0.0
H1281 H 0.40202 0.24937 0.58392 0.0
H1282 H 0.40285 0.25094 0.66458 0.0
H1283 H 0.38419 0.20631 0.53143 0.0
H1284 H 0.3833 0.3296 0.55881 0.0
H1285 H 0.37064 0.38202 0.58892 0.0
H1286 H 0.31831 0.3571 0.51528 0.0
H1287 H 0.33045 0.30406 0.48558 0.0
C1288 C 0.38778 0.23596 0.31585 0.0
C1289 C 0.37067 0.24079 0.2933 0.0
C1290 C 0.38873 0.23858 0.36222 0.0
C1291 C 0.37244 0.24511 0.38695 0.0
C1292 C 0.35542 0.24994 0.36423 0.0
C1293 C 0.35458 0.24802 0.31806 0.0
C1294 C 0.3729 0.24787 0.43627 0.0
C1295 C 0.36555 0.27675 0.45596 0.0
C1296 C 0.38006 0.2225 0.4641 0.0
C1297 C 0.38801 0.19098 0.44711 0.0
C1298 C 0.37697 0.16681 0.41974 0.0
C1299 C 0.38419 0.13598 0.40651 0.0
C1300 C 0.40235 0.12891 0.42081 0.0
C1301 C 0.41339 0.15275 0.44817 0.0
C1302 C 0.40629 0.18367 0.46126 0.0
C1303 C 0.35584 0.26395 0.64967 0.0
C1304 C 0.37294 0.25939 0.67217 0.0
C1305 C 0.35524 0.26233 0.60325 0.0
C1306 C 0.37191 0.25722 0.57894 0.0
C1307 C 0.38896 0.25309 0.6018 0.0
C1308 C 0.38943 0.25392 0.64786 0.0
C1309 C 0.37182 0.25505 0.52978 0.0
C1310 C 0.37924 0.22638 0.51025 0.0
C1311 C 0.36501 0.28082 0.50222 0.0
C1312 C 0.35771 0.31263 0.52036 0.0
C1313 C 0.36902 0.33509 0.54939 0.0
C1314 C 0.36193 0.36493 0.56637 0.0
C1315 C 0.34366 0.37284 0.55411 0.0
C1316 C 0.33243 0.35091 0.52485 0.0
C1317 C 0.3394 0.32093 0.50799 0.0
H1318 H 0.33823 0.39601 0.56719 0.0
H1319 H 0.40784 0.10489 0.41083 0.0
H1320 H 0.08855 0.19447 0.51794 0.0
H1321 H 0.05411 0.1977 0.50556 0.0
H1322 H 0.06611 0.30919 0.48142 0.0
H1323 H 0.10072 0.30575 0.49222 0.0
H1324 H 0.03747 0.28949 0.54791 0.0
H1325 H 0.05131 0.26209 0.39812 0.0
H1326 H 0.06398 0.22913 0.33684 0.0
H1327 H 0.02664 0.13657 0.37514 0.0
H1328 H 1.01395 0.16889 0.43714 0.0
H1329 H 0.94106 0.31578 0.51394 0.0
H1330 H 0.97562 0.31551 0.50106 0.0
H1331 H 0.96697 0.20248 0.48875 0.0
H1332 H 0.93211 0.20329 0.49822 0.0
H1333 H 0.99469 0.22473 0.43702 0.0
H1334 H 0.98275 0.25008 0.5903 0.0
H1335 H 0.96985 0.28261 0.65185 0.0
H1336 H 1.00397 0.37751 0.60885 0.0
H1337 H 0.01688 0.34561 0.54676 0.0
C1338 C 0.08387 0.21948 0.50877 0.0
C1339 C 0.09733 0.24975 0.50535 0.0
C1340 C 0.06419 0.22132 0.50178 0.0
C1341 C 0.05747 0.25366 0.49239 0.0
C1342 C 0.07095 0.28389 0.48827 0.0
C1343 C 0.09073 0.28187 0.49408 0.0
C1344 C 0.03632 0.25623 0.49052 0.0
C1345 C 0.02816 0.27581 0.52319 0.0
C1346 C 0.02403 0.23753 0.4592 0.0
C1347 C 0.03185 0.2178 0.42256 0.0
C1348 C 0.04597 0.23459 0.39381 0.0
C1349 C 0.05312 0.21606 0.35887 0.0
C1350 C 0.04617 0.18074 0.35218 0.0
C1351 C 0.03204 0.16391 0.38042 0.0
C1352 C 0.02486 0.18233 0.41545 0.0
C1353 C 0.94652 0.29103 0.50721 0.0
C1354 C 0.93392 0.25963 0.50648 0.0
C1355 C 0.96635 0.29075 0.50055 0.0
C1356 C 0.97423 0.25884 0.49536 0.0
C1357 C 0.96146 0.22752 0.49285 0.0
C1358 C 0.94149 0.22795 0.4981 0.0
C1359 C 0.99569 0.25803 0.4946 0.0
C1360 C 1.00394 0.23857 0.46169 0.0
C1361 C 1.00811 0.27655 0.52607 0.0
C1362 C 1.00063 0.29556 0.56376 0.0
C1363 C 0.98743 0.27792 0.59393 0.0
C1364 C 0.98012 0.29623 0.62888 0.0
C1365 C 0.98605 0.33212 0.63419 0.0
C1366 C 0.99937 0.34973 0.60467 0.0
C1367 C 1.0067 0.33155 0.56963 0.0
H1368 H 0.98036 0.34627 0.66124 0.0
H1369 H 0.05169 0.16645 0.32503 0.0
H1370 H 0.93719 0.79843 0.57966 0.0
H1371 H 0.97189 0.79641 0.59273 0.0
H1372 H 0.97241 0.71741 0.49126 0.0
H1373 H 0.93806 0.7195 0.47842 0.0
H1374 H 0.99314 0.70153 0.5622 0.0
H1375 H 0.98743 0.80382 0.4704 0.0
H1376 H 0.97623 0.8611 0.45377 0.0
H1377 H 1.00595 0.90596 0.56843 0.0
H1378 H 0.01705 0.84874 0.58614 0.0
H1379 H 0.0864 0.70513 0.48033 0.0
H1380 H 0.05256 0.7094 0.49359 0.0
H1381 H 0.06754 0.79156 0.58914 0.0
H1382 H 0.10199 0.78823 0.57464 0.0
H1383 H 0.03933 0.8084 0.5355 0.0
H1384 H 0.04803 0.70793 0.62295 0.0
H1385 H 0.05935 0.65077 0.63953 0.0
H1386 H 0.02416 0.6027 0.53462 0.0
H1387 H 1.01282 0.6597 0.51702 0.0
C1388 C 0.94473 0.78023 0.56095 0.0
C1389 C 0.93503 0.75885 0.52843 0.0
C1390 C 0.96454 0.77928 0.56806 0.0
C1391 C 0.97484 0.75692 0.54272 0.0
C1392 C 0.96485 0.7348 0.51131 0.0
C1393 C 0.94522 0.73596 0.50403 0.0
C1394 C 0.99608 0.75691 0.54737 0.0
C1395 C 1.00322 0.72492 0.5563 0.0
C1396 C 1.00933 0.78754 0.54088 0.0
C1397 C 1.00283 0.82193 0.52993 0.0
C1398 C 0.99143 0.82583 0.49226 0.0
C1399 C 0.98512 0.85829 0.48262 0.0
C1400 C 0.99031 0.88712 0.51013 0.0
C1401 C 1.00189 0.88358 0.54723 0.0
C1402 C 1.00819 0.85115 0.55709 0.0
C1403 C 0.08263 0.72388 0.50469 0.0
C1404 C 0.097 0.74613 0.52675 0.0
C1405 C 0.06315 0.72618 0.51237 0.0
C1406 C 0.05736 0.75039 0.54294 0.0
C1407 C 0.07163 0.77247 0.56562 0.0
C1408 C 0.09131 0.77028 0.55773 0.0
C1409 C 0.03637 0.75284 0.54955 0.0
C1410 C 0.02927 0.78518 0.54244 0.0
C1411 C 0.0231 0.72254 0.55785 0.0
C1412 C 0.02964 0.68809 0.5686 0.0
C1413 C 0.04277 0.68519 0.6033 0.0
C1414 C 0.04919 0.65282 0.61287 0.0
C1415 C 0.04249 0.62312 0.58812 0.0
C1416 C 0.02932 0.62572 0.55378 0.0
C1417 C 0.02287 0.65804 0.54405 0.0
H1418 H 0.04748 0.59809 0.59557 0.0
H1419 H 0.98539 0.91222 0.50262 0.0
H1420 H 0.58904 0.69263 1.01529 0.0
H1421 H 0.55459 0.69623 1.00336 0.0
H1422 H 0.56672 0.80807 0.98214 0.0
H1423 H 0.60129 0.80425 0.99226 0.0
H1424 H 0.53809 0.78658 0.04927 0.0
H1425 H 0.55209 0.76398 0.89796 0.0
H1426 H 0.56493 0.73276 0.83529 0.0
H1427 H 0.5275 0.63922 0.86928 0.0
H1428 H 0.51464 0.66977 0.93266 0.0
H1429 H 0.44264 0.81679 1.015 0.0
H1430 H 0.47708 0.81563 1.00195 0.0
H1431 H 0.46733 0.70298 0.98579 0.0
H1432 H 0.43254 0.70473 0.99551 0.0
H1433 H 0.49544 0.72609 0.93483 0.0
H1434 H 0.48299 0.74698 0.08917 0.0
H1435 H 0.46982 0.77803 0.15168 0.0
H1436 H 0.50456 0.87363 0.1135 0.0
H1437 H 0.51777 0.84319 0.05049 0.0
C1438 C 0.58438 0.71777 1.00674 0.0
C1439 C 0.59785 0.74806 1.00393 0.0
C1440 C 0.56471 0.71984 1.0001 0.0
C1441 C 0.55805 0.75241 0.99178 0.0
C1442 C 0.57153 0.78263 0.98821 0.0
C1443 C 0.59129 0.78039 0.9936 0.0
C1444 C 0.53695 0.75517 0.9902 0.0
C1445 C 0.52881 0.77382 0.02384 0.0
C1446 C 0.52472 0.73767 0.95788 0.0
C1447 C 0.53258 0.71903 0.92033 0.0
C1448 C 0.54677 0.73662 0.89239 0.0
C1449 C 0.55401 0.71909 0.85667 0.0
C1450 C 0.54708 0.68399 0.84839 0.0
C1451 C 0.53288 0.66638 0.8758 0.0
C1452 C 0.5256 0.6838 0.91161 0.0
C1453 C 0.44783 0.79197 1.00732 0.0
C1454 C 0.43496 0.76093 1.00573 0.0
C1455 C 0.46758 0.79117 1.00058 0.0
C1456 C 0.47509 0.75904 0.99441 0.0
C1457 C 0.46206 0.72814 0.99073 0.0
C1458 C 0.44215 0.72912 0.99607 0.0
C1459 C 0.49644 0.75758 0.99402 0.0
C1460 C 0.50467 0.73897 0.96025 0.0
C1461 C 0.5088 0.77484 0.02657 0.0
C1462 C 0.50124 0.79291 0.06501 0.0
C1463 C 0.48777 0.77464 0.09409 0.0
C1464 C 0.4803 0.79213 0.12957 0.0
C1465 C 0.48632 0.8278 0.1365 0.0
C1466 C 0.4999 0.84601 0.10808 0.0
C1467 C 0.50741 0.82865 0.07253 0.0
H1468 H 0.48048 0.84132 0.16393 0.0
H1469 H 0.55268 0.67047 0.82065 0.0
H1470 H 0.44014 0.31161 0.04981 0.0
H1471 H 0.47466 0.31001 0.06257 0.0
H1472 H 0.46903 0.20205 0.01903 0.0
H1473 H 0.43426 0.20315 1.00941 0.0
H1474 H 0.49429 0.2084 0.08048 0.0
H1475 H 0.4855 0.27929 0.94988 0.0
H1476 H 0.47333 0.3286 0.91026 0.0
H1477 H 0.50552 0.40214 0.99723 0.0
H1478 H 0.51768 0.3532 0.0377 0.0
H1479 H 0.58805 0.19731 0.99429 0.0
H1480 H 0.55374 0.20061 1.00688 0.0
H1481 H 0.5674 0.30046 0.07189 0.0
H1482 H 0.60197 0.29698 0.05987 0.0
H1483 H 0.53895 0.3018 1.00738 0.0
H1484 H 0.55012 0.23269 0.13325 0.0
H1485 H 0.56209 0.18443 0.17523 0.0
H1486 H 0.52575 0.10873 0.09915 0.0
H1487 H 0.51376 0.15659 0.05623 0.0
C1488 C 0.44626 0.28732 0.0442 0.0
C1489 C 0.43456 0.25736 0.02936 0.0
C1490 C 0.46606 0.28651 0.0508 0.0
C1491 C 0.47477 0.25619 0.04062 0.0
C1492 C 0.46284 0.22585 0.02714 0.0
C1493 C 0.44294 0.2264 0.02176 0.0
C1494 C 0.49626 0.25633 0.04221 0.0
C1495 C 0.50397 0.22867 0.064 0.0
C1496 C 0.50921 0.28327 0.02209 0.0
C1497 C 0.50234 0.31263 0.99699 0.0
C1498 C 0.48993 0.30599 0.96058 0.0
C1499 C 0.48303 0.33385 0.93802 0.0
C1500 C 0.48861 0.36848 0.9513 0.0
C1501 C 0.50119 0.37532 0.98702 0.0
C1502 C 0.5081 0.34754 1.00975 0.0
C1503 C 0.58379 0.21963 1.01214 0.0
C1504 C 0.59777 0.24664 0.02663 0.0
C1505 C 0.56414 0.22151 0.01928 0.0
C1506 C 0.5579 0.2507 0.04054 0.0
C1507 C 0.57183 0.27759 0.0556 0.0
C1508 C 0.5916 0.2754 0.04915 0.0
C1509 C 0.53682 0.25356 0.04484 0.0
C1510 C 0.52923 0.28169 0.02405 0.0
C1511 C 0.52399 0.22711 0.06586 0.0
C1512 C 0.53119 0.1982 0.09127 0.0
C1513 C 0.54482 0.20574 0.12519 0.0
C1514 C 0.55158 0.17846 0.14921 0.0
C1515 C 0.54472 0.14353 0.13978 0.0
C1516 C 0.53106 0.13581 0.10637 0.0
C1517 C 0.52427 0.163 0.08221 0.0
H1518 H 0.54997 0.12244 0.15844 0.0
H1519 H 0.48321 0.39002 0.93386 0.0
loop_
_geom_bond_atom_site_label_1
_geom_bond_atom_site_label_2
_geom_bond_distance
_geom_bond_site_symmetry_2
_ccdc_geom_bond_type
Nd0 C2 2.836 . S
Nd0 O20 2.500 . S
Nd0 O21 2.492 . S
Nd0 O22 2.487 . S
Nd0 O23 2.682 . S
Nd0 O24 2.410 . S
Nd0 O29 2.414 . S
Nd0 O31 2.424 . S
Nd1 C11 2.836 . S
Nd1 O23 2.414 . S
Nd1 O25 2.424 . S
Nd1 O26 2.500 . S
Nd1 O27 2.492 . S
Nd1 O28 2.487 . S
Nd1 O29 2.682 . S
Nd1 O30 2.410 . S
C2 Nd0 2.836 . S
C2 C3 1.498 . S
C2 O20 1.258 . S
C2 O21 1.239 . S
C3 C2 1.498 . S
C3 C4 1.366 . S
C3 C8 1.407 . S
C4 C3 1.366 . S
C4 C5 1.392 . S
C4 H32 0.930 . S
C5 C4 1.392 . S
C5 C6 1.398 . S
C5 H33 0.929 . S
C6 C5 1.398 . S
C6 C7 1.352 . S
C7 C6 1.352 . S
C7 C8 1.384 . S
C7 H34 0.930 . S
C8 C3 1.407 . S
C8 C7 1.384 . S
C8 H35 0.929 . S
C9 O22 1.241 . S
C9 O23 1.273 . S
C10 O24 1.251 . S
C10 O25 1.268 . S
C11 Nd1 2.836 . S
C11 C12 1.498 . S
C11 O26 1.258 . S
C11 O27 1.239 . S
C12 C11 1.498 . S
C12 C13 1.366 . S
C12 C17 1.407 . S
C13 C12 1.366 . S
C13 C14 1.392 . S
C13 H36 0.930 . S
C14 C13 1.392 . S
C14 C15 1.398 . S
C14 H37 0.929 . S
C15 C14 1.398 . S
C15 C16 1.352 . S
C16 C15 1.352 . S
C16 C17 1.384 . S
C16 H38 0.930 . S
C17 C12 1.407 . S
C17 C16 1.384 . S
C17 H39 0.929 . S
C18 O28 1.241 . S
C18 O29 1.273 . S
C19 O30 1.251 . S
C19 O31 1.268 . S
O20 Nd0 2.500 . S
O20 C2 1.258 . S
O21 Nd0 2.492 . S
O21 C2 1.239 . S
O22 Nd0 2.487 . S
O22 C9 1.241 . S
O23 Nd0 2.682 . S
O23 Nd1 2.414 . S
O23 C9 1.273 . S
O24 Nd0 2.410 . S
O24 C10 1.251 . S
O25 Nd1 2.424 . S
O25 C10 1.268 . S
O26 Nd1 2.500 . S
O26 C11 1.258 . S
O27 Nd1 2.492 . S
O27 C11 1.239 . S
O28 Nd1 2.487 . S
O28 C18 1.241 . S
O29 Nd0 2.414 . S
O29 Nd1 2.682 . S
O29 C18 1.273 . S
O30 Nd1 2.410 . S
O30 C19 1.251 . S
O31 Nd0 2.424 . S
O31 C19 1.268 . S
H32 C4 0.930 . S
H33 C5 0.929 . S
H34 C7 0.930 . S
H35 C8 0.929 . S
H36 C13 0.930 . S
H37 C14 0.929 . S
H38 C16 0.930 . S
H39 C17 0.929 . S
Nd40 C42 2.836 . S
Nd40 O60 2.500 . S
Nd40 O61 2.492 . S
Nd40 O62 2.487 . S
Nd40 O63 2.682 . S
Nd40 O64 2.410 . S
Nd40 O69 2.414 . S
Nd40 O71 2.424 . S
Nd41 C51 2.836 . S
Nd41 O63 2.414 . S
Nd41 O65 2.424 . S
Nd41 O66 2.500 . S
Nd41 O67 2.492 . S
Nd41 O68 2.487 . S
Nd41 O69 2.682 . S
Nd41 O70 2.410 . S
C42 Nd40 2.836 . S
C42 C43 1.498 . S
C42 O60 1.258 . S
C42 O61 1.239 . S
C43 C42 1.498 . S
C43 C44 1.366 . S
C43 C48 1.407 . S
C44 C43 1.366 . S
C44 C45 1.392 . S
C44 H72 0.930 . S
C45 C44 1.392 . S
C45 C46 1.398 . S
C45 H73 0.929 . S
C46 C45 1.398 . S
C46 C47 1.352 . S
C47 C46 1.352 . S
C47 C48 1.384 . S
C47 H74 0.930 . S
C48 C43 1.407 . S
C48 C47 1.384 . S
C48 H75 0.929 . S
C49 O62 1.241 . S
C49 O63 1.273 . S
C50 O64 1.251 . S
C50 O65 1.268 . S
C51 Nd41 2.836 . S
C51 C52 1.498 . S
C51 O66 1.258 . S
C51 O67 1.239 . S
C52 C51 1.498 . S
C52 C53 1.366 . S
C52 C57 1.407 . S
C53 C52 1.366 . S
C53 C54 1.392 . S
C53 H76 0.930 . S
C54 C53 1.392 . S
C54 C55 1.398 . S
C54 H77 0.929 . S
C55 C54 1.398 . S
C55 C56 1.352 . S
C56 C55 1.352 . S
C56 C57 1.384 . S
C56 H78 0.930 . S
C57 C52 1.407 . S
C57 C56 1.384 . S
C57 H79 0.929 . S
C58 O68 1.241 . S
C58 O69 1.273 . S
C59 O70 1.251 . S
C59 O71 1.268 . S
O60 Nd40 2.500 . S
O60 C42 1.258 . S
O61 Nd40 2.492 . S
O61 C42 1.239 . S
O62 Nd40 2.487 . S
O62 C49 1.241 . S
O63 Nd40 2.682 . S
O63 Nd41 2.414 . S
O63 C49 1.273 . S
O64 Nd40 2.410 . S
O64 C50 1.251 . S
O65 Nd41 2.424 . S
O65 C50 1.268 . S
O66 Nd41 2.500 . S
O66 C51 1.258 . S
O67 Nd41 2.492 . S
O67 C51 1.239 . S
O68 Nd41 2.487 . S
O68 C58 1.241 . S
O69 Nd40 2.414 . S
O69 Nd41 2.682 . S
O69 C58 1.273 . S
O70 Nd41 2.410 . S
O70 C59 1.251 . S
O71 Nd40 2.424 . S
O71 C59 1.268 . S
H72 C44 0.930 . S
H73 C45 0.929 . S
H74 C47 0.930 . S
H75 C48 0.929 . S
H76 C53 0.930 . S
H77 C54 0.929 . S
H78 C56 0.930 . S
H79 C57 0.929 . S
Nd80 C82 2.836 . S
Nd80 O100 2.500 . S
Nd80 O101 2.492 . S
Nd80 O102 2.487 . S
Nd80 O103 2.682 . S
Nd80 O104 2.410 . S
Nd80 O109 2.414 . S
Nd80 O111 2.424 . S
Nd81 C91 2.836 . S
Nd81 O103 2.414 . S
Nd81 O105 2.424 . S
Nd81 O106 2.500 . S
Nd81 O107 2.492 . S
Nd81 O108 2.487 . S
Nd81 O109 2.682 . S
Nd81 O110 2.410 . S
C82 Nd80 2.836 . S
C82 C83 1.498 . S
C82 O100 1.258 . S
C82 O101 1.239 . S
C83 C82 1.498 . S
C83 C84 1.366 . S
C83 C88 1.407 . S
C84 C83 1.366 . S
C84 C85 1.392 . S
C84 H112 0.930 . S
C85 C84 1.392 . S
C85 C86 1.398 . S
C85 H113 0.929 . S
C86 C85 1.398 . S
C86 C87 1.352 . S
C87 C86 1.352 . S
C87 C88 1.384 . S
C87 H114 0.930 . S
C88 C83 1.407 . S
C88 C87 1.384 . S
C88 H115 0.929 . S
C89 O102 1.241 . S
C89 O103 1.273 . S
C90 O104 1.251 . S
C90 O105 1.268 . S
C91 Nd81 2.836 . S
C91 C92 1.498 . S
C91 O106 1.258 . S
C91 O107 1.239 . S
C92 C91 1.498 . S
C92 C93 1.366 . S
C92 C97 1.407 . S
C93 C92 1.366 . S
C93 C94 1.392 . S
C93 H116 0.930 . S
C94 C93 1.392 . S
C94 C95 1.398 . S
C94 H117 0.929 . S
C95 C94 1.398 . S
C95 C96 1.352 . S
C96 C95 1.352 . S
C96 C97 1.384 . S
C96 H118 0.930 . S
C97 C92 1.407 . S
C97 C96 1.384 . S
C97 H119 0.929 . S
C98 O108 1.241 . S
C98 O109 1.273 . S
C99 O110 1.251 . S
C99 O111 1.268 . S
O100 Nd80 2.500 . S
O100 C82 1.258 . S
O101 Nd80 2.492 . S
O101 C82 1.239 . S
O102 Nd80 2.487 . S
O102 C89 1.241 . S
O103 Nd80 2.682 . S
O103 Nd81 2.414 . S
O103 C89 1.273 . S
O104 Nd80 2.410 . S
O104 C90 1.251 . S
O105 Nd81 2.424 . S
O105 C90 1.268 . S
O106 Nd81 2.500 . S
O106 C91 1.258 . S
O107 Nd81 2.492 . S
O107 C91 1.239 . S
O108 Nd81 2.487 . S
O108 C98 1.241 . S
O109 Nd80 2.414 . S
O109 Nd81 2.682 . S
O109 C98 1.273 . S
O110 Nd81 2.410 . S
O110 C99 1.251 . S
O111 Nd80 2.424 . S
O111 C99 1.268 . S
H112 C84 0.930 . S
H113 C85 0.929 . S
H114 C87 0.930 . S
H115 C88 0.929 . S
H116 C93 0.930 . S
H117 C94 0.929 . S
H118 C96 0.930 . S
H119 C97 0.929 . S
Nd120 C122 2.836 . S
Nd120 O140 2.500 . S
Nd120 O141 2.492 . S
Nd120 O142 2.487 . S
Nd120 O143 2.682 . S
Nd120 O144 2.410 . S
Nd120 O149 2.414 . S
Nd120 O151 2.424 . S
Nd121 C131 2.836 . S
Nd121 O143 2.414 . S
Nd121 O145 2.424 . S
Nd121 O146 2.500 . S
Nd121 O147 2.492 . S
Nd121 O148 2.487 . S
Nd121 O149 2.682 . S
Nd121 O150 2.410 . S
C122 Nd120 2.836 . S
C122 C123 1.498 . S
C122 O140 1.258 . S
C122 O141 1.239 . S
C123 C122 1.498 . S
C123 C124 1.366 . S
C123 C128 1.407 . S
C124 C123 1.366 . S
C124 C125 1.392 . S
C124 H152 0.930 . S
C125 C124 1.392 . S
C125 C126 1.398 . S
C125 H153 0.929 . S
C126 C125 1.398 . S
C126 C127 1.352 . S
C127 C126 1.352 . S
C127 C128 1.384 . S
C127 H154 0.930 . S
C128 C123 1.407 . S
C128 C127 1.384 . S
C128 H155 0.929 . S
C129 O142 1.241 . S
C129 O143 1.273 . S
C130 O144 1.251 . S
C130 O145 1.268 . S
C131 Nd121 2.836 . S
C131 C132 1.498 . S
C131 O146 1.258 . S
C131 O147 1.239 . S
C132 C131 1.498 . S
C132 C133 1.366 . S
C132 C137 1.407 . S
C133 C132 1.366 . S
C133 C134 1.392 . S
C133 H156 0.930 . S
C134 C133 1.392 . S
C134 C135 1.398 . S
C134 H157 0.929 . S
C135 C134 1.398 . S
C135 C136 1.352 . S
C136 C135 1.352 . S
C136 C137 1.384 . S
C136 H158 0.930 . S
C137 C132 1.407 . S
C137 C136 1.384 . S
C137 H159 0.929 . S
C138 O148 1.241 . S
C138 O149 1.273 . S
C139 O150 1.251 . S
C139 O151 1.268 . S
O140 Nd120 2.500 . S
O140 C122 1.258 . S
O141 Nd120 2.492 . S
O141 C122 1.239 . S
O142 Nd120 2.487 . S
O142 C129 1.241 . S
O143 Nd120 2.682 . S
O143 Nd121 2.414 . S
O143 C129 1.273 . S
O144 Nd120 2.410 . S
O144 C130 1.251 . S
O145 Nd121 2.424 . S
O145 C130 1.268 . S
O146 Nd121 2.500 . S
O146 C131 1.258 . S
O147 Nd121 2.492 . S
O147 C131 1.239 . S
O148 Nd121 2.487 . S
O148 C138 1.241 . S
O149 Nd120 2.414 . S
O149 Nd121 2.682 . S
O149 C138 1.273 . S
O150 Nd121 2.410 . S
O150 C139 1.251 . S
O151 Nd120 2.424 . S
O151 C139 1.268 . S
H152 C124 0.930 . S
H153 C125 0.929 . S
H154 C127 0.930 . S
H155 C128 0.929 . S
H156 C133 0.930 . S
H157 C134 0.929 . S
H158 C136 0.930 . S
H159 C137 0.929 . S
Nd160 C162 2.836 . S
Nd160 O180 2.500 . S
Nd160 O181 2.492 . S
Nd160 O182 2.487 . S
Nd160 O183 2.682 1_556 S
Nd160 O184 2.410 . S
Nd160 O189 2.414 1_556 S
Nd160 O191 2.424 1_556 S
Nd161 C171 2.836 . S
Nd161 O183 2.414 . S
Nd161 O185 2.424 . S
Nd161 O186 2.500 . S
Nd161 O187 2.492 . S
Nd161 O188 2.487 . S
Nd161 O189 2.682 . S
Nd161 O190 2.410 . S
C162 Nd160 2.836 . S
C162 C163 1.498 . S
C162 O180 1.258 . S
C162 O181 1.239 . S
C163 C162 1.498 . S
C163 C164 1.366 . S
C163 C168 1.407 . S
C164 C163 1.366 . S
C164 C165 1.392 . S
C164 H192 0.930 . S
C165 C164 1.392 . S
C165 C166 1.398 . S
C165 H193 0.929 . S
C166 C165 1.398 . S
C166 C167 1.352 . S
C167 C166 1.352 . S
C167 C168 1.384 . S
C167 H194 0.930 . S
C168 C163 1.407 . S
C168 C167 1.384 . S
C168 H195 0.929 . S
C169 O182 1.241 1_554 S
C169 O183 1.273 . S
C170 O184 1.251 . S
C170 O185 1.268 1_556 S
C171 Nd161 2.836 . S
C171 C172 1.498 . S
C171 O186 1.258 . S
C171 O187 1.239 . S
C172 C171 1.498 . S
C172 C173 1.366 . S
C172 C177 1.407 . S
C173 C172 1.366 . S
C173 C174 1.392 . S
C173 H196 0.930 . S
C174 C173 1.392 . S
C174 C175 1.398 . S
C174 H197 0.929 . S
C175 C174 1.398 . S
C175 C176 1.352 . S
C176 C175 1.352 . S
C176 C177 1.384 . S
C176 H198 0.930 . S
C177 C172 1.407 . S
C177 C176 1.384 . S
C177 H199 0.929 . S
C178 O188 1.241 . S
C178 O189 1.273 . S
C179 O190 1.251 . S
C179 O191 1.268 . S
O180 Nd160 2.500 . S
O180 C162 1.258 . S
O181 Nd160 2.492 . S
O181 C162 1.239 . S
O182 Nd160 2.487 . S
O182 C169 1.241 1_556 S
O183 Nd160 2.682 1_554 S
O183 Nd161 2.414 . S
O183 C169 1.273 . S
O184 Nd160 2.410 . S
O184 C170 1.251 . S
O185 Nd161 2.424 . S
O185 C170 1.268 1_554 S
O186 Nd161 2.500 . S
O186 C171 1.258 . S
O187 Nd161 2.492 . S
O187 C171 1.239 . S
O188 Nd161 2.487 . S
O188 C178 1.241 . S
O189 Nd160 2.414 1_554 S
O189 Nd161 2.682 . S
O189 C178 1.273 . S
O190 Nd161 2.410 . S
O190 C179 1.251 . S
O191 Nd160 2.424 1_554 S
O191 C179 1.268 . S
H192 C164 0.930 . S
H193 C165 0.929 . S
H194 C167 0.930 . S
H195 C168 0.929 . S
H196 C173 0.930 . S
H197 C174 0.929 . S
H198 C176 0.930 . S
H199 C177 0.929 . S
Nd200 C202 2.836 . S
Nd200 O220 2.500 . S
Nd200 O221 2.492 . S
Nd200 O222 2.487 . S
Nd200 O223 2.682 1_556 S
Nd200 O224 2.410 . S
Nd200 O229 2.414 1_556 S
Nd200 O231 2.424 1_556 S
Nd201 C211 2.836 . S
Nd201 O223 2.414 . S
Nd201 O225 2.424 . S
Nd201 O226 2.500 . S
Nd201 O227 2.492 . S
Nd201 O228 2.487 . S
Nd201 O229 2.682 . S
Nd201 O230 2.410 . S
C202 Nd200 2.836 . S
C202 C203 1.498 . S
C202 O220 1.258 . S
C202 O221 1.239 . S
C203 C202 1.498 . S
C203 C204 1.366 . S
C203 C208 1.407 . S
C204 C203 1.366 . S
C204 C205 1.392 . S
C204 H232 0.930 . S
C205 C204 1.392 . S
C205 C206 1.398 . S
C205 H233 0.929 . S
C206 C205 1.398 . S
C206 C207 1.352 . S
C207 C206 1.352 . S
C207 C208 1.384 . S
C207 H234 0.930 . S
C208 C203 1.407 . S
C208 C207 1.384 . S
C208 H235 0.929 . S
C209 O222 1.241 1_554 S
C209 O223 1.273 . S
C210 O224 1.251 . S
C210 O225 1.268 1_556 S
C211 Nd201 2.836 . S
C211 C212 1.498 . S
C211 O226 1.258 . S
C211 O227 1.239 . S
C212 C211 1.498 . S
C212 C213 1.366 . S
C212 C217 1.407 . S
C213 C212 1.366 . S
C213 C214 1.392 . S
C213 H236 0.930 . S
C214 C213 1.392 . S
C214 C215 1.398 . S
C214 H237 0.929 . S
C215 C214 1.398 . S
C215 C216 1.352 . S
C216 C215 1.352 . S
C216 C217 1.384 . S
C216 H238 0.930 . S
C217 C212 1.407 . S
C217 C216 1.384 . S
C217 H239 0.929 . S
C218 O228 1.241 . S
C218 O229 1.273 . S
C219 O230 1.251 . S
C219 O231 1.268 . S
O220 Nd200 2.500 . S
O220 C202 1.258 . S
O221 Nd200 2.492 . S
O221 C202 1.239 . S
O222 Nd200 2.487 . S
O222 C209 1.241 1_556 S
O223 Nd200 2.682 1_554 S
O223 Nd201 2.414 . S
O223 C209 1.273 . S
O224 Nd200 2.410 . S
O224 C210 1.251 . S
O225 Nd201 2.424 . S
O225 C210 1.268 1_554 S
O226 Nd201 2.500 . S
O226 C211 1.258 . S
O227 Nd201 2.492 . S
O227 C211 1.239 . S
O228 Nd201 2.487 . S
O228 C218 1.241 . S
O229 Nd200 2.414 1_554 S
O229 Nd201 2.682 . S
O229 C218 1.273 . S
O230 Nd201 2.410 . S
O230 C219 1.251 . S
O231 Nd200 2.424 1_554 S
O231 C219 1.268 . S
H232 C204 0.930 . S
H233 C205 0.929 . S
H234 C207 0.930 . S
H235 C208 0.929 . S
H236 C213 0.930 . S
H237 C214 0.929 . S
H238 C216 0.930 . S
H239 C217 0.929 . S
Nd240 C242 2.836 . S
Nd240 O260 2.500 . S
Nd240 O261 2.492 . S
Nd240 O262 2.487 . S
Nd240 O263 2.682 . S
Nd240 O264 2.410 . S
Nd240 O269 2.414 . S
Nd240 O271 2.424 . S
Nd241 C251 2.836 . S
Nd241 O263 2.414 1_554 S
Nd241 O265 2.424 1_554 S
Nd241 O266 2.500 . S
Nd241 O267 2.492 . S
Nd241 O268 2.487 . S
Nd241 O269 2.682 1_554 S
Nd241 O270 2.410 . S
C242 Nd240 2.836 . S
C242 C243 1.498 . S
C242 O260 1.258 . S
C242 O261 1.239 . S
C243 C242 1.498 . S
C243 C244 1.366 . S
C243 C248 1.407 . S
C244 C243 1.366 . S
C244 C245 1.392 . S
C244 H272 0.930 . S
C245 C244 1.392 . S
C245 C246 1.398 . S
C245 H273 0.929 . S
C246 C245 1.398 . S
C246 C247 1.352 . S
C247 C246 1.352 . S
C247 C248 1.384 . S
C247 H274 0.930 . S
C248 C243 1.407 . S
C248 C247 1.384 . S
C248 H275 0.929 . S
C249 O262 1.241 . S
C249 O263 1.273 . S
C250 O264 1.251 . S
C250 O265 1.268 . S
C251 Nd241 2.836 . S
C251 C252 1.498 . S
C251 O266 1.258 . S
C251 O267 1.239 . S
C252 C251 1.498 . S
C252 C253 1.366 . S
C252 C257 1.407 . S
C253 C252 1.366 . S
C253 C254 1.392 . S
C253 H276 0.930 . S
C254 C253 1.392 . S
C254 C255 1.398 . S
C254 H277 0.929 . S
C255 C254 1.398 . S
C255 C256 1.352 . S
C256 C255 1.352 . S
C256 C257 1.384 . S
C256 H278 0.930 . S
C257 C252 1.407 . S
C257 C256 1.384 . S
C257 H279 0.929 . S
C258 O268 1.241 1_556 S
C258 O269 1.273 . S
C259 O270 1.251 . S
C259 O271 1.268 1_554 S
O260 Nd240 2.500 . S
O260 C242 1.258 . S
O261 Nd240 2.492 . S
O261 C242 1.239 . S
O262 Nd240 2.487 . S
O262 C249 1.241 . S
O263 Nd240 2.682 . S
O263 Nd241 2.414 1_556 S
O263 C249 1.273 . S
O264 Nd240 2.410 . S
O264 C250 1.251 . S
O265 Nd241 2.424 1_556 S
O265 C250 1.268 . S
O266 Nd241 2.500 . S
O266 C251 1.258 . S
O267 Nd241 2.492 . S
O267 C251 1.239 . S
O268 Nd241 2.487 . S
O268 C258 1.241 1_554 S
O269 Nd240 2.414 . S
O269 Nd241 2.682 1_556 S
O269 C258 1.273 . S
O270 Nd241 2.410 . S
O270 C259 1.251 . S
O271 Nd240 2.424 . S
O271 C259 1.268 1_556 S
H272 C244 0.930 . S
H273 C245 0.929 . S
H274 C247 0.930 . S
H275 C248 0.929 . S
H276 C253 0.930 . S
H277 C254 0.929 . S
H278 C256 0.930 . S
H279 C257 0.929 . S
Nd280 C282 2.836 . S
Nd280 O300 2.500 . S
Nd280 O301 2.492 . S
Nd280 O302 2.487 . S
Nd280 O303 2.682 . S
Nd280 O304 2.410 . S
Nd280 O309 2.414 . S
Nd280 O311 2.424 . S
Nd281 C291 2.836 . S
Nd281 O303 2.414 1_554 S
Nd281 O305 2.424 1_554 S
Nd281 O306 2.500 . S
Nd281 O307 2.492 . S
Nd281 O308 2.487 . S
Nd281 O309 2.682 1_554 S
Nd281 O310 2.410 . S
C282 Nd280 2.836 . S
C282 C283 1.498 . S
C282 O300 1.258 . S
C282 O301 1.239 . S
C283 C282 1.498 . S
C283 C284 1.366 . S
C283 C288 1.407 . S
C284 C283 1.366 . S
C284 C285 1.392 . S
C284 H312 0.930 . S
C285 C284 1.392 . S
C285 C286 1.398 . S
C285 H313 0.929 . S
C286 C285 1.398 . S
C286 C287 1.352 . S
C287 C286 1.352 . S
C287 C288 1.384 . S
C287 H314 0.930 . S
C288 C283 1.407 . S
C288 C287 1.384 . S
C288 H315 0.929 . S
C289 O302 1.241 . S
C289 O303 1.273 . S
C290 O304 1.251 . S
C290 O305 1.268 . S
C291 Nd281 2.836 . S
C291 C292 1.498 . S
C291 O306 1.258 . S
C291 O307 1.239 . S
C292 C291 1.498 . S
C292 C293 1.366 . S
C292 C297 1.407 . S
C293 C292 1.366 . S
C293 C294 1.392 . S
C293 H316 0.930 . S
C294 C293 1.392 . S
C294 C295 1.398 . S
C294 H317 0.929 . S
C295 C294 1.398 . S
C295 C296 1.352 . S
C296 C295 1.352 . S
C296 C297 1.384 . S
C296 H318 0.930 . S
C297 C292 1.407 . S
C297 C296 1.384 . S
C297 H319 0.929 . S
C298 O308 1.241 1_556 S
C298 O309 1.273 . S
C299 O310 1.251 . S
C299 O311 1.268 1_554 S
O300 Nd280 2.500 . S
O300 C282 1.258 . S
O301 Nd280 2.492 . S
O301 C282 1.239 . S
O302 Nd280 2.487 . S
O302 C289 1.241 . S
O303 Nd280 2.682 . S
O303 Nd281 2.414 1_556 S
O303 C289 1.273 . S
O304 Nd280 2.410 . S
O304 C290 1.251 . S
O305 Nd281 2.424 1_556 S
O305 C290 1.268 . S
O306 Nd281 2.500 . S
O306 C291 1.258 . S
O307 Nd281 2.492 . S
O307 C291 1.239 . S
O308 Nd281 2.487 . S
O308 C298 1.241 1_554 S
O309 Nd280 2.414 . S
O309 Nd281 2.682 1_556 S
O309 C298 1.273 . S
O310 Nd281 2.410 . S
O310 C299 1.251 . S
O311 Nd280 2.424 . S
O311 C299 1.268 1_556 S
H312 C284 0.930 . S
H313 C285 0.929 . S
H314 C287 0.930 . S
H315 C288 0.929 . S
H316 C293 0.930 . S
H317 C294 0.929 . S
H318 C296 0.930 . S
H319 C297 0.929 . S
H320 C338 0.951 . S
H321 C340 0.951 . S
H322 C342 0.950 . S
H323 C343 0.950 . S
H324 C345 0.950 . S
H325 C348 0.950 . S
H326 C349 0.950 . S
H327 C351 0.950 . S
H328 C352 0.950 . S
H329 C353 0.951 . S
H330 C355 0.951 . S
H331 C357 0.950 . S
H332 C358 0.950 . S
H333 C360 0.950 . S
H334 C363 0.950 . S
H335 C364 0.950 . S
H336 C366 0.950 . S
H337 C367 0.950 . S
C338 H320 0.951 . S
C338 C339 1.366 . S
C338 C340 1.388 . S
C339 C338 1.366 . S
C339 C343 1.385 . S
C340 H321 0.951 . S
C340 C338 1.388 . S
C340 C341 1.366 . S
C341 C340 1.366 . S
C341 C342 1.414 . S
C341 C344 1.499 . S
C342 H322 0.950 . S
C342 C341 1.414 . S
C342 C343 1.374 . S
C343 H323 0.950 . S
C343 C339 1.385 . S
C343 C342 1.374 . S
C344 C341 1.499 . S
C344 C345 1.373 . S
C344 C346 1.389 . S
C345 H324 0.950 . S
C345 C344 1.373 . S
C345 C361 1.377 . S
C346 C344 1.389 . S
C346 C347 1.524 . S
C346 C360 1.377 . S
C347 C346 1.524 . S
C347 C348 1.397 . S
C347 C352 1.363 . S
C348 H325 0.950 . S
C348 C347 1.397 . S
C348 C349 1.334 . S
C349 H326 0.950 . S
C349 C348 1.334 . S
C349 C350 1.287 . S
C350 C349 1.287 . S
C350 C351 1.524 . S
C350 H369 0.913 . S
C351 H327 0.950 . S
C351 C350 1.524 . S
C351 C352 1.415 . S
C352 H328 0.950 . S
C352 C347 1.363 . S
C352 C351 1.415 . S
C353 H329 0.951 . S
C353 C354 1.366 . S
C353 C355 1.388 . S
C354 C353 1.366 . S
C354 C358 1.385 . S
C355 H330 0.951 . S
C355 C353 1.388 . S
C355 C356 1.366 . S
C356 C355 1.366 . S
C356 C357 1.414 . S
C356 C359 1.499 . S
C357 H331 0.950 . S
C357 C356 1.414 . S
C357 C358 1.374 . S
C358 H332 0.950 . S
C358 C354 1.385 . S
C358 C357 1.374 . S
C359 C356 1.499 . S
C359 C360 1.373 . S
C359 C361 1.389 . S
C360 H333 0.950 . S
C360 C346 1.377 . S
C360 C359 1.373 . S
C361 C345 1.377 . S
C361 C359 1.389 . S
C361 C362 1.524 . S
C362 C361 1.524 . S
C362 C363 1.397 . S
C362 C367 1.363 . S
C363 H334 0.950 . S
C363 C362 1.397 . S
C363 C364 1.334 . S
C364 H335 0.950 . S
C364 C363 1.334 . S
C364 C365 1.287 . S
C365 C364 1.287 . S
C365 C366 1.524 . S
C365 H368 0.999 . S
C366 H336 0.950 . S
C366 C365 1.524 . S
C366 C367 1.415 . S
C367 H337 0.950 . S
C367 C362 1.363 . S
C367 C366 1.415 . S
H368 C365 0.999 . S
H369 C350 0.913 . S
H370 C388 0.951 . S
H371 C390 0.951 . S
H372 C392 0.950 . S
H373 C393 0.950 . S
H374 C395 0.950 . S
H375 C398 0.950 . S
H376 C399 0.950 . S
H377 C401 0.950 . S
H378 C402 0.950 . S
H379 C403 0.951 . S
H380 C405 0.951 . S
H381 C407 0.950 . S
H382 C408 0.950 . S
H383 C410 0.950 . S
H384 C413 0.950 . S
H385 C414 0.950 . S
H386 C416 0.950 . S
H387 C417 0.950 . S
C388 H370 0.951 . S
C388 C389 1.366 . S
C388 C390 1.388 . S
C389 C388 1.366 . S
C389 C393 1.385 . S
C390 H371 0.951 . S
C390 C388 1.388 . S
C390 C391 1.366 . S
C391 C390 1.366 . S
C391 C392 1.414 . S
C391 C394 1.499 . S
C392 H372 0.950 . S
C392 C391 1.414 . S
C392 C393 1.374 . S
C393 H373 0.950 . S
C393 C389 1.385 . S
C393 C392 1.374 . S
C394 C391 1.499 . S
C394 C395 1.373 . S
C394 C396 1.389 . S
C395 H374 0.950 . S
C395 C394 1.373 . S
C395 C411 1.377 . S
C396 C394 1.389 . S
C396 C397 1.524 . S
C396 C410 1.377 . S
C397 C396 1.524 . S
C397 C398 1.397 . S
C397 C402 1.363 . S
C398 H375 0.950 . S
C398 C397 1.397 . S
C398 C399 1.334 . S
C399 H376 0.950 . S
C399 C398 1.334 . S
C399 C400 1.287 . S
C400 C399 1.287 . S
C400 C401 1.524 . S
C400 H419 0.913 . S
C401 H377 0.950 . S
C401 C400 1.524 . S
C401 C402 1.415 . S
C402 H378 0.950 . S
C402 C397 1.363 . S
C402 C401 1.415 . S
C403 H379 0.951 . S
C403 C404 1.366 . S
C403 C405 1.388 . S
C404 C403 1.366 . S
C404 C408 1.385 . S
C405 H380 0.951 . S
C405 C403 1.388 . S
C405 C406 1.366 . S
C406 C405 1.366 . S
C406 C407 1.414 . S
C406 C409 1.499 . S
C407 H381 0.950 . S
C407 C406 1.414 . S
C407 C408 1.374 . S
C408 H382 0.950 . S
C408 C404 1.385 . S
C408 C407 1.374 . S
C409 C406 1.499 . S
C409 C410 1.373 . S
C409 C411 1.389 . S
C410 H383 0.950 . S
C410 C396 1.377 . S
C410 C409 1.373 . S
C411 C395 1.377 . S
C411 C409 1.389 . S
C411 C412 1.524 . S
C412 C411 1.524 . S
C412 C413 1.397 . S
C412 C417 1.363 . S
C413 H384 0.950 . S
C413 C412 1.397 . S
C413 C414 1.334 . S
C414 H385 0.950 . S
C414 C413 1.334 . S
C414 C415 1.287 . S
C415 C414 1.287 . S
C415 C416 1.524 . S
C415 H418 0.999 . S
C416 H386 0.950 . S
C416 C415 1.524 . S
C416 C417 1.415 . S
C417 H387 0.950 . S
C417 C412 1.363 . S
C417 C416 1.415 . S
H418 C415 0.999 . S
H419 C400 0.913 . S
H420 C438 0.951 . S
H421 C440 0.951 . S
H422 C442 0.950 . S
H423 C443 0.950 . S
H424 C445 0.950 . S
H425 C448 0.950 . S
H426 C449 0.950 . S
H427 C451 0.950 . S
H428 C452 0.950 . S
H429 C453 0.951 . S
H430 C455 0.951 . S
H431 C457 0.950 . S
H432 C458 0.950 . S
H433 C460 0.950 . S
H434 C463 0.950 . S
H435 C464 0.950 . S
H436 C466 0.950 . S
H437 C467 0.950 . S
C438 H420 0.951 . S
C438 C439 1.366 . S
C438 C440 1.388 . S
C439 C438 1.366 . S
C439 C443 1.385 . S
C440 H421 0.951 . S
C440 C438 1.388 . S
C440 C441 1.366 . S
C441 C440 1.366 . S
C441 C442 1.414 . S
C441 C444 1.499 . S
C442 H422 0.950 . S
C442 C441 1.414 . S
C442 C443 1.374 . S
C443 H423 0.950 . S
C443 C439 1.385 . S
C443 C442 1.374 . S
C444 C441 1.499 . S
C444 C445 1.373 . S
C444 C446 1.389 . S
C445 H424 0.950 . S
C445 C444 1.373 . S
C445 C461 1.377 . S
C446 C444 1.389 . S
C446 C447 1.524 . S
C446 C460 1.377 . S
C447 C446 1.524 . S
C447 C448 1.397 . S
C447 C452 1.363 . S
C448 H425 0.950 . S
C448 C447 1.397 . S
C448 C449 1.334 . S
C449 H426 0.950 . S
C449 C448 1.334 . S
C449 C450 1.287 . S
C450 C449 1.287 . S
C450 C451 1.524 . S
C450 H469 0.913 . S
C451 H427 0.950 . S
C451 C450 1.524 . S
C451 C452 1.415 . S
C452 H428 0.950 . S
C452 C447 1.363 . S
C452 C451 1.415 . S
C453 H429 0.951 . S
C453 C454 1.366 . S
C453 C455 1.388 . S
C454 C453 1.366 . S
C454 C458 1.385 . S
C455 H430 0.951 . S
C455 C453 1.388 . S
C455 C456 1.366 . S
C456 C455 1.366 . S
C456 C457 1.414 . S
C456 C459 1.499 . S
C457 H431 0.950 . S
C457 C456 1.414 . S
C457 C458 1.374 . S
C458 H432 0.950 . S
C458 C454 1.385 . S
C458 C457 1.374 . S
C459 C456 1.499 . S
C459 C460 1.373 . S
C459 C461 1.389 . S
C460 H433 0.950 . S
C460 C446 1.377 . S
C460 C459 1.373 . S
C461 C445 1.377 . S
C461 C459 1.389 . S
C461 C462 1.524 . S
C462 C461 1.524 . S
C462 C463 1.397 . S
C462 C467 1.363 . S
C463 H434 0.950 . S
C463 C462 1.397 . S
C463 C464 1.334 . S
C464 H435 0.950 . S
C464 C463 1.334 . S
C464 C465 1.287 . S
C465 C464 1.287 . S
C465 C466 1.524 . S
C465 H468 0.999 . S
C466 H436 0.950 . S
C466 C465 1.524 . S
C466 C467 1.415 . S
C467 H437 0.950 . S
C467 C462 1.363 . S
C467 C466 1.415 . S
H468 C465 0.999 . S
H469 C450 0.913 . S
H470 C488 0.951 . S
H471 C490 0.951 . S
H472 C492 0.950 . S
H473 C493 0.950 . S
H474 C495 0.950 . S
H475 C498 0.950 . S
H476 C499 0.950 . S
H477 C501 0.950 . S
H478 C502 0.950 . S
H479 C503 0.951 . S
H480 C505 0.951 . S
H481 C507 0.950 . S
H482 C508 0.950 . S
H483 C510 0.950 . S
H484 C513 0.950 . S
H485 C514 0.950 . S
H486 C516 0.950 . S
H487 C517 0.950 . S
C488 H470 0.951 . S
C488 C489 1.366 . S
C488 C490 1.388 . S
C489 C488 1.366 . S
C489 C493 1.385 . S
C490 H471 0.951 . S
C490 C488 1.388 . S
C490 C491 1.366 . S
C491 C490 1.366 . S
C491 C492 1.414 . S
C491 C494 1.499 . S
C492 H472 0.950 . S
C492 C491 1.414 . S
C492 C493 1.374 . S
C493 H473 0.950 . S
C493 C489 1.385 . S
C493 C492 1.374 . S
C494 C491 1.499 . S
C494 C495 1.373 . S
C494 C496 1.389 . S
C495 H474 0.950 . S
C495 C494 1.373 . S
C495 C511 1.377 . S
C496 C494 1.389 . S
C496 C497 1.524 . S
C496 C510 1.377 . S
C497 C496 1.524 . S
C497 C498 1.397 . S
C497 C502 1.363 . S
C498 H475 0.950 . S
C498 C497 1.397 . S
C498 C499 1.334 . S
C499 H476 0.950 . S
C499 C498 1.334 . S
C499 C500 1.287 . S
C500 C499 1.287 . S
C500 C501 1.524 . S
C500 H519 0.913 . S
C501 H477 0.950 . S
C501 C500 1.524 . S
C501 C502 1.415 . S
C502 H478 0.950 . S
C502 C497 1.363 . S
C502 C501 1.415 . S
C503 H479 0.951 . S
C503 C504 1.366 . S
C503 C505 1.388 . S
C504 C503 1.366 . S
C504 C508 1.385 . S
C505 H480 0.951 . S
C505 C503 1.388 . S
C505 C506 1.366 . S
C506 C505 1.366 . S
C506 C507 1.414 . S
C506 C509 1.499 . S
C507 H481 0.950 . S
C507 C506 1.414 . S
C507 C508 1.374 . S
C508 H482 0.950 . S
C508 C504 1.385 . S
C508 C507 1.374 . S
C509 C506 1.499 . S
C509 C510 1.373 . S
C509 C511 1.389 . S
C510 H483 0.950 . S
C510 C496 1.377 . S
C510 C509 1.373 . S
C511 C495 1.377 . S
C511 C509 1.389 . S
C511 C512 1.524 . S
C512 C511 1.524 . S
C512 C513 1.397 . S
C512 C517 1.363 . S
C513 H484 0.950 . S
C513 C512 1.397 . S
C513 C514 1.334 . S
C514 H485 0.950 . S
C514 C513 1.334 . S
C514 C515 1.287 . S
C515 C514 1.287 . S
C515 C516 1.524 . S
C515 H518 0.999 . S
C516 H486 0.950 . S
C516 C515 1.524 . S
C516 C517 1.415 . S
C517 H487 0.950 . S
C517 C512 1.363 . S
C517 C516 1.415 . S
H518 C515 0.999 . S
H519 C500 0.913 . S
H520 C538 0.951 . S
H521 C540 0.951 . S
H522 C542 0.950 . S
H523 C543 0.950 . S
H524 C545 0.950 . S
H525 C548 0.950 . S
H526 C549 0.950 . S
H527 C551 0.950 . S
H528 C552 0.950 . S
H529 C553 0.951 . S
H530 C555 0.951 . S
H531 C557 0.950 . S
H532 C558 0.950 . S
H533 C560 0.950 . S
H534 C563 0.950 . S
H535 C564 0.950 . S
H536 C566 0.950 . S
H537 C567 0.950 . S
C538 H520 0.951 . S
C538 C539 1.366 . S
C538 C540 1.388 . S
C539 C538 1.366 . S
C539 C543 1.385 . S
C540 H521 0.951 . S
C540 C538 1.388 . S
C540 C541 1.366 . S
C541 C540 1.366 . S
C541 C542 1.414 . S
C541 C544 1.499 . S
C542 H522 0.950 . S
C542 C541 1.414 . S
C542 C543 1.374 . S
C543 H523 0.950 . S
C543 C539 1.385 . S
C543 C542 1.374 . S
C544 C541 1.499 . S
C544 C545 1.373 . S
C544 C546 1.389 . S
C545 H524 0.950 . S
C545 C544 1.373 . S
C545 C561 1.377 1_565 S
C546 C544 1.389 . S
C546 C547 1.524 . S
C546 C560 1.377 1_565 S
C547 C546 1.524 . S
C547 C548 1.397 . S
C547 C552 1.363 . S
C548 H525 0.950 . S
C548 C547 1.397 . S
C548 C549 1.334 . S
C549 H526 0.950 . S
C549 C548 1.334 . S
C549 C550 1.287 . S
C550 C549 1.287 . S
C550 C551 1.524 . S
C550 H569 0.913 . S
C551 H527 0.950 . S
C551 C550 1.524 . S
C551 C552 1.415 . S
C552 H528 0.950 . S
C552 C547 1.363 . S
C552 C551 1.415 . S
C553 H529 0.951 . S
C553 C554 1.366 . S
C553 C555 1.388 . S
C554 C553 1.366 . S
C554 C558 1.385 . S
C555 H530 0.951 . S
C555 C553 1.388 . S
C555 C556 1.366 . S
C556 C555 1.366 . S
C556 C557 1.414 . S
C556 C559 1.499 . S
C557 H531 0.950 . S
C557 C556 1.414 . S
C557 C558 1.374 . S
C558 H532 0.950 . S
C558 C554 1.385 . S
C558 C557 1.374 . S
C559 C556 1.499 . S
C559 C560 1.373 . S
C559 C561 1.389 . S
C560 H533 0.950 . S
C560 C546 1.377 1_545 S
C560 C559 1.373 . S
C561 C545 1.377 1_545 S
C561 C559 1.389 . S
C561 C562 1.524 . S
C562 C561 1.524 . S
C562 C563 1.397 . S
C562 C567 1.363 . S
C563 H534 0.950 . S
C563 C562 1.397 . S
C563 C564 1.334 . S
C564 H535 0.950 . S
C564 C563 1.334 . S
C564 C565 1.287 . S
C565 C564 1.287 . S
C565 C566 1.524 . S
C565 H568 0.999 . S
C566 H536 0.950 . S
C566 C565 1.524 . S
C566 C567 1.415 . S
C567 H537 0.950 . S
C567 C562 1.363 . S
C567 C566 1.415 . S
H568 C565 0.999 . S
H569 C550 0.913 . S
H570 C588 0.951 . S
H571 C590 0.951 . S
H572 C592 0.950 . S
H573 C593 0.950 . S
H574 C595 0.950 . S
H575 C598 0.950 . S
H576 C599 0.950 . S
H577 C601 0.950 . S
H578 C602 0.950 . S
H579 C603 0.951 . S
H580 C605 0.951 . S
H581 C607 0.950 . S
H582 C608 0.950 . S
H583 C610 0.950 . S
H584 C613 0.950 . S
H585 C614 0.950 . S
H586 C616 0.950 . S
H587 C617 0.950 . S
C588 H570 0.951 . S
C588 C589 1.366 . S
C588 C590 1.388 . S
C589 C588 1.366 . S
C589 C593 1.385 . S
C590 H571 0.951 . S
C590 C588 1.388 . S
C590 C591 1.366 . S
C591 C590 1.366 . S
C591 C592 1.414 . S
C591 C594 1.499 . S
C592 H572 0.950 . S
C592 C591 1.414 . S
C592 C593 1.374 . S
C593 H573 0.950 . S
C593 C589 1.385 . S
C593 C592 1.374 . S
C594 C591 1.499 . S
C594 C595 1.373 . S
C594 C596 1.389 . S
C595 H574 0.950 . S
C595 C594 1.373 . S
C595 C611 1.377 . S
C596 C594 1.389 . S
C596 C597 1.524 . S
C596 C610 1.377 . S
C597 C596 1.524 . S
C597 C598 1.397 . S
C597 C602 1.363 . S
C598 H575 0.950 . S
C598 C597 1.397 . S
C598 C599 1.334 . S
C599 H576 0.950 . S
C599 C598 1.334 . S
C599 C600 1.287 . S
C600 C599 1.287 . S
C600 C601 1.524 . S
C600 H619 0.913 . S
C601 H577 0.950 . S
C601 C600 1.524 . S
C601 C602 1.415 . S
C602 H578 0.950 . S
C602 C597 1.363 . S
C602 C601 1.415 . S
C603 H579 0.951 . S
C603 C604 1.366 . S
C603 C605 1.388 . S
C604 C603 1.366 . S
C604 C608 1.385 . S
C605 H580 0.951 . S
C605 C603 1.388 . S
C605 C606 1.366 . S
C606 C605 1.366 . S
C606 C607 1.414 . S
C606 C609 1.499 . S
C607 H581 0.950 . S
C607 C606 1.414 . S
C607 C608 1.374 . S
C608 H582 0.950 . S
C608 C604 1.385 . S
C608 C607 1.374 . S
C609 C606 1.499 . S
C609 C610 1.373 . S
C609 C611 1.389 . S
C610 H583 0.950 . S
C610 C596 1.377 . S
C610 C609 1.373 . S
C611 C595 1.377 . S
C611 C609 1.389 . S
C611 C612 1.524 . S
C612 C611 1.524 . S
C612 C613 1.397 . S
C612 C617 1.363 . S
C613 H584 0.950 . S
C613 C612 1.397 . S
C613 C614 1.334 . S
C614 H585 0.950 . S
C614 C613 1.334 . S
C614 C615 1.287 . S
C615 C614 1.287 . S
C615 C616 1.524 . S
C615 H618 0.999 . S
C616 H586 0.950 . S
C616 C615 1.524 . S
C616 C617 1.415 . S
C617 H587 0.950 . S
C617 C612 1.363 . S
C617 C616 1.415 . S
H618 C615 0.999 . S
H619 C600 0.913 . S
H620 C638 0.951 . S
H621 C640 0.951 . S
H622 C642 0.950 . S
H623 C643 0.950 . S
H624 C645 0.950 . S
H625 C648 0.950 . S
H626 C649 0.950 . S
H627 C651 0.950 . S
H628 C652 0.950 1_545 S
H629 C653 0.951 . S
H630 C655 0.951 . S
H631 C657 0.950 . S
H632 C658 0.950 . S
H633 C660 0.950 . S
H634 C663 0.950 . S
H635 C664 0.950 . S
H636 C666 0.950 . S
H637 C667 0.950 1_565 S
C638 H620 0.951 . S
C638 C639 1.366 . S
C638 C640 1.388 . S
C639 C638 1.366 . S
C639 C643 1.385 . S
C640 H621 0.951 . S
C640 C638 1.388 . S
C640 C641 1.366 . S
C641 C640 1.366 . S
C641 C642 1.414 . S
C641 C644 1.499 . S
C642 H622 0.950 . S
C642 C641 1.414 . S
C642 C643 1.374 . S
C643 H623 0.950 . S
C643 C639 1.385 . S
C643 C642 1.374 . S
C644 C641 1.499 . S
C644 C645 1.373 . S
C644 C646 1.389 . S
C645 H624 0.950 . S
C645 C644 1.373 . S
C645 C661 1.377 1_565 S
C646 C644 1.389 . S
C646 C647 1.524 . S
C646 C660 1.377 1_565 S
C647 C646 1.524 . S
C647 C648 1.397 . S
C647 C652 1.363 . S
C648 H625 0.950 . S
C648 C647 1.397 . S
C648 C649 1.334 . S
C649 H626 0.950 . S
C649 C648 1.334 . S
C649 C650 1.287 . S
C650 C649 1.287 . S
C650 C651 1.524 . S
C650 H669 0.913 . S
C651 H627 0.950 . S
C651 C650 1.524 . S
C651 C652 1.415 . S
C652 H628 0.950 1_565 S
C652 C647 1.363 . S
C652 C651 1.415 . S
C653 H629 0.951 . S
C653 C654 1.366 . S
C653 C655 1.388 . S
C654 C653 1.366 . S
C654 C658 1.385 . S
C655 H630 0.951 . S
C655 C653 1.388 . S
C655 C656 1.366 . S
C656 C655 1.366 . S
C656 C657 1.414 . S
C656 C659 1.499 . S
C657 H631 0.950 . S
C657 C656 1.414 . S
C657 C658 1.374 . S
C658 H632 0.950 . S
C658 C654 1.385 . S
C658 C657 1.374 . S
C659 C656 1.499 . S
C659 C660 1.373 . S
C659 C661 1.389 . S
C660 H633 0.950 . S
C660 C646 1.377 1_545 S
C660 C659 1.373 . S
C661 C645 1.377 1_545 S
C661 C659 1.389 . S
C661 C662 1.524 . S
C662 C661 1.524 . S
C662 C663 1.397 . S
C662 C667 1.363 . S
C663 H634 0.950 . S
C663 C662 1.397 . S
C663 C664 1.334 . S
C664 H635 0.950 . S
C664 C663 1.334 . S
C664 C665 1.287 . S
C665 C664 1.287 . S
C665 C666 1.524 . S
C665 H668 0.999 . S
C666 H636 0.950 . S
C666 C665 1.524 . S
C666 C667 1.415 . S
C667 H637 0.950 1_545 S
C667 C662 1.363 . S
C667 C666 1.415 . S
H668 C665 0.999 . S
H669 C650 0.913 . S
H670 C688 0.951 . S
H671 C690 0.951 . S
H672 C692 0.950 . S
H673 C693 0.950 . S
H674 C695 0.950 . S
H675 C698 0.950 . S
H676 C699 0.950 . S
H677 C701 0.950 . S
H678 C702 0.950 . S
H679 C703 0.951 . S
H680 C705 0.951 . S
H681 C707 0.950 . S
H682 C708 0.950 . S
H683 C710 0.950 . S
H684 C713 0.950 . S
H685 C714 0.950 . S
H686 C716 0.950 . S
H687 C717 0.950 . S
C688 H670 0.951 . S
C688 C689 1.366 . S
C688 C690 1.388 . S
C689 C688 1.366 . S
C689 C693 1.385 . S
C690 H671 0.951 . S
C690 C688 1.388 . S
C690 C691 1.366 . S
C691 C690 1.366 . S
C691 C692 1.414 . S
C691 C694 1.499 . S
C692 H672 0.950 . S
C692 C691 1.414 . S
C692 C693 1.374 . S
C693 H673 0.950 . S
C693 C689 1.385 . S
C693 C692 1.374 . S
C694 C691 1.499 . S
C694 C695 1.373 . S
C694 C696 1.389 . S
C695 H674 0.950 . S
C695 C694 1.373 . S
C695 C711 1.377 . S
C696 C694 1.389 . S
C696 C697 1.524 . S
C696 C710 1.377 . S
C697 C696 1.524 . S
C697 C698 1.397 . S
C697 C702 1.363 . S
C698 H675 0.950 . S
C698 C697 1.397 . S
C698 C699 1.334 . S
C699 H676 0.950 . S
C699 C698 1.334 . S
C699 C700 1.287 . S
C700 C699 1.287 . S
C700 C701 1.524 . S
C700 H719 0.913 . S
C701 H677 0.950 . S
C701 C700 1.524 . S
C701 C702 1.415 . S
C702 H678 0.950 . S
C702 C697 1.363 . S
C702 C701 1.415 . S
C703 H679 0.951 . S
C703 C704 1.366 . S
C703 C705 1.388 . S
C704 C703 1.366 . S
C704 C708 1.385 . S
C705 H680 0.951 . S
C705 C703 1.388 . S
C705 C706 1.366 . S
C706 C705 1.366 . S
C706 C707 1.414 . S
C706 C709 1.499 . S
C707 H681 0.950 . S
C707 C706 1.414 . S
C707 C708 1.374 . S
C708 H682 0.950 . S
C708 C704 1.385 . S
C708 C707 1.374 . S
C709 C706 1.499 . S
C709 C710 1.373 . S
C709 C711 1.389 . S
C710 H683 0.950 . S
C710 C696 1.377 . S
C710 C709 1.373 . S
C711 C695 1.377 . S
C711 C709 1.389 . S
C711 C712 1.524 . S
C712 C711 1.524 . S
C712 C713 1.397 . S
C712 C717 1.363 . S
C713 H684 0.950 . S
C713 C712 1.397 . S
C713 C714 1.334 . S
C714 H685 0.950 . S
C714 C713 1.334 . S
C714 C715 1.287 . S
C715 C714 1.287 . S
C715 C716 1.524 . S
C715 H718 0.999 . S
C716 H686 0.950 . S
C716 C715 1.524 . S
C716 C717 1.415 . S
C717 H687 0.950 . S
C717 C712 1.363 . S
C717 C716 1.415 . S
H718 C715 0.999 . S
H719 C700 0.913 . S
H720 C738 0.951 . S
H721 C740 0.951 1_556 S
H722 C742 0.950 . S
H723 C743 0.950 . S
H724 C745 0.950 . S
H725 C748 0.950 . S
H726 C749 0.950 . S
H727 C751 0.950 . S
H728 C752 0.950 . S
H729 C753 0.951 1_554 S
H730 C755 0.951 . S
H731 C757 0.950 . S
H732 C758 0.950 . S
H733 C760 0.950 . S
H734 C763 0.950 . S
H735 C764 0.950 . S
H736 C766 0.950 . S
H737 C767 0.950 . S
C738 H720 0.951 . S
C738 C739 1.366 . S
C738 C740 1.388 . S
C739 C738 1.366 . S
C739 C743 1.385 . S
C740 H721 0.951 1_554 S
C740 C738 1.388 . S
C740 C741 1.366 . S
C741 C740 1.366 . S
C741 C742 1.414 . S
C741 C744 1.499 . S
C742 H722 0.950 . S
C742 C741 1.414 . S
C742 C743 1.374 . S
C743 H723 0.950 . S
C743 C739 1.385 . S
C743 C742 1.374 . S
C744 C741 1.499 . S
C744 C745 1.373 . S
C744 C746 1.389 1_554 S
C745 H724 0.950 . S
C745 C744 1.373 . S
C745 C761 1.377 . S
C746 C744 1.389 1_556 S
C746 C747 1.524 . S
C746 C760 1.377 . S
C747 C746 1.524 . S
C747 C748 1.397 . S
C747 C752 1.363 . S
C748 H725 0.950 . S
C748 C747 1.397 . S
C748 C749 1.334 . S
C749 H726 0.950 . S
C749 C748 1.334 . S
C749 C750 1.287 . S
C750 C749 1.287 . S
C750 C751 1.524 . S
C750 H769 0.913 . S
C751 H727 0.950 . S
C751 C750 1.524 . S
C751 C752 1.415 . S
C752 H728 0.950 . S
C752 C747 1.363 . S
C752 C751 1.415 . S
C753 H729 0.951 1_556 S
C753 C754 1.366 . S
C753 C755 1.388 1_556 S
C754 C753 1.366 . S
C754 C758 1.385 . S
C755 H730 0.951 . S
C755 C753 1.388 1_554 S
C755 C756 1.366 1_554 S
C756 C755 1.366 1_556 S
C756 C757 1.414 . S
C756 C759 1.499 1_556 S
C757 H731 0.950 . S
C757 C756 1.414 . S
C757 C758 1.374 . S
C758 H732 0.950 . S
C758 C754 1.385 . S
C758 C757 1.374 . S
C759 C756 1.499 1_554 S
C759 C760 1.373 1_554 S
C759 C761 1.389 . S
C760 H733 0.950 . S
C760 C746 1.377 . S
C760 C759 1.373 1_556 S
C761 C745 1.377 . S
C761 C759 1.389 . S
C761 C762 1.524 . S
C762 C761 1.524 . S
C762 C763 1.397 . S
C762 C767 1.363 . S
C763 H734 0.950 . S
C763 C762 1.397 . S
C763 C764 1.334 . S
C764 H735 0.950 . S
C764 C763 1.334 . S
C764 C765 1.287 . S
C765 C764 1.287 . S
C765 C766 1.524 . S
C765 H768 0.999 . S
C766 H736 0.950 . S
C766 C765 1.524 . S
C766 C767 1.415 . S
C767 H737 0.950 . S
C767 C762 1.363 . S
C767 C766 1.415 . S
H768 C765 0.999 . S
H769 C750 0.913 . S
H770 C788 0.951 . S
H771 C790 0.951 . S
H772 C792 0.950 . S
H773 C793 0.950 . S
H774 C795 0.950 . S
H775 C798 0.950 . S
H776 C799 0.950 1_554 S
H777 C801 0.950 . S
H778 C802 0.950 . S
H779 C803 0.951 . S
H780 C805 0.951 . S
H781 C807 0.950 . S
H782 C808 0.950 . S
H783 C810 0.950 . S
H784 C813 0.950 1_556 S
H785 C814 0.950 1_556 S
H786 C816 0.950 . S
H787 C817 0.950 . S
C788 H770 0.951 . S
C788 C789 1.366 1_556 S
C788 C790 1.388 . S
C789 C788 1.366 1_554 S
C789 C793 1.385 . S
C790 H771 0.951 . S
C790 C788 1.388 . S
C790 C791 1.366 1_556 S
C791 C790 1.366 1_554 S
C791 C792 1.414 . S
C791 C794 1.499 . S
C792 H772 0.950 . S
C792 C791 1.414 . S
C792 C793 1.374 . S
C793 H773 0.950 . S
C793 C789 1.385 . S
C793 C792 1.374 . S
C794 C791 1.499 . S
C794 C795 1.373 . S
C794 C796 1.389 1_554 S
C795 H774 0.950 . S
C795 C794 1.373 . S
C795 C811 1.377 1_565 S
C796 C794 1.389 1_556 S
C796 C797 1.524 . S
C796 C810 1.377 1_565 S
C797 C796 1.524 . S
C797 C798 1.397 1_556 S
C797 C802 1.363 . S
C798 H775 0.950 . S
C798 C797 1.397 1_554 S
C798 C799 1.334 1_554 S
C799 H776 0.950 1_556 S
C799 C798 1.334 1_556 S
C799 C800 1.287 . S
C800 C799 1.287 . S
C800 C801 1.524 . S
C800 H819 0.913 . S
C801 H777 0.950 . S
C801 C800 1.524 . S
C801 C802 1.415 . S
C802 H778 0.950 . S
C802 C797 1.363 . S
C802 C801 1.415 . S
C803 H779 0.951 . S
C803 C804 1.366 1_554 S
C803 C805 1.388 . S
C804 C803 1.366 1_556 S
C804 C808 1.385 . S
C805 H780 0.951 . S
C805 C803 1.388 . S
C805 C806 1.366 1_554 S
C806 C805 1.366 1_556 S
C806 C807 1.414 . S
C806 C809 1.499 . S
C807 H781 0.950 . S
C807 C806 1.414 . S
C807 C808 1.374 . S
C808 H782 0.950 . S
C808 C804 1.385 . S
C808 C807 1.374 . S
C809 C806 1.499 . S
C809 C810 1.373 . S
C809 C811 1.389 1_556 S
C810 H783 0.950 . S
C810 C796 1.377 1_545 S
C810 C809 1.373 . S
C811 C795 1.377 1_545 S
C811 C809 1.389 1_554 S
C811 C812 1.524 . S
C812 C811 1.524 . S
C812 C813 1.397 . S
C812 C817 1.363 . S
C813 H784 0.950 1_554 S
C813 C812 1.397 . S
C813 C814 1.334 . S
C814 H785 0.950 1_554 S
C814 C813 1.334 . S
C814 C815 1.287 . S
C815 C814 1.287 . S
C815 C816 1.524 . S
C815 H818 0.999 . S
C816 H786 0.950 . S
C816 C815 1.524 . S
C816 C817 1.415 . S
C817 H787 0.950 . S
C817 C812 1.363 . S
C817 C816 1.415 . S
H818 C815 0.999 . S
H819 C800 0.913 . S
H820 C838 0.951 . S
H821 C840 0.951 . S
H822 C842 0.950 . S
H823 C843 0.950 . S
H824 C845 0.950 . S
H825 C848 0.950 . S
H826 C849 0.950 . S
H827 C851 0.950 . S
H828 C852 0.950 . S
H829 C853 0.951 . S
H830 C855 0.951 . S
H831 C857 0.950 . S
H832 C858 0.950 . S
H833 C860 0.950 . S
H834 C863 0.932 1_556 S
H835 C864 0.950 . S
H836 C866 0.950 . S
H837 C867 0.950 . S
C838 H820 0.951 . S
C838 C839 1.366 . S
C838 C840 1.388 . S
C839 C838 1.366 . S
C839 C843 1.385 1_556 S
C840 H821 0.951 . S
C840 C838 1.388 . S
C840 C841 1.366 . S
C841 C840 1.366 . S
C841 C842 1.414 1_556 S
C841 C844 1.499 . S
C842 H822 0.950 . S
C842 C841 1.414 1_554 S
C842 C843 1.374 . S
C843 H823 0.950 . S
C843 C839 1.385 1_554 S
C843 C842 1.374 . S
C844 C841 1.499 . S
C844 C845 1.373 1_556 S
C844 C846 1.389 . S
C845 H824 0.950 . S
C845 C844 1.373 1_554 S
C845 C861 1.377 . S
C846 C844 1.389 . S
C846 C847 1.524 . S
C846 C860 1.377 . S
C847 C846 1.524 . S
C847 C848 1.397 . S
C847 C852 1.363 . S
C848 H825 0.950 . S
C848 C847 1.397 . S
C848 C849 1.334 . S
C849 H826 0.950 . S
C849 C848 1.334 . S
C849 C850 1.287 . S
C850 C849 1.287 . S
C850 C851 1.524 . S
C850 H869 0.913 . S
C851 H827 0.950 . S
C851 C850 1.524 . S
C851 C852 1.415 . S
C852 H828 0.950 . S
C852 C847 1.363 . S
C852 C851 1.415 . S
C853 H829 0.951 . S
C853 C854 1.366 . S
C853 C855 1.388 . S
C854 C853 1.366 . S
C854 C858 1.385 1_554 S
C855 H830 0.951 . S
C855 C853 1.388 . S
C855 C856 1.366 . S
C856 C855 1.366 . S
C856 C857 1.414 1_554 S
C856 C859 1.499 1_554 S
C857 H831 0.950 . S
C857 C856 1.414 1_556 S
C857 C858 1.374 . S
C858 H832 0.950 . S
C858 C854 1.385 1_556 S
C858 C857 1.374 . S
C859 C856 1.499 1_556 S
C859 C860 1.373 . S
C859 C861 1.389 1_556 S
C860 H833 0.950 . S
C860 C846 1.377 . S
C860 C859 1.373 . S
C861 C845 1.377 . S
C861 C859 1.389 1_554 S
C861 C862 1.524 . S
C862 C861 1.524 . S
C862 C863 1.397 . S
C862 C867 1.363 . S
C863 H834 0.932 1_554 S
C863 C862 1.397 . S
C863 C864 1.334 . S
C864 H835 0.950 . S
C864 C863 1.334 . S
C864 C865 1.287 . S
C865 C864 1.287 . S
C865 C866 1.524 . S
C865 H868 0.999 . S
C866 H836 0.950 . S
C866 C865 1.524 . S
C866 C867 1.415 . S
C867 H837 0.950 . S
C867 C862 1.363 . S
C867 C866 1.415 . S
H868 C865 0.999 . S
H869 C850 0.913 . S
H870 C888 0.951 . S
H871 C890 0.951 . S
H872 C892 0.950 . S
H873 C893 0.951 1_554 S
H874 C895 0.950 . S
H875 C898 0.950 . S
H876 C899 0.950 . S
H877 C901 0.950 . S
H878 C902 0.950 1_566 S
H879 C903 0.951 . S
H880 C905 0.951 . S
H881 C907 0.950 . S
H882 C908 0.950 . S
H883 C910 0.950 . S
H884 C913 0.950 . S
H885 C914 0.950 . S
H886 C916 0.950 . S
H887 C917 0.950 1_544 S
C888 H870 0.951 . S
C888 C889 1.366 . S
C888 C890 1.388 . S
C889 C888 1.366 . S
C889 C893 1.384 . S
C890 H871 0.951 . S
C890 C888 1.388 . S
C890 C891 1.366 . S
C891 C890 1.366 . S
C891 C892 1.414 1_556 S
C891 C894 1.499 . S
C892 H872 0.950 . S
C892 C891 1.414 1_554 S
C892 C893 1.374 1_554 S
C893 H873 0.951 1_556 S
C893 C889 1.384 . S
C893 C892 1.374 1_556 S
C894 C891 1.499 . S
C894 C895 1.373 . S
C894 C896 1.389 1_556 S
C895 H874 0.950 . S
C895 C894 1.373 . S
C895 C911 1.377 1_545 S
C896 C894 1.389 1_554 S
C896 C897 1.524 . S
C896 C910 1.377 1_545 S
C897 C896 1.524 . S
C897 C898 1.397 . S
C897 C902 1.363 . S
C898 H875 0.950 . S
C898 C897 1.397 . S
C898 C899 1.334 . S
C899 H876 0.950 . S
C899 C898 1.334 . S
C899 C900 1.287 . S
C900 C899 1.287 . S
C900 C901 1.524 . S
C900 H919 0.913 . S
C901 H877 0.950 . S
C901 C900 1.524 . S
C901 C902 1.415 . S
C902 H878 0.950 1_544 S
C902 C897 1.363 . S
C902 C901 1.415 . S
C903 H879 0.951 . S
C903 C904 1.366 . S
C903 C905 1.388 . S
C904 C903 1.366 . S
C904 C908 1.385 1_554 S
C905 H880 0.951 . S
C905 C903 1.388 . S
C905 C906 1.366 . S
C906 C905 1.366 . S
C906 C907 1.414 1_554 S
C906 C909 1.499 1_554 S
C907 H881 0.950 . S
C907 C906 1.414 1_556 S
C907 C908 1.374 . S
C908 H882 0.950 . S
C908 C904 1.385 1_556 S
C908 C907 1.374 . S
C909 C906 1.499 1_556 S
C909 C910 1.373 1_556 S
C909 C911 1.389 . S
C910 H883 0.950 . S
C910 C896 1.377 1_565 S
C910 C909 1.373 1_554 S
C911 C895 1.377 1_565 S
C911 C909 1.389 . S
C911 C912 1.524 . S
C912 C911 1.524 . S
C912 C913 1.397 . S
C912 C917 1.363 . S
C913 H884 0.950 . S
C913 C912 1.397 . S
C913 C914 1.334 . S
C914 H885 0.950 . S
C914 C913 1.334 . S
C914 C915 1.287 . S
C915 C914 1.287 . S
C915 C916 1.524 . S
C915 H918 0.999 . S
C916 H886 0.950 . S
C916 C915 1.524 . S
C916 C917 1.415 . S
C917 H887 0.950 1_566 S
C917 C912 1.363 . S
C917 C916 1.415 . S
H918 C915 0.999 . S
H919 C900 0.913 . S
H920 C938 0.951 . S
H921 C940 0.951 . S
H922 C942 0.950 . S
H923 C943 0.950 . S
H924 C945 0.950 . S
H925 C948 0.950 . S
H926 C949 0.950 . S
H927 C951 0.950 . S
H928 C952 0.950 . S
H929 C953 0.951 . S
H930 C955 0.951 . S
H931 C957 0.950 . S
H932 C958 0.950 . S
H933 C960 0.950 1_556 S
H934 C963 0.950 . S
H935 C964 0.950 . S
H936 C966 0.950 . S
H937 C967 0.950 . S
C938 H920 0.951 . S
C938 C939 1.366 . S
C938 C940 1.388 . S
C939 C938 1.366 . S
C939 C943 1.385 . S
C940 H921 0.951 . S
C940 C938 1.388 . S
C940 C941 1.366 . S
C941 C940 1.366 . S
C941 C942 1.414 . S
C941 C944 1.499 . S
C942 H922 0.950 . S
C942 C941 1.414 . S
C942 C943 1.374 . S
C943 H923 0.950 . S
C943 C939 1.385 . S
C943 C942 1.374 . S
C944 C941 1.499 . S
C944 C945 1.373 . S
C944 C946 1.389 . S
C945 H924 0.950 . S
C945 C944 1.373 . S
C945 C961 1.377 1_554 S
C946 C944 1.389 . S
C946 C947 1.524 . S
C946 C960 1.377 . S
C947 C946 1.524 . S
C947 C948 1.397 . S
C947 C952 1.363 . S
C948 H925 0.950 . S
C948 C947 1.397 . S
C948 C949 1.334 . S
C949 H926 0.950 . S
C949 C948 1.334 . S
C949 C950 1.287 . S
C950 C949 1.287 . S
C950 C951 1.524 . S
C950 H969 0.913 . S
C951 H927 0.950 . S
C951 C950 1.524 . S
C951 C952 1.415 . S
C952 H928 0.950 . S
C952 C947 1.363 . S
C952 C951 1.415 . S
C953 H929 0.951 . S
C953 C954 1.366 . S
C953 C955 1.388 . S
C954 C953 1.366 . S
C954 C958 1.385 . S
C955 H930 0.951 . S
C955 C953 1.388 . S
C955 C956 1.366 . S
C956 C955 1.366 . S
C956 C957 1.414 . S
C956 C959 1.499 . S
C957 H931 0.950 . S
C957 C956 1.414 . S
C957 C958 1.374 . S
C958 H932 0.950 . S
C958 C954 1.385 . S
C958 C957 1.374 . S
C959 C956 1.499 . S
C959 C960 1.373 1_556 S
C959 C961 1.389 . S
C960 H933 0.950 1_554 S
C960 C946 1.377 . S
C960 C959 1.373 1_554 S
C961 C945 1.377 1_556 S
C961 C959 1.389 . S
C961 C962 1.524 . S
C962 C961 1.524 . S
C962 C963 1.397 . S
C962 C967 1.363 . S
C963 H934 0.950 . S
C963 C962 1.397 . S
C963 C964 1.334 . S
C964 H935 0.950 . S
C964 C963 1.334 . S
C964 C965 1.287 . S
C965 C964 1.287 . S
C965 C966 1.524 . S
C965 H968 0.999 . S
C966 H936 0.950 . S
C966 C965 1.524 . S
C966 C967 1.415 . S
C967 H937 0.950 . S
C967 C962 1.363 . S
C967 C966 1.415 . S
H968 C965 0.999 . S
H969 C950 0.913 . S
H970 C988 0.951 . S
H971 C990 0.951 . S
H972 C992 0.950 . S
H973 C993 0.950 . S
H974 C995 0.950 . S
H975 C998 0.950 . S
H976 C999 0.950 . S
H977 C1001 0.950 . S
H978 C1002 0.950 . S
H979 C1003 0.951 . S
H980 C1005 0.951 . S
H981 C1007 0.950 . S
H982 C1008 0.950 . S
H983 C1010 0.950 . S
H984 C1013 0.950 . S
H985 C1014 0.950 . S
H986 C1016 0.950 . S
H987 C1017 0.950 1_554 S
C988 H970 0.951 . S
C988 C989 1.366 . S
C988 C990 1.388 . S
C989 C988 1.366 . S
C989 C993 1.385 . S
C990 H971 0.951 . S
C990 C988 1.388 . S
C990 C991 1.366 . S
C991 C990 1.366 . S
C991 C992 1.414 . S
C991 C994 1.499 . S
C992 H972 0.950 . S
C992 C991 1.414 . S
C992 C993 1.374 . S
C993 H973 0.950 . S
C993 C989 1.385 . S
C993 C992 1.374 . S
C994 C991 1.499 . S
C994 C995 1.373 . S
C994 C996 1.389 . S
C995 H974 0.950 . S
C995 C994 1.373 . S
C995 C1011 1.377 . S
C996 C994 1.389 . S
C996 C997 1.524 . S
C996 C1010 1.377 1_554 S
C997 C996 1.524 . S
C997 C998 1.397 . S
C997 C1002 1.363 . S
C998 H975 0.950 . S
C998 C997 1.397 . S
C998 C999 1.334 . S
C999 H976 0.950 . S
C999 C998 1.334 . S
C999 C1000 1.287 . S
C1000 C999 1.287 . S
C1000 C1001 1.524 . S
C1000 H1019 0.913 . S
C1001 H977 0.950 . S
C1001 C1000 1.524 . S
C1001 C1002 1.415 . S
C1002 H978 0.950 . S
C1002 C997 1.363 . S
C1002 C1001 1.415 . S
C1003 H979 0.951 . S
C1003 C1004 1.366 . S
C1003 C1005 1.388 . S
C1004 C1003 1.366 . S
C1004 C1008 1.385 . S
C1005 H980 0.951 . S
C1005 C1003 1.388 . S
C1005 C1006 1.366 . S
C1006 C1005 1.366 . S
C1006 C1007 1.414 . S
C1006 C1009 1.499 . S
C1007 H981 0.950 . S
C1007 C1006 1.414 . S
C1007 C1008 1.374 . S
C1008 H982 0.950 . S
C1008 C1004 1.385 . S
C1008 C1007 1.374 . S
C1009 C1006 1.499 . S
C1009 C1010 1.373 . S
C1009 C1011 1.389 1_556 S
C1010 H983 0.950 . S
C1010 C996 1.377 1_556 S
C1010 C1009 1.373 . S
C1011 C995 1.377 . S
C1011 C1009 1.389 1_554 S
C1011 C1012 1.524 1_554 S
C1012 C1011 1.524 1_556 S
C1012 C1013 1.397 . S
C1012 C1017 1.363 . S
C1013 H984 0.950 . S
C1013 C1012 1.397 . S
C1013 C1014 1.334 . S
C1014 H985 0.950 . S
C1014 C1013 1.334 . S
C1014 C1015 1.287 . S
C1015 C1014 1.287 . S
C1015 C1016 1.524 . S
C1015 H1018 0.999 . S
C1016 H986 0.950 . S
C1016 C1015 1.524 . S
C1016 C1017 1.415 . S
C1017 H987 0.950 1_556 S
C1017 C1012 1.363 . S
C1017 C1016 1.415 . S
H1018 C1015 0.999 . S
H1019 C1000 0.913 . S
H1020 C1038 0.951 . S
H1021 C1040 0.951 . S
H1022 C1042 0.950 . S
H1023 C1043 0.950 . S
H1024 C1045 0.950 1_554 S
H1025 C1048 0.950 . S
H1026 C1049 0.950 . S
H1027 C1051 0.950 . S
H1028 C1052 0.934 1_556 S
H1029 C1053 0.951 . S
H1030 C1055 0.951 . S
H1031 C1057 0.950 . S
H1032 C1058 0.950 . S
H1033 C1060 0.950 . S
H1034 C1063 0.950 . S
H1035 C1064 0.950 . S
H1036 C1066 0.950 . S
H1037 C1067 0.950 . S
C1038 H1020 0.951 . S
C1038 C1039 1.366 . S
C1038 C1040 1.388 . S
C1039 C1038 1.366 . S
C1039 C1043 1.385 . S
C1040 H1021 0.951 . S
C1040 C1038 1.388 . S
C1040 C1041 1.366 . S
C1041 C1040 1.366 . S
C1041 C1042 1.414 . S
C1041 C1044 1.499 . S
C1042 H1022 0.950 . S
C1042 C1041 1.414 . S
C1042 C1043 1.374 . S
C1043 H1023 0.950 . S
C1043 C1039 1.385 . S
C1043 C1042 1.374 . S
C1044 C1041 1.499 . S
C1044 C1045 1.373 1_554 S
C1044 C1046 1.389 . S
C1045 H1024 0.950 1_556 S
C1045 C1044 1.373 1_556 S
C1045 C1061 1.377 . S
C1046 C1044 1.389 . S
C1046 C1047 1.524 . S
C1046 C1060 1.377 1_554 S
C1047 C1046 1.524 . S
C1047 C1048 1.397 . S
C1047 C1052 1.363 . S
C1048 H1025 0.950 . S
C1048 C1047 1.397 . S
C1048 C1049 1.334 . S
C1049 H1026 0.950 . S
C1049 C1048 1.334 . S
C1049 C1050 1.287 . S
C1050 C1049 1.287 . S
C1050 C1051 1.524 . S
C1050 H1069 0.913 . S
C1051 H1027 0.950 . S
C1051 C1050 1.524 . S
C1051 C1052 1.415 . S
C1052 H1028 0.934 1_554 S
C1052 C1047 1.363 . S
C1052 C1051 1.415 . S
C1053 H1029 0.951 . S
C1053 C1054 1.366 . S
C1053 C1055 1.388 . S
C1054 C1053 1.366 . S
C1054 C1058 1.385 . S
C1055 H1030 0.951 . S
C1055 C1053 1.388 . S
C1055 C1056 1.366 . S
C1056 C1055 1.366 . S
C1056 C1057 1.414 . S
C1056 C1059 1.499 . S
C1057 H1031 0.950 . S
C1057 C1056 1.414 . S
C1057 C1058 1.374 . S
C1058 H1032 0.950 . S
C1058 C1054 1.385 . S
C1058 C1057 1.374 . S
C1059 C1056 1.499 . S
C1059 C1060 1.373 . S
C1059 C1061 1.389 . S
C1060 H1033 0.950 . S
C1060 C1046 1.377 1_556 S
C1060 C1059 1.373 . S
C1061 C1045 1.377 . S
C1061 C1059 1.389 . S
C1061 C1062 1.524 . S
C1062 C1061 1.524 . S
C1062 C1063 1.397 . S
C1062 C1067 1.363 . S
C1063 H1034 0.950 . S
C1063 C1062 1.397 . S
C1063 C1064 1.334 . S
C1064 H1035 0.950 . S
C1064 C1063 1.334 . S
C1064 C1065 1.287 . S
C1065 C1064 1.287 . S
C1065 C1066 1.524 . S
C1065 H1068 0.999 . S
C1066 H1036 0.950 . S
C1066 C1065 1.524 . S
C1066 C1067 1.415 . S
C1067 H1037 0.950 . S
C1067 C1062 1.363 . S
C1067 C1066 1.415 . S
H1068 C1065 0.999 . S
H1069 C1050 0.913 . S
H1070 C1088 0.951 . S
H1071 C1090 0.951 . S
H1072 C1092 0.950 . S
H1073 C1093 0.950 . S
H1074 C1095 0.950 . S
H1075 C1098 0.950 . S
H1076 C1099 0.950 . S
H1077 C1101 0.950 . S
H1078 C1102 0.950 . S
H1079 C1103 0.951 . S
H1080 C1105 0.951 . S
H1081 C1107 0.950 . S
H1082 C1108 0.950 . S
H1083 C1110 0.950 1_554 S
H1084 C1113 0.950 . S
H1085 C1114 0.950 . S
H1086 C1116 0.950 . S
H1087 C1117 0.950 . S
C1088 H1070 0.951 . S
C1088 C1089 1.366 . S
C1088 C1090 1.388 . S
C1089 C1088 1.366 . S
C1089 C1093 1.385 . S
C1090 H1071 0.951 . S
C1090 C1088 1.388 . S
C1090 C1091 1.366 . S
C1091 C1090 1.366 . S
C1091 C1092 1.414 . S
C1091 C1094 1.499 . S
C1092 H1072 0.950 . S
C1092 C1091 1.414 . S
C1092 C1093 1.374 . S
C1093 H1073 0.950 . S
C1093 C1089 1.385 . S
C1093 C1092 1.374 . S
C1094 C1091 1.499 . S
C1094 C1095 1.373 . S
C1094 C1096 1.389 . S
C1095 H1074 0.950 . S
C1095 C1094 1.373 . S
C1095 C1111 1.377 1_556 S
C1096 C1094 1.389 . S
C1096 C1097 1.524 . S
C1096 C1110 1.377 . S
C1097 C1096 1.524 . S
C1097 C1098 1.397 . S
C1097 C1102 1.363 . S
C1098 H1075 0.950 . S
C1098 C1097 1.397 . S
C1098 C1099 1.334 . S
C1099 H1076 0.950 . S
C1099 C1098 1.334 . S
C1099 C1100 1.287 . S
C1100 C1099 1.287 . S
C1100 C1101 1.524 . S
C1100 H1119 0.913 . S
C1101 H1077 0.950 . S
C1101 C1100 1.524 . S
C1101 C1102 1.415 . S
C1102 H1078 0.950 . S
C1102 C1097 1.363 . S
C1102 C1101 1.415 . S
C1103 H1079 0.951 . S
C1103 C1104 1.366 . S
C1103 C1105 1.388 . S
C1104 C1103 1.366 . S
C1104 C1108 1.385 . S
C1105 H1080 0.951 . S
C1105 C1103 1.388 . S
C1105 C1106 1.366 . S
C1106 C1105 1.366 . S
C1106 C1107 1.414 . S
C1106 C1109 1.499 . S
C1107 H1081 0.950 . S
C1107 C1106 1.414 . S
C1107 C1108 1.374 . S
C1108 H1082 0.950 . S
C1108 C1104 1.385 . S
C1108 C1107 1.374 . S
C1109 C1106 1.499 . S
C1109 C1110 1.373 1_554 S
C1109 C1111 1.389 . S
C1110 H1083 0.950 1_556 S
C1110 C1096 1.377 . S
C1110 C1109 1.373 1_556 S
C1111 C1095 1.377 1_554 S
C1111 C1109 1.389 . S
C1111 C1112 1.524 . S
C1112 C1111 1.524 . S
C1112 C1113 1.397 . S
C1112 C1117 1.363 . S
C1113 H1084 0.950 . S
C1113 C1112 1.397 . S
C1113 C1114 1.334 . S
C1114 H1085 0.950 . S
C1114 C1113 1.334 . S
C1114 C1115 1.287 . S
C1115 C1114 1.287 . S
C1115 C1116 1.524 . S
C1115 H1118 0.999 . S
C1116 H1086 0.950 . S
C1116 C1115 1.524 . S
C1116 C1117 1.415 . S
C1117 H1087 0.950 . S
C1117 C1112 1.363 . S
C1117 C1116 1.415 . S
H1118 C1115 0.999 . S
H1119 C1100 0.913 . S
H1120 C1138 0.951 . S
H1121 C1140 0.951 . S
H1122 C1142 0.950 . S
H1123 C1143 0.950 . S
H1124 C1145 0.950 . S
H1125 C1148 0.950 . S
H1126 C1149 0.950 . S
H1127 C1151 0.950 . S
H1128 C1152 0.950 . S
H1129 C1153 0.951 . S
H1130 C1155 0.951 . S
H1131 C1157 0.950 . S
H1132 C1158 0.950 . S
H1133 C1160 0.950 . S
H1134 C1163 0.950 . S
H1135 C1164 0.950 . S
H1136 C1166 0.950 . S
H1137 C1167 0.950 . S
C1138 H1120 0.951 . S
C1138 C1139 1.366 . S
C1138 C1140 1.388 . S
C1139 C1138 1.366 . S
C1139 C1143 1.385 . S
C1140 H1121 0.951 . S
C1140 C1138 1.388 . S
C1140 C1141 1.366 . S
C1141 C1140 1.366 . S
C1141 C1142 1.414 . S
C1141 C1144 1.499 . S
C1142 H1122 0.950 . S
C1142 C1141 1.414 . S
C1142 C1143 1.374 . S
C1143 H1123 0.950 . S
C1143 C1139 1.385 . S
C1143 C1142 1.374 . S
C1144 C1141 1.499 . S
C1144 C1145 1.373 . S
C1144 C1146 1.389 . S
C1145 H1124 0.950 . S
C1145 C1144 1.373 . S
C1145 C1161 1.377 . S
C1146 C1144 1.389 . S
C1146 C1147 1.524 . S
C1146 C1160 1.377 . S
C1147 C1146 1.524 . S
C1147 C1148 1.397 . S
C1147 C1152 1.363 . S
C1148 H1125 0.950 . S
C1148 C1147 1.397 . S
C1148 C1149 1.334 . S
C1149 H1126 0.950 . S
C1149 C1148 1.334 . S
C1149 C1150 1.287 . S
C1150 C1149 1.287 . S
C1150 C1151 1.524 . S
C1150 H1169 0.913 . S
C1151 H1127 0.950 . S
C1151 C1150 1.524 . S
C1151 C1152 1.415 . S
C1152 H1128 0.950 . S
C1152 C1147 1.363 . S
C1152 C1151 1.415 . S
C1153 H1129 0.951 . S
C1153 C1154 1.366 . S
C1153 C1155 1.388 . S
C1154 C1153 1.366 . S
C1154 C1158 1.385 . S
C1155 H1130 0.951 . S
C1155 C1153 1.388 . S
C1155 C1156 1.366 . S
C1156 C1155 1.366 . S
C1156 C1157 1.414 . S
C1156 C1159 1.499 . S
C1157 H1131 0.950 . S
C1157 C1156 1.414 . S
C1157 C1158 1.374 . S
C1158 H1132 0.950 . S
C1158 C1154 1.385 . S
C1158 C1157 1.374 . S
C1159 C1156 1.499 . S
C1159 C1160 1.373 . S
C1159 C1161 1.389 . S
C1160 H1133 0.950 . S
C1160 C1146 1.377 . S
C1160 C1159 1.373 . S
C1161 C1145 1.377 . S
C1161 C1159 1.389 . S
C1161 C1162 1.524 . S
C1162 C1161 1.524 . S
C1162 C1163 1.397 . S
C1162 C1167 1.363 . S
C1163 H1134 0.950 . S
C1163 C1162 1.397 . S
C1163 C1164 1.334 . S
C1164 H1135 0.950 . S
C1164 C1163 1.334 . S
C1164 C1165 1.287 . S
C1165 C1164 1.287 . S
C1165 C1166 1.524 . S
C1165 H1168 0.999 . S
C1166 H1136 0.950 . S
C1166 C1165 1.524 . S
C1166 C1167 1.415 . S
C1167 H1137 0.950 . S
C1167 C1162 1.363 . S
C1167 C1166 1.415 . S
H1168 C1165 0.999 . S
H1169 C1150 0.913 . S
H1170 C1188 0.951 . S
H1171 C1190 0.951 . S
H1172 C1192 0.950 . S
H1173 C1193 0.950 . S
H1174 C1195 0.950 . S
H1175 C1198 0.950 . S
H1176 C1199 0.950 . S
H1177 C1201 0.950 . S
H1178 C1202 0.950 . S
H1179 C1203 0.951 . S
H1180 C1205 0.951 . S
H1181 C1207 0.950 . S
H1182 C1208 0.950 . S
H1183 C1210 0.950 . S
H1184 C1213 0.950 . S
H1185 C1214 0.950 . S
H1186 C1216 0.950 . S
H1187 C1217 0.950 . S
C1188 H1170 0.951 . S
C1188 C1189 1.366 . S
C1188 C1190 1.388 . S
C1189 C1188 1.366 . S
C1189 C1193 1.385 . S
C1190 H1171 0.951 . S
C1190 C1188 1.388 . S
C1190 C1191 1.366 . S
C1191 C1190 1.366 . S
C1191 C1192 1.414 . S
C1191 C1194 1.499 . S
C1192 H1172 0.950 . S
C1192 C1191 1.414 . S
C1192 C1193 1.374 . S
C1193 H1173 0.950 . S
C1193 C1189 1.385 . S
C1193 C1192 1.374 . S
C1194 C1191 1.499 . S
C1194 C1195 1.373 . S
C1194 C1196 1.389 . S
C1195 H1174 0.950 . S
C1195 C1194 1.373 . S
C1195 C1211 1.377 . S
C1196 C1194 1.389 . S
C1196 C1197 1.524 . S
C1196 C1210 1.377 . S
C1197 C1196 1.524 . S
C1197 C1198 1.397 . S
C1197 C1202 1.363 . S
C1198 H1175 0.950 . S
C1198 C1197 1.397 . S
C1198 C1199 1.334 . S
C1199 H1176 0.950 . S
C1199 C1198 1.334 . S
C1199 C1200 1.287 . S
C1200 C1199 1.287 . S
C1200 C1201 1.524 . S
C1200 H1219 0.913 . S
C1201 H1177 0.950 . S
C1201 C1200 1.524 . S
C1201 C1202 1.415 . S
C1202 H1178 0.950 . S
C1202 C1197 1.363 . S
C1202 C1201 1.415 . S
C1203 H1179 0.951 . S
C1203 C1204 1.366 . S
C1203 C1205 1.388 . S
C1204 C1203 1.366 . S
C1204 C1208 1.385 . S
C1205 H1180 0.951 . S
C1205 C1203 1.388 . S
C1205 C1206 1.366 . S
C1206 C1205 1.366 . S
C1206 C1207 1.414 . S
C1206 C1209 1.499 . S
C1207 H1181 0.950 . S
C1207 C1206 1.414 . S
C1207 C1208 1.374 . S
C1208 H1182 0.950 . S
C1208 C1204 1.385 . S
C1208 C1207 1.374 . S
C1209 C1206 1.499 . S
C1209 C1210 1.373 . S
C1209 C1211 1.389 . S
C1210 H1183 0.950 . S
C1210 C1196 1.377 . S
C1210 C1209 1.373 . S
C1211 C1195 1.377 . S
C1211 C1209 1.389 . S
C1211 C1212 1.524 . S
C1212 C1211 1.524 . S
C1212 C1213 1.397 . S
C1212 C1217 1.363 . S
C1213 H1184 0.950 . S
C1213 C1212 1.397 . S
C1213 C1214 1.334 . S
C1214 H1185 0.950 . S
C1214 C1213 1.334 . S
C1214 C1215 1.287 . S
C1215 C1214 1.287 . S
C1215 C1216 1.524 . S
C1215 H1218 0.999 . S
C1216 H1186 0.950 . S
C1216 C1215 1.524 . S
C1216 C1217 1.415 . S
C1217 H1187 0.950 . S
C1217 C1212 1.363 . S
C1217 C1216 1.415 . S
H1218 C1215 0.999 . S
H1219 C1200 0.913 . S
H1220 C1238 0.951 . S
H1221 C1240 0.951 . S
H1222 C1242 0.950 . S
H1223 C1243 0.950 . S
H1224 C1245 0.950 . S
H1225 C1248 0.950 . S
H1226 C1249 0.950 . S
H1227 C1251 0.950 . S
H1228 C1252 0.950 . S
H1229 C1253 0.951 . S
H1230 C1255 0.951 . S
H1231 C1257 0.950 . S
H1232 C1258 0.950 . S
H1233 C1260 0.950 . S
H1234 C1263 0.950 . S
H1235 C1264 0.950 . S
H1236 C1266 0.950 . S
H1237 C1267 0.950 . S
C1238 H1220 0.951 . S
C1238 C1239 1.366 . S
C1238 C1240 1.388 . S
C1239 C1238 1.366 . S
C1239 C1243 1.385 . S
C1240 H1221 0.951 . S
C1240 C1238 1.388 . S
C1240 C1241 1.366 . S
C1241 C1240 1.366 . S
C1241 C1242 1.414 . S
C1241 C1244 1.499 . S
C1242 H1222 0.950 . S
C1242 C1241 1.414 . S
C1242 C1243 1.374 . S
C1243 H1223 0.950 . S
C1243 C1239 1.385 . S
C1243 C1242 1.374 . S
C1244 C1241 1.499 . S
C1244 C1245 1.373 . S
C1244 C1246 1.389 . S
C1245 H1224 0.950 . S
C1245 C1244 1.373 . S
C1245 C1261 1.377 . S
C1246 C1244 1.389 . S
C1246 C1247 1.524 . S
C1246 C1260 1.377 . S
C1247 C1246 1.524 . S
C1247 C1248 1.397 . S
C1247 C1252 1.363 . S
C1248 H1225 0.950 . S
C1248 C1247 1.397 . S
C1248 C1249 1.334 . S
C1249 H1226 0.950 . S
C1249 C1248 1.334 . S
C1249 C1250 1.287 . S
C1250 C1249 1.287 . S
C1250 C1251 1.524 . S
C1250 H1269 0.913 . S
C1251 H1227 0.950 . S
C1251 C1250 1.524 . S
C1251 C1252 1.415 . S
C1252 H1228 0.950 . S
C1252 C1247 1.363 . S
C1252 C1251 1.415 . S
C1253 H1229 0.951 . S
C1253 C1254 1.366 . S
C1253 C1255 1.388 . S
C1254 C1253 1.366 . S
C1254 C1258 1.385 . S
C1255 H1230 0.951 . S
C1255 C1253 1.388 . S
C1255 C1256 1.366 . S
C1256 C1255 1.366 . S
C1256 C1257 1.414 . S
C1256 C1259 1.499 . S
C1257 H1231 0.950 . S
C1257 C1256 1.414 . S
C1257 C1258 1.374 . S
C1258 H1232 0.950 . S
C1258 C1254 1.385 . S
C1258 C1257 1.374 . S
C1259 C1256 1.499 . S
C1259 C1260 1.373 . S
C1259 C1261 1.389 . S
C1260 H1233 0.950 . S
C1260 C1246 1.377 . S
C1260 C1259 1.373 . S
C1261 C1245 1.377 . S
C1261 C1259 1.389 . S
C1261 C1262 1.524 . S
C1262 C1261 1.524 . S
C1262 C1263 1.397 . S
C1262 C1267 1.363 . S
C1263 H1234 0.950 . S
C1263 C1262 1.397 . S
C1263 C1264 1.334 . S
C1264 H1235 0.950 . S
C1264 C1263 1.334 . S
C1264 C1265 1.287 . S
C1265 C1264 1.287 . S
C1265 C1266 1.524 . S
C1265 H1268 0.999 . S
C1266 H1236 0.950 . S
C1266 C1265 1.524 . S
C1266 C1267 1.415 . S
C1267 H1237 0.950 . S
C1267 C1262 1.363 . S
C1267 C1266 1.415 . S
H1268 C1265 0.999 . S
H1269 C1250 0.913 . S
H1270 C1288 0.951 . S
H1271 C1290 0.951 . S
H1272 C1292 0.950 . S
H1273 C1293 0.950 . S
H1274 C1295 0.950 . S
H1275 C1298 0.950 . S
H1276 C1299 0.950 . S
H1277 C1301 0.950 . S
H1278 C1302 0.950 . S
H1279 C1303 0.951 . S
H1280 C1305 0.951 . S
H1281 C1307 0.950 . S
H1282 C1308 0.950 . S
H1283 C1310 0.950 . S
H1284 C1313 0.950 . S
H1285 C1314 0.950 . S
H1286 C1316 0.950 . S
H1287 C1317 0.950 . S
C1288 H1270 0.951 . S
C1288 C1289 1.366 . S
C1288 C1290 1.388 . S
C1289 C1288 1.366 . S
C1289 C1293 1.385 . S
C1290 H1271 0.951 . S
C1290 C1288 1.388 . S
C1290 C1291 1.366 . S
C1291 C1290 1.366 . S
C1291 C1292 1.414 . S
C1291 C1294 1.499 . S
C1292 H1272 0.950 . S
C1292 C1291 1.414 . S
C1292 C1293 1.374 . S
C1293 H1273 0.950 . S
C1293 C1289 1.385 . S
C1293 C1292 1.374 . S
C1294 C1291 1.499 . S
C1294 C1295 1.373 . S
C1294 C1296 1.389 . S
C1295 H1274 0.950 . S
C1295 C1294 1.373 . S
C1295 C1311 1.377 . S
C1296 C1294 1.389 . S
C1296 C1297 1.524 . S
C1296 C1310 1.377 . S
C1297 C1296 1.524 . S
C1297 C1298 1.397 . S
C1297 C1302 1.363 . S
C1298 H1275 0.950 . S
C1298 C1297 1.397 . S
C1298 C1299 1.334 . S
C1299 H1276 0.950 . S
C1299 C1298 1.334 . S
C1299 C1300 1.287 . S
C1300 C1299 1.287 . S
C1300 C1301 1.524 . S
C1300 H1319 0.913 . S
C1301 H1277 0.950 . S
C1301 C1300 1.524 . S
C1301 C1302 1.415 . S
C1302 H1278 0.950 . S
C1302 C1297 1.363 . S
C1302 C1301 1.415 . S
C1303 H1279 0.951 . S
C1303 C1304 1.366 . S
C1303 C1305 1.388 . S
C1304 C1303 1.366 . S
C1304 C1308 1.385 . S
C1305 H1280 0.951 . S
C1305 C1303 1.388 . S
C1305 C1306 1.366 . S
C1306 C1305 1.366 . S
C1306 C1307 1.414 . S
C1306 C1309 1.499 . S
C1307 H1281 0.950 . S
C1307 C1306 1.414 . S
C1307 C1308 1.374 . S
C1308 H1282 0.950 . S
C1308 C1304 1.385 . S
C1308 C1307 1.374 . S
C1309 C1306 1.499 . S
C1309 C1310 1.373 . S
C1309 C1311 1.389 . S
C1310 H1283 0.950 . S
C1310 C1296 1.377 . S
C1310 C1309 1.373 . S
C1311 C1295 1.377 . S
C1311 C1309 1.389 . S
C1311 C1312 1.524 . S
C1312 C1311 1.524 . S
C1312 C1313 1.397 . S
C1312 C1317 1.363 . S
C1313 H1284 0.950 . S
C1313 C1312 1.397 . S
C1313 C1314 1.334 . S
C1314 H1285 0.950 . S
C1314 C1313 1.334 . S
C1314 C1315 1.287 . S
C1315 C1314 1.287 . S
C1315 C1316 1.524 . S
C1315 H1318 0.999 . S
C1316 H1286 0.950 . S
C1316 C1315 1.524 . S
C1316 C1317 1.415 . S
C1317 H1287 0.950 . S
C1317 C1312 1.363 . S
C1317 C1316 1.415 . S
H1318 C1315 0.999 . S
H1319 C1300 0.913 . S
H1320 C1338 0.951 . S
H1321 C1340 0.951 . S
H1322 C1342 0.950 . S
H1323 C1343 0.950 . S
H1324 C1345 0.950 . S
H1325 C1348 0.950 . S
H1326 C1349 0.950 . S
H1327 C1351 0.950 . S
H1328 C1352 0.925 1_655 S
H1329 C1353 0.951 . S
H1330 C1355 0.951 . S
H1331 C1357 0.950 . S
H1332 C1358 0.950 . S
H1333 C1360 0.950 . S
H1334 C1363 0.950 . S
H1335 C1364 0.950 . S
H1336 C1366 0.950 . S
H1337 C1367 0.925 1_455 S
C1338 H1320 0.951 . S
C1338 C1339 1.366 . S
C1338 C1340 1.388 . S
C1339 C1338 1.366 . S
C1339 C1343 1.385 . S
C1340 H1321 0.951 . S
C1340 C1338 1.388 . S
C1340 C1341 1.366 . S
C1341 C1340 1.366 . S
C1341 C1342 1.414 . S
C1341 C1344 1.499 . S
C1342 H1322 0.950 . S
C1342 C1341 1.414 . S
C1342 C1343 1.374 . S
C1343 H1323 0.950 . S
C1343 C1339 1.385 . S
C1343 C1342 1.374 . S
C1344 C1341 1.499 . S
C1344 C1345 1.373 . S
C1344 C1346 1.389 . S
C1345 H1324 0.950 . S
C1345 C1344 1.373 . S
C1345 C1361 1.377 1_455 S
C1346 C1344 1.389 . S
C1346 C1347 1.524 . S
C1346 C1360 1.377 1_455 S
C1347 C1346 1.524 . S
C1347 C1348 1.397 . S
C1347 C1352 1.363 . S
C1348 H1325 0.950 . S
C1348 C1347 1.397 . S
C1348 C1349 1.334 . S
C1349 H1326 0.950 . S
C1349 C1348 1.334 . S
C1349 C1350 1.287 . S
C1350 C1349 1.287 . S
C1350 C1351 1.524 . S
C1350 H1369 0.913 . S
C1351 H1327 0.950 . S
C1351 C1350 1.524 . S
C1351 C1352 1.415 . S
C1352 H1328 0.925 1_455 S
C1352 C1347 1.363 . S
C1352 C1351 1.415 . S
C1353 H1329 0.951 . S
C1353 C1354 1.366 . S
C1353 C1355 1.388 . S
C1354 C1353 1.366 . S
C1354 C1358 1.385 . S
C1355 H1330 0.951 . S
C1355 C1353 1.388 . S
C1355 C1356 1.366 . S
C1356 C1355 1.366 . S
C1356 C1357 1.414 . S
C1356 C1359 1.499 . S
C1357 H1331 0.950 . S
C1357 C1356 1.414 . S
C1357 C1358 1.374 . S
C1358 H1332 0.950 . S
C1358 C1354 1.385 . S
C1358 C1357 1.374 . S
C1359 C1356 1.499 . S
C1359 C1360 1.373 . S
C1359 C1361 1.389 . S
C1360 H1333 0.950 . S
C1360 C1346 1.377 1_655 S
C1360 C1359 1.373 . S
C1361 C1345 1.377 1_655 S
C1361 C1359 1.389 . S
C1361 C1362 1.524 . S
C1362 C1361 1.524 . S
C1362 C1363 1.397 . S
C1362 C1367 1.363 . S
C1363 H1334 0.950 . S
C1363 C1362 1.397 . S
C1363 C1364 1.334 . S
C1364 H1335 0.950 . S
C1364 C1363 1.334 . S
C1364 C1365 1.287 . S
C1365 C1364 1.287 . S
C1365 C1366 1.524 . S
C1365 H1368 0.999 . S
C1366 H1336 0.950 . S
C1366 C1365 1.524 . S
C1366 C1367 1.415 . S
C1367 H1337 0.925 1_655 S
C1367 C1362 1.363 . S
C1367 C1366 1.415 . S
H1368 C1365 0.999 . S
H1369 C1350 0.913 . S
H1370 C1388 0.951 . S
H1371 C1390 0.951 . S
H1372 C1392 0.950 . S
H1373 C1393 0.950 . S
H1374 C1395 0.950 . S
H1375 C1398 0.950 . S
H1376 C1399 0.950 . S
H1377 C1401 0.950 . S
H1378 C1402 0.950 1_455 S
H1379 C1403 0.951 . S
H1380 C1405 0.951 . S
H1381 C1407 0.950 . S
H1382 C1408 0.950 . S
H1383 C1410 0.950 . S
H1384 C1413 0.950 . S
H1385 C1414 0.950 . S
H1386 C1416 0.950 . S
H1387 C1417 0.950 1_655 S
C1388 H1370 0.951 . S
C1388 C1389 1.366 . S
C1388 C1390 1.388 . S
C1389 C1388 1.366 . S
C1389 C1393 1.385 . S
C1390 H1371 0.951 . S
C1390 C1388 1.388 . S
C1390 C1391 1.366 . S
C1391 C1390 1.366 . S
C1391 C1392 1.414 . S
C1391 C1394 1.499 . S
C1392 H1372 0.950 . S
C1392 C1391 1.414 . S
C1392 C1393 1.374 . S
C1393 H1373 0.950 . S
C1393 C1389 1.385 . S
C1393 C1392 1.374 . S
C1394 C1391 1.499 . S
C1394 C1395 1.373 . S
C1394 C1396 1.389 . S
C1395 H1374 0.950 . S
C1395 C1394 1.373 . S
C1395 C1411 1.377 1_655 S
C1396 C1394 1.389 . S
C1396 C1397 1.524 . S
C1396 C1410 1.377 1_655 S
C1397 C1396 1.524 . S
C1397 C1398 1.397 . S
C1397 C1402 1.363 . S
C1398 H1375 0.950 . S
C1398 C1397 1.397 . S
C1398 C1399 1.334 . S
C1399 H1376 0.950 . S
C1399 C1398 1.334 . S
C1399 C1400 1.287 . S
C1400 C1399 1.287 . S
C1400 C1401 1.524 . S
C1400 H1419 0.913 . S
C1401 H1377 0.950 . S
C1401 C1400 1.524 . S
C1401 C1402 1.415 . S
C1402 H1378 0.950 1_655 S
C1402 C1397 1.363 . S
C1402 C1401 1.415 . S
C1403 H1379 0.951 . S
C1403 C1404 1.366 . S
C1403 C1405 1.388 . S
C1404 C1403 1.366 . S
C1404 C1408 1.385 . S
C1405 H1380 0.951 . S
C1405 C1403 1.388 . S
C1405 C1406 1.366 . S
C1406 C1405 1.366 . S
C1406 C1407 1.414 . S
C1406 C1409 1.499 . S
C1407 H1381 0.950 . S
C1407 C1406 1.414 . S
C1407 C1408 1.374 . S
C1408 H1382 0.950 . S
C1408 C1404 1.385 . S
C1408 C1407 1.374 . S
C1409 C1406 1.499 . S
C1409 C1410 1.373 . S
C1409 C1411 1.389 . S
C1410 H1383 0.950 . S
C1410 C1396 1.377 1_455 S
C1410 C1409 1.373 . S
C1411 C1395 1.377 1_455 S
C1411 C1409 1.389 . S
C1411 C1412 1.524 . S
C1412 C1411 1.524 . S
C1412 C1413 1.397 . S
C1412 C1417 1.363 . S
C1413 H1384 0.950 . S
C1413 C1412 1.397 . S
C1413 C1414 1.334 . S
C1414 H1385 0.950 . S
C1414 C1413 1.334 . S
C1414 C1415 1.287 . S
C1415 C1414 1.287 . S
C1415 C1416 1.524 . S
C1415 H1418 0.999 . S
C1416 H1386 0.950 . S
C1416 C1415 1.524 . S
C1416 C1417 1.415 . S
C1417 H1387 0.950 1_455 S
C1417 C1412 1.363 . S
C1417 C1416 1.415 . S
H1418 C1415 0.999 . S
H1419 C1400 0.913 . S
H1420 C1438 0.951 . S
H1421 C1440 0.951 . S
H1422 C1442 0.950 . S
H1423 C1443 0.950 . S
H1424 C1445 0.950 1_554 S
H1425 C1448 0.950 . S
H1426 C1449 0.950 . S
H1427 C1451 0.950 . S
H1428 C1452 0.950 . S
H1429 C1453 0.951 . S
H1430 C1455 0.951 . S
H1431 C1457 0.950 . S
H1432 C1458 0.950 . S
H1433 C1460 0.950 . S
H1434 C1463 0.950 . S
H1435 C1464 0.950 . S
H1436 C1466 0.950 . S
H1437 C1467 0.950 . S
C1438 H1420 0.951 . S
C1438 C1439 1.366 . S
C1438 C1440 1.388 . S
C1439 C1438 1.366 . S
C1439 C1443 1.385 . S
C1440 H1421 0.951 . S
C1440 C1438 1.388 . S
C1440 C1441 1.366 . S
C1441 C1440 1.366 . S
C1441 C1442 1.414 . S
C1441 C1444 1.499 . S
C1442 H1422 0.950 . S
C1442 C1441 1.414 . S
C1442 C1443 1.374 . S
C1443 H1423 0.950 . S
C1443 C1439 1.385 . S
C1443 C1442 1.374 . S
C1444 C1441 1.499 . S
C1444 C1445 1.373 . S
C1444 C1446 1.389 . S
C1445 H1424 0.950 1_556 S
C1445 C1444 1.373 . S
C1445 C1461 1.377 . S
C1446 C1444 1.389 . S
C1446 C1447 1.524 . S
C1446 C1460 1.377 . S
C1447 C1446 1.524 . S
C1447 C1448 1.397 . S
C1447 C1452 1.363 . S
C1448 H1425 0.950 . S
C1448 C1447 1.397 . S
C1448 C1449 1.334 . S
C1449 H1426 0.950 . S
C1449 C1448 1.334 . S
C1449 C1450 1.287 . S
C1450 C1449 1.287 . S
C1450 C1451 1.524 . S
C1450 H1469 0.913 . S
C1451 H1427 0.950 . S
C1451 C1450 1.524 . S
C1451 C1452 1.415 . S
C1452 H1428 0.950 . S
C1452 C1447 1.363 . S
C1452 C1451 1.415 . S
C1453 H1429 0.951 . S
C1453 C1454 1.366 . S
C1453 C1455 1.388 . S
C1454 C1453 1.366 . S
C1454 C1458 1.385 . S
C1455 H1430 0.951 . S
C1455 C1453 1.388 . S
C1455 C1456 1.366 . S
C1456 C1455 1.366 . S
C1456 C1457 1.414 . S
C1456 C1459 1.499 . S
C1457 H1431 0.950 . S
C1457 C1456 1.414 . S
C1457 C1458 1.374 . S
C1458 H1432 0.950 . S
C1458 C1454 1.385 . S
C1458 C1457 1.374 . S
C1459 C1456 1.499 . S
C1459 C1460 1.373 . S
C1459 C1461 1.389 . S
C1460 H1433 0.950 . S
C1460 C1446 1.377 . S
C1460 C1459 1.373 . S
C1461 C1445 1.377 . S
C1461 C1459 1.389 . S
C1461 C1462 1.524 1_556 S
C1462 C1461 1.524 1_554 S
C1462 C1463 1.397 . S
C1462 C1467 1.363 . S
C1463 H1434 0.950 . S
C1463 C1462 1.397 . S
C1463 C1464 1.334 . S
C1464 H1435 0.950 . S
C1464 C1463 1.334 . S
C1464 C1465 1.287 . S
C1465 C1464 1.287 . S
C1465 C1466 1.524 . S
C1465 H1468 0.999 . S
C1466 H1436 0.950 . S
C1466 C1465 1.524 . S
C1466 C1467 1.415 . S
C1467 H1437 0.950 . S
C1467 C1462 1.363 . S
C1467 C1466 1.415 . S
H1468 C1465 0.999 . S
H1469 C1450 0.913 . S
H1470 C1488 0.951 . S
H1471 C1490 0.951 . S
H1472 C1492 0.950 . S
H1473 C1493 0.950 . S
H1474 C1495 0.950 . S
H1475 C1498 0.950 . S
H1476 C1499 0.950 . S
H1477 C1501 0.950 . S
H1478 C1502 0.950 1_554 S
H1479 C1503 0.951 . S
H1480 C1505 0.951 . S
H1481 C1507 0.950 . S
H1482 C1508 0.950 . S
H1483 C1510 0.950 . S
H1484 C1513 0.950 . S
H1485 C1514 0.950 . S
H1486 C1516 0.950 . S
H1487 C1517 0.950 . S
C1488 H1470 0.951 . S
C1488 C1489 1.366 . S
C1488 C1490 1.388 . S
C1489 C1488 1.366 . S
C1489 C1493 1.385 . S
C1490 H1471 0.951 . S
C1490 C1488 1.388 . S
C1490 C1491 1.366 . S
C1491 C1490 1.366 . S
C1491 C1492 1.414 . S
C1491 C1494 1.499 . S
C1492 H1472 0.950 . S
C1492 C1491 1.414 . S
C1492 C1493 1.374 . S
C1493 H1473 0.950 . S
C1493 C1489 1.385 . S
C1493 C1492 1.374 . S
C1494 C1491 1.499 . S
C1494 C1495 1.373 . S
C1494 C1496 1.389 . S
C1495 H1474 0.950 . S
C1495 C1494 1.373 . S
C1495 C1511 1.377 . S
C1496 C1494 1.389 . S
C1496 C1497 1.524 1_554 S
C1496 C1510 1.377 . S
C1497 C1496 1.524 1_556 S
C1497 C1498 1.397 . S
C1497 C1502 1.363 . S
C1498 H1475 0.950 . S
C1498 C1497 1.397 . S
C1498 C1499 1.334 . S
C1499 H1476 0.950 . S
C1499 C1498 1.334 . S
C1499 C1500 1.287 . S
C1500 C1499 1.287 . S
C1500 C1501 1.524 . S
C1500 H1519 0.913 . S
C1501 H1477 0.950 . S
C1501 C1500 1.524 . S
C1501 C1502 1.415 . S
C1502 H1478 0.950 1_556 S
C1502 C1497 1.363 . S
C1502 C1501 1.415 . S
C1503 H1479 0.951 . S
C1503 C1504 1.366 . S
C1503 C1505 1.388 . S
C1504 C1503 1.366 . S
C1504 C1508 1.385 . S
C1505 H1480 0.951 . S
C1505 C1503 1.388 . S
C1505 C1506 1.366 . S
C1506 C1505 1.366 . S
C1506 C1507 1.414 . S
C1506 C1509 1.499 . S
C1507 H1481 0.950 . S
C1507 C1506 1.414 . S
C1507 C1508 1.374 . S
C1508 H1482 0.950 . S
C1508 C1504 1.385 . S
C1508 C1507 1.374 . S
C1509 C1506 1.499 . S
C1509 C1510 1.373 . S
C1509 C1511 1.389 . S
C1510 H1483 0.950 . S
C1510 C1496 1.377 . S
C1510 C1509 1.373 . S
C1511 C1495 1.377 . S
C1511 C1509 1.389 . S
C1511 C1512 1.524 . S
C1512 C1511 1.524 . S
C1512 C1513 1.397 . S
C1512 C1517 1.363 . S
C1513 H1484 0.950 . S
C1513 C1512 1.397 . S
C1513 C1514 1.334 . S
C1514 H1485 0.950 . S
C1514 C1513 1.334 . S
C1514 C1515 1.287 . S
C1515 C1514 1.287 . S
C1515 C1516 1.524 . S
C1515 H1518 0.999 . S
C1516 H1486 0.950 . S
C1516 C1515 1.524 . S
C1516 C1517 1.415 . S
C1517 H1487 0.950 . S
C1517 C1512 1.363 . S
C1517 C1516 1.415 . S
H1518 C1515 0.999 . S
H1519 C1500 0.913 . S
C339 C19 2.236 . S
C354 C290 2.236 . S
C389 C250 2.236 . S
C404 C59 2.236 . S
C439 C219 2.236 . S
C454 C90 2.236 . S
C489 C179 2.236 . S
C504 C130 2.236 . S
C539 C89 1.493 . S
C554 C9 1.451 . S
C589 C49 1.451 . S
C604 C129 1.493 . S
C639 C138 1.451 . S
C654 C58 1.492 . S
C689 C98 1.451 . S
C704 C18 1.492 . S
C739 C169 1.452 . S
C754 C249 1.491 . S
C789 C209 1.451 . S
C804 C289 1.492 . S
C839 C298 1.451 . S
C854 C218 1.492 . S
C889 C258 1.452 . S
C904 C178 1.492 . S
C939 C6 1.478 . S
C954 C15 1.478 . S
C989 C46 1.477 . S
C1004 C55 1.477 . S
C1039 C86 1.478 . S
C1054 C95 1.478 . S
C1089 C135 1.478 . S
C1104 C126 1.478 . S
C1139 C175 1.477 . S
C1154 C166 1.477 . S
C1189 C206 1.477 . S
C1204 C215 1.477 . S
C1239 C255 1.478 . S
C1254 C246 1.478 . S
C1289 C295 1.477 . S
C1304 C286 1.477 . S
C1339 C10 2.187 . S
C1354 C50 2.188 . S
C1389 C139 2.188 . S
C1404 C99 2.188 . S
C1439 C170 2.188 . S
C1454 C210 2.189 . S
C1489 C299 2.188 . S
C1504 C259 2.187 . S
