# Generated by pormake.
# Topology fno, (5)-cn, num edge types: 1
# Building blocks:
#     Node 0, Type 0, BuildingBlock: BEQFEK_clean_sbu_0, # of connection points: 5
#     Node 1, Type 0, BuildingBlock: BEQFEK_clean_sbu_0, # of connection points: 5
#     Node 2, Type 0, BuildingBlock: BEQFEK_clean_sbu_0, # of connection points: 5
#     Node 3, Type 0, BuildingBlock: BEQFEK_clean_sbu_0, # of connection points: 5
#     Node 4, Type 0, BuildingBlock: BEQFEK_clean_sbu_0, # of connection points: 5
#     Node 5, Type 0, BuildingBlock: BEQFEK_clean_sbu_0, # of connection points: 5
#     Node 6, Type 0, BuildingBlock: BEQFEK_clean_sbu_0, # of connection points: 5
#     Node 7, Type 0, BuildingBlock: BEQFEK_clean_sbu_0, # of connection points: 5
#     Node 8, Type 0, BuildingBlock: BEQFEK_clean_sbu_0, # of connection points: 5
#     Node 9, Type 0, BuildingBlock: BEQFEK_clean_sbu_0, # of connection points: 5
#     Node 10, Type 0, BuildingBlock: BEQFEK_clean_sbu_0, # of connection points: 5
#     Node 11, Type 0, BuildingBlock: BEQFEK_clean_sbu_0, # of connection points: 5
#     Node 12, Type 0, BuildingBlock: BEQFEK_clean_sbu_0, # of connection points: 5
#     Node 13, Type 0, BuildingBlock: BEQFEK_clean_sbu_0, # of connection points: 5
#     Node 14, Type 0, BuildingBlock: BEQFEK_clean_sbu_0, # of connection points: 5
#     Node 15, Type 0, BuildingBlock: BEQFEK_clean_sbu_0, # of connection points: 5
#     Node 16, Type 0, BuildingBlock: BEQFEK_clean_sbu_0, # of connection points: 5
#     Node 17, Type 0, BuildingBlock: BEQFEK_clean_sbu_0, # of connection points: 5
#     Node 18, Type 0, BuildingBlock: BEQFEK_clean_sbu_0, # of connection points: 5
#     Node 19, Type 0, BuildingBlock: BEQFEK_clean_sbu_0, # of connection points: 5
#     Node 20, Type 0, BuildingBlock: BEQFEK_clean_sbu_0, # of connection points: 5
#     Node 21, Type 0, BuildingBlock: BEQFEK_clean_sbu_0, # of connection points: 5
#     Node 22, Type 0, BuildingBlock: BEQFEK_clean_sbu_0, # of connection points: 5
#     Node 23, Type 0, BuildingBlock: BEQFEK_clean_sbu_0, # of connection points: 5
#     Node 24, Type 0, BuildingBlock: BEQFEK_clean_sbu_0, # of connection points: 5
#     Node 25, Type 0, BuildingBlock: BEQFEK_clean_sbu_0, # of connection points: 5
#     Node 26, Type 0, BuildingBlock: BEQFEK_clean_sbu_0, # of connection points: 5
#     Node 27, Type 0, BuildingBlock: BEQFEK_clean_sbu_0, # of connection points: 5
#     Node 28, Type 0, BuildingBlock: BEQFEK_clean_sbu_0, # of connection points: 5
#     Node 29, Type 0, BuildingBlock: BEQFEK_clean_sbu_0, # of connection points: 5
#     Node 30, Type 0, BuildingBlock: BEQFEK_clean_sbu_0, # of connection points: 5
#     Node 31, Type 0, BuildingBlock: BEQFEK_clean_sbu_0, # of connection points: 5
#     Node 32, Type 0, BuildingBlock: BEQFEK_clean_sbu_0, # of connection points: 5
#     Node 33, Type 0, BuildingBlock: BEQFEK_clean_sbu_0, # of connection points: 5
#     Node 34, Type 0, BuildingBlock: BEQFEK_clean_sbu_0, # of connection points: 5
#     Node 35, Type 0, BuildingBlock: BEQFEK_clean_sbu_0, # of connection points: 5
#     Node 36, Type 0, BuildingBlock: BEQFEK_clean_sbu_0, # of connection points: 5
#     Node 37, Type 0, BuildingBlock: BEQFEK_clean_sbu_0, # of connection points: 5
#     Node 38, Type 0, BuildingBlock: BEQFEK_clean_sbu_0, # of connection points: 5
#     Node 39, Type 0, BuildingBlock: BEQFEK_clean_sbu_0, # of connection points: 5
#     Node 40, Type 0, BuildingBlock: BEQFEK_clean_sbu_0, # of connection points: 5
#     Node 41, Type 0, BuildingBlock: BEQFEK_clean_sbu_0, # of connection points: 5
#     Node 42, Type 0, BuildingBlock: BEQFEK_clean_sbu_0, # of connection points: 5
#     Node 43, Type 0, BuildingBlock: BEQFEK_clean_sbu_0, # of connection points: 5
#     Node 44, Type 0, BuildingBlock: BEQFEK_clean_sbu_0, # of connection points: 5
#     Node 45, Type 0, BuildingBlock: BEQFEK_clean_sbu_0, # of connection points: 5
#     Node 46, Type 0, BuildingBlock: BEQFEK_clean_sbu_0, # of connection points: 5
#     Node 47, Type 0, BuildingBlock: BEQFEK_clean_sbu_0, # of connection points: 5
#     Edge 48, Type (0, 0), None
#     Edge 49, Type (0, 0), None
#     Edge 50, Type (0, 0), None
#     Edge 51, Type (0, 0), None
#     Edge 52, Type (0, 0), None
#     Edge 53, Type (0, 0), None
#     Edge 54, Type (0, 0), None
#     Edge 55, Type (0, 0), None
#     Edge 56, Type (0, 0), None
#     Edge 57, Type (0, 0), None
#     Edge 58, Type (0, 0), None
#     Edge 59, Type (0, 0), None
#     Edge 60, Type (0, 0), None
#     Edge 61, Type (0, 0), None
#     Edge 62, Type (0, 0), None
#     Edge 63, Type (0, 0), None
#     Edge 64, Type (0, 0), None
#     Edge 65, Type (0, 0), None
#     Edge 66, Type (0, 0), None
#     Edge 67, Type (0, 0), None
#     Edge 68, Type (0, 0), None
#     Edge 69, Type (0, 0), None
#     Edge 70, Type (0, 0), None
#     Edge 71, Type (0, 0), None
#     Edge 72, Type (0, 0), None
#     Edge 73, Type (0, 0), None
#     Edge 74, Type (0, 0), None
#     Edge 75, Type (0, 0), None
#     Edge 76, Type (0, 0), None
#     Edge 77, Type (0, 0), None
#     Edge 78, Type (0, 0), None
#     Edge 79, Type (0, 0), None
#     Edge 80, Type (0, 0), None
#     Edge 81, Type (0, 0), None
#     Edge 82, Type (0, 0), None
#     Edge 83, Type (0, 0), None
#     Edge 84, Type (0, 0), None
#     Edge 85, Type (0, 0), None
#     Edge 86, Type (0, 0), None
#     Edge 87, Type (0, 0), None
#     Edge 88, Type (0, 0), None
#     Edge 89, Type (0, 0), None
#     Edge 90, Type (0, 0), None
#     Edge 91, Type (0, 0), None
#     Edge 92, Type (0, 0), None
#     Edge 93, Type (0, 0), None
#     Edge 94, Type (0, 0), None
#     Edge 95, Type (0, 0), None
#     Edge 96, Type (0, 0), None
#     Edge 97, Type (0, 0), None
#     Edge 98, Type (0, 0), None
#     Edge 99, Type (0, 0), None
#     Edge 100, Type (0, 0), None
#     Edge 101, Type (0, 0), None
#     Edge 102, Type (0, 0), None
#     Edge 103, Type (0, 0), None
#     Edge 104, Type (0, 0), None
#     Edge 105, Type (0, 0), None
#     Edge 106, Type (0, 0), None
#     Edge 107, Type (0, 0), None
#     Edge 108, Type (0, 0), None
#     Edge 109, Type (0, 0), None
#     Edge 110, Type (0, 0), None
#     Edge 111, Type (0, 0), None
#     Edge 112, Type (0, 0), None
#     Edge 113, Type (0, 0), None
#     Edge 114, Type (0, 0), None
#     Edge 115, Type (0, 0), None
#     Edge 116, Type (0, 0), None
#     Edge 117, Type (0, 0), None
#     Edge 118, Type (0, 0), None
#     Edge 119, Type (0, 0), None
#     Edge 120, Type (0, 0), None
#     Edge 121, Type (0, 0), None
#     Edge 122, Type (0, 0), None
#     Edge 123, Type (0, 0), None
#     Edge 124, Type (0, 0), None
#     Edge 125, Type (0, 0), None
#     Edge 126, Type (0, 0), None
#     Edge 127, Type (0, 0), None
#     Edge 128, Type (0, 0), None
#     Edge 129, Type (0, 0), None
#     Edge 130, Type (0, 0), None
#     Edge 131, Type (0, 0), None
#     Edge 132, Type (0, 0), None
#     Edge 133, Type (0, 0), None
#     Edge 134, Type (0, 0), None
#     Edge 135, Type (0, 0), None
#     Edge 136, Type (0, 0), None
#     Edge 137, Type (0, 0), None
#     Edge 138, Type (0, 0), None
#     Edge 139, Type (0, 0), None
#     Edge 140, Type (0, 0), None
#     Edge 141, Type (0, 0), None
#     Edge 142, Type (0, 0), None
#     Edge 143, Type (0, 0), None
#     Edge 144, Type (0, 0), None
#     Edge 145, Type (0, 0), None
#     Edge 146, Type (0, 0), None
#     Edge 147, Type (0, 0), None
#     Edge 148, Type (0, 0), None
#     Edge 149, Type (0, 0), None
#     Edge 150, Type (0, 0), None
#     Edge 151, Type (0, 0), None
#     Edge 152, Type (0, 0), None
#     Edge 153, Type (0, 0), None
#     Edge 154, Type (0, 0), None
#     Edge 155, Type (0, 0), None
#     Edge 156, Type (0, 0), None
#     Edge 157, Type (0, 0), None
#     Edge 158, Type (0, 0), None
#     Edge 159, Type (0, 0), None
#     Edge 160, Type (0, 0), None
#     Edge 161, Type (0, 0), None
#     Edge 162, Type (0, 0), None
#     Edge 163, Type (0, 0), None
#     Edge 164, Type (0, 0), None
#     Edge 165, Type (0, 0), None
#     Edge 166, Type (0, 0), None
#     Edge 167, Type (0, 0), None
# Relax obj value: 0.250
# Max RMSD: 0.150
# Mean RMSD: 0.131
data_MOF--net-fno--node1-BEQFEK_clean_sbu_0--edge1-none
_symmetry_space_group_name_H-M    P1
_symmetry_Int_Tables_number       1
_symmetry_cell_setting            triclinic
loop_
_symmetry_equiv_pos_as_xyz
'x, y, z'
_cell_length_a     31.150627
_cell_length_b     31.210076
_cell_length_c     30.965758
_cell_angle_alpha  89.610222
_cell_angle_beta   89.22259
_cell_angle_gamma 88.49474
loop_
_atom_site_label
_atom_site_type_symbol
_atom_site_fract_x
_atom_site_fract_y
_atom_site_fract_z
_atom_type_partial_charge
Co0 Co 0.07765 0.37006 0.05861 0.0
Co1 Co 0.09576 0.35858 0.15443 0.0
C2 C 0.16468 0.348 0.10406 0.0
O3 O 0.13886 0.36253 0.07576 0.0
O4 O 0.15014 0.33133 0.13841 0.0
C5 C 0.11135 0.39271 0.97871 0.0
O6 O 0.13594 0.41429 0.00438 0.0
C7 C 0.12455 0.36534 0.24227 0.0
C8 C 0.07156 0.40383 0.27184 0.0
C9 C 0.11297 0.38827 0.27869 0.0
N10 N 0.09189 0.36796 0.21442 0.0
N11 N 0.06022 0.39093 0.2323 0.0
C12 C 0.16803 0.34675 0.2315 0.0
H13 H 0.18272 0.36696 0.20608 0.0
H14 H 0.16478 0.31382 0.21892 0.0
H15 H 0.18975 0.34595 0.25951 0.0
C16 C 0.00666 0.30786 0.0823 0.0
N17 N 0.04044 0.33252 0.09077 0.0
N18 N 0.05038 0.32726 0.13159 0.0
C19 C 0.02614 0.29678 0.14957 0.0
C20 C 0.99657 0.28338 0.11932 0.0
C21 C 0.98281 0.31108 0.04076 0.0
H22 H 0.98225 0.3448 0.02908 0.0
H23 H 0.99999 0.29167 0.01577 0.0
H24 H 0.94941 0.30009 0.04486 0.0
O25 O 0.06406 0.42956 0.07226 0.0
O26 O 0.10034 0.41787 0.13169 0.0
H27 H 0.01904 0.29533 0.21835 0.0
H28 H 0.02735 0.24299 0.19393 0.0
C29 C 0.03637 0.27712 0.19256 0.0
H30 H 0.07125 0.27936 0.19885 0.0
H31 H 0.03188 0.39978 0.2166 0.0
O32 O 0.08179 0.36929 0.99474 0.0
C33 C 0.08691 0.44326 0.10237 0.0
Co34 Co 0.87752 0.8526 0.31575 0.0
Co35 Co 0.8747 0.85598 0.41305 0.0
C36 C 0.88957 0.93427 0.35911 0.0
O37 O 0.89694 0.9131 0.32453 0.0
O38 O 0.87977 0.91548 0.39399 0.0
C39 C 0.85149 0.8698 0.2326 0.0
O40 O 0.83761 0.90479 0.25213 0.0
C41 C 0.888 0.89291 0.49472 0.0
C42 C 0.83163 0.86772 0.52955 0.0
C43 C 0.86117 0.90005 0.52981 0.0
N44 N 0.8734 0.85935 0.47293 0.0
N45 N 0.84014 0.84396 0.49434 0.0
C46 C 0.92394 0.92055 0.47989 0.0
H47 H 0.9404 0.90695 0.4509 0.0
H48 H 0.94753 0.92352 0.50617 0.0
H49 H 0.91107 0.95324 0.47245 0.0
C50 C 0.93904 0.77558 0.33649 0.0
N51 N 0.9127 0.80923 0.34752 0.0
N52 N 0.91675 0.81626 0.3889 0.0
C53 C 0.94868 0.79061 0.40471 0.0
C54 C 0.96439 0.76229 0.37232 0.0
C55 C 0.93505 0.75368 0.29399 0.0
H56 H 0.90145 0.75699 0.28267 0.0
H57 H 0.95552 0.76948 0.26936 0.0
H58 H 0.94379 0.71912 0.29678 0.0
O59 O 0.81581 0.85829 0.33158 0.0
O60 O 0.81469 0.84215 0.40077 0.0
H61 H 0.94987 0.77929 0.47299 0.0
H62 H 1.00206 0.7899 0.44831 0.0
C63 C 0.96724 0.79817 0.44819 0.0
H64 H 0.96278 0.83236 0.457 0.0
H65 H 0.82093 0.81967 0.48304 0.0
O66 O 0.8737 0.84183 0.25331 0.0
C67 C 0.79525 0.85249 0.36646 0.0
Co68 Co 0.38755 0.65581 0.6793 0.0
Co69 Co 0.40059 0.64313 0.58349 0.0
C70 C 0.41236 0.57202 0.62841 0.0
O71 O 0.39583 0.59444 0.65898 0.0
O72 O 0.43048 0.59021 0.59666 0.0
C73 C 0.36921 0.62449 0.76185 0.0
O74 O 0.3486 0.5966 0.73893 0.0
C75 C 0.38575 0.61802 0.49617 0.0
C76 C 0.35139 0.67575 0.47155 0.0
C77 C 0.36068 0.63305 0.46271 0.0
N78 N 0.39003 0.65 0.52447 0.0
N79 N 0.36957 0.68449 0.50951 0.0
C80 C 0.40019 0.57263 0.50399 0.0
H81 H 0.37968 0.55901 0.52986 0.0
H82 H 0.43398 0.57168 0.51483 0.0
H83 H 0.39731 0.55265 0.47475 0.0
C84 C 0.44453 0.73202 0.65935 0.0
N85 N 0.42269 0.6968 0.64903 0.0
N86 N 0.42927 0.68897 0.6079 0.0
C87 C 0.45814 0.71603 0.59141 0.0
C88 C 0.46876 0.74539 0.62317 0.0
C89 C 0.43835 0.75429 0.70165 0.0
H90 H 0.40434 0.75197 0.71233 0.0
H91 H 0.45828 0.73789 0.72649 0.0
H92 H 0.44679 0.78854 0.69907 0.0
O93 O 0.32735 0.66672 0.66744 0.0
O94 O 0.34129 0.63522 0.60525 0.0
H95 H 0.46015 0.72588 0.523 0.0
H96 H 0.51256 0.72035 0.54772 0.0
C97 C 0.47914 0.70892 0.5482 0.0
H98 H 0.47947 0.67426 0.54026 0.0
H99 H 0.3656 0.71308 0.52656 0.0
O100 O 0.39033 0.6539 0.74289 0.0
C101 C 0.31505 0.64592 0.63516 0.0
Co102 Co 0.59842 0.14515 0.93817 0.0
Co103 Co 0.59309 0.14251 0.83899 0.0
C104 C 0.67523 0.15392 0.88633 0.0
O105 O 0.65812 0.16283 0.92299 0.0
O106 O 0.65279 0.14509 0.85415 0.0
C107 C 0.61777 0.10985 0.01894 0.0
O108 O 0.65088 0.09425 0.99698 0.0
C109 C 0.62737 0.15259 0.75161 0.0
C110 C 0.58306 0.11117 0.7172 0.0
C111 C 0.62235 0.13074 0.7132 0.0
N112 N 0.59344 0.14449 0.77775 0.0
N113 N 0.56679 0.12039 0.75658 0.0
C114 C 0.66491 0.17851 0.76415 0.0
H115 H 0.65654 0.19896 0.79235 0.0
H116 H 0.67507 0.19936 0.73696 0.0
H117 H 0.69235 0.15663 0.77221 0.0
C118 C 0.52177 0.20833 0.92503 0.0
N119 N 0.55343 0.18107 0.91056 0.0
N120 N 0.55623 0.18458 0.86837 0.0
C121 C 0.52977 0.21701 0.85505 0.0
C122 C 0.50517 0.23339 0.89035 0.0
C123 C 0.50516 0.20631 0.97049 0.0
H124 H 0.51002 0.17337 0.9836 0.0
H125 H 0.52357 0.22801 0.99106 0.0
H126 H 0.47044 0.21501 0.97203 0.0
O127 O 0.60133 0.08512 0.92074 0.0
O128 O 0.58011 0.08186 0.85329 0.0
H129 H 0.51404 0.21781 0.78791 0.0
H130 H 0.52475 0.27029 0.81039 0.0
C131 C 0.53397 0.23574 0.81064 0.0
H132 H 0.56775 0.23205 0.79906 0.0
H133 H 0.53924 0.10752 0.77041 0.0
O134 O 0.5917 0.13673 0.00126 0.0
C135 C 0.59301 0.06361 0.88774 0.0
Co136 Co 0.09387 0.64278 0.43048 0.0
Co137 Co 0.09203 0.63721 0.33131 0.0
C138 C 0.1726 0.65009 0.38053 0.0
O139 O 0.15421 0.66016 0.4163 0.0
O140 O 0.15125 0.64018 0.34795 0.0
C141 C 0.11389 0.61074 0.51255 0.0
O142 O 0.14809 0.59712 0.49099 0.0
C143 C 0.12799 0.64538 0.24473 0.0
C144 C 0.08418 0.60363 0.20998 0.0
C145 C 0.12345 0.62334 0.20639 0.0
N146 N 0.0938 0.63731 0.27041 0.0
N147 N 0.06751 0.61293 0.24916 0.0
C148 C 0.16499 0.67193 0.2576 0.0
H149 H 0.15593 0.69254 0.28548 0.0
H150 H 0.17537 0.69276 0.2305 0.0
H151 H 0.19255 0.65047 0.2663 0.0
C152 C 0.01562 0.70349 0.41149 0.0
N153 N 0.04923 0.67728 0.39976 0.0
N154 N 0.05425 0.67989 0.3577 0.0
C155 C 0.02759 0.71097 0.34189 0.0
C156 C 1.00037 0.72733 0.37516 0.0
C157 C 0.99546 0.70049 0.45548 0.0
H158 H 1.00021 0.6675 0.46853 0.0
H159 H 0.01156 0.72227 0.47789 0.0
H160 H 0.96054 0.70815 0.45429 0.0
O161 O 0.09748 0.58243 0.41486 0.0
O162 O 0.07799 0.5774 0.34696 0.0
H163 H 0.01466 0.7099 0.27414 0.0
H164 H 0.02455 0.76295 0.29569 0.0
C165 C 0.03367 0.72841 0.29719 0.0
H166 H 0.06787 0.72446 0.2871 0.0
H167 H 0.03968 0.60044 0.26275 0.0
O168 O 0.08621 0.63548 0.49411 0.0
C169 C 0.08987 0.56012 0.38223 0.0
Co170 Co 0.58319 0.86783 0.56182 0.0
Co171 Co 0.59986 0.85431 0.65918 0.0
C172 C 0.66982 0.84778 0.60849 0.0
O173 O 0.64456 0.86219 0.57956 0.0
O174 O 0.65481 0.82919 0.64165 0.0
C175 C 0.61481 0.89006 0.47944 0.0
O176 O 0.64171 0.91063 0.50354 0.0
C177 C 0.63029 0.86426 0.74662 0.0
C178 C 0.57528 0.89863 0.77731 0.0
C179 C 0.61811 0.88715 0.78302 0.0
N180 N 0.59662 0.86314 0.71988 0.0
N181 N 0.56376 0.88367 0.73855 0.0
C182 C 0.67475 0.84929 0.73473 0.0
H183 H 0.68698 0.87061 0.70894 0.0
H184 H 0.67393 0.8161 0.72229 0.0
H185 H 0.69704 0.85041 0.76225 0.0
C186 C 0.51219 0.8056 0.58383 0.0
N187 N 0.546 0.82967 0.59373 0.0
N188 N 0.55505 0.82322 0.63467 0.0
C189 C 0.53014 0.79249 0.65121 0.0
C190 C 0.5011 0.78018 0.61985 0.0
C191 C 0.48907 0.8105 0.54199 0.0
H192 H 0.48906 0.8446 0.53149 0.0
H193 H 0.50646 0.79178 0.51662 0.0
H194 H 0.45547 0.79981 0.54511 0.0
O195 O 0.56933 0.92698 0.57641 0.0
O196 O 0.60209 0.91376 0.63778 0.0
H197 H 0.52106 0.78942 0.71972 0.0
H198 H 0.52991 0.73767 0.6942 0.0
C199 C 0.53906 0.77178 0.69399 0.0
H200 H 0.57374 0.77376 0.70138 0.0
H201 H 0.53431 0.88975 0.72374 0.0
O202 O 0.58561 0.86747 0.49734 0.0
C203 C 0.58974 0.93989 0.60868 0.0
Co204 Co 0.38402 0.36769 0.93326 0.0
Co205 Co 0.38366 0.35777 0.83603 0.0
C206 C 0.3013 0.36335 0.88461 0.0
O207 O 0.32083 0.36015 0.92059 0.0
O208 O 0.32176 0.3619 0.849 0.0
C209 C 0.36769 0.40789 0.01032 0.0
O210 O 0.33931 0.42789 0.98594 0.0
C211 C 0.3612 0.34629 0.74705 0.0
C212 C 0.41573 0.38042 0.71765 0.0
C213 C 0.37538 0.36529 0.70929 0.0
N214 N 0.39146 0.35161 0.77693 0.0
N215 N 0.42437 0.37098 0.75888 0.0
C216 C 0.31775 0.3288 0.75614 0.0
H217 H 0.31871 0.30747 0.78496 0.0
H218 H 0.30636 0.31068 0.72802 0.0
H219 H 0.29459 0.35579 0.76228 0.0
C220 C 0.45629 0.29804 0.92315 0.0
N221 N 0.42382 0.32418 0.90882 0.0
N222 N 0.41752 0.31589 0.86807 0.0
C223 C 0.44238 0.28167 0.85612 0.0
C224 C 0.46964 0.26883 0.89028 0.0
C225 C 0.47747 0.30559 0.96536 0.0
H226 H 0.4736 0.33987 0.97434 0.0
H227 H 0.46162 0.28664 0.99113 0.0
H228 H 0.5122 0.29697 0.9634 0.0
O229 O 0.39335 0.42558 0.91304 0.0
O230 O 0.40163 0.41794 0.84285 0.0
H231 H 0.45351 0.27457 0.78808 0.0
H232 H 0.44443 0.22452 0.81716 0.0
C233 C 0.4352 0.25899 0.81454 0.0
H234 H 0.40075 0.26188 0.80597 0.0
H235 H 0.45094 0.38129 0.77574 0.0
O236 O 0.39017 0.37659 0.99514 0.0
C237 C 0.39945 0.4414 0.87604 0.0
Co238 Co 0.88519 0.1596 0.18391 0.0
Co239 Co 0.8966 0.14448 0.08917 0.0
C240 C 0.90936 0.07452 0.13464 0.0
O241 O 0.894 0.0986 0.16437 0.0
O242 O 0.92609 0.09095 0.10118 0.0
C243 C 0.86799 0.12553 0.26434 0.0
O244 O 0.84655 0.09934 0.24021 0.0
C245 C 0.88441 0.12098 0.00101 0.0
C246 C 0.84518 0.17663 0.97856 0.0
C247 C 0.85868 0.13541 0.96785 0.0
N248 N 0.88513 0.15188 0.03085 0.0
N249 N 0.86179 0.18512 0.01726 0.0
C250 C 0.90326 0.0768 0.00689 0.0
H251 H 0.88506 0.06032 0.03282 0.0
H252 H 0.93718 0.07883 0.01696 0.0
H253 H 0.90158 0.05751 0.97706 0.0
C254 C 0.94156 0.23577 0.16165 0.0
N255 N 0.92009 0.19987 0.15299 0.0
N256 N 0.92622 0.19057 0.11214 0.0
C257 C 0.95432 0.2175 0.09412 0.0
C258 C 0.96495 0.24817 0.12454 0.0
C259 C 0.93583 0.25942 0.20326 0.0
H260 H 0.90206 0.25708 0.21475 0.0
H261 H 0.95639 0.24409 0.22826 0.0
H262 H 0.94389 0.29366 0.19935 0.0
O263 O 0.82484 0.17072 0.17308 0.0
O264 O 0.83745 0.13654 0.11217 0.0
H265 H 0.95451 0.2254 0.02546 0.0
H266 H 0.00757 0.22139 0.04895 0.0
C267 C 0.97436 0.20946 0.05063 0.0
H268 H 0.97505 0.17457 0.04372 0.0
H269 H 0.8551 0.21249 0.0356 0.0
O270 O 0.88902 0.15589 0.24688 0.0
C271 C 0.8118 0.14853 0.14211 0.0
Co272 Co 0.08728 0.08102 0.36926 0.0
Co273 Co 0.18024 0.10577 0.35293 0.0
C274 C 0.12296 0.17214 0.34843 0.0
O275 O 0.09691 0.14487 0.36379 0.0
O276 O 0.15757 0.15963 0.32975 0.0
C277 C 0.00663 0.09839 0.39959 0.0
O278 O 0.03033 0.12406 0.42204 0.0
C279 C 0.26262 0.14403 0.36923 0.0
C280 C 0.29646 0.09023 0.40152 0.0
C281 C 0.29886 0.13382 0.39314 0.0
N282 N 0.23997 0.10818 0.36387 0.0
N283 N 0.26039 0.07621 0.38359 0.0
C284 C 0.24648 0.18807 0.35765 0.0
H285 H 0.21758 0.19576 0.37769 0.0
H286 H 0.23713 0.18888 0.32324 0.0
H287 H 0.27063 0.21274 0.3636 0.0
C288 C 0.11003 0.01241 0.30574 0.0
N289 N 0.11967 0.04697 0.3291 0.0
N290 N 0.15969 0.05728 0.32118 0.0
C291 C 0.17608 0.03097 0.29022 0.0
C292 C 0.14514 1.00104 0.27916 0.0
C293 C 0.06929 0.98877 0.31256 0.0
H294 H 0.05996 0.98955 0.34728 0.0
H295 H 0.04306 0.0052 0.29449 0.0
H296 H 0.07291 0.95497 0.30193 0.0
O297 O 0.10542 0.06697 0.42702 0.0
O298 O 0.15886 0.10924 0.41288 0.0
H299 H 0.24401 0.01993 0.28786 0.0
H300 H 0.21943 0.02591 0.23543 0.0
C301 C 0.21894 0.03753 0.26922 0.0
H302 H 0.22673 0.07204 0.26974 0.0
H303 H 0.24844 0.04543 0.38701 0.0
O304 O 0.02447 0.07398 0.37135 0.0
C305 C 0.13243 0.09346 0.43954 0.0
Co306 Co 0.13045 0.94388 0.61399 0.0
Co307 Co 0.1237 0.84728 0.60573 0.0
C308 C 0.14073 0.89056 0.68916 0.0
O309 O 0.15108 0.92587 0.67178 0.0
O310 O 0.12789 0.85986 0.66687 0.0
C311 C 0.10496 0.02264 0.64762 0.0
O312 O 0.09282 0.99765 0.67952 0.0
C313 C 0.12567 0.75913 0.6342 0.0
C314 C 0.0867 0.73104 0.58301 0.0
C315 C 0.10281 0.72339 0.6239 0.0
N316 N 0.12164 0.78752 0.60146 0.0
N317 N 0.09887 0.77026 0.57074 0.0
C318 C 0.14594 0.76836 0.67659 0.0
H319 H 0.12151 0.78369 0.69826 0.0
H320 H 0.17311 0.79026 0.6718 0.0
H321 H 0.15758 0.73874 0.6929 0.0
C322 C 0.18944 0.92775 0.53331 0.0
N323 N 0.16398 0.91585 0.56703 0.0
N324 N 0.16527 0.87381 0.56945 0.0
C325 C 0.19353 0.85766 0.54013 0.0
C326 C 0.20975 0.89103 0.51461 0.0
C327 C 0.19067 0.97303 0.51736 0.0
H328 H 0.15944 0.98972 0.52427 0.0
H329 H 0.21567 0.99033 0.53489 0.0
H330 H 0.19754 0.97415 0.48213 0.0
O331 O 0.06896 0.93066 0.61518 0.0
O332 O 0.06579 0.86504 0.58987 0.0
H333 H 0.18533 0.79209 0.52291 0.0
H334 H 0.24107 0.80741 0.5276 0.0
C335 C 0.20809 0.81159 0.54112 0.0
H336 H 0.20774 0.79957 0.57495 0.0
H337 H 0.08883 0.78652 0.54295 0.0
O338 O 0.12565 0.00696 0.61513 0.0
C339 C 0.04753 0.89927 0.60295 0.0
Co340 Co 0.45027 0.92478 0.86624 0.0
Co341 Co 0.36622 0.8982 0.83006 0.0
C342 C 0.42127 0.83304 0.84022 0.0
O343 O 0.44188 0.86179 0.85928 0.0
O344 O 0.39218 0.84371 0.81371 0.0
C345 C 0.52125 0.89944 0.91113 0.0
O346 O 0.49313 0.87264 0.92666 0.0
C347 C 0.28173 0.8645 0.83203 0.0
C348 C 0.24106 0.92328 0.82888 0.0
C349 C 0.24015 0.87965 0.8369 0.0
N350 N 0.30658 0.89784 0.82189 0.0
N351 N 0.28203 0.93291 0.8198 0.0
C352 C 0.29838 0.82054 0.84316 0.0
H353 H 0.32488 0.82271 0.86652 0.0
H354 H 0.31127 0.8053 0.81334 0.0
H355 H 0.27281 0.80032 0.85707 0.0
C356 C 0.44336 0.99252 0.79383 0.0
N357 N 0.42999 0.95867 0.81769 0.0
N358 N 0.39437 0.94482 0.80119 0.0
C359 C 0.38558 0.96699 0.76467 0.0
C360 C 0.41552 0.99945 0.75882 0.0
C361 C 0.48064 0.01878 0.80618 0.0
H362 H 0.48554 0.01675 0.84159 0.0
H363 H 0.51016 0.00573 0.79008 0.0
H364 H 0.47542 0.05274 0.79631 0.0
O365 O 0.41901 0.93704 0.91978 0.0
O366 O 0.37007 0.89485 0.89479 0.0
H367 H 0.32089 0.96469 0.74218 0.0
H368 H 0.36139 0.96349 0.69968 0.0
C369 C 0.35334 0.95238 0.73286 0.0
H370 H 0.35225 0.91685 0.73343 0.0
H371 H 0.2936 0.96377 0.81576 0.0
O372 O 0.51049 0.92702 0.88227 0.0
C373 C 0.38975 0.91034 0.92651 0.0
Co374 Co 0.35161 0.19727 0.10534 0.0
Co375 Co 0.3572 0.09977 0.09649 0.0
C376 C 0.43337 0.13937 0.08671 0.0
O377 O 0.41379 0.17341 0.10019 0.0
O378 O 0.41309 0.10778 0.07296 0.0
C379 C 0.38022 0.27818 0.13435 0.0
O380 O 0.40849 0.25388 0.15475 0.0
C381 C 0.37987 0.01032 0.10736 0.0
C382 C 0.32364 0.98666 0.1436 0.0
C383 C 0.36547 0.97605 0.13133 0.0
N384 N 0.3484 0.04067 0.10631 0.0
N385 N 0.31475 0.02622 0.12784 0.0
C386 C 0.42507 0.01695 0.09223 0.0
H387 H 0.43955 0.04096 0.11329 0.0
H388 H 0.42515 0.02905 0.05847 0.0
H389 H 0.44545 0.98743 0.09411 0.0
C390 C 0.27925 0.18553 0.04048 0.0
N391 N 0.3118 0.17156 0.0659 0.0
N392 N 0.31573 0.12971 0.0622 0.0
C393 C 0.28885 0.11609 0.03183 0.0
C394 C 0.26346 0.15078 0.0171 0.0
C395 C 0.26125 0.23038 0.04249 0.0
H396 H 0.26423 0.24295 0.07573 0.0
H397 H 0.28021 0.25127 0.02076 0.0
H398 H 0.22701 0.23171 0.03304 0.0
O399 O 0.33242 0.18367 0.1631 0.0
O400 O 0.36512 0.12124 0.15529 0.0
H401 H 0.2732 0.04978 0.03369 0.0
H402 H 0.2819 0.07127 0.97964 0.0
C403 C 0.2926 0.07183 0.01365 0.0
H404 H 0.32647 0.05998 0.01515 0.0
H405 H 0.28683 0.04442 0.13423 0.0
O406 O 0.35372 0.2612 0.10859 0.0
C407 C 0.35304 0.15224 0.17894 0.0
Co408 Co 0.19794 0.86861 0.16819 0.0
Co409 Co 0.10408 0.88727 0.14964 0.0
C410 C 0.15742 0.88753 0.07966 0.0
O411 O 0.18491 0.87174 0.10552 0.0
O412 O 0.12361 0.90623 0.09371 0.0
C413 C 0.27644 0.8358 0.14336 0.0
O414 O 0.25218 0.81496 0.11678 0.0
C415 C 0.01704 0.88799 0.11681 0.0
C416 C 0.98404 0.85528 0.17075 0.0
C417 C 0.97945 0.86784 0.12804 0.0
N418 N 0.04336 0.88615 0.15104 0.0
N419 N 0.02316 0.86698 0.18327 0.0
C420 C 0.02995 0.90313 0.0727 0.0
H421 H 0.05276 0.87924 0.05821 0.0
H422 H 0.04626 0.93417 0.07516 0.0
H423 H 1.00202 0.90692 0.05109 0.0
C424 C 0.18182 0.9382 0.23501 0.0
N425 N 0.16994 0.91219 0.20281 0.0
N426 N 0.12951 0.92059 0.19372 0.0
C427 C 0.11507 0.954 0.21762 0.0
C428 C 0.14748 0.96636 0.2456 0.0
C429 C 0.22397 0.93319 0.25725 0.0
H430 H 0.23435 0.89889 0.25755 0.0
H431 H 0.24863 0.95117 0.23902 0.0
H432 H 0.22171 0.94516 0.29088 0.0
O433 O 0.1805 0.81256 0.18472 0.0
O434 O 0.11945 0.82446 0.15084 0.0
H435 H 0.047 0.95897 0.22679 0.0
H436 H 0.07288 0.0101 0.22021 0.0
C437 C 0.07279 0.97626 0.2095 0.0
H438 H 0.06551 0.97522 0.17452 0.0
H439 H 0.03727 0.85906 0.21274 0.0
O440 O 0.25998 0.86333 0.16947 0.0
C441 C 0.14779 0.79889 0.16622 0.0
Co442 Co 0.31438 0.82693 0.37892 0.0
Co443 Co 0.34668 0.91533 0.39772 0.0
C444 C 0.40693 0.85562 0.40106 0.0
O445 O 0.378 0.83324 0.38448 0.0
O446 O 0.3965 0.88861 0.42261 0.0
C447 C 0.33668 0.74786 0.3448 0.0
O448 O 0.36539 0.77243 0.32666 0.0
C449 C 0.38878 0.99828 0.39754 0.0
C450 C 0.35372 0.02819 0.34321 0.0
C451 C 0.38995 0.03218 0.36816 0.0
N452 N 0.35399 0.97491 0.38939 0.0
N453 N 0.33315 0.99332 0.35706 0.0
C454 C 0.42202 0.98626 0.4301 0.0
H455 H 0.40984 0.9618 0.45295 0.0
H456 H 0.43141 0.01459 0.4487 0.0
H457 H 0.45112 0.97373 0.41291 0.0
C458 C 0.24676 0.85307 0.44708 0.0
N459 N 0.28147 0.85983 0.42153 0.0
N460 N 0.29638 0.89782 0.4301 0.0
C461 C 0.27427 0.91472 0.46411 0.0
C462 C 0.24111 0.88721 0.47654 0.0
C463 C 0.21742 0.81679 0.43944 0.0
H464 H 0.21553 0.81074 0.40423 0.0
H465 H 0.23092 0.78708 0.45437 0.0
H466 H 0.18469 0.824 0.45246 0.0
O467 O 0.30292 0.8494 0.32185 0.0
O468 O 0.35104 0.89782 0.33517 0.0
H469 H 0.27342 0.98247 0.47385 0.0
H470 H 0.28179 0.95084 0.52253 0.0
C471 C 0.28923 0.95323 0.48748 0.0
H472 H 0.32439 0.95645 0.48265 0.0
H473 H 0.3066 0.98027 0.34228 0.0
O474 O 0.30871 0.76391 0.37133 0.0
C475 C 0.33144 0.87466 0.30884 0.0
Co476 Co 0.45754 0.12425 0.63199 0.0
Co477 Co 0.35957 0.10907 0.62868 0.0
C478 C 0.39516 0.1965 0.632 0.0
O479 O 0.43283 0.18296 0.64137 0.0
O480 O 0.36524 0.17108 0.62477 0.0
C481 C 0.53312 0.15425 0.59343 0.0
O482 O 0.50454 0.17514 0.57007 0.0
C483 C 0.26984 0.12972 0.64639 0.0
C484 C 0.23921 0.08654 0.60048 0.0
C485 C 0.23125 0.12173 0.62671 0.0
N486 N 0.29963 0.1014 0.63124 0.0
N487 N 0.28093 0.07532 0.6043 0.0
C488 C 0.27913 0.16598 0.67591 0.0
H489 H 0.27634 0.19673 0.65781 0.0
H490 H 0.31184 0.16222 0.68941 0.0
H491 H 0.25529 0.1671 0.70285 0.0
C492 C 0.4495 0.05264 0.70127 0.0
N493 N 0.43398 0.08213 0.67262 0.0
N494 N 0.39173 0.08168 0.67443 0.0
C495 C 0.37914 0.05496 0.70629 0.0
C496 C 0.41519 0.0344 0.72449 0.0
C497 C 0.4955 0.03789 0.70157 0.0
H498 H 0.5113 0.04525 0.67012 0.0
H499 H 0.51243 0.055 0.72701 0.0
H500 H 0.49816 1.00296 0.70839 0.0
O501 O 0.44386 0.11065 0.57297 0.0
O502 O 0.37747 0.08777 0.57135 0.0
H503 H 0.3158 0.03164 0.69834 0.0
H504 H 0.33057 0.03993 0.75428 0.0
C505 C 0.33325 0.05237 0.72075 0.0
H506 H 0.31768 0.08469 0.71933 0.0
H507 H 0.29724 0.05185 0.58615 0.0
O508 O 0.52092 0.13021 0.62485 0.0
C509 C 0.41286 0.09574 0.55264 0.0
Co510 Co 0.15767 0.19007 0.87789 0.0
Co511 Co 0.1384 0.09923 0.90213 0.0
C512 C 0.06743 0.14928 0.88643 0.0
O513 O 0.09468 0.17586 0.87231 0.0
O514 O 0.07929 0.11825 0.91038 0.0
C515 C 0.13838 0.26664 0.83976 0.0
O516 O 0.11578 0.24093 0.81623 0.0
C517 C 0.11064 0.01163 0.89954 0.0
C518 C 0.17155 0.98038 0.87823 0.0
C519 C 0.12776 0.97459 0.88135 0.0
N520 N 0.14285 0.03905 0.90505 0.0
N521 N 0.17924 0.01978 0.89293 0.0
C522 C 0.06404 0.02262 0.90612 0.0
H523 H 0.05288 0.04346 0.87911 0.0
H524 H 0.05934 0.04041 0.93678 0.0
H525 H 0.0445 0.99338 0.9069 0.0
C526 C 0.21912 0.18126 0.95166 0.0
N527 N 0.18709 0.16731 0.92686 0.0
N528 N 0.17715 0.12848 0.93901 0.0
C529 C 0.20007 0.11755 0.97427 0.0
C530 C 0.22866 0.15038 0.98353 0.0
C531 C 0.24361 0.2205 0.94046 0.0
H532 H 0.24263 0.22646 0.90509 0.0
H533 H 0.22817 0.24871 0.95648 0.0
H534 H 0.27753 0.21702 0.95065 0.0
O535 O 0.18369 0.16817 0.8265 0.0
O536 O 0.14882 0.10863 0.83843 0.0
H537 H 0.20824 0.05007 0.98496 0.0
H538 H 0.20174 0.08145 0.03402 0.0
C539 C 0.19139 0.07799 0.00012 0.0
H540 H 0.15652 0.07149 -0.00034 0.0
H541 H 0.20871 0.03487 0.89105 0.0
O542 O 0.16043 0.25166 0.87098 0.0
C543 C 0.168 0.13405 0.81291 0.0
Co544 Co 0.81669 0.33025 0.87852 0.0
Co545 Co 0.84792 0.41872 0.89725 0.0
C546 C 0.90981 0.35977 0.8971 0.0
O547 O 0.88067 0.33702 0.88145 0.0
O548 O 0.89964 0.39257 0.91909 0.0
C549 C 0.83791 0.25125 0.84483 0.0
O550 O 0.8656 0.2757 0.82493 0.0
C551 C 0.88901 0.50192 0.89708 0.0
C552 C 0.85467 0.5309 0.84183 0.0
C553 C 0.89053 0.53532 0.86718 0.0
N554 N 0.85441 0.47834 0.88887 0.0
N555 N 0.83396 0.49622 0.85599 0.0
C556 C 0.92177 0.49069 0.93037 0.0
H557 H 0.91026 0.46504 0.95222 0.0
H558 H 0.92896 0.51903 0.95001 0.0
H559 H 0.95204 0.4804 0.91381 0.0
C560 C 0.74979 0.35446 0.94757 0.0
N561 N 0.78441 0.3621 0.92219 0.0
N562 N 0.79873 0.40022 0.93113 0.0
C563 C 0.77612 0.41646 0.9652 0.0
C564 C 0.74336 0.38824 0.97726 0.0
C565 C 0.72105 0.31783 0.93933 0.0
H566 H 0.71967 0.31193 0.90406 0.0
H567 H 0.73477 0.28821 0.95427 0.0
H568 H 0.6881 0.3245 0.952 0.0
O569 O 0.80284 0.35235 0.82196 0.0
O570 O 0.85025 0.4016 0.8346 0.0
H571 H 0.77339 0.48424 0.97471 0.0
H572 H 0.78201 0.453 0.02358 0.0
C573 C 0.7898 0.45546 0.9886 0.0
H574 H 0.82489 0.45956 0.98412 0.0
H575 H 0.80768 0.48287 0.84103 0.0
O576 O 0.81096 0.26749 0.87218 0.0
C577 C 0.83052 0.37831 0.80852 0.0
Co578 Co 0.95702 0.6211 0.13218 0.0
Co579 Co 0.85906 0.60585 0.12937 0.0
C580 C 0.89413 0.69295 0.13765 0.0
O581 O 0.93205 0.67901 0.14538 0.0
O582 O 0.86419 0.66796 0.12919 0.0
C583 C 0.03092 0.65413 0.0931 0.0
O584 O 1.00117 0.67541 0.07161 0.0
C585 C 0.76927 0.62522 0.14746 0.0
C586 C 0.73919 0.58291 0.10034 0.0
C587 C 0.73093 0.61754 0.12721 0.0
N588 N 0.79928 0.59734 0.13196 0.0
N589 N 0.78089 0.5717 0.10436 0.0
C590 C 0.77814 0.66088 0.17787 0.0
H591 H 0.77613 0.69194 0.16022 0.0
H592 H 0.81043 0.65655 0.19219 0.0
H593 H 0.75364 0.66183 0.20422 0.0
C594 C 0.94978 0.54656 0.19903 0.0
N595 N 0.93414 0.57684 0.1712 0.0
N596 N 0.89188 0.57641 0.17335 0.0
C597 C 0.87946 0.54904 0.20468 0.0
C598 C 0.91557 0.52802 0.22219 0.0
C599 C 0.99559 0.53114 0.19838 0.0
H600 H 0.01143 0.53999 0.16735 0.0
H601 H 0.0129 0.54628 0.22477 0.0
H602 H 0.99768 0.49587 0.20326 0.0
O603 O 0.94251 0.61053 0.07264 0.0
O604 O 0.87612 0.58787 0.0707 0.0
H605 H 0.81603 0.52586 0.19709 0.0
H606 H 0.83129 0.53357 0.25296 0.0
C607 C 0.8337 0.54636 0.21954 0.0
H608 H 0.81815 0.57871 0.21862 0.0
H609 H 0.79746 0.54872 0.0858 0.0
O610 O 0.02023 0.62845 0.1238 0.0
C611 C 0.91119 0.59681 0.05195 0.0
Co612 Co 0.65495 0.68808 0.37716 0.0
Co613 Co 0.63758 0.59743 0.40245 0.0
C614 C 0.56549 0.64526 0.38558 0.0
O615 O 0.59249 0.67213 0.37163 0.0
O616 O 0.57761 0.61477 0.41009 0.0
C617 C 0.6317 0.76402 0.33937 0.0
O618 O 0.60845 0.73796 0.31693 0.0
C619 C 0.61128 0.50949 0.40113 0.0
C620 C 0.66993 0.48089 0.37135 0.0
C621 C 0.62681 0.47394 0.37895 0.0
N622 N 0.64347 0.5373 0.40457 0.0
N623 N 0.6786 0.5195 0.38745 0.0
C624 C 0.56553 0.51896 0.41365 0.0
H625 H 0.5497 0.53724 0.38715 0.0
H626 H 0.56406 0.53856 0.44342 0.0
H627 H 0.54783 0.48895 0.41903 0.0
C628 C 0.71753 0.68151 0.4505 0.0
N629 N 0.68536 0.6667 0.42634 0.0
N630 N 0.67614 0.62788 0.43918 0.0
C631 C 0.69969 0.61788 0.47434 0.0
C632 C 0.72804 0.6513 0.4828 0.0
C633 C 0.74126 0.72094 0.43828 0.0
H634 H 0.73924 0.72663 0.40292 0.0
H635 H 0.726 0.74912 0.45451 0.0
H636 H 0.77549 0.71788 0.44752 0.0
O637 O 0.68141 0.66672 0.32578 0.0
O638 O 0.6477 0.60672 0.33857 0.0
H639 H 0.70869 0.55063 0.48598 0.0
H640 H 0.70246 0.58275 0.53463 0.0
C641 C 0.69177 0.57862 0.50092 0.0
H642 H 0.65697 0.57175 0.50103 0.0
H643 H 0.70738 0.53542 0.3829 0.0
O644 O 0.65545 0.74953 0.36956 0.0
C645 C 0.66623 0.6322 0.31262 0.0
Co646 Co 0.94834 0.4213 0.36662 0.0
Co647 Co 0.86498 0.39426 0.33033 0.0
C648 C 0.91916 0.32867 0.34442 0.0
O649 O 0.93981 0.35787 0.36271 0.0
O650 O 0.89056 0.33867 0.31713 0.0
C651 C 0.01883 0.39753 0.41274 0.0
O652 O 0.99052 0.37179 0.42973 0.0
C653 C 0.78014 0.36137 0.33187 0.0
C654 C 0.73996 0.42002 0.32377 0.0
C655 C 0.7385 0.37682 0.33377 0.0
N656 N 0.80557 0.39405 0.32108 0.0
N657 N 0.78135 0.42907 0.31617 0.0
C658 C 0.7959 0.31796 0.34607 0.0
H659 H 0.82357 0.32098 0.36786 0.0
H660 H 0.80663 0.29978 0.31714 0.0
H661 H 0.77026 0.29993 0.36283 0.0
C662 C 0.94329 0.4867 0.29196 0.0
N663 N 0.92942 0.45345 0.3164 0.0
N664 N 0.89399 0.43936 0.29974 0.0
C665 C 0.88583 0.46079 0.2626 0.0
C666 C 0.91596 0.49303 0.25649 0.0
C667 C 0.98043 0.51317 0.30426 0.0
H668 H 0.98504 0.51162 0.33973 0.0
H669 H 0.01005 0.49995 0.2885 0.0
H670 H 0.97527 0.54699 0.29389 0.0
O671 O 0.91664 0.43653 0.419 0.0
O672 O 0.86794 0.39348 0.39521 0.0
H673 H 0.82134 0.45848 0.2394 0.0
H674 H 0.86226 0.45663 0.19744 0.0
C675 C 0.85384 0.44592 0.23067 0.0
H676 H 0.85259 0.4104 0.23167 0.0
H677 H 0.79326 0.45966 0.31115 0.0
O678 O 0.00823 0.42384 0.3827 0.0
C679 C 0.88738 0.41003 0.42652 0.0
Co680 Co 0.58723 0.58575 0.86561 0.0
Co681 Co 0.6803 0.60916 0.84923 0.0
C682 C 0.62429 0.67661 0.84739 0.0
O683 O 0.59805 0.64936 0.86226 0.0
O684 O 0.65823 0.66402 0.82762 0.0
C685 C 0.50731 0.60597 0.89665 0.0
O686 O 0.53167 0.63125 0.91883 0.0
C687 C 0.76289 0.64675 0.86566 0.0
C688 C 0.79619 0.5927 0.89804 0.0
C689 C 0.7988 0.63632 0.88995 0.0
N690 N 0.74016 0.61101 0.85982 0.0
N691 N 0.76031 0.57887 0.87955 0.0
C692 C 0.74695 0.69096 0.85456 0.0
H693 H 0.71858 0.69876 0.87528 0.0
H694 H 0.737 0.69206 0.82033 0.0
H695 H 0.77139 0.7154 0.8602 0.0
C696 C 0.60837 0.51784 0.8001 0.0
N697 N 0.61853 0.55196 0.824 0.0
N698 N 0.6588 0.56159 0.81638 0.0
C699 C 0.67488 0.53526 0.78526 0.0
C700 C 0.64349 0.50593 0.77369 0.0
C701 C 0.56712 0.49494 0.80628 0.0
H702 H 0.55693 0.49635 0.84075 0.0
H703 H 0.54162 0.51146 0.78727 0.0
H704 H 0.57048 0.46098 0.79615 0.0
O705 O 0.60542 0.56954 0.92283 0.0
O706 O 0.65959 0.61114 0.9096 0.0
H707 H 0.74274 0.52351 0.78397 0.0
H708 H 0.71893 0.52913 0.73109 0.0
C709 C 0.71809 0.54111 0.76476 0.0
H710 H 0.72622 0.57553 0.76501 0.0
H711 H 0.74819 0.54814 0.88276 0.0
O712 O 0.52436 0.58085 0.86852 0.0
C713 C 0.63309 0.59502 0.93599 0.0
Co714 Co 0.93155 0.63511 0.92577 0.0
Co715 Co 0.9024 0.66951 0.83985 0.0
C716 C 0.83812 0.66084 0.8962 0.0
O717 O 0.86721 0.64174 0.91819 0.0
O718 O 0.84857 0.68738 0.86694 0.0
C719 C 0.91334 0.59941 0.00511 0.0
O720 O 0.88316 0.58237 0.98212 0.0
C721 C 0.86712 0.67748 0.75514 0.0
C722 C 0.92411 0.65747 0.71621 0.0
C723 C 0.88012 0.66439 0.71472 0.0
N724 N 0.9019 0.67702 0.78026 0.0
N725 N 0.93599 0.6659 0.75668 0.0
C726 C 0.82195 0.68264 0.77125 0.0
H727 H 0.81391 0.65401 0.7908 0.0
H728 H 0.81902 0.71139 0.79203 0.0
H729 H 0.79897 0.68581 0.74427 0.0
C730 C 1.00138 0.70103 0.90987 0.0
N731 N 0.96518 0.68012 0.90043 0.0
N732 N 0.94989 0.69592 0.86432 0.0
C733 C 0.97381 0.72876 0.85071 0.0
C734 C 0.00835 0.73302 0.87846 0.0
C735 C 0.02992 0.68818 0.94644 0.0
H736 H 0.02862 0.65304 0.95198 0.0
H737 H 0.01809 0.70408 0.97641 0.0
H738 H 0.06355 0.69736 0.9398 0.0
O739 O 0.94221 0.58024 0.89781 0.0
O740 O 0.90105 0.60591 0.84608 0.0
H741 H 0.97184 0.74474 0.78344 0.0
H742 H 0.97312 0.79063 0.81886 0.0
C743 C 0.96027 0.75812 0.81468 0.0
H744 H 0.92468 0.76037 0.81345 0.0
H745 H 0.96663 0.66039 0.76912 0.0
O746 O 0.93983 0.62472 0.98728 0.0
C747 C 0.91627 0.57422 0.8674 0.0
Co748 Co 0.12289 0.15476 0.68947 0.0
Co749 Co 0.09651 0.13918 0.59866 0.0
C750 C 0.09485 0.06845 0.64912 0.0
O751 O 0.11317 0.09142 0.67705 0.0
O752 O 0.07632 0.0851 0.61679 0.0
C753 C 0.15883 0.13194 0.7673 0.0
O754 O 0.17683 0.1019 0.74318 0.0
C755 C 0.09536 0.1109 0.51222 0.0
C756 C 0.13873 0.15927 0.4848 0.0
C757 C 0.12311 0.11877 0.47812 0.0
N758 N 0.09636 0.14452 0.53906 0.0
N759 N 0.12136 0.17379 0.52191 0.0
C760 C 0.07249 0.07028 0.52192 0.0
H761 H 0.04444 0.07684 0.54352 0.0
H762 H 0.06094 0.05533 0.49205 0.0
H763 H 0.09493 0.04719 0.53789 0.0
C764 C 0.05691 0.22955 0.67971 0.0
N765 N 0.07993 0.19455 0.66625 0.0
N766 N 0.06786 0.1853 0.62712 0.0
C767 C 0.03523 0.21175 0.61525 0.0
C768 C 0.02717 0.24201 0.64777 0.0
C769 C 0.06561 0.25191 0.72107 0.0
H770 H 0.10034 0.24894 0.72841 0.0
H771 H 0.04774 0.2362 0.74779 0.0
H772 H 0.05575 0.28628 0.71919 0.0
O773 O 0.18025 0.16444 0.66601 0.0
O774 O 0.15911 0.13155 0.60803 0.0
H775 H 0.02488 0.21846 0.54738 0.0
H776 H 0.97591 0.21671 0.57987 0.0
C777 C 0.00921 0.2037 0.57599 0.0
H778 H 0.00829 0.16871 0.56995 0.0
H779 H 0.13058 0.20129 0.53797 0.0
O780 O 0.1317 0.15871 0.75135 0.0
C781 C 0.18892 0.14281 0.63255 0.0
Co782 Co 0.62175 0.35171 0.31464 0.0
Co783 Co 0.62223 0.36015 0.40991 0.0
C784 C 0.60597 0.43351 0.36993 0.0
O785 O 0.61991 0.41272 0.33717 0.0
O786 O 0.59055 0.41357 0.40189 0.0
C787 C 0.6372 0.38553 0.23423 0.0
O788 O 0.66043 0.41046 0.25797 0.0
C789 C 0.63885 0.38571 0.49721 0.0
C790 C 0.6703 0.32748 0.52417 0.0
C791 C 0.66013 0.37009 0.53288 0.0
N792 N 0.63688 0.35401 0.46821 0.0
N793 N 0.65606 0.31933 0.48432 0.0
C794 C 0.62475 0.43124 0.4892 0.0
H795 H 0.64325 0.44374 0.46132 0.0
H796 H 0.59011 0.43276 0.48141 0.0
H797 H 0.63053 0.45206 0.51728 0.0
C798 C 0.56152 0.27943 0.3361 0.0
N799 N 0.58735 0.31176 0.34624 0.0
N800 N 0.58819 0.31539 0.3884 0.0
C801 C 0.56049 0.28779 0.40654 0.0
C802 C 0.5425 0.26327 0.37405 0.0
C803 C 0.55866 0.26241 0.29122 0.0
H804 H 0.59084 0.26285 0.27539 0.0
H805 H 0.53709 0.28373 0.272 0.0
H806 H 0.54674 0.22922 0.29128 0.0
O807 O 0.681 0.33338 0.31941 0.0
O808 O 0.67977 0.36857 0.3806 0.0
H809 H 0.56954 0.2677 0.47193 0.0
H810 H 0.51415 0.27932 0.45816 0.0
C811 C 0.54779 0.28935 0.45328 0.0
H812 H 0.55129 0.32229 0.46585 0.0
H813 H 0.66042 0.29055 0.46767 0.0
O814 O 0.61449 0.35667 0.25208 0.0
C815 C 0.70007 0.35458 0.3475 0.0
Co816 Co 0.38982 0.85094 0.19097 0.0
Co817 Co 0.40389 0.86025 0.09364 0.0
C818 C 0.38727 0.93447 0.13786 0.0
O819 O 0.37612 0.91077 0.1693 0.0
O820 O 0.4099 0.91946 0.1072 0.0
C821 C 0.34616 0.87257 0.26416 0.0
O822 O 0.31906 0.88298 0.23363 0.0
C823 C 0.41257 0.88993 0.00456 0.0
C824 C 0.36528 0.84894 0.97385 0.0
C825 C 0.38828 0.88592 0.96753 0.0
N826 N 0.40293 0.85777 0.03211 0.0
N827 N 0.37503 0.83314 0.01314 0.0
C828 C 0.44218 0.92533 0.01473 0.0
H829 H 0.46147 0.91729 0.04365 0.0
H830 H 0.46439 0.93116 0.9872 0.0
H831 H 0.42295 0.95525 0.02025 0.0
C832 C 0.46718 0.79032 0.18078 0.0
N833 N 0.43943 0.82098 0.16609 0.0
N834 N 0.44569 0.82581 0.12424 0.0
C835 C 0.47978 0.80132 0.11161 0.0
C836 C 0.49453 0.77663 0.14678 0.0
C837 C 0.46232 0.77003 0.22443 0.0
H838 H 0.4286 0.77384 0.23617 0.0
H839 H 0.48297 0.78641 0.24764 0.0
H840 H 0.47161 0.73548 0.22346 0.0
O841 O 0.34105 0.81923 0.17577 0.0
O842 O 0.34286 0.84769 0.11032 0.0
H843 H 0.47952 0.78621 0.04433 0.0
H844 H 0.53282 0.79231 0.06652 0.0
C845 C 0.49903 0.80444 0.06721 0.0
H846 H 0.49786 0.83837 0.0562 0.0
H847 H 0.35996 0.80753 0.02833 0.0
O848 O 0.38315 0.85639 0.2543 0.0
C849 C 0.32257 0.83002 0.14127 0.0
Co850 Co 0.8896 0.35355 0.69126 0.0
Co851 Co 0.90386 0.36216 0.59405 0.0
C852 C 0.88692 0.43684 0.63752 0.0
O853 O 0.87581 0.41329 0.66911 0.0
O854 O 0.90959 0.42162 0.60699 0.0
C855 C 0.84534 0.37581 0.76392 0.0
O856 O 0.81834 0.38586 0.73321 0.0
C857 C 0.91118 0.39107 0.50463 0.0
C858 C 0.86461 0.34866 0.47479 0.0
C859 C 0.88663 0.38617 0.4679 0.0
N860 N 0.90258 0.35893 0.53257 0.0
N861 N 0.87509 0.33346 0.51412 0.0
C862 C 0.94004 0.42727 0.51418 0.0
H863 H 0.92014 0.45667 0.52009 0.0
H864 H 0.96009 0.41972 0.5427 0.0
H865 H 0.96157 0.43372 0.48625 0.0
C866 C 0.96682 0.29248 0.6817 0.0
N867 N 0.93935 0.32333 0.66682 0.0
N868 N 0.94569 0.32789 0.62495 0.0
C869 C 0.97956 0.30297 0.61249 0.0
C870 C 0.99408 0.27836 0.64782 0.0
C871 C 0.96158 0.27212 0.72526 0.0
H872 H 0.92793 0.27645 0.73703 0.0
H873 H 0.98257 0.28796 0.74851 0.0
H874 H 0.97037 0.23744 0.72418 0.0
O875 O 0.84112 0.32136 0.67639 0.0
O876 O 0.84295 0.34956 0.61088 0.0
H877 H 0.9789 0.28695 0.54544 0.0
H878 H 0.03235 0.29295 0.5673 0.0
C879 C 0.99865 0.30536 0.56797 0.0
H880 H 0.99768 0.33915 0.55649 0.0
H881 H 0.86078 0.30764 0.52971 0.0
O882 O 0.88244 0.35963 0.75441 0.0
C883 C 0.82268 0.33191 0.64183 0.0
Co884 Co 0.43242 0.13207 0.42619 0.0
Co885 Co 0.40182 0.16649 0.3411 0.0
C886 C 0.3384 0.15824 0.39836 0.0
O887 O 0.36792 0.13913 0.41981 0.0
O888 O 0.34832 0.18457 0.3687 0.0
C889 C 0.4155 0.09662 0.5058 0.0
O890 O 0.38565 0.07861 0.48313 0.0
C891 C 0.36596 0.17315 0.2568 0.0
C892 C 0.4231 0.15412 0.21757 0.0
C893 C 0.37897 0.16004 0.2164 0.0
N894 N 0.4009 0.17365 0.28162 0.0
N895 N 0.43505 0.16306 0.2579 0.0
C896 C 0.32083 0.17741 0.27328 0.0
H897 H 0.31378 0.14903 0.29363 0.0
H898 H 0.31732 0.20656 0.29342 0.0
H899 H 0.29752 0.1793 0.24651 0.0
C900 C 0.50169 0.1986 0.40945 0.0
N901 N 0.46565 0.17722 0.40045 0.0
N902 N 0.44957 0.19307 0.36472 0.0
C903 C 0.47281 0.22633 0.35093 0.0
C904 C 0.50772 0.23091 0.37814 0.0
C905 C 0.53085 0.18608 0.44562 0.0
H906 H 0.53001 0.15093 0.45119 0.0
H907 H 0.51927 0.20188 0.47572 0.0
H908 H 0.56428 0.19564 0.43849 0.0
O909 O 0.44226 0.07689 0.39836 0.0
O910 O 0.40037 0.10292 0.34745 0.0
H911 H 0.46946 0.24277 0.28383 0.0
H912 H 0.47074 0.28843 0.31953 0.0
C913 C 0.45825 0.25577 0.31536 0.0
H914 H 0.42262 0.25754 0.31476 0.0
H915 H 0.46587 0.1583 0.27016 0.0
O916 O 0.44152 0.12208 0.4875 0.0
C917 C 0.41576 0.07107 0.36839 0.0
Co918 Co 0.62186 0.652 0.18853 0.0
Co919 Co 0.59708 0.63782 0.09679 0.0
C920 C 0.59219 0.56693 0.14673 0.0
O921 O 0.61047 0.5891 0.17541 0.0
O922 O 0.57513 0.5843 0.11396 0.0
C923 C 0.65699 0.62932 0.26703 0.0
O924 O 0.67474 0.59872 0.24344 0.0
C925 C 0.59678 0.611 0.00949 0.0
C926 C 0.64116 0.65911 0.98333 0.0
C927 C 0.62464 0.6192 0.97552 0.0
N928 N 0.59845 0.64389 0.03718 0.0
N929 N 0.62416 0.67298 0.02085 0.0
C930 C 0.57323 0.5706 0.0183 0.0
H931 H 0.54488 0.57734 0.03947 0.0
H932 H 0.56208 0.55602 0.98809 0.0
H933 H 0.59506 0.54714 0.03458 0.0
C934 C 0.55727 0.72762 0.17847 0.0
N935 N 0.5803 0.69274 0.16478 0.0
N936 N 0.56876 0.6841 0.12534 0.0
C937 C 0.53627 0.71073 0.1135 0.0
C938 C 0.52786 0.74052 0.1464 0.0
C939 C 0.56566 0.74938 0.22022 0.0
H940 H 0.60033 0.74624 0.2278 0.0
H941 H 0.54759 0.73334 0.24658 0.0
H942 H 0.55591 0.7838 0.21873 0.0
O943 O 0.67977 0.66046 0.16605 0.0
O944 O 0.65922 0.62845 0.10735 0.0
H945 H 0.52608 0.71815 0.04566 0.0
H946 H 0.47703 0.71564 0.07796 0.0
C947 C 0.51044 0.70295 0.07405 0.0
H948 H 0.50981 0.66802 0.06757 0.0
H949 H 0.63386 0.6999 0.03758 0.0
O950 O 0.63014 0.65606 0.25057 0.0
C951 C 0.6887 0.63889 0.13263 0.0
Co952 Co 0.12456 0.85241 0.81659 0.0
Co953 Co 0.12315 0.86126 0.91172 0.0
C954 C 0.10702 0.93437 0.87149 0.0
O955 O 0.1218 0.91367 0.83896 0.0
O956 O 0.09113 0.9143 0.90314 0.0
C957 C 0.14102 0.88514 0.73589 0.0
O958 O 0.16425 0.91018 0.75951 0.0
C959 C 0.13394 0.88481 0.00104 0.0
C960 C 0.17416 0.83044 0.02466 0.0
C961 C 0.15747 0.87048 0.03593 0.0
N962 N 0.13702 0.8548 0.97015 0.0
N963 N 0.16124 0.82246 0.98435 0.0
C964 C 0.11284 0.92811 0.99535 0.0
H965 H 0.12997 0.9456 0.96939 0.0
H966 H 0.07901 0.92445 0.98556 0.0
H967 H 0.11377 0.94765 0.02503 0.0
C968 C 0.0636 0.78052 0.83712 0.0
N969 N 0.08967 0.81254 0.84761 0.0
N970 N 0.08977 0.81636 0.88976 0.0
C971 C 0.06143 0.78919 0.90752 0.0
C972 C 0.04368 0.7648 0.8748 0.0
C973 C 0.0611 0.76354 0.79219 0.0
H974 H 0.09345 0.76366 0.77672 0.0
H975 H 0.03997 0.78508 0.77273 0.0
H976 H 0.04882 0.73049 0.79212 0.0
O977 O 0.18394 0.83444 0.82253 0.0
O978 O 0.18107 0.87044 0.88318 0.0
H979 H 0.06909 0.76965 0.97325 0.0
H980 H 0.01404 0.78148 0.95832 0.0
C981 C 0.04782 0.79125 0.95399 0.0
H982 H 0.05128 0.82428 0.96634 0.0
H983 H 0.17013 0.7957 0.96595 0.0
O984 O 0.11803 0.85663 0.75391 0.0
C985 C 0.20218 0.85647 0.85056 0.0
Co986 Co 0.92205 0.91255 0.64307 0.0
Co987 Co 0.82492 0.9062 0.64417 0.0
C988 C 0.88273 0.82816 0.6399 0.0
O989 O 0.91577 0.84829 0.65152 0.0
O990 O 0.84711 0.84771 0.63524 0.0
C991 C 1.00123 0.90018 0.6092 0.0
O992 O 0.97835 0.87225 0.58868 0.0
C993 C 0.74312 0.86617 0.64058 0.0
C994 C 0.71023 0.91545 0.60085 0.0
C995 C 0.70812 0.8732 0.61419 0.0
N996 N 0.76535 0.90266 0.64186 0.0
N997 N 0.74497 0.93211 0.61858 0.0
C998 C 0.75829 0.82397 0.65876 0.0
H999 H 0.77572 0.80565 0.63312 0.0
H1000 H 0.78013 0.8289 0.68622 0.0
H1001 H 0.73085 0.80445 0.66937 0.0
C1002 C 0.89821 0.98334 0.70673 0.0
N1003 N 0.88924 0.94826 0.68353 0.0
N1004 N 0.84871 0.93923 0.68974 0.0
C1005 C 0.8313 0.96606 0.71967 0.0
C1006 C 0.86194 0.99609 0.73183 0.0
C1007 C 0.93817 0.00785 0.69841 0.0
H1008 H 0.9483 0.00431 0.66408 0.0
H1009 H 0.96462 0.99422 0.71827 0.0
H1010 H 0.93299 0.0424 0.70551 0.0
O1011 O 0.90478 0.92001 0.58362 0.0
O1012 O 0.83642 0.93623 0.59038 0.0
H1013 H 0.76344 0.97835 0.71753 0.0
H1014 H 0.78479 0.97098 0.77162 0.0
C1015 C 0.78702 0.96028 0.73758 0.0
H1016 H 0.77865 0.92595 0.73601 0.0
H1017 H 0.75686 0.96235 0.61151 0.0
O1018 O 0.98363 0.92321 0.6387 0.0
C1019 C 0.86866 0.92691 0.56685 0.0
Co1020 Co 0.87368 0.06623 0.38805 0.0
Co1021 Co 0.8877 0.16429 0.39355 0.0
C1022 C 0.86866 0.11934 0.31105 0.0
O1023 O 0.8583 0.08393 0.32824 0.0
O1024 O 0.88151 0.14984 0.33349 0.0
C1025 C 0.8895 0.98141 0.35924 0.0
O1026 O 0.90873 1.00217 0.32779 0.0
C1027 C 0.89449 0.25128 0.35842 0.0
C1028 C 0.92862 0.28242 0.41108 0.0
C1029 C 0.91623 0.28794 0.36849 0.0
N1030 N 0.89501 0.22479 0.39317 0.0
N1031 N 0.91537 0.24384 0.42454 0.0
C1032 C 0.87844 0.23961 0.31482 0.0
H1033 H 0.90331 0.21923 0.29854 0.0
H1034 H 0.84818 0.22185 0.31815 0.0
H1035 H 0.87284 0.26783 0.29372 0.0
C1036 C 0.81056 0.08963 0.46255 0.0
N1037 N 0.84006 0.09969 0.43174 0.0
N1038 N 0.84249 0.14173 0.42983 0.0
C1039 C 0.81264 0.15969 0.45682 0.0
C1040 C 0.79089 0.12743 0.47963 0.0
C1041 C 0.80517 0.04455 0.47799 0.0
H1042 H 0.83652 0.02684 0.47626 0.0
H1043 H 0.78304 0.02792 0.45634 0.0
H1044 H 0.79275 0.04376 0.51172 0.0
O1045 O 0.9365 0.0734 0.39115 0.0
O1046 O 0.94426 0.14101 0.40989 0.0
H1047 H 0.82328 0.22295 0.47979 0.0
H1048 H 0.76819 0.2133 0.46493 0.0
C1049 C 0.80245 0.20679 0.45651 0.0
H1050 H 0.80939 0.22044 0.42404 0.0
H1051 H 0.92232 0.22954 0.45428 0.0
O1052 O 0.86982 1.00238 0.38935 0.0
C1053 C 0.96001 0.10404 0.40166 0.0
Co1054 Co 0.55385 0.09559 0.13136 0.0
Co1055 Co 0.64546 0.1129 0.15666 0.0
C1056 C 0.5972 0.18268 0.14943 0.0
O1057 O 0.57168 0.15621 0.13365 0.0
O1058 O 0.6271 0.16957 0.17361 0.0
C1059 C 0.47885 0.13243 0.09605 0.0
O1060 O 0.50709 0.15784 0.07839 0.0
C1061 C 0.73349 0.13808 0.16647 0.0
C1062 C 0.76518 0.08562 0.12941 0.0
C1063 C 0.77161 0.12579 0.1464 0.0
N1064 N 0.70518 0.10696 0.16018 0.0
N1065 N 0.72464 0.0753 0.13897 0.0
C1066 C 0.72222 0.18109 0.18492 0.0
H1067 H 0.70747 0.20141 0.1593 0.0
H1068 H 0.69885 0.17762 0.21199 0.0
H1069 H 0.75097 0.19731 0.19674 0.0
C1070 C 0.56828 0.02317 0.20061 0.0
N1071 N 0.57841 0.05859 0.17719 0.0
N1072 N 0.61667 0.07023 0.18899 0.0
C1073 C 0.6304 0.04596 0.22237 0.0
C1074 C 0.60107 0.01364 0.23093 0.0
C1075 C 0.53064 0.99658 0.19009 0.0
H1076 H 0.52298 1.0001 0.1553 0.0
H1077 H 0.50205 0.00824 0.2087 0.0
H1078 H 0.53734 0.9623 0.19776 0.0
O1079 O 0.57674 0.08045 0.07535 0.0
O1080 O 0.6374 0.11137 0.09194 0.0
H1081 H 0.69823 0.04532 0.23281 0.0
H1082 H 0.66565 0.04579 0.28207 0.0
C1083 C 0.66832 0.05796 0.24844 0.0
H1084 H 0.67063 0.0934 0.24906 0.0
H1085 H 0.7091 0.04849 0.12755 0.0
O1086 O 0.49096 0.10227 0.12194 0.0
C1087 C 0.61156 0.09764 0.06408 0.0
Co1088 Co 0.63781 0.93798 0.91197 0.0
Co1089 Co 0.64856 0.84265 0.89388 0.0
C1090 C 0.6419 0.89213 0.8232 0.0
O1091 O 0.62928 0.92107 0.8495 0.0
O1092 O 0.66419 0.86044 0.83636 0.0
C1093 C 0.60218 0.01738 0.88898 0.0
O1094 O 0.57962 0.99201 0.86507 0.0
C1095 C 0.64707 0.75488 0.86019 0.0
C1096 C 0.60648 0.725 0.91025 0.0
C1097 C 0.62419 0.71831 0.86949 0.0
N1098 N 0.6424 0.78213 0.89374 0.0
N1099 N 0.61818 0.76383 0.92354 0.0
C1100 C 0.66797 0.76603 0.81799 0.0
H1101 H 0.64557 0.78721 0.79965 0.0
H1102 H 0.69795 0.78346 0.82364 0.0
H1103 H 0.6751 0.73733 0.79807 0.0
C1104 C 0.71027 0.91612 0.97551 0.0
N1105 N 0.68311 0.90673 0.94333 0.0
N1106 N 0.68777 0.86567 0.93453 0.0
C1107 C 0.72029 0.84848 0.9579 0.0
C1108 C 0.73592 0.87956 0.98588 0.0
C1109 C 0.70681 0.95756 -0.00055 0.0
H1110 H 0.67301 0.96977 -0.00049 0.0
H1111 H 0.72636 0.98185 0.98256 0.0
H1112 H 0.7177 0.9535 0.03323 0.0
O1113 O 0.58468 0.92411 0.93853 0.0
O1114 O 0.58724 0.86348 0.9023 0.0
H1115 H 0.71961 0.78078 0.96882 0.0
H1116 H 0.77263 0.80173 0.95827 0.0
C1117 C 0.73819 0.80429 0.94973 0.0
H1118 H 0.73453 0.7961 0.91514 0.0
H1119 H 0.60753 0.77891 0.95184 0.0
O1120 O 0.63272 1.00171 0.91216 0.0
C1121 C 0.56607 0.89326 0.92151 0.0
Co1122 Co 0.80076 0.12834 0.84308 0.0
Co1123 Co 0.89874 0.12301 0.85087 0.0
C1124 C 0.85369 0.11659 0.92554 0.0
O1125 O 0.82183 0.12921 0.90342 0.0
O1126 O 0.88694 0.10104 0.90743 0.0
C1127 C 0.72171 0.15058 0.88028 0.0
O1128 O 0.74666 0.17338 0.90442 0.0
C1129 C 0.98869 0.1267 0.87792 0.0
C1130 C 0.01716 0.16316 0.82387 0.0
C1131 C 0.02546 0.14773 0.86508 0.0
N1132 N 0.9596 0.13029 0.84604 0.0
N1133 N 0.97704 0.15203 0.81382 0.0
C1134 C 0.97939 0.10838 0.92177 0.0
H1135 H 0.95583 0.12985 0.93862 0.0
H1136 H 0.96532 0.07629 0.91848 0.0
H1137 H 0.00827 0.10564 0.94209 0.0
C1138 C 0.82118 0.05932 0.77468 0.0
N1139 N 0.83203 0.088 0.80504 0.0
N1140 N 0.87371 0.08472 0.81081 0.0
C1141 C 0.88995 0.05106 0.78833 0.0
C1142 C 0.85759 0.03357 0.76308 0.0
C1143 C 0.77802 0.06088 0.75413 0.0
H1144 H 0.76433 0.09408 0.75532 0.0
H1145 H 0.75571 0.04033 0.7726 0.0
H1146 H 0.78037 0.05045 0.72001 0.0
O1147 O 0.80787 0.18636 0.82528 0.0
O1148 O 0.87465 0.18424 0.84893 0.0
H1149 H 0.95802 0.04963 0.77774 0.0
H1150 H 0.93557 0.99765 0.79031 0.0
C1151 C 0.93374 0.03246 0.79729 0.0
H1152 H 0.94165 0.03748 0.83172 0.0
H1153 H 0.96075 0.16126 0.78589 0.0
O1154 O 0.73792 0.12609 0.85083 0.0
C1155 C 0.84072 0.20514 0.83801 0.0
Co1156 Co 0.66958 0.18243 0.60947 0.0
Co1157 Co 0.64375 0.09745 0.57916 0.0
C1158 C 0.57814 0.15302 0.5793 0.0
O1159 O 0.60467 0.1759 0.59943 0.0
O1160 O 0.59111 0.12101 0.55725 0.0
C1161 C 0.6491 0.25748 0.65017 0.0
O1162 O 0.61966 0.23233 0.66611 0.0
C1163 C 0.61133 0.01244 0.5754 0.0
C1164 C 0.64961 0.9866 0.62968 0.0
C1165 C 0.61352 0.97949 0.60552 0.0
N1166 N 0.64435 0.03831 0.58245 0.0
N1167 N 0.66758 0.02208 0.61421 0.0
C1168 C 0.57569 0.0224 0.54473 0.0
H1169 H 0.58576 0.0466 0.52049 0.0
H1170 H 0.56617 0.99302 0.52779 0.0
H1171 H 0.54732 0.03507 0.56312 0.0
C1172 C 0.74519 0.16411 0.54405 0.0
N1173 N 0.70783 0.15599 0.56544 0.0
N1174 N 0.69353 0.11969 0.55122 0.0
C1175 C 0.71881 0.10508 0.51848 0.0
C1176 C 0.75387 0.13208 0.51251 0.0
C1177 C 0.77363 0.19956 0.55693 0.0
H1178 H 0.76997 0.20554 0.59211 0.0
H1179 H 0.76361 0.22953 0.54 0.0
H1180 H 0.80774 0.19153 0.54912 0.0
O1181 O 0.67764 0.15712 0.66687 0.0
O1182 O 0.63511 0.10888 0.64206 0.0
H1183 H 0.71686 0.03804 0.50505 0.0
H1184 H 0.71896 0.07224 0.4573 0.0
C1185 C 0.70573 0.06889 0.49055 0.0
H1186 H 0.67015 0.06813 0.48923 0.0
H1187 H 0.69293 0.03775 0.62842 0.0
O1188 O 0.67585 0.24354 0.62158 0.0
C1189 C 0.64905 0.12982 0.67352 0.0
Co1190 Co 0.66743 0.89326 0.3515 0.0
Co1191 Co 0.56995 0.88148 0.34964 0.0
C1192 C 0.61867 0.89295 0.43214 0.0
O1193 O 0.65304 0.90552 0.41375 0.0
O1194 O 0.58704 0.88166 0.41023 0.0
C1195 C 0.74881 0.86139 0.36828 0.0
O1196 O 0.72578 0.84296 0.39862 0.0
C1197 C 0.48427 0.87795 0.38619 0.0
C1198 C 0.45201 0.84377 0.33409 0.0
C1199 C 0.44745 0.85641 0.37679 0.0
N1200 N 0.51012 0.87686 0.35097 0.0
N1201 N 0.49053 0.8566 0.31991 0.0
C1202 C 0.49677 0.89421 0.42953 0.0
H1203 H 0.51475 0.86836 0.44679 0.0
H1204 H 0.51735 0.9225 0.42571 0.0
H1205 H 0.46852 0.90286 0.44998 0.0
C1206 C 0.64358 0.95685 0.27914 0.0
N1207 N 0.63388 0.92868 0.31096 0.0
N1208 N 0.59188 0.92769 0.31517 0.0
C1209 C 0.57359 0.95754 0.28886 0.0
C1210 C 0.60561 0.97751 0.26408 0.0
C1211 C 0.68789 0.95887 0.26012 0.0
H1212 H 0.70355 0.92651 0.26105 0.0
H1213 H 0.70762 0.98002 0.28001 0.0
H1214 H 0.68716 0.97046 0.22619 0.0
O1215 O 0.65601 0.83297 0.34619 0.0
O1216 O 0.58888 0.82569 0.32693 0.0
H1217 H 0.50917 0.94817 0.26862 0.0
H1218 H 0.52077 1.00307 0.28253 0.0
C1219 C 0.52668 0.96887 0.29101 0.0
H1220 H 0.51395 0.96279 0.32408 0.0
H1221 H 0.50453 0.84939 0.28994 0.0
O1222 O 0.73105 0.88947 0.34351 0.0
C1223 C 0.62576 0.80988 0.33467 0.0
Co1224 Co 0.85224 0.81818 0.11278 0.0
Co1225 Co 0.86835 0.91254 0.09929 0.0
C1226 C 0.93976 0.86404 0.10356 0.0
O1227 O 0.91363 0.836 0.11628 0.0
O1228 O 0.9263 0.89611 0.08227 0.0
C1229 C 0.88477 0.73894 0.1367 0.0
O1230 O 0.907 0.76416 0.16111 0.0
C1231 C 0.89789 0.9995 0.10293 0.0
C1232 C 0.84762 0.02588 0.14688 0.0
C1233 C 0.88806 0.0336 0.12994 0.0
N1234 N 0.8651 0.97218 0.10504 0.0
N1235 N 0.83499 0.98851 0.13091 0.0
C1236 C 0.9399 0.99034 0.0804 0.0
H1237 H 0.96049 0.97024 0.10183 0.0
H1238 H 0.9346 0.97267 0.05004 0.0
H1239 H 0.95718 0.02014 0.07307 0.0
C1240 C 0.7829 0.83908 0.04515 0.0
N1241 N 0.81698 0.84855 0.06978 0.0
N1242 N 0.82639 0.88878 0.06271 0.0
C1243 C 0.80115 0.90532 0.03134 0.0
C1244 C 0.77148 0.87475 0.01892 0.0
C1245 C 0.75891 0.79856 0.05124 0.0
H1246 H 0.76146 0.78742 0.08526 0.0
H1247 H 0.77371 0.77312 0.03064 0.0
H1248 H 0.72456 0.80339 0.043 0.0
O1249 O 0.83318 0.8315 0.17059 0.0
O1250 O 0.86093 0.89558 0.16185 0.0
H1251 H 0.79197 0.97346 0.031 0.0
H1252 H 0.7975 0.94977 0.97768 0.0
C1253 C 0.80878 0.94833 0.0115 0.0
H1254 H 0.84358 0.95513 0.01208 0.0
H1255 H 0.80748 0.97242 0.14053 0.0
O1256 O 0.85655 0.75492 0.11115 0.0
C1257 C 0.84665 0.86599 0.18611 0.0
Co1258 Co 0.16761 0.68196 0.10673 0.0
Co1259 Co 0.14108 0.59921 0.07034 0.0
C1260 C 0.07546 0.65461 0.07741 0.0
O1261 O 0.10252 0.67574 0.09869 0.0
O1262 O 0.08794 0.62511 0.05184 0.0
C1263 C 0.14815 0.75453 0.15268 0.0
O1264 O 0.11829 0.72908 0.16719 0.0
C1265 C 0.10612 0.51571 0.06689 0.0
C1266 C 0.15274 0.48598 0.11178 0.0
C1267 C 0.11236 0.48136 0.09483 0.0
N1268 N 0.14121 0.53997 0.06838 0.0
N1269 N 0.16936 0.52126 0.09429 0.0
C1270 C 0.06502 0.52932 0.04578 0.0
H1271 H 0.07166 0.55049 0.01768 0.0
H1272 H 0.0471 0.50119 0.03499 0.0
H1273 H 0.04454 0.54728 0.06945 0.0
C1274 C 0.24229 0.66844 0.03998 0.0
N1275 N 0.20473 0.65902 0.06032 0.0
N1276 N 0.19068 0.62352 0.0439 0.0
C1277 C 0.21671 0.61058 0.01107 0.0
C1278 C 0.25168 0.63794 0.00731 0.0
C1279 C 0.27023 0.70359 0.05464 0.0
H1280 H 0.26567 0.70866 0.08988 0.0
H1281 H 0.26059 0.73391 0.03812 0.0
H1282 H 0.30454 0.69594 0.04736 0.0
O1283 O 0.17785 0.65199 0.16103 0.0
O1284 O 0.13468 0.60536 0.13413 0.0
H1285 H 0.21492 0.5439 0.99595 0.0
H1286 H 0.22021 0.57899 0.94917 0.0
C1287 C 0.20498 0.57516 0.9815 0.0
H1288 H 0.16955 0.57486 0.97806 0.0
H1289 H 0.19751 0.53542 0.10427 0.0
O1290 O 0.17443 0.74187 0.12312 0.0
C1291 C 0.14968 0.62405 0.16654 0.0
Co1292 Co 0.17191 0.39688 0.85489 0.0
Co1293 Co 0.07445 0.38316 0.84738 0.0
C1294 C 0.11814 0.39554 0.93189 0.0
O1295 O 0.15278 0.40977 0.91563 0.0
O1296 O 0.08861 0.38271 0.9082 0.0
C1297 C 0.25437 0.37129 0.88383 0.0
O1298 O 0.23032 0.35526 0.91478 0.0
C1299 C 0.98748 0.38156 0.88187 0.0
C1300 C 0.95607 0.34468 0.8312 0.0
C1301 C 0.95062 0.35981 0.87298 0.0
N1302 N 0.01423 0.3782 0.84738 0.0
N1303 N 0.99509 0.35635 0.81714 0.0
C1304 C 0.99918 0.40008 0.92448 0.0
H1305 H 0.01553 0.3747 0.94384 0.0
H1306 H 0.0208 0.42744 0.91965 0.0
H1307 H 0.97071 0.41073 0.94357 0.0
C1308 C 0.1493 0.45913 0.77901 0.0
N1309 N 0.13948 0.43162 0.81157 0.0
N1310 N 0.09739 0.43003 0.81458 0.0
C1311 C 0.07918 0.45894 0.78724 0.0
C1312 C 0.11122 0.4788 0.76236 0.0
C1313 C 0.19388 0.46102 0.76064 0.0
H1314 H 0.21023 0.42913 0.76386 0.0
H1315 H 0.21276 0.48384 0.77945 0.0
H1316 H 0.19347 0.47045 0.72605 0.0
O1317 O 0.1618 0.33593 0.84924 0.0
O1318 O 0.09607 0.32814 0.82519 0.0
H1319 H 0.01488 0.44847 0.76711 0.0
H1320 H 0.026 0.50387 0.77993 0.0
C1321 C 0.03217 0.46985 0.78898 0.0
H1322 H 0.01942 0.46437 0.82216 0.0
H1323 H 0.0097 0.34739 0.78795 0.0
O1324 O 0.23679 0.39433 0.85404 0.0
C1325 C 0.13251 0.31262 0.83544 0.0
Co1326 Co 0.35628 0.31978 0.59699 0.0
Co1327 Co 0.37557 0.4128 0.57926 0.0
C1328 C 0.44589 0.36338 0.58443 0.0
O1329 O 0.41865 0.33651 0.59786 0.0
O1330 O 0.43348 0.39532 0.562 0.0
C1331 C 0.38624 0.24236 0.62723 0.0
O1332 O 0.40823 0.26928 0.64996 0.0
C1333 C 0.40416 0.49877 0.59218 0.0
C1334 C 0.34873 0.5242 0.62993 0.0
C1335 C 0.39125 0.53169 0.61951 0.0
N1336 N 0.37108 0.47225 0.58778 0.0
N1337 N 0.33796 0.48793 0.61017 0.0
C1338 C 0.44863 0.48986 0.57521 0.0
H1339 H 0.46504 0.46688 0.59732 0.0
H1340 H 0.44727 0.4754 0.54264 0.0
H1341 H 0.46769 0.51933 0.57364 0.0
C1342 C 0.28685 0.33908 0.53103 0.0
N1343 N 0.32223 0.34861 0.55341 0.0
N1344 N 0.33228 0.38838 0.54468 0.0
C1345 C 0.3058 0.40455 0.51424 0.0
C1346 C 0.27505 0.37416 0.50451 0.0
C1347 C 0.26192 0.29964 0.54018 0.0
H1348 H 0.26584 0.28988 0.57449 0.0
H1349 H 0.27494 0.27293 0.52007 0.0
H1350 H 0.22732 0.30512 0.53344 0.0
O1351 O 0.33504 0.33662 0.65343 0.0
O1352 O 0.37219 0.39427 0.6405 0.0
H1353 H 0.29729 0.47274 0.51348 0.0
H1354 H 0.2991 0.44836 0.46034 0.0
C1355 C 0.31257 0.44721 0.49332 0.0
H1356 H 0.34744 0.45367 0.49157 0.0
H1357 H 0.3092 0.47202 0.61489 0.0
O1358 O 0.35902 0.25654 0.59967 0.0
C1359 C 0.35581 0.36794 0.66692 0.0
Co1360 Co 0.05511 0.59574 0.62883 0.0
Co1361 Co 0.14808 0.61178 0.64939 0.0
C1362 C 0.10001 0.68239 0.64666 0.0
O1363 O 0.07326 0.65634 0.6322 0.0
O1364 O 0.13212 0.6687 0.66748 0.0
C1365 C 0.97997 0.6336 0.5954 0.0
O1366 O 0.00855 0.65793 0.57672 0.0
C1367 C 0.23719 0.63348 0.66008 0.0
C1368 C 0.26598 0.58786 0.61293 0.0
C1369 C 0.27416 0.62418 0.63651 0.0
N1370 N 0.20778 0.60473 0.64942 0.0
N1371 N 0.22553 0.57699 0.62211 0.0
C1372 C 0.22843 0.67183 0.68781 0.0
H1373 H 0.22178 0.70007 0.66675 0.0
H1374 H 0.20055 0.66651 0.70961 0.0
H1375 H 0.25674 0.67876 0.70766 0.0
C1376 C 0.07243 0.5227 0.69786 0.0
N1377 N 0.08169 0.55776 0.67339 0.0
N1378 N 0.12043 0.56939 0.6835 0.0
C1379 C 0.13524 0.54583 0.717 0.0
C1380 C 0.10619 0.51368 0.72749 0.0
C1381 C 0.03466 0.49579 0.68866 0.0
H1382 H 0.02644 0.49853 0.65394 0.0
H1383 H 0.0063 0.50782 0.70737 0.0
H1384 H 0.04164 0.46168 0.69683 0.0
O1385 O 0.07464 0.582 0.57106 0.0
O1386 O 0.13653 0.6116 0.58499 0.0
H1387 H 0.20327 0.54526 0.72622 0.0
H1388 H 0.17141 0.54843 0.77595 0.0
C1389 C 0.17368 0.55884 0.74171 0.0
H1390 H 0.17622 0.59424 0.74056 0.0
H1391 H 0.20884 0.55297 0.60679 0.0
O1392 O 0.99186 0.60346 0.62149 0.0
C1393 C 0.10889 0.59924 0.55822 0.0
Co1394 Co 0.41912 0.40746 0.13684 0.0
Co1395 Co 0.32218 0.40398 0.1346 0.0
C1396 C 0.37873 0.32483 0.14118 0.0
O1397 O 0.41202 0.34502 0.15182 0.0
O1398 O 0.3438 0.34466 0.13336 0.0
C1399 C 0.49989 0.39422 0.10489 0.0
O1400 O 0.47844 0.36424 0.08575 0.0
C1401 C 0.239 0.36586 0.13422 0.0
C1402 C 0.20889 0.41166 0.08861 0.0
C1403 C 0.20462 0.37139 0.10667 0.0
N1404 N 0.26272 0.40136 0.13178 0.0
N1405 N 0.24399 0.4288 0.10499 0.0
C1406 C 0.25287 0.32503 0.15618 0.0
H1407 H 0.27146 0.30485 0.13284 0.0
H1408 H 0.27345 0.33193 0.18415 0.0
H1409 H 0.22488 0.30633 0.16685 0.0
C1410 C 0.39594 0.4821 0.19761 0.0
N1411 N 0.38619 0.44781 0.1734 0.0
N1412 N 0.34505 0.44088 0.17784 0.0
C1413 C 0.32793 0.46776 0.20798 0.0
C1414 C 0.35945 0.49619 0.22195 0.0
C1415 C 0.43761 0.50429 0.19166 0.0
H1416 H 0.44912 0.50068 0.15776 0.0
H1417 H 0.46234 0.48888 0.21246 0.0
H1418 H 0.43399 0.53892 0.19906 0.0
O1419 O 0.40314 0.40822 0.07611 0.0
O1420 O 0.33437 0.42556 0.07631 0.0
H1421 H 0.26035 0.48179 0.20613 0.0
H1422 H 0.2814 0.47178 0.25998 0.0
C1423 C 0.28345 0.46239 0.22553 0.0
H1424 H 0.27424 0.42841 0.22265 0.0
H1425 H 0.25722 0.45761 0.09486 0.0
O1426 O 0.48086 0.41836 0.13255 0.0
C1427 C 0.36899 0.41695 0.0562 0.0
Co1428 Co 0.62777 0.44232 0.11169 0.0
Co1429 Co 0.62386 0.34563 0.10419 0.0
C1430 C 0.63754 0.39077 0.18747 0.0
O1431 O 0.64805 0.42592 0.16998 0.0
O1432 O 0.62575 0.35972 0.16511 0.0
C1433 C 0.60123 0.52099 0.14491 0.0
O1434 O 0.58942 0.49614 0.17705 0.0
C1435 C 0.6245 0.25858 0.13581 0.0
C1436 C 0.59094 0.22803 0.0822 0.0
C1437 C 0.6029 0.22231 0.12483 0.0
N1438 N 0.62369 0.28556 0.10162 0.0
N1439 N 0.60421 0.26676 0.06951 0.0
C1440 C 0.63989 0.2697 0.17984 0.0
H1441 H 0.61348 0.28659 0.19768 0.0
H1442 H 0.66806 0.29064 0.17721 0.0
H1443 H 0.6487 0.24086 0.19901 0.0
C1444 C 0.68949 0.42749 0.03293 0.0
N1445 N 0.66333 0.41494 0.06586 0.0
N1446 N 0.66562 0.37291 0.0684 0.0
C1447 C 0.69507 0.35748 0.03983 0.0
C1448 C 0.71121 0.39129 0.01478 0.0
C1449 C 0.69021 0.47284 0.01716 0.0
H1450 H 0.65861 0.489 0.02356 0.0
H1451 H 0.71461 0.4905 0.03516 0.0
H1452 H 0.69767 0.47416 0.98205 0.0
O1453 O 0.56655 0.42704 0.11182 0.0
O1454 O 0.56592 0.36123 0.08653 0.0
H1455 H 0.68857 0.29176 0.0223 0.0
H1456 H 0.74384 0.30823 0.02802 0.0
C1457 C 0.71058 0.3117 0.04098 0.0
H1458 H 0.70984 0.2996 0.07477 0.0
H1459 H 0.59675 0.2818 0.04025 0.0
O1460 O 0.62178 0.50523 0.11238 0.0
C1461 C 0.54633 0.39488 0.0993 0.0
Co1462 Co 0.85352 0.70085 0.6026 0.0
Co1463 Co 0.8577 0.60259 0.59571 0.0
C1464 C 0.93453 0.64106 0.58592 0.0
O1465 O 0.91542 0.67576 0.59837 0.0
O1466 O 0.91382 0.60966 0.57244 0.0
C1467 C 0.88466 0.78179 0.63059 0.0
O1468 O 0.9136 0.75699 0.64943 0.0
C1469 C 0.87979 0.51275 0.60679 0.0
C1470 C 0.82384 0.48973 0.64392 0.0
C1471 C 0.86535 0.47859 0.63096 0.0
N1472 N 0.84863 0.54348 0.60621 0.0
N1473 N 0.81515 0.52938 0.62828 0.0
C1474 C 0.92483 0.51885 0.5909 0.0
H1475 H 0.93999 0.54258 0.61177 0.0
H1476 H 0.9245 0.53104 0.55718 0.0
H1477 H 0.9449 0.48912 0.59238 0.0
C1478 C 0.77996 0.68791 0.53822 0.0
N1479 N 0.81287 0.67448 0.5636 0.0
N1480 N 0.81652 0.63251 0.56079 0.0
C1481 C 0.78924 0.61829 0.53104 0.0
C1482 C 0.76363 0.65264 0.5158 0.0
C1483 C 0.7621 0.73283 0.53946 0.0
H1484 H 0.76611 0.74638 0.57217 0.0
H1485 H 0.7804 0.75305 0.51653 0.0
H1486 H 0.72758 0.73392 0.53105 0.0
O1487 O 0.83442 0.68836 0.66072 0.0
O1488 O 0.86554 0.62494 0.6542 0.0
H1489 H 0.77374 0.55198 0.53458 0.0
H1490 H 0.78179 0.57234 0.47996 0.0
C1491 C 0.79283 0.57365 0.51381 0.0
H1492 H 0.82675 0.5619 0.51516 0.0
H1493 H 0.7875 0.54786 0.63506 0.0
O1494 O 0.85689 0.76523 0.6058 0.0
C1495 C 0.85417 0.65667 0.6772 0.0
Co1496 Co 0.6981 0.37143 0.66577 0.0
Co1497 Co 0.60607 0.39085 0.64272 0.0
C1498 C 0.66142 0.3893 0.57558 0.0
O1499 O 0.6871 0.37242 0.60254 0.0
O1500 O 0.62869 0.41061 0.58838 0.0
C1501 C 0.77658 0.33749 0.64377 0.0
O1502 O 0.75249 0.3155 0.61801 0.0
C1503 C 0.52128 0.39068 0.6037 0.0
C1504 C 0.48802 0.35134 0.65245 0.0
C1505 C 0.4847 0.36706 0.61068 0.0
N1506 N 0.54549 0.3881 0.63956 0.0
N1507 N 0.52501 0.3649 0.66865 0.0
C1508 C 0.536 0.40933 0.56163 0.0
H1509 H 0.55871 0.38614 0.54595 0.0
H1510 H 0.55283 0.43963 0.56729 0.0
H1511 H 0.50896 0.41542 0.53935 0.0
C1512 C 0.68037 0.44211 0.73103 0.0
N1513 N 0.66915 0.41588 0.69875 0.0
N1514 N 0.62901 0.42437 0.6885 0.0
C1515 C 0.61415 0.45807 0.71192 0.0
C1516 C 0.64601 0.47062 0.74058 0.0
C1517 C 0.72191 0.43691 0.75436 0.0
H1518 H 0.73197 0.40253 0.75524 0.0
H1519 H 0.7472 0.45442 0.73655 0.0
H1520 H 0.71896 0.44923 0.78782 0.0
O1521 O 0.67994 0.31591 0.6833 0.0
O1522 O 0.62173 0.32786 0.64483 0.0
H1523 H 0.54604 0.46347 0.72026 0.0
H1524 H 0.57221 0.51434 0.71305 0.0
C1525 C 0.57208 0.48033 0.70289 0.0
H1526 H 0.56517 0.47866 0.66786 0.0
H1527 H 0.53794 0.35535 0.69822 0.0
O1528 O 0.75998 0.3661 0.6686 0.0
C1529 C 0.6487 0.30224 0.66241 0.0
Co1530 Co 0.37513 0.57277 0.88879 0.0
Co1531 Co 0.38757 0.67001 0.89013 0.0
C1532 C 0.3692 0.62102 0.80901 0.0
O1533 O 0.35951 0.58621 0.82796 0.0
O1534 O 0.38119 0.65303 0.83003 0.0
C1535 C 0.39745 0.48796 0.8714 0.0
O1536 O 0.41697 0.50651 0.83871 0.0
C1537 C 0.39593 0.75589 0.85368 0.0
C1538 C 0.42834 0.78743 0.90726 0.0
C1539 C 0.4177 0.7924 0.86412 0.0
N1540 N 0.39471 0.73007 0.88884 0.0
N1541 N 0.41406 0.74931 0.92073 0.0
C1542 C 0.38133 0.74361 0.80973 0.0
H1543 H 0.40593 0.72175 0.79501 0.0
H1544 H 0.35036 0.72695 0.81227 0.0
H1545 H 0.37763 0.7716 0.78786 0.0
C1546 C 0.31077 0.5965 0.96044 0.0
N1547 N 0.34094 0.60673 0.93051 0.0
N1548 N 0.34267 0.64872 0.92771 0.0
C1549 C 0.31187 0.66654 0.9538 0.0
C1550 C 0.29 0.63408 0.97621 0.0
C1551 C 0.30526 0.55149 0.97605 0.0
H1552 H 0.337 0.53449 0.97684 0.0
H1553 H 0.28516 0.53409 0.95303 0.0
H1554 H 0.29049 0.55078 0.00884 0.0
O1555 O 0.43737 0.58081 0.89047 0.0
O1556 O 0.44483 0.64871 0.90718 0.0
H1557 H 0.32121 0.72966 0.97762 0.0
H1558 H 0.26675 0.71968 0.96129 0.0
C1559 C 0.30123 0.71355 0.95354 0.0
H1560 H 0.30892 0.72752 0.92138 0.0
H1561 H 0.41969 0.73535 0.95092 0.0
O1562 O 0.3738 0.5103 0.89718 0.0
C1563 C 0.4608 0.61174 0.89966 0.0
Co1564 Co 0.13473 0.43562 0.40806 0.0
Co1565 Co 0.14428 0.33991 0.39019 0.0
C1566 C 0.13563 0.39001 0.31957 0.0
O1567 O 0.12478 0.41915 0.34627 0.0
O1568 O 0.15608 0.35678 0.33186 0.0
C1569 C 0.09879 0.51405 0.38484 0.0
O1570 O 0.07536 0.48807 0.36254 0.0
C1571 C 0.1443 0.25121 0.35892 0.0
C1572 C 0.10296 0.22239 0.40907 0.0
C1573 C 0.12161 0.21464 0.36891 0.0
N1574 N 0.13856 0.27942 0.39149 0.0
N1575 N 0.11391 0.26177 0.42134 0.0
C1576 C 0.1661 0.2614 0.3169 0.0
H1577 H 0.14366 0.28103 0.29697 0.0
H1578 H 0.19518 0.28022 0.32271 0.0
H1579 H 0.17488 0.23212 0.29845 0.0
C1580 C 0.21128 0.41498 0.46556 0.0
N1581 N 0.18173 0.40498 0.43599 0.0
N1582 N 0.18581 0.36384 0.42738 0.0
C1583 C 0.22011 0.34707 0.44821 0.0
C1584 C 0.23762 0.37864 0.4742 0.0
C1585 C 0.20975 0.45679 0.48892 0.0
H1586 H 0.17606 0.4692 0.49125 0.0
H1587 H 0.2282 0.48071 0.47025 0.0
H1588 H 0.22305 0.4532 0.52184 0.0
O1589 O 0.08329 0.42151 0.43773 0.0
O1590 O 0.08379 0.36091 0.40161 0.0
H1591 H 0.21976 0.27943 0.45955 0.0
H1592 H 0.27234 0.30012 0.44634 0.0
C1593 C 0.23751 0.30279 0.43946 0.0
H1594 H 0.23216 0.29447 0.40517 0.0
H1595 H 0.10252 0.27759 0.44896 0.0
O1596 O 0.12995 0.49906 0.40755 0.0
C1597 C 0.06374 0.39063 0.42195 0.0
Co1598 Co 0.29946 0.62523 0.3392 0.0
Co1599 Co 0.39712 0.61855 0.34706 0.0
C1600 C 0.35283 0.61251 0.42155 0.0
O1601 O 0.32114 0.62633 0.39978 0.0
O1602 O 0.38465 0.59469 0.40291 0.0
C1603 C 0.21933 0.64686 0.37592 0.0
O1604 O 0.24358 0.66929 0.40114 0.0
C1605 C 0.48705 0.62154 0.37537 0.0
C1606 C 0.51593 0.65915 0.32241 0.0
C1607 C 0.52389 0.643 0.36343 0.0
N1608 N 0.45825 0.62568 0.34321 0.0
N1609 N 0.47601 0.64803 0.31161 0.0
C1610 C 0.47731 0.60247 0.41875 0.0
H1611 H 0.4541 0.62404 0.43587 0.0
H1612 H 0.4627 0.57073 0.41478 0.0
H1613 H 0.5061 0.59882 0.43909 0.0
C1614 C 0.3196 0.55857 0.26758 0.0
N1615 N 0.33057 0.58565 0.29947 0.0
N1616 N 0.37218 0.58157 0.3053 0.0
C1617 C 0.3881 0.54862 0.28141 0.0
C1618 C 0.3557 0.53267 0.25493 0.0
C1619 C 0.27669 0.56204 0.24661 0.0
H1620 H 0.26379 0.59546 0.24905 0.0
H1621 H 0.25367 0.54136 0.26396 0.0
H1622 H 0.27917 0.55303 0.21208 0.0
O1623 O 0.30647 0.68368 0.32266 0.0
O1624 O 0.37304 0.68028 0.34691 0.0
H1625 H 0.45621 0.54567 0.27111 0.0
H1626 H 0.43232 0.49413 0.28284 0.0
C1627 C 0.4314 0.52886 0.29026 0.0
H1628 H 0.43931 0.53314 0.32481 0.0
H1629 H 0.46001 0.65777 0.28368 0.0
O1630 O 0.23642 0.62286 0.34653 0.0
C1631 C 0.33924 0.70183 0.33656 0.0
loop_
_geom_bond_atom_site_label_1
_geom_bond_atom_site_label_2
_geom_bond_distance
_geom_bond_site_symmetry_2
_ccdc_geom_bond_type
Co0 O3 1.970 . S
Co0 N17 1.989 . S
Co0 O25 1.967 . S
Co0 O32 1.942 . S
Co1 O4 1.966 . S
Co1 N10 2.022 . S
Co1 N18 1.993 . S
Co1 O26 1.941 . S
C2 O3 1.258 . S
C2 O4 1.263 . S
O3 Co0 1.970 . S
O3 C2 1.258 . S
O4 Co1 1.966 . S
O4 C2 1.263 . S
C5 O6 1.235 . S
C5 O32 1.277 1_556 S
O6 C5 1.235 . S
C7 C9 1.400 . S
C7 N10 1.351 . S
C7 C12 1.501 . S
C8 C9 1.387 . S
C8 N11 1.341 . S
C9 C7 1.400 . S
C9 C8 1.387 . S
N10 Co1 2.022 . S
N10 C7 1.351 . S
N10 N11 1.365 . S
N11 C8 1.341 . S
N11 N10 1.365 . S
N11 H31 0.862 . S
C12 C7 1.501 . S
C12 H13 0.961 . S
C12 H14 0.961 . S
C12 H15 0.960 . S
H13 C12 0.961 . S
H14 C12 0.961 . S
H15 C12 0.960 . S
C16 N17 1.342 . S
C16 C20 1.401 . S
C16 C21 1.499 . S
N17 Co0 1.989 . S
N17 C16 1.342 . S
N17 N18 1.388 . S
N18 Co1 1.993 . S
N18 N17 1.388 . S
N18 C19 1.346 . S
C19 N18 1.346 . S
C19 C20 1.396 . S
C19 C29 1.510 . S
C20 C16 1.401 . S
C20 C19 1.396 . S
C21 C16 1.499 . S
C21 H22 0.959 . S
C21 H23 0.960 . S
C21 H24 0.961 1_455 S
H22 C21 0.959 . S
H23 C21 0.960 . S
H24 C21 0.961 1_655 S
O25 Co0 1.967 . S
O25 C33 1.258 . S
O26 Co1 1.941 . S
O26 C33 1.266 . S
H27 C29 0.959 . S
H28 C29 0.961 . S
C29 C19 1.510 . S
C29 H27 0.959 . S
C29 H28 0.961 . S
C29 H30 0.960 . S
H30 C29 0.960 . S
H31 N11 0.862 . S
O32 Co0 1.942 . S
O32 C5 1.277 1_554 S
C33 O25 1.258 . S
C33 O26 1.266 . S
Co34 O37 1.970 . S
Co34 N51 1.989 . S
Co34 O59 1.967 . S
Co34 O66 1.920 . S
Co35 O38 1.966 . S
Co35 N44 2.022 . S
Co35 N52 1.993 . S
Co35 O60 1.941 . S
C36 O37 1.258 . S
C36 O38 1.263 . S
O37 Co34 1.970 . S
O37 C36 1.258 . S
O38 Co35 1.966 . S
O38 C36 1.263 . S
C39 O40 1.235 . S
C39 O66 1.289 . S
O40 C39 1.235 . S
C41 C43 1.400 . S
C41 N44 1.351 . S
C41 C46 1.501 . S
C42 C43 1.387 . S
C42 N45 1.341 . S
C43 C41 1.400 . S
C43 C42 1.387 . S
N44 Co35 2.022 . S
N44 C41 1.351 . S
N44 N45 1.365 . S
N45 C42 1.341 . S
N45 N44 1.365 . S
N45 H65 0.862 . S
C46 C41 1.501 . S
C46 H47 0.961 . S
C46 H48 0.961 . S
C46 H49 0.960 . S
H47 C46 0.961 . S
H48 C46 0.961 . S
H49 C46 0.960 . S
C50 N51 1.342 . S
C50 C54 1.401 . S
C50 C55 1.499 . S
N51 Co34 1.989 . S
N51 C50 1.342 . S
N51 N52 1.388 . S
N52 Co35 1.993 . S
N52 N51 1.388 . S
N52 C53 1.346 . S
C53 N52 1.346 . S
C53 C54 1.396 . S
C53 C63 1.510 . S
C54 C50 1.401 . S
C54 C53 1.396 . S
C55 C50 1.499 . S
C55 H56 0.959 . S
C55 H57 0.960 . S
C55 H58 0.961 . S
H56 C55 0.959 . S
H57 C55 0.960 . S
H58 C55 0.961 . S
O59 Co34 1.967 . S
O59 C67 1.258 . S
O60 Co35 1.941 . S
O60 C67 1.266 . S
H61 C63 0.959 . S
H62 C63 0.961 . S
C63 C53 1.510 . S
C63 H61 0.959 . S
C63 H62 0.961 . S
C63 H64 0.960 . S
H64 C63 0.960 . S
H65 N45 0.862 . S
O66 Co34 1.920 . S
O66 C39 1.289 . S
C67 O59 1.258 . S
C67 O60 1.266 . S
Co68 O71 1.970 . S
Co68 N85 1.989 . S
Co68 O93 1.967 . S
Co68 O100 1.920 . S
Co69 O72 1.966 . S
Co69 N78 2.022 . S
Co69 N86 1.993 . S
Co69 O94 1.941 . S
C70 O71 1.258 . S
C70 O72 1.263 . S
O71 Co68 1.970 . S
O71 C70 1.258 . S
O72 Co69 1.966 . S
O72 C70 1.263 . S
C73 O74 1.235 . S
C73 O100 1.289 . S
O74 C73 1.235 . S
C75 C77 1.400 . S
C75 N78 1.351 . S
C75 C80 1.501 . S
C76 C77 1.387 . S
C76 N79 1.341 . S
C77 C75 1.400 . S
C77 C76 1.387 . S
N78 Co69 2.022 . S
N78 C75 1.351 . S
N78 N79 1.365 . S
N79 C76 1.341 . S
N79 N78 1.365 . S
N79 H99 0.862 . S
C80 C75 1.501 . S
C80 H81 0.961 . S
C80 H82 0.961 . S
C80 H83 0.960 . S
H81 C80 0.961 . S
H82 C80 0.961 . S
H83 C80 0.960 . S
C84 N85 1.342 . S
C84 C88 1.401 . S
C84 C89 1.499 . S
N85 Co68 1.989 . S
N85 C84 1.342 . S
N85 N86 1.388 . S
N86 Co69 1.993 . S
N86 N85 1.388 . S
N86 C87 1.346 . S
C87 N86 1.346 . S
C87 C88 1.396 . S
C87 C97 1.510 . S
C88 C84 1.401 . S
C88 C87 1.396 . S
C89 C84 1.499 . S
C89 H90 0.959 . S
C89 H91 0.960 . S
C89 H92 0.961 . S
H90 C89 0.959 . S
H91 C89 0.960 . S
H92 C89 0.961 . S
O93 Co68 1.967 . S
O93 C101 1.258 . S
O94 Co69 1.941 . S
O94 C101 1.266 . S
H95 C97 0.959 . S
H96 C97 0.961 . S
C97 C87 1.510 . S
C97 H95 0.959 . S
C97 H96 0.961 . S
C97 H98 0.960 . S
H98 C97 0.960 . S
H99 N79 0.862 . S
O100 Co68 1.920 . S
O100 C73 1.289 . S
C101 O93 1.258 . S
C101 O94 1.266 . S
Co102 O105 1.970 . S
Co102 N119 1.989 . S
Co102 O127 1.967 . S
Co102 O134 1.920 . S
Co103 O106 1.966 . S
Co103 N112 2.022 . S
Co103 N120 1.993 . S
Co103 O128 1.941 . S
C104 O105 1.258 . S
C104 O106 1.263 . S
O105 Co102 1.970 . S
O105 C104 1.258 . S
O106 Co103 1.966 . S
O106 C104 1.263 . S
C107 O108 1.235 . S
C107 O134 1.289 1_554 S
O108 C107 1.235 . S
C109 C111 1.400 . S
C109 N112 1.351 . S
C109 C114 1.501 . S
C110 C111 1.387 . S
C110 N113 1.341 . S
C111 C109 1.400 . S
C111 C110 1.387 . S
N112 Co103 2.022 . S
N112 C109 1.351 . S
N112 N113 1.365 . S
N113 C110 1.341 . S
N113 N112 1.365 . S
N113 H133 0.862 . S
C114 C109 1.501 . S
C114 H115 0.961 . S
C114 H116 0.961 . S
C114 H117 0.960 . S
H115 C114 0.961 . S
H116 C114 0.961 . S
H117 C114 0.960 . S
C118 N119 1.342 . S
C118 C122 1.401 . S
C118 C123 1.499 . S
N119 Co102 1.989 . S
N119 C118 1.342 . S
N119 N120 1.388 . S
N120 Co103 1.993 . S
N120 N119 1.388 . S
N120 C121 1.346 . S
C121 N120 1.346 . S
C121 C122 1.396 . S
C121 C131 1.510 . S
C122 C118 1.401 . S
C122 C121 1.396 . S
C123 C118 1.499 . S
C123 H124 0.959 . S
C123 H125 0.960 . S
C123 H126 0.961 . S
H124 C123 0.959 . S
H125 C123 0.960 . S
H126 C123 0.961 . S
O127 Co102 1.967 . S
O127 C135 1.258 . S
O128 Co103 1.941 . S
O128 C135 1.266 . S
H129 C131 0.959 . S
H130 C131 0.961 . S
C131 C121 1.510 . S
C131 H129 0.959 . S
C131 H130 0.961 . S
C131 H132 0.960 . S
H132 C131 0.960 . S
H133 N113 0.862 . S
O134 Co102 1.920 . S
O134 C107 1.289 1_556 S
C135 O127 1.258 . S
C135 O128 1.266 . S
Co136 O139 1.970 . S
Co136 N153 1.989 . S
Co136 O161 1.967 . S
Co136 O168 1.920 . S
Co137 O140 1.966 . S
Co137 N146 2.022 . S
Co137 N154 1.993 . S
Co137 O162 1.941 . S
C138 O139 1.258 . S
C138 O140 1.263 . S
O139 Co136 1.970 . S
O139 C138 1.258 . S
O140 Co137 1.966 . S
O140 C138 1.263 . S
C141 O142 1.235 . S
C141 O168 1.289 . S
O142 C141 1.235 . S
C143 C145 1.400 . S
C143 N146 1.351 . S
C143 C148 1.501 . S
C144 C145 1.387 . S
C144 N147 1.341 . S
C145 C143 1.400 . S
C145 C144 1.387 . S
N146 Co137 2.022 . S
N146 C143 1.351 . S
N146 N147 1.365 . S
N147 C144 1.341 . S
N147 N146 1.365 . S
N147 H167 0.862 . S
C148 C143 1.501 . S
C148 H149 0.961 . S
C148 H150 0.961 . S
C148 H151 0.960 . S
H149 C148 0.961 . S
H150 C148 0.961 . S
H151 C148 0.960 . S
C152 N153 1.342 . S
C152 C156 1.401 . S
C152 C157 1.499 . S
N153 Co136 1.989 . S
N153 C152 1.342 . S
N153 N154 1.388 . S
N154 Co137 1.993 . S
N154 N153 1.388 . S
N154 C155 1.346 . S
C155 N154 1.346 . S
C155 C156 1.396 . S
C155 C165 1.510 . S
C156 C152 1.401 . S
C156 C155 1.396 . S
C157 C152 1.499 . S
C157 H158 0.959 . S
C157 H159 0.960 . S
C157 H160 0.961 . S
H158 C157 0.959 . S
H159 C157 0.960 . S
H160 C157 0.961 . S
O161 Co136 1.967 . S
O161 C169 1.258 . S
O162 Co137 1.941 . S
O162 C169 1.266 . S
H163 C165 0.959 . S
H164 C165 0.961 . S
C165 C155 1.510 . S
C165 H163 0.959 . S
C165 H164 0.961 . S
C165 H166 0.960 . S
H166 C165 0.960 . S
H167 N147 0.862 . S
O168 Co136 1.920 . S
O168 C141 1.289 . S
C169 O161 1.258 . S
C169 O162 1.266 . S
Co170 O173 1.970 . S
Co170 N187 1.989 . S
Co170 O195 1.967 . S
Co170 O202 1.920 . S
Co171 O174 1.966 . S
Co171 N180 2.022 . S
Co171 N188 1.993 . S
Co171 O196 1.941 . S
C172 O173 1.258 . S
C172 O174 1.263 . S
O173 Co170 1.970 . S
O173 C172 1.258 . S
O174 Co171 1.966 . S
O174 C172 1.263 . S
C175 O176 1.235 . S
C175 O202 1.289 . S
O176 C175 1.235 . S
C177 C179 1.400 . S
C177 N180 1.351 . S
C177 C182 1.501 . S
C178 C179 1.387 . S
C178 N181 1.341 . S
C179 C177 1.400 . S
C179 C178 1.387 . S
N180 Co171 2.022 . S
N180 C177 1.351 . S
N180 N181 1.365 . S
N181 C178 1.341 . S
N181 N180 1.365 . S
N181 H201 0.862 . S
C182 C177 1.501 . S
C182 H183 0.961 . S
C182 H184 0.961 . S
C182 H185 0.960 . S
H183 C182 0.961 . S
H184 C182 0.961 . S
H185 C182 0.960 . S
C186 N187 1.342 . S
C186 C190 1.401 . S
C186 C191 1.499 . S
N187 Co170 1.989 . S
N187 C186 1.342 . S
N187 N188 1.388 . S
N188 Co171 1.993 . S
N188 N187 1.388 . S
N188 C189 1.346 . S
C189 N188 1.346 . S
C189 C190 1.396 . S
C189 C199 1.510 . S
C190 C186 1.401 . S
C190 C189 1.396 . S
C191 C186 1.499 . S
C191 H192 0.959 . S
C191 H193 0.960 . S
C191 H194 0.961 . S
H192 C191 0.959 . S
H193 C191 0.960 . S
H194 C191 0.961 . S
O195 Co170 1.967 . S
O195 C203 1.258 . S
O196 Co171 1.941 . S
O196 C203 1.266 . S
H197 C199 0.959 . S
H198 C199 0.961 . S
C199 C189 1.510 . S
C199 H197 0.959 . S
C199 H198 0.961 . S
C199 H200 0.960 . S
H200 C199 0.960 . S
H201 N181 0.862 . S
O202 Co170 1.920 . S
O202 C175 1.289 . S
C203 O195 1.258 . S
C203 O196 1.266 . S
Co204 O207 1.970 . S
Co204 N221 1.989 . S
Co204 O229 1.967 . S
Co204 O236 1.938 . S
Co205 O208 1.966 . S
Co205 N214 2.022 . S
Co205 N222 1.993 . S
Co205 O230 1.941 . S
C206 O207 1.258 . S
C206 O208 1.263 . S
O207 Co204 1.970 . S
O207 C206 1.258 . S
O208 Co205 1.966 . S
O208 C206 1.263 . S
C209 O210 1.235 . S
C209 O236 1.279 1_554 S
O210 C209 1.235 . S
C211 C213 1.400 . S
C211 N214 1.351 . S
C211 C216 1.501 . S
C212 C213 1.387 . S
C212 N215 1.341 . S
C213 C211 1.400 . S
C213 C212 1.387 . S
N214 Co205 2.022 . S
N214 C211 1.351 . S
N214 N215 1.365 . S
N215 C212 1.341 . S
N215 N214 1.365 . S
N215 H235 0.862 . S
C216 C211 1.501 . S
C216 H217 0.961 . S
C216 H218 0.961 . S
C216 H219 0.960 . S
H217 C216 0.961 . S
H218 C216 0.961 . S
H219 C216 0.960 . S
C220 N221 1.342 . S
C220 C224 1.401 . S
C220 C225 1.499 . S
N221 Co204 1.989 . S
N221 C220 1.342 . S
N221 N222 1.388 . S
N222 Co205 1.993 . S
N222 N221 1.388 . S
N222 C223 1.346 . S
C223 N222 1.346 . S
C223 C224 1.396 . S
C223 C233 1.510 . S
C224 C220 1.401 . S
C224 C223 1.396 . S
C225 C220 1.499 . S
C225 H226 0.959 . S
C225 H227 0.960 . S
C225 H228 0.961 . S
H226 C225 0.959 . S
H227 C225 0.960 . S
H228 C225 0.961 . S
O229 Co204 1.967 . S
O229 C237 1.258 . S
O230 Co205 1.941 . S
O230 C237 1.266 . S
H231 C233 0.959 . S
H232 C233 0.961 . S
C233 C223 1.510 . S
C233 H231 0.959 . S
C233 H232 0.961 . S
C233 H234 0.960 . S
H234 C233 0.960 . S
H235 N215 0.862 . S
O236 Co204 1.938 . S
O236 C209 1.279 1_556 S
C237 O229 1.258 . S
C237 O230 1.266 . S
Co238 O241 1.970 . S
Co238 N255 1.989 . S
Co238 O263 1.967 . S
Co238 O270 1.920 . S
Co239 O242 1.966 . S
Co239 N248 2.022 . S
Co239 N256 1.993 . S
Co239 O264 1.941 . S
C240 O241 1.258 . S
C240 O242 1.263 . S
O241 Co238 1.970 . S
O241 C240 1.258 . S
O242 Co239 1.966 . S
O242 C240 1.263 . S
C243 O244 1.235 . S
C243 O270 1.289 . S
O244 C243 1.235 . S
C245 C247 1.400 . S
C245 N248 1.351 1_556 S
C245 C250 1.501 1_556 S
C246 C247 1.387 . S
C246 N249 1.341 . S
C247 C245 1.400 . S
C247 C246 1.387 . S
N248 Co239 2.022 . S
N248 C245 1.351 1_554 S
N248 N249 1.365 1_554 S
N249 C246 1.341 . S
N249 N248 1.365 1_556 S
N249 H269 0.862 1_556 S
C250 C245 1.501 1_554 S
C250 H251 0.961 . S
C250 H252 0.962 . S
C250 H253 0.960 1_554 S
H251 C250 0.961 . S
H252 C250 0.962 . S
H253 C250 0.960 1_556 S
C254 N255 1.342 . S
C254 C258 1.401 . S
C254 C259 1.499 . S
N255 Co238 1.989 . S
N255 C254 1.342 . S
N255 N256 1.388 . S
N256 Co239 1.993 . S
N256 N255 1.388 . S
N256 C257 1.346 . S
C257 N256 1.346 . S
C257 C258 1.396 . S
C257 C267 1.510 . S
C258 C254 1.401 . S
C258 C257 1.396 . S
C259 C254 1.499 . S
C259 H260 0.959 . S
C259 H261 0.960 . S
C259 H262 0.961 . S
H260 C259 0.959 . S
H261 C259 0.960 . S
H262 C259 0.961 . S
O263 Co238 1.967 . S
O263 C271 1.258 . S
O264 Co239 1.941 . S
O264 C271 1.266 . S
H265 C267 0.959 . S
H266 C267 0.961 . S
C267 C257 1.510 . S
C267 H265 0.959 . S
C267 H266 0.961 . S
C267 H268 0.960 . S
H268 C267 0.960 . S
H269 N249 0.862 1_554 S
O270 Co238 1.920 . S
O270 C243 1.289 . S
C271 O263 1.258 . S
C271 O264 1.266 . S
Co272 O275 1.970 . S
Co272 N289 1.989 . S
Co272 O297 1.967 . S
Co272 O304 1.920 1_455 S
Co273 O276 1.966 . S
Co273 N282 2.022 . S
Co273 N290 1.993 . S
Co273 O298 1.941 . S
C274 O275 1.258 . S
C274 O276 1.263 . S
O275 Co272 1.970 . S
O275 C274 1.258 . S
O276 Co273 1.966 . S
O276 C274 1.263 . S
C277 O278 1.235 . S
C277 O304 1.289 . S
O278 C277 1.235 . S
C279 C281 1.400 . S
C279 N282 1.351 . S
C279 C284 1.501 . S
C280 C281 1.387 . S
C280 N283 1.341 . S
C281 C279 1.400 . S
C281 C280 1.387 . S
N282 Co273 2.022 . S
N282 C279 1.351 . S
N282 N283 1.365 . S
N283 C280 1.341 . S
N283 N282 1.365 . S
N283 H303 0.862 . S
C284 C279 1.501 . S
C284 H285 0.961 . S
C284 H286 0.961 . S
C284 H287 0.960 . S
H285 C284 0.961 . S
H286 C284 0.961 . S
H287 C284 0.960 . S
C288 N289 1.342 . S
C288 C292 1.401 . S
C288 C293 1.499 . S
N289 Co272 1.989 . S
N289 C288 1.342 . S
N289 N290 1.388 . S
N290 Co273 1.993 . S
N290 N289 1.388 . S
N290 C291 1.346 . S
C291 N290 1.346 . S
C291 C292 1.396 . S
C291 C301 1.510 . S
C292 C288 1.401 . S
C292 C291 1.396 . S
C293 C288 1.499 . S
C293 H294 0.959 . S
C293 H295 0.960 . S
C293 H296 0.961 1_545 S
H294 C293 0.959 . S
H295 C293 0.960 . S
H296 C293 0.961 1_565 S
O297 Co272 1.967 . S
O297 C305 1.258 . S
O298 Co273 1.941 . S
O298 C305 1.266 . S
H299 C301 0.959 1_565 S
H300 C301 0.961 . S
C301 C291 1.510 . S
C301 H299 0.959 1_545 S
C301 H300 0.961 . S
C301 H302 0.960 . S
H302 C301 0.960 . S
H303 N283 0.862 . S
O304 Co272 1.920 1_655 S
O304 C277 1.289 . S
C305 O297 1.258 . S
C305 O298 1.266 . S
Co306 O309 1.970 . S
Co306 N323 1.989 . S
Co306 O331 1.967 . S
Co306 O338 1.947 . S
Co307 O310 1.966 . S
Co307 N316 2.022 . S
Co307 N324 1.993 . S
Co307 O332 1.941 . S
C308 O309 1.258 . S
C308 O310 1.263 . S
O309 Co306 1.970 . S
O309 C308 1.258 . S
O310 Co307 1.966 . S
O310 C308 1.263 . S
C311 O312 1.235 . S
C311 O338 1.274 1_545 S
O312 C311 1.235 . S
C313 C315 1.400 . S
C313 N316 1.351 . S
C313 C318 1.501 . S
C314 C315 1.387 . S
C314 N317 1.341 . S
C315 C313 1.400 . S
C315 C314 1.387 . S
N316 Co307 2.022 . S
N316 C313 1.351 . S
N316 N317 1.365 . S
N317 C314 1.341 . S
N317 N316 1.365 . S
N317 H337 0.862 . S
C318 C313 1.501 . S
C318 H319 0.961 . S
C318 H320 0.961 . S
C318 H321 0.960 . S
H319 C318 0.961 . S
H320 C318 0.961 . S
H321 C318 0.960 . S
C322 N323 1.342 . S
C322 C326 1.401 . S
C322 C327 1.499 . S
N323 Co306 1.989 . S
N323 C322 1.342 . S
N323 N324 1.388 . S
N324 Co307 1.993 . S
N324 N323 1.388 . S
N324 C325 1.346 . S
C325 N324 1.346 . S
C325 C326 1.396 . S
C325 C335 1.510 . S
C326 C322 1.401 . S
C326 C325 1.396 . S
C327 C322 1.499 . S
C327 H328 0.959 . S
C327 H329 0.960 . S
C327 H330 0.961 . S
H328 C327 0.959 . S
H329 C327 0.960 . S
H330 C327 0.961 . S
O331 Co306 1.967 . S
O331 C339 1.258 . S
O332 Co307 1.941 . S
O332 C339 1.266 . S
H333 C335 0.959 . S
H334 C335 0.961 . S
C335 C325 1.510 . S
C335 H333 0.959 . S
C335 H334 0.961 . S
C335 H336 0.960 . S
H336 C335 0.960 . S
H337 N317 0.862 . S
O338 Co306 1.947 . S
O338 C311 1.274 1_565 S
C339 O331 1.258 . S
C339 O332 1.266 . S
Co340 O343 1.970 . S
Co340 N357 1.989 . S
Co340 O365 1.967 . S
Co340 O372 1.920 . S
Co341 O344 1.966 . S
Co341 N350 2.022 . S
Co341 N358 1.993 . S
Co341 O366 1.941 . S
C342 O343 1.258 . S
C342 O344 1.263 . S
O343 Co340 1.970 . S
O343 C342 1.258 . S
O344 Co341 1.966 . S
O344 C342 1.263 . S
C345 O346 1.235 . S
C345 O372 1.289 . S
O346 C345 1.235 . S
C347 C349 1.400 . S
C347 N350 1.351 . S
C347 C352 1.501 . S
C348 C349 1.387 . S
C348 N351 1.341 . S
C349 C347 1.400 . S
C349 C348 1.387 . S
N350 Co341 2.022 . S
N350 C347 1.351 . S
N350 N351 1.365 . S
N351 C348 1.341 . S
N351 N350 1.365 . S
N351 H371 0.862 . S
C352 C347 1.501 . S
C352 H353 0.961 . S
C352 H354 0.961 . S
C352 H355 0.960 . S
H353 C352 0.961 . S
H354 C352 0.961 . S
H355 C352 0.960 . S
C356 N357 1.342 . S
C356 C360 1.401 . S
C356 C361 1.499 . S
N357 Co340 1.989 . S
N357 C356 1.342 . S
N357 N358 1.388 . S
N358 Co341 1.993 . S
N358 N357 1.388 . S
N358 C359 1.346 . S
C359 N358 1.346 . S
C359 C360 1.396 . S
C359 C369 1.510 . S
C360 C356 1.401 . S
C360 C359 1.396 . S
C361 C356 1.499 . S
C361 H362 0.959 . S
C361 H363 0.960 . S
C361 H364 0.962 1_565 S
H362 C361 0.959 . S
H363 C361 0.960 . S
H364 C361 0.962 1_545 S
O365 Co340 1.967 . S
O365 C373 1.258 . S
O366 Co341 1.941 . S
O366 C373 1.266 . S
H367 C369 0.959 . S
H368 C369 0.961 . S
C369 C359 1.510 . S
C369 H367 0.959 . S
C369 H368 0.961 . S
C369 H370 0.960 . S
H370 C369 0.960 . S
H371 N351 0.862 . S
O372 Co340 1.920 . S
O372 C345 1.289 . S
C373 O365 1.258 . S
C373 O366 1.266 . S
Co374 O377 1.970 . S
Co374 N391 1.989 . S
Co374 O399 1.967 . S
Co374 O406 1.920 . S
Co375 O378 1.966 . S
Co375 N384 2.022 . S
Co375 N392 1.993 . S
Co375 O400 1.941 . S
C376 O377 1.258 . S
C376 O378 1.263 . S
O377 Co374 1.970 . S
O377 C376 1.258 . S
O378 Co375 1.966 . S
O378 C376 1.263 . S
C379 O380 1.235 . S
C379 O406 1.289 . S
O380 C379 1.235 . S
C381 C383 1.400 1_545 S
C381 N384 1.351 . S
C381 C386 1.501 . S
C382 C383 1.387 . S
C382 N385 1.341 1_565 S
C383 C381 1.400 1_565 S
C383 C382 1.387 . S
N384 Co375 2.022 . S
N384 C381 1.351 . S
N384 N385 1.365 . S
N385 C382 1.341 1_545 S
N385 N384 1.365 . S
N385 H405 0.862 . S
C386 C381 1.501 . S
C386 H387 0.961 . S
C386 H388 0.961 . S
C386 H389 0.960 1_545 S
H387 C386 0.961 . S
H388 C386 0.961 . S
H389 C386 0.960 1_565 S
C390 N391 1.342 . S
C390 C394 1.401 . S
C390 C395 1.499 . S
N391 Co374 1.989 . S
N391 C390 1.342 . S
N391 N392 1.388 . S
N392 Co375 1.993 . S
N392 N391 1.388 . S
N392 C393 1.346 . S
C393 N392 1.346 . S
C393 C394 1.396 . S
C393 C403 1.510 . S
C394 C390 1.401 . S
C394 C393 1.396 . S
C395 C390 1.499 . S
C395 H396 0.959 . S
C395 H397 0.960 . S
C395 H398 0.961 . S
H396 C395 0.959 . S
H397 C395 0.960 . S
H398 C395 0.961 . S
O399 Co374 1.967 . S
O399 C407 1.258 . S
O400 Co375 1.941 . S
O400 C407 1.266 . S
H401 C403 0.959 . S
H402 C403 0.976 . S
C403 C393 1.510 . S
C403 H401 0.959 . S
C403 H402 0.976 . S
C403 H404 0.960 . S
H404 C403 0.960 . S
H405 N385 0.862 . S
O406 Co374 1.920 . S
O406 C379 1.289 . S
C407 O399 1.258 . S
C407 O400 1.266 . S
Co408 O411 1.970 . S
Co408 N425 1.989 . S
Co408 O433 1.967 . S
Co408 O440 1.920 . S
Co409 O412 1.966 . S
Co409 N418 2.022 . S
Co409 N426 1.993 . S
Co409 O434 1.941 . S
C410 O411 1.258 . S
C410 O412 1.263 . S
O411 Co408 1.970 . S
O411 C410 1.258 . S
O412 Co409 1.966 . S
O412 C410 1.263 . S
C413 O414 1.235 . S
C413 O440 1.289 . S
O414 C413 1.235 . S
C415 C417 1.400 . S
C415 N418 1.351 1_655 S
C415 C420 1.501 . S
C416 C417 1.387 . S
C416 N419 1.341 . S
C417 C415 1.400 . S
C417 C416 1.387 . S
N418 Co409 2.022 . S
N418 C415 1.351 1_455 S
N418 N419 1.365 1_455 S
N419 C416 1.341 . S
N419 N418 1.365 1_655 S
N419 H439 0.862 1_655 S
C420 C415 1.501 . S
C420 H421 0.961 1_655 S
C420 H422 0.961 . S
C420 H423 0.960 . S
H421 C420 0.961 1_455 S
H422 C420 0.961 . S
H423 C420 0.960 . S
C424 N425 1.342 . S
C424 C428 1.401 . S
C424 C429 1.499 . S
N425 Co408 1.989 . S
N425 C424 1.342 . S
N425 N426 1.388 . S
N426 Co409 1.993 . S
N426 N425 1.388 . S
N426 C427 1.346 . S
C427 N426 1.346 . S
C427 C428 1.396 . S
C427 C437 1.510 . S
C428 C424 1.401 . S
C428 C427 1.396 . S
C429 C424 1.499 . S
C429 H430 0.959 . S
C429 H431 0.960 . S
C429 H432 0.961 . S
H430 C429 0.959 . S
H431 C429 0.960 . S
H432 C429 0.961 . S
O433 Co408 1.967 . S
O433 C441 1.258 . S
O434 Co409 1.941 . S
O434 C441 1.266 . S
H435 C437 0.959 . S
H436 C437 0.961 . S
C437 C427 1.510 . S
C437 H435 0.959 . S
C437 H436 0.961 . S
C437 H438 0.960 . S
H438 C437 0.960 . S
H439 N419 0.862 1_455 S
O440 Co408 1.920 . S
O440 C413 1.289 . S
C441 O433 1.258 . S
C441 O434 1.266 . S
Co442 O445 1.970 . S
Co442 N459 1.989 . S
Co442 O467 1.967 . S
Co442 O474 1.920 . S
Co443 O446 1.966 . S
Co443 N452 2.022 . S
Co443 N460 1.993 . S
Co443 O468 1.941 . S
C444 O445 1.258 . S
C444 O446 1.263 . S
O445 Co442 1.970 . S
O445 C444 1.258 . S
O446 Co443 1.966 . S
O446 C444 1.263 . S
C447 O448 1.235 . S
C447 O474 1.289 . S
O448 C447 1.235 . S
C449 C451 1.400 . S
C449 N452 1.351 1_545 S
C449 C454 1.501 . S
C450 C451 1.387 . S
C450 N453 1.341 . S
C451 C449 1.400 . S
C451 C450 1.387 . S
N452 Co443 2.022 . S
N452 C449 1.351 1_565 S
N452 N453 1.365 1_565 S
N453 C450 1.341 . S
N453 N452 1.365 1_545 S
N453 H473 0.862 . S
C454 C449 1.501 . S
C454 H455 0.961 1_545 S
C454 H456 0.961 . S
C454 H457 0.960 . S
H455 C454 0.961 1_565 S
H456 C454 0.961 . S
H457 C454 0.960 . S
C458 N459 1.342 . S
C458 C462 1.401 . S
C458 C463 1.499 . S
N459 Co442 1.989 . S
N459 C458 1.342 . S
N459 N460 1.388 . S
N460 Co443 1.993 . S
N460 N459 1.388 . S
N460 C461 1.346 . S
C461 N460 1.346 . S
C461 C462 1.396 . S
C461 C471 1.510 . S
C462 C458 1.401 . S
C462 C461 1.396 . S
C463 C458 1.499 . S
C463 H464 0.959 . S
C463 H465 0.960 . S
C463 H466 0.961 . S
H464 C463 0.959 . S
H465 C463 0.960 . S
H466 C463 0.961 . S
O467 Co442 1.967 . S
O467 C475 1.258 . S
O468 Co443 1.941 . S
O468 C475 1.266 . S
H469 C471 0.959 . S
H470 C471 0.961 . S
C471 C461 1.510 . S
C471 H469 0.959 . S
C471 H470 0.961 . S
C471 H472 0.960 . S
H472 C471 0.960 . S
H473 N453 0.862 . S
O474 Co442 1.920 . S
O474 C447 1.289 . S
C475 O467 1.258 . S
C475 O468 1.266 . S
Co476 O479 1.970 . S
Co476 N493 1.989 . S
Co476 O501 1.967 . S
Co476 O508 1.920 . S
Co477 O480 1.966 . S
Co477 N486 2.022 . S
Co477 N494 1.993 . S
Co477 O502 1.941 . S
C478 O479 1.258 . S
C478 O480 1.263 . S
O479 Co476 1.970 . S
O479 C478 1.258 . S
O480 Co477 1.966 . S
O480 C478 1.263 . S
C481 O482 1.235 . S
C481 O508 1.289 . S
O482 C481 1.235 . S
C483 C485 1.400 . S
C483 N486 1.351 . S
C483 C488 1.501 . S
C484 C485 1.387 . S
C484 N487 1.341 . S
C485 C483 1.400 . S
C485 C484 1.387 . S
N486 Co477 2.022 . S
N486 C483 1.351 . S
N486 N487 1.365 . S
N487 C484 1.341 . S
N487 N486 1.365 . S
N487 H507 0.862 . S
C488 C483 1.501 . S
C488 H489 0.961 . S
C488 H490 0.961 . S
C488 H491 0.960 . S
H489 C488 0.961 . S
H490 C488 0.961 . S
H491 C488 0.960 . S
C492 N493 1.342 . S
C492 C496 1.401 . S
C492 C497 1.499 . S
N493 Co476 1.989 . S
N493 C492 1.342 . S
N493 N494 1.388 . S
N494 Co477 1.993 . S
N494 N493 1.388 . S
N494 C495 1.346 . S
C495 N494 1.346 . S
C495 C496 1.396 . S
C495 C505 1.510 . S
C496 C492 1.401 . S
C496 C495 1.396 . S
C497 C492 1.499 . S
C497 H498 0.959 . S
C497 H499 0.960 . S
C497 H500 0.961 . S
H498 C497 0.959 . S
H499 C497 0.960 . S
H500 C497 0.961 . S
O501 Co476 1.967 . S
O501 C509 1.258 . S
O502 Co477 1.941 . S
O502 C509 1.266 . S
H503 C505 0.959 . S
H504 C505 0.961 . S
C505 C495 1.510 . S
C505 H503 0.959 . S
C505 H504 0.961 . S
C505 H506 0.960 . S
H506 C505 0.960 . S
H507 N487 0.862 . S
O508 Co476 1.920 . S
O508 C481 1.289 . S
C509 O501 1.258 . S
C509 O502 1.266 . S
Co510 O513 1.970 . S
Co510 N527 1.989 . S
Co510 O535 1.967 . S
Co510 O542 1.920 . S
Co511 O514 1.966 . S
Co511 N520 2.022 . S
Co511 N528 1.993 . S
Co511 O536 1.941 . S
C512 O513 1.258 . S
C512 O514 1.263 . S
O513 Co510 1.970 . S
O513 C512 1.258 . S
O514 Co511 1.966 . S
O514 C512 1.263 . S
C515 O516 1.235 . S
C515 O542 1.289 . S
O516 C515 1.235 . S
C517 C519 1.400 . S
C517 N520 1.351 1_565 S
C517 C522 1.501 1_565 S
C518 C519 1.387 . S
C518 N521 1.341 . S
C519 C517 1.400 . S
C519 C518 1.387 . S
N520 Co511 2.022 . S
N520 C517 1.351 1_545 S
N520 N521 1.365 1_545 S
N521 C518 1.341 . S
N521 N520 1.365 1_565 S
N521 H541 0.862 1_565 S
C522 C517 1.501 1_545 S
C522 H523 0.961 . S
C522 H524 0.961 . S
C522 H525 0.960 1_545 S
H523 C522 0.961 . S
H524 C522 0.961 . S
H525 C522 0.960 1_565 S
C526 N527 1.342 . S
C526 C530 1.401 . S
C526 C531 1.499 . S
N527 Co510 1.989 . S
N527 C526 1.342 . S
N527 N528 1.388 . S
N528 Co511 1.993 . S
N528 N527 1.388 . S
N528 C529 1.346 . S
C529 N528 1.346 . S
C529 C530 1.396 . S
C529 C539 1.510 . S
C530 C526 1.401 . S
C530 C529 1.396 . S
C531 C526 1.499 . S
C531 H532 0.959 . S
C531 H533 0.960 . S
C531 H534 0.961 . S
H532 C531 0.959 . S
H533 C531 0.960 . S
H534 C531 0.961 . S
O535 Co510 1.967 . S
O535 C543 1.258 . S
O536 Co511 1.941 . S
O536 C543 1.266 . S
H537 C539 0.959 . S
H538 C539 0.961 . S
C539 C529 1.510 . S
C539 H537 0.959 . S
C539 H538 0.961 . S
C539 H540 0.960 . S
H540 C539 0.960 . S
H541 N521 0.862 1_545 S
O542 Co510 1.920 . S
O542 C515 1.289 . S
C543 O535 1.258 . S
C543 O536 1.266 . S
Co544 O547 1.970 . S
Co544 N561 1.989 . S
Co544 O569 1.967 . S
Co544 O576 1.920 . S
Co545 O548 1.966 . S
Co545 N554 2.022 . S
Co545 N562 1.993 . S
Co545 O570 1.941 . S
C546 O547 1.258 . S
C546 O548 1.263 . S
O547 Co544 1.970 . S
O547 C546 1.258 . S
O548 Co545 1.966 . S
O548 C546 1.263 . S
C549 O550 1.235 . S
C549 O576 1.289 . S
O550 C549 1.235 . S
C551 C553 1.400 . S
C551 N554 1.351 . S
C551 C556 1.501 . S
C552 C553 1.387 . S
C552 N555 1.341 . S
C553 C551 1.400 . S
C553 C552 1.387 . S
N554 Co545 2.022 . S
N554 C551 1.351 . S
N554 N555 1.365 . S
N555 C552 1.341 . S
N555 N554 1.365 . S
N555 H575 0.862 . S
C556 C551 1.501 . S
C556 H557 0.961 . S
C556 H558 0.961 . S
C556 H559 0.960 . S
H557 C556 0.961 . S
H558 C556 0.961 . S
H559 C556 0.960 . S
C560 N561 1.342 . S
C560 C564 1.401 . S
C560 C565 1.499 . S
N561 Co544 1.989 . S
N561 C560 1.342 . S
N561 N562 1.388 . S
N562 Co545 1.993 . S
N562 N561 1.388 . S
N562 C563 1.346 . S
C563 N562 1.346 . S
C563 C564 1.396 . S
C563 C573 1.510 . S
C564 C560 1.401 . S
C564 C563 1.396 . S
C565 C560 1.499 . S
C565 H566 0.959 . S
C565 H567 0.960 . S
C565 H568 0.961 . S
H566 C565 0.959 . S
H567 C565 0.960 . S
H568 C565 0.961 . S
O569 Co544 1.967 . S
O569 C577 1.258 . S
O570 Co545 1.941 . S
O570 C577 1.266 . S
H571 C573 0.959 . S
H572 C573 0.961 . S
C573 C563 1.510 . S
C573 H571 0.959 . S
C573 H572 0.961 . S
C573 H574 0.960 . S
H574 C573 0.960 . S
H575 N555 0.862 . S
O576 Co544 1.920 . S
O576 C549 1.289 . S
C577 O569 1.258 . S
C577 O570 1.266 . S
Co578 O581 1.970 . S
Co578 N595 1.989 . S
Co578 O603 1.967 . S
Co578 O610 1.920 . S
Co579 O582 1.966 . S
Co579 N588 2.022 . S
Co579 N596 1.993 . S
Co579 O604 1.941 . S
C580 O581 1.258 . S
C580 O582 1.263 . S
O581 Co578 1.970 . S
O581 C580 1.258 . S
O582 Co579 1.966 . S
O582 C580 1.263 . S
C583 O584 1.235 . S
C583 O610 1.289 1_455 S
O584 C583 1.235 . S
C585 C587 1.400 . S
C585 N588 1.351 . S
C585 C590 1.501 . S
C586 C587 1.387 . S
C586 N589 1.341 . S
C587 C585 1.400 . S
C587 C586 1.387 . S
N588 Co579 2.022 . S
N588 C585 1.351 . S
N588 N589 1.365 . S
N589 C586 1.341 . S
N589 N588 1.365 . S
N589 H609 0.862 . S
C590 C585 1.501 . S
C590 H591 0.961 . S
C590 H592 0.961 . S
C590 H593 0.960 . S
H591 C590 0.961 . S
H592 C590 0.961 . S
H593 C590 0.960 . S
C594 N595 1.342 . S
C594 C598 1.401 . S
C594 C599 1.499 . S
N595 Co578 1.989 . S
N595 C594 1.342 . S
N595 N596 1.388 . S
N596 Co579 1.993 . S
N596 N595 1.388 . S
N596 C597 1.346 . S
C597 N596 1.346 . S
C597 C598 1.396 . S
C597 C607 1.510 . S
C598 C594 1.401 . S
C598 C597 1.396 . S
C599 C594 1.499 . S
C599 H600 0.959 . S
C599 H601 0.960 . S
C599 H602 0.961 . S
H600 C599 0.959 . S
H601 C599 0.960 . S
H602 C599 0.961 . S
O603 Co578 1.967 . S
O603 C611 1.258 . S
O604 Co579 1.941 . S
O604 C611 1.266 . S
H605 C607 0.959 . S
H606 C607 0.961 . S
C607 C597 1.510 . S
C607 H605 0.959 . S
C607 H606 0.961 . S
C607 H608 0.960 . S
H608 C607 0.960 . S
H609 N589 0.862 . S
O610 Co578 1.920 . S
O610 C583 1.289 1_655 S
C611 O603 1.258 . S
C611 O604 1.266 . S
Co612 O615 1.970 . S
Co612 N629 1.989 . S
Co612 O637 1.967 . S
Co612 O644 1.920 . S
Co613 O616 1.966 . S
Co613 N622 2.022 . S
Co613 N630 1.993 . S
Co613 O638 1.941 . S
C614 O615 1.258 . S
C614 O616 1.263 . S
O615 Co612 1.970 . S
O615 C614 1.258 . S
O616 Co613 1.966 . S
O616 C614 1.263 . S
C617 O618 1.235 . S
C617 O644 1.289 . S
O618 C617 1.235 . S
C619 C621 1.400 . S
C619 N622 1.351 . S
C619 C624 1.501 . S
C620 C621 1.387 . S
C620 N623 1.341 . S
C621 C619 1.400 . S
C621 C620 1.387 . S
N622 Co613 2.022 . S
N622 C619 1.351 . S
N622 N623 1.365 . S
N623 C620 1.341 . S
N623 N622 1.365 . S
N623 H643 0.862 . S
C624 C619 1.501 . S
C624 H625 0.961 . S
C624 H626 0.961 . S
C624 H627 0.960 . S
H625 C624 0.961 . S
H626 C624 0.961 . S
H627 C624 0.960 . S
C628 N629 1.342 . S
C628 C632 1.401 . S
C628 C633 1.499 . S
N629 Co612 1.989 . S
N629 C628 1.342 . S
N629 N630 1.388 . S
N630 Co613 1.993 . S
N630 N629 1.388 . S
N630 C631 1.346 . S
C631 N630 1.346 . S
C631 C632 1.396 . S
C631 C641 1.510 . S
C632 C628 1.401 . S
C632 C631 1.396 . S
C633 C628 1.499 . S
C633 H634 0.959 . S
C633 H635 0.960 . S
C633 H636 0.961 . S
H634 C633 0.959 . S
H635 C633 0.960 . S
H636 C633 0.961 . S
O637 Co612 1.967 . S
O637 C645 1.258 . S
O638 Co613 1.941 . S
O638 C645 1.266 . S
H639 C641 0.959 . S
H640 C641 0.961 . S
C641 C631 1.510 . S
C641 H639 0.959 . S
C641 H640 0.961 . S
C641 H642 0.960 . S
H642 C641 0.960 . S
H643 N623 0.862 . S
O644 Co612 1.920 . S
O644 C617 1.289 . S
C645 O637 1.258 . S
C645 O638 1.266 . S
Co646 O649 1.970 . S
Co646 N663 1.989 . S
Co646 O671 1.967 . S
Co646 O678 1.920 . S
Co647 O650 1.966 . S
Co647 N656 2.022 . S
Co647 N664 1.993 . S
Co647 O672 1.941 . S
C648 O649 1.258 . S
C648 O650 1.263 . S
O649 Co646 1.970 . S
O649 C648 1.258 . S
O650 Co647 1.966 . S
O650 C648 1.263 . S
C651 O652 1.235 . S
C651 O678 1.289 1_455 S
O652 C651 1.235 . S
C653 C655 1.400 . S
C653 N656 1.351 . S
C653 C658 1.501 . S
C654 C655 1.387 . S
C654 N657 1.341 . S
C655 C653 1.400 . S
C655 C654 1.387 . S
N656 Co647 2.022 . S
N656 C653 1.351 . S
N656 N657 1.365 . S
N657 C654 1.341 . S
N657 N656 1.365 . S
N657 H677 0.862 . S
C658 C653 1.501 . S
C658 H659 0.961 . S
C658 H660 0.961 . S
C658 H661 0.960 . S
H659 C658 0.961 . S
H660 C658 0.961 . S
H661 C658 0.960 . S
C662 N663 1.342 . S
C662 C666 1.401 . S
C662 C667 1.499 . S
N663 Co646 1.989 . S
N663 C662 1.342 . S
N663 N664 1.388 . S
N664 Co647 1.993 . S
N664 N663 1.388 . S
N664 C665 1.346 . S
C665 N664 1.346 . S
C665 C666 1.396 . S
C665 C675 1.510 . S
C666 C662 1.401 . S
C666 C665 1.396 . S
C667 C662 1.499 . S
C667 H668 0.959 . S
C667 H669 0.960 . S
C667 H670 0.961 . S
H668 C667 0.959 . S
H669 C667 0.960 . S
H670 C667 0.961 . S
O671 Co646 1.967 . S
O671 C679 1.258 . S
O672 Co647 1.941 . S
O672 C679 1.266 . S
H673 C675 0.959 . S
H674 C675 0.961 . S
C675 C665 1.510 . S
C675 H673 0.959 . S
C675 H674 0.961 . S
C675 H676 0.960 . S
H676 C675 0.960 . S
H677 N657 0.862 . S
O678 Co646 1.920 . S
O678 C651 1.289 1_655 S
C679 O671 1.258 . S
C679 O672 1.266 . S
Co680 O683 1.970 . S
Co680 N697 1.989 . S
Co680 O705 1.967 . S
Co680 O712 1.920 . S
Co681 O684 1.966 . S
Co681 N690 2.022 . S
Co681 N698 1.993 . S
Co681 O706 1.941 . S
C682 O683 1.258 . S
C682 O684 1.263 . S
O683 Co680 1.970 . S
O683 C682 1.258 . S
O684 Co681 1.966 . S
O684 C682 1.263 . S
C685 O686 1.235 . S
C685 O712 1.289 . S
O686 C685 1.235 . S
C687 C689 1.400 . S
C687 N690 1.351 . S
C687 C692 1.501 . S
C688 C689 1.387 . S
C688 N691 1.341 . S
C689 C687 1.400 . S
C689 C688 1.387 . S
N690 Co681 2.022 . S
N690 C687 1.351 . S
N690 N691 1.365 . S
N691 C688 1.341 . S
N691 N690 1.365 . S
N691 H711 0.862 . S
C692 C687 1.501 . S
C692 H693 0.961 . S
C692 H694 0.961 . S
C692 H695 0.960 . S
H693 C692 0.961 . S
H694 C692 0.961 . S
H695 C692 0.960 . S
C696 N697 1.342 . S
C696 C700 1.401 . S
C696 C701 1.499 . S
N697 Co680 1.989 . S
N697 C696 1.342 . S
N697 N698 1.388 . S
N698 Co681 1.993 . S
N698 N697 1.388 . S
N698 C699 1.346 . S
C699 N698 1.346 . S
C699 C700 1.396 . S
C699 C709 1.510 . S
C700 C696 1.401 . S
C700 C699 1.396 . S
C701 C696 1.499 . S
C701 H702 0.959 . S
C701 H703 0.960 . S
C701 H704 0.961 . S
H702 C701 0.959 . S
H703 C701 0.960 . S
H704 C701 0.961 . S
O705 Co680 1.967 . S
O705 C713 1.258 . S
O706 Co681 1.941 . S
O706 C713 1.266 . S
H707 C709 0.959 . S
H708 C709 0.961 . S
C709 C699 1.510 . S
C709 H707 0.959 . S
C709 H708 0.961 . S
C709 H710 0.960 . S
H710 C709 0.960 . S
H711 N691 0.862 . S
O712 Co680 1.920 . S
O712 C685 1.289 . S
C713 O705 1.258 . S
C713 O706 1.266 . S
Co714 O717 1.970 . S
Co714 N731 1.989 . S
Co714 O739 1.967 . S
Co714 O746 1.920 . S
Co715 O718 1.966 . S
Co715 N724 2.022 . S
Co715 N732 1.993 . S
Co715 O740 1.941 . S
C716 O717 1.258 . S
C716 O718 1.263 . S
O717 Co714 1.970 . S
O717 C716 1.258 . S
O718 Co715 1.966 . S
O718 C716 1.263 . S
C719 O720 1.235 . S
C719 O746 1.289 1_554 S
O720 C719 1.235 . S
C721 C723 1.400 . S
C721 N724 1.351 . S
C721 C726 1.501 . S
C722 C723 1.387 . S
C722 N725 1.341 . S
C723 C721 1.400 . S
C723 C722 1.387 . S
N724 Co715 2.022 . S
N724 C721 1.351 . S
N724 N725 1.365 . S
N725 C722 1.341 . S
N725 N724 1.365 . S
N725 H745 0.862 . S
C726 C721 1.501 . S
C726 H727 0.961 . S
C726 H728 0.961 . S
C726 H729 0.960 . S
H727 C726 0.961 . S
H728 C726 0.961 . S
H729 C726 0.960 . S
C730 N731 1.342 . S
C730 C734 1.401 . S
C730 C735 1.499 . S
N731 Co714 1.989 . S
N731 C730 1.342 . S
N731 N732 1.388 . S
N732 Co715 1.993 . S
N732 N731 1.388 . S
N732 C733 1.346 . S
C733 N732 1.346 . S
C733 C734 1.396 . S
C733 C743 1.510 . S
C734 C730 1.401 . S
C734 C733 1.396 . S
C735 C730 1.499 . S
C735 H736 0.959 . S
C735 H737 0.960 . S
C735 H738 0.961 1_655 S
H736 C735 0.959 . S
H737 C735 0.960 . S
H738 C735 0.961 1_455 S
O739 Co714 1.967 . S
O739 C747 1.258 . S
O740 Co715 1.941 . S
O740 C747 1.266 . S
H741 C743 0.959 . S
H742 C743 0.961 . S
C743 C733 1.510 . S
C743 H741 0.959 . S
C743 H742 0.961 . S
C743 H744 0.960 . S
H744 C743 0.960 . S
H745 N725 0.862 . S
O746 Co714 1.920 . S
O746 C719 1.289 1_556 S
C747 O739 1.258 . S
C747 O740 1.266 . S
Co748 O751 1.970 . S
Co748 N765 1.989 . S
Co748 O773 1.967 . S
Co748 O780 1.920 . S
Co749 O752 1.966 . S
Co749 N758 2.022 . S
Co749 N766 1.993 . S
Co749 O774 1.941 . S
C750 O751 1.258 . S
C750 O752 1.263 . S
O751 Co748 1.970 . S
O751 C750 1.258 . S
O752 Co749 1.966 . S
O752 C750 1.263 . S
C753 O754 1.235 . S
C753 O780 1.289 . S
O754 C753 1.235 . S
C755 C757 1.400 . S
C755 N758 1.351 . S
C755 C760 1.501 . S
C756 C757 1.387 . S
C756 N759 1.341 . S
C757 C755 1.400 . S
C757 C756 1.387 . S
N758 Co749 2.022 . S
N758 C755 1.351 . S
N758 N759 1.365 . S
N759 C756 1.341 . S
N759 N758 1.365 . S
N759 H779 0.862 . S
C760 C755 1.501 . S
C760 H761 0.961 . S
C760 H762 0.961 . S
C760 H763 0.960 . S
H761 C760 0.961 . S
H762 C760 0.961 . S
H763 C760 0.960 . S
C764 N765 1.342 . S
C764 C768 1.401 . S
C764 C769 1.499 . S
N765 Co748 1.989 . S
N765 C764 1.342 . S
N765 N766 1.388 . S
N766 Co749 1.993 . S
N766 N765 1.388 . S
N766 C767 1.346 . S
C767 N766 1.346 . S
C767 C768 1.396 . S
C767 C777 1.510 . S
C768 C764 1.401 . S
C768 C767 1.396 . S
C769 C764 1.499 . S
C769 H770 0.959 . S
C769 H771 0.960 . S
C769 H772 0.961 . S
H770 C769 0.959 . S
H771 C769 0.960 . S
H772 C769 0.961 . S
O773 Co748 1.967 . S
O773 C781 1.258 . S
O774 Co749 1.941 . S
O774 C781 1.266 . S
H775 C777 0.959 . S
H776 C777 0.961 1_655 S
C777 C767 1.510 . S
C777 H775 0.959 . S
C777 H776 0.961 1_455 S
C777 H778 0.960 . S
H778 C777 0.960 . S
H779 N759 0.862 . S
O780 Co748 1.920 . S
O780 C753 1.289 . S
C781 O773 1.258 . S
C781 O774 1.266 . S
Co782 O785 1.970 . S
Co782 N799 1.989 . S
Co782 O807 1.967 . S
Co782 O814 1.920 . S
Co783 O786 1.966 . S
Co783 N792 2.022 . S
Co783 N800 1.993 . S
Co783 O808 1.941 . S
C784 O785 1.258 . S
C784 O786 1.263 . S
O785 Co782 1.970 . S
O785 C784 1.258 . S
O786 Co783 1.966 . S
O786 C784 1.263 . S
C787 O788 1.235 . S
C787 O814 1.289 . S
O788 C787 1.235 . S
C789 C791 1.400 . S
C789 N792 1.351 . S
C789 C794 1.501 . S
C790 C791 1.387 . S
C790 N793 1.341 . S
C791 C789 1.400 . S
C791 C790 1.387 . S
N792 Co783 2.022 . S
N792 C789 1.351 . S
N792 N793 1.365 . S
N793 C790 1.341 . S
N793 N792 1.365 . S
N793 H813 0.862 . S
C794 C789 1.501 . S
C794 H795 0.961 . S
C794 H796 0.961 . S
C794 H797 0.960 . S
H795 C794 0.961 . S
H796 C794 0.961 . S
H797 C794 0.960 . S
C798 N799 1.342 . S
C798 C802 1.401 . S
C798 C803 1.499 . S
N799 Co782 1.989 . S
N799 C798 1.342 . S
N799 N800 1.388 . S
N800 Co783 1.993 . S
N800 N799 1.388 . S
N800 C801 1.346 . S
C801 N800 1.346 . S
C801 C802 1.396 . S
C801 C811 1.510 . S
C802 C798 1.401 . S
C802 C801 1.396 . S
C803 C798 1.499 . S
C803 H804 0.959 . S
C803 H805 0.960 . S
C803 H806 0.961 . S
H804 C803 0.959 . S
H805 C803 0.960 . S
H806 C803 0.961 . S
O807 Co782 1.967 . S
O807 C815 1.258 . S
O808 Co783 1.941 . S
O808 C815 1.266 . S
H809 C811 0.959 . S
H810 C811 0.961 . S
C811 C801 1.510 . S
C811 H809 0.959 . S
C811 H810 0.961 . S
C811 H812 0.960 . S
H812 C811 0.960 . S
H813 N793 0.862 . S
O814 Co782 1.920 . S
O814 C787 1.289 . S
C815 O807 1.258 . S
C815 O808 1.266 . S
Co816 O819 1.970 . S
Co816 N833 1.989 . S
Co816 O841 1.967 . S
Co816 O848 1.920 . S
Co817 O820 1.966 . S
Co817 N826 2.022 . S
Co817 N834 1.993 . S
Co817 O842 1.941 . S
C818 O819 1.258 . S
C818 O820 1.263 . S
O819 Co816 1.970 . S
O819 C818 1.258 . S
O820 Co817 1.966 . S
O820 C818 1.263 . S
C821 O822 1.235 . S
C821 O848 1.289 . S
O822 C821 1.235 . S
C823 C825 1.400 . S
C823 N826 1.351 1_556 S
C823 C828 1.501 . S
C824 C825 1.387 . S
C824 N827 1.341 . S
C825 C823 1.400 . S
C825 C824 1.387 . S
N826 Co817 2.022 . S
N826 C823 1.351 1_554 S
N826 N827 1.365 1_554 S
N827 C824 1.341 . S
N827 N826 1.365 1_556 S
N827 H847 0.862 1_556 S
C828 C823 1.501 . S
C828 H829 0.961 1_556 S
C828 H830 0.961 . S
C828 H831 0.960 . S
H829 C828 0.961 1_554 S
H830 C828 0.961 . S
H831 C828 0.960 . S
C832 N833 1.342 . S
C832 C836 1.401 . S
C832 C837 1.499 . S
N833 Co816 1.989 . S
N833 C832 1.342 . S
N833 N834 1.388 . S
N834 Co817 1.993 . S
N834 N833 1.388 . S
N834 C835 1.346 . S
C835 N834 1.346 . S
C835 C836 1.396 . S
C835 C845 1.510 . S
C836 C832 1.401 . S
C836 C835 1.396 . S
C837 C832 1.499 . S
C837 H838 0.959 . S
C837 H839 0.960 . S
C837 H840 0.961 . S
H838 C837 0.959 . S
H839 C837 0.960 . S
H840 C837 0.961 . S
O841 Co816 1.967 . S
O841 C849 1.258 . S
O842 Co817 1.941 . S
O842 C849 1.266 . S
H843 C845 0.959 . S
H844 C845 0.961 . S
C845 C835 1.510 . S
C845 H843 0.959 . S
C845 H844 0.961 . S
C845 H846 0.960 . S
H846 C845 0.960 . S
H847 N827 0.862 1_554 S
O848 Co816 1.920 . S
O848 C821 1.289 . S
C849 O841 1.258 . S
C849 O842 1.266 . S
Co850 O853 1.970 . S
Co850 N867 1.989 . S
Co850 O875 1.967 . S
Co850 O882 1.920 . S
Co851 O854 1.966 . S
Co851 N860 2.022 . S
Co851 N868 1.993 . S
Co851 O876 1.941 . S
C852 O853 1.258 . S
C852 O854 1.263 . S
O853 Co850 1.970 . S
O853 C852 1.258 . S
O854 Co851 1.966 . S
O854 C852 1.263 . S
C855 O856 1.235 . S
C855 O882 1.289 . S
O856 C855 1.235 . S
C857 C859 1.400 . S
C857 N860 1.351 . S
C857 C862 1.501 . S
C858 C859 1.387 . S
C858 N861 1.341 . S
C859 C857 1.400 . S
C859 C858 1.387 . S
N860 Co851 2.022 . S
N860 C857 1.351 . S
N860 N861 1.365 . S
N861 C858 1.341 . S
N861 N860 1.365 . S
N861 H881 0.862 . S
C862 C857 1.501 . S
C862 H863 0.961 . S
C862 H864 0.961 . S
C862 H865 0.960 . S
H863 C862 0.961 . S
H864 C862 0.961 . S
H865 C862 0.960 . S
C866 N867 1.342 . S
C866 C870 1.401 . S
C866 C871 1.499 . S
N867 Co850 1.989 . S
N867 C866 1.342 . S
N867 N868 1.388 . S
N868 Co851 1.993 . S
N868 N867 1.388 . S
N868 C869 1.346 . S
C869 N868 1.346 . S
C869 C870 1.396 . S
C869 C879 1.510 . S
C870 C866 1.401 . S
C870 C869 1.396 . S
C871 C866 1.499 . S
C871 H872 0.959 . S
C871 H873 0.960 . S
C871 H874 0.961 . S
H872 C871 0.959 . S
H873 C871 0.960 . S
H874 C871 0.961 . S
O875 Co850 1.967 . S
O875 C883 1.258 . S
O876 Co851 1.941 . S
O876 C883 1.266 . S
H877 C879 0.959 . S
H878 C879 0.961 . S
C879 C869 1.510 . S
C879 H877 0.959 . S
C879 H878 0.961 . S
C879 H880 0.960 . S
H880 C879 0.960 . S
H881 N861 0.862 . S
O882 Co850 1.920 . S
O882 C855 1.289 . S
C883 O875 1.258 . S
C883 O876 1.266 . S
Co884 O887 1.970 . S
Co884 N901 1.989 . S
Co884 O909 1.967 . S
Co884 O916 1.920 . S
Co885 O888 1.966 . S
Co885 N894 2.022 . S
Co885 N902 1.993 . S
Co885 O910 1.941 . S
C886 O887 1.258 . S
C886 O888 1.263 . S
O887 Co884 1.970 . S
O887 C886 1.258 . S
O888 Co885 1.966 . S
O888 C886 1.263 . S
C889 O890 1.235 . S
C889 O916 1.289 . S
O890 C889 1.235 . S
C891 C893 1.400 . S
C891 N894 1.351 . S
C891 C896 1.501 . S
C892 C893 1.387 . S
C892 N895 1.341 . S
C893 C891 1.400 . S
C893 C892 1.387 . S
N894 Co885 2.022 . S
N894 C891 1.351 . S
N894 N895 1.365 . S
N895 C892 1.341 . S
N895 N894 1.365 . S
N895 H915 0.862 . S
C896 C891 1.501 . S
C896 H897 0.961 . S
C896 H898 0.961 . S
C896 H899 0.960 . S
H897 C896 0.961 . S
H898 C896 0.961 . S
H899 C896 0.960 . S
C900 N901 1.342 . S
C900 C904 1.401 . S
C900 C905 1.499 . S
N901 Co884 1.989 . S
N901 C900 1.342 . S
N901 N902 1.388 . S
N902 Co885 1.993 . S
N902 N901 1.388 . S
N902 C903 1.346 . S
C903 N902 1.346 . S
C903 C904 1.396 . S
C903 C913 1.510 . S
C904 C900 1.401 . S
C904 C903 1.396 . S
C905 C900 1.499 . S
C905 H906 0.959 . S
C905 H907 0.960 . S
C905 H908 0.961 . S
H906 C905 0.959 . S
H907 C905 0.960 . S
H908 C905 0.961 . S
O909 Co884 1.967 . S
O909 C917 1.258 . S
O910 Co885 1.941 . S
O910 C917 1.266 . S
H911 C913 0.959 . S
H912 C913 0.961 . S
C913 C903 1.510 . S
C913 H911 0.959 . S
C913 H912 0.961 . S
C913 H914 0.960 . S
H914 C913 0.960 . S
H915 N895 0.862 . S
O916 Co884 1.920 . S
O916 C889 1.289 . S
C917 O909 1.258 . S
C917 O910 1.266 . S
Co918 O921 1.970 . S
Co918 N935 1.989 . S
Co918 O943 1.967 . S
Co918 O950 1.920 . S
Co919 O922 1.966 . S
Co919 N928 2.022 . S
Co919 N936 1.993 . S
Co919 O944 1.941 . S
C920 O921 1.258 . S
C920 O922 1.263 . S
O921 Co918 1.970 . S
O921 C920 1.258 . S
O922 Co919 1.966 . S
O922 C920 1.263 . S
C923 O924 1.235 . S
C923 O950 1.289 . S
O924 C923 1.235 . S
C925 C927 1.400 1_554 S
C925 N928 1.351 . S
C925 C930 1.501 . S
C926 C927 1.387 . S
C926 N929 1.341 1_556 S
C927 C925 1.400 1_556 S
C927 C926 1.387 . S
N928 Co919 2.022 . S
N928 C925 1.351 . S
N928 N929 1.365 . S
N929 C926 1.341 1_554 S
N929 N928 1.365 . S
N929 H949 0.862 . S
C930 C925 1.501 . S
C930 H931 0.961 . S
C930 H932 0.961 . S
C930 H933 0.960 1_554 S
H931 C930 0.961 . S
H932 C930 0.961 . S
H933 C930 0.960 1_556 S
C934 N935 1.342 . S
C934 C938 1.401 . S
C934 C939 1.499 . S
N935 Co918 1.989 . S
N935 C934 1.342 . S
N935 N936 1.388 . S
N936 Co919 1.993 . S
N936 N935 1.388 . S
N936 C937 1.346 . S
C937 N936 1.346 . S
C937 C938 1.396 . S
C937 C947 1.510 . S
C938 C934 1.401 . S
C938 C937 1.396 . S
C939 C934 1.499 . S
C939 H940 0.959 . S
C939 H941 0.960 . S
C939 H942 0.961 . S
H940 C939 0.959 . S
H941 C939 0.960 . S
H942 C939 0.961 . S
O943 Co918 1.967 . S
O943 C951 1.258 . S
O944 Co919 1.941 . S
O944 C951 1.266 . S
H945 C947 0.959 . S
H946 C947 0.961 . S
C947 C937 1.510 . S
C947 H945 0.959 . S
C947 H946 0.961 . S
C947 H948 0.960 . S
H948 C947 0.960 . S
H949 N929 0.862 . S
O950 Co918 1.920 . S
O950 C923 1.289 . S
C951 O943 1.258 . S
C951 O944 1.266 . S
Co952 O955 1.970 . S
Co952 N969 1.989 . S
Co952 O977 1.967 . S
Co952 O984 1.920 . S
Co953 O956 1.966 . S
Co953 N962 2.022 . S
Co953 N970 1.993 . S
Co953 O978 1.941 . S
C954 O955 1.258 . S
C954 O956 1.263 . S
O955 Co952 1.970 . S
O955 C954 1.258 . S
O956 Co953 1.966 . S
O956 C954 1.263 . S
C957 O958 1.235 . S
C957 O984 1.289 . S
O958 C957 1.235 . S
C959 C961 1.400 . S
C959 N962 1.351 1_554 S
C959 C964 1.496 1_554 S
C960 C961 1.387 . S
C960 N963 1.341 . S
C961 C959 1.400 . S
C961 C960 1.387 . S
N962 Co953 2.022 . S
N962 C959 1.351 1_556 S
N962 N963 1.365 1_556 S
N963 C960 1.341 . S
N963 N962 1.365 1_554 S
N963 H983 0.862 1_554 S
C964 C959 1.496 1_556 S
C964 H965 0.981 . S
C964 H966 0.960 1_556 S
C964 H967 0.946 1_556 S
H965 C964 0.981 . S
H966 C964 0.960 1_554 S
H967 C964 0.946 1_554 S
C968 N969 1.342 . S
C968 C972 1.401 . S
C968 C973 1.499 . S
N969 Co952 1.989 . S
N969 C968 1.342 . S
N969 N970 1.388 . S
N970 Co953 1.993 . S
N970 N969 1.388 . S
N970 C971 1.346 . S
C971 N970 1.346 . S
C971 C972 1.396 . S
C971 C981 1.510 . S
C972 C968 1.401 . S
C972 C971 1.396 . S
C973 C968 1.499 . S
C973 H974 0.959 . S
C973 H975 0.960 . S
C973 H976 0.961 . S
H974 C973 0.959 . S
H975 C973 0.960 . S
H976 C973 0.961 . S
O977 Co952 1.967 . S
O977 C985 1.258 . S
O978 Co953 1.941 . S
O978 C985 1.266 . S
H979 C981 0.959 . S
H980 C981 0.961 . S
C981 C971 1.510 . S
C981 H979 0.959 . S
C981 H980 0.961 . S
C981 H982 0.960 . S
H982 C981 0.960 . S
H983 N963 0.862 1_556 S
O984 Co952 1.920 . S
O984 C957 1.289 . S
C985 O977 1.258 . S
C985 O978 1.266 . S
Co986 O989 1.970 . S
Co986 N1003 1.989 . S
Co986 O1011 1.967 . S
Co986 O1018 1.920 1_655 S
Co987 O990 1.966 . S
Co987 N996 2.022 . S
Co987 N1004 1.993 . S
Co987 O1012 1.941 . S
C988 O989 1.258 . S
C988 O990 1.263 . S
O989 Co986 1.970 . S
O989 C988 1.258 . S
O990 Co987 1.966 . S
O990 C988 1.263 . S
C991 O992 1.235 . S
C991 O1018 1.289 . S
O992 C991 1.235 . S
C993 C995 1.400 . S
C993 N996 1.351 . S
C993 C998 1.501 . S
C994 C995 1.387 . S
C994 N997 1.341 . S
C995 C993 1.400 . S
C995 C994 1.387 . S
N996 Co987 2.022 . S
N996 C993 1.351 . S
N996 N997 1.365 . S
N997 C994 1.341 . S
N997 N996 1.365 . S
N997 H1017 0.862 . S
C998 C993 1.501 . S
C998 H999 0.961 . S
C998 H1000 0.961 . S
C998 H1001 0.960 . S
H999 C998 0.961 . S
H1000 C998 0.961 . S
H1001 C998 0.960 . S
C1002 N1003 1.342 . S
C1002 C1006 1.401 . S
C1002 C1007 1.499 . S
N1003 Co986 1.989 . S
N1003 C1002 1.342 . S
N1003 N1004 1.388 . S
N1004 Co987 1.993 . S
N1004 N1003 1.388 . S
N1004 C1005 1.346 . S
C1005 N1004 1.346 . S
C1005 C1006 1.396 . S
C1005 C1015 1.510 . S
C1006 C1002 1.401 . S
C1006 C1005 1.396 . S
C1007 C1002 1.499 . S
C1007 H1008 0.959 . S
C1007 H1009 0.960 . S
C1007 H1010 0.961 1_565 S
H1008 C1007 0.959 . S
H1009 C1007 0.960 . S
H1010 C1007 0.961 1_545 S
O1011 Co986 1.967 . S
O1011 C1019 1.258 . S
O1012 Co987 1.941 . S
O1012 C1019 1.266 . S
H1013 C1015 0.959 . S
H1014 C1015 0.961 . S
C1015 C1005 1.510 . S
C1015 H1013 0.959 . S
C1015 H1014 0.961 . S
C1015 H1016 0.960 . S
H1016 C1015 0.960 . S
H1017 N997 0.862 . S
O1018 Co986 1.920 1_455 S
O1018 C991 1.289 . S
C1019 O1011 1.258 . S
C1019 O1012 1.266 . S
Co1020 O1023 1.970 . S
Co1020 N1037 1.989 . S
Co1020 O1045 1.967 . S
Co1020 O1052 1.920 . S
Co1021 O1024 1.966 . S
Co1021 N1030 2.022 . S
Co1021 N1038 1.993 . S
Co1021 O1046 1.941 . S
C1022 O1023 1.258 . S
C1022 O1024 1.263 . S
O1023 Co1020 1.970 . S
O1023 C1022 1.258 . S
O1024 Co1021 1.966 . S
O1024 C1022 1.263 . S
C1025 O1026 1.235 . S
C1025 O1052 1.289 1_565 S
O1026 C1025 1.235 . S
C1027 C1029 1.400 . S
C1027 N1030 1.351 . S
C1027 C1032 1.501 . S
C1028 C1029 1.387 . S
C1028 N1031 1.341 . S
C1029 C1027 1.400 . S
C1029 C1028 1.387 . S
N1030 Co1021 2.022 . S
N1030 C1027 1.351 . S
N1030 N1031 1.365 . S
N1031 C1028 1.341 . S
N1031 N1030 1.365 . S
N1031 H1051 0.862 . S
C1032 C1027 1.501 . S
C1032 H1033 0.961 . S
C1032 H1034 0.961 . S
C1032 H1035 0.960 . S
H1033 C1032 0.961 . S
H1034 C1032 0.961 . S
H1035 C1032 0.960 . S
C1036 N1037 1.342 . S
C1036 C1040 1.401 . S
C1036 C1041 1.499 . S
N1037 Co1020 1.989 . S
N1037 C1036 1.342 . S
N1037 N1038 1.388 . S
N1038 Co1021 1.993 . S
N1038 N1037 1.388 . S
N1038 C1039 1.346 . S
C1039 N1038 1.346 . S
C1039 C1040 1.396 . S
C1039 C1049 1.510 . S
C1040 C1036 1.401 . S
C1040 C1039 1.396 . S
C1041 C1036 1.499 . S
C1041 H1042 0.959 . S
C1041 H1043 0.960 . S
C1041 H1044 0.961 . S
H1042 C1041 0.959 . S
H1043 C1041 0.960 . S
H1044 C1041 0.961 . S
O1045 Co1020 1.967 . S
O1045 C1053 1.258 . S
O1046 Co1021 1.941 . S
O1046 C1053 1.266 . S
H1047 C1049 0.959 . S
H1048 C1049 0.961 . S
C1049 C1039 1.510 . S
C1049 H1047 0.959 . S
C1049 H1048 0.961 . S
C1049 H1050 0.960 . S
H1050 C1049 0.960 . S
H1051 N1031 0.862 . S
O1052 Co1020 1.920 . S
O1052 C1025 1.289 1_545 S
C1053 O1045 1.258 . S
C1053 O1046 1.266 . S
Co1054 O1057 1.970 . S
Co1054 N1071 1.989 . S
Co1054 O1079 1.967 . S
Co1054 O1086 1.920 . S
Co1055 O1058 1.966 . S
Co1055 N1064 2.022 . S
Co1055 N1072 1.993 . S
Co1055 O1080 1.941 . S
C1056 O1057 1.258 . S
C1056 O1058 1.263 . S
O1057 Co1054 1.970 . S
O1057 C1056 1.258 . S
O1058 Co1055 1.966 . S
O1058 C1056 1.263 . S
C1059 O1060 1.235 . S
C1059 O1086 1.289 . S
O1060 C1059 1.235 . S
C1061 C1063 1.400 . S
C1061 N1064 1.351 . S
C1061 C1066 1.501 . S
C1062 C1063 1.387 . S
C1062 N1065 1.341 . S
C1063 C1061 1.400 . S
C1063 C1062 1.387 . S
N1064 Co1055 2.022 . S
N1064 C1061 1.351 . S
N1064 N1065 1.365 . S
N1065 C1062 1.341 . S
N1065 N1064 1.365 . S
N1065 H1085 0.862 . S
C1066 C1061 1.501 . S
C1066 H1067 0.961 . S
C1066 H1068 0.961 . S
C1066 H1069 0.960 . S
H1067 C1066 0.961 . S
H1068 C1066 0.961 . S
H1069 C1066 0.960 . S
C1070 N1071 1.342 . S
C1070 C1074 1.401 . S
C1070 C1075 1.499 . S
N1071 Co1054 1.989 . S
N1071 C1070 1.342 . S
N1071 N1072 1.388 . S
N1072 Co1055 1.993 . S
N1072 N1071 1.388 . S
N1072 C1073 1.346 . S
C1073 N1072 1.346 . S
C1073 C1074 1.396 . S
C1073 C1083 1.510 . S
C1074 C1070 1.401 . S
C1074 C1073 1.396 . S
C1075 C1070 1.499 . S
C1075 H1076 0.959 . S
C1075 H1077 0.960 . S
C1075 H1078 0.961 . S
H1076 C1075 0.959 . S
H1077 C1075 0.960 . S
H1078 C1075 0.961 . S
O1079 Co1054 1.967 . S
O1079 C1087 1.258 . S
O1080 Co1055 1.941 . S
O1080 C1087 1.266 . S
H1081 C1083 0.959 . S
H1082 C1083 0.961 . S
C1083 C1073 1.510 . S
C1083 H1081 0.959 . S
C1083 H1082 0.961 . S
C1083 H1084 0.960 . S
H1084 C1083 0.960 . S
H1085 N1065 0.862 . S
O1086 Co1054 1.920 . S
O1086 C1059 1.289 . S
C1087 O1079 1.258 . S
C1087 O1080 1.266 . S
Co1088 O1091 1.970 . S
Co1088 N1105 1.989 . S
Co1088 O1113 1.967 . S
Co1088 O1120 1.920 . S
Co1089 O1092 1.966 . S
Co1089 N1098 2.022 . S
Co1089 N1106 1.993 . S
Co1089 O1114 1.941 . S
C1090 O1091 1.258 . S
C1090 O1092 1.263 . S
O1091 Co1088 1.970 . S
O1091 C1090 1.258 . S
O1092 Co1089 1.966 . S
O1092 C1090 1.263 . S
C1093 O1094 1.235 1_545 S
C1093 O1120 1.289 1_545 S
O1094 C1093 1.235 1_565 S
C1095 C1097 1.400 . S
C1095 N1098 1.351 . S
C1095 C1100 1.501 . S
C1096 C1097 1.387 . S
C1096 N1099 1.341 . S
C1097 C1095 1.400 . S
C1097 C1096 1.387 . S
N1098 Co1089 2.022 . S
N1098 C1095 1.351 . S
N1098 N1099 1.365 . S
N1099 C1096 1.341 . S
N1099 N1098 1.365 . S
N1099 H1119 0.862 . S
C1100 C1095 1.501 . S
C1100 H1101 0.961 . S
C1100 H1102 0.961 . S
C1100 H1103 0.960 . S
H1101 C1100 0.961 . S
H1102 C1100 0.961 . S
H1103 C1100 0.960 . S
C1104 N1105 1.342 . S
C1104 C1108 1.403 . S
C1104 C1109 1.499 . S
N1105 Co1088 1.989 . S
N1105 C1104 1.342 . S
N1105 N1106 1.388 . S
N1106 Co1089 1.993 . S
N1106 N1105 1.388 . S
N1106 C1107 1.346 . S
C1107 N1106 1.346 . S
C1107 C1108 1.398 . S
C1107 C1117 1.510 . S
C1108 C1104 1.403 . S
C1108 C1107 1.398 . S
C1109 C1104 1.499 . S
C1109 H1110 0.959 . S
C1109 H1111 0.960 . S
C1109 H1112 0.961 1_556 S
H1110 C1109 0.959 . S
H1111 C1109 0.960 . S
H1112 C1109 0.961 1_554 S
O1113 Co1088 1.967 . S
O1113 C1121 1.258 . S
O1114 Co1089 1.941 . S
O1114 C1121 1.266 . S
H1115 C1117 0.959 1_554 S
H1116 C1117 0.961 . S
C1117 C1107 1.510 . S
C1117 H1115 0.959 1_556 S
C1117 H1116 0.961 . S
C1117 H1118 0.960 . S
H1118 C1117 0.960 . S
H1119 N1099 0.862 . S
O1120 Co1088 1.920 . S
O1120 C1093 1.289 1_565 S
C1121 O1113 1.258 . S
C1121 O1114 1.266 . S
Co1122 O1125 1.970 . S
Co1122 N1139 1.989 . S
Co1122 O1147 1.967 . S
Co1122 O1154 1.920 . S
Co1123 O1126 1.966 . S
Co1123 N1132 2.022 . S
Co1123 N1140 1.993 . S
Co1123 O1148 1.941 . S
C1124 O1125 1.258 . S
C1124 O1126 1.263 . S
O1125 Co1122 1.970 . S
O1125 C1124 1.258 . S
O1126 Co1123 1.966 . S
O1126 C1124 1.263 . S
C1127 O1128 1.235 . S
C1127 O1154 1.289 . S
O1128 C1127 1.235 . S
C1129 C1131 1.400 . S
C1129 N1132 1.351 1_455 S
C1129 C1134 1.501 . S
C1130 C1131 1.387 . S
C1130 N1133 1.341 . S
C1131 C1129 1.400 . S
C1131 C1130 1.387 . S
N1132 Co1123 2.022 . S
N1132 C1129 1.351 1_655 S
N1132 N1133 1.365 1_655 S
N1133 C1130 1.341 . S
N1133 N1132 1.365 1_455 S
N1133 H1153 0.869 . S
C1134 C1129 1.501 . S
C1134 H1135 0.961 1_455 S
C1134 H1136 0.961 . S
C1134 H1137 0.960 . S
H1135 C1134 0.961 1_655 S
H1136 C1134 0.961 . S
H1137 C1134 0.960 . S
C1138 N1139 1.342 . S
C1138 C1142 1.401 . S
C1138 C1143 1.499 . S
N1139 Co1122 1.989 . S
N1139 C1138 1.342 . S
N1139 N1140 1.388 . S
N1140 Co1123 1.993 . S
N1140 N1139 1.388 . S
N1140 C1141 1.346 . S
C1141 N1140 1.346 . S
C1141 C1142 1.396 . S
C1141 C1151 1.510 . S
C1142 C1138 1.401 . S
C1142 C1141 1.396 . S
C1143 C1138 1.499 . S
C1143 H1144 0.959 . S
C1143 H1145 0.960 . S
C1143 H1146 0.961 . S
H1144 C1143 0.959 . S
H1145 C1143 0.960 . S
H1146 C1143 0.961 . S
O1147 Co1122 1.967 . S
O1147 C1155 1.258 . S
O1148 Co1123 1.941 . S
O1148 C1155 1.266 . S
H1149 C1151 0.959 . S
H1150 C1151 0.961 . S
C1151 C1141 1.510 . S
C1151 H1149 0.959 . S
C1151 H1150 0.961 . S
C1151 H1152 0.960 . S
H1152 C1151 0.960 . S
H1153 N1133 0.869 . S
O1154 Co1122 1.920 . S
O1154 C1127 1.289 . S
C1155 O1147 1.258 . S
C1155 O1148 1.266 . S
Co1156 O1159 1.970 . S
Co1156 N1173 1.989 . S
Co1156 O1181 1.967 . S
Co1156 O1188 1.920 . S
Co1157 O1160 1.966 . S
Co1157 N1166 2.022 . S
Co1157 N1174 1.993 . S
Co1157 O1182 1.941 . S
C1158 O1159 1.258 . S
C1158 O1160 1.263 . S
O1159 Co1156 1.970 . S
O1159 C1158 1.258 . S
O1160 Co1157 1.966 . S
O1160 C1158 1.263 . S
C1161 O1162 1.235 . S
C1161 O1188 1.289 . S
O1162 C1161 1.235 . S
C1163 C1165 1.400 . S
C1163 N1166 1.351 1_565 S
C1163 C1168 1.501 1_565 S
C1164 C1165 1.387 . S
C1164 N1167 1.341 1_565 S
C1165 C1163 1.400 . S
C1165 C1164 1.387 . S
N1166 Co1157 2.022 . S
N1166 C1163 1.351 1_545 S
N1166 N1167 1.365 . S
N1167 C1164 1.341 1_545 S
N1167 N1166 1.365 . S
N1167 H1187 0.862 . S
C1168 C1163 1.501 1_545 S
C1168 H1169 0.961 . S
C1168 H1170 0.961 . S
C1168 H1171 0.960 1_545 S
H1169 C1168 0.961 . S
H1170 C1168 0.961 . S
H1171 C1168 0.960 1_565 S
C1172 N1173 1.342 . S
C1172 C1176 1.401 . S
C1172 C1177 1.499 . S
N1173 Co1156 1.989 . S
N1173 C1172 1.342 . S
N1173 N1174 1.388 . S
N1174 Co1157 1.993 . S
N1174 N1173 1.388 . S
N1174 C1175 1.346 . S
C1175 N1174 1.346 . S
C1175 C1176 1.396 . S
C1175 C1185 1.510 . S
C1176 C1172 1.401 . S
C1176 C1175 1.396 . S
C1177 C1172 1.499 . S
C1177 H1178 0.959 . S
C1177 H1179 0.960 . S
C1177 H1180 0.961 . S
H1178 C1177 0.959 . S
H1179 C1177 0.960 . S
H1180 C1177 0.961 . S
O1181 Co1156 1.967 . S
O1181 C1189 1.258 . S
O1182 Co1157 1.941 . S
O1182 C1189 1.266 . S
H1183 C1185 0.959 . S
H1184 C1185 0.961 . S
C1185 C1175 1.510 . S
C1185 H1183 0.959 . S
C1185 H1184 0.961 . S
C1185 H1186 0.960 . S
H1186 C1185 0.960 . S
H1187 N1167 0.862 . S
O1188 Co1156 1.920 . S
O1188 C1161 1.289 . S
C1189 O1181 1.258 . S
C1189 O1182 1.266 . S
Co1190 O1193 1.970 . S
Co1190 N1207 1.989 . S
Co1190 O1215 1.967 . S
Co1190 O1222 1.920 . S
Co1191 O1194 1.966 . S
Co1191 N1200 2.022 . S
Co1191 N1208 1.993 . S
Co1191 O1216 1.941 . S
C1192 O1193 1.258 . S
C1192 O1194 1.263 . S
O1193 Co1190 1.970 . S
O1193 C1192 1.258 . S
O1194 Co1191 1.966 . S
O1194 C1192 1.263 . S
C1195 O1196 1.235 . S
C1195 O1222 1.289 . S
O1196 C1195 1.235 . S
C1197 C1199 1.400 . S
C1197 N1200 1.351 . S
C1197 C1202 1.501 . S
C1198 C1199 1.387 . S
C1198 N1201 1.341 . S
C1199 C1197 1.400 . S
C1199 C1198 1.387 . S
N1200 Co1191 2.022 . S
N1200 C1197 1.351 . S
N1200 N1201 1.365 . S
N1201 C1198 1.341 . S
N1201 N1200 1.365 . S
N1201 H1221 0.862 . S
C1202 C1197 1.501 . S
C1202 H1203 0.961 . S
C1202 H1204 0.961 . S
C1202 H1205 0.960 . S
H1203 C1202 0.961 . S
H1204 C1202 0.961 . S
H1205 C1202 0.960 . S
C1206 N1207 1.342 . S
C1206 C1210 1.401 . S
C1206 C1211 1.499 . S
N1207 Co1190 1.989 . S
N1207 C1206 1.342 . S
N1207 N1208 1.388 . S
N1208 Co1191 1.993 . S
N1208 N1207 1.388 . S
N1208 C1209 1.346 . S
C1209 N1208 1.346 . S
C1209 C1210 1.396 . S
C1209 C1219 1.510 . S
C1210 C1206 1.401 . S
C1210 C1209 1.396 . S
C1211 C1206 1.499 . S
C1211 H1212 0.959 . S
C1211 H1213 0.960 . S
C1211 H1214 0.961 . S
H1212 C1211 0.959 . S
H1213 C1211 0.960 . S
H1214 C1211 0.961 . S
O1215 Co1190 1.967 . S
O1215 C1223 1.258 . S
O1216 Co1191 1.941 . S
O1216 C1223 1.266 . S
H1217 C1219 0.959 . S
H1218 C1219 0.961 . S
C1219 C1209 1.510 . S
C1219 H1217 0.959 . S
C1219 H1218 0.961 . S
C1219 H1220 0.960 . S
H1220 C1219 0.960 . S
H1221 N1201 0.862 . S
O1222 Co1190 1.920 . S
O1222 C1195 1.289 . S
C1223 O1215 1.258 . S
C1223 O1216 1.266 . S
Co1224 O1227 1.970 . S
Co1224 N1241 1.989 . S
Co1224 O1249 1.967 . S
Co1224 O1256 1.920 . S
Co1225 O1228 1.966 . S
Co1225 N1234 2.022 . S
Co1225 N1242 1.993 . S
Co1225 O1250 1.941 . S
C1226 O1227 1.258 . S
C1226 O1228 1.263 . S
O1227 Co1224 1.970 . S
O1227 C1226 1.258 . S
O1228 Co1225 1.966 . S
O1228 C1226 1.263 . S
C1229 O1230 1.235 . S
C1229 O1256 1.289 . S
O1230 C1229 1.235 . S
C1231 C1233 1.400 . S
C1231 N1234 1.351 1_545 S
C1231 C1236 1.496 1_545 S
C1232 C1233 1.387 . S
C1232 N1235 1.341 . S
C1233 C1231 1.400 . S
C1233 C1232 1.387 . S
N1234 Co1225 2.022 . S
N1234 C1231 1.351 1_565 S
N1234 N1235 1.365 1_565 S
N1235 C1232 1.341 . S
N1235 N1234 1.365 1_545 S
N1235 H1255 0.863 . S
C1236 C1231 1.496 1_565 S
C1236 H1237 0.976 . S
C1236 H1238 0.961 . S
C1236 H1239 0.950 1_565 S
H1237 C1236 0.976 . S
H1238 C1236 0.961 . S
H1239 C1236 0.950 1_545 S
C1240 N1241 1.342 . S
C1240 C1244 1.401 . S
C1240 C1245 1.499 . S
N1241 Co1224 1.989 . S
N1241 C1240 1.342 . S
N1241 N1242 1.388 . S
N1242 Co1225 1.993 . S
N1242 N1241 1.388 . S
N1242 C1243 1.346 . S
C1243 N1242 1.346 . S
C1243 C1244 1.396 . S
C1243 C1253 1.510 . S
C1244 C1240 1.401 . S
C1244 C1243 1.396 . S
C1245 C1240 1.499 . S
C1245 H1246 0.959 . S
C1245 H1247 0.960 . S
C1245 H1248 0.961 . S
H1246 C1245 0.959 . S
H1247 C1245 0.960 . S
H1248 C1245 0.961 . S
O1249 Co1224 1.967 . S
O1249 C1257 1.258 . S
O1250 Co1225 1.941 . S
O1250 C1257 1.266 . S
H1251 C1253 0.959 . S
H1252 C1253 0.961 . S
C1253 C1243 1.510 . S
C1253 H1251 0.959 . S
C1253 H1252 0.961 . S
C1253 H1254 0.960 . S
H1254 C1253 0.960 . S
H1255 N1235 0.863 . S
O1256 Co1224 1.920 . S
O1256 C1229 1.289 . S
C1257 O1249 1.258 . S
C1257 O1250 1.266 . S
Co1258 O1261 1.970 . S
Co1258 N1275 1.989 . S
Co1258 O1283 1.967 . S
Co1258 O1290 1.920 . S
Co1259 O1262 1.966 . S
Co1259 N1268 2.022 . S
Co1259 N1276 1.993 . S
Co1259 O1284 1.941 . S
C1260 O1261 1.258 . S
C1260 O1262 1.263 . S
O1261 Co1258 1.970 . S
O1261 C1260 1.258 . S
O1262 Co1259 1.966 . S
O1262 C1260 1.263 . S
C1263 O1264 1.235 . S
C1263 O1290 1.289 . S
O1264 C1263 1.235 . S
C1265 C1267 1.400 . S
C1265 N1268 1.351 . S
C1265 C1270 1.501 . S
C1266 C1267 1.387 . S
C1266 N1269 1.341 . S
C1267 C1265 1.400 . S
C1267 C1266 1.387 . S
N1268 Co1259 2.022 . S
N1268 C1265 1.351 . S
N1268 N1269 1.365 . S
N1269 C1266 1.341 . S
N1269 N1268 1.365 . S
N1269 H1289 0.862 . S
C1270 C1265 1.501 . S
C1270 H1271 0.961 . S
C1270 H1272 0.961 . S
C1270 H1273 0.960 . S
H1271 C1270 0.961 . S
H1272 C1270 0.961 . S
H1273 C1270 0.960 . S
C1274 N1275 1.342 . S
C1274 C1278 1.401 . S
C1274 C1279 1.499 . S
N1275 Co1258 1.989 . S
N1275 C1274 1.342 . S
N1275 N1276 1.388 . S
N1276 Co1259 1.993 . S
N1276 N1275 1.388 . S
N1276 C1277 1.346 . S
C1277 N1276 1.346 . S
C1277 C1278 1.396 . S
C1277 C1287 1.510 . S
C1278 C1274 1.401 . S
C1278 C1277 1.396 . S
C1279 C1274 1.499 . S
C1279 H1280 0.959 . S
C1279 H1281 0.960 . S
C1279 H1282 0.961 . S
H1280 C1279 0.959 . S
H1281 C1279 0.960 . S
H1282 C1279 0.961 . S
O1283 Co1258 1.967 . S
O1283 C1291 1.258 . S
O1284 Co1259 1.941 . S
O1284 C1291 1.266 . S
H1285 C1287 0.959 . S
H1286 C1287 0.961 . S
C1287 C1277 1.510 . S
C1287 H1285 0.959 . S
C1287 H1286 0.961 . S
C1287 H1288 0.960 . S
H1288 C1287 0.960 . S
H1289 N1269 0.862 . S
O1290 Co1258 1.920 . S
O1290 C1263 1.289 . S
C1291 O1283 1.258 . S
C1291 O1284 1.266 . S
Co1292 O1295 1.970 . S
Co1292 N1309 1.989 . S
Co1292 O1317 1.967 . S
Co1292 O1324 1.920 . S
Co1293 O1296 1.966 . S
Co1293 N1302 2.022 . S
Co1293 N1310 1.993 . S
Co1293 O1318 1.941 . S
C1294 O1295 1.258 . S
C1294 O1296 1.263 . S
O1295 Co1292 1.970 . S
O1295 C1294 1.258 . S
O1296 Co1293 1.966 . S
O1296 C1294 1.263 . S
C1297 O1298 1.235 . S
C1297 O1324 1.289 . S
O1298 C1297 1.235 . S
C1299 C1301 1.400 . S
C1299 N1302 1.351 1_655 S
C1299 C1304 1.501 1_655 S
C1300 C1301 1.387 . S
C1300 N1303 1.362 . S
C1301 C1299 1.400 . S
C1301 C1300 1.387 . S
N1302 Co1293 2.022 . S
N1302 C1299 1.351 1_455 S
N1302 N1303 1.354 1_455 S
N1303 C1300 1.362 . S
N1303 N1302 1.354 1_655 S
N1303 H1323 0.853 1_655 S
C1304 C1299 1.501 1_455 S
C1304 H1305 0.961 . S
C1304 H1306 0.961 . S
C1304 H1307 0.960 1_455 S
H1305 C1304 0.961 . S
H1306 C1304 0.961 . S
H1307 C1304 0.960 1_655 S
C1308 N1309 1.342 . S
C1308 C1312 1.401 . S
C1308 C1313 1.499 . S
N1309 Co1292 1.989 . S
N1309 C1308 1.342 . S
N1309 N1310 1.388 . S
N1310 Co1293 1.993 . S
N1310 N1309 1.388 . S
N1310 C1311 1.346 . S
C1311 N1310 1.346 . S
C1311 C1312 1.396 . S
C1311 C1321 1.510 . S
C1312 C1308 1.401 . S
C1312 C1311 1.396 . S
C1313 C1308 1.499 . S
C1313 H1314 0.959 . S
C1313 H1315 0.960 . S
C1313 H1316 0.961 . S
H1314 C1313 0.959 . S
H1315 C1313 0.960 . S
H1316 C1313 0.961 . S
O1317 Co1292 1.967 . S
O1317 C1325 1.258 . S
O1318 Co1293 1.941 . S
O1318 C1325 1.266 . S
H1319 C1321 0.959 . S
H1320 C1321 0.961 . S
C1321 C1311 1.510 . S
C1321 H1319 0.959 . S
C1321 H1320 0.961 . S
C1321 H1322 0.960 . S
H1322 C1321 0.960 . S
H1323 N1303 0.853 1_455 S
O1324 Co1292 1.920 . S
O1324 C1297 1.289 . S
C1325 O1317 1.258 . S
C1325 O1318 1.266 . S
Co1326 O1329 1.970 . S
Co1326 N1343 1.989 . S
Co1326 O1351 1.967 . S
Co1326 O1358 1.920 . S
Co1327 O1330 1.966 . S
Co1327 N1336 2.022 . S
Co1327 N1344 1.993 . S
Co1327 O1352 1.941 . S
C1328 O1329 1.258 . S
C1328 O1330 1.263 . S
O1329 Co1326 1.970 . S
O1329 C1328 1.258 . S
O1330 Co1327 1.966 . S
O1330 C1328 1.263 . S
C1331 O1332 1.235 . S
C1331 O1358 1.289 . S
O1332 C1331 1.235 . S
C1333 C1335 1.400 . S
C1333 N1336 1.351 . S
C1333 C1338 1.501 . S
C1334 C1335 1.387 . S
C1334 N1337 1.341 . S
C1335 C1333 1.400 . S
C1335 C1334 1.387 . S
N1336 Co1327 2.022 . S
N1336 C1333 1.351 . S
N1336 N1337 1.365 . S
N1337 C1334 1.341 . S
N1337 N1336 1.365 . S
N1337 H1357 0.862 . S
C1338 C1333 1.501 . S
C1338 H1339 0.961 . S
C1338 H1340 0.961 . S
C1338 H1341 0.960 . S
H1339 C1338 0.961 . S
H1340 C1338 0.961 . S
H1341 C1338 0.960 . S
C1342 N1343 1.342 . S
C1342 C1346 1.401 . S
C1342 C1347 1.499 . S
N1343 Co1326 1.989 . S
N1343 C1342 1.342 . S
N1343 N1344 1.388 . S
N1344 Co1327 1.993 . S
N1344 N1343 1.388 . S
N1344 C1345 1.346 . S
C1345 N1344 1.346 . S
C1345 C1346 1.396 . S
C1345 C1355 1.510 . S
C1346 C1342 1.401 . S
C1346 C1345 1.396 . S
C1347 C1342 1.499 . S
C1347 H1348 0.959 . S
C1347 H1349 0.960 . S
C1347 H1350 0.961 . S
H1348 C1347 0.959 . S
H1349 C1347 0.960 . S
H1350 C1347 0.961 . S
O1351 Co1326 1.967 . S
O1351 C1359 1.258 . S
O1352 Co1327 1.941 . S
O1352 C1359 1.266 . S
H1353 C1355 0.959 . S
H1354 C1355 0.961 . S
C1355 C1345 1.510 . S
C1355 H1353 0.959 . S
C1355 H1354 0.961 . S
C1355 H1356 0.960 . S
H1356 C1355 0.960 . S
H1357 N1337 0.862 . S
O1358 Co1326 1.920 . S
O1358 C1331 1.289 . S
C1359 O1351 1.258 . S
C1359 O1352 1.266 . S
Co1360 O1363 1.970 . S
Co1360 N1377 1.989 . S
Co1360 O1385 1.967 . S
Co1360 O1392 1.920 . S
Co1361 O1364 1.966 . S
Co1361 N1370 2.022 . S
Co1361 N1378 1.993 . S
Co1361 O1386 1.941 . S
C1362 O1363 1.258 . S
C1362 O1364 1.263 . S
O1363 Co1360 1.970 . S
O1363 C1362 1.258 . S
O1364 Co1361 1.966 . S
O1364 C1362 1.263 . S
C1365 O1366 1.235 1_655 S
C1365 O1392 1.289 1_655 S
O1366 C1365 1.235 1_455 S
C1367 C1369 1.400 . S
C1367 N1370 1.351 . S
C1367 C1372 1.501 . S
C1368 C1369 1.387 . S
C1368 N1371 1.341 . S
C1369 C1367 1.400 . S
C1369 C1368 1.387 . S
N1370 Co1361 2.022 . S
N1370 C1367 1.351 . S
N1370 N1371 1.365 . S
N1371 C1368 1.341 . S
N1371 N1370 1.365 . S
N1371 H1391 0.862 . S
C1372 C1367 1.501 . S
C1372 H1373 0.961 . S
C1372 H1374 0.961 . S
C1372 H1375 0.960 . S
H1373 C1372 0.961 . S
H1374 C1372 0.961 . S
H1375 C1372 0.960 . S
C1376 N1377 1.342 . S
C1376 C1380 1.401 . S
C1376 C1381 1.499 . S
N1377 Co1360 1.989 . S
N1377 C1376 1.342 . S
N1377 N1378 1.388 . S
N1378 Co1361 1.993 . S
N1378 N1377 1.388 . S
N1378 C1379 1.346 . S
C1379 N1378 1.346 . S
C1379 C1380 1.396 . S
C1379 C1389 1.510 . S
C1380 C1376 1.401 . S
C1380 C1379 1.396 . S
C1381 C1376 1.499 . S
C1381 H1382 0.959 . S
C1381 H1383 0.960 . S
C1381 H1384 0.961 . S
H1382 C1381 0.959 . S
H1383 C1381 0.960 . S
H1384 C1381 0.961 . S
O1385 Co1360 1.967 . S
O1385 C1393 1.258 . S
O1386 Co1361 1.941 . S
O1386 C1393 1.266 . S
H1387 C1389 0.959 . S
H1388 C1389 0.961 . S
C1389 C1379 1.510 . S
C1389 H1387 0.959 . S
C1389 H1388 0.961 . S
C1389 H1390 0.960 . S
H1390 C1389 0.960 . S
H1391 N1371 0.862 . S
O1392 Co1360 1.920 . S
O1392 C1365 1.289 1_455 S
C1393 O1385 1.258 . S
C1393 O1386 1.266 . S
Co1394 O1397 1.970 . S
Co1394 N1411 1.989 . S
Co1394 O1419 1.967 . S
Co1394 O1426 1.920 . S
Co1395 O1398 1.966 . S
Co1395 N1404 2.022 . S
Co1395 N1412 1.993 . S
Co1395 O1420 1.941 . S
C1396 O1397 1.258 . S
C1396 O1398 1.263 . S
O1397 Co1394 1.970 . S
O1397 C1396 1.258 . S
O1398 Co1395 1.966 . S
O1398 C1396 1.263 . S
C1399 O1400 1.235 . S
C1399 O1426 1.289 . S
O1400 C1399 1.235 . S
C1401 C1403 1.400 . S
C1401 N1404 1.351 . S
C1401 C1406 1.501 . S
C1402 C1403 1.387 . S
C1402 N1405 1.341 . S
C1403 C1401 1.400 . S
C1403 C1402 1.387 . S
N1404 Co1395 2.022 . S
N1404 C1401 1.351 . S
N1404 N1405 1.365 . S
N1405 C1402 1.341 . S
N1405 N1404 1.365 . S
N1405 H1425 0.862 . S
C1406 C1401 1.501 . S
C1406 H1407 0.961 . S
C1406 H1408 0.961 . S
C1406 H1409 0.960 . S
H1407 C1406 0.961 . S
H1408 C1406 0.961 . S
H1409 C1406 0.960 . S
C1410 N1411 1.342 . S
C1410 C1414 1.401 . S
C1410 C1415 1.499 . S
N1411 Co1394 1.989 . S
N1411 C1410 1.342 . S
N1411 N1412 1.388 . S
N1412 Co1395 1.993 . S
N1412 N1411 1.388 . S
N1412 C1413 1.346 . S
C1413 N1412 1.346 . S
C1413 C1414 1.396 . S
C1413 C1423 1.510 . S
C1414 C1410 1.401 . S
C1414 C1413 1.396 . S
C1415 C1410 1.499 . S
C1415 H1416 0.959 . S
C1415 H1417 0.960 . S
C1415 H1418 0.961 . S
H1416 C1415 0.959 . S
H1417 C1415 0.960 . S
H1418 C1415 0.961 . S
O1419 Co1394 1.967 . S
O1419 C1427 1.258 . S
O1420 Co1395 1.941 . S
O1420 C1427 1.266 . S
H1421 C1423 0.959 . S
H1422 C1423 0.961 . S
C1423 C1413 1.510 . S
C1423 H1421 0.959 . S
C1423 H1422 0.961 . S
C1423 H1424 0.960 . S
H1424 C1423 0.960 . S
H1425 N1405 0.862 . S
O1426 Co1394 1.920 . S
O1426 C1399 1.289 . S
C1427 O1419 1.258 . S
C1427 O1420 1.266 . S
Co1428 O1431 1.970 . S
Co1428 N1445 1.989 . S
Co1428 O1453 1.967 . S
Co1428 O1460 1.920 . S
Co1429 O1432 1.966 . S
Co1429 N1438 2.022 . S
Co1429 N1446 1.993 . S
Co1429 O1454 1.941 . S
C1430 O1431 1.258 . S
C1430 O1432 1.263 . S
O1431 Co1428 1.970 . S
O1431 C1430 1.258 . S
O1432 Co1429 1.966 . S
O1432 C1430 1.263 . S
C1433 O1434 1.235 . S
C1433 O1460 1.289 . S
O1434 C1433 1.235 . S
C1435 C1437 1.400 . S
C1435 N1438 1.351 . S
C1435 C1440 1.501 . S
C1436 C1437 1.387 . S
C1436 N1439 1.341 . S
C1437 C1435 1.400 . S
C1437 C1436 1.387 . S
N1438 Co1429 2.022 . S
N1438 C1435 1.351 . S
N1438 N1439 1.365 . S
N1439 C1436 1.341 . S
N1439 N1438 1.365 . S
N1439 H1459 0.862 . S
C1440 C1435 1.501 . S
C1440 H1441 0.961 . S
C1440 H1442 0.961 . S
C1440 H1443 0.960 . S
H1441 C1440 0.961 . S
H1442 C1440 0.961 . S
H1443 C1440 0.960 . S
C1444 N1445 1.342 . S
C1444 C1448 1.401 . S
C1444 C1449 1.499 . S
N1445 Co1428 1.989 . S
N1445 C1444 1.342 . S
N1445 N1446 1.388 . S
N1446 Co1429 1.993 . S
N1446 N1445 1.388 . S
N1446 C1447 1.346 . S
C1447 N1446 1.346 . S
C1447 C1448 1.396 . S
C1447 C1457 1.510 . S
C1448 C1444 1.401 . S
C1448 C1447 1.396 . S
C1449 C1444 1.499 . S
C1449 H1450 0.959 . S
C1449 H1451 0.960 . S
C1449 H1452 0.961 . S
H1450 C1449 0.959 . S
H1451 C1449 0.960 . S
H1452 C1449 0.961 . S
O1453 Co1428 1.967 . S
O1453 C1461 1.258 . S
O1454 Co1429 1.941 . S
O1454 C1461 1.266 . S
H1455 C1457 0.959 . S
H1456 C1457 0.961 . S
C1457 C1447 1.510 . S
C1457 H1455 0.959 . S
C1457 H1456 0.961 . S
C1457 H1458 0.960 . S
H1458 C1457 0.960 . S
H1459 N1439 0.862 . S
O1460 Co1428 1.920 . S
O1460 C1433 1.289 . S
C1461 O1453 1.258 . S
C1461 O1454 1.266 . S
Co1462 O1465 1.970 . S
Co1462 N1479 1.989 . S
Co1462 O1487 1.967 . S
Co1462 O1494 1.920 . S
Co1463 O1466 1.966 . S
Co1463 N1472 2.022 . S
Co1463 N1480 1.993 . S
Co1463 O1488 1.941 . S
C1464 O1465 1.258 . S
C1464 O1466 1.263 . S
O1465 Co1462 1.970 . S
O1465 C1464 1.258 . S
O1466 Co1463 1.966 . S
O1466 C1464 1.263 . S
C1467 O1468 1.235 . S
C1467 O1494 1.289 . S
O1468 C1467 1.235 . S
C1469 C1471 1.400 . S
C1469 N1472 1.351 . S
C1469 C1474 1.501 . S
C1470 C1471 1.387 . S
C1470 N1473 1.341 . S
C1471 C1469 1.400 . S
C1471 C1470 1.387 . S
N1472 Co1463 2.022 . S
N1472 C1469 1.351 . S
N1472 N1473 1.365 . S
N1473 C1470 1.341 . S
N1473 N1472 1.365 . S
N1473 H1493 0.862 . S
C1474 C1469 1.501 . S
C1474 H1475 0.961 . S
C1474 H1476 0.961 . S
C1474 H1477 0.960 . S
H1475 C1474 0.961 . S
H1476 C1474 0.961 . S
H1477 C1474 0.960 . S
C1478 N1479 1.342 . S
C1478 C1482 1.401 . S
C1478 C1483 1.499 . S
N1479 Co1462 1.989 . S
N1479 C1478 1.342 . S
N1479 N1480 1.388 . S
N1480 Co1463 1.993 . S
N1480 N1479 1.388 . S
N1480 C1481 1.346 . S
C1481 N1480 1.346 . S
C1481 C1482 1.396 . S
C1481 C1491 1.510 . S
C1482 C1478 1.401 . S
C1482 C1481 1.396 . S
C1483 C1478 1.499 . S
C1483 H1484 0.959 . S
C1483 H1485 0.960 . S
C1483 H1486 0.961 . S
H1484 C1483 0.959 . S
H1485 C1483 0.960 . S
H1486 C1483 0.961 . S
O1487 Co1462 1.967 . S
O1487 C1495 1.258 . S
O1488 Co1463 1.941 . S
O1488 C1495 1.266 . S
H1489 C1491 0.959 . S
H1490 C1491 0.961 . S
C1491 C1481 1.510 . S
C1491 H1489 0.959 . S
C1491 H1490 0.961 . S
C1491 H1492 0.960 . S
H1492 C1491 0.960 . S
H1493 N1473 0.862 . S
O1494 Co1462 1.920 . S
O1494 C1467 1.289 . S
C1495 O1487 1.258 . S
C1495 O1488 1.266 . S
Co1496 O1499 1.970 . S
Co1496 N1513 1.989 . S
Co1496 O1521 1.967 . S
Co1496 O1528 1.920 . S
Co1497 O1500 1.966 . S
Co1497 N1506 2.022 . S
Co1497 N1514 1.993 . S
Co1497 O1522 1.941 . S
C1498 O1499 1.258 . S
C1498 O1500 1.263 . S
O1499 Co1496 1.970 . S
O1499 C1498 1.258 . S
O1500 Co1497 1.966 . S
O1500 C1498 1.263 . S
C1501 O1502 1.235 . S
C1501 O1528 1.289 . S
O1502 C1501 1.235 . S
C1503 C1505 1.400 . S
C1503 N1506 1.351 . S
C1503 C1508 1.501 . S
C1504 C1505 1.387 . S
C1504 N1507 1.341 . S
C1505 C1503 1.400 . S
C1505 C1504 1.387 . S
N1506 Co1497 2.022 . S
N1506 C1503 1.351 . S
N1506 N1507 1.365 . S
N1507 C1504 1.341 . S
N1507 N1506 1.365 . S
N1507 H1527 0.862 . S
C1508 C1503 1.501 . S
C1508 H1509 0.961 . S
C1508 H1510 0.961 . S
C1508 H1511 0.960 . S
H1509 C1508 0.961 . S
H1510 C1508 0.961 . S
H1511 C1508 0.960 . S
C1512 N1513 1.342 . S
C1512 C1516 1.401 . S
C1512 C1517 1.499 . S
N1513 Co1496 1.989 . S
N1513 C1512 1.342 . S
N1513 N1514 1.388 . S
N1514 Co1497 1.993 . S
N1514 N1513 1.388 . S
N1514 C1515 1.346 . S
C1515 N1514 1.346 . S
C1515 C1516 1.396 . S
C1515 C1525 1.510 . S
C1516 C1512 1.401 . S
C1516 C1515 1.396 . S
C1517 C1512 1.499 . S
C1517 H1518 0.959 . S
C1517 H1519 0.960 . S
C1517 H1520 0.961 . S
H1518 C1517 0.959 . S
H1519 C1517 0.960 . S
H1520 C1517 0.961 . S
O1521 Co1496 1.967 . S
O1521 C1529 1.258 . S
O1522 Co1497 1.941 . S
O1522 C1529 1.266 . S
H1523 C1525 0.959 . S
H1524 C1525 0.961 . S
C1525 C1515 1.510 . S
C1525 H1523 0.959 . S
C1525 H1524 0.961 . S
C1525 H1526 0.960 . S
H1526 C1525 0.960 . S
H1527 N1507 0.862 . S
O1528 Co1496 1.920 . S
O1528 C1501 1.289 . S
C1529 O1521 1.258 . S
C1529 O1522 1.266 . S
Co1530 O1533 1.970 . S
Co1530 N1547 1.989 . S
Co1530 O1555 1.967 . S
Co1530 O1562 1.920 . S
Co1531 O1534 1.966 . S
Co1531 N1540 2.022 . S
Co1531 N1548 1.993 . S
Co1531 O1556 1.941 . S
C1532 O1533 1.258 . S
C1532 O1534 1.263 . S
O1533 Co1530 1.970 . S
O1533 C1532 1.258 . S
O1534 Co1531 1.966 . S
O1534 C1532 1.263 . S
C1535 O1536 1.235 . S
C1535 O1562 1.289 . S
O1536 C1535 1.235 . S
C1537 C1539 1.400 . S
C1537 N1540 1.351 . S
C1537 C1542 1.501 . S
C1538 C1539 1.387 . S
C1538 N1541 1.341 . S
C1539 C1537 1.400 . S
C1539 C1538 1.387 . S
N1540 Co1531 2.022 . S
N1540 C1537 1.351 . S
N1540 N1541 1.365 . S
N1541 C1538 1.341 . S
N1541 N1540 1.365 . S
N1541 H1561 0.862 . S
C1542 C1537 1.501 . S
C1542 H1543 0.961 . S
C1542 H1544 0.961 . S
C1542 H1545 0.960 . S
H1543 C1542 0.961 . S
H1544 C1542 0.961 . S
H1545 C1542 0.960 . S
C1546 N1547 1.342 . S
C1546 C1550 1.401 . S
C1546 C1551 1.499 . S
N1547 Co1530 1.989 . S
N1547 C1546 1.342 . S
N1547 N1548 1.388 . S
N1548 Co1531 1.993 . S
N1548 N1547 1.388 . S
N1548 C1549 1.346 . S
C1549 N1548 1.346 . S
C1549 C1550 1.396 . S
C1549 C1559 1.510 . S
C1550 C1546 1.401 . S
C1550 C1549 1.396 . S
C1551 C1546 1.499 . S
C1551 H1552 0.959 . S
C1551 H1553 0.960 . S
C1551 H1554 0.961 1_556 S
H1552 C1551 0.959 . S
H1553 C1551 0.960 . S
H1554 C1551 0.961 1_554 S
O1555 Co1530 1.967 . S
O1555 C1563 1.258 . S
O1556 Co1531 1.941 . S
O1556 C1563 1.266 . S
H1557 C1559 0.959 . S
H1558 C1559 0.961 . S
C1559 C1549 1.510 . S
C1559 H1557 0.959 . S
C1559 H1558 0.961 . S
C1559 H1560 0.960 . S
H1560 C1559 0.960 . S
H1561 N1541 0.862 . S
O1562 Co1530 1.920 . S
O1562 C1535 1.289 . S
C1563 O1555 1.258 . S
C1563 O1556 1.266 . S
Co1564 O1567 1.970 . S
Co1564 N1581 1.989 . S
Co1564 O1589 1.967 . S
Co1564 O1596 1.920 . S
Co1565 O1568 1.966 . S
Co1565 N1574 2.022 . S
Co1565 N1582 1.993 . S
Co1565 O1590 1.941 . S
C1566 O1567 1.258 . S
C1566 O1568 1.263 . S
O1567 Co1564 1.970 . S
O1567 C1566 1.258 . S
O1568 Co1565 1.966 . S
O1568 C1566 1.263 . S
C1569 O1570 1.235 . S
C1569 O1596 1.289 . S
O1570 C1569 1.235 . S
C1571 C1573 1.400 . S
C1571 N1574 1.351 . S
C1571 C1576 1.501 . S
C1572 C1573 1.387 . S
C1572 N1575 1.341 . S
C1573 C1571 1.400 . S
C1573 C1572 1.387 . S
N1574 Co1565 2.022 . S
N1574 C1571 1.351 . S
N1574 N1575 1.365 . S
N1575 C1572 1.341 . S
N1575 N1574 1.365 . S
N1575 H1595 0.862 . S
C1576 C1571 1.501 . S
C1576 H1577 0.961 . S
C1576 H1578 0.961 . S
C1576 H1579 0.960 . S
H1577 C1576 0.961 . S
H1578 C1576 0.961 . S
H1579 C1576 0.960 . S
C1580 N1581 1.342 . S
C1580 C1584 1.401 . S
C1580 C1585 1.499 . S
N1581 Co1564 1.989 . S
N1581 C1580 1.342 . S
N1581 N1582 1.388 . S
N1582 Co1565 1.993 . S
N1582 N1581 1.388 . S
N1582 C1583 1.346 . S
C1583 N1582 1.346 . S
C1583 C1584 1.396 . S
C1583 C1593 1.510 . S
C1584 C1580 1.401 . S
C1584 C1583 1.396 . S
C1585 C1580 1.499 . S
C1585 H1586 0.959 . S
C1585 H1587 0.960 . S
C1585 H1588 0.961 . S
H1586 C1585 0.959 . S
H1587 C1585 0.960 . S
H1588 C1585 0.961 . S
O1589 Co1564 1.967 . S
O1589 C1597 1.258 . S
O1590 Co1565 1.941 . S
O1590 C1597 1.266 . S
H1591 C1593 0.959 . S
H1592 C1593 0.961 . S
C1593 C1583 1.510 . S
C1593 H1591 0.959 . S
C1593 H1592 0.961 . S
C1593 H1594 0.960 . S
H1594 C1593 0.960 . S
H1595 N1575 0.862 . S
O1596 Co1564 1.920 . S
O1596 C1569 1.289 . S
C1597 O1589 1.258 . S
C1597 O1590 1.266 . S
Co1598 O1601 1.970 . S
Co1598 N1615 1.989 . S
Co1598 O1623 1.967 . S
Co1598 O1630 1.920 . S
Co1599 O1602 1.966 . S
Co1599 N1608 2.022 . S
Co1599 N1616 1.993 . S
Co1599 O1624 1.941 . S
C1600 O1601 1.258 . S
C1600 O1602 1.263 . S
O1601 Co1598 1.970 . S
O1601 C1600 1.258 . S
O1602 Co1599 1.966 . S
O1602 C1600 1.263 . S
C1603 O1604 1.235 . S
C1603 O1630 1.289 . S
O1604 C1603 1.235 . S
C1605 C1607 1.400 . S
C1605 N1608 1.351 . S
C1605 C1610 1.501 . S
C1606 C1607 1.387 . S
C1606 N1609 1.341 . S
C1607 C1605 1.400 . S
C1607 C1606 1.387 . S
N1608 Co1599 2.022 . S
N1608 C1605 1.351 . S
N1608 N1609 1.365 . S
N1609 C1606 1.341 . S
N1609 N1608 1.365 . S
N1609 H1629 0.862 . S
C1610 C1605 1.501 . S
C1610 H1611 0.961 . S
C1610 H1612 0.961 . S
C1610 H1613 0.960 . S
H1611 C1610 0.961 . S
H1612 C1610 0.961 . S
H1613 C1610 0.960 . S
C1614 N1615 1.342 . S
C1614 C1618 1.401 . S
C1614 C1619 1.499 . S
N1615 Co1598 1.989 . S
N1615 C1614 1.342 . S
N1615 N1616 1.388 . S
N1616 Co1599 1.993 . S
N1616 N1615 1.388 . S
N1616 C1617 1.346 . S
C1617 N1616 1.346 . S
C1617 C1618 1.396 . S
C1617 C1627 1.510 . S
C1618 C1614 1.401 . S
C1618 C1617 1.396 . S
C1619 C1614 1.499 . S
C1619 H1620 0.959 . S
C1619 H1621 0.960 . S
C1619 H1622 0.961 . S
H1620 C1619 0.959 . S
H1621 C1619 0.960 . S
H1622 C1619 0.961 . S
O1623 Co1598 1.967 . S
O1623 C1631 1.258 . S
O1624 Co1599 1.941 . S
O1624 C1631 1.266 . S
H1625 C1627 0.959 . S
H1626 C1627 0.961 . S
C1627 C1617 1.510 . S
C1627 H1625 0.959 . S
C1627 H1626 0.961 . S
C1627 H1628 0.960 . S
H1628 C1627 0.960 . S
H1629 N1609 0.862 . S
O1630 Co1598 1.920 . S
O1630 C1603 1.289 . S
C1631 O1623 1.258 . S
C1631 O1624 1.266 . S
C5 C1294 1.859 . S
C39 C1257 2.183 . S
C77 C1600 1.595 . S
C1189 C111 1.386 . S
C141 C1393 2.052 . S
C1090 C179 1.500 . S
C209 C1427 2.301 . S
C243 C1022 1.943 . S
C1053 C277 1.867 . S
C315 C1362 1.513 . S
C345 C1121 2.673 . S
C1396 C379 2.079 . S
C417 C1226 1.487 . S
C447 C1631 2.195 . S
C1158 C481 2.251 . S
C515 C1325 1.895 . S
C818 C383 1.734 . S
C747 C553 1.721 . S
C587 C951 1.240 . S
C784 C621 1.790 . S
C849 C413 1.833 . S
C311 C750 2.096 . S
C815 C655 1.898 . S
C716 C689 1.899 . S
C611 C719 1.944 . S
C543 C753 2.620 . S
C1498 C791 1.464 . S
C821 C475 2.285 . S
C679 C859 1.619 . S
C893 C407 1.243 . S
C713 C927 1.868 . S
C308 C957 1.947 . S
C339 C991 1.867 . S
C648 C1029 1.749 . S
C1059 C376 2.205 . S
C1097 C682 1.665 . S
C1131 C512 1.539 . S
C1161 C1529 2.537 . S
C1199 C444 1.448 . S
C1229 C580 1.892 . S
C135 C1093 1.822 . S
C33 C1267 1.631 . S
C206 C1297 1.884 . S
C70 C1335 1.886 . S
C1127 C104 1.917 . S
C36 C1025 1.968 . S
C101 C1369 1.644 . S
C1403 C2 1.549 . S
C1192 C175 1.950 . S
C1359 C213 1.702 . S
C247 C1124 1.538 . S
C1291 C145 1.385 . S
C107 C1087 2.131 . S
C9 C1566 1.435 . S
C1019 C43 1.589 . S
C73 C1532 1.994 . S
C685 C1563 1.999 . S
C1437 C1056 1.515 . S
C651 C1597 2.724 . S
C988 C1467 2.210 . S
C1505 C1328 1.712 . S
C549 C1155 2.228 . S
C1260 C583 2.322 . S
C617 C1223 2.027 . S
C852 C1471 1.736 . S
C451 C917 1.658 . S
C485 C781 1.265 . S
C954 C519 1.762 . S
C883 C1501 1.844 . S
C920 C1433 2.029 . S
C349 C985 1.853 . S
C886 C281 1.882 . S
C509 C889 1.991 . S
C645 C923 2.627 . S
C410 C961 1.461 . S
C855 C577 2.271 . S
C373 C825 1.618 . S
C723 C1495 1.256 . S
C305 C757 1.813 . S
C1430 C787 1.899 . S
C1461 C1399 1.683 . S
C1539 C342 1.775 . S
C1464 C1365 2.204 . S
C1573 C274 1.595 . S
C614 C1607 1.610 . S
C441 C1263 2.519 . S
C1301 C546 1.417 . S
C478 C1331 2.042 . S
C1569 C169 1.859 . S
C203 C1165 1.577 . S
C67 C1195 1.861 . S
C1233 C240 1.717 . S
C1603 C138 1.909 . S
C1535 C237 1.944 . S
C1063 C271 1.705 . S
C172 C995 1.740 . S
C258 C20 2.242 1_655 S
C156 C54 2.896 1_455 S
C190 C88 2.344 . S
C224 C122 2.915 . S
C428 C292 2.483 1_565 S
C462 C326 2.780 . S
C496 C360 2.600 1_545 S
C530 C394 2.621 1_556 S
C1448 C564 2.763 1_554 S
C598 C666 2.587 . S
C632 C1482 2.714 . S
C700 C1516 2.549 . S
C734 C972 2.268 1_655 S
C870 C768 2.696 1_655 S
C904 C802 2.269 . S
C938 C836 2.715 . S
C1142 C1006 2.623 1_545 S
C1040 C1176 2.769 . S
C1074 C1210 2.765 1_545 S
C1108 C1244 2.601 1_556 S
C1550 C1278 2.812 1_556 S
C1380 C1312 2.735 . S
C1346 C1584 2.554 . S
C1618 C1414 2.694 . S
