# Generated by pormake.
# Topology snx, (6)-cn, num edge types: 1
# Building blocks:
#     Node 0, Type 0, BuildingBlock: IZENUY_clean_sbu_0, # of connection points: 6
#     Node 1, Type 0, BuildingBlock: IZENUY_clean_sbu_0, # of connection points: 6
#     Node 2, Type 0, BuildingBlock: IZENUY_clean_sbu_0, # of connection points: 6
#     Node 3, Type 0, BuildingBlock: IZENUY_clean_sbu_0, # of connection points: 6
#     Node 4, Type 0, BuildingBlock: IZENUY_clean_sbu_0, # of connection points: 6
#     Node 5, Type 0, BuildingBlock: IZENUY_clean_sbu_0, # of connection points: 6
#     Edge 6, Type (0, 0), BuildingBlock: XIVTED_clean_linker_0, # of connection points: 2
#     Edge 7, Type (0, 0), BuildingBlock: XIVTED_clean_linker_0, # of connection points: 2
#     Edge 8, Type (0, 0), BuildingBlock: XIVTED_clean_linker_0, # of connection points: 2
#     Edge 9, Type (0, 0), BuildingBlock: XIVTED_clean_linker_0, # of connection points: 2
#     Edge 10, Type (0, 0), BuildingBlock: XIVTED_clean_linker_0, # of connection points: 2
#     Edge 11, Type (0, 0), BuildingBlock: XIVTED_clean_linker_0, # of connection points: 2
#     Edge 12, Type (0, 0), BuildingBlock: XIVTED_clean_linker_0, # of connection points: 2
#     Edge 13, Type (0, 0), BuildingBlock: XIVTED_clean_linker_0, # of connection points: 2
#     Edge 14, Type (0, 0), BuildingBlock: XIVTED_clean_linker_0, # of connection points: 2
#     Edge 15, Type (0, 0), BuildingBlock: XIVTED_clean_linker_0, # of connection points: 2
#     Edge 16, Type (0, 0), BuildingBlock: XIVTED_clean_linker_0, # of connection points: 2
#     Edge 17, Type (0, 0), BuildingBlock: XIVTED_clean_linker_0, # of connection points: 2
#     Edge 18, Type (0, 0), BuildingBlock: XIVTED_clean_linker_0, # of connection points: 2
#     Edge 19, Type (0, 0), BuildingBlock: XIVTED_clean_linker_0, # of connection points: 2
#     Edge 20, Type (0, 0), BuildingBlock: XIVTED_clean_linker_0, # of connection points: 2
#     Edge 21, Type (0, 0), BuildingBlock: XIVTED_clean_linker_0, # of connection points: 2
#     Edge 22, Type (0, 0), BuildingBlock: XIVTED_clean_linker_0, # of connection points: 2
#     Edge 23, Type (0, 0), BuildingBlock: XIVTED_clean_linker_0, # of connection points: 2
# Relax obj value: 0.026
# Max RMSD: 0.068
# Mean RMSD: 0.067
data_MOF--net-snx--node1-IZENUY_clean_sbu_0--edge1-XIVTED_clean_linker_0
_symmetry_space_group_name_H-M    P1
_symmetry_Int_Tables_number       1
_symmetry_cell_setting            triclinic
loop_
_symmetry_equiv_pos_as_xyz
'x, y, z'
_cell_length_a     36.293297
_cell_length_b     36.346165
_cell_length_c     21.514698
_cell_angle_alpha  89.966302
_cell_angle_beta   90.443944
_cell_angle_gamma 120.18248
loop_
_atom_site_label
_atom_site_type_symbol
_atom_site_fract_x
_atom_site_fract_y
_atom_site_fract_z
_atom_type_partial_charge
Fe0 Fe 0.17016 0.32658 0.27194 0.0
Fe1 Fe 0.21516 0.41097 0.34401 0.0
O2 O 0.19917 0.38293 0.27235 0.0
Fe3 Fe 0.21219 0.41111 0.20115 0.0
O4 O 0.1564 0.38736 0.17892 0.0
O5 O 0.13943 0.32179 0.20123 0.0
O6 O 0.1271 0.32541 0.31608 0.0
C7 C 0.13202 0.34265 0.36875 0.0
C8 C 0.22411 0.34127 0.17526 0.0
O9 O 0.16849 0.37147 0.3871 0.0
C10 C 0.28645 0.45864 0.26664 0.0
O11 O 0.19551 0.32085 0.34256 0.0
O12 O 0.24587 0.38591 0.3655 0.0
O13 O 0.21793 0.37096 0.1574 0.0
O14 O 0.21134 0.32415 0.22774 0.0
C15 C 0.19052 0.46 0.27941 0.0
O16 O 0.26462 0.45538 0.31406 0.0
O17 O 0.26896 0.43707 0.2182 0.0
C18 C 0.23039 0.34622 0.36945 0.0
O19 O 0.18575 0.43827 0.32762 0.0
O20 O 0.20869 0.45616 0.2319 0.0
C21 C 0.1312 0.34781 0.17419 0.0
Fe22 Fe 0.80582 0.20757 0.69428 0.0
Fe23 Fe 0.81041 0.21184 0.83697 0.0
O24 O 0.82246 0.19599 0.76571 0.0
Fe25 Fe 0.8511 0.16842 0.7659 0.0
O26 O 0.89377 0.20988 0.72057 0.0
O27 O 0.85189 0.21421 0.65015 0.0
O28 O 0.83577 0.26449 0.70959 0.0
C29 C 0.83143 0.28187 0.75758 0.0
C30 C 0.78959 0.12706 0.67001 0.0
O31 O 0.81366 0.26018 0.80558 0.0
C32 C 0.7981 0.13006 0.86389 0.0
O33 O 0.75683 0.20289 0.72537 0.0
O34 O 0.75351 0.18077 0.82141 0.0
O35 O 0.82474 0.13665 0.69605 0.0
O36 O 0.77453 0.15155 0.67399 0.0
C37 C 0.89153 0.22978 0.86205 0.0
O38 O 0.80502 0.16626 0.88143 0.0
O39 O 0.81022 0.12522 0.81124 0.0
C40 C 0.73553 0.18459 0.7734 0.0
O41 O 0.86643 0.24415 0.85751 0.0
O42 O 0.88276 0.19507 0.83582 0.0
C43 C 0.88845 0.22184 0.66785 0.0
Fe44 Fe 0.69275 0.84917 0.26417 0.0
Fe45 Fe 0.60862 0.80578 0.19021 0.0
O46 O 0.63619 0.81983 0.26256 0.0
Fe47 Fe 0.60731 0.80461 0.33299 0.0
O48 O 0.63112 0.85956 0.35891 0.0
O49 O 0.69699 0.8777 0.33645 0.0
O50 O 0.69385 0.89323 0.22232 0.0
C51 C 0.67712 0.88946 0.1693 0.0
C52 C 0.67703 0.79167 0.35712 0.0
O53 O 0.64847 0.85345 0.14947 0.0
C54 C 0.55989 0.73245 0.26353 0.0
O55 O 0.69907 0.82597 0.19203 0.0
O56 O 0.63406 0.77583 0.16737 0.0
O57 O 0.64684 0.79681 0.37554 0.0
O58 O 0.69555 0.80727 0.30629 0.0
C59 C 0.55903 0.82872 0.25607 0.0
O60 O 0.56374 0.75557 0.21731 0.0
O61 O 0.58122 0.74852 0.31264 0.0
C62 C 0.67388 0.7919 0.16337 0.0
O63 O 0.58114 0.83465 0.2081 0.0
O64 O 0.56264 0.80954 0.30284 0.0
C65 C 0.67067 0.88481 0.36443 0.0
Fe66 Fe 0.85395 0.68879 0.76708 0.0
Fe67 Fe 0.80757 0.60378 0.83789 0.0
O68 O 0.82279 0.63234 0.76686 0.0
Fe69 Fe 0.80675 0.60447 0.69497 0.0
O70 O 0.85417 0.64313 0.65232 0.0
O71 O 0.89621 0.68778 0.72397 0.0
O72 O 0.88406 0.69256 0.83811 0.0
C73 C 0.88945 0.66528 0.86701 0.0
C74 C 0.79467 0.6709 0.66815 0.0
O75 O 0.86238 0.62617 0.86367 0.0
C76 C 0.73418 0.55702 0.77056 0.0
O77 O 0.81394 0.69369 0.81051 0.0
O78 O 0.80154 0.64417 0.87986 0.0
O79 O 0.77762 0.63105 0.67305 0.0
O80 O 0.82965 0.69555 0.69561 0.0
C81 C 0.82924 0.55416 0.76056 0.0
O82 O 0.75127 0.57885 0.81873 0.0
O83 O 0.7564 0.56045 0.7236 0.0
C84 C 0.79779 0.67515 0.86111 0.0
O85 O 0.81107 0.55841 0.80789 0.0
O86 O 0.83475 0.57602 0.71226 0.0
C87 C 0.891 0.67068 0.67122 0.0
Fe88 Fe 0.16875 0.84517 0.27063 0.0
Fe89 Fe 0.21268 0.80448 0.19991 0.0
O90 O 0.19888 0.81904 0.27103 0.0
Fe91 Fe 0.21533 0.80772 0.34282 0.0
O92 O 0.16828 0.79947 0.38593 0.0
O93 O 0.12627 0.80255 0.3146 0.0
O94 O 0.13794 0.81844 0.20006 0.0
C95 C 0.13103 0.78463 0.17288 0.0
C96 C 0.22852 0.8868 0.36874 0.0
O97 O 0.15736 0.77175 0.17663 0.0
C98 C 0.28693 0.83198 0.26541 0.0
O99 O 0.20951 0.88949 0.22659 0.0
O100 O 0.21782 0.85023 0.15644 0.0
O101 O 0.24516 0.86372 0.36389 0.0
O102 O 0.19356 0.87656 0.34153 0.0
C103 C 0.19188 0.73407 0.27884 0.0
O104 O 0.26936 0.83611 0.21722 0.0
O105 O 0.26521 0.81371 0.31312 0.0
C106 C 0.22334 0.88577 0.1747 0.0
O107 O 0.20966 0.75603 0.23094 0.0
O108 O 0.18677 0.75098 0.32673 0.0
C109 C 0.13152 0.79062 0.36735 0.0
Fe110 Fe 0.41473 0.20831 0.70524 0.0
Fe111 Fe 0.4135 0.20818 0.84803 0.0
O112 O 0.38574 0.19402 0.77565 0.0
Fe113 Fe 0.32918 0.16584 0.77366 0.0
O114 O 0.32703 0.12196 0.73025 0.0
O115 O 0.37555 0.16129 0.66162 0.0
O116 O 0.44068 0.17834 0.72544 0.0
C117 C 0.46229 0.18398 0.77435 0.0
C118 C 0.35131 0.22504 0.67485 0.0
O119 O 0.45868 0.20353 0.82046 0.0
C120 C 0.34374 0.22092 0.86985 0.0
O121 O 0.45934 0.2579 0.73569 0.0
O122 O 0.44016 0.26461 0.82968 0.0
O123 O 0.32489 0.19119 0.7023 0.0
O124 O 0.39086 0.23936 0.68004 0.0
C125 C 0.34924 0.12767 0.87378 0.0
O126 O 0.37338 0.21505 0.88909 0.0
O127 O 0.32691 0.20764 0.81699 0.0
C128 C 0.46236 0.28087 0.78181 0.0
O129 O 0.38891 0.15306 0.87184 0.0
O130 O 0.32335 0.13519 0.84442 0.0
C131 C 0.3456 0.12557 0.67939 0.0
H132 H 0.18119 0.50059 0.17969 0.0
H133 H 0.17338 0.68154 0.3804 0.0
H134 H 0.17646 0.49817 0.38016 0.0
H135 H 0.18802 0.68454 0.18117 0.0
H136 H 0.16441 0.60999 0.38168 0.0
H137 H 0.17302 0.56298 0.17997 0.0
C138 C 0.17815 0.51306 0.22389 0.0
C139 C 0.18018 0.4945 0.28004 0.0
C140 C 0.16921 0.62624 0.33771 0.0
C141 C 0.17111 0.5665 0.28074 0.0
C142 C 0.17425 0.66703 0.33689 0.0
C143 C 0.18204 0.68932 0.28065 0.0
C144 C 0.17175 0.60765 0.28186 0.0
C145 C 0.1827 0.66888 0.22573 0.0
C146 C 0.17347 0.54876 0.22402 0.0
C147 C 0.17533 0.51166 0.3358 0.0
N148 N 0.17791 0.62942 0.22781 0.0
N149 N 0.17155 0.5471 0.33481 0.0
H150 H 0.68507 0.1692 0.87587 0.0
H151 H 0.49313 0.15935 0.67641 0.0
H152 H 0.68313 0.17462 0.67547 0.0
H153 H 0.50975 0.18431 0.87388 0.0
H154 H 0.55522 0.14985 0.67728 0.0
H155 H 0.61329 0.15965 0.8774 0.0
C156 C 0.66936 0.1678 0.8322 0.0
C157 C 0.69036 0.17336 0.77549 0.0
C158 C 0.54501 0.15704 0.72049 0.0
C159 C 0.60843 0.16245 0.77694 0.0
C160 C 0.50951 0.16237 0.72007 0.0
C161 C 0.49662 0.17332 0.77499 0.0
C162 C 0.56761 0.16243 0.77626 0.0
C163 C 0.51894 0.17652 0.83026 0.0
C164 C 0.62848 0.16251 0.83311 0.0
C165 C 0.6684 0.17113 0.7203 0.0
N166 N 0.55352 0.17143 0.8294 0.0
N167 N 0.62877 0.16615 0.72243 0.0
H168 H 0.33785 0.4992 0.36627 0.0
H169 H 0.51577 0.68473 0.16247 0.0
H170 H 0.33813 0.49581 0.16574 0.0
H171 H 0.5258 0.67715 0.3616 0.0
H172 H 0.45381 0.61309 0.16204 0.0
H173 H 0.40935 0.56132 0.36512 0.0
C174 C 0.35314 0.51131 0.32193 0.0
C175 C 0.33173 0.49263 0.26595 0.0
C176 C 0.4698 0.62686 0.20577 0.0
C177 C 0.41364 0.56409 0.26433 0.0
C178 C 0.50516 0.66785 0.20611 0.0
C179 C 0.52567 0.68725 0.26231 0.0
C180 C 0.45447 0.60516 0.26211 0.0
C181 C 0.51082 0.6636 0.31725 0.0
C182 C 0.39406 0.54676 0.32134 0.0
C183 C 0.35334 0.50934 0.20997 0.0
N184 N 0.47577 0.62401 0.31587 0.0
N185 N 0.39291 0.54452 0.21056 0.0
H186 H 0.83506 0.51093 0.85998 0.0
H187 H 0.84745 0.33397 0.6559 0.0
H188 H 0.84615 0.51812 0.66013 0.0
H189 H 0.83833 0.33194 0.85597 0.0
H190 H 0.85525 0.40509 0.65578 0.0
H191 H 0.84441 0.44923 0.8588 0.0
C192 C 0.83969 0.49964 0.81577 0.0
C193 C 0.83924 0.51941 0.76 0.0
C194 C 0.85198 0.38917 0.69967 0.0
C195 C 0.84973 0.44825 0.7582 0.0
C196 C 0.84764 0.34865 0.69978 0.0
C197 C 0.84157 0.3267 0.75597 0.0
C198 C 0.85035 0.40775 0.75613 0.0
C199 C 0.84222 0.34732 0.81144 0.0
C200 C 0.84511 0.46436 0.81511 0.0
C201 C 0.84603 0.50369 0.70421 0.0
N202 N 0.84614 0.38641 0.81003 0.0
N203 N 0.85049 0.46867 0.70462 0.0
H204 H 0.52407 0.84858 0.15627 0.0
H205 H 0.33792 0.83971 0.36392 0.0
H206 H 0.51532 0.8329 0.35552 0.0
H207 H 0.3386 0.84788 0.16372 0.0
H208 H 0.40853 0.8476 0.36136 0.0
H209 H 0.46181 0.85823 0.15776 0.0
C210 C 0.50942 0.84767 0.20035 0.0
C211 C 0.5246 0.83933 0.25577 0.0
C212 C 0.3935 0.84802 0.31789 0.0
C213 C 0.45355 0.85035 0.25776 0.0
C214 C 0.35309 0.84352 0.31934 0.0
C215 C 0.332 0.84254 0.2639 0.0
C216 C 0.4131 0.85122 0.26054 0.0
C217 C 0.35358 0.84823 0.20759 0.0
C218 C 0.47384 0.85308 0.20113 0.0
C219 C 0.50442 0.83861 0.31152 0.0
N220 N 0.39279 0.8518 0.20727 0.0
N221 N 0.46989 0.84373 0.31098 0.0
H222 H 0.68414 0.51216 0.67194 0.0
H223 H 0.49716 0.33644 0.88095 0.0
H224 H 0.68152 0.52262 0.87152 0.0
H225 H 0.50538 0.32854 0.6818 0.0
H226 H 0.55926 0.4087 0.87852 0.0
H227 H 0.61336 0.44936 0.67467 0.0
C228 C 0.66851 0.50144 0.71639 0.0
C229 C 0.68909 0.52238 0.77166 0.0
C230 C 0.54713 0.39123 0.83536 0.0
C231 C 0.60783 0.44992 0.77526 0.0
C232 C 0.51164 0.35005 0.8367 0.0
C233 C 0.49644 0.32616 0.7816 0.0
C234 C 0.5673 0.40855 0.77851 0.0
C235 C 0.51637 0.34545 0.72558 0.0
C236 C 0.628 0.46549 0.71794 0.0
C237 C 0.66695 0.5073 0.82779 0.0
N238 N 0.55084 0.38526 0.72559 0.0
N239 N 0.62769 0.47162 0.82826 0.0
H240 H 0.29118 0.25324 0.84354 0.0
H241 H 0.25658 0.28895 0.19992 0.0
H242 H 0.35519 0.23006 0.99552 0.0
H243 H 0.23233 0.35281 0.04945 0.0
H244 H 0.28543 0.2595 0.1249 0.0
H245 H 0.26174 0.28266 0.918 0.0
C246 C 0.29901 0.25431 0.89243 0.0
C247 C 0.32578 0.23929 0.91326 0.0
C248 C 0.27385 0.28005 0.10843 0.0
C249 C 0.29198 0.27238 0.99846 0.0
C250 C 0.25729 0.29675 0.15117 0.0
C251 C 0.24215 0.32348 0.13099 0.0
C252 C 0.27469 0.28964 0.04498 0.0
C253 C 0.24391 0.33256 0.06719 0.0
C254 C 0.28233 0.27118 0.93482 0.0
C255 C 0.33492 0.2415 0.97722 0.0
N256 N 0.25967 0.31551 0.02642 0.0
N257 N 0.31789 0.2575 1.01751 0.0
H258 H 0.88417 0.23013 0.54203 0.0
H259 H 0.13574 0.35577 0.49419 0.0
H260 H 0.9739 0.2563 0.69199 0.0
H261 H 0.04649 0.29136 0.34392 0.0
H262 H 0.07657 0.32704 0.567 0.0
H263 H 0.94318 0.25993 0.46865 0.0
C264 C 0.9163 0.2423 0.55962 0.0
C265 C 0.92411 0.24067 0.62334 0.0
C266 C 0.06995 0.31917 0.51812 0.0
C267 C 0.99173 0.27496 0.53946 0.0
C268 C 0.10367 0.33571 0.47638 0.0
C269 C 0.09607 0.3259 0.41275 0.0
C270 C 0.02817 0.29306 0.49612 0.0
C271 C 0.05382 0.29958 0.39257 0.0
C272 C 0.94991 0.2591 0.5176 0.0
C273 C 0.96639 0.25675 0.6433 0.0
N274 N 0.02139 0.28419 0.43413 0.0
N275 N 0.99866 0.2734 0.60151 0.0
H276 H 0.76468 0.04504 0.83964 0.0
H277 H 0.72909 0.97459 0.196 0.0
H278 H 0.78997 0.13369 0.98974 0.0
H279 H 0.66554 0.88739 0.04368 0.0
H280 H 0.75863 0.03371 0.12169 0.0
H281 H 0.73514 0.98672 0.91475 0.0
C282 C 0.76406 0.05224 0.88835 0.0
C283 C 0.77973 0.09428 0.90839 0.0
C284 C 0.73809 1.00158 0.10478 0.0
C285 C 0.74631 0.02781 0.99454 0.0
C286 C 0.72134 0.96788 0.14707 0.0
C287 C 0.69475 0.926 0.12609 0.0
C288 C 0.72867 0.99319 0.04108 0.0
C289 C 0.6857 0.91915 0.06211 0.0
C290 C 0.74708 0.01896 0.93115 0.0
C291 C 0.77803 0.10174 0.97213 0.0
N292 N 0.70281 0.95232 0.02192 0.0
N293 N 0.76183 0.06886 1.01299 0.0
H294 H 0.63287 0.73173 0.44507 0.0
H295 H 0.83687 0.74737 0.60827 0.0
H296 H 0.75836 0.80503 0.36648 0.0
H297 H 0.71273 0.63483 0.62349 0.0
H298 H 0.80815 0.7751 0.5296 0.0
H299 H 0.66103 0.70114 0.52011 0.0
C300 C 0.66633 0.74126 0.44349 0.0
C301 C 0.69336 0.77097 0.39953 0.0
C302 C 0.78726 0.74433 0.55018 0.0
C303 C 0.72581 0.7367 0.48586 0.0
C304 C 0.80349 0.72862 0.59542 0.0
C305 C 0.7771 0.68873 0.62258 0.0
C306 C 0.74414 0.72042 0.53281 0.0
C307 C 0.73419 0.66567 0.60365 0.0
C308 C 0.6823 0.72371 0.48617 0.0
C309 C 0.7364 0.78207 0.39938 0.0
N310 N 0.71893 0.68201 0.56025 0.0
N311 N 0.75144 0.7653 0.44242 0.0
H312 H 0.97223 0.72611 0.84757 0.0
H313 H 0.04883 0.76435 0.1925 0.0
H314 H 0.88866 0.63855 0.98576 0.0
H315 H 0.13085 0.75766 0.05462 0.0
H316 H 0.98912 0.73173 0.11745 0.0
H317 H 0.03172 0.75235 0.92282 0.0
C318 C 0.96653 0.71244 0.89371 0.0
C319 C 0.92574 0.68005 0.91065 0.0
C320 C 0.0202 0.73726 0.10402 0.0
C321 C 0.99278 0.7106 0.99669 0.0
C322 C 0.05412 0.75588 0.14649 0.0
C323 C 0.09452 0.76333 0.12956 0.0
C324 C 0.0273 0.7276 0.04375 0.0
C325 C 0.09998 0.75197 0.06944 0.0
C326 C 1.00033 0.72726 0.93629 0.0
C327 C 0.91981 0.66332 0.97093 0.0
N328 N 0.06685 0.73526 0.02819 0.0
N329 N 0.95288 0.67928 1.01228 0.0
H330 H 0.38989 0.11157 0.58963 0.0
H331 H 0.18643 0.9206 0.42916 0.0
H332 H 0.26495 0.05627 0.67097 0.0
H333 H 0.31078 0.93339 0.41244 0.0
H334 H 0.21528 0.97729 0.5074 0.0
H335 H 0.36211 0.05272 0.51457 0.0
C336 C 0.35663 0.08697 0.59177 0.0
C337 C 0.32963 0.0888 0.63651 0.0
C338 C 0.2362 0.96764 0.4866 0.0
C339 C 0.29766 0.02198 0.55027 0.0
C340 C 0.2199 0.93555 0.44159 0.0
C341 C 0.24631 0.92231 0.41415 0.0
C342 C 0.27942 0.98729 0.50344 0.0
C343 C 0.28933 0.94259 0.43255 0.0
C344 C 0.34091 0.0534 0.54911 0.0
C345 C 0.28688 0.05598 0.63742 0.0
N346 N 0.30468 0.97436 0.47574 0.0
N347 N 0.27207 0.02416 0.59441 0.0
H348 H 0.7509 0.83386 0.10586 0.0
H349 H 0.73631 0.63086 0.94673 0.0
H350 H 0.63679 0.71061 0.11688 0.0
H351 H 0.81171 0.7565 0.86918 0.0
H352 H 0.70432 0.6588 1.01875 0.0
H353 H 0.77924 0.80536 0.02884 0.0
C354 C 0.73189 0.80072 0.09233 0.0
C355 C 0.69145 0.77447 0.11791 0.0
C356 C 0.72767 0.68013 0.98569 0.0
C357 C 0.72385 0.74178 0.0301 0.0
C358 C 0.74606 0.66433 0.94483 0.0
C359 C 0.7768 0.6915 0.90213 0.0
C360 C 0.7408 0.72359 0.98477 0.0
C361 C 0.78805 0.73449 0.90127 0.0
C362 C 0.74797 0.78463 0.04804 0.0
C363 C 0.66807 0.7319 0.0982 0.0
N364 N 0.77041 0.74936 0.94258 0.0
N365 N 0.68479 0.71672 0.05579 0.0
H366 H 0.97642 0.72036 0.69735 0.0
H367 H 0.04617 0.75509 0.34155 0.0
H368 H 0.88782 0.65792 0.54566 0.0
H369 H 0.13486 0.78135 0.49304 0.0
H370 H 0.98752 0.72448 0.41588 0.0
H371 H 0.03518 0.74832 0.62315 0.0
C372 C 0.96933 0.71248 0.64853 0.0
C373 C 0.92715 0.68679 0.6277 0.0
C374 C 0.01984 0.7368 0.43272 0.0
C375 C 0.99407 0.71888 0.54268 0.0
C376 C 0.0533 0.75438 0.39037 0.0
C377 C 0.09548 0.77081 0.41109 0.0
C378 C 0.02866 0.73618 0.49629 0.0
C379 C 0.10285 0.76892 0.47492 0.0
C380 C 1.00286 0.72833 0.60627 0.0
C381 C 0.91984 0.67748 0.56388 0.0
N382 N 0.06981 0.75218 0.51529 0.0
N383 N 0.95292 0.69375 0.52362 0.0
H384 H 0.27026 0.97079 0.20299 0.0
H385 H 0.27656 0.05109 0.85968 0.0
H386 H 0.21998 0.88317 0.04831 0.0
H387 H 0.38244 0.12173 0.9855 0.0
H388 H 0.24631 0.9919 0.93366 0.0
H389 H 0.30294 0.03025 0.12894 0.0
C390 C 0.26596 0.96415 0.15355 0.0
C391 C 0.24253 0.92214 0.13158 0.0
C392 C 0.27625 0.02033 0.94482 0.0
C393 C 0.27902 0.98949 0.04743 0.0
C394 C 0.29344 0.05403 0.90284 0.0
C395 C 0.33209 0.09113 0.91653 0.0
C396 C 0.29729 0.02428 1.00153 0.0
C397 C 0.35275 0.09344 0.97306 0.0
C398 C 0.28477 0.99792 0.11153 0.0
C399 C 0.23804 0.91512 0.06712 0.0
N400 N 0.33481 0.06058 1.01398 0.0
N401 N 0.25577 0.94849 0.02727 0.0
H402 H 0.39596 0.30266 0.6166 0.0
H403 H 0.19697 0.26384 0.40696 0.0
H404 H 0.2698 0.19285 0.63196 0.0
H405 H 0.30813 0.38858 0.42989 0.0
H406 H 0.22735 0.23553 0.4809 0.0
H407 H 0.36798 0.33328 0.54091 0.0
C408 C 0.36244 0.28503 0.60418 0.0
C409 C 0.33521 0.24507 0.63067 0.0
C410 C 0.24515 0.26912 0.46985 0.0
C411 C 0.30326 0.27969 0.54393 0.0
C412 C 0.2279 0.28533 0.42732 0.0
C413 C 0.24992 0.32877 0.41231 0.0
C414 C 0.28497 0.29632 0.49742 0.0
C415 C 0.28994 0.35494 0.44035 0.0
C416 C 0.34653 0.30256 0.56112 0.0
C417 C 0.29203 0.22373 0.61298 0.0
N418 N 0.30625 0.33829 0.48157 0.0
N419 N 0.27752 0.24118 0.57056 0.0
H420 H 0.92552 0.30764 0.92072 0.0
H421 H 0.08133 0.26588 0.13431 0.0
H422 H 0.94115 0.19789 0.90342 0.0
H423 H 0.09818 0.39158 0.11258 0.0
H424 H 0.02395 0.23885 0.05769 0.0
H425 H 0.98393 0.33784 0.99745 0.0
C426 C 0.94127 0.28998 0.9328 0.0
C427 C 0.92828 0.25008 0.90565 0.0
C428 C 0.04017 0.27236 0.06957 0.0
C429 C 0.99458 0.28419 0.99366 0.0
C430 C 0.07286 0.28785 0.11368 0.0
C431 C 0.09483 0.33118 0.12986 0.0
C432 C 0.02882 0.30017 0.04157 0.0
C433 C 0.08226 0.35799 0.10131 0.0
C434 C 0.97459 0.30726 0.9765 0.0
C435 C 0.94996 0.22871 0.92297 0.0
N436 N 0.04997 0.34202 0.05855 0.0
N437 N 0.98174 0.24588 0.96608 0.0
H438 H 0.75236 0.93361 0.40656 0.0
H439 H 0.71107 0.09166 0.61208 0.0
H440 H 0.62672 0.91762 0.42509 0.0
H441 H 0.82177 0.07738 0.63129 0.0
H442 H 0.68039 0.03195 0.53812 0.0
H443 H 0.77949 0.9912 0.48218 0.0
C444 C 0.7304 0.94226 0.42637 0.0
C445 C 0.68709 0.92059 0.40941 0.0
C446 C 0.71128 0.04186 0.55888 0.0
C447 C 0.71823 0.98692 0.49653 0.0
C448 C 0.72885 0.07594 0.60097 0.0
C449 C 0.76918 0.08972 0.6278 0.0
C450 C 0.73445 0.02185 0.54303 0.0
C451 C 0.79066 0.06802 0.61186 0.0
C452 C 0.74595 0.97511 0.4699 0.0
C453 C 0.66029 0.93335 0.43698 0.0
N454 N 0.77318 0.03546 0.57029 0.0
N455 N 0.67634 0.96584 0.4791 0.0
loop_
_geom_bond_atom_site_label_1
_geom_bond_atom_site_label_2
_geom_bond_distance
_geom_bond_site_symmetry_2
_ccdc_geom_bond_type
Fe0 O2 1.918 . S
Fe0 O5 1.997 . S
Fe0 O6 2.002 . S
Fe0 O11 1.976 . S
Fe0 O14 1.996 . S
Fe1 O2 1.918 . S
Fe1 O9 1.997 . S
Fe1 O12 1.996 . S
Fe1 O16 1.976 . S
Fe1 O19 2.002 . S
O2 Fe0 1.918 . S
O2 Fe1 1.918 . S
O2 Fe3 1.918 . S
Fe3 O2 1.918 . S
Fe3 O4 2.002 . S
Fe3 O13 1.976 . S
Fe3 O17 1.996 . S
Fe3 O20 1.997 . S
O4 Fe3 2.002 . S
O4 C21 1.295 . S
O5 Fe0 1.997 . S
O5 C21 1.235 . S
O6 Fe0 2.002 . S
O6 C7 1.295 . S
C7 O6 1.295 . S
C7 O9 1.235 . S
C8 O13 1.287 . S
C8 O14 1.255 . S
O9 Fe1 1.997 . S
O9 C7 1.235 . S
C10 O16 1.287 . S
C10 O17 1.255 . S
O11 Fe0 1.976 . S
O11 C18 1.287 . S
O12 Fe1 1.996 . S
O12 C18 1.255 . S
O13 Fe3 1.976 . S
O13 C8 1.287 . S
O14 Fe0 1.996 . S
O14 C8 1.255 . S
C15 O19 1.295 . S
C15 O20 1.235 . S
O16 Fe1 1.976 . S
O16 C10 1.287 . S
O17 Fe3 1.996 . S
O17 C10 1.255 . S
C18 O11 1.287 . S
C18 O12 1.255 . S
O19 Fe1 2.002 . S
O19 C15 1.295 . S
O20 Fe3 1.997 . S
O20 C15 1.235 . S
C21 O4 1.295 . S
C21 O5 1.235 . S
Fe22 O24 1.918 . S
Fe22 O27 1.997 . S
Fe22 O28 2.002 . S
Fe22 O33 1.976 . S
Fe22 O36 1.996 . S
Fe23 O24 1.918 . S
Fe23 O31 1.997 . S
Fe23 O34 1.996 . S
Fe23 O38 1.976 . S
Fe23 O41 2.002 . S
O24 Fe22 1.918 . S
O24 Fe23 1.918 . S
O24 Fe25 1.918 . S
Fe25 O24 1.918 . S
Fe25 O26 2.002 . S
Fe25 O35 1.976 . S
Fe25 O39 1.996 . S
Fe25 O42 1.997 . S
O26 Fe25 2.002 . S
O26 C43 1.295 . S
O27 Fe22 1.997 . S
O27 C43 1.235 . S
O28 Fe22 2.002 . S
O28 C29 1.295 . S
C29 O28 1.295 . S
C29 O31 1.235 . S
C30 O35 1.287 . S
C30 O36 1.255 . S
O31 Fe23 1.997 . S
O31 C29 1.235 . S
C32 O38 1.287 . S
C32 O39 1.255 . S
O33 Fe22 1.976 . S
O33 C40 1.287 . S
O34 Fe23 1.996 . S
O34 C40 1.255 . S
O35 Fe25 1.976 . S
O35 C30 1.287 . S
O36 Fe22 1.996 . S
O36 C30 1.255 . S
C37 O41 1.295 . S
C37 O42 1.235 . S
O38 Fe23 1.976 . S
O38 C32 1.287 . S
O39 Fe25 1.996 . S
O39 C32 1.255 . S
C40 O33 1.287 . S
C40 O34 1.255 . S
O41 Fe23 2.002 . S
O41 C37 1.295 . S
O42 Fe25 1.997 . S
O42 C37 1.235 . S
C43 O26 1.295 . S
C43 O27 1.235 . S
Fe44 O46 1.918 . S
Fe44 O49 1.997 . S
Fe44 O50 2.002 . S
Fe44 O55 1.976 . S
Fe44 O58 1.996 . S
Fe45 O46 1.918 . S
Fe45 O53 1.997 . S
Fe45 O56 1.996 . S
Fe45 O60 1.976 . S
Fe45 O63 2.002 . S
O46 Fe44 1.918 . S
O46 Fe45 1.918 . S
O46 Fe47 1.918 . S
Fe47 O46 1.918 . S
Fe47 O48 2.002 . S
Fe47 O57 1.976 . S
Fe47 O61 1.996 . S
Fe47 O64 1.997 . S
O48 Fe47 2.002 . S
O48 C65 1.295 . S
O49 Fe44 1.997 . S
O49 C65 1.235 . S
O50 Fe44 2.002 . S
O50 C51 1.295 . S
C51 O50 1.295 . S
C51 O53 1.235 . S
C52 O57 1.287 . S
C52 O58 1.255 . S
O53 Fe45 1.997 . S
O53 C51 1.235 . S
C54 O60 1.287 . S
C54 O61 1.255 . S
O55 Fe44 1.976 . S
O55 C62 1.287 . S
O56 Fe45 1.996 . S
O56 C62 1.255 . S
O57 Fe47 1.976 . S
O57 C52 1.287 . S
O58 Fe44 1.996 . S
O58 C52 1.255 . S
C59 O63 1.295 . S
C59 O64 1.235 . S
O60 Fe45 1.976 . S
O60 C54 1.287 . S
O61 Fe47 1.996 . S
O61 C54 1.255 . S
C62 O55 1.287 . S
C62 O56 1.255 . S
O63 Fe45 2.002 . S
O63 C59 1.295 . S
O64 Fe47 1.997 . S
O64 C59 1.235 . S
C65 O48 1.295 . S
C65 O49 1.235 . S
Fe66 O68 1.918 . S
Fe66 O71 1.997 . S
Fe66 O72 2.002 . S
Fe66 O77 1.976 . S
Fe66 O80 1.996 . S
Fe67 O68 1.918 . S
Fe67 O75 1.997 . S
Fe67 O78 1.996 . S
Fe67 O82 1.976 . S
Fe67 O85 2.002 . S
O68 Fe66 1.918 . S
O68 Fe67 1.918 . S
O68 Fe69 1.918 . S
Fe69 O68 1.918 . S
Fe69 O70 2.002 . S
Fe69 O79 1.976 . S
Fe69 O83 1.996 . S
Fe69 O86 1.997 . S
O70 Fe69 2.002 . S
O70 C87 1.295 . S
O71 Fe66 1.997 . S
O71 C87 1.235 . S
O72 Fe66 2.002 . S
O72 C73 1.295 . S
C73 O72 1.295 . S
C73 O75 1.235 . S
C74 O79 1.287 . S
C74 O80 1.255 . S
O75 Fe67 1.997 . S
O75 C73 1.235 . S
C76 O82 1.287 . S
C76 O83 1.255 . S
O77 Fe66 1.976 . S
O77 C84 1.287 . S
O78 Fe67 1.996 . S
O78 C84 1.255 . S
O79 Fe69 1.976 . S
O79 C74 1.287 . S
O80 Fe66 1.996 . S
O80 C74 1.255 . S
C81 O85 1.295 . S
C81 O86 1.235 . S
O82 Fe67 1.976 . S
O82 C76 1.287 . S
O83 Fe69 1.996 . S
O83 C76 1.255 . S
C84 O77 1.287 . S
C84 O78 1.255 . S
O85 Fe67 2.002 . S
O85 C81 1.295 . S
O86 Fe69 1.997 . S
O86 C81 1.235 . S
C87 O70 1.295 . S
C87 O71 1.235 . S
Fe88 O90 1.918 . S
Fe88 O93 1.997 . S
Fe88 O94 2.002 . S
Fe88 O99 1.976 . S
Fe88 O102 1.996 . S
Fe89 O90 1.918 . S
Fe89 O97 1.997 . S
Fe89 O100 1.996 . S
Fe89 O104 1.976 . S
Fe89 O107 2.002 . S
O90 Fe88 1.918 . S
O90 Fe89 1.918 . S
O90 Fe91 1.918 . S
Fe91 O90 1.918 . S
Fe91 O92 2.002 . S
Fe91 O101 1.976 . S
Fe91 O105 1.996 . S
Fe91 O108 1.997 . S
O92 Fe91 2.002 . S
O92 C109 1.295 . S
O93 Fe88 1.997 . S
O93 C109 1.235 . S
O94 Fe88 2.002 . S
O94 C95 1.295 . S
C95 O94 1.295 . S
C95 O97 1.235 . S
C96 O101 1.287 . S
C96 O102 1.255 . S
O97 Fe89 1.997 . S
O97 C95 1.235 . S
C98 O104 1.287 . S
C98 O105 1.255 . S
O99 Fe88 1.976 . S
O99 C106 1.287 . S
O100 Fe89 1.996 . S
O100 C106 1.255 . S
O101 Fe91 1.976 . S
O101 C96 1.287 . S
O102 Fe88 1.996 . S
O102 C96 1.255 . S
C103 O107 1.295 . S
C103 O108 1.235 . S
O104 Fe89 1.976 . S
O104 C98 1.287 . S
O105 Fe91 1.996 . S
O105 C98 1.255 . S
C106 O99 1.287 . S
C106 O100 1.255 . S
O107 Fe89 2.002 . S
O107 C103 1.295 . S
O108 Fe91 1.997 . S
O108 C103 1.235 . S
C109 O92 1.295 . S
C109 O93 1.235 . S
Fe110 O112 1.918 . S
Fe110 O115 1.997 . S
Fe110 O116 2.002 . S
Fe110 O121 1.976 . S
Fe110 O124 1.996 . S
Fe111 O112 1.918 . S
Fe111 O119 1.997 . S
Fe111 O122 1.996 . S
Fe111 O126 1.976 . S
Fe111 O129 2.002 . S
O112 Fe110 1.918 . S
O112 Fe111 1.918 . S
O112 Fe113 1.918 . S
Fe113 O112 1.918 . S
Fe113 O114 2.002 . S
Fe113 O123 1.976 . S
Fe113 O127 1.996 . S
Fe113 O130 1.997 . S
O114 Fe113 2.002 . S
O114 C131 1.295 . S
O115 Fe110 1.997 . S
O115 C131 1.235 . S
O116 Fe110 2.002 . S
O116 C117 1.295 . S
C117 O116 1.295 . S
C117 O119 1.235 . S
C118 O123 1.287 . S
C118 O124 1.255 . S
O119 Fe111 1.997 . S
O119 C117 1.235 . S
C120 O126 1.287 . S
C120 O127 1.255 . S
O121 Fe110 1.976 . S
O121 C128 1.287 . S
O122 Fe111 1.996 . S
O122 C128 1.255 . S
O123 Fe113 1.976 . S
O123 C118 1.287 . S
O124 Fe110 1.996 . S
O124 C118 1.255 . S
C125 O129 1.295 . S
C125 O130 1.235 . S
O126 Fe111 1.976 . S
O126 C120 1.287 . S
O127 Fe113 1.996 . S
O127 C120 1.255 . S
C128 O121 1.287 . S
C128 O122 1.255 . S
O129 Fe111 2.002 . S
O129 C125 1.295 . S
O130 Fe113 1.997 . S
O130 C125 1.235 . S
C131 O114 1.295 . S
C131 O115 1.235 . S
H132 C138 0.930 . S
H133 C142 0.930 . S
H134 C147 0.929 . S
H135 C145 0.929 . S
H136 C140 0.929 . S
H137 C146 0.929 . S
C138 H132 0.930 . S
C138 C139 1.367 . S
C138 C146 1.378 . S
C139 C138 1.367 . S
C139 C147 1.433 . S
C140 H136 0.929 . S
C140 C142 1.378 . S
C140 C144 1.350 . S
C141 C144 1.463 . S
C141 C146 1.350 . S
C141 N149 1.427 . S
C142 H133 0.930 . S
C142 C140 1.378 . S
C142 C143 1.367 . S
C143 C142 1.367 . S
C143 C145 1.433 . S
C144 C140 1.350 . S
C144 C141 1.463 . S
C144 N148 1.427 . S
C145 H135 0.929 . S
C145 C143 1.433 . S
C145 N148 1.384 . S
C146 H137 0.929 . S
C146 C138 1.378 . S
C146 C141 1.350 . S
C147 H134 0.929 . S
C147 C139 1.433 . S
C147 N149 1.384 . S
N148 C144 1.427 . S
N148 C145 1.384 . S
N149 C141 1.427 . S
N149 C147 1.384 . S
H150 C156 0.930 . S
H151 C160 0.930 . S
H152 C165 0.929 . S
H153 C163 0.929 . S
H154 C158 0.929 . S
H155 C164 0.929 . S
C156 H150 0.930 . S
C156 C157 1.367 . S
C156 C164 1.378 . S
C157 C156 1.367 . S
C157 C165 1.433 . S
C158 H154 0.929 . S
C158 C160 1.378 . S
C158 C162 1.350 . S
C159 C162 1.463 . S
C159 C164 1.350 . S
C159 N167 1.427 . S
C160 H151 0.930 . S
C160 C158 1.378 . S
C160 C161 1.367 . S
C161 C160 1.367 . S
C161 C163 1.433 . S
C162 C158 1.350 . S
C162 C159 1.463 . S
C162 N166 1.427 . S
C163 H153 0.929 . S
C163 C161 1.433 . S
C163 N166 1.384 . S
C164 H155 0.929 . S
C164 C156 1.378 . S
C164 C159 1.350 . S
C165 H152 0.929 . S
C165 C157 1.433 . S
C165 N167 1.384 . S
N166 C162 1.427 . S
N166 C163 1.384 . S
N167 C159 1.427 . S
N167 C165 1.384 . S
H168 C174 0.930 . S
H169 C178 0.930 . S
H170 C183 0.929 . S
H171 C181 0.929 . S
H172 C176 0.929 . S
H173 C182 0.929 . S
C174 H168 0.930 . S
C174 C175 1.367 . S
C174 C182 1.378 . S
C175 C174 1.367 . S
C175 C183 1.433 . S
C176 H172 0.929 . S
C176 C178 1.378 . S
C176 C180 1.350 . S
C177 C180 1.463 . S
C177 C182 1.350 . S
C177 N185 1.427 . S
C178 H169 0.930 . S
C178 C176 1.378 . S
C178 C179 1.367 . S
C179 C178 1.367 . S
C179 C181 1.433 . S
C180 C176 1.350 . S
C180 C177 1.463 . S
C180 N184 1.427 . S
C181 H171 0.929 . S
C181 C179 1.433 . S
C181 N184 1.384 . S
C182 H173 0.929 . S
C182 C174 1.378 . S
C182 C177 1.350 . S
C183 H170 0.929 . S
C183 C175 1.433 . S
C183 N185 1.384 . S
N184 C180 1.427 . S
N184 C181 1.384 . S
N185 C177 1.427 . S
N185 C183 1.384 . S
H186 C192 0.930 . S
H187 C196 0.930 . S
H188 C201 0.929 . S
H189 C199 0.929 . S
H190 C194 0.929 . S
H191 C200 0.929 . S
C192 H186 0.930 . S
C192 C193 1.367 . S
C192 C200 1.378 . S
C193 C192 1.367 . S
C193 C201 1.433 . S
C194 H190 0.929 . S
C194 C196 1.378 . S
C194 C198 1.350 . S
C195 C198 1.463 . S
C195 C200 1.350 . S
C195 N203 1.427 . S
C196 H187 0.930 . S
C196 C194 1.378 . S
C196 C197 1.367 . S
C197 C196 1.367 . S
C197 C199 1.433 . S
C198 C194 1.350 . S
C198 C195 1.463 . S
C198 N202 1.427 . S
C199 H189 0.929 . S
C199 C197 1.433 . S
C199 N202 1.384 . S
C200 H191 0.929 . S
C200 C192 1.378 . S
C200 C195 1.350 . S
C201 H188 0.929 . S
C201 C193 1.433 . S
C201 N203 1.384 . S
N202 C198 1.427 . S
N202 C199 1.384 . S
N203 C195 1.427 . S
N203 C201 1.384 . S
H204 C210 0.930 . S
H205 C214 0.930 . S
H206 C219 0.929 . S
H207 C217 0.929 . S
H208 C212 0.929 . S
H209 C218 0.929 . S
C210 H204 0.930 . S
C210 C211 1.367 . S
C210 C218 1.378 . S
C211 C210 1.367 . S
C211 C219 1.433 . S
C212 H208 0.929 . S
C212 C214 1.378 . S
C212 C216 1.350 . S
C213 C216 1.463 . S
C213 C218 1.350 . S
C213 N221 1.427 . S
C214 H205 0.930 . S
C214 C212 1.378 . S
C214 C215 1.367 . S
C215 C214 1.367 . S
C215 C217 1.433 . S
C216 C212 1.350 . S
C216 C213 1.463 . S
C216 N220 1.427 . S
C217 H207 0.929 . S
C217 C215 1.433 . S
C217 N220 1.384 . S
C218 H209 0.929 . S
C218 C210 1.378 . S
C218 C213 1.350 . S
C219 H206 0.929 . S
C219 C211 1.433 . S
C219 N221 1.384 . S
N220 C216 1.427 . S
N220 C217 1.384 . S
N221 C213 1.427 . S
N221 C219 1.384 . S
H222 C228 0.930 . S
H223 C232 0.930 . S
H224 C237 0.929 . S
H225 C235 0.929 . S
H226 C230 0.929 . S
H227 C236 0.929 . S
C228 H222 0.930 . S
C228 C229 1.367 . S
C228 C236 1.378 . S
C229 C228 1.367 . S
C229 C237 1.433 . S
C230 H226 0.929 . S
C230 C232 1.378 . S
C230 C234 1.350 . S
C231 C234 1.463 . S
C231 C236 1.350 . S
C231 N239 1.427 . S
C232 H223 0.930 . S
C232 C230 1.378 . S
C232 C233 1.367 . S
C233 C232 1.367 . S
C233 C235 1.433 . S
C234 C230 1.350 . S
C234 C231 1.463 . S
C234 N238 1.427 . S
C235 H225 0.929 . S
C235 C233 1.433 . S
C235 N238 1.384 . S
C236 H227 0.929 . S
C236 C228 1.378 . S
C236 C231 1.350 . S
C237 H224 0.929 . S
C237 C229 1.433 . S
C237 N239 1.384 . S
N238 C234 1.427 . S
N238 C235 1.384 . S
N239 C231 1.427 . S
N239 C237 1.384 . S
H240 C246 0.930 . S
H241 C250 0.930 . S
H242 C255 0.929 . S
H243 C253 0.929 . S
H244 C248 0.929 . S
H245 C254 0.929 . S
C246 H240 0.930 . S
C246 C247 1.367 . S
C246 C254 1.378 . S
C247 C246 1.367 . S
C247 C255 1.433 . S
C248 H244 0.929 . S
C248 C250 1.378 . S
C248 C252 1.350 . S
C249 C252 1.463 1_556 S
C249 C254 1.350 . S
C249 N257 1.427 . S
C250 H241 0.930 . S
C250 C248 1.378 . S
C250 C251 1.367 . S
C251 C250 1.367 . S
C251 C253 1.433 . S
C252 C248 1.350 . S
C252 C249 1.463 1_554 S
C252 N256 1.427 . S
C253 H243 0.929 . S
C253 C251 1.433 . S
C253 N256 1.384 . S
C254 H245 0.929 . S
C254 C246 1.378 . S
C254 C249 1.350 . S
C255 H242 0.929 . S
C255 C247 1.433 . S
C255 N257 1.384 . S
N256 C252 1.427 . S
N256 C253 1.384 . S
N257 C249 1.427 . S
N257 C255 1.384 . S
H258 C264 0.930 . S
H259 C268 0.930 . S
H260 C273 0.929 . S
H261 C271 0.929 . S
H262 C266 0.929 . S
H263 C272 0.929 . S
C264 H258 0.930 . S
C264 C265 1.367 . S
C264 C272 1.378 . S
C265 C264 1.367 . S
C265 C273 1.433 . S
C266 H262 0.929 . S
C266 C268 1.378 . S
C266 C270 1.350 . S
C267 C270 1.463 1_655 S
C267 C272 1.350 . S
C267 N275 1.427 . S
C268 H259 0.930 . S
C268 C266 1.378 . S
C268 C269 1.367 . S
C269 C268 1.367 . S
C269 C271 1.433 . S
C270 C266 1.350 . S
C270 C267 1.463 1_455 S
C270 N274 1.427 . S
C271 H261 0.929 . S
C271 C269 1.433 . S
C271 N274 1.384 . S
C272 H263 0.929 . S
C272 C264 1.378 . S
C272 C267 1.350 . S
C273 H260 0.929 . S
C273 C265 1.433 . S
C273 N275 1.384 . S
N274 C270 1.427 . S
N274 C271 1.384 . S
N275 C267 1.427 . S
N275 C273 1.384 . S
H276 C282 0.930 . S
H277 C286 0.930 . S
H278 C291 0.929 . S
H279 C289 0.929 . S
H280 C284 0.929 1_545 S
H281 C290 0.929 1_565 S
C282 H276 0.930 . S
C282 C283 1.367 . S
C282 C290 1.378 . S
C283 C282 1.367 . S
C283 C291 1.433 . S
C284 H280 0.929 1_565 S
C284 C286 1.378 . S
C284 C288 1.350 . S
C285 C288 1.463 1_546 S
C285 C290 1.350 . S
C285 N293 1.427 . S
C286 H277 0.930 . S
C286 C284 1.378 . S
C286 C287 1.367 . S
C287 C286 1.367 . S
C287 C289 1.433 . S
C288 C284 1.350 . S
C288 C285 1.463 1_564 S
C288 N292 1.427 . S
C289 H279 0.929 . S
C289 C287 1.433 . S
C289 N292 1.384 . S
C290 H281 0.929 1_545 S
C290 C282 1.378 . S
C290 C285 1.350 . S
C291 H278 0.929 . S
C291 C283 1.433 . S
C291 N293 1.384 . S
N292 C288 1.427 . S
N292 C289 1.384 . S
N293 C285 1.427 . S
N293 C291 1.384 . S
H294 C300 0.930 . S
H295 C304 0.930 . S
H296 C309 0.929 . S
H297 C307 0.929 . S
H298 C302 0.929 . S
H299 C308 0.929 . S
C300 H294 0.930 . S
C300 C301 1.367 . S
C300 C308 1.378 . S
C301 C300 1.367 . S
C301 C309 1.433 . S
C302 H298 0.929 . S
C302 C304 1.378 . S
C302 C306 1.350 . S
C303 C306 1.463 . S
C303 C308 1.350 . S
C303 N311 1.427 . S
C304 H295 0.930 . S
C304 C302 1.378 . S
C304 C305 1.367 . S
C305 C304 1.367 . S
C305 C307 1.433 . S
C306 C302 1.350 . S
C306 C303 1.463 . S
C306 N310 1.427 . S
C307 H297 0.929 . S
C307 C305 1.433 . S
C307 N310 1.384 . S
C308 H299 0.929 . S
C308 C300 1.378 . S
C308 C303 1.350 . S
C309 H296 0.929 . S
C309 C301 1.433 . S
C309 N311 1.384 . S
N310 C306 1.427 . S
N310 C307 1.384 . S
N311 C303 1.427 . S
N311 C309 1.384 . S
H312 C318 0.930 . S
H313 C322 0.930 . S
H314 C327 0.929 . S
H315 C325 0.929 . S
H316 C320 0.929 1_655 S
H317 C326 0.929 1_455 S
C318 H312 0.930 . S
C318 C319 1.367 . S
C318 C326 1.378 . S
C319 C318 1.367 . S
C319 C327 1.433 . S
C320 H316 0.929 1_455 S
C320 C322 1.378 . S
C320 C324 1.350 . S
C321 C324 1.463 1_656 S
C321 C326 1.350 . S
C321 N329 1.427 . S
C322 H313 0.930 . S
C322 C320 1.378 . S
C322 C323 1.367 . S
C323 C322 1.367 . S
C323 C325 1.433 . S
C324 C320 1.350 . S
C324 C321 1.463 1_454 S
C324 N328 1.427 . S
C325 H315 0.929 . S
C325 C323 1.433 . S
C325 N328 1.384 . S
C326 H317 0.929 1_655 S
C326 C318 1.378 . S
C326 C321 1.350 . S
C327 H314 0.929 . S
C327 C319 1.433 . S
C327 N329 1.384 . S
N328 C324 1.427 . S
N328 C325 1.384 . S
N329 C321 1.427 . S
N329 C327 1.384 . S
H330 C336 0.930 . S
H331 C340 0.930 . S
H332 C345 0.929 . S
H333 C343 0.929 . S
H334 C338 0.929 . S
H335 C344 0.929 . S
C336 H330 0.930 . S
C336 C337 1.367 . S
C336 C344 1.378 . S
C337 C336 1.367 . S
C337 C345 1.433 . S
C338 H334 0.929 . S
C338 C340 1.378 . S
C338 C342 1.350 . S
C339 C342 1.463 1_545 S
C339 C344 1.350 . S
C339 N347 1.427 . S
C340 H331 0.930 . S
C340 C338 1.378 . S
C340 C341 1.367 . S
C341 C340 1.367 . S
C341 C343 1.433 . S
C342 C338 1.350 . S
C342 C339 1.463 1_565 S
C342 N346 1.427 . S
C343 H333 0.929 . S
C343 C341 1.433 . S
C343 N346 1.384 . S
C344 H335 0.929 . S
C344 C336 1.378 . S
C344 C339 1.350 . S
C345 H332 0.929 . S
C345 C337 1.433 . S
C345 N347 1.384 . S
N346 C342 1.427 . S
N346 C343 1.384 . S
N347 C339 1.427 . S
N347 C345 1.384 . S
H348 C354 0.930 . S
H349 C358 0.930 . S
H350 C363 0.929 . S
H351 C361 0.929 . S
H352 C356 0.929 1_554 S
H353 C362 0.929 1_556 S
C354 H348 0.930 . S
C354 C355 1.367 . S
C354 C362 1.378 . S
C355 C354 1.367 . S
C355 C363 1.433 . S
C356 H352 0.929 1_556 S
C356 C358 1.378 . S
C356 C360 1.350 . S
C357 C360 1.463 1_554 S
C357 C362 1.350 . S
C357 N365 1.427 . S
C358 H349 0.930 . S
C358 C356 1.378 . S
C358 C359 1.367 . S
C359 C358 1.367 . S
C359 C361 1.433 . S
C360 C356 1.350 . S
C360 C357 1.463 1_556 S
C360 N364 1.427 . S
C361 H351 0.929 . S
C361 C359 1.433 . S
C361 N364 1.384 . S
C362 H353 0.929 1_554 S
C362 C354 1.378 . S
C362 C357 1.350 . S
C363 H350 0.929 . S
C363 C355 1.433 . S
C363 N365 1.384 . S
N364 C360 1.427 . S
N364 C361 1.384 . S
N365 C357 1.427 . S
N365 C363 1.384 . S
H366 C372 0.930 . S
H367 C376 0.930 . S
H368 C381 0.929 . S
H369 C379 0.929 . S
H370 C374 0.929 1_655 S
H371 C380 0.929 1_455 S
C372 H366 0.930 . S
C372 C373 1.367 . S
C372 C380 1.378 . S
C373 C372 1.367 . S
C373 C381 1.433 . S
C374 H370 0.929 1_455 S
C374 C376 1.378 . S
C374 C378 1.350 . S
C375 C378 1.463 1_655 S
C375 C380 1.350 . S
C375 N383 1.427 . S
C376 H367 0.930 . S
C376 C374 1.378 . S
C376 C377 1.367 . S
C377 C376 1.367 . S
C377 C379 1.433 . S
C378 C374 1.350 . S
C378 C375 1.463 1_455 S
C378 N382 1.427 . S
C379 H369 0.929 . S
C379 C377 1.433 . S
C379 N382 1.384 . S
C380 H371 0.929 1_655 S
C380 C372 1.378 . S
C380 C375 1.350 . S
C381 H368 0.929 . S
C381 C373 1.433 . S
C381 N383 1.384 . S
N382 C378 1.427 . S
N382 C379 1.384 . S
N383 C375 1.427 . S
N383 C381 1.384 . S
H384 C390 0.930 . S
H385 C394 0.930 . S
H386 C399 0.929 . S
H387 C397 0.929 . S
H388 C392 0.929 1_565 S
H389 C398 0.929 1_545 S
C390 H384 0.930 . S
C390 C391 1.367 . S
C390 C398 1.378 . S
C391 C390 1.367 . S
C391 C399 1.433 . S
C392 H388 0.929 1_545 S
C392 C394 1.378 . S
C392 C396 1.350 . S
C393 C396 1.463 1_564 S
C393 C398 1.350 . S
C393 N401 1.427 . S
C394 H385 0.930 . S
C394 C392 1.378 . S
C394 C395 1.367 . S
C395 C394 1.367 . S
C395 C397 1.433 . S
C396 C392 1.350 . S
C396 C393 1.463 1_546 S
C396 N400 1.427 . S
C397 H387 0.929 . S
C397 C395 1.433 . S
C397 N400 1.384 . S
C398 H389 0.929 1_565 S
C398 C390 1.378 . S
C398 C393 1.350 . S
C399 H386 0.929 . S
C399 C391 1.433 . S
C399 N401 1.384 . S
N400 C396 1.427 . S
N400 C397 1.384 . S
N401 C393 1.427 . S
N401 C399 1.384 . S
H402 C408 0.930 . S
H403 C412 0.930 . S
H404 C417 0.929 . S
H405 C415 0.929 . S
H406 C410 0.929 . S
H407 C416 0.929 . S
C408 H402 0.930 . S
C408 C409 1.367 . S
C408 C416 1.378 . S
C409 C408 1.367 . S
C409 C417 1.433 . S
C410 H406 0.929 . S
C410 C412 1.378 . S
C410 C414 1.350 . S
C411 C414 1.463 . S
C411 C416 1.350 . S
C411 N419 1.427 . S
C412 H403 0.930 . S
C412 C410 1.378 . S
C412 C413 1.367 . S
C413 C412 1.367 . S
C413 C415 1.433 . S
C414 C410 1.350 . S
C414 C411 1.463 . S
C414 N418 1.427 . S
C415 H405 0.929 . S
C415 C413 1.433 . S
C415 N418 1.384 . S
C416 H407 0.929 . S
C416 C408 1.378 . S
C416 C411 1.350 . S
C417 H404 0.929 . S
C417 C409 1.433 . S
C417 N419 1.384 . S
N418 C414 1.427 . S
N418 C415 1.384 . S
N419 C411 1.427 . S
N419 C417 1.384 . S
H420 C426 0.930 . S
H421 C430 0.930 . S
H422 C435 0.929 . S
H423 C433 0.929 . S
H424 C428 0.929 1_556 S
H425 C434 0.929 1_554 S
C426 H420 0.930 . S
C426 C427 1.367 . S
C426 C434 1.378 . S
C427 C426 1.367 . S
C427 C435 1.433 . S
C428 H424 0.929 1_554 S
C428 C430 1.378 . S
C428 C432 1.350 . S
C429 C432 1.463 1_656 S
C429 C434 1.350 . S
C429 N437 1.427 . S
C430 H421 0.930 . S
C430 C428 1.378 . S
C430 C431 1.367 . S
C431 C430 1.367 . S
C431 C433 1.433 . S
C432 C428 1.350 . S
C432 C429 1.463 1_454 S
C432 N436 1.427 . S
C433 H423 0.929 . S
C433 C431 1.433 . S
C433 N436 1.384 . S
C434 H425 0.929 1_556 S
C434 C426 1.378 . S
C434 C429 1.350 . S
C435 H422 0.929 . S
C435 C427 1.433 . S
C435 N437 1.384 . S
N436 C432 1.427 . S
N436 C433 1.384 . S
N437 C429 1.427 . S
N437 C435 1.384 . S
H438 C444 0.930 . S
H439 C448 0.930 . S
H440 C453 0.929 . S
H441 C451 0.929 . S
H442 C446 0.929 . S
H443 C452 0.929 . S
C444 H438 0.930 . S
C444 C445 1.367 . S
C444 C452 1.378 . S
C445 C444 1.367 . S
C445 C453 1.433 . S
C446 H442 0.929 . S
C446 C448 1.378 . S
C446 C450 1.350 . S
C447 C450 1.463 1_565 S
C447 C452 1.350 . S
C447 N455 1.427 . S
C448 H439 0.930 . S
C448 C446 1.378 . S
C448 C449 1.367 . S
C449 C448 1.367 . S
C449 C451 1.433 . S
C450 C446 1.350 . S
C450 C447 1.463 1_545 S
C450 N454 1.427 . S
C451 H441 0.929 . S
C451 C449 1.433 . S
C451 N454 1.384 . S
C452 H443 0.929 . S
C452 C444 1.378 . S
C452 C447 1.350 . S
C453 H440 0.929 . S
C453 C445 1.433 . S
C453 N455 1.384 . S
N454 C450 1.427 . S
N454 C451 1.384 . S
N455 C447 1.427 . S
N455 C453 1.384 . S
C139 C15 1.452 . S
C143 C103 1.464 . S
C157 C40 1.443 . S
C161 C117 1.416 . S
C175 C10 1.406 . S
C179 C54 1.401 . S
C193 C81 1.452 . S
C197 C29 1.463 . S
C211 C59 1.427 . S
C215 C98 1.437 . S
C229 C76 1.404 . S
C233 C128 1.402 . S
C247 C120 1.485 . S
C251 C8 1.484 . S
C265 C43 1.549 . S
C269 C7 1.550 . S
C283 C32 1.522 . S
C287 C51 1.517 . S
C301 C52 1.484 . S
C305 C74 1.483 . S
C319 C73 1.554 . S
C323 C95 1.554 . S
C337 C131 1.513 . S
C341 C96 1.521 . S
C355 C62 1.482 . S
C359 C84 1.482 . S
C373 C87 1.554 . S
C377 C109 1.554 . S
C391 C106 1.522 . S
C395 C125 1.515 . S
C409 C118 1.483 . S
C413 C18 1.483 . S
C427 C37 1.550 . S
C431 C21 1.548 . S
C445 C65 1.512 . S
C449 C30 1.521 . S
