# Generated by pormake.
# Topology una, (4)-cn, num edge types: 1
# Building blocks:
#     Node 0, Type 0, BuildingBlock: CEKHIL_clean_sbu_0, # of connection points: 4
#     Node 1, Type 0, BuildingBlock: CEKHIL_clean_sbu_0, # of connection points: 4
#     Node 2, Type 0, BuildingBlock: CEKHIL_clean_sbu_0, # of connection points: 4
#     Node 3, Type 0, BuildingBlock: CEKHIL_clean_sbu_0, # of connection points: 4
#     Node 4, Type 0, BuildingBlock: CEKHIL_clean_sbu_0, # of connection points: 4
#     Node 5, Type 0, BuildingBlock: CEKHIL_clean_sbu_0, # of connection points: 4
#     Node 6, Type 0, BuildingBlock: CEKHIL_clean_sbu_0, # of connection points: 4
#     Node 7, Type 0, BuildingBlock: CEKHIL_clean_sbu_0, # of connection points: 4
#     Node 8, Type 0, BuildingBlock: CEKHIL_clean_sbu_0, # of connection points: 4
#     Node 9, Type 0, BuildingBlock: CEKHIL_clean_sbu_0, # of connection points: 4
#     Node 10, Type 0, BuildingBlock: CEKHIL_clean_sbu_0, # of connection points: 4
#     Node 11, Type 0, BuildingBlock: CEKHIL_clean_sbu_0, # of connection points: 4
#     Edge 12, Type (0, 0), BuildingBlock: TEMPAE_clean_linker_10, # of connection points: 2
#     Edge 13, Type (0, 0), BuildingBlock: TEMPAE_clean_linker_10, # of connection points: 2
#     Edge 14, Type (0, 0), BuildingBlock: TEMPAE_clean_linker_10, # of connection points: 2
#     Edge 15, Type (0, 0), BuildingBlock: TEMPAE_clean_linker_10, # of connection points: 2
#     Edge 16, Type (0, 0), BuildingBlock: TEMPAE_clean_linker_10, # of connection points: 2
#     Edge 17, Type (0, 0), BuildingBlock: TEMPAE_clean_linker_10, # of connection points: 2
#     Edge 18, Type (0, 0), BuildingBlock: TEMPAE_clean_linker_10, # of connection points: 2
#     Edge 19, Type (0, 0), BuildingBlock: TEMPAE_clean_linker_10, # of connection points: 2
#     Edge 20, Type (0, 0), BuildingBlock: TEMPAE_clean_linker_10, # of connection points: 2
#     Edge 21, Type (0, 0), BuildingBlock: TEMPAE_clean_linker_10, # of connection points: 2
#     Edge 22, Type (0, 0), BuildingBlock: TEMPAE_clean_linker_10, # of connection points: 2
#     Edge 23, Type (0, 0), BuildingBlock: TEMPAE_clean_linker_10, # of connection points: 2
#     Edge 24, Type (0, 0), BuildingBlock: TEMPAE_clean_linker_10, # of connection points: 2
#     Edge 25, Type (0, 0), BuildingBlock: TEMPAE_clean_linker_10, # of connection points: 2
#     Edge 26, Type (0, 0), BuildingBlock: TEMPAE_clean_linker_10, # of connection points: 2
#     Edge 27, Type (0, 0), BuildingBlock: TEMPAE_clean_linker_10, # of connection points: 2
#     Edge 28, Type (0, 0), BuildingBlock: TEMPAE_clean_linker_10, # of connection points: 2
#     Edge 29, Type (0, 0), BuildingBlock: TEMPAE_clean_linker_10, # of connection points: 2
#     Edge 30, Type (0, 0), BuildingBlock: TEMPAE_clean_linker_10, # of connection points: 2
#     Edge 31, Type (0, 0), BuildingBlock: TEMPAE_clean_linker_10, # of connection points: 2
#     Edge 32, Type (0, 0), BuildingBlock: TEMPAE_clean_linker_10, # of connection points: 2
#     Edge 33, Type (0, 0), BuildingBlock: TEMPAE_clean_linker_10, # of connection points: 2
#     Edge 34, Type (0, 0), BuildingBlock: TEMPAE_clean_linker_10, # of connection points: 2
#     Edge 35, Type (0, 0), BuildingBlock: TEMPAE_clean_linker_10, # of connection points: 2
# Relax obj value: 0.022
# Max RMSD: 0.036
# Mean RMSD: 0.036
data_MOF--net-una--node1-CEKHIL_clean_sbu_0--edge1-TEMPAE_clean_linker_10
_symmetry_space_group_name_H-M    P1
_symmetry_Int_Tables_number       1
_symmetry_cell_setting            triclinic
loop_
_symmetry_equiv_pos_as_xyz
'x, y, z'
_cell_length_a     58.301093
_cell_length_b     58.298019
_cell_length_c     22.21333
_cell_angle_alpha  90.019379
_cell_angle_beta   90.027348
_cell_angle_gamma 120.01221
loop_
_atom_site_label
_atom_site_type_symbol
_atom_site_fract_x
_atom_site_fract_y
_atom_site_fract_z
_atom_type_partial_charge
Co0 Co 0.13076 0.43245 0.02832 0.0
O1 O 0.1079 0.43321 0.96699 0.0
O2 O 0.09368 0.40779 0.0478 0.0
C3 C 0.15792 0.42884 0.96232 0.0
O4 O 0.14991 0.42636 0.09997 0.0
Co5 Co 0.18955 0.47712 0.03219 0.0
O6 O 0.19351 0.45081 0.0801 0.0
C7 C 0.14795 0.48737 0.07849 0.0
C8 C 0.08815 0.415 0.99677 0.0
C9 C 0.17432 0.43276 0.10989 0.0
O10 O 0.13017 0.4629 0.07069 0.0
O11 O 0.1723 0.49703 0.0638 0.0
O12 O 0.13638 0.40796 0.97976 0.0
O13 O 0.16152 0.45127 0.98193 0.0
Co14 Co 0.69204 0.13445 0.18759 0.0
O15 O 0.66951 0.11063 0.12643 0.0
O16 O 0.68031 0.09756 0.20945 0.0
C17 C 0.72269 0.16168 0.12121 0.0
O18 O 0.71639 0.15524 0.25944 0.0
Co19 Co 0.70316 0.19242 0.18361 0.0
O20 O 0.73164 0.19848 0.24045 0.0
C21 C 0.65211 0.14999 0.23109 0.0
C22 C 0.66782 0.09127 0.15796 0.0
C23 C 0.73179 0.18018 0.27151 0.0
O24 O 0.65999 0.13296 0.22698 0.0
O25 O 0.6658 0.17404 0.21347 0.0
O26 O 0.72333 0.14116 0.14164 0.0
O27 O 0.70291 0.16411 0.13848 0.0
Co28 Co 0.56909 0.69701 0.36255 0.0
O29 O 0.56997 0.67612 0.2968 0.0
O30 O 0.59145 0.6817 0.38218 0.0
C31 C 0.57682 0.7317 0.30436 0.0
O32 O 0.57255 0.71873 0.43923 0.0
Co33 Co 0.52442 0.71139 0.3597 0.0
O34 O 0.54328 0.7333 0.43049 0.0
C35 C 0.51153 0.6568 0.38651 0.0
C36 C 0.58589 0.67154 0.32815 0.0
C37 C 0.56195 0.73237 0.45819 0.0
O38 O 0.53629 0.66485 0.39479 0.0
O39 O 0.50311 0.67179 0.36608 0.0
O40 O 0.59639 0.72908 0.32349 0.0
O41 O 0.55349 0.71234 0.31641 0.0
Co42 Co 0.87459 0.56703 0.52879 0.0
O43 O 0.89509 0.56518 0.46348 0.0
O44 O 0.91262 0.5899 0.54409 0.0
C45 C 0.84716 0.57268 0.4675 0.0
O46 O 0.85787 0.57407 0.60398 0.0
Co47 Co 0.8153 0.52431 0.53735 0.0
O48 O 0.81384 0.5515 0.58752 0.0
C49 C 0.85604 0.51118 0.57478 0.0
C50 C 0.91619 0.58251 0.49111 0.0
C51 C 0.83399 0.56891 0.61614 0.0
O52 O 0.8743 0.53552 0.56784 0.0
O53 O 0.83162 0.50259 0.56231 0.0
O54 O 0.86958 0.59278 0.48378 0.0
O55 O 0.84275 0.54975 0.48536 0.0
Co56 Co 0.30823 0.86956 0.68843 0.0
O57 O 0.33136 0.89204 0.6262 0.0
O58 O 0.32242 0.90691 0.7091 0.0
C59 C 0.27597 0.84312 0.62406 0.0
O60 O 0.28369 0.85067 0.76102 0.0
Co61 Co 0.29286 0.81016 0.68744 0.0
O62 O 0.26462 0.80686 0.74231 0.0
C63 C 0.3469 0.85144 0.72249 0.0
C64 C 0.33431 0.91214 0.65699 0.0
C65 C 0.26606 0.82624 0.77212 0.0
O66 O 0.33917 0.86857 0.72742 0.0
O67 O 0.33205 0.82798 0.70201 0.0
O68 O 0.2777 0.86505 0.6424 0.0
O69 O 0.29468 0.83897 0.64144 0.0
Co70 Co 0.44049 0.30899 0.85265 0.0
O71 O 0.44079 0.33083 0.78772 0.0
O72 O 0.41825 0.32441 0.87177 0.0
C73 C 0.43315 0.27492 0.79247 0.0
O74 O 0.43542 0.28613 0.92815 0.0
Co75 Co 0.48439 0.29351 0.85252 0.0
O76 O 0.46389 0.27058 0.92054 0.0
C77 C 0.4979 0.3481 0.88254 0.0
C78 C 0.42451 0.33514 0.81838 0.0
C79 C 0.44508 0.27166 0.94708 0.0
O80 O 0.47309 0.3405 0.88794 0.0
O81 O 0.50622 0.33291 0.8629 0.0
O82 O 0.41352 0.27761 0.81086 0.0
O83 O 0.45642 0.29383 0.80698 0.0
Co84 Co 0.56471 0.87143 0.91198 0.0
O85 O 0.56404 0.89308 0.97636 0.0
O86 O 0.5868 0.90908 0.89255 0.0
C87 C 0.57216 0.84522 0.97374 0.0
O88 O 0.5703 0.85365 0.83707 0.0
Co89 Co 0.52238 0.8116 0.91099 0.0
O90 O 0.54774 0.80966 0.85485 0.0
C91 C 0.50731 0.85162 0.8793 0.0
C92 C 0.58044 0.91363 0.94575 0.0
C93 C 0.56464 0.82963 0.82486 0.0
O94 O 0.53193 0.86969 0.87599 0.0
O95 O 0.49962 0.82798 0.89723 0.0
O96 O 0.59175 0.86747 0.95481 0.0
O97 O 0.54889 0.84048 0.95799 0.0
Co98 Co 0.6969 0.5644 0.07447 0.0
O99 O 0.67546 0.56512 0.13914 0.0
O100 O 0.68266 0.58767 0.05484 0.0
C101 C 0.73056 0.5707 0.13492 0.0
O102 O 0.71953 0.56833 0.99925 0.0
Co103 Co 0.71012 0.51884 0.0767 0.0
O104 O 0.73341 0.53855 0.00841 0.0
C105 C 0.65619 0.50734 0.04672 0.0
C106 C 0.67185 0.5818 0.10819 0.0
C107 C 0.73324 0.55768 0.98105 0.0
O108 O 0.66475 0.53228 0.0395 0.0
O109 O 0.67061 0.49834 0.06766 0.0
O110 O 0.72875 0.59079 0.11608 0.0
O111 O 0.71106 0.54774 0.1207 0.0
Co112 Co 0.13271 0.69142 0.23325 0.0
O113 O 0.10969 0.66959 0.29648 0.0
O114 O 0.09563 0.67827 0.21182 0.0
C115 C 0.1599 0.72425 0.29558 0.0
O116 O 0.15222 0.71447 0.15889 0.0
Co117 Co 0.19127 0.70418 0.23599 0.0
O118 O 0.19589 0.72959 0.17215 0.0
C119 C 0.14933 0.65161 0.19473 0.0
C120 C 0.08997 0.66683 0.26446 0.0
C121 C 0.1768 0.72901 0.14291 0.0
O122 O 0.13203 0.65915 0.19732 0.0
O123 O 0.17348 0.66605 0.21115 0.0
O124 O 0.13838 0.72301 0.27586 0.0
O125 O 0.16326 0.70469 0.28099 0.0
Co126 Co 0.43207 0.12859 0.39757 0.0
O127 O 0.43403 0.10765 0.46187 0.0
O128 O 0.40865 0.09078 0.38176 0.0
C129 C 0.42754 0.15637 0.46003 0.0
O130 O 0.42491 0.14563 0.3232 0.0
Co131 Co 0.47525 0.18774 0.38791 0.0
O132 O 0.44785 0.18965 0.33949 0.0
C133 C 0.48713 0.14646 0.34785 0.0
C134 C 0.4165 0.0868 0.43376 0.0
C135 C 0.43023 0.16956 0.31113 0.0
O136 O 0.46294 0.12835 0.35689 0.0
O137 O 0.49618 0.17101 0.35955 0.0
O138 O 0.40705 0.13412 0.44423 0.0
O139 O 0.45017 0.16041 0.44081 0.0
Co140 Co 0.31111 0.44105 0.57229 0.0
O141 O 0.3332 0.44051 0.63566 0.0
O142 O 0.32587 0.41853 0.55029 0.0
C143 C 0.27753 0.43377 0.63384 0.0
O144 O 0.28796 0.43701 0.49798 0.0
Co145 Co 0.2965 0.48567 0.5775 0.0
O146 O 0.2727 0.46554 0.51023 0.0
C147 C 0.35063 0.49855 0.54452 0.0
C148 C 0.33704 0.42434 0.60329 0.0
C149 C 0.27348 0.44703 0.48134 0.0
O150 O 0.34267 0.4737 0.53751 0.0
O151 O 0.33584 0.50699 0.56595 0.0
O152 O 0.27975 0.41402 0.61417 0.0
O153 O 0.29664 0.45698 0.61993 0.0
Co154 Co 0.87247 0.30765 0.731 0.0
O155 O 0.89458 0.32858 0.79599 0.0
O156 O 0.90972 0.31818 0.71596 0.0
C157 C 0.84254 0.27684 0.79299 0.0
O158 O 0.85333 0.28436 0.65653 0.0
Co159 Co 0.81573 0.29899 0.72389 0.0
O160 O 0.80995 0.26855 0.67394 0.0
C161 C 0.8608 0.34998 0.68485 0.0
C162 C 0.91455 0.32954 0.76876 0.0
C163 C 0.82854 0.26793 0.64519 0.0
O164 O 0.87679 0.34094 0.69145 0.0
O165 O 0.83617 0.3369 0.69807 0.0
O166 O 0.86307 0.27545 0.77596 0.0
O167 O 0.84153 0.2974 0.77537 0.0
C168 C 0.16934 0.41741 0.21773 0.0
C169 C 0.18202 0.42189 0.16181 0.0
C170 C 0.18158 0.41515 0.27057 0.0
C171 C 0.20705 0.41757 0.26725 0.0
C172 C 0.21841 0.41919 0.21003 0.0
C173 C 0.20575 0.42123 0.15823 0.0
C174 C 0.16841 0.41277 0.33045 0.0
C175 C 0.24544 0.42187 0.2037 0.0
C176 C 0.25583 0.45783 0.39066 0.0
C177 C 0.25785 0.43859 0.42453 0.0
C178 C 0.23941 0.45108 0.33995 0.0
C179 C 0.2241 0.42421 0.32235 0.0
C180 C 0.2262 0.40456 0.3558 0.0
C181 C 0.24325 0.41201 0.40637 0.0
C182 C 0.23847 0.47292 0.30526 0.0
C183 C 0.20998 0.37569 0.33902 0.0
H184 H 0.15103 0.41788 0.22101 0.0
H185 H 0.21552 0.42433 0.11501 0.0
H186 H 0.17095 0.39906 0.36068 0.0
H187 H 0.1778 0.43247 0.35259 0.0
H188 H 0.14692 0.40563 0.32522 0.0
H189 H 0.24943 0.41833 0.15671 0.0
H190 H 0.26081 0.44222 0.21688 0.0
H191 H 0.24748 0.40786 0.23388 0.0
H192 H 0.26718 0.47845 0.40413 0.0
H193 H 0.24446 0.39702 0.43278 0.0
H194 H 0.21799 0.46955 0.30507 0.0
H195 H 0.24428 0.47282 0.25773 0.0
H196 H 0.25183 0.49284 0.32457 0.0
H197 H 0.1886 0.36904 0.34382 0.0
H198 H 0.21469 0.36296 0.36765 0.0
H199 H 0.21337 0.37275 0.29121 0.0
C200 C 0.79374 0.22721 0.59419 0.0
C201 C 0.81987 0.24869 0.59411 0.0
C202 C 0.78198 0.21236 0.54205 0.0
C203 C 0.7968 0.21855 0.48815 0.0
C204 C 0.82413 0.23808 0.48952 0.0
C205 C 0.83535 0.25315 0.5424 0.0
C206 C 0.75282 0.19195 0.54334 0.0
C207 C 0.84099 0.24447 0.43381 0.0
C208 C 0.75875 0.17401 0.35386 0.0
C209 C 0.74917 0.18919 0.32604 0.0
C210 C 0.77559 0.18376 0.40484 0.0
C211 C 0.78229 0.20888 0.4295 0.0
C212 C 0.7727 0.22417 0.40117 0.0
C213 C 0.7566 0.21429 0.35006 0.0
C214 C 0.78575 0.16697 0.43268 0.0
C215 C 0.77862 0.25074 0.42607 0.0
H216 H 0.78172 0.22305 0.63434 0.0
H217 H 0.85562 0.26941 0.54189 0.0
H218 H 0.74161 0.19949 0.51768 0.0
H219 H 0.74916 0.17332 0.52153 0.0
H220 H 0.74485 0.18737 0.58992 0.0
H221 H 0.86245 0.25534 0.44491 0.0
H222 H 0.83625 0.22609 0.40896 0.0
H223 H 0.83684 0.25705 0.40339 0.0
H224 H 0.75336 0.15472 0.33556 0.0
H225 H 0.74924 0.22624 0.32962 0.0
H226 H 0.7731 0.15596 0.47157 0.0
H227 H 0.80633 0.1794 0.4494 0.0
H228 H 0.78524 0.15227 0.40007 0.0
H229 H 0.77061 0.24824 0.47243 0.0
H230 H 0.76992 0.2603 0.39821 0.0
H231 H 0.80032 0.26433 0.42868 0.0
C232 C 0.5494 0.74064 0.55876 0.0
C233 C 0.56952 0.74642 0.5168 0.0
C234 C 0.55367 0.75689 0.609 0.0
C235 C 0.57872 0.7799 0.61761 0.0
C236 C 0.59954 0.78531 0.57665 0.0
C237 C 0.59469 0.76847 0.52657 0.0
C238 C 0.5309 0.74996 0.65155 0.0
C239 C 0.62654 0.80951 0.58418 0.0
C240 C 0.57215 0.83058 0.71353 0.0
C241 C 0.57586 0.82347 0.77141 0.0
C242 C 0.57513 0.81804 0.66214 0.0
C243 C 0.58232 0.79821 0.66889 0.0
C244 C 0.58857 0.79295 0.72703 0.0
C245 C 0.58494 0.80537 0.77748 0.0
C246 C 0.56819 0.82427 0.6012 0.0
C247 C 0.59677 0.77243 0.73667 0.0
H248 H 0.52983 0.72376 0.55087 0.0
H249 H 0.61012 0.77334 0.49347 0.0
H250 H 0.5367 0.74843 0.69829 0.0
H251 H 0.52575 0.76589 0.65097 0.0
H252 H 0.51293 0.73095 0.63955 0.0
H253 H 0.64136 0.80932 0.55306 0.0
H254 H 0.62525 0.82754 0.57514 0.0
H255 H 0.63364 0.81096 0.63114 0.0
H256 H 0.56474 0.84423 0.70865 0.0
H257 H 0.58773 0.79974 0.82225 0.0
H258 H 0.54883 0.80754 0.58641 0.0
H259 H 0.58317 0.82668 0.56724 0.0
H260 H 0.56673 0.84256 0.60207 0.0
H261 H 0.57918 0.75235 0.73203 0.0
H262 H 0.60544 0.77406 0.7821 0.0
H263 H 0.61142 0.77436 0.70227 0.0
C264 C 0.80715 0.58625 0.66356 0.0
C265 C 0.8279 0.5807 0.66877 0.0
C266 C 0.7943 0.58871 0.71457 0.0
C267 C 0.80227 0.58545 0.77262 0.0
C268 C 0.82507 0.58271 0.77831 0.0
C269 C 0.83765 0.58035 0.72622 0.0
C270 C 0.77031 0.59182 0.70576 0.0
C271 C 0.83458 0.57959 0.83925 0.0
C272 C 0.76742 0.59272 0.91229 0.0
C273 C 0.74871 0.56617 0.92419 0.0
C274 C 0.78511 0.59955 0.86311 0.0
C275 C 0.78377 0.57937 0.82487 0.0
C276 C 0.76415 0.55269 0.83578 0.0
C277 C 0.74712 0.54649 0.88524 0.0
C278 C 0.80579 0.62818 0.8534 0.0
C279 C 0.76141 0.53045 0.79585 0.0
H280 H 0.79956 0.58662 0.61919 0.0
H281 H 0.85351 0.57585 0.73067 0.0
H282 H 0.75211 0.57238 0.7128 0.0
H283 H 0.77008 0.6059 0.739 0.0
H284 H 0.76958 0.59886 0.65972 0.0
H285 H 0.85497 0.58267 0.83718 0.0
H286 H 0.83421 0.59377 0.87202 0.0
H287 H 0.82113 0.55929 0.85636 0.0
H288 H 0.76904 0.60795 0.94289 0.0
H289 H 0.7327 0.52592 0.8943 0.0
H290 H 0.80565 0.63398 0.80591 0.0
H291 H 0.82571 0.63088 0.86249 0.0
H292 H 0.80274 0.64171 0.88328 0.0
H293 H 0.75813 0.53416 0.74851 0.0
H294 H 0.74473 0.51086 0.80971 0.0
H295 H 0.77995 0.52952 0.7971 0.0
C296 C 0.22253 0.79598 0.8197 0.0
C297 C 0.24757 0.8189 0.82405 0.0
C298 C 0.20716 0.7838 0.87102 0.0
C299 C 0.21703 0.79468 0.9286 0.0
C300 C 0.24103 0.81934 0.93272 0.0
C301 C 0.25606 0.83121 0.8803 0.0
C302 C 0.18174 0.75772 0.86385 0.0
C303 C 0.25212 0.83191 0.99301 0.0
C304 C 0.17404 0.76031 0.06756 0.0
C305 C 0.18439 0.74424 0.08559 0.0
C306 C 0.1845 0.77715 0.01684 0.0
C307 C 0.20548 0.7776 0.98331 0.0
C308 C 0.2153 0.76075 1.00071 0.0
C309 C 0.20476 0.74451 0.05139 0.0
C310 C 0.17362 0.79494 1.0001 0.0
C311 C 0.2372 0.75995 0.96605 0.0
H312 H 0.21566 0.78651 0.77621 0.0
H313 H 0.27536 0.84889 0.88411 0.0
H314 H 0.18522 0.74133 0.87688 0.0
H315 H 0.16605 0.75676 0.89372 0.0
H316 H 0.17443 0.75436 0.81666 0.0
H317 H 0.26772 0.85304 0.9884 0.0
H318 H 0.2362 0.83058 0.02271 0.0
H319 H 0.26096 0.82113 0.01539 0.0
H320 H 0.15854 0.76044 0.09424 0.0
H321 H 0.21275 0.73201 0.06481 0.0
H322 H 0.16781 0.79233 0.95194 0.0
H323 H 0.18925 0.81594 0.00624 0.0
H324 H 0.15621 0.79103 0.02791 0.0
H325 H 0.2311 0.75437 0.91851 0.0
H326 H 0.24246 0.7456 0.98534 0.0
H327 H 0.25521 0.77986 0.96592 0.0
C328 C 0.41247 0.19598 0.26337 0.0
C329 C 0.41874 0.17573 0.25813 0.0
C330 C 0.41046 0.20916 0.21244 0.0
C331 C 0.41514 0.20218 0.15456 0.0
C332 C 0.41875 0.17991 0.14862 0.0
C333 C 0.42046 0.16689 0.20057 0.0
C334 C 0.40625 0.23246 0.22137 0.0
C335 C 0.42354 0.17155 0.08785 0.0
C336 C 0.40929 0.2371 0.01344 0.0
C337 C 0.43586 0.25643 0.00405 0.0
C338 C 0.40197 0.21933 0.06254 0.0
C339 C 0.42166 0.22117 0.10316 0.0
C340 C 0.44829 0.24148 0.09486 0.0
C341 C 0.45501 0.25861 0.04543 0.0
C342 C 0.37341 0.19796 0.06951 0.0
C343 C 0.46999 0.24472 0.13732 0.0
H344 H 0.41115 0.20292 0.30786 0.0
H345 H 0.42562 0.15149 0.19618 0.0
H346 H 0.42549 0.25112 0.21675 0.0
H347 H 0.39265 0.23266 0.18671 0.0
H348 H 0.39805 0.23225 0.26665 0.0
H349 H 0.42129 0.15147 0.08926 0.0
H350 H 0.40968 0.17169 0.05383 0.0
H351 H 0.44398 0.18582 0.07284 0.0
H352 H 0.39452 0.23503 0.98089 0.0
H353 H 0.47559 0.27347 0.03811 0.0
H354 H 0.36667 0.19734 0.11649 0.0
H355 H 0.37148 0.1784 0.05979 0.0
H356 H 0.36012 0.2009 0.03858 0.0
H357 H 0.46506 0.24733 0.18413 0.0
H358 H 0.48955 0.26199 0.12551 0.0
H359 H 0.47174 0.22663 0.13643 0.0
C360 C 0.15568 0.52371 0.14849 0.0
C361 C 0.14023 0.50598 0.10324 0.0
C362 C 0.15194 0.54478 0.16537 0.0
C363 C 0.13292 0.54877 0.13465 0.0
C364 C 0.11627 0.53006 0.09102 0.0
C365 C 0.11993 0.50861 0.07632 0.0
C366 C 0.16959 0.56375 0.21343 0.0
C367 C 0.0961 0.53381 0.05647 0.0
C368 C 0.12145 0.6024 0.20116 0.0
C369 C 0.1414 0.6249 0.17225 0.0
C370 C 0.11738 0.57704 0.18745 0.0
C371 C 0.13323 0.57431 0.14284 0.0
C372 C 0.15198 0.59691 0.11048 0.0
C373 C 0.15616 0.62198 0.12638 0.0
C374 C 0.09755 0.55359 0.22372 0.0
C375 C 0.16878 0.59486 0.06137 0.0
H376 H 0.17132 0.52156 0.16938 0.0
H377 H 0.10817 0.495 0.04082 0.0
H378 H 0.18418 0.58279 0.19232 0.0
H379 H 0.15773 0.56804 0.24581 0.0
H380 H 0.18061 0.55586 0.23865 0.0
H381 H 0.08201 0.51563 0.03147 0.0
H382 H 0.08474 0.53948 0.08706 0.0
H383 H 0.1065 0.55015 0.02358 0.0
H384 H 0.11024 0.6048 0.2371 0.0
H385 H 0.17154 0.63948 0.10402 0.0
H386 H 0.10828 0.54768 0.25576 0.0
H387 H 0.08549 0.53634 0.19413 0.0
H388 H 0.08409 0.55819 0.24982 0.0
H389 H 0.18338 0.59019 0.08157 0.0
H390 H 0.17975 0.61356 0.03537 0.0
H391 H 0.15628 0.57857 0.02981 0.0
C392 C 0.60307 0.1197 0.23381 0.0
C393 C 0.62578 0.14189 0.2563 0.0
C394 C 0.57767 0.11523 0.24864 0.0
C395 C 0.57518 0.13308 0.28775 0.0
C396 C 0.59814 0.15427 0.31415 0.0
C397 C 0.62315 0.15864 0.29737 0.0
C398 C 0.55375 0.09264 0.21894 0.0
C399 C 0.59642 0.17339 0.35734 0.0
C400 C 0.52199 0.15185 0.27584 0.0
C401 C 0.50611 0.13879 0.32559 0.0
C402 C 0.54319 0.14819 0.25983 0.0
C403 C 0.54926 0.1319 0.29601 0.0
C404 C 0.53243 0.11764 0.34468 0.0
C405 C 0.51074 0.121 0.35843 0.0
C406 C 0.56012 0.16314 0.20646 0.0
C407 C 0.5385 0.10056 0.38512 0.0
H408 H 0.60519 0.10692 0.20156 0.0
H409 H 0.64079 0.17573 0.31492 0.0
H410 H 0.53753 0.08201 0.25192 0.0
H411 H 0.54626 0.10065 0.18352 0.0
H412 H 0.55851 0.07826 0.19771 0.0
H413 H 0.61569 0.18659 0.37965 0.0
H414 H 0.59021 0.18591 0.33259 0.0
H415 H 0.58134 0.16245 0.39253 0.0
H416 H 0.51825 0.16555 0.25049 0.0
H417 H 0.49852 0.11113 0.39733 0.0
H418 H 0.5642 0.14991 0.17812 0.0
H419 H 0.57944 0.17952 0.22251 0.0
H420 H 0.55059 0.17172 0.17811 0.0
H421 H 0.54387 0.0879 0.35827 0.0
H422 H 0.5215 0.08771 0.41475 0.0
H423 H 0.55576 0.11346 0.41398 0.0
C424 C 0.38847 0.54499 0.54459 0.0
C425 C 0.37772 0.51868 0.52506 0.0
C426 C 0.41272 0.56513 0.52242 0.0
C427 C 0.42669 0.55895 0.47934 0.0
C428 C 0.41675 0.53225 0.46178 0.0
C429 C 0.39235 0.51237 0.48498 0.0
C430 C 0.42268 0.59328 0.54293 0.0
C431 C 0.43115 0.52487 0.41621 0.0
C432 C 0.46627 0.61751 0.37715 0.0
C433 C 0.49139 0.6295 0.40409 0.0
C434 C 0.44556 0.59337 0.3984 0.0
C435 C 0.44992 0.58101 0.44843 0.0
C436 C 0.47569 0.59209 0.47338 0.0
C437 C 0.49622 0.61621 0.45064 0.0
C438 C 0.41852 0.58207 0.36977 0.0
C439 C 0.48116 0.57949 0.52665 0.0
H440 H 0.37761 0.55006 0.57634 0.0
H441 H 0.38428 0.49208 0.46987 0.0
H442 H 0.44361 0.6025 0.55786 0.0
H443 H 0.422 0.6052 0.50474 0.0
H444 H 0.41071 0.59444 0.58045 0.0
H445 H 0.42317 0.50313 0.41439 0.0
H446 H 0.42907 0.53165 0.37092 0.0
H447 H 0.45261 0.53483 0.42669 0.0
H448 H 0.46252 0.62745 0.34041 0.0
H449 H 0.51562 0.62533 0.47152 0.0
H450 H 0.40492 0.58416 0.40132 0.0
H451 H 0.41003 0.56064 0.36042 0.0
H452 H 0.41916 0.59227 0.32704 0.0
H453 H 0.47252 0.58297 0.56775 0.0
H454 H 0.50273 0.58782 0.53415 0.0
H455 H 0.47172 0.55775 0.52044 0.0
C456 C 0.88751 0.49363 0.58024 0.0
C457 C 0.86331 0.49163 0.59637 0.0
C458 C 0.89278 0.47311 0.59377 0.0
C459 C 0.87357 0.4504 0.62505 0.0
C460 C 0.84981 0.44911 0.64443 0.0
C461 C 0.84487 0.46958 0.62931 0.0
C462 C 0.91819 0.4751 0.57181 0.0
C463 C 0.829 0.42556 0.67905 0.0
C464 C 0.86164 0.38083 0.60736 0.0
C465 C 0.87082 0.37706 0.66255 0.0
C466 C 0.86486 0.4056 0.59188 0.0
C467 C 0.87682 0.42681 0.63356 0.0
C468 C 0.88782 0.42354 0.68758 0.0
C469 C 0.88478 0.39861 0.70134 0.0
C470 C 0.85335 0.40834 0.53324 0.0
C471 C 0.90053 0.44551 0.73343 0.0
H472 H 0.90176 0.5106 0.55446 0.0
H473 H 0.82626 0.4681 0.64244 0.0
H474 H 0.92774 0.4698 0.60819 0.0
H475 H 0.91371 0.46081 0.53448 0.0
H476 H 0.93246 0.49528 0.55519 0.0
H477 H 0.81278 0.42871 0.69539 0.0
H478 H 0.82025 0.40774 0.64977 0.0
H479 H 0.83808 0.42135 0.71834 0.0
H480 H 0.85064 0.364 0.57775 0.0
H481 H 0.89148 0.39546 0.74449 0.0
H482 H 0.86732 0.4272 0.51057 0.0
H483 H 0.83484 0.40873 0.54238 0.0
H484 H 0.84863 0.39165 0.50204 0.0
H485 H 0.91372 0.46476 0.71131 0.0
H486 H 0.91218 0.44156 0.76726 0.0
H487 H 0.88486 0.4474 0.75739 0.0
C488 C 0.38681 0.87626 0.78932 0.0
C489 C 0.37395 0.85843 0.74198 0.0
C490 C 0.41096 0.88002 0.8125 0.0
C491 C 0.42256 0.86589 0.78709 0.0
C492 C 0.4105 0.84934 0.7366 0.0
C493 C 0.38632 0.84568 0.71504 0.0
C494 C 0.42316 0.89781 0.86641 0.0
C495 C 0.42234 0.83422 0.70739 0.0
C496 C 0.49209 0.87889 0.82171 0.0
C497 C 0.48649 0.85778 0.86069 0.0
C498 C 0.47165 0.88281 0.79957 0.0
C499 C 0.44512 0.86534 0.81732 0.0
C500 C 0.43967 0.84503 0.85941 0.0
C501 C 0.46033 0.84144 0.88029 0.0
C502 C 0.47827 0.90471 0.75482 0.0
C503 C 0.41174 0.82612 0.88017 0.0
H504 H 0.37737 0.88623 0.81019 0.0
H505 H 0.37672 0.83224 0.67768 0.0
H506 H 0.42012 0.88549 0.90693 0.0
H507 H 0.44483 0.91073 0.86025 0.0
H508 H 0.41422 0.91045 0.87489 0.0
H509 H 0.41218 0.82458 0.66465 0.0
H510 H 0.44367 0.84762 0.69789 0.0
H511 H 0.42077 0.81864 0.73861 0.0
H512 H 0.51225 0.89169 0.80655 0.0
H513 H 0.45584 0.82537 0.91128 0.0
H514 H 0.46793 0.91573 0.76649 0.0
H515 H 0.47135 0.89601 0.70943 0.0
H516 H 0.49991 0.91888 0.75255 0.0
H517 H 0.402 0.83725 0.89567 0.0
H518 H 0.41117 0.81311 0.91736 0.0
H519 H 0.39995 0.81341 0.84197 0.0
C520 C 0.54448 0.38575 0.88296 0.0
C521 C 0.51814 0.37519 0.90193 0.0
C522 C 0.56468 0.40992 0.90545 0.0
C523 C 0.55854 0.42398 0.94838 0.0
C524 C 0.53181 0.41427 0.96524 0.0
C525 C 0.51186 0.38997 0.94166 0.0
C526 C 0.59287 0.41965 0.88564 0.0
C527 C 0.52444 0.42875 0.01064 0.0
C528 C 0.6164 0.46232 0.05348 0.0
C529 C 0.62894 0.48764 0.02753 0.0
C530 C 0.59237 0.44195 0.03079 0.0
C531 C 0.58062 0.44687 0.98035 0.0
C532 C 0.59224 0.47284 0.95636 0.0
C533 C 0.61627 0.49302 0.98048 0.0
C534 C 0.58051 0.41469 0.05844 0.0
C535 C 0.58027 0.47891 0.90276 0.0
H536 H 0.54951 0.37475 0.85144 0.0
H537 H 0.49155 0.38206 0.95634 0.0
H538 H 0.60241 0.44067 0.87138 0.0
H539 H 0.60448 0.41854 0.92399 0.0
H540 H 0.594 0.40777 0.84783 0.0
H541 H 0.50275 0.4211 0.01161 0.0
H542 H 0.53079 0.42633 0.05615 0.0
H543 H 0.53478 0.45028 1.00069 0.0
H544 H 0.62584 0.45814 0.0906 0.0
H545 H 0.62581 0.51257 0.96035 0.0
H546 H 0.58252 0.40114 0.02657 0.0
H547 H 0.55907 0.40645 0.06711 0.0
H548 H 0.59035 0.41485 0.1014 0.0
H549 H 0.58399 0.47048 0.86159 0.0
H550 H 0.5889 0.50057 0.89607 0.0
H551 H 0.5585 0.46966 0.90792 0.0
C552 C 0.24901 0.41047 0.72134 0.0
C553 C 0.2572 0.43027 0.6775 0.0
C554 C 0.23238 0.40905 0.76844 0.0
C555 C 0.22306 0.42727 0.77007 0.0
C556 C 0.23027 0.44647 0.72403 0.0
C557 C 0.24777 0.44809 0.67882 0.0
C558 C 0.22578 0.38888 0.81779 0.0
C559 C 0.2199 0.46558 0.72314 0.0
C560 C 0.1632 0.40999 0.86706 0.0
C561 C 0.17483 0.42737 0.91557 0.0
C562 C 0.17865 0.4099 0.81895 0.0
C563 C 0.20644 0.42683 0.82095 0.0
C564 C 0.21835 0.44373 0.8711 0.0
C565 C 0.20226 0.44423 0.91735 0.0
C566 C 0.1652 0.39236 0.7652 0.0
C567 C 0.24802 0.46136 0.87572 0.0
H568 H 0.2567 0.39695 0.72053 0.0
H569 H 0.25415 0.46332 0.64459 0.0
H570 H 0.23347 0.3992 0.86143 0.0
H571 H 0.20401 0.37623 0.82246 0.0
H572 H 0.23437 0.37593 0.80931 0.0
H573 H 0.22546 0.47759 0.68125 0.0
H574 H 0.198 0.45463 0.72726 0.0
H575 H 0.22792 0.47924 0.76214 0.0
H576 H 0.14185 0.39725 0.86559 0.0
H577 H 0.21111 0.4576 0.95515 0.0
H578 H 0.17287 0.37861 0.75778 0.0
H579 H 0.16972 0.4047 0.72409 0.0
H580 H 0.14335 0.38053 0.77063 0.0
H581 H 0.25791 0.44947 0.86956 0.0
H582 H 0.25419 0.47174 0.91976 0.0
H583 H 0.25519 0.47644 0.83945 0.0
C584 C 0.73237 0.19063 0.03225 0.0
C585 C 0.74109 0.17897 0.0748 0.0
C586 C 0.74883 0.20575 0.98497 0.0
C587 C 0.7749 0.21 0.98161 0.0
C588 C 0.784 0.1987 0.02526 0.0
C589 C 0.76674 0.18286 0.07094 0.0
C590 C 0.73822 0.2169 0.93829 0.0
C591 C 0.812 0.2036 0.02409 0.0
C592 C 0.81142 0.23205 0.83283 0.0
C593 C 0.82494 0.25954 0.84002 0.0
C594 C 0.7948 0.21553 0.87859 0.0
C595 C 0.79279 0.22696 0.93324 0.0
C596 C 0.80713 0.25477 0.941 0.0
C597 C 0.82265 0.27079 0.89361 0.0
C598 C 0.77903 0.18601 0.86808 0.0
C599 C 0.80617 0.26759 0.99935 0.0
H600 H 0.71235 0.18729 0.0349 0.0
H601 H 0.77339 0.17381 0.1041 0.0
H602 H 0.74975 0.23886 0.93924 0.0
H603 H 0.74047 0.21055 0.89262 0.0
H604 H 0.717 0.21047 0.94563 0.0
H605 H 0.81611 0.19383 0.06218 0.0
H606 H 0.81568 0.19618 0.98131 0.0
H607 H 0.82625 0.22521 0.02612 0.0
H608 H 0.81341 0.2236 0.79102 0.0
H609 H 0.83361 0.29215 0.89898 0.0
H610 H 0.75757 0.17896 0.87283 0.0
H611 H 0.78418 0.17553 0.90245 0.0
H612 H 0.7826 0.18038 0.82272 0.0
H613 H 0.78581 0.26387 0.0073 0.0
H614 H 0.81998 0.28933 0.99938 0.0
H615 H 0.8113 0.25875 0.03763 0.0
C616 C 0.5918 0.75038 0.20303 0.0
C617 C 0.58057 0.75106 0.25813 0.0
C618 C 0.59221 0.76598 0.15466 0.0
C619 C 0.58196 0.78323 0.16273 0.0
C620 C 0.57178 0.78488 0.21951 0.0
C621 C 0.57065 0.76823 0.26637 0.0
C622 C 0.60234 0.76301 0.09428 0.0
C623 C 0.56143 0.80365 0.23022 0.0
C624 C 0.59947 0.83836 0.05002 0.0
C625 C 0.5758 0.82832 0.01735 0.0
C626 C 0.60194 0.82375 0.09715 0.0
C627 C 0.58039 0.79838 0.1109 0.0
C628 C 0.55689 0.78767 0.07618 0.0
C629 C 0.5548 0.80291 0.03007 0.0
C630 C 0.62714 0.83589 0.13377 0.0
C631 C 0.53371 0.7604 0.08867 0.0
H632 H 0.59901 0.73661 0.1969 0.0
H633 H 0.56188 0.76847 0.30925 0.0
H634 H 0.58592 0.75495 0.06105 0.0
H635 H 0.61785 0.78258 0.07731 0.0
H636 H 0.61069 0.74956 0.09631 0.0
H637 H 0.55668 0.80438 0.27836 0.0
H638 H 0.57625 0.82394 0.21542 0.0
H639 H 0.54323 0.79734 0.2032 0.0
H640 H 0.61568 0.8581 0.04043 0.0
H641 H 0.53654 0.79507 0.0046 0.0
H642 H 0.63548 0.82247 0.13478 0.0
H643 H 0.62273 0.8386 0.18099 0.0
H644 H 0.64242 0.8554 0.11576 0.0
H645 H 0.54035 0.74557 0.08914 0.0
H646 H 0.51769 0.75427 0.05472 0.0
H647 H 0.52539 0.76007 0.13376 0.0
C648 C 0.80338 0.56118 0.42447 0.0
C649 C 0.83098 0.57514 0.4204 0.0
C650 C 0.78785 0.56216 0.37741 0.0
C651 C 0.80037 0.5764 0.32431 0.0
C652 C 0.82833 0.59042 0.32012 0.0
C653 C 0.84335 0.59005 0.36892 0.0
C654 C 0.7581 0.54776 0.38423 0.0
C655 C 0.84232 0.60495 0.26338 0.0
C656 C 0.75732 0.55375 0.18468 0.0
C657 C 0.7507 0.57363 0.17875 0.0
C658 C 0.77435 0.55495 0.23065 0.0
C659 C 0.78417 0.57607 0.27258 0.0
C660 C 0.77787 0.59643 0.26607 0.0
C661 C 0.76149 0.59517 0.21849 0.0
C662 C 0.7814 0.53335 0.23505 0.0
C663 C 0.78743 0.61889 0.31083 0.0
H664 H 0.79399 0.54966 0.46454 0.0
H665 H 0.86479 0.60045 0.36576 0.0
H666 H 0.75046 0.5614 0.37456 0.0
H667 H 0.74888 0.53129 0.35126 0.0
H668 H 0.75168 0.53947 0.43016 0.0
H669 H 0.86422 0.61489 0.2676 0.0
H670 H 0.83601 0.59081 0.22515 0.0
H671 H 0.8368 0.62008 0.25199 0.0
H672 H 0.74899 0.53716 0.15366 0.0
H673 H 0.75608 0.61039 0.2142 0.0
H674 H 0.77274 0.52162 0.27659 0.0
H675 H 0.80321 0.54216 0.23809 0.0
H676 H 0.77404 0.51969 0.19584 0.0
H677 H 0.7795 0.61083 0.35617 0.0
H678 H 0.78117 0.63342 0.29858 0.0
H679 H 0.80934 0.62945 0.31413 0.0
C680 C 0.16469 0.75098 0.38621 0.0
C681 C 0.17657 0.74376 0.34095 0.0
C682 C 0.17976 0.76736 0.43381 0.0
C683 C 0.20745 0.77751 0.43452 0.0
C684 C 0.21967 0.77111 0.3874 0.0
C685 C 0.20392 0.75376 0.34169 0.0
C686 C 0.16594 0.77293 0.48442 0.0
C687 C 0.24928 0.78234 0.38561 0.0
C688 C 0.24959 0.83748 0.5321 0.0
C689 C 0.25643 0.82607 0.57915 0.0
C690 C 0.23365 0.82188 0.48446 0.0
C691 C 0.22358 0.79419 0.48549 0.0
C692 C 0.22946 0.78248 0.53455 0.0
C693 C 0.24634 0.7987 0.58029 0.0
C694 C 0.22851 0.83515 0.43193 0.0
C695 C 0.21824 0.7529 0.5383 0.0
H696 H 0.1434 0.74283 0.38583 0.0
H697 H 0.21296 0.7481 0.30639 0.0
H698 H 0.16935 0.76543 0.52746 0.0
H699 H 0.17425 0.79458 0.48971 0.0
H700 H 0.14425 0.76353 0.47687 0.0
H701 H 0.25582 0.77721 0.34326 0.0
H702 H 0.25965 0.80423 0.39003 0.0
H703 H 0.25552 0.77463 0.4241 0.0
H704 H 0.25779 0.85877 0.53107 0.0
H705 H 0.25169 0.79 0.61695 0.0
H706 H 0.20691 0.82661 0.42506 0.0
H707 H 0.2366 0.83148 0.39012 0.0
H708 H 0.23765 0.85688 0.43838 0.0
H709 H 0.19641 0.74242 0.5323 0.0
H710 H 0.22281 0.74679 0.58199 0.0
H711 H 0.2265 0.74631 0.50157 0.0
C712 C 0.40999 0.24742 0.70344 0.0
C713 C 0.42957 0.2549 0.7477 0.0
C714 C 0.40845 0.2311 0.65547 0.0
C715 C 0.42629 0.22134 0.65327 0.0
C716 C 0.44531 0.22788 0.69955 0.0
C717 C 0.44707 0.24509 0.74572 0.0
C718 C 0.3885 0.22525 0.60592 0.0
C719 C 0.46403 0.21705 0.69978 0.0
C720 C 0.40816 0.16171 0.55446 0.0
C721 C 0.42574 0.17332 0.50632 0.0
C722 C 0.40821 0.17711 0.60291 0.0
C723 C 0.42554 0.20484 0.60174 0.0
C724 C 0.44256 0.21677 0.55185 0.0
C725 C 0.44286 0.20072 0.50516 0.0
C726 C 0.39047 0.16361 0.65628 0.0
C727 C 0.46064 0.24639 0.5481 0.0
H728 H 0.39672 0.25541 0.70469 0.0
H729 H 0.46216 0.25095 0.7802 0.0
H730 H 0.39899 0.23305 0.56254 0.0
H731 H 0.37547 0.20357 0.60048 0.0
H732 H 0.37591 0.23422 0.61476 0.0
H733 H 0.47602 0.2222 0.74169 0.0
H734 H 0.45276 0.19517 0.69499 0.0
H735 H 0.47771 0.22507 0.66087 0.0
H736 H 0.39522 0.14039 0.55555 0.0
H737 H 0.4564 0.20957 0.4677 0.0
H738 H 0.37714 0.17175 0.66426 0.0
H739 H 0.40271 0.16754 0.6974 0.0
H740 H 0.37817 0.14183 0.65003 0.0
H741 H 0.44911 0.25663 0.55494 0.0
H742 H 0.47101 0.25265 0.50409 0.0
H743 H 0.47572 0.2531 0.58434 0.0
C744 C 0.04477 0.37442 0.9727 0.0
C745 C 0.06142 0.40193 0.96937 0.0
C746 C 0.02139 0.36154 0.93805 0.0
C747 C 0.01424 0.37664 0.90042 0.0
C748 C 0.03068 0.40453 0.8985 0.0
C749 C 0.05419 0.41675 0.93229 0.0
C750 C 0.00459 0.33176 0.94081 0.0
C751 C 0.02349 0.42152 0.86059 0.0
C752 C 0.96353 0.34438 0.77315 0.0
C753 C 0.94056 0.34156 0.80033 0.0
C754 C 0.98768 0.35544 0.8053 0.0
C755 C 0.98875 0.36364 0.866 0.0
C756 C 0.96553 0.36052 0.89355 0.0
C757 C 0.94191 0.34968 0.86051 0.0
C758 C 0.01208 0.35852 0.77434 0.0
C759 C 0.96563 0.36894 0.95798 0.0
H760 H 0.05062 0.36287 1.00029 0.0
H761 H 0.06715 0.43803 0.92936 0.0
H762 H 0.98444 0.326 0.95717 0.0
H763 H 0.00237 0.32326 0.89504 0.0
H764 H 0.01322 0.32282 0.97091 0.0
H765 H 0.03842 0.44293 0.864 0.0
H766 H 0.02161 0.41546 0.81267 0.0
H767 H 0.00399 0.41865 0.8749 0.0
H768 H 0.96267 0.33807 0.72691 0.0
H769 H 0.92431 0.34745 0.88243 0.0
H770 H 0.02055 0.34834 0.80066 0.0
H771 H 0.02742 0.3798 0.77214 0.0
H772 H 0.00785 0.35035 0.72789 0.0
H773 H 0.97267 0.35866 0.9884 0.0
H774 H 0.94571 0.36459 0.97326 0.0
H775 H 0.97954 0.39052 0.96273 0.0
C776 C 0.58078 0.94377 0.02587 0.0
C777 C 0.59249 0.9403 0.97398 0.0
C778 C 0.59283 0.96772 0.05802 0.0
C779 C 0.61744 0.98887 0.03833 0.0
C780 C 0.6293 0.98566 0.98557 0.0
C781 C 0.61661 0.96144 0.95379 0.0
C782 C 0.5792 0.97034 0.11324 0.0
C783 C 0.65554 0.00772 0.96311 0.0
C784 C 0.63556 0.05868 0.08505 0.0
C785 C 0.65342 0.06401 0.13267 0.0
C786 C 0.62374 0.03438 0.05443 0.0
C787 C 0.62994 0.01473 0.07133 0.0
C788 C 0.64752 0.01968 0.12029 0.0
C789 C 0.65898 0.04426 0.15064 0.0
C790 C 0.6048 0.0299 0.00338 0.0
C791 C 0.65461 0.9992 0.13971 0.0
H792 H 0.56211 0.92756 0.04186 0.0
H793 H 0.62593 0.95882 0.91422 0.0
H794 H 0.59232 0.97519 0.15306 0.0
H795 H 0.57512 0.98686 0.10713 0.0
H796 H 0.5602 0.95196 0.1229 0.0
H797 H 0.66248 0.00194 0.92232 0.0
H798 H 0.65385 0.0254 0.95232 0.0
H799 H 0.67076 0.01361 0.99889 0.0
H800 H 0.63102 0.07377 0.07098 0.0
H801 H 0.67293 0.04832 0.18695 0.0
H802 H 0.5853 0.01208 0.01248 0.0
H803 H 0.61246 0.02619 0.96096 0.0
H804 H 0.60175 0.04706 0.9964 0.0
H805 H 0.63643 0.98051 0.15202 0.0
H806 H 0.66838 0.00594 0.17875 0.0
H807 H 0.66403 0.99462 0.10174 0.0
C808 C 0.64125 0.58202 0.18607 0.0
C809 C 0.65758 0.59427 0.13603 0.0
C810 C 0.62969 0.59433 0.21847 0.0
C811 C 0.63473 0.61977 0.20104 0.0
C812 C 0.65089 0.63215 0.14995 0.0
C813 C 0.66201 0.61917 0.11775 0.0
C814 C 0.6122 0.5801 0.27171 0.0
C815 C 0.65682 0.65931 0.13001 0.0
C816 C 0.5853 0.64064 0.24996 0.0
C817 C 0.59779 0.65674 0.30024 0.0
C818 C 0.59708 0.62855 0.21758 0.0
C819 C 0.62224 0.63283 0.23522 0.0
C820 C 0.63486 0.64878 0.28651 0.0
C821 C 0.62239 0.66041 0.31874 0.0
C822 C 0.58259 0.61129 0.16415 0.0
C823 C 0.66175 0.65393 0.30663 0.0
H824 H 0.63765 0.56273 0.20048 0.0
H825 H 0.67484 0.62888 0.07962 0.0
H826 H 0.62054 0.59207 0.31315 0.0
H827 H 0.59222 0.57761 0.26488 0.0
H828 H 0.61003 0.56026 0.27906 0.0
H829 H 0.66992 0.66638 0.08987 0.0
H830 H 0.63811 0.65905 0.1192 0.0
H831 H 0.66651 0.67372 0.1672 0.0
H832 H 0.56624 0.63762 0.2354 0.0
H833 H 0.63228 0.67307 0.35705 0.0
H834 H 0.57949 0.59107 0.17085 0.0
H835 H 0.59468 0.61942 0.12283 0.0
H836 H 0.56302 0.60972 0.15665 0.0
H837 H 0.6609 0.63493 0.31737 0.0
H838 H 0.66908 0.66698 0.34687 0.0
H839 H 0.67627 0.66334 0.26957 0.0
C840 C 0.05604 0.63121 0.32893 0.0
C841 C 0.06299 0.65277 0.29044 0.0
C842 C 0.0323 0.61971 0.36181 0.0
C843 C 0.01531 0.63048 0.35749 0.0
C844 C 0.02208 0.6521 0.31803 0.0
C845 C 0.04573 0.66281 0.28436 0.0
C846 C 0.02557 0.59623 0.40178 0.0
C847 C 0.00468 0.66434 0.31264 0.0
C848 C 0.94318 0.58584 0.40096 0.0
C849 C 0.9422 0.59436 0.45967 0.0
C850 C 0.96667 0.5976 0.36731 0.0
C851 C 0.99008 0.61842 0.39278 0.0
C852 C 0.98943 0.627 0.4523 0.0
C853 C 0.96546 0.6149 0.48505 0.0
C854 C 0.96638 0.58771 0.30426 0.0
C855 C 0.01403 0.64906 0.48117 0.0
H856 H 0.06944 0.6235 0.33389 0.0
H857 H 0.05133 0.67981 0.25557 0.0
H858 H 0.02405 0.60122 0.44927 0.0
H859 H 0.00602 0.57926 0.38892 0.0
H860 H 0.0406 0.58986 0.39907 0.0
H861 H 0.01274 0.68112 0.28031 0.0
H862 H 0.98453 0.64921 0.29772 0.0
H863 H 0.00261 0.67163 0.35732 0.0
H864 H 0.92536 0.57004 0.38058 0.0
H865 H 0.96488 0.62171 0.53012 0.0
H866 H 0.98067 0.58044 0.30091 0.0
H867 H 0.97273 0.60416 0.27156 0.0
H868 H 0.94648 0.57143 0.29084 0.0
H869 H 0.02967 0.64354 0.48342 0.0
H870 H 0.01025 0.65367 0.52739 0.0
H871 H 0.02188 0.66724 0.45331 0.0
C872 C 0.4184 0.05759 0.51315 0.0
C873 C 0.40525 0.06047 0.46321 0.0
C874 C 0.40734 0.03397 0.54638 0.0
C875 C 0.38232 0.01256 0.52977 0.0
C876 C 0.36904 0.01513 0.47885 0.0
C877 C 0.38073 0.03904 0.44594 0.0
C878 C 0.42244 0.03202 0.59957 0.0
C879 C 0.34231 0.99275 0.45971 0.0
C880 C 0.36509 0.94337 0.57988 0.0
C881 C 0.34855 0.93898 0.62969 0.0
C882 C 0.37623 0.96718 0.54738 0.0
C883 C 0.37062 0.98722 0.56461 0.0
C884 C 0.35441 0.98321 0.61571 0.0
C885 C 0.34365 0.95916 0.64788 0.0
C886 C 0.39375 0.97071 0.494 0.0
C887 C 0.34796 0.0041 0.63552 0.0
H888 H 0.43741 0.07402 0.52681 0.0
H889 H 0.37035 0.04119 0.40783 0.0
H890 H 0.41048 0.0279 0.64116 0.0
H891 H 0.42617 0.0153 0.59303 0.0
H892 H 0.44174 0.05045 0.60646 0.0
H893 H 0.33442 0.99792 0.41962 0.0
H894 H 0.34373 0.9749 0.44914 0.0
H895 H 0.32796 0.98744 0.49721 0.0
H896 H 0.36903 0.9279 0.56552 0.0
H897 H 0.33067 0.95579 0.68584 0.0
H898 H 0.41348 0.98862 0.50025 0.0
H899 H 0.38499 0.97374 0.45252 0.0
H900 H 0.39654 0.95339 0.48708 0.0
H901 H 0.36648 0.02291 0.64529 0.0
H902 H 0.33521 0.99807 0.67625 0.0
H903 H 0.33765 0.00817 0.59863 0.0
C904 C 0.3465 0.38679 0.6125 0.0
C905 C 0.35196 0.41221 0.6292 0.0
C906 C 0.35801 0.37401 0.64389 0.0
C907 C 0.37568 0.38717 0.69235 0.0
C908 C 0.38189 0.4132 0.7078 0.0
C909 C 0.36983 0.42526 0.67644 0.0
C910 C 0.35077 0.3462 0.62621 0.0
C911 C 0.40106 0.42824 0.75806 0.0
C912 C 0.38895 0.34765 0.81107 0.0
C913 C 0.41272 0.35 0.79025 0.0
C914 C 0.3765 0.35943 0.77942 0.0
C915 C 0.38826 0.37412 0.72616 0.0
C916 C 0.41259 0.37705 0.70598 0.0
C917 C 0.4244 0.36491 0.73803 0.0
C918 C 0.35053 0.35582 0.80234 0.0
C919 C 0.4261 0.39288 0.65019 0.0
H920 H 0.33245 0.37649 0.57658 0.0
H921 H 0.37419 0.44496 0.68952 0.0
H922 H 0.36886 0.34551 0.61397 0.0
H923 H 0.34156 0.33267 0.66504 0.0
H924 H 0.33678 0.33868 0.58761 0.0
H925 H 0.40426 0.44858 0.76354 0.0
H926 H 0.39352 0.41745 0.80117 0.0
H927 H 0.42047 0.42968 0.74918 0.0
H928 H 0.37968 0.33596 0.85097 0.0
H929 H 0.44283 0.36692 0.72161 0.0
H930 H 0.33502 0.34609 0.76729 0.0
H931 H 0.35247 0.37539 0.81184 0.0
H932 H 0.34382 0.34367 0.84399 0.0
H933 H 0.41293 0.3842 0.61059 0.0
H934 H 0.44512 0.39348 0.64083 0.0
H935 H 0.43011 0.41349 0.65526 0.0
loop_
_geom_bond_atom_site_label_1
_geom_bond_atom_site_label_2
_geom_bond_distance
_geom_bond_site_symmetry_2
_ccdc_geom_bond_type
Co0 O1 2.216 1_554 S
Co0 O2 2.091 . S
Co0 O4 2.004 . S
Co0 O10 2.021 . S
Co0 O12 2.137 1_554 S
Co0 O13 2.244 1_554 S
O1 Co0 2.216 1_556 S
O1 C8 1.247 . S
O2 Co0 2.091 . S
O2 C8 1.261 1_554 S
C3 O12 1.247 . S
C3 O13 1.272 . S
O4 Co0 2.004 . S
O4 C9 1.259 . S
Co5 O6 2.061 . S
Co5 O11 2.052 . S
Co5 O13 2.135 1_554 S
O6 Co5 2.061 . S
O6 C9 1.235 . S
C7 O10 1.238 . S
C7 O11 1.241 . S
C8 O1 1.247 . S
C8 O2 1.261 1_556 S
C9 O4 1.259 . S
C9 O6 1.235 . S
O10 Co0 2.021 . S
O10 C7 1.238 . S
O11 Co5 2.052 . S
O11 C7 1.241 . S
O12 Co0 2.137 1_556 S
O12 C3 1.247 . S
O13 Co0 2.244 1_556 S
O13 C3 1.272 . S
O13 Co5 2.135 1_556 S
Co14 O15 2.216 . S
Co14 O16 2.091 . S
Co14 O18 2.004 . S
Co14 O24 2.021 . S
Co14 O26 2.137 . S
Co14 O27 2.244 . S
O15 Co14 2.216 . S
O15 C22 1.247 . S
O16 Co14 2.091 . S
O16 C22 1.261 . S
C17 O26 1.247 . S
C17 O27 1.272 . S
O18 Co14 2.004 . S
O18 C23 1.259 . S
Co19 O20 2.061 . S
Co19 O25 2.052 . S
Co19 O27 2.135 . S
O20 Co19 2.061 . S
O20 C23 1.235 . S
C21 O24 1.238 . S
C21 O25 1.241 . S
C22 O15 1.247 . S
C22 O16 1.261 . S
C23 O18 1.259 . S
C23 O20 1.235 . S
O24 Co14 2.021 . S
O24 C21 1.238 . S
O25 Co19 2.052 . S
O25 C21 1.241 . S
O26 Co14 2.137 . S
O26 C17 1.247 . S
O27 Co14 2.244 . S
O27 C17 1.272 . S
O27 Co19 2.135 . S
Co28 O29 2.216 . S
Co28 O30 2.091 . S
Co28 O32 2.004 . S
Co28 O38 2.021 . S
Co28 O40 2.137 . S
Co28 O41 2.244 . S
O29 Co28 2.216 . S
O29 C36 1.247 . S
O30 Co28 2.091 . S
O30 C36 1.261 . S
C31 O40 1.247 . S
C31 O41 1.272 . S
O32 Co28 2.004 . S
O32 C37 1.259 . S
Co33 O34 2.061 . S
Co33 O39 2.052 . S
Co33 O41 2.135 . S
O34 Co33 2.061 . S
O34 C37 1.235 . S
C35 O38 1.238 . S
C35 O39 1.241 . S
C36 O29 1.247 . S
C36 O30 1.261 . S
C37 O32 1.259 . S
C37 O34 1.235 . S
O38 Co28 2.021 . S
O38 C35 1.238 . S
O39 Co33 2.052 . S
O39 C35 1.241 . S
O40 Co28 2.137 . S
O40 C31 1.247 . S
O41 Co28 2.244 . S
O41 C31 1.272 . S
O41 Co33 2.135 . S
Co42 O43 2.216 . S
Co42 O44 2.091 . S
Co42 O46 2.004 . S
Co42 O52 2.021 . S
Co42 O54 2.137 . S
Co42 O55 2.244 . S
O43 Co42 2.216 . S
O43 C50 1.247 . S
O44 Co42 2.091 . S
O44 C50 1.261 . S
C45 O54 1.247 . S
C45 O55 1.272 . S
O46 Co42 2.004 . S
O46 C51 1.259 . S
Co47 O48 2.061 . S
Co47 O53 2.052 . S
Co47 O55 2.135 . S
O48 Co47 2.061 . S
O48 C51 1.235 . S
C49 O52 1.238 . S
C49 O53 1.241 . S
C50 O43 1.247 . S
C50 O44 1.261 . S
C51 O46 1.259 . S
C51 O48 1.235 . S
O52 Co42 2.021 . S
O52 C49 1.238 . S
O53 Co47 2.052 . S
O53 C49 1.241 . S
O54 Co42 2.137 . S
O54 C45 1.247 . S
O55 Co42 2.244 . S
O55 C45 1.272 . S
O55 Co47 2.135 . S
Co56 O57 2.216 . S
Co56 O58 2.091 . S
Co56 O60 2.004 . S
Co56 O66 2.021 . S
Co56 O68 2.137 . S
Co56 O69 2.244 . S
O57 Co56 2.216 . S
O57 C64 1.247 . S
O58 Co56 2.091 . S
O58 C64 1.261 . S
C59 O68 1.247 . S
C59 O69 1.272 . S
O60 Co56 2.004 . S
O60 C65 1.259 . S
Co61 O62 2.061 . S
Co61 O67 2.052 . S
Co61 O69 2.135 . S
O62 Co61 2.061 . S
O62 C65 1.235 . S
C63 O66 1.238 . S
C63 O67 1.241 . S
C64 O57 1.247 . S
C64 O58 1.261 . S
C65 O60 1.259 . S
C65 O62 1.235 . S
O66 Co56 2.021 . S
O66 C63 1.238 . S
O67 Co61 2.052 . S
O67 C63 1.241 . S
O68 Co56 2.137 . S
O68 C59 1.247 . S
O69 Co56 2.244 . S
O69 C59 1.272 . S
O69 Co61 2.135 . S
Co70 O71 2.216 . S
Co70 O72 2.091 . S
Co70 O74 2.004 . S
Co70 O80 2.021 . S
Co70 O82 2.137 . S
Co70 O83 2.244 . S
O71 Co70 2.216 . S
O71 C78 1.247 . S
O72 Co70 2.091 . S
O72 C78 1.261 . S
C73 O82 1.247 . S
C73 O83 1.272 . S
O74 Co70 2.004 . S
O74 C79 1.259 . S
Co75 O76 2.061 . S
Co75 O81 2.052 . S
Co75 O83 2.135 . S
O76 Co75 2.061 . S
O76 C79 1.235 . S
C77 O80 1.238 . S
C77 O81 1.241 . S
C78 O71 1.247 . S
C78 O72 1.261 . S
C79 O74 1.259 . S
C79 O76 1.235 . S
O80 Co70 2.021 . S
O80 C77 1.238 . S
O81 Co75 2.052 . S
O81 C77 1.241 . S
O82 Co70 2.137 . S
O82 C73 1.247 . S
O83 Co70 2.244 . S
O83 C73 1.272 . S
O83 Co75 2.135 . S
Co84 O85 2.216 . S
Co84 O86 2.091 . S
Co84 O88 2.004 . S
Co84 O94 2.021 . S
Co84 O96 2.137 . S
Co84 O97 2.244 . S
O85 Co84 2.216 . S
O85 C92 1.247 . S
O86 Co84 2.091 . S
O86 C92 1.261 . S
C87 O96 1.247 . S
C87 O97 1.272 . S
O88 Co84 2.004 . S
O88 C93 1.259 . S
Co89 O90 2.061 . S
Co89 O95 2.052 . S
Co89 O97 2.135 . S
O90 Co89 2.061 . S
O90 C93 1.235 . S
C91 O94 1.238 . S
C91 O95 1.241 . S
C92 O85 1.247 . S
C92 O86 1.261 . S
C93 O88 1.259 . S
C93 O90 1.235 . S
O94 Co84 2.021 . S
O94 C91 1.238 . S
O95 Co89 2.052 . S
O95 C91 1.241 . S
O96 Co84 2.137 . S
O96 C87 1.247 . S
O97 Co84 2.244 . S
O97 C87 1.272 . S
O97 Co89 2.135 . S
Co98 O99 2.216 . S
Co98 O100 2.091 . S
Co98 O102 2.004 1_554 S
Co98 O108 2.021 . S
Co98 O110 2.137 . S
Co98 O111 2.244 . S
O99 Co98 2.216 . S
O99 C106 1.247 . S
O100 Co98 2.091 . S
O100 C106 1.261 . S
C101 O110 1.247 . S
C101 O111 1.272 . S
O102 Co98 2.004 1_556 S
O102 C107 1.259 . S
Co103 O104 2.061 1_554 S
Co103 O109 2.052 . S
Co103 O111 2.135 . S
O104 Co103 2.061 1_556 S
O104 C107 1.235 . S
C105 O108 1.238 . S
C105 O109 1.241 . S
C106 O99 1.247 . S
C106 O100 1.261 . S
C107 O102 1.259 . S
C107 O104 1.235 . S
O108 Co98 2.021 . S
O108 C105 1.238 . S
O109 Co103 2.052 . S
O109 C105 1.241 . S
O110 Co98 2.137 . S
O110 C101 1.247 . S
O111 Co98 2.244 . S
O111 C101 1.272 . S
O111 Co103 2.135 . S
Co112 O113 2.216 . S
Co112 O114 2.091 . S
Co112 O116 2.004 . S
Co112 O122 2.021 . S
Co112 O124 2.137 . S
Co112 O125 2.244 . S
O113 Co112 2.216 . S
O113 C120 1.247 . S
O114 Co112 2.091 . S
O114 C120 1.261 . S
C115 O124 1.247 . S
C115 O125 1.272 . S
O116 Co112 2.004 . S
O116 C121 1.259 . S
Co117 O118 2.061 . S
Co117 O123 2.052 . S
Co117 O125 2.135 . S
O118 Co117 2.061 . S
O118 C121 1.235 . S
C119 O122 1.238 . S
C119 O123 1.241 . S
C120 O113 1.247 . S
C120 O114 1.261 . S
C121 O116 1.259 . S
C121 O118 1.235 . S
O122 Co112 2.021 . S
O122 C119 1.238 . S
O123 Co117 2.052 . S
O123 C119 1.241 . S
O124 Co112 2.137 . S
O124 C115 1.247 . S
O125 Co112 2.244 . S
O125 C115 1.272 . S
O125 Co117 2.135 . S
Co126 O127 2.216 . S
Co126 O128 2.091 . S
Co126 O130 2.004 . S
Co126 O136 2.021 . S
Co126 O138 2.137 . S
Co126 O139 2.244 . S
O127 Co126 2.216 . S
O127 C134 1.247 . S
O128 Co126 2.091 . S
O128 C134 1.261 . S
C129 O138 1.247 . S
C129 O139 1.272 . S
O130 Co126 2.004 . S
O130 C135 1.259 . S
Co131 O132 2.061 . S
Co131 O137 2.052 . S
Co131 O139 2.135 . S
O132 Co131 2.061 . S
O132 C135 1.235 . S
C133 O136 1.238 . S
C133 O137 1.241 . S
C134 O127 1.247 . S
C134 O128 1.261 . S
C135 O130 1.259 . S
C135 O132 1.235 . S
O136 Co126 2.021 . S
O136 C133 1.238 . S
O137 Co131 2.052 . S
O137 C133 1.241 . S
O138 Co126 2.137 . S
O138 C129 1.247 . S
O139 Co126 2.244 . S
O139 C129 1.272 . S
O139 Co131 2.135 . S
Co140 O141 2.216 . S
Co140 O142 2.091 . S
Co140 O144 2.004 . S
Co140 O150 2.021 . S
Co140 O152 2.137 . S
Co140 O153 2.244 . S
O141 Co140 2.216 . S
O141 C148 1.247 . S
O142 Co140 2.091 . S
O142 C148 1.261 . S
C143 O152 1.247 . S
C143 O153 1.272 . S
O144 Co140 2.004 . S
O144 C149 1.259 . S
Co145 O146 2.061 . S
Co145 O151 2.052 . S
Co145 O153 2.135 . S
O146 Co145 2.061 . S
O146 C149 1.235 . S
C147 O150 1.238 . S
C147 O151 1.241 . S
C148 O141 1.247 . S
C148 O142 1.261 . S
C149 O144 1.259 . S
C149 O146 1.235 . S
O150 Co140 2.021 . S
O150 C147 1.238 . S
O151 Co145 2.052 . S
O151 C147 1.241 . S
O152 Co140 2.137 . S
O152 C143 1.247 . S
O153 Co140 2.244 . S
O153 C143 1.272 . S
O153 Co145 2.135 . S
Co154 O155 2.216 . S
Co154 O156 2.091 . S
Co154 O158 2.004 . S
Co154 O164 2.021 . S
Co154 O166 2.137 . S
Co154 O167 2.244 . S
O155 Co154 2.216 . S
O155 C162 1.247 . S
O156 Co154 2.091 . S
O156 C162 1.261 . S
C157 O166 1.247 . S
C157 O167 1.272 . S
O158 Co154 2.004 . S
O158 C163 1.259 . S
Co159 O160 2.061 . S
Co159 O165 2.052 . S
Co159 O167 2.135 . S
O160 Co159 2.061 . S
O160 C163 1.235 . S
C161 O164 1.238 . S
C161 O165 1.241 . S
C162 O155 1.247 . S
C162 O156 1.261 . S
C163 O158 1.259 . S
C163 O160 1.235 . S
O164 Co154 2.021 . S
O164 C161 1.238 . S
O165 Co159 2.052 . S
O165 C161 1.241 . S
O166 Co154 2.137 . S
O166 C157 1.247 . S
O167 Co154 2.244 . S
O167 C157 1.272 . S
O167 Co159 2.135 . S
C168 C169 1.391 . S
C168 C170 1.394 . S
C168 H184 0.931 . S
C169 C168 1.391 . S
C169 C173 1.376 . S
C170 C168 1.394 . S
C170 C171 1.369 . S
C170 C174 1.531 . S
C171 C170 1.369 . S
C171 C172 1.410 . S
C171 C179 1.503 . S
C172 C171 1.410 . S
C172 C173 1.392 . S
C172 C175 1.511 . S
C173 C169 1.376 . S
C173 C172 1.392 . S
C173 H185 0.929 . S
C174 C170 1.531 . S
C174 H186 0.960 . S
C174 H187 0.962 . S
C174 H188 0.960 . S
C175 C172 1.511 . S
C175 H189 0.961 . S
C175 H190 0.961 . S
C175 H191 0.961 . S
C176 C177 1.370 . S
C176 C178 1.363 . S
C176 H192 0.931 . S
C177 C176 1.370 . S
C177 C181 1.408 . S
C178 C176 1.363 . S
C178 C179 1.370 . S
C178 C182 1.524 . S
C179 C171 1.503 . S
C179 C178 1.370 . S
C179 C180 1.403 . S
C180 C179 1.403 . S
C180 C181 1.404 . S
C180 C183 1.539 . S
C181 C177 1.408 . S
C181 C180 1.404 . S
C181 H193 0.930 . S
C182 C178 1.524 . S
C182 H194 0.956 . S
C182 H195 0.961 . S
C182 H196 0.961 . S
C183 C180 1.539 . S
C183 H197 0.958 . S
C183 H198 0.961 . S
C183 H199 0.960 . S
H184 C168 0.931 . S
H185 C173 0.929 . S
H186 C174 0.960 . S
H187 C174 0.962 . S
H188 C174 0.960 . S
H189 C175 0.961 . S
H190 C175 0.961 . S
H191 C175 0.961 . S
H192 C176 0.931 . S
H193 C181 0.930 . S
H194 C182 0.956 . S
H195 C182 0.961 . S
H196 C182 0.961 . S
H197 C183 0.958 . S
H198 C183 0.961 . S
H199 C183 0.960 . S
C200 C201 1.391 . S
C200 C202 1.394 . S
C200 H216 0.931 . S
C201 C200 1.391 . S
C201 C205 1.376 . S
C202 C200 1.394 . S
C202 C203 1.369 . S
C202 C206 1.531 . S
C203 C202 1.369 . S
C203 C204 1.410 . S
C203 C211 1.503 . S
C204 C203 1.410 . S
C204 C205 1.392 . S
C204 C207 1.511 . S
C205 C201 1.376 . S
C205 C204 1.392 . S
C205 H217 0.929 . S
C206 C202 1.531 . S
C206 H218 0.960 . S
C206 H219 0.962 . S
C206 H220 0.960 . S
C207 C204 1.511 . S
C207 H221 0.961 . S
C207 H222 0.961 . S
C207 H223 0.961 . S
C208 C209 1.370 . S
C208 C210 1.363 . S
C208 H224 0.931 . S
C209 C208 1.370 . S
C209 C213 1.408 . S
C210 C208 1.363 . S
C210 C211 1.370 . S
C210 C214 1.524 . S
C211 C203 1.503 . S
C211 C210 1.370 . S
C211 C212 1.403 . S
C212 C211 1.403 . S
C212 C213 1.404 . S
C212 C215 1.539 . S
C213 C209 1.408 . S
C213 C212 1.404 . S
C213 H225 0.930 . S
C214 C210 1.524 . S
C214 H226 0.956 . S
C214 H227 0.961 . S
C214 H228 0.961 . S
C215 C212 1.539 . S
C215 H229 0.958 . S
C215 H230 0.961 . S
C215 H231 0.960 . S
H216 C200 0.931 . S
H217 C205 0.929 . S
H218 C206 0.960 . S
H219 C206 0.962 . S
H220 C206 0.960 . S
H221 C207 0.961 . S
H222 C207 0.961 . S
H223 C207 0.961 . S
H224 C208 0.931 . S
H225 C213 0.930 . S
H226 C214 0.956 . S
H227 C214 0.961 . S
H228 C214 0.961 . S
H229 C215 0.958 . S
H230 C215 0.961 . S
H231 C215 0.960 . S
C232 C233 1.391 . S
C232 C234 1.394 . S
C232 H248 0.931 . S
C233 C232 1.391 . S
C233 C237 1.376 . S
C234 C232 1.394 . S
C234 C235 1.369 . S
C234 C238 1.531 . S
C235 C234 1.369 . S
C235 C236 1.410 . S
C235 C243 1.503 . S
C236 C235 1.410 . S
C236 C237 1.392 . S
C236 C239 1.511 . S
C237 C233 1.376 . S
C237 C236 1.392 . S
C237 H249 0.929 . S
C238 C234 1.531 . S
C238 H250 0.960 . S
C238 H251 0.962 . S
C238 H252 0.960 . S
C239 C236 1.511 . S
C239 H253 0.961 . S
C239 H254 0.961 . S
C239 H255 0.961 . S
C240 C241 1.370 . S
C240 C242 1.363 . S
C240 H256 0.931 . S
C241 C240 1.370 . S
C241 C245 1.408 . S
C242 C240 1.363 . S
C242 C243 1.370 . S
C242 C246 1.524 . S
C243 C235 1.503 . S
C243 C242 1.370 . S
C243 C244 1.403 . S
C244 C243 1.403 . S
C244 C245 1.404 . S
C244 C247 1.539 . S
C245 C241 1.408 . S
C245 C244 1.404 . S
C245 H257 0.930 . S
C246 C242 1.524 . S
C246 H258 0.956 . S
C246 H259 0.961 . S
C246 H260 0.961 . S
C247 C244 1.539 . S
C247 H261 0.958 . S
C247 H262 0.961 . S
C247 H263 0.960 . S
H248 C232 0.931 . S
H249 C237 0.929 . S
H250 C238 0.960 . S
H251 C238 0.962 . S
H252 C238 0.960 . S
H253 C239 0.961 . S
H254 C239 0.961 . S
H255 C239 0.961 . S
H256 C240 0.931 . S
H257 C245 0.930 . S
H258 C246 0.956 . S
H259 C246 0.961 . S
H260 C246 0.961 . S
H261 C247 0.958 . S
H262 C247 0.961 . S
H263 C247 0.960 . S
C264 C265 1.391 . S
C264 C266 1.394 . S
C264 H280 0.931 . S
C265 C264 1.391 . S
C265 C269 1.376 . S
C266 C264 1.394 . S
C266 C267 1.369 . S
C266 C270 1.531 . S
C267 C266 1.369 . S
C267 C268 1.410 . S
C267 C275 1.503 . S
C268 C267 1.410 . S
C268 C269 1.392 . S
C268 C271 1.511 . S
C269 C265 1.376 . S
C269 C268 1.392 . S
C269 H281 0.929 . S
C270 C266 1.531 . S
C270 H282 0.960 . S
C270 H283 0.962 . S
C270 H284 0.960 . S
C271 C268 1.511 . S
C271 H285 0.961 . S
C271 H286 0.961 . S
C271 H287 0.961 . S
C272 C273 1.370 . S
C272 C274 1.363 . S
C272 H288 0.931 . S
C273 C272 1.370 . S
C273 C277 1.408 . S
C274 C272 1.363 . S
C274 C275 1.370 . S
C274 C278 1.524 . S
C275 C267 1.503 . S
C275 C274 1.370 . S
C275 C276 1.403 . S
C276 C275 1.403 . S
C276 C277 1.404 . S
C276 C279 1.539 . S
C277 C273 1.408 . S
C277 C276 1.404 . S
C277 H289 0.930 . S
C278 C274 1.524 . S
C278 H290 0.956 . S
C278 H291 0.961 . S
C278 H292 0.961 . S
C279 C276 1.539 . S
C279 H293 0.958 . S
C279 H294 0.961 . S
C279 H295 0.960 . S
H280 C264 0.931 . S
H281 C269 0.929 . S
H282 C270 0.960 . S
H283 C270 0.962 . S
H284 C270 0.960 . S
H285 C271 0.961 . S
H286 C271 0.961 . S
H287 C271 0.961 . S
H288 C272 0.931 . S
H289 C277 0.930 . S
H290 C278 0.956 . S
H291 C278 0.961 . S
H292 C278 0.961 . S
H293 C279 0.958 . S
H294 C279 0.961 . S
H295 C279 0.960 . S
C296 C297 1.391 . S
C296 C298 1.394 . S
C296 H312 0.931 . S
C297 C296 1.391 . S
C297 C301 1.376 . S
C298 C296 1.394 . S
C298 C299 1.369 . S
C298 C302 1.531 . S
C299 C298 1.369 . S
C299 C300 1.410 . S
C299 C307 1.503 . S
C300 C299 1.410 . S
C300 C301 1.392 . S
C300 C303 1.511 1_556 S
C301 C297 1.376 . S
C301 C300 1.392 . S
C301 H313 0.929 . S
C302 C298 1.531 . S
C302 H314 0.960 . S
C302 H315 0.962 . S
C302 H316 0.960 . S
C303 C300 1.511 1_554 S
C303 H317 0.961 . S
C303 H318 0.961 . S
C303 H319 0.961 . S
C304 C305 1.370 . S
C304 C306 1.363 . S
C304 H320 0.931 . S
C305 C304 1.370 . S
C305 C309 1.408 . S
C306 C304 1.363 . S
C306 C307 1.370 1_554 S
C306 C310 1.524 1_554 S
C307 C299 1.503 . S
C307 C306 1.370 1_556 S
C307 C308 1.403 . S
C308 C307 1.403 . S
C308 C309 1.404 1_556 S
C308 C311 1.539 . S
C309 C305 1.408 . S
C309 C308 1.404 1_554 S
C309 H321 0.930 . S
C310 C306 1.524 1_556 S
C310 H322 0.956 . S
C310 H323 0.961 . S
C310 H324 0.961 1_556 S
C311 C308 1.539 . S
C311 H325 0.958 . S
C311 H326 0.961 . S
C311 H327 0.960 . S
H312 C296 0.931 . S
H313 C301 0.929 . S
H314 C302 0.960 . S
H315 C302 0.962 . S
H316 C302 0.960 . S
H317 C303 0.961 . S
H318 C303 0.961 . S
H319 C303 0.961 . S
H320 C304 0.931 . S
H321 C309 0.930 . S
H322 C310 0.956 . S
H323 C310 0.961 . S
H324 C310 0.961 1_554 S
H325 C311 0.958 . S
H326 C311 0.961 . S
H327 C311 0.960 . S
C328 C329 1.391 . S
C328 C330 1.394 . S
C328 H344 0.931 . S
C329 C328 1.391 . S
C329 C333 1.376 . S
C330 C328 1.394 . S
C330 C331 1.369 . S
C330 C334 1.531 . S
C331 C330 1.369 . S
C331 C332 1.410 . S
C331 C339 1.503 . S
C332 C331 1.410 . S
C332 C333 1.392 . S
C332 C335 1.511 . S
C333 C329 1.376 . S
C333 C332 1.392 . S
C333 H345 0.929 . S
C334 C330 1.531 . S
C334 H346 0.960 . S
C334 H347 0.962 . S
C334 H348 0.960 . S
C335 C332 1.511 . S
C335 H349 0.961 . S
C335 H350 0.961 . S
C335 H351 0.961 . S
C336 C337 1.370 . S
C336 C338 1.363 . S
C336 H352 0.931 1_554 S
C337 C336 1.370 . S
C337 C341 1.408 . S
C338 C336 1.363 . S
C338 C339 1.370 . S
C338 C342 1.524 . S
C339 C331 1.503 . S
C339 C338 1.370 . S
C339 C340 1.403 . S
C340 C339 1.403 . S
C340 C341 1.404 . S
C340 C343 1.539 . S
C341 C337 1.408 . S
C341 C340 1.404 . S
C341 H353 0.930 . S
C342 C338 1.524 . S
C342 H354 0.956 . S
C342 H355 0.961 . S
C342 H356 0.961 . S
C343 C340 1.539 . S
C343 H357 0.958 . S
C343 H358 0.961 . S
C343 H359 0.960 . S
H344 C328 0.931 . S
H345 C333 0.929 . S
H346 C334 0.960 . S
H347 C334 0.962 . S
H348 C334 0.960 . S
H349 C335 0.961 . S
H350 C335 0.961 . S
H351 C335 0.961 . S
H352 C336 0.931 1_556 S
H353 C341 0.930 . S
H354 C342 0.956 . S
H355 C342 0.961 . S
H356 C342 0.961 . S
H357 C343 0.958 . S
H358 C343 0.961 . S
H359 C343 0.960 . S
C360 C361 1.391 . S
C360 C362 1.394 . S
C360 H376 0.931 . S
C361 C360 1.391 . S
C361 C365 1.376 . S
C362 C360 1.394 . S
C362 C363 1.369 . S
C362 C366 1.531 . S
C363 C362 1.369 . S
C363 C364 1.410 . S
C363 C371 1.503 . S
C364 C363 1.410 . S
C364 C365 1.392 . S
C364 C367 1.511 . S
C365 C361 1.376 . S
C365 C364 1.392 . S
C365 H377 0.929 . S
C366 C362 1.531 . S
C366 H378 0.960 . S
C366 H379 0.962 . S
C366 H380 0.960 . S
C367 C364 1.511 . S
C367 H381 0.961 . S
C367 H382 0.961 . S
C367 H383 0.961 1_554 S
C368 C369 1.370 . S
C368 C370 1.363 . S
C368 H384 0.931 . S
C369 C368 1.370 . S
C369 C373 1.408 . S
C370 C368 1.363 . S
C370 C371 1.370 . S
C370 C374 1.524 . S
C371 C363 1.503 . S
C371 C370 1.370 . S
C371 C372 1.403 . S
C372 C371 1.403 . S
C372 C373 1.404 . S
C372 C375 1.539 . S
C373 C369 1.408 . S
C373 C372 1.404 . S
C373 H385 0.930 . S
C374 C370 1.524 . S
C374 H386 0.956 . S
C374 H387 0.961 . S
C374 H388 0.961 . S
C375 C372 1.539 . S
C375 H389 0.958 . S
C375 H390 0.961 . S
C375 H391 0.960 . S
H376 C360 0.931 . S
H377 C365 0.929 . S
H378 C366 0.960 . S
H379 C366 0.962 . S
H380 C366 0.960 . S
H381 C367 0.961 . S
H382 C367 0.961 . S
H383 C367 0.961 1_556 S
H384 C368 0.931 . S
H385 C373 0.930 . S
H386 C374 0.956 . S
H387 C374 0.961 . S
H388 C374 0.961 . S
H389 C375 0.958 . S
H390 C375 0.961 . S
H391 C375 0.960 . S
C392 C393 1.391 . S
C392 C394 1.394 . S
C392 H408 0.931 . S
C393 C392 1.391 . S
C393 C397 1.376 . S
C394 C392 1.394 . S
C394 C395 1.369 . S
C394 C398 1.531 . S
C395 C394 1.369 . S
C395 C396 1.410 . S
C395 C403 1.503 . S
C396 C395 1.410 . S
C396 C397 1.392 . S
C396 C399 1.511 . S
C397 C393 1.376 . S
C397 C396 1.392 . S
C397 H409 0.929 . S
C398 C394 1.531 . S
C398 H410 0.960 . S
C398 H411 0.962 . S
C398 H412 0.960 . S
C399 C396 1.511 . S
C399 H413 0.961 . S
C399 H414 0.961 . S
C399 H415 0.961 . S
C400 C401 1.370 . S
C400 C402 1.363 . S
C400 H416 0.931 . S
C401 C400 1.370 . S
C401 C405 1.408 . S
C402 C400 1.363 . S
C402 C403 1.370 . S
C402 C406 1.524 . S
C403 C395 1.503 . S
C403 C402 1.370 . S
C403 C404 1.403 . S
C404 C403 1.403 . S
C404 C405 1.404 . S
C404 C407 1.539 . S
C405 C401 1.408 . S
C405 C404 1.404 . S
C405 H417 0.930 . S
C406 C402 1.524 . S
C406 H418 0.956 . S
C406 H419 0.961 . S
C406 H420 0.961 . S
C407 C404 1.539 . S
C407 H421 0.958 . S
C407 H422 0.961 . S
C407 H423 0.960 . S
H408 C392 0.931 . S
H409 C397 0.929 . S
H410 C398 0.960 . S
H411 C398 0.962 . S
H412 C398 0.960 . S
H413 C399 0.961 . S
H414 C399 0.961 . S
H415 C399 0.961 . S
H416 C400 0.931 . S
H417 C405 0.930 . S
H418 C406 0.956 . S
H419 C406 0.961 . S
H420 C406 0.961 . S
H421 C407 0.958 . S
H422 C407 0.961 . S
H423 C407 0.960 . S
C424 C425 1.391 . S
C424 C426 1.394 . S
C424 H440 0.931 . S
C425 C424 1.391 . S
C425 C429 1.376 . S
C426 C424 1.394 . S
C426 C427 1.369 . S
C426 C430 1.531 . S
C427 C426 1.369 . S
C427 C428 1.410 . S
C427 C435 1.503 . S
C428 C427 1.410 . S
C428 C429 1.392 . S
C428 C431 1.511 . S
C429 C425 1.376 . S
C429 C428 1.392 . S
C429 H441 0.929 . S
C430 C426 1.531 . S
C430 H442 0.960 . S
C430 H443 0.962 . S
C430 H444 0.960 . S
C431 C428 1.511 . S
C431 H445 0.961 . S
C431 H446 0.961 . S
C431 H447 0.961 . S
C432 C433 1.370 . S
C432 C434 1.363 . S
C432 H448 0.931 . S
C433 C432 1.370 . S
C433 C437 1.408 . S
C434 C432 1.363 . S
C434 C435 1.370 . S
C434 C438 1.524 . S
C435 C427 1.503 . S
C435 C434 1.370 . S
C435 C436 1.403 . S
C436 C435 1.403 . S
C436 C437 1.404 . S
C436 C439 1.539 . S
C437 C433 1.408 . S
C437 C436 1.404 . S
C437 H449 0.930 . S
C438 C434 1.524 . S
C438 H450 0.956 . S
C438 H451 0.961 . S
C438 H452 0.961 . S
C439 C436 1.539 . S
C439 H453 0.958 . S
C439 H454 0.961 . S
C439 H455 0.960 . S
H440 C424 0.931 . S
H441 C429 0.929 . S
H442 C430 0.960 . S
H443 C430 0.962 . S
H444 C430 0.960 . S
H445 C431 0.961 . S
H446 C431 0.961 . S
H447 C431 0.961 . S
H448 C432 0.931 . S
H449 C437 0.930 . S
H450 C438 0.956 . S
H451 C438 0.961 . S
H452 C438 0.961 . S
H453 C439 0.958 . S
H454 C439 0.961 . S
H455 C439 0.960 . S
C456 C457 1.391 . S
C456 C458 1.394 . S
C456 H472 0.931 . S
C457 C456 1.391 . S
C457 C461 1.376 . S
C458 C456 1.394 . S
C458 C459 1.369 . S
C458 C462 1.531 . S
C459 C458 1.369 . S
C459 C460 1.410 . S
C459 C467 1.503 . S
C460 C459 1.410 . S
C460 C461 1.392 . S
C460 C463 1.511 . S
C461 C457 1.376 . S
C461 C460 1.392 . S
C461 H473 0.929 . S
C462 C458 1.531 . S
C462 H474 0.960 . S
C462 H475 0.962 . S
C462 H476 0.960 . S
C463 C460 1.511 . S
C463 H477 0.961 . S
C463 H478 0.961 . S
C463 H479 0.961 . S
C464 C465 1.370 . S
C464 C466 1.363 . S
C464 H480 0.931 . S
C465 C464 1.370 . S
C465 C469 1.408 . S
C466 C464 1.363 . S
C466 C467 1.370 . S
C466 C470 1.524 . S
C467 C459 1.503 . S
C467 C466 1.370 . S
C467 C468 1.403 . S
C468 C467 1.403 . S
C468 C469 1.404 . S
C468 C471 1.539 . S
C469 C465 1.408 . S
C469 C468 1.404 . S
C469 H481 0.930 . S
C470 C466 1.524 . S
C470 H482 0.956 . S
C470 H483 0.961 . S
C470 H484 0.961 . S
C471 C468 1.539 . S
C471 H485 0.958 . S
C471 H486 0.961 . S
C471 H487 0.960 . S
H472 C456 0.931 . S
H473 C461 0.929 . S
H474 C462 0.960 . S
H475 C462 0.962 . S
H476 C462 0.960 . S
H477 C463 0.961 . S
H478 C463 0.961 . S
H479 C463 0.961 . S
H480 C464 0.931 . S
H481 C469 0.930 . S
H482 C470 0.956 . S
H483 C470 0.961 . S
H484 C470 0.961 . S
H485 C471 0.958 . S
H486 C471 0.961 . S
H487 C471 0.960 . S
C488 C489 1.391 . S
C488 C490 1.394 . S
C488 H504 0.931 . S
C489 C488 1.391 . S
C489 C493 1.376 . S
C490 C488 1.394 . S
C490 C491 1.369 . S
C490 C494 1.531 . S
C491 C490 1.369 . S
C491 C492 1.410 . S
C491 C499 1.503 . S
C492 C491 1.410 . S
C492 C493 1.392 . S
C492 C495 1.511 . S
C493 C489 1.376 . S
C493 C492 1.392 . S
C493 H505 0.929 . S
C494 C490 1.531 . S
C494 H506 0.960 . S
C494 H507 0.962 . S
C494 H508 0.960 . S
C495 C492 1.511 . S
C495 H509 0.961 . S
C495 H510 0.961 . S
C495 H511 0.961 . S
C496 C497 1.370 . S
C496 C498 1.363 . S
C496 H512 0.931 . S
C497 C496 1.370 . S
C497 C501 1.408 . S
C498 C496 1.363 . S
C498 C499 1.370 . S
C498 C502 1.524 . S
C499 C491 1.503 . S
C499 C498 1.370 . S
C499 C500 1.403 . S
C500 C499 1.403 . S
C500 C501 1.404 . S
C500 C503 1.539 . S
C501 C497 1.408 . S
C501 C500 1.404 . S
C501 H513 0.930 . S
C502 C498 1.524 . S
C502 H514 0.956 . S
C502 H515 0.961 . S
C502 H516 0.961 . S
C503 C500 1.539 . S
C503 H517 0.958 . S
C503 H518 0.961 . S
C503 H519 0.960 . S
H504 C488 0.931 . S
H505 C493 0.929 . S
H506 C494 0.960 . S
H507 C494 0.962 . S
H508 C494 0.960 . S
H509 C495 0.961 . S
H510 C495 0.961 . S
H511 C495 0.961 . S
H512 C496 0.931 . S
H513 C501 0.930 . S
H514 C502 0.956 . S
H515 C502 0.961 . S
H516 C502 0.961 . S
H517 C503 0.958 . S
H518 C503 0.961 . S
H519 C503 0.960 . S
C520 C521 1.391 . S
C520 C522 1.394 . S
C520 H536 0.931 . S
C521 C520 1.391 . S
C521 C525 1.376 . S
C522 C520 1.394 . S
C522 C523 1.369 . S
C522 C526 1.531 . S
C523 C522 1.369 . S
C523 C524 1.410 . S
C523 C531 1.503 . S
C524 C523 1.410 . S
C524 C525 1.392 . S
C524 C527 1.511 . S
C525 C521 1.376 . S
C525 C524 1.392 . S
C525 H537 0.929 . S
C526 C522 1.531 . S
C526 H538 0.960 . S
C526 H539 0.962 . S
C526 H540 0.960 . S
C527 C524 1.511 . S
C527 H541 0.961 . S
C527 H542 0.961 . S
C527 H543 0.961 . S
C528 C529 1.370 1_554 S
C528 C530 1.363 . S
C528 H544 0.931 . S
C529 C528 1.370 1_556 S
C529 C533 1.408 . S
C530 C528 1.363 . S
C530 C531 1.370 1_554 S
C530 C534 1.524 . S
C531 C523 1.503 . S
C531 C530 1.370 1_556 S
C531 C532 1.403 . S
C532 C531 1.403 . S
C532 C533 1.404 . S
C532 C535 1.539 . S
C533 C529 1.408 . S
C533 C532 1.404 . S
C533 H545 0.930 . S
C534 C530 1.524 . S
C534 H546 0.956 . S
C534 H547 0.961 . S
C534 H548 0.961 . S
C535 C532 1.539 . S
C535 H549 0.958 . S
C535 H550 0.961 . S
C535 H551 0.960 . S
H536 C520 0.931 . S
H537 C525 0.929 . S
H538 C526 0.960 . S
H539 C526 0.962 . S
H540 C526 0.960 . S
H541 C527 0.961 . S
H542 C527 0.961 . S
H543 C527 0.961 . S
H544 C528 0.931 . S
H545 C533 0.930 . S
H546 C534 0.956 . S
H547 C534 0.961 . S
H548 C534 0.961 . S
H549 C535 0.958 . S
H550 C535 0.961 . S
H551 C535 0.960 . S
C552 C553 1.391 . S
C552 C554 1.394 . S
C552 H568 0.931 . S
C553 C552 1.391 . S
C553 C557 1.376 . S
C554 C552 1.394 . S
C554 C555 1.369 . S
C554 C558 1.531 . S
C555 C554 1.369 . S
C555 C556 1.410 . S
C555 C563 1.503 . S
C556 C555 1.410 . S
C556 C557 1.392 . S
C556 C559 1.511 . S
C557 C553 1.376 . S
C557 C556 1.392 . S
C557 H569 0.929 . S
C558 C554 1.531 . S
C558 H570 0.960 . S
C558 H571 0.962 . S
C558 H572 0.960 . S
C559 C556 1.511 . S
C559 H573 0.961 . S
C559 H574 0.961 . S
C559 H575 0.961 . S
C560 C561 1.370 . S
C560 C562 1.363 . S
C560 H576 0.931 . S
C561 C560 1.370 . S
C561 C565 1.408 . S
C562 C560 1.363 . S
C562 C563 1.370 . S
C562 C566 1.524 . S
C563 C555 1.503 . S
C563 C562 1.370 . S
C563 C564 1.403 . S
C564 C563 1.403 . S
C564 C565 1.404 . S
C564 C567 1.539 . S
C565 C561 1.408 . S
C565 C564 1.404 . S
C565 H577 0.930 . S
C566 C562 1.524 . S
C566 H578 0.956 . S
C566 H579 0.961 . S
C566 H580 0.961 . S
C567 C564 1.539 . S
C567 H581 0.958 . S
C567 H582 0.961 . S
C567 H583 0.960 . S
H568 C552 0.931 . S
H569 C557 0.929 . S
H570 C558 0.960 . S
H571 C558 0.962 . S
H572 C558 0.960 . S
H573 C559 0.961 . S
H574 C559 0.961 . S
H575 C559 0.961 . S
H576 C560 0.931 . S
H577 C565 0.930 . S
H578 C566 0.956 . S
H579 C566 0.961 . S
H580 C566 0.961 . S
H581 C567 0.958 . S
H582 C567 0.961 . S
H583 C567 0.960 . S
C584 C585 1.391 . S
C584 C586 1.394 . S
C584 H600 0.931 . S
C585 C584 1.391 . S
C585 C589 1.376 . S
C586 C584 1.394 . S
C586 C587 1.369 1_554 S
C586 C590 1.531 1_554 S
C587 C586 1.369 1_556 S
C587 C588 1.410 1_556 S
C587 C595 1.503 . S
C588 C587 1.410 1_554 S
C588 C589 1.392 . S
C588 C591 1.511 . S
C589 C585 1.376 . S
C589 C588 1.392 . S
C589 H601 0.929 . S
C590 C586 1.531 1_556 S
C590 H602 0.960 . S
C590 H603 0.962 . S
C590 H604 0.960 . S
C591 C588 1.511 . S
C591 H605 0.961 . S
C591 H606 0.961 1_554 S
C591 H607 0.961 . S
C592 C593 1.370 . S
C592 C594 1.363 . S
C592 H608 0.931 . S
C593 C592 1.370 . S
C593 C597 1.408 . S
C594 C592 1.363 . S
C594 C595 1.370 . S
C594 C598 1.524 . S
C595 C587 1.503 . S
C595 C594 1.370 . S
C595 C596 1.403 . S
C596 C595 1.403 . S
C596 C597 1.404 . S
C596 C599 1.539 1_556 S
C597 C593 1.408 . S
C597 C596 1.404 . S
C597 H609 0.930 . S
C598 C594 1.524 . S
C598 H610 0.956 . S
C598 H611 0.961 . S
C598 H612 0.961 . S
C599 C596 1.539 1_554 S
C599 H613 0.958 . S
C599 H614 0.961 . S
C599 H615 0.960 . S
H600 C584 0.931 . S
H601 C589 0.929 . S
H602 C590 0.960 . S
H603 C590 0.962 . S
H604 C590 0.960 . S
H605 C591 0.961 . S
H606 C591 0.961 1_556 S
H607 C591 0.961 . S
H608 C592 0.931 . S
H609 C597 0.930 . S
H610 C598 0.956 . S
H611 C598 0.961 . S
H612 C598 0.961 . S
H613 C599 0.958 . S
H614 C599 0.961 . S
H615 C599 0.960 . S
C616 C617 1.391 . S
C616 C618 1.394 . S
C616 H632 0.931 . S
C617 C616 1.391 . S
C617 C621 1.376 . S
C618 C616 1.394 . S
C618 C619 1.369 . S
C618 C622 1.531 . S
C619 C618 1.369 . S
C619 C620 1.410 . S
C619 C627 1.503 . S
C620 C619 1.410 . S
C620 C621 1.392 . S
C620 C623 1.511 . S
C621 C617 1.376 . S
C621 C620 1.392 . S
C621 H633 0.929 . S
C622 C618 1.531 . S
C622 H634 0.960 . S
C622 H635 0.962 . S
C622 H636 0.960 . S
C623 C620 1.511 . S
C623 H637 0.961 . S
C623 H638 0.961 . S
C623 H639 0.961 . S
C624 C625 1.370 . S
C624 C626 1.363 . S
C624 H640 0.931 . S
C625 C624 1.370 . S
C625 C629 1.408 . S
C626 C624 1.363 . S
C626 C627 1.370 . S
C626 C630 1.524 . S
C627 C619 1.503 . S
C627 C626 1.370 . S
C627 C628 1.403 . S
C628 C627 1.403 . S
C628 C629 1.404 . S
C628 C631 1.539 . S
C629 C625 1.408 . S
C629 C628 1.404 . S
C629 H641 0.930 . S
C630 C626 1.524 . S
C630 H642 0.956 . S
C630 H643 0.961 . S
C630 H644 0.961 . S
C631 C628 1.539 . S
C631 H645 0.958 . S
C631 H646 0.961 . S
C631 H647 0.960 . S
H632 C616 0.931 . S
H633 C621 0.929 . S
H634 C622 0.960 . S
H635 C622 0.962 . S
H636 C622 0.960 . S
H637 C623 0.961 . S
H638 C623 0.961 . S
H639 C623 0.961 . S
H640 C624 0.931 . S
H641 C629 0.930 . S
H642 C630 0.956 . S
H643 C630 0.961 . S
H644 C630 0.961 . S
H645 C631 0.958 . S
H646 C631 0.961 . S
H647 C631 0.960 . S
C648 C649 1.391 . S
C648 C650 1.394 . S
C648 H664 0.931 . S
C649 C648 1.391 . S
C649 C653 1.376 . S
C650 C648 1.394 . S
C650 C651 1.369 . S
C650 C654 1.531 . S
C651 C650 1.369 . S
C651 C652 1.410 . S
C651 C659 1.503 . S
C652 C651 1.410 . S
C652 C653 1.392 . S
C652 C655 1.511 . S
C653 C649 1.376 . S
C653 C652 1.392 . S
C653 H665 0.929 . S
C654 C650 1.531 . S
C654 H666 0.960 . S
C654 H667 0.962 . S
C654 H668 0.960 . S
C655 C652 1.511 . S
C655 H669 0.961 . S
C655 H670 0.961 . S
C655 H671 0.961 . S
C656 C657 1.370 . S
C656 C658 1.363 . S
C656 H672 0.931 . S
C657 C656 1.370 . S
C657 C661 1.408 . S
C658 C656 1.363 . S
C658 C659 1.370 . S
C658 C662 1.524 . S
C659 C651 1.503 . S
C659 C658 1.370 . S
C659 C660 1.403 . S
C660 C659 1.403 . S
C660 C661 1.404 . S
C660 C663 1.539 . S
C661 C657 1.408 . S
C661 C660 1.404 . S
C661 H673 0.930 . S
C662 C658 1.524 . S
C662 H674 0.956 . S
C662 H675 0.961 . S
C662 H676 0.961 . S
C663 C660 1.539 . S
C663 H677 0.958 . S
C663 H678 0.961 . S
C663 H679 0.960 . S
H664 C648 0.931 . S
H665 C653 0.929 . S
H666 C654 0.960 . S
H667 C654 0.962 . S
H668 C654 0.960 . S
H669 C655 0.961 . S
H670 C655 0.961 . S
H671 C655 0.961 . S
H672 C656 0.931 . S
H673 C661 0.930 . S
H674 C662 0.956 . S
H675 C662 0.961 . S
H676 C662 0.961 . S
H677 C663 0.958 . S
H678 C663 0.961 . S
H679 C663 0.960 . S
C680 C681 1.391 . S
C680 C682 1.394 . S
C680 H696 0.931 . S
C681 C680 1.391 . S
C681 C685 1.376 . S
C682 C680 1.394 . S
C682 C683 1.369 . S
C682 C686 1.531 . S
C683 C682 1.369 . S
C683 C684 1.410 . S
C683 C691 1.503 . S
C684 C683 1.410 . S
C684 C685 1.392 . S
C684 C687 1.511 . S
C685 C681 1.376 . S
C685 C684 1.392 . S
C685 H697 0.929 . S
C686 C682 1.531 . S
C686 H698 0.960 . S
C686 H699 0.962 . S
C686 H700 0.960 . S
C687 C684 1.511 . S
C687 H701 0.961 . S
C687 H702 0.961 . S
C687 H703 0.961 . S
C688 C689 1.370 . S
C688 C690 1.363 . S
C688 H704 0.931 . S
C689 C688 1.370 . S
C689 C693 1.408 . S
C690 C688 1.363 . S
C690 C691 1.370 . S
C690 C694 1.524 . S
C691 C683 1.503 . S
C691 C690 1.370 . S
C691 C692 1.403 . S
C692 C691 1.403 . S
C692 C693 1.404 . S
C692 C695 1.539 . S
C693 C689 1.408 . S
C693 C692 1.404 . S
C693 H705 0.930 . S
C694 C690 1.524 . S
C694 H706 0.956 . S
C694 H707 0.961 . S
C694 H708 0.961 . S
C695 C692 1.539 . S
C695 H709 0.958 . S
C695 H710 0.961 . S
C695 H711 0.960 . S
H696 C680 0.931 . S
H697 C685 0.929 . S
H698 C686 0.960 . S
H699 C686 0.962 . S
H700 C686 0.960 . S
H701 C687 0.961 . S
H702 C687 0.961 . S
H703 C687 0.961 . S
H704 C688 0.931 . S
H705 C693 0.930 . S
H706 C694 0.956 . S
H707 C694 0.961 . S
H708 C694 0.961 . S
H709 C695 0.958 . S
H710 C695 0.961 . S
H711 C695 0.960 . S
C712 C713 1.391 . S
C712 C714 1.394 . S
C712 H728 0.931 . S
C713 C712 1.391 . S
C713 C717 1.376 . S
C714 C712 1.394 . S
C714 C715 1.369 . S
C714 C718 1.531 . S
C715 C714 1.369 . S
C715 C716 1.410 . S
C715 C723 1.503 . S
C716 C715 1.410 . S
C716 C717 1.392 . S
C716 C719 1.511 . S
C717 C713 1.376 . S
C717 C716 1.392 . S
C717 H729 0.929 . S
C718 C714 1.531 . S
C718 H730 0.960 . S
C718 H731 0.962 . S
C718 H732 0.960 . S
C719 C716 1.511 . S
C719 H733 0.961 . S
C719 H734 0.961 . S
C719 H735 0.961 . S
C720 C721 1.370 . S
C720 C722 1.363 . S
C720 H736 0.931 . S
C721 C720 1.370 . S
C721 C725 1.408 . S
C722 C720 1.363 . S
C722 C723 1.370 . S
C722 C726 1.524 . S
C723 C715 1.503 . S
C723 C722 1.370 . S
C723 C724 1.403 . S
C724 C723 1.403 . S
C724 C725 1.404 . S
C724 C727 1.539 . S
C725 C721 1.408 . S
C725 C724 1.404 . S
C725 H737 0.930 . S
C726 C722 1.524 . S
C726 H738 0.956 . S
C726 H739 0.961 . S
C726 H740 0.961 . S
C727 C724 1.539 . S
C727 H741 0.958 . S
C727 H742 0.961 . S
C727 H743 0.960 . S
H728 C712 0.931 . S
H729 C717 0.929 . S
H730 C718 0.960 . S
H731 C718 0.962 . S
H732 C718 0.960 . S
H733 C719 0.961 . S
H734 C719 0.961 . S
H735 C719 0.961 . S
H736 C720 0.931 . S
H737 C725 0.930 . S
H738 C726 0.956 . S
H739 C726 0.961 . S
H740 C726 0.961 . S
H741 C727 0.958 . S
H742 C727 0.961 . S
H743 C727 0.960 . S
C744 C745 1.391 . S
C744 C746 1.394 . S
C744 H760 0.931 . S
C745 C744 1.391 . S
C745 C749 1.376 . S
C746 C744 1.394 . S
C746 C747 1.369 . S
C746 C750 1.531 . S
C747 C746 1.369 . S
C747 C748 1.410 . S
C747 C755 1.503 1_455 S
C748 C747 1.410 . S
C748 C749 1.392 . S
C748 C751 1.511 1_455 S
C749 C745 1.376 . S
C749 C748 1.392 . S
C749 H761 0.929 1_556 S
C750 C746 1.531 . S
C750 H762 0.960 . S
C750 H763 0.962 . S
C750 H764 0.960 . S
C751 C748 1.511 1_655 S
C751 H765 0.964 1_655 S
C751 H766 0.961 . S
C751 H767 0.961 . S
C752 C753 1.370 . S
C752 C754 1.363 . S
C752 H768 0.931 . S
C753 C752 1.370 . S
C753 C757 1.408 . S
C754 C752 1.363 . S
C754 C755 1.370 . S
C754 C758 1.524 1_655 S
C755 C747 1.503 1_655 S
C755 C754 1.370 . S
C755 C756 1.403 . S
C756 C755 1.403 . S
C756 C757 1.404 . S
C756 C759 1.539 . S
C757 C753 1.408 . S
C757 C756 1.404 . S
C757 H769 0.930 . S
C758 C754 1.524 1_455 S
C758 H770 0.956 . S
C758 H771 0.961 . S
C758 H772 0.961 . S
C759 C756 1.539 . S
C759 H773 0.958 . S
C759 H774 0.961 . S
C759 H775 0.960 . S
H760 C744 0.931 . S
H761 C749 0.929 1_554 S
H762 C750 0.960 . S
H763 C750 0.962 . S
H764 C750 0.960 . S
H765 C751 0.964 1_455 S
H766 C751 0.961 . S
H767 C751 0.961 . S
H768 C752 0.931 . S
H769 C757 0.930 . S
H770 C758 0.956 . S
H771 C758 0.961 . S
H772 C758 0.961 . S
H773 C759 0.958 . S
H774 C759 0.961 . S
H775 C759 0.960 . S
C776 C777 1.391 . S
C776 C778 1.394 1_556 S
C776 H792 0.931 . S
C777 C776 1.391 . S
C777 C781 1.376 . S
C778 C776 1.394 1_554 S
C778 C779 1.369 . S
C778 C782 1.531 . S
C779 C778 1.369 . S
C779 C780 1.410 . S
C779 C787 1.503 1_565 S
C780 C779 1.410 . S
C780 C781 1.392 1_554 S
C780 C783 1.511 . S
C781 C777 1.376 . S
C781 C780 1.392 1_556 S
C781 H793 0.929 . S
C782 C778 1.531 . S
C782 H794 0.960 . S
C782 H795 0.962 . S
C782 H796 0.960 . S
C783 C780 1.511 . S
C783 H797 0.961 1_554 S
C783 H798 0.961 1_565 S
C783 H799 0.961 . S
C784 C785 1.370 . S
C784 C786 1.363 . S
C784 H800 0.931 . S
C785 C784 1.370 . S
C785 C789 1.408 . S
C786 C784 1.363 . S
C786 C787 1.370 . S
C786 C790 1.524 1_554 S
C787 C779 1.503 1_545 S
C787 C786 1.370 . S
C787 C788 1.403 . S
C788 C787 1.403 . S
C788 C789 1.404 . S
C788 C791 1.539 1_545 S
C789 C785 1.408 . S
C789 C788 1.404 . S
C789 H801 0.930 . S
C790 C786 1.524 1_556 S
C790 H802 0.956 . S
C790 H803 0.961 . S
C790 H804 0.961 . S
C791 C788 1.539 1_565 S
C791 H805 0.958 . S
C791 H806 0.961 . S
C791 H807 0.960 . S
H792 C776 0.931 . S
H793 C781 0.929 . S
H794 C782 0.960 . S
H795 C782 0.962 . S
H796 C782 0.960 . S
H797 C783 0.961 1_556 S
H798 C783 0.961 1_545 S
H799 C783 0.961 . S
H800 C784 0.931 . S
H801 C789 0.930 . S
H802 C790 0.956 . S
H803 C790 0.961 . S
H804 C790 0.961 . S
H805 C791 0.958 . S
H806 C791 0.961 . S
H807 C791 0.960 . S
C808 C809 1.391 . S
C808 C810 1.394 . S
C808 H824 0.931 . S
C809 C808 1.391 . S
C809 C813 1.376 . S
C810 C808 1.394 . S
C810 C811 1.369 . S
C810 C814 1.531 . S
C811 C810 1.369 . S
C811 C812 1.410 . S
C811 C819 1.503 . S
C812 C811 1.410 . S
C812 C813 1.392 . S
C812 C815 1.511 . S
C813 C809 1.376 . S
C813 C812 1.392 . S
C813 H825 0.929 . S
C814 C810 1.531 . S
C814 H826 0.960 . S
C814 H827 0.962 . S
C814 H828 0.960 . S
C815 C812 1.511 . S
C815 H829 0.961 . S
C815 H830 0.961 . S
C815 H831 0.961 . S
C816 C817 1.370 . S
C816 C818 1.363 . S
C816 H832 0.931 . S
C817 C816 1.370 . S
C817 C821 1.408 . S
C818 C816 1.363 . S
C818 C819 1.370 . S
C818 C822 1.524 . S
C819 C811 1.503 . S
C819 C818 1.370 . S
C819 C820 1.403 . S
C820 C819 1.403 . S
C820 C821 1.404 . S
C820 C823 1.539 . S
C821 C817 1.408 . S
C821 C820 1.404 . S
C821 H833 0.930 . S
C822 C818 1.524 . S
C822 H834 0.956 . S
C822 H835 0.961 . S
C822 H836 0.961 . S
C823 C820 1.539 . S
C823 H837 0.958 . S
C823 H838 0.961 . S
C823 H839 0.960 . S
H824 C808 0.931 . S
H825 C813 0.929 . S
H826 C814 0.960 . S
H827 C814 0.962 . S
H828 C814 0.960 . S
H829 C815 0.961 . S
H830 C815 0.961 . S
H831 C815 0.961 . S
H832 C816 0.931 . S
H833 C821 0.930 . S
H834 C822 0.956 . S
H835 C822 0.961 . S
H836 C822 0.961 . S
H837 C823 0.958 . S
H838 C823 0.961 . S
H839 C823 0.960 . S
C840 C841 1.391 . S
C840 C842 1.394 . S
C840 H856 0.931 . S
C841 C840 1.391 . S
C841 C845 1.376 . S
C842 C840 1.394 . S
C842 C843 1.369 . S
C842 C846 1.531 1_455 S
C843 C842 1.369 . S
C843 C844 1.410 . S
C843 C851 1.503 1_455 S
C844 C843 1.410 . S
C844 C845 1.392 . S
C844 C847 1.511 . S
C845 C841 1.376 . S
C845 C844 1.392 . S
C845 H857 0.929 . S
C846 C842 1.531 1_655 S
C846 H858 0.960 . S
C846 H859 0.962 . S
C846 H860 0.960 1_655 S
C847 C844 1.511 . S
C847 H861 0.961 . S
C847 H862 0.961 . S
C847 H863 0.961 . S
C848 C849 1.370 . S
C848 C850 1.363 . S
C848 H864 0.931 . S
C849 C848 1.370 . S
C849 C853 1.408 . S
C850 C848 1.363 . S
C850 C851 1.370 . S
C850 C854 1.524 . S
C851 C843 1.503 1_655 S
C851 C850 1.370 . S
C851 C852 1.403 . S
C852 C851 1.403 . S
C852 C853 1.404 . S
C852 C855 1.539 1_655 S
C853 C849 1.408 . S
C853 C852 1.404 . S
C853 H865 0.930 . S
C854 C850 1.524 . S
C854 H866 0.956 . S
C854 H867 0.961 . S
C854 H868 0.961 . S
C855 C852 1.539 1_455 S
C855 H869 0.958 . S
C855 H870 0.961 . S
C855 H871 0.960 . S
H856 C840 0.931 . S
H857 C845 0.929 . S
H858 C846 0.960 . S
H859 C846 0.962 . S
H860 C846 0.960 1_455 S
H861 C847 0.961 . S
H862 C847 0.961 . S
H863 C847 0.961 . S
H864 C848 0.931 . S
H865 C853 0.930 . S
H866 C854 0.956 . S
H867 C854 0.961 . S
H868 C854 0.961 . S
H869 C855 0.958 . S
H870 C855 0.961 . S
H871 C855 0.960 . S
C872 C873 1.391 . S
C872 C874 1.394 . S
C872 H888 0.931 . S
C873 C872 1.391 . S
C873 C877 1.376 . S
C874 C872 1.394 . S
C874 C875 1.369 . S
C874 C878 1.531 . S
C875 C874 1.369 . S
C875 C876 1.410 . S
C875 C883 1.503 1_545 S
C876 C875 1.410 . S
C876 C877 1.392 . S
C876 C879 1.518 . S
C877 C873 1.376 . S
C877 C876 1.392 . S
C877 H889 0.929 . S
C878 C874 1.531 . S
C878 H890 0.960 . S
C878 H891 0.962 . S
C878 H892 0.960 . S
C879 C876 1.518 . S
C879 H893 0.970 . S
C879 H894 0.923 1_545 S
C879 H895 0.984 . S
C880 C881 1.370 . S
C880 C882 1.363 . S
C880 H896 0.931 . S
C881 C880 1.370 . S
C881 C885 1.408 . S
C882 C880 1.363 . S
C882 C883 1.370 . S
C882 C886 1.524 . S
C883 C875 1.503 1_565 S
C883 C882 1.370 . S
C883 C884 1.403 . S
C884 C883 1.403 . S
C884 C885 1.404 . S
C884 C887 1.539 1_565 S
C885 C881 1.408 . S
C885 C884 1.404 . S
C885 H897 0.930 . S
C886 C882 1.524 . S
C886 H898 0.956 . S
C886 H899 0.961 . S
C886 H900 0.961 . S
C887 C884 1.539 1_545 S
C887 H901 0.958 . S
C887 H902 0.961 . S
C887 H903 0.960 . S
H888 C872 0.931 . S
H889 C877 0.929 . S
H890 C878 0.960 . S
H891 C878 0.962 . S
H892 C878 0.960 . S
H893 C879 0.970 . S
H894 C879 0.923 1_565 S
H895 C879 0.984 . S
H896 C880 0.931 . S
H897 C885 0.930 . S
H898 C886 0.956 . S
H899 C886 0.961 . S
H900 C886 0.961 . S
H901 C887 0.958 . S
H902 C887 0.961 . S
H903 C887 0.960 . S
C904 C905 1.391 . S
C904 C906 1.394 . S
C904 H920 0.931 . S
C905 C904 1.391 . S
C905 C909 1.376 . S
C906 C904 1.394 . S
C906 C907 1.369 . S
C906 C910 1.531 . S
C907 C906 1.369 . S
C907 C908 1.410 . S
C907 C915 1.503 . S
C908 C907 1.410 . S
C908 C909 1.392 . S
C908 C911 1.511 . S
C909 C905 1.376 . S
C909 C908 1.392 . S
C909 H921 0.929 . S
C910 C906 1.531 . S
C910 H922 0.960 . S
C910 H923 0.962 . S
C910 H924 0.960 . S
C911 C908 1.511 . S
C911 H925 0.961 . S
C911 H926 0.961 . S
C911 H927 0.961 . S
C912 C913 1.370 . S
C912 C914 1.363 . S
C912 H928 0.931 . S
C913 C912 1.370 . S
C913 C917 1.408 . S
C914 C912 1.363 . S
C914 C915 1.370 . S
C914 C918 1.524 . S
C915 C907 1.503 . S
C915 C914 1.370 . S
C915 C916 1.403 . S
C916 C915 1.403 . S
C916 C917 1.404 . S
C916 C919 1.539 . S
C917 C913 1.408 . S
C917 C916 1.404 . S
C917 H929 0.930 . S
C918 C914 1.524 . S
C918 H930 0.956 . S
C918 H931 0.961 . S
C918 H932 0.961 . S
C919 C916 1.539 . S
C919 H933 0.958 . S
C919 H934 0.961 . S
C919 H935 0.960 . S
H920 C904 0.931 . S
H921 C909 0.929 . S
H922 C910 0.960 . S
H923 C910 0.962 . S
H924 C910 0.960 . S
H925 C911 0.961 . S
H926 C911 0.961 . S
H927 C911 0.961 . S
H928 C912 0.931 . S
H929 C917 0.930 . S
H930 C918 0.956 . S
H931 C918 0.961 . S
H932 C918 0.961 . S
H933 C919 0.958 . S
H934 C919 0.961 . S
H935 C919 0.960 . S
C169 C9 1.441 . S
C177 C149 1.440 . S
C201 C163 1.418 . S
C209 C23 1.418 . S
C233 C37 1.452 . S
C241 C93 1.432 . S
C265 C51 1.399 . S
C273 C107 1.423 . S
C297 C65 1.401 . S
C305 C121 1.421 . S
C329 C135 1.398 . S
C337 C79 1.424 1_554 S
C361 C7 1.556 . S
C369 C119 1.572 . S
C393 C21 1.581 . S
C401 C133 1.577 . S
C425 C147 1.575 . S
C433 C35 1.581 . S
C457 C49 1.588 . S
C465 C161 1.581 . S
C489 C63 1.550 . S
C497 C91 1.567 . S
C521 C77 1.578 . S
C529 C105 1.582 1_556 S
C553 C143 1.386 . S
C561 C3 1.391 . S
C585 C17 1.389 . S
C593 C157 1.390 . S
C617 C31 1.390 . S
C625 C87 1.391 1_554 S
C649 C45 1.383 . S
C657 C101 1.389 . S
C681 C115 1.388 . S
C689 C59 1.392 . S
C713 C73 1.387 . S
C721 C129 1.391 . S
C745 C8 1.399 . S
C753 C162 1.389 . S
C777 C92 1.379 . S
C785 C22 1.398 . S
C809 C106 1.385 . S
C817 C36 1.395 . S
C841 C120 1.381 . S
C849 C50 1.397 . S
C873 C134 1.381 . S
C881 C64 1.397 . S
C905 C148 1.401 . S
C913 C78 1.389 . S
