# Generated by pormake.
# Topology rkf, (6)-cn, num edge types: 1
# Building blocks:
#     Node 0, Type 0, BuildingBlock: PAMTOO_clean_sbu_0, # of connection points: 6
#     Node 1, Type 0, BuildingBlock: PAMTOO_clean_sbu_0, # of connection points: 6
#     Node 2, Type 0, BuildingBlock: PAMTOO_clean_sbu_0, # of connection points: 6
#     Node 3, Type 0, BuildingBlock: PAMTOO_clean_sbu_0, # of connection points: 6
#     Node 4, Type 0, BuildingBlock: PAMTOO_clean_sbu_0, # of connection points: 6
#     Node 5, Type 0, BuildingBlock: PAMTOO_clean_sbu_0, # of connection points: 6
#     Edge 6, Type (0, 0), BuildingBlock: AJUNOK_clean_linker_0, # of connection points: 2
#     Edge 7, Type (0, 0), BuildingBlock: AJUNOK_clean_linker_0, # of connection points: 2
#     Edge 8, Type (0, 0), BuildingBlock: AJUNOK_clean_linker_0, # of connection points: 2
#     Edge 9, Type (0, 0), BuildingBlock: AJUNOK_clean_linker_0, # of connection points: 2
#     Edge 10, Type (0, 0), BuildingBlock: AJUNOK_clean_linker_0, # of connection points: 2
#     Edge 11, Type (0, 0), BuildingBlock: AJUNOK_clean_linker_0, # of connection points: 2
#     Edge 12, Type (0, 0), BuildingBlock: AJUNOK_clean_linker_0, # of connection points: 2
#     Edge 13, Type (0, 0), BuildingBlock: AJUNOK_clean_linker_0, # of connection points: 2
#     Edge 14, Type (0, 0), BuildingBlock: AJUNOK_clean_linker_0, # of connection points: 2
#     Edge 15, Type (0, 0), BuildingBlock: AJUNOK_clean_linker_0, # of connection points: 2
#     Edge 16, Type (0, 0), BuildingBlock: AJUNOK_clean_linker_0, # of connection points: 2
#     Edge 17, Type (0, 0), BuildingBlock: AJUNOK_clean_linker_0, # of connection points: 2
#     Edge 18, Type (0, 0), BuildingBlock: AJUNOK_clean_linker_0, # of connection points: 2
#     Edge 19, Type (0, 0), BuildingBlock: AJUNOK_clean_linker_0, # of connection points: 2
#     Edge 20, Type (0, 0), BuildingBlock: AJUNOK_clean_linker_0, # of connection points: 2
#     Edge 21, Type (0, 0), BuildingBlock: AJUNOK_clean_linker_0, # of connection points: 2
#     Edge 22, Type (0, 0), BuildingBlock: AJUNOK_clean_linker_0, # of connection points: 2
#     Edge 23, Type (0, 0), BuildingBlock: AJUNOK_clean_linker_0, # of connection points: 2
# Relax obj value: 1.144
# Max RMSD: 0.277
# Mean RMSD: 0.268
data_MOF--net-rkf--node1-PAMTOO_clean_sbu_0--edge1-AJUNOK_clean_linker_0
_symmetry_space_group_name_H-M    P1
_symmetry_Int_Tables_number       1
_symmetry_cell_setting            triclinic
loop_
_symmetry_equiv_pos_as_xyz
'x, y, z'
_cell_length_a     20.83693
_cell_length_b     20.427212
_cell_length_c     31.295372
_cell_angle_alpha  90.236945
_cell_angle_beta   90.848181
_cell_angle_gamma 119.34456
loop_
_atom_site_label
_atom_site_type_symbol
_atom_site_fract_x
_atom_site_fract_y
_atom_site_fract_z
_atom_type_partial_charge
Dy0 Dy 0.18423 0.93448 0.27516 0.0
Dy1 Dy 0.23634 0.1032 0.24338 0.0
C2 C 0.07774 -0.00221 0.27608 0.0
O3 O 0.15866 0.92165 1.20312 0.0
O4 O 0.17481 0.03742 1.18383 0.0
O5 O 0.18066 0.82829 0.26305 0.0
O6 O 0.13342 0.84526 0.32054 0.0
O7 O 0.31469 0.06865 1.21999 0.0
O8 O 0.30674 -0.00073 0.27766 0.0
O9 O 0.27624 0.11705 0.31156 0.0
O10 O 0.19654 0.00099 0.33716 0.0
O11 O 0.32703 0.21643 1.2399 0.0
O12 O 0.21462 0.19116 1.22395 0.0
C13 C 0.1527 -0.03382 1.17444 0.0
O14 O 0.08252 0.93998 0.26278 0.0
O15 O 0.1365 0.06293 0.2819 0.0
C16 C 0.06276 0.73366 0.28329 0.0
C17 C 0.90844 0.64905 0.28184 0.0
C18 C -0.05527 0.70039 0.24926 0.0
C19 C 0.02155 0.74267 0.25008 0.0
C20 C 0.02708 0.67569 0.31241 0.0
C21 C -0.04961 0.63357 0.31162 0.0
C22 C 0.13583 0.79636 0.2946 0.0
C23 C 0.34584 0.04456 0.24737 0.0
C24 C 0.24185 0.07374 0.34382 0.0
C25 C 0.31202 0.30502 1.19895 0.0
C26 C 0.34463 0.42941 1.14821 0.0
C27 C 0.37025 0.43965 1.1907 0.0
C28 C 0.35438 0.37773 1.21584 0.0
C29 C 0.28968 0.29423 1.15596 0.0
C30 C 0.30569 0.35617 1.13073 0.0
C31 C 0.28371 0.24282 1.22852 0.0
H32 H 0.91375 0.71363 1.22609 0.0
H33 H 0.04797 0.78784 1.22757 0.0
H34 H 0.05764 0.66862 0.33862 0.0
H35 H 0.92415 0.59581 0.33768 0.0
H36 H 0.39877 0.4951 1.2052 0.0
H37 H 0.37139 0.38653 0.24923 0.0
H38 H 0.25633 0.23817 1.14268 0.0
H39 H 0.28294 0.34626 1.09851 0.0
Dy40 Dy 0.18341 0.31546 0.56026 0.0
Dy41 Dy 0.31278 0.29534 0.60553 0.0
C42 C 0.158 0.15607 0.59479 0.0
O43 O 0.17356 0.33231 0.63078 0.0
O44 O 0.24923 0.2947 0.6641 0.0
O45 O 0.14417 0.36718 0.51462 0.0
O46 O 0.07032 0.29077 0.56181 0.0
O47 O 0.33481 0.41251 0.61513 0.0
O48 O 0.28788 0.42236 0.55194 0.0
O49 O 0.3044 0.25192 0.53645 0.0
O50 O 0.20739 0.26008 0.50581 0.0
O51 O 0.43129 0.35894 0.61368 0.0
O52 O 0.37057 0.24367 0.63478 0.0
C53 C 0.19696 0.31368 0.66563 0.0
O54 O 0.14212 0.19325 0.56634 0.0
O55 O 0.21679 0.18639 0.61932 0.0
C56 C 0.05303 0.39334 0.54168 0.0
C57 C -0.02296 0.47584 0.54601 0.0
C58 C 0.03261 0.49324 0.5157 0.0
C59 C 0.06951 0.45215 0.51343 0.0
C60 C 0.00472 0.38188 0.57537 0.0
C61 C -0.03227 0.42343 0.5778 0.0
C62 C 0.08016 0.34012 0.53267 0.0
C63 C 0.33274 0.45396 0.58433 0.0
C64 C 0.25787 0.23931 0.50394 0.0
C65 C 0.47139 0.32617 0.67672 0.0
C66 C 0.50108 0.30317 0.76071 0.0
C67 C 0.5441 0.29983 0.72748 0.0
C68 C 0.52831 0.3101 0.68532 0.0
C69 C 0.43917 0.34434 0.71049 0.0
C70 C 0.45447 0.33336 0.75258 0.0
C71 C 0.43388 0.30552 0.63497 0.0
H72 H 0.04243 0.53262 0.4903 0.0
H73 H 0.10701 0.46292 0.4874 0.0
H74 H -0.00826 0.33764 0.59822 0.0
H75 H 0.92659 0.40931 0.60206 0.0
H76 H 0.58051 0.27685 0.73318 0.0
H77 H 0.55409 0.29655 0.65952 0.0
H78 H 0.39556 0.35764 0.70425 0.0
H79 H 0.4209 0.33655 0.77775 0.0
Dy80 Dy 0.04452 0.38136 0.92016 0.0
Dy81 Dy 0.91147 0.22174 0.89128 0.0
C82 C 0.0551 0.23812 0.93466 0.0
O83 O 0.08842 0.3532 0.86065 0.0
O84 O -0.02274 0.26653 0.83072 0.0
O85 O 0.15554 0.473 0.92596 0.0
O86 O 0.06276 0.49224 0.9355 0.0
O87 O 0.868 0.30152 0.90236 0.0
O88 O -0.03121 0.38277 0.87025 0.0
O89 O 0.90134 0.21666 0.96203 0.0
O90 O -0.02541 0.34037 0.98091 0.0
O91 O 0.85442 0.10225 0.90143 0.0
O92 O 0.81943 0.15045 0.85025 0.0
C93 C 0.04924 0.31128 0.82756 0.0
O94 O 0.06847 0.30009 0.95459 0.0
O95 O 0.01401 0.21586 0.89992 0.0
C96 C 0.17125 0.56473 0.97585 0.0
C97 C 0.26287 0.6042 1.0477 0.0
C98 C 0.1865 0.55833 1.05194 0.0
C99 C 0.14077 0.53769 1.01586 0.0
C100 C 0.24436 0.62256 0.97328 0.0
C101 C 0.2902 0.64324 1.00952 0.0
C102 C 0.13429 0.52099 0.93745 0.0
C103 C 0.90344 0.36529 0.88284 0.0
C104 C 0.92489 0.27054 0.99091 0.0
C105 C 0.72799 0.04807 0.88641 0.0
C106 C 0.57673 -0.00652 0.88438 0.0
C107 C 0.62157 0.05301 0.91248 0.0
C108 C 0.69785 0.082 0.91235 0.0
C109 C 0.68192 -0.02152 0.86723 0.0
C110 C 0.60606 0.95011 0.867 0.0
C111 C 0.80408 0.0906 0.87257 0.0
H112 H 0.16384 0.52838 1.08128 0.0
H113 H 0.08403 0.49367 1.01851 0.0
H114 H 0.26821 0.64473 0.94254 0.0
H115 H 0.34881 0.68003 1.00594 0.0
H116 H 0.59981 0.08537 0.92793 0.0
H117 H 0.7332 0.1352 0.92833 0.0
H118 H 0.70474 0.95087 0.84813 0.0
H119 H 0.5729 0.90202 0.84642 0.0
Dy120 Dy 0.69528 0.04746 1.23072 0.0
Dy121 Dy 0.81416 0.20233 0.27106 0.0
C122 C 0.85154 0.06892 0.25303 0.0
O123 O 0.70301 0.0201 0.30107 0.0
O124 O 0.79259 0.13208 0.3298 0.0
O125 O 0.57929 -0.02617 1.24127 0.0
O126 O 0.6335 0.95665 1.1866 0.0
O127 O 0.69874 0.17264 0.2862 0.0
O128 O 0.67877 0.14456 1.21865 0.0
O129 O 0.83229 0.21931 1.19899 0.0
O130 O 0.76315 0.09887 1.1725 0.0
O131 O 0.83645 0.31718 0.27319 0.0
O132 O 0.90818 0.28505 0.3073 0.0
C133 C 0.74576 0.05991 0.33377 0.0
O134 O 0.78336 0.02082 0.24249 0.0
O135 O 0.87628 0.14122 0.26002 0.0
C136 C 0.54537 0.84978 1.22082 0.0
C137 C 0.5085 0.70112 1.20597 0.0
C138 C 0.57573 0.75018 1.22657 0.0
C139 C 0.59426 0.82473 1.23389 0.0
C140 C 0.47271 0.79731 1.20947 0.0
C141 C 0.45345 0.72201 1.20348 0.0
C142 C 0.57458 0.92883 1.21007 0.0
C143 C 0.65959 0.16641 0.25236 0.0
C144 C 0.81075 0.17059 1.16661 0.0
C145 C 0.87546 0.36751 0.34228 0.0
C146 C 0.84261 0.42255 0.41692 0.0
C147 C 0.84205 0.45321 0.37704 0.0
C148 C 0.8589 0.42629 0.34004 0.0
C149 C 0.87424 0.33557 0.38204 0.0
C150 C 0.85854 0.36303 0.41885 0.0
C151 C 0.88746 0.33565 0.30279 0.0
H152 H 0.61868 0.73516 1.23019 0.0
H153 H 0.65006 0.8645 0.24412 0.0
H154 H 0.43364 0.81561 1.20047 0.0
H155 H 0.40011 0.6841 1.1893 0.0
H156 H 0.82998 0.49876 0.37474 0.0
H157 H 0.85912 0.45117 0.30956 0.0
H158 H 0.88593 0.28962 0.38494 0.0
H159 H 0.86163 0.33915 0.44914 0.0
Dy160 Dy 0.7069 0.9085 0.60388 0.0
Dy161 Dy 0.73117 0.77938 0.56026 0.0
C162 C 0.87004 0.93367 0.58925 0.0
O163 O 0.72094 0.93755 0.5336 0.0
O164 O 0.74338 0.84953 0.50154 0.0
O165 O 0.71837 0.00035 0.64361 0.0
O166 O 0.62932 0.94867 0.59646 0.0
O167 O 0.61948 0.7639 0.54811 0.0
O168 O 0.61173 0.79472 0.61476 0.0
O169 O 0.75451 0.77533 0.63254 0.0
O170 O 0.74245 0.87187 0.66305 0.0
O171 O 0.67465 0.6582 0.55367 0.0
O172 O 0.78233 0.72649 0.526 0.0
C173 C 0.73532 0.90976 0.49923 0.0
O174 O 0.82867 -0.03672 0.59981 0.0
O175 O 0.8448 0.86585 0.57374 0.0
C176 C 0.60301 -0.0137 0.66095 0.0
C177 C 0.51041 -0.0222 0.72734 0.0
C178 C 0.52371 0.02754 0.69339 0.0
C179 C 0.57045 0.0322 0.66049 0.0
C180 C 0.58365 0.9313 0.69216 0.0
C181 C 0.53794 0.92718 0.72513 0.0
C182 C 0.6568 -0.00507 0.62895 0.0
C183 C 0.57927 0.75311 0.5813 0.0
C184 C 0.75982 0.81802 0.66625 0.0
C185 C 0.69939 0.62122 0.4869 0.0
C186 C 0.69626 0.58904 0.39939 0.0
C187 C 0.65887 0.62591 0.41438 0.0
C188 C 0.66116 0.6427 0.45794 0.0
C189 C 0.72759 0.57553 0.47284 0.0
C190 C 0.7257 0.55917 0.4294 0.0
C191 C 0.72473 0.65975 0.52833 0.0
H192 H 0.50225 0.06626 0.69381 0.0
H193 H 0.58341 0.07349 0.63572 0.0
H194 H 0.60692 0.89405 0.69224 0.0
H195 H 0.5296 0.88853 0.7508 0.0
H196 H 0.63418 0.64802 0.39213 0.0
H197 H 0.63894 0.6781 0.4684 0.0
H198 H 0.75742 0.55863 0.49476 0.0
H199 H 0.75473 0.53036 0.41912 0.0
Dy200 Dy 0.02808 0.82523 0.89707 0.0
Dy201 Dy 0.87362 0.76923 0.94049 0.0
C202 C -0.0111 0.94648 0.93101 0.0
O203 O 0.05291 0.8595 0.96807 0.0
O204 O -0.05755 0.79086 1.00072 0.0
O205 O 0.12921 0.82197 0.90851 0.0
O206 O 0.11547 0.8762 0.85211 0.0
O207 O 0.89512 0.672 0.94299 0.0
O208 O -0.0355 0.70262 0.88411 0.0
O209 O 0.85327 0.78796 0.87064 0.0
O210 O -0.03908 0.81628 0.83726 0.0
O211 O 0.7631 0.67505 0.94034 0.0
O212 O 0.79049 0.77633 0.97699 0.0
C213 C 0.01393 0.83689 1.00332 0.0
O214 O 0.02275 0.92962 0.90178 0.0
O215 O 0.93185 0.89438 0.95123 0.0
C216 C 0.22849 0.93861 0.88905 0.0
C217 C 0.3567 0.07762 0.88666 0.0
C218 C 0.28878 0.07459 0.89236 0.0
C219 C 0.22482 0.00511 0.89375 0.0
C220 C 0.29704 0.94183 0.8913 0.0
C221 C 0.36118 0.01168 0.89144 0.0
C222 C 0.16172 0.86834 0.87735 0.0
C223 C 0.92113 0.65211 0.9108 0.0
C224 C 0.89201 0.80269 0.83533 0.0
C225 C 0.70505 0.65972 1.0062 0.0
C226 C 0.61814 0.59326 1.07717 0.0
C227 C 0.59194 0.56294 1.03618 0.0
C228 C 0.6349 0.597 1.00065 0.0
C229 C 0.73591 0.68094 1.04752 0.0
C230 C 0.69254 0.64754 1.08294 0.0
C231 C 0.74198 0.70614 0.96923 0.0
H232 H 0.28382 0.12477 0.88925 0.0
H233 H 0.17222 0.00339 0.89388 0.0
H234 H 0.30109 0.89101 0.88935 0.0
H235 H 0.41353 0.01382 0.889 0.0
H236 H 0.53516 0.52019 1.03125 0.0
H237 H 0.61105 0.57845 0.96892 0.0
H238 H 0.79105 0.72764 1.05253 0.0
H239 H 0.71406 0.67159 1.11434 0.0
C240 C -0.0488 0.07133 0.29643 0.0
C241 C 0.90084 0.03944 0.26225 0.0
C242 C 0.00353 0.04951 0.30434 0.0
C243 C 0.00756 -0.00377 0.2778 0.0
H244 H -0.04823 0.11517 0.31634 0.0
H245 H 0.04471 0.07882 0.32927 0.0
S246 S 0.87881 0.88588 1.18952 0.0
N247 N 0.84968 0.94356 1.20609 0.0
N248 N -0.0493 0.90363 1.22037 0.0
C249 C -0.04729 0.95801 0.24645 0.0
C250 C 0.89862 -0.0202 1.23862 0.0
C251 C -0.02261 0.02408 0.6322 0.0
C252 C -0.0509 -0.02196 0.59569 0.0
C253 C 0.05241 0.07482 0.63607 0.0
C254 C 0.09965 0.0814 0.60296 0.0
H255 H -0.05907 0.02377 0.65666 0.0
H256 H 0.07166 0.11536 0.66225 0.0
S257 S 0.05428 -0.03502 0.50473 0.0
N258 N -0.02495 0.93368 0.52924 0.0
N259 N 0.11643 0.03205 0.53606 0.0
C260 C 0.07347 0.03001 0.56885 0.0
C261 C -0.00252 -0.02242 0.56513 0.0
C262 C 0.0805 0.08064 0.9191 0.0
C263 C 0.02033 0.02694 0.94234 0.0
C264 C 0.107 0.15731 0.92512 0.0
C265 C 0.07188 0.18283 0.95297 0.0
H266 H 0.1042 0.06397 0.89367 0.0
H267 H 0.14689 0.19572 0.90281 0.0
S268 S 0.92909 0.06876 1.03092 0.0
N269 N -0.06023 0.00665 1.00238 0.0
N270 N -0.01218 0.15186 1.01184 0.0
C271 C 0.02029 0.13139 0.9812 0.0
C272 C -0.00632 0.05283 0.97568 0.0
C273 C 0.32165 0.53774 1.14362 0.0
C274 C 0.34724 0.49266 1.1243 0.0
C275 C 0.30319 0.58327 1.11899 0.0
C276 C 0.30983 0.58497 1.07441 0.0
H277 H 0.30957 0.53287 1.17737 0.0
H278 H 0.27717 0.61166 1.13432 0.0
S279 S 0.38532 0.48646 1.00965 0.0
N280 N 0.38853 0.46096 1.05925 0.0
N281 N 0.35168 0.54446 1.01255 0.0
C282 C 0.34241 0.54603 1.05539 0.0
C283 C 0.36148 0.50014 1.08047 0.0
C284 C 0.8454 0.42955 0.53216 0.0
C285 C 0.91643 0.49283 0.53552 0.0
C286 C 0.80728 0.41194 0.49283 0.0
C287 C 0.83942 0.45859 0.45754 0.0
H288 H 0.82692 0.38537 0.55555 0.0
H289 H 0.76156 0.35562 0.48795 0.0
S290 S -0.01126 0.65649 0.46432 0.0
N291 N -0.01046 0.62145 0.51173 0.0
N292 N 0.9207 0.58791 0.43663 0.0
C293 C 0.89396 0.53308 0.46638 0.0
C294 C 0.93113 0.55118 0.50687 0.0
C295 C 0.46258 0.93207 0.83957 0.0
C296 C 0.5201 -0.00125 0.85758 0.0
C297 C 0.44578 0.928 0.79577 0.0
C298 C 0.48671 -0.00966 0.76957 0.0
H299 H 0.44075 0.88019 0.85718 0.0
H300 H 0.41077 0.87317 0.78141 0.0
S301 S 0.6115 0.18576 0.80685 0.0
N302 N 0.59148 0.13469 0.85033 0.0
N303 N 0.56466 0.12615 0.76777 0.0
C304 C 0.52856 0.06088 0.78959 0.0
C305 C 0.54354 0.06533 0.83427 0.0
C306 C 0.53979 0.60259 1.1829 0.0
C307 C 0.51053 0.65008 1.17295 0.0
C308 C 0.56754 0.57559 1.15082 0.0
C309 C 0.56634 0.59508 1.10795 0.0
H310 H 0.54684 0.59154 1.21597 0.0
H311 H 0.59557 0.54483 1.15992 0.0
S312 S 0.49722 0.71823 1.06494 0.0
N313 N 0.48188 0.71433 1.1166 0.0
N314 N 0.53259 0.66273 1.05695 0.0
C315 C 0.53257 0.63786 1.09727 0.0
C316 C 0.50497 0.66563 1.12963 0.0
C317 C 0.72788 0.53948 0.33456 0.0
C318 C 0.72247 0.59831 0.35472 0.0
C319 C 0.78217 0.5547 0.30423 0.0
C320 C 0.83231 0.62898 0.29329 0.0
H321 H 0.69625 0.48258 0.34605 0.0
H322 H 0.79026 0.50919 0.29305 0.0
S323 S 0.82557 0.80007 0.32614 0.0
N324 N 0.75983 0.73158 0.35332 0.0
N325 N 0.86118 0.75952 0.29636 0.0
C326 C 0.81843 0.68632 0.30713 0.0
C327 C 0.76343 0.67107 0.33801 0.0
C328 C 0.45028 0.21089 0.86927 0.0
C329 C 0.40764 0.13483 0.85718 0.0
C330 C 0.48565 0.26641 0.83822 0.0
C331 C 0.4788 0.24673 0.79458 0.0
H332 H 0.45338 0.22763 0.90245 0.0
H333 H 0.51553 0.32492 0.84805 0.0
S334 S 0.36587 0.05647 0.7468 0.0
N335 N 0.35698 0.04372 0.79882 0.0
N336 N 0.42228 0.14707 0.74097 0.0
C337 C 0.43654 0.17078 0.7825 0.0
C338 C 0.4013 0.115 0.81371 0.0
C339 C 0.46234 0.072 0.28566 0.0
C340 C 0.4267 0.07925 0.24883 0.0
C341 C 0.53914 0.10611 0.28843 0.0
C342 C 0.5825 0.14798 0.25432 0.0
H343 H 0.43082 0.03923 0.31247 0.0
H344 H 0.56429 0.09624 0.31642 0.0
S345 S 0.51753 0.18852 1.15219 0.0
N346 N 0.44158 0.13524 1.17849 0.0
N347 N 0.58595 0.19873 1.18387 0.0
C348 C 0.54805 0.15811 1.2181 0.0
C349 C 0.47008 0.12373 1.21524 0.0
C350 C 0.41193 0.57257 0.54605 0.0
C351 C 0.38633 0.53489 0.58477 0.0
C352 C 0.47203 0.6454 0.54546 0.0
C353 C 0.50783 0.6834 0.5836 0.0
H354 H 0.38831 0.54416 0.51585 0.0
H355 H 0.49252 0.67086 0.51477 0.0
S356 S 0.45411 0.61324 0.69372 0.0
N357 N 0.39554 0.54353 0.66242 0.0
N358 N 0.50798 0.68104 0.66135 0.0
C359 C 0.47894 0.64858 0.6227 0.0
C360 C 0.41833 0.574 0.62326 0.0
C361 C 0.90956 0.48122 0.85575 0.0
C362 C 0.88738 0.42762 0.88817 0.0
C363 C 0.91687 0.55208 0.86314 0.0
C364 C 0.9028 0.57279 0.90344 0.0
H365 H 0.92552 0.46979 0.825 0.0
H366 H 0.93654 0.59193 0.83728 0.0
S367 S 0.83712 0.4501 0.99826 0.0
N368 N 0.84639 0.39746 0.96132 0.0
N369 N 0.8598 0.5312 0.9754 0.0
C370 C 0.8758 0.51791 0.93547 0.0
C371 C 0.86813 0.44514 0.92779 0.0
C372 C 0.24017 0.17871 0.38573 0.0
C373 C 0.24629 0.11277 0.38598 0.0
C374 C 0.245 0.21906 0.42359 0.0
C375 C 0.25903 0.19763 0.46393 0.0
H376 H 0.23014 0.1989 0.35578 0.0
H377 H 0.23792 0.26804 0.42114 0.0
S378 S 0.28045 0.02977 0.48305 0.0
N379 N 0.26611 0.02745 0.43082 0.0
N380 N 0.27894 0.10498 0.50148 0.0
C381 C 0.26647 0.13239 0.46474 0.0
C382 C 0.25907 0.08965 0.4261 0.0
C383 C 0.19826 0.33383 0.7468 0.0
C384 C 0.15972 0.31203 0.7072 0.0
C385 C 0.16295 0.33486 0.78518 0.0
C386 C 0.08692 0.31233 0.78612 0.0
H387 H 0.2565 0.35154 0.74808 0.0
H388 H 0.19549 0.35257 0.81453 0.0
S389 S -0.04013 0.24626 0.69148 0.0
N390 N 0.04028 0.26542 0.67197 0.0
N391 N -0.02542 0.26568 0.74313 0.0
C392 C 0.04777 0.28906 0.74676 0.0
C393 C 0.08384 0.28936 0.70776 0.0
C394 C 0.92746 0.29366 1.07239 0.0
C395 C 0.8941 0.24805 1.03573 0.0
C396 C 0.90049 0.26906 1.11425 0.0
C397 C 0.83898 0.19739 1.12178 0.0
H398 H -0.02441 0.34837 1.06888 0.0
H399 H 0.92893 0.30637 1.14104 0.0
S400 S 0.72733 0.05797 1.03687 0.0
N401 N 0.79222 0.12854 1.01057 0.0
N402 N 0.74359 0.08324 1.0877 0.0
C403 C 0.80441 0.15218 1.08527 0.0
C404 C 0.83124 0.17717 1.04294 0.0
C405 C 0.72013 0.94419 0.37821 0.0
C406 C 0.74299 0.02187 0.37611 0.0
C407 C 0.71991 0.9087 0.41737 0.0
C408 C 0.74101 0.94857 0.45678 0.0
H409 H 0.70301 0.91041 0.34917 0.0
H410 H 0.7015 0.84906 0.41681 0.0
S411 S 0.80702 0.15324 0.46952 0.0
N412 N 0.78904 0.13725 0.4178 0.0
N413 N 0.7871 0.07144 0.49033 0.0
C414 C 0.76416 0.02623 0.455 0.0
C415 C 0.7656 0.06244 0.41519 0.0
C416 C 0.85437 0.80201 0.71246 0.0
C417 C 0.78973 0.80824 0.70926 0.0
C418 C 0.88705 0.80082 0.75268 0.0
C419 C 0.85625 0.80418 0.79221 0.0
H420 H 0.88143 0.80031 0.68353 0.0
H421 H 0.9371 0.79705 0.75266 0.0
S422 S 0.68414 0.816 0.80184 0.0
N423 N 0.69538 0.81582 0.74975 0.0
N424 N 0.75391 0.81107 0.82421 0.0
C425 C 0.79041 0.80851 0.7892 0.0
C426 C 0.75822 0.81131 0.74832 0.0
C427 C 0.0316 0.82649 1.08406 0.0
C428 C 0.05082 0.87001 1.04658 0.0
C429 C 0.06546 0.85729 1.12455 0.0
C430 C 0.11872 0.93409 1.13032 0.0
H431 H -0.00952 0.7676 1.08206 0.0
H432 H 0.04846 0.82054 1.15181 0.0
S433 S 0.18578 0.07418 1.04312 0.0
N434 N 0.12641 -0.00484 1.01864 0.0
N435 N 0.1868 0.05305 1.09395 0.0
C436 C 0.13714 -0.02151 1.09317 0.0
C437 C 0.10427 0.94664 1.05178 0.0
loop_
_geom_bond_atom_site_label_1
_geom_bond_atom_site_label_2
_geom_bond_distance
_geom_bond_site_symmetry_2
_ccdc_geom_bond_type
Dy0 O3 2.307 1_554 S
Dy0 O5 2.395 . S
Dy0 O6 2.379 . S
Dy0 O8 2.339 . S
Dy0 O10 2.298 1_565 S
Dy0 O14 2.275 . S
Dy0 C22 2.738 . S
Dy1 O4 2.293 1_544 S
Dy1 O7 2.278 . S
Dy1 O9 2.316 . S
Dy1 O11 2.388 1_554 S
Dy1 O12 2.371 1_554 S
Dy1 O15 2.340 . S
Dy1 C31 2.730 1_554 S
C2 O14 1.254 1_545 S
C2 O15 1.257 . S
O3 Dy0 2.307 1_556 S
O3 C13 1.266 . S
O4 Dy1 2.293 1_566 S
O4 C13 1.236 . S
O5 Dy0 2.395 . S
O5 C22 1.255 . S
O6 Dy0 2.379 . S
O6 C22 1.249 . S
O7 Dy1 2.278 . S
O7 C23 1.254 1_545 S
O8 Dy0 2.339 . S
O8 C23 1.257 . S
O9 Dy1 2.316 . S
O9 C24 1.266 . S
O10 Dy0 2.298 1_545 S
O10 C24 1.236 . S
O11 Dy1 2.388 1_556 S
O11 C31 1.255 . S
O12 Dy1 2.371 1_556 S
O12 C31 1.249 . S
C13 O3 1.266 . S
C13 O4 1.236 . S
O14 Dy0 2.275 . S
O14 C2 1.254 1_565 S
O15 Dy1 2.340 . S
O15 C2 1.257 . S
C16 C19 1.344 . S
C16 C20 1.328 . S
C16 C22 1.516 . S
C17 C18 1.304 . S
C17 C21 1.323 . S
C18 C17 1.304 . S
C18 C19 1.371 . S
C18 H32 0.930 1_455 S
C19 C16 1.344 . S
C19 C18 1.371 . S
C19 H33 0.931 . S
C20 C16 1.328 . S
C20 C21 1.433 . S
C20 H34 0.931 . S
C21 C17 1.323 . S
C21 C20 1.433 . S
C21 H35 0.933 . S
C22 Dy0 2.738 . S
C22 O5 1.255 . S
C22 O6 1.249 . S
C22 C16 1.516 . S
C23 O7 1.254 1_565 S
C23 O8 1.257 . S
C24 O9 1.266 . S
C24 O10 1.236 . S
C25 C28 1.344 . S
C25 C29 1.328 . S
C25 C31 1.516 . S
C26 C27 1.304 . S
C26 C30 1.323 . S
C27 C26 1.304 . S
C27 C28 1.371 . S
C27 H36 0.930 . S
C28 C25 1.344 . S
C28 C27 1.371 . S
C28 H37 0.931 . S
C29 C25 1.328 . S
C29 C30 1.433 . S
C29 H38 0.931 . S
C30 C26 1.323 . S
C30 C29 1.433 . S
C30 H39 0.933 . S
C31 Dy1 2.730 1_556 S
C31 O11 1.255 . S
C31 O12 1.249 . S
C31 C25 1.516 . S
H32 C18 0.930 1_655 S
H33 C19 0.931 . S
H34 C20 0.931 . S
H35 C21 0.933 . S
H36 C27 0.930 . S
H37 C28 0.931 . S
H38 C29 0.931 . S
H39 C30 0.933 . S
Dy40 O43 2.307 . S
Dy40 O45 2.395 . S
Dy40 O46 2.379 . S
Dy40 O48 2.339 . S
Dy40 O50 2.298 . S
Dy40 O54 2.275 . S
Dy40 C62 2.738 . S
Dy41 O44 2.298 . S
Dy41 O47 2.275 . S
Dy41 O49 2.307 . S
Dy41 O51 2.395 . S
Dy41 O52 2.379 . S
Dy41 O55 2.339 . S
Dy41 C71 2.738 . S
C42 O54 1.254 . S
C42 O55 1.257 . S
O43 Dy40 2.307 . S
O43 C53 1.266 . S
O44 Dy41 2.298 . S
O44 C53 1.236 . S
O45 Dy40 2.395 . S
O45 C62 1.255 . S
O46 Dy40 2.379 . S
O46 C62 1.249 . S
O47 Dy41 2.275 . S
O47 C63 1.254 . S
O48 Dy40 2.339 . S
O48 C63 1.257 . S
O49 Dy41 2.307 . S
O49 C64 1.266 . S
O50 Dy40 2.298 . S
O50 C64 1.236 . S
O51 Dy41 2.395 . S
O51 C71 1.255 . S
O52 Dy41 2.379 . S
O52 C71 1.249 . S
C53 O43 1.266 . S
C53 O44 1.236 . S
O54 Dy40 2.275 . S
O54 C42 1.254 . S
O55 Dy41 2.339 . S
O55 C42 1.257 . S
C56 C59 1.344 . S
C56 C60 1.328 . S
C56 C62 1.516 . S
C57 C58 1.304 . S
C57 C61 1.323 . S
C58 C57 1.304 . S
C58 C59 1.371 . S
C58 H72 0.930 . S
C59 C56 1.344 . S
C59 C58 1.371 . S
C59 H73 0.931 . S
C60 C56 1.328 . S
C60 C61 1.433 . S
C60 H74 0.931 . S
C61 C57 1.323 . S
C61 C60 1.433 . S
C61 H75 0.933 . S
C62 Dy40 2.738 . S
C62 O45 1.255 . S
C62 O46 1.249 . S
C62 C56 1.516 . S
C63 O47 1.254 . S
C63 O48 1.257 . S
C64 O49 1.266 . S
C64 O50 1.236 . S
C65 C68 1.344 . S
C65 C69 1.328 . S
C65 C71 1.516 . S
C66 C67 1.304 . S
C66 C70 1.323 . S
C67 C66 1.304 . S
C67 C68 1.371 . S
C67 H76 0.930 . S
C68 C65 1.344 . S
C68 C67 1.371 . S
C68 H77 0.931 . S
C69 C65 1.328 . S
C69 C70 1.433 . S
C69 H78 0.931 . S
C70 C66 1.323 . S
C70 C69 1.433 . S
C70 H79 0.933 . S
C71 Dy41 2.738 . S
C71 O51 1.255 . S
C71 O52 1.249 . S
C71 C65 1.516 . S
H72 C58 0.930 . S
H73 C59 0.931 . S
H74 C60 0.931 . S
H75 C61 0.933 . S
H76 C67 0.930 . S
H77 C68 0.931 . S
H78 C69 0.931 . S
H79 C70 0.933 . S
Dy80 O83 2.307 . S
Dy80 O85 2.395 . S
Dy80 O86 2.379 . S
Dy80 O88 2.339 . S
Dy80 O90 2.298 . S
Dy80 O94 2.275 . S
Dy80 C102 2.738 . S
Dy81 O84 2.298 . S
Dy81 O87 2.275 . S
Dy81 O89 2.307 . S
Dy81 O91 2.395 1_455 S
Dy81 O92 2.379 1_455 S
Dy81 O95 2.339 . S
Dy81 C111 2.738 1_455 S
C82 O94 1.254 . S
C82 O95 1.257 . S
O83 Dy80 2.307 . S
O83 C93 1.266 . S
O84 Dy81 2.298 . S
O84 C93 1.236 . S
O85 Dy80 2.395 . S
O85 C102 1.255 . S
O86 Dy80 2.379 . S
O86 C102 1.249 . S
O87 Dy81 2.275 . S
O87 C103 1.254 . S
O88 Dy80 2.339 . S
O88 C103 1.257 . S
O89 Dy81 2.307 . S
O89 C104 1.266 . S
O90 Dy80 2.298 . S
O90 C104 1.236 . S
O91 Dy81 2.395 1_655 S
O91 C111 1.255 . S
O92 Dy81 2.379 1_655 S
O92 C111 1.249 . S
C93 O83 1.266 . S
C93 O84 1.236 . S
O94 Dy80 2.275 . S
O94 C82 1.254 . S
O95 Dy81 2.339 . S
O95 C82 1.257 . S
C96 C99 1.344 . S
C96 C100 1.328 . S
C96 C102 1.516 . S
C97 C98 1.304 . S
C97 C101 1.323 . S
C98 C97 1.304 . S
C98 C99 1.371 . S
C98 H112 0.930 . S
C99 C96 1.344 . S
C99 C98 1.371 . S
C99 H113 0.931 . S
C100 C96 1.328 . S
C100 C101 1.433 . S
C100 H114 0.931 . S
C101 C97 1.323 . S
C101 C100 1.433 . S
C101 H115 0.933 . S
C102 Dy80 2.738 . S
C102 O85 1.255 . S
C102 O86 1.249 . S
C102 C96 1.516 . S
C103 O87 1.254 . S
C103 O88 1.257 . S
C104 O89 1.266 . S
C104 O90 1.236 . S
C105 C108 1.344 . S
C105 C109 1.328 . S
C105 C111 1.516 . S
C106 C107 1.304 . S
C106 C110 1.323 . S
C107 C106 1.304 . S
C107 C108 1.371 . S
C107 H116 0.930 . S
C108 C105 1.344 . S
C108 C107 1.371 . S
C108 H117 0.931 . S
C109 C105 1.328 . S
C109 C110 1.433 . S
C109 H118 0.931 . S
C110 C106 1.323 . S
C110 C109 1.433 . S
C110 H119 0.933 . S
C111 Dy81 2.738 1_655 S
C111 O91 1.255 . S
C111 O92 1.249 . S
C111 C105 1.516 . S
H112 C98 0.930 . S
H113 C99 0.931 . S
H114 C100 0.931 . S
H115 C101 0.933 . S
H116 C107 0.930 . S
H117 C108 0.931 . S
H118 C109 0.931 . S
H119 C110 0.933 . S
Dy120 O123 2.307 1_556 S
Dy120 O125 2.395 1_545 S
Dy120 O126 2.379 1_545 S
Dy120 O128 2.339 1_556 S
Dy120 O130 2.298 . S
Dy120 O134 2.275 1_556 S
Dy120 C142 2.738 1_545 S
Dy121 O124 2.298 . S
Dy121 O127 2.275 . S
Dy121 O129 2.307 1_554 S
Dy121 O131 2.395 . S
Dy121 O132 2.379 . S
Dy121 O135 2.339 . S
Dy121 C151 2.738 . S
C122 O134 1.254 . S
C122 O135 1.257 . S
O123 Dy120 2.307 1_554 S
O123 C133 1.266 . S
O124 Dy121 2.298 . S
O124 C133 1.236 . S
O125 Dy120 2.395 1_565 S
O125 C142 1.255 . S
O126 Dy120 2.379 1_565 S
O126 C142 1.249 . S
O127 Dy121 2.275 . S
O127 C143 1.254 . S
O128 Dy120 2.339 1_554 S
O128 C143 1.257 . S
O129 Dy121 2.307 1_556 S
O129 C144 1.266 . S
O130 Dy120 2.298 . S
O130 C144 1.236 . S
O131 Dy121 2.395 . S
O131 C151 1.255 . S
O132 Dy121 2.379 . S
O132 C151 1.249 . S
C133 O123 1.266 . S
C133 O124 1.236 . S
O134 Dy120 2.275 1_554 S
O134 C122 1.254 . S
O135 Dy121 2.339 . S
O135 C122 1.257 . S
C136 C139 1.344 . S
C136 C140 1.328 . S
C136 C142 1.516 . S
C137 C138 1.304 . S
C137 C141 1.323 . S
C138 C137 1.304 . S
C138 C139 1.371 . S
C138 H152 0.930 . S
C139 C136 1.344 . S
C139 C138 1.371 . S
C139 H153 0.931 . S
C140 C136 1.328 . S
C140 C141 1.433 . S
C140 H154 0.931 . S
C141 C137 1.323 . S
C141 C140 1.433 . S
C141 H155 0.933 . S
C142 Dy120 2.738 1_565 S
C142 O125 1.255 . S
C142 O126 1.249 . S
C142 C136 1.516 . S
C143 O127 1.254 . S
C143 O128 1.257 . S
C144 O129 1.266 . S
C144 O130 1.236 . S
C145 C148 1.344 . S
C145 C149 1.328 . S
C145 C151 1.516 . S
C146 C147 1.304 . S
C146 C150 1.323 . S
C147 C146 1.304 . S
C147 C148 1.371 . S
C147 H156 0.930 . S
C148 C145 1.344 . S
C148 C147 1.371 . S
C148 H157 0.931 . S
C149 C145 1.328 . S
C149 C150 1.433 . S
C149 H158 0.931 . S
C150 C146 1.323 . S
C150 C149 1.433 . S
C150 H159 0.933 . S
C151 Dy121 2.738 . S
C151 O131 1.255 . S
C151 O132 1.249 . S
C151 C145 1.516 . S
H152 C138 0.930 . S
H153 C139 0.931 . S
H154 C140 0.931 . S
H155 C141 0.933 . S
H156 C147 0.930 . S
H157 C148 0.931 . S
H158 C149 0.931 . S
H159 C150 0.933 . S
Dy160 O163 2.307 . S
Dy160 O165 2.395 1_565 S
Dy160 O166 2.379 . S
Dy160 O168 2.339 . S
Dy160 O170 2.298 . S
Dy160 O174 2.275 . S
Dy160 C182 2.738 . S
Dy161 O164 2.298 . S
Dy161 O167 2.275 . S
Dy161 O169 2.307 . S
Dy161 O171 2.395 . S
Dy161 O172 2.379 . S
Dy161 O175 2.339 . S
Dy161 C191 2.738 . S
C162 O174 1.254 1_545 S
C162 O175 1.257 1_545 S
O163 Dy160 2.307 . S
O163 C173 1.266 . S
O164 Dy161 2.298 . S
O164 C173 1.236 . S
O165 Dy160 2.395 1_545 S
O165 C182 1.255 1_545 S
O166 Dy160 2.379 . S
O166 C182 1.249 . S
O167 Dy161 2.275 . S
O167 C183 1.254 . S
O168 Dy160 2.339 . S
O168 C183 1.257 . S
O169 Dy161 2.307 . S
O169 C184 1.266 . S
O170 Dy160 2.298 . S
O170 C184 1.236 . S
O171 Dy161 2.395 . S
O171 C191 1.255 . S
O172 Dy161 2.379 . S
O172 C191 1.249 . S
C173 O163 1.266 . S
C173 O164 1.236 . S
O174 Dy160 2.275 . S
O174 C162 1.254 1_565 S
O175 Dy161 2.339 . S
O175 C162 1.257 1_565 S
C176 C179 1.344 . S
C176 C180 1.328 1_545 S
C176 C182 1.516 1_545 S
C177 C178 1.304 . S
C177 C181 1.323 . S
C178 C177 1.304 . S
C178 C179 1.371 . S
C178 H192 0.930 . S
C179 C176 1.344 . S
C179 C178 1.371 . S
C179 H193 0.931 . S
C180 C176 1.328 1_565 S
C180 C181 1.433 1_565 S
C180 H194 0.931 . S
C181 C177 1.323 . S
C181 C180 1.433 1_545 S
C181 H195 0.933 . S
C182 Dy160 2.738 . S
C182 O165 1.255 1_565 S
C182 O166 1.249 . S
C182 C176 1.516 1_565 S
C183 O167 1.254 . S
C183 O168 1.257 . S
C184 O169 1.266 . S
C184 O170 1.236 . S
C185 C188 1.344 . S
C185 C189 1.328 . S
C185 C191 1.516 . S
C186 C187 1.304 . S
C186 C190 1.323 . S
C187 C186 1.304 . S
C187 C188 1.371 . S
C187 H196 0.930 . S
C188 C185 1.344 . S
C188 C187 1.371 . S
C188 H197 0.931 . S
C189 C185 1.328 . S
C189 C190 1.433 . S
C189 H198 0.931 . S
C190 C186 1.323 . S
C190 C189 1.433 . S
C190 H199 0.933 . S
C191 Dy161 2.738 . S
C191 O171 1.255 . S
C191 O172 1.249 . S
C191 C185 1.516 . S
H192 C178 0.930 . S
H193 C179 0.931 . S
H194 C180 0.931 . S
H195 C181 0.933 . S
H196 C187 0.930 . S
H197 C188 0.931 . S
H198 C189 0.931 . S
H199 C190 0.933 . S
Dy200 O203 2.307 . S
Dy200 O205 2.395 . S
Dy200 O206 2.379 . S
Dy200 O208 2.339 . S
Dy200 O210 2.298 1_455 S
Dy200 O214 2.275 . S
Dy200 C222 2.738 . S
Dy201 O204 2.298 1_655 S
Dy201 O207 2.275 . S
Dy201 O209 2.307 . S
Dy201 O211 2.395 . S
Dy201 O212 2.379 . S
Dy201 O215 2.339 . S
Dy201 C231 2.738 . S
C202 O214 1.254 . S
C202 O215 1.257 1_455 S
O203 Dy200 2.307 . S
O203 C213 1.266 . S
O204 Dy201 2.298 1_455 S
O204 C213 1.236 . S
O205 Dy200 2.395 . S
O205 C222 1.255 . S
O206 Dy200 2.379 . S
O206 C222 1.249 . S
O207 Dy201 2.275 . S
O207 C223 1.265 . S
O208 Dy200 2.339 . S
O208 C223 1.247 1_455 S
O209 Dy201 2.307 . S
O209 C224 1.266 . S
O210 Dy200 2.298 1_655 S
O210 C224 1.236 . S
O211 Dy201 2.395 . S
O211 C231 1.255 . S
O212 Dy201 2.379 . S
O212 C231 1.249 . S
C213 O203 1.266 . S
C213 O204 1.236 . S
O214 Dy200 2.275 . S
O214 C202 1.254 . S
O215 Dy201 2.339 . S
O215 C202 1.257 1_655 S
C216 C219 1.344 . S
C216 C220 1.328 . S
C216 C222 1.516 . S
C217 C218 1.304 1_565 S
C217 C221 1.323 . S
C218 C217 1.304 1_545 S
C218 C219 1.371 1_545 S
C218 H232 0.930 . S
C219 C216 1.344 . S
C219 C218 1.371 1_565 S
C219 H233 0.931 1_565 S
C220 C216 1.328 . S
C220 C221 1.433 . S
C220 H234 0.931 . S
C221 C217 1.323 . S
C221 C220 1.433 . S
C221 H235 0.933 . S
C222 Dy200 2.738 . S
C222 O205 1.255 . S
C222 O206 1.249 . S
C222 C216 1.516 . S
C223 O207 1.265 . S
C223 O208 1.247 1_655 S
C224 O209 1.266 . S
C224 O210 1.236 . S
C225 C228 1.344 . S
C225 C229 1.328 . S
C225 C231 1.516 . S
C226 C227 1.304 . S
C226 C230 1.323 . S
C227 C226 1.304 . S
C227 C228 1.371 . S
C227 H236 0.930 . S
C228 C225 1.344 . S
C228 C227 1.371 . S
C228 H237 0.931 . S
C229 C225 1.328 . S
C229 C230 1.433 . S
C229 H238 0.931 . S
C230 C226 1.323 . S
C230 C229 1.433 . S
C230 H239 0.933 . S
C231 Dy201 2.738 . S
C231 O211 1.255 . S
C231 O212 1.249 . S
C231 C225 1.516 . S
H232 C218 0.930 . S
H233 C219 0.931 1_545 S
H234 C220 0.931 . S
H235 C221 0.933 . S
H236 C227 0.930 . S
H237 C228 0.931 . S
H238 C229 0.931 . S
H239 C230 0.933 . S
C240 C241 1.369 . S
C240 C242 1.419 1_655 S
C240 H244 0.930 . S
C241 C240 1.369 . S
C241 C250 1.429 1_554 S
C242 C240 1.419 1_455 S
C242 C243 1.363 . S
C242 H245 0.929 . S
C243 C242 1.363 . S
C243 C249 1.426 . S
H244 C240 0.930 . S
H245 C242 0.929 . S
S246 N247 1.613 1_565 S
S246 N248 1.610 . S
N247 S246 1.613 1_545 S
N247 C250 1.350 . S
N248 S246 1.610 . S
N248 C249 1.353 1_666 S
C249 C243 1.426 . S
C249 N248 1.353 1_444 S
C249 C250 1.434 1_454 S
C250 C241 1.429 1_556 S
C250 N247 1.350 . S
C250 C249 1.434 1_656 S
C251 C252 1.369 . S
C251 C253 1.419 1_655 S
C251 H255 0.930 . S
C252 C251 1.369 . S
C252 C261 1.429 . S
C253 C251 1.419 1_455 S
C253 C254 1.363 . S
C253 H256 0.929 . S
C254 C253 1.363 . S
C254 C260 1.428 . S
H255 C251 0.930 . S
H256 C253 0.929 . S
S257 N258 1.613 1_455 S
S257 N259 1.610 1_565 S
N258 S257 1.613 1_655 S
N258 C261 1.350 1_565 S
N259 S257 1.610 1_545 S
N259 C260 1.351 . S
C260 C254 1.428 . S
C260 N259 1.351 . S
C260 C261 1.434 1_455 S
C261 C252 1.429 . S
C261 N258 1.350 1_545 S
C261 C260 1.434 1_655 S
C262 C263 1.369 . S
C262 C264 1.419 . S
C262 H266 0.930 . S
C263 C262 1.369 . S
C263 C272 1.429 . S
C264 C262 1.419 . S
C264 C265 1.363 . S
C264 H267 0.929 . S
C265 C264 1.363 . S
C265 C271 1.428 . S
H266 C262 0.930 . S
H267 C264 0.929 . S
S268 N269 1.613 . S
S268 N270 1.610 . S
N269 S268 1.613 . S
N269 C272 1.350 . S
N270 S268 1.610 . S
N270 C271 1.351 . S
C271 C265 1.428 . S
C271 N270 1.351 . S
C271 C272 1.434 . S
C272 C263 1.429 . S
C272 N269 1.350 . S
C272 C271 1.434 . S
C273 C274 1.369 . S
C273 C275 1.419 . S
C273 H277 0.930 . S
C274 C273 1.369 . S
C274 C283 1.429 . S
C275 C273 1.419 . S
C275 C276 1.363 . S
C275 H278 0.929 . S
C276 C275 1.363 . S
C276 C282 1.428 . S
H277 C273 0.930 . S
H278 C275 0.929 . S
S279 N280 1.613 . S
S279 N281 1.610 . S
N280 S279 1.613 . S
N280 C283 1.350 . S
N281 S279 1.610 . S
N281 C282 1.351 . S
C282 C276 1.428 . S
C282 N281 1.351 . S
C282 C283 1.434 . S
C283 C274 1.429 . S
C283 N280 1.350 . S
C283 C282 1.434 . S
C284 C285 1.369 . S
C284 C286 1.419 1_455 S
C284 H288 0.930 . S
C285 C284 1.369 . S
C285 C294 1.429 . S
C286 C284 1.419 1_655 S
C286 C287 1.363 . S
C286 H289 0.929 . S
C287 C286 1.363 . S
C287 C293 1.428 . S
H288 C284 0.930 . S
H289 C286 0.929 . S
S290 N291 1.613 1_655 S
S290 N292 1.610 . S
N291 S290 1.613 1_455 S
N291 C294 1.350 . S
N292 S290 1.610 . S
N292 C293 1.351 . S
C293 C287 1.428 . S
C293 N292 1.351 . S
C293 C294 1.434 1_655 S
C294 C285 1.429 . S
C294 N291 1.350 . S
C294 C293 1.434 1_455 S
C295 C296 1.369 . S
C295 C297 1.419 . S
C295 H299 0.930 . S
C296 C295 1.369 . S
C296 C305 1.429 . S
C297 C295 1.419 . S
C297 C298 1.363 . S
C297 H300 0.929 . S
C298 C297 1.363 . S
C298 C304 1.428 . S
H299 C295 0.930 . S
H300 C297 0.929 . S
S301 N302 1.613 . S
S301 N303 1.610 . S
N302 S301 1.613 . S
N302 C305 1.350 . S
N303 S301 1.610 . S
N303 C304 1.351 . S
C304 C298 1.428 . S
C304 N303 1.351 . S
C304 C305 1.434 . S
C305 C296 1.429 . S
C305 N302 1.350 . S
C305 C304 1.434 . S
C306 C307 1.369 . S
C306 C308 1.419 . S
C306 H310 0.930 . S
C307 C306 1.369 . S
C307 C316 1.429 . S
C308 C306 1.419 . S
C308 C309 1.363 . S
C308 H311 0.929 . S
C309 C308 1.363 . S
C309 C315 1.428 . S
H310 C306 0.930 . S
H311 C308 0.929 . S
S312 N313 1.613 . S
S312 N314 1.610 . S
N313 S312 1.613 . S
N313 C316 1.350 . S
N314 S312 1.610 . S
N314 C315 1.351 . S
C315 C309 1.428 . S
C315 N314 1.351 . S
C315 C316 1.434 . S
C316 C307 1.429 . S
C316 N313 1.350 . S
C316 C315 1.434 . S
C317 C318 1.369 . S
C317 C319 1.419 . S
C317 H321 0.930 . S
C318 C317 1.369 . S
C318 C327 1.429 . S
C319 C317 1.419 . S
C319 C320 1.363 . S
C319 H322 0.929 . S
C320 C319 1.363 . S
C320 C326 1.428 . S
H321 C317 0.930 . S
H322 C319 0.929 . S
S323 N324 1.613 1_455 S
S323 N325 1.610 . S
N324 S323 1.613 1_655 S
N324 C327 1.350 . S
N325 S323 1.610 . S
N325 C326 1.351 1_455 S
C326 C320 1.428 . S
C326 N325 1.351 1_655 S
C326 C327 1.434 . S
C327 C318 1.429 . S
C327 N324 1.350 . S
C327 C326 1.434 . S
C328 C329 1.369 . S
C328 C330 1.419 . S
C328 H332 0.930 . S
C329 C328 1.369 . S
C329 C338 1.429 . S
C330 C328 1.419 . S
C330 C331 1.363 . S
C330 H333 0.929 . S
C331 C330 1.363 . S
C331 C337 1.428 . S
H332 C328 0.930 . S
H333 C330 0.929 . S
S334 N335 1.613 . S
S334 N336 1.610 . S
N335 S334 1.613 . S
N335 C338 1.350 . S
N336 S334 1.610 . S
N336 C337 1.351 . S
C337 C331 1.428 . S
C337 N336 1.351 . S
C337 C338 1.434 . S
C338 C329 1.429 . S
C338 N335 1.350 . S
C338 C337 1.434 . S
C339 C340 1.369 . S
C339 C341 1.419 . S
C339 H343 0.930 1_545 S
C340 C339 1.369 . S
C340 C349 1.431 1_554 S
C341 C339 1.419 . S
C341 C342 1.363 . S
C341 H344 0.929 . S
C342 C341 1.363 . S
C342 C348 1.428 1_554 S
H343 C339 0.930 1_565 S
H344 C341 0.929 . S
S345 N346 1.613 . S
S345 N347 1.610 . S
N346 S345 1.613 . S
N346 C349 1.350 . S
N347 S345 1.610 . S
N347 C348 1.351 . S
C348 C342 1.428 1_556 S
C348 N347 1.351 . S
C348 C349 1.434 . S
C349 C340 1.431 1_556 S
C349 N346 1.350 . S
C349 C348 1.434 . S
C350 C351 1.369 . S
C350 C352 1.419 . S
C350 H354 0.930 . S
C351 C350 1.369 . S
C351 C360 1.429 . S
C352 C350 1.419 . S
C352 C353 1.363 . S
C352 H355 0.929 . S
C353 C352 1.363 . S
C353 C359 1.428 . S
H354 C350 0.930 . S
H355 C352 0.929 . S
S356 N357 1.613 . S
S356 N358 1.610 . S
N357 S356 1.613 . S
N357 C360 1.350 . S
N358 S356 1.610 . S
N358 C359 1.351 . S
C359 C353 1.428 . S
C359 N358 1.351 . S
C359 C360 1.434 . S
C360 C351 1.429 . S
C360 N357 1.350 . S
C360 C359 1.434 . S
C361 C362 1.369 . S
C361 C363 1.419 . S
C361 H365 0.930 . S
C362 C361 1.369 . S
C362 C371 1.429 . S
C363 C361 1.419 . S
C363 C364 1.363 1_455 S
C363 H366 0.929 . S
C364 C363 1.363 1_655 S
C364 C370 1.428 . S
H365 C361 0.930 . S
H366 C363 0.929 . S
S367 N368 1.613 1_655 S
S367 N369 1.610 . S
N368 S367 1.613 1_455 S
N368 C371 1.350 . S
N369 S367 1.610 . S
N369 C370 1.351 . S
C370 C364 1.428 . S
C370 N369 1.351 . S
C370 C371 1.434 1_655 S
C371 C362 1.429 . S
C371 N368 1.350 . S
C371 C370 1.434 1_455 S
C372 C373 1.369 . S
C372 C374 1.419 . S
C372 H376 0.930 . S
C373 C372 1.369 . S
C373 C382 1.429 . S
C374 C372 1.419 . S
C374 C375 1.363 . S
C374 H377 0.929 . S
C375 C374 1.363 . S
C375 C381 1.428 . S
H376 C372 0.930 . S
H377 C374 0.929 . S
S378 N379 1.613 . S
S378 N380 1.610 . S
N379 S378 1.613 . S
N379 C382 1.350 . S
N380 S378 1.610 . S
N380 C381 1.351 . S
C381 C375 1.428 . S
C381 N380 1.351 . S
C381 C382 1.434 . S
C382 C373 1.429 . S
C382 N379 1.350 . S
C382 C381 1.434 . S
C383 C384 1.369 . S
C383 C385 1.419 . S
C383 H387 0.930 . S
C384 C383 1.369 . S
C384 C393 1.429 . S
C385 C383 1.419 . S
C385 C386 1.363 . S
C385 H388 0.929 . S
C386 C385 1.363 . S
C386 C392 1.428 . S
H387 C383 0.930 . S
H388 C385 0.929 . S
S389 N390 1.613 . S
S389 N391 1.610 . S
N390 S389 1.613 . S
N390 C393 1.350 . S
N391 S389 1.610 . S
N391 C392 1.351 . S
C392 C386 1.428 . S
C392 N391 1.351 . S
C392 C393 1.434 . S
C393 C384 1.429 . S
C393 N390 1.350 . S
C393 C392 1.434 . S
C394 C395 1.369 . S
C394 C396 1.419 . S
C394 H398 0.930 1_655 S
C395 C394 1.369 . S
C395 C404 1.429 . S
C396 C394 1.419 . S
C396 C397 1.363 . S
C396 H399 0.929 . S
C397 C396 1.363 . S
C397 C403 1.428 . S
H398 C394 0.930 1_455 S
H399 C396 0.929 . S
S400 N401 1.613 . S
S400 N402 1.610 . S
N401 S400 1.613 . S
N401 C404 1.350 . S
N402 S400 1.610 . S
N402 C403 1.351 . S
C403 C397 1.428 . S
C403 N402 1.351 . S
C403 C404 1.434 . S
C404 C395 1.429 . S
C404 N401 1.350 . S
C404 C403 1.434 . S
C405 C406 1.369 . S
C405 C407 1.419 . S
C405 H409 0.930 . S
C406 C405 1.369 . S
C406 C415 1.429 1_565 S
C407 C405 1.419 . S
C407 C408 1.363 . S
C407 H410 0.929 . S
C408 C407 1.363 . S
C408 C414 1.428 1_565 S
H409 C405 0.930 . S
H410 C407 0.929 . S
S411 N412 1.613 . S
S411 N413 1.610 . S
N412 S411 1.613 . S
N412 C415 1.350 . S
N413 S411 1.610 . S
N413 C414 1.351 . S
C414 C408 1.428 1_545 S
C414 N413 1.351 . S
C414 C415 1.434 . S
C415 C406 1.429 1_545 S
C415 N412 1.350 . S
C415 C414 1.434 . S
C416 C417 1.369 . S
C416 C418 1.419 . S
C416 H420 0.930 . S
C417 C416 1.369 . S
C417 C426 1.429 . S
C418 C416 1.419 . S
C418 C419 1.363 . S
C418 H421 0.929 . S
C419 C418 1.363 . S
C419 C425 1.428 . S
H420 C416 0.930 . S
H421 C418 0.929 . S
S422 N423 1.613 . S
S422 N424 1.610 . S
N423 S422 1.613 . S
N423 C426 1.350 . S
N424 S422 1.610 . S
N424 C425 1.351 . S
C425 C419 1.428 . S
C425 N424 1.351 . S
C425 C426 1.434 . S
C426 C417 1.429 . S
C426 N423 1.350 . S
C426 C425 1.434 . S
C427 C428 1.369 . S
C427 C429 1.419 . S
C427 H431 0.930 . S
C428 C427 1.369 . S
C428 C437 1.429 . S
C429 C427 1.419 . S
C429 C430 1.363 . S
C429 H432 0.929 . S
C430 C429 1.363 . S
C430 C436 1.428 . S
H431 C427 0.930 . S
H432 C429 0.929 . S
S433 N434 1.613 . S
S433 N435 1.610 . S
N434 S433 1.613 . S
N434 C437 1.350 1_545 S
N435 S433 1.610 . S
N435 C436 1.351 1_545 S
C436 C430 1.428 . S
C436 N435 1.351 1_565 S
C436 C437 1.434 . S
C437 C428 1.429 . S
C437 N434 1.350 1_565 S
C437 C436 1.434 . S
C241 C122 1.382 . S
C243 C2 1.302 . S
C252 C162 1.296 . S
C254 C42 1.379 . S
C263 C202 1.374 1_545 S
C265 C82 1.305 . S
C274 C26 1.295 . S
C276 C97 1.082 . S
C285 C57 1.171 . S
C287 C146 1.077 . S
C296 C106 1.287 . S
C298 C177 1.080 . S
C307 C137 1.170 . S
C309 C226 1.082 . S
C318 C186 1.286 . S
C320 C17 1.080 1_655 S
C329 C217 1.170 1_545 S
C331 C66 1.078 . S
C340 C23 0.879 1_545 S
C342 C143 0.795 . S
C351 C63 0.805 . S
C353 C183 0.865 . S
C362 C103 0.865 . S
C364 C223 0.804 . S
C373 C24 4.290 . S
C375 C64 4.283 . S
C384 C53 4.163 . S
C386 C93 4.129 . S
C395 C104 4.291 1_655 S
C397 C144 4.282 . S
C406 C133 4.160 1_565 S
C408 C173 4.128 . S
C417 C184 4.290 . S
C419 C224 4.285 . S
C428 C213 4.161 . S
C430 C13 4.127 . S
