# Generated by pormake.
# Topology snk, (6)-cn, num edge types: 1
# Building blocks:
#     Node 0, Type 0, BuildingBlock: BETDEL_clean_sbu_0, # of connection points: 6
#     Node 1, Type 0, BuildingBlock: BETDEL_clean_sbu_0, # of connection points: 6
#     Node 2, Type 0, BuildingBlock: BETDEL_clean_sbu_0, # of connection points: 6
#     Node 3, Type 0, BuildingBlock: BETDEL_clean_sbu_0, # of connection points: 6
#     Node 4, Type 0, BuildingBlock: BETDEL_clean_sbu_0, # of connection points: 6
#     Node 5, Type 0, BuildingBlock: BETDEL_clean_sbu_0, # of connection points: 6
#     Node 6, Type 0, BuildingBlock: BETDEL_clean_sbu_0, # of connection points: 6
#     Node 7, Type 0, BuildingBlock: BETDEL_clean_sbu_0, # of connection points: 6
#     Edge 8, Type (0, 0), BuildingBlock: XIVTED_clean_linker_0, # of connection points: 2
#     Edge 9, Type (0, 0), BuildingBlock: XIVTED_clean_linker_0, # of connection points: 2
#     Edge 10, Type (0, 0), BuildingBlock: XIVTED_clean_linker_0, # of connection points: 2
#     Edge 11, Type (0, 0), BuildingBlock: XIVTED_clean_linker_0, # of connection points: 2
#     Edge 12, Type (0, 0), BuildingBlock: XIVTED_clean_linker_0, # of connection points: 2
#     Edge 13, Type (0, 0), BuildingBlock: XIVTED_clean_linker_0, # of connection points: 2
#     Edge 14, Type (0, 0), BuildingBlock: XIVTED_clean_linker_0, # of connection points: 2
#     Edge 15, Type (0, 0), BuildingBlock: XIVTED_clean_linker_0, # of connection points: 2
#     Edge 16, Type (0, 0), BuildingBlock: XIVTED_clean_linker_0, # of connection points: 2
#     Edge 17, Type (0, 0), BuildingBlock: XIVTED_clean_linker_0, # of connection points: 2
#     Edge 18, Type (0, 0), BuildingBlock: XIVTED_clean_linker_0, # of connection points: 2
#     Edge 19, Type (0, 0), BuildingBlock: XIVTED_clean_linker_0, # of connection points: 2
#     Edge 20, Type (0, 0), BuildingBlock: XIVTED_clean_linker_0, # of connection points: 2
#     Edge 21, Type (0, 0), BuildingBlock: XIVTED_clean_linker_0, # of connection points: 2
#     Edge 22, Type (0, 0), BuildingBlock: XIVTED_clean_linker_0, # of connection points: 2
#     Edge 23, Type (0, 0), BuildingBlock: XIVTED_clean_linker_0, # of connection points: 2
#     Edge 24, Type (0, 0), BuildingBlock: XIVTED_clean_linker_0, # of connection points: 2
#     Edge 25, Type (0, 0), BuildingBlock: XIVTED_clean_linker_0, # of connection points: 2
#     Edge 26, Type (0, 0), BuildingBlock: XIVTED_clean_linker_0, # of connection points: 2
#     Edge 27, Type (0, 0), BuildingBlock: XIVTED_clean_linker_0, # of connection points: 2
#     Edge 28, Type (0, 0), BuildingBlock: XIVTED_clean_linker_0, # of connection points: 2
#     Edge 29, Type (0, 0), BuildingBlock: XIVTED_clean_linker_0, # of connection points: 2
#     Edge 30, Type (0, 0), BuildingBlock: XIVTED_clean_linker_0, # of connection points: 2
#     Edge 31, Type (0, 0), BuildingBlock: XIVTED_clean_linker_0, # of connection points: 2
# Relax obj value: 0.058
# Max RMSD: 0.101
# Mean RMSD: 0.095
data_MOF--net-snk--node1-BETDEL_clean_sbu_0--edge1-XIVTED_clean_linker_0
_symmetry_space_group_name_H-M    P1
_symmetry_Int_Tables_number       1
_symmetry_cell_setting            triclinic
loop_
_symmetry_equiv_pos_as_xyz
'x, y, z'
_cell_length_a     40.522863
_cell_length_b     40.578797
_cell_length_c     18.125951
_cell_angle_alpha  85.570478
_cell_angle_beta   94.368436
_cell_angle_gamma 90.248413
loop_
_atom_site_label
_atom_site_type_symbol
_atom_site_fract_x
_atom_site_fract_y
_atom_site_fract_z
_atom_type_partial_charge
Dy0 Dy 0.99137 0.9886 0.4349 0.0
C1 C 0.0109 0.00998 0.73965 0.0
C2 C 0.98492 0.98587 0.28458 0.0
Dy3 Dy 0.00439 0.00717 0.58936 0.0
O4 O 0.00368 0.96689 0.33046 0.0
O5 O 0.96879 0.00611 0.32087 0.0
O6 O 0.00852 0.93741 0.47101 0.0
O7 O 0.03215 0.97757 0.52025 0.0
C8 C 0.03085 0.94644 0.52044 0.0
C9 C 0.96497 0.04936 0.50355 0.0
O10 O 0.04826 0.03275 0.54473 0.0
O11 O 0.02588 0.03195 0.42364 0.0
O12 O 0.99208 0.02891 0.69377 0.0
O13 O 0.02704 0.98975 0.70337 0.0
O14 O 0.98738 0.05837 0.55285 0.0
O15 O 0.96357 0.01823 0.50412 0.0
O16 O 0.9475 0.96303 0.47937 0.0
O17 O 0.96982 0.96382 0.60052 0.0
C18 C 0.04793 0.04301 0.4736 0.0
C19 C 0.94779 0.95277 0.55047 0.0
Dy20 Dy 0.23588 0.73921 0.84509 0.0
C21 C 0.25673 0.75965 0.54011 0.0
C22 C 0.23343 0.73248 0.99556 0.0
Dy23 Dy 0.25416 0.75315 0.69052 0.0
O24 O 0.21555 0.75256 0.95031 0.0
O25 O 0.25236 0.71516 0.95852 0.0
O26 O 0.18453 0.7564 0.81009 0.0
O27 O 0.2246 0.78033 0.76083 0.0
C28 C 0.19345 0.779 0.76108 0.0
C29 C 0.29683 0.7137 0.77481 0.0
O30 O 0.28033 0.79643 0.73605 0.0
O31 O 0.27956 0.7733 0.85661 0.0
O32 O 0.2741 0.73917 0.58543 0.0
O33 O 0.23824 0.77749 0.57705 0.0
O34 O 0.30554 0.7364 0.72583 0.0
O35 O 0.26566 0.71202 0.77481 0.0
O36 O 0.20984 0.69589 0.79947 0.0
O37 O 0.21027 0.71935 0.67914 0.0
C38 C 0.29067 0.79558 0.80718 0.0
C39 C 0.19933 0.69691 0.72843 0.0
Dy40 Dy 0.50594 0.98358 0.08979 0.0
C41 C 0.48072 0.01027 0.77487 0.0
C42 C 0.51527 0.98234 0.2412 0.0
Dy43 Dy 0.48992 0.0088 0.92633 0.0
O44 O 0.50304 0.95834 0.20435 0.0
O45 O 0.52374 0.00644 0.19512 0.0
O46 O 0.48781 0.93325 0.06471 0.0
O47 O 0.46614 0.97523 1.00499 0.0
C48 C 0.46716 0.94408 0.00987 0.0
C49 C 0.52853 0.04825 1.00686 0.0
O50 O 0.44512 0.02936 0.97106 0.0
O51 O 0.4662 0.02164 0.09416 0.0
O52 O 0.49325 0.03408 0.81195 0.0
O53 O 0.47189 0.98626 0.82075 0.0
O54 O 0.50787 0.05917 0.9521 0.0
O55 O 0.52963 0.01712 0.01109 0.0
O56 O 0.55073 0.96303 0.04491 0.0
O57 O 0.52955 0.97065 0.92188 0.0
C58 C 0.44391 0.03426 0.0424 0.0
C59 C 0.55189 0.95808 0.97358 0.0
Dy60 Dy 0.23604 0.25468 0.1784 0.0
C61 C 0.26318 0.22945 0.49336 0.0
C62 C 0.2346 0.2638 0.02689 0.0
Dy63 Dy 0.26152 0.23845 0.34182 0.0
O64 O 0.21088 0.25102 0.06405 0.0
O65 O 0.2585 0.27292 0.07271 0.0
O66 O 0.18538 0.2378 0.20446 0.0
O67 O 0.22713 0.2153 0.26376 0.0
C68 C 0.19595 0.21703 0.25933 0.0
C69 C 0.30147 0.27602 0.26023 0.0
O70 O 0.28141 0.19342 0.29712 0.0
O71 O 0.27351 0.21439 0.17392 0.0
O72 O 0.28674 0.24243 0.45599 0.0
O73 O 0.23934 0.22005 0.44773 0.0
O74 O 0.31221 0.25526 0.31496 0.0
O75 O 0.27033 0.27774 0.25653 0.0
O76 O 0.21612 0.29969 0.22336 0.0
O77 O 0.22402 0.27863 0.34649 0.0
C78 C 0.28603 0.19204 0.22568 0.0
C79 C 0.21154 0.30103 0.29485 0.0
Dy80 Dy 0.73825 0.2401 0.33477 0.0
C81 C 0.75948 0.26119 0.02946 0.0
C82 C 0.73602 0.2325 0.48535 0.0
Dy83 Dy 0.75698 0.25393 0.17999 0.0
O84 O 0.71506 0.24919 0.43977 0.0
O85 O 0.75796 0.21897 0.44855 0.0
O86 O 0.68727 0.2583 0.29965 0.0
O87 O 0.72778 0.28141 0.25049 0.0
C88 C 0.69661 0.28057 0.25043 0.0
C89 C 0.7986 0.2135 0.26484 0.0
O90 O 0.7823 0.29765 0.22546 0.0
O91 O 0.78138 0.27495 0.34639 0.0
O92 O 0.78008 0.24417 0.07528 0.0
O93 O 0.73778 0.27523 0.066 0.0
O94 O 0.80796 0.23593 0.21601 0.0
O95 O 0.76741 0.21255 0.26419 0.0
O96 O 0.71257 0.1966 0.28875 0.0
O97 O 0.71352 0.21965 0.16813 0.0
C98 C 0.79251 0.29711 0.29664 0.0
C99 C 0.70225 0.19748 0.21758 0.0
Dy100 Dy 0.73543 0.75464 0.67402 0.0
C101 C 0.7614 0.72897 0.98879 0.0
C102 C 0.73432 0.764 0.52258 0.0
Dy103 Dy 0.76004 0.73818 0.83731 0.0
O104 O 0.71016 0.75203 0.55947 0.0
O105 O 0.75854 0.7722 0.56865 0.0
O106 O 0.6847 0.73736 0.69837 0.0
O107 O 0.72623 0.71486 0.75836 0.0
C108 C 0.69505 0.71641 0.75304 0.0
C109 C 0.80032 0.77639 0.75774 0.0
O110 O 0.78018 0.69321 0.79274 0.0
O111 O 0.77309 0.71453 0.66975 0.0
O112 O 0.78539 0.74115 0.95168 0.0
O113 O 0.73722 0.72047 0.94293 0.0
O114 O 0.81079 0.75541 0.81226 0.0
O115 O 0.76916 0.77793 0.75305 0.0
O116 O 0.71522 0.79956 0.71876 0.0
O117 O 0.72225 0.77813 0.84166 0.0
C118 C 0.78529 0.69203 0.72151 0.0
C119 C 0.71005 0.80066 0.78999 0.0
Dy120 Dy 0.49069 0.48553 0.92029 0.0
C121 C 0.51077 0.50588 0.22534 0.0
C122 C 0.48377 0.48332 0.76987 0.0
Dy123 Dy 0.50421 0.50345 0.07499 0.0
O124 O 0.50341 0.46491 0.81499 0.0
O125 O 0.46701 0.50271 0.807 0.0
O126 O 0.50819 0.4343 0.95476 0.0
O127 O 0.5318 0.47432 1.00461 0.0
C128 C 0.53065 0.44322 1.00403 0.0
C129 C 0.46425 0.54578 0.9909 0.0
O130 O 0.5477 0.52957 0.0302 0.0
O131 O 0.52493 0.52917 0.90933 0.0
O132 O 0.49073 0.52376 0.18003 0.0
O133 O 0.52811 0.48692 0.18845 0.0
O134 O 0.48692 0.55465 0.03978 0.0
O135 O 0.46298 0.51466 0.99076 0.0
O136 O 0.44737 0.45917 0.9656 0.0
O137 O 0.4706 0.45942 0.08611 0.0
C138 C 0.54714 0.54008 0.9592 0.0
C139 C 0.44832 0.44846 0.03654 0.0
Dy140 Dy 0.00624 0.4846 0.58623 0.0
C141 C 0.98068 0.5113 0.27125 0.0
C142 C 0.01554 0.48338 0.73767 0.0
Dy143 Dy 0.98979 0.50977 0.42274 0.0
O144 O 0.00328 0.45939 0.7008 0.0
O145 O 0.02406 0.50746 0.69159 0.0
O146 O 0.98908 0.43399 0.56108 0.0
O147 O 0.96663 0.47563 0.50142 0.0
C148 C 0.96825 0.44449 0.50629 0.0
C149 C 0.0276 0.54976 0.50353 0.0
O150 O 0.94471 0.52961 0.46759 0.0
O151 O 0.96585 0.522 0.59069 0.0
O152 O 0.99329 0.53505 0.30842 0.0
O153 O 0.9717 0.48733 0.31706 0.0
O154 O 0.00676 0.56043 0.44888 0.0
O155 O 0.02927 0.51866 0.50755 0.0
O156 O 0.05126 0.46467 0.54103 0.0
O157 O 0.02996 0.47227 0.41807 0.0
C158 C 0.9434 0.53437 0.53897 0.0
C159 C 0.05248 0.45991 0.46961 0.0
H160 H 0.10784 0.0615 0.54098 0.0
H161 H 0.12905 0.21315 0.24039 0.0
H162 H 0.03983 0.08446 0.34894 0.0
H163 H 0.21348 0.16766 0.36743 0.0
H164 H 0.09325 0.17192 0.29843 0.0
H165 H 0.14467 0.1057 0.4948 0.0
C166 C 0.10066 0.07582 0.48938 0.0
C167 C 0.07089 0.06917 0.44842 0.0
C168 C 0.1196 0.17101 0.3139 0.0
C169 C 0.11229 0.1197 0.39647 0.0
C170 C 0.14002 0.19458 0.28095 0.0
C171 C 0.17425 0.1936 0.29878 0.0
C172 C 0.13342 0.14638 0.36557 0.0
C173 C 0.18716 0.16914 0.35211 0.0
C174 C 0.12165 0.10089 0.4631 0.0
C175 C 0.0627 0.08844 0.38197 0.0
N176 N 0.16669 0.14634 0.3837 0.0
N177 N 0.08318 0.11286 0.35835 0.0
H178 H 0.09228 0.95995 0.58641 0.0
H179 H 0.1271 0.77282 0.73829 0.0
H180 H 0.02457 0.88018 0.54327 0.0
H181 H 0.20687 0.84102 0.69842 0.0
H182 H 0.0876 0.8144 0.6819 0.0
H183 H 0.13324 0.91921 0.6441 0.0
C184 C 0.08601 0.93392 0.58964 0.0
C185 C 0.05517 0.92325 0.55998 0.0
C186 C 0.11374 0.82028 0.68518 0.0
C187 C 0.10142 0.87696 0.6256 0.0
C188 C 0.13626 0.79659 0.71737 0.0
C189 C 0.17019 0.80359 0.72282 0.0
C190 C 0.12516 0.85143 0.65924 0.0
C191 C 0.18084 0.83471 0.69481 0.0
C192 C 0.10938 0.91077 0.62195 0.0
C193 C 0.04817 0.88935 0.56519 0.0
N194 N 0.15831 0.85771 0.66464 0.0
N195 N 0.07106 0.86743 0.59757 0.0
H196 H 0.33121 0.78713 0.93331 0.0
H197 H 0.41845 0.96243 0.90093 0.0
H198 H 0.31071 0.85493 0.73984 0.0
H199 H 0.46048 0.87758 0.03262 0.0
H200 H 0.37601 0.92639 0.84536 0.0
H201 H 0.37526 0.82325 0.97674 0.0
C202 C 0.33586 0.80976 0.89999 0.0
C203 C 0.31713 0.8181 0.83291 0.0
C204 C 0.39475 0.91574 0.88592 0.0
C205 C 0.36783 0.8597 0.88266 0.0
C206 C 0.4189 0.93621 0.91758 0.0
C207 C 0.44285 0.9229 0.9716 0.0
C208 C 0.3944 0.88196 0.90955 0.0
C209 C 0.44236 0.88887 0.99146 0.0
C210 C 0.36124 0.83027 0.92466 0.0
C211 C 0.32461 0.8476 0.79184 0.0
N212 N 0.41833 0.86965 0.96098 0.0
N213 N 0.34931 0.86758 0.8177 0.0
H214 H 0.39658 0.07184 0.95742 0.0
H215 H 0.32388 0.14497 0.31062 0.0
H216 H 0.43021 0.04247 0.18481 0.0
H217 H 0.29364 0.17791 0.08326 0.0
H218 H 0.35949 0.10348 0.26553 0.0
H219 H 0.35499 0.10739 1.00248 0.0
C220 C 0.3951 0.07268 0.01665 0.0
C221 C 0.41712 0.05437 0.06725 0.0
C222 C 0.34489 0.11972 0.22561 0.0
C223 C 0.36975 0.09493 0.11923 0.0
C224 C 0.32452 0.14334 0.25138 0.0
C225 C 0.30597 0.16515 0.20079 0.0
C226 C 0.34664 0.11792 0.14877 0.0
C227 C 0.30773 0.16187 0.12451 0.0
C228 C 0.37141 0.093 0.04241 0.0
C229 C 0.41401 0.05637 0.14354 0.0
N230 N 0.32781 0.13886 0.10091 0.0
N231 N 0.39093 0.07637 0.16711 0.0
H232 H 0.8886 0.93355 0.48118 0.0
H233 H 0.86703 0.78151 0.78019 0.0
H234 H 0.9551 0.91194 0.67641 0.0
H235 H 0.78291 0.82572 0.64952 0.0
H236 H 0.90265 0.8236 0.72455 0.0
H237 H 0.85193 0.88898 0.52608 0.0
C238 C 0.89547 0.91947 0.53327 0.0
C239 C 0.9248 0.92658 0.57539 0.0
C240 C 0.87641 0.82405 0.7078 0.0
C241 C 0.88357 0.8756 0.62591 0.0
C242 C 0.8561 0.79999 0.73935 0.0
C243 C 0.82199 0.80036 0.71979 0.0
C244 C 0.86261 0.84855 0.65574 0.0
C245 C 0.80913 0.82473 0.66619 0.0
C246 C 0.87457 0.89418 0.55881 0.0
C247 C 0.93259 0.9076 0.64243 0.0
N248 N 0.82949 0.84799 0.63593 0.0
N249 N 0.91222 0.88293 0.66532 0.0
H250 H 0.9718 0.11539 0.47894 0.0
H251 H 0.78442 0.15196 0.32959 0.0
H252 H 0.90258 0.03626 0.4417 0.0
H253 H 0.86495 0.21897 0.28753 0.0
H254 H 0.82486 0.11044 0.38626 0.0
H255 H 0.93045 0.15509 0.42281 0.0
C256 C 0.94785 0.1064 0.45858 0.0
C257 C 0.9405 0.0726 0.46478 0.0
C258 C 0.83353 0.13427 0.36454 0.0
C259 C 0.89287 0.11791 0.40142 0.0
C260 C 0.81055 0.15795 0.33284 0.0
C261 C 0.82152 0.18877 0.30382 0.0
C262 C 0.86746 0.14188 0.36818 0.0
C263 C 0.85553 0.1954 0.30898 0.0
C264 C 0.92427 0.12905 0.42653 0.0
C265 C 0.90915 0.06219 0.43748 0.0
N266 N 0.87726 0.17222 0.34072 0.0
N267 N 0.88626 0.08486 0.4074 0.0
H268 H 0.66094 0.20685 0.09311 0.0
H269 H 0.57743 0.02968 0.1153 0.0
H270 H 0.68321 0.13722 0.28254 0.0
H271 H 0.53383 0.11496 0.98812 0.0
H272 H 0.61892 0.06592 0.17358 0.0
H273 H 0.6174 0.17054 0.0482 0.0
C274 C 0.65677 0.18378 0.12524 0.0
C275 C 0.67589 0.17495 0.19154 0.0
C276 C 0.60004 0.07661 0.13343 0.0
C277 C 0.62577 0.13309 0.14006 0.0
C278 C 0.57644 0.05602 0.1002 0.0
C279 C 0.55234 0.06942 0.04662 0.0
C280 C 0.59969 0.11061 0.11181 0.0
C281 C 0.55211 0.10362 0.02882 0.0
C282 C 0.63167 0.16314 0.09974 0.0
C283 C 0.66899 0.14491 0.23115 0.0
N284 N 0.57561 0.12296 0.06079 0.0
N285 N 0.64459 0.1248 0.20442 0.0
H286 H 0.6723 0.84784 0.70501 0.0
H287 H 0.59932 0.92057 0.05841 0.0
H288 H 0.70218 0.81457 0.93236 0.0
H289 H 0.56553 0.94992 0.8311 0.0
H290 H 0.64096 0.88513 0.01321 0.0
H291 H 0.63659 0.88926 0.75014 0.0
C292 C 0.67156 0.84938 0.76424 0.0
C293 C 0.69003 0.82749 0.81482 0.0
C294 C 0.62449 0.89949 0.97332 0.0
C295 C 0.64927 0.87465 0.86689 0.0
C296 C 0.60077 0.91975 0.99917 0.0
C297 C 0.57869 0.93802 0.94864 0.0
C298 C 0.62613 0.89759 0.89648 0.0
C299 C 0.58177 0.93604 0.87233 0.0
C300 C 0.65114 0.87296 0.79005 0.0
C301 C 0.68814 0.83066 0.89111 0.0
N302 N 0.60489 0.9161 0.84867 0.0
N303 N 0.66803 0.85364 0.91473 0.0
H304 H 0.6063 0.55929 0.02852 0.0
H305 H 0.6284 0.71106 0.72906 0.0
H306 H 0.53989 0.58092 0.83316 0.0
H307 H 0.71214 0.66722 0.86181 0.0
H308 H 0.59265 0.66896 0.78415 0.0
H309 H 0.64303 0.60378 0.98367 0.0
C310 C 0.59945 0.57336 0.97642 0.0
C311 C 0.57012 0.56629 0.93428 0.0
C312 C 0.61883 0.66858 0.80147 0.0
C313 C 0.61145 0.61718 0.88375 0.0
C314 C 0.63922 0.69266 0.77024 0.0
C315 C 0.67327 0.69242 0.79057 0.0
C316 C 0.63248 0.6442 0.854 0.0
C317 C 0.68597 0.66813 0.84454 0.0
C318 C 0.62039 0.59861 0.9509 0.0
C319 C 0.56238 0.58526 0.86719 0.0
N320 N 0.66554 0.64486 0.8745 0.0
N321 N 0.5828 0.60988 0.8443 0.0
H322 H 0.71078 0.34168 0.18392 0.0
H323 H 0.52428 0.377 0.02702 0.0
H324 H 0.63027 0.27479 0.22696 0.0
H325 H 0.59245 0.4566 0.06822 0.0
H326 H 0.56554 0.33754 0.08501 0.0
H327 H 0.67042 0.38271 0.12481 0.0
C328 C 0.68467 0.33561 0.18039 0.0
C329 C 0.67368 0.30498 0.21039 0.0
C330 C 0.57148 0.36363 0.08166 0.0
C331 C 0.62784 0.35128 0.14315 0.0
C332 C 0.54798 0.38613 0.04855 0.0
C333 C 0.55507 0.42 0.04303 0.0
C334 C 0.60254 0.37501 0.10847 0.0
C335 C 0.58608 0.43062 0.07186 0.0
C336 C 0.66174 0.35902 0.14728 0.0
C337 C 0.63969 0.29823 0.20479 0.0
N338 N 0.60891 0.4081 0.10294 0.0
N339 N 0.61799 0.32113 0.1716 0.0
H340 H 0.96314 0.37785 0.52865 0.0
H341 H 0.81184 0.35633 0.22781 0.0
H342 H 0.91906 0.4619 0.39769 0.0
H343 H 0.83286 0.28987 0.42333 0.0
H344 H 0.85623 0.39299 0.27343 0.0
H345 H 0.92115 0.34228 0.47261 0.0
C346 C 0.94472 0.38878 0.48765 0.0
C347 C 0.94437 0.42284 0.46809 0.0
C348 C 0.85094 0.37036 0.30606 0.0
C349 C 0.8963 0.3823 0.40359 0.0
C350 C 0.82575 0.34947 0.28011 0.0
C351 C 0.81854 0.32014 0.32207 0.0
C352 C 0.86932 0.36136 0.37343 0.0
C353 C 0.83729 0.31237 0.38943 0.0
C354 C 0.92071 0.3685 0.45587 0.0
C355 C 0.92007 0.43571 0.41431 0.0
N356 N 0.86187 0.33273 0.41271 0.0
N357 N 0.89686 0.41538 0.38382 0.0
H358 H 0.82279 0.64474 0.80674 0.0
H359 H 0.89599 0.57178 0.45395 0.0
H360 H 0.79327 0.67804 0.57921 0.0
H361 H 0.9294 0.54224 0.68139 0.0
H362 H 0.85429 0.60721 0.49889 0.0
H363 H 0.85836 0.60313 0.7619 0.0
C364 C 0.82358 0.64317 0.74752 0.0
C365 C 0.80525 0.66512 0.69681 0.0
C366 C 0.87068 0.5928 0.53887 0.0
C367 C 0.84584 0.61773 0.64509 0.0
C368 C 0.89443 0.57253 0.51318 0.0
C369 C 0.91643 0.55423 0.56382 0.0
C370 C 0.86894 0.59469 0.61568 0.0
C371 C 0.91322 0.55614 0.64009 0.0
C372 C 0.84392 0.61947 0.72189 0.0
C373 C 0.8072 0.6619 0.62056 0.0
N374 N 0.89008 0.57611 0.66361 0.0
N375 N 0.82723 0.63881 0.59711 0.0
H376 H 0.36853 0.27869 0.27432 0.0
H377 H 0.38732 0.43087 0.97304 0.0
H378 H 0.28338 0.3255 0.15288 0.0
H379 H 0.45849 0.40543 0.15794 0.0
H380 H 0.35081 0.38674 0.02096 0.0
H381 H 0.4042 0.31907 0.213 0.0
C382 C 0.35737 0.29738 0.23432 0.0
C383 C 0.323 0.29898 0.21901 0.0
C384 C 0.37447 0.39095 0.05067 0.0
C385 C 0.36365 0.34524 0.14849 0.0
C386 C 0.39528 0.41597 0.02337 0.0
C387 C 0.42579 0.42198 0.06199 0.0
C388 C 0.38474 0.37156 0.11594 0.0
C389 C 0.435 0.40199 0.12686 0.0
C390 C 0.37772 0.32046 0.19946 0.0
C391 C 0.30983 0.32355 0.16627 0.0
N392 N 0.41464 0.37767 0.15154 0.0
N393 N 0.33021 0.34588 0.13287 0.0
H394 H 0.40189 0.53216 0.92941 0.0
H395 H 0.36278 0.72112 0.79941 0.0
H396 H 0.46933 0.6122 0.97211 0.0
H397 H 0.28458 0.65024 0.83162 0.0
H398 H 0.40323 0.67947 0.8501 0.0
H399 H 0.35949 0.57296 0.87906 0.0
C400 C 0.4078 0.55826 0.92756 0.0
C401 C 0.43901 0.56897 0.95496 0.0
C402 C 0.37724 0.67297 0.84654 0.0
C403 C 0.39108 0.61535 0.89793 0.0
C404 C 0.35416 0.69673 0.81763 0.0
C405 C 0.32041 0.68901 0.81146 0.0
C406 C 0.36659 0.64101 0.86857 0.0
C407 C 0.31047 0.65711 0.83592 0.0
C408 C 0.38361 0.58145 0.8995 0.0
C409 C 0.44549 0.60296 0.95179 0.0
N410 N 0.33356 0.63405 0.86294 0.0
N411 N 0.4218 0.6249 0.92365 0.0
H412 H 0.18171 0.63593 0.79178 0.0
H413 H 0.03034 0.61672 0.48865 0.0
H414 H 0.15672 0.70685 0.60619 0.0
H415 H 0.07697 0.53181 0.61129 0.0
H416 H 0.07062 0.65242 0.55003 0.0
H417 H 0.13784 0.59931 0.74329 0.0
C418 C 0.16697 0.64381 0.74118 0.0
C419 C 0.17302 0.6743 0.70256 0.0
C420 C 0.07199 0.62598 0.5638 0.0
C421 C 0.12289 0.63312 0.64795 0.0
C422 C 0.04898 0.60562 0.52892 0.0
C423 C 0.05055 0.57131 0.54458 0.0
C424 C 0.09668 0.61199 0.61517 0.0
C425 C 0.07504 0.55821 0.59763 0.0
C426 C 0.1421 0.62294 0.71355 0.0
C427 C 0.15323 0.6834 0.63732 0.0
N428 N 0.09731 0.57861 0.63107 0.0
N429 N 0.12905 0.66299 0.61232 0.0
H430 H 0.20531 0.31574 0.43741 0.0
H431 H 0.06686 0.45333 0.32695 0.0
H432 H 0.17273 0.3477 0.2108 0.0
H433 H 0.0995 0.42147 0.55359 0.0
H434 H 0.10836 0.41794 0.28386 0.0
H435 H 0.16986 0.3572 0.48045 0.0
C436 C 0.19079 0.33157 0.39645 0.0
C437 C 0.1918 0.32797 0.32012 0.0
C438 C 0.10663 0.41877 0.34302 0.0
C439 C 0.15095 0.37569 0.36967 0.0
C440 C 0.08285 0.43898 0.36791 0.0
C441 C 0.07943 0.44018 0.44427 0.0
C442 C 0.1272 0.39939 0.39465 0.0
C443 C 0.10116 0.42125 0.49431 0.0
C444 C 0.17055 0.35533 0.42131 0.0
C445 C 0.17266 0.3495 0.27005 0.0
N446 N 0.124 0.40142 0.46857 0.0
N447 N 0.15281 0.37231 0.29577 0.0
H448 H 0.97605 0.05009 0.81837 0.0
H449 H 0.01985 0.94583 0.20587 0.0
H450 H 0.04154 0.96578 0.84421 0.0
H451 H 0.95436 0.03013 0.18003 0.0
H452 H 0.02751 0.95227 0.07327 0.0
H453 H 0.96846 0.0437 0.95102 0.0
C454 C 0.98913 0.03042 0.8523 0.0
C455 C 0.00947 0.00841 0.82062 0.0
C456 C 0.01131 0.96927 0.09636 0.0
C457 C 0.00057 0.00067 0.97211 0.0
C458 C 0.00679 0.9655 0.17196 0.0
C459 C 0.98642 0.9875 0.20362 0.0
C460 C 0.9954 0.9953 0.05217 0.0
C461 C 0.97019 0.01262 0.15751 0.0
C462 C 0.98464 0.02668 0.92791 0.0
C463 C 0.02573 0.98331 0.86674 0.0
N464 N 0.97514 0.01593 0.08397 0.0
N465 N 0.02081 0.98002 0.9403 0.0
H466 H 0.21493 0.79406 0.43618 0.0
H467 H 0.27564 0.6985 0.09929 0.0
H468 H 0.29338 0.72162 0.46055 0.0
H469 H 0.19639 0.77006 0.07537 0.0
H470 H 0.28221 0.7061 0.23246 0.0
H471 H 0.20837 0.78647 0.30299 0.0
C472 C 0.231 0.77687 0.41322 0.0
C473 C 0.25471 0.75846 0.45903 0.0
C474 C 0.26326 0.72002 0.19813 0.0
C475 C 0.24713 0.74923 0.30764 0.0
C476 C 0.25941 0.7155 0.12234 0.0
C477 C 0.23546 0.73367 0.07666 0.0
C478 C 0.24305 0.74291 0.22804 0.0
C479 C 0.21516 0.75556 0.10889 0.0
C480 C 0.22714 0.77235 0.33743 0.0
C481 C 0.27479 0.73632 0.42693 0.0
N482 N 0.2195 0.75968 0.18258 0.0
N483 N 0.27047 0.73222 0.35323 0.0
H484 H 0.50518 0.05609 0.67488 0.0
H485 H 0.4912 0.93643 0.3415 0.0
H486 H 0.46241 0.95857 0.69274 0.0
H487 H 0.53329 0.03423 0.32303 0.0
H488 H 0.48137 0.94364 0.47088 0.0
H489 H 0.51504 0.04889 0.5455 0.0
C490 C 0.49747 0.03332 0.65119 0.0
C491 C 0.48287 0.00792 0.69441 0.0
C492 C 0.49295 0.96347 0.43876 0.0
C493 C 0.49457 -0.00077 0.54677 0.0
C494 C 0.49877 0.95926 0.36505 0.0
C495 C 0.51316 0.98474 0.32166 0.0
C496 C 0.5015 0.99344 0.46931 0.0
C497 C 0.52224 0.01391 0.3547 0.0
C498 C 0.50331 0.02912 0.57748 0.0
C499 C 0.47362 0.97883 0.6612 0.0
N500 N 0.51615 0.01752 0.42644 0.0
N501 N 0.47974 0.97522 0.58948 0.0
H502 H 0.18919 0.23859 0.92724 0.0
H503 H 0.30851 0.255 0.59272 0.0
H504 H 0.2861 0.28291 0.94444 0.0
H505 H 0.21185 0.21012 0.57608 0.0
H506 H 0.30112 0.2648 0.72204 0.0
H507 H 0.19659 0.22883 0.79791 0.0
C508 C 0.21186 0.24666 0.90342 0.0
C509 C 0.23704 0.26166 0.94644 0.0
C510 C 0.28159 0.25262 0.69034 0.0
C511 C 0.24596 0.2501 0.79883 0.0
C512 C 0.2859 0.24682 0.61666 0.0
C513 C 0.26079 0.23163 0.5738 0.0
C514 C 0.25188 0.24325 0.72139 0.0
C515 C 0.23188 0.22178 0.60734 0.0
C516 C 0.21618 0.24088 0.82973 0.0
C517 C 0.26602 0.27138 0.91306 0.0
N518 N 0.22816 0.22788 0.67902 0.0
N519 N 0.26974 0.26532 0.84135 0.0
H520 H 0.8025 0.23025 0.94989 0.0
H521 H 0.6927 0.26279 0.56536 0.0
H522 H 0.71227 0.28735 0.92569 0.0
H523 H 0.78361 0.20677 0.5888 0.0
H524 H 0.69887 0.27111 0.69768 0.0
H525 H 0.79634 0.22185 0.81759 0.0
C526 C 0.78157 0.24135 0.91639 0.0
C527 C 0.75785 0.25956 0.94847 0.0
C528 C 0.7174 0.25684 0.67413 0.0
C529 C 0.75037 0.24966 0.79736 0.0
C530 C 0.71379 0.25191 0.5987 0.0
C531 C 0.73769 0.23404 0.56639 0.0
C532 C 0.74517 0.24385 0.71754 0.0
C533 C 0.76459 0.22061 0.6118 0.0
C534 C 0.77796 0.23639 0.84097 0.0
C535 C 0.73114 0.27325 0.90286 0.0
N536 N 0.76769 0.22591 0.68517 0.0
N537 N 0.72803 0.2679 0.82953 0.0
H538 H 0.68797 0.74057 0.42248 0.0
H539 H 0.80767 0.75277 0.08859 0.0
H540 H 0.78647 0.78127 0.44053 0.0
H541 H 0.70942 0.71146 0.07114 0.0
H542 H 0.80071 0.76276 0.21798 0.0
H543 H 0.69495 0.73062 0.29309 0.0
C544 C 0.71091 0.74781 0.39883 0.0
C545 C 0.73665 0.76184 0.44211 0.0
C546 C 0.78073 0.75131 0.18609 0.0
C547 C 0.74508 0.75005 0.29442 0.0
C548 C 0.78479 0.7454 0.11237 0.0
C549 C 0.75911 0.73118 0.06926 0.0
C550 C 0.75071 0.74302 0.21694 0.0
C551 C 0.72988 0.72236 0.10259 0.0
C552 C 0.71499 0.74192 0.32511 0.0
C553 C 0.76596 0.7705 0.40894 0.0
N554 N 0.72642 0.72855 0.17433 0.0
N555 N 0.76943 0.76435 0.33719 0.0
H556 H 0.45056 0.52623 0.66642 0.0
H557 H 0.54445 0.4635 0.32909 0.0
H558 H 0.52042 0.44549 0.68985 0.0
H559 H 0.47352 0.54329 0.30497 0.0
H560 H 0.53687 0.45714 0.4623 0.0
H561 H 0.45812 0.5326 0.53319 0.0
C562 C 0.46718 0.50964 0.64325 0.0
C563 C 0.48488 0.48532 0.68879 0.0
C564 C 0.52309 0.47616 0.42791 0.0
C565 C 0.49408 0.49267 0.53739 0.0
C566 C 0.5276 0.47989 0.35211 0.0
C567 C 0.5096 0.50393 0.30639 0.0
C568 C 0.50038 0.49661 0.45778 0.0
C569 C 0.48789 0.52445 0.33855 0.0
C570 C 0.47166 0.51337 0.56744 0.0
C571 C 0.50628 0.46455 0.65643 0.0
N572 N 0.48378 0.52024 0.41226 0.0
N573 N 0.51039 0.46878 0.58272 0.0
H574 H 0.99137 0.43749 0.83789 0.0
H575 H 0.00537 0.55706 0.17145 0.0
H576 H 0.03356 0.53525 0.81958 0.0
H577 H 0.9623 0.45967 0.18894 0.0
H578 H 0.01532 0.54986 0.04212 0.0
H579 H 0.98148 0.44471 0.96724 0.0
C580 C -0.00105 0.46032 0.86147 0.0
C581 C 0.01339 0.48578 0.81812 0.0
C582 C 0.0035 0.53012 0.07401 0.0
C583 C 0.00167 0.49448 0.96576 0.0
C584 C -0.00239 0.53432 0.1477 0.0
C585 C 0.9829 0.50896 0.1908 0.0
C586 C 0.9947 0.50027 0.0432 0.0
C587 C 0.97359 0.4799 0.1575 0.0
C588 C 0.9931 0.46453 0.93516 0.0
C589 C 0.02248 0.51495 0.85121 0.0
N590 N 0.97976 0.4763 0.08581 0.0
N591 N 0.01636 0.51856 0.92293 0.0
loop_
_geom_bond_atom_site_label_1
_geom_bond_atom_site_label_2
_geom_bond_distance
_geom_bond_site_symmetry_2
_ccdc_geom_bond_type
Dy0 O4 2.398 1_655 S
Dy0 O5 2.491 1_565 S
Dy0 O6 2.403 1_655 S
Dy0 O7 2.664 1_655 S
Dy0 O11 2.326 1_665 S
Dy0 O15 2.310 1_565 S
Dy0 O16 2.351 . S
C1 O12 1.175 1_565 S
C1 O13 1.363 1_655 S
C2 O4 1.164 1_545 S
C2 O5 1.373 1_455 S
Dy3 O7 2.310 1_545 S
Dy3 O10 2.351 . S
Dy3 O12 2.398 1_455 S
Dy3 O13 2.491 1_545 S
Dy3 O14 2.403 1_455 S
Dy3 O15 2.664 1_455 S
Dy3 O17 2.326 1_445 S
O4 Dy0 2.398 1_455 S
O4 C2 1.164 1_565 S
O5 Dy0 2.491 1_545 S
O5 C2 1.373 1_655 S
O6 Dy0 2.403 1_455 S
O6 C8 1.254 . S
O7 Dy0 2.664 1_455 S
O7 Dy3 2.310 1_565 S
O7 C8 1.268 . S
C8 O6 1.254 . S
C8 O7 1.268 . S
C9 O14 1.254 . S
C9 O15 1.268 . S
O10 Dy3 2.351 . S
O10 C18 1.249 . S
O11 Dy0 2.326 1_445 S
O11 C18 1.267 . S
O12 C1 1.175 1_545 S
O12 Dy3 2.398 1_655 S
O13 C1 1.363 1_455 S
O13 Dy3 2.491 1_565 S
O14 Dy3 2.403 1_655 S
O14 C9 1.254 . S
O15 Dy0 2.310 1_545 S
O15 Dy3 2.664 1_655 S
O15 C9 1.268 . S
O16 Dy0 2.351 . S
O16 C19 1.249 . S
O17 Dy3 2.326 1_665 S
O17 C19 1.267 . S
C18 O10 1.249 . S
C18 O11 1.267 . S
C19 O16 1.249 . S
C19 O17 1.267 . S
Dy20 O24 2.398 . S
Dy20 O25 2.491 . S
Dy20 O26 2.403 . S
Dy20 O27 2.664 . S
Dy20 O31 2.326 . S
Dy20 O35 2.310 . S
Dy20 O36 2.351 . S
C21 O32 1.185 . S
C21 O33 1.355 . S
C22 O24 1.185 . S
C22 O25 1.355 . S
Dy23 O27 2.310 . S
Dy23 O30 2.351 . S
Dy23 O32 2.398 . S
Dy23 O33 2.491 . S
Dy23 O34 2.403 . S
Dy23 O35 2.664 . S
Dy23 O37 2.326 . S
O24 Dy20 2.398 . S
O24 C22 1.185 . S
O25 Dy20 2.491 . S
O25 C22 1.355 . S
O26 Dy20 2.403 . S
O26 C28 1.254 . S
O27 Dy20 2.664 . S
O27 Dy23 2.310 . S
O27 C28 1.268 . S
C28 O26 1.254 . S
C28 O27 1.268 . S
C29 O34 1.254 . S
C29 O35 1.268 . S
O30 Dy23 2.351 . S
O30 C38 1.249 . S
O31 Dy20 2.326 . S
O31 C38 1.267 . S
O32 C21 1.185 . S
O32 Dy23 2.398 . S
O33 C21 1.355 . S
O33 Dy23 2.491 . S
O34 Dy23 2.403 . S
O34 C29 1.254 . S
O35 Dy20 2.310 . S
O35 Dy23 2.664 . S
O35 C29 1.268 . S
O36 Dy20 2.351 . S
O36 C39 1.249 . S
O37 Dy23 2.326 . S
O37 C39 1.267 . S
C38 O30 1.249 . S
C38 O31 1.267 . S
C39 O36 1.249 . S
C39 O37 1.267 . S
Dy40 O44 2.398 . S
Dy40 O45 2.491 1_565 S
Dy40 O46 2.403 . S
Dy40 O47 2.664 1_554 S
Dy40 O51 2.326 1_565 S
Dy40 O55 2.310 1_565 S
Dy40 O56 2.351 . S
C41 O52 1.185 . S
C41 O53 1.355 1_545 S
C42 O44 1.185 . S
C42 O45 1.355 1_565 S
Dy43 O47 2.310 1_545 S
Dy43 O50 2.351 . S
Dy43 O52 2.398 . S
Dy43 O53 2.491 1_545 S
Dy43 O54 2.403 . S
Dy43 O55 2.664 1_556 S
Dy43 O57 2.326 1_545 S
O44 Dy40 2.398 . S
O44 C42 1.185 . S
O45 Dy40 2.491 1_545 S
O45 C42 1.355 1_545 S
O46 Dy40 2.403 . S
O46 C48 1.254 1_554 S
O47 Dy40 2.664 1_556 S
O47 Dy43 2.310 1_565 S
O47 C48 1.268 . S
C48 O46 1.254 1_556 S
C48 O47 1.268 . S
C49 O54 1.254 1_554 S
C49 O55 1.268 . S
O50 Dy43 2.351 . S
O50 C58 1.249 1_556 S
O51 Dy40 2.326 1_545 S
O51 C58 1.267 . S
O52 C41 1.185 . S
O52 Dy43 2.398 . S
O53 C41 1.355 1_565 S
O53 Dy43 2.491 1_565 S
O54 Dy43 2.403 . S
O54 C49 1.254 1_556 S
O55 Dy40 2.310 1_545 S
O55 Dy43 2.664 1_554 S
O55 C49 1.268 . S
O56 Dy40 2.351 . S
O56 C59 1.249 1_554 S
O57 Dy43 2.326 1_565 S
O57 C59 1.267 . S
C58 O50 1.249 1_554 S
C58 O51 1.267 . S
C59 O56 1.249 1_556 S
C59 O57 1.267 . S
Dy60 O64 2.398 . S
Dy60 O65 2.491 . S
Dy60 O66 2.403 . S
Dy60 O67 2.664 . S
Dy60 O71 2.326 . S
Dy60 O75 2.310 . S
Dy60 O76 2.351 . S
C61 O72 1.185 . S
C61 O73 1.355 . S
C62 O64 1.185 . S
C62 O65 1.355 . S
Dy63 O67 2.310 . S
Dy63 O70 2.351 . S
Dy63 O72 2.398 . S
Dy63 O73 2.491 . S
Dy63 O74 2.403 . S
Dy63 O75 2.664 . S
Dy63 O77 2.326 . S
O64 Dy60 2.398 . S
O64 C62 1.185 . S
O65 Dy60 2.491 . S
O65 C62 1.355 . S
O66 Dy60 2.403 . S
O66 C68 1.254 . S
O67 Dy60 2.664 . S
O67 Dy63 2.310 . S
O67 C68 1.268 . S
C68 O66 1.254 . S
C68 O67 1.268 . S
C69 O74 1.254 . S
C69 O75 1.268 . S
O70 Dy63 2.351 . S
O70 C78 1.249 . S
O71 Dy60 2.326 . S
O71 C78 1.267 . S
O72 C61 1.185 . S
O72 Dy63 2.398 . S
O73 C61 1.355 . S
O73 Dy63 2.491 . S
O74 Dy63 2.403 . S
O74 C69 1.254 . S
O75 Dy60 2.310 . S
O75 Dy63 2.664 . S
O75 C69 1.268 . S
O76 Dy60 2.351 . S
O76 C79 1.249 . S
O77 Dy63 2.326 . S
O77 C79 1.267 . S
C78 O70 1.249 . S
C78 O71 1.267 . S
C79 O76 1.249 . S
C79 O77 1.267 . S
Dy80 O84 2.398 . S
Dy80 O85 2.491 . S
Dy80 O86 2.403 . S
Dy80 O87 2.664 . S
Dy80 O91 2.326 . S
Dy80 O95 2.310 . S
Dy80 O96 2.351 . S
C81 O92 1.185 . S
C81 O93 1.355 . S
C82 O84 1.185 . S
C82 O85 1.355 . S
Dy83 O87 2.310 . S
Dy83 O90 2.351 . S
Dy83 O92 2.398 . S
Dy83 O93 2.491 . S
Dy83 O94 2.403 . S
Dy83 O95 2.664 . S
Dy83 O97 2.326 . S
O84 Dy80 2.398 . S
O84 C82 1.185 . S
O85 Dy80 2.491 . S
O85 C82 1.355 . S
O86 Dy80 2.403 . S
O86 C88 1.254 . S
O87 Dy80 2.664 . S
O87 Dy83 2.310 . S
O87 C88 1.268 . S
C88 O86 1.254 . S
C88 O87 1.268 . S
C89 O94 1.254 . S
C89 O95 1.268 . S
O90 Dy83 2.351 . S
O90 C98 1.249 . S
O91 Dy80 2.326 . S
O91 C98 1.267 . S
O92 C81 1.185 . S
O92 Dy83 2.398 . S
O93 C81 1.355 . S
O93 Dy83 2.491 . S
O94 Dy83 2.403 . S
O94 C89 1.254 . S
O95 Dy80 2.310 . S
O95 Dy83 2.664 . S
O95 C89 1.268 . S
O96 Dy80 2.351 . S
O96 C99 1.249 . S
O97 Dy83 2.326 . S
O97 C99 1.267 . S
C98 O90 1.249 . S
C98 O91 1.267 . S
C99 O96 1.249 . S
C99 O97 1.267 . S
Dy100 O104 2.398 . S
Dy100 O105 2.491 . S
Dy100 O106 2.403 . S
Dy100 O107 2.664 . S
Dy100 O111 2.326 . S
Dy100 O115 2.310 . S
Dy100 O116 2.351 . S
C101 O112 1.185 . S
C101 O113 1.355 . S
C102 O104 1.185 . S
C102 O105 1.355 . S
Dy103 O107 2.310 . S
Dy103 O110 2.351 . S
Dy103 O112 2.398 . S
Dy103 O113 2.491 . S
Dy103 O114 2.403 . S
Dy103 O115 2.664 . S
Dy103 O117 2.326 . S
O104 Dy100 2.398 . S
O104 C102 1.185 . S
O105 Dy100 2.491 . S
O105 C102 1.355 . S
O106 Dy100 2.403 . S
O106 C108 1.254 . S
O107 Dy100 2.664 . S
O107 Dy103 2.310 . S
O107 C108 1.268 . S
C108 O106 1.254 . S
C108 O107 1.268 . S
C109 O114 1.254 . S
C109 O115 1.268 . S
O110 Dy103 2.351 . S
O110 C118 1.249 . S
O111 Dy100 2.326 . S
O111 C118 1.267 . S
O112 C101 1.185 . S
O112 Dy103 2.398 . S
O113 C101 1.355 . S
O113 Dy103 2.491 . S
O114 Dy103 2.403 . S
O114 C109 1.254 . S
O115 Dy100 2.310 . S
O115 Dy103 2.664 . S
O115 C109 1.268 . S
O116 Dy100 2.351 . S
O116 C119 1.249 . S
O117 Dy103 2.326 . S
O117 C119 1.267 . S
C118 O110 1.249 . S
C118 O111 1.267 . S
C119 O116 1.249 . S
C119 O117 1.267 . S
Dy120 O124 2.398 . S
Dy120 O125 2.491 . S
Dy120 O126 2.403 . S
Dy120 O127 2.664 1_556 S
Dy120 O131 2.326 . S
Dy120 O135 2.310 . S
Dy120 O136 2.351 . S
C121 O132 1.185 . S
C121 O133 1.355 . S
C122 O124 1.185 . S
C122 O125 1.355 . S
Dy123 O127 2.310 . S
Dy123 O130 2.351 . S
Dy123 O132 2.398 . S
Dy123 O133 2.491 . S
Dy123 O134 2.403 . S
Dy123 O135 2.664 1_554 S
Dy123 O137 2.326 . S
O124 Dy120 2.398 . S
O124 C122 1.185 . S
O125 Dy120 2.491 . S
O125 C122 1.355 . S
O126 Dy120 2.403 . S
O126 C128 1.254 1_556 S
O127 Dy120 2.664 1_554 S
O127 Dy123 2.310 . S
O127 C128 1.268 . S
C128 O126 1.254 1_554 S
C128 O127 1.268 . S
C129 O134 1.254 1_556 S
C129 O135 1.268 . S
O130 Dy123 2.351 . S
O130 C138 1.249 1_554 S
O131 Dy120 2.326 . S
O131 C138 1.267 . S
O132 C121 1.185 . S
O132 Dy123 2.398 . S
O133 C121 1.355 . S
O133 Dy123 2.491 . S
O134 Dy123 2.403 . S
O134 C129 1.254 1_554 S
O135 Dy120 2.310 . S
O135 Dy123 2.664 1_556 S
O135 C129 1.268 . S
O136 Dy120 2.351 . S
O136 C139 1.249 1_556 S
O137 Dy123 2.326 . S
O137 C139 1.267 . S
C138 O130 1.249 1_556 S
C138 O131 1.267 . S
C139 O136 1.249 1_554 S
C139 O137 1.267 . S
Dy140 O144 2.398 1_455 S
Dy140 O145 2.491 . S
Dy140 O146 2.403 1_455 S
Dy140 O147 2.664 1_455 S
Dy140 O151 2.326 1_455 S
Dy140 O155 2.310 . S
Dy140 O156 2.351 . S
C141 O152 1.185 . S
C141 O153 1.355 1_455 S
C142 O144 1.185 . S
C142 O145 1.355 1_655 S
Dy143 O147 2.310 . S
Dy143 O150 2.351 . S
Dy143 O152 2.398 1_655 S
Dy143 O153 2.491 . S
Dy143 O154 2.403 1_655 S
Dy143 O155 2.664 1_655 S
Dy143 O157 2.326 1_655 S
O144 Dy140 2.398 1_655 S
O144 C142 1.185 . S
O145 Dy140 2.491 . S
O145 C142 1.355 1_455 S
O146 Dy140 2.403 1_655 S
O146 C148 1.254 . S
O147 Dy140 2.664 1_655 S
O147 Dy143 2.310 . S
O147 C148 1.268 . S
C148 O146 1.254 . S
C148 O147 1.268 . S
C149 O154 1.254 . S
C149 O155 1.268 . S
O150 Dy143 2.351 . S
O150 C158 1.249 . S
O151 Dy140 2.326 1_655 S
O151 C158 1.267 . S
O152 C141 1.185 . S
O152 Dy143 2.398 1_455 S
O153 C141 1.355 1_655 S
O153 Dy143 2.491 . S
O154 Dy143 2.403 1_455 S
O154 C149 1.254 . S
O155 Dy140 2.310 . S
O155 Dy143 2.664 1_455 S
O155 C149 1.268 . S
O156 Dy140 2.351 . S
O156 C159 1.249 . S
O157 Dy143 2.326 1_455 S
O157 C159 1.267 . S
C158 O150 1.249 . S
C158 O151 1.267 . S
C159 O156 1.249 . S
C159 O157 1.267 . S
H160 C166 0.930 . S
H161 C170 0.930 . S
H162 C175 0.929 . S
H163 C173 0.929 . S
H164 C168 0.929 . S
H165 C174 0.929 . S
C166 H160 0.930 . S
C166 C167 1.367 . S
C166 C174 1.378 . S
C167 C166 1.367 . S
C167 C175 1.433 . S
C168 H164 0.929 . S
C168 C170 1.378 . S
C168 C172 1.350 . S
C169 C172 1.463 . S
C169 C174 1.350 . S
C169 N177 1.427 . S
C170 H161 0.930 . S
C170 C168 1.378 . S
C170 C171 1.367 . S
C171 C170 1.367 . S
C171 C173 1.433 . S
C172 C168 1.350 . S
C172 C169 1.463 . S
C172 N176 1.427 . S
C173 H163 0.929 . S
C173 C171 1.433 . S
C173 N176 1.384 . S
C174 H165 0.929 . S
C174 C166 1.378 . S
C174 C169 1.350 . S
C175 H162 0.929 . S
C175 C167 1.433 . S
C175 N177 1.384 . S
N176 C172 1.427 . S
N176 C173 1.384 . S
N177 C169 1.427 . S
N177 C175 1.384 . S
H178 C184 0.930 . S
H179 C188 0.930 . S
H180 C193 0.929 . S
H181 C191 0.929 . S
H182 C186 0.929 . S
H183 C192 0.929 . S
C184 H178 0.930 . S
C184 C185 1.367 . S
C184 C192 1.378 . S
C185 C184 1.367 . S
C185 C193 1.433 . S
C186 H182 0.929 . S
C186 C188 1.378 . S
C186 C190 1.350 . S
C187 C190 1.463 . S
C187 C192 1.350 . S
C187 N195 1.427 . S
C188 H179 0.930 . S
C188 C186 1.378 . S
C188 C189 1.367 . S
C189 C188 1.367 . S
C189 C191 1.433 . S
C190 C186 1.350 . S
C190 C187 1.463 . S
C190 N194 1.427 . S
C191 H181 0.929 . S
C191 C189 1.433 . S
C191 N194 1.384 . S
C192 H183 0.929 . S
C192 C184 1.378 . S
C192 C187 1.350 . S
C193 H180 0.929 . S
C193 C185 1.433 . S
C193 N195 1.384 . S
N194 C190 1.427 . S
N194 C191 1.384 . S
N195 C187 1.427 . S
N195 C193 1.384 . S
H196 C202 0.930 . S
H197 C206 0.930 . S
H198 C211 0.929 . S
H199 C209 0.929 . S
H200 C204 0.929 . S
H201 C210 0.929 . S
C202 H196 0.930 . S
C202 C203 1.367 . S
C202 C210 1.378 . S
C203 C202 1.367 . S
C203 C211 1.433 . S
C204 H200 0.929 . S
C204 C206 1.378 . S
C204 C208 1.350 . S
C205 C208 1.463 . S
C205 C210 1.350 . S
C205 N213 1.427 . S
C206 H197 0.930 . S
C206 C204 1.378 . S
C206 C207 1.367 . S
C207 C206 1.367 . S
C207 C209 1.433 1_556 S
C208 C204 1.350 . S
C208 C205 1.463 . S
C208 N212 1.427 . S
C209 H199 0.929 . S
C209 C207 1.433 1_554 S
C209 N212 1.384 1_554 S
C210 H201 0.929 . S
C210 C202 1.378 . S
C210 C205 1.350 . S
C211 H198 0.929 . S
C211 C203 1.433 . S
C211 N213 1.384 . S
N212 C208 1.427 . S
N212 C209 1.384 1_556 S
N213 C205 1.427 . S
N213 C211 1.384 . S
H214 C220 0.930 1_556 S
H215 C224 0.930 . S
H216 C229 0.929 . S
H217 C227 0.929 . S
H218 C222 0.929 . S
H219 C228 0.929 . S
C220 H214 0.930 1_554 S
C220 C221 1.367 . S
C220 C228 1.378 . S
C221 C220 1.367 . S
C221 C229 1.433 . S
C222 H218 0.929 . S
C222 C224 1.378 . S
C222 C226 1.350 . S
C223 C226 1.463 . S
C223 C228 1.350 . S
C223 N231 1.427 . S
C224 H215 0.930 . S
C224 C222 1.378 . S
C224 C225 1.367 . S
C225 C224 1.367 . S
C225 C227 1.433 . S
C226 C222 1.350 . S
C226 C223 1.463 . S
C226 N230 1.427 . S
C227 H217 0.929 . S
C227 C225 1.433 . S
C227 N230 1.384 . S
C228 H219 0.929 . S
C228 C220 1.378 . S
C228 C223 1.350 . S
C229 H216 0.929 . S
C229 C221 1.433 . S
C229 N231 1.384 . S
N230 C226 1.427 . S
N230 C227 1.384 . S
N231 C223 1.427 . S
N231 C229 1.384 . S
H232 C238 0.930 . S
H233 C242 0.930 . S
H234 C247 0.929 . S
H235 C245 0.929 . S
H236 C240 0.929 . S
H237 C246 0.929 . S
C238 H232 0.930 . S
C238 C239 1.367 . S
C238 C246 1.378 . S
C239 C238 1.367 . S
C239 C247 1.433 . S
C240 H236 0.929 . S
C240 C242 1.378 . S
C240 C244 1.350 . S
C241 C244 1.463 . S
C241 C246 1.350 . S
C241 N249 1.427 . S
C242 H233 0.930 . S
C242 C240 1.378 . S
C242 C243 1.367 . S
C243 C242 1.367 . S
C243 C245 1.433 . S
C244 C240 1.350 . S
C244 C241 1.463 . S
C244 N248 1.427 . S
C245 H235 0.929 . S
C245 C243 1.433 . S
C245 N248 1.384 . S
C246 H237 0.929 . S
C246 C238 1.378 . S
C246 C241 1.350 . S
C247 H234 0.929 . S
C247 C239 1.433 . S
C247 N249 1.384 . S
N248 C244 1.427 . S
N248 C245 1.384 . S
N249 C241 1.427 . S
N249 C247 1.384 . S
H250 C256 0.930 . S
H251 C260 0.930 . S
H252 C265 0.929 . S
H253 C263 0.929 . S
H254 C258 0.929 . S
H255 C264 0.929 . S
C256 H250 0.930 . S
C256 C257 1.367 . S
C256 C264 1.378 . S
C257 C256 1.367 . S
C257 C265 1.433 . S
C258 H254 0.929 . S
C258 C260 1.378 . S
C258 C262 1.350 . S
C259 C262 1.463 . S
C259 C264 1.350 . S
C259 N267 1.427 . S
C260 H251 0.930 . S
C260 C258 1.378 . S
C260 C261 1.367 . S
C261 C260 1.367 . S
C261 C263 1.433 . S
C262 C258 1.350 . S
C262 C259 1.463 . S
C262 N266 1.427 . S
C263 H253 0.929 . S
C263 C261 1.433 . S
C263 N266 1.384 . S
C264 H255 0.929 . S
C264 C256 1.378 . S
C264 C259 1.350 . S
C265 H252 0.929 . S
C265 C257 1.433 . S
C265 N267 1.384 . S
N266 C262 1.427 . S
N266 C263 1.384 . S
N267 C259 1.427 . S
N267 C265 1.384 . S
H268 C274 0.930 . S
H269 C278 0.930 . S
H270 C283 0.929 . S
H271 C281 0.929 . S
H272 C276 0.929 . S
H273 C282 0.929 . S
C274 H268 0.930 . S
C274 C275 1.367 . S
C274 C282 1.378 . S
C275 C274 1.367 . S
C275 C283 1.433 . S
C276 H272 0.929 . S
C276 C278 1.378 . S
C276 C280 1.350 . S
C277 C280 1.463 . S
C277 C282 1.350 . S
C277 N285 1.427 . S
C278 H269 0.930 . S
C278 C276 1.378 . S
C278 C279 1.367 . S
C279 C278 1.367 . S
C279 C281 1.433 1_554 S
C280 C276 1.350 . S
C280 C277 1.463 . S
C280 N284 1.427 . S
C281 H271 0.929 . S
C281 C279 1.433 1_556 S
C281 N284 1.384 1_556 S
C282 H273 0.929 . S
C282 C274 1.378 . S
C282 C277 1.350 . S
C283 H270 0.929 . S
C283 C275 1.433 . S
C283 N285 1.384 . S
N284 C280 1.427 . S
N284 C281 1.384 1_554 S
N285 C277 1.427 . S
N285 C283 1.384 . S
H286 C292 0.930 . S
H287 C296 0.930 1_554 S
H288 C301 0.929 . S
H289 C299 0.929 . S
H290 C294 0.929 . S
H291 C300 0.929 . S
C292 H286 0.930 . S
C292 C293 1.367 . S
C292 C300 1.378 . S
C293 C292 1.367 . S
C293 C301 1.433 . S
C294 H290 0.929 . S
C294 C296 1.378 . S
C294 C298 1.350 . S
C295 C298 1.463 . S
C295 C300 1.350 . S
C295 N303 1.427 . S
C296 H287 0.930 1_556 S
C296 C294 1.378 . S
C296 C297 1.367 . S
C297 C296 1.367 . S
C297 C299 1.433 . S
C298 C294 1.350 . S
C298 C295 1.463 . S
C298 N302 1.427 . S
C299 H289 0.929 . S
C299 C297 1.433 . S
C299 N302 1.384 . S
C300 H291 0.929 . S
C300 C292 1.378 . S
C300 C295 1.350 . S
C301 H288 0.929 . S
C301 C293 1.433 . S
C301 N303 1.384 . S
N302 C298 1.427 . S
N302 C299 1.384 . S
N303 C295 1.427 . S
N303 C301 1.384 . S
H304 C310 0.930 1_554 S
H305 C314 0.930 . S
H306 C319 0.929 . S
H307 C317 0.929 . S
H308 C312 0.929 . S
H309 C318 0.929 . S
C310 H304 0.930 1_556 S
C310 C311 1.367 . S
C310 C318 1.378 . S
C311 C310 1.367 . S
C311 C319 1.433 . S
C312 H308 0.929 . S
C312 C314 1.378 . S
C312 C316 1.350 . S
C313 C316 1.463 . S
C313 C318 1.350 . S
C313 N321 1.427 . S
C314 H305 0.930 . S
C314 C312 1.378 . S
C314 C315 1.367 . S
C315 C314 1.367 . S
C315 C317 1.433 . S
C316 C312 1.350 . S
C316 C313 1.463 . S
C316 N320 1.427 . S
C317 H307 0.929 . S
C317 C315 1.433 . S
C317 N320 1.384 . S
C318 H309 0.929 . S
C318 C310 1.378 . S
C318 C313 1.350 . S
C319 H306 0.929 . S
C319 C311 1.433 . S
C319 N321 1.384 . S
N320 C316 1.427 . S
N320 C317 1.384 . S
N321 C313 1.427 . S
N321 C319 1.384 . S
H322 C328 0.930 . S
H323 C332 0.930 . S
H324 C337 0.929 . S
H325 C335 0.929 . S
H326 C330 0.929 . S
H327 C336 0.929 . S
C328 H322 0.930 . S
C328 C329 1.367 . S
C328 C336 1.378 . S
C329 C328 1.367 . S
C329 C337 1.433 . S
C330 H326 0.929 . S
C330 C332 1.378 . S
C330 C334 1.350 . S
C331 C334 1.463 . S
C331 C336 1.350 . S
C331 N339 1.427 . S
C332 H323 0.930 . S
C332 C330 1.378 . S
C332 C333 1.367 . S
C333 C332 1.367 . S
C333 C335 1.433 . S
C334 C330 1.350 . S
C334 C331 1.463 . S
C334 N338 1.427 . S
C335 H325 0.929 . S
C335 C333 1.433 . S
C335 N338 1.384 . S
C336 H327 0.929 . S
C336 C328 1.378 . S
C336 C331 1.350 . S
C337 H324 0.929 . S
C337 C329 1.433 . S
C337 N339 1.384 . S
N338 C334 1.427 . S
N338 C335 1.384 . S
N339 C331 1.427 . S
N339 C337 1.384 . S
H340 C346 0.930 . S
H341 C350 0.930 . S
H342 C355 0.929 . S
H343 C353 0.929 . S
H344 C348 0.929 . S
H345 C354 0.929 . S
C346 H340 0.930 . S
C346 C347 1.367 . S
C346 C354 1.378 . S
C347 C346 1.367 . S
C347 C355 1.433 . S
C348 H344 0.929 . S
C348 C350 1.378 . S
C348 C352 1.350 . S
C349 C352 1.463 . S
C349 C354 1.350 . S
C349 N357 1.427 . S
C350 H341 0.930 . S
C350 C348 1.378 . S
C350 C351 1.367 . S
C351 C350 1.367 . S
C351 C353 1.433 . S
C352 C348 1.350 . S
C352 C349 1.463 . S
C352 N356 1.427 . S
C353 H343 0.929 . S
C353 C351 1.433 . S
C353 N356 1.384 . S
C354 H345 0.929 . S
C354 C346 1.378 . S
C354 C349 1.350 . S
C355 H342 0.929 . S
C355 C347 1.433 . S
C355 N357 1.384 . S
N356 C352 1.427 . S
N356 C353 1.384 . S
N357 C349 1.427 . S
N357 C355 1.384 . S
H358 C364 0.930 . S
H359 C368 0.930 . S
H360 C373 0.929 . S
H361 C371 0.929 . S
H362 C366 0.929 . S
H363 C372 0.929 . S
C364 H358 0.930 . S
C364 C365 1.367 . S
C364 C372 1.378 . S
C365 C364 1.367 . S
C365 C373 1.433 . S
C366 H362 0.929 . S
C366 C368 1.378 . S
C366 C370 1.350 . S
C367 C370 1.463 . S
C367 C372 1.350 . S
C367 N375 1.427 . S
C368 H359 0.930 . S
C368 C366 1.378 . S
C368 C369 1.367 . S
C369 C368 1.367 . S
C369 C371 1.433 . S
C370 C366 1.350 . S
C370 C367 1.463 . S
C370 N374 1.427 . S
C371 H361 0.929 . S
C371 C369 1.433 . S
C371 N374 1.384 . S
C372 H363 0.929 . S
C372 C364 1.378 . S
C372 C367 1.350 . S
C373 H360 0.929 . S
C373 C365 1.433 . S
C373 N375 1.384 . S
N374 C370 1.427 . S
N374 C371 1.384 . S
N375 C367 1.427 . S
N375 C373 1.384 . S
H376 C382 0.930 . S
H377 C386 0.930 1_556 S
H378 C391 0.929 . S
H379 C389 0.929 . S
H380 C384 0.929 . S
H381 C390 0.929 . S
C382 H376 0.930 . S
C382 C383 1.367 . S
C382 C390 1.378 . S
C383 C382 1.367 . S
C383 C391 1.433 . S
C384 H380 0.929 . S
C384 C386 1.378 . S
C384 C388 1.350 . S
C385 C388 1.463 . S
C385 C390 1.350 . S
C385 N393 1.427 . S
C386 H377 0.930 1_554 S
C386 C384 1.378 . S
C386 C387 1.367 . S
C387 C386 1.367 . S
C387 C389 1.433 . S
C388 C384 1.350 . S
C388 C385 1.463 . S
C388 N392 1.427 . S
C389 H379 0.929 . S
C389 C387 1.433 . S
C389 N392 1.384 . S
C390 H381 0.929 . S
C390 C382 1.378 . S
C390 C385 1.350 . S
C391 H378 0.929 . S
C391 C383 1.433 . S
C391 N393 1.384 . S
N392 C388 1.427 . S
N392 C389 1.384 . S
N393 C385 1.427 . S
N393 C391 1.384 . S
H394 C400 0.930 . S
H395 C404 0.930 . S
H396 C409 0.929 . S
H397 C407 0.929 . S
H398 C402 0.929 . S
H399 C408 0.929 . S
C400 H394 0.930 . S
C400 C401 1.367 . S
C400 C408 1.378 . S
C401 C400 1.367 . S
C401 C409 1.433 . S
C402 H398 0.929 . S
C402 C404 1.378 . S
C402 C406 1.350 . S
C403 C406 1.463 . S
C403 C408 1.350 . S
C403 N411 1.427 . S
C404 H395 0.930 . S
C404 C402 1.378 . S
C404 C405 1.367 . S
C405 C404 1.367 . S
C405 C407 1.433 . S
C406 C402 1.350 . S
C406 C403 1.463 . S
C406 N410 1.427 . S
C407 H397 0.929 . S
C407 C405 1.433 . S
C407 N410 1.384 . S
C408 H399 0.929 . S
C408 C400 1.378 . S
C408 C403 1.350 . S
C409 H396 0.929 . S
C409 C401 1.433 . S
C409 N411 1.384 . S
N410 C406 1.427 . S
N410 C407 1.384 . S
N411 C403 1.427 . S
N411 C409 1.384 . S
H412 C418 0.930 . S
H413 C422 0.930 . S
H414 C427 0.929 . S
H415 C425 0.929 . S
H416 C420 0.929 . S
H417 C426 0.929 . S
C418 H412 0.930 . S
C418 C419 1.367 . S
C418 C426 1.378 . S
C419 C418 1.367 . S
C419 C427 1.433 . S
C420 H416 0.929 . S
C420 C422 1.378 . S
C420 C424 1.350 . S
C421 C424 1.463 . S
C421 C426 1.350 . S
C421 N429 1.427 . S
C422 H413 0.930 . S
C422 C420 1.378 . S
C422 C423 1.367 . S
C423 C422 1.367 . S
C423 C425 1.433 . S
C424 C420 1.350 . S
C424 C421 1.463 . S
C424 N428 1.427 . S
C425 H415 0.929 . S
C425 C423 1.433 . S
C425 N428 1.384 . S
C426 H417 0.929 . S
C426 C418 1.378 . S
C426 C421 1.350 . S
C427 H414 0.929 . S
C427 C419 1.433 . S
C427 N429 1.384 . S
N428 C424 1.427 . S
N428 C425 1.384 . S
N429 C421 1.427 . S
N429 C427 1.384 . S
H430 C436 0.930 . S
H431 C440 0.930 . S
H432 C445 0.929 . S
H433 C443 0.929 . S
H434 C438 0.929 . S
H435 C444 0.929 . S
C436 H430 0.930 . S
C436 C437 1.367 . S
C436 C444 1.378 . S
C437 C436 1.367 . S
C437 C445 1.433 . S
C438 H434 0.929 . S
C438 C440 1.378 . S
C438 C442 1.350 . S
C439 C442 1.463 . S
C439 C444 1.350 . S
C439 N447 1.427 . S
C440 H431 0.930 . S
C440 C438 1.378 . S
C440 C441 1.367 . S
C441 C440 1.367 . S
C441 C443 1.433 . S
C442 C438 1.350 . S
C442 C439 1.463 . S
C442 N446 1.427 . S
C443 H433 0.929 . S
C443 C441 1.433 . S
C443 N446 1.384 . S
C444 H435 0.929 . S
C444 C436 1.378 . S
C444 C439 1.350 . S
C445 H432 0.929 . S
C445 C437 1.433 . S
C445 N447 1.384 . S
N446 C442 1.427 . S
N446 C443 1.384 . S
N447 C439 1.427 . S
N447 C445 1.384 . S
H448 C454 0.930 . S
H449 C458 0.930 . S
H450 C463 0.929 . S
H451 C461 0.929 . S
H452 C456 0.929 . S
H453 C462 0.929 . S
C454 H448 0.930 . S
C454 C455 1.367 1_545 S
C454 C462 1.378 . S
C455 C454 1.367 1_565 S
C455 C463 1.433 1_655 S
C456 H452 0.929 . S
C456 C458 1.378 . S
C456 C460 1.341 1_565 S
C457 C460 1.460 1_666 S
C457 C462 1.349 1_565 S
C457 N465 1.428 1_655 S
C458 H449 0.930 . S
C458 C456 1.378 . S
C458 C459 1.367 1_565 S
C459 C458 1.367 1_545 S
C459 C461 1.433 1_455 S
C460 C456 1.341 1_545 S
C460 C457 1.460 1_444 S
C460 N464 1.440 1_455 S
C461 H451 0.929 . S
C461 C459 1.433 1_655 S
C461 N464 1.384 . S
C462 H453 0.929 . S
C462 C454 1.378 . S
C462 C457 1.349 1_545 S
C463 H450 0.929 . S
C463 C455 1.433 1_455 S
C463 N465 1.384 . S
N464 C460 1.440 1_655 S
N464 C461 1.384 . S
N465 C457 1.428 1_455 S
N465 C463 1.384 . S
H466 C472 0.930 . S
H467 C476 0.930 . S
H468 C481 0.929 . S
H469 C479 0.929 . S
H470 C474 0.929 . S
H471 C480 0.929 . S
C472 H466 0.930 . S
C472 C473 1.367 . S
C472 C480 1.378 . S
C473 C472 1.367 . S
C473 C481 1.433 . S
C474 H470 0.929 . S
C474 C476 1.378 . S
C474 C478 1.350 . S
C475 C478 1.463 . S
C475 C480 1.350 . S
C475 N483 1.427 . S
C476 H467 0.930 . S
C476 C474 1.378 . S
C476 C477 1.367 . S
C477 C476 1.367 . S
C477 C479 1.433 . S
C478 C474 1.350 . S
C478 C475 1.463 . S
C478 N482 1.427 . S
C479 H469 0.929 . S
C479 C477 1.433 . S
C479 N482 1.384 . S
C480 H471 0.929 . S
C480 C472 1.378 . S
C480 C475 1.350 . S
C481 H468 0.929 . S
C481 C473 1.433 . S
C481 N483 1.384 . S
N482 C478 1.427 . S
N482 C479 1.384 . S
N483 C475 1.427 . S
N483 C481 1.384 . S
H484 C490 0.930 . S
H485 C494 0.930 . S
H486 C499 0.929 1_565 S
H487 C497 0.929 1_545 S
H488 C492 0.929 . S
H489 C498 0.929 . S
C490 H484 0.930 . S
C490 C491 1.367 . S
C490 C498 1.378 . S
C491 C490 1.367 . S
C491 C499 1.442 . S
C492 H488 0.929 . S
C492 C494 1.378 . S
C492 C496 1.350 . S
C493 C496 1.463 1_545 S
C493 C498 1.350 . S
C493 N501 1.427 1_545 S
C494 H485 0.930 . S
C494 C492 1.378 . S
C494 C495 1.367 . S
C495 C494 1.367 . S
C495 C497 1.438 . S
C496 C492 1.350 . S
C496 C493 1.463 1_565 S
C496 N500 1.427 1_565 S
C497 H487 0.929 1_565 S
C497 C495 1.438 . S
C497 N500 1.380 1_565 S
C498 H489 0.929 . S
C498 C490 1.378 . S
C498 C493 1.350 . S
C499 H486 0.929 1_545 S
C499 C491 1.442 . S
C499 N501 1.377 1_545 S
N500 C496 1.427 1_545 S
N500 C497 1.380 1_545 S
N501 C493 1.427 1_565 S
N501 C499 1.377 1_565 S
H502 C508 0.930 . S
H503 C512 0.930 . S
H504 C517 0.929 . S
H505 C515 0.929 . S
H506 C510 0.929 . S
H507 C516 0.929 . S
C508 H502 0.930 . S
C508 C509 1.367 . S
C508 C516 1.378 . S
C509 C508 1.367 . S
C509 C517 1.433 . S
C510 H506 0.929 . S
C510 C512 1.378 . S
C510 C514 1.350 . S
C511 C514 1.463 . S
C511 C516 1.350 . S
C511 N519 1.427 . S
C512 H503 0.930 . S
C512 C510 1.378 . S
C512 C513 1.367 . S
C513 C512 1.367 . S
C513 C515 1.433 . S
C514 C510 1.350 . S
C514 C511 1.463 . S
C514 N518 1.427 . S
C515 H505 0.929 . S
C515 C513 1.433 . S
C515 N518 1.384 . S
C516 H507 0.929 . S
C516 C508 1.378 . S
C516 C511 1.350 . S
C517 H504 0.929 . S
C517 C509 1.433 . S
C517 N519 1.384 . S
N518 C514 1.427 . S
N518 C515 1.384 . S
N519 C511 1.427 . S
N519 C517 1.384 . S
H520 C526 0.930 . S
H521 C530 0.930 . S
H522 C535 0.929 . S
H523 C533 0.929 . S
H524 C528 0.929 . S
H525 C534 0.929 . S
C526 H520 0.930 . S
C526 C527 1.367 . S
C526 C534 1.378 . S
C527 C526 1.367 . S
C527 C535 1.433 . S
C528 H524 0.929 . S
C528 C530 1.378 . S
C528 C532 1.350 . S
C529 C532 1.463 . S
C529 C534 1.350 . S
C529 N537 1.427 . S
C530 H521 0.930 . S
C530 C528 1.378 . S
C530 C531 1.367 . S
C531 C530 1.367 . S
C531 C533 1.433 . S
C532 C528 1.350 . S
C532 C529 1.463 . S
C532 N536 1.427 . S
C533 H523 0.929 . S
C533 C531 1.433 . S
C533 N536 1.384 . S
C534 H525 0.929 . S
C534 C526 1.378 . S
C534 C529 1.350 . S
C535 H522 0.929 . S
C535 C527 1.433 . S
C535 N537 1.384 . S
N536 C532 1.427 . S
N536 C533 1.384 . S
N537 C529 1.427 . S
N537 C535 1.384 . S
H538 C544 0.930 . S
H539 C548 0.930 . S
H540 C553 0.929 . S
H541 C551 0.929 . S
H542 C546 0.929 . S
H543 C552 0.929 . S
C544 H538 0.930 . S
C544 C545 1.367 . S
C544 C552 1.378 . S
C545 C544 1.367 . S
C545 C553 1.433 . S
C546 H542 0.929 . S
C546 C548 1.378 . S
C546 C550 1.350 . S
C547 C550 1.463 . S
C547 C552 1.350 . S
C547 N555 1.427 . S
C548 H539 0.930 . S
C548 C546 1.378 . S
C548 C549 1.367 . S
C549 C548 1.367 . S
C549 C551 1.433 . S
C550 C546 1.350 . S
C550 C547 1.463 . S
C550 N554 1.427 . S
C551 H541 0.929 . S
C551 C549 1.433 . S
C551 N554 1.384 . S
C552 H543 0.929 . S
C552 C544 1.378 . S
C552 C547 1.350 . S
C553 H540 0.929 . S
C553 C545 1.433 . S
C553 N555 1.384 . S
N554 C550 1.427 . S
N554 C551 1.384 . S
N555 C547 1.427 . S
N555 C553 1.384 . S
H556 C562 0.930 . S
H557 C566 0.930 . S
H558 C571 0.929 . S
H559 C569 0.929 . S
H560 C564 0.929 . S
H561 C570 0.929 . S
C562 H556 0.930 . S
C562 C563 1.367 . S
C562 C570 1.378 . S
C563 C562 1.367 . S
C563 C571 1.433 . S
C564 H560 0.929 . S
C564 C566 1.378 . S
C564 C568 1.350 . S
C565 C568 1.463 . S
C565 C570 1.350 . S
C565 N573 1.427 . S
C566 H557 0.930 . S
C566 C564 1.378 . S
C566 C567 1.367 . S
C567 C566 1.367 . S
C567 C569 1.433 . S
C568 C564 1.350 . S
C568 C565 1.463 . S
C568 N572 1.427 . S
C569 H559 0.929 . S
C569 C567 1.433 . S
C569 N572 1.384 . S
C570 H561 0.929 . S
C570 C562 1.378 . S
C570 C565 1.350 . S
C571 H558 0.929 . S
C571 C563 1.433 . S
C571 N573 1.384 . S
N572 C568 1.427 . S
N572 C569 1.384 . S
N573 C565 1.427 . S
N573 C571 1.384 . S
H574 C580 0.930 . S
H575 C584 0.930 . S
H576 C589 0.929 . S
H577 C587 0.929 . S
H578 C582 0.929 . S
H579 C588 0.929 . S
C580 H574 0.930 . S
C580 C581 1.367 1_455 S
C580 C588 1.378 . S
C581 C580 1.367 1_655 S
C581 C589 1.433 . S
C582 H578 0.929 . S
C582 C584 1.378 . S
C582 C586 1.350 1_655 S
C583 C586 1.463 1_656 S
C583 C588 1.350 1_655 S
C583 N591 1.427 . S
C584 H575 0.930 . S
C584 C582 1.378 . S
C584 C585 1.367 1_655 S
C585 C584 1.367 1_455 S
C585 C587 1.433 . S
C586 C582 1.350 1_455 S
C586 C583 1.463 1_454 S
C586 N590 1.427 . S
C587 H577 0.929 . S
C587 C585 1.433 . S
C587 N590 1.384 . S
C588 H579 0.929 . S
C588 C580 1.378 . S
C588 C583 1.350 1_455 S
C589 H576 0.929 . S
C589 C581 1.433 . S
C589 N591 1.384 . S
N590 C586 1.427 . S
N590 C587 1.384 . S
N591 C583 1.427 . S
N591 C589 1.384 . S
C167 C18 1.503 . S
C171 C68 1.485 . S
C185 C8 1.153 . S
C189 C28 1.145 . S
C203 C38 1.509 . S
C207 C48 1.496 . S
C221 C58 1.798 . S
C225 C78 1.799 . S
C239 C19 1.504 . S
C243 C109 1.491 . S
C257 C9 1.148 . S
C261 C89 1.155 . S
C275 C99 1.510 . S
C279 C49 1.497 . S
C293 C119 1.800 . S
C297 C59 1.798 . S
C311 C138 1.504 . S
C315 C108 1.489 . S
C329 C88 1.149 . S
C333 C128 1.141 . S
C347 C148 1.491 . S
C351 C98 1.508 . S
C365 C118 1.798 . S
C369 C158 1.802 . S
C383 C69 1.487 . S
C387 C139 1.503 . S
C401 C129 1.146 . S
C405 C29 1.140 . S
C419 C39 1.504 . S
C423 C149 1.487 . S
C437 C79 1.800 . S
C441 C159 1.801 . S
C455 C1 1.454 . S
C459 C2 1.454 . S
C473 C21 1.457 . S
C477 C22 1.457 1_554 S
C491 C41 1.496 . S
C495 C42 1.496 . S
C509 C62 1.496 1_556 S
C513 C61 1.496 . S
C527 C81 1.461 1_556 S
C531 C82 1.461 . S
C545 C102 1.494 . S
C549 C101 1.494 1_554 S
C563 C122 1.462 . S
C567 C121 1.462 . S
C581 C142 1.487 . S
C585 C141 1.487 . S
