# Generated by pormake.
# Topology wkh, (6)-cn, num edge types: 1
# Building blocks:
#     Node 0, Type 0, BuildingBlock: IZENUY_clean_sbu_0, # of connection points: 6
#     Node 1, Type 0, BuildingBlock: IZENUY_clean_sbu_0, # of connection points: 6
#     Node 2, Type 0, BuildingBlock: IZENUY_clean_sbu_0, # of connection points: 6
#     Node 3, Type 0, BuildingBlock: IZENUY_clean_sbu_0, # of connection points: 6
#     Node 4, Type 0, BuildingBlock: IZENUY_clean_sbu_0, # of connection points: 6
#     Node 5, Type 0, BuildingBlock: IZENUY_clean_sbu_0, # of connection points: 6
#     Node 6, Type 0, BuildingBlock: IZENUY_clean_sbu_0, # of connection points: 6
#     Node 7, Type 0, BuildingBlock: IZENUY_clean_sbu_0, # of connection points: 6
#     Node 8, Type 0, BuildingBlock: IZENUY_clean_sbu_0, # of connection points: 6
#     Node 9, Type 0, BuildingBlock: IZENUY_clean_sbu_0, # of connection points: 6
#     Node 10, Type 0, BuildingBlock: IZENUY_clean_sbu_0, # of connection points: 6
#     Node 11, Type 0, BuildingBlock: IZENUY_clean_sbu_0, # of connection points: 6
#     Edge 12, Type (0, 0), BuildingBlock: UVAHIK_clean_linker_0, # of connection points: 2
#     Edge 13, Type (0, 0), BuildingBlock: UVAHIK_clean_linker_0, # of connection points: 2
#     Edge 14, Type (0, 0), BuildingBlock: UVAHIK_clean_linker_0, # of connection points: 2
#     Edge 15, Type (0, 0), BuildingBlock: UVAHIK_clean_linker_0, # of connection points: 2
#     Edge 16, Type (0, 0), BuildingBlock: UVAHIK_clean_linker_0, # of connection points: 2
#     Edge 17, Type (0, 0), BuildingBlock: UVAHIK_clean_linker_0, # of connection points: 2
#     Edge 18, Type (0, 0), BuildingBlock: UVAHIK_clean_linker_0, # of connection points: 2
#     Edge 19, Type (0, 0), BuildingBlock: UVAHIK_clean_linker_0, # of connection points: 2
#     Edge 20, Type (0, 0), BuildingBlock: UVAHIK_clean_linker_0, # of connection points: 2
#     Edge 21, Type (0, 0), BuildingBlock: UVAHIK_clean_linker_0, # of connection points: 2
#     Edge 22, Type (0, 0), BuildingBlock: UVAHIK_clean_linker_0, # of connection points: 2
#     Edge 23, Type (0, 0), BuildingBlock: UVAHIK_clean_linker_0, # of connection points: 2
#     Edge 24, Type (0, 0), BuildingBlock: UVAHIK_clean_linker_0, # of connection points: 2
#     Edge 25, Type (0, 0), BuildingBlock: UVAHIK_clean_linker_0, # of connection points: 2
#     Edge 26, Type (0, 0), BuildingBlock: UVAHIK_clean_linker_0, # of connection points: 2
#     Edge 27, Type (0, 0), BuildingBlock: UVAHIK_clean_linker_0, # of connection points: 2
#     Edge 28, Type (0, 0), BuildingBlock: UVAHIK_clean_linker_0, # of connection points: 2
#     Edge 29, Type (0, 0), BuildingBlock: UVAHIK_clean_linker_0, # of connection points: 2
#     Edge 30, Type (0, 0), BuildingBlock: UVAHIK_clean_linker_0, # of connection points: 2
#     Edge 31, Type (0, 0), BuildingBlock: UVAHIK_clean_linker_0, # of connection points: 2
#     Edge 32, Type (0, 0), BuildingBlock: UVAHIK_clean_linker_0, # of connection points: 2
#     Edge 33, Type (0, 0), BuildingBlock: UVAHIK_clean_linker_0, # of connection points: 2
#     Edge 34, Type (0, 0), BuildingBlock: UVAHIK_clean_linker_0, # of connection points: 2
#     Edge 35, Type (0, 0), BuildingBlock: UVAHIK_clean_linker_0, # of connection points: 2
#     Edge 36, Type (0, 0), BuildingBlock: UVAHIK_clean_linker_0, # of connection points: 2
#     Edge 37, Type (0, 0), BuildingBlock: UVAHIK_clean_linker_0, # of connection points: 2
#     Edge 38, Type (0, 0), BuildingBlock: UVAHIK_clean_linker_0, # of connection points: 2
#     Edge 39, Type (0, 0), BuildingBlock: UVAHIK_clean_linker_0, # of connection points: 2
#     Edge 40, Type (0, 0), BuildingBlock: UVAHIK_clean_linker_0, # of connection points: 2
#     Edge 41, Type (0, 0), BuildingBlock: UVAHIK_clean_linker_0, # of connection points: 2
#     Edge 42, Type (0, 0), BuildingBlock: UVAHIK_clean_linker_0, # of connection points: 2
#     Edge 43, Type (0, 0), BuildingBlock: UVAHIK_clean_linker_0, # of connection points: 2
#     Edge 44, Type (0, 0), BuildingBlock: UVAHIK_clean_linker_0, # of connection points: 2
#     Edge 45, Type (0, 0), BuildingBlock: UVAHIK_clean_linker_0, # of connection points: 2
#     Edge 46, Type (0, 0), BuildingBlock: UVAHIK_clean_linker_0, # of connection points: 2
#     Edge 47, Type (0, 0), BuildingBlock: UVAHIK_clean_linker_0, # of connection points: 2
# Relax obj value: 0.287
# Max RMSD: 0.256
# Mean RMSD: 0.256
data_MOF--net-wkh--node1-IZENUY_clean_sbu_0--edge1-UVAHIK_clean_linker_0
_symmetry_space_group_name_H-M    P1
_symmetry_Int_Tables_number       1
_symmetry_cell_setting            triclinic
loop_
_symmetry_equiv_pos_as_xyz
'x, y, z'
_cell_length_a     34.012155
_cell_length_b     33.985632
_cell_length_c     102.33421
_cell_angle_alpha  89.822398
_cell_angle_beta   90.096541
_cell_angle_gamma 120.04679
loop_
_atom_site_label
_atom_site_type_symbol
_atom_site_fract_x
_atom_site_fract_y
_atom_site_fract_z
_atom_type_partial_charge
Fe0 Fe 0.22888 0.29839 0.02212 0.0
Fe1 Fe 0.3193 0.30074 0.02569 0.0
O2 O 0.28465 0.32515 0.02847 0.0
Fe3 Fe 0.30618 0.375 0.0381 0.0
O4 O 0.25162 0.36122 0.04545 0.0
O5 O 0.20383 0.2927 0.03829 0.0
O6 O 0.21926 0.24099 0.02459 0.0
C7 C 0.23848 0.22707 0.03246 0.0
C8 C 0.26068 0.39305 0.01896 0.0
O9 O 0.28052 0.25025 0.03468 0.0
C10 C 0.38141 0.38912 0.02214 0.0
O11 O 0.24885 0.30124 1.00528 0.0
O12 O 0.29336 0.27411 1.01012 0.0
O13 O 0.2978 0.4068 0.02506 0.0
O14 O 0.22988 0.3516 0.01897 0.0
C15 C 0.33733 0.32608 0.05159 0.0
O16 O 0.35965 0.35066 0.01674 0.0
O17 O 0.36539 0.39809 0.03224 0.0
C18 C 0.2717 0.2831 1.00174 0.0
O19 O 0.35221 0.32196 0.04074 0.0
O20 O 0.3137 0.34517 0.05203 0.0
C21 C 0.2145 0.32417 0.04648 0.0
Fe22 Fe 0.94339 0.30642 0.20682 0.0
Fe23 Fe 0.91346 0.23278 0.18551 0.0
O24 O 0.95605 0.28315 0.19302 0.0
Fe25 Fe 0.01172 0.3102 0.1867 0.0
O26 O 0.03348 0.3017 0.20185 0.0
O27 O 0.99998 0.32815 0.21456 0.0
O28 O 0.92528 0.25475 0.21613 0.0
C29 C 0.89455 0.21553 0.21281 0.0
C30 C 1.0006 0.38452 0.19353 0.0
O31 O 0.88217 0.20682 0.20093 0.0
C32 C 0.96625 0.28745 0.16377 0.0
O33 O 0.88392 0.28702 0.20166 0.0
O34 O 0.87983 0.25905 0.18206 0.0
O35 O 0.02538 0.36742 0.19129 0.0
O36 O 0.96152 0.36072 0.19851 0.0
C37 C 0.9839 0.21704 0.18408 0.0
O38 O 0.93746 0.24934 0.16874 0.0
O39 O 0.99277 0.31972 0.1711 0.0
C40 C 0.86318 0.27224 0.19083 0.0
O41 O 0.94444 0.20301 0.18842 0.0
O42 O 0.00897 0.25822 0.18093 0.0
C43 C 0.02933 0.31587 0.21283 0.0
Fe44 Fe 0.6836 0.91179 0.35154 0.0
Fe45 Fe 0.70276 0.0095 0.35181 0.0
O46 O 0.6745 0.95429 0.3585 0.0
Fe47 Fe 0.63789 0.94181 0.37212 0.0
O48 O 0.6711 0.9244 0.38182 0.0
O49 O 0.67625 0.8804 0.36709 0.0
O50 O 0.74367 0.94347 0.35524 0.0
C51 C 0.76911 0.98381 0.35152 0.0
C52 C 0.5933 0.86191 0.35608 0.0
O53 O 0.75281 0.00705 0.34687 0.0
C54 C 0.61665 0.99751 0.35823 0.0
O55 O 0.69331 0.93546 0.33465 0.0
O56 O 0.67566 0.98907 0.33609 0.0
O57 O 0.59853 0.88239 0.36691 0.0
O58 O 0.62419 0.87799 0.34755 0.0
C59 C 0.71339 0.02868 0.37793 0.0
O60 O 0.65833 0.02241 0.3557 0.0
O61 O 0.60183 0.959 0.36352 0.0
C62 C 0.68323 0.96295 0.32917 0.0
O63 O 0.73179 0.03299 0.36696 0.0
O64 O 0.672 0.99863 0.37977 0.0
C65 C 0.67918 0.89316 0.37889 0.0
Fe66 Fe 0.70152 0.63669 0.53841 0.0
Fe67 Fe 0.77454 0.68247 0.517 0.0
O68 O 0.72432 0.67381 0.52479 0.0
Fe69 Fe 0.69682 0.70281 0.51901 0.0
O70 O 0.70618 0.73223 0.53437 0.0
O71 O 0.68013 0.67079 0.54661 0.0
O72 O 0.75308 0.66982 0.54763 0.0
C73 C 0.79275 0.6805 0.54418 0.0
C74 C 0.62257 0.61719 0.52634 0.0
O75 O 0.80171 0.67757 0.53227 0.0
C76 C 0.71799 0.68051 0.49573 0.0
O77 O 0.72098 0.59727 0.53292 0.0
O78 O 0.7492 0.62271 0.51343 0.0
O79 O 0.64012 0.65914 0.524 0.0
O80 O 0.64703 0.60101 0.53017 0.0
C81 C 0.78957 0.76848 0.5157 0.0
O82 O 0.75645 0.6897 0.50039 0.0
O83 O 0.68629 0.67507 0.50328 0.0
C84 C 0.73614 0.59232 0.52208 0.0
O85 O 0.80378 0.7431 0.51995 0.0
O86 O 0.74815 0.75241 0.51296 0.0
C87 C 0.69221 0.71256 0.54525 0.0
Fe88 Fe 0.06913 0.70855 0.70343 0.0
Fe89 Fe 0.08484 0.78778 0.6851 0.0
O90 O 0.0484 0.7339 0.69223 0.0
Fe91 Fe 0.98946 0.70568 0.68852 0.0
O92 O 0.97019 0.67479 0.70393 0.0
O93 O 0.03039 0.70651 0.7162 0.0
O94 O 0.11169 0.762 0.71094 0.0
C95 C 0.11731 0.80173 0.71062 0.0
C96 C 1.00424 0.63446 0.68752 0.0
O97 O 0.10362 0.81515 0.70102 0.0
C98 C 0.02859 0.74664 0.66428 0.0
O99 O 0.11113 0.71063 0.69186 0.0
O100 O 0.13312 0.77913 0.6839 0.0
O101 O 0.99233 0.65878 0.68115 0.0
O102 O 0.0291 0.64997 0.6977 0.0
C103 C 0.00892 0.79266 0.69305 0.0
O104 O 0.069 0.76513 0.66843 0.0
O105 O 0.99598 0.7306 0.67227 0.0
C106 C 0.13901 0.74559 0.68546 0.0
O107 O 0.04244 0.8056 0.68543 0.0
O108 O 0.98424 0.7512 0.696 0.0
C109 C 0.98788 0.68745 0.71502 0.0
Fe110 Fe 0.31768 0.09001 0.85231 0.0
Fe111 Fe 0.30413 0.99418 0.85148 0.0
O112 O 0.3307 0.04902 0.85846 0.0
Fe113 Fe 0.36962 0.06253 0.87158 0.0
O114 O 0.33559 0.0762 0.88214 0.0
O115 O 0.32395 0.1187 0.86825 0.0
O116 O 0.25804 0.05483 0.85616 0.0
C117 C 0.2338 0.01577 0.85142 0.0
C118 C 0.40823 0.14436 0.85618 0.0
O119 O 0.25158 0.99332 0.84724 0.0
C120 C 0.393 0.01072 0.85668 0.0
O121 O 0.30816 0.06854 0.83524 0.0
O122 O 0.3287 0.01678 0.83558 0.0
O123 O 0.40581 0.12305 0.86668 0.0
O124 O 0.37623 0.1277 0.84801 0.0
C125 C 0.29855 0.97293 0.87743 0.0
O126 O 0.35131 0.98438 0.85446 0.0
O127 O 0.40668 0.04879 0.86211 0.0
C128 C 0.31906 0.04267 0.82922 0.0
O129 O 0.2778 0.9684 0.86683 0.0
O130 O 0.33926 0.00498 0.87894 0.0
C131 C 0.32347 0.10502 0.87986 0.0
Fe132 Fe 0.70792 0.69649 0.84014 0.0
Fe133 Fe 0.63022 0.70415 0.8276 0.0
O134 O 0.67926 0.72743 0.83766 0.0
Fe135 Fe 0.70141 0.78185 0.84478 0.0
O136 O 0.76046 0.79627 0.84307 0.0
O137 O 0.75802 0.74008 0.83183 0.0
O138 O 0.69072 0.66573 0.8247 0.0
C139 C 0.68449 0.67993 0.81398 0.0
C140 C 0.71648 0.73687 0.86474 0.0
O141 O 0.66261 0.70085 0.81374 0.0
C142 C 0.60556 0.74398 0.8468 0.0
O143 O 0.65885 0.65153 0.84836 0.0
O144 O 0.6105 0.64472 0.83291 0.0
O145 O 0.69734 0.75908 0.86137 0.0
O146 O 0.73092 0.72075 0.85613 0.0
C147 C 0.67717 0.79725 0.82023 0.0
O148 O 0.59506 0.70799 0.84047 0.0
O149 O 0.64609 0.77648 0.84737 0.0
C150 C 0.62093 0.62848 0.84273 0.0
O151 O 0.64138 0.75872 0.82072 0.0
O152 O 0.70764 0.80896 0.82886 0.0
C153 C 0.77753 0.78168 0.83476 0.0
Fe154 Fe 0.01639 0.68957 1.00978 0.0
Fe155 Fe 0.94036 0.62553 0.9912 0.0
O156 O 0.96029 0.66658 1.00391 0.0
Fe157 Fe 0.9246 0.68533 1.01077 0.0
O158 O 0.96289 0.74371 1.00599 0.0
O159 O 0.02354 0.74479 1.01372 0.0
O160 O 0.03951 0.71256 0.99393 0.0
C161 C 0.03023 0.69035 0.98344 0.0
C162 C 0.97481 0.6818 0.03295 0.0
O163 O 0.99567 0.65074 0.98263 0.0
C164 C 0.86349 0.5953 1.00822 0.0
O165 O 0.02014 0.63895 1.00684 0.0
O166 O 0.95205 0.58661 1.00054 0.0
O167 O 0.95006 0.69521 0.02739 0.0
O168 O 0.99664 0.66833 0.02613 0.0
C169 C 0.9019 0.67633 0.98363 0.0
O170 O 0.88137 0.59437 0.9974 0.0
O171 O 0.88402 0.62832 1.01594 0.0
C172 C 0.99027 0.59778 1.00548 0.0
O173 O 0.92753 0.66077 0.98079 0.0
O174 O 0.89288 0.67961 0.99548 0.0
C175 C 1.00395 0.76532 1.0094 0.0
Fe176 Fe 0.30986 0.01579 0.17457 0.0
Fe177 Fe 0.30475 0.93334 0.16078 0.0
O178 O 0.28007 0.95661 0.17125 0.0
Fe179 Fe 0.2252 0.92207 0.17797 0.0
O180 O 0.2098 0.96613 0.17721 0.0
O181 O 0.26581 0.02278 0.16668 0.0
O182 O 0.34089 0.03285 0.15916 0.0
C183 C 0.3285 0.01397 0.14819 0.0
C184 C 0.26865 0.97815 0.19877 0.0
O185 O 0.30842 0.97119 0.1474 0.0
C186 C 0.2645 0.86533 0.17918 0.0
O187 O 0.35543 0.01166 0.18239 0.0
O188 O 0.36368 0.97303 0.16641 0.0
O189 O 0.24658 0.93754 0.19475 0.0
O190 O 0.28513 0.01077 0.19073 0.0
C191 C 0.21225 0.88719 0.15291 0.0
O192 O 0.30082 0.8924 0.17316 0.0
O193 O 0.23129 0.87219 0.17968 0.0
C194 C 0.37934 0.99859 0.17642 0.0
O195 O 0.25094 0.89039 0.15345 0.0
O196 O 0.19951 0.90425 0.16176 0.0
C197 C 0.22415 0.99947 0.16946 0.0
Fe198 Fe 0.38374 0.30666 0.32722 0.0
Fe199 Fe 0.30998 0.23035 0.34428 0.0
O200 O 0.335 0.28546 0.33737 0.0
Fe201 Fe 0.30995 0.3195 0.34021 0.0
O202 O 0.32786 0.35042 0.32471 0.0
O203 O 0.3527 0.31293 0.31351 0.0
O204 O 0.36918 0.25128 0.32015 0.0
C205 C 0.33172 0.21426 0.31955 0.0
C206 C 0.39842 0.38329 0.34259 0.0
O207 O 0.30191 0.20398 0.32827 0.0
C208 C 0.2987 0.27615 0.36463 0.0
O209 O 0.41736 0.30004 0.34004 0.0
O210 O 0.36382 0.23217 0.34671 0.0
O211 O 0.36069 0.36165 0.34836 0.0
O212 O 0.40687 0.36649 0.33258 0.0
C213 C 0.23645 0.237 0.33479 0.0
O214 O 0.3153 0.25198 0.36098 0.0
O215 O 0.28687 0.29563 0.35628 0.0
C216 C 0.40492 0.26359 0.34639 0.0
O217 O 0.25218 0.21968 0.3427 0.0
O218 O 0.2582 0.27878 0.33206 0.0
C219 C 0.3329 0.33587 0.31391 0.0
Fe220 Fe 0.0747 0.37145 0.49503 0.0
Fe221 Fe 0.08235 0.30114 0.5124 0.0
O222 O 0.04945 0.32272 0.50527 0.0
Fe223 Fe 0.98997 0.29371 0.50801 0.0
O224 O 0.975 0.3091 0.49244 0.0
O225 O 0.03815 0.33924 0.48134 0.0
O226 O 0.11715 0.35934 0.48799 0.0
C227 C 0.11872 0.32289 0.48744 0.0
C228 C 0.00853 0.38089 0.51011 0.0
O229 O 0.1012 0.29327 0.49638 0.0
C230 C 0.02432 0.28846 0.53263 0.0
O231 O 0.11467 0.40707 0.50769 0.0
O232 O 0.13289 0.35643 0.51436 0.0
O233 O 0.99381 0.34313 0.51586 0.0
O234 O 0.03553 0.39149 0.5004 0.0
C235 C 0.00584 0.2241 0.50312 0.0
O236 O 0.06539 0.30715 0.52899 0.0
O237 O 0.99288 0.27259 0.52422 0.0
C238 C 0.14081 0.39688 0.51381 0.0
O239 O 0.03749 0.24195 0.51142 0.0
O240 O 0.98342 0.24311 0.50002 0.0
C241 C 0.99537 0.31697 0.48166 0.0
Fe242 Fe 0.69397 0.99988 0.67803 0.0
Fe243 Fe 0.69632 0.071 0.65914 0.0
O244 O 0.72039 0.05668 0.67244 0.0
Fe245 Fe 0.77067 0.09845 0.68019 0.0
O246 O 0.8005 0.06808 0.67674 0.0
O247 O 0.74603 1.00246 0.68376 0.0
O248 O 0.70319 0.981 0.66249 0.0
C249 C 0.68857 0.98675 0.65174 0.0
C250 C 0.71551 0.0423 0.70146 0.0
O251 O 0.67589 0.01606 0.6506 0.0
C252 C 0.73074 0.14925 0.67583 0.0
O253 O 0.63668 0.98568 0.67333 0.0
O254 O 0.64205 0.05045 0.66767 0.0
O255 O 0.7536 0.07223 0.69673 0.0
O256 O 0.68366 0.01604 0.69394 0.0
C257 C 0.78706 0.1213 0.65301 0.0
O258 O 0.71474 0.12929 0.66501 0.0
O259 O 0.74478 0.13198 0.68422 0.0
C260 C 0.61837 0.00954 0.67135 0.0
O261 O 0.74754 0.09165 0.64961 0.0
O262 O 0.79684 0.13141 0.66499 0.0
C263 C 0.7872 0.0285 0.68085 0.0
C264 C 0.78594 0.53723 1.00017 0.0
C265 C 0.81416 0.56432 1.01039 0.0
C266 C 0.73861 0.51632 1.00125 0.0
C267 C 0.6534 0.53403 0.01789 0.0
H268 H 0.56715 0.41264 1.00599 0.0
C269 C 0.46075 0.44883 0.02808 0.0
C270 C 0.43033 0.41755 0.01895 0.0
C271 C 0.50767 0.46873 0.02628 0.0
C272 C 0.59076 0.44694 1.00915 0.0
H273 H 0.81446 0.58733 0.03019 0.0
H274 H 0.73224 0.55068 0.03204 0.0
H275 H 0.64837 0.43942 1.00488 0.0
H276 H 0.4254 0.38543 1.00026 0.0
H277 H 0.50711 0.4212 0.99693 0.0
H278 H 0.59614 0.54199 0.02203 0.0
C279 C 0.74671 0.54647 0.0231 0.0
C280 C 0.6373 0.46212 1.00858 0.0
C281 C 0.79386 0.56715 0.02206 0.0
C282 C 0.44791 0.40905 1.00755 0.0
C283 C 0.49479 0.4292 1.00571 0.0
C284 C 0.60693 0.51903 0.01837 0.0
C285 C 0.71863 0.52218 1.01254 0.0
C286 C 0.66911 0.50568 1.01306 0.0
C287 C 0.52528 0.45814 1.01525 0.0
C288 C 0.57494 0.47516 1.01409 0.0
H289 H 0.80034 0.53434 0.99104 0.0
H290 H 0.71784 0.49773 0.99295 0.0
H291 H 0.67713 0.56817 0.02117 0.0
H292 H 0.44844 0.456 0.037 0.0
H293 H 0.53 0.49061 0.03389 0.0
C294 C 0.2289 0.8018 0.19503 0.0
C295 C 0.25493 0.81997 0.18364 0.0
C296 C 0.20511 0.75493 0.19725 0.0
C297 C 0.18808 0.64344 0.18611 0.0
H298 H 0.063 0.60026 0.19618 0.0
C299 C 0.05331 0.45487 0.18145 0.0
C300 C 0.02177 0.43429 0.19164 0.0
C301 C 0.08096 0.502 0.18078 0.0
C302 C 0.09789 0.61162 0.19353 0.0
H303 H 0.27888 0.80355 0.16606 0.0
H304 H 0.23765 0.72134 0.16998 0.0
H305 H 0.1168 0.68165 0.19526 0.0
H306 H 0.99309 0.44718 0.20885 0.0
H307 H 0.04184 0.53017 0.20776 0.0
H308 H 0.1692 0.57345 0.18435 0.0
C309 C 0.23582 0.74342 0.17726 0.0
C310 C 0.12889 0.6584 0.19302 0.0
C311 C 0.25989 0.79059 0.17506 0.0
C312 C 0.01674 0.46214 0.2008 0.0
C313 C 0.04488 0.50966 0.20019 0.0
C314 C 0.15714 0.59666 0.18666 0.0
C315 C 0.20646 0.72495 0.18808 0.0
C316 C 0.17436 0.67497 0.18923 0.0
C317 C 0.07831 0.53007 0.19037 0.0
C318 C 0.11145 0.58005 0.19025 0.0
H319 H 0.22426 0.82369 0.20177 0.0
H320 H 0.18381 0.74205 0.20586 0.0
H321 H 0.22287 0.6549 0.1833 0.0
H322 H 0.0577 0.43425 0.17418 0.0
H323 H 0.10516 0.51637 0.17284 0.0
C324 C 0.42686 0.22284 0.36226 0.0
C325 C 0.43841 0.2518 0.35137 0.0
C326 C 0.44959 0.19901 0.36477 0.0
C327 C 0.54748 0.18553 0.35517 0.0
H328 H 0.46228 0.05758 0.36136 0.0
C329 C 0.59927 0.0516 0.34695 0.0
C330 C 0.58784 0.01831 0.35667 0.0
C331 C 0.57984 0.07921 0.34689 0.0
C332 C 0.48658 0.09323 0.3598 0.0
H333 H 0.48506 0.28143 0.33515 0.0
H334 H 0.52498 0.23968 0.33948 0.0
H335 H 0.43541 0.11195 0.36131 0.0
H336 H 0.54509 0.98594 0.37351 0.0
H337 H 0.51066 0.03447 0.37341 0.0
H338 H 0.5985 0.16664 0.35345 0.0
C339 C 0.49853 0.23558 0.34617 0.0
C340 C 0.47128 0.12451 0.35981 0.0
C341 C 0.4759 0.25978 0.34371 0.0
C342 C 0.55421 0.0111 0.36585 0.0
C343 C 0.53476 0.03905 0.36582 0.0
C344 C 0.56276 0.15426 0.35515 0.0
C345 C 0.48411 0.20331 0.35636 0.0
C346 C 0.50146 0.17099 0.35737 0.0
C347 C 0.54862 0.07444 0.35659 0.0
C348 C 0.53237 0.10765 0.35728 0.0
H349 H 0.3981 0.21623 0.36833 0.0
H350 H 0.43848 0.17538 0.3729 0.0
H351 H 0.57168 0.22109 0.35342 0.0
H352 H 0.6248 0.05758 0.33967 0.0
H353 H 0.59022 0.10518 0.33942 0.0
C354 C 0.21548 0.4665 0.50933 0.0
C355 C 0.18665 0.43199 0.51801 0.0
C356 C 0.26272 0.48916 0.51116 0.0
C357 C 0.34904 0.46771 0.52647 0.0
H358 H 0.43226 0.59371 0.51778 0.0
C359 C 0.54633 0.54635 0.5226 0.0
C360 C 0.57241 0.59096 0.52727 0.0
C361 C 0.4987 0.5258 0.52191 0.0
C362 C 0.40949 0.55845 0.52033 0.0
H363 H 0.18398 0.39679 0.53595 0.0
H364 H 0.26584 0.43746 0.53945 0.0
H365 H 0.35073 0.56436 0.51649 0.0
H366 H 0.56918 0.64764 0.53581 0.0
H367 H 0.48724 0.61186 0.53492 0.0
H368 H 0.40797 0.4621 0.53051 0.0
C369 C 0.25245 0.44617 0.53102 0.0
C370 C 0.36269 0.54156 0.51947 0.0
C371 C 0.20549 0.42346 0.52914 0.0
C372 C 0.55005 0.61349 0.53192 0.0
C373 C 0.50299 0.5931 0.53132 0.0
C374 C 0.39592 0.48463 0.52732 0.0
C375 C 0.2818 0.47773 0.52173 0.0
C376 C 0.3318 0.49607 0.52264 0.0
C377 C 0.47668 0.54958 0.52596 0.0
C378 C 0.42675 0.53036 0.5244 0.0
H379 H 0.20195 0.47306 0.50053 0.0
H380 H 0.28429 0.51329 0.50381 0.0
H381 H 0.32627 0.43219 0.52872 0.0
H382 H 0.56276 0.52832 0.51893 0.0
H383 H 0.47934 0.4921 0.51776 0.0
C384 C 0.76452 0.22028 0.68925 0.0
C385 C 0.74557 0.19832 0.67732 0.0
C386 C 0.78961 0.26768 0.68996 0.0
C387 C 0.81759 0.37561 0.67376 0.0
H388 H 0.93535 0.41898 0.68996 0.0
C389 C 0.95416 0.56691 0.67346 0.0
C390 C 0.9802 0.58473 0.68488 0.0
C391 C 0.92635 0.51988 0.67182 0.0
C392 C 0.90245 0.40772 0.68556 0.0
H393 H 0.73518 0.20958 0.65704 0.0
H394 H 0.77832 0.29263 0.6584 0.0
H395 H 0.88146 0.33781 0.6891 0.0
H396 H 0.99815 0.56659 0.70338 0.0
H397 H 0.94926 0.48516 0.7007 0.0
H398 H 0.83805 0.44554 0.67049 0.0
C399 C 0.77402 0.27285 0.66715 0.0
C400 C 0.87152 0.36103 0.68505 0.0
C401 C 0.74907 0.22521 0.6664 0.0
C402 C 0.97893 0.55421 0.6944 0.0
C403 C 0.95079 0.50726 0.69284 0.0
C404 C 0.84838 0.42249 0.67441 0.0
C405 C 0.79612 0.2945 0.67882 0.0
C406 C 0.82862 0.34439 0.67922 0.0
C407 C 0.92348 0.48934 0.68162 0.0
C408 C 0.89123 0.43928 0.6804 0.0
H409 H 0.76226 0.20081 0.6979 0.0
H410 H 0.80537 0.28337 0.69917 0.0
H411 H 0.78476 0.36383 0.66923 0.0
H412 H 0.95445 0.58937 0.66588 0.0
H413 H 0.90674 0.50754 0.66292 0.0
C414 C 0.57957 0.7823 0.86222 0.0
C415 C 0.57058 0.75463 0.85117 0.0
C416 C 0.55709 0.80676 0.86408 0.0
C417 C 0.46337 0.82398 0.85212 0.0
H418 H 0.54749 0.9501 0.86075 0.0
C419 C 0.41339 0.96021 0.84467 0.0
C420 C 0.42318 0.99153 0.85483 0.0
C421 C 0.43301 0.9327 0.84443 0.0
C422 C 0.52342 0.91496 0.85847 0.0
H423 H 0.5286 0.72817 0.83391 0.0
H424 H 0.48893 0.77071 0.83716 0.0
H425 H 0.57342 0.89498 0.86101 0.0
H426 H 0.46318 0.02044 0.87232 0.0
H427 H 0.49785 0.97217 0.87193 0.0
H428 H 0.41348 0.84406 0.84946 0.0
C429 C 0.5132 0.77335 0.84446 0.0
C430 C 0.53819 0.88321 0.85867 0.0
C431 C 0.5356 0.74856 0.84265 0.0
C432 C 0.45548 0.99699 0.86429 0.0
C433 C 0.47505 0.9691 0.86409 0.0
C434 C 0.4486 0.85572 0.85193 0.0
C435 C 0.52532 0.80443 0.85487 0.0
C436 C 0.50843 0.83733 0.85542 0.0
C437 C 0.46269 0.93546 0.85441 0.0
C438 C 0.47855 0.90173 0.85497 0.0
H439 H 0.60652 0.78768 0.86892 0.0
H440 H 0.56637 0.82936 0.87239 0.0
H441 H 0.4394 0.78893 0.84971 0.0
H442 H 0.38875 0.95545 0.83721 0.0
H443 H 0.42375 0.90819 0.83661 0.0
C444 C 0.56575 0.54818 0.83608 0.0
C445 C 0.59458 0.57895 0.84558 0.0
C446 C 0.5475 0.50131 0.83779 0.0
C447 C 0.52167 0.41096 0.86201 0.0
H448 H 0.53626 0.34767 0.83262 0.0
C449 C 0.46614 0.22001 0.86561 0.0
C450 C 0.44232 0.19346 0.85474 0.0
C451 C 0.48995 0.26766 0.86476 0.0
C452 C 0.53142 0.36456 0.8409 0.0
H453 H 0.62454 0.58429 0.8647 0.0
H454 H 0.59181 0.50245 0.86777 0.0
H455 H 0.56219 0.42851 0.83085 0.0
H456 H 0.42768 0.19633 0.83423 0.0
H457 H 0.46813 0.27844 0.83281 0.0
H458 H 0.48968 0.34686 0.87196 0.0
C459 C 0.58375 0.51465 0.85895 0.0
C460 C 0.54631 0.41099 0.83986 0.0
C461 C 0.60251 0.56155 0.85717 0.0
C462 C 0.4455 0.2156 0.84282 0.0
C463 C 0.46902 0.26299 0.84199 0.0
C464 C 0.50623 0.36431 0.86301 0.0
C465 C 0.5571 0.48408 0.84911 0.0
C466 C 0.54127 0.43467 0.85035 0.0
C467 C 0.49049 0.28982 0.85304 0.0
C468 C 0.51049 0.3403 0.85241 0.0
H469 H 0.55904 0.56033 0.82702 0.0
H470 H 0.52653 0.47852 0.83011 0.0
H471 H 0.51722 0.42826 0.87026 0.0
H472 H 0.46436 0.20415 0.87495 0.0
H473 H 0.50686 0.2871 0.87341 0.0
C474 C 0.9994 0.53207 0.99865 0.0
C475 C 0.00482 0.56434 1.00806 0.0
C476 C 0.02513 0.51028 0.99948 0.0
C477 C 0.10237 0.49202 0.02155 0.0
H478 H 0.16135 0.49131 0.98922 0.0
C479 C 0.25321 0.46157 0.0223 0.0
C480 C 0.24695 0.42546 1.01428 0.0
C481 C 0.22651 0.48185 0.02045 0.0
C482 C 0.14508 0.49129 0.99831 0.0
H483 H 0.03829 0.59675 0.02615 0.0
H484 H 0.08253 0.55893 0.02769 0.0
H485 H 0.10225 0.51221 0.98889 0.0
H486 H 0.21151 0.38525 0.99732 0.0
H487 H 0.16591 0.4214 0.99388 0.0
H488 H 0.14565 0.4718 0.03099 0.0
C489 C 0.05872 0.54997 0.01969 0.0
C490 C 0.11086 0.50273 0.99812 0.0
C491 C 0.03334 0.57172 0.01881 0.0
C492 C 0.21715 0.41326 1.00359 0.0
C493 C 0.19091 0.43385 1.00165 0.0
C494 C 0.13678 0.48098 0.02175 0.0
C495 C 0.05633 0.5203 1.00978 0.0
C496 C 0.08929 0.50357 1.00976 0.0
C497 C 0.19361 0.46667 1.01047 0.0
C498 C 0.15877 0.48081 1.01016 0.0
H499 H 0.97805 0.52629 0.99018 0.0
H500 H 0.02198 0.48702 0.9918 0.0
H501 H 0.08606 0.49158 0.03067 0.0
H502 H 0.27549 0.47121 0.03071 0.0
H503 H 0.22978 0.50763 0.02728 0.0
C504 C 0.46014 0.02689 0.16958 0.0
C505 C 0.4289 0.02248 0.17928 0.0
C506 C 0.50686 0.05592 0.17142 0.0
C507 C 0.59645 0.11631 0.19606 0.0
H508 H 0.65986 0.20064 0.16777 0.0
C509 C 0.78726 0.25156 0.20071 0.0
C510 C 0.8141 0.2577 0.1896 0.0
C511 C 0.73963 0.22752 0.19984 0.0
C512 C 0.64301 0.17709 0.17573 0.0
H513 H 0.42269 0.04336 0.19881 0.0
H514 H 0.50431 0.09307 0.20213 0.0
H515 H 0.57927 0.14558 0.16561 0.0
H516 H 0.81161 0.246 0.16871 0.0
H517 H 0.72962 0.20398 0.16723 0.0
H518 H 0.66033 0.14662 0.20604 0.0
C519 C 0.49256 0.07443 0.19305 0.0
C520 C 0.59666 0.14548 0.17448 0.0
C521 C 0.44577 0.04593 0.19114 0.0
C522 C 0.79216 0.24196 0.17749 0.0
C523 C 0.74478 0.21783 0.17664 0.0
C524 C 0.64304 0.14755 0.19726 0.0
C525 C 0.52356 0.08071 0.18308 0.0
C526 C 0.57287 0.11445 0.18457 0.0
C527 C 0.71767 0.20899 0.18785 0.0
C528 C 0.66718 0.1782 0.18706 0.0
H529 H 0.44843 0.0096 0.1603 0.0
H530 H 0.52995 0.05958 0.16362 0.0
H531 H 0.57911 0.09276 0.204 0.0
H532 H 0.80289 0.26301 0.21021 0.0
H533 H 0.72005 0.22239 0.20865 0.0
C534 C 0.45087 0.46342 0.33536 0.0
C535 C 0.426 0.43254 0.34537 0.0
C536 C 0.46791 0.51004 0.33707 0.0
C537 C 0.49633 0.60025 0.36136 0.0
H538 H 0.46397 0.65698 0.33366 0.0
C539 C 0.53854 0.78618 0.36596 0.0
C540 C 0.55853 0.81316 0.3548 0.0
C541 C 0.51631 0.73867 0.36513 0.0
C542 C 0.47367 0.6419 0.34144 0.0
H543 H 0.4025 0.42657 0.36536 0.0
H544 H 0.43324 0.50801 0.36844 0.0
H545 H 0.44409 0.5777 0.33166 0.0
H546 H 0.56698 0.8113 0.33385 0.0
H547 H 0.52903 0.72923 0.33243 0.0
H548 H 0.52707 0.66462 0.371 0.0
C549 C 0.43908 0.49617 0.35923 0.0
C550 C 0.46235 0.59645 0.34027 0.0
C551 C 0.42151 0.44954 0.35746 0.0
C552 C 0.55218 0.79156 0.34265 0.0
C553 C 0.5302 0.74426 0.34183 0.0
C554 C 0.50815 0.64592 0.36247 0.0
C555 C 0.46101 0.52672 0.3489 0.0
C556 C 0.47384 0.57523 0.35016 0.0
C557 C 0.51357 0.71719 0.35313 0.0
C558 C 0.49727 0.66749 0.35248 0.0
H559 H 0.45469 0.45142 0.32591 0.0
H560 H 0.4853 0.53295 0.32901 0.0
H561 H 0.50568 0.58479 0.36912 0.0
H562 H 0.5428 0.80166 0.37548 0.0
H563 H 0.5029 0.71887 0.37398 0.0
C564 C 0.95979 0.39938 0.5243 0.0
C565 C 0.98525 0.40717 0.51277 0.0
C566 C 0.93155 0.41804 0.52589 0.0
C567 C 0.86522 0.4547 0.50643 0.0
H568 H 0.85779 0.51223 0.53824 0.0
C569 C 0.76917 0.55415 0.50879 0.0
C570 C 0.75081 0.55796 0.52072 0.0
C571 C 0.79325 0.53087 0.50807 0.0
C572 C 0.85864 0.49542 0.52937 0.0
H573 H 1.00223 0.44232 0.49411 0.0
H574 H 0.95276 0.47461 0.49688 0.0
H575 H 0.91178 0.48496 0.53681 0.0
H576 H 0.74055 0.53696 0.54105 0.0
H577 H 0.78115 0.49479 0.53968 0.0
H578 H 0.81173 0.46416 0.49901 0.0
C579 C 0.95457 0.45386 0.50465 0.0
C580 C 0.88994 0.48013 0.52853 0.0
C581 C 0.9833 0.43574 0.50313 0.0
C582 C 0.75419 0.53478 0.53169 0.0
C583 C 0.77815 0.51116 0.53095 0.0
C584 C 0.83356 0.46942 0.50732 0.0
C585 C 0.92764 0.44442 0.51592 0.0
C586 C 0.89402 0.46018 0.51698 0.0
C587 C 0.79937 0.5102 0.51923 0.0
C588 C 0.83019 0.49061 0.51873 0.0
H589 H 0.96049 0.37755 0.53192 0.0
H590 H 0.91122 0.41011 0.53468 0.0
H591 H 0.86687 0.43858 0.4975 0.0
H592 H 0.76727 0.57146 0.50012 0.0
H593 H 0.80921 0.53139 0.49888 0.0
C594 C 0.5419 1.00209 0.67606 0.0
C595 C 0.56817 0.98495 0.67063 0.0
C596 C 0.49434 0.97444 0.67677 0.0
C597 C 0.39732 0.86946 0.6629 0.0
H598 H 0.33802 0.86166 0.69589 0.0
C599 C 0.20253 0.7745 0.66971 0.0
C600 C 0.18427 0.75348 0.68177 0.0
C601 C 0.24944 0.79816 0.66768 0.0
C602 C 0.3542 0.86304 0.68666 0.0
H603 H 0.56541 0.92667 0.66112 0.0
H604 H 0.48354 0.8793 0.66221 0.0
H605 H 0.41892 0.91651 0.69329 0.0
H606 H 0.20049 0.73842 0.70092 0.0
H607 H 0.28285 0.77915 0.69732 0.0
H608 H 0.33293 0.81573 0.65629 0.0
C609 C 0.499 0.91363 0.66597 0.0
C610 C 0.40038 0.89507 0.6851 0.0
C611 C 0.54606 0.94078 0.66542 0.0
C612 C 0.21362 0.75346 0.69143 0.0
C613 C 0.26078 0.77761 0.68945 0.0
C614 C 0.3512 0.83763 0.66443 0.0
C615 C 0.47248 0.92966 0.67185 0.0
C616 C 0.42257 0.89847 0.67322 0.0
C617 C 0.27927 0.80179 0.67774 0.0
C618 C 0.32904 0.83385 0.67635 0.0
H619 H 0.55816 0.03591 0.68021 0.0
H620 H 0.47473 0.98787 0.68128 0.0
H621 H 0.41327 0.87134 0.65358 0.0
H622 H 0.18064 0.77575 0.66221 0.0
H623 H 0.26234 0.81647 0.65858 0.0
C624 C 0.25831 0.28456 0.9773 0.0
C625 C 0.26941 0.26637 0.98814 0.0
C626 C 0.25847 0.26878 0.96457 0.0
C627 C 0.24866 0.16893 0.9472 0.0
H628 H 0.31967 0.25159 0.91935 0.0
C629 C 0.30987 0.10755 0.90386 0.0
C630 C 0.31178 0.12485 0.89121 0.0
C631 C 0.29976 0.12574 0.91471 0.0
C632 C 0.29901 0.22798 0.92692 0.0
H633 H 0.28842 0.21667 0.99401 0.0
H634 H 0.28784 0.18916 0.97218 0.0
H635 H 0.30965 0.28189 0.94003 0.0
H636 H 0.3043 0.1753 0.88019 0.0
H637 H 0.28627 0.20711 0.89926 0.0
H638 H 0.23823 0.11507 0.93435 0.0
C639 C 0.27923 0.21562 0.97339 0.0
C640 C 0.29328 0.24541 0.93878 0.0
C641 C 0.27983 0.23172 0.98595 0.0
C642 C 0.3031 0.16104 0.88976 0.0
C643 C 0.293 0.17945 0.90071 0.0
C644 C 0.2541 0.15159 0.93539 0.0
C645 C 0.2687 0.23387 0.96251 0.0
C646 C 0.26914 0.21606 0.9492 0.0
C647 C 0.291 0.16185 0.91335 0.0
C648 C 0.28054 0.18081 0.92521 0.0
H649 H 0.25031 0.31138 0.97862 0.0
H650 H 0.25016 0.28351 0.95636 0.0
H651 H 0.22915 0.14533 0.95492 0.0
H652 H 0.31641 0.07981 0.90545 0.0
H653 H 0.29957 0.11179 0.92425 0.0
C654 C 0.96564 0.25117 0.14225 0.0
C655 C 0.97856 0.29061 0.14969 0.0
C656 C 0.98577 0.25392 0.13005 0.0
C657 C 0.09316 0.32867 0.11284 0.0
H658 H 0.03358 0.25444 0.08249 0.0
C659 C 0.19068 0.35695 0.0647 0.0
C660 C 0.18288 0.3189 0.05729 0.0
C661 C 0.16267 0.35248 0.07525 0.0
C662 C 0.05086 0.27507 0.09092 0.0
H663 H 0.02012 0.36413 0.14957 0.0
H664 H 0.05437 0.36891 0.12833 0.0
H665 H 0.98873 0.24883 0.10184 0.0
H666 H 0.13868 0.24616 0.05515 0.0
H667 H 0.09009 0.23815 0.07378 0.0
H668 H 0.15523 0.35434 0.1022 0.0
C669 C 0.02959 0.33572 0.13204 0.0
C670 C 0.02507 0.27194 0.10201 0.0
C671 C 0.00958 0.333 0.14419 0.0
C672 C 0.14563 0.27623 0.06061 0.0
C673 C 0.11764 0.27169 0.07128 0.0
C674 C 0.11884 0.33163 0.10184 0.0
C675 C 0.01925 0.29616 0.12502 0.0
C676 C 0.04589 0.29904 0.11307 0.0
C677 C 0.12613 0.30973 0.07885 0.0
C678 C 0.09814 0.30523 0.09066 0.0
H679 H 0.9421 0.21791 0.14618 0.0
H680 H 0.97698 0.22274 0.12493 0.0
H681 H 0.11063 0.34918 0.12128 0.0
H682 H 0.21866 0.39047 0.06238 0.0
H683 H 0.16977 0.38278 0.0806 0.0
C684 C 0.82745 0.14229 0.22103 0.0
C685 C 0.87005 0.18117 0.22328 0.0
C686 C 0.80369 0.11183 0.23125 0.0
C687 C 0.81957 0.07619 0.26439 0.0
H688 H 0.69146 0.03425 0.26903 0.0
C689 C 0.68162 0.00431 0.30892 0.0
C690 C 0.6931 0.9742 0.31501 0.0
C691 C 0.69843 0.02225 0.29649 0.0
C692 C 0.72722 0.04558 0.26787 0.0
H693 H 0.92134 0.21764 0.23808 0.0
H694 H 0.88033 0.16483 0.25573 0.0
H695 H 0.73139 0.08016 0.24989 0.0
H696 H 0.72943 0.9375 0.31233 0.0
H697 H 0.75842 0.9685 0.29063 0.0
H698 H 0.81591 0.04292 0.28252 0.0
C699 C 0.86517 0.15763 0.24608 0.0
C700 C 0.75004 0.07159 0.25682 0.0
C701 C 0.88862 0.18818 0.23594 0.0
C702 C 0.71974 0.9605 0.30798 0.0
C703 C 0.73682 0.9787 0.29557 0.0
C704 C 0.79673 0.04998 0.27537 0.0
C705 C 0.82222 0.11919 0.24394 0.0
C706 C 0.79676 0.08796 0.25505 0.0
C707 C 0.72742 0.0108 0.2898 0.0
C708 C 0.75038 0.03489 0.2774 0.0
H709 H 0.81203 0.13584 0.21143 0.0
H710 H 0.77084 0.08243 0.22922 0.0
H711 H 0.8554 0.08771 0.26329 0.0
H712 H 0.66121 0.01568 0.314 0.0
H713 H 0.6906 0.047 0.29243 0.0
C714 C 0.6902 0.82914 0.38742 0.0
C715 C 0.68682 0.86819 0.38972 0.0
C716 C 0.6945 0.80462 0.3979 0.0
C717 C 0.66942 0.78431 0.43327 0.0
H718 H 0.75226 0.73715 0.43326 0.0
C719 C 0.75225 0.71436 0.47379 0.0
C720 C 0.71354 0.68855 0.4816 0.0
C721 C 0.74839 0.7304 0.46146 0.0
C722 C 0.72896 0.75011 0.43342 0.0
H723 H 0.68702 0.9127 0.40494 0.0
H724 H 0.69447 0.87036 0.42297 0.0
H725 H 0.74798 0.77835 0.41408 0.0
H726 H 0.6401 0.6564 0.48202 0.0
H727 H 0.63336 0.68343 0.46053 0.0
H728 H 0.65096 0.75729 0.4526 0.0
C729 C 0.69309 0.85813 0.41313 0.0
C730 C 0.72624 0.77341 0.42238 0.0
C731 C 0.68903 0.88261 0.40273 0.0
C732 C 0.67071 0.67651 0.47636 0.0
C733 C 0.66686 0.69238 0.46405 0.0
C734 C 0.67189 0.76088 0.44421 0.0
C735 C 0.69521 0.81843 0.41091 0.0
C736 C 0.69683 0.79134 0.42224 0.0
C737 C 0.70573 0.72094 0.45662 0.0
C738 C 0.70188 0.74368 0.44451 0.0
H739 H 0.68867 0.81701 0.37756 0.0
H740 H 0.69594 0.77414 0.39584 0.0
H741 H 0.64595 0.79708 0.43348 0.0
H742 H 0.78583 0.72458 0.47752 0.0
H743 H 0.7791 0.75237 0.45606 0.0
C744 C 0.86842 0.69329 0.55284 0.0
C745 C 0.82793 0.6944 0.55461 0.0
C746 C 0.89976 0.70477 0.56317 0.0
C747 C 0.93248 0.76691 0.59481 0.0
H748 H 0.97787 0.68666 0.60469 0.0
C749 C 0.97906 0.75267 0.64741 0.0
C750 C 0.01786 0.74956 0.65032 0.0
C751 C 0.96533 0.75204 0.63454 0.0
C752 C 0.96626 0.70993 0.60192 0.0
H753 H 0.78942 0.70947 0.56862 0.0
H754 H 0.84338 0.72937 0.58632 0.0
H755 H 0.93599 0.67392 0.5841 0.0
H756 H 0.073 0.74376 0.64184 0.0
H757 H 0.04822 0.74178 0.61901 0.0
H758 H 0.96098 0.80186 0.61276 0.0
C759 C 0.85132 0.71985 0.57702 0.0
C760 C 0.94221 0.70262 0.59012 0.0
C761 C 0.82006 0.70801 0.56684 0.0
C762 C 0.04314 0.74648 0.6399 0.0
C763 C 0.02877 0.74504 0.62687 0.0
C764 C 0.95631 0.77413 0.60653 0.0
C765 C 0.89157 0.71835 0.57539 0.0
C766 C 0.92364 0.7301 0.58666 0.0
C767 C 0.98959 0.74779 0.62407 0.0
C768 C 0.97217 0.74485 0.61047 0.0
H769 H 0.87551 0.68283 0.54357 0.0
H770 H 0.93047 0.70332 0.56158 0.0
H771 H 0.91965 0.78942 0.59233 0.0
H772 H 0.9588 0.75524 0.65516 0.0
H773 H 0.93472 0.75362 0.6328 0.0
C774 C 0.27143 0.03649 0.8097 0.0
C775 C 0.30718 0.03225 0.81515 0.0
C776 C 0.25351 0.01789 0.79743 0.0
C777 C 0.27404 0.97642 0.76644 0.0
H778 H 0.14476 0.88956 0.76693 0.0
C779 C 0.16419 0.88015 0.72041 0.0
C780 C 0.14044 0.83255 0.72186 0.0
C781 C 0.18612 0.90847 0.73116 0.0
C782 C 0.18081 0.91394 0.76662 0.0
H783 H 0.35366 0.00731 0.8116 0.0
H784 H 0.32345 0.97643 0.78992 0.0
H785 H 0.18173 0.93436 0.78648 0.0
H786 H 0.1202 0.7776 0.73583 0.0
H787 H 0.15703 0.82695 0.75456 0.0
H788 H 0.27286 0.9559 0.74651 0.0
C789 C 0.30902 0.99369 0.79524 0.0
C790 C 0.20194 0.93974 0.77778 0.0
C791 C 0.32634 0.01141 0.80766 0.0
C792 C 0.1385 0.81407 0.73433 0.0
C793 C 0.15939 0.84231 0.74509 0.0
C794 C 0.25264 0.9513 0.75515 0.0
C795 C 0.27149 0.99547 0.79017 0.0
C796 C 0.24891 0.97084 0.7779 0.0
C797 C 0.18362 0.88979 0.74363 0.0
C798 C 0.20591 0.91927 0.7552 0.0
H799 H 0.25541 0.05173 0.81525 0.0
H800 H 0.22471 0.01996 0.79374 0.0
H801 H 0.31026 1.00014 0.76624 0.0
H802 H 0.16631 0.89545 0.71095 0.0
H803 H 0.20445 0.94499 0.72978 0.0
C804 C 0.72571 0.75923 0.8888 0.0
C805 C 0.72625 0.73163 0.87865 0.0
C806 C 0.73844 0.75469 0.9016 0.0
C807 C 0.75513 0.67362 0.92255 0.0
H808 H 0.83987 0.78004 0.94223 0.0
C809 C 0.87672 0.66824 0.96027 0.0
C810 C 0.87843 0.6859 0.97282 0.0
C811 C 0.85353 0.67528 0.95008 0.0
C812 C 0.81572 0.75003 0.93692 0.0
H813 H 0.73931 0.67674 0.8742 0.0
H814 H 0.76152 0.6694 0.89603 0.0
H815 H 0.80585 0.78916 0.92207 0.0
H816 H 0.85779 0.72597 0.98432 0.0
H817 H 0.81799 0.73934 0.96624 0.0
H818 H 0.76668 0.63467 0.93696 0.0
C819 C 0.751 0.69426 0.89433 0.0
C820 C 0.79609 0.7552 0.9254 0.0
C821 C 0.73862 0.69886 0.88169 0.0
C822 C 0.85699 0.71173 0.9748 0.0
C823 C 0.83438 0.71954 0.96446 0.0
C824 C 0.77507 0.66855 0.93391 0.0
C825 C 0.75132 0.72206 0.90451 0.0
C826 C 0.76659 0.71706 0.91784 0.0
C827 C 0.83192 0.70081 0.95204 0.0
C828 C 0.80651 0.70668 0.94104 0.0
H829 H 0.71645 0.78485 0.8868 0.0
H830 H 0.73814 0.7766 0.90921 0.0
H831 H 0.73163 0.64333 0.91723 0.0
H832 H 0.89271 0.64817 0.95834 0.0
H833 H 0.85263 0.66081 0.94059 0.0
C834 C 0.97525 0.7204 0.0541 0.0
C835 C 0.98794 0.69308 0.04697 0.0
C836 C 0.99452 0.73786 0.06639 0.0
C837 C 0.09935 0.76913 0.08486 0.0
H838 H 0.0356 0.78031 0.1147 0.0
C839 C 0.19073 0.83298 0.13412 0.0
C840 C 0.1815 0.86161 0.14183 0.0
C841 C 0.1641 0.81077 0.1232 0.0
C842 C 0.05409 0.77799 0.10642 0.0
H843 H 0.0288 0.66045 0.04772 0.0
H844 H 0.06186 0.69046 0.06905 0.0
H845 H 0.99356 0.74348 0.09473 0.0
H846 H 0.13613 0.88858 0.14412 0.0
H847 H 0.09003 0.8505 0.12482 0.0
H848 H 0.15988 0.8043 0.09623 0.0
C849 C 0.03769 0.69916 0.06504 0.0
C850 C 0.02989 0.7567 0.09496 0.0
C851 C 0.01837 0.68161 0.05282 0.0
C852 C 0.14412 0.86665 0.13844 0.0
C853 C 0.11758 0.84464 0.12738 0.0
C854 C 0.12349 0.79062 0.09621 0.0
C855 C 0.02709 0.7286 0.07183 0.0
C856 C 0.05218 0.75155 0.08408 0.0
C857 C 0.1276 0.81683 0.11948 0.0
C858 C 0.10128 0.79498 0.10724 0.0
H859 H 0.95206 0.73013 0.04992 0.0
H860 H 0.98558 0.76043 0.07132 0.0
H861 H 0.11793 0.76689 0.07658 0.0
H862 H 0.21883 0.82774 0.13649 0.0
H863 H 0.17232 0.78876 0.11766 0.0
C864 C 0.31343 0.02901 0.21702 0.0
C865 C 0.27372 0.98987 0.21287 0.0
C866 C 0.31764 0.04501 0.22978 0.0
C867 C 0.25032 0.04753 0.2573 0.0
H868 H 0.36601 0.10103 0.27536 0.0
C869 C 0.28137 0.14181 0.30714 0.0
C870 C 0.32337 0.18225 0.30855 0.0
C871 C 0.27331 0.11273 0.29649 0.0
C872 C 0.33352 0.0866 0.27043 0.0
H873 H 0.2075 0.93608 0.21902 0.0
H874 H 0.21461 0.96454 0.24154 0.0
H875 H 0.35535 0.0586 0.25527 0.0
H876 H 0.38974 0.2235 0.29972 0.0
H877 H 0.37565 0.17341 0.28124 0.0
H878 H 0.22895 0.07676 0.27229 0.0
C879 C 0.24257 0.98268 0.2348 0.0
C880 C 0.32735 0.06203 0.25892 0.0
C881 C 0.23862 0.96613 0.22197 0.0
C882 C 0.35709 0.19261 0.29906 0.0
C883 C 0.34906 0.16359 0.28846 0.0
C884 C 0.25655 0.07231 0.26883 0.0
C885 C 0.28205 0.02267 0.2388 0.0
C886 C 0.28605 0.04304 0.25202 0.0
C887 C 0.30706 0.12324 0.28698 0.0
C888 C 0.29863 0.0931 0.2754 0.0
H889 H 0.34113 0.04805 0.21025 0.0
H890 H 0.34828 0.0761 0.23241 0.0
H891 H 0.21821 0.03374 0.25219 0.0
H892 H 0.2545 0.1327 0.31422 0.0
H893 H 0.24068 0.08185 0.29577 0.0
C894 C 0.2855 0.31736 0.3826 0.0
C895 C 0.28812 0.27923 0.37858 0.0
C896 C 0.2696 0.31919 0.39501 0.0
C897 C 0.24289 0.26849 0.4283 0.0
H898 H 0.16354 0.31983 0.42839 0.0
C899 C 0.14216 0.27472 0.47432 0.0
C900 C 0.14158 0.31557 0.47602 0.0
C901 C 0.16099 0.26738 0.46298 0.0
C902 C 0.18591 0.30574 0.4286 0.0
H903 H 0.27806 0.21384 0.38478 0.0
H904 H 0.2495 0.21674 0.40665 0.0
H905 H 0.19484 0.31209 0.4079 0.0
H906 H 0.16177 0.38113 0.46716 0.0
H907 H 0.19428 0.36842 0.44766 0.0
H908 H 0.23337 0.26213 0.44916 0.0
C909 C 0.26011 0.24541 0.40011 0.0
C910 C 0.20401 0.30134 0.41681 0.0
C911 C 0.27651 0.24373 0.38759 0.0
C912 C 0.16124 0.34913 0.46624 0.0
C913 C 0.17974 0.34174 0.45496 0.0
C914 C 0.2245 0.27278 0.44018 0.0
C915 C 0.25523 0.28271 0.40382 0.0
C916 C 0.23359 0.28364 0.41648 0.0
C917 C 0.17928 0.30055 0.45305 0.0
C918 C 0.19652 0.29239 0.44049 0.0
H919 H 0.2949 0.3457 0.376 0.0
H920 H 0.26781 0.34912 0.39762 0.0
H921 H 0.26549 0.25469 0.42844 0.0
H922 H 0.12724 0.24802 0.48161 0.0
H923 H 0.15994 0.23521 0.46181 0.0
C924 C 0.96609 0.26968 0.54995 0.0
C925 C 0.01078 0.28124 0.54668 0.0
C926 C 0.95075 0.26037 0.56282 0.0
C927 C 0.96959 0.22198 0.59468 0.0
H928 H 0.88244 0.25711 0.60571 0.0
C929 C 0.86777 0.16808 0.64452 0.0
C930 C 0.82054 0.14699 0.64249 0.0
C931 C 0.89827 0.19036 0.63415 0.0
C932 C 0.90691 0.24723 0.60282 0.0
H933 H 0.07473 0.29265 0.55463 0.0
H934 H 0.04761 0.27612 0.57742 0.0
H935 H 0.92402 0.28709 0.58536 0.0
H936 H 0.76864 0.13371 0.62802 0.0
H937 H 0.82135 0.17319 0.61027 0.0
H938 H 0.95141 0.18141 0.61221 0.0
C939 C 0.0245 0.27419 0.56983 0.0
C940 C 0.93067 0.26425 0.59112 0.0
C941 C 0.04013 0.28392 0.5568 0.0
C942 C 0.8047 0.1494 0.62997 0.0
C943 C 0.83496 0.17226 0.61978 0.0
C944 C 0.94595 0.20518 0.60653 0.0
C945 C 0.97949 0.26232 0.57298 0.0
C946 C 0.96104 0.25054 0.5866 0.0
C947 C 0.88206 0.19289 0.62169 0.0
C948 C 0.91319 0.21644 0.61048 0.0
H949 H 0.9424 0.26742 0.54249 0.0
H950 H 0.9157 0.25055 0.56474 0.0
H951 H 0.9926 0.2106 0.59151 0.0
H952 H 0.88104 0.16662 0.65403 0.0
H953 H 0.93443 0.20599 0.63591 0.0
C954 C 0.64459 0.8199 0.80159 0.0
C955 C 0.68227 0.82894 0.8094 0.0
C956 C 0.64915 0.84748 0.79087 0.0
C957 C 0.72555 0.95963 0.77505 0.0
H958 H 0.65487 0.89735 0.74438 0.0
C959 C 0.75089 0.04334 0.72327 0.0
C960 C 0.71182 0.02925 0.71553 0.0
C961 C 0.74795 0.02342 0.73556 0.0
C962 C 0.67442 0.91551 0.7529 0.0
H963 H 0.75439 0.87499 0.81209 0.0
H964 H 0.76259 0.92286 0.79317 0.0
H965 H 0.64941 0.85397 0.76385 0.0
H966 H 0.63861 0.98551 0.71516 0.0
H967 H 0.63348 0.95158 0.73653 0.0
H968 H 0.75114 0.02124 0.76383 0.0
C969 C 0.72924 0.89466 0.79549 0.0
C970 C 0.67127 0.89052 0.76413 0.0
C971 C 0.72459 0.8671 0.80633 0.0
C972 C 0.66949 0.99699 0.72077 0.0
C973 C 0.66658 0.97718 0.733 0.0
C974 C 0.72888 0.98472 0.76373 0.0
C975 C 0.69164 0.88482 0.78748 0.0
C976 C 0.6964 0.91213 0.77543 0.0
C977 C 0.70589 0.98894 0.74038 0.0
C978 C 0.70298 0.96299 0.75254 0.0
H979 H 0.61132 0.79118 0.80371 0.0
H980 H 0.61912 0.83933 0.78519 0.0
H981 H 0.74521 0.9776 0.78357 0.0
H982 H 0.78411 0.06787 0.71955 0.0
H983 H 0.77895 0.03331 0.74094 0.0
C984 C 0.30682 0.02797 0.1258 0.0
C985 C 0.33606 0.04345 0.13665 0.0
C986 C 0.30916 0.0588 0.11621 0.0
C987 C 0.38305 0.1772 0.10388 0.0
H988 H 0.26979 0.16547 0.0916 0.0
C989 C 0.3764 0.28967 0.06266 0.0
C990 C 0.34314 0.30267 0.06306 0.0
C991 C 0.37701 0.25988 0.07197 0.0
C992 C 0.30173 0.16955 0.09505 0.0
H993 H 0.39211 0.10294 0.1456 0.0
H994 H 0.39619 0.15607 0.12908 0.0
H995 H 0.2684 0.10785 0.10623 0.0
H996 H 0.28535 0.29578 0.0739 0.0
H997 H 0.287 0.24426 0.09044 0.0
H998 H 0.41643 0.23939 0.09306 0.0
C999 C 0.37154 0.12038 0.12782 0.0
C1000 C 0.30094 0.13604 0.10326 0.0
C1001 C 0.36908 0.08982 0.13735 0.0
C1002 C 0.31171 0.28681 0.0734 0.0
C1003 C 0.31225 0.25672 0.08275 0.0
C1004 C 0.38383 0.21067 0.09573 0.0
C1005 C 0.34103 0.10559 0.11726 0.0
C1006 C 0.34163 0.13952 0.10783 0.0
C1007 C 0.34438 0.24215 0.08198 0.0
C1008 C 0.34322 0.20736 0.09118 0.0
H1009 H 0.28073 0.99254 0.12505 0.0
H1010 H 0.28551 0.04613 0.10812 0.0
H1011 H 0.41509 0.1809 0.10708 0.0
H1012 H 0.40101 0.30107 0.0548 0.0
H1013 H 0.40197 0.2492 0.07093 0.0
C1014 C 0.08888 0.30071 0.22178 0.0
C1015 C 0.06195 0.32111 0.22327 0.0
C1016 C 0.12063 0.30591 0.23126 0.0
C1017 C 0.15185 0.33699 0.26592 0.0
H1018 H 0.26603 0.34784 0.25492 0.0
C1019 C 0.29277 0.37147 0.30287 0.0
C1020 C 0.31176 0.34306 0.30212 0.0
C1021 C 0.2659 0.37278 0.29276 0.0
C1022 C 0.23421 0.34456 0.25814 0.0
H1023 H 0.04718 0.36278 0.23605 0.0
H1024 H 0.10345 0.37265 0.2526 0.0
H1025 H 0.21159 0.34299 0.23853 0.0
H1026 H 0.31917 0.29543 0.28978 0.0
H1027 H 0.27235 0.29806 0.27197 0.0
H1028 H 0.17467 0.33879 0.28553 0.0
C1029 C 0.09947 0.35205 0.24411 0.0
C1030 C 0.20288 0.34167 0.24876 0.0
C1031 C 0.0673 0.34656 0.23461 0.0
C1032 C 0.30528 0.31786 0.29065 0.0
C1033 C 0.27839 0.31932 0.28046 0.0
C1034 C 0.18331 0.34021 0.27529 0.0
C1035 C 0.12673 0.33195 0.24251 0.0
C1036 C 0.16106 0.3374 0.25252 0.0
C1037 C 0.25737 0.34584 0.28158 0.0
C1038 C 0.22474 0.34376 0.27152 0.0
H1039 H 0.08534 0.28035 0.21325 0.0
H1040 H 0.14007 0.28897 0.22981 0.0
H1041 H 0.1198 0.33299 0.26921 0.0
H1042 H 0.29728 0.39163 0.31152 0.0
H1043 H 0.25098 0.39426 0.29381 0.0
C1044 C 0.72178 0.06369 0.40028 0.0
C1045 C 0.74105 0.06083 0.38843 0.0
C1046 C 0.74911 0.09436 0.41 0.0
C1047 C 0.86817 0.1582 0.42128 0.0
H1048 H 0.83085 0.234 0.43945 0.0
C1049 C 0.98802 0.29503 0.4579 0.0
C1050 C 0.96794 0.29725 0.46966 0.0
C1051 C 0.96086 0.27015 0.44729 0.0
C1052 C 0.84167 0.21283 0.43455 0.0
H1053 H 0.80436 0.08794 0.37759 0.0
H1054 H 0.85131 0.14074 0.3944 0.0
H1055 H 0.78101 0.18031 0.42295 0.0
H1056 H 0.90355 0.27682 0.47923 0.0
H1057 H 0.85673 0.23338 0.46096 0.0
H1058 H 0.92831 0.1898 0.43299 0.0
C1059 C 0.81528 0.11934 0.39625 0.0
C1060 C 0.813 0.182 0.42512 0.0
C1061 C 0.78813 0.08916 0.38656 0.0
C1062 C 0.92029 0.27586 0.47034 0.0
C1063 C 0.89327 0.25105 0.45979 0.0
C1064 C 0.89667 0.18876 0.43076 0.0
C1065 C 0.79624 0.1223 0.4081 0.0
C1066 C 0.82595 0.15434 0.41837 0.0
C1067 C 0.91308 0.24698 0.44821 0.0
C1068 C 0.88381 0.21646 0.43755 0.0
H1069 H 0.6857 0.04235 0.40204 0.0
H1070 H 0.73351 0.09568 0.41908 0.0
H1071 H 0.8789 0.13696 0.41638 0.0
H1072 H 0.0246 0.31102 0.45705 0.0
H1073 H 0.97731 0.26838 0.43844 0.0
C1074 C 0.68026 0.72105 0.56906 0.0
C1075 C 0.68683 0.7379 0.55621 0.0
C1076 C 0.67708 0.74611 0.57942 0.0
C1077 C 0.65212 0.83715 0.5873 0.0
H1078 H 0.72574 0.85424 0.61802 0.0
C1079 C 0.6791 0.96764 0.62779 0.0
C1080 C 0.68317 0.95622 0.64073 0.0
C1081 C 0.67685 0.93969 0.61744 0.0
C1082 C 0.70432 0.84927 0.60962 0.0
H1083 H 0.69429 0.79391 0.54414 0.0
H1084 H 0.68836 0.83726 0.56219 0.0
H1085 H 0.7255 0.80673 0.60025 0.0
H1086 H 0.6861 0.90552 0.65299 0.0
H1087 H 0.68072 0.8564 0.63511 0.0
H1088 H 0.63053 0.87932 0.59671 0.0
C1089 C 0.68561 0.80469 0.56425 0.0
C1090 C 0.70432 0.82206 0.59942 0.0
C1091 C 0.68931 0.77993 0.55392 0.0
C1092 C 0.68357 0.91567 0.64312 0.0
C1093 C 0.68078 0.88757 0.63283 0.0
C1094 C 0.65175 0.86406 0.59757 0.0
C1095 C 0.67989 0.78827 0.57712 0.0
C1096 C 0.67838 0.81584 0.58813 0.0
C1097 C 0.67816 0.8995 0.61983 0.0
C1098 C 0.67796 0.87057 0.60887 0.0
H1099 H 0.67833 0.68886 0.57115 0.0
H1100 H 0.67236 0.73248 0.58924 0.0
H1101 H 0.63148 0.83263 0.57874 0.0
H1102 H 0.67892 0.99878 0.62564 0.0
H1103 H 0.67532 0.95026 0.60755 0.0
C1104 C 0.91039 0.65525 0.72463 0.0
C1105 C 0.95777 0.68193 0.7262 0.0
C1106 C 0.88086 0.65497 0.73411 0.0
C1107 C 0.82799 0.68595 0.75075 0.0
H1108 H 0.84516 0.67584 0.78778 0.0
C1109 C 0.71899 0.70531 0.7916 0.0
C1110 C 0.70733 0.67526 0.80225 0.0
C1111 C 0.74852 0.70627 0.78187 0.0
C1112 C 0.83978 0.67852 0.77746 0.0
H1113 H 0.01118 0.72796 0.73928 0.0
H1114 H 0.9592 0.72704 0.75604 0.0
H1115 H 0.90003 0.67707 0.77218 0.0
H1116 H 0.71513 0.62072 0.81056 0.0
H1117 H 0.76566 0.62202 0.79361 0.0
H1118 H 0.76737 0.68674 0.75601 0.0
C1119 C 0.94512 0.70638 0.74738 0.0
C1120 C 0.87152 0.6797 0.76854 0.0
C1121 C 0.9749 0.70679 0.73782 0.0
C1122 C 0.7237 0.64458 0.80255 0.0
C1123 C 0.75307 0.64559 0.7929 0.0
C1124 C 0.7964 0.68507 0.75967 0.0
C1125 C 0.89775 0.68128 0.74547 0.0
C1126 C 0.86564 0.68275 0.75507 0.0
C1127 C 0.76694 0.67729 0.78264 0.0
C1128 C 0.80156 0.68065 0.77312 0.0
H1129 H 0.8959 0.63538 0.71586 0.0
H1130 H 0.84462 0.6344 0.73247 0.0
H1131 H 0.82284 0.68904 0.74043 0.0
H1132 H 0.70732 0.72966 0.79116 0.0
H1133 H 0.75855 0.73108 0.77407 0.0
C1134 C 0.04722 0.69492 0.95937 0.0
C1135 C 0.06101 0.71138 0.97212 0.0
C1136 C 0.07487 0.7182 0.94866 0.0
C1137 C 0.19238 0.80558 0.93932 0.0
H1138 H 0.13315 0.82985 0.91058 0.0
C1139 C 0.29134 0.94691 0.90081 0.0
C1140 C 0.27505 0.93882 0.88791 0.0
C1141 C 0.26687 0.9157 0.91076 0.0
C1142 C 0.15029 0.82285 0.9184 0.0
H1143 H 0.11553 0.76414 0.98364 0.0
H1144 H 0.16337 0.80431 0.96506 0.0
H1145 H 0.08756 0.77972 0.92824 0.0
H1146 H 0.22121 0.89062 0.87525 0.0
H1147 H 0.17946 0.83613 0.89242 0.0
H1148 H 0.25519 0.84909 0.92953 0.0
C1149 C 0.1314 0.77346 0.96329 0.0
C1150 C 0.12404 0.79402 0.92854 0.0
C1151 C 0.10373 0.75051 0.97395 0.0
C1152 C 0.23457 0.89825 0.88511 0.0
C1153 C 0.2104 0.86702 0.89499 0.0
C1154 C 0.21866 0.83429 0.92915 0.0
C1155 C 0.11701 0.75811 0.9505 0.0
C1156 C 0.14478 0.78544 0.93919 0.0
C1157 C 0.22575 0.87562 0.90799 0.0
C1158 C 0.19797 0.84365 0.91861 0.0
H1159 H 0.01449 0.66496 0.95763 0.0
H1160 H 0.06303 0.70531 0.93891 0.0
H1161 H 0.20935 0.79926 0.94734 0.0
H1162 H 0.32228 0.97792 0.90331 0.0
H1163 H 0.27951 0.92369 0.92068 0.0
C1164 C 0.23559 0.15727 0.04126 0.0
C1165 C 0.21289 0.1801 0.03718 0.0
C1166 C 0.21154 0.1102 0.04267 0.0
C1167 C 0.1633 0.02524 0.02668 0.0
H1168 H 0.04254 0.93896 0.03915 0.0
C1169 C 0.07456 0.838 1.01292 0.0
C1170 C 0.0273 0.81463 1.01117 0.0
C1171 C 0.09684 0.88249 0.0173 0.0
C1172 C 0.07605 0.96295 0.0355 0.0
H1173 H 0.14693 0.17348 0.03358 0.0
H1174 H 0.10513 0.09121 0.03584 0.0
H1175 H 0.08277 0.01585 0.0483 0.0
H1176 H 0.96651 0.82016 1.01165 0.0
H1177 H 0.00613 0.89942 0.01889 0.0
H1178 H 0.1561 0.97416 1.01333 0.0
C1179 C 0.14128 0.10936 0.03783 0.0
C1180 C 0.0992 0.00643 0.04088 0.0
C1181 C 0.1653 0.1563 0.03633 0.0
C1182 C 1.00301 0.83755 1.01294 0.0
C1183 C 0.02552 0.88251 0.01727 0.0
C1184 C 0.14005 0.98228 0.02118 0.0
C1185 C 0.16471 0.08587 0.04011 0.0
C1186 C 0.14291 0.03783 0.03645 0.0
C1187 C 0.07244 0.90484 0.01982 0.0
C1188 C 0.09617 0.95077 0.02549 0.0
H1189 H 0.27221 0.17507 0.04229 0.0
H1190 H 0.23003 0.09249 0.04458 0.0
H1191 H 0.19642 0.04943 0.02279 0.0
H1192 H 0.09416 0.82117 1.0115 0.0
H1193 H 0.13293 0.89861 0.01925 0.0
C1194 C 0.14527 0.97966 0.16421 0.0
C1195 C 0.19163 0.0126 0.16468 0.0
C1196 C 0.113 0.99215 0.16142 0.0
C1197 C 0.09709 0.08821 0.15143 0.0
H1198 H 0.01236 0.04706 0.18049 0.0
C1199 C 0.04343 0.20174 0.17594 0.0
C1200 C 0.99848 0.18472 0.18014 0.0
C1201 C 0.05708 0.17282 0.17077 0.0
C1202 C 0.03477 0.05797 0.1721 0.0
H1203 H 0.24118 0.08351 0.1614 0.0
H1204 H 0.18454 0.10592 0.15693 0.0
H1205 H 0.05565 0.00952 0.176 0.0
H1206 H 0.93275 0.12378 0.18253 0.0
H1207 H 0.95729 0.07255 0.17365 0.0
H1208 H 0.07804 0.13858 0.1481 0.0
C1209 C 0.17314 0.07029 0.15856 0.0
C1210 C 0.05963 0.03649 0.1695 0.0
C1211 C 0.20557 0.05765 0.16124 0.0
C1212 C 0.96766 0.13778 0.17941 0.0
C1213 C 0.98153 0.1086 0.17425 0.0
C1214 C 0.07214 0.10964 0.15402 0.0
C1215 C 0.12649 0.03788 0.15915 0.0
C1216 C 0.09262 0.05289 0.15955 0.0
C1217 C 0.02622 0.12613 0.16971 0.0
C1218 C 0.04261 0.09618 0.16481 0.0
H1219 H 0.13377 0.94434 0.16645 0.0
H1220 H 0.07735 0.9664 0.16167 0.0
H1221 H 0.12169 0.10092 0.14356 0.0
H1222 H 0.06817 0.23768 0.17649 0.0
H1223 H 0.09215 0.18705 0.16776 0.0
C1224 C 0.17045 0.16179 0.32982 0.0
C1225 C 0.18931 0.2091 0.33062 0.0
C1226 C 0.12364 0.13363 0.32911 0.0
C1227 C 0.03465 0.13544 0.34514 0.0
H1228 H 0.95024 0.02853 0.32555 0.0
C1229 C 0.84528 0.05097 0.35199 0.0
C1230 C 0.81828 0.00364 0.35108 0.0
C1231 C 0.89149 0.07198 0.3497 0.0
C1232 C 0.97385 0.05779 0.33122 0.0
H1233 H 0.17549 0.26476 0.32955 0.0
H1234 H 0.09303 0.21514 0.32867 0.0
H1235 H 0.02872 0.07557 0.31777 0.0
H1236 H 0.81796 0.94052 0.34778 0.0
H1237 H 0.9002 0.97781 0.34378 0.0
H1238 H 0.98104 0.11764 0.35877 0.0
C1239 C 0.11455 0.20006 0.32857 0.0
C1240 C 0.01819 0.08488 0.32667 0.0
C1241 C 0.16147 0.22829 0.32911 0.0
C1242 C 0.83844 0.97715 0.34854 0.0
C1243 C 0.8851 0.99839 0.34615 0.0
C1244 C 0.99088 0.10817 0.34977 0.0
C1245 C 0.09552 0.1527 0.32933 0.0
C1246 C 0.0483 0.12442 0.33346 0.0
C1247 C 0.91168 0.04604 0.34649 0.0
C1248 C 0.95977 0.06981 0.3427 0.0
H1249 H 0.19167 0.14648 0.33068 0.0
H1250 H 0.10943 0.09714 0.32971 0.0
H1251 H 0.05806 0.16501 0.35075 0.0
H1252 H 0.83038 0.07199 0.35404 0.0
H1253 H 0.91103 0.10878 0.34987 0.0
C1254 C 0.9496 0.14863 0.49378 0.0
C1255 C 0.99391 0.17938 0.49788 0.0
C1256 C 0.93788 0.1042 0.49055 0.0
C1257 C 0.97129 0.02385 0.50116 0.0
H1258 H 0.87128 0.94223 0.47892 0.0
C1259 C 0.86885 0.83107 0.51088 0.0
C1260 C 0.82192 0.81499 0.51133 0.0
C1261 C 0.89839 0.87383 0.50556 0.0
C1262 C 0.89964 0.96469 0.48507 0.0
H1263 H 0.06207 0.19023 0.50024 0.0
H1264 H 0.04169 0.11293 0.49444 0.0
H1265 H 0.9095 0.02405 0.47487 0.0
H1266 H 0.76925 0.83132 0.50679 0.0
H1267 H 0.82057 0.90567 0.49783 0.0
H1268 H 0.95951 0.96503 0.51192 0.0
C1269 C 0.01573 0.12249 0.49411 0.0
C1270 C 0.92142 0.01136 0.48276 0.0
C1271 C 0.02725 0.16656 0.4975 0.0
C1272 C 0.8052 0.84256 0.50653 0.0
C1273 C 0.83454 0.88495 0.50121 0.0
C1274 C 0.94948 0.97727 0.50348 0.0
C1275 C 0.97052 0.09032 0.49121 0.0
C1276 C 0.95587 0.04144 0.4912 0.0
C1277 C 0.88133 0.90091 0.50058 0.0
C1278 C 0.91191 0.94758 0.4959 0.0
H1279 H 0.9235 0.15802 0.49384 0.0
H1280 H 0.90263 0.08002 0.48844 0.0
H1281 H 0.99754 0.04617 0.50791 0.0
H1282 H 0.88266 0.81041 0.51443 0.0
H1283 H 0.93445 0.88564 0.50527 0.0
C1284 C 0.03025 0.87286 0.69706 0.0
C1285 C 0.99723 0.82649 0.69756 0.0
C1286 C 0.01882 0.90577 0.70004 0.0
C1287 C 0.9266 0.9237 0.71244 0.0
H1288 H 0.95794 0.00338 0.68228 0.0
C1289 C 0.80499 0.97168 0.69013 0.0
C1290 C 0.8205 0.01526 0.6849 0.0
C1291 C 0.83552 0.95964 0.69508 0.0
C1292 C 0.94986 0.98247 0.69098 0.0
H1293 H 0.92755 0.77787 0.70266 0.0
H1294 H 0.90694 0.8355 0.70743 0.0
H1295 H 0.99709 0.96118 0.68596 0.0
H1296 H 0.88031 0.08037 0.68064 0.0
H1297 H 0.93415 0.05869 0.68915 0.0
H1298 H 0.8772 0.94301 0.71693 0.0
C1299 C 0.94185 0.84645 0.70491 0.0
C1300 C 0.9723 0.95823 0.6931 0.0
C1301 C 0.95342 0.81343 0.70203 0.0
C1302 C 0.8674 0.04644 0.68455 0.0
C1303 C 0.89813 0.03422 0.68949 0.0
C1304 C 0.9042 0.94804 0.71032 0.0
C1305 C 0.97409 0.8929 0.70348 0.0
C1306 C 0.9592 0.92687 0.70346 0.0
C1307 C 0.88232 0.99079 0.69488 0.0
C1308 C 0.91399 0.97565 0.69917 0.0
H1309 H 0.06473 0.88384 0.69401 0.0
H1310 H 0.04447 0.94131 0.69909 0.0
H1311 H 0.91654 0.90038 0.72064 0.0
H1312 H 0.76909 0.94676 0.6905 0.0
H1313 H 0.82245 0.92545 0.6988 0.0
C1314 C 0.16994 0.03071 0.8472 0.0
C1315 C 0.18648 1.00025 0.84776 0.0
C1316 C 0.12725 0.017 0.84182 0.0
C1317 C 0.03981 0.92841 0.82059 0.0
H1318 H 0.95516 0.94651 0.84138 0.0
C1319 C 0.85299 0.79863 0.8261 0.0
C1320 C 0.82277 0.81347 0.82962 0.0
C1321 C 0.89824 0.83042 0.8234 0.0
C1322 C 0.97849 0.94217 0.83519 0.0
H1323 H 0.17078 0.93121 0.84367 0.0
H1324 H 0.09624 0.90717 0.83463 0.0
H1325 H 0.03512 0.98711 0.84698 0.0
H1326 H 0.81375 0.87208 0.83136 0.0
H1327 H 0.89258 0.92748 0.82648 0.0
H1328 H 0.98249 0.88116 0.8093 0.0
C1329 C 0.11667 0.94197 0.83792 0.0
C1330 C 0.02436 0.96542 0.83844 0.0
C1331 C 0.15909 0.95556 0.84328 0.0
C1332 C 0.83697 0.85999 0.82906 0.0
C1333 C 0.88191 0.89164 0.8262 0.0
C1334 C 0.99385 0.90507 0.81733 0.0
C1335 C 0.10068 0.97272 0.83693 0.0
C1336 C 0.05496 0.95697 0.83158 0.0
C1337 C 0.91347 0.87727 0.82405 0.0
C1338 C 0.96254 0.91015 0.825 0.0
H1339 H 0.1905 0.06548 0.85049 0.0
H1340 H 0.11541 0.0412 0.84125 0.0
H1341 H 0.06311 0.92219 0.81496 0.0
H1342 H 0.84253 0.76283 0.82631 0.0
H1343 H 0.92187 0.81831 0.82184 0.0
loop_
_geom_bond_atom_site_label_1
_geom_bond_atom_site_label_2
_geom_bond_distance
_geom_bond_site_symmetry_2
_ccdc_geom_bond_type
Fe0 O2 1.918 . S
Fe0 O5 1.997 . S
Fe0 O6 2.002 . S
Fe0 O11 1.976 1_554 S
Fe0 O14 1.994 1_554 S
Fe1 O2 1.918 . S
Fe1 O9 1.997 . S
Fe1 O12 1.996 1_554 S
Fe1 O16 1.976 . S
Fe1 O19 2.002 . S
O2 Fe0 1.918 . S
O2 Fe1 1.918 . S
O2 Fe3 1.918 . S
Fe3 O2 1.918 . S
Fe3 O4 2.002 . S
Fe3 O13 1.976 . S
Fe3 O17 1.996 . S
Fe3 O20 1.997 . S
O4 Fe3 2.002 . S
O4 C21 1.295 . S
O5 Fe0 1.997 . S
O5 C21 1.235 . S
O6 Fe0 2.002 . S
O6 C7 1.295 . S
C7 O6 1.295 . S
C7 O9 1.235 . S
C8 O13 1.287 . S
C8 O14 1.249 1_554 S
O9 Fe1 1.997 . S
O9 C7 1.235 . S
C10 O16 1.287 . S
C10 O17 1.255 . S
O11 Fe0 1.976 1_556 S
O11 C18 1.287 . S
O12 Fe1 1.996 1_556 S
O12 C18 1.255 . S
O13 Fe3 1.976 . S
O13 C8 1.287 . S
O14 Fe0 1.994 1_556 S
O14 C8 1.249 1_556 S
C15 O19 1.295 . S
C15 O20 1.235 . S
O16 Fe1 1.976 . S
O16 C10 1.287 . S
O17 Fe3 1.996 . S
O17 C10 1.255 . S
C18 O11 1.287 . S
C18 O12 1.255 . S
O19 Fe1 2.002 . S
O19 C15 1.295 . S
O20 Fe3 1.997 . S
O20 C15 1.235 . S
C21 O4 1.295 . S
C21 O5 1.235 . S
Fe22 O24 1.918 . S
Fe22 O27 1.997 . S
Fe22 O28 2.002 . S
Fe22 O33 1.976 . S
Fe22 O36 1.996 . S
Fe23 O24 1.918 . S
Fe23 O31 1.997 . S
Fe23 O34 1.996 . S
Fe23 O38 1.976 . S
Fe23 O41 2.002 . S
O24 Fe22 1.918 . S
O24 Fe23 1.918 . S
O24 Fe25 1.918 1_655 S
Fe25 O24 1.918 1_455 S
Fe25 O26 2.002 . S
Fe25 O35 1.976 . S
Fe25 O39 1.996 . S
Fe25 O42 1.997 . S
O26 Fe25 2.002 . S
O26 C43 1.295 . S
O27 Fe22 1.997 . S
O27 C43 1.235 1_655 S
O28 Fe22 2.002 . S
O28 C29 1.295 . S
C29 O28 1.295 . S
C29 O31 1.235 . S
C30 O35 1.281 1_655 S
C30 O36 1.259 . S
O31 Fe23 1.997 . S
O31 C29 1.235 . S
C32 O38 1.287 . S
C32 O39 1.255 1_655 S
O33 Fe22 1.976 . S
O33 C40 1.287 . S
O34 Fe23 1.996 . S
O34 C40 1.255 . S
O35 Fe25 1.976 . S
O35 C30 1.281 1_455 S
O36 Fe22 1.996 . S
O36 C30 1.259 . S
C37 O41 1.295 1_455 S
C37 O42 1.235 . S
O38 Fe23 1.976 . S
O38 C32 1.287 . S
O39 Fe25 1.996 . S
O39 C32 1.255 1_455 S
C40 O33 1.287 . S
C40 O34 1.255 . S
O41 Fe23 2.002 . S
O41 C37 1.295 1_655 S
O42 Fe25 1.997 . S
O42 C37 1.235 . S
C43 O26 1.295 . S
C43 O27 1.235 1_455 S
Fe44 O46 1.918 . S
Fe44 O49 1.997 . S
Fe44 O50 2.002 . S
Fe44 O55 1.976 . S
Fe44 O58 1.996 . S
Fe45 O46 1.918 1_545 S
Fe45 O53 1.997 . S
Fe45 O56 1.996 . S
Fe45 O60 1.976 . S
Fe45 O63 2.002 . S
O46 Fe44 1.918 . S
O46 Fe45 1.918 1_565 S
O46 Fe47 1.918 . S
Fe47 O46 1.918 . S
Fe47 O48 2.002 . S
Fe47 O57 1.976 . S
Fe47 O61 1.996 . S
Fe47 O64 1.997 . S
O48 Fe47 2.002 . S
O48 C65 1.295 . S
O49 Fe44 1.997 . S
O49 C65 1.235 . S
O50 Fe44 2.002 . S
O50 C51 1.295 1_565 S
C51 O50 1.295 1_545 S
C51 O53 1.235 . S
C52 O57 1.287 . S
C52 O58 1.255 . S
O53 Fe45 1.997 . S
O53 C51 1.235 . S
C54 O60 1.287 . S
C54 O61 1.251 1_545 S
O55 Fe44 1.976 . S
O55 C62 1.287 . S
O56 Fe45 1.996 . S
O56 C62 1.255 1_545 S
O57 Fe47 1.976 . S
O57 C52 1.287 . S
O58 Fe44 1.996 . S
O58 C52 1.255 . S
C59 O63 1.295 . S
C59 O64 1.235 1_545 S
O60 Fe45 1.976 . S
O60 C54 1.287 . S
O61 Fe47 1.996 . S
O61 C54 1.251 1_565 S
C62 O55 1.287 . S
C62 O56 1.255 1_565 S
O63 Fe45 2.002 . S
O63 C59 1.295 . S
O64 Fe47 1.997 . S
O64 C59 1.235 1_565 S
C65 O48 1.295 . S
C65 O49 1.235 . S
Fe66 O68 1.918 . S
Fe66 O71 1.997 . S
Fe66 O72 2.002 . S
Fe66 O77 1.976 . S
Fe66 O80 1.996 . S
Fe67 O68 1.918 . S
Fe67 O75 1.997 . S
Fe67 O78 1.996 . S
Fe67 O82 1.976 . S
Fe67 O85 2.002 . S
O68 Fe66 1.918 . S
O68 Fe67 1.918 . S
O68 Fe69 1.918 . S
Fe69 O68 1.918 . S
Fe69 O70 2.002 . S
Fe69 O79 1.976 . S
Fe69 O83 1.996 . S
Fe69 O86 1.997 . S
O70 Fe69 2.002 . S
O70 C87 1.295 . S
O71 Fe66 1.997 . S
O71 C87 1.235 . S
O72 Fe66 2.002 . S
O72 C73 1.295 . S
C73 O72 1.295 . S
C73 O75 1.235 . S
C74 O79 1.287 . S
C74 O80 1.255 . S
O75 Fe67 1.997 . S
O75 C73 1.235 . S
C76 O82 1.287 . S
C76 O83 1.255 . S
O77 Fe66 1.976 . S
O77 C84 1.287 . S
O78 Fe67 1.996 . S
O78 C84 1.255 . S
O79 Fe69 1.976 . S
O79 C74 1.287 . S
O80 Fe66 1.996 . S
O80 C74 1.255 . S
C81 O85 1.295 . S
C81 O86 1.235 . S
O82 Fe67 1.976 . S
O82 C76 1.287 . S
O83 Fe69 1.996 . S
O83 C76 1.255 . S
C84 O77 1.287 . S
C84 O78 1.255 . S
O85 Fe67 2.002 . S
O85 C81 1.295 . S
O86 Fe69 1.997 . S
O86 C81 1.235 . S
C87 O70 1.295 . S
C87 O71 1.235 . S
Fe88 O90 1.918 . S
Fe88 O93 1.997 . S
Fe88 O94 2.002 . S
Fe88 O99 1.976 . S
Fe88 O102 1.996 . S
Fe89 O90 1.918 . S
Fe89 O97 1.997 . S
Fe89 O100 1.996 . S
Fe89 O104 1.976 . S
Fe89 O107 2.002 . S
O90 Fe88 1.918 . S
O90 Fe89 1.918 . S
O90 Fe91 1.918 1_455 S
Fe91 O90 1.918 1_655 S
Fe91 O92 2.002 . S
Fe91 O101 1.976 . S
Fe91 O105 1.996 . S
Fe91 O108 1.997 . S
O92 Fe91 2.002 . S
O92 C109 1.295 . S
O93 Fe88 1.997 . S
O93 C109 1.235 1_455 S
O94 Fe88 2.002 . S
O94 C95 1.295 . S
C95 O94 1.295 . S
C95 O97 1.235 . S
C96 O101 1.306 . S
C96 O102 1.241 1_655 S
O97 Fe89 1.997 . S
O97 C95 1.235 . S
C98 O104 1.287 . S
C98 O105 1.255 1_455 S
O99 Fe88 1.976 . S
O99 C106 1.287 . S
O100 Fe89 1.996 . S
O100 C106 1.255 . S
O101 Fe91 1.976 . S
O101 C96 1.306 . S
O102 Fe88 1.996 . S
O102 C96 1.241 1_455 S
C103 O107 1.295 1_655 S
C103 O108 1.235 . S
O104 Fe89 1.976 . S
O104 C98 1.287 . S
O105 Fe91 1.996 . S
O105 C98 1.255 1_655 S
C106 O99 1.287 . S
C106 O100 1.255 . S
O107 Fe89 2.002 . S
O107 C103 1.295 1_455 S
O108 Fe91 1.997 . S
O108 C103 1.235 . S
C109 O92 1.295 . S
C109 O93 1.235 1_655 S
Fe110 O112 1.918 . S
Fe110 O115 1.997 . S
Fe110 O116 2.002 . S
Fe110 O121 1.976 . S
Fe110 O124 1.996 . S
Fe111 O112 1.918 1_565 S
Fe111 O119 1.997 . S
Fe111 O122 1.996 . S
Fe111 O126 1.976 . S
Fe111 O129 2.002 . S
O112 Fe110 1.918 . S
O112 Fe111 1.918 1_545 S
O112 Fe113 1.918 . S
Fe113 O112 1.918 . S
Fe113 O114 2.002 . S
Fe113 O123 1.976 . S
Fe113 O127 1.996 . S
Fe113 O130 1.997 . S
O114 Fe113 2.002 . S
O114 C131 1.295 . S
O115 Fe110 1.997 . S
O115 C131 1.235 . S
O116 Fe110 2.002 . S
O116 C117 1.295 1_545 S
C117 O116 1.295 1_565 S
C117 O119 1.235 . S
C118 O123 1.287 . S
C118 O124 1.255 . S
O119 Fe111 1.997 . S
O119 C117 1.235 . S
C120 O126 1.287 . S
C120 O127 1.251 1_565 S
O121 Fe110 1.976 . S
O121 C128 1.287 . S
O122 Fe111 1.996 . S
O122 C128 1.255 1_565 S
O123 Fe113 1.976 . S
O123 C118 1.287 . S
O124 Fe110 1.996 . S
O124 C118 1.255 . S
C125 O129 1.295 . S
C125 O130 1.235 1_565 S
O126 Fe111 1.976 . S
O126 C120 1.287 . S
O127 Fe113 1.996 . S
O127 C120 1.251 1_545 S
C128 O121 1.287 . S
C128 O122 1.255 1_545 S
O129 Fe111 2.002 . S
O129 C125 1.295 . S
O130 Fe113 1.997 . S
O130 C125 1.235 1_545 S
C131 O114 1.295 . S
C131 O115 1.235 . S
Fe132 O134 1.918 . S
Fe132 O137 1.997 . S
Fe132 O138 2.002 . S
Fe132 O143 1.976 . S
Fe132 O146 1.996 . S
Fe133 O134 1.918 . S
Fe133 O141 1.997 . S
Fe133 O144 1.996 . S
Fe133 O148 1.976 . S
Fe133 O151 2.002 . S
O134 Fe132 1.918 . S
O134 Fe133 1.918 . S
O134 Fe135 1.918 . S
Fe135 O134 1.918 . S
Fe135 O136 2.002 . S
Fe135 O145 1.976 . S
Fe135 O149 1.996 . S
Fe135 O152 1.997 . S
O136 Fe135 2.002 . S
O136 C153 1.295 . S
O137 Fe132 1.997 . S
O137 C153 1.235 . S
O138 Fe132 2.002 . S
O138 C139 1.295 . S
C139 O138 1.295 . S
C139 O141 1.235 . S
C140 O145 1.287 . S
C140 O146 1.255 . S
O141 Fe133 1.997 . S
O141 C139 1.235 . S
C142 O148 1.287 . S
C142 O149 1.255 . S
O143 Fe132 1.976 . S
O143 C150 1.287 . S
O144 Fe133 1.996 . S
O144 C150 1.255 . S
O145 Fe135 1.976 . S
O145 C140 1.287 . S
O146 Fe132 1.996 . S
O146 C140 1.255 . S
C147 O151 1.295 . S
C147 O152 1.235 . S
O148 Fe133 1.976 . S
O148 C142 1.287 . S
O149 Fe135 1.996 . S
O149 C142 1.255 . S
C150 O143 1.287 . S
C150 O144 1.255 . S
O151 Fe133 2.002 . S
O151 C147 1.295 . S
O152 Fe135 1.997 . S
O152 C147 1.235 . S
C153 O136 1.295 . S
C153 O137 1.235 . S
Fe154 O156 1.918 1_455 S
Fe154 O159 1.997 . S
Fe154 O160 2.002 . S
Fe154 O165 1.976 . S
Fe154 O168 1.996 1_556 S
Fe155 O156 1.918 . S
Fe155 O163 1.997 . S
Fe155 O166 1.996 . S
Fe155 O170 1.976 . S
Fe155 O173 2.002 . S
O156 Fe154 1.918 1_655 S
O156 Fe155 1.918 . S
O156 Fe157 1.918 . S
Fe157 O156 1.918 . S
Fe157 O158 2.002 . S
Fe157 O167 1.976 1_556 S
Fe157 O171 1.996 . S
Fe157 O174 1.997 . S
O158 Fe157 2.002 . S
O158 C175 1.295 1_655 S
O159 Fe154 1.997 . S
O159 C175 1.235 . S
O160 Fe154 2.002 . S
O160 C161 1.295 . S
C161 O160 1.295 . S
C161 O163 1.235 1_455 S
C162 O167 1.287 . S
C162 O168 1.255 1_655 S
O163 Fe155 1.997 . S
O163 C161 1.235 1_655 S
C164 O170 1.287 . S
C164 O171 1.255 . S
O165 Fe154 1.976 . S
O165 C172 1.286 1_455 S
O166 Fe155 1.996 . S
O166 C172 1.259 . S
O167 Fe157 1.976 1_554 S
O167 C162 1.287 . S
O168 Fe154 1.996 1_554 S
O168 C162 1.255 1_455 S
C169 O173 1.295 . S
C169 O174 1.235 . S
O170 Fe155 1.976 . S
O170 C164 1.287 . S
O171 Fe157 1.996 . S
O171 C164 1.255 . S
C172 O165 1.286 1_655 S
C172 O166 1.259 . S
O173 Fe155 2.002 . S
O173 C169 1.295 . S
O174 Fe157 1.997 . S
O174 C169 1.235 . S
C175 O158 1.295 1_455 S
C175 O159 1.235 . S
Fe176 O178 1.918 1_545 S
Fe176 O181 1.997 . S
Fe176 O182 2.002 . S
Fe176 O187 1.976 . S
Fe176 O190 1.996 . S
Fe177 O178 1.918 . S
Fe177 O185 1.997 . S
Fe177 O188 1.996 . S
Fe177 O192 1.976 . S
Fe177 O195 2.002 . S
O178 Fe176 1.918 1_565 S
O178 Fe177 1.918 . S
O178 Fe179 1.918 . S
Fe179 O178 1.918 . S
Fe179 O180 2.002 . S
Fe179 O189 1.976 . S
Fe179 O193 1.996 . S
Fe179 O196 1.997 . S
O180 Fe179 2.002 . S
O180 C197 1.295 1_565 S
O181 Fe176 1.997 . S
O181 C197 1.235 . S
O182 Fe176 2.002 . S
O182 C183 1.295 . S
C183 O182 1.295 . S
C183 O185 1.235 1_545 S
C184 O189 1.287 . S
C184 O190 1.255 1_565 S
O185 Fe177 1.997 . S
O185 C183 1.235 1_565 S
C186 O192 1.287 . S
C186 O193 1.255 . S
O187 Fe176 1.976 . S
O187 C194 1.291 . S
O188 Fe177 1.996 . S
O188 C194 1.252 1_565 S
O189 Fe179 1.976 . S
O189 C184 1.287 . S
O190 Fe176 1.996 . S
O190 C184 1.255 1_545 S
C191 O195 1.295 . S
C191 O196 1.235 . S
O192 Fe177 1.976 . S
O192 C186 1.287 . S
O193 Fe179 1.996 . S
O193 C186 1.255 . S
C194 O187 1.291 . S
C194 O188 1.252 1_545 S
O195 Fe177 2.002 . S
O195 C191 1.295 . S
O196 Fe179 1.997 . S
O196 C191 1.235 . S
C197 O180 1.295 1_545 S
C197 O181 1.235 . S
Fe198 O200 1.918 . S
Fe198 O203 1.997 . S
Fe198 O204 2.002 . S
Fe198 O209 1.976 . S
Fe198 O212 1.996 . S
Fe199 O200 1.918 . S
Fe199 O207 1.997 . S
Fe199 O210 1.996 . S
Fe199 O214 1.976 . S
Fe199 O217 2.002 . S
O200 Fe198 1.918 . S
O200 Fe199 1.918 . S
O200 Fe201 1.918 . S
Fe201 O200 1.918 . S
Fe201 O202 2.002 . S
Fe201 O211 1.976 . S
Fe201 O215 1.996 . S
Fe201 O218 1.997 . S
O202 Fe201 2.002 . S
O202 C219 1.295 . S
O203 Fe198 1.997 . S
O203 C219 1.235 . S
O204 Fe198 2.002 . S
O204 C205 1.295 . S
C205 O204 1.295 . S
C205 O207 1.235 . S
C206 O211 1.287 . S
C206 O212 1.255 . S
O207 Fe199 1.997 . S
O207 C205 1.235 . S
C208 O214 1.287 . S
C208 O215 1.255 . S
O209 Fe198 1.976 . S
O209 C216 1.287 . S
O210 Fe199 1.996 . S
O210 C216 1.255 . S
O211 Fe201 1.976 . S
O211 C206 1.287 . S
O212 Fe198 1.996 . S
O212 C206 1.255 . S
C213 O217 1.295 . S
C213 O218 1.235 . S
O214 Fe199 1.976 . S
O214 C208 1.287 . S
O215 Fe201 1.996 . S
O215 C208 1.255 . S
C216 O209 1.287 . S
C216 O210 1.255 . S
O217 Fe199 2.002 . S
O217 C213 1.295 . S
O218 Fe201 1.997 . S
O218 C213 1.235 . S
C219 O202 1.295 . S
C219 O203 1.235 . S
Fe220 O222 1.918 . S
Fe220 O225 1.997 . S
Fe220 O226 2.002 . S
Fe220 O231 1.976 . S
Fe220 O234 1.996 . S
Fe221 O222 1.918 . S
Fe221 O229 1.997 . S
Fe221 O232 1.996 . S
Fe221 O236 1.976 . S
Fe221 O239 2.002 . S
O222 Fe220 1.918 . S
O222 Fe221 1.918 . S
O222 Fe223 1.918 1_455 S
Fe223 O222 1.918 1_655 S
Fe223 O224 2.002 . S
Fe223 O233 1.976 . S
Fe223 O237 1.996 . S
Fe223 O240 1.997 . S
O224 Fe223 2.002 . S
O224 C241 1.295 . S
O225 Fe220 1.997 . S
O225 C241 1.235 1_455 S
O226 Fe220 2.002 . S
O226 C227 1.295 . S
C227 O226 1.295 . S
C227 O229 1.235 . S
C228 O233 1.289 . S
C228 O234 1.237 1_655 S
O229 Fe221 1.997 . S
O229 C227 1.235 . S
C230 O236 1.287 . S
C230 O237 1.255 1_455 S
O231 Fe220 1.976 . S
O231 C238 1.287 . S
O232 Fe221 1.996 . S
O232 C238 1.255 . S
O233 Fe223 1.976 . S
O233 C228 1.289 . S
O234 Fe220 1.996 . S
O234 C228 1.237 1_455 S
C235 O239 1.295 1_655 S
C235 O240 1.235 . S
O236 Fe221 1.976 . S
O236 C230 1.287 . S
O237 Fe223 1.996 . S
O237 C230 1.255 1_655 S
C238 O231 1.287 . S
C238 O232 1.255 . S
O239 Fe221 2.002 . S
O239 C235 1.295 1_455 S
O240 Fe223 1.997 . S
O240 C235 1.235 . S
C241 O224 1.295 . S
C241 O225 1.235 1_655 S
Fe242 O244 1.918 1_565 S
Fe242 O247 1.997 . S
Fe242 O248 2.002 . S
Fe242 O253 1.976 . S
Fe242 O256 1.996 . S
Fe243 O244 1.918 . S
Fe243 O251 1.997 . S
Fe243 O254 1.996 . S
Fe243 O258 1.976 . S
Fe243 O261 2.002 . S
O244 Fe242 1.918 1_545 S
O244 Fe243 1.918 . S
O244 Fe245 1.918 . S
Fe245 O244 1.918 . S
Fe245 O246 2.002 . S
Fe245 O255 1.976 . S
Fe245 O259 1.996 . S
Fe245 O262 1.997 . S
O246 Fe245 2.002 . S
O246 C263 1.295 1_545 S
O247 Fe242 1.997 . S
O247 C263 1.235 . S
O248 Fe242 2.002 . S
O248 C249 1.295 . S
C249 O248 1.295 . S
C249 O251 1.235 1_565 S
C250 O255 1.287 . S
C250 O256 1.255 1_545 S
O251 Fe243 1.997 . S
O251 C249 1.235 1_545 S
C252 O258 1.287 . S
C252 O259 1.255 . S
O253 Fe242 1.976 . S
O253 C260 1.291 . S
O254 Fe243 1.996 . S
O254 C260 1.252 1_545 S
O255 Fe245 1.976 . S
O255 C250 1.287 . S
O256 Fe242 1.996 . S
O256 C250 1.255 1_565 S
C257 O261 1.295 . S
C257 O262 1.235 . S
O258 Fe243 1.976 . S
O258 C252 1.287 . S
O259 Fe245 1.996 . S
O259 C252 1.255 . S
C260 O253 1.291 . S
C260 O254 1.252 1_565 S
O261 Fe243 2.002 . S
O261 C257 1.295 . S
O262 Fe245 1.997 . S
O262 C257 1.235 . S
C263 O246 1.295 1_565 S
C263 O247 1.235 . S
C264 C265 1.349 . S
C264 C266 1.327 . S
C264 H289 0.950 . S
C265 C264 1.349 . S
C265 C281 1.349 1_556 S
C266 C264 1.327 . S
C266 C285 1.429 . S
C266 H290 0.950 . S
C267 C284 1.574 . S
C267 C286 1.330 1_554 S
C267 H291 0.949 . S
H268 C272 0.949 . S
C269 C270 1.349 . S
C269 C271 1.327 . S
C269 H292 0.950 . S
C270 C269 1.349 . S
C270 C282 1.349 1_554 S
C271 C269 1.327 . S
C271 C287 1.429 . S
C271 H293 0.950 . S
C272 H268 0.949 . S
C272 C280 1.574 . S
C272 C288 1.368 1_556 S
H273 C281 0.950 . S
H274 C279 0.950 . S
H275 C280 0.949 . S
H276 C282 0.950 . S
H277 C283 0.950 . S
H278 C284 0.949 . S
C279 H274 0.950 . S
C279 C281 1.327 . S
C279 C285 1.429 1_554 S
C280 C272 1.574 . S
C280 H275 0.949 . S
C280 C286 1.403 . S
C281 C265 1.349 1_554 S
C281 H273 0.950 . S
C281 C279 1.327 . S
C282 C270 1.349 1_556 S
C282 H276 0.950 . S
C282 C283 1.327 . S
C283 H277 0.950 . S
C283 C282 1.327 . S
C283 C287 1.429 1_556 S
C284 C267 1.574 . S
C284 H278 0.949 . S
C284 C288 1.368 . S
C285 C266 1.429 . S
C285 C279 1.429 1_556 S
C285 C286 1.529 . S
C286 C267 1.330 1_556 S
C286 C280 1.403 . S
C286 C285 1.529 . S
C287 C271 1.429 . S
C287 C283 1.429 1_554 S
C287 C288 1.523 . S
C288 C272 1.368 1_554 S
C288 C284 1.368 . S
C288 C287 1.523 . S
H289 C264 0.950 . S
H290 C266 0.950 . S
H291 C267 0.949 . S
H292 C269 0.950 . S
H293 C271 0.950 . S
C294 C295 1.349 . S
C294 C296 1.327 . S
C294 H319 0.950 . S
C295 C294 1.349 . S
C295 C311 1.349 . S
C296 C294 1.327 . S
C296 C315 1.429 . S
C296 H320 0.950 . S
C297 C314 1.574 . S
C297 C316 1.368 . S
C297 H321 0.949 . S
H298 C302 0.949 . S
C299 C300 1.349 . S
C299 C301 1.327 . S
C299 H322 0.950 . S
C300 C299 1.349 . S
C300 C312 1.349 . S
C301 C299 1.327 . S
C301 C317 1.429 . S
C301 H323 0.950 . S
C302 H298 0.949 . S
C302 C310 1.574 . S
C302 C318 1.368 . S
H303 C311 0.950 . S
H304 C309 0.950 . S
H305 C310 0.949 . S
H306 C312 0.950 1_655 S
H307 C313 0.950 . S
H308 C314 0.949 . S
C309 H304 0.950 . S
C309 C311 1.327 . S
C309 C315 1.429 . S
C310 C302 1.574 . S
C310 H305 0.949 . S
C310 C316 1.368 . S
C311 C295 1.349 . S
C311 H303 0.950 . S
C311 C309 1.327 . S
C312 C300 1.349 . S
C312 H306 0.950 1_455 S
C312 C313 1.327 . S
C313 H307 0.950 . S
C313 C312 1.327 . S
C313 C317 1.429 . S
C314 C297 1.574 . S
C314 H308 0.949 . S
C314 C318 1.368 . S
C315 C296 1.429 . S
C315 C309 1.429 . S
C315 C316 1.523 . S
C316 C297 1.368 . S
C316 C310 1.368 . S
C316 C315 1.523 . S
C317 C301 1.429 . S
C317 C313 1.429 . S
C317 C318 1.523 . S
C318 C302 1.368 . S
C318 C314 1.368 . S
C318 C317 1.523 . S
H319 C294 0.950 . S
H320 C296 0.950 . S
H321 C297 0.949 . S
H322 C299 0.950 . S
H323 C301 0.950 . S
C324 C325 1.349 . S
C324 C326 1.327 . S
C324 H349 0.950 . S
C325 C324 1.349 . S
C325 C341 1.349 . S
C326 C324 1.327 . S
C326 C345 1.429 . S
C326 H350 0.950 . S
C327 C344 1.574 . S
C327 C346 1.368 . S
C327 H351 0.949 . S
H328 C332 0.949 . S
C329 C330 1.349 . S
C329 C331 1.327 . S
C329 H352 0.950 . S
C330 C329 1.349 . S
C330 C342 1.349 . S
C331 C329 1.327 . S
C331 C347 1.429 . S
C331 H353 0.950 . S
C332 H328 0.949 . S
C332 C340 1.574 . S
C332 C348 1.368 . S
H333 C341 0.950 . S
H334 C339 0.950 . S
H335 C340 0.949 . S
H336 C342 0.950 1_565 S
H337 C343 0.950 . S
H338 C344 0.949 . S
C339 H334 0.950 . S
C339 C341 1.327 . S
C339 C345 1.429 . S
C340 C332 1.574 . S
C340 H335 0.949 . S
C340 C346 1.368 . S
C341 C325 1.349 . S
C341 H333 0.950 . S
C341 C339 1.327 . S
C342 C330 1.349 . S
C342 H336 0.950 1_545 S
C342 C343 1.327 . S
C343 H337 0.950 . S
C343 C342 1.327 . S
C343 C347 1.429 . S
C344 C327 1.574 . S
C344 H338 0.949 . S
C344 C348 1.368 . S
C345 C326 1.429 . S
C345 C339 1.429 . S
C345 C346 1.523 . S
C346 C327 1.368 . S
C346 C340 1.368 . S
C346 C345 1.523 . S
C347 C331 1.429 . S
C347 C343 1.429 . S
C347 C348 1.523 . S
C348 C332 1.368 . S
C348 C344 1.368 . S
C348 C347 1.523 . S
H349 C324 0.950 . S
H350 C326 0.950 . S
H351 C327 0.949 . S
H352 C329 0.950 . S
H353 C331 0.950 . S
C354 C355 1.349 . S
C354 C356 1.327 . S
C354 H379 0.950 . S
C355 C354 1.349 . S
C355 C371 1.349 . S
C356 C354 1.327 . S
C356 C375 1.429 . S
C356 H380 0.950 . S
C357 C374 1.574 . S
C357 C376 1.368 . S
C357 H381 0.949 . S
H358 C362 0.949 . S
C359 C360 1.349 . S
C359 C361 1.327 . S
C359 H382 0.950 . S
C360 C359 1.349 . S
C360 C372 1.349 . S
C361 C359 1.327 . S
C361 C377 1.429 . S
C361 H383 0.950 . S
C362 H358 0.949 . S
C362 C370 1.574 . S
C362 C378 1.368 . S
H363 C371 0.950 . S
H364 C369 0.950 . S
H365 C370 0.949 . S
H366 C372 0.950 . S
H367 C373 0.950 . S
H368 C374 0.949 . S
C369 H364 0.950 . S
C369 C371 1.327 . S
C369 C375 1.429 . S
C370 C362 1.574 . S
C370 H365 0.949 . S
C370 C376 1.368 . S
C371 C355 1.349 . S
C371 H363 0.950 . S
C371 C369 1.327 . S
C372 C360 1.349 . S
C372 H366 0.950 . S
C372 C373 1.327 . S
C373 H367 0.950 . S
C373 C372 1.327 . S
C373 C377 1.429 . S
C374 C357 1.574 . S
C374 H368 0.949 . S
C374 C378 1.368 . S
C375 C356 1.429 . S
C375 C369 1.429 . S
C375 C376 1.523 . S
C376 C357 1.368 . S
C376 C370 1.368 . S
C376 C375 1.523 . S
C377 C361 1.429 . S
C377 C373 1.429 . S
C377 C378 1.523 . S
C378 C362 1.368 . S
C378 C374 1.368 . S
C378 C377 1.523 . S
H379 C354 0.950 . S
H380 C356 0.950 . S
H381 C357 0.949 . S
H382 C359 0.950 . S
H383 C361 0.950 . S
C384 C385 1.349 . S
C384 C386 1.327 . S
C384 H409 0.950 . S
C385 C384 1.349 . S
C385 C401 1.349 . S
C386 C384 1.327 . S
C386 C405 1.429 . S
C386 H410 0.950 . S
C387 C404 1.574 . S
C387 C406 1.368 . S
C387 H411 0.949 . S
H388 C392 0.949 . S
C389 C390 1.349 . S
C389 C391 1.327 . S
C389 H412 0.950 . S
C390 C389 1.349 . S
C390 C402 1.349 . S
C391 C389 1.327 . S
C391 C407 1.429 . S
C391 H413 0.950 . S
C392 H388 0.949 . S
C392 C400 1.574 . S
C392 C408 1.368 . S
H393 C401 0.950 . S
H394 C399 0.950 . S
H395 C400 0.949 . S
H396 C402 0.950 1_455 S
H397 C403 0.950 . S
H398 C404 0.949 . S
C399 H394 0.950 . S
C399 C401 1.327 . S
C399 C405 1.429 . S
C400 C392 1.574 . S
C400 H395 0.949 . S
C400 C406 1.368 . S
C401 C385 1.349 . S
C401 H393 0.950 . S
C401 C399 1.327 . S
C402 C390 1.349 . S
C402 H396 0.950 1_655 S
C402 C403 1.327 . S
C403 H397 0.950 . S
C403 C402 1.327 . S
C403 C407 1.429 . S
C404 C387 1.574 . S
C404 H398 0.949 . S
C404 C408 1.368 . S
C405 C386 1.429 . S
C405 C399 1.429 . S
C405 C406 1.523 . S
C406 C387 1.368 . S
C406 C400 1.368 . S
C406 C405 1.523 . S
C407 C391 1.429 . S
C407 C403 1.429 . S
C407 C408 1.523 . S
C408 C392 1.368 . S
C408 C404 1.368 . S
C408 C407 1.523 . S
H409 C384 0.950 . S
H410 C386 0.950 . S
H411 C387 0.949 . S
H412 C389 0.950 . S
H413 C391 0.950 . S
C414 C415 1.349 . S
C414 C416 1.327 . S
C414 H439 0.950 . S
C415 C414 1.349 . S
C415 C431 1.349 . S
C416 C414 1.327 . S
C416 C435 1.429 . S
C416 H440 0.950 . S
C417 C434 1.574 . S
C417 C436 1.368 . S
C417 H441 0.949 . S
H418 C422 0.949 . S
C419 C420 1.349 . S
C419 C421 1.327 . S
C419 H442 0.950 . S
C420 C419 1.349 . S
C420 C432 1.349 . S
C421 C419 1.327 . S
C421 C437 1.429 . S
C421 H443 0.950 . S
C422 H418 0.949 . S
C422 C430 1.574 . S
C422 C438 1.368 . S
H423 C431 0.950 . S
H424 C429 0.950 . S
H425 C430 0.949 . S
H426 C432 0.950 1_545 S
H427 C433 0.950 . S
H428 C434 0.949 . S
C429 H424 0.950 . S
C429 C431 1.327 . S
C429 C435 1.429 . S
C430 C422 1.574 . S
C430 H425 0.949 . S
C430 C436 1.368 . S
C431 C415 1.349 . S
C431 H423 0.950 . S
C431 C429 1.327 . S
C432 C420 1.349 . S
C432 H426 0.950 1_565 S
C432 C433 1.327 . S
C433 H427 0.950 . S
C433 C432 1.327 . S
C433 C437 1.429 . S
C434 C417 1.574 . S
C434 H428 0.949 . S
C434 C438 1.368 . S
C435 C416 1.429 . S
C435 C429 1.429 . S
C435 C436 1.523 . S
C436 C417 1.368 . S
C436 C430 1.368 . S
C436 C435 1.523 . S
C437 C421 1.429 . S
C437 C433 1.429 . S
C437 C438 1.523 . S
C438 C422 1.368 . S
C438 C434 1.368 . S
C438 C437 1.523 . S
H439 C414 0.950 . S
H440 C416 0.950 . S
H441 C417 0.949 . S
H442 C419 0.950 . S
H443 C421 0.950 . S
C444 C445 1.349 . S
C444 C446 1.327 . S
C444 H469 0.950 . S
C445 C444 1.349 . S
C445 C461 1.349 . S
C446 C444 1.327 . S
C446 C465 1.429 . S
C446 H470 0.950 . S
C447 C464 1.574 . S
C447 C466 1.368 . S
C447 H471 0.949 . S
H448 C452 0.949 . S
C449 C450 1.349 . S
C449 C451 1.327 . S
C449 H472 0.950 . S
C450 C449 1.349 . S
C450 C462 1.349 . S
C451 C449 1.327 . S
C451 C467 1.429 . S
C451 H473 0.950 . S
C452 H448 0.949 . S
C452 C460 1.574 . S
C452 C468 1.368 . S
H453 C461 0.950 . S
H454 C459 0.950 . S
H455 C460 0.949 . S
H456 C462 0.950 . S
H457 C463 0.950 . S
H458 C464 0.949 . S
C459 H454 0.950 . S
C459 C461 1.327 . S
C459 C465 1.429 . S
C460 C452 1.574 . S
C460 H455 0.949 . S
C460 C466 1.368 . S
C461 C445 1.349 . S
C461 H453 0.950 . S
C461 C459 1.327 . S
C462 C450 1.349 . S
C462 H456 0.950 . S
C462 C463 1.327 . S
C463 H457 0.950 . S
C463 C462 1.327 . S
C463 C467 1.429 . S
C464 C447 1.574 . S
C464 H458 0.949 . S
C464 C468 1.368 . S
C465 C446 1.429 . S
C465 C459 1.429 . S
C465 C466 1.523 . S
C466 C447 1.368 . S
C466 C460 1.368 . S
C466 C465 1.523 . S
C467 C451 1.429 . S
C467 C463 1.429 . S
C467 C468 1.523 . S
C468 C452 1.368 . S
C468 C464 1.368 . S
C468 C467 1.523 . S
H469 C444 0.950 . S
H470 C446 0.950 . S
H471 C447 0.949 . S
H472 C449 0.950 . S
H473 C451 0.950 . S
C474 C475 1.349 . S
C474 C476 1.327 . S
C474 H499 0.950 . S
C475 C474 1.349 . S
C475 C491 1.302 1_556 S
C476 C474 1.327 . S
C476 C495 1.429 . S
C476 H500 0.950 . S
C477 C494 1.574 . S
C477 C496 1.368 1_554 S
C477 H501 0.949 . S
H478 C482 0.949 . S
C479 C480 1.349 . S
C479 C481 1.327 . S
C479 H502 0.950 . S
C480 C479 1.349 . S
C480 C492 1.349 1_554 S
C481 C479 1.327 . S
C481 C497 1.429 1_554 S
C481 H503 0.950 . S
C482 H478 0.949 . S
C482 C490 1.574 . S
C482 C498 1.368 . S
H483 C491 0.998 . S
H484 C489 0.950 . S
H485 C490 0.949 . S
H486 C492 0.950 . S
H487 C493 0.950 . S
H488 C494 0.949 . S
C489 H484 0.950 . S
C489 C491 1.336 . S
C489 C495 1.429 1_554 S
C490 C482 1.574 . S
C490 H485 0.949 . S
C490 C496 1.368 . S
C491 C475 1.302 1_554 S
C491 H483 0.998 . S
C491 C489 1.336 . S
C492 C480 1.349 1_556 S
C492 H486 0.950 . S
C492 C493 1.327 . S
C493 H487 0.950 . S
C493 C492 1.327 . S
C493 C497 1.429 . S
C494 C477 1.574 . S
C494 H488 0.949 . S
C494 C498 1.368 1_554 S
C495 C476 1.429 . S
C495 C489 1.429 1_556 S
C495 C496 1.523 . S
C496 C477 1.368 1_556 S
C496 C490 1.368 . S
C496 C495 1.523 . S
C497 C481 1.429 1_556 S
C497 C493 1.429 . S
C497 C498 1.523 . S
C498 C482 1.368 . S
C498 C494 1.368 1_556 S
C498 C497 1.523 . S
H499 C474 0.950 . S
H500 C476 0.950 . S
H501 C477 0.949 . S
H502 C479 0.950 . S
H503 C481 0.950 . S
C504 C505 1.349 . S
C504 C506 1.327 . S
C504 H529 0.950 . S
C505 C504 1.349 . S
C505 C521 1.349 . S
C506 C504 1.327 . S
C506 C525 1.429 . S
C506 H530 0.950 . S
C507 C524 1.574 . S
C507 C526 1.368 . S
C507 H531 0.949 . S
H508 C512 0.949 . S
C509 C510 1.349 . S
C509 C511 1.327 . S
C509 H532 0.950 . S
C510 C509 1.349 . S
C510 C522 1.349 . S
C511 C509 1.327 . S
C511 C527 1.429 . S
C511 H533 0.950 . S
C512 H508 0.949 . S
C512 C520 1.574 . S
C512 C528 1.368 . S
H513 C521 0.950 1_565 S
H514 C519 0.950 . S
H515 C520 0.949 . S
H516 C522 0.950 . S
H517 C523 0.950 . S
H518 C524 0.949 . S
C519 H514 0.950 . S
C519 C521 1.327 . S
C519 C525 1.429 . S
C520 C512 1.574 . S
C520 H515 0.949 . S
C520 C526 1.368 . S
C521 C505 1.349 . S
C521 H513 0.950 1_545 S
C521 C519 1.327 . S
C522 C510 1.349 . S
C522 H516 0.950 . S
C522 C523 1.327 . S
C523 H517 0.950 . S
C523 C522 1.327 . S
C523 C527 1.429 . S
C524 C507 1.574 . S
C524 H518 0.949 . S
C524 C528 1.368 . S
C525 C506 1.429 . S
C525 C519 1.429 . S
C525 C526 1.523 . S
C526 C507 1.368 . S
C526 C520 1.368 . S
C526 C525 1.523 . S
C527 C511 1.429 . S
C527 C523 1.429 . S
C527 C528 1.523 . S
C528 C512 1.368 . S
C528 C524 1.368 . S
C528 C527 1.523 . S
H529 C504 0.950 . S
H530 C506 0.950 . S
H531 C507 0.949 . S
H532 C509 0.950 . S
H533 C511 0.950 . S
C534 C535 1.349 . S
C534 C536 1.327 . S
C534 H559 0.950 . S
C535 C534 1.349 . S
C535 C551 1.349 . S
C536 C534 1.327 . S
C536 C555 1.429 . S
C536 H560 0.950 . S
C537 C554 1.574 . S
C537 C556 1.368 . S
C537 H561 0.949 . S
H538 C542 0.949 . S
C539 C540 1.349 . S
C539 C541 1.327 . S
C539 H562 0.950 . S
C540 C539 1.349 . S
C540 C552 1.349 . S
C541 C539 1.327 . S
C541 C557 1.429 . S
C541 H563 0.950 . S
C542 H538 0.949 . S
C542 C550 1.574 . S
C542 C558 1.368 . S
H543 C551 0.950 . S
H544 C549 0.950 . S
H545 C550 0.949 . S
H546 C552 0.950 . S
H547 C553 0.950 . S
H548 C554 0.949 . S
C549 H544 0.950 . S
C549 C551 1.327 . S
C549 C555 1.429 . S
C550 C542 1.574 . S
C550 H545 0.949 . S
C550 C556 1.368 . S
C551 C535 1.349 . S
C551 H543 0.950 . S
C551 C549 1.327 . S
C552 C540 1.349 . S
C552 H546 0.950 . S
C552 C553 1.327 . S
C553 H547 0.950 . S
C553 C552 1.327 . S
C553 C557 1.429 . S
C554 C537 1.574 . S
C554 H548 0.949 . S
C554 C558 1.368 . S
C555 C536 1.429 . S
C555 C549 1.429 . S
C555 C556 1.523 . S
C556 C537 1.368 . S
C556 C550 1.368 . S
C556 C555 1.523 . S
C557 C541 1.429 . S
C557 C553 1.429 . S
C557 C558 1.523 . S
C558 C542 1.368 . S
C558 C554 1.368 . S
C558 C557 1.523 . S
H559 C534 0.950 . S
H560 C536 0.950 . S
H561 C537 0.949 . S
H562 C539 0.950 . S
H563 C541 0.950 . S
C564 C565 1.349 . S
C564 C566 1.327 . S
C564 H589 0.950 1_655 S
C565 C564 1.349 . S
C565 C581 1.349 . S
C566 C564 1.327 . S
C566 C585 1.429 . S
C566 H590 0.950 . S
C567 C584 1.574 . S
C567 C586 1.368 . S
C567 H591 0.949 . S
H568 C572 0.949 . S
C569 C570 1.349 . S
C569 C571 1.327 . S
C569 H592 0.950 . S
C570 C569 1.349 . S
C570 C582 1.349 . S
C571 C569 1.327 . S
C571 C587 1.429 . S
C571 H593 0.950 . S
C572 H568 0.949 . S
C572 C580 1.574 . S
C572 C588 1.368 . S
H573 C581 0.950 . S
H574 C579 0.950 . S
H575 C580 0.949 . S
H576 C582 0.950 . S
H577 C583 0.950 . S
H578 C584 0.949 . S
C579 H574 0.950 . S
C579 C581 1.327 . S
C579 C585 1.429 . S
C580 C572 1.574 . S
C580 H575 0.949 . S
C580 C586 1.368 . S
C581 C565 1.349 . S
C581 H573 0.950 . S
C581 C579 1.327 . S
C582 C570 1.349 . S
C582 H576 0.950 . S
C582 C583 1.327 . S
C583 H577 0.950 . S
C583 C582 1.327 . S
C583 C587 1.429 . S
C584 C567 1.574 . S
C584 H578 0.949 . S
C584 C588 1.368 . S
C585 C566 1.429 . S
C585 C579 1.429 . S
C585 C586 1.523 . S
C586 C567 1.368 . S
C586 C580 1.368 . S
C586 C585 1.523 . S
C587 C571 1.429 . S
C587 C583 1.429 . S
C587 C588 1.523 . S
C588 C572 1.368 . S
C588 C584 1.368 . S
C588 C587 1.523 . S
H589 C564 0.950 1_455 S
H590 C566 0.950 . S
H591 C567 0.949 . S
H592 C569 0.950 . S
H593 C571 0.950 . S
C594 C595 1.349 . S
C594 C596 1.327 . S
C594 H619 0.950 1_565 S
C595 C594 1.349 . S
C595 C611 1.349 . S
C596 C594 1.327 . S
C596 C615 1.429 . S
C596 H620 0.950 . S
C597 C614 1.574 . S
C597 C616 1.368 . S
C597 H621 0.949 . S
H598 C602 0.949 . S
C599 C600 1.349 . S
C599 C601 1.327 . S
C599 H622 0.950 . S
C600 C599 1.349 . S
C600 C612 1.349 . S
C601 C599 1.327 . S
C601 C617 1.429 . S
C601 H623 0.950 . S
C602 H598 0.949 . S
C602 C610 1.574 . S
C602 C618 1.368 . S
H603 C611 0.950 . S
H604 C609 0.950 . S
H605 C610 0.949 . S
H606 C612 0.950 . S
H607 C613 0.950 . S
H608 C614 0.949 . S
C609 H604 0.950 . S
C609 C611 1.327 . S
C609 C615 1.429 . S
C610 C602 1.574 . S
C610 H605 0.949 . S
C610 C616 1.368 . S
C611 C595 1.349 . S
C611 H603 0.950 . S
C611 C609 1.327 . S
C612 C600 1.349 . S
C612 H606 0.950 . S
C612 C613 1.327 . S
C613 H607 0.950 . S
C613 C612 1.327 . S
C613 C617 1.429 . S
C614 C597 1.574 . S
C614 H608 0.949 . S
C614 C618 1.368 . S
C615 C596 1.429 . S
C615 C609 1.429 . S
C615 C616 1.523 . S
C616 C597 1.368 . S
C616 C610 1.368 . S
C616 C615 1.523 . S
C617 C601 1.429 . S
C617 C613 1.429 . S
C617 C618 1.523 . S
C618 C602 1.368 . S
C618 C614 1.368 . S
C618 C617 1.523 . S
H619 C594 0.950 1_545 S
H620 C596 0.950 . S
H621 C597 0.949 . S
H622 C599 0.950 . S
H623 C601 0.950 . S
C624 C625 1.349 . S
C624 C626 1.327 . S
C624 H649 0.950 . S
C625 C624 1.349 . S
C625 C641 1.349 . S
C626 C624 1.327 . S
C626 C645 1.429 . S
C626 H650 0.950 . S
C627 C644 1.574 . S
C627 C646 1.368 . S
C627 H651 0.949 . S
H628 C632 0.949 . S
C629 C630 1.349 . S
C629 C631 1.327 . S
C629 H652 0.950 . S
C630 C629 1.349 . S
C630 C642 1.349 . S
C631 C629 1.327 . S
C631 C647 1.429 . S
C631 H653 0.950 . S
C632 H628 0.949 . S
C632 C640 1.574 . S
C632 C648 1.368 . S
H633 C641 0.950 . S
H634 C639 0.950 . S
H635 C640 0.949 . S
H636 C642 0.950 . S
H637 C643 0.950 . S
H638 C644 0.949 . S
C639 H634 0.950 . S
C639 C641 1.327 . S
C639 C645 1.429 . S
C640 C632 1.574 . S
C640 H635 0.949 . S
C640 C646 1.368 . S
C641 C625 1.349 . S
C641 H633 0.950 . S
C641 C639 1.327 . S
C642 C630 1.349 . S
C642 H636 0.950 . S
C642 C643 1.327 . S
C643 H637 0.950 . S
C643 C642 1.327 . S
C643 C647 1.429 . S
C644 C627 1.574 . S
C644 H638 0.949 . S
C644 C648 1.368 . S
C645 C626 1.429 . S
C645 C639 1.429 . S
C645 C646 1.523 . S
C646 C627 1.368 . S
C646 C640 1.368 . S
C646 C645 1.523 . S
C647 C631 1.429 . S
C647 C643 1.429 . S
C647 C648 1.523 . S
C648 C632 1.368 . S
C648 C644 1.368 . S
C648 C647 1.523 . S
H649 C624 0.950 . S
H650 C626 0.950 . S
H651 C627 0.949 . S
H652 C629 0.950 . S
H653 C631 0.950 . S
C654 C655 1.349 . S
C654 C656 1.327 . S
C654 H679 0.950 . S
C655 C654 1.349 . S
C655 C671 1.349 1_655 S
C656 C654 1.327 . S
C656 C675 1.429 1_655 S
C656 H680 0.950 . S
C657 C674 1.574 . S
C657 C676 1.368 . S
C657 H681 0.949 . S
H658 C662 0.949 . S
C659 C660 1.349 . S
C659 C661 1.327 . S
C659 H682 0.950 . S
C660 C659 1.349 . S
C660 C672 1.349 . S
C661 C659 1.327 . S
C661 C677 1.429 . S
C661 H683 0.950 . S
C662 H658 0.949 . S
C662 C670 1.574 . S
C662 C678 1.368 . S
H663 C671 0.950 . S
H664 C669 0.950 . S
H665 C670 0.949 1_655 S
H666 C672 0.950 . S
H667 C673 0.950 . S
H668 C674 0.949 . S
C669 H664 0.950 . S
C669 C671 1.327 . S
C669 C675 1.429 . S
C670 C662 1.574 . S
C670 H665 0.949 1_455 S
C670 C676 1.368 . S
C671 C655 1.349 1_455 S
C671 H663 0.950 . S
C671 C669 1.327 . S
C672 C660 1.349 . S
C672 H666 0.950 . S
C672 C673 1.327 . S
C673 H667 0.950 . S
C673 C672 1.327 . S
C673 C677 1.429 . S
C674 C657 1.574 . S
C674 H668 0.949 . S
C674 C678 1.368 . S
C675 C656 1.429 1_455 S
C675 C669 1.429 . S
C675 C676 1.523 . S
C676 C657 1.368 . S
C676 C670 1.368 . S
C676 C675 1.523 . S
C677 C661 1.429 . S
C677 C673 1.429 . S
C677 C678 1.523 . S
C678 C662 1.368 . S
C678 C674 1.368 . S
C678 C677 1.523 . S
H679 C654 0.950 . S
H680 C656 0.950 . S
H681 C657 0.949 . S
H682 C659 0.950 . S
H683 C661 0.950 . S
C684 C685 1.349 . S
C684 C686 1.327 . S
C684 H709 0.950 . S
C685 C684 1.349 . S
C685 C701 1.349 . S
C686 C684 1.327 . S
C686 C705 1.429 . S
C686 H710 0.950 . S
C687 C704 1.574 . S
C687 C706 1.368 . S
C687 H711 0.949 . S
H688 C692 0.949 1_565 S
C689 C690 1.349 1_545 S
C689 C691 1.327 . S
C689 H712 0.950 . S
C690 C689 1.349 1_565 S
C690 C702 1.349 . S
C691 C689 1.327 . S
C691 C707 1.429 . S
C691 H713 0.950 . S
C692 H688 0.949 1_545 S
C692 C700 1.574 . S
C692 C708 1.368 . S
H693 C701 0.950 . S
H694 C699 0.950 . S
H695 C700 0.949 . S
H696 C702 0.950 . S
H697 C703 0.950 . S
H698 C704 0.949 . S
C699 H694 0.950 . S
C699 C701 1.327 . S
C699 C705 1.429 . S
C700 C692 1.574 . S
C700 H695 0.949 . S
C700 C706 1.368 . S
C701 C685 1.349 . S
C701 H693 0.950 . S
C701 C699 1.327 . S
C702 C690 1.349 . S
C702 H696 0.950 . S
C702 C703 1.327 . S
C703 H697 0.950 . S
C703 C702 1.327 . S
C703 C707 1.429 1_565 S
C704 C687 1.574 . S
C704 H698 0.949 . S
C704 C708 1.368 . S
C705 C686 1.429 . S
C705 C699 1.429 . S
C705 C706 1.523 . S
C706 C687 1.368 . S
C706 C700 1.368 . S
C706 C705 1.523 . S
C707 C691 1.429 . S
C707 C703 1.429 1_545 S
C707 C708 1.523 . S
C708 C692 1.368 . S
C708 C704 1.368 . S
C708 C707 1.523 . S
H709 C684 0.950 . S
H710 C686 0.950 . S
H711 C687 0.949 . S
H712 C689 0.950 . S
H713 C691 0.950 . S
C714 C715 1.349 . S
C714 C716 1.327 . S
C714 H739 0.950 . S
C715 C714 1.349 . S
C715 C731 1.349 . S
C716 C714 1.327 . S
C716 C735 1.429 . S
C716 H740 0.950 . S
C717 C734 1.574 . S
C717 C736 1.368 . S
C717 H741 0.949 . S
H718 C722 0.949 . S
C719 C720 1.349 . S
C719 C721 1.327 . S
C719 H742 0.950 . S
C720 C719 1.349 . S
C720 C732 1.349 . S
C721 C719 1.327 . S
C721 C737 1.429 . S
C721 H743 0.950 . S
C722 H718 0.949 . S
C722 C730 1.574 . S
C722 C738 1.368 . S
H723 C731 0.950 . S
H724 C729 0.950 . S
H725 C730 0.949 . S
H726 C732 0.950 . S
H727 C733 0.950 . S
H728 C734 0.949 . S
C729 H724 0.950 . S
C729 C731 1.327 . S
C729 C735 1.429 . S
C730 C722 1.574 . S
C730 H725 0.949 . S
C730 C736 1.368 . S
C731 C715 1.349 . S
C731 H723 0.950 . S
C731 C729 1.327 . S
C732 C720 1.349 . S
C732 H726 0.950 . S
C732 C733 1.327 . S
C733 H727 0.950 . S
C733 C732 1.327 . S
C733 C737 1.429 . S
C734 C717 1.574 . S
C734 H728 0.949 . S
C734 C738 1.368 . S
C735 C716 1.429 . S
C735 C729 1.429 . S
C735 C736 1.523 . S
C736 C717 1.368 . S
C736 C730 1.368 . S
C736 C735 1.523 . S
C737 C721 1.429 . S
C737 C733 1.429 . S
C737 C738 1.523 . S
C738 C722 1.368 . S
C738 C734 1.368 . S
C738 C737 1.523 . S
H739 C714 0.950 . S
H740 C716 0.950 . S
H741 C717 0.949 . S
H742 C719 0.950 . S
H743 C721 0.950 . S
C744 C745 1.349 . S
C744 C746 1.327 . S
C744 H769 0.950 . S
C745 C744 1.349 . S
C745 C761 1.349 . S
C746 C744 1.327 . S
C746 C765 1.429 . S
C746 H770 0.950 . S
C747 C764 1.574 . S
C747 C766 1.368 . S
C747 H771 0.949 . S
H748 C752 0.949 . S
C749 C750 1.349 1_655 S
C749 C751 1.327 . S
C749 H772 0.950 1_655 S
C750 C749 1.349 1_455 S
C750 C762 1.350 1_455 S
C751 C749 1.327 . S
C751 C767 1.429 . S
C751 H773 0.950 . S
C752 H748 0.949 . S
C752 C760 1.574 . S
C752 C768 1.368 . S
H753 C761 0.950 . S
H754 C759 0.950 . S
H755 C760 0.949 . S
H756 C762 0.946 1_455 S
H757 C763 0.950 . S
H758 C764 0.949 . S
C759 H754 0.950 . S
C759 C761 1.327 . S
C759 C765 1.429 . S
C760 C752 1.574 . S
C760 H755 0.949 . S
C760 C766 1.368 . S
C761 C745 1.349 . S
C761 H753 0.950 . S
C761 C759 1.327 . S
C762 C750 1.350 1_655 S
C762 H756 0.946 1_655 S
C762 C763 1.329 . S
C763 H757 0.950 . S
C763 C762 1.329 . S
C763 C767 1.429 . S
C764 C747 1.574 . S
C764 H758 0.949 . S
C764 C768 1.368 . S
C765 C746 1.429 . S
C765 C759 1.429 . S
C765 C766 1.523 . S
C766 C747 1.368 . S
C766 C760 1.368 . S
C766 C765 1.523 . S
C767 C751 1.429 . S
C767 C763 1.429 . S
C767 C768 1.523 . S
C768 C752 1.368 . S
C768 C764 1.368 . S
C768 C767 1.523 . S
H769 C744 0.950 . S
H770 C746 0.950 . S
H771 C747 0.949 . S
H772 C749 0.950 1_455 S
H773 C751 0.950 . S
C774 C775 1.349 1_565 S
C774 C776 1.327 . S
C774 H799 0.950 . S
C775 C774 1.349 1_545 S
C775 C791 1.349 . S
C776 C774 1.327 . S
C776 C795 1.429 . S
C776 H800 0.950 . S
C777 C794 1.574 . S
C777 C796 1.368 . S
C777 H801 0.949 . S
H778 C782 0.949 . S
C779 C780 1.349 . S
C779 C781 1.327 . S
C779 H802 0.950 . S
C780 C779 1.349 . S
C780 C792 1.349 . S
C781 C779 1.327 . S
C781 C797 1.429 . S
C781 H803 0.950 . S
C782 H778 0.949 . S
C782 C790 1.574 . S
C782 C798 1.368 . S
H783 C791 0.950 . S
H784 C789 0.950 . S
H785 C790 0.949 . S
H786 C792 0.950 . S
H787 C793 0.950 . S
H788 C794 0.949 . S
C789 H784 0.950 . S
C789 C791 1.327 . S
C789 C795 1.429 1_545 S
C790 C782 1.574 . S
C790 H785 0.949 . S
C790 C796 1.368 . S
C791 C775 1.349 . S
C791 H783 0.950 . S
C791 C789 1.327 . S
C792 C780 1.349 . S
C792 H786 0.950 . S
C792 C793 1.327 . S
C793 H787 0.950 . S
C793 C792 1.327 . S
C793 C797 1.429 . S
C794 C777 1.574 . S
C794 H788 0.949 . S
C794 C798 1.368 . S
C795 C776 1.429 . S
C795 C789 1.429 1_565 S
C795 C796 1.523 . S
C796 C777 1.368 . S
C796 C790 1.368 . S
C796 C795 1.523 . S
C797 C781 1.429 . S
C797 C793 1.429 . S
C797 C798 1.523 . S
C798 C782 1.368 . S
C798 C794 1.368 . S
C798 C797 1.523 . S
H799 C774 0.950 . S
H800 C776 0.950 . S
H801 C777 0.949 . S
H802 C779 0.950 . S
H803 C781 0.950 . S
C804 C805 1.349 . S
C804 C806 1.327 . S
C804 H829 0.950 . S
C805 C804 1.349 . S
C805 C821 1.349 . S
C806 C804 1.327 . S
C806 C825 1.429 . S
C806 H830 0.950 . S
C807 C824 1.574 . S
C807 C826 1.368 . S
C807 H831 0.949 . S
H808 C812 0.949 . S
C809 C810 1.349 . S
C809 C811 1.327 . S
C809 H832 0.950 . S
C810 C809 1.349 . S
C810 C822 1.349 . S
C811 C809 1.327 . S
C811 C827 1.429 . S
C811 H833 0.950 . S
C812 H808 0.949 . S
C812 C820 1.574 . S
C812 C828 1.368 . S
H813 C821 0.950 . S
H814 C819 0.950 . S
H815 C820 0.949 . S
H816 C822 0.950 . S
H817 C823 0.950 . S
H818 C824 0.949 . S
C819 H814 0.950 . S
C819 C821 1.327 . S
C819 C825 1.429 . S
C820 C812 1.574 . S
C820 H815 0.949 . S
C820 C826 1.368 . S
C821 C805 1.349 . S
C821 H813 0.950 . S
C821 C819 1.327 . S
C822 C810 1.349 . S
C822 H816 0.950 . S
C822 C823 1.327 . S
C823 H817 0.950 . S
C823 C822 1.327 . S
C823 C827 1.429 . S
C824 C807 1.574 . S
C824 H818 0.949 . S
C824 C828 1.368 . S
C825 C806 1.429 . S
C825 C819 1.429 . S
C825 C826 1.523 . S
C826 C807 1.368 . S
C826 C820 1.368 . S
C826 C825 1.523 . S
C827 C811 1.429 . S
C827 C823 1.429 . S
C827 C828 1.523 . S
C828 C812 1.368 . S
C828 C824 1.368 . S
C828 C827 1.523 . S
H829 C804 0.950 . S
H830 C806 0.950 . S
H831 C807 0.949 . S
H832 C809 0.950 . S
H833 C811 0.950 . S
C834 C835 1.349 . S
C834 C836 1.327 1_655 S
C834 H859 0.950 . S
C835 C834 1.349 . S
C835 C851 1.349 1_655 S
C836 C834 1.327 1_455 S
C836 C855 1.429 . S
C836 H860 0.950 . S
C837 C854 1.574 . S
C837 C856 1.368 . S
C837 H861 0.949 . S
H838 C842 0.949 . S
C839 C840 1.349 . S
C839 C841 1.327 . S
C839 H862 0.950 . S
C840 C839 1.349 . S
C840 C852 1.349 . S
C841 C839 1.327 . S
C841 C857 1.429 . S
C841 H863 0.950 . S
C842 H838 0.949 . S
C842 C850 1.574 . S
C842 C858 1.368 . S
H843 C851 0.950 . S
H844 C849 0.950 . S
H845 C850 0.949 . S
H846 C852 0.950 . S
H847 C853 0.950 . S
H848 C854 0.949 . S
C849 H844 0.950 . S
C849 C851 1.327 . S
C849 C855 1.429 . S
C850 C842 1.574 . S
C850 H845 0.949 . S
C850 C856 1.368 . S
C851 C835 1.349 1_455 S
C851 H843 0.950 . S
C851 C849 1.327 . S
C852 C840 1.349 . S
C852 H846 0.950 . S
C852 C853 1.327 . S
C853 H847 0.950 . S
C853 C852 1.327 . S
C853 C857 1.429 . S
C854 C837 1.574 . S
C854 H848 0.949 . S
C854 C858 1.368 . S
C855 C836 1.429 . S
C855 C849 1.429 . S
C855 C856 1.523 . S
C856 C837 1.368 . S
C856 C850 1.368 . S
C856 C855 1.523 . S
C857 C841 1.429 . S
C857 C853 1.429 . S
C857 C858 1.523 . S
C858 C842 1.368 . S
C858 C854 1.368 . S
C858 C857 1.523 . S
H859 C834 0.950 . S
H860 C836 0.950 . S
H861 C837 0.949 . S
H862 C839 0.950 . S
H863 C841 0.950 . S
C864 C865 1.349 1_545 S
C864 C866 1.327 . S
C864 H889 0.950 . S
C865 C864 1.349 1_565 S
C865 C881 1.349 . S
C866 C864 1.327 . S
C866 C885 1.429 . S
C866 H890 0.950 . S
C867 C884 1.574 . S
C867 C886 1.368 . S
C867 H891 0.949 1_545 S
H868 C872 0.949 . S
C869 C870 1.349 . S
C869 C871 1.327 . S
C869 H892 0.950 . S
C870 C869 1.349 . S
C870 C882 1.349 . S
C871 C869 1.327 . S
C871 C887 1.429 . S
C871 H893 0.950 . S
C872 H868 0.949 . S
C872 C880 1.574 . S
C872 C888 1.368 . S
H873 C881 0.950 . S
H874 C879 0.950 . S
H875 C880 0.949 . S
H876 C882 0.950 . S
H877 C883 0.950 . S
H878 C884 0.949 . S
C879 H874 0.950 . S
C879 C881 1.327 . S
C879 C885 1.429 1_565 S
C880 C872 1.574 . S
C880 H875 0.949 . S
C880 C886 1.368 . S
C881 C865 1.349 . S
C881 H873 0.950 . S
C881 C879 1.327 . S
C882 C870 1.349 . S
C882 H876 0.950 . S
C882 C883 1.327 . S
C883 H877 0.950 . S
C883 C882 1.327 . S
C883 C887 1.429 . S
C884 C867 1.574 . S
C884 H878 0.949 . S
C884 C888 1.368 . S
C885 C866 1.429 . S
C885 C879 1.429 1_545 S
C885 C886 1.523 . S
C886 C867 1.368 . S
C886 C880 1.368 . S
C886 C885 1.523 . S
C887 C871 1.429 . S
C887 C883 1.429 . S
C887 C888 1.523 . S
C888 C872 1.368 . S
C888 C884 1.368 . S
C888 C887 1.523 . S
H889 C864 0.950 . S
H890 C866 0.950 . S
H891 C867 0.949 1_565 S
H892 C869 0.950 . S
H893 C871 0.950 . S
C894 C895 1.349 . S
C894 C896 1.327 . S
C894 H919 0.950 . S
C895 C894 1.349 . S
C895 C911 1.349 . S
C896 C894 1.327 . S
C896 C915 1.429 . S
C896 H920 0.950 . S
C897 C914 1.574 . S
C897 C916 1.368 . S
C897 H921 0.949 . S
H898 C902 0.949 . S
C899 C900 1.349 . S
C899 C901 1.327 . S
C899 H922 0.950 . S
C900 C899 1.349 . S
C900 C912 1.349 . S
C901 C899 1.327 . S
C901 C917 1.429 . S
C901 H923 0.950 . S
C902 H898 0.949 . S
C902 C910 1.574 . S
C902 C918 1.368 . S
H903 C911 0.950 . S
H904 C909 0.950 . S
H905 C910 0.949 . S
H906 C912 0.950 . S
H907 C913 0.950 . S
H908 C914 0.949 . S
C909 H904 0.950 . S
C909 C911 1.327 . S
C909 C915 1.429 . S
C910 C902 1.574 . S
C910 H905 0.949 . S
C910 C916 1.368 . S
C911 C895 1.349 . S
C911 H903 0.950 . S
C911 C909 1.327 . S
C912 C900 1.349 . S
C912 H906 0.950 . S
C912 C913 1.327 . S
C913 H907 0.950 . S
C913 C912 1.327 . S
C913 C917 1.429 . S
C914 C897 1.574 . S
C914 H908 0.949 . S
C914 C918 1.368 . S
C915 C896 1.429 . S
C915 C909 1.429 . S
C915 C916 1.523 . S
C916 C897 1.368 . S
C916 C910 1.368 . S
C916 C915 1.523 . S
C917 C901 1.429 . S
C917 C913 1.429 . S
C917 C918 1.523 . S
C918 C902 1.368 . S
C918 C914 1.368 . S
C918 C917 1.523 . S
H919 C894 0.950 . S
H920 C896 0.950 . S
H921 C897 0.949 . S
H922 C899 0.950 . S
H923 C901 0.950 . S
C924 C925 1.349 1_655 S
C924 C926 1.327 . S
C924 H949 0.950 . S
C925 C924 1.349 1_455 S
C925 C941 1.349 . S
C926 C924 1.327 . S
C926 C945 1.429 . S
C926 H950 0.950 . S
C927 C944 1.574 . S
C927 C946 1.368 . S
C927 H951 0.949 1_655 S
H928 C932 0.949 . S
C929 C930 1.349 . S
C929 C931 1.327 . S
C929 H952 0.950 . S
C930 C929 1.349 . S
C930 C942 1.349 . S
C931 C929 1.327 . S
C931 C947 1.429 . S
C931 H953 0.950 . S
C932 H928 0.949 . S
C932 C940 1.574 . S
C932 C948 1.368 . S
H933 C941 0.950 . S
H934 C939 0.950 . S
H935 C940 0.949 . S
H936 C942 0.950 . S
H937 C943 0.950 . S
H938 C944 0.949 . S
C939 H934 0.950 . S
C939 C941 1.327 . S
C939 C945 1.429 1_455 S
C940 C932 1.574 . S
C940 H935 0.949 . S
C940 C946 1.368 . S
C941 C925 1.349 . S
C941 H933 0.950 . S
C941 C939 1.327 . S
C942 C930 1.349 . S
C942 H936 0.950 . S
C942 C943 1.327 . S
C943 H937 0.950 . S
C943 C942 1.327 . S
C943 C947 1.429 . S
C944 C927 1.574 . S
C944 H938 0.949 . S
C944 C948 1.368 . S
C945 C926 1.429 . S
C945 C939 1.429 1_655 S
C945 C946 1.523 . S
C946 C927 1.368 . S
C946 C940 1.368 . S
C946 C945 1.523 . S
C947 C931 1.429 . S
C947 C943 1.429 . S
C947 C948 1.523 . S
C948 C932 1.368 . S
C948 C944 1.368 . S
C948 C947 1.523 . S
H949 C924 0.950 . S
H950 C926 0.950 . S
H951 C927 0.949 1_455 S
H952 C929 0.950 . S
H953 C931 0.950 . S
C954 C955 1.349 . S
C954 C956 1.327 . S
C954 H979 0.950 . S
C955 C954 1.349 . S
C955 C971 1.349 . S
C956 C954 1.327 . S
C956 C975 1.429 . S
C956 H980 0.950 . S
C957 C974 1.574 . S
C957 C976 1.368 . S
C957 H981 0.949 . S
H958 C962 0.949 . S
C959 C960 1.349 . S
C959 C961 1.327 . S
C959 H982 0.950 . S
C960 C959 1.349 . S
C960 C972 1.349 1_545 S
C961 C959 1.327 . S
C961 C977 1.429 1_545 S
C961 H983 0.950 . S
C962 H958 0.949 . S
C962 C970 1.574 . S
C962 C978 1.368 . S
H963 C971 0.950 . S
H964 C969 0.950 . S
H965 C970 0.949 . S
H966 C972 0.950 . S
H967 C973 0.950 . S
H968 C974 0.949 1_545 S
C969 H964 0.950 . S
C969 C971 1.327 . S
C969 C975 1.429 . S
C970 C962 1.574 . S
C970 H965 0.949 . S
C970 C976 1.368 . S
C971 C955 1.349 . S
C971 H963 0.950 . S
C971 C969 1.327 . S
C972 C960 1.349 1_565 S
C972 H966 0.950 . S
C972 C973 1.327 . S
C973 H967 0.950 . S
C973 C972 1.327 . S
C973 C977 1.429 . S
C974 C957 1.574 . S
C974 H968 0.949 1_565 S
C974 C978 1.368 . S
C975 C956 1.429 . S
C975 C969 1.429 . S
C975 C976 1.523 . S
C976 C957 1.368 . S
C976 C970 1.368 . S
C976 C975 1.523 . S
C977 C961 1.429 1_565 S
C977 C973 1.429 . S
C977 C978 1.523 . S
C978 C962 1.368 . S
C978 C974 1.368 . S
C978 C977 1.523 . S
H979 C954 0.950 . S
H980 C956 0.950 . S
H981 C957 0.949 . S
H982 C959 0.950 . S
H983 C961 0.950 . S
C984 C985 1.349 . S
C984 C986 1.327 . S
C984 H1009 0.950 . S
C985 C984 1.349 . S
C985 C1001 1.349 . S
C986 C984 1.327 . S
C986 C1005 1.429 . S
C986 H1010 0.950 . S
C987 C1004 1.574 . S
C987 C1006 1.368 . S
C987 H1011 0.949 . S
H988 C992 0.949 . S
C989 C990 1.349 . S
C989 C991 1.327 . S
C989 H1012 0.950 . S
C990 C989 1.349 . S
C990 C1002 1.349 . S
C991 C989 1.327 . S
C991 C1007 1.429 . S
C991 H1013 0.950 . S
C992 H988 0.949 . S
C992 C1000 1.574 . S
C992 C1008 1.368 . S
H993 C1001 0.950 . S
H994 C999 0.950 . S
H995 C1000 0.949 . S
H996 C1002 0.950 . S
H997 C1003 0.950 . S
H998 C1004 0.949 . S
C999 H994 0.950 . S
C999 C1001 1.327 . S
C999 C1005 1.429 . S
C1000 C992 1.574 . S
C1000 H995 0.949 . S
C1000 C1006 1.368 . S
C1001 C985 1.349 . S
C1001 H993 0.950 . S
C1001 C999 1.327 . S
C1002 C990 1.349 . S
C1002 H996 0.950 . S
C1002 C1003 1.327 . S
C1003 H997 0.950 . S
C1003 C1002 1.327 . S
C1003 C1007 1.429 . S
C1004 C987 1.574 . S
C1004 H998 0.949 . S
C1004 C1008 1.368 . S
C1005 C986 1.429 . S
C1005 C999 1.429 . S
C1005 C1006 1.523 . S
C1006 C987 1.368 . S
C1006 C1000 1.368 . S
C1006 C1005 1.523 . S
C1007 C991 1.429 . S
C1007 C1003 1.429 . S
C1007 C1008 1.523 . S
C1008 C992 1.368 . S
C1008 C1004 1.368 . S
C1008 C1007 1.523 . S
H1009 C984 0.950 . S
H1010 C986 0.950 . S
H1011 C987 0.949 . S
H1012 C989 0.950 . S
H1013 C991 0.950 . S
C1014 C1015 1.349 . S
C1014 C1016 1.327 . S
C1014 H1039 0.950 . S
C1015 C1014 1.349 . S
C1015 C1031 1.349 . S
C1016 C1014 1.327 . S
C1016 C1035 1.429 . S
C1016 H1040 0.950 . S
C1017 C1034 1.574 . S
C1017 C1036 1.368 . S
C1017 H1041 0.949 . S
H1018 C1022 0.949 . S
C1019 C1020 1.349 . S
C1019 C1021 1.327 . S
C1019 H1042 0.950 . S
C1020 C1019 1.349 . S
C1020 C1032 1.349 . S
C1021 C1019 1.327 . S
C1021 C1037 1.429 . S
C1021 H1043 0.950 . S
C1022 H1018 0.949 . S
C1022 C1030 1.574 . S
C1022 C1038 1.368 . S
H1023 C1031 0.950 . S
H1024 C1029 0.950 . S
H1025 C1030 0.949 . S
H1026 C1032 0.950 . S
H1027 C1033 0.950 . S
H1028 C1034 0.949 . S
C1029 H1024 0.950 . S
C1029 C1031 1.327 . S
C1029 C1035 1.429 . S
C1030 C1022 1.574 . S
C1030 H1025 0.949 . S
C1030 C1036 1.368 . S
C1031 C1015 1.349 . S
C1031 H1023 0.950 . S
C1031 C1029 1.327 . S
C1032 C1020 1.349 . S
C1032 H1026 0.950 . S
C1032 C1033 1.327 . S
C1033 H1027 0.950 . S
C1033 C1032 1.327 . S
C1033 C1037 1.429 . S
C1034 C1017 1.574 . S
C1034 H1028 0.949 . S
C1034 C1038 1.368 . S
C1035 C1016 1.429 . S
C1035 C1029 1.429 . S
C1035 C1036 1.523 . S
C1036 C1017 1.368 . S
C1036 C1030 1.368 . S
C1036 C1035 1.523 . S
C1037 C1021 1.429 . S
C1037 C1033 1.429 . S
C1037 C1038 1.523 . S
C1038 C1022 1.368 . S
C1038 C1034 1.368 . S
C1038 C1037 1.523 . S
H1039 C1014 0.950 . S
H1040 C1016 0.950 . S
H1041 C1017 0.949 . S
H1042 C1019 0.950 . S
H1043 C1021 0.950 . S
C1044 C1045 1.349 . S
C1044 C1046 1.327 . S
C1044 H1069 0.950 . S
C1045 C1044 1.349 . S
C1045 C1061 1.349 . S
C1046 C1044 1.327 . S
C1046 C1065 1.429 . S
C1046 H1070 0.950 . S
C1047 C1064 1.574 . S
C1047 C1066 1.368 . S
C1047 H1071 0.949 . S
H1048 C1052 0.949 . S
C1049 C1050 1.349 . S
C1049 C1051 1.327 . S
C1049 H1072 0.950 . S
C1050 C1049 1.349 . S
C1050 C1062 1.349 . S
C1051 C1049 1.327 . S
C1051 C1067 1.429 . S
C1051 H1073 0.950 . S
C1052 H1048 0.949 . S
C1052 C1060 1.574 . S
C1052 C1068 1.368 . S
H1053 C1061 0.950 . S
H1054 C1059 0.950 . S
H1055 C1060 0.949 . S
H1056 C1062 0.950 . S
H1057 C1063 0.950 . S
H1058 C1064 0.949 . S
C1059 H1054 0.950 . S
C1059 C1061 1.327 . S
C1059 C1065 1.429 . S
C1060 C1052 1.574 . S
C1060 H1055 0.949 . S
C1060 C1066 1.368 . S
C1061 C1045 1.349 . S
C1061 H1053 0.950 . S
C1061 C1059 1.327 . S
C1062 C1050 1.349 . S
C1062 H1056 0.950 . S
C1062 C1063 1.327 . S
C1063 H1057 0.950 . S
C1063 C1062 1.327 . S
C1063 C1067 1.429 . S
C1064 C1047 1.574 . S
C1064 H1058 0.949 . S
C1064 C1068 1.368 . S
C1065 C1046 1.429 . S
C1065 C1059 1.429 . S
C1065 C1066 1.523 . S
C1066 C1047 1.368 . S
C1066 C1060 1.368 . S
C1066 C1065 1.523 . S
C1067 C1051 1.429 . S
C1067 C1063 1.429 . S
C1067 C1068 1.523 . S
C1068 C1052 1.368 . S
C1068 C1064 1.368 . S
C1068 C1067 1.523 . S
H1069 C1044 0.950 . S
H1070 C1046 0.950 . S
H1071 C1047 0.949 . S
H1072 C1049 0.950 . S
H1073 C1051 0.950 . S
C1074 C1075 1.349 . S
C1074 C1076 1.327 . S
C1074 H1099 0.950 . S
C1075 C1074 1.349 . S
C1075 C1091 1.349 . S
C1076 C1074 1.327 . S
C1076 C1095 1.429 . S
C1076 H1100 0.950 . S
C1077 C1094 1.574 . S
C1077 C1096 1.368 . S
C1077 H1101 0.949 . S
H1078 C1082 0.949 . S
C1079 C1080 1.349 . S
C1079 C1081 1.327 . S
C1079 H1102 0.950 . S
C1080 C1079 1.349 . S
C1080 C1092 1.349 . S
C1081 C1079 1.327 . S
C1081 C1097 1.429 . S
C1081 H1103 0.950 . S
C1082 H1078 0.949 . S
C1082 C1090 1.574 . S
C1082 C1098 1.368 . S
H1083 C1091 0.950 . S
H1084 C1089 0.950 . S
H1085 C1090 0.949 . S
H1086 C1092 0.950 . S
H1087 C1093 0.950 . S
H1088 C1094 0.949 . S
C1089 H1084 0.950 . S
C1089 C1091 1.327 . S
C1089 C1095 1.429 . S
C1090 C1082 1.574 . S
C1090 H1085 0.949 . S
C1090 C1096 1.368 . S
C1091 C1075 1.349 . S
C1091 H1083 0.950 . S
C1091 C1089 1.327 . S
C1092 C1080 1.349 . S
C1092 H1086 0.950 . S
C1092 C1093 1.327 . S
C1093 H1087 0.950 . S
C1093 C1092 1.327 . S
C1093 C1097 1.429 . S
C1094 C1077 1.574 . S
C1094 H1088 0.949 . S
C1094 C1098 1.368 . S
C1095 C1076 1.429 . S
C1095 C1089 1.429 . S
C1095 C1096 1.523 . S
C1096 C1077 1.368 . S
C1096 C1090 1.368 . S
C1096 C1095 1.523 . S
C1097 C1081 1.429 . S
C1097 C1093 1.429 . S
C1097 C1098 1.523 . S
C1098 C1082 1.368 . S
C1098 C1094 1.368 . S
C1098 C1097 1.523 . S
H1099 C1074 0.950 . S
H1100 C1076 0.950 . S
H1101 C1077 0.949 . S
H1102 C1079 0.950 . S
H1103 C1081 0.950 . S
C1104 C1105 1.349 . S
C1104 C1106 1.327 . S
C1104 H1129 0.950 . S
C1105 C1104 1.349 . S
C1105 C1121 1.349 . S
C1106 C1104 1.327 . S
C1106 C1125 1.429 . S
C1106 H1130 0.950 . S
C1107 C1124 1.574 . S
C1107 C1126 1.368 . S
C1107 H1131 0.949 . S
H1108 C1112 0.949 . S
C1109 C1110 1.349 . S
C1109 C1111 1.327 . S
C1109 H1132 0.950 . S
C1110 C1109 1.349 . S
C1110 C1122 1.349 . S
C1111 C1109 1.327 . S
C1111 C1127 1.429 . S
C1111 H1133 0.950 . S
C1112 H1108 0.949 . S
C1112 C1120 1.574 . S
C1112 C1128 1.368 . S
H1113 C1121 0.950 . S
H1114 C1119 0.950 . S
H1115 C1120 0.949 . S
H1116 C1122 0.950 . S
H1117 C1123 0.950 . S
H1118 C1124 0.949 . S
C1119 H1114 0.950 . S
C1119 C1121 1.327 . S
C1119 C1125 1.429 . S
C1120 C1112 1.574 . S
C1120 H1115 0.949 . S
C1120 C1126 1.368 . S
C1121 C1105 1.349 . S
C1121 H1113 0.950 . S
C1121 C1119 1.327 . S
C1122 C1110 1.349 . S
C1122 H1116 0.950 . S
C1122 C1123 1.327 . S
C1123 H1117 0.950 . S
C1123 C1122 1.327 . S
C1123 C1127 1.429 . S
C1124 C1107 1.574 . S
C1124 H1118 0.949 . S
C1124 C1128 1.368 . S
C1125 C1106 1.429 . S
C1125 C1119 1.429 . S
C1125 C1126 1.523 . S
C1126 C1107 1.368 . S
C1126 C1120 1.368 . S
C1126 C1125 1.523 . S
C1127 C1111 1.429 . S
C1127 C1123 1.429 . S
C1127 C1128 1.523 . S
C1128 C1112 1.368 . S
C1128 C1124 1.368 . S
C1128 C1127 1.523 . S
H1129 C1104 0.950 . S
H1130 C1106 0.950 . S
H1131 C1107 0.949 . S
H1132 C1109 0.950 . S
H1133 C1111 0.950 . S
C1134 C1135 1.349 . S
C1134 C1136 1.327 . S
C1134 H1159 0.950 . S
C1135 C1134 1.349 . S
C1135 C1151 1.349 . S
C1136 C1134 1.327 . S
C1136 C1155 1.429 . S
C1136 H1160 0.950 . S
C1137 C1154 1.574 . S
C1137 C1156 1.368 . S
C1137 H1161 0.949 . S
H1138 C1142 0.949 . S
C1139 C1140 1.349 . S
C1139 C1141 1.327 . S
C1139 H1162 0.950 . S
C1140 C1139 1.349 . S
C1140 C1152 1.349 . S
C1141 C1139 1.327 . S
C1141 C1157 1.429 . S
C1141 H1163 0.950 . S
C1142 H1138 0.949 . S
C1142 C1150 1.574 . S
C1142 C1158 1.368 . S
H1143 C1151 0.950 . S
H1144 C1149 0.950 . S
H1145 C1150 0.949 . S
H1146 C1152 0.950 . S
H1147 C1153 0.950 . S
H1148 C1154 0.949 . S
C1149 H1144 0.950 . S
C1149 C1151 1.327 . S
C1149 C1155 1.429 . S
C1150 C1142 1.574 . S
C1150 H1145 0.949 . S
C1150 C1156 1.368 . S
C1151 C1135 1.349 . S
C1151 H1143 0.950 . S
C1151 C1149 1.327 . S
C1152 C1140 1.349 . S
C1152 H1146 0.950 . S
C1152 C1153 1.327 . S
C1153 H1147 0.950 . S
C1153 C1152 1.327 . S
C1153 C1157 1.429 . S
C1154 C1137 1.574 . S
C1154 H1148 0.949 . S
C1154 C1158 1.368 . S
C1155 C1136 1.429 . S
C1155 C1149 1.429 . S
C1155 C1156 1.523 . S
C1156 C1137 1.368 . S
C1156 C1150 1.368 . S
C1156 C1155 1.523 . S
C1157 C1141 1.429 . S
C1157 C1153 1.429 . S
C1157 C1158 1.523 . S
C1158 C1142 1.368 . S
C1158 C1154 1.368 . S
C1158 C1157 1.523 . S
H1159 C1134 0.950 . S
H1160 C1136 0.950 . S
H1161 C1137 0.949 . S
H1162 C1139 0.950 . S
H1163 C1141 0.950 . S
C1164 C1165 1.349 . S
C1164 C1166 1.327 . S
C1164 H1189 0.950 . S
C1165 C1164 1.349 . S
C1165 C1181 1.349 1_554 S
C1166 C1164 1.327 . S
C1166 C1185 1.429 . S
C1166 H1190 0.950 . S
C1167 C1184 1.574 1_545 S
C1167 C1186 1.326 1_556 S
C1167 H1191 0.949 . S
H1168 C1172 0.949 . S
C1169 C1170 1.349 . S
C1169 C1171 1.327 . S
C1169 H1192 0.950 . S
C1170 C1169 1.349 . S
C1170 C1182 1.349 1_456 S
C1171 C1169 1.327 . S
C1171 C1187 1.429 . S
C1171 H1193 0.950 . S
C1172 H1168 0.949 . S
C1172 C1180 1.574 1_565 S
C1172 C1188 1.368 1_554 S
H1173 C1181 0.950 . S
H1174 C1179 0.950 . S
H1175 C1180 0.949 . S
H1176 C1182 0.950 . S
H1177 C1183 0.950 . S
H1178 C1184 0.949 . S
C1179 H1174 0.950 . S
C1179 C1181 1.327 . S
C1179 C1185 1.429 1_556 S
C1180 C1172 1.574 1_545 S
C1180 H1175 0.949 . S
C1180 C1186 1.405 . S
C1181 C1165 1.349 1_556 S
C1181 H1173 0.950 . S
C1181 C1179 1.327 . S
C1182 C1170 1.349 1_654 S
C1182 H1176 0.950 . S
C1182 C1183 1.327 1_655 S
C1183 H1177 0.950 . S
C1183 C1182 1.327 1_455 S
C1183 C1187 1.429 1_554 S
C1184 C1167 1.574 1_565 S
C1184 H1178 0.949 . S
C1184 C1188 1.368 . S
C1185 C1166 1.429 . S
C1185 C1179 1.429 1_554 S
C1185 C1186 1.532 . S
C1186 C1167 1.326 1_554 S
C1186 C1180 1.405 . S
C1186 C1185 1.532 . S
C1187 C1171 1.429 . S
C1187 C1183 1.429 1_556 S
C1187 C1188 1.523 . S
C1188 C1172 1.368 1_556 S
C1188 C1184 1.368 . S
C1188 C1187 1.523 . S
H1189 C1164 0.950 . S
H1190 C1166 0.950 . S
H1191 C1167 0.949 . S
H1192 C1169 0.950 . S
H1193 C1171 0.950 . S
C1194 C1195 1.356 1_565 S
C1194 C1196 1.308 1_565 S
C1194 H1219 0.963 . S
C1195 C1194 1.356 1_545 S
C1195 C1211 1.349 . S
C1196 C1194 1.308 1_545 S
C1196 C1215 1.429 . S
C1196 H1220 0.950 . S
C1197 C1214 1.574 . S
C1197 C1216 1.368 . S
C1197 H1221 0.949 . S
H1198 C1202 0.949 . S
C1199 C1200 1.349 . S
C1199 C1201 1.327 . S
C1199 H1222 0.950 . S
C1200 C1199 1.349 . S
C1200 C1212 1.349 1_455 S
C1201 C1199 1.327 . S
C1201 C1217 1.429 . S
C1201 H1223 0.950 . S
C1202 H1198 0.949 . S
C1202 C1210 1.574 . S
C1202 C1218 1.368 . S
H1203 C1211 0.950 . S
H1204 C1209 0.950 . S
H1205 C1210 0.949 . S
H1206 C1212 0.950 . S
H1207 C1213 0.950 . S
H1208 C1214 0.949 . S
C1209 H1204 0.950 . S
C1209 C1211 1.327 . S
C1209 C1215 1.429 . S
C1210 C1202 1.574 . S
C1210 H1205 0.949 . S
C1210 C1216 1.368 . S
C1211 C1195 1.349 . S
C1211 H1203 0.950 . S
C1211 C1209 1.327 . S
C1212 C1200 1.349 1_655 S
C1212 H1206 0.950 . S
C1212 C1213 1.327 1_655 S
C1213 H1207 0.950 . S
C1213 C1212 1.327 1_455 S
C1213 C1217 1.429 . S
C1214 C1197 1.574 . S
C1214 H1208 0.949 . S
C1214 C1218 1.368 . S
C1215 C1196 1.429 . S
C1215 C1209 1.429 . S
C1215 C1216 1.523 . S
C1216 C1197 1.368 . S
C1216 C1210 1.368 . S
C1216 C1215 1.523 . S
C1217 C1201 1.429 . S
C1217 C1213 1.429 . S
C1217 C1218 1.523 . S
C1218 C1202 1.368 . S
C1218 C1214 1.368 . S
C1218 C1217 1.523 . S
H1219 C1194 0.963 . S
H1220 C1196 0.950 . S
H1221 C1197 0.949 . S
H1222 C1199 0.950 . S
H1223 C1201 0.950 . S
C1224 C1225 1.349 . S
C1224 C1226 1.327 . S
C1224 H1249 0.950 . S
C1225 C1224 1.349 . S
C1225 C1241 1.349 . S
C1226 C1224 1.327 . S
C1226 C1245 1.429 . S
C1226 H1250 0.950 . S
C1227 C1244 1.574 1_455 S
C1227 C1246 1.368 . S
C1227 H1251 0.949 . S
H1228 C1232 0.949 . S
C1229 C1230 1.349 . S
C1229 C1231 1.327 . S
C1229 H1252 0.950 . S
C1230 C1229 1.349 . S
C1230 C1242 1.349 . S
C1231 C1229 1.327 . S
C1231 C1247 1.429 . S
C1231 H1253 0.950 . S
C1232 H1228 0.949 . S
C1232 C1240 1.574 1_655 S
C1232 C1248 1.368 . S
H1233 C1241 0.950 . S
H1234 C1239 0.950 . S
H1235 C1240 0.949 . S
H1236 C1242 0.950 1_565 S
H1237 C1243 0.950 . S
H1238 C1244 0.949 . S
C1239 H1234 0.950 . S
C1239 C1241 1.327 . S
C1239 C1245 1.429 . S
C1240 C1232 1.574 1_455 S
C1240 H1235 0.949 . S
C1240 C1246 1.368 . S
C1241 C1225 1.349 . S
C1241 H1233 0.950 . S
C1241 C1239 1.327 . S
C1242 C1230 1.349 . S
C1242 H1236 0.950 1_545 S
C1242 C1243 1.327 . S
C1243 H1237 0.950 . S
C1243 C1242 1.327 . S
C1243 C1247 1.429 . S
C1244 C1227 1.574 1_655 S
C1244 H1238 0.949 . S
C1244 C1248 1.368 . S
C1245 C1226 1.429 . S
C1245 C1239 1.429 . S
C1245 C1246 1.523 . S
C1246 C1227 1.368 . S
C1246 C1240 1.368 . S
C1246 C1245 1.523 . S
C1247 C1231 1.429 . S
C1247 C1243 1.429 . S
C1247 C1248 1.523 . S
C1248 C1232 1.368 . S
C1248 C1244 1.368 . S
C1248 C1247 1.523 . S
H1249 C1224 0.950 . S
H1250 C1226 0.950 . S
H1251 C1227 0.949 . S
H1252 C1229 0.950 . S
H1253 C1231 0.950 . S
C1254 C1255 1.349 . S
C1254 C1256 1.327 . S
C1254 H1279 0.950 . S
C1255 C1254 1.349 . S
C1255 C1271 1.349 1_655 S
C1256 C1254 1.327 . S
C1256 C1275 1.429 . S
C1256 H1280 0.950 . S
C1257 C1274 1.574 1_545 S
C1257 C1276 1.368 . S
C1257 H1281 0.949 . S
H1258 C1262 0.949 . S
C1259 C1260 1.349 . S
C1259 C1261 1.327 . S
C1259 H1282 0.950 . S
C1260 C1259 1.349 . S
C1260 C1272 1.349 . S
C1261 C1259 1.327 . S
C1261 C1277 1.429 . S
C1261 H1283 0.950 . S
C1262 H1258 0.949 . S
C1262 C1270 1.574 1_565 S
C1262 C1278 1.368 . S
H1263 C1271 0.950 . S
H1264 C1269 0.950 . S
H1265 C1270 0.949 . S
H1266 C1272 0.950 . S
H1267 C1273 0.950 . S
H1268 C1274 0.949 . S
C1269 H1264 0.950 . S
C1269 C1271 1.327 1_655 S
C1269 C1275 1.429 . S
C1270 C1262 1.574 1_545 S
C1270 H1265 0.949 . S
C1270 C1276 1.368 . S
C1271 C1255 1.349 1_455 S
C1271 H1263 0.950 . S
C1271 C1269 1.327 1_455 S
C1272 C1260 1.349 . S
C1272 H1266 0.950 . S
C1272 C1273 1.327 . S
C1273 H1267 0.950 . S
C1273 C1272 1.327 . S
C1273 C1277 1.429 . S
C1274 C1257 1.574 1_565 S
C1274 H1268 0.949 . S
C1274 C1278 1.368 . S
C1275 C1256 1.429 . S
C1275 C1269 1.429 . S
C1275 C1276 1.523 . S
C1276 C1257 1.368 . S
C1276 C1270 1.368 . S
C1276 C1275 1.523 . S
C1277 C1261 1.429 . S
C1277 C1273 1.429 . S
C1277 C1278 1.523 . S
C1278 C1262 1.368 . S
C1278 C1274 1.368 . S
C1278 C1277 1.523 . S
H1279 C1254 0.950 . S
H1280 C1256 0.950 . S
H1281 C1257 0.949 . S
H1282 C1259 0.950 . S
H1283 C1261 0.950 . S
C1284 C1285 1.355 1_455 S
C1284 C1286 1.310 1_455 S
C1284 H1309 0.961 . S
C1285 C1284 1.355 1_655 S
C1285 C1301 1.349 . S
C1286 C1284 1.310 1_655 S
C1286 C1305 1.429 . S
C1286 H1310 0.950 . S
C1287 C1304 1.574 . S
C1287 C1306 1.368 . S
C1287 H1311 0.949 . S
H1288 C1292 0.949 . S
C1289 C1290 1.349 . S
C1289 C1291 1.327 . S
C1289 H1312 0.950 . S
C1290 C1289 1.349 . S
C1290 C1302 1.349 1_565 S
C1291 C1289 1.327 . S
C1291 C1307 1.429 . S
C1291 H1313 0.950 . S
C1292 H1288 0.949 . S
C1292 C1300 1.574 . S
C1292 C1308 1.368 . S
H1293 C1301 0.950 . S
H1294 C1299 0.950 . S
H1295 C1300 0.949 . S
H1296 C1302 0.950 . S
H1297 C1303 0.950 . S
H1298 C1304 0.949 . S
C1299 H1294 0.950 . S
C1299 C1301 1.327 . S
C1299 C1305 1.429 . S
C1300 C1292 1.574 . S
C1300 H1295 0.949 . S
C1300 C1306 1.368 . S
C1301 C1285 1.349 . S
C1301 H1293 0.950 . S
C1301 C1299 1.327 . S
C1302 C1290 1.349 1_545 S
C1302 H1296 0.950 . S
C1302 C1303 1.327 1_545 S
C1303 H1297 0.950 . S
C1303 C1302 1.327 1_565 S
C1303 C1307 1.429 . S
C1304 C1287 1.574 . S
C1304 H1298 0.949 . S
C1304 C1308 1.368 . S
C1305 C1286 1.429 . S
C1305 C1299 1.429 . S
C1305 C1306 1.523 . S
C1306 C1287 1.368 . S
C1306 C1300 1.368 . S
C1306 C1305 1.523 . S
C1307 C1291 1.429 . S
C1307 C1303 1.429 . S
C1307 C1308 1.523 . S
C1308 C1292 1.368 . S
C1308 C1304 1.368 . S
C1308 C1307 1.523 . S
H1309 C1284 0.961 . S
H1310 C1286 0.950 . S
H1311 C1287 0.949 . S
H1312 C1289 0.950 . S
H1313 C1291 0.950 . S
C1314 C1315 1.349 1_545 S
C1314 C1316 1.327 1_545 S
C1314 H1339 0.950 . S
C1315 C1314 1.349 1_565 S
C1315 C1331 1.349 . S
C1316 C1314 1.327 1_565 S
C1316 C1335 1.429 . S
C1316 H1340 0.950 1_565 S
C1317 C1334 1.574 1_455 S
C1317 C1336 1.368 . S
C1317 H1341 0.949 . S
H1318 C1322 0.949 . S
C1319 C1320 1.349 . S
C1319 C1321 1.327 . S
C1319 H1342 0.950 . S
C1320 C1319 1.349 . S
C1320 C1332 1.349 . S
C1321 C1319 1.327 . S
C1321 C1337 1.429 . S
C1321 H1343 0.950 . S
C1322 H1318 0.949 . S
C1322 C1330 1.574 1_655 S
C1322 C1338 1.368 . S
H1323 C1331 0.950 . S
H1324 C1329 0.950 . S
H1325 C1330 0.949 . S
H1326 C1332 0.950 . S
H1327 C1333 0.950 . S
H1328 C1334 0.949 . S
C1329 H1324 0.950 . S
C1329 C1331 1.327 . S
C1329 C1335 1.429 . S
C1330 C1322 1.574 1_455 S
C1330 H1325 0.949 . S
C1330 C1336 1.368 . S
C1331 C1315 1.349 . S
C1331 H1323 0.950 . S
C1331 C1329 1.327 . S
C1332 C1320 1.349 . S
C1332 H1326 0.950 . S
C1332 C1333 1.327 . S
C1333 H1327 0.950 . S
C1333 C1332 1.327 . S
C1333 C1337 1.429 . S
C1334 C1317 1.574 1_655 S
C1334 H1328 0.949 . S
C1334 C1338 1.368 . S
C1335 C1316 1.429 . S
C1335 C1329 1.429 . S
C1335 C1336 1.523 . S
C1336 C1317 1.368 . S
C1336 C1330 1.368 . S
C1336 C1335 1.523 . S
C1337 C1321 1.429 . S
C1337 C1333 1.429 . S
C1337 C1338 1.523 . S
C1338 C1322 1.368 . S
C1338 C1334 1.368 . S
C1338 C1337 1.523 . S
H1339 C1314 0.950 . S
H1340 C1316 0.950 1_545 S
H1341 C1317 0.949 . S
H1342 C1319 0.950 . S
H1343 C1321 0.950 . S
C265 C164 1.833 . S
C270 C10 1.877 . S
C295 C186 1.833 . S
C300 C30 1.877 1_455 S
C325 C216 1.833 . S
C330 C54 1.881 . S
C355 C238 1.833 . S
C360 C74 1.876 . S
C385 C252 1.833 . S
C390 C96 1.875 . S
C415 C142 1.833 . S
C420 C120 1.881 . S
C445 C150 1.877 . S
C450 C118 1.833 . S
C475 C172 1.872 1_455 S
C480 C8 1.833 . S
C505 C194 1.876 . S
C510 C40 1.833 . S
C535 C206 1.876 . S
C540 C52 1.833 . S
C565 C228 1.896 . S
C570 C84 1.833 . S
C595 C260 1.876 . S
C600 C106 1.833 . S
C625 C18 1.364 . S
C630 C131 1.372 . S
C655 C32 1.364 . S
C660 C21 1.372 . S
C685 C29 1.372 . S
C690 C62 1.364 . S
C715 C65 1.372 . S
C720 C76 1.364 . S
C745 C73 1.372 . S
C750 C98 1.364 . S
C775 C128 1.364 . S
C780 C95 1.372 . S
C805 C140 1.364 . S
C810 C169 1.372 . S
C835 C162 1.364 . S
C840 C191 1.372 . S
C865 C184 1.364 . S
C870 C205 1.372 . S
C895 C208 1.364 . S
C900 C227 1.372 . S
C925 C230 1.364 . S
C930 C257 1.372 . S
C955 C147 1.372 . S
C960 C250 1.364 . S
C985 C183 0.960 . S
C990 C15 0.960 . S
C1015 C43 0.960 . S
C1020 C219 0.960 . S
C1045 C59 0.960 . S
C1050 C241 0.960 . S
C1075 C87 0.960 . S
C1080 C249 0.960 . S
C1105 C109 0.960 . S
C1110 C139 0.960 . S
C1135 C161 0.960 . S
C1140 C125 0.960 . S
C1165 C7 0.238 . S
C1170 C175 0.238 . S
C1195 C197 0.238 . S
C1200 C37 0.238 . S
C1225 C213 0.238 . S
C1230 C51 0.238 . S
C1255 C235 0.238 . S
C1260 C81 0.238 . S
C1285 C103 0.238 . S
C1290 C263 0.238 . S
C1315 C117 0.238 . S
C1320 C153 0.238 . S
