# Generated by pormake.
# Topology uol, (4)-cn, num edge types: 1
# Building blocks:
#     Node 0, Type 0, BuildingBlock: CEKHIL_clean_sbu_0, # of connection points: 4
#     Node 1, Type 0, BuildingBlock: CEKHIL_clean_sbu_0, # of connection points: 4
#     Node 2, Type 0, BuildingBlock: CEKHIL_clean_sbu_0, # of connection points: 4
#     Node 3, Type 0, BuildingBlock: CEKHIL_clean_sbu_0, # of connection points: 4
#     Node 4, Type 0, BuildingBlock: CEKHIL_clean_sbu_0, # of connection points: 4
#     Node 5, Type 0, BuildingBlock: CEKHIL_clean_sbu_0, # of connection points: 4
#     Node 6, Type 0, BuildingBlock: CEKHIL_clean_sbu_0, # of connection points: 4
#     Node 7, Type 0, BuildingBlock: CEKHIL_clean_sbu_0, # of connection points: 4
#     Node 8, Type 0, BuildingBlock: CEKHIL_clean_sbu_0, # of connection points: 4
#     Node 9, Type 0, BuildingBlock: CEKHIL_clean_sbu_0, # of connection points: 4
#     Node 10, Type 0, BuildingBlock: CEKHIL_clean_sbu_0, # of connection points: 4
#     Node 11, Type 0, BuildingBlock: CEKHIL_clean_sbu_0, # of connection points: 4
#     Edge 12, Type (0, 0), BuildingBlock: UVAHIK_clean_linker_0, # of connection points: 2
#     Edge 13, Type (0, 0), BuildingBlock: UVAHIK_clean_linker_0, # of connection points: 2
#     Edge 14, Type (0, 0), BuildingBlock: UVAHIK_clean_linker_0, # of connection points: 2
#     Edge 15, Type (0, 0), BuildingBlock: UVAHIK_clean_linker_0, # of connection points: 2
#     Edge 16, Type (0, 0), BuildingBlock: UVAHIK_clean_linker_0, # of connection points: 2
#     Edge 17, Type (0, 0), BuildingBlock: UVAHIK_clean_linker_0, # of connection points: 2
#     Edge 18, Type (0, 0), BuildingBlock: UVAHIK_clean_linker_0, # of connection points: 2
#     Edge 19, Type (0, 0), BuildingBlock: UVAHIK_clean_linker_0, # of connection points: 2
#     Edge 20, Type (0, 0), BuildingBlock: UVAHIK_clean_linker_0, # of connection points: 2
#     Edge 21, Type (0, 0), BuildingBlock: UVAHIK_clean_linker_0, # of connection points: 2
#     Edge 22, Type (0, 0), BuildingBlock: UVAHIK_clean_linker_0, # of connection points: 2
#     Edge 23, Type (0, 0), BuildingBlock: UVAHIK_clean_linker_0, # of connection points: 2
#     Edge 24, Type (0, 0), BuildingBlock: UVAHIK_clean_linker_0, # of connection points: 2
#     Edge 25, Type (0, 0), BuildingBlock: UVAHIK_clean_linker_0, # of connection points: 2
#     Edge 26, Type (0, 0), BuildingBlock: UVAHIK_clean_linker_0, # of connection points: 2
#     Edge 27, Type (0, 0), BuildingBlock: UVAHIK_clean_linker_0, # of connection points: 2
#     Edge 28, Type (0, 0), BuildingBlock: UVAHIK_clean_linker_0, # of connection points: 2
#     Edge 29, Type (0, 0), BuildingBlock: UVAHIK_clean_linker_0, # of connection points: 2
#     Edge 30, Type (0, 0), BuildingBlock: UVAHIK_clean_linker_0, # of connection points: 2
#     Edge 31, Type (0, 0), BuildingBlock: UVAHIK_clean_linker_0, # of connection points: 2
#     Edge 32, Type (0, 0), BuildingBlock: UVAHIK_clean_linker_0, # of connection points: 2
#     Edge 33, Type (0, 0), BuildingBlock: UVAHIK_clean_linker_0, # of connection points: 2
#     Edge 34, Type (0, 0), BuildingBlock: UVAHIK_clean_linker_0, # of connection points: 2
#     Edge 35, Type (0, 0), BuildingBlock: UVAHIK_clean_linker_0, # of connection points: 2
# Relax obj value: 0.130
# Max RMSD: 0.171
# Mean RMSD: 0.171
data_MOF--net-uol--node1-CEKHIL_clean_sbu_0--edge1-UVAHIK_clean_linker_0
_symmetry_space_group_name_H-M    P1
_symmetry_Int_Tables_number       1
_symmetry_cell_setting            triclinic
loop_
_symmetry_equiv_pos_as_xyz
'x, y, z'
_cell_length_a     42.429673
_cell_length_b     42.418076
_cell_length_c     84.83485
_cell_angle_alpha  89.985655
_cell_angle_beta   89.955611
_cell_angle_gamma 120.04544
loop_
_atom_site_label
_atom_site_type_symbol
_atom_site_fract_x
_atom_site_fract_y
_atom_site_fract_z
_atom_type_partial_charge
Co0 Co 0.1426 0.34698 0.08296 0.0
O1 O 0.12341 0.37389 0.07243 0.0
O2 O 0.15703 0.39204 0.09409 0.0
C3 C 0.16309 0.33319 0.06096 0.0
O4 O 0.16858 0.32756 0.09671 0.0
Co5 Co 0.11183 0.26486 0.07618 0.0
O6 O 0.15491 0.27195 0.08825 0.0
C7 C 0.07143 0.28756 0.09734 0.0
C8 C 0.13951 0.3986 0.08319 0.0
C9 C 0.17298 0.29964 0.09706 0.0
O10 O 0.09735 0.3209 0.09639 0.0
O11 O 0.07102 0.26173 0.08936 0.0
O12 O 0.18244 0.36465 0.06772 0.0
O13 O 0.13111 0.31263 0.06687 0.0
Co14 Co 0.79014 0.15169 0.25073 0.0
O15 O 0.74374 0.13044 0.24026 0.0
O16 O 0.75838 0.16486 0.26164 0.0
C17 C 0.8241 0.17272 0.22864 0.0
O18 O 0.83514 0.17931 0.26455 0.0
Co19 Co 0.84507 0.12522 0.24433 0.0
O20 O 0.87983 0.16986 0.25596 0.0
C21 C 0.78202 0.08242 0.26544 0.0
C22 C 0.73437 0.14625 0.25087 0.0
C23 C 0.86832 0.18614 0.26487 0.0
O24 O 0.77267 0.10691 0.26431 0.0
O25 O 0.8085 0.0837 0.25763 0.0
O26 O 0.81098 0.19126 0.23532 0.0
O27 O 0.81412 0.14121 0.23476 0.0
Co28 Co 0.63787 0.79242 0.41591 0.0
O29 O 0.61199 0.74635 0.40522 0.0
O30 O 0.5933 0.76051 0.4271 0.0
C31 C 0.65039 0.82692 0.39402 0.0
O32 O 0.65614 0.83732 0.42989 0.0
Co33 Co 0.71931 0.84677 0.40909 0.0
O34 O 0.70917 0.88194 0.42021 0.0
C35 C 0.69913 0.78373 0.43015 0.0
C36 C 0.5873 0.73682 0.41608 0.0
C37 C 0.68213 0.87071 0.42956 0.0
O38 O 0.66529 0.77441 0.42904 0.0
O39 O 0.72441 0.81035 0.4224 0.0
O40 O 0.61893 0.81381 0.40091 0.0
O41 O 0.67186 0.81651 0.39979 0.0
Co42 Co 0.8402 0.64089 0.58255 0.0
O43 O 0.86093 0.61534 0.57201 0.0
O44 O 0.82746 0.59633 0.59373 0.0
C45 C 0.81872 0.65337 0.56051 0.0
O46 O 0.81293 0.65863 0.5964 0.0
Co47 Co 0.86665 0.72222 0.57587 0.0
O48 O 0.82111 0.71169 0.58692 0.0
C49 C 0.90946 0.70245 0.59712 0.0
C50 C 0.84554 0.59054 0.58282 0.0
C51 C 0.80531 0.68443 0.59616 0.0
O52 O 0.88523 0.66852 0.5959 0.0
O53 O 0.90801 0.72764 0.58937 0.0
O54 O 0.80028 0.62182 0.56733 0.0
O55 O 0.85036 0.67501 0.56646 0.0
Co56 Co 0.19064 0.83822 0.75063 0.0
O57 O 0.23668 0.85785 0.73995 0.0
O58 O 0.22133 0.82343 0.76138 0.0
C59 C 0.15594 0.81811 0.72875 0.0
O60 O 0.14569 0.81221 0.7646 0.0
Co61 Co 0.13914 0.86898 0.74455 0.0
O62 O 0.10318 0.82545 0.75656 0.0
C63 C 0.20385 0.90986 0.76475 0.0
C64 C 0.24546 0.84153 0.75055 0.0
C65 C 0.11333 0.80759 0.76521 0.0
O66 O 0.21007 0.88314 0.76416 0.0
O67 O 0.17875 0.91078 0.75672 0.0
O68 O 0.16816 0.79867 0.73532 0.0
O69 O 0.16744 0.84999 0.73478 0.0
Co70 Co 0.34504 0.19524 0.91628 0.0
O71 O 0.36935 0.24182 0.90586 0.0
O72 O 0.38926 0.22792 0.92743 0.0
C73 C 0.33343 0.16167 0.89417 0.0
O74 O 0.32861 0.1501 0.92998 0.0
Co75 Co 0.26407 0.13869 0.90971 0.0
O76 O 0.27608 0.10446 0.92045 0.0
C77 C 0.28237 0.20073 0.93106 0.0
C78 C 0.39429 0.25175 0.91662 0.0
C79 C 0.30343 0.11638 0.92964 0.0
O80 O 0.31645 0.21116 0.92981 0.0
O81 O 0.25753 0.17386 0.92329 0.0
O82 O 0.36519 0.17591 0.90085 0.0
O83 O 0.31103 0.17054 0.90026 0.0
Co84 Co 0.63465 0.83622 0.73825 0.0
O85 O 0.60937 0.85746 0.74862 0.0
O86 O 0.58943 0.82226 0.72746 0.0
C87 C 0.64831 0.81623 0.76044 0.0
O88 O 0.65205 0.80845 0.72455 0.0
Co89 Co 0.71632 0.86356 0.74428 0.0
O90 O 0.70667 0.81878 0.73284 0.0
C91 C 0.69508 0.90515 0.72298 0.0
C92 C 0.58405 0.84113 0.73811 0.0
C93 C 0.67863 0.80199 0.72412 0.0
O94 O 0.66133 0.88052 0.72436 0.0
O95 O 0.72066 0.90442 0.7307 0.0
O96 O 0.61652 0.79724 0.75391 0.0
O97 O 0.66956 0.84758 0.7541 0.0
Co98 Co 0.78847 0.64178 0.90692 0.0
O99 O 0.74248 0.61589 0.91769 0.0
O100 O 0.75656 0.59715 0.8958 0.0
C101 C 0.82309 0.6545 0.92876 0.0
O102 O 0.83324 0.66003 0.89282 0.0
Co103 Co 0.84283 0.72329 0.91353 0.0
O104 O 0.87792 0.71324 0.90227 0.0
C105 C 0.77967 0.7029 0.89257 0.0
C106 C 0.73291 0.59118 0.90685 0.0
C107 C 0.86657 0.6861 0.89299 0.0
O108 O 0.77034 0.66907 0.89377 0.0
O109 O 0.80635 0.72828 0.90022 0.0
O110 O 0.81002 0.623 0.92192 0.0
O111 O 0.81263 0.67591 0.92296 0.0
Co112 Co 0.14667 0.79394 0.0719 0.0
O113 O 0.12605 0.74812 0.08286 0.0
O114 O 0.15861 0.76134 0.06092 0.0
C115 C 0.16927 0.82885 0.09363 0.0
O116 O 0.17371 0.83826 0.05762 0.0
Co117 Co 0.12115 0.84954 0.07824 0.0
O118 O 0.16554 0.88369 0.06627 0.0
C119 C 0.07697 0.78589 0.05772 0.0
C120 C 0.14088 0.73805 0.07208 0.0
C121 C 0.18108 0.87162 0.05723 0.0
O122 O 0.10113 0.77612 0.05886 0.0
O123 O 0.07894 0.81296 0.06529 0.0
O124 O 0.1872 0.81526 0.08678 0.0
O125 O 0.13744 0.81886 0.08789 0.0
Co126 Co 0.34357 0.14843 0.2385 0.0
O127 O 0.36985 0.1281 0.24867 0.0
O128 O 0.38888 0.16334 0.22748 0.0
C129 C 0.32972 0.168 0.26076 0.0
O130 O 0.32463 0.1754 0.2251 0.0
Co131 Co 0.26147 0.11767 0.24519 0.0
O132 O 0.26894 0.16146 0.23357 0.0
C133 C 0.28423 0.07794 0.22369 0.0
C134 C 0.39488 0.14473 0.23806 0.0
C135 C 0.29677 0.1799 0.22487 0.0
O136 O 0.31751 0.1039 0.22469 0.0
O137 O 0.25832 0.07722 0.23174 0.0
O138 O 0.36129 0.18746 0.25408 0.0
O139 O 0.30903 0.13631 0.25461 0.0
Co140 Co 0.19199 0.34802 0.40608 0.0
O141 O 0.23817 0.37344 0.41669 0.0
O142 O 0.22417 0.39251 0.3949 0.0
C143 C 0.15787 0.33583 0.42808 0.0
O144 O 0.14707 0.33032 0.39217 0.0
Co145 Co 0.13676 0.26678 0.4129 0.0
O146 O 0.10199 0.27748 0.40178 0.0
C147 C 0.19958 0.28617 0.3918 0.0
C148 C 0.24785 0.39823 0.40587 0.0
C149 C 0.11357 0.30462 0.39247 0.0
O150 O 0.20933 0.32013 0.39286 0.0
O151 O 0.17286 0.26114 0.39959 0.0
O152 O 0.17115 0.36734 0.42121 0.0
O153 O 0.16778 0.31408 0.42219 0.0
Co154 Co 0.83585 0.1939 0.57204 0.0
O155 O 0.85581 0.23945 0.58314 0.0
O156 O 0.82333 0.22624 0.5612 0.0
C157 C 0.81362 0.15834 0.59363 0.0
O158 O 0.80951 0.14975 0.55763 0.0
Co159 Co 0.86286 0.13928 0.57817 0.0
O160 O 0.81874 0.10486 0.56616 0.0
C161 C 0.90624 0.20361 0.55783 0.0
C162 C 0.84088 0.24946 0.57238 0.0
C163 C 0.80282 0.11661 0.55717 0.0
O164 O 0.88153 0.21264 0.55898 0.0
O165 O 0.90484 0.17674 0.56536 0.0
O166 O 0.79526 0.17167 0.58695 0.0
O167 O 0.84557 0.16908 0.58785 0.0
C168 C 0.14555 0.68693 0.05966 0.0
C169 C 0.13899 0.70238 0.07299 0.0
C170 C 0.14453 0.65351 0.06078 0.0
C171 C 0.11488 0.57315 0.0876 0.0
H172 H 0.17958 0.55617 0.06122 0.0
C173 C 0.14588 0.45481 0.09602 0.0
C174 C 0.13885 0.43305 0.08254 0.0
C175 C 0.14528 0.48748 0.09515 0.0
C176 C 0.16137 0.56064 0.06863 0.0
H177 H 0.12666 0.69534 0.09797 0.0
H178 H 0.12662 0.63825 0.10015 0.0
H179 H 0.17993 0.61365 0.05909 0.0
H180 H 0.12614 0.42849 0.05759 0.0
H181 H 0.12627 0.48607 0.05602 0.0
H182 H 0.09757 0.52038 0.0975 0.0
C183 C 0.13119 0.65091 0.08866 0.0
C184 C 0.16125 0.59342 0.06734 0.0
C185 C 0.13146 0.68388 0.08745 0.0
C186 C 0.1315 0.44464 0.06819 0.0
C187 C 0.13173 0.4776 0.06725 0.0
C188 C 0.11562 0.5407 0.08911 0.0
C189 C 0.1377 0.63517 0.07535 0.0
C190 C 0.13784 0.60012 0.07673 0.0
C191 C 0.13853 0.49925 0.08071 0.0
C192 C 0.13869 0.53411 0.07957 0.0
H193 H 0.15118 0.70052 0.04834 0.0
H194 H 0.14888 0.64203 0.05018 0.0
H195 H 0.0959 0.57677 0.09482 0.0
H196 H 0.15153 0.44645 0.10723 0.0
H197 H 0.15067 0.50386 0.10567 0.0
C198 C 0.69004 0.16457 0.26067 0.0
C199 C 0.6986 0.14431 0.25019 0.0
C200 C 0.65697 0.16418 0.25935 0.0
C201 C 0.57708 0.14316 0.25918 0.0
H202 H 0.54055 0.14437 0.21741 0.0
C203 C 0.43323 0.1213 0.24971 0.0
C204 C 0.429 0.14331 0.23851 0.0
C205 C 0.46593 0.12108 0.25084 0.0
C206 C 0.55049 0.14432 0.22916 0.0
H207 H 0.67886 0.10706 0.23036 0.0
H208 H 0.62107 0.10589 0.22824 0.0
H209 H 0.59817 0.1453 0.22025 0.0
H210 H 0.45558 0.18195 0.21953 0.0
H211 H 0.51303 0.18192 0.22161 0.0
H212 H 0.52985 0.14301 0.2681 0.0
C213 C 0.64013 0.12267 0.23727 0.0
C214 C 0.58332 0.1444 0.23079 0.0
C215 C 0.67317 0.12313 0.23857 0.0
C216 C 0.458 0.16464 0.22825 0.0
C217 C 0.49085 0.1645 0.22942 0.0
C218 C 0.54429 0.14312 0.25754 0.0
C219 C 0.63174 0.14346 0.24754 0.0
C220 C 0.59696 0.1437 0.24582 0.0
C221 C 0.49531 0.14297 0.24084 0.0
C222 C 0.5305 0.14355 0.24251 0.0
H223 H 0.70914 0.18125 0.26971 0.0
H224 H 0.65155 0.18078 0.26736 0.0
H225 H 0.5866 0.14229 0.27092 0.0
H226 H 0.41131 0.10433 0.25772 0.0
H227 H 0.46814 0.10362 0.25956 0.0
C228 C 0.53168 0.68606 0.42886 0.0
C229 C 0.55337 0.7012 0.41541 0.0
C230 C 0.49932 0.6525 0.42797 0.0
C231 C 0.44841 0.57139 0.40159 0.0
H232 H 0.3669 0.55441 0.4281 0.0
C233 C 0.29878 0.45385 0.39312 0.0
C234 C 0.28357 0.43204 0.40657 0.0
C235 C 0.33236 0.48618 0.39406 0.0
C236 C 0.38954 0.55885 0.42067 0.0
H237 H 0.55806 0.69355 0.39044 0.0
H238 H 0.50109 0.63629 0.38866 0.0
H239 H 0.42402 0.61201 0.43005 0.0
H240 H 0.29129 0.42698 0.43152 0.0
H241 H 0.34933 0.48402 0.43322 0.0
H242 H 0.41291 0.51852 0.3918 0.0
C243 C 0.50941 0.64925 0.40008 0.0
C244 C 0.42244 0.59172 0.42186 0.0
C245 C 0.54206 0.68233 0.40106 0.0
C246 C 0.30243 0.44317 0.42095 0.0
C247 C 0.33551 0.47583 0.42196 0.0
C248 C 0.41524 0.53886 0.40018 0.0
C249 C 0.48753 0.63373 0.41352 0.0
C250 C 0.45245 0.59847 0.41237 0.0
C251 C 0.35075 0.49758 0.40854 0.0
C252 C 0.38562 0.53229 0.40975 0.0
H253 H 0.53991 0.69994 0.4401 0.0
H254 H 0.48375 0.64123 0.43867 0.0
H255 H 0.47096 0.57502 0.39432 0.0
H256 H 0.28483 0.44585 0.38189 0.0
H257 H 0.34364 0.50265 0.38357 0.0
C258 C 0.85528 0.54545 0.56794 0.0
C259 C 0.84729 0.55666 0.58222 0.0
C260 C 0.85547 0.51268 0.56701 0.0
C261 C 0.82423 0.42527 0.58867 0.0
H262 H 0.88817 0.41509 0.55898 0.0
C263 C 0.85023 0.30362 0.58774 0.0
C264 C 0.84291 0.28519 0.57325 0.0
C265 C 0.85113 0.33691 0.58884 0.0
C266 C 0.87009 0.41761 0.56726 0.0
H267 H 0.83421 0.54299 0.60685 0.0
H268 H 0.83635 0.48665 0.60551 0.0
H269 H 0.89066 0.47356 0.56151 0.0
H270 H 0.83152 0.28739 0.5485 0.0
H271 H 0.83436 0.34653 0.55036 0.0
H272 H 0.80494 0.36947 0.59479 0.0
C273 C 0.84115 0.50236 0.59482 0.0
C274 C 0.87128 0.45102 0.56868 0.0
C275 C 0.8402 0.53483 0.59566 0.0
C276 C 0.83712 0.30099 0.55981 0.0
C277 C 0.83886 0.33476 0.56085 0.0
C278 C 0.82365 0.39212 0.58747 0.0
C279 C 0.84844 0.4906 0.58043 0.0
C280 C 0.84813 0.4553 0.57931 0.0
C281 C 0.84553 0.35278 0.57541 0.0
C282 C 0.84637 0.38796 0.57669 0.0
H283 H 0.8605 0.56157 0.55733 0.0
H284 H 0.86039 0.5044 0.55563 0.0
H285 H 0.80542 0.42703 0.59675 0.0
H286 H 0.85466 0.29201 0.5983 0.0
H287 H 0.85649 0.35043 0.60016 0.0
C288 C 0.52122 0.82211 0.72838 0.0
C289 C 0.55015 0.84294 0.73872 0.0
C290 C 0.48852 0.82247 0.7296 0.0
C291 C 0.42945 0.84316 0.72938 0.0
H292 H 0.39216 0.8439 0.77105 0.0
C293 C 0.30678 0.86428 0.73843 0.0
C294 C 0.28095 0.84289 0.74991 0.0
C295 C 0.33979 0.86465 0.73727 0.0
C296 C 0.40203 0.84339 0.75933 0.0
H297 H 0.56783 0.88116 0.75819 0.0
H298 H 0.51116 0.88229 0.76013 0.0
H299 H 0.44899 0.84321 0.76836 0.0
H300 H 0.26963 0.80541 0.7693 0.0
H301 H 0.3272 0.80567 0.76716 0.0
H302 H 0.38206 0.84245 0.72034 0.0
C303 C 0.51337 0.86508 0.75129 0.0
C304 C 0.43487 0.84347 0.75778 0.0
C305 C 0.54597 0.86464 0.7501 0.0
C306 C 0.28904 0.82224 0.76036 0.0
C307 C 0.32209 0.82252 0.75917 0.0
C308 C 0.3966 0.84303 0.73093 0.0
C309 C 0.4841 0.84375 0.74116 0.0
C310 C 0.44904 0.84345 0.74278 0.0
C311 C 0.34774 0.84353 0.74752 0.0
C312 C 0.38253 0.84326 0.74592 0.0
H313 H 0.52358 0.80502 0.71952 0.0
H314 H 0.46641 0.80543 0.7217 0.0
H315 H 0.43971 0.84347 0.71765 0.0
H316 H 0.30148 0.88069 0.73025 0.0
H317 H 0.35917 0.88167 0.72836 0.0
C318 C 0.43847 0.30728 0.90178 0.0
C319 C 0.42762 0.28788 0.91603 0.0
C320 C 0.47093 0.34059 0.90085 0.0
C321 C 0.55824 0.39743 0.92242 0.0
H322 H 0.56762 0.47159 0.89294 0.0
C323 C 0.67843 0.54588 0.92193 0.0
C324 C 0.69724 0.55731 0.90753 0.0
C325 C 0.64529 0.51326 0.92289 0.0
C326 C 0.56532 0.45098 0.90116 0.0
H327 H 0.44152 0.28853 0.94062 0.0
H328 H 0.49724 0.34758 0.93929 0.0
H329 H 0.50948 0.41508 0.8954 0.0
H330 H 0.69584 0.54408 0.88277 0.0
H331 H 0.63693 0.48734 0.88438 0.0
H332 H 0.61388 0.43443 0.92857 0.0
C333 C 0.48154 0.33657 0.92861 0.0
C334 C 0.5321 0.41845 0.90254 0.0
C335 C 0.44941 0.30281 0.92945 0.0
C336 C 0.68194 0.53583 0.89402 0.0
C337 C 0.6483 0.50355 0.89492 0.0
C338 C 0.59117 0.43027 0.92127 0.0
C339 C 0.49302 0.35577 0.91424 0.0
C340 C 0.52812 0.39104 0.91312 0.0
C341 C 0.62994 0.49186 0.9094 0.0
C342 C 0.59503 0.45718 0.91056 0.0
H343 H 0.42237 0.29624 0.89119 0.0
H344 H 0.47899 0.35393 0.88949 0.0
H345 H 0.55673 0.37687 0.93045 0.0
H346 H 0.68964 0.56181 0.93254 0.0
H347 H 0.6315 0.50483 0.93416 0.0
C348 C 0.32229 0.22192 0.20147 0.0
C349 C 0.29521 0.20503 0.2131 0.0
C350 C 0.31815 0.24176 0.18925 0.0
C351 C 0.26188 0.2822 0.17608 0.0
H352 H 0.28151 0.25914 0.13431 0.0
C353 C 0.21527 0.32567 0.12031 0.0
C354 C 0.19778 0.29802 0.10898 0.0
C355 C 0.23535 0.32191 0.13253 0.0
C356 C 0.27589 0.26591 0.14589 0.0
H357 H 0.24347 0.19761 0.22139 0.0
H358 H 0.23606 0.23138 0.20011 0.0
H359 H 0.30103 0.23926 0.15735 0.0
H360 H 0.18925 0.24548 0.10127 0.0
H361 H 0.22344 0.23874 0.12256 0.0
H362 H 0.23466 0.30679 0.16463 0.0
C363 C 0.26072 0.22977 0.20044 0.0
C364 C 0.28753 0.25492 0.15913 0.0
C365 C 0.26486 0.21004 0.21263 0.0
C366 C 0.2022 0.26734 0.10978 0.0
C367 C 0.22216 0.26358 0.12197 0.0
C368 C 0.25005 0.29301 0.16284 0.0
C369 C 0.28688 0.24521 0.18839 0.0
C370 C 0.27973 0.26198 0.17441 0.0
C371 C 0.23844 0.29046 0.13368 0.0
C372 C 0.25595 0.28405 0.14758 0.0
H373 H 0.34612 0.21882 0.20149 0.0
H374 H 0.33909 0.25376 0.18029 0.0
H375 H 0.25597 0.28869 0.18766 0.0
H376 H 0.21263 0.34977 0.12002 0.0
H377 H 0.24795 0.34338 0.14122 0.0
C378 C 0.87883 0.21534 0.29146 0.0
C379 C 0.89305 0.21053 0.27727 0.0
C380 C 0.90183 0.23321 0.30419 0.0
C381 C -0.00389 0.2946 0.31653 0.0
H382 H 0.9708 0.23231 0.35331 0.0
C383 C 0.10058 0.3176 0.36523 0.0
C384 C 0.08814 0.30418 0.38047 0.0
C385 C 0.07584 0.31208 0.35318 0.0
C386 C 0.97805 0.25069 0.34338 0.0
H387 H 0.94277 0.22294 0.26494 0.0
H388 H 0.983 0.25495 0.28711 0.0
H389 H 0.92926 0.21366 0.33113 0.0
H390 H 0.04043 0.277 0.39538 0.0
H391 H -0.00261 0.2693 0.3747 0.0
H392 H 0.04474 0.33192 0.32877 0.0
C393 C 0.95403 0.24453 0.28839 0.0
C394 C 0.95418 0.23978 0.3306 0.0
C395 C 0.93098 0.22606 0.27575 0.0
C396 C 0.05071 0.28723 0.38368 0.0
C397 C 0.02604 0.28251 0.37174 0.0
C398 C 0.01976 0.30595 0.32947 0.0
C399 C 0.93954 0.24726 0.30288 0.0
C400 C 0.96325 0.26127 0.31695 0.0
C401 C 0.03809 0.2937 0.35618 0.0
C402 C 0.01141 0.28379 0.34298 0.0
H403 H 0.84974 0.20359 0.29304 0.0
H404 H 0.89005 0.23511 0.31524 0.0
H405 H 0.00361 0.31172 0.30614 0.0
H406 H 0.1293 0.33053 0.3624 0.0
H407 H 0.08638 0.32074 0.34139 0.0
C408 C 0.76285 0.05414 0.54612 0.0
C409 C 0.77882 0.09212 0.54462 0.0
C410 C 0.74438 0.03122 0.53344 0.0
C411 C 0.74921 0.03084 0.49121 0.0
H412 H 0.65633 0.94109 0.49314 0.0
C413 C 0.70036 0.93385 0.43827 0.0
C414 C 0.68298 0.89642 0.44153 0.0
C415 C 0.70549 0.95876 0.45016 0.0
C416 C 0.6825 0.96584 0.49241 0.0
H417 H 0.78668 0.13572 0.52883 0.0
H418 H 0.75516 0.09561 0.50654 0.0
H419 H 0.67709 0.9824 0.51572 0.0
H420 H 0.6563 0.85549 0.45966 0.0
H421 H 0.66678 0.89879 0.48061 0.0
H422 H 0.75627 0.01377 0.46853 0.0
C423 C 0.75671 0.08369 0.51761 0.0
C424 C 0.69418 0.98959 0.50532 0.0
C425 C 0.77458 0.10658 0.53038 0.0
C426 C 0.66956 0.88421 0.45679 0.0
C427 C 0.67547 0.90917 0.4688 0.0
C428 C 0.73795 0.00685 0.47846 0.0
C429 C 0.74209 0.04588 0.51893 0.0
C430 C 0.72779 0.02215 0.50487 0.0
C431 C 0.69428 0.94692 0.46575 0.0
C432 C 0.70458 0.97377 0.4789 0.0
H433 H 0.76553 0.04219 0.55696 0.0
H434 H 0.73354 0.00218 0.53473 0.0
H435 H 0.77552 0.05552 0.49066 0.0
H436 H 0.7106 0.94396 0.42654 0.0
H437 H 0.71903 0.9874 0.44717 0.0
C438 C 0.75994 0.7019 0.60505 0.0
C439 C 0.7803 0.68482 0.60819 0.0
C440 C 0.73992 0.70646 0.61702 0.0
C441 C 0.71002 0.68243 0.65928 0.0
H442 H 0.71175 0.77465 0.6579 0.0
C443 C 0.70167 0.76238 0.71316 0.0
C444 C 0.67891 0.7775 0.71175 0.0
C445 C 0.70619 0.74392 0.70049 0.0
C446 C 0.71058 0.74856 0.65835 0.0
H447 H 0.79489 0.65814 0.62615 0.0
H448 H 0.76173 0.6677 0.64723 0.0
H449 H 0.73465 0.75629 0.63561 0.0
H450 H 0.64182 0.78369 0.69617 0.0
H451 H 0.65054 0.75222 0.67392 0.0
H452 H 0.68817 0.67643 0.68266 0.0
C453 C 0.75993 0.67654 0.63546 0.0
C454 C 0.72353 0.7378 0.6455 0.0
C455 C 0.77919 0.67116 0.62338 0.0
C456 C 0.65945 0.77226 0.69766 0.0
C457 C 0.66453 0.75441 0.6849 0.0
C458 C 0.69776 0.69364 0.67229 0.0
C459 C 0.74064 0.69501 0.63255 0.0
C460 C 0.72382 0.70473 0.6458 0.0
C461 C 0.68855 0.7408 0.6861 0.0
C462 C 0.69822 0.72694 0.67196 0.0
H463 H 0.75999 0.71231 0.59338 0.0
H464 H 0.72455 0.71975 0.61413 0.0
H465 H 0.70903 0.65646 0.65991 0.0
H466 H 0.71692 0.76586 0.72389 0.0
H467 H 0.72502 0.73383 0.70167 0.0
C468 C 0.8795 0.6742 0.86556 0.0
C469 C 0.89198 0.68701 0.88085 0.0
C470 C 0.90421 0.68026 0.85341 0.0
C471 C 0.00211 0.74197 0.84363 0.0
H472 H 0.9763 0.68266 0.80587 0.0
C473 C 0.10161 0.77737 0.79162 0.0
C474 C 0.088 0.78357 0.77756 0.0
C475 C 0.07827 0.7595 0.80428 0.0
C476 C 0.98385 0.6993 0.8164 0.0
H477 H 0.93972 0.71369 0.89572 0.0
H478 H 0.98271 0.72225 0.87484 0.0
H479 H 0.9351 0.66163 0.82851 0.0
H480 H 0.03897 0.77379 0.7654 0.0
H481 H -0.00192 0.74165 0.78743 0.0
H482 H 0.05111 0.77926 0.83151 0.0
C483 C 0.95407 0.70914 0.87193 0.0
C484 C 0.96017 0.68749 0.82935 0.0
C485 C 0.92942 0.70392 0.88398 0.0
C486 C 0.05028 0.76955 0.7761 0.0
C487 C 0.02686 0.75103 0.78866 0.0
C488 C 0.02603 0.75331 0.83084 0.0
C489 C 0.94198 0.69858 0.85633 0.0
C490 C 0.96862 0.70901 0.84307 0.0
C491 C 0.0408 0.74678 0.80301 0.0
C492 C 0.01687 0.73243 0.81702 0.0
H493 H 0.85076 0.66134 0.86279 0.0
H494 H 0.89362 0.67209 0.8416 0.0
H495 H 0.00946 0.75991 0.85371 0.0
H496 H 0.13054 0.78796 0.79315 0.0
H497 H 0.08961 0.75645 0.81523 0.0
C498 C 0.22155 0.93402 0.04615 0.0
C499 C 0.20553 0.89602 0.04474 0.0
C500 C 0.24056 0.95684 0.0335 0.0
C501 C 0.23749 0.95676 0.99119 0.0
H502 H 0.32981 0.04703 0.99353 0.0
C503 C 0.28716 0.05369 0.93826 0.0
C504 C 0.30358 0.09105 0.94155 0.0
C505 C 0.28233 0.02892 0.95018 0.0
C506 C 0.30382 0.02212 0.99268 0.0
H507 H 0.19821 0.8523 0.02915 0.0
H508 H 0.23071 0.89224 0.00694 0.0
H509 H 0.30833 0.00582 0.01616 0.0
H510 H 0.32906 0.13201 0.95973 0.0
H511 H 0.3191 0.08889 0.9807 0.0
H512 H 0.23128 0.97355 0.96831 0.0
C513 C 0.22874 0.90425 0.0179 0.0
C514 C 0.29172 -0.00157 0.00562 0.0
C515 C 0.2103 0.88145 0.03064 0.0
C516 C 0.31656 0.10336 0.95683 0.0
C517 C 0.31093 0.0785 0.96886 0.0
C518 C 0.24917 0.98067 0.97839 0.0
C519 C 0.2434 0.94208 0.01912 0.0
C520 C 0.25827 0.96571 0.00503 0.0
C521 C 0.29286 0.04079 0.9658 0.0
C522 C 0.28233 0.01394 0.97898 0.0
H523 H 0.2185 0.94608 0.05688 0.0
H524 H 0.25141 0.9859 0.03471 0.0
H525 H 0.21131 0.93195 0.99052 0.0
H526 H 0.27728 0.04352 0.92651 0.0
H527 H 0.26941 0.00031 0.94718 0.0
C528 C 0.213 0.34203 0.04247 0.0
C529 C 0.17669 0.32128 0.04751 0.0
C530 C 0.22553 0.33059 0.02965 0.0
C531 C 0.20227 0.24849 0.00566 0.0
H532 H 0.26989 0.31862 0.97555 0.0
C533 C 0.23389 0.2038 0.94675 0.0
C534 C 0.27094 0.21881 0.9429 0.0
C535 C 0.2232 0.21823 0.95906 0.0
C536 C 0.25119 0.29879 0.98393 0.0
H537 H 0.1249 0.27256 0.04301 0.0
H538 H 0.14634 0.2531 0.02049 0.0
H539 H 0.24976 0.33975 -0.00184 0.0
H540 H 0.32563 0.26196 0.94857 0.0
H541 H 0.30673 0.28733 0.97001 0.0
H542 H 0.20324 0.20754 0.9913 0.0
C543 C 0.16552 0.27774 0.0266 0.0
C544 C 0.23975 0.31086 -0.00308 0.0
C545 C 0.15312 0.28901 0.03947 0.0
C546 C 0.29688 0.24962 0.95124 0.0
C547 C 0.28609 0.26426 0.96349 0.0
C548 C 0.21343 0.23646 0.99263 0.0
C549 C 0.20192 0.29827 0.02155 0.0
C550 C 0.21498 0.28581 0.00791 0.0
C551 C 0.24921 0.24819 0.96773 0.0
C552 C 0.23784 0.26143 0.98159 0.0
H553 H 0.23181 0.36699 0.04848 0.0
H554 H 0.25384 0.34684 0.02622 0.0
H555 H 0.18387 0.22846 0.01405 0.0
H556 H 0.21309 0.18016 0.94059 0.0
H557 H 0.19452 0.20563 0.96193 0.0
C558 C 0.85768 0.16327 0.20674 0.0
C559 C 0.84922 0.18667 0.21506 0.0
C560 C 0.88104 0.17592 0.19377 0.0
C561 C 0.9225 0.25114 0.16446 0.0
H562 H 0.98712 0.21247 0.15772 0.0
C563 C 0.04006 0.30492 0.11795 0.0
C564 C 0.04224 0.27786 0.10921 0.0
C565 C 0.01513 0.29534 0.13038 0.0
C566 C 0.96905 0.22333 0.1594 0.0
H567 H 0.85869 0.24176 0.2164 0.0
H568 H 0.90053 0.26431 0.19399 0.0
H569 H 0.94788 0.1937 0.18081 0.0
H570 H 0.01864 0.21941 0.10631 0.0
H571 H 0.97571 0.20299 0.12799 0.0
H572 H 0.94474 0.28148 0.14308 0.0
C573 C 0.88846 0.23592 0.19726 0.0
C574 C 0.94641 0.21248 0.1726 0.0
C575 C 0.86468 0.22309 0.21017 0.0
C576 C 0.01793 0.24105 0.11279 0.0
C577 C -0.00658 0.23157 0.12527 0.0
C578 C 0.94559 0.26238 0.15131 0.0
C579 C 0.89699 0.21247 0.18891 0.0
C580 C 0.92241 0.22577 0.17521 0.0
C581 C -0.00773 0.25857 0.13439 0.0
C582 C 0.96867 0.24813 0.14855 0.0
H583 H 0.84592 0.13496 0.21013 0.0
H584 H 0.88623 0.15681 0.18745 0.0
H585 H 0.90415 0.26169 0.16598 0.0
H586 H 0.05825 0.33352 0.11549 0.0
H587 H 0.01477 0.31668 0.13725 0.0
C588 C 0.73313 0.04883 0.2858 0.0
C589 C 0.76331 0.0528 0.2772 0.0
C590 C 0.71814 0.02326 0.29802 0.0
C591 C 0.7451 0.97707 0.32668 0.0
H592 H 0.64189 0.90991 0.33236 0.0
C593 C 0.69376 0.86223 0.37243 0.0
C594 C 0.66159 0.85282 0.38071 0.0
C595 C 0.70458 0.88648 0.35978 0.0
C596 C 0.67076 0.92886 0.33109 0.0
H597 H 0.80035 0.03178 0.27439 0.0
H598 H 0.77437 0.98765 0.29566 0.0
H599 H 0.66282 0.95207 0.31 0.0
H600 H 0.61551 0.86149 0.38231 0.0
H601 H 0.63491 0.90475 0.36043 0.0
H602 H 0.75334 0.95478 0.34779 0.0
C603 C 0.76252 0.0045 0.29302 0.0
C604 C 0.6827 0.95287 0.31825 0.0
C605 C 0.77724 0.0297 0.28075 0.0
C606 C 0.64041 0.86819 0.3761 0.0
C607 C 0.65143 0.8928 0.3635 0.0
C608 C 0.73321 0.95345 0.33956 0.0
C609 C 0.73329 0.00148 0.30197 0.0
C610 C 0.72004 0.97684 0.31582 0.0
C611 C 0.68373 0.90231 0.35519 0.0
C612 C 0.69593 0.92865 0.34183 0.0
H613 H 0.72161 0.06606 0.28336 0.0
H614 H 0.6956 0.02148 0.30475 0.0
H615 H 0.77401 -0.00422 0.32527 0.0
H616 H 0.71051 0.85059 0.37562 0.0
H617 H 0.72917 0.89247 0.35348 0.0
C618 C 0.82756 0.69659 0.53876 0.0
C619 C 0.8045 0.66439 0.54698 0.0
C620 C 0.81466 0.70722 0.52587 0.0
C621 C 0.7398 0.67285 0.49648 0.0
H622 H 0.77614 0.77601 0.49035 0.0
C623 C 0.68349 0.73456 0.45038 0.0
C624 C 0.70988 0.7649 0.44189 0.0
C625 C 0.69381 0.71963 0.46269 0.0
C626 C 0.76596 0.74712 0.49184 0.0
H627 H 0.74976 0.61808 0.54822 0.0
H628 H 0.7268 0.63717 0.52592 0.0
H629 H 0.79553 0.75566 0.51326 0.0
H630 H 0.768 0.80221 0.43935 0.0
H631 H 0.78571 0.77631 0.46081 0.0
H632 H 0.70958 0.66462 0.4751 0.0
C633 C 0.75511 0.65385 0.52922 0.0
C634 C 0.77715 0.73541 0.50495 0.0
C635 C 0.76818 0.64301 0.54207 0.0
C636 C 0.74685 0.77898 0.44562 0.0
C637 C 0.75706 0.7643 0.45799 0.0
C638 C 0.72827 0.68461 0.48341 0.0
C639 C 0.77821 0.68616 0.52097 0.0
C640 C 0.76465 0.69817 0.50735 0.0
C641 C 0.73065 0.73497 0.46685 0.0
C642 C 0.74165 0.72192 0.48087 0.0
H643 H 0.85579 0.7135 0.54217 0.0
H644 H 0.83351 0.73183 0.51963 0.0
H645 H 0.72989 0.644 0.49784 0.0
H646 H 0.65479 0.72293 0.4478 0.0
H647 H 0.67289 0.69702 0.46935 0.0
C648 C 0.12258 0.82875 0.70707 0.0
C649 C 0.13074 0.80489 0.7152 0.0
C650 C 0.09951 0.81673 0.69401 0.0
C651 C 0.05938 0.7429 0.66408 0.0
H652 H -0.00608 0.78058 0.65745 0.0
C653 C 0.94273 0.68712 0.61755 0.0
C654 C 0.93882 0.7134 0.60899 0.0
C655 C 0.96776 0.69757 0.62994 0.0
C656 C 0.01229 0.77006 0.65908 0.0
H657 H 0.12083 0.7496 0.71615 0.0
H658 H 0.07963 0.72822 0.69358 0.0
H659 H 0.03297 0.79938 0.68059 0.0
H660 H 0.95944 0.77148 0.60642 0.0
H661 H 0.00272 0.78943 0.62801 0.0
H662 H 0.03777 0.71293 0.64262 0.0
C663 C 0.09172 0.75649 0.69707 0.0
C664 C 0.03477 0.7809 0.67232 0.0
C665 C 0.11512 0.76864 0.71007 0.0
C666 C 0.96151 0.75041 0.61275 0.0
C667 C 0.9862 0.76076 0.6252 0.0
C668 C 0.03653 0.73174 0.65089 0.0
C669 C 0.08367 0.78042 0.68884 0.0
C670 C 0.05889 0.76776 0.67494 0.0
C671 C 0.98909 0.73444 0.63412 0.0
C672 C 0.01303 0.74552 0.64818 0.0
H673 H 0.13442 0.85693 0.71068 0.0
H674 H 0.09455 0.83616 0.68782 0.0
H675 H 0.07791 0.73256 0.6656 0.0
H676 H 0.9258 0.65839 0.61496 0.0
H677 H 0.9694 0.67671 0.63665 0.0
C678 C 0.34993 0.13398 0.87187 0.0
C679 C 0.32325 0.1367 0.88059 0.0
C680 C 0.34024 0.11145 0.85859 0.0
C681 C 0.26432 0.06308 0.82994 0.0
H682 H 0.31464 0.01052 0.81991 0.0
C683 C 0.24116 0.93373 0.78931 0.0
C684 C 0.22469 0.93962 0.77614 0.0
C685 C 0.25693 0.96012 0.8011 0.0
C686 C 0.30008 0.02477 0.82259 0.0
H687 H 0.26545 0.11725 0.88257 0.0
H688 H 0.24834 0.07698 0.8599 0.0
H689 H 0.33302 0.05006 0.84289 0.0
H690 H 0.21391 0.97879 0.76453 0.0
H691 H 0.24271 0.02542 0.78473 0.0
H692 H 0.23004 0.03635 0.81024 0.0
C693 C 0.27691 0.09308 0.86289 0.0
C694 C 0.31099 0.04791 0.83568 0.0
C695 C 0.28667 0.11595 0.876 0.0
C696 C 0.22598 0.97323 0.77463 0.0
C697 C 0.24227 -0.00013 0.7863 0.0
C698 C 0.25312 0.03963 0.817 0.0
C699 C 0.30358 0.09082 0.85388 0.0
C700 C 0.29302 0.06713 0.83962 0.0
C701 C 0.2571 0.99331 0.79991 0.0
C702 C 0.27066 0.01993 0.81318 0.0
H703 H 0.37839 0.14983 0.87511 0.0
H704 H 0.3616 0.11081 0.85186 0.0
H705 H 0.25027 0.07795 0.83237 0.0
H706 H 0.24045 0.90803 0.79088 0.0
H707 H 0.26759 0.95377 0.81146 0.0
C708 C 0.63863 0.76701 0.77953 0.0
C709 C 0.65978 0.80303 0.77417 0.0
C710 C 0.64968 0.75491 0.79263 0.0
C711 C 0.73133 0.77896 0.81714 0.0
H712 H 0.66057 0.71242 0.84735 0.0
C713 C 0.77492 0.7504 0.87687 0.0
C714 C 0.76079 0.71349 0.88079 0.0
C715 C 0.76025 0.76037 0.86442 0.0
C716 C 0.68055 0.73084 0.83894 0.0
H717 H 0.70872 0.85479 0.77843 0.0
H718 H 0.72743 0.83418 0.80144 0.0
H719 H 0.63991 0.73161 0.82426 0.0
H720 H 0.71871 0.65828 0.87515 0.0
H721 H 0.69282 0.67597 0.85346 0.0
H722 H 0.77195 0.77874 0.83198 0.0
C723 C 0.70284 0.81483 0.79535 0.0
C724 C 0.66877 0.74173 0.82568 0.0
C725 C 0.692 0.82676 0.7822 0.0
C726 C 0.73039 0.68694 0.87242 0.0
C727 C 0.71546 0.69703 0.86003 0.0
C728 C 0.74306 0.76841 0.83045 0.0
C729 C 0.68196 0.7787 0.80072 0.0
C730 C 0.69407 0.76612 0.81465 0.0
C731 C 0.73088 0.73378 0.85567 0.0
C732 C 0.71786 0.74443 0.84153 0.0
H733 H 0.61369 0.74808 0.77353 0.0
H734 H 0.63315 0.72679 0.79628 0.0
H735 H 0.75156 0.79701 0.80873 0.0
H736 H 0.79821 0.77165 0.88305 0.0
H737 H 0.77231 0.78896 0.86145 0.0
C738 C 0.86393 0.64445 0.94691 0.0
C739 C 0.84877 0.66571 0.94213 0.0
C740 C 0.88822 0.65542 0.95962 0.0
C741 C 0.94841 0.73715 0.98363 0.0
H742 H 0.94601 0.66658 0.01341 0.0
C743 C 0.02421 0.78124 0.0425 0.0
C744 C 0.04702 0.76702 0.04612 0.0
C745 C -0.00104 0.7665 0.03026 0.0
C746 C 0.94709 0.68651 0.00511 0.0
H747 H 0.84663 0.71477 0.94702 0.0
H748 H 0.88795 0.73335 0.96932 0.0
H749 H 0.90441 0.64579 0.9909 0.0
H750 H 0.05966 0.72478 0.04017 0.0
H751 H 0.01504 0.69879 0.01886 0.0
H752 H 0.99048 0.77786 -0.002 0.0
C753 C 0.88204 0.70872 0.96309 0.0
C754 C 0.9234 0.67465 0.99218 0.0
C755 C 0.85811 0.69794 0.95034 0.0
C756 C 0.04265 0.73651 0.03768 0.0
C757 C 0.01705 0.72153 0.0255 0.0
C758 C 0.97171 0.74896 -0.0034 0.0
C759 C 0.89762 0.68776 0.96785 0.0
C760 C 0.92358 0.69988 0.98134 0.0
C761 C -0.00439 0.737 0.02143 0.0
C762 C 0.97112 0.72384 0.00755 0.0
H763 H 0.85728 0.61949 0.94076 0.0
H764 H 0.89999 0.63881 0.96283 0.0
H765 H 0.95004 0.75733 0.97533 0.0
H766 H 0.0266 0.8046 0.04875 0.0
H767 H 0.98237 0.7786 0.02754 0.0
C768 C 0.22033 0.86858 0.11192 0.0
C769 C 0.18382 0.85368 0.10728 0.0
C770 C 0.23357 0.89141 0.1251 0.0
C771 C 0.20354 0.91235 0.16215 0.0
H772 H 0.2916 0.00655 0.15943 0.0
C773 C 0.23825 0.02408 0.20827 0.0
C774 C 0.27488 0.04859 0.21196 0.0
C775 C 0.22918 -0.00166 0.19633 0.0
C776 C 0.26735 0.98006 0.16053 0.0
H777 H 0.13258 0.85101 0.11273 0.0
H778 H 0.15556 0.89039 0.1358 0.0
H779 H 0.27228 0.96551 0.13681 0.0
H780 H 0.33072 0.06422 0.20629 0.0
H781 H 0.31483 0.0186 0.18568 0.0
H782 H 0.1985 0.92647 0.18582 0.0
C783 C 0.17392 0.88442 0.12928 0.0
C784 C 0.25624 0.95664 0.14753 0.0
C785 C 0.16085 0.86207 0.11602 0.0
C786 C 0.30222 0.04593 0.20371 0.0
C787 C 0.29311 0.01991 0.19181 0.0
C788 C 0.21482 0.93552 0.1752 0.0
C789 C 0.21036 0.89924 0.13399 0.0
C790 C 0.22385 0.92287 0.14812 0.0
C791 C 0.25646 -0.0039 0.18782 0.0
C792 C 0.24647 0.97001 0.17446 0.0
H793 H 0.23865 0.8626 0.10538 0.0
H794 H 0.26176 0.90243 0.12851 0.0
H795 H 0.17876 0.88618 0.16301 0.0
H796 H 0.21641 0.0254 0.21429 0.0
H797 H 0.2007 0.98098 0.19345 0.0
C798 C 0.28614 0.15738 0.28266 0.0
C799 C 0.31803 0.18121 0.27441 0.0
C800 C 0.27524 0.16951 0.29575 0.0
C801 C 0.30908 0.24397 0.3254 0.0
H802 H 0.2059 0.20626 0.33212 0.0
C803 C 0.24818 0.301 0.37139 0.0
C804 C 0.21805 0.27494 0.38007 0.0
C805 C 0.26279 0.2902 0.35912 0.0
C806 C 0.23479 0.21679 0.33048 0.0
H807 H 0.36338 0.23654 0.27329 0.0
H808 H 0.34382 0.2581 0.29589 0.0
H809 H 0.22605 0.18688 0.30913 0.0
H810 H 0.18074 0.21691 0.38301 0.0
H811 H 0.20611 0.19836 0.36163 0.0
H812 H 0.31754 0.27457 0.34668 0.0
C813 C 0.32763 0.22978 0.29249 0.0
C814 C 0.24639 0.20561 0.31731 0.0
C815 C 0.33873 0.21751 0.27947 0.0
C816 C 0.20383 0.23781 0.37657 0.0
C817 C 0.21819 0.22712 0.36425 0.0
C818 C 0.29743 0.25547 0.33851 0.0
C819 C 0.29574 0.20591 0.30081 0.0
C820 C 0.28366 0.21877 0.31466 0.0
C821 C 0.24733 0.25319 0.3552 0.0
C822 C 0.26015 0.24171 0.34124 0.0
H823 H 0.26977 0.12916 0.27911 0.0
H824 H 0.25093 0.15013 0.30201 0.0
H825 H 0.33796 0.25434 0.32386 0.0
H826 H 0.25991 0.32981 0.37377 0.0
H827 H 0.28524 0.31088 0.3523 0.0
C828 C 0.12328 0.29278 0.44983 0.0
C829 C 0.1325 0.32492 0.44156 0.0
C830 C 0.09957 0.28216 0.46267 0.0
C831 C 0.05853 0.3163 0.49188 0.0
H832 H -0.00825 0.21305 0.49787 0.0
C833 C 0.93981 0.25333 0.53782 0.0
C834 C 0.93612 0.22306 0.54625 0.0
C835 C 0.96524 0.26868 0.52557 0.0
C836 C 0.01044 0.24196 0.49641 0.0
H837 H 0.12407 0.37118 0.44019 0.0
H838 H 0.08168 0.3521 0.46242 0.0
H839 H 0.0317 0.23364 0.47501 0.0
H840 H 0.95765 0.18639 0.54881 0.0
H841 H 0.00154 0.21299 0.52747 0.0
H842 H 0.03627 0.3243 0.51326 0.0
C843 C 0.09339 0.33546 0.45918 0.0
C844 C 0.03345 0.25381 0.48333 0.0
C845 C 0.11748 0.34629 0.44638 0.0
C846 C 0.9595 0.20954 0.54257 0.0
C847 C 0.98456 0.22462 0.53027 0.0
C848 C 0.03509 0.3044 0.50492 0.0
C849 C 0.08406 0.30316 0.46746 0.0
C850 C 0.05822 0.29107 0.481 0.0
C851 C 0.98715 0.2538 0.52143 0.0
C852 C 0.01123 0.26706 0.50741 0.0
H853 H 0.13467 0.27589 0.44649 0.0
H854 H 0.09373 0.25758 0.46894 0.0
H855 H 0.07746 0.34517 0.49055 0.0
H856 H 0.92236 0.26455 0.54036 0.0
H857 H 0.96671 0.29118 0.51892 0.0
C858 C 0.67865 0.93801 0.70275 0.0
C859 C 0.70536 0.93427 0.71102 0.0
C860 C 0.68851 0.96312 0.69039 0.0
C861 C 0.75976 0.00808 0.66077 0.0
H862 H 0.72411 0.07566 0.65571 0.0
C863 C 0.82193 0.12251 0.61485 0.0
C864 C 0.79907 0.1322 0.60686 0.0
C865 C 0.80878 0.0982 0.62748 0.0
C866 C 0.73388 0.05657 0.65681 0.0
H867 H 0.76355 0.95513 0.71307 0.0
H868 H 0.78047 -0.00154 0.69153 0.0
H869 H 0.704 0.03404 0.67826 0.0
H870 H 0.74441 0.12393 0.60575 0.0
H871 H 0.72102 0.08056 0.62763 0.0
H872 H 0.78907 0.02974 0.63932 0.0
C873 C 0.75193 0.98181 0.69455 0.0
C874 C 0.72245 0.03287 0.66976 0.0
C875 C 0.74218 0.95709 0.70698 0.0
C876 C 0.76267 0.11699 0.61173 0.0
C877 C 0.74936 0.09233 0.62433 0.0
C878 C 0.77084 0.03139 0.64779 0.0
C879 C 0.7252 0.98463 0.68595 0.0
C880 C 0.73575 0.0088 0.67197 0.0
C881 C 0.77228 0.0826 0.63235 0.0
C882 C 0.75854 0.05636 0.64575 0.0
H883 H 0.65005 0.92099 0.70558 0.0
H884 H 0.66736 0.96474 0.68392 0.0
H885 H 0.76986 0.98927 0.66202 0.0
H886 H 0.8502 0.134 0.61146 0.0
H887 H 0.82748 0.09203 0.63357 0.0
loop_
_geom_bond_atom_site_label_1
_geom_bond_atom_site_label_2
_geom_bond_distance
_geom_bond_site_symmetry_2
_ccdc_geom_bond_type
Co0 O1 2.216 . S
Co0 O2 2.091 . S
Co0 O4 2.004 . S
Co0 O10 2.021 . S
Co0 O12 2.137 . S
Co0 O13 2.244 . S
O1 Co0 2.216 . S
O1 C8 1.247 . S
O2 Co0 2.091 . S
O2 C8 1.261 . S
C3 O12 1.247 . S
C3 O13 1.272 . S
O4 Co0 2.004 . S
O4 C9 1.259 . S
Co5 O6 2.061 . S
Co5 O11 2.052 . S
Co5 O13 2.135 . S
O6 Co5 2.061 . S
O6 C9 1.235 . S
C7 O10 1.238 . S
C7 O11 1.241 . S
C8 O1 1.247 . S
C8 O2 1.261 . S
C9 O4 1.259 . S
C9 O6 1.235 . S
O10 Co0 2.021 . S
O10 C7 1.238 . S
O11 Co5 2.052 . S
O11 C7 1.241 . S
O12 Co0 2.137 . S
O12 C3 1.247 . S
O13 Co0 2.244 . S
O13 C3 1.272 . S
O13 Co5 2.135 . S
Co14 O15 2.216 . S
Co14 O16 2.091 . S
Co14 O18 2.004 . S
Co14 O24 2.021 . S
Co14 O26 2.137 . S
Co14 O27 2.244 . S
O15 Co14 2.216 . S
O15 C22 1.247 . S
O16 Co14 2.091 . S
O16 C22 1.261 . S
C17 O26 1.247 . S
C17 O27 1.272 . S
O18 Co14 2.004 . S
O18 C23 1.259 . S
Co19 O20 2.061 . S
Co19 O25 2.052 . S
Co19 O27 2.135 . S
O20 Co19 2.061 . S
O20 C23 1.235 . S
C21 O24 1.238 . S
C21 O25 1.241 . S
C22 O15 1.247 . S
C22 O16 1.261 . S
C23 O18 1.259 . S
C23 O20 1.235 . S
O24 Co14 2.021 . S
O24 C21 1.238 . S
O25 Co19 2.052 . S
O25 C21 1.241 . S
O26 Co14 2.137 . S
O26 C17 1.247 . S
O27 Co14 2.244 . S
O27 C17 1.272 . S
O27 Co19 2.135 . S
Co28 O29 2.216 . S
Co28 O30 2.091 . S
Co28 O32 2.004 . S
Co28 O38 2.021 . S
Co28 O40 2.137 . S
Co28 O41 2.244 . S
O29 Co28 2.216 . S
O29 C36 1.247 . S
O30 Co28 2.091 . S
O30 C36 1.261 . S
C31 O40 1.247 . S
C31 O41 1.272 . S
O32 Co28 2.004 . S
O32 C37 1.259 . S
Co33 O34 2.061 . S
Co33 O39 2.052 . S
Co33 O41 2.135 . S
O34 Co33 2.061 . S
O34 C37 1.235 . S
C35 O38 1.238 . S
C35 O39 1.241 . S
C36 O29 1.247 . S
C36 O30 1.261 . S
C37 O32 1.259 . S
C37 O34 1.235 . S
O38 Co28 2.021 . S
O38 C35 1.238 . S
O39 Co33 2.052 . S
O39 C35 1.241 . S
O40 Co28 2.137 . S
O40 C31 1.247 . S
O41 Co28 2.244 . S
O41 C31 1.272 . S
O41 Co33 2.135 . S
Co42 O43 2.216 . S
Co42 O44 2.091 . S
Co42 O46 2.004 . S
Co42 O52 2.021 . S
Co42 O54 2.137 . S
Co42 O55 2.244 . S
O43 Co42 2.216 . S
O43 C50 1.247 . S
O44 Co42 2.091 . S
O44 C50 1.261 . S
C45 O54 1.247 . S
C45 O55 1.272 . S
O46 Co42 2.004 . S
O46 C51 1.259 . S
Co47 O48 2.061 . S
Co47 O53 2.052 . S
Co47 O55 2.135 . S
O48 Co47 2.061 . S
O48 C51 1.235 . S
C49 O52 1.238 . S
C49 O53 1.241 . S
C50 O43 1.247 . S
C50 O44 1.261 . S
C51 O46 1.259 . S
C51 O48 1.235 . S
O52 Co42 2.021 . S
O52 C49 1.238 . S
O53 Co47 2.052 . S
O53 C49 1.241 . S
O54 Co42 2.137 . S
O54 C45 1.247 . S
O55 Co42 2.244 . S
O55 C45 1.272 . S
O55 Co47 2.135 . S
Co56 O57 2.216 . S
Co56 O58 2.091 . S
Co56 O60 2.004 . S
Co56 O66 2.021 . S
Co56 O68 2.137 . S
Co56 O69 2.244 . S
O57 Co56 2.216 . S
O57 C64 1.247 . S
O58 Co56 2.091 . S
O58 C64 1.261 . S
C59 O68 1.247 . S
C59 O69 1.272 . S
O60 Co56 2.004 . S
O60 C65 1.259 . S
Co61 O62 2.061 . S
Co61 O67 2.052 . S
Co61 O69 2.135 . S
O62 Co61 2.061 . S
O62 C65 1.235 . S
C63 O66 1.238 . S
C63 O67 1.241 . S
C64 O57 1.247 . S
C64 O58 1.261 . S
C65 O60 1.259 . S
C65 O62 1.235 . S
O66 Co56 2.021 . S
O66 C63 1.238 . S
O67 Co61 2.052 . S
O67 C63 1.241 . S
O68 Co56 2.137 . S
O68 C59 1.247 . S
O69 Co56 2.244 . S
O69 C59 1.272 . S
O69 Co61 2.135 . S
Co70 O71 2.216 . S
Co70 O72 2.091 . S
Co70 O74 2.004 . S
Co70 O80 2.021 . S
Co70 O82 2.137 . S
Co70 O83 2.244 . S
O71 Co70 2.216 . S
O71 C78 1.247 . S
O72 Co70 2.091 . S
O72 C78 1.261 . S
C73 O82 1.247 . S
C73 O83 1.272 . S
O74 Co70 2.004 . S
O74 C79 1.259 . S
Co75 O76 2.061 . S
Co75 O81 2.052 . S
Co75 O83 2.135 . S
O76 Co75 2.061 . S
O76 C79 1.235 . S
C77 O80 1.238 . S
C77 O81 1.241 . S
C78 O71 1.247 . S
C78 O72 1.261 . S
C79 O74 1.259 . S
C79 O76 1.235 . S
O80 Co70 2.021 . S
O80 C77 1.238 . S
O81 Co75 2.052 . S
O81 C77 1.241 . S
O82 Co70 2.137 . S
O82 C73 1.247 . S
O83 Co70 2.244 . S
O83 C73 1.272 . S
O83 Co75 2.135 . S
Co84 O85 2.216 . S
Co84 O86 2.091 . S
Co84 O88 2.004 . S
Co84 O94 2.021 . S
Co84 O96 2.137 . S
Co84 O97 2.244 . S
O85 Co84 2.216 . S
O85 C92 1.247 . S
O86 Co84 2.091 . S
O86 C92 1.261 . S
C87 O96 1.247 . S
C87 O97 1.272 . S
O88 Co84 2.004 . S
O88 C93 1.259 . S
Co89 O90 2.061 . S
Co89 O95 2.052 . S
Co89 O97 2.135 . S
O90 Co89 2.061 . S
O90 C93 1.235 . S
C91 O94 1.238 . S
C91 O95 1.241 . S
C92 O85 1.247 . S
C92 O86 1.261 . S
C93 O88 1.259 . S
C93 O90 1.235 . S
O94 Co84 2.021 . S
O94 C91 1.238 . S
O95 Co89 2.052 . S
O95 C91 1.241 . S
O96 Co84 2.137 . S
O96 C87 1.247 . S
O97 Co84 2.244 . S
O97 C87 1.272 . S
O97 Co89 2.135 . S
Co98 O99 2.216 . S
Co98 O100 2.091 . S
Co98 O102 2.004 . S
Co98 O108 2.021 . S
Co98 O110 2.137 . S
Co98 O111 2.244 . S
O99 Co98 2.216 . S
O99 C106 1.247 . S
O100 Co98 2.091 . S
O100 C106 1.261 . S
C101 O110 1.247 . S
C101 O111 1.272 . S
O102 Co98 2.004 . S
O102 C107 1.259 . S
Co103 O104 2.061 . S
Co103 O109 2.052 . S
Co103 O111 2.135 . S
O104 Co103 2.061 . S
O104 C107 1.235 . S
C105 O108 1.238 . S
C105 O109 1.241 . S
C106 O99 1.247 . S
C106 O100 1.261 . S
C107 O102 1.259 . S
C107 O104 1.235 . S
O108 Co98 2.021 . S
O108 C105 1.238 . S
O109 Co103 2.052 . S
O109 C105 1.241 . S
O110 Co98 2.137 . S
O110 C101 1.247 . S
O111 Co98 2.244 . S
O111 C101 1.272 . S
O111 Co103 2.135 . S
Co112 O113 2.216 . S
Co112 O114 2.091 . S
Co112 O116 2.004 . S
Co112 O122 2.021 . S
Co112 O124 2.137 . S
Co112 O125 2.244 . S
O113 Co112 2.216 . S
O113 C120 1.247 . S
O114 Co112 2.091 . S
O114 C120 1.261 . S
C115 O124 1.247 . S
C115 O125 1.272 . S
O116 Co112 2.004 . S
O116 C121 1.259 . S
Co117 O118 2.061 . S
Co117 O123 2.052 . S
Co117 O125 2.135 . S
O118 Co117 2.061 . S
O118 C121 1.235 . S
C119 O122 1.238 . S
C119 O123 1.241 . S
C120 O113 1.247 . S
C120 O114 1.261 . S
C121 O116 1.259 . S
C121 O118 1.235 . S
O122 Co112 2.021 . S
O122 C119 1.238 . S
O123 Co117 2.052 . S
O123 C119 1.241 . S
O124 Co112 2.137 . S
O124 C115 1.247 . S
O125 Co112 2.244 . S
O125 C115 1.272 . S
O125 Co117 2.135 . S
Co126 O127 2.216 . S
Co126 O128 2.091 . S
Co126 O130 2.004 . S
Co126 O136 2.021 . S
Co126 O138 2.137 . S
Co126 O139 2.244 . S
O127 Co126 2.216 . S
O127 C134 1.247 . S
O128 Co126 2.091 . S
O128 C134 1.261 . S
C129 O138 1.247 . S
C129 O139 1.272 . S
O130 Co126 2.004 . S
O130 C135 1.259 . S
Co131 O132 2.061 . S
Co131 O137 2.052 . S
Co131 O139 2.135 . S
O132 Co131 2.061 . S
O132 C135 1.235 . S
C133 O136 1.238 . S
C133 O137 1.241 . S
C134 O127 1.247 . S
C134 O128 1.261 . S
C135 O130 1.259 . S
C135 O132 1.235 . S
O136 Co126 2.021 . S
O136 C133 1.238 . S
O137 Co131 2.052 . S
O137 C133 1.241 . S
O138 Co126 2.137 . S
O138 C129 1.247 . S
O139 Co126 2.244 . S
O139 C129 1.272 . S
O139 Co131 2.135 . S
Co140 O141 2.216 . S
Co140 O142 2.091 . S
Co140 O144 2.004 . S
Co140 O150 2.021 . S
Co140 O152 2.137 . S
Co140 O153 2.244 . S
O141 Co140 2.216 . S
O141 C148 1.247 . S
O142 Co140 2.091 . S
O142 C148 1.261 . S
C143 O152 1.247 . S
C143 O153 1.272 . S
O144 Co140 2.004 . S
O144 C149 1.259 . S
Co145 O146 2.061 . S
Co145 O151 2.052 . S
Co145 O153 2.135 . S
O146 Co145 2.061 . S
O146 C149 1.235 . S
C147 O150 1.238 . S
C147 O151 1.241 . S
C148 O141 1.247 . S
C148 O142 1.261 . S
C149 O144 1.259 . S
C149 O146 1.235 . S
O150 Co140 2.021 . S
O150 C147 1.238 . S
O151 Co145 2.052 . S
O151 C147 1.241 . S
O152 Co140 2.137 . S
O152 C143 1.247 . S
O153 Co140 2.244 . S
O153 C143 1.272 . S
O153 Co145 2.135 . S
Co154 O155 2.216 . S
Co154 O156 2.091 . S
Co154 O158 2.004 . S
Co154 O164 2.021 . S
Co154 O166 2.137 . S
Co154 O167 2.244 . S
O155 Co154 2.216 . S
O155 C162 1.247 . S
O156 Co154 2.091 . S
O156 C162 1.261 . S
C157 O166 1.247 . S
C157 O167 1.272 . S
O158 Co154 2.004 . S
O158 C163 1.259 . S
Co159 O160 2.061 . S
Co159 O165 2.052 . S
Co159 O167 2.135 . S
O160 Co159 2.061 . S
O160 C163 1.235 . S
C161 O164 1.238 . S
C161 O165 1.241 . S
C162 O155 1.247 . S
C162 O156 1.261 . S
C163 O158 1.259 . S
C163 O160 1.235 . S
O164 Co154 2.021 . S
O164 C161 1.238 . S
O165 Co159 2.052 . S
O165 C161 1.241 . S
O166 Co154 2.137 . S
O166 C157 1.247 . S
O167 Co154 2.244 . S
O167 C157 1.272 . S
O167 Co159 2.135 . S
C168 C169 1.349 . S
C168 C170 1.327 . S
C168 H193 0.950 . S
C169 C168 1.349 . S
C169 C185 1.349 . S
C170 C168 1.327 . S
C170 C189 1.429 . S
C170 H194 0.950 . S
C171 C188 1.574 . S
C171 C190 1.368 . S
C171 H195 0.949 . S
H172 C176 0.949 . S
C173 C174 1.349 . S
C173 C175 1.327 . S
C173 H196 0.950 . S
C174 C173 1.349 . S
C174 C186 1.349 . S
C175 C173 1.327 . S
C175 C191 1.429 . S
C175 H197 0.950 . S
C176 H172 0.949 . S
C176 C184 1.574 . S
C176 C192 1.368 . S
H177 C185 0.950 . S
H178 C183 0.950 . S
H179 C184 0.949 . S
H180 C186 0.950 . S
H181 C187 0.950 . S
H182 C188 0.949 . S
C183 H178 0.950 . S
C183 C185 1.327 . S
C183 C189 1.429 . S
C184 C176 1.574 . S
C184 H179 0.949 . S
C184 C190 1.368 . S
C185 C169 1.349 . S
C185 H177 0.950 . S
C185 C183 1.327 . S
C186 C174 1.349 . S
C186 H180 0.950 . S
C186 C187 1.327 . S
C187 H181 0.950 . S
C187 C186 1.327 . S
C187 C191 1.429 . S
C188 C171 1.574 . S
C188 H182 0.949 . S
C188 C192 1.368 . S
C189 C170 1.429 . S
C189 C183 1.429 . S
C189 C190 1.523 . S
C190 C171 1.368 . S
C190 C184 1.368 . S
C190 C189 1.523 . S
C191 C175 1.429 . S
C191 C187 1.429 . S
C191 C192 1.523 . S
C192 C176 1.368 . S
C192 C188 1.368 . S
C192 C191 1.523 . S
H193 C168 0.950 . S
H194 C170 0.950 . S
H195 C171 0.949 . S
H196 C173 0.950 . S
H197 C175 0.950 . S
C198 C199 1.349 . S
C198 C200 1.327 . S
C198 H223 0.950 . S
C199 C198 1.349 . S
C199 C215 1.349 . S
C200 C198 1.327 . S
C200 C219 1.429 . S
C200 H224 0.950 . S
C201 C218 1.574 . S
C201 C220 1.368 . S
C201 H225 0.949 . S
H202 C206 0.949 . S
C203 C204 1.349 . S
C203 C205 1.327 . S
C203 H226 0.950 . S
C204 C203 1.349 . S
C204 C216 1.349 . S
C205 C203 1.327 . S
C205 C221 1.429 . S
C205 H227 0.950 . S
C206 H202 0.949 . S
C206 C214 1.574 . S
C206 C222 1.368 . S
H207 C215 0.950 . S
H208 C213 0.950 . S
H209 C214 0.949 . S
H210 C216 0.950 . S
H211 C217 0.950 . S
H212 C218 0.949 . S
C213 H208 0.950 . S
C213 C215 1.327 . S
C213 C219 1.429 . S
C214 C206 1.574 . S
C214 H209 0.949 . S
C214 C220 1.368 . S
C215 C199 1.349 . S
C215 H207 0.950 . S
C215 C213 1.327 . S
C216 C204 1.349 . S
C216 H210 0.950 . S
C216 C217 1.327 . S
C217 H211 0.950 . S
C217 C216 1.327 . S
C217 C221 1.429 . S
C218 C201 1.574 . S
C218 H212 0.949 . S
C218 C222 1.368 . S
C219 C200 1.429 . S
C219 C213 1.429 . S
C219 C220 1.523 . S
C220 C201 1.368 . S
C220 C214 1.368 . S
C220 C219 1.523 . S
C221 C205 1.429 . S
C221 C217 1.429 . S
C221 C222 1.523 . S
C222 C206 1.368 . S
C222 C218 1.368 . S
C222 C221 1.523 . S
H223 C198 0.950 . S
H224 C200 0.950 . S
H225 C201 0.949 . S
H226 C203 0.950 . S
H227 C205 0.950 . S
C228 C229 1.349 . S
C228 C230 1.327 . S
C228 H253 0.950 . S
C229 C228 1.349 . S
C229 C245 1.349 . S
C230 C228 1.327 . S
C230 C249 1.429 . S
C230 H254 0.950 . S
C231 C248 1.574 . S
C231 C250 1.368 . S
C231 H255 0.949 . S
H232 C236 0.949 . S
C233 C234 1.349 . S
C233 C235 1.327 . S
C233 H256 0.950 . S
C234 C233 1.349 . S
C234 C246 1.349 . S
C235 C233 1.327 . S
C235 C251 1.429 . S
C235 H257 0.950 . S
C236 H232 0.949 . S
C236 C244 1.574 . S
C236 C252 1.368 . S
H237 C245 0.950 . S
H238 C243 0.950 . S
H239 C244 0.949 . S
H240 C246 0.950 . S
H241 C247 0.950 . S
H242 C248 0.949 . S
C243 H238 0.950 . S
C243 C245 1.327 . S
C243 C249 1.429 . S
C244 C236 1.574 . S
C244 H239 0.949 . S
C244 C250 1.368 . S
C245 C229 1.349 . S
C245 H237 0.950 . S
C245 C243 1.327 . S
C246 C234 1.349 . S
C246 H240 0.950 . S
C246 C247 1.327 . S
C247 H241 0.950 . S
C247 C246 1.327 . S
C247 C251 1.429 . S
C248 C231 1.574 . S
C248 H242 0.949 . S
C248 C252 1.368 . S
C249 C230 1.429 . S
C249 C243 1.429 . S
C249 C250 1.523 . S
C250 C231 1.368 . S
C250 C244 1.368 . S
C250 C249 1.523 . S
C251 C235 1.429 . S
C251 C247 1.429 . S
C251 C252 1.523 . S
C252 C236 1.368 . S
C252 C248 1.368 . S
C252 C251 1.523 . S
H253 C228 0.950 . S
H254 C230 0.950 . S
H255 C231 0.949 . S
H256 C233 0.950 . S
H257 C235 0.950 . S
C258 C259 1.349 . S
C258 C260 1.327 . S
C258 H283 0.950 . S
C259 C258 1.349 . S
C259 C275 1.349 . S
C260 C258 1.327 . S
C260 C279 1.429 . S
C260 H284 0.950 . S
C261 C278 1.574 . S
C261 C280 1.368 . S
C261 H285 0.949 . S
H262 C266 0.949 . S
C263 C264 1.349 . S
C263 C265 1.327 . S
C263 H286 0.950 . S
C264 C263 1.349 . S
C264 C276 1.349 . S
C265 C263 1.327 . S
C265 C281 1.429 . S
C265 H287 0.950 . S
C266 H262 0.949 . S
C266 C274 1.574 . S
C266 C282 1.368 . S
H267 C275 0.950 . S
H268 C273 0.950 . S
H269 C274 0.949 . S
H270 C276 0.950 . S
H271 C277 0.950 . S
H272 C278 0.949 . S
C273 H268 0.950 . S
C273 C275 1.327 . S
C273 C279 1.429 . S
C274 C266 1.574 . S
C274 H269 0.949 . S
C274 C280 1.368 . S
C275 C259 1.349 . S
C275 H267 0.950 . S
C275 C273 1.327 . S
C276 C264 1.349 . S
C276 H270 0.950 . S
C276 C277 1.327 . S
C277 H271 0.950 . S
C277 C276 1.327 . S
C277 C281 1.429 . S
C278 C261 1.574 . S
C278 H272 0.949 . S
C278 C282 1.368 . S
C279 C260 1.429 . S
C279 C273 1.429 . S
C279 C280 1.523 . S
C280 C261 1.368 . S
C280 C274 1.368 . S
C280 C279 1.523 . S
C281 C265 1.429 . S
C281 C277 1.429 . S
C281 C282 1.523 . S
C282 C266 1.368 . S
C282 C278 1.368 . S
C282 C281 1.523 . S
H283 C258 0.950 . S
H284 C260 0.950 . S
H285 C261 0.949 . S
H286 C263 0.950 . S
H287 C265 0.950 . S
C288 C289 1.349 . S
C288 C290 1.327 . S
C288 H313 0.950 . S
C289 C288 1.349 . S
C289 C305 1.349 . S
C290 C288 1.327 . S
C290 C309 1.429 . S
C290 H314 0.950 . S
C291 C308 1.574 . S
C291 C310 1.368 . S
C291 H315 0.949 . S
H292 C296 0.949 . S
C293 C294 1.349 . S
C293 C295 1.327 . S
C293 H316 0.950 . S
C294 C293 1.349 . S
C294 C306 1.349 . S
C295 C293 1.327 . S
C295 C311 1.429 . S
C295 H317 0.950 . S
C296 H292 0.949 . S
C296 C304 1.574 . S
C296 C312 1.368 . S
H297 C305 0.950 . S
H298 C303 0.950 . S
H299 C304 0.949 . S
H300 C306 0.950 . S
H301 C307 0.950 . S
H302 C308 0.949 . S
C303 H298 0.950 . S
C303 C305 1.327 . S
C303 C309 1.429 . S
C304 C296 1.574 . S
C304 H299 0.949 . S
C304 C310 1.368 . S
C305 C289 1.349 . S
C305 H297 0.950 . S
C305 C303 1.327 . S
C306 C294 1.349 . S
C306 H300 0.950 . S
C306 C307 1.327 . S
C307 H301 0.950 . S
C307 C306 1.327 . S
C307 C311 1.429 . S
C308 C291 1.574 . S
C308 H302 0.949 . S
C308 C312 1.368 . S
C309 C290 1.429 . S
C309 C303 1.429 . S
C309 C310 1.523 . S
C310 C291 1.368 . S
C310 C304 1.368 . S
C310 C309 1.523 . S
C311 C295 1.429 . S
C311 C307 1.429 . S
C311 C312 1.523 . S
C312 C296 1.368 . S
C312 C308 1.368 . S
C312 C311 1.523 . S
H313 C288 0.950 . S
H314 C290 0.950 . S
H315 C291 0.949 . S
H316 C293 0.950 . S
H317 C295 0.950 . S
C318 C319 1.349 . S
C318 C320 1.327 . S
C318 H343 0.950 . S
C319 C318 1.349 . S
C319 C335 1.349 . S
C320 C318 1.327 . S
C320 C339 1.429 . S
C320 H344 0.950 . S
C321 C338 1.574 . S
C321 C340 1.368 . S
C321 H345 0.949 . S
H322 C326 0.949 . S
C323 C324 1.349 . S
C323 C325 1.327 . S
C323 H346 0.950 . S
C324 C323 1.349 . S
C324 C336 1.349 . S
C325 C323 1.327 . S
C325 C341 1.429 . S
C325 H347 0.950 . S
C326 H322 0.949 . S
C326 C334 1.574 . S
C326 C342 1.368 . S
H327 C335 0.950 . S
H328 C333 0.950 . S
H329 C334 0.949 . S
H330 C336 0.950 . S
H331 C337 0.950 . S
H332 C338 0.949 . S
C333 H328 0.950 . S
C333 C335 1.327 . S
C333 C339 1.429 . S
C334 C326 1.574 . S
C334 H329 0.949 . S
C334 C340 1.368 . S
C335 C319 1.349 . S
C335 H327 0.950 . S
C335 C333 1.327 . S
C336 C324 1.349 . S
C336 H330 0.950 . S
C336 C337 1.327 . S
C337 H331 0.950 . S
C337 C336 1.327 . S
C337 C341 1.429 . S
C338 C321 1.574 . S
C338 H332 0.949 . S
C338 C342 1.368 . S
C339 C320 1.429 . S
C339 C333 1.429 . S
C339 C340 1.523 . S
C340 C321 1.368 . S
C340 C334 1.368 . S
C340 C339 1.523 . S
C341 C325 1.429 . S
C341 C337 1.429 . S
C341 C342 1.523 . S
C342 C326 1.368 . S
C342 C338 1.368 . S
C342 C341 1.523 . S
H343 C318 0.950 . S
H344 C320 0.950 . S
H345 C321 0.949 . S
H346 C323 0.950 . S
H347 C325 0.950 . S
C348 C349 1.349 . S
C348 C350 1.327 . S
C348 H373 0.950 . S
C349 C348 1.349 . S
C349 C365 1.349 . S
C350 C348 1.327 . S
C350 C369 1.429 . S
C350 H374 0.950 . S
C351 C368 1.574 . S
C351 C370 1.368 . S
C351 H375 0.949 . S
H352 C356 0.949 . S
C353 C354 1.349 . S
C353 C355 1.327 . S
C353 H376 0.950 . S
C354 C353 1.349 . S
C354 C366 1.349 . S
C355 C353 1.327 . S
C355 C371 1.429 . S
C355 H377 0.950 . S
C356 H352 0.949 . S
C356 C364 1.574 . S
C356 C372 1.368 . S
H357 C365 0.950 . S
H358 C363 0.950 . S
H359 C364 0.949 . S
H360 C366 0.950 . S
H361 C367 0.950 . S
H362 C368 0.949 . S
C363 H358 0.950 . S
C363 C365 1.327 . S
C363 C369 1.429 . S
C364 C356 1.574 . S
C364 H359 0.949 . S
C364 C370 1.368 . S
C365 C349 1.349 . S
C365 H357 0.950 . S
C365 C363 1.327 . S
C366 C354 1.349 . S
C366 H360 0.950 . S
C366 C367 1.327 . S
C367 H361 0.950 . S
C367 C366 1.327 . S
C367 C371 1.429 . S
C368 C351 1.574 . S
C368 H362 0.949 . S
C368 C372 1.368 . S
C369 C350 1.429 . S
C369 C363 1.429 . S
C369 C370 1.523 . S
C370 C351 1.368 . S
C370 C364 1.368 . S
C370 C369 1.523 . S
C371 C355 1.429 . S
C371 C367 1.429 . S
C371 C372 1.523 . S
C372 C356 1.368 . S
C372 C368 1.368 . S
C372 C371 1.523 . S
H373 C348 0.950 . S
H374 C350 0.950 . S
H375 C351 0.949 . S
H376 C353 0.950 . S
H377 C355 0.950 . S
C378 C379 1.349 . S
C378 C380 1.327 . S
C378 H403 0.950 . S
C379 C378 1.349 . S
C379 C395 1.349 . S
C380 C378 1.327 . S
C380 C399 1.429 . S
C380 H404 0.950 . S
C381 C398 1.589 . S
C381 C400 1.356 1_455 S
C381 H405 0.948 . S
H382 C386 0.948 . S
C383 C384 1.349 . S
C383 C385 1.327 . S
C383 H406 0.950 . S
C384 C383 1.349 . S
C384 C396 1.349 . S
C385 C383 1.327 . S
C385 C401 1.429 . S
C385 H407 0.950 . S
C386 H382 0.948 . S
C386 C394 1.589 . S
C386 C402 1.356 1_655 S
H387 C395 0.950 . S
H388 C393 0.950 . S
H389 C394 0.949 . S
H390 C396 0.950 . S
H391 C397 0.950 . S
H392 C398 0.949 . S
C393 H388 0.950 . S
C393 C395 1.327 . S
C393 C399 1.429 . S
C394 C386 1.589 . S
C394 H389 0.949 . S
C394 C400 1.368 . S
C395 C379 1.349 . S
C395 H387 0.950 . S
C395 C393 1.327 . S
C396 C384 1.349 . S
C396 H390 0.950 . S
C396 C397 1.327 . S
C397 H391 0.950 . S
C397 C396 1.327 . S
C397 C401 1.429 . S
C398 C381 1.589 . S
C398 H392 0.949 . S
C398 C402 1.368 . S
C399 C380 1.429 . S
C399 C393 1.429 . S
C399 C400 1.523 . S
C400 C381 1.356 1_655 S
C400 C394 1.368 . S
C400 C399 1.523 . S
C401 C385 1.429 . S
C401 C397 1.429 . S
C401 C402 1.523 . S
C402 C386 1.356 1_455 S
C402 C398 1.368 . S
C402 C401 1.523 . S
H403 C378 0.950 . S
H404 C380 0.950 . S
H405 C381 0.948 . S
H406 C383 0.950 . S
H407 C385 0.950 . S
C408 C409 1.349 . S
C408 C410 1.327 . S
C408 H433 0.950 . S
C409 C408 1.349 . S
C409 C425 1.349 . S
C410 C408 1.327 . S
C410 C429 1.429 . S
C410 H434 0.950 . S
C411 C428 1.600 . S
C411 C430 1.368 . S
C411 H435 0.949 . S
H412 C416 0.949 . S
C413 C414 1.349 . S
C413 C415 1.327 . S
C413 H436 0.950 . S
C414 C413 1.349 . S
C414 C426 1.349 . S
C415 C413 1.327 . S
C415 C431 1.429 . S
C415 H437 0.950 . S
C416 H412 0.949 . S
C416 C424 1.600 . S
C416 C432 1.368 . S
H417 C425 0.950 . S
H418 C423 0.950 . S
H419 C424 0.949 . S
H420 C426 0.950 . S
H421 C427 0.950 . S
H422 C428 0.949 . S
C423 H418 0.950 . S
C423 C425 1.327 . S
C423 C429 1.429 . S
C424 C416 1.600 . S
C424 H419 0.949 . S
C424 C430 1.346 1_565 S
C425 C409 1.349 . S
C425 H417 0.950 . S
C425 C423 1.327 . S
C426 C414 1.349 . S
C426 H420 0.950 . S
C426 C427 1.327 . S
C427 H421 0.950 . S
C427 C426 1.327 . S
C427 C431 1.429 . S
C428 C411 1.600 . S
C428 H422 0.949 . S
C428 C432 1.346 1_545 S
C429 C410 1.429 . S
C429 C423 1.429 . S
C429 C430 1.523 . S
C430 C411 1.368 . S
C430 C424 1.346 1_545 S
C430 C429 1.523 . S
C431 C415 1.429 . S
C431 C427 1.429 . S
C431 C432 1.523 . S
C432 C416 1.368 . S
C432 C428 1.346 1_565 S
C432 C431 1.523 . S
H433 C408 0.950 . S
H434 C410 0.950 . S
H435 C411 0.949 . S
H436 C413 0.950 . S
H437 C415 0.950 . S
C438 C439 1.349 . S
C438 C440 1.327 . S
C438 H463 0.950 . S
C439 C438 1.349 . S
C439 C455 1.349 . S
C440 C438 1.327 . S
C440 C459 1.429 . S
C440 H464 0.950 . S
C441 C458 1.574 . S
C441 C460 1.368 . S
C441 H465 0.949 . S
H442 C446 0.949 . S
C443 C444 1.349 . S
C443 C445 1.327 . S
C443 H466 0.950 . S
C444 C443 1.349 . S
C444 C456 1.349 . S
C445 C443 1.327 . S
C445 C461 1.429 . S
C445 H467 0.950 . S
C446 H442 0.949 . S
C446 C454 1.574 . S
C446 C462 1.368 . S
H447 C455 0.950 . S
H448 C453 0.950 . S
H449 C454 0.949 . S
H450 C456 0.950 . S
H451 C457 0.950 . S
H452 C458 0.949 . S
C453 H448 0.950 . S
C453 C455 1.327 . S
C453 C459 1.429 . S
C454 C446 1.574 . S
C454 H449 0.949 . S
C454 C460 1.368 . S
C455 C439 1.349 . S
C455 H447 0.950 . S
C455 C453 1.327 . S
C456 C444 1.349 . S
C456 H450 0.950 . S
C456 C457 1.327 . S
C457 H451 0.950 . S
C457 C456 1.327 . S
C457 C461 1.429 . S
C458 C441 1.574 . S
C458 H452 0.949 . S
C458 C462 1.368 . S
C459 C440 1.429 . S
C459 C453 1.429 . S
C459 C460 1.523 . S
C460 C441 1.368 . S
C460 C454 1.368 . S
C460 C459 1.523 . S
C461 C445 1.429 . S
C461 C457 1.429 . S
C461 C462 1.523 . S
C462 C446 1.368 . S
C462 C458 1.368 . S
C462 C461 1.523 . S
H463 C438 0.950 . S
H464 C440 0.950 . S
H465 C441 0.949 . S
H466 C443 0.950 . S
H467 C445 0.950 . S
C468 C469 1.349 . S
C468 C470 1.327 . S
C468 H493 0.950 . S
C469 C468 1.349 . S
C469 C485 1.349 . S
C470 C468 1.327 . S
C470 C489 1.429 . S
C470 H494 0.950 . S
C471 C488 1.574 1_655 S
C471 C490 1.368 . S
C471 H495 0.949 . S
H472 C476 0.949 . S
C473 C474 1.349 . S
C473 C475 1.327 . S
C473 H496 0.950 . S
C474 C473 1.349 . S
C474 C486 1.349 . S
C475 C473 1.327 . S
C475 C491 1.429 . S
C475 H497 0.950 . S
C476 H472 0.949 . S
C476 C484 1.574 1_455 S
C476 C492 1.368 . S
H477 C485 0.950 . S
H478 C483 0.950 . S
H479 C484 0.949 . S
H480 C486 0.950 . S
H481 C487 0.950 . S
H482 C488 0.949 . S
C483 H478 0.950 . S
C483 C485 1.327 . S
C483 C489 1.429 . S
C484 C476 1.574 1_655 S
C484 H479 0.949 . S
C484 C490 1.368 . S
C485 C469 1.349 . S
C485 H477 0.950 . S
C485 C483 1.327 . S
C486 C474 1.349 . S
C486 H480 0.950 . S
C486 C487 1.327 . S
C487 H481 0.950 . S
C487 C486 1.327 . S
C487 C491 1.429 . S
C488 C471 1.574 1_455 S
C488 H482 0.949 . S
C488 C492 1.368 . S
C489 C470 1.429 . S
C489 C483 1.429 . S
C489 C490 1.523 . S
C490 C471 1.368 . S
C490 C484 1.368 . S
C490 C489 1.523 . S
C491 C475 1.429 . S
C491 C487 1.429 . S
C491 C492 1.523 . S
C492 C476 1.368 . S
C492 C488 1.368 . S
C492 C491 1.523 . S
H493 C468 0.950 . S
H494 C470 0.950 . S
H495 C471 0.949 . S
H496 C473 0.950 . S
H497 C475 0.950 . S
C498 C499 1.349 . S
C498 C500 1.327 . S
C498 H523 0.950 . S
C499 C498 1.349 . S
C499 C515 1.349 . S
C500 C498 1.327 . S
C500 C519 1.429 . S
C500 H524 0.950 . S
C501 C518 1.577 . S
C501 C520 1.368 1_556 S
C501 H525 0.949 . S
H502 C506 0.949 . S
C503 C504 1.349 . S
C503 C505 1.327 . S
C503 H526 0.950 . S
C504 C503 1.349 . S
C504 C516 1.349 . S
C505 C503 1.327 . S
C505 C521 1.429 . S
C505 H527 0.950 . S
C506 H502 0.949 . S
C506 C514 1.578 . S
C506 C522 1.368 1_554 S
H507 C515 0.950 . S
H508 C513 0.950 . S
H509 C514 0.947 1_565 S
H510 C516 0.950 . S
H511 C517 0.950 . S
H512 C518 0.947 1_545 S
C513 H508 0.950 . S
C513 C515 1.327 . S
C513 C519 1.429 . S
C514 C506 1.578 . S
C514 H509 0.947 1_545 S
C514 C520 1.365 1_545 S
C515 C499 1.349 . S
C515 H507 0.950 . S
C515 C513 1.327 . S
C516 C504 1.349 . S
C516 H510 0.950 . S
C516 C517 1.327 . S
C517 H511 0.950 . S
C517 C516 1.327 . S
C517 C521 1.429 . S
C518 C501 1.577 . S
C518 H512 0.947 1_565 S
C518 C522 1.366 1_565 S
C519 C500 1.429 . S
C519 C513 1.429 . S
C519 C520 1.523 . S
C520 C501 1.368 1_554 S
C520 C514 1.365 1_565 S
C520 C519 1.523 . S
C521 C505 1.429 . S
C521 C517 1.429 . S
C521 C522 1.523 . S
C522 C506 1.368 1_556 S
C522 C518 1.366 1_545 S
C522 C521 1.523 . S
H523 C498 0.950 . S
H524 C500 0.950 . S
H525 C501 0.949 . S
H526 C503 0.950 . S
H527 C505 0.950 . S
C528 C529 1.349 . S
C528 C530 1.327 . S
C528 H553 0.950 . S
C529 C528 1.349 . S
C529 C545 1.349 . S
C530 C528 1.327 . S
C530 C549 1.429 . S
C530 H554 0.950 . S
C531 C548 1.574 . S
C531 C550 1.368 . S
C531 H555 0.949 . S
H532 C536 0.949 . S
C533 C534 1.349 . S
C533 C535 1.327 . S
C533 H556 0.950 . S
C534 C533 1.349 . S
C534 C546 1.349 . S
C535 C533 1.327 . S
C535 C551 1.429 . S
C535 H557 0.950 . S
C536 H532 0.949 . S
C536 C544 1.574 . S
C536 C552 1.368 . S
H537 C545 0.950 . S
H538 C543 0.950 . S
H539 C544 0.949 . S
H540 C546 0.950 . S
H541 C547 0.950 . S
H542 C548 0.949 1_556 S
C543 H538 0.950 . S
C543 C545 1.327 . S
C543 C549 1.429 . S
C544 C536 1.574 . S
C544 H539 0.949 . S
C544 C550 1.368 . S
C545 C529 1.349 . S
C545 H537 0.950 . S
C545 C543 1.327 . S
C546 C534 1.349 . S
C546 H540 0.950 . S
C546 C547 1.327 . S
C547 H541 0.950 . S
C547 C546 1.327 . S
C547 C551 1.429 . S
C548 C531 1.574 . S
C548 H542 0.949 1_554 S
C548 C552 1.368 . S
C549 C530 1.429 . S
C549 C543 1.429 . S
C549 C550 1.523 . S
C550 C531 1.368 . S
C550 C544 1.368 . S
C550 C549 1.523 . S
C551 C535 1.429 . S
C551 C547 1.429 . S
C551 C552 1.523 1_556 S
C552 C536 1.368 . S
C552 C548 1.368 . S
C552 C551 1.523 1_554 S
H553 C528 0.950 . S
H554 C530 0.950 . S
H555 C531 0.949 . S
H556 C533 0.950 . S
H557 C535 0.950 . S
C558 C559 1.349 . S
C558 C560 1.327 . S
C558 H583 0.950 . S
C559 C558 1.349 . S
C559 C575 1.349 . S
C560 C558 1.327 . S
C560 C579 1.429 . S
C560 H584 0.950 . S
C561 C578 1.574 . S
C561 C580 1.368 . S
C561 H585 0.949 . S
H562 C566 0.949 . S
C563 C564 1.349 . S
C563 C565 1.327 . S
C563 H586 0.950 . S
C564 C563 1.349 . S
C564 C576 1.349 . S
C565 C563 1.327 . S
C565 C581 1.429 1_455 S
C565 H587 0.950 . S
C566 H562 0.949 . S
C566 C574 1.574 . S
C566 C582 1.368 . S
H567 C575 0.950 . S
H568 C573 0.950 . S
H569 C574 0.949 . S
H570 C576 0.950 . S
H571 C577 0.950 . S
H572 C578 0.949 1_455 S
C573 H568 0.950 . S
C573 C575 1.327 . S
C573 C579 1.429 . S
C574 C566 1.574 . S
C574 H569 0.949 . S
C574 C580 1.368 . S
C575 C559 1.349 . S
C575 H567 0.950 . S
C575 C573 1.327 . S
C576 C564 1.349 . S
C576 H570 0.950 . S
C576 C577 1.327 1_455 S
C577 H571 0.950 . S
C577 C576 1.327 1_655 S
C577 C581 1.429 . S
C578 C561 1.574 . S
C578 H572 0.949 1_655 S
C578 C582 1.368 . S
C579 C560 1.429 . S
C579 C573 1.429 . S
C579 C580 1.523 . S
C580 C561 1.368 . S
C580 C574 1.368 . S
C580 C579 1.523 . S
C581 C565 1.429 1_655 S
C581 C577 1.429 . S
C581 C582 1.523 . S
C582 C566 1.368 . S
C582 C578 1.368 . S
C582 C581 1.523 . S
H583 C558 0.950 . S
H584 C560 0.950 . S
H585 C561 0.949 . S
H586 C563 0.950 . S
H587 C565 0.950 . S
C588 C589 1.349 . S
C588 C590 1.327 . S
C588 H613 0.950 . S
C589 C588 1.349 . S
C589 C605 1.349 . S
C590 C588 1.327 . S
C590 C609 1.429 1_545 S
C590 H614 0.950 . S
C591 C608 1.574 . S
C591 C610 1.368 . S
C591 H615 0.949 . S
H592 C596 0.949 . S
C593 C594 1.349 . S
C593 C595 1.327 . S
C593 H616 0.950 . S
C594 C593 1.349 . S
C594 C606 1.349 . S
C595 C593 1.327 . S
C595 C611 1.429 . S
C595 H617 0.950 . S
C596 H592 0.949 . S
C596 C604 1.574 . S
C596 C612 1.368 . S
H597 C605 0.950 . S
H598 C603 0.948 1_565 S
H599 C604 0.949 . S
H600 C606 0.950 . S
H601 C607 0.950 . S
H602 C608 0.949 . S
C603 H598 0.948 1_545 S
C603 C605 1.329 . S
C603 C609 1.429 1_545 S
C604 C596 1.574 . S
C604 H599 0.949 . S
C604 C610 1.368 . S
C605 C589 1.349 . S
C605 H597 0.950 . S
C605 C603 1.329 . S
C606 C594 1.349 . S
C606 H600 0.950 . S
C606 C607 1.327 . S
C607 H601 0.950 . S
C607 C606 1.327 . S
C607 C611 1.429 . S
C608 C591 1.574 . S
C608 H602 0.949 . S
C608 C612 1.368 . S
C609 C590 1.429 1_565 S
C609 C603 1.429 1_565 S
C609 C610 1.523 . S
C610 C591 1.368 . S
C610 C604 1.368 . S
C610 C609 1.523 . S
C611 C595 1.429 . S
C611 C607 1.429 . S
C611 C612 1.523 . S
C612 C596 1.368 . S
C612 C608 1.368 . S
C612 C611 1.523 . S
H613 C588 0.950 . S
H614 C590 0.950 . S
H615 C591 0.949 . S
H616 C593 0.950 . S
H617 C595 0.950 . S
C618 C619 1.349 . S
C618 C620 1.327 . S
C618 H643 0.950 . S
C619 C618 1.349 . S
C619 C635 1.349 . S
C620 C618 1.327 . S
C620 C639 1.429 . S
C620 H644 0.950 . S
C621 C638 1.574 . S
C621 C640 1.368 . S
C621 H645 0.949 . S
H622 C626 0.949 . S
C623 C624 1.349 . S
C623 C625 1.327 . S
C623 H646 0.950 . S
C624 C623 1.349 . S
C624 C636 1.349 . S
C625 C623 1.327 . S
C625 C641 1.429 . S
C625 H647 0.950 . S
C626 H622 0.949 . S
C626 C634 1.574 . S
C626 C642 1.368 . S
H627 C635 0.950 . S
H628 C633 0.950 . S
H629 C634 0.949 . S
H630 C636 0.950 . S
H631 C637 0.950 . S
H632 C638 0.949 . S
C633 H628 0.950 . S
C633 C635 1.327 . S
C633 C639 1.429 . S
C634 C626 1.574 . S
C634 H629 0.949 . S
C634 C640 1.368 . S
C635 C619 1.349 . S
C635 H627 0.950 . S
C635 C633 1.327 . S
C636 C624 1.349 . S
C636 H630 0.950 . S
C636 C637 1.327 . S
C637 H631 0.950 . S
C637 C636 1.327 . S
C637 C641 1.429 . S
C638 C621 1.574 . S
C638 H632 0.949 . S
C638 C642 1.368 . S
C639 C620 1.429 . S
C639 C633 1.429 . S
C639 C640 1.523 . S
C640 C621 1.368 . S
C640 C634 1.368 . S
C640 C639 1.523 . S
C641 C625 1.429 . S
C641 C637 1.429 . S
C641 C642 1.523 . S
C642 C626 1.368 . S
C642 C638 1.368 . S
C642 C641 1.523 . S
H643 C618 0.950 . S
H644 C620 0.950 . S
H645 C621 0.949 . S
H646 C623 0.950 . S
H647 C625 0.950 . S
C648 C649 1.349 . S
C648 C650 1.327 . S
C648 H673 0.950 . S
C649 C648 1.349 . S
C649 C665 1.349 . S
C650 C648 1.327 . S
C650 C669 1.429 . S
C650 H674 0.950 . S
C651 C668 1.574 . S
C651 C670 1.368 . S
C651 H675 0.949 . S
H652 C656 0.949 . S
C653 C654 1.349 . S
C653 C655 1.327 . S
C653 H676 0.950 . S
C654 C653 1.349 . S
C654 C666 1.349 . S
C655 C653 1.327 . S
C655 C671 1.429 1_655 S
C655 H677 0.950 . S
C656 H652 0.949 . S
C656 C664 1.574 . S
C656 C672 1.368 . S
H657 C665 0.950 . S
H658 C663 0.950 . S
H659 C664 0.949 . S
H660 C666 0.950 . S
H661 C667 0.950 . S
H662 C668 0.949 1_655 S
C663 H658 0.950 . S
C663 C665 1.327 . S
C663 C669 1.429 . S
C664 C656 1.574 . S
C664 H659 0.949 . S
C664 C670 1.368 . S
C665 C649 1.349 . S
C665 H657 0.950 . S
C665 C663 1.327 . S
C666 C654 1.349 . S
C666 H660 0.950 . S
C666 C667 1.327 1_655 S
C667 H661 0.950 . S
C667 C666 1.327 1_455 S
C667 C671 1.429 . S
C668 C651 1.574 . S
C668 H662 0.949 1_455 S
C668 C672 1.368 . S
C669 C650 1.429 . S
C669 C663 1.429 . S
C669 C670 1.523 . S
C670 C651 1.368 . S
C670 C664 1.368 . S
C670 C669 1.523 . S
C671 C655 1.429 1_455 S
C671 C667 1.429 . S
C671 C672 1.523 . S
C672 C656 1.368 . S
C672 C668 1.368 . S
C672 C671 1.523 . S
H673 C648 0.950 . S
H674 C650 0.950 . S
H675 C651 0.949 . S
H676 C653 0.950 . S
H677 C655 0.950 . S
C678 C679 1.349 . S
C678 C680 1.327 . S
C678 H703 0.950 . S
C679 C678 1.349 . S
C679 C695 1.349 . S
C680 C678 1.327 . S
C680 C699 1.429 . S
C680 H704 0.950 . S
C681 C698 1.574 . S
C681 C700 1.368 . S
C681 H705 0.949 . S
H682 C686 0.949 . S
C683 C684 1.349 . S
C683 C685 1.327 . S
C683 H706 0.950 . S
C684 C683 1.349 . S
C684 C696 1.349 . S
C685 C683 1.327 . S
C685 C701 1.429 1_565 S
C685 H707 0.950 . S
C686 H682 0.949 . S
C686 C694 1.574 . S
C686 C702 1.368 . S
H687 C695 0.950 . S
H688 C693 0.950 . S
H689 C694 0.949 . S
H690 C696 0.950 . S
H691 C697 0.950 . S
H692 C698 0.949 1_565 S
C693 H688 0.950 . S
C693 C695 1.327 . S
C693 C699 1.429 . S
C694 C686 1.574 . S
C694 H689 0.949 . S
C694 C700 1.368 . S
C695 C679 1.349 . S
C695 H687 0.950 . S
C695 C693 1.327 . S
C696 C684 1.349 . S
C696 H690 0.950 . S
C696 C697 1.327 1_565 S
C697 H691 0.950 . S
C697 C696 1.327 1_545 S
C697 C701 1.429 . S
C698 C681 1.574 . S
C698 H692 0.949 1_545 S
C698 C702 1.368 . S
C699 C680 1.429 . S
C699 C693 1.429 . S
C699 C700 1.523 . S
C700 C681 1.368 . S
C700 C694 1.368 . S
C700 C699 1.523 . S
C701 C685 1.429 1_545 S
C701 C697 1.429 . S
C701 C702 1.523 . S
C702 C686 1.368 . S
C702 C698 1.368 . S
C702 C701 1.523 . S
H703 C678 0.950 . S
H704 C680 0.950 . S
H705 C681 0.949 . S
H706 C683 0.950 . S
H707 C685 0.950 . S
C708 C709 1.349 . S
C708 C710 1.327 . S
C708 H733 0.950 . S
C709 C708 1.349 . S
C709 C725 1.349 . S
C710 C708 1.327 . S
C710 C729 1.429 . S
C710 H734 0.950 . S
C711 C728 1.574 . S
C711 C730 1.368 . S
C711 H735 0.949 . S
H712 C716 0.949 . S
C713 C714 1.349 . S
C713 C715 1.327 . S
C713 H736 0.950 . S
C714 C713 1.349 . S
C714 C726 1.349 . S
C715 C713 1.327 . S
C715 C731 1.429 . S
C715 H737 0.950 . S
C716 H712 0.949 . S
C716 C724 1.574 . S
C716 C732 1.368 . S
H717 C725 0.950 . S
H718 C723 0.950 . S
H719 C724 0.949 . S
H720 C726 0.950 . S
H721 C727 0.950 . S
H722 C728 0.949 . S
C723 H718 0.950 . S
C723 C725 1.327 . S
C723 C729 1.429 . S
C724 C716 1.574 . S
C724 H719 0.949 . S
C724 C730 1.368 . S
C725 C709 1.349 . S
C725 H717 0.950 . S
C725 C723 1.327 . S
C726 C714 1.349 . S
C726 H720 0.950 . S
C726 C727 1.327 . S
C727 H721 0.950 . S
C727 C726 1.327 . S
C727 C731 1.429 . S
C728 C711 1.574 . S
C728 H722 0.949 . S
C728 C732 1.368 . S
C729 C710 1.429 . S
C729 C723 1.429 . S
C729 C730 1.523 . S
C730 C711 1.368 . S
C730 C724 1.368 . S
C730 C729 1.523 . S
C731 C715 1.429 . S
C731 C727 1.429 . S
C731 C732 1.523 . S
C732 C716 1.368 . S
C732 C728 1.368 . S
C732 C731 1.523 . S
H733 C708 0.950 . S
H734 C710 0.950 . S
H735 C711 0.949 . S
H736 C713 0.950 . S
H737 C715 0.950 . S
C738 C739 1.349 . S
C738 C740 1.327 . S
C738 H763 0.950 . S
C739 C738 1.349 . S
C739 C755 1.349 . S
C740 C738 1.327 . S
C740 C759 1.429 . S
C740 H764 0.950 . S
C741 C758 1.574 . S
C741 C760 1.368 . S
C741 H765 0.949 . S
H742 C746 0.949 . S
C743 C744 1.349 . S
C743 C745 1.350 . S
C743 H766 0.950 . S
C744 C743 1.349 . S
C744 C756 1.349 . S
C745 C743 1.350 . S
C745 C761 1.437 1_455 S
C745 H767 0.918 1_455 S
C746 H742 0.949 . S
C746 C754 1.574 . S
C746 C762 1.368 . S
H747 C755 0.950 . S
H748 C753 0.950 . S
H749 C754 0.949 . S
H750 C756 0.950 . S
H751 C757 0.950 . S
H752 C758 0.949 1_554 S
C753 H748 0.950 . S
C753 C755 1.327 . S
C753 C759 1.429 . S
C754 C746 1.574 . S
C754 H749 0.949 . S
C754 C760 1.368 . S
C755 C739 1.349 . S
C755 H747 0.950 . S
C755 C753 1.327 . S
C756 C744 1.349 . S
C756 H750 0.950 . S
C756 C757 1.327 . S
C757 H751 0.950 . S
C757 C756 1.327 . S
C757 C761 1.429 1_455 S
C758 C741 1.574 . S
C758 H752 0.949 1_556 S
C758 C762 1.368 . S
C759 C740 1.429 . S
C759 C753 1.429 . S
C759 C760 1.523 . S
C760 C741 1.368 . S
C760 C754 1.368 . S
C760 C759 1.523 . S
C761 C745 1.437 1_655 S
C761 C757 1.429 1_655 S
C761 C762 1.523 1_554 S
C762 C746 1.368 . S
C762 C758 1.368 . S
C762 C761 1.523 1_556 S
H763 C738 0.950 . S
H764 C740 0.950 . S
H765 C741 0.949 . S
H766 C743 0.950 . S
H767 C745 0.918 1_655 S
C768 C769 1.349 . S
C768 C770 1.327 . S
C768 H793 0.950 . S
C769 C768 1.349 . S
C769 C785 1.349 . S
C770 C768 1.327 . S
C770 C789 1.429 . S
C770 H794 0.950 . S
C771 C788 1.574 . S
C771 C790 1.368 . S
C771 H795 0.949 . S
H772 C776 0.949 . S
C773 C774 1.349 . S
C773 C775 1.327 . S
C773 H796 0.950 . S
C774 C773 1.349 . S
C774 C786 1.349 . S
C775 C773 1.327 . S
C775 C791 1.429 1_545 S
C775 H797 0.950 . S
C776 H772 0.949 . S
C776 C784 1.574 . S
C776 C792 1.368 . S
H777 C785 0.950 . S
H778 C783 0.950 . S
H779 C784 0.949 . S
H780 C786 0.950 . S
H781 C787 0.950 . S
H782 C788 0.949 1_545 S
C783 H778 0.950 . S
C783 C785 1.327 . S
C783 C789 1.429 . S
C784 C776 1.574 . S
C784 H779 0.949 . S
C784 C790 1.368 . S
C785 C769 1.349 . S
C785 H777 0.950 . S
C785 C783 1.327 . S
C786 C774 1.349 . S
C786 H780 0.950 . S
C786 C787 1.327 1_545 S
C787 H781 0.950 . S
C787 C786 1.327 1_565 S
C787 C791 1.429 . S
C788 C771 1.574 . S
C788 H782 0.949 1_565 S
C788 C792 1.368 . S
C789 C770 1.429 . S
C789 C783 1.429 . S
C789 C790 1.523 . S
C790 C771 1.368 . S
C790 C784 1.368 . S
C790 C789 1.523 . S
C791 C775 1.429 1_565 S
C791 C787 1.429 . S
C791 C792 1.523 . S
C792 C776 1.368 . S
C792 C788 1.368 . S
C792 C791 1.523 . S
H793 C768 0.950 . S
H794 C770 0.950 . S
H795 C771 0.949 . S
H796 C773 0.950 . S
H797 C775 0.950 . S
C798 C799 1.349 . S
C798 C800 1.327 . S
C798 H823 0.950 . S
C799 C798 1.349 . S
C799 C815 1.349 . S
C800 C798 1.327 . S
C800 C819 1.429 . S
C800 H824 0.950 . S
C801 C818 1.574 . S
C801 C820 1.368 . S
C801 H825 0.949 . S
H802 C806 0.949 . S
C803 C804 1.349 . S
C803 C805 1.327 . S
C803 H826 0.950 . S
C804 C803 1.349 . S
C804 C816 1.349 . S
C805 C803 1.327 . S
C805 C821 1.429 . S
C805 H827 0.950 . S
C806 H802 0.949 . S
C806 C814 1.574 . S
C806 C822 1.368 . S
H807 C815 0.950 . S
H808 C813 0.950 . S
H809 C814 0.949 . S
H810 C816 0.950 . S
H811 C817 0.950 . S
H812 C818 0.949 . S
C813 H808 0.950 . S
C813 C815 1.327 . S
C813 C819 1.429 . S
C814 C806 1.574 . S
C814 H809 0.949 . S
C814 C820 1.368 . S
C815 C799 1.349 . S
C815 H807 0.950 . S
C815 C813 1.327 . S
C816 C804 1.349 . S
C816 H810 0.950 . S
C816 C817 1.327 . S
C817 H811 0.950 . S
C817 C816 1.327 . S
C817 C821 1.429 . S
C818 C801 1.574 . S
C818 H812 0.949 . S
C818 C822 1.368 . S
C819 C800 1.429 . S
C819 C813 1.429 . S
C819 C820 1.523 . S
C820 C801 1.368 . S
C820 C814 1.368 . S
C820 C819 1.523 . S
C821 C805 1.429 . S
C821 C817 1.429 . S
C821 C822 1.523 . S
C822 C806 1.368 . S
C822 C818 1.368 . S
C822 C821 1.523 . S
H823 C798 0.950 . S
H824 C800 0.950 . S
H825 C801 0.949 . S
H826 C803 0.950 . S
H827 C805 0.950 . S
C828 C829 1.349 . S
C828 C830 1.327 . S
C828 H853 0.950 . S
C829 C828 1.349 . S
C829 C845 1.349 . S
C830 C828 1.327 . S
C830 C849 1.429 . S
C830 H854 0.950 . S
C831 C848 1.574 . S
C831 C850 1.368 . S
C831 H855 0.949 . S
H832 C836 0.949 . S
C833 C834 1.349 . S
C833 C835 1.327 . S
C833 H856 0.950 . S
C834 C833 1.349 . S
C834 C846 1.349 . S
C835 C833 1.327 . S
C835 C851 1.429 1_655 S
C835 H857 0.950 . S
C836 H832 0.949 . S
C836 C844 1.574 . S
C836 C852 1.368 . S
H837 C845 0.950 . S
H838 C843 0.950 . S
H839 C844 0.949 . S
H840 C846 0.950 . S
H841 C847 0.953 . S
H842 C848 0.949 . S
C843 H838 0.950 . S
C843 C845 1.327 . S
C843 C849 1.429 . S
C844 C836 1.574 . S
C844 H839 0.949 . S
C844 C850 1.368 . S
C845 C829 1.349 . S
C845 H837 0.950 . S
C845 C843 1.327 . S
C846 C834 1.349 . S
C846 H840 0.950 . S
C846 C847 1.327 . S
C847 H841 0.953 . S
C847 C846 1.327 . S
C847 C851 1.429 1_655 S
C848 C831 1.574 . S
C848 H842 0.949 . S
C848 C852 1.368 . S
C849 C830 1.429 . S
C849 C843 1.429 . S
C849 C850 1.523 . S
C850 C831 1.368 . S
C850 C844 1.368 . S
C850 C849 1.523 . S
C851 C835 1.429 1_455 S
C851 C847 1.429 1_455 S
C851 C852 1.523 . S
C852 C836 1.368 . S
C852 C848 1.368 . S
C852 C851 1.523 . S
H853 C828 0.950 . S
H854 C830 0.950 . S
H855 C831 0.949 . S
H856 C833 0.950 . S
H857 C835 0.950 . S
C858 C859 1.349 . S
C858 C860 1.327 . S
C858 H883 0.950 . S
C859 C858 1.349 . S
C859 C875 1.349 . S
C860 C858 1.327 . S
C860 C879 1.429 1_565 S
C860 H884 0.950 . S
C861 C878 1.574 . S
C861 C880 1.368 . S
C861 H885 0.949 . S
H862 C866 0.949 . S
C863 C864 1.349 . S
C863 C865 1.327 . S
C863 H886 0.950 . S
C864 C863 1.349 . S
C864 C876 1.349 . S
C865 C863 1.327 . S
C865 C881 1.429 . S
C865 H887 0.950 . S
C866 H862 0.949 . S
C866 C874 1.574 . S
C866 C882 1.368 . S
H867 C875 0.950 . S
H868 C873 0.950 . S
H869 C874 0.949 1_565 S
H870 C876 0.950 . S
H871 C877 0.950 . S
H872 C878 0.949 . S
C873 H868 0.950 . S
C873 C875 1.327 1_545 S
C873 C879 1.429 . S
C874 C866 1.574 . S
C874 H869 0.949 1_545 S
C874 C880 1.368 . S
C875 C859 1.349 . S
C875 H867 0.950 . S
C875 C873 1.327 1_565 S
C876 C864 1.349 . S
C876 H870 0.950 . S
C876 C877 1.327 . S
C877 H871 0.950 . S
C877 C876 1.327 . S
C877 C881 1.429 . S
C878 C861 1.574 . S
C878 H872 0.949 . S
C878 C882 1.368 . S
C879 C860 1.429 1_545 S
C879 C873 1.429 . S
C879 C880 1.523 . S
C880 C861 1.368 . S
C880 C874 1.368 . S
C880 C879 1.523 . S
C881 C865 1.429 . S
C881 C877 1.429 . S
C881 C882 1.523 . S
C882 C866 1.368 . S
C882 C878 1.368 . S
C882 C881 1.523 . S
H883 C858 0.950 . S
H884 C860 0.950 . S
H885 C861 0.949 . S
H886 C863 0.950 . S
H887 C865 0.950 . S
C169 C120 1.234 . S
C174 C8 1.234 . S
C199 C22 1.234 . S
C204 C134 1.234 . S
C229 C36 1.235 . S
C234 C148 1.235 . S
C259 C50 1.234 . S
C264 C162 1.234 . S
C289 C92 1.234 . S
C294 C64 1.234 . S
C319 C78 1.235 . S
C324 C106 1.235 . S
C349 C135 0.807 . S
C354 C9 0.807 . S
C379 C23 0.808 . S
C384 C149 0.808 . S
C409 C163 0.808 . S
C414 C37 0.808 . S
C439 C51 0.807 . S
C444 C93 0.807 . S
C469 C107 0.808 . S
C474 C65 0.808 . S
C499 C121 0.808 . S
C504 C79 0.808 . S
C529 C3 1.382 . S
C534 C77 1.349 . S
C559 C17 1.382 . S
C564 C7 1.349 . S
C589 C21 1.349 . S
C594 C31 1.382 . S
C619 C45 1.382 . S
C624 C35 1.349 . S
C649 C59 1.382 . S
C654 C49 1.349 . S
C679 C73 1.382 . S
C684 C63 1.349 . S
C709 C87 1.382 . S
C714 C105 1.349 . S
C739 C101 1.382 . S
C744 C119 1.349 . S
C769 C115 1.382 . S
C774 C133 1.349 . S
C799 C129 1.382 . S
C804 C147 1.349 . S
C829 C143 1.382 . S
C834 C161 1.349 . S
C859 C91 1.349 . S
C864 C157 1.382 . S
