# Generated by pormake.
# Topology wkf, (6)-cn, num edge types: 1
# Building blocks:
#     Node 0, Type 0, BuildingBlock: OJICUG_clean_sbu_0, # of connection points: 6
#     Node 1, Type 0, BuildingBlock: OJICUG_clean_sbu_0, # of connection points: 6
#     Node 2, Type 0, BuildingBlock: OJICUG_clean_sbu_0, # of connection points: 6
#     Node 3, Type 0, BuildingBlock: OJICUG_clean_sbu_0, # of connection points: 6
#     Node 4, Type 0, BuildingBlock: OJICUG_clean_sbu_0, # of connection points: 6
#     Node 5, Type 0, BuildingBlock: OJICUG_clean_sbu_0, # of connection points: 6
#     Node 6, Type 0, BuildingBlock: OJICUG_clean_sbu_0, # of connection points: 6
#     Node 7, Type 0, BuildingBlock: OJICUG_clean_sbu_0, # of connection points: 6
#     Node 8, Type 0, BuildingBlock: OJICUG_clean_sbu_0, # of connection points: 6
#     Node 9, Type 0, BuildingBlock: OJICUG_clean_sbu_0, # of connection points: 6
#     Node 10, Type 0, BuildingBlock: OJICUG_clean_sbu_0, # of connection points: 6
#     Node 11, Type 0, BuildingBlock: OJICUG_clean_sbu_0, # of connection points: 6
#     Edge 12, Type (0, 0), None
#     Edge 13, Type (0, 0), None
#     Edge 14, Type (0, 0), None
#     Edge 15, Type (0, 0), None
#     Edge 16, Type (0, 0), None
#     Edge 17, Type (0, 0), None
#     Edge 18, Type (0, 0), None
#     Edge 19, Type (0, 0), None
#     Edge 20, Type (0, 0), None
#     Edge 21, Type (0, 0), None
#     Edge 22, Type (0, 0), None
#     Edge 23, Type (0, 0), None
#     Edge 24, Type (0, 0), None
#     Edge 25, Type (0, 0), None
#     Edge 26, Type (0, 0), None
#     Edge 27, Type (0, 0), None
#     Edge 28, Type (0, 0), None
#     Edge 29, Type (0, 0), None
#     Edge 30, Type (0, 0), None
#     Edge 31, Type (0, 0), None
#     Edge 32, Type (0, 0), None
#     Edge 33, Type (0, 0), None
#     Edge 34, Type (0, 0), None
#     Edge 35, Type (0, 0), None
#     Edge 36, Type (0, 0), None
#     Edge 37, Type (0, 0), None
#     Edge 38, Type (0, 0), None
#     Edge 39, Type (0, 0), None
#     Edge 40, Type (0, 0), None
#     Edge 41, Type (0, 0), None
#     Edge 42, Type (0, 0), None
#     Edge 43, Type (0, 0), None
#     Edge 44, Type (0, 0), None
#     Edge 45, Type (0, 0), None
#     Edge 46, Type (0, 0), None
#     Edge 47, Type (0, 0), None
# Relax obj value: 0.170
# Max RMSD: 0.210
# Mean RMSD: 0.210
data_MOF--net-wkf--node1-OJICUG_clean_sbu_0--edge1-none
_symmetry_space_group_name_H-M    P1
_symmetry_Int_Tables_number       1
_symmetry_cell_setting            triclinic
loop_
_symmetry_equiv_pos_as_xyz
'x, y, z'
_cell_length_a     14.248368
_cell_length_b     14.248748
_cell_length_c     36.022255
_cell_angle_alpha  90.000705
_cell_angle_beta   89.999603
_cell_angle_gamma 120.0023
loop_
_atom_site_label
_atom_site_type_symbol
_atom_site_fract_x
_atom_site_fract_y
_atom_site_fract_z
_atom_type_partial_charge
Sc0 Sc 0.49129 0.14165 0.32081 0.0
Sc1 Sc 0.24123 0.10881 0.34679 0.0
Sc2 Sc 0.38415 0.04456 0.40892 0.0
O3 O 0.37476 0.10028 0.35889 0.0
C4 C 0.49724 0.94338 0.35829 0.0
C5 C 0.26284 0.97482 0.28266 0.0
C6 C 0.14185 0.90563 0.40043 0.0
C7 C 0.41552 0.30435 0.2969 0.0
C8 C 0.6172 0.24282 0.39787 0.0
C9 C 0.29705 0.21518 0.4221 0.0
O10 O 0.51356 0.00766 0.33175 0.0
O11 O 0.20356 -0.01367 0.30649 0.0
O12 O 0.23004 0.90556 0.40229 0.0
O13 O 0.49174 0.28667 0.30458 0.0
O14 O 0.54037 0.1779 0.41862 0.0
O15 O 0.28327 0.22901 0.38822 0.0
O16 O 0.61337 0.23988 0.36224 0.0
O17 O 0.31814 0.23853 0.30612 0.0
O18 O 0.31632 0.1407 0.43349 0.0
O19 O 0.36618 0.03773 0.28015 0.0
O20 O 0.45103 0.94462 0.38849 0.0
O21 O 0.13535 -0.01621 0.38628 0.0
Sc22 Sc 0.32002 0.39392 0.57559 0.0
Sc23 Sc 0.11283 0.251 0.51346 0.0
Sc24 Sc 0.33008 0.50105 0.48748 0.0
O25 O 0.25491 0.38452 0.52556 0.0
C26 C 0.35481 0.62697 0.56454 0.0
C27 C 0.0623 0.30684 0.58877 0.0
C28 C 0.0916 0.42528 0.46357 0.0
C29 C 0.21665 0.15162 0.5671 0.0
C30 C 0.5343 0.50701 0.52496 0.0
C31 C 0.26845 0.27259 0.44934 0.0
O32 O 0.34291 0.55015 0.58529 0.0
O33 O 0.03469 0.29305 0.5549 0.0
O34 O 0.18551 0.5015 0.47124 0.0
O35 O 0.30492 0.23982 0.56897 0.0
O36 O 0.48633 0.52331 0.49842 0.0
O37 O 0.19764 0.21332 0.47317 0.0
O38 O 0.48685 0.46081 0.55517 0.0
O39 O 0.13199 0.14512 0.55295 0.0
O40 O 0.30887 0.37592 0.44682 0.0
O41 O 0.15605 0.3261 0.60016 0.0
O42 O 0.35393 0.62314 0.5289 0.0
O43 O 0.06003 0.3279 0.4728 0.0
Sc44 Sc 0.80946 0.33985 0.65415 0.0
Sc45 Sc 0.84227 0.12262 0.68013 0.0
Sc46 Sc 0.90654 0.3298 0.74226 0.0
O47 O 0.85082 0.26469 0.69223 0.0
C48 C 0.00773 0.54408 0.69163 0.0
C49 C -0.0237 0.27824 0.61601 0.0
C50 C 0.04545 0.22642 0.73377 0.0
C51 C 0.64676 0.10139 0.63023 0.0
C52 C 0.70828 0.36458 0.73121 0.0
C53 C 0.73589 0.07208 0.75544 0.0
O54 O 0.94345 0.4961 0.66509 0.0
O55 O 0.96477 0.20744 0.63984 0.0
O56 O 0.04554 0.3147 0.73563 0.0
O57 O 0.66443 0.19528 0.63791 0.0
O58 O 0.77319 0.35268 0.75196 0.0
O59 O 0.72206 0.04447 0.72156 0.0
O60 O 0.71122 0.3637 0.69557 0.0
O61 O 0.71257 0.06982 0.63945 0.0
O62 O 0.81039 0.16582 0.76683 0.0
O63 O 0.91337 0.31864 0.61349 0.0
O64 O 0.00648 0.49663 0.72183 0.0
O65 O 0.96728 0.14176 0.71963 0.0
Sc66 Sc 0.55717 0.91631 0.90892 0.0
Sc67 Sc 0.70009 0.85205 0.8468 0.0
Sc68 Sc 0.45003 0.81922 0.82081 0.0
O69 O 0.56656 0.86059 0.85889 0.0
C70 C 0.32412 0.71805 0.89787 0.0
C71 C 0.64425 0.74568 0.9221 0.0
C72 C 0.5258 0.65652 0.7969 0.0
C73 C 0.79946 0.05523 0.90044 0.0
C74 C 0.44408 0.0175 0.85829 0.0
C75 C 0.67849 -0.01393 0.78268 0.0
O76 O 0.40094 0.78296 0.91862 0.0
O77 O 0.65803 0.73185 0.88823 0.0
O78 O 0.44958 0.6742 0.80458 0.0
O79 O 0.71127 0.05531 0.90229 0.0
O80 O 0.42777 0.95321 0.83175 0.0
O81 O 0.73777 0.97454 0.8065 0.0
O82 O 0.49028 0.01625 0.8885 0.0
O83 O 0.80596 0.97707 0.88629 0.0
O84 O 0.57516 0.92314 0.78015 0.0
O85 O 0.625 0.82016 0.93349 0.0
O86 O 0.32794 0.72099 0.86224 0.0
O87 O 0.62318 0.72234 0.80612 0.0
Sc88 Sc 0.61123 0.45982 0.98748 0.0
Sc89 Sc 0.82848 0.70987 0.01347 0.0
Sc90 Sc 0.62129 0.56694 0.07559 0.0
O91 O 0.6864 0.57634 0.02556 0.0
C92 C 0.40701 0.45386 0.02496 0.0
C93 C 0.67285 0.68827 0.94935 0.0
C94 C 0.72467 0.80924 0.0671 0.0
C95 C 0.84971 0.53558 0.96357 0.0
C96 C 0.5865 0.3339 0.06454 0.0
C97 C 0.87901 0.65402 0.08877 0.0
O98 O 0.45498 0.43755 -0.00158 0.0
O99 O 0.74367 0.74754 0.97317 0.0
O100 O 0.6364 0.72105 0.06897 0.0
O101 O 0.7558 0.45936 0.97124 0.0
O102 O 0.5984 0.41072 0.08529 0.0
O103 O 0.90662 0.66782 0.0549 0.0
O104 O 0.58738 0.33773 0.0289 0.0
O105 O 0.88128 0.63296 0.97279 0.0
O106 O 0.78526 0.63477 0.10016 0.0
O107 O 0.63244 0.58494 0.94682 0.0
O108 O 0.45446 0.50006 0.05517 0.0
O109 O 0.80933 0.81574 0.05296 0.0
Sc110 Sc 0.03478 0.63108 0.24226 0.0
Sc111 Sc 0.09905 0.83825 0.18013 0.0
Sc112 Sc 0.13186 0.62102 0.15415 0.0
O113 O 0.0905 0.69618 0.19223 0.0
C114 C 0.23303 0.59628 0.23121 0.0
C115 C 0.20547 0.88878 0.25543 0.0
C116 C 0.29455 0.85948 0.13023 0.0
C117 C 0.89587 0.73446 0.23377 0.0
C118 C 0.93358 0.41679 0.19163 0.0
C119 C 0.96501 0.68263 0.11601 0.0
O120 O 0.16812 0.6082 0.25196 0.0
O121 O 0.21926 0.9164 0.22155 0.0
O122 O 0.27688 0.76559 0.13791 0.0
O123 O 0.89578 0.64618 0.23563 0.0
O124 O -0.00214 0.46477 0.16509 0.0
O125 O -0.02346 0.75342 0.13984 0.0
O126 O 0.93483 0.46425 0.22183 0.0
O127 O -0.02596 0.81912 0.21963 0.0
O128 O 0.02794 0.64223 0.11349 0.0
O129 O 0.13094 0.79506 0.26683 0.0
O130 O 0.23009 0.59716 0.19557 0.0
O131 O 0.22874 0.89104 0.13945 0.0
Sc132 Sc 0.80943 0.45981 0.49339 0.0
Sc133 Sc 0.84227 0.70988 0.4674 0.0
Sc134 Sc 0.90655 0.56696 0.40528 0.0
O135 O 0.85081 0.57635 0.45531 0.0
C136 C 0.0077 0.45385 0.45591 0.0
C137 C -0.02373 0.68826 0.53153 0.0
C138 C 0.04546 0.80925 0.41376 0.0
C139 C 0.64679 0.5356 0.51732 0.0
C140 C 0.70831 0.3339 0.41632 0.0
C141 C 0.73591 0.65405 0.39209 0.0
O142 O 0.94341 0.43754 0.48244 0.0
O143 O 0.96476 0.74754 0.5077 0.0
O144 O 0.04555 0.72106 0.41191 0.0
O145 O 0.66442 0.45936 0.50963 0.0
O146 O 0.77321 0.41073 0.39558 0.0
O147 O 0.72209 0.66784 0.42597 0.0
O148 O 0.7112 0.33774 0.45196 0.0
O149 O 0.71254 0.63297 0.50807 0.0
O150 O 0.81039 0.63478 0.3807 0.0
O151 O 0.91336 0.58493 0.53404 0.0
O152 O 0.0065 0.50009 0.42571 0.0
O153 O 0.96731 0.81576 0.42791 0.0
Sc154 Sc 0.32001 0.91631 0.57194 0.0
Sc155 Sc 0.11282 0.85204 0.63407 0.0
Sc156 Sc 0.33006 0.81922 0.66005 0.0
O157 O 0.25489 0.86059 0.62197 0.0
C158 C 0.35484 0.71808 0.58299 0.0
C159 C 0.06231 0.74564 0.55876 0.0
C160 C 0.09162 0.65657 0.68398 0.0
C161 C 0.21664 0.05523 0.58043 0.0
C162 C 0.53429 0.01748 0.62257 0.0
C163 C 0.26845 -0.01395 0.6982 0.0
O164 O 0.34292 0.78298 0.56224 0.0
O165 O 0.03467 0.73186 0.59264 0.0
O166 O 0.1855 0.67421 0.67629 0.0
O167 O 0.30491 0.05531 0.57857 0.0
O168 O 0.48631 0.95319 0.6491 0.0
O169 O 0.19764 0.97453 0.67437 0.0
O170 O 0.48684 0.01628 0.59237 0.0
O171 O 0.13198 0.97708 0.59459 0.0
O172 O 0.30888 0.92315 0.70071 0.0
O173 O 0.15603 0.82015 0.54737 0.0
O174 O 0.3539 0.72098 0.61862 0.0
O175 O 0.06 0.72231 0.67474 0.0
Sc176 Sc 0.49128 0.33983 0.82672 0.0
Sc177 Sc 0.2412 0.12259 0.80074 0.0
Sc178 Sc 0.38414 0.32978 0.73861 0.0
O179 O 0.37474 0.26466 0.78864 0.0
C180 C 0.49724 0.54406 0.78925 0.0
C181 C 0.26283 0.27822 0.86487 0.0
C182 C 0.14183 0.22641 0.7471 0.0
C183 C 0.41548 0.10139 0.85065 0.0
C184 C 0.6172 0.36462 0.74966 0.0
C185 C 0.2971 0.07208 0.72543 0.0
O186 O 0.51355 0.49608 0.81577 0.0
O187 O 0.20354 0.20741 0.84104 0.0
O188 O 0.23003 0.31468 0.74524 0.0
O189 O 0.49172 0.19527 0.84296 0.0
O190 O 0.54037 0.35269 0.72891 0.0
O191 O 0.28323 0.04444 0.75931 0.0
O192 O 0.61336 0.36367 0.7853 0.0
O193 O 0.31811 0.06976 0.8414 0.0
O194 O 0.31632 0.16581 0.71404 0.0
O195 O 0.36616 0.31865 0.86738 0.0
O196 O 0.451 0.49661 0.75904 0.0
O197 O 0.13532 0.14175 0.76125 0.0
Sc198 Sc 0.03477 0.3939 0.90528 0.0
Sc199 Sc 0.09904 0.25099 0.96741 0.0
Sc200 Sc 0.13188 0.50106 -0.00661 0.0
O201 O 0.09051 0.38452 0.95531 0.0
C202 C 0.23301 0.62697 0.91632 0.0
C203 C 0.20545 0.30688 0.8921 0.0
C204 C 0.29452 0.42527 0.01732 0.0
C205 C 0.89585 0.15161 0.91376 0.0
C206 C 0.93361 0.50701 0.95591 0.0
C207 C 0.96504 0.27261 0.03153 0.0
O208 O 0.16811 0.55014 0.89557 0.0
O209 O 0.21923 0.29303 0.92598 0.0
O210 O 0.27689 0.50151 0.00962 0.0
O211 O 0.89577 0.2398 0.91191 0.0
O212 O -0.0021 0.52333 0.98244 0.0
O213 O -0.02345 0.21333 0.0077 0.0
O214 O 0.93481 0.46077 0.92571 0.0
O215 O -0.02599 0.14511 0.92792 0.0
O216 O 0.02795 0.37594 0.03404 0.0
O217 O 0.13094 0.32609 0.88071 0.0
O218 O 0.23011 0.62313 0.95196 0.0
O219 O 0.22876 0.3279 0.00808 0.0
Sc220 Sc 0.61125 0.14165 0.16005 0.0
Sc221 Sc 0.82849 0.10883 0.13407 0.0
Sc222 Sc 0.6213 0.04456 0.07194 0.0
O223 O 0.68642 0.10029 0.12197 0.0
C224 C 0.40702 0.94338 0.12257 0.0
C225 C 0.67286 0.97482 0.19819 0.0
C226 C 0.72467 0.90564 0.08043 0.0
C227 C 0.84969 0.30431 0.18399 0.0
C228 C 0.58647 0.24279 0.08299 0.0
C229 C 0.879 0.21524 0.05877 0.0
O230 O 0.455 0.00768 0.1491 0.0
O231 O 0.74367 -0.01366 0.17437 0.0
O232 O 0.63641 0.90556 0.07857 0.0
O233 O 0.75581 0.28666 0.17629 0.0
O234 O 0.59839 0.17789 0.06224 0.0
O235 O 0.90665 0.22901 0.09264 0.0
O236 O 0.58741 0.23989 0.11862 0.0
O237 O 0.88131 0.23856 0.17474 0.0
O238 O 0.78528 0.14072 0.04737 0.0
O239 O 0.63243 0.03772 0.20071 0.0
O240 O 0.45447 0.94459 0.09237 0.0
O241 O 0.80933 -0.01621 0.09458 0.0
Sc242 Sc 0.55718 0.63109 0.23861 0.0
Sc243 Sc 0.70012 0.83829 0.30073 0.0
Sc244 Sc 0.45005 0.62104 0.32672 0.0
O245 O 0.56658 0.69621 0.28864 0.0
C246 C 0.32411 0.59625 0.24966 0.0
C247 C 0.6442 0.88878 0.22543 0.0
C248 C 0.52584 0.85949 0.35065 0.0
C249 C 0.79948 0.73447 0.2471 0.0
C250 C 0.44409 0.41682 0.28924 0.0
C251 C 0.67851 0.68266 0.36485 0.0
O252 O 0.40094 0.60818 0.22891 0.0
O253 O 0.65807 0.91643 0.2593 0.0
O254 O 0.4496 0.76561 0.34296 0.0
O255 O 0.71128 0.6462 0.24523 0.0
O256 O 0.42778 0.4648 0.31577 0.0
O257 O 0.73779 0.75347 0.34103 0.0
O258 O 0.49032 0.46426 0.25904 0.0
O259 O 0.80599 0.81913 0.26124 0.0
O260 O 0.57518 0.64225 0.36737 0.0
O261 O 0.62499 0.79506 0.21404 0.0
O262 O 0.32796 0.59719 0.2853 0.0
O263 O 0.62321 0.89111 0.3414 0.0
loop_
_geom_bond_atom_site_label_1
_geom_bond_atom_site_label_2
_geom_bond_distance
_geom_bond_site_symmetry_2
_ccdc_geom_bond_type
Sc0 O3 2.025 . S
Sc0 O10 2.105 . S
Sc0 O13 2.105 . S
Sc0 O16 2.105 . S
Sc0 O19 2.105 . S
Sc1 O3 2.025 . S
Sc1 O11 2.105 . S
Sc1 O15 2.105 . S
Sc1 O17 2.105 . S
Sc1 O21 2.105 1_545 S
Sc2 O3 2.025 . S
Sc2 O12 2.105 1_545 S
Sc2 O14 2.105 . S
Sc2 O18 2.105 . S
Sc2 O20 2.105 1_545 S
O3 Sc0 2.025 . S
O3 Sc1 2.025 . S
O3 Sc2 2.025 . S
C4 O10 1.268 1_565 S
C4 O20 1.268 . S
C5 O11 1.268 . S
C5 O19 1.268 . S
C6 O12 1.268 . S
C6 O21 1.268 . S
C7 O13 1.268 . S
C7 O17 1.268 . S
C8 O14 1.268 . S
C8 O16 1.268 . S
C9 O15 1.268 . S
C9 O18 1.268 . S
O10 Sc0 2.105 . S
O10 C4 1.268 1_545 S
O11 Sc1 2.105 . S
O11 C5 1.268 . S
O12 Sc2 2.105 1_565 S
O12 C6 1.268 . S
O13 Sc0 2.105 . S
O13 C7 1.268 . S
O14 Sc2 2.105 . S
O14 C8 1.268 . S
O15 Sc1 2.105 . S
O15 C9 1.268 . S
O16 Sc0 2.105 . S
O16 C8 1.268 . S
O17 Sc1 2.105 . S
O17 C7 1.268 . S
O18 Sc2 2.105 . S
O18 C9 1.268 . S
O19 Sc0 2.105 . S
O19 C5 1.268 . S
O20 Sc2 2.105 1_565 S
O20 C4 1.268 . S
O21 Sc1 2.105 1_565 S
O21 C6 1.268 . S
Sc22 O25 2.025 . S
Sc22 O32 2.105 . S
Sc22 O35 2.105 . S
Sc22 O38 2.105 . S
Sc22 O41 2.105 . S
Sc23 O25 2.025 . S
Sc23 O33 2.105 . S
Sc23 O37 2.105 . S
Sc23 O39 2.105 . S
Sc23 O43 2.105 . S
Sc24 O25 2.025 . S
Sc24 O34 2.105 . S
Sc24 O36 2.105 . S
Sc24 O40 2.105 . S
Sc24 O42 2.105 . S
O25 Sc22 2.025 . S
O25 Sc23 2.025 . S
O25 Sc24 2.025 . S
C26 O32 1.268 . S
C26 O42 1.268 . S
C27 O33 1.268 . S
C27 O41 1.268 . S
C28 O34 1.268 . S
C28 O43 1.268 . S
C29 O35 1.268 . S
C29 O39 1.268 . S
C30 O36 1.268 . S
C30 O38 1.268 . S
C31 O37 1.268 . S
C31 O40 1.268 . S
O32 Sc22 2.105 . S
O32 C26 1.268 . S
O33 Sc23 2.105 . S
O33 C27 1.268 . S
O34 Sc24 2.105 . S
O34 C28 1.268 . S
O35 Sc22 2.105 . S
O35 C29 1.268 . S
O36 Sc24 2.105 . S
O36 C30 1.268 . S
O37 Sc23 2.105 . S
O37 C31 1.268 . S
O38 Sc22 2.105 . S
O38 C30 1.268 . S
O39 Sc23 2.105 . S
O39 C29 1.268 . S
O40 Sc24 2.105 . S
O40 C31 1.268 . S
O41 Sc22 2.105 . S
O41 C27 1.268 . S
O42 Sc24 2.105 . S
O42 C26 1.268 . S
O43 Sc23 2.105 . S
O43 C28 1.268 . S
Sc44 O47 2.025 . S
Sc44 O54 2.105 . S
Sc44 O57 2.105 . S
Sc44 O60 2.105 . S
Sc44 O63 2.105 . S
Sc45 O47 2.025 . S
Sc45 O55 2.105 . S
Sc45 O59 2.105 . S
Sc45 O61 2.105 . S
Sc45 O65 2.105 1_655 S
Sc46 O47 2.025 . S
Sc46 O56 2.105 1_655 S
Sc46 O58 2.105 . S
Sc46 O62 2.105 . S
Sc46 O64 2.105 1_655 S
O47 Sc44 2.025 . S
O47 Sc45 2.025 . S
O47 Sc46 2.025 . S
C48 O54 1.268 1_455 S
C48 O64 1.268 . S
C49 O55 1.268 . S
C49 O63 1.268 . S
C50 O56 1.268 . S
C50 O65 1.268 . S
C51 O57 1.268 . S
C51 O61 1.268 . S
C52 O58 1.268 . S
C52 O60 1.268 . S
C53 O59 1.268 . S
C53 O62 1.268 . S
O54 Sc44 2.105 . S
O54 C48 1.268 1_655 S
O55 Sc45 2.105 . S
O55 C49 1.268 . S
O56 Sc46 2.105 1_455 S
O56 C50 1.268 . S
O57 Sc44 2.105 . S
O57 C51 1.268 . S
O58 Sc46 2.105 . S
O58 C52 1.268 . S
O59 Sc45 2.105 . S
O59 C53 1.268 . S
O60 Sc44 2.105 . S
O60 C52 1.268 . S
O61 Sc45 2.105 . S
O61 C51 1.268 . S
O62 Sc46 2.105 . S
O62 C53 1.268 . S
O63 Sc44 2.105 . S
O63 C49 1.268 . S
O64 Sc46 2.105 1_455 S
O64 C48 1.268 . S
O65 Sc45 2.105 1_455 S
O65 C50 1.268 . S
Sc66 O69 2.025 . S
Sc66 O76 2.105 . S
Sc66 O79 2.105 1_565 S
Sc66 O82 2.105 1_565 S
Sc66 O85 2.105 . S
Sc67 O69 2.025 . S
Sc67 O77 2.105 . S
Sc67 O81 2.105 . S
Sc67 O83 2.105 1_565 S
Sc67 O87 2.105 . S
Sc68 O69 2.025 . S
Sc68 O78 2.105 . S
Sc68 O80 2.105 . S
Sc68 O84 2.105 . S
Sc68 O86 2.105 . S
O69 Sc66 2.025 . S
O69 Sc67 2.025 . S
O69 Sc68 2.025 . S
C70 O76 1.268 . S
C70 O86 1.268 . S
C71 O77 1.268 . S
C71 O85 1.268 . S
C72 O78 1.268 . S
C72 O87 1.268 . S
C73 O79 1.268 . S
C73 O83 1.268 . S
C74 O80 1.268 1_545 S
C74 O82 1.268 . S
C75 O81 1.268 . S
C75 O84 1.268 . S
O76 Sc66 2.105 . S
O76 C70 1.268 . S
O77 Sc67 2.105 . S
O77 C71 1.268 . S
O78 Sc68 2.105 . S
O78 C72 1.268 . S
O79 Sc66 2.105 1_545 S
O79 C73 1.268 . S
O80 Sc68 2.105 . S
O80 C74 1.268 1_565 S
O81 Sc67 2.105 . S
O81 C75 1.268 . S
O82 Sc66 2.105 1_545 S
O82 C74 1.268 . S
O83 Sc67 2.105 1_545 S
O83 C73 1.268 . S
O84 Sc68 2.105 . S
O84 C75 1.268 . S
O85 Sc66 2.105 . S
O85 C71 1.268 . S
O86 Sc68 2.105 . S
O86 C70 1.268 . S
O87 Sc67 2.105 . S
O87 C72 1.268 . S
Sc88 O91 2.025 1_556 S
Sc88 O98 2.105 1_556 S
Sc88 O101 2.105 . S
Sc88 O104 2.105 1_556 S
Sc88 O107 2.105 . S
Sc89 O91 2.025 . S
Sc89 O99 2.105 1_554 S
Sc89 O103 2.105 . S
Sc89 O105 2.105 . S
Sc89 O109 2.105 . S
Sc90 O91 2.025 . S
Sc90 O100 2.105 . S
Sc90 O102 2.105 . S
Sc90 O106 2.105 . S
Sc90 O108 2.105 . S
O91 Sc88 2.025 1_554 S
O91 Sc89 2.025 . S
O91 Sc90 2.025 . S
C92 O98 1.268 . S
C92 O108 1.268 . S
C93 O99 1.268 . S
C93 O107 1.268 . S
C94 O100 1.268 . S
C94 O109 1.268 . S
C95 O101 1.268 . S
C95 O105 1.268 1_556 S
C96 O102 1.268 . S
C96 O104 1.268 . S
C97 O103 1.268 . S
C97 O106 1.268 . S
O98 Sc88 2.105 1_554 S
O98 C92 1.268 . S
O99 Sc89 2.105 1_556 S
O99 C93 1.268 . S
O100 Sc90 2.105 . S
O100 C94 1.268 . S
O101 Sc88 2.105 . S
O101 C95 1.268 . S
O102 Sc90 2.105 . S
O102 C96 1.268 . S
O103 Sc89 2.105 . S
O103 C97 1.268 . S
O104 Sc88 2.105 1_554 S
O104 C96 1.268 . S
O105 Sc89 2.105 . S
O105 C95 1.268 1_554 S
O106 Sc90 2.105 . S
O106 C97 1.268 . S
O107 Sc88 2.105 . S
O107 C93 1.268 . S
O108 Sc90 2.105 . S
O108 C92 1.268 . S
O109 Sc89 2.105 . S
O109 C94 1.268 . S
Sc110 O113 2.025 . S
Sc110 O120 2.105 . S
Sc110 O123 2.105 1_455 S
Sc110 O126 2.105 1_455 S
Sc110 O129 2.105 . S
Sc111 O113 2.025 . S
Sc111 O121 2.105 . S
Sc111 O125 2.105 . S
Sc111 O127 2.105 1_455 S
Sc111 O131 2.105 . S
Sc112 O113 2.025 . S
Sc112 O122 2.105 . S
Sc112 O124 2.105 . S
Sc112 O128 2.105 . S
Sc112 O130 2.105 . S
O113 Sc110 2.025 . S
O113 Sc111 2.025 . S
O113 Sc112 2.025 . S
C114 O120 1.268 . S
C114 O130 1.268 . S
C115 O121 1.268 . S
C115 O129 1.268 . S
C116 O122 1.268 . S
C116 O131 1.268 . S
C117 O123 1.268 . S
C117 O127 1.268 . S
C118 O124 1.268 1_655 S
C118 O126 1.268 . S
C119 O125 1.268 . S
C119 O128 1.268 . S
O120 Sc110 2.105 . S
O120 C114 1.268 . S
O121 Sc111 2.105 . S
O121 C115 1.268 . S
O122 Sc112 2.105 . S
O122 C116 1.268 . S
O123 Sc110 2.105 1_655 S
O123 C117 1.268 . S
O124 Sc112 2.105 . S
O124 C118 1.268 1_455 S
O125 Sc111 2.105 . S
O125 C119 1.268 . S
O126 Sc110 2.105 1_655 S
O126 C118 1.268 . S
O127 Sc111 2.105 1_655 S
O127 C117 1.268 . S
O128 Sc112 2.105 . S
O128 C119 1.268 . S
O129 Sc110 2.105 . S
O129 C115 1.268 . S
O130 Sc112 2.105 . S
O130 C114 1.268 . S
O131 Sc111 2.105 . S
O131 C116 1.268 . S
Sc132 O135 2.025 . S
Sc132 O142 2.105 . S
Sc132 O145 2.105 . S
Sc132 O148 2.105 . S
Sc132 O151 2.105 . S
Sc133 O135 2.025 . S
Sc133 O143 2.105 . S
Sc133 O147 2.105 . S
Sc133 O149 2.105 . S
Sc133 O153 2.105 1_655 S
Sc134 O135 2.025 . S
Sc134 O144 2.105 1_655 S
Sc134 O146 2.105 . S
Sc134 O150 2.105 . S
Sc134 O152 2.105 1_655 S
O135 Sc132 2.025 . S
O135 Sc133 2.025 . S
O135 Sc134 2.025 . S
C136 O142 1.268 1_455 S
C136 O152 1.268 . S
C137 O143 1.268 . S
C137 O151 1.268 . S
C138 O144 1.268 . S
C138 O153 1.268 . S
C139 O145 1.268 . S
C139 O149 1.268 . S
C140 O146 1.268 . S
C140 O148 1.268 . S
C141 O147 1.268 . S
C141 O150 1.268 . S
O142 Sc132 2.105 . S
O142 C136 1.268 1_655 S
O143 Sc133 2.105 . S
O143 C137 1.268 . S
O144 Sc134 2.105 1_455 S
O144 C138 1.268 . S
O145 Sc132 2.105 . S
O145 C139 1.268 . S
O146 Sc134 2.105 . S
O146 C140 1.268 . S
O147 Sc133 2.105 . S
O147 C141 1.268 . S
O148 Sc132 2.105 . S
O148 C140 1.268 . S
O149 Sc133 2.105 . S
O149 C139 1.268 . S
O150 Sc134 2.105 . S
O150 C141 1.268 . S
O151 Sc132 2.105 . S
O151 C137 1.268 . S
O152 Sc134 2.105 1_455 S
O152 C136 1.268 . S
O153 Sc133 2.105 1_455 S
O153 C138 1.268 . S
Sc154 O157 2.025 . S
Sc154 O164 2.105 . S
Sc154 O167 2.105 1_565 S
Sc154 O170 2.105 1_565 S
Sc154 O173 2.105 . S
Sc155 O157 2.025 . S
Sc155 O165 2.105 . S
Sc155 O169 2.105 . S
Sc155 O171 2.105 1_565 S
Sc155 O175 2.105 . S
Sc156 O157 2.025 . S
Sc156 O166 2.105 . S
Sc156 O168 2.105 . S
Sc156 O172 2.105 . S
Sc156 O174 2.105 . S
O157 Sc154 2.025 . S
O157 Sc155 2.025 . S
O157 Sc156 2.025 . S
C158 O164 1.268 . S
C158 O174 1.268 . S
C159 O165 1.268 . S
C159 O173 1.268 . S
C160 O166 1.268 . S
C160 O175 1.268 . S
C161 O167 1.268 . S
C161 O171 1.268 . S
C162 O168 1.268 1_545 S
C162 O170 1.268 . S
C163 O169 1.268 . S
C163 O172 1.268 . S
O164 Sc154 2.105 . S
O164 C158 1.268 . S
O165 Sc155 2.105 . S
O165 C159 1.268 . S
O166 Sc156 2.105 . S
O166 C160 1.268 . S
O167 Sc154 2.105 1_545 S
O167 C161 1.268 . S
O168 Sc156 2.105 . S
O168 C162 1.268 1_565 S
O169 Sc155 2.105 . S
O169 C163 1.268 . S
O170 Sc154 2.105 1_545 S
O170 C162 1.268 . S
O171 Sc155 2.105 1_545 S
O171 C161 1.268 . S
O172 Sc156 2.105 . S
O172 C163 1.268 . S
O173 Sc154 2.105 . S
O173 C159 1.268 . S
O174 Sc156 2.105 . S
O174 C158 1.268 . S
O175 Sc155 2.105 . S
O175 C160 1.268 . S
Sc176 O179 2.025 . S
Sc176 O186 2.105 . S
Sc176 O189 2.105 . S
Sc176 O192 2.105 . S
Sc176 O195 2.105 . S
Sc177 O179 2.025 . S
Sc177 O187 2.105 . S
Sc177 O191 2.105 . S
Sc177 O193 2.105 . S
Sc177 O197 2.105 . S
Sc178 O179 2.025 . S
Sc178 O188 2.105 . S
Sc178 O190 2.105 . S
Sc178 O194 2.105 . S
Sc178 O196 2.105 . S
O179 Sc176 2.025 . S
O179 Sc177 2.025 . S
O179 Sc178 2.025 . S
C180 O186 1.268 . S
C180 O196 1.268 . S
C181 O187 1.268 . S
C181 O195 1.268 . S
C182 O188 1.268 . S
C182 O197 1.268 . S
C183 O189 1.268 . S
C183 O193 1.268 . S
C184 O190 1.268 . S
C184 O192 1.268 . S
C185 O191 1.268 . S
C185 O194 1.268 . S
O186 Sc176 2.105 . S
O186 C180 1.268 . S
O187 Sc177 2.105 . S
O187 C181 1.268 . S
O188 Sc178 2.105 . S
O188 C182 1.268 . S
O189 Sc176 2.105 . S
O189 C183 1.268 . S
O190 Sc178 2.105 . S
O190 C184 1.268 . S
O191 Sc177 2.105 . S
O191 C185 1.268 . S
O192 Sc176 2.105 . S
O192 C184 1.268 . S
O193 Sc177 2.105 . S
O193 C183 1.268 . S
O194 Sc178 2.105 . S
O194 C185 1.268 . S
O195 Sc176 2.105 . S
O195 C181 1.268 . S
O196 Sc178 2.105 . S
O196 C180 1.268 . S
O197 Sc177 2.105 . S
O197 C182 1.268 . S
Sc198 O201 2.025 . S
Sc198 O208 2.105 . S
Sc198 O211 2.105 1_455 S
Sc198 O214 2.105 1_455 S
Sc198 O217 2.105 . S
Sc199 O201 2.025 . S
Sc199 O209 2.105 . S
Sc199 O213 2.105 1_556 S
Sc199 O215 2.105 1_455 S
Sc199 O219 2.105 . S
Sc200 O201 2.025 1_554 S
Sc200 O210 2.105 . S
Sc200 O212 2.105 1_554 S
Sc200 O216 2.105 . S
Sc200 O218 2.105 1_554 S
O201 Sc198 2.025 . S
O201 Sc199 2.025 . S
O201 Sc200 2.025 1_556 S
C202 O208 1.268 . S
C202 O218 1.268 . S
C203 O209 1.268 . S
C203 O217 1.268 . S
C204 O210 1.268 . S
C204 O219 1.268 1_554 S
C205 O211 1.268 . S
C205 O215 1.268 . S
C206 O212 1.268 1_655 S
C206 O214 1.268 . S
C207 O213 1.268 . S
C207 O216 1.268 . S
O208 Sc198 2.105 . S
O208 C202 1.268 . S
O209 Sc199 2.105 . S
O209 C203 1.268 . S
O210 Sc200 2.105 . S
O210 C204 1.268 . S
O211 Sc198 2.105 1_655 S
O211 C205 1.268 . S
O212 Sc200 2.105 1_556 S
O212 C206 1.268 1_455 S
O213 Sc199 2.105 1_554 S
O213 C207 1.268 . S
O214 Sc198 2.105 1_655 S
O214 C206 1.268 . S
O215 Sc199 2.105 1_655 S
O215 C205 1.268 . S
O216 Sc200 2.105 . S
O216 C207 1.268 . S
O217 Sc198 2.105 . S
O217 C203 1.268 . S
O218 Sc200 2.105 1_556 S
O218 C202 1.268 . S
O219 Sc199 2.105 . S
O219 C204 1.268 1_556 S
Sc220 O223 2.025 . S
Sc220 O230 2.105 . S
Sc220 O233 2.105 . S
Sc220 O236 2.105 . S
Sc220 O239 2.105 . S
Sc221 O223 2.025 . S
Sc221 O231 2.105 . S
Sc221 O235 2.105 . S
Sc221 O237 2.105 . S
Sc221 O241 2.105 1_545 S
Sc222 O223 2.025 . S
Sc222 O232 2.105 1_545 S
Sc222 O234 2.105 . S
Sc222 O238 2.105 . S
Sc222 O240 2.105 1_545 S
O223 Sc220 2.025 . S
O223 Sc221 2.025 . S
O223 Sc222 2.025 . S
C224 O230 1.268 1_565 S
C224 O240 1.268 . S
C225 O231 1.268 . S
C225 O239 1.268 . S
C226 O232 1.268 . S
C226 O241 1.268 . S
C227 O233 1.268 . S
C227 O237 1.268 . S
C228 O234 1.268 . S
C228 O236 1.268 . S
C229 O235 1.268 . S
C229 O238 1.268 . S
O230 Sc220 2.105 . S
O230 C224 1.268 1_545 S
O231 Sc221 2.105 . S
O231 C225 1.268 . S
O232 Sc222 2.105 1_565 S
O232 C226 1.268 . S
O233 Sc220 2.105 . S
O233 C227 1.268 . S
O234 Sc222 2.105 . S
O234 C228 1.268 . S
O235 Sc221 2.105 . S
O235 C229 1.268 . S
O236 Sc220 2.105 . S
O236 C228 1.268 . S
O237 Sc221 2.105 . S
O237 C227 1.268 . S
O238 Sc222 2.105 . S
O238 C229 1.268 . S
O239 Sc220 2.105 . S
O239 C225 1.268 . S
O240 Sc222 2.105 1_565 S
O240 C224 1.268 . S
O241 Sc221 2.105 1_565 S
O241 C226 1.268 . S
Sc242 O245 2.025 . S
Sc242 O252 2.105 . S
Sc242 O255 2.105 . S
Sc242 O258 2.105 . S
Sc242 O261 2.105 . S
Sc243 O245 2.025 . S
Sc243 O253 2.105 . S
Sc243 O257 2.105 . S
Sc243 O259 2.105 . S
Sc243 O263 2.105 . S
Sc244 O245 2.025 . S
Sc244 O254 2.105 . S
Sc244 O256 2.105 . S
Sc244 O260 2.105 . S
Sc244 O262 2.105 . S
O245 Sc242 2.025 . S
O245 Sc243 2.025 . S
O245 Sc244 2.025 . S
C246 O252 1.268 . S
C246 O262 1.268 . S
C247 O253 1.268 . S
C247 O261 1.268 . S
C248 O254 1.268 . S
C248 O263 1.268 . S
C249 O255 1.268 . S
C249 O259 1.268 . S
C250 O256 1.268 . S
C250 O258 1.268 . S
C251 O257 1.268 . S
C251 O260 1.268 . S
O252 Sc242 2.105 . S
O252 C246 1.268 . S
O253 Sc243 2.105 . S
O253 C247 1.268 . S
O254 Sc244 2.105 . S
O254 C248 1.268 . S
O255 Sc242 2.105 . S
O255 C249 1.268 . S
O256 Sc244 2.105 . S
O256 C250 1.268 . S
O257 Sc243 2.105 . S
O257 C251 1.268 . S
O258 Sc242 2.105 . S
O258 C250 1.268 . S
O259 Sc243 2.105 . S
O259 C249 1.268 . S
O260 Sc244 2.105 . S
O260 C251 1.268 . S
O261 Sc242 2.105 . S
O261 C247 1.268 . S
O262 Sc244 2.105 . S
O262 C246 1.268 . S
O263 Sc243 2.105 . S
O263 C248 1.268 . S
C115 C5 1.477 1_565 S
C31 C9 1.476 . S
C49 C27 1.476 1_655 S
C53 C75 1.477 1_545 S
C71 C93 1.477 . S
C119 C97 1.476 1_455 S
C159 C137 1.477 1_455 S
C163 C185 1.476 1_565 S
C203 C181 1.476 . S
C229 C207 1.477 1_655 S
C247 C225 1.476 1_565 S
C141 C251 1.477 . S
C248 C4 1.505 . S
C30 C139 1.505 . S
C160 C48 1.505 . S
C183 C74 1.505 . S
C204 C92 1.505 . S
C118 C227 1.505 . S
C136 C28 1.505 . S
C162 C51 1.505 . S
C72 C180 1.505 . S
C95 C206 1.505 . S
C224 C116 1.505 . S
C250 C7 1.505 . S
C138 C6 1.084 . S
C29 C161 1.084 . S
C182 C50 1.084 . S
C73 C205 1.084 . S
C226 C94 1.084 . S
C249 C117 1.084 . S
C140 C8 1.265 . S
C158 C26 1.265 . S
C184 C52 1.265 . S
C70 C202 1.265 . S
C228 C96 1.265 . S
C246 C114 1.265 . S
