# Generated by pormake.
# Topology whc, (6)-cn, num edge types: 1
# Building blocks:
#     Node 0, Type 0, BuildingBlock: IZENUY_clean_sbu_0, # of connection points: 6
#     Node 1, Type 0, BuildingBlock: IZENUY_clean_sbu_0, # of connection points: 6
#     Node 2, Type 0, BuildingBlock: IZENUY_clean_sbu_0, # of connection points: 6
#     Node 3, Type 0, BuildingBlock: IZENUY_clean_sbu_0, # of connection points: 6
#     Node 4, Type 0, BuildingBlock: IZENUY_clean_sbu_0, # of connection points: 6
#     Node 5, Type 0, BuildingBlock: IZENUY_clean_sbu_0, # of connection points: 6
#     Node 6, Type 0, BuildingBlock: IZENUY_clean_sbu_0, # of connection points: 6
#     Node 7, Type 0, BuildingBlock: IZENUY_clean_sbu_0, # of connection points: 6
#     Edge 8, Type (0, 0), BuildingBlock: MIFKUJ_clean_linker_0, # of connection points: 2
#     Edge 9, Type (0, 0), BuildingBlock: MIFKUJ_clean_linker_0, # of connection points: 2
#     Edge 10, Type (0, 0), BuildingBlock: MIFKUJ_clean_linker_0, # of connection points: 2
#     Edge 11, Type (0, 0), BuildingBlock: MIFKUJ_clean_linker_0, # of connection points: 2
#     Edge 12, Type (0, 0), BuildingBlock: MIFKUJ_clean_linker_0, # of connection points: 2
#     Edge 13, Type (0, 0), BuildingBlock: MIFKUJ_clean_linker_0, # of connection points: 2
#     Edge 14, Type (0, 0), BuildingBlock: MIFKUJ_clean_linker_0, # of connection points: 2
#     Edge 15, Type (0, 0), BuildingBlock: MIFKUJ_clean_linker_0, # of connection points: 2
#     Edge 16, Type (0, 0), BuildingBlock: MIFKUJ_clean_linker_0, # of connection points: 2
#     Edge 17, Type (0, 0), BuildingBlock: MIFKUJ_clean_linker_0, # of connection points: 2
#     Edge 18, Type (0, 0), BuildingBlock: MIFKUJ_clean_linker_0, # of connection points: 2
#     Edge 19, Type (0, 0), BuildingBlock: MIFKUJ_clean_linker_0, # of connection points: 2
#     Edge 20, Type (0, 0), BuildingBlock: MIFKUJ_clean_linker_0, # of connection points: 2
#     Edge 21, Type (0, 0), BuildingBlock: MIFKUJ_clean_linker_0, # of connection points: 2
#     Edge 22, Type (0, 0), BuildingBlock: MIFKUJ_clean_linker_0, # of connection points: 2
#     Edge 23, Type (0, 0), BuildingBlock: MIFKUJ_clean_linker_0, # of connection points: 2
#     Edge 24, Type (0, 0), BuildingBlock: MIFKUJ_clean_linker_0, # of connection points: 2
#     Edge 25, Type (0, 0), BuildingBlock: MIFKUJ_clean_linker_0, # of connection points: 2
#     Edge 26, Type (0, 0), BuildingBlock: MIFKUJ_clean_linker_0, # of connection points: 2
#     Edge 27, Type (0, 0), BuildingBlock: MIFKUJ_clean_linker_0, # of connection points: 2
#     Edge 28, Type (0, 0), BuildingBlock: MIFKUJ_clean_linker_0, # of connection points: 2
#     Edge 29, Type (0, 0), BuildingBlock: MIFKUJ_clean_linker_0, # of connection points: 2
#     Edge 30, Type (0, 0), BuildingBlock: MIFKUJ_clean_linker_0, # of connection points: 2
#     Edge 31, Type (0, 0), BuildingBlock: MIFKUJ_clean_linker_0, # of connection points: 2
# Relax obj value: 0.363
# Max RMSD: 0.283
# Mean RMSD: 0.283
data_MOF--net-whc--node1-IZENUY_clean_sbu_0--edge1-MIFKUJ_clean_linker_0
_symmetry_space_group_name_H-M    P1
_symmetry_Int_Tables_number       1
_symmetry_cell_setting            triclinic
loop_
_symmetry_equiv_pos_as_xyz
'x, y, z'
_cell_length_a     44.87935
_cell_length_b     44.878682
_cell_length_c     37.696222
_cell_angle_alpha  90.171518
_cell_angle_beta   89.963772
_cell_angle_gamma 89.70961
loop_
_atom_site_label
_atom_site_type_symbol
_atom_site_fract_x
_atom_site_fract_y
_atom_site_fract_z
_atom_type_partial_charge
Fe0 Fe 0.49855 0.1953 0.09464 0.0
Fe1 Fe 0.43139 0.19881 0.0814 0.0
O2 O 0.46379 0.21298 0.10208 0.0
Fe3 Fe 0.46186 0.24458 0.1299 0.0
O4 O 0.48822 0.26478 0.10253 0.0
O5 O 0.5211 0.22874 0.10065 0.0
O6 O 0.49656 0.20413 0.04782 0.0
C7 C 0.47538 0.19596 0.02805 0.0
C8 C 0.50001 0.20468 0.166 0.0
O9 O 0.45127 0.18626 0.04123 0.0
C10 C 0.41019 0.21733 0.14926 0.0
O11 O 0.48285 0.15842 0.08724 0.0
O12 O 0.43602 0.16283 0.10321 0.0
O13 O 0.49093 0.23106 0.16022 0.0
O14 O 0.50173 0.18582 0.14114 0.0
C15 C 0.42309 0.25896 0.07304 0.0
O16 O 0.40585 0.20969 0.11732 0.0
O17 O 0.43522 0.22692 0.15903 0.0
C18 C 0.45918 0.14714 0.09912 0.0
O19 O 0.42472 0.23365 0.05846 0.0
O20 O 0.43242 0.26311 0.10438 0.0
C21 C 0.51418 0.25569 0.0958 0.0
Fe22 Fe 0.19931 0.57909 0.90728 0.0
Fe23 Fe 0.19524 0.51158 0.8946 0.0
O24 O 0.21511 0.54537 0.89116 0.0
Fe25 Fe 0.25086 0.5454 0.87179 0.0
O26 O 0.26742 0.55903 0.91232 0.0
O27 O 0.23527 0.59557 0.92021 0.0
O28 O 0.19733 0.56416 0.95152 0.0
C29 C 0.18412 0.54055 0.95999 0.0
C30 C 0.22459 0.5989 0.84639 0.0
O31 O 0.17668 0.52163 0.93662 0.0
C32 C 0.22148 0.50833 0.82669 0.0
O33 O 0.16045 0.5683 0.89764 0.0
O34 O 0.16518 0.52632 0.86806 0.0
O35 O 0.24717 0.58296 0.85352 0.0
O36 O 0.20076 0.59646 0.86389 0.0
C37 C 0.251 0.4922 0.91164 0.0
O38 O 0.21018 0.49548 0.85332 0.0
O39 O 0.23625 0.53192 0.8303 0.0
C40 C 0.1502 0.54907 0.87621 0.0
O41 O 0.22421 0.49464 0.92121 0.0
O42 O 0.26107 0.50777 0.88645 0.0
C43 C 0.26008 0.5832 0.92708 0.0
Fe44 Fe 0.582 0.79877 0.08377 0.0
Fe45 Fe 0.54859 0.75156 0.12647 0.0
O46 O 0.54864 0.78567 0.10333 0.0
Fe47 Fe 0.51538 0.80675 0.10005 0.0
O48 O 0.52383 0.82131 0.0554 0.0
O49 O 0.56512 0.79779 0.04057 0.0
O50 O 0.59653 0.76119 0.07363 0.0
C51 C 0.58276 0.73674 0.06955 0.0
C52 C 0.55514 0.85116 0.11166 0.0
O53 O 0.55944 0.73133 0.08704 0.0
C54 C 0.51638 0.78761 0.17047 0.0
O55 O 0.60107 0.79995 0.12624 0.0
O56 O 0.58714 0.75484 0.14159 0.0
O57 O 0.53233 0.8378 0.12223 0.0
O58 O 0.57292 0.83879 0.08988 0.0
C59 C 0.49323 0.75111 0.09065 0.0
O60 O 0.53838 0.77044 0.16685 0.0
O61 O 0.5012 0.79588 0.14397 0.0
C62 C 0.60304 0.77769 0.14646 0.0
O63 O 0.50976 0.74205 0.11567 0.0
O64 O 0.49628 0.7768 0.07803 0.0
C65 C 0.54111 0.81042 0.03201 0.0
Fe66 Fe 0.81074 0.48966 0.90059 0.0
Fe67 Fe 0.76051 0.45294 0.86777 0.0
O68 O 0.79262 0.45511 0.89448 0.0
Fe69 Fe 0.80711 0.42284 0.91548 0.0
O70 O 0.82213 0.44328 0.95384 0.0
O71 O 0.80327 0.48825 0.94786 0.0
O72 O 0.7773 0.51293 0.89601 0.0
C73 C 0.75018 0.50652 0.90025 0.0
C74 C 0.85774 0.44921 0.8921 0.0
O75 O 0.74101 0.48059 0.89419 0.0
C76 C 0.78577 0.39976 0.85012 0.0
O77 O 0.81882 0.49235 0.8538 0.0
O78 O 0.77366 0.4806 0.83567 0.0
O79 O 0.84193 0.42601 0.89068 0.0
O80 O 0.8477 0.47297 0.90579 0.0
C81 C 0.74728 0.41744 0.9277 0.0
O82 O 0.77731 0.42487 0.83923 0.0
O83 O 0.79377 0.39637 0.88197 0.0
C84 C 0.79977 0.48996 0.82938 0.0
O85 O 0.74235 0.42511 0.89586 0.0
O86 O 0.77316 0.41822 0.94086 0.0
C87 C 0.81223 0.46724 0.96741 0.0
Fe88 Fe 0.54583 0.25017 0.60557 0.0
Fe89 Fe 0.57912 0.19311 0.58437 0.0
O90 O 0.54511 0.21199 0.59402 0.0
Fe91 Fe 0.51076 0.19279 0.59222 0.0
O92 O 0.49501 0.21841 0.56027 0.0
O93 O 0.50944 0.2595 0.58648 0.0
O94 O 0.56217 0.2597 0.56332 0.0
C95 C 0.5872 0.25006 0.55323 0.0
C96 C 0.50638 0.22849 0.65425 0.0
O97 O 0.59793 0.22632 0.56639 0.0
C98 C 0.54534 0.14865 0.61977 0.0
O99 O 0.58218 0.24799 0.62755 0.0
O100 O 0.59352 0.20021 0.62862 0.0
O101 O 0.49416 0.21278 0.63032 0.0
O102 O 0.52985 0.2428 0.64821 0.0
C103 C 0.54306 0.17223 0.53171 0.0
O104 O 0.56655 0.15617 0.59957 0.0
O105 O 0.52338 0.16567 0.62416 0.0
C106 C 0.59574 0.22614 0.64145 0.0
O107 O 0.5669 0.18525 0.53999 0.0
O108 O 0.52176 0.16955 0.55373 0.0
C109 C 0.49326 0.24619 0.56413 0.0
Fe110 Fe 0.19008 0.41816 0.40534 0.0
Fe111 Fe 0.23629 0.45556 0.36509 0.0
O112 O 0.20283 0.45298 0.38944 0.0
Fe113 Fe 0.18143 0.48552 0.39789 0.0
O114 O 0.18689 0.48108 0.44498 0.0
O115 O 0.17261 0.43421 0.44533 0.0
O116 O 0.22339 0.41269 0.43175 0.0
C117 C 0.24975 0.41442 0.42017 0.0
C118 C 0.13809 0.44291 0.3829 0.0
O119 O 0.25559 0.42667 0.39071 0.0
C120 C 0.19535 0.49176 0.32793 0.0
O121 O 0.20604 0.39592 0.36915 0.0
O122 O 0.22372 0.42898 0.33213 0.0
O123 O 0.14575 0.46617 0.39932 0.0
O124 O 0.15595 0.42135 0.37927 0.0
C125 C 0.24019 0.50675 0.40414 0.0
O126 O 0.22208 0.48486 0.33551 0.0
O127 O 0.17509 0.49085 0.35108 0.0
C128 C 0.216 0.40266 0.33887 0.0
O129 O 0.25192 0.48213 0.39613 0.0
O130 O 0.21291 0.51143 0.39801 0.0
C131 C 0.1792 0.45804 0.46172 0.0
Fe132 Fe 0.41524 0.80487 0.5795 0.0
Fe133 Fe 0.48199 0.80806 0.59712 0.0
O134 O 0.44824 0.788 0.59592 0.0
Fe135 Fe 0.44727 0.75099 0.61169 0.0
O136 O 0.43635 0.73723 0.56847 0.0
O137 O 0.39979 0.76961 0.56189 0.0
O138 O 0.43204 0.81011 0.53664 0.0
C139 C 0.4562 0.82346 0.53094 0.0
C140 C 0.39221 0.77505 0.63533 0.0
O141 O 0.4745 0.82864 0.55584 0.0
C142 C 0.47984 0.77902 0.66297 0.0
O143 O 0.42505 0.8432 0.59337 0.0
O144 O 0.46566 0.83667 0.62463 0.0
O145 O 0.40847 0.75311 0.62655 0.0
O146 O 0.39623 0.80039 0.6218 0.0
C147 C 0.50354 0.75359 0.57766 0.0
O148 O 0.49502 0.79101 0.63857 0.0
O149 O 0.45759 0.76313 0.65569 0.0
C150 C 0.44363 0.85244 0.61617 0.0
O151 O 0.50106 0.78073 0.56989 0.0
O152 O 0.48602 0.74183 0.59985 0.0
C153 C 0.41238 0.74509 0.55357 0.0
Fe154 Fe 0.81011 0.5816 0.41812 0.0
Fe155 Fe 0.75531 0.54758 0.39224 0.0
O156 O 0.79327 0.54778 0.40449 0.0
Fe157 Fe 0.81423 0.51434 0.40268 0.0
O158 O 0.83736 0.52339 0.44161 0.0
O159 O 0.81906 0.56623 0.46077 0.0
O160 O 0.77579 0.59682 0.43865 0.0
C161 C 0.75234 0.58399 0.44961 0.0
C162 C 0.85552 0.55333 0.37767 0.0
O163 O 0.74428 0.5595 0.43623 0.0
C164 C 0.77999 0.51323 0.33993 0.0
O165 O 0.80202 0.59938 0.37589 0.0
O166 O 0.75503 0.58597 0.37594 0.0
O167 O 0.84033 0.53042 0.37186 0.0
O168 O 0.84746 0.57217 0.40087 0.0
C169 C 0.76192 0.49245 0.42789 0.0
O170 O 0.76456 0.53592 0.34761 0.0
O171 O 0.7948 0.49961 0.36354 0.0
C172 C 0.77568 0.60267 0.36494 0.0
O173 O 0.74828 0.50915 0.40627 0.0
O174 O 0.78943 0.49554 0.43311 0.0
C175 C 0.83367 0.54262 0.46599 0.0
H176 H 0.23691 0.4077 0.27088 0.0
H177 H 0.2626 0.36919 0.23641 0.0
H178 H 0.24425 0.30488 0.31832 0.0
H179 H 0.21796 0.34291 0.35247 0.0
H180 H 0.31179 0.34341 0.25633 0.0
H181 H 0.24654 0.23446 0.28453 0.0
H182 H 0.19452 0.21835 0.29275 0.0
H183 H 0.1637 0.29291 0.23154 0.0
H184 H 0.21551 0.30923 0.22253 0.0
H185 H 0.41039 0.22956 0.22041 0.0
H186 H 0.36985 0.25271 0.25404 0.0
H187 H 0.31113 0.24229 0.1644 0.0
H188 H 0.35125 0.21852 0.13085 0.0
H189 H 0.28017 0.24037 0.22724 0.0
H190 H 0.35161 0.30346 0.16943 0.0
H191 H 0.40231 0.32077 0.15538 0.0
H192 H 0.41696 0.34189 0.26518 0.0
H193 H 0.36645 0.32421 0.27996 0.0
C194 C 0.23765 0.38518 0.28113 0.0
C195 C 0.22558 0.37847 0.31457 0.0
C196 C 0.25246 0.36321 0.26147 0.0
C197 C 0.25543 0.33416 0.27481 0.0
C198 C 0.24188 0.32699 0.3072 0.0
C199 C 0.22687 0.34887 0.32675 0.0
C200 C 0.2753 0.31235 0.25682 0.0
C201 C 0.30473 0.32095 0.24989 0.0
C202 C 0.26617 0.28302 0.24826 0.0
C203 C 0.23492 0.27319 0.25314 0.0
C204 C 0.22867 0.24733 0.27269 0.0
C205 C 0.19921 0.23818 0.27751 0.0
C206 C 0.17582 0.25464 0.26276 0.0
C207 C 0.18183 0.28024 0.24306 0.0
C208 C 0.21124 0.28948 0.23814 0.0
C209 C 0.38859 0.23127 0.20824 0.0
C210 C 0.38425 0.22286 0.17266 0.0
C211 C 0.36545 0.24453 0.22749 0.0
C212 C 0.33778 0.24994 0.21131 0.0
C213 C 0.33239 0.23851 0.17728 0.0
C214 C 0.35544 0.22496 0.1581 0.0
C215 C 0.31651 0.27149 0.22729 0.0
C216 C 0.28701 0.26285 0.23383 0.0
C217 C 0.32525 0.30112 0.23471 0.0
C218 C 0.35539 0.31228 0.22583 0.0
C219 C 0.36571 0.31165 0.1906 0.0
C220 C 0.39441 0.32152 0.1825 0.0
C221 C 0.41287 0.33237 0.20938 0.0
C222 C 0.40264 0.33345 0.2444 0.0
C223 C 0.37398 0.32351 0.25265 0.0
H224 H 0.43509 0.33999 0.20307 0.0
H225 H 0.15303 0.24753 0.26655 0.0
H226 H 0.20218 0.6558 0.85203 0.0
H227 H 0.22083 0.69975 0.82008 0.0
H228 H 0.27629 0.64252 0.75549 0.0
H229 H 0.25814 0.59903 0.78724 0.0
H230 H 0.3075 0.68543 0.7945 0.0
H231 H 0.21912 0.67634 0.7196 0.0
H232 H 0.16491 0.67672 0.70893 0.0
H233 H 0.15899 0.76606 0.74952 0.0
H234 H 0.21317 0.76604 0.76086 0.0
H235 H 0.36046 0.72439 0.63534 0.0
H236 H 0.32129 0.71009 0.6763 0.0
H237 H 0.32409 0.79704 0.72517 0.0
H238 H 0.36388 0.81182 0.68354 0.0
H239 H 0.26042 0.75587 0.70999 0.0
H240 H 0.35546 0.76476 0.77147 0.0
H241 H 0.41029 0.76014 0.77255 0.0
H242 H 0.40367 0.6662 0.75306 0.0
H243 H 0.34895 0.67044 0.75006 0.0
C244 C 0.2176 0.65266 0.83021 0.0
C245 C 0.22902 0.62416 0.8222 0.0
C246 C 0.22832 0.67773 0.81217 0.0
C247 C 0.25026 0.67431 0.7859 0.0
C248 C 0.25963 0.6456 0.77602 0.0
C249 C 0.24918 0.62078 0.79405 0.0
C250 C 0.26628 0.70007 0.77092 0.0
C251 C 0.29713 0.70124 0.77655 0.0
C252 C 0.25257 0.72112 0.74831 0.0
C253 C 0.22008 0.72102 0.74158 0.0
C254 C 0.2062 0.69594 0.72662 0.0
C255 C 0.1755 0.69612 0.72036 0.0
C256 C 0.15849 0.72135 0.72869 0.0
C257 C 0.17218 0.7465 0.74319 0.0
C258 C 0.20287 0.74642 0.74953 0.0
C259 C 0.35249 0.74072 0.6544 0.0
C260 C 0.36555 0.76901 0.65683 0.0
C261 C 0.32988 0.73261 0.67748 0.0
C262 C 0.32001 0.75247 0.7037 0.0
C263 C 0.33141 0.78155 0.70483 0.0
C264 C 0.35414 0.78986 0.68129 0.0
C265 C 0.30168 0.74023 0.73257 0.0
C266 C 0.27053 0.74128 0.72952 0.0
C267 C 0.3151 0.72079 0.75737 0.0
C268 C 0.34804 0.718 0.76043 0.0
C269 C 0.36571 0.74318 0.76712 0.0
C270 C 0.39677 0.74063 0.76808 0.0
C271 C 0.41042 0.7129 0.76315 0.0
C272 C 0.39306 0.68767 0.75699 0.0
C273 C 0.36202 0.69015 0.75555 0.0
H274 H 0.43446 0.71097 0.76405 0.0
H275 H 0.13473 0.72146 0.7238 0.0
H276 H 0.72899 0.63807 0.38023 0.0
H277 H 0.70886 0.67857 0.34456 0.0
H278 H 0.78187 0.66899 0.2708 0.0
H279 H 0.80278 0.62846 0.30742 0.0
H280 H 0.7585 0.7312 0.28171 0.0
H281 H 0.72612 0.63221 0.25109 0.0
H282 H 0.70759 0.5819 0.26475 0.0
H283 H 0.62781 0.61975 0.30934 0.0
H284 H 0.64627 0.6703 0.29693 0.0
H285 H 0.66298 0.78173 0.13601 0.0
H286 H 0.70127 0.76217 0.17643 0.0
H287 H 0.63398 0.74841 0.25654 0.0
H288 H 0.59585 0.76672 0.21585 0.0
H289 H 0.6602 0.69775 0.23693 0.0
H290 H 0.69221 0.79655 0.26917 0.0
H291 H 0.71076 0.84724 0.25775 0.0
H292 H 0.78983 0.81085 0.20985 0.0
H293 H 0.77155 0.75989 0.22053 0.0
C294 C 0.74111 0.64499 0.35679 0.0
C295 C 0.76704 0.62989 0.34599 0.0
C296 C 0.72973 0.66826 0.33663 0.0
C297 C 0.74368 0.6764 0.30486 0.0
C298 C 0.77088 0.66296 0.29532 0.0
C299 C 0.78266 0.63979 0.31601 0.0
C300 C 0.72699 0.69521 0.27959 0.0
C301 C 0.73721 0.72388 0.27135 0.0
C302 C 0.69915 0.68556 0.26648 0.0
C303 C 0.68771 0.65508 0.27329 0.0
C304 C 0.70474 0.62981 0.26408 0.0
C305 C 0.69426 0.60124 0.27165 0.0
C306 C 0.66658 0.59763 0.28803 0.0
C307 C 0.64929 0.62257 0.29676 0.0
C308 C 0.65977 0.65119 0.28949 0.0
C309 C 0.65675 0.77566 0.1628 0.0
C310 C 0.62669 0.77561 0.17307 0.0
C311 C 0.67856 0.76449 0.18583 0.0
C312 C 0.6704 0.75361 0.21936 0.0
C313 C 0.64072 0.75652 0.23071 0.0
C314 C 0.61898 0.76711 0.20758 0.0
C315 C 0.69095 0.73444 0.23998 0.0
C316 C 0.68153 0.70529 0.247 0.0
C317 C 0.71936 0.74379 0.25172 0.0
C318 C 0.73035 0.7744 0.24529 0.0
C319 C 0.71342 0.79934 0.25588 0.0
C320 C 0.72391 0.82813 0.24962 0.0
C321 C 0.75141 0.83226 0.23298 0.0
C322 C 0.76851 0.80761 0.22267 0.0
C323 C 0.7581 0.77877 0.22886 0.0
H324 H 0.7595 0.85457 0.22817 0.0
H325 H 0.6585 0.5755 0.29388 0.0
H326 H 0.79841 0.38461 0.78129 0.0
H327 H 0.77466 0.34497 0.74651 0.0
H328 H 0.72384 0.31931 0.83883 0.0
H329 H 0.74966 0.35664 0.87396 0.0
H330 H 0.72932 0.27372 0.80523 0.0
H331 H 0.69915 0.37209 0.76841 0.0
H332 H 0.70602 0.42309 0.7456 0.0
H333 H 0.74316 0.38779 0.64912 0.0
H334 H 0.73706 0.33663 0.6717 0.0
H335 H 0.58845 0.25938 0.70063 0.0
H336 H 0.62786 0.27942 0.73879 0.0
H337 H 0.69377 0.23079 0.67843 0.0
H338 H 0.65419 0.20962 0.64111 0.0
H339 H 0.68421 0.30889 0.69279 0.0
H340 H 0.70553 0.20624 0.73712 0.0
H341 H 0.68725 0.1601 0.76485 0.0
H342 H 0.65433 0.21047 0.85376 0.0
H343 H 0.67185 0.25698 0.82614 0.0
C344 C 0.78283 0.36978 0.79415 0.0
C345 C 0.77587 0.37346 0.83015 0.0
C346 C 0.76893 0.3474 0.77427 0.0
C347 C 0.74654 0.32966 0.7896 0.0
C348 C 0.74087 0.33254 0.82612 0.0
C349 C 0.75564 0.35396 0.84626 0.0
C350 C 0.72723 0.30993 0.76758 0.0
C351 C 0.71978 0.28148 0.78047 0.0
C352 C 0.71414 0.31985 0.7354 0.0
C353 C 0.7179 0.35058 0.72185 0.0
C354 C 0.70894 0.37524 0.74242 0.0
C355 C 0.71272 0.40417 0.72955 0.0
C356 C 0.72509 0.40868 0.69597 0.0
C357 C 0.73364 0.38427 0.67515 0.0
C358 C 0.73003 0.35531 0.68797 0.0
C359 C 0.61127 0.25221 0.69637 0.0
C360 C 0.61843 0.2328 0.66834 0.0
C361 C 0.63368 0.26366 0.71805 0.0
C362 C 0.66357 0.25631 0.71153 0.0
C363 C 0.67072 0.23616 0.68425 0.0
C364 C 0.64818 0.22407 0.66308 0.0
C365 C 0.68721 0.27292 0.7301 0.0
C366 C 0.69487 0.30094 0.71681 0.0
C367 C 0.69948 0.26314 0.76248 0.0
C368 C 0.68966 0.23509 0.77934 0.0
C369 C 0.69408 0.2075 0.76237 0.0
C370 C 0.68392 0.18128 0.77811 0.0
C371 C 0.66954 0.18236 0.81099 0.0
C372 C 0.66545 0.20965 0.82829 0.0
C373 C 0.67549 0.23594 0.8126 0.0
H374 H 0.66164 0.16204 0.8231 0.0
H375 H 0.728 0.43109 0.68606 0.0
H376 H 0.5196 0.26795 0.70663 0.0
H377 H 0.50981 0.26236 0.76978 0.0
H378 H 0.45768 0.18386 0.74862 0.0
H379 H 0.4675 0.18915 0.68487 0.0
H380 H 0.43595 0.22543 0.80627 0.0
H381 H 0.52444 0.17065 0.76689 0.0
H382 H 0.57249 0.16744 0.73522 0.0
H383 H 0.60774 0.23719 0.80085 0.0
H384 H 0.55984 0.24095 0.83276 0.0
H385 H 0.44302 0.16581 0.97846 0.0
H386 H 0.44596 0.17058 0.91404 0.0
H387 H 0.51751 0.23382 0.92539 0.0
H388 H 0.51535 0.22836 0.98985 0.0
H389 H 0.5285 0.1992 0.87149 0.0
H390 H 0.44531 0.25461 0.91273 0.0
H391 H 0.39812 0.26444 0.94398 0.0
H392 H 0.35304 0.20285 0.87545 0.0
H393 H 0.40021 0.19208 0.8442 0.0
C394 C 0.50547 0.24984 0.7152 0.0
C395 C 0.49463 0.22874 0.69081 0.0
C396 C 0.49991 0.24673 0.75131 0.0
C397 C 0.48347 0.22247 0.76369 0.0
C398 C 0.47049 0.2027 0.73936 0.0
C399 C 0.47607 0.20578 0.70302 0.0
C400 C 0.48285 0.21613 0.80205 0.0
C401 C 0.45596 0.21914 0.82059 0.0
C402 C 0.50936 0.20912 0.82058 0.0
C403 C 0.5385 0.20616 0.80212 0.0
C404 C 0.54242 0.18535 0.77452 0.0
C405 C 0.56965 0.18339 0.75656 0.0
C406 C 0.59321 0.20201 0.76612 0.0
C407 C 0.58956 0.22264 0.79363 0.0
C408 C 0.56239 0.22466 0.8117 0.0
C409 C 0.45957 0.18051 0.96721 0.0
C410 C 0.47886 0.19685 0.98916 0.0
C411 C 0.46115 0.1833 0.93041 0.0
C412 C 0.48156 0.20299 0.91494 0.0
C413 C 0.50155 0.21853 0.93676 0.0
C414 C 0.50028 0.21541 0.97358 0.0
C415 C 0.4814 0.20815 0.87612 0.0
C416 C 0.50827 0.20511 0.85737 0.0
C417 C 0.45495 0.21586 0.85761 0.0
C418 C 0.42645 0.22227 0.87633 0.0
C419 C 0.42544 0.24287 0.90453 0.0
C420 C 0.39867 0.24861 0.92229 0.0
C421 C 0.3726 0.23422 0.9118 0.0
C422 C 0.37327 0.21398 0.88357 0.0
C423 C 0.40004 0.20801 0.86584 0.0
H424 H 0.35186 0.23881 0.9255 0.0
H425 H 0.61427 0.20048 0.7522 0.0
H426 H 0.15059 0.4956 0.98857 0.0
H427 H 0.14042 0.48675 0.05154 0.0
H428 H 0.19134 0.56478 0.07905 0.0
H429 H 0.20099 0.57412 0.01668 0.0
H430 H 0.17772 0.47433 0.103 0.0
H431 H 0.16623 0.59792 0.15134 0.0
H432 H 0.14464 0.64516 0.12987 0.0
H433 H 0.08436 0.59681 0.0629 0.0
H434 H 0.10526 0.54926 0.08434 0.0
H435 H 0.23323 0.49719 0.27177 0.0
H436 H 0.21996 0.50429 0.20966 0.0
H437 H 0.12709 0.51105 0.23817 0.0
H438 H 0.14002 0.50335 0.30053 0.0
H439 H 0.14653 0.55396 0.18712 0.0
H440 H 0.14389 0.44997 0.20445 0.0
H441 H 0.161 0.40115 0.22654 0.0
H442 H 0.24008 0.40743 0.163 0.0
H443 H 0.22353 0.45649 0.14067 0.0
C444 C 0.15929 0.51105 0.00806 0.0
C445 C 0.17648 0.53563 -0.00238 0.0
C446 C 0.15348 0.50595 0.04397 0.0
C447 C 0.16471 0.52537 0.06991 0.0
C448 C 0.18177 0.54993 0.05947 0.0
C449 C 0.18743 0.55514 0.02373 0.0
C450 C 0.16064 0.51916 0.10813 0.0
C451 C 0.1705 0.49161 0.12131 0.0
C452 C 0.15044 0.54142 0.13201 0.0
C453 C 0.13744 0.56999 0.11937 0.0
C454 C 0.14823 0.59734 0.13223 0.0
C455 C 0.13614 0.62419 0.12001 0.0
C456 C 0.11318 0.62399 0.095 0.0
C457 C 0.1022 0.59694 0.08221 0.0
C458 C 0.11419 0.57003 0.09435 0.0
C459 C 0.21 0.50055 0.265 0.0
C460 C 0.1877 0.49987 0.29115 0.0
C461 C 0.20248 0.50448 0.2295 0.0
C462 C 0.17257 0.50786 0.21952 0.0
C463 C 0.15029 0.50845 0.24554 0.0
C464 C 0.15777 0.50424 0.28113 0.0
C465 C 0.16496 0.50986 0.1816 0.0
C466 C 0.15301 0.53654 0.16861 0.0
C467 C 0.17242 0.48655 0.15789 0.0
C468 C 0.18249 0.45695 0.17091 0.0
C469 C 0.165 0.44103 0.19528 0.0
C470 C 0.17456 0.41329 0.20779 0.0
C471 C 0.20153 0.40115 0.196 0.0
C472 C 0.21909 0.41681 0.17186 0.0
C473 C 0.2096 0.44455 0.15921 0.0
H474 H 0.20878 0.37959 0.20553 0.0
H475 H 0.10388 0.6448 0.08556 0.0
H476 H 0.56043 0.77349 0.98006 0.0
H477 H 0.54849 0.77499 0.91726 0.0
H478 H 0.49298 0.85253 0.93463 0.0
H479 H 0.50402 0.85035 -0.00155 0.0
H480 H 0.46708 0.81718 0.88962 0.0
H481 H 0.56327 0.85812 0.89838 0.0
H482 H 0.61573 0.86197 0.91707 0.0
H483 H 0.63714 0.78239 0.8587 0.0
H484 H 0.58475 0.77793 0.83988 0.0
H485 H 0.51656 0.82213 0.68896 0.0
H486 H 0.52475 0.8354 0.75102 0.0
H487 H 0.46811 0.76305 0.78374 0.0
H488 H 0.4591 0.75019 0.72166 0.0
H489 H 0.54953 0.80839 0.80241 0.0
H490 H 0.43079 0.78189 0.86119 0.0
H491 H 0.3781 0.78632 0.84358 0.0
H492 H 0.40152 0.85036 0.76406 0.0
H493 H 0.45419 0.84719 0.78207 0.0
C494 C 0.54581 0.79102 0.97056 0.0
C495 C 0.53353 0.81215 0.99403 0.0
C496 C 0.53905 0.79188 0.93459 0.0
C497 C 0.52049 0.81436 0.92106 0.0
C498 C 0.50759 0.83516 0.9445 0.0
C499 C 0.51395 0.83397 0.98085 0.0
C500 C 0.51464 0.8156 0.88241 0.0
C501 C 0.48505 0.81539 0.87046 0.0
C502 C 0.53819 0.81451 0.85739 0.0
C503 C 0.56993 0.81747 0.86808 0.0
C504 C 0.57911 0.84132 0.88971 0.0
C505 C 0.60886 0.84365 0.90028 0.0
C506 C 0.62974 0.82239 0.88918 0.0
C507 C 0.62094 0.79883 0.86733 0.0
C508 C 0.59122 0.79642 0.85666 0.0
C509 C 0.50606 0.80886 0.70937 0.0
C510 C 0.48729 0.785 0.70044 0.0
C511 C 0.51063 0.81659 0.74482 0.0
C512 C 0.49663 0.80055 0.772 0.0
C513 C 0.47853 0.77621 0.76318 0.0
C514 C 0.47368 0.76866 0.72772 0.0
C515 C 0.50193 0.80844 0.80966 0.0
C516 C 0.53149 0.81047 0.82143 0.0
C517 C 0.47831 0.81231 0.83425 0.0
C518 C 0.44661 0.81406 0.82287 0.0
C519 C 0.42472 0.7971 0.84017 0.0
C520 C 0.3948 0.7995 0.83021 0.0
C521 C 0.38647 0.81863 0.80273 0.0
C522 C 0.40802 0.83551 0.78529 0.0
C523 C 0.43792 0.83344 0.79542 0.0
H524 H 0.36332 0.82032 0.7949 0.0
H525 H 0.65275 0.82421 0.89743 0.0
H526 H 0.81933 0.47337 0.3111 0.0
H527 H 0.82505 0.46023 0.24851 0.0
H528 H 0.74999 0.51635 0.22216 0.0
H529 H 0.74408 0.52972 0.28471 0.0
H530 H 0.75031 0.46254 0.18476 0.0
H531 H 0.81618 0.54383 0.21083 0.0
H532 H 0.85618 0.57104 0.24164 0.0
H533 H 0.91828 0.50109 0.21616 0.0
H534 H 0.8785 0.47326 0.18548 0.0
H535 H 0.77634 0.50394 0.00627 0.0
H536 H 0.77162 0.50576 0.07105 0.0
H537 H 0.84084 0.43951 0.08106 0.0
H538 H 0.84548 0.43707 0.01629 0.0
H539 H 0.84506 0.49257 0.1273 0.0
H540 H 0.77855 0.41552 0.09218 0.0
H541 H 0.73836 0.39296 0.05691 0.0
H542 H 0.67609 0.45729 0.09801 0.0
H543 H 0.71606 0.48057 0.13322 0.0
C544 C 0.8037 0.48254 0.2921 0.0
C545 C 0.78128 0.50265 0.30283 0.0
C546 C 0.8071 0.47509 0.25635 0.0
C547 C 0.78807 0.48751 0.2308 0.0
C548 C 0.76485 0.50652 0.24157 0.0
C549 C 0.76159 0.5142 0.27727 0.0
C550 C 0.79348 0.48222 0.19262 0.0
C551 C 0.77093 0.4692 0.1721 0.0
C552 C 0.82066 0.49042 0.17642 0.0
C553 C 0.84434 0.50638 0.1961 0.0
C554 C 0.83828 0.53408 0.21216 0.0
C555 C 0.86093 0.54967 0.22946 0.0
C556 C 0.88976 0.53786 0.23067 0.0
C557 C 0.89594 0.51024 0.21504 0.0
C558 C 0.87336 0.49456 0.19768 0.0
C559 C 0.79078 0.49001 0.02227 0.0
C560 C 0.81132 0.47041 0.00632 0.0
C561 C 0.78786 0.49091 0.05912 0.0
C562 C 0.80562 0.47255 0.08052 0.0
C563 C 0.82686 0.45371 0.06481 0.0
C564 C 0.82946 0.45237 0.02792 0.0
C565 C 0.8018 0.4732 0.11937 0.0
C566 C 0.82463 0.48541 0.14003 0.0
C567 C 0.77479 0.46443 0.13557 0.0
C568 C 0.75048 0.45013 0.11494 0.0
C569 C 0.75638 0.42511 0.09343 0.0
C570 C 0.7336 0.41212 0.07349 0.0
C571 C 0.70471 0.42377 0.07505 0.0
C572 C 0.6985 0.4483 0.09679 0.0
C573 C 0.72122 0.46137 0.1168 0.0
H574 H 0.68715 0.41372 0.05953 0.0
H575 H 0.90734 0.55023 0.24356 0.0
H576 H 0.52963 0.1542 0.18771 0.0
H577 H 0.54154 0.13983 0.24879 0.0
H578 H 0.5009 0.22115 0.28713 0.0
H579 H 0.48988 0.23602 0.22659 0.0
H580 H 0.5509 0.21113 0.32076 0.0
H581 H 0.46435 0.15128 0.2868 0.0
H582 H 0.43982 0.11457 0.24782 0.0
H583 H 0.50695 0.04958 0.27337 0.0
H584 H 0.53202 0.08604 0.31223 0.0
H585 H 0.49177 0.16222 0.49435 0.0
H586 H 0.48793 0.15594 0.42989 0.0
H587 H 0.58369 0.15082 0.42215 0.0
H588 H 0.58775 0.15738 0.4862 0.0
H589 H 0.51052 0.11789 0.37213 0.0
H590 H 0.60253 0.20471 0.36247 0.0
H591 H 0.62783 0.24201 0.39995 0.0
H592 H 0.54779 0.25451 0.46076 0.0
H593 H 0.52185 0.21775 0.42316 0.0
C594 C 0.52351 0.1691 0.20919 0.0
C595 C 0.50891 0.19629 0.20233 0.0
C596 C 0.53017 0.16079 0.24405 0.0
C597 C 0.5218 0.17928 0.27252 0.0
C598 C 0.50766 0.20658 0.26557 0.0
C599 C 0.50137 0.21505 0.23089 0.0
C600 C 0.52716 0.1705 0.30982 0.0
C601 C 0.54224 0.19063 0.33185 0.0
C602 C 0.516 0.14367 0.3243 0.0
C603 C 0.50014 0.12142 0.30222 0.0
C604 C 0.47386 0.12916 0.28409 0.0
C605 C 0.45988 0.10841 0.262 0.0
C606 C 0.47184 0.07978 0.25808 0.0
C607 C 0.4977 0.07176 0.27643 0.0
C608 C 0.51178 0.09244 0.29853 0.0
C609 C 0.51192 0.15872 0.47903 0.0
C610 C 0.54006 0.16097 0.4951 0.0
C611 C 0.5097 0.155 0.44226 0.0
C612 C 0.53557 0.15339 0.42138 0.0
C613 C 0.56351 0.15228 0.43788 0.0
C614 C 0.56576 0.15624 0.47444 0.0
C615 C 0.53372 0.15885 0.38283 0.0
C616 C 0.51945 0.13815 0.36075 0.0
C617 C 0.54543 0.18531 0.36815 0.0
C618 C 0.5604 0.20823 0.39025 0.0
C619 C 0.59031 0.21555 0.38371 0.0
C620 C 0.60474 0.23659 0.40496 0.0
C621 C 0.58945 0.25055 0.43276 0.0
C622 C 0.55962 0.24363 0.43926 0.0
C623 C 0.54504 0.2227 0.41797 0.0
H624 H 0.60071 0.26679 0.44915 0.0
H625 H 0.46106 0.06379 0.24085 0.0
H626 H 0.19844 0.50243 0.50526 0.0
H627 H 0.20237 0.50112 0.56968 0.0
H628 H 0.16157 0.41433 0.57123 0.0
H629 H 0.15758 0.41526 0.50639 0.0
H630 H 0.14233 0.45792 0.62724 0.0
H631 H 0.22882 0.40984 0.57904 0.0
H632 H 0.27032 0.40489 0.53646 0.0
H633 H 0.30718 0.4873 0.57386 0.0
H634 H 0.26565 0.49297 0.61631 0.0
H635 H 0.19205 0.45723 0.80801 0.0
H636 H 0.18327 0.43835 0.74792 0.0
H637 H 0.23314 0.51186 0.7049 0.0
H638 H 0.24247 0.5305 0.76443 0.0
H639 H 0.24658 0.4611 0.67112 0.0
H640 H 0.15613 0.51331 0.7102 0.0
H641 H 0.11286 0.52128 0.74957 0.0
H642 H 0.08284 0.4323 0.72837 0.0
H643 H 0.12603 0.42379 0.68891 0.0
C644 C 0.18981 0.48324 0.51922 0.0
C645 C 0.17791 0.45883 0.50074 0.0
C646 C 0.19212 0.48254 0.55599 0.0
C647 C 0.18251 0.4575 0.57486 0.0
C648 C 0.16911 0.43377 0.55687 0.0
C649 C 0.16697 0.43434 0.51993 0.0
C650 C 0.18875 0.45563 0.61306 0.0
C651 C 0.16504 0.45785 0.6371 0.0
C652 C 0.21844 0.45563 0.62546 0.0
C653 C 0.24406 0.45185 0.60083 0.0
C654 C 0.24573 0.42696 0.57812 0.0
C655 C 0.26925 0.42402 0.55399 0.0
C656 C 0.29137 0.44576 0.55246 0.0
C657 C 0.29006 0.47044 0.57514 0.0
C658 C 0.26656 0.47349 0.59929 0.0
C659 C 0.20142 0.46915 0.78575 0.0
C660 C 0.21786 0.49542 0.79096 0.0
C661 C 0.1963 0.45839 0.75148 0.0
C662 C 0.20736 0.47388 0.72205 0.0
C663 C 0.22451 0.49953 0.7273 0.0
C664 C 0.22972 0.51021 0.76139 0.0
C665 C 0.20016 0.46462 0.68547 0.0
C666 C 0.22379 0.46024 0.66159 0.0
C667 C 0.17038 0.46266 0.67329 0.0
C668 C 0.14448 0.46779 0.697 0.0
C669 C 0.14041 0.49538 0.71416 0.0
C670 C 0.11589 0.5 0.73646 0.0
C671 C 0.09521 0.47724 0.74166 0.0
C672 C 0.09893 0.44987 0.72441 0.0
C673 C 0.12339 0.44515 0.70204 0.0
H674 H 0.07624 0.48084 0.75892 0.0
H675 H 0.30953 0.44348 0.53371 0.0
H676 H 0.55717 0.80915 0.21557 0.0
H677 H 0.5492 0.82824 0.27549 0.0
H678 H 0.45463 0.81347 0.26456 0.0
H679 H 0.46255 0.79572 0.20343 0.0
H680 H 0.46539 0.86311 0.30256 0.0
H681 H 0.50148 0.76076 0.30354 0.0
H682 H 0.53721 0.72107 0.28712 0.0
H683 H 0.60764 0.76872 0.33897 0.0
H684 H 0.57236 0.80884 0.3554 0.0
H685 H 0.41876 0.82433 0.47413 0.0
H686 H 0.43202 0.8316 0.41223 0.0
H687 H 0.52269 0.85051 0.44255 0.0
H688 H 0.50964 0.84292 0.50494 0.0
H689 H 0.51956 0.80614 0.39516 0.0
H690 H 0.48066 0.90425 0.4036 0.0
H691 H 0.44481 0.94393 0.41929 0.0
H692 H 0.37949 0.90477 0.35053 0.0
H693 H 0.41478 0.86457 0.3348 0.0
C694 C 0.53468 0.81009 0.226 0.0
C695 C 0.51048 0.80029 0.20559 0.0
C696 C 0.53014 0.82109 0.26009 0.0
C697 C 0.50144 0.82149 0.27477 0.0
C698 C 0.47699 0.81313 0.25373 0.0
C699 C 0.48148 0.80283 0.21907 0.0
C700 C 0.49734 0.82826 0.31285 0.0
C701 C 0.47702 0.85058 0.3229 0.0
C702 C 0.51336 0.8125 0.33924 0.0
C703 C 0.53435 0.7879 0.33042 0.0
C704 C 0.5246 0.76278 0.31137 0.0
C705 C 0.54477 0.74023 0.30205 0.0
C706 C 0.57469 0.74242 0.31191 0.0
C707 C 0.58447 0.76708 0.33132 0.0
C708 C 0.56439 0.7897 0.34069 0.0
C709 C 0.44142 0.83061 0.46779 0.0
C710 C 0.46326 0.8327 0.49439 0.0
C711 C 0.44889 0.83504 0.43236 0.0
C712 C 0.4783 0.84175 0.42285 0.0
C713 C 0.49984 0.84544 0.44946 0.0
C714 C 0.49234 0.84111 0.48504 0.0
C715 C 0.48706 0.84063 0.38509 0.0
C716 C 0.50826 0.81917 0.37498 0.0
C717 C 0.47175 0.85711 0.3588 0.0
C718 C 0.45036 0.88125 0.36817 0.0
C719 C 0.45858 0.90394 0.39202 0.0
C720 C 0.43836 0.92657 0.40089 0.0
C721 C 0.40988 0.92685 0.38596 0.0
C722 C 0.40157 0.90453 0.36208 0.0
C723 C 0.42169 0.88183 0.35313 0.0
H724 H 0.39426 0.9444 0.39285 0.0
H725 H 0.5903 0.72498 0.30457 0.0
H726 H 0.76688 0.4817 0.76952 0.0
H727 H 0.78164 0.49155 0.70856 0.0
H728 H 0.86566 0.52651 0.74508 0.0
H729 H 0.85139 0.51595 0.80639 0.0
H730 H 0.79428 0.54139 0.67556 0.0
H731 H 0.91876 0.51074 0.68184 0.0
H732 H 0.95247 0.48008 0.71866 0.0
H733 H 0.8807 0.42038 0.74207 0.0
H734 H 0.84671 0.45039 0.70503 0.0
H735 H 0.84992 0.584 0.51482 0.0
H736 H 0.85642 0.5758 0.5783 0.0
H737 H 0.84909 0.48095 0.562 0.0
H738 H 0.84318 0.48897 0.49811 0.0
H739 H 0.88559 0.49725 0.62203 0.0
H740 H 0.78788 0.51693 0.57089 0.0
H741 H 0.75217 0.54606 0.5351 0.0
H742 H 0.76609 0.62233 0.60198 0.0
H743 H 0.80236 0.59382 0.63772 0.0
C744 C 0.78843 0.49169 0.76471 0.0
C745 C 0.80793 0.49813 0.79281 0.0
C746 C 0.79683 0.49729 0.72982 0.0
C747 C 0.82482 0.50951 0.72233 0.0
C748 C 0.84413 0.51665 0.75032 0.0
C749 C 0.83584 0.5108 0.78531 0.0
C750 C 0.83347 0.51465 0.68504 0.0
C751 C 0.81433 0.53185 0.66397 0.0
C752 C 0.85958 0.50203 0.66994 0.0
C753 C 0.88015 0.48299 0.6909 0.0
C754 C 0.91024 0.49094 0.69462 0.0
C755 C 0.92939 0.4737 0.71558 0.0
C756 C 0.91871 0.44835 0.73276 0.0
C757 C 0.88893 0.44005 0.72881 0.0
C758 C 0.86972 0.45717 0.70785 0.0
C759 C 0.85071 0.56133 0.52461 0.0
C760 C 0.8454 0.53712 0.50181 0.0
C761 C 0.8546 0.55669 0.56081 0.0
C762 C 0.85262 0.52785 0.57475 0.0
C763 C 0.85066 0.50338 0.55162 0.0
C764 C 0.84715 0.50799 0.5152 0.0
C765 C 0.84631 0.52392 0.61285 0.0
C766 C 0.86578 0.507 0.63391 0.0
C767 C 0.82016 0.53632 0.62801 0.0
C768 C 0.79806 0.55334 0.60675 0.0
C769 C 0.7835 0.53998 0.57779 0.0
C770 C 0.76315 0.55637 0.55752 0.0
C771 C 0.7569 0.58603 0.56625 0.0
C772 C 0.77099 0.59936 0.59524 0.0
C773 C 0.79145 0.58311 0.61549 0.0
H774 H 0.74106 0.59868 0.55069 0.0
H775 H 0.9335 0.43513 0.74911 0.0
H776 H 0.23441 0.44718 0.95614 0.0
H777 H 0.2663 0.40884 0.98217 0.0
H778 H 0.34295 0.44713 0.93068 0.0
H779 H 0.31109 0.48509 0.90374 0.0
H780 H 0.34533 0.38916 0.92506 0.0
H781 H 0.33157 0.45802 0.01974 0.0
H782 H 0.30276 0.49084 0.05978 0.0
H783 H 0.25563 0.41516 0.10024 0.0
H784 H 0.28414 0.38189 0.06042 0.0
H785 H 0.42437 0.31785 0.09055 0.0
H786 H 0.39864 0.35894 0.06132 0.0
H787 H 0.36166 0.29757 0.98494 0.0
H788 H 0.38802 0.25634 0.0136 0.0
H789 H 0.34303 0.37027 0.05463 0.0
H790 H 0.34942 0.33357 0.90561 0.0
H791 H 0.38438 0.30899 0.8642 0.0
H792 H 0.45752 0.33011 0.933 0.0
H793 H 0.42314 0.35534 0.97447 0.0
C794 C 0.25805 0.44747 0.95036 0.0
C795 C 0.27023 0.46918 0.92788 0.0
C796 C 0.27627 0.4256 0.96535 0.0
C797 C 0.30705 0.42532 0.95866 0.0
C798 C 0.31924 0.44689 0.93612 0.0
C799 C 0.301 0.46861 0.92084 0.0
C800 C 0.3265 0.40252 0.97522 0.0
C801 C 0.34486 0.38494 0.95337 0.0
C802 C 0.32656 0.39774 0.01227 0.0
C803 C 0.30984 0.4175 0.03695 0.0
C804 C 0.31501 0.44839 0.03715 0.0
C805 C 0.29878 0.46707 0.05984 0.0
C806 C 0.27738 0.4551 0.08256 0.0
C807 C 0.27228 0.4244 0.08275 0.0
C808 C 0.28853 0.4056 0.06018 0.0
C809 C 0.41085 0.31307 0.06745 0.0
C810 C 0.40812 0.28382 0.05447 0.0
C811 C 0.39614 0.33661 0.05077 0.0
C812 C 0.37833 0.3314 0.02083 0.0
C813 C 0.37568 0.30221 0.00765 0.0
C814 C 0.39064 0.27865 0.02416 0.0
C815 C 0.36162 0.35636 0.00438 0.0
C816 C 0.34362 0.37436 0.02628 0.0
C817 C 0.36285 0.36223 0.96751 0.0
C818 C 0.3836 0.34613 0.94334 0.0
C819 C 0.37296 0.33302 0.91189 0.0
C820 C 0.3927 0.31909 0.88832 0.0
C821 C 0.42316 0.31815 0.89588 0.0
C822 C 0.43392 0.33091 0.92716 0.0
C823 C 0.4143 0.34499 0.95074 0.0
H824 H 0.4384 0.30738 0.87757 0.0
H825 H 0.26479 0.46963 0.10001 0.0
H826 H 0.31003 0.56008 0.9579 0.0
H827 H 0.34939 0.58728 0.98885 0.0
H828 H 0.30092 0.66954 0.97417 0.0
H829 H 0.26129 0.64254 0.94341 0.0
H830 H 0.36245 0.67065 0.95281 0.0
H831 H 0.3012 0.6412 0.05254 0.0
H832 H 0.27449 0.60432 0.08887 0.0
H833 H 0.35658 0.55762 0.10833 0.0
H834 H 0.38372 0.594 0.07167 0.0
H835 H 0.44287 0.76971 0.05724 0.0
H836 H 0.40312 0.73912 0.03294 0.0
H837 H 0.44834 0.65972 0.06907 0.0
H838 H 0.48792 0.6905 0.09478 0.0
H839 H 0.39027 0.65443 0.07875 0.0
H840 H 0.45256 0.68183 0.98236 0.0
H841 H 0.48154 0.71621 0.94508 0.0
H842 H 0.40128 0.76266 0.91635 0.0
H843 H 0.37184 0.72885 0.95396 0.0
C844 C 0.30764 0.58394 0.96151 0.0
C845 C 0.28261 0.59921 0.94818 0.0
C846 C 0.33009 0.59938 0.97922 0.0
C847 C 0.32797 0.63034 0.98368 0.0
C848 C 0.30288 0.64562 0.97086 0.0
C849 C 0.28022 0.63014 0.95352 0.0
C850 C 0.35236 0.64694 0.00086 0.0
C851 C 0.36834 0.66746 0.98045 0.0
C852 C 0.36066 0.6417 0.03647 0.0
C853 C 0.34444 0.62017 0.05909 0.0
C854 C 0.31352 0.62295 0.06437 0.0
C855 C 0.29831 0.60216 0.08505 0.0
C856 C 0.31382 0.5786 0.10082 0.0
C857 C 0.34459 0.57586 0.09606 0.0
C858 C 0.35991 0.59658 0.07537 0.0
C859 C 0.44434 0.74574 0.06017 0.0
C860 C 0.46861 0.73243 0.07762 0.0
C861 C 0.42163 0.72827 0.04617 0.0
C862 C 0.42311 0.69711 0.04848 0.0
C863 C 0.44686 0.68374 0.06685 0.0
C864 C 0.46943 0.7013 0.08146 0.0
C865 C 0.40012 0.67869 0.0309 0.0
C866 C 0.38449 0.65768 0.05108 0.0
C867 C 0.39251 0.68303 0.99479 0.0
C868 C 0.41 0.70293 0.97127 0.0
C869 C 0.44109 0.69946 0.96824 0.0
C870 C 0.45761 0.71885 0.94704 0.0
C871 C 0.44328 0.74166 0.92844 0.0
C872 C 0.41236 0.745 0.93081 0.0
C873 C 0.39574 0.72571 0.95205 0.0
H874 H 0.45617 0.75671 0.9122 0.0
H875 H 0.302 0.5625 0.11678 0.0
H876 H 0.63056 0.7408 0.02484 0.0
H877 H 0.65357 0.70077 0.99011 0.0
H878 H 0.58775 0.63908 0.02867 0.0
H879 H 0.56458 0.67888 0.06354 0.0
H880 H 0.64485 0.61801 0.03583 0.0
H881 H 0.58435 0.66085 0.94528 0.0
H882 H 0.56363 0.70143 0.90876 0.0
H883 H 0.65088 0.72046 0.86825 0.0
H884 H 0.67226 0.68029 0.90502 0.0
H885 H 0.6938 0.49942 0.92616 0.0
H886 H 0.66028 0.53828 0.94875 0.0
H887 H 0.72488 0.60537 0.92195 0.0
H888 H 0.75864 0.56673 0.89952 0.0
H889 H 0.66425 0.62187 0.90623 0.0
H890 H 0.72506 0.58631 0.00269 0.0
H891 H 0.74782 0.54754 0.04006 0.0
H892 H 0.66097 0.51611 0.06927 0.0
H893 H 0.63765 0.55488 0.03184 0.0
C894 C 0.62087 0.71876 0.02581 0.0
C895 C 0.59588 0.71298 0.04717 0.0
C896 C 0.63393 0.69597 0.00577 0.0
C897 C 0.62222 0.66705 0.00673 0.0
C898 C 0.59706 0.66129 0.0276 0.0
C899 C 0.58387 0.68408 0.04747 0.0
C900 C 0.63731 0.64249 0.98752 0.0
C901 C 0.6485 0.61856 0.00737 0.0
C902 C 0.64269 0.64365 0.95055 0.0
C903 C 0.62995 0.66767 0.92812 0.0
C904 C 0.59918 0.67382 0.9288 0.0
C905 C 0.5873 0.69673 0.90803 0.0
C906 C 0.60594 0.71349 0.88623 0.0
C907 C 0.63649 0.70742 0.88516 0.0
C908 C 0.6485 0.68456 0.90593 0.0
C909 C 0.70071 0.52247 0.92464 0.0
C910 C 0.72894 0.53002 0.91131 0.0
C911 C 0.68155 0.54461 0.93752 0.0
C912 C 0.69021 0.5746 0.93702 0.0
C913 C 0.7178 0.58233 0.92237 0.0
C914 C 0.73712 0.56021 0.90984 0.0
C915 C 0.6717 0.5976 0.95464 0.0
C916 C 0.66006 0.6212 0.93456 0.0
C917 C 0.66594 0.59633 0.99145 0.0
C918 C 0.67967 0.57323 0.01424 0.0
C919 C 0.71083 0.57101 0.01692 0.0
C920 C 0.72382 0.54906 0.03813 0.0
C921 C 0.70585 0.52925 0.0569 0.0
C922 C 0.67484 0.53146 0.05464 0.0
C923 C 0.66172 0.55346 0.0335 0.0
H924 H 0.71597 0.51229 0.07327 0.0
H925 H 0.59666 0.73109 0.87008 0.0
H926 H 0.75049 0.37604 0.98047 0.0
H927 H 0.70864 0.35265 0.0114 0.0
H928 H 0.64683 0.40803 0.95359 0.0
H929 H 0.68847 0.43096 0.9218 0.0
H930 H 0.63736 0.39965 0.03388 0.0
H931 H 0.64736 0.3489 0.92164 0.0
H932 H 0.67486 0.3233 0.87372 0.0
H933 H 0.70393 0.25613 0.94701 0.0
H934 H 0.67683 0.28159 0.99551 0.0
H935 H 0.50662 0.31192 0.06877 0.0
H936 H 0.54512 0.34376 0.04283 0.0
H937 H 0.61211 0.27807 0.06887 0.0
H938 H 0.57399 0.24609 0.09405 0.0
H939 H 0.61693 0.29435 0.00194 0.0
H940 H 0.60576 0.3444 0.11445 0.0
H941 H 0.57846 0.37033 0.16231 0.0
H942 H 0.55206 0.43898 0.08955 0.0
H943 H 0.57888 0.41323 0.04111 0.0
C944 C 0.728 0.38337 0.97459 0.0
C945 C 0.72259 0.40499 0.9485 0.0
C946 C 0.70421 0.37005 0.99222 0.0
C947 C 0.67484 0.37866 0.98454 0.0
C948 C 0.66943 0.40122 0.95977 0.0
C949 C 0.69315 0.41407 0.94154 0.0
C950 C 0.64978 0.36255 0.00062 0.0
C951 C 0.63258 0.37672 0.02679 0.0
C952 C 0.64393 0.33268 0.99129 0.0
C953 C 0.66039 0.31736 0.96229 0.0
C954 C 0.65991 0.32887 0.92763 0.0
C955 C 0.67535 0.31434 0.90034 0.0
C956 C 0.69126 0.28817 0.90733 0.0
C957 C 0.69166 0.27644 0.94164 0.0
C958 C 0.67623 0.29089 0.96904 0.0
C959 C 0.52963 0.3045 0.06935 0.0
C960 C 0.53727 0.27646 0.08329 0.0
C961 C 0.55158 0.32271 0.05459 0.0
C962 C 0.58147 0.31326 0.05399 0.0
C963 C 0.58916 0.2857 0.06888 0.0
C964 C 0.56732 0.26747 0.08332 0.0
C965 C 0.60472 0.33108 0.03615 0.0
C966 C 0.62159 0.31725 0.00931 0.0
C967 C 0.61022 0.36124 0.045 0.0
C968 C 0.59403 0.3767 0.07406 0.0
C969 C 0.5939 0.36488 0.10858 0.0
C970 C 0.57856 0.37957 0.13582 0.0
C971 C 0.56345 0.40623 0.12895 0.0
C972 C 0.56372 0.4183 0.09482 0.0
C973 C 0.579 0.40367 0.06746 0.0
H974 H 0.5516 0.41758 0.15008 0.0
H975 H 0.70317 0.27693 0.88615 0.0
H976 H 0.64614 0.24233 0.53591 0.0
H977 H 0.67935 0.27922 0.50944 0.0
H978 H 0.60522 0.33983 0.49706 0.0
H979 H 0.57185 0.3031 0.52282 0.0
H980 H 0.64363 0.34187 0.44068 0.0
H981 H 0.65014 0.3418 0.57056 0.0
H982 H 0.66013 0.31592 0.62705 0.0
H983 H 0.74944 0.29649 0.59294 0.0
H984 H 0.73982 0.32179 0.53601 0.0
H985 H 0.70207 0.48495 0.43475 0.0
H986 H 0.67581 0.44023 0.45351 0.0
H987 H 0.75985 0.39582 0.47205 0.0
H988 H 0.78635 0.44101 0.45444 0.0
H989 H 0.72184 0.38054 0.52145 0.0
H990 H 0.71935 0.38311 0.39558 0.0
H991 H 0.71127 0.40483 0.33634 0.0
H992 H 0.61808 0.41564 0.35913 0.0
H993 H 0.62567 0.3944 0.41874 0.0
C994 C 0.6368 0.2633 0.52696 0.0
C995 C 0.60643 0.26998 0.53209 0.0
C996 C 0.65584 0.28438 0.51196 0.0
C997 C 0.64483 0.31248 0.50203 0.0
C998 C 0.61421 0.31837 0.50482 0.0
C999 C 0.59518 0.29735 0.51972 0.0
C1000 C 0.66519 0.33672 0.49126 0.0
C1001 C 0.66063 0.35046 0.45836 0.0
C1002 C 0.68804 0.34722 0.51392 0.0
C1003 C 0.69416 0.33337 0.54888 0.0
C1004 C 0.67188 0.33194 0.57509 0.0
C1005 C 0.67746 0.31734 0.60715 0.0
C1006 C 0.70533 0.30439 0.61344 0.0
C1007 C 0.72782 0.3064 0.58793 0.0
C1008 C 0.72232 0.32087 0.55578 0.0
C1009 C 0.71498 0.46575 0.4431 0.0
C1010 C 0.74627 0.46638 0.44272 0.0
C1011 C 0.69994 0.44013 0.45363 0.0
C1012 C 0.71585 0.41436 0.46324 0.0
C1013 C 0.74711 0.41534 0.46445 0.0
C1014 C 0.76221 0.44119 0.45439 0.0
C1015 C 0.6997 0.38634 0.47118 0.0
C1016 C 0.70507 0.37185 0.50352 0.0
C1017 C 0.6779 0.37482 0.44774 0.0
C1018 C 0.67314 0.38735 0.41175 0.0
C1019 C 0.69716 0.39028 0.38805 0.0
C1020 C 0.69267 0.4025 0.3544 0.0
C1021 C 0.66419 0.41166 0.34401 0.0
C1022 C 0.64013 0.40855 0.36723 0.0
C1023 C 0.64451 0.39639 0.40094 0.0
H1024 H 0.66076 0.42112 0.31794 0.0
H1025 H 0.70957 0.2928 0.63806 0.0
H1026 H 0.48935 0.30632 0.55482 0.0
H1027 H 0.44798 0.33454 0.52934 0.0
H1028 H 0.40153 0.25259 0.50735 0.0
H1029 H 0.44338 0.22413 0.53169 0.0
H1030 H 0.39215 0.28985 0.4553 0.0
H1031 H 0.38529 0.29563 0.58134 0.0
H1032 H 0.40264 0.30485 0.64242 0.0
H1033 H 0.41747 0.39689 0.61749 0.0
H1034 H 0.40063 0.38812 0.55607 0.0
H1035 H 0.24608 0.36355 0.45948 0.0
H1036 H 0.28776 0.33458 0.48412 0.0
H1037 H 0.34944 0.40131 0.44811 0.0
H1038 H 0.30811 0.42989 0.42239 0.0
H1039 H 0.34849 0.37029 0.53002 0.0
H1040 H 0.36001 0.35901 0.39943 0.0
H1041 H 0.3383 0.34763 0.34081 0.0
H1042 H 0.3092 0.26255 0.37896 0.0
H1043 H 0.33037 0.27368 0.43799 0.0
C1044 C 0.47044 0.29429 0.54429 0.0
C1045 C 0.46947 0.26302 0.54569 0.0
C1046 C 0.44674 0.31045 0.52985 0.0
C1047 C 0.42129 0.29573 0.51724 0.0
C1048 C 0.42084 0.26445 0.51712 0.0
C1049 C 0.44476 0.24822 0.5311 0.0
C1050 C 0.3948 0.31305 0.50545 0.0
C1051 C 0.38256 0.30725 0.47183 0.0
C1052 C 0.38199 0.33572 0.527 0.0
C1053 C 0.39197 0.34114 0.56399 0.0
C1054 C 0.39246 0.31779 0.5888 0.0
C1055 C 0.40217 0.32294 0.6235 0.0
C1056 C 0.41122 0.35142 0.6338 0.0
C1057 C 0.4105 0.37483 0.60946 0.0
C1058 C 0.40085 0.36978 0.5747 0.0
C1059 C 0.2685 0.37218 0.45722 0.0
C1060 C 0.274 0.3988 0.43886 0.0
C1061 C 0.29219 0.35561 0.47114 0.0
C1062 C 0.3215 0.3658 0.46748 0.0
C1063 C 0.3269 0.3931 0.45085 0.0
C1064 C 0.30335 0.40932 0.43622 0.0
C1065 C 0.3467 0.34745 0.47989 0.0
C1066 C 0.35837 0.35292 0.51367 0.0
C1067 C 0.35865 0.32424 0.4588 0.0
C1068 C 0.34643 0.31733 0.42319 0.0
C1069 C 0.34872 0.33801 0.3954 0.0
C1070 C 0.33658 0.33158 0.36209 0.0
C1071 C 0.32228 0.30443 0.35619 0.0
C1072 C 0.32022 0.2836 0.38358 0.0
C1073 C 0.3323 0.28995 0.41695 0.0
H1074 H 0.31288 0.2995 0.3304 0.0
H1075 H 0.41874 0.35537 0.66068 0.0
H1076 H 0.43385 0.69308 0.52517 0.0
H1077 H 0.40527 0.65321 0.49709 0.0
H1078 H 0.32502 0.70584 0.50703 0.0
H1079 H 0.35339 0.74587 0.53513 0.0
H1080 H 0.31873 0.64819 0.53262 0.0
H1081 H 0.35552 0.69639 0.42758 0.0
H1082 H 0.39411 0.71728 0.38841 0.0
H1083 H 0.43686 0.63164 0.38158 0.0
H1084 H 0.39875 0.61032 0.42115 0.0
H1085 H 0.22178 0.56154 0.42738 0.0
H1086 H 0.25237 0.60188 0.45079 0.0
H1087 H 0.33129 0.54786 0.43688 0.0
H1088 H 0.30085 0.50728 0.41321 0.0
H1089 H 0.33926 0.60532 0.41354 0.0
H1090 H 0.30356 0.55638 0.517 0.0
H1091 H 0.26574 0.53412 0.5561 0.0
H1092 H 0.22267 0.61925 0.56749 0.0
H1093 H 0.25989 0.64195 0.52781 0.0
C1094 C 0.41019 0.69636 0.52095 0.0
C1095 C 0.39591 0.72266 0.53245 0.0
C1096 C 0.3939 0.67356 0.50486 0.0
C1097 C 0.36303 0.67657 0.50001 0.0
C1098 C 0.34883 0.70306 0.51062 0.0
C1099 C 0.36513 0.726 0.52644 0.0
C1100 C 0.34538 0.65157 0.48526 0.0
C1101 C 0.3229 0.63909 0.50638 0.0
C1102 C 0.35156 0.63907 0.45153 0.0
C1103 C 0.37444 0.65183 0.42762 0.0
C1104 C 0.37329 0.68206 0.41798 0.0
C1105 C 0.39505 0.69398 0.39565 0.0
C1106 C 0.41797 0.67582 0.38259 0.0
C1107 C 0.41912 0.64569 0.39176 0.0
C1108 C 0.39743 0.63367 0.4141 0.0
C1109 C 0.24564 0.55818 0.42922 0.0
C1110 C 0.25885 0.53115 0.41839 0.0
C1111 C 0.26308 0.58125 0.44273 0.0
C1112 C 0.29406 0.57778 0.44579 0.0
C1113 C 0.30741 0.55098 0.4347 0.0
C1114 C 0.28995 0.5278 0.42131 0.0
C1115 C 0.31241 0.60217 0.46074 0.0
C1116 C 0.33507 0.61444 0.43977 0.0
C1117 C 0.30659 0.61429 0.49477 0.0
C1118 C 0.28438 0.60083 0.51911 0.0
C1119 C 0.2859 0.57033 0.5276 0.0
C1120 C 0.26458 0.55763 0.5499 0.0
C1121 C 0.24179 0.57524 0.56422 0.0
C1122 C 0.24032 0.60562 0.55634 0.0
C1123 C 0.26153 0.61843 0.53394 0.0
H1124 H 0.2253 0.56535 0.58147 0.0
H1125 H 0.43479 0.68509 0.36531 0.0
H1126 H 0.70073 0.56344 0.47897 0.0
H1127 H 0.6604 0.59315 0.50462 0.0
H1128 H 0.7136 0.67244 0.49476 0.0
H1129 H 0.75426 0.64286 0.46919 0.0
H1130 H 0.6791 0.67308 0.55572 0.0
H1131 H 0.66647 0.65842 0.43178 0.0
H1132 H 0.66481 0.62921 0.37636 0.0
H1133 H 0.59008 0.57997 0.41596 0.0
H1134 H 0.59166 0.60857 0.47195 0.0
H1135 H 0.55553 0.77511 0.55011 0.0
H1136 H 0.59937 0.7465 0.53118 0.0
H1137 H 0.55387 0.66464 0.55523 0.0
H1138 H 0.51005 0.69307 0.57489 0.0
H1139 H 0.58531 0.66721 0.48624 0.0
H1140 H 0.60027 0.6853 0.61202 0.0
H1141 H 0.60387 0.71754 0.66491 0.0
H1142 H 0.67604 0.76535 0.61704 0.0
H1143 H 0.67255 0.73367 0.5636 0.0
C1144 C 0.70411 0.58711 0.48279 0.0
C1145 C 0.73053 0.60085 0.47141 0.0
C1146 C 0.68102 0.60406 0.49744 0.0
C1147 C 0.6838 0.63506 0.50084 0.0
C1148 C 0.71096 0.64855 0.49214 0.0
C1149 C 0.73416 0.63159 0.47749 0.0
C1150 C 0.65747 0.65351 0.51038 0.0
C1151 C 0.6587 0.67203 0.54036 0.0
C1152 C 0.6309 0.65223 0.49017 0.0
C1153 C 0.62937 0.63543 0.45622 0.0
C1154 C 0.6498 0.64123 0.42877 0.0
C1155 C 0.64886 0.6248 0.39724 0.0
C1156 C 0.6274 0.60268 0.39268 0.0
C1157 C 0.60673 0.59708 0.41957 0.0
C1158 C 0.60762 0.61341 0.45121 0.0
C1159 C 0.55476 0.75101 0.55118 0.0
C1160 C 0.52937 0.73633 0.56415 0.0
C1161 C 0.57985 0.73474 0.54046 0.0
C1162 C 0.57984 0.70352 0.54204 0.0
C1163 C 0.55425 0.68874 0.55391 0.0
C1164 C 0.52932 0.70501 0.56521 0.0
C1165 C 0.60676 0.68629 0.53197 0.0
C1166 C 0.60569 0.66815 0.50166 0.0
C1167 C 0.63363 0.68848 0.55141 0.0
C1168 C 0.63594 0.70732 0.58367 0.0
C1169 C 0.61673 0.70286 0.61264 0.0
C1170 C 0.61878 0.721 0.64275 0.0
C1171 C 0.64011 0.74354 0.6443 0.0
C1172 C 0.6595 0.74792 0.61578 0.0
C1173 C 0.65751 0.72986 0.58559 0.0
H1174 H 0.64166 0.75756 0.66763 0.0
H1175 H 0.62675 0.58989 0.36831 0.0
H1176 H 0.47443 0.10785 0.04874 0.0
H1177 H 0.48727 0.0557 0.05729 0.0
H1178 H 0.45729 0.0611 0.16603 0.0
H1179 H 0.44477 0.11412 0.1574 0.0
H1180 H 0.51212 0.03919 0.1626 0.0
H1181 H 0.42169 0.01533 0.10577 0.0
H1182 H 0.38149 0.01806 0.06135 0.0
H1183 H 0.4427 0.99102 0.97967 0.0
H1184 H 0.4834 0.98855 0.02346 0.0
H1185 H 0.53864 0.8799 0.17173 0.0
H1186 H 0.52254 0.93188 0.17577 0.0
H1187 H 0.55426 0.94708 0.06933 0.0
H1188 H 0.57045 0.89494 0.06517 0.0
H1189 H 0.49335 0.95639 0.07827 0.0
H1190 H 0.58443 0.98297 0.13829 0.0
H1191 H 0.62267 0.9798 0.18505 0.0
H1192 H 0.55678 1.00027 0.26421 0.0
H1193 H 0.51801 0.00303 0.21801 0.0
C1194 C 0.46959 0.09759 0.07409 0.0
C1195 C 0.45839 0.11467 0.10233 0.0
C1196 C 0.47688 0.06777 0.07898 0.0
C1197 C 0.47304 0.05437 0.11223 0.0
C1198 C 0.46026 0.071 0.1401 0.0
C1199 C 0.4528 0.10106 0.1351 0.0
C1200 C 0.48577 0.02428 0.11822 0.0
C1201 C 0.50752 0.0208 0.1447 0.0
C1202 C 0.4801 1.00049 0.09451 0.0
C1203 C 0.45567 0.0019 0.06795 0.0
C1204 C 0.42665 0.01017 0.07829 0.0
C1205 C 0.40376 0.01164 0.05322 0.0
C1206 C 0.40955 0.00475 0.01771 0.0
C1207 C 0.43824 0.99634 0.00719 0.0
C1208 C 0.46123 0.99485 0.03215 0.0
C1209 C 0.54331 0.8947 0.14976 0.0
C1210 C 0.5556 0.88349 0.11805 0.0
C1211 C 0.53406 0.92436 0.1521 0.0
C1212 C 0.53695 0.94318 0.12273 0.0
C1213 C 0.55181 0.93277 0.09224 0.0
C1214 C 0.56132 0.90311 0.08999 0.0
C1215 C 0.5204 0.97175 0.12175 0.0
C1216 C 0.49775 0.97472 0.09634 0.0
C1217 C 0.52491 0.99476 0.14686 0.0
C1218 C 0.54821 0.99279 0.17468 0.0
C1219 C 0.578 0.98641 0.1657 0.0
C1220 C 0.5998 0.98477 0.19211 0.0
C1221 C 0.59214 0.98971 0.22759 0.0
C1222 C 0.56267 0.99636 0.23673 0.0
C1223 C 0.54078 0.99796 0.21044 0.0
H1224 H 0.60907 0.98847 0.24798 0.0
H1225 H 0.39179 0.0059 -0.00166 0.0
H1226 H 0.881 0.45147 0.82572 0.0
H1227 H 0.93125 0.46951 0.81119 0.0
H1228 H 0.95426 0.46774 0.92226 0.0
H1229 H 0.90431 0.44993 0.93668 0.0
H1230 H 0.95714 0.52504 0.88762 0.0
H1231 H 0.98646 0.42045 0.86729 0.0
H1232 H 0.98258 0.37268 0.83515 0.0
H1233 H 0.00188 0.41685 0.73694 0.0
H1234 H 0.00543 0.46496 0.76843 0.0
H1235 H 0.10527 0.55585 0.92318 0.0
H1236 H 0.05379 0.54081 0.91476 0.0
H1237 H 0.07111 0.52478 0.80351 0.0
H1238 H 0.12363 0.53735 0.81301 0.0
H1239 H 0.04361 0.48133 0.82389 0.0
H1240 H 0.02072 0.58286 0.83802 0.0
H1241 H 0.02188 0.63376 0.86272 0.0
H1242 H 0.98616 0.60188 0.96115 0.0
H1243 H 0.98516 0.5507 0.93727 0.0
C1244 C 0.8974 0.4535 0.84668 0.0
C1245 C 0.88926 0.44881 0.88222 0.0
C1246 C 0.92589 0.46408 0.83843 0.0
C1247 C 0.94628 0.47012 0.86573 0.0
C1248 C 0.93877 0.46323 0.90088 0.0
C1249 C 0.91044 0.45273 0.90907 0.0
C1250 C 0.9739 0.487 0.8589 0.0
C1251 C 0.97622 0.51554 0.87388 0.0
C1252 C 0.99784 0.47536 0.83885 0.0
C1253 C 0.99586 0.44634 0.82016 0.0
C1254 C 0.98959 0.42002 0.8388 0.0
C1255 C 0.98751 0.39287 0.8207 0.0
C1256 C 0.99189 0.39174 0.78401 0.0
C1257 C 0.99847 0.41775 0.76535 0.0
C1258 C 1.00052 0.44495 0.78331 0.0
C1259 C 0.0978 0.55005 0.89672 0.0
C1260 C 0.11814 0.54806 0.86861 0.0
C1261 C 0.06824 0.54151 0.89179 0.0
C1262 C 0.05813 0.53198 0.85828 0.0
C1263 C 0.07822 0.53187 0.82963 0.0
C1264 C 0.10809 0.53939 0.8349 0.0
C1265 C 0.02774 0.51907 0.85447 0.0
C1266 C 0.02461 0.49139 0.83718 0.0
C1267 C 0.00256 0.53205 0.87127 0.0
C1268 C 0.00298 0.56286 0.88584 0.0
C1269 C 0.01326 0.58665 0.86501 0.0
C1270 C 0.01388 0.61557 0.87886 0.0
C1271 C 0.00413 0.62104 0.91349 0.0
C1272 C 0.99368 0.59761 0.93432 0.0
C1273 C 0.99303 0.56864 0.92061 0.0
H1274 H 0.00463 0.64345 0.92417 0.0
H1275 H 0.99026 0.3707 0.77006 0.0
H1276 H 0.42291 0.90074 0.57923 0.0
H1277 H 0.43819 0.95254 0.58839 0.0
H1278 H 0.48269 0.92748 0.68528 0.0
H1279 H 0.46793 0.87574 0.67602 0.0
H1280 H 0.43605 0.9976 0.63793 0.0
H1281 H 0.5522 0.95646 0.68326 0.0
H1282 H 0.58341 0.91118 0.67829 0.0
H1283 H 0.54018 0.88821 0.58043 0.0
H1284 H 0.50912 0.93357 0.58452 0.0
H1285 H 0.51482 0.12751 0.67677 0.0
H1286 H 0.49753 0.07642 0.68526 0.0
H1287 H 0.54795 0.04821 0.5935 0.0
H1288 H 0.5662 0.099 0.58577 0.0
H1289 H 0.54647 0.00463 0.639 0.0
H1290 H 0.47364 0.07035 0.58753 0.0
H1291 H 0.4422 0.11554 0.58524 0.0
H1292 H 0.3984 0.0895 0.68151 0.0
H1293 H 0.4299 0.04434 0.68463 0.0
C1294 C 0.43501 0.90648 0.60313 0.0
C1295 C 0.44459 0.88417 0.62665 0.0
C1296 C 0.44382 0.93608 0.60828 0.0
C1297 C 0.4622 0.94368 0.63706 0.0
C1298 C 0.469 0.92197 0.66254 0.0
C1299 C 0.46045 0.89245 0.65728 0.0
C1300 C 0.47733 0.97301 0.63807 0.0
C1301 C 0.46016 0.99917 0.63847 0.0
C1302 C 0.50883 0.97505 0.63774 0.0
C1303 C 0.52814 0.94824 0.63444 0.0
C1304 C 0.5495 0.94183 0.66059 0.0
C1305 C 0.56714 0.91614 0.65794 0.0
C1306 C 0.56371 0.89678 0.62913 0.0
C1307 C 0.54276 0.90317 0.60279 0.0
C1308 C 0.52514 0.92886 0.60527 0.0
C1309 C 0.52296 0.11018 0.65911 0.0
C1310 C 0.54166 0.11724 0.63044 0.0
C1311 C 0.51286 0.08106 0.66379 0.0
C1312 C 0.52067 0.05865 0.63935 0.0
C1313 C 0.54142 0.06515 0.61255 0.0
C1314 C 0.55196 0.09419 0.60823 0.0
C1315 C 0.50523 0.02939 0.63958 0.0
C1316 C 0.52235 0.00316 0.63909 0.0
C1317 C 0.47368 0.02733 0.6387 0.0
C1318 C 0.45429 0.05413 0.63648 0.0
C1319 C 0.45738 0.07434 0.60828 0.0
C1320 C 0.43957 0.09995 0.60684 0.0
C1321 C 0.41836 0.10543 0.63326 0.0
C1322 C 0.41486 0.08525 0.6611 0.0
C1323 C 0.43267 0.05963 0.66271 0.0
H1324 H 0.40461 0.12528 0.63212 0.0
H1325 H 0.57732 0.87686 0.62719 0.0
H1326 H 0.87487 0.5399 0.31118 0.0
H1327 H 0.92551 0.52419 0.29516 0.0
H1328 H 0.95527 0.54558 0.40099 0.0
H1329 H 0.90541 0.56334 0.41605 0.0
H1330 H 0.99943 0.5515 0.36025 0.0
H1331 H 0.92458 0.47236 0.37269 0.0
H1332 H 0.8769 0.44951 0.35489 0.0
H1333 H 0.90878 0.44046 0.24794 0.0
H1334 H 0.95654 0.46349 0.2651 0.0
H1335 H 0.08915 0.44181 0.4238 0.0
H1336 H 0.03983 0.45936 0.40576 0.0
H1337 H 0.06886 0.46212 0.29678 0.0
H1338 H 0.11847 0.44426 0.3149 0.0
H1339 H 0.99826 0.44531 0.32268 0.0
H1340 H 0.07802 0.52098 0.31712 0.0
H1341 H 0.12414 0.54273 0.34158 0.0
H1342 H 0.08108 0.55581 0.44215 0.0
H1343 H 0.03475 0.5341 0.41834 0.0
C1344 C 0.89264 0.54249 0.33036 0.0
C1345 C 0.88641 0.55274 0.36481 0.0
C1346 C 0.92143 0.53318 0.32136 0.0
C1347 C 0.94396 0.5326 0.3472 0.0
C1348 C 0.93829 0.54554 0.38057 0.0
C1349 C 0.90978 0.55581 0.3892 0.0
C1350 C 0.97201 0.51541 0.34151 0.0
C1351 C 0.99909 0.52844 0.35157 0.0
C1352 C 0.97189 0.48524 0.32988 0.0
C1353 C 0.94401 0.4697 0.32012 0.0
C1354 C 0.92143 0.46532 0.34543 0.0
C1355 C 0.89439 0.45244 0.33544 0.0
C1356 C 0.88981 0.44357 0.3003 0.0
C1357 C 0.91237 0.44732 0.27515 0.0
C1358 C 0.93944 0.46023 0.285 0.0
C1359 C 0.08445 0.44454 0.39579 0.0
C1360 C 0.10723 0.44135 0.37062 0.0
C1361 C 0.05638 0.45468 0.38553 0.0
C1362 C 0.05089 0.46211 0.35002 0.0
C1363 C 0.0727 0.45616 0.32423 0.0
C1364 C 0.10089 0.44581 0.33454 0.0
C1365 C 0.02508 0.48144 0.34204 0.0
C1366 C 0.99857 0.46873 0.32987 0.0
C1367 C 0.02554 0.51179 0.35213 0.0
C1368 C 0.05301 0.52584 0.36601 0.0
C1369 C 0.07844 0.52843 0.34447 0.0
C1370 C 0.1046 0.54072 0.3582 0.0
C1371 C 0.10557 0.55049 0.3934 0.0
C1372 C 0.08031 0.54822 0.41489 0.0
C1373 C 0.05407 0.53603 0.40127 0.0
H1374 H 0.12588 0.5599 0.404 0.0
H1375 H 0.8688 0.43377 0.29256 0.0
loop_
_geom_bond_atom_site_label_1
_geom_bond_atom_site_label_2
_geom_bond_distance
_geom_bond_site_symmetry_2
_ccdc_geom_bond_type
Fe0 O2 1.918 . S
Fe0 O5 1.997 . S
Fe0 O6 2.002 . S
Fe0 O11 1.976 . S
Fe0 O14 1.996 . S
Fe1 O2 1.918 . S
Fe1 O9 1.997 . S
Fe1 O12 1.996 . S
Fe1 O16 1.976 . S
Fe1 O19 2.002 . S
O2 Fe0 1.918 . S
O2 Fe1 1.918 . S
O2 Fe3 1.918 . S
Fe3 O2 1.918 . S
Fe3 O4 2.002 . S
Fe3 O13 1.976 . S
Fe3 O17 1.996 . S
Fe3 O20 1.997 . S
O4 Fe3 2.002 . S
O4 C21 1.295 . S
O5 Fe0 1.997 . S
O5 C21 1.235 . S
O6 Fe0 2.002 . S
O6 C7 1.295 . S
C7 O6 1.295 . S
C7 O9 1.235 . S
C8 O13 1.287 . S
C8 O14 1.255 . S
O9 Fe1 1.997 . S
O9 C7 1.235 . S
C10 O16 1.287 . S
C10 O17 1.255 . S
O11 Fe0 1.976 . S
O11 C18 1.287 . S
O12 Fe1 1.996 . S
O12 C18 1.255 . S
O13 Fe3 1.976 . S
O13 C8 1.287 . S
O14 Fe0 1.996 . S
O14 C8 1.255 . S
C15 O19 1.295 . S
C15 O20 1.235 . S
O16 Fe1 1.976 . S
O16 C10 1.287 . S
O17 Fe3 1.996 . S
O17 C10 1.255 . S
C18 O11 1.287 . S
C18 O12 1.255 . S
O19 Fe1 2.002 . S
O19 C15 1.295 . S
O20 Fe3 1.997 . S
O20 C15 1.235 . S
C21 O4 1.295 . S
C21 O5 1.235 . S
Fe22 O24 1.918 . S
Fe22 O27 1.997 . S
Fe22 O28 2.002 . S
Fe22 O33 1.976 . S
Fe22 O36 1.996 . S
Fe23 O24 1.918 . S
Fe23 O31 1.997 . S
Fe23 O34 1.996 . S
Fe23 O38 1.976 . S
Fe23 O41 2.002 . S
O24 Fe22 1.918 . S
O24 Fe23 1.918 . S
O24 Fe25 1.918 . S
Fe25 O24 1.918 . S
Fe25 O26 2.002 . S
Fe25 O35 1.976 . S
Fe25 O39 1.996 . S
Fe25 O42 1.997 . S
O26 Fe25 2.002 . S
O26 C43 1.295 . S
O27 Fe22 1.997 . S
O27 C43 1.235 . S
O28 Fe22 2.002 . S
O28 C29 1.295 . S
C29 O28 1.295 . S
C29 O31 1.235 . S
C30 O35 1.287 . S
C30 O36 1.255 . S
O31 Fe23 1.997 . S
O31 C29 1.235 . S
C32 O38 1.287 . S
C32 O39 1.255 . S
O33 Fe22 1.976 . S
O33 C40 1.287 . S
O34 Fe23 1.996 . S
O34 C40 1.255 . S
O35 Fe25 1.976 . S
O35 C30 1.287 . S
O36 Fe22 1.996 . S
O36 C30 1.255 . S
C37 O41 1.295 . S
C37 O42 1.235 . S
O38 Fe23 1.976 . S
O38 C32 1.287 . S
O39 Fe25 1.996 . S
O39 C32 1.255 . S
C40 O33 1.287 . S
C40 O34 1.255 . S
O41 Fe23 2.002 . S
O41 C37 1.295 . S
O42 Fe25 1.997 . S
O42 C37 1.235 . S
C43 O26 1.295 . S
C43 O27 1.235 . S
Fe44 O46 1.918 . S
Fe44 O49 1.997 . S
Fe44 O50 2.002 . S
Fe44 O55 1.976 . S
Fe44 O58 1.996 . S
Fe45 O46 1.918 . S
Fe45 O53 1.997 . S
Fe45 O56 1.996 . S
Fe45 O60 1.976 . S
Fe45 O63 2.002 . S
O46 Fe44 1.918 . S
O46 Fe45 1.918 . S
O46 Fe47 1.918 . S
Fe47 O46 1.918 . S
Fe47 O48 2.002 . S
Fe47 O57 1.976 . S
Fe47 O61 1.996 . S
Fe47 O64 1.997 . S
O48 Fe47 2.002 . S
O48 C65 1.295 . S
O49 Fe44 1.997 . S
O49 C65 1.235 . S
O50 Fe44 2.002 . S
O50 C51 1.295 . S
C51 O50 1.295 . S
C51 O53 1.235 . S
C52 O57 1.287 . S
C52 O58 1.255 . S
O53 Fe45 1.997 . S
O53 C51 1.235 . S
C54 O60 1.287 . S
C54 O61 1.255 . S
O55 Fe44 1.976 . S
O55 C62 1.287 . S
O56 Fe45 1.996 . S
O56 C62 1.255 . S
O57 Fe47 1.976 . S
O57 C52 1.287 . S
O58 Fe44 1.996 . S
O58 C52 1.255 . S
C59 O63 1.295 . S
C59 O64 1.235 . S
O60 Fe45 1.976 . S
O60 C54 1.287 . S
O61 Fe47 1.996 . S
O61 C54 1.255 . S
C62 O55 1.287 . S
C62 O56 1.255 . S
O63 Fe45 2.002 . S
O63 C59 1.295 . S
O64 Fe47 1.997 . S
O64 C59 1.235 . S
C65 O48 1.295 . S
C65 O49 1.235 . S
Fe66 O68 1.918 . S
Fe66 O71 1.997 . S
Fe66 O72 2.002 . S
Fe66 O77 1.976 . S
Fe66 O80 1.996 . S
Fe67 O68 1.918 . S
Fe67 O75 1.997 . S
Fe67 O78 1.996 . S
Fe67 O82 1.976 . S
Fe67 O85 2.002 . S
O68 Fe66 1.918 . S
O68 Fe67 1.918 . S
O68 Fe69 1.918 . S
Fe69 O68 1.918 . S
Fe69 O70 2.002 . S
Fe69 O79 1.976 . S
Fe69 O83 1.996 . S
Fe69 O86 1.997 . S
O70 Fe69 2.002 . S
O70 C87 1.295 . S
O71 Fe66 1.997 . S
O71 C87 1.235 . S
O72 Fe66 2.002 . S
O72 C73 1.295 . S
C73 O72 1.295 . S
C73 O75 1.235 . S
C74 O79 1.287 . S
C74 O80 1.255 . S
O75 Fe67 1.997 . S
O75 C73 1.235 . S
C76 O82 1.287 . S
C76 O83 1.255 . S
O77 Fe66 1.976 . S
O77 C84 1.287 . S
O78 Fe67 1.996 . S
O78 C84 1.255 . S
O79 Fe69 1.976 . S
O79 C74 1.287 . S
O80 Fe66 1.996 . S
O80 C74 1.255 . S
C81 O85 1.295 . S
C81 O86 1.235 . S
O82 Fe67 1.976 . S
O82 C76 1.287 . S
O83 Fe69 1.996 . S
O83 C76 1.255 . S
C84 O77 1.287 . S
C84 O78 1.255 . S
O85 Fe67 2.002 . S
O85 C81 1.295 . S
O86 Fe69 1.997 . S
O86 C81 1.235 . S
C87 O70 1.295 . S
C87 O71 1.235 . S
Fe88 O90 1.918 . S
Fe88 O93 1.997 . S
Fe88 O94 2.002 . S
Fe88 O99 1.976 . S
Fe88 O102 1.996 . S
Fe89 O90 1.918 . S
Fe89 O97 1.997 . S
Fe89 O100 1.996 . S
Fe89 O104 1.976 . S
Fe89 O107 2.002 . S
O90 Fe88 1.918 . S
O90 Fe89 1.918 . S
O90 Fe91 1.918 . S
Fe91 O90 1.918 . S
Fe91 O92 2.002 . S
Fe91 O101 1.976 . S
Fe91 O105 1.996 . S
Fe91 O108 1.997 . S
O92 Fe91 2.002 . S
O92 C109 1.295 . S
O93 Fe88 1.997 . S
O93 C109 1.235 . S
O94 Fe88 2.002 . S
O94 C95 1.295 . S
C95 O94 1.295 . S
C95 O97 1.235 . S
C96 O101 1.287 . S
C96 O102 1.255 . S
O97 Fe89 1.997 . S
O97 C95 1.235 . S
C98 O104 1.287 . S
C98 O105 1.255 . S
O99 Fe88 1.976 . S
O99 C106 1.287 . S
O100 Fe89 1.996 . S
O100 C106 1.255 . S
O101 Fe91 1.976 . S
O101 C96 1.287 . S
O102 Fe88 1.996 . S
O102 C96 1.255 . S
C103 O107 1.295 . S
C103 O108 1.235 . S
O104 Fe89 1.976 . S
O104 C98 1.287 . S
O105 Fe91 1.996 . S
O105 C98 1.255 . S
C106 O99 1.287 . S
C106 O100 1.255 . S
O107 Fe89 2.002 . S
O107 C103 1.295 . S
O108 Fe91 1.997 . S
O108 C103 1.235 . S
C109 O92 1.295 . S
C109 O93 1.235 . S
Fe110 O112 1.918 . S
Fe110 O115 1.997 . S
Fe110 O116 2.002 . S
Fe110 O121 1.976 . S
Fe110 O124 1.996 . S
Fe111 O112 1.918 . S
Fe111 O119 1.997 . S
Fe111 O122 1.996 . S
Fe111 O126 1.976 . S
Fe111 O129 2.002 . S
O112 Fe110 1.918 . S
O112 Fe111 1.918 . S
O112 Fe113 1.918 . S
Fe113 O112 1.918 . S
Fe113 O114 2.002 . S
Fe113 O123 1.976 . S
Fe113 O127 1.996 . S
Fe113 O130 1.997 . S
O114 Fe113 2.002 . S
O114 C131 1.295 . S
O115 Fe110 1.997 . S
O115 C131 1.235 . S
O116 Fe110 2.002 . S
O116 C117 1.295 . S
C117 O116 1.295 . S
C117 O119 1.235 . S
C118 O123 1.287 . S
C118 O124 1.255 . S
O119 Fe111 1.997 . S
O119 C117 1.235 . S
C120 O126 1.287 . S
C120 O127 1.255 . S
O121 Fe110 1.976 . S
O121 C128 1.287 . S
O122 Fe111 1.996 . S
O122 C128 1.255 . S
O123 Fe113 1.976 . S
O123 C118 1.287 . S
O124 Fe110 1.996 . S
O124 C118 1.255 . S
C125 O129 1.295 . S
C125 O130 1.235 . S
O126 Fe111 1.976 . S
O126 C120 1.287 . S
O127 Fe113 1.996 . S
O127 C120 1.255 . S
C128 O121 1.287 . S
C128 O122 1.255 . S
O129 Fe111 2.002 . S
O129 C125 1.295 . S
O130 Fe113 1.997 . S
O130 C125 1.235 . S
C131 O114 1.295 . S
C131 O115 1.235 . S
Fe132 O134 1.918 . S
Fe132 O137 1.997 . S
Fe132 O138 2.002 . S
Fe132 O143 1.976 . S
Fe132 O146 1.996 . S
Fe133 O134 1.918 . S
Fe133 O141 1.997 . S
Fe133 O144 1.996 . S
Fe133 O148 1.976 . S
Fe133 O151 2.002 . S
O134 Fe132 1.918 . S
O134 Fe133 1.918 . S
O134 Fe135 1.918 . S
Fe135 O134 1.918 . S
Fe135 O136 2.002 . S
Fe135 O145 1.976 . S
Fe135 O149 1.996 . S
Fe135 O152 1.997 . S
O136 Fe135 2.002 . S
O136 C153 1.295 . S
O137 Fe132 1.997 . S
O137 C153 1.235 . S
O138 Fe132 2.002 . S
O138 C139 1.295 . S
C139 O138 1.295 . S
C139 O141 1.235 . S
C140 O145 1.287 . S
C140 O146 1.255 . S
O141 Fe133 1.997 . S
O141 C139 1.235 . S
C142 O148 1.287 . S
C142 O149 1.255 . S
O143 Fe132 1.976 . S
O143 C150 1.287 . S
O144 Fe133 1.996 . S
O144 C150 1.255 . S
O145 Fe135 1.976 . S
O145 C140 1.287 . S
O146 Fe132 1.996 . S
O146 C140 1.255 . S
C147 O151 1.295 . S
C147 O152 1.235 . S
O148 Fe133 1.976 . S
O148 C142 1.287 . S
O149 Fe135 1.996 . S
O149 C142 1.255 . S
C150 O143 1.287 . S
C150 O144 1.255 . S
O151 Fe133 2.002 . S
O151 C147 1.295 . S
O152 Fe135 1.997 . S
O152 C147 1.235 . S
C153 O136 1.295 . S
C153 O137 1.235 . S
Fe154 O156 1.918 . S
Fe154 O159 1.997 . S
Fe154 O160 2.002 . S
Fe154 O165 1.976 . S
Fe154 O168 1.996 . S
Fe155 O156 1.918 . S
Fe155 O163 1.997 . S
Fe155 O166 1.996 . S
Fe155 O170 1.976 . S
Fe155 O173 2.002 . S
O156 Fe154 1.918 . S
O156 Fe155 1.918 . S
O156 Fe157 1.918 . S
Fe157 O156 1.918 . S
Fe157 O158 2.002 . S
Fe157 O167 1.976 . S
Fe157 O171 1.996 . S
Fe157 O174 1.997 . S
O158 Fe157 2.002 . S
O158 C175 1.295 . S
O159 Fe154 1.997 . S
O159 C175 1.235 . S
O160 Fe154 2.002 . S
O160 C161 1.295 . S
C161 O160 1.295 . S
C161 O163 1.235 . S
C162 O167 1.287 . S
C162 O168 1.255 . S
O163 Fe155 1.997 . S
O163 C161 1.235 . S
C164 O170 1.287 . S
C164 O171 1.255 . S
O165 Fe154 1.976 . S
O165 C172 1.287 . S
O166 Fe155 1.996 . S
O166 C172 1.255 . S
O167 Fe157 1.976 . S
O167 C162 1.287 . S
O168 Fe154 1.996 . S
O168 C162 1.255 . S
C169 O173 1.295 . S
C169 O174 1.235 . S
O170 Fe155 1.976 . S
O170 C164 1.287 . S
O171 Fe157 1.996 . S
O171 C164 1.255 . S
C172 O165 1.287 . S
C172 O166 1.255 . S
O173 Fe155 2.002 . S
O173 C169 1.295 . S
O174 Fe157 1.997 . S
O174 C169 1.235 . S
C175 O158 1.295 . S
C175 O159 1.235 . S
H176 C194 0.951 . S
H177 C196 0.951 . S
H178 C198 0.950 . S
H179 C199 0.950 . S
H180 C201 0.950 . S
H181 C204 0.950 . S
H182 C205 0.950 . S
H183 C207 0.950 . S
H184 C208 0.950 . S
H185 C209 0.951 . S
H186 C211 0.951 . S
H187 C213 0.950 . S
H188 C214 0.950 . S
H189 C216 0.950 . S
H190 C219 0.950 . S
H191 C220 0.950 . S
H192 C222 0.950 . S
H193 C223 0.950 . S
C194 H176 0.951 . S
C194 C195 1.366 . S
C194 C196 1.388 . S
C195 C194 1.366 . S
C195 C199 1.385 . S
C196 H177 0.951 . S
C196 C194 1.388 . S
C196 C197 1.366 . S
C197 C196 1.366 . S
C197 C198 1.414 . S
C197 C200 1.499 . S
C198 H178 0.950 . S
C198 C197 1.414 . S
C198 C199 1.374 . S
C199 H179 0.950 . S
C199 C195 1.385 . S
C199 C198 1.374 . S
C200 C197 1.499 . S
C200 C201 1.373 . S
C200 C202 1.389 . S
C201 H180 0.950 . S
C201 C200 1.373 . S
C201 C217 1.377 . S
C202 C200 1.389 . S
C202 C203 1.524 . S
C202 C216 1.377 . S
C203 C202 1.524 . S
C203 C204 1.397 . S
C203 C208 1.363 . S
C204 H181 0.950 . S
C204 C203 1.397 . S
C204 C205 1.334 . S
C205 H182 0.950 . S
C205 C204 1.334 . S
C205 C206 1.287 . S
C206 C205 1.287 . S
C206 C207 1.524 . S
C206 H225 0.913 . S
C207 H183 0.950 . S
C207 C206 1.524 . S
C207 C208 1.415 . S
C208 H184 0.950 . S
C208 C203 1.363 . S
C208 C207 1.415 . S
C209 H185 0.951 . S
C209 C210 1.366 . S
C209 C211 1.388 . S
C210 C209 1.366 . S
C210 C214 1.385 . S
C211 H186 0.951 . S
C211 C209 1.388 . S
C211 C212 1.366 . S
C212 C211 1.366 . S
C212 C213 1.414 . S
C212 C215 1.499 . S
C213 H187 0.950 . S
C213 C212 1.414 . S
C213 C214 1.374 . S
C214 H188 0.950 . S
C214 C210 1.385 . S
C214 C213 1.374 . S
C215 C212 1.499 . S
C215 C216 1.373 . S
C215 C217 1.389 . S
C216 H189 0.950 . S
C216 C202 1.377 . S
C216 C215 1.373 . S
C217 C201 1.377 . S
C217 C215 1.389 . S
C217 C218 1.524 . S
C218 C217 1.524 . S
C218 C219 1.397 . S
C218 C223 1.363 . S
C219 H190 0.950 . S
C219 C218 1.397 . S
C219 C220 1.334 . S
C220 H191 0.950 . S
C220 C219 1.334 . S
C220 C221 1.287 . S
C221 C220 1.287 . S
C221 C222 1.524 . S
C221 H224 0.999 . S
C222 H192 0.950 . S
C222 C221 1.524 . S
C222 C223 1.415 . S
C223 H193 0.950 . S
C223 C218 1.363 . S
C223 C222 1.415 . S
H224 C221 0.999 . S
H225 C206 0.913 . S
H226 C244 0.951 . S
H227 C246 0.951 . S
H228 C248 0.950 . S
H229 C249 0.950 . S
H230 C251 0.950 . S
H231 C254 0.950 . S
H232 C255 0.950 . S
H233 C257 0.950 . S
H234 C258 0.950 . S
H235 C259 0.951 . S
H236 C261 0.951 . S
H237 C263 0.950 . S
H238 C264 0.950 . S
H239 C266 0.950 . S
H240 C269 0.950 . S
H241 C270 0.950 . S
H242 C272 0.950 . S
H243 C273 0.950 . S
C244 H226 0.951 . S
C244 C245 1.366 . S
C244 C246 1.388 . S
C245 C244 1.366 . S
C245 C249 1.385 . S
C246 H227 0.951 . S
C246 C244 1.388 . S
C246 C247 1.366 . S
C247 C246 1.366 . S
C247 C248 1.414 . S
C247 C250 1.499 . S
C248 H228 0.950 . S
C248 C247 1.414 . S
C248 C249 1.374 . S
C249 H229 0.950 . S
C249 C245 1.385 . S
C249 C248 1.374 . S
C250 C247 1.499 . S
C250 C251 1.373 . S
C250 C252 1.389 . S
C251 H230 0.950 . S
C251 C250 1.373 . S
C251 C267 1.377 . S
C252 C250 1.389 . S
C252 C253 1.524 . S
C252 C266 1.377 . S
C253 C252 1.524 . S
C253 C254 1.397 . S
C253 C258 1.363 . S
C254 H231 0.950 . S
C254 C253 1.397 . S
C254 C255 1.334 . S
C255 H232 0.950 . S
C255 C254 1.334 . S
C255 C256 1.287 . S
C256 C255 1.287 . S
C256 C257 1.524 . S
C256 H275 0.913 . S
C257 H233 0.950 . S
C257 C256 1.524 . S
C257 C258 1.415 . S
C258 H234 0.950 . S
C258 C253 1.363 . S
C258 C257 1.415 . S
C259 H235 0.951 . S
C259 C260 1.366 . S
C259 C261 1.388 . S
C260 C259 1.366 . S
C260 C264 1.385 . S
C261 H236 0.951 . S
C261 C259 1.388 . S
C261 C262 1.366 . S
C262 C261 1.366 . S
C262 C263 1.414 . S
C262 C265 1.499 . S
C263 H237 0.950 . S
C263 C262 1.414 . S
C263 C264 1.374 . S
C264 H238 0.950 . S
C264 C260 1.385 . S
C264 C263 1.374 . S
C265 C262 1.499 . S
C265 C266 1.373 . S
C265 C267 1.389 . S
C266 H239 0.950 . S
C266 C252 1.377 . S
C266 C265 1.373 . S
C267 C251 1.377 . S
C267 C265 1.389 . S
C267 C268 1.524 . S
C268 C267 1.524 . S
C268 C269 1.397 . S
C268 C273 1.363 . S
C269 H240 0.950 . S
C269 C268 1.397 . S
C269 C270 1.334 . S
C270 H241 0.950 . S
C270 C269 1.334 . S
C270 C271 1.287 . S
C271 C270 1.287 . S
C271 C272 1.524 . S
C271 H274 0.999 . S
C272 H242 0.950 . S
C272 C271 1.524 . S
C272 C273 1.415 . S
C273 H243 0.950 . S
C273 C268 1.363 . S
C273 C272 1.415 . S
H274 C271 0.999 . S
H275 C256 0.913 . S
H276 C294 0.951 . S
H277 C296 0.951 . S
H278 C298 0.950 . S
H279 C299 0.950 . S
H280 C301 0.950 . S
H281 C304 0.950 . S
H282 C305 0.950 . S
H283 C307 0.950 . S
H284 C308 0.950 . S
H285 C309 0.951 . S
H286 C311 0.951 . S
H287 C313 0.950 . S
H288 C314 0.950 . S
H289 C316 0.950 . S
H290 C319 0.950 . S
H291 C320 0.950 . S
H292 C322 0.950 . S
H293 C323 0.950 . S
C294 H276 0.951 . S
C294 C295 1.366 . S
C294 C296 1.388 . S
C295 C294 1.366 . S
C295 C299 1.385 . S
C296 H277 0.951 . S
C296 C294 1.388 . S
C296 C297 1.366 . S
C297 C296 1.366 . S
C297 C298 1.414 . S
C297 C300 1.499 . S
C298 H278 0.950 . S
C298 C297 1.414 . S
C298 C299 1.374 . S
C299 H279 0.950 . S
C299 C295 1.385 . S
C299 C298 1.374 . S
C300 C297 1.499 . S
C300 C301 1.373 . S
C300 C302 1.389 . S
C301 H280 0.950 . S
C301 C300 1.373 . S
C301 C317 1.377 . S
C302 C300 1.389 . S
C302 C303 1.524 . S
C302 C316 1.377 . S
C303 C302 1.524 . S
C303 C304 1.397 . S
C303 C308 1.363 . S
C304 H281 0.950 . S
C304 C303 1.397 . S
C304 C305 1.334 . S
C305 H282 0.950 . S
C305 C304 1.334 . S
C305 C306 1.287 . S
C306 C305 1.287 . S
C306 C307 1.524 . S
C306 H325 0.913 . S
C307 H283 0.950 . S
C307 C306 1.524 . S
C307 C308 1.415 . S
C308 H284 0.950 . S
C308 C303 1.363 . S
C308 C307 1.415 . S
C309 H285 0.951 . S
C309 C310 1.366 . S
C309 C311 1.388 . S
C310 C309 1.366 . S
C310 C314 1.385 . S
C311 H286 0.951 . S
C311 C309 1.388 . S
C311 C312 1.366 . S
C312 C311 1.366 . S
C312 C313 1.414 . S
C312 C315 1.499 . S
C313 H287 0.950 . S
C313 C312 1.414 . S
C313 C314 1.374 . S
C314 H288 0.950 . S
C314 C310 1.385 . S
C314 C313 1.374 . S
C315 C312 1.499 . S
C315 C316 1.373 . S
C315 C317 1.389 . S
C316 H289 0.950 . S
C316 C302 1.377 . S
C316 C315 1.373 . S
C317 C301 1.377 . S
C317 C315 1.389 . S
C317 C318 1.524 . S
C318 C317 1.524 . S
C318 C319 1.397 . S
C318 C323 1.363 . S
C319 H290 0.950 . S
C319 C318 1.397 . S
C319 C320 1.334 . S
C320 H291 0.950 . S
C320 C319 1.334 . S
C320 C321 1.287 . S
C321 C320 1.287 . S
C321 C322 1.524 . S
C321 H324 0.999 . S
C322 H292 0.950 . S
C322 C321 1.524 . S
C322 C323 1.415 . S
C323 H293 0.950 . S
C323 C318 1.363 . S
C323 C322 1.415 . S
H324 C321 0.999 . S
H325 C306 0.913 . S
H326 C344 0.951 . S
H327 C346 0.951 . S
H328 C348 0.950 . S
H329 C349 0.950 . S
H330 C351 0.950 . S
H331 C354 0.950 . S
H332 C355 0.950 . S
H333 C357 0.950 . S
H334 C358 0.950 . S
H335 C359 0.951 . S
H336 C361 0.951 . S
H337 C363 0.950 . S
H338 C364 0.950 . S
H339 C366 0.950 . S
H340 C369 0.950 . S
H341 C370 0.950 . S
H342 C372 0.950 . S
H343 C373 0.950 . S
C344 H326 0.951 . S
C344 C345 1.366 . S
C344 C346 1.388 . S
C345 C344 1.366 . S
C345 C349 1.385 . S
C346 H327 0.951 . S
C346 C344 1.388 . S
C346 C347 1.366 . S
C347 C346 1.366 . S
C347 C348 1.414 . S
C347 C350 1.499 . S
C348 H328 0.950 . S
C348 C347 1.414 . S
C348 C349 1.374 . S
C349 H329 0.950 . S
C349 C345 1.385 . S
C349 C348 1.374 . S
C350 C347 1.499 . S
C350 C351 1.373 . S
C350 C352 1.389 . S
C351 H330 0.950 . S
C351 C350 1.373 . S
C351 C367 1.377 . S
C352 C350 1.389 . S
C352 C353 1.524 . S
C352 C366 1.377 . S
C353 C352 1.524 . S
C353 C354 1.397 . S
C353 C358 1.363 . S
C354 H331 0.950 . S
C354 C353 1.397 . S
C354 C355 1.334 . S
C355 H332 0.950 . S
C355 C354 1.334 . S
C355 C356 1.287 . S
C356 C355 1.287 . S
C356 C357 1.524 . S
C356 H375 0.913 . S
C357 H333 0.950 . S
C357 C356 1.524 . S
C357 C358 1.415 . S
C358 H334 0.950 . S
C358 C353 1.363 . S
C358 C357 1.415 . S
C359 H335 0.951 . S
C359 C360 1.366 . S
C359 C361 1.388 . S
C360 C359 1.366 . S
C360 C364 1.385 . S
C361 H336 0.951 . S
C361 C359 1.388 . S
C361 C362 1.366 . S
C362 C361 1.366 . S
C362 C363 1.414 . S
C362 C365 1.499 . S
C363 H337 0.950 . S
C363 C362 1.414 . S
C363 C364 1.374 . S
C364 H338 0.950 . S
C364 C360 1.385 . S
C364 C363 1.374 . S
C365 C362 1.499 . S
C365 C366 1.373 . S
C365 C367 1.389 . S
C366 H339 0.950 . S
C366 C352 1.377 . S
C366 C365 1.373 . S
C367 C351 1.377 . S
C367 C365 1.389 . S
C367 C368 1.524 . S
C368 C367 1.524 . S
C368 C369 1.397 . S
C368 C373 1.363 . S
C369 H340 0.950 . S
C369 C368 1.397 . S
C369 C370 1.334 . S
C370 H341 0.950 . S
C370 C369 1.334 . S
C370 C371 1.287 . S
C371 C370 1.287 . S
C371 C372 1.524 . S
C371 H374 0.999 . S
C372 H342 0.950 . S
C372 C371 1.524 . S
C372 C373 1.415 . S
C373 H343 0.950 . S
C373 C368 1.363 . S
C373 C372 1.415 . S
H374 C371 0.999 . S
H375 C356 0.913 . S
H376 C394 0.951 . S
H377 C396 0.951 . S
H378 C398 0.950 . S
H379 C399 0.950 . S
H380 C401 0.950 . S
H381 C404 0.950 . S
H382 C405 0.950 . S
H383 C407 0.950 . S
H384 C408 0.950 . S
H385 C409 0.951 . S
H386 C411 0.951 . S
H387 C413 0.950 . S
H388 C414 0.950 . S
H389 C416 0.950 . S
H390 C419 0.950 . S
H391 C420 0.950 . S
H392 C422 0.950 . S
H393 C423 0.950 . S
C394 H376 0.951 . S
C394 C395 1.366 . S
C394 C396 1.388 . S
C395 C394 1.366 . S
C395 C399 1.385 . S
C396 H377 0.951 . S
C396 C394 1.388 . S
C396 C397 1.366 . S
C397 C396 1.366 . S
C397 C398 1.414 . S
C397 C400 1.499 . S
C398 H378 0.950 . S
C398 C397 1.414 . S
C398 C399 1.374 . S
C399 H379 0.950 . S
C399 C395 1.385 . S
C399 C398 1.374 . S
C400 C397 1.499 . S
C400 C401 1.373 . S
C400 C402 1.389 . S
C401 H380 0.950 . S
C401 C400 1.373 . S
C401 C417 1.377 . S
C402 C400 1.389 . S
C402 C403 1.524 . S
C402 C416 1.377 . S
C403 C402 1.524 . S
C403 C404 1.397 . S
C403 C408 1.363 . S
C404 H381 0.950 . S
C404 C403 1.397 . S
C404 C405 1.334 . S
C405 H382 0.950 . S
C405 C404 1.334 . S
C405 C406 1.287 . S
C406 C405 1.287 . S
C406 C407 1.524 . S
C406 H425 0.913 . S
C407 H383 0.950 . S
C407 C406 1.524 . S
C407 C408 1.415 . S
C408 H384 0.950 . S
C408 C403 1.363 . S
C408 C407 1.415 . S
C409 H385 0.951 . S
C409 C410 1.366 . S
C409 C411 1.388 . S
C410 C409 1.366 . S
C410 C414 1.385 . S
C411 H386 0.951 . S
C411 C409 1.388 . S
C411 C412 1.366 . S
C412 C411 1.366 . S
C412 C413 1.414 . S
C412 C415 1.499 . S
C413 H387 0.950 . S
C413 C412 1.414 . S
C413 C414 1.374 . S
C414 H388 0.950 . S
C414 C410 1.385 . S
C414 C413 1.374 . S
C415 C412 1.499 . S
C415 C416 1.373 . S
C415 C417 1.389 . S
C416 H389 0.950 . S
C416 C402 1.377 . S
C416 C415 1.373 . S
C417 C401 1.377 . S
C417 C415 1.389 . S
C417 C418 1.524 . S
C418 C417 1.524 . S
C418 C419 1.397 . S
C418 C423 1.363 . S
C419 H390 0.950 . S
C419 C418 1.397 . S
C419 C420 1.334 . S
C420 H391 0.950 . S
C420 C419 1.334 . S
C420 C421 1.287 . S
C421 C420 1.287 . S
C421 C422 1.524 . S
C421 H424 0.999 . S
C422 H392 0.950 . S
C422 C421 1.524 . S
C422 C423 1.415 . S
C423 H393 0.950 . S
C423 C418 1.363 . S
C423 C422 1.415 . S
H424 C421 0.999 . S
H425 C406 0.913 . S
H426 C444 0.951 . S
H427 C446 0.951 . S
H428 C448 0.950 . S
H429 C449 0.950 . S
H430 C451 0.950 . S
H431 C454 0.950 . S
H432 C455 0.950 . S
H433 C457 0.950 . S
H434 C458 0.950 . S
H435 C459 0.951 . S
H436 C461 0.951 . S
H437 C463 0.950 . S
H438 C464 0.950 . S
H439 C466 0.950 . S
H440 C469 0.950 . S
H441 C470 0.950 . S
H442 C472 0.950 . S
H443 C473 0.950 . S
C444 H426 0.951 . S
C444 C445 1.366 . S
C444 C446 1.388 . S
C445 C444 1.366 . S
C445 C449 1.385 . S
C446 H427 0.951 . S
C446 C444 1.388 . S
C446 C447 1.366 . S
C447 C446 1.366 . S
C447 C448 1.414 . S
C447 C450 1.499 . S
C448 H428 0.950 . S
C448 C447 1.414 . S
C448 C449 1.374 . S
C449 H429 0.950 . S
C449 C445 1.385 . S
C449 C448 1.374 . S
C450 C447 1.499 . S
C450 C451 1.373 . S
C450 C452 1.389 . S
C451 H430 0.950 . S
C451 C450 1.373 . S
C451 C467 1.377 . S
C452 C450 1.389 . S
C452 C453 1.524 . S
C452 C466 1.377 . S
C453 C452 1.524 . S
C453 C454 1.397 . S
C453 C458 1.363 . S
C454 H431 0.950 . S
C454 C453 1.397 . S
C454 C455 1.334 . S
C455 H432 0.950 . S
C455 C454 1.334 . S
C455 C456 1.287 . S
C456 C455 1.287 . S
C456 C457 1.524 . S
C456 H475 0.913 . S
C457 H433 0.950 . S
C457 C456 1.524 . S
C457 C458 1.415 . S
C458 H434 0.950 . S
C458 C453 1.363 . S
C458 C457 1.415 . S
C459 H435 0.951 . S
C459 C460 1.366 . S
C459 C461 1.388 . S
C460 C459 1.366 . S
C460 C464 1.385 . S
C461 H436 0.951 . S
C461 C459 1.388 . S
C461 C462 1.366 . S
C462 C461 1.366 . S
C462 C463 1.414 . S
C462 C465 1.499 . S
C463 H437 0.950 . S
C463 C462 1.414 . S
C463 C464 1.374 . S
C464 H438 0.950 . S
C464 C460 1.385 . S
C464 C463 1.374 . S
C465 C462 1.499 . S
C465 C466 1.373 . S
C465 C467 1.389 . S
C466 H439 0.950 . S
C466 C452 1.377 . S
C466 C465 1.373 . S
C467 C451 1.377 . S
C467 C465 1.389 . S
C467 C468 1.524 . S
C468 C467 1.524 . S
C468 C469 1.397 . S
C468 C473 1.363 . S
C469 H440 0.950 . S
C469 C468 1.397 . S
C469 C470 1.334 . S
C470 H441 0.950 . S
C470 C469 1.334 . S
C470 C471 1.287 . S
C471 C470 1.287 . S
C471 C472 1.524 . S
C471 H474 0.999 . S
C472 H442 0.950 . S
C472 C471 1.524 . S
C472 C473 1.415 . S
C473 H443 0.950 . S
C473 C468 1.363 . S
C473 C472 1.415 . S
H474 C471 0.999 . S
H475 C456 0.913 . S
H476 C494 0.951 . S
H477 C496 0.951 . S
H478 C498 0.950 . S
H479 C499 0.950 . S
H480 C501 0.950 . S
H481 C504 0.950 . S
H482 C505 0.950 . S
H483 C507 0.950 . S
H484 C508 0.950 . S
H485 C509 0.951 . S
H486 C511 0.951 . S
H487 C513 0.950 . S
H488 C514 0.950 . S
H489 C516 0.950 . S
H490 C519 0.950 . S
H491 C520 0.950 . S
H492 C522 0.950 . S
H493 C523 0.950 . S
C494 H476 0.951 . S
C494 C495 1.366 . S
C494 C496 1.388 . S
C495 C494 1.366 . S
C495 C499 1.385 . S
C496 H477 0.951 . S
C496 C494 1.388 . S
C496 C497 1.366 . S
C497 C496 1.366 . S
C497 C498 1.414 . S
C497 C500 1.499 . S
C498 H478 0.950 . S
C498 C497 1.414 . S
C498 C499 1.374 . S
C499 H479 0.950 . S
C499 C495 1.385 . S
C499 C498 1.374 . S
C500 C497 1.499 . S
C500 C501 1.373 . S
C500 C502 1.389 . S
C501 H480 0.950 . S
C501 C500 1.373 . S
C501 C517 1.377 . S
C502 C500 1.389 . S
C502 C503 1.524 . S
C502 C516 1.377 . S
C503 C502 1.524 . S
C503 C504 1.397 . S
C503 C508 1.363 . S
C504 H481 0.950 . S
C504 C503 1.397 . S
C504 C505 1.334 . S
C505 H482 0.950 . S
C505 C504 1.334 . S
C505 C506 1.287 . S
C506 C505 1.287 . S
C506 C507 1.524 . S
C506 H525 0.913 . S
C507 H483 0.950 . S
C507 C506 1.524 . S
C507 C508 1.415 . S
C508 H484 0.950 . S
C508 C503 1.363 . S
C508 C507 1.415 . S
C509 H485 0.951 . S
C509 C510 1.366 . S
C509 C511 1.388 . S
C510 C509 1.366 . S
C510 C514 1.385 . S
C511 H486 0.951 . S
C511 C509 1.388 . S
C511 C512 1.366 . S
C512 C511 1.366 . S
C512 C513 1.414 . S
C512 C515 1.499 . S
C513 H487 0.950 . S
C513 C512 1.414 . S
C513 C514 1.374 . S
C514 H488 0.950 . S
C514 C510 1.385 . S
C514 C513 1.374 . S
C515 C512 1.499 . S
C515 C516 1.373 . S
C515 C517 1.389 . S
C516 H489 0.950 . S
C516 C502 1.377 . S
C516 C515 1.373 . S
C517 C501 1.377 . S
C517 C515 1.389 . S
C517 C518 1.524 . S
C518 C517 1.524 . S
C518 C519 1.397 . S
C518 C523 1.363 . S
C519 H490 0.950 . S
C519 C518 1.397 . S
C519 C520 1.334 . S
C520 H491 0.950 . S
C520 C519 1.334 . S
C520 C521 1.287 . S
C521 C520 1.287 . S
C521 C522 1.524 . S
C521 H524 0.999 . S
C522 H492 0.950 . S
C522 C521 1.524 . S
C522 C523 1.415 . S
C523 H493 0.950 . S
C523 C518 1.363 . S
C523 C522 1.415 . S
H524 C521 0.999 . S
H525 C506 0.913 . S
H526 C544 0.951 . S
H527 C546 0.951 . S
H528 C548 0.950 . S
H529 C549 0.950 . S
H530 C551 0.950 . S
H531 C554 0.950 . S
H532 C555 0.950 . S
H533 C557 0.950 . S
H534 C558 0.950 . S
H535 C559 0.951 . S
H536 C561 0.951 . S
H537 C563 0.950 . S
H538 C564 0.950 . S
H539 C566 0.950 . S
H540 C569 0.950 . S
H541 C570 0.950 . S
H542 C572 0.950 . S
H543 C573 0.950 . S
C544 H526 0.951 . S
C544 C545 1.366 . S
C544 C546 1.388 . S
C545 C544 1.366 . S
C545 C549 1.385 . S
C546 H527 0.951 . S
C546 C544 1.388 . S
C546 C547 1.366 . S
C547 C546 1.366 . S
C547 C548 1.414 . S
C547 C550 1.499 . S
C548 H528 0.950 . S
C548 C547 1.414 . S
C548 C549 1.374 . S
C549 H529 0.950 . S
C549 C545 1.385 . S
C549 C548 1.374 . S
C550 C547 1.499 . S
C550 C551 1.373 . S
C550 C552 1.389 . S
C551 H530 0.950 . S
C551 C550 1.373 . S
C551 C567 1.377 . S
C552 C550 1.389 . S
C552 C553 1.524 . S
C552 C566 1.377 . S
C553 C552 1.524 . S
C553 C554 1.397 . S
C553 C558 1.363 . S
C554 H531 0.950 . S
C554 C553 1.397 . S
C554 C555 1.334 . S
C555 H532 0.950 . S
C555 C554 1.334 . S
C555 C556 1.287 . S
C556 C555 1.287 . S
C556 C557 1.524 . S
C556 H575 0.913 . S
C557 H533 0.950 . S
C557 C556 1.524 . S
C557 C558 1.415 . S
C558 H534 0.950 . S
C558 C553 1.363 . S
C558 C557 1.415 . S
C559 H535 0.951 . S
C559 C560 1.366 . S
C559 C561 1.388 . S
C560 C559 1.366 . S
C560 C564 1.385 . S
C561 H536 0.951 . S
C561 C559 1.388 . S
C561 C562 1.366 . S
C562 C561 1.366 . S
C562 C563 1.414 . S
C562 C565 1.499 . S
C563 H537 0.950 . S
C563 C562 1.414 . S
C563 C564 1.374 . S
C564 H538 0.950 . S
C564 C560 1.385 . S
C564 C563 1.374 . S
C565 C562 1.499 . S
C565 C566 1.373 . S
C565 C567 1.389 . S
C566 H539 0.950 . S
C566 C552 1.377 . S
C566 C565 1.373 . S
C567 C551 1.377 . S
C567 C565 1.389 . S
C567 C568 1.524 . S
C568 C567 1.524 . S
C568 C569 1.397 . S
C568 C573 1.363 . S
C569 H540 0.950 . S
C569 C568 1.397 . S
C569 C570 1.334 . S
C570 H541 0.950 . S
C570 C569 1.334 . S
C570 C571 1.287 . S
C571 C570 1.287 . S
C571 C572 1.524 . S
C571 H574 0.999 . S
C572 H542 0.950 . S
C572 C571 1.524 . S
C572 C573 1.415 . S
C573 H543 0.950 . S
C573 C568 1.363 . S
C573 C572 1.415 . S
H574 C571 0.999 . S
H575 C556 0.913 . S
H576 C594 0.951 . S
H577 C596 0.951 . S
H578 C598 0.950 . S
H579 C599 0.950 . S
H580 C601 0.950 . S
H581 C604 0.950 . S
H582 C605 0.950 . S
H583 C607 0.950 . S
H584 C608 0.950 . S
H585 C609 0.951 . S
H586 C611 0.951 . S
H587 C613 0.950 . S
H588 C614 0.950 . S
H589 C616 0.950 . S
H590 C619 0.950 . S
H591 C620 0.950 . S
H592 C622 0.950 . S
H593 C623 0.950 . S
C594 H576 0.951 . S
C594 C595 1.366 . S
C594 C596 1.388 . S
C595 C594 1.366 . S
C595 C599 1.385 . S
C596 H577 0.951 . S
C596 C594 1.388 . S
C596 C597 1.366 . S
C597 C596 1.366 . S
C597 C598 1.414 . S
C597 C600 1.499 . S
C598 H578 0.950 . S
C598 C597 1.414 . S
C598 C599 1.374 . S
C599 H579 0.950 . S
C599 C595 1.385 . S
C599 C598 1.374 . S
C600 C597 1.499 . S
C600 C601 1.373 . S
C600 C602 1.389 . S
C601 H580 0.950 . S
C601 C600 1.373 . S
C601 C617 1.377 . S
C602 C600 1.389 . S
C602 C603 1.524 . S
C602 C616 1.377 . S
C603 C602 1.524 . S
C603 C604 1.397 . S
C603 C608 1.363 . S
C604 H581 0.950 . S
C604 C603 1.397 . S
C604 C605 1.334 . S
C605 H582 0.950 . S
C605 C604 1.334 . S
C605 C606 1.287 . S
C606 C605 1.287 . S
C606 C607 1.524 . S
C606 H625 0.913 . S
C607 H583 0.950 . S
C607 C606 1.524 . S
C607 C608 1.415 . S
C608 H584 0.950 . S
C608 C603 1.363 . S
C608 C607 1.415 . S
C609 H585 0.951 . S
C609 C610 1.366 . S
C609 C611 1.388 . S
C610 C609 1.366 . S
C610 C614 1.385 . S
C611 H586 0.951 . S
C611 C609 1.388 . S
C611 C612 1.366 . S
C612 C611 1.366 . S
C612 C613 1.414 . S
C612 C615 1.499 . S
C613 H587 0.950 . S
C613 C612 1.414 . S
C613 C614 1.374 . S
C614 H588 0.950 . S
C614 C610 1.385 . S
C614 C613 1.374 . S
C615 C612 1.499 . S
C615 C616 1.373 . S
C615 C617 1.389 . S
C616 H589 0.950 . S
C616 C602 1.377 . S
C616 C615 1.373 . S
C617 C601 1.377 . S
C617 C615 1.389 . S
C617 C618 1.524 . S
C618 C617 1.524 . S
C618 C619 1.397 . S
C618 C623 1.363 . S
C619 H590 0.950 . S
C619 C618 1.397 . S
C619 C620 1.334 . S
C620 H591 0.950 . S
C620 C619 1.334 . S
C620 C621 1.287 . S
C621 C620 1.287 . S
C621 C622 1.524 . S
C621 H624 0.999 . S
C622 H592 0.950 . S
C622 C621 1.524 . S
C622 C623 1.415 . S
C623 H593 0.950 . S
C623 C618 1.363 . S
C623 C622 1.415 . S
H624 C621 0.999 . S
H625 C606 0.913 . S
H626 C644 0.951 . S
H627 C646 0.951 . S
H628 C648 0.950 . S
H629 C649 0.950 . S
H630 C651 0.950 . S
H631 C654 0.950 . S
H632 C655 0.950 . S
H633 C657 0.950 . S
H634 C658 0.950 . S
H635 C659 0.951 . S
H636 C661 0.951 . S
H637 C663 0.950 . S
H638 C664 0.950 . S
H639 C666 0.950 . S
H640 C669 0.950 . S
H641 C670 0.950 . S
H642 C672 0.950 . S
H643 C673 0.950 . S
C644 H626 0.951 . S
C644 C645 1.366 . S
C644 C646 1.388 . S
C645 C644 1.366 . S
C645 C649 1.385 . S
C646 H627 0.951 . S
C646 C644 1.388 . S
C646 C647 1.366 . S
C647 C646 1.366 . S
C647 C648 1.414 . S
C647 C650 1.499 . S
C648 H628 0.950 . S
C648 C647 1.414 . S
C648 C649 1.374 . S
C649 H629 0.950 . S
C649 C645 1.385 . S
C649 C648 1.374 . S
C650 C647 1.499 . S
C650 C651 1.373 . S
C650 C652 1.389 . S
C651 H630 0.950 . S
C651 C650 1.373 . S
C651 C667 1.377 . S
C652 C650 1.389 . S
C652 C653 1.524 . S
C652 C666 1.377 . S
C653 C652 1.524 . S
C653 C654 1.397 . S
C653 C658 1.363 . S
C654 H631 0.950 . S
C654 C653 1.397 . S
C654 C655 1.334 . S
C655 H632 0.950 . S
C655 C654 1.334 . S
C655 C656 1.287 . S
C656 C655 1.287 . S
C656 C657 1.524 . S
C656 H675 0.913 . S
C657 H633 0.950 . S
C657 C656 1.524 . S
C657 C658 1.415 . S
C658 H634 0.950 . S
C658 C653 1.363 . S
C658 C657 1.415 . S
C659 H635 0.951 . S
C659 C660 1.366 . S
C659 C661 1.388 . S
C660 C659 1.366 . S
C660 C664 1.385 . S
C661 H636 0.951 . S
C661 C659 1.388 . S
C661 C662 1.366 . S
C662 C661 1.366 . S
C662 C663 1.414 . S
C662 C665 1.499 . S
C663 H637 0.950 . S
C663 C662 1.414 . S
C663 C664 1.374 . S
C664 H638 0.950 . S
C664 C660 1.385 . S
C664 C663 1.374 . S
C665 C662 1.499 . S
C665 C666 1.373 . S
C665 C667 1.389 . S
C666 H639 0.950 . S
C666 C652 1.377 . S
C666 C665 1.373 . S
C667 C651 1.377 . S
C667 C665 1.389 . S
C667 C668 1.524 . S
C668 C667 1.524 . S
C668 C669 1.397 . S
C668 C673 1.363 . S
C669 H640 0.950 . S
C669 C668 1.397 . S
C669 C670 1.334 . S
C670 H641 0.950 . S
C670 C669 1.334 . S
C670 C671 1.287 . S
C671 C670 1.287 . S
C671 C672 1.524 . S
C671 H674 0.999 . S
C672 H642 0.950 . S
C672 C671 1.524 . S
C672 C673 1.415 . S
C673 H643 0.950 . S
C673 C668 1.363 . S
C673 C672 1.415 . S
H674 C671 0.999 . S
H675 C656 0.913 . S
H676 C694 0.951 . S
H677 C696 0.951 . S
H678 C698 0.950 . S
H679 C699 0.950 . S
H680 C701 0.950 . S
H681 C704 0.950 . S
H682 C705 0.950 . S
H683 C707 0.950 . S
H684 C708 0.950 . S
H685 C709 0.951 . S
H686 C711 0.951 . S
H687 C713 0.950 . S
H688 C714 0.950 . S
H689 C716 0.950 . S
H690 C719 0.950 . S
H691 C720 0.950 . S
H692 C722 0.950 . S
H693 C723 0.950 . S
C694 H676 0.951 . S
C694 C695 1.366 . S
C694 C696 1.388 . S
C695 C694 1.366 . S
C695 C699 1.385 . S
C696 H677 0.951 . S
C696 C694 1.388 . S
C696 C697 1.366 . S
C697 C696 1.366 . S
C697 C698 1.414 . S
C697 C700 1.499 . S
C698 H678 0.950 . S
C698 C697 1.414 . S
C698 C699 1.374 . S
C699 H679 0.950 . S
C699 C695 1.385 . S
C699 C698 1.374 . S
C700 C697 1.499 . S
C700 C701 1.373 . S
C700 C702 1.389 . S
C701 H680 0.950 . S
C701 C700 1.373 . S
C701 C717 1.377 . S
C702 C700 1.389 . S
C702 C703 1.524 . S
C702 C716 1.377 . S
C703 C702 1.524 . S
C703 C704 1.397 . S
C703 C708 1.363 . S
C704 H681 0.950 . S
C704 C703 1.397 . S
C704 C705 1.334 . S
C705 H682 0.950 . S
C705 C704 1.334 . S
C705 C706 1.287 . S
C706 C705 1.287 . S
C706 C707 1.524 . S
C706 H725 0.913 . S
C707 H683 0.950 . S
C707 C706 1.524 . S
C707 C708 1.415 . S
C708 H684 0.950 . S
C708 C703 1.363 . S
C708 C707 1.415 . S
C709 H685 0.951 . S
C709 C710 1.366 . S
C709 C711 1.388 . S
C710 C709 1.366 . S
C710 C714 1.385 . S
C711 H686 0.951 . S
C711 C709 1.388 . S
C711 C712 1.366 . S
C712 C711 1.366 . S
C712 C713 1.414 . S
C712 C715 1.499 . S
C713 H687 0.950 . S
C713 C712 1.414 . S
C713 C714 1.374 . S
C714 H688 0.950 . S
C714 C710 1.385 . S
C714 C713 1.374 . S
C715 C712 1.499 . S
C715 C716 1.373 . S
C715 C717 1.389 . S
C716 H689 0.950 . S
C716 C702 1.377 . S
C716 C715 1.373 . S
C717 C701 1.377 . S
C717 C715 1.389 . S
C717 C718 1.524 . S
C718 C717 1.524 . S
C718 C719 1.397 . S
C718 C723 1.363 . S
C719 H690 0.950 . S
C719 C718 1.397 . S
C719 C720 1.334 . S
C720 H691 0.950 . S
C720 C719 1.334 . S
C720 C721 1.287 . S
C721 C720 1.287 . S
C721 C722 1.524 . S
C721 H724 0.999 . S
C722 H692 0.950 . S
C722 C721 1.524 . S
C722 C723 1.415 . S
C723 H693 0.950 . S
C723 C718 1.363 . S
C723 C722 1.415 . S
H724 C721 0.999 . S
H725 C706 0.913 . S
H726 C744 0.951 . S
H727 C746 0.951 . S
H728 C748 0.950 . S
H729 C749 0.950 . S
H730 C751 0.950 . S
H731 C754 0.950 . S
H732 C755 0.950 . S
H733 C757 0.950 . S
H734 C758 0.950 . S
H735 C759 0.951 . S
H736 C761 0.951 . S
H737 C763 0.950 . S
H738 C764 0.950 . S
H739 C766 0.950 . S
H740 C769 0.950 . S
H741 C770 0.950 . S
H742 C772 0.950 . S
H743 C773 0.950 . S
C744 H726 0.951 . S
C744 C745 1.366 . S
C744 C746 1.388 . S
C745 C744 1.366 . S
C745 C749 1.385 . S
C746 H727 0.951 . S
C746 C744 1.388 . S
C746 C747 1.366 . S
C747 C746 1.366 . S
C747 C748 1.414 . S
C747 C750 1.499 . S
C748 H728 0.950 . S
C748 C747 1.414 . S
C748 C749 1.374 . S
C749 H729 0.950 . S
C749 C745 1.385 . S
C749 C748 1.374 . S
C750 C747 1.499 . S
C750 C751 1.373 . S
C750 C752 1.389 . S
C751 H730 0.950 . S
C751 C750 1.373 . S
C751 C767 1.377 . S
C752 C750 1.389 . S
C752 C753 1.524 . S
C752 C766 1.377 . S
C753 C752 1.524 . S
C753 C754 1.397 . S
C753 C758 1.363 . S
C754 H731 0.950 . S
C754 C753 1.397 . S
C754 C755 1.334 . S
C755 H732 0.950 . S
C755 C754 1.334 . S
C755 C756 1.287 . S
C756 C755 1.287 . S
C756 C757 1.524 . S
C756 H775 0.913 . S
C757 H733 0.950 . S
C757 C756 1.524 . S
C757 C758 1.415 . S
C758 H734 0.950 . S
C758 C753 1.363 . S
C758 C757 1.415 . S
C759 H735 0.951 . S
C759 C760 1.366 . S
C759 C761 1.388 . S
C760 C759 1.366 . S
C760 C764 1.385 . S
C761 H736 0.951 . S
C761 C759 1.388 . S
C761 C762 1.366 . S
C762 C761 1.366 . S
C762 C763 1.414 . S
C762 C765 1.499 . S
C763 H737 0.950 . S
C763 C762 1.414 . S
C763 C764 1.374 . S
C764 H738 0.950 . S
C764 C760 1.385 . S
C764 C763 1.374 . S
C765 C762 1.499 . S
C765 C766 1.373 . S
C765 C767 1.389 . S
C766 H739 0.950 . S
C766 C752 1.377 . S
C766 C765 1.373 . S
C767 C751 1.377 . S
C767 C765 1.389 . S
C767 C768 1.524 . S
C768 C767 1.524 . S
C768 C769 1.397 . S
C768 C773 1.363 . S
C769 H740 0.950 . S
C769 C768 1.397 . S
C769 C770 1.334 . S
C770 H741 0.950 . S
C770 C769 1.334 . S
C770 C771 1.287 . S
C771 C770 1.287 . S
C771 C772 1.524 . S
C771 H774 0.999 . S
C772 H742 0.950 . S
C772 C771 1.524 . S
C772 C773 1.415 . S
C773 H743 0.950 . S
C773 C768 1.363 . S
C773 C772 1.415 . S
H774 C771 0.999 . S
H775 C756 0.913 . S
H776 C794 0.951 . S
H777 C796 0.951 . S
H778 C798 0.950 . S
H779 C799 0.950 . S
H780 C801 0.950 . S
H781 C804 0.950 . S
H782 C805 0.950 . S
H783 C807 0.950 . S
H784 C808 0.950 . S
H785 C809 0.951 . S
H786 C811 0.951 . S
H787 C813 0.950 . S
H788 C814 0.950 . S
H789 C816 0.950 . S
H790 C819 0.950 . S
H791 C820 0.950 . S
H792 C822 0.950 . S
H793 C823 0.950 . S
C794 H776 0.951 . S
C794 C795 1.366 . S
C794 C796 1.388 . S
C795 C794 1.366 . S
C795 C799 1.385 . S
C796 H777 0.951 . S
C796 C794 1.388 . S
C796 C797 1.366 . S
C797 C796 1.366 . S
C797 C798 1.414 . S
C797 C800 1.499 . S
C798 H778 0.950 . S
C798 C797 1.414 . S
C798 C799 1.374 . S
C799 H779 0.950 . S
C799 C795 1.385 . S
C799 C798 1.374 . S
C800 C797 1.499 . S
C800 C801 1.373 . S
C800 C802 1.389 1_556 S
C801 H780 0.950 . S
C801 C800 1.373 . S
C801 C817 1.377 . S
C802 C800 1.389 1_554 S
C802 C803 1.524 . S
C802 C816 1.377 . S
C803 C802 1.524 . S
C803 C804 1.397 . S
C803 C808 1.363 . S
C804 H781 0.950 . S
C804 C803 1.397 . S
C804 C805 1.334 . S
C805 H782 0.950 . S
C805 C804 1.334 . S
C805 C806 1.287 . S
C806 C805 1.287 . S
C806 C807 1.524 . S
C806 H825 0.913 . S
C807 H783 0.950 . S
C807 C806 1.524 . S
C807 C808 1.415 . S
C808 H784 0.950 . S
C808 C803 1.363 . S
C808 C807 1.415 . S
C809 H785 0.951 . S
C809 C810 1.366 . S
C809 C811 1.388 . S
C810 C809 1.366 . S
C810 C814 1.385 . S
C811 H786 0.951 . S
C811 C809 1.388 . S
C811 C812 1.366 . S
C812 C811 1.366 . S
C812 C813 1.414 . S
C812 C815 1.499 1_554 S
C813 H787 0.950 . S
C813 C812 1.414 . S
C813 C814 1.374 . S
C814 H788 0.950 . S
C814 C810 1.385 . S
C814 C813 1.374 . S
C815 C812 1.499 1_556 S
C815 C816 1.373 1_556 S
C815 C817 1.389 . S
C816 H789 0.950 . S
C816 C802 1.377 . S
C816 C815 1.373 1_554 S
C817 C801 1.377 . S
C817 C815 1.389 . S
C817 C818 1.524 . S
C818 C817 1.524 . S
C818 C819 1.397 . S
C818 C823 1.363 . S
C819 H790 0.950 . S
C819 C818 1.397 . S
C819 C820 1.334 . S
C820 H791 0.950 . S
C820 C819 1.334 . S
C820 C821 1.287 . S
C821 C820 1.287 . S
C821 C822 1.524 . S
C821 H824 0.999 . S
C822 H792 0.950 . S
C822 C821 1.524 . S
C822 C823 1.415 . S
C823 H793 0.950 . S
C823 C818 1.363 . S
C823 C822 1.415 . S
H824 C821 0.999 . S
H825 C806 0.913 . S
H826 C844 0.951 . S
H827 C846 0.951 . S
H828 C848 0.933 1_554 S
H829 C849 0.950 . S
H830 C851 0.963 . S
H831 C854 0.950 . S
H832 C855 0.950 . S
H833 C857 0.950 . S
H834 C858 0.950 . S
H835 C859 0.951 . S
H836 C861 0.951 . S
H837 C863 0.950 . S
H838 C864 0.950 . S
H839 C866 0.950 . S
H840 C869 0.950 . S
H841 C870 0.950 . S
H842 C872 0.957 . S
H843 C873 0.950 . S
C844 H826 0.951 . S
C844 C845 1.366 . S
C844 C846 1.388 . S
C845 C844 1.366 . S
C845 C849 1.385 . S
C846 H827 0.951 . S
C846 C844 1.388 . S
C846 C847 1.366 . S
C847 C846 1.366 . S
C847 C848 1.422 . S
C847 C850 1.499 1_556 S
C848 H828 0.933 1_556 S
C848 C847 1.422 . S
C848 C849 1.384 . S
C849 H829 0.950 . S
C849 C845 1.385 . S
C849 C848 1.384 . S
C850 C847 1.499 1_554 S
C850 C851 1.370 1_554 S
C850 C852 1.389 . S
C851 H830 0.963 . S
C851 C850 1.370 1_556 S
C851 C867 1.369 1_556 S
C852 C850 1.389 . S
C852 C853 1.524 . S
C852 C866 1.377 . S
C853 C852 1.524 . S
C853 C854 1.397 . S
C853 C858 1.363 . S
C854 H831 0.950 . S
C854 C853 1.397 . S
C854 C855 1.334 . S
C855 H832 0.950 . S
C855 C854 1.334 . S
C855 C856 1.287 . S
C856 C855 1.287 . S
C856 C857 1.524 . S
C856 H875 0.913 . S
C857 H833 0.950 . S
C857 C856 1.524 . S
C857 C858 1.415 . S
C858 H834 0.950 . S
C858 C853 1.363 . S
C858 C857 1.415 . S
C859 H835 0.951 . S
C859 C860 1.366 . S
C859 C861 1.388 . S
C860 C859 1.366 . S
C860 C864 1.385 . S
C861 H836 0.951 . S
C861 C859 1.388 . S
C861 C862 1.366 . S
C862 C861 1.366 . S
C862 C863 1.414 . S
C862 C865 1.499 . S
C863 H837 0.950 . S
C863 C862 1.414 . S
C863 C864 1.374 . S
C864 H838 0.950 . S
C864 C860 1.385 . S
C864 C863 1.374 . S
C865 C862 1.499 . S
C865 C866 1.373 . S
C865 C867 1.389 . S
C866 H839 0.950 . S
C866 C852 1.377 . S
C866 C865 1.373 . S
C867 C851 1.369 1_554 S
C867 C865 1.389 . S
C867 C868 1.523 1_554 S
C868 C867 1.523 1_556 S
C868 C869 1.401 . S
C868 C873 1.361 1_556 S
C869 H840 0.950 . S
C869 C868 1.401 . S
C869 C870 1.334 . S
C870 H841 0.950 . S
C870 C869 1.334 . S
C870 C871 1.287 . S
C871 C870 1.287 . S
C871 C872 1.511 1_556 S
C871 H874 0.999 . S
C872 H842 0.957 . S
C872 C871 1.511 1_554 S
C872 C873 1.421 . S
C873 H843 0.950 . S
C873 C868 1.361 1_554 S
C873 C872 1.421 . S
H874 C871 0.999 . S
H875 C856 0.913 . S
H876 C894 0.951 . S
H877 C896 0.951 . S
H878 C898 0.950 . S
H879 C899 0.950 . S
H880 C901 0.950 . S
H881 C904 0.950 . S
H882 C905 0.950 . S
H883 C907 0.950 . S
H884 C908 0.950 . S
H885 C909 0.951 . S
H886 C911 0.951 . S
H887 C913 0.950 . S
H888 C914 0.950 . S
H889 C916 0.950 . S
H890 C919 0.950 . S
H891 C920 0.950 . S
H892 C922 0.950 . S
H893 C923 0.950 . S
C894 H876 0.951 . S
C894 C895 1.366 . S
C894 C896 1.388 . S
C895 C894 1.366 . S
C895 C899 1.385 . S
C896 H877 0.951 . S
C896 C894 1.388 . S
C896 C897 1.366 . S
C897 C896 1.366 . S
C897 C898 1.414 . S
C897 C900 1.499 1_554 S
C898 H878 0.950 . S
C898 C897 1.414 . S
C898 C899 1.374 . S
C899 H879 0.950 . S
C899 C895 1.385 . S
C899 C898 1.374 . S
C900 C897 1.499 1_556 S
C900 C901 1.373 1_556 S
C900 C902 1.389 . S
C901 H880 0.950 . S
C901 C900 1.373 1_554 S
C901 C917 1.377 . S
C902 C900 1.389 . S
C902 C903 1.524 . S
C902 C916 1.377 . S
C903 C902 1.524 . S
C903 C904 1.397 . S
C903 C908 1.363 . S
C904 H881 0.950 . S
C904 C903 1.397 . S
C904 C905 1.334 . S
C905 H882 0.950 . S
C905 C904 1.334 . S
C905 C906 1.287 . S
C906 C905 1.287 . S
C906 C907 1.524 . S
C906 H925 0.913 . S
C907 H883 0.950 . S
C907 C906 1.524 . S
C907 C908 1.415 . S
C908 H884 0.950 . S
C908 C903 1.363 . S
C908 C907 1.415 . S
C909 H885 0.951 . S
C909 C910 1.366 . S
C909 C911 1.388 . S
C910 C909 1.366 . S
C910 C914 1.385 . S
C911 H886 0.951 . S
C911 C909 1.388 . S
C911 C912 1.366 . S
C912 C911 1.366 . S
C912 C913 1.414 . S
C912 C915 1.499 . S
C913 H887 0.950 . S
C913 C912 1.414 . S
C913 C914 1.374 . S
C914 H888 0.950 . S
C914 C910 1.385 . S
C914 C913 1.374 . S
C915 C912 1.499 . S
C915 C916 1.373 . S
C915 C917 1.389 1_556 S
C916 H889 0.950 . S
C916 C902 1.377 . S
C916 C915 1.373 . S
C917 C901 1.377 . S
C917 C915 1.389 1_554 S
C917 C918 1.524 . S
C918 C917 1.524 . S
C918 C919 1.397 . S
C918 C923 1.363 . S
C919 H890 0.950 . S
C919 C918 1.397 . S
C919 C920 1.334 . S
C920 H891 0.950 . S
C920 C919 1.334 . S
C920 C921 1.287 . S
C921 C920 1.287 . S
C921 C922 1.524 . S
C921 H924 0.999 . S
C922 H892 0.950 . S
C922 C921 1.524 . S
C922 C923 1.415 . S
C923 H893 0.950 . S
C923 C918 1.363 . S
C923 C922 1.415 . S
H924 C921 0.999 . S
H925 C906 0.913 . S
H926 C944 0.951 1_554 S
H927 C946 0.951 . S
H928 C948 0.950 . S
H929 C949 0.950 . S
H930 C951 0.950 1_556 S
H931 C954 0.950 . S
H932 C955 0.950 . S
H933 C957 0.950 . S
H934 C958 0.950 . S
H935 C959 0.951 . S
H936 C961 0.951 1_556 S
H937 C963 0.950 . S
H938 C964 0.950 . S
H939 C966 0.950 . S
H940 C969 0.950 . S
H941 C970 0.950 . S
H942 C972 0.950 . S
H943 C973 0.950 . S
C944 H926 0.951 1_556 S
C944 C945 1.366 . S
C944 C946 1.388 1_556 S
C945 C944 1.366 . S
C945 C949 1.385 . S
C946 H927 0.951 . S
C946 C944 1.388 1_554 S
C946 C947 1.366 1_554 S
C947 C946 1.366 1_556 S
C947 C948 1.414 . S
C947 C950 1.499 . S
C948 H928 0.950 . S
C948 C947 1.414 . S
C948 C949 1.374 . S
C949 H929 0.950 . S
C949 C945 1.385 . S
C949 C948 1.374 . S
C950 C947 1.499 . S
C950 C951 1.373 1_556 S
C950 C952 1.389 1_556 S
C951 H930 0.950 1_554 S
C951 C950 1.373 1_554 S
C951 C967 1.377 . S
C952 C950 1.389 1_554 S
C952 C953 1.524 . S
C952 C966 1.377 . S
C953 C952 1.524 . S
C953 C954 1.397 1_554 S
C953 C958 1.363 . S
C954 H931 0.950 . S
C954 C953 1.397 1_556 S
C954 C955 1.334 . S
C955 H932 0.950 . S
C955 C954 1.334 . S
C955 C956 1.287 . S
C956 C955 1.287 . S
C956 C957 1.524 1_556 S
C956 H975 0.913 . S
C957 H933 0.950 . S
C957 C956 1.524 1_554 S
C957 C958 1.415 . S
C958 H934 0.950 . S
C958 C953 1.363 . S
C958 C957 1.415 . S
C959 H935 0.951 . S
C959 C960 1.366 . S
C959 C961 1.388 . S
C960 C959 1.366 . S
C960 C964 1.385 . S
C961 H936 0.951 1_554 S
C961 C959 1.388 . S
C961 C962 1.366 . S
C962 C961 1.366 . S
C962 C963 1.414 . S
C962 C965 1.499 . S
C963 H937 0.950 . S
C963 C962 1.414 . S
C963 C964 1.374 . S
C964 H938 0.950 . S
C964 C960 1.385 . S
C964 C963 1.374 . S
C965 C962 1.499 . S
C965 C966 1.373 . S
C965 C967 1.389 . S
C966 H939 0.950 . S
C966 C952 1.377 . S
C966 C965 1.373 . S
C967 C951 1.377 . S
C967 C965 1.389 . S
C967 C968 1.524 . S
C968 C967 1.524 . S
C968 C969 1.397 . S
C968 C973 1.363 1_554 S
C969 H940 0.950 . S
C969 C968 1.397 . S
C969 C970 1.334 . S
C970 H941 0.950 . S
C970 C969 1.334 . S
C970 C971 1.287 . S
C971 C970 1.287 . S
C971 C972 1.524 1_554 S
C971 H974 0.999 . S
C972 H942 0.950 . S
C972 C971 1.524 1_556 S
C972 C973 1.415 . S
C973 H943 0.950 . S
C973 C968 1.363 1_556 S
C973 C972 1.415 . S
H974 C971 0.999 . S
H975 C956 0.913 . S
H976 C994 0.951 . S
H977 C996 0.951 . S
H978 C998 0.950 . S
H979 C999 0.950 . S
H980 C1001 0.950 . S
H981 C1004 0.950 . S
H982 C1005 0.950 . S
H983 C1007 0.950 . S
H984 C1008 0.950 . S
H985 C1009 0.951 . S
H986 C1011 0.951 . S
H987 C1013 0.950 . S
H988 C1014 0.950 . S
H989 C1016 0.950 . S
H990 C1019 0.950 . S
H991 C1020 0.950 . S
H992 C1022 0.950 . S
H993 C1023 0.950 . S
C994 H976 0.951 . S
C994 C995 1.366 . S
C994 C996 1.388 . S
C995 C994 1.366 . S
C995 C999 1.385 . S
C996 H977 0.951 . S
C996 C994 1.388 . S
C996 C997 1.366 . S
C997 C996 1.366 . S
C997 C998 1.414 . S
C997 C1000 1.499 . S
C998 H978 0.950 . S
C998 C997 1.414 . S
C998 C999 1.374 . S
C999 H979 0.950 . S
C999 C995 1.385 . S
C999 C998 1.374 . S
C1000 C997 1.499 . S
C1000 C1001 1.373 . S
C1000 C1002 1.389 . S
C1001 H980 0.950 . S
C1001 C1000 1.373 . S
C1001 C1017 1.377 . S
C1002 C1000 1.389 . S
C1002 C1003 1.524 . S
C1002 C1016 1.377 . S
C1003 C1002 1.524 . S
C1003 C1004 1.397 . S
C1003 C1008 1.363 . S
C1004 H981 0.950 . S
C1004 C1003 1.397 . S
C1004 C1005 1.334 . S
C1005 H982 0.950 . S
C1005 C1004 1.334 . S
C1005 C1006 1.287 . S
C1006 C1005 1.287 . S
C1006 C1007 1.524 . S
C1006 H1025 0.913 . S
C1007 H983 0.950 . S
C1007 C1006 1.524 . S
C1007 C1008 1.415 . S
C1008 H984 0.950 . S
C1008 C1003 1.363 . S
C1008 C1007 1.415 . S
C1009 H985 0.951 . S
C1009 C1010 1.366 . S
C1009 C1011 1.388 . S
C1010 C1009 1.366 . S
C1010 C1014 1.385 . S
C1011 H986 0.951 . S
C1011 C1009 1.388 . S
C1011 C1012 1.366 . S
C1012 C1011 1.366 . S
C1012 C1013 1.414 . S
C1012 C1015 1.499 . S
C1013 H987 0.950 . S
C1013 C1012 1.414 . S
C1013 C1014 1.374 . S
C1014 H988 0.950 . S
C1014 C1010 1.385 . S
C1014 C1013 1.374 . S
C1015 C1012 1.499 . S
C1015 C1016 1.373 . S
C1015 C1017 1.389 . S
C1016 H989 0.950 . S
C1016 C1002 1.377 . S
C1016 C1015 1.373 . S
C1017 C1001 1.377 . S
C1017 C1015 1.389 . S
C1017 C1018 1.524 . S
C1018 C1017 1.524 . S
C1018 C1019 1.397 . S
C1018 C1023 1.363 . S
C1019 H990 0.950 . S
C1019 C1018 1.397 . S
C1019 C1020 1.334 . S
C1020 H991 0.950 . S
C1020 C1019 1.334 . S
C1020 C1021 1.287 . S
C1021 C1020 1.287 . S
C1021 C1022 1.524 . S
C1021 H1024 0.999 . S
C1022 H992 0.950 . S
C1022 C1021 1.524 . S
C1022 C1023 1.415 . S
C1023 H993 0.950 . S
C1023 C1018 1.363 . S
C1023 C1022 1.415 . S
H1024 C1021 0.999 . S
H1025 C1006 0.913 . S
H1026 C1044 0.951 . S
H1027 C1046 0.951 . S
H1028 C1048 0.950 . S
H1029 C1049 0.950 . S
H1030 C1051 0.950 . S
H1031 C1054 0.950 . S
H1032 C1055 0.950 . S
H1033 C1057 0.950 . S
H1034 C1058 0.950 . S
H1035 C1059 0.951 . S
H1036 C1061 0.951 . S
H1037 C1063 0.950 . S
H1038 C1064 0.950 . S
H1039 C1066 0.950 . S
H1040 C1069 0.950 . S
H1041 C1070 0.950 . S
H1042 C1072 0.950 . S
H1043 C1073 0.950 . S
C1044 H1026 0.951 . S
C1044 C1045 1.366 . S
C1044 C1046 1.388 . S
C1045 C1044 1.366 . S
C1045 C1049 1.385 . S
C1046 H1027 0.951 . S
C1046 C1044 1.388 . S
C1046 C1047 1.366 . S
C1047 C1046 1.366 . S
C1047 C1048 1.414 . S
C1047 C1050 1.499 . S
C1048 H1028 0.950 . S
C1048 C1047 1.414 . S
C1048 C1049 1.374 . S
C1049 H1029 0.950 . S
C1049 C1045 1.385 . S
C1049 C1048 1.374 . S
C1050 C1047 1.499 . S
C1050 C1051 1.373 . S
C1050 C1052 1.389 . S
C1051 H1030 0.950 . S
C1051 C1050 1.373 . S
C1051 C1067 1.377 . S
C1052 C1050 1.389 . S
C1052 C1053 1.524 . S
C1052 C1066 1.377 . S
C1053 C1052 1.524 . S
C1053 C1054 1.397 . S
C1053 C1058 1.363 . S
C1054 H1031 0.950 . S
C1054 C1053 1.397 . S
C1054 C1055 1.334 . S
C1055 H1032 0.950 . S
C1055 C1054 1.334 . S
C1055 C1056 1.287 . S
C1056 C1055 1.287 . S
C1056 C1057 1.524 . S
C1056 H1075 0.913 . S
C1057 H1033 0.950 . S
C1057 C1056 1.524 . S
C1057 C1058 1.415 . S
C1058 H1034 0.950 . S
C1058 C1053 1.363 . S
C1058 C1057 1.415 . S
C1059 H1035 0.951 . S
C1059 C1060 1.366 . S
C1059 C1061 1.388 . S
C1060 C1059 1.366 . S
C1060 C1064 1.385 . S
C1061 H1036 0.951 . S
C1061 C1059 1.388 . S
C1061 C1062 1.366 . S
C1062 C1061 1.366 . S
C1062 C1063 1.414 . S
C1062 C1065 1.499 . S
C1063 H1037 0.950 . S
C1063 C1062 1.414 . S
C1063 C1064 1.374 . S
C1064 H1038 0.950 . S
C1064 C1060 1.385 . S
C1064 C1063 1.374 . S
C1065 C1062 1.499 . S
C1065 C1066 1.373 . S
C1065 C1067 1.389 . S
C1066 H1039 0.950 . S
C1066 C1052 1.377 . S
C1066 C1065 1.373 . S
C1067 C1051 1.377 . S
C1067 C1065 1.389 . S
C1067 C1068 1.524 . S
C1068 C1067 1.524 . S
C1068 C1069 1.397 . S
C1068 C1073 1.363 . S
C1069 H1040 0.950 . S
C1069 C1068 1.397 . S
C1069 C1070 1.334 . S
C1070 H1041 0.950 . S
C1070 C1069 1.334 . S
C1070 C1071 1.287 . S
C1071 C1070 1.287 . S
C1071 C1072 1.524 . S
C1071 H1074 0.999 . S
C1072 H1042 0.950 . S
C1072 C1071 1.524 . S
C1072 C1073 1.415 . S
C1073 H1043 0.950 . S
C1073 C1068 1.363 . S
C1073 C1072 1.415 . S
H1074 C1071 0.999 . S
H1075 C1056 0.913 . S
H1076 C1094 0.951 . S
H1077 C1096 0.951 . S
H1078 C1098 0.950 . S
H1079 C1099 0.950 . S
H1080 C1101 0.950 . S
H1081 C1104 0.950 . S
H1082 C1105 0.950 . S
H1083 C1107 0.950 . S
H1084 C1108 0.950 . S
H1085 C1109 0.951 . S
H1086 C1111 0.951 . S
H1087 C1113 0.950 . S
H1088 C1114 0.950 . S
H1089 C1116 0.950 . S
H1090 C1119 0.950 . S
H1091 C1120 0.950 . S
H1092 C1122 0.950 . S
H1093 C1123 0.950 . S
C1094 H1076 0.951 . S
C1094 C1095 1.366 . S
C1094 C1096 1.388 . S
C1095 C1094 1.366 . S
C1095 C1099 1.385 . S
C1096 H1077 0.951 . S
C1096 C1094 1.388 . S
C1096 C1097 1.366 . S
C1097 C1096 1.366 . S
C1097 C1098 1.414 . S
C1097 C1100 1.499 . S
C1098 H1078 0.950 . S
C1098 C1097 1.414 . S
C1098 C1099 1.374 . S
C1099 H1079 0.950 . S
C1099 C1095 1.385 . S
C1099 C1098 1.374 . S
C1100 C1097 1.499 . S
C1100 C1101 1.373 . S
C1100 C1102 1.389 . S
C1101 H1080 0.950 . S
C1101 C1100 1.373 . S
C1101 C1117 1.377 . S
C1102 C1100 1.389 . S
C1102 C1103 1.524 . S
C1102 C1116 1.377 . S
C1103 C1102 1.524 . S
C1103 C1104 1.397 . S
C1103 C1108 1.363 . S
C1104 H1081 0.950 . S
C1104 C1103 1.397 . S
C1104 C1105 1.334 . S
C1105 H1082 0.950 . S
C1105 C1104 1.334 . S
C1105 C1106 1.287 . S
C1106 C1105 1.287 . S
C1106 C1107 1.524 . S
C1106 H1125 0.913 . S
C1107 H1083 0.950 . S
C1107 C1106 1.524 . S
C1107 C1108 1.415 . S
C1108 H1084 0.950 . S
C1108 C1103 1.363 . S
C1108 C1107 1.415 . S
C1109 H1085 0.951 . S
C1109 C1110 1.366 . S
C1109 C1111 1.388 . S
C1110 C1109 1.366 . S
C1110 C1114 1.385 . S
C1111 H1086 0.951 . S
C1111 C1109 1.388 . S
C1111 C1112 1.366 . S
C1112 C1111 1.366 . S
C1112 C1113 1.414 . S
C1112 C1115 1.499 . S
C1113 H1087 0.950 . S
C1113 C1112 1.414 . S
C1113 C1114 1.374 . S
C1114 H1088 0.950 . S
C1114 C1110 1.385 . S
C1114 C1113 1.374 . S
C1115 C1112 1.499 . S
C1115 C1116 1.373 . S
C1115 C1117 1.389 . S
C1116 H1089 0.950 . S
C1116 C1102 1.377 . S
C1116 C1115 1.373 . S
C1117 C1101 1.377 . S
C1117 C1115 1.389 . S
C1117 C1118 1.524 . S
C1118 C1117 1.524 . S
C1118 C1119 1.397 . S
C1118 C1123 1.363 . S
C1119 H1090 0.950 . S
C1119 C1118 1.397 . S
C1119 C1120 1.334 . S
C1120 H1091 0.950 . S
C1120 C1119 1.334 . S
C1120 C1121 1.287 . S
C1121 C1120 1.287 . S
C1121 C1122 1.524 . S
C1121 H1124 0.999 . S
C1122 H1092 0.950 . S
C1122 C1121 1.524 . S
C1122 C1123 1.415 . S
C1123 H1093 0.950 . S
C1123 C1118 1.363 . S
C1123 C1122 1.415 . S
H1124 C1121 0.999 . S
H1125 C1106 0.913 . S
H1126 C1144 0.951 . S
H1127 C1146 0.951 . S
H1128 C1148 0.950 . S
H1129 C1149 0.950 . S
H1130 C1151 0.950 . S
H1131 C1154 0.950 . S
H1132 C1155 0.950 . S
H1133 C1157 0.950 . S
H1134 C1158 0.950 . S
H1135 C1159 0.951 . S
H1136 C1161 0.951 . S
H1137 C1163 0.950 . S
H1138 C1164 0.950 . S
H1139 C1166 0.950 . S
H1140 C1169 0.950 . S
H1141 C1170 0.950 . S
H1142 C1172 0.950 . S
H1143 C1173 0.950 . S
C1144 H1126 0.951 . S
C1144 C1145 1.366 . S
C1144 C1146 1.388 . S
C1145 C1144 1.366 . S
C1145 C1149 1.385 . S
C1146 H1127 0.951 . S
C1146 C1144 1.388 . S
C1146 C1147 1.366 . S
C1147 C1146 1.366 . S
C1147 C1148 1.414 . S
C1147 C1150 1.499 . S
C1148 H1128 0.950 . S
C1148 C1147 1.414 . S
C1148 C1149 1.374 . S
C1149 H1129 0.950 . S
C1149 C1145 1.385 . S
C1149 C1148 1.374 . S
C1150 C1147 1.499 . S
C1150 C1151 1.373 . S
C1150 C1152 1.389 . S
C1151 H1130 0.950 . S
C1151 C1150 1.373 . S
C1151 C1167 1.377 . S
C1152 C1150 1.389 . S
C1152 C1153 1.524 . S
C1152 C1166 1.377 . S
C1153 C1152 1.524 . S
C1153 C1154 1.397 . S
C1153 C1158 1.363 . S
C1154 H1131 0.950 . S
C1154 C1153 1.397 . S
C1154 C1155 1.334 . S
C1155 H1132 0.950 . S
C1155 C1154 1.334 . S
C1155 C1156 1.287 . S
C1156 C1155 1.287 . S
C1156 C1157 1.524 . S
C1156 H1175 0.913 . S
C1157 H1133 0.950 . S
C1157 C1156 1.524 . S
C1157 C1158 1.415 . S
C1158 H1134 0.950 . S
C1158 C1153 1.363 . S
C1158 C1157 1.415 . S
C1159 H1135 0.951 . S
C1159 C1160 1.366 . S
C1159 C1161 1.388 . S
C1160 C1159 1.366 . S
C1160 C1164 1.385 . S
C1161 H1136 0.951 . S
C1161 C1159 1.388 . S
C1161 C1162 1.366 . S
C1162 C1161 1.366 . S
C1162 C1163 1.414 . S
C1162 C1165 1.499 . S
C1163 H1137 0.950 . S
C1163 C1162 1.414 . S
C1163 C1164 1.374 . S
C1164 H1138 0.950 . S
C1164 C1160 1.385 . S
C1164 C1163 1.374 . S
C1165 C1162 1.499 . S
C1165 C1166 1.373 . S
C1165 C1167 1.389 . S
C1166 H1139 0.950 . S
C1166 C1152 1.377 . S
C1166 C1165 1.373 . S
C1167 C1151 1.377 . S
C1167 C1165 1.389 . S
C1167 C1168 1.524 . S
C1168 C1167 1.524 . S
C1168 C1169 1.397 . S
C1168 C1173 1.363 . S
C1169 H1140 0.950 . S
C1169 C1168 1.397 . S
C1169 C1170 1.334 . S
C1170 H1141 0.950 . S
C1170 C1169 1.334 . S
C1170 C1171 1.287 . S
C1171 C1170 1.287 . S
C1171 C1172 1.524 . S
C1171 H1174 0.999 . S
C1172 H1142 0.950 . S
C1172 C1171 1.524 . S
C1172 C1173 1.415 . S
C1173 H1143 0.950 . S
C1173 C1168 1.363 . S
C1173 C1172 1.415 . S
H1174 C1171 0.999 . S
H1175 C1156 0.913 . S
H1176 C1194 0.951 . S
H1177 C1196 0.951 . S
H1178 C1198 0.950 . S
H1179 C1199 0.950 . S
H1180 C1201 0.950 . S
H1181 C1204 0.950 . S
H1182 C1205 0.950 . S
H1183 C1207 0.945 1_556 S
H1184 C1208 0.950 . S
H1185 C1209 0.951 . S
H1186 C1211 0.951 . S
H1187 C1213 0.950 . S
H1188 C1214 0.950 . S
H1189 C1216 0.950 . S
H1190 C1219 0.950 . S
H1191 C1220 0.950 . S
H1192 C1222 0.950 . S
H1193 C1223 0.950 . S
C1194 H1176 0.951 . S
C1194 C1195 1.366 . S
C1194 C1196 1.388 . S
C1195 C1194 1.366 . S
C1195 C1199 1.385 . S
C1196 H1177 0.951 . S
C1196 C1194 1.388 . S
C1196 C1197 1.366 . S
C1197 C1196 1.366 . S
C1197 C1198 1.414 . S
C1197 C1200 1.499 . S
C1198 H1178 0.950 . S
C1198 C1197 1.414 . S
C1198 C1199 1.374 . S
C1199 H1179 0.950 . S
C1199 C1195 1.385 . S
C1199 C1198 1.374 . S
C1200 C1197 1.499 . S
C1200 C1201 1.373 . S
C1200 C1202 1.389 . S
C1201 H1180 0.950 . S
C1201 C1200 1.373 . S
C1201 C1217 1.377 1_545 S
C1202 C1200 1.389 . S
C1202 C1203 1.524 1_545 S
C1202 C1216 1.377 1_545 S
C1203 C1202 1.524 1_565 S
C1203 C1204 1.394 1_565 S
C1203 C1208 1.368 . S
C1204 H1181 0.950 . S
C1204 C1203 1.394 1_545 S
C1204 C1205 1.334 . S
C1205 H1182 0.950 . S
C1205 C1204 1.334 . S
C1205 C1206 1.287 1_545 S
C1206 C1205 1.287 1_565 S
C1206 C1207 1.527 . S
C1206 H1225 0.913 . S
C1207 H1183 0.945 1_554 S
C1207 C1206 1.527 . S
C1207 C1208 1.417 . S
C1208 H1184 0.950 . S
C1208 C1203 1.368 . S
C1208 C1207 1.417 . S
C1209 H1185 0.951 . S
C1209 C1210 1.366 . S
C1209 C1211 1.388 . S
C1210 C1209 1.366 . S
C1210 C1214 1.385 . S
C1211 H1186 0.951 . S
C1211 C1209 1.388 . S
C1211 C1212 1.366 . S
C1212 C1211 1.366 . S
C1212 C1213 1.414 . S
C1212 C1215 1.499 . S
C1213 H1187 0.950 . S
C1213 C1212 1.414 . S
C1213 C1214 1.374 . S
C1214 H1188 0.950 . S
C1214 C1210 1.385 . S
C1214 C1213 1.374 . S
C1215 C1212 1.499 . S
C1215 C1216 1.373 . S
C1215 C1217 1.389 . S
C1216 H1189 0.950 . S
C1216 C1202 1.377 1_565 S
C1216 C1215 1.373 . S
C1217 C1201 1.377 1_565 S
C1217 C1215 1.389 . S
C1217 C1218 1.524 1_565 S
C1218 C1217 1.524 1_545 S
C1218 C1219 1.394 1_545 S
C1218 C1223 1.368 . S
C1219 H1190 0.950 . S
C1219 C1218 1.394 1_565 S
C1219 C1220 1.334 . S
C1220 H1191 0.950 . S
C1220 C1219 1.334 . S
C1220 C1221 1.287 1_565 S
C1221 C1220 1.287 1_545 S
C1221 C1222 1.524 . S
C1221 H1224 0.999 . S
C1222 H1192 0.950 . S
C1222 C1221 1.524 . S
C1222 C1223 1.415 . S
C1223 H1193 0.950 . S
C1223 C1218 1.368 . S
C1223 C1222 1.415 . S
H1224 C1221 0.999 . S
H1225 C1206 0.913 . S
H1226 C1244 0.951 . S
H1227 C1246 0.951 . S
H1228 C1248 0.950 . S
H1229 C1249 0.950 . S
H1230 C1251 0.950 . S
H1231 C1254 0.950 . S
H1232 C1255 0.950 . S
H1233 C1257 0.950 . S
H1234 C1258 0.950 . S
H1235 C1259 0.951 . S
H1236 C1261 0.951 . S
H1237 C1263 0.950 . S
H1238 C1264 0.950 . S
H1239 C1266 0.950 . S
H1240 C1269 0.950 . S
H1241 C1270 0.950 . S
H1242 C1272 0.950 . S
H1243 C1273 0.950 . S
C1244 H1226 0.951 . S
C1244 C1245 1.366 . S
C1244 C1246 1.388 . S
C1245 C1244 1.366 . S
C1245 C1249 1.385 . S
C1246 H1227 0.951 . S
C1246 C1244 1.388 . S
C1246 C1247 1.366 . S
C1247 C1246 1.366 . S
C1247 C1248 1.414 . S
C1247 C1250 1.499 . S
C1248 H1228 0.950 . S
C1248 C1247 1.414 . S
C1248 C1249 1.374 . S
C1249 H1229 0.950 . S
C1249 C1245 1.385 . S
C1249 C1248 1.374 . S
C1250 C1247 1.499 . S
C1250 C1251 1.373 . S
C1250 C1252 1.389 . S
C1251 H1230 0.950 . S
C1251 C1250 1.373 . S
C1251 C1267 1.377 1_655 S
C1252 C1250 1.389 . S
C1252 C1253 1.524 . S
C1252 C1266 1.377 1_655 S
C1253 C1252 1.524 . S
C1253 C1254 1.397 . S
C1253 C1258 1.363 . S
C1254 H1231 0.950 . S
C1254 C1253 1.397 . S
C1254 C1255 1.334 . S
C1255 H1232 0.950 . S
C1255 C1254 1.334 . S
C1255 C1256 1.287 . S
C1256 C1255 1.287 . S
C1256 C1257 1.524 . S
C1256 H1275 0.913 . S
C1257 H1233 0.950 . S
C1257 C1256 1.524 . S
C1257 C1258 1.415 . S
C1258 H1234 0.950 . S
C1258 C1253 1.363 . S
C1258 C1257 1.415 . S
C1259 H1235 0.951 . S
C1259 C1260 1.366 . S
C1259 C1261 1.388 . S
C1260 C1259 1.366 . S
C1260 C1264 1.385 . S
C1261 H1236 0.951 . S
C1261 C1259 1.388 . S
C1261 C1262 1.366 . S
C1262 C1261 1.366 . S
C1262 C1263 1.414 . S
C1262 C1265 1.499 . S
C1263 H1237 0.950 . S
C1263 C1262 1.414 . S
C1263 C1264 1.374 . S
C1264 H1238 0.950 . S
C1264 C1260 1.385 . S
C1264 C1263 1.374 . S
C1265 C1262 1.499 . S
C1265 C1266 1.373 . S
C1265 C1267 1.389 . S
C1266 H1239 0.950 . S
C1266 C1252 1.377 1_455 S
C1266 C1265 1.373 . S
C1267 C1251 1.377 1_455 S
C1267 C1265 1.389 . S
C1267 C1268 1.524 . S
C1268 C1267 1.524 . S
C1268 C1269 1.397 . S
C1268 C1273 1.363 . S
C1269 H1240 0.950 . S
C1269 C1268 1.397 . S
C1269 C1270 1.334 1_556 S
C1270 H1241 0.950 . S
C1270 C1269 1.334 1_554 S
C1270 C1271 1.287 . S
C1271 C1270 1.287 . S
C1271 C1272 1.524 . S
C1271 H1274 0.999 . S
C1272 H1242 0.950 . S
C1272 C1271 1.524 . S
C1272 C1273 1.415 1_554 S
C1273 H1243 0.950 . S
C1273 C1268 1.363 . S
C1273 C1272 1.415 1_556 S
H1274 C1271 0.999 . S
H1275 C1256 0.913 . S
H1276 C1294 0.951 . S
H1277 C1296 0.951 . S
H1278 C1298 0.950 . S
H1279 C1299 0.950 . S
H1280 C1301 0.950 . S
H1281 C1304 0.950 . S
H1282 C1305 0.950 . S
H1283 C1307 0.950 . S
H1284 C1308 0.950 . S
H1285 C1309 0.951 . S
H1286 C1311 0.951 . S
H1287 C1313 0.950 . S
H1288 C1314 0.950 . S
H1289 C1316 0.950 . S
H1290 C1319 0.950 . S
H1291 C1320 0.950 . S
H1292 C1322 0.950 . S
H1293 C1323 0.950 . S
C1294 H1276 0.951 . S
C1294 C1295 1.366 . S
C1294 C1296 1.388 . S
C1295 C1294 1.366 . S
C1295 C1299 1.385 . S
C1296 H1277 0.951 . S
C1296 C1294 1.388 . S
C1296 C1297 1.366 . S
C1297 C1296 1.366 . S
C1297 C1298 1.414 . S
C1297 C1300 1.499 . S
C1298 H1278 0.950 . S
C1298 C1297 1.414 . S
C1298 C1299 1.374 . S
C1299 H1279 0.950 . S
C1299 C1295 1.385 . S
C1299 C1298 1.374 . S
C1300 C1297 1.499 . S
C1300 C1301 1.373 . S
C1300 C1302 1.389 . S
C1301 H1280 0.950 . S
C1301 C1300 1.373 . S
C1301 C1317 1.377 1_565 S
C1302 C1300 1.389 . S
C1302 C1303 1.524 . S
C1302 C1316 1.377 1_565 S
C1303 C1302 1.524 . S
C1303 C1304 1.397 . S
C1303 C1308 1.363 . S
C1304 H1281 0.950 . S
C1304 C1303 1.397 . S
C1304 C1305 1.334 . S
C1305 H1282 0.950 . S
C1305 C1304 1.334 . S
C1305 C1306 1.287 . S
C1306 C1305 1.287 . S
C1306 C1307 1.524 . S
C1306 H1325 0.913 . S
C1307 H1283 0.950 . S
C1307 C1306 1.524 . S
C1307 C1308 1.415 . S
C1308 H1284 0.950 . S
C1308 C1303 1.363 . S
C1308 C1307 1.415 . S
C1309 H1285 0.951 . S
C1309 C1310 1.366 . S
C1309 C1311 1.388 . S
C1310 C1309 1.366 . S
C1310 C1314 1.385 . S
C1311 H1286 0.951 . S
C1311 C1309 1.388 . S
C1311 C1312 1.366 . S
C1312 C1311 1.366 . S
C1312 C1313 1.414 . S
C1312 C1315 1.499 . S
C1313 H1287 0.950 . S
C1313 C1312 1.414 . S
C1313 C1314 1.374 . S
C1314 H1288 0.950 . S
C1314 C1310 1.385 . S
C1314 C1313 1.374 . S
C1315 C1312 1.499 . S
C1315 C1316 1.373 . S
C1315 C1317 1.389 . S
C1316 H1289 0.950 . S
C1316 C1302 1.377 1_545 S
C1316 C1315 1.373 . S
C1317 C1301 1.377 1_545 S
C1317 C1315 1.389 . S
C1317 C1318 1.524 . S
C1318 C1317 1.524 . S
C1318 C1319 1.397 . S
C1318 C1323 1.363 . S
C1319 H1290 0.950 . S
C1319 C1318 1.397 . S
C1319 C1320 1.334 . S
C1320 H1291 0.950 . S
C1320 C1319 1.334 . S
C1320 C1321 1.287 . S
C1321 C1320 1.287 . S
C1321 C1322 1.524 . S
C1321 H1324 0.999 . S
C1322 H1292 0.950 . S
C1322 C1321 1.524 . S
C1322 C1323 1.415 . S
C1323 H1293 0.950 . S
C1323 C1318 1.363 . S
C1323 C1322 1.415 . S
H1324 C1321 0.999 . S
H1325 C1306 0.913 . S
H1326 C1344 0.951 . S
H1327 C1346 0.951 . S
H1328 C1348 0.950 . S
H1329 C1349 0.950 . S
H1330 C1351 0.950 . S
H1331 C1354 0.950 . S
H1332 C1355 0.950 . S
H1333 C1357 0.950 . S
H1334 C1358 0.950 1_455 S
H1335 C1359 0.951 . S
H1336 C1361 0.951 . S
H1337 C1363 0.950 . S
H1338 C1364 0.950 . S
H1339 C1366 0.950 . S
H1340 C1369 0.950 . S
H1341 C1370 0.950 . S
H1342 C1372 0.950 . S
H1343 C1373 0.950 1_655 S
C1344 H1326 0.951 . S
C1344 C1345 1.366 . S
C1344 C1346 1.388 . S
C1345 C1344 1.366 . S
C1345 C1349 1.385 . S
C1346 H1327 0.951 . S
C1346 C1344 1.388 . S
C1346 C1347 1.366 . S
C1347 C1346 1.366 . S
C1347 C1348 1.414 . S
C1347 C1350 1.499 . S
C1348 H1328 0.950 . S
C1348 C1347 1.414 . S
C1348 C1349 1.374 . S
C1349 H1329 0.950 . S
C1349 C1345 1.385 . S
C1349 C1348 1.374 . S
C1350 C1347 1.499 . S
C1350 C1351 1.373 . S
C1350 C1352 1.389 . S
C1351 H1330 0.950 . S
C1351 C1350 1.373 . S
C1351 C1367 1.377 1_655 S
C1352 C1350 1.389 . S
C1352 C1353 1.524 . S
C1352 C1366 1.377 1_655 S
C1353 C1352 1.524 . S
C1353 C1354 1.397 . S
C1353 C1358 1.363 . S
C1354 H1331 0.950 . S
C1354 C1353 1.397 . S
C1354 C1355 1.334 . S
C1355 H1332 0.950 . S
C1355 C1354 1.334 . S
C1355 C1356 1.287 . S
C1356 C1355 1.287 . S
C1356 C1357 1.524 . S
C1356 H1375 0.913 . S
C1357 H1333 0.950 . S
C1357 C1356 1.524 . S
C1357 C1358 1.415 . S
C1358 H1334 0.950 1_655 S
C1358 C1353 1.363 . S
C1358 C1357 1.415 . S
C1359 H1335 0.951 . S
C1359 C1360 1.366 . S
C1359 C1361 1.388 . S
C1360 C1359 1.366 . S
C1360 C1364 1.385 . S
C1361 H1336 0.951 . S
C1361 C1359 1.388 . S
C1361 C1362 1.366 . S
C1362 C1361 1.366 . S
C1362 C1363 1.414 . S
C1362 C1365 1.499 . S
C1363 H1337 0.950 . S
C1363 C1362 1.414 . S
C1363 C1364 1.374 . S
C1364 H1338 0.950 . S
C1364 C1360 1.385 . S
C1364 C1363 1.374 . S
C1365 C1362 1.499 . S
C1365 C1366 1.373 . S
C1365 C1367 1.389 . S
C1366 H1339 0.950 . S
C1366 C1352 1.377 1_455 S
C1366 C1365 1.373 . S
C1367 C1351 1.377 1_455 S
C1367 C1365 1.389 . S
C1367 C1368 1.524 . S
C1368 C1367 1.524 . S
C1368 C1369 1.397 . S
C1368 C1373 1.363 . S
C1369 H1340 0.950 . S
C1369 C1368 1.397 . S
C1369 C1370 1.334 . S
C1370 H1341 0.950 . S
C1370 C1369 1.334 . S
C1370 C1371 1.287 . S
C1371 C1370 1.287 . S
C1371 C1372 1.524 . S
C1371 H1374 0.999 . S
C1372 H1342 0.950 . S
C1372 C1371 1.524 . S
C1372 C1373 1.415 . S
C1373 H1343 0.950 1_455 S
C1373 C1368 1.363 . S
C1373 C1372 1.415 . S
H1374 C1371 0.999 . S
H1375 C1356 0.913 . S
C195 C128 1.157 . S
C210 C10 1.158 . S
C245 C30 1.190 . S
C260 C140 1.192 . S
C295 C172 1.158 . S
C310 C62 1.157 . S
C345 C76 1.192 . S
C360 C106 1.190 . S
C395 C96 1.083 . S
C410 C7 1.089 1_556 S
C445 C29 1.097 1_554 S
C460 C120 1.094 . S
C495 C65 1.089 1_556 S
C510 C142 1.083 . S
C545 C164 1.094 . S
C560 C87 1.097 1_554 S
C595 C8 1.094 . S
C610 C103 1.097 . S
C645 C131 1.089 . S
C660 C32 1.083 . S
C695 C54 1.094 . S
C710 C139 1.097 . S
C745 C84 1.083 . S
C760 C175 1.089 . S
C795 C37 1.063 . S
C810 C15 1.058 . S
C845 C43 1.051 . S
C860 C59 1.059 . S
C895 C51 1.058 . S
C910 C73 1.063 . S
C945 C81 1.051 . S
C960 C21 1.058 . S
C995 C95 1.052 . S
C1010 C169 1.059 . S
C1045 C109 1.063 . S
C1060 C117 1.059 . S
C1095 C153 1.051 . S
C1110 C125 1.058 . S
C1145 C161 1.059 . S
C1160 C147 1.063 . S
C1195 C18 1.392 . S
C1210 C52 1.392 . S
C1245 C74 1.394 . S
C1260 C40 1.394 . S
C1295 C150 1.395 . S
C1310 C98 1.395 . S
C1345 C162 1.392 . S
C1360 C118 1.393 . S
