# Generated by pormake.
# Topology zft, (5)-cn, num edge types: 1
# Building blocks:
#     Node 0, Type 0, BuildingBlock: XOMCOT_clean_sbu_1, # of connection points: 5
#     Node 1, Type 0, BuildingBlock: XOMCOT_clean_sbu_1, # of connection points: 5
#     Node 2, Type 0, BuildingBlock: XOMCOT_clean_sbu_1, # of connection points: 5
#     Node 3, Type 0, BuildingBlock: XOMCOT_clean_sbu_1, # of connection points: 5
#     Node 4, Type 0, BuildingBlock: XOMCOT_clean_sbu_1, # of connection points: 5
#     Node 5, Type 0, BuildingBlock: XOMCOT_clean_sbu_1, # of connection points: 5
#     Node 6, Type 0, BuildingBlock: XOMCOT_clean_sbu_1, # of connection points: 5
#     Node 7, Type 0, BuildingBlock: XOMCOT_clean_sbu_1, # of connection points: 5
#     Edge 8, Type (0, 0), BuildingBlock: ZUJKAS_clean_linker_0, # of connection points: 2
#     Edge 9, Type (0, 0), BuildingBlock: ZUJKAS_clean_linker_0, # of connection points: 2
#     Edge 10, Type (0, 0), BuildingBlock: ZUJKAS_clean_linker_0, # of connection points: 2
#     Edge 11, Type (0, 0), BuildingBlock: ZUJKAS_clean_linker_0, # of connection points: 2
#     Edge 12, Type (0, 0), BuildingBlock: ZUJKAS_clean_linker_0, # of connection points: 2
#     Edge 13, Type (0, 0), BuildingBlock: ZUJKAS_clean_linker_0, # of connection points: 2
#     Edge 14, Type (0, 0), BuildingBlock: ZUJKAS_clean_linker_0, # of connection points: 2
#     Edge 15, Type (0, 0), BuildingBlock: ZUJKAS_clean_linker_0, # of connection points: 2
#     Edge 16, Type (0, 0), BuildingBlock: ZUJKAS_clean_linker_0, # of connection points: 2
#     Edge 17, Type (0, 0), BuildingBlock: ZUJKAS_clean_linker_0, # of connection points: 2
#     Edge 18, Type (0, 0), BuildingBlock: ZUJKAS_clean_linker_0, # of connection points: 2
#     Edge 19, Type (0, 0), BuildingBlock: ZUJKAS_clean_linker_0, # of connection points: 2
#     Edge 20, Type (0, 0), BuildingBlock: ZUJKAS_clean_linker_0, # of connection points: 2
#     Edge 21, Type (0, 0), BuildingBlock: ZUJKAS_clean_linker_0, # of connection points: 2
#     Edge 22, Type (0, 0), BuildingBlock: ZUJKAS_clean_linker_0, # of connection points: 2
#     Edge 23, Type (0, 0), BuildingBlock: ZUJKAS_clean_linker_0, # of connection points: 2
#     Edge 24, Type (0, 0), BuildingBlock: ZUJKAS_clean_linker_0, # of connection points: 2
#     Edge 25, Type (0, 0), BuildingBlock: ZUJKAS_clean_linker_0, # of connection points: 2
#     Edge 26, Type (0, 0), BuildingBlock: ZUJKAS_clean_linker_0, # of connection points: 2
#     Edge 27, Type (0, 0), BuildingBlock: ZUJKAS_clean_linker_0, # of connection points: 2
# Relax obj value: 0.085
# Max RMSD: 0.118
# Mean RMSD: 0.118
data_MOF--net-zft--node1-XOMCOT_clean_sbu_1--edge1-ZUJKAS_clean_linker_0
_symmetry_space_group_name_H-M    P1
_symmetry_Int_Tables_number       1
_symmetry_cell_setting            triclinic
loop_
_symmetry_equiv_pos_as_xyz
'x, y, z'
_cell_length_a     36.941255
_cell_length_b     36.959853
_cell_length_c     59.888126
_cell_angle_alpha  90.021811
_cell_angle_beta   90.064815
_cell_angle_gamma 89.926111
loop_
_atom_site_label
_atom_site_type_symbol
_atom_site_fract_x
_atom_site_fract_y
_atom_site_fract_z
_atom_type_partial_charge
C0 C 0.09304 0.26089 0.252 0.0
C1 C 0.06316 0.24365 0.26026 0.0
N2 N 0.03983 0.23807 0.24335 0.0
N3 N 0.08874 0.26678 0.22995 0.0
C4 C 0.05604 0.25218 0.22502 0.0
H5 H 0.11692 0.26783 0.26148 0.0
Co6 Co 0.12543 0.28852 0.21336 0.0
C7 C 0.09525 0.30998 0.16967 0.0
O8 O 0.12601 0.29906 0.16096 0.0
N9 N 0.16396 0.31111 0.19755 0.0
C10 C 0.21566 0.32463 0.1803 0.0
C11 C 0.19544 0.29741 0.18964 0.0
C12 C 0.16621 0.34698 0.19298 0.0
N13 N 0.19729 0.35583 0.18249 0.0
O14 O 0.11997 0.33187 0.23108 0.0
H15 H 0.20409 0.26965 0.19066 0.0
H16 H 0.14524 0.36629 0.19717 0.0
O17 O 0.09012 0.30678 0.1908 0.0
C18 C 0.14477 0.33346 0.24593 0.0
O19 O 0.16966 0.308 0.24602 0.0
N20 N 0.13257 0.24423 0.19827 0.0
C21 C 0.15477 0.17871 0.17958 0.0
C22 C 0.12351 0.19622 0.17174 0.0
C23 C 0.11239 0.22876 0.18166 0.0
C24 C 0.16014 0.2252 0.20779 0.0
C25 C 0.17229 0.1929 0.19841 0.0
H26 H 0.08776 0.24124 0.17581 0.0
H27 H 0.17408 0.23632 0.22213 0.0
H28 H 0.04453 0.25156 0.2084 0.0
H29 H 0.05951 0.23456 0.2773 0.0
H30 H 0.24236 0.32181 0.17307 0.0
H31 H 0.10833 0.18541 0.15778 0.0
H32 H 0.19553 0.17939 0.20567 0.0
C33 C 0.23709 0.58517 0.49918 0.0
C34 C 0.25778 0.55634 0.50573 0.0
N35 N 0.27163 0.54049 0.4874 0.0
N36 N 0.23723 0.58766 0.47671 0.0
C37 C 0.25852 0.55979 0.46992 0.0
H38 H 0.22435 0.60416 0.51038 0.0
Co39 Co 0.21735 0.62747 0.46158 0.0
C40 C 0.18593 0.59995 0.41833 0.0
O41 O 0.18685 0.63248 0.40956 0.0
N42 N 0.19754 0.66892 0.44747 0.0
C43 C 0.19097 0.724 0.43302 0.0
C44 C 0.21529 0.69916 0.4412 0.0
C45 C 0.16221 0.67665 0.44349 0.0
N46 N 0.15748 0.70979 0.43433 0.0
O47 O 0.1734 0.62241 0.47867 0.0
H48 H 0.24407 0.70352 0.44274 0.0
H49 H 0.14049 0.65776 0.44671 0.0
O50 O 0.19825 0.59454 0.4381 0.0
C51 C 0.17201 0.64587 0.4943 0.0
O52 O 0.19849 0.6695 0.49579 0.0
N53 N 0.26176 0.63425 0.44688 0.0
C54 C 0.32871 0.65755 0.43072 0.0
C55 C 0.30468 0.63834 0.41691 0.0
C56 C 0.27137 0.62664 0.42536 0.0
C57 C 0.28563 0.6509 0.46084 0.0
C58 C 0.31917 0.66275 0.45316 0.0
H59 H 0.25356 0.61225 0.41433 0.0
H60 H 0.27785 0.65625 0.47794 0.0
H61 H 0.26608 0.55517 0.45269 0.0
H62 H 0.26322 0.54836 0.5228 0.0
H63 H 0.19759 0.75078 0.427 0.0
H64 H 0.31092 0.63345 0.39951 0.0
H65 H 0.33717 0.67643 0.46467 0.0
C66 C 0.92712 0.75213 0.74823 0.0
C67 C 0.95566 0.77391 0.75382 0.0
N68 N 0.97407 0.78186 0.7351 0.0
N69 N 0.92731 0.74597 0.72604 0.0
C70 C 0.95654 0.7644 0.7184 0.0
H71 H 0.90631 0.74316 0.75958 0.0
Co72 Co 0.8881 0.72353 0.71202 0.0
C73 C 0.91372 0.69219 0.66904 0.0
O74 O 0.88164 0.69823 0.66033 0.0
N75 N 0.84713 0.70092 0.69899 0.0
C76 C 0.79264 0.68972 0.68468 0.0
C77 C 0.81541 0.71606 0.69266 0.0
C78 C 0.84234 0.66504 0.69522 0.0
N79 N 0.80963 0.65758 0.68619 0.0
O80 O 0.89467 0.68167 0.73084 0.0
H81 H 0.80863 0.74436 0.69382 0.0
H82 H 0.863 0.64492 0.69843 0.0
O83 O 0.92059 0.70228 0.68912 0.0
C84 C 0.87189 0.68079 0.74685 0.0
O85 O 0.84741 0.70658 0.74797 0.0
N86 N 0.88023 0.76622 0.69546 0.0
C87 C 0.85927 0.83188 0.67628 0.0
C88 C 0.88431 0.80926 0.66551 0.0
C89 C 0.89504 0.77681 0.6756 0.0
C90 C 0.85802 0.78915 0.70685 0.0
C91 C 0.84679 0.82183 0.69749 0.0
H92 H 0.91551 0.76094 0.66742 0.0
H93 H 0.84777 0.78116 0.72303 0.0
H94 H 0.96333 0.76707 0.70091 0.0
H95 H 0.96158 0.78446 0.77029 0.0
H96 H 0.76538 0.69394 0.67856 0.0
H97 H 0.89573 0.81671 0.64952 0.0
H98 H 0.82758 0.83846 0.70651 0.0
C99 C 0.76816 0.43104 0.99719 0.0
C100 C 0.74876 0.46149 1.00249 0.0
N101 N 0.73982 0.47862 0.98343 0.0
N102 N 0.77202 0.42885 0.97486 0.0
C103 C 0.75417 0.45819 0.96683 0.0
H104 H 0.7779 0.41113 1.00896 0.0
Co105 Co 0.79506 0.38963 0.96116 0.0
C106 C 0.82774 0.41607 0.91871 0.0
O107 O 0.82255 0.38401 0.9098 0.0
N108 N 0.8186 0.34887 0.94834 0.0
C109 C 0.83159 0.29393 0.93535 0.0
C110 C 0.80439 0.31663 0.94235 0.0
C111 C 0.85473 0.34459 0.94522 0.0
N112 N 0.86338 0.31153 0.93709 0.0
O113 O 0.83615 0.39614 0.9809 0.0
H114 H 0.77623 0.30928 0.94337 0.0
H115 H 0.87425 0.3657 0.94858 0.0
O116 O 0.81702 0.42243 0.93872 0.0
C117 C 0.83807 0.37179 0.99599 0.0
O118 O 0.8136 0.34599 0.99604 0.0
N119 N 0.75303 0.38173 0.94375 0.0
C120 C 0.68835 0.36086 0.92304 0.0
C121 C 0.71113 0.38661 0.91312 0.0
C122 C 0.74306 0.3972 0.92392 0.0
C123 C 0.72992 0.35875 0.95434 0.0
C124 C 0.69778 0.34753 0.9442 0.0
H125 H 0.75899 0.41818 0.91634 0.0
H126 H 0.73731 0.34793 0.9705 0.0
H127 H 0.7513 0.46418 0.94924 0.0
H128 H 0.74046 0.46953 0.0191 0.0
H129 H 0.82813 0.2662 0.92998 0.0
H130 H 0.70419 0.39876 0.89722 0.0
H131 H 0.68108 0.32774 0.95263 0.0
C132 C 0.60868 0.26936 0.53265 0.0
C133 C 0.58596 0.29098 0.52035 0.0
N134 N 0.55184 0.28614 0.52771 0.0
N135 N 0.5892 0.25082 0.5478 0.0
C136 C 0.55447 0.26116 0.54419 0.0
H137 H 0.63783 0.26812 0.53119 0.0
Co138 Co 0.61123 0.22112 0.56914 0.0
C139 C 0.55084 0.22796 0.60372 0.0
O140 O 0.56634 0.25518 0.61394 0.0
N141 N 0.6336 0.19027 0.59046 0.0
C142 C 0.65025 0.16565 0.62285 0.0
C143 C 0.63169 0.19347 0.61292 0.0
C144 C 0.65399 0.16017 0.58726 0.0
N145 N 0.66421 0.14459 0.6067 0.0
O146 O 0.59962 0.17983 0.55066 0.0
H147 H 0.61849 0.21515 0.62177 0.0
H148 H 0.66088 0.14938 0.57106 0.0
O149 O 0.56515 0.21431 0.58608 0.0
C150 C 0.62478 0.17564 0.53626 0.0
O151 O 0.65303 0.19716 0.5374 0.0
N152 N 0.62658 0.26329 0.58519 0.0
C153 C 0.65741 0.32599 0.60367 0.0
C154 C 0.62138 0.32582 0.59624 0.0
C155 C 0.60682 0.2946 0.58659 0.0
C156 C 0.66233 0.26382 0.59113 0.0
C157 C 0.67799 0.29444 0.60082 0.0
H158 H 0.57925 0.29557 0.58064 0.0
H159 H 0.67938 0.24065 0.58787 0.0
H160 H 0.53192 0.25218 0.55427 0.0
H161 H 0.59412 0.3094 0.50725 0.0
H162 H 0.65375 0.16166 0.64062 0.0
H163 H 0.60444 0.3496 0.59784 0.0
H164 H 0.70638 0.29371 0.60532 0.0
C165 C 0.22719 0.11087 0.79914 0.0
C166 C 0.20593 0.08924 0.78596 0.0
N167 N 0.22383 0.05812 0.78197 0.0
N168 N 0.25829 0.09346 0.80403 0.0
C169 C 0.25596 0.06181 0.79269 0.0
H170 H 0.22005 0.13753 0.80513 0.0
Co171 Co 0.29471 0.11411 0.82198 0.0
C172 C 0.29585 0.03604 0.84182 0.0
O173 O 0.2667 0.02258 0.83244 0.0
N174 N 0.33086 0.13525 0.83976 0.0
C175 C 0.36364 0.14794 0.86988 0.0
C176 C 0.33375 0.13013 0.86201 0.0
C177 C 0.35925 0.15679 0.83451 0.0
N178 N 0.37983 0.16462 0.8526 0.0
O179 O 0.32996 0.10309 0.79921 0.0
H180 H 0.31532 0.11411 0.87195 0.0
H181 H 0.36521 0.16584 0.81773 0.0
O182 O 0.30533 0.06865 0.83779 0.0
C183 C 0.32709 0.12587 0.78327 0.0
O184 O 0.30282 0.15173 0.7852 0.0
N185 N 0.2594 0.12789 0.84316 0.0
C186 C 0.20111 0.15622 0.86733 0.0
C187 C 0.20657 0.11868 0.8658 0.0
C188 C 0.23584 0.10504 0.85358 0.0
C189 C 0.25513 0.16443 0.845 0.0
C190 C 0.22638 0.17916 0.85713 0.0
H191 H 0.23816 0.07624 0.85158 0.0
H192 H 0.27329 0.18229 0.83613 0.0
H193 H 0.27736 0.0418 0.79239 0.0
H194 H 0.1787 0.09553 0.78051 0.0
H195 H 0.37266 0.14871 0.88708 0.0
H196 H 0.1878 0.09995 0.87346 0.0
H197 H 0.223 0.20827 0.8575 0.0
C198 C 0.40043 0.72648 0.04045 0.0
C199 C 0.42281 0.70679 0.02679 0.0
N200 N 0.45542 0.72296 0.02637 0.0
N201 N 0.41874 0.75482 0.04902 0.0
C202 C 0.452 0.75254 0.03957 0.0
H203 H 0.37253 0.72016 0.0442 0.0
Co204 Co 0.3966 0.78763 0.0687 0.0
C205 C 0.47329 0.78701 0.09087 0.0
O206 O 0.4876 0.75813 0.08163 0.0
N207 N 0.37361 0.82011 0.0883 0.0
C208 C 0.3554 0.84434 0.12038 0.0
C209 C 0.37721 0.81875 0.11074 0.0
C210 C 0.34945 0.84712 0.0847 0.0
N211 N 0.3379 0.86215 0.10403 0.0
O212 O 0.40766 0.82646 0.04845 0.0
H213 H 0.39433 0.79987 0.11965 0.0
H214 H 0.33974 0.85508 0.06839 0.0
O215 O 0.44105 0.79668 0.08586 0.0
C216 C 0.38237 0.8283 0.03395 0.0
O217 O 0.35534 0.80535 0.03558 0.0
N218 N 0.38255 0.749 0.0872 0.0
C219 C 0.35233 0.69007 0.1097 0.0
C220 C 0.38985 0.69626 0.11017 0.0
C221 C 0.40449 0.72578 0.09867 0.0
C222 C 0.34608 0.7436 0.08673 0.0
C223 C 0.33041 0.71446 0.09786 0.0
H224 H 0.43334 0.72913 0.09862 0.0
H225 H 0.32911 0.76166 0.07709 0.0
H226 H 0.47327 0.77218 0.04216 0.0
H227 H 0.416 0.68166 0.01851 0.0
H228 H 0.35276 0.84964 0.13808 0.0
H229 H 0.40787 0.67828 0.11915 0.0
H230 H 0.30146 0.71046 0.0965 0.0
C231 C 0.7334 0.92994 0.27796 0.0
C232 C 0.75033 0.95979 0.26937 0.0
N233 N 0.76314 0.97972 0.28644 0.0
N234 N 0.73491 0.93093 0.30045 0.0
C235 C 0.75348 0.9616 0.30518 0.0
H236 H 0.72186 0.90813 0.26829 0.0
Co237 Co 0.71737 0.89278 0.31777 0.0
C238 C 0.69595 0.92195 0.362 0.0
O239 O 0.70848 0.89186 0.37078 0.0
N240 N 0.69921 0.85282 0.33437 0.0
C241 C 0.692 0.7999 0.35155 0.0
C242 C 0.71644 0.82277 0.34166 0.0
C243 C 0.66412 0.8472 0.34003 0.0
N244 N 0.65893 0.81513 0.35042 0.0
O245 O 0.67205 0.89545 0.30157 0.0
H246 H 0.74485 0.81699 0.33988 0.0
H247 H 0.64267 0.86607 0.33612 0.0
O248 O 0.69865 0.92704 0.34083 0.0
C249 C 0.66726 0.86901 0.28814 0.0
O250 O 0.69139 0.84284 0.28778 0.0
N251 N 0.76342 0.88853 0.33132 0.0
C252 C 0.83215 0.87013 0.34737 0.0
C253 C 0.8122 0.89834 0.3572 0.0
C254 C 0.77814 0.90764 0.34864 0.0
C255 C 0.78398 0.8638 0.32019 0.0
C256 C 0.818 0.85361 0.32815 0.0
H257 H 0.76409 0.93023 0.35599 0.0
H258 H 0.77282 0.8503 0.30571 0.0
H259 H 0.76043 0.97012 0.32192 0.0
H260 H 0.75452 0.96542 0.25182 0.0
H261 H 0.69835 0.77396 0.35896 0.0
H262 H 0.82281 0.91313 0.37137 0.0
H263 H 0.83231 0.83194 0.31978 0.0
H264 H 0.10316 0.39546 0.24984 0.0
H265 H 0.10639 0.4411 0.2798 0.0
H266 H 0.19008 0.37901 0.31233 0.0
H267 H 0.18769 0.33435 0.28266 0.0
H268 H 0.09612 0.43534 0.32575 0.0
H269 H 0.23694 0.47738 0.30812 0.0
H270 H 0.21081 0.45052 0.2888 0.0
H271 H 0.23326 0.42946 0.31213 0.0
C272 C 0.12233 0.39175 0.26335 0.0
C273 C 0.14545 0.36149 0.26368 0.0
C274 C 0.12412 0.41776 0.28046 0.0
C275 C 0.14906 0.41387 0.29808 0.0
C276 C 0.17137 0.3832 0.29864 0.0
H277 H 0.20783 0.52879 0.42003 0.0
H278 H 0.1959 0.4817 0.39189 0.0
C279 C 0.1698 0.35753 0.28161 0.0
C280 C 0.15196 0.44133 0.31617 0.0
H281 H 0.2129 0.49509 0.34349 0.0
C282 C 0.12155 0.44865 0.3295 0.0
C283 C 0.18518 0.45875 0.3211 0.0
C284 C 0.21829 0.45393 0.30664 0.0
C285 C 0.12377 0.47219 0.34794 0.0
C286 C 0.1572 0.48877 0.35315 0.0
C287 C 0.18745 0.48179 0.3397 0.0
C288 C 0.161 0.51536 0.37157 0.0
C289 C 0.09055 0.4788 0.36198 0.0
C290 C 0.14506 0.54961 0.36955 0.0
C291 C 0.15208 0.57645 0.38538 0.0
C292 C 0.17503 0.56957 0.40367 0.0
C293 C 0.1898 0.53476 0.40623 0.0
C294 C 0.18312 0.50794 0.39015 0.0
H295 H 0.06891 0.45871 0.35853 0.0
H296 H 0.09747 0.47784 0.38003 0.0
H297 H 0.07972 0.50618 0.35829 0.0
H298 H 0.1283 0.55605 0.35523 0.0
H299 H 0.14024 0.603 0.38297 0.0
H300 H 0.90471 0.64672 0.63413 0.0
H301 H 0.94905 0.62983 0.60582 0.0
H302 H 0.03096 0.69072 0.64085 0.0
H303 H 0.98667 0.7067 0.66978 0.0
H304 H 0.98102 0.67498 0.57845 0.0
H305 H 0.08732 0.60147 0.62531 0.0
H306 H 0.04344 0.61113 0.63715 0.0
H307 H 0.07821 0.64524 0.63696 0.0
C308 C 0.9324 0.65587 0.63606 0.0
C309 C 0.94229 0.67801 0.65415 0.0
C310 C 0.95771 0.64624 0.61983 0.0
C311 C 0.99348 0.65876 0.62118 0.0
C312 C 1.00378 0.67997 0.63966 0.0
H313 H 0.16894 0.68808 0.53135 0.0
H314 H 0.12449 0.687 0.56126 0.0
C315 C 0.97846 0.68921 0.65617 0.0
C316 C 0.01869 0.65236 0.60219 0.0
H317 H 0.10346 0.6224 0.58869 0.0
C318 C 0.00757 0.66295 0.58068 0.0
C319 C 0.05334 0.63659 0.60501 0.0
C320 C 0.06616 0.62261 0.62732 0.0
C321 C 0.03055 0.6594 0.56214 0.0
C322 C 0.06555 0.64482 0.56513 0.0
C323 C 0.0765 0.63351 0.58648 0.0
C324 C 0.09231 0.64428 0.54671 0.0
C325 C 0.01786 0.67256 0.5396 0.0
C326 C 0.0889 0.62052 0.52849 0.0
C327 C 0.11454 0.62093 0.51119 0.0
C328 C 0.14377 0.64526 0.51187 0.0
C329 C 0.14677 0.66902 0.53016 0.0
C330 C 0.12146 0.6684 0.5474 0.0
H331 H 0.99136 0.68672 0.54054 0.0
H332 H 0.03814 0.69125 0.53227 0.0
H333 H 0.01506 0.64915 0.52811 0.0
H334 H 0.06657 0.6016 0.52773 0.0
H335 H 0.11154 0.60225 0.49738 0.0
H336 H 0.87151 0.40866 0.88278 0.0
H337 H 0.88731 0.45435 0.85509 0.0
H338 H 0.82839 0.53471 0.89269 0.0
H339 H 0.8134 0.48902 0.92094 0.0
H340 H 0.84102 0.48865 0.82907 0.0
H341 H 0.91803 0.59073 0.87726 0.0
H342 H 0.90838 0.54624 0.88814 0.0
H343 H 0.87459 0.58133 0.88927 0.0
C344 C 0.86251 0.43625 0.8854 0.0
C345 C 0.84123 0.44529 0.90404 0.0
C346 C 0.87153 0.46235 0.86952 0.0
C347 C 0.8593 0.49811 0.87178 0.0
C348 C 0.8389 0.50753 0.89077 0.0
H349 H 0.83356 0.68022 0.78551 0.0
H350 H 0.83431 0.63508 0.81509 0.0
C351 C 0.83023 0.4814 0.9069 0.0
C352 C 0.86528 0.52437 0.85328 0.0
H353 H 0.89674 0.60906 0.84116 0.0
C354 C 0.85367 0.51478 0.8317 0.0
C355 C 0.88181 0.55849 0.85663 0.0
C356 C 0.89675 0.5697 0.87903 0.0
C357 C 0.85708 0.53869 0.8136 0.0
C358 C 0.8727 0.5731 0.81709 0.0
C359 C 0.88485 0.58257 0.83854 0.0
C360 C 0.87387 0.60066 0.79909 0.0
C361 C 0.84277 0.52756 0.79101 0.0
C362 C 0.89614 0.59641 0.78024 0.0
C363 C 0.89589 0.62242 0.76315 0.0
C364 C 0.87321 0.65291 0.76465 0.0
C365 C 0.85124 0.65701 0.78368 0.0
C366 C 0.85171 0.6313 0.80072 0.0
H367 H 0.82685 0.50211 0.7918 0.0
H368 H 0.82539 0.54925 0.78391 0.0
H369 H 0.8658 0.52332 0.77942 0.0
H370 H 0.91365 0.57301 0.77876 0.0
H371 H 0.91317 0.61853 0.74875 0.0
H372 H 0.86257 0.31443 0.01964 0.0
H373 H 0.90369 0.31421 0.05142 0.0
H374 H 0.9166 0.42981 0.0456 0.0
H375 H 0.87598 0.42994 1.01296 0.0
H376 H 0.97955 0.39911 0.05484 0.0
H377 H 0.87987 0.34339 0.11379 0.0
H378 H 0.88406 0.31394 0.09019 0.0
H379 H 0.86713 0.35934 0.08642 0.0
C380 C 0.87419 0.33987 0.02505 0.0
C381 C 0.86577 0.37227 0.01391 0.0
C382 C 0.89744 0.33975 0.04343 0.0
C383 C 0.91227 0.37215 0.05152 0.0
C384 C 0.90505 0.40451 0.03991 0.0
H385 H 0.03139 0.34611 0.17942 0.0
H386 H 0.98593 0.3683 0.15253 0.0
C387 C 0.88202 0.40457 0.0212 0.0
C388 C 0.93612 0.37146 0.07165 0.0
H389 H 0.94301 0.33438 0.1238 0.0
C390 C 0.9713 0.38552 0.07006 0.0
C391 C 0.92525 0.3548 0.09189 0.0
C392 C 0.88686 0.34244 0.09576 0.0
C393 C 0.99656 0.38098 0.08742 0.0
C394 C 0.98683 0.36078 0.10663 0.0
C395 C 0.95088 0.34916 0.10893 0.0
C396 C 0.01426 0.34851 0.1233 0.0
C397 C 0.03362 0.39755 0.08479 0.0
C398 C 0.04471 0.32922 0.11598 0.0
C399 C 0.07055 0.31691 0.13115 0.0
C400 C 0.06645 0.32285 0.15423 0.0
C401 C 0.03542 0.34123 0.16177 0.0
C402 C 0.00951 0.35397 0.1464 0.0
H403 H 0.03232 0.42258 0.07454 0.0
H404 H 0.04591 0.40428 0.1012 0.0
H405 H 0.05157 0.37816 0.07598 0.0
H406 H 0.04842 0.32329 0.09842 0.0
H407 H 0.09373 0.30234 0.12467 0.0
H408 H 0.56576 0.14221 0.51663 0.0
H409 H 0.5668 0.10107 0.48422 0.0
H410 H 0.68352 0.10462 0.48408 0.0
H411 H 0.68257 0.14589 0.51567 0.0
H412 H 0.65681 0.11611 0.4429 0.0
H413 H 0.5921 0.99452 0.48017 0.0
H414 H 0.56612 0.03561 0.48136 0.0
H415 H 0.60753 0.03201 0.49696 0.0
C416 C 0.59155 0.13368 0.50983 0.0
C417 C 0.62406 0.14735 0.51868 0.0
C418 C 0.59216 0.11019 0.49131 0.0
C419 C 0.6253 0.09963 0.48165 0.0
C420 C 0.65761 0.11252 0.49102 0.0
H421 H 0.70159 0.92298 0.40717 0.0
H422 H 0.67915 0.96782 0.43327 0.0
C423 C 0.657 0.13608 0.5092 0.0
C424 C 0.62729 0.07598 0.46147 0.0
H425 H 0.61221 0.98975 0.44312 0.0
C426 C 0.64669 0.08857 0.44283 0.0
C427 C 0.61411 0.04005 0.46135 0.0
C428 C 0.59402 0.02449 0.48105 0.0
C429 C 0.65498 0.06581 0.4247 0.0
C430 C 0.64268 0.02956 0.42484 0.0
C431 C 0.62159 0.01754 0.44295 0.0
C432 C 0.65527 1.00238 0.40809 0.0
C433 C 0.67875 0.08023 0.40625 0.0
C434 C 0.64947 0.00661 0.38497 0.0
C435 C 0.6629 0.98089 0.36972 0.0
C436 C 0.68185 0.95027 0.37739 0.0
C437 C 0.68708 0.94609 0.40054 0.0
C438 C 0.67409 0.97175 0.41561 0.0
H439 H 0.6919 0.10617 0.41093 0.0
H440 H 0.70019 0.06039 0.40186 0.0
H441 H 0.66201 0.08513 0.39116 0.0
H442 H 0.63446 0.02964 0.37871 0.0
H443 H 0.65814 0.98476 0.35204 0.0
H444 H 0.39016 0.08715 0.7757 0.0
H445 H 0.4293 0.0905 0.74245 0.0
H446 H 0.35464 0.16544 0.71194 0.0
H447 H 0.31575 0.16207 0.74457 0.0
H448 H 0.38139 0.1127 0.68187 0.0
H449 H 0.49122 0.18131 0.72961 0.0
H450 H 0.4762 0.13804 0.73969 0.0
H451 H 0.44617 0.1762 0.74075 0.0
C452 C 0.38201 0.104 0.76178 0.0
C453 C 0.35004 0.12464 0.76292 0.0
C454 C 0.40442 0.10601 0.74284 0.0
C455 C 0.39507 0.12854 0.72476 0.0
C456 C 0.36247 0.14789 0.72561 0.0
H457 H 0.50147 0.25851 0.63116 0.0
H458 H 0.46368 0.22808 0.65872 0.0
C459 C 0.34033 0.14607 0.74443 0.0
C460 C 0.41972 0.13439 0.70543 0.0
H461 H 0.49752 0.17823 0.69078 0.0
C462 C 0.40717 0.12636 0.6838 0.0
C463 C 0.45316 0.15258 0.70797 0.0
C464 C 0.46759 0.16283 0.73069 0.0
C465 C 0.42647 0.13729 0.66468 0.0
C466 C 0.45912 0.15669 0.66727 0.0
C467 C 0.47246 0.16329 0.68886 0.0
C468 C 0.47796 0.17401 0.64811 0.0
C469 C 0.41094 0.12987 0.64185 0.0
C470 C 0.49753 0.15368 0.63235 0.0
C471 C 0.51912 0.17116 0.61631 0.0
C472 C 0.52155 0.20917 0.61599 0.0
C473 C 0.50016 0.22923 0.63095 0.0
C474 C 0.47867 0.21187 0.64681 0.0
H475 H 0.38382 0.11699 0.6427 0.0
H476 H 0.4087 0.15548 0.63225 0.0
H477 H 0.42943 0.11164 0.63253 0.0
H478 H 0.49757 0.12441 0.63316 0.0
H479 H 0.53575 0.15498 0.60525 0.0
H480 H 0.32332 0.8529 1.01203 0.0
H481 H 0.3207 0.89289 0.97976 0.0
H482 H 0.43668 0.90507 0.98167 0.0
H483 H 0.43958 0.8648 0.01454 0.0
H484 H 0.35341 0.96933 0.97521 0.0
H485 H 0.4037 0.86352 0.9165 0.0
H486 H 0.38264 0.85149 0.94267 0.0
H487 H 0.42691 0.87121 0.9426 0.0
C488 C 0.34836 0.86423 1.00577 0.0
C489 C 0.38172 0.85551 0.01577 0.0
C490 C 0.34675 0.88719 0.98733 0.0
C491 C 0.37846 0.90173 0.97824 0.0
C492 C 0.4119 0.89397 0.98844 0.0
H493 H 0.35557 0.05597 0.86639 0.0
H494 H 0.38118 0.0251 0.89895 0.0
C495 C 0.41351 0.87115 1.00722 0.0
C496 C 0.3757 0.92378 0.9576 0.0
H497 H 0.37939 0.91653 0.90074 0.0
C498 C 0.35985 0.95823 0.95892 0.0
C499 C 0.38362 0.90888 0.93641 0.0
C500 C 0.40011 0.87171 0.93421 0.0
C501 C 0.35061 0.97772 0.93956 0.0
C502 C 0.35744 0.96232 0.91833 0.0
C503 C 0.37434 0.92833 0.91702 0.0
C504 C 0.34431 0.97976 0.89747 0.0
C505 C 0.33186 0.01381 0.94192 0.0
C506 C 0.31581 0.96401 0.8854 0.0
C507 C 0.3009 0.98169 0.86687 0.0
C508 C 0.31433 0.01548 0.85993 0.0
C509 C 0.34408 0.03034 0.87145 0.0
C510 C 0.35883 0.01272 0.89008 0.0
H511 H 0.32394 0.01955 0.95946 0.0
H512 H 0.35033 0.03561 0.93625 0.0
H513 H 0.30726 0.01475 0.93126 0.0
H514 H 0.30427 0.93852 0.89077 0.0
H515 H 0.27819 0.96927 0.85839 0.0
H516 H 0.63596 0.92657 0.26642 0.0
H517 H 0.59599 0.92346 0.2335 0.0
H518 H 0.59396 0.80714 0.23872 0.0
H519 H 0.63391 0.81006 0.27118 0.0
H520 H 0.6169 0.88254 0.19336 0.0
H521 H 0.486 0.83649 0.22845 0.0
H522 H 0.51999 0.8592 0.24505 0.0
H523 H 0.52467 0.81193 0.23861 0.0
C524 C 0.62608 0.90048 0.26088 0.0
C525 C 0.63789 0.86855 0.27136 0.0
C526 C 0.6035 0.89871 0.24201 0.0
C527 C 0.59182 0.86506 0.23376 0.0
C528 C 0.60222 0.83339 0.24495 0.0
H529 H 0.53933 0.76977 0.10887 0.0
H530 H 0.56724 0.79464 0.14255 0.0
C531 C 0.62512 0.8351 0.26347 0.0
C532 C 0.57182 0.86215 0.2123 0.0
H533 H 0.495 0.82671 0.18927 0.0
C534 C 0.58997 0.87096 0.19245 0.0
C535 C 0.53667 0.84716 0.21114 0.0
C536 C 0.51548 0.83842 0.23195 0.0
C537 C 0.57465 0.86339 0.17146 0.0
C538 C 0.5404 0.84641 0.17031 0.0
C539 C 0.52141 0.83944 0.19015 0.0
C540 C 0.52475 0.83366 0.14883 0.0
C541 C 0.59551 0.87296 0.15066 0.0
C542 C 0.49161 0.84738 0.14109 0.0
C543 C 0.47562 0.83334 0.12172 0.0
C544 C 0.49213 0.80477 0.10991 0.0
C545 C 0.52579 0.79171 0.11747 0.0
C546 C 0.54188 0.80599 0.13672 0.0
H547 H 0.61621 0.89407 0.15402 0.0
H548 H 0.60966 0.84848 0.14441 0.0
H549 H 0.57706 0.88274 0.1373 0.0
H550 H 0.4779 0.86871 0.15019 0.0
H551 H 0.44994 0.84439 0.11631 0.0
H552 H 0.28813 0.86745 0.13661 0.0
H553 H 0.25059 0.91996 0.14543 0.0
H554 H 0.29357 0.97602 0.08812 0.0
H555 H 0.33068 0.9228 0.07897 0.0
H556 H 0.27751 0.98383 0.15682 0.0
H557 H 0.18718 1.00174 0.08365 0.0
H558 H 0.21239 0.96059 0.08852 0.0
H559 H 0.23431 0.99938 0.0765 0.0
C560 C 0.28911 0.89078 0.1257 0.0
C561 C 0.31246 0.89123 0.10721 0.0
C562 C 0.2676 0.92073 0.13071 0.0
C563 C 0.26907 0.95196 0.11741 0.0
C564 C 0.29136 0.95202 0.09838 0.0
H565 H 0.22513 0.16591 0.16886 0.0
H566 H 0.2513 0.11139 0.1524 0.0
C567 C 0.31265 0.92171 0.09319 0.0
C568 C 0.25025 0.98535 0.12501 0.0
H569 H 0.18939 0.05065 0.10976 0.0
C570 C 0.25809 0.99826 0.14654 0.0
C571 C 0.22467 1.00407 0.1117 0.0
C572 C 0.21382 0.9906 0.08889 0.0
C573 C 0.24145 0.02943 0.15504 0.0
C574 C 0.2169 0.04895 0.14146 0.0
C575 C 0.2085 0.03583 0.12005 0.0
C576 C 0.20024 0.08322 0.14932 0.0
C577 C 0.25001 0.04091 0.17867 0.0
C578 C 0.16261 0.0861 0.15219 0.0
C579 C 0.14747 0.11745 0.16153 0.0
C580 C 0.16982 0.14629 0.1682 0.0
C581 C 0.2073 0.1438 0.1644 0.0
C582 C 0.2223 0.1127 0.15495 0.0
H583 H 0.26097 0.0181 0.1887 0.0
H584 H 0.27079 0.06256 0.17832 0.0
H585 H 0.22558 0.05169 0.18718 0.0
H586 H 0.14509 0.06368 0.14786 0.0
H587 H 0.11851 0.11862 0.16423 0.0
H588 H 0.64473 0.74406 0.35833 0.0
H589 H 0.58806 0.71783 0.37124 0.0
H590 H 0.5387 0.82349 0.37172 0.0
H591 H 0.59573 0.85044 0.35939 0.0
H592 H 0.54813 0.73963 0.41234 0.0
H593 H 0.47008 0.75509 0.33331 0.0
H594 H 0.51899 0.75505 0.334 0.0
H595 H 0.49438 0.79412 0.34325 0.0
C596 C 0.62212 0.76198 0.36136 0.0
C597 C 0.62511 0.79955 0.35782 0.0
C598 C 0.5896 0.7468 0.36861 0.0
C599 C 0.55921 0.76869 0.37224 0.0
C600 C 0.56181 0.80611 0.36871 0.0
H601 H 0.35901 0.72302 0.44102 0.0
H602 H 0.41522 0.7489 0.42682 0.0
C603 C 0.59447 0.82143 0.3616 0.0
C604 C 0.52509 0.75228 0.38025 0.0
H605 H 0.43854 0.73195 0.36455 0.0
C606 C 0.52415 0.73794 0.40192 0.0
C607 C 0.49406 0.7499 0.3665 0.0
C608 C 0.49421 0.7641 0.34289 0.0
C609 C 0.49269 0.72168 0.41035 0.0
C610 C 0.46151 0.71972 0.39671 0.0
C611 C 0.46256 0.73361 0.37493 0.0
C612 C 0.42738 0.70386 0.40506 0.0
C613 C 0.49292 0.70648 0.43372 0.0
C614 C 0.41553 0.67005 0.39734 0.0
C615 C 0.38359 0.65482 0.40567 0.0
C616 C 0.36282 0.67333 0.42174 0.0
C617 C 0.37468 0.70754 0.42909 0.0
C618 C 0.40666 0.72257 0.42088 0.0
H619 H 0.5207 0.70495 0.44078 0.0
H620 H 0.47628 0.72405 0.44471 0.0
H621 H 0.48077 0.67901 0.4339 0.0
H622 H 0.43127 0.65525 0.38511 0.0
H623 H 0.37549 0.62835 0.39975 0.0
H624 H 0.65958 0.09779 0.64122 0.0
H625 H 0.69696 0.04439 0.64786 0.0
H626 H 0.75351 0.06324 0.58602 0.0
H627 H 0.71641 0.11742 0.57941 0.0
H628 H 0.70587 0.98175 0.61975 0.0
H629 H 0.83451 0.05639 0.63484 0.0
H630 H 0.79083 0.07832 0.63593 0.0
H631 H 0.81025 0.06639 0.6095 0.0
C632 C 0.68012 0.09081 0.62909 0.0
C633 C 0.68527 0.1121 0.6099 0.0
C634 C 0.70129 0.06012 0.63283 0.0
C635 C 0.72823 0.05012 0.61757 0.0
C636 C 0.7331 0.07079 0.59814 0.0
H637 H 0.83881 0.84052 0.63264 0.0
H638 H 0.8101 0.89355 0.61557 0.0
C639 C 0.71171 0.10152 0.5943 0.0
C640 C 0.75112 0.01809 0.62237 0.0
H641 H 0.83606 0.99308 0.63896 0.0
C642 C 0.73445 0.98407 0.62367 0.0
C643 C 0.78829 0.0214 0.62768 0.0
C644 C 0.80718 0.05755 0.6271 0.0
C645 C 0.75377 0.95334 0.63063 0.0
C646 C 0.79083 0.95672 0.63624 0.0
C647 C 0.80771 0.9906 0.63449 0.0
C648 C 0.81158 0.92593 0.64565 0.0
C649 C 0.73401 0.91781 0.63288 0.0
C650 C 0.82308 0.92709 0.66797 0.0
C651 C 0.83964 0.89698 0.67773 0.0
C652 C 0.8452 0.86515 0.6653 0.0
C653 C 0.83509 0.86466 0.64264 0.0
C654 C 0.81841 0.89481 0.6329 0.0
H655 H 0.70418 0.92122 0.63173 0.0
H656 H 0.7427 0.89931 0.6193 0.0
H657 H 0.74062 0.90469 0.64906 0.0
H658 H 0.81822 0.95095 0.67805 0.0
H659 H 0.84762 0.89842 0.69511 0.0
H660 H 0.39789 0.22352 0.82781 0.0
H661 H 0.45197 0.2617 0.83256 0.0
H662 H 0.48935 0.19153 0.8853 0.0
H663 H 0.43619 0.15338 0.88041 0.0
H664 H 0.47237 0.29844 0.87222 0.0
H665 H 0.57922 0.20259 0.84591 0.0
H666 H 0.53209 0.19628 0.83885 0.0
H667 H 0.5488 0.18307 0.86589 0.0
C668 C 0.41803 0.216 0.8401 0.0
C669 C 0.41271 0.18557 0.85381 0.0
C670 C 0.44876 0.23787 0.84289 0.0
C671 C 0.47489 0.22923 0.85913 0.0
C672 C 0.4699 0.19843 0.87242 0.0
H673 H 0.62156 0.34624 0.94087 0.0
H674 H 0.56968 0.3184 0.92233 0.0
C675 C 0.43926 0.17684 0.86977 0.0
C676 C 0.50635 0.25324 0.86345 0.0
H677 H 0.59822 0.25162 0.86969 0.0
C678 C 0.49996 0.28848 0.87129 0.0
C679 C 0.54237 0.24044 0.86197 0.0
C680 C 0.55111 0.20364 0.85248 0.0
C681 C 0.52847 0.31042 0.87892 0.0
C682 C 0.56421 0.29654 0.87902 0.0
C683 C 0.5708 0.26214 0.8699 0.0
C684 C 0.5948 0.31612 0.88973 0.0
C685 C 0.51996 0.34808 0.88711 0.0
C686 C 0.62648 0.32374 0.87768 0.0
C687 C 0.65643 0.33931 0.88832 0.0
C688 C 0.65545 0.34725 0.91131 0.0
C689 C 0.62341 0.34018 0.92321 0.0
C690 C 0.5935 0.32468 0.91256 0.0
H691 H 0.49473 0.35867 0.87937 0.0
H692 H 0.51583 0.34736 0.90545 0.0
H693 H 0.54244 0.36708 0.88343 0.0
H694 H 0.62823 0.31707 0.86009 0.0
H695 H 0.68079 0.34394 0.8787 0.0
H696 H 0.64729 0.39665 0.59099 0.0
H697 H 0.67469 0.45084 0.60715 0.0
H698 H 0.73253 0.38494 0.65469 0.0
H699 H 0.70486 0.33052 0.63886 0.0
H700 H 0.6709 0.47574 0.65213 0.0
H701 H 0.81255 0.44752 0.62593 0.0
H702 H 0.77419 0.42443 0.61384 0.0
H703 H 0.79035 0.4119 0.64105 0.0
C704 C 0.66556 0.39361 0.60502 0.0
C705 C 0.67386 0.35912 0.61359 0.0
C706 C 0.68137 0.42464 0.61415 0.0
C707 C 0.70601 0.42188 0.63191 0.0
C708 C 0.71415 0.38762 0.64068 0.0
H709 H 0.82793 0.59107 0.70214 0.0
H710 H 0.80302 0.53263 0.69024 0.0
C711 C 0.6983 0.35655 0.63159 0.0
C712 C 0.72254 0.45504 0.64147 0.0
H713 H 0.80288 0.49958 0.64803 0.0
C714 C 0.69975 0.48095 0.65126 0.0
C715 C 0.76024 0.46161 0.64047 0.0
C716 C 0.78585 0.4351 0.62962 0.0
C717 C 0.7136 0.51335 0.66001 0.0
C718 C 0.75117 0.5204 0.6585 0.0
C719 C 0.7741 0.49414 0.64915 0.0
C720 C 0.76684 0.55558 0.66557 0.0
C721 C 0.68785 0.53964 0.67097 0.0
C722 C 0.75537 0.58772 0.65532 0.0
C723 C 0.76955 0.621 0.66203 0.0
C724 C 0.79577 0.62293 0.67904 0.0
C725 C 0.80791 0.59057 0.68894 0.0
C726 C 0.7936 0.55717 0.68222 0.0
H727 H 0.66275 0.52597 0.6767 0.0
H728 H 0.70071 0.55321 0.68549 0.0
H729 H 0.67996 0.56072 0.6587 0.0
H730 H 0.7355 0.58707 0.64201 0.0
H731 H 0.76021 0.64522 0.65366 0.0
H732 H 0.19525 0.21594 0.89444 0.0
H733 H 0.13985 0.24297 0.90958 0.0
H734 H 0.07654 0.15872 0.87868 0.0
H735 H 0.13161 0.13152 0.86365 0.0
H736 H 0.08219 0.2702 0.88706 0.0
H737 H 0.03608 0.15807 0.94118 0.0
H738 H 0.08118 0.15975 0.92966 0.0
H739 H 0.04393 0.14361 0.91301 0.0
C740 C 0.16953 0.20303 0.89102 0.0
C741 C 0.16793 0.17138 0.87797 0.0
C742 C 0.1379 0.21847 0.89972 0.0
C743 C 0.10402 0.20258 0.8956 0.0
C744 C 0.10238 0.17095 0.88264 0.0
H745 H 0.87919 0.2559 0.90904 0.0
H746 H 0.93876 0.23119 0.90043 0.0
C747 C 0.13397 0.1554 0.87404 0.0
C748 C 0.07019 0.22004 0.90377 0.0
H749 H 0.99199 0.20358 0.93247 0.0
C750 C 0.06269 0.2558 0.89724 0.0
C751 C 0.04473 0.2013 0.91711 0.0
C752 C 0.05202 0.1637 0.92584 0.0
C753 C 0.02988 0.27277 0.90295 0.0
C754 C 1.00402 0.25358 0.91566 0.0
C755 C 0.01182 0.21817 0.92262 0.0
C756 C 0.96804 0.26918 0.92109 0.0
C757 C 0.02251 0.31063 0.8947 0.0
C758 C 0.96466 0.29869 0.9357 0.0
C759 C 0.93044 0.31277 0.9409 0.0
C760 C 0.89889 0.29756 0.93157 0.0
C761 C 0.90261 0.26804 0.91686 0.0
C762 C 0.93674 0.25393 0.91179 0.0
H763 H 0.04253 0.31942 0.88199 0.0
H764 H 0.99494 0.31245 0.88736 0.0
H765 H 0.02379 0.32974 0.90898 0.0
H766 H 0.98848 0.31055 0.9433 0.0
H767 H 0.92875 0.33511 0.95251 0.0
H768 H 0.38019 0.62124 0.11156 0.0
H769 H 0.35137 0.56694 0.12659 0.0
H770 H 0.25852 0.62999 0.14621 0.0
H771 H 0.28749 0.68479 0.13189 0.0
H772 H 0.3186 0.5554 0.17351 0.0
H773 H 0.22322 0.54565 0.10159 0.0
H774 H 0.26545 0.57007 0.09981 0.0
H775 H 0.22824 0.58892 0.1151 0.0
C776 C 0.35399 0.62383 0.11949 0.0
C777 C 0.33613 0.65748 0.12039 0.0
C778 C 0.33748 0.59268 0.12794 0.0
C779 C 0.30275 0.59452 0.13728 0.0
C780 C 0.28522 0.62806 0.13883 0.0
H781 H 0.18287 0.4197 0.20299 0.0
H782 H 0.20671 0.47945 0.19275 0.0
C783 C 0.30177 0.65928 0.13052 0.0
C784 C 0.28438 0.56104 0.14463 0.0
H785 H 0.21873 0.50085 0.12941 0.0
C786 C 0.29658 0.54356 0.16401 0.0
C787 C 0.25585 0.5457 0.13205 0.0
C788 C 0.24235 0.56328 0.11089 0.0
C789 C 0.28099 0.51087 0.17111 0.0
C790 C 0.25263 0.49542 0.15845 0.0
C791 C 0.24033 0.513 0.13913 0.0
C792 C 0.23694 0.45987 0.16429 0.0
C793 C 0.29545 0.49247 0.19176 0.0
C794 C 0.24561 0.42939 0.15143 0.0
C795 C 0.23217 0.39538 0.15725 0.0
C796 C 0.20947 0.39128 0.1759 0.0
C797 C 0.20005 0.42208 0.18843 0.0
C798 C 0.21382 0.45612 0.18271 0.0
H799 H 0.32008 0.50598 0.19837 0.0
H800 H 0.27437 0.49277 0.20495 0.0
H801 H 0.30198 0.46375 0.18807 0.0
H802 H 0.26329 0.43185 0.13709 0.0
H803 H 0.23952 0.37223 0.14713 0.0
H804 H 0.89373 0.84709 0.32584 0.0
H805 H 0.94786 0.82006 0.34244 0.0
H806 H 0.90361 0.83659 0.40822 0.0
H807 H 0.84889 0.86289 0.3918 0.0
H808 H 0.97941 0.85695 0.40251 0.0
H809 H 0.94884 0.7179 0.37269 0.0
H810 H 0.94736 0.75254 0.35163 0.0
H811 H 0.91498 0.75314 0.37397 0.0
C812 C 0.89532 0.84484 0.34384 0.0
C813 C 0.86668 0.85693 0.35744 0.0
C814 C 0.92635 0.82942 0.35329 0.0
C815 C 0.92946 0.82582 0.37653 0.0
C816 C 0.90164 0.839 0.39023 0.0
H817 H 0.08879 0.69306 0.4474 0.0
H818 H 0.03252 0.72126 0.43453 0.0
C819 C 0.87048 0.85428 0.38079 0.0
C820 C 0.96163 0.80796 0.38648 0.0
H821 H 0.00673 0.72728 0.38892 0.0
C822 C 0.98534 0.82858 0.39964 0.0
C823 C 0.96899 0.77082 0.38295 0.0
C824 C 0.94361 0.74711 0.3697 0.0
C825 C 0.01684 0.81324 0.40883 0.0
C826 C 0.02487 0.77642 0.40461 0.0
C827 C 1.00061 0.75555 0.392 0.0
C828 C 0.05892 0.75939 0.41256 0.0
C829 C 0.0413 0.83649 0.423 0.0
C830 C 0.09233 0.77111 0.40422 0.0
C831 C 0.12449 0.75484 0.41133 0.0
C832 C 0.12403 0.72642 0.427 0.0
C833 C 0.09034 0.71457 0.43521 0.0
C834 C 0.0581 0.7308 0.42796 0.0
H835 H 0.02718 0.86116 0.42908 0.0
H836 H 0.05161 0.82109 0.43761 0.0
H837 H 0.0649 0.84516 0.41289 0.0
H838 H 0.09351 0.79263 0.39196 0.0
H839 H 0.14965 0.76427 0.40422 0.0
H840 H 0.81923 0.99956 0.31313 0.0
H841 H 0.86267 0.0485 0.30599 0.0
H842 H 0.80302 0.07878 0.24694 0.0
H843 H 0.75941 0.0306 0.25421 0.0
H844 H 0.90547 0.05395 0.26727 0.0
H845 H 0.81994 0.17623 0.27779 0.0
H846 H 0.80695 0.13241 0.28842 0.0
H847 H 0.80108 0.14289 0.25933 0.0
C848 C 0.81492 0.01725 0.29897 0.0
C849 C 0.78594 0.01119 0.28421 0.0
C850 C 0.83988 0.045 0.2948 0.0
C851 C 0.83597 0.06746 0.276 0.0
C852 C 0.80635 0.06219 0.26171 0.0
H853 H 0.01094 0.19155 0.21304 0.0
H854 H 0.95915 0.15093 0.2192 0.0
C855 C 0.78159 0.03444 0.2658 0.0
C856 C 0.86409 0.0947 0.27035 0.0
H857 H 0.87758 0.18488 0.2609 0.0
C858 C 0.89941 0.0826 0.26594 0.0
C859 C 0.85616 0.13206 0.26864 0.0
C860 C 0.81907 0.14682 0.27398 0.0
C861 C 0.92695 0.10679 0.25974 0.0
C862 C 0.91885 0.14407 0.25758 0.0
C863 C 0.8836 0.15623 0.26219 0.0
C864 C 0.94735 0.17113 0.25235 0.0
C865 C 0.96472 0.09237 0.25607 0.0
C866 C 0.95677 0.197 0.26845 0.0
C867 C 0.98601 0.22017 0.2649 0.0
C868 C 0.0064 0.21817 0.24512 0.0
C869 C 0.99565 0.19375 0.22839 0.0
C870 C 0.96636 0.17032 0.23201 0.0
H871 H 0.96801 0.06452 0.26277 0.0
H872 H 0.97047 0.09161 0.23789 0.0
H873 H 0.9851 0.1102 0.2641 0.0
H874 H 0.94235 0.19833 0.28418 0.0
H875 H 0.99338 0.23907 0.27795 0.0
H876 H 0.48142 0.26453 0.52845 0.0
H877 H 0.42835 0.30001 0.51676 0.0
H878 H 0.49795 0.38985 0.50063 0.0
H879 H 0.55054 0.35474 0.51195 0.0
H880 H 0.40159 0.36121 0.53293 0.0
H881 H 0.43791 0.38591 0.445 0.0
H882 H 0.46109 0.35274 0.46191 0.0
H883 H 0.47406 0.39972 0.46305 0.0
C884 C 0.48532 0.29178 0.5223 0.0
C885 C 0.52032 0.30656 0.52085 0.0
C886 C 0.45502 0.31198 0.51552 0.0
C887 C 0.45915 0.34732 0.50718 0.0
C888 C 0.49403 0.36222 0.50614 0.0
H889 H 0.32508 0.53102 0.51745 0.0
H890 H 0.36694 0.48034 0.52016 0.0
C891 C 0.52419 0.34207 0.51273 0.0
C892 C 0.42716 0.36989 0.50107 0.0
H893 H 0.39609 0.42908 0.46152 0.0
C894 C 0.40009 0.3755 0.51713 0.0
C895 C 0.4245 0.38806 0.48027 0.0
C896 C 0.45076 0.38095 0.4615 0.0
C897 C 0.37199 0.4005 0.5136 0.0
C898 C 0.37137 0.4212 0.49368 0.0
C899 C 0.3969 0.41379 0.47696 0.0
C900 C 0.34651 0.45263 0.49093 0.0
C901 C 0.34356 0.40494 0.53146 0.0
C902 C 0.32224 0.45508 0.47285 0.0
C903 C 0.29824 0.48454 0.47113 0.0
C904 C 0.29822 0.51184 0.4875 0.0
C905 C 0.32369 0.50994 0.50493 0.0
C906 C 0.34762 0.48087 0.50654 0.0
H907 H 0.34031 0.37969 0.54132 0.0
H908 H 0.35203 0.42665 0.54315 0.0
H909 H 0.31692 0.41242 0.52419 0.0
H910 H 0.32128 0.43385 0.4604 0.0
H911 H 0.27897 0.48542 0.45751 0.0
H912 H 0.97516 0.84698 0.75476 0.0
H913 H 0.0261 0.88871 0.75719 0.0
H914 H 0.08971 0.81763 0.7156 0.0
H915 H 0.03777 0.77589 0.71276 0.0
H916 H 0.09057 0.87202 0.77614 0.0
H917 H 0.11104 0.9168 0.68842 0.0
H918 H 0.07021 0.89439 0.69745 0.0
H919 H 0.11091 0.86876 0.69312 0.0
C920 C 0.99985 0.84052 0.74587 0.0
C921 C 1.00269 0.80818 0.73369 0.0
C922 C 0.02897 0.86434 0.74727 0.0
C923 C 0.06186 0.8564 0.73664 0.0
C924 C 0.06449 0.82465 0.72372 0.0
H925 H 0.24314 0.98763 0.78849 0.0
H926 H 0.21083 0.93418 0.77487 0.0
C927 C 0.03493 0.80082 0.7221 0.0
C928 C 0.09347 0.88055 0.74066 0.0
H929 H 0.15017 0.94122 0.71561 0.0
C930 C 0.10389 0.88688 0.76288 0.0
C931 C 0.11078 0.89996 0.72335 0.0
C932 C 0.10013 0.89498 0.69923 0.0
C933 C 0.12976 0.91321 0.76841 0.0
C934 C 0.14673 0.93315 0.75116 0.0
C935 C 0.1374 0.92578 0.72882 0.0
C936 C 0.17079 0.96449 0.75618 0.0
C937 C 0.13692 0.92086 0.7928 0.0
C938 C 0.16071 0.99919 0.74898 0.0
C939 C 0.17957 0.02969 0.75635 0.0
C940 C 0.20888 0.02635 0.77126 0.0
C941 C 0.22064 0.99136 0.77714 0.0
C942 C 0.20189 0.96073 0.76955 0.0
H943 H 0.1159 0.90886 0.80378 0.0
H944 H 0.16341 0.90901 0.79761 0.0
H945 H 0.13792 0.95044 0.79601 0.0
H946 H 0.13709 1.00288 0.73847 0.0
H947 H 0.17029 0.05605 0.75095 0.0
H948 H 0.73598 0.53416 1.01258 0.0
H949 H 0.69029 0.582 0.01361 0.0
H950 H 0.64498 0.5425 0.95188 0.0
H951 H 0.69051 0.49393 0.951 0.0
H952 H 0.66879 0.63796 0.98336 0.0
H953 H 0.56068 0.53565 0.99713 0.0
H954 H 0.60814 0.52483 0.99972 0.0
H955 H 0.58797 0.52958 0.97258 0.0
C956 C 0.71647 0.53581 0.99912 0.0
C957 C 0.71654 0.50994 0.98187 0.0
C958 C 0.69049 0.56331 0.99966 0.0
C959 C 0.66383 0.5655 0.98304 0.0
C960 C 0.66501 0.541 0.96507 0.0
H961 H 0.46005 0.68477 0.98801 0.0
H962 H 0.51234 0.65044 0.97461 0.0
C963 C 0.69121 0.51347 0.96446 0.0
C964 C 0.63355 0.59177 0.98562 0.0
H965 H 0.54311 0.59659 0.99701 0.0
C966 C 0.64122 0.62899 0.98614 0.0
C967 C 0.59762 0.58004 0.98938 0.0
C968 C 0.58793 0.54038 0.98987 0.0
C969 C 0.61394 0.65477 0.99034 0.0
C970 C 0.57815 0.64295 0.99463 0.0
C971 C 0.57045 0.60575 0.99367 0.0
C972 C 0.54832 0.66821 1.00095 0.0
C973 C 0.6237 0.69437 0.98996 0.0
C974 C 0.5512 0.69043 0.01995 0.0
C975 C 0.5213 0.71039 0.02753 0.0
C976 C 0.48778 0.70799 0.01648 0.0
C977 C 0.48543 0.68693 0.99697 0.0
C978 C 0.51533 0.66731 0.98929 0.0
H979 H 0.64812 0.69934 0.97959 0.0
H980 H 0.60106 0.71106 0.98339 0.0
H981 H 0.62986 0.70344 1.00721 0.0
H982 H 0.576 0.69101 0.02959 0.0
H983 H 0.52382 0.72591 0.04278 0.0
loop_
_geom_bond_atom_site_label_1
_geom_bond_atom_site_label_2
_geom_bond_distance
_geom_bond_site_symmetry_2
_ccdc_geom_bond_type
C0 C1 1.351 . S
C0 N3 1.368 . S
C0 H5 0.931 . S
C1 C0 1.351 . S
C1 N2 1.373 . S
C1 H29 0.930 . S
N2 C1 1.373 . S
N2 C4 1.340 . S
N3 C0 1.368 . S
N3 C4 1.321 . S
N3 Co6 2.135 . S
C4 N2 1.340 . S
C4 N3 1.321 . S
C4 H28 0.930 . S
H5 C0 0.931 . S
Co6 N3 2.135 . S
Co6 N9 2.121 . S
Co6 O14 2.055 . S
Co6 O17 2.039 . S
Co6 N20 2.140 . S
C7 O8 1.227 . S
C7 O17 1.265 . S
O8 C7 1.227 . S
N9 Co6 2.121 . S
N9 C11 1.375 . S
N9 C12 1.313 . S
C10 C11 1.338 . S
C10 N13 1.377 . S
C10 H30 0.930 . S
C11 N9 1.375 . S
C11 C10 1.338 . S
C11 H15 0.931 . S
C12 N9 1.313 . S
C12 N13 1.344 . S
C12 H16 0.930 . S
N13 C10 1.377 . S
N13 C12 1.344 . S
O14 Co6 2.055 . S
O14 C18 1.253 . S
H15 C11 0.931 . S
H16 C12 0.930 . S
O17 Co6 2.039 . S
O17 C7 1.265 . S
C18 O14 1.253 . S
C18 O19 1.227 . S
O19 C18 1.227 . S
N20 Co6 2.140 . S
N20 C23 1.346 . S
N20 C24 1.345 . S
C21 C22 1.387 . S
C21 C25 1.391 . S
C22 C21 1.387 . S
C22 C23 1.369 . S
C22 H31 0.929 . S
C23 N20 1.346 . S
C23 C22 1.369 . S
C23 H26 0.928 . S
C24 N20 1.345 . S
C24 C25 1.371 . S
C24 H27 0.931 . S
C25 C21 1.391 . S
C25 C24 1.371 . S
C25 H32 0.930 . S
H26 C23 0.928 . S
H27 C24 0.931 . S
H28 C4 0.930 . S
H29 C1 0.930 . S
H30 C10 0.930 . S
H31 C22 0.929 . S
H32 C25 0.930 . S
C33 C34 1.351 . S
C33 N36 1.368 . S
C33 H38 0.931 . S
C34 C33 1.351 . S
C34 N35 1.373 . S
C34 H62 0.930 . S
N35 C34 1.373 . S
N35 C37 1.340 . S
N36 C33 1.368 . S
N36 C37 1.321 . S
N36 Co39 2.135 . S
C37 N35 1.340 . S
C37 N36 1.321 . S
C37 H61 0.930 . S
H38 C33 0.931 . S
Co39 N36 2.135 . S
Co39 N42 2.121 . S
Co39 O47 2.055 . S
Co39 O50 2.039 . S
Co39 N53 2.140 . S
C40 O41 1.227 . S
C40 O50 1.265 . S
O41 C40 1.227 . S
N42 Co39 2.121 . S
N42 C44 1.375 . S
N42 C45 1.313 . S
C43 C44 1.338 . S
C43 N46 1.377 . S
C43 H63 0.930 . S
C44 N42 1.375 . S
C44 C43 1.338 . S
C44 H48 0.931 . S
C45 N42 1.313 . S
C45 N46 1.344 . S
C45 H49 0.930 . S
N46 C43 1.377 . S
N46 C45 1.344 . S
O47 Co39 2.055 . S
O47 C51 1.253 . S
H48 C44 0.931 . S
H49 C45 0.930 . S
O50 Co39 2.039 . S
O50 C40 1.265 . S
C51 O47 1.253 . S
C51 O52 1.227 . S
O52 C51 1.227 . S
N53 Co39 2.140 . S
N53 C56 1.346 . S
N53 C57 1.345 . S
C54 C55 1.387 . S
C54 C58 1.391 . S
C55 C54 1.387 . S
C55 C56 1.369 . S
C55 H64 0.929 . S
C56 N53 1.346 . S
C56 C55 1.369 . S
C56 H59 0.928 . S
C57 N53 1.345 . S
C57 C58 1.371 . S
C57 H60 0.931 . S
C58 C54 1.391 . S
C58 C57 1.371 . S
C58 H65 0.930 . S
H59 C56 0.928 . S
H60 C57 0.931 . S
H61 C37 0.930 . S
H62 C34 0.930 . S
H63 C43 0.930 . S
H64 C55 0.929 . S
H65 C58 0.930 . S
C66 C67 1.351 . S
C66 N69 1.368 . S
C66 H71 0.931 . S
C67 C66 1.351 . S
C67 N68 1.373 . S
C67 H95 0.930 . S
N68 C67 1.373 . S
N68 C70 1.340 . S
N69 C66 1.368 . S
N69 C70 1.321 . S
N69 Co72 2.135 . S
C70 N68 1.340 . S
C70 N69 1.321 . S
C70 H94 0.930 . S
H71 C66 0.931 . S
Co72 N69 2.135 . S
Co72 N75 2.121 . S
Co72 O80 2.055 . S
Co72 O83 2.039 . S
Co72 N86 2.140 . S
C73 O74 1.227 . S
C73 O83 1.265 . S
O74 C73 1.227 . S
N75 Co72 2.121 . S
N75 C77 1.375 . S
N75 C78 1.313 . S
C76 C77 1.338 . S
C76 N79 1.377 . S
C76 H96 0.930 . S
C77 N75 1.375 . S
C77 C76 1.338 . S
C77 H81 0.931 . S
C78 N75 1.313 . S
C78 N79 1.344 . S
C78 H82 0.930 . S
N79 C76 1.377 . S
N79 C78 1.344 . S
O80 Co72 2.055 . S
O80 C84 1.253 . S
H81 C77 0.931 . S
H82 C78 0.930 . S
O83 Co72 2.039 . S
O83 C73 1.265 . S
C84 O80 1.253 . S
C84 O85 1.227 . S
O85 C84 1.227 . S
N86 Co72 2.140 . S
N86 C89 1.346 . S
N86 C90 1.345 . S
C87 C88 1.387 . S
C87 C91 1.391 . S
C88 C87 1.387 . S
C88 C89 1.369 . S
C88 H97 0.929 . S
C89 N86 1.346 . S
C89 C88 1.369 . S
C89 H92 0.928 . S
C90 N86 1.345 . S
C90 C91 1.371 . S
C90 H93 0.931 . S
C91 C87 1.391 . S
C91 C90 1.371 . S
C91 H98 0.930 . S
H92 C89 0.928 . S
H93 C90 0.931 . S
H94 C70 0.930 . S
H95 C67 0.930 . S
H96 C76 0.930 . S
H97 C88 0.929 . S
H98 C91 0.930 . S
C99 C100 1.351 . S
C99 N102 1.368 . S
C99 H104 0.931 . S
C100 C99 1.351 . S
C100 N101 1.373 . S
C100 H128 0.930 . S
N101 C100 1.373 . S
N101 C103 1.340 . S
N102 C99 1.368 . S
N102 C103 1.321 . S
N102 Co105 2.135 . S
C103 N101 1.340 . S
C103 N102 1.321 . S
C103 H127 0.930 . S
H104 C99 0.931 . S
Co105 N102 2.135 . S
Co105 N108 2.121 . S
Co105 O113 2.055 . S
Co105 O116 2.039 . S
Co105 N119 2.140 . S
C106 O107 1.227 . S
C106 O116 1.265 . S
O107 C106 1.227 . S
N108 Co105 2.121 . S
N108 C110 1.375 . S
N108 C111 1.313 . S
C109 C110 1.338 . S
C109 N112 1.377 . S
C109 H129 0.930 . S
C110 N108 1.375 . S
C110 C109 1.338 . S
C110 H114 0.931 . S
C111 N108 1.313 . S
C111 N112 1.344 . S
C111 H115 0.930 . S
N112 C109 1.377 . S
N112 C111 1.344 . S
O113 Co105 2.055 . S
O113 C117 1.253 . S
H114 C110 0.931 . S
H115 C111 0.930 . S
O116 Co105 2.039 . S
O116 C106 1.265 . S
C117 O113 1.253 . S
C117 O118 1.227 . S
O118 C117 1.227 . S
N119 Co105 2.140 . S
N119 C122 1.346 . S
N119 C123 1.345 . S
C120 C121 1.387 . S
C120 C124 1.391 . S
C121 C120 1.387 . S
C121 C122 1.369 . S
C121 H130 0.929 . S
C122 N119 1.346 . S
C122 C121 1.369 . S
C122 H125 0.928 . S
C123 N119 1.345 . S
C123 C124 1.371 . S
C123 H126 0.931 . S
C124 C120 1.391 . S
C124 C123 1.371 . S
C124 H131 0.930 . S
H125 C122 0.928 . S
H126 C123 0.931 . S
H127 C103 0.930 . S
H128 C100 0.930 . S
H129 C109 0.930 . S
H130 C121 0.929 . S
H131 C124 0.930 . S
C132 C133 1.351 . S
C132 N135 1.368 . S
C132 H137 0.931 . S
C133 C132 1.351 . S
C133 N134 1.373 . S
C133 H161 0.930 . S
N134 C133 1.373 . S
N134 C136 1.340 . S
N135 C132 1.368 . S
N135 C136 1.321 . S
N135 Co138 2.135 . S
C136 N134 1.340 . S
C136 N135 1.321 . S
C136 H160 0.930 . S
H137 C132 0.931 . S
Co138 N135 2.135 . S
Co138 N141 2.121 . S
Co138 O146 2.055 . S
Co138 O149 2.039 . S
Co138 N152 2.140 . S
C139 O140 1.227 . S
C139 O149 1.265 . S
O140 C139 1.227 . S
N141 Co138 2.121 . S
N141 C143 1.375 . S
N141 C144 1.313 . S
C142 C143 1.338 . S
C142 N145 1.377 . S
C142 H162 0.930 . S
C143 N141 1.375 . S
C143 C142 1.338 . S
C143 H147 0.931 . S
C144 N141 1.313 . S
C144 N145 1.344 . S
C144 H148 0.930 . S
N145 C142 1.377 . S
N145 C144 1.344 . S
O146 Co138 2.055 . S
O146 C150 1.253 . S
H147 C143 0.931 . S
H148 C144 0.930 . S
O149 Co138 2.039 . S
O149 C139 1.265 . S
C150 O146 1.253 . S
C150 O151 1.227 . S
O151 C150 1.227 . S
N152 Co138 2.140 . S
N152 C155 1.346 . S
N152 C156 1.345 . S
C153 C154 1.387 . S
C153 C157 1.391 . S
C154 C153 1.387 . S
C154 C155 1.369 . S
C154 H163 0.929 . S
C155 N152 1.346 . S
C155 C154 1.369 . S
C155 H158 0.928 . S
C156 N152 1.345 . S
C156 C157 1.371 . S
C156 H159 0.931 . S
C157 C153 1.391 . S
C157 C156 1.371 . S
C157 H164 0.930 . S
H158 C155 0.928 . S
H159 C156 0.931 . S
H160 C136 0.930 . S
H161 C133 0.930 . S
H162 C142 0.930 . S
H163 C154 0.929 . S
H164 C157 0.930 . S
C165 C166 1.351 . S
C165 N168 1.368 . S
C165 H170 0.931 . S
C166 C165 1.351 . S
C166 N167 1.373 . S
C166 H194 0.930 . S
N167 C166 1.373 . S
N167 C169 1.340 . S
N168 C165 1.368 . S
N168 C169 1.321 . S
N168 Co171 2.135 . S
C169 N167 1.340 . S
C169 N168 1.321 . S
C169 H193 0.930 . S
H170 C165 0.931 . S
Co171 N168 2.135 . S
Co171 N174 2.121 . S
Co171 O179 2.055 . S
Co171 O182 2.039 . S
Co171 N185 2.140 . S
C172 O173 1.227 . S
C172 O182 1.265 . S
O173 C172 1.227 . S
N174 Co171 2.121 . S
N174 C176 1.375 . S
N174 C177 1.313 . S
C175 C176 1.338 . S
C175 N178 1.377 . S
C175 H195 0.930 . S
C176 N174 1.375 . S
C176 C175 1.338 . S
C176 H180 0.931 . S
C177 N174 1.313 . S
C177 N178 1.344 . S
C177 H181 0.930 . S
N178 C175 1.377 . S
N178 C177 1.344 . S
O179 Co171 2.055 . S
O179 C183 1.253 . S
H180 C176 0.931 . S
H181 C177 0.930 . S
O182 Co171 2.039 . S
O182 C172 1.265 . S
C183 O179 1.253 . S
C183 O184 1.227 . S
O184 C183 1.227 . S
N185 Co171 2.140 . S
N185 C188 1.346 . S
N185 C189 1.345 . S
C186 C187 1.387 . S
C186 C190 1.391 . S
C187 C186 1.387 . S
C187 C188 1.369 . S
C187 H196 0.929 . S
C188 N185 1.346 . S
C188 C187 1.369 . S
C188 H191 0.928 . S
C189 N185 1.345 . S
C189 C190 1.371 . S
C189 H192 0.931 . S
C190 C186 1.391 . S
C190 C189 1.371 . S
C190 H197 0.930 . S
H191 C188 0.928 . S
H192 C189 0.931 . S
H193 C169 0.930 . S
H194 C166 0.930 . S
H195 C175 0.930 . S
H196 C187 0.929 . S
H197 C190 0.930 . S
C198 C199 1.351 . S
C198 N201 1.368 . S
C198 H203 0.931 . S
C199 C198 1.351 . S
C199 N200 1.373 . S
C199 H227 0.930 . S
N200 C199 1.373 . S
N200 C202 1.340 . S
N201 C198 1.368 . S
N201 C202 1.321 . S
N201 Co204 2.135 . S
C202 N200 1.340 . S
C202 N201 1.321 . S
C202 H226 0.930 . S
H203 C198 0.931 . S
Co204 N201 2.135 . S
Co204 N207 2.121 . S
Co204 O212 2.055 . S
Co204 O215 2.039 . S
Co204 N218 2.140 . S
C205 O206 1.227 . S
C205 O215 1.265 . S
O206 C205 1.227 . S
N207 Co204 2.121 . S
N207 C209 1.375 . S
N207 C210 1.313 . S
C208 C209 1.338 . S
C208 N211 1.377 . S
C208 H228 0.930 . S
C209 N207 1.375 . S
C209 C208 1.338 . S
C209 H213 0.931 . S
C210 N207 1.313 . S
C210 N211 1.344 . S
C210 H214 0.930 . S
N211 C208 1.377 . S
N211 C210 1.344 . S
O212 Co204 2.055 . S
O212 C216 1.253 . S
H213 C209 0.931 . S
H214 C210 0.930 . S
O215 Co204 2.039 . S
O215 C205 1.265 . S
C216 O212 1.253 . S
C216 O217 1.227 . S
O217 C216 1.227 . S
N218 Co204 2.140 . S
N218 C221 1.346 . S
N218 C222 1.345 . S
C219 C220 1.387 . S
C219 C223 1.391 . S
C220 C219 1.387 . S
C220 C221 1.369 . S
C220 H229 0.929 . S
C221 N218 1.346 . S
C221 C220 1.369 . S
C221 H224 0.928 . S
C222 N218 1.345 . S
C222 C223 1.371 . S
C222 H225 0.931 . S
C223 C219 1.391 . S
C223 C222 1.371 . S
C223 H230 0.930 . S
H224 C221 0.928 . S
H225 C222 0.931 . S
H226 C202 0.930 . S
H227 C199 0.930 . S
H228 C208 0.930 . S
H229 C220 0.929 . S
H230 C223 0.930 . S
C231 C232 1.351 . S
C231 N234 1.368 . S
C231 H236 0.931 . S
C232 C231 1.351 . S
C232 N233 1.373 . S
C232 H260 0.930 . S
N233 C232 1.373 . S
N233 C235 1.340 . S
N234 C231 1.368 . S
N234 C235 1.321 . S
N234 Co237 2.135 . S
C235 N233 1.340 . S
C235 N234 1.321 . S
C235 H259 0.930 . S
H236 C231 0.931 . S
Co237 N234 2.135 . S
Co237 N240 2.121 . S
Co237 O245 2.055 . S
Co237 O248 2.039 . S
Co237 N251 2.140 . S
C238 O239 1.227 . S
C238 O248 1.265 . S
O239 C238 1.227 . S
N240 Co237 2.121 . S
N240 C242 1.375 . S
N240 C243 1.313 . S
C241 C242 1.338 . S
C241 N244 1.377 . S
C241 H261 0.930 . S
C242 N240 1.375 . S
C242 C241 1.338 . S
C242 H246 0.931 . S
C243 N240 1.313 . S
C243 N244 1.344 . S
C243 H247 0.930 . S
N244 C241 1.377 . S
N244 C243 1.344 . S
O245 Co237 2.055 . S
O245 C249 1.253 . S
H246 C242 0.931 . S
H247 C243 0.930 . S
O248 Co237 2.039 . S
O248 C238 1.265 . S
C249 O245 1.253 . S
C249 O250 1.227 . S
O250 C249 1.227 . S
N251 Co237 2.140 . S
N251 C254 1.346 . S
N251 C255 1.345 . S
C252 C253 1.387 . S
C252 C256 1.391 . S
C253 C252 1.387 . S
C253 C254 1.369 . S
C253 H262 0.929 . S
C254 N251 1.346 . S
C254 C253 1.369 . S
C254 H257 0.928 . S
C255 N251 1.345 . S
C255 C256 1.371 . S
C255 H258 0.931 . S
C256 C252 1.391 . S
C256 C255 1.371 . S
C256 H263 0.930 . S
H257 C254 0.928 . S
H258 C255 0.931 . S
H259 C235 0.930 . S
H260 C232 0.930 . S
H261 C241 0.930 . S
H262 C253 0.929 . S
H263 C256 0.930 . S
H264 C272 0.929 . S
H265 C274 0.930 . S
H266 C276 0.930 . S
H267 C279 0.929 . S
H268 C282 0.930 . S
H269 C284 0.960 . S
H270 C284 0.960 . S
H271 C284 0.960 . S
C272 H264 0.929 . S
C272 C273 1.377 . S
C272 C274 1.384 . S
C273 C272 1.377 . S
C273 C279 1.390 . S
C274 H265 0.930 . S
C274 C272 1.384 . S
C274 C275 1.372 . S
C275 C274 1.372 . S
C275 C276 1.400 . S
C275 C280 1.490 . S
C276 H266 0.930 . S
C276 C275 1.400 . S
C276 C279 1.386 . S
H277 C293 0.930 . S
H278 C294 0.931 . S
C279 H267 0.929 . S
C279 C273 1.390 . S
C279 C276 1.386 . S
C280 C275 1.490 . S
C280 C282 1.395 . S
C280 C283 1.403 . S
H281 C287 0.930 . S
C282 H268 0.930 . S
C282 C280 1.395 . S
C282 C285 1.403 . S
C283 C280 1.403 . S
C283 C284 1.524 . S
C283 C287 1.400 . S
C284 H269 0.960 . S
C284 H270 0.960 . S
C284 H271 0.960 . S
C284 C283 1.524 . S
C285 C282 1.403 . S
C285 C286 1.392 . S
C285 C289 1.495 . S
C286 C285 1.392 . S
C286 C287 1.385 . S
C286 C288 1.478 . S
C287 H281 0.930 . S
C287 C283 1.400 . S
C287 C286 1.385 . S
C288 C286 1.478 . S
C288 C290 1.381 . S
C288 C294 1.383 . S
C289 C285 1.495 . S
C289 H295 0.959 . S
C289 H296 0.961 . S
C289 H297 0.960 . S
C290 C288 1.381 . S
C290 C291 1.394 . S
C290 H298 0.930 . S
C291 C290 1.394 . S
C291 C292 1.383 . S
C291 H299 0.929 . S
C292 C291 1.383 . S
C292 C293 1.377 . S
C293 H277 0.930 . S
C293 C292 1.377 . S
C293 C294 1.379 . S
C294 H278 0.931 . S
C294 C288 1.383 . S
C294 C293 1.379 . S
H295 C289 0.959 . S
H296 C289 0.961 . S
H297 C289 0.960 . S
H298 C290 0.930 . S
H299 C291 0.929 . S
H300 C308 0.929 . S
H301 C310 0.930 . S
H302 C312 0.930 . S
H303 C315 0.929 . S
H304 C318 0.930 . S
H305 C320 0.960 . S
H306 C320 0.960 . S
H307 C320 0.960 . S
C308 H300 0.929 . S
C308 C309 1.377 . S
C308 C310 1.384 . S
C309 C308 1.377 . S
C309 C315 1.390 1_655 S
C310 H301 0.930 . S
C310 C308 1.384 . S
C310 C311 1.372 1_655 S
C311 C310 1.372 1_455 S
C311 C312 1.400 . S
C311 C316 1.490 . S
C312 H302 0.930 . S
C312 C311 1.400 . S
C312 C315 1.386 . S
H313 C329 0.930 . S
H314 C330 0.931 . S
C315 H303 0.929 . S
C315 C309 1.390 1_455 S
C315 C312 1.386 . S
C316 C311 1.490 . S
C316 C318 1.395 . S
C316 C319 1.403 . S
H317 C323 0.930 . S
C318 H304 0.930 . S
C318 C316 1.395 . S
C318 C321 1.403 . S
C319 C316 1.403 . S
C319 C320 1.524 . S
C319 C323 1.400 . S
C320 H305 0.960 . S
C320 H306 0.960 . S
C320 H307 0.960 . S
C320 C319 1.524 . S
C321 C318 1.403 . S
C321 C322 1.392 . S
C321 C325 1.495 . S
C322 C321 1.392 . S
C322 C323 1.385 . S
C322 C324 1.478 . S
C323 H317 0.930 . S
C323 C319 1.400 . S
C323 C322 1.385 . S
C324 C322 1.478 . S
C324 C326 1.381 . S
C324 C330 1.383 . S
C325 C321 1.495 . S
C325 H331 0.959 . S
C325 H332 0.961 . S
C325 H333 0.960 . S
C326 C324 1.381 . S
C326 C327 1.394 . S
C326 H334 0.930 . S
C327 C326 1.394 . S
C327 C328 1.383 . S
C327 H335 0.929 . S
C328 C327 1.383 . S
C328 C329 1.377 . S
C329 H313 0.930 . S
C329 C328 1.377 . S
C329 C330 1.379 . S
C330 H314 0.931 . S
C330 C324 1.383 . S
C330 C329 1.379 . S
H331 C325 0.959 . S
H332 C325 0.961 . S
H333 C325 0.960 . S
H334 C326 0.930 . S
H335 C327 0.929 . S
H336 C344 0.929 . S
H337 C346 0.930 . S
H338 C348 0.930 . S
H339 C351 0.929 . S
H340 C354 0.930 . S
H341 C356 0.960 . S
H342 C356 0.960 . S
H343 C356 0.960 . S
C344 H336 0.929 . S
C344 C345 1.377 . S
C344 C346 1.384 . S
C345 C344 1.377 . S
C345 C351 1.390 . S
C346 H337 0.930 . S
C346 C344 1.384 . S
C346 C347 1.372 . S
C347 C346 1.372 . S
C347 C348 1.400 . S
C347 C352 1.490 . S
C348 H338 0.930 . S
C348 C347 1.400 . S
C348 C351 1.386 . S
H349 C365 0.930 . S
H350 C366 0.931 . S
C351 H339 0.929 . S
C351 C345 1.390 . S
C351 C348 1.386 . S
C352 C347 1.490 . S
C352 C354 1.395 . S
C352 C355 1.403 . S
H353 C359 0.930 . S
C354 H340 0.930 . S
C354 C352 1.395 . S
C354 C357 1.403 . S
C355 C352 1.403 . S
C355 C356 1.524 . S
C355 C359 1.400 . S
C356 H341 0.960 . S
C356 H342 0.960 . S
C356 H343 0.960 . S
C356 C355 1.524 . S
C357 C354 1.403 . S
C357 C358 1.392 . S
C357 C361 1.495 . S
C358 C357 1.392 . S
C358 C359 1.385 . S
C358 C360 1.478 . S
C359 H353 0.930 . S
C359 C355 1.400 . S
C359 C358 1.385 . S
C360 C358 1.478 . S
C360 C362 1.381 . S
C360 C366 1.383 . S
C361 C357 1.495 . S
C361 H367 0.959 . S
C361 H368 0.961 . S
C361 H369 0.960 . S
C362 C360 1.381 . S
C362 C363 1.394 . S
C362 H370 0.930 . S
C363 C362 1.394 . S
C363 C364 1.383 . S
C363 H371 0.929 . S
C364 C363 1.383 . S
C364 C365 1.377 . S
C365 H349 0.930 . S
C365 C364 1.377 . S
C365 C366 1.379 . S
C366 H350 0.931 . S
C366 C360 1.383 . S
C366 C365 1.379 . S
H367 C361 0.959 . S
H368 C361 0.961 . S
H369 C361 0.960 . S
H370 C362 0.930 . S
H371 C363 0.929 . S
H372 C380 0.929 . S
H373 C382 0.930 . S
H374 C384 0.930 . S
H375 C387 0.929 . S
H376 C390 0.930 . S
H377 C392 0.960 . S
H378 C392 0.960 . S
H379 C392 0.960 . S
C380 H372 0.929 . S
C380 C381 1.377 . S
C380 C382 1.384 1_556 S
C381 C380 1.377 . S
C381 C387 1.390 . S
C382 H373 0.930 . S
C382 C380 1.384 1_554 S
C382 C383 1.372 . S
C383 C382 1.372 . S
C383 C384 1.400 . S
C383 C388 1.490 . S
C384 H374 0.930 . S
C384 C383 1.400 . S
C384 C387 1.386 1_554 S
H385 C401 0.930 . S
H386 C402 0.931 . S
C387 H375 0.929 . S
C387 C381 1.390 . S
C387 C384 1.386 1_556 S
C388 C383 1.490 . S
C388 C390 1.395 . S
C388 C391 1.403 . S
H389 C395 0.930 . S
C390 H376 0.930 . S
C390 C388 1.395 . S
C390 C393 1.403 . S
C391 C388 1.403 . S
C391 C392 1.524 . S
C391 C395 1.400 . S
C392 H377 0.960 . S
C392 H378 0.960 . S
C392 H379 0.960 . S
C392 C391 1.524 . S
C393 C390 1.403 . S
C393 C394 1.392 . S
C393 C397 1.495 1_655 S
C394 C393 1.392 . S
C394 C395 1.385 . S
C394 C396 1.478 . S
C395 H389 0.930 . S
C395 C391 1.400 . S
C395 C394 1.385 . S
C396 C394 1.478 . S
C396 C398 1.381 . S
C396 C402 1.383 . S
C397 C393 1.495 1_455 S
C397 H403 0.959 . S
C397 H404 0.961 . S
C397 H405 0.960 . S
C398 C396 1.381 . S
C398 C399 1.394 1_655 S
C398 H406 0.930 . S
C399 C398 1.394 1_455 S
C399 C400 1.383 . S
C399 H407 0.929 . S
C400 C399 1.383 . S
C400 C401 1.377 . S
C401 H385 0.930 . S
C401 C400 1.377 . S
C401 C402 1.379 1_455 S
C402 H386 0.931 . S
C402 C396 1.383 . S
C402 C401 1.379 1_655 S
H403 C397 0.959 . S
H404 C397 0.961 . S
H405 C397 0.960 . S
H406 C398 0.930 . S
H407 C399 0.929 . S
H408 C416 0.929 . S
H409 C418 0.930 . S
H410 C420 0.930 . S
H411 C423 0.929 . S
H412 C426 0.930 . S
H413 C428 0.960 . S
H414 C428 0.960 . S
H415 C428 0.960 . S
C416 H408 0.929 . S
C416 C417 1.377 . S
C416 C418 1.384 . S
C417 C416 1.377 . S
C417 C423 1.390 . S
C418 H409 0.930 . S
C418 C416 1.384 . S
C418 C419 1.372 . S
C419 C418 1.372 . S
C419 C420 1.400 . S
C419 C424 1.490 . S
C420 H410 0.930 . S
C420 C419 1.400 . S
C420 C423 1.386 . S
H421 C437 0.930 . S
H422 C438 0.931 . S
C423 H411 0.929 . S
C423 C417 1.390 . S
C423 C420 1.386 . S
C424 C419 1.490 . S
C424 C426 1.395 . S
C424 C427 1.403 . S
H425 C431 0.930 . S
C426 H412 0.930 . S
C426 C424 1.395 . S
C426 C429 1.403 . S
C427 C424 1.403 . S
C427 C428 1.524 . S
C427 C431 1.400 . S
C428 H413 0.960 . S
C428 H414 0.960 . S
C428 H415 0.960 . S
C428 C427 1.524 . S
C429 C426 1.403 . S
C429 C430 1.392 . S
C429 C433 1.495 . S
C430 C429 1.392 . S
C430 C431 1.385 . S
C430 C432 1.478 . S
C431 H425 0.930 . S
C431 C427 1.400 . S
C431 C430 1.385 . S
C432 C430 1.478 . S
C432 C434 1.381 . S
C432 C438 1.383 . S
C433 C429 1.495 . S
C433 H439 0.959 . S
C433 H440 0.961 . S
C433 H441 0.960 . S
C434 C432 1.381 . S
C434 C435 1.394 1_545 S
C434 H442 0.930 . S
C435 C434 1.394 1_565 S
C435 C436 1.383 . S
C435 H443 0.929 . S
C436 C435 1.383 . S
C436 C437 1.377 1_565 S
C437 H421 0.930 . S
C437 C436 1.377 1_545 S
C437 C438 1.379 . S
C438 H422 0.931 . S
C438 C432 1.383 . S
C438 C437 1.379 . S
H439 C433 0.959 . S
H440 C433 0.961 . S
H441 C433 0.960 . S
H442 C434 0.930 . S
H443 C435 0.929 . S
H444 C452 0.929 . S
H445 C454 0.930 . S
H446 C456 0.930 . S
H447 C459 0.929 . S
H448 C462 0.930 . S
H449 C464 0.960 . S
H450 C464 0.960 . S
H451 C464 0.960 . S
C452 H444 0.929 . S
C452 C453 1.377 . S
C452 C454 1.384 . S
C453 C452 1.377 . S
C453 C459 1.390 . S
C454 H445 0.930 . S
C454 C452 1.384 . S
C454 C455 1.372 . S
C455 C454 1.372 . S
C455 C456 1.400 . S
C455 C460 1.490 . S
C456 H446 0.930 . S
C456 C455 1.400 . S
C456 C459 1.386 . S
H457 C473 0.930 . S
H458 C474 0.931 . S
C459 H447 0.929 . S
C459 C453 1.390 . S
C459 C456 1.386 . S
C460 C455 1.490 . S
C460 C462 1.395 . S
C460 C463 1.403 . S
H461 C467 0.930 . S
C462 H448 0.930 . S
C462 C460 1.395 . S
C462 C465 1.403 . S
C463 C460 1.403 . S
C463 C464 1.524 . S
C463 C467 1.400 . S
C464 H449 0.960 . S
C464 H450 0.960 . S
C464 H451 0.960 . S
C464 C463 1.524 . S
C465 C462 1.403 . S
C465 C466 1.392 . S
C465 C469 1.495 . S
C466 C465 1.392 . S
C466 C467 1.385 . S
C466 C468 1.478 . S
C467 H461 0.930 . S
C467 C463 1.400 . S
C467 C466 1.385 . S
C468 C466 1.478 . S
C468 C470 1.381 . S
C468 C474 1.383 . S
C469 C465 1.495 . S
C469 H475 0.959 . S
C469 H476 0.961 . S
C469 H477 0.960 . S
C470 C468 1.381 . S
C470 C471 1.394 . S
C470 H478 0.930 . S
C471 C470 1.394 . S
C471 C472 1.383 . S
C471 H479 0.929 . S
C472 C471 1.383 . S
C472 C473 1.377 . S
C473 H457 0.930 . S
C473 C472 1.377 . S
C473 C474 1.379 . S
C474 H458 0.931 . S
C474 C468 1.383 . S
C474 C473 1.379 . S
H475 C469 0.959 . S
H476 C469 0.961 . S
H477 C469 0.960 . S
H478 C470 0.930 . S
H479 C471 0.929 . S
H480 C488 0.929 . S
H481 C490 0.930 . S
H482 C492 0.930 . S
H483 C495 0.929 . S
H484 C498 0.930 . S
H485 C500 0.960 . S
H486 C500 0.960 . S
H487 C500 0.960 . S
C488 H480 0.929 . S
C488 C489 1.377 . S
C488 C490 1.384 . S
C489 C488 1.377 . S
C489 C495 1.390 1_554 S
C490 H481 0.930 . S
C490 C488 1.384 . S
C490 C491 1.372 1_554 S
C491 C490 1.372 1_556 S
C491 C492 1.400 . S
C491 C496 1.490 . S
C492 H482 0.930 . S
C492 C491 1.400 . S
C492 C495 1.386 . S
H493 C509 0.930 . S
H494 C510 0.931 . S
C495 H483 0.929 . S
C495 C489 1.390 1_556 S
C495 C492 1.386 . S
C496 C491 1.490 . S
C496 C498 1.395 . S
C496 C499 1.403 . S
H497 C503 0.930 . S
C498 H484 0.930 . S
C498 C496 1.395 . S
C498 C501 1.403 . S
C499 C496 1.403 . S
C499 C500 1.524 . S
C499 C503 1.400 . S
C500 H485 0.960 . S
C500 H486 0.960 . S
C500 H487 0.960 . S
C500 C499 1.524 . S
C501 C498 1.403 . S
C501 C502 1.392 . S
C501 C505 1.495 1_565 S
C502 C501 1.392 . S
C502 C503 1.385 . S
C502 C504 1.478 . S
C503 H497 0.930 . S
C503 C499 1.400 . S
C503 C502 1.385 . S
C504 C502 1.478 . S
C504 C506 1.361 1_565 S
C504 C510 1.383 . S
C505 C501 1.495 1_545 S
C505 H511 0.959 . S
C505 H512 0.961 . S
C505 H513 0.960 . S
C506 C504 1.361 1_545 S
C506 C507 1.410 . S
C506 H514 0.936 . S
C507 C506 1.410 . S
C507 C508 1.383 . S
C507 H515 0.929 . S
C508 C507 1.383 . S
C508 C509 1.377 1_545 S
C509 H493 0.930 . S
C509 C508 1.377 1_565 S
C509 C510 1.379 . S
C510 H494 0.931 . S
C510 C504 1.383 . S
C510 C509 1.379 . S
H511 C505 0.959 . S
H512 C505 0.961 . S
H513 C505 0.960 . S
H514 C506 0.936 . S
H515 C507 0.929 . S
H516 C524 0.929 . S
H517 C526 0.930 . S
H518 C528 0.930 . S
H519 C531 0.929 . S
H520 C534 0.930 . S
H521 C536 0.960 . S
H522 C536 0.960 . S
H523 C536 0.960 . S
C524 H516 0.929 . S
C524 C525 1.377 . S
C524 C526 1.384 . S
C525 C524 1.377 . S
C525 C531 1.390 . S
C526 H517 0.930 . S
C526 C524 1.384 . S
C526 C527 1.372 . S
C527 C526 1.372 . S
C527 C528 1.400 . S
C527 C532 1.490 . S
C528 H518 0.930 . S
C528 C527 1.400 . S
C528 C531 1.386 . S
H529 C545 0.930 . S
H530 C546 0.931 . S
C531 H519 0.929 . S
C531 C525 1.390 . S
C531 C528 1.386 . S
C532 C527 1.490 . S
C532 C534 1.395 . S
C532 C535 1.403 . S
H533 C539 0.930 . S
C534 H520 0.930 . S
C534 C532 1.395 . S
C534 C537 1.403 . S
C535 C532 1.403 . S
C535 C536 1.524 . S
C535 C539 1.400 . S
C536 H521 0.960 . S
C536 H522 0.960 . S
C536 H523 0.960 . S
C536 C535 1.524 . S
C537 C534 1.403 . S
C537 C538 1.392 . S
C537 C541 1.495 . S
C538 C537 1.392 . S
C538 C539 1.385 . S
C538 C540 1.478 . S
C539 H533 0.930 . S
C539 C535 1.400 . S
C539 C538 1.385 . S
C540 C538 1.478 . S
C540 C542 1.381 . S
C540 C546 1.383 . S
C541 C537 1.495 . S
C541 H547 0.959 . S
C541 H548 0.961 . S
C541 H549 0.960 . S
C542 C540 1.381 . S
C542 C543 1.394 . S
C542 H550 0.930 . S
C543 C542 1.394 . S
C543 C544 1.383 . S
C543 H551 0.929 . S
C544 C543 1.383 . S
C544 C545 1.377 . S
C545 H529 0.930 . S
C545 C544 1.377 . S
C545 C546 1.379 . S
C546 H530 0.931 . S
C546 C540 1.383 . S
C546 C545 1.379 . S
H547 C541 0.959 . S
H548 C541 0.961 . S
H549 C541 0.960 . S
H550 C542 0.930 . S
H551 C543 0.929 . S
H552 C560 0.929 . S
H553 C562 0.930 . S
H554 C564 0.930 1_545 S
H555 C567 0.929 . S
H556 C570 0.930 . S
H557 C572 0.960 . S
H558 C572 0.960 . S
H559 C572 0.960 . S
C560 H552 0.929 . S
C560 C561 1.377 . S
C560 C562 1.384 . S
C561 C560 1.377 . S
C561 C567 1.390 . S
C562 H553 0.930 . S
C562 C560 1.384 . S
C562 C563 1.372 . S
C563 C562 1.372 . S
C563 C564 1.400 . S
C563 C568 1.490 1_565 S
C564 H554 0.930 1_565 S
C564 C563 1.400 . S
C564 C567 1.386 . S
H565 C581 0.930 . S
H566 C582 0.931 . S
C567 H555 0.929 . S
C567 C561 1.390 . S
C567 C564 1.386 . S
C568 C563 1.490 1_545 S
C568 C570 1.395 . S
C568 C571 1.403 . S
H569 C575 0.930 . S
C570 H556 0.930 . S
C570 C568 1.395 . S
C570 C573 1.403 . S
C571 C568 1.403 . S
C571 C572 1.524 . S
C571 C575 1.400 . S
C572 H557 0.960 . S
C572 H558 0.960 . S
C572 H559 0.960 . S
C572 C571 1.524 . S
C573 C570 1.403 . S
C573 C574 1.392 . S
C573 C577 1.495 . S
C574 C573 1.392 . S
C574 C575 1.385 . S
C574 C576 1.478 . S
C575 H569 0.930 . S
C575 C571 1.400 . S
C575 C574 1.385 . S
C576 C574 1.478 . S
C576 C578 1.381 . S
C576 C582 1.383 . S
C577 C573 1.495 . S
C577 H583 0.959 . S
C577 H584 0.961 . S
C577 H585 0.960 . S
C578 C576 1.381 . S
C578 C579 1.394 . S
C578 H586 0.930 . S
C579 C578 1.394 . S
C579 C580 1.383 . S
C579 H587 0.929 . S
C580 C579 1.383 . S
C580 C581 1.377 . S
C581 H565 0.930 . S
C581 C580 1.377 . S
C581 C582 1.379 . S
C582 H566 0.931 . S
C582 C576 1.383 . S
C582 C581 1.379 . S
H583 C577 0.959 . S
H584 C577 0.961 . S
H585 C577 0.960 . S
H586 C578 0.930 . S
H587 C579 0.929 . S
H588 C596 0.929 . S
H589 C598 0.930 . S
H590 C600 0.930 . S
H591 C603 0.929 . S
H592 C606 0.930 . S
H593 C608 0.960 . S
H594 C608 0.960 . S
H595 C608 0.960 . S
C596 H588 0.929 . S
C596 C597 1.377 . S
C596 C598 1.384 . S
C597 C596 1.377 . S
C597 C603 1.390 . S
C598 H589 0.930 . S
C598 C596 1.384 . S
C598 C599 1.372 . S
C599 C598 1.372 . S
C599 C600 1.400 . S
C599 C604 1.490 . S
C600 H590 0.930 . S
C600 C599 1.400 . S
C600 C603 1.386 . S
H601 C617 0.930 . S
H602 C618 0.931 . S
C603 H591 0.929 . S
C603 C597 1.390 . S
C603 C600 1.386 . S
C604 C599 1.490 . S
C604 C606 1.395 . S
C604 C607 1.403 . S
H605 C611 0.930 . S
C606 H592 0.930 . S
C606 C604 1.395 . S
C606 C609 1.403 . S
C607 C604 1.403 . S
C607 C608 1.524 . S
C607 C611 1.400 . S
C608 H593 0.960 . S
C608 H594 0.960 . S
C608 H595 0.960 . S
C608 C607 1.524 . S
C609 C606 1.403 . S
C609 C610 1.392 . S
C609 C613 1.495 . S
C610 C609 1.392 . S
C610 C611 1.385 . S
C610 C612 1.478 . S
C611 H605 0.930 . S
C611 C607 1.400 . S
C611 C610 1.385 . S
C612 C610 1.478 . S
C612 C614 1.381 . S
C612 C618 1.383 . S
C613 C609 1.495 . S
C613 H619 0.959 . S
C613 H620 0.961 . S
C613 H621 0.960 . S
C614 C612 1.381 . S
C614 C615 1.394 . S
C614 H622 0.930 . S
C615 C614 1.394 . S
C615 C616 1.383 . S
C615 H623 0.929 . S
C616 C615 1.383 . S
C616 C617 1.377 . S
C617 H601 0.930 . S
C617 C616 1.377 . S
C617 C618 1.379 . S
C618 H602 0.931 . S
C618 C612 1.383 . S
C618 C617 1.379 . S
H619 C613 0.959 . S
H620 C613 0.961 . S
H621 C613 0.960 . S
H622 C614 0.930 . S
H623 C615 0.929 . S
H624 C632 0.929 . S
H625 C634 0.930 . S
H626 C636 0.930 . S
H627 C639 0.929 . S
H628 C642 0.930 . S
H629 C644 0.960 . S
H630 C644 0.960 . S
H631 C644 0.960 . S
C632 H624 0.929 . S
C632 C633 1.377 . S
C632 C634 1.384 . S
C633 C632 1.377 . S
C633 C639 1.390 . S
C634 H625 0.930 . S
C634 C632 1.384 . S
C634 C635 1.372 . S
C635 C634 1.372 . S
C635 C636 1.400 . S
C635 C640 1.490 1_545 S
C636 H626 0.930 . S
C636 C635 1.400 . S
C636 C639 1.386 . S
H637 C653 0.930 . S
H638 C654 0.931 . S
C639 H627 0.929 . S
C639 C633 1.390 . S
C639 C636 1.386 . S
C640 C635 1.490 1_565 S
C640 C642 1.395 . S
C640 C643 1.403 . S
H641 C647 0.930 . S
C642 H628 0.930 . S
C642 C640 1.395 . S
C642 C645 1.403 . S
C643 C640 1.403 . S
C643 C644 1.524 1_565 S
C643 C647 1.400 . S
C644 H629 0.960 . S
C644 H630 0.960 . S
C644 H631 0.960 . S
C644 C643 1.524 1_545 S
C645 C642 1.403 . S
C645 C646 1.392 . S
C645 C649 1.495 . S
C646 C645 1.392 . S
C646 C647 1.385 . S
C646 C648 1.478 . S
C647 H641 0.930 . S
C647 C643 1.400 . S
C647 C646 1.385 . S
C648 C646 1.478 . S
C648 C650 1.381 . S
C648 C654 1.383 . S
C649 C645 1.495 . S
C649 H655 0.959 . S
C649 H656 0.961 . S
C649 H657 0.960 . S
C650 C648 1.381 . S
C650 C651 1.394 . S
C650 H658 0.930 . S
C651 C650 1.394 . S
C651 C652 1.383 . S
C651 H659 0.929 . S
C652 C651 1.383 . S
C652 C653 1.377 . S
C653 H637 0.930 . S
C653 C652 1.377 . S
C653 C654 1.379 . S
C654 H638 0.931 . S
C654 C648 1.383 . S
C654 C653 1.379 . S
H655 C649 0.959 . S
H656 C649 0.961 . S
H657 C649 0.960 . S
H658 C650 0.930 . S
H659 C651 0.929 . S
H660 C668 0.929 . S
H661 C670 0.930 . S
H662 C672 0.930 . S
H663 C675 0.929 . S
H664 C678 0.930 . S
H665 C680 0.960 . S
H666 C680 0.960 . S
H667 C680 0.960 . S
C668 H660 0.929 . S
C668 C669 1.377 . S
C668 C670 1.384 . S
C669 C668 1.377 . S
C669 C675 1.390 . S
C670 H661 0.930 . S
C670 C668 1.384 . S
C670 C671 1.372 . S
C671 C670 1.372 . S
C671 C672 1.400 . S
C671 C676 1.490 . S
C672 H662 0.930 . S
C672 C671 1.400 . S
C672 C675 1.386 . S
H673 C689 0.930 . S
H674 C690 0.931 . S
C675 H663 0.929 . S
C675 C669 1.390 . S
C675 C672 1.386 . S
C676 C671 1.490 . S
C676 C678 1.395 . S
C676 C679 1.403 . S
H677 C683 0.930 . S
C678 H664 0.930 . S
C678 C676 1.395 . S
C678 C681 1.403 . S
C679 C676 1.403 . S
C679 C680 1.524 . S
C679 C683 1.400 . S
C680 H665 0.960 . S
C680 H666 0.960 . S
C680 H667 0.960 . S
C680 C679 1.524 . S
C681 C678 1.403 . S
C681 C682 1.392 . S
C681 C685 1.495 . S
C682 C681 1.392 . S
C682 C683 1.385 . S
C682 C684 1.478 . S
C683 H677 0.930 . S
C683 C679 1.400 . S
C683 C682 1.385 . S
C684 C682 1.478 . S
C684 C686 1.381 . S
C684 C690 1.383 . S
C685 C681 1.495 . S
C685 H691 0.959 . S
C685 H692 0.961 . S
C685 H693 0.960 . S
C686 C684 1.381 . S
C686 C687 1.394 . S
C686 H694 0.930 . S
C687 C686 1.394 . S
C687 C688 1.383 . S
C687 H695 0.929 . S
C688 C687 1.383 . S
C688 C689 1.377 . S
C689 H673 0.930 . S
C689 C688 1.377 . S
C689 C690 1.379 . S
C690 H674 0.931 . S
C690 C684 1.383 . S
C690 C689 1.379 . S
H691 C685 0.959 . S
H692 C685 0.961 . S
H693 C685 0.960 . S
H694 C686 0.930 . S
H695 C687 0.929 . S
H696 C704 0.929 . S
H697 C706 0.930 . S
H698 C708 0.930 . S
H699 C711 0.929 . S
H700 C714 0.930 . S
H701 C716 0.960 . S
H702 C716 0.960 . S
H703 C716 0.960 . S
C704 H696 0.929 . S
C704 C705 1.377 . S
C704 C706 1.384 . S
C705 C704 1.377 . S
C705 C711 1.390 . S
C706 H697 0.930 . S
C706 C704 1.384 . S
C706 C707 1.372 . S
C707 C706 1.372 . S
C707 C708 1.400 . S
C707 C712 1.490 . S
C708 H698 0.930 . S
C708 C707 1.400 . S
C708 C711 1.386 . S
H709 C725 0.930 . S
H710 C726 0.931 . S
C711 H699 0.929 . S
C711 C705 1.390 . S
C711 C708 1.386 . S
C712 C707 1.490 . S
C712 C714 1.395 . S
C712 C715 1.403 . S
H713 C719 0.930 . S
C714 H700 0.930 . S
C714 C712 1.395 . S
C714 C717 1.403 . S
C715 C712 1.403 . S
C715 C716 1.524 . S
C715 C719 1.400 . S
C716 H701 0.960 . S
C716 H702 0.960 . S
C716 H703 0.960 . S
C716 C715 1.524 . S
C717 C714 1.403 . S
C717 C718 1.392 . S
C717 C721 1.495 . S
C718 C717 1.392 . S
C718 C719 1.385 . S
C718 C720 1.478 . S
C719 H713 0.930 . S
C719 C715 1.400 . S
C719 C718 1.385 . S
C720 C718 1.478 . S
C720 C722 1.381 . S
C720 C726 1.383 . S
C721 C717 1.495 . S
C721 H727 0.959 . S
C721 H728 0.961 . S
C721 H729 0.960 . S
C722 C720 1.381 . S
C722 C723 1.394 . S
C722 H730 0.930 . S
C723 C722 1.394 . S
C723 C724 1.383 . S
C723 H731 0.929 . S
C724 C723 1.383 . S
C724 C725 1.377 . S
C725 H709 0.930 . S
C725 C724 1.377 . S
C725 C726 1.379 . S
C726 H710 0.931 . S
C726 C720 1.383 . S
C726 C725 1.379 . S
H727 C721 0.959 . S
H728 C721 0.961 . S
H729 C721 0.960 . S
H730 C722 0.930 . S
H731 C723 0.929 . S
H732 C740 0.929 . S
H733 C742 0.930 . S
H734 C744 0.930 . S
H735 C747 0.929 . S
H736 C750 0.930 . S
H737 C752 0.960 . S
H738 C752 0.960 . S
H739 C752 0.960 . S
C740 H732 0.929 . S
C740 C741 1.377 . S
C740 C742 1.384 . S
C741 C740 1.377 . S
C741 C747 1.390 . S
C742 H733 0.930 . S
C742 C740 1.384 . S
C742 C743 1.372 . S
C743 C742 1.372 . S
C743 C744 1.400 . S
C743 C748 1.490 . S
C744 H734 0.930 . S
C744 C743 1.400 . S
C744 C747 1.386 . S
H745 C761 0.930 . S
H746 C762 0.931 . S
C747 H735 0.929 . S
C747 C741 1.390 . S
C747 C744 1.386 . S
C748 C743 1.490 . S
C748 C750 1.395 . S
C748 C751 1.403 . S
H749 C755 0.930 1_655 S
C750 H736 0.930 . S
C750 C748 1.395 . S
C750 C753 1.403 . S
C751 C748 1.403 . S
C751 C752 1.524 . S
C751 C755 1.400 . S
C752 H737 0.960 . S
C752 H738 0.960 . S
C752 H739 0.960 . S
C752 C751 1.524 . S
C753 C750 1.403 . S
C753 C754 1.392 . S
C753 C757 1.495 . S
C754 C753 1.392 . S
C754 C755 1.385 . S
C754 C756 1.478 1_455 S
C755 H749 0.930 1_455 S
C755 C751 1.400 . S
C755 C754 1.385 . S
C756 C754 1.478 1_655 S
C756 C758 1.381 . S
C756 C762 1.383 . S
C757 C753 1.495 . S
C757 H763 0.959 . S
C757 H764 0.961 . S
C757 H765 0.960 . S
C758 C756 1.381 . S
C758 C759 1.394 . S
C758 H766 0.930 . S
C759 C758 1.394 . S
C759 C760 1.383 . S
C759 H767 0.929 . S
C760 C759 1.383 . S
C760 C761 1.377 . S
C761 H745 0.930 . S
C761 C760 1.377 . S
C761 C762 1.379 . S
C762 H746 0.931 . S
C762 C756 1.383 . S
C762 C761 1.379 . S
H763 C757 0.959 . S
H764 C757 0.961 . S
H765 C757 0.960 . S
H766 C758 0.930 . S
H767 C759 0.929 . S
H768 C776 0.929 . S
H769 C778 0.930 . S
H770 C780 0.930 . S
H771 C783 0.929 . S
H772 C786 0.930 . S
H773 C788 0.960 . S
H774 C788 0.960 . S
H775 C788 0.960 . S
C776 H768 0.929 . S
C776 C777 1.377 . S
C776 C778 1.384 . S
C777 C776 1.377 . S
C777 C783 1.390 . S
C778 H769 0.930 . S
C778 C776 1.384 . S
C778 C779 1.372 . S
C779 C778 1.372 . S
C779 C780 1.400 . S
C779 C784 1.490 . S
C780 H770 0.930 . S
C780 C779 1.400 . S
C780 C783 1.386 . S
H781 C797 0.930 . S
H782 C798 0.931 . S
C783 H771 0.929 . S
C783 C777 1.390 . S
C783 C780 1.386 . S
C784 C779 1.490 . S
C784 C786 1.395 . S
C784 C787 1.403 . S
H785 C791 0.930 . S
C786 H772 0.930 . S
C786 C784 1.395 . S
C786 C789 1.403 . S
C787 C784 1.403 . S
C787 C788 1.524 . S
C787 C791 1.400 . S
C788 H773 0.960 . S
C788 H774 0.960 . S
C788 H775 0.960 . S
C788 C787 1.524 . S
C789 C786 1.403 . S
C789 C790 1.392 . S
C789 C793 1.495 . S
C790 C789 1.392 . S
C790 C791 1.385 . S
C790 C792 1.478 . S
C791 H785 0.930 . S
C791 C787 1.400 . S
C791 C790 1.385 . S
C792 C790 1.478 . S
C792 C794 1.381 . S
C792 C798 1.383 . S
C793 C789 1.495 . S
C793 H799 0.959 . S
C793 H800 0.961 . S
C793 H801 0.960 . S
C794 C792 1.381 . S
C794 C795 1.394 . S
C794 H802 0.930 . S
C795 C794 1.394 . S
C795 C796 1.383 . S
C795 H803 0.929 . S
C796 C795 1.383 . S
C796 C797 1.377 . S
C797 H781 0.930 . S
C797 C796 1.377 . S
C797 C798 1.379 . S
C798 H782 0.931 . S
C798 C792 1.383 . S
C798 C797 1.379 . S
H799 C793 0.959 . S
H800 C793 0.961 . S
H801 C793 0.960 . S
H802 C794 0.930 . S
H803 C795 0.929 . S
H804 C812 0.929 . S
H805 C814 0.930 . S
H806 C816 0.930 . S
H807 C819 0.929 . S
H808 C822 0.930 . S
H809 C824 0.960 . S
H810 C824 0.960 . S
H811 C824 0.960 . S
C812 H804 0.929 . S
C812 C813 1.377 . S
C812 C814 1.384 . S
C813 C812 1.377 . S
C813 C819 1.390 . S
C814 H805 0.930 . S
C814 C812 1.384 . S
C814 C815 1.372 . S
C815 C814 1.372 . S
C815 C816 1.400 . S
C815 C820 1.490 . S
C816 H806 0.930 . S
C816 C815 1.400 . S
C816 C819 1.386 . S
H817 C833 0.930 . S
H818 C834 0.931 . S
C819 H807 0.929 . S
C819 C813 1.390 . S
C819 C816 1.386 . S
C820 C815 1.490 . S
C820 C822 1.395 . S
C820 C823 1.403 . S
H821 C827 0.930 . S
C822 H808 0.930 . S
C822 C820 1.395 . S
C822 C825 1.403 . S
C823 C820 1.403 . S
C823 C824 1.524 . S
C823 C827 1.400 . S
C824 H809 0.960 . S
C824 H810 0.960 . S
C824 H811 0.960 . S
C824 C823 1.524 . S
C825 C822 1.403 . S
C825 C826 1.392 . S
C825 C829 1.495 1_655 S
C826 C825 1.392 . S
C826 C827 1.385 . S
C826 C828 1.478 1_655 S
C827 H821 0.930 . S
C827 C823 1.400 . S
C827 C826 1.385 . S
C828 C826 1.478 1_455 S
C828 C830 1.381 . S
C828 C834 1.383 . S
C829 C825 1.495 1_455 S
C829 H835 0.959 . S
C829 H836 0.961 . S
C829 H837 0.960 . S
C830 C828 1.381 . S
C830 C831 1.394 . S
C830 H838 0.930 . S
C831 C830 1.394 . S
C831 C832 1.383 . S
C831 H839 0.929 . S
C832 C831 1.383 . S
C832 C833 1.377 . S
C833 H817 0.930 . S
C833 C832 1.377 . S
C833 C834 1.379 . S
C834 H818 0.931 . S
C834 C828 1.383 . S
C834 C833 1.379 . S
H835 C829 0.959 . S
H836 C829 0.961 . S
H837 C829 0.960 . S
H838 C830 0.930 . S
H839 C831 0.929 . S
H840 C848 0.929 . S
H841 C850 0.930 . S
H842 C852 0.930 . S
H843 C855 0.929 . S
H844 C858 0.930 . S
H845 C860 0.960 . S
H846 C860 0.960 . S
H847 C860 0.960 . S
C848 H840 0.929 . S
C848 C849 1.377 . S
C848 C850 1.384 . S
C849 C848 1.377 . S
C849 C855 1.390 . S
C850 H841 0.930 . S
C850 C848 1.384 . S
C850 C851 1.372 . S
C851 C850 1.372 . S
C851 C852 1.400 . S
C851 C856 1.490 . S
C852 H842 0.930 . S
C852 C851 1.400 . S
C852 C855 1.386 . S
H853 C869 0.930 . S
H854 C870 0.931 . S
C855 H843 0.929 . S
C855 C849 1.390 . S
C855 C852 1.386 . S
C856 C851 1.490 . S
C856 C858 1.395 . S
C856 C859 1.403 . S
H857 C863 0.930 . S
C858 H844 0.930 . S
C858 C856 1.395 . S
C858 C861 1.403 . S
C859 C856 1.403 . S
C859 C860 1.524 . S
C859 C863 1.400 . S
C860 H845 0.960 . S
C860 H846 0.960 . S
C860 H847 0.960 . S
C860 C859 1.524 . S
C861 C858 1.403 . S
C861 C862 1.392 . S
C861 C865 1.495 . S
C862 C861 1.392 . S
C862 C863 1.385 . S
C862 C864 1.478 . S
C863 H857 0.930 . S
C863 C859 1.400 . S
C863 C862 1.385 . S
C864 C862 1.478 . S
C864 C866 1.381 . S
C864 C870 1.383 . S
C865 C861 1.495 . S
C865 H871 0.959 . S
C865 H872 0.961 . S
C865 H873 0.960 . S
C866 C864 1.381 . S
C866 C867 1.394 . S
C866 H874 0.930 . S
C867 C866 1.394 . S
C867 C868 1.383 . S
C867 H875 0.929 . S
C868 C867 1.383 . S
C868 C869 1.377 . S
C869 H853 0.930 . S
C869 C868 1.377 . S
C869 C870 1.379 . S
C870 H854 0.931 . S
C870 C864 1.383 . S
C870 C869 1.379 . S
H871 C865 0.959 . S
H872 C865 0.961 . S
H873 C865 0.960 . S
H874 C866 0.930 . S
H875 C867 0.929 . S
H876 C884 0.929 . S
H877 C886 0.930 . S
H878 C888 0.930 . S
H879 C891 0.929 . S
H880 C894 0.930 . S
H881 C896 0.960 . S
H882 C896 0.960 . S
H883 C896 0.960 . S
C884 H876 0.929 . S
C884 C885 1.377 . S
C884 C886 1.384 . S
C885 C884 1.377 . S
C885 C891 1.390 . S
C886 H877 0.930 . S
C886 C884 1.384 . S
C886 C887 1.372 . S
C887 C886 1.372 . S
C887 C888 1.400 . S
C887 C892 1.490 . S
C888 H878 0.930 . S
C888 C887 1.400 . S
C888 C891 1.386 . S
H889 C905 0.930 . S
H890 C906 0.931 . S
C891 H879 0.929 . S
C891 C885 1.390 . S
C891 C888 1.386 . S
C892 C887 1.490 . S
C892 C894 1.395 . S
C892 C895 1.403 . S
H893 C899 0.930 . S
C894 H880 0.930 . S
C894 C892 1.395 . S
C894 C897 1.403 . S
C895 C892 1.403 . S
C895 C896 1.524 . S
C895 C899 1.400 . S
C896 H881 0.960 . S
C896 H882 0.960 . S
C896 H883 0.960 . S
C896 C895 1.524 . S
C897 C894 1.403 . S
C897 C898 1.392 . S
C897 C901 1.495 . S
C898 C897 1.392 . S
C898 C899 1.385 . S
C898 C900 1.478 . S
C899 H893 0.930 . S
C899 C895 1.400 . S
C899 C898 1.385 . S
C900 C898 1.478 . S
C900 C902 1.381 . S
C900 C906 1.383 . S
C901 C897 1.495 . S
C901 H907 0.959 . S
C901 H908 0.961 . S
C901 H909 0.960 . S
C902 C900 1.381 . S
C902 C903 1.394 . S
C902 H910 0.930 . S
C903 C902 1.394 . S
C903 C904 1.383 . S
C903 H911 0.929 . S
C904 C903 1.383 . S
C904 C905 1.377 . S
C905 H889 0.930 . S
C905 C904 1.377 . S
C905 C906 1.379 . S
C906 H890 0.931 . S
C906 C900 1.383 . S
C906 C905 1.379 . S
H907 C901 0.959 . S
H908 C901 0.961 . S
H909 C901 0.960 . S
H910 C902 0.930 . S
H911 C903 0.929 . S
H912 C920 0.929 1_655 S
H913 C922 0.930 . S
H914 C924 0.930 . S
H915 C927 0.929 . S
H916 C930 0.930 . S
H917 C932 0.960 . S
H918 C932 0.960 . S
H919 C932 0.960 . S
C920 H912 0.929 1_455 S
C920 C921 1.377 . S
C920 C922 1.384 . S
C921 C920 1.377 . S
C921 C927 1.390 . S
C922 H913 0.930 . S
C922 C920 1.384 . S
C922 C923 1.372 . S
C923 C922 1.372 . S
C923 C924 1.400 . S
C923 C928 1.490 . S
C924 H914 0.930 . S
C924 C923 1.400 . S
C924 C927 1.386 . S
H925 C941 0.930 . S
H926 C942 0.931 . S
C927 H915 0.929 . S
C927 C921 1.390 . S
C927 C924 1.386 . S
C928 C923 1.490 . S
C928 C930 1.395 . S
C928 C931 1.403 . S
H929 C935 0.930 . S
C930 H916 0.930 . S
C930 C928 1.395 . S
C930 C933 1.403 . S
C931 C928 1.403 . S
C931 C932 1.524 . S
C931 C935 1.400 . S
C932 H917 0.960 . S
C932 H918 0.960 . S
C932 H919 0.960 . S
C932 C931 1.524 . S
C933 C930 1.403 . S
C933 C934 1.392 . S
C933 C937 1.495 . S
C934 C933 1.392 . S
C934 C935 1.385 . S
C934 C936 1.478 . S
C935 H929 0.930 . S
C935 C931 1.400 . S
C935 C934 1.385 . S
C936 C934 1.478 . S
C936 C938 1.381 . S
C936 C942 1.383 . S
C937 C933 1.495 . S
C937 H943 0.959 . S
C937 H944 0.961 . S
C937 H945 0.960 . S
C938 C936 1.381 . S
C938 C939 1.394 . S
C938 H946 0.930 . S
C939 C938 1.394 . S
C939 C940 1.383 . S
C939 H947 0.929 . S
C940 C939 1.383 . S
C940 C941 1.377 . S
C941 H925 0.930 . S
C941 C940 1.377 . S
C941 C942 1.379 . S
C942 H926 0.931 . S
C942 C936 1.383 . S
C942 C941 1.379 . S
H943 C937 0.959 . S
H944 C937 0.961 . S
H945 C937 0.960 . S
H946 C938 0.930 . S
H947 C939 0.929 . S
H948 C956 0.929 . S
H949 C958 0.930 1_554 S
H950 C960 0.930 . S
H951 C963 0.929 . S
H952 C966 0.936 . S
H953 C968 0.960 . S
H954 C968 0.960 . S
H955 C968 0.960 . S
C956 H948 0.929 . S
C956 C957 1.377 . S
C956 C958 1.384 . S
C957 C956 1.377 . S
C957 C963 1.390 . S
C958 H949 0.930 1_556 S
C958 C956 1.384 . S
C958 C959 1.372 . S
C959 C958 1.372 . S
C959 C960 1.400 . S
C959 C964 1.490 . S
C960 H950 0.930 . S
C960 C959 1.400 . S
C960 C963 1.386 . S
H961 C977 0.930 . S
H962 C978 0.931 1_556 S
C963 H951 0.929 . S
C963 C957 1.390 . S
C963 C960 1.386 . S
C964 C959 1.490 . S
C964 C966 1.412 . S
C964 C967 1.403 . S
H965 C971 0.930 . S
C966 H952 0.936 . S
C966 C964 1.412 . S
C966 C969 1.382 1_556 S
C967 C964 1.403 . S
C967 C968 1.524 . S
C967 C971 1.400 1_556 S
C968 H953 0.960 . S
C968 H954 0.960 . S
C968 H955 0.960 . S
C968 C967 1.524 . S
C969 C966 1.382 1_554 S
C969 C970 1.392 . S
C969 C973 1.495 . S
C970 C969 1.392 . S
C970 C971 1.385 . S
C970 C972 1.478 . S
C971 H965 0.930 . S
C971 C967 1.400 1_554 S
C971 C970 1.385 . S
C972 C970 1.478 . S
C972 C974 1.381 . S
C972 C978 1.383 . S
C973 C969 1.495 . S
C973 H979 0.959 . S
C973 H980 0.961 . S
C973 H981 0.960 . S
C974 C972 1.381 . S
C974 C975 1.394 . S
C974 H982 0.930 . S
C975 C974 1.394 . S
C975 C976 1.383 . S
C975 H983 0.929 . S
C976 C975 1.383 . S
C976 C977 1.377 . S
C977 H961 0.930 . S
C977 C976 1.377 . S
C977 C978 1.379 . S
C978 H962 0.931 1_554 S
C978 C972 1.383 . S
C978 C977 1.379 . S
H979 C973 0.959 . S
H980 C973 0.961 . S
H981 C973 0.960 . S
H982 C974 0.930 . S
H983 C975 0.929 . S
C273 C18 1.082 . S
C292 C40 1.085 . S
C309 C73 1.083 . S
C328 C51 1.071 . S
C345 C106 1.082 . S
C364 C84 1.070 . S
C381 C117 1.082 . S
C400 C7 1.066 . S
C417 C150 1.084 . S
C436 C238 1.094 . S
C453 C183 1.085 . S
C472 C139 1.095 . S
C489 C216 1.082 . S
C508 C172 1.071 . S
C525 C249 1.086 . S
C544 C205 1.093 . S
C561 N211 1.650 . S
C580 C21 1.686 . S
C597 N244 1.650 . S
C616 C54 1.688 . S
C633 N145 1.646 . S
C652 C87 1.690 . S
C669 N178 1.651 . S
C688 C120 1.681 . S
C705 C153 1.688 . S
C724 N79 1.657 . S
C741 C186 1.685 . S
C760 N112 1.635 . S
C777 C219 1.688 . S
C796 N13 1.652 . S
C813 C252 1.688 . S
C832 N46 1.648 . S
C849 N233 1.165 1_545 S
C868 N2 1.139 1_655 S
C885 N134 1.155 . S
C904 N35 1.131 . S
C921 N68 1.162 1_455 S
C940 N167 1.192 1_565 S
C957 N101 1.155 . S
C976 N200 1.165 . S
