# Generated by pormake.
# Topology und, (4)-cn, num edge types: 1
# Building blocks:
#     Node 0, Type 0, BuildingBlock: QUQFOY_clean_sbu_1, # of connection points: 4
#     Node 1, Type 0, BuildingBlock: QUQFOY_clean_sbu_1, # of connection points: 4
#     Node 2, Type 0, BuildingBlock: QUQFOY_clean_sbu_1, # of connection points: 4
#     Node 3, Type 0, BuildingBlock: QUQFOY_clean_sbu_1, # of connection points: 4
#     Node 4, Type 0, BuildingBlock: QUQFOY_clean_sbu_1, # of connection points: 4
#     Node 5, Type 0, BuildingBlock: QUQFOY_clean_sbu_1, # of connection points: 4
#     Node 6, Type 0, BuildingBlock: QUQFOY_clean_sbu_1, # of connection points: 4
#     Node 7, Type 0, BuildingBlock: QUQFOY_clean_sbu_1, # of connection points: 4
#     Node 8, Type 0, BuildingBlock: QUQFOY_clean_sbu_1, # of connection points: 4
#     Node 9, Type 0, BuildingBlock: QUQFOY_clean_sbu_1, # of connection points: 4
#     Node 10, Type 0, BuildingBlock: QUQFOY_clean_sbu_1, # of connection points: 4
#     Node 11, Type 0, BuildingBlock: QUQFOY_clean_sbu_1, # of connection points: 4
#     Node 12, Type 0, BuildingBlock: QUQFOY_clean_sbu_1, # of connection points: 4
#     Node 13, Type 0, BuildingBlock: QUQFOY_clean_sbu_1, # of connection points: 4
#     Node 14, Type 0, BuildingBlock: QUQFOY_clean_sbu_1, # of connection points: 4
#     Node 15, Type 0, BuildingBlock: QUQFOY_clean_sbu_1, # of connection points: 4
#     Edge 16, Type (0, 0), BuildingBlock: XUDNAN_clean_linker_2, # of connection points: 2
#     Edge 17, Type (0, 0), BuildingBlock: XUDNAN_clean_linker_2, # of connection points: 2
#     Edge 18, Type (0, 0), BuildingBlock: XUDNAN_clean_linker_2, # of connection points: 2
#     Edge 19, Type (0, 0), BuildingBlock: XUDNAN_clean_linker_2, # of connection points: 2
#     Edge 20, Type (0, 0), BuildingBlock: XUDNAN_clean_linker_2, # of connection points: 2
#     Edge 21, Type (0, 0), BuildingBlock: XUDNAN_clean_linker_2, # of connection points: 2
#     Edge 22, Type (0, 0), BuildingBlock: XUDNAN_clean_linker_2, # of connection points: 2
#     Edge 23, Type (0, 0), BuildingBlock: XUDNAN_clean_linker_2, # of connection points: 2
#     Edge 24, Type (0, 0), BuildingBlock: XUDNAN_clean_linker_2, # of connection points: 2
#     Edge 25, Type (0, 0), BuildingBlock: XUDNAN_clean_linker_2, # of connection points: 2
#     Edge 26, Type (0, 0), BuildingBlock: XUDNAN_clean_linker_2, # of connection points: 2
#     Edge 27, Type (0, 0), BuildingBlock: XUDNAN_clean_linker_2, # of connection points: 2
#     Edge 28, Type (0, 0), BuildingBlock: XUDNAN_clean_linker_2, # of connection points: 2
#     Edge 29, Type (0, 0), BuildingBlock: XUDNAN_clean_linker_2, # of connection points: 2
#     Edge 30, Type (0, 0), BuildingBlock: XUDNAN_clean_linker_2, # of connection points: 2
#     Edge 31, Type (0, 0), BuildingBlock: XUDNAN_clean_linker_2, # of connection points: 2
#     Edge 32, Type (0, 0), BuildingBlock: XUDNAN_clean_linker_2, # of connection points: 2
#     Edge 33, Type (0, 0), BuildingBlock: XUDNAN_clean_linker_2, # of connection points: 2
#     Edge 34, Type (0, 0), BuildingBlock: XUDNAN_clean_linker_2, # of connection points: 2
#     Edge 35, Type (0, 0), BuildingBlock: XUDNAN_clean_linker_2, # of connection points: 2
#     Edge 36, Type (0, 0), BuildingBlock: XUDNAN_clean_linker_2, # of connection points: 2
#     Edge 37, Type (0, 0), BuildingBlock: XUDNAN_clean_linker_2, # of connection points: 2
#     Edge 38, Type (0, 0), BuildingBlock: XUDNAN_clean_linker_2, # of connection points: 2
#     Edge 39, Type (0, 0), BuildingBlock: XUDNAN_clean_linker_2, # of connection points: 2
#     Edge 40, Type (0, 0), BuildingBlock: XUDNAN_clean_linker_2, # of connection points: 2
#     Edge 41, Type (0, 0), BuildingBlock: XUDNAN_clean_linker_2, # of connection points: 2
#     Edge 42, Type (0, 0), BuildingBlock: XUDNAN_clean_linker_2, # of connection points: 2
#     Edge 43, Type (0, 0), BuildingBlock: XUDNAN_clean_linker_2, # of connection points: 2
#     Edge 44, Type (0, 0), BuildingBlock: XUDNAN_clean_linker_2, # of connection points: 2
#     Edge 45, Type (0, 0), BuildingBlock: XUDNAN_clean_linker_2, # of connection points: 2
#     Edge 46, Type (0, 0), BuildingBlock: XUDNAN_clean_linker_2, # of connection points: 2
#     Edge 47, Type (0, 0), BuildingBlock: XUDNAN_clean_linker_2, # of connection points: 2
# Relax obj value: 0.048
# Max RMSD: 0.109
# Mean RMSD: 0.091
data_MOF--net-und--node1-QUQFOY_clean_sbu_1--edge1-XUDNAN_clean_linker_2
_symmetry_space_group_name_H-M    P1
_symmetry_Int_Tables_number       1
_symmetry_cell_setting            triclinic
loop_
_symmetry_equiv_pos_as_xyz
'x, y, z'
_cell_length_a     62.055546
_cell_length_b     62.116292
_cell_length_c     22.460597
_cell_angle_alpha  89.992629
_cell_angle_beta   89.999032
_cell_angle_gamma 94.828212
loop_
_atom_site_label
_atom_site_type_symbol
_atom_site_fract_x
_atom_site_fract_y
_atom_site_fract_z
_atom_type_partial_charge
O0 O 0.2706 0.36001 0.92289 0.0
Cd1 Cd 0.27489 0.37953 0.99642 0.0
Cd2 Cd 0.23807 0.3947 0.95499 0.0
O3 O 0.23604 0.36503 0.91038 0.0
O4 O 0.28936 0.36291 0.05988 0.0
O5 O 0.25524 0.37072 0.06352 0.0
C6 C 0.27073 0.36073 0.086 0.0
C7 C 0.21064 0.40658 0.01655 0.0
C8 C 0.25252 0.35484 0.898 0.0
C9 C 0.28048 0.42243 0.94183 0.0
O10 O 0.26127 0.41777 0.92327 0.0
O11 O 0.28872 0.41058 0.98052 0.0
O12 O 0.20947 0.40833 0.95936 0.0
O13 O 0.22696 0.39769 0.03824 0.0
O14 O 0.89342 0.05779 0.31032 0.0
Cd15 Cd 0.91985 0.07951 0.29382 0.0
Cd16 Cd 0.9306 0.04415 0.22681 0.0
O17 O 0.89948 0.03165 0.24668 0.0
O18 O 0.90973 0.10983 0.29322 0.0
O19 O 0.92062 0.09304 0.21347 0.0
C20 C 0.91254 0.1096 0.23618 0.0
C21 C 0.94788 0.04807 0.13466 0.0
C22 C 0.88767 0.03972 0.28586 0.0
C23 C 0.95789 0.05694 0.33509 0.0
O24 O 0.95191 0.04319 0.29536 0.0
O25 O 0.94848 0.07438 0.34025 0.0
O26 O 0.94448 0.02921 0.15882 0.0
O27 O 0.93967 0.06403 0.16023 0.0
O28 O 0.24272 0.73397 0.47072 0.0
Cd29 Cd 0.2488 0.71441 0.54157 0.0
Cd30 Cd 0.27767 0.70241 0.46782 0.0
O31 O 0.27421 0.73209 0.42679 0.0
O32 O 0.23677 0.72895 0.61215 0.0
O33 O 0.27176 0.72644 0.59799 0.0
C34 C 0.25649 0.734 0.62862 0.0
C35 C 0.30936 0.69032 0.50854 0.0
C36 C 0.25635 0.74072 0.43133 0.0
C37 C 0.23897 0.67177 0.48808 0.0
O38 O 0.25329 0.67847 0.45039 0.0
O39 O 0.23645 0.6824 0.53569 0.0
O40 O 0.3063 0.69064 0.45162 0.0
O41 O 0.29495 0.69804 0.54205 0.0
O42 O 0.63429 0.06941 0.82638 0.0
Cd43 Cd 0.61315 0.04278 0.80217 0.0
Cd44 Cd 0.59146 0.07395 0.75664 0.0
O45 O 0.61883 0.09376 0.77315 0.0
O46 O 0.6291 0.01608 0.81088 0.0
O47 O 0.618 0.02741 0.72396 0.0
C48 C 0.6278 0.01344 0.75398 0.0
C49 C 0.57401 0.06779 0.6663 0.0
C50 C 0.63377 0.08877 0.808 0.0
C51 C 0.57067 0.05165 0.85956 0.0
O52 O 0.57171 0.06875 0.82858 0.0
O53 O 0.58444 0.03776 0.85191 0.0
O54 O 0.5735 0.08608 0.69338 0.0
O55 O 0.5859 0.05367 0.68848 0.0
O56 O 0.78105 0.75544 0.91798 0.0
Cd57 Cd 0.79282 0.73751 0.98632 0.0
Cd58 Cd 0.74984 0.73065 1.00621 0.0
O59 O 0.74629 0.74494 0.92425 0.0
O60 O 0.82387 0.73665 0.96307 0.0
O61 O 0.80148 0.70724 0.96781 0.0
C62 C 0.82045 0.71613 0.95467 0.0
C63 C 0.73112 0.69831 0.03647 0.0
C64 C 0.76186 0.75586 0.89849 0.0
C65 C 0.77551 0.75834 0.09471 0.0
O66 O 0.75699 0.75212 0.07409 0.0
O67 O 0.79252 0.75241 0.06978 0.0
O68 O 0.72149 0.71578 0.03016 0.0
O69 O 0.75133 0.69885 0.022 0.0
O70 O 0.06637 0.03162 0.82255 0.0
Cd71 Cd 0.08551 0.02055 0.75558 0.0
Cd72 Cd 0.09286 0.0636 0.73983 0.0
O73 O 0.07786 0.0662 0.82101 0.0
O74 O 0.08569 0.98911 0.77436 0.0
O75 O 0.1153 0.01133 0.77697 0.0
C76 C 0.10609 0.99213 0.78535 0.0
C77 C 0.12514 0.08291 0.71151 0.0
C78 C 0.06612 0.05057 0.84386 0.0
C79 C 0.06661 0.03915 0.64668 0.0
O80 O 0.07192 0.05735 0.67043 0.0
O81 O 0.07261 0.02193 0.66999 0.0
O82 O 0.10757 0.0923 0.71873 0.0
O83 O 0.12478 0.06261 0.72449 0.0
O84 O 0.74997 0.36869 0.42635 0.0
Cd85 Cd 0.73624 0.38359 0.49662 0.0
Cd86 Cd 0.77814 0.39126 0.52999 0.0
O87 O 0.78434 0.37683 0.44875 0.0
O88 O 0.70745 0.39215 0.46836 0.0
O89 O 0.73473 0.41575 0.49256 0.0
C90 C 0.71535 0.41202 0.47164 0.0
C91 C 0.79764 0.4227 0.56505 0.0
C92 C 0.7699 0.36768 0.41472 0.0
C93 C 0.74934 0.36064 0.60579 0.0
O94 O 0.76804 0.36987 0.59607 0.0
O95 O 0.73341 0.36445 0.57273 0.0
O96 O 0.80629 0.4046 0.56144 0.0
O97 O 0.77812 0.42331 0.54551 0.0
O98 O 0.46052 0.07508 0.33449 0.0
Cd99 Cd 0.44098 0.08185 0.26381 0.0
Cd100 Cd 0.43023 0.0383 0.26794 0.0
O101 O 0.44684 0.04143 0.3476 0.0
O102 O 0.43006 0.11097 0.27682 0.0
O103 O 0.40911 0.08028 0.28025 0.0
C104 C 0.41126 0.10105 0.28707 0.0
C105 C 0.40401 1.00894 0.25529 0.0
C106 C 0.45967 0.05746 0.36354 0.0
C107 C 0.4571 0.05751 0.16319 0.0
O108 O 0.44938 0.04148 0.19368 0.0
O109 O 0.45418 0.07666 0.17991 0.0
O110 O 0.42396 1.00637 0.26579 0.0
O111 O 0.39832 0.02843 0.2552 0.0
O112 O 0.77181 0.87385 0.44286 0.0
Cd113 Cd 0.77054 0.89287 0.51622 0.0
Cd114 Cd 0.73728 0.90721 0.44957 0.0
O115 O 0.74096 0.87916 0.39823 0.0
O116 O 0.7845 0.87658 0.58142 0.0
O117 O 0.74986 0.88227 0.57995 0.0
C118 C 0.76545 0.87306 0.60439 0.0
C119 C 0.7083 0.91651 0.50914 0.0
C120 C 0.75825 0.86937 0.40146 0.0
C121 C 0.77851 0.93668 0.46499 0.0
O122 O 0.76082 0.93234 0.43714 0.0
O123 O 0.78496 0.92381 0.50406 0.0
O124 O 0.70816 0.92003 0.45238 0.0
O125 O 0.72388 0.90634 0.53025 0.0
O126 O 0.39362 0.54875 0.82331 0.0
Cd127 Cd 0.41536 0.57482 0.80238 0.0
Cd128 Cd 0.43619 0.54318 0.75392 0.0
O129 O 0.40557 0.52705 0.75513 0.0
O130 O 0.39932 0.60179 0.79575 0.0
O131 O 0.41402 0.58624 0.71908 0.0
C132 C 0.40285 0.60128 0.73907 0.0
C133 C 0.45799 0.54926 0.67002 0.0
C134 C 0.39148 0.53128 0.79361 0.0
C135 C 0.4556 0.56328 0.86283 0.0
O136 O 0.45303 0.5459 0.83289 0.0
O137 O 0.44375 0.57869 0.85249 0.0
O138 O 0.45545 0.53033 0.6941 0.0
O139 O 0.44708 0.56425 0.69149 0.0
O140 O 0.76886 0.25408 0.94426 0.0
Cd141 Cd 0.76565 0.23552 0.01977 0.0
Cd142 Cd 0.78957 0.20947 0.95847 0.0
O143 O 0.78936 0.23334 0.89314 0.0
O144 O 0.75351 0.25566 0.07752 0.0
O145 O 0.78565 0.24343 0.08878 0.0
C146 C 0.77136 0.25591 0.10686 0.0
C147 C 0.82083 0.19743 1.00141 0.0
C148 C 0.77912 0.2502 0.89719 0.0
C149 C 0.74449 0.19174 0.98401 0.0
O150 O 0.76217 0.18832 0.95854 0.0
O151 O 0.74289 0.20907 0.01349 0.0
O152 O 0.81531 0.19255 0.94733 0.0
O153 O 0.80898 0.2099 0.03076 0.0
O154 O 0.12526 0.54369 0.34244 0.0
Cd155 Cd 0.10221 0.52267 0.30115 0.0
Cd156 Cd 0.09066 0.55974 0.2604 0.0
O157 O 0.12173 0.57149 0.28349 0.0
O158 O 0.11362 0.49361 0.30799 0.0
O159 O 0.10984 0.50979 0.22156 0.0
C160 C 0.11619 0.4936 0.251 0.0
C161 C 0.07408 0.56703 0.17031 0.0
C162 C 0.13177 0.56258 0.32488 0.0
C163 C 0.06191 0.53756 0.35131 0.0
O164 O 0.06878 0.55566 0.32919 0.0
O165 O 0.07148 0.52074 0.33912 0.0
O166 O 0.07867 0.58197 0.20924 0.0
O167 O 0.08026 0.54803 0.18072 0.0
O168 O 0.28523 0.24857 0.41882 0.0
Cd169 Cd 0.29388 0.22999 0.48981 0.0
Cd170 Cd 0.2513 0.21646 0.48785 0.0
O171 O 0.25193 0.23337 0.40819 0.0
O172 O 0.32328 0.21944 0.47525 0.0
O173 O 0.2928 0.1982 0.47442 0.0
C174 C 0.31349 0.20049 0.46641 0.0
C175 C 0.23027 0.18391 0.50581 0.0
C176 C 0.26731 0.24685 0.39099 0.0
C177 C 0.26868 0.24403 0.59234 0.0
O178 O 0.25289 0.23539 0.56245 0.0
O179 O 0.288 0.24268 0.57422 0.0
O180 O 0.22153 0.20169 0.49653 0.0
O181 O 0.25097 0.18416 0.49989 0.0
O182 O 0.56878 0.53629 0.33492 0.0
Cd183 Cd 0.58642 0.52757 0.26232 0.0
Cd184 Cd 0.59968 0.57001 0.263 0.0
O185 O 0.58461 0.5693 0.34537 0.0
O186 O 0.5972 0.4983 0.27648 0.0
O187 O 0.61832 0.52886 0.27573 0.0
C188 C 0.61616 0.50822 0.28455 0.0
C189 C 0.63186 0.59116 0.24096 0.0
C190 C 0.5712 0.55402 0.36345 0.0
C191 C 0.57002 0.55244 0.1628 0.0
O192 O 0.57892 0.56828 0.19201 0.0
O193 O 0.57237 0.53316 0.17952 0.0
O194 O 0.61419 0.5998 0.25269 0.0
O195 O 0.63174 0.57047 0.24606 0.0
O196 O 0.24018 0.85152 0.94348 0.0
Cd197 Cd 0.22812 0.87053 0.00924 0.0
Cd198 Cd 0.27315 0.87593 0.03261 0.0
O199 O 0.27517 0.86108 0.95087 0.0
O200 O 0.19724 0.87157 0.98479 0.0
O201 O 0.22002 0.90073 0.98794 0.0
C202 C 0.2009 0.89202 0.97566 0.0
C203 C 0.30157 0.90036 0.06639 0.0
C204 C 0.25945 0.85043 0.92504 0.0
C205 C 0.24338 0.85061 0.12052 0.0
O206 O 0.26222 0.85573 0.10041 0.0
O207 O 0.22688 0.85691 0.09408 0.0
O208 O 0.30401 0.8803 0.05705 0.0
O209 O 0.28313 0.90721 0.0528 0.0
O210 O 0.96103 0.58615 0.8228 0.0
Cd211 Cd 0.93954 0.58834 0.75343 0.0
Cd212 Cd 0.93294 0.54662 0.77892 0.0
O213 O 0.95061 0.55351 0.85604 0.0
O214 O 0.93564 0.61994 0.74906 0.0
O215 O 0.90931 0.59578 0.77576 0.0
C216 C 0.91621 0.61583 0.76884 0.0
C217 C 0.89926 0.52747 0.76883 0.0
C218 C 0.96243 0.5712 0.86093 0.0
C219 C 0.95511 0.55841 0.66304 0.0
O220 O 0.9509 0.54431 0.70322 0.0
O221 O 0.95014 0.57772 0.6707 0.0
O222 O 0.91617 0.51789 0.78345 0.0
O223 O 0.90109 0.54834 0.76606 0.0
H224 H 0.30003 0.33931 0.15117 0.0
H225 H 0.23142 0.34687 0.13249 0.0
H226 H 0.22321 0.31786 0.20582 0.0
H227 H 0.29603 0.28229 0.16602 0.0
H228 H 0.31682 0.28163 0.22186 0.0
H229 H 0.31768 0.30351 0.16908 0.0
H230 H 0.31874 0.3313 0.25527 0.0
H231 H 0.31823 0.30951 0.30832 0.0
H232 H 0.2981 0.32877 0.31193 0.0
H233 H 0.22211 0.28623 0.2751 0.0
H234 H 0.22848 0.2575 0.34732 0.0
H235 H 0.29779 0.2715 0.32585 0.0
C236 C 0.28331 0.33506 0.16314 0.0
C237 C 0.26638 0.34537 0.13592 0.0
C238 C 0.2447 0.33931 0.15281 0.0
C239 C 0.23983 0.32274 0.19421 0.0
C240 C 0.25682 0.31252 0.21902 0.0
C241 C 0.27815 0.31871 0.20515 0.0
C242 C 0.29333 0.30528 0.23921 0.0
C243 C 0.30675 0.29242 0.19647 0.0
C244 C 0.30796 0.31957 0.28118 0.0
C245 C 0.27717 0.29045 0.27376 0.0
C246 C 0.2562 0.29475 0.26087 0.0
C247 C 0.23847 0.28283 0.28602 0.0
C248 C 0.24225 0.26642 0.32666 0.0
C249 C 0.26362 0.26225 0.34238 0.0
C250 C 0.28126 0.27433 0.31492 0.0
H251 H 0.9784 0.0818 0.42522 0.0
H252 H 0.97745 0.01937 0.3373 0.0
H253 H 1.00567 1.0087 0.40467 0.0
H254 H 0.03684 0.08776 0.45059 0.0
H255 H 0.03456 0.10021 0.52254 0.0
H256 H 0.01441 0.10353 0.46628 0.0
H257 H 0.98439 0.0885 0.53896 0.0
H258 H 1.00444 0.08514 0.59538 0.0
H259 H 0.98629 0.06242 0.57291 0.0
H260 H 0.03261 1.00353 0.48419 0.0
H261 H 0.05774 1.00519 0.56983 0.0
H262 H 0.04265 0.07102 0.60484 0.0
C263 C 0.98422 0.06597 0.41997 0.0
C264 C 0.97557 0.05151 0.37573 0.0
C265 C 0.98371 0.03087 0.37056 0.0
C266 C 0.99981 0.02456 0.40871 0.0
C267 C 1.00788 0.03905 0.45187 0.0
C268 C 1.00054 0.05937 0.45765 0.0
C269 C 1.012 0.07163 0.5085 0.0
C270 C 0.02524 0.09199 0.48559 0.0
C271 C 0.99581 0.07725 0.55679 0.0
C272 C 0.02661 0.05489 0.5305 0.0
C273 C 0.02395 0.03621 0.49722 0.0
C274 C 0.03504 0.01816 0.51036 0.0
C275 C 0.04924 0.01922 0.55909 0.0
C276 C 0.05233 0.03824 0.59374 0.0
C277 C 0.04091 0.05632 0.57876 0.0
H278 H 0.22784 0.75505 0.69547 0.0
H279 H 0.29646 0.74942 0.66951 0.0
H280 H 0.30483 0.77927 0.74073 0.0
H281 H 0.23077 0.81206 0.70315 0.0
H282 H 0.21031 0.81303 0.75983 0.0
H283 H 0.20961 0.79044 0.70942 0.0
H284 H 0.20983 0.76391 0.79847 0.0
H285 H 0.21015 0.78639 0.84918 0.0
H286 H 0.23082 0.76773 0.85388 0.0
H287 H 0.30563 0.81108 0.81125 0.0
H288 H 0.29879 0.84014 0.88216 0.0
H289 H 0.22962 0.82479 0.8611 0.0
C290 C 0.24464 0.75983 0.70543 0.0
C291 C 0.2615 0.74983 0.67701 0.0
C292 C 0.28326 0.75675 0.69094 0.0
C293 C 0.28818 0.77377 0.73112 0.0
C294 C 0.27116 0.78366 0.75709 0.0
C295 C 0.24983 0.77677 0.74533 0.0
C296 C 0.23453 0.79024 0.77856 0.0
C297 C 0.22048 0.80214 0.73513 0.0
C298 C 0.22051 0.77623 0.82265 0.0
C299 C 0.25058 0.80585 0.81068 0.0
C300 C 0.27163 0.80188 0.79758 0.0
C301 C 0.2892 0.81428 0.82202 0.0
C302 C 0.28514 0.83084 0.86201 0.0
C303 C 0.26366 0.83482 0.8773 0.0
C304 C 0.24623 0.82227 0.85038 0.0
H305 H 0.48215 0.08658 0.09211 0.0
H306 H 0.46432 0.01806 0.11836 0.0
H307 H 0.49098 1.0093 0.0436 0.0
H308 H 0.4911 0.08246 0.92955 0.0
H309 H 0.51365 0.10274 0.93015 0.0
H310 H 0.49221 0.10389 0.98386 0.0
H311 H 0.52032 0.1043 0.06923 0.0
H312 H 0.5418 0.10288 0.01585 0.0
H313 H 0.53814 0.08289 0.07398 0.0
H314 H 0.52202 1.00741 0.97386 0.0
H315 H 0.55256 0.01306 0.90313 0.0
H316 H 0.54918 0.0824 0.91644 0.0
C317 C 0.48356 0.06977 0.08128 0.0
C318 C 0.47111 0.05308 0.11165 0.0
C319 C 0.47363 0.03125 0.09621 0.0
C320 C 0.48881 0.02602 0.05371 0.0
C321 C 0.50126 0.04274 0.02603 0.0
C322 C 0.49856 0.06419 0.03816 0.0
C323 C 0.51427 0.07895 1.00194 0.0
C324 C 0.50208 0.09283 0.95881 0.0
C325 C 0.52953 0.09308 0.0427 0.0
C326 C 0.52635 0.06241 0.96869 0.0
C327 C 0.51869 0.04161 0.98362 0.0
C328 C 0.52798 0.02362 0.96103 0.0
C329 C 0.54539 0.02696 0.92123 0.0
C330 C 0.5531 0.04811 0.90393 0.0
C331 C 0.54343 0.06601 0.92824 0.0
H332 H 0.27458 0.82775 0.17016 0.0
H333 H 0.20698 0.83984 0.18823 0.0
H334 H 0.20341 0.81393 0.27224 0.0
H335 H 0.26734 0.7714 0.19653 0.0
H336 H 0.29238 0.77026 0.2366 0.0
H337 H 0.28994 0.79074 0.18087 0.0
H338 H 0.30111 0.82052 0.25832 0.0
H339 H 0.30367 0.80012 0.31432 0.0
H340 H 0.28625 0.82146 0.32712 0.0
H341 H 0.20722 0.78616 0.35272 0.0
H342 H 0.21742 0.7579 0.42155 0.0
H343 H 0.28241 0.76308 0.34816 0.0
C344 C 0.25904 0.82522 0.19214 0.0
C345 C 0.24106 0.83601 0.17284 0.0
C346 C 0.22098 0.83187 0.20234 0.0
C347 C 0.21882 0.8172 0.2501 0.0
C348 C 0.23686 0.80673 0.26748 0.0
C349 C 0.25656 0.81053 0.23925 0.0
C350 C 0.27322 0.79653 0.26462 0.0
C351 C 0.28118 0.78134 0.2168 0.0
C352 C 0.29218 0.8105 0.29278 0.0
C353 C 0.2598 0.78411 0.31153 0.0
C354 C 0.23893 0.79037 0.31274 0.0
C355 C 0.22351 0.78116 0.35215 0.0
C356 C 0.22951 0.7651 0.39116 0.0
C357 C 0.25075 0.75819 0.39038 0.0
C358 C 0.26606 0.76793 0.34992 0.0
H359 H 0.48337 0.08919 0.42646 0.0
H360 H 0.47217 0.01955 0.40829 0.0
H361 H 0.50168 0.01482 0.47945 0.0
H362 H 0.54076 0.09207 0.4379 0.0
H363 H 0.54264 0.11304 0.49357 0.0
H364 H 0.52049 0.11118 0.44149 0.0
H365 H 0.49298 0.10896 0.52857 0.0
H366 H 0.51505 0.1112 0.58088 0.0
H367 H 0.49481 0.08867 0.58533 0.0
H368 H 0.53376 0.01765 0.54786 0.0
H369 H 0.56253 0.02764 0.62113 0.0
H370 H 0.5517 0.09532 0.59885 0.0
C371 C 0.48699 0.07294 0.43788 0.0
C372 C 0.47549 0.05474 0.41169 0.0
C373 C 0.48066 0.03374 0.42802 0.0
C374 C 0.49752 0.03088 0.46803 0.0
C375 C 0.50888 0.04916 0.4919 0.0
C376 C 0.50356 0.06977 0.47844 0.0
C377 C 0.51786 0.08666 0.51187 0.0
C378 C 0.53123 0.10162 0.46861 0.0
C379 C 0.50437 0.09963 0.55418 0.0
C380 C 0.53212 0.07232 0.54596 0.0
C381 C 0.52687 0.05076 0.5331 0.0
C382 C 0.53794 0.03447 0.5586 0.0
C383 C 0.55436 0.04032 0.59983 0.0
C384 C 0.55934 0.06225 0.61572 0.0
C385 C 0.54827 0.07842 0.58757 0.0
H386 H 0.29567 0.27346 0.65715 0.0
H387 H 0.22971 0.24402 0.64757 0.0
H388 H 0.21879 0.26845 0.72565 0.0
H389 H 0.29543 0.28236 0.82091 0.0
H390 H 0.31155 0.30781 0.81542 0.0
H391 H 0.31477 0.28687 0.76138 0.0
H392 H 0.30731 0.31354 0.67662 0.0
H393 H 0.30381 0.33445 0.73038 0.0
H394 H 0.28264 0.32693 0.67755 0.0
H395 H 0.21373 0.2984 0.79657 0.0
H396 H 0.2161 0.32963 0.86522 0.0
H397 H 0.2853 0.33891 0.83398 0.0
C398 C 0.27906 0.27184 0.67244 0.0
C399 C 0.26359 0.25682 0.64574 0.0
C400 C 0.24193 0.25543 0.66679 0.0
C401 C 0.23549 0.26926 0.71128 0.0
C402 C 0.25088 0.28435 0.73519 0.0
C403 C 0.2723 0.28552 0.71748 0.0
C404 C 0.28538 0.30363 0.75 0.0
C405 C 0.30281 0.29462 0.78927 0.0
C406 C 0.29537 0.32064 0.706 0.0
C407 C 0.26784 0.31261 0.7875 0.0
C408 C 0.24805 0.30129 0.77802 0.0
C409 C 0.2292 0.30722 0.80515 0.0
C410 C 0.23066 0.32505 0.84374 0.0
C411 C 0.25086 0.33659 0.85531 0.0
C412 C 0.26965 0.33023 0.82664 0.0
H413 H 0.04228 0.02076 0.91266 0.0
H414 H 0.05292 0.08965 0.87853 0.0
H415 H 0.02246 0.09608 0.94506 0.0
H416 H 0.98496 0.01749 0.91632 0.0
H417 H 0.98224 0.99817 0.97631 0.0
H418 H 1.00531 0.99881 0.92749 0.0
H419 H 0.03123 1.0039 0.01782 0.0
H420 H 1.00824 1.00284 0.067 0.0
H421 H 0.02817 0.02568 0.06937 0.0
H422 H 0.9896 0.09484 0.01025 0.0
H423 H 0.95983 0.08674 0.08147 0.0
H424 H 0.9711 0.0187 0.0758 0.0
C425 C 0.0384 0.03724 0.91972 0.0
C426 C 0.05001 0.05471 0.89026 0.0
C427 C 0.04439 0.07602 0.90083 0.0
C428 C 0.02699 0.07982 0.93816 0.0
C429 C 0.0155 0.06217 0.96503 0.0
C430 C 0.02121 0.04135 0.95725 0.0
C431 C 1.00645 0.02528 0.99224 0.0
C432 C 0.99401 1.00898 0.95059 0.0
C433 C 0.01929 0.01375 0.03941 0.0
C434 C 0.99145 0.04033 0.02068 0.0
C435 C 0.99683 0.0615 1.00382 0.0
C436 C 0.98532 0.07834 0.02408 0.0
C437 C 0.96833 0.07353 0.06429 0.0
C438 C 0.9631 0.05207 0.08431 0.0
C439 C 0.97459 0.03523 0.06113 0.0
H440 H 0.79156 0.77853 0.82705 0.0
H441 H 0.72263 0.76866 0.86245 0.0
H442 H 0.71625 0.79826 0.79284 0.0
H443 H 0.79508 0.83532 0.82017 0.0
H444 H 0.81446 0.83761 0.76024 0.0
H445 H 0.81365 0.81481 0.80995 0.0
H446 H 0.80845 0.78849 0.72064 0.0
H447 H 0.80966 0.81119 0.67052 0.0
H448 H 0.7867 0.79139 0.6688 0.0
H449 H 0.71772 0.83062 0.72508 0.0
H450 H 0.72627 0.86054 0.65454 0.0
H451 H 0.79425 0.84889 0.66211 0.0
C452 C 0.77506 0.78234 0.81955 0.0
C453 C 0.75758 0.77124 0.85031 0.0
C454 C 0.73627 0.7768 0.83919 0.0
C455 C 0.7325 0.7937 0.80002 0.0
C456 C 0.75018 0.80473 0.77199 0.0
C457 C 0.771 0.79904 0.78043 0.0
C458 C 0.78719 0.81351 0.74504 0.0
C459 C 0.80356 0.82606 0.78633 0.0
C460 C 0.79867 0.80036 0.69848 0.0
C461 C 0.77226 0.82843 0.71585 0.0
C462 C 0.75099 0.82316 0.73226 0.0
C463 C 0.73428 0.83479 0.71158 0.0
C464 C 0.73935 0.85185 0.67177 0.0
C465 C 0.76095 0.8571 0.65276 0.0
C466 C 0.77761 0.84537 0.67593 0.0
H467 H 0.7433 0.3493 0.32854 0.0
H468 H 0.80971 0.353 0.39095 0.0
H469 H 0.81765 0.32459 0.31878 0.0
H470 H 0.73638 0.29321 0.31287 0.0
H471 H 0.71999 0.2935 0.24667 0.0
H472 H 0.72006 0.31538 0.29923 0.0
H473 H 0.73129 0.343 0.21603 0.0
H474 H 0.73085 0.32125 0.16291 0.0
H475 H 0.7549 0.33936 0.17161 0.0
H476 H 0.81725 0.2934 0.24435 0.0
H477 H 0.80945 0.26495 0.16821 0.0
H478 H 0.74326 0.28227 0.15672 0.0
C479 C 0.75965 0.34448 0.32645 0.0
C480 C 0.77589 0.35344 0.36544 0.0
C481 C 0.79703 0.34652 0.36123 0.0
C482 C 0.80166 0.33029 0.32063 0.0
C483 C 0.78501 0.32127 0.28435 0.0
C484 C 0.76452 0.3284 0.28638 0.0
C485 C 0.74925 0.31584 0.24401 0.0
C486 C 0.73031 0.30377 0.27773 0.0
C487 C 0.7411 0.33075 0.19578 0.0
C488 C 0.76424 0.3003 0.2182 0.0
C489 C 0.7848 0.30359 0.24193 0.0
C490 C 0.80124 0.29082 0.22522 0.0
C491 C 0.79662 0.27461 0.18225 0.0
C492 C 0.77575 0.27136 0.15651 0.0
C493 C 0.75939 0.2843 0.17544 0.0
H494 H 0.78626 0.29414 0.88643 0.0
H495 H 0.76277 0.23623 0.79104 0.0
H496 H 0.74939 0.25868 0.71009 0.0
H497 H 0.74464 0.32714 0.84856 0.0
H498 H 0.76207 0.35152 0.83754 0.0
H499 H 0.76991 0.33111 0.88826 0.0
H500 H 0.80592 0.32869 0.83116 0.0
H501 H 0.79846 0.34953 0.78136 0.0
H502 H 0.80528 0.32398 0.75195 0.0
H503 H 0.7354 0.28756 0.64488 0.0
H504 H 0.73004 0.32045 0.58643 0.0
H505 H 0.76636 0.35947 0.71811 0.0
C506 C 0.77874 0.28627 0.84775 0.0
C507 C 0.77565 0.26352 0.84439 0.0
C508 C 0.76558 0.25366 0.79366 0.0
C509 C 0.75768 0.26627 0.74799 0.0
C510 C 0.76042 0.2887 0.75332 0.0
C511 C 0.77139 0.29862 0.80083 0.0
C512 C 0.7733 0.32299 0.79395 0.0
C513 C 0.76179 0.33382 0.84513 0.0
C514 C 0.79715 0.33181 0.7893 0.0
C515 C 0.76148 0.32523 0.73549 0.0
C516 C 0.75366 0.30528 0.71365 0.0
C517 C 0.74164 0.30325 0.6612 0.0
C518 C 0.73841 0.32202 0.62873 0.0
C519 C 0.74762 0.34243 0.64813 0.0
C520 C 0.75897 0.34405 0.70271 0.0
H521 H 0.74235 0.7779 0.14811 0.0
H522 H 0.81197 0.77453 0.15444 0.0
H523 H 0.81451 0.80243 0.23303 0.0
H524 H 0.74292 0.83486 0.16639 0.0
H525 H 0.71904 0.83382 0.21235 0.0
H526 H 0.72231 0.81279 0.15872 0.0
H527 H 0.71744 0.78392 0.2419 0.0
H528 H 0.71397 0.80484 0.29577 0.0
H529 H 0.73453 0.78639 0.30687 0.0
H530 H 0.80982 0.83093 0.30807 0.0
H531 H 0.79854 0.85814 0.37774 0.0
H532 H 0.73164 0.84423 0.32302 0.0
C533 C 0.75814 0.78281 0.16642 0.0
C534 C 0.77701 0.77388 0.14513 0.0
C535 C 0.79731 0.781 0.17004 0.0
C536 C 0.79891 0.79688 0.21463 0.0
C537 C 0.78006 0.80552 0.23379 0.0
C538 C 0.76005 0.79873 0.21076 0.0
C539 C 0.74239 0.81104 0.23854 0.0
C540 C 0.731 0.82389 0.19116 0.0
C541 C 0.72612 0.79563 0.27281 0.0
C542 C 0.75567 0.82597 0.28062 0.0
C543 C 0.77733 0.82234 0.27705 0.0
C544 C 0.79291 0.83385 0.31141 0.0
C545 C 0.78624 0.8493 0.35104 0.0
C546 C 0.76412 0.85334 0.3563 0.0
C547 C 0.74863 0.84161 0.31996 0.0
H548 H 0.54296 0.52419 0.09415 0.0
H549 H 0.56392 0.59219 0.11832 0.0
H550 H 0.53718 0.60197 0.0451 0.0
H551 H 0.53312 0.52838 0.9323 0.0
H552 H 0.50975 0.50908 0.934 0.0
H553 H 0.5313 0.50704 0.98694 0.0
H554 H 0.50376 0.50811 0.07333 0.0
H555 H 0.48218 0.51041 0.02071 0.0
H556 H 0.48702 0.5304 0.07841 0.0
H557 H 0.50627 0.60514 0.97657 0.0
H558 H 0.47558 0.60091 0.90633 0.0
H559 H 0.47535 0.53118 0.92045 0.0
C560 C 0.54216 0.54109 0.08327 0.0
C561 C 0.55557 0.55736 0.11258 0.0
C562 C 0.55386 0.57932 0.09704 0.0
C563 C 0.53865 0.58514 0.0554 0.0
C564 C 0.52531 0.56886 0.02869 0.0
C565 C 0.52711 0.54726 0.04097 0.0
C566 C 0.5106 0.53311 1.00547 0.0
C567 C 0.52187 0.51855 0.9621 0.0
C568 C 0.49497 0.51972 0.04697 0.0
C569 C 0.49915 0.5502 0.97238 0.0
C570 C 0.50783 0.5707 0.9869 0.0
C571 C 0.49947 0.58916 0.96416 0.0
C572 C 0.48195 0.58661 0.92461 0.0
C573 C 0.47315 0.56576 0.90764 0.0
C574 C 0.48187 0.54735 0.93214 0.0
H575 H 0.04337 0.57133 0.40407 0.0
H576 H 0.0383 0.5013 0.39281 0.0
H577 H 1.00791 0.49958 0.46423 0.0
H578 H 0.0343 0.57415 0.55855 0.0
H579 H 0.01905 0.59756 0.55504 0.0
H580 H 0.03896 0.59341 0.4989 0.0
H581 H 1.0099 0.59562 0.41681 0.0
H582 H 0.98984 0.59972 0.4728 0.0
H583 H 0.9854 0.57788 0.42022 0.0
H584 H 0.97977 0.50526 0.54059 0.0
H585 H 0.95687 0.51759 0.62097 0.0
H586 H 0.98026 0.58414 0.5846 0.0
C587 C 0.03568 0.55561 0.41589 0.0
C588 C 0.04315 0.53641 0.39246 0.0
C589 C 0.03285 0.5162 0.40999 0.0
C590 C 0.01552 0.51508 0.45033 0.0
C591 C 1.00868 0.5343 0.4728 0.0
C592 C 0.01846 0.5542 0.45641 0.0
C593 C 1.00895 0.57234 0.4902 0.0
C594 C 0.02635 0.58511 0.52791 0.0
C595 C 0.99786 0.58727 0.44744 0.0
C596 C 0.99253 0.5595 0.52907 0.0
C597 C 0.99251 0.53761 0.51766 0.0
C598 C 0.97953 0.52235 0.5496 0.0
C599 C 0.96659 0.52956 0.5953 0.0
C600 C 0.96671 0.55186 0.60909 0.0
C601 C 0.97955 0.56705 0.57457 0.0
H602 H 0.0486 0.53776 0.10339 0.0
H603 H 0.06775 0.60624 0.12245 0.0
H604 H 0.04122 0.61442 0.04572 0.0
H605 H 0.03825 0.53842 0.94188 0.0
H606 H 0.0151 0.51894 0.94707 0.0
H607 H 0.03687 0.51831 0.99996 0.0
H608 H 1.00953 0.52091 0.08628 0.0
H609 H 0.98773 0.52189 0.03368 0.0
H610 H 0.99258 0.54309 0.08804 0.0
H611 H 1.01176 0.61553 0.97139 0.0
H612 H 0.98199 0.60951 0.89937 0.0
H613 H 0.98059 0.54031 0.92919 0.0
C614 C 0.04754 0.55442 0.09033 0.0
C615 C 0.06038 0.57138 0.11848 0.0
C616 C 0.05817 0.59301 0.10126 0.0
C617 C 0.04311 0.59782 0.05783 0.0
C618 C 0.03027 0.58083 0.03219 0.0
C619 C 0.03238 0.55955 0.04733 0.0
C620 C 0.01589 0.54447 0.01444 0.0
C621 C 0.02721 0.52913 0.97339 0.0
C622 C 1.00053 0.53185 0.05824 0.0
C623 C 1.00414 0.56065 0.97884 0.0
C624 C 0.01281 0.5815 0.98977 0.0
C625 C 1.00488 0.59928 0.96224 0.0
C626 C 0.98791 0.59567 0.92147 0.0
C627 C 0.97888 0.57444 0.90866 0.0
C628 C 0.98698 0.55673 0.93845 0.0
H629 H 0.47908 0.52062 0.60255 0.0
H630 H 0.47405 0.58911 0.63165 0.0
H631 H 0.50372 0.5977 0.56015 0.0
H632 H 0.53655 0.5228 0.58807 0.0
H633 H 0.53622 0.50298 0.52941 0.0
H634 H 0.51453 0.50202 0.58289 0.0
H635 H 0.48654 0.50354 0.49767 0.0
H636 H 0.50811 0.50419 0.44392 0.0
H637 H 0.48968 0.52512 0.44387 0.0
H638 H 0.53508 0.59887 0.48907 0.0
H639 H 0.56274 0.59264 0.4134 0.0
H640 H 0.5463 0.52347 0.42709 0.0
C641 C 0.48412 0.53742 0.59355 0.0
C642 C 0.47428 0.55419 0.62279 0.0
C643 C 0.48128 0.57598 0.60961 0.0
C644 C 0.49822 0.58103 0.56936 0.0
C645 C 0.50785 0.56413 0.54213 0.0
C646 C 0.50083 0.54277 0.55285 0.0
C647 C 0.5135 0.52769 0.51625 0.0
C648 C 0.52594 0.51301 0.55658 0.0
C649 C 0.49857 0.51436 0.47285 0.0
C650 C 0.52879 0.54392 0.4835 0.0
C651 C 0.52545 0.56483 0.49965 0.0
C652 C 0.53777 0.58256 0.47581 0.0
C653 C 0.55355 0.57885 0.43314 0.0
C654 C 0.55669 0.55758 0.41421 0.0
C655 C 0.54429 0.53992 0.44052 0.0
H656 H 0.12916 0.49081 0.13335 0.0
H657 H 0.12927 0.45719 0.30285 0.0
H658 H 0.15113 0.43001 0.25877 0.0
H659 H 0.12686 0.44173 0.0385 0.0
H660 H 0.14458 0.45449 0.98293 0.0
H661 H 0.1273 0.47044 0.0261 0.0
H662 H 0.16069 0.49538 0.05919 0.0
H663 H 0.17806 0.47949 0.01639 0.0
H664 H 0.18303 0.48374 0.09475 0.0
H665 H 0.17594 0.4086 0.2004 0.0
H666 H 0.20086 0.39326 0.12946 0.0
H667 H 0.18419 0.43938 0.99554 0.0
C668 C 0.13342 0.47749 0.16083 0.0
C669 C 0.12738 0.47616 0.22167 0.0
C670 C 0.13359 0.45861 0.25621 0.0
C671 C 0.14602 0.44303 0.23154 0.0
C672 C 0.15207 0.44503 0.17197 0.0
C673 C 0.14584 0.46167 0.13676 0.0
C674 C 0.15541 0.46048 0.07464 0.0
C675 C 0.13747 0.45655 0.02777 0.0
C676 C 0.17018 0.48099 0.06044 0.0
C677 C 0.16836 0.4409 0.08099 0.0
C678 C 0.16613 0.43225 0.13757 0.0
C679 C 0.17754 0.415 0.15566 0.0
C680 C 0.19172 0.40643 0.11508 0.0
C681 C 0.19429 0.41494 0.05678 0.0
C682 C 0.18222 0.43225 0.0394 0.0
H683 H 0.82085 0.93801 0.43268 0.0
H684 H 0.76704 0.97767 0.45069 0.0
H685 H 0.78917 1.00866 0.4062 0.0
H686 H 0.86483 0.97998 0.45876 0.0
H687 H 0.88191 0.96958 0.40257 0.0
H688 H 0.86258 0.95151 0.44174 0.0
H689 H 0.84604 0.93832 0.34088 0.0
H690 H 0.86507 0.95662 0.30145 0.0
H691 H 0.83645 0.95771 0.28962 0.0
H692 H 0.8173 0.0352 0.36001 0.0
H693 H 0.84894 0.05505 0.31188 0.0
H694 H 0.88282 0.99682 0.31356 0.0
C695 C 0.81401 0.95343 0.42868 0.0
C696 C 0.79252 0.95579 0.44641 0.0
C697 C 0.78366 0.97582 0.4383 0.0
C698 C 0.79606 0.99341 0.41292 0.0
C699 C 0.81708 0.99047 0.39464 0.0
C700 C 0.82596 0.97095 0.40184 0.0
C701 C 0.84833 0.97157 0.3745 0.0
C702 C 0.86542 0.96795 0.42225 0.0
C703 C 0.849 0.95507 0.32359 0.0
C704 C 0.85071 0.99452 0.35109 0.0
C705 C 0.83261 1.00523 0.3638 0.0
C706 C 0.83146 0.02691 0.34921 0.0
C707 C 0.84941 0.03803 0.32175 0.0
C708 C 0.86801 0.02729 0.30796 0.0
C709 C 0.86852 1.0052 0.32214 0.0
H710 H 0.31644 0.68081 0.62635 0.0
H711 H 0.34377 0.6754 0.44965 0.0
H712 H 0.3724 0.65452 0.49118 0.0
H713 H 0.36829 0.68481 0.70892 0.0
H714 H 0.35707 0.66877 0.77012 0.0
H715 H 0.34006 0.6852 0.72757 0.0
H716 H 0.31376 0.65149 0.70611 0.0
H717 H 0.3307 0.63495 0.74828 0.0
H718 H 0.32397 0.62808 0.67217 0.0
H719 H 0.39604 0.63144 0.55006 0.0
H720 H 0.41328 0.60828 0.62208 0.0
H721 H 0.37094 0.62862 0.76127 0.0
C722 C 0.32872 0.67565 0.59655 0.0
C723 C 0.32791 0.67991 0.53466 0.0
C724 C 0.34408 0.67247 0.49716 0.0
C725 C 0.36044 0.6606 0.52039 0.0
C726 C 0.36051 0.6563 0.58132 0.0
C727 C 0.34515 0.6637 0.61901 0.0
C728 C 0.34812 0.65573 0.68218 0.0
C729 C 0.35372 0.67476 0.72471 0.0
C730 C 0.32794 0.64173 0.7034 0.0
C731 C 0.36724 0.64231 0.67388 0.0
C732 C 0.37422 0.64299 0.61541 0.0
C733 C 0.39089 0.63101 0.5961 0.0
C734 C 0.40057 0.61785 0.63739 0.0
C735 C 0.3936 0.61672 0.6975 0.0
C736 C 0.37687 0.62937 0.71592 0.0
H737 H 0.74185 0.1494 0.94535 0.0
H738 H 0.70268 0.20179 0.9905 0.0
H739 H 0.67042 0.18075 0.95108 0.0
H740 H 0.71681 0.13421 0.8111 0.0
H741 H 0.71737 0.10546 0.82074 0.0
H742 H 0.73744 0.12367 0.85656 0.0
H743 H 0.7271 0.1069 0.95926 0.0
H744 H 0.70725 0.08833 0.92365 0.0
H745 H 0.6993 0.10537 0.98334 0.0
H746 H 0.64382 0.15684 0.89406 0.0
H747 H 0.62223 0.12809 0.83985 0.0
H748 H 0.677 0.08901 0.83936 0.0
C749 C 0.72638 0.15621 0.94821 0.0
C750 C 0.72482 0.17728 0.97104 0.0
C751 C 0.7043 0.18565 0.97378 0.0
C752 C 0.68587 0.17388 0.95107 0.0
C753 C 0.6881 0.15353 0.92698 0.0
C754 C 0.70765 0.14443 0.92696 0.0
C755 C 0.70542 0.12217 0.89836 0.0
C756 C 0.72014 0.12135 0.84344 0.0
C757 C 0.71004 0.10465 0.94388 0.0
C758 C 0.68172 0.12053 0.88073 0.0
C759 C 0.6722 0.13898 0.8971 0.0
C760 C 0.65095 0.14213 0.88208 0.0
C761 C 0.63889 0.12579 0.85072 0.0
C762 C 0.64794 0.10634 0.83556 0.0
C763 C 0.66966 0.10367 0.85085 0.0
H764 H 0.1583 0.59727 0.28443 0.0
H765 H 0.14512 0.55617 0.43866 0.0
H766 H 0.17206 0.57887 0.49675 0.0
H767 H 0.21692 0.60675 0.3118 0.0
H768 H 0.21803 0.63423 0.28543 0.0
H769 H 0.19827 0.61422 0.25537 0.0
H770 H 0.16768 0.63824 0.28379 0.0
H771 H 0.1873 0.65824 0.31424 0.0
H772 H 0.16526 0.64699 0.35986 0.0
H773 H 0.1973 0.60852 0.5413 0.0
H774 H 0.22253 0.64045 0.56514 0.0
H775 H 0.22184 0.66018 0.38006 0.0
C776 C 0.1613 0.59291 0.33019 0.0
C777 C 0.14959 0.57498 0.35705 0.0
C778 C 0.154 0.56975 0.41701 0.0
C779 C 0.16921 0.5826 0.45049 0.0
C780 C 0.18022 0.60037 0.42305 0.0
C781 C 0.1768 0.60528 0.36391 0.0
C782 C 0.19085 0.62526 0.3451 0.0
C783 C 0.20698 0.61978 0.29655 0.0
C784 C 0.17694 0.64324 0.32456 0.0
C785 C 0.20228 0.63109 0.40323 0.0
C786 C 0.19578 0.61666 0.44784 0.0
C787 C 0.20287 0.61967 0.50647 0.0
C788 C 0.21709 0.63784 0.51969 0.0
C789 C 0.22435 0.65246 0.47426 0.0
C790 C 0.21692 0.64892 0.41533 0.0
H791 H 0.63658 1.00786 0.63434 0.0
H792 H 0.64152 0.9776 0.80743 0.0
H793 H 0.65916 0.94769 0.76108 0.0
H794 H 0.62725 0.95761 0.54679 0.0
H795 H 0.64367 0.96798 0.4853 0.0
H796 H 0.62957 0.98616 0.5308 0.0
H797 H 0.66568 1.00886 0.55219 0.0
H798 H 0.67983 0.99083 0.50662 0.0
H799 H 0.6881 0.9958 0.58266 0.0
H800 H 0.67837 0.92233 0.69811 0.0
H801 H 0.69945 0.90403 0.62336 0.0
H802 H 0.68278 0.95028 0.48971 0.0
C803 C 0.64108 0.99476 0.6623 0.0
C804 C 0.63751 0.99505 0.72463 0.0
C805 C 0.64401 0.97778 0.7597 0.0
C806 C 0.65398 0.96063 0.73371 0.0
C807 C 0.65744 0.96091 0.6724 0.0
C808 C 0.65126 0.97752 0.63703 0.0
C809 C 0.65825 0.97454 0.57285 0.0
C810 C 0.63851 0.97138 0.53149 0.0
C811 C 0.6739 0.99364 0.5524 0.0
C812 C 0.66966 0.95389 0.57798 0.0
C813 C 0.66874 0.94621 0.63578 0.0
C814 C 0.679 0.92805 0.65259 0.0
C815 C 0.69094 0.91774 0.6097 0.0
C816 C 0.69262 0.92554 0.55043 0.0
C817 C 0.68143 0.94363 0.53425 0.0
H818 H 0.37849 0.51393 0.90055 0.0
H819 H 0.36305 0.51301 0.71237 0.0
H820 H 0.3315 0.48674 0.73165 0.0
H821 H 0.36662 0.45685 0.92128 0.0
H822 H 0.35601 0.45929 0.99545 0.0
H823 H 0.37613 0.47936 0.96765 0.0
H824 H 0.35069 0.50934 0.99019 0.0
H825 H 0.33043 0.48933 0.01785 0.0
H826 H 0.32382 0.50739 0.95902 0.0
H827 H 0.3013 0.46162 0.77184 0.0
H828 H 0.27724 0.43505 0.82694 0.0
H829 H 0.31452 0.4489 0.98794 0.0
C830 C 0.36827 0.50829 0.86367 0.0
C831 C 0.37282 0.51561 0.8051 0.0
C832 C 0.3596 0.5076 0.75749 0.0
C833 C 0.34167 0.4928 0.76812 0.0
C834 C 0.33755 0.48586 0.82642 0.0
C835 C 0.3507 0.493 0.87328 0.0
C836 C 0.3437 0.48165 0.93082 0.0
C837 C 0.36168 0.46851 0.95521 0.0
C838 C 0.33674 0.4979 0.9772 0.0
C839 C 0.32452 0.46703 0.90902 0.0
C840 C 0.32103 0.47011 0.84891 0.0
C841 C 0.30396 0.45896 0.81879 0.0
C842 C 0.29031 0.44399 0.85061 0.0
C843 C 0.29404 0.4399 0.91167 0.0
C844 C 0.31136 0.45165 0.94125 0.0
H845 H 0.828 0.19012 0.12052 0.0
H846 H 0.85539 0.1824 0.94491 0.0
H847 H 0.8847 0.16313 0.989 0.0
H848 H 0.88002 0.19558 0.20494 0.0
H849 H 0.86879 0.17987 0.26673 0.0
H850 H 0.85173 0.19585 0.22292 0.0
H851 H 0.82573 0.16181 0.20253 0.0
H852 H 0.84268 0.14577 0.24618 0.0
H853 H 0.83626 0.13826 0.1703 0.0
H854 H 0.90869 0.14162 0.04951 0.0
H855 H 0.92502 0.11799 0.12182 0.0
H856 H 0.8822 0.13861 0.25945 0.0
C857 C 0.84053 0.18489 0.09165 0.0
C858 C 0.83958 0.188 0.02928 0.0
C859 C 0.85587 0.18032 0.99276 0.0
C860 C 0.87264 0.16943 0.01746 0.0
C861 C 0.8729 0.16622 0.07887 0.0
C862 C 0.85729 0.17368 0.11561 0.0
C863 C 0.86016 0.16617 0.17932 0.0
C864 C 0.8655 0.18552 0.22094 0.0
C865 C 0.84001 0.15217 0.20081 0.0
C866 C 0.87946 0.15287 0.17228 0.0
C867 C 0.88671 0.15342 0.11405 0.0
C868 C 0.90337 0.14131 0.09541 0.0
C869 C 0.91254 0.12791 0.13688 0.0
C870 C 0.90507 0.12659 0.19649 0.0
C871 C 0.88861 0.13964 0.2146 0.0
H872 H 0.82012 0.6719 0.93422 0.0
H873 H 0.85915 0.73268 0.9102 0.0
H874 H 0.88647 0.71373 0.85666 0.0
H875 H 0.86555 0.63946 0.95921 0.0
H876 H 0.85334 0.6162 0.92007 0.0
H877 H 0.83652 0.63448 0.95643 0.0
H878 H 0.81651 0.63974 0.85699 0.0
H879 H 0.83343 0.62165 0.8202 0.0
H880 H 0.8318 0.64863 0.79197 0.0
H881 H 0.90919 0.68895 0.8033 0.0
H882 H 0.92792 0.65903 0.76158 0.0
H883 H 0.87555 0.61335 0.82149 0.0
C884 C 0.83448 0.68118 0.918 0.0
C885 C 0.8374 0.70387 0.92655 0.0
C886 C 0.85647 0.71535 0.90456 0.0
C887 C 0.87209 0.70473 0.87372 0.0
C888 C 0.86862 0.68252 0.86533 0.0
C889 C 0.85048 0.67075 0.88738 0.0
C890 C 0.85119 0.64686 0.87317 0.0
C891 C 0.85168 0.63346 0.93065 0.0
C892 C 0.8321 0.63875 0.8332 0.0
C893 C 0.87254 0.64714 0.83971 0.0
C894 C 0.88214 0.66796 0.83534 0.0
C895 C 0.90187 0.67255 0.8066 0.0
C896 C 0.91237 0.65539 0.78279 0.0
C897 C 0.90328 0.63376 0.78804 0.0
C898 C 0.8829 0.62968 0.81634 0.0
H899 H 0.18787 0.18123 0.5398 0.0
H900 H 0.24346 0.14348 0.52803 0.0
H901 H 0.22278 0.11321 0.57991 0.0
H902 H 0.17248 0.16519 0.6849 0.0
H903 H 0.14382 0.16455 0.67106 0.0
H904 H 0.16232 0.18244 0.62875 0.0
H905 H 0.14705 0.16559 0.53025 0.0
H906 H 0.12825 0.14789 0.57223 0.0
H907 H 0.14627 0.13677 0.51971 0.0
H908 H 0.19603 0.08755 0.63759 0.0
H909 H 0.16528 0.06845 0.6916 0.0
H910 H 0.12825 0.12405 0.66752 0.0
C911 C 0.19561 0.16646 0.54698 0.0
C912 C 0.21725 0.16467 0.52937 0.0
C913 C 0.22685 0.14517 0.54068 0.0
C914 C 0.21525 0.12792 0.57034 0.0
C915 C 0.19412 0.13048 0.58854 0.0
C916 C 0.18438 0.14924 0.57686 0.0
C917 C 0.16182 0.14837 0.60277 0.0
C918 C 0.16002 0.16619 0.64965 0.0
C919 C 0.14485 0.14973 0.55329 0.0
C920 C 0.16036 0.12622 0.63118 0.0
C921 C 0.17908 0.11607 0.62247 0.0
C922 C 0.1813 0.09537 0.64457 0.0
C923 C 0.16379 0.08469 0.67543 0.0
C924 C 0.14439 0.09478 0.68416 0.0
C925 C 0.14288 0.11591 0.66213 0.0
H926 H 0.67377 0.40949 0.42728 0.0
H927 H 0.72956 0.45481 0.46107 0.0
H928 H 0.71072 0.48387 0.41401 0.0
H929 H 0.66017 0.43012 0.28478 0.0
H930 H 0.63135 0.42627 0.29613 0.0
H931 H 0.64895 0.40899 0.33349 0.0
H932 H 0.63313 0.41908 0.43551 0.0
H933 H 0.61531 0.43619 0.39841 0.0
H934 H 0.6332 0.44714 0.45614 0.0
H935 H 0.6863 0.5078 0.36019 0.0
H936 H 0.65699 0.52561 0.31114 0.0
H937 H 0.61663 0.46502 0.31346 0.0
C938 C 0.68197 0.42556 0.42528 0.0
C939 C 0.7032 0.42983 0.44803 0.0
C940 C 0.71331 0.45111 0.44427 0.0
C941 C 0.70276 0.46773 0.41733 0.0
C942 C 0.68203 0.46289 0.3945 0.0
C943 C 0.67162 0.44239 0.39877 0.0
C944 C 0.64923 0.44156 0.37115 0.0
C945 C 0.64733 0.4258 0.31825 0.0
C946 C 0.63168 0.43565 0.41811 0.0
C947 C 0.64869 0.46478 0.35052 0.0
C948 C 0.66784 0.47676 0.36412 0.0
C949 C 0.67122 0.49858 0.34951 0.0
C950 C 0.65446 0.50855 0.32136 0.0
C951 C 0.63446 0.49676 0.30821 0.0
C952 C 0.63173 0.47449 0.32254 0.0
H953 H 0.36347 1.0083 0.20299 0.0
H954 H 0.41123 0.96674 0.26813 0.0
H955 H 0.38984 0.93505 0.22761 0.0
H956 H 0.31571 0.9693 0.23099 0.0
H957 H 0.30198 0.97693 0.16449 0.0
H958 H 0.32014 0.99647 0.20267 0.0
H959 H 0.34179 1.00347 0.10504 0.0
H960 H 0.32392 0.98372 0.06678 0.0
H961 H 0.35264 0.98115 0.0673 0.0
H962 H 0.366 0.9085 0.17275 0.0
H963 H 0.33816 0.88716 0.11543 0.0
H964 H 0.30415 0.94465 0.08676 0.0
C965 C 0.36912 0.99247 0.20991 0.0
C966 C 0.38906 0.99003 0.2388 0.0
C967 C 0.39606 0.96907 0.24617 0.0
C968 C 0.38404 0.95092 0.2232 0.0
C969 C 0.36491 0.9539 0.19326 0.0
C970 C 0.3572 0.97401 0.18728 0.0
C971 C 0.33629 0.97247 0.15158 0.0
C972 C 0.31741 0.97919 0.18972 0.0
C973 C 0.33883 0.98601 0.09428 0.0
C974 C 0.33379 0.94844 0.13773 0.0
C975 C 0.35061 0.93818 0.16217 0.0
C976 C 0.35257 0.91625 0.154 0.0
C977 C 0.33669 0.90429 0.12093 0.0
C978 C 0.31889 0.91417 0.0966 0.0
C979 C 0.31751 0.93662 0.10493 0.0
H980 H 0.83671 0.42413 0.62182 0.0
H981 H 0.78499 0.46396 0.57564 0.0
H982 H 0.80407 0.4948 0.62921 0.0
H983 H 0.84624 0.44543 0.7694 0.0
H984 H 0.8751 0.44404 0.76536 0.0
H985 H 0.85732 0.42523 0.72361 0.0
H986 H 0.87738 0.43679 0.62598 0.0
H987 H 0.89538 0.45539 0.66753 0.0
H988 H 0.88035 0.46496 0.60564 0.0
H989 H 0.82979 0.52168 0.68615 0.0
H990 H 0.86027 0.54227 0.73737 0.0
H991 H 0.89401 0.48398 0.74847 0.0
C992 C 0.82938 0.43935 0.62265 0.0
C993 C 0.80937 0.44165 0.59425 0.0
C994 C 0.80033 0.46183 0.59687 0.0
C995 C 0.81101 0.47941 0.62742 0.0
C996 C 0.83061 0.47648 0.6555 0.0
C997 C 0.83969 0.45693 0.65321 0.0
C998 C 0.86101 0.45792 0.68621 0.0
C999 C 0.85983 0.44222 0.73929 0.0
C1000 C 0.87963 0.45351 0.64381 0.0
C1001 C 0.86272 0.48118 0.70692 0.0
C1002 C 0.84503 0.49165 0.68904 0.0
C1003 C 0.84362 0.51355 0.70079 0.0
C1004 C 0.86097 0.52511 0.73015 0.0
C1005 C 0.87946 0.51473 0.74756 0.0
C1006 C 0.87999 0.49237 0.73677 0.0
H1007 H 0.35602 0.2012 0.42989 0.0
H1008 H 0.29739 0.15852 0.4499 0.0
H1009 H 0.31572 0.12879 0.40465 0.0
H1010 H 0.37138 0.18127 0.28825 0.0
H1011 H 0.39996 0.18353 0.30401 0.0
H1012 H 0.3826 0.20136 0.34007 0.0
H1013 H 0.39575 0.18934 0.44339 0.0
H1014 H 0.41332 0.17164 0.40763 0.0
H1015 H 0.39384 0.161 0.46188 0.0
H1016 H 0.34021 0.10374 0.35501 0.0
H1017 H 0.36949 0.08494 0.30875 0.0
H1018 H 0.41215 0.1439 0.31966 0.0
C1019 C 0.3471 0.18554 0.42542 0.0
C1020 C 0.32524 0.18223 0.44379 0.0
C1021 C 0.31414 0.1615 0.43645 0.0
C1022 C 0.3244 0.14449 0.4106 0.0
C1023 C 0.34582 0.14839 0.39211 0.0
C1024 C 0.3571 0.16836 0.39948 0.0
C1025 C 0.37992 0.16832 0.37518 0.0
C1026 C 0.38368 0.18459 0.32383 0.0
C1027 C 0.3967 0.17284 0.42499 0.0
C1028 C 0.3797 0.14523 0.35293 0.0
C1029 C 0.35987 0.13401 0.36309 0.0
C1030 C 0.35581 0.11238 0.34686 0.0
C1031 C 0.37255 0.10184 0.3204 0.0
C1032 C 0.39314 0.11291 0.31019 0.0
C1033 C 0.39658 0.13498 0.32631 0.0
H1034 H 0.6341 0.63376 0.20936 0.0
H1035 H 0.6721 0.57825 0.21451 0.0
H1036 H 0.70199 0.59949 0.16252 0.0
H1037 H 0.64925 0.65071 0.06455 0.0
H1038 H 0.64988 0.67917 0.08088 0.0
H1039 H 0.63227 0.66017 0.12245 0.0
H1040 H 0.64967 0.67442 0.22133 0.0
H1041 H 0.66713 0.69368 0.18013 0.0
H1042 H 0.67859 0.67514 0.2305 0.0
H1043 H 0.72729 0.6269 0.10587 0.0
H1044 H 0.74595 0.65819 0.05318 0.0
H1045 H 0.69036 0.69475 0.08336 0.0
C1046 C 0.64884 0.62613 0.2006 0.0
C1047 C 0.65082 0.60437 0.21645 0.0
C1048 C 0.67027 0.59494 0.20319 0.0
C1049 C 0.68731 0.60686 0.17349 0.0
C1050 C 0.68459 0.62814 0.15722 0.0
C1051 C 0.66585 0.63769 0.17068 0.0
C1052 C 0.66653 0.6605 0.14672 0.0
C1053 C 0.64841 0.66275 0.10094 0.0
C1054 C 0.66542 0.6769 0.19771 0.0
C1055 C 0.68853 0.66233 0.11734 0.0
C1056 C 0.69879 0.64358 0.12392 0.0
C1057 C 0.71938 0.64165 0.10055 0.0
C1058 C 0.72983 0.65947 0.07049 0.0
C1059 C 0.7196 0.67889 0.06379 0.0
C1060 C 0.6986 0.68012 0.08721 0.0
H1061 H 0.20353 0.93516 0.9413 0.0
H1062 H 0.15957 0.87698 0.94902 0.0
H1063 H 0.13144 0.89615 0.89964 0.0
H1064 H 0.1628 0.97292 0.96927 0.0
H1065 H 0.17464 0.99313 0.91872 0.0
H1066 H 0.19152 0.97501 0.95554 0.0
H1067 H 0.20581 0.9633 0.85322 0.0
H1068 H 0.18884 0.98125 0.81608 0.0
H1069 H 0.18687 0.95295 0.79719 0.0
H1070 H 0.10823 0.92077 0.84796 0.0
H1071 H 0.09033 0.9503 0.80118 0.0
H1072 H 0.14847 0.9934 0.82604 0.0
C1073 C 0.18793 0.92652 0.933 0.0
C1074 C 0.18382 0.9045 0.94922 0.0
C1075 C 0.16319 0.8938 0.93721 0.0
C1076 C 0.14707 0.90454 0.90898 0.0
C1077 C 0.15169 0.92607 0.89292 0.0
C1078 C 0.17151 0.93707 0.90473 0.0
C1079 C 0.17202 0.96027 0.88263 0.0
C1080 C 0.17545 0.97628 0.93465 0.0
C1081 C 0.18942 0.96469 0.83441 0.0
C1082 C 0.14941 0.96048 0.85661 0.0
C1083 C 0.13807 0.94051 0.86298 0.0
C1084 C 0.11691 0.93651 0.84279 0.0
C1085 C 0.10689 0.95344 0.81611 0.0
C1086 C 0.11793 0.97423 0.80973 0.0
C1087 C 0.1396 0.97769 0.82991 0.0
loop_
_geom_bond_atom_site_label_1
_geom_bond_atom_site_label_2
_geom_bond_distance
_geom_bond_site_symmetry_2
_ccdc_geom_bond_type
O0 Cd1 2.223 1_556 S
O0 C8 1.315 . S
Cd1 O0 2.223 1_554 S
Cd1 O4 2.297 . S
Cd1 O5 2.439 . S
Cd1 O11 2.240 . S
Cd2 O3 2.240 . S
Cd2 O10 2.223 . S
Cd2 O12 2.297 . S
Cd2 O13 2.439 1_556 S
O3 Cd2 2.240 . S
O3 C8 1.279 . S
O4 Cd1 2.297 . S
O4 C6 1.247 . S
O5 Cd1 2.439 . S
O5 C6 1.208 . S
C6 O4 1.247 . S
C6 O5 1.208 . S
C7 O12 1.247 1_554 S
C7 O13 1.208 . S
C8 O0 1.315 . S
C8 O3 1.279 . S
C9 O10 1.315 . S
C9 O11 1.279 1_556 S
O10 Cd2 2.223 . S
O10 C9 1.315 . S
O11 Cd1 2.240 . S
O11 C9 1.279 1_554 S
O12 Cd2 2.297 . S
O12 C7 1.247 1_556 S
O13 Cd2 2.439 1_554 S
O13 C7 1.208 . S
O14 Cd15 2.223 . S
O14 C22 1.315 . S
Cd15 O14 2.223 . S
Cd15 O18 2.297 . S
Cd15 O19 2.439 . S
Cd15 O25 2.240 . S
Cd16 O17 2.240 . S
Cd16 O24 2.223 . S
Cd16 O26 2.297 . S
Cd16 O27 2.439 . S
O17 Cd16 2.240 . S
O17 C22 1.279 . S
O18 Cd15 2.297 . S
O18 C20 1.247 . S
O19 Cd15 2.439 . S
O19 C20 1.208 . S
C20 O18 1.247 . S
C20 O19 1.208 . S
C21 O26 1.247 . S
C21 O27 1.208 . S
C22 O14 1.315 . S
C22 O17 1.279 . S
C23 O24 1.315 . S
C23 O25 1.279 . S
O24 Cd16 2.223 . S
O24 C23 1.315 . S
O25 Cd15 2.240 . S
O25 C23 1.279 . S
O26 Cd16 2.297 . S
O26 C21 1.247 . S
O27 Cd16 2.439 . S
O27 C21 1.208 . S
O28 Cd29 2.223 . S
O28 C36 1.315 . S
Cd29 O28 2.223 . S
Cd29 O32 2.297 . S
Cd29 O33 2.439 . S
Cd29 O39 2.240 . S
Cd30 O31 2.240 . S
Cd30 O38 2.223 . S
Cd30 O40 2.297 . S
Cd30 O41 2.439 . S
O31 Cd30 2.240 . S
O31 C36 1.279 . S
O32 Cd29 2.297 . S
O32 C34 1.247 . S
O33 Cd29 2.439 . S
O33 C34 1.208 . S
C34 O32 1.247 . S
C34 O33 1.208 . S
C35 O40 1.247 . S
C35 O41 1.208 . S
C36 O28 1.315 . S
C36 O31 1.279 . S
C37 O38 1.315 . S
C37 O39 1.279 . S
O38 Cd30 2.223 . S
O38 C37 1.315 . S
O39 Cd29 2.240 . S
O39 C37 1.279 . S
O40 Cd30 2.297 . S
O40 C35 1.247 . S
O41 Cd30 2.439 . S
O41 C35 1.208 . S
O42 Cd43 2.223 . S
O42 C50 1.315 . S
Cd43 O42 2.223 . S
Cd43 O46 2.297 . S
Cd43 O47 2.439 . S
Cd43 O53 2.240 . S
Cd44 O45 2.240 . S
Cd44 O52 2.223 . S
Cd44 O54 2.297 . S
Cd44 O55 2.439 . S
O45 Cd44 2.240 . S
O45 C50 1.279 . S
O46 Cd43 2.297 . S
O46 C48 1.247 . S
O47 Cd43 2.439 . S
O47 C48 1.208 . S
C48 O46 1.247 . S
C48 O47 1.208 . S
C49 O54 1.247 . S
C49 O55 1.208 . S
C50 O42 1.315 . S
C50 O45 1.279 . S
C51 O52 1.315 . S
C51 O53 1.279 . S
O52 Cd44 2.223 . S
O52 C51 1.315 . S
O53 Cd43 2.240 . S
O53 C51 1.279 . S
O54 Cd44 2.297 . S
O54 C49 1.247 . S
O55 Cd44 2.439 . S
O55 C49 1.208 . S
O56 Cd57 2.223 1_556 S
O56 C64 1.315 . S
Cd57 O56 2.223 1_554 S
Cd57 O60 2.297 1_554 S
Cd57 O61 2.439 1_554 S
Cd57 O67 2.240 . S
Cd58 O59 2.240 1_554 S
Cd58 O66 2.223 . S
Cd58 O68 2.297 . S
Cd58 O69 2.439 . S
O59 Cd58 2.240 1_556 S
O59 C64 1.279 . S
O60 Cd57 2.297 1_556 S
O60 C62 1.247 . S
O61 Cd57 2.439 1_556 S
O61 C62 1.208 . S
C62 O60 1.247 . S
C62 O61 1.208 . S
C63 O68 1.247 . S
C63 O69 1.208 . S
C64 O56 1.315 . S
C64 O59 1.279 . S
C65 O66 1.315 . S
C65 O67 1.279 . S
O66 Cd58 2.223 . S
O66 C65 1.315 . S
O67 Cd57 2.240 . S
O67 C65 1.279 . S
O68 Cd58 2.297 . S
O68 C63 1.247 . S
O69 Cd58 2.439 . S
O69 C63 1.208 . S
O70 Cd71 2.223 1_545 S
O70 C78 1.315 . S
Cd71 O70 2.223 1_565 S
Cd71 O74 2.297 . S
Cd71 O75 2.439 1_565 S
Cd71 O81 2.240 1_565 S
Cd72 O73 2.240 . S
Cd72 O80 2.223 . S
Cd72 O82 2.297 . S
Cd72 O83 2.439 . S
O73 Cd72 2.240 . S
O73 C78 1.279 . S
O74 Cd71 2.297 . S
O74 C76 1.247 . S
O75 Cd71 2.439 1_545 S
O75 C76 1.208 1_545 S
C76 O74 1.247 . S
C76 O75 1.208 1_565 S
C77 O82 1.247 . S
C77 O83 1.208 . S
C78 O70 1.315 . S
C78 O73 1.279 . S
C79 O80 1.315 . S
C79 O81 1.279 . S
O80 Cd72 2.223 . S
O80 C79 1.315 . S
O81 Cd71 2.240 1_545 S
O81 C79 1.279 . S
O82 Cd72 2.297 . S
O82 C77 1.247 . S
O83 Cd72 2.439 . S
O83 C77 1.208 . S
O84 Cd85 2.223 . S
O84 C92 1.315 . S
Cd85 O84 2.223 . S
Cd85 O88 2.297 . S
Cd85 O89 2.439 . S
Cd85 O95 2.240 . S
Cd86 O87 2.240 . S
Cd86 O94 2.223 . S
Cd86 O96 2.297 . S
Cd86 O97 2.439 . S
O87 Cd86 2.240 . S
O87 C92 1.279 . S
O88 Cd85 2.297 . S
O88 C90 1.247 . S
O89 Cd85 2.439 . S
O89 C90 1.208 . S
C90 O88 1.247 . S
C90 O89 1.208 . S
C91 O96 1.247 . S
C91 O97 1.208 . S
C92 O84 1.315 . S
C92 O87 1.279 . S
C93 O94 1.315 . S
C93 O95 1.279 . S
O94 Cd86 2.223 . S
O94 C93 1.315 . S
O95 Cd85 2.240 . S
O95 C93 1.279 . S
O96 Cd86 2.297 . S
O96 C91 1.247 . S
O97 Cd86 2.439 . S
O97 C91 1.208 . S
O98 Cd99 2.223 . S
O98 C106 1.315 . S
Cd99 O98 2.223 . S
Cd99 O102 2.297 . S
Cd99 O103 2.439 . S
Cd99 O109 2.240 . S
Cd100 O101 2.240 . S
Cd100 O108 2.223 . S
Cd100 O110 2.297 . S
Cd100 O111 2.439 . S
O101 Cd100 2.240 . S
O101 C106 1.279 . S
O102 Cd99 2.297 . S
O102 C104 1.247 . S
O103 Cd99 2.439 . S
O103 C104 1.208 . S
C104 O102 1.247 . S
C104 O103 1.208 . S
C105 O110 1.247 . S
C105 O111 1.208 . S
C106 O98 1.315 . S
C106 O101 1.279 . S
C107 O108 1.315 . S
C107 O109 1.279 . S
O108 Cd100 2.223 . S
O108 C107 1.315 . S
O109 Cd99 2.240 . S
O109 C107 1.279 . S
O110 Cd100 2.297 . S
O110 C105 1.247 . S
O111 Cd100 2.439 . S
O111 C105 1.208 . S
O112 Cd113 2.223 . S
O112 C120 1.315 . S
Cd113 O112 2.223 . S
Cd113 O116 2.297 . S
Cd113 O117 2.439 . S
Cd113 O123 2.240 . S
Cd114 O115 2.240 . S
Cd114 O122 2.223 . S
Cd114 O124 2.297 . S
Cd114 O125 2.439 . S
O115 Cd114 2.240 . S
O115 C120 1.279 . S
O116 Cd113 2.297 . S
O116 C118 1.247 . S
O117 Cd113 2.439 . S
O117 C118 1.208 . S
C118 O116 1.247 . S
C118 O117 1.208 . S
C119 O124 1.247 . S
C119 O125 1.208 . S
C120 O112 1.315 . S
C120 O115 1.279 . S
C121 O122 1.315 . S
C121 O123 1.279 . S
O122 Cd114 2.223 . S
O122 C121 1.315 . S
O123 Cd113 2.240 . S
O123 C121 1.279 . S
O124 Cd114 2.297 . S
O124 C119 1.247 . S
O125 Cd114 2.439 . S
O125 C119 1.208 . S
O126 Cd127 2.223 . S
O126 C134 1.315 . S
Cd127 O126 2.223 . S
Cd127 O130 2.297 . S
Cd127 O131 2.439 . S
Cd127 O137 2.240 . S
Cd128 O129 2.240 . S
Cd128 O136 2.223 . S
Cd128 O138 2.297 . S
Cd128 O139 2.439 . S
O129 Cd128 2.240 . S
O129 C134 1.279 . S
O130 Cd127 2.297 . S
O130 C132 1.247 . S
O131 Cd127 2.439 . S
O131 C132 1.208 . S
C132 O130 1.247 . S
C132 O131 1.208 . S
C133 O138 1.247 . S
C133 O139 1.208 . S
C134 O126 1.315 . S
C134 O129 1.279 . S
C135 O136 1.315 . S
C135 O137 1.279 . S
O136 Cd128 2.223 . S
O136 C135 1.315 . S
O137 Cd127 2.240 . S
O137 C135 1.279 . S
O138 Cd128 2.297 . S
O138 C133 1.247 . S
O139 Cd128 2.439 . S
O139 C133 1.208 . S
O140 Cd141 2.223 1_556 S
O140 C148 1.315 . S
Cd141 O140 2.223 1_554 S
Cd141 O144 2.297 . S
Cd141 O145 2.439 . S
Cd141 O151 2.240 . S
Cd142 O143 2.240 . S
Cd142 O150 2.223 . S
Cd142 O152 2.297 . S
Cd142 O153 2.439 1_556 S
O143 Cd142 2.240 . S
O143 C148 1.279 . S
O144 Cd141 2.297 . S
O144 C146 1.247 . S
O145 Cd141 2.439 . S
O145 C146 1.208 . S
C146 O144 1.247 . S
C146 O145 1.208 . S
C147 O152 1.247 1_554 S
C147 O153 1.208 . S
C148 O140 1.315 . S
C148 O143 1.279 . S
C149 O150 1.315 . S
C149 O151 1.279 1_556 S
O150 Cd142 2.223 . S
O150 C149 1.315 . S
O151 Cd141 2.240 . S
O151 C149 1.279 1_554 S
O152 Cd142 2.297 . S
O152 C147 1.247 1_556 S
O153 Cd142 2.439 1_554 S
O153 C147 1.208 . S
O154 Cd155 2.223 . S
O154 C162 1.315 . S
Cd155 O154 2.223 . S
Cd155 O158 2.297 . S
Cd155 O159 2.439 . S
Cd155 O165 2.240 . S
Cd156 O157 2.240 . S
Cd156 O164 2.223 . S
Cd156 O166 2.297 . S
Cd156 O167 2.439 . S
O157 Cd156 2.240 . S
O157 C162 1.279 . S
O158 Cd155 2.297 . S
O158 C160 1.247 . S
O159 Cd155 2.439 . S
O159 C160 1.208 . S
C160 O158 1.247 . S
C160 O159 1.208 . S
C161 O166 1.247 . S
C161 O167 1.208 . S
C162 O154 1.315 . S
C162 O157 1.279 . S
C163 O164 1.315 . S
C163 O165 1.279 . S
O164 Cd156 2.223 . S
O164 C163 1.315 . S
O165 Cd155 2.240 . S
O165 C163 1.279 . S
O166 Cd156 2.297 . S
O166 C161 1.247 . S
O167 Cd156 2.439 . S
O167 C161 1.208 . S
O168 Cd169 2.223 . S
O168 C176 1.315 . S
Cd169 O168 2.223 . S
Cd169 O172 2.297 . S
Cd169 O173 2.439 . S
Cd169 O179 2.240 . S
Cd170 O171 2.240 . S
Cd170 O178 2.223 . S
Cd170 O180 2.297 . S
Cd170 O181 2.439 . S
O171 Cd170 2.240 . S
O171 C176 1.279 . S
O172 Cd169 2.297 . S
O172 C174 1.247 . S
O173 Cd169 2.439 . S
O173 C174 1.208 . S
C174 O172 1.247 . S
C174 O173 1.208 . S
C175 O180 1.247 . S
C175 O181 1.208 . S
C176 O168 1.315 . S
C176 O171 1.279 . S
C177 O178 1.315 . S
C177 O179 1.279 . S
O178 Cd170 2.223 . S
O178 C177 1.315 . S
O179 Cd169 2.240 . S
O179 C177 1.279 . S
O180 Cd170 2.297 . S
O180 C175 1.247 . S
O181 Cd170 2.439 . S
O181 C175 1.208 . S
O182 Cd183 2.223 . S
O182 C190 1.315 . S
Cd183 O182 2.223 . S
Cd183 O186 2.297 . S
Cd183 O187 2.439 . S
Cd183 O193 2.240 . S
Cd184 O185 2.240 . S
Cd184 O192 2.223 . S
Cd184 O194 2.297 . S
Cd184 O195 2.439 . S
O185 Cd184 2.240 . S
O185 C190 1.279 . S
O186 Cd183 2.297 . S
O186 C188 1.247 . S
O187 Cd183 2.439 . S
O187 C188 1.208 . S
C188 O186 1.247 . S
C188 O187 1.208 . S
C189 O194 1.247 . S
C189 O195 1.208 . S
C190 O182 1.315 . S
C190 O185 1.279 . S
C191 O192 1.315 . S
C191 O193 1.279 . S
O192 Cd184 2.223 . S
O192 C191 1.315 . S
O193 Cd183 2.240 . S
O193 C191 1.279 . S
O194 Cd184 2.297 . S
O194 C189 1.247 . S
O195 Cd184 2.439 . S
O195 C189 1.208 . S
O196 Cd197 2.223 1_556 S
O196 C204 1.315 . S
Cd197 O196 2.223 1_554 S
Cd197 O200 2.297 1_554 S
Cd197 O201 2.439 1_554 S
Cd197 O207 2.240 . S
Cd198 O199 2.240 1_554 S
Cd198 O206 2.223 . S
Cd198 O208 2.297 . S
Cd198 O209 2.439 . S
O199 Cd198 2.240 1_556 S
O199 C204 1.279 . S
O200 Cd197 2.297 1_556 S
O200 C202 1.247 . S
O201 Cd197 2.439 1_556 S
O201 C202 1.208 . S
C202 O200 1.247 . S
C202 O201 1.208 . S
C203 O208 1.247 . S
C203 O209 1.208 . S
C204 O196 1.315 . S
C204 O199 1.279 . S
C205 O206 1.315 . S
C205 O207 1.279 . S
O206 Cd198 2.223 . S
O206 C205 1.315 . S
O207 Cd197 2.240 . S
O207 C205 1.279 . S
O208 Cd198 2.297 . S
O208 C203 1.247 . S
O209 Cd198 2.439 . S
O209 C203 1.208 . S
O210 Cd211 2.223 . S
O210 C218 1.315 . S
Cd211 O210 2.223 . S
Cd211 O214 2.297 . S
Cd211 O215 2.439 . S
Cd211 O221 2.240 . S
Cd212 O213 2.240 . S
Cd212 O220 2.223 . S
Cd212 O222 2.297 . S
Cd212 O223 2.439 . S
O213 Cd212 2.240 . S
O213 C218 1.279 . S
O214 Cd211 2.297 . S
O214 C216 1.247 . S
O215 Cd211 2.439 . S
O215 C216 1.208 . S
C216 O214 1.247 . S
C216 O215 1.208 . S
C217 O222 1.247 . S
C217 O223 1.208 . S
C218 O210 1.315 . S
C218 O213 1.279 . S
C219 O220 1.315 . S
C219 O221 1.279 . S
O220 Cd212 2.223 . S
O220 C219 1.315 . S
O221 Cd211 2.240 . S
O221 C219 1.279 . S
O222 Cd212 2.297 . S
O222 C217 1.247 . S
O223 Cd212 2.439 . S
O223 C217 1.208 . S
H224 C236 0.930 . S
H225 C238 0.930 . S
H226 C239 0.930 . S
H227 C243 0.959 . S
H228 C243 0.959 . S
H229 C243 0.961 . S
H230 C244 0.960 . S
H231 C244 0.961 . S
H232 C244 0.959 . S
H233 C247 0.929 . S
H234 C248 0.931 . S
H235 C250 0.930 . S
C236 H224 0.930 . S
C236 C237 1.399 . S
C236 C241 1.399 . S
C237 C236 1.399 . S
C237 C238 1.376 . S
C238 H225 0.930 . S
C238 C237 1.376 . S
C238 C239 1.388 . S
C239 H226 0.930 . S
C239 C238 1.388 . S
C239 C240 1.390 . S
C240 C239 1.390 . S
C240 C241 1.394 . S
C240 C246 1.465 . S
C241 C236 1.399 . S
C241 C240 1.394 . S
C241 C242 1.516 . S
C242 C241 1.516 . S
C242 C243 1.502 . S
C242 C244 1.561 . S
C242 C245 1.526 . S
C243 H227 0.959 . S
C243 H228 0.959 . S
C243 H229 0.961 . S
C243 C242 1.502 . S
C244 H230 0.960 . S
C244 H231 0.961 . S
C244 H232 0.959 . S
C244 C242 1.561 . S
C245 C242 1.526 . S
C245 C246 1.396 . S
C245 C250 1.390 . S
C246 C240 1.465 . S
C246 C245 1.396 . S
C246 C247 1.399 . S
C247 H233 0.929 . S
C247 C246 1.399 . S
C247 C248 1.385 . S
C248 H234 0.931 . S
C248 C247 1.385 . S
C248 C249 1.389 . S
C249 C248 1.389 . S
C249 C250 1.387 . S
C250 H235 0.930 . S
C250 C245 1.390 . S
C250 C249 1.387 . S
H251 C263 0.930 . S
H252 C265 0.930 1_565 S
H253 C266 0.930 1_565 S
H254 C270 0.959 . S
H255 C270 0.959 . S
H256 C270 0.961 . S
H257 C271 0.960 . S
H258 C271 0.961 . S
H259 C271 0.959 . S
H260 C274 0.929 1_665 S
H261 C275 0.931 1_565 S
H262 C277 0.930 . S
C263 H251 0.930 . S
C263 C264 1.399 . S
C263 C268 1.399 . S
C264 C263 1.399 . S
C264 C265 1.376 . S
C265 H252 0.930 1_545 S
C265 C264 1.376 . S
C265 C266 1.388 . S
C266 H253 0.930 1_545 S
C266 C265 1.388 . S
C266 C267 1.390 . S
C267 C266 1.390 . S
C267 C268 1.394 . S
C267 C273 1.465 . S
C268 C263 1.399 . S
C268 C267 1.394 . S
C268 C269 1.516 . S
C269 C268 1.516 . S
C269 C270 1.502 1_655 S
C269 C271 1.561 . S
C269 C272 1.526 1_655 S
C270 H254 0.959 . S
C270 H255 0.959 . S
C270 H256 0.961 . S
C270 C269 1.502 1_455 S
C271 H257 0.960 . S
C271 H258 0.961 . S
C271 H259 0.959 . S
C271 C269 1.561 . S
C272 C269 1.526 1_455 S
C272 C273 1.396 1_455 S
C272 C277 1.390 . S
C273 C267 1.465 . S
C273 C272 1.396 1_655 S
C273 C274 1.399 1_655 S
C274 H260 0.929 1_445 S
C274 C273 1.399 1_455 S
C274 C275 1.385 . S
C275 H261 0.931 1_545 S
C275 C274 1.385 . S
C275 C276 1.389 . S
C276 C275 1.389 . S
C276 C277 1.387 . S
C277 H262 0.930 . S
C277 C272 1.390 . S
C277 C276 1.387 . S
H278 C290 0.930 . S
H279 C292 0.930 . S
H280 C293 0.930 . S
H281 C297 0.959 . S
H282 C297 0.959 . S
H283 C297 0.961 . S
H284 C298 0.960 . S
H285 C298 0.961 . S
H286 C298 0.959 . S
H287 C301 0.929 . S
H288 C302 0.931 . S
H289 C304 0.930 . S
C290 H278 0.930 . S
C290 C291 1.399 . S
C290 C295 1.399 . S
C291 C290 1.399 . S
C291 C292 1.376 . S
C292 H279 0.930 . S
C292 C291 1.376 . S
C292 C293 1.388 . S
C293 H280 0.930 . S
C293 C292 1.388 . S
C293 C294 1.390 . S
C294 C293 1.390 . S
C294 C295 1.394 . S
C294 C300 1.465 . S
C295 C290 1.399 . S
C295 C294 1.394 . S
C295 C296 1.516 . S
C296 C295 1.516 . S
C296 C297 1.502 . S
C296 C298 1.561 . S
C296 C299 1.526 . S
C297 H281 0.959 . S
C297 H282 0.959 . S
C297 H283 0.961 . S
C297 C296 1.502 . S
C298 H284 0.960 . S
C298 H285 0.961 . S
C298 H286 0.959 . S
C298 C296 1.561 . S
C299 C296 1.526 . S
C299 C300 1.396 . S
C299 C304 1.390 . S
C300 C294 1.465 . S
C300 C299 1.396 . S
C300 C301 1.399 . S
C301 H287 0.929 . S
C301 C300 1.399 . S
C301 C302 1.385 . S
C302 H288 0.931 . S
C302 C301 1.385 . S
C302 C303 1.389 . S
C303 C302 1.389 . S
C303 C304 1.387 . S
C304 H289 0.930 . S
C304 C299 1.390 . S
C304 C303 1.387 . S
H305 C317 0.930 . S
H306 C319 0.930 . S
H307 C320 0.930 . S
H308 C324 0.959 . S
H309 C324 0.959 . S
H310 C324 0.961 . S
H311 C325 0.960 . S
H312 C325 0.961 1_556 S
H313 C325 0.959 . S
H314 C328 0.929 . S
H315 C329 0.931 . S
H316 C331 0.930 . S
C317 H305 0.930 . S
C317 C318 1.399 . S
C317 C322 1.399 . S
C318 C317 1.399 . S
C318 C319 1.376 . S
C319 H306 0.930 . S
C319 C318 1.376 . S
C319 C320 1.388 . S
C320 H307 0.930 . S
C320 C319 1.388 . S
C320 C321 1.390 . S
C321 C320 1.390 . S
C321 C322 1.394 . S
C321 C327 1.465 1_554 S
C322 C317 1.399 . S
C322 C321 1.394 . S
C322 C323 1.516 1_554 S
C323 C322 1.516 1_556 S
C323 C324 1.502 . S
C323 C325 1.561 1_556 S
C323 C326 1.526 . S
C324 H308 0.959 . S
C324 H309 0.959 . S
C324 H310 0.961 . S
C324 C323 1.502 . S
C325 H311 0.960 . S
C325 H312 0.961 1_554 S
C325 H313 0.959 . S
C325 C323 1.561 1_554 S
C326 C323 1.526 . S
C326 C327 1.396 . S
C326 C331 1.390 . S
C327 C321 1.465 1_556 S
C327 C326 1.396 . S
C327 C328 1.399 . S
C328 H314 0.929 . S
C328 C327 1.399 . S
C328 C329 1.385 . S
C329 H315 0.931 . S
C329 C328 1.385 . S
C329 C330 1.389 . S
C330 C329 1.389 . S
C330 C331 1.387 . S
C331 H316 0.930 . S
C331 C326 1.390 . S
C331 C330 1.387 . S
H332 C344 0.930 . S
H333 C346 0.930 . S
H334 C347 0.930 . S
H335 C351 0.959 . S
H336 C351 0.959 . S
H337 C351 0.961 . S
H338 C352 0.960 . S
H339 C352 0.961 . S
H340 C352 0.959 . S
H341 C355 0.929 . S
H342 C356 0.931 . S
H343 C358 0.930 . S
C344 H332 0.930 . S
C344 C345 1.399 . S
C344 C349 1.399 . S
C345 C344 1.399 . S
C345 C346 1.376 . S
C346 H333 0.930 . S
C346 C345 1.376 . S
C346 C347 1.388 . S
C347 H334 0.930 . S
C347 C346 1.388 . S
C347 C348 1.390 . S
C348 C347 1.390 . S
C348 C349 1.394 . S
C348 C354 1.465 . S
C349 C344 1.399 . S
C349 C348 1.394 . S
C349 C350 1.516 . S
C350 C349 1.516 . S
C350 C351 1.502 . S
C350 C352 1.561 . S
C350 C353 1.526 . S
C351 H335 0.959 . S
C351 H336 0.959 . S
C351 H337 0.961 . S
C351 C350 1.502 . S
C352 H338 0.960 . S
C352 H339 0.961 . S
C352 H340 0.959 . S
C352 C350 1.561 . S
C353 C350 1.526 . S
C353 C354 1.396 . S
C353 C358 1.390 . S
C354 C348 1.465 . S
C354 C353 1.396 . S
C354 C355 1.399 . S
C355 H341 0.929 . S
C355 C354 1.399 . S
C355 C356 1.385 . S
C356 H342 0.931 . S
C356 C355 1.385 . S
C356 C357 1.389 . S
C357 C356 1.389 . S
C357 C358 1.387 . S
C358 H343 0.930 . S
C358 C353 1.390 . S
C358 C357 1.387 . S
H359 C371 0.930 . S
H360 C373 0.930 . S
H361 C374 0.930 . S
H362 C378 0.959 . S
H363 C378 0.959 . S
H364 C378 0.961 . S
H365 C379 0.960 . S
H366 C379 0.961 . S
H367 C379 0.959 . S
H368 C382 0.929 . S
H369 C383 0.931 . S
H370 C385 0.930 . S
C371 H359 0.930 . S
C371 C372 1.399 . S
C371 C376 1.399 . S
C372 C371 1.399 . S
C372 C373 1.376 . S
C373 H360 0.930 . S
C373 C372 1.376 . S
C373 C374 1.388 . S
C374 H361 0.930 . S
C374 C373 1.388 . S
C374 C375 1.390 . S
C375 C374 1.390 . S
C375 C376 1.394 . S
C375 C381 1.465 . S
C376 C371 1.399 . S
C376 C375 1.394 . S
C376 C377 1.516 . S
C377 C376 1.516 . S
C377 C378 1.502 . S
C377 C379 1.561 . S
C377 C380 1.526 . S
C378 H362 0.959 . S
C378 H363 0.959 . S
C378 H364 0.961 . S
C378 C377 1.502 . S
C379 H365 0.960 . S
C379 H366 0.961 . S
C379 H367 0.959 . S
C379 C377 1.561 . S
C380 C377 1.526 . S
C380 C381 1.396 . S
C380 C385 1.390 . S
C381 C375 1.465 . S
C381 C380 1.396 . S
C381 C382 1.399 . S
C382 H368 0.929 . S
C382 C381 1.399 . S
C382 C383 1.385 . S
C383 H369 0.931 . S
C383 C382 1.385 . S
C383 C384 1.389 . S
C384 C383 1.389 . S
C384 C385 1.387 . S
C385 H370 0.930 . S
C385 C380 1.390 . S
C385 C384 1.387 . S
H386 C398 0.930 . S
H387 C400 0.930 . S
H388 C401 0.930 . S
H389 C405 0.959 . S
H390 C405 0.959 . S
H391 C405 0.961 . S
H392 C406 0.960 . S
H393 C406 0.961 . S
H394 C406 0.959 . S
H395 C409 0.929 . S
H396 C410 0.931 . S
H397 C412 0.930 . S
C398 H386 0.930 . S
C398 C399 1.399 . S
C398 C403 1.399 . S
C399 C398 1.399 . S
C399 C400 1.376 . S
C400 H387 0.930 . S
C400 C399 1.376 . S
C400 C401 1.388 . S
C401 H388 0.930 . S
C401 C400 1.388 . S
C401 C402 1.390 . S
C402 C401 1.390 . S
C402 C403 1.394 . S
C402 C408 1.465 . S
C403 C398 1.399 . S
C403 C402 1.394 . S
C403 C404 1.516 . S
C404 C403 1.516 . S
C404 C405 1.502 . S
C404 C406 1.561 . S
C404 C407 1.526 . S
C405 H389 0.959 . S
C405 H390 0.959 . S
C405 H391 0.961 . S
C405 C404 1.502 . S
C406 H392 0.960 . S
C406 H393 0.961 . S
C406 H394 0.959 . S
C406 C404 1.561 . S
C407 C404 1.526 . S
C407 C408 1.396 . S
C407 C412 1.390 . S
C408 C402 1.465 . S
C408 C407 1.396 . S
C408 C409 1.399 . S
C409 H395 0.929 . S
C409 C408 1.399 . S
C409 C410 1.385 . S
C410 H396 0.931 . S
C410 C409 1.385 . S
C410 C411 1.389 . S
C411 C410 1.389 . S
C411 C412 1.387 . S
C412 H397 0.930 . S
C412 C407 1.390 . S
C412 C411 1.387 . S
H413 C425 0.930 1_565 S
H414 C427 0.930 . S
H415 C428 0.930 . S
H416 C432 0.959 1_545 S
H417 C432 0.959 . S
H418 C432 0.961 . S
H419 C433 0.960 . S
H420 C433 0.961 1_654 S
H421 C433 0.959 1_554 S
H422 C436 0.929 1_455 S
H423 C437 0.931 . S
H424 C439 0.930 . S
C425 H413 0.930 1_545 S
C425 C426 1.399 . S
C425 C430 1.399 . S
C426 C425 1.399 . S
C426 C427 1.376 . S
C427 H414 0.930 . S
C427 C426 1.376 . S
C427 C428 1.388 . S
C428 H415 0.930 . S
C428 C427 1.388 . S
C428 C429 1.390 . S
C429 C428 1.390 . S
C429 C430 1.394 . S
C429 C435 1.465 1_455 S
C430 C425 1.399 . S
C430 C429 1.394 . S
C430 C431 1.516 1_455 S
C431 C430 1.516 1_655 S
C431 C432 1.502 1_545 S
C431 C433 1.561 1_645 S
C431 C434 1.526 . S
C432 H416 0.959 1_565 S
C432 H417 0.959 . S
C432 H418 0.961 . S
C432 C431 1.502 1_565 S
C433 H419 0.960 . S
C433 H420 0.961 1_456 S
C433 H421 0.959 1_556 S
C433 C431 1.561 1_465 S
C434 C431 1.526 . S
C434 C435 1.396 . S
C434 C439 1.390 1_556 S
C435 C429 1.465 1_655 S
C435 C434 1.396 . S
C435 C436 1.399 1_556 S
C436 H422 0.929 1_655 S
C436 C435 1.399 1_554 S
C436 C437 1.385 . S
C437 H423 0.931 . S
C437 C436 1.385 . S
C437 C438 1.389 . S
C438 C437 1.389 . S
C438 C439 1.387 . S
C439 H424 0.930 . S
C439 C434 1.390 1_554 S
C439 C438 1.387 . S
H440 C452 0.930 . S
H441 C454 0.930 . S
H442 C455 0.930 . S
H443 C459 0.959 . S
H444 C459 0.959 . S
H445 C459 0.961 . S
H446 C460 0.960 . S
H447 C460 0.961 . S
H448 C460 0.959 . S
H449 C463 0.929 . S
H450 C464 0.931 . S
H451 C466 0.930 . S
C452 H440 0.930 . S
C452 C453 1.399 . S
C452 C457 1.399 . S
C453 C452 1.399 . S
C453 C454 1.376 . S
C454 H441 0.930 . S
C454 C453 1.376 . S
C454 C455 1.388 . S
C455 H442 0.930 . S
C455 C454 1.388 . S
C455 C456 1.390 . S
C456 C455 1.390 . S
C456 C457 1.394 . S
C456 C462 1.465 . S
C457 C452 1.399 . S
C457 C456 1.394 . S
C457 C458 1.516 . S
C458 C457 1.516 . S
C458 C459 1.502 . S
C458 C460 1.561 . S
C458 C461 1.526 . S
C459 H443 0.959 . S
C459 H444 0.959 . S
C459 H445 0.961 . S
C459 C458 1.502 . S
C460 H446 0.960 . S
C460 H447 0.961 . S
C460 H448 0.959 . S
C460 C458 1.561 . S
C461 C458 1.526 . S
C461 C462 1.396 . S
C461 C466 1.390 . S
C462 C456 1.465 . S
C462 C461 1.396 . S
C462 C463 1.399 . S
C463 H449 0.929 . S
C463 C462 1.399 . S
C463 C464 1.385 . S
C464 H450 0.931 . S
C464 C463 1.385 . S
C464 C465 1.389 . S
C465 C464 1.389 . S
C465 C466 1.387 . S
C466 H451 0.930 . S
C466 C461 1.390 . S
C466 C465 1.387 . S
H467 C479 0.930 . S
H468 C481 0.930 . S
H469 C482 0.930 . S
H470 C486 0.959 . S
H471 C486 0.959 . S
H472 C486 0.961 . S
H473 C487 0.960 . S
H474 C487 0.961 . S
H475 C487 0.959 . S
H476 C490 0.929 . S
H477 C491 0.931 . S
H478 C493 0.930 . S
C479 H467 0.930 . S
C479 C480 1.399 . S
C479 C484 1.399 . S
C480 C479 1.399 . S
C480 C481 1.376 . S
C481 H468 0.930 . S
C481 C480 1.376 . S
C481 C482 1.388 . S
C482 H469 0.930 . S
C482 C481 1.388 . S
C482 C483 1.390 . S
C483 C482 1.390 . S
C483 C484 1.394 . S
C483 C489 1.465 . S
C484 C479 1.399 . S
C484 C483 1.394 . S
C484 C485 1.516 . S
C485 C484 1.516 . S
C485 C486 1.502 . S
C485 C487 1.561 . S
C485 C488 1.526 . S
C486 H470 0.959 . S
C486 H471 0.959 . S
C486 H472 0.961 . S
C486 C485 1.502 . S
C487 H473 0.960 . S
C487 H474 0.961 . S
C487 H475 0.959 . S
C487 C485 1.561 . S
C488 C485 1.526 . S
C488 C489 1.396 . S
C488 C493 1.390 . S
C489 C483 1.465 . S
C489 C488 1.396 . S
C489 C490 1.399 . S
C490 H476 0.929 . S
C490 C489 1.399 . S
C490 C491 1.385 . S
C491 H477 0.931 . S
C491 C490 1.385 . S
C491 C492 1.389 . S
C492 C491 1.389 . S
C492 C493 1.387 . S
C493 H478 0.930 . S
C493 C488 1.390 . S
C493 C492 1.387 . S
H494 C506 0.930 . S
H495 C508 0.930 . S
H496 C509 0.930 . S
H497 C513 0.959 . S
H498 C513 0.959 . S
H499 C513 0.961 . S
H500 C514 0.960 . S
H501 C514 0.961 . S
H502 C514 0.959 . S
H503 C517 0.929 . S
H504 C518 0.931 . S
H505 C520 0.930 . S
C506 H494 0.930 . S
C506 C507 1.399 . S
C506 C511 1.399 . S
C507 C506 1.399 . S
C507 C508 1.376 . S
C508 H495 0.930 . S
C508 C507 1.376 . S
C508 C509 1.388 . S
C509 H496 0.930 . S
C509 C508 1.388 . S
C509 C510 1.390 . S
C510 C509 1.390 . S
C510 C511 1.394 . S
C510 C516 1.465 . S
C511 C506 1.399 . S
C511 C510 1.394 . S
C511 C512 1.516 . S
C512 C511 1.516 . S
C512 C513 1.502 . S
C512 C514 1.561 . S
C512 C515 1.526 . S
C513 H497 0.959 . S
C513 H498 0.959 . S
C513 H499 0.961 . S
C513 C512 1.502 . S
C514 H500 0.960 . S
C514 H501 0.961 . S
C514 H502 0.959 . S
C514 C512 1.561 . S
C515 C512 1.526 . S
C515 C516 1.396 . S
C515 C520 1.390 . S
C516 C510 1.465 . S
C516 C515 1.396 . S
C516 C517 1.399 . S
C517 H503 0.929 . S
C517 C516 1.399 . S
C517 C518 1.385 . S
C518 H504 0.931 . S
C518 C517 1.385 . S
C518 C519 1.389 . S
C519 C518 1.389 . S
C519 C520 1.387 . S
C520 H505 0.930 . S
C520 C515 1.390 . S
C520 C519 1.387 . S
H521 C533 0.930 . S
H522 C535 0.930 . S
H523 C536 0.930 . S
H524 C540 0.959 . S
H525 C540 0.959 . S
H526 C540 0.961 . S
H527 C541 0.960 . S
H528 C541 0.961 . S
H529 C541 0.959 . S
H530 C544 0.929 . S
H531 C545 0.931 . S
H532 C547 0.930 . S
C533 H521 0.930 . S
C533 C534 1.399 . S
C533 C538 1.399 . S
C534 C533 1.399 . S
C534 C535 1.376 . S
C535 H522 0.930 . S
C535 C534 1.376 . S
C535 C536 1.388 . S
C536 H523 0.930 . S
C536 C535 1.388 . S
C536 C537 1.390 . S
C537 C536 1.390 . S
C537 C538 1.394 . S
C537 C543 1.465 . S
C538 C533 1.399 . S
C538 C537 1.394 . S
C538 C539 1.516 . S
C539 C538 1.516 . S
C539 C540 1.502 . S
C539 C541 1.561 . S
C539 C542 1.526 . S
C540 H524 0.959 . S
C540 H525 0.959 . S
C540 H526 0.961 . S
C540 C539 1.502 . S
C541 H527 0.960 . S
C541 H528 0.961 . S
C541 H529 0.959 . S
C541 C539 1.561 . S
C542 C539 1.526 . S
C542 C543 1.396 . S
C542 C547 1.390 . S
C543 C537 1.465 . S
C543 C542 1.396 . S
C543 C544 1.399 . S
C544 H530 0.929 . S
C544 C543 1.399 . S
C544 C545 1.385 . S
C545 H531 0.931 . S
C545 C544 1.385 . S
C545 C546 1.389 . S
C546 C545 1.389 . S
C546 C547 1.387 . S
C547 H532 0.930 . S
C547 C542 1.390 . S
C547 C546 1.387 . S
H548 C560 0.930 . S
H549 C562 0.930 . S
H550 C563 0.930 . S
H551 C567 0.959 . S
H552 C567 0.959 . S
H553 C567 0.961 . S
H554 C568 0.960 1_554 S
H555 C568 0.961 . S
H556 C568 0.959 1_554 S
H557 C571 0.929 . S
H558 C572 0.931 . S
H559 C574 0.930 . S
C560 H548 0.930 . S
C560 C561 1.399 . S
C560 C565 1.399 . S
C561 C560 1.399 . S
C561 C562 1.376 . S
C562 H549 0.930 . S
C562 C561 1.376 . S
C562 C563 1.388 . S
C563 H550 0.930 . S
C563 C562 1.388 . S
C563 C564 1.390 . S
C564 C563 1.390 . S
C564 C565 1.394 . S
C564 C570 1.465 1_554 S
C565 C560 1.399 . S
C565 C564 1.394 . S
C565 C566 1.516 1_554 S
C566 C565 1.516 1_556 S
C566 C567 1.502 . S
C566 C568 1.561 . S
C566 C569 1.526 . S
C567 H551 0.959 . S
C567 H552 0.959 . S
C567 H553 0.961 . S
C567 C566 1.502 . S
C568 H554 0.960 1_556 S
C568 H555 0.961 . S
C568 H556 0.959 1_556 S
C568 C566 1.561 . S
C569 C566 1.526 . S
C569 C570 1.396 . S
C569 C574 1.390 . S
C570 C564 1.465 1_556 S
C570 C569 1.396 . S
C570 C571 1.399 . S
C571 H557 0.929 . S
C571 C570 1.399 . S
C571 C572 1.385 . S
C572 H558 0.931 . S
C572 C571 1.385 . S
C572 C573 1.389 . S
C573 C572 1.389 . S
C573 C574 1.387 . S
C574 H559 0.930 . S
C574 C569 1.390 . S
C574 C573 1.387 . S
H575 C587 0.930 . S
H576 C589 0.930 . S
H577 C590 0.930 . S
H578 C594 0.959 . S
H579 C594 0.959 . S
H580 C594 0.961 . S
H581 C595 0.960 . S
H582 C595 0.961 . S
H583 C595 0.959 1_655 S
H584 C598 0.929 . S
H585 C599 0.931 . S
H586 C601 0.930 . S
C587 H575 0.930 . S
C587 C588 1.399 . S
C587 C592 1.399 . S
C588 C587 1.399 . S
C588 C589 1.376 . S
C589 H576 0.930 . S
C589 C588 1.376 . S
C589 C590 1.388 . S
C590 H577 0.930 . S
C590 C589 1.388 . S
C590 C591 1.390 . S
C591 C590 1.390 . S
C591 C592 1.394 . S
C591 C597 1.465 1_455 S
C592 C587 1.399 . S
C592 C591 1.394 . S
C592 C593 1.516 . S
C593 C592 1.516 . S
C593 C594 1.502 . S
C593 C595 1.561 . S
C593 C596 1.526 1_455 S
C594 H578 0.959 . S
C594 H579 0.959 . S
C594 H580 0.961 . S
C594 C593 1.502 . S
C595 H581 0.960 . S
C595 H582 0.961 . S
C595 H583 0.959 1_455 S
C595 C593 1.561 . S
C596 C593 1.526 1_655 S
C596 C597 1.396 . S
C596 C601 1.390 . S
C597 C591 1.465 1_655 S
C597 C596 1.396 . S
C597 C598 1.399 . S
C598 H584 0.929 . S
C598 C597 1.399 . S
C598 C599 1.385 . S
C599 H585 0.931 . S
C599 C598 1.385 . S
C599 C600 1.389 . S
C600 C599 1.389 . S
C600 C601 1.387 . S
C601 H586 0.930 . S
C601 C596 1.390 . S
C601 C600 1.387 . S
H602 C614 0.930 . S
H603 C616 0.930 . S
H604 C617 0.952 . S
H605 C621 0.959 . S
H606 C621 0.959 . S
H607 C621 0.961 . S
H608 C622 0.960 . S
H609 C622 0.961 . S
H610 C622 0.959 . S
H611 C625 0.929 . S
H612 C626 0.931 . S
H613 C628 0.930 . S
C614 H602 0.930 . S
C614 C615 1.399 . S
C614 C619 1.399 1_554 S
C615 C614 1.399 . S
C615 C616 1.376 . S
C616 H603 0.930 . S
C616 C615 1.376 . S
C616 C617 1.369 1_455 S
C617 H604 0.952 . S
C617 C616 1.369 1_655 S
C617 C618 1.387 1_655 S
C618 C617 1.387 1_455 S
C618 C619 1.394 1_554 S
C618 C624 1.465 1_454 S
C619 C614 1.399 1_556 S
C619 C618 1.394 1_556 S
C619 C620 1.516 . S
C620 C619 1.516 . S
C620 C621 1.502 . S
C620 C622 1.561 . S
C620 C623 1.526 1_455 S
C621 H605 0.959 . S
C621 H606 0.959 . S
C621 H607 0.961 . S
C621 C620 1.502 . S
C622 H608 0.960 . S
C622 H609 0.961 . S
C622 H610 0.959 . S
C622 C620 1.561 . S
C623 C620 1.526 1_655 S
C623 C624 1.396 . S
C623 C628 1.390 . S
C624 C618 1.465 1_656 S
C624 C623 1.396 . S
C624 C625 1.399 . S
C625 H611 0.929 . S
C625 C624 1.399 . S
C625 C626 1.385 . S
C626 H612 0.931 . S
C626 C625 1.385 . S
C626 C627 1.389 . S
C627 C626 1.389 . S
C627 C628 1.387 . S
C628 H613 0.930 . S
C628 C623 1.390 . S
C628 C627 1.387 . S
H629 C641 0.930 . S
H630 C643 0.930 . S
H631 C644 0.930 . S
H632 C648 0.959 . S
H633 C648 0.959 . S
H634 C648 0.961 . S
H635 C649 0.960 . S
H636 C649 0.961 . S
H637 C649 0.959 . S
H638 C652 0.929 . S
H639 C653 0.931 . S
H640 C655 0.930 . S
C641 H629 0.930 . S
C641 C642 1.399 . S
C641 C646 1.399 . S
C642 C641 1.399 . S
C642 C643 1.376 . S
C643 H630 0.930 . S
C643 C642 1.376 . S
C643 C644 1.388 . S
C644 H631 0.930 . S
C644 C643 1.388 . S
C644 C645 1.390 . S
C645 C644 1.390 . S
C645 C646 1.394 . S
C645 C651 1.465 . S
C646 C641 1.399 . S
C646 C645 1.394 . S
C646 C647 1.516 . S
C647 C646 1.516 . S
C647 C648 1.502 . S
C647 C649 1.561 . S
C647 C650 1.526 . S
C648 H632 0.959 . S
C648 H633 0.959 . S
C648 H634 0.961 . S
C648 C647 1.502 . S
C649 H635 0.960 . S
C649 H636 0.961 . S
C649 H637 0.959 . S
C649 C647 1.561 . S
C650 C647 1.526 . S
C650 C651 1.396 . S
C650 C655 1.390 . S
C651 C645 1.465 . S
C651 C650 1.396 . S
C651 C652 1.399 . S
C652 H638 0.929 . S
C652 C651 1.399 . S
C652 C653 1.385 . S
C653 H639 0.931 . S
C653 C652 1.385 . S
C653 C654 1.389 . S
C654 C653 1.389 . S
C654 C655 1.387 . S
C655 H640 0.930 . S
C655 C650 1.390 . S
C655 C654 1.387 . S
H656 C668 0.930 . S
H657 C670 0.930 . S
H658 C671 0.930 . S
H659 C675 0.959 . S
H660 C675 0.959 1_556 S
H661 C675 0.961 . S
H662 C676 0.960 . S
H663 C676 0.961 1_556 S
H664 C676 0.959 . S
H665 C679 0.929 . S
H666 C680 0.931 . S
H667 C682 0.930 . S
C668 H656 0.930 . S
C668 C669 1.399 . S
C668 C673 1.399 . S
C669 C668 1.399 . S
C669 C670 1.376 . S
C670 H657 0.930 . S
C670 C669 1.376 . S
C670 C671 1.388 . S
C671 H658 0.930 . S
C671 C670 1.388 . S
C671 C672 1.390 . S
C672 C671 1.390 . S
C672 C673 1.394 . S
C672 C678 1.465 . S
C673 C668 1.399 . S
C673 C672 1.394 . S
C673 C674 1.516 . S
C674 C673 1.516 . S
C674 C675 1.502 . S
C674 C676 1.561 . S
C674 C677 1.526 . S
C675 H659 0.959 . S
C675 H660 0.959 1_554 S
C675 H661 0.961 . S
C675 C674 1.502 . S
C676 H662 0.960 . S
C676 H663 0.961 1_554 S
C676 H664 0.959 . S
C676 C674 1.561 . S
C677 C674 1.526 . S
C677 C678 1.396 . S
C677 C682 1.390 . S
C678 C672 1.465 . S
C678 C677 1.396 . S
C678 C679 1.399 . S
C679 H665 0.929 . S
C679 C678 1.399 . S
C679 C680 1.385 . S
C680 H666 0.931 . S
C680 C679 1.385 . S
C680 C681 1.389 . S
C681 C680 1.389 . S
C681 C682 1.387 . S
C682 H667 0.930 . S
C682 C677 1.390 . S
C682 C681 1.387 . S
H683 C695 0.930 . S
H684 C697 0.930 . S
H685 C698 0.930 . S
H686 C702 0.959 . S
H687 C702 0.959 . S
H688 C702 0.961 . S
H689 C703 0.960 . S
H690 C703 0.961 . S
H691 C703 0.959 . S
H692 C706 0.929 1_545 S
H693 C707 0.931 . S
H694 C709 0.930 . S
C695 H683 0.930 . S
C695 C696 1.399 . S
C695 C700 1.399 . S
C696 C695 1.399 . S
C696 C697 1.376 . S
C697 H684 0.930 . S
C697 C696 1.376 . S
C697 C698 1.388 . S
C698 H685 0.930 . S
C698 C697 1.388 . S
C698 C699 1.390 . S
C699 C698 1.390 . S
C699 C700 1.394 . S
C699 C705 1.465 . S
C700 C695 1.399 . S
C700 C699 1.394 . S
C700 C701 1.516 . S
C701 C700 1.516 . S
C701 C702 1.502 . S
C701 C703 1.561 . S
C701 C704 1.526 . S
C702 H686 0.959 . S
C702 H687 0.959 . S
C702 H688 0.961 . S
C702 C701 1.502 . S
C703 H689 0.960 . S
C703 H690 0.961 . S
C703 H691 0.959 . S
C703 C701 1.561 . S
C704 C701 1.526 . S
C704 C705 1.396 . S
C704 C709 1.390 . S
C705 C699 1.465 . S
C705 C704 1.396 . S
C705 C706 1.399 . S
C706 H692 0.929 1_565 S
C706 C705 1.399 . S
C706 C707 1.385 1_565 S
C707 H693 0.931 . S
C707 C706 1.385 1_545 S
C707 C708 1.389 1_545 S
C708 C707 1.389 1_565 S
C708 C709 1.387 . S
C709 H694 0.930 . S
C709 C704 1.390 . S
C709 C708 1.387 . S
H710 C722 0.930 . S
H711 C724 0.930 . S
H712 C725 0.930 . S
H713 C729 0.959 . S
H714 C729 0.959 . S
H715 C729 0.961 . S
H716 C730 0.960 . S
H717 C730 0.961 . S
H718 C730 0.959 . S
H719 C733 0.929 . S
H720 C734 0.931 . S
H721 C736 0.930 . S
C722 H710 0.930 . S
C722 C723 1.399 . S
C722 C727 1.399 . S
C723 C722 1.399 . S
C723 C724 1.376 . S
C724 H711 0.930 . S
C724 C723 1.376 . S
C724 C725 1.388 . S
C725 H712 0.930 . S
C725 C724 1.388 . S
C725 C726 1.390 . S
C726 C725 1.390 . S
C726 C727 1.394 . S
C726 C732 1.465 . S
C727 C722 1.399 . S
C727 C726 1.394 . S
C727 C728 1.516 . S
C728 C727 1.516 . S
C728 C729 1.502 . S
C728 C730 1.561 . S
C728 C731 1.526 . S
C729 H713 0.959 . S
C729 H714 0.959 . S
C729 H715 0.961 . S
C729 C728 1.502 . S
C730 H716 0.960 . S
C730 H717 0.961 . S
C730 H718 0.959 . S
C730 C728 1.561 . S
C731 C728 1.526 . S
C731 C732 1.396 . S
C731 C736 1.390 . S
C732 C726 1.465 . S
C732 C731 1.396 . S
C732 C733 1.399 . S
C733 H719 0.929 . S
C733 C732 1.399 . S
C733 C734 1.385 . S
C734 H720 0.931 . S
C734 C733 1.385 . S
C734 C735 1.389 . S
C735 C734 1.389 . S
C735 C736 1.387 . S
C736 H721 0.930 . S
C736 C731 1.390 . S
C736 C735 1.387 . S
H737 C749 0.930 . S
H738 C751 0.930 . S
H739 C752 0.930 . S
H740 C756 0.959 . S
H741 C756 0.959 . S
H742 C756 0.961 . S
H743 C757 0.960 . S
H744 C757 0.961 . S
H745 C757 0.959 . S
H746 C760 0.929 . S
H747 C761 0.931 . S
H748 C763 0.930 . S
C749 H737 0.930 . S
C749 C750 1.399 . S
C749 C754 1.399 . S
C750 C749 1.399 . S
C750 C751 1.376 . S
C751 H738 0.930 . S
C751 C750 1.376 . S
C751 C752 1.388 . S
C752 H739 0.930 . S
C752 C751 1.388 . S
C752 C753 1.390 . S
C753 C752 1.390 . S
C753 C754 1.394 . S
C753 C759 1.465 . S
C754 C749 1.399 . S
C754 C753 1.394 . S
C754 C755 1.516 . S
C755 C754 1.516 . S
C755 C756 1.502 . S
C755 C757 1.561 . S
C755 C758 1.526 . S
C756 H740 0.959 . S
C756 H741 0.959 . S
C756 H742 0.961 . S
C756 C755 1.502 . S
C757 H743 0.960 . S
C757 H744 0.961 . S
C757 H745 0.959 . S
C757 C755 1.561 . S
C758 C755 1.526 . S
C758 C759 1.396 . S
C758 C763 1.390 . S
C759 C753 1.465 . S
C759 C758 1.396 . S
C759 C760 1.399 . S
C760 H746 0.929 . S
C760 C759 1.399 . S
C760 C761 1.385 . S
C761 H747 0.931 . S
C761 C760 1.385 . S
C761 C762 1.389 . S
C762 C761 1.389 . S
C762 C763 1.387 . S
C763 H748 0.930 . S
C763 C758 1.390 . S
C763 C762 1.387 . S
H764 C776 0.930 . S
H765 C778 0.930 . S
H766 C779 0.930 . S
H767 C783 0.959 . S
H768 C783 0.959 . S
H769 C783 0.961 . S
H770 C784 0.960 . S
H771 C784 0.961 . S
H772 C784 0.959 . S
H773 C787 0.929 . S
H774 C788 0.931 . S
H775 C790 0.930 . S
C776 H764 0.930 . S
C776 C777 1.399 . S
C776 C781 1.399 . S
C777 C776 1.399 . S
C777 C778 1.376 . S
C778 H765 0.930 . S
C778 C777 1.376 . S
C778 C779 1.388 . S
C779 H766 0.930 . S
C779 C778 1.388 . S
C779 C780 1.390 . S
C780 C779 1.390 . S
C780 C781 1.394 . S
C780 C786 1.465 . S
C781 C776 1.399 . S
C781 C780 1.394 . S
C781 C782 1.516 . S
C782 C781 1.516 . S
C782 C783 1.502 . S
C782 C784 1.561 . S
C782 C785 1.526 . S
C783 H767 0.959 . S
C783 H768 0.959 . S
C783 H769 0.961 . S
C783 C782 1.502 . S
C784 H770 0.960 . S
C784 H771 0.961 . S
C784 H772 0.959 . S
C784 C782 1.561 . S
C785 C782 1.526 . S
C785 C786 1.396 . S
C785 C790 1.390 . S
C786 C780 1.465 . S
C786 C785 1.396 . S
C786 C787 1.399 . S
C787 H773 0.929 . S
C787 C786 1.399 . S
C787 C788 1.385 . S
C788 H774 0.931 . S
C788 C787 1.385 . S
C788 C789 1.389 . S
C789 C788 1.389 . S
C789 C790 1.387 . S
C790 H775 0.930 . S
C790 C785 1.390 . S
C790 C789 1.387 . S
H791 C803 0.930 . S
H792 C805 0.930 . S
H793 C806 0.930 . S
H794 C810 0.959 . S
H795 C810 0.959 . S
H796 C810 0.961 . S
H797 C811 0.960 . S
H798 C811 0.961 1_565 S
H799 C811 0.959 . S
H800 C814 0.929 . S
H801 C815 0.931 . S
H802 C817 0.930 . S
C803 H791 0.930 . S
C803 C804 1.399 . S
C803 C808 1.399 1_545 S
C804 C803 1.399 . S
C804 C805 1.376 1_545 S
C805 H792 0.930 . S
C805 C804 1.376 1_565 S
C805 C806 1.388 . S
C806 H793 0.930 . S
C806 C805 1.388 . S
C806 C807 1.390 . S
C807 C806 1.390 . S
C807 C808 1.394 . S
C807 C813 1.465 . S
C808 C803 1.399 1_565 S
C808 C807 1.394 . S
C808 C809 1.516 . S
C809 C808 1.516 . S
C809 C810 1.502 . S
C809 C811 1.561 1_565 S
C809 C812 1.526 . S
C810 H794 0.959 . S
C810 H795 0.959 . S
C810 H796 0.961 . S
C810 C809 1.502 . S
C811 H797 0.960 . S
C811 H798 0.961 1_545 S
C811 H799 0.959 . S
C811 C809 1.561 1_545 S
C812 C809 1.526 . S
C812 C813 1.396 . S
C812 C817 1.390 . S
C813 C807 1.465 . S
C813 C812 1.396 . S
C813 C814 1.399 . S
C814 H800 0.929 . S
C814 C813 1.399 . S
C814 C815 1.385 . S
C815 H801 0.931 . S
C815 C814 1.385 . S
C815 C816 1.389 . S
C816 C815 1.389 . S
C816 C817 1.387 . S
C817 H802 0.930 . S
C817 C812 1.390 . S
C817 C816 1.387 . S
H818 C830 0.930 . S
H819 C832 0.930 . S
H820 C833 0.930 . S
H821 C837 0.959 . S
H822 C837 0.959 1_554 S
H823 C837 0.961 . S
H824 C838 0.960 . S
H825 C838 0.961 . S
H826 C838 0.959 . S
H827 C841 0.929 . S
H828 C842 0.931 . S
H829 C844 0.930 . S
C830 H818 0.930 . S
C830 C831 1.399 . S
C830 C835 1.399 . S
C831 C830 1.399 . S
C831 C832 1.376 . S
C832 H819 0.930 . S
C832 C831 1.376 . S
C832 C833 1.388 . S
C833 H820 0.930 . S
C833 C832 1.388 . S
C833 C834 1.390 . S
C834 C833 1.390 . S
C834 C835 1.394 . S
C834 C840 1.465 . S
C835 C830 1.399 . S
C835 C834 1.394 . S
C835 C836 1.516 . S
C836 C835 1.516 . S
C836 C837 1.502 . S
C836 C838 1.561 . S
C836 C839 1.526 . S
C837 H821 0.959 . S
C837 H822 0.959 1_556 S
C837 H823 0.961 . S
C837 C836 1.502 . S
C838 H824 0.960 . S
C838 H825 0.961 . S
C838 H826 0.959 . S
C838 C836 1.561 . S
C839 C836 1.526 . S
C839 C840 1.396 . S
C839 C844 1.390 . S
C840 C834 1.465 . S
C840 C839 1.396 . S
C840 C841 1.399 . S
C841 H827 0.929 . S
C841 C840 1.399 . S
C841 C842 1.385 . S
C842 H828 0.931 . S
C842 C841 1.385 . S
C842 C843 1.389 . S
C843 C842 1.389 . S
C843 C844 1.387 . S
C844 H829 0.930 . S
C844 C839 1.390 . S
C844 C843 1.387 . S
H845 C857 0.930 . S
H846 C859 0.930 . S
H847 C860 0.930 . S
H848 C864 0.959 . S
H849 C864 0.959 . S
H850 C864 0.961 . S
H851 C865 0.960 . S
H852 C865 0.961 . S
H853 C865 0.959 . S
H854 C868 0.929 . S
H855 C869 0.931 . S
H856 C871 0.930 . S
C857 H845 0.930 . S
C857 C858 1.399 . S
C857 C862 1.399 . S
C858 C857 1.399 . S
C858 C859 1.376 . S
C859 H846 0.930 . S
C859 C858 1.376 . S
C859 C860 1.388 . S
C860 H847 0.930 . S
C860 C859 1.388 . S
C860 C861 1.390 . S
C861 C860 1.390 . S
C861 C862 1.394 . S
C861 C867 1.465 . S
C862 C857 1.399 . S
C862 C861 1.394 . S
C862 C863 1.516 . S
C863 C862 1.516 . S
C863 C864 1.502 . S
C863 C865 1.561 . S
C863 C866 1.526 . S
C864 H848 0.959 . S
C864 H849 0.959 . S
C864 H850 0.961 . S
C864 C863 1.502 . S
C865 H851 0.960 . S
C865 H852 0.961 . S
C865 H853 0.959 . S
C865 C863 1.561 . S
C866 C863 1.526 . S
C866 C867 1.396 . S
C866 C871 1.390 . S
C867 C861 1.465 . S
C867 C866 1.396 . S
C867 C868 1.399 . S
C868 H854 0.929 . S
C868 C867 1.399 . S
C868 C869 1.385 . S
C869 H855 0.931 . S
C869 C868 1.385 . S
C869 C870 1.389 . S
C870 C869 1.389 . S
C870 C871 1.387 . S
C871 H856 0.930 . S
C871 C866 1.390 . S
C871 C870 1.387 . S
H872 C884 0.930 . S
H873 C886 0.930 1_554 S
H874 C887 0.930 . S
H875 C891 0.959 . S
H876 C891 0.959 . S
H877 C891 0.961 . S
H878 C892 0.960 . S
H879 C892 0.961 . S
H880 C892 0.959 . S
H881 C895 0.929 . S
H882 C896 0.931 . S
H883 C898 0.930 . S
C884 H872 0.930 . S
C884 C885 1.399 . S
C884 C889 1.399 . S
C885 C884 1.399 . S
C885 C886 1.376 . S
C886 H873 0.930 1_556 S
C886 C885 1.376 . S
C886 C887 1.388 . S
C887 H874 0.930 . S
C887 C886 1.388 . S
C887 C888 1.390 . S
C888 C887 1.390 . S
C888 C889 1.394 . S
C888 C894 1.465 . S
C889 C884 1.399 . S
C889 C888 1.394 . S
C889 C890 1.516 . S
C890 C889 1.516 . S
C890 C891 1.502 . S
C890 C892 1.561 . S
C890 C893 1.526 . S
C891 H875 0.959 . S
C891 H876 0.959 . S
C891 H877 0.961 . S
C891 C890 1.502 . S
C892 H878 0.960 . S
C892 H879 0.961 . S
C892 H880 0.959 . S
C892 C890 1.561 . S
C893 C890 1.526 . S
C893 C894 1.396 . S
C893 C898 1.390 . S
C894 C888 1.465 . S
C894 C893 1.396 . S
C894 C895 1.399 . S
C895 H881 0.929 . S
C895 C894 1.399 . S
C895 C896 1.385 . S
C896 H882 0.931 . S
C896 C895 1.385 . S
C896 C897 1.389 . S
C897 C896 1.389 . S
C897 C898 1.387 . S
C898 H883 0.930 . S
C898 C893 1.390 . S
C898 C897 1.387 . S
H899 C911 0.930 . S
H900 C913 0.930 . S
H901 C914 0.930 . S
H902 C918 0.959 . S
H903 C918 0.959 . S
H904 C918 0.961 . S
H905 C919 0.960 . S
H906 C919 0.961 . S
H907 C919 0.959 . S
H908 C922 0.929 . S
H909 C923 0.931 . S
H910 C925 0.930 . S
C911 H899 0.930 . S
C911 C912 1.399 . S
C911 C916 1.399 . S
C912 C911 1.399 . S
C912 C913 1.376 . S
C913 H900 0.930 . S
C913 C912 1.376 . S
C913 C914 1.388 . S
C914 H901 0.930 . S
C914 C913 1.388 . S
C914 C915 1.390 . S
C915 C914 1.390 . S
C915 C916 1.394 . S
C915 C921 1.465 . S
C916 C911 1.399 . S
C916 C915 1.394 . S
C916 C917 1.516 . S
C917 C916 1.516 . S
C917 C918 1.502 . S
C917 C919 1.561 . S
C917 C920 1.526 . S
C918 H902 0.959 . S
C918 H903 0.959 . S
C918 H904 0.961 . S
C918 C917 1.502 . S
C919 H905 0.960 . S
C919 H906 0.961 . S
C919 H907 0.959 . S
C919 C917 1.561 . S
C920 C917 1.526 . S
C920 C921 1.396 . S
C920 C925 1.390 . S
C921 C915 1.465 . S
C921 C920 1.396 . S
C921 C922 1.399 . S
C922 H908 0.929 . S
C922 C921 1.399 . S
C922 C923 1.385 . S
C923 H909 0.931 . S
C923 C922 1.385 . S
C923 C924 1.389 . S
C924 C923 1.389 . S
C924 C925 1.387 . S
C925 H910 0.930 . S
C925 C920 1.390 . S
C925 C924 1.387 . S
H926 C938 0.930 . S
H927 C940 0.930 . S
H928 C941 0.930 . S
H929 C945 0.959 . S
H930 C945 0.959 . S
H931 C945 0.961 . S
H932 C946 0.960 . S
H933 C946 0.961 . S
H934 C946 0.959 . S
H935 C949 0.929 . S
H936 C950 0.931 . S
H937 C952 0.930 . S
C938 H926 0.930 . S
C938 C939 1.399 . S
C938 C943 1.399 . S
C939 C938 1.399 . S
C939 C940 1.376 . S
C940 H927 0.930 . S
C940 C939 1.376 . S
C940 C941 1.388 . S
C941 H928 0.930 . S
C941 C940 1.388 . S
C941 C942 1.390 . S
C942 C941 1.390 . S
C942 C943 1.394 . S
C942 C948 1.465 . S
C943 C938 1.399 . S
C943 C942 1.394 . S
C943 C944 1.516 . S
C944 C943 1.516 . S
C944 C945 1.502 . S
C944 C946 1.561 . S
C944 C947 1.526 . S
C945 H929 0.959 . S
C945 H930 0.959 . S
C945 H931 0.961 . S
C945 C944 1.502 . S
C946 H932 0.960 . S
C946 H933 0.961 . S
C946 H934 0.959 . S
C946 C944 1.561 . S
C947 C944 1.526 . S
C947 C948 1.396 . S
C947 C952 1.390 . S
C948 C942 1.465 . S
C948 C947 1.396 . S
C948 C949 1.399 . S
C949 H935 0.929 . S
C949 C948 1.399 . S
C949 C950 1.385 . S
C950 H936 0.931 . S
C950 C949 1.385 . S
C950 C951 1.389 . S
C951 C950 1.389 . S
C951 C952 1.387 . S
C952 H937 0.930 . S
C952 C947 1.390 . S
C952 C951 1.387 . S
H953 C965 0.930 1_545 S
H954 C967 0.930 . S
H955 C968 0.930 . S
H956 C972 0.959 . S
H957 C972 0.959 . S
H958 C972 0.961 . S
H959 C973 0.960 1_556 S
H960 C973 0.961 1_556 S
H961 C973 0.959 . S
H962 C976 0.929 . S
H963 C977 0.931 . S
H964 C979 0.930 . S
C965 H953 0.930 1_565 S
C965 C966 1.394 1_565 S
C965 C970 1.399 . S
C966 C965 1.394 1_545 S
C966 C967 1.352 1_545 S
C967 H954 0.930 . S
C967 C966 1.352 1_565 S
C967 C968 1.388 . S
C968 H955 0.930 . S
C968 C967 1.388 . S
C968 C969 1.390 . S
C969 C968 1.390 . S
C969 C970 1.394 . S
C969 C975 1.465 . S
C970 C965 1.399 . S
C970 C969 1.394 . S
C970 C971 1.516 . S
C971 C970 1.516 . S
C971 C972 1.502 . S
C971 C973 1.561 . S
C971 C974 1.526 . S
C972 H956 0.959 . S
C972 H957 0.959 . S
C972 H958 0.961 . S
C972 C971 1.502 . S
C973 H959 0.960 1_554 S
C973 H960 0.961 1_554 S
C973 H961 0.959 . S
C973 C971 1.561 . S
C974 C971 1.526 . S
C974 C975 1.396 . S
C974 C979 1.390 . S
C975 C969 1.465 . S
C975 C974 1.396 . S
C975 C976 1.399 . S
C976 H962 0.929 . S
C976 C975 1.399 . S
C976 C977 1.385 . S
C977 H963 0.931 . S
C977 C976 1.385 . S
C977 C978 1.389 . S
C978 C977 1.389 . S
C978 C979 1.387 . S
C979 H964 0.930 . S
C979 C974 1.390 . S
C979 C978 1.387 . S
H980 C992 0.930 . S
H981 C994 0.930 . S
H982 C995 0.930 . S
H983 C999 0.959 . S
H984 C999 0.959 . S
H985 C999 0.961 . S
H986 C1000 0.960 . S
H987 C1000 0.961 . S
H988 C1000 0.959 . S
H989 C1003 0.929 . S
H990 C1004 0.931 . S
H991 C1006 0.930 . S
C992 H980 0.930 . S
C992 C993 1.399 . S
C992 C997 1.399 . S
C993 C992 1.399 . S
C993 C994 1.376 . S
C994 H981 0.930 . S
C994 C993 1.376 . S
C994 C995 1.388 . S
C995 H982 0.930 . S
C995 C994 1.388 . S
C995 C996 1.390 . S
C996 C995 1.390 . S
C996 C997 1.394 . S
C996 C1002 1.465 . S
C997 C992 1.399 . S
C997 C996 1.394 . S
C997 C998 1.516 . S
C998 C997 1.516 . S
C998 C999 1.502 . S
C998 C1000 1.561 . S
C998 C1001 1.526 . S
C999 H983 0.959 . S
C999 H984 0.959 . S
C999 H985 0.961 . S
C999 C998 1.502 . S
C1000 H986 0.960 . S
C1000 H987 0.961 . S
C1000 H988 0.959 . S
C1000 C998 1.561 . S
C1001 C998 1.526 . S
C1001 C1002 1.396 . S
C1001 C1006 1.390 . S
C1002 C996 1.465 . S
C1002 C1001 1.396 . S
C1002 C1003 1.399 . S
C1003 H989 0.929 . S
C1003 C1002 1.399 . S
C1003 C1004 1.385 . S
C1004 H990 0.931 . S
C1004 C1003 1.385 . S
C1004 C1005 1.389 . S
C1005 C1004 1.389 . S
C1005 C1006 1.387 . S
C1006 H991 0.930 . S
C1006 C1001 1.390 . S
C1006 C1005 1.387 . S
H1007 C1019 0.930 . S
H1008 C1021 0.930 . S
H1009 C1022 0.930 . S
H1010 C1026 0.959 . S
H1011 C1026 0.959 . S
H1012 C1026 0.961 . S
H1013 C1027 0.960 . S
H1014 C1027 0.961 . S
H1015 C1027 0.959 . S
H1016 C1030 0.929 . S
H1017 C1031 0.931 . S
H1018 C1033 0.930 . S
C1019 H1007 0.930 . S
C1019 C1020 1.399 . S
C1019 C1024 1.399 . S
C1020 C1019 1.399 . S
C1020 C1021 1.376 . S
C1021 H1008 0.930 . S
C1021 C1020 1.376 . S
C1021 C1022 1.388 . S
C1022 H1009 0.930 . S
C1022 C1021 1.388 . S
C1022 C1023 1.390 . S
C1023 C1022 1.390 . S
C1023 C1024 1.394 . S
C1023 C1029 1.465 . S
C1024 C1019 1.399 . S
C1024 C1023 1.394 . S
C1024 C1025 1.516 . S
C1025 C1024 1.516 . S
C1025 C1026 1.502 . S
C1025 C1027 1.561 . S
C1025 C1028 1.526 . S
C1026 H1010 0.959 . S
C1026 H1011 0.959 . S
C1026 H1012 0.961 . S
C1026 C1025 1.502 . S
C1027 H1013 0.960 . S
C1027 H1014 0.961 . S
C1027 H1015 0.959 . S
C1027 C1025 1.561 . S
C1028 C1025 1.526 . S
C1028 C1029 1.396 . S
C1028 C1033 1.390 . S
C1029 C1023 1.465 . S
C1029 C1028 1.396 . S
C1029 C1030 1.399 . S
C1030 H1016 0.929 . S
C1030 C1029 1.399 . S
C1030 C1031 1.385 . S
C1031 H1017 0.931 . S
C1031 C1030 1.385 . S
C1031 C1032 1.389 . S
C1032 C1031 1.389 . S
C1032 C1033 1.387 . S
C1033 H1018 0.930 . S
C1033 C1028 1.390 . S
C1033 C1032 1.387 . S
H1034 C1046 0.930 . S
H1035 C1048 0.930 . S
H1036 C1049 0.930 . S
H1037 C1053 0.959 . S
H1038 C1053 0.959 . S
H1039 C1053 0.961 . S
H1040 C1054 0.960 . S
H1041 C1054 0.961 . S
H1042 C1054 0.959 . S
H1043 C1057 0.929 . S
H1044 C1058 0.931 . S
H1045 C1060 0.930 . S
C1046 H1034 0.930 . S
C1046 C1047 1.399 . S
C1046 C1051 1.399 . S
C1047 C1046 1.399 . S
C1047 C1048 1.376 . S
C1048 H1035 0.930 . S
C1048 C1047 1.376 . S
C1048 C1049 1.388 . S
C1049 H1036 0.930 . S
C1049 C1048 1.388 . S
C1049 C1050 1.390 . S
C1050 C1049 1.390 . S
C1050 C1051 1.394 . S
C1050 C1056 1.465 . S
C1051 C1046 1.399 . S
C1051 C1050 1.394 . S
C1051 C1052 1.516 . S
C1052 C1051 1.516 . S
C1052 C1053 1.502 . S
C1052 C1054 1.561 . S
C1052 C1055 1.526 . S
C1053 H1037 0.959 . S
C1053 H1038 0.959 . S
C1053 H1039 0.961 . S
C1053 C1052 1.502 . S
C1054 H1040 0.960 . S
C1054 H1041 0.961 . S
C1054 H1042 0.959 . S
C1054 C1052 1.561 . S
C1055 C1052 1.526 . S
C1055 C1056 1.396 . S
C1055 C1060 1.390 . S
C1056 C1050 1.465 . S
C1056 C1055 1.396 . S
C1056 C1057 1.399 . S
C1057 H1043 0.929 . S
C1057 C1056 1.399 . S
C1057 C1058 1.385 . S
C1058 H1044 0.931 . S
C1058 C1057 1.385 . S
C1058 C1059 1.389 . S
C1059 C1058 1.389 . S
C1059 C1060 1.387 . S
C1060 H1045 0.930 . S
C1060 C1055 1.390 . S
C1060 C1059 1.387 . S
H1061 C1073 0.930 . S
H1062 C1075 0.930 . S
H1063 C1076 0.930 . S
H1064 C1080 0.959 . S
H1065 C1080 0.959 . S
H1066 C1080 0.961 . S
H1067 C1081 0.960 . S
H1068 C1081 0.961 . S
H1069 C1081 0.959 . S
H1070 C1084 0.929 . S
H1071 C1085 0.931 . S
H1072 C1087 0.930 . S
C1073 H1061 0.930 . S
C1073 C1074 1.399 . S
C1073 C1078 1.399 . S
C1074 C1073 1.399 . S
C1074 C1075 1.376 . S
C1075 H1062 0.930 . S
C1075 C1074 1.376 . S
C1075 C1076 1.388 . S
C1076 H1063 0.930 . S
C1076 C1075 1.388 . S
C1076 C1077 1.390 . S
C1077 C1076 1.390 . S
C1077 C1078 1.394 . S
C1077 C1083 1.465 . S
C1078 C1073 1.399 . S
C1078 C1077 1.394 . S
C1078 C1079 1.516 . S
C1079 C1078 1.516 . S
C1079 C1080 1.502 . S
C1079 C1081 1.561 . S
C1079 C1082 1.526 . S
C1080 H1064 0.959 . S
C1080 H1065 0.959 . S
C1080 H1066 0.961 . S
C1080 C1079 1.502 . S
C1081 H1067 0.960 . S
C1081 H1068 0.961 . S
C1081 H1069 0.959 . S
C1081 C1079 1.561 . S
C1082 C1079 1.526 . S
C1082 C1083 1.396 . S
C1082 C1087 1.390 . S
C1083 C1077 1.465 . S
C1083 C1082 1.396 . S
C1083 C1084 1.399 . S
C1084 H1070 0.929 . S
C1084 C1083 1.399 . S
C1084 C1085 1.385 . S
C1085 H1071 0.931 . S
C1085 C1084 1.385 . S
C1085 C1086 1.389 . S
C1086 C1085 1.389 . S
C1086 C1087 1.387 . S
C1087 H1072 0.930 . S
C1087 C1082 1.390 . S
C1087 C1086 1.387 . S
C237 C6 1.357 . S
C249 C176 1.366 . S
C264 C23 1.817 . S
C276 C79 1.833 . S
C291 C34 1.356 . S
C303 C204 1.344 . S
C318 C107 1.797 . S
C330 C51 1.831 . S
C345 C205 1.798 . S
C357 C36 1.806 . S
C372 C106 1.347 . S
C384 C49 1.359 . S
C399 C177 1.795 . S
C411 C8 1.811 . S
C426 C78 1.349 . S
C438 C21 1.360 . S
C453 C64 1.366 . S
C465 C118 1.344 . S
C480 C92 1.365 . S
C492 C146 1.360 . S
C507 C148 1.835 . S
C519 C93 1.811 . S
C534 C65 1.832 . S
C546 C120 1.819 . S
C561 C191 1.803 . S
C573 C135 1.834 . S
C588 C163 1.811 . S
C600 C219 1.795 . S
C615 C161 1.333 . S
C627 C218 1.327 . S
C642 C133 1.362 . S
C654 C190 1.363 . S
C669 C160 1.541 . S
C681 C7 1.576 . S
C696 C121 1.389 . S
C708 C22 1.387 1_565 S
C723 C35 1.555 . S
C735 C132 1.572 . S
C750 C149 1.436 . S
C762 C50 1.437 . S
C777 C162 1.423 . S
C789 C37 1.431 . S
C804 C48 1.532 . S
C816 C119 1.573 . S
C831 C134 1.421 . S
C843 C9 1.412 . S
C858 C147 1.568 . S
C870 C20 1.561 . S
C885 C62 1.347 . S
C897 C216 1.374 . S
C912 C175 1.515 . S
C924 C77 1.571 . S
C939 C90 1.348 . S
C951 C188 1.379 . S
C966 C105 1.532 . S
C978 C203 1.552 . S
C993 C91 1.572 . S
C1005 C217 1.529 . S
C1020 C174 1.392 . S
C1032 C104 1.361 . S
C1047 C189 1.567 . S
C1059 C63 1.542 . S
C1074 C202 1.368 . S
C1086 C76 1.348 . S
