# Generated by pormake.
# Topology ecf, (8)-cn, num edge types: 1
# Building blocks:
#     Node 0, Type 0, BuildingBlock: TAGTUT_clean_sbu_3, # of connection points: 8
#     Node 1, Type 0, BuildingBlock: TAGTUT_clean_sbu_3, # of connection points: 8
#     Node 2, Type 0, BuildingBlock: TAGTUT_clean_sbu_3, # of connection points: 8
#     Node 3, Type 0, BuildingBlock: TAGTUT_clean_sbu_3, # of connection points: 8
#     Node 4, Type 0, BuildingBlock: TAGTUT_clean_sbu_3, # of connection points: 8
#     Node 5, Type 0, BuildingBlock: TAGTUT_clean_sbu_3, # of connection points: 8
#     Edge 6, Type (0, 0), BuildingBlock: KIFKEQ_clean_linker_1, # of connection points: 2
#     Edge 7, Type (0, 0), BuildingBlock: KIFKEQ_clean_linker_1, # of connection points: 2
#     Edge 8, Type (0, 0), BuildingBlock: KIFKEQ_clean_linker_1, # of connection points: 2
#     Edge 9, Type (0, 0), BuildingBlock: KIFKEQ_clean_linker_1, # of connection points: 2
#     Edge 10, Type (0, 0), BuildingBlock: KIFKEQ_clean_linker_1, # of connection points: 2
#     Edge 11, Type (0, 0), BuildingBlock: KIFKEQ_clean_linker_1, # of connection points: 2
#     Edge 12, Type (0, 0), BuildingBlock: KIFKEQ_clean_linker_1, # of connection points: 2
#     Edge 13, Type (0, 0), BuildingBlock: KIFKEQ_clean_linker_1, # of connection points: 2
#     Edge 14, Type (0, 0), BuildingBlock: KIFKEQ_clean_linker_1, # of connection points: 2
#     Edge 15, Type (0, 0), BuildingBlock: KIFKEQ_clean_linker_1, # of connection points: 2
#     Edge 16, Type (0, 0), BuildingBlock: KIFKEQ_clean_linker_1, # of connection points: 2
#     Edge 17, Type (0, 0), BuildingBlock: KIFKEQ_clean_linker_1, # of connection points: 2
#     Edge 18, Type (0, 0), BuildingBlock: KIFKEQ_clean_linker_1, # of connection points: 2
#     Edge 19, Type (0, 0), BuildingBlock: KIFKEQ_clean_linker_1, # of connection points: 2
#     Edge 20, Type (0, 0), BuildingBlock: KIFKEQ_clean_linker_1, # of connection points: 2
#     Edge 21, Type (0, 0), BuildingBlock: KIFKEQ_clean_linker_1, # of connection points: 2
#     Edge 22, Type (0, 0), BuildingBlock: KIFKEQ_clean_linker_1, # of connection points: 2
#     Edge 23, Type (0, 0), BuildingBlock: KIFKEQ_clean_linker_1, # of connection points: 2
#     Edge 24, Type (0, 0), BuildingBlock: KIFKEQ_clean_linker_1, # of connection points: 2
#     Edge 25, Type (0, 0), BuildingBlock: KIFKEQ_clean_linker_1, # of connection points: 2
#     Edge 26, Type (0, 0), BuildingBlock: KIFKEQ_clean_linker_1, # of connection points: 2
#     Edge 27, Type (0, 0), BuildingBlock: KIFKEQ_clean_linker_1, # of connection points: 2
#     Edge 28, Type (0, 0), BuildingBlock: KIFKEQ_clean_linker_1, # of connection points: 2
#     Edge 29, Type (0, 0), BuildingBlock: KIFKEQ_clean_linker_1, # of connection points: 2
# Relax obj value: 0.240
# Max RMSD: 0.186
# Mean RMSD: 0.186
data_MOF--net-ecf--node1-TAGTUT_clean_sbu_3--edge1-KIFKEQ_clean_linker_1
_symmetry_space_group_name_H-M    P1
_symmetry_Int_Tables_number       1
_symmetry_cell_setting            triclinic
loop_
_symmetry_equiv_pos_as_xyz
'x, y, z'
_cell_length_a     34.164391
_cell_length_b     34.212559
_cell_length_c     27.145774
_cell_angle_alpha  89.99324
_cell_angle_beta   89.857072
_cell_angle_gamma 120.02852
loop_
_atom_site_label
_atom_site_type_symbol
_atom_site_fract_x
_atom_site_fract_y
_atom_site_fract_z
_atom_type_partial_charge
C0 C 0.16346 0.33359 0.16812 0.0
C1 C 0.0424 0.21449 0.27222 0.0
C2 C 0.13901 0.27888 0.39487 0.0
Mg3 Mg 0.2758 0.39237 0.19259 0.0
Mg4 Mg 0.33047 0.3647 0.2755 0.0
O5 O 0.27975 0.37001 0.25972 0.0
Mg6 Mg 0.21748 0.32012 0.26349 0.0
O7 O 0.15283 0.27429 0.26619 0.0
Mg8 Mg 0.13069 0.31751 0.28336 0.0
Mg9 Mg 0.13302 0.22252 0.30474 0.0
C10 C 0.27256 0.30474 0.36509 0.0
O11 O 0.23269 0.26754 0.23608 0.0
O12 O 0.34799 0.45206 0.21019 0.0
O13 O 0.18026 0.20382 0.27398 0.0
O14 O 0.30531 0.35035 0.15771 0.0
O15 O 0.38056 0.43407 0.27126 0.0
O16 O 0.33672 0.32892 0.21634 0.0
O17 O 0.20186 0.3748 0.28728 0.0
O18 O 0.24356 0.42763 0.23139 0.0
C19 C 0.2138 0.41255 0.26576 0.0
C20 C 0.38044 0.46253 0.24082 0.0
O21 O 0.2359 0.30042 0.34519 0.0
O22 O 0.06051 0.25733 0.27554 0.0
O23 O 0.31111 0.32784 0.34408 0.0
O24 O 0.13317 0.30483 0.36567 0.0
O25 O 0.06397 0.19343 0.28069 0.0
O26 O 0.14115 0.24477 0.37962 0.0
O27 O 0.19982 0.33253 0.1811 0.0
O28 O 0.13417 0.32917 0.20051 0.0
C29 C 0.32506 0.32878 0.17192 0.0
C30 C 0.21554 0.2259 0.24681 0.0
C31 C 0.79294 0.22375 0.76311 0.0
C32 C 0.91491 0.38533 0.72275 0.0
C33 C -0.011 0.31619 0.66953 0.0
Mg34 Mg 0.8019 0.13979 0.79437 0.0
Mg35 Mg 0.89708 0.14648 0.83318 0.0
O36 O 0.86799 0.1595 0.78278 0.0
Mg37 Mg 0.88855 0.22378 0.77073 0.0
O38 O 0.90352 0.28628 0.75784 0.0
Mg39 Mg 0.87738 0.27583 0.68938 0.0
Mg40 Mg 0.96146 0.33725 0.76864 0.0
C41 C 0.98124 0.22163 0.77366 0.0
O42 O 0.92612 0.24924 0.85192 0.0
O43 O 0.79161 0.0694 0.80109 0.0
O44 O 0.97845 0.32254 0.84109 0.0
O45 O 0.81117 0.15003 0.87708 0.0
O46 O 0.85832 0.07477 0.82064 0.0
O47 O 0.8787 0.16305 0.90203 0.0
O48 O 0.85991 0.19951 0.68919 0.0
O49 O 0.79735 0.13498 0.71053 0.0
C50 C 0.82311 0.16233 0.67717 0.0
C51 C 0.81629 0.05175 0.80922 0.0
O52 O 0.95733 0.23491 0.75086 0.0
O53 O 0.89246 0.34993 0.69601 0.0
O54 O 0.96564 0.19118 0.80742 0.0
O55 O 0.94744 0.29686 0.65667 0.0
O56 O 0.94367 0.38828 0.75488 0.0
O57 O 0.00241 0.33447 0.71154 0.0
O58 O 0.81716 0.21136 0.78747 0.0
O59 O 0.80971 0.25094 0.72662 0.0
C60 C 0.84077 0.16027 0.91067 0.0
C61 C 0.96105 0.28647 0.86734 0.0
C62 C 0.64817 0.81716 0.18632 0.0
C63 C 0.75317 0.80542 0.31499 0.0
C64 C 0.68243 0.84774 0.41773 0.0
Mg65 Mg 0.59308 0.8769 0.20078 0.0
Mg66 Mg 0.61836 0.95945 0.28287 0.0
O67 O 0.61372 0.90377 0.26777 0.0
Mg68 Mg 0.66033 0.88727 0.27813 0.0
O69 O 0.70273 0.86417 0.28794 0.0
Mg70 Mg 0.65388 0.80046 0.30499 0.0
Mg71 Mg 0.74941 0.89309 0.33394 0.0
C72 C 0.67283 0.95975 0.37694 0.0
O73 O 0.71872 0.95328 0.25387 0.0
O74 O 0.53405 0.89256 0.21212 0.0
O75 O 0.77559 0.96027 0.30249 0.0
O76 O 0.63997 0.94799 0.16622 0.0
O77 O 0.54933 0.9418 0.27386 0.0
O78 O 0.65815 0.00052 0.22491 0.0
O79 O 0.60038 0.81942 0.30031 0.0
O80 O 0.55181 0.81115 0.24087 0.0
C81 C 0.56243 0.79567 0.27825 0.0
C82 C 0.52233 0.91448 0.24153 0.0
O83 O 0.67646 0.92636 0.359 0.0
O84 O 0.71047 0.78453 0.30809 0.0
O85 O 0.65194 0.97624 0.35343 0.0
O86 O 0.65902 0.81546 0.3879 0.0
O87 O 0.77614 0.84774 0.32507 0.0
O88 O 0.7185 0.88301 0.40429 0.0
O89 O 0.65092 0.85602 0.19619 0.0
O90 O 0.64843 0.79207 0.22136 0.0
C91 C 0.66136 0.98913 0.18117 0.0
C92 C 0.7588 0.97573 0.27081 0.0
C93 C 0.76002 0.56747 0.75515 0.0
C94 C 0.59862 0.52892 0.73285 0.0
C95 C 0.66275 0.67437 0.68599 0.0
Mg96 Mg 0.84484 0.65267 0.79133 0.0
Mg97 Mg 0.84467 0.73857 0.84625 0.0
O98 O 0.82916 0.70296 0.78934 0.0
Mg99 Mg 0.76331 0.66305 0.77726 0.0
O100 O 0.69985 0.61848 0.76336 0.0
Mg101 Mg 0.70617 0.60438 0.6928 0.0
Mg102 Mg 0.64847 0.62226 0.78109 0.0
C103 C 0.77252 0.75924 0.79616 0.0
O104 O 0.7392 0.67137 0.86258 0.0
O105 O 0.91723 0.70894 0.79972 0.0
O106 O 0.6661 0.65188 0.85356 0.0
O107 O 0.8361 0.64332 0.87433 0.0
O108 O 0.91713 0.76807 0.83622 0.0
O109 O 0.82319 0.69485 0.90863 0.0
O110 O 0.7843 0.66289 0.69191 0.0
O111 O 0.84759 0.66011 0.70742 0.0
C112 C 0.82055 0.66257 0.67657 0.0
C113 C 0.93782 0.74923 0.81659 0.0
O114 O 0.75672 0.72465 0.76806 0.0
O115 O 0.63141 0.54342 0.70152 0.0
O116 O 0.80323 0.76862 0.8288 0.0
O117 O 0.68366 0.65502 0.6686 0.0
O118 O 0.59838 0.55353 0.76821 0.0
O119 O 0.64524 0.66593 0.72876 0.0
O120 O 0.77206 0.60106 0.78427 0.0
O121 O 0.73172 0.55944 0.72057 0.0
C122 C 0.8253 0.65884 0.91139 0.0
C123 C 0.70222 0.66918 0.87946 0.0
C124 C 0.15391 0.82059 0.16658 0.0
C125 C 0.15996 0.94693 0.25868 0.0
C126 C 0.12894 0.85727 0.38994 0.0
Mg127 Mg 0.10309 0.70998 0.19857 0.0
Mg128 Mg 0.0251 0.65704 0.28688 0.0
O129 O 0.07814 0.70883 0.26595 0.0
Mg130 Mg 0.08924 0.77081 0.26633 0.0
O131 O 0.10777 0.83546 0.26421 0.0
Mg132 Mg 0.17392 0.85909 0.27902 0.0
Mg133 Mg 0.07779 0.85988 0.29855 0.0
C134 C 0.02224 0.71871 0.37252 0.0
O135 O 0.01868 0.75297 0.24275 0.0
O136 O 0.09374 0.63986 0.2198 0.0
O137 O 0.01112 0.81068 0.27216 0.0
O138 O 0.03014 0.67556 0.1667 0.0
O139 O 0.04758 0.60874 0.28484 0.0
O140 O 0.98012 0.64448 0.22857 0.0
O141 O 0.16141 0.78883 0.28832 0.0
O142 O 0.17111 0.74431 0.23545 0.0
C143 C 0.1865 0.77482 0.26874 0.0
C144 C 0.07475 0.60857 0.25242 0.0
O145 O 0.05305 0.7551 0.35018 0.0
O146 O 0.18402 0.92843 0.26517 0.0
O147 O 0.00824 0.67947 0.35399 0.0
O148 O 0.1602 0.86089 0.36104 0.0
O149 O 0.11742 0.92666 0.26787 0.0
O150 O 0.09313 0.85589 0.37421 0.0
O151 O 0.1168 0.78484 0.18206 0.0
O152 O 0.18011 0.85098 0.19703 0.0
C153 C -0.01058 0.65392 0.18321 0.0
C154 C -0.00444 0.77238 0.25047 0.0
C155 C 0.41581 0.18944 0.75647 0.0
C156 C 0.45567 0.06569 0.72845 0.0
C157 C 0.31314 -0.00772 0.66863 0.0
Mg158 Mg 0.32251 0.18281 0.77926 0.0
Mg159 Mg 0.22929 0.09059 0.81622 0.0
O160 O 0.27567 0.11658 0.76948 0.0
Mg161 Mg 0.31888 0.09423 0.76336 0.0
O162 O 0.3666 0.0784 0.75537 0.0
Mg163 Mg 0.38594 0.10342 0.68657 0.0
Mg164 Mg 0.35846 0.02045 0.7689 0.0
C165 C 0.22108 0.00338 0.76402 0.0
O166 O 0.30332 0.05808 0.84677 0.0
O167 O 0.26369 0.19564 0.77791 0.0
O168 O 0.32485 0.00576 0.84023 0.0
O169 O 0.31891 0.17512 0.86205 0.0
O170 O 0.19954 0.13079 0.79527 0.0
O171 O 0.26076 0.1096 0.88713 0.0
O172 O 0.32701 0.12097 0.6799 0.0
O173 O 0.32655 0.18519 0.69591 0.0
C174 C 0.32806 0.1578 0.66493 0.0
C175 C 0.22071 0.17247 0.78227 0.0
O176 O 0.26063 0.0247 0.74496 0.0
O177 O 0.44473 0.08807 0.6989 0.0
O178 O 0.20496 0.02148 0.79313 0.0
O179 O 0.33745 0.03342 0.655 0.0
O180 O 0.42776 0.03755 0.75987 0.0
O181 O 0.31571 0.97892 0.7116 0.0
O182 O 0.37799 0.1659 0.77931 0.0
O183 O 0.42776 0.17178 0.7223 0.0
C184 C 0.2969 0.14662 0.89593 0.0
C185 C 0.30545 0.02361 0.86443 0.0
H186 H 0.17359 0.42635 0.18866 0.0
H187 H 0.18655 0.44157 0.34656 0.0
H188 H 0.13166 0.46624 0.18677 0.0
H189 H 0.14597 0.48416 0.34464 0.0
H190 H 0.0486 0.53997 0.32018 0.0
H191 H 0.0752 0.48565 0.32608 0.0
H192 H 0.15845 0.54513 0.19696 0.0
H193 H 0.13142 0.59805 0.19027 0.0
C194 C 0.16716 0.43819 0.2231 0.0
C195 C 0.18386 0.43177 0.26768 0.0
C196 C 0.14335 0.46123 0.222 0.0
C197 C 0.13656 0.47942 0.26534 0.0
C198 C 0.15078 0.47057 0.31061 0.0
C199 C 0.17411 0.4465 0.3118 0.0
C200 C 0.07214 0.54098 0.29272 0.0
C201 C 0.08773 0.5733 0.2546 0.0
C202 C 0.08759 0.5101 0.29639 0.0
C203 C 0.11867 0.51089 0.26186 0.0
C204 C 0.13377 0.54293 0.22362 0.0
C205 C 0.1184 0.57356 0.21992 0.0
H206 H 0.52245 0.11158 0.6605 0.0
H207 H 0.49887 0.05159 0.80544 0.0
H208 H 0.60358 0.14719 0.67341 0.0
H209 H 0.58019 0.0886 0.81908 0.0
H210 H 0.73698 0.25263 0.73007 0.0
H211 H 0.65554 0.20953 0.72227 0.0
H212 H 0.65318 0.09762 0.79875 0.0
H213 H 0.73508 0.1419 0.80869 0.0
C214 C 0.53456 0.1055 0.69488 0.0
C215 C 0.5041 0.07908 0.73205 0.0
C216 C 0.58113 0.12636 0.70259 0.0
C217 C 0.59849 0.12188 0.74791 0.0
C218 C 0.56808 0.09292 0.78381 0.0
C219 C 0.52137 0.0716 0.77589 0.0
C220 C 0.7192 0.21903 0.74587 0.0
C221 C 0.743 0.20032 0.76869 0.0
C222 C 0.6724 0.19403 0.74079 0.0
C223 C 0.64787 0.14938 0.7581 0.0
C224 C 0.67108 0.13171 0.78432 0.0
C225 C 0.71821 0.1571 0.78989 0.0
H226 H 0.43624 0.50265 0.31934 0.0
H227 H 0.40149 0.53107 0.17585 0.0
H228 H 0.48021 0.58325 0.33635 0.0
H229 H 0.44666 0.61154 0.19227 0.0
H230 H 0.47487 0.74221 0.25283 0.0
H231 H 0.43432 0.66066 0.24616 0.0
H232 H 0.54556 0.65601 0.31564 0.0
H233 H 0.58523 0.73776 0.3249 0.0
C234 C 0.43896 0.5261 0.29089 0.0
C235 C 0.41483 0.51054 0.24649 0.0
C236 C 0.4641 0.57227 0.30076 0.0
C237 C 0.46579 0.60359 0.26623 0.0
C238 C 0.44464 0.58806 0.22031 0.0
C239 C 0.41919 0.542 0.21064 0.0
C240 C 0.49045 0.72382 0.26756 0.0
C241 C 0.53425 0.74672 0.28736 0.0
C242 C 0.46741 0.67711 0.26317 0.0
C243 C 0.48773 0.65221 0.27821 0.0
C244 C 0.52947 0.67448 0.30275 0.0
C245 C 0.55238 0.72147 0.30778 0.0
H246 H 0.85012 0.38645 0.66553 0.0
H247 H 0.9472 0.46214 0.7793 0.0
H248 H 0.81696 0.43384 0.67464 0.0
H249 H 0.91486 0.51145 0.78694 0.0
H250 H 0.80374 0.54814 0.82832 0.0
H251 H 0.84773 0.50969 0.81815 0.0
H252 H 0.82701 0.50521 0.66067 0.0
H253 H 0.78146 0.54034 0.67122 0.0
C254 C 0.86525 0.41399 0.69167 0.0
C255 C 0.90128 0.42021 0.72181 0.0
C256 C 0.84623 0.44147 0.69682 0.0
C257 C 0.86309 0.47656 0.73169 0.0
C258 C 0.90055 0.48429 0.76031 0.0
C259 C 0.91945 0.45636 0.75544 0.0
C260 C 0.80853 0.53851 0.79176 0.0
C261 C 0.78804 0.54591 0.75083 0.0
C262 C 0.83408 0.517 0.78576 0.0
C263 C 0.84026 0.50355 0.73859 0.0
C264 C 0.82175 0.51353 0.69768 0.0
C265 C 0.79558 0.53382 0.70378 0.0
H266 H 0.23975 0.73782 0.26158 0.0
H267 H 0.24541 0.86429 0.29308 0.0
H268 H 0.3215 0.77668 0.25498 0.0
H269 H 0.3279 0.90366 0.28534 0.0
H270 H 0.45403 0.8578 0.18001 0.0
H271 H 0.37337 0.82764 0.19176 0.0
H272 H 0.40006 0.91249 0.31945 0.0
H273 H 0.48112 0.9435 0.30734 0.0
C274 C 0.25854 0.77396 0.26769 0.0
C275 C 0.23592 0.79804 0.2769 0.0
C276 C 0.3054 0.7963 0.26335 0.0
C277 C 0.33103 0.84343 0.26792 0.0
C278 C 0.30893 0.86732 0.28105 0.0
C279 C 0.26164 0.84474 0.28565 0.0
C280 C 0.44292 0.8707 0.21012 0.0
C281 C 0.47419 0.90265 0.24307 0.0
C282 C 0.3966 0.85309 0.21713 0.0
C283 C 0.38033 0.86686 0.25732 0.0
C284 C 0.41154 0.90106 0.28832 0.0
C285 C 0.45803 0.91879 0.28128 0.0
H286 H 0.50059 0.24539 0.72177 0.0
H287 H 0.39194 0.24767 0.80102 0.0
H288 H 0.54002 0.32682 0.71527 0.0
H289 H 0.43046 0.32953 0.79209 0.0
H290 H 0.53749 0.48146 0.80574 0.0
H291 H 0.49267 0.40003 0.81486 0.0
H292 H 0.53592 0.38352 0.67043 0.0
H293 H 0.58246 0.46513 0.66224 0.0
C294 C 0.48491 0.26321 0.7378 0.0
C295 C 0.44231 0.23951 0.76083 0.0
C296 C 0.50738 0.31011 0.73343 0.0
C297 C 0.48788 0.33495 0.7516 0.0
C298 C 0.44645 0.31161 0.7772 0.0
C299 C 0.42411 0.26444 0.78213 0.0
C300 C 0.53694 0.46057 0.77547 0.0
C301 C 0.56414 0.48005 0.7334 0.0
C302 C 0.51105 0.41364 0.78076 0.0
C303 C 0.51128 0.3849 0.74391 0.0
C304 C 0.53599 0.40448 0.70035 0.0
C305 C 0.56231 0.4514 0.69531 0.0
H306 H 0.26989 0.2015 0.2919 0.0
H307 H 0.2052 0.1955 0.15371 0.0
H308 H 0.27857 0.13811 0.26693 0.0
H309 H 0.21244 0.13074 0.12888 0.0
H310 H 0.11979 0.98998 0.21639 0.0
H311 H 0.15672 0.0664 0.18466 0.0
H312 H 0.28754 0.08107 0.21513 0.0
H313 H 0.25052 0.00421 0.24715 0.0
C314 C 0.25963 0.18777 0.25516 0.0
C315 C 0.23564 0.2015 0.22513 0.0
C316 C 0.26511 0.15194 0.2404 0.0
C317 C 0.24465 0.12872 0.19666 0.0
C318 C 0.22799 0.14794 0.16294 0.0
C319 C 0.22324 0.18438 0.17739 0.0
C320 C 0.1564 0.00924 0.21576 0.0
C321 C 0.1822 0.99189 0.23604 0.0
C322 C 0.17768 0.05262 0.1963 0.0
C323 C 0.2251 0.07955 0.19743 0.0
C324 C 0.25101 0.0608 0.21368 0.0
C325 C 0.22969 0.0172 0.23282 0.0
H326 H 0.05219 0.26238 0.83473 0.0
H327 H 0.01546 0.22403 0.68314 0.0
H328 H 0.12675 0.27225 0.81909 0.0
H329 H 0.09018 0.23313 0.66734 0.0
H330 H 0.24727 0.26165 0.78902 0.0
H331 H 0.20262 0.2973 0.76808 0.0
H332 H 0.09364 0.16825 0.71953 0.0
H333 H 0.13749 0.13262 0.74131 0.0
C334 C 0.06106 0.25805 0.79756 0.0
C335 C 0.02853 0.24135 0.76032 0.0
C336 C 0.10381 0.26433 0.78835 0.0
C337 C 0.11348 0.25247 0.7423 0.0
C338 C 0.08309 0.24222 0.70315 0.0
C339 C 0.04048 0.23673 0.7122 0.0
C340 C 0.21395 0.24118 0.77326 0.0
C341 C 0.19502 0.19427 0.76797 0.0
C342 C 0.18894 0.26169 0.76062 0.0
C343 C 0.14529 0.2356 0.7415 0.0
C344 C 0.12773 0.18926 0.73319 0.0
C345 C 0.15225 0.16865 0.74678 0.0
H346 H 0.00154 0.13308 0.22659 0.0
H347 H 0.97927 0.24082 0.27515 0.0
H348 H 0.92275 0.08898 0.20274 0.0
H349 H 0.89989 0.19616 0.2515 0.0
H350 H 0.79099 0.04989 0.32665 0.0
H351 H 0.85296 0.12419 0.30477 0.0
H352 H 0.85102 0.07864 0.15575 0.0
H353 H 0.78758 0.00411 0.17783 0.0
C354 C 0.97987 0.14749 0.23157 0.0
C355 C -0.00417 0.18943 0.25439 0.0
C356 C 0.9351 0.12283 0.21667 0.0
C357 C 0.90549 0.13945 0.22522 0.0
C358 C 0.92235 0.18302 0.24423 0.0
C359 C 0.9674 0.20801 0.25853 0.0
C360 C 0.80276 0.05658 0.2888 0.0
C361 C 0.78652 0.02182 0.25417 0.0
C362 C 0.83753 0.09917 0.27592 0.0
C363 C 0.85717 0.10651 0.22885 0.0
C364 C 0.83642 0.07336 0.19231 0.0
C365 C 0.80085 0.03085 0.20503 0.0
H366 H 0.73069 0.98656 0.8317 0.0
H367 H 0.85561 0.00934 0.76558 0.0
H368 H 0.69701 0.90507 0.81763 0.0
H369 H 0.82159 0.92865 0.75007 0.0
H370 H 0.75593 0.7902 0.71141 0.0
H371 H 0.74618 0.85625 0.70451 0.0
H372 H 0.73795 0.86079 0.86304 0.0
H373 H 0.749 0.796 0.86989 0.0
C374 C 0.75052 0.97405 0.81354 0.0
C375 C 0.79589 0.00348 0.80067 0.0
C376 C 0.7311 0.92791 0.80487 0.0
C377 C 0.75653 0.91132 0.78182 0.0
C378 C 0.80112 0.94114 0.7668 0.0
C379 C 0.82086 0.98692 0.77666 0.0
C380 C 0.75026 0.80443 0.74446 0.0
C381 C 0.7547 0.78969 0.79118 0.0
C382 C 0.74425 0.84167 0.7405 0.0
C383 C 0.74179 0.86332 0.78332 0.0
C384 C 0.73955 0.84426 0.82965 0.0
C385 C 0.74665 0.80786 0.83361 0.0
H386 H 0.73072 0.73926 0.24766 0.0
H387 H 0.82818 0.81512 0.36097 0.0
H388 H 0.77546 0.70457 0.22333 0.0
H389 H 0.87174 0.77894 0.3378 0.0
H390 H 0.9358 0.70359 0.30582 0.0
H391 H 0.85865 0.68804 0.32001 0.0
H392 H 0.86986 0.76939 0.19345 0.0
H393 H 0.94772 0.78672 0.18083 0.0
C394 C 0.76091 0.74733 0.26838 0.0
C395 C 0.77658 0.78016 0.30583 0.0
C396 C 0.78605 0.72721 0.25463 0.0
C397 C 0.8262 0.73866 0.27935 0.0
C398 C 0.84016 0.76905 0.31904 0.0
C399 C 0.81577 0.79015 0.33184 0.0
C400 C 0.92064 0.71575 0.27934 0.0
C401 C 0.9471 0.74668 0.2427 0.0
C402 C 0.87664 0.70675 0.2874 0.0
C403 C 0.85907 0.728 0.25806 0.0
C404 C 0.88295 0.75251 0.21621 0.0
C405 C 0.92738 0.76255 0.20902 0.0
H406 H 0.16207 0.95568 0.69139 0.0
H407 H 0.22057 0.94306 0.82679 0.0
H408 H 0.09894 0.87855 0.70176 0.0
H409 H 0.15729 0.86646 0.83785 0.0
H410 H -0.0004 0.81892 0.87227 0.0
H411 H 0.07961 0.86807 0.85329 0.0
H412 H 0.06592 0.78911 0.72366 0.0
H413 H 0.98603 0.73905 0.74321 0.0
C414 C 0.16243 0.93543 0.7219 0.0
C415 C 0.19513 0.95471 0.75878 0.0
C416 C 0.1266 0.89145 0.72782 0.0
C417 C 0.1233 0.86734 0.77104 0.0
C418 C 0.15932 0.88471 0.80441 0.0
C419 C 0.19527 0.92836 0.79816 0.0
C420 C 0.01394 0.81152 0.84041 0.0
C421 C 0.98682 0.77564 0.80902 0.0
C422 C 0.05967 0.83917 0.82985 0.0
C423 C 0.07856 0.83178 0.78727 0.0
C424 C 0.05194 0.79488 0.75692 0.0
C425 C 0.00641 0.76656 0.76811 0.0
H426 H 0.33705 0.2578 0.19374 0.0
H427 H 0.32713 0.33395 0.07188 0.0
H428 H 0.33972 0.20443 0.13578 0.0
H429 H 0.3315 0.28141 1.01437 0.0
H430 H 0.24743 0.11431 0.98065 0.0
H431 H 0.26581 0.15532 0.05863 0.0
H432 H 0.39843 0.25039 1.0032 0.0
H433 H 0.38085 0.20947 0.92563 0.0
C434 C 0.33635 0.26364 0.15463 0.0
C435 C 0.33154 0.29979 0.13707 0.0
C436 C 0.33799 0.2332 0.12181 0.0
C437 C 0.3363 0.23956 0.07125 0.0
C438 C 0.33337 0.27656 0.05357 0.0
C439 C 0.33062 0.30632 0.08629 0.0
C440 C 0.28122 0.14263 0.98597 0.0
C441 C 0.31213 0.15992 0.94673 0.0
C442 C 0.29175 0.16583 0.0306 0.0
C443 C 0.33312 0.20603 0.03589 0.0
C444 C 0.3663 0.21942 0.99936 0.0
C445 C 0.35596 0.19624 0.955 0.0
H446 H 0.08146 0.36596 0.67171 0.0
H447 H 0.96928 0.25501 0.59678 0.0
H448 H 0.13444 0.35612 0.61915 0.0
H449 H 0.02183 0.24496 0.54561 0.0
H450 H 0.11184 0.21669 0.46882 0.0
H451 H 0.08774 0.22591 0.55073 0.0
H452 H 0.14164 0.36791 0.522 0.0
H453 H 0.16541 0.35882 0.44031 0.0
C454 C 0.0682 0.33946 0.64425 0.0
C455 C 0.02131 0.31189 0.63747 0.0
C456 C 0.09842 0.33355 0.61484 0.0
C457 C 0.08204 0.29931 0.57925 0.0
C458 C 0.03526 0.27095 0.57365 0.0
C459 C 0.00519 0.27739 0.60217 0.0
C460 C 0.12024 0.25018 0.48085 0.0
C461 C 0.13885 0.28675 0.44794 0.0
C462 C 0.10661 0.25544 0.52765 0.0
C463 C 0.1121 0.29736 0.54182 0.0
C464 C 0.13699 0.33524 0.51173 0.0
C465 C 0.15008 0.32991 0.46482 0.0
H466 H 0.7343 0.06951 0.20599 0.0
H467 H 0.65654 0.99015 0.08129 0.0
H468 H 0.78529 0.13009 0.15031 0.0
H469 H 0.70685 0.0513 0.02608 0.0
H470 H 0.77147 0.17181 0.94109 0.0
H471 H 0.73056 0.14261 1.01818 0.0
H472 H 0.83761 0.12232 0.07264 0.0
H473 H 0.87872 0.15106 0.99524 0.0
C474 C 0.72782 0.06531 0.16674 0.0
C475 C 0.6916 0.02524 0.14762 0.0
C476 C 0.75683 0.09996 0.13525 0.0
C477 C 0.74904 0.09535 0.08455 0.0
C478 C 0.71264 0.05563 0.06545 0.0
C479 C 0.68429 0.02059 0.09677 0.0
C480 C 0.78723 0.1629 0.97023 0.0
C481 C 0.82714 0.16163 0.96162 0.0
C482 C 0.76392 0.14651 1.01429 0.0
C483 C 0.78071 0.12937 0.05011 0.0
C484 C 0.82419 0.13527 0.04499 0.0
C485 C 0.84754 0.15154 1.00069 0.0
H486 H 0.72619 0.73031 0.62111 0.0
H487 H 0.60025 0.70172 0.6897 0.0
H488 H 0.72659 0.79068 0.57373 0.0
H489 H 0.60011 0.762 0.64078 0.0
H490 H 0.73472 0.89639 0.49552 0.0
H491 H 0.72559 0.86784 0.57945 0.0
H492 H 0.59357 0.75699 0.54265 0.0
H493 H 0.60254 0.78499 0.45879 0.0
C494 C 0.69863 0.73706 0.62601 0.0
C495 C 0.66262 0.7108 0.65791 0.0
C496 C 0.69938 0.77227 0.59986 0.0
C497 C 0.66366 0.78126 0.60438 0.0
C498 C 0.62826 0.75598 0.63745 0.0
C499 C 0.62809 0.72129 0.66468 0.0
C500 C 0.70294 0.86701 0.50585 0.0
C501 C 0.6703 0.84136 0.47023 0.0
C502 C 0.69762 0.85103 0.554 0.0
C503 C 0.65956 0.80965 0.56662 0.0
C504 C 0.62342 0.78882 0.5335 0.0
C505 C 0.62888 0.80448 0.48527 0.0
H506 H 0.82045 0.5783 0.93016 0.0
H507 H 0.82181 0.69189 1.00193 0.0
H508 H 0.84365 0.55909 1.00678 0.0
H509 H 0.84515 0.67258 0.07825 0.0
H510 H 0.90523 0.63867 0.20514 0.0
H511 H 0.8434 0.62 0.14767 0.0
H512 H 0.9263 0.61801 0.02827 0.0
H513 H 0.98806 0.63702 0.08533 0.0
C514 C 0.82403 0.59816 0.9627 0.0
C515 C 0.82171 0.63796 0.95968 0.0
C516 C 0.83698 0.5869 1.00653 0.0
C517 C 0.84756 0.61531 0.04751 0.0
C518 C 0.83755 0.65041 0.04683 0.0
C519 C 0.82458 0.66171 1.00296 0.0
C520 C 0.90985 0.63345 0.16669 0.0
C521 C 0.95147 0.63977 0.14928 0.0
C522 C 0.87443 0.6225 0.13411 0.0
C523 C 0.87997 0.61693 0.08396 0.0
C524 C 0.92086 0.62112 0.06707 0.0
C525 C 0.95646 0.63277 0.09944 0.0
H526 H 0.26751 0.89967 0.66795 0.0
H527 H 0.2721 0.01625 0.60004 0.0
H528 H 0.20371 0.85009 0.61456 0.0
H529 H 0.20885 0.96737 0.54821 0.0
H530 H 0.09455 0.88541 0.46387 0.0
H531 H 0.12469 0.90444 0.54752 0.0
H532 H 0.20907 0.8461 0.51879 0.0
H533 H 0.17923 0.8272 0.43566 0.0
C534 C 0.25477 0.91457 0.64189 0.0
C535 C 0.27555 0.96167 0.63684 0.0
C536 C 0.21805 0.88633 0.61207 0.0
C537 C 0.20112 0.90502 0.57801 0.0
C538 C 0.22063 0.95205 0.57491 0.0
C539 C 0.25762 0.98006 0.60373 0.0
C540 C 0.11822 0.87515 0.47616 0.0
C541 C 0.13612 0.85664 0.44307 0.0
C542 C 0.13518 0.88575 0.52397 0.0
C543 C 0.16977 0.8775 0.53889 0.0
C544 C 0.18249 0.85286 0.50809 0.0
C545 C 0.16595 0.84274 0.46028 0.0
H546 H 0.76827 0.74402 0.9339 0.0
H547 H 0.62677 0.64362 0.93502 0.0
H548 H 0.75518 0.78258 1.00365 0.0
H549 H 0.61341 0.68207 1.00146 0.0
H550 H 0.60002 0.73223 0.15063 0.0
H551 H 0.61675 0.6978 0.08219 0.0
H552 H 0.72553 0.82839 0.03714 0.0
H553 H 0.70926 0.86288 0.10849 0.0
C554 C 0.7346 0.72943 0.9494 0.0
C555 C 0.69889 0.68975 0.92836 0.0
C556 C 0.72674 0.75219 0.98916 0.0
C557 C 0.68291 0.73613 1.00964 0.0
C558 C 0.64789 0.69599 0.9888 0.0
C559 C 0.65569 0.67353 0.94976 0.0
C560 C 0.62673 0.75417 0.12544 0.0
C561 C 0.65207 0.80093 0.13515 0.0
C562 C 0.63668 0.73412 0.08552 0.0
C563 C 0.6727 0.75957 0.05241 0.0
C564 C 0.69769 0.80686 0.06124 0.0
C565 C 0.68764 0.82711 0.10181 0.0
H566 H -0.00556 0.65799 0.4479 0.0
H567 H -0.00804 0.77763 0.40406 0.0
H568 H 0.94332 0.64637 0.51557 0.0
H569 H 0.93902 0.76548 0.47213 0.0
H570 H 0.86801 0.74471 0.62883 0.0
H571 H 0.91854 0.76262 0.55746 0.0
H572 H 0.8692 0.62044 0.53675 0.0
H573 H 0.8203 0.60336 0.60859 0.0
C574 C 0.98344 0.68243 0.453 0.0
C575 C -0.00163 0.71914 0.41999 0.0
C576 C 0.953 0.67522 0.49186 0.0
C577 C 0.93502 0.70399 0.49981 0.0
C578 C 0.95144 0.7421 0.46806 0.0
C579 C 0.98243 0.74949 0.4289 0.0
C580 C 0.86655 0.71713 0.60775 0.0
C581 C 0.83822 0.67223 0.62402 0.0
C582 C 0.89628 0.72749 0.56677 0.0
C583 C 0.89954 0.69338 0.54062 0.0
C584 C 0.86942 0.64835 0.55574 0.0
C585 C 0.84004 0.63816 0.59666 0.0
H586 H 0.33554 0.98561 0.9321 0.0
H587 H 0.22084 0.00212 0.90367 0.0
H588 H 0.29529 0.93402 0.99912 0.0
H589 H 0.17884 0.94828 0.97001 0.0
H590 H 0.12374 0.87117 0.11939 0.0
H591 H 0.15905 0.92209 0.0496 0.0
H592 H 0.24496 0.86461 0.02635 0.0
H593 H 0.21083 0.8157 0.09776 0.0
C594 C 0.30164 0.97867 0.94052 0.0
C595 C 0.28228 -0.00071 0.91219 0.0
C596 C 0.27774 0.94783 0.97893 0.0
C597 C 0.23246 0.93483 0.99077 0.0
C598 C 0.2134 0.95667 0.96332 0.0
C599 C 0.23781 0.98829 0.92504 0.0
C600 C 0.14882 0.86798 0.09804 0.0
C601 C 0.16263 0.83729 0.11368 0.0
C602 C 0.16989 0.89804 0.05784 0.0
C603 C 0.20623 0.89923 0.03127 0.0
C604 C 0.21832 0.86671 0.04558 0.0
C605 C 0.19759 0.83711 0.08616 0.0
H606 H 0.24739 0.12211 0.61566 0.0
H607 H 0.38879 0.21862 0.59907 0.0
H608 H 0.22992 0.15571 0.5455 0.0
H609 H 0.37228 0.25119 0.52771 0.0
H610 H 0.33431 0.33812 0.43917 0.0
H611 H 0.34642 0.29845 0.50611 0.0
H612 H 0.22674 0.17508 0.46311 0.0
H613 H 0.2139 0.21615 0.39651 0.0
C614 C 0.27514 0.14906 0.59541 0.0
C615 C 0.31985 0.16628 0.6124 0.0
C616 C 0.26503 0.169 0.55515 0.0
C617 C 0.29926 0.20737 0.53032 0.0
C618 C 0.34426 0.22278 0.54586 0.0
C619 C 0.35417 0.20315 0.58633 0.0
C620 C 0.30986 0.30268 0.44447 0.0
C621 C 0.27271 0.2809 0.41223 0.0
C622 C 0.31735 0.27934 0.48274 0.0
C623 C 0.28856 0.23253 0.49039 0.0
C624 C 0.2501 0.21091 0.4593 0.0
C625 C 0.24231 0.23465 0.42099 0.0
H626 H 0.17458 0.39536 0.09565 0.0
H627 H 0.10405 0.25305 0.12643 0.0
H628 H 0.12616 0.38226 0.02419 0.0
H629 H 0.05382 0.23949 0.057 0.0
H630 H 0.97539 0.22094 0.91196 0.0
H631 H 0.02842 0.23133 0.97806 0.0
H632 H 0.05904 0.36933 0.99532 0.0
H633 H 0.00799 0.35911 0.92829 0.0
C634 C 0.14975 0.36095 0.08617 0.0
C635 C 0.14506 0.32521 0.11612 0.0
C636 C 0.12061 0.35325 0.04556 0.0
C637 C 0.08437 0.30951 0.0338 0.0
C638 C 0.08092 0.27367 0.0631 0.0
C639 C 0.11041 0.28141 0.1032 0.0
C640 C -0.00725 0.25321 0.93055 0.0
C641 C 0.98643 0.28889 0.91443 0.0
C642 C 0.02385 0.25952 0.96878 0.0
C643 C 0.04978 0.30171 0.99299 0.0
C644 C 0.04176 0.33663 0.97772 0.0
C645 C 0.01137 0.3305 0.93928 0.0
H646 H 0.84655 0.10369 0.63721 0.0
H647 H 0.77179 0.17079 0.60428 0.0
H648 H 0.81164 0.05301 0.56727 0.0
H649 H 0.73792 0.12161 0.53298 0.0
H650 H 0.64327 -0.00051 0.44294 0.0
H651 H 0.68342 0.05052 0.5102 0.0
H652 H 0.79756 0.03153 0.48436 0.0
H653 H 0.756 0.9788 0.41722 0.0
C654 C 0.82417 0.10908 0.61357 0.0
C655 C 0.81354 0.14283 0.62579 0.0
C656 C 0.80355 0.07943 0.57331 0.0
C657 C 0.77084 0.08184 0.54367 0.0
C658 C 0.76183 0.11713 0.55482 0.0
C659 C 0.78228 0.14654 0.59531 0.0
C660 C 0.67668 0.00543 0.45196 0.0
C661 C 0.69575 0.98409 0.42431 0.0
C662 C 0.70039 0.03574 0.49049 0.0
C663 C 0.74489 0.047 0.50316 0.0
C664 C 0.76353 0.02431 0.47663 0.0
C665 C 0.73942 -0.00655 0.438 0.0
loop_
_geom_bond_atom_site_label_1
_geom_bond_atom_site_label_2
_geom_bond_distance
_geom_bond_site_symmetry_2
_ccdc_geom_bond_type
C0 O27 1.312 . S
C0 O28 1.208 . S
C1 O22 1.331 . S
C1 O25 1.244 1_655 S
C2 O24 1.264 . S
C2 O26 1.273 . S
Mg3 O5 1.936 . S
Mg3 O12 2.081 . S
Mg3 O14 2.023 . S
Mg3 O18 2.031 . S
Mg3 O27 2.291 . S
Mg4 O5 1.963 . S
Mg4 O15 1.942 . S
Mg4 O16 1.955 . S
Mg4 O23 1.986 . S
O5 Mg3 1.936 . S
O5 Mg4 1.963 . S
O5 Mg6 1.915 . S
Mg6 O5 1.915 . S
Mg6 O7 1.915 . S
Mg6 O11 2.013 . S
Mg6 O17 2.114 . S
Mg6 O21 2.013 . S
Mg6 O27 2.114 . S
O7 Mg6 1.915 . S
O7 Mg8 1.936 . S
O7 Mg9 1.963 . S
Mg8 O7 1.936 . S
Mg8 O17 2.291 . S
Mg8 O22 2.081 1_455 S
Mg8 O24 2.023 . S
Mg8 O28 2.031 . S
Mg9 O7 1.963 . S
Mg9 O13 1.986 . S
Mg9 O25 1.942 . S
Mg9 O26 1.955 . S
C10 O21 1.191 . S
C10 O23 1.307 . S
O11 Mg6 2.013 . S
O11 C30 1.191 . S
O12 Mg3 2.081 . S
O12 C20 1.331 . S
O13 Mg9 1.986 . S
O13 C30 1.307 . S
O14 Mg3 2.023 . S
O14 C29 1.264 . S
O15 Mg4 1.942 . S
O15 C20 1.244 . S
O16 Mg4 1.955 . S
O16 C29 1.273 . S
O17 Mg6 2.114 . S
O17 Mg8 2.291 . S
O17 C19 1.312 . S
O18 Mg3 2.031 . S
O18 C19 1.208 . S
C19 O17 1.312 . S
C19 O18 1.208 . S
C20 O12 1.331 . S
C20 O15 1.244 . S
O21 Mg6 2.013 . S
O21 C10 1.191 . S
O22 C1 1.331 . S
O22 Mg8 2.081 1_655 S
O23 Mg4 1.986 . S
O23 C10 1.307 . S
O24 C2 1.264 . S
O24 Mg8 2.023 . S
O25 C1 1.244 1_455 S
O25 Mg9 1.942 . S
O26 C2 1.273 . S
O26 Mg9 1.955 . S
O27 C0 1.312 . S
O27 Mg3 2.291 . S
O27 Mg6 2.114 . S
O28 C0 1.208 . S
O28 Mg8 2.031 . S
C29 O14 1.264 . S
C29 O16 1.273 . S
C30 O11 1.191 . S
C30 O13 1.307 . S
C31 O58 1.312 . S
C31 O59 1.208 . S
C32 O53 1.331 . S
C32 O56 1.244 . S
C33 O55 1.264 . S
C33 O57 1.273 . S
Mg34 O36 1.936 . S
Mg34 O43 2.081 1_545 S
Mg34 O45 2.023 . S
Mg34 O49 2.031 . S
Mg34 O58 2.291 . S
Mg35 O36 1.963 . S
Mg35 O46 1.942 . S
Mg35 O47 1.955 . S
Mg35 O54 1.986 . S
O36 Mg34 1.936 . S
O36 Mg35 1.963 . S
O36 Mg37 1.915 . S
Mg37 O36 1.915 . S
Mg37 O38 1.915 . S
Mg37 O42 2.013 . S
Mg37 O48 2.114 . S
Mg37 O52 2.013 . S
Mg37 O58 2.114 . S
O38 Mg37 1.915 . S
O38 Mg39 1.936 . S
O38 Mg40 1.963 . S
Mg39 O38 1.936 . S
Mg39 O48 2.291 . S
Mg39 O53 2.081 . S
Mg39 O55 2.023 . S
Mg39 O59 2.031 . S
Mg40 O38 1.963 . S
Mg40 O44 1.986 . S
Mg40 O56 1.942 . S
Mg40 O57 1.955 . S
C41 O52 1.191 . S
C41 O54 1.307 . S
O42 Mg37 2.013 . S
O42 C61 1.191 . S
O43 Mg34 2.081 1_565 S
O43 C51 1.331 . S
O44 Mg40 1.986 . S
O44 C61 1.307 . S
O45 Mg34 2.023 . S
O45 C60 1.264 . S
O46 Mg35 1.942 . S
O46 C51 1.244 1_545 S
O47 Mg35 1.955 . S
O47 C60 1.273 . S
O48 Mg37 2.114 . S
O48 Mg39 2.291 . S
O48 C50 1.312 . S
O49 Mg34 2.031 . S
O49 C50 1.208 . S
C50 O48 1.312 . S
C50 O49 1.208 . S
C51 O43 1.331 . S
C51 O46 1.244 1_565 S
O52 Mg37 2.013 . S
O52 C41 1.191 . S
O53 C32 1.331 . S
O53 Mg39 2.081 . S
O54 Mg35 1.986 . S
O54 C41 1.307 . S
O55 C33 1.264 . S
O55 Mg39 2.023 . S
O56 C32 1.244 . S
O56 Mg40 1.942 . S
O57 C33 1.273 . S
O57 Mg40 1.955 . S
O58 C31 1.312 . S
O58 Mg34 2.291 . S
O58 Mg37 2.114 . S
O59 C31 1.208 . S
O59 Mg39 2.031 . S
C60 O45 1.264 . S
C60 O47 1.273 . S
C61 O42 1.191 . S
C61 O44 1.307 . S
C62 O89 1.312 . S
C62 O90 1.208 . S
C63 O84 1.331 . S
C63 O87 1.244 . S
C64 O86 1.264 . S
C64 O88 1.273 . S
Mg65 O67 1.936 . S
Mg65 O74 2.081 . S
Mg65 O76 2.023 . S
Mg65 O80 2.031 . S
Mg65 O89 2.291 . S
Mg66 O67 1.963 . S
Mg66 O77 1.942 . S
Mg66 O78 1.955 . S
Mg66 O85 1.986 . S
O67 Mg65 1.936 . S
O67 Mg66 1.963 . S
O67 Mg68 1.915 . S
Mg68 O67 1.915 . S
Mg68 O69 1.915 . S
Mg68 O73 2.013 . S
Mg68 O79 2.114 . S
Mg68 O83 2.013 . S
Mg68 O89 2.114 . S
O69 Mg68 1.915 . S
O69 Mg70 1.936 . S
O69 Mg71 1.963 . S
Mg70 O69 1.936 . S
Mg70 O79 2.291 . S
Mg70 O84 2.081 . S
Mg70 O86 2.023 . S
Mg70 O90 2.031 . S
Mg71 O69 1.963 . S
Mg71 O75 1.986 . S
Mg71 O87 1.942 . S
Mg71 O88 1.955 . S
C72 O83 1.191 . S
C72 O85 1.307 . S
O73 Mg68 2.013 . S
O73 C92 1.191 . S
O74 Mg65 2.081 . S
O74 C82 1.331 . S
O75 Mg71 1.986 . S
O75 C92 1.307 . S
O76 Mg65 2.023 . S
O76 C91 1.264 . S
O77 Mg66 1.942 . S
O77 C82 1.244 . S
O78 Mg66 1.955 . S
O78 C91 1.273 . S
O79 Mg68 2.114 . S
O79 Mg70 2.291 . S
O79 C81 1.312 . S
O80 Mg65 2.031 . S
O80 C81 1.208 . S
C81 O79 1.312 . S
C81 O80 1.208 . S
C82 O74 1.331 . S
C82 O77 1.244 . S
O83 Mg68 2.013 . S
O83 C72 1.191 . S
O84 C63 1.331 . S
O84 Mg70 2.081 . S
O85 Mg66 1.986 . S
O85 C72 1.307 . S
O86 C64 1.264 . S
O86 Mg70 2.023 . S
O87 C63 1.244 . S
O87 Mg71 1.942 . S
O88 C64 1.273 . S
O88 Mg71 1.955 . S
O89 C62 1.312 . S
O89 Mg65 2.291 . S
O89 Mg68 2.114 . S
O90 C62 1.208 . S
O90 Mg70 2.031 . S
C91 O76 1.264 . S
C91 O78 1.273 . S
C92 O73 1.191 . S
C92 O75 1.307 . S
C93 O120 1.312 . S
C93 O121 1.208 . S
C94 O115 1.331 . S
C94 O118 1.244 . S
C95 O117 1.264 . S
C95 O119 1.273 . S
Mg96 O98 1.936 . S
Mg96 O105 2.081 1_655 S
Mg96 O107 2.023 . S
Mg96 O111 2.031 . S
Mg96 O120 2.291 . S
Mg97 O98 1.963 . S
Mg97 O108 1.942 . S
Mg97 O109 1.955 . S
Mg97 O116 1.986 . S
O98 Mg96 1.936 . S
O98 Mg97 1.963 . S
O98 Mg99 1.915 . S
Mg99 O98 1.915 . S
Mg99 O100 1.915 . S
Mg99 O104 2.013 . S
Mg99 O110 2.114 . S
Mg99 O114 2.013 . S
Mg99 O120 2.114 . S
O100 Mg99 1.915 . S
O100 Mg101 1.936 . S
O100 Mg102 1.963 . S
Mg101 O100 1.936 . S
Mg101 O110 2.291 . S
Mg101 O115 2.081 . S
Mg101 O117 2.023 . S
Mg101 O121 2.031 . S
Mg102 O100 1.963 . S
Mg102 O106 1.986 . S
Mg102 O118 1.942 . S
Mg102 O119 1.955 . S
C103 O114 1.191 . S
C103 O116 1.307 . S
O104 Mg99 2.013 . S
O104 C123 1.191 . S
O105 Mg96 2.081 1_455 S
O105 C113 1.331 . S
O106 Mg102 1.986 . S
O106 C123 1.307 . S
O107 Mg96 2.023 . S
O107 C122 1.264 . S
O108 Mg97 1.942 . S
O108 C113 1.244 1_655 S
O109 Mg97 1.955 . S
O109 C122 1.273 . S
O110 Mg99 2.114 . S
O110 Mg101 2.291 . S
O110 C112 1.312 . S
O111 Mg96 2.031 . S
O111 C112 1.208 . S
C112 O110 1.312 . S
C112 O111 1.208 . S
C113 O105 1.331 . S
C113 O108 1.244 1_455 S
O114 Mg99 2.013 . S
O114 C103 1.191 . S
O115 C94 1.331 . S
O115 Mg101 2.081 . S
O116 Mg97 1.986 . S
O116 C103 1.307 . S
O117 C95 1.264 . S
O117 Mg101 2.023 . S
O118 C94 1.244 . S
O118 Mg102 1.942 . S
O119 C95 1.273 . S
O119 Mg102 1.955 . S
O120 C93 1.312 . S
O120 Mg96 2.291 . S
O120 Mg99 2.114 . S
O121 C93 1.208 . S
O121 Mg101 2.031 . S
C122 O107 1.264 . S
C122 O109 1.273 . S
C123 O104 1.191 . S
C123 O106 1.307 . S
C124 O151 1.312 . S
C124 O152 1.208 . S
C125 O146 1.331 . S
C125 O149 1.244 1_545 S
C126 O148 1.264 . S
C126 O150 1.273 . S
Mg127 O129 1.936 . S
Mg127 O136 2.081 . S
Mg127 O138 2.023 . S
Mg127 O142 2.031 . S
Mg127 O151 2.291 . S
Mg128 O129 1.963 . S
Mg128 O139 1.942 . S
Mg128 O140 1.955 . S
Mg128 O147 1.986 . S
O129 Mg127 1.936 . S
O129 Mg128 1.963 . S
O129 Mg130 1.915 . S
Mg130 O129 1.915 . S
Mg130 O131 1.915 . S
Mg130 O135 2.013 . S
Mg130 O141 2.114 . S
Mg130 O145 2.013 . S
Mg130 O151 2.114 . S
O131 Mg130 1.915 . S
O131 Mg132 1.936 . S
O131 Mg133 1.963 . S
Mg132 O131 1.936 . S
Mg132 O141 2.291 . S
Mg132 O146 2.081 1_565 S
Mg132 O148 2.023 . S
Mg132 O152 2.031 . S
Mg133 O131 1.963 . S
Mg133 O137 1.986 . S
Mg133 O149 1.942 . S
Mg133 O150 1.955 . S
C134 O145 1.191 . S
C134 O147 1.307 . S
O135 Mg130 2.013 . S
O135 C154 1.191 . S
O136 Mg127 2.081 . S
O136 C144 1.331 . S
O137 Mg133 1.986 . S
O137 C154 1.307 . S
O138 Mg127 2.023 . S
O138 C153 1.264 . S
O139 Mg128 1.942 . S
O139 C144 1.244 . S
O140 Mg128 1.955 . S
O140 C153 1.273 . S
O141 Mg130 2.114 . S
O141 Mg132 2.291 . S
O141 C143 1.312 . S
O142 Mg127 2.031 . S
O142 C143 1.208 . S
C143 O141 1.312 . S
C143 O142 1.208 . S
C144 O136 1.331 . S
C144 O139 1.244 . S
O145 Mg130 2.013 . S
O145 C134 1.191 . S
O146 C125 1.331 . S
O146 Mg132 2.081 1_545 S
O147 Mg128 1.986 . S
O147 C134 1.307 . S
O148 C126 1.264 . S
O148 Mg132 2.023 . S
O149 C125 1.244 1_565 S
O149 Mg133 1.942 . S
O150 C126 1.273 . S
O150 Mg133 1.955 . S
O151 C124 1.312 . S
O151 Mg127 2.291 . S
O151 Mg130 2.114 . S
O152 C124 1.208 . S
O152 Mg132 2.031 . S
C153 O138 1.264 . S
C153 O140 1.273 . S
C154 O135 1.191 . S
C154 O137 1.307 . S
C155 O182 1.312 . S
C155 O183 1.208 . S
C156 O177 1.331 . S
C156 O180 1.244 . S
C157 O179 1.264 . S
C157 O181 1.273 . S
Mg158 O160 1.936 . S
Mg158 O167 2.081 . S
Mg158 O169 2.023 . S
Mg158 O173 2.031 . S
Mg158 O182 2.291 . S
Mg159 O160 1.963 . S
Mg159 O170 1.942 . S
Mg159 O171 1.955 . S
Mg159 O178 1.986 . S
O160 Mg158 1.936 . S
O160 Mg159 1.963 . S
O160 Mg161 1.915 . S
Mg161 O160 1.915 . S
Mg161 O162 1.915 . S
Mg161 O166 2.013 . S
Mg161 O172 2.114 . S
Mg161 O176 2.013 . S
Mg161 O182 2.114 . S
O162 Mg161 1.915 . S
O162 Mg163 1.936 . S
O162 Mg164 1.963 . S
Mg163 O162 1.936 . S
Mg163 O172 2.291 . S
Mg163 O177 2.081 . S
Mg163 O179 2.023 . S
Mg163 O183 2.031 . S
Mg164 O162 1.963 . S
Mg164 O168 1.986 . S
Mg164 O180 1.942 . S
Mg164 O181 1.955 . S
C165 O176 1.191 . S
C165 O178 1.307 . S
O166 Mg161 2.013 . S
O166 C185 1.191 . S
O167 Mg158 2.081 . S
O167 C175 1.331 . S
O168 Mg164 1.986 . S
O168 C185 1.307 . S
O169 Mg158 2.023 . S
O169 C184 1.264 . S
O170 Mg159 1.942 . S
O170 C175 1.244 . S
O171 Mg159 1.955 . S
O171 C184 1.273 . S
O172 Mg161 2.114 . S
O172 Mg163 2.291 . S
O172 C174 1.312 . S
O173 Mg158 2.031 . S
O173 C174 1.208 . S
C174 O172 1.312 . S
C174 O173 1.208 . S
C175 O167 1.331 . S
C175 O170 1.244 . S
O176 Mg161 2.013 . S
O176 C165 1.191 . S
O177 C156 1.331 . S
O177 Mg163 2.081 . S
O178 Mg159 1.986 . S
O178 C165 1.307 . S
O179 C157 1.264 . S
O179 Mg163 2.023 . S
O180 C156 1.244 . S
O180 Mg164 1.942 . S
O181 C157 1.273 . S
O181 Mg164 1.955 . S
O182 C155 1.312 . S
O182 Mg158 2.291 . S
O182 Mg161 2.114 . S
O183 C155 1.208 . S
O183 Mg163 2.031 . S
C184 O169 1.264 . S
C184 O171 1.273 . S
C185 O166 1.191 . S
C185 O168 1.307 . S
H186 C194 0.950 . S
H187 C199 0.950 . S
H188 C196 0.950 . S
H189 C198 0.950 . S
H190 C200 0.950 . S
H191 C202 0.950 . S
H192 C204 0.950 . S
H193 C205 0.950 . S
C194 H186 0.950 . S
C194 C195 1.386 . S
C194 C196 1.391 . S
C195 C194 1.386 . S
C195 C199 1.393 . S
C196 H188 0.950 . S
C196 C194 1.391 . S
C196 C197 1.400 . S
C197 C196 1.400 . S
C197 C198 1.398 . S
C197 C203 1.491 . S
C198 H189 0.950 . S
C198 C197 1.398 . S
C198 C199 1.391 . S
C199 H187 0.950 . S
C199 C195 1.393 . S
C199 C198 1.391 . S
C200 H190 0.950 . S
C200 C201 1.386 . S
C200 C202 1.391 . S
C201 C200 1.386 . S
C201 C205 1.393 . S
C202 H191 0.950 . S
C202 C200 1.391 . S
C202 C203 1.400 . S
C203 C197 1.491 . S
C203 C202 1.400 . S
C203 C204 1.398 . S
C204 H192 0.950 . S
C204 C203 1.398 . S
C204 C205 1.391 . S
C205 H193 0.950 . S
C205 C201 1.393 . S
C205 C204 1.391 . S
H206 C214 0.950 . S
H207 C219 0.950 . S
H208 C216 0.950 . S
H209 C218 0.950 . S
H210 C220 0.950 . S
H211 C222 0.950 . S
H212 C224 0.950 . S
H213 C225 0.950 . S
C214 H206 0.950 . S
C214 C215 1.386 . S
C214 C216 1.391 . S
C215 C214 1.386 . S
C215 C219 1.393 . S
C216 H208 0.950 . S
C216 C214 1.391 . S
C216 C217 1.400 . S
C217 C216 1.400 . S
C217 C218 1.398 . S
C217 C223 1.491 . S
C218 H209 0.950 . S
C218 C217 1.398 . S
C218 C219 1.391 . S
C219 H207 0.950 . S
C219 C215 1.393 . S
C219 C218 1.391 . S
C220 H210 0.950 . S
C220 C221 1.386 . S
C220 C222 1.391 . S
C221 C220 1.386 . S
C221 C225 1.393 . S
C222 H211 0.950 . S
C222 C220 1.391 . S
C222 C223 1.400 . S
C223 C217 1.491 . S
C223 C222 1.400 . S
C223 C224 1.398 . S
C224 H212 0.950 . S
C224 C223 1.398 . S
C224 C225 1.391 . S
C225 H213 0.950 . S
C225 C221 1.393 . S
C225 C224 1.391 . S
H226 C234 0.950 . S
H227 C239 0.950 . S
H228 C236 0.950 . S
H229 C238 0.950 . S
H230 C240 0.950 . S
H231 C242 0.950 . S
H232 C244 0.950 . S
H233 C245 0.950 . S
C234 H226 0.950 . S
C234 C235 1.386 . S
C234 C236 1.391 . S
C235 C234 1.386 . S
C235 C239 1.393 . S
C236 H228 0.950 . S
C236 C234 1.391 . S
C236 C237 1.400 . S
C237 C236 1.400 . S
C237 C238 1.398 . S
C237 C243 1.491 . S
C238 H229 0.950 . S
C238 C237 1.398 . S
C238 C239 1.391 . S
C239 H227 0.950 . S
C239 C235 1.393 . S
C239 C238 1.391 . S
C240 H230 0.950 . S
C240 C241 1.386 . S
C240 C242 1.391 . S
C241 C240 1.386 . S
C241 C245 1.393 . S
C242 H231 0.950 . S
C242 C240 1.391 . S
C242 C243 1.400 . S
C243 C237 1.491 . S
C243 C242 1.400 . S
C243 C244 1.398 . S
C244 H232 0.950 . S
C244 C243 1.398 . S
C244 C245 1.391 . S
C245 H233 0.950 . S
C245 C241 1.393 . S
C245 C244 1.391 . S
H246 C254 0.950 . S
H247 C259 0.950 . S
H248 C256 0.950 . S
H249 C258 0.950 . S
H250 C260 0.950 . S
H251 C262 0.950 . S
H252 C264 0.950 . S
H253 C265 0.950 . S
C254 H246 0.950 . S
C254 C255 1.386 . S
C254 C256 1.391 . S
C255 C254 1.386 . S
C255 C259 1.393 . S
C256 H248 0.950 . S
C256 C254 1.391 . S
C256 C257 1.400 . S
C257 C256 1.400 . S
C257 C258 1.398 . S
C257 C263 1.491 . S
C258 H249 0.950 . S
C258 C257 1.398 . S
C258 C259 1.391 . S
C259 H247 0.950 . S
C259 C255 1.393 . S
C259 C258 1.391 . S
C260 H250 0.950 . S
C260 C261 1.386 . S
C260 C262 1.391 . S
C261 C260 1.386 . S
C261 C265 1.393 . S
C262 H251 0.950 . S
C262 C260 1.391 . S
C262 C263 1.400 . S
C263 C257 1.491 . S
C263 C262 1.400 . S
C263 C264 1.398 . S
C264 H252 0.950 . S
C264 C263 1.398 . S
C264 C265 1.391 . S
C265 H253 0.950 . S
C265 C261 1.393 . S
C265 C264 1.391 . S
H266 C274 0.950 . S
H267 C279 0.950 . S
H268 C276 0.950 . S
H269 C278 0.950 . S
H270 C280 0.950 . S
H271 C282 0.950 . S
H272 C284 0.950 . S
H273 C285 0.950 . S
C274 H266 0.950 . S
C274 C275 1.386 . S
C274 C276 1.391 . S
C275 C274 1.386 . S
C275 C279 1.393 . S
C276 H268 0.950 . S
C276 C274 1.391 . S
C276 C277 1.400 . S
C277 C276 1.400 . S
C277 C278 1.398 . S
C277 C283 1.491 . S
C278 H269 0.950 . S
C278 C277 1.398 . S
C278 C279 1.391 . S
C279 H267 0.950 . S
C279 C275 1.393 . S
C279 C278 1.391 . S
C280 H270 0.950 . S
C280 C281 1.386 . S
C280 C282 1.391 . S
C281 C280 1.386 . S
C281 C285 1.393 . S
C282 H271 0.950 . S
C282 C280 1.391 . S
C282 C283 1.400 . S
C283 C277 1.491 . S
C283 C282 1.400 . S
C283 C284 1.398 . S
C284 H272 0.950 . S
C284 C283 1.398 . S
C284 C285 1.391 . S
C285 H273 0.950 . S
C285 C281 1.393 . S
C285 C284 1.391 . S
H286 C294 0.950 . S
H287 C299 0.950 . S
H288 C296 0.950 . S
H289 C298 0.950 . S
H290 C300 0.950 . S
H291 C302 0.950 . S
H292 C304 0.950 . S
H293 C305 0.950 . S
C294 H286 0.950 . S
C294 C295 1.386 . S
C294 C296 1.391 . S
C295 C294 1.386 . S
C295 C299 1.393 . S
C296 H288 0.950 . S
C296 C294 1.391 . S
C296 C297 1.400 . S
C297 C296 1.400 . S
C297 C298 1.398 . S
C297 C303 1.491 . S
C298 H289 0.950 . S
C298 C297 1.398 . S
C298 C299 1.391 . S
C299 H287 0.950 . S
C299 C295 1.393 . S
C299 C298 1.391 . S
C300 H290 0.950 . S
C300 C301 1.386 . S
C300 C302 1.391 . S
C301 C300 1.386 . S
C301 C305 1.393 . S
C302 H291 0.950 . S
C302 C300 1.391 . S
C302 C303 1.400 . S
C303 C297 1.491 . S
C303 C302 1.400 . S
C303 C304 1.398 . S
C304 H292 0.950 . S
C304 C303 1.398 . S
C304 C305 1.391 . S
C305 H293 0.950 . S
C305 C301 1.393 . S
C305 C304 1.391 . S
H306 C314 0.950 . S
H307 C319 0.950 . S
H308 C316 0.950 . S
H309 C318 0.950 . S
H310 C320 0.950 . S
H311 C322 0.950 . S
H312 C324 0.950 . S
H313 C325 0.956 . S
C314 H306 0.950 . S
C314 C315 1.386 . S
C314 C316 1.391 . S
C315 C314 1.386 . S
C315 C319 1.393 . S
C316 H308 0.950 . S
C316 C314 1.391 . S
C316 C317 1.400 . S
C317 C316 1.400 . S
C317 C318 1.398 . S
C317 C323 1.491 . S
C318 H309 0.950 . S
C318 C317 1.398 . S
C318 C319 1.391 . S
C319 H307 0.950 . S
C319 C315 1.393 . S
C319 C318 1.391 . S
C320 H310 0.950 . S
C320 C321 1.386 . S
C320 C322 1.391 . S
C321 C320 1.386 . S
C321 C325 1.393 . S
C322 H311 0.950 . S
C322 C320 1.391 . S
C322 C323 1.400 . S
C323 C317 1.491 . S
C323 C322 1.400 . S
C323 C324 1.398 . S
C324 H312 0.950 . S
C324 C323 1.398 . S
C324 C325 1.391 . S
C325 H313 0.956 . S
C325 C321 1.393 . S
C325 C324 1.391 . S
H326 C334 0.950 . S
H327 C339 0.950 . S
H328 C336 0.950 . S
H329 C338 0.950 . S
H330 C340 0.950 . S
H331 C342 0.950 . S
H332 C344 0.950 . S
H333 C345 0.950 . S
C334 H326 0.950 . S
C334 C335 1.386 . S
C334 C336 1.391 1_655 S
C335 C334 1.386 . S
C335 C339 1.393 . S
C336 H328 0.950 . S
C336 C334 1.391 1_455 S
C336 C337 1.400 . S
C337 C336 1.400 . S
C337 C338 1.398 . S
C337 C343 1.491 . S
C338 H329 0.950 . S
C338 C337 1.398 . S
C338 C339 1.391 1_455 S
C339 H327 0.950 . S
C339 C335 1.393 . S
C339 C338 1.391 1_655 S
C340 H330 0.950 . S
C340 C341 1.386 . S
C340 C342 1.391 . S
C341 C340 1.386 . S
C341 C345 1.393 . S
C342 H331 0.950 . S
C342 C340 1.391 . S
C342 C343 1.400 . S
C343 C337 1.491 . S
C343 C342 1.400 . S
C343 C344 1.398 . S
C344 H332 0.950 . S
C344 C343 1.398 . S
C344 C345 1.391 . S
C345 H333 0.950 . S
C345 C341 1.393 . S
C345 C344 1.391 . S
H346 C354 0.950 . S
H347 C359 0.925 1_455 S
H348 C356 0.950 . S
H349 C358 0.950 . S
H350 C360 0.950 . S
H351 C362 0.950 1_545 S
H352 C364 0.950 . S
H353 C365 0.950 . S
C354 H346 0.950 . S
C354 C355 1.386 . S
C354 C356 1.391 . S
C355 C354 1.386 . S
C355 C359 1.393 . S
C356 H348 0.950 . S
C356 C354 1.391 . S
C356 C357 1.400 . S
C357 C356 1.400 . S
C357 C358 1.398 . S
C357 C363 1.491 . S
C358 H349 0.950 . S
C358 C357 1.398 . S
C358 C359 1.391 . S
C359 H347 0.925 1_655 S
C359 C355 1.393 . S
C359 C358 1.391 . S
C360 H350 0.950 . S
C360 C361 1.386 . S
C360 C362 1.391 . S
C361 C360 1.386 . S
C361 C365 1.393 . S
C362 H351 0.950 1_565 S
C362 C360 1.391 . S
C362 C363 1.400 1_565 S
C363 C357 1.491 . S
C363 C362 1.400 1_545 S
C363 C364 1.398 . S
C364 H352 0.950 . S
C364 C363 1.398 . S
C364 C365 1.391 1_545 S
C365 H353 0.950 . S
C365 C361 1.393 . S
C365 C364 1.391 1_565 S
H366 C374 0.950 . S
H367 C379 0.950 1_545 S
H368 C376 0.950 . S
H369 C378 0.950 . S
H370 C380 0.950 . S
H371 C382 0.950 . S
H372 C384 0.950 . S
H373 C385 0.950 . S
C374 H366 0.950 . S
C374 C375 1.386 . S
C374 C376 1.391 . S
C375 C374 1.386 . S
C375 C379 1.393 . S
C376 H368 0.950 . S
C376 C374 1.391 . S
C376 C377 1.400 . S
C377 C376 1.400 . S
C377 C378 1.398 . S
C377 C383 1.491 . S
C378 H369 0.950 . S
C378 C377 1.398 . S
C378 C379 1.391 . S
C379 H367 0.950 1_565 S
C379 C375 1.393 . S
C379 C378 1.391 . S
C380 H370 0.950 . S
C380 C381 1.386 . S
C380 C382 1.391 . S
C381 C380 1.386 . S
C381 C385 1.393 . S
C382 H371 0.950 . S
C382 C380 1.391 . S
C382 C383 1.400 . S
C383 C377 1.491 . S
C383 C382 1.400 . S
C383 C384 1.398 . S
C384 H372 0.950 . S
C384 C383 1.398 . S
C384 C385 1.391 . S
C385 H373 0.950 . S
C385 C381 1.393 . S
C385 C384 1.391 . S
H386 C394 0.950 . S
H387 C399 0.950 . S
H388 C396 0.950 . S
H389 C398 0.950 . S
H390 C400 0.950 . S
H391 C402 0.950 . S
H392 C404 0.950 . S
H393 C405 0.950 . S
C394 H386 0.950 . S
C394 C395 1.386 . S
C394 C396 1.391 . S
C395 C394 1.386 . S
C395 C399 1.393 . S
C396 H388 0.950 . S
C396 C394 1.391 . S
C396 C397 1.400 . S
C397 C396 1.400 . S
C397 C398 1.398 . S
C397 C403 1.491 . S
C398 H389 0.950 . S
C398 C397 1.398 . S
C398 C399 1.391 . S
C399 H387 0.950 . S
C399 C395 1.393 . S
C399 C398 1.391 . S
C400 H390 0.950 . S
C400 C401 1.386 . S
C400 C402 1.391 1_455 S
C401 C400 1.386 . S
C401 C405 1.393 . S
C402 H391 0.950 . S
C402 C400 1.391 1_655 S
C402 C403 1.400 . S
C403 C397 1.491 . S
C403 C402 1.400 . S
C403 C404 1.398 . S
C404 H392 0.950 . S
C404 C403 1.398 . S
C404 C405 1.391 1_655 S
C405 H393 0.950 . S
C405 C401 1.393 . S
C405 C404 1.391 1_455 S
H406 C414 0.950 . S
H407 C419 0.950 . S
H408 C416 0.954 1_565 S
H409 C418 0.950 . S
H410 C420 0.950 . S
H411 C422 0.950 . S
H412 C424 0.950 . S
H413 C425 0.950 1_655 S
C414 H406 0.950 . S
C414 C415 1.386 . S
C414 C416 1.402 . S
C415 C414 1.386 . S
C415 C419 1.393 . S
C416 H408 0.954 1_545 S
C416 C414 1.402 . S
C416 C417 1.386 1_545 S
C417 C416 1.386 1_565 S
C417 C418 1.398 . S
C417 C423 1.491 . S
C418 H409 0.950 . S
C418 C417 1.398 . S
C418 C419 1.391 1_565 S
C419 H407 0.950 . S
C419 C415 1.393 . S
C419 C418 1.391 1_545 S
C420 H410 0.950 . S
C420 C421 1.386 . S
C420 C422 1.391 . S
C421 C420 1.386 . S
C421 C425 1.393 . S
C422 H411 0.950 . S
C422 C420 1.391 . S
C422 C423 1.400 . S
C423 C417 1.491 . S
C423 C422 1.400 . S
C423 C424 1.398 . S
C424 H412 0.950 . S
C424 C423 1.398 . S
C424 C425 1.391 . S
C425 H413 0.950 1_455 S
C425 C421 1.393 . S
C425 C424 1.391 . S
H426 C434 0.950 . S
H427 C439 0.950 . S
H428 C436 0.950 . S
H429 C438 0.950 . S
H430 C440 0.950 . S
H431 C442 0.950 . S
H432 C444 0.950 . S
H433 C445 0.950 . S
C434 H426 0.950 . S
C434 C435 1.386 . S
C434 C436 1.391 . S
C435 C434 1.386 . S
C435 C439 1.393 . S
C436 H428 0.950 . S
C436 C434 1.391 . S
C436 C437 1.400 . S
C437 C436 1.400 . S
C437 C438 1.398 . S
C437 C443 1.491 1_554 S
C438 H429 0.950 . S
C438 C437 1.398 . S
C438 C439 1.391 . S
C439 H427 0.950 . S
C439 C435 1.393 . S
C439 C438 1.391 . S
C440 H430 0.950 . S
C440 C441 1.386 . S
C440 C442 1.391 . S
C441 C440 1.386 . S
C441 C445 1.393 . S
C442 H431 0.950 . S
C442 C440 1.391 . S
C442 C443 1.400 . S
C443 C437 1.491 1_556 S
C443 C442 1.400 . S
C443 C444 1.398 . S
C444 H432 0.950 . S
C444 C443 1.398 . S
C444 C445 1.391 . S
C445 H433 0.950 . S
C445 C441 1.393 . S
C445 C444 1.391 . S
H446 C454 0.950 . S
H447 C459 0.950 . S
H448 C456 0.950 . S
H449 C458 0.950 . S
H450 C460 0.950 . S
H451 C462 0.950 . S
H452 C464 0.950 1_655 S
H453 C465 0.950 . S
C454 H446 0.950 . S
C454 C455 1.386 . S
C454 C456 1.391 . S
C455 C454 1.386 . S
C455 C459 1.393 . S
C456 H448 0.950 . S
C456 C454 1.391 . S
C456 C457 1.400 . S
C457 C456 1.400 . S
C457 C458 1.398 . S
C457 C463 1.491 . S
C458 H449 0.950 . S
C458 C457 1.398 . S
C458 C459 1.391 . S
C459 H447 0.950 . S
C459 C455 1.393 . S
C459 C458 1.391 . S
C460 H450 0.950 . S
C460 C461 1.386 . S
C460 C462 1.391 . S
C461 C460 1.386 . S
C461 C465 1.393 . S
C462 H451 0.950 . S
C462 C460 1.391 . S
C462 C463 1.400 1_455 S
C463 C457 1.491 . S
C463 C462 1.400 1_655 S
C463 C464 1.398 1_655 S
C464 H452 0.950 1_455 S
C464 C463 1.398 1_455 S
C464 C465 1.391 . S
C465 H453 0.950 . S
C465 C461 1.393 . S
C465 C464 1.391 . S
H466 C474 0.950 . S
H467 C479 0.950 . S
H468 C476 0.950 1_545 S
H469 C478 0.950 1_556 S
H470 C480 0.950 1_565 S
H471 C482 0.950 . S
H472 C484 0.950 1_554 S
H473 C485 0.950 . S
C474 H466 0.950 . S
C474 C475 1.386 . S
C474 C476 1.391 . S
C475 C474 1.386 . S
C475 C479 1.393 . S
C476 H468 0.950 1_565 S
C476 C474 1.391 . S
C476 C477 1.400 . S
C477 C476 1.400 . S
C477 C478 1.398 . S
C477 C483 1.491 1_554 S
C478 H469 0.950 1_554 S
C478 C477 1.398 . S
C478 C479 1.391 . S
C479 H467 0.950 . S
C479 C475 1.393 . S
C479 C478 1.391 . S
C480 H470 0.950 1_545 S
C480 C481 1.386 . S
C480 C482 1.391 1_545 S
C481 C480 1.386 . S
C481 C485 1.393 . S
C482 H471 0.950 . S
C482 C480 1.391 1_565 S
C482 C483 1.400 . S
C483 C477 1.491 1_556 S
C483 C482 1.400 . S
C483 C484 1.398 1_565 S
C484 H472 0.950 1_556 S
C484 C483 1.398 1_545 S
C484 C485 1.391 . S
C485 H473 0.950 . S
C485 C481 1.393 . S
C485 C484 1.391 . S
H486 C494 0.950 . S
H487 C499 0.950 . S
H488 C496 0.950 . S
H489 C498 0.950 . S
H490 C500 0.950 . S
H491 C502 0.950 . S
H492 C504 0.950 . S
H493 C505 0.950 . S
C494 H486 0.950 . S
C494 C495 1.386 . S
C494 C496 1.391 . S
C495 C494 1.386 . S
C495 C499 1.393 . S
C496 H488 0.950 . S
C496 C494 1.391 . S
C496 C497 1.400 . S
C497 C496 1.400 . S
C497 C498 1.398 . S
C497 C503 1.491 . S
C498 H489 0.950 . S
C498 C497 1.398 . S
C498 C499 1.391 . S
C499 H487 0.950 . S
C499 C495 1.393 . S
C499 C498 1.391 . S
C500 H490 0.950 . S
C500 C501 1.386 . S
C500 C502 1.391 . S
C501 C500 1.386 . S
C501 C505 1.393 . S
C502 H491 0.950 . S
C502 C500 1.391 . S
C502 C503 1.400 . S
C503 C497 1.491 . S
C503 C502 1.400 . S
C503 C504 1.398 . S
C504 H492 0.950 . S
C504 C503 1.398 . S
C504 C505 1.391 . S
C505 H493 0.950 . S
C505 C501 1.393 . S
C505 C504 1.391 . S
H506 C514 0.950 1_455 S
H507 C519 0.950 . S
H508 C516 0.950 . S
H509 C518 0.950 1_554 S
H510 C520 0.950 . S
H511 C522 0.950 1_655 S
H512 C524 0.950 1_556 S
H513 C525 0.950 . S
C514 H506 0.950 1_655 S
C514 C515 1.386 . S
C514 C516 1.391 1_655 S
C515 C514 1.386 . S
C515 C519 1.393 . S
C516 H508 0.950 . S
C516 C514 1.391 1_455 S
C516 C517 1.400 . S
C517 C516 1.400 . S
C517 C518 1.398 1_455 S
C517 C523 1.491 1_556 S
C518 H509 0.950 1_556 S
C518 C517 1.398 1_655 S
C518 C519 1.391 . S
C519 H507 0.950 . S
C519 C515 1.393 . S
C519 C518 1.391 . S
C520 H510 0.950 . S
C520 C521 1.386 . S
C520 C522 1.391 . S
C521 C520 1.386 . S
C521 C525 1.393 . S
C522 H511 0.950 1_455 S
C522 C520 1.391 . S
C522 C523 1.400 . S
C523 C517 1.491 1_554 S
C523 C522 1.400 . S
C523 C524 1.398 . S
C524 H512 0.950 1_554 S
C524 C523 1.398 . S
C524 C525 1.391 . S
C525 H513 0.950 . S
C525 C521 1.393 . S
C525 C524 1.391 . S
H526 C534 0.950 . S
H527 C539 0.950 . S
H528 C536 0.950 . S
H529 C538 0.950 . S
H530 C540 0.950 . S
H531 C542 0.950 1_545 S
H532 C544 0.950 . S
H533 C545 0.950 . S
C534 H526 0.950 . S
C534 C535 1.386 . S
C534 C536 1.391 . S
C535 C534 1.386 . S
C535 C539 1.393 . S
C536 H528 0.950 . S
C536 C534 1.391 . S
C536 C537 1.400 . S
C537 C536 1.400 . S
C537 C538 1.398 . S
C537 C543 1.491 . S
C538 H529 0.950 . S
C538 C537 1.398 . S
C538 C539 1.391 . S
C539 H527 0.950 . S
C539 C535 1.393 . S
C539 C538 1.391 . S
C540 H530 0.950 . S
C540 C541 1.386 . S
C540 C542 1.391 . S
C541 C540 1.386 . S
C541 C545 1.393 . S
C542 H531 0.950 1_565 S
C542 C540 1.391 . S
C542 C543 1.400 1_565 S
C543 C537 1.491 . S
C543 C542 1.400 1_545 S
C543 C544 1.398 1_545 S
C544 H532 0.950 . S
C544 C543 1.398 1_565 S
C544 C545 1.391 . S
C545 H533 0.950 . S
C545 C541 1.393 . S
C545 C544 1.391 . S
H546 C554 0.950 . S
H547 C559 0.950 . S
H548 C556 0.950 . S
H549 C558 0.950 . S
H550 C560 0.950 . S
H551 C562 0.950 . S
H552 C564 0.950 . S
H553 C565 0.950 . S
C554 H546 0.950 . S
C554 C555 1.386 . S
C554 C556 1.391 . S
C555 C554 1.386 . S
C555 C559 1.393 . S
C556 H548 0.950 . S
C556 C554 1.391 . S
C556 C557 1.400 . S
C557 C556 1.400 . S
C557 C558 1.398 . S
C557 C563 1.491 1_556 S
C558 H549 0.950 . S
C558 C557 1.398 . S
C558 C559 1.391 . S
C559 H547 0.950 . S
C559 C555 1.393 . S
C559 C558 1.391 . S
C560 H550 0.950 . S
C560 C561 1.386 . S
C560 C562 1.391 . S
C561 C560 1.386 . S
C561 C565 1.393 . S
C562 H551 0.950 . S
C562 C560 1.391 . S
C562 C563 1.400 . S
C563 C557 1.491 1_554 S
C563 C562 1.400 . S
C563 C564 1.398 . S
C564 H552 0.950 . S
C564 C563 1.398 . S
C564 C565 1.391 . S
C565 H553 0.950 . S
C565 C561 1.393 . S
C565 C564 1.391 . S
H566 C574 0.950 . S
H567 C579 0.950 . S
H568 C576 0.950 . S
H569 C578 0.950 1_655 S
H570 C580 0.950 . S
H571 C582 0.950 . S
H572 C584 0.950 . S
H573 C585 0.954 . S
C574 H566 0.950 . S
C574 C575 1.386 . S
C574 C576 1.391 . S
C575 C574 1.386 . S
C575 C579 1.393 . S
C576 H568 0.950 . S
C576 C574 1.391 . S
C576 C577 1.400 . S
C577 C576 1.400 . S
C577 C578 1.398 . S
C577 C583 1.491 . S
C578 H569 0.950 1_455 S
C578 C577 1.398 . S
C578 C579 1.391 . S
C579 H567 0.950 . S
C579 C575 1.393 . S
C579 C578 1.391 . S
C580 H570 0.950 . S
C580 C581 1.386 . S
C580 C582 1.391 . S
C581 C580 1.386 . S
C581 C585 1.393 . S
C582 H571 0.950 . S
C582 C580 1.391 . S
C582 C583 1.400 1_655 S
C583 C577 1.491 . S
C583 C582 1.400 1_455 S
C583 C584 1.398 . S
C584 H572 0.950 . S
C584 C583 1.398 . S
C584 C585 1.391 1_455 S
C585 H573 0.954 . S
C585 C581 1.393 . S
C585 C584 1.391 1_655 S
H586 C594 0.950 . S
H587 C599 0.950 . S
H588 C596 0.950 1_554 S
H589 C598 0.950 . S
H590 C600 0.950 . S
H591 C602 0.946 1_556 S
H592 C604 0.950 . S
H593 C605 0.950 . S
C594 H586 0.950 . S
C594 C595 1.386 . S
C594 C596 1.391 . S
C595 C594 1.386 . S
C595 C599 1.393 . S
C596 H588 0.950 1_556 S
C596 C594 1.391 . S
C596 C597 1.400 . S
C597 C596 1.400 . S
C597 C598 1.398 . S
C597 C603 1.491 1_556 S
C598 H589 0.950 . S
C598 C597 1.398 . S
C598 C599 1.391 . S
C599 H587 0.950 . S
C599 C595 1.393 . S
C599 C598 1.391 . S
C600 H590 0.950 . S
C600 C601 1.386 . S
C600 C602 1.391 . S
C601 C600 1.386 . S
C601 C605 1.393 . S
C602 H591 0.946 1_554 S
C602 C600 1.391 . S
C602 C603 1.400 1_565 S
C603 C597 1.491 1_554 S
C603 C602 1.400 1_545 S
C603 C604 1.398 . S
C604 H592 0.950 . S
C604 C603 1.398 . S
C604 C605 1.391 1_545 S
C605 H593 0.950 . S
C605 C601 1.393 . S
C605 C604 1.391 1_565 S
H606 C614 0.950 . S
H607 C619 0.950 . S
H608 C616 0.950 . S
H609 C618 0.950 . S
H610 C620 0.950 . S
H611 C622 0.950 . S
H612 C624 0.950 . S
H613 C625 0.950 . S
C614 H606 0.950 . S
C614 C615 1.386 . S
C614 C616 1.391 . S
C615 C614 1.386 . S
C615 C619 1.393 . S
C616 H608 0.950 . S
C616 C614 1.391 . S
C616 C617 1.400 . S
C617 C616 1.400 . S
C617 C618 1.398 . S
C617 C623 1.491 . S
C618 H609 0.950 . S
C618 C617 1.398 . S
C618 C619 1.391 . S
C619 H607 0.950 . S
C619 C615 1.393 . S
C619 C618 1.391 . S
C620 H610 0.950 . S
C620 C621 1.386 . S
C620 C622 1.391 . S
C621 C620 1.386 . S
C621 C625 1.393 . S
C622 H611 0.950 . S
C622 C620 1.391 . S
C622 C623 1.400 . S
C623 C617 1.491 . S
C623 C622 1.400 . S
C623 C624 1.398 . S
C624 H612 0.950 . S
C624 C623 1.398 . S
C624 C625 1.391 . S
C625 H613 0.950 . S
C625 C621 1.393 . S
C625 C624 1.391 . S
H626 C634 0.950 . S
H627 C639 0.950 . S
H628 C636 0.950 . S
H629 C638 0.950 1_556 S
H630 C640 0.950 . S
H631 C642 0.958 . S
H632 C644 0.950 1_554 S
H633 C645 0.950 . S
C634 H626 0.950 . S
C634 C635 1.386 . S
C634 C636 1.391 1_455 S
C635 C634 1.386 . S
C635 C639 1.393 . S
C636 H628 0.950 . S
C636 C634 1.391 1_655 S
C636 C637 1.400 . S
C637 C636 1.400 . S
C637 C638 1.398 1_655 S
C637 C643 1.491 1_554 S
C638 H629 0.950 1_554 S
C638 C637 1.398 1_455 S
C638 C639 1.391 . S
C639 H627 0.950 . S
C639 C635 1.393 . S
C639 C638 1.391 . S
C640 H630 0.950 . S
C640 C641 1.386 . S
C640 C642 1.391 . S
C641 C640 1.386 . S
C641 C645 1.393 . S
C642 H631 0.958 . S
C642 C640 1.391 . S
C642 C643 1.400 . S
C643 C637 1.491 1_556 S
C643 C642 1.400 . S
C643 C644 1.398 . S
C644 H632 0.950 1_556 S
C644 C643 1.398 . S
C644 C645 1.391 . S
C645 H633 0.950 . S
C645 C641 1.393 . S
C645 C644 1.391 . S
H646 C654 0.950 . S
H647 C659 0.950 . S
H648 C656 0.950 1_565 S
H649 C658 0.950 . S
H650 C660 0.950 . S
H651 C662 0.950 . S
H652 C664 0.950 . S
H653 C665 0.950 . S
C654 H646 0.950 . S
C654 C655 1.386 . S
C654 C656 1.391 . S
C655 C654 1.386 . S
C655 C659 1.393 . S
C656 H648 0.950 1_545 S
C656 C654 1.391 . S
C656 C657 1.400 1_545 S
C657 C656 1.400 1_565 S
C657 C658 1.398 1_565 S
C657 C663 1.491 . S
C658 H649 0.950 . S
C658 C657 1.398 1_545 S
C658 C659 1.391 . S
C659 H647 0.950 . S
C659 C655 1.393 . S
C659 C658 1.391 . S
C660 H650 0.950 . S
C660 C661 1.386 . S
C660 C662 1.391 . S
C661 C660 1.386 . S
C661 C665 1.393 . S
C662 H651 0.950 . S
C662 C660 1.391 . S
C662 C663 1.400 . S
C663 C657 1.491 . S
C663 C662 1.400 . S
C663 C664 1.398 . S
C664 H652 0.950 . S
C664 C663 1.398 . S
C664 C665 1.391 . S
C665 H653 0.950 . S
C665 C661 1.393 . S
C665 C664 1.391 . S
C195 C19 1.187 . S
C201 C144 1.283 . S
C215 C156 1.271 . S
C221 C31 1.211 . S
C235 C20 1.263 . S
C241 C81 1.196 . S
C255 C32 1.274 . S
C261 C93 1.166 . S
C275 C143 1.166 . S
C281 C82 1.275 . S
C295 C155 1.182 . S
C301 C94 1.282 . S
C315 C30 1.053 . S
C321 C125 1.049 . S
C335 C41 1.039 . S
C341 C175 1.048 . S
C355 C1 1.064 . S
C361 C92 1.015 . S
C375 C51 1.068 . S
C381 C103 1.013 . S
C395 C63 1.045 . S
C401 C154 1.047 . S
C415 C165 1.050 . S
C421 C113 1.045 . S
C435 C29 1.013 . S
C441 C184 0.979 . S
C455 C33 1.011 . S
C461 C2 0.965 . S
C475 C91 1.014 . S
C481 C60 1.000 . S
C495 C95 1.010 . S
C501 C64 0.959 . S
C515 C122 0.968 . S
C521 C153 1.010 . S
C535 C157 1.012 . S
C541 C126 0.969 . S
C555 C123 2.240 . S
C561 C62 2.278 . S
C575 C134 2.244 . S
C581 C112 2.280 . S
C595 C185 2.250 . S
C601 C124 2.285 . S
C615 C174 2.273 . S
C621 C10 2.236 . S
C635 C0 2.284 . S
C641 C61 2.249 . S
C655 C50 2.273 . S
C661 C72 2.236 . S
