# Generated by pormake.
# Topology kag, (6)-cn, num edge types: 1
# Building blocks:
#     Node 0, Type 0, BuildingBlock: BETDEL_clean_sbu_0, # of connection points: 6
#     Node 1, Type 0, BuildingBlock: BETDEL_clean_sbu_0, # of connection points: 6
#     Node 2, Type 0, BuildingBlock: BETDEL_clean_sbu_0, # of connection points: 6
#     Edge 3, Type (0, 0), BuildingBlock: FUNLAD_clean_linker_0, # of connection points: 2
#     Edge 4, Type (0, 0), BuildingBlock: FUNLAD_clean_linker_0, # of connection points: 2
#     Edge 5, Type (0, 0), BuildingBlock: FUNLAD_clean_linker_0, # of connection points: 2
#     Edge 6, Type (0, 0), BuildingBlock: FUNLAD_clean_linker_0, # of connection points: 2
#     Edge 7, Type (0, 0), BuildingBlock: FUNLAD_clean_linker_0, # of connection points: 2
#     Edge 8, Type (0, 0), BuildingBlock: FUNLAD_clean_linker_0, # of connection points: 2
#     Edge 9, Type (0, 0), BuildingBlock: FUNLAD_clean_linker_0, # of connection points: 2
#     Edge 10, Type (0, 0), BuildingBlock: FUNLAD_clean_linker_0, # of connection points: 2
#     Edge 11, Type (0, 0), BuildingBlock: FUNLAD_clean_linker_0, # of connection points: 2
# Relax obj value: 0.010
# Max RMSD: 0.052
# Mean RMSD: 0.039
data_MOF--net-kag--node1-BETDEL_clean_sbu_0--edge1-FUNLAD_clean_linker_0
_symmetry_space_group_name_H-M    P1
_symmetry_Int_Tables_number       1
_symmetry_cell_setting            triclinic
loop_
_symmetry_equiv_pos_as_xyz
'x, y, z'
_cell_length_a     35.936432
_cell_length_b     38.293922
_cell_length_c     17.023051
_cell_angle_alpha  95.81174
_cell_angle_beta   91.271964
_cell_angle_gamma 114.03124
loop_
_atom_site_label
_atom_site_type_symbol
_atom_site_fract_x
_atom_site_fract_y
_atom_site_fract_z
_atom_type_partial_charge
Dy0 Dy 0.9887 0.46348 1.00467 0.0
C1 C 0.08092 0.62555 0.01795 0.0
C2 C 0.93771 0.38784 0.00895 0.0
Dy3 Dy 0.03033 0.54959 0.02164 0.0
O4 O 0.96014 0.40152 0.95142 0.0
O5 O 0.9438 0.41543 0.06554 0.0
O6 O 0.01537 0.46088 0.88829 0.0
O7 O 0.9985 0.50636 0.92188 0.0
C8 C 0.01485 0.49266 0.86962 0.0
C9 C 1.00376 0.52024 0.15639 0.0
O10 O 0.96791 0.54399 0.98396 0.0
O11 O 0.93584 0.48055 0.00896 0.0
O12 O 0.06039 0.61116 0.07713 0.0
O13 O 0.07328 0.59847 0.95945 0.0
O14 O 1.00313 0.55198 0.13762 0.0
O15 O 0.02046 0.50681 0.1044 0.0
O16 O 0.05022 0.46879 0.045 0.0
O17 O 0.08299 0.5316 0.01667 0.0
C18 C 0.93436 0.51314 0.99295 0.0
C19 C 0.08396 0.49892 0.03408 0.0
Dy20 Dy 0.54783 0.03543 0.00984 0.0
C21 C 0.37931 0.93696 0.01575 0.0
C22 C 0.62656 0.08716 0.99991 0.0
Dy23 Dy 0.45717 0.99025 1.00323 0.0
O24 O 0.61353 0.06561 0.056 0.0
O25 O 0.59663 0.07999 0.94774 0.0
O26 O 0.55387 0.01264 0.1228 0.0
O27 O 0.50249 0.02382 0.09928 0.0
C28 C 0.51923 0.01062 0.14713 0.0
C29 C 0.48571 0.01511 0.86596 0.0
O30 O 0.45826 0.04759 0.04858 0.0
O31 O 0.52423 0.08171 0.01417 0.0
O32 O 0.39142 0.95762 0.95796 0.0
O33 O 0.40958 0.94614 0.06825 0.0
O34 O 0.45089 0.0128 0.89 0.0
O35 O 0.50239 1.00188 0.91385 0.0
O36 O 0.54677 0.97875 0.96154 0.0
O37 O 0.48144 0.94419 0.99812 0.0
C38 C 0.48866 0.08045 0.03684 0.0
C39 C 0.51692 0.94577 0.97401 0.0
Dy40 Dy 0.52935 0.56014 0.00762 0.0
C41 C 0.48542 0.4 0.00798 0.0
C42 C 0.54123 0.635 1.00108 0.0
Dy43 Dy 0.49885 0.47521 0.99927 0.0
O44 O 0.53426 0.61746 0.06382 0.0
O45 O 0.54231 0.61173 0.94091 0.0
O46 O 0.56307 0.56625 0.12348 0.0
O47 O 0.50592 0.51974 0.09637 0.0
C48 C 0.53596 0.53544 0.1472 0.0
C49 C 0.49215 0.49979 0.85957 0.0
O50 O 0.44003 0.4792 0.02599 0.0
O51 O 0.46155 0.54044 0.98897 0.0
O52 O 0.49282 0.41718 0.94478 0.0
O53 O 0.48504 0.42391 0.06758 0.0
O54 O 0.46516 0.46885 0.88316 0.0
O55 O 0.52217 0.51544 0.91045 0.0
O56 O 0.58778 0.55694 0.97832 0.0
O57 O 0.5674 0.49539 0.01363 0.0
C58 C 0.43231 0.50855 0.00811 0.0
C59 C 0.59614 0.52773 0.99433 0.0
C60 C 0.03022 0.48087 0.73011 0.0
C61 C 0.01845 0.50249 0.78787 0.0
C62 C 0.02927 0.48689 0.65074 0.0
C63 C 0.01631 0.51461 0.62753 0.0
C64 C 1.00664 0.53761 0.686 0.0
C65 C 1.00751 0.53151 0.76551 0.0
C66 C 0.01277 0.52045 0.54326 0.0
C67 C 1.00541 0.49237 0.48271 0.0
C68 C 1.00194 0.49821 0.39843 0.0
C69 C 0.01171 0.47524 0.34005 0.0
C70 C 0.01095 0.48137 0.26055 0.0
C71 C 1.00002 0.51038 0.2381 0.0
H72 H 0.97951 0.54307 0.41775 0.0
C73 C 0.98814 0.53196 0.29575 0.0
C74 C 0.98899 0.52593 0.37512 0.0
H75 H 0.979 0.55415 0.2798 0.0
H76 H 0.03937 0.45867 0.74597 0.0
H77 H 0.03869 0.46973 0.60805 0.0
H78 H 0.99722 0.5596 0.66985 0.0
H79 H 0.99858 0.54878 0.80905 0.0
H80 H 0.01541 0.54866 0.53144 0.0
H81 H 1.00275 0.46415 0.49453 0.0
H82 H 0.02112 0.45326 0.35628 0.0
H83 H 0.01997 0.46413 0.21709 0.0
C84 C 0.53375 0.99788 0.28239 0.0
C85 C 0.50886 1.00644 0.22986 0.0
C86 C 0.52682 0.99776 0.36271 0.0
C87 C 0.49488 1.00639 0.39216 0.0
C88 C 0.46877 0.01305 0.3388 0.0
C89 C 0.47578 0.01326 0.25834 0.0
C90 C 0.48771 1.0084 0.47773 0.0
C91 C 0.51755 0.01736 0.53551 0.0
C92 C 0.51035 0.01939 0.62107 0.0
C93 C 0.53636 0.01266 0.67451 0.0
C94 C 0.52928 0.01245 0.75494 0.0
C95 C 0.49621 0.01933 0.7833 0.0
H96 H 0.4588 0.03512 0.61185 0.0
C97 C 0.47143 0.02799 0.7307 0.0
C98 C 0.47844 0.02812 0.65041 0.0
H99 H 0.44607 0.03397 0.7513 0.0
H100 H 0.55913 0.99196 0.26169 0.0
H101 H 0.54655 0.99083 0.40121 0.0
H102 H 0.44354 0.01916 0.35976 0.0
H103 H 0.45594 0.01966 0.21889 0.0
H104 H 0.45687 1.00313 0.49304 0.0
H105 H 0.54839 0.02261 0.52023 0.0
H106 H 0.56156 1.00648 0.65364 0.0
H107 H 0.54903 1.00598 0.79445 0.0
C108 C 0.52964 0.53088 0.7449 0.0
C109 C 0.49342 0.50653 0.7754 0.0
C110 C 0.53135 0.53371 0.66341 0.0
C111 C 0.49672 0.51225 0.61092 0.0
C112 C 0.46016 0.48932 0.64236 0.0
C113 C 0.45857 0.48628 0.72346 0.0
C114 C 0.49707 0.51324 0.52351 0.0
C115 C 0.53101 0.5219 0.48325 0.0
C116 C 0.53137 0.52291 0.39585 0.0
C117 C 0.56793 0.54588 0.36445 0.0
C118 C 0.56953 0.54896 0.28336 0.0
C119 C 0.53469 0.5287 0.23139 0.0
H120 H 0.46837 0.48233 0.36458 0.0
C121 C 0.49848 0.50431 0.26185 0.0
C122 C 0.49676 0.50145 0.34333 0.0
H123 H 0.47122 0.48813 0.22304 0.0
H124 H 0.5569 0.54705 0.7837 0.0
H125 H 0.55975 0.5528 0.64214 0.0
H126 H 0.43287 0.4729 0.60376 0.0
H127 H 0.43012 0.46748 0.74535 0.0
H128 H 0.46787 0.50556 0.49135 0.0
H129 H 0.56022 0.52958 0.5154 0.0
H130 H 0.5952 0.56231 0.40308 0.0
H131 H 0.59797 0.56779 0.26151 0.0
C132 C 0.15999 0.52757 0.02855 0.0
C133 C 0.1238 0.4961 0.04086 0.0
C134 C 0.19743 0.52459 0.03162 0.0
C135 C 0.19957 0.48991 0.04642 0.0
C136 C 0.16363 0.45888 0.06125 0.0
C137 C 0.12608 0.46183 0.05807 0.0
C138 C 0.23894 0.48569 0.04819 0.0
C139 C 0.26962 0.50529 1.00424 0.0
C140 C 0.31055 0.50424 1.00643 0.0
C141 C 0.34247 0.5341 0.97619 0.0
C142 C 0.3817 0.53524 0.97692 0.0
C143 C 0.39014 0.50625 1.00728 0.0
H144 H 0.2948 0.45078 0.05844 0.0
C145 C 0.35816 0.47583 0.03649 0.0
C146 C 0.31868 0.47482 0.03622 0.0
H147 H 0.36363 0.45295 0.05989 0.0
H148 H 0.15949 0.55456 0.01616 0.0
H149 H 0.22463 0.54972 0.02315 0.0
H150 H 0.16449 0.43204 0.07389 0.0
H151 H 0.09882 0.43708 0.0684 0.0
H152 H 0.24216 0.46573 0.08588 0.0
H153 H 0.26511 0.52425 0.96532 0.0
H154 H 0.33718 0.55703 0.95244 0.0
H155 H 0.40542 0.55901 0.95333 0.0
C156 C 0.67825 0.14348 0.94328 0.0
C157 C 0.66768 0.11859 1.00205 0.0
C158 C 0.71579 0.17565 0.95047 0.0
C159 C 0.74343 0.18338 0.01668 0.0
C160 C 0.73299 0.15793 0.07438 0.0
C161 C 0.69565 0.12576 0.06697 0.0
C162 C 0.78187 0.21901 0.03065 0.0
C163 C 0.80173 0.23873 0.97228 0.0
C164 C 0.83869 0.27567 0.98687 0.0
C165 C 0.8654 0.28688 0.92625 0.0
C166 C 0.89868 0.32273 0.93507 0.0
C167 C 0.90566 0.34835 1.00443 0.0
H168 H 0.82587 0.29394 0.1046 0.0
C169 C 0.87957 0.33701 0.06593 0.0
C170 C 0.84632 0.30101 0.0573 0.0
H171 H 0.88405 0.35642 0.11967 0.0
H172 H 0.65703 0.13876 0.89303 0.0
H173 H 0.72218 0.19508 0.90572 0.0
H174 H 0.75354 0.16327 0.12612 0.0
H175 H 0.6882 0.10712 0.11338 0.0
H176 H 0.79463 0.2287 0.09138 0.0
H177 H 0.79122 0.22709 0.91104 0.0
H178 H 0.86014 0.26808 0.87129 0.0
H179 H 0.91821 0.33084 0.88648 0.0
C180 C 0.49311 0.87513 0.98145 0.0
C181 C 0.52312 0.90971 0.96159 0.0
C182 C 0.49955 0.84142 0.97404 0.0
C183 C 0.53624 0.84149 0.94675 0.0
C184 C 0.56558 0.87561 0.9239 0.0
C185 C 0.55926 0.90951 0.93181 0.0
C186 C 0.5444 0.80632 0.94215 0.0
C187 C 0.53096 0.78119 0.99581 0.0
C188 C 0.53784 0.74547 0.99525 0.0
C189 C 0.53476 0.72917 0.06628 0.0
C190 C 0.53744 0.69397 0.06814 0.0
C191 C 0.54281 0.67396 0.99871 0.0
H192 H 0.54611 0.73728 0.8696 0.0
C193 C 0.54684 0.69044 0.92761 0.0
C194 C 0.54441 0.726 0.9258 0.0
H195 H 0.55074 0.67541 0.87318 0.0
H196 H 0.46473 0.87407 1.00379 0.0
H197 H 0.47567 0.81531 0.98965 0.0
H198 H 0.59388 0.87629 0.90183 0.0
H199 H 0.58287 0.93559 0.91534 0.0
H200 H 0.56371 0.80242 0.89702 0.0
H201 H 0.51517 0.78774 0.04505 0.0
H202 H 0.52958 0.74343 0.12055 0.0
H203 H 0.53418 0.68194 0.12382 0.0
C204 C 0.88938 0.54864 0.97898 0.0
C205 C 0.89366 0.51401 0.98373 0.0
C206 C 0.85046 0.54883 0.97309 0.0
C207 C 0.81512 0.51426 0.97161 0.0
C208 C 0.81966 0.47972 0.97444 0.0
C209 C 0.8583 0.47957 0.98082 0.0
C210 C 0.77287 0.51223 0.96713 0.0
C211 C 0.76304 0.5423 0.98614 0.0
C212 C 0.71994 0.53784 0.98734 0.0
C213 C 0.71064 0.56906 0.974 0.0
C214 C 0.67045 0.5658 0.97571 0.0
C215 C 0.63873 0.53132 0.99184 0.0
H216 H 0.69431 0.47926 0.01828 0.0
C217 C 0.64817 0.50029 1.00649 0.0
C218 C 0.68826 0.50352 1.00456 0.0
H219 H 0.62463 0.47344 0.01996 0.0
H220 H 0.91603 0.57563 0.98061 0.0
H221 H 0.84841 0.576 0.96908 0.0
H222 H 0.79311 0.45263 0.97289 0.0
H223 H 0.86031 0.45225 0.98366 0.0
H224 H 0.74849 0.48392 0.94988 0.0
H225 H 0.78683 0.57104 1.00159 0.0
H226 H 0.7345 0.59597 0.96162 0.0
H227 H 0.66433 0.59039 0.96466 0.0
C228 C 0.13612 0.67806 0.95773 0.0
C229 C 0.11191 0.66557 0.02144 0.0
C230 C 0.16798 0.71497 0.9647 0.0
C231 C 0.17608 0.74008 0.03565 0.0
C232 C 0.15129 0.72759 0.09859 0.0
C233 C 0.11946 0.69085 0.09149 0.0
C234 C 0.21159 0.77829 0.04842 0.0
C235 C 0.22971 0.79856 0.98931 0.0
C236 C 0.26654 0.8358 1.00201 0.0
C237 C 0.27499 0.86062 0.94316 0.0
C238 C 0.31085 0.8944 0.94955 0.0
C239 C 0.3393 0.90393 0.01467 0.0
H240 H 0.28997 0.82713 0.11404 0.0
C241 C 0.33065 0.87969 0.07458 0.0
C242 C 0.29467 0.84588 0.06834 0.0
H243 H 0.35231 0.88616 0.12498 0.0
H244 H 0.13118 0.65897 0.90334 0.0
H245 H 0.18698 0.72301 0.91547 0.0
H246 H 0.15691 0.74614 0.15401 0.0
H247 H 0.10138 0.68192 0.14174 0.0
H248 H 0.22236 0.79046 0.10931 0.0
H249 H 0.21662 0.78812 0.92895 0.0
H250 H 0.25408 0.85355 0.89129 0.0
H251 H 0.31684 0.91246 0.90221 0.0
C252 C 0.4747 0.34316 0.08143 0.0
C253 C 0.48144 0.36022 0.01081 0.0
C254 C 0.47388 0.30627 0.08327 0.0
C255 C 0.47996 0.28607 0.01437 0.0
C256 C 0.48592 0.30309 0.94386 0.0
C257 C 0.48641 0.33956 0.94193 0.0
C258 C 0.4837 0.24881 0.01406 0.0
C259 C 0.46739 0.22329 0.06612 0.0
C260 C 0.47346 0.18699 0.06221 0.0
C261 C 0.44219 0.15304 0.08145 0.0
C262 C 0.44697 0.11829 0.07411 0.0
C263 C 0.48344 0.11708 0.0485 0.0
H264 H 0.53567 0.21179 0.02656 0.0
C265 C 0.51522 0.15147 0.03227 0.0
C266 C 0.51035 0.18593 0.03917 0.0
H267 H 0.54396 0.15187 0.01333 0.0
H268 H 0.47096 0.3586 0.13543 0.0
H269 H 0.47001 0.29439 0.13907 0.0
H270 H 0.49085 0.28831 0.89003 0.0
H271 H 0.49167 0.35196 0.88659 0.0
H272 H 0.49986 0.24156 0.96631 0.0
H273 H 0.44769 0.22799 0.10952 0.0
H274 H 0.41365 0.15319 0.10028 0.0
H275 H 0.422 0.0924 0.0877 0.0
loop_
_geom_bond_atom_site_label_1
_geom_bond_atom_site_label_2
_geom_bond_distance
_geom_bond_site_symmetry_2
_ccdc_geom_bond_type
Dy0 O4 2.398 . S
Dy0 O5 2.491 1_556 S
Dy0 O6 2.403 . S
Dy0 O7 2.664 1_655 S
Dy0 O11 2.326 . S
Dy0 O15 2.310 1_556 S
Dy0 O16 2.351 1_655 S
C1 O12 1.185 . S
C1 O13 1.355 1_554 S
C2 O4 1.185 . S
C2 O5 1.355 1_556 S
Dy3 O7 2.310 1_554 S
Dy3 O10 2.351 1_455 S
Dy3 O12 2.398 . S
Dy3 O13 2.491 1_554 S
Dy3 O14 2.403 . S
Dy3 O15 2.664 1_455 S
Dy3 O17 2.326 . S
O4 Dy0 2.398 . S
O4 C2 1.185 . S
O5 Dy0 2.491 1_554 S
O5 C2 1.355 1_554 S
O6 Dy0 2.403 . S
O6 C8 1.254 . S
O7 Dy0 2.664 1_455 S
O7 Dy3 2.310 1_556 S
O7 C8 1.268 1_455 S
C8 O6 1.254 . S
C8 O7 1.268 1_655 S
C9 O14 1.254 . S
C9 O15 1.268 1_455 S
O10 Dy3 2.351 1_655 S
O10 C18 1.249 1_554 S
O11 Dy0 2.326 . S
O11 C18 1.267 . S
O12 C1 1.185 . S
O12 Dy3 2.398 . S
O13 C1 1.355 1_556 S
O13 Dy3 2.491 1_556 S
O14 Dy3 2.403 . S
O14 C9 1.254 . S
O15 Dy0 2.310 1_554 S
O15 Dy3 2.664 1_655 S
O15 C9 1.268 1_655 S
O16 Dy0 2.351 1_455 S
O16 C19 1.249 1_556 S
O17 Dy3 2.326 . S
O17 C19 1.267 . S
C18 O10 1.249 1_556 S
C18 O11 1.267 . S
C19 O16 1.249 1_554 S
C19 O17 1.267 . S
Dy20 O24 2.398 . S
Dy20 O25 2.491 1_554 S
Dy20 O26 2.403 . S
Dy20 O27 2.664 1_545 S
Dy20 O31 2.326 . S
Dy20 O35 2.310 1_554 S
Dy20 O36 2.351 1_545 S
C21 O32 1.185 . S
C21 O33 1.355 1_556 S
C22 O24 1.185 . S
C22 O25 1.355 1_554 S
Dy23 O27 2.310 1_556 S
Dy23 O30 2.351 1_565 S
Dy23 O32 2.398 . S
Dy23 O33 2.491 1_556 S
Dy23 O34 2.403 . S
Dy23 O35 2.664 1_565 S
Dy23 O37 2.326 . S
O24 Dy20 2.398 . S
O24 C22 1.185 . S
O25 Dy20 2.491 1_556 S
O25 C22 1.355 1_556 S
O26 Dy20 2.403 . S
O26 C28 1.254 . S
O27 Dy20 2.664 1_565 S
O27 Dy23 2.310 1_554 S
O27 C28 1.268 1_565 S
C28 O26 1.254 . S
C28 O27 1.268 1_545 S
C29 O34 1.254 . S
C29 O35 1.268 1_565 S
O30 Dy23 2.351 1_545 S
O30 C38 1.249 1_556 S
O31 Dy20 2.326 . S
O31 C38 1.267 . S
O32 C21 1.185 . S
O32 Dy23 2.398 . S
O33 C21 1.355 1_554 S
O33 Dy23 2.491 1_554 S
O34 Dy23 2.403 . S
O34 C29 1.254 . S
O35 Dy20 2.310 1_556 S
O35 Dy23 2.664 1_545 S
O35 C29 1.268 1_545 S
O36 Dy20 2.351 1_565 S
O36 C39 1.249 1_554 S
O37 Dy23 2.326 . S
O37 C39 1.267 . S
C38 O30 1.249 1_554 S
C38 O31 1.267 . S
C39 O36 1.249 1_556 S
C39 O37 1.267 . S
Dy40 O44 2.398 . S
Dy40 O45 2.491 1_554 S
Dy40 O46 2.403 . S
Dy40 O47 2.664 . S
Dy40 O51 2.326 . S
Dy40 O55 2.310 1_554 S
Dy40 O56 2.351 . S
C41 O52 1.185 . S
C41 O53 1.355 1_556 S
C42 O44 1.185 . S
C42 O45 1.355 1_554 S
Dy43 O47 2.310 1_556 S
Dy43 O50 2.351 . S
Dy43 O52 2.398 . S
Dy43 O53 2.491 1_556 S
Dy43 O54 2.403 . S
Dy43 O55 2.664 . S
Dy43 O57 2.326 . S
O44 Dy40 2.398 . S
O44 C42 1.185 . S
O45 Dy40 2.491 1_556 S
O45 C42 1.355 1_556 S
O46 Dy40 2.403 . S
O46 C48 1.254 . S
O47 Dy40 2.664 . S
O47 Dy43 2.310 1_554 S
O47 C48 1.268 . S
C48 O46 1.254 . S
C48 O47 1.268 . S
C49 O54 1.254 . S
C49 O55 1.268 . S
O50 Dy43 2.351 . S
O50 C58 1.249 1_556 S
O51 Dy40 2.326 . S
O51 C58 1.267 . S
O52 C41 1.185 . S
O52 Dy43 2.398 . S
O53 C41 1.355 1_554 S
O53 Dy43 2.491 1_554 S
O54 Dy43 2.403 . S
O54 C49 1.254 . S
O55 Dy40 2.310 1_556 S
O55 Dy43 2.664 . S
O55 C49 1.268 . S
O56 Dy40 2.351 . S
O56 C59 1.249 1_554 S
O57 Dy43 2.326 . S
O57 C59 1.267 . S
C58 O50 1.249 1_554 S
C58 O51 1.267 . S
C59 O56 1.249 1_556 S
C59 O57 1.267 . S
C60 C61 1.386 1_455 S
C60 C62 1.383 . S
C60 H76 0.951 . S
C61 C60 1.386 1_655 S
C61 C65 1.383 . S
C62 C60 1.383 . S
C62 C63 1.402 1_455 S
C62 H77 0.951 . S
C63 C62 1.402 1_655 S
C63 C64 1.375 . S
C63 C66 1.481 . S
C64 C63 1.375 . S
C64 C65 1.367 . S
C64 H78 0.951 . S
C65 C61 1.383 . S
C65 C64 1.367 . S
C65 H79 0.950 . S
C66 C63 1.481 . S
C66 C67 1.297 1_655 S
C66 H80 0.950 . S
C67 C66 1.297 1_455 S
C67 C68 1.479 1_455 S
C67 H81 0.950 . S
C68 C67 1.479 1_655 S
C68 C69 1.375 1_655 S
C68 C74 1.404 . S
C69 C68 1.375 1_455 S
C69 C70 1.369 . S
C69 H82 0.950 . S
C70 C69 1.369 . S
C70 C71 1.392 1_455 S
C70 H83 0.951 . S
C71 C70 1.392 1_655 S
C71 C73 1.384 . S
H72 C74 0.949 . S
C73 C71 1.384 . S
C73 C74 1.385 . S
C73 H75 0.950 . S
C74 C68 1.404 . S
C74 H72 0.949 . S
C74 C73 1.385 . S
H75 C73 0.950 . S
H76 C60 0.951 . S
H77 C62 0.951 . S
H78 C64 0.951 . S
H79 C65 0.950 . S
H80 C66 0.950 . S
H81 C67 0.950 . S
H82 C69 0.950 . S
H83 C70 0.951 . S
C84 C85 1.386 1_565 S
C84 C86 1.383 . S
C84 H100 0.951 . S
C85 C84 1.386 1_545 S
C85 C89 1.383 . S
C86 C84 1.383 . S
C86 C87 1.402 1_565 S
C86 H101 0.951 . S
C87 C86 1.402 1_545 S
C87 C88 1.375 . S
C87 C90 1.481 . S
C88 C87 1.375 . S
C88 C89 1.367 . S
C88 H102 0.951 . S
C89 C85 1.383 . S
C89 C88 1.367 . S
C89 H103 0.950 . S
C90 C87 1.481 . S
C90 C91 1.297 . S
C90 H104 0.950 . S
C91 C90 1.297 . S
C91 C92 1.479 . S
C91 H105 0.950 1_545 S
C92 C91 1.479 . S
C92 C93 1.375 1_545 S
C92 C98 1.404 . S
C93 C92 1.375 1_565 S
C93 C94 1.369 . S
C93 H106 0.950 . S
C94 C93 1.369 . S
C94 C95 1.392 1_565 S
C94 H107 0.951 . S
C95 C94 1.392 1_545 S
C95 C97 1.384 . S
H96 C98 0.949 . S
C97 C95 1.384 . S
C97 C98 1.385 . S
C97 H99 0.950 . S
C98 C92 1.404 . S
C98 H96 0.949 . S
C98 C97 1.385 . S
H99 C97 0.950 . S
H100 C84 0.951 . S
H101 C86 0.951 . S
H102 C88 0.951 . S
H103 C89 0.950 . S
H104 C90 0.950 . S
H105 C91 0.950 1_565 S
H106 C93 0.950 . S
H107 C94 0.951 . S
C108 C109 1.386 . S
C108 C110 1.383 . S
C108 H124 0.951 . S
C109 C108 1.386 . S
C109 C113 1.383 . S
C110 C108 1.383 . S
C110 C111 1.402 . S
C110 H125 0.951 . S
C111 C110 1.402 . S
C111 C112 1.375 . S
C111 C114 1.481 . S
C112 C111 1.375 . S
C112 C113 1.367 . S
C112 H126 0.951 . S
C113 C109 1.383 . S
C113 C112 1.367 . S
C113 H127 0.950 . S
C114 C111 1.481 . S
C114 C115 1.297 . S
C114 H128 0.950 . S
C115 C114 1.297 . S
C115 C116 1.479 . S
C115 H129 0.950 . S
C116 C115 1.479 . S
C116 C117 1.375 . S
C116 C122 1.404 . S
C117 C116 1.375 . S
C117 C118 1.369 . S
C117 H130 0.950 . S
C118 C117 1.369 . S
C118 C119 1.392 . S
C118 H131 0.951 . S
C119 C118 1.392 . S
C119 C121 1.384 . S
H120 C122 0.949 . S
C121 C119 1.384 . S
C121 C122 1.385 . S
C121 H123 0.950 . S
C122 C116 1.404 . S
C122 H120 0.949 . S
C122 C121 1.385 . S
H123 C121 0.950 . S
H124 C108 0.951 . S
H125 C110 0.951 . S
H126 C112 0.951 . S
H127 C113 0.950 . S
H128 C114 0.950 . S
H129 C115 0.950 . S
H130 C117 0.950 . S
H131 C118 0.951 . S
C132 C133 1.386 1_556 S
C132 C134 1.383 . S
C132 H148 0.951 . S
C133 C132 1.386 1_554 S
C133 C137 1.383 . S
C134 C132 1.383 . S
C134 C135 1.402 1_556 S
C134 H149 0.951 . S
C135 C134 1.402 1_554 S
C135 C136 1.375 . S
C135 C138 1.481 . S
C136 C135 1.375 . S
C136 C137 1.367 . S
C136 H150 0.951 . S
C137 C133 1.383 . S
C137 C136 1.367 . S
C137 H151 0.950 . S
C138 C135 1.481 . S
C138 C139 1.297 1_554 S
C138 H152 0.950 . S
C139 C138 1.297 1_556 S
C139 C140 1.479 . S
C139 H153 0.950 . S
C140 C139 1.479 . S
C140 C141 1.375 . S
C140 C146 1.404 1_556 S
C141 C140 1.375 . S
C141 C142 1.369 . S
C141 H154 0.950 . S
C142 C141 1.369 . S
C142 C143 1.392 . S
C142 H155 0.951 . S
C143 C142 1.392 . S
C143 C145 1.384 1_556 S
H144 C146 0.949 . S
C145 C143 1.384 1_554 S
C145 C146 1.385 . S
C145 H147 0.950 . S
C146 C140 1.404 1_554 S
C146 H144 0.949 . S
C146 C145 1.385 . S
H147 C145 0.950 . S
H148 C132 0.951 . S
H149 C134 0.951 . S
H150 C136 0.951 . S
H151 C137 0.950 . S
H152 C138 0.950 . S
H153 C139 0.950 . S
H154 C141 0.950 . S
H155 C142 0.951 . S
C156 C157 1.386 1_556 S
C156 C158 1.383 . S
C156 H172 0.951 . S
C157 C156 1.386 1_554 S
C157 C161 1.383 . S
C158 C156 1.383 . S
C158 C159 1.402 1_556 S
C158 H173 0.951 . S
C159 C158 1.402 1_554 S
C159 C160 1.375 . S
C159 C162 1.481 . S
C160 C159 1.375 . S
C160 C161 1.367 . S
C160 H174 0.951 . S
C161 C157 1.383 . S
C161 C160 1.367 . S
C161 H175 0.950 . S
C162 C159 1.481 . S
C162 C163 1.297 1_554 S
C162 H176 0.950 . S
C163 C162 1.297 1_556 S
C163 C164 1.479 . S
C163 H177 0.950 . S
C164 C163 1.479 . S
C164 C165 1.375 . S
C164 C170 1.404 1_556 S
C165 C164 1.375 . S
C165 C166 1.369 . S
C165 H178 0.950 . S
C166 C165 1.369 . S
C166 C167 1.393 1_556 S
C166 H179 0.951 . S
C167 C166 1.393 1_554 S
C167 C169 1.383 . S
H168 C170 0.949 . S
C169 C167 1.383 . S
C169 C170 1.385 . S
C169 H171 0.950 . S
C170 C164 1.404 1_554 S
C170 H168 0.949 . S
C170 C169 1.385 . S
H171 C169 0.950 . S
H172 C156 0.951 . S
H173 C158 0.951 . S
H174 C160 0.951 . S
H175 C161 0.950 . S
H176 C162 0.950 . S
H177 C163 0.950 . S
H178 C165 0.950 . S
H179 C166 0.951 . S
C180 C181 1.386 1_554 S
C180 C182 1.383 . S
C180 H196 0.951 . S
C181 C180 1.386 1_556 S
C181 C185 1.383 . S
C182 C180 1.383 . S
C182 C183 1.402 1_554 S
C182 H197 0.951 . S
C183 C182 1.402 1_556 S
C183 C184 1.375 . S
C183 C186 1.481 . S
C184 C183 1.375 . S
C184 C185 1.367 . S
C184 H198 0.951 . S
C185 C181 1.383 . S
C185 C184 1.367 . S
C185 H199 0.950 . S
C186 C183 1.481 . S
C186 C187 1.297 1_556 S
C186 H200 0.950 . S
C187 C186 1.297 1_554 S
C187 C188 1.479 . S
C187 H201 0.950 . S
C188 C187 1.479 . S
C188 C189 1.375 . S
C188 C194 1.404 1_554 S
C189 C188 1.375 . S
C189 C190 1.369 . S
C189 H202 0.950 . S
C190 C189 1.369 . S
C190 C191 1.392 . S
C190 H203 0.951 . S
C191 C190 1.392 . S
C191 C193 1.384 1_554 S
H192 C194 0.949 . S
C193 C191 1.384 1_556 S
C193 C194 1.385 . S
C193 H195 0.950 . S
C194 C188 1.404 1_556 S
C194 H192 0.949 . S
C194 C193 1.385 . S
H195 C193 0.950 . S
H196 C180 0.951 . S
H197 C182 0.951 . S
H198 C184 0.951 . S
H199 C185 0.950 . S
H200 C186 0.950 . S
H201 C187 0.950 . S
H202 C189 0.950 . S
H203 C190 0.951 . S
C204 C205 1.375 1_554 S
C204 C206 1.383 . S
C204 H220 0.951 . S
C205 C204 1.375 1_556 S
C205 C209 1.396 . S
C206 C204 1.383 . S
C206 C207 1.402 1_554 S
C206 H221 0.951 . S
C207 C206 1.402 1_556 S
C207 C208 1.375 . S
C207 C210 1.481 . S
C208 C207 1.375 . S
C208 C209 1.367 . S
C208 H222 0.951 . S
C209 C205 1.396 . S
C209 C208 1.367 . S
C209 H223 0.950 . S
C210 C207 1.481 . S
C210 C211 1.297 1_556 S
C210 H224 0.950 . S
C211 C210 1.297 1_554 S
C211 C212 1.479 . S
C211 H225 0.950 . S
C212 C211 1.479 . S
C212 C213 1.375 . S
C212 C218 1.404 1_554 S
C213 C212 1.375 . S
C213 C214 1.369 . S
C213 H226 0.950 . S
C214 C213 1.369 . S
C214 C215 1.392 . S
C214 H227 0.951 . S
C215 C214 1.392 . S
C215 C217 1.384 1_554 S
H216 C218 0.949 . S
C217 C215 1.384 1_556 S
C217 C218 1.385 . S
C217 H219 0.950 . S
C218 C212 1.404 1_556 S
C218 H216 0.949 . S
C218 C217 1.385 . S
H219 C217 0.950 . S
H220 C204 0.951 . S
H221 C206 0.951 . S
H222 C208 0.951 . S
H223 C209 0.950 . S
H224 C210 0.950 . S
H225 C211 0.950 . S
H226 C213 0.950 . S
H227 C214 0.951 . S
C228 C229 1.386 1_556 S
C228 C230 1.383 . S
C228 H244 0.951 . S
C229 C228 1.386 1_554 S
C229 C233 1.383 . S
C230 C228 1.383 . S
C230 C231 1.402 1_556 S
C230 H245 0.951 . S
C231 C230 1.402 1_554 S
C231 C232 1.375 . S
C231 C234 1.481 . S
C232 C231 1.375 . S
C232 C233 1.367 . S
C232 H246 0.951 . S
C233 C229 1.383 . S
C233 C232 1.367 . S
C233 H247 0.950 . S
C234 C231 1.481 . S
C234 C235 1.297 1_554 S
C234 H248 0.950 . S
C235 C234 1.297 1_556 S
C235 C236 1.479 . S
C235 H249 0.950 . S
C236 C235 1.479 . S
C236 C237 1.375 . S
C236 C242 1.404 1_556 S
C237 C236 1.375 . S
C237 C238 1.369 . S
C237 H250 0.950 . S
C238 C237 1.369 . S
C238 C239 1.392 . S
C238 H251 0.951 . S
C239 C238 1.392 . S
C239 C241 1.384 1_556 S
H240 C242 0.949 . S
C241 C239 1.384 1_554 S
C241 C242 1.385 . S
C241 H243 0.950 . S
C242 C236 1.404 1_554 S
C242 H240 0.949 . S
C242 C241 1.385 . S
H243 C241 0.950 . S
H244 C228 0.951 . S
H245 C230 0.951 . S
H246 C232 0.951 . S
H247 C233 0.950 . S
H248 C234 0.950 . S
H249 C235 0.950 . S
H250 C237 0.950 . S
H251 C238 0.951 . S
C252 C253 1.386 1_554 S
C252 C254 1.383 . S
C252 H268 0.951 . S
C253 C252 1.386 1_556 S
C253 C257 1.383 . S
C254 C252 1.383 . S
C254 C255 1.402 1_554 S
C254 H269 0.951 . S
C255 C254 1.402 1_556 S
C255 C256 1.375 . S
C255 C258 1.481 . S
C256 C255 1.375 . S
C256 C257 1.367 . S
C256 H270 0.951 . S
C257 C253 1.383 . S
C257 C256 1.367 . S
C257 H271 0.950 . S
C258 C255 1.481 . S
C258 C259 1.297 1_556 S
C258 H272 0.950 . S
C259 C258 1.297 1_554 S
C259 C260 1.479 1_554 S
C259 H273 0.950 . S
C260 C259 1.479 1_556 S
C260 C261 1.375 1_556 S
C260 C266 1.404 . S
C261 C260 1.375 1_554 S
C261 C262 1.369 . S
C261 H274 0.950 . S
C262 C261 1.369 . S
C262 C263 1.383 1_554 S
C262 H275 0.951 . S
C263 C262 1.383 1_556 S
C263 C265 1.394 . S
H264 C266 0.949 . S
C265 C263 1.394 . S
C265 C266 1.385 . S
C265 H267 0.950 . S
C266 C260 1.404 . S
C266 H264 0.949 . S
C266 C265 1.385 . S
H267 C265 0.950 . S
H268 C252 0.951 . S
H269 C254 0.951 . S
H270 C256 0.951 . S
H271 C257 0.950 . S
H272 C258 0.950 . S
H273 C259 0.950 . S
H274 C261 0.950 . S
H275 C262 0.951 . S
C61 C8 1.438 . S
C71 C9 1.491 1_655 S
C85 C28 1.444 . S
C95 C29 1.488 1_545 S
C109 C49 1.431 . S
C119 C48 1.470 . S
C133 C19 1.756 . S
C143 C58 1.760 1_556 S
C157 C22 1.235 . S
C167 C2 1.256 1_554 S
C181 C39 1.505 . S
C191 C42 1.514 . S
C205 C18 1.754 . S
C215 C59 1.733 1_554 S
C229 C1 1.206 . S
C239 C21 1.201 . S
C253 C41 1.476 . S
C263 C38 1.508 1_556 S
