# Generated by pormake.
# Topology ske, (6)-cn, num edge types: 1
# Building blocks:
#     Node 0, Type 0, BuildingBlock: BETDIP_clean_sbu_0, # of connection points: 6
#     Node 1, Type 0, BuildingBlock: BETDIP_clean_sbu_0, # of connection points: 6
#     Node 2, Type 0, BuildingBlock: BETDIP_clean_sbu_0, # of connection points: 6
#     Node 3, Type 0, BuildingBlock: BETDIP_clean_sbu_0, # of connection points: 6
#     Node 4, Type 0, BuildingBlock: BETDIP_clean_sbu_0, # of connection points: 6
#     Node 5, Type 0, BuildingBlock: BETDIP_clean_sbu_0, # of connection points: 6
#     Node 6, Type 0, BuildingBlock: BETDIP_clean_sbu_0, # of connection points: 6
#     Node 7, Type 0, BuildingBlock: BETDIP_clean_sbu_0, # of connection points: 6
#     Edge 8, Type (0, 0), BuildingBlock: TEMPAE_clean_linker_10, # of connection points: 2
#     Edge 9, Type (0, 0), BuildingBlock: TEMPAE_clean_linker_10, # of connection points: 2
#     Edge 10, Type (0, 0), BuildingBlock: TEMPAE_clean_linker_10, # of connection points: 2
#     Edge 11, Type (0, 0), BuildingBlock: TEMPAE_clean_linker_10, # of connection points: 2
#     Edge 12, Type (0, 0), BuildingBlock: TEMPAE_clean_linker_10, # of connection points: 2
#     Edge 13, Type (0, 0), BuildingBlock: TEMPAE_clean_linker_10, # of connection points: 2
#     Edge 14, Type (0, 0), BuildingBlock: TEMPAE_clean_linker_10, # of connection points: 2
#     Edge 15, Type (0, 0), BuildingBlock: TEMPAE_clean_linker_10, # of connection points: 2
#     Edge 16, Type (0, 0), BuildingBlock: TEMPAE_clean_linker_10, # of connection points: 2
#     Edge 17, Type (0, 0), BuildingBlock: TEMPAE_clean_linker_10, # of connection points: 2
#     Edge 18, Type (0, 0), BuildingBlock: TEMPAE_clean_linker_10, # of connection points: 2
#     Edge 19, Type (0, 0), BuildingBlock: TEMPAE_clean_linker_10, # of connection points: 2
#     Edge 20, Type (0, 0), BuildingBlock: TEMPAE_clean_linker_10, # of connection points: 2
#     Edge 21, Type (0, 0), BuildingBlock: TEMPAE_clean_linker_10, # of connection points: 2
#     Edge 22, Type (0, 0), BuildingBlock: TEMPAE_clean_linker_10, # of connection points: 2
#     Edge 23, Type (0, 0), BuildingBlock: TEMPAE_clean_linker_10, # of connection points: 2
#     Edge 24, Type (0, 0), BuildingBlock: TEMPAE_clean_linker_10, # of connection points: 2
#     Edge 25, Type (0, 0), BuildingBlock: TEMPAE_clean_linker_10, # of connection points: 2
#     Edge 26, Type (0, 0), BuildingBlock: TEMPAE_clean_linker_10, # of connection points: 2
#     Edge 27, Type (0, 0), BuildingBlock: TEMPAE_clean_linker_10, # of connection points: 2
#     Edge 28, Type (0, 0), BuildingBlock: TEMPAE_clean_linker_10, # of connection points: 2
#     Edge 29, Type (0, 0), BuildingBlock: TEMPAE_clean_linker_10, # of connection points: 2
#     Edge 30, Type (0, 0), BuildingBlock: TEMPAE_clean_linker_10, # of connection points: 2
#     Edge 31, Type (0, 0), BuildingBlock: TEMPAE_clean_linker_10, # of connection points: 2
# Relax obj value: 0.222
# Max RMSD: 0.214
# Mean RMSD: 0.208
data_MOF--net-ske--node1-BETDIP_clean_sbu_0--edge1-TEMPAE_clean_linker_10
_symmetry_space_group_name_H-M    P1
_symmetry_Int_Tables_number       1
_symmetry_cell_setting            triclinic
loop_
_symmetry_equiv_pos_as_xyz
'x, y, z'
_cell_length_a     102.90429
_cell_length_b     29.46536
_cell_length_c     15.646905
_cell_angle_alpha  89.880759
_cell_angle_beta   90.028931
_cell_angle_gamma 89.925512
loop_
_atom_site_label
_atom_site_type_symbol
_atom_site_fract_x
_atom_site_fract_y
_atom_site_fract_z
_atom_type_partial_charge
Tb0 Tb 0.15926 0.26156 0.54698 0.0
Tb1 Tb 0.13108 0.24529 0.55782 0.0
C2 C 0.18234 0.29072 0.55873 0.0
C3 C 0.19463 0.2856 0.60766 0.0
C4 C 0.20169 0.32461 0.62966 0.0
C5 C 0.21416 0.32112 0.66518 0.0
C6 C 0.21994 0.27842 0.67936 0.0
C7 C 0.21268 0.23927 0.65975 0.0
C8 C 0.20017 0.2428 0.62438 0.0
C9 C 0.15268 0.17455 0.53054 0.0
C10 C 0.14628 0.24582 0.72799 0.0
C11 C 0.1078 0.21777 0.55227 0.0
C12 C 0.09441 0.23007 0.52518 0.0
C13 C 0.08654 0.19672 0.48783 0.0
C14 C 0.07322 0.20436 0.47535 0.0
C15 C 0.06742 0.24555 0.50042 0.0
C16 C 0.07547 0.27979 0.53414 0.0
C17 C 0.08881 0.27214 0.54645 0.0
C18 C 0.13774 0.33283 0.56835 0.0
C19 C 0.14438 0.25688 0.37529 0.0
O20 O 0.17242 0.30999 0.59632 0.0
O21 O 0.17879 0.25673 0.5108 0.0
O22 O 0.14757 0.20275 0.58096 0.0
O23 O 0.16252 0.19377 0.49464 0.0
O24 O 0.15556 0.2669 0.6853 0.0
O25 O 0.13687 0.22488 0.6865 0.0
O26 O 0.11644 0.20799 0.49381 0.0
O27 O 0.11279 0.24099 0.6151 0.0
O28 O 0.14272 0.30337 0.52033 0.0
O29 O 0.128 0.31423 0.6065 0.0
O30 O 0.13458 0.2392 0.41908 0.0
O31 O 0.15431 0.27604 0.41467 0.0
H32 H 0.19772 0.358 0.61658 0.0
H33 H 0.21947 0.35204 0.67843 0.0
H34 H 0.21671 0.20582 0.67092 0.0
H35 H 0.19498 0.21204 0.60807 0.0
H36 H 0.09059 0.16393 0.47125 0.0
H37 H 0.06742 0.17751 0.44761 0.0
H38 H 0.07137 0.31182 0.55472 0.0
H39 H 0.09461 0.2985 0.57581 0.0
Tb40 Tb 0.87473 0.23873 0.52948 0.0
Tb41 Tb 0.9032 0.24708 0.53478 0.0
C42 C 0.85138 0.21304 0.54385 0.0
C43 C 0.83901 0.21933 0.59165 0.0
C44 C 0.83298 0.18129 0.62844 0.0
C45 C 0.8204 0.18434 0.66225 0.0
C46 C 0.81346 0.22554 0.65984 0.0
C47 C 0.81971 0.2641 0.62592 0.0
C48 C 0.83232 0.26103 0.59203 0.0
C49 C 0.88286 0.32334 0.50708 0.0
C50 C 0.88918 0.24898 0.71073 0.0
C51 C 0.92714 0.26056 0.51643 0.0
C52 C 0.94135 0.26679 0.50364 0.0
C53 C 0.94806 0.30298 0.54193 0.0
C54 C 0.96166 0.30585 0.53633 0.0
C55 C 0.96888 0.27265 0.49213 0.0
C56 C 0.96207 0.23714 0.45218 0.0
C57 C 0.94852 0.23425 0.45789 0.0
C58 C 0.89425 0.16316 0.5576 0.0
C59 C 0.88897 0.24172 0.35804 0.0
O60 O 0.86112 0.19315 0.58275 0.0
O61 O 0.85522 0.24596 0.49374 0.0
O62 O 0.88776 0.29458 0.55793 0.0
O63 O 0.87256 0.30597 0.47317 0.0
O64 O 0.87822 0.24126 0.66848 0.0
O65 O 0.90032 0.25579 0.67091 0.0
O66 O 0.91955 0.28985 0.55505 0.0
O67 O 0.92107 0.22511 0.48619 0.0
O68 O 0.89011 0.19204 0.50457 0.0
O69 O 0.90387 0.18097 0.59847 0.0
O70 O 0.89818 0.26282 0.40132 0.0
O71 O 0.87971 0.21977 0.39918 0.0
H72 H 0.83785 0.14866 0.62851 0.0
H73 H 0.81604 0.1541 0.68919 0.0
H74 H 0.81467 0.29633 0.62236 0.0
H75 H 0.83662 0.29098 0.56358 0.0
H76 H 0.94283 0.32853 0.57785 0.0
H77 H 0.96654 0.33398 0.56709 0.0
H78 H 0.96724 0.21056 0.41865 0.0
H79 H 0.9437 0.20574 0.42801 0.0
Tb80 Tb 0.15808 0.74357 0.5134 0.0
Tb81 Tb 0.12978 0.76307 0.5052 0.0
C82 C 0.18074 0.71086 0.50219 0.0
C83 C 0.19319 0.7153 0.455 0.0
C84 C 0.19938 0.67598 0.42497 0.0
C85 C 0.21194 0.67803 0.39064 0.0
C86 C 0.21869 0.71952 0.38582 0.0
C87 C 0.21227 0.75921 0.41313 0.0
C88 C 0.19968 0.75713 0.44738 0.0
C89 C 0.15218 0.83111 0.52958 0.0
C90 C 0.1448 0.76005 0.33227 0.0
C91 C 0.10704 0.7959 0.51522 0.0
C92 C 0.09337 0.78608 0.53785 0.0
C93 C 0.08482 0.8227 0.5488 0.0
C94 C 0.07147 0.81541 0.55895 0.0
C95 C 0.06633 0.77119 0.55859 0.0
C96 C 0.075 0.73431 0.55093 0.0
C97 C 0.0884 0.74169 0.54018 0.0
C98 C 0.13571 0.67476 0.49618 0.0
C99 C 0.14354 0.75115 0.68474 0.0
O100 O 0.1707 0.69421 0.46148 0.0
O101 O 0.17749 0.74404 0.55326 0.0
O102 O 0.14667 0.80323 0.48031 0.0
O103 O 0.16203 0.81114 0.56451 0.0
O104 O 0.15469 0.74201 0.37448 0.0
O105 O 0.13485 0.77824 0.37312 0.0
O106 O 0.11561 0.79865 0.57654 0.0
O107 O 0.11168 0.77531 0.4482 0.0
O108 O 0.14116 0.70438 0.54115 0.0
O109 O 0.12553 0.69336 0.46304 0.0
O110 O 0.13456 0.77364 0.64123 0.0
O111 O 0.15249 0.72725 0.64425 0.0
H112 H 0.19463 0.6433 0.43033 0.0
H113 H 0.21643 0.64689 0.36879 0.0
H114 H 0.21715 0.79172 0.41106 0.0
H115 H 0.1952 0.78809 0.47027 0.0
H116 H 0.08842 0.85723 0.54687 0.0
H117 H 0.06513 0.84454 0.56596 0.0
H118 H 0.07137 0.69983 0.54993 0.0
H119 H 0.09481 0.71291 0.53119 0.0
Tb120 Tb 0.87635 0.752 0.5038 0.0
Tb121 Tb 0.9049 0.73563 0.49345 0.0
C122 C 0.85339 0.78241 0.49464 0.0
C123 C 0.84119 0.78186 0.44418 0.0
C124 C 0.83358 0.82134 0.44132 0.0
C125 C 0.82109 0.8206 0.40583 0.0
C126 C 0.81587 0.78023 0.37231 0.0
C127 C 0.82375 0.74106 0.37188 0.0
C128 C 0.83627 0.74182 0.40768 0.0
C129 C 0.88322 0.66536 0.51876 0.0
C130 C 0.88954 0.73776 0.32282 0.0
C131 C 0.92797 0.70594 0.49679 0.0
C132 C 0.94138 0.71312 0.52828 0.0
C133 C 0.94969 0.67547 0.53416 0.0
C134 C 0.96303 0.68122 0.5481 0.0
C135 C 0.9684 0.72487 0.55667 0.0
C136 C 0.95994 0.76254 0.55517 0.0
C137 C 0.94656 0.75675 0.54067 0.0
C138 C 0.8979 0.82275 0.48477 0.0
C139 C 0.89144 0.74657 0.67608 0.0
O140 O 0.86347 0.80375 0.46335 0.0
O141 O 0.85665 0.7449 0.53371 0.0
O142 O 0.88829 0.69413 0.46918 0.0
O143 O 0.87326 0.68384 0.55478 0.0
O144 O 0.88003 0.75767 0.36549 0.0
O145 O 0.89913 0.71736 0.36383 0.0
O146 O 0.91898 0.69267 0.55046 0.0
O147 O 0.92357 0.73524 0.44111 0.0
O148 O 0.89297 0.79251 0.53122 0.0
O149 O 0.90794 0.80539 0.44773 0.0
O150 O 0.90156 0.73085 0.63256 0.0
O151 O 0.88121 0.76418 0.63698 0.0
H152 H 0.83713 0.85258 0.4693 0.0
H153 H 0.81542 0.85161 0.40585 0.0
H154 H 0.82005 0.70934 0.347 0.0
H155 H 0.84192 0.71078 0.40939 0.0
H156 H 0.94595 0.64152 0.52427 0.0
H157 H 0.9692 0.65143 0.55022 0.0
H158 H 0.96375 0.79664 0.56113 0.0
H159 H 0.94037 0.78641 0.53568 0.0
Tb160 Tb 0.66107 0.77253 0.03139 0.0
Tb161 Tb 0.63265 0.7657 0.03717 0.0
C162 C 0.68448 0.79746 0.04534 0.0
C163 C 0.69675 0.79157 0.09426 0.0
C164 C 0.70321 0.8303 0.12439 0.0
C165 C 0.71572 0.82709 0.15909 0.0
C166 C 0.72216 0.78498 0.16431 0.0
C167 C 0.71546 0.74586 0.13728 0.0
C168 C 0.70291 0.74911 0.10241 0.0
C169 C 0.65264 0.68843 1.00865 0.0
C170 C 0.64671 0.76237 0.21286 0.0
C171 C 0.60859 0.75487 1.02075 0.0
C172 C 0.59428 0.75157 1.00986 0.0
C173 C 0.58747 0.71179 0.03105 0.0
C174 C 0.57383 0.7107 0.02723 0.0
C175 C 0.56668 0.74944 1.00241 0.0
C176 C 0.57358 0.78891 0.98011 0.0
C177 C 0.58716 0.78992 0.98363 0.0
C178 C 0.64201 0.8491 0.05921 0.0
C179 C 0.64675 0.77026 0.85996 0.0
O180 O 0.67477 0.81837 0.0824 0.0
O181 O 0.6806 0.76382 0.99739 0.0
O182 O 0.64786 0.71712 0.05993 0.0
O183 O 0.66297 0.70556 0.97451 0.0
O184 O 0.65767 0.76985 0.17051 0.0
O185 O 0.63555 0.75605 0.17307 0.0
O186 O 0.61599 0.72377 0.05608 0.0
O187 O 0.61491 0.79015 0.99202 0.0
O188 O 0.64592 0.82006 1.00606 0.0
O189 O 0.63248 0.83153 0.10147 0.0
O190 O 0.63741 0.74993 0.90347 0.0
O191 O 0.65616 0.7915 0.9008 0.0
H192 H 0.69873 0.86347 0.11846 0.0
H193 H 0.72045 0.85782 0.18066 0.0
H194 H 0.72012 0.7129 0.13983 0.0
H195 H 0.69824 0.7186 0.07931 0.0
H196 H 0.59267 0.68174 0.05176 0.0
H197 H 0.56889 0.67949 0.04386 0.0
H198 H 0.56849 0.81968 0.9622 0.0
H199 H 0.59206 0.82134 0.96778 0.0
Tb200 Tb 0.37313 0.74383 0.036 0.0
Tb201 Tb 0.40163 0.7475 0.04477 0.0
C202 C 0.34925 0.72425 0.04671 0.0
C203 C 0.33744 0.72278 0.1011 0.0
C204 C 0.32989 0.68313 0.10146 0.0
C205 C 0.31754 0.6827 0.13891 0.0
C206 C 0.31236 0.72205 0.17685 0.0
C207 C 0.32019 0.76122 0.18007 0.0
C208 C 0.33257 0.76165 0.14237 0.0
C209 C 0.38274 0.8264 1.01242 0.0
C210 C 0.38721 0.75282 0.21764 0.0
C211 C 0.42585 0.75625 0.0328 0.0
C212 C 0.44026 0.75794 0.02655 0.0
C213 C 0.44699 0.7992 1.01868 0.0
C214 C 0.46064 0.7997 1.01353 0.0
C215 C 0.46784 0.75894 1.01631 0.0
C216 C 0.46101 0.71785 0.02484 0.0
C217 C 0.44746 0.71736 0.02967 0.0
C218 C 0.39142 0.66562 0.06722 0.0
C219 C 0.38767 0.74353 0.86362 0.0
O220 O 0.35858 0.69499 0.06109 0.0
O221 O 0.3537 0.76399 0.02423 0.0
O222 O 0.38681 0.79746 0.06599 0.0
O223 O 0.37267 0.80997 0.97406 0.0
O224 O 0.37669 0.74029 0.17491 0.0
O225 O 0.39808 0.76387 0.1779 0.0
O226 O 0.41818 0.79138 0.04307 0.0
O227 O 0.41978 0.71756 0.02765 0.0
O228 O 0.38794 0.69472 1.01242 0.0
O229 O 0.40078 0.68263 0.11199 0.0
O230 O 0.39799 0.75699 0.90717 0.0
O231 O 0.37706 0.72941 0.90275 0.0
H232 H 0.33335 0.6528 0.06962 0.0
H233 H 0.31191 0.65168 0.13656 0.0
H234 H 0.31652 0.7922 0.20834 0.0
H235 H 0.3381 0.79289 0.14268 0.0
H236 H 0.44173 0.83102 1.01616 0.0
H237 H 0.46553 0.83199 1.00631 0.0
H238 H 0.46616 0.68585 0.02909 0.0
H239 H 0.44261 0.68494 0.03662 0.0
Tb240 Tb 0.65878 0.26056 0.9927 0.0
Tb241 Tb 0.63018 0.27531 0.98176 0.0
C242 C 0.6819 0.23136 0.98531 0.0
C243 C 0.69409 0.23033 0.93478 0.0
C244 C 0.702 0.19161 0.93978 0.0
C245 C 0.7145 0.19159 0.90454 0.0
C246 C 0.71945 0.2304 0.86329 0.0
C247 C 0.71128 0.26861 0.855 0.0
C248 C 0.69874 0.26865 0.89067 0.0
C249 C 0.65153 0.34663 1.0114 0.0
C250 C 0.64571 0.27587 0.81169 0.0
C251 C 0.60672 0.30168 0.98614 0.0
C252 C 0.5931 0.28652 1.00046 0.0
C253 C 0.58501 0.3117 0.05503 0.0
C254 C 0.57162 0.30302 0.05907 0.0
C255 C 0.56594 0.26912 1.00794 0.0
C256 C 0.57414 0.24279 0.95565 0.0
C257 C 0.58754 0.25131 0.95202 0.0
C258 C 0.63755 0.18849 0.97288 0.0
C259 C 0.64383 0.2673 0.16402 0.0
O260 O 0.67187 0.20834 0.95786 0.0
O261 O 0.67853 0.27015 1.01886 0.0
O262 O 0.64658 0.31842 0.96026 0.0
O263 O 0.66152 0.328 0.04708 0.0
O264 O 0.65524 0.25586 0.85418 0.0
O265 O 0.63602 0.29545 0.85298 0.0
O266 O 0.61461 0.30442 0.05146 0.0
O267 O 0.61259 0.28648 0.91811 0.0
O268 O 0.64233 0.21893 1.01912 0.0
O269 O 0.62738 0.20534 0.93645 0.0
O270 O 0.63402 0.28467 0.11956 0.0
O271 O 0.65383 0.2479 0.12558 0.0
H272 H 0.69867 0.16173 0.97376 0.0
H273 H 0.7204 0.16128 0.91083 0.0
H274 H 0.71476 0.29915 0.82401 0.0
H275 H 0.69287 0.29911 0.88629 0.0
H276 H 0.58898 0.3394 0.09222 0.0
H277 H 0.56563 0.32421 0.09958 0.0
H278 H 0.57015 0.21595 0.91644 0.0
H279 H 0.59346 0.23124 0.90909 0.0
Tb280 Tb 0.37458 0.2541 1.01762 0.0
Tb281 Tb 0.40335 0.24001 1.01747 0.0
C282 C 0.35177 0.28461 0.99922 0.0
C283 C 0.3395 0.27932 0.95014 0.0
C284 C 0.33314 0.31828 0.91951 0.0
C285 C 0.32068 0.31546 0.88373 0.0
C286 C 0.3142 0.27351 0.87794 0.0
C287 C 0.32077 0.23423 0.90612 0.0
C288 C 0.33327 0.23707 0.94177 0.0
C289 C 0.38159 0.16792 0.03617 0.0
C290 C 0.38993 0.24408 0.83887 0.0
C291 C 0.4263 0.21435 0.04953 0.0
C292 C 0.4403 0.21854 0.0297 0.0
C293 C 0.44901 0.19029 0.07364 0.0
C294 C 0.46243 0.19539 0.06378 0.0
C295 C 0.46758 0.22886 1.00906 0.0
C296 C 0.45877 0.25682 0.96377 0.0
C297 C 0.44525 0.2518 0.97421 0.0
C298 C 0.3958 0.32567 0.99904 0.0
C299 C 0.38807 0.24688 0.19098 0.0
O300 O 0.3619 0.30161 0.95992 0.0
O301 O 0.35494 0.25203 0.05219 0.0
O302 O 0.38709 0.19708 0.98937 0.0
O303 O 0.37113 0.18581 0.06725 0.0
O304 O 0.37887 0.25243 0.87981 0.0
O305 O 0.40094 0.23558 0.87972 0.0
O306 O 0.42069 0.2493 0.0853 0.0
O307 O 0.41869 0.19393 0.99464 0.0
O308 O 0.39076 0.29618 0.04697 0.0
O309 O 0.40612 0.30831 0.96467 0.0
O310 O 0.3969 0.22363 0.14815 0.0
O311 O 0.37937 0.27127 0.14922 0.0
H312 H 0.33764 0.35132 0.92607 0.0
H313 H 0.31592 0.34652 0.86375 0.0
H314 H 0.31619 0.20126 0.90156 0.0
H315 H 0.3379 0.20636 0.96484 0.0
H316 H 0.44541 0.1648 0.11768 0.0
H317 H 0.46878 0.17381 0.10129 0.0
H318 H 0.4623 0.28265 0.92035 0.0
H319 H 0.4387 0.27421 0.94007 0.0
C320 C 0.23831 0.30457 0.77437 0.0
C321 C 0.23367 0.27497 0.71107 0.0
C322 C 0.25135 0.30313 0.80178 0.0
C323 C 0.26006 0.27134 0.76515 0.0
C324 C 0.25541 0.24096 0.70207 0.0
C325 C 0.24231 0.24311 0.67592 0.0
C326 C 0.25583 0.33598 0.86955 0.0
C327 C 0.26433 0.20661 0.6611 0.0
C328 C 0.29635 0.29812 0.77697 0.0
C329 C 0.30046 0.27124 0.8462 0.0
C330 C 0.28331 0.29803 0.74938 0.0
C331 C 0.27406 0.27045 0.7919 0.0
C332 C 0.27817 0.24273 0.86097 0.0
C333 C 0.29127 0.24344 0.88717 0.0
C334 C 0.27941 0.3279 0.67515 0.0
C335 C 0.26867 0.21288 0.90829 0.0
H336 H 0.23172 0.32892 0.80288 0.0
H337 H 0.23893 0.22049 0.62616 0.0
H338 H 0.25997 0.3171 0.92465 0.0
H339 H 0.26366 0.35789 0.84359 0.0
H340 H 0.24783 0.35801 0.89293 0.0
H341 H 0.25916 0.18453 0.61476 0.0
H342 H 0.27232 0.22433 0.6272 0.0
H343 H 0.26884 0.18484 0.71086 0.0
H344 H 0.30335 0.31927 0.74402 0.0
H345 H 0.29425 0.22301 0.94144 0.0
H346 H 0.27202 0.35293 0.69627 0.0
H347 H 0.2749 0.30708 0.62413 0.0
H348 H 0.2878 0.34658 0.64759 0.0
H349 H 0.26103 0.23413 0.9383 0.0
H350 H 0.27345 0.19228 0.95889 0.0
H351 H 0.26374 0.18963 0.863 0.0
C352 C 0.74322 0.21275 0.883 0.0
C353 C 0.73324 0.23138 0.83256 0.0
C354 C 0.75624 0.21298 0.85547 0.0
C355 C 0.75946 0.23219 0.77517 0.0
C356 C 0.74946 0.25138 0.72413 0.0
C357 C 0.73651 0.25089 0.75348 0.0
C358 C 0.76655 0.19243 0.91236 0.0
C359 C 0.75243 0.27198 0.63795 0.0
C360 C 0.7949 0.26516 0.73531 0.0
C361 C 0.7996 0.22766 0.68932 0.0
C362 C 0.78188 0.26732 0.76294 0.0
C363 C 0.77325 0.23119 0.74409 0.0
C364 C 0.7779 0.19345 0.69715 0.0
C365 C 0.79096 0.19216 0.67044 0.0
C366 C 0.77737 0.30809 0.81312 0.0
C367 C 0.76908 0.15426 0.67522 0.0
H368 H 0.74087 0.19834 0.94487 0.0
H369 H 0.72889 0.26508 0.71371 0.0
H370 H 0.77138 0.16386 0.87892 0.0
H371 H 0.77414 0.21803 0.92668 0.0
H372 H 0.76251 0.17964 0.97366 0.0
H373 H 0.74364 0.2863 0.60666 0.0
H374 H 0.75975 0.29934 0.64485 0.0
H375 H 0.75669 0.24583 0.59535 0.0
H376 H 0.80148 0.29261 0.75098 0.0
H377 H 0.79436 0.1634 0.6336 0.0
H378 H 0.77402 0.29725 0.87738 0.0
H379 H 0.76897 0.32429 0.78062 0.0
H380 H 0.78516 0.3338 0.82098 0.0
H381 H 0.76532 0.13845 0.73468 0.0
H382 H 0.7741 0.12777 0.63708 0.0
H383 H 0.76056 0.16668 0.63846 0.0
C384 C 0.29536 0.74465 0.2854 0.0
C385 C 0.29865 0.72267 0.20881 0.0
C386 C 0.28245 0.74541 0.31536 0.0
C387 C 0.27251 0.72386 0.26754 0.0
C388 C 0.27575 0.70196 0.18991 0.0
C389 C 0.28872 0.70162 0.16163 0.0
C390 C 0.27944 0.76899 0.39859 0.0
C391 C 0.26549 0.67877 0.13657 0.0
C392 C 0.24131 0.68672 0.37922 0.0
C393 C 0.2325 0.72099 0.35547 0.0
C394 C 0.25432 0.68747 0.35173 0.0
C395 C 0.25876 0.72344 0.29917 0.0
C396 C 0.24997 0.75835 0.27538 0.0
C397 C 0.23698 0.75672 0.30372 0.0
C398 C 0.26333 0.64959 0.37883 0.0
C399 C 0.25426 0.79727 0.21927 0.0
H400 H 0.30294 0.76073 0.3227 0.0
H401 H 0.29107 0.6853 0.10157 0.0
H402 H 0.27202 0.79576 0.38812 0.0
H403 H 0.27531 0.74433 0.44482 0.0
H404 H 0.2882 0.78474 0.42758 0.0
H405 H 0.26956 0.66367 0.07731 0.0
H406 H 0.26078 0.65148 0.17436 0.0
H407 H 0.25781 0.70344 0.11857 0.0
H408 H 0.23807 0.6594 0.42047 0.0
H409 H 0.23027 0.78316 0.2842 0.0
H410 H 0.27181 0.66373 0.41356 0.0
H411 H 0.26714 0.63179 0.32164 0.0
H412 H 0.25845 0.62436 0.4207 0.0
H413 H 0.26262 0.81502 0.24902 0.0
H414 H 0.24636 0.82228 0.20804 0.0
H415 H 0.25761 0.78413 0.15661 0.0
C416 C 0.74501 0.81538 0.16871 0.0
C417 C 0.73597 0.78238 0.1944 0.0
C418 C 0.75802 0.8138 0.19624 0.0
C419 C 0.7622 0.77833 0.25103 0.0
C420 C 0.75317 0.74464 0.27665 0.0
C421 C 0.7402 0.74701 0.24798 0.0
C422 C 0.7673 0.85031 0.1669 0.0
C423 C 0.75718 0.70636 0.33527 0.0
C424 C 0.79871 0.75523 0.26674 0.0
C425 C 0.8021 0.77883 0.34139 0.0
C426 C 0.78578 0.75433 0.23705 0.0
C427 C 0.77593 0.77738 0.28321 0.0
C428 C 0.77926 0.8007 0.35918 0.0
C429 C 0.79225 0.80116 0.38718 0.0
C430 C 0.78268 0.72922 0.15559 0.0
C431 C 0.7691 0.82549 0.41077 0.0
H432 H 0.74196 0.84237 0.12603 0.0
H433 H 0.7333 0.72153 0.26879 0.0
H434 H 0.77114 0.86898 0.22298 0.0
H435 H 0.77573 0.83476 0.13377 0.0
H436 H 0.76262 0.87506 0.12292 0.0
H437 H 0.74912 0.6822 0.34758 0.0
H438 H 0.76546 0.68744 0.30707 0.0
H439 H 0.76054 0.7203 0.39727 0.0
H440 H 0.80623 0.73813 0.23052 0.0
H441 H 0.79468 0.81876 0.4458 0.0
H442 H 0.77878 0.75326 0.10727 0.0
H443 H 0.77505 0.70345 0.16766 0.0
H444 H 0.79134 0.71199 0.12836 0.0
H445 H 0.7646 0.85262 0.37133 0.0
H446 H 0.77319 0.8411 0.46944 0.0
H447 H 0.76123 0.80176 0.42959 0.0
C448 C 0.15777 0.90763 0.58715 0.0
C449 C 0.15007 0.88115 0.53253 0.0
C450 C 0.15676 0.95523 0.58842 0.0
C451 C 0.14778 0.97744 0.53378 0.0
C452 C 0.13963 0.95079 0.48047 0.0
C453 C 0.14087 0.90296 0.48044 0.0
C454 C 0.16567 0.98187 0.64633 0.0
C455 C 0.12988 0.97286 0.42156 0.0
C456 C 0.14153 0.10319 0.58326 0.0
C457 C 0.15038 0.12461 0.52827 0.0
C458 C 0.14017 0.05541 0.5837 0.0
C459 C 0.14783 0.02842 0.52785 0.0
C460 C 0.15644 0.05025 0.47036 0.0
C461 C 0.15759 0.09781 0.47129 0.0
C462 C 0.13082 0.03373 0.64573 0.0
C463 C 0.16481 0.02325 0.40963 0.0
H464 H 0.16483 0.89109 0.6282 0.0
H465 H 0.13483 0.88276 0.43842 0.0
H466 H 0.1724 1.00268 0.60718 0.0
H467 H 0.15994 0.00551 0.68659 0.0
H468 H 0.17153 0.95955 0.68879 0.0
H469 H 0.12343 0.94761 0.39038 0.0
H470 H 0.1238 0.99743 0.45739 0.0
H471 H 0.13506 0.99217 0.37109 0.0
H472 H 0.13587 0.12364 0.62717 0.0
H473 H 0.16438 0.11405 0.42801 0.0
H474 H 0.13633 0.01406 0.69427 0.0
H475 H 0.12438 0.00955 0.61188 0.0
H476 H 0.12472 0.05926 0.67919 0.0
H477 H 0.17178 1.00213 0.44654 0.0
H478 H 0.17041 0.04533 0.36533 0.0
H479 H 0.15872 0.99988 0.37127 0.0
C480 C 0.8947 0.39322 0.55956 0.0
C481 C 0.88561 0.37294 0.50483 0.0
C482 C 0.89626 0.44089 0.56142 0.0
C483 C 0.88852 0.46886 0.50756 0.0
C484 C 0.87975 0.44816 0.44982 0.0
C485 C 0.87844 0.4007 0.44908 0.0
C486 C 0.90583 0.46138 0.62327 0.0
C487 C 0.87126 0.47627 0.39128 0.0
C488 C 0.87837 0.5879 0.57462 0.0
C489 C 0.88572 0.61558 0.51996 0.0
C490 C 0.87962 0.5404 0.57363 0.0
C491 C 0.88851 0.51961 0.51671 0.0
C492 C 0.89638 0.5475 0.4637 0.0
C493 C 0.89488 0.59519 0.46584 0.0
C494 C 0.871 0.51238 0.63123 0.0
C495 C 0.90606 0.5269 0.40263 0.0
H496 H 0.90034 0.372 0.60248 0.0
H497 H 0.87148 0.38532 0.40593 0.0
H498 H 0.912 0.48688 0.59042 0.0
H499 H 0.90049 0.47927 0.67477 0.0
H500 H 0.91221 0.43529 0.65298 0.0
H501 H 0.8656 0.45502 0.34606 0.0
H502 H 0.86435 0.49661 0.42992 0.0
H503 H 0.87727 0.50041 0.35392 0.0
H504 H 0.87135 0.60337 0.61723 0.0
H505 H 0.90066 0.61638 0.42382 0.0
H506 H 0.87693 0.48824 0.66934 0.0
H507 H 0.86419 0.49203 0.59185 0.0
H508 H 0.86522 0.53368 0.67574 0.0
H509 H 0.9122 0.50152 0.43615 0.0
H510 H 0.91245 0.55294 0.37311 0.0
H511 H 0.90081 0.50885 0.35096 0.0
C512 C 0.88556 0.88938 0.54499 0.0
C513 C 0.89541 0.87236 0.49191 0.0
C514 C 0.88377 0.93654 0.55559 0.0
C515 C 0.89207 0.96747 0.5125 0.0
C516 C 0.90178 0.95028 0.45701 0.0
C517 C 0.90329 0.90311 0.44725 0.0
C518 C 0.87323 0.95325 0.61471 0.0
C519 C 0.91089 0.98173 0.4099 0.0
C520 C 0.8844 0.09409 0.48797 0.0
C521 C 0.89235 0.1132 0.55121 0.0
C522 C 0.88378 0.0466 0.47662 0.0
C523 C 0.89132 0.01754 0.52955 0.0
C524 C 0.89895 0.03678 0.59557 0.0
C525 C 0.89934 0.08417 0.60566 0.0
C526 C 0.87542 0.02764 0.40602 0.0
C527 C 0.90716 0.00738 0.65357 0.0
H528 H 0.87939 0.86582 0.5794 0.0
H529 H 0.91088 0.89025 0.40577 0.0
H530 H 0.87769 0.96985 0.67112 0.0
H531 H 0.86714 0.97908 0.58197 0.0
H532 H 0.86687 0.92528 0.63738 0.0
H533 H 0.91749 0.96319 0.36593 0.0
H534 H 0.90526 0.00696 0.3723 0.0
H535 H 0.91688 1.00084 0.45651 0.0
H536 H 0.87894 0.11627 0.4458 0.0
H537 H 0.90546 0.09863 0.65501 0.0
H538 H 0.86909 1.00022 0.43109 0.0
H539 H 0.88169 0.01247 0.35599 0.0
H540 H 0.86921 0.0541 0.3759 0.0
H541 H 0.9011 0.9806 0.68352 0.0
H542 H 0.91194 0.02726 0.70495 0.0
H543 H 0.91479 0.99009 0.61553 0.0
C544 C 0.14722 0.60637 0.55769 0.0
C545 C 0.13773 0.62479 0.50316 0.0
C546 C 0.14854 0.55895 0.56801 0.0
C547 C 0.14021 0.52911 0.52257 0.0
C548 C 0.1309 0.5477 0.46555 0.0
C549 C 0.12978 0.59511 0.45665 0.0
C550 C 0.15861 0.54081 0.62936 0.0
C551 C 0.12183 0.51748 0.41553 0.0
C552 C 0.14768 0.40211 0.49893 0.0
C553 C 0.13935 0.38292 0.5601 0.0
C554 C 0.14836 0.44964 0.48745 0.0
C555 C 0.14057 0.47875 0.53845 0.0
C556 C 0.13247 0.4594 0.60204 0.0
C557 C 0.13196 0.41194 0.61198 0.0
C558 C 0.15715 0.46864 0.41908 0.0
C559 C 0.12402 0.4888 0.65819 0.0
H560 H 0.15344 0.62905 0.59361 0.0
H561 H 0.12248 0.60903 0.41397 0.0
H562 H 0.15371 0.52355 0.68358 0.0
H563 H 0.1648 0.51518 0.59718 0.0
H564 H 0.16493 0.56807 0.65521 0.0
H565 H 0.11564 0.53698 0.3703 0.0
H566 H 0.12747 0.492 0.3789 0.0
H567 H 0.11543 0.49862 0.46017 0.0
H568 H 0.15344 0.37994 0.45874 0.0
H569 H 0.12556 0.39745 0.65976 0.0
H570 H 0.1636 0.49503 0.44643 0.0
H571 H 0.15121 0.48518 0.36867 0.0
H572 H 0.16326 0.44198 0.38896 0.0
H573 H 0.13001 0.51492 0.69054 0.0
H574 H 0.11879 0.46879 0.70761 0.0
H575 H 0.11674 0.50691 0.61836 0.0
C576 C 0.6404 0.61873 0.0587 0.0
C577 C 0.64974 0.63895 1.00563 0.0
C578 C 0.63864 0.57113 0.05944 0.0
C579 C 0.64646 0.54315 1.00631 0.0
C580 C 0.65551 0.56382 0.95036 0.0
C581 C 0.65699 0.61121 0.95052 0.0
C582 C 0.62876 0.55066 0.11926 0.0
C583 C 0.66412 0.53573 0.8928 0.0
C584 C 0.65607 0.42322 0.07169 0.0
C585 C 0.64895 0.39632 1.01454 0.0
C586 C 0.65486 0.47072 0.07227 0.0
C587 C 0.64625 0.49234 1.01442 0.0
C588 C 0.63855 0.46522 0.95909 0.0
C589 C 0.64001 0.41749 0.95968 0.0
C590 C 0.6633 0.4979 0.13232 0.0
C591 C 0.62915 0.4867 0.89705 0.0
H592 H 0.6347 0.63994 0.10106 0.0
H593 H 0.66414 0.62653 0.90862 0.0
H594 H 0.62265 0.52561 0.08495 0.0
H595 H 0.63383 0.53226 0.17147 0.0
H596 H 0.62235 0.57684 0.14814 0.0
H597 H 0.67007 0.55702 0.84918 0.0
H598 H 0.67077 0.51465 0.93227 0.0
H599 H 0.65816 0.51227 0.85374 0.0
H600 H 0.66291 0.40713 0.11496 0.0
H601 H 0.6344 0.39692 0.91573 0.0
H602 H 0.65728 0.52194 0.16975 0.0
H603 H 0.67035 0.51829 0.09483 0.0
H604 H 0.6688 0.47597 0.17749 0.0
H605 H 0.623 0.51215 0.93011 0.0
H606 H 0.62276 0.46117 0.86618 0.0
H607 H 0.63463 0.50485 0.84643 0.0
C608 C 0.39352 0.896 0.07502 0.0
C609 C 0.38557 0.87594 1.0128 0.0
C610 C 0.39483 0.94369 0.07978 0.0
C611 C 0.38801 0.9719 1.0212 0.0
C612 C 0.38048 0.95146 0.95599 0.0
C613 C 0.3794 0.90397 0.95253 0.0
C614 C 0.40308 0.96393 0.14964 0.0
C615 C 0.37301 0.97982 0.89213 0.0
C616 C 0.37612 0.08954 0.08484 0.0
C617 C 0.38425 0.11825 0.03733 0.0
C618 C 0.3776 0.04212 0.08274 0.0
C619 C 0.38756 0.0225 0.03233 0.0
C620 C 0.39618 0.05143 0.98695 0.0
C621 C 0.39439 0.09897 0.98968 0.0
C622 C 0.36812 0.01294 0.13184 0.0
C623 C 0.40701 0.03212 0.93323 0.0
H624 H 0.39836 0.87457 0.12161 0.0
H625 H 0.37334 0.88876 0.9037 0.0
H626 H 0.40967 0.99017 0.123 0.0
H627 H 0.39673 0.98086 0.19722 0.0
H628 H 0.409 0.93782 0.18315 0.0
H629 H 0.36835 0.95883 0.84182 0.0
H630 H 0.36532 0.99929 0.92569 0.0
H631 H 0.37954 0.00475 0.86092 0.0
H632 H 0.36831 0.10413 0.12237 0.0
H633 H 0.40075 0.12093 0.9531 0.0
H634 H 0.37343 0.98872 0.17356 0.0
H635 H 0.36222 0.99266 0.08648 0.0
H636 H 0.36143 0.03338 0.1721 0.0
H637 H 0.41259 0.00649 0.9702 0.0
H638 H 0.4138 0.05883 0.91045 0.0
H639 H 0.40285 0.01464 0.87678 0.0
C640 C 0.38266 0.3922 0.0512 0.0
C641 C 0.39305 0.3752 1.00284 0.0
C642 C 0.38066 0.43933 0.06009 0.0
C643 C 0.38932 0.47025 1.02027 0.0
C644 C 0.39957 0.45308 0.96913 0.0
C645 C 0.40127 0.40591 0.96078 0.0
C646 C 0.36952 0.45601 0.11432 0.0
C647 C 0.40909 0.48456 0.92577 0.0
C648 C 0.38204 0.59699 0.99341 0.0
C649 C 0.38936 0.6158 0.06014 0.0
C650 C 0.38146 0.54954 0.9815 0.0
C651 C 0.38842 0.52026 0.03733 0.0
C652 C 0.39538 0.5392 0.10679 0.0
C653 C 0.39572 0.58654 0.11744 0.0
C654 C 0.37379 0.53085 0.90734 0.0
C655 C 0.40296 0.50957 0.16795 0.0
H656 H 0.37622 0.36865 0.08348 0.0
H657 H 0.40929 0.39305 0.92297 0.0
H658 H 0.37338 0.47226 0.17297 0.0
H659 H 0.36384 0.48211 0.07925 0.0
H660 H 0.36289 0.42807 0.1335 0.0
H661 H 0.41608 0.46604 0.88441 0.0
H662 H 0.40383 0.50986 0.88613 0.0
H663 H 0.41466 0.50359 0.97475 0.0
H664 H 0.37707 0.61937 0.94901 0.0
H665 H 0.40134 0.60077 0.16949 0.0
H666 H 0.36729 0.50315 0.92925 0.0
H667 H 0.38054 0.51611 0.85957 0.0
H668 H 0.36783 0.55738 0.87538 0.0
H669 H 0.39659 0.48284 0.1951 0.0
H670 H 0.40726 0.52927 0.22139 0.0
H671 H 0.41093 0.49222 0.13309 0.0
C672 C 0.6323 0.1077 0.93831 0.0
C673 C 0.64016 0.13902 0.9815 0.0
C674 C 0.63392 0.06066 0.94995 0.0
C675 C 0.64371 0.04425 1.00581 0.0
C676 C 0.65199 0.07575 0.04732 0.0
C677 C 0.65009 0.12274 0.03492 0.0
C678 C 0.62483 0.02854 0.9045 0.0
C679 C 0.66263 0.05986 0.10673 0.0
C680 C 0.63683 0.92836 0.10444 0.0
C681 C 0.64381 0.89901 0.05091 0.0
C682 C 0.63709 0.97565 0.0922 0.0
C683 C 0.64459 0.9944 0.02495 0.0
C684 C 0.65214 0.96504 0.97299 0.0
C685 C 0.65164 0.91768 0.98645 0.0
C686 C 0.62887 0.0054 0.14921 0.0
C687 C 0.66038 0.98351 0.90123 0.0
H688 H 0.62465 0.12 0.89662 0.0
H689 H 0.65624 0.14675 0.06826 0.0
H690 H 0.63047 1.00309 0.86777 0.0
H691 H 0.61892 0.00975 0.95214 0.0
H692 H 0.61815 0.0465 0.86002 0.0
H693 H 0.66898 0.08818 0.12783 0.0
H694 H 0.65826 0.0438 0.16409 0.0
H695 H 0.66871 0.03379 0.07493 0.0
H696 H 0.63081 0.91424 0.1547 0.0
H697 H 0.6571 0.89522 0.94497 0.0
H698 H 0.62117 0.02211 0.1107 0.0
H699 H 0.6349 0.03262 0.1778 0.0
H700 H 0.62418 0.98591 0.2016 0.0
H701 H 0.65402 0.99801 0.85082 0.0
H702 H 0.66661 0.95693 0.87201 0.0
H703 H 0.66667 0.01135 0.92485 0.0
C704 C 0.1559 0.2432 0.23752 0.0
C705 C 0.14443 0.2547 0.28066 0.0
C706 C 0.15623 0.23992 0.14786 0.0
C707 C 0.14493 0.25025 0.09967 0.0
C708 C 0.13335 0.26255 0.14312 0.0
C709 C 0.13316 0.26366 0.23321 0.0
C710 C 0.16864 0.22495 0.10479 0.0
C711 C 0.12123 0.27542 0.09442 0.0
C712 C 0.15045 0.28478 0.86714 0.0
C713 C 0.14632 0.24609 0.82283 0.0
C714 C 0.14977 0.28694 0.9569 0.0
C715 C 0.14534 0.24881 1.00394 0.0
C716 C 0.14146 0.20919 0.95936 0.0
C717 C 0.14174 0.20866 0.86933 0.0
C718 C 0.1536 0.33037 1.0013 0.0
C719 C 0.13714 0.16718 1.00677 0.0
H720 H 0.16459 0.23571 0.27424 0.0
H721 H 0.1243 0.27275 0.26652 0.0
H722 H 0.16669 0.19538 0.06287 0.0
H723 H 0.17241 0.2526 0.0636 0.0
H724 H 0.1763 0.21544 0.15156 0.0
H725 H 0.11316 0.28564 0.13746 0.0
H726 H 0.12337 0.30398 0.05027 0.0
H727 H 0.11793 0.24649 0.0548 0.0
H728 H 0.15382 0.31402 0.83133 0.0
H729 H 0.13858 0.17863 0.83525 0.0
H730 H 0.16202 0.32416 0.044 0.0
H731 H 0.14547 0.34248 0.0419 0.0
H732 H 0.15621 0.35768 0.95539 0.0
H733 H 0.1448 0.15637 0.05243 0.0
H734 H 0.135 0.13851 0.96297 0.0
H735 H 0.12829 0.17464 0.04463 0.0
C736 C 0.89404 0.28079 0.21979 0.0
C737 C 0.88892 0.2432 0.2633 0.0
C738 C 0.89378 0.2832 0.12998 0.0
C739 C 0.88865 0.24647 0.0823 0.0
C740 C 0.88363 0.20815 0.1261 0.0
C741 C 0.88363 0.20732 0.21604 0.0
C742 C 0.89889 0.32522 0.08612 0.0
C743 C 0.87843 0.1677 0.07796 0.0
C744 C 0.87796 0.26337 0.8506 0.0
C745 C 0.88903 0.24929 0.80557 0.0
C746 C 0.87779 0.26352 0.94061 0.0
C747 C 0.88878 0.24774 0.98668 0.0
C748 C 0.89991 0.2329 0.94126 0.0
C749 C 0.89997 0.23454 0.85144 0.0
C750 C 0.86588 0.28089 0.98641 0.0
C751 C 0.91168 0.21457 0.98751 0.0
H752 H 0.89801 0.30884 0.25614 0.0
H753 H 0.87973 0.17808 0.24945 0.0
H754 H 0.90734 0.31635 0.04544 0.0
H755 H 0.89131 0.33969 0.04355 0.0
H756 H 0.90195 0.35169 0.13238 0.0
H757 H 0.87515 0.14013 0.1214 0.0
H758 H 0.87012 0.17812 0.03718 0.0
H759 H 0.88606 0.15403 0.03498 0.0
H760 H 0.86951 0.27502 0.81541 0.0
H761 H 0.90849 0.22312 0.81691 0.0
H762 H 0.86862 0.30869 0.03061 0.0
H763 H 0.86156 0.25341 0.02568 0.0
H764 H 0.85836 0.29374 0.94145 0.0
H765 H 0.9158 0.24101 0.02992 0.0
H766 H 0.9194 0.20311 0.94281 0.0
H767 H 0.90883 0.18552 0.02865 0.0
C768 C 0.15629 0.76627 0.19105 0.0
C769 C 0.14478 0.76003 0.23744 0.0
C770 C 0.15624 0.76612 0.10095 0.0
C771 C 0.14449 0.75763 0.05624 0.0
C772 C 0.1329 0.75047 0.10319 0.0
C773 C 0.13314 0.75265 0.19299 0.0
C774 C 0.16873 0.77551 0.0536 0.0
C775 C 0.12026 0.73964 0.05865 0.0
C776 C 0.14035 0.79265 0.82258 0.0
C777 C 0.14357 0.75252 0.77947 0.0
C778 C 0.14092 0.79511 0.91238 0.0
C779 C 0.1443 0.75599 0.96051 0.0
C780 C 0.14729 0.7151 0.91704 0.0
C781 C 0.14714 0.71413 0.82707 0.0
C782 C 0.13809 0.83978 0.95566 0.0
C783 C 0.15048 0.67216 0.96556 0.0
H784 H 0.1653 0.77218 0.22524 0.0
H785 H 0.12425 0.74724 0.22872 0.0
H786 H 0.17152 0.74553 1.01502 0.0
H787 H 0.16732 0.80428 1.00861 0.0
H788 H 0.17687 0.7838 0.09752 0.0
H789 H 0.11222 0.73317 0.10446 0.0
H790 H 0.1174 0.76816 1.01627 0.0
H791 H 0.1215 0.70924 1.01769 0.0
H792 H 0.13774 0.82255 0.78585 0.0
H793 H 0.14958 0.68299 0.79386 0.0
H794 H 0.14638 0.84948 0.99713 0.0
H795 H 0.12943 0.83644 0.99736 0.0
H796 H 0.13629 0.86758 0.90903 0.0
H797 H 0.15936 0.67717 1.0046 0.0
H798 H 0.15207 0.64278 0.92243 0.0
H799 H 0.14245 0.66383 1.01022 0.0
C800 C 0.90257 0.75544 0.8179 0.0
C801 C 0.89143 0.74463 0.77064 0.0
C802 C 0.90235 0.7549 0.90797 0.0
C803 C 0.89089 0.7414 0.95153 0.0
C804 C 0.87974 0.72926 0.90357 0.0
C805 C 0.88008 0.73192 0.8139 0.0
C806 C 0.9143 0.76962 0.9565 0.0
C807 C 0.86749 0.71304 0.94692 0.0
C808 C 0.89442 0.70088 0.1823 0.0
C809 C 0.88944 0.73788 0.22809 0.0
C810 C 0.89475 0.70124 0.09237 0.0
C811 C 0.89048 0.74026 0.04716 0.0
C812 C 0.88561 0.77797 0.09341 0.0
C813 C 0.88493 0.77597 0.18318 0.0
C814 C 0.89954 0.65967 0.04573 0.0
C815 C 0.88134 0.82077 0.04816 0.0
H816 H 0.91133 0.76553 0.78445 0.0
H817 H 0.8715 0.72307 0.77729 0.0
H818 H 0.91181 0.79814 0.99978 0.0
H819 H 0.9179 0.74136 0.99702 0.0
H820 H 0.92226 0.7806 0.9133 0.0
H821 H 0.85993 0.70244 0.90034 0.0
H822 H 0.86973 0.68389 0.98951 0.0
H823 H 0.86342 0.7404 0.98747 0.0
H824 H 0.89787 0.67131 0.21689 0.0
H825 H 0.88124 0.80487 0.21849 0.0
H826 H 0.90831 0.66816 1.00777 0.0
H827 H 0.89201 0.64775 1.00024 0.0
H828 H 0.902 0.63142 0.09005 0.0
H829 H 0.88936 0.83381 1.00762 0.0
H830 H 0.87838 0.84783 0.09352 0.0
H831 H 0.87303 0.81337 1.00528 0.0
C832 C 0.63594 0.77704 0.35326 0.0
C833 C 0.64686 0.762 0.30769 0.0
C834 C 0.63598 0.7787 0.44305 0.0
C835 C 0.64706 0.76357 0.48879 0.0
C836 C 0.65803 0.74748 0.44305 0.0
C837 C 0.65788 0.74762 0.35302 0.0
C838 C 0.62423 0.79737 0.48892 0.0
C839 C 0.66989 0.72981 0.48922 0.0
C840 C 0.65221 0.80425 0.71765 0.0
C841 C 0.6468 0.76863 0.76528 0.0
C842 C 0.65226 0.80324 0.62774 0.0
C843 C 0.64717 0.76497 0.58438 0.0
C844 C 0.64193 0.72849 0.63244 0.0
C845 C 0.64162 0.7311 0.72221 0.0
C846 C 0.65757 0.84344 0.57915 0.0
C847 C 0.63674 0.68653 0.58907 0.0
H848 H 0.62745 0.78871 0.31851 0.0
H849 H 0.66631 0.73575 0.31807 0.0
H850 H 0.62005 0.77108 0.53157 0.0
H851 H 0.62713 0.82639 0.52977 0.0
H852 H 0.61655 0.80899 0.44398 0.0
H853 H 0.67738 0.71667 0.44452 0.0
H854 H 0.67427 0.7572 0.52821 0.0
H855 H 0.66707 0.70215 0.53373 0.0
H856 H 0.65616 0.83344 0.75075 0.0
H857 H 0.63756 0.70325 0.75888 0.0
H858 H 0.64999 0.85727 0.53581 0.0
H859 H 0.66587 0.83271 0.53872 0.0
H860 H 0.6609 0.87099 0.62229 0.0
H861 H 0.62832 0.69553 0.54811 0.0
H862 H 0.63362 0.6602 0.63564 0.0
H863 H 0.64431 0.67179 0.54685 0.0
C864 C 0.39843 0.72972 0.72263 0.0
C865 C 0.38776 0.74569 0.76925 0.0
C866 C 0.39837 0.73055 0.63265 0.0
C867 C 0.38761 0.74962 0.58855 0.0
C868 C 0.37698 0.76699 0.63589 0.0
C869 C 0.37707 0.76392 0.72556 0.0
C870 C 0.40969 0.71019 0.58477 0.0
C871 C 0.36555 0.7892 0.59188 0.0
C872 C 0.39326 0.78731 0.35811 0.0
C873 C 0.38696 0.75301 0.31217 0.0
C874 C 0.39331 0.78721 0.44806 0.0
C875 C 0.38738 0.75089 0.49301 0.0
C876 C 0.38117 0.71581 0.44653 0.0
C877 C 0.38081 0.71779 0.35674 0.0
C878 C 0.39959 0.82616 0.49494 0.0
C879 C 0.37512 0.6757 0.49156 0.0
H880 H 0.40667 0.7154 0.75656 0.0
H881 H 0.36887 0.77675 0.76182 0.0
H882 H 0.40616 0.68326 0.54104 0.0
H883 H 0.41444 0.73647 0.5448 0.0
H884 H 0.41708 0.6953 0.6284 0.0
H885 H 0.35845 0.80347 0.63806 0.0
H886 H 0.36899 0.81692 0.54947 0.0
H887 H 0.36047 0.76415 0.55104 0.0
H888 H 0.39797 0.81467 0.32359 0.0
H889 H 0.37608 0.69094 0.32115 0.0
H890 H 0.40791 0.81362 0.53346 0.0
H891 H 0.39253 0.84162 0.53993 0.0
H892 H 0.40316 0.85293 0.45072 0.0
H893 H 0.38246 0.65885 0.53288 0.0
H894 H 0.37118 0.6503 0.44605 0.0
H895 H 0.36711 0.68728 0.53365 0.0
C896 C 0.65518 0.28285 0.30179 0.0
C897 C 0.64383 0.27002 0.25862 0.0
C898 C 0.65551 0.28576 0.39152 0.0
C899 C 0.64438 0.27367 0.43973 0.0
C900 C 0.63292 0.26013 0.39619 0.0
C901 C 0.6327 0.25941 0.30608 0.0
C902 C 0.66777 0.30207 0.43467 0.0
C903 C 0.62098 0.24537 0.44483 0.0
C904 C 0.65038 0.2384 0.67157 0.0
C905 C 0.64581 0.27623 0.71679 0.0
C906 C 0.64971 0.23675 0.58173 0.0
C907 C 0.64483 0.27457 0.53553 0.0
C908 C 0.64051 0.31335 0.58104 0.0
C909 C 0.64081 0.31333 0.67108 0.0
C910 C 0.65402 0.19414 0.53634 0.0
C911 C 0.63569 0.35506 0.5346 0.0
H912 H 0.66377 0.29151 0.26506 0.0
H913 H 0.62395 0.24919 0.27273 0.0
H914 H 0.66552 0.33099 0.47755 0.0
H915 H 0.67191 0.27461 0.47489 0.0
H916 H 0.67527 0.31302 0.38796 0.0
H917 H 0.61299 0.23456 0.40171 0.0
H918 H 0.62347 0.2167 0.48801 0.0
H919 H 0.61741 0.27352 0.48547 0.0
H920 H 0.65408 0.2094 0.70673 0.0
H921 H 0.6373 0.3427 0.70581 0.0
H922 H 0.66232 0.20174 0.49355 0.0
H923 H 0.646 0.18117 0.4957 0.0
H924 H 0.657 0.16695 0.58161 0.0
H925 H 0.6432 0.36709 0.48898 0.0
H926 H 0.63327 0.38318 0.57905 0.0
H927 H 0.6269 0.3467 0.49681 0.0
C928 C 0.393 0.20817 0.32996 0.0
C929 C 0.38816 0.24608 0.28584 0.0
C930 C 0.39319 0.20688 0.41987 0.0
C931 C 0.38883 0.24499 0.46701 0.0
C932 C 0.38408 0.2836 0.42258 0.0
C933 C 0.38361 0.28339 0.33264 0.0
C934 C 0.39797 0.16452 0.46442 0.0
C935 C 0.37965 0.32541 0.47004 0.0
C936 C 0.37846 0.23103 0.69973 0.0
C937 C 0.38977 0.2435 0.74394 0.0
C938 C 0.3781 0.23061 0.60983 0.0
C939 C 0.38918 0.24437 0.5627 0.0
C940 C 0.40058 0.2575 0.60714 0.0
C941 C 0.4008 0.25623 0.69712 0.0
C942 C 0.36587 0.2151 0.56529 0.0
C943 C 0.41248 0.27359 0.55965 0.0
H944 H 0.39643 0.1791 0.29408 0.0
H945 H 0.37997 0.31294 0.29881 0.0
H946 H 0.40663 0.17248 0.50385 0.0
H947 H 0.39036 0.15153 0.50829 0.0
H948 H 0.40059 0.13722 0.41866 0.0
H949 H 0.37664 0.35317 0.42612 0.0
H950 H 0.37134 0.31694 0.51223 0.0
H951 H 0.38761 0.338 0.51155 0.0
H952 H 0.36993 0.22086 0.73553 0.0
H953 H 0.40952 0.26634 0.73095 0.0
H954 H 0.36814 0.1866 0.52147 0.0
H955 H 0.36185 0.24308 0.5258 0.0
H956 H 0.35828 0.20382 0.61105 0.0
H957 H 0.41615 0.24631 0.51727 0.0
H958 H 0.42044 0.28388 0.60354 0.0
H959 H 0.40993 0.30294 0.51831 0.0
C960 C 0.04745 0.29353 0.47188 0.0
C961 C 0.05297 0.25172 0.49575 0.0
C962 C 0.03387 0.29972 0.4696 0.0
C963 C 0.02552 0.2633 0.49172 0.0
C964 C 0.03102 0.22103 0.51565 0.0
C965 C 0.04461 0.21581 0.51751 0.0
C966 C 0.02843 0.34531 0.44359 0.0
C967 C 0.02254 0.18127 0.53996 0.0
C968 C 0.99059 0.28512 0.56352 0.0
C969 C 0.98344 0.27369 0.49015 0.0
C970 C 1.00427 0.28302 0.56429 0.0
C971 C 1.01105 0.26909 0.48995 0.0
C972 C 1.00392 0.25866 0.41506 0.0
C973 C 0.99025 0.26113 0.41602 0.0
C974 C 1.01146 0.29448 0.64554 0.0
C975 C 1.01071 0.24381 0.3343 0.0
H976 H 0.05376 0.32141 0.45417 0.0
H977 H 0.0487 0.18362 0.53772 0.0
H978 H 0.02209 0.34144 0.38671 0.0
H979 H 0.02232 0.35921 0.49577 0.0
H980 H 0.03619 0.37024 0.4284 0.0
H981 H 0.0283 0.15055 0.55633 0.0
H982 H 1.0164 0.19032 0.59568 0.0
H983 H 1.01589 0.17286 0.48643 0.0
H984 H 0.98548 0.29433 0.62149 0.0
H985 H 0.98488 0.25295 0.35851 0.0
H986 H 0.01897 0.32056 0.63265 0.0
H987 H 1.01654 0.26385 0.66994 0.0
H988 H 1.00486 0.30728 0.69627 0.0
H989 H 0.01808 0.26935 0.31523 0.0
H990 H 1.00384 0.23889 0.28034 0.0
H991 H 1.01593 0.21141 0.34593 0.0
C992 C 0.9884 0.76173 0.61943 0.0
C993 C 0.98281 0.73093 0.5618 0.0
C994 C 1.00198 0.76795 0.62318 0.0
C995 C 1.01019 0.74328 0.56721 0.0
C996 C 1.00459 0.71215 0.50901 0.0
C997 C 0.99103 0.70626 0.50727 0.0
C998 C 1.00753 0.80115 0.68675 0.0
C999 C 1.01292 0.68561 0.44728 0.0
C1000 C 0.04361 0.79125 0.51268 0.0
C1001 C 0.05195 0.76408 0.56226 0.0
C1002 C 0.03006 0.78505 0.51424 0.0
C1003 C 0.0246 0.75102 0.56721 0.0
C1004 C 0.03294 0.72367 0.61798 0.0
C1005 C 0.0465 0.73031 0.61448 0.0
C1006 C 0.0216 0.81457 0.45809 0.0
C1007 C 0.02753 0.68732 0.67593 0.0
H1008 H 0.98215 0.78069 0.66221 0.0
H1009 H 0.98682 0.68294 0.46153 0.0
H1010 H 1.01478 0.78389 0.72806 0.0
H1011 H 1.01266 0.82883 0.65251 0.0
H1012 H 0.99991 0.81642 0.72801 0.0
H1013 H 1.00711 0.66214 0.40708 0.0
H1014 H 0.01825 0.70931 0.40472 0.0
H1015 H 0.02029 0.66553 0.48276 0.0
H1016 H 0.04772 0.81697 0.47113 0.0
H1017 H 0.05284 0.70942 0.65352 0.0
H1018 H 1.01435 0.83286 0.49758 0.0
H1019 H 1.01614 0.7931 0.41232 0.0
H1020 H 0.02733 0.83989 0.42135 0.0
H1021 H 0.02041 0.70239 0.72097 0.0
H1022 H 0.03524 0.6699 0.71338 0.0
H1023 H 0.02227 0.66161 0.63752 0.0
C1024 C 0.54521 0.77314 0.93818 0.0
C1025 C 0.55211 0.74948 1.0018 0.0
C1026 C 0.53155 0.77551 0.93909 0.0
C1027 C 0.52451 0.75334 1.00474 0.0
C1028 C 0.53138 0.72882 0.06843 0.0
C1029 C 0.54506 0.7273 0.06636 0.0
C1030 C 0.52465 0.802 0.8699 0.0
C1031 C 0.52427 0.70445 0.13929 0.0
C1032 C 0.48981 0.79169 0.0534 0.0
C1033 C 0.48237 0.75874 1.01097 0.0
C1034 C 0.5035 0.79054 0.0515 0.0
C1035 C 0.50997 0.7555 1.00636 0.0
C1036 C 0.50254 0.72244 0.9627 0.0
C1037 C 0.48889 0.72458 0.9652 0.0
C1038 C 0.51104 0.8266 0.09857 0.0
C1039 C 0.50901 0.68454 0.91371 0.0
H1040 H 0.55049 0.78979 0.88712 0.0
H1041 H 0.55023 0.70947 0.11657 0.0
H1042 H 0.51796 0.77939 0.83433 0.0
H1043 H 0.51866 0.82925 0.89891 0.0
H1044 H 0.53152 0.81767 0.82376 0.0
H1045 H 0.53099 0.68625 0.18317 0.0
H1046 H 0.51849 0.72911 0.17703 0.0
H1047 H 0.51735 0.67956 0.11185 0.0
H1048 H 0.48494 0.81793 0.08976 0.0
H1049 H 0.48329 0.69939 0.93081 0.0
H1050 H 0.51768 0.84438 0.05384 0.0
H1051 H 0.51715 0.81064 0.14877 0.0
H1052 H 0.50459 0.8521 0.12911 0.0
H1053 H 0.51538 0.69883 0.86324 0.0
H1054 H 0.50186 0.66142 0.88328 0.0
H1055 H 0.51527 0.66433 0.95726 0.0
C1056 C 0.48757 0.27845 0.99545 0.0
C1057 C 0.48204 0.23497 1.00199 0.0
C1058 C 0.50116 0.28457 0.99408 0.0
C1059 C 0.50952 0.24642 1.00019 0.0
C1060 C 0.50403 0.20246 1.00547 0.0
C1061 C 0.49043 0.19727 1.00565 0.0
C1062 C 0.50658 0.33203 0.98748 0.0
C1063 C 0.51253 0.16078 1.0122 0.0
C1064 C 0.54493 0.25629 0.92853 0.0
C1065 C 0.5515 0.26262 1.00637 0.0
C1066 C 0.53132 0.25134 0.92551 0.0
C1067 C 0.52401 0.2524 1.00221 0.0
C1068 C 0.53058 0.25857 0.08103 0.0
C1069 C 0.54419 0.26378 0.08213 0.0
C1070 C 0.52475 0.2453 0.84 0.0
C1071 C 0.52322 0.2594 0.16445 0.0
H1072 H 0.48128 0.30796 0.99362 0.0
H1073 H 0.48637 0.16341 1.00887 0.0
H1074 H 0.5122 0.34016 0.04599 0.0
H1075 H 0.51337 0.3344 0.93261 0.0
H1076 H 0.49883 0.35798 0.97928 0.0
H1077 H 0.50677 0.12896 1.01561 0.0
H1078 H 0.51912 0.15882 0.95627 0.0
H1079 H 0.51872 0.16302 0.07013 0.0
H1080 H 0.55042 0.25606 0.86946 0.0
H1081 H 0.54915 0.26824 0.14265 0.0
H1082 H 0.51755 0.27282 0.82969 0.0
H1083 H 0.51937 0.21272 0.83887 0.0
H1084 H 0.53178 0.24559 0.78613 0.0
H1085 H 0.51589 0.28703 0.16341 0.0
H1086 H 0.52972 0.26452 0.22029 0.0
H1087 H 0.51789 0.227 0.17317 0.0
loop_
_geom_bond_atom_site_label_1
_geom_bond_atom_site_label_2
_geom_bond_distance
_geom_bond_site_symmetry_2
_ccdc_geom_bond_type
Tb0 C2 2.809 . S
Tb0 O20 2.484 . S
Tb0 O21 2.440 . S
Tb0 O22 2.658 . S
Tb0 O23 2.409 . S
Tb0 O24 2.378 . S
Tb0 O28 2.325 . S
Tb0 O31 2.341 . S
Tb1 C11 2.809 . S
Tb1 O22 2.325 . S
Tb1 O25 2.341 . S
Tb1 O26 2.484 . S
Tb1 O27 2.440 . S
Tb1 O28 2.658 . S
Tb1 O29 2.409 . S
Tb1 O30 2.378 . S
C2 Tb0 2.809 . S
C2 C3 1.514 . S
C2 O20 1.248 . S
C2 O21 1.266 . S
C3 C2 1.514 . S
C3 C4 1.359 . S
C3 C8 1.348 . S
C4 C3 1.359 . S
C4 C5 1.380 . S
C4 H32 0.929 . S
C5 C4 1.380 . S
C5 C6 1.347 . S
C5 H33 0.931 . S
C6 C5 1.347 . S
C6 C7 1.369 . S
C7 C6 1.369 . S
C7 C8 1.408 . S
C7 H34 0.930 . S
C8 C3 1.348 . S
C8 C7 1.408 . S
C8 H35 0.930 . S
C9 O22 1.281 . S
C9 O23 1.254 . S
C10 O24 1.236 . S
C10 O25 1.266 . S
C11 Tb1 2.809 . S
C11 C12 1.514 . S
C11 O26 1.248 . S
C11 O27 1.266 . S
C12 C11 1.514 . S
C12 C13 1.359 . S
C12 C17 1.348 . S
C13 C12 1.359 . S
C13 C14 1.380 . S
C13 H36 0.929 . S
C14 C13 1.380 . S
C14 C15 1.347 . S
C14 H37 0.931 . S
C15 C14 1.347 . S
C15 C16 1.369 . S
C16 C15 1.369 . S
C16 C17 1.408 . S
C16 H38 0.930 . S
C17 C12 1.348 . S
C17 C16 1.408 . S
C17 H39 0.930 . S
C18 O28 1.281 . S
C18 O29 1.254 . S
C19 O30 1.236 . S
C19 O31 1.266 . S
O20 Tb0 2.484 . S
O20 C2 1.248 . S
O21 Tb0 2.440 . S
O21 C2 1.266 . S
O22 Tb0 2.658 . S
O22 Tb1 2.325 . S
O22 C9 1.281 . S
O23 Tb0 2.409 . S
O23 C9 1.254 . S
O24 Tb0 2.378 . S
O24 C10 1.236 . S
O25 Tb1 2.341 . S
O25 C10 1.266 . S
O26 Tb1 2.484 . S
O26 C11 1.248 . S
O27 Tb1 2.440 . S
O27 C11 1.266 . S
O28 Tb0 2.325 . S
O28 Tb1 2.658 . S
O28 C18 1.281 . S
O29 Tb1 2.409 . S
O29 C18 1.254 . S
O30 Tb1 2.378 . S
O30 C19 1.236 . S
O31 Tb0 2.341 . S
O31 C19 1.266 . S
H32 C4 0.929 . S
H33 C5 0.931 . S
H34 C7 0.930 . S
H35 C8 0.930 . S
H36 C13 0.929 . S
H37 C14 0.931 . S
H38 C16 0.930 . S
H39 C17 0.930 . S
Tb40 C42 2.809 . S
Tb40 O60 2.484 . S
Tb40 O61 2.440 . S
Tb40 O62 2.658 . S
Tb40 O63 2.409 . S
Tb40 O64 2.378 . S
Tb40 O68 2.325 . S
Tb40 O71 2.341 . S
Tb41 C51 2.809 . S
Tb41 O62 2.325 . S
Tb41 O65 2.341 . S
Tb41 O66 2.484 . S
Tb41 O67 2.440 . S
Tb41 O68 2.658 . S
Tb41 O69 2.409 . S
Tb41 O70 2.378 . S
C42 Tb40 2.809 . S
C42 C43 1.514 . S
C42 O60 1.248 . S
C42 O61 1.266 . S
C43 C42 1.514 . S
C43 C44 1.359 . S
C43 C48 1.348 . S
C44 C43 1.359 . S
C44 C45 1.380 . S
C44 H72 0.929 . S
C45 C44 1.380 . S
C45 C46 1.347 . S
C45 H73 0.931 . S
C46 C45 1.347 . S
C46 C47 1.369 . S
C47 C46 1.369 . S
C47 C48 1.408 . S
C47 H74 0.930 . S
C48 C43 1.348 . S
C48 C47 1.408 . S
C48 H75 0.930 . S
C49 O62 1.281 . S
C49 O63 1.254 . S
C50 O64 1.236 . S
C50 O65 1.266 . S
C51 Tb41 2.809 . S
C51 C52 1.514 . S
C51 O66 1.248 . S
C51 O67 1.266 . S
C52 C51 1.514 . S
C52 C53 1.359 . S
C52 C57 1.348 . S
C53 C52 1.359 . S
C53 C54 1.380 . S
C53 H76 0.929 . S
C54 C53 1.380 . S
C54 C55 1.347 . S
C54 H77 0.931 . S
C55 C54 1.347 . S
C55 C56 1.369 . S
C56 C55 1.369 . S
C56 C57 1.408 . S
C56 H78 0.930 . S
C57 C52 1.348 . S
C57 C56 1.408 . S
C57 H79 0.930 . S
C58 O68 1.281 . S
C58 O69 1.254 . S
C59 O70 1.236 . S
C59 O71 1.266 . S
O60 Tb40 2.484 . S
O60 C42 1.248 . S
O61 Tb40 2.440 . S
O61 C42 1.266 . S
O62 Tb40 2.658 . S
O62 Tb41 2.325 . S
O62 C49 1.281 . S
O63 Tb40 2.409 . S
O63 C49 1.254 . S
O64 Tb40 2.378 . S
O64 C50 1.236 . S
O65 Tb41 2.341 . S
O65 C50 1.266 . S
O66 Tb41 2.484 . S
O66 C51 1.248 . S
O67 Tb41 2.440 . S
O67 C51 1.266 . S
O68 Tb40 2.325 . S
O68 Tb41 2.658 . S
O68 C58 1.281 . S
O69 Tb41 2.409 . S
O69 C58 1.254 . S
O70 Tb41 2.378 . S
O70 C59 1.236 . S
O71 Tb40 2.341 . S
O71 C59 1.266 . S
H72 C44 0.929 . S
H73 C45 0.931 . S
H74 C47 0.930 . S
H75 C48 0.930 . S
H76 C53 0.929 . S
H77 C54 0.931 . S
H78 C56 0.930 . S
H79 C57 0.930 . S
Tb80 C82 2.809 . S
Tb80 O100 2.484 . S
Tb80 O101 2.440 . S
Tb80 O102 2.658 . S
Tb80 O103 2.409 . S
Tb80 O104 2.378 . S
Tb80 O108 2.325 . S
Tb80 O111 2.341 . S
Tb81 C91 2.809 . S
Tb81 O102 2.325 . S
Tb81 O105 2.341 . S
Tb81 O106 2.484 . S
Tb81 O107 2.440 . S
Tb81 O108 2.658 . S
Tb81 O109 2.409 . S
Tb81 O110 2.378 . S
C82 Tb80 2.809 . S
C82 C83 1.514 . S
C82 O100 1.248 . S
C82 O101 1.266 . S
C83 C82 1.514 . S
C83 C84 1.359 . S
C83 C88 1.348 . S
C84 C83 1.359 . S
C84 C85 1.380 . S
C84 H112 0.929 . S
C85 C84 1.380 . S
C85 C86 1.347 . S
C85 H113 0.931 . S
C86 C85 1.347 . S
C86 C87 1.369 . S
C87 C86 1.369 . S
C87 C88 1.408 . S
C87 H114 0.930 . S
C88 C83 1.348 . S
C88 C87 1.408 . S
C88 H115 0.930 . S
C89 O102 1.281 . S
C89 O103 1.254 . S
C90 O104 1.236 . S
C90 O105 1.266 . S
C91 Tb81 2.809 . S
C91 C92 1.514 . S
C91 O106 1.248 . S
C91 O107 1.266 . S
C92 C91 1.514 . S
C92 C93 1.359 . S
C92 C97 1.348 . S
C93 C92 1.359 . S
C93 C94 1.380 . S
C93 H116 0.929 . S
C94 C93 1.380 . S
C94 C95 1.347 . S
C94 H117 0.931 . S
C95 C94 1.347 . S
C95 C96 1.369 . S
C96 C95 1.369 . S
C96 C97 1.408 . S
C96 H118 0.930 . S
C97 C92 1.348 . S
C97 C96 1.408 . S
C97 H119 0.930 . S
C98 O108 1.281 . S
C98 O109 1.254 . S
C99 O110 1.236 . S
C99 O111 1.266 . S
O100 Tb80 2.484 . S
O100 C82 1.248 . S
O101 Tb80 2.440 . S
O101 C82 1.266 . S
O102 Tb80 2.658 . S
O102 Tb81 2.325 . S
O102 C89 1.281 . S
O103 Tb80 2.409 . S
O103 C89 1.254 . S
O104 Tb80 2.378 . S
O104 C90 1.236 . S
O105 Tb81 2.341 . S
O105 C90 1.266 . S
O106 Tb81 2.484 . S
O106 C91 1.248 . S
O107 Tb81 2.440 . S
O107 C91 1.266 . S
O108 Tb80 2.325 . S
O108 Tb81 2.658 . S
O108 C98 1.281 . S
O109 Tb81 2.409 . S
O109 C98 1.254 . S
O110 Tb81 2.378 . S
O110 C99 1.236 . S
O111 Tb80 2.341 . S
O111 C99 1.266 . S
H112 C84 0.929 . S
H113 C85 0.931 . S
H114 C87 0.930 . S
H115 C88 0.930 . S
H116 C93 0.929 . S
H117 C94 0.931 . S
H118 C96 0.930 . S
H119 C97 0.930 . S
Tb120 C122 2.809 . S
Tb120 O140 2.484 . S
Tb120 O141 2.440 . S
Tb120 O142 2.658 . S
Tb120 O143 2.409 . S
Tb120 O144 2.378 . S
Tb120 O148 2.325 . S
Tb120 O151 2.341 . S
Tb121 C131 2.809 . S
Tb121 O142 2.325 . S
Tb121 O145 2.341 . S
Tb121 O146 2.484 . S
Tb121 O147 2.440 . S
Tb121 O148 2.658 . S
Tb121 O149 2.409 . S
Tb121 O150 2.378 . S
C122 Tb120 2.809 . S
C122 C123 1.514 . S
C122 O140 1.248 . S
C122 O141 1.266 . S
C123 C122 1.514 . S
C123 C124 1.359 . S
C123 C128 1.348 . S
C124 C123 1.359 . S
C124 C125 1.380 . S
C124 H152 0.929 . S
C125 C124 1.380 . S
C125 C126 1.347 . S
C125 H153 0.931 . S
C126 C125 1.347 . S
C126 C127 1.369 . S
C127 C126 1.369 . S
C127 C128 1.408 . S
C127 H154 0.930 . S
C128 C123 1.348 . S
C128 C127 1.408 . S
C128 H155 0.930 . S
C129 O142 1.281 . S
C129 O143 1.254 . S
C130 O144 1.236 . S
C130 O145 1.266 . S
C131 Tb121 2.809 . S
C131 C132 1.514 . S
C131 O146 1.248 . S
C131 O147 1.266 . S
C132 C131 1.514 . S
C132 C133 1.359 . S
C132 C137 1.348 . S
C133 C132 1.359 . S
C133 C134 1.380 . S
C133 H156 0.929 . S
C134 C133 1.380 . S
C134 C135 1.347 . S
C134 H157 0.931 . S
C135 C134 1.347 . S
C135 C136 1.369 . S
C136 C135 1.369 . S
C136 C137 1.408 . S
C136 H158 0.930 . S
C137 C132 1.348 . S
C137 C136 1.408 . S
C137 H159 0.930 . S
C138 O148 1.281 . S
C138 O149 1.254 . S
C139 O150 1.236 . S
C139 O151 1.266 . S
O140 Tb120 2.484 . S
O140 C122 1.248 . S
O141 Tb120 2.440 . S
O141 C122 1.266 . S
O142 Tb120 2.658 . S
O142 Tb121 2.325 . S
O142 C129 1.281 . S
O143 Tb120 2.409 . S
O143 C129 1.254 . S
O144 Tb120 2.378 . S
O144 C130 1.236 . S
O145 Tb121 2.341 . S
O145 C130 1.266 . S
O146 Tb121 2.484 . S
O146 C131 1.248 . S
O147 Tb121 2.440 . S
O147 C131 1.266 . S
O148 Tb120 2.325 . S
O148 Tb121 2.658 . S
O148 C138 1.281 . S
O149 Tb121 2.409 . S
O149 C138 1.254 . S
O150 Tb121 2.378 . S
O150 C139 1.236 . S
O151 Tb120 2.341 . S
O151 C139 1.266 . S
H152 C124 0.929 . S
H153 C125 0.931 . S
H154 C127 0.930 . S
H155 C128 0.930 . S
H156 C133 0.929 . S
H157 C134 0.931 . S
H158 C136 0.930 . S
H159 C137 0.930 . S
Tb160 C162 2.809 1_556 S
Tb160 O180 2.484 1_556 S
Tb160 O181 2.440 1_556 S
Tb160 O182 2.658 . S
Tb160 O183 2.409 . S
Tb160 O184 2.378 1_556 S
Tb160 O188 2.325 1_556 S
Tb160 O191 2.341 . S
Tb161 C171 2.809 1_554 S
Tb161 O182 2.325 1_554 S
Tb161 O185 2.341 . S
Tb161 O186 2.484 1_554 S
Tb161 O187 2.440 1_554 S
Tb161 O188 2.658 . S
Tb161 O189 2.409 . S
Tb161 O190 2.378 1_554 S
C162 Tb160 2.809 1_554 S
C162 C163 1.514 . S
C162 O180 1.248 . S
C162 O181 1.266 . S
C163 C162 1.514 . S
C163 C164 1.359 . S
C163 C168 1.348 . S
C164 C163 1.359 . S
C164 C165 1.380 . S
C164 H192 0.929 . S
C165 C164 1.380 . S
C165 C166 1.347 . S
C165 H193 0.931 . S
C166 C165 1.347 . S
C166 C167 1.369 . S
C167 C166 1.369 . S
C167 C168 1.408 . S
C167 H194 0.930 . S
C168 C163 1.348 . S
C168 C167 1.408 . S
C168 H195 0.930 . S
C169 O182 1.281 . S
C169 O183 1.254 . S
C170 O184 1.236 . S
C170 O185 1.266 . S
C171 Tb161 2.809 1_556 S
C171 C172 1.514 . S
C171 O186 1.248 . S
C171 O187 1.266 . S
C172 C171 1.514 . S
C172 C173 1.359 . S
C172 C177 1.348 . S
C173 C172 1.359 . S
C173 C174 1.380 . S
C173 H196 0.929 . S
C174 C173 1.380 . S
C174 C175 1.347 . S
C174 H197 0.931 . S
C175 C174 1.347 . S
C175 C176 1.369 . S
C176 C175 1.369 . S
C176 C177 1.408 . S
C176 H198 0.930 . S
C177 C172 1.348 . S
C177 C176 1.408 . S
C177 H199 0.930 . S
C178 O188 1.281 . S
C178 O189 1.254 . S
C179 O190 1.236 . S
C179 O191 1.266 . S
O180 Tb160 2.484 1_554 S
O180 C162 1.248 . S
O181 Tb160 2.440 1_554 S
O181 C162 1.266 . S
O182 Tb160 2.658 . S
O182 Tb161 2.325 1_556 S
O182 C169 1.281 . S
O183 Tb160 2.409 . S
O183 C169 1.254 . S
O184 Tb160 2.378 1_554 S
O184 C170 1.236 . S
O185 Tb161 2.341 . S
O185 C170 1.266 . S
O186 Tb161 2.484 1_556 S
O186 C171 1.248 . S
O187 Tb161 2.440 1_556 S
O187 C171 1.266 . S
O188 Tb160 2.325 1_554 S
O188 Tb161 2.658 . S
O188 C178 1.281 . S
O189 Tb161 2.409 . S
O189 C178 1.254 . S
O190 Tb161 2.378 1_556 S
O190 C179 1.236 . S
O191 Tb160 2.341 . S
O191 C179 1.266 . S
H192 C164 0.929 . S
H193 C165 0.931 . S
H194 C167 0.930 . S
H195 C168 0.930 . S
H196 C173 0.929 . S
H197 C174 0.931 . S
H198 C176 0.930 . S
H199 C177 0.930 . S
Tb200 C202 2.809 1_556 S
Tb200 O220 2.484 1_556 S
Tb200 O221 2.440 1_556 S
Tb200 O222 2.658 . S
Tb200 O223 2.409 . S
Tb200 O224 2.378 1_556 S
Tb200 O228 2.325 1_556 S
Tb200 O231 2.341 . S
Tb201 C211 2.809 1_554 S
Tb201 O222 2.325 1_554 S
Tb201 O225 2.341 . S
Tb201 O226 2.484 1_554 S
Tb201 O227 2.440 1_554 S
Tb201 O228 2.658 . S
Tb201 O229 2.409 . S
Tb201 O230 2.378 1_554 S
C202 Tb200 2.809 1_554 S
C202 C203 1.514 . S
C202 O220 1.248 . S
C202 O221 1.266 . S
C203 C202 1.514 . S
C203 C204 1.359 . S
C203 C208 1.348 . S
C204 C203 1.359 . S
C204 C205 1.380 . S
C204 H232 0.929 . S
C205 C204 1.380 . S
C205 C206 1.347 . S
C205 H233 0.931 . S
C206 C205 1.347 . S
C206 C207 1.369 . S
C207 C206 1.369 . S
C207 C208 1.408 . S
C207 H234 0.930 . S
C208 C203 1.348 . S
C208 C207 1.408 . S
C208 H235 0.930 . S
C209 O222 1.281 . S
C209 O223 1.254 . S
C210 O224 1.236 . S
C210 O225 1.266 . S
C211 Tb201 2.809 1_556 S
C211 C212 1.514 . S
C211 O226 1.248 . S
C211 O227 1.266 . S
C212 C211 1.514 . S
C212 C213 1.359 . S
C212 C217 1.348 . S
C213 C212 1.359 . S
C213 C214 1.380 . S
C213 H236 0.929 . S
C214 C213 1.380 . S
C214 C215 1.347 . S
C214 H237 0.931 . S
C215 C214 1.347 . S
C215 C216 1.369 . S
C216 C215 1.369 . S
C216 C217 1.408 . S
C216 H238 0.930 . S
C217 C212 1.348 . S
C217 C216 1.408 . S
C217 H239 0.930 . S
C218 O228 1.281 . S
C218 O229 1.254 . S
C219 O230 1.236 . S
C219 O231 1.266 . S
O220 Tb200 2.484 1_554 S
O220 C202 1.248 . S
O221 Tb200 2.440 1_554 S
O221 C202 1.266 . S
O222 Tb200 2.658 . S
O222 Tb201 2.325 1_556 S
O222 C209 1.281 . S
O223 Tb200 2.409 . S
O223 C209 1.254 . S
O224 Tb200 2.378 1_554 S
O224 C210 1.236 . S
O225 Tb201 2.341 . S
O225 C210 1.266 . S
O226 Tb201 2.484 1_556 S
O226 C211 1.248 . S
O227 Tb201 2.440 1_556 S
O227 C211 1.266 . S
O228 Tb200 2.325 1_554 S
O228 Tb201 2.658 . S
O228 C218 1.281 . S
O229 Tb201 2.409 . S
O229 C218 1.254 . S
O230 Tb201 2.378 1_556 S
O230 C219 1.236 . S
O231 Tb200 2.341 . S
O231 C219 1.266 . S
H232 C204 0.929 . S
H233 C205 0.931 . S
H234 C207 0.930 . S
H235 C208 0.930 . S
H236 C213 0.929 . S
H237 C214 0.931 . S
H238 C216 0.930 . S
H239 C217 0.930 . S
Tb240 C242 2.809 1_554 S
Tb240 O260 2.484 1_554 S
Tb240 O261 2.440 1_554 S
Tb240 O262 2.658 . S
Tb240 O263 2.409 . S
Tb240 O264 2.378 1_554 S
Tb240 O268 2.325 1_554 S
Tb240 O271 2.341 . S
Tb241 C251 2.809 1_556 S
Tb241 O262 2.325 1_556 S
Tb241 O265 2.341 . S
Tb241 O266 2.484 1_556 S
Tb241 O267 2.440 1_556 S
Tb241 O268 2.658 . S
Tb241 O269 2.409 . S
Tb241 O270 2.378 1_556 S
C242 Tb240 2.809 1_556 S
C242 C243 1.514 . S
C242 O260 1.248 . S
C242 O261 1.266 . S
C243 C242 1.514 . S
C243 C244 1.359 . S
C243 C248 1.348 . S
C244 C243 1.359 . S
C244 C245 1.380 . S
C244 H272 0.929 . S
C245 C244 1.380 . S
C245 C246 1.347 . S
C245 H273 0.931 . S
C246 C245 1.347 . S
C246 C247 1.369 . S
C247 C246 1.369 . S
C247 C248 1.408 . S
C247 H274 0.930 . S
C248 C243 1.348 . S
C248 C247 1.408 . S
C248 H275 0.930 . S
C249 O262 1.281 . S
C249 O263 1.254 . S
C250 O264 1.236 . S
C250 O265 1.266 . S
C251 Tb241 2.809 1_554 S
C251 C252 1.514 . S
C251 O266 1.248 . S
C251 O267 1.266 . S
C252 C251 1.514 . S
C252 C253 1.359 . S
C252 C257 1.348 . S
C253 C252 1.359 . S
C253 C254 1.380 . S
C253 H276 0.929 . S
C254 C253 1.380 . S
C254 C255 1.347 . S
C254 H277 0.931 . S
C255 C254 1.347 . S
C255 C256 1.369 . S
C256 C255 1.369 . S
C256 C257 1.408 . S
C256 H278 0.930 . S
C257 C252 1.348 . S
C257 C256 1.408 . S
C257 H279 0.930 . S
C258 O268 1.281 . S
C258 O269 1.254 . S
C259 O270 1.236 . S
C259 O271 1.266 . S
O260 Tb240 2.484 1_556 S
O260 C242 1.248 . S
O261 Tb240 2.440 1_556 S
O261 C242 1.266 . S
O262 Tb240 2.658 . S
O262 Tb241 2.325 1_554 S
O262 C249 1.281 . S
O263 Tb240 2.409 . S
O263 C249 1.254 . S
O264 Tb240 2.378 1_556 S
O264 C250 1.236 . S
O265 Tb241 2.341 . S
O265 C250 1.266 . S
O266 Tb241 2.484 1_554 S
O266 C251 1.248 . S
O267 Tb241 2.440 1_554 S
O267 C251 1.266 . S
O268 Tb240 2.325 1_556 S
O268 Tb241 2.658 . S
O268 C258 1.281 . S
O269 Tb241 2.409 . S
O269 C258 1.254 . S
O270 Tb241 2.378 1_554 S
O270 C259 1.236 . S
O271 Tb240 2.341 . S
O271 C259 1.266 . S
H272 C244 0.929 . S
H273 C245 0.931 . S
H274 C247 0.930 . S
H275 C248 0.930 . S
H276 C253 0.929 . S
H277 C254 0.931 . S
H278 C256 0.930 . S
H279 C257 0.930 . S
Tb280 C282 2.809 1_554 S
Tb280 O300 2.484 1_554 S
Tb280 O301 2.440 1_554 S
Tb280 O302 2.658 . S
Tb280 O303 2.409 . S
Tb280 O304 2.378 1_554 S
Tb280 O308 2.325 1_554 S
Tb280 O311 2.341 . S
Tb281 C291 2.809 1_556 S
Tb281 O302 2.325 1_556 S
Tb281 O305 2.341 . S
Tb281 O306 2.484 1_556 S
Tb281 O307 2.440 1_556 S
Tb281 O308 2.658 . S
Tb281 O309 2.409 . S
Tb281 O310 2.378 1_556 S
C282 Tb280 2.809 1_556 S
C282 C283 1.514 . S
C282 O300 1.248 . S
C282 O301 1.266 . S
C283 C282 1.514 . S
C283 C284 1.359 . S
C283 C288 1.348 . S
C284 C283 1.359 . S
C284 C285 1.380 . S
C284 H312 0.929 . S
C285 C284 1.380 . S
C285 C286 1.347 . S
C285 H313 0.931 . S
C286 C285 1.347 . S
C286 C287 1.369 . S
C287 C286 1.369 . S
C287 C288 1.408 . S
C287 H314 0.930 . S
C288 C283 1.348 . S
C288 C287 1.408 . S
C288 H315 0.930 . S
C289 O302 1.281 . S
C289 O303 1.254 . S
C290 O304 1.236 . S
C290 O305 1.266 . S
C291 Tb281 2.809 1_554 S
C291 C292 1.514 . S
C291 O306 1.248 . S
C291 O307 1.266 . S
C292 C291 1.514 . S
C292 C293 1.359 . S
C292 C297 1.348 . S
C293 C292 1.359 . S
C293 C294 1.380 . S
C293 H316 0.929 . S
C294 C293 1.380 . S
C294 C295 1.347 . S
C294 H317 0.931 . S
C295 C294 1.347 . S
C295 C296 1.369 . S
C296 C295 1.369 . S
C296 C297 1.408 . S
C296 H318 0.930 . S
C297 C292 1.348 . S
C297 C296 1.408 . S
C297 H319 0.930 . S
C298 O308 1.281 . S
C298 O309 1.254 . S
C299 O310 1.236 . S
C299 O311 1.266 . S
O300 Tb280 2.484 1_556 S
O300 C282 1.248 . S
O301 Tb280 2.440 1_556 S
O301 C282 1.266 . S
O302 Tb280 2.658 . S
O302 Tb281 2.325 1_554 S
O302 C289 1.281 . S
O303 Tb280 2.409 . S
O303 C289 1.254 . S
O304 Tb280 2.378 1_556 S
O304 C290 1.236 . S
O305 Tb281 2.341 . S
O305 C290 1.266 . S
O306 Tb281 2.484 1_554 S
O306 C291 1.248 . S
O307 Tb281 2.440 1_554 S
O307 C291 1.266 . S
O308 Tb280 2.325 1_556 S
O308 Tb281 2.658 . S
O308 C298 1.281 . S
O309 Tb281 2.409 . S
O309 C298 1.254 . S
O310 Tb281 2.378 1_554 S
O310 C299 1.236 . S
O311 Tb280 2.341 . S
O311 C299 1.266 . S
H312 C284 0.929 . S
H313 C285 0.931 . S
H314 C287 0.930 . S
H315 C288 0.930 . S
H316 C293 0.929 . S
H317 C294 0.931 . S
H318 C296 0.930 . S
H319 C297 0.930 . S
C320 C321 1.391 . S
C320 C322 1.394 . S
C320 H336 0.931 . S
C321 C320 1.391 . S
C321 C325 1.376 . S
C322 C320 1.394 . S
C322 C323 1.369 . S
C322 C326 1.531 . S
C323 C322 1.369 . S
C323 C324 1.410 . S
C323 C331 1.503 . S
C324 C323 1.410 . S
C324 C325 1.392 . S
C324 C327 1.511 . S
C325 C321 1.376 . S
C325 C324 1.392 . S
C325 H337 0.929 . S
C326 C322 1.531 . S
C326 H338 0.960 . S
C326 H339 0.962 . S
C326 H340 0.960 . S
C327 C324 1.511 . S
C327 H341 0.961 . S
C327 H342 0.961 . S
C327 H343 0.961 . S
C328 C329 1.370 . S
C328 C330 1.363 . S
C328 H344 0.931 . S
C329 C328 1.370 . S
C329 C333 1.408 . S
C330 C328 1.363 . S
C330 C331 1.370 . S
C330 C334 1.524 . S
C331 C323 1.503 . S
C331 C330 1.370 . S
C331 C332 1.403 . S
C332 C331 1.403 . S
C332 C333 1.404 . S
C332 C335 1.539 . S
C333 C329 1.408 . S
C333 C332 1.404 . S
C333 H345 0.930 . S
C334 C330 1.524 . S
C334 H346 0.956 . S
C334 H347 0.961 . S
C334 H348 0.961 . S
C335 C332 1.539 . S
C335 H349 0.958 . S
C335 H350 0.961 . S
C335 H351 0.960 . S
H336 C320 0.931 . S
H337 C325 0.929 . S
H338 C326 0.960 . S
H339 C326 0.962 . S
H340 C326 0.960 . S
H341 C327 0.961 . S
H342 C327 0.961 . S
H343 C327 0.961 . S
H344 C328 0.931 . S
H345 C333 0.930 . S
H346 C334 0.956 . S
H347 C334 0.961 . S
H348 C334 0.961 . S
H349 C335 0.958 . S
H350 C335 0.961 . S
H351 C335 0.960 . S
C352 C353 1.391 . S
C352 C354 1.394 . S
C352 H368 0.931 . S
C353 C352 1.391 . S
C353 C357 1.376 . S
C354 C352 1.394 . S
C354 C355 1.369 . S
C354 C358 1.531 . S
C355 C354 1.369 . S
C355 C356 1.410 . S
C355 C363 1.503 . S
C356 C355 1.410 . S
C356 C357 1.392 . S
C356 C359 1.511 . S
C357 C353 1.376 . S
C357 C356 1.392 . S
C357 H369 0.929 . S
C358 C354 1.531 . S
C358 H370 0.960 . S
C358 H371 0.962 . S
C358 H372 0.960 . S
C359 C356 1.511 . S
C359 H373 0.961 . S
C359 H374 0.961 . S
C359 H375 0.961 . S
C360 C361 1.370 . S
C360 C362 1.363 . S
C360 H376 0.931 . S
C361 C360 1.370 . S
C361 C365 1.408 . S
C362 C360 1.363 . S
C362 C363 1.370 . S
C362 C366 1.524 . S
C363 C355 1.503 . S
C363 C362 1.370 . S
C363 C364 1.403 . S
C364 C363 1.403 . S
C364 C365 1.404 . S
C364 C367 1.539 . S
C365 C361 1.408 . S
C365 C364 1.404 . S
C365 H377 0.930 . S
C366 C362 1.524 . S
C366 H378 0.956 . S
C366 H379 0.961 . S
C366 H380 0.961 . S
C367 C364 1.539 . S
C367 H381 0.958 . S
C367 H382 0.961 . S
C367 H383 0.960 . S
H368 C352 0.931 . S
H369 C357 0.929 . S
H370 C358 0.960 . S
H371 C358 0.962 . S
H372 C358 0.960 . S
H373 C359 0.961 . S
H374 C359 0.961 . S
H375 C359 0.961 . S
H376 C360 0.931 . S
H377 C365 0.930 . S
H378 C366 0.956 . S
H379 C366 0.961 . S
H380 C366 0.961 . S
H381 C367 0.958 . S
H382 C367 0.961 . S
H383 C367 0.960 . S
C384 C385 1.391 . S
C384 C386 1.394 . S
C384 H400 0.931 . S
C385 C384 1.391 . S
C385 C389 1.376 . S
C386 C384 1.394 . S
C386 C387 1.369 . S
C386 C390 1.531 . S
C387 C386 1.369 . S
C387 C388 1.410 . S
C387 C395 1.503 . S
C388 C387 1.410 . S
C388 C389 1.392 . S
C388 C391 1.511 . S
C389 C385 1.376 . S
C389 C388 1.392 . S
C389 H401 0.929 . S
C390 C386 1.531 . S
C390 H402 0.960 . S
C390 H403 0.962 . S
C390 H404 0.960 . S
C391 C388 1.511 . S
C391 H405 0.961 . S
C391 H406 0.961 . S
C391 H407 0.961 . S
C392 C393 1.370 . S
C392 C394 1.363 . S
C392 H408 0.931 . S
C393 C392 1.370 . S
C393 C397 1.408 . S
C394 C392 1.363 . S
C394 C395 1.370 . S
C394 C398 1.524 . S
C395 C387 1.503 . S
C395 C394 1.370 . S
C395 C396 1.403 . S
C396 C395 1.403 . S
C396 C397 1.404 . S
C396 C399 1.539 . S
C397 C393 1.408 . S
C397 C396 1.404 . S
C397 H409 0.930 . S
C398 C394 1.524 . S
C398 H410 0.956 . S
C398 H411 0.961 . S
C398 H412 0.961 . S
C399 C396 1.539 . S
C399 H413 0.958 . S
C399 H414 0.961 . S
C399 H415 0.960 . S
H400 C384 0.931 . S
H401 C389 0.929 . S
H402 C390 0.960 . S
H403 C390 0.962 . S
H404 C390 0.960 . S
H405 C391 0.961 . S
H406 C391 0.961 . S
H407 C391 0.961 . S
H408 C392 0.931 . S
H409 C397 0.930 . S
H410 C398 0.956 . S
H411 C398 0.961 . S
H412 C398 0.961 . S
H413 C399 0.958 . S
H414 C399 0.961 . S
H415 C399 0.960 . S
C416 C417 1.391 . S
C416 C418 1.394 . S
C416 H432 0.931 . S
C417 C416 1.391 . S
C417 C421 1.376 . S
C418 C416 1.394 . S
C418 C419 1.369 . S
C418 C422 1.531 . S
C419 C418 1.369 . S
C419 C420 1.410 . S
C419 C427 1.503 . S
C420 C419 1.410 . S
C420 C421 1.392 . S
C420 C423 1.511 . S
C421 C417 1.376 . S
C421 C420 1.392 . S
C421 H433 0.929 . S
C422 C418 1.531 . S
C422 H434 0.960 . S
C422 H435 0.962 . S
C422 H436 0.960 . S
C423 C420 1.511 . S
C423 H437 0.961 . S
C423 H438 0.961 . S
C423 H439 0.961 . S
C424 C425 1.370 . S
C424 C426 1.363 . S
C424 H440 0.931 . S
C425 C424 1.370 . S
C425 C429 1.408 . S
C426 C424 1.363 . S
C426 C427 1.370 . S
C426 C430 1.524 . S
C427 C419 1.503 . S
C427 C426 1.370 . S
C427 C428 1.403 . S
C428 C427 1.403 . S
C428 C429 1.404 . S
C428 C431 1.539 . S
C429 C425 1.408 . S
C429 C428 1.404 . S
C429 H441 0.930 . S
C430 C426 1.524 . S
C430 H442 0.956 . S
C430 H443 0.961 . S
C430 H444 0.961 . S
C431 C428 1.539 . S
C431 H445 0.958 . S
C431 H446 0.961 . S
C431 H447 0.960 . S
H432 C416 0.931 . S
H433 C421 0.929 . S
H434 C422 0.960 . S
H435 C422 0.962 . S
H436 C422 0.960 . S
H437 C423 0.961 . S
H438 C423 0.961 . S
H439 C423 0.961 . S
H440 C424 0.931 . S
H441 C429 0.930 . S
H442 C430 0.956 . S
H443 C430 0.961 . S
H444 C430 0.961 . S
H445 C431 0.958 . S
H446 C431 0.961 . S
H447 C431 0.960 . S
C448 C449 1.391 . S
C448 C450 1.394 . S
C448 H464 0.931 . S
C449 C448 1.391 . S
C449 C453 1.376 . S
C450 C448 1.394 . S
C450 C451 1.369 . S
C450 C454 1.531 . S
C451 C450 1.369 . S
C451 C452 1.410 . S
C451 C459 1.503 1_565 S
C452 C451 1.410 . S
C452 C453 1.392 . S
C452 C455 1.511 . S
C453 C449 1.376 . S
C453 C452 1.392 . S
C453 H465 0.929 . S
C454 C450 1.531 . S
C454 H466 0.960 . S
C454 H467 0.962 . S
C454 H468 0.960 . S
C455 C452 1.511 . S
C455 H469 0.961 . S
C455 H470 0.961 1_565 S
C455 H471 0.961 . S
C456 C457 1.370 . S
C456 C458 1.363 . S
C456 H472 0.931 . S
C457 C456 1.370 . S
C457 C461 1.408 . S
C458 C456 1.363 . S
C458 C459 1.370 . S
C458 C462 1.524 . S
C459 C451 1.503 1_545 S
C459 C458 1.370 . S
C459 C460 1.403 . S
C460 C459 1.403 . S
C460 C461 1.404 . S
C460 C463 1.539 . S
C461 C457 1.408 . S
C461 C460 1.404 . S
C461 H473 0.930 . S
C462 C458 1.524 . S
C462 H474 0.956 . S
C462 H475 0.961 . S
C462 H476 0.961 . S
C463 C460 1.539 . S
C463 H477 0.966 . S
C463 H478 0.961 . S
C463 H479 0.960 1_545 S
H464 C448 0.931 . S
H465 C453 0.929 . S
H466 C454 0.960 . S
H467 C454 0.962 . S
H468 C454 0.960 . S
H469 C455 0.961 . S
H470 C455 0.961 1_545 S
H471 C455 0.961 . S
H472 C456 0.931 . S
H473 C461 0.930 . S
H474 C462 0.956 . S
H475 C462 0.961 . S
H476 C462 0.961 . S
H477 C463 0.966 . S
H478 C463 0.961 . S
H479 C463 0.960 1_565 S
C480 C481 1.391 . S
C480 C482 1.394 . S
C480 H496 0.931 . S
C481 C480 1.391 . S
C481 C485 1.376 . S
C482 C480 1.394 . S
C482 C483 1.369 . S
C482 C486 1.531 . S
C483 C482 1.369 . S
C483 C484 1.410 . S
C483 C491 1.503 . S
C484 C483 1.410 . S
C484 C485 1.392 . S
C484 C487 1.511 . S
C485 C481 1.376 . S
C485 C484 1.392 . S
C485 H497 0.929 . S
C486 C482 1.531 . S
C486 H498 0.960 . S
C486 H499 0.962 . S
C486 H500 0.960 . S
C487 C484 1.511 . S
C487 H501 0.961 . S
C487 H502 0.961 . S
C487 H503 0.961 . S
C488 C489 1.370 . S
C488 C490 1.363 . S
C488 H504 0.931 . S
C489 C488 1.370 . S
C489 C493 1.408 . S
C490 C488 1.363 . S
C490 C491 1.370 . S
C490 C494 1.524 . S
C491 C483 1.503 . S
C491 C490 1.370 . S
C491 C492 1.403 . S
C492 C491 1.403 . S
C492 C493 1.404 . S
C492 C495 1.539 . S
C493 C489 1.408 . S
C493 C492 1.404 . S
C493 H505 0.930 . S
C494 C490 1.524 . S
C494 H506 0.956 . S
C494 H507 0.961 . S
C494 H508 0.961 . S
C495 C492 1.539 . S
C495 H509 0.958 . S
C495 H510 0.961 . S
C495 H511 0.960 . S
H496 C480 0.931 . S
H497 C485 0.929 . S
H498 C486 0.960 . S
H499 C486 0.962 . S
H500 C486 0.960 . S
H501 C487 0.961 . S
H502 C487 0.961 . S
H503 C487 0.961 . S
H504 C488 0.931 . S
H505 C493 0.930 . S
H506 C494 0.956 . S
H507 C494 0.961 . S
H508 C494 0.961 . S
H509 C495 0.958 . S
H510 C495 0.961 . S
H511 C495 0.960 . S
C512 C513 1.391 . S
C512 C514 1.394 . S
C512 H528 0.931 . S
C513 C512 1.391 . S
C513 C517 1.376 . S
C514 C512 1.394 . S
C514 C515 1.369 . S
C514 C518 1.531 . S
C515 C514 1.369 . S
C515 C516 1.410 . S
C515 C523 1.503 1_565 S
C516 C515 1.410 . S
C516 C517 1.392 . S
C516 C519 1.511 . S
C517 C513 1.376 . S
C517 C516 1.392 . S
C517 H529 0.929 . S
C518 C514 1.531 . S
C518 H530 0.960 1_565 S
C518 H531 0.962 . S
C518 H532 0.960 . S
C519 C516 1.511 . S
C519 H533 0.961 . S
C519 H534 0.961 . S
C519 H535 0.961 . S
C520 C521 1.370 . S
C520 C522 1.363 . S
C520 H536 0.931 . S
C521 C520 1.370 . S
C521 C525 1.408 . S
C522 C520 1.363 . S
C522 C523 1.370 . S
C522 C526 1.524 1_545 S
C523 C515 1.503 1_545 S
C523 C522 1.370 . S
C523 C524 1.403 . S
C524 C523 1.403 . S
C524 C525 1.404 . S
C524 C527 1.539 . S
C525 C521 1.408 . S
C525 C524 1.404 . S
C525 H537 0.930 . S
C526 C522 1.524 1_565 S
C526 H538 0.956 . S
C526 H539 0.961 . S
C526 H540 0.961 1_565 S
C527 C524 1.539 . S
C527 H541 0.958 . S
C527 H542 0.961 . S
C527 H543 0.960 . S
H528 C512 0.931 . S
H529 C517 0.929 . S
H530 C518 0.960 1_545 S
H531 C518 0.962 . S
H532 C518 0.960 . S
H533 C519 0.961 . S
H534 C519 0.961 . S
H535 C519 0.961 . S
H536 C520 0.931 . S
H537 C525 0.930 . S
H538 C526 0.956 . S
H539 C526 0.961 . S
H540 C526 0.961 1_545 S
H541 C527 0.958 . S
H542 C527 0.961 . S
H543 C527 0.960 . S
C544 C545 1.391 . S
C544 C546 1.394 . S
C544 H560 0.931 . S
C545 C544 1.391 . S
C545 C549 1.376 . S
C546 C544 1.394 . S
C546 C547 1.369 . S
C546 C550 1.531 . S
C547 C546 1.369 . S
C547 C548 1.410 . S
C547 C555 1.503 . S
C548 C547 1.410 . S
C548 C549 1.392 . S
C548 C551 1.511 . S
C549 C545 1.376 . S
C549 C548 1.392 . S
C549 H561 0.929 . S
C550 C546 1.531 . S
C550 H562 0.960 . S
C550 H563 0.962 . S
C550 H564 0.960 . S
C551 C548 1.511 . S
C551 H565 0.961 . S
C551 H566 0.961 . S
C551 H567 0.961 . S
C552 C553 1.370 . S
C552 C554 1.363 . S
C552 H568 0.931 . S
C553 C552 1.370 . S
C553 C557 1.408 . S
C554 C552 1.363 . S
C554 C555 1.370 . S
C554 C558 1.524 . S
C555 C547 1.503 . S
C555 C554 1.370 . S
C555 C556 1.403 . S
C556 C555 1.403 . S
C556 C557 1.404 . S
C556 C559 1.539 . S
C557 C553 1.408 . S
C557 C556 1.404 . S
C557 H569 0.930 . S
C558 C554 1.524 . S
C558 H570 0.956 . S
C558 H571 0.961 . S
C558 H572 0.961 . S
C559 C556 1.539 . S
C559 H573 0.958 . S
C559 H574 0.961 . S
C559 H575 0.960 . S
H560 C544 0.931 . S
H561 C549 0.929 . S
H562 C550 0.960 . S
H563 C550 0.962 . S
H564 C550 0.960 . S
H565 C551 0.961 . S
H566 C551 0.961 . S
H567 C551 0.961 . S
H568 C552 0.931 . S
H569 C557 0.930 . S
H570 C558 0.956 . S
H571 C558 0.961 . S
H572 C558 0.961 . S
H573 C559 0.958 . S
H574 C559 0.961 . S
H575 C559 0.960 . S
C576 C577 1.391 . S
C576 C578 1.394 . S
C576 H592 0.931 . S
C577 C576 1.391 . S
C577 C581 1.376 1_556 S
C578 C576 1.394 . S
C578 C579 1.369 . S
C578 C582 1.531 . S
C579 C578 1.369 . S
C579 C580 1.410 1_556 S
C579 C587 1.503 . S
C580 C579 1.410 1_554 S
C580 C581 1.392 . S
C580 C583 1.511 . S
C581 C577 1.376 1_554 S
C581 C580 1.392 . S
C581 H593 0.929 . S
C582 C578 1.531 . S
C582 H594 0.960 . S
C582 H595 0.962 . S
C582 H596 0.960 . S
C583 C580 1.511 . S
C583 H597 0.961 . S
C583 H598 0.961 . S
C583 H599 0.961 . S
C584 C585 1.370 1_554 S
C584 C586 1.363 . S
C584 H600 0.931 . S
C585 C584 1.370 1_556 S
C585 C589 1.408 . S
C586 C584 1.363 . S
C586 C587 1.370 1_554 S
C586 C590 1.524 . S
C587 C579 1.503 . S
C587 C586 1.370 1_556 S
C587 C588 1.403 . S
C588 C587 1.403 . S
C588 C589 1.404 . S
C588 C591 1.539 . S
C589 C585 1.408 . S
C589 C588 1.404 . S
C589 H601 0.930 . S
C590 C586 1.524 . S
C590 H602 0.956 . S
C590 H603 0.961 . S
C590 H604 0.961 . S
C591 C588 1.539 . S
C591 H605 0.958 . S
C591 H606 0.961 . S
C591 H607 0.960 . S
H592 C576 0.931 . S
H593 C581 0.929 . S
H594 C582 0.960 . S
H595 C582 0.962 . S
H596 C582 0.960 . S
H597 C583 0.961 . S
H598 C583 0.961 . S
H599 C583 0.961 . S
H600 C584 0.931 . S
H601 C589 0.930 . S
H602 C590 0.956 . S
H603 C590 0.961 . S
H604 C590 0.961 . S
H605 C591 0.958 . S
H606 C591 0.961 . S
H607 C591 0.960 . S
C608 C609 1.391 . S
C608 C610 1.394 . S
C608 H624 0.931 . S
C609 C608 1.391 . S
C609 C613 1.376 . S
C610 C608 1.394 . S
C610 C611 1.369 . S
C610 C614 1.531 . S
C611 C610 1.369 . S
C611 C612 1.410 . S
C611 C619 1.503 1_565 S
C612 C611 1.410 . S
C612 C613 1.392 . S
C612 C615 1.511 . S
C613 C609 1.376 . S
C613 C612 1.392 . S
C613 H625 0.929 . S
C614 C610 1.531 . S
C614 H626 0.960 1_565 S
C614 H627 0.962 1_556 S
C614 H628 0.960 . S
C615 C612 1.511 . S
C615 H629 0.967 . S
C615 H630 0.965 1_565 S
C615 H631 0.961 . S
C616 C617 1.370 1_554 S
C616 C618 1.363 . S
C616 H632 0.931 . S
C617 C616 1.370 1_556 S
C617 C621 1.408 . S
C618 C616 1.363 . S
C618 C619 1.370 1_554 S
C618 C622 1.524 . S
C619 C611 1.503 1_545 S
C619 C618 1.370 1_556 S
C619 C620 1.403 . S
C620 C619 1.403 . S
C620 C621 1.404 . S
C620 C623 1.539 . S
C621 C617 1.408 . S
C621 C620 1.404 . S
C621 H633 0.930 . S
C622 C618 1.524 . S
C622 H634 0.956 . S
C622 H635 0.961 1_545 S
C622 H636 0.961 . S
C623 C620 1.539 . S
C623 H637 0.958 . S
C623 H638 0.961 . S
C623 H639 0.964 . S
H624 C608 0.931 . S
H625 C613 0.929 . S
H626 C614 0.960 1_545 S
H627 C614 0.962 1_554 S
H628 C614 0.960 . S
H629 C615 0.967 . S
H630 C615 0.965 1_545 S
H631 C615 0.961 . S
H632 C616 0.931 . S
H633 C621 0.930 . S
H634 C622 0.956 . S
H635 C622 0.961 1_565 S
H636 C622 0.961 . S
H637 C623 0.958 . S
H638 C623 0.961 . S
H639 C623 0.964 . S
C640 C641 1.391 . S
C640 C642 1.394 . S
C640 H656 0.931 . S
C641 C640 1.391 . S
C641 C645 1.376 1_554 S
C642 C640 1.394 . S
C642 C643 1.369 . S
C642 C646 1.531 . S
C643 C642 1.369 . S
C643 C644 1.410 1_554 S
C643 C651 1.503 . S
C644 C643 1.410 1_556 S
C644 C645 1.392 . S
C644 C647 1.511 . S
C645 C641 1.376 1_556 S
C645 C644 1.392 . S
C645 H657 0.929 . S
C646 C642 1.531 . S
C646 H658 0.960 . S
C646 H659 0.962 . S
C646 H660 0.960 . S
C647 C644 1.511 . S
C647 H661 0.961 . S
C647 H662 0.961 . S
C647 H663 0.961 . S
C648 C649 1.364 1_556 S
C648 C650 1.363 . S
C648 H664 0.931 . S
C649 C648 1.364 1_554 S
C649 C653 1.415 . S
C650 C648 1.363 . S
C650 C651 1.370 1_556 S
C650 C654 1.524 . S
C651 C643 1.503 . S
C651 C650 1.370 1_554 S
C651 C652 1.403 . S
C652 C651 1.403 . S
C652 C653 1.404 . S
C652 C655 1.539 . S
C653 C649 1.415 . S
C653 C652 1.404 . S
C653 H665 0.930 . S
C654 C650 1.524 . S
C654 H666 0.956 . S
C654 H667 0.961 . S
C654 H668 0.961 . S
C655 C652 1.539 . S
C655 H669 0.958 . S
C655 H670 0.961 . S
C655 H671 0.960 . S
H656 C640 0.931 . S
H657 C645 0.929 . S
H658 C646 0.960 . S
H659 C646 0.962 . S
H660 C646 0.960 . S
H661 C647 0.961 . S
H662 C647 0.961 . S
H663 C647 0.961 . S
H664 C648 0.931 . S
H665 C653 0.930 . S
H666 C654 0.956 . S
H667 C654 0.961 . S
H668 C654 0.961 . S
H669 C655 0.958 . S
H670 C655 0.961 . S
H671 C655 0.960 . S
C672 C673 1.391 . S
C672 C674 1.394 . S
C672 H688 0.931 . S
C673 C672 1.391 . S
C673 C677 1.376 1_556 S
C674 C672 1.394 . S
C674 C675 1.369 . S
C674 C678 1.531 . S
C675 C674 1.369 . S
C675 C676 1.410 1_556 S
C675 C683 1.503 1_545 S
C676 C675 1.410 1_554 S
C676 C677 1.392 . S
C676 C679 1.511 . S
C677 C673 1.376 1_554 S
C677 C676 1.392 . S
C677 H689 0.929 . S
C678 C674 1.531 . S
C678 H690 0.960 1_545 S
C678 H691 0.962 . S
C678 H692 0.960 . S
C679 C676 1.511 . S
C679 H693 0.961 . S
C679 H694 0.961 1_545 S
C679 H695 0.961 1_554 S
C680 C681 1.370 1_554 S
C680 C682 1.363 . S
C680 H696 0.931 . S
C681 C680 1.370 1_556 S
C681 C685 1.408 . S
C682 C680 1.363 . S
C682 C683 1.370 1_554 S
C682 C686 1.524 . S
C683 C675 1.503 1_565 S
C683 C682 1.370 1_556 S
C683 C684 1.403 . S
C684 C683 1.403 . S
C684 C685 1.404 . S
C684 C687 1.539 . S
C685 C681 1.408 . S
C685 C684 1.404 . S
C685 H697 0.930 . S
C686 C682 1.524 . S
C686 H698 0.956 . S
C686 H699 0.961 1_565 S
C686 H700 0.961 . S
C687 C684 1.539 . S
C687 H701 0.958 . S
C687 H702 0.961 . S
C687 H703 0.964 . S
H688 C672 0.931 . S
H689 C677 0.929 . S
H690 C678 0.960 1_565 S
H691 C678 0.962 . S
H692 C678 0.960 . S
H693 C679 0.961 . S
H694 C679 0.961 1_565 S
H695 C679 0.961 1_556 S
H696 C680 0.931 . S
H697 C685 0.930 . S
H698 C686 0.956 . S
H699 C686 0.961 1_545 S
H700 C686 0.961 . S
H701 C687 0.958 . S
H702 C687 0.961 . S
H703 C687 0.964 . S
C704 C705 1.391 . S
C704 C706 1.394 . S
C704 H720 0.931 . S
C705 C704 1.391 . S
C705 C709 1.376 . S
C706 C704 1.394 . S
C706 C707 1.369 1_554 S
C706 C710 1.531 1_554 S
C707 C706 1.369 1_556 S
C707 C708 1.410 1_556 S
C707 C715 1.503 . S
C708 C707 1.410 1_554 S
C708 C709 1.392 . S
C708 C711 1.511 1_554 S
C709 C705 1.376 . S
C709 C708 1.392 . S
C709 H721 0.929 . S
C710 C706 1.531 1_556 S
C710 H722 0.960 . S
C710 H723 0.962 . S
C710 H724 0.960 1_556 S
C711 C708 1.511 1_556 S
C711 H725 0.961 . S
C711 H726 0.961 . S
C711 H727 0.961 . S
C712 C713 1.370 . S
C712 C714 1.363 . S
C712 H728 0.931 . S
C713 C712 1.370 . S
C713 C717 1.408 . S
C714 C712 1.363 . S
C714 C715 1.370 . S
C714 C718 1.524 . S
C715 C707 1.503 . S
C715 C714 1.370 . S
C715 C716 1.403 . S
C716 C715 1.403 . S
C716 C717 1.404 . S
C716 C719 1.539 . S
C717 C713 1.408 . S
C717 C716 1.404 . S
C717 H729 0.930 . S
C718 C714 1.524 . S
C718 H730 0.956 . S
C718 H731 0.961 . S
C718 H732 0.961 . S
C719 C716 1.539 . S
C719 H733 0.958 . S
C719 H734 0.961 . S
C719 H735 0.960 . S
H720 C704 0.931 . S
H721 C709 0.929 . S
H722 C710 0.960 . S
H723 C710 0.962 . S
H724 C710 0.960 1_554 S
H725 C711 0.961 . S
H726 C711 0.961 . S
H727 C711 0.961 . S
H728 C712 0.931 . S
H729 C717 0.930 . S
H730 C718 0.956 . S
H731 C718 0.961 . S
H732 C718 0.961 . S
H733 C719 0.958 . S
H734 C719 0.961 . S
H735 C719 0.960 . S
C736 C737 1.391 . S
C736 C738 1.394 . S
C736 H752 0.931 . S
C737 C736 1.391 . S
C737 C741 1.376 . S
C738 C736 1.394 . S
C738 C739 1.369 1_554 S
C738 C742 1.531 1_554 S
C739 C738 1.369 1_556 S
C739 C740 1.410 1_556 S
C739 C747 1.503 . S
C740 C739 1.410 1_554 S
C740 C741 1.392 . S
C740 C743 1.511 1_554 S
C741 C737 1.376 . S
C741 C740 1.392 . S
C741 H753 0.929 . S
C742 C738 1.531 1_556 S
C742 H754 0.960 . S
C742 H755 0.962 . S
C742 H756 0.960 . S
C743 C740 1.511 1_556 S
C743 H757 0.961 1_556 S
C743 H758 0.961 . S
C743 H759 0.961 . S
C744 C745 1.370 . S
C744 C746 1.363 . S
C744 H760 0.931 . S
C745 C744 1.370 . S
C745 C749 1.408 . S
C746 C744 1.363 . S
C746 C747 1.370 . S
C746 C750 1.524 . S
C747 C739 1.503 . S
C747 C746 1.370 . S
C747 C748 1.403 . S
C748 C747 1.403 . S
C748 C749 1.404 . S
C748 C751 1.539 . S
C749 C745 1.408 . S
C749 C748 1.404 . S
C749 H761 0.930 . S
C750 C746 1.524 . S
C750 H762 0.956 . S
C750 H763 0.961 . S
C750 H764 0.961 . S
C751 C748 1.539 . S
C751 H765 0.958 . S
C751 H766 0.961 . S
C751 H767 0.960 . S
H752 C736 0.931 . S
H753 C741 0.929 . S
H754 C742 0.960 . S
H755 C742 0.962 . S
H756 C742 0.960 . S
H757 C743 0.961 1_554 S
H758 C743 0.961 . S
H759 C743 0.961 . S
H760 C744 0.931 . S
H761 C749 0.930 . S
H762 C750 0.956 . S
H763 C750 0.961 . S
H764 C750 0.961 . S
H765 C751 0.958 . S
H766 C751 0.961 . S
H767 C751 0.960 . S
C768 C769 1.391 . S
C768 C770 1.394 . S
C768 H784 0.931 . S
C769 C768 1.391 . S
C769 C773 1.376 . S
C770 C768 1.394 . S
C770 C771 1.369 . S
C770 C774 1.531 . S
C771 C770 1.369 . S
C771 C772 1.410 . S
C771 C779 1.503 . S
C772 C771 1.410 . S
C772 C773 1.392 . S
C772 C775 1.511 . S
C773 C769 1.376 . S
C773 C772 1.392 . S
C773 H785 0.929 . S
C774 C770 1.531 . S
C774 H786 0.960 . S
C774 H787 0.962 . S
C774 H788 0.960 . S
C775 C772 1.511 . S
C775 H789 0.961 . S
C775 H790 0.961 . S
C775 H791 0.961 . S
C776 C777 1.370 . S
C776 C778 1.363 . S
C776 H792 0.931 . S
C777 C776 1.370 . S
C777 C781 1.408 . S
C778 C776 1.363 . S
C778 C779 1.370 1_556 S
C778 C782 1.524 1_556 S
C779 C771 1.503 . S
C779 C778 1.370 1_554 S
C779 C780 1.403 1_554 S
C780 C779 1.403 1_556 S
C780 C781 1.404 . S
C780 C783 1.539 1_556 S
C781 C777 1.408 . S
C781 C780 1.404 . S
C781 H793 0.930 . S
C782 C778 1.524 1_554 S
C782 H794 0.956 . S
C782 H795 0.961 . S
C782 H796 0.961 1_554 S
C783 C780 1.539 1_554 S
C783 H797 0.958 . S
C783 H798 0.961 1_554 S
C783 H799 0.960 . S
H784 C768 0.931 . S
H785 C773 0.929 . S
H786 C774 0.960 . S
H787 C774 0.962 . S
H788 C774 0.960 . S
H789 C775 0.961 . S
H790 C775 0.961 . S
H791 C775 0.961 . S
H792 C776 0.931 . S
H793 C781 0.930 . S
H794 C782 0.956 . S
H795 C782 0.961 . S
H796 C782 0.961 1_556 S
H797 C783 0.958 . S
H798 C783 0.961 1_556 S
H799 C783 0.960 . S
C800 C801 1.391 . S
C800 C802 1.394 . S
C800 H816 0.931 . S
C801 C800 1.391 . S
C801 C805 1.376 . S
C802 C800 1.394 . S
C802 C803 1.369 1_556 S
C802 C806 1.531 1_556 S
C803 C802 1.369 1_554 S
C803 C804 1.410 1_554 S
C803 C811 1.503 . S
C804 C803 1.410 1_556 S
C804 C805 1.392 . S
C804 C807 1.512 . S
C805 C801 1.376 . S
C805 C804 1.392 . S
C805 H817 0.929 . S
C806 C802 1.531 1_554 S
C806 H818 0.960 . S
C806 H819 0.962 . S
C806 H820 0.960 . S
C807 C804 1.512 . S
C807 H821 0.962 . S
C807 H822 0.959 1_556 S
C807 H823 0.960 1_556 S
C808 C809 1.370 . S
C808 C810 1.363 . S
C808 H824 0.931 . S
C809 C808 1.370 . S
C809 C813 1.408 . S
C810 C808 1.363 . S
C810 C811 1.370 . S
C810 C814 1.524 . S
C811 C803 1.503 . S
C811 C810 1.370 . S
C811 C812 1.403 . S
C812 C811 1.403 . S
C812 C813 1.404 . S
C812 C815 1.539 . S
C813 C809 1.408 . S
C813 C812 1.404 . S
C813 H825 0.930 . S
C814 C810 1.524 . S
C814 H826 0.956 . S
C814 H827 0.961 . S
C814 H828 0.961 . S
C815 C812 1.539 . S
C815 H829 0.958 . S
C815 H830 0.961 . S
C815 H831 0.960 . S
H816 C800 0.931 . S
H817 C805 0.929 . S
H818 C806 0.960 . S
H819 C806 0.962 . S
H820 C806 0.960 . S
H821 C807 0.962 . S
H822 C807 0.959 1_554 S
H823 C807 0.960 1_554 S
H824 C808 0.931 . S
H825 C813 0.930 . S
H826 C814 0.956 . S
H827 C814 0.961 . S
H828 C814 0.961 . S
H829 C815 0.958 . S
H830 C815 0.961 . S
H831 C815 0.960 . S
C832 C833 1.391 . S
C832 C834 1.394 . S
C832 H848 0.931 . S
C833 C832 1.391 . S
C833 C837 1.376 . S
C834 C832 1.394 . S
C834 C835 1.369 . S
C834 C838 1.531 . S
C835 C834 1.369 . S
C835 C836 1.410 . S
C835 C843 1.503 . S
C836 C835 1.410 . S
C836 C837 1.392 . S
C836 C839 1.511 . S
C837 C833 1.376 . S
C837 C836 1.392 . S
C837 H849 0.929 . S
C838 C834 1.531 . S
C838 H850 0.960 . S
C838 H851 0.962 . S
C838 H852 0.960 . S
C839 C836 1.511 . S
C839 H853 0.961 . S
C839 H854 0.961 . S
C839 H855 0.961 . S
C840 C841 1.370 . S
C840 C842 1.363 . S
C840 H856 0.931 . S
C841 C840 1.370 . S
C841 C845 1.408 . S
C842 C840 1.363 . S
C842 C843 1.370 . S
C842 C846 1.524 . S
C843 C835 1.503 . S
C843 C842 1.370 . S
C843 C844 1.403 . S
C844 C843 1.403 . S
C844 C845 1.404 . S
C844 C847 1.539 . S
C845 C841 1.408 . S
C845 C844 1.404 . S
C845 H857 0.930 . S
C846 C842 1.524 . S
C846 H858 0.956 . S
C846 H859 0.961 . S
C846 H860 0.961 . S
C847 C844 1.539 . S
C847 H861 0.958 . S
C847 H862 0.961 . S
C847 H863 0.960 . S
H848 C832 0.931 . S
H849 C837 0.929 . S
H850 C838 0.960 . S
H851 C838 0.962 . S
H852 C838 0.960 . S
H853 C839 0.961 . S
H854 C839 0.961 . S
H855 C839 0.961 . S
H856 C840 0.931 . S
H857 C845 0.930 . S
H858 C846 0.956 . S
H859 C846 0.961 . S
H860 C846 0.961 . S
H861 C847 0.958 . S
H862 C847 0.961 . S
H863 C847 0.960 . S
C864 C865 1.391 . S
C864 C866 1.394 . S
C864 H880 0.931 . S
C865 C864 1.391 . S
C865 C869 1.376 . S
C866 C864 1.394 . S
C866 C867 1.369 . S
C866 C870 1.531 . S
C867 C866 1.369 . S
C867 C868 1.410 . S
C867 C875 1.503 . S
C868 C867 1.410 . S
C868 C869 1.392 . S
C868 C871 1.511 . S
C869 C865 1.376 . S
C869 C868 1.392 . S
C869 H881 0.929 . S
C870 C866 1.531 . S
C870 H882 0.960 . S
C870 H883 0.962 . S
C870 H884 0.960 . S
C871 C868 1.511 . S
C871 H885 0.961 . S
C871 H886 0.961 . S
C871 H887 0.961 . S
C872 C873 1.370 . S
C872 C874 1.363 . S
C872 H888 0.931 . S
C873 C872 1.370 . S
C873 C877 1.408 . S
C874 C872 1.363 . S
C874 C875 1.370 . S
C874 C878 1.524 . S
C875 C867 1.503 . S
C875 C874 1.370 . S
C875 C876 1.403 . S
C876 C875 1.403 . S
C876 C877 1.404 . S
C876 C879 1.539 . S
C877 C873 1.408 . S
C877 C876 1.404 . S
C877 H889 0.930 . S
C878 C874 1.524 . S
C878 H890 0.956 . S
C878 H891 0.961 . S
C878 H892 0.961 . S
C879 C876 1.539 . S
C879 H893 0.958 . S
C879 H894 0.961 . S
C879 H895 0.960 . S
H880 C864 0.931 . S
H881 C869 0.929 . S
H882 C870 0.960 . S
H883 C870 0.962 . S
H884 C870 0.960 . S
H885 C871 0.961 . S
H886 C871 0.961 . S
H887 C871 0.961 . S
H888 C872 0.931 . S
H889 C877 0.930 . S
H890 C878 0.956 . S
H891 C878 0.961 . S
H892 C878 0.961 . S
H893 C879 0.958 . S
H894 C879 0.961 . S
H895 C879 0.960 . S
C896 C897 1.391 . S
C896 C898 1.394 . S
C896 H912 0.931 . S
C897 C896 1.391 . S
C897 C901 1.376 . S
C898 C896 1.394 . S
C898 C899 1.369 . S
C898 C902 1.531 . S
C899 C898 1.369 . S
C899 C900 1.410 . S
C899 C907 1.503 . S
C900 C899 1.410 . S
C900 C901 1.392 . S
C900 C903 1.511 . S
C901 C897 1.376 . S
C901 C900 1.392 . S
C901 H913 0.929 . S
C902 C898 1.531 . S
C902 H914 0.960 . S
C902 H915 0.962 . S
C902 H916 0.960 . S
C903 C900 1.511 . S
C903 H917 0.961 . S
C903 H918 0.961 . S
C903 H919 0.961 . S
C904 C905 1.370 . S
C904 C906 1.363 . S
C904 H920 0.931 . S
C905 C904 1.370 . S
C905 C909 1.408 . S
C906 C904 1.363 . S
C906 C907 1.370 . S
C906 C910 1.524 . S
C907 C899 1.503 . S
C907 C906 1.370 . S
C907 C908 1.403 . S
C908 C907 1.403 . S
C908 C909 1.404 . S
C908 C911 1.539 . S
C909 C905 1.408 . S
C909 C908 1.404 . S
C909 H921 0.930 . S
C910 C906 1.524 . S
C910 H922 0.956 . S
C910 H923 0.961 . S
C910 H924 0.961 . S
C911 C908 1.539 . S
C911 H925 0.958 . S
C911 H926 0.961 . S
C911 H927 0.960 . S
H912 C896 0.931 . S
H913 C901 0.929 . S
H914 C902 0.960 . S
H915 C902 0.962 . S
H916 C902 0.960 . S
H917 C903 0.961 . S
H918 C903 0.961 . S
H919 C903 0.961 . S
H920 C904 0.931 . S
H921 C909 0.930 . S
H922 C910 0.956 . S
H923 C910 0.961 . S
H924 C910 0.961 . S
H925 C911 0.958 . S
H926 C911 0.961 . S
H927 C911 0.960 . S
C928 C929 1.391 . S
C928 C930 1.394 . S
C928 H944 0.931 . S
C929 C928 1.391 . S
C929 C933 1.376 . S
C930 C928 1.394 . S
C930 C931 1.369 . S
C930 C934 1.531 . S
C931 C930 1.369 . S
C931 C932 1.410 . S
C931 C939 1.503 . S
C932 C931 1.410 . S
C932 C933 1.392 . S
C932 C935 1.511 . S
C933 C929 1.376 . S
C933 C932 1.392 . S
C933 H945 0.929 . S
C934 C930 1.531 . S
C934 H946 0.960 . S
C934 H947 0.962 . S
C934 H948 0.960 . S
C935 C932 1.511 . S
C935 H949 0.961 . S
C935 H950 0.961 . S
C935 H951 0.961 . S
C936 C937 1.370 . S
C936 C938 1.363 . S
C936 H952 0.931 . S
C937 C936 1.370 . S
C937 C941 1.408 . S
C938 C936 1.363 . S
C938 C939 1.370 . S
C938 C942 1.524 . S
C939 C931 1.503 . S
C939 C938 1.370 . S
C939 C940 1.403 . S
C940 C939 1.403 . S
C940 C941 1.404 . S
C940 C943 1.539 . S
C941 C937 1.408 . S
C941 C940 1.404 . S
C941 H953 0.930 . S
C942 C938 1.524 . S
C942 H954 0.956 . S
C942 H955 0.961 . S
C942 H956 0.961 . S
C943 C940 1.539 . S
C943 H957 0.958 . S
C943 H958 0.961 . S
C943 H959 0.960 . S
H944 C928 0.931 . S
H945 C933 0.929 . S
H946 C934 0.960 . S
H947 C934 0.962 . S
H948 C934 0.960 . S
H949 C935 0.961 . S
H950 C935 0.961 . S
H951 C935 0.961 . S
H952 C936 0.931 . S
H953 C941 0.930 . S
H954 C942 0.956 . S
H955 C942 0.961 . S
H956 C942 0.961 . S
H957 C943 0.958 . S
H958 C943 0.961 . S
H959 C943 0.960 . S
C960 C961 1.391 . S
C960 C962 1.394 . S
C960 H976 0.931 . S
C961 C960 1.391 . S
C961 C965 1.376 . S
C962 C960 1.394 . S
C962 C963 1.369 . S
C962 C966 1.531 . S
C963 C962 1.369 . S
C963 C964 1.410 . S
C963 C971 1.503 1_455 S
C964 C963 1.410 . S
C964 C965 1.392 . S
C964 C967 1.511 . S
C965 C961 1.376 . S
C965 C964 1.392 . S
C965 H977 0.929 . S
C966 C962 1.531 . S
C966 H978 0.953 . S
C966 H979 0.962 . S
C966 H980 0.960 . S
C967 C964 1.511 . S
C967 H981 0.961 . S
C967 H982 0.961 1_455 S
C967 H983 0.961 . S
C968 C969 1.370 . S
C968 C970 1.363 . S
C968 H984 0.931 . S
C969 C968 1.370 . S
C969 C973 1.408 . S
C970 C968 1.363 . S
C970 C971 1.370 . S
C970 C974 1.524 . S
C971 C963 1.503 1_655 S
C971 C970 1.370 . S
C971 C972 1.403 . S
C972 C971 1.403 . S
C972 C973 1.404 . S
C972 C975 1.539 . S
C973 C969 1.408 . S
C973 C972 1.404 . S
C973 H985 0.930 . S
C974 C970 1.524 . S
C974 H986 0.948 1_655 S
C974 H987 0.925 1_655 S
C974 H988 0.961 . S
C975 C972 1.539 . S
C975 H989 0.958 . S
C975 H990 0.961 . S
C975 H991 1.029 . S
H976 C960 0.931 . S
H977 C965 0.929 . S
H978 C966 0.953 . S
H979 C966 0.962 . S
H980 C966 0.960 . S
H981 C967 0.961 . S
H982 C967 0.961 1_655 S
H983 C967 0.961 . S
H984 C968 0.931 . S
H985 C973 0.930 . S
H986 C974 0.948 1_455 S
H987 C974 0.925 1_455 S
H988 C974 0.961 . S
H989 C975 0.958 . S
H990 C975 0.961 . S
H991 C975 1.029 . S
C992 C993 1.391 . S
C992 C994 1.394 . S
C992 H1008 0.931 . S
C993 C992 1.391 . S
C993 C997 1.376 . S
C994 C992 1.394 . S
C994 C995 1.369 . S
C994 C998 1.531 . S
C995 C994 1.369 . S
C995 C996 1.410 . S
C995 C1003 1.503 1_655 S
C996 C995 1.410 . S
C996 C997 1.392 . S
C996 C999 1.511 . S
C997 C993 1.376 . S
C997 C996 1.392 . S
C997 H1009 0.929 . S
C998 C994 1.531 . S
C998 H1010 0.960 1_655 S
C998 H1011 0.962 . S
C998 H1012 0.960 . S
C999 C996 1.511 . S
C999 H1013 0.961 . S
C999 H1014 0.961 1_655 S
C999 H1015 0.961 . S
C1000 C1001 1.370 . S
C1000 C1002 1.363 . S
C1000 H1016 0.931 . S
C1001 C1000 1.370 . S
C1001 C1005 1.408 . S
C1002 C1000 1.363 . S
C1002 C1003 1.370 . S
C1002 C1006 1.524 . S
C1003 C995 1.503 1_455 S
C1003 C1002 1.370 . S
C1003 C1004 1.403 . S
C1004 C1003 1.403 . S
C1004 C1005 1.404 . S
C1004 C1007 1.539 . S
C1005 C1001 1.408 . S
C1005 C1004 1.404 . S
C1005 H1017 0.930 . S
C1006 C1002 1.524 . S
C1006 H1018 0.919 1_455 S
C1006 H1019 0.961 1_455 S
C1006 H1020 0.961 . S
C1007 C1004 1.539 . S
C1007 H1021 0.958 . S
C1007 H1022 0.961 . S
C1007 H1023 0.960 . S
H1008 C992 0.931 . S
H1009 C997 0.929 . S
H1010 C998 0.960 1_455 S
H1011 C998 0.962 . S
H1012 C998 0.960 . S
H1013 C999 0.961 . S
H1014 C999 0.961 1_455 S
H1015 C999 0.961 . S
H1016 C1000 0.931 . S
H1017 C1005 0.930 . S
H1018 C1006 0.919 1_655 S
H1019 C1006 0.961 1_655 S
H1020 C1006 0.961 . S
H1021 C1007 0.958 . S
H1022 C1007 0.961 . S
H1023 C1007 0.960 . S
C1024 C1025 1.391 . S
C1024 C1026 1.394 . S
C1024 H1040 0.931 . S
C1025 C1024 1.391 . S
C1025 C1029 1.376 . S
C1026 C1024 1.394 . S
C1026 C1027 1.369 . S
C1026 C1030 1.531 . S
C1027 C1026 1.369 . S
C1027 C1028 1.410 . S
C1027 C1035 1.503 . S
C1028 C1027 1.410 . S
C1028 C1029 1.392 . S
C1028 C1031 1.511 . S
C1029 C1025 1.376 . S
C1029 C1028 1.392 . S
C1029 H1041 0.929 . S
C1030 C1026 1.531 . S
C1030 H1042 0.960 . S
C1030 H1043 0.962 . S
C1030 H1044 0.960 . S
C1031 C1028 1.511 . S
C1031 H1045 0.961 . S
C1031 H1046 0.961 . S
C1031 H1047 0.961 . S
C1032 C1033 1.370 . S
C1032 C1034 1.363 . S
C1032 H1048 0.931 . S
C1033 C1032 1.370 . S
C1033 C1037 1.408 . S
C1034 C1032 1.363 . S
C1034 C1035 1.370 . S
C1034 C1038 1.524 . S
C1035 C1027 1.503 . S
C1035 C1034 1.370 . S
C1035 C1036 1.403 . S
C1036 C1035 1.403 . S
C1036 C1037 1.404 . S
C1036 C1039 1.539 . S
C1037 C1033 1.408 . S
C1037 C1036 1.404 . S
C1037 H1049 0.930 . S
C1038 C1034 1.524 . S
C1038 H1050 0.956 . S
C1038 H1051 0.961 . S
C1038 H1052 0.961 . S
C1039 C1036 1.539 . S
C1039 H1053 0.958 . S
C1039 H1054 0.961 . S
C1039 H1055 0.960 . S
H1040 C1024 0.931 . S
H1041 C1029 0.929 . S
H1042 C1030 0.960 . S
H1043 C1030 0.962 . S
H1044 C1030 0.960 . S
H1045 C1031 0.961 . S
H1046 C1031 0.961 . S
H1047 C1031 0.961 . S
H1048 C1032 0.931 . S
H1049 C1037 0.930 . S
H1050 C1038 0.956 . S
H1051 C1038 0.961 . S
H1052 C1038 0.961 . S
H1053 C1039 0.958 . S
H1054 C1039 0.961 . S
H1055 C1039 0.960 . S
C1056 C1057 1.391 . S
C1056 C1058 1.394 . S
C1056 H1072 0.931 . S
C1057 C1056 1.391 . S
C1057 C1061 1.376 . S
C1058 C1056 1.394 . S
C1058 C1059 1.369 . S
C1058 C1062 1.531 . S
C1059 C1058 1.369 . S
C1059 C1060 1.410 . S
C1059 C1067 1.503 . S
C1060 C1059 1.410 . S
C1060 C1061 1.392 . S
C1060 C1063 1.511 . S
C1061 C1057 1.376 . S
C1061 C1060 1.392 . S
C1061 H1073 0.929 . S
C1062 C1058 1.531 . S
C1062 H1074 0.960 . S
C1062 H1075 0.962 . S
C1062 H1076 0.960 . S
C1063 C1060 1.511 . S
C1063 H1077 0.961 . S
C1063 H1078 0.961 . S
C1063 H1079 0.961 . S
C1064 C1065 1.370 . S
C1064 C1066 1.363 . S
C1064 H1080 0.931 . S
C1065 C1064 1.370 . S
C1065 C1069 1.408 . S
C1066 C1064 1.363 . S
C1066 C1067 1.370 . S
C1066 C1070 1.524 . S
C1067 C1059 1.503 . S
C1067 C1066 1.370 . S
C1067 C1068 1.403 . S
C1068 C1067 1.403 . S
C1068 C1069 1.404 . S
C1068 C1071 1.539 . S
C1069 C1065 1.408 . S
C1069 C1068 1.404 . S
C1069 H1081 0.930 . S
C1070 C1066 1.524 . S
C1070 H1082 0.956 . S
C1070 H1083 0.961 . S
C1070 H1084 0.961 . S
C1071 C1068 1.539 . S
C1071 H1085 0.958 . S
C1071 H1086 0.961 . S
C1071 H1087 0.960 . S
H1072 C1056 0.931 . S
H1073 C1061 0.929 . S
H1074 C1062 0.960 . S
H1075 C1062 0.962 . S
H1076 C1062 0.960 . S
H1077 C1063 0.961 . S
H1078 C1063 0.961 . S
H1079 C1063 0.961 . S
H1080 C1064 0.931 . S
H1081 C1069 0.930 . S
H1082 C1070 0.956 . S
H1083 C1070 0.961 . S
H1084 C1070 0.961 . S
H1085 C1071 0.958 . S
H1086 C1071 0.961 . S
H1087 C1071 0.960 . S
C321 C6 1.701 . S
C329 C286 1.696 . S
C353 C246 1.705 . S
C361 C46 1.698 . S
C385 C206 1.688 . S
C393 C86 1.701 . S
C417 C166 1.709 . S
C425 C126 1.696 . S
C449 C89 1.849 . S
C457 C9 1.848 . S
C481 C49 1.827 . S
C489 C129 1.834 . S
C513 C138 1.288 . S
C521 C58 1.262 . S
C545 C98 1.232 . S
C553 C18 1.275 . S
C577 C169 1.688 . S
C585 C249 1.708 1_556 S
C609 C209 1.700 . S
C617 C289 1.714 1_556 S
C641 C298 1.130 1_554 S
C649 C218 1.136 . S
C673 C258 1.151 . S
C681 C178 1.165 1_556 S
C705 C19 2.098 . S
C713 C10 2.076 . S
C737 C59 2.074 . S
C745 C50 2.088 . S
C769 C90 2.086 . S
C777 C99 2.083 . S
C801 C139 2.065 . S
C809 C130 2.091 . S
C833 C170 2.058 . S
C841 C179 2.092 . S
C865 C219 2.061 . S
C873 C210 2.092 . S
C897 C259 2.090 . S
C905 C250 2.078 . S
C929 C299 2.096 . S
C937 C290 2.077 . S
C961 C15 2.359 . S
C969 C55 2.352 . S
C993 C135 2.352 . S
C1001 C95 2.346 . S
C1025 C175 2.359 . S
C1033 C215 2.351 . S
C1057 C295 2.360 . S
C1065 C255 2.354 . S
