# Generated by pormake.
# Topology umh, (4)-cn, num edge types: 1
# Building blocks:
#     Node 0, Type 0, BuildingBlock: QUQFOY_clean_sbu_1, # of connection points: 4
#     Node 1, Type 0, BuildingBlock: QUQFOY_clean_sbu_1, # of connection points: 4
#     Node 2, Type 0, BuildingBlock: QUQFOY_clean_sbu_1, # of connection points: 4
#     Node 3, Type 0, BuildingBlock: QUQFOY_clean_sbu_1, # of connection points: 4
#     Node 4, Type 0, BuildingBlock: QUQFOY_clean_sbu_1, # of connection points: 4
#     Node 5, Type 0, BuildingBlock: QUQFOY_clean_sbu_1, # of connection points: 4
#     Node 6, Type 0, BuildingBlock: QUQFOY_clean_sbu_1, # of connection points: 4
#     Node 7, Type 0, BuildingBlock: QUQFOY_clean_sbu_1, # of connection points: 4
#     Node 8, Type 0, BuildingBlock: QUQFOY_clean_sbu_1, # of connection points: 4
#     Node 9, Type 0, BuildingBlock: QUQFOY_clean_sbu_1, # of connection points: 4
#     Node 10, Type 0, BuildingBlock: QUQFOY_clean_sbu_1, # of connection points: 4
#     Node 11, Type 0, BuildingBlock: QUQFOY_clean_sbu_1, # of connection points: 4
#     Node 12, Type 0, BuildingBlock: QUQFOY_clean_sbu_1, # of connection points: 4
#     Node 13, Type 0, BuildingBlock: QUQFOY_clean_sbu_1, # of connection points: 4
#     Node 14, Type 0, BuildingBlock: QUQFOY_clean_sbu_1, # of connection points: 4
#     Node 15, Type 0, BuildingBlock: QUQFOY_clean_sbu_1, # of connection points: 4
#     Edge 16, Type (0, 0), BuildingBlock: CIFDUS_clean_linker_0, # of connection points: 2
#     Edge 17, Type (0, 0), BuildingBlock: CIFDUS_clean_linker_0, # of connection points: 2
#     Edge 18, Type (0, 0), BuildingBlock: CIFDUS_clean_linker_0, # of connection points: 2
#     Edge 19, Type (0, 0), BuildingBlock: CIFDUS_clean_linker_0, # of connection points: 2
#     Edge 20, Type (0, 0), BuildingBlock: CIFDUS_clean_linker_0, # of connection points: 2
#     Edge 21, Type (0, 0), BuildingBlock: CIFDUS_clean_linker_0, # of connection points: 2
#     Edge 22, Type (0, 0), BuildingBlock: CIFDUS_clean_linker_0, # of connection points: 2
#     Edge 23, Type (0, 0), BuildingBlock: CIFDUS_clean_linker_0, # of connection points: 2
#     Edge 24, Type (0, 0), BuildingBlock: CIFDUS_clean_linker_0, # of connection points: 2
#     Edge 25, Type (0, 0), BuildingBlock: CIFDUS_clean_linker_0, # of connection points: 2
#     Edge 26, Type (0, 0), BuildingBlock: CIFDUS_clean_linker_0, # of connection points: 2
#     Edge 27, Type (0, 0), BuildingBlock: CIFDUS_clean_linker_0, # of connection points: 2
#     Edge 28, Type (0, 0), BuildingBlock: CIFDUS_clean_linker_0, # of connection points: 2
#     Edge 29, Type (0, 0), BuildingBlock: CIFDUS_clean_linker_0, # of connection points: 2
#     Edge 30, Type (0, 0), BuildingBlock: CIFDUS_clean_linker_0, # of connection points: 2
#     Edge 31, Type (0, 0), BuildingBlock: CIFDUS_clean_linker_0, # of connection points: 2
#     Edge 32, Type (0, 0), BuildingBlock: CIFDUS_clean_linker_0, # of connection points: 2
#     Edge 33, Type (0, 0), BuildingBlock: CIFDUS_clean_linker_0, # of connection points: 2
#     Edge 34, Type (0, 0), BuildingBlock: CIFDUS_clean_linker_0, # of connection points: 2
#     Edge 35, Type (0, 0), BuildingBlock: CIFDUS_clean_linker_0, # of connection points: 2
#     Edge 36, Type (0, 0), BuildingBlock: CIFDUS_clean_linker_0, # of connection points: 2
#     Edge 37, Type (0, 0), BuildingBlock: CIFDUS_clean_linker_0, # of connection points: 2
#     Edge 38, Type (0, 0), BuildingBlock: CIFDUS_clean_linker_0, # of connection points: 2
#     Edge 39, Type (0, 0), BuildingBlock: CIFDUS_clean_linker_0, # of connection points: 2
#     Edge 40, Type (0, 0), BuildingBlock: CIFDUS_clean_linker_0, # of connection points: 2
#     Edge 41, Type (0, 0), BuildingBlock: CIFDUS_clean_linker_0, # of connection points: 2
#     Edge 42, Type (0, 0), BuildingBlock: CIFDUS_clean_linker_0, # of connection points: 2
#     Edge 43, Type (0, 0), BuildingBlock: CIFDUS_clean_linker_0, # of connection points: 2
#     Edge 44, Type (0, 0), BuildingBlock: CIFDUS_clean_linker_0, # of connection points: 2
#     Edge 45, Type (0, 0), BuildingBlock: CIFDUS_clean_linker_0, # of connection points: 2
#     Edge 46, Type (0, 0), BuildingBlock: CIFDUS_clean_linker_0, # of connection points: 2
#     Edge 47, Type (0, 0), BuildingBlock: CIFDUS_clean_linker_0, # of connection points: 2
# Relax obj value: 0.066
# Max RMSD: 0.415
# Mean RMSD: 0.288
data_MOF--net-umh--node1-QUQFOY_clean_sbu_1--edge1-CIFDUS_clean_linker_0
_symmetry_space_group_name_H-M    P1
_symmetry_Int_Tables_number       1
_symmetry_cell_setting            triclinic
loop_
_symmetry_equiv_pos_as_xyz
'x, y, z'
_cell_length_a     36.138646
_cell_length_b     35.954721
_cell_length_c     45.89017
_cell_angle_alpha  91.821654
_cell_angle_beta   88.110601
_cell_angle_gamma 90.240599
loop_
_atom_site_label
_atom_site_type_symbol
_atom_site_fract_x
_atom_site_fract_y
_atom_site_fract_z
_atom_type_partial_charge
O0 O 0.40062 0.13004 0.12994 0.0
Cd1 Cd 0.40231 0.13473 0.17472 0.0
Cd2 Cd 0.33374 0.10023 0.16993 0.0
O3 O 0.35251 0.09198 0.12625 0.0
O4 O 0.45484 0.12848 0.18793 0.0
O5 O 0.40998 0.08743 0.19465 0.0
C6 C 0.4443 0.09635 0.1971 0.0
C7 C 0.30884 0.05968 0.20478 0.0
C8 C 0.37928 0.11011 0.11433 0.0
C9 C 0.33671 0.1805 0.19222 0.0
O10 O 0.31838 0.15363 0.18121 0.0
O11 O 0.37172 0.17822 0.19432 0.0
O12 O 0.28924 0.06985 0.18337 0.0
O13 O 0.34335 0.06877 0.20412 0.0
O14 O 0.37689 0.39153 0.63983 0.0
Cd15 Cd 0.38004 0.38811 0.68426 0.0
Cd16 Cd 0.42052 0.32939 0.66769 0.0
O17 O 0.42476 0.35592 0.6273 0.0
O18 O 0.3778 0.44103 0.70061 0.0
O19 O 0.42826 0.40648 0.69972 0.0
C20 C 0.41294 0.43851 0.70469 0.0
C21 C 0.4629 0.30529 0.69974 0.0
C22 C 0.39969 0.37877 0.62036 0.0
C23 C 0.34495 0.31476 0.69325 0.0
O24 O 0.37081 0.30381 0.67569 0.0
O25 O 0.34462 0.34835 0.70326 0.0
O26 O 0.45709 0.28874 0.67486 0.0
O27 O 0.4487 0.33789 0.70439 0.0
O28 O 0.12981 0.39021 0.14014 0.0
Cd29 Cd 0.12766 0.38923 0.18495 0.0
Cd30 Cd 0.19042 0.42517 0.17845 0.0
O31 O 0.17079 0.43558 0.1368 0.0
O32 O 0.07385 0.38676 0.19652 0.0
O33 O 0.10916 0.4362 0.20484 0.0
C34 C 0.07659 0.42118 0.20524 0.0
C35 C 0.2155 0.46412 0.21473 0.0
C36 C 0.14727 0.41379 0.12482 0.0
C37 C 0.19412 0.34663 0.19713 0.0
O38 O 0.21035 0.37258 0.18354 0.0
O39 O 0.15965 0.34901 0.20367 0.0
O40 O 0.2332 0.45741 0.1902 0.0
O41 O 0.18156 0.45278 0.217 0.0
O42 O 0.11819 0.12889 0.63486 0.0
Cd43 Cd 0.12047 0.12676 0.67958 0.0
Cd44 Cd 0.08029 0.19052 0.67689 0.0
O45 O 0.07304 0.17017 0.63392 0.0
O46 O 0.11384 0.07341 0.69227 0.0
O47 O 0.0713 0.1171 0.69862 0.0
C48 C 0.08044 0.08267 0.7005 0.0
C49 C 0.03873 0.21696 0.71214 0.0
C50 C 0.09484 0.14679 0.62064 0.0
C51 C 0.15927 0.19683 0.69614 0.0
O52 O 0.13158 0.21187 0.68501 0.0
O53 O 0.16008 0.16164 0.69912 0.0
O54 O 0.04753 0.23417 0.6886 0.0
O55 O 0.04948 0.18297 0.71368 0.0
O56 O 0.39821 0.38308 0.42823 0.0
Cd57 Cd 0.39469 0.38606 0.38375 0.0
Cd58 Cd 0.33166 0.41937 0.3999 0.0
O59 O 0.35594 0.42517 0.44097 0.0
O60 O 0.44717 0.38767 0.36765 0.0
O61 O 0.40886 0.43545 0.36768 0.0
C62 C 0.44183 0.42247 0.3629 0.0
C63 C 0.30377 0.46042 0.36868 0.0
C64 C 0.38185 0.40329 0.44787 0.0
C65 C 0.32672 0.34279 0.37296 0.0
O66 O 0.31203 0.36721 0.3902 0.0
O67 O 0.36037 0.34628 0.3641 0.0
O68 O 0.28765 0.45173 0.39313 0.0
O69 O 0.33769 0.45001 0.36414 0.0
O70 O 0.12427 0.39355 0.94046 0.0
Cd71 Cd 0.12777 0.39326 0.89551 0.0
Cd72 Cd 0.08677 0.32952 0.90199 0.0
O73 O 0.08044 0.35075 0.94511 0.0
O74 O 0.12359 0.44582 0.88107 0.0
O75 O 0.08007 0.40283 0.87682 0.0
C76 C 0.09055 0.43676 0.87336 0.0
C77 C 0.04381 0.30303 0.86987 0.0
C78 C 0.10174 0.37535 0.95652 0.0
C79 C 0.16619 0.32248 0.87914 0.0
O80 O 0.13783 0.30773 0.89113 0.0
O81 O 0.16763 0.35759 0.87588 0.0
O82 O 0.05317 0.28595 0.89283 0.0
O83 O 0.05508 0.33685 0.8673 0.0
O84 O 0.11407 0.13387 0.43513 0.0
Cd85 Cd 0.11036 0.13836 0.39076 0.0
Cd86 Cd 0.17522 0.10109 0.3917 0.0
O87 O 0.15741 0.09069 0.43486 0.0
O88 O 0.05593 0.13982 0.38208 0.0
O89 O 0.09265 0.09252 0.36977 0.0
C90 C 0.05976 0.10633 0.3713 0.0
C91 C 0.19273 0.06203 0.35176 0.0
C92 C 0.1333 0.111 0.44877 0.0
C93 C 0.17823 0.18088 0.37451 0.0
O94 O 0.19514 0.15363 0.38489 0.0
O95 O 0.14319 0.17965 0.37185 0.0
O96 O 0.21454 0.06715 0.37332 0.0
O97 O 0.15968 0.07532 0.35477 0.0
O98 O 0.39243 0.14067 0.93091 0.0
Cd99 Cd 0.39137 0.13894 0.88615 0.0
Cd100 Cd 0.43254 0.19843 0.89262 0.0
O101 O 0.44221 0.17615 0.93362 0.0
O102 O 0.38874 0.08483 0.87363 0.0
O103 O 0.43865 0.11985 0.86731 0.0
C104 C 0.42347 0.08727 0.86613 0.0
C105 C 0.47111 0.22156 0.8552 0.0
C106 C 0.41816 0.15499 0.94586 0.0
C107 C 0.35469 0.20989 0.87567 0.0
O108 O 0.38196 0.22291 0.88948 0.0
O109 O 0.35395 0.17545 0.868 0.0
O110 O 0.46732 0.23919 0.88012 0.0
O111 O 0.4572 0.18848 0.85308 0.0
O112 O 0.62282 0.89717 0.93906 0.0
Cd113 Cd 0.62209 0.89411 0.89412 0.0
Cd114 Cd 0.68956 0.9271 0.89961 0.0
O115 O 0.67024 0.93592 0.94286 0.0
O116 O 0.5701 0.90314 0.88057 0.0
O117 O 0.61639 0.94296 0.87548 0.0
C118 C 0.58172 0.93552 0.87271 0.0
C119 C 0.71955 0.96813 0.86762 0.0
C120 C 0.64377 0.91746 0.95473 0.0
C121 C 0.6872 0.84697 0.87733 0.0
O122 O 0.70543 0.87358 0.88881 0.0
O123 O 0.65233 0.84996 0.8744 0.0
O124 O 0.73592 0.95632 0.89013 0.0
O125 O 0.68496 0.9601 0.86527 0.0
O126 O 0.61887 0.6351 0.43523 0.0
Cd127 Cd 0.62029 0.63629 0.39034 0.0
Cd128 Cd 0.58206 0.69998 0.40196 0.0
O129 O 0.57422 0.67646 0.44316 0.0
O130 O 0.61502 0.58393 0.3732 0.0
O131 O 0.57118 0.62658 0.37328 0.0
C132 C 0.58135 0.59272 0.36766 0.0
C133 C 0.54256 0.72823 0.3697 0.0
C134 C 0.596 0.65192 0.45268 0.0
C135 C 0.66029 0.70647 0.37861 0.0
O136 O 0.63375 0.72089 0.39375 0.0
O137 O 0.65973 0.67189 0.37142 0.0
O138 O 0.55027 0.74445 0.39432 0.0
O139 O 0.55282 0.69413 0.36555 0.0
O140 O 0.88929 0.63108 0.92966 0.0
Cd141 Cd 0.89467 0.63416 0.88521 0.0
Cd142 Cd 0.82993 0.59759 0.88868 0.0
O143 O 0.84732 0.58634 0.9309 0.0
O144 O 0.94973 0.63634 0.876 0.0
O145 O 0.91462 0.58767 0.86543 0.0
C146 C 0.94726 0.60213 0.86667 0.0
C147 C 0.81545 0.55861 0.84863 0.0
C148 C 0.87057 0.6074 0.94396 0.0
C149 C 0.82748 0.6772 0.87179 0.0
O150 O 0.81014 0.65032 0.88338 0.0
O151 O 0.86245 0.67516 0.86689 0.0
O152 O 0.79242 0.56261 0.87068 0.0
O153 O 0.84781 0.57347 0.85095 0.0
O154 O 0.89075 0.8897 0.43366 0.0
Cd155 Cd 0.88707 0.88939 0.38902 0.0
Cd156 Cd 0.92882 0.82742 0.39363 0.0
O157 O 0.93671 0.84958 0.43583 0.0
O158 O 0.88827 0.94258 0.37581 0.0
O159 O 0.93408 0.90252 0.36817 0.0
C160 C 0.92183 0.93597 0.36645 0.0
C161 C 0.97033 0.80312 0.35763 0.0
C162 C 0.91461 0.87323 0.44838 0.0
C163 C 0.84988 0.8177 0.37551 0.0
O164 O 0.87798 0.80398 0.38706 0.0
O165 O 0.84842 0.85253 0.37108 0.0
O166 O 0.96344 0.78554 0.38134 0.0
O167 O 0.95754 0.8364 0.35627 0.0
O168 O 0.62134 0.62493 0.63458 0.0
Cd169 Cd 0.61954 0.62774 0.67944 0.0
Cd170 Cd 0.68547 0.58809 0.66972 0.0
O171 O 0.66455 0.58169 0.62742 0.0
O172 O 0.56623 0.62146 0.69503 0.0
O173 O 0.60944 0.5786 0.69662 0.0
C174 C 0.57535 0.58789 0.70113 0.0
C175 C 0.70771 0.54689 0.70384 0.0
C176 C 0.63985 0.60293 0.61744 0.0
C177 C 0.68999 0.66751 0.69323 0.0
O178 O 0.7053 0.63994 0.67982 0.0
O179 O 0.655 0.66779 0.69844 0.0
O180 O 0.72775 0.55488 0.68099 0.0
O181 O 0.67396 0.5582 0.70496 0.0
O182 O 0.88966 0.61952 0.12925 0.0
Cd183 Cd 0.88602 0.61885 0.17414 0.0
Cd184 Cd 0.92058 0.68624 0.16919 0.0
O185 O 0.92869 0.66689 0.12581 0.0
O186 O 0.89457 0.5671 0.18845 0.0
O187 O 0.93405 0.61385 0.19333 0.0
C188 C 0.92648 0.57915 0.19668 0.0
C189 C 0.96223 0.71633 0.2006 0.0
C190 C 0.91016 0.64053 0.11376 0.0
C191 C 0.84056 0.6844 0.1916 0.0
O192 O 0.86757 0.70254 0.18065 0.0
O193 O 0.84258 0.64921 0.19376 0.0
O194 O 0.95006 0.73277 0.17822 0.0
O195 O 0.95414 0.68163 0.20312 0.0
O196 O 0.88238 0.89082 0.63247 0.0
Cd197 Cd 0.88159 0.88827 0.67723 0.0
Cd198 Cd 0.82332 0.93235 0.67194 0.0
O199 O 0.8472 0.94067 0.6304 0.0
O200 O 0.93479 0.88482 0.6894 0.0
O201 O 0.90019 0.93496 0.69666 0.0
C202 C 0.93222 0.91948 0.69769 0.0
C203 C 0.80249 0.9738 0.70928 0.0
C204 C 0.86878 0.9166 0.61782 0.0
C205 C 0.80801 0.85421 0.68956 0.0
O206 O 0.79658 0.88256 0.67678 0.0
O207 O 0.84217 0.85175 0.69563 0.0
O208 O 0.78464 0.96982 0.68542 0.0
O209 O 0.83431 0.95787 0.71021 0.0
O210 O 0.63229 0.89288 0.13879 0.0
Cd211 Cd 0.63423 0.89585 0.1835 0.0
Cd212 Cd 0.59654 0.83319 0.17837 0.0
O213 O 0.58687 0.8519 0.13637 0.0
O214 O 0.63754 0.95013 0.19434 0.0
O215 O 0.58828 0.91523 0.20396 0.0
C216 C 0.60351 0.94781 0.20372 0.0
C217 C 0.55497 0.81078 0.21411 0.0
C218 C 0.60855 0.87514 0.12392 0.0
C219 C 0.67524 0.82838 0.19674 0.0
O220 O 0.64841 0.81198 0.18448 0.0
O221 O 0.67405 0.86338 0.20197 0.0
O222 O 0.5625 0.79172 0.19032 0.0
O223 O 0.56774 0.84435 0.21603 0.0
H224 H 0.3719 0.10954 0.97668 0.0
H225 H 0.46497 0.18398 0.98696 0.0
H226 H 0.46243 0.17464 0.0396 0.0
H227 H 0.43184 0.14794 0.08288 0.0
H228 H 0.33797 0.07451 0.07254 0.0
H229 H 0.34308 0.08072 1.01965 0.0
C230 C 0.39185 0.12366 0.99032 0.0
C231 C 0.41853 0.14768 0.97769 0.0
C232 C 0.39004 0.11837 1.02061 0.0
C233 C 0.44412 0.16544 0.99592 0.0
C234 C 0.44263 0.16013 1.02608 0.0
C235 C 0.4126 0.13296 0.06913 0.0
C236 C 0.3844 0.11081 0.08192 0.0
C237 C 0.41542 0.13702 0.0387 0.0
C238 C 0.35991 0.09171 0.06351 0.0
C239 C 0.36275 0.09536 1.0332 0.0
H240 H 0.3491 0.43406 0.49799 0.0
H241 H 0.4384 0.36191 0.46758 0.0
H242 H 0.45302 0.34902 0.5176 0.0
H243 H 0.4386 0.35521 0.57047 0.0
H244 H 0.34946 0.42767 0.60077 0.0
H245 H 0.33715 0.44323 0.5509 0.0
C246 C 0.37199 0.41583 0.50229 0.0
C247 C 0.3923 0.39889 0.4788 0.0
C248 C 0.38035 0.40823 0.53135 0.0
C249 C 0.42195 0.37531 0.48502 0.0
C250 C 0.43043 0.36779 0.51376 0.0
C251 C 0.4167 0.37463 0.5662 0.0
C252 C 0.39496 0.38987 0.5896 0.0
C253 C 0.4095 0.38361 0.53717 0.0
C254 C 0.3667 0.41514 0.5834 0.0
C255 C 0.3595 0.42417 0.55474 0.0
H256 H 0.14551 0.42367 0.98723 0.0
H257 H 0.06044 0.34024 0.99885 0.0
H258 H 0.06597 0.3463 0.05173 0.0
H259 H 0.09709 0.37271 0.09444 0.0
H260 H 0.18293 0.45535 0.08301 0.0
H261 H 0.17475 0.4522 1.03024 0.0
C262 C 0.12789 0.40696 1.00126 0.0
C263 C 0.10262 0.38136 0.98884 0.0
C264 C 0.13149 0.41031 1.03172 0.0
C265 C 0.08011 0.36011 1.0076 0.0
C266 C 0.08335 0.3635 0.0379 0.0
C267 C 0.11397 0.39027 0.08052 0.0
C268 C 0.14081 0.41414 0.09287 0.0
C269 C 0.1093 0.38811 0.05017 0.0
C270 C 0.16214 0.4367 0.07427 0.0
C271 C 0.15751 0.43485 0.04404 0.0
H272 H 0.13897 0.10071 0.58619 0.0
H273 H 0.05096 0.18104 0.58187 0.0
H274 H 0.05401 0.17535 0.52863 0.0
H275 H 0.08347 0.15 0.48339 0.0
H276 H 0.17227 0.07054 0.48739 0.0
H277 H 0.16684 0.07336 0.54074 0.0
C278 C 0.12021 0.11686 0.57369 0.0
C279 C 0.0948 0.14145 0.58824 0.0
C280 C 0.12234 0.11368 0.54299 0.0
C281 C 0.0708 0.16198 0.57145 0.0
C282 C 0.07259 0.15877 0.54094 0.0
C283 C 0.10158 0.13303 0.49582 0.0
C284 C 0.12842 0.11015 0.48118 0.0
C285 C 0.09853 0.13507 0.52649 0.0
C286 C 0.15141 0.08839 0.49789 0.0
C287 C 0.14836 0.09008 0.52846 0.0
H288 H 0.65083 0.92317 0.0923 0.0
H289 H 0.56468 0.84043 0.08331 0.0
H290 H 0.56651 0.84802 1.03045 0.0
H291 H 0.59471 0.87589 0.98666 0.0
H292 H 0.68188 0.95755 0.99591 0.0
H293 H 0.67722 0.95272 0.04888 0.0
C294 C 0.63223 0.90684 0.07889 0.0
C295 C 0.60773 0.88106 0.09193 0.0
C296 C 0.63366 0.91113 0.04851 0.0
C297 C 0.58385 0.86038 0.07401 0.0
C298 C 0.58494 0.8647 0.04373 0.0
C299 C 0.61252 0.89295 1.0002 0.0
C300 C 0.63873 0.91704 0.98711 0.0
C301 C 0.61003 0.88968 1.03072 0.0
C302 C 0.66151 0.93877 1.00521 0.0
C303 C 0.65892 0.93595 0.03556 0.0
H304 H 0.5892 0.64474 0.59042 0.0
H305 H 0.67645 0.56482 0.57222 0.0
H306 H 0.66905 0.57159 0.51983 0.0
H307 H 0.64015 0.60265 0.47931 0.0
H308 H 0.55384 0.68353 0.49777 0.0
H309 H 0.55854 0.67372 0.54999 0.0
C310 C 0.60653 0.6285 0.57509 0.0
C311 C 0.63354 0.60433 0.58548 0.0
C312 C 0.60239 0.63285 0.54499 0.0
C313 C 0.65549 0.58359 0.56505 0.0
C314 C 0.65132 0.58756 0.53502 0.0
C315 C 0.62211 0.61802 0.49467 0.0
C316 C 0.5967 0.644 0.48441 0.0
C317 C 0.62521 0.61249 0.52476 0.0
C318 C 0.57363 0.66346 0.50485 0.0
C319 C 0.57637 0.65789 0.53478 0.0
H320 H 0.91887 0.64799 0.97631 0.0
H321 H 0.83356 0.56413 0.98409 0.0
H322 H 0.83996 0.56551 0.03711 0.0
H323 H 0.86771 0.59278 0.08134 0.0
H324 H 0.95189 0.67778 0.07304 0.0
H325 H 0.94803 0.67345 1.02001 0.0
C326 C 0.90169 0.62978 0.98947 0.0
C327 C 0.87557 0.60606 0.97605 0.0
C328 C 0.90529 0.63099 1.01989 0.0
C329 C 0.85381 0.58269 0.99368 0.0
C330 C 0.85745 0.58353 1.02404 0.0
C331 C 0.88552 0.61017 0.06798 0.0
C332 C 0.91007 0.63569 0.08137 0.0
C333 C 0.88281 0.60789 0.03741 0.0
C334 C 0.93274 0.65797 0.06352 0.0
C335 C 0.93048 0.65555 1.03314 0.0
H336 H 0.87455 0.92507 0.48034 0.0
H337 H 0.95376 0.83685 0.4891 0.0
H338 H 0.94809 0.84423 0.54222 0.0
H339 H 0.91761 0.87277 0.58604 0.0
H340 H 0.83785 0.96046 0.57724 0.0
H341 H 0.84703 0.9563 0.5242 0.0
C342 C 0.89087 0.90757 0.49379 0.0
C343 C 0.91439 0.88018 0.48057 0.0
C344 C 0.88722 0.91175 0.52434 0.0
C345 C 0.93543 0.85809 0.49853 0.0
C346 C 0.93209 0.86221 0.52896 0.0
C347 C 0.90235 0.89122 0.5726 0.0
C348 C 0.87678 0.91673 0.58576 0.0
C349 C 0.90758 0.88849 0.54209 0.0
C350 C 0.85761 0.94054 0.56785 0.0
C351 C 0.86278 0.93808 0.53746 0.0
H352 H 0.26868 0.34085 0.19972 0.0
H353 H 0.16779 0.27695 0.20874 0.0
H354 H 0.20392 0.21987 0.21163 0.0
H355 H 0.2636 0.18774 0.20567 0.0
H356 H 0.3645 0.25145 0.19615 0.0
H357 H 0.32886 0.30926 0.1999 0.0
C358 C 0.25457 0.31447 0.20263 0.0
C359 C 0.21556 0.31301 0.20347 0.0
C360 C 0.2755 0.28183 0.20407 0.0
C361 C 0.19773 0.27879 0.20785 0.0
C362 C 0.21838 0.24614 0.20938 0.0
C363 C 0.27788 0.2143 0.20481 0.0
C364 C 0.3166 0.21533 0.20015 0.0
C365 C 0.2572 0.24726 0.20661 0.0
C366 C 0.33476 0.24991 0.19964 0.0
C367 C 0.31434 0.28294 0.20157 0.0
H368 H 0.27276 0.3289 0.71028 0.0
H369 H 0.35001 0.23949 0.69163 0.0
H370 H 0.30002 0.19401 0.69474 0.0
H371 H 0.23315 0.17998 0.69656 0.0
H372 H 0.15566 0.26968 0.71299 0.0
H373 H 0.20646 0.31408 0.71737 0.0
C374 C 0.27869 0.29943 0.70752 0.0
C375 C 0.31501 0.28777 0.70037 0.0
C376 C 0.24954 0.27323 0.70865 0.0
C377 C 0.3222 0.24937 0.69676 0.0
C378 C 0.29359 0.22322 0.69852 0.0
C379 C 0.22749 0.20908 0.70176 0.0
C380 C 0.19067 0.22147 0.70412 0.0
C381 C 0.25695 0.23485 0.70351 0.0
C382 C 0.18378 0.25941 0.7107 0.0
C383 C 0.21284 0.28493 0.71318 0.0
H384 H 0.25227 0.33899 0.36996 0.0
H385 H 0.35085 0.2721 0.35886 0.0
H386 H 0.31271 0.21571 0.35528 0.0
H387 H 0.25183 0.18538 0.36146 0.0
H388 H 0.15335 0.25252 0.37246 0.0
H389 H 0.19103 0.30908 0.36957 0.0
C390 C 0.26541 0.31208 0.36634 0.0
C391 C 0.30435 0.30959 0.36514 0.0
C392 C 0.24335 0.27993 0.36453 0.0
C393 C 0.32098 0.27471 0.35991 0.0
C394 C 0.29917 0.24248 0.35807 0.0
C395 C 0.23855 0.2124 0.36284 0.0
C396 C 0.19987 0.21478 0.36767 0.0
C397 C 0.2604 0.24473 0.36131 0.0
C398 C 0.18301 0.24993 0.36886 0.0
C399 C 0.20459 0.28226 0.36737 0.0
H400 H 0.28238 0.19262 0.86475 0.0
H401 H 0.35778 0.28525 0.87427 0.0
H402 H 0.30665 0.32889 0.87246 0.0
H403 H 0.2396 0.34087 0.87392 0.0
H404 H 0.16392 0.24823 0.86648 0.0
H405 H 0.21565 0.20499 0.86132 0.0
C406 C 0.28764 0.22234 0.86589 0.0
C407 C 0.3238 0.23551 0.87004 0.0
C408 C 0.25787 0.24752 0.86545 0.0
C409 C 0.33012 0.27422 0.8715 0.0
C410 C 0.30087 0.29932 0.87046 0.0
C411 C 0.2345 0.31132 0.87055 0.0
C412 C 0.19795 0.29786 0.87091 0.0
C413 C 0.26447 0.28633 0.86831 0.0
C414 C 0.19182 0.25937 0.86665 0.0
C415 C 0.22141 0.23452 0.86373 0.0
H416 H 0.76091 0.83837 0.86639 0.0
H417 H 0.65858 0.77633 0.87175 0.0
H418 H 0.69329 0.7179 0.86782 0.0
H419 H 0.75288 0.6849 0.86829 0.0
H420 H 0.85511 0.74722 0.86304 0.0
H421 H 0.82016 0.80517 0.86123 0.0
C422 C 0.74611 0.81207 0.86633 0.0
C423 C 0.70716 0.81174 0.86976 0.0
C424 C 0.76626 0.77868 0.86433 0.0
C425 C 0.68846 0.77742 0.86917 0.0
C426 C 0.70835 0.744 0.86712 0.0
C427 C 0.76758 0.71112 0.86642 0.0
C428 C 0.80666 0.71171 0.86624 0.0
C429 C 0.74728 0.74435 0.86555 0.0
C430 C 0.82515 0.7459 0.86333 0.0
C431 C 0.80515 0.77908 0.86243 0.0
H432 H 0.73303 0.68751 0.36884 0.0
H433 H 0.65829 0.78085 0.3713 0.0
H434 H 0.7103 0.82385 0.36692 0.0
H435 H 0.77729 0.8356 0.36851 0.0
H436 H 0.85214 0.74241 0.36824 0.0
H437 H 0.80027 0.69913 0.36531 0.0
C438 C 0.72819 0.71718 0.36779 0.0
C439 C 0.69192 0.73092 0.37075 0.0
C440 C 0.75839 0.74202 0.36601 0.0
C441 C 0.68605 0.76953 0.36946 0.0
C442 C 0.71578 0.79423 0.36698 0.0
C443 C 0.78226 0.80586 0.36724 0.0
C444 C 0.81849 0.79238 0.369 0.0
C445 C 0.75215 0.78091 0.3662 0.0
C446 C 0.82444 0.75364 0.36736 0.0
C447 C 0.79477 0.72876 0.36568 0.0
H448 H 0.82135 0.78191 0.70387 0.0
H449 H 0.73291 0.85882 0.68948 0.0
H450 H 0.68757 0.80889 0.69333 0.0
H451 H 0.67329 0.74185 0.69516 0.0
H452 H 0.76186 0.66466 0.70783 0.0
H453 H 0.8062 0.7158 0.71082 0.0
C454 C 0.79213 0.78783 0.70204 0.0
C455 C 0.78083 0.82406 0.69594 0.0
C456 C 0.76592 0.75871 0.70385 0.0
C457 C 0.74268 0.83113 0.69372 0.0
C458 C 0.71654 0.80255 0.69597 0.0
C459 C 0.7021 0.73639 0.69932 0.0
C460 C 0.71421 0.69949 0.70106 0.0
C461 C 0.72786 0.76599 0.70023 0.0
C462 C 0.75181 0.69284 0.70616 0.0
C463 C 0.77731 0.72208 0.70777 0.0
H464 H 0.83346 0.75813 0.20422 0.0
H465 H 0.76985 0.65673 0.19587 0.0
H466 H 0.71239 0.69267 0.19961 0.0
H467 H 0.68095 0.75323 0.19939 0.0
H468 H 0.74488 0.85453 0.20742 0.0
H469 H 0.80161 0.81816 0.20993 0.0
C470 C 0.807 0.7438 0.20361 0.0
C471 C 0.80592 0.70483 0.19932 0.0
C472 C 0.77422 0.76464 0.20544 0.0
C473 C 0.77145 0.68666 0.19909 0.0
C474 C 0.73862 0.70724 0.20102 0.0
C475 C 0.70725 0.76739 0.20202 0.0
C476 C 0.70874 0.8066 0.20272 0.0
C477 C 0.73976 0.7463 0.20326 0.0
C478 C 0.74294 0.82444 0.20666 0.0
C479 C 0.77542 0.80365 0.20797 0.0
H480 H 0.26304 0.03971 0.33582 0.0
H481 H 0.15445 0.05436 0.30159 0.0
H482 H 0.18031 0.04867 0.25193 0.0
H483 H 0.23508 0.05075 0.21854 0.0
H484 H 0.34373 0.0369 0.25289 0.0
H485 H 0.3165 0.03031 0.30174 0.0
C486 C 0.24484 0.0406 0.31753 0.0
C487 C 0.20691 0.04812 0.32259 0.0
C488 C 0.26002 0.03794 0.28884 0.0
C489 C 0.1838 0.04895 0.2985 0.0
C490 C 0.19862 0.04591 0.26997 0.0
C491 C 0.25274 0.04516 0.23653 0.0
C492 C 0.29149 0.04499 0.23198 0.0
C493 C 0.23692 0.04209 0.26487 0.0
C494 C 0.31385 0.03757 0.25567 0.0
C495 C 0.2983 0.03401 0.28376 0.0
H496 H 0.48227 0.33314 0.75327 0.0
H497 H 0.47636 0.23068 0.70206 0.0
H498 H 0.48407 0.19499 0.74579 0.0
H499 H 0.48171 0.19285 0.79954 0.0
H500 H 0.4877 0.29542 0.85066 0.0
H501 H 0.49144 0.33074 0.80616 0.0
C502 C 0.48371 0.30302 0.75151 0.0
C503 C 0.47819 0.28473 0.72434 0.0
C504 C 0.48767 0.28252 0.77692 0.0
C505 C 0.48042 0.24565 0.72257 0.0
C506 C 0.48452 0.22511 0.7477 0.0
C507 C 0.48487 0.22286 0.80098 0.0
C508 C 0.48383 0.24136 0.82858 0.0
C509 C 0.48656 0.24322 0.77517 0.0
C510 C 0.48822 0.28029 0.82986 0.0
C511 C 0.4901 0.30064 0.80433 0.0
H512 H 0.18827 0.47451 0.27083 0.0
H513 H 0.28872 0.48259 0.21785 0.0
H514 H 0.32502 0.48811 0.26164 0.0
H515 H 0.3292 0.48006 0.31451 0.0
H516 H 0.22893 0.47118 0.36756 0.0
H517 H 0.1919 0.47733 0.32447 0.0
C518 C 0.218 0.4785 0.26882 0.0
C519 C 0.23566 0.47755 0.24092 0.0
C520 C 0.23896 0.48106 0.29423 0.0
C521 C 0.27425 0.48294 0.23891 0.0
C522 C 0.29516 0.48588 0.26402 0.0
C523 C 0.29924 0.48048 0.31682 0.0
C524 C 0.28202 0.47461 0.34433 0.0
C525 C 0.27798 0.48337 0.29177 0.0
C526 C 0.2431 0.47548 0.34677 0.0
C527 C 0.2218 0.47871 0.32201 0.0
H528 H 0.02308 0.18953 0.76597 0.0
H529 H 0.0234 0.2913 0.71856 0.0
H530 H 0.01812 0.32751 0.76437 0.0
H531 H 0.02541 0.3305 0.81752 0.0
H532 H 0.02758 0.22874 0.86483 0.0
H533 H 0.01913 0.19255 0.81963 0.0
C534 C 0.02092 0.21959 0.76557 0.0
C535 C 0.0243 0.2376 0.73875 0.0
C536 C 0.01888 0.24039 0.79212 0.0
C537 C 0.02114 0.27659 0.73878 0.0
C538 C 0.01841 0.29741 0.76506 0.0
C539 C 0.02298 0.30046 0.81812 0.0
C540 C 0.02779 0.28242 0.84458 0.0
C541 C 0.01908 0.27967 0.79185 0.0
C542 C 0.02425 0.24345 0.84486 0.0
C543 C 0.01969 0.22265 0.8189 0.0
H544 H 0.69327 0.99253 0.81656 0.0
H545 H 0.79458 0.97711 0.86187 0.0
H546 H 0.8305 0.98466 0.81649 0.0
H547 H 0.83218 0.98354 0.76286 0.0
H548 H 0.73069 0.99674 0.71733 0.0
H549 H 0.69611 1.00301 0.76379 0.0
C550 C 0.72327 0.99185 0.81671 0.0
C551 C 0.74109 0.98353 0.84257 0.0
C552 C 0.7438 0.99534 0.79031 0.0
C553 C 0.78002 0.98315 0.84232 0.0
C554 C 0.80064 0.98722 0.81627 0.0
C555 C 0.80265 0.98886 0.76305 0.0
C556 C 0.78403 0.98894 0.73654 0.0
C557 C 0.78272 0.99148 0.78992 0.0
C558 C 0.74579 0.99626 0.73731 0.0
C559 C 0.72589 0.99955 0.76395 0.0
H560 H 0.52395 0.70191 0.31572 0.0
H561 H 0.53557 0.80381 0.36687 0.0
H562 H 0.53456 0.83969 0.32262 0.0
H563 H 0.54185 0.84099 0.26899 0.0
H564 H 0.53164 0.7387 0.21804 0.0
H565 H 0.52009 0.70446 0.26244 0.0
C566 C 0.52519 0.73205 0.31733 0.0
C567 C 0.53042 0.74999 0.34465 0.0
C568 C 0.52547 0.75253 0.29165 0.0
C569 C 0.53167 0.78912 0.34622 0.0
C570 C 0.53145 0.80972 0.32081 0.0
C571 C 0.53611 0.81138 0.26751 0.0
C572 C 0.53829 0.79245 0.24011 0.0
C573 C 0.53012 0.79158 0.29331 0.0
C574 C 0.5305 0.75406 0.23873 0.0
C575 C 0.52407 0.73433 0.26421 0.0
H576 H 0.74704 0.53227 0.8342 0.0
H577 H 0.85672 0.55204 0.79781 0.0
H578 H 0.83396 0.54323 0.74865 0.0
H579 H 0.78101 0.5412 0.71612 0.0
H580 H 0.67117 0.52273 0.75261 0.0
H581 H 0.69598 0.51884 0.80117 0.0
C582 C 0.76619 0.53365 0.81557 0.0
C583 C 0.80343 0.5435 0.81984 0.0
C584 C 0.75277 0.52917 0.78715 0.0
C585 C 0.82783 0.5449 0.79532 0.0
C586 C 0.81479 0.54002 0.76707 0.0
C587 C 0.76264 0.53506 0.73452 0.0
C588 C 0.72418 0.53284 0.73066 0.0
C589 C 0.77701 0.53379 0.76268 0.0
C590 C 0.70085 0.52492 0.75488 0.0
C591 C 0.715 0.52295 0.78279 0.0
H592 H 0.98205 0.8312 0.3036 0.0
H593 H 0.98994 0.72981 0.35087 0.0
H594 H 0.99507 0.69378 0.30495 0.0
H595 H 0.98505 0.69018 0.25217 0.0
H596 H 0.97419 0.79144 0.20517 0.0
H597 H 0.98318 0.82822 0.25 0.0
C598 C 0.98597 0.80133 0.30392 0.0
C599 C 0.98491 0.78325 0.33076 0.0
C600 C 0.98778 0.78059 0.27737 0.0
C601 C 0.99036 0.74453 0.33063 0.0
C602 C 0.993 0.7238 0.30431 0.0
C603 C 0.98567 0.7203 0.25152 0.0
C604 C 0.97825 0.73794 0.22534 0.0
C605 C 0.98986 0.74136 0.27761 0.0
C606 C 0.9795 0.77703 0.22497 0.0
C607 C 0.9844 0.79815 0.25071 0.0
H608 H 0.52006 0.09974 0.19543 0.0
H609 H 0.42797 0.03006 0.22147 0.0
H610 H 0.47012 0.97918 0.22992 0.0
H611 H 0.53185 0.95171 0.22352 0.0
H612 H 0.62416 0.02033 0.19638 0.0
H613 H 0.58345 0.0743 0.1954 0.0
C614 C 0.50931 0.07369 0.20354 0.0
C615 C 0.47083 0.06863 0.20736 0.0
C616 C 0.53376 0.04412 0.20797 0.0
C617 C 0.4574 0.03468 0.21799 0.0
C618 C 0.48151 1.00544 0.2228 0.0
C619 C 0.54327 0.97863 0.21798 0.0
C620 C 0.58093 0.98177 0.20966 0.0
C621 C 0.51957 1.00941 0.21688 0.0
C622 C 0.59524 0.01699 0.20277 0.0
C623 C 0.5719 0.04789 0.20201 0.0
H624 H 0.49916 0.59148 0.7014 0.0
H625 H 0.58956 0.51892 0.72037 0.0
H626 H 0.54664 0.46726 0.72644 0.0
H627 H 0.48476 0.44055 0.72065 0.0
H628 H 0.3937 0.51195 0.70152 0.0
H629 H 0.43521 0.56591 0.70177 0.0
C630 C 0.50934 0.56458 0.70747 0.0
C631 C 0.54772 0.55918 0.71005 0.0
C632 C 0.48436 0.5345 0.71068 0.0
C633 C 0.56031 0.52399 0.71794 0.0
C634 C 0.53575 0.49426 0.72137 0.0
C635 C 0.47378 0.46801 0.71708 0.0
C636 C 0.43616 0.47201 0.71082 0.0
C637 C 0.4979 0.49886 0.71691 0.0
C638 C 0.42249 0.50793 0.70643 0.0
C639 C 0.44632 0.53884 0.70636 0.0
H640 H 0.07336 0.49468 0.22122 0.0
H641 H 1.00413 0.39964 0.20167 0.0
H642 H 0.95003 0.43998 0.20071 0.0
H643 H 0.92409 0.50318 0.19871 0.0
H644 H 0.99414 0.59803 0.21711 0.0
H645 H 0.04583 0.55688 0.22547 0.0
C646 C 0.04633 0.48263 0.21736 0.0
C647 C 0.043 0.4442 0.21117 0.0
C648 C 0.0154 0.50609 0.21624 0.0
C649 C 0.00763 0.42913 0.20638 0.0
C650 C 0.97664 0.45224 0.20564 0.0
C651 C 0.95045 0.51482 0.20511 0.0
C652 C 0.95527 0.5537 0.20684 0.0
C653 C 0.98043 0.49093 0.2095 0.0
C654 C 0.98964 0.56825 0.21529 0.0
C655 C 0.01934 0.54472 0.22004 0.0
H656 H 0.93403 0.99048 0.71985 0.0
H657 H 1.00537 0.90052 0.68944 0.0
H658 H 0.05897 0.94228 0.69084 0.0
H659 H 0.08419 1.00643 0.6947 0.0
H660 H 0.01167 0.096 0.72425 0.0
H661 H 0.96034 0.05237 0.72942 0.0
C662 C 0.96139 0.97975 0.71404 0.0
C663 C 0.9655 0.94242 0.70427 0.0
C664 C 0.992 1.00407 0.71444 0.0
C665 C 1.00128 0.92908 0.69703 0.0
C666 C 0.03198 0.95306 0.69764 0.0
C667 C 0.05737 0.01626 0.70287 0.0
C668 C 0.05185 0.05462 0.70875 0.0
C669 C 0.02752 0.99094 0.70542 0.0
C670 C 0.01679 0.06677 0.71929 0.0
C671 C 0.98728 0.04181 0.72221 0.0
H672 H 0.58898 0.51684 0.36349 0.0
H673 H 0.51077 0.60505 0.3515 0.0
H674 H 0.46134 0.55954 0.34528 0.0
H675 H 0.43862 0.49554 0.34947 0.0
H676 H 0.516 0.40695 0.36225 0.0
H677 H 0.56725 0.45152 0.36139 0.0
C678 C 0.5613 0.52606 0.35891 0.0
C679 C 0.55363 0.56443 0.35836 0.0
C680 C 0.53263 0.49962 0.35573 0.0
C681 C 0.51753 0.57578 0.35233 0.0
C682 C 0.48911 0.54974 0.34883 0.0
C683 C 0.46676 0.48581 0.3515 0.0
C684 C 0.4733 0.44794 0.35625 0.0
C685 C 0.49607 0.51169 0.35145 0.0
C686 C 0.51004 0.43591 0.35864 0.0
C687 C 0.53942 0.46147 0.35833 0.0
H688 H 0.09583 0.51293 0.87665 0.0
H689 H 0.02434 0.42317 0.8486 0.0
H690 H 0.97518 0.46736 0.84031 0.0
H691 H 0.94977 0.53017 0.84672 0.0
H692 H 0.01977 0.62024 0.8763 0.0
H693 H 0.07216 0.57754 0.87772 0.0
C694 C 0.06977 0.50315 0.86815 0.0
C695 C 0.06376 0.46467 0.86356 0.0
C696 C 0.04111 0.52879 0.8639 0.0
C697 C 0.02972 0.45253 0.85259 0.0
C698 C 1.00147 0.47781 0.84787 0.0
C699 C 0.97664 0.5407 0.85294 0.0
C700 C 0.98063 0.57837 0.86165 0.0
C701 C 1.00643 0.51583 0.85433 0.0
C702 C 0.01579 0.59142 0.86951 0.0
C703 C 0.04577 0.56691 0.87052 0.0
H704 H 0.9134 1.01115 0.37545 0.0
H705 H 0.98865 0.92845 0.33796 0.0
H706 H 0.03679 0.97558 0.33243 0.0
H707 H 0.06024 0.03792 0.34454 0.0
H708 H 0.98633 0.12068 0.38356 0.0
H709 H 0.93498 0.07622 0.38169 0.0
C710 C 0.94002 1.00365 0.3654 0.0
C711 C 0.94748 0.96618 0.35744 0.0
C712 C 0.96806 0.03087 0.36286 0.0
C713 C 0.98221 0.95696 0.34453 0.0
C714 C 0.00987 0.9839 0.34143 0.0
C715 C 0.03275 0.04652 0.35213 0.0
C716 C 0.02731 0.08248 0.36452 0.0
C717 C 1.00354 0.0206 0.35152 0.0
C718 C 0.99139 0.09318 0.37399 0.0
C719 C 0.96201 0.06765 0.3731 0.0
H720 H 0.50577 0.93358 0.87231 0.0
H721 H 0.5998 1.00413 0.85303 0.0
H722 H 0.55868 0.05626 0.84572 0.0
H723 H 0.49676 0.08391 0.85037 0.0
H724 H 0.4024 0.01428 0.87047 0.0
H725 H 0.44269 0.95991 0.87131 0.0
C726 C 0.51723 0.96016 0.86598 0.0
C727 C 0.55595 0.96487 0.86358 0.0
C728 C 0.49331 0.99044 0.86211 0.0
C729 C 0.5702 0.99961 0.8553 0.0
C730 C 0.54667 0.02959 0.85115 0.0
C731 C 0.48483 0.05674 0.85437 0.0
C732 C 0.44655 0.0534 0.86061 0.0
C733 C 0.50827 0.02564 0.85534 0.0
C734 C 0.43172 0.01783 0.86564 0.0
C735 C 0.45482 0.98667 0.86631 0.0
loop_
_geom_bond_atom_site_label_1
_geom_bond_atom_site_label_2
_geom_bond_distance
_geom_bond_site_symmetry_2
_ccdc_geom_bond_type
O0 Cd1 2.223 . S
O0 C8 1.315 . S
Cd1 O0 2.223 . S
Cd1 O4 2.297 . S
Cd1 O5 2.439 . S
Cd1 O11 2.240 . S
Cd2 O3 2.240 . S
Cd2 O10 2.223 . S
Cd2 O12 2.297 . S
Cd2 O13 2.439 . S
O3 Cd2 2.240 . S
O3 C8 1.279 . S
O4 Cd1 2.297 . S
O4 C6 1.247 . S
O5 Cd1 2.439 . S
O5 C6 1.208 . S
C6 O4 1.247 . S
C6 O5 1.208 . S
C7 O12 1.247 . S
C7 O13 1.208 . S
C8 O0 1.315 . S
C8 O3 1.279 . S
C9 O10 1.315 . S
C9 O11 1.279 . S
O10 Cd2 2.223 . S
O10 C9 1.315 . S
O11 Cd1 2.240 . S
O11 C9 1.279 . S
O12 Cd2 2.297 . S
O12 C7 1.247 . S
O13 Cd2 2.439 . S
O13 C7 1.208 . S
O14 Cd15 2.223 . S
O14 C22 1.315 . S
Cd15 O14 2.223 . S
Cd15 O18 2.297 . S
Cd15 O19 2.439 . S
Cd15 O25 2.240 . S
Cd16 O17 2.240 . S
Cd16 O24 2.223 . S
Cd16 O26 2.297 . S
Cd16 O27 2.439 . S
O17 Cd16 2.240 . S
O17 C22 1.279 . S
O18 Cd15 2.297 . S
O18 C20 1.247 . S
O19 Cd15 2.439 . S
O19 C20 1.208 . S
C20 O18 1.247 . S
C20 O19 1.208 . S
C21 O26 1.247 . S
C21 O27 1.208 . S
C22 O14 1.315 . S
C22 O17 1.279 . S
C23 O24 1.315 . S
C23 O25 1.279 . S
O24 Cd16 2.223 . S
O24 C23 1.315 . S
O25 Cd15 2.240 . S
O25 C23 1.279 . S
O26 Cd16 2.297 . S
O26 C21 1.247 . S
O27 Cd16 2.439 . S
O27 C21 1.208 . S
O28 Cd29 2.223 . S
O28 C36 1.315 . S
Cd29 O28 2.223 . S
Cd29 O32 2.297 . S
Cd29 O33 2.439 . S
Cd29 O39 2.240 . S
Cd30 O31 2.240 . S
Cd30 O38 2.223 . S
Cd30 O40 2.297 . S
Cd30 O41 2.439 . S
O31 Cd30 2.240 . S
O31 C36 1.279 . S
O32 Cd29 2.297 . S
O32 C34 1.247 . S
O33 Cd29 2.439 . S
O33 C34 1.208 . S
C34 O32 1.247 . S
C34 O33 1.208 . S
C35 O40 1.247 . S
C35 O41 1.208 . S
C36 O28 1.315 . S
C36 O31 1.279 . S
C37 O38 1.315 . S
C37 O39 1.279 . S
O38 Cd30 2.223 . S
O38 C37 1.315 . S
O39 Cd29 2.240 . S
O39 C37 1.279 . S
O40 Cd30 2.297 . S
O40 C35 1.247 . S
O41 Cd30 2.439 . S
O41 C35 1.208 . S
O42 Cd43 2.223 . S
O42 C50 1.315 . S
Cd43 O42 2.223 . S
Cd43 O46 2.297 . S
Cd43 O47 2.439 . S
Cd43 O53 2.240 . S
Cd44 O45 2.240 . S
Cd44 O52 2.223 . S
Cd44 O54 2.297 . S
Cd44 O55 2.439 . S
O45 Cd44 2.240 . S
O45 C50 1.279 . S
O46 Cd43 2.297 . S
O46 C48 1.247 . S
O47 Cd43 2.439 . S
O47 C48 1.208 . S
C48 O46 1.247 . S
C48 O47 1.208 . S
C49 O54 1.247 . S
C49 O55 1.208 . S
C50 O42 1.315 . S
C50 O45 1.279 . S
C51 O52 1.315 . S
C51 O53 1.279 . S
O52 Cd44 2.223 . S
O52 C51 1.315 . S
O53 Cd43 2.240 . S
O53 C51 1.279 . S
O54 Cd44 2.297 . S
O54 C49 1.247 . S
O55 Cd44 2.439 . S
O55 C49 1.208 . S
O56 Cd57 2.223 . S
O56 C64 1.315 . S
Cd57 O56 2.223 . S
Cd57 O60 2.297 . S
Cd57 O61 2.439 . S
Cd57 O67 2.240 . S
Cd58 O59 2.240 . S
Cd58 O66 2.223 . S
Cd58 O68 2.297 . S
Cd58 O69 2.439 . S
O59 Cd58 2.240 . S
O59 C64 1.279 . S
O60 Cd57 2.297 . S
O60 C62 1.247 . S
O61 Cd57 2.439 . S
O61 C62 1.208 . S
C62 O60 1.247 . S
C62 O61 1.208 . S
C63 O68 1.247 . S
C63 O69 1.208 . S
C64 O56 1.315 . S
C64 O59 1.279 . S
C65 O66 1.315 . S
C65 O67 1.279 . S
O66 Cd58 2.223 . S
O66 C65 1.315 . S
O67 Cd57 2.240 . S
O67 C65 1.279 . S
O68 Cd58 2.297 . S
O68 C63 1.247 . S
O69 Cd58 2.439 . S
O69 C63 1.208 . S
O70 Cd71 2.223 . S
O70 C78 1.315 . S
Cd71 O70 2.223 . S
Cd71 O74 2.297 . S
Cd71 O75 2.439 . S
Cd71 O81 2.240 . S
Cd72 O73 2.240 . S
Cd72 O80 2.223 . S
Cd72 O82 2.297 . S
Cd72 O83 2.439 . S
O73 Cd72 2.240 . S
O73 C78 1.279 . S
O74 Cd71 2.297 . S
O74 C76 1.247 . S
O75 Cd71 2.439 . S
O75 C76 1.208 . S
C76 O74 1.247 . S
C76 O75 1.208 . S
C77 O82 1.247 . S
C77 O83 1.208 . S
C78 O70 1.315 . S
C78 O73 1.279 . S
C79 O80 1.315 . S
C79 O81 1.279 . S
O80 Cd72 2.223 . S
O80 C79 1.315 . S
O81 Cd71 2.240 . S
O81 C79 1.279 . S
O82 Cd72 2.297 . S
O82 C77 1.247 . S
O83 Cd72 2.439 . S
O83 C77 1.208 . S
O84 Cd85 2.223 . S
O84 C92 1.315 . S
Cd85 O84 2.223 . S
Cd85 O88 2.297 . S
Cd85 O89 2.439 . S
Cd85 O95 2.240 . S
Cd86 O87 2.240 . S
Cd86 O94 2.223 . S
Cd86 O96 2.297 . S
Cd86 O97 2.439 . S
O87 Cd86 2.240 . S
O87 C92 1.279 . S
O88 Cd85 2.297 . S
O88 C90 1.247 . S
O89 Cd85 2.439 . S
O89 C90 1.208 . S
C90 O88 1.247 . S
C90 O89 1.208 . S
C91 O96 1.247 . S
C91 O97 1.208 . S
C92 O84 1.315 . S
C92 O87 1.279 . S
C93 O94 1.315 . S
C93 O95 1.279 . S
O94 Cd86 2.223 . S
O94 C93 1.315 . S
O95 Cd85 2.240 . S
O95 C93 1.279 . S
O96 Cd86 2.297 . S
O96 C91 1.247 . S
O97 Cd86 2.439 . S
O97 C91 1.208 . S
O98 Cd99 2.223 . S
O98 C106 1.315 . S
Cd99 O98 2.223 . S
Cd99 O102 2.297 . S
Cd99 O103 2.439 . S
Cd99 O109 2.240 . S
Cd100 O101 2.240 . S
Cd100 O108 2.223 . S
Cd100 O110 2.297 . S
Cd100 O111 2.439 . S
O101 Cd100 2.240 . S
O101 C106 1.279 . S
O102 Cd99 2.297 . S
O102 C104 1.247 . S
O103 Cd99 2.439 . S
O103 C104 1.208 . S
C104 O102 1.247 . S
C104 O103 1.208 . S
C105 O110 1.247 . S
C105 O111 1.208 . S
C106 O98 1.315 . S
C106 O101 1.279 . S
C107 O108 1.315 . S
C107 O109 1.279 . S
O108 Cd100 2.223 . S
O108 C107 1.315 . S
O109 Cd99 2.240 . S
O109 C107 1.279 . S
O110 Cd100 2.297 . S
O110 C105 1.247 . S
O111 Cd100 2.439 . S
O111 C105 1.208 . S
O112 Cd113 2.223 . S
O112 C120 1.315 . S
Cd113 O112 2.223 . S
Cd113 O116 2.297 . S
Cd113 O117 2.439 . S
Cd113 O123 2.240 . S
Cd114 O115 2.240 . S
Cd114 O122 2.223 . S
Cd114 O124 2.297 . S
Cd114 O125 2.439 . S
O115 Cd114 2.240 . S
O115 C120 1.279 . S
O116 Cd113 2.297 . S
O116 C118 1.247 . S
O117 Cd113 2.439 . S
O117 C118 1.208 . S
C118 O116 1.247 . S
C118 O117 1.208 . S
C119 O124 1.247 . S
C119 O125 1.208 . S
C120 O112 1.315 . S
C120 O115 1.279 . S
C121 O122 1.315 . S
C121 O123 1.279 . S
O122 Cd114 2.223 . S
O122 C121 1.315 . S
O123 Cd113 2.240 . S
O123 C121 1.279 . S
O124 Cd114 2.297 . S
O124 C119 1.247 . S
O125 Cd114 2.439 . S
O125 C119 1.208 . S
O126 Cd127 2.223 . S
O126 C134 1.315 . S
Cd127 O126 2.223 . S
Cd127 O130 2.297 . S
Cd127 O131 2.439 . S
Cd127 O137 2.240 . S
Cd128 O129 2.240 . S
Cd128 O136 2.223 . S
Cd128 O138 2.297 . S
Cd128 O139 2.439 . S
O129 Cd128 2.240 . S
O129 C134 1.279 . S
O130 Cd127 2.297 . S
O130 C132 1.247 . S
O131 Cd127 2.439 . S
O131 C132 1.208 . S
C132 O130 1.247 . S
C132 O131 1.208 . S
C133 O138 1.247 . S
C133 O139 1.208 . S
C134 O126 1.315 . S
C134 O129 1.279 . S
C135 O136 1.315 . S
C135 O137 1.279 . S
O136 Cd128 2.223 . S
O136 C135 1.315 . S
O137 Cd127 2.240 . S
O137 C135 1.279 . S
O138 Cd128 2.297 . S
O138 C133 1.247 . S
O139 Cd128 2.439 . S
O139 C133 1.208 . S
O140 Cd141 2.223 . S
O140 C148 1.315 . S
Cd141 O140 2.223 . S
Cd141 O144 2.297 . S
Cd141 O145 2.439 . S
Cd141 O151 2.240 . S
Cd142 O143 2.240 . S
Cd142 O150 2.223 . S
Cd142 O152 2.297 . S
Cd142 O153 2.439 . S
O143 Cd142 2.240 . S
O143 C148 1.279 . S
O144 Cd141 2.297 . S
O144 C146 1.247 . S
O145 Cd141 2.439 . S
O145 C146 1.208 . S
C146 O144 1.247 . S
C146 O145 1.208 . S
C147 O152 1.247 . S
C147 O153 1.208 . S
C148 O140 1.315 . S
C148 O143 1.279 . S
C149 O150 1.315 . S
C149 O151 1.279 . S
O150 Cd142 2.223 . S
O150 C149 1.315 . S
O151 Cd141 2.240 . S
O151 C149 1.279 . S
O152 Cd142 2.297 . S
O152 C147 1.247 . S
O153 Cd142 2.439 . S
O153 C147 1.208 . S
O154 Cd155 2.223 . S
O154 C162 1.315 . S
Cd155 O154 2.223 . S
Cd155 O158 2.297 . S
Cd155 O159 2.439 . S
Cd155 O165 2.240 . S
Cd156 O157 2.240 . S
Cd156 O164 2.223 . S
Cd156 O166 2.297 . S
Cd156 O167 2.439 . S
O157 Cd156 2.240 . S
O157 C162 1.279 . S
O158 Cd155 2.297 . S
O158 C160 1.247 . S
O159 Cd155 2.439 . S
O159 C160 1.208 . S
C160 O158 1.247 . S
C160 O159 1.208 . S
C161 O166 1.247 . S
C161 O167 1.208 . S
C162 O154 1.315 . S
C162 O157 1.279 . S
C163 O164 1.315 . S
C163 O165 1.279 . S
O164 Cd156 2.223 . S
O164 C163 1.315 . S
O165 Cd155 2.240 . S
O165 C163 1.279 . S
O166 Cd156 2.297 . S
O166 C161 1.247 . S
O167 Cd156 2.439 . S
O167 C161 1.208 . S
O168 Cd169 2.223 . S
O168 C176 1.315 . S
Cd169 O168 2.223 . S
Cd169 O172 2.297 . S
Cd169 O173 2.439 . S
Cd169 O179 2.240 . S
Cd170 O171 2.240 . S
Cd170 O178 2.223 . S
Cd170 O180 2.297 . S
Cd170 O181 2.439 . S
O171 Cd170 2.240 . S
O171 C176 1.279 . S
O172 Cd169 2.297 . S
O172 C174 1.247 . S
O173 Cd169 2.439 . S
O173 C174 1.208 . S
C174 O172 1.247 . S
C174 O173 1.208 . S
C175 O180 1.247 . S
C175 O181 1.208 . S
C176 O168 1.315 . S
C176 O171 1.279 . S
C177 O178 1.315 . S
C177 O179 1.279 . S
O178 Cd170 2.223 . S
O178 C177 1.315 . S
O179 Cd169 2.240 . S
O179 C177 1.279 . S
O180 Cd170 2.297 . S
O180 C175 1.247 . S
O181 Cd170 2.439 . S
O181 C175 1.208 . S
O182 Cd183 2.223 . S
O182 C190 1.315 . S
Cd183 O182 2.223 . S
Cd183 O186 2.297 . S
Cd183 O187 2.439 . S
Cd183 O193 2.240 . S
Cd184 O185 2.240 . S
Cd184 O192 2.223 . S
Cd184 O194 2.297 . S
Cd184 O195 2.439 . S
O185 Cd184 2.240 . S
O185 C190 1.279 . S
O186 Cd183 2.297 . S
O186 C188 1.247 . S
O187 Cd183 2.439 . S
O187 C188 1.208 . S
C188 O186 1.247 . S
C188 O187 1.208 . S
C189 O194 1.247 . S
C189 O195 1.208 . S
C190 O182 1.315 . S
C190 O185 1.279 . S
C191 O192 1.315 . S
C191 O193 1.279 . S
O192 Cd184 2.223 . S
O192 C191 1.315 . S
O193 Cd183 2.240 . S
O193 C191 1.279 . S
O194 Cd184 2.297 . S
O194 C189 1.247 . S
O195 Cd184 2.439 . S
O195 C189 1.208 . S
O196 Cd197 2.223 . S
O196 C204 1.315 . S
Cd197 O196 2.223 . S
Cd197 O200 2.297 . S
Cd197 O201 2.439 . S
Cd197 O207 2.240 . S
Cd198 O199 2.240 . S
Cd198 O206 2.223 . S
Cd198 O208 2.297 . S
Cd198 O209 2.439 . S
O199 Cd198 2.240 . S
O199 C204 1.279 . S
O200 Cd197 2.297 . S
O200 C202 1.247 . S
O201 Cd197 2.439 . S
O201 C202 1.208 . S
C202 O200 1.247 . S
C202 O201 1.208 . S
C203 O208 1.247 . S
C203 O209 1.208 . S
C204 O196 1.315 . S
C204 O199 1.279 . S
C205 O206 1.315 . S
C205 O207 1.279 . S
O206 Cd198 2.223 . S
O206 C205 1.315 . S
O207 Cd197 2.240 . S
O207 C205 1.279 . S
O208 Cd198 2.297 . S
O208 C203 1.247 . S
O209 Cd198 2.439 . S
O209 C203 1.208 . S
O210 Cd211 2.223 . S
O210 C218 1.315 . S
Cd211 O210 2.223 . S
Cd211 O214 2.297 . S
Cd211 O215 2.439 . S
Cd211 O221 2.240 . S
Cd212 O213 2.240 . S
Cd212 O220 2.223 . S
Cd212 O222 2.297 . S
Cd212 O223 2.439 . S
O213 Cd212 2.240 . S
O213 C218 1.279 . S
O214 Cd211 2.297 . S
O214 C216 1.247 . S
O215 Cd211 2.439 . S
O215 C216 1.208 . S
C216 O214 1.247 . S
C216 O215 1.208 . S
C217 O222 1.247 . S
C217 O223 1.208 . S
C218 O210 1.315 . S
C218 O213 1.279 . S
C219 O220 1.315 . S
C219 O221 1.279 . S
O220 Cd212 2.223 . S
O220 C219 1.315 . S
O221 Cd211 2.240 . S
O221 C219 1.279 . S
O222 Cd212 2.297 . S
O222 C217 1.247 . S
O223 Cd212 2.439 . S
O223 C217 1.208 . S
H224 C230 0.930 . S
H225 C233 0.930 . S
H226 C234 0.930 . S
H227 C235 0.930 . S
H228 C238 0.930 . S
H229 C239 0.930 . S
C230 H224 0.930 . S
C230 C231 1.355 . S
C230 C232 1.415 . S
C231 C230 1.355 . S
C231 C233 1.419 . S
C232 C230 1.415 . S
C232 C237 1.425 . S
C232 C239 1.409 1_556 S
C233 H225 0.930 . S
C233 C231 1.419 . S
C233 C234 1.362 . S
C234 H226 0.930 . S
C234 C233 1.362 . S
C234 C237 1.409 . S
C235 H227 0.930 . S
C235 C236 1.355 . S
C235 C237 1.415 1_554 S
C236 C235 1.355 . S
C236 C238 1.419 . S
C237 C232 1.425 . S
C237 C234 1.409 . S
C237 C235 1.415 1_556 S
C238 H228 0.930 . S
C238 C236 1.419 . S
C238 C239 1.362 . S
C239 H229 0.930 . S
C239 C232 1.409 1_554 S
C239 C238 1.362 . S
H240 C246 0.930 . S
H241 C249 0.930 . S
H242 C250 0.930 . S
H243 C251 0.930 . S
H244 C254 0.930 . S
H245 C255 0.930 . S
C246 H240 0.930 . S
C246 C247 1.355 . S
C246 C248 1.415 . S
C247 C246 1.355 . S
C247 C249 1.419 . S
C248 C246 1.415 . S
C248 C253 1.425 . S
C248 C255 1.409 . S
C249 H241 0.930 . S
C249 C247 1.419 . S
C249 C250 1.362 . S
C250 H242 0.930 . S
C250 C249 1.362 . S
C250 C253 1.409 . S
C251 H243 0.930 . S
C251 C252 1.355 . S
C251 C253 1.415 . S
C252 C251 1.355 . S
C252 C254 1.419 . S
C253 C248 1.425 . S
C253 C250 1.409 . S
C253 C251 1.415 . S
C254 H244 0.930 . S
C254 C252 1.419 . S
C254 C255 1.362 . S
C255 H245 0.930 . S
C255 C248 1.409 . S
C255 C254 1.362 . S
H256 C262 0.930 . S
H257 C265 0.930 . S
H258 C266 0.930 . S
H259 C267 0.930 . S
H260 C270 0.930 . S
H261 C271 0.930 . S
C262 H256 0.930 . S
C262 C263 1.355 . S
C262 C264 1.408 1_556 S
C263 C262 1.355 . S
C263 C265 1.419 . S
C264 C262 1.408 1_554 S
C264 C269 1.428 . S
C264 C271 1.413 . S
C265 H257 0.930 . S
C265 C263 1.419 . S
C265 C266 1.362 . S
C266 H258 0.930 . S
C266 C265 1.362 . S
C266 C269 1.409 1_556 S
C267 H259 0.930 . S
C267 C268 1.355 . S
C267 C269 1.415 . S
C268 C267 1.355 . S
C268 C270 1.419 . S
C269 C264 1.428 . S
C269 C266 1.409 1_554 S
C269 C267 1.415 . S
C270 H260 0.930 . S
C270 C268 1.419 . S
C270 C271 1.362 . S
C271 H261 0.930 . S
C271 C264 1.413 . S
C271 C270 1.362 . S
H272 C278 0.930 . S
H273 C281 0.930 . S
H274 C282 0.930 . S
H275 C283 0.930 . S
H276 C286 0.930 . S
H277 C287 0.930 . S
C278 H272 0.930 . S
C278 C279 1.355 . S
C278 C280 1.415 . S
C279 C278 1.355 . S
C279 C281 1.419 . S
C280 C278 1.415 . S
C280 C285 1.425 . S
C280 C287 1.409 . S
C281 H273 0.930 . S
C281 C279 1.419 . S
C281 C282 1.362 . S
C282 H274 0.930 . S
C282 C281 1.362 . S
C282 C285 1.409 . S
C283 H275 0.930 . S
C283 C284 1.355 . S
C283 C285 1.415 . S
C284 C283 1.355 . S
C284 C286 1.419 . S
C285 C280 1.425 . S
C285 C282 1.409 . S
C285 C283 1.415 . S
C286 H276 0.930 . S
C286 C284 1.419 . S
C286 C287 1.362 . S
C287 H277 0.930 . S
C287 C280 1.409 . S
C287 C286 1.362 . S
H288 C294 0.930 . S
H289 C297 0.930 . S
H290 C298 0.930 . S
H291 C299 0.930 . S
H292 C302 0.930 . S
H293 C303 0.930 . S
C294 H288 0.930 . S
C294 C295 1.355 . S
C294 C296 1.415 1_554 S
C295 C294 1.355 . S
C295 C297 1.419 . S
C296 C294 1.415 1_556 S
C296 C301 1.425 1_556 S
C296 C303 1.409 . S
C297 H289 0.930 . S
C297 C295 1.419 . S
C297 C298 1.362 . S
C298 H290 0.930 . S
C298 C297 1.362 . S
C298 C301 1.409 . S
C299 H291 0.930 . S
C299 C300 1.355 . S
C299 C301 1.415 1_556 S
C300 C299 1.355 . S
C300 C302 1.419 . S
C301 C296 1.425 1_554 S
C301 C298 1.409 . S
C301 C299 1.415 1_554 S
C302 H292 0.930 . S
C302 C300 1.419 . S
C302 C303 1.362 . S
C303 H293 0.930 . S
C303 C296 1.409 . S
C303 C302 1.362 . S
H304 C310 0.930 . S
H305 C313 0.930 . S
H306 C314 0.930 . S
H307 C315 0.930 . S
H308 C318 0.930 . S
H309 C319 0.930 . S
C310 H304 0.930 . S
C310 C311 1.355 . S
C310 C312 1.415 . S
C311 C310 1.355 . S
C311 C313 1.419 . S
C312 C310 1.415 . S
C312 C317 1.425 . S
C312 C319 1.409 . S
C313 H305 0.930 . S
C313 C311 1.419 . S
C313 C314 1.362 . S
C314 H306 0.930 . S
C314 C313 1.362 . S
C314 C317 1.409 . S
C315 H307 0.930 . S
C315 C316 1.355 . S
C315 C317 1.415 . S
C316 C315 1.355 . S
C316 C318 1.419 . S
C317 C312 1.425 . S
C317 C314 1.409 . S
C317 C315 1.415 . S
C318 H308 0.930 . S
C318 C316 1.419 . S
C318 C319 1.362 . S
C319 H309 0.930 . S
C319 C312 1.409 . S
C319 C318 1.362 . S
H320 C326 0.930 . S
H321 C329 0.930 . S
H322 C330 0.930 1_554 S
H323 C331 0.930 . S
H324 C334 0.930 . S
H325 C335 0.930 . S
C326 H320 0.930 . S
C326 C327 1.355 . S
C326 C328 1.415 . S
C327 C326 1.355 . S
C327 C329 1.419 . S
C328 C326 1.415 . S
C328 C333 1.425 1_556 S
C328 C335 1.409 . S
C329 H321 0.930 . S
C329 C327 1.419 . S
C329 C330 1.362 . S
C330 H322 0.930 1_556 S
C330 C329 1.362 . S
C330 C333 1.409 1_556 S
C331 H323 0.930 . S
C331 C332 1.355 . S
C331 C333 1.415 . S
C332 C331 1.355 . S
C332 C334 1.419 . S
C333 C328 1.425 1_554 S
C333 C330 1.409 1_554 S
C333 C331 1.415 . S
C334 H324 0.930 . S
C334 C332 1.419 . S
C334 C335 1.362 1_554 S
C335 H325 0.930 . S
C335 C328 1.409 . S
C335 C334 1.362 1_556 S
H336 C342 0.930 . S
H337 C345 0.930 . S
H338 C346 0.930 . S
H339 C347 0.930 . S
H340 C350 0.930 . S
H341 C351 0.930 . S
C342 H336 0.930 . S
C342 C343 1.355 . S
C342 C344 1.415 . S
C343 C342 1.355 . S
C343 C345 1.419 . S
C344 C342 1.415 . S
C344 C349 1.425 . S
C344 C351 1.409 . S
C345 H337 0.930 . S
C345 C343 1.419 . S
C345 C346 1.362 . S
C346 H338 0.930 . S
C346 C345 1.362 . S
C346 C349 1.409 . S
C347 H339 0.930 . S
C347 C348 1.355 . S
C347 C349 1.415 . S
C348 C347 1.355 . S
C348 C350 1.419 . S
C349 C344 1.425 . S
C349 C346 1.409 . S
C349 C347 1.415 . S
C350 H340 0.930 . S
C350 C348 1.419 . S
C350 C351 1.362 . S
C351 H341 0.930 . S
C351 C344 1.409 . S
C351 C350 1.362 . S
H352 C358 0.930 . S
H353 C361 0.930 . S
H354 C362 0.930 . S
H355 C363 0.930 . S
H356 C366 0.930 . S
H357 C367 0.930 . S
C358 H352 0.930 . S
C358 C359 1.355 . S
C358 C360 1.415 . S
C359 C358 1.355 . S
C359 C361 1.419 . S
C360 C358 1.415 . S
C360 C365 1.425 . S
C360 C367 1.409 . S
C361 H353 0.930 . S
C361 C359 1.419 . S
C361 C362 1.362 . S
C362 H354 0.930 . S
C362 C361 1.362 . S
C362 C365 1.409 . S
C363 H355 0.930 . S
C363 C364 1.355 . S
C363 C365 1.415 . S
C364 C363 1.355 . S
C364 C366 1.419 . S
C365 C360 1.425 . S
C365 C362 1.409 . S
C365 C363 1.415 . S
C366 H356 0.930 . S
C366 C364 1.419 . S
C366 C367 1.362 . S
C367 H357 0.930 . S
C367 C360 1.409 . S
C367 C366 1.362 . S
H368 C374 0.930 . S
H369 C377 0.930 . S
H370 C378 0.930 . S
H371 C379 0.930 . S
H372 C382 0.930 . S
H373 C383 0.930 . S
C374 H368 0.930 . S
C374 C375 1.355 . S
C374 C376 1.415 . S
C375 C374 1.355 . S
C375 C377 1.419 . S
C376 C374 1.415 . S
C376 C381 1.425 . S
C376 C383 1.409 . S
C377 H369 0.930 . S
C377 C375 1.419 . S
C377 C378 1.362 . S
C378 H370 0.930 . S
C378 C377 1.362 . S
C378 C381 1.409 . S
C379 H371 0.930 . S
C379 C380 1.355 . S
C379 C381 1.415 . S
C380 C379 1.355 . S
C380 C382 1.419 . S
C381 C376 1.425 . S
C381 C378 1.409 . S
C381 C379 1.415 . S
C382 H372 0.930 . S
C382 C380 1.419 . S
C382 C383 1.362 . S
C383 H373 0.930 . S
C383 C376 1.409 . S
C383 C382 1.362 . S
H384 C390 0.930 . S
H385 C393 0.930 . S
H386 C394 0.930 . S
H387 C395 0.930 . S
H388 C398 0.930 . S
H389 C399 0.930 . S
C390 H384 0.930 . S
C390 C391 1.355 . S
C390 C392 1.415 . S
C391 C390 1.355 . S
C391 C393 1.419 . S
C392 C390 1.415 . S
C392 C397 1.425 . S
C392 C399 1.409 . S
C393 H385 0.930 . S
C393 C391 1.419 . S
C393 C394 1.362 . S
C394 H386 0.930 . S
C394 C393 1.362 . S
C394 C397 1.409 . S
C395 H387 0.930 . S
C395 C396 1.355 . S
C395 C397 1.415 . S
C396 C395 1.355 . S
C396 C398 1.419 . S
C397 C392 1.425 . S
C397 C394 1.409 . S
C397 C395 1.415 . S
C398 H388 0.930 . S
C398 C396 1.419 . S
C398 C399 1.362 . S
C399 H389 0.930 . S
C399 C392 1.409 . S
C399 C398 1.362 . S
H400 C406 0.930 . S
H401 C409 0.930 . S
H402 C410 0.930 . S
H403 C411 0.930 . S
H404 C414 0.930 . S
H405 C415 0.930 . S
C406 H400 0.930 . S
C406 C407 1.355 . S
C406 C408 1.415 . S
C407 C406 1.355 . S
C407 C409 1.419 . S
C408 C406 1.415 . S
C408 C413 1.425 . S
C408 C415 1.409 . S
C409 H401 0.930 . S
C409 C407 1.419 . S
C409 C410 1.362 . S
C410 H402 0.930 . S
C410 C409 1.362 . S
C410 C413 1.409 . S
C411 H403 0.930 . S
C411 C412 1.355 . S
C411 C413 1.415 . S
C412 C411 1.355 . S
C412 C414 1.419 . S
C413 C408 1.425 . S
C413 C410 1.409 . S
C413 C411 1.415 . S
C414 H404 0.930 . S
C414 C412 1.419 . S
C414 C415 1.362 . S
C415 H405 0.930 . S
C415 C408 1.409 . S
C415 C414 1.362 . S
H416 C422 0.930 . S
H417 C425 0.930 . S
H418 C426 0.930 . S
H419 C427 0.930 . S
H420 C430 0.930 . S
H421 C431 0.930 . S
C422 H416 0.930 . S
C422 C423 1.355 . S
C422 C424 1.415 . S
C423 C422 1.355 . S
C423 C425 1.419 . S
C424 C422 1.415 . S
C424 C429 1.425 . S
C424 C431 1.409 . S
C425 H417 0.930 . S
C425 C423 1.419 . S
C425 C426 1.362 . S
C426 H418 0.930 . S
C426 C425 1.362 . S
C426 C429 1.409 . S
C427 H419 0.930 . S
C427 C428 1.355 . S
C427 C429 1.415 . S
C428 C427 1.355 . S
C428 C430 1.419 . S
C429 C424 1.425 . S
C429 C426 1.409 . S
C429 C427 1.415 . S
C430 H420 0.930 . S
C430 C428 1.419 . S
C430 C431 1.362 . S
C431 H421 0.930 . S
C431 C424 1.409 . S
C431 C430 1.362 . S
H432 C438 0.930 . S
H433 C441 0.930 . S
H434 C442 0.930 . S
H435 C443 0.930 . S
H436 C446 0.930 . S
H437 C447 0.930 . S
C438 H432 0.930 . S
C438 C439 1.355 . S
C438 C440 1.415 . S
C439 C438 1.355 . S
C439 C441 1.419 . S
C440 C438 1.415 . S
C440 C445 1.425 . S
C440 C447 1.409 . S
C441 H433 0.930 . S
C441 C439 1.419 . S
C441 C442 1.362 . S
C442 H434 0.930 . S
C442 C441 1.362 . S
C442 C445 1.409 . S
C443 H435 0.930 . S
C443 C444 1.355 . S
C443 C445 1.415 . S
C444 C443 1.355 . S
C444 C446 1.419 . S
C445 C440 1.425 . S
C445 C442 1.409 . S
C445 C443 1.415 . S
C446 H436 0.930 . S
C446 C444 1.419 . S
C446 C447 1.362 . S
C447 H437 0.930 . S
C447 C440 1.409 . S
C447 C446 1.362 . S
H448 C454 0.930 . S
H449 C457 0.930 . S
H450 C458 0.930 . S
H451 C459 0.930 . S
H452 C462 0.930 . S
H453 C463 0.930 . S
C454 H448 0.930 . S
C454 C455 1.355 . S
C454 C456 1.415 . S
C455 C454 1.355 . S
C455 C457 1.419 . S
C456 C454 1.415 . S
C456 C461 1.425 . S
C456 C463 1.409 . S
C457 H449 0.930 . S
C457 C455 1.419 . S
C457 C458 1.362 . S
C458 H450 0.930 . S
C458 C457 1.362 . S
C458 C461 1.409 . S
C459 H451 0.930 . S
C459 C460 1.355 . S
C459 C461 1.415 . S
C460 C459 1.355 . S
C460 C462 1.419 . S
C461 C456 1.425 . S
C461 C458 1.409 . S
C461 C459 1.415 . S
C462 H452 0.930 . S
C462 C460 1.419 . S
C462 C463 1.362 . S
C463 H453 0.930 . S
C463 C456 1.409 . S
C463 C462 1.362 . S
H464 C470 0.930 . S
H465 C473 0.930 . S
H466 C474 0.930 . S
H467 C475 0.930 . S
H468 C478 0.930 . S
H469 C479 0.930 . S
C470 H464 0.930 . S
C470 C471 1.355 . S
C470 C472 1.415 . S
C471 C470 1.355 . S
C471 C473 1.419 . S
C472 C470 1.415 . S
C472 C477 1.425 . S
C472 C479 1.409 . S
C473 H465 0.930 . S
C473 C471 1.419 . S
C473 C474 1.362 . S
C474 H466 0.930 . S
C474 C473 1.362 . S
C474 C477 1.409 . S
C475 H467 0.930 . S
C475 C476 1.355 . S
C475 C477 1.415 . S
C476 C475 1.355 . S
C476 C478 1.419 . S
C477 C472 1.425 . S
C477 C474 1.409 . S
C477 C475 1.415 . S
C478 H468 0.930 . S
C478 C476 1.419 . S
C478 C479 1.362 . S
C479 H469 0.930 . S
C479 C472 1.409 . S
C479 C478 1.362 . S
H480 C486 0.930 . S
H481 C489 0.930 . S
H482 C490 0.930 . S
H483 C491 0.930 . S
H484 C494 0.930 . S
H485 C495 0.930 . S
C486 H480 0.930 . S
C486 C487 1.355 . S
C486 C488 1.415 . S
C487 C486 1.355 . S
C487 C489 1.419 . S
C488 C486 1.415 . S
C488 C493 1.425 . S
C488 C495 1.409 . S
C489 H481 0.930 . S
C489 C487 1.419 . S
C489 C490 1.362 . S
C490 H482 0.930 . S
C490 C489 1.362 . S
C490 C493 1.409 . S
C491 H483 0.930 . S
C491 C492 1.355 . S
C491 C493 1.415 . S
C492 C491 1.355 . S
C492 C494 1.419 . S
C493 C488 1.425 . S
C493 C490 1.409 . S
C493 C491 1.415 . S
C494 H484 0.930 . S
C494 C492 1.419 . S
C494 C495 1.362 . S
C495 H485 0.930 . S
C495 C488 1.409 . S
C495 C494 1.362 . S
H496 C502 0.930 . S
H497 C505 0.930 . S
H498 C506 0.930 . S
H499 C507 0.930 . S
H500 C510 0.930 . S
H501 C511 0.930 . S
C502 H496 0.930 . S
C502 C503 1.355 . S
C502 C504 1.415 . S
C503 C502 1.355 . S
C503 C505 1.419 . S
C504 C502 1.415 . S
C504 C509 1.425 . S
C504 C511 1.409 . S
C505 H497 0.930 . S
C505 C503 1.419 . S
C505 C506 1.362 . S
C506 H498 0.930 . S
C506 C505 1.362 . S
C506 C509 1.409 . S
C507 H499 0.930 . S
C507 C508 1.355 . S
C507 C509 1.415 . S
C508 C507 1.355 . S
C508 C510 1.419 . S
C509 C504 1.425 . S
C509 C506 1.409 . S
C509 C507 1.415 . S
C510 H500 0.930 . S
C510 C508 1.419 . S
C510 C511 1.362 . S
C511 H501 0.930 . S
C511 C504 1.409 . S
C511 C510 1.362 . S
H512 C518 0.930 . S
H513 C521 0.930 . S
H514 C522 0.930 . S
H515 C523 0.930 . S
H516 C526 0.930 . S
H517 C527 0.930 . S
C518 H512 0.930 . S
C518 C519 1.355 . S
C518 C520 1.415 . S
C519 C518 1.355 . S
C519 C521 1.419 . S
C520 C518 1.415 . S
C520 C525 1.425 . S
C520 C527 1.409 . S
C521 H513 0.930 . S
C521 C519 1.419 . S
C521 C522 1.362 . S
C522 H514 0.930 . S
C522 C521 1.362 . S
C522 C525 1.409 . S
C523 H515 0.930 . S
C523 C524 1.355 . S
C523 C525 1.415 . S
C524 C523 1.355 . S
C524 C526 1.419 . S
C525 C520 1.425 . S
C525 C522 1.409 . S
C525 C523 1.415 . S
C526 H516 0.930 . S
C526 C524 1.419 . S
C526 C527 1.362 . S
C527 H517 0.930 . S
C527 C520 1.409 . S
C527 C526 1.362 . S
H528 C534 0.930 . S
H529 C537 0.930 . S
H530 C538 0.930 . S
H531 C539 0.930 . S
H532 C542 0.930 . S
H533 C543 0.930 . S
C534 H528 0.930 . S
C534 C535 1.355 . S
C534 C536 1.415 . S
C535 C534 1.355 . S
C535 C537 1.419 . S
C536 C534 1.415 . S
C536 C541 1.425 . S
C536 C543 1.409 . S
C537 H529 0.930 . S
C537 C535 1.419 . S
C537 C538 1.362 . S
C538 H530 0.930 . S
C538 C537 1.362 . S
C538 C541 1.409 . S
C539 H531 0.930 . S
C539 C540 1.355 . S
C539 C541 1.415 . S
C540 C539 1.355 . S
C540 C542 1.419 . S
C541 C536 1.425 . S
C541 C538 1.409 . S
C541 C539 1.415 . S
C542 H532 0.930 . S
C542 C540 1.419 . S
C542 C543 1.362 . S
C543 H533 0.930 . S
C543 C536 1.409 . S
C543 C542 1.362 . S
H544 C550 0.930 . S
H545 C553 0.930 . S
H546 C554 0.930 . S
H547 C555 0.930 . S
H548 C558 0.930 . S
H549 C559 0.930 . S
C550 H544 0.930 . S
C550 C551 1.355 . S
C550 C552 1.415 . S
C551 C550 1.355 . S
C551 C553 1.419 . S
C552 C550 1.415 . S
C552 C557 1.425 . S
C552 C559 1.409 . S
C553 H545 0.930 . S
C553 C551 1.419 . S
C553 C554 1.362 . S
C554 H546 0.930 . S
C554 C553 1.362 . S
C554 C557 1.409 . S
C555 H547 0.930 . S
C555 C556 1.355 . S
C555 C557 1.415 . S
C556 C555 1.355 . S
C556 C558 1.419 . S
C557 C552 1.425 . S
C557 C554 1.409 . S
C557 C555 1.415 . S
C558 H548 0.930 . S
C558 C556 1.419 . S
C558 C559 1.362 . S
C559 H549 0.930 . S
C559 C552 1.409 . S
C559 C558 1.362 . S
H560 C566 0.930 . S
H561 C569 0.930 . S
H562 C570 0.930 . S
H563 C571 0.930 . S
H564 C574 0.930 . S
H565 C575 0.930 . S
C566 H560 0.930 . S
C566 C567 1.355 . S
C566 C568 1.415 . S
C567 C566 1.355 . S
C567 C569 1.419 . S
C568 C566 1.415 . S
C568 C573 1.425 . S
C568 C575 1.409 . S
C569 H561 0.930 . S
C569 C567 1.419 . S
C569 C570 1.362 . S
C570 H562 0.930 . S
C570 C569 1.362 . S
C570 C573 1.409 . S
C571 H563 0.930 . S
C571 C572 1.355 . S
C571 C573 1.415 . S
C572 C571 1.355 . S
C572 C574 1.419 . S
C573 C568 1.425 . S
C573 C570 1.409 . S
C573 C571 1.415 . S
C574 H564 0.930 . S
C574 C572 1.419 . S
C574 C575 1.362 . S
C575 H565 0.930 . S
C575 C568 1.409 . S
C575 C574 1.362 . S
H576 C582 0.930 . S
H577 C585 0.930 . S
H578 C586 0.930 . S
H579 C587 0.930 . S
H580 C590 0.930 . S
H581 C591 0.930 . S
C582 H576 0.930 . S
C582 C583 1.355 . S
C582 C584 1.415 . S
C583 C582 1.355 . S
C583 C585 1.419 . S
C584 C582 1.415 . S
C584 C589 1.425 . S
C584 C591 1.409 . S
C585 H577 0.930 . S
C585 C583 1.419 . S
C585 C586 1.362 . S
C586 H578 0.930 . S
C586 C585 1.362 . S
C586 C589 1.409 . S
C587 H579 0.930 . S
C587 C588 1.355 . S
C587 C589 1.415 . S
C588 C587 1.355 . S
C588 C590 1.419 . S
C589 C584 1.425 . S
C589 C586 1.409 . S
C589 C587 1.415 . S
C590 H580 0.930 . S
C590 C588 1.419 . S
C590 C591 1.362 . S
C591 H581 0.930 . S
C591 C584 1.409 . S
C591 C590 1.362 . S
H592 C598 0.930 . S
H593 C601 0.930 . S
H594 C602 0.930 . S
H595 C603 0.930 . S
H596 C606 0.930 . S
H597 C607 0.930 . S
C598 H592 0.930 . S
C598 C599 1.355 . S
C598 C600 1.415 . S
C599 C598 1.355 . S
C599 C601 1.419 . S
C600 C598 1.415 . S
C600 C605 1.425 . S
C600 C607 1.409 . S
C601 H593 0.930 . S
C601 C599 1.419 . S
C601 C602 1.362 . S
C602 H594 0.930 . S
C602 C601 1.362 . S
C602 C605 1.409 . S
C603 H595 0.930 . S
C603 C604 1.355 . S
C603 C605 1.415 . S
C604 C603 1.355 . S
C604 C606 1.419 . S
C605 C600 1.425 . S
C605 C602 1.409 . S
C605 C603 1.415 . S
C606 H596 0.930 . S
C606 C604 1.419 . S
C606 C607 1.362 . S
C607 H597 0.930 . S
C607 C600 1.409 . S
C607 C606 1.362 . S
H608 C614 0.930 . S
H609 C617 0.930 . S
H610 C618 0.930 . S
H611 C619 0.930 . S
H612 C622 0.930 . S
H613 C623 0.932 . S
C614 H608 0.930 . S
C614 C615 1.355 . S
C614 C616 1.415 1_545 S
C615 C614 1.355 . S
C615 C617 1.419 1_545 S
C616 C614 1.415 1_565 S
C616 C621 1.425 . S
C616 C623 1.409 . S
C617 H609 0.930 . S
C617 C615 1.419 1_565 S
C617 C618 1.362 . S
C618 H610 0.930 . S
C618 C617 1.362 . S
C618 C621 1.409 . S
C619 H611 0.930 . S
C619 C620 1.355 . S
C619 C621 1.415 . S
C620 C619 1.355 . S
C620 C622 1.419 . S
C621 C616 1.425 . S
C621 C618 1.409 . S
C621 C619 1.415 . S
C622 H612 0.930 . S
C622 C620 1.419 . S
C622 C623 1.362 . S
C623 H613 0.932 . S
C623 C616 1.409 . S
C623 C622 1.362 . S
H624 C630 0.930 . S
H625 C633 0.930 . S
H626 C634 0.930 . S
H627 C635 0.930 . S
H628 C638 0.930 . S
H629 C639 0.930 . S
C630 H624 0.930 . S
C630 C631 1.355 . S
C630 C632 1.415 . S
C631 C630 1.355 . S
C631 C633 1.419 . S
C632 C630 1.415 . S
C632 C637 1.425 . S
C632 C639 1.409 . S
C633 H625 0.930 . S
C633 C631 1.419 . S
C633 C634 1.362 . S
C634 H626 0.930 . S
C634 C633 1.362 . S
C634 C637 1.409 . S
C635 H627 0.930 . S
C635 C636 1.355 . S
C635 C637 1.415 . S
C636 C635 1.355 . S
C636 C638 1.419 . S
C637 C632 1.425 . S
C637 C634 1.409 . S
C637 C635 1.415 . S
C638 H628 0.930 . S
C638 C636 1.419 . S
C638 C639 1.362 . S
C639 H629 0.930 . S
C639 C632 1.409 . S
C639 C638 1.362 . S
H640 C646 0.930 . S
H641 C649 0.930 . S
H642 C650 0.930 . S
H643 C651 0.930 . S
H644 C654 0.930 . S
H645 C655 0.930 . S
C646 H640 0.930 . S
C646 C647 1.355 . S
C646 C648 1.415 . S
C647 C646 1.355 . S
C647 C649 1.419 . S
C648 C646 1.415 . S
C648 C653 1.425 . S
C648 C655 1.409 . S
C649 H641 0.930 . S
C649 C647 1.419 . S
C649 C650 1.362 . S
C650 H642 0.930 . S
C650 C649 1.362 . S
C650 C653 1.409 . S
C651 H643 0.930 . S
C651 C652 1.355 . S
C651 C653 1.415 1_655 S
C652 C651 1.355 . S
C652 C654 1.419 . S
C653 C648 1.425 . S
C653 C650 1.409 . S
C653 C651 1.415 1_455 S
C654 H644 0.930 . S
C654 C652 1.419 . S
C654 C655 1.362 1_655 S
C655 H645 0.930 . S
C655 C648 1.409 . S
C655 C654 1.362 1_455 S
H656 C662 0.930 . S
H657 C665 0.930 . S
H658 C666 0.930 . S
H659 C667 0.930 . S
H660 C670 0.930 . S
H661 C671 0.930 . S
C662 H656 0.930 . S
C662 C663 1.355 . S
C662 C664 1.415 1_655 S
C663 C662 1.355 . S
C663 C665 1.419 1_655 S
C664 C662 1.415 1_455 S
C664 C669 1.425 . S
C664 C671 1.409 1_565 S
C665 H657 0.930 . S
C665 C663 1.419 1_455 S
C665 C666 1.362 . S
C666 H658 0.930 . S
C666 C665 1.362 . S
C666 C669 1.409 . S
C667 H659 0.930 . S
C667 C668 1.355 1_565 S
C667 C669 1.415 . S
C668 C667 1.355 1_545 S
C668 C670 1.419 . S
C669 C664 1.425 . S
C669 C666 1.409 . S
C669 C667 1.415 . S
C670 H660 0.930 . S
C670 C668 1.419 . S
C670 C671 1.362 . S
C671 H661 0.930 . S
C671 C664 1.409 1_545 S
C671 C670 1.362 . S
H672 C678 0.930 . S
H673 C681 0.930 . S
H674 C682 0.930 . S
H675 C683 0.930 . S
H676 C686 0.930 . S
H677 C687 0.930 . S
C678 H672 0.930 . S
C678 C679 1.355 . S
C678 C680 1.415 . S
C679 C678 1.355 . S
C679 C681 1.419 . S
C680 C678 1.415 . S
C680 C685 1.425 . S
C680 C687 1.409 . S
C681 H673 0.930 . S
C681 C679 1.419 . S
C681 C682 1.362 . S
C682 H674 0.930 . S
C682 C681 1.362 . S
C682 C685 1.409 . S
C683 H675 0.930 . S
C683 C684 1.355 . S
C683 C685 1.415 . S
C684 C683 1.355 . S
C684 C686 1.419 . S
C685 C680 1.425 . S
C685 C682 1.409 . S
C685 C683 1.415 . S
C686 H676 0.930 . S
C686 C684 1.419 . S
C686 C687 1.362 . S
C687 H677 0.930 . S
C687 C680 1.409 . S
C687 C686 1.362 . S
H688 C694 0.930 . S
H689 C697 0.930 . S
H690 C698 0.930 . S
H691 C699 0.930 . S
H692 C702 0.930 . S
H693 C703 0.930 . S
C694 H688 0.930 . S
C694 C695 1.355 . S
C694 C696 1.415 1_455 S
C695 C694 1.355 . S
C695 C697 1.419 . S
C696 C694 1.415 1_655 S
C696 C701 1.425 . S
C696 C703 1.409 . S
C697 H689 0.930 . S
C697 C695 1.419 . S
C697 C698 1.362 1_455 S
C698 H690 0.930 . S
C698 C697 1.362 1_655 S
C698 C701 1.409 . S
C699 H691 0.930 . S
C699 C700 1.355 . S
C699 C701 1.415 . S
C700 C699 1.355 . S
C700 C702 1.419 . S
C701 C696 1.425 . S
C701 C698 1.409 . S
C701 C699 1.415 . S
C702 H692 0.930 . S
C702 C700 1.419 . S
C702 C703 1.362 . S
C703 H693 0.930 . S
C703 C696 1.409 . S
C703 C702 1.362 . S
H704 C710 0.930 . S
H705 C713 0.930 . S
H706 C714 0.930 1_455 S
H707 C715 0.930 . S
H708 C718 0.930 . S
H709 C719 0.930 . S
C710 H704 0.930 . S
C710 C711 1.355 1_545 S
C710 C712 1.415 . S
C711 C710 1.355 1_565 S
C711 C713 1.419 . S
C712 C710 1.415 . S
C712 C717 1.425 . S
C712 C719 1.409 . S
C713 H705 0.930 . S
C713 C711 1.419 . S
C713 C714 1.362 . S
C714 H706 0.930 1_655 S
C714 C713 1.362 . S
C714 C717 1.409 1_565 S
C715 H707 0.930 . S
C715 C716 1.355 . S
C715 C717 1.415 1_455 S
C716 C715 1.355 . S
C716 C718 1.419 1_455 S
C717 C712 1.425 . S
C717 C714 1.409 1_545 S
C717 C715 1.415 1_655 S
C718 H708 0.930 . S
C718 C716 1.419 1_655 S
C718 C719 1.362 . S
C719 H709 0.930 . S
C719 C712 1.409 . S
C719 C718 1.362 . S
H720 C726 0.930 . S
H721 C729 0.930 . S
H722 C730 0.930 . S
H723 C731 0.930 . S
H724 C734 0.930 . S
H725 C735 0.930 . S
C726 H720 0.930 . S
C726 C727 1.355 . S
C726 C728 1.415 1_565 S
C727 C726 1.355 . S
C727 C729 1.419 1_565 S
C728 C726 1.415 1_545 S
C728 C733 1.425 . S
C728 C735 1.409 . S
C729 H721 0.930 . S
C729 C727 1.419 1_545 S
C729 C730 1.362 . S
C730 H722 0.930 . S
C730 C729 1.362 . S
C730 C733 1.409 . S
C731 H723 0.930 . S
C731 C732 1.355 . S
C731 C733 1.415 . S
C732 C731 1.355 . S
C732 C734 1.419 . S
C733 C728 1.425 . S
C733 C730 1.409 . S
C733 C731 1.415 . S
C734 H724 0.930 . S
C734 C732 1.419 . S
C734 C735 1.362 . S
C735 H725 0.930 . S
C735 C728 1.409 . S
C735 C734 1.362 . S
C231 C106 1.482 . S
C236 C8 1.570 . S
C247 C64 2.055 . S
C252 C22 2.063 . S
C263 C78 1.543 . S
C268 C36 1.453 . S
C279 C50 1.184 . S
C284 C92 1.146 . S
C295 C218 1.427 . S
C300 C120 1.496 . S
C311 C176 2.150 . S
C316 C134 2.141 . S
C327 C148 1.471 . S
C332 C190 1.561 . S
C343 C162 1.164 . S
C348 C204 1.191 . S
C359 C37 1.254 . S
C364 C9 1.241 . S
C375 C23 1.172 . S
C380 C51 1.185 . S
C391 C65 1.293 . S
C396 C93 1.293 . S
C407 C107 1.154 . S
C412 C79 1.127 . S
C423 C121 1.229 . S
C428 C149 1.245 . S
C439 C135 1.174 . S
C444 C163 1.181 . S
C455 C205 1.186 . S
C460 C177 1.173 . S
C471 C191 1.227 . S
C476 C219 1.244 . S
C487 C91 1.569 . S
C492 C7 1.522 . S
C503 C21 2.267 . S
C508 C105 2.301 . S
C519 C35 2.310 . S
C524 C63 2.242 . S
C535 C49 1.564 . S
C540 C77 1.546 . S
C551 C119 1.556 . S
C556 C203 1.569 . S
C567 C133 2.233 . S
C572 C217 2.307 . S
C583 C147 2.275 . S
C588 C175 2.216 . S
C599 C161 1.561 . S
C604 C189 1.509 . S
C615 C6 1.469 . S
C620 C216 1.424 . S
C631 C174 1.476 . S
C636 C20 1.464 . S
C647 C34 1.455 . S
C652 C188 1.450 . S
C663 C202 1.392 . S
C668 C48 1.421 . S
C679 C132 1.468 . S
C684 C62 1.472 . S
C695 C76 1.470 . S
C700 C146 1.425 . S
C711 C160 1.421 . S
C716 C90 1.392 . S
C727 C118 1.470 . S
C732 C104 1.424 . S
