# Generated by pormake.
# Topology wgz, (6)-cn, num edge types: 1
# Building blocks:
#     Node 0, Type 0, BuildingBlock: VOLQOD_clean_sbu_1, # of connection points: 6
#     Node 1, Type 0, BuildingBlock: VOLQOD_clean_sbu_1, # of connection points: 6
#     Node 2, Type 0, BuildingBlock: VOLQOD_clean_sbu_1, # of connection points: 6
#     Node 3, Type 0, BuildingBlock: VOLQOD_clean_sbu_1, # of connection points: 6
#     Node 4, Type 0, BuildingBlock: VOLQOD_clean_sbu_1, # of connection points: 6
#     Node 5, Type 0, BuildingBlock: VOLQOD_clean_sbu_1, # of connection points: 6
#     Node 6, Type 0, BuildingBlock: VOLQOD_clean_sbu_1, # of connection points: 6
#     Node 7, Type 0, BuildingBlock: VOLQOD_clean_sbu_1, # of connection points: 6
#     Node 8, Type 0, BuildingBlock: VOLQOD_clean_sbu_1, # of connection points: 6
#     Node 9, Type 0, BuildingBlock: VOLQOD_clean_sbu_1, # of connection points: 6
#     Node 10, Type 0, BuildingBlock: VOLQOD_clean_sbu_1, # of connection points: 6
#     Node 11, Type 0, BuildingBlock: VOLQOD_clean_sbu_1, # of connection points: 6
#     Node 12, Type 0, BuildingBlock: VOLQOD_clean_sbu_1, # of connection points: 6
#     Node 13, Type 0, BuildingBlock: VOLQOD_clean_sbu_1, # of connection points: 6
#     Node 14, Type 0, BuildingBlock: VOLQOD_clean_sbu_1, # of connection points: 6
#     Node 15, Type 0, BuildingBlock: VOLQOD_clean_sbu_1, # of connection points: 6
#     Edge 16, Type (0, 0), BuildingBlock: KIFKEQ_clean_linker_1, # of connection points: 2
#     Edge 17, Type (0, 0), BuildingBlock: KIFKEQ_clean_linker_1, # of connection points: 2
#     Edge 18, Type (0, 0), BuildingBlock: KIFKEQ_clean_linker_1, # of connection points: 2
#     Edge 19, Type (0, 0), BuildingBlock: KIFKEQ_clean_linker_1, # of connection points: 2
#     Edge 20, Type (0, 0), BuildingBlock: KIFKEQ_clean_linker_1, # of connection points: 2
#     Edge 21, Type (0, 0), BuildingBlock: KIFKEQ_clean_linker_1, # of connection points: 2
#     Edge 22, Type (0, 0), BuildingBlock: KIFKEQ_clean_linker_1, # of connection points: 2
#     Edge 23, Type (0, 0), BuildingBlock: KIFKEQ_clean_linker_1, # of connection points: 2
#     Edge 24, Type (0, 0), BuildingBlock: KIFKEQ_clean_linker_1, # of connection points: 2
#     Edge 25, Type (0, 0), BuildingBlock: KIFKEQ_clean_linker_1, # of connection points: 2
#     Edge 26, Type (0, 0), BuildingBlock: KIFKEQ_clean_linker_1, # of connection points: 2
#     Edge 27, Type (0, 0), BuildingBlock: KIFKEQ_clean_linker_1, # of connection points: 2
#     Edge 28, Type (0, 0), BuildingBlock: KIFKEQ_clean_linker_1, # of connection points: 2
#     Edge 29, Type (0, 0), BuildingBlock: KIFKEQ_clean_linker_1, # of connection points: 2
#     Edge 30, Type (0, 0), BuildingBlock: KIFKEQ_clean_linker_1, # of connection points: 2
#     Edge 31, Type (0, 0), BuildingBlock: KIFKEQ_clean_linker_1, # of connection points: 2
#     Edge 32, Type (0, 0), BuildingBlock: KIFKEQ_clean_linker_1, # of connection points: 2
#     Edge 33, Type (0, 0), BuildingBlock: KIFKEQ_clean_linker_1, # of connection points: 2
#     Edge 34, Type (0, 0), BuildingBlock: KIFKEQ_clean_linker_1, # of connection points: 2
#     Edge 35, Type (0, 0), BuildingBlock: KIFKEQ_clean_linker_1, # of connection points: 2
#     Edge 36, Type (0, 0), BuildingBlock: KIFKEQ_clean_linker_1, # of connection points: 2
#     Edge 37, Type (0, 0), BuildingBlock: KIFKEQ_clean_linker_1, # of connection points: 2
#     Edge 38, Type (0, 0), BuildingBlock: KIFKEQ_clean_linker_1, # of connection points: 2
#     Edge 39, Type (0, 0), BuildingBlock: KIFKEQ_clean_linker_1, # of connection points: 2
#     Edge 40, Type (0, 0), BuildingBlock: KIFKEQ_clean_linker_1, # of connection points: 2
#     Edge 41, Type (0, 0), BuildingBlock: KIFKEQ_clean_linker_1, # of connection points: 2
#     Edge 42, Type (0, 0), BuildingBlock: KIFKEQ_clean_linker_1, # of connection points: 2
#     Edge 43, Type (0, 0), BuildingBlock: KIFKEQ_clean_linker_1, # of connection points: 2
#     Edge 44, Type (0, 0), BuildingBlock: KIFKEQ_clean_linker_1, # of connection points: 2
#     Edge 45, Type (0, 0), BuildingBlock: KIFKEQ_clean_linker_1, # of connection points: 2
#     Edge 46, Type (0, 0), BuildingBlock: KIFKEQ_clean_linker_1, # of connection points: 2
#     Edge 47, Type (0, 0), BuildingBlock: KIFKEQ_clean_linker_1, # of connection points: 2
#     Edge 48, Type (0, 0), BuildingBlock: KIFKEQ_clean_linker_1, # of connection points: 2
#     Edge 49, Type (0, 0), BuildingBlock: KIFKEQ_clean_linker_1, # of connection points: 2
#     Edge 50, Type (0, 0), BuildingBlock: KIFKEQ_clean_linker_1, # of connection points: 2
#     Edge 51, Type (0, 0), BuildingBlock: KIFKEQ_clean_linker_1, # of connection points: 2
#     Edge 52, Type (0, 0), BuildingBlock: KIFKEQ_clean_linker_1, # of connection points: 2
#     Edge 53, Type (0, 0), BuildingBlock: KIFKEQ_clean_linker_1, # of connection points: 2
#     Edge 54, Type (0, 0), BuildingBlock: KIFKEQ_clean_linker_1, # of connection points: 2
#     Edge 55, Type (0, 0), BuildingBlock: KIFKEQ_clean_linker_1, # of connection points: 2
#     Edge 56, Type (0, 0), BuildingBlock: KIFKEQ_clean_linker_1, # of connection points: 2
#     Edge 57, Type (0, 0), BuildingBlock: KIFKEQ_clean_linker_1, # of connection points: 2
#     Edge 58, Type (0, 0), BuildingBlock: KIFKEQ_clean_linker_1, # of connection points: 2
#     Edge 59, Type (0, 0), BuildingBlock: KIFKEQ_clean_linker_1, # of connection points: 2
#     Edge 60, Type (0, 0), BuildingBlock: KIFKEQ_clean_linker_1, # of connection points: 2
#     Edge 61, Type (0, 0), BuildingBlock: KIFKEQ_clean_linker_1, # of connection points: 2
#     Edge 62, Type (0, 0), BuildingBlock: KIFKEQ_clean_linker_1, # of connection points: 2
#     Edge 63, Type (0, 0), BuildingBlock: KIFKEQ_clean_linker_1, # of connection points: 2
# Relax obj value: 0.567
# Max RMSD: 0.289
# Mean RMSD: 0.289
data_MOF--net-wgz--node1-VOLQOD_clean_sbu_1--edge1-KIFKEQ_clean_linker_1
_symmetry_space_group_name_H-M    P1
_symmetry_Int_Tables_number       1
_symmetry_cell_setting            triclinic
loop_
_symmetry_equiv_pos_as_xyz
'x, y, z'
_cell_length_a     35.812515
_cell_length_b     35.711674
_cell_length_c     55.15056
_cell_angle_alpha  90.014969
_cell_angle_beta   90.083368
_cell_angle_gamma 89.628391
loop_
_atom_site_label
_atom_site_type_symbol
_atom_site_fract_x
_atom_site_fract_y
_atom_site_fract_z
_atom_type_partial_charge
O0 O 0.16101 0.33002 0.20056 0.0
Zn1 Zn 0.15162 0.33577 0.16318 0.0
O2 O 0.19476 0.36273 0.15153 0.0
Zn3 Zn 0.20795 0.34245 0.12121 0.0
Zn4 Zn 0.23808 0.36052 0.17168 0.0
Zn5 Zn 0.18536 0.41473 0.14804 0.0
O6 O 0.22358 0.38157 0.09854 0.0
O7 O 0.20572 0.4343 0.11639 0.0
O8 O 0.15062 0.28607 0.14162 0.0
O9 O 0.16451 0.316 0.10776 0.0
O10 O 0.25084 0.30676 0.12422 0.0
O11 O 0.27368 0.31999 0.16066 0.0
O12 O 0.26345 0.41144 0.17102 0.0
O13 O 0.10412 0.37041 0.15844 0.0
O14 O 0.21057 0.44287 0.17432 0.0
O15 O 0.13151 0.42455 0.14986 0.0
C16 C 0.18917 0.33849 0.214 0.0
C17 C 0.22097 0.41699 0.09877 0.0
C18 C 0.27478 0.30138 0.14094 0.0
C19 C 0.15362 0.28654 0.11835 0.0
C20 C 0.24596 0.44198 0.17519 0.0
C21 C 0.1022 0.40569 0.15385 0.0
O22 O 0.21963 0.35021 0.20488 0.0
O23 O 0.67275 0.12425 0.11317 0.0
Zn24 Zn 0.6517 0.13507 0.07843 0.0
O25 O 0.62086 0.17904 0.08182 0.0
Zn26 Zn 0.64836 0.22191 0.07268 0.0
Zn27 Zn 0.60523 0.18804 0.11454 0.0
Zn28 Zn 0.57837 0.17647 0.06064 0.0
O29 O 0.61237 0.258 0.05787 0.0
O30 O 0.5807 0.21759 0.03538 0.0
O31 O 0.69121 0.14599 0.05099 0.0
O32 O 0.68636 0.20816 0.04816 0.0
O33 O 0.6716 0.24699 0.10117 0.0
O34 O 0.62728 0.2356 0.12818 0.0
O35 O 0.54978 0.19219 0.11765 0.0
O36 O 0.61594 0.09256 0.06817 0.0
O37 O 0.53139 0.18726 0.07936 0.0
O38 O 0.57085 0.12366 0.04871 0.0
C39 C 0.65533 0.12816 0.13339 0.0
C40 C 0.58915 0.25121 0.041 0.0
C41 C 0.6564 0.25311 0.12164 0.0
C42 C 0.70059 0.17727 0.04126 0.0
C43 C 0.52408 0.19216 0.10171 0.0
C44 C 0.5856 0.09288 0.05576 0.0
O45 O 0.62527 0.1472 0.13504 0.0
O46 O 0.81176 0.64011 0.19239 0.0
Zn47 Zn 0.81713 0.63202 0.15511 0.0
O48 O 0.77171 0.60637 0.14402 0.0
Zn49 Zn 0.74111 0.63648 0.12298 0.0
Zn50 Zn 0.73937 0.58972 0.1701 0.0
Zn51 Zn 0.78655 0.56524 0.1241 0.0
O52 O 0.72719 0.61098 0.09173 0.0
O53 O 0.77801 0.57553 0.08896 0.0
O54 O 0.8243 0.67991 0.13293 0.0
O55 O 0.77027 0.67984 0.11273 0.0
O56 O 0.69594 0.65573 0.13946 0.0
O57 O 0.69136 0.62042 0.1723 0.0
O58 O 0.72734 0.53418 0.16726 0.0
O59 O 0.86274 0.59604 0.15184 0.0
O60 O 0.75732 0.52071 0.13312 0.0
O61 O 0.83926 0.55017 0.12962 0.0
C62 C 0.79169 0.62211 0.20775 0.0
C63 C 0.74974 0.59124 0.07925 0.0
C64 C 0.67908 0.64673 0.15882 0.0
C65 C 0.80185 0.69417 0.11714 0.0
C66 C 0.73643 0.51106 0.15062 0.0
C67 C 0.8663 0.56428 0.14129 0.0
O68 O 0.76587 0.60009 0.20091 0.0
O69 O 0.32109 0.84762 0.12098 0.0
Zn70 Zn 0.34963 0.82622 0.09073 0.0
O71 O 0.37718 0.78146 0.10174 0.0
Zn72 Zn 0.36893 0.73776 0.08145 0.0
Zn73 Zn 0.36629 0.76637 0.13441 0.0
Zn74 Zn 0.42949 0.79305 0.10357 0.0
O75 O 0.41777 0.71261 0.07281 0.0
O76 O 0.45853 0.74975 0.09107 0.0
O77 O 0.31637 0.81032 0.06091 0.0
O78 O 0.33955 0.7536 0.05204 0.0
O79 O 0.34059 0.69705 0.09903 0.0
O80 O 0.33799 0.71913 0.13647 0.0
O81 O 0.41285 0.75679 0.15383 0.0
O82 O 0.38746 0.86679 0.07879 0.0
O83 O 0.44861 0.7998 0.13751 0.0
O84 O 0.44221 0.83865 0.08474 0.0
C85 C 0.32041 0.83595 0.14302 0.0
C86 C 0.45099 0.71997 0.07947 0.0
C87 C 0.33094 0.69366 0.12113 0.0
C88 C 0.31858 0.78156 0.04688 0.0
C89 C 0.44268 0.77579 0.15403 0.0
C90 C 0.42316 0.86629 0.07693 0.0
O91 O 0.33705 0.80621 0.1497 0.0
O92 O 0.18252 0.62439 0.83233 0.0
Zn93 Zn 0.17331 0.61973 0.86925 0.0
O94 O 0.21199 0.5862 0.88154 0.0
Zn95 Zn 0.22697 0.60899 0.91089 0.0
Zn96 Zn 0.25454 0.58076 0.86065 0.0
Zn97 Zn 0.19477 0.53782 0.88957 0.0
O98 O 0.24002 0.57268 0.93624 0.0
O99 O 0.21132 0.52193 0.923 0.0
O100 O 0.17942 0.67044 0.8889 0.0
O101 O 0.18579 0.6406 0.92346 0.0
O102 O 0.27156 0.6403 0.90502 0.0
O103 O 0.29611 0.61525 0.87168 0.0
O104 O 0.27053 0.52576 0.85804 0.0
O105 O 0.12195 0.59325 0.87408 0.0
O106 O 0.21573 0.50032 0.86679 0.0
O107 O 0.13993 0.53702 0.88742 0.0
C108 C 0.20925 0.61275 0.81875 0.0
C109 C 0.23047 0.53887 0.93903 0.0
C110 C 0.2974 0.63853 0.88925 0.0
C111 C 0.1809 0.67105 0.91216 0.0
C112 C 0.2486 0.49768 0.85824 0.0
C113 C 0.11433 0.55989 0.88117 0.0
O114 O 0.23787 0.59627 0.82758 0.0
O115 O 0.31379 0.12175 0.91207 0.0
Zn116 Zn 0.33076 0.13034 0.94824 0.0
O117 O 0.35572 0.17788 0.9476 0.0
Zn118 Zn 0.32235 0.21763 0.95616 0.0
Zn119 Zn 0.37419 0.18556 0.91562 0.0
Zn120 Zn 0.39657 0.17936 0.96984 0.0
O121 O 0.35054 0.25366 0.97711 0.0
O122 O 0.38323 0.21215 0.99837 0.0
O123 O 0.2885 0.13532 0.97458 0.0
O124 O 0.28124 0.19739 0.9767 0.0
O125 O 0.30431 0.24558 0.92667 0.0
O126 O 0.34572 0.22703 0.89912 0.0
O127 O 0.42733 0.20054 0.91516 0.0
O128 O 0.37095 0.09097 0.95859 0.0
O129 O 0.44165 0.20335 0.9542 0.0
O130 O 0.41241 0.12669 0.97778 0.0
C131 C 0.33629 0.12407 0.89398 0.0
C132 C 0.37078 0.24542 0.99537 0.0
C133 C 0.31827 0.24762 0.90546 0.0
C134 C 0.27219 0.16453 0.98332 0.0
C135 C 0.4502 0.20824 0.93201 0.0
C136 C 0.40138 0.09457 0.97071 0.0
O137 O 0.36798 0.13928 0.89648 0.0
O138 O 0.79787 0.36179 0.8277 0.0
Zn139 Zn 0.80507 0.37317 0.86436 0.0
O140 O 0.76349 0.40552 0.8731 0.0
Zn141 Zn 0.74745 0.39284 0.90481 0.0
Zn142 Zn 0.72122 0.40382 0.85143 0.0
Zn143 Zn 0.77763 0.45661 0.87219 0.0
O144 O 0.73777 0.43845 0.92491 0.0
O145 O 0.75864 0.48423 0.90144 0.0
O146 O 0.80322 0.32693 0.88812 0.0
O147 O 0.78394 0.35831 0.92069 0.0
O148 O 0.70046 0.36373 0.90277 0.0
O149 O 0.68075 0.37019 0.86478 0.0
O150 O 0.70119 0.45671 0.84524 0.0
O151 O 0.8548 0.40315 0.86828 0.0
O152 O 0.75702 0.48225 0.84313 0.0
O153 O 0.83214 0.46094 0.87169 0.0
C154 C 0.77112 0.36909 0.81284 0.0
C155 C 0.74333 0.47307 0.92093 0.0
C156 C 0.67707 0.35666 0.88605 0.0
C157 C 0.79716 0.32863 0.91108 0.0
C158 C 0.72214 0.4839 0.83913 0.0
C159 C 0.85973 0.43856 0.87043 0.0
O160 O 0.74072 0.3843 0.81995 0.0
O161 O 0.67258 0.86161 0.90594 0.0
Zn162 Zn 0.65602 0.84719 0.94085 0.0
O163 O 0.63185 0.79979 0.93753 0.0
Zn164 Zn 0.6683 0.76058 0.94218 0.0
Zn165 Zn 0.61066 0.79591 0.90583 0.0
Zn166 Zn 0.59278 0.79589 0.96097 0.0
O167 O 0.64593 0.72168 0.9638 0.0
O168 O 0.607 0.75698 0.98575 0.0
O169 O 0.69832 0.83968 0.96643 0.0
O170 O 0.71269 0.77952 0.96077 0.0
O171 O 0.68151 0.73466 0.91089 0.0
O172 O 0.63407 0.75305 0.88768 0.0
O173 O 0.55609 0.78558 0.90613 0.0
O174 O 0.61642 0.88457 0.95335 0.0
O175 O 0.54604 0.7764 0.94528 0.0
O176 O 0.57772 0.84723 0.97343 0.0
C177 C 0.65145 0.86025 0.88713 0.0
C178 C 0.62497 0.72647 0.98214 0.0
C179 C 0.66274 0.73254 0.89128 0.0
C180 C 0.71857 0.81081 0.97116 0.0
C181 C 0.53478 0.77591 0.92339 0.0
C182 C 0.5876 0.87995 0.96675 0.0
O183 O 0.62112 0.84195 0.88723 0.0
O184 O 0.67714 0.85065 0.69284 0.0
Zn185 Zn 0.67201 0.86013 0.65555 0.0
O186 O 0.71728 0.88794 0.64496 0.0
Zn187 Zn 0.74743 0.86016 0.62209 0.0
Zn188 Zn 0.75125 0.90088 0.67142 0.0
Zn189 Zn 0.70167 0.93292 0.62851 0.0
O190 O 0.75607 0.88672 0.59068 0.0
O191 O 0.71384 0.93221 0.59321 0.0
O192 O 0.6672 0.81133 0.63349 0.0
O193 O 0.72087 0.81458 0.61318 0.0
O194 O 0.796 0.84336 0.63554 0.0
O195 O 0.80055 0.87281 0.67065 0.0
O196 O 0.76057 0.95658 0.67391 0.0
O197 O 0.62478 0.89474 0.65253 0.0
O198 O 0.72457 0.97732 0.64387 0.0
O199 O 0.64788 0.94275 0.63219 0.0
C200 C 0.69988 0.86488 0.70831 0.0
C201 C 0.73766 0.91342 0.58113 0.0
C202 C 0.81374 0.85028 0.65494 0.0
C203 C 0.69053 0.79806 0.61789 0.0
C204 C 0.74649 0.98324 0.66155 0.0
C205 C 0.62066 0.92691 0.64256 0.0
O206 O 0.72714 0.88504 0.70167 0.0
O207 O 0.16933 0.63425 0.62156 0.0
Zn208 Zn 0.14235 0.6565 0.59097 0.0
O209 O 0.11591 0.70164 0.60194 0.0
Zn210 Zn 0.12593 0.74508 0.58218 0.0
Zn211 Zn 0.1257 0.71617 0.63497 0.0
Zn212 Zn 0.06333 0.69215 0.60331 0.0
O213 O 0.07851 0.77254 0.57303 0.0
O214 O 0.03636 0.73773 0.592 0.0
O215 O 0.17745 0.67216 0.56184 0.0
O216 O 0.15764 0.73049 0.55404 0.0
O217 O 0.15606 0.78279 0.60046 0.0
O218 O 0.15749 0.76112 0.63804 0.0
O219 O 0.07856 0.72904 0.65282 0.0
O220 O 0.10327 0.6172 0.57927 0.0
O221 O 0.04424 0.68454 0.63707 0.0
O222 O 0.04914 0.64713 0.58418 0.0
C223 C 0.16804 0.64465 0.64386 0.0
C224 C 0.0453 0.7671 0.5804 0.0
C225 C 0.16633 0.78558 0.62245 0.0
C226 C 0.17801 0.70219 0.54891 0.0
C227 C 0.04867 0.71016 0.65275 0.0
C228 C 0.06761 0.6186 0.57713 0.0
O229 O 0.15128 0.67429 0.65063 0.0
O230 O 0.32991 0.16761 0.70026 0.0
Zn231 Zn 0.34113 0.16291 0.66289 0.0
O232 O 0.29833 0.13518 0.64882 0.0
Zn233 Zn 0.27197 0.16237 0.62437 0.0
Zn234 Zn 0.25977 0.11962 0.67177 0.0
Zn235 Zn 0.31747 0.09315 0.63126 0.0
O236 O 0.26399 0.13432 0.59352 0.0
O237 O 0.31429 0.09826 0.59525 0.0
O238 O 0.34743 0.21331 0.64216 0.0
O239 O 0.30073 0.20588 0.61579 0.0
O240 O 0.22355 0.18151 0.6353 0.0
O241 O 0.20998 0.14743 0.66754 0.0
O242 O 0.25052 0.06356 0.6698 0.0
O243 O 0.38994 0.12965 0.66127 0.0
O244 O 0.28971 0.04822 0.64023 0.0
O245 O 0.36866 0.08092 0.64066 0.0
C246 C 0.30518 0.15171 0.71365 0.0
C247 C 0.28742 0.11267 0.58335 0.0
C248 C 0.2014 0.17272 0.6522 0.0
C249 C 0.32849 0.2241 0.62348 0.0
C250 C 0.26527 0.03928 0.65576 0.0
C251 C 0.39454 0.09678 0.65237 0.0
O252 O 0.27891 0.13234 0.70451 0.0
O253 O 0.80957 0.36348 0.61528 0.0
Zn254 Zn 0.83155 0.35146 0.58096 0.0
O255 O 0.85997 0.30578 0.58493 0.0
Zn256 Zn 0.83356 0.26326 0.57342 0.0
Zn257 Zn 0.87163 0.29775 0.61836 0.0
Zn258 Zn 0.90498 0.30692 0.56636 0.0
O259 O 0.87039 0.22857 0.55755 0.0
O260 O 0.90095 0.27243 0.53759 0.0
O261 O 0.79275 0.34205 0.55282 0.0
O262 O 0.79627 0.27981 0.54899 0.0
O263 O 0.80912 0.23576 0.60047 0.0
O264 O 0.84112 0.25596 0.63232 0.0
O265 O 0.92503 0.28363 0.62358 0.0
O266 O 0.86941 0.39296 0.57183 0.0
O267 O 0.94777 0.28665 0.58628 0.0
O268 O 0.91807 0.35998 0.55829 0.0
C269 C 0.82804 0.36168 0.63526 0.0
C270 C 0.89333 0.23802 0.5411 0.0
C271 C 0.81658 0.23471 0.62303 0.0
C272 C 0.78287 0.31134 0.54252 0.0
C273 C 0.95182 0.27934 0.60874 0.0
C274 C 0.90239 0.39137 0.5628 0.0
O275 O 0.85851 0.34336 0.63681 0.0
O276 O 0.69106 0.13331 0.32547 0.0
Zn277 Zn 0.68461 0.12132 0.36209 0.0
O278 O 0.72731 0.09014 0.37066 0.0
Zn279 Zn 0.74427 0.10196 0.40241 0.0
Zn280 Zn 0.76926 0.09452 0.34895 0.0
Zn281 Zn 0.71418 0.03842 0.36892 0.0
O282 O 0.75135 0.05632 0.42252 0.0
O283 O 0.73081 0.0106 0.39881 0.0
O284 O 0.68442 0.16719 0.3862 0.0
O285 O 0.70961 0.13822 0.41817 0.0
O286 O 0.79309 0.12819 0.40127 0.0
O287 O 0.80866 0.12961 0.36235 0.0
O288 O 0.79205 0.04275 0.34318 0.0
O289 O 0.63578 0.08983 0.36538 0.0
O290 O 0.73803 0.01358 0.34059 0.0
O291 O 0.65975 0.03237 0.36659 0.0
C292 C 0.71772 0.1268 0.31044 0.0
C293 C 0.74525 0.02183 0.41858 0.0
C294 C 0.81478 0.13858 0.38439 0.0
C295 C 0.69266 0.16624 0.40892 0.0
C296 C 0.77308 0.01408 0.33718 0.0
C297 C 0.63164 0.05417 0.36602 0.0
O298 O 0.74876 0.11274 0.3174 0.0
O299 O 0.81993 0.63866 0.40502 0.0
Zn300 Zn 0.83422 0.64962 0.44091 0.0
O301 O 0.86041 0.69618 0.44036 0.0
Zn302 Zn 0.82656 0.73696 0.4462 0.0
Zn303 Zn 0.88421 0.70226 0.40984 0.0
Zn304 Zn 0.89758 0.69622 0.46509 0.0
O305 O 0.84747 0.77011 0.4723 0.0
O306 O 0.87851 0.72654 0.49317 0.0
O307 O 0.7903 0.65695 0.4658 0.0
O308 O 0.77947 0.71799 0.46103 0.0
O309 O 0.81783 0.76801 0.41626 0.0
O310 O 0.86386 0.74758 0.39265 0.0
O311 O 0.93884 0.71123 0.41302 0.0
O312 O 0.87258 0.60956 0.45177 0.0
O313 O 0.94418 0.72148 0.45255 0.0
O314 O 0.91301 0.64309 0.47332 0.0
C315 C 0.84254 0.64103 0.38702 0.0
C316 C 0.86279 0.75867 0.4918 0.0
C317 C 0.8369 0.77003 0.39681 0.0
C318 C 0.77117 0.68664 0.47058 0.0
C319 C 0.95769 0.72236 0.43118 0.0
C320 C 0.90192 0.61172 0.46501 0.0
O321 O 0.87311 0.65884 0.38875 0.0
O322 O 0.30387 0.86659 0.33166 0.0
Zn323 Zn 0.31431 0.87549 0.36821 0.0
O324 O 0.27763 0.91223 0.37845 0.0
Zn325 Zn 0.26228 0.90041 0.41059 0.0
Zn326 Zn 0.23425 0.9158 0.35797 0.0
Zn327 Zn 0.29762 0.96119 0.37777 0.0
O328 O 0.25948 0.94597 0.43158 0.0
O329 O 0.28455 0.98925 0.40789 0.0
O330 O 0.30598 0.829 0.39119 0.0
O331 O 0.29597 0.86159 0.42492 0.0
O332 O 0.21227 0.87646 0.40957 0.0
O333 O 0.19183 0.8853 0.37195 0.0
O334 O 0.2196 0.97084 0.35404 0.0
O335 O 0.36771 0.89901 0.37142 0.0
O336 O 0.27744 0.99087 0.3502 0.0
O337 O 0.35216 0.95898 0.37622 0.0
C338 C 0.27733 0.87739 0.31756 0.0
C339 C 0.26942 0.97959 0.42774 0.0
C340 C 0.1877 0.87179 0.3932 0.0
C341 C 0.30215 0.8305 0.41436 0.0
C342 C 0.24252 0.99662 0.34832 0.0
C343 C 0.37679 0.93347 0.37423 0.0
O344 O 0.24931 0.89584 0.32553 0.0
O345 O 0.18034 0.37054 0.41204 0.0
Zn346 Zn 0.16311 0.3633 0.44803 0.0
O347 O 0.13759 0.31621 0.44824 0.0
Zn348 Zn 0.17062 0.27649 0.45769 0.0
Zn349 Zn 0.12001 0.30774 0.41615 0.0
Zn350 Zn 0.09559 0.31677 0.46985 0.0
O351 O 0.14089 0.24197 0.47873 0.0
O352 O 0.10743 0.28429 0.49883 0.0
O353 O 0.20557 0.35931 0.47439 0.0
O354 O 0.21232 0.29731 0.47785 0.0
O355 O 0.18872 0.24689 0.42873 0.0
O356 O 0.1494 0.26671 0.40023 0.0
O357 O 0.06752 0.29091 0.41539 0.0
O358 O 0.12312 0.40336 0.45673 0.0
O359 O 0.05034 0.29274 0.45392 0.0
O360 O 0.08075 0.37033 0.47707 0.0
C361 C 0.15757 0.36863 0.39407 0.0
C362 C 0.11925 0.25071 0.49618 0.0
C363 C 0.17587 0.24531 0.40717 0.0
C364 C 0.22188 0.33044 0.48363 0.0
C365 C 0.04349 0.28498 0.43181 0.0
C366 C 0.09265 0.40152 0.46889 0.0
O367 O 0.12569 0.35386 0.39669 0.0
H368 H 0.24578 0.34715 0.24663 0.0
H369 H 0.12623 0.33277 0.24269 0.0
H370 H 0.24141 0.35919 0.28976 0.0
H371 H 0.12199 0.34348 0.28641 0.0
H372 H 0.11796 0.4021 0.35827 0.0
H373 H 0.12669 0.39352 0.31481 0.0
H374 H 0.23012 0.33426 0.32876 0.0
H375 H 0.22169 0.34412 0.37229 0.0
C376 C 0.21849 0.34589 0.25502 0.0
C377 C 0.18626 0.33919 0.24098 0.0
C378 C 0.21606 0.35272 0.27993 0.0
C379 C 0.18133 0.35291 0.29171 0.0
C380 C 0.1492 0.34451 0.27791 0.0
C381 C 0.15162 0.33777 0.25285 0.0
C382 C 0.14327 0.3885 0.35194 0.0
C383 C 0.16944 0.37432 0.36866 0.0
C384 C 0.14789 0.38281 0.32704 0.0
C385 C 0.17862 0.36231 0.31814 0.0
C386 C 0.20612 0.35027 0.33482 0.0
C387 C 0.20161 0.35631 0.35982 0.0
H388 H 0.6522 0.14241 0.28612 0.0
H389 H 0.76906 0.11793 0.27416 0.0
H390 H 0.641 0.13826 0.24254 0.0
H391 H 0.75764 0.11265 0.23086 0.0
H392 H 0.62082 0.09039 0.16921 0.0
H393 H 0.63796 0.0907 0.21197 0.0
H394 H 0.74183 0.14499 0.19408 0.0
H395 H 0.7248 0.14352 0.15107 0.0
C396 C 0.67558 0.13659 0.27424 0.0
C397 C 0.71147 0.13039 0.28381 0.0
C398 C 0.6691 0.13363 0.24923 0.0
C399 C 0.6983 0.12431 0.23312 0.0
C400 C 0.73447 0.11986 0.2426 0.0
C401 C 0.74096 0.12288 0.26755 0.0
C402 C 0.648 0.10097 0.17437 0.0
C403 C 0.67171 0.11644 0.1568 0.0
C404 C 0.6575 0.10195 0.19894 0.0
C405 C 0.69081 0.11887 0.20666 0.0
C406 C 0.71592 0.13175 0.18887 0.0
C407 C 0.70646 0.13049 0.16415 0.0
H408 H 0.74673 0.59635 0.24379 0.0
H409 H 0.85035 0.65511 0.23224 0.0
H410 H 0.75762 0.59658 0.28713 0.0
H411 H 0.86083 0.65609 0.27614 0.0
H412 H 0.88928 0.61677 0.35174 0.0
H413 H 0.8762 0.61247 0.30853 0.0
H414 H 0.75979 0.63649 0.32244 0.0
H415 H 0.77299 0.64023 0.36596 0.0
C416 C 0.77182 0.60964 0.25047 0.0
C417 C 0.79785 0.62553 0.23435 0.0
C418 C 0.77788 0.60993 0.27547 0.0
C419 C 0.81017 0.62608 0.28521 0.0
C420 C 0.83591 0.64279 0.26921 0.0
C421 C 0.82979 0.64258 0.24405 0.0
C422 C 0.86069 0.62025 0.34563 0.0
C423 C 0.83212 0.62879 0.36227 0.0
C424 C 0.85331 0.61836 0.3208 0.0
C425 C 0.81715 0.62504 0.31189 0.0
C426 C 0.78802 0.63121 0.32866 0.0
C427 C 0.79544 0.633 0.35364 0.0
H428 H 0.33986 0.86178 0.29043 0.0
H429 H 0.22123 0.88232 0.28406 0.0
H430 H 0.34491 0.86052 0.2462 0.0
H431 H 0.22639 0.88116 0.23998 0.0
H432 H 0.25389 0.82289 0.16434 0.0
H433 H 0.2409 0.83537 0.20708 0.0
H434 H 0.33882 0.90498 0.21103 0.0
H435 H 0.35148 0.89248 0.1682 0.0
C436 C 0.31482 0.8656 0.27964 0.0
C437 C 0.28016 0.87204 0.29086 0.0
C438 C 0.31778 0.86546 0.25429 0.0
C439 C 0.28611 0.87135 0.23955 0.0
C440 C 0.25131 0.87666 0.25077 0.0
C441 C 0.24841 0.87722 0.27607 0.0
C442 C 0.27127 0.84269 0.17399 0.0
C443 C 0.30314 0.85748 0.16281 0.0
C444 C 0.26422 0.84937 0.1986 0.0
C445 C 0.28932 0.87049 0.21259 0.0
C446 C 0.31932 0.88805 0.20084 0.0
C447 C 0.32608 0.88168 0.17616 0.0
H448 H 0.14709 0.62764 0.79091 0.0
H449 H 0.2649 0.60204 0.7856 0.0
H450 H 0.14213 0.62547 0.7467 0.0
H451 H 0.25978 0.59952 0.74161 0.0
H452 H 0.2358 0.65364 0.66448 0.0
H453 H 0.24811 0.64261 0.70745 0.0
H454 H 0.14589 0.57968 0.71275 0.0
H455 H 0.1338 0.59098 0.66972 0.0
C456 C 0.17195 0.62183 0.78036 0.0
C457 C 0.20637 0.61514 0.79188 0.0
C458 C 0.16903 0.62003 0.75503 0.0
C459 C 0.2005 0.61176 0.74062 0.0
C460 C 0.23502 0.60589 0.75213 0.0
C461 C 0.23789 0.60741 0.7774 0.0
C462 C 0.21724 0.63548 0.6745 0.0
C463 C 0.1843 0.62245 0.66367 0.0
C464 C 0.22392 0.62966 0.69925 0.0
C465 C 0.19749 0.61103 0.71366 0.0
C466 C 0.16641 0.59478 0.70224 0.0
C467 C 0.15994 0.60039 0.67746 0.0
H468 H 0.2487 0.13947 0.74558 0.0
H469 H 0.36654 0.16395 0.74301 0.0
H470 H 0.25287 0.12872 0.78897 0.0
H471 H 0.37059 0.15401 0.78691 0.0
H472 H 0.37703 0.09249 0.8581 0.0
H473 H 0.3683 0.1016 0.81468 0.0
H474 H 0.26228 0.15587 0.82845 0.0
H475 H 0.27098 0.146 0.87206 0.0
C476 C 0.2755 0.14322 0.75436 0.0
C477 C 0.3074 0.15239 0.74066 0.0
C478 C 0.2778 0.13711 0.77937 0.0
C479 C 0.31213 0.13985 0.79154 0.0
C480 C 0.34378 0.1508 0.77808 0.0
C481 C 0.34143 0.15709 0.75294 0.0
C482 C 0.3512 0.10513 0.85177 0.0
C483 C 0.32444 0.11801 0.86852 0.0
C484 C 0.34656 0.11113 0.82689 0.0
C485 C 0.31507 0.1304 0.81797 0.0
C486 C 0.28695 0.14094 0.83459 0.0
C487 C 0.29159 0.1348 0.85962 0.0
H488 H 0.83571 0.35218 0.78797 0.0
H489 H 0.7187 0.37743 0.77708 0.0
H490 H 0.84551 0.3549 0.74421 0.0
H491 H 0.72873 0.38118 0.73359 0.0
H492 H 0.75907 0.34693 0.65389 0.0
H493 H 0.74332 0.34703 0.69709 0.0
H494 H 0.84765 0.40196 0.71306 0.0
H495 H 0.8635 0.40083 0.67013 0.0
C496 C 0.81199 0.35786 0.77629 0.0
C497 C 0.77649 0.36472 0.78619 0.0
C498 C 0.81768 0.35998 0.75117 0.0
C499 C 0.78803 0.36905 0.73531 0.0
C500 C 0.75222 0.37416 0.74515 0.0
C501 C 0.74653 0.37202 0.7702 0.0
C502 C 0.77779 0.36045 0.66657 0.0
C503 C 0.81231 0.37424 0.65865 0.0
C504 C 0.76906 0.36008 0.69139 0.0
C505 C 0.7947 0.37358 0.70871 0.0
C506 C 0.82775 0.39026 0.7004 0.0
C507 C 0.8365 0.39039 0.67572 0.0
H508 H 0.63617 0.84575 0.73361 0.0
H509 H 0.75187 0.87585 0.74339 0.0
H510 H 0.62722 0.84874 0.77763 0.0
H511 H 0.74269 0.88026 0.78674 0.0
H512 H 0.71966 0.8483 0.8666 0.0
H513 H 0.73227 0.84691 0.82309 0.0
H514 H 0.62327 0.89501 0.80914 0.0
H515 H 0.61052 0.89517 0.85254 0.0
C516 C 0.65972 0.85253 0.74511 0.0
C517 C 0.6946 0.86074 0.7349 0.0
C518 C 0.65454 0.85485 0.77031 0.0
C519 C 0.68413 0.86539 0.7858 0.0
C520 C 0.71929 0.87194 0.77555 0.0
C521 C 0.72446 0.86955 0.75054 0.0
C522 C 0.69911 0.85999 0.85426 0.0
C523 C 0.6643 0.8722 0.86295 0.0
C524 C 0.70605 0.85876 0.82925 0.0
C525 C 0.67838 0.86999 0.81247 0.0
C526 C 0.64476 0.88504 0.82142 0.0
C527 C 0.63776 0.88595 0.84632 0.0
H528 H 0.88173 0.49664 0.12022 0.0
H529 H 0.9295 0.57905 0.16832 0.0
H530 H 0.93664 0.4571 0.12519 0.0
H531 H 0.98452 0.53893 0.17357 0.0
H532 H 0.09361 0.48124 0.15198 0.0
H533 H 0.03712 0.51808 0.15011 0.0
H534 H 0.97141 0.41729 0.15374 0.0
H535 H 0.02906 0.37947 0.15523 0.0
C536 C 0.90395 0.50645 0.13189 0.0
C537 C 0.90114 0.5414 0.14373 0.0
C538 C 0.93535 0.4834 0.13494 0.0
C539 C 0.96505 0.49457 0.14986 0.0
C540 C 0.96233 0.52951 0.16173 0.0
C541 C 0.93079 0.55262 0.15871 0.0
C542 C 0.06728 0.46649 0.15242 0.0
C543 C 0.06616 0.42703 0.15361 0.0
C544 C 0.03467 0.48795 0.15159 0.0
C545 C -0.00045 0.47089 0.15191 0.0
C546 C -0.00193 0.4314 0.1533 0.0
C547 C 0.03105 0.40968 0.15426 0.0
H548 H 0.49318 0.86587 0.05774 0.0
H549 H 0.40159 0.94062 0.07448 0.0
H550 H 0.53239 0.91907 0.04792 0.0
H551 H 0.44132 0.99429 0.0652 0.0
H552 H 0.51615 0.08494 0.03528 0.0
H553 H 0.47597 0.03024 0.03604 0.0
H554 H 0.56386 0.96644 0.07068 0.0
H555 H 0.60421 0.02112 0.06985 0.0
C556 C 0.48125 0.89374 0.05915 0.0
C557 C 0.44424 0.89891 0.0672 0.0
C558 C 0.50394 0.92434 0.05367 0.0
C559 C 0.49049 0.96118 0.05624 0.0
C560 C 0.45275 0.96637 0.06292 0.0
C561 C 0.42986 0.93558 0.06827 0.0
C562 C 0.52729 0.05911 0.04272 0.0
C563 C 0.56365 0.0577 0.05258 0.0
C564 C 0.50396 0.02773 0.04332 0.0
C565 C 0.51636 0.9938 0.05355 0.0
C566 C 0.55331 0.99188 0.06239 0.0
C567 C 0.57658 0.02337 0.06196 0.0
H568 H 0.8761 0.51274 0.87299 0.0
H569 H 0.92927 0.40375 0.87011 0.0
H570 H 0.93631 0.54242 0.87555 0.0
H571 H 0.99047 0.43413 0.87222 0.0
H572 H 0.0887 0.49842 0.90476 0.0
H573 H 0.02831 0.46865 0.90111 0.0
H574 H 0.99166 0.55654 0.85265 0.0
H575 H 0.05254 0.58691 0.85656 0.0
C576 C 0.90067 0.49491 0.87276 0.0
C577 C 0.89759 0.45557 0.87143 0.0
C578 C 0.93539 0.5122 0.87402 0.0
C579 C 0.96834 0.49084 0.87401 0.0
C580 C 0.96555 0.45147 0.87251 0.0
C581 C 0.93053 0.434 0.8712 0.0
C582 C 0.06776 0.51169 0.8934 0.0
C583 C 0.07559 0.54516 0.8809 0.0
C584 C 0.03317 0.49427 0.89112 0.0
C585 C 0.00522 0.50976 0.87631 0.0
C586 C 0.01254 0.54386 0.86431 0.0
C587 C 0.04735 0.56141 0.86661 0.0
H588 H 0.59684 0.95411 0.9548 0.0
H589 H 0.51998 0.8793 0.99035 0.0
H590 H 0.55137 0.00495 0.95847 0.0
H591 H 0.47462 0.93031 0.99404 0.0
H592 H 0.38849 0.01906 0.96304 0.0
H593 H 0.43403 0.96756 0.96539 0.0
H594 H 0.51895 0.04531 0.98802 0.0
H595 H 0.47384 0.09625 0.98623 0.0
C596 C 0.57054 0.94856 0.96373 0.0
C597 C 0.56224 0.91236 0.97213 0.0
C598 C 0.54439 0.9778 0.96586 0.0
C599 C 0.50906 0.97167 0.97629 0.0
C600 C 0.50124 0.93587 0.9855 0.0
C601 C 0.5275 0.90668 0.98355 0.0
C602 C 0.41671 0.02506 0.96888 0.0
C603 C 0.42725 0.06199 0.9744 0.0
C604 C 0.44284 0.99551 0.97029 0.0
C605 C 0.4803 0.00229 0.97679 0.0
C606 C 0.49053 0.03906 0.98272 0.0
C607 C 0.46439 0.06831 0.98182 0.0
H608 H 0.5608 0.91643 0.67356 0.0
H609 H 0.60147 0.98949 0.61718 0.0
H610 H 0.5079 0.95926 0.68013 0.0
H611 H 0.54915 0.03166 0.62363 0.0
H612 H 0.46878 0.11876 0.65273 0.0
H613 H 0.52374 0.07699 0.65259 0.0
H614 H 0.4516 0.98123 0.66009 0.0
H615 H 0.39757 0.02251 0.66054 0.0
C616 C 0.55823 0.9412 0.66235 0.0
C617 C 0.58549 0.9493 0.64483 0.0
C618 C 0.52807 0.96596 0.66621 0.0
C619 C 0.52455 -0.0006 0.6527 0.0
C620 C 0.55137 0.00685 0.63485 0.0
C621 C 0.58123 0.98222 0.63095 0.0
C622 C 0.46492 0.0889 0.65491 0.0
C623 C 0.42886 0.07397 0.65644 0.0
C624 C 0.49628 0.06486 0.65457 0.0
C625 C 0.49212 0.02556 0.65607 0.0
C626 C 0.45609 0.01115 0.65906 0.0
C627 C 0.42501 0.03495 0.65915 0.0
H628 H -0.00319 0.6178 0.55881 0.0
H629 H 0.08842 0.54425 0.57767 0.0
H630 H 0.95689 0.56401 0.55194 0.0
H631 H 0.04813 0.49017 0.57156 0.0
H632 H 0.97381 0.39689 0.54555 0.0
H633 H 0.01427 0.45108 0.54557 0.0
H634 H 0.92438 0.51878 0.57449 0.0
H635 H 0.88362 0.46432 0.57433 0.0
C636 C 0.00858 0.59005 0.56129 0.0
C637 C 0.04588 0.58543 0.56893 0.0
C638 C 0.98546 0.55909 0.55762 0.0
C639 C -0.00121 0.52247 0.56161 0.0
C640 C 0.03671 0.51779 0.56809 0.0
C641 C 0.05999 0.54886 0.57159 0.0
C642 C 0.96236 0.42339 0.55167 0.0
C643 C 0.92521 0.426 0.55998 0.0
C644 C 0.98586 0.45457 0.55189 0.0
C645 C 0.97294 0.4896 0.56008 0.0
C646 C 0.93538 0.49253 0.56765 0.0
C647 C 0.91188 0.46118 0.56763 0.0
H648 H 0.40367 0.99185 0.39978 0.0
H649 H 0.43848 0.90497 0.35014 0.0
H650 H 0.4646 0.02073 0.39703 0.0
H651 H 0.50003 0.93452 0.34694 0.0
H652 H 0.6164 0.9795 0.36606 0.0
H653 H 0.55657 0.94874 0.36848 0.0
H654 H 0.50103 0.05647 0.36889 0.0
H655 H 0.56165 0.08774 0.36705 0.0
C656 C 0.42457 0.97872 0.38835 0.0
C657 C 0.41617 0.94611 0.3751 0.0
C658 C 0.45945 0.99562 0.38656 0.0
C659 C 0.48712 0.98057 0.37137 0.0
C660 C 0.47938 0.94693 0.35886 0.0
C661 C 0.44423 0.92979 0.36076 0.0
C662 C 0.59155 -0.00307 0.36662 0.0
C663 C 0.59408 0.03637 0.3665 0.0
C664 C 0.55706 0.97904 0.36782 0.0
C665 C 0.52383 -7e-05 0.36893 0.0
C666 C 0.52613 0.03941 0.36843 0.0
C667 C 0.56085 0.05743 0.36723 0.0
H668 H 0.09001 0.464 0.43983 0.0
H669 H 0.03714 0.41394 0.50217 0.0
H670 H 0.04243 0.51383 0.43981 0.0
H671 H 0.99002 0.46405 0.502 0.0
H672 H 0.94895 0.59557 0.50297 0.0
H673 H -0.00365 0.54564 0.50513 0.0
H674 H 0.96123 0.50479 0.43527 0.0
H675 H 0.91297 0.5538 0.43333 0.0
C676 C 0.06886 0.46403 0.45385 0.0
C677 C 0.06766 0.43499 0.4711 0.0
C678 C 0.04144 0.49237 0.45367 0.0
C679 C 0.01268 0.4927 0.471 0.0
C680 C 0.0122 0.46458 0.48872 0.0
C681 C 0.03917 0.43592 0.48871 0.0
C682 C 0.95083 0.5755 0.48828 0.0
C683 C 0.92688 0.57849 0.46807 0.0
C684 C 0.97804 0.54708 0.48951 0.0
C685 C 0.98264 0.52171 0.47026 0.0
C686 C 0.95841 0.52422 0.45026 0.0
C687 C 0.93053 0.552 0.4493 0.0
H688 H 0.30139 0.27933 0.09705 0.0
H689 H 0.3205 0.26699 0.17399 0.0
H690 H 0.35954 0.24695 0.08869 0.0
H691 H 0.37783 0.23214 0.1657 0.0
H692 H 0.50067 0.22676 0.14298 0.0
H693 H 0.43774 0.24635 0.15322 0.0
H694 H 0.3964 0.1937 0.08785 0.0
H695 H 0.46 0.17609 0.07698 0.0
C696 C 0.31756 0.2687 0.1122 0.0
C697 C 0.30669 0.27614 0.13619 0.0
C698 C 0.35093 0.24981 0.10741 0.0
C699 C 0.37384 0.23717 0.12651 0.0
C700 C 0.36151 0.24238 0.15053 0.0
C701 C 0.32851 0.26207 0.15532 0.0
C702 C 0.47807 0.21903 0.13093 0.0
C703 C 0.48528 0.20018 0.10909 0.0
C704 C 0.4418 0.23 0.1369 0.0
C705 C 0.41172 0.22176 0.12137 0.0
C706 C 0.41886 0.20128 0.10003 0.0
C707 C 0.45529 0.19096 0.09384 0.0
H708 H 0.75269 0.45674 0.11798 0.0
H709 H 0.69347 0.47554 0.18528 0.0
H710 H 0.73569 0.39176 0.11884 0.0
H711 H 0.67643 0.40892 0.18615 0.0
H712 H 0.61537 0.30333 0.14778 0.0
H713 H 0.63644 0.36501 0.16117 0.0
H714 H 0.74965 0.33504 0.1419 0.0
H715 H 0.72829 0.27429 0.12755 0.0
C716 C 0.73616 0.44701 0.13313 0.0
C717 C 0.72451 0.47151 0.15161 0.0
C718 C 0.72677 0.40943 0.13374 0.0
C719 C 0.70546 0.39499 0.15286 0.0
C720 C 0.69319 0.41933 0.17131 0.0
C721 C 0.70284 0.45736 0.17076 0.0
C722 C 0.64491 0.30959 0.14719 0.0
C723 C 0.67018 0.28462 0.13617 0.0
C724 C 0.65698 0.34483 0.15491 0.0
C725 C 0.69449 0.35512 0.15194 0.0
C726 C 0.72037 0.32817 0.14377 0.0
C727 C 0.70824 0.2934 0.13564 0.0
H728 H 0.65273 0.70978 0.13721 0.0
H729 H 0.62937 0.63336 0.196 0.0
H730 H 0.5968 0.74478 0.14641 0.0
H731 H 0.57265 0.66938 0.20556 0.0
H732 H 0.45221 0.70755 0.17551 0.0
H733 H 0.51217 0.67878 0.18483 0.0
H734 H 0.56612 0.78561 0.17536 0.0
H735 H 0.5062 0.81415 0.16503 0.0
C736 C 0.63583 0.70059 0.15233 0.0
C737 C 0.64539 0.66845 0.1657 0.0
C738 C 0.6039 0.72114 0.15787 0.0
C739 C 0.58047 0.71025 0.17697 0.0
C740 C 0.59026 0.67852 0.19078 0.0
C741 C 0.62262 0.65788 0.18527 0.0
C742 C 0.4766 0.72528 0.17634 0.0
C743 C 0.47474 0.76286 0.16875 0.0
C744 C 0.51107 0.70872 0.18176 0.0
C745 C 0.54401 0.72967 0.17998 0.0
C746 C 0.54126 0.76853 0.1761 0.0
C747 C 0.50693 0.78495 0.17033 0.0
H748 H 0.31264 0.45763 0.15351 0.0
H749 H 0.22152 0.50841 0.19318 0.0
H750 H 0.33424 0.51976 0.14165 0.0
H751 H 0.24259 0.57018 0.18102 0.0
H752 H 0.30616 0.67797 0.16672 0.0
H753 H 0.29114 0.61699 0.18348 0.0
H754 H 0.30785 0.56649 0.1131 0.0
H755 H 0.32384 0.62753 0.09632 0.0
C756 C 0.29795 0.48206 0.16034 0.0
C757 C 0.26528 0.47824 0.17414 0.0
C758 C 0.30992 0.51757 0.1532 0.0
C759 C 0.2896 0.54975 0.15996 0.0
C760 C 0.25883 0.54596 0.17549 0.0
C761 C 0.2468 0.51056 0.1825 0.0
C762 C 0.30631 0.65397 0.1547 0.0
C763 C 0.31624 0.65766 0.13014 0.0
C764 C 0.29777 0.61899 0.16437 0.0
C765 C 0.29887 0.58689 0.14971 0.0
C766 C 0.30764 0.59065 0.12498 0.0
C767 C 0.3162 0.62571 0.11528 0.0
H768 H 0.36228 0.63871 0.86294 0.0
H769 H 0.30615 0.69453 0.92234 0.0
H770 H 0.41768 0.67639 0.87039 0.0
H771 H 0.36104 0.73261 0.92934 0.0
H772 H 0.48251 0.74973 0.95509 0.0
H773 H 0.42332 0.72027 0.94534 0.0
H774 H 0.44253 0.74018 0.86911 0.0
H775 H 0.50215 0.76911 0.87875 0.0
C776 C 0.36155 0.65932 0.87734 0.0
C777 C 0.32994 0.66333 0.89218 0.0
C778 C 0.3932 0.68107 0.88152 0.0
C779 C 0.39375 0.70728 0.90055 0.0
C780 C 0.36165 0.71222 0.91479 0.0
C781 C 0.33013 0.69046 0.91068 0.0
C782 C 0.47399 0.7482 0.93626 0.0
C783 C 0.49719 0.76154 0.9177 0.0
C784 C 0.43995 0.73148 0.93068 0.0
C785 C 0.42839 0.72778 0.90644 0.0
C786 C 0.45099 0.74219 0.88793 0.0
C787 C 0.48504 0.75895 0.89349 0.0
H788 H 0.31985 0.4698 0.86174 0.0
H789 H 0.20726 0.43949 0.84204 0.0
H790 H 0.33655 0.40345 0.86469 0.0
H791 H 0.22398 0.37342 0.84485 0.0
H792 H 0.25204 0.28555 0.90663 0.0
H793 H 0.23664 0.34331 0.88537 0.0
H794 H 0.34133 0.3373 0.84675 0.0
H795 H 0.35673 0.27903 0.86793 0.0
C796 C 0.29915 0.44903 0.85703 0.0
C797 C 0.26209 0.45969 0.85222 0.0
C798 C 0.30868 0.41103 0.85872 0.0
C799 C 0.28125 0.38339 0.85551 0.0
C800 C 0.24542 0.39419 0.84785 0.0
C801 C 0.23593 0.43199 0.84621 0.0
C802 C 0.27135 0.29599 0.89316 0.0
C803 C 0.3057 0.27796 0.88913 0.0
C804 C 0.26246 0.32897 0.88085 0.0
C805 C 0.28792 0.34484 0.86446 0.0
C806 C 0.32133 0.32569 0.85935 0.0
C807 C 0.32998 0.29229 0.8714 0.0
H808 H 0.61139 0.34883 0.86111 0.0
H809 H 0.67127 0.30871 0.92415 0.0
H810 H 0.55804 0.31048 0.87235 0.0
H811 H 0.6187 0.26946 0.93489 0.0
H812 H 0.50157 0.24035 0.96215 0.0
H813 H 0.55714 0.27504 0.95048 0.0
H814 H 0.53667 0.24768 0.87528 0.0
H815 H 0.48031 0.21475 0.88683 0.0
C816 C 0.6133 0.3315 0.87718 0.0
C817 C 0.64535 0.33205 0.89184 0.0
C818 C 0.58284 0.30934 0.88359 0.0
C819 C 0.58402 0.28696 0.9046 0.0
C820 C 0.61651 0.2869 0.91888 0.0
C821 C 0.64673 0.3093 0.91264 0.0
C822 C 0.50904 0.24174 0.94317 0.0
C823 C 0.48624 0.22536 0.92543 0.0
C824 C 0.54103 0.26135 0.93646 0.0
C825 C 0.55119 0.26444 0.9119 0.0
C826 C 0.5292 0.24663 0.89429 0.0
C827 C 0.49702 0.22747 0.90096 0.0
H828 H 0.75729 0.54149 0.81673 0.0
H829 H 0.65208 0.51089 0.84918 0.0
H830 H 0.74091 0.60749 0.8208 0.0
H831 H 0.6357 0.57706 0.85313 0.0
H832 H 0.72848 0.69442 0.88599 0.0
H833 H 0.73871 0.63697 0.86308 0.0
H834 H 0.62619 0.64344 0.83511 0.0
H835 H 0.61596 0.70141 0.85783 0.0
C836 C 0.73004 0.54882 0.82388 0.0
C837 C 0.70634 0.52108 0.83321 0.0
C838 C 0.72077 0.58661 0.82625 0.0
C839 C 0.6875 0.59728 0.83778 0.0
C840 C 0.66159 0.56955 0.84418 0.0
C841 C 0.67095 0.53161 0.84189 0.0
C842 C 0.70625 0.68416 0.87446 0.0
C843 C 0.67137 0.70224 0.87388 0.0
C844 C 0.71216 0.65139 0.86121 0.0
C845 C 0.68315 0.63577 0.84736 0.0
C846 C 0.64893 0.65492 0.84567 0.0
C847 C 0.64321 0.68813 0.85862 0.0
H848 H 0.84676 0.79853 0.62575 0.0
H849 H 0.8603 0.85479 0.69468 0.0
H850 H 0.90221 0.76148 0.63367 0.0
H851 H 0.91665 0.8171 0.70254 0.0
H852 H 0.04095 0.77763 0.67587 0.0
H853 H 0.98205 0.81074 0.68218 0.0
H854 H 0.92166 0.71051 0.66366 0.0
H855 H 0.98038 0.67734 0.65705 0.0
C856 C 0.86149 0.803 0.64267 0.0
C857 C 0.84892 0.82958 0.65964 0.0
C858 C 0.89309 0.78138 0.64731 0.0
C859 C 0.91312 0.7858 0.66899 0.0
C860 C 0.90133 0.81293 0.68582 0.0
C861 C 0.86926 0.83452 0.68125 0.0
C862 C 0.01518 0.76216 0.67406 0.0
C863 C 0.01528 0.72516 0.66522 0.0
C864 C 0.98144 0.78121 0.67771 0.0
C865 C 0.94749 0.7634 0.67271 0.0
C866 C 0.94761 0.72504 0.66709 0.0
C867 C 0.98124 0.70603 0.66341 0.0
H868 H 0.30504 0.98023 0.63892 0.0
H869 H 0.20135 0.00871 0.67481 0.0
H870 H 0.28444 0.91609 0.63428 0.0
H871 H 0.1807 0.94366 0.67006 0.0
H872 H 0.17134 0.81345 0.66842 0.0
H873 H 0.19797 0.87348 0.68076 0.0
H874 H 0.23108 0.89432 0.60674 0.0
H875 H 0.20444 0.83474 0.59433 0.0
C876 C 0.27794 0.9727 0.64606 0.0
C877 C 0.25436 -0.00034 0.65675 0.0
C878 C 0.26628 0.93595 0.64342 0.0
C879 C 0.23087 0.92531 0.65146 0.0
C880 C 0.20821 0.95141 0.66374 0.0
C881 C 0.21992 0.9885 0.66639 0.0
C882 C 0.18481 0.83064 0.65487 0.0
C883 C 0.18589 0.81951 0.6304 0.0
C884 C 0.19971 0.86499 0.66193 0.0
C885 C 0.21645 0.88827 0.64469 0.0
C886 C 0.21855 0.8766 0.6204 0.0
C887 C 0.20323 0.84261 0.61329 0.0
H888 H 0.01681 0.27209 0.58338 0.0
H889 H 0.96869 0.25326 0.6542 0.0
H890 H 0.07629 0.24753 0.59781 0.0
H891 H 0.02868 0.22893 0.66866 0.0
H892 H 0.13434 0.14571 0.66881 0.0
H893 H 0.0724 0.17295 0.66062 0.0
H894 H 0.12442 0.269 0.62758 0.0
H895 H 0.18561 0.24202 0.6355 0.0
C896 C 0.01892 0.26286 0.60205 0.0
C897 C 0.98805 0.26485 0.61766 0.0
C898 C 0.05306 0.24896 0.61035 0.0
C899 C 0.05711 0.23669 0.63444 0.0
C900 C 0.02622 0.23816 0.65002 0.0
C901 C 0.99202 0.25229 0.64174 0.0
C902 C 0.13238 0.17303 0.66037 0.0
C903 C 0.16463 0.19148 0.65242 0.0
C904 C 0.09705 0.18855 0.65562 0.0
C905 C 0.09377 0.22263 0.64296 0.0
C906 C 0.12616 0.24225 0.6368 0.0
C907 C 0.16117 0.22685 0.64146 0.0
H908 H 0.84217 0.20576 0.66595 0.0
H909 H 0.75328 0.19614 0.61327 0.0
H910 H 0.82166 0.14772 0.68519 0.0
H911 H 0.73324 0.13849 0.63211 0.0
H912 H 0.69592 0.03872 0.66601 0.0
H913 H 0.7082 0.10572 0.66657 0.0
H914 H 0.82676 0.0827 0.67005 0.0
H915 H 0.81406 0.01542 0.67061 0.0
C916 C 0.81766 0.19183 0.6589 0.0
C917 C 0.79964 0.20507 0.63788 0.0
C918 C 0.8061 0.15855 0.66984 0.0
C919 C 0.77608 0.13837 0.66008 0.0
C920 C 0.75624 0.15348 0.6403 0.0
C921 C 0.76792 0.18642 0.62931 0.0
C922 C 0.72452 0.04814 0.66768 0.0
C923 C 0.75418 0.02231 0.66779 0.0
C924 C 0.73155 0.08639 0.66797 0.0
C925 C 0.76843 0.09944 0.66773 0.0
C926 C 0.79801 0.07351 0.67029 0.0
C927 C 0.79086 0.03504 0.67047 0.0
H928 H 0.85549 0.18486 0.3551 0.0
H929 H 0.84751 0.14449 0.42873 0.0
H930 H 0.90818 0.22393 0.36674 0.0
H931 H 0.90106 0.18189 0.44014 0.0
H932 H 0.98036 0.27495 0.45936 0.0
H933 H 0.92335 0.2425 0.44755 0.0
H934 H 0.97121 0.21919 0.37714 0.0
H935 H 0.02688 0.25289 0.38844 0.0
C936 C 0.86526 0.18405 0.37369 0.0
C937 C 0.84743 0.16156 0.39095 0.0
C938 C 0.89553 0.20635 0.3804 0.0
C939 C 0.90903 0.20611 0.40443 0.0
C940 C 0.89109 0.18348 0.42162 0.0
C941 C 0.86053 0.16171 0.415 0.0
C942 C 0.97843 0.26321 0.44129 0.0
C943 C 0.00811 0.26666 0.42485 0.0
C944 C 0.94588 0.24435 0.43455 0.0
C945 C 0.94256 0.22813 0.41134 0.0
C946 C 0.97226 0.23192 0.39494 0.0
C947 C 0.00444 0.2511 0.40154 0.0
H948 H 0.84366 0.99183 0.35007 0.0
H949 H 0.74312 0.95357 0.31474 0.0
H950 H 0.8628 0.9269 0.35676 0.0
H951 H 0.76223 0.88884 0.3216 0.0
H952 H 0.77191 0.80878 0.39047 0.0
H953 H 0.76214 0.8649 0.3661 0.0
H954 H 0.87603 0.85843 0.3408 0.0
H955 H 0.88575 0.8016 0.36494 0.0
C956 C 0.82654 0.96966 0.34269 0.0
C957 C 0.79145 0.9777 0.33246 0.0
C958 C 0.83747 0.93245 0.34658 0.0
C959 C 0.81344 0.90305 0.34022 0.0
C960 C 0.78087 0.91111 0.32703 0.0
C961 C 0.77005 0.94816 0.32306 0.0
C962 C 0.79463 0.81887 0.37935 0.0
C963 C 0.82958 0.80096 0.37969 0.0
C964 C 0.78898 0.85079 0.36524 0.0
C965 C 0.81834 0.8658 0.35149 0.0
C966 C 0.85297 0.84726 0.35117 0.0
C967 C 0.85842 0.81478 0.36493 0.0
H968 H 0.12488 0.86113 0.36564 0.0
H969 H 0.17593 0.83025 0.43395 0.0
H970 H 0.07087 0.82279 0.37554 0.0
H971 H 0.12245 0.79144 0.44351 0.0
H972 H 0.00064 0.76214 0.46313 0.0
H973 H 0.05691 0.79755 0.45407 0.0
H974 H 0.05396 0.75745 0.38016 0.0
H975 H -0.00257 0.72273 0.38902 0.0
C976 C 0.12464 0.84612 0.38271 0.0
C977 C 0.1546 0.84896 0.39903 0.0
C978 C 0.09383 0.82394 0.38832 0.0
C979 C 0.09243 0.80402 0.41031 0.0
C980 C 0.12244 0.80683 0.42659 0.0
C981 C 0.15314 0.82905 0.42104 0.0
C982 C 0.01227 0.76049 0.44504 0.0
C983 C 0.99438 0.73983 0.42677 0.0
C984 C 0.04454 0.78076 0.43984 0.0
C985 C 0.05961 0.78066 0.4163 0.0
C986 C 0.04256 0.75877 0.39833 0.0
C987 C 0.01031 0.73862 0.40348 0.0
H988 H 0.28451 0.05705 0.33592 0.0
H989 H 0.17203 0.02541 0.35521 0.0
H990 H 0.26911 0.1224 0.3438 0.0
H991 H 0.15667 0.09116 0.36268 0.0
H992 H 0.13918 0.21726 0.36781 0.0
H993 H 0.15408 0.15999 0.34549 0.0
H994 H 0.25509 0.14689 0.38751 0.0
H995 H 0.24004 0.20372 0.41016 0.0
C996 C 0.25615 0.06408 0.3411 0.0
C997 C 0.22971 0.03587 0.34551 0.0
C998 C 0.24745 0.10154 0.34564 0.0
C999 C 0.21199 0.11159 0.35425 0.0
C1000 C 0.18427 0.08404 0.35604 0.0
C1001 C 0.19308 0.04639 0.35175 0.0
C1002 C 0.16501 0.20265 0.37194 0.0
C1003 C 0.18837 0.21485 0.39089 0.0
C1004 C 0.17337 0.16982 0.3592 0.0
C1005 C 0.20563 0.14913 0.36481 0.0
C1006 C 0.23018 0.16259 0.38268 0.0
C1007 C 0.2215 0.19499 0.39572 0.0
H1008 H 0.18982 0.21965 0.12715 0.0
H1009 H 0.12393 0.27816 0.07372 0.0
H1010 H 0.21223 0.1765 0.09582 0.0
H1011 H 0.14722 0.23703 0.04235 0.0
H1012 H 0.19584 0.16879 0.98452 0.0
H1013 H 0.1576 0.1849 0.01973 0.0
H1014 H 0.25591 0.17863 0.06526 0.0
H1015 H 0.2929 0.16011 0.03028 0.0
C1016 C 0.17877 0.22225 0.10893 0.0
C1017 C 0.15476 0.2522 0.10303 0.0
C1018 C 0.19237 0.19805 0.0907 0.0
C1019 C 0.18255 0.2034 0.06606 0.0
C1020 C 0.15561 0.23122 0.06082 0.0
C1021 C 0.14193 0.25503 0.07898 0.0
C1022 C 0.20871 0.16912 1.00231 0.0
C1023 C 0.24718 0.16231 1.00471 0.0
C1024 C 0.18699 0.17917 0.02256 0.0
C1025 C 0.20341 0.18407 0.04569 0.0
C1026 C 0.24162 0.17484 0.04815 0.0
C1027 C 0.26307 0.16405 0.02799 0.0
H1028 H 0.81757 0.32639 0.95834 0.0
H1029 H 0.77743 0.25584 0.90063 0.0
H1030 H 0.80225 0.2787 0.98785 0.0
H1031 H 0.76255 0.20698 0.93032 0.0
H1032 H 0.68153 0.1712 0.99395 0.0
H1033 H 0.71471 0.19945 0.96005 0.0
H1034 H 0.80898 0.22054 1.00699 0.0
H1035 H 0.77471 0.19357 0.04101 0.0
C1036 C 0.80677 0.29994 0.95185 0.0
C1037 C 0.79885 0.29501 0.92708 0.0
C1038 C 0.79796 0.27231 0.96886 0.0
C1039 C 0.78069 0.23873 0.96173 0.0
C1040 C 0.77531 0.23259 0.93666 0.0
C1041 C 0.78441 0.26037 0.91951 0.0
C1042 C 0.71005 0.18023 0.99669 0.0
C1043 C 0.72579 0.17945 0.02004 0.0
C1044 C 0.72915 0.19673 0.97722 0.0
C1045 C 0.76452 0.21307 0.98065 0.0
C1046 C 0.78154 0.20909 1.00362 0.0
C1047 C 0.76223 0.19292 0.02311 0.0
H1048 H 0.78963 0.78273 0.97375 0.0
H1049 H 0.70356 0.83421 0.01704 0.0
H1050 H 0.82397 0.76587 1.01032 0.0
H1051 H 0.73549 0.8146 0.05374 0.0
H1052 H 0.7862 0.76903 0.11955 0.0
H1053 H 0.77663 0.80894 0.08418 0.0
H1054 H 0.82412 0.72191 0.03883 0.0
H1055 H 0.83614 0.68433 0.07439 0.0
C1056 C 0.77848 0.79116 0.99119 0.0
C1057 C 0.74407 0.81014 0.99247 0.0
C1058 C 0.79779 0.78078 1.01236 0.0
C1059 C 0.78245 0.78755 0.03556 0.0
C1060 C 0.74904 0.80886 0.03663 0.0
C1061 C 0.73043 0.82032 0.01541 0.0
C1062 C 0.79677 0.7597 0.10215 0.0
C1063 C 0.8128 0.72387 0.0999 0.0
C1064 C 0.79021 0.78211 0.08157 0.0
C1065 C 0.79823 0.76868 0.05801 0.0
C1066 C 0.81753 0.73414 0.05625 0.0
C1067 C 0.82493 0.71234 0.07688 0.0
H1068 H 0.23569 0.72185 0.90268 0.0
H1069 H 0.15097 0.69382 0.95487 0.0
H1070 H 0.2676 0.75966 0.93333 0.0
H1071 H 0.1825 0.7316 0.98545 0.0
H1072 H 0.24656 0.80642 0.03755 0.0
H1073 H 0.20814 0.79192 1.00174 0.0
H1074 H 0.30243 0.73561 0.96899 0.0
H1075 H 0.34015 0.74957 1.00452 0.0
C1076 C 0.22272 0.72546 0.92027 0.0
C1077 C 0.19044 0.70524 0.92619 0.0
C1078 C 0.24138 0.7466 0.93803 0.0
C1079 C 0.22799 0.74833 0.96206 0.0
C1080 C 0.19362 0.73122 0.9672 0.0
C1081 C 0.1753 0.70972 0.94956 0.0
C1082 C 0.25919 0.79171 0.02244 0.0
C1083 C 0.2964 0.77904 0.02398 0.0
C1084 C 0.23715 0.78319 1.00196 0.0
C1085 C 0.2521 0.76258 0.98235 0.0
C1086 C 0.28994 0.75191 0.98346 0.0
C1087 C 0.31158 0.75972 1.004 0.0
H1088 H 0.76553 0.64044 0.51068 0.0
H1089 H 0.71549 0.73785 0.47739 0.0
H1090 H 0.73306 0.65507 0.54857 0.0
H1091 H 0.6847 0.75348 0.51504 0.0
H1092 H 0.63609 0.7879 0.58355 0.0
H1093 H 0.64398 0.74909 0.54733 0.0
H1094 H 0.74197 0.69807 0.57951 0.0
H1095 H 0.73273 0.73547 0.61567 0.0
C1096 C 0.74673 0.6643 0.51116 0.0
C1097 C 0.74351 0.68807 0.49092 0.0
C1098 C 0.72847 0.67316 0.53309 0.0
C1099 C 0.7066 0.7061 0.5354 0.0
C1100 C 0.70084 0.72779 0.51437 0.0
C1101 C 0.71885 0.71886 0.49257 0.0
C1102 C 0.65785 0.76668 0.58341 0.0
C1103 C 0.68347 0.7645 0.60267 0.0
C1104 C 0.6631 0.74498 0.56232 0.0
C1105 C 0.69442 0.72092 0.55986 0.0
C1106 C 0.71743 0.71586 0.58035 0.0
C1107 C 0.71198 0.73727 0.60139 0.0
H1108 H 0.23121 0.75456 0.54812 0.0
H1109 H 0.18545 0.66555 0.50481 0.0
H1110 H 0.26752 0.77605 0.51387 0.0
H1111 H 0.22272 0.68671 0.46992 0.0
H1112 H 0.2474 0.77838 0.40924 0.0
H1113 H 0.22304 0.73842 0.44151 0.0
H1114 H 0.31695 0.76798 0.48673 0.0
H1115 H 0.33987 0.80921 0.45488 0.0
C1116 C 0.22997 0.73876 0.53136 0.0
C1117 C 0.20592 0.70801 0.52932 0.0
C1118 C 0.25095 0.75105 0.51157 0.0
C1119 C 0.24848 0.73322 0.48884 0.0
C1120 C 0.22536 0.70137 0.48701 0.0
C1121 C 0.20436 0.68884 0.50708 0.0
C1122 C 0.26366 0.77495 0.42568 0.0
C1123 C 0.29591 0.79653 0.42935 0.0
C1124 C 0.24954 0.75217 0.44435 0.0
C1125 C 0.26747 0.75031 0.46713 0.0
C1126 C 0.30167 0.76928 0.46979 0.0
C1127 C 0.31534 0.79246 0.45133 0.0
H1128 H 0.29704 0.31648 0.48376 0.0
H1129 H 0.2057 0.34774 0.53026 0.0
H1130 H 0.33638 0.30472 0.51914 0.0
H1131 H 0.24328 0.33329 0.56574 0.0
H1132 H 0.36629 0.22348 0.58146 0.0
H1133 H 0.3468 0.26036 0.54699 0.0
H1134 H 0.28727 0.33572 0.59493 0.0
H1135 H 0.30494 0.29638 0.62923 0.0
C1136 C 0.28573 0.32182 0.50165 0.0
C1137 C 0.24853 0.33381 0.50421 0.0
C1138 C 0.30805 0.31431 0.52212 0.0
C1139 C 0.29333 0.31703 0.54586 0.0
C1140 C 0.25651 0.33115 0.54818 0.0
C1141 C 0.23462 0.3396 0.5277 0.0
C1142 C 0.35089 0.2492 0.58481 0.0
C1143 C 0.33754 0.25697 0.60825 0.0
C1144 C 0.33901 0.27042 0.56477 0.0
C1145 C 0.31393 0.30081 0.56757 0.0
C1146 C 0.30515 0.31177 0.59155 0.0
C1147 C 0.31643 0.2899 0.61154 0.0
H1148 H 0.70886 0.29496 0.54129 0.0
H1149 H 0.80246 0.32077 0.49554 0.0
H1150 H 0.67512 0.27002 0.50636 0.0
H1151 H 0.76983 0.29449 0.46069 0.0
H1152 H 0.66946 0.1662 0.45549 0.0
H1153 H 0.6827 0.213 0.48605 0.0
H1154 H 0.72262 0.28791 0.43041 0.0
H1155 H 0.70981 0.23992 0.39968 0.0
C1156 C 0.72153 0.29682 0.52351 0.0
C1157 C 0.75796 0.31059 0.52107 0.0
C1158 C 0.70253 0.28183 0.50348 0.0
C1159 C 0.71986 0.27932 0.48056 0.0
C1160 C 0.75516 0.29608 0.47781 0.0
C1161 C 0.77395 0.31145 0.49783 0.0
C1162 C 0.67968 0.19323 0.44964 0.0
C1163 C 0.68837 0.19932 0.42511 0.0
C1164 C 0.68736 0.22032 0.46725 0.0
C1165 C 0.70426 0.25447 0.46097 0.0
C1166 C 0.71014 0.26182 0.4361 0.0
C1167 C 0.70219 0.23457 0.41835 0.0
H1168 H 0.26313 0.56994 0.97886 0.0
H1169 H 0.21832 0.46591 0.95141 0.0
H1170 H 0.27094 0.5416 0.01871 0.0
H1171 H 0.2261 0.43782 0.99133 0.0
H1172 H 0.26179 0.38926 0.06125 0.0
H1173 H 0.27402 0.41945 0.02262 0.0
H1174 H 0.22183 0.52104 0.04881 0.0
H1175 H 0.20963 0.49096 0.08771 0.0
C1176 C 0.25544 0.54088 0.98121 0.0
C1177 C 0.23959 0.52023 0.96209 0.0
C1178 C 0.25989 0.5248 1.00403 0.0
C1179 C 0.24895 0.48774 1.00802 0.0
C1180 C 0.23507 0.46643 0.98861 0.0
C1181 C 0.23036 0.48257 0.96582 0.0
C1182 C 0.25337 0.41823 0.05895 0.0
C1183 C 0.23388 0.43753 0.07728 0.0
C1184 C 0.26045 0.43543 0.03685 0.0
C1185 C 0.24834 0.47223 0.03272 0.0
C1186 C 0.23153 0.49258 0.05165 0.0
C1187 C 0.22436 0.47533 0.07383 0.0
H1188 H 0.56001 0.26321 0.9961 0.0
H1189 H 0.55882 0.30496 0.06952 0.0
H1190 H 0.50043 0.29419 0.98846 0.0
H1191 H 0.4979 0.3338 0.06235 0.0
H1192 H 0.39109 0.31329 0.97776 0.0
H1193 H 0.44693 0.34587 0.99115 0.0
H1194 H 0.44942 0.27835 0.05606 0.0
H1195 H 0.3946 0.24489 0.04228 0.0
C1196 C 0.54785 0.28057 1.01017 0.0
C1197 C 0.56339 0.28113 0.03345 0.0
C1198 C 0.5138 0.29849 1.00584 0.0
C1199 C 0.49418 0.31547 0.02507 0.0
C1200 C 0.51245 0.32083 0.04729 0.0
C1201 C 0.54723 0.30409 0.05137 0.0
C1202 C 0.40224 0.30693 0.99557 0.0
C1203 C 0.38961 0.27564 1.00862 0.0
C1204 C 0.43415 0.32581 1.00326 0.0
C1205 C 0.45304 0.31385 0.0242 0.0
C1206 C 0.43561 0.28798 0.03969 0.0
C1207 C 0.4043 0.26851 0.03174 0.0
H1208 H 0.68287 0.58876 0.05521 0.0
H1209 H 0.80222 0.58143 0.0447 0.0
H1210 H 0.67313 0.57013 1.01279 0.0
H1211 H 0.79256 0.56373 1.00258 0.0
H1212 H 0.7692 0.5445 0.92563 0.0
H1213 H 0.76367 0.58469 0.96132 0.0
H1214 H 0.69145 0.50369 0.99506 0.0
H1215 H 0.69709 0.46331 0.95961 0.0
C1216 C 0.70692 0.58405 0.04368 0.0
C1217 C 0.74327 0.58577 0.05319 0.0
C1218 C 0.70135 0.5735 0.01952 0.0
C1219 C 0.73212 0.56561 1.00454 0.0
C1220 C 0.76839 0.57009 1.01368 0.0
C1221 C 0.77391 0.57977 0.03784 0.0
C1222 C 0.75138 0.5357 0.9404 0.0
C1223 C 0.73428 0.50039 0.94012 0.0
C1224 C 0.74816 0.55875 0.96074 0.0
C1225 C 0.72733 0.54708 0.98087 0.0
C1226 C 0.70744 0.51341 0.97966 0.0
C1227 C 0.71106 0.49013 0.95949 0.0
H1228 H 0.52363 0.72585 0.09315 0.0
H1229 H 0.44894 0.6553 0.05225 0.0
H1230 H 0.57629 0.69673 0.07424 0.0
H1231 H 0.50247 0.6237 0.03403 0.0
H1232 H 0.56892 0.68021 0.97209 0.0
H1233 H 0.53309 0.64771 1.00216 0.0
H1234 H 0.62145 0.66507 0.05466 0.0
H1235 H 0.65596 0.70063 0.0243 0.0
C1236 C 0.51849 0.70332 0.08043 0.0
C1237 C 0.48215 0.69475 0.07281 0.0
C1238 C 0.54906 0.68578 0.06976 0.0
C1239 C 0.54394 0.65932 0.05109 0.0
C1240 C 0.50755 0.64567 0.04713 0.0
C1241 C 0.47677 0.6638 0.05754 0.0
C1242 C 0.58121 0.67574 0.98985 0.0
C1243 C 0.61404 0.69406 0.99644 0.0
C1244 C 0.56076 0.65671 1.0073 0.0
C1245 C 0.57284 0.65648 0.03166 0.0
C1246 C 0.60999 0.66721 0.03654 0.0
C1247 C 0.63002 0.68732 0.01918 0.0
H1248 H 0.70827 0.957 0.42787 0.0
H1249 H 0.79779 0.02696 0.45393 0.0
H1250 H 0.71079 0.92097 0.46561 0.0
H1251 H 0.80074 0.99041 0.49131 0.0
H1252 H 0.68579 0.94226 0.5506 0.0
H1253 H 0.69323 0.95747 0.50783 0.0
H1254 H 0.8076 0.91874 0.51029 0.0
H1255 H 0.79994 0.90235 0.55328 0.0
C1256 C 0.7293 0.9638 0.44127 0.0
C1257 C 0.75237 0.99508 0.4383 0.0
C1258 C 0.73073 0.94323 0.46277 0.0
C1259 C 0.75584 0.95321 0.4812 0.0
C1260 C 0.78135 0.98214 0.47722 0.0
C1261 C 0.77942 0.00318 0.45598 0.0
C1262 C 0.71244 0.93669 0.542 0.0
C1263 C 0.74244 0.92157 0.55522 0.0
C1264 C 0.71651 0.94491 0.51751 0.0
C1265 C 0.75082 0.93882 0.50592 0.0
C1266 C 0.78081 0.92327 0.51895 0.0
C1267 C 0.77646 0.91414 0.54343 0.0
H1268 H 0.85827 0.74348 0.53966 0.0
H1269 H 0.8813 0.83245 0.48912 0.0
H1270 H 0.89434 0.77486 0.57037 0.0
H1271 H 0.91816 0.86444 0.52 0.0
H1272 H 0.03666 0.80858 0.53935 0.0
H1273 H 0.97813 0.83506 0.52523 0.0
H1274 H 0.92881 0.81554 0.59565 0.0
H1275 H 0.98727 0.78724 0.60928 0.0
C1276 C 0.86965 0.77081 0.53558 0.0
C1277 C 0.86873 0.78479 0.51191 0.0
C1278 C 0.89022 0.78924 0.55328 0.0
C1279 C 0.91112 0.82118 0.54715 0.0
C1280 C 0.90353 0.83911 0.52494 0.0
C1281 C 0.88245 0.82079 0.50724 0.0
C1282 C 0.01371 0.81125 0.55204 0.0
C1283 C 0.01557 0.79426 0.57485 0.0
C1284 C 0.98008 0.82696 0.54411 0.0
C1285 C 0.94808 0.82574 0.559 0.0
C1286 C 0.95251 0.81554 0.58346 0.0
C1287 C 0.98584 0.79903 0.59118 0.0
H1288 H 0.22448 0.97588 0.4675 0.0
H1289 H 0.30614 0.04586 0.43216 0.0
H1290 H 0.22512 0.01745 0.50263 0.0
H1291 H 0.307 0.08703 0.46753 0.0
H1292 H 0.22266 0.11283 0.55733 0.0
H1293 H 0.21351 0.08835 0.51627 0.0
H1294 H 0.33175 0.06564 0.51082 0.0
H1295 H 0.34092 0.08934 0.55187 0.0
C1296 C 0.24207 0.00044 0.46708 0.0
C1297 C 0.26568 0.00736 0.4473 0.0
C1298 C 0.24216 0.02434 0.48705 0.0
C1299 C 0.26621 0.05517 0.48764 0.0
C1300 C 0.2883 0.0633 0.46737 0.0
C1301 C 0.28778 0.03975 0.44722 0.0
C1302 C 0.24673 0.10318 0.54717 0.0
C1303 C 0.28243 0.10248 0.55777 0.0
C1304 C 0.24146 0.08924 0.52378 0.0
C1305 C 0.27195 0.07531 0.51057 0.0
C1306 C 0.30791 0.07664 0.52065 0.0
C1307 C 0.31308 0.08984 0.54415 0.0
H1308 H 0.92266 0.23274 0.49584 0.0
H1309 H 0.92667 0.18299 0.56712 0.0
H1310 H 0.98418 0.20693 0.48704 0.0
H1311 H 0.98913 0.15862 0.55873 0.0
H1312 H 0.09217 0.25009 0.54228 0.0
H1313 H 0.03574 0.21741 0.55417 0.0
H1314 H 0.03873 0.15406 0.48756 0.0
H1315 H 0.09628 0.18546 0.47615 0.0
C1316 C 0.93588 0.21454 0.50908 0.0
C1317 C 0.92039 0.21027 0.53221 0.0
C1318 C 0.97105 0.19956 0.50407 0.0
C1319 C 0.99153 0.18129 0.52243 0.0
C1320 C 0.97378 0.17248 0.54432 0.0
C1321 C 0.93807 0.18652 0.54908 0.0
C1322 C 0.08214 0.22748 0.53095 0.0
C1323 C 0.09789 0.22093 0.50809 0.0
C1324 C 0.0499 0.20856 0.53778 0.0
C1325 C 0.03256 0.18388 0.52145 0.0
C1326 C 0.05162 0.17302 0.50038 0.0
C1327 C 0.08453 0.19116 0.49387 0.0
loop_
_geom_bond_atom_site_label_1
_geom_bond_atom_site_label_2
_geom_bond_distance
_geom_bond_site_symmetry_2
_ccdc_geom_bond_type
O0 Zn1 1.953 . S
O0 C16 1.225 . S
Zn1 O0 1.953 . S
Zn1 O2 1.949 . S
Zn1 O8 1.919 . S
Zn1 O13 1.924 . S
O2 Zn1 1.949 . S
O2 Zn3 1.923 . S
O2 Zn4 1.950 . S
O2 Zn5 1.945 . S
Zn3 O2 1.923 . S
Zn3 O6 1.933 . S
Zn3 O9 1.941 . S
Zn3 O10 1.965 . S
Zn4 O2 1.950 . S
Zn4 O11 1.938 . S
Zn4 O12 1.906 . S
Zn4 O22 1.953 . S
Zn5 O2 1.945 . S
Zn5 O7 1.932 . S
Zn5 O14 1.977 . S
Zn5 O15 1.910 . S
O6 Zn3 1.933 . S
O6 C17 1.226 . S
O7 Zn5 1.932 . S
O7 C17 1.307 . S
O8 Zn1 1.919 . S
O8 C19 1.253 . S
O9 Zn3 1.941 . S
O9 C19 1.283 . S
O10 Zn3 1.965 . S
O10 C18 1.303 . S
O11 Zn4 1.938 . S
O11 C18 1.247 . S
O12 Zn4 1.906 . S
O12 C20 1.304 . S
O13 Zn1 1.924 . S
O13 C21 1.311 . S
O14 Zn5 1.977 . S
O14 C20 1.272 . S
O15 Zn5 1.910 . S
O15 C21 1.231 . S
C16 O0 1.225 . S
C16 O22 1.298 . S
C17 O6 1.226 . S
C17 O7 1.307 . S
C18 O10 1.303 . S
C18 O11 1.247 . S
C19 O8 1.253 . S
C19 O9 1.283 . S
C20 O12 1.304 . S
C20 O14 1.272 . S
C21 O13 1.311 . S
C21 O15 1.231 . S
O22 Zn4 1.953 . S
O22 C16 1.298 . S
O23 Zn24 1.953 . S
O23 C39 1.225 . S
Zn24 O23 1.953 . S
Zn24 O25 1.949 . S
Zn24 O31 1.919 . S
Zn24 O36 1.924 . S
O25 Zn24 1.949 . S
O25 Zn26 1.923 . S
O25 Zn27 1.950 . S
O25 Zn28 1.945 . S
Zn26 O25 1.923 . S
Zn26 O29 1.933 . S
Zn26 O32 1.941 . S
Zn26 O33 1.965 . S
Zn27 O25 1.950 . S
Zn27 O34 1.938 . S
Zn27 O35 1.906 . S
Zn27 O45 1.953 . S
Zn28 O25 1.945 . S
Zn28 O30 1.932 . S
Zn28 O37 1.977 . S
Zn28 O38 1.910 . S
O29 Zn26 1.933 . S
O29 C40 1.226 . S
O30 Zn28 1.932 . S
O30 C40 1.307 . S
O31 Zn24 1.919 . S
O31 C42 1.253 . S
O32 Zn26 1.941 . S
O32 C42 1.283 . S
O33 Zn26 1.965 . S
O33 C41 1.303 . S
O34 Zn27 1.938 . S
O34 C41 1.247 . S
O35 Zn27 1.906 . S
O35 C43 1.304 . S
O36 Zn24 1.924 . S
O36 C44 1.311 . S
O37 Zn28 1.977 . S
O37 C43 1.272 . S
O38 Zn28 1.910 . S
O38 C44 1.231 . S
C39 O23 1.225 . S
C39 O45 1.298 . S
C40 O29 1.226 . S
C40 O30 1.307 . S
C41 O33 1.303 . S
C41 O34 1.247 . S
C42 O31 1.253 . S
C42 O32 1.283 . S
C43 O35 1.304 . S
C43 O37 1.272 . S
C44 O36 1.311 . S
C44 O38 1.231 . S
O45 Zn27 1.953 . S
O45 C39 1.298 . S
O46 Zn47 1.953 . S
O46 C62 1.225 . S
Zn47 O46 1.953 . S
Zn47 O48 1.949 . S
Zn47 O54 1.919 . S
Zn47 O59 1.924 . S
O48 Zn47 1.949 . S
O48 Zn49 1.923 . S
O48 Zn50 1.950 . S
O48 Zn51 1.945 . S
Zn49 O48 1.923 . S
Zn49 O52 1.933 . S
Zn49 O55 1.941 . S
Zn49 O56 1.965 . S
Zn50 O48 1.950 . S
Zn50 O57 1.938 . S
Zn50 O58 1.906 . S
Zn50 O68 1.953 . S
Zn51 O48 1.945 . S
Zn51 O53 1.932 . S
Zn51 O60 1.977 . S
Zn51 O61 1.910 . S
O52 Zn49 1.933 . S
O52 C63 1.226 . S
O53 Zn51 1.932 . S
O53 C63 1.307 . S
O54 Zn47 1.919 . S
O54 C65 1.253 . S
O55 Zn49 1.941 . S
O55 C65 1.283 . S
O56 Zn49 1.965 . S
O56 C64 1.303 . S
O57 Zn50 1.938 . S
O57 C64 1.247 . S
O58 Zn50 1.906 . S
O58 C66 1.304 . S
O59 Zn47 1.924 . S
O59 C67 1.311 . S
O60 Zn51 1.977 . S
O60 C66 1.272 . S
O61 Zn51 1.910 . S
O61 C67 1.231 . S
C62 O46 1.225 . S
C62 O68 1.298 . S
C63 O52 1.226 . S
C63 O53 1.307 . S
C64 O56 1.303 . S
C64 O57 1.247 . S
C65 O54 1.253 . S
C65 O55 1.283 . S
C66 O58 1.304 . S
C66 O60 1.272 . S
C67 O59 1.311 . S
C67 O61 1.231 . S
O68 Zn50 1.953 . S
O68 C62 1.298 . S
O69 Zn70 1.953 . S
O69 C85 1.225 . S
Zn70 O69 1.953 . S
Zn70 O71 1.949 . S
Zn70 O77 1.919 . S
Zn70 O82 1.924 . S
O71 Zn70 1.949 . S
O71 Zn72 1.923 . S
O71 Zn73 1.950 . S
O71 Zn74 1.945 . S
Zn72 O71 1.923 . S
Zn72 O75 1.933 . S
Zn72 O78 1.941 . S
Zn72 O79 1.965 . S
Zn73 O71 1.950 . S
Zn73 O80 1.938 . S
Zn73 O81 1.906 . S
Zn73 O91 1.953 . S
Zn74 O71 1.945 . S
Zn74 O76 1.932 . S
Zn74 O83 1.977 . S
Zn74 O84 1.910 . S
O75 Zn72 1.933 . S
O75 C86 1.226 . S
O76 Zn74 1.932 . S
O76 C86 1.307 . S
O77 Zn70 1.919 . S
O77 C88 1.253 . S
O78 Zn72 1.941 . S
O78 C88 1.283 . S
O79 Zn72 1.965 . S
O79 C87 1.303 . S
O80 Zn73 1.938 . S
O80 C87 1.247 . S
O81 Zn73 1.906 . S
O81 C89 1.304 . S
O82 Zn70 1.924 . S
O82 C90 1.311 . S
O83 Zn74 1.977 . S
O83 C89 1.272 . S
O84 Zn74 1.910 . S
O84 C90 1.231 . S
C85 O69 1.225 . S
C85 O91 1.298 . S
C86 O75 1.226 . S
C86 O76 1.307 . S
C87 O79 1.303 . S
C87 O80 1.247 . S
C88 O77 1.253 . S
C88 O78 1.283 . S
C89 O81 1.304 . S
C89 O83 1.272 . S
C90 O82 1.311 . S
C90 O84 1.231 . S
O91 Zn73 1.953 . S
O91 C85 1.298 . S
O92 Zn93 1.953 . S
O92 C108 1.225 . S
Zn93 O92 1.953 . S
Zn93 O94 1.949 . S
Zn93 O100 1.919 . S
Zn93 O105 1.924 . S
O94 Zn93 1.949 . S
O94 Zn95 1.923 . S
O94 Zn96 1.950 . S
O94 Zn97 1.945 . S
Zn95 O94 1.923 . S
Zn95 O98 1.933 . S
Zn95 O101 1.941 . S
Zn95 O102 1.965 . S
Zn96 O94 1.950 . S
Zn96 O103 1.938 . S
Zn96 O104 1.906 . S
Zn96 O114 1.953 . S
Zn97 O94 1.945 . S
Zn97 O99 1.932 . S
Zn97 O106 1.977 . S
Zn97 O107 1.910 . S
O98 Zn95 1.933 . S
O98 C109 1.226 . S
O99 Zn97 1.932 . S
O99 C109 1.307 . S
O100 Zn93 1.919 . S
O100 C111 1.253 . S
O101 Zn95 1.941 . S
O101 C111 1.283 . S
O102 Zn95 1.965 . S
O102 C110 1.303 . S
O103 Zn96 1.938 . S
O103 C110 1.247 . S
O104 Zn96 1.906 . S
O104 C112 1.304 . S
O105 Zn93 1.924 . S
O105 C113 1.311 . S
O106 Zn97 1.977 . S
O106 C112 1.272 . S
O107 Zn97 1.910 . S
O107 C113 1.231 . S
C108 O92 1.225 . S
C108 O114 1.298 . S
C109 O98 1.226 . S
C109 O99 1.307 . S
C110 O102 1.303 . S
C110 O103 1.247 . S
C111 O100 1.253 . S
C111 O101 1.283 . S
C112 O104 1.304 . S
C112 O106 1.272 . S
C113 O105 1.311 . S
C113 O107 1.231 . S
O114 Zn96 1.953 . S
O114 C108 1.298 . S
O115 Zn116 1.953 . S
O115 C131 1.225 . S
Zn116 O115 1.953 . S
Zn116 O117 1.949 . S
Zn116 O123 1.919 . S
Zn116 O128 1.924 . S
O117 Zn116 1.949 . S
O117 Zn118 1.923 . S
O117 Zn119 1.950 . S
O117 Zn120 1.945 . S
Zn118 O117 1.923 . S
Zn118 O121 1.933 . S
Zn118 O124 1.941 . S
Zn118 O125 1.965 . S
Zn119 O117 1.950 . S
Zn119 O126 1.938 . S
Zn119 O127 1.906 . S
Zn119 O137 1.953 . S
Zn120 O117 1.945 . S
Zn120 O122 1.932 . S
Zn120 O129 1.977 . S
Zn120 O130 1.910 . S
O121 Zn118 1.933 . S
O121 C132 1.226 . S
O122 Zn120 1.932 . S
O122 C132 1.307 . S
O123 Zn116 1.919 . S
O123 C134 1.253 . S
O124 Zn118 1.941 . S
O124 C134 1.283 . S
O125 Zn118 1.965 . S
O125 C133 1.303 . S
O126 Zn119 1.938 . S
O126 C133 1.247 . S
O127 Zn119 1.906 . S
O127 C135 1.304 . S
O128 Zn116 1.924 . S
O128 C136 1.311 . S
O129 Zn120 1.977 . S
O129 C135 1.272 . S
O130 Zn120 1.910 . S
O130 C136 1.231 . S
C131 O115 1.225 . S
C131 O137 1.298 . S
C132 O121 1.226 . S
C132 O122 1.307 . S
C133 O125 1.303 . S
C133 O126 1.247 . S
C134 O123 1.253 . S
C134 O124 1.283 . S
C135 O127 1.304 . S
C135 O129 1.272 . S
C136 O128 1.311 . S
C136 O130 1.231 . S
O137 Zn119 1.953 . S
O137 C131 1.298 . S
O138 Zn139 1.953 . S
O138 C154 1.225 . S
Zn139 O138 1.953 . S
Zn139 O140 1.949 . S
Zn139 O146 1.919 . S
Zn139 O151 1.924 . S
O140 Zn139 1.949 . S
O140 Zn141 1.923 . S
O140 Zn142 1.950 . S
O140 Zn143 1.945 . S
Zn141 O140 1.923 . S
Zn141 O144 1.933 . S
Zn141 O147 1.941 . S
Zn141 O148 1.965 . S
Zn142 O140 1.950 . S
Zn142 O149 1.938 . S
Zn142 O150 1.906 . S
Zn142 O160 1.953 . S
Zn143 O140 1.945 . S
Zn143 O145 1.932 . S
Zn143 O152 1.977 . S
Zn143 O153 1.910 . S
O144 Zn141 1.933 . S
O144 C155 1.226 . S
O145 Zn143 1.932 . S
O145 C155 1.307 . S
O146 Zn139 1.919 . S
O146 C157 1.253 . S
O147 Zn141 1.941 . S
O147 C157 1.283 . S
O148 Zn141 1.965 . S
O148 C156 1.303 . S
O149 Zn142 1.938 . S
O149 C156 1.247 . S
O150 Zn142 1.906 . S
O150 C158 1.304 . S
O151 Zn139 1.924 . S
O151 C159 1.311 . S
O152 Zn143 1.977 . S
O152 C158 1.272 . S
O153 Zn143 1.910 . S
O153 C159 1.231 . S
C154 O138 1.225 . S
C154 O160 1.298 . S
C155 O144 1.226 . S
C155 O145 1.307 . S
C156 O148 1.303 . S
C156 O149 1.247 . S
C157 O146 1.253 . S
C157 O147 1.283 . S
C158 O150 1.304 . S
C158 O152 1.272 . S
C159 O151 1.311 . S
C159 O153 1.231 . S
O160 Zn142 1.953 . S
O160 C154 1.298 . S
O161 Zn162 1.953 . S
O161 C177 1.225 . S
Zn162 O161 1.953 . S
Zn162 O163 1.949 . S
Zn162 O169 1.919 . S
Zn162 O174 1.924 . S
O163 Zn162 1.949 . S
O163 Zn164 1.923 . S
O163 Zn165 1.950 . S
O163 Zn166 1.945 . S
Zn164 O163 1.923 . S
Zn164 O167 1.933 . S
Zn164 O170 1.941 . S
Zn164 O171 1.965 . S
Zn165 O163 1.950 . S
Zn165 O172 1.938 . S
Zn165 O173 1.906 . S
Zn165 O183 1.953 . S
Zn166 O163 1.945 . S
Zn166 O168 1.932 . S
Zn166 O175 1.977 . S
Zn166 O176 1.910 . S
O167 Zn164 1.933 . S
O167 C178 1.226 . S
O168 Zn166 1.932 . S
O168 C178 1.307 . S
O169 Zn162 1.919 . S
O169 C180 1.253 . S
O170 Zn164 1.941 . S
O170 C180 1.283 . S
O171 Zn164 1.965 . S
O171 C179 1.303 . S
O172 Zn165 1.938 . S
O172 C179 1.247 . S
O173 Zn165 1.906 . S
O173 C181 1.304 . S
O174 Zn162 1.924 . S
O174 C182 1.311 . S
O175 Zn166 1.977 . S
O175 C181 1.272 . S
O176 Zn166 1.910 . S
O176 C182 1.231 . S
C177 O161 1.225 . S
C177 O183 1.298 . S
C178 O167 1.226 . S
C178 O168 1.307 . S
C179 O171 1.303 . S
C179 O172 1.247 . S
C180 O169 1.253 . S
C180 O170 1.283 . S
C181 O173 1.304 . S
C181 O175 1.272 . S
C182 O174 1.311 . S
C182 O176 1.231 . S
O183 Zn165 1.953 . S
O183 C177 1.298 . S
O184 Zn185 1.953 . S
O184 C200 1.225 . S
Zn185 O184 1.953 . S
Zn185 O186 1.949 . S
Zn185 O192 1.919 . S
Zn185 O197 1.924 . S
O186 Zn185 1.949 . S
O186 Zn187 1.923 . S
O186 Zn188 1.950 . S
O186 Zn189 1.945 . S
Zn187 O186 1.923 . S
Zn187 O190 1.933 . S
Zn187 O193 1.941 . S
Zn187 O194 1.965 . S
Zn188 O186 1.950 . S
Zn188 O195 1.938 . S
Zn188 O196 1.906 . S
Zn188 O206 1.953 . S
Zn189 O186 1.945 . S
Zn189 O191 1.932 . S
Zn189 O198 1.977 . S
Zn189 O199 1.910 . S
O190 Zn187 1.933 . S
O190 C201 1.226 . S
O191 Zn189 1.932 . S
O191 C201 1.307 . S
O192 Zn185 1.919 . S
O192 C203 1.253 . S
O193 Zn187 1.941 . S
O193 C203 1.283 . S
O194 Zn187 1.965 . S
O194 C202 1.303 . S
O195 Zn188 1.938 . S
O195 C202 1.247 . S
O196 Zn188 1.906 . S
O196 C204 1.304 . S
O197 Zn185 1.924 . S
O197 C205 1.311 . S
O198 Zn189 1.977 . S
O198 C204 1.272 . S
O199 Zn189 1.910 . S
O199 C205 1.231 . S
C200 O184 1.225 . S
C200 O206 1.298 . S
C201 O190 1.226 . S
C201 O191 1.307 . S
C202 O194 1.303 . S
C202 O195 1.247 . S
C203 O192 1.253 . S
C203 O193 1.283 . S
C204 O196 1.304 . S
C204 O198 1.272 . S
C205 O197 1.311 . S
C205 O199 1.231 . S
O206 Zn188 1.953 . S
O206 C200 1.298 . S
O207 Zn208 1.953 . S
O207 C223 1.225 . S
Zn208 O207 1.953 . S
Zn208 O209 1.949 . S
Zn208 O215 1.919 . S
Zn208 O220 1.924 . S
O209 Zn208 1.949 . S
O209 Zn210 1.923 . S
O209 Zn211 1.950 . S
O209 Zn212 1.945 . S
Zn210 O209 1.923 . S
Zn210 O213 1.933 . S
Zn210 O216 1.941 . S
Zn210 O217 1.965 . S
Zn211 O209 1.950 . S
Zn211 O218 1.938 . S
Zn211 O219 1.906 . S
Zn211 O229 1.953 . S
Zn212 O209 1.945 . S
Zn212 O214 1.932 . S
Zn212 O221 1.977 . S
Zn212 O222 1.910 . S
O213 Zn210 1.933 . S
O213 C224 1.226 . S
O214 Zn212 1.932 . S
O214 C224 1.307 . S
O215 Zn208 1.919 . S
O215 C226 1.253 . S
O216 Zn210 1.941 . S
O216 C226 1.283 . S
O217 Zn210 1.965 . S
O217 C225 1.303 . S
O218 Zn211 1.938 . S
O218 C225 1.247 . S
O219 Zn211 1.906 . S
O219 C227 1.304 . S
O220 Zn208 1.924 . S
O220 C228 1.311 . S
O221 Zn212 1.977 . S
O221 C227 1.272 . S
O222 Zn212 1.910 . S
O222 C228 1.231 . S
C223 O207 1.225 . S
C223 O229 1.298 . S
C224 O213 1.226 . S
C224 O214 1.307 . S
C225 O217 1.303 . S
C225 O218 1.247 . S
C226 O215 1.253 . S
C226 O216 1.283 . S
C227 O219 1.304 . S
C227 O221 1.272 . S
C228 O220 1.311 . S
C228 O222 1.231 . S
O229 Zn211 1.953 . S
O229 C223 1.298 . S
O230 Zn231 1.953 . S
O230 C246 1.225 . S
Zn231 O230 1.953 . S
Zn231 O232 1.949 . S
Zn231 O238 1.919 . S
Zn231 O243 1.924 . S
O232 Zn231 1.949 . S
O232 Zn233 1.923 . S
O232 Zn234 1.950 . S
O232 Zn235 1.945 . S
Zn233 O232 1.923 . S
Zn233 O236 1.933 . S
Zn233 O239 1.941 . S
Zn233 O240 1.965 . S
Zn234 O232 1.950 . S
Zn234 O241 1.938 . S
Zn234 O242 1.906 . S
Zn234 O252 1.953 . S
Zn235 O232 1.945 . S
Zn235 O237 1.932 . S
Zn235 O244 1.977 . S
Zn235 O245 1.910 . S
O236 Zn233 1.933 . S
O236 C247 1.226 . S
O237 Zn235 1.932 . S
O237 C247 1.307 . S
O238 Zn231 1.919 . S
O238 C249 1.253 . S
O239 Zn233 1.941 . S
O239 C249 1.283 . S
O240 Zn233 1.965 . S
O240 C248 1.303 . S
O241 Zn234 1.938 . S
O241 C248 1.247 . S
O242 Zn234 1.906 . S
O242 C250 1.304 . S
O243 Zn231 1.924 . S
O243 C251 1.311 . S
O244 Zn235 1.977 . S
O244 C250 1.272 . S
O245 Zn235 1.910 . S
O245 C251 1.231 . S
C246 O230 1.225 . S
C246 O252 1.298 . S
C247 O236 1.226 . S
C247 O237 1.307 . S
C248 O240 1.303 . S
C248 O241 1.247 . S
C249 O238 1.253 . S
C249 O239 1.283 . S
C250 O242 1.304 . S
C250 O244 1.272 . S
C251 O243 1.311 . S
C251 O245 1.231 . S
O252 Zn234 1.953 . S
O252 C246 1.298 . S
O253 Zn254 1.953 . S
O253 C269 1.225 . S
Zn254 O253 1.953 . S
Zn254 O255 1.949 . S
Zn254 O261 1.919 . S
Zn254 O266 1.924 . S
O255 Zn254 1.949 . S
O255 Zn256 1.923 . S
O255 Zn257 1.950 . S
O255 Zn258 1.945 . S
Zn256 O255 1.923 . S
Zn256 O259 1.933 . S
Zn256 O262 1.941 . S
Zn256 O263 1.965 . S
Zn257 O255 1.950 . S
Zn257 O264 1.938 . S
Zn257 O265 1.906 . S
Zn257 O275 1.953 . S
Zn258 O255 1.945 . S
Zn258 O260 1.932 . S
Zn258 O267 1.977 . S
Zn258 O268 1.910 . S
O259 Zn256 1.933 . S
O259 C270 1.226 . S
O260 Zn258 1.932 . S
O260 C270 1.307 . S
O261 Zn254 1.919 . S
O261 C272 1.253 . S
O262 Zn256 1.941 . S
O262 C272 1.283 . S
O263 Zn256 1.965 . S
O263 C271 1.303 . S
O264 Zn257 1.938 . S
O264 C271 1.247 . S
O265 Zn257 1.906 . S
O265 C273 1.304 . S
O266 Zn254 1.924 . S
O266 C274 1.311 . S
O267 Zn258 1.977 . S
O267 C273 1.272 . S
O268 Zn258 1.910 . S
O268 C274 1.231 . S
C269 O253 1.225 . S
C269 O275 1.298 . S
C270 O259 1.226 . S
C270 O260 1.307 . S
C271 O263 1.303 . S
C271 O264 1.247 . S
C272 O261 1.253 . S
C272 O262 1.283 . S
C273 O265 1.304 . S
C273 O267 1.272 . S
C274 O266 1.311 . S
C274 O268 1.231 . S
O275 Zn257 1.953 . S
O275 C269 1.298 . S
O276 Zn277 1.953 . S
O276 C292 1.225 . S
Zn277 O276 1.953 . S
Zn277 O278 1.949 . S
Zn277 O284 1.919 . S
Zn277 O289 1.924 . S
O278 Zn277 1.949 . S
O278 Zn279 1.923 . S
O278 Zn280 1.950 . S
O278 Zn281 1.945 . S
Zn279 O278 1.923 . S
Zn279 O282 1.933 . S
Zn279 O285 1.941 . S
Zn279 O286 1.965 . S
Zn280 O278 1.950 . S
Zn280 O287 1.938 . S
Zn280 O288 1.906 . S
Zn280 O298 1.953 . S
Zn281 O278 1.945 . S
Zn281 O283 1.932 . S
Zn281 O290 1.977 . S
Zn281 O291 1.910 . S
O282 Zn279 1.933 . S
O282 C293 1.226 . S
O283 Zn281 1.932 . S
O283 C293 1.307 . S
O284 Zn277 1.919 . S
O284 C295 1.253 . S
O285 Zn279 1.941 . S
O285 C295 1.283 . S
O286 Zn279 1.965 . S
O286 C294 1.303 . S
O287 Zn280 1.938 . S
O287 C294 1.247 . S
O288 Zn280 1.906 . S
O288 C296 1.304 . S
O289 Zn277 1.924 . S
O289 C297 1.311 . S
O290 Zn281 1.977 . S
O290 C296 1.272 . S
O291 Zn281 1.910 . S
O291 C297 1.231 . S
C292 O276 1.225 . S
C292 O298 1.298 . S
C293 O282 1.226 . S
C293 O283 1.307 . S
C294 O286 1.303 . S
C294 O287 1.247 . S
C295 O284 1.253 . S
C295 O285 1.283 . S
C296 O288 1.304 . S
C296 O290 1.272 . S
C297 O289 1.311 . S
C297 O291 1.231 . S
O298 Zn280 1.953 . S
O298 C292 1.298 . S
O299 Zn300 1.953 . S
O299 C315 1.225 . S
Zn300 O299 1.953 . S
Zn300 O301 1.949 . S
Zn300 O307 1.919 . S
Zn300 O312 1.924 . S
O301 Zn300 1.949 . S
O301 Zn302 1.923 . S
O301 Zn303 1.950 . S
O301 Zn304 1.945 . S
Zn302 O301 1.923 . S
Zn302 O305 1.933 . S
Zn302 O308 1.941 . S
Zn302 O309 1.965 . S
Zn303 O301 1.950 . S
Zn303 O310 1.938 . S
Zn303 O311 1.906 . S
Zn303 O321 1.953 . S
Zn304 O301 1.945 . S
Zn304 O306 1.932 . S
Zn304 O313 1.977 . S
Zn304 O314 1.910 . S
O305 Zn302 1.933 . S
O305 C316 1.226 . S
O306 Zn304 1.932 . S
O306 C316 1.307 . S
O307 Zn300 1.919 . S
O307 C318 1.253 . S
O308 Zn302 1.941 . S
O308 C318 1.283 . S
O309 Zn302 1.965 . S
O309 C317 1.303 . S
O310 Zn303 1.938 . S
O310 C317 1.247 . S
O311 Zn303 1.906 . S
O311 C319 1.304 . S
O312 Zn300 1.924 . S
O312 C320 1.311 . S
O313 Zn304 1.977 . S
O313 C319 1.272 . S
O314 Zn304 1.910 . S
O314 C320 1.231 . S
C315 O299 1.225 . S
C315 O321 1.298 . S
C316 O305 1.226 . S
C316 O306 1.307 . S
C317 O309 1.303 . S
C317 O310 1.247 . S
C318 O307 1.253 . S
C318 O308 1.283 . S
C319 O311 1.304 . S
C319 O313 1.272 . S
C320 O312 1.311 . S
C320 O314 1.231 . S
O321 Zn303 1.953 . S
O321 C315 1.298 . S
O322 Zn323 1.953 . S
O322 C338 1.225 . S
Zn323 O322 1.953 . S
Zn323 O324 1.949 . S
Zn323 O330 1.919 . S
Zn323 O335 1.924 . S
O324 Zn323 1.949 . S
O324 Zn325 1.923 . S
O324 Zn326 1.950 . S
O324 Zn327 1.945 . S
Zn325 O324 1.923 . S
Zn325 O328 1.933 . S
Zn325 O331 1.941 . S
Zn325 O332 1.965 . S
Zn326 O324 1.950 . S
Zn326 O333 1.938 . S
Zn326 O334 1.906 . S
Zn326 O344 1.953 . S
Zn327 O324 1.945 . S
Zn327 O329 1.932 . S
Zn327 O336 1.977 . S
Zn327 O337 1.910 . S
O328 Zn325 1.933 . S
O328 C339 1.226 . S
O329 Zn327 1.932 . S
O329 C339 1.307 . S
O330 Zn323 1.919 . S
O330 C341 1.253 . S
O331 Zn325 1.941 . S
O331 C341 1.283 . S
O332 Zn325 1.965 . S
O332 C340 1.303 . S
O333 Zn326 1.938 . S
O333 C340 1.247 . S
O334 Zn326 1.906 . S
O334 C342 1.304 . S
O335 Zn323 1.924 . S
O335 C343 1.311 . S
O336 Zn327 1.977 . S
O336 C342 1.272 . S
O337 Zn327 1.910 . S
O337 C343 1.231 . S
C338 O322 1.225 . S
C338 O344 1.298 . S
C339 O328 1.226 . S
C339 O329 1.307 . S
C340 O332 1.303 . S
C340 O333 1.247 . S
C341 O330 1.253 . S
C341 O331 1.283 . S
C342 O334 1.304 . S
C342 O336 1.272 . S
C343 O335 1.311 . S
C343 O337 1.231 . S
O344 Zn326 1.953 . S
O344 C338 1.298 . S
O345 Zn346 1.953 . S
O345 C361 1.225 . S
Zn346 O345 1.953 . S
Zn346 O347 1.949 . S
Zn346 O353 1.919 . S
Zn346 O358 1.924 . S
O347 Zn346 1.949 . S
O347 Zn348 1.923 . S
O347 Zn349 1.950 . S
O347 Zn350 1.945 . S
Zn348 O347 1.923 . S
Zn348 O351 1.933 . S
Zn348 O354 1.941 . S
Zn348 O355 1.965 . S
Zn349 O347 1.950 . S
Zn349 O356 1.938 . S
Zn349 O357 1.906 . S
Zn349 O367 1.953 . S
Zn350 O347 1.945 . S
Zn350 O352 1.932 . S
Zn350 O359 1.977 . S
Zn350 O360 1.910 . S
O351 Zn348 1.933 . S
O351 C362 1.226 . S
O352 Zn350 1.932 . S
O352 C362 1.307 . S
O353 Zn346 1.919 . S
O353 C364 1.253 . S
O354 Zn348 1.941 . S
O354 C364 1.283 . S
O355 Zn348 1.965 . S
O355 C363 1.303 . S
O356 Zn349 1.938 . S
O356 C363 1.247 . S
O357 Zn349 1.906 . S
O357 C365 1.304 . S
O358 Zn346 1.924 . S
O358 C366 1.311 . S
O359 Zn350 1.977 . S
O359 C365 1.272 . S
O360 Zn350 1.910 . S
O360 C366 1.231 . S
C361 O345 1.225 . S
C361 O367 1.298 . S
C362 O351 1.226 . S
C362 O352 1.307 . S
C363 O355 1.303 . S
C363 O356 1.247 . S
C364 O353 1.253 . S
C364 O354 1.283 . S
C365 O357 1.304 . S
C365 O359 1.272 . S
C366 O358 1.311 . S
C366 O360 1.231 . S
O367 Zn349 1.953 . S
O367 C361 1.298 . S
H368 C376 0.950 . S
H369 C381 0.950 . S
H370 C378 0.950 . S
H371 C380 0.950 . S
H372 C382 0.950 . S
H373 C384 0.950 . S
H374 C386 0.950 . S
H375 C387 0.950 . S
C376 H368 0.950 . S
C376 C377 1.386 . S
C376 C378 1.391 . S
C377 C376 1.386 . S
C377 C381 1.393 . S
C378 H370 0.950 . S
C378 C376 1.391 . S
C378 C379 1.400 . S
C379 C378 1.400 . S
C379 C380 1.398 . S
C379 C385 1.491 . S
C380 H371 0.950 . S
C380 C379 1.398 . S
C380 C381 1.391 . S
C381 H369 0.950 . S
C381 C377 1.393 . S
C381 C380 1.391 . S
C382 H372 0.950 . S
C382 C383 1.386 . S
C382 C384 1.391 . S
C383 C382 1.386 . S
C383 C387 1.393 . S
C384 H373 0.950 . S
C384 C382 1.391 . S
C384 C385 1.400 . S
C385 C379 1.491 . S
C385 C384 1.400 . S
C385 C386 1.398 . S
C386 H374 0.950 . S
C386 C385 1.398 . S
C386 C387 1.391 . S
C387 H375 0.950 . S
C387 C383 1.393 . S
C387 C386 1.391 . S
H388 C396 0.950 . S
H389 C401 0.950 . S
H390 C398 0.950 . S
H391 C400 0.950 . S
H392 C402 0.950 . S
H393 C404 0.950 . S
H394 C406 0.950 . S
H395 C407 0.950 . S
C396 H388 0.950 . S
C396 C397 1.386 . S
C396 C398 1.391 . S
C397 C396 1.386 . S
C397 C401 1.393 . S
C398 H390 0.950 . S
C398 C396 1.391 . S
C398 C399 1.400 . S
C399 C398 1.400 . S
C399 C400 1.398 . S
C399 C405 1.491 . S
C400 H391 0.950 . S
C400 C399 1.398 . S
C400 C401 1.391 . S
C401 H389 0.950 . S
C401 C397 1.393 . S
C401 C400 1.391 . S
C402 H392 0.950 . S
C402 C403 1.386 . S
C402 C404 1.391 . S
C403 C402 1.386 . S
C403 C407 1.393 . S
C404 H393 0.950 . S
C404 C402 1.391 . S
C404 C405 1.400 . S
C405 C399 1.491 . S
C405 C404 1.400 . S
C405 C406 1.398 . S
C406 H394 0.950 . S
C406 C405 1.398 . S
C406 C407 1.391 . S
C407 H395 0.950 . S
C407 C403 1.393 . S
C407 C406 1.391 . S
H408 C416 0.950 . S
H409 C421 0.950 . S
H410 C418 0.950 . S
H411 C420 0.950 . S
H412 C422 0.950 . S
H413 C424 0.950 . S
H414 C426 0.950 . S
H415 C427 0.950 . S
C416 H408 0.950 . S
C416 C417 1.386 . S
C416 C418 1.391 . S
C417 C416 1.386 . S
C417 C421 1.393 . S
C418 H410 0.950 . S
C418 C416 1.391 . S
C418 C419 1.400 . S
C419 C418 1.400 . S
C419 C420 1.398 . S
C419 C425 1.491 . S
C420 H411 0.950 . S
C420 C419 1.398 . S
C420 C421 1.391 . S
C421 H409 0.950 . S
C421 C417 1.393 . S
C421 C420 1.391 . S
C422 H412 0.950 . S
C422 C423 1.386 . S
C422 C424 1.391 . S
C423 C422 1.386 . S
C423 C427 1.393 . S
C424 H413 0.950 . S
C424 C422 1.391 . S
C424 C425 1.400 . S
C425 C419 1.491 . S
C425 C424 1.400 . S
C425 C426 1.398 . S
C426 H414 0.950 . S
C426 C425 1.398 . S
C426 C427 1.391 . S
C427 H415 0.950 . S
C427 C423 1.393 . S
C427 C426 1.391 . S
H428 C436 0.950 . S
H429 C441 0.950 . S
H430 C438 0.950 . S
H431 C440 0.950 . S
H432 C442 0.950 . S
H433 C444 0.950 . S
H434 C446 0.950 . S
H435 C447 0.950 . S
C436 H428 0.950 . S
C436 C437 1.386 . S
C436 C438 1.391 . S
C437 C436 1.386 . S
C437 C441 1.393 . S
C438 H430 0.950 . S
C438 C436 1.391 . S
C438 C439 1.400 . S
C439 C438 1.400 . S
C439 C440 1.398 . S
C439 C445 1.491 . S
C440 H431 0.950 . S
C440 C439 1.398 . S
C440 C441 1.391 . S
C441 H429 0.950 . S
C441 C437 1.393 . S
C441 C440 1.391 . S
C442 H432 0.950 . S
C442 C443 1.386 . S
C442 C444 1.391 . S
C443 C442 1.386 . S
C443 C447 1.393 . S
C444 H433 0.950 . S
C444 C442 1.391 . S
C444 C445 1.400 . S
C445 C439 1.491 . S
C445 C444 1.400 . S
C445 C446 1.398 . S
C446 H434 0.950 . S
C446 C445 1.398 . S
C446 C447 1.391 . S
C447 H435 0.950 . S
C447 C443 1.393 . S
C447 C446 1.391 . S
H448 C456 0.950 . S
H449 C461 0.950 . S
H450 C458 0.950 . S
H451 C460 0.950 . S
H452 C462 0.950 . S
H453 C464 0.950 . S
H454 C466 0.950 . S
H455 C467 0.950 . S
C456 H448 0.950 . S
C456 C457 1.386 . S
C456 C458 1.391 . S
C457 C456 1.386 . S
C457 C461 1.393 . S
C458 H450 0.950 . S
C458 C456 1.391 . S
C458 C459 1.400 . S
C459 C458 1.400 . S
C459 C460 1.398 . S
C459 C465 1.491 . S
C460 H451 0.950 . S
C460 C459 1.398 . S
C460 C461 1.391 . S
C461 H449 0.950 . S
C461 C457 1.393 . S
C461 C460 1.391 . S
C462 H452 0.950 . S
C462 C463 1.386 . S
C462 C464 1.391 . S
C463 C462 1.386 . S
C463 C467 1.393 . S
C464 H453 0.950 . S
C464 C462 1.391 . S
C464 C465 1.400 . S
C465 C459 1.491 . S
C465 C464 1.400 . S
C465 C466 1.398 . S
C466 H454 0.950 . S
C466 C465 1.398 . S
C466 C467 1.391 . S
C467 H455 0.950 . S
C467 C463 1.393 . S
C467 C466 1.391 . S
H468 C476 0.950 . S
H469 C481 0.950 . S
H470 C478 0.950 . S
H471 C480 0.950 . S
H472 C482 0.950 . S
H473 C484 0.950 . S
H474 C486 0.950 . S
H475 C487 0.950 . S
C476 H468 0.950 . S
C476 C477 1.386 . S
C476 C478 1.391 . S
C477 C476 1.386 . S
C477 C481 1.393 . S
C478 H470 0.950 . S
C478 C476 1.391 . S
C478 C479 1.400 . S
C479 C478 1.400 . S
C479 C480 1.398 . S
C479 C485 1.491 . S
C480 H471 0.950 . S
C480 C479 1.398 . S
C480 C481 1.391 . S
C481 H469 0.950 . S
C481 C477 1.393 . S
C481 C480 1.391 . S
C482 H472 0.950 . S
C482 C483 1.386 . S
C482 C484 1.391 . S
C483 C482 1.386 . S
C483 C487 1.393 . S
C484 H473 0.950 . S
C484 C482 1.391 . S
C484 C485 1.400 . S
C485 C479 1.491 . S
C485 C484 1.400 . S
C485 C486 1.398 . S
C486 H474 0.950 . S
C486 C485 1.398 . S
C486 C487 1.391 . S
C487 H475 0.950 . S
C487 C483 1.393 . S
C487 C486 1.391 . S
H488 C496 0.950 . S
H489 C501 0.950 . S
H490 C498 0.950 . S
H491 C500 0.950 . S
H492 C502 0.950 . S
H493 C504 0.950 . S
H494 C506 0.950 . S
H495 C507 0.950 . S
C496 H488 0.950 . S
C496 C497 1.386 . S
C496 C498 1.391 . S
C497 C496 1.386 . S
C497 C501 1.393 . S
C498 H490 0.950 . S
C498 C496 1.391 . S
C498 C499 1.400 . S
C499 C498 1.400 . S
C499 C500 1.398 . S
C499 C505 1.491 . S
C500 H491 0.950 . S
C500 C499 1.398 . S
C500 C501 1.391 . S
C501 H489 0.950 . S
C501 C497 1.393 . S
C501 C500 1.391 . S
C502 H492 0.950 . S
C502 C503 1.386 . S
C502 C504 1.391 . S
C503 C502 1.386 . S
C503 C507 1.393 . S
C504 H493 0.950 . S
C504 C502 1.391 . S
C504 C505 1.400 . S
C505 C499 1.491 . S
C505 C504 1.400 . S
C505 C506 1.398 . S
C506 H494 0.950 . S
C506 C505 1.398 . S
C506 C507 1.391 . S
C507 H495 0.950 . S
C507 C503 1.393 . S
C507 C506 1.391 . S
H508 C516 0.950 . S
H509 C521 0.950 . S
H510 C518 0.950 . S
H511 C520 0.950 . S
H512 C522 0.950 . S
H513 C524 0.950 . S
H514 C526 0.950 . S
H515 C527 0.950 . S
C516 H508 0.950 . S
C516 C517 1.386 . S
C516 C518 1.391 . S
C517 C516 1.386 . S
C517 C521 1.393 . S
C518 H510 0.950 . S
C518 C516 1.391 . S
C518 C519 1.400 . S
C519 C518 1.400 . S
C519 C520 1.398 . S
C519 C525 1.491 . S
C520 H511 0.950 . S
C520 C519 1.398 . S
C520 C521 1.391 . S
C521 H509 0.950 . S
C521 C517 1.393 . S
C521 C520 1.391 . S
C522 H512 0.950 . S
C522 C523 1.386 . S
C522 C524 1.391 . S
C523 C522 1.386 . S
C523 C527 1.393 . S
C524 H513 0.950 . S
C524 C522 1.391 . S
C524 C525 1.400 . S
C525 C519 1.491 . S
C525 C524 1.400 . S
C525 C526 1.398 . S
C526 H514 0.950 . S
C526 C525 1.398 . S
C526 C527 1.391 . S
C527 H515 0.950 . S
C527 C523 1.393 . S
C527 C526 1.391 . S
H528 C536 0.950 . S
H529 C541 0.950 . S
H530 C538 0.950 . S
H531 C540 0.950 . S
H532 C542 0.950 . S
H533 C544 0.950 . S
H534 C546 0.950 . S
H535 C547 0.950 . S
C536 H528 0.950 . S
C536 C537 1.386 . S
C536 C538 1.391 . S
C537 C536 1.386 . S
C537 C541 1.393 . S
C538 H530 0.950 . S
C538 C536 1.391 . S
C538 C539 1.400 . S
C539 C538 1.400 . S
C539 C540 1.398 . S
C539 C545 1.491 1_655 S
C540 H531 0.950 . S
C540 C539 1.398 . S
C540 C541 1.391 . S
C541 H529 0.950 . S
C541 C537 1.393 . S
C541 C540 1.391 . S
C542 H532 0.950 . S
C542 C543 1.386 . S
C542 C544 1.391 . S
C543 C542 1.386 . S
C543 C547 1.393 . S
C544 H533 0.950 . S
C544 C542 1.391 . S
C544 C545 1.400 . S
C545 C539 1.491 1_455 S
C545 C544 1.400 . S
C545 C546 1.398 . S
C546 H534 0.950 . S
C546 C545 1.398 . S
C546 C547 1.391 . S
C547 H535 0.950 . S
C547 C543 1.393 . S
C547 C546 1.391 . S
H548 C556 0.950 . S
H549 C561 0.950 . S
H550 C558 0.950 . S
H551 C560 0.950 1_545 S
H552 C562 0.950 . S
H553 C564 0.950 . S
H554 C566 0.950 1_565 S
H555 C567 0.950 . S
C556 H548 0.950 . S
C556 C557 1.386 . S
C556 C558 1.391 . S
C557 C556 1.386 . S
C557 C561 1.393 . S
C558 H550 0.950 . S
C558 C556 1.391 . S
C558 C559 1.400 . S
C559 C558 1.400 . S
C559 C560 1.398 . S
C559 C565 1.491 1_565 S
C560 H551 0.950 1_565 S
C560 C559 1.398 . S
C560 C561 1.391 . S
C561 H549 0.950 . S
C561 C557 1.393 . S
C561 C560 1.391 . S
C562 H552 0.950 . S
C562 C563 1.386 . S
C562 C564 1.391 . S
C563 C562 1.386 . S
C563 C567 1.393 . S
C564 H553 0.950 . S
C564 C562 1.391 . S
C564 C565 1.400 . S
C565 C559 1.491 1_545 S
C565 C564 1.400 . S
C565 C566 1.398 . S
C566 H554 0.950 1_545 S
C566 C565 1.398 . S
C566 C567 1.391 . S
C567 H555 0.950 . S
C567 C563 1.393 . S
C567 C566 1.391 . S
H568 C576 0.950 . S
H569 C581 0.950 . S
H570 C578 0.950 . S
H571 C580 0.950 1_455 S
H572 C582 0.950 . S
H573 C584 0.950 . S
H574 C586 0.950 1_655 S
H575 C587 0.950 . S
C576 H568 0.950 . S
C576 C577 1.386 . S
C576 C578 1.391 . S
C577 C576 1.386 . S
C577 C581 1.393 . S
C578 H570 0.950 . S
C578 C576 1.391 . S
C578 C579 1.400 . S
C579 C578 1.400 . S
C579 C580 1.398 . S
C579 C585 1.491 1_655 S
C580 H571 0.950 1_655 S
C580 C579 1.398 . S
C580 C581 1.391 . S
C581 H569 0.950 . S
C581 C577 1.393 . S
C581 C580 1.391 . S
C582 H572 0.950 . S
C582 C583 1.386 . S
C582 C584 1.391 . S
C583 C582 1.386 . S
C583 C587 1.393 . S
C584 H573 0.950 . S
C584 C582 1.391 . S
C584 C585 1.400 . S
C585 C579 1.491 1_455 S
C585 C584 1.400 . S
C585 C586 1.398 . S
C586 H574 0.950 1_455 S
C586 C585 1.398 . S
C586 C587 1.391 . S
C587 H575 0.950 . S
C587 C583 1.393 . S
C587 C586 1.391 . S
H588 C596 0.950 . S
H589 C601 0.950 . S
H590 C598 0.950 1_545 S
H591 C600 0.950 . S
H592 C602 0.950 . S
H593 C604 0.950 1_565 S
H594 C606 0.950 . S
H595 C607 0.950 . S
C596 H588 0.950 . S
C596 C597 1.386 . S
C596 C598 1.391 . S
C597 C596 1.386 . S
C597 C601 1.393 . S
C598 H590 0.950 1_565 S
C598 C596 1.391 . S
C598 C599 1.400 . S
C599 C598 1.400 . S
C599 C600 1.398 . S
C599 C605 1.491 1_565 S
C600 H591 0.950 . S
C600 C599 1.398 . S
C600 C601 1.391 . S
C601 H589 0.950 . S
C601 C597 1.393 . S
C601 C600 1.391 . S
C602 H592 0.950 . S
C602 C603 1.386 . S
C602 C604 1.391 . S
C603 C602 1.386 . S
C603 C607 1.393 . S
C604 H593 0.950 1_545 S
C604 C602 1.391 . S
C604 C605 1.400 . S
C605 C599 1.491 1_545 S
C605 C604 1.400 . S
C605 C606 1.398 . S
C606 H594 0.950 . S
C606 C605 1.398 . S
C606 C607 1.391 . S
C607 H595 0.950 . S
C607 C603 1.393 . S
C607 C606 1.391 . S
H608 C616 0.950 . S
H609 C621 0.950 . S
H610 C618 0.950 . S
H611 C620 0.950 . S
H612 C622 0.950 . S
H613 C624 0.950 . S
H614 C626 0.950 . S
H615 C627 0.950 . S
C616 H608 0.950 . S
C616 C617 1.386 . S
C616 C618 1.391 . S
C617 C616 1.386 . S
C617 C621 1.393 . S
C618 H610 0.950 . S
C618 C616 1.391 . S
C618 C619 1.400 . S
C619 C618 1.400 . S
C619 C620 1.398 . S
C619 C625 1.491 1_565 S
C620 H611 0.950 . S
C620 C619 1.398 . S
C620 C621 1.391 . S
C621 H609 0.950 . S
C621 C617 1.393 . S
C621 C620 1.391 . S
C622 H612 0.950 . S
C622 C623 1.386 . S
C622 C624 1.391 . S
C623 C622 1.386 . S
C623 C627 1.393 . S
C624 H613 0.950 . S
C624 C622 1.391 . S
C624 C625 1.400 . S
C625 C619 1.491 1_545 S
C625 C624 1.400 . S
C625 C626 1.398 . S
C626 H614 0.950 . S
C626 C625 1.398 . S
C626 C627 1.391 . S
C627 H615 0.950 . S
C627 C623 1.393 . S
C627 C626 1.391 . S
H628 C636 0.950 . S
H629 C641 0.950 . S
H630 C638 0.950 1_655 S
H631 C640 0.950 . S
H632 C642 0.950 . S
H633 C644 0.950 1_455 S
H634 C646 0.950 . S
H635 C647 0.950 . S
C636 H628 0.950 . S
C636 C637 1.386 . S
C636 C638 1.391 . S
C637 C636 1.386 . S
C637 C641 1.393 . S
C638 H630 0.950 1_455 S
C638 C636 1.391 . S
C638 C639 1.400 . S
C639 C638 1.400 . S
C639 C640 1.398 . S
C639 C645 1.491 1_455 S
C640 H631 0.950 . S
C640 C639 1.398 . S
C640 C641 1.391 . S
C641 H629 0.950 . S
C641 C637 1.393 . S
C641 C640 1.391 . S
C642 H632 0.950 . S
C642 C643 1.386 . S
C642 C644 1.391 . S
C643 C642 1.386 . S
C643 C647 1.393 . S
C644 H633 0.950 1_655 S
C644 C642 1.391 . S
C644 C645 1.400 . S
C645 C639 1.491 1_655 S
C645 C644 1.400 . S
C645 C646 1.398 . S
C646 H634 0.950 . S
C646 C645 1.398 . S
C646 C647 1.391 . S
C647 H635 0.950 . S
C647 C643 1.393 . S
C647 C646 1.391 . S
H648 C656 0.950 . S
H649 C661 0.950 . S
H650 C658 0.950 1_545 S
H651 C660 0.950 . S
H652 C662 0.950 . S
H653 C664 0.950 1_565 S
H654 C666 0.950 . S
H655 C667 0.950 . S
C656 H648 0.950 . S
C656 C657 1.386 . S
C656 C658 1.391 . S
C657 C656 1.386 . S
C657 C661 1.393 . S
C658 H650 0.950 1_565 S
C658 C656 1.391 . S
C658 C659 1.400 . S
C659 C658 1.400 . S
C659 C660 1.398 . S
C659 C665 1.491 1_565 S
C660 H651 0.950 . S
C660 C659 1.398 . S
C660 C661 1.391 . S
C661 H649 0.950 . S
C661 C657 1.393 . S
C661 C660 1.391 . S
C662 H652 0.950 . S
C662 C663 1.386 . S
C662 C664 1.391 . S
C663 C662 1.386 . S
C663 C667 1.393 . S
C664 H653 0.950 1_545 S
C664 C662 1.391 . S
C664 C665 1.400 . S
C665 C659 1.491 1_545 S
C665 C664 1.400 . S
C665 C666 1.398 . S
C666 H654 0.950 . S
C666 C665 1.398 . S
C666 C667 1.391 . S
C667 H655 0.950 . S
C667 C663 1.393 . S
C667 C666 1.391 . S
H668 C676 0.950 . S
H669 C681 0.950 . S
H670 C678 0.950 1_655 S
H671 C680 0.950 . S
H672 C682 0.950 . S
H673 C684 0.950 1_455 S
H674 C686 0.950 . S
H675 C687 0.950 . S
C676 H668 0.950 . S
C676 C677 1.386 . S
C676 C678 1.391 . S
C677 C676 1.386 . S
C677 C681 1.393 . S
C678 H670 0.950 1_455 S
C678 C676 1.391 . S
C678 C679 1.400 . S
C679 C678 1.400 . S
C679 C680 1.398 . S
C679 C685 1.491 1_455 S
C680 H671 0.950 . S
C680 C679 1.398 . S
C680 C681 1.391 . S
C681 H669 0.950 . S
C681 C677 1.393 . S
C681 C680 1.391 . S
C682 H672 0.950 . S
C682 C683 1.386 . S
C682 C684 1.391 . S
C683 C682 1.386 . S
C683 C687 1.393 . S
C684 H673 0.950 1_655 S
C684 C682 1.391 . S
C684 C685 1.400 . S
C685 C679 1.491 1_655 S
C685 C684 1.400 . S
C685 C686 1.398 . S
C686 H674 0.950 . S
C686 C685 1.398 . S
C686 C687 1.391 . S
C687 H675 0.950 . S
C687 C683 1.393 . S
C687 C686 1.391 . S
H688 C696 0.950 . S
H689 C701 0.950 . S
H690 C698 0.950 . S
H691 C700 0.950 . S
H692 C702 0.950 . S
H693 C704 0.950 . S
H694 C706 0.950 . S
H695 C707 0.950 . S
C696 H688 0.950 . S
C696 C697 1.386 . S
C696 C698 1.391 . S
C697 C696 1.386 . S
C697 C701 1.393 . S
C698 H690 0.950 . S
C698 C696 1.391 . S
C698 C699 1.400 . S
C699 C698 1.400 . S
C699 C700 1.398 . S
C699 C705 1.491 . S
C700 H691 0.950 . S
C700 C699 1.398 . S
C700 C701 1.391 . S
C701 H689 0.950 . S
C701 C697 1.393 . S
C701 C700 1.391 . S
C702 H692 0.950 . S
C702 C703 1.386 . S
C702 C704 1.391 . S
C703 C702 1.386 . S
C703 C707 1.393 . S
C704 H693 0.950 . S
C704 C702 1.391 . S
C704 C705 1.400 . S
C705 C699 1.491 . S
C705 C704 1.400 . S
C705 C706 1.398 . S
C706 H694 0.950 . S
C706 C705 1.398 . S
C706 C707 1.391 . S
C707 H695 0.950 . S
C707 C703 1.393 . S
C707 C706 1.391 . S
H708 C716 0.950 . S
H709 C721 0.950 . S
H710 C718 0.950 . S
H711 C720 0.950 . S
H712 C722 0.950 . S
H713 C724 0.950 . S
H714 C726 0.950 . S
H715 C727 0.950 . S
C716 H708 0.950 . S
C716 C717 1.386 . S
C716 C718 1.391 . S
C717 C716 1.386 . S
C717 C721 1.393 . S
C718 H710 0.950 . S
C718 C716 1.391 . S
C718 C719 1.400 . S
C719 C718 1.400 . S
C719 C720 1.398 . S
C719 C725 1.491 . S
C720 H711 0.950 . S
C720 C719 1.398 . S
C720 C721 1.391 . S
C721 H709 0.950 . S
C721 C717 1.393 . S
C721 C720 1.391 . S
C722 H712 0.950 . S
C722 C723 1.386 . S
C722 C724 1.391 . S
C723 C722 1.386 . S
C723 C727 1.393 . S
C724 H713 0.950 . S
C724 C722 1.391 . S
C724 C725 1.400 . S
C725 C719 1.491 . S
C725 C724 1.400 . S
C725 C726 1.398 . S
C726 H714 0.950 . S
C726 C725 1.398 . S
C726 C727 1.391 . S
C727 H715 0.950 . S
C727 C723 1.393 . S
C727 C726 1.391 . S
H728 C736 0.950 . S
H729 C741 0.950 . S
H730 C738 0.950 . S
H731 C740 0.950 . S
H732 C742 0.950 . S
H733 C744 0.950 . S
H734 C746 0.950 . S
H735 C747 0.950 . S
C736 H728 0.950 . S
C736 C737 1.386 . S
C736 C738 1.391 . S
C737 C736 1.386 . S
C737 C741 1.393 . S
C738 H730 0.950 . S
C738 C736 1.391 . S
C738 C739 1.400 . S
C739 C738 1.400 . S
C739 C740 1.398 . S
C739 C745 1.491 . S
C740 H731 0.950 . S
C740 C739 1.398 . S
C740 C741 1.391 . S
C741 H729 0.950 . S
C741 C737 1.393 . S
C741 C740 1.391 . S
C742 H732 0.950 . S
C742 C743 1.386 . S
C742 C744 1.391 . S
C743 C742 1.386 . S
C743 C747 1.393 . S
C744 H733 0.950 . S
C744 C742 1.391 . S
C744 C745 1.400 . S
C745 C739 1.491 . S
C745 C744 1.400 . S
C745 C746 1.398 . S
C746 H734 0.950 . S
C746 C745 1.398 . S
C746 C747 1.391 . S
C747 H735 0.950 . S
C747 C743 1.393 . S
C747 C746 1.391 . S
H748 C756 0.950 . S
H749 C761 0.950 . S
H750 C758 0.950 . S
H751 C760 0.950 . S
H752 C762 0.950 . S
H753 C764 0.950 . S
H754 C766 0.950 . S
H755 C767 0.950 . S
C756 H748 0.950 . S
C756 C757 1.386 . S
C756 C758 1.391 . S
C757 C756 1.386 . S
C757 C761 1.393 . S
C758 H750 0.950 . S
C758 C756 1.391 . S
C758 C759 1.400 . S
C759 C758 1.400 . S
C759 C760 1.398 . S
C759 C765 1.491 . S
C760 H751 0.950 . S
C760 C759 1.398 . S
C760 C761 1.391 . S
C761 H749 0.950 . S
C761 C757 1.393 . S
C761 C760 1.391 . S
C762 H752 0.950 . S
C762 C763 1.386 . S
C762 C764 1.391 . S
C763 C762 1.386 . S
C763 C767 1.393 . S
C764 H753 0.950 . S
C764 C762 1.391 . S
C764 C765 1.400 . S
C765 C759 1.491 . S
C765 C764 1.400 . S
C765 C766 1.398 . S
C766 H754 0.950 . S
C766 C765 1.398 . S
C766 C767 1.391 . S
C767 H755 0.950 . S
C767 C763 1.393 . S
C767 C766 1.391 . S
H768 C776 0.950 . S
H769 C781 0.950 . S
H770 C778 0.950 . S
H771 C780 0.950 . S
H772 C782 0.950 . S
H773 C784 0.950 . S
H774 C786 0.950 . S
H775 C787 0.950 . S
C776 H768 0.950 . S
C776 C777 1.386 . S
C776 C778 1.391 . S
C777 C776 1.386 . S
C777 C781 1.393 . S
C778 H770 0.950 . S
C778 C776 1.391 . S
C778 C779 1.400 . S
C779 C778 1.400 . S
C779 C780 1.398 . S
C779 C785 1.491 . S
C780 H771 0.950 . S
C780 C779 1.398 . S
C780 C781 1.391 . S
C781 H769 0.950 . S
C781 C777 1.393 . S
C781 C780 1.391 . S
C782 H772 0.950 . S
C782 C783 1.386 . S
C782 C784 1.391 . S
C783 C782 1.386 . S
C783 C787 1.393 . S
C784 H773 0.950 . S
C784 C782 1.391 . S
C784 C785 1.400 . S
C785 C779 1.491 . S
C785 C784 1.400 . S
C785 C786 1.398 . S
C786 H774 0.950 . S
C786 C785 1.398 . S
C786 C787 1.391 . S
C787 H775 0.950 . S
C787 C783 1.393 . S
C787 C786 1.391 . S
H788 C796 0.950 . S
H789 C801 0.950 . S
H790 C798 0.950 . S
H791 C800 0.950 . S
H792 C802 0.950 . S
H793 C804 0.950 . S
H794 C806 0.950 . S
H795 C807 0.950 . S
C796 H788 0.950 . S
C796 C797 1.386 . S
C796 C798 1.391 . S
C797 C796 1.386 . S
C797 C801 1.393 . S
C798 H790 0.950 . S
C798 C796 1.391 . S
C798 C799 1.400 . S
C799 C798 1.400 . S
C799 C800 1.398 . S
C799 C805 1.491 . S
C800 H791 0.950 . S
C800 C799 1.398 . S
C800 C801 1.391 . S
C801 H789 0.950 . S
C801 C797 1.393 . S
C801 C800 1.391 . S
C802 H792 0.950 . S
C802 C803 1.386 . S
C802 C804 1.391 . S
C803 C802 1.386 . S
C803 C807 1.393 . S
C804 H793 0.950 . S
C804 C802 1.391 . S
C804 C805 1.400 . S
C805 C799 1.491 . S
C805 C804 1.400 . S
C805 C806 1.398 . S
C806 H794 0.950 . S
C806 C805 1.398 . S
C806 C807 1.391 . S
C807 H795 0.950 . S
C807 C803 1.393 . S
C807 C806 1.391 . S
H808 C816 0.950 . S
H809 C821 0.950 . S
H810 C818 0.950 . S
H811 C820 0.950 . S
H812 C822 0.950 . S
H813 C824 0.950 . S
H814 C826 0.950 . S
H815 C827 0.950 . S
C816 H808 0.950 . S
C816 C817 1.386 . S
C816 C818 1.391 . S
C817 C816 1.386 . S
C817 C821 1.393 . S
C818 H810 0.950 . S
C818 C816 1.391 . S
C818 C819 1.400 . S
C819 C818 1.400 . S
C819 C820 1.398 . S
C819 C825 1.491 . S
C820 H811 0.950 . S
C820 C819 1.398 . S
C820 C821 1.391 . S
C821 H809 0.950 . S
C821 C817 1.393 . S
C821 C820 1.391 . S
C822 H812 0.950 . S
C822 C823 1.386 . S
C822 C824 1.391 . S
C823 C822 1.386 . S
C823 C827 1.393 . S
C824 H813 0.950 . S
C824 C822 1.391 . S
C824 C825 1.400 . S
C825 C819 1.491 . S
C825 C824 1.400 . S
C825 C826 1.398 . S
C826 H814 0.950 . S
C826 C825 1.398 . S
C826 C827 1.391 . S
C827 H815 0.950 . S
C827 C823 1.393 . S
C827 C826 1.391 . S
H828 C836 0.950 . S
H829 C841 0.950 . S
H830 C838 0.950 . S
H831 C840 0.950 . S
H832 C842 0.950 . S
H833 C844 0.950 . S
H834 C846 0.950 . S
H835 C847 0.950 . S
C836 H828 0.950 . S
C836 C837 1.386 . S
C836 C838 1.391 . S
C837 C836 1.386 . S
C837 C841 1.393 . S
C838 H830 0.950 . S
C838 C836 1.391 . S
C838 C839 1.400 . S
C839 C838 1.400 . S
C839 C840 1.398 . S
C839 C845 1.491 . S
C840 H831 0.950 . S
C840 C839 1.398 . S
C840 C841 1.391 . S
C841 H829 0.950 . S
C841 C837 1.393 . S
C841 C840 1.391 . S
C842 H832 0.950 . S
C842 C843 1.386 . S
C842 C844 1.391 . S
C843 C842 1.386 . S
C843 C847 1.393 . S
C844 H833 0.950 . S
C844 C842 1.391 . S
C844 C845 1.400 . S
C845 C839 1.491 . S
C845 C844 1.400 . S
C845 C846 1.398 . S
C846 H834 0.950 . S
C846 C845 1.398 . S
C846 C847 1.391 . S
C847 H835 0.950 . S
C847 C843 1.393 . S
C847 C846 1.391 . S
H848 C856 0.950 . S
H849 C861 0.950 . S
H850 C858 0.950 . S
H851 C860 0.950 . S
H852 C862 0.944 1_455 S
H853 C864 0.950 . S
H854 C866 0.950 . S
H855 C867 0.950 . S
C856 H848 0.950 . S
C856 C857 1.386 . S
C856 C858 1.391 . S
C857 C856 1.386 . S
C857 C861 1.393 . S
C858 H850 0.950 . S
C858 C856 1.391 . S
C858 C859 1.400 . S
C859 C858 1.400 . S
C859 C860 1.398 . S
C859 C865 1.491 . S
C860 H851 0.950 . S
C860 C859 1.398 . S
C860 C861 1.391 . S
C861 H849 0.950 . S
C861 C857 1.393 . S
C861 C860 1.391 . S
C862 H852 0.944 1_655 S
C862 C863 1.386 . S
C862 C864 1.391 . S
C863 C862 1.386 . S
C863 C867 1.393 . S
C864 H853 0.950 . S
C864 C862 1.391 . S
C864 C865 1.400 . S
C865 C859 1.491 . S
C865 C864 1.400 . S
C865 C866 1.398 . S
C866 H854 0.950 . S
C866 C865 1.398 . S
C866 C867 1.391 . S
C867 H855 0.950 . S
C867 C863 1.393 . S
C867 C866 1.391 . S
H868 C876 0.950 . S
H869 C881 0.950 . S
H870 C878 0.950 . S
H871 C880 0.950 . S
H872 C882 0.950 . S
H873 C884 0.950 . S
H874 C886 0.950 . S
H875 C887 0.950 . S
C876 H868 0.950 . S
C876 C877 1.386 . S
C876 C878 1.391 . S
C877 C876 1.386 . S
C877 C881 1.393 . S
C878 H870 0.950 . S
C878 C876 1.391 . S
C878 C879 1.400 . S
C879 C878 1.400 . S
C879 C880 1.398 . S
C879 C885 1.491 . S
C880 H871 0.950 . S
C880 C879 1.398 . S
C880 C881 1.391 . S
C881 H869 0.950 . S
C881 C877 1.393 . S
C881 C880 1.391 . S
C882 H872 0.950 . S
C882 C883 1.386 . S
C882 C884 1.391 . S
C883 C882 1.386 . S
C883 C887 1.393 . S
C884 H873 0.950 . S
C884 C882 1.391 . S
C884 C885 1.400 . S
C885 C879 1.491 . S
C885 C884 1.400 . S
C885 C886 1.398 . S
C886 H874 0.950 . S
C886 C885 1.398 . S
C886 C887 1.391 . S
C887 H875 0.950 . S
C887 C883 1.393 . S
C887 C886 1.391 . S
H888 C896 0.950 . S
H889 C901 0.950 1_655 S
H890 C898 0.950 . S
H891 C900 0.950 . S
H892 C902 0.950 . S
H893 C904 0.950 . S
H894 C906 0.950 . S
H895 C907 0.950 . S
C896 H888 0.950 . S
C896 C897 1.386 . S
C896 C898 1.391 . S
C897 C896 1.386 . S
C897 C901 1.393 . S
C898 H890 0.950 . S
C898 C896 1.391 . S
C898 C899 1.400 . S
C899 C898 1.400 . S
C899 C900 1.398 . S
C899 C905 1.491 . S
C900 H891 0.950 . S
C900 C899 1.398 . S
C900 C901 1.391 . S
C901 H889 0.950 1_455 S
C901 C897 1.393 . S
C901 C900 1.391 . S
C902 H892 0.950 . S
C902 C903 1.386 . S
C902 C904 1.391 . S
C903 C902 1.386 . S
C903 C907 1.393 . S
C904 H893 0.950 . S
C904 C902 1.391 . S
C904 C905 1.400 . S
C905 C899 1.491 . S
C905 C904 1.400 . S
C905 C906 1.398 . S
C906 H894 0.950 . S
C906 C905 1.398 . S
C906 C907 1.391 . S
C907 H895 0.950 . S
C907 C903 1.393 . S
C907 C906 1.391 . S
H908 C916 0.950 . S
H909 C921 0.950 . S
H910 C918 0.950 . S
H911 C920 0.950 . S
H912 C922 0.950 . S
H913 C924 0.950 . S
H914 C926 0.950 . S
H915 C927 0.950 1_565 S
C916 H908 0.950 . S
C916 C917 1.386 . S
C916 C918 1.391 . S
C917 C916 1.386 . S
C917 C921 1.393 . S
C918 H910 0.950 . S
C918 C916 1.391 . S
C918 C919 1.400 . S
C919 C918 1.400 . S
C919 C920 1.398 . S
C919 C925 1.491 . S
C920 H911 0.950 . S
C920 C919 1.398 . S
C920 C921 1.391 . S
C921 H909 0.950 . S
C921 C917 1.393 . S
C921 C920 1.391 . S
C922 H912 0.950 . S
C922 C923 1.386 . S
C922 C924 1.391 . S
C923 C922 1.386 . S
C923 C927 1.393 . S
C924 H913 0.950 . S
C924 C922 1.391 . S
C924 C925 1.400 . S
C925 C919 1.491 . S
C925 C924 1.400 . S
C925 C926 1.398 . S
C926 H914 0.950 . S
C926 C925 1.398 . S
C926 C927 1.391 . S
C927 H915 0.950 1_545 S
C927 C923 1.393 . S
C927 C926 1.391 . S
H928 C936 0.950 . S
H929 C941 0.950 . S
H930 C938 0.950 . S
H931 C940 0.950 . S
H932 C942 0.950 . S
H933 C944 0.950 . S
H934 C946 0.950 . S
H935 C947 0.950 1_455 S
C936 H928 0.950 . S
C936 C937 1.386 . S
C936 C938 1.391 . S
C937 C936 1.386 . S
C937 C941 1.393 . S
C938 H930 0.950 . S
C938 C936 1.391 . S
C938 C939 1.400 . S
C939 C938 1.400 . S
C939 C940 1.398 . S
C939 C945 1.491 . S
C940 H931 0.950 . S
C940 C939 1.398 . S
C940 C941 1.391 . S
C941 H929 0.950 . S
C941 C937 1.393 . S
C941 C940 1.391 . S
C942 H932 0.950 . S
C942 C943 1.386 . S
C942 C944 1.391 . S
C943 C942 1.386 . S
C943 C947 1.393 . S
C944 H933 0.950 . S
C944 C942 1.391 . S
C944 C945 1.400 . S
C945 C939 1.491 . S
C945 C944 1.400 . S
C945 C946 1.398 . S
C946 H934 0.950 . S
C946 C945 1.398 . S
C946 C947 1.391 . S
C947 H935 0.950 1_655 S
C947 C943 1.393 . S
C947 C946 1.391 . S
H948 C956 0.950 1_545 S
H949 C961 0.950 . S
H950 C958 0.950 . S
H951 C960 0.950 . S
H952 C962 0.950 . S
H953 C964 0.950 . S
H954 C966 0.950 . S
H955 C967 0.950 . S
C956 H948 0.950 1_565 S
C956 C957 1.386 . S
C956 C958 1.391 . S
C957 C956 1.386 . S
C957 C961 1.393 . S
C958 H950 0.950 . S
C958 C956 1.391 . S
C958 C959 1.400 . S
C959 C958 1.400 . S
C959 C960 1.398 . S
C959 C965 1.491 . S
C960 H951 0.950 . S
C960 C959 1.398 . S
C960 C961 1.391 . S
C961 H949 0.950 . S
C961 C957 1.393 . S
C961 C960 1.391 . S
C962 H952 0.950 . S
C962 C963 1.386 . S
C962 C964 1.391 . S
C963 C962 1.386 . S
C963 C967 1.393 . S
C964 H953 0.950 . S
C964 C962 1.391 . S
C964 C965 1.400 . S
C965 C959 1.491 . S
C965 C964 1.400 . S
C965 C966 1.398 . S
C966 H954 0.950 . S
C966 C965 1.398 . S
C966 C967 1.391 . S
C967 H955 0.950 . S
C967 C963 1.393 . S
C967 C966 1.391 . S
H968 C976 0.950 . S
H969 C981 0.950 . S
H970 C978 0.950 . S
H971 C980 0.950 . S
H972 C982 0.950 . S
H973 C984 0.950 . S
H974 C986 0.950 . S
H975 C987 0.950 1_655 S
C976 H968 0.950 . S
C976 C977 1.386 . S
C976 C978 1.391 . S
C977 C976 1.386 . S
C977 C981 1.393 . S
C978 H970 0.950 . S
C978 C976 1.391 . S
C978 C979 1.400 . S
C979 C978 1.400 . S
C979 C980 1.398 . S
C979 C985 1.491 . S
C980 H971 0.950 . S
C980 C979 1.398 . S
C980 C981 1.391 . S
C981 H969 0.950 . S
C981 C977 1.393 . S
C981 C980 1.391 . S
C982 H972 0.950 . S
C982 C983 1.386 . S
C982 C984 1.391 . S
C983 C982 1.386 . S
C983 C987 1.393 . S
C984 H973 0.950 . S
C984 C982 1.391 . S
C984 C985 1.400 . S
C985 C979 1.491 . S
C985 C984 1.400 . S
C985 C986 1.398 . S
C986 H974 0.950 . S
C986 C985 1.398 . S
C986 C987 1.391 . S
C987 H975 0.950 1_455 S
C987 C983 1.393 . S
C987 C986 1.391 . S
H988 C996 0.950 . S
H989 C1001 0.950 . S
H990 C998 0.950 . S
H991 C1000 0.950 . S
H992 C1002 0.950 . S
H993 C1004 0.950 . S
H994 C1006 0.950 . S
H995 C1007 0.950 . S
C996 H988 0.950 . S
C996 C997 1.386 . S
C996 C998 1.391 . S
C997 C996 1.386 . S
C997 C1001 1.393 . S
C998 H990 0.950 . S
C998 C996 1.391 . S
C998 C999 1.400 . S
C999 C998 1.400 . S
C999 C1000 1.398 . S
C999 C1005 1.491 . S
C1000 H991 0.950 . S
C1000 C999 1.398 . S
C1000 C1001 1.391 . S
C1001 H989 0.950 . S
C1001 C997 1.393 . S
C1001 C1000 1.391 . S
C1002 H992 0.950 . S
C1002 C1003 1.386 . S
C1002 C1004 1.391 . S
C1003 C1002 1.386 . S
C1003 C1007 1.393 . S
C1004 H993 0.950 . S
C1004 C1002 1.391 . S
C1004 C1005 1.400 . S
C1005 C999 1.491 . S
C1005 C1004 1.400 . S
C1005 C1006 1.398 . S
C1006 H994 0.950 . S
C1006 C1005 1.398 . S
C1006 C1007 1.391 . S
C1007 H995 0.950 . S
C1007 C1003 1.393 . S
C1007 C1006 1.391 . S
H1008 C1016 0.950 . S
H1009 C1021 0.950 . S
H1010 C1018 0.950 . S
H1011 C1020 0.950 . S
H1012 C1022 0.950 . S
H1013 C1024 0.950 . S
H1014 C1026 0.950 . S
H1015 C1027 0.950 . S
C1016 H1008 0.950 . S
C1016 C1017 1.386 . S
C1016 C1018 1.391 . S
C1017 C1016 1.386 . S
C1017 C1021 1.393 . S
C1018 H1010 0.950 . S
C1018 C1016 1.391 . S
C1018 C1019 1.400 . S
C1019 C1018 1.400 . S
C1019 C1020 1.398 . S
C1019 C1025 1.491 1_554 S
C1020 H1011 0.950 . S
C1020 C1019 1.398 . S
C1020 C1021 1.391 . S
C1021 H1009 0.950 . S
C1021 C1017 1.393 . S
C1021 C1020 1.391 . S
C1022 H1012 0.950 . S
C1022 C1023 1.386 . S
C1022 C1024 1.391 . S
C1023 C1022 1.386 . S
C1023 C1027 1.393 . S
C1024 H1013 0.950 . S
C1024 C1022 1.391 . S
C1024 C1025 1.400 . S
C1025 C1019 1.491 1_556 S
C1025 C1024 1.400 . S
C1025 C1026 1.398 . S
C1026 H1014 0.950 . S
C1026 C1025 1.398 . S
C1026 C1027 1.391 . S
C1027 H1015 0.950 . S
C1027 C1023 1.393 . S
C1027 C1026 1.391 . S
H1028 C1036 0.950 . S
H1029 C1041 0.950 . S
H1030 C1038 0.950 1_554 S
H1031 C1040 0.950 . S
H1032 C1042 0.950 . S
H1033 C1044 0.950 1_556 S
H1034 C1046 0.950 . S
H1035 C1047 0.950 . S
C1036 H1028 0.950 . S
C1036 C1037 1.386 . S
C1036 C1038 1.391 . S
C1037 C1036 1.386 . S
C1037 C1041 1.393 . S
C1038 H1030 0.950 1_556 S
C1038 C1036 1.391 . S
C1038 C1039 1.400 . S
C1039 C1038 1.400 . S
C1039 C1040 1.398 . S
C1039 C1045 1.491 1_556 S
C1040 H1031 0.950 . S
C1040 C1039 1.398 . S
C1040 C1041 1.391 . S
C1041 H1029 0.950 . S
C1041 C1037 1.393 . S
C1041 C1040 1.391 . S
C1042 H1032 0.950 . S
C1042 C1043 1.386 . S
C1042 C1044 1.391 . S
C1043 C1042 1.386 . S
C1043 C1047 1.393 . S
C1044 H1033 0.950 1_554 S
C1044 C1042 1.391 . S
C1044 C1045 1.400 . S
C1045 C1039 1.491 1_554 S
C1045 C1044 1.400 . S
C1045 C1046 1.398 . S
C1046 H1034 0.950 . S
C1046 C1045 1.398 . S
C1046 C1047 1.391 . S
C1047 H1035 0.950 . S
C1047 C1043 1.393 . S
C1047 C1046 1.391 . S
H1048 C1056 0.950 . S
H1049 C1061 0.950 . S
H1050 C1058 0.950 . S
H1051 C1060 0.950 . S
H1052 C1062 0.950 . S
H1053 C1064 0.950 . S
H1054 C1066 0.950 . S
H1055 C1067 0.950 . S
C1056 H1048 0.950 . S
C1056 C1057 1.386 . S
C1056 C1058 1.391 . S
C1057 C1056 1.386 . S
C1057 C1061 1.393 . S
C1058 H1050 0.950 . S
C1058 C1056 1.391 . S
C1058 C1059 1.400 . S
C1059 C1058 1.400 . S
C1059 C1060 1.398 . S
C1059 C1065 1.491 1_556 S
C1060 H1051 0.950 . S
C1060 C1059 1.398 . S
C1060 C1061 1.391 . S
C1061 H1049 0.950 . S
C1061 C1057 1.393 . S
C1061 C1060 1.391 . S
C1062 H1052 0.950 . S
C1062 C1063 1.386 . S
C1062 C1064 1.391 . S
C1063 C1062 1.386 . S
C1063 C1067 1.393 . S
C1064 H1053 0.950 . S
C1064 C1062 1.391 . S
C1064 C1065 1.400 . S
C1065 C1059 1.491 1_554 S
C1065 C1064 1.400 . S
C1065 C1066 1.398 . S
C1066 H1054 0.950 . S
C1066 C1065 1.398 . S
C1066 C1067 1.391 . S
C1067 H1055 0.950 . S
C1067 C1063 1.393 . S
C1067 C1066 1.391 . S
H1068 C1076 0.950 . S
H1069 C1081 0.950 . S
H1070 C1078 0.950 . S
H1071 C1080 0.945 1_554 S
H1072 C1082 0.950 . S
H1073 C1084 0.950 . S
H1074 C1086 0.945 1_556 S
H1075 C1087 0.950 . S
C1076 H1068 0.950 . S
C1076 C1077 1.386 . S
C1076 C1078 1.391 . S
C1077 C1076 1.386 . S
C1077 C1081 1.393 . S
C1078 H1070 0.950 . S
C1078 C1076 1.391 . S
C1078 C1079 1.400 . S
C1079 C1078 1.400 . S
C1079 C1080 1.398 . S
C1079 C1085 1.491 1_556 S
C1080 H1071 0.945 1_556 S
C1080 C1079 1.398 . S
C1080 C1081 1.391 . S
C1081 H1069 0.950 . S
C1081 C1077 1.393 . S
C1081 C1080 1.391 . S
C1082 H1072 0.950 . S
C1082 C1083 1.386 . S
C1082 C1084 1.391 . S
C1083 C1082 1.386 . S
C1083 C1087 1.393 . S
C1084 H1073 0.950 . S
C1084 C1082 1.391 . S
C1084 C1085 1.400 . S
C1085 C1079 1.491 1_554 S
C1085 C1084 1.400 . S
C1085 C1086 1.398 . S
C1086 H1074 0.945 1_554 S
C1086 C1085 1.398 . S
C1086 C1087 1.391 . S
C1087 H1075 0.950 . S
C1087 C1083 1.393 . S
C1087 C1086 1.391 . S
H1088 C1096 0.950 . S
H1089 C1101 0.950 . S
H1090 C1098 0.950 . S
H1091 C1100 0.950 . S
H1092 C1102 0.950 . S
H1093 C1104 0.950 . S
H1094 C1106 0.950 . S
H1095 C1107 0.950 . S
C1096 H1088 0.950 . S
C1096 C1097 1.386 . S
C1096 C1098 1.391 . S
C1097 C1096 1.386 . S
C1097 C1101 1.393 . S
C1098 H1090 0.950 . S
C1098 C1096 1.391 . S
C1098 C1099 1.400 . S
C1099 C1098 1.400 . S
C1099 C1100 1.398 . S
C1099 C1105 1.491 . S
C1100 H1091 0.950 . S
C1100 C1099 1.398 . S
C1100 C1101 1.391 . S
C1101 H1089 0.950 . S
C1101 C1097 1.393 . S
C1101 C1100 1.391 . S
C1102 H1092 0.950 . S
C1102 C1103 1.386 . S
C1102 C1104 1.391 . S
C1103 C1102 1.386 . S
C1103 C1107 1.393 . S
C1104 H1093 0.950 . S
C1104 C1102 1.391 . S
C1104 C1105 1.400 . S
C1105 C1099 1.491 . S
C1105 C1104 1.400 . S
C1105 C1106 1.398 . S
C1106 H1094 0.950 . S
C1106 C1105 1.398 . S
C1106 C1107 1.391 . S
C1107 H1095 0.950 . S
C1107 C1103 1.393 . S
C1107 C1106 1.391 . S
H1108 C1116 0.950 . S
H1109 C1121 0.950 . S
H1110 C1118 0.950 . S
H1111 C1120 0.950 . S
H1112 C1122 0.950 . S
H1113 C1124 0.950 . S
H1114 C1126 0.950 . S
H1115 C1127 0.950 . S
C1116 H1108 0.950 . S
C1116 C1117 1.386 . S
C1116 C1118 1.391 . S
C1117 C1116 1.386 . S
C1117 C1121 1.393 . S
C1118 H1110 0.950 . S
C1118 C1116 1.391 . S
C1118 C1119 1.400 . S
C1119 C1118 1.400 . S
C1119 C1120 1.398 . S
C1119 C1125 1.491 . S
C1120 H1111 0.950 . S
C1120 C1119 1.398 . S
C1120 C1121 1.391 . S
C1121 H1109 0.950 . S
C1121 C1117 1.393 . S
C1121 C1120 1.391 . S
C1122 H1112 0.950 . S
C1122 C1123 1.386 . S
C1122 C1124 1.391 . S
C1123 C1122 1.386 . S
C1123 C1127 1.393 . S
C1124 H1113 0.950 . S
C1124 C1122 1.391 . S
C1124 C1125 1.400 . S
C1125 C1119 1.491 . S
C1125 C1124 1.400 . S
C1125 C1126 1.398 . S
C1126 H1114 0.950 . S
C1126 C1125 1.398 . S
C1126 C1127 1.391 . S
C1127 H1115 0.950 . S
C1127 C1123 1.393 . S
C1127 C1126 1.391 . S
H1128 C1136 0.950 . S
H1129 C1141 0.950 . S
H1130 C1138 0.950 . S
H1131 C1140 0.950 . S
H1132 C1142 0.950 . S
H1133 C1144 0.950 . S
H1134 C1146 0.950 . S
H1135 C1147 0.950 . S
C1136 H1128 0.950 . S
C1136 C1137 1.386 . S
C1136 C1138 1.391 . S
C1137 C1136 1.386 . S
C1137 C1141 1.393 . S
C1138 H1130 0.950 . S
C1138 C1136 1.391 . S
C1138 C1139 1.400 . S
C1139 C1138 1.400 . S
C1139 C1140 1.398 . S
C1139 C1145 1.491 . S
C1140 H1131 0.950 . S
C1140 C1139 1.398 . S
C1140 C1141 1.391 . S
C1141 H1129 0.950 . S
C1141 C1137 1.393 . S
C1141 C1140 1.391 . S
C1142 H1132 0.950 . S
C1142 C1143 1.386 . S
C1142 C1144 1.391 . S
C1143 C1142 1.386 . S
C1143 C1147 1.393 . S
C1144 H1133 0.950 . S
C1144 C1142 1.391 . S
C1144 C1145 1.400 . S
C1145 C1139 1.491 . S
C1145 C1144 1.400 . S
C1145 C1146 1.398 . S
C1146 H1134 0.950 . S
C1146 C1145 1.398 . S
C1146 C1147 1.391 . S
C1147 H1135 0.950 . S
C1147 C1143 1.393 . S
C1147 C1146 1.391 . S
H1148 C1156 0.950 . S
H1149 C1161 0.950 . S
H1150 C1158 0.950 . S
H1151 C1160 0.950 . S
H1152 C1162 0.950 . S
H1153 C1164 0.950 . S
H1154 C1166 0.950 . S
H1155 C1167 0.950 . S
C1156 H1148 0.950 . S
C1156 C1157 1.386 . S
C1156 C1158 1.391 . S
C1157 C1156 1.386 . S
C1157 C1161 1.393 . S
C1158 H1150 0.950 . S
C1158 C1156 1.391 . S
C1158 C1159 1.400 . S
C1159 C1158 1.400 . S
C1159 C1160 1.398 . S
C1159 C1165 1.491 . S
C1160 H1151 0.950 . S
C1160 C1159 1.398 . S
C1160 C1161 1.391 . S
C1161 H1149 0.950 . S
C1161 C1157 1.393 . S
C1161 C1160 1.391 . S
C1162 H1152 0.950 . S
C1162 C1163 1.386 . S
C1162 C1164 1.391 . S
C1163 C1162 1.386 . S
C1163 C1167 1.393 . S
C1164 H1153 0.950 . S
C1164 C1162 1.391 . S
C1164 C1165 1.400 . S
C1165 C1159 1.491 . S
C1165 C1164 1.400 . S
C1165 C1166 1.398 . S
C1166 H1154 0.950 . S
C1166 C1165 1.398 . S
C1166 C1167 1.391 . S
C1167 H1155 0.950 . S
C1167 C1163 1.393 . S
C1167 C1166 1.391 . S
H1168 C1176 0.950 . S
H1169 C1181 0.950 . S
H1170 C1178 0.950 . S
H1171 C1180 0.950 . S
H1172 C1182 0.950 . S
H1173 C1184 0.950 . S
H1174 C1186 0.950 . S
H1175 C1187 0.950 . S
C1176 H1168 0.950 . S
C1176 C1177 1.386 . S
C1176 C1178 1.391 . S
C1177 C1176 1.386 . S
C1177 C1181 1.393 . S
C1178 H1170 0.950 . S
C1178 C1176 1.391 . S
C1178 C1179 1.400 . S
C1179 C1178 1.400 . S
C1179 C1180 1.398 . S
C1179 C1185 1.491 1_556 S
C1180 H1171 0.950 . S
C1180 C1179 1.398 . S
C1180 C1181 1.391 . S
C1181 H1169 0.950 . S
C1181 C1177 1.393 . S
C1181 C1180 1.391 . S
C1182 H1172 0.950 . S
C1182 C1183 1.386 . S
C1182 C1184 1.391 . S
C1183 C1182 1.386 . S
C1183 C1187 1.393 . S
C1184 H1173 0.950 . S
C1184 C1182 1.391 . S
C1184 C1185 1.400 . S
C1185 C1179 1.491 1_554 S
C1185 C1184 1.400 . S
C1185 C1186 1.398 . S
C1186 H1174 0.950 . S
C1186 C1185 1.398 . S
C1186 C1187 1.391 . S
C1187 H1175 0.950 . S
C1187 C1183 1.393 . S
C1187 C1186 1.391 . S
H1188 C1196 0.950 . S
H1189 C1201 0.950 . S
H1190 C1198 0.929 1_556 S
H1191 C1200 0.950 . S
H1192 C1202 0.950 . S
H1193 C1204 0.929 1_554 S
H1194 C1206 0.950 . S
H1195 C1207 0.950 . S
C1196 H1188 0.950 . S
C1196 C1197 1.386 . S
C1196 C1198 1.391 . S
C1197 C1196 1.386 . S
C1197 C1201 1.393 . S
C1198 H1190 0.929 1_554 S
C1198 C1196 1.391 . S
C1198 C1199 1.400 . S
C1199 C1198 1.400 . S
C1199 C1200 1.398 . S
C1199 C1205 1.491 1_554 S
C1200 H1191 0.950 . S
C1200 C1199 1.398 . S
C1200 C1201 1.391 . S
C1201 H1189 0.950 . S
C1201 C1197 1.393 . S
C1201 C1200 1.391 . S
C1202 H1192 0.950 . S
C1202 C1203 1.386 . S
C1202 C1204 1.391 . S
C1203 C1202 1.386 . S
C1203 C1207 1.393 . S
C1204 H1193 0.929 1_556 S
C1204 C1202 1.391 . S
C1204 C1205 1.400 . S
C1205 C1199 1.491 1_556 S
C1205 C1204 1.400 . S
C1205 C1206 1.398 . S
C1206 H1194 0.950 . S
C1206 C1205 1.398 . S
C1206 C1207 1.391 . S
C1207 H1195 0.950 . S
C1207 C1203 1.393 . S
C1207 C1206 1.391 . S
H1208 C1216 0.950 . S
H1209 C1221 0.950 . S
H1210 C1218 0.950 . S
H1211 C1220 0.950 1_556 S
H1212 C1222 0.950 . S
H1213 C1224 0.950 . S
H1214 C1226 0.950 1_554 S
H1215 C1227 0.950 . S
C1216 H1208 0.950 . S
C1216 C1217 1.386 . S
C1216 C1218 1.391 . S
C1217 C1216 1.386 . S
C1217 C1221 1.393 . S
C1218 H1210 0.950 . S
C1218 C1216 1.391 . S
C1218 C1219 1.400 . S
C1219 C1218 1.400 . S
C1219 C1220 1.398 . S
C1219 C1225 1.491 1_554 S
C1220 H1211 0.950 1_554 S
C1220 C1219 1.398 . S
C1220 C1221 1.391 . S
C1221 H1209 0.950 . S
C1221 C1217 1.393 . S
C1221 C1220 1.391 . S
C1222 H1212 0.950 . S
C1222 C1223 1.386 . S
C1222 C1224 1.391 . S
C1223 C1222 1.386 . S
C1223 C1227 1.393 . S
C1224 H1213 0.950 . S
C1224 C1222 1.391 . S
C1224 C1225 1.400 . S
C1225 C1219 1.491 1_556 S
C1225 C1224 1.400 . S
C1225 C1226 1.398 . S
C1226 H1214 0.950 1_556 S
C1226 C1225 1.398 . S
C1226 C1227 1.391 . S
C1227 H1215 0.950 . S
C1227 C1223 1.393 . S
C1227 C1226 1.391 . S
H1228 C1236 0.950 . S
H1229 C1241 0.950 . S
H1230 C1238 0.950 . S
H1231 C1240 0.925 1_556 S
H1232 C1242 0.950 . S
H1233 C1244 0.950 . S
H1234 C1246 0.925 1_554 S
H1235 C1247 0.950 . S
C1236 H1228 0.950 . S
C1236 C1237 1.386 . S
C1236 C1238 1.391 . S
C1237 C1236 1.386 . S
C1237 C1241 1.393 . S
C1238 H1230 0.950 . S
C1238 C1236 1.391 . S
C1238 C1239 1.400 . S
C1239 C1238 1.400 . S
C1239 C1240 1.398 . S
C1239 C1245 1.491 1_554 S
C1240 H1231 0.925 1_554 S
C1240 C1239 1.398 . S
C1240 C1241 1.391 . S
C1241 H1229 0.950 . S
C1241 C1237 1.393 . S
C1241 C1240 1.391 . S
C1242 H1232 0.950 . S
C1242 C1243 1.386 . S
C1242 C1244 1.391 . S
C1243 C1242 1.386 . S
C1243 C1247 1.393 . S
C1244 H1233 0.950 . S
C1244 C1242 1.391 . S
C1244 C1245 1.400 . S
C1245 C1239 1.491 1_556 S
C1245 C1244 1.400 . S
C1245 C1246 1.398 . S
C1246 H1234 0.925 1_556 S
C1246 C1245 1.398 . S
C1246 C1247 1.391 . S
C1247 H1235 0.950 . S
C1247 C1243 1.393 . S
C1247 C1246 1.391 . S
H1248 C1256 0.950 . S
H1249 C1261 0.950 . S
H1250 C1258 0.959 . S
H1251 C1260 0.950 . S
H1252 C1262 0.950 . S
H1253 C1264 0.959 . S
H1254 C1266 0.950 . S
H1255 C1267 0.950 . S
C1256 H1248 0.950 . S
C1256 C1257 1.386 . S
C1256 C1258 1.391 . S
C1257 C1256 1.386 . S
C1257 C1261 1.393 . S
C1258 H1250 0.959 . S
C1258 C1256 1.391 . S
C1258 C1259 1.400 . S
C1259 C1258 1.400 . S
C1259 C1260 1.398 . S
C1259 C1265 1.491 1_545 S
C1260 H1251 0.950 . S
C1260 C1259 1.398 . S
C1260 C1261 1.391 . S
C1261 H1249 0.950 . S
C1261 C1257 1.393 . S
C1261 C1260 1.391 . S
C1262 H1252 0.950 . S
C1262 C1263 1.386 . S
C1262 C1264 1.391 . S
C1263 C1262 1.386 . S
C1263 C1267 1.393 . S
C1264 H1253 0.959 . S
C1264 C1262 1.391 . S
C1264 C1265 1.400 . S
C1265 C1259 1.491 1_565 S
C1265 C1264 1.400 . S
C1265 C1266 1.398 . S
C1266 H1254 0.950 . S
C1266 C1265 1.398 . S
C1266 C1267 1.391 . S
C1267 H1255 0.950 . S
C1267 C1263 1.393 . S
C1267 C1266 1.391 . S
H1268 C1276 0.950 . S
H1269 C1281 0.950 . S
H1270 C1278 0.950 . S
H1271 C1280 0.950 1_455 S
H1272 C1282 0.950 . S
H1273 C1284 0.950 . S
H1274 C1286 0.950 1_655 S
H1275 C1287 0.950 . S
C1276 H1268 0.950 . S
C1276 C1277 1.386 . S
C1276 C1278 1.391 . S
C1277 C1276 1.386 . S
C1277 C1281 1.393 . S
C1278 H1270 0.950 . S
C1278 C1276 1.391 . S
C1278 C1279 1.400 . S
C1279 C1278 1.400 . S
C1279 C1280 1.398 . S
C1279 C1285 1.491 1_655 S
C1280 H1271 0.950 1_655 S
C1280 C1279 1.398 . S
C1280 C1281 1.391 . S
C1281 H1269 0.950 . S
C1281 C1277 1.393 . S
C1281 C1280 1.391 . S
C1282 H1272 0.950 . S
C1282 C1283 1.386 . S
C1282 C1284 1.391 . S
C1283 C1282 1.386 . S
C1283 C1287 1.393 . S
C1284 H1273 0.950 . S
C1284 C1282 1.391 . S
C1284 C1285 1.400 . S
C1285 C1279 1.491 1_455 S
C1285 C1284 1.400 . S
C1285 C1286 1.398 . S
C1286 H1274 0.950 1_455 S
C1286 C1285 1.398 . S
C1286 C1287 1.391 . S
C1287 H1275 0.950 . S
C1287 C1283 1.393 . S
C1287 C1286 1.391 . S
H1288 C1296 0.950 . S
H1289 C1301 0.950 . S
H1290 C1298 0.950 . S
H1291 C1300 0.950 . S
H1292 C1302 0.950 . S
H1293 C1304 0.950 . S
H1294 C1306 0.950 . S
H1295 C1307 0.950 . S
C1296 H1288 0.950 . S
C1296 C1297 1.386 . S
C1296 C1298 1.391 . S
C1297 C1296 1.386 . S
C1297 C1301 1.393 . S
C1298 H1290 0.950 . S
C1298 C1296 1.391 . S
C1298 C1299 1.400 . S
C1299 C1298 1.400 . S
C1299 C1300 1.398 . S
C1299 C1305 1.491 1_565 S
C1300 H1291 0.950 . S
C1300 C1299 1.398 . S
C1300 C1301 1.391 . S
C1301 H1289 0.950 . S
C1301 C1297 1.393 . S
C1301 C1300 1.391 . S
C1302 H1292 0.950 . S
C1302 C1303 1.386 . S
C1302 C1304 1.391 . S
C1303 C1302 1.386 . S
C1303 C1307 1.393 . S
C1304 H1293 0.950 . S
C1304 C1302 1.391 . S
C1304 C1305 1.400 . S
C1305 C1299 1.491 1_545 S
C1305 C1304 1.400 . S
C1305 C1306 1.398 . S
C1306 H1294 0.950 . S
C1306 C1305 1.398 . S
C1306 C1307 1.391 . S
C1307 H1295 0.950 . S
C1307 C1303 1.393 . S
C1307 C1306 1.391 . S
H1308 C1316 0.950 . S
H1309 C1321 0.950 . S
H1310 C1318 0.950 . S
H1311 C1320 0.919 1_455 S
H1312 C1322 0.950 . S
H1313 C1324 0.950 . S
H1314 C1326 0.919 1_655 S
H1315 C1327 0.950 . S
C1316 H1308 0.950 . S
C1316 C1317 1.386 . S
C1316 C1318 1.391 . S
C1317 C1316 1.386 . S
C1317 C1321 1.393 . S
C1318 H1310 0.950 . S
C1318 C1316 1.391 . S
C1318 C1319 1.400 . S
C1319 C1318 1.400 . S
C1319 C1320 1.409 . S
C1319 C1325 1.491 1_655 S
C1320 H1311 0.919 1_655 S
C1320 C1319 1.409 . S
C1320 C1321 1.411 . S
C1321 H1309 0.950 . S
C1321 C1317 1.393 . S
C1321 C1320 1.411 . S
C1322 H1312 0.950 . S
C1322 C1323 1.386 . S
C1322 C1324 1.391 . S
C1323 C1322 1.386 . S
C1323 C1327 1.393 . S
C1324 H1313 0.950 . S
C1324 C1322 1.391 . S
C1324 C1325 1.400 . S
C1325 C1319 1.491 1_455 S
C1325 C1324 1.400 . S
C1325 C1326 1.409 . S
C1326 H1314 0.919 1_455 S
C1326 C1325 1.409 . S
C1326 C1327 1.411 . S
C1327 H1315 0.950 . S
C1327 C1323 1.393 . S
C1327 C1326 1.411 . S
C377 C16 1.166 . S
C383 C361 1.166 . S
C397 C292 1.171 . S
C403 C39 1.183 . S
C417 C62 1.165 . S
C423 C315 1.168 . S
C437 C338 1.185 . S
C443 C85 1.182 . S
C457 C108 1.185 . S
C463 C223 1.182 . S
C477 C246 1.166 . S
C483 C131 1.177 . S
C497 C154 1.185 . S
C503 C269 1.180 . S
C517 C200 1.182 . S
C523 C177 1.185 . S
C537 C67 1.649 . S
C543 C21 1.645 . S
C557 C90 1.637 . S
C563 C44 1.650 . S
C577 C159 1.643 . S
C583 C113 1.650 . S
C597 C182 1.637 . S
C603 C136 1.623 . S
C617 C205 1.644 . S
C623 C251 1.650 . S
C637 C228 1.637 . S
C643 C274 1.650 . S
C657 C343 1.640 . S
C663 C297 1.651 . S
C677 C366 1.631 . S
C683 C320 1.648 . S
C697 C18 0.978 . S
C703 C43 0.995 . S
C717 C66 1.000 . S
C723 C41 0.986 . S
C737 C64 0.978 . S
C743 C89 1.000 . S
C757 C20 0.987 . S
C763 C87 0.991 . S
C777 C110 0.995 . S
C783 C181 0.987 . S
C797 C112 0.987 . S
C803 C133 0.996 . S
C817 C156 0.997 . S
C823 C135 0.987 . S
C837 C158 1.000 . S
C843 C179 0.985 . S
C857 C202 0.977 . S
C863 C227 0.997 1_655 S
C877 C250 0.997 1_565 S
C883 C225 0.977 . S
C897 C273 1.001 1_455 S
C903 C248 0.983 . S
C917 C271 0.999 . S
C923 C204 0.988 1_545 S
C937 C294 1.000 . S
C943 C365 0.990 1_655 S
C957 C296 0.991 1_565 S
C963 C317 0.983 . S
C977 C340 0.997 . S
C983 C319 0.987 1_455 S
C997 C342 0.995 1_545 S
C1003 C363 0.978 . S
C1017 C19 1.810 . S
C1023 C134 1.793 . S
C1037 C157 1.794 . S
C1043 C42 1.817 . S
C1057 C180 1.805 . S
C1063 C65 1.795 . S
C1077 C111 1.812 . S
C1083 C88 1.793 . S
C1097 C318 1.806 . S
C1103 C203 1.816 . S
C1117 C226 1.817 . S
C1123 C341 1.794 . S
C1137 C364 1.808 . S
C1143 C249 1.814 . S
C1157 C272 1.806 . S
C1163 C295 1.815 . S
C1177 C109 0.555 . S
C1183 C17 0.557 . S
C1197 C40 0.555 . S
C1203 C132 0.562 . S
C1217 C63 0.587 . S
C1223 C155 0.576 . S
C1237 C86 0.592 . S
C1243 C178 0.586 . S
C1257 C293 0.592 . S
C1263 C201 0.588 . S
C1277 C316 0.555 . S
C1283 C224 0.563 . S
C1297 C339 0.561 . S
C1303 C247 0.555 . S
C1317 C270 0.564 . S
C1323 C362 0.577 . S
