# Generated by pormake.
# Topology umg, (4)-cn, num edge types: 1
# Building blocks:
#     Node 0, Type 0, BuildingBlock: MUDLON_clean_sbu_0, # of connection points: 4
#     Node 1, Type 0, BuildingBlock: MUDLON_clean_sbu_0, # of connection points: 4
#     Node 2, Type 0, BuildingBlock: MUDLON_clean_sbu_0, # of connection points: 4
#     Node 3, Type 0, BuildingBlock: MUDLON_clean_sbu_0, # of connection points: 4
#     Node 4, Type 0, BuildingBlock: MUDLON_clean_sbu_0, # of connection points: 4
#     Node 5, Type 0, BuildingBlock: MUDLON_clean_sbu_0, # of connection points: 4
#     Node 6, Type 0, BuildingBlock: MUDLON_clean_sbu_0, # of connection points: 4
#     Node 7, Type 0, BuildingBlock: MUDLON_clean_sbu_0, # of connection points: 4
#     Node 8, Type 0, BuildingBlock: MUDLON_clean_sbu_0, # of connection points: 4
#     Node 9, Type 0, BuildingBlock: MUDLON_clean_sbu_0, # of connection points: 4
#     Node 10, Type 0, BuildingBlock: MUDLON_clean_sbu_0, # of connection points: 4
#     Node 11, Type 0, BuildingBlock: MUDLON_clean_sbu_0, # of connection points: 4
#     Edge 12, Type (0, 0), BuildingBlock: KIFKEQ_clean_linker_1, # of connection points: 2
#     Edge 13, Type (0, 0), BuildingBlock: KIFKEQ_clean_linker_1, # of connection points: 2
#     Edge 14, Type (0, 0), BuildingBlock: KIFKEQ_clean_linker_1, # of connection points: 2
#     Edge 15, Type (0, 0), BuildingBlock: KIFKEQ_clean_linker_1, # of connection points: 2
#     Edge 16, Type (0, 0), BuildingBlock: KIFKEQ_clean_linker_1, # of connection points: 2
#     Edge 17, Type (0, 0), BuildingBlock: KIFKEQ_clean_linker_1, # of connection points: 2
#     Edge 18, Type (0, 0), BuildingBlock: KIFKEQ_clean_linker_1, # of connection points: 2
#     Edge 19, Type (0, 0), BuildingBlock: KIFKEQ_clean_linker_1, # of connection points: 2
#     Edge 20, Type (0, 0), BuildingBlock: KIFKEQ_clean_linker_1, # of connection points: 2
#     Edge 21, Type (0, 0), BuildingBlock: KIFKEQ_clean_linker_1, # of connection points: 2
#     Edge 22, Type (0, 0), BuildingBlock: KIFKEQ_clean_linker_1, # of connection points: 2
#     Edge 23, Type (0, 0), BuildingBlock: KIFKEQ_clean_linker_1, # of connection points: 2
#     Edge 24, Type (0, 0), BuildingBlock: KIFKEQ_clean_linker_1, # of connection points: 2
#     Edge 25, Type (0, 0), BuildingBlock: KIFKEQ_clean_linker_1, # of connection points: 2
#     Edge 26, Type (0, 0), BuildingBlock: KIFKEQ_clean_linker_1, # of connection points: 2
#     Edge 27, Type (0, 0), BuildingBlock: KIFKEQ_clean_linker_1, # of connection points: 2
#     Edge 28, Type (0, 0), BuildingBlock: KIFKEQ_clean_linker_1, # of connection points: 2
#     Edge 29, Type (0, 0), BuildingBlock: KIFKEQ_clean_linker_1, # of connection points: 2
#     Edge 30, Type (0, 0), BuildingBlock: KIFKEQ_clean_linker_1, # of connection points: 2
#     Edge 31, Type (0, 0), BuildingBlock: KIFKEQ_clean_linker_1, # of connection points: 2
#     Edge 32, Type (0, 0), BuildingBlock: KIFKEQ_clean_linker_1, # of connection points: 2
#     Edge 33, Type (0, 0), BuildingBlock: KIFKEQ_clean_linker_1, # of connection points: 2
#     Edge 34, Type (0, 0), BuildingBlock: KIFKEQ_clean_linker_1, # of connection points: 2
#     Edge 35, Type (0, 0), BuildingBlock: KIFKEQ_clean_linker_1, # of connection points: 2
# Relax obj value: 0.016
# Max RMSD: 0.186
# Mean RMSD: 0.186
data_MOF--net-umg--node1-MUDLON_clean_sbu_0--edge1-KIFKEQ_clean_linker_1
_symmetry_space_group_name_H-M    P1
_symmetry_Int_Tables_number       1
_symmetry_cell_setting            triclinic
loop_
_symmetry_equiv_pos_as_xyz
'x, y, z'
_cell_length_a     30.268832
_cell_length_b     30.139254
_cell_length_c     90.108413
_cell_angle_alpha  89.99268
_cell_angle_beta   89.996296
_cell_angle_gamma 120.12586
loop_
_atom_site_label
_atom_site_type_symbol
_atom_site_fract_x
_atom_site_fract_y
_atom_site_fract_z
_atom_type_partial_charge
Mg0 Mg 0.32303 0.61931 0.10454 0.0
C1 C 0.3314 0.68379 0.07705 0.0
O2 O 0.28678 0.6761 0.08151 0.0
C3 C 0.33337 0.62609 0.13688 0.0
O4 O 0.31362 0.57705 0.1339 0.0
C5 C 0.40748 0.59916 0.10281 0.0
O6 O 0.42816 0.64918 0.10168 0.0
O7 O 0.35912 0.5721 0.10421 0.0
O8 O 0.35539 0.66818 0.0851 0.0
O9 O 0.23954 0.58028 0.10266 0.0
C10 C 0.21859 0.60343 0.10866 0.0
O11 O 0.24774 0.6465 0.11579 0.0
O12 O 0.3434 0.65709 0.12611 0.0
Mg13 Mg 0.7161 0.31145 0.43989 0.0
C14 C 0.65531 0.3146 0.41304 0.0
O15 O 0.61753 0.27406 0.41939 0.0
C16 C 0.71943 0.32448 0.47196 0.0
O17 O 0.74784 0.3038 0.46921 0.0
C18 C 0.82082 0.39665 0.43762 0.0
O19 O 0.79196 0.41743 0.43597 0.0
O20 O 0.79914 0.34831 0.43952 0.0
O21 O 0.69785 0.33904 0.41978 0.0
O22 O 0.67362 0.2276 0.43891 0.0
C23 C 0.62931 0.20566 0.44476 0.0
O24 O 0.6139 0.2342 0.45147 0.0
O25 O 0.69872 0.33402 0.46106 0.0
Mg26 Mg 0.44129 0.72864 0.77345 0.0
C27 C 0.41519 0.68417 0.7434 0.0
O28 O 0.4613 0.6917 0.74568 0.0
C29 C 0.41664 0.75258 0.8036 0.0
O30 O 0.45168 0.79838 0.79912 0.0
C31 C 0.45619 0.82901 0.7639 0.0
O32 O 0.40916 0.79617 0.75984 0.0
O33 O 0.48281 0.81172 0.7698 0.0
O34 O 0.39371 0.69538 0.75371 0.0
O35 O 0.48572 0.68975 0.77548 0.0
C36 C 0.45767 0.64112 0.77631 0.0
O37 O 0.40783 0.62122 0.77634 0.0
O38 O 0.40154 0.71491 0.79468 0.0
Mg39 Mg 0.73174 0.4361 0.10645 0.0
C40 C 0.72915 0.36499 0.08138 0.0
O41 O 0.76901 0.36836 0.08825 0.0
C42 C 0.7167 0.42623 0.13854 0.0
O43 O 0.73283 0.47484 0.1358 0.0
C44 C 0.64382 0.45185 0.1031 0.0
O45 O 0.62442 0.40229 0.10113 0.0
O46 O 0.69164 0.47939 0.10549 0.0
O47 O 0.70602 0.38633 0.08704 0.0
O48 O 0.81543 0.4807 0.1069 0.0
C49 C 0.84395 0.49045 0.09555 0.0
O50 O 0.82297 0.4784 0.08232 0.0
O51 O 0.7105 0.39669 0.12767 0.0
Mg52 Mg 0.30952 0.71573 0.43929 0.0
C53 C 0.37144 0.70087 0.41394 0.0
O54 O 0.41173 0.72654 0.42244 0.0
C55 C 0.30816 0.69978 0.47106 0.0
O56 O 0.27742 0.71807 0.46877 0.0
C57 C 0.20502 0.62902 0.43714 0.0
O58 O 0.23415 0.60888 0.4348 0.0
O59 O 0.22638 0.67712 0.43944 0.0
O60 O 0.32782 0.69082 0.41867 0.0
O61 O 0.34927 0.79963 0.44022 0.0
C62 C 0.37669 0.8277 0.42956 0.0
O63 O 0.37711 0.80593 0.41698 0.0
O64 O 0.32945 0.69246 0.45988 0.0
Mg65 Mg 0.62046 0.31511 0.77515 0.0
C66 C 0.68724 0.31689 0.74938 0.0
O67 O 0.6858 0.2785 0.75672 0.0
C68 C 0.63079 0.31254 0.8071 0.0
O69 O 0.58188 0.28239 0.80436 0.0
C70 C 0.56293 0.20559 0.76257 0.0
O71 O 0.56955 0.22988 0.74993 0.0
O72 O 0.57694 0.2313 0.77456 0.0
O73 O 0.66704 0.34098 0.75515 0.0
O74 O 0.57674 0.35489 0.77547 0.0
C75 C 0.60235 0.4022 0.77195 0.0
O76 O 0.65043 0.42148 0.76811 0.0
O77 O 0.66083 0.33403 0.79619 0.0
Mg78 Mg 0.4329 0.71834 0.60843 0.0
C79 C 0.36904 0.65399 0.63482 0.0
O80 O 0.37063 0.6169 0.62762 0.0
C81 C 0.41925 0.70408 0.57655 0.0
O82 O 0.4684 0.72319 0.57884 0.0
C83 C 0.49254 0.66782 0.62025 0.0
O84 O 0.48782 0.68623 0.63299 0.0
O85 O 0.47648 0.67841 0.60848 0.0
O86 O 0.38817 0.69797 0.6288 0.0
O87 O 0.47669 0.8022 0.6079 0.0
C88 C 0.45143 0.82387 0.61162 0.0
O89 O 0.4036 0.79487 0.61572 0.0
O90 O 0.39042 0.69592 0.58773 0.0
Mg91 Mg 0.72912 0.43096 0.94506 0.0
C92 C 0.71596 0.35749 0.97129 0.0
O93 O 0.74455 0.34483 0.96346 0.0
C94 C 0.73096 0.41685 0.91335 0.0
O95 O 0.76215 0.46595 0.91579 0.0
C96 C 0.83349 0.44656 0.94245 0.0
O97 O 0.80408 0.39842 0.93854 0.0
O98 O 0.81266 0.47301 0.94573 0.0
O99 O 0.70299 0.38817 0.96581 0.0
O100 O 0.69198 0.47731 0.94382 0.0
C101 C 0.64721 0.45681 0.94935 0.0
O102 O 0.62831 0.41176 0.95577 0.0
O103 O 0.70874 0.38785 0.92442 0.0
Mg104 Mg 0.33091 0.72599 0.27633 0.0
C105 C 0.38886 0.72915 0.3044 0.0
O106 O 0.4173 0.77706 0.30021 0.0
C107 C 0.3372 0.72472 0.24406 0.0
O108 O 0.32012 0.75617 0.247 0.0
C109 C 0.42115 0.82901 0.27224 0.0
O110 O 0.43613 0.79733 0.26759 0.0
O111 O 0.37509 0.81024 0.27661 0.0
O112 O 0.35237 0.69828 0.29603 0.0
O113 O 0.24737 0.68859 0.27725 0.0
C114 C 0.2255 0.64024 0.2793 0.0
O115 O 0.25432 0.61937 0.28086 0.0
O116 O 0.34685 0.70373 0.25488 0.0
Mg117 Mg 0.61579 0.31346 0.61059 0.0
C118 C 0.64193 0.29609 0.64083 0.0
O119 O 0.59674 0.25579 0.63846 0.0
C120 C 0.62702 0.33313 0.5788 0.0
O121 O 0.57868 0.31692 0.58165 0.0
C122 C 0.60338 0.4018 0.61789 0.0
O123 O 0.65077 0.41661 0.62162 0.0
O124 O 0.57556 0.35647 0.61289 0.0
O125 O 0.66253 0.3293 0.63056 0.0
O126 O 0.57049 0.22978 0.60875 0.0
C127 C 0.59817 0.20906 0.60773 0.0
O128 O 0.64805 0.23909 0.6075 0.0
O129 O 0.65632 0.33791 0.58957 0.0
Mg130 Mg 0.32223 0.6191 0.94071 0.0
C131 C 0.3808 0.68356 0.96815 0.0
O132 O 0.41591 0.67263 0.96407 0.0
C133 C 0.36813 0.69577 0.91394 0.0
O134 O 0.40391 0.72753 0.92308 0.0
C135 C 0.21663 0.59486 0.94648 0.0
O136 O 0.24446 0.6437 0.94988 0.0
O137 O 0.2392 0.57093 0.94228 0.0
O138 O 0.34202 0.67002 0.95989 0.0
O139 O 0.36557 0.57869 0.94179 0.0
C140 C 0.41225 0.60374 0.9378 0.0
O141 O 0.4308 0.65094 0.93298 0.0
O142 O 0.3329 0.65278 0.91872 0.0
Mg143 Mg 0.73504 0.31984 0.27639 0.0
C144 C 0.66819 0.3088 0.30283 0.0
O145 O 0.63818 0.26472 0.2963 0.0
C146 C 0.72865 0.32632 0.24448 0.0
O147 O 0.74822 0.29661 0.24679 0.0
C148 C 0.68951 0.20354 0.28394 0.0
O149 O 0.71773 0.21949 0.29598 0.0
O150 O 0.69243 0.23618 0.27446 0.0
O151 O 0.7096 0.34088 0.29646 0.0
O152 O 0.81862 0.35863 0.2773 0.0
C153 C 0.84026 0.40649 0.28013 0.0
O154 O 0.81127 0.42671 0.2826 0.0
O155 O 0.71776 0.34475 0.25568 0.0
H156 H 0.30098 0.68016 0.9833 0.0
H157 H 0.46027 0.72589 0.98789 0.0
H158 H 0.29598 0.69262 1.00968 0.0
H159 H 0.45618 0.74114 1.0143 0.0
H160 H 0.40601 0.67777 0.0617 0.0
H161 H 0.42344 0.69028 0.03533 0.0
H162 H 0.31472 0.74274 0.03094 0.0
H163 H 0.29538 0.72749 0.05735 0.0
C164 C 0.33543 0.69439 0.98987 0.0
C165 C 0.38087 0.70134 0.98351 0.0
C166 C 0.33266 0.70188 1.00508 0.0
C167 C 0.3755 0.71728 1.01431 0.0
C168 C 0.42198 0.72792 1.00768 0.0
C169 C 0.42451 0.71964 0.99249 0.0
C170 C 0.38639 0.6928 0.05518 0.0
C171 C 0.34877 0.70095 0.06162 0.0
C172 C 0.39666 0.70036 0.03998 0.0
C173 C 0.37013 0.71703 0.03082 0.0
C174 C 0.33503 0.72862 0.0375 0.0
C175 C 0.32421 0.72031 0.0527 0.0
H176 H 0.5701 0.27465 0.39543 0.0
H177 H 0.73326 0.37796 0.39455 0.0
H178 H 0.56708 0.28115 0.36852 0.0
H179 H 0.73079 0.38259 0.36773 0.0
H180 H 0.71726 0.39739 0.31918 0.0
H181 H 0.70832 0.40743 0.34568 0.0
H182 H 0.58971 0.24808 0.34828 0.0
H183 H 0.5971 0.23894 0.32181 0.0
C184 C 0.60524 0.29922 0.38952 0.0
C185 C 0.65196 0.32532 0.39714 0.0
C186 C 0.60363 0.30263 0.37405 0.0
C187 C 0.6488 0.3317 0.36582 0.0
C188 C 0.69506 0.3602 0.37359 0.0
C189 C 0.69655 0.35731 0.38905 0.0
C190 C 0.68862 0.36483 0.32539 0.0
C191 C 0.65821 0.31726 0.31839 0.0
C192 C 0.68371 0.37044 0.34062 0.0
C193 C 0.64872 0.32844 0.34927 0.0
C194 C 0.61663 0.28159 0.34206 0.0
C195 C 0.62111 0.27619 0.32682 0.0
H196 H 0.34259 0.70009 0.73002 0.0
H197 H 0.43639 0.63137 0.72308 0.0
H198 H 0.31569 0.6837 0.70393 0.0
H199 H 0.40998 0.61529 0.69728 0.0
H200 H 0.34339 0.571 0.65268 0.0
H201 H 0.33952 0.56846 0.67972 0.0
H202 H 0.36283 0.72202 0.68038 0.0
H203 H 0.36603 0.72443 0.65336 0.0
C204 C 0.35651 0.68049 0.72302 0.0
C205 C 0.39188 0.66735 0.72854 0.0
C206 C 0.3414 0.6714 0.70809 0.0
C207 C 0.36077 0.64829 0.69851 0.0
C208 C 0.39378 0.63256 0.70434 0.0
C209 C 0.40928 0.64218 0.71914 0.0
C210 C 0.34643 0.60376 0.65855 0.0
C211 C 0.35588 0.64824 0.65084 0.0
C212 C 0.34443 0.60237 0.67407 0.0
C213 C 0.35164 0.64532 0.68221 0.0
C214 C 0.3569 0.68819 0.67446 0.0
C215 C 0.35905 0.68966 0.65895 0.0
H216 H 0.64261 0.33921 0.06554 0.0
H217 H 0.7897 0.34934 0.06207 0.0
H218 H 0.62966 0.32327 0.03895 0.0
H219 H 0.77786 0.33557 0.03543 0.0
H220 H 0.74202 0.29679 0.98748 0.0
H221 H 0.73606 0.28424 1.01434 0.0
H222 H 0.66357 0.37613 1.01794 0.0
H223 H 0.66778 0.38691 0.99125 0.0
C224 C 0.67192 0.33738 0.05912 0.0
C225 C 0.71743 0.34612 0.06589 0.0
C226 C 0.66469 0.32862 0.04384 0.0
C227 C 0.7031 0.32909 0.03493 0.0
C228 C 0.7472 0.33451 0.04189 0.0
C229 C 0.75414 0.34264 0.05721 0.0
C230 C 0.7239 0.31343 0.994 0.0
C231 C 0.70584 0.34329 0.98721 0.0
C232 C 0.72081 0.30655 1.00943 0.0
C233 C 0.69979 0.32956 1.0184 0.0
C234 C 0.67941 0.35718 1.01146 0.0
C235 C 0.68218 0.36375 0.99608 0.0
H236 H 0.46062 0.78762 0.325 0.0
H237 H 0.32778 0.63771 0.31871 0.0
H238 H 0.45969 0.7708 0.35134 0.0
H239 H 0.32779 0.62009 0.34516 0.0
H240 H 0.29583 0.6523 0.39337 0.0
H241 H 0.30503 0.65023 0.3667 0.0
H242 H 0.469 0.72525 0.37161 0.0
H243 H 0.4598 0.7288 0.39844 0.0
C244 C 0.43187 0.75049 0.32917 0.0
C245 C 0.39376 0.71435 0.31975 0.0
C246 C 0.43159 0.74064 0.34433 0.0
C247 C 0.3933 0.69426 0.35048 0.0
C248 C 0.35727 0.65662 0.34087 0.0
C249 C 0.35746 0.66657 0.32567 0.0
C250 C 0.3339 0.66769 0.38883 0.0
C251 C 0.37715 0.6915 0.39806 0.0
C252 C 0.33916 0.66609 0.37347 0.0
C253 C 0.38782 0.68804 0.36692 0.0
C254 C 0.43097 0.70882 0.37625 0.0
C255 C 0.4257 0.71057 0.39165 0.0
H256 H 0.68979 0.38949 0.73056 0.0
H257 H 0.71464 0.26032 0.7319 0.0
H258 H 0.69326 0.38945 0.70356 0.0
H259 H 0.71884 0.26086 0.70487 0.0
H260 H 0.62188 0.22301 0.66145 0.0
H261 H 0.64838 0.23497 0.68726 0.0
H262 H 0.74032 0.39841 0.6801 0.0
H263 H 0.71328 0.38625 0.65402 0.0
C264 C 0.69736 0.36193 0.72513 0.0
C265 C 0.701 0.3243 0.73341 0.0
C266 C 0.69966 0.36213 0.70962 0.0
C267 C 0.70558 0.32466 0.70205 0.0
C268 C 0.71339 0.2897 0.71038 0.0
C269 C 0.71122 0.28957 0.72588 0.0
C270 C 0.64847 0.26146 0.66529 0.0
C271 C 0.66514 0.30373 0.65574 0.0
C272 C 0.66405 0.26829 0.68008 0.0
C273 C 0.69643 0.31768 0.68577 0.0
C274 C 0.71509 0.35991 0.67605 0.0
C275 C 0.69987 0.35295 0.66112 0.0
H276 H 0.37039 0.6609 0.23343 0.0
H277 H 0.31738 0.7631 0.21919 0.0
H278 H 0.37646 0.64057 0.2075 0.0
H279 H 0.32217 0.74194 0.19348 0.0
H280 H 0.37072 0.72398 0.14754 0.0
H281 H 0.3785 0.75075 0.17347 0.0
H282 H 0.31935 0.59379 0.18747 0.0
H283 H 0.31289 0.56743 0.16173 0.0
C284 C 0.36015 0.67908 0.22479 0.0
C285 C 0.34318 0.71341 0.22841 0.0
C286 C 0.36339 0.66728 0.20993 0.0
C287 C 0.34972 0.68954 0.19836 0.0
C288 C 0.33376 0.72464 0.20203 0.0
C289 C 0.3306 0.73644 0.21684 0.0
C290 C 0.35983 0.69534 0.15617 0.0
C291 C 0.34094 0.64356 0.15254 0.0
C292 C 0.36403 0.71059 0.17104 0.0
C293 C 0.34937 0.67439 0.1826 0.0
C294 C 0.33167 0.62286 0.17892 0.0
C295 C 0.32758 0.60768 0.1641 0.0
H296 H 0.75502 0.30262 0.49703 0.0
H297 H 0.66355 0.36728 0.48219 0.0
H298 H 0.73654 0.31206 0.52264 0.0
H299 H 0.64617 0.37827 0.50801 0.0
H300 H 0.57086 0.32029 0.55389 0.0
H301 H 0.59684 0.32502 0.52821 0.0
H302 H 0.75011 0.37024 0.54243 0.0
H303 H 0.72348 0.36387 0.56832 0.0
C304 C 0.73142 0.3195 0.49923 0.0
C305 C 0.71042 0.33382 0.48753 0.0
C306 C 0.72118 0.32535 0.51398 0.0
C307 C 0.68983 0.34593 0.51746 0.0
C308 C 0.66991 0.36161 0.50575 0.0
C309 C 0.68003 0.35554 0.49094 0.0
C310 C 0.61027 0.33166 0.55159 0.0
C311 C 0.64499 0.34122 0.5632 0.0
C312 C 0.62529 0.33479 0.53679 0.0
C313 C 0.67555 0.34781 0.53319 0.0
C314 C 0.71086 0.35927 0.5448 0.0
C315 C 0.69572 0.35592 0.55965 0.0
H316 H 0.36285 0.66157 0.81865 0.0
H317 H 0.43591 0.82575 0.82443 0.0
H318 H 0.34784 0.64982 0.84533 0.0
H319 H 0.41979 0.81401 0.851 0.0
H320 H 0.44558 0.7755 0.89862 0.0
H321 H 0.45215 0.78964 0.87187 0.0
H322 H 0.30215 0.65673 0.86613 0.0
H323 H 0.29616 0.64187 0.89279 0.0
C324 C 0.3748 0.69509 0.82557 0.0
C325 C 0.40091 0.74458 0.81941 0.0
C326 C 0.3661 0.68839 0.84088 0.0
C327 C 0.38307 0.73103 0.85038 0.0
C328 C 0.40716 0.78037 0.84409 0.0
C329 C 0.41605 0.78706 0.82881 0.0
C330 C 0.41382 0.74958 0.89167 0.0
C331 C 0.37053 0.7074 0.89786 0.0
C332 C 0.41745 0.75779 0.87631 0.0
C333 C 0.37774 0.72416 0.86679 0.0
C334 C 0.33382 0.68287 0.87307 0.0
C335 C 0.33029 0.67456 0.8884 0.0
H336 H 0.73241 0.48243 0.16369 0.0
H337 H 0.68624 0.32908 0.14864 0.0
H338 H 0.72952 0.45556 0.18925 0.0
H339 H 0.6819 0.30169 0.17437 0.0
H340 H 0.75174 0.29422 0.21893 0.0
H341 H 0.74228 0.31522 0.19359 0.0
H342 H 0.67657 0.40468 0.20954 0.0
H343 H 0.68735 0.3846 0.23511 0.0
C344 C 0.72092 0.44272 0.16584 0.0
C345 C 0.71004 0.408 0.15409 0.0
C346 C 0.71888 0.42721 0.18055 0.0
C347 C 0.70573 0.37651 0.1839 0.0
C348 C 0.69301 0.34127 0.17217 0.0
C349 C 0.69521 0.35686 0.15742 0.0
C350 C 0.73506 0.31824 0.21708 0.0
C351 C 0.72058 0.338 0.22908 0.0
C352 C 0.7292 0.3299 0.20249 0.0
C353 C 0.70852 0.36153 0.19947 0.0
C354 C 0.69316 0.38065 0.21147 0.0
C355 C 0.69916 0.36903 0.22612 0.0
H356 H 0.32001 0.66497 0.56726 0.0
H357 H 0.47364 0.72318 0.55095 0.0
H358 H 0.2892 0.65522 0.54173 0.0
H359 H 0.44332 0.71496 0.52562 0.0
H360 H 0.3719 0.665 0.48043 0.0
H361 H 0.3945 0.65758 0.506 0.0
H362 H 0.2942 0.71048 0.52194 0.0
H363 H 0.27065 0.71636 0.4966 0.0
C364 C 0.34715 0.67552 0.55825 0.0
C365 C 0.39929 0.69515 0.56116 0.0
C366 C 0.32957 0.67017 0.54361 0.0
C367 C 0.3638 0.68449 0.53158 0.0
C368 C 0.4157 0.70281 0.53455 0.0
C369 C 0.43318 0.70796 0.54913 0.0
C370 C 0.35432 0.67447 0.48942 0.0
C371 C 0.31976 0.69158 0.48646 0.0
C372 C 0.36743 0.67049 0.50407 0.0
C373 C 0.34636 0.68366 0.51606 0.0
C374 C 0.31067 0.69929 0.51305 0.0
C375 C 0.29748 0.70309 0.49845 0.0
H376 H 0.66739 0.31818 0.90366 0.0
H377 H 0.77122 0.4717 0.88803 0.0
H378 H 0.64738 0.28855 0.87798 0.0
H379 H 0.75026 0.44266 0.86256 0.0
H380 H 0.72905 0.37228 0.81728 0.0
H381 H 0.75707 0.39259 0.84307 0.0
H382 H 0.60106 0.29755 0.85777 0.0
H383 H 0.57351 0.27617 0.83219 0.0
C384 C 0.68606 0.34552 0.89477 0.0
C385 C 0.7206 0.39733 0.89791 0.0
C386 C 0.67445 0.32864 0.88005 0.0
C387 C 0.69705 0.36326 0.86816 0.0
C388 C 0.73265 0.41472 0.87137 0.0
C389 C 0.74434 0.43149 0.88604 0.0
C390 C 0.7009 0.35538 0.82604 0.0
C391 C 0.64904 0.32291 0.82266 0.0
C392 C 0.71687 0.36717 0.84082 0.0
C393 C 0.68129 0.3469 0.85253 0.0
C394 C 0.62968 0.3133 0.8491 0.0
C395 C 0.6138 0.30139 0.83437 0.0
H396 H 0.89993 0.51957 0.12125 0.0
H397 H 0.91356 0.50298 0.07411 0.0
H398 H 0.9894 0.54453 0.12453 0.0
H399 H 1.00333 0.52862 0.0774 0.0
H400 H 0.1476 0.52396 0.09145 0.0
H401 H 0.05717 0.49699 0.08827 0.0
H402 H 0.07437 0.61494 0.11887 0.0
H403 H 0.16391 0.64127 0.12218 0.0
C404 C 0.92209 0.5217 0.11156 0.0
C405 C 0.89945 0.50938 0.09741 0.0
C406 C 0.9735 0.53612 0.11344 0.0
C407 C 1.00363 0.53844 0.10124 0.0
C408 C 0.9811 0.52655 0.08707 0.0
C409 C 0.92971 0.51234 0.08517 0.0
C410 C 0.13193 0.54385 0.09756 0.0
C411 C 0.16309 0.58475 0.10707 0.0
C412 C 0.08021 0.52868 0.09566 0.0
C413 C 0.05844 0.55385 0.1033 0.0
C414 C 0.08958 0.59428 0.11293 0.0
C415 C 0.14114 0.60955 0.11477 0.0
H416 H 0.64441 0.13476 0.4298 0.0
H417 H 0.53287 0.14974 0.45592 0.0
H418 H 0.58323 0.0435 0.42633 0.0
H419 H 0.47171 0.05931 0.45219 0.0
H420 H 0.39161 0.8843 0.45482 0.0
H421 H 0.45391 0.97461 0.45887 0.0
H422 H 0.50393 0.98804 0.41335 0.0
H423 H 0.4424 0.89753 0.40938 0.0
C424 C 0.60696 0.11862 0.43483 0.0
C425 C 0.59364 0.14965 0.44314 0.0
C426 C 0.57171 0.06639 0.43275 0.0
C427 C 0.52236 0.04397 0.43893 0.0
C428 C 0.50946 0.07498 0.44741 0.0
C429 C 0.54459 0.12705 0.44948 0.0
C430 C 0.41566 0.90657 0.44564 0.0
C431 C 0.41187 0.88356 0.43177 0.0
C432 C 0.45137 0.95845 0.44796 0.0
C433 C 0.48421 0.98869 0.43646 0.0
C434 C 0.47992 0.96578 0.42253 0.0
C435 C 0.44422 0.91392 0.42022 0.0
H436 H 0.64292 0.49909 0.76094 0.0
H437 H 0.51163 0.38264 0.78459 0.0
H438 H 0.60852 0.55648 0.76237 0.0
H439 H 0.47783 0.4409 0.78653 0.0
H440 H 0.40615 0.53712 0.77353 0.0
H441 H 0.44047 0.47972 0.77256 0.0
H442 H 0.59285 0.60874 0.77858 0.0
H443 H 0.55834 0.66668 0.77897 0.0
C444 C 0.60673 0.48578 0.76653 0.0
C445 C 0.57996 0.43614 0.77262 0.0
C446 C 0.58717 0.51899 0.76747 0.0
C447 C 0.54044 0.50372 0.77465 0.0
C448 C 0.51359 0.45392 0.78073 0.0
C449 C 0.533 0.42045 0.77967 0.0
C450 C 0.44702 0.55339 0.77469 0.0
C451 C 0.47951 0.60664 0.77631 0.0
C452 C 0.46673 0.52025 0.77424 0.0
C453 C 0.51952 0.53929 0.77551 0.0
C454 C 0.55205 0.59261 0.77732 0.0
C455 C 0.53229 0.62591 0.77764 0.0
H456 H 0.49719 0.13368 0.60531 0.0
H457 H 0.64911 0.15632 0.61013 0.0
H458 H 0.46207 0.04083 0.60556 0.0
H459 H 0.61423 0.06423 0.61095 0.0
H460 H 0.54176 0.89553 0.59873 0.0
H461 H 0.57596 0.98796 0.59689 0.0
H462 H 0.44646 0.97236 0.62159 0.0
H463 H 0.41165 0.88021 0.62292 0.0
C464 C 0.52304 0.11888 0.60648 0.0
C465 C 0.57593 0.1525 0.60768 0.0
C466 C 0.50295 0.0656 0.60672 0.0
C467 C 0.53523 0.04469 0.6083 0.0
C468 C 0.58813 0.07858 0.60945 0.0
C469 C 0.60817 0.13163 0.60908 0.0
C470 C 0.52072 0.91194 0.60378 0.0
C471 C 0.47398 0.88042 0.61096 0.0
C472 C 0.54037 0.96503 0.60278 0.0
C473 C 0.51399 0.98796 0.60906 0.0
C474 C 0.46745 0.95625 0.61635 0.0
C475 C 0.44766 0.90326 0.61723 0.0
H476 H 0.38633 0.50395 0.94349 0.0
H477 H 0.51604 0.65447 0.9354 0.0
H478 H 0.4436 0.46932 0.94591 0.0
H479 H 0.57332 0.62061 0.93842 0.0
H480 H 0.66077 0.53542 0.93093 0.0
H481 H 0.60357 0.56985 0.92764 0.0
H482 H 0.50429 0.46769 0.9618 0.0
H483 H 0.56023 0.43216 0.9646 0.0
C484 C 0.42706 0.52969 0.94231 0.0
C485 C 0.4465 0.58193 0.93923 0.0
C486 C 0.46007 0.50996 0.9438 0.0
C487 C 0.51341 0.5421 0.94241 0.0
C488 C 0.53262 0.59437 0.93931 0.0
C489 C 0.49964 0.61391 0.93767 0.0
C490 C 0.62685 0.52059 0.93777 0.0
C491 C 0.61505 0.48097 0.94799 0.0
C492 C 0.594 0.5404 0.93593 0.0
C493 C 0.54884 0.52144 0.94438 0.0
C494 C 0.53788 0.48254 0.95482 0.0
C495 C 0.57033 0.46243 0.95654 0.0
H496 H 0.15206 0.66581 0.27282 0.0
H497 H 0.17072 0.53888 0.28653 0.0
H498 H 0.05936 0.6091 0.27268 0.0
H499 H 0.07866 0.48286 0.28684 0.0
H500 H 0.91335 0.38255 0.27181 0.0
H501 H 1.00591 0.43952 0.27125 0.0
H502 H 0.98745 0.56302 0.28851 0.0
H503 H 0.89534 0.50672 0.28863 0.0
C504 C 0.13642 0.62598 0.27591 0.0
C505 C 0.16894 0.607 0.27965 0.0
C506 C 0.0832 0.59339 0.2759 0.0
C507 C 0.0612 0.5411 0.27971 0.0
C508 C 0.09394 0.52248 0.28356 0.0
C509 C 0.14695 0.55488 0.2835 0.0
C510 C 0.92912 0.42182 0.27551 0.0
C511 C 0.8968 0.43995 0.28025 0.0
C512 C 0.98228 0.45456 0.27525 0.0
C513 C 1.00448 0.50616 0.27981 0.0
C514 C 0.97197 0.52397 0.28465 0.0
C515 C 0.91896 0.4914 0.28483 0.0
H516 H 0.54393 0.40457 0.09463 0.0
H517 H 0.66604 0.54883 0.11116 0.0
H518 H 0.48671 0.43923 0.09448 0.0
H519 H 0.60819 0.58319 0.11149 0.0
H520 H 0.50831 0.64658 0.09565 0.0
H521 H 0.56478 0.61122 0.0956 0.0
H522 H 0.43992 0.46488 0.10999 0.0
H523 H 0.38269 0.50017 0.10954 0.0
C524 C 0.55856 0.4437 0.09832 0.0
C525 C 0.6097 0.47399 0.10287 0.0
C526 C 0.5255 0.46348 0.09834 0.0
C527 C 0.54254 0.51403 0.10301 0.0
C528 C 0.59379 0.54433 0.1076 0.0
C529 C 0.62701 0.52462 0.10747 0.0
C530 C 0.49273 0.60678 0.09879 0.0
C531 C 0.44088 0.57619 0.10261 0.0
C532 C 0.52537 0.58657 0.09887 0.0
C533 C 0.50725 0.53522 0.10289 0.0
C534 C 0.4552 0.50445 0.10666 0.0
C535 C 0.42235 0.52466 0.10646 0.0
H536 H 0.89344 0.37101 0.44485 0.0
H537 H 0.87581 0.49769 0.43015 0.0
H538 H 0.98609 0.42745 0.44526 0.0
H539 H 0.96793 0.55343 0.43009 0.0
H540 H 0.13245 0.65345 0.4454 0.0
H541 H 0.03991 0.59674 0.44601 0.0
H542 H 0.05796 0.47232 0.4293 0.0
H543 H 0.15009 0.52838 0.42916 0.0
C544 C 0.90933 0.41074 0.4416 0.0
C545 C 0.8772 0.4298 0.43749 0.0
C546 C 0.96247 0.44313 0.44177 0.0
C547 C 0.98469 0.4952 0.43774 0.0
C548 C 0.95235 0.51393 0.43353 0.0
C549 C 0.89938 0.48174 0.43346 0.0
C550 C 0.11658 0.614 0.44186 0.0
C551 C 0.14869 0.59551 0.43724 0.0
C552 C 0.06349 0.58146 0.44214 0.0
C553 C 0.04126 0.52977 0.43771 0.0
C554 C 0.07357 0.51152 0.43304 0.0
C555 C 0.12653 0.54389 0.43285 0.0
H556 H 0.55855 0.14623 0.78621 0.0
H557 H 0.52887 0.13892 0.73911 0.0
H558 H 0.5353 0.05607 0.78601 0.0
H559 H 0.50605 0.04896 0.73892 0.0
H560 H 0.41305 0.87544 0.74857 0.0
H561 H 0.4386 0.9659 0.74822 0.0
H562 H 0.56729 1.00008 0.77638 0.0
H563 H 0.5413 0.9089 0.77687 0.0
C564 C 0.54681 0.12537 0.77582 0.0
C565 C 0.54541 0.14986 0.76268 0.0
C566 C 0.53399 0.0738 0.77569 0.0
C567 C 0.5191 0.04534 0.76244 0.0
C568 C 0.517 0.06964 0.74934 0.0
C569 C 0.53013 0.12128 0.74945 0.0
C570 C 0.44705 0.90219 0.75462 0.0
C571 C 0.47511 0.88486 0.76277 0.0
C572 C 0.46181 0.95418 0.75436 0.0
C573 C 0.50488 0.99028 0.76231 0.0
C574 C 0.53355 0.97315 0.77028 0.0
C575 C 0.51896 0.921 0.77045 0.0
H576 H 0.49246 0.6105 0.59661 0.0
H577 H 0.53254 0.63901 0.64304 0.0
H578 H 0.51718 0.54483 0.59639 0.0
H579 H 0.5569 0.57318 0.64281 0.0
H580 H 0.64978 0.49476 0.63163 0.0
H581 H 0.62335 0.55877 0.63212 0.0
H582 H 0.48867 0.4578 0.60678 0.0
H583 H 0.51545 0.39339 0.60617 0.0
C584 C 0.5068 0.60301 0.60675 0.0
C585 C 0.51069 0.63026 0.61983 0.0
C586 C 0.52048 0.56498 0.60665 0.0
C587 C 0.53878 0.55355 0.61959 0.0
C588 C 0.54331 0.58128 0.63261 0.0
C589 C 0.52928 0.61902 0.63275 0.0
C590 C 0.61435 0.48593 0.62621 0.0
C591 C 0.58474 0.43886 0.61885 0.0
C592 C 0.59909 0.52265 0.62656 0.0
C593 C 0.55395 0.51351 0.61948 0.0
C594 C 0.52395 0.46624 0.61221 0.0
C595 C 0.53906 0.42917 0.61197 0.0
H596 H 0.1599 0.62859 0.96075 0.0
H597 H 0.14578 0.50601 0.9327 0.0
H598 H 0.06791 0.59243 0.96018 0.0
H599 H 0.0535 0.47071 0.93154 0.0
H600 H 0.88487 0.39401 0.94305 0.0
H601 H 0.97639 0.428 0.94469 0.0
H602 H 1.001 0.58228 0.94482 0.0
H603 H 0.90884 0.5478 0.94387 0.0
C604 C 0.13706 0.59387 0.95441 0.0
C605 C 0.16018 0.57017 0.94676 0.0
C606 C 0.08419 0.57334 0.95396 0.0
C607 C 0.0529 0.52883 0.94568 0.0
C608 C 0.07607 0.50466 0.9382 0.0
C609 C 0.12907 0.52492 0.93881 0.0
C610 C 0.9098 0.43524 0.94344 0.0
C611 C 0.88954 0.46824 0.94333 0.0
C612 C 0.96249 0.4548 0.94428 0.0
C613 C 0.99653 0.508 0.94485 0.0
C614 C 0.97613 0.54106 0.94467 0.0
C615 C 0.92325 0.52138 0.94403 0.0
H616 H 0.40453 0.91013 0.27628 0.0
H617 H 0.52457 0.87313 0.27197 0.0
H618 H 0.4693 1.00116 0.27914 0.0
H619 H 0.58858 0.96325 0.27502 0.0
H620 H 0.68283 0.12059 0.29855 0.0
H621 H 0.61679 0.03034 0.29588 0.0
H622 H 0.54103 0.07197 0.26277 0.0
H623 H 0.60723 0.16201 0.26525 0.0
C624 C 0.44458 0.92135 0.27595 0.0
C625 C 0.45932 0.88438 0.27385 0.0
C626 C 0.48161 0.97338 0.27755 0.0
C627 C 0.534 0.98923 0.27737 0.0
C628 C 0.54856 0.95218 0.27535 0.0
C629 C 0.51176 0.90053 0.2735 0.0
C630 C 0.65223 0.11049 0.29066 0.0
C631 C 0.65054 0.14851 0.28206 0.0
C632 C 0.61445 0.05883 0.28912 0.0
C633 C 0.57365 0.04417 0.27915 0.0
C634 C 0.57173 0.08218 0.27064 0.0
C635 C 0.60995 0.13369 0.27198 0.0
loop_
_geom_bond_atom_site_label_1
_geom_bond_atom_site_label_2
_geom_bond_distance
_geom_bond_site_symmetry_2
_ccdc_geom_bond_type
Mg0 O7 2.141 . S
Mg0 O8 2.048 . S
Mg0 O9 2.048 . S
Mg0 O12 2.141 . S
C1 O2 1.313 . S
C1 O8 1.195 . S
O2 C1 1.313 . S
C3 O4 1.245 . S
C3 O12 1.289 . S
O4 C3 1.245 . S
C5 O6 1.245 . S
C5 O7 1.289 . S
O6 C5 1.245 . S
O7 Mg0 2.141 . S
O7 C5 1.289 . S
O8 Mg0 2.048 . S
O8 C1 1.195 . S
O9 Mg0 2.048 . S
O9 C10 1.195 . S
C10 O9 1.195 . S
C10 O11 1.313 . S
O11 C10 1.313 . S
O12 Mg0 2.141 . S
O12 C3 1.289 . S
Mg13 O20 2.141 . S
Mg13 O21 2.048 . S
Mg13 O22 2.048 . S
Mg13 O25 2.141 . S
C14 O15 1.313 . S
C14 O21 1.195 . S
O15 C14 1.313 . S
C16 O17 1.245 . S
C16 O25 1.289 . S
O17 C16 1.245 . S
C18 O19 1.245 . S
C18 O20 1.289 . S
O19 C18 1.245 . S
O20 Mg13 2.141 . S
O20 C18 1.289 . S
O21 Mg13 2.048 . S
O21 C14 1.195 . S
O22 Mg13 2.048 . S
O22 C23 1.195 . S
C23 O22 1.195 . S
C23 O24 1.313 . S
O24 C23 1.313 . S
O25 Mg13 2.141 . S
O25 C16 1.289 . S
Mg26 O33 2.141 . S
Mg26 O34 2.048 . S
Mg26 O35 2.048 . S
Mg26 O38 2.141 . S
C27 O28 1.313 . S
C27 O34 1.195 . S
O28 C27 1.313 . S
C29 O30 1.245 . S
C29 O38 1.289 . S
O30 C29 1.245 . S
C31 O32 1.245 . S
C31 O33 1.289 . S
O32 C31 1.245 . S
O33 Mg26 2.141 . S
O33 C31 1.289 . S
O34 Mg26 2.048 . S
O34 C27 1.195 . S
O35 Mg26 2.048 . S
O35 C36 1.195 . S
C36 O35 1.195 . S
C36 O37 1.313 . S
O37 C36 1.313 . S
O38 Mg26 2.141 . S
O38 C29 1.289 . S
Mg39 O46 2.141 . S
Mg39 O47 2.048 . S
Mg39 O48 2.048 . S
Mg39 O51 2.141 . S
C40 O41 1.313 . S
C40 O47 1.195 . S
O41 C40 1.313 . S
C42 O43 1.245 . S
C42 O51 1.289 . S
O43 C42 1.245 . S
C44 O45 1.245 . S
C44 O46 1.289 . S
O45 C44 1.245 . S
O46 Mg39 2.141 . S
O46 C44 1.289 . S
O47 Mg39 2.048 . S
O47 C40 1.195 . S
O48 Mg39 2.048 . S
O48 C49 1.195 . S
C49 O48 1.195 . S
C49 O50 1.313 . S
O50 C49 1.313 . S
O51 Mg39 2.141 . S
O51 C42 1.289 . S
Mg52 O59 2.141 . S
Mg52 O60 2.048 . S
Mg52 O61 2.048 . S
Mg52 O64 2.141 . S
C53 O54 1.313 . S
C53 O60 1.195 . S
O54 C53 1.313 . S
C55 O56 1.245 . S
C55 O64 1.289 . S
O56 C55 1.245 . S
C57 O58 1.245 . S
C57 O59 1.289 . S
O58 C57 1.245 . S
O59 Mg52 2.141 . S
O59 C57 1.289 . S
O60 Mg52 2.048 . S
O60 C53 1.195 . S
O61 Mg52 2.048 . S
O61 C62 1.195 . S
C62 O61 1.195 . S
C62 O63 1.313 . S
O63 C62 1.313 . S
O64 Mg52 2.141 . S
O64 C55 1.289 . S
Mg65 O72 2.141 . S
Mg65 O73 2.048 . S
Mg65 O74 2.048 . S
Mg65 O77 2.141 . S
C66 O67 1.313 . S
C66 O73 1.195 . S
O67 C66 1.313 . S
C68 O69 1.245 . S
C68 O77 1.289 . S
O69 C68 1.245 . S
C70 O71 1.245 . S
C70 O72 1.289 . S
O71 C70 1.245 . S
O72 Mg65 2.141 . S
O72 C70 1.289 . S
O73 Mg65 2.048 . S
O73 C66 1.195 . S
O74 Mg65 2.048 . S
O74 C75 1.195 . S
C75 O74 1.195 . S
C75 O76 1.313 . S
O76 C75 1.313 . S
O77 Mg65 2.141 . S
O77 C68 1.289 . S
Mg78 O85 2.141 . S
Mg78 O86 2.048 . S
Mg78 O87 2.048 . S
Mg78 O90 2.141 . S
C79 O80 1.313 . S
C79 O86 1.195 . S
O80 C79 1.313 . S
C81 O82 1.245 . S
C81 O90 1.289 . S
O82 C81 1.245 . S
C83 O84 1.245 . S
C83 O85 1.289 . S
O84 C83 1.245 . S
O85 Mg78 2.141 . S
O85 C83 1.289 . S
O86 Mg78 2.048 . S
O86 C79 1.195 . S
O87 Mg78 2.048 . S
O87 C88 1.195 . S
C88 O87 1.195 . S
C88 O89 1.313 . S
O89 C88 1.313 . S
O90 Mg78 2.141 . S
O90 C81 1.289 . S
Mg91 O98 2.141 . S
Mg91 O99 2.048 . S
Mg91 O100 2.048 . S
Mg91 O103 2.141 . S
C92 O93 1.313 . S
C92 O99 1.195 . S
O93 C92 1.313 . S
C94 O95 1.245 . S
C94 O103 1.289 . S
O95 C94 1.245 . S
C96 O97 1.245 . S
C96 O98 1.289 . S
O97 C96 1.245 . S
O98 Mg91 2.141 . S
O98 C96 1.289 . S
O99 Mg91 2.048 . S
O99 C92 1.195 . S
O100 Mg91 2.048 . S
O100 C101 1.195 . S
C101 O100 1.195 . S
C101 O102 1.313 . S
O102 C101 1.313 . S
O103 Mg91 2.141 . S
O103 C94 1.289 . S
Mg104 O111 2.141 . S
Mg104 O112 2.048 . S
Mg104 O113 2.048 . S
Mg104 O116 2.141 . S
C105 O106 1.313 . S
C105 O112 1.195 . S
O106 C105 1.313 . S
C107 O108 1.245 . S
C107 O116 1.289 . S
O108 C107 1.245 . S
C109 O110 1.245 . S
C109 O111 1.289 . S
O110 C109 1.245 . S
O111 Mg104 2.141 . S
O111 C109 1.289 . S
O112 Mg104 2.048 . S
O112 C105 1.195 . S
O113 Mg104 2.048 . S
O113 C114 1.195 . S
C114 O113 1.195 . S
C114 O115 1.313 . S
O115 C114 1.313 . S
O116 Mg104 2.141 . S
O116 C107 1.289 . S
Mg117 O124 2.141 . S
Mg117 O125 2.048 . S
Mg117 O126 2.048 . S
Mg117 O129 2.141 . S
C118 O119 1.313 . S
C118 O125 1.195 . S
O119 C118 1.313 . S
C120 O121 1.245 . S
C120 O129 1.289 . S
O121 C120 1.245 . S
C122 O123 1.245 . S
C122 O124 1.289 . S
O123 C122 1.245 . S
O124 Mg117 2.141 . S
O124 C122 1.289 . S
O125 Mg117 2.048 . S
O125 C118 1.195 . S
O126 Mg117 2.048 . S
O126 C127 1.195 . S
C127 O126 1.195 . S
C127 O128 1.313 . S
O128 C127 1.313 . S
O129 Mg117 2.141 . S
O129 C120 1.289 . S
Mg130 O137 2.141 . S
Mg130 O138 2.048 . S
Mg130 O139 2.048 . S
Mg130 O142 2.141 . S
C131 O132 1.313 . S
C131 O138 1.195 . S
O132 C131 1.313 . S
C133 O134 1.245 . S
C133 O142 1.289 . S
O134 C133 1.245 . S
C135 O136 1.245 . S
C135 O137 1.289 . S
O136 C135 1.245 . S
O137 Mg130 2.141 . S
O137 C135 1.289 . S
O138 Mg130 2.048 . S
O138 C131 1.195 . S
O139 Mg130 2.048 . S
O139 C140 1.195 . S
C140 O139 1.195 . S
C140 O141 1.313 . S
O141 C140 1.313 . S
O142 Mg130 2.141 . S
O142 C133 1.289 . S
Mg143 O150 2.141 . S
Mg143 O151 2.048 . S
Mg143 O152 2.048 . S
Mg143 O155 2.141 . S
C144 O145 1.313 . S
C144 O151 1.195 . S
O145 C144 1.313 . S
C146 O147 1.245 . S
C146 O155 1.289 . S
O147 C146 1.245 . S
C148 O149 1.245 . S
C148 O150 1.289 . S
O149 C148 1.245 . S
O150 Mg143 2.141 . S
O150 C148 1.289 . S
O151 Mg143 2.048 . S
O151 C144 1.195 . S
O152 Mg143 2.048 . S
O152 C153 1.195 . S
C153 O152 1.195 . S
C153 O154 1.313 . S
O154 C153 1.313 . S
O155 Mg143 2.141 . S
O155 C146 1.289 . S
H156 C164 0.950 . S
H157 C169 0.950 . S
H158 C166 0.950 . S
H159 C168 0.950 . S
H160 C170 0.950 . S
H161 C172 0.950 . S
H162 C174 0.950 . S
H163 C175 0.950 . S
C164 H156 0.950 . S
C164 C165 1.386 . S
C164 C166 1.391 . S
C165 C164 1.386 . S
C165 C169 1.393 . S
C166 H158 0.950 . S
C166 C164 1.391 . S
C166 C167 1.400 . S
C167 C166 1.400 . S
C167 C168 1.398 . S
C167 C173 1.491 1_556 S
C168 H159 0.950 . S
C168 C167 1.398 . S
C168 C169 1.391 . S
C169 H157 0.950 . S
C169 C165 1.393 . S
C169 C168 1.391 . S
C170 H160 0.950 . S
C170 C171 1.386 . S
C170 C172 1.391 . S
C171 C170 1.386 . S
C171 C175 1.393 . S
C172 H161 0.950 . S
C172 C170 1.391 . S
C172 C173 1.400 . S
C173 C167 1.491 1_554 S
C173 C172 1.400 . S
C173 C174 1.398 . S
C174 H162 0.950 . S
C174 C173 1.398 . S
C174 C175 1.391 . S
C175 H163 0.950 . S
C175 C171 1.393 . S
C175 C174 1.391 . S
H176 C184 0.950 . S
H177 C189 0.950 . S
H178 C186 0.950 . S
H179 C188 0.950 . S
H180 C190 0.950 . S
H181 C192 0.950 . S
H182 C194 0.950 . S
H183 C195 0.950 . S
C184 H176 0.950 . S
C184 C185 1.386 . S
C184 C186 1.391 . S
C185 C184 1.386 . S
C185 C189 1.393 . S
C186 H178 0.950 . S
C186 C184 1.391 . S
C186 C187 1.400 . S
C187 C186 1.400 . S
C187 C188 1.398 . S
C187 C193 1.491 . S
C188 H179 0.950 . S
C188 C187 1.398 . S
C188 C189 1.391 . S
C189 H177 0.950 . S
C189 C185 1.393 . S
C189 C188 1.391 . S
C190 H180 0.950 . S
C190 C191 1.386 . S
C190 C192 1.391 . S
C191 C190 1.386 . S
C191 C195 1.393 . S
C192 H181 0.950 . S
C192 C190 1.391 . S
C192 C193 1.400 . S
C193 C187 1.491 . S
C193 C192 1.400 . S
C193 C194 1.398 . S
C194 H182 0.950 . S
C194 C193 1.398 . S
C194 C195 1.391 . S
C195 H183 0.950 . S
C195 C191 1.393 . S
C195 C194 1.391 . S
H196 C204 0.950 . S
H197 C209 0.950 . S
H198 C206 0.950 . S
H199 C208 0.950 . S
H200 C210 0.950 . S
H201 C212 0.950 . S
H202 C214 0.950 . S
H203 C215 0.950 . S
C204 H196 0.950 . S
C204 C205 1.386 . S
C204 C206 1.391 . S
C205 C204 1.386 . S
C205 C209 1.393 . S
C206 H198 0.950 . S
C206 C204 1.391 . S
C206 C207 1.400 . S
C207 C206 1.400 . S
C207 C208 1.398 . S
C207 C213 1.491 . S
C208 H199 0.950 . S
C208 C207 1.398 . S
C208 C209 1.391 . S
C209 H197 0.950 . S
C209 C205 1.393 . S
C209 C208 1.391 . S
C210 H200 0.950 . S
C210 C211 1.386 . S
C210 C212 1.391 . S
C211 C210 1.386 . S
C211 C215 1.393 . S
C212 H201 0.950 . S
C212 C210 1.391 . S
C212 C213 1.400 . S
C213 C207 1.491 . S
C213 C212 1.400 . S
C213 C214 1.398 . S
C214 H202 0.950 . S
C214 C213 1.398 . S
C214 C215 1.391 . S
C215 H203 0.950 . S
C215 C211 1.393 . S
C215 C214 1.391 . S
H216 C224 0.950 . S
H217 C229 0.950 . S
H218 C226 0.950 . S
H219 C228 0.950 . S
H220 C230 0.950 . S
H221 C232 0.950 . S
H222 C234 0.950 . S
H223 C235 0.950 . S
C224 H216 0.950 . S
C224 C225 1.386 . S
C224 C226 1.391 . S
C225 C224 1.386 . S
C225 C229 1.393 . S
C226 H218 0.950 . S
C226 C224 1.391 . S
C226 C227 1.400 . S
C227 C226 1.400 . S
C227 C228 1.398 . S
C227 C233 1.491 1_554 S
C228 H219 0.950 . S
C228 C227 1.398 . S
C228 C229 1.391 . S
C229 H217 0.950 . S
C229 C225 1.393 . S
C229 C228 1.391 . S
C230 H220 0.950 . S
C230 C231 1.386 . S
C230 C232 1.391 . S
C231 C230 1.386 . S
C231 C235 1.393 . S
C232 H221 0.950 . S
C232 C230 1.391 . S
C232 C233 1.400 . S
C233 C227 1.491 1_556 S
C233 C232 1.400 . S
C233 C234 1.398 . S
C234 H222 0.950 . S
C234 C233 1.398 . S
C234 C235 1.391 . S
C235 H223 0.950 . S
C235 C231 1.393 . S
C235 C234 1.391 . S
H236 C244 0.950 . S
H237 C249 0.950 . S
H238 C246 0.950 . S
H239 C248 0.950 . S
H240 C250 0.950 . S
H241 C252 0.950 . S
H242 C254 0.950 . S
H243 C255 0.950 . S
C244 H236 0.950 . S
C244 C245 1.386 . S
C244 C246 1.391 . S
C245 C244 1.386 . S
C245 C249 1.393 . S
C246 H238 0.950 . S
C246 C244 1.391 . S
C246 C247 1.400 . S
C247 C246 1.400 . S
C247 C248 1.398 . S
C247 C253 1.491 . S
C248 H239 0.950 . S
C248 C247 1.398 . S
C248 C249 1.391 . S
C249 H237 0.950 . S
C249 C245 1.393 . S
C249 C248 1.391 . S
C250 H240 0.950 . S
C250 C251 1.386 . S
C250 C252 1.391 . S
C251 C250 1.386 . S
C251 C255 1.393 . S
C252 H241 0.950 . S
C252 C250 1.391 . S
C252 C253 1.400 . S
C253 C247 1.491 . S
C253 C252 1.400 . S
C253 C254 1.398 . S
C254 H242 0.950 . S
C254 C253 1.398 . S
C254 C255 1.391 . S
C255 H243 0.950 . S
C255 C251 1.393 . S
C255 C254 1.391 . S
H256 C264 0.950 . S
H257 C269 0.950 . S
H258 C266 0.950 . S
H259 C268 0.950 . S
H260 C270 0.950 . S
H261 C272 0.950 . S
H262 C274 0.950 . S
H263 C275 0.950 . S
C264 H256 0.950 . S
C264 C265 1.386 . S
C264 C266 1.391 . S
C265 C264 1.386 . S
C265 C269 1.393 . S
C266 H258 0.950 . S
C266 C264 1.391 . S
C266 C267 1.400 . S
C267 C266 1.400 . S
C267 C268 1.398 . S
C267 C273 1.491 . S
C268 H259 0.950 . S
C268 C267 1.398 . S
C268 C269 1.391 . S
C269 H257 0.950 . S
C269 C265 1.393 . S
C269 C268 1.391 . S
C270 H260 0.950 . S
C270 C271 1.386 . S
C270 C272 1.391 . S
C271 C270 1.386 . S
C271 C275 1.393 . S
C272 H261 0.950 . S
C272 C270 1.391 . S
C272 C273 1.400 . S
C273 C267 1.491 . S
C273 C272 1.400 . S
C273 C274 1.398 . S
C274 H262 0.950 . S
C274 C273 1.398 . S
C274 C275 1.391 . S
C275 H263 0.950 . S
C275 C271 1.393 . S
C275 C274 1.391 . S
H276 C284 0.950 . S
H277 C289 0.950 . S
H278 C286 0.950 . S
H279 C288 0.950 . S
H280 C290 0.950 . S
H281 C292 0.950 . S
H282 C294 0.950 . S
H283 C295 0.950 . S
C284 H276 0.950 . S
C284 C285 1.386 . S
C284 C286 1.391 . S
C285 C284 1.386 . S
C285 C289 1.393 . S
C286 H278 0.950 . S
C286 C284 1.391 . S
C286 C287 1.400 . S
C287 C286 1.400 . S
C287 C288 1.398 . S
C287 C293 1.491 . S
C288 H279 0.950 . S
C288 C287 1.398 . S
C288 C289 1.391 . S
C289 H277 0.950 . S
C289 C285 1.393 . S
C289 C288 1.391 . S
C290 H280 0.950 . S
C290 C291 1.386 . S
C290 C292 1.391 . S
C291 C290 1.386 . S
C291 C295 1.393 . S
C292 H281 0.950 . S
C292 C290 1.391 . S
C292 C293 1.400 . S
C293 C287 1.491 . S
C293 C292 1.400 . S
C293 C294 1.398 . S
C294 H282 0.950 . S
C294 C293 1.398 . S
C294 C295 1.391 . S
C295 H283 0.950 . S
C295 C291 1.393 . S
C295 C294 1.391 . S
H296 C304 0.950 . S
H297 C309 0.950 . S
H298 C306 0.950 . S
H299 C308 0.950 . S
H300 C310 0.950 . S
H301 C312 0.950 . S
H302 C314 0.950 . S
H303 C315 0.950 . S
C304 H296 0.950 . S
C304 C305 1.386 . S
C304 C306 1.391 . S
C305 C304 1.386 . S
C305 C309 1.393 . S
C306 H298 0.950 . S
C306 C304 1.391 . S
C306 C307 1.400 . S
C307 C306 1.400 . S
C307 C308 1.398 . S
C307 C313 1.491 . S
C308 H299 0.950 . S
C308 C307 1.398 . S
C308 C309 1.391 . S
C309 H297 0.950 . S
C309 C305 1.393 . S
C309 C308 1.391 . S
C310 H300 0.950 . S
C310 C311 1.386 . S
C310 C312 1.391 . S
C311 C310 1.386 . S
C311 C315 1.393 . S
C312 H301 0.950 . S
C312 C310 1.391 . S
C312 C313 1.400 . S
C313 C307 1.491 . S
C313 C312 1.400 . S
C313 C314 1.398 . S
C314 H302 0.950 . S
C314 C313 1.398 . S
C314 C315 1.391 . S
C315 H303 0.950 . S
C315 C311 1.393 . S
C315 C314 1.391 . S
H316 C324 0.950 . S
H317 C329 0.950 . S
H318 C326 0.950 . S
H319 C328 0.950 . S
H320 C330 0.950 . S
H321 C332 0.950 . S
H322 C334 0.950 . S
H323 C335 0.950 . S
C324 H316 0.950 . S
C324 C325 1.386 . S
C324 C326 1.391 . S
C325 C324 1.386 . S
C325 C329 1.393 . S
C326 H318 0.950 . S
C326 C324 1.391 . S
C326 C327 1.400 . S
C327 C326 1.400 . S
C327 C328 1.398 . S
C327 C333 1.491 . S
C328 H319 0.950 . S
C328 C327 1.398 . S
C328 C329 1.391 . S
C329 H317 0.950 . S
C329 C325 1.393 . S
C329 C328 1.391 . S
C330 H320 0.950 . S
C330 C331 1.386 . S
C330 C332 1.391 . S
C331 C330 1.386 . S
C331 C335 1.393 . S
C332 H321 0.950 . S
C332 C330 1.391 . S
C332 C333 1.400 . S
C333 C327 1.491 . S
C333 C332 1.400 . S
C333 C334 1.398 . S
C334 H322 0.950 . S
C334 C333 1.398 . S
C334 C335 1.391 . S
C335 H323 0.950 . S
C335 C331 1.393 . S
C335 C334 1.391 . S
H336 C344 0.950 . S
H337 C349 0.950 . S
H338 C346 0.950 . S
H339 C348 0.950 . S
H340 C350 0.950 . S
H341 C352 0.950 . S
H342 C354 0.950 . S
H343 C355 0.950 . S
C344 H336 0.950 . S
C344 C345 1.386 . S
C344 C346 1.391 . S
C345 C344 1.386 . S
C345 C349 1.393 . S
C346 H338 0.950 . S
C346 C344 1.391 . S
C346 C347 1.400 . S
C347 C346 1.400 . S
C347 C348 1.398 . S
C347 C353 1.491 . S
C348 H339 0.950 . S
C348 C347 1.398 . S
C348 C349 1.391 . S
C349 H337 0.950 . S
C349 C345 1.393 . S
C349 C348 1.391 . S
C350 H340 0.950 . S
C350 C351 1.386 . S
C350 C352 1.391 . S
C351 C350 1.386 . S
C351 C355 1.393 . S
C352 H341 0.950 . S
C352 C350 1.391 . S
C352 C353 1.400 . S
C353 C347 1.491 . S
C353 C352 1.400 . S
C353 C354 1.398 . S
C354 H342 0.950 . S
C354 C353 1.398 . S
C354 C355 1.391 . S
C355 H343 0.950 . S
C355 C351 1.393 . S
C355 C354 1.391 . S
H356 C364 0.950 . S
H357 C369 0.950 . S
H358 C366 0.950 . S
H359 C368 0.950 . S
H360 C370 0.950 . S
H361 C372 0.950 . S
H362 C374 0.950 . S
H363 C375 0.950 . S
C364 H356 0.950 . S
C364 C365 1.386 . S
C364 C366 1.391 . S
C365 C364 1.386 . S
C365 C369 1.393 . S
C366 H358 0.950 . S
C366 C364 1.391 . S
C366 C367 1.400 . S
C367 C366 1.400 . S
C367 C368 1.398 . S
C367 C373 1.491 . S
C368 H359 0.950 . S
C368 C367 1.398 . S
C368 C369 1.391 . S
C369 H357 0.950 . S
C369 C365 1.393 . S
C369 C368 1.391 . S
C370 H360 0.950 . S
C370 C371 1.386 . S
C370 C372 1.391 . S
C371 C370 1.386 . S
C371 C375 1.393 . S
C372 H361 0.950 . S
C372 C370 1.391 . S
C372 C373 1.400 . S
C373 C367 1.491 . S
C373 C372 1.400 . S
C373 C374 1.398 . S
C374 H362 0.950 . S
C374 C373 1.398 . S
C374 C375 1.391 . S
C375 H363 0.950 . S
C375 C371 1.393 . S
C375 C374 1.391 . S
H376 C384 0.950 . S
H377 C389 0.950 . S
H378 C386 0.950 . S
H379 C388 0.950 . S
H380 C390 0.950 . S
H381 C392 0.950 . S
H382 C394 0.950 . S
H383 C395 0.950 . S
C384 H376 0.950 . S
C384 C385 1.386 . S
C384 C386 1.391 . S
C385 C384 1.386 . S
C385 C389 1.393 . S
C386 H378 0.950 . S
C386 C384 1.391 . S
C386 C387 1.400 . S
C387 C386 1.400 . S
C387 C388 1.398 . S
C387 C393 1.491 . S
C388 H379 0.950 . S
C388 C387 1.398 . S
C388 C389 1.391 . S
C389 H377 0.950 . S
C389 C385 1.393 . S
C389 C388 1.391 . S
C390 H380 0.950 . S
C390 C391 1.386 . S
C390 C392 1.391 . S
C391 C390 1.386 . S
C391 C395 1.393 . S
C392 H381 0.950 . S
C392 C390 1.391 . S
C392 C393 1.400 . S
C393 C387 1.491 . S
C393 C392 1.400 . S
C393 C394 1.398 . S
C394 H382 0.950 . S
C394 C393 1.398 . S
C394 C395 1.391 . S
C395 H383 0.950 . S
C395 C391 1.393 . S
C395 C394 1.391 . S
H396 C404 0.950 . S
H397 C409 0.950 . S
H398 C406 0.950 . S
H399 C408 0.950 . S
H400 C410 0.950 . S
H401 C412 0.950 . S
H402 C414 0.950 . S
H403 C415 0.950 . S
C404 H396 0.950 . S
C404 C405 1.386 . S
C404 C406 1.391 . S
C405 C404 1.386 . S
C405 C409 1.393 . S
C406 H398 0.950 . S
C406 C404 1.391 . S
C406 C407 1.400 . S
C407 C406 1.400 . S
C407 C408 1.398 . S
C407 C413 1.491 1_655 S
C408 H399 0.950 . S
C408 C407 1.398 . S
C408 C409 1.391 . S
C409 H397 0.950 . S
C409 C405 1.393 . S
C409 C408 1.391 . S
C410 H400 0.950 . S
C410 C411 1.386 . S
C410 C412 1.391 . S
C411 C410 1.386 . S
C411 C415 1.393 . S
C412 H401 0.950 . S
C412 C410 1.391 . S
C412 C413 1.400 . S
C413 C407 1.491 1_455 S
C413 C412 1.400 . S
C413 C414 1.398 . S
C414 H402 0.950 . S
C414 C413 1.398 . S
C414 C415 1.391 . S
C415 H403 0.950 . S
C415 C411 1.393 . S
C415 C414 1.391 . S
H416 C424 0.950 . S
H417 C429 0.950 . S
H418 C426 0.950 . S
H419 C428 0.950 . S
H420 C430 0.950 . S
H421 C432 0.950 . S
H422 C434 0.950 . S
H423 C435 0.950 . S
C424 H416 0.950 . S
C424 C425 1.386 . S
C424 C426 1.391 . S
C425 C424 1.386 . S
C425 C429 1.393 . S
C426 H418 0.950 . S
C426 C424 1.391 . S
C426 C427 1.400 . S
C427 C426 1.400 . S
C427 C428 1.398 . S
C427 C433 1.491 1_545 S
C428 H419 0.950 . S
C428 C427 1.398 . S
C428 C429 1.391 . S
C429 H417 0.950 . S
C429 C425 1.393 . S
C429 C428 1.391 . S
C430 H420 0.950 . S
C430 C431 1.386 . S
C430 C432 1.391 . S
C431 C430 1.386 . S
C431 C435 1.393 . S
C432 H421 0.950 . S
C432 C430 1.391 . S
C432 C433 1.400 . S
C433 C427 1.491 1_565 S
C433 C432 1.400 . S
C433 C434 1.398 . S
C434 H422 0.950 . S
C434 C433 1.398 . S
C434 C435 1.391 . S
C435 H423 0.950 . S
C435 C431 1.393 . S
C435 C434 1.391 . S
H436 C444 0.950 . S
H437 C449 0.950 . S
H438 C446 0.950 . S
H439 C448 0.950 . S
H440 C450 0.950 . S
H441 C452 0.950 . S
H442 C454 0.950 . S
H443 C455 0.950 . S
C444 H436 0.950 . S
C444 C445 1.386 . S
C444 C446 1.391 . S
C445 C444 1.386 . S
C445 C449 1.393 . S
C446 H438 0.950 . S
C446 C444 1.391 . S
C446 C447 1.400 . S
C447 C446 1.400 . S
C447 C448 1.398 . S
C447 C453 1.491 . S
C448 H439 0.950 . S
C448 C447 1.398 . S
C448 C449 1.391 . S
C449 H437 0.950 . S
C449 C445 1.393 . S
C449 C448 1.391 . S
C450 H440 0.950 . S
C450 C451 1.386 . S
C450 C452 1.391 . S
C451 C450 1.386 . S
C451 C455 1.393 . S
C452 H441 0.950 . S
C452 C450 1.391 . S
C452 C453 1.400 . S
C453 C447 1.491 . S
C453 C452 1.400 . S
C453 C454 1.398 . S
C454 H442 0.950 . S
C454 C453 1.398 . S
C454 C455 1.391 . S
C455 H443 0.950 . S
C455 C451 1.393 . S
C455 C454 1.391 . S
H456 C464 0.950 . S
H457 C469 0.950 . S
H458 C466 0.950 . S
H459 C468 0.950 . S
H460 C470 0.950 . S
H461 C472 0.950 . S
H462 C474 0.950 . S
H463 C475 0.950 . S
C464 H456 0.950 . S
C464 C465 1.386 . S
C464 C466 1.391 . S
C465 C464 1.386 . S
C465 C469 1.393 . S
C466 H458 0.950 . S
C466 C464 1.391 . S
C466 C467 1.400 . S
C467 C466 1.400 . S
C467 C468 1.398 . S
C467 C473 1.491 1_545 S
C468 H459 0.950 . S
C468 C467 1.398 . S
C468 C469 1.391 . S
C469 H457 0.950 . S
C469 C465 1.393 . S
C469 C468 1.391 . S
C470 H460 0.950 . S
C470 C471 1.386 . S
C470 C472 1.391 . S
C471 C470 1.386 . S
C471 C475 1.393 . S
C472 H461 0.950 . S
C472 C470 1.391 . S
C472 C473 1.400 . S
C473 C467 1.491 1_565 S
C473 C472 1.400 . S
C473 C474 1.398 . S
C474 H462 0.950 . S
C474 C473 1.398 . S
C474 C475 1.391 . S
C475 H463 0.950 . S
C475 C471 1.393 . S
C475 C474 1.391 . S
H476 C484 0.950 . S
H477 C489 0.950 . S
H478 C486 0.950 . S
H479 C488 0.950 . S
H480 C490 0.950 . S
H481 C492 0.950 . S
H482 C494 0.950 . S
H483 C495 0.950 . S
C484 H476 0.950 . S
C484 C485 1.386 . S
C484 C486 1.391 . S
C485 C484 1.386 . S
C485 C489 1.393 . S
C486 H478 0.950 . S
C486 C484 1.391 . S
C486 C487 1.400 . S
C487 C486 1.400 . S
C487 C488 1.398 . S
C487 C493 1.491 . S
C488 H479 0.950 . S
C488 C487 1.398 . S
C488 C489 1.391 . S
C489 H477 0.950 . S
C489 C485 1.393 . S
C489 C488 1.391 . S
C490 H480 0.950 . S
C490 C491 1.386 . S
C490 C492 1.391 . S
C491 C490 1.386 . S
C491 C495 1.393 . S
C492 H481 0.950 . S
C492 C490 1.391 . S
C492 C493 1.400 . S
C493 C487 1.491 . S
C493 C492 1.400 . S
C493 C494 1.398 . S
C494 H482 0.950 . S
C494 C493 1.398 . S
C494 C495 1.391 . S
C495 H483 0.950 . S
C495 C491 1.393 . S
C495 C494 1.391 . S
H496 C504 0.950 . S
H497 C509 0.950 . S
H498 C506 0.950 . S
H499 C508 0.950 . S
H500 C510 0.950 . S
H501 C512 0.950 . S
H502 C514 0.950 . S
H503 C515 0.950 . S
C504 H496 0.950 . S
C504 C505 1.386 . S
C504 C506 1.391 . S
C505 C504 1.386 . S
C505 C509 1.393 . S
C506 H498 0.950 . S
C506 C504 1.391 . S
C506 C507 1.400 . S
C507 C506 1.400 . S
C507 C508 1.398 . S
C507 C513 1.491 1_455 S
C508 H499 0.950 . S
C508 C507 1.398 . S
C508 C509 1.391 . S
C509 H497 0.950 . S
C509 C505 1.393 . S
C509 C508 1.391 . S
C510 H500 0.950 . S
C510 C511 1.386 . S
C510 C512 1.391 . S
C511 C510 1.386 . S
C511 C515 1.393 . S
C512 H501 0.950 . S
C512 C510 1.391 . S
C512 C513 1.400 . S
C513 C507 1.491 1_655 S
C513 C512 1.400 . S
C513 C514 1.398 . S
C514 H502 0.950 . S
C514 C513 1.398 . S
C514 C515 1.391 . S
C515 H503 0.950 . S
C515 C511 1.393 . S
C515 C514 1.391 . S
H516 C524 0.950 . S
H517 C529 0.950 . S
H518 C526 0.950 . S
H519 C528 0.950 . S
H520 C530 0.950 . S
H521 C532 0.950 . S
H522 C534 0.950 . S
H523 C535 0.950 . S
C524 H516 0.950 . S
C524 C525 1.386 . S
C524 C526 1.391 . S
C525 C524 1.386 . S
C525 C529 1.393 . S
C526 H518 0.950 . S
C526 C524 1.391 . S
C526 C527 1.400 . S
C527 C526 1.400 . S
C527 C528 1.398 . S
C527 C533 1.491 . S
C528 H519 0.950 . S
C528 C527 1.398 . S
C528 C529 1.391 . S
C529 H517 0.950 . S
C529 C525 1.393 . S
C529 C528 1.391 . S
C530 H520 0.950 . S
C530 C531 1.386 . S
C530 C532 1.391 . S
C531 C530 1.386 . S
C531 C535 1.393 . S
C532 H521 0.950 . S
C532 C530 1.391 . S
C532 C533 1.400 . S
C533 C527 1.491 . S
C533 C532 1.400 . S
C533 C534 1.398 . S
C534 H522 0.950 . S
C534 C533 1.398 . S
C534 C535 1.391 . S
C535 H523 0.950 . S
C535 C531 1.393 . S
C535 C534 1.391 . S
H536 C544 0.950 . S
H537 C549 0.950 . S
H538 C546 0.950 . S
H539 C548 0.950 . S
H540 C550 0.950 . S
H541 C552 0.950 . S
H542 C554 0.950 . S
H543 C555 0.950 . S
C544 H536 0.950 . S
C544 C545 1.386 . S
C544 C546 1.391 . S
C545 C544 1.386 . S
C545 C549 1.393 . S
C546 H538 0.950 . S
C546 C544 1.391 . S
C546 C547 1.400 . S
C547 C546 1.400 . S
C547 C548 1.398 . S
C547 C553 1.491 1_655 S
C548 H539 0.950 . S
C548 C547 1.398 . S
C548 C549 1.391 . S
C549 H537 0.950 . S
C549 C545 1.393 . S
C549 C548 1.391 . S
C550 H540 0.950 . S
C550 C551 1.386 . S
C550 C552 1.391 . S
C551 C550 1.386 . S
C551 C555 1.393 . S
C552 H541 0.950 . S
C552 C550 1.391 . S
C552 C553 1.400 . S
C553 C547 1.491 1_455 S
C553 C552 1.400 . S
C553 C554 1.398 . S
C554 H542 0.950 . S
C554 C553 1.398 . S
C554 C555 1.391 . S
C555 H543 0.950 . S
C555 C551 1.393 . S
C555 C554 1.391 . S
H556 C564 0.950 . S
H557 C569 0.950 . S
H558 C566 0.950 . S
H559 C568 0.950 . S
H560 C570 0.950 . S
H561 C572 0.950 . S
H562 C574 0.950 . S
H563 C575 0.950 . S
C564 H556 0.950 . S
C564 C565 1.386 . S
C564 C566 1.391 . S
C565 C564 1.386 . S
C565 C569 1.393 . S
C566 H558 0.950 . S
C566 C564 1.391 . S
C566 C567 1.400 . S
C567 C566 1.400 . S
C567 C568 1.398 . S
C567 C573 1.491 1_545 S
C568 H559 0.950 . S
C568 C567 1.398 . S
C568 C569 1.391 . S
C569 H557 0.950 . S
C569 C565 1.393 . S
C569 C568 1.391 . S
C570 H560 0.950 . S
C570 C571 1.386 . S
C570 C572 1.391 . S
C571 C570 1.386 . S
C571 C575 1.393 . S
C572 H561 0.950 . S
C572 C570 1.391 . S
C572 C573 1.400 . S
C573 C567 1.491 1_565 S
C573 C572 1.400 . S
C573 C574 1.398 . S
C574 H562 0.950 . S
C574 C573 1.398 . S
C574 C575 1.391 . S
C575 H563 0.950 . S
C575 C571 1.393 . S
C575 C574 1.391 . S
H576 C584 0.950 . S
H577 C589 0.950 . S
H578 C586 0.950 . S
H579 C588 0.950 . S
H580 C590 0.950 . S
H581 C592 0.950 . S
H582 C594 0.950 . S
H583 C595 0.950 . S
C584 H576 0.950 . S
C584 C585 1.386 . S
C584 C586 1.391 . S
C585 C584 1.386 . S
C585 C589 1.393 . S
C586 H578 0.950 . S
C586 C584 1.391 . S
C586 C587 1.400 . S
C587 C586 1.400 . S
C587 C588 1.398 . S
C587 C593 1.491 . S
C588 H579 0.950 . S
C588 C587 1.398 . S
C588 C589 1.391 . S
C589 H577 0.950 . S
C589 C585 1.393 . S
C589 C588 1.391 . S
C590 H580 0.950 . S
C590 C591 1.386 . S
C590 C592 1.391 . S
C591 C590 1.386 . S
C591 C595 1.393 . S
C592 H581 0.950 . S
C592 C590 1.391 . S
C592 C593 1.400 . S
C593 C587 1.491 . S
C593 C592 1.400 . S
C593 C594 1.398 . S
C594 H582 0.950 . S
C594 C593 1.398 . S
C594 C595 1.391 . S
C595 H583 0.950 . S
C595 C591 1.393 . S
C595 C594 1.391 . S
H596 C604 0.950 . S
H597 C609 0.950 . S
H598 C606 0.950 . S
H599 C608 0.950 . S
H600 C610 0.950 . S
H601 C612 0.950 . S
H602 C614 0.950 . S
H603 C615 0.950 . S
C604 H596 0.950 . S
C604 C605 1.386 . S
C604 C606 1.391 . S
C605 C604 1.386 . S
C605 C609 1.393 . S
C606 H598 0.950 . S
C606 C604 1.391 . S
C606 C607 1.400 . S
C607 C606 1.400 . S
C607 C608 1.398 . S
C607 C613 1.491 1_455 S
C608 H599 0.950 . S
C608 C607 1.398 . S
C608 C609 1.391 . S
C609 H597 0.950 . S
C609 C605 1.393 . S
C609 C608 1.391 . S
C610 H600 0.950 . S
C610 C611 1.386 . S
C610 C612 1.391 . S
C611 C610 1.386 . S
C611 C615 1.393 . S
C612 H601 0.950 . S
C612 C610 1.391 . S
C612 C613 1.400 . S
C613 C607 1.491 1_655 S
C613 C612 1.400 . S
C613 C614 1.398 . S
C614 H602 0.950 . S
C614 C613 1.398 . S
C614 C615 1.391 . S
C615 H603 0.950 . S
C615 C611 1.393 . S
C615 C614 1.391 . S
H616 C624 0.950 . S
H617 C629 0.950 . S
H618 C626 0.950 . S
H619 C628 0.950 . S
H620 C630 0.950 . S
H621 C632 0.950 . S
H622 C634 0.950 . S
H623 C635 0.950 . S
C624 H616 0.950 . S
C624 C625 1.386 . S
C624 C626 1.391 . S
C625 C624 1.386 . S
C625 C629 1.393 . S
C626 H618 0.950 . S
C626 C624 1.391 . S
C626 C627 1.400 . S
C627 C626 1.400 . S
C627 C628 1.398 . S
C627 C633 1.491 1_565 S
C628 H619 0.950 . S
C628 C627 1.398 . S
C628 C629 1.391 . S
C629 H617 0.950 . S
C629 C625 1.393 . S
C629 C628 1.391 . S
C630 H620 0.950 . S
C630 C631 1.386 . S
C630 C632 1.391 . S
C631 C630 1.386 . S
C631 C635 1.393 . S
C632 H621 0.950 . S
C632 C630 1.391 . S
C632 C633 1.400 . S
C633 C627 1.491 1_545 S
C633 C632 1.400 . S
C633 C634 1.398 . S
C634 H622 0.950 . S
C634 C633 1.398 . S
C634 C635 1.391 . S
C635 H623 0.950 . S
C635 C631 1.393 . S
C635 C634 1.391 . S
C165 C131 1.555 . S
C171 C1 1.541 . S
C185 C14 1.548 . S
C191 C144 1.554 . S
C205 C27 1.547 . S
C211 C79 1.544 . S
C225 C40 1.546 . S
C231 C92 1.546 . S
C245 C105 1.554 . S
C251 C53 1.548 . S
C265 C66 1.542 . S
C271 C118 1.552 . S
C285 C107 1.564 . S
C291 C3 1.570 . S
C305 C16 1.567 . S
C311 C120 1.560 . S
C325 C29 1.572 . S
C331 C133 1.571 . S
C345 C42 1.571 . S
C351 C146 1.566 . S
C365 C81 1.557 . S
C371 C55 1.563 . S
C385 C94 1.552 . S
C391 C68 1.555 . S
C405 C49 1.771 . S
C411 C10 1.769 . S
C425 C23 1.770 . S
C431 C62 1.768 . S
C445 C75 1.763 . S
C451 C36 1.765 . S
C465 C127 1.766 . S
C471 C88 1.764 . S
C485 C140 1.766 . S
C491 C101 1.764 . S
C505 C114 1.771 . S
C511 C153 1.769 . S
C525 C44 1.845 . S
C531 C5 1.845 . S
C545 C18 1.850 . S
C551 C57 1.850 . S
C565 C70 1.843 . S
C571 C31 1.843 . S
C585 C83 1.843 . S
C591 C122 1.843 . S
C605 C135 1.844 . S
C611 C96 1.844 . S
C625 C109 1.843 . S
C631 C148 1.843 . S
