# Generated by pormake.
# Topology wjf, (4)-cn, num edge types: 1
# Building blocks:
#     Node 0, Type 0, BuildingBlock: QUQFOY_clean_sbu_3, # of connection points: 4
#     Node 1, Type 0, BuildingBlock: QUQFOY_clean_sbu_3, # of connection points: 4
#     Node 2, Type 0, BuildingBlock: QUQFOY_clean_sbu_3, # of connection points: 4
#     Node 3, Type 0, BuildingBlock: QUQFOY_clean_sbu_3, # of connection points: 4
#     Node 4, Type 0, BuildingBlock: QUQFOY_clean_sbu_3, # of connection points: 4
#     Node 5, Type 0, BuildingBlock: QUQFOY_clean_sbu_3, # of connection points: 4
#     Node 6, Type 0, BuildingBlock: QUQFOY_clean_sbu_3, # of connection points: 4
#     Node 7, Type 0, BuildingBlock: QUQFOY_clean_sbu_3, # of connection points: 4
#     Node 8, Type 0, BuildingBlock: QUQFOY_clean_sbu_3, # of connection points: 4
#     Node 9, Type 0, BuildingBlock: QUQFOY_clean_sbu_3, # of connection points: 4
#     Node 10, Type 0, BuildingBlock: QUQFOY_clean_sbu_3, # of connection points: 4
#     Node 11, Type 0, BuildingBlock: QUQFOY_clean_sbu_3, # of connection points: 4
#     Edge 12, Type (0, 0), BuildingBlock: OJICUG_clean_linker_0, # of connection points: 2
#     Edge 13, Type (0, 0), BuildingBlock: OJICUG_clean_linker_0, # of connection points: 2
#     Edge 14, Type (0, 0), BuildingBlock: OJICUG_clean_linker_0, # of connection points: 2
#     Edge 15, Type (0, 0), BuildingBlock: OJICUG_clean_linker_0, # of connection points: 2
#     Edge 16, Type (0, 0), BuildingBlock: OJICUG_clean_linker_0, # of connection points: 2
#     Edge 17, Type (0, 0), BuildingBlock: OJICUG_clean_linker_0, # of connection points: 2
#     Edge 18, Type (0, 0), BuildingBlock: OJICUG_clean_linker_0, # of connection points: 2
#     Edge 19, Type (0, 0), BuildingBlock: OJICUG_clean_linker_0, # of connection points: 2
#     Edge 20, Type (0, 0), BuildingBlock: OJICUG_clean_linker_0, # of connection points: 2
#     Edge 21, Type (0, 0), BuildingBlock: OJICUG_clean_linker_0, # of connection points: 2
#     Edge 22, Type (0, 0), BuildingBlock: OJICUG_clean_linker_0, # of connection points: 2
#     Edge 23, Type (0, 0), BuildingBlock: OJICUG_clean_linker_0, # of connection points: 2
#     Edge 24, Type (0, 0), BuildingBlock: OJICUG_clean_linker_0, # of connection points: 2
#     Edge 25, Type (0, 0), BuildingBlock: OJICUG_clean_linker_0, # of connection points: 2
#     Edge 26, Type (0, 0), BuildingBlock: OJICUG_clean_linker_0, # of connection points: 2
#     Edge 27, Type (0, 0), BuildingBlock: OJICUG_clean_linker_0, # of connection points: 2
#     Edge 28, Type (0, 0), BuildingBlock: OJICUG_clean_linker_0, # of connection points: 2
#     Edge 29, Type (0, 0), BuildingBlock: OJICUG_clean_linker_0, # of connection points: 2
#     Edge 30, Type (0, 0), BuildingBlock: OJICUG_clean_linker_0, # of connection points: 2
#     Edge 31, Type (0, 0), BuildingBlock: OJICUG_clean_linker_0, # of connection points: 2
#     Edge 32, Type (0, 0), BuildingBlock: OJICUG_clean_linker_0, # of connection points: 2
#     Edge 33, Type (0, 0), BuildingBlock: OJICUG_clean_linker_0, # of connection points: 2
#     Edge 34, Type (0, 0), BuildingBlock: OJICUG_clean_linker_0, # of connection points: 2
#     Edge 35, Type (0, 0), BuildingBlock: OJICUG_clean_linker_0, # of connection points: 2
# Relax obj value: 0.102
# Max RMSD: 0.135
# Mean RMSD: 0.135
data_MOF--net-wjf--node1-QUQFOY_clean_sbu_3--edge1-OJICUG_clean_linker_0
_symmetry_space_group_name_H-M    P1
_symmetry_Int_Tables_number       1
_symmetry_cell_setting            triclinic
loop_
_symmetry_equiv_pos_as_xyz
'x, y, z'
_cell_length_a     38.655656
_cell_length_b     38.607355
_cell_length_c     21.025732
_cell_angle_alpha  89.949008
_cell_angle_beta   89.860894
_cell_angle_gamma 120.10332
loop_
_atom_site_label
_atom_site_type_symbol
_atom_site_fract_x
_atom_site_fract_y
_atom_site_fract_z
_atom_type_partial_charge
C0 C 0.33652 0.34638 0.16419 0.0
O1 O 0.35268 0.33121 0.13003 0.0
Cd2 Cd 0.36526 0.34194 0.01806 0.0
O3 O 0.32402 0.36825 0.13945 0.0
Cd4 Cd 0.31928 0.39309 0.03332 0.0
C5 C 0.42042 0.44523 0.01944 0.0
O6 O 0.30533 0.3337 0.9729 0.0
O7 O 0.31573 0.38572 0.91928 0.0
O8 O 0.25228 0.3771 0.05949 0.0
C9 C 0.30678 0.3494 0.9193 0.0
O10 O 0.41824 0.41154 0.01068 0.0
C11 C 0.25534 0.40899 0.03666 0.0
O12 O 0.3892 0.44739 0.03154 0.0
O13 O 0.28988 0.43584 0.01822 0.0
C14 C 0.00524 0.30959 0.49118 0.0
O15 O 0.03677 0.33068 0.45898 0.0
Cd16 Cd 0.03272 0.36634 0.36859 0.0
O17 O 0.97201 0.30523 0.47268 0.0
Cd18 Cd 0.94216 0.32119 0.38365 0.0
C19 C 0.98671 0.41584 0.4318 0.0
O20 O 0.98279 0.32397 0.29319 0.0
O21 O 0.95016 0.3561 0.28632 0.0
O22 O 0.90002 0.25079 0.37037 0.0
C23 C 0.96947 0.34182 0.25892 0.0
O24 O 0.01772 0.41667 0.40911 0.0
C25 C 0.86724 0.25052 0.36523 0.0
O26 O 0.95322 0.38319 0.43339 0.0
O27 O 0.86828 0.28369 0.37351 0.0
C28 C 0.66173 0.96269 0.86716 0.0
O29 O 0.67765 0.99543 0.83656 0.0
Cd30 Cd 0.64686 0.00328 0.74429 0.0
O31 O 0.62998 0.93242 0.84666 0.0
Cd32 Cd 0.58589 0.91443 0.75303 0.0
C33 C 0.55194 0.97352 0.8008 0.0
O34 O 0.63476 0.95174 0.66956 0.0
O35 O 0.57373 0.93728 0.65379 0.0
O36 O 0.58665 0.85204 0.75035 0.0
C37 C 0.60819 0.94878 0.63114 0.0
O38 O 0.58505 0.00127 0.77855 0.0
C39 C 0.55186 0.8313 0.72735 0.0
O40 O 0.54475 0.93754 0.80315 0.0
O41 O 0.53133 0.84835 0.72065 0.0
C42 C 0.66706 0.68822 0.14556 0.0
O43 O 0.65055 0.70352 0.11273 0.0
Cd44 Cd 0.63703 0.68983 0.00121 0.0
O45 O 0.67769 0.66513 0.11997 0.0
Cd46 Cd 0.67751 0.63688 0.01575 0.0
C47 C 0.5762 0.58829 0.00919 0.0
O48 O 0.69703 0.69753 0.95248 0.0
O49 O 0.68035 0.64234 0.90265 0.0
O50 O 0.74221 0.64607 0.04193 0.0
C51 C 0.69506 0.6799 0.90059 0.0
O52 O 0.57928 0.62209 -0.00239 0.0
C53 C 0.73551 0.61254 0.02042 0.0
O54 O 0.60712 0.58556 0.02031 0.0
O55 O 0.70017 0.58842 0.00183 0.0
C56 C 0.98402 0.67923 0.49169 0.0
O57 O 0.95168 0.65792 0.46186 0.0
Cd58 Cd 0.95195 0.61965 0.37263 0.0
O59 O 0.0165 0.68231 0.47164 0.0
Cd60 Cd 0.04262 0.66274 0.38136 0.0
C61 C -0.00304 0.56852 0.43253 0.0
O62 O 0.00051 0.66083 0.29439 0.0
O63 O 0.03065 0.62643 0.28428 0.0
O64 O 0.08662 0.73234 0.3634 0.0
C65 C 0.01195 0.64194 0.25873 0.0
O66 O 0.96585 0.5682 0.41179 0.0
C67 C 0.11851 0.73104 0.35655 0.0
O68 O 0.03078 0.60079 0.43216 0.0
O69 O 0.11625 0.6974 0.36616 0.0
C70 C 0.30814 0.01013 0.86871 0.0
O71 O 0.29155 0.97535 0.84482 0.0
Cd72 Cd 0.32154 0.96055 0.75805 0.0
O73 O 0.33854 0.03877 0.84172 0.0
Cd74 Cd 0.37597 0.04808 0.74249 0.0
C75 C 0.42033 0.00154 0.8028 0.0
O76 O 0.3292 0.0001 0.66644 0.0
O77 O 0.39183 0.01787 0.65625 0.0
O78 O 0.36022 0.09439 0.69432 0.0
C79 C 0.35733 0.00265 0.6318 0.0
O80 O 0.3865 0.97061 0.79185 0.0
C81 C 0.39579 0.123 0.68776 0.0
O82 O 0.42563 0.03646 0.79315 0.0
O83 O 0.4234 0.1185 0.71205 0.0
C84 C 0.6651 0.68831 0.41846 0.0
O85 O 0.68142 0.6708 0.44639 0.0
Cd86 Cd 0.68324 0.6482 0.55348 0.0
O87 O 0.64245 0.69807 0.44838 0.0
Cd88 Cd 0.61938 0.68888 0.55927 0.0
C89 C 0.58457 0.58433 0.56854 0.0
O90 O 0.67694 0.69645 0.61084 0.0
O91 O 0.65891 0.73661 0.64607 0.0
O92 O 0.58797 0.72956 0.54755 0.0
C93 C 0.6808 0.72124 0.65304 0.0
O94 O 0.61912 0.58793 0.56555 0.0
C95 C 0.56417 0.71287 0.5943 0.0
O96 O 0.58015 0.61494 0.56655 0.0
O97 O 0.56337 0.68246 0.6192 0.0
C98 C 0.98972 0.68608 0.754 0.0
O99 O 0.02403 0.69934 0.77835 0.0
Cd100 Cd 0.03318 0.66514 0.86546 0.0
O101 O 0.95929 0.65698 0.78 0.0
Cd102 Cd 0.94419 0.61698 0.8771 0.0
C103 C 0.98489 0.56633 0.81758 0.0
O104 O 0.99305 0.65998 0.95526 0.0
O105 O 0.9674 0.59572 0.96608 0.0
O106 O 0.90268 0.64021 0.92066 0.0
C107 C 0.98612 0.63039 -0.00963 0.0
O108 O 0.01738 0.59835 0.83052 0.0
C109 C 0.8709 0.60656 0.92487 0.0
O110 O 0.95129 0.56446 0.82554 0.0
O111 O 0.87174 0.57642 0.90219 0.0
C112 C 0.31655 0.01291 0.1314 0.0
O113 O 0.33962 0.04411 0.16269 0.0
Cd114 Cd 0.37381 0.03897 0.25361 0.0
O115 O 0.3101 0.97878 0.14989 0.0
Cd116 Cd 0.32623 0.9484 0.23878 0.0
C117 C 0.42134 0.99032 0.19403 0.0
O118 O 0.32834 0.98969 0.32757 0.0
O119 O 0.3598 0.95667 0.33774 0.0
O120 O 0.25619 0.90378 0.25359 0.0
C121 C 0.34512 0.97609 0.36352 0.0
O122 O 0.42348 0.02196 0.21661 0.0
C123 C 0.25765 0.87183 0.25864 0.0
O124 O 0.38783 0.95785 0.19089 0.0
O125 O 0.29144 0.87455 0.24919 0.0
C126 C 0.34472 0.3404 0.43726 0.0
O127 O 0.32952 0.35664 0.47117 0.0
Cd128 Cd 0.34048 0.3704 0.58267 0.0
O129 O 0.36703 0.32848 0.46202 0.0
Cd130 Cd 0.39274 0.32553 0.56831 0.0
C131 C 0.44356 0.42689 0.57765 0.0
O132 O 0.33306 0.31091 0.62874 0.0
O133 O 0.38566 0.32346 0.68227 0.0
O134 O 0.37826 0.25869 0.54467 0.0
C135 C 0.34901 0.31312 0.68229 0.0
O136 O 0.40981 0.42425 0.58773 0.0
C137 C 0.41014 0.26258 0.56867 0.0
O138 O 0.44606 0.39579 0.56601 0.0
O139 O 0.43641 0.29754 0.5861 0.0
C140 C -0.00122 0.30748 0.75357 0.0
O141 O 0.96373 0.2933 0.77581 0.0
Cd142 Cd 0.94989 0.3241 0.86281 0.0
O143 O 0.02812 0.33685 0.78088 0.0
Cd144 Cd 0.0378 0.37583 0.87794 0.0
C145 C 0.99328 0.42279 0.81741 0.0
O146 O 0.98905 0.32923 0.95372 0.0
O147 O 0.00939 0.39236 0.96628 0.0
O148 O 0.08398 0.35946 0.92501 0.0
C149 C 0.99307 0.35738 -0.01029 0.0
O150 O 0.9614 0.39002 0.83008 0.0
C151 C 0.11307 0.3949 0.92985 0.0
O152 O 0.02739 0.42591 0.82542 0.0
O153 O 0.10865 0.42266 0.90574 0.0
C154 C 0.67034 0.96774 0.13208 0.0
O155 O 0.64865 0.93617 0.16394 0.0
Cd156 Cd 0.6141 0.93784 0.25687 0.0
O157 O 0.67723 0.00161 0.15268 0.0
Cd158 Cd 0.66315 0.02975 0.2476 0.0
C159 C 0.56857 0.98933 0.20034 0.0
O160 O 0.65891 0.9849 0.33277 0.0
O161 O 0.62758 0.01777 0.34595 0.0
O162 O 0.73293 0.07502 0.26613 0.0
C163 C 0.64072 0.99646 0.36974 0.0
O164 O 0.56573 0.95684 0.22047 0.0
C165 C 0.73052 0.10645 0.27164 0.0
O166 O 0.60214 0.02183 0.20041 0.0
O167 O 0.69658 0.10307 0.26107 0.0
C168 C 0.31658 0.35703 0.27253 0.0
C169 C 0.33468 0.34086 0.23394 0.0
H170 H 0.30522 0.36926 0.36697 0.0
C171 C 0.35322 0.32156 0.26293 0.0
H172 H 0.30181 0.37185 0.25174 0.0
C173 C 0.35528 0.32016 0.32908 0.0
C174 C 0.33871 0.3379 0.36764 0.0
H175 H 0.3673 0.30861 0.23459 0.0
H176 H 0.37082 0.30612 0.34987 0.0
C177 C 0.3185 0.3555 0.33867 0.0
C178 C 0.9722 0.26943 0.58771 0.0
C179 C 0.00759 0.29676 0.55614 0.0
H180 H 0.94181 0.25049 0.6768 0.0
C181 C 0.04286 0.31847 0.59138 0.0
H182 H 0.94479 0.25153 0.56144 0.0
C183 C 0.04115 0.31806 0.65771 0.0
C184 C 0.00417 0.29585 0.6891 0.0
H185 H 0.07074 0.3393 0.56817 0.0
H186 H 0.06788 0.33843 0.68371 0.0
C187 C 0.97051 0.26886 0.65389 0.0
C188 C 0.70132 -0.00198 0.96325 0.0
C189 C 0.67543 0.9619 0.93228 0.0
H190 H 0.72061 0.02816 0.0524 0.0
C191 C 0.65688 0.92622 0.96777 0.0
H192 H 0.71675 0.02595 0.9371 0.0
C193 C 0.65942 0.92746 0.03396 0.0
C194 C 0.6802 0.96446 0.06538 0.0
H195 H 0.6375 0.89777 0.94502 0.0
H196 H 0.6417 0.89993 0.06033 0.0
C197 C 0.70356 -0.00069 0.02945 0.0
C198 C 0.64965 0.70905 0.248 0.0
C199 C 0.67119 0.69428 0.21497 0.0
H200 H 0.63078 0.71884 0.33871 0.0
C201 C 0.69416 0.68191 0.24946 0.0
H202 H 0.63177 0.71893 0.22264 0.0
C203 C 0.69372 0.68197 0.31564 0.0
C204 C 0.67011 0.69421 0.3489 0.0
H205 H 0.7115 0.67085 0.22538 0.0
H206 H 0.71073 0.6709 0.34058 0.0
C207 C 0.64903 0.70893 0.31448 0.0
C208 C 0.02106 0.72154 0.65279 0.0
C209 C 0.98629 0.6979 0.68866 0.0
H210 H 0.04743 0.73462 0.56018 0.0
C211 C 0.94916 0.67818 0.65748 0.0
H212 H 0.05002 0.73798 0.67546 0.0
C213 C 0.94768 0.67633 0.59124 0.0
C214 C 0.98333 0.69414 0.55581 0.0
H215 H 0.92167 0.66057 0.68398 0.0
H216 H 0.91916 0.65725 0.5686 0.0
C217 C 0.01959 0.71955 0.58663 0.0
C218 C 0.27423 0.98172 0.03628 0.0
C219 C 0.30301 0.01635 0.06756 0.0
H220 H 0.25211 0.9529 0.94705 0.0
C221 C 0.32453 0.05208 0.03284 0.0
H222 H 0.25642 0.95402 0.06223 0.0
C223 C 0.32224 0.05143 0.9666 0.0
C224 C 0.29833 0.01508 0.9347 0.0
H225 H 0.34641 0.07945 0.05591 0.0
H226 H 0.3424 0.07838 0.94052 0.0
C227 C 0.27171 0.98114 0.97018 0.0
C228 C 0.18656 0.43713 0.95281 0.0
C229 C 0.14947 0.40258 0.96404 0.0
H230 H 0.24991 0.46671 0.96806 0.0
C231 C 0.14711 0.37387 0.00757 0.0
H232 H 0.18903 0.45993 0.92003 0.0
C233 C 0.18148 0.37807 0.03594 0.0
C234 C 0.21911 0.41082 0.02072 0.0
H235 H 0.11873 0.34739 0.01839 0.0
H236 H 0.17869 0.35434 0.06688 0.0
C237 C 0.22127 0.44113 -0.01927 0.0
C238 C 0.83288 0.17866 0.33538 0.0
C239 C 0.83091 0.21366 0.3447 0.0
H240 H 0.8033 0.11809 0.30407 0.0
C241 C 0.79546 0.21348 0.32912 0.0
H242 H 0.85974 0.17773 0.34659 0.0
C243 C 0.76273 0.17886 0.30424 0.0
C244 C 0.76512 0.14408 0.29437 0.0
H245 H 0.79322 0.24013 0.3353 0.0
H246 H 0.73565 0.17932 0.29286 0.0
C247 C 0.80052 0.14443 0.31041 0.0
C248 C 0.53508 0.79006 0.63032 0.0
C249 C 0.54052 0.79304 0.69653 0.0
H250 H 0.53877 0.76181 0.54474 0.0
C251 C 0.545 0.7639 0.72909 0.0
H252 H 0.53221 0.81272 0.60427 0.0
C253 C 0.54724 0.73397 0.69532 0.0
C254 C 0.54688 0.73398 0.62839 0.0
H255 H 0.54973 0.76604 0.78005 0.0
H256 H 0.5537 0.71364 0.72136 0.0
C257 C 0.53894 0.76108 0.59625 0.0
C258 C 0.76352 0.57329 0.96857 0.0
C259 C 0.76895 0.60545 0.00711 0.0
H260 H 0.79191 0.54824 0.9118 0.0
C261 C 0.80786 0.63483 0.02401 0.0
H262 H 0.73382 0.55019 0.95474 0.0
C263 C 0.84072 0.63403 -0.0013 0.0
C264 C 0.83547 0.60361 0.95651 0.0
H265 H 0.8131 0.65981 0.05398 0.0
H266 H 0.87037 0.6581 0.01072 0.0
C267 C 0.79667 0.57226 0.94365 0.0
C268 C 0.15387 0.80168 0.31988 0.0
C269 C 0.15516 0.76671 0.3332 0.0
H270 H 0.18454 0.86145 0.2847 0.0
C271 C 0.19038 0.76585 0.31974 0.0
H272 H 0.12717 0.80338 0.32913 0.0
C273 C 0.22375 0.79964 0.29378 0.0
C274 C 0.22216 0.83456 0.28064 0.0
H275 H 0.19209 0.73914 0.32897 0.0
H276 H 0.25078 0.79857 0.28465 0.0
C277 C 0.18679 0.83502 0.29378 0.0
C278 C 0.43808 0.19606 0.6604 0.0
C279 C 0.40375 0.15863 0.65062 0.0
H280 H 0.46751 0.2591 0.64095 0.0
C281 C 0.37552 0.15513 0.60539 0.0
H282 H 0.46053 0.19936 0.69443 0.0
C283 C 0.37988 0.18878 0.57388 0.0
C284 C 0.41227 0.22686 0.58763 0.0
H285 H 0.34927 0.12641 0.59562 0.0
H286 H 0.35645 0.18516 0.54169 0.0
C287 C 0.4422 0.23009 0.62935 0.0
C288 C 0.30552 0.33081 0.7445 0.0
C289 C 0.32946 0.31307 0.74196 0.0
H290 H 0.27969 0.35672 0.80445 0.0
C291 C 0.33967 0.30095 0.79841 0.0
H292 H 0.29745 0.34048 0.70143 0.0
C293 C 0.32862 0.30924 0.85709 0.0
C294 C 0.30831 0.33076 0.85966 0.0
H295 H 0.35804 0.28706 0.79718 0.0
H296 H 0.33892 0.30189 0.90017 0.0
C297 C 0.29548 0.34015 0.8032 0.0
C298 C 0.9817 0.31772 0.15626 0.0
C299 C 0.97506 0.34521 0.18994 0.0
H300 H 0.99139 0.29936 0.06508 0.0
C301 C 0.97208 0.3752 0.15694 0.0
H302 H 0.98361 0.29406 0.18084 0.0
C303 C 0.97679 0.37839 0.09125 0.0
C304 C 0.9837 0.35113 0.05756 0.0
H305 H 0.96677 0.39662 0.182 0.0
H306 H 0.9754 0.4024 0.06688 0.0
C307 C 0.98558 0.32041 0.09024 0.0
C308 C 0.59281 0.97231 0.53136 0.0
C309 C 0.61733 0.96143 0.56463 0.0
H310 H 0.58135 0.99225 0.44342 0.0
C311 C 0.64958 0.96171 0.53336 0.0
H312 H 0.56776 0.97235 0.55451 0.0
C313 C 0.65689 0.97235 0.46919 0.0
C314 C 0.63254 0.98364 0.43628 0.0
H315 H 0.66869 0.95314 0.55818 0.0
H316 H 0.68186 0.97235 0.44566 0.0
C317 C 0.6006 0.98372 0.46789 0.0
C318 C 0.71316 0.69576 0.72586 0.0
C319 C 0.69972 0.72287 0.71438 0.0
H320 H 0.72184 0.66052 0.79547 0.0
C321 C 0.69471 0.74317 0.76593 0.0
H322 H 0.71785 0.6801 0.68706 0.0
C323 C 0.69727 0.73207 0.82822 0.0
C324 C 0.70461 0.70049 0.83902 0.0
H325 H 0.68477 0.76456 0.75833 0.0
H326 H 0.68954 0.74527 0.86722 0.0
C327 C 0.71514 0.68431 0.78787 0.0
C328 C 0.00549 0.60814 0.15579 0.0
C329 C 0.0054 0.63923 0.19009 0.0
H330 H -0.00061 0.58108 0.06479 0.0
C331 C 0.00093 0.66859 0.15796 0.0
H332 H 0.00909 0.58528 0.17971 0.0
C333 C -0.00349 0.6668 0.0921 0.0
C334 C -0.0044 0.63512 0.05808 0.0
H335 H 0.00129 0.69311 0.18359 0.0
H336 H 0.99255 0.68941 0.0681 0.0
C337 C 0.00016 0.60585 0.09026 0.0
C338 C 0.32028 0.99027 0.46378 0.0
C339 C 0.34746 0.98212 0.43235 0.0
H340 H 0.30141 0.00201 0.55301 0.0
C341 C 0.3762 0.97833 0.46743 0.0
H342 H 0.29756 0.99283 0.43757 0.0
C343 C 0.37856 0.98382 0.53292 0.0
C344 C 0.35169 0.99237 0.56434 0.0
H345 H 0.39736 0.97186 0.44415 0.0
H346 H 0.40167 0.98182 0.5589 0.0
C347 C 0.32213 0.99497 0.52963 0.0
C348 C 0.49503 0.47934 0.01494 0.0
C349 C 0.46009 0.48205 0.01624 0.0
H350 H 0.5589 0.51057 0.01192 0.0
C351 C 0.4636 0.52007 0.01452 0.0
H352 H 0.49344 0.45052 0.01633 0.0
C353 C 0.5013 0.55462 0.01146 0.0
C354 C 0.53622 0.55183 0.01077 0.0
H355 H 0.43727 0.52317 0.01527 0.0
H356 H 0.50306 0.58351 0.01033 0.0
C357 C 0.53263 0.5138 0.01254 0.0
C358 C 0.95685 0.4945 0.45106 0.0
C359 C -0.00567 0.52987 0.44833 0.0
H360 H 0.92494 0.43043 0.44907 0.0
C361 C 0.02911 0.52705 0.45173 0.0
H362 H 0.92944 0.49564 0.44936 0.0
C363 C 0.02649 0.48962 0.45132 0.0
C364 C 0.98906 0.45428 0.44797 0.0
H365 H 0.05844 0.55366 0.45025 0.0
H366 H 0.05393 0.48849 0.44989 0.0
C367 C 0.95424 0.45705 0.45111 0.0
C368 C 0.52625 0.0214 0.80933 0.0
C369 C 0.51973 0.98231 0.81603 0.0
H370 H 0.49982 0.05837 0.80093 0.0
C371 C 0.4809 0.95095 0.82957 0.0
H372 H 0.55589 0.04634 0.79965 0.0
C373 C 0.44875 0.95786 0.8302 0.0
C374 C 0.4548 0.99629 0.81759 0.0
H375 H 0.47486 0.92056 0.83579 0.0
H376 H 0.41889 0.93259 0.83695 0.0
C377 C 0.49408 0.02835 0.81026 0.0
C378 C 0.51077 0.53948 0.58217 0.0
C379 C 0.54881 0.54391 0.57316 0.0
H380 H 0.44798 0.4993 0.591 0.0
C381 C 0.55214 0.50939 0.56739 0.0
H382 H 0.5071 0.56538 0.58706 0.0
C383 C 0.51808 0.4713 0.56944 0.0
C384 C 0.48 0.46695 0.57764 0.0
H385 H 0.58102 0.51174 0.56043 0.0
H386 H 0.52159 0.44533 0.56414 0.0
C387 C 0.47682 0.50149 0.58453 0.0
C388 C 0.95125 0.49209 0.80186 0.0
C389 C 0.98638 0.52969 0.80214 0.0
H390 H 0.92582 0.42856 0.80564 0.0
C391 C 0.02348 0.53143 0.79627 0.0
H392 H 0.92217 0.48966 0.80571 0.0
C393 C 0.02561 0.49638 0.7963 0.0
C394 C 0.99068 0.45887 0.80221 0.0
H395 H 0.05114 0.55991 0.79545 0.0
H396 H 0.05481 0.4989 0.7956 0.0
C397 C 0.95338 0.45701 0.80189 0.0
C398 C 0.53166 0.02624 0.18134 0.0
C399 C 0.5316 0.98985 0.18416 0.0
H400 H 0.49658 0.05493 0.18155 0.0
C401 C 0.49498 0.95376 0.17917 0.0
H402 H 0.55935 0.05458 0.18454 0.0
C403 C 0.45896 0.95396 0.17699 0.0
C404 C 0.45887 0.99025 0.18037 0.0
H405 H 0.49395 0.92521 0.18032 0.0
H406 H 0.43119 0.92557 0.17703 0.0
C407 C 0.49562 0.02642 0.17973 0.0
loop_
_geom_bond_atom_site_label_1
_geom_bond_atom_site_label_2
_geom_bond_distance
_geom_bond_site_symmetry_2
_ccdc_geom_bond_type
C0 O1 1.306 . S
C0 O3 1.160 . S
O1 C0 1.306 . S
O1 Cd2 2.228 . S
Cd2 O1 2.228 . S
Cd2 O6 2.273 . S
Cd2 O10 2.277 . S
O3 C0 1.160 . S
O3 Cd4 2.203 . S
Cd4 O3 2.203 . S
Cd4 O6 2.411 . S
Cd4 O7 2.333 1_554 S
Cd4 O8 2.352 . S
Cd4 O12 2.277 . S
Cd4 O13 2.356 . S
C5 O10 1.209 . S
C5 O12 1.226 . S
O6 Cd2 2.273 . S
O6 Cd4 2.411 . S
O6 C9 1.320 1_554 S
O7 Cd4 2.333 1_556 S
O7 C9 1.214 . S
O8 Cd4 2.352 . S
O8 C11 1.258 . S
C9 O6 1.320 1_556 S
C9 O7 1.214 . S
O10 Cd2 2.277 . S
O10 C5 1.209 . S
C11 O8 1.258 . S
C11 O13 1.282 . S
O12 Cd4 2.277 . S
O12 C5 1.226 . S
O13 Cd4 2.356 . S
O13 C11 1.282 . S
C14 O15 1.306 1_655 S
C14 O17 1.160 . S
O15 C14 1.306 1_455 S
O15 Cd16 2.228 . S
Cd16 O15 2.228 . S
Cd16 O20 2.273 . S
Cd16 O24 2.277 . S
O17 C14 1.160 . S
O17 Cd18 2.203 . S
Cd18 O17 2.203 . S
Cd18 O20 2.411 1_655 S
Cd18 O21 2.333 . S
Cd18 O22 2.352 . S
Cd18 O26 2.277 . S
Cd18 O27 2.356 . S
C19 O24 1.209 1_655 S
C19 O26 1.226 . S
O20 Cd16 2.273 . S
O20 Cd18 2.411 1_455 S
O20 C23 1.320 1_455 S
O21 Cd18 2.333 . S
O21 C23 1.214 . S
O22 Cd18 2.352 . S
O22 C25 1.258 . S
C23 O20 1.320 1_655 S
C23 O21 1.214 . S
O24 Cd16 2.277 . S
O24 C19 1.209 1_455 S
C25 O22 1.258 . S
C25 O27 1.282 . S
O26 Cd18 2.277 . S
O26 C19 1.226 . S
O27 Cd18 2.356 . S
O27 C25 1.282 . S
C28 O29 1.306 1_565 S
C28 O31 1.160 . S
O29 C28 1.306 1_545 S
O29 Cd30 2.228 . S
Cd30 O29 2.228 . S
Cd30 O34 2.273 . S
Cd30 O38 2.277 . S
O31 C28 1.160 . S
O31 Cd32 2.203 . S
Cd32 O31 2.203 . S
Cd32 O34 2.411 1_565 S
Cd32 O35 2.333 . S
Cd32 O36 2.352 . S
Cd32 O40 2.277 . S
Cd32 O41 2.356 . S
C33 O38 1.209 1_565 S
C33 O40 1.226 . S
O34 Cd30 2.273 . S
O34 Cd32 2.411 1_545 S
O34 C37 1.320 1_545 S
O35 Cd32 2.333 . S
O35 C37 1.214 . S
O36 Cd32 2.352 . S
O36 C39 1.258 . S
C37 O34 1.320 1_565 S
C37 O35 1.214 . S
O38 Cd30 2.277 . S
O38 C33 1.209 1_545 S
C39 O36 1.258 . S
C39 O41 1.282 . S
O40 Cd32 2.277 . S
O40 C33 1.226 . S
O41 Cd32 2.356 . S
O41 C39 1.282 . S
C42 O43 1.306 . S
C42 O45 1.160 . S
O43 C42 1.306 . S
O43 Cd44 2.228 . S
Cd44 O43 2.228 . S
Cd44 O48 2.273 . S
Cd44 O52 2.277 . S
O45 C42 1.160 . S
O45 Cd46 2.203 . S
Cd46 O45 2.203 . S
Cd46 O48 2.411 . S
Cd46 O49 2.333 1_554 S
Cd46 O50 2.352 . S
Cd46 O54 2.277 . S
Cd46 O55 2.356 . S
C47 O52 1.209 . S
C47 O54 1.226 . S
O48 Cd44 2.273 . S
O48 Cd46 2.411 . S
O48 C51 1.320 1_554 S
O49 Cd46 2.333 1_556 S
O49 C51 1.214 . S
O50 Cd46 2.352 . S
O50 C53 1.258 . S
C51 O48 1.320 1_556 S
C51 O49 1.214 . S
O52 Cd44 2.277 . S
O52 C47 1.209 . S
C53 O50 1.258 . S
C53 O55 1.282 . S
O54 Cd46 2.277 . S
O54 C47 1.226 . S
O55 Cd46 2.356 . S
O55 C53 1.282 . S
C56 O57 1.306 1_455 S
C56 O59 1.160 . S
O57 C56 1.306 1_655 S
O57 Cd58 2.228 . S
Cd58 O57 2.228 . S
Cd58 O62 2.273 . S
Cd58 O66 2.277 . S
O59 C56 1.160 . S
O59 Cd60 2.203 . S
Cd60 O59 2.203 . S
Cd60 O62 2.411 1_455 S
Cd60 O63 2.333 . S
Cd60 O64 2.352 . S
Cd60 O68 2.277 . S
Cd60 O69 2.356 . S
C61 O66 1.209 1_455 S
C61 O68 1.226 . S
O62 Cd58 2.273 . S
O62 Cd60 2.411 1_655 S
O62 C65 1.320 1_655 S
O63 Cd60 2.333 . S
O63 C65 1.214 . S
O64 Cd60 2.352 . S
O64 C67 1.258 . S
C65 O62 1.320 1_455 S
C65 O63 1.214 . S
O66 Cd58 2.277 . S
O66 C61 1.209 1_655 S
C67 O64 1.258 . S
C67 O69 1.282 . S
O68 Cd60 2.277 . S
O68 C61 1.226 . S
O69 Cd60 2.356 . S
O69 C67 1.282 . S
C70 O71 1.306 1_545 S
C70 O73 1.160 . S
O71 C70 1.306 1_565 S
O71 Cd72 2.228 . S
Cd72 O71 2.228 . S
Cd72 O76 2.273 . S
Cd72 O80 2.277 . S
O73 C70 1.160 . S
O73 Cd74 2.203 . S
Cd74 O73 2.203 . S
Cd74 O76 2.411 1_545 S
Cd74 O77 2.333 . S
Cd74 O78 2.352 . S
Cd74 O82 2.277 . S
Cd74 O83 2.356 . S
C75 O80 1.209 1_545 S
C75 O82 1.226 . S
O76 Cd72 2.273 . S
O76 Cd74 2.411 1_565 S
O76 C79 1.320 1_565 S
O77 Cd74 2.333 . S
O77 C79 1.214 . S
O78 Cd74 2.352 . S
O78 C81 1.258 . S
C79 O76 1.320 1_545 S
C79 O77 1.214 . S
O80 Cd72 2.277 . S
O80 C75 1.209 1_565 S
C81 O78 1.258 . S
C81 O83 1.282 . S
O82 Cd74 2.277 . S
O82 C75 1.226 . S
O83 Cd74 2.356 . S
O83 C81 1.282 . S
C84 O85 1.306 . S
C84 O87 1.160 . S
O85 C84 1.306 . S
O85 Cd86 2.228 . S
Cd86 O85 2.228 . S
Cd86 O90 2.273 . S
Cd86 O94 2.277 . S
O87 C84 1.160 . S
O87 Cd88 2.203 . S
Cd88 O87 2.203 . S
Cd88 O90 2.411 . S
Cd88 O91 2.333 . S
Cd88 O92 2.352 . S
Cd88 O96 2.277 . S
Cd88 O97 2.356 . S
C89 O94 1.209 . S
C89 O96 1.226 . S
O90 Cd86 2.273 . S
O90 Cd88 2.411 . S
O90 C93 1.320 . S
O91 Cd88 2.333 . S
O91 C93 1.214 . S
O92 Cd88 2.352 . S
O92 C95 1.258 . S
C93 O90 1.320 . S
C93 O91 1.214 . S
O94 Cd86 2.277 . S
O94 C89 1.209 . S
C95 O92 1.258 . S
C95 O97 1.282 . S
O96 Cd88 2.277 . S
O96 C89 1.226 . S
O97 Cd88 2.356 . S
O97 C95 1.282 . S
C98 O99 1.306 1_655 S
C98 O101 1.160 . S
O99 C98 1.306 1_455 S
O99 Cd100 2.228 . S
Cd100 O99 2.228 . S
Cd100 O104 2.273 . S
Cd100 O108 2.277 . S
O101 C98 1.160 . S
O101 Cd102 2.203 . S
Cd102 O101 2.203 . S
Cd102 O104 2.411 1_655 S
Cd102 O105 2.333 1_556 S
Cd102 O106 2.352 . S
Cd102 O110 2.277 . S
Cd102 O111 2.356 . S
C103 O108 1.209 1_655 S
C103 O110 1.226 . S
O104 Cd100 2.273 . S
O104 Cd102 2.411 1_455 S
O104 C107 1.320 1_456 S
O105 Cd102 2.333 1_554 S
O105 C107 1.214 . S
O106 Cd102 2.352 . S
O106 C109 1.258 . S
C107 O104 1.320 1_654 S
C107 O105 1.214 . S
O108 Cd100 2.277 . S
O108 C103 1.209 1_455 S
C109 O106 1.258 . S
C109 O111 1.282 . S
O110 Cd102 2.277 . S
O110 C103 1.226 . S
O111 Cd102 2.356 . S
O111 C109 1.282 . S
C112 O113 1.306 1_565 S
C112 O115 1.160 . S
O113 C112 1.306 1_545 S
O113 Cd114 2.228 . S
Cd114 O113 2.228 . S
Cd114 O118 2.273 . S
Cd114 O122 2.277 . S
O115 C112 1.160 . S
O115 Cd116 2.203 . S
Cd116 O115 2.203 . S
Cd116 O118 2.411 1_565 S
Cd116 O119 2.333 . S
Cd116 O120 2.352 . S
Cd116 O124 2.277 . S
Cd116 O125 2.356 . S
C117 O122 1.209 1_565 S
C117 O124 1.226 . S
O118 Cd114 2.273 . S
O118 Cd116 2.411 1_545 S
O118 C121 1.320 1_545 S
O119 Cd116 2.333 . S
O119 C121 1.214 . S
O120 Cd116 2.352 . S
O120 C123 1.258 . S
C121 O118 1.320 1_565 S
C121 O119 1.214 . S
O122 Cd114 2.277 . S
O122 C117 1.209 1_545 S
C123 O120 1.258 . S
C123 O125 1.282 . S
O124 Cd116 2.277 . S
O124 C117 1.226 . S
O125 Cd116 2.356 . S
O125 C123 1.282 . S
C126 O127 1.306 . S
C126 O129 1.160 . S
O127 C126 1.306 . S
O127 Cd128 2.228 . S
Cd128 O127 2.228 . S
Cd128 O132 2.273 . S
Cd128 O136 2.277 . S
O129 C126 1.160 . S
O129 Cd130 2.203 . S
Cd130 O129 2.203 . S
Cd130 O132 2.411 . S
Cd130 O133 2.333 . S
Cd130 O134 2.352 . S
Cd130 O138 2.277 . S
Cd130 O139 2.356 . S
C131 O136 1.209 . S
C131 O138 1.226 . S
O132 Cd128 2.273 . S
O132 Cd130 2.411 . S
O132 C135 1.320 . S
O133 Cd130 2.333 . S
O133 C135 1.214 . S
O134 Cd130 2.352 . S
O134 C137 1.258 . S
C135 O132 1.320 . S
C135 O133 1.214 . S
O136 Cd128 2.277 . S
O136 C131 1.209 . S
C137 O134 1.258 . S
C137 O139 1.282 . S
O138 Cd130 2.277 . S
O138 C131 1.226 . S
O139 Cd130 2.356 . S
O139 C137 1.282 . S
C140 O141 1.306 1_455 S
C140 O143 1.160 . S
O141 C140 1.306 1_655 S
O141 Cd142 2.228 . S
Cd142 O141 2.228 . S
Cd142 O146 2.273 . S
Cd142 O150 2.277 . S
O143 C140 1.160 . S
O143 Cd144 2.203 . S
Cd144 O143 2.203 . S
Cd144 O146 2.411 1_455 S
Cd144 O147 2.333 1_556 S
Cd144 O148 2.352 . S
Cd144 O152 2.277 . S
Cd144 O153 2.356 . S
C145 O150 1.209 1_455 S
C145 O152 1.226 . S
O146 Cd142 2.273 . S
O146 Cd144 2.411 1_655 S
O146 C149 1.320 1_656 S
O147 Cd144 2.333 1_554 S
O147 C149 1.214 . S
O148 Cd144 2.352 . S
O148 C151 1.258 . S
C149 O146 1.320 1_454 S
C149 O147 1.214 . S
O150 Cd142 2.277 . S
O150 C145 1.209 1_655 S
C151 O148 1.258 . S
C151 O153 1.282 . S
O152 Cd144 2.277 . S
O152 C145 1.226 . S
O153 Cd144 2.356 . S
O153 C151 1.282 . S
C154 O155 1.306 1_545 S
C154 O157 1.160 . S
O155 C154 1.306 1_565 S
O155 Cd156 2.228 . S
Cd156 O155 2.228 . S
Cd156 O160 2.273 . S
Cd156 O164 2.277 . S
O157 C154 1.160 . S
O157 Cd158 2.203 . S
Cd158 O157 2.203 . S
Cd158 O160 2.411 1_545 S
Cd158 O161 2.333 . S
Cd158 O162 2.352 . S
Cd158 O166 2.277 . S
Cd158 O167 2.356 . S
C159 O164 1.209 1_545 S
C159 O166 1.226 . S
O160 Cd156 2.273 . S
O160 Cd158 2.411 1_565 S
O160 C163 1.320 1_565 S
O161 Cd158 2.333 . S
O161 C163 1.214 . S
O162 Cd158 2.352 . S
O162 C165 1.258 . S
C163 O160 1.320 1_545 S
C163 O161 1.214 . S
O164 Cd156 2.277 . S
O164 C159 1.209 1_565 S
C165 O162 1.258 . S
C165 O167 1.282 . S
O166 Cd158 2.277 . S
O166 C159 1.226 . S
O167 Cd158 2.356 . S
O167 C165 1.282 . S
C168 C169 1.387 . S
C168 H172 0.950 . S
C168 C177 1.390 . S
C169 C168 1.387 . S
C169 C171 1.387 . S
H170 C177 0.950 . S
C171 C169 1.387 . S
C171 C173 1.390 . S
C171 H175 0.950 . S
H172 C168 0.950 . S
C173 C171 1.390 . S
C173 C174 1.387 . S
C173 H176 0.950 . S
C174 C173 1.387 . S
C174 C177 1.387 . S
H175 C171 0.950 . S
H176 C173 0.950 . S
C177 C168 1.390 . S
C177 H170 0.950 . S
C177 C174 1.387 . S
C178 C179 1.387 . S
C178 H182 0.950 . S
C178 C187 1.390 . S
C179 C178 1.387 . S
C179 C181 1.387 1_655 S
H180 C187 0.950 . S
C181 C179 1.387 1_455 S
C181 C183 1.390 . S
C181 H185 0.950 . S
H182 C178 0.950 . S
C183 C181 1.390 . S
C183 C184 1.387 . S
C183 H186 0.950 . S
C184 C183 1.387 . S
C184 C187 1.387 1_455 S
H185 C181 0.950 . S
H186 C183 0.950 . S
C187 C178 1.390 . S
C187 H180 0.950 . S
C187 C184 1.387 1_655 S
C188 C189 1.387 . S
C188 H192 0.950 . S
C188 C197 1.390 1_566 S
C189 C188 1.387 . S
C189 C191 1.387 . S
H190 C197 0.950 . S
C191 C189 1.387 . S
C191 C193 1.390 1_566 S
C191 H195 0.950 . S
H192 C188 0.950 . S
C193 C191 1.390 1_544 S
C193 C194 1.387 . S
C193 H196 0.950 . S
C194 C193 1.387 . S
C194 C197 1.387 . S
H195 C191 0.950 . S
H196 C193 0.950 . S
C197 C188 1.390 1_544 S
C197 H190 0.950 . S
C197 C194 1.387 . S
C198 C199 1.387 . S
C198 H202 0.950 . S
C198 C207 1.390 . S
C199 C198 1.387 . S
C199 C201 1.387 . S
H200 C207 0.950 . S
C201 C199 1.387 . S
C201 C203 1.390 . S
C201 H205 0.950 . S
H202 C198 0.950 . S
C203 C201 1.390 . S
C203 C204 1.387 . S
C203 H206 0.950 . S
C204 C203 1.387 . S
C204 C207 1.387 . S
H205 C201 0.950 . S
H206 C203 0.950 . S
C207 C198 1.390 . S
C207 H200 0.950 . S
C207 C204 1.387 . S
C208 C209 1.387 1_455 S
C208 H212 0.950 . S
C208 C217 1.390 . S
C209 C208 1.387 1_655 S
C209 C211 1.387 . S
H210 C217 0.950 . S
C211 C209 1.387 . S
C211 C213 1.390 . S
C211 H215 0.950 . S
H212 C208 0.950 . S
C213 C211 1.390 . S
C213 C214 1.387 1_655 S
C213 H216 0.950 . S
C214 C213 1.387 1_455 S
C214 C217 1.387 . S
H215 C211 0.950 . S
H216 C213 0.950 . S
C217 C208 1.390 . S
C217 H210 0.950 . S
C217 C214 1.387 . S
C218 C219 1.387 . S
C218 H222 0.950 . S
C218 C227 1.390 1_564 S
C219 C218 1.387 . S
C219 C221 1.387 . S
H220 C227 0.950 . S
C221 C219 1.387 . S
C221 C223 1.390 1_564 S
C221 H225 0.950 . S
H222 C218 0.950 . S
C223 C221 1.390 1_546 S
C223 C224 1.387 . S
C223 H226 0.950 . S
C224 C223 1.387 . S
C224 C227 1.387 . S
H225 C221 0.950 . S
H226 C223 0.950 . S
C227 C218 1.390 1_546 S
C227 H220 0.950 . S
C227 C224 1.387 . S
C228 C229 1.387 . S
C228 H232 0.950 . S
C228 C237 1.390 1_556 S
C229 C228 1.387 . S
C229 C231 1.387 . S
H230 C237 0.950 . S
C231 C229 1.387 . S
C231 C233 1.390 1_556 S
C231 H235 0.950 . S
H232 C228 0.950 . S
C233 C231 1.390 1_554 S
C233 C234 1.387 . S
C233 H236 0.950 . S
C234 C233 1.387 . S
C234 C237 1.387 . S
H235 C231 0.950 . S
H236 C233 0.950 . S
C237 C228 1.390 1_554 S
C237 H230 0.950 . S
C237 C234 1.387 . S
C238 C239 1.387 . S
C238 H242 0.950 . S
C238 C247 1.390 . S
C239 C238 1.387 . S
C239 C241 1.387 . S
H240 C247 0.950 . S
C241 C239 1.387 . S
C241 C243 1.390 . S
C241 H245 0.950 . S
H242 C238 0.950 . S
C243 C241 1.390 . S
C243 C244 1.387 . S
C243 H246 0.950 . S
C244 C243 1.387 . S
C244 C247 1.387 . S
H245 C241 0.950 . S
H246 C243 0.950 . S
C247 C238 1.390 . S
C247 H240 0.950 . S
C247 C244 1.387 . S
C248 C249 1.387 . S
C248 H252 0.950 . S
C248 C257 1.390 . S
C249 C248 1.387 . S
C249 C251 1.387 . S
H250 C257 0.950 . S
C251 C249 1.387 . S
C251 C253 1.390 . S
C251 H255 0.950 . S
H252 C248 0.950 . S
C253 C251 1.390 . S
C253 C254 1.387 . S
C253 H256 0.950 . S
C254 C253 1.387 . S
C254 C257 1.387 . S
H255 C251 0.950 . S
H256 C253 0.950 . S
C257 C248 1.390 . S
C257 H250 0.950 . S
C257 C254 1.387 . S
C258 C259 1.387 . S
C258 H262 0.950 . S
C258 C267 1.390 1_554 S
C259 C258 1.387 . S
C259 C261 1.387 . S
H260 C267 0.950 . S
C261 C259 1.387 . S
C261 C263 1.390 1_554 S
C261 H265 0.950 . S
H262 C258 0.950 . S
C263 C261 1.390 1_556 S
C263 C264 1.387 . S
C263 H266 0.950 . S
C264 C263 1.387 . S
C264 C267 1.387 . S
H265 C261 0.950 . S
H266 C263 0.950 . S
C267 C258 1.390 1_556 S
C267 H260 0.950 . S
C267 C264 1.387 . S
C268 C269 1.387 . S
C268 H272 0.950 . S
C268 C277 1.390 . S
C269 C268 1.387 . S
C269 C271 1.387 . S
H270 C277 0.950 . S
C271 C269 1.387 . S
C271 C273 1.390 . S
C271 H275 0.950 . S
H272 C268 0.950 . S
C273 C271 1.390 . S
C273 C274 1.387 . S
C273 H276 0.950 . S
C274 C273 1.387 . S
C274 C277 1.387 . S
H275 C271 0.950 . S
H276 C273 0.950 . S
C277 C268 1.390 . S
C277 H270 0.950 . S
C277 C274 1.387 . S
C278 C279 1.387 . S
C278 H282 0.950 . S
C278 C287 1.390 . S
C279 C278 1.387 . S
C279 C281 1.387 . S
H280 C287 0.950 . S
C281 C279 1.387 . S
C281 C283 1.390 . S
C281 H285 0.950 . S
H282 C278 0.950 . S
C283 C281 1.390 . S
C283 C284 1.387 . S
C283 H286 0.950 . S
C284 C283 1.387 . S
C284 C287 1.387 . S
H285 C281 0.950 . S
H286 C283 0.950 . S
C287 C278 1.390 . S
C287 H280 0.950 . S
C287 C284 1.387 . S
C288 C289 1.387 . S
C288 H292 0.950 . S
C288 C297 1.390 . S
C289 C288 1.387 . S
C289 C291 1.387 . S
H290 C297 0.950 . S
C291 C289 1.387 . S
C291 C293 1.390 . S
C291 H295 0.950 . S
H292 C288 0.950 . S
C293 C291 1.390 . S
C293 C294 1.387 . S
C293 H296 0.950 . S
C294 C293 1.387 . S
C294 C297 1.387 . S
H295 C291 0.950 . S
H296 C293 0.950 . S
C297 C288 1.390 . S
C297 H290 0.950 . S
C297 C294 1.387 . S
C298 C299 1.387 1_655 S
C298 H302 0.950 . S
C298 C307 1.390 . S
C299 C298 1.387 1_455 S
C299 C301 1.387 . S
H300 C307 0.950 . S
C301 C299 1.387 . S
C301 C303 1.390 . S
C301 H305 0.950 . S
H302 C298 0.950 . S
C303 C301 1.390 . S
C303 C304 1.387 1_455 S
C303 H306 0.950 . S
C304 C303 1.387 1_655 S
C304 C307 1.387 . S
H305 C301 0.950 . S
H306 C303 0.950 . S
C307 C298 1.390 . S
C307 H300 0.950 . S
C307 C304 1.387 . S
C308 C309 1.387 . S
C308 H312 0.950 . S
C308 C317 1.390 1_545 S
C309 C308 1.387 . S
C309 C311 1.387 . S
H310 C317 0.950 . S
C311 C309 1.387 . S
C311 C313 1.390 1_545 S
C311 H315 0.950 . S
H312 C308 0.950 . S
C313 C311 1.390 1_565 S
C313 C314 1.387 . S
C313 H316 0.950 . S
C314 C313 1.387 . S
C314 C317 1.387 . S
H315 C311 0.950 . S
H316 C313 0.950 . S
C317 C308 1.390 1_565 S
C317 H310 0.950 . S
C317 C314 1.387 . S
C318 C319 1.387 . S
C318 H322 0.950 . S
C318 C327 1.390 . S
C319 C318 1.387 . S
C319 C321 1.387 . S
H320 C327 0.950 . S
C321 C319 1.387 . S
C321 C323 1.390 . S
C321 H325 0.950 . S
H322 C318 0.950 . S
C323 C321 1.390 . S
C323 C324 1.387 . S
C323 H326 0.950 . S
C324 C323 1.387 . S
C324 C327 1.387 . S
H325 C321 0.950 . S
H326 C323 0.950 . S
C327 C318 1.390 . S
C327 H320 0.950 . S
C327 C324 1.387 . S
C328 C329 1.387 . S
C328 H332 0.950 . S
C328 C337 1.390 . S
C329 C328 1.387 . S
C329 C331 1.387 1_655 S
H330 C337 0.950 . S
C331 C329 1.387 1_455 S
C331 C333 1.390 . S
C331 H335 0.950 . S
H332 C328 0.950 . S
C333 C331 1.390 . S
C333 C334 1.387 . S
C333 H336 0.950 . S
C334 C333 1.387 . S
C334 C337 1.387 1_455 S
H335 C331 0.950 . S
H336 C333 0.950 . S
C337 C328 1.390 . S
C337 H330 0.950 . S
C337 C334 1.387 1_655 S
C338 C339 1.387 . S
C338 H342 0.950 . S
C338 C347 1.390 1_545 S
C339 C338 1.387 . S
C339 C341 1.387 . S
H340 C347 0.950 . S
C341 C339 1.387 . S
C341 C343 1.390 1_545 S
C341 H345 0.950 . S
H342 C338 0.950 . S
C343 C341 1.390 1_565 S
C343 C344 1.387 . S
C343 H346 0.950 . S
C344 C343 1.387 . S
C344 C347 1.387 . S
H345 C341 0.950 . S
H346 C343 0.950 . S
C347 C338 1.390 1_565 S
C347 H340 0.950 . S
C347 C344 1.387 . S
C348 C349 1.387 . S
C348 H352 0.950 1_554 S
C348 C357 1.390 . S
C349 C348 1.387 . S
C349 C351 1.387 . S
H350 C357 0.950 1_556 S
C351 C349 1.387 . S
C351 C353 1.390 . S
C351 H355 0.950 . S
H352 C348 0.950 1_556 S
C353 C351 1.390 . S
C353 C354 1.387 . S
C353 H356 0.950 . S
C354 C353 1.387 . S
C354 C357 1.387 . S
H355 C351 0.950 . S
H356 C353 0.950 . S
C357 C348 1.390 . S
C357 H350 0.950 1_554 S
C357 C354 1.387 . S
C358 C359 1.387 . S
C358 H362 0.950 . S
C358 C367 1.390 1_455 S
C359 C358 1.387 . S
C359 C361 1.387 . S
H360 C367 0.950 . S
C361 C359 1.387 . S
C361 C363 1.390 1_455 S
C361 H365 0.950 . S
H362 C358 0.950 . S
C363 C361 1.390 1_655 S
C363 C364 1.387 . S
C363 H366 0.950 . S
C364 C363 1.387 . S
C364 C367 1.387 . S
H365 C361 0.950 . S
H366 C363 0.950 . S
C367 C358 1.390 1_655 S
C367 H360 0.950 . S
C367 C364 1.387 . S
C368 C369 1.387 . S
C368 H372 0.950 . S
C368 C377 1.390 1_565 S
C369 C368 1.387 . S
C369 C371 1.387 . S
H370 C377 0.950 . S
C371 C369 1.387 . S
C371 C373 1.390 1_565 S
C371 H375 0.950 . S
H372 C368 0.950 . S
C373 C371 1.390 1_545 S
C373 C374 1.387 . S
C373 H376 0.950 . S
C374 C373 1.387 . S
C374 C377 1.387 . S
H375 C371 0.950 . S
H376 C373 0.950 . S
C377 C368 1.390 1_545 S
C377 H370 0.950 . S
C377 C374 1.387 . S
C378 C379 1.387 . S
C378 H382 0.950 . S
C378 C387 1.390 . S
C379 C378 1.387 . S
C379 C381 1.387 . S
H380 C387 0.950 . S
C381 C379 1.387 . S
C381 C383 1.390 . S
C381 H385 0.950 . S
H382 C378 0.950 . S
C383 C381 1.390 . S
C383 C384 1.387 . S
C383 H386 0.950 . S
C384 C383 1.387 . S
C384 C387 1.387 . S
H385 C381 0.950 . S
H386 C383 0.950 . S
C387 C378 1.390 . S
C387 H380 0.950 . S
C387 C384 1.387 . S
C388 C389 1.387 . S
C388 H392 0.950 1_556 S
C388 C397 1.390 1_655 S
C389 C388 1.387 . S
C389 C391 1.387 . S
H390 C397 0.950 1_554 S
C391 C389 1.387 . S
C391 C393 1.390 1_655 S
C391 H395 0.950 . S
H392 C388 0.950 1_554 S
C393 C391 1.390 1_455 S
C393 C394 1.387 . S
C393 H396 0.950 . S
C394 C393 1.387 . S
C394 C397 1.387 . S
H395 C391 0.950 . S
H396 C393 0.950 . S
C397 C388 1.390 1_455 S
C397 H390 0.950 1_556 S
C397 C394 1.387 . S
C398 C399 1.387 . S
C398 H402 0.950 . S
C398 C407 1.390 1_545 S
C399 C398 1.387 . S
C399 C401 1.387 . S
H400 C407 0.950 . S
C401 C399 1.387 . S
C401 C403 1.390 1_545 S
C401 H405 0.950 . S
H402 C398 0.950 . S
C403 C401 1.390 1_565 S
C403 C404 1.387 . S
C403 H406 0.950 . S
C404 C403 1.387 . S
C404 C407 1.387 . S
H405 C401 0.950 . S
H406 C403 0.950 . S
C407 C398 1.390 1_565 S
C407 H400 0.950 . S
C407 C404 1.387 . S
C169 C0 1.539 . S
C174 C126 1.539 . S
C179 C14 1.539 . S
C184 C140 1.540 . S
C189 C28 1.539 . S
C194 C154 1.539 . S
C199 C42 1.540 . S
C204 C84 1.539 . S
C209 C98 1.540 . S
C214 C56 1.539 . S
C219 C112 1.539 . S
C224 C70 1.539 . S
C229 C151 1.550 . S
C234 C11 1.550 . S
C239 C25 1.549 . S
C244 C165 1.548 . S
C249 C39 1.549 . S
C254 C95 1.550 . S
C259 C53 1.550 . S
C264 C109 1.550 . S
C269 C67 1.549 . S
C274 C123 1.548 . S
C279 C81 1.550 . S
C284 C137 1.549 . S
C289 C135 1.000 . S
C294 C9 1.001 . S
C299 C23 1.007 1_455 S
C304 C149 1.006 1_655 S
C309 C37 1.000 1_545 S
C314 C163 1.000 1_565 S
C319 C93 1.001 . S
C324 C51 1.002 . S
C329 C65 1.000 1_655 S
C334 C107 1.001 1_455 S
C339 C121 1.006 1_545 S
C344 C79 1.006 1_565 S
C349 C5 1.508 . S
C354 C47 1.508 . S
C359 C61 1.509 . S
C364 C19 1.509 . S
C369 C33 1.508 . S
C374 C75 1.508 . S
C379 C89 1.508 . S
C384 C131 1.508 . S
C389 C103 1.508 . S
C394 C145 1.508 . S
C399 C159 1.509 . S
C404 C117 1.509 . S
