# Generated by pormake.
# Topology sra, (4)-cn, num edge types: 1
# Building blocks:
#     Node 0, Type 0, BuildingBlock: CEKHIL_clean_sbu_0, # of connection points: 4
#     Node 1, Type 0, BuildingBlock: CEKHIL_clean_sbu_0, # of connection points: 4
#     Node 2, Type 0, BuildingBlock: CEKHIL_clean_sbu_0, # of connection points: 4
#     Node 3, Type 0, BuildingBlock: CEKHIL_clean_sbu_0, # of connection points: 4
#     Node 4, Type 0, BuildingBlock: CEKHIL_clean_sbu_0, # of connection points: 4
#     Node 5, Type 0, BuildingBlock: CEKHIL_clean_sbu_0, # of connection points: 4
#     Node 6, Type 0, BuildingBlock: CEKHIL_clean_sbu_0, # of connection points: 4
#     Node 7, Type 0, BuildingBlock: CEKHIL_clean_sbu_0, # of connection points: 4
#     Edge 8, Type (0, 0), BuildingBlock: MIFKUJ_clean_linker_0, # of connection points: 2
#     Edge 9, Type (0, 0), BuildingBlock: MIFKUJ_clean_linker_0, # of connection points: 2
#     Edge 10, Type (0, 0), BuildingBlock: MIFKUJ_clean_linker_0, # of connection points: 2
#     Edge 11, Type (0, 0), BuildingBlock: MIFKUJ_clean_linker_0, # of connection points: 2
#     Edge 12, Type (0, 0), BuildingBlock: MIFKUJ_clean_linker_0, # of connection points: 2
#     Edge 13, Type (0, 0), BuildingBlock: MIFKUJ_clean_linker_0, # of connection points: 2
#     Edge 14, Type (0, 0), BuildingBlock: MIFKUJ_clean_linker_0, # of connection points: 2
#     Edge 15, Type (0, 0), BuildingBlock: MIFKUJ_clean_linker_0, # of connection points: 2
#     Edge 16, Type (0, 0), BuildingBlock: MIFKUJ_clean_linker_0, # of connection points: 2
#     Edge 17, Type (0, 0), BuildingBlock: MIFKUJ_clean_linker_0, # of connection points: 2
#     Edge 18, Type (0, 0), BuildingBlock: MIFKUJ_clean_linker_0, # of connection points: 2
#     Edge 19, Type (0, 0), BuildingBlock: MIFKUJ_clean_linker_0, # of connection points: 2
#     Edge 20, Type (0, 0), BuildingBlock: MIFKUJ_clean_linker_0, # of connection points: 2
#     Edge 21, Type (0, 0), BuildingBlock: MIFKUJ_clean_linker_0, # of connection points: 2
#     Edge 22, Type (0, 0), BuildingBlock: MIFKUJ_clean_linker_0, # of connection points: 2
#     Edge 23, Type (0, 0), BuildingBlock: MIFKUJ_clean_linker_0, # of connection points: 2
# Relax obj value: 0.033
# Max RMSD: 0.069
# Mean RMSD: 0.069
data_MOF--net-sra--node1-CEKHIL_clean_sbu_0--edge1-MIFKUJ_clean_linker_0
_symmetry_space_group_name_H-M    P1
_symmetry_Int_Tables_number       1
_symmetry_cell_setting            triclinic
loop_
_symmetry_equiv_pos_as_xyz
'x, y, z'
_cell_length_a     35.307606
_cell_length_b     68.436835
_cell_length_c     40.444475
_cell_angle_alpha  89.961014
_cell_angle_beta   90.001656
_cell_angle_gamma 89.991988
loop_
_atom_site_label
_atom_site_type_symbol
_atom_site_fract_x
_atom_site_fract_y
_atom_site_fract_z
_atom_type_partial_charge
Co0 Co 0.01757 0.10676 0.15229 0.0
O1 O 0.01491 0.07916 0.14322 0.0
O2 O -0.00132 0.10235 0.10777 0.0
C3 C 0.07635 0.10649 0.1743 0.0
O4 O 0.01778 0.13678 0.1529 0.0
Co5 Co 0.02568 0.12103 0.22522 0.0
O6 O 0.03488 0.14665 0.20386 0.0
C7 C 0.95315 0.10482 0.20176 0.0
C8 C 0.00259 0.08381 0.11407 0.0
C9 C 0.02714 0.15029 0.17366 0.0
O10 O 0.96464 0.10582 0.17153 0.0
O11 O 0.97461 0.10834 0.22657 0.0
O12 O 0.07198 0.10699 0.14241 0.0
O13 O 0.04568 0.10432 0.19114 0.0
Co14 Co 0.00131 0.39929 0.15479 0.0
O15 O 4e-05 0.42706 0.14712 0.0
O16 O 0.02237 0.40545 0.11156 0.0
C17 C 0.9416 0.39677 0.17412 0.0
O18 O 0.00578 0.36934 0.154 0.0
Co19 Co 0.992 0.38358 0.22689 0.0
O20 O 0.99062 0.35786 0.20455 0.0
C21 C 0.06393 0.40176 0.20653 0.0
C22 C 0.01499 0.42365 0.11842 0.0
C23 C -0.0004 0.35513 0.17436 0.0
O24 O 0.05291 0.40179 0.17614 0.0
O25 O 0.04237 0.39685 0.23059 0.0
O26 O 0.94771 0.39726 0.14245 0.0
O27 O 0.97081 0.39973 0.19251 0.0
Co28 Co 0.02063 0.89927 0.84719 0.0
O29 O 0.02338 0.92688 0.85569 0.0
O30 O 0.00033 0.90521 0.89084 0.0
C31 C 0.08007 0.89646 0.82706 0.0
O32 O 0.01499 0.86942 0.84703 0.0
Co33 Co 0.02828 0.8845 0.77453 0.0
O34 O 0.02785 0.85837 0.79571 0.0
C35 C 0.95808 0.90378 0.79606 0.0
C36 C 0.00861 0.92337 0.88441 0.0
C37 C 0.01973 0.85541 0.82604 0.0
O38 O 0.96885 0.90261 0.82645 0.0
O39 O 0.97945 0.89934 0.77163 0.0
O40 O 0.07428 0.89636 0.8588 0.0
O41 O 0.05064 0.89999 0.80921 0.0
Co42 Co 0.00414 0.60655 0.84876 0.0
O43 O 0.0061 0.57891 0.85753 0.0
O44 O 0.02337 0.60174 0.89314 0.0
C45 C 0.94523 0.60677 0.82702 0.0
O46 O 0.00466 0.63658 0.84832 0.0
Co47 Co 0.99609 0.62097 0.77583 0.0
O48 O 0.98724 0.64654 0.79744 0.0
C49 C 0.06827 0.6043 0.79904 0.0
C50 C 0.01891 0.58324 0.88664 0.0
C51 C 0.99527 0.65013 0.82759 0.0
O52 O 0.05691 0.60534 0.82929 0.0
O53 O 0.04683 0.60794 0.77426 0.0
O54 O 0.94978 0.60709 0.85891 0.0
O55 O 0.97575 0.60445 0.81005 0.0
Co56 Co 0.51993 0.60767 0.65338 0.0
O57 O 0.51751 0.57984 0.64651 0.0
O58 O 0.4977 0.60192 0.61054 0.0
C59 C 0.58013 0.60794 0.67213 0.0
O60 O 0.5193 0.63764 0.65126 0.0
Co61 Co 0.53391 0.62517 0.72337 0.0
O62 O 0.54631 0.64907 0.69779 0.0
C63 C 0.4585 0.6092 0.70601 0.0
C64 C 0.50292 0.58357 0.61776 0.0
C65 C 0.53376 0.65161 0.66856 0.0
O66 O 0.46867 0.60713 0.67559 0.0
O67 O 0.48115 0.61483 0.72885 0.0
O68 O 0.57347 0.60776 0.64051 0.0
O69 O 0.55073 0.6065 0.69084 0.0
Co70 Co 0.50475 0.90061 0.65189 0.0
O71 O 0.50811 0.92842 0.64476 0.0
O72 O 0.52524 0.90605 0.60826 0.0
C73 C 0.44526 0.90079 0.67246 0.0
O74 O 0.50415 0.87062 0.65008 0.0
Co75 Co 0.49312 0.88364 0.7227 0.0
O76 O 0.48045 0.85947 0.69817 0.0
C77 C 0.56833 0.89869 0.70265 0.0
C78 C 0.52128 0.92446 0.6156 0.0
C79 C 0.4911 0.8567 0.66842 0.0
O80 O 0.55702 0.90071 0.6725 0.0
O81 O 0.54639 0.89348 0.72628 0.0
O82 O 0.45069 0.90099 0.64068 0.0
O83 O 0.47541 0.90214 0.69025 0.0
Co84 Co 0.51694 0.40141 0.34881 0.0
O85 O 0.51463 0.42916 0.35649 0.0
O86 O 0.49504 0.40674 0.39198 0.0
C87 C 0.57702 0.40146 0.32994 0.0
O88 O 0.51593 0.37147 0.34995 0.0
Co89 Co 0.53087 0.38454 0.27855 0.0
O90 O 0.54254 0.36015 0.30316 0.0
C91 C 0.4557 0.40083 0.2962 0.0
C92 C 0.50017 0.42515 0.38516 0.0
C93 C 0.52989 0.35752 0.33232 0.0
O94 O 0.46562 0.40228 0.32678 0.0
O95 O 0.4785 0.39554 0.27322 0.0
O96 O 0.5705 0.40096 0.36155 0.0
O97 O 0.54765 0.40312 0.31126 0.0
Co98 Co 0.50159 0.10798 0.34782 0.0
O99 O 0.50272 0.0801 0.35473 0.0
O100 O 0.52379 0.10189 0.39058 0.0
C101 C 0.44133 0.10894 0.32928 0.0
O102 O 0.50366 0.13792 0.34988 0.0
Co103 Co 0.48803 0.12579 0.27796 0.0
O104 O 0.47713 0.14989 0.30349 0.0
C105 C 0.56286 0.10891 0.29499 0.0
C106 C 0.51759 0.08362 0.38344 0.0
C107 C 0.49 0.15216 0.33267 0.0
O108 O 0.55273 0.10688 0.32545 0.0
O109 O 0.54032 0.11482 0.27226 0.0
O110 O 0.44813 0.10867 0.36087 0.0
O111 O 0.47056 0.10722 0.31045 0.0
H112 H 0.01126 0.32359 0.21377 0.0
H113 H 0.02002 0.28969 0.19796 0.0
H114 H 0.00848 0.30523 0.09517 0.0
H115 H 2e-05 0.33982 0.11088 0.0
H116 H 0.96334 0.26991 0.12158 0.0
H117 H 0.08957 0.29453 0.11174 0.0
H118 H 0.14545 0.31357 0.12893 0.0
H119 H 0.15435 0.27932 0.21757 0.0
H120 H 0.09814 0.26027 0.2012 0.0
H121 H 0.00816 0.16646 0.11297 0.0
H122 H 0.00766 0.20131 0.09803 0.0
H123 H 0.04658 0.21598 0.19602 0.0
H124 H 0.04798 0.18172 0.21074 0.0
H125 H 0.08331 0.23701 0.15283 0.0
H126 H 0.95106 0.21907 0.17099 0.0
H127 H 0.8926 0.20067 0.15887 0.0
H128 H 0.89315 0.22256 0.05932 0.0
H129 H 0.9519 0.24091 0.07081 0.0
C130 C 0.01042 0.31996 0.18772 0.0
C131 C 0.00481 0.33452 0.16359 0.0
C132 C 0.01557 0.3005 0.17874 0.0
C133 C 0.01502 0.29495 0.14544 0.0
C134 C 0.00901 0.30926 0.12105 0.0
C135 C 0.00434 0.32899 0.13004 0.0
C136 C 0.02105 0.27404 0.13717 0.0
C137 C 0.98989 0.26271 0.12738 0.0
C138 C 0.05549 0.26465 0.14536 0.0
C139 C 0.08953 0.27599 0.15524 0.0
C140 C 0.10328 0.29114 0.135 0.0
C141 C 0.13505 0.30193 0.1446 0.0
C142 C 0.15345 0.29766 0.17432 0.0
C143 C 0.1401 0.2826 0.19453 0.0
C144 C 0.10832 0.27177 0.18507 0.0
C145 C 0.01688 0.17713 0.1312 0.0
C146 C 0.02796 0.17116 0.16312 0.0
C147 C 0.01643 0.19706 0.12267 0.0
C148 C 0.0269 0.21136 0.14596 0.0
C149 C 0.03857 0.20532 0.17749 0.0
C150 C 0.03914 0.18559 0.18594 0.0
C151 C 0.02509 0.23271 0.13869 0.0
C152 C 0.05711 0.24416 0.14575 0.0
C153 C 0.9913 0.24215 0.12846 0.0
C154 C 0.95609 0.23112 0.1216 0.0
C155 C 0.93886 0.21982 0.14645 0.0
C156 C 0.90566 0.20943 0.13971 0.0
C157 C 0.88925 0.21039 0.10831 0.0
C158 C 0.90595 0.22179 0.08361 0.0
C159 C 0.93919 0.23218 0.09021 0.0
H160 H 0.86354 0.20234 0.10314 0.0
H161 H 0.17809 0.30598 0.18169 0.0
H162 H 0.03097 0.8387 0.88752 0.0
H163 H 0.02433 0.80385 0.90217 0.0
H164 H 0.98855 0.79117 0.80255 0.0
H165 H 0.99573 0.82544 0.78773 0.0
H166 H 0.94262 0.77376 0.85327 0.0
H167 H 0.07537 0.7826 0.82125 0.0
H168 H 0.13879 0.79717 0.82799 0.0
H169 H 0.14483 0.77486 0.92712 0.0
H170 H 0.08115 0.76038 0.92107 0.0
H171 H 0.96942 0.68122 0.79212 0.0
H172 H 0.97087 0.71552 0.80648 0.0
H173 H 0.02062 0.70158 0.90096 0.0
H174 H 0.01993 0.66663 0.8864 0.0
H175 H 0.05644 0.73259 0.87145 0.0
H176 H 0.92958 0.71715 0.89824 0.0
H177 H 0.8665 0.70231 0.89109 0.0
H178 H 0.84801 0.73703 0.80413 0.0
H179 H 0.9112 0.75188 0.81043 0.0
C180 C 0.02148 0.82845 0.8689 0.0
C181 C 0.01409 0.83481 0.83643 0.0
C182 C 0.01779 0.80858 0.87726 0.0
C183 C 0.00594 0.79494 0.85341 0.0
C184 C 0.99763 0.80143 0.82135 0.0
C185 C 0.00197 0.82104 0.81289 0.0
C186 C 0.00292 0.77372 0.86074 0.0
C187 C 0.96742 0.76473 0.85748 0.0
C188 C 0.0351 0.76203 0.86735 0.0
C189 C 0.07334 0.77066 0.87088 0.0
C190 C 0.09008 0.78097 0.84459 0.0
C191 C 0.12609 0.78917 0.84825 0.0
C192 C 0.14577 0.78701 0.87801 0.0
C193 C 0.12951 0.77657 0.90412 0.0
C194 C 0.09347 0.76836 0.90059 0.0
C195 C 0.98057 0.68524 0.81611 0.0
C196 C 0.99456 0.671 0.83809 0.0
C197 C 0.98113 0.70499 0.82439 0.0
C198 C 0.99527 0.7112 0.85503 0.0
C199 C 0.00932 0.69712 0.87724 0.0
C200 C 0.00877 0.67716 0.86893 0.0
C201 C 0.99625 0.73251 0.86253 0.0
C202 C 0.03133 0.74156 0.86846 0.0
C203 C 0.96356 0.74432 0.85857 0.0
C204 C 0.92525 0.73561 0.8548 0.0
C205 C 0.91216 0.72156 0.87749 0.0
C206 C 0.87636 0.71314 0.87359 0.0
C207 C 0.85327 0.71872 0.84717 0.0
C208 C 0.86591 0.73275 0.82461 0.0
C209 C 0.9017 0.7412 0.82838 0.0
H210 H 0.82557 0.71217 0.84417 0.0
H211 H 0.17365 0.79336 0.88081 0.0
H212 H 0.47846 0.66989 0.63239 0.0
H213 H 0.47323 0.70502 0.62134 0.0
H214 H 0.58371 0.71401 0.66453 0.0
H215 H 0.58793 0.67921 0.6771 0.0
H216 H 0.53929 0.73758 0.69124 0.0
H217 H 0.5615 0.72087 0.57805 0.0
H218 H 0.55122 0.70331 0.52559 0.0
H219 H 0.4381 0.72611 0.51994 0.0
H220 H 0.44752 0.7436 0.57261 0.0
H221 H 0.53413 0.84042 0.6186 0.0
H222 H 0.54216 0.80537 0.60706 0.0
H223 H 0.45656 0.7918 0.67951 0.0
H224 H 0.44857 0.82645 0.69128 0.0
H225 H 0.4944 0.77175 0.59034 0.0
H226 H 0.49483 0.75885 0.73129 0.0
H227 H 0.50905 0.77707 0.78245 0.0
H228 H 0.58697 0.81361 0.7293 0.0
H229 H 0.57366 0.79542 0.67799 0.0
C230 C 0.50193 0.67935 0.63879 0.0
C231 C 0.53349 0.67187 0.65576 0.0
C232 C 0.49901 0.69946 0.63238 0.0
C233 C 0.52809 0.71233 0.64206 0.0
C234 C 0.56068 0.70453 0.65706 0.0
C235 C 0.56318 0.6846 0.66413 0.0
C236 C 0.52312 0.73399 0.64014 0.0
C237 C 0.52977 0.74493 0.66896 0.0
C238 C 0.51083 0.74386 0.61117 0.0
C239 C 0.50513 0.73343 0.57943 0.0
C240 C 0.53434 0.72203 0.56574 0.0
C241 C 0.52868 0.71211 0.53594 0.0
C242 C 0.494 0.71356 0.51948 0.0
C243 C 0.46494 0.72499 0.53273 0.0
C244 C 0.47044 0.73493 0.56254 0.0
C245 C 0.51637 0.82998 0.63144 0.0
C246 C 0.4912 0.83622 0.65629 0.0
C247 C 0.52093 0.80997 0.62476 0.0
C248 C 0.50033 0.79599 0.64279 0.0
C249 C 0.47305 0.80233 0.66559 0.0
C250 C 0.46864 0.82217 0.67236 0.0
C251 C 0.51034 0.7749 0.64139 0.0
C252 C 0.50437 0.7642 0.61226 0.0
C253 C 0.52408 0.76517 0.66982 0.0
C254 C 0.53297 0.77588 0.70077 0.0
C255 C 0.51515 0.7707 0.73058 0.0
C256 C 0.52303 0.78104 0.75959 0.0
C257 C 0.54881 0.79652 0.7591 0.0
C258 C 0.56691 0.80166 0.72963 0.0
C259 C 0.55919 0.79135 0.70058 0.0
H260 H 0.55482 0.80452 0.78157 0.0
H261 H 0.48968 0.70586 0.49642 0.0
H262 H 0.46823 0.33783 0.35494 0.0
H263 H 0.46318 0.30272 0.36519 0.0
H264 H 0.58347 0.29651 0.34847 0.0
H265 H 0.58757 0.33137 0.33546 0.0
H266 H 0.55421 0.27007 0.31772 0.0
H267 H 0.53395 0.29009 0.42878 0.0
H268 H 0.50598 0.30852 0.4751 0.0
H269 H 0.39668 0.28424 0.45326 0.0
H270 H 0.42389 0.26585 0.40652 0.0
H271 H 0.54778 0.16911 0.36736 0.0
H272 H 0.55622 0.20418 0.37844 0.0
H273 H 0.44588 0.21588 0.33737 0.0
H274 H 0.4379 0.18105 0.32512 0.0
H275 H 0.47462 0.23818 0.40321 0.0
H276 H 0.50011 0.22257 0.28561 0.0
H277 H 0.53283 0.203 0.2431 0.0
H278 H 0.64046 0.21865 0.28487 0.0
H279 H 0.60824 0.23807 0.32796 0.0
C280 C 0.49363 0.32897 0.35415 0.0
C281 C 0.52831 0.33723 0.34462 0.0
C282 C 0.49085 0.30885 0.36022 0.0
C283 C 0.52303 0.29672 0.35811 0.0
C284 C 0.55808 0.30534 0.35014 0.0
C285 C 0.56056 0.3253 0.34295 0.0
C286 C 0.51964 0.27497 0.36106 0.0
C287 C 0.5374 0.26327 0.337 0.0
C288 C 0.49746 0.26568 0.38585 0.0
C289 C 0.48094 0.2767 0.41396 0.0
C290 C 0.5039 0.28878 0.4337 0.0
C291 C 0.48818 0.2992 0.46006 0.0
C292 C 0.44956 0.29758 0.46707 0.0
C293 C 0.42659 0.28549 0.44779 0.0
C294 C 0.44216 0.27504 0.42138 0.0
C295 C 0.52497 0.17912 0.3615 0.0
C296 C 0.49222 0.17241 0.34534 0.0
C297 C 0.52984 0.19911 0.36779 0.0
C298 C 0.50162 0.21256 0.35877 0.0
C299 C 0.46785 0.20571 0.34471 0.0
C300 C 0.4634 0.18584 0.33763 0.0
C301 C 0.50901 0.23388 0.36001 0.0
C302 C 0.49188 0.2453 0.38457 0.0
C303 C 0.53251 0.24295 0.33632 0.0
C304 C 0.5518 0.23154 0.31018 0.0
C305 C 0.53073 0.22167 0.28589 0.0
C306 C 0.54918 0.21065 0.26167 0.0
C307 C 0.5887 0.20953 0.26135 0.0
C308 C 0.60985 0.21949 0.28519 0.0
C309 C 0.59152 0.23051 0.3095 0.0
H310 H 0.60294 0.20099 0.24258 0.0
H311 H 0.43745 0.30567 0.48749 0.0
H312 H 0.42236 0.11101 0.2643 0.0
H313 H 0.35928 0.11339 0.2403 0.0
H314 H 0.3103 0.11476 0.33801 0.0
H315 H 0.37379 0.11211 0.36238 0.0
H316 H 0.27423 0.08911 0.29803 0.0
H317 H 0.31341 0.15579 0.29091 0.0
H318 H 0.35659 0.18288 0.27697 0.0
H319 H 0.34944 0.16791 0.17408 0.0
H320 H 0.30672 0.14051 0.18744 0.0
H321 H 0.09007 0.10955 0.24027 0.0
H322 H 0.15113 0.11267 0.26789 0.0
H323 H 0.20772 0.11195 0.17335 0.0
H324 H 0.1463 0.10926 0.14536 0.0
H325 H 0.23867 0.13884 0.21421 0.0
H326 H 0.20399 0.07102 0.22139 0.0
H327 H 0.16227 0.04322 0.23475 0.0
H328 H 0.16211 0.05999 0.33704 0.0
H329 H 0.20345 0.08806 0.3242 0.0
C330 C 0.39824 0.11197 0.28077 0.0
C331 C 0.40301 0.11138 0.31526 0.0
C332 C 0.36218 0.11343 0.26697 0.0
C333 C 0.33011 0.11449 0.28735 0.0
C334 C 0.33473 0.11403 0.32185 0.0
C335 C 0.37095 0.11256 0.33573 0.0
C336 C 0.29181 0.11516 0.27237 0.0
C337 C 0.26616 0.10021 0.28019 0.0
C338 C 0.28175 0.12934 0.24841 0.0
C339 C 0.30705 0.14599 0.24022 0.0
C340 C 0.32124 0.15819 0.26533 0.0
C341 C 0.34561 0.17361 0.25753 0.0
C342 C 0.3558 0.1771 0.22467 0.0
C343 C 0.34154 0.16519 0.19953 0.0
C344 C 0.31721 0.14972 0.2072 0.0
C345 C 0.11546 0.11014 0.22529 0.0
C346 C 0.11343 0.10902 0.19063 0.0
C347 C 0.15037 0.11187 0.24115 0.0
C348 C 0.18402 0.11223 0.22273 0.0
C349 C 0.18207 0.11164 0.18804 0.0
C350 C 0.14703 0.11003 0.1721 0.0
C351 C 0.22122 0.11274 0.23977 0.0
C352 C 0.24664 0.12786 0.23228 0.0
C353 C 0.23119 0.09868 0.26398 0.0
C354 C 0.2065 0.08175 0.27177 0.0
C355 C 0.19483 0.06887 0.24669 0.0
C356 C 0.17129 0.05305 0.25417 0.0
C357 C 0.15947 0.04987 0.28671 0.0
C358 C 0.17125 0.06248 0.31184 0.0
C359 C 0.19476 0.07834 0.30448 0.0
H360 H 0.14124 0.03762 0.29245 0.0
H361 H 0.37468 0.18904 0.21868 0.0
H362 H 0.60127 0.41719 0.2725 0.0
H363 H 0.66357 0.41416 0.24708 0.0
H364 H 0.70061 0.37798 0.32842 0.0
H365 H 0.63854 0.38209 0.35501 0.0
H366 H 0.75461 0.4014 0.31231 0.0
H367 H 0.67381 0.3592 0.24836 0.0
H368 H 0.61711 0.3512 0.21539 0.0
H369 H 0.64797 0.39466 0.14366 0.0
H370 H 0.70458 0.40309 0.1764 0.0
H371 H 0.92411 0.37673 0.23006 0.0
H372 H 0.86208 0.37369 0.25632 0.0
H373 H 0.81253 0.40831 0.17814 0.0
H374 H 0.87418 0.40996 0.15055 0.0
H375 H 0.76494 0.3825 0.19425 0.0
H376 H 0.84171 0.42683 0.2601 0.0
H377 H 0.89772 0.43584 0.29327 0.0
H378 H 0.87388 0.38921 0.36125 0.0
H379 H 0.81796 0.37981 0.32828 0.0
C380 C 0.62276 0.40863 0.28498 0.0
C381 C 0.61518 0.39977 0.31557 0.0
C382 C 0.65829 0.40675 0.2703 0.0
C383 C 0.68655 0.39533 0.28527 0.0
C384 C 0.67919 0.38673 0.31623 0.0
C385 C 0.64382 0.38907 0.33141 0.0
C386 C 0.72385 0.3927 0.26875 0.0
C387 C 0.75688 0.39694 0.28664 0.0
C388 C 0.72692 0.38725 0.23504 0.0
C389 C 0.69335 0.38183 0.21493 0.0
C390 C 0.66845 0.36708 0.2256 0.0
C391 C 0.63631 0.36248 0.20696 0.0
C392 C 0.62892 0.37244 0.17747 0.0
C393 C 0.65372 0.38696 0.1665 0.0
C394 C 0.68587 0.39163 0.18505 0.0
C395 C 0.89982 0.38346 0.21835 0.0
C396 C 0.90378 0.39368 0.18846 0.0
C397 C 0.86442 0.38189 0.23351 0.0
C398 C 0.83267 0.39131 0.21987 0.0
C399 C 0.83652 0.40099 0.18934 0.0
C400 C 0.87172 0.40197 0.17358 0.0
C401 C 0.7957 0.39157 0.23762 0.0
C402 C 0.76271 0.38682 0.21998 0.0
C403 C 0.79265 0.39665 0.27152 0.0
C404 C 0.82589 0.40253 0.29158 0.0
C405 C 0.84852 0.41847 0.28206 0.0
C406 C 0.88023 0.42364 0.30082 0.0
C407 C 0.8894 0.41307 0.3293 0.0
C408 C 0.86678 0.39736 0.33916 0.0
C409 C 0.83506 0.39213 0.32048 0.0
H410 H 0.91399 0.41708 0.34376 0.0
H411 H 0.604 0.36888 0.16311 0.0
H412 H 0.0969 0.89334 0.76162 0.0
H413 H 0.15944 0.89117 0.73623 0.0
H414 H 0.21122 0.89111 0.83284 0.0
H415 H 0.14844 0.89338 0.85854 0.0
H416 H 0.24363 0.91768 0.79126 0.0
H417 H 0.21027 0.85002 0.78755 0.0
H418 H 0.16954 0.82168 0.77528 0.0
H419 H 0.17358 0.83542 0.67173 0.0
H420 H 0.21389 0.86403 0.68343 0.0
H421 H 0.42918 0.89795 0.73799 0.0
H422 H 0.36726 0.89469 0.764 0.0
H423 H 0.31393 0.89469 0.66804 0.0
H424 H 0.37629 0.89767 0.64161 0.0
H425 H 0.28262 0.86732 0.70981 0.0
H426 H 0.31357 0.93554 0.71363 0.0
H427 H 0.35355 0.9642 0.72567 0.0
H428 H 0.35314 0.94959 0.82893 0.0
H429 H 0.31357 0.92066 0.81744 0.0
C430 C 0.12155 0.89266 0.77752 0.0
C431 C 0.1178 0.89357 0.81209 0.0
C432 C 0.15728 0.89133 0.76294 0.0
C433 C 0.18996 0.89085 0.78264 0.0
C434 C 0.18631 0.89144 0.81721 0.0
C435 C 0.15048 0.89267 0.83185 0.0
C436 C 0.22793 0.89088 0.76697 0.0
C437 C 0.25243 0.90647 0.7739 0.0
C438 C 0.23887 0.87658 0.74357 0.0
C439 C 0.21484 0.85929 0.73641 0.0
C440 C 0.20224 0.8471 0.76218 0.0
C441 C 0.17926 0.83097 0.75533 0.0
C442 C 0.16891 0.82678 0.72276 0.0
C443 C 0.1816 0.83869 0.69696 0.0
C444 C 0.20454 0.85486 0.70368 0.0
C445 C 0.40434 0.89718 0.72233 0.0
C446 C 0.40757 0.89821 0.68773 0.0
C447 C 0.36894 0.89536 0.73728 0.0
C448 C 0.33595 0.89472 0.71799 0.0
C449 C 0.33907 0.89521 0.68337 0.0
C450 C 0.37464 0.89699 0.66832 0.0
C451 C 0.2983 0.89409 0.73421 0.0
C452 C 0.27384 0.87845 0.7273 0.0
C453 C 0.28728 0.90838 0.75761 0.0
C454 C 0.31091 0.92583 0.76462 0.0
C455 C 0.32225 0.93835 0.73887 0.0
C456 C 0.34479 0.95466 0.7456 0.0
C457 C 0.35596 0.95869 0.77803 0.0
C458 C 0.34451 0.94644 0.80382 0.0
C459 C 0.32199 0.93009 0.79721 0.0
H460 H 0.37341 0.97132 0.78319 0.0
H461 H 0.15112 0.81428 0.7175 0.0
H462 H 0.59917 0.60803 0.73716 0.0
H463 H 0.66212 0.61067 0.76132 0.0
H464 H 0.71078 0.61588 0.66385 0.0
H465 H 0.64745 0.61287 0.63929 0.0
H466 H 0.74926 0.59023 0.70111 0.0
H467 H 0.70406 0.65548 0.71513 0.0
H468 H 0.65859 0.68097 0.73187 0.0
H469 H 0.66758 0.66247 0.83303 0.0
H470 H 0.71261 0.63664 0.81684 0.0
H471 H 0.93156 0.61198 0.76143 0.0
H472 H 0.87045 0.61511 0.73391 0.0
H473 H 0.81365 0.61034 0.82804 0.0
H474 H 0.87513 0.60777 0.85597 0.0
H475 H 0.78054 0.63756 0.78993 0.0
H476 H 0.82133 0.57093 0.77544 0.0
H477 H 0.86561 0.54481 0.75898 0.0
H478 H 0.864 0.56571 0.65886 0.0
H479 H 0.82007 0.59211 0.67482 0.0
C480 C 0.6232 0.60985 0.72079 0.0
C481 C 0.61839 0.61026 0.6863 0.0
C482 C 0.65918 0.61147 0.73469 0.0
C483 C 0.69111 0.61376 0.71443 0.0
C484 C 0.68646 0.61421 0.67993 0.0
C485 C 0.65033 0.61252 0.66595 0.0
C486 C 0.72938 0.6148 0.72946 0.0
C487 C 0.75636 0.60082 0.72007 0.0
C488 C 0.73826 0.62831 0.75481 0.0
C489 C 0.71154 0.64402 0.76471 0.0
C490 C 0.69616 0.65676 0.74092 0.0
C491 C 0.67047 0.67128 0.75031 0.0
C492 C 0.66016 0.67332 0.78348 0.0
C493 C 0.67558 0.66087 0.80734 0.0
C494 C 0.70122 0.64629 0.79807 0.0
C495 C 0.90611 0.61171 0.77635 0.0
C496 C 0.9081 0.60947 0.81086 0.0
C497 C 0.87117 0.61343 0.76054 0.0
C498 C 0.83744 0.61259 0.77883 0.0
C499 C 0.83934 0.61095 0.81343 0.0
C500 C 0.87442 0.60942 0.82934 0.0
C501 C 0.80027 0.6129 0.76172 0.0
C502 C 0.77352 0.62709 0.77075 0.0
C503 C 0.79151 0.59956 0.73606 0.0
C504 C 0.81771 0.58361 0.72639 0.0
C505 C 0.83063 0.57003 0.74996 0.0
C506 C 0.85563 0.55517 0.74072 0.0
C507 C 0.86769 0.55363 0.70792 0.0
C508 C 0.85468 0.56693 0.68426 0.0
C509 C 0.82971 0.58184 0.69339 0.0
H510 H 0.88705 0.54212 0.70081 0.0
H511 H 0.64026 0.68456 0.7907 0.0
H512 H 0.6239 0.91539 0.66399 0.0
H513 H 0.69033 0.92098 0.67894 0.0
H514 H 0.67035 0.89517 0.77471 0.0
H515 H 0.60432 0.88995 0.76044 0.0
H516 H 0.71205 0.92687 0.78123 0.0
H517 H 0.71343 0.86972 0.71055 0.0
H518 H 0.7011 0.85151 0.65905 0.0
H519 H 0.76943 0.89228 0.60464 0.0
H520 H 0.78178 0.91087 0.6558 0.0
H521 H 0.8955 0.89804 0.83472 0.0
H522 H 0.82927 0.90176 0.81824 0.0
H523 H 0.86478 0.92513 0.72403 0.0
H524 H 0.93092 0.92064 0.73989 0.0
H525 H 0.81554 0.89837 0.7139 0.0
H526 H 0.81982 0.95359 0.78668 0.0
H527 H 0.83262 0.97105 0.83881 0.0
H528 H 0.75421 0.93379 0.88992 0.0
H529 H 0.74129 0.91593 0.83819 0.0
C530 C 0.63369 0.91092 0.68822 0.0
C531 C 0.60871 0.90219 0.71095 0.0
C532 C 0.67166 0.9141 0.69672 0.0
C533 C 0.68539 0.90837 0.7279 0.0
C534 C 0.66042 0.89982 0.75061 0.0
C535 C 0.62258 0.89677 0.74228 0.0
C536 C 0.72586 0.91081 0.73706 0.0
C537 C 0.73472 0.92057 0.76661 0.0
C538 C 0.7555 0.903 0.7176 0.0
C539 C 0.74816 0.8918 0.6869 0.0
C540 C 0.72558 0.87488 0.68755 0.0
C541 C 0.71863 0.86448 0.65844 0.0
C542 C 0.73437 0.87077 0.62857 0.0
C543 C 0.75719 0.88745 0.62778 0.0
C544 C 0.76419 0.89791 0.65682 0.0
C545 C 0.88914 0.90433 0.81077 0.0
C546 C 0.91836 0.90896 0.78853 0.0
C547 C 0.85124 0.90652 0.80137 0.0
C548 C 0.8419 0.91386 0.7699 0.0
C549 C 0.87118 0.91935 0.74835 0.0
C550 C 0.90899 0.91683 0.75748 0.0
C551 C 0.8019 0.91428 0.75837 0.0
C552 C 0.79306 0.90499 0.72836 0.0
C553 C 0.77232 0.92249 0.77747 0.0
C554 C 0.77979 0.93334 0.80857 0.0
C555 C 0.80547 0.94904 0.80907 0.0
C556 C 0.81273 0.95902 0.83855 0.0
C557 C 0.79429 0.95351 0.86767 0.0
C558 C 0.76848 0.93804 0.86735 0.0
C559 C 0.76114 0.928 0.83795 0.0
H560 H 0.79997 0.96125 0.89047 0.0
H561 H 0.72896 0.8627 0.60606 0.0
H562 H 0.40112 0.59426 0.66752 0.0
H563 H 0.33499 0.58905 0.6835 0.0
H564 H 0.35941 0.61055 0.78145 0.0
H565 H 0.4253 0.61541 0.76609 0.0
H566 H 0.31409 0.57965 0.78497 0.0
H567 H 0.3181 0.63975 0.72222 0.0
H568 H 0.33222 0.66015 0.67346 0.0
H569 H 0.2599 0.62415 0.6137 0.0
H570 H 0.24573 0.60338 0.66206 0.0
H571 H 0.13 0.60909 0.83949 0.0
H572 H 0.19677 0.60563 0.82408 0.0
H573 H 0.16362 0.5855 0.7272 0.0
H574 H 0.09721 0.58944 0.74208 0.0
H575 H 0.21318 0.61335 0.7215 0.0
H576 H 0.20487 0.55474 0.78616 0.0
H577 H 0.19027 0.53503 0.8356 0.0
H578 H 0.2699 0.56849 0.89242 0.0
H579 H 0.28461 0.58858 0.84342 0.0
C580 C 0.39245 0.59781 0.69249 0.0
C581 C 0.41856 0.60538 0.71541 0.0
C582 C 0.35463 0.59484 0.70157 0.0
C583 C 0.34218 0.59961 0.73359 0.0
C584 C 0.36836 0.60673 0.75665 0.0
C585 C 0.40609 0.60958 0.74771 0.0
C586 C 0.30168 0.59794 0.74296 0.0
C587 C 0.29199 0.5871 0.77123 0.0
C588 C 0.27281 0.60737 0.72469 0.0
C589 C 0.2812 0.61989 0.69565 0.0
C590 C 0.30544 0.6361 0.69862 0.0
C591 C 0.31341 0.64774 0.67107 0.0
C592 C 0.29706 0.64341 0.64048 0.0
C593 C 0.2726 0.62747 0.6374 0.0
C594 C 0.26458 0.61576 0.66487 0.0
C595 C 0.137 0.60362 0.81513 0.0
C596 C 0.10838 0.59972 0.79191 0.0
C597 C 0.17516 0.60159 0.80635 0.0
C598 C 0.18524 0.59527 0.77445 0.0
C599 C 0.15658 0.59052 0.75185 0.0
C600 C 0.1186 0.59277 0.76043 0.0
C601 C 0.22541 0.59506 0.7636 0.0
C602 C 0.2351 0.60565 0.73507 0.0
C603 C 0.2542 0.58544 0.78171 0.0
C604 C 0.24561 0.57327 0.81116 0.0
C605 C 0.21908 0.55798 0.80925 0.0
C606 C 0.21081 0.54673 0.83719 0.0
C607 C 0.22908 0.55053 0.86715 0.0
C608 C 0.25574 0.56557 0.8692 0.0
C609 C 0.26409 0.57688 0.84134 0.0
H610 H 0.22262 0.54181 0.88875 0.0
H611 H 0.30326 0.65245 0.61918 0.0
H612 H 0.5946 0.11205 0.2336 0.0
H613 H 0.66037 0.10715 0.21802 0.0
H614 H 0.68773 0.09149 0.31855 0.0
H615 H 0.62162 0.0967 0.3347 0.0
H616 H 0.73685 0.11761 0.29437 0.0
H617 H 0.68554 0.05688 0.25715 0.0
H618 H 0.64089 0.0354 0.2276 0.0
H619 H 0.6728 0.06157 0.1352 0.0
H620 H 0.71728 0.08342 0.16425 0.0
H621 H 0.92365 0.09111 0.2594 0.0
H622 H 0.85713 0.08769 0.27416 0.0
H623 H 0.82465 0.10542 0.1758 0.0
H624 H 0.89166 0.10854 0.16049 0.0
H625 H 0.77845 0.07646 0.20009 0.0
H626 H 0.8261 0.13849 0.2375 0.0
H627 H 0.87044 0.16032 0.26672 0.0
H628 H 0.84456 0.13187 0.35864 0.0
H629 H 0.80043 0.10968 0.32988 0.0
C630 C 0.61438 0.10743 0.25248 0.0
C631 C 0.60268 0.10482 0.2855 0.0
C632 C 0.65205 0.1045 0.24343 0.0
C633 C 0.6789 0.09871 0.267 0.0
C634 C 0.6674 0.09589 0.29992 0.0
C635 C 0.6296 0.09885 0.30908 0.0
C636 C 0.71932 0.0968 0.25751 0.0
C637 C 0.74603 0.10831 0.27418 0.0
C638 C 0.73113 0.08509 0.23051 0.0
C639 C 0.70454 0.0719 0.21293 0.0
C640 C 0.68284 0.05816 0.23056 0.0
C641 C 0.65759 0.0459 0.21389 0.0
C642 C 0.65395 0.04715 0.17956 0.0
C643 C 0.67563 0.06063 0.1618 0.0
C644 C 0.70091 0.07294 0.17835 0.0
C645 C 0.90244 0.09411 0.24072 0.0
C646 C 0.91293 0.10041 0.20889 0.0
C647 C 0.8644 0.09215 0.24925 0.0
C648 C 0.83597 0.09674 0.22633 0.0
C649 C 0.84622 0.10193 0.19392 0.0
C650 C 0.88447 0.10372 0.18522 0.0
C651 C 0.7958 0.09727 0.23699 0.0
C652 C 0.76921 0.0856 0.22046 0.0
C653 C 0.78398 0.10886 0.26409 0.0
C654 C 0.81024 0.12231 0.28149 0.0
C655 C 0.83006 0.13681 0.26391 0.0
C656 C 0.85513 0.14925 0.28039 0.0
C657 C 0.86039 0.14745 0.3145 0.0
C658 C 0.84049 0.13323 0.33221 0.0
C659 C 0.81543 0.12073 0.31584 0.0
H660 H 0.87981 0.1571 0.32722 0.0
H661 H 0.63438 0.03764 0.1667 0.0
H662 H 0.12282 0.40792 0.16326 0.0
H663 H 0.18989 0.412 0.17696 0.0
H664 H 0.16284 0.4098 0.28089 0.0
H665 H 0.096 0.40604 0.26761 0.0
H666 H 0.21723 0.43672 0.26858 0.0
H667 H 0.19212 0.3693 0.24069 0.0
H668 H 0.1695 0.34264 0.20474 0.0
H669 H 0.24973 0.35929 0.13006 0.0
H670 H 0.2724 0.38626 0.16537 0.0
H671 H 0.39404 0.40577 0.3369 0.0
H672 H 0.32782 0.40981 0.32032 0.0
H673 H 0.36113 0.40915 0.2177 0.0
H674 H 0.42696 0.40476 0.23389 0.0
H675 H 0.30404 0.38522 0.22728 0.0
H676 H 0.33209 0.45151 0.25652 0.0
H677 H 0.35475 0.47812 0.29253 0.0
H678 H 0.26989 0.46373 0.36459 0.0
H679 H 0.24703 0.43686 0.32919 0.0
C680 C 0.13105 0.40858 0.18903 0.0
C681 C 0.10399 0.40639 0.2143 0.0
C682 C 0.16941 0.41085 0.19681 0.0
C683 C 0.18137 0.4109 0.22995 0.0
C684 C 0.15426 0.40975 0.25516 0.0
C685 C 0.116 0.40748 0.24746 0.0
C686 C 0.22219 0.41087 0.23855 0.0
C687 C 0.23622 0.42541 0.25973 0.0
C688 C 0.24703 0.39626 0.2266 0.0
C689 C 0.23365 0.37993 0.20551 0.0
C690 C 0.20474 0.36736 0.2165 0.0
C691 C 0.19194 0.35219 0.19625 0.0
C692 C 0.2081 0.34931 0.1651 0.0
C693 C 0.23719 0.36156 0.15417 0.0
C694 C 0.25002 0.37679 0.17429 0.0
C695 C 0.38731 0.40667 0.31082 0.0
C696 C 0.41585 0.40481 0.28676 0.0
C697 C 0.34944 0.40906 0.30137 0.0
C698 C 0.33953 0.40988 0.26773 0.0
C699 C 0.36808 0.40849 0.24377 0.0
C700 C 0.40577 0.40599 0.25314 0.0
C701 C 0.29929 0.41113 0.2573 0.0
C702 C 0.28526 0.3967 0.23589 0.0
C703 C 0.27454 0.42583 0.26907 0.0
C704 C 0.28808 0.44206 0.29033 0.0
C705 C 0.31844 0.45393 0.28016 0.0
C706 C 0.33129 0.46907 0.30044 0.0
C707 C 0.31384 0.47258 0.33087 0.0
C708 C 0.28341 0.46099 0.34103 0.0
C709 C 0.27047 0.44581 0.32085 0.0
H710 H 0.32383 0.48431 0.34654 0.0
H711 H 0.19816 0.33758 0.14942 0.0
H712 H 0.02013 0.08425 0.04836 0.0
H713 H 0.01583 0.05697 0.00945 0.0
H714 H 0.96237 0.02174 0.08485 0.0
H715 H 0.96971 0.04851 0.12433 0.0
H716 H 0.00895 1.00038 0.05774 0.0
H717 H 0.91518 0.043 0.01038 0.0
H718 H 0.89019 0.07385 0.98752 0.0
H719 H 0.97364 0.07229 0.91034 0.0
H720 H -0.00059 0.04156 0.93295 0.0
H721 H 0.97028 0.92259 0.94382 0.0
H722 H 0.96194 0.94969 0.98293 0.0
H723 H 0.02666 0.98736 0.91865 0.0
H724 H 0.03394 0.96073 0.87933 0.0
H725 H 0.96849 0.0066 0.94087 0.0
H726 H 0.06393 0.96486 0.99151 0.0
H727 H 0.08781 0.93384 0.01465 0.0
H728 H 0.99783 0.93362 0.08608 0.0
H729 H 0.9732 0.96453 0.06312 0.0
C730 C 0.00698 0.07075 0.05635 0.0
C731 C 0.99507 0.06847 0.08922 0.0
C732 C 0.00427 0.05514 0.03404 0.0
C733 C 0.9881 0.03719 0.04378 0.0
C734 C 0.97507 0.03527 0.0765 0.0
C735 C 0.97902 0.05063 0.09906 0.0
C736 C 0.98684 0.02006 0.02074 0.0
C737 C -0.00067 1.00177 0.03237 0.0
C738 C 0.97509 0.02166 0.9873 0.0
C739 C 0.95937 0.04005 0.97351 0.0
C740 C 0.92831 0.04929 0.98863 0.0
C741 C 0.914 0.06675 0.9757 0.0
C742 C 0.93037 0.07504 0.94753 0.0
C743 C 0.961 0.06586 0.93216 0.0
C744 C 0.97543 0.04841 0.94499 0.0
C745 C 0.98262 0.93668 0.93807 0.0
C746 C 0.00282 0.93947 0.90848 0.0
C747 C 0.97799 0.95215 0.9605 0.0
C748 C 0.99405 0.97061 0.95401 0.0
C749 C 0.01388 0.97336 0.9243 0.0
C750 C 0.01813 0.95804 0.90183 0.0
C751 C 0.99078 0.98714 0.97792 0.0
C752 C 0.97755 0.00528 0.96641 0.0
C753 C 0.00152 0.98538 0.01152 0.0
C754 C 0.01653 0.96688 0.0254 0.0
C755 C 0.04912 0.95812 0.01202 0.0
C756 C 0.06281 0.94058 0.02512 0.0
C757 C 0.04429 0.93174 0.05176 0.0
C758 C 0.01211 0.94046 0.06542 0.0
C759 C -0.0017 0.958 0.0524 0.0
H760 H 0.05491 0.91815 0.06185 0.0
H761 H 0.91927 0.08857 0.93759 0.0
H762 H 0.01593 0.58546 0.95431 0.0
H763 H 0.02107 0.55839 0.99375 0.0
H764 H 0.04543 0.5188 0.91342 0.0
H765 H 0.03808 0.54557 0.87404 0.0
H766 H -0.00208 0.50226 0.94971 0.0
H767 H 0.11407 0.53542 0.97474 0.0
H768 H 0.15457 0.56337 0.98992 0.0
H769 H 0.0945 0.56954 0.08163 0.0
H770 H 0.05332 0.54178 0.06682 0.0
H771 H 0.04217 0.42155 0.05472 0.0
H772 H 0.04974 0.44853 0.01524 0.0
H773 H 0.01019 0.48923 0.08893 0.0
H774 H 0.0031 0.46253 0.12843 0.0
H775 H 0.06895 0.50438 0.05539 0.0
H776 H 0.9513 0.47183 0.02772 0.0
H777 H 0.91204 0.4435 0.01201 0.0
H778 H 0.97822 0.43577 0.9239 0.0
H779 H 0.01817 0.46392 0.93932 0.0
C780 C 0.02287 0.57102 0.94521 0.0
C781 C 0.02657 0.56762 0.91112 0.0
C782 C 0.02601 0.55552 0.96779 0.0
C783 C 0.03407 0.53642 0.95679 0.0
C784 C 0.03899 0.53327 0.92272 0.0
C785 C 0.03495 0.54862 0.90018 0.0
C786 C 0.0352 0.51951 0.98027 0.0
C787 C 0.01412 0.50268 0.97249 0.0
C788 C 0.05556 0.51998 0.01049 0.0
C789 C 0.08041 0.53662 0.01953 0.0
C790 C 0.10934 0.54282 0.99805 0.0
C791 C 0.13244 0.55862 0.0066 0.0
C792 C 0.12706 0.56825 0.03668 0.0
C793 C 0.09862 0.56208 0.05832 0.0
C794 C 0.07542 0.5463 0.04988 0.0
C795 C 0.03536 0.43627 0.06255 0.0
C796 C 0.02182 0.43985 0.09468 0.0
C797 C 0.03956 0.45168 0.03993 0.0
C798 C 0.03011 0.47093 0.04895 0.0
C799 C 0.01767 0.47455 0.08132 0.0
C800 C 0.01348 0.45921 0.10387 0.0
C801 C 0.03186 0.4873 0.02461 0.0
C802 C 0.05324 0.504 0.03235 0.0
C803 C 0.01211 0.48667 0.99418 0.0
C804 C 0.98794 0.46984 0.98484 0.0
C805 C 0.95763 0.464 0.00511 0.0
C806 C 0.93523 0.44799 0.99624 0.0
C807 C 0.94269 0.43781 0.96702 0.0
C808 C 0.97251 0.44365 0.94656 0.0
C809 C 0.99501 0.45963 0.95533 0.0
H810 H 0.92533 0.42542 0.9602 0.0
H811 H 0.14496 0.58048 0.04326 0.0
H812 H 0.49389 0.42254 0.45262 0.0
H813 H 0.48782 0.44955 0.49199 0.0
H814 H 0.48099 0.49044 0.41088 0.0
H815 H 0.48883 0.46363 0.37171 0.0
H816 H 0.52721 0.5041 0.45275 0.0
H817 H 0.40237 0.47725 0.46311 0.0
H818 H 0.35463 0.45156 0.47259 0.0
H819 H 0.39852 0.44191 0.57026 0.0
H820 H 0.44686 0.46739 0.56121 0.0
H821 H 0.4823 0.58652 0.55245 0.0
H822 H 0.47466 0.5598 0.5126 0.0
H823 H 0.4982 0.51783 0.58949 0.0
H824 H 0.50566 0.54435 0.62934 0.0
H825 H 0.4406 0.50549 0.54924 0.0
H826 H 0.56703 0.53149 0.53681 0.0
H827 H 0.61414 0.55746 0.52695 0.0
H828 H 0.56505 0.56903 0.43178 0.0
H829 H 0.51731 0.54329 0.44129 0.0
C830 C 0.49058 0.43727 0.44325 0.0
C831 C 0.49192 0.44097 0.4091 0.0
C832 C 0.48693 0.45274 0.46578 0.0
C833 C 0.48359 0.47215 0.45455 0.0
C834 C 0.4837 0.47568 0.42032 0.0
C835 C 0.48805 0.46031 0.3979 0.0
C836 C 0.48231 0.48891 0.4782 0.0
C837 C 0.50769 0.50449 0.47345 0.0
C838 C 0.45758 0.48939 0.50582 0.0
C839 C 0.42845 0.47411 0.51136 0.0
C840 C 0.40201 0.46956 0.48652 0.0
C841 C 0.37481 0.45505 0.49183 0.0
C842 C 0.3736 0.44508 0.52197 0.0
C843 C 0.39952 0.44963 0.54691 0.0
C844 C 0.4268 0.46412 0.54172 0.0
C845 C 0.48542 0.57159 0.56092 0.0
C846 C 0.49482 0.56758 0.59402 0.0
C847 C 0.48119 0.55633 0.53811 0.0
C848 C 0.48627 0.53679 0.54797 0.0
C849 C 0.49416 0.53276 0.58128 0.0
C850 C 0.49856 0.54797 0.60401 0.0
C851 C 0.48522 0.52057 0.52346 0.0
C852 C 0.45968 0.50509 0.52822 0.0
C853 C 0.50958 0.52021 0.49569 0.0
C854 C 0.53836 0.53562 0.48991 0.0
C855 C 0.56611 0.53968 0.51389 0.0
C856 C 0.59295 0.55433 0.50835 0.0
C857 C 0.59252 0.56492 0.4788 0.0
C858 C 0.56531 0.56084 0.45469 0.0
C859 C 0.53837 0.54621 0.46013 0.0
H860 H 0.61333 0.57626 0.47455 0.0
H861 H 0.35253 0.43385 0.52603 0.0
H862 H 0.54077 0.96206 0.62921 0.0
H863 H 0.5481 0.98913 0.59034 0.0
H864 H 0.52437 0.95011 0.50911 0.0
H865 H 0.51931 0.92273 0.54799 0.0
H866 H 0.574 0.97466 0.48947 0.0
H867 H 0.4553 0.98239 0.54645 0.0
H868 H 0.41355 0.9855 0.59508 0.0
H869 H 0.47325 0.03714 0.62533 0.0
H870 H 0.51565 0.0342 0.57708 0.0
H871 H 0.50741 0.04458 0.37346 0.0
H872 H 0.51503 0.01806 0.4132 0.0
H873 H 0.55194 0.05931 0.48705 0.0
H874 H 0.54383 0.08611 0.44731 0.0
H875 H 0.49928 0.03466 0.51142 0.0
H876 H 0.61475 0.02754 0.4498 0.0
H877 H 0.6532 0.02414 0.39923 0.0
H878 H 0.59536 0.97079 0.37537 0.0
H879 H 0.5562 0.97401 0.42558 0.0
C880 C 0.53757 0.95922 0.60301 0.0
C881 C 0.5292 0.94031 0.59163 0.0
C882 C 0.54145 0.97476 0.58077 0.0
C883 C 0.53565 0.9719 0.54671 0.0
C884 C 0.52876 0.95281 0.53522 0.0
C885 C 0.52584 0.93715 0.55745 0.0
C886 C 0.53565 0.98882 0.52328 0.0
C887 C 0.55731 0.98767 0.49418 0.0
C888 C 0.51453 0.00609 0.52948 0.0
C889 C 0.48886 0.00796 0.55834 0.0
C890 C 0.45965 0.99434 0.56358 0.0
C891 C 0.43586 0.99608 0.59106 0.0
C892 C 0.44081 0.01148 0.61332 0.0
C893 C 0.46949 0.02521 0.60809 0.0
C894 C 0.49338 0.02352 0.58067 0.0
C895 C 0.51751 0.04805 0.39805 0.0
C896 C 0.52506 0.0675 0.40717 0.0
C897 C 0.52202 0.03281 0.42075 0.0
C898 C 0.53448 0.0366 0.45308 0.0
C899 C 0.54241 0.056 0.46222 0.0
C900 C 0.53789 0.0713 0.43945 0.0
C901 C 0.5374 0.0204 0.47765 0.0
C902 C 0.51619 0.02169 0.5069 0.0
C903 C 0.55849 1.00319 0.47134 0.0
C904 C 0.58236 1.0011 0.44135 0.0
C905 C 0.61008 0.01515 0.43367 0.0
C906 C 0.63202 0.01324 0.40508 0.0
C907 C 0.62668 0.99728 0.38407 0.0
C908 C 0.59946 0.98315 0.39166 0.0
C909 C 0.57742 0.985 0.42021 0.0
H910 H 0.64368 0.99583 0.36194 0.0
H911 H 0.42238 0.01279 0.63459 0.0
loop_
_geom_bond_atom_site_label_1
_geom_bond_atom_site_label_2
_geom_bond_distance
_geom_bond_site_symmetry_2
_ccdc_geom_bond_type
Co0 O1 2.216 . S
Co0 O2 2.091 . S
Co0 O4 2.004 . S
Co0 O10 2.021 1_455 S
Co0 O12 2.137 . S
Co0 O13 2.244 . S
O1 Co0 2.216 . S
O1 C8 1.247 . S
O2 Co0 2.091 . S
O2 C8 1.261 . S
C3 O12 1.247 . S
C3 O13 1.272 . S
O4 Co0 2.004 . S
O4 C9 1.259 . S
Co5 O6 2.061 . S
Co5 O11 2.052 1_455 S
Co5 O13 2.135 . S
O6 Co5 2.061 . S
O6 C9 1.235 . S
C7 O10 1.238 . S
C7 O11 1.241 . S
C8 O1 1.247 . S
C8 O2 1.261 . S
C9 O4 1.259 . S
C9 O6 1.235 . S
O10 Co0 2.021 1_655 S
O10 C7 1.238 . S
O11 Co5 2.052 1_655 S
O11 C7 1.241 . S
O12 Co0 2.137 . S
O12 C3 1.247 . S
O13 Co0 2.244 . S
O13 C3 1.272 . S
O13 Co5 2.135 . S
Co14 O15 2.216 . S
Co14 O16 2.091 . S
Co14 O18 2.004 . S
Co14 O24 2.021 . S
Co14 O26 2.137 1_455 S
Co14 O27 2.244 1_455 S
O15 Co14 2.216 . S
O15 C22 1.247 . S
O16 Co14 2.091 . S
O16 C22 1.261 . S
C17 O26 1.247 . S
C17 O27 1.272 . S
O18 Co14 2.004 . S
O18 C23 1.259 . S
Co19 O20 2.061 . S
Co19 O25 2.052 . S
Co19 O27 2.135 1_455 S
O20 Co19 2.061 . S
O20 C23 1.235 . S
C21 O24 1.238 . S
C21 O25 1.241 . S
C22 O15 1.247 . S
C22 O16 1.261 . S
C23 O18 1.259 . S
C23 O20 1.235 . S
O24 Co14 2.021 . S
O24 C21 1.238 . S
O25 Co19 2.052 . S
O25 C21 1.241 . S
O26 Co14 2.137 1_655 S
O26 C17 1.247 . S
O27 Co14 2.244 1_655 S
O27 C17 1.272 . S
O27 Co19 2.135 1_655 S
Co28 O29 2.216 . S
Co28 O30 2.091 . S
Co28 O32 2.004 . S
Co28 O38 2.021 1_455 S
Co28 O40 2.137 . S
Co28 O41 2.244 . S
O29 Co28 2.216 . S
O29 C36 1.247 . S
O30 Co28 2.091 . S
O30 C36 1.261 . S
C31 O40 1.247 . S
C31 O41 1.272 . S
O32 Co28 2.004 . S
O32 C37 1.259 . S
Co33 O34 2.061 . S
Co33 O39 2.052 1_455 S
Co33 O41 2.135 . S
O34 Co33 2.061 . S
O34 C37 1.235 . S
C35 O38 1.238 . S
C35 O39 1.241 . S
C36 O29 1.247 . S
C36 O30 1.261 . S
C37 O32 1.259 . S
C37 O34 1.235 . S
O38 Co28 2.021 1_655 S
O38 C35 1.238 . S
O39 Co33 2.052 1_655 S
O39 C35 1.241 . S
O40 Co28 2.137 . S
O40 C31 1.247 . S
O41 Co28 2.244 . S
O41 C31 1.272 . S
O41 Co33 2.135 . S
Co42 O43 2.216 . S
Co42 O44 2.091 . S
Co42 O46 2.004 . S
Co42 O52 2.021 . S
Co42 O54 2.137 1_455 S
Co42 O55 2.244 1_455 S
O43 Co42 2.216 . S
O43 C50 1.247 . S
O44 Co42 2.091 . S
O44 C50 1.261 . S
C45 O54 1.247 . S
C45 O55 1.272 . S
O46 Co42 2.004 . S
O46 C51 1.259 . S
Co47 O48 2.061 . S
Co47 O53 2.052 . S
Co47 O55 2.135 1_455 S
O48 Co47 2.061 . S
O48 C51 1.235 . S
C49 O52 1.238 . S
C49 O53 1.241 . S
C50 O43 1.247 . S
C50 O44 1.261 . S
C51 O46 1.259 . S
C51 O48 1.235 . S
O52 Co42 2.021 . S
O52 C49 1.238 . S
O53 Co47 2.052 . S
O53 C49 1.241 . S
O54 Co42 2.137 1_655 S
O54 C45 1.247 . S
O55 Co42 2.244 1_655 S
O55 C45 1.272 . S
O55 Co47 2.135 1_655 S
Co56 O57 2.216 . S
Co56 O58 2.091 . S
Co56 O60 2.004 . S
Co56 O66 2.021 . S
Co56 O68 2.137 . S
Co56 O69 2.244 . S
O57 Co56 2.216 . S
O57 C64 1.247 . S
O58 Co56 2.091 . S
O58 C64 1.261 . S
C59 O68 1.247 . S
C59 O69 1.272 . S
O60 Co56 2.004 . S
O60 C65 1.259 . S
Co61 O62 2.061 . S
Co61 O67 2.052 . S
Co61 O69 2.135 . S
O62 Co61 2.061 . S
O62 C65 1.235 . S
C63 O66 1.238 . S
C63 O67 1.241 . S
C64 O57 1.247 . S
C64 O58 1.261 . S
C65 O60 1.259 . S
C65 O62 1.235 . S
O66 Co56 2.021 . S
O66 C63 1.238 . S
O67 Co61 2.052 . S
O67 C63 1.241 . S
O68 Co56 2.137 . S
O68 C59 1.247 . S
O69 Co56 2.244 . S
O69 C59 1.272 . S
O69 Co61 2.135 . S
Co70 O71 2.216 . S
Co70 O72 2.091 . S
Co70 O74 2.004 . S
Co70 O80 2.021 . S
Co70 O82 2.137 . S
Co70 O83 2.244 . S
O71 Co70 2.216 . S
O71 C78 1.247 . S
O72 Co70 2.091 . S
O72 C78 1.261 . S
C73 O82 1.247 . S
C73 O83 1.272 . S
O74 Co70 2.004 . S
O74 C79 1.259 . S
Co75 O76 2.061 . S
Co75 O81 2.052 . S
Co75 O83 2.135 . S
O76 Co75 2.061 . S
O76 C79 1.235 . S
C77 O80 1.238 . S
C77 O81 1.241 . S
C78 O71 1.247 . S
C78 O72 1.261 . S
C79 O74 1.259 . S
C79 O76 1.235 . S
O80 Co70 2.021 . S
O80 C77 1.238 . S
O81 Co75 2.052 . S
O81 C77 1.241 . S
O82 Co70 2.137 . S
O82 C73 1.247 . S
O83 Co70 2.244 . S
O83 C73 1.272 . S
O83 Co75 2.135 . S
Co84 O85 2.216 . S
Co84 O86 2.091 . S
Co84 O88 2.004 . S
Co84 O94 2.021 . S
Co84 O96 2.137 . S
Co84 O97 2.244 . S
O85 Co84 2.216 . S
O85 C92 1.247 . S
O86 Co84 2.091 . S
O86 C92 1.261 . S
C87 O96 1.247 . S
C87 O97 1.272 . S
O88 Co84 2.004 . S
O88 C93 1.259 . S
Co89 O90 2.061 . S
Co89 O95 2.052 . S
Co89 O97 2.135 . S
O90 Co89 2.061 . S
O90 C93 1.235 . S
C91 O94 1.238 . S
C91 O95 1.241 . S
C92 O85 1.247 . S
C92 O86 1.261 . S
C93 O88 1.259 . S
C93 O90 1.235 . S
O94 Co84 2.021 . S
O94 C91 1.238 . S
O95 Co89 2.052 . S
O95 C91 1.241 . S
O96 Co84 2.137 . S
O96 C87 1.247 . S
O97 Co84 2.244 . S
O97 C87 1.272 . S
O97 Co89 2.135 . S
Co98 O99 2.216 . S
Co98 O100 2.091 . S
Co98 O102 2.004 . S
Co98 O108 2.021 . S
Co98 O110 2.137 . S
Co98 O111 2.244 . S
O99 Co98 2.216 . S
O99 C106 1.247 . S
O100 Co98 2.091 . S
O100 C106 1.261 . S
C101 O110 1.247 . S
C101 O111 1.272 . S
O102 Co98 2.004 . S
O102 C107 1.259 . S
Co103 O104 2.061 . S
Co103 O109 2.052 . S
Co103 O111 2.135 . S
O104 Co103 2.061 . S
O104 C107 1.235 . S
C105 O108 1.238 . S
C105 O109 1.241 . S
C106 O99 1.247 . S
C106 O100 1.261 . S
C107 O102 1.259 . S
C107 O104 1.235 . S
O108 Co98 2.021 . S
O108 C105 1.238 . S
O109 Co103 2.052 . S
O109 C105 1.241 . S
O110 Co98 2.137 . S
O110 C101 1.247 . S
O111 Co98 2.244 . S
O111 C101 1.272 . S
O111 Co103 2.135 . S
H112 C130 0.951 . S
H113 C132 0.951 . S
H114 C134 0.950 1_655 S
H115 C135 0.950 1_655 S
H116 C137 0.950 . S
H117 C140 0.950 . S
H118 C141 0.950 . S
H119 C143 0.950 . S
H120 C144 0.950 . S
H121 C145 0.951 1_655 S
H122 C147 0.951 1_655 S
H123 C149 0.950 . S
H124 C150 0.950 . S
H125 C152 0.950 . S
H126 C155 0.950 . S
H127 C156 0.950 . S
H128 C158 0.950 . S
H129 C159 0.950 . S
C130 H112 0.951 . S
C130 C131 1.366 . S
C130 C132 1.388 . S
C131 C130 1.366 . S
C131 C135 1.385 . S
C132 H113 0.951 . S
C132 C130 1.388 . S
C132 C133 1.366 . S
C133 C132 1.366 . S
C133 C134 1.414 . S
C133 C136 1.499 . S
C134 H114 0.950 1_455 S
C134 C133 1.414 . S
C134 C135 1.374 . S
C135 H115 0.950 1_455 S
C135 C131 1.385 . S
C135 C134 1.374 . S
C136 C133 1.499 . S
C136 C137 1.373 1_455 S
C136 C138 1.389 . S
C137 H116 0.950 . S
C137 C136 1.373 1_655 S
C137 C153 1.377 . S
C138 C136 1.389 . S
C138 C139 1.524 . S
C138 C152 1.377 . S
C139 C138 1.524 . S
C139 C140 1.397 . S
C139 C144 1.363 . S
C140 H117 0.950 . S
C140 C139 1.397 . S
C140 C141 1.334 . S
C141 H118 0.950 . S
C141 C140 1.334 . S
C141 C142 1.287 . S
C142 C141 1.287 . S
C142 C143 1.524 . S
C142 H161 0.913 . S
C143 H119 0.950 . S
C143 C142 1.524 . S
C143 C144 1.415 . S
C144 H120 0.950 . S
C144 C139 1.363 . S
C144 C143 1.415 . S
C145 H121 0.951 1_455 S
C145 C146 1.366 . S
C145 C147 1.388 . S
C146 C145 1.366 . S
C146 C150 1.385 . S
C147 H122 0.951 1_455 S
C147 C145 1.388 . S
C147 C148 1.366 . S
C148 C147 1.366 . S
C148 C149 1.414 . S
C148 C151 1.499 . S
C149 H123 0.950 . S
C149 C148 1.414 . S
C149 C150 1.374 . S
C150 H124 0.950 . S
C150 C146 1.385 . S
C150 C149 1.374 . S
C151 C148 1.499 . S
C151 C152 1.373 . S
C151 C153 1.389 1_455 S
C152 H125 0.950 . S
C152 C138 1.377 . S
C152 C151 1.373 . S
C153 C137 1.377 . S
C153 C151 1.389 1_655 S
C153 C154 1.524 . S
C154 C153 1.524 . S
C154 C155 1.397 . S
C154 C159 1.363 . S
C155 H126 0.950 . S
C155 C154 1.397 . S
C155 C156 1.334 . S
C156 H127 0.950 . S
C156 C155 1.334 . S
C156 C157 1.287 . S
C157 C156 1.287 . S
C157 C158 1.524 . S
C157 H160 0.999 . S
C158 H128 0.950 . S
C158 C157 1.524 . S
C158 C159 1.415 . S
C159 H129 0.950 . S
C159 C154 1.363 . S
C159 C158 1.415 . S
H160 C157 0.999 . S
H161 C142 0.913 . S
H162 C180 0.951 . S
H163 C182 0.951 . S
H164 C184 0.950 1_655 S
H165 C185 0.950 1_655 S
H166 C187 0.950 . S
H167 C190 0.950 . S
H168 C191 0.950 . S
H169 C193 0.950 . S
H170 C194 0.950 . S
H171 C195 0.951 1_655 S
H172 C197 0.946 1_655 S
H173 C199 0.950 . S
H174 C200 0.950 . S
H175 C202 0.950 . S
H176 C205 0.950 . S
H177 C206 0.950 . S
H178 C208 0.950 . S
H179 C209 0.950 . S
C180 H162 0.951 . S
C180 C181 1.366 . S
C180 C182 1.388 . S
C181 C180 1.366 . S
C181 C185 1.385 . S
C182 H163 0.951 . S
C182 C180 1.388 . S
C182 C183 1.366 . S
C183 C182 1.366 . S
C183 C184 1.414 . S
C183 C186 1.499 . S
C184 H164 0.950 1_455 S
C184 C183 1.414 . S
C184 C185 1.374 . S
C185 H165 0.950 1_455 S
C185 C181 1.385 . S
C185 C184 1.374 . S
C186 C183 1.499 . S
C186 C187 1.373 1_455 S
C186 C188 1.389 . S
C187 H166 0.950 . S
C187 C186 1.373 1_655 S
C187 C203 1.377 . S
C188 C186 1.389 . S
C188 C189 1.524 . S
C188 C202 1.377 . S
C189 C188 1.524 . S
C189 C190 1.397 . S
C189 C194 1.363 . S
C190 H167 0.950 . S
C190 C189 1.397 . S
C190 C191 1.334 . S
C191 H168 0.950 . S
C191 C190 1.334 . S
C191 C192 1.287 . S
C192 C191 1.287 . S
C192 C193 1.524 . S
C192 H211 0.913 . S
C193 H169 0.950 . S
C193 C192 1.524 . S
C193 C194 1.415 . S
C194 H170 0.950 . S
C194 C189 1.363 . S
C194 C193 1.415 . S
C195 H171 0.951 1_455 S
C195 C196 1.366 . S
C195 C197 1.388 . S
C196 C195 1.366 . S
C196 C200 1.385 . S
C197 H172 0.946 1_455 S
C197 C195 1.388 . S
C197 C198 1.370 . S
C198 C197 1.370 . S
C198 C199 1.414 . S
C198 C201 1.499 . S
C199 H173 0.950 . S
C199 C198 1.414 . S
C199 C200 1.374 . S
C200 H174 0.950 . S
C200 C196 1.385 . S
C200 C199 1.374 . S
C201 C198 1.499 . S
C201 C202 1.373 . S
C201 C203 1.389 1_455 S
C202 H175 0.950 . S
C202 C188 1.377 . S
C202 C201 1.373 . S
C203 C187 1.377 . S
C203 C201 1.389 1_655 S
C203 C204 1.524 . S
C204 C203 1.524 . S
C204 C205 1.397 . S
C204 C209 1.363 . S
C205 H176 0.950 . S
C205 C204 1.397 . S
C205 C206 1.334 . S
C206 H177 0.950 . S
C206 C205 1.334 . S
C206 C207 1.287 . S
C207 C206 1.287 . S
C207 C208 1.524 . S
C207 H210 0.999 . S
C208 H178 0.950 . S
C208 C207 1.524 . S
C208 C209 1.415 . S
C209 H179 0.950 . S
C209 C204 1.363 . S
C209 C208 1.415 . S
H210 C207 0.999 . S
H211 C192 0.913 . S
H212 C230 0.951 . S
H213 C232 0.951 . S
H214 C234 0.950 . S
H215 C235 0.950 . S
H216 C237 0.950 . S
H217 C240 0.950 . S
H218 C241 0.950 . S
H219 C243 0.950 . S
H220 C244 0.950 . S
H221 C245 0.951 . S
H222 C247 0.951 . S
H223 C249 0.950 . S
H224 C250 0.950 . S
H225 C252 0.950 . S
H226 C255 0.950 . S
H227 C256 0.950 . S
H228 C258 0.950 . S
H229 C259 0.950 . S
C230 H212 0.951 . S
C230 C231 1.366 . S
C230 C232 1.388 . S
C231 C230 1.366 . S
C231 C235 1.385 . S
C232 H213 0.951 . S
C232 C230 1.388 . S
C232 C233 1.366 . S
C233 C232 1.366 . S
C233 C234 1.414 . S
C233 C236 1.499 . S
C234 H214 0.950 . S
C234 C233 1.414 . S
C234 C235 1.374 . S
C235 H215 0.950 . S
C235 C231 1.385 . S
C235 C234 1.374 . S
C236 C233 1.499 . S
C236 C237 1.373 . S
C236 C238 1.389 . S
C237 H216 0.950 . S
C237 C236 1.373 . S
C237 C253 1.377 . S
C238 C236 1.389 . S
C238 C239 1.524 . S
C238 C252 1.377 . S
C239 C238 1.524 . S
C239 C240 1.397 . S
C239 C244 1.363 . S
C240 H217 0.950 . S
C240 C239 1.397 . S
C240 C241 1.334 . S
C241 H218 0.950 . S
C241 C240 1.334 . S
C241 C242 1.287 . S
C242 C241 1.287 . S
C242 C243 1.524 . S
C242 H261 0.913 . S
C243 H219 0.950 . S
C243 C242 1.524 . S
C243 C244 1.415 . S
C244 H220 0.950 . S
C244 C239 1.363 . S
C244 C243 1.415 . S
C245 H221 0.951 . S
C245 C246 1.366 . S
C245 C247 1.388 . S
C246 C245 1.366 . S
C246 C250 1.385 . S
C247 H222 0.951 . S
C247 C245 1.388 . S
C247 C248 1.366 . S
C248 C247 1.366 . S
C248 C249 1.414 . S
C248 C251 1.499 . S
C249 H223 0.950 . S
C249 C248 1.414 . S
C249 C250 1.374 . S
C250 H224 0.950 . S
C250 C246 1.385 . S
C250 C249 1.374 . S
C251 C248 1.499 . S
C251 C252 1.373 . S
C251 C253 1.389 . S
C252 H225 0.950 . S
C252 C238 1.377 . S
C252 C251 1.373 . S
C253 C237 1.377 . S
C253 C251 1.389 . S
C253 C254 1.524 . S
C254 C253 1.524 . S
C254 C255 1.397 . S
C254 C259 1.363 . S
C255 H226 0.950 . S
C255 C254 1.397 . S
C255 C256 1.334 . S
C256 H227 0.950 . S
C256 C255 1.334 . S
C256 C257 1.287 . S
C257 C256 1.287 . S
C257 C258 1.524 . S
C257 H260 0.999 . S
C258 H228 0.950 . S
C258 C257 1.524 . S
C258 C259 1.415 . S
C259 H229 0.950 . S
C259 C254 1.363 . S
C259 C258 1.415 . S
H260 C257 0.999 . S
H261 C242 0.913 . S
H262 C280 0.951 . S
H263 C282 0.951 . S
H264 C284 0.950 . S
H265 C285 0.950 . S
H266 C287 0.950 . S
H267 C290 0.950 . S
H268 C291 0.950 . S
H269 C293 0.950 . S
H270 C294 0.950 . S
H271 C295 0.951 . S
H272 C297 0.951 . S
H273 C299 0.950 . S
H274 C300 0.950 . S
H275 C302 0.950 . S
H276 C305 0.950 . S
H277 C306 0.950 . S
H278 C308 0.950 . S
H279 C309 0.950 . S
C280 H262 0.951 . S
C280 C281 1.366 . S
C280 C282 1.388 . S
C281 C280 1.366 . S
C281 C285 1.385 . S
C282 H263 0.951 . S
C282 C280 1.388 . S
C282 C283 1.366 . S
C283 C282 1.366 . S
C283 C284 1.414 . S
C283 C286 1.499 . S
C284 H264 0.950 . S
C284 C283 1.414 . S
C284 C285 1.374 . S
C285 H265 0.950 . S
C285 C281 1.385 . S
C285 C284 1.374 . S
C286 C283 1.499 . S
C286 C287 1.373 . S
C286 C288 1.389 . S
C287 H266 0.950 . S
C287 C286 1.373 . S
C287 C303 1.377 . S
C288 C286 1.389 . S
C288 C289 1.524 . S
C288 C302 1.377 . S
C289 C288 1.524 . S
C289 C290 1.397 . S
C289 C294 1.363 . S
C290 H267 0.950 . S
C290 C289 1.397 . S
C290 C291 1.334 . S
C291 H268 0.950 . S
C291 C290 1.334 . S
C291 C292 1.287 . S
C292 C291 1.287 . S
C292 C293 1.524 . S
C292 H311 0.913 . S
C293 H269 0.950 . S
C293 C292 1.524 . S
C293 C294 1.415 . S
C294 H270 0.950 . S
C294 C289 1.363 . S
C294 C293 1.415 . S
C295 H271 0.951 . S
C295 C296 1.366 . S
C295 C297 1.388 . S
C296 C295 1.366 . S
C296 C300 1.385 . S
C297 H272 0.951 . S
C297 C295 1.388 . S
C297 C298 1.366 . S
C298 C297 1.366 . S
C298 C299 1.414 . S
C298 C301 1.499 . S
C299 H273 0.950 . S
C299 C298 1.414 . S
C299 C300 1.374 . S
C300 H274 0.950 . S
C300 C296 1.385 . S
C300 C299 1.374 . S
C301 C298 1.499 . S
C301 C302 1.373 . S
C301 C303 1.389 . S
C302 H275 0.950 . S
C302 C288 1.377 . S
C302 C301 1.373 . S
C303 C287 1.377 . S
C303 C301 1.389 . S
C303 C304 1.524 . S
C304 C303 1.524 . S
C304 C305 1.397 . S
C304 C309 1.363 . S
C305 H276 0.950 . S
C305 C304 1.397 . S
C305 C306 1.334 . S
C306 H277 0.950 . S
C306 C305 1.334 . S
C306 C307 1.287 . S
C307 C306 1.287 . S
C307 C308 1.524 . S
C307 H310 0.999 . S
C308 H278 0.950 . S
C308 C307 1.524 . S
C308 C309 1.415 . S
C309 H279 0.950 . S
C309 C304 1.363 . S
C309 C308 1.415 . S
H310 C307 0.999 . S
H311 C292 0.913 . S
H312 C330 0.951 . S
H313 C332 0.951 . S
H314 C334 0.950 . S
H315 C335 0.950 . S
H316 C337 0.950 . S
H317 C340 0.950 . S
H318 C341 0.950 . S
H319 C343 0.950 . S
H320 C344 0.950 . S
H321 C345 0.951 . S
H322 C347 0.951 . S
H323 C349 0.950 . S
H324 C350 0.950 . S
H325 C352 0.950 . S
H326 C355 0.950 . S
H327 C356 0.950 . S
H328 C358 0.950 . S
H329 C359 0.950 . S
C330 H312 0.951 . S
C330 C331 1.366 . S
C330 C332 1.388 . S
C331 C330 1.366 . S
C331 C335 1.385 . S
C332 H313 0.951 . S
C332 C330 1.388 . S
C332 C333 1.366 . S
C333 C332 1.366 . S
C333 C334 1.414 . S
C333 C336 1.499 . S
C334 H314 0.950 . S
C334 C333 1.414 . S
C334 C335 1.374 . S
C335 H315 0.950 . S
C335 C331 1.385 . S
C335 C334 1.374 . S
C336 C333 1.499 . S
C336 C337 1.373 . S
C336 C338 1.389 . S
C337 H316 0.950 . S
C337 C336 1.373 . S
C337 C353 1.377 . S
C338 C336 1.389 . S
C338 C339 1.524 . S
C338 C352 1.377 . S
C339 C338 1.524 . S
C339 C340 1.397 . S
C339 C344 1.363 . S
C340 H317 0.950 . S
C340 C339 1.397 . S
C340 C341 1.334 . S
C341 H318 0.950 . S
C341 C340 1.334 . S
C341 C342 1.287 . S
C342 C341 1.287 . S
C342 C343 1.524 . S
C342 H361 0.913 . S
C343 H319 0.950 . S
C343 C342 1.524 . S
C343 C344 1.415 . S
C344 H320 0.950 . S
C344 C339 1.363 . S
C344 C343 1.415 . S
C345 H321 0.951 . S
C345 C346 1.366 . S
C345 C347 1.388 . S
C346 C345 1.366 . S
C346 C350 1.385 . S
C347 H322 0.951 . S
C347 C345 1.388 . S
C347 C348 1.366 . S
C348 C347 1.366 . S
C348 C349 1.414 . S
C348 C351 1.499 . S
C349 H323 0.950 . S
C349 C348 1.414 . S
C349 C350 1.374 . S
C350 H324 0.950 . S
C350 C346 1.385 . S
C350 C349 1.374 . S
C351 C348 1.499 . S
C351 C352 1.373 . S
C351 C353 1.389 . S
C352 H325 0.950 . S
C352 C338 1.377 . S
C352 C351 1.373 . S
C353 C337 1.377 . S
C353 C351 1.389 . S
C353 C354 1.524 . S
C354 C353 1.524 . S
C354 C355 1.397 . S
C354 C359 1.363 . S
C355 H326 0.950 . S
C355 C354 1.397 . S
C355 C356 1.334 . S
C356 H327 0.950 . S
C356 C355 1.334 . S
C356 C357 1.287 . S
C357 C356 1.287 . S
C357 C358 1.524 . S
C357 H360 0.999 . S
C358 H328 0.950 . S
C358 C357 1.524 . S
C358 C359 1.415 . S
C359 H329 0.950 . S
C359 C354 1.363 . S
C359 C358 1.415 . S
H360 C357 0.999 . S
H361 C342 0.913 . S
H362 C380 0.951 . S
H363 C382 0.951 . S
H364 C384 0.950 . S
H365 C385 0.950 . S
H366 C387 0.950 . S
H367 C390 0.950 . S
H368 C391 0.950 . S
H369 C393 0.950 . S
H370 C394 0.950 . S
H371 C395 0.951 . S
H372 C397 0.951 . S
H373 C399 0.950 . S
H374 C400 0.950 . S
H375 C402 0.950 . S
H376 C405 0.950 . S
H377 C406 0.950 . S
H378 C408 0.950 . S
H379 C409 0.950 . S
C380 H362 0.951 . S
C380 C381 1.366 . S
C380 C382 1.388 . S
C381 C380 1.366 . S
C381 C385 1.385 . S
C382 H363 0.951 . S
C382 C380 1.388 . S
C382 C383 1.366 . S
C383 C382 1.366 . S
C383 C384 1.414 . S
C383 C386 1.499 . S
C384 H364 0.950 . S
C384 C383 1.414 . S
C384 C385 1.374 . S
C385 H365 0.950 . S
C385 C381 1.385 . S
C385 C384 1.374 . S
C386 C383 1.499 . S
C386 C387 1.373 . S
C386 C388 1.389 . S
C387 H366 0.950 . S
C387 C386 1.373 . S
C387 C403 1.377 . S
C388 C386 1.389 . S
C388 C389 1.524 . S
C388 C402 1.377 . S
C389 C388 1.524 . S
C389 C390 1.397 . S
C389 C394 1.363 . S
C390 H367 0.950 . S
C390 C389 1.397 . S
C390 C391 1.334 . S
C391 H368 0.950 . S
C391 C390 1.334 . S
C391 C392 1.287 . S
C392 C391 1.287 . S
C392 C393 1.524 . S
C392 H411 0.913 . S
C393 H369 0.950 . S
C393 C392 1.524 . S
C393 C394 1.415 . S
C394 H370 0.950 . S
C394 C389 1.363 . S
C394 C393 1.415 . S
C395 H371 0.951 . S
C395 C396 1.366 . S
C395 C397 1.388 . S
C396 C395 1.366 . S
C396 C400 1.385 . S
C397 H372 0.951 . S
C397 C395 1.388 . S
C397 C398 1.366 . S
C398 C397 1.366 . S
C398 C399 1.414 . S
C398 C401 1.499 . S
C399 H373 0.950 . S
C399 C398 1.414 . S
C399 C400 1.374 . S
C400 H374 0.950 . S
C400 C396 1.385 . S
C400 C399 1.374 . S
C401 C398 1.499 . S
C401 C402 1.373 . S
C401 C403 1.389 . S
C402 H375 0.950 . S
C402 C388 1.377 . S
C402 C401 1.373 . S
C403 C387 1.377 . S
C403 C401 1.389 . S
C403 C404 1.524 . S
C404 C403 1.524 . S
C404 C405 1.397 . S
C404 C409 1.363 . S
C405 H376 0.950 . S
C405 C404 1.397 . S
C405 C406 1.334 . S
C406 H377 0.950 . S
C406 C405 1.334 . S
C406 C407 1.287 . S
C407 C406 1.287 . S
C407 C408 1.524 . S
C407 H410 0.999 . S
C408 H378 0.950 . S
C408 C407 1.524 . S
C408 C409 1.415 . S
C409 H379 0.950 . S
C409 C404 1.363 . S
C409 C408 1.415 . S
H410 C407 0.999 . S
H411 C392 0.913 . S
H412 C430 0.951 . S
H413 C432 0.951 . S
H414 C434 0.950 . S
H415 C435 0.950 . S
H416 C437 0.950 . S
H417 C440 0.950 . S
H418 C441 0.950 . S
H419 C443 0.950 . S
H420 C444 0.950 . S
H421 C445 0.951 . S
H422 C447 0.951 . S
H423 C449 0.950 . S
H424 C450 0.950 . S
H425 C452 0.950 . S
H426 C455 0.950 . S
H427 C456 0.950 . S
H428 C458 0.950 . S
H429 C459 0.950 . S
C430 H412 0.951 . S
C430 C431 1.366 . S
C430 C432 1.388 . S
C431 C430 1.366 . S
C431 C435 1.385 . S
C432 H413 0.951 . S
C432 C430 1.388 . S
C432 C433 1.366 . S
C433 C432 1.366 . S
C433 C434 1.414 . S
C433 C436 1.499 . S
C434 H414 0.950 . S
C434 C433 1.414 . S
C434 C435 1.374 . S
C435 H415 0.950 . S
C435 C431 1.385 . S
C435 C434 1.374 . S
C436 C433 1.499 . S
C436 C437 1.373 . S
C436 C438 1.389 . S
C437 H416 0.950 . S
C437 C436 1.373 . S
C437 C453 1.377 . S
C438 C436 1.389 . S
C438 C439 1.524 . S
C438 C452 1.377 . S
C439 C438 1.524 . S
C439 C440 1.397 . S
C439 C444 1.363 . S
C440 H417 0.950 . S
C440 C439 1.397 . S
C440 C441 1.334 . S
C441 H418 0.950 . S
C441 C440 1.334 . S
C441 C442 1.287 . S
C442 C441 1.287 . S
C442 C443 1.524 . S
C442 H461 0.913 . S
C443 H419 0.950 . S
C443 C442 1.524 . S
C443 C444 1.415 . S
C444 H420 0.950 . S
C444 C439 1.363 . S
C444 C443 1.415 . S
C445 H421 0.951 . S
C445 C446 1.366 . S
C445 C447 1.388 . S
C446 C445 1.366 . S
C446 C450 1.385 . S
C447 H422 0.951 . S
C447 C445 1.388 . S
C447 C448 1.366 . S
C448 C447 1.366 . S
C448 C449 1.414 . S
C448 C451 1.499 . S
C449 H423 0.950 . S
C449 C448 1.414 . S
C449 C450 1.374 . S
C450 H424 0.950 . S
C450 C446 1.385 . S
C450 C449 1.374 . S
C451 C448 1.499 . S
C451 C452 1.373 . S
C451 C453 1.389 . S
C452 H425 0.950 . S
C452 C438 1.377 . S
C452 C451 1.373 . S
C453 C437 1.377 . S
C453 C451 1.389 . S
C453 C454 1.524 . S
C454 C453 1.524 . S
C454 C455 1.397 . S
C454 C459 1.363 . S
C455 H426 0.950 . S
C455 C454 1.397 . S
C455 C456 1.334 . S
C456 H427 0.950 . S
C456 C455 1.334 . S
C456 C457 1.287 . S
C457 C456 1.287 . S
C457 C458 1.524 . S
C457 H460 0.999 . S
C458 H428 0.950 . S
C458 C457 1.524 . S
C458 C459 1.415 . S
C459 H429 0.950 . S
C459 C454 1.363 . S
C459 C458 1.415 . S
H460 C457 0.999 . S
H461 C442 0.913 . S
H462 C480 0.951 . S
H463 C482 0.951 . S
H464 C484 0.950 . S
H465 C485 0.950 . S
H466 C487 0.950 . S
H467 C490 0.950 . S
H468 C491 0.950 . S
H469 C493 0.950 . S
H470 C494 0.950 . S
H471 C495 0.951 . S
H472 C497 0.951 . S
H473 C499 0.950 . S
H474 C500 0.950 . S
H475 C502 0.950 . S
H476 C505 0.950 . S
H477 C506 0.950 . S
H478 C508 0.950 . S
H479 C509 0.950 . S
C480 H462 0.951 . S
C480 C481 1.366 . S
C480 C482 1.388 . S
C481 C480 1.366 . S
C481 C485 1.385 . S
C482 H463 0.951 . S
C482 C480 1.388 . S
C482 C483 1.366 . S
C483 C482 1.366 . S
C483 C484 1.414 . S
C483 C486 1.499 . S
C484 H464 0.950 . S
C484 C483 1.414 . S
C484 C485 1.374 . S
C485 H465 0.950 . S
C485 C481 1.385 . S
C485 C484 1.374 . S
C486 C483 1.499 . S
C486 C487 1.373 . S
C486 C488 1.389 . S
C487 H466 0.950 . S
C487 C486 1.373 . S
C487 C503 1.377 . S
C488 C486 1.389 . S
C488 C489 1.524 . S
C488 C502 1.377 . S
C489 C488 1.524 . S
C489 C490 1.397 . S
C489 C494 1.363 . S
C490 H467 0.950 . S
C490 C489 1.397 . S
C490 C491 1.334 . S
C491 H468 0.950 . S
C491 C490 1.334 . S
C491 C492 1.287 . S
C492 C491 1.287 . S
C492 C493 1.524 . S
C492 H511 0.913 . S
C493 H469 0.950 . S
C493 C492 1.524 . S
C493 C494 1.415 . S
C494 H470 0.950 . S
C494 C489 1.363 . S
C494 C493 1.415 . S
C495 H471 0.951 . S
C495 C496 1.366 . S
C495 C497 1.388 . S
C496 C495 1.366 . S
C496 C500 1.385 . S
C497 H472 0.951 . S
C497 C495 1.388 . S
C497 C498 1.366 . S
C498 C497 1.366 . S
C498 C499 1.414 . S
C498 C501 1.499 . S
C499 H473 0.950 . S
C499 C498 1.414 . S
C499 C500 1.374 . S
C500 H474 0.950 . S
C500 C496 1.385 . S
C500 C499 1.374 . S
C501 C498 1.499 . S
C501 C502 1.373 . S
C501 C503 1.389 . S
C502 H475 0.950 . S
C502 C488 1.377 . S
C502 C501 1.373 . S
C503 C487 1.377 . S
C503 C501 1.389 . S
C503 C504 1.524 . S
C504 C503 1.524 . S
C504 C505 1.397 . S
C504 C509 1.363 . S
C505 H476 0.950 . S
C505 C504 1.397 . S
C505 C506 1.334 . S
C506 H477 0.950 . S
C506 C505 1.334 . S
C506 C507 1.287 . S
C507 C506 1.287 . S
C507 C508 1.524 . S
C507 H510 0.999 . S
C508 H478 0.950 . S
C508 C507 1.524 . S
C508 C509 1.415 . S
C509 H479 0.950 . S
C509 C504 1.363 . S
C509 C508 1.415 . S
H510 C507 0.999 . S
H511 C492 0.913 . S
H512 C530 0.951 . S
H513 C532 0.951 . S
H514 C534 0.950 . S
H515 C535 0.950 . S
H516 C537 0.950 . S
H517 C540 0.950 . S
H518 C541 0.950 . S
H519 C543 0.950 . S
H520 C544 0.950 . S
H521 C545 0.951 . S
H522 C547 0.951 . S
H523 C549 0.950 . S
H524 C550 0.950 . S
H525 C552 0.950 . S
H526 C555 0.950 . S
H527 C556 0.950 . S
H528 C558 0.950 . S
H529 C559 0.950 . S
C530 H512 0.951 . S
C530 C531 1.366 . S
C530 C532 1.388 . S
C531 C530 1.366 . S
C531 C535 1.385 . S
C532 H513 0.951 . S
C532 C530 1.388 . S
C532 C533 1.366 . S
C533 C532 1.366 . S
C533 C534 1.414 . S
C533 C536 1.499 . S
C534 H514 0.950 . S
C534 C533 1.414 . S
C534 C535 1.374 . S
C535 H515 0.950 . S
C535 C531 1.385 . S
C535 C534 1.374 . S
C536 C533 1.499 . S
C536 C537 1.373 . S
C536 C538 1.389 . S
C537 H516 0.950 . S
C537 C536 1.373 . S
C537 C553 1.377 . S
C538 C536 1.389 . S
C538 C539 1.524 . S
C538 C552 1.377 . S
C539 C538 1.524 . S
C539 C540 1.397 . S
C539 C544 1.363 . S
C540 H517 0.950 . S
C540 C539 1.397 . S
C540 C541 1.334 . S
C541 H518 0.950 . S
C541 C540 1.334 . S
C541 C542 1.287 . S
C542 C541 1.287 . S
C542 C543 1.524 . S
C542 H561 0.913 . S
C543 H519 0.950 . S
C543 C542 1.524 . S
C543 C544 1.415 . S
C544 H520 0.950 . S
C544 C539 1.363 . S
C544 C543 1.415 . S
C545 H521 0.951 . S
C545 C546 1.366 . S
C545 C547 1.388 . S
C546 C545 1.366 . S
C546 C550 1.385 . S
C547 H522 0.951 . S
C547 C545 1.388 . S
C547 C548 1.366 . S
C548 C547 1.366 . S
C548 C549 1.414 . S
C548 C551 1.499 . S
C549 H523 0.950 . S
C549 C548 1.414 . S
C549 C550 1.374 . S
C550 H524 0.950 . S
C550 C546 1.385 . S
C550 C549 1.374 . S
C551 C548 1.499 . S
C551 C552 1.373 . S
C551 C553 1.389 . S
C552 H525 0.950 . S
C552 C538 1.377 . S
C552 C551 1.373 . S
C553 C537 1.377 . S
C553 C551 1.389 . S
C553 C554 1.524 . S
C554 C553 1.524 . S
C554 C555 1.397 . S
C554 C559 1.363 . S
C555 H526 0.950 . S
C555 C554 1.397 . S
C555 C556 1.334 . S
C556 H527 0.950 . S
C556 C555 1.334 . S
C556 C557 1.287 . S
C557 C556 1.287 . S
C557 C558 1.524 . S
C557 H560 0.999 . S
C558 H528 0.950 . S
C558 C557 1.524 . S
C558 C559 1.415 . S
C559 H529 0.950 . S
C559 C554 1.363 . S
C559 C558 1.415 . S
H560 C557 0.999 . S
H561 C542 0.913 . S
H562 C580 0.951 . S
H563 C582 0.951 . S
H564 C584 0.950 . S
H565 C585 0.950 . S
H566 C587 0.950 . S
H567 C590 0.950 . S
H568 C591 0.950 . S
H569 C593 0.950 . S
H570 C594 0.950 . S
H571 C595 0.951 . S
H572 C597 0.951 . S
H573 C599 0.950 . S
H574 C600 0.950 . S
H575 C602 0.950 . S
H576 C605 0.950 . S
H577 C606 0.950 . S
H578 C608 0.950 . S
H579 C609 0.950 . S
C580 H562 0.951 . S
C580 C581 1.366 . S
C580 C582 1.388 . S
C581 C580 1.366 . S
C581 C585 1.385 . S
C582 H563 0.951 . S
C582 C580 1.388 . S
C582 C583 1.366 . S
C583 C582 1.366 . S
C583 C584 1.414 . S
C583 C586 1.499 . S
C584 H564 0.950 . S
C584 C583 1.414 . S
C584 C585 1.374 . S
C585 H565 0.950 . S
C585 C581 1.385 . S
C585 C584 1.374 . S
C586 C583 1.499 . S
C586 C587 1.373 . S
C586 C588 1.389 . S
C587 H566 0.950 . S
C587 C586 1.373 . S
C587 C603 1.377 . S
C588 C586 1.389 . S
C588 C589 1.524 . S
C588 C602 1.377 . S
C589 C588 1.524 . S
C589 C590 1.397 . S
C589 C594 1.363 . S
C590 H567 0.950 . S
C590 C589 1.397 . S
C590 C591 1.334 . S
C591 H568 0.950 . S
C591 C590 1.334 . S
C591 C592 1.287 . S
C592 C591 1.287 . S
C592 C593 1.524 . S
C592 H611 0.913 . S
C593 H569 0.950 . S
C593 C592 1.524 . S
C593 C594 1.415 . S
C594 H570 0.950 . S
C594 C589 1.363 . S
C594 C593 1.415 . S
C595 H571 0.951 . S
C595 C596 1.366 . S
C595 C597 1.388 . S
C596 C595 1.366 . S
C596 C600 1.385 . S
C597 H572 0.951 . S
C597 C595 1.388 . S
C597 C598 1.366 . S
C598 C597 1.366 . S
C598 C599 1.414 . S
C598 C601 1.499 . S
C599 H573 0.950 . S
C599 C598 1.414 . S
C599 C600 1.374 . S
C600 H574 0.950 . S
C600 C596 1.385 . S
C600 C599 1.374 . S
C601 C598 1.499 . S
C601 C602 1.373 . S
C601 C603 1.389 . S
C602 H575 0.950 . S
C602 C588 1.377 . S
C602 C601 1.373 . S
C603 C587 1.377 . S
C603 C601 1.389 . S
C603 C604 1.524 . S
C604 C603 1.524 . S
C604 C605 1.397 . S
C604 C609 1.363 . S
C605 H576 0.950 . S
C605 C604 1.397 . S
C605 C606 1.334 . S
C606 H577 0.950 . S
C606 C605 1.334 . S
C606 C607 1.287 . S
C607 C606 1.287 . S
C607 C608 1.524 . S
C607 H610 0.999 . S
C608 H578 0.950 . S
C608 C607 1.524 . S
C608 C609 1.415 . S
C609 H579 0.950 . S
C609 C604 1.363 . S
C609 C608 1.415 . S
H610 C607 0.999 . S
H611 C592 0.913 . S
H612 C630 0.951 . S
H613 C632 0.951 . S
H614 C634 0.950 . S
H615 C635 0.950 . S
H616 C637 0.950 . S
H617 C640 0.950 . S
H618 C641 0.950 . S
H619 C643 0.950 . S
H620 C644 0.950 . S
H621 C645 0.951 . S
H622 C647 0.951 . S
H623 C649 0.950 . S
H624 C650 0.950 . S
H625 C652 0.950 . S
H626 C655 0.950 . S
H627 C656 0.950 . S
H628 C658 0.950 . S
H629 C659 0.950 . S
C630 H612 0.951 . S
C630 C631 1.366 . S
C630 C632 1.388 . S
C631 C630 1.366 . S
C631 C635 1.385 . S
C632 H613 0.951 . S
C632 C630 1.388 . S
C632 C633 1.366 . S
C633 C632 1.366 . S
C633 C634 1.414 . S
C633 C636 1.499 . S
C634 H614 0.950 . S
C634 C633 1.414 . S
C634 C635 1.374 . S
C635 H615 0.950 . S
C635 C631 1.385 . S
C635 C634 1.374 . S
C636 C633 1.499 . S
C636 C637 1.373 . S
C636 C638 1.389 . S
C637 H616 0.950 . S
C637 C636 1.373 . S
C637 C653 1.377 . S
C638 C636 1.389 . S
C638 C639 1.524 . S
C638 C652 1.377 . S
C639 C638 1.524 . S
C639 C640 1.397 . S
C639 C644 1.363 . S
C640 H617 0.950 . S
C640 C639 1.397 . S
C640 C641 1.334 . S
C641 H618 0.950 . S
C641 C640 1.334 . S
C641 C642 1.287 . S
C642 C641 1.287 . S
C642 C643 1.524 . S
C642 H661 0.913 . S
C643 H619 0.950 . S
C643 C642 1.524 . S
C643 C644 1.415 . S
C644 H620 0.950 . S
C644 C639 1.363 . S
C644 C643 1.415 . S
C645 H621 0.951 . S
C645 C646 1.366 . S
C645 C647 1.388 . S
C646 C645 1.366 . S
C646 C650 1.385 . S
C647 H622 0.951 . S
C647 C645 1.388 . S
C647 C648 1.366 . S
C648 C647 1.366 . S
C648 C649 1.414 . S
C648 C651 1.499 . S
C649 H623 0.950 . S
C649 C648 1.414 . S
C649 C650 1.374 . S
C650 H624 0.950 . S
C650 C646 1.385 . S
C650 C649 1.374 . S
C651 C648 1.499 . S
C651 C652 1.373 . S
C651 C653 1.389 . S
C652 H625 0.950 . S
C652 C638 1.377 . S
C652 C651 1.373 . S
C653 C637 1.377 . S
C653 C651 1.389 . S
C653 C654 1.524 . S
C654 C653 1.524 . S
C654 C655 1.397 . S
C654 C659 1.363 . S
C655 H626 0.950 . S
C655 C654 1.397 . S
C655 C656 1.334 . S
C656 H627 0.950 . S
C656 C655 1.334 . S
C656 C657 1.287 . S
C657 C656 1.287 . S
C657 C658 1.524 . S
C657 H660 0.999 . S
C658 H628 0.950 . S
C658 C657 1.524 . S
C658 C659 1.415 . S
C659 H629 0.950 . S
C659 C654 1.363 . S
C659 C658 1.415 . S
H660 C657 0.999 . S
H661 C642 0.913 . S
H662 C680 0.951 . S
H663 C682 0.951 . S
H664 C684 0.950 . S
H665 C685 0.950 . S
H666 C687 0.950 . S
H667 C690 0.950 . S
H668 C691 0.950 . S
H669 C693 0.950 . S
H670 C694 0.950 . S
H671 C695 0.951 . S
H672 C697 0.951 . S
H673 C699 0.950 . S
H674 C700 0.950 . S
H675 C702 0.950 . S
H676 C705 0.950 . S
H677 C706 0.950 . S
H678 C708 0.950 . S
H679 C709 0.950 . S
C680 H662 0.951 . S
C680 C681 1.366 . S
C680 C682 1.388 . S
C681 C680 1.366 . S
C681 C685 1.385 . S
C682 H663 0.951 . S
C682 C680 1.388 . S
C682 C683 1.366 . S
C683 C682 1.366 . S
C683 C684 1.414 . S
C683 C686 1.499 . S
C684 H664 0.950 . S
C684 C683 1.414 . S
C684 C685 1.374 . S
C685 H665 0.950 . S
C685 C681 1.385 . S
C685 C684 1.374 . S
C686 C683 1.499 . S
C686 C687 1.373 . S
C686 C688 1.389 . S
C687 H666 0.950 . S
C687 C686 1.373 . S
C687 C703 1.377 . S
C688 C686 1.389 . S
C688 C689 1.524 . S
C688 C702 1.377 . S
C689 C688 1.524 . S
C689 C690 1.397 . S
C689 C694 1.363 . S
C690 H667 0.950 . S
C690 C689 1.397 . S
C690 C691 1.334 . S
C691 H668 0.950 . S
C691 C690 1.334 . S
C691 C692 1.287 . S
C692 C691 1.287 . S
C692 C693 1.524 . S
C692 H711 0.913 . S
C693 H669 0.950 . S
C693 C692 1.524 . S
C693 C694 1.415 . S
C694 H670 0.950 . S
C694 C689 1.363 . S
C694 C693 1.415 . S
C695 H671 0.951 . S
C695 C696 1.366 . S
C695 C697 1.388 . S
C696 C695 1.366 . S
C696 C700 1.385 . S
C697 H672 0.951 . S
C697 C695 1.388 . S
C697 C698 1.366 . S
C698 C697 1.366 . S
C698 C699 1.414 . S
C698 C701 1.499 . S
C699 H673 0.950 . S
C699 C698 1.414 . S
C699 C700 1.374 . S
C700 H674 0.950 . S
C700 C696 1.385 . S
C700 C699 1.374 . S
C701 C698 1.499 . S
C701 C702 1.373 . S
C701 C703 1.389 . S
C702 H675 0.950 . S
C702 C688 1.377 . S
C702 C701 1.373 . S
C703 C687 1.377 . S
C703 C701 1.389 . S
C703 C704 1.524 . S
C704 C703 1.524 . S
C704 C705 1.397 . S
C704 C709 1.363 . S
C705 H676 0.950 . S
C705 C704 1.397 . S
C705 C706 1.334 . S
C706 H677 0.950 . S
C706 C705 1.334 . S
C706 C707 1.287 . S
C707 C706 1.287 . S
C707 C708 1.524 . S
C707 H710 0.999 . S
C708 H678 0.950 . S
C708 C707 1.524 . S
C708 C709 1.415 . S
C709 H679 0.950 . S
C709 C704 1.363 . S
C709 C708 1.415 . S
H710 C707 0.999 . S
H711 C692 0.913 . S
H712 C730 0.951 . S
H713 C732 0.951 . S
H714 C734 0.950 . S
H715 C735 0.950 . S
H716 C737 0.950 1_655 S
H717 C740 0.950 . S
H718 C741 0.950 . S
H719 C743 0.950 . S
H720 C744 0.950 . S
H721 C745 0.951 . S
H722 C747 0.951 . S
H723 C749 0.950 . S
H724 C750 0.950 . S
H725 C752 0.950 . S
H726 C755 0.950 . S
H727 C756 0.950 . S
H728 C758 0.950 . S
H729 C759 0.950 . S
C730 H712 0.951 . S
C730 C731 1.366 . S
C730 C732 1.388 . S
C731 C730 1.366 . S
C731 C735 1.385 1_455 S
C732 H713 0.951 . S
C732 C730 1.388 . S
C732 C733 1.366 . S
C733 C732 1.366 . S
C733 C734 1.414 1_455 S
C733 C736 1.499 . S
C734 H714 0.950 . S
C734 C733 1.414 1_655 S
C734 C735 1.374 . S
C735 H715 0.950 . S
C735 C731 1.385 1_655 S
C735 C734 1.374 . S
C736 C733 1.499 . S
C736 C737 1.373 1_545 S
C736 C738 1.389 1_554 S
C737 H716 0.950 1_455 S
C737 C736 1.373 1_565 S
C737 C753 1.377 . S
C738 C736 1.389 1_556 S
C738 C739 1.524 . S
C738 C752 1.377 . S
C739 C738 1.524 . S
C739 C740 1.397 1_455 S
C739 C744 1.363 . S
C740 H717 0.950 . S
C740 C739 1.397 1_655 S
C740 C741 1.334 . S
C741 H718 0.950 . S
C741 C740 1.334 . S
C741 C742 1.287 1_655 S
C742 C741 1.287 1_455 S
C742 C743 1.524 . S
C742 H761 0.913 . S
C743 H719 0.950 . S
C743 C742 1.524 . S
C743 C744 1.415 . S
C744 H720 0.950 . S
C744 C739 1.363 . S
C744 C743 1.415 . S
C745 H721 0.951 . S
C745 C746 1.366 1_655 S
C745 C747 1.388 . S
C746 C745 1.366 1_455 S
C746 C750 1.385 . S
C747 H722 0.951 . S
C747 C745 1.388 . S
C747 C748 1.366 1_655 S
C748 C747 1.366 1_455 S
C748 C749 1.414 . S
C748 C751 1.499 . S
C749 H723 0.950 . S
C749 C748 1.414 . S
C749 C750 1.374 . S
C750 H724 0.950 . S
C750 C746 1.385 . S
C750 C749 1.374 . S
C751 C748 1.499 . S
C751 C752 1.373 1_565 S
C751 C753 1.389 1_556 S
C752 H725 0.950 . S
C752 C738 1.377 . S
C752 C751 1.373 1_545 S
C753 C737 1.377 . S
C753 C751 1.389 1_554 S
C753 C754 1.524 . S
C754 C753 1.524 . S
C754 C755 1.397 . S
C754 C759 1.363 1_455 S
C755 H726 0.950 . S
C755 C754 1.397 . S
C755 C756 1.334 . S
C756 H727 0.950 . S
C756 C755 1.334 . S
C756 C757 1.287 . S
C757 C756 1.287 . S
C757 C758 1.524 1_455 S
C757 H760 0.999 . S
C758 H728 0.950 . S
C758 C757 1.524 1_655 S
C758 C759 1.415 . S
C759 H729 0.950 . S
C759 C754 1.363 1_655 S
C759 C758 1.415 . S
H760 C757 0.999 . S
H761 C742 0.913 . S
H762 C780 0.951 . S
H763 C782 0.956 . S
H764 C784 0.950 . S
H765 C785 0.950 . S
H766 C787 0.950 . S
H767 C790 0.950 1_556 S
H768 C791 0.950 . S
H769 C793 0.950 . S
H770 C794 0.950 . S
H771 C795 0.951 . S
H772 C797 0.951 . S
H773 C799 0.950 . S
H774 C800 0.950 . S
H775 C802 0.950 . S
H776 C805 0.950 1_554 S
H777 C806 0.950 . S
H778 C808 0.950 1_455 S
H779 C809 0.950 . S
C780 H762 0.951 . S
C780 C781 1.366 1_655 S
C780 C782 1.388 . S
C781 C780 1.366 1_455 S
C781 C785 1.385 . S
C782 H763 0.956 . S
C782 C780 1.388 . S
C782 C783 1.360 1_655 S
C783 C782 1.360 1_455 S
C783 C784 1.414 . S
C783 C786 1.499 . S
C784 H764 0.950 . S
C784 C783 1.414 . S
C784 C785 1.374 . S
C785 H765 0.950 . S
C785 C781 1.385 . S
C785 C784 1.374 . S
C786 C783 1.499 . S
C786 C787 1.373 . S
C786 C788 1.389 1_556 S
C787 H766 0.950 . S
C787 C786 1.373 . S
C787 C803 1.377 . S
C788 C786 1.389 1_554 S
C788 C789 1.524 . S
C788 C802 1.377 . S
C789 C788 1.524 . S
C789 C790 1.397 . S
C789 C794 1.363 . S
C790 H767 0.950 1_554 S
C790 C789 1.397 . S
C790 C791 1.334 . S
C791 H768 0.950 . S
C791 C790 1.334 . S
C791 C792 1.287 . S
C792 C791 1.287 . S
C792 C793 1.524 . S
C792 H811 0.913 . S
C793 H769 0.950 . S
C793 C792 1.524 . S
C793 C794 1.415 . S
C794 H770 0.950 . S
C794 C789 1.363 . S
C794 C793 1.415 . S
C795 H771 0.951 . S
C795 C796 1.366 . S
C795 C797 1.388 . S
C796 C795 1.366 . S
C796 C800 1.385 1_455 S
C797 H772 0.951 . S
C797 C795 1.388 . S
C797 C798 1.366 . S
C798 C797 1.366 . S
C798 C799 1.414 1_455 S
C798 C801 1.499 . S
C799 H773 0.950 . S
C799 C798 1.414 1_655 S
C799 C800 1.374 . S
C800 H774 0.950 . S
C800 C796 1.385 1_655 S
C800 C799 1.374 . S
C801 C798 1.499 . S
C801 C802 1.373 . S
C801 C803 1.389 1_554 S
C802 H775 0.950 . S
C802 C788 1.377 . S
C802 C801 1.373 . S
C803 C787 1.377 . S
C803 C801 1.389 1_556 S
C803 C804 1.524 1_455 S
C804 C803 1.524 1_655 S
C804 C805 1.397 . S
C804 C809 1.363 1_655 S
C805 H776 0.950 1_556 S
C805 C804 1.397 . S
C805 C806 1.334 . S
C806 H777 0.950 . S
C806 C805 1.334 . S
C806 C807 1.287 . S
C807 C806 1.287 . S
C807 C808 1.524 . S
C807 H810 0.999 . S
C808 H778 0.950 1_655 S
C808 C807 1.524 . S
C808 C809 1.415 1_655 S
C809 H779 0.950 . S
C809 C804 1.363 1_455 S
C809 C808 1.415 1_455 S
H810 C807 0.999 . S
H811 C792 0.913 . S
H812 C830 0.951 . S
H813 C832 0.951 . S
H814 C834 0.950 . S
H815 C835 0.950 . S
H816 C837 0.950 . S
H817 C840 0.950 . S
H818 C841 0.950 . S
H819 C843 0.950 . S
H820 C844 0.950 . S
H821 C845 0.951 . S
H822 C847 0.951 . S
H823 C849 0.950 . S
H824 C850 0.950 . S
H825 C852 0.950 . S
H826 C855 0.950 . S
H827 C856 0.950 . S
H828 C858 0.950 . S
H829 C859 0.950 . S
C830 H812 0.951 . S
C830 C831 1.366 . S
C830 C832 1.388 . S
C831 C830 1.366 . S
C831 C835 1.385 . S
C832 H813 0.951 . S
C832 C830 1.388 . S
C832 C833 1.366 . S
C833 C832 1.366 . S
C833 C834 1.414 . S
C833 C836 1.499 . S
C834 H814 0.950 . S
C834 C833 1.414 . S
C834 C835 1.374 . S
C835 H815 0.950 . S
C835 C831 1.385 . S
C835 C834 1.374 . S
C836 C833 1.499 . S
C836 C837 1.373 . S
C836 C838 1.389 . S
C837 H816 0.950 . S
C837 C836 1.373 . S
C837 C853 1.377 . S
C838 C836 1.389 . S
C838 C839 1.524 . S
C838 C852 1.377 . S
C839 C838 1.524 . S
C839 C840 1.397 . S
C839 C844 1.363 . S
C840 H817 0.950 . S
C840 C839 1.397 . S
C840 C841 1.334 . S
C841 H818 0.950 . S
C841 C840 1.334 . S
C841 C842 1.287 . S
C842 C841 1.287 . S
C842 C843 1.524 . S
C842 H861 0.913 . S
C843 H819 0.950 . S
C843 C842 1.524 . S
C843 C844 1.415 . S
C844 H820 0.950 . S
C844 C839 1.363 . S
C844 C843 1.415 . S
C845 H821 0.951 . S
C845 C846 1.366 . S
C845 C847 1.388 . S
C846 C845 1.366 . S
C846 C850 1.385 . S
C847 H822 0.951 . S
C847 C845 1.388 . S
C847 C848 1.366 . S
C848 C847 1.366 . S
C848 C849 1.414 . S
C848 C851 1.499 . S
C849 H823 0.950 . S
C849 C848 1.414 . S
C849 C850 1.374 . S
C850 H824 0.950 . S
C850 C846 1.385 . S
C850 C849 1.374 . S
C851 C848 1.499 . S
C851 C852 1.373 . S
C851 C853 1.389 . S
C852 H825 0.950 . S
C852 C838 1.377 . S
C852 C851 1.373 . S
C853 C837 1.377 . S
C853 C851 1.389 . S
C853 C854 1.524 . S
C854 C853 1.524 . S
C854 C855 1.397 . S
C854 C859 1.363 . S
C855 H826 0.950 . S
C855 C854 1.397 . S
C855 C856 1.334 . S
C856 H827 0.950 . S
C856 C855 1.334 . S
C856 C857 1.287 . S
C857 C856 1.287 . S
C857 C858 1.524 . S
C857 H860 0.999 . S
C858 H828 0.950 . S
C858 C857 1.524 . S
C858 C859 1.415 . S
C859 H829 0.950 . S
C859 C854 1.363 . S
C859 C858 1.415 . S
H860 C857 0.999 . S
H861 C842 0.913 . S
H862 C880 0.951 . S
H863 C882 0.951 . S
H864 C884 0.950 . S
H865 C885 0.950 . S
H866 C887 0.950 . S
H867 C890 0.985 . S
H868 C891 0.950 1_565 S
H869 C893 0.950 . S
H870 C894 0.950 . S
H871 C895 0.951 . S
H872 C897 0.951 . S
H873 C899 0.950 . S
H874 C900 0.950 . S
H875 C902 0.950 . S
H876 C905 0.985 . S
H877 C906 0.950 1_545 S
H878 C908 0.950 . S
H879 C909 0.950 . S
C880 H862 0.951 . S
C880 C881 1.366 . S
C880 C882 1.388 . S
C881 C880 1.366 . S
C881 C885 1.385 . S
C882 H863 0.951 . S
C882 C880 1.388 . S
C882 C883 1.366 . S
C883 C882 1.366 . S
C883 C884 1.414 . S
C883 C886 1.499 . S
C884 H864 0.950 . S
C884 C883 1.414 . S
C884 C885 1.374 . S
C885 H865 0.950 . S
C885 C881 1.385 . S
C885 C884 1.374 . S
C886 C883 1.499 . S
C886 C887 1.373 . S
C886 C888 1.389 1_565 S
C887 H866 0.950 . S
C887 C886 1.373 . S
C887 C903 1.377 . S
C888 C886 1.389 1_545 S
C888 C889 1.524 . S
C888 C902 1.377 . S
C889 C888 1.524 . S
C889 C890 1.373 1_545 S
C889 C894 1.363 . S
C890 H867 0.985 . S
C890 C889 1.373 1_565 S
C890 C891 1.325 1_565 S
C891 H868 0.950 1_545 S
C891 C890 1.325 1_545 S
C891 C892 1.287 . S
C892 C891 1.287 . S
C892 C893 1.524 . S
C892 H911 0.913 . S
C893 H869 0.950 . S
C893 C892 1.524 . S
C893 C894 1.415 . S
C894 H870 0.950 . S
C894 C889 1.363 . S
C894 C893 1.415 . S
C895 H871 0.951 . S
C895 C896 1.366 . S
C895 C897 1.388 . S
C896 C895 1.366 . S
C896 C900 1.385 . S
C897 H872 0.951 . S
C897 C895 1.388 . S
C897 C898 1.366 . S
C898 C897 1.366 . S
C898 C899 1.414 . S
C898 C901 1.499 . S
C899 H873 0.950 . S
C899 C898 1.414 . S
C899 C900 1.374 . S
C900 H874 0.950 . S
C900 C896 1.385 . S
C900 C899 1.374 . S
C901 C898 1.499 . S
C901 C902 1.373 . S
C901 C903 1.389 1_545 S
C902 H875 0.950 . S
C902 C888 1.377 . S
C902 C901 1.373 . S
C903 C887 1.377 . S
C903 C901 1.389 1_565 S
C903 C904 1.524 . S
C904 C903 1.524 . S
C904 C905 1.373 1_565 S
C904 C909 1.363 . S
C905 H876 0.985 . S
C905 C904 1.373 1_545 S
C905 C906 1.325 1_545 S
C906 H877 0.950 1_565 S
C906 C905 1.325 1_565 S
C906 C907 1.287 . S
C907 C906 1.287 . S
C907 C908 1.524 . S
C907 H910 0.999 . S
C908 H878 0.950 . S
C908 C907 1.524 . S
C908 C909 1.415 . S
C909 H879 0.950 . S
C909 C904 1.363 . S
C909 C908 1.415 . S
H910 C907 0.999 . S
H911 C892 0.913 . S
C131 C23 1.392 . S
C146 C9 1.392 . S
C181 C37 1.392 . S
C196 C51 1.392 . S
C231 C65 1.392 . S
C246 C79 1.393 . S
C281 C93 1.392 . S
C296 C107 1.393 . S
C331 C101 1.421 . S
C346 C3 1.421 . S
C381 C87 1.421 . S
C396 C17 1.421 . S
C431 C31 1.421 . S
C446 C73 1.421 . S
C481 C59 1.421 . S
C496 C45 1.421 . S
C531 C77 1.327 . S
C546 C35 1.326 . S
C581 C63 1.327 . S
C596 C49 1.326 . S
C631 C105 1.327 . S
C646 C7 1.327 . S
C681 C21 1.327 . S
C696 C91 1.326 . S
C731 C8 1.332 . S
C746 C36 1.332 . S
C781 C50 1.331 . S
C796 C22 1.332 . S
C831 C92 1.332 . S
C846 C64 1.332 . S
C881 C78 1.331 . S
C896 C106 1.331 . S
