# Generated by pormake.
# Topology rho, (4)-cn, num edge types: 1
# Building blocks:
#     Node 0, Type 0, BuildingBlock: NAHDIM_clean_sbu_0, # of connection points: 4
#     Node 1, Type 0, BuildingBlock: NAHDIM_clean_sbu_0, # of connection points: 4
#     Node 2, Type 0, BuildingBlock: NAHDIM_clean_sbu_0, # of connection points: 4
#     Node 3, Type 0, BuildingBlock: NAHDIM_clean_sbu_0, # of connection points: 4
#     Node 4, Type 0, BuildingBlock: NAHDIM_clean_sbu_0, # of connection points: 4
#     Node 5, Type 0, BuildingBlock: NAHDIM_clean_sbu_0, # of connection points: 4
#     Node 6, Type 0, BuildingBlock: NAHDIM_clean_sbu_0, # of connection points: 4
#     Node 7, Type 0, BuildingBlock: NAHDIM_clean_sbu_0, # of connection points: 4
#     Node 8, Type 0, BuildingBlock: NAHDIM_clean_sbu_0, # of connection points: 4
#     Node 9, Type 0, BuildingBlock: NAHDIM_clean_sbu_0, # of connection points: 4
#     Node 10, Type 0, BuildingBlock: NAHDIM_clean_sbu_0, # of connection points: 4
#     Node 11, Type 0, BuildingBlock: NAHDIM_clean_sbu_0, # of connection points: 4
#     Node 12, Type 0, BuildingBlock: NAHDIM_clean_sbu_0, # of connection points: 4
#     Node 13, Type 0, BuildingBlock: NAHDIM_clean_sbu_0, # of connection points: 4
#     Node 14, Type 0, BuildingBlock: NAHDIM_clean_sbu_0, # of connection points: 4
#     Node 15, Type 0, BuildingBlock: NAHDIM_clean_sbu_0, # of connection points: 4
#     Node 16, Type 0, BuildingBlock: NAHDIM_clean_sbu_0, # of connection points: 4
#     Node 17, Type 0, BuildingBlock: NAHDIM_clean_sbu_0, # of connection points: 4
#     Node 18, Type 0, BuildingBlock: NAHDIM_clean_sbu_0, # of connection points: 4
#     Node 19, Type 0, BuildingBlock: NAHDIM_clean_sbu_0, # of connection points: 4
#     Node 20, Type 0, BuildingBlock: NAHDIM_clean_sbu_0, # of connection points: 4
#     Node 21, Type 0, BuildingBlock: NAHDIM_clean_sbu_0, # of connection points: 4
#     Node 22, Type 0, BuildingBlock: NAHDIM_clean_sbu_0, # of connection points: 4
#     Node 23, Type 0, BuildingBlock: NAHDIM_clean_sbu_0, # of connection points: 4
#     Node 24, Type 0, BuildingBlock: NAHDIM_clean_sbu_0, # of connection points: 4
#     Node 25, Type 0, BuildingBlock: NAHDIM_clean_sbu_0, # of connection points: 4
#     Node 26, Type 0, BuildingBlock: NAHDIM_clean_sbu_0, # of connection points: 4
#     Node 27, Type 0, BuildingBlock: NAHDIM_clean_sbu_0, # of connection points: 4
#     Node 28, Type 0, BuildingBlock: NAHDIM_clean_sbu_0, # of connection points: 4
#     Node 29, Type 0, BuildingBlock: NAHDIM_clean_sbu_0, # of connection points: 4
#     Node 30, Type 0, BuildingBlock: NAHDIM_clean_sbu_0, # of connection points: 4
#     Node 31, Type 0, BuildingBlock: NAHDIM_clean_sbu_0, # of connection points: 4
#     Node 32, Type 0, BuildingBlock: NAHDIM_clean_sbu_0, # of connection points: 4
#     Node 33, Type 0, BuildingBlock: NAHDIM_clean_sbu_0, # of connection points: 4
#     Node 34, Type 0, BuildingBlock: NAHDIM_clean_sbu_0, # of connection points: 4
#     Node 35, Type 0, BuildingBlock: NAHDIM_clean_sbu_0, # of connection points: 4
#     Node 36, Type 0, BuildingBlock: NAHDIM_clean_sbu_0, # of connection points: 4
#     Node 37, Type 0, BuildingBlock: NAHDIM_clean_sbu_0, # of connection points: 4
#     Node 38, Type 0, BuildingBlock: NAHDIM_clean_sbu_0, # of connection points: 4
#     Node 39, Type 0, BuildingBlock: NAHDIM_clean_sbu_0, # of connection points: 4
#     Node 40, Type 0, BuildingBlock: NAHDIM_clean_sbu_0, # of connection points: 4
#     Node 41, Type 0, BuildingBlock: NAHDIM_clean_sbu_0, # of connection points: 4
#     Node 42, Type 0, BuildingBlock: NAHDIM_clean_sbu_0, # of connection points: 4
#     Node 43, Type 0, BuildingBlock: NAHDIM_clean_sbu_0, # of connection points: 4
#     Node 44, Type 0, BuildingBlock: NAHDIM_clean_sbu_0, # of connection points: 4
#     Node 45, Type 0, BuildingBlock: NAHDIM_clean_sbu_0, # of connection points: 4
#     Node 46, Type 0, BuildingBlock: NAHDIM_clean_sbu_0, # of connection points: 4
#     Node 47, Type 0, BuildingBlock: NAHDIM_clean_sbu_0, # of connection points: 4
#     Edge 48, Type (0, 0), BuildingBlock: OJICUG_clean_linker_0, # of connection points: 2
#     Edge 49, Type (0, 0), BuildingBlock: OJICUG_clean_linker_0, # of connection points: 2
#     Edge 50, Type (0, 0), BuildingBlock: OJICUG_clean_linker_0, # of connection points: 2
#     Edge 51, Type (0, 0), BuildingBlock: OJICUG_clean_linker_0, # of connection points: 2
#     Edge 52, Type (0, 0), BuildingBlock: OJICUG_clean_linker_0, # of connection points: 2
#     Edge 53, Type (0, 0), BuildingBlock: OJICUG_clean_linker_0, # of connection points: 2
#     Edge 54, Type (0, 0), BuildingBlock: OJICUG_clean_linker_0, # of connection points: 2
#     Edge 55, Type (0, 0), BuildingBlock: OJICUG_clean_linker_0, # of connection points: 2
#     Edge 56, Type (0, 0), BuildingBlock: OJICUG_clean_linker_0, # of connection points: 2
#     Edge 57, Type (0, 0), BuildingBlock: OJICUG_clean_linker_0, # of connection points: 2
#     Edge 58, Type (0, 0), BuildingBlock: OJICUG_clean_linker_0, # of connection points: 2
#     Edge 59, Type (0, 0), BuildingBlock: OJICUG_clean_linker_0, # of connection points: 2
#     Edge 60, Type (0, 0), BuildingBlock: OJICUG_clean_linker_0, # of connection points: 2
#     Edge 61, Type (0, 0), BuildingBlock: OJICUG_clean_linker_0, # of connection points: 2
#     Edge 62, Type (0, 0), BuildingBlock: OJICUG_clean_linker_0, # of connection points: 2
#     Edge 63, Type (0, 0), BuildingBlock: OJICUG_clean_linker_0, # of connection points: 2
#     Edge 64, Type (0, 0), BuildingBlock: OJICUG_clean_linker_0, # of connection points: 2
#     Edge 65, Type (0, 0), BuildingBlock: OJICUG_clean_linker_0, # of connection points: 2
#     Edge 66, Type (0, 0), BuildingBlock: OJICUG_clean_linker_0, # of connection points: 2
#     Edge 67, Type (0, 0), BuildingBlock: OJICUG_clean_linker_0, # of connection points: 2
#     Edge 68, Type (0, 0), BuildingBlock: OJICUG_clean_linker_0, # of connection points: 2
#     Edge 69, Type (0, 0), BuildingBlock: OJICUG_clean_linker_0, # of connection points: 2
#     Edge 70, Type (0, 0), BuildingBlock: OJICUG_clean_linker_0, # of connection points: 2
#     Edge 71, Type (0, 0), BuildingBlock: OJICUG_clean_linker_0, # of connection points: 2
#     Edge 72, Type (0, 0), BuildingBlock: OJICUG_clean_linker_0, # of connection points: 2
#     Edge 73, Type (0, 0), BuildingBlock: OJICUG_clean_linker_0, # of connection points: 2
#     Edge 74, Type (0, 0), BuildingBlock: OJICUG_clean_linker_0, # of connection points: 2
#     Edge 75, Type (0, 0), BuildingBlock: OJICUG_clean_linker_0, # of connection points: 2
#     Edge 76, Type (0, 0), BuildingBlock: OJICUG_clean_linker_0, # of connection points: 2
#     Edge 77, Type (0, 0), BuildingBlock: OJICUG_clean_linker_0, # of connection points: 2
#     Edge 78, Type (0, 0), BuildingBlock: OJICUG_clean_linker_0, # of connection points: 2
#     Edge 79, Type (0, 0), BuildingBlock: OJICUG_clean_linker_0, # of connection points: 2
#     Edge 80, Type (0, 0), BuildingBlock: OJICUG_clean_linker_0, # of connection points: 2
#     Edge 81, Type (0, 0), BuildingBlock: OJICUG_clean_linker_0, # of connection points: 2
#     Edge 82, Type (0, 0), BuildingBlock: OJICUG_clean_linker_0, # of connection points: 2
#     Edge 83, Type (0, 0), BuildingBlock: OJICUG_clean_linker_0, # of connection points: 2
#     Edge 84, Type (0, 0), BuildingBlock: OJICUG_clean_linker_0, # of connection points: 2
#     Edge 85, Type (0, 0), BuildingBlock: OJICUG_clean_linker_0, # of connection points: 2
#     Edge 86, Type (0, 0), BuildingBlock: OJICUG_clean_linker_0, # of connection points: 2
#     Edge 87, Type (0, 0), BuildingBlock: OJICUG_clean_linker_0, # of connection points: 2
#     Edge 88, Type (0, 0), BuildingBlock: OJICUG_clean_linker_0, # of connection points: 2
#     Edge 89, Type (0, 0), BuildingBlock: OJICUG_clean_linker_0, # of connection points: 2
#     Edge 90, Type (0, 0), BuildingBlock: OJICUG_clean_linker_0, # of connection points: 2
#     Edge 91, Type (0, 0), BuildingBlock: OJICUG_clean_linker_0, # of connection points: 2
#     Edge 92, Type (0, 0), BuildingBlock: OJICUG_clean_linker_0, # of connection points: 2
#     Edge 93, Type (0, 0), BuildingBlock: OJICUG_clean_linker_0, # of connection points: 2
#     Edge 94, Type (0, 0), BuildingBlock: OJICUG_clean_linker_0, # of connection points: 2
#     Edge 95, Type (0, 0), BuildingBlock: OJICUG_clean_linker_0, # of connection points: 2
#     Edge 96, Type (0, 0), BuildingBlock: OJICUG_clean_linker_0, # of connection points: 2
#     Edge 97, Type (0, 0), BuildingBlock: OJICUG_clean_linker_0, # of connection points: 2
#     Edge 98, Type (0, 0), BuildingBlock: OJICUG_clean_linker_0, # of connection points: 2
#     Edge 99, Type (0, 0), BuildingBlock: OJICUG_clean_linker_0, # of connection points: 2
#     Edge 100, Type (0, 0), BuildingBlock: OJICUG_clean_linker_0, # of connection points: 2
#     Edge 101, Type (0, 0), BuildingBlock: OJICUG_clean_linker_0, # of connection points: 2
#     Edge 102, Type (0, 0), BuildingBlock: OJICUG_clean_linker_0, # of connection points: 2
#     Edge 103, Type (0, 0), BuildingBlock: OJICUG_clean_linker_0, # of connection points: 2
#     Edge 104, Type (0, 0), BuildingBlock: OJICUG_clean_linker_0, # of connection points: 2
#     Edge 105, Type (0, 0), BuildingBlock: OJICUG_clean_linker_0, # of connection points: 2
#     Edge 106, Type (0, 0), BuildingBlock: OJICUG_clean_linker_0, # of connection points: 2
#     Edge 107, Type (0, 0), BuildingBlock: OJICUG_clean_linker_0, # of connection points: 2
#     Edge 108, Type (0, 0), BuildingBlock: OJICUG_clean_linker_0, # of connection points: 2
#     Edge 109, Type (0, 0), BuildingBlock: OJICUG_clean_linker_0, # of connection points: 2
#     Edge 110, Type (0, 0), BuildingBlock: OJICUG_clean_linker_0, # of connection points: 2
#     Edge 111, Type (0, 0), BuildingBlock: OJICUG_clean_linker_0, # of connection points: 2
#     Edge 112, Type (0, 0), BuildingBlock: OJICUG_clean_linker_0, # of connection points: 2
#     Edge 113, Type (0, 0), BuildingBlock: OJICUG_clean_linker_0, # of connection points: 2
#     Edge 114, Type (0, 0), BuildingBlock: OJICUG_clean_linker_0, # of connection points: 2
#     Edge 115, Type (0, 0), BuildingBlock: OJICUG_clean_linker_0, # of connection points: 2
#     Edge 116, Type (0, 0), BuildingBlock: OJICUG_clean_linker_0, # of connection points: 2
#     Edge 117, Type (0, 0), BuildingBlock: OJICUG_clean_linker_0, # of connection points: 2
#     Edge 118, Type (0, 0), BuildingBlock: OJICUG_clean_linker_0, # of connection points: 2
#     Edge 119, Type (0, 0), BuildingBlock: OJICUG_clean_linker_0, # of connection points: 2
#     Edge 120, Type (0, 0), BuildingBlock: OJICUG_clean_linker_0, # of connection points: 2
#     Edge 121, Type (0, 0), BuildingBlock: OJICUG_clean_linker_0, # of connection points: 2
#     Edge 122, Type (0, 0), BuildingBlock: OJICUG_clean_linker_0, # of connection points: 2
#     Edge 123, Type (0, 0), BuildingBlock: OJICUG_clean_linker_0, # of connection points: 2
#     Edge 124, Type (0, 0), BuildingBlock: OJICUG_clean_linker_0, # of connection points: 2
#     Edge 125, Type (0, 0), BuildingBlock: OJICUG_clean_linker_0, # of connection points: 2
#     Edge 126, Type (0, 0), BuildingBlock: OJICUG_clean_linker_0, # of connection points: 2
#     Edge 127, Type (0, 0), BuildingBlock: OJICUG_clean_linker_0, # of connection points: 2
#     Edge 128, Type (0, 0), BuildingBlock: OJICUG_clean_linker_0, # of connection points: 2
#     Edge 129, Type (0, 0), BuildingBlock: OJICUG_clean_linker_0, # of connection points: 2
#     Edge 130, Type (0, 0), BuildingBlock: OJICUG_clean_linker_0, # of connection points: 2
#     Edge 131, Type (0, 0), BuildingBlock: OJICUG_clean_linker_0, # of connection points: 2
#     Edge 132, Type (0, 0), BuildingBlock: OJICUG_clean_linker_0, # of connection points: 2
#     Edge 133, Type (0, 0), BuildingBlock: OJICUG_clean_linker_0, # of connection points: 2
#     Edge 134, Type (0, 0), BuildingBlock: OJICUG_clean_linker_0, # of connection points: 2
#     Edge 135, Type (0, 0), BuildingBlock: OJICUG_clean_linker_0, # of connection points: 2
#     Edge 136, Type (0, 0), BuildingBlock: OJICUG_clean_linker_0, # of connection points: 2
#     Edge 137, Type (0, 0), BuildingBlock: OJICUG_clean_linker_0, # of connection points: 2
#     Edge 138, Type (0, 0), BuildingBlock: OJICUG_clean_linker_0, # of connection points: 2
#     Edge 139, Type (0, 0), BuildingBlock: OJICUG_clean_linker_0, # of connection points: 2
#     Edge 140, Type (0, 0), BuildingBlock: OJICUG_clean_linker_0, # of connection points: 2
#     Edge 141, Type (0, 0), BuildingBlock: OJICUG_clean_linker_0, # of connection points: 2
#     Edge 142, Type (0, 0), BuildingBlock: OJICUG_clean_linker_0, # of connection points: 2
#     Edge 143, Type (0, 0), BuildingBlock: OJICUG_clean_linker_0, # of connection points: 2
# Relax obj value: 0.179
# Max RMSD: 0.215
# Mean RMSD: 0.203
data_MOF--net-rho--node1-NAHDIM_clean_sbu_0--edge1-OJICUG_clean_linker_0
_symmetry_space_group_name_H-M    P1
_symmetry_Int_Tables_number       1
_symmetry_cell_setting            triclinic
loop_
_symmetry_equiv_pos_as_xyz
'x, y, z'
_cell_length_a     52.131769
_cell_length_b     52.38068
_cell_length_c     52.31382
_cell_angle_alpha  90.382506
_cell_angle_beta   90.677435
_cell_angle_gamma 92.178148
loop_
_atom_site_label
_atom_site_type_symbol
_atom_site_fract_x
_atom_site_fract_y
_atom_site_fract_z
_atom_type_partial_charge
C0 C 0.12643 0.20018 0.36511 0.0
O1 O 0.12069 0.21356 0.34481 0.0
O2 O 0.09913 0.26187 0.36569 0.0
Zn3 Zn 0.09427 0.23519 0.39263 0.0
O4 O 0.10259 0.24947 0.42749 0.0
C5 C 0.04208 0.22452 0.37443 0.0
O6 O 0.0505 0.23451 0.353 0.0
O7 O 0.11713 0.20604 0.3866 0.0
C8 C 0.08735 0.26408 0.43872 0.0
O9 O 0.06681 0.27141 0.42639 0.0
C10 C 0.11629 0.27972 0.36699 0.0
O11 O 0.13185 0.28121 0.38693 0.0
O12 O 0.05752 0.22243 0.39319 0.0
C13 C 0.69463 0.12012 0.3526 0.0
O14 O 0.70639 0.14118 0.36111 0.0
O15 O 0.75895 0.11313 0.38353 0.0
Zn16 Zn 0.72687 0.09171 0.38855 0.0
O17 O 0.73404 0.05443 0.38537 0.0
C18 C 0.71915 0.11917 0.43576 0.0
O19 O 0.73039 0.13823 0.42346 0.0
O20 O 0.70028 0.09875 0.36202 0.0
C21 C 0.73754 0.04063 0.40489 0.0
O22 O 0.73831 0.05133 0.42769 0.0
C23 C 0.76869 0.11977 0.36235 0.0
O24 O 0.75771 0.11184 0.34085 0.0
O25 O 0.71427 0.09821 0.424 0.0
C26 C 0.8306 0.78986 0.37101 0.0
O27 O 0.83351 0.77479 0.35117 0.0
O28 O 0.86031 0.72992 0.37221 0.0
Zn29 Zn 0.86952 0.75962 0.39551 0.0
O30 O 0.86833 0.74983 0.43257 0.0
C31 C 0.91909 0.76462 0.37082 0.0
O32 O 0.9088 0.74806 0.35436 0.0
O33 O 0.84437 0.78706 0.39091 0.0
C34 C 0.88813 0.7423 0.44429 0.0
O35 O 0.9092 0.7388 0.43139 0.0
C36 C 0.86487 0.70696 0.37778 0.0
O37 O 0.87499 0.70193 0.40021 0.0
O38 O 0.90545 0.77301 0.38876 0.0
C39 C 0.28476 0.88838 0.35543 0.0
O40 O 0.2856 0.90836 0.37078 0.0
O41 O 0.20694 0.8576 0.37389 0.0
Zn42 Zn 0.237 0.88209 0.37939 0.0
O43 O 0.22802 0.91811 0.37112 0.0
C44 C 0.24964 0.86058 0.42878 0.0
O45 O 0.24326 0.83876 0.41746 0.0
O46 O 0.26545 0.8729 0.35619 0.0
C47 C 0.21954 0.93292 0.38811 0.0
O48 O 0.21492 0.92393 0.41105 0.0
C49 C 0.18713 0.86244 0.36066 0.0
O50 O 0.18557 0.88484 0.34973 0.0
O51 O 0.24883 0.88113 0.41608 0.0
C52 C 0.1034 0.74049 0.64108 0.0
O53 O 0.10531 0.76328 0.65175 0.0
O54 O 0.11943 0.79537 0.60594 0.0
Zn55 Zn 0.0892 0.77118 0.59989 0.0
O56 O 0.05588 0.78352 0.61368 0.0
C57 C 0.09263 0.78246 0.54682 0.0
O58 O 0.10152 0.80434 0.55637 0.0
O59 O 0.09661 0.73857 0.61773 0.0
C60 C 0.04142 0.79823 0.60139 0.0
O61 O 0.04932 0.80783 0.57959 0.0
C62 C 0.12028 0.817 0.61707 0.0
O63 O 0.09928 0.82595 0.62678 0.0
O64 O 0.08569 0.7647 0.56197 0.0
C65 C 0.22009 0.13459 0.61566 0.0
O66 O 0.23517 0.13074 0.63545 0.0
O67 O 0.28193 0.10833 0.61588 0.0
Zn68 Zn 0.25554 0.1032 0.58787 0.0
O69 O 0.26918 0.11142 0.55303 0.0
C70 C 0.2491 0.05068 0.60432 0.0
O71 O 0.26033 0.05944 0.6254 0.0
O72 O 0.22517 0.1246 0.59419 0.0
C73 C 0.28285 0.09537 0.54168 0.0
O74 O 0.29028 0.07527 0.55428 0.0
C75 C 0.30553 0.11462 0.61343 0.0
O76 O 0.3146 0.11964 0.59062 0.0
O77 O 0.24423 0.06612 0.58645 0.0
C78 C 0.85646 0.27076 0.62842 0.0
O79 O 0.83738 0.25386 0.62544 0.0
O80 O 0.86597 0.20416 0.60736 0.0
Zn81 Zn 0.88975 0.2345 0.60199 0.0
O82 O 0.92587 0.22782 0.61316 0.0
C83 C 0.86824 0.24377 0.55276 0.0
O84 O 0.84691 0.24254 0.56591 0.0
O85 O 0.87863 0.26584 0.62031 0.0
C86 C 0.94061 0.21546 0.59887 0.0
O87 O 0.9314 0.20553 0.57737 0.0
C88 C 0.85706 0.19549 0.62819 0.0
O89 O 0.86385 0.20665 0.64992 0.0
O90 O 0.88954 0.2414 0.56438 0.0
C91 C 0.74295 0.84369 0.62798 0.0
O92 O 0.72389 0.83487 0.64199 0.0
O93 O 0.68014 0.8681 0.63384 0.0
Zn94 Zn 0.70431 0.87556 0.60507 0.0
O95 O 0.69044 0.86284 0.57119 0.0
C96 C 0.72868 0.92715 0.60397 0.0
O97 O 0.75038 0.91607 0.60882 0.0
O98 O 0.73885 0.86081 0.61148 0.0
C99 C 0.67218 0.87443 0.56064 0.0
O100 O 0.66094 0.89235 0.5736 0.0
C101 C 0.68612 0.87896 0.65499 0.0
O102 O 0.70754 0.89298 0.65661 0.0
O103 O 0.70797 0.91367 0.60202 0.0
C104 C 0.35105 0.11163 0.27086 0.0
O105 O 0.34167 0.10326 0.2488 0.0
O106 O 0.38949 0.13836 0.21527 0.0
Zn107 Zn 0.39585 0.11148 0.24151 0.0
O108 O 0.38627 0.07649 0.22779 0.0
C109 C 0.44988 0.12149 0.23521 0.0
O110 O 0.4416 0.13338 0.21487 0.0
O111 O 0.37489 0.11737 0.27274 0.0
C112 C 0.39909 0.0663 0.21021 0.0
O113 O 0.41801 0.07959 0.19969 0.0
C114 C 0.37497 0.13529 0.19574 0.0
O115 O 0.36184 0.11359 0.19246 0.0
O116 O 0.43363 0.11139 0.25039 0.0
C117 C 0.85532 0.35289 0.29202 0.0
O118 O 0.8383 0.35495 0.27351 0.0
O119 O 0.86893 0.38155 0.22994 0.0
Zn120 Zn 0.89023 0.38615 0.26172 0.0
O121 O 0.92599 0.37552 0.25489 0.0
C122 C 0.86967 0.43457 0.27288 0.0
O123 O 0.84801 0.42135 0.26913 0.0
O124 O 0.87697 0.36472 0.29053 0.0
C125 C 0.94034 0.3863 0.2384 0.0
O126 O 0.93157 0.40526 0.22496 0.0
C127 C 0.86428 0.36068 0.21797 0.0
O128 O 0.87333 0.33938 0.22687 0.0
O129 O 0.89075 0.42327 0.27137 0.0
C130 C 0.60407 0.83525 0.20717 0.0
O131 O 0.59526 0.82865 0.22971 0.0
O132 O 0.61348 0.87907 0.2616 0.0
Zn133 Zn 0.59488 0.88361 0.22819 0.0
O134 O 0.55704 0.87757 0.23274 0.0
C135 C 0.62243 0.93153 0.21896 0.0
O136 O 0.64208 0.91925 0.22793 0.0
O137 O 0.60657 0.85882 0.20184 0.0
C138 C 0.54424 0.8946 0.2436 0.0
O139 O 0.55628 0.91545 0.25227 0.0
C140 C 0.60404 0.86694 0.28048 0.0
O141 O 0.58099 0.85605 0.27839 0.0
O142 O 0.60075 0.91979 0.21662 0.0
C143 C 0.13537 0.61428 0.22632 0.0
O144 O 0.13242 0.63261 0.24317 0.0
O145 O 0.11452 0.60717 0.29054 0.0
Zn146 Zn 0.10592 0.58246 0.2618 0.0
O147 O 0.11351 0.54621 0.27073 0.0
C148 C 0.05539 0.60323 0.25415 0.0
O149 O 0.06683 0.62515 0.26059 0.0
O150 O 0.12582 0.59205 0.23056 0.0
C151 C 0.09697 0.53238 0.28248 0.0
O152 O 0.07592 0.54271 0.29048 0.0
C153 C 0.09992 0.60879 0.30971 0.0
O154 O 0.07992 0.59291 0.31143 0.0
O155 O 0.06838 0.58324 0.25313 0.0
C156 C 0.36403 0.84197 0.78554 0.0
O157 O 0.34639 0.84224 0.76742 0.0
O158 O 0.37056 0.86771 0.72364 0.0
Zn159 Zn 0.39137 0.87971 0.75432 0.0
O160 O 0.42933 0.87822 0.7485 0.0
C161 C 0.36301 0.92654 0.75571 0.0
O162 O 0.34481 0.91259 0.74419 0.0
O163 O 0.38374 0.8569 0.78409 0.0
C164 C 0.4426 0.89755 0.74102 0.0
O165 O 0.43093 0.91843 0.73474 0.0
C166 C 0.37514 0.87547 0.70114 0.0
O167 O 0.3951 0.89097 0.69729 0.0
O168 O 0.38364 0.91618 0.76249 0.0
C169 C 0.12883 0.37657 0.77054 0.0
O170 O 0.14002 0.36663 0.75064 0.0
O171 O 0.10523 0.36686 0.70804 0.0
Zn172 Zn 0.09529 0.39527 0.73155 0.0
O173 O 0.10981 0.42957 0.72048 0.0
C174 C 0.0441 0.38867 0.71185 0.0
O175 O 0.05674 0.38049 0.69202 0.0
O176 O 0.10873 0.38918 0.76712 0.0
C177 C 0.09935 0.443 0.7034 0.0
O178 O 0.07895 0.43371 0.69108 0.0
C179 C 0.11956 0.36922 0.68867 0.0
O180 O 0.1301 0.39169 0.68328 0.0
O181 O 0.05659 0.39613 0.73173 0.0
C182 C 0.62777 0.11764 0.70508 0.0
O183 O 0.62236 0.13887 0.71702 0.0
O184 O 0.60307 0.12487 0.76668 0.0
Zn185 Zn 0.60002 0.09238 0.74634 0.0
O186 O 0.61376 0.06252 0.7653 0.0
C187 C 0.54707 0.10233 0.73586 0.0
O188 O 0.55566 0.1262 0.73735 0.0
O189 O 0.61975 0.0963 0.71396 0.0
C190 C 0.60051 0.05103 0.78223 0.0
O191 O 0.57838 0.06019 0.78875 0.0
C192 C 0.61563 0.12843 0.7874 0.0
O193 O 0.62815 0.10955 0.79739 0.0
O194 O 0.56277 0.08453 0.73837 0.0
C195 C 0.87294 0.63624 0.68503 0.0
O196 O 0.85727 0.6162 0.68191 0.0
O197 O 0.87482 0.60928 0.75678 0.0
Zn198 Zn 0.89672 0.60688 0.7257 0.0
O199 O 0.93385 0.60919 0.73596 0.0
C200 C 0.87147 0.55802 0.71286 0.0
O201 O 0.85344 0.56605 0.72794 0.0
O202 O 0.89038 0.63597 0.70217 0.0
C203 C 0.94435 0.5904 0.7465 0.0
O204 O 0.93018 0.56993 0.75199 0.0
C205 C 0.87725 0.62792 0.77239 0.0
O206 O 0.89453 0.64624 0.76805 0.0
O207 O 0.89075 0.57277 0.70827 0.0
C208 C 0.29667 0.36599 0.12041 0.0
O209 O 0.28437 0.37089 0.14155 0.0
O210 O 0.23349 0.3887 0.12549 0.0
Zn211 Zn 0.25656 0.39428 0.09543 0.0
O212 O 0.23903 0.38312 0.06267 0.0
C213 C 0.26572 0.44681 0.1114 0.0
O214 O 0.26149 0.43744 0.13427 0.0
O215 O 0.28842 0.37448 0.09929 0.0
C216 C 0.22116 0.39603 0.05316 0.0
O217 O 0.21322 0.41588 0.06589 0.0
C218 C 0.21265 0.37534 0.12488 0.0
O219 O 0.20529 0.36374 0.10355 0.0
O220 O 0.26543 0.43176 0.09226 0.0
C221 C 0.20303 0.60231 0.84738 0.0
O222 O 0.22586 0.59523 0.84046 0.0
O223 O 0.25809 0.61386 0.88853 0.0
Zn224 Zn 0.22619 0.592 0.8941 0.0
O225 O 0.23188 0.55536 0.88519 0.0
C226 C 0.21647 0.61648 0.942 0.0
O227 O 0.22085 0.63712 0.92833 0.0
O228 O 0.19801 0.60343 0.87105 0.0
C229 C 0.24322 0.54044 0.90021 0.0
O230 O 0.25225 0.54931 0.92222 0.0
C231 C 0.27818 0.60659 0.87753 0.0
O232 O 0.27884 0.58315 0.86855 0.0
O233 O 0.21679 0.59474 0.93111 0.0
C234 C 0.35494 0.28578 0.86509 0.0
O235 O 0.36087 0.27443 0.8436 0.0
O236 O 0.38605 0.22576 0.86091 0.0
Zn237 Zn 0.39112 0.25174 0.88912 0.0
O238 O 0.38627 0.23638 0.92384 0.0
C239 C 0.44228 0.26425 0.86996 0.0
O240 O 0.43352 0.25332 0.84876 0.0
O241 O 0.36582 0.27937 0.88581 0.0
C242 C 0.40368 0.22351 0.93424 0.0
O243 O 0.42402 0.21809 0.92094 0.0
C244 C 0.3769 0.20314 0.8637 0.0
O245 O 0.36961 0.1955 0.88644 0.0
O246 O 0.4273 0.26648 0.88876 0.0
C247 C 0.79814 0.36407 0.85222 0.0
O248 O 0.78155 0.34496 0.8558 0.0
O249 O 0.73625 0.37145 0.88206 0.0
Zn250 Zn 0.7683 0.39284 0.8892 0.0
O251 O 0.76124 0.42993 0.88393 0.0
C252 C 0.77695 0.3666 0.93698 0.0
O253 O 0.76785 0.34648 0.92423 0.0
O254 O 0.79609 0.38468 0.86483 0.0
C255 C 0.75891 0.44546 0.90245 0.0
O256 O 0.75996 0.43694 0.92598 0.0
C257 C 0.71636 0.3761 0.89481 0.0
O258 O 0.71746 0.39488 0.91162 0.0
O259 O 0.77964 0.38782 0.92555 0.0
C260 C 0.64 0.68798 0.87392 0.0
O261 O 0.63416 0.70377 0.85552 0.0
O262 O 0.6022 0.74272 0.8785 0.0
Zn263 Zn 0.59986 0.7127 0.90212 0.0
O264 O 0.60435 0.72387 0.93867 0.0
C265 C 0.55063 0.69864 0.87908 0.0
O266 O 0.56067 0.70982 0.85893 0.0
O267 O 0.62733 0.68809 0.89452 0.0
C268 C 0.58669 0.73538 0.95002 0.0
O269 O 0.56606 0.74134 0.93703 0.0
C270 C 0.61015 0.76517 0.88466 0.0
O271 O 0.61825 0.76993 0.90814 0.0
O272 O 0.56445 0.6963 0.89904 0.0
C273 C 0.7275 0.6185 0.10363 0.0
O274 O 0.7226 0.5938 0.10153 0.0
O275 O 0.80513 0.60661 0.12115 0.0
Zn276 Zn 0.78011 0.60586 0.09182 0.0
O277 O 0.79561 0.6188 0.05927 0.0
C278 C 0.76527 0.55374 0.10365 0.0
O279 O 0.76861 0.56196 0.12728 0.0
O280 O 0.75027 0.62736 0.10045 0.0
C281 C 0.8128 0.60642 0.04816 0.0
O282 O 0.82228 0.58662 0.05974 0.0
C283 C 0.82019 0.62526 0.12749 0.0
O284 O 0.82071 0.64609 0.11363 0.0
O285 O 0.76854 0.56932 0.08537 0.0
C286 C 0.37481 0.78276 0.13051 0.0
O287 O 0.35904 0.76447 0.13857 0.0
O288 O 0.3646 0.71945 0.10573 0.0
Zn289 Zn 0.39497 0.74279 0.09845 0.0
O290 O 0.42747 0.7288 0.11261 0.0
C291 C 0.37852 0.75246 0.04741 0.0
O292 O 0.35766 0.75877 0.05943 0.0
O293 O 0.39103 0.77779 0.11342 0.0
C294 C 0.4388 0.71085 0.1015 0.0
O295 O 0.42847 0.70047 0.0807 0.0
C296 C 0.36404 0.7025 0.12298 0.0
O297 O 0.38414 0.70013 0.13805 0.0
O298 O 0.39771 0.7454 0.06037 0.0
C299 C 0.64651 0.20872 0.12079 0.0
O300 O 0.66403 0.22737 0.1225 0.0
O301 O 0.64015 0.27352 0.09787 0.0
Zn302 Zn 0.61506 0.2443 0.09168 0.0
O303 O 0.58008 0.25247 0.10415 0.0
C304 C 0.63289 0.2376 0.04065 0.0
O305 O 0.65538 0.23876 0.05229 0.0
O306 O 0.62566 0.21216 0.10869 0.0
C307 C 0.5658 0.26655 0.09092 0.0
O308 O 0.5749 0.27688 0.06991 0.0
C309 C 0.64493 0.28515 0.11885 0.0
O310 O 0.63288 0.27786 0.13964 0.0
O311 O 0.61268 0.23874 0.05385 0.0
C312 C 0.83974 0.79398 0.62893 0.0
O313 O 0.84341 0.77457 0.64413 0.0
O314 O 0.88271 0.7437 0.62398 0.0
Zn315 Zn 0.88332 0.77473 0.60167 0.0
O316 O 0.8776 0.76349 0.56532 0.0
C317 C 0.93369 0.78915 0.62218 0.0
O318 O 0.92565 0.77603 0.64205 0.0
O319 O 0.85509 0.7982 0.6106 0.0
C320 C 0.89433 0.75072 0.55396 0.0
O321 O 0.91506 0.74438 0.56657 0.0
C322 C 0.86722 0.72472 0.62009 0.0
O323 O 0.85064 0.72535 0.60102 0.0
O324 O 0.91835 0.79227 0.6035 0.0
C325 C 0.29378 0.86721 0.62608 0.0
O326 O 0.27138 0.85724 0.6328 0.0
O327 O 0.23221 0.87039 0.59708 0.0
Zn328 Zn 0.26352 0.89149 0.58717 0.0
O329 O 0.25858 0.92826 0.59585 0.0
C330 C 0.26449 0.86631 0.53829 0.0
O331 O 0.25985 0.84602 0.55238 0.0
O332 O 0.29509 0.88126 0.6064 0.0
C333 C 0.24502 0.94268 0.58225 0.0
O334 O 0.23345 0.93331 0.5616 0.0
C335 C 0.21421 0.87851 0.61077 0.0
O336 O 0.21599 0.90184 0.62014 0.0
O337 O 0.26777 0.88797 0.54917 0.0
C338 C 0.13864 0.20607 0.61994 0.0
O339 O 0.13604 0.22118 0.63982 0.0
O340 O 0.1069 0.26593 0.62036 0.0
Zn341 Zn 0.10103 0.23775 0.59456 0.0
O342 O 0.10648 0.25082 0.55907 0.0
C343 C 0.0499 0.2279 0.61479 0.0
O344 O 0.05925 0.24004 0.6351 0.0
O345 O 0.12543 0.20961 0.59982 0.0
C346 C 0.09057 0.26519 0.54831 0.0
O347 O 0.07094 0.27302 0.56138 0.0
C348 C 0.12193 0.28522 0.6169 0.0
O349 O 0.13496 0.28702 0.5956 0.0
O350 O 0.06447 0.22413 0.59594 0.0
C351 C 0.70117 0.11681 0.62354 0.0
O352 O 0.71246 0.13781 0.61489 0.0
O353 O 0.7681 0.11053 0.59911 0.0
Zn354 Zn 0.73669 0.08838 0.59167 0.0
O355 O 0.74406 0.05125 0.59493 0.0
C356 C 0.72627 0.11628 0.54533 0.0
O357 O 0.73545 0.136 0.55865 0.0
O358 O 0.70861 0.09522 0.61611 0.0
C359 C 0.72453 0.03641 0.59115 0.0
O360 O 0.70252 0.0464 0.58517 0.0
C361 C 0.77556 0.11795 0.62124 0.0
O362 O 0.76254 0.11045 0.64137 0.0
O363 O 0.72471 0.09445 0.55575 0.0
C364 C 0.85184 0.27023 0.36325 0.0
O365 O 0.83326 0.25258 0.36349 0.0
O366 O 0.85848 0.2052 0.38606 0.0
Zn367 Zn 0.88346 0.23453 0.39231 0.0
O368 O 0.91864 0.22651 0.38031 0.0
C369 C 0.86458 0.24394 0.44247 0.0
O370 O 0.84245 0.24308 0.43014 0.0
O371 O 0.87314 0.26615 0.37425 0.0
C372 C 0.93388 0.21427 0.39435 0.0
O373 O 0.92575 0.20534 0.41635 0.0
C374 C 0.85226 0.19526 0.36456 0.0
O375 O 0.86279 0.20434 0.34364 0.0
O376 O 0.88508 0.24128 0.43001 0.0
C377 C 0.7435 0.85394 0.37824 0.0
O378 O 0.72821 0.85779 0.35862 0.0
O379 O 0.68179 0.87881 0.37772 0.0
Zn380 Zn 0.70616 0.88148 0.40755 0.0
O381 O 0.69115 0.86846 0.44032 0.0
C382 C 0.72447 0.93141 0.3936 0.0
O383 O 0.72569 0.92034 0.37105 0.0
O384 O 0.73766 0.86222 0.40021 0.0
C385 C 0.67338 0.8799 0.45157 0.0
O386 O 0.66297 0.89935 0.44024 0.0
C387 C 0.66176 0.8644 0.37536 0.0
O388 O 0.65485 0.8493 0.39422 0.0
O389 O 0.71667 0.91834 0.41253 0.0
C390 C 0.10343 0.70241 0.36775 0.0
O391 O 0.1228 0.71905 0.36589 0.0
O392 O 0.1044 0.76898 0.37456 0.0
Zn393 Zn 0.07667 0.74546 0.38845 0.0
O394 O 0.04148 0.75408 0.37575 0.0
C395 C 0.08614 0.76906 0.43718 0.0
O396 O 0.09306 0.7882 0.42237 0.0
O397 O 0.08252 0.70941 0.37735 0.0
C398 C 0.02841 0.77155 0.38555 0.0
O399 O 0.03864 0.7859 0.40397 0.0
C400 C 0.10136 0.78978 0.36275 0.0
O401 O 0.07806 0.79676 0.35703 0.0
O402 O 0.07807 0.7481 0.42699 0.0
C403 C 0.20405 0.12462 0.36284 0.0
O404 O 0.21709 0.12014 0.34205 0.0
O405 O 0.26536 0.09778 0.35895 0.0
Zn406 Zn 0.24134 0.09309 0.38838 0.0
O407 O 0.25816 0.10298 0.42188 0.0
C408 C 0.22777 0.04151 0.37138 0.0
O409 O 0.23265 0.05079 0.34861 0.0
O410 O 0.21088 0.11477 0.38386 0.0
C411 C 0.27425 0.08879 0.43262 0.0
O412 O 0.28138 0.06817 0.4206 0.0
C413 C 0.28678 0.11015 0.36002 0.0
O414 O 0.29448 0.12092 0.38167 0.0
O415 O 0.22976 0.0562 0.39077 0.0
C416 C 0.60068 0.84577 0.81073 0.0
O417 O 0.59243 0.84005 0.78749 0.0
O418 O 0.62192 0.88967 0.75992 0.0
Zn419 Zn 0.59745 0.89412 0.78892 0.0
O420 O 0.56127 0.8878 0.77615 0.0
C421 C 0.61943 0.94513 0.79671 0.0
O422 O 0.6397 0.93534 0.78634 0.0
O423 O 0.60477 0.86912 0.81676 0.0
C424 C 0.55159 0.90372 0.76093 0.0
O425 O 0.56571 0.92358 0.75355 0.0
C426 C 0.61614 0.87704 0.7397 0.0
O427 O 0.59329 0.86574 0.7374 0.0
O428 O 0.59994 0.93061 0.80118 0.0
C429 C 0.11123 0.65073 0.70336 0.0
O430 O 0.1108 0.65343 0.72834 0.0
O431 O 0.12836 0.60372 0.74777 0.0
Zn432 Zn 0.10247 0.60044 0.71909 0.0
O433 O 0.06673 0.60427 0.73189 0.0
C434 C 0.12226 0.55091 0.70761 0.0
O435 O 0.14226 0.55991 0.72077 0.0
O436 O 0.10883 0.6284 0.69378 0.0
C437 C 0.05432 0.58606 0.74264 0.0
O438 O 0.06567 0.56449 0.74683 0.0
C439 C 0.12337 0.60983 0.77067 0.0
O440 O 0.09974 0.61492 0.77682 0.0
O441 O 0.10374 0.56542 0.70318 0.0
C442 C 0.38033 0.13284 0.77842 0.0
O443 O 0.3886 0.14111 0.75621 0.0
O444 O 0.36423 0.09518 0.72119 0.0
Zn445 Zn 0.38593 0.08685 0.75184 0.0
O446 O 0.42323 0.09449 0.74469 0.0
C447 C 0.36077 0.03655 0.75424 0.0
O448 O 0.34161 0.04797 0.74318 0.0
O449 O 0.37666 0.10895 0.78154 0.0
C450 C 0.43832 0.07757 0.73721 0.0
O451 O 0.42935 0.05405 0.7334 0.0
C452 C 0.37319 0.1047 0.70071 0.0
O453 O 0.39796 0.10984 0.69902 0.0
O454 O 0.38104 0.04956 0.76027 0.0
C455 C 0.86134 0.3683 0.76291 0.0
O456 O 0.8666 0.34823 0.74902 0.0
O457 O 0.87129 0.37437 0.6936 0.0
Zn458 Zn 0.88183 0.39996 0.72079 0.0
O459 O 0.87082 0.4354 0.71254 0.0
C460 C 0.93363 0.39349 0.70527 0.0
O461 O 0.92181 0.38755 0.6836 0.0
O462 O 0.86631 0.39061 0.75445 0.0
C463 C 0.88314 0.45043 0.69774 0.0
O464 O 0.90316 0.44215 0.68562 0.0
C465 C 0.85045 0.36124 0.69075 0.0
O466 O 0.83135 0.36475 0.70639 0.0
O467 O 0.92043 0.39995 0.72438 0.0
C468 C 0.64313 0.12385 0.18918 0.0
O469 O 0.65894 0.12245 0.20882 0.0
O470 O 0.62619 0.09723 0.25102 0.0
Zn471 Zn 0.60689 0.09092 0.2182 0.0
O472 O 0.57065 0.1016 0.22196 0.0
C473 C 0.62768 0.04148 0.21286 0.0
O474 O 0.64897 0.05437 0.21913 0.0
O475 O 0.62171 0.11146 0.18942 0.0
C476 C 0.55664 0.09661 0.24112 0.0
O477 O 0.56591 0.08341 0.26016 0.0
C478 C 0.63017 0.11865 0.26218 0.0
O479 O 0.62154 0.13947 0.25178 0.0
O480 O 0.607 0.05337 0.21044 0.0
C481 C 0.86744 0.63362 0.2957 0.0
O482 O 0.85849 0.6391 0.2729 0.0
O483 O 0.87467 0.60042 0.2363 0.0
Zn484 Zn 0.8947 0.59458 0.26859 0.0
O485 O 0.93178 0.60424 0.26326 0.0
C486 C 0.87086 0.54472 0.27615 0.0
O487 O 0.84968 0.55692 0.27184 0.0
O488 O 0.88228 0.6151 0.29821 0.0
C489 C 0.94526 0.58981 0.24971 0.0
O490 O 0.93428 0.56945 0.23884 0.0
C491 C 0.88 0.61835 0.22076 0.0
O492 O 0.89906 0.63472 0.2261 0.0
O493 O 0.89224 0.55717 0.27643 0.0
C494 C 0.35339 0.88436 0.27021 0.0
O495 O 0.35431 0.86408 0.25538 0.0
O496 O 0.37318 0.88168 0.20572 0.0
Zn497 Zn 0.38401 0.90936 0.23087 0.0
O498 O 0.37769 0.94457 0.21777 0.0
C499 C 0.4337 0.88711 0.23885 0.0
O500 O 0.4212 0.86531 0.23414 0.0
O501 O 0.36469 0.9051 0.26348 0.0
C502 C 0.39467 0.9569 0.2051 0.0
O503 O 0.41563 0.94548 0.19854 0.0
C504 C 0.38547 0.87854 0.18519 0.0
O505 O 0.40456 0.89458 0.17975 0.0
O506 O 0.42161 0.9077 0.23875 0.0
C507 C 0.14689 0.37731 0.21276 0.0
O508 O 0.15576 0.38658 0.23467 0.0
O509 O 0.10579 0.35247 0.26783 0.0
Zn510 Zn 0.10097 0.37867 0.24058 0.0
O511 O 0.10999 0.41381 0.25411 0.0
C512 C 0.04731 0.36243 0.23833 0.0
O513 O 0.05525 0.34333 0.2521 0.0
O514 O 0.12306 0.3717 0.21044 0.0
C515 C 0.09608 0.42322 0.27129 0.0
O516 O 0.07719 0.40905 0.28077 0.0
C517 C 0.12059 0.35538 0.28718 0.0
O518 O 0.13475 0.37654 0.28979 0.0
O519 O 0.06365 0.37899 0.23023 0.0
C520 C 0.73371 0.63282 0.87106 0.0
O521 O 0.74759 0.63155 0.85032 0.0
O522 O 0.79814 0.61059 0.86613 0.0
Zn523 Zn 0.77547 0.60648 0.89661 0.0
O524 O 0.7923 0.61967 0.92901 0.0
C525 C 0.76278 0.55388 0.88338 0.0
O526 O 0.76194 0.5628 0.85998 0.0
O527 O 0.74209 0.62369 0.89185 0.0
C528 C 0.81044 0.60759 0.93915 0.0
O529 O 0.81985 0.58835 0.92656 0.0
C530 C 0.81416 0.62904 0.86252 0.0
O531 O 0.81656 0.64748 0.87962 0.0
O532 O 0.76788 0.56915 0.90184 0.0
C533 C 0.7984 0.36373 0.12873 0.0
O534 O 0.786 0.34319 0.11983 0.0
O535 O 0.73504 0.37067 0.09853 0.0
Zn536 Zn 0.76623 0.39353 0.09418 0.0
O537 O 0.75813 0.43023 0.10017 0.0
C538 C 0.77672 0.36765 0.04694 0.0
O539 O 0.7679 0.3476 0.05952 0.0
O540 O 0.79323 0.3855 0.11994 0.0
C541 C 0.75446 0.4458 0.0821 0.0
O542 O 0.75417 0.4374 0.05838 0.0
C543 C 0.72501 0.36438 0.11969 0.0
O544 O 0.73487 0.37385 0.14111 0.0
O545 O 0.7788 0.38914 0.05835 0.0
C546 C 0.6453 0.68849 0.11273 0.0
O547 O 0.65058 0.71311 0.11065 0.0
O548 O 0.60258 0.73594 0.13307 0.0
Zn549 Zn 0.59683 0.70806 0.10685 0.0
O550 O 0.60239 0.72118 0.07134 0.0
C551 C 0.54542 0.70089 0.1262 0.0
O552 O 0.55533 0.71303 0.14626 0.0
O553 O 0.62194 0.68061 0.1125 0.0
C554 C 0.58527 0.73353 0.05983 0.0
O555 O 0.56442 0.73932 0.07213 0.0
C556 C 0.61102 0.75847 0.12838 0.0
O557 O 0.61734 0.7646 0.10491 0.0
O558 O 0.56004 0.69501 0.10799 0.0
C559 C 0.20326 0.62617 0.14074 0.0
O560 O 0.2207 0.64494 0.14035 0.0
O561 O 0.26203 0.62939 0.10624 0.0
Zn562 Zn 0.23411 0.60235 0.10145 0.0
O563 O 0.24754 0.56787 0.10943 0.0
C564 C 0.22053 0.62262 0.05207 0.0
O565 O 0.22538 0.64467 0.06359 0.0
O566 O 0.20496 0.60748 0.12533 0.0
C567 C 0.25868 0.55453 0.09284 0.0
O568 O 0.26268 0.56401 0.06997 0.0
C569 C 0.27913 0.62849 0.12367 0.0
O570 O 0.27855 0.6093 0.13972 0.0
O571 O 0.22215 0.60215 0.06479 0.0
C572 C 0.37511 0.29142 0.11748 0.0
O573 O 0.38162 0.27865 0.13793 0.0
O574 O 0.398 0.22809 0.11714 0.0
Zn575 Zn 0.40464 0.25427 0.09004 0.0
O576 O 0.39582 0.24007 0.05521 0.0
C577 C 0.45701 0.26119 0.10886 0.0
O578 O 0.44771 0.25066 0.12968 0.0
O579 O 0.38311 0.28452 0.09575 0.0
C580 C 0.41065 0.22527 0.04367 0.0
O581 O 0.43141 0.21782 0.05552 0.0
C582 C 0.38057 0.21052 0.11567 0.0
O583 O 0.36567 0.20881 0.09525 0.0
O584 O 0.44201 0.26513 0.0901 0.0
C585 C 0.27015 0.35339 0.87018 0.0
O586 O 0.25769 0.3603 0.84953 0.0
O587 O 0.20472 0.37121 0.86915 0.0
Zn588 Zn 0.2304 0.37964 0.89728 0.0
O589 O 0.21737 0.3717 0.9325 0.0
C590 C 0.23742 0.43221 0.87898 0.0
O591 O 0.22843 0.42324 0.857 0.0
O592 O 0.26196 0.35969 0.89202 0.0
C593 C 0.20569 0.38858 0.94493 0.0
O594 O 0.19942 0.40961 0.93325 0.0
C595 C 0.1829 0.38109 0.86732 0.0
O596 O 0.17568 0.39679 0.8853 0.0
O597 O 0.24027 0.41705 0.89754 0.0
C598 C 0.60699 0.22475 0.84009 0.0
O599 O 0.59585 0.24382 0.82881 0.0
O600 O 0.62799 0.28672 0.87629 0.0
Zn601 Zn 0.60278 0.25771 0.88303 0.0
O602 O 0.56656 0.26579 0.87303 0.0
C603 C 0.62587 0.24552 0.93087 0.0
O604 O 0.64661 0.246 0.91683 0.0
O605 O 0.61255 0.22656 0.86372 0.0
C606 C 0.55117 0.27495 0.88904 0.0
O607 O 0.55956 0.28075 0.91221 0.0
C608 C 0.62824 0.30616 0.89095 0.0
O609 O 0.61085 0.30741 0.90884 0.0
O610 O 0.60437 0.24977 0.92038 0.0
C611 C 0.36662 0.75856 0.8567 0.0
O612 O 0.34795 0.74105 0.85758 0.0
O613 O 0.36593 0.69746 0.88476 0.0
Zn614 Zn 0.39465 0.72372 0.88908 0.0
O615 O 0.42865 0.71084 0.87816 0.0
C616 C 0.37786 0.74218 0.93743 0.0
O617 O 0.35685 0.74604 0.92411 0.0
O618 O 0.38752 0.75507 0.86871 0.0
C619 C 0.44158 0.69668 0.89268 0.0
O620 O 0.43159 0.68895 0.91437 0.0
C621 C 0.36715 0.67567 0.87415 0.0
O622 O 0.38891 0.66874 0.86433 0.0
O623 O 0.39702 0.73308 0.92626 0.0
C624 C 0.13641 0.33842 0.32903 0.0
C625 C 0.12053 0.33561 0.30721 0.0
H626 H 0.14762 0.32289 0.36509 0.0
C627 C 0.10383 0.31399 0.30499 0.0
H628 H 0.1495 0.35486 0.33129 0.0
C629 C 0.10269 0.29581 0.32432 0.0
C630 C 0.11828 0.29874 0.34631 0.0
H631 H 0.09133 0.31121 0.28844 0.0
H632 H 0.08941 0.27951 0.32204 0.0
C633 C 0.13533 0.32012 0.34839 0.0
C634 C 0.66575 0.0974 0.32097 0.0
C635 C 0.67657 0.12053 0.33062 0.0
H636 H 0.64272 0.07875 0.29198 0.0
C637 C 0.6709 0.14346 0.3183 0.0
H638 H 0.66957 0.07937 0.33001 0.0
C639 C 0.65524 0.14309 0.29632 0.0
C640 C 0.64521 0.11978 0.28628 0.0
H641 H 0.67891 0.16159 0.32531 0.0
H642 H 0.65155 0.16094 0.28688 0.0
C643 C 0.65035 0.09702 0.29906 0.0
C644 C 0.85139 0.69229 0.33386 0.0
C645 C 0.86211 0.68684 0.35791 0.0
H646 H 0.84437 0.6796 0.29538 0.0
C647 C 0.87207 0.66265 0.36203 0.0
H648 H 0.84336 0.71069 0.33013 0.0
C649 C 0.87273 0.64486 0.34208 0.0
C650 C 0.86332 0.65086 0.31763 0.0
H651 H 0.88034 0.65779 0.38038 0.0
H652 H 0.88144 0.62674 0.3456 0.0
C653 C 0.85192 0.67444 0.31394 0.0
C654 C 0.32014 0.8635 0.29818 0.0
C655 C 0.33771 0.8839 0.29354 0.0
H656 H 0.28955 0.84888 0.3215 0.0
C657 C 0.33918 0.90467 0.31071 0.0
H658 H 0.31862 0.84719 0.28534 0.0
C659 C 0.3227 0.90556 0.33147 0.0
C660 C 0.30425 0.88579 0.33541 0.0
H661 H 0.3527 0.92058 0.3078 0.0
H662 H 0.32387 0.92219 0.34391 0.0
C663 C 0.30348 0.86449 0.31888 0.0
C664 C 0.10731 0.67118 0.66039 0.0
C665 C 0.11171 0.67351 0.68687 0.0
H666 H 0.10119 0.69057 0.62507 0.0
C667 C 0.11495 0.698 0.69781 0.0
H668 H 0.10477 0.65256 0.65139 0.0
C669 C 0.11294 0.71973 0.68277 0.0
C670 C 0.10754 0.71744 0.65647 0.0
H671 H 0.11851 0.70045 0.71814 0.0
H672 H 0.11501 0.73832 0.69192 0.0
C673 C 0.10519 0.69296 0.64533 0.0
C674 C 0.31297 0.10684 0.65994 0.0
C675 C 0.32282 0.11399 0.63602 0.0
H676 H 0.32107 0.09833 0.69901 0.0
C677 C 0.34933 0.11925 0.6338 0.0
H678 H 0.29263 0.10271 0.66237 0.0
C679 C 0.36571 0.11676 0.65494 0.0
C680 C 0.35588 0.10889 0.67866 0.0
H681 H 0.35751 0.12483 0.61564 0.0
H682 H 0.38611 0.12052 0.65256 0.0
C683 C 0.3293 0.10428 0.68098 0.0
C684 C 0.83134 0.29869 0.65747 0.0
C685 C 0.85293 0.29507 0.6422 0.0
H686 H 0.81346 0.32267 0.68493 0.0
C687 C 0.87215 0.31453 0.64113 0.0
H688 H 0.81616 0.28404 0.65857 0.0
C689 C 0.87053 0.33656 0.65595 0.0
C690 C 0.84972 0.33965 0.67236 0.0
H691 H 0.88886 0.31253 0.62927 0.0
H692 H 0.88612 0.35079 0.65512 0.0
C693 C 0.82977 0.32081 0.67251 0.0
C694 C 0.67552 0.88955 0.70017 0.0
C695 C 0.66878 0.87705 0.67708 0.0
H696 H 0.66427 0.89929 0.73804 0.0
C697 C 0.64499 0.8636 0.67509 0.0
H698 H 0.69374 0.90003 0.70237 0.0
C699 C 0.62804 0.86318 0.6956 0.0
C700 C 0.63456 0.8762 0.71848 0.0
H701 H 0.63926 0.85373 0.65755 0.0
H702 H 0.60968 0.85298 0.69335 0.0
C703 C 0.65861 0.88913 0.72065 0.0
C704 C 0.30887 0.10305 0.29185 0.0
C705 C 0.33437 0.11263 0.29346 0.0
H706 H 0.27392 0.09471 0.31155 0.0
C707 C 0.3439 0.12227 0.31701 0.0
H708 H 0.30091 0.0955 0.27401 0.0
C709 C 0.32833 0.12191 0.33861 0.0
C710 C 0.30302 0.11175 0.33708 0.0
H711 H 0.36346 0.12984 0.31884 0.0
H712 H 0.33628 0.12918 0.35656 0.0
C713 C 0.2934 0.10254 0.31342 0.0
C714 C 0.8684 0.3133 0.35019 0.0
C715 C 0.84965 0.29346 0.34767 0.0
H716 H 0.88457 0.34783 0.33487 0.0
C717 C 0.83054 0.2951 0.32862 0.0
H718 H 0.88315 0.31281 0.36493 0.0
C719 C 0.83138 0.31531 0.31122 0.0
C720 C 0.85131 0.33414 0.3127 0.0
H721 H 0.81577 0.28013 0.3263 0.0
H722 H 0.81724 0.31545 0.2959 0.0
C723 C 0.8692 0.33341 0.33294 0.0
C724 C 0.6234 0.85065 0.34842 0.0
C725 C 0.64682 0.86464 0.35118 0.0
H726 H 0.5914 0.84041 0.32386 0.0
C727 C 0.65608 0.87906 0.33044 0.0
H728 H 0.61577 0.83935 0.36404 0.0
C729 C 0.64227 0.87958 0.3075 0.0
C730 C 0.61876 0.86579 0.30474 0.0
H731 H 0.67411 0.89001 0.33186 0.0
H732 H 0.64999 0.89099 0.29199 0.0
C733 C 0.60945 0.85128 0.32541 0.0
C734 C 0.08363 0.63583 0.34507 0.0
C735 C 0.10293 0.63084 0.3274 0.0
H736 H 0.06871 0.66236 0.37178 0.0
C737 C 0.12386 0.64838 0.32522 0.0
H738 H 0.0673 0.62266 0.34732 0.0
C739 C 0.12473 0.67113 0.33937 0.0
C740 C 0.10459 0.67684 0.35581 0.0
H741 H 0.13913 0.64501 0.31188 0.0
H742 H 0.14062 0.68471 0.33653 0.0
C743 C 0.0844 0.65864 0.35906 0.0
C744 C 0.35906 0.88148 0.65636 0.0
C745 C 0.35613 0.87002 0.68041 0.0
H746 H 0.34173 0.88935 0.62014 0.0
C747 C 0.33376 0.85506 0.68518 0.0
H748 H 0.37614 0.89297 0.65201 0.0
C749 C 0.31403 0.85296 0.6669 0.0
C750 C 0.31625 0.86579 0.64349 0.0
H751 H 0.33099 0.84578 0.70343 0.0
H752 H 0.2966 0.84217 0.67161 0.0
C753 C 0.33931 0.87938 0.63808 0.0
C754 C 0.13625 0.34964 0.6485 0.0
C755 C 0.12222 0.34719 0.67119 0.0
H756 H 0.14728 0.33189 0.61349 0.0
C757 C 0.10949 0.32373 0.6765 0.0
H758 H 0.14632 0.36745 0.64389 0.0
C759 C 0.10998 0.30347 0.65913 0.0
C760 C 0.12327 0.30613 0.63605 0.0
H761 H 0.09859 0.32113 0.69386 0.0
H762 H 0.09949 0.28584 0.66364 0.0
C763 C 0.1368 0.32927 0.63109 0.0
C764 C 0.66816 0.09501 0.65066 0.0
C765 C 0.68089 0.11776 0.64297 0.0
H766 H 0.64134 0.0772 0.67601 0.0
C767 C 0.67476 0.14089 0.65476 0.0
H768 H 0.67225 0.07687 0.64182 0.0
C769 C 0.65688 0.14107 0.67452 0.0
C770 C 0.64487 0.11813 0.68276 0.0
H771 H 0.6842 0.15873 0.64919 0.0
H772 H 0.65298 0.15907 0.68373 0.0
C773 C 0.65037 0.09519 0.67028 0.0
C774 C 0.88628 0.70163 0.65689 0.0
C775 C 0.86815 0.70216 0.63684 0.0
H776 H 0.90196 0.68055 0.68773 0.0
C777 C 0.85123 0.6809 0.63293 0.0
H778 H 0.89959 0.71768 0.66046 0.0
C779 C 0.85258 0.65948 0.64866 0.0
C780 C 0.87089 0.65893 0.66857 0.0
H781 H 0.83702 0.68074 0.61765 0.0
H782 H 0.8394 0.64333 0.64512 0.0
C783 C 0.88764 0.68029 0.67254 0.0
C784 C 0.32571 0.33605 0.14293 0.0
C785 C 0.31852 0.34882 0.12056 0.0
H786 H 0.34938 0.30786 0.15958 0.0
C787 C 0.33146 0.3439 0.09775 0.0
H788 H 0.31615 0.33949 0.16083 0.0
C789 C 0.35041 0.32586 0.09704 0.0
C790 C 0.35688 0.31228 0.11912 0.0
H791 H 0.32656 0.35355 0.08021 0.0
H792 H 0.35954 0.32215 0.07897 0.0
C793 C 0.34474 0.31793 0.14222 0.0
C794 C 0.32119 0.666 0.88449 0.0
C795 C 0.34426 0.6581 0.8739 0.0
H796 H 0.28238 0.65606 0.89387 0.0
C797 C 0.34527 0.63324 0.86378 0.0
H798 H 0.3197 0.68505 0.89239 0.0
C799 C 0.32371 0.6165 0.86463 0.0
C800 C 0.3008 0.62435 0.87562 0.0
H801 H 0.36275 0.62659 0.85546 0.0
H802 H 0.32512 0.59737 0.85693 0.0
C803 C 0.29974 0.64934 0.88534 0.0
C804 C 0.30031 0.32726 0.84472 0.0
C805 C 0.29284 0.33741 0.86832 0.0
H806 H 0.32589 0.30295 0.82511 0.0
C807 C 0.30679 0.33147 0.89049 0.0
H808 H 0.28997 0.33153 0.82728 0.0
C809 C 0.32733 0.31524 0.88924 0.0
C810 C 0.33438 0.30446 0.86579 0.0
H811 H 0.30167 0.33908 0.90896 0.0
H812 H 0.33736 0.31079 0.90681 0.0
C813 C 0.32088 0.3109 0.84347 0.0
C814 C 0.65032 0.34651 0.90687 0.0
C815 C 0.6496 0.3255 0.89 0.0
H816 H 0.67189 0.37903 0.92153 0.0
C817 C 0.67034 0.32223 0.87352 0.0
H818 H 0.63461 0.34962 0.91976 0.0
C819 C 0.69179 0.33905 0.8746 0.0
C820 C 0.69288 0.35953 0.89213 0.0
H821 H 0.67038 0.30625 0.86027 0.0
H822 H 0.70773 0.33565 0.86209 0.0
C823 C 0.67171 0.36336 0.9079 0.0
C824 C 0.69306 0.64424 0.89231 0.0
C825 C 0.70885 0.6455 0.87074 0.0
H826 H 0.6589 0.65631 0.91008 0.0
C827 C 0.70097 0.65955 0.84944 0.0
H828 H 0.69844 0.6334 0.90897 0.0
C829 C 0.67818 0.67282 0.8501 0.0
C830 C 0.66282 0.67216 0.87202 0.0
H831 H 0.71268 0.66081 0.8325 0.0
H832 H 0.6729 0.68402 0.83365 0.0
C833 C 0.6703 0.65734 0.89292 0.0
C834 C 0.66096 0.64382 0.1118 0.0
C835 C 0.66628 0.67031 0.11278 0.0
H836 H 0.67617 0.60659 0.10817 0.0
C837 C 0.69195 0.67946 0.1123 0.0
H838 H 0.64137 0.63617 0.11218 0.0
C839 C 0.71184 0.66257 0.10998 0.0
C840 C 0.70651 0.63612 0.10808 0.0
H841 H 0.69672 0.69976 0.11316 0.0
H842 H 0.73137 0.67032 0.10915 0.0
C843 C 0.6809 0.62687 0.10947 0.0
C844 C 0.3206 0.68686 0.10782 0.0
C845 C 0.34157 0.68452 0.12465 0.0
H846 H 0.2845 0.67113 0.09438 0.0
C847 C 0.34126 0.66426 0.14215 0.0
H848 H 0.32015 0.7023 0.09416 0.0
C849 C 0.3207 0.6463 0.14228 0.0
C850 C 0.30011 0.64827 0.12489 0.0
H851 H 0.35711 0.66197 0.15541 0.0
H852 H 0.3212 0.63063 0.15565 0.0
C853 C 0.30013 0.66895 0.10793 0.0
C854 C 0.69436 0.33437 0.09672 0.0
C855 C 0.70352 0.34515 0.11989 0.0
H856 H 0.66883 0.30717 0.07828 0.0
C857 C 0.69259 0.33667 0.14292 0.0
H858 H 0.70228 0.34046 0.0786 0.0
C859 C 0.67318 0.31742 0.14273 0.0
C860 C 0.66451 0.3063 0.11951 0.0
H861 H 0.69924 0.34463 0.16108 0.0
H862 H 0.66531 0.31098 0.16074 0.0
C863 C 0.67516 0.31518 0.09654 0.0
C864 C 0.59863 0.79971 0.82262 0.0
C865 C 0.60423 0.82528 0.82958 0.0
H866 H 0.59619 0.76078 0.83445 0.0
C867 C 0.61269 0.83093 0.85468 0.0
H868 H 0.59214 0.79467 0.80344 0.0
C869 C 0.61508 0.81138 0.87255 0.0
C870 C 0.60899 0.78586 0.86566 0.0
H871 H 0.61721 0.85045 0.8606 0.0
H872 H 0.62133 0.81632 0.89184 0.0
C873 C 0.60096 0.78024 0.84044 0.0
C874 C 0.15781 0.61194 0.83489 0.0
C875 C 0.18296 0.60646 0.82783 0.0
H876 H 0.11916 0.61739 0.82231 0.0
C877 C 0.18857 0.60357 0.80181 0.0
H878 H 0.15291 0.61432 0.8548 0.0
C879 C 0.16929 0.60524 0.78327 0.0
C880 C 0.14396 0.60991 0.79032 0.0
H881 H 0.20776 0.59944 0.7957 0.0
H882 H 0.17421 0.60241 0.76342 0.0
C883 C 0.13848 0.61368 0.81628 0.0
C884 C 0.38355 0.17706 0.79661 0.0
C885 C 0.37747 0.15094 0.79991 0.0
H886 H 0.38808 0.21396 0.81407 0.0
C887 C 0.36987 0.14228 0.82416 0.0
H888 H 0.3894 0.1844 0.77818 0.0
C889 C 0.36907 0.15931 0.84483 0.0
C890 C 0.37593 0.1853 0.84164 0.0
H891 H 0.36501 0.12227 0.82731 0.0
H892 H 0.36361 0.152 0.86338 0.0
C893 C 0.38282 0.19403 0.81723 0.0
C894 C 0.83345 0.34305 0.79316 0.0
C895 C 0.84779 0.36549 0.78739 0.0
H896 H 0.80629 0.32491 0.81835 0.0
C897 C 0.84766 0.38626 0.80448 0.0
H898 H 0.83325 0.32673 0.78032 0.0
C899 C 0.83251 0.38516 0.8262 0.0
C900 C 0.8169 0.36336 0.83126 0.0
H901 H 0.85878 0.4037 0.80073 0.0
H902 H 0.83235 0.40187 0.83851 0.0
C903 C 0.818 0.34203 0.81489 0.0
C904 C 0.63152 0.16438 0.13136 0.0
C905 C 0.64913 0.18498 0.13552 0.0
H906 H 0.6162 0.12865 0.14477 0.0
C907 C 0.66738 0.1835 0.1554 0.0
H908 H 0.61748 0.16474 0.11594 0.0
C909 C 0.66663 0.16268 0.17206 0.0
C910 C 0.64765 0.14306 0.16902 0.0
H911 H 0.6813 0.19903 0.15897 0.0
H912 H 0.67996 0.1627 0.1881 0.0
C913 C 0.63081 0.14365 0.14789 0.0
C914 C 0.86842 0.64152 0.18061 0.0
C915 C 0.86496 0.62036 0.19677 0.0
H916 H 0.85691 0.65978 0.14597 0.0
C917 C 0.84699 0.60083 0.18977 0.0
H918 H 0.88213 0.65688 0.1855 0.0
C919 C 0.83275 0.6024 0.16716 0.0
C920 C 0.83599 0.62362 0.15104 0.0
H921 H 0.84392 0.58421 0.20172 0.0
H922 H 0.81903 0.58699 0.16244 0.0
C923 C 0.85398 0.64318 0.15798 0.0
C924 C 0.35964 0.81326 0.16367 0.0
C925 C 0.37547 0.80829 0.14281 0.0
H926 H 0.35023 0.83947 0.19336 0.0
C927 C 0.39307 0.82749 0.13472 0.0
H928 H 0.3458 0.79893 0.1703 0.0
C929 C 0.39559 0.85073 0.1479 0.0
C930 C 0.38058 0.85527 0.16946 0.0
H931 H 0.40544 0.82435 0.1186 0.0
H932 H 0.40986 0.86481 0.14161 0.0
C933 C 0.36217 0.83652 0.17687 0.0
C934 C 0.17108 0.36369 0.14622 0.0
C935 C 0.19626 0.37419 0.14772 0.0
H936 H 0.13563 0.35647 0.16562 0.0
C937 C 0.20541 0.38454 0.1711 0.0
H938 H 0.16349 0.35555 0.12847 0.0
C939 C 0.18954 0.38494 0.19237 0.0
C940 C 0.16411 0.37516 0.19069 0.0
H941 H 0.22478 0.39266 0.17293 0.0
H942 H 0.19708 0.39343 0.20997 0.0
C943 C 0.15512 0.36425 0.16748 0.0
C944 C 0.82726 0.60926 0.82133 0.0
C945 C 0.83012 0.62925 0.83932 0.0
H946 H 0.83979 0.59319 0.78622 0.0
C947 C 0.84845 0.64907 0.83499 0.0
H948 H 0.8133 0.59369 0.82404 0.0
C949 C 0.86372 0.64877 0.81317 0.0
C950 C 0.86094 0.62865 0.7953 0.0
H951 H 0.85111 0.66475 0.84848 0.0
H952 H 0.87777 0.66424 0.81039 0.0
C953 C 0.84248 0.60897 0.7996 0.0
C954 C 0.34283 0.80358 0.806 0.0
C955 C 0.36289 0.82228 0.80567 0.0
H956 H 0.32818 0.76874 0.82251 0.0
C957 C 0.38303 0.82089 0.82365 0.0
H958 H 0.32699 0.80416 0.79245 0.0
C959 C 0.38376 0.8006 0.84074 0.0
C960 C 0.36432 0.78128 0.84033 0.0
H961 H 0.39872 0.83505 0.82406 0.0
H962 H 0.39994 0.79978 0.85386 0.0
C963 C 0.34352 0.78328 0.82321 0.0
C964 C 0.17659 0.36295 0.82322 0.0
C965 C 0.16741 0.3775 0.84361 0.0
H966 H 0.17154 0.35113 0.78423 0.0
C967 C 0.14423 0.39002 0.84039 0.0
H968 H 0.19433 0.35296 0.82509 0.0
C969 C 0.13113 0.38894 0.81692 0.0
C970 C 0.14098 0.37537 0.79618 0.0
H971 H 0.13658 0.4013 0.85575 0.0
H972 H 0.11372 0.39942 0.81482 0.0
C973 C 0.16353 0.36192 0.79976 0.0
C974 C 0.62527 0.15698 0.82522 0.0
C975 C 0.6151 0.15351 0.80042 0.0
H976 H 0.63074 0.1823 0.85727 0.0
C977 C 0.60354 0.1741 0.7883 0.0
H978 H 0.63435 0.14151 0.83503 0.0
C979 C 0.60158 0.19745 0.80094 0.0
C980 C 0.611 0.2007 0.82604 0.0
H981 H 0.59565 0.17211 0.7691 0.0
H982 H 0.59214 0.21275 0.79121 0.0
C983 C 0.62318 0.18035 0.83795 0.0
C984 C 0.84305 0.3842 0.18294 0.0
C985 C 0.84852 0.3608 0.19435 0.0
H986 H 0.82337 0.40338 0.15328 0.0
C987 C 0.83839 0.33801 0.18325 0.0
H988 H 0.85072 0.4021 0.19086 0.0
C989 C 0.82244 0.33874 0.16154 0.0
C990 C 0.81658 0.36227 0.15052 0.0
H991 H 0.84232 0.3197 0.19162 0.0
H992 H 0.81442 0.32097 0.15366 0.0
C993 C 0.82738 0.38491 0.16128 0.0
C994 C 0.60369 0.7896 0.19312 0.0
C995 C 0.60843 0.81552 0.18754 0.0
H996 H 0.60089 0.75128 0.17888 0.0
C997 C 0.61585 0.8224 0.16269 0.0
H998 H 0.59807 0.78363 0.2121 0.0
C999 C 0.61751 0.80378 0.14357 0.0
C1000 C 0.61173 0.77796 0.14895 0.0
H1001 H 0.61973 0.84222 0.15782 0.0
H1002 H 0.62262 0.80972 0.12444 0.0
C1003 C 0.60529 0.77103 0.17404 0.0
C1004 C 0.16648 0.64112 0.20074 0.0
C1005 C 0.15089 0.61881 0.20322 0.0
H1006 H 0.19532 0.66106 0.17892 0.0
C1007 C 0.1511 0.6001 0.18387 0.0
H1008 H 0.16665 0.65592 0.21531 0.0
C1009 C 0.16731 0.60311 0.16302 0.0
C1010 C 0.18384 0.62482 0.16111 0.0
H1011 H 0.13911 0.58281 0.18506 0.0
H1012 H 0.16742 0.58797 0.14883 0.0
C1013 C 0.18288 0.64407 0.1799 0.0
C1014 C 0.39241 0.19531 0.15918 0.0
C1015 C 0.37779 0.19186 0.13661 0.0
H1016 H 0.40279 0.18036 0.19555 0.0
C1017 C 0.36114 0.17022 0.13412 0.0
H1018 H 0.4053 0.21185 0.1618 0.0
C1019 C 0.35972 0.15202 0.15358 0.0
C1020 C 0.37483 0.15523 0.17589 0.0
H1021 H 0.34959 0.16706 0.11697 0.0
H1022 H 0.34711 0.13527 0.15093 0.0
C1023 C 0.39091 0.17725 0.1786 0.0
C1024 C 0.79673 0.80119 0.64798 0.0
C1025 C 0.81614 0.80864 0.63085 0.0
H1026 H 0.75834 0.80641 0.66053 0.0
C1027 C 0.81192 0.82898 0.61412 0.0
H1028 H 0.79939 0.78562 0.66116 0.0
C1029 C 0.78842 0.84087 0.61376 0.0
C1030 C 0.76858 0.83265 0.63008 0.0
H1031 H 0.82653 0.83528 0.60076 0.0
H1032 H 0.7856 0.85607 0.60018 0.0
C1033 C 0.77316 0.81306 0.64757 0.0
C1034 C 0.82157 0.16588 0.33995 0.0
C1035 C 0.83211 0.17465 0.36341 0.0
H1036 H 0.79312 0.14152 0.32112 0.0
C1037 C 0.82252 0.16424 0.38621 0.0
H1038 H 0.82859 0.17353 0.32206 0.0
C1039 C 0.80238 0.14601 0.38568 0.0
C1040 C 0.79126 0.13773 0.36233 0.0
H1041 H 0.83029 0.17042 0.40462 0.0
H1042 H 0.79527 0.13876 0.40371 0.0
C1043 C 0.80127 0.14756 0.33942 0.0
C1044 C 0.78446 0.83778 0.39568 0.0
C1045 C 0.76685 0.83916 0.37527 0.0
H1046 H 0.8185 0.82149 0.41019 0.0
C1047 C 0.77136 0.8256 0.35259 0.0
H1048 H 0.7817 0.8482 0.41333 0.0
C1049 C 0.79256 0.81012 0.35079 0.0
C1050 C 0.80966 0.80807 0.37159 0.0
H1051 H 0.75815 0.82637 0.3365 0.0
H1052 H 0.79519 0.7993 0.33336 0.0
C1053 C 0.80564 0.82249 0.39384 0.0
C1054 C 0.12083 0.832 0.349 0.0
C1055 C 0.12375 0.80754 0.35928 0.0
H1056 H 0.13867 0.86864 0.34126 0.0
C1057 C 0.14809 0.80081 0.36824 0.0
H1058 H 0.10234 0.83774 0.34189 0.0
C1059 C 0.16874 0.81849 0.36807 0.0
C1060 C 0.16563 0.84328 0.35877 0.0
H1061 H 0.15108 0.7821 0.37618 0.0
H1062 H 0.18705 0.81283 0.37573 0.0
C1063 C 0.14163 0.84971 0.34868 0.0
C1064 C 0.16904 0.14689 0.38493 0.0
C1065 C 0.18279 0.14249 0.3625 0.0
H1066 H 0.14047 0.16835 0.40328 0.0
C1067 C 0.17678 0.15618 0.34033 0.0
H1068 H 0.17306 0.13657 0.40232 0.0
C1069 C 0.15796 0.17454 0.34089 0.0
C1070 C 0.14487 0.17949 0.36362 0.0
H1071 H 0.18699 0.15317 0.32272 0.0
H1072 H 0.15413 0.18522 0.32369 0.0
C1073 C 0.15033 0.16516 0.38549 0.0
C1074 C 0.19426 0.16581 0.64012 0.0
C1075 C 0.19816 0.15153 0.61775 0.0
H1076 H 0.1723 0.19431 0.65846 0.0
C1077 C 0.18141 0.15428 0.5968 0.0
H1078 H 0.20681 0.16406 0.65662 0.0
C1079 C 0.16168 0.17146 0.59788 0.0
C1080 C 0.15825 0.1864 0.61991 0.0
H1081 H 0.18374 0.14344 0.57933 0.0
H1082 H 0.14945 0.17338 0.58118 0.0
C1083 C 0.17449 0.18313 0.64118 0.0
C1084 C 0.80452 0.14755 0.64756 0.0
C1085 C 0.79772 0.1363 0.62383 0.0
H1086 H 0.82876 0.17516 0.66766 0.0
C1087 C 0.81163 0.14358 0.60206 0.0
H1088 H 0.79418 0.1423 0.66469 0.0
C1089 C 0.83132 0.16226 0.60376 0.0
C1090 C 0.83762 0.17419 0.62727 0.0
H1091 H 0.80704 0.1352 0.58351 0.0
H1092 H 0.84127 0.16768 0.58645 0.0
C1093 C 0.82432 0.16636 0.64927 0.0
C1094 C 0.18937 0.8372 0.60485 0.0
C1095 C 0.19069 0.86234 0.61438 0.0
H1096 H 0.16629 0.80325 0.59839 0.0
C1097 C 0.16899 0.8721 0.62619 0.0
H1098 H 0.20576 0.82903 0.59577 0.0
C1099 C 0.14616 0.85724 0.62766 0.0
C1100 C 0.14468 0.83236 0.61739 0.0
H1101 H 0.16942 0.89141 0.63376 0.0
H1102 H 0.12958 0.86543 0.63635 0.0
C1103 C 0.16667 0.8224 0.60636 0.0
C1104 C 0.11167 0.25965 0.4798 0.0
C1105 C 0.09037 0.26884 0.4665 0.0
H1106 H 0.12859 0.25159 0.51611 0.0
C1107 C 0.07078 0.28007 0.48041 0.0
H1108 H 0.12725 0.25115 0.46965 0.0
C1109 C 0.07155 0.28032 0.50715 0.0
C1110 C 0.09192 0.26933 0.52042 0.0
H1111 H 0.0542 0.2875 0.47073 0.0
H1112 H 0.05554 0.28793 0.51734 0.0
C1113 C 0.11244 0.25989 0.50646 0.0
C1114 C 0.71003 0.09764 0.50386 0.0
C1115 C 0.72071 0.11863 0.51769 0.0
H1116 H 0.70072 0.08152 0.46716 0.0
C1117 C 0.72783 0.14102 0.50448 0.0
H1118 H 0.70406 0.0802 0.51349 0.0
C1119 C 0.72594 0.14179 0.47781 0.0
C1120 C 0.7168 0.12019 0.46389 0.0
H1121 H 0.73597 0.15758 0.51461 0.0
H1122 H 0.73272 0.15889 0.46808 0.0
C1123 C 0.70804 0.09844 0.47727 0.0
C1124 C 0.86736 0.74897 0.48654 0.0
C1125 C 0.88849 0.74103 0.47251 0.0
H1126 H 0.85261 0.7582 0.52329 0.0
C1127 C 0.91073 0.73401 0.48575 0.0
H1128 H 0.84988 0.75441 0.47695 0.0
C1129 C 0.91226 0.73611 0.51237 0.0
C1130 C 0.89163 0.74542 0.52625 0.0
H1131 H 0.9273 0.72768 0.4755 0.0
H1132 H 0.92997 0.73136 0.52195 0.0
C1133 C 0.86894 0.75121 0.51312 0.0
C1134 C 0.25417 0.83938 0.47136 0.0
C1135 C 0.25574 0.86162 0.45649 0.0
H1136 H 0.25586 0.82337 0.50886 0.0
C1137 C 0.26198 0.88513 0.46858 0.0
H1138 H 0.24949 0.82095 0.46264 0.0
C1139 C 0.26567 0.88652 0.49504 0.0
C1140 C 0.26317 0.86442 0.51005 0.0
H1141 H 0.26346 0.90263 0.45768 0.0
H1142 H 0.26984 0.90504 0.50379 0.0
C1143 C 0.25784 0.84077 0.49787 0.0
C1144 C 0.09836 0.79872 0.50245 0.0
C1145 C 0.09074 0.77877 0.51882 0.0
H1146 H 0.10289 0.81129 0.46398 0.0
C1147 C 0.08145 0.75546 0.50814 0.0
H1148 H 0.1056 0.81693 0.51002 0.0
C1149 C 0.0799 0.75219 0.48159 0.0
C1150 C 0.0876 0.77219 0.46526 0.0
H1151 H 0.07542 0.73971 0.52026 0.0
H1152 H 0.0727 0.73402 0.47389 0.0
C1153 C 0.09681 0.79548 0.476 0.0
C1154 C 0.29431 0.07459 0.47362 0.0
C1155 C 0.28116 0.09309 0.45986 0.0
H1156 H 0.30547 0.06096 0.51041 0.0
C1157 C 0.27216 0.11439 0.47303 0.0
H1158 H 0.30169 0.05807 0.46402 0.0
C1159 C 0.27436 0.11607 0.49962 0.0
C1160 C 0.28557 0.09647 0.51359 0.0
H1161 H 0.26222 0.12916 0.46296 0.0
H1162 H 0.26601 0.13205 0.50928 0.0
C1163 C 0.29649 0.07626 0.50024 0.0
C1164 C 0.89013 0.24576 0.51048 0.0
C1165 C 0.86737 0.24587 0.52461 0.0
H1166 H 0.90711 0.24518 0.4735 0.0
C1167 C 0.84375 0.24683 0.51149 0.0
H1168 H 0.90866 0.24511 0.52 0.0
C1169 C 0.84285 0.24687 0.48478 0.0
C1170 C 0.86557 0.24595 0.47066 0.0
H1171 H 0.82587 0.24701 0.52182 0.0
H1172 H 0.82432 0.24708 0.47523 0.0
C1173 C 0.88924 0.24579 0.4838 0.0
C1174 C 0.6821 0.85589 0.49174 0.0
C1175 C 0.66846 0.87469 0.47889 0.0
H1176 H 0.69369 0.8408 0.52777 0.0
C1177 C 0.65263 0.89049 0.49307 0.0
H1178 H 0.69422 0.84317 0.48137 0.0
C1179 C 0.65228 0.88908 0.51975 0.0
C1180 C 0.6678 0.87187 0.53272 0.0
H1181 H 0.64166 0.90498 0.48374 0.0
H1182 H 0.64108 0.90256 0.5302 0.0
C1183 C 0.68179 0.85452 0.51838 0.0
C1184 C 0.49506 0.12659 0.22025 0.0
C1185 C 0.4776 0.11719 0.23847 0.0
H1186 H 0.53359 0.12752 0.20684 0.0
C1187 C 0.48669 0.10224 0.25865 0.0
H1188 H 0.48875 0.13825 0.20453 0.0
C1189 C 0.51256 0.09607 0.25999 0.0
C1190 C 0.52976 0.10466 0.24114 0.0
H1191 H 0.47372 0.09474 0.27302 0.0
H1192 H 0.51889 0.08403 0.2754 0.0
C1193 C 0.52081 0.12037 0.22154 0.0
C1194 C 0.89319 0.50348 0.28032 0.0
C1195 C 0.87022 0.51654 0.27797 0.0
H1196 H 0.91103 0.4674 0.28068 0.0
C1197 C 0.84687 0.50232 0.27583 0.0
H1198 H 0.91151 0.51384 0.2821 0.0
C1199 C 0.8466 0.47563 0.27504 0.0
C1200 C 0.86968 0.46262 0.27633 0.0
H1201 H 0.82883 0.5118 0.27409 0.0
H1202 H 0.82835 0.46524 0.27271 0.0
C1203 C 0.89292 0.47683 0.27949 0.0
C1204 C 0.50318 0.86882 0.23724 0.0
C1205 C 0.51597 0.89189 0.24456 0.0
H1206 H 0.46707 0.84911 0.22994 0.0
C1207 C 0.50143 0.91278 0.25157 0.0
H1208 H 0.51388 0.85233 0.23185 0.0
C1209 C 0.47467 0.91099 0.25031 0.0
C1210 C 0.46188 0.88818 0.24224 0.0
H1211 H 0.51069 0.9308 0.25735 0.0
H1212 H 0.46402 0.92765 0.25525 0.0
C1213 C 0.47638 0.86695 0.2362 0.0
C1214 C 0.11889 0.49257 0.26989 0.0
C1215 C 0.09928 0.50435 0.28327 0.0
H1216 H 0.13335 0.45759 0.25571 0.0
C1217 C 0.08037 0.48895 0.29524 0.0
H1218 H 0.13383 0.50387 0.26056 0.0
C1219 C 0.08014 0.4624 0.29252 0.0
C1220 C 0.09875 0.45073 0.27767 0.0
H1221 H 0.06511 0.49743 0.30587 0.0
H1222 H 0.06469 0.45115 0.3011 0.0
C1223 C 0.11859 0.46602 0.26707 0.0
C1224 C 0.48324 0.8773 0.75463 0.0
C1225 C 0.47093 0.89776 0.74308 0.0
H1226 H 0.51838 0.86315 0.76935 0.0
C1227 C 0.48577 0.91931 0.73555 0.0
H1228 H 0.47239 0.86038 0.7606 0.0
C1229 C 0.51219 0.92085 0.74051 0.0
C1230 C 0.52425 0.90095 0.75324 0.0
H1231 H 0.47689 0.93534 0.72651 0.0
H1232 H 0.52296 0.93803 0.73513 0.0
C1233 C 0.50961 0.87892 0.75973 0.0
C1234 C 0.13015 0.47977 0.71275 0.0
C1235 C 0.10766 0.47012 0.70048 0.0
H1236 H 0.15269 0.51293 0.72421 0.0
C1237 C 0.09188 0.48711 0.68759 0.0
H1238 H 0.14285 0.46713 0.72263 0.0
C1239 C 0.09744 0.51341 0.68862 0.0
C1240 C 0.11901 0.52319 0.70238 0.0
H1241 H 0.07449 0.48027 0.67783 0.0
H1242 H 0.08421 0.52611 0.67959 0.0
C1243 C 0.13583 0.50604 0.71359 0.0
C1244 C 0.47516 0.10958 0.73634 0.0
C1245 C 0.46601 0.08403 0.73459 0.0
H1246 H 0.50791 0.13542 0.73781 0.0
C1247 C 0.48368 0.06468 0.73153 0.0
H1248 H 0.46201 0.12495 0.73854 0.0
C1249 C 0.51002 0.07068 0.73124 0.0
C1250 C 0.5192 0.09617 0.7338 0.0
H1251 H 0.47724 0.04481 0.73007 0.0
H1252 H 0.5232 0.05528 0.72951 0.0
C1253 C 0.50147 0.11559 0.73585 0.0
C1254 C 0.85359 0.51305 0.71478 0.0
C1255 C 0.87176 0.53082 0.70505 0.0
H1256 H 0.84282 0.47363 0.71995 0.0
C1257 C 0.8918 0.52194 0.69003 0.0
H1258 H 0.83781 0.51925 0.72629 0.0
C1259 C 0.89463 0.49575 0.68631 0.0
C1260 C 0.87755 0.47793 0.69766 0.0
H1261 H 0.90601 0.53515 0.68205 0.0
H1262 H 0.91096 0.48952 0.67563 0.0
C1263 C 0.85649 0.48686 0.71118 0.0
C1264 C 0.26049 0.51775 0.12302 0.0
C1265 C 0.26397 0.52756 0.0983 0.0
H1266 H 0.25863 0.48456 0.14664 0.0
C1267 C 0.27056 0.5109 0.07849 0.0
H1268 H 0.25559 0.53013 0.13875 0.0
C1269 C 0.27219 0.48475 0.08299 0.0
C1270 C 0.26742 0.47475 0.10743 0.0
H1271 H 0.27347 0.51787 0.05925 0.0
H1272 H 0.27638 0.47227 0.0671 0.0
C1273 C 0.26228 0.49162 0.12756 0.0
C1274 C 0.23512 0.5037 0.86991 0.0
C1275 C 0.24423 0.51297 0.89377 0.0
H1276 H 0.22606 0.47092 0.84639 0.0
C1277 C 0.25297 0.49556 0.91189 0.0
H1278 H 0.2284 0.51665 0.85546 0.0
C1279 C 0.25157 0.46935 0.9067 0.0
C1280 C 0.24151 0.46001 0.88323 0.0
H1281 H 0.26019 0.50207 0.9304 0.0
H1282 H 0.25779 0.45639 0.92138 0.0
C1283 C 0.23383 0.47749 0.86467 0.0
C1284 C 0.48751 0.26444 0.85421 0.0
C1285 C 0.47004 0.2705 0.87338 0.0
H1286 H 0.5269 0.26126 0.84403 0.0
C1287 C 0.47957 0.28058 0.89675 0.0
H1288 H 0.48081 0.25677 0.83594 0.0
C1289 C 0.50598 0.28316 0.90139 0.0
C1290 C 0.52345 0.27571 0.88277 0.0
H1291 H 0.46664 0.28561 0.91188 0.0
H1292 H 0.51265 0.29011 0.91994 0.0
C1293 C 0.51395 0.26701 0.85886 0.0
C1294 C 0.75755 0.50864 0.86777 0.0
C1295 C 0.75959 0.52617 0.88819 0.0
H1296 H 0.75564 0.46934 0.85623 0.0
C1297 C 0.7597 0.51692 0.91336 0.0
H1298 H 0.75734 0.51516 0.84816 0.0
C1299 C 0.75862 0.49069 0.91799 0.0
C1300 C 0.75753 0.47314 0.89756 0.0
H1301 H 0.76111 0.52993 0.92954 0.0
H1302 H 0.75931 0.48422 0.9376 0.0
C1303 C 0.75658 0.48238 0.8724 0.0
C1304 C 0.47972 0.70147 0.86422 0.0
C1305 C 0.46892 0.69269 0.8872 0.0
H1306 H 0.51406 0.70985 0.84343 0.0
C1307 C 0.48505 0.68251 0.90594 0.0
H1308 H 0.46778 0.70918 0.84928 0.0
C1309 C 0.51162 0.68297 0.90262 0.0
C1310 C 0.52257 0.6935 0.88043 0.0
H1311 H 0.47734 0.67542 0.92378 0.0
H1312 H 0.52363 0.6762 0.91799 0.0
C1313 C 0.50628 0.7018 0.86084 0.0
C1314 C 0.75829 0.50865 0.11827 0.0
C1315 C 0.75966 0.52634 0.09823 0.0
H1316 H 0.75533 0.46932 0.12891 0.0
C1317 C 0.75701 0.51742 0.07289 0.0
H1318 H 0.76011 0.5149 0.138 0.0
C1319 C 0.7542 0.49127 0.06766 0.0
C1320 C 0.75404 0.4735 0.08766 0.0
H1321 H 0.75781 0.53058 0.05701 0.0
H1322 H 0.75301 0.48498 0.0479 0.0
C1323 C 0.75553 0.4825 0.11304 0.0
C1324 C 0.5011 0.71164 0.13922 0.0
C1325 C 0.51725 0.69908 0.12233 0.0
H1326 H 0.46355 0.72516 0.1459 0.0
C1327 C 0.50653 0.68757 0.1001 0.0
H1328 H 0.50869 0.7206 0.15658 0.0
C1329 C 0.48057 0.69011 0.09403 0.0
C1330 C 0.4649 0.70436 0.10996 0.0
H1331 H 0.51842 0.67761 0.08677 0.0
H1332 H 0.47316 0.68202 0.07619 0.0
C1333 C 0.47521 0.71434 0.13305 0.0
C1334 C 0.52862 0.25742 0.11977 0.0
C1335 C 0.53834 0.2683 0.09721 0.0
H1336 H 0.49527 0.24688 0.14131 0.0
C1337 C 0.52123 0.27903 0.07972 0.0
H1338 H 0.54132 0.24914 0.13371 0.0
C1339 C 0.49483 0.27761 0.08401 0.0
C1340 C 0.485 0.26559 0.10597 0.0
H1341 H 0.5281 0.28765 0.0622 0.0
H1342 H 0.48208 0.28525 0.06972 0.0
C1343 C 0.50221 0.25615 0.12415 0.0
C1344 C 0.56639 0.74732 0.01812 0.0
C1345 C 0.58719 0.73788 0.03201 0.0
H1346 H 0.54996 0.75411 0.98122 0.0
C1347 C 0.60898 0.7304 0.01873 0.0
H1348 H 0.54937 0.75337 0.02779 0.0
C1349 C 0.60931 0.73082 0.99206 0.0
C1350 C 0.58786 0.73872 0.9781 0.0
H1351 H 0.62544 0.72325 0.02886 0.0
H1352 H 0.62602 0.724 0.98241 0.0
C1353 C 0.56672 0.74773 0.99141 0.0
C1354 C 0.21188 0.59608 0.98493 0.0
C1355 C 0.21431 0.61832 0.97013 0.0
H1356 H 0.21174 0.57999 0.02238 0.0
C1357 C 0.21651 0.64217 0.9826 0.0
H1358 H 0.21002 0.5774 0.97594 0.0
C1359 C 0.21749 0.64367 0.0093 0.0
C1360 C 0.2163 0.62134 0.02406 0.0
H1361 H 0.2183 0.65968 0.97177 0.0
H1362 H 0.22002 0.66229 0.0183 0.0
C1363 C 0.21287 0.59757 0.01159 0.0
C1364 C 0.38465 0.22849 0.00344 0.0
C1365 C 0.40677 0.2202 0.01602 0.0
H1366 H 0.36612 0.23564 0.9677 0.0
C1367 C 0.42622 0.20952 0.00149 0.0
H1368 H 0.36916 0.23652 0.0141 0.0
C1369 C 0.42451 0.20905 0.97479 0.0
C1370 C 0.40327 0.21919 0.96216 0.0
H1371 H 0.44343 0.20277 0.01061 0.0
H1372 H 0.44043 0.20196 0.96407 0.0
C1373 C 0.3829 0.22795 0.9768 0.0
C1374 C 0.77402 0.34358 0.00537 0.0
C1375 C 0.78051 0.36617 0.019 0.0
H1376 H 0.76795 0.3259 0.96866 0.0
C1377 C 0.78848 0.38806 0.00541 0.0
H1378 H 0.76791 0.32634 0.01528 0.0
C1379 C 0.78852 0.38779 0.97873 0.0
C1380 C 0.78056 0.36564 0.96505 0.0
H1381 H 0.79379 0.40574 0.01532 0.0
H1382 H 0.79386 0.40528 0.96887 0.0
C1383 C 0.77403 0.34332 0.97863 0.0
C1384 C 0.60534 0.24079 0.9736 0.0
C1385 C 0.62764 0.24159 0.95876 0.0
H1386 H 0.58949 0.23867 0.01104 0.0
C1387 C 0.65163 0.23955 0.97096 0.0
H1388 H 0.58654 0.2422 0.96479 0.0
C1389 C 0.65333 0.23755 -0.00245 0.0
C1390 C 0.63107 0.23749 0.01243 0.0
H1391 H 0.66916 0.24004 0.96004 0.0
H1392 H 0.67213 0.23657 0.00644 0.0
C1393 C 0.60703 0.23872 0.00014 0.0
C1394 C 0.80465 0.62978 0.00749 0.0
C1395 C 0.81748 0.61062 0.02062 0.0
H1396 H 0.79268 0.64412 0.97127 0.0
C1397 C 0.83187 0.59337 0.00656 0.0
H1398 H 0.79368 0.64361 0.01775 0.0
C1399 C 0.83131 0.59368 0.97983 0.0
C1400 C 0.81634 0.61124 0.96671 0.0
H1401 H 0.84222 0.57855 0.01609 0.0
H1402 H 0.84124 0.57908 0.96955 0.0
C1403 C 0.80407 0.63008 0.9808 0.0
C1404 C 0.35703 0.75536 0.97811 0.0
C1405 C 0.37864 0.74664 0.96538 0.0
H1406 H 0.34006 0.76418 0.014 0.0
C1407 C 0.40069 0.74119 0.97976 0.0
H1408 H 0.33977 0.75981 0.96758 0.0
C1409 C 0.40086 0.74369 0.00636 0.0
C1410 C 0.37899 0.7517 0.01916 0.0
H1411 H 0.41771 0.7345 0.97054 0.0
H1412 H 0.418 0.73886 0.0169 0.0
C1413 C 0.3572 0.75787 0.00473 0.0
C1414 C 0.19784 0.40912 0.01357 0.0
C1415 C 0.21261 0.39125 0.02645 0.0
H1416 H 0.18374 0.4221 0.97756 0.0
C1417 C 0.22146 0.37021 0.01276 0.0
H1418 H 0.19052 0.42541 0.02361 0.0
C1419 C 0.21745 0.36822 0.98637 0.0
C1420 C 0.20465 0.38733 0.97314 0.0
H1421 H 0.23261 0.35591 0.0222 0.0
H1422 H 0.22575 0.35253 0.97619 0.0
C1423 C 0.19394 0.4072 0.98715 0.0
C1424 C 0.01435 0.61094 0.74152 0.0
C1425 C 0.02655 0.58817 0.74725 0.0
H1426 H 0.97884 0.62958 0.73703 0.0
C1427 C 0.01161 0.56692 0.7554 0.0
H1428 H 0.02531 0.62774 0.73539 0.0
C1429 C 0.98488 0.56799 0.75637 0.0
C1430 C 0.97261 0.59032 0.74917 0.0
H1431 H 0.02045 0.54913 0.76009 0.0
H1432 H 0.97382 0.55099 0.76176 0.0
C1433 C 0.98768 0.612 0.74246 0.0
C1434 C 0.33951 0.96675 0.7481 0.0
C1435 C 0.361 0.95457 0.758 0.0
H1436 H 0.32247 0.00224 0.73926 0.0
C1437 C 0.38146 0.96961 0.76851 0.0
H1438 H 0.3234 0.95572 0.73992 0.0
C1439 C 0.38094 -0.00377 0.7681 0.0
C1440 C 0.35995 0.00844 0.7572 0.0
H1441 H 0.39827 0.96085 0.77639 0.0
H1442 H 0.39737 0.00721 0.7757 0.0
C1443 C 0.33898 0.99343 0.74771 0.0
C1444 C 0.00258 0.38269 0.6879 0.0
C1445 C 0.01583 0.38986 0.71052 0.0
H1446 H 0.9664 0.37828 0.66851 0.0
C1447 C 0.00181 0.39832 0.73155 0.0
H1448 H 0.01277 0.37611 0.67133 0.0
C1449 C 0.97507 0.39955 0.72993 0.0
C1450 C 0.96188 0.3924 0.70724 0.0
H1451 H 0.01147 0.404 0.74924 0.0
H1452 H 0.96477 0.40612 0.74643 0.0
C1453 C 0.97594 0.38397 0.68627 0.0
C1454 C 0.59459 0.98369 0.80743 0.0
C1455 C 0.61706 0.97318 0.798 0.0
H1456 H 0.57187 0.01673 0.81016 0.0
C1457 C 0.63573 0.98948 0.78683 0.0
H1458 H 0.57993 0.9717 0.81636 0.0
C1459 C 0.63105 0.01529 0.78316 0.0
C1460 C 0.60766 0.02534 0.79072 0.0
H1461 H 0.65335 0.98205 0.77954 0.0
H1462 H 0.64522 0.02704 0.77323 0.0
C1463 C 0.58997 0.00954 0.80389 0.0
C1464 C 0.98492 0.39358 0.22182 0.0
C1465 C 0.96722 0.37868 0.23591 0.0
H1466 H 0.0242 0.40006 0.2114 0.0
C1467 C 0.97573 0.35706 0.2488 0.0
H1468 H 0.97893 0.41029 0.21158 0.0
C1469 C 0.00159 0.3511 0.24856 0.0
C1470 C 0.01955 0.36672 0.23556 0.0
H1471 H 0.96252 0.34502 0.25964 0.0
H1472 H 0.00761 0.33474 0.25934 0.0
C1473 C 0.01086 0.3877 0.22171 0.0
C1474 C 0.60414 -0.00055 0.20575 0.0
C1475 C 0.62715 0.01324 0.2115 0.0
H1476 H 0.58465 0.96286 0.20337 0.0
C1477 C 0.64919 -0.00024 0.21761 0.0
H1478 H 0.58685 0.00923 0.20083 0.0
C1479 C 0.64793 0.97309 0.21911 0.0
C1480 C 0.62462 0.95939 0.21448 0.0
H1481 H 0.66725 0.0098 0.22205 0.0
H1482 H 0.66505 0.96332 0.22464 0.0
C1483 C 0.60289 0.97282 0.2072 0.0
C1484 C 0.01566 0.57867 0.24004 0.0
C1485 C 0.02725 0.60108 0.25055 0.0
H1486 H 0.98067 0.55769 0.2312 0.0
C1487 C 0.01162 0.62061 0.25902 0.0
H1488 H 0.02721 0.56334 0.23319 0.0
C1489 C 0.9849 0.61728 0.25808 0.0
C1490 C 0.97333 0.59447 0.24839 0.0
H1491 H 0.02 0.6381 0.26721 0.0
H1492 H 0.97332 0.63234 0.26545 0.0
C1493 C 0.98898 0.57546 0.23884 0.0
C1494 C 0.37476 0.02468 0.21561 0.0
C1495 C 0.39538 0.03868 0.20477 0.0
H1496 H 0.35809 0.98778 0.22384 0.0
C1497 C 0.4138 0.0256 0.19095 0.0
H1498 H 0.36009 0.03422 0.22614 0.0
C1499 C 0.41272 -0.00108 0.18971 0.0
C1500 C 0.39311 0.98485 0.20215 0.0
H1501 H 0.42983 0.03585 0.18223 0.0
H1502 H 0.42792 0.98934 0.18003 0.0
C1503 C 0.37359 -0.00197 0.21424 0.0
C1504 C 0.74935 -0.00271 0.60053 0.0
C1505 C 0.72606 0.00846 0.59409 0.0
H1506 H 0.76851 0.96273 0.60873 0.0
C1507 C 0.70387 0.99269 0.59078 0.0
H1508 H 0.76678 0.00896 0.60321 0.0
C1509 C 0.70484 0.96636 0.59399 0.0
C1510 C 0.72804 0.95512 0.60054 0.0
H1511 H 0.68561 0.00066 0.58582 0.0
H1512 H 0.6873 0.95483 0.59133 0.0
C1513 C 0.75033 0.97083 0.6037 0.0
C1514 C 0.73466 -0.0031 0.42379 0.0
C1515 C 0.73719 0.01252 0.40216 0.0
H1516 H 0.72855 0.959 0.43803 0.0
C1517 C 0.73737 0.00105 0.3778 0.0
H1518 H 0.73447 0.00514 0.44283 0.0
C1519 C 0.7341 0.97458 0.37506 0.0
C1520 C 0.73037 0.95908 0.39661 0.0
H1521 H 0.73941 0.01256 0.36077 0.0
H1522 H 0.73369 0.96638 0.35599 0.0
C1523 C 0.73117 0.97046 0.42103 0.0
C1524 C 0.96327 0.75592 0.35566 0.0
C1525 C 0.94717 0.76984 0.37145 0.0
H1526 H 0.00168 0.74564 0.34764 0.0
C1527 C 0.95831 0.78675 0.38978 0.0
H1528 H 0.95532 0.74283 0.34127 0.0
C1529 C 0.98491 0.78841 0.39339 0.0
C1530 C 0.00089 0.7731 0.37884 0.0
H1531 H 0.94644 0.7979 0.40212 0.0
H1532 H 0.99281 0.80079 0.40842 0.0
C1533 C 0.98987 0.75748 0.35936 0.0
C1534 C 0.22545 -0.00339 0.35448 0.0
C1535 C 0.22258 0.0138 0.37489 0.0
H1536 H 0.22661 0.9575 0.34262 0.0
C1537 C 0.21631 0.00413 0.39912 0.0
H1538 H 0.23017 0.00344 0.33555 0.0
C1539 C 0.21413 0.97781 0.40315 0.0
C1540 C 0.21833 0.9606 0.38306 0.0
H1541 H 0.21378 0.01688 0.41521 0.0
H1542 H 0.21009 0.971 0.42224 0.0
C1543 C 0.22342 0.97027 0.35855 0.0
C1544 C -0.00364 0.22585 0.35944 0.0
C1545 C 0.01438 0.21863 0.37793 0.0
H1546 H 0.95669 0.23 0.35005 0.0
C1547 C 0.00558 0.20749 0.40075 0.0
H1548 H 0.00251 0.23438 0.34162 0.0
C1549 C 0.97932 0.20487 0.40554 0.0
C1550 C 0.96133 0.21347 0.38768 0.0
H1551 H 0.01898 0.20153 0.41531 0.0
H1552 H 0.97322 0.19705 0.42369 0.0
C1553 C 0.97009 0.22336 0.36429 0.0
C1554 C 0.25505 0.00552 0.61764 0.0
C1555 C 0.24535 0.02288 0.59997 0.0
H1556 H 0.26255 0.96658 0.6259 0.0
C1557 C 0.23381 0.01343 0.57719 0.0
H1558 H 0.26401 0.01215 0.63539 0.0
C1559 C 0.23292 0.98726 0.57177 0.0
C1560 C 0.24368 0.97004 0.58893 0.0
H1561 H 0.22607 0.02631 0.56321 0.0
H1562 H 0.22451 0.98063 0.55377 0.0
C1563 C 0.25429 0.97939 0.61215 0.0
C1564 C 0.9785 0.22682 0.62721 0.0
C1565 C 0.96848 0.21541 0.60463 0.0
H1566 H 0.0121 0.2395 0.64828 0.0
C1567 C 0.98554 0.20587 0.58664 0.0
H1568 H 0.96587 0.23423 0.64155 0.0
C1569 C 0.01204 0.20897 0.59046 0.0
C1570 C 0.02206 0.22159 0.61241 0.0
H1571 H 0.97847 0.19687 0.5691 0.0
H1572 H 0.02465 0.20222 0.57578 0.0
C1573 C 0.00502 0.22983 0.63109 0.0
C1574 C -0.00357 0.81104 0.5924 0.0
C1575 C 0.01437 0.80045 0.60913 0.0
H1576 H 0.95678 0.81596 0.58348 0.0
C1577 C 0.00564 0.78937 0.632 0.0
H1578 H 0.00252 0.81988 0.5747 0.0
C1579 C 0.97939 0.78721 0.63709 0.0
C1580 C 0.96133 0.79597 0.61936 0.0
H1581 H 0.01898 0.78125 0.64543 0.0
H1582 H 0.97325 0.77744 0.65428 0.0
C1583 C 0.97018 0.80876 0.59742 0.0
loop_
_geom_bond_atom_site_label_1
_geom_bond_atom_site_label_2
_geom_bond_distance
_geom_bond_site_symmetry_2
_ccdc_geom_bond_type
C0 O1 1.160 . S
C0 O7 1.185 . S
O1 C0 1.160 . S
O2 Zn3 1.899 . S
O2 C10 1.284 . S
Zn3 O2 1.899 . S
Zn3 O4 2.032 . S
Zn3 O7 2.086 . S
Zn3 O12 1.977 . S
O4 Zn3 2.032 . S
O4 C8 1.278 . S
C5 O6 1.203 . S
C5 O12 1.267 . S
O6 C5 1.203 . S
O7 C0 1.185 . S
O7 Zn3 2.086 . S
C8 O4 1.278 . S
C8 O9 1.211 . S
O9 C8 1.211 . S
C10 O2 1.284 . S
C10 O11 1.273 . S
O11 C10 1.273 . S
O12 Zn3 1.977 . S
O12 C5 1.267 . S
C13 O14 1.160 . S
C13 O20 1.185 . S
O14 C13 1.160 . S
O15 Zn16 1.899 . S
O15 C23 1.284 . S
Zn16 O15 1.899 . S
Zn16 O17 2.032 . S
Zn16 O20 2.086 . S
Zn16 O25 1.977 . S
O17 Zn16 2.032 . S
O17 C21 1.278 . S
C18 O19 1.203 . S
C18 O25 1.267 . S
O19 C18 1.203 . S
O20 C13 1.185 . S
O20 Zn16 2.086 . S
C21 O17 1.278 . S
C21 O22 1.211 . S
O22 C21 1.211 . S
C23 O15 1.284 . S
C23 O24 1.273 . S
O24 C23 1.273 . S
O25 Zn16 1.977 . S
O25 C18 1.267 . S
C26 O27 1.160 . S
C26 O33 1.185 . S
O27 C26 1.160 . S
O28 Zn29 1.899 . S
O28 C36 1.284 . S
Zn29 O28 1.899 . S
Zn29 O30 2.032 . S
Zn29 O33 2.086 . S
Zn29 O38 1.977 . S
O30 Zn29 2.032 . S
O30 C34 1.278 . S
C31 O32 1.203 . S
C31 O38 1.267 . S
O32 C31 1.203 . S
O33 C26 1.185 . S
O33 Zn29 2.086 . S
C34 O30 1.278 . S
C34 O35 1.211 . S
O35 C34 1.211 . S
C36 O28 1.284 . S
C36 O37 1.273 . S
O37 C36 1.273 . S
O38 Zn29 1.977 . S
O38 C31 1.267 . S
C39 O40 1.160 . S
C39 O46 1.185 . S
O40 C39 1.160 . S
O41 Zn42 1.899 . S
O41 C49 1.284 . S
Zn42 O41 1.899 . S
Zn42 O43 2.032 . S
Zn42 O46 2.086 . S
Zn42 O51 1.977 . S
O43 Zn42 2.032 . S
O43 C47 1.278 . S
C44 O45 1.203 . S
C44 O51 1.267 . S
O45 C44 1.203 . S
O46 C39 1.185 . S
O46 Zn42 2.086 . S
C47 O43 1.278 . S
C47 O48 1.211 . S
O48 C47 1.211 . S
C49 O41 1.284 . S
C49 O50 1.273 . S
O50 C49 1.273 . S
O51 Zn42 1.977 . S
O51 C44 1.267 . S
C52 O53 1.160 . S
C52 O59 1.185 . S
O53 C52 1.160 . S
O54 Zn55 1.899 . S
O54 C62 1.284 . S
Zn55 O54 1.899 . S
Zn55 O56 2.032 . S
Zn55 O59 2.086 . S
Zn55 O64 1.977 . S
O56 Zn55 2.032 . S
O56 C60 1.278 . S
C57 O58 1.203 . S
C57 O64 1.267 . S
O58 C57 1.203 . S
O59 C52 1.185 . S
O59 Zn55 2.086 . S
C60 O56 1.278 . S
C60 O61 1.211 . S
O61 C60 1.211 . S
C62 O54 1.284 . S
C62 O63 1.273 . S
O63 C62 1.273 . S
O64 Zn55 1.977 . S
O64 C57 1.267 . S
C65 O66 1.160 . S
C65 O72 1.185 . S
O66 C65 1.160 . S
O67 Zn68 1.899 . S
O67 C75 1.284 . S
Zn68 O67 1.899 . S
Zn68 O69 2.032 . S
Zn68 O72 2.086 . S
Zn68 O77 1.977 . S
O69 Zn68 2.032 . S
O69 C73 1.278 . S
C70 O71 1.203 . S
C70 O77 1.267 . S
O71 C70 1.203 . S
O72 C65 1.185 . S
O72 Zn68 2.086 . S
C73 O69 1.278 . S
C73 O74 1.211 . S
O74 C73 1.211 . S
C75 O67 1.284 . S
C75 O76 1.273 . S
O76 C75 1.273 . S
O77 Zn68 1.977 . S
O77 C70 1.267 . S
C78 O79 1.160 . S
C78 O85 1.185 . S
O79 C78 1.160 . S
O80 Zn81 1.899 . S
O80 C88 1.284 . S
Zn81 O80 1.899 . S
Zn81 O82 2.032 . S
Zn81 O85 2.086 . S
Zn81 O90 1.977 . S
O82 Zn81 2.032 . S
O82 C86 1.278 . S
C83 O84 1.203 . S
C83 O90 1.267 . S
O84 C83 1.203 . S
O85 C78 1.185 . S
O85 Zn81 2.086 . S
C86 O82 1.278 . S
C86 O87 1.211 . S
O87 C86 1.211 . S
C88 O80 1.284 . S
C88 O89 1.273 . S
O89 C88 1.273 . S
O90 Zn81 1.977 . S
O90 C83 1.267 . S
C91 O92 1.160 . S
C91 O98 1.185 . S
O92 C91 1.160 . S
O93 Zn94 1.899 . S
O93 C101 1.284 . S
Zn94 O93 1.899 . S
Zn94 O95 2.032 . S
Zn94 O98 2.086 . S
Zn94 O103 1.977 . S
O95 Zn94 2.032 . S
O95 C99 1.278 . S
C96 O97 1.203 . S
C96 O103 1.267 . S
O97 C96 1.203 . S
O98 C91 1.185 . S
O98 Zn94 2.086 . S
C99 O95 1.278 . S
C99 O100 1.211 . S
O100 C99 1.211 . S
C101 O93 1.284 . S
C101 O102 1.273 . S
O102 C101 1.273 . S
O103 Zn94 1.977 . S
O103 C96 1.267 . S
C104 O105 1.160 . S
C104 O111 1.185 . S
O105 C104 1.160 . S
O106 Zn107 1.899 . S
O106 C114 1.284 . S
Zn107 O106 1.899 . S
Zn107 O108 2.032 . S
Zn107 O111 2.086 . S
Zn107 O116 1.977 . S
O108 Zn107 2.032 . S
O108 C112 1.278 . S
C109 O110 1.203 . S
C109 O116 1.267 . S
O110 C109 1.203 . S
O111 C104 1.185 . S
O111 Zn107 2.086 . S
C112 O108 1.278 . S
C112 O113 1.211 . S
O113 C112 1.211 . S
C114 O106 1.284 . S
C114 O115 1.273 . S
O115 C114 1.273 . S
O116 Zn107 1.977 . S
O116 C109 1.267 . S
C117 O118 1.160 . S
C117 O124 1.185 . S
O118 C117 1.160 . S
O119 Zn120 1.899 . S
O119 C127 1.284 . S
Zn120 O119 1.899 . S
Zn120 O121 2.032 . S
Zn120 O124 2.086 . S
Zn120 O129 1.977 . S
O121 Zn120 2.032 . S
O121 C125 1.278 . S
C122 O123 1.203 . S
C122 O129 1.267 . S
O123 C122 1.203 . S
O124 C117 1.185 . S
O124 Zn120 2.086 . S
C125 O121 1.278 . S
C125 O126 1.211 . S
O126 C125 1.211 . S
C127 O119 1.284 . S
C127 O128 1.273 . S
O128 C127 1.273 . S
O129 Zn120 1.977 . S
O129 C122 1.267 . S
C130 O131 1.160 . S
C130 O137 1.185 . S
O131 C130 1.160 . S
O132 Zn133 1.899 . S
O132 C140 1.284 . S
Zn133 O132 1.899 . S
Zn133 O134 2.032 . S
Zn133 O137 2.086 . S
Zn133 O142 1.977 . S
O134 Zn133 2.032 . S
O134 C138 1.278 . S
C135 O136 1.203 . S
C135 O142 1.267 . S
O136 C135 1.203 . S
O137 C130 1.185 . S
O137 Zn133 2.086 . S
C138 O134 1.278 . S
C138 O139 1.211 . S
O139 C138 1.211 . S
C140 O132 1.284 . S
C140 O141 1.273 . S
O141 C140 1.273 . S
O142 Zn133 1.977 . S
O142 C135 1.267 . S
C143 O144 1.160 . S
C143 O150 1.185 . S
O144 C143 1.160 . S
O145 Zn146 1.899 . S
O145 C153 1.284 . S
Zn146 O145 1.899 . S
Zn146 O147 2.032 . S
Zn146 O150 2.086 . S
Zn146 O155 1.977 . S
O147 Zn146 2.032 . S
O147 C151 1.278 . S
C148 O149 1.203 . S
C148 O155 1.267 . S
O149 C148 1.203 . S
O150 C143 1.185 . S
O150 Zn146 2.086 . S
C151 O147 1.278 . S
C151 O152 1.211 . S
O152 C151 1.211 . S
C153 O145 1.284 . S
C153 O154 1.273 . S
O154 C153 1.273 . S
O155 Zn146 1.977 . S
O155 C148 1.267 . S
C156 O157 1.160 . S
C156 O163 1.185 . S
O157 C156 1.160 . S
O158 Zn159 1.899 . S
O158 C166 1.284 . S
Zn159 O158 1.899 . S
Zn159 O160 2.032 . S
Zn159 O163 2.086 . S
Zn159 O168 1.977 . S
O160 Zn159 2.032 . S
O160 C164 1.278 . S
C161 O162 1.203 . S
C161 O168 1.267 . S
O162 C161 1.203 . S
O163 C156 1.185 . S
O163 Zn159 2.086 . S
C164 O160 1.278 . S
C164 O165 1.211 . S
O165 C164 1.211 . S
C166 O158 1.284 . S
C166 O167 1.273 . S
O167 C166 1.273 . S
O168 Zn159 1.977 . S
O168 C161 1.267 . S
C169 O170 1.160 . S
C169 O176 1.185 . S
O170 C169 1.160 . S
O171 Zn172 1.899 . S
O171 C179 1.284 . S
Zn172 O171 1.899 . S
Zn172 O173 2.032 . S
Zn172 O176 2.086 . S
Zn172 O181 1.977 . S
O173 Zn172 2.032 . S
O173 C177 1.278 . S
C174 O175 1.203 . S
C174 O181 1.267 . S
O175 C174 1.203 . S
O176 C169 1.185 . S
O176 Zn172 2.086 . S
C177 O173 1.278 . S
C177 O178 1.211 . S
O178 C177 1.211 . S
C179 O171 1.284 . S
C179 O180 1.273 . S
O180 C179 1.273 . S
O181 Zn172 1.977 . S
O181 C174 1.267 . S
C182 O183 1.160 . S
C182 O189 1.185 . S
O183 C182 1.160 . S
O184 Zn185 1.899 . S
O184 C192 1.284 . S
Zn185 O184 1.899 . S
Zn185 O186 2.032 . S
Zn185 O189 2.086 . S
Zn185 O194 1.977 . S
O186 Zn185 2.032 . S
O186 C190 1.278 . S
C187 O188 1.203 . S
C187 O194 1.267 . S
O188 C187 1.203 . S
O189 C182 1.185 . S
O189 Zn185 2.086 . S
C190 O186 1.278 . S
C190 O191 1.211 . S
O191 C190 1.211 . S
C192 O184 1.284 . S
C192 O193 1.273 . S
O193 C192 1.273 . S
O194 Zn185 1.977 . S
O194 C187 1.267 . S
C195 O196 1.160 . S
C195 O202 1.185 . S
O196 C195 1.160 . S
O197 Zn198 1.899 . S
O197 C205 1.284 . S
Zn198 O197 1.899 . S
Zn198 O199 2.032 . S
Zn198 O202 2.086 . S
Zn198 O207 1.977 . S
O199 Zn198 2.032 . S
O199 C203 1.278 . S
C200 O201 1.203 . S
C200 O207 1.267 . S
O201 C200 1.203 . S
O202 C195 1.185 . S
O202 Zn198 2.086 . S
C203 O199 1.278 . S
C203 O204 1.211 . S
O204 C203 1.211 . S
C205 O197 1.284 . S
C205 O206 1.273 . S
O206 C205 1.273 . S
O207 Zn198 1.977 . S
O207 C200 1.267 . S
C208 O209 1.160 . S
C208 O215 1.185 . S
O209 C208 1.160 . S
O210 Zn211 1.899 . S
O210 C218 1.284 . S
Zn211 O210 1.899 . S
Zn211 O212 2.032 . S
Zn211 O215 2.086 . S
Zn211 O220 1.977 . S
O212 Zn211 2.032 . S
O212 C216 1.278 . S
C213 O214 1.203 . S
C213 O220 1.267 . S
O214 C213 1.203 . S
O215 C208 1.185 . S
O215 Zn211 2.086 . S
C216 O212 1.278 . S
C216 O217 1.211 . S
O217 C216 1.211 . S
C218 O210 1.284 . S
C218 O219 1.273 . S
O219 C218 1.273 . S
O220 Zn211 1.977 . S
O220 C213 1.267 . S
C221 O222 1.160 . S
C221 O228 1.185 . S
O222 C221 1.160 . S
O223 Zn224 1.899 . S
O223 C231 1.284 . S
Zn224 O223 1.899 . S
Zn224 O225 2.032 . S
Zn224 O228 2.086 . S
Zn224 O233 1.977 . S
O225 Zn224 2.032 . S
O225 C229 1.278 . S
C226 O227 1.203 . S
C226 O233 1.267 . S
O227 C226 1.203 . S
O228 C221 1.185 . S
O228 Zn224 2.086 . S
C229 O225 1.278 . S
C229 O230 1.211 . S
O230 C229 1.211 . S
C231 O223 1.284 . S
C231 O232 1.273 . S
O232 C231 1.273 . S
O233 Zn224 1.977 . S
O233 C226 1.267 . S
C234 O235 1.160 . S
C234 O241 1.185 . S
O235 C234 1.160 . S
O236 Zn237 1.899 . S
O236 C244 1.284 . S
Zn237 O236 1.899 . S
Zn237 O238 2.032 . S
Zn237 O241 2.086 . S
Zn237 O246 1.977 . S
O238 Zn237 2.032 . S
O238 C242 1.278 . S
C239 O240 1.203 . S
C239 O246 1.267 . S
O240 C239 1.203 . S
O241 C234 1.185 . S
O241 Zn237 2.086 . S
C242 O238 1.278 . S
C242 O243 1.211 . S
O243 C242 1.211 . S
C244 O236 1.284 . S
C244 O245 1.273 . S
O245 C244 1.273 . S
O246 Zn237 1.977 . S
O246 C239 1.267 . S
C247 O248 1.160 . S
C247 O254 1.185 . S
O248 C247 1.160 . S
O249 Zn250 1.899 . S
O249 C257 1.284 . S
Zn250 O249 1.899 . S
Zn250 O251 2.032 . S
Zn250 O254 2.086 . S
Zn250 O259 1.977 . S
O251 Zn250 2.032 . S
O251 C255 1.278 . S
C252 O253 1.203 . S
C252 O259 1.267 . S
O253 C252 1.203 . S
O254 C247 1.185 . S
O254 Zn250 2.086 . S
C255 O251 1.278 . S
C255 O256 1.211 . S
O256 C255 1.211 . S
C257 O249 1.284 . S
C257 O258 1.273 . S
O258 C257 1.273 . S
O259 Zn250 1.977 . S
O259 C252 1.267 . S
C260 O261 1.160 . S
C260 O267 1.185 . S
O261 C260 1.160 . S
O262 Zn263 1.899 . S
O262 C270 1.284 . S
Zn263 O262 1.899 . S
Zn263 O264 2.032 . S
Zn263 O267 2.086 . S
Zn263 O272 1.977 . S
O264 Zn263 2.032 . S
O264 C268 1.278 . S
C265 O266 1.203 . S
C265 O272 1.267 . S
O266 C265 1.203 . S
O267 C260 1.185 . S
O267 Zn263 2.086 . S
C268 O264 1.278 . S
C268 O269 1.211 . S
O269 C268 1.211 . S
C270 O262 1.284 . S
C270 O271 1.273 . S
O271 C270 1.273 . S
O272 Zn263 1.977 . S
O272 C265 1.267 . S
C273 O274 1.160 . S
C273 O280 1.185 . S
O274 C273 1.160 . S
O275 Zn276 1.899 . S
O275 C283 1.284 . S
Zn276 O275 1.899 . S
Zn276 O277 2.032 . S
Zn276 O280 2.086 . S
Zn276 O285 1.977 . S
O277 Zn276 2.032 . S
O277 C281 1.278 . S
C278 O279 1.203 . S
C278 O285 1.267 . S
O279 C278 1.203 . S
O280 C273 1.185 . S
O280 Zn276 2.086 . S
C281 O277 1.278 . S
C281 O282 1.211 . S
O282 C281 1.211 . S
C283 O275 1.284 . S
C283 O284 1.273 . S
O284 C283 1.273 . S
O285 Zn276 1.977 . S
O285 C278 1.267 . S
C286 O287 1.160 . S
C286 O293 1.185 . S
O287 C286 1.160 . S
O288 Zn289 1.899 . S
O288 C296 1.284 . S
Zn289 O288 1.899 . S
Zn289 O290 2.032 . S
Zn289 O293 2.086 . S
Zn289 O298 1.977 . S
O290 Zn289 2.032 . S
O290 C294 1.278 . S
C291 O292 1.203 . S
C291 O298 1.267 . S
O292 C291 1.203 . S
O293 C286 1.185 . S
O293 Zn289 2.086 . S
C294 O290 1.278 . S
C294 O295 1.211 . S
O295 C294 1.211 . S
C296 O288 1.284 . S
C296 O297 1.273 . S
O297 C296 1.273 . S
O298 Zn289 1.977 . S
O298 C291 1.267 . S
C299 O300 1.160 . S
C299 O306 1.185 . S
O300 C299 1.160 . S
O301 Zn302 1.899 . S
O301 C309 1.284 . S
Zn302 O301 1.899 . S
Zn302 O303 2.032 . S
Zn302 O306 2.086 . S
Zn302 O311 1.977 . S
O303 Zn302 2.032 . S
O303 C307 1.278 . S
C304 O305 1.203 . S
C304 O311 1.267 . S
O305 C304 1.203 . S
O306 C299 1.185 . S
O306 Zn302 2.086 . S
C307 O303 1.278 . S
C307 O308 1.211 . S
O308 C307 1.211 . S
C309 O301 1.284 . S
C309 O310 1.273 . S
O310 C309 1.273 . S
O311 Zn302 1.977 . S
O311 C304 1.267 . S
C312 O313 1.160 . S
C312 O319 1.185 . S
O313 C312 1.160 . S
O314 Zn315 1.899 . S
O314 C322 1.284 . S
Zn315 O314 1.899 . S
Zn315 O316 2.032 . S
Zn315 O319 2.086 . S
Zn315 O324 1.977 . S
O316 Zn315 2.032 . S
O316 C320 1.278 . S
C317 O318 1.203 . S
C317 O324 1.267 . S
O318 C317 1.203 . S
O319 C312 1.185 . S
O319 Zn315 2.086 . S
C320 O316 1.278 . S
C320 O321 1.211 . S
O321 C320 1.211 . S
C322 O314 1.284 . S
C322 O323 1.273 . S
O323 C322 1.273 . S
O324 Zn315 1.977 . S
O324 C317 1.267 . S
C325 O326 1.160 . S
C325 O332 1.185 . S
O326 C325 1.160 . S
O327 Zn328 1.899 . S
O327 C335 1.284 . S
Zn328 O327 1.899 . S
Zn328 O329 2.032 . S
Zn328 O332 2.086 . S
Zn328 O337 1.977 . S
O329 Zn328 2.032 . S
O329 C333 1.278 . S
C330 O331 1.203 . S
C330 O337 1.267 . S
O331 C330 1.203 . S
O332 C325 1.185 . S
O332 Zn328 2.086 . S
C333 O329 1.278 . S
C333 O334 1.211 . S
O334 C333 1.211 . S
C335 O327 1.284 . S
C335 O336 1.273 . S
O336 C335 1.273 . S
O337 Zn328 1.977 . S
O337 C330 1.267 . S
C338 O339 1.160 . S
C338 O345 1.185 . S
O339 C338 1.160 . S
O340 Zn341 1.899 . S
O340 C348 1.284 . S
Zn341 O340 1.899 . S
Zn341 O342 2.032 . S
Zn341 O345 2.086 . S
Zn341 O350 1.977 . S
O342 Zn341 2.032 . S
O342 C346 1.278 . S
C343 O344 1.203 . S
C343 O350 1.267 . S
O344 C343 1.203 . S
O345 C338 1.185 . S
O345 Zn341 2.086 . S
C346 O342 1.278 . S
C346 O347 1.211 . S
O347 C346 1.211 . S
C348 O340 1.284 . S
C348 O349 1.273 . S
O349 C348 1.273 . S
O350 Zn341 1.977 . S
O350 C343 1.267 . S
C351 O352 1.160 . S
C351 O358 1.185 . S
O352 C351 1.160 . S
O353 Zn354 1.899 . S
O353 C361 1.284 . S
Zn354 O353 1.899 . S
Zn354 O355 2.032 . S
Zn354 O358 2.086 . S
Zn354 O363 1.977 . S
O355 Zn354 2.032 . S
O355 C359 1.278 . S
C356 O357 1.203 . S
C356 O363 1.267 . S
O357 C356 1.203 . S
O358 C351 1.185 . S
O358 Zn354 2.086 . S
C359 O355 1.278 . S
C359 O360 1.211 . S
O360 C359 1.211 . S
C361 O353 1.284 . S
C361 O362 1.273 . S
O362 C361 1.273 . S
O363 Zn354 1.977 . S
O363 C356 1.267 . S
C364 O365 1.160 . S
C364 O371 1.185 . S
O365 C364 1.160 . S
O366 Zn367 1.899 . S
O366 C374 1.284 . S
Zn367 O366 1.899 . S
Zn367 O368 2.032 . S
Zn367 O371 2.086 . S
Zn367 O376 1.977 . S
O368 Zn367 2.032 . S
O368 C372 1.278 . S
C369 O370 1.203 . S
C369 O376 1.267 . S
O370 C369 1.203 . S
O371 C364 1.185 . S
O371 Zn367 2.086 . S
C372 O368 1.278 . S
C372 O373 1.211 . S
O373 C372 1.211 . S
C374 O366 1.284 . S
C374 O375 1.273 . S
O375 C374 1.273 . S
O376 Zn367 1.977 . S
O376 C369 1.267 . S
C377 O378 1.160 . S
C377 O384 1.185 . S
O378 C377 1.160 . S
O379 Zn380 1.899 . S
O379 C387 1.284 . S
Zn380 O379 1.899 . S
Zn380 O381 2.032 . S
Zn380 O384 2.086 . S
Zn380 O389 1.977 . S
O381 Zn380 2.032 . S
O381 C385 1.278 . S
C382 O383 1.203 . S
C382 O389 1.267 . S
O383 C382 1.203 . S
O384 C377 1.185 . S
O384 Zn380 2.086 . S
C385 O381 1.278 . S
C385 O386 1.211 . S
O386 C385 1.211 . S
C387 O379 1.284 . S
C387 O388 1.273 . S
O388 C387 1.273 . S
O389 Zn380 1.977 . S
O389 C382 1.267 . S
C390 O391 1.160 . S
C390 O397 1.185 . S
O391 C390 1.160 . S
O392 Zn393 1.899 . S
O392 C400 1.284 . S
Zn393 O392 1.899 . S
Zn393 O394 2.032 . S
Zn393 O397 2.086 . S
Zn393 O402 1.977 . S
O394 Zn393 2.032 . S
O394 C398 1.278 . S
C395 O396 1.203 . S
C395 O402 1.267 . S
O396 C395 1.203 . S
O397 C390 1.185 . S
O397 Zn393 2.086 . S
C398 O394 1.278 . S
C398 O399 1.211 . S
O399 C398 1.211 . S
C400 O392 1.284 . S
C400 O401 1.273 . S
O401 C400 1.273 . S
O402 Zn393 1.977 . S
O402 C395 1.267 . S
C403 O404 1.160 . S
C403 O410 1.185 . S
O404 C403 1.160 . S
O405 Zn406 1.899 . S
O405 C413 1.284 . S
Zn406 O405 1.899 . S
Zn406 O407 2.032 . S
Zn406 O410 2.086 . S
Zn406 O415 1.977 . S
O407 Zn406 2.032 . S
O407 C411 1.278 . S
C408 O409 1.203 . S
C408 O415 1.267 . S
O409 C408 1.203 . S
O410 C403 1.185 . S
O410 Zn406 2.086 . S
C411 O407 1.278 . S
C411 O412 1.211 . S
O412 C411 1.211 . S
C413 O405 1.284 . S
C413 O414 1.273 . S
O414 C413 1.273 . S
O415 Zn406 1.977 . S
O415 C408 1.267 . S
C416 O417 1.160 . S
C416 O423 1.185 . S
O417 C416 1.160 . S
O418 Zn419 1.899 . S
O418 C426 1.284 . S
Zn419 O418 1.899 . S
Zn419 O420 2.032 . S
Zn419 O423 2.086 . S
Zn419 O428 1.977 . S
O420 Zn419 2.032 . S
O420 C424 1.278 . S
C421 O422 1.203 . S
C421 O428 1.267 . S
O422 C421 1.203 . S
O423 C416 1.185 . S
O423 Zn419 2.086 . S
C424 O420 1.278 . S
C424 O425 1.211 . S
O425 C424 1.211 . S
C426 O418 1.284 . S
C426 O427 1.273 . S
O427 C426 1.273 . S
O428 Zn419 1.977 . S
O428 C421 1.267 . S
C429 O430 1.160 . S
C429 O436 1.185 . S
O430 C429 1.160 . S
O431 Zn432 1.899 . S
O431 C439 1.284 . S
Zn432 O431 1.899 . S
Zn432 O433 2.032 . S
Zn432 O436 2.086 . S
Zn432 O441 1.977 . S
O433 Zn432 2.032 . S
O433 C437 1.278 . S
C434 O435 1.203 . S
C434 O441 1.267 . S
O435 C434 1.203 . S
O436 C429 1.185 . S
O436 Zn432 2.086 . S
C437 O433 1.278 . S
C437 O438 1.211 . S
O438 C437 1.211 . S
C439 O431 1.284 . S
C439 O440 1.273 . S
O440 C439 1.273 . S
O441 Zn432 1.977 . S
O441 C434 1.267 . S
C442 O443 1.160 . S
C442 O449 1.185 . S
O443 C442 1.160 . S
O444 Zn445 1.899 . S
O444 C452 1.284 . S
Zn445 O444 1.899 . S
Zn445 O446 2.032 . S
Zn445 O449 2.086 . S
Zn445 O454 1.977 . S
O446 Zn445 2.032 . S
O446 C450 1.278 . S
C447 O448 1.203 . S
C447 O454 1.267 . S
O448 C447 1.203 . S
O449 C442 1.185 . S
O449 Zn445 2.086 . S
C450 O446 1.278 . S
C450 O451 1.211 . S
O451 C450 1.211 . S
C452 O444 1.284 . S
C452 O453 1.273 . S
O453 C452 1.273 . S
O454 Zn445 1.977 . S
O454 C447 1.267 . S
C455 O456 1.160 . S
C455 O462 1.185 . S
O456 C455 1.160 . S
O457 Zn458 1.899 . S
O457 C465 1.284 . S
Zn458 O457 1.899 . S
Zn458 O459 2.032 . S
Zn458 O462 2.086 . S
Zn458 O467 1.977 . S
O459 Zn458 2.032 . S
O459 C463 1.278 . S
C460 O461 1.203 . S
C460 O467 1.267 . S
O461 C460 1.203 . S
O462 C455 1.185 . S
O462 Zn458 2.086 . S
C463 O459 1.278 . S
C463 O464 1.211 . S
O464 C463 1.211 . S
C465 O457 1.284 . S
C465 O466 1.273 . S
O466 C465 1.273 . S
O467 Zn458 1.977 . S
O467 C460 1.267 . S
C468 O469 1.160 . S
C468 O475 1.185 . S
O469 C468 1.160 . S
O470 Zn471 1.899 . S
O470 C478 1.284 . S
Zn471 O470 1.899 . S
Zn471 O472 2.032 . S
Zn471 O475 2.086 . S
Zn471 O480 1.977 . S
O472 Zn471 2.032 . S
O472 C476 1.278 . S
C473 O474 1.203 . S
C473 O480 1.267 . S
O474 C473 1.203 . S
O475 C468 1.185 . S
O475 Zn471 2.086 . S
C476 O472 1.278 . S
C476 O477 1.211 . S
O477 C476 1.211 . S
C478 O470 1.284 . S
C478 O479 1.273 . S
O479 C478 1.273 . S
O480 Zn471 1.977 . S
O480 C473 1.267 . S
C481 O482 1.160 . S
C481 O488 1.185 . S
O482 C481 1.160 . S
O483 Zn484 1.899 . S
O483 C491 1.284 . S
Zn484 O483 1.899 . S
Zn484 O485 2.032 . S
Zn484 O488 2.086 . S
Zn484 O493 1.977 . S
O485 Zn484 2.032 . S
O485 C489 1.278 . S
C486 O487 1.203 . S
C486 O493 1.267 . S
O487 C486 1.203 . S
O488 C481 1.185 . S
O488 Zn484 2.086 . S
C489 O485 1.278 . S
C489 O490 1.211 . S
O490 C489 1.211 . S
C491 O483 1.284 . S
C491 O492 1.273 . S
O492 C491 1.273 . S
O493 Zn484 1.977 . S
O493 C486 1.267 . S
C494 O495 1.160 . S
C494 O501 1.185 . S
O495 C494 1.160 . S
O496 Zn497 1.899 . S
O496 C504 1.284 . S
Zn497 O496 1.899 . S
Zn497 O498 2.032 . S
Zn497 O501 2.086 . S
Zn497 O506 1.977 . S
O498 Zn497 2.032 . S
O498 C502 1.278 . S
C499 O500 1.203 . S
C499 O506 1.267 . S
O500 C499 1.203 . S
O501 C494 1.185 . S
O501 Zn497 2.086 . S
C502 O498 1.278 . S
C502 O503 1.211 . S
O503 C502 1.211 . S
C504 O496 1.284 . S
C504 O505 1.273 . S
O505 C504 1.273 . S
O506 Zn497 1.977 . S
O506 C499 1.267 . S
C507 O508 1.160 . S
C507 O514 1.185 . S
O508 C507 1.160 . S
O509 Zn510 1.899 . S
O509 C517 1.284 . S
Zn510 O509 1.899 . S
Zn510 O511 2.032 . S
Zn510 O514 2.086 . S
Zn510 O519 1.977 . S
O511 Zn510 2.032 . S
O511 C515 1.278 . S
C512 O513 1.203 . S
C512 O519 1.267 . S
O513 C512 1.203 . S
O514 C507 1.185 . S
O514 Zn510 2.086 . S
C515 O511 1.278 . S
C515 O516 1.211 . S
O516 C515 1.211 . S
C517 O509 1.284 . S
C517 O518 1.273 . S
O518 C517 1.273 . S
O519 Zn510 1.977 . S
O519 C512 1.267 . S
C520 O521 1.160 . S
C520 O527 1.185 . S
O521 C520 1.160 . S
O522 Zn523 1.899 . S
O522 C530 1.284 . S
Zn523 O522 1.899 . S
Zn523 O524 2.032 . S
Zn523 O527 2.086 . S
Zn523 O532 1.977 . S
O524 Zn523 2.032 . S
O524 C528 1.278 . S
C525 O526 1.203 . S
C525 O532 1.267 . S
O526 C525 1.203 . S
O527 C520 1.185 . S
O527 Zn523 2.086 . S
C528 O524 1.278 . S
C528 O529 1.211 . S
O529 C528 1.211 . S
C530 O522 1.284 . S
C530 O531 1.273 . S
O531 C530 1.273 . S
O532 Zn523 1.977 . S
O532 C525 1.267 . S
C533 O534 1.160 . S
C533 O540 1.185 . S
O534 C533 1.160 . S
O535 Zn536 1.899 . S
O535 C543 1.284 . S
Zn536 O535 1.899 . S
Zn536 O537 2.032 . S
Zn536 O540 2.086 . S
Zn536 O545 1.977 . S
O537 Zn536 2.032 . S
O537 C541 1.278 . S
C538 O539 1.203 . S
C538 O545 1.267 . S
O539 C538 1.203 . S
O540 C533 1.185 . S
O540 Zn536 2.086 . S
C541 O537 1.278 . S
C541 O542 1.211 . S
O542 C541 1.211 . S
C543 O535 1.284 . S
C543 O544 1.273 . S
O544 C543 1.273 . S
O545 Zn536 1.977 . S
O545 C538 1.267 . S
C546 O547 1.160 . S
C546 O553 1.185 . S
O547 C546 1.160 . S
O548 Zn549 1.899 . S
O548 C556 1.284 . S
Zn549 O548 1.899 . S
Zn549 O550 2.032 . S
Zn549 O553 2.086 . S
Zn549 O558 1.977 . S
O550 Zn549 2.032 . S
O550 C554 1.278 . S
C551 O552 1.203 . S
C551 O558 1.267 . S
O552 C551 1.203 . S
O553 C546 1.185 . S
O553 Zn549 2.086 . S
C554 O550 1.278 . S
C554 O555 1.211 . S
O555 C554 1.211 . S
C556 O548 1.284 . S
C556 O557 1.273 . S
O557 C556 1.273 . S
O558 Zn549 1.977 . S
O558 C551 1.267 . S
C559 O560 1.160 . S
C559 O566 1.185 . S
O560 C559 1.160 . S
O561 Zn562 1.899 . S
O561 C569 1.284 . S
Zn562 O561 1.899 . S
Zn562 O563 2.032 . S
Zn562 O566 2.086 . S
Zn562 O571 1.977 . S
O563 Zn562 2.032 . S
O563 C567 1.278 . S
C564 O565 1.203 . S
C564 O571 1.267 . S
O565 C564 1.203 . S
O566 C559 1.185 . S
O566 Zn562 2.086 . S
C567 O563 1.278 . S
C567 O568 1.211 . S
O568 C567 1.211 . S
C569 O561 1.284 . S
C569 O570 1.273 . S
O570 C569 1.273 . S
O571 Zn562 1.977 . S
O571 C564 1.267 . S
C572 O573 1.160 . S
C572 O579 1.185 . S
O573 C572 1.160 . S
O574 Zn575 1.899 . S
O574 C582 1.284 . S
Zn575 O574 1.899 . S
Zn575 O576 2.032 . S
Zn575 O579 2.086 . S
Zn575 O584 1.977 . S
O576 Zn575 2.032 . S
O576 C580 1.278 . S
C577 O578 1.203 . S
C577 O584 1.267 . S
O578 C577 1.203 . S
O579 C572 1.185 . S
O579 Zn575 2.086 . S
C580 O576 1.278 . S
C580 O581 1.211 . S
O581 C580 1.211 . S
C582 O574 1.284 . S
C582 O583 1.273 . S
O583 C582 1.273 . S
O584 Zn575 1.977 . S
O584 C577 1.267 . S
C585 O586 1.160 . S
C585 O592 1.185 . S
O586 C585 1.160 . S
O587 Zn588 1.899 . S
O587 C595 1.284 . S
Zn588 O587 1.899 . S
Zn588 O589 2.032 . S
Zn588 O592 2.086 . S
Zn588 O597 1.977 . S
O589 Zn588 2.032 . S
O589 C593 1.278 . S
C590 O591 1.203 . S
C590 O597 1.267 . S
O591 C590 1.203 . S
O592 C585 1.185 . S
O592 Zn588 2.086 . S
C593 O589 1.278 . S
C593 O594 1.211 . S
O594 C593 1.211 . S
C595 O587 1.284 . S
C595 O596 1.273 . S
O596 C595 1.273 . S
O597 Zn588 1.977 . S
O597 C590 1.267 . S
C598 O599 1.160 . S
C598 O605 1.185 . S
O599 C598 1.160 . S
O600 Zn601 1.899 . S
O600 C608 1.284 . S
Zn601 O600 1.899 . S
Zn601 O602 2.032 . S
Zn601 O605 2.086 . S
Zn601 O610 1.977 . S
O602 Zn601 2.032 . S
O602 C606 1.278 . S
C603 O604 1.203 . S
C603 O610 1.267 . S
O604 C603 1.203 . S
O605 C598 1.185 . S
O605 Zn601 2.086 . S
C606 O602 1.278 . S
C606 O607 1.211 . S
O607 C606 1.211 . S
C608 O600 1.284 . S
C608 O609 1.273 . S
O609 C608 1.273 . S
O610 Zn601 1.977 . S
O610 C603 1.267 . S
C611 O612 1.160 . S
C611 O618 1.185 . S
O612 C611 1.160 . S
O613 Zn614 1.899 . S
O613 C621 1.284 . S
Zn614 O613 1.899 . S
Zn614 O615 2.032 . S
Zn614 O618 2.086 . S
Zn614 O623 1.977 . S
O615 Zn614 2.032 . S
O615 C619 1.278 . S
C616 O617 1.203 . S
C616 O623 1.267 . S
O617 C616 1.203 . S
O618 C611 1.185 . S
O618 Zn614 2.086 . S
C619 O615 1.278 . S
C619 O620 1.211 . S
O620 C619 1.211 . S
C621 O613 1.284 . S
C621 O622 1.273 . S
O622 C621 1.273 . S
O623 Zn614 1.977 . S
O623 C616 1.267 . S
C624 C625 1.387 . S
C624 H628 0.950 . S
C624 C633 1.390 . S
C625 C624 1.387 . S
C625 C627 1.387 . S
H626 C633 0.950 . S
C627 C625 1.387 . S
C627 C629 1.390 . S
C627 H631 0.950 . S
H628 C624 0.950 . S
C629 C627 1.390 . S
C629 C630 1.387 . S
C629 H632 0.950 . S
C630 C629 1.387 . S
C630 C633 1.387 . S
H631 C627 0.950 . S
H632 C629 0.950 . S
C633 C624 1.390 . S
C633 H626 0.950 . S
C633 C630 1.387 . S
C634 C635 1.387 . S
C634 H638 0.950 . S
C634 C643 1.390 . S
C635 C634 1.387 . S
C635 C637 1.387 . S
H636 C643 0.950 . S
C637 C635 1.387 . S
C637 C639 1.390 . S
C637 H641 0.950 . S
H638 C634 0.950 . S
C639 C637 1.390 . S
C639 C640 1.387 . S
C639 H642 0.950 . S
C640 C639 1.387 . S
C640 C643 1.387 . S
H641 C637 0.950 . S
H642 C639 0.950 . S
C643 C634 1.390 . S
C643 H636 0.950 . S
C643 C640 1.387 . S
C644 C645 1.387 . S
C644 H648 0.950 . S
C644 C653 1.390 . S
C645 C644 1.387 . S
C645 C647 1.387 . S
H646 C653 0.950 . S
C647 C645 1.387 . S
C647 C649 1.390 . S
C647 H651 0.950 . S
H648 C644 0.950 . S
C649 C647 1.390 . S
C649 C650 1.387 . S
C649 H652 0.950 . S
C650 C649 1.387 . S
C650 C653 1.387 . S
H651 C647 0.950 . S
H652 C649 0.950 . S
C653 C644 1.390 . S
C653 H646 0.950 . S
C653 C650 1.387 . S
C654 C655 1.387 . S
C654 H658 0.950 . S
C654 C663 1.390 . S
C655 C654 1.387 . S
C655 C657 1.387 . S
H656 C663 0.950 . S
C657 C655 1.387 . S
C657 C659 1.390 . S
C657 H661 0.950 . S
H658 C654 0.950 . S
C659 C657 1.390 . S
C659 C660 1.387 . S
C659 H662 0.950 . S
C660 C659 1.387 . S
C660 C663 1.387 . S
H661 C657 0.950 . S
H662 C659 0.950 . S
C663 C654 1.390 . S
C663 H656 0.950 . S
C663 C660 1.387 . S
C664 C665 1.387 . S
C664 H668 0.950 . S
C664 C673 1.390 . S
C665 C664 1.387 . S
C665 C667 1.387 . S
H666 C673 0.950 . S
C667 C665 1.387 . S
C667 C669 1.390 . S
C667 H671 0.950 . S
H668 C664 0.950 . S
C669 C667 1.390 . S
C669 C670 1.387 . S
C669 H672 0.950 . S
C670 C669 1.387 . S
C670 C673 1.387 . S
H671 C667 0.950 . S
H672 C669 0.950 . S
C673 C664 1.390 . S
C673 H666 0.950 . S
C673 C670 1.387 . S
C674 C675 1.387 . S
C674 H678 0.950 . S
C674 C683 1.390 . S
C675 C674 1.387 . S
C675 C677 1.387 . S
H676 C683 0.950 . S
C677 C675 1.387 . S
C677 C679 1.390 . S
C677 H681 0.950 . S
H678 C674 0.950 . S
C679 C677 1.390 . S
C679 C680 1.387 . S
C679 H682 0.950 . S
C680 C679 1.387 . S
C680 C683 1.387 . S
H681 C677 0.950 . S
H682 C679 0.950 . S
C683 C674 1.390 . S
C683 H676 0.950 . S
C683 C680 1.387 . S
C684 C685 1.387 . S
C684 H688 0.950 . S
C684 C693 1.390 . S
C685 C684 1.387 . S
C685 C687 1.387 . S
H686 C693 0.950 . S
C687 C685 1.387 . S
C687 C689 1.390 . S
C687 H691 0.950 . S
H688 C684 0.950 . S
C689 C687 1.390 . S
C689 C690 1.387 . S
C689 H692 0.950 . S
C690 C689 1.387 . S
C690 C693 1.387 . S
H691 C687 0.950 . S
H692 C689 0.950 . S
C693 C684 1.390 . S
C693 H686 0.950 . S
C693 C690 1.387 . S
C694 C695 1.387 . S
C694 H698 0.950 . S
C694 C703 1.390 . S
C695 C694 1.387 . S
C695 C697 1.387 . S
H696 C703 0.950 . S
C697 C695 1.387 . S
C697 C699 1.390 . S
C697 H701 0.950 . S
H698 C694 0.950 . S
C699 C697 1.390 . S
C699 C700 1.387 . S
C699 H702 0.950 . S
C700 C699 1.387 . S
C700 C703 1.387 . S
H701 C697 0.950 . S
H702 C699 0.950 . S
C703 C694 1.390 . S
C703 H696 0.950 . S
C703 C700 1.387 . S
C704 C705 1.387 . S
C704 H708 0.950 . S
C704 C713 1.390 . S
C705 C704 1.387 . S
C705 C707 1.387 . S
H706 C713 0.950 . S
C707 C705 1.387 . S
C707 C709 1.390 . S
C707 H711 0.950 . S
H708 C704 0.950 . S
C709 C707 1.390 . S
C709 C710 1.387 . S
C709 H712 0.950 . S
C710 C709 1.387 . S
C710 C713 1.387 . S
H711 C707 0.950 . S
H712 C709 0.950 . S
C713 C704 1.390 . S
C713 H706 0.950 . S
C713 C710 1.387 . S
C714 C715 1.387 . S
C714 H718 0.950 . S
C714 C723 1.390 . S
C715 C714 1.387 . S
C715 C717 1.387 . S
H716 C723 0.950 . S
C717 C715 1.387 . S
C717 C719 1.390 . S
C717 H721 0.950 . S
H718 C714 0.950 . S
C719 C717 1.390 . S
C719 C720 1.387 . S
C719 H722 0.950 . S
C720 C719 1.387 . S
C720 C723 1.387 . S
H721 C717 0.950 . S
H722 C719 0.950 . S
C723 C714 1.390 . S
C723 H716 0.950 . S
C723 C720 1.387 . S
C724 C725 1.387 . S
C724 H728 0.950 . S
C724 C733 1.390 . S
C725 C724 1.387 . S
C725 C727 1.387 . S
H726 C733 0.950 . S
C727 C725 1.387 . S
C727 C729 1.390 . S
C727 H731 0.950 . S
H728 C724 0.950 . S
C729 C727 1.390 . S
C729 C730 1.387 . S
C729 H732 0.950 . S
C730 C729 1.387 . S
C730 C733 1.387 . S
H731 C727 0.950 . S
H732 C729 0.950 . S
C733 C724 1.390 . S
C733 H726 0.950 . S
C733 C730 1.387 . S
C734 C735 1.387 . S
C734 H738 0.950 . S
C734 C743 1.390 . S
C735 C734 1.387 . S
C735 C737 1.387 . S
H736 C743 0.950 . S
C737 C735 1.387 . S
C737 C739 1.390 . S
C737 H741 0.950 . S
H738 C734 0.950 . S
C739 C737 1.390 . S
C739 C740 1.387 . S
C739 H742 0.950 . S
C740 C739 1.387 . S
C740 C743 1.387 . S
H741 C737 0.950 . S
H742 C739 0.950 . S
C743 C734 1.390 . S
C743 H736 0.950 . S
C743 C740 1.387 . S
C744 C745 1.387 . S
C744 H748 0.950 . S
C744 C753 1.390 . S
C745 C744 1.387 . S
C745 C747 1.387 . S
H746 C753 0.950 . S
C747 C745 1.387 . S
C747 C749 1.390 . S
C747 H751 0.950 . S
H748 C744 0.950 . S
C749 C747 1.390 . S
C749 C750 1.387 . S
C749 H752 0.950 . S
C750 C749 1.387 . S
C750 C753 1.387 . S
H751 C747 0.950 . S
H752 C749 0.950 . S
C753 C744 1.390 . S
C753 H746 0.950 . S
C753 C750 1.387 . S
C754 C755 1.387 . S
C754 H758 0.950 . S
C754 C763 1.390 . S
C755 C754 1.387 . S
C755 C757 1.387 . S
H756 C763 0.950 . S
C757 C755 1.387 . S
C757 C759 1.390 . S
C757 H761 0.950 . S
H758 C754 0.950 . S
C759 C757 1.390 . S
C759 C760 1.387 . S
C759 H762 0.950 . S
C760 C759 1.387 . S
C760 C763 1.387 . S
H761 C757 0.950 . S
H762 C759 0.950 . S
C763 C754 1.390 . S
C763 H756 0.950 . S
C763 C760 1.387 . S
C764 C765 1.387 . S
C764 H768 0.950 . S
C764 C773 1.390 . S
C765 C764 1.387 . S
C765 C767 1.387 . S
H766 C773 0.950 . S
C767 C765 1.387 . S
C767 C769 1.390 . S
C767 H771 0.950 . S
H768 C764 0.950 . S
C769 C767 1.390 . S
C769 C770 1.387 . S
C769 H772 0.950 . S
C770 C769 1.387 . S
C770 C773 1.387 . S
H771 C767 0.950 . S
H772 C769 0.950 . S
C773 C764 1.390 . S
C773 H766 0.950 . S
C773 C770 1.387 . S
C774 C775 1.387 . S
C774 H778 0.950 . S
C774 C783 1.390 . S
C775 C774 1.387 . S
C775 C777 1.387 . S
H776 C783 0.950 . S
C777 C775 1.387 . S
C777 C779 1.390 . S
C777 H781 0.950 . S
H778 C774 0.950 . S
C779 C777 1.390 . S
C779 C780 1.387 . S
C779 H782 0.950 . S
C780 C779 1.387 . S
C780 C783 1.387 . S
H781 C777 0.950 . S
H782 C779 0.950 . S
C783 C774 1.390 . S
C783 H776 0.950 . S
C783 C780 1.387 . S
C784 C785 1.387 . S
C784 H788 0.950 . S
C784 C793 1.390 . S
C785 C784 1.387 . S
C785 C787 1.387 . S
H786 C793 0.950 . S
C787 C785 1.387 . S
C787 C789 1.390 . S
C787 H791 0.950 . S
H788 C784 0.950 . S
C789 C787 1.390 . S
C789 C790 1.387 . S
C789 H792 0.950 . S
C790 C789 1.387 . S
C790 C793 1.387 . S
H791 C787 0.950 . S
H792 C789 0.950 . S
C793 C784 1.390 . S
C793 H786 0.950 . S
C793 C790 1.387 . S
C794 C795 1.387 . S
C794 H798 0.950 . S
C794 C803 1.390 . S
C795 C794 1.387 . S
C795 C797 1.387 . S
H796 C803 0.950 . S
C797 C795 1.387 . S
C797 C799 1.390 . S
C797 H801 0.950 . S
H798 C794 0.950 . S
C799 C797 1.390 . S
C799 C800 1.387 . S
C799 H802 0.950 . S
C800 C799 1.387 . S
C800 C803 1.387 . S
H801 C797 0.950 . S
H802 C799 0.950 . S
C803 C794 1.390 . S
C803 H796 0.950 . S
C803 C800 1.387 . S
C804 C805 1.387 . S
C804 H808 0.950 . S
C804 C813 1.390 . S
C805 C804 1.387 . S
C805 C807 1.387 . S
H806 C813 0.950 . S
C807 C805 1.387 . S
C807 C809 1.390 . S
C807 H811 0.950 . S
H808 C804 0.950 . S
C809 C807 1.390 . S
C809 C810 1.387 . S
C809 H812 0.950 . S
C810 C809 1.387 . S
C810 C813 1.387 . S
H811 C807 0.950 . S
H812 C809 0.950 . S
C813 C804 1.390 . S
C813 H806 0.950 . S
C813 C810 1.387 . S
C814 C815 1.387 . S
C814 H818 0.950 . S
C814 C823 1.390 . S
C815 C814 1.387 . S
C815 C817 1.387 . S
H816 C823 0.950 . S
C817 C815 1.387 . S
C817 C819 1.390 . S
C817 H821 0.950 . S
H818 C814 0.950 . S
C819 C817 1.390 . S
C819 C820 1.387 . S
C819 H822 0.950 . S
C820 C819 1.387 . S
C820 C823 1.387 . S
H821 C817 0.950 . S
H822 C819 0.950 . S
C823 C814 1.390 . S
C823 H816 0.950 . S
C823 C820 1.387 . S
C824 C825 1.387 . S
C824 H828 0.950 . S
C824 C833 1.390 . S
C825 C824 1.387 . S
C825 C827 1.387 . S
H826 C833 0.950 . S
C827 C825 1.387 . S
C827 C829 1.390 . S
C827 H831 0.950 . S
H828 C824 0.950 . S
C829 C827 1.390 . S
C829 C830 1.387 . S
C829 H832 0.950 . S
C830 C829 1.387 . S
C830 C833 1.387 . S
H831 C827 0.950 . S
H832 C829 0.950 . S
C833 C824 1.390 . S
C833 H826 0.950 . S
C833 C830 1.387 . S
C834 C835 1.387 . S
C834 H838 0.950 . S
C834 C843 1.390 . S
C835 C834 1.387 . S
C835 C837 1.387 . S
H836 C843 0.950 . S
C837 C835 1.387 . S
C837 C839 1.390 . S
C837 H841 0.950 . S
H838 C834 0.950 . S
C839 C837 1.390 . S
C839 C840 1.387 . S
C839 H842 0.950 . S
C840 C839 1.387 . S
C840 C843 1.387 . S
H841 C837 0.950 . S
H842 C839 0.950 . S
C843 C834 1.390 . S
C843 H836 0.950 . S
C843 C840 1.387 . S
C844 C845 1.387 . S
C844 H848 0.950 . S
C844 C853 1.390 . S
C845 C844 1.387 . S
C845 C847 1.387 . S
H846 C853 0.950 . S
C847 C845 1.387 . S
C847 C849 1.390 . S
C847 H851 0.950 . S
H848 C844 0.950 . S
C849 C847 1.390 . S
C849 C850 1.387 . S
C849 H852 0.950 . S
C850 C849 1.387 . S
C850 C853 1.387 . S
H851 C847 0.950 . S
H852 C849 0.950 . S
C853 C844 1.390 . S
C853 H846 0.950 . S
C853 C850 1.387 . S
C854 C855 1.387 . S
C854 H858 0.950 . S
C854 C863 1.390 . S
C855 C854 1.387 . S
C855 C857 1.387 . S
H856 C863 0.950 . S
C857 C855 1.387 . S
C857 C859 1.390 . S
C857 H861 0.950 . S
H858 C854 0.950 . S
C859 C857 1.390 . S
C859 C860 1.387 . S
C859 H862 0.950 . S
C860 C859 1.387 . S
C860 C863 1.387 . S
H861 C857 0.950 . S
H862 C859 0.950 . S
C863 C854 1.390 . S
C863 H856 0.950 . S
C863 C860 1.387 . S
C864 C865 1.387 . S
C864 H868 0.950 . S
C864 C873 1.390 . S
C865 C864 1.387 . S
C865 C867 1.387 . S
H866 C873 0.950 . S
C867 C865 1.387 . S
C867 C869 1.390 . S
C867 H871 0.950 . S
H868 C864 0.950 . S
C869 C867 1.390 . S
C869 C870 1.387 . S
C869 H872 0.950 . S
C870 C869 1.387 . S
C870 C873 1.387 . S
H871 C867 0.950 . S
H872 C869 0.950 . S
C873 C864 1.390 . S
C873 H866 0.950 . S
C873 C870 1.387 . S
C874 C875 1.387 . S
C874 H878 0.950 . S
C874 C883 1.390 . S
C875 C874 1.387 . S
C875 C877 1.387 . S
H876 C883 0.950 . S
C877 C875 1.387 . S
C877 C879 1.390 . S
C877 H881 0.950 . S
H878 C874 0.950 . S
C879 C877 1.390 . S
C879 C880 1.387 . S
C879 H882 0.950 . S
C880 C879 1.387 . S
C880 C883 1.387 . S
H881 C877 0.950 . S
H882 C879 0.950 . S
C883 C874 1.390 . S
C883 H876 0.950 . S
C883 C880 1.387 . S
C884 C885 1.387 . S
C884 H888 0.950 . S
C884 C893 1.390 . S
C885 C884 1.387 . S
C885 C887 1.387 . S
H886 C893 0.950 . S
C887 C885 1.387 . S
C887 C889 1.390 . S
C887 H891 0.950 . S
H888 C884 0.950 . S
C889 C887 1.390 . S
C889 C890 1.387 . S
C889 H892 0.950 . S
C890 C889 1.387 . S
C890 C893 1.387 . S
H891 C887 0.950 . S
H892 C889 0.950 . S
C893 C884 1.390 . S
C893 H886 0.950 . S
C893 C890 1.387 . S
C894 C895 1.387 . S
C894 H898 0.950 . S
C894 C903 1.390 . S
C895 C894 1.387 . S
C895 C897 1.387 . S
H896 C903 0.950 . S
C897 C895 1.387 . S
C897 C899 1.390 . S
C897 H901 0.950 . S
H898 C894 0.950 . S
C899 C897 1.390 . S
C899 C900 1.387 . S
C899 H902 0.950 . S
C900 C899 1.387 . S
C900 C903 1.387 . S
H901 C897 0.950 . S
H902 C899 0.950 . S
C903 C894 1.390 . S
C903 H896 0.950 . S
C903 C900 1.387 . S
C904 C905 1.387 . S
C904 H908 0.950 . S
C904 C913 1.390 . S
C905 C904 1.387 . S
C905 C907 1.387 . S
H906 C913 0.950 . S
C907 C905 1.387 . S
C907 C909 1.390 . S
C907 H911 0.950 . S
H908 C904 0.950 . S
C909 C907 1.390 . S
C909 C910 1.387 . S
C909 H912 0.950 . S
C910 C909 1.387 . S
C910 C913 1.387 . S
H911 C907 0.950 . S
H912 C909 0.950 . S
C913 C904 1.390 . S
C913 H906 0.950 . S
C913 C910 1.387 . S
C914 C915 1.387 . S
C914 H918 0.950 . S
C914 C923 1.390 . S
C915 C914 1.387 . S
C915 C917 1.387 . S
H916 C923 0.950 . S
C917 C915 1.387 . S
C917 C919 1.390 . S
C917 H921 0.950 . S
H918 C914 0.950 . S
C919 C917 1.390 . S
C919 C920 1.387 . S
C919 H922 0.950 . S
C920 C919 1.387 . S
C920 C923 1.387 . S
H921 C917 0.950 . S
H922 C919 0.950 . S
C923 C914 1.390 . S
C923 H916 0.950 . S
C923 C920 1.387 . S
C924 C925 1.387 . S
C924 H928 0.950 . S
C924 C933 1.390 . S
C925 C924 1.387 . S
C925 C927 1.387 . S
H926 C933 0.950 . S
C927 C925 1.387 . S
C927 C929 1.390 . S
C927 H931 0.950 . S
H928 C924 0.950 . S
C929 C927 1.390 . S
C929 C930 1.387 . S
C929 H932 0.950 . S
C930 C929 1.387 . S
C930 C933 1.387 . S
H931 C927 0.950 . S
H932 C929 0.950 . S
C933 C924 1.390 . S
C933 H926 0.950 . S
C933 C930 1.387 . S
C934 C935 1.387 . S
C934 H938 0.950 . S
C934 C943 1.390 . S
C935 C934 1.387 . S
C935 C937 1.387 . S
H936 C943 0.950 . S
C937 C935 1.387 . S
C937 C939 1.390 . S
C937 H941 0.950 . S
H938 C934 0.950 . S
C939 C937 1.390 . S
C939 C940 1.387 . S
C939 H942 0.950 . S
C940 C939 1.387 . S
C940 C943 1.387 . S
H941 C937 0.950 . S
H942 C939 0.950 . S
C943 C934 1.390 . S
C943 H936 0.950 . S
C943 C940 1.387 . S
C944 C945 1.387 . S
C944 H948 0.950 . S
C944 C953 1.390 . S
C945 C944 1.387 . S
C945 C947 1.387 . S
H946 C953 0.950 . S
C947 C945 1.387 . S
C947 C949 1.390 . S
C947 H951 0.950 . S
H948 C944 0.950 . S
C949 C947 1.390 . S
C949 C950 1.387 . S
C949 H952 0.950 . S
C950 C949 1.387 . S
C950 C953 1.387 . S
H951 C947 0.950 . S
H952 C949 0.950 . S
C953 C944 1.390 . S
C953 H946 0.950 . S
C953 C950 1.387 . S
C954 C955 1.387 . S
C954 H958 0.950 . S
C954 C963 1.390 . S
C955 C954 1.387 . S
C955 C957 1.387 . S
H956 C963 0.950 . S
C957 C955 1.387 . S
C957 C959 1.390 . S
C957 H961 0.950 . S
H958 C954 0.950 . S
C959 C957 1.390 . S
C959 C960 1.387 . S
C959 H962 0.950 . S
C960 C959 1.387 . S
C960 C963 1.387 . S
H961 C957 0.950 . S
H962 C959 0.950 . S
C963 C954 1.390 . S
C963 H956 0.950 . S
C963 C960 1.387 . S
C964 C965 1.387 . S
C964 H968 0.950 . S
C964 C973 1.390 . S
C965 C964 1.387 . S
C965 C967 1.387 . S
H966 C973 0.950 . S
C967 C965 1.387 . S
C967 C969 1.390 . S
C967 H971 0.950 . S
H968 C964 0.950 . S
C969 C967 1.390 . S
C969 C970 1.387 . S
C969 H972 0.950 . S
C970 C969 1.387 . S
C970 C973 1.387 . S
H971 C967 0.950 . S
H972 C969 0.950 . S
C973 C964 1.390 . S
C973 H966 0.950 . S
C973 C970 1.387 . S
C974 C975 1.387 . S
C974 H978 0.950 . S
C974 C983 1.390 . S
C975 C974 1.387 . S
C975 C977 1.387 . S
H976 C983 0.950 . S
C977 C975 1.387 . S
C977 C979 1.390 . S
C977 H981 0.950 . S
H978 C974 0.950 . S
C979 C977 1.390 . S
C979 C980 1.387 . S
C979 H982 0.950 . S
C980 C979 1.387 . S
C980 C983 1.387 . S
H981 C977 0.950 . S
H982 C979 0.950 . S
C983 C974 1.390 . S
C983 H976 0.950 . S
C983 C980 1.387 . S
C984 C985 1.387 . S
C984 H988 0.950 . S
C984 C993 1.390 . S
C985 C984 1.387 . S
C985 C987 1.387 . S
H986 C993 0.950 . S
C987 C985 1.387 . S
C987 C989 1.390 . S
C987 H991 0.950 . S
H988 C984 0.950 . S
C989 C987 1.390 . S
C989 C990 1.387 . S
C989 H992 0.950 . S
C990 C989 1.387 . S
C990 C993 1.387 . S
H991 C987 0.950 . S
H992 C989 0.950 . S
C993 C984 1.390 . S
C993 H986 0.950 . S
C993 C990 1.387 . S
C994 C995 1.387 . S
C994 H998 0.950 . S
C994 C1003 1.390 . S
C995 C994 1.387 . S
C995 C997 1.387 . S
H996 C1003 0.950 . S
C997 C995 1.387 . S
C997 C999 1.390 . S
C997 H1001 0.950 . S
H998 C994 0.950 . S
C999 C997 1.390 . S
C999 C1000 1.387 . S
C999 H1002 0.950 . S
C1000 C999 1.387 . S
C1000 C1003 1.387 . S
H1001 C997 0.950 . S
H1002 C999 0.950 . S
C1003 C994 1.390 . S
C1003 H996 0.950 . S
C1003 C1000 1.387 . S
C1004 C1005 1.387 . S
C1004 H1008 0.950 . S
C1004 C1013 1.390 . S
C1005 C1004 1.387 . S
C1005 C1007 1.387 . S
H1006 C1013 0.950 . S
C1007 C1005 1.387 . S
C1007 C1009 1.390 . S
C1007 H1011 0.950 . S
H1008 C1004 0.950 . S
C1009 C1007 1.390 . S
C1009 C1010 1.387 . S
C1009 H1012 0.950 . S
C1010 C1009 1.387 . S
C1010 C1013 1.387 . S
H1011 C1007 0.950 . S
H1012 C1009 0.950 . S
C1013 C1004 1.390 . S
C1013 H1006 0.950 . S
C1013 C1010 1.387 . S
C1014 C1015 1.387 . S
C1014 H1018 0.950 . S
C1014 C1023 1.390 . S
C1015 C1014 1.387 . S
C1015 C1017 1.387 . S
H1016 C1023 0.950 . S
C1017 C1015 1.387 . S
C1017 C1019 1.390 . S
C1017 H1021 0.950 . S
H1018 C1014 0.950 . S
C1019 C1017 1.390 . S
C1019 C1020 1.387 . S
C1019 H1022 0.950 . S
C1020 C1019 1.387 . S
C1020 C1023 1.387 . S
H1021 C1017 0.950 . S
H1022 C1019 0.950 . S
C1023 C1014 1.390 . S
C1023 H1016 0.950 . S
C1023 C1020 1.387 . S
C1024 C1025 1.387 . S
C1024 H1028 0.950 . S
C1024 C1033 1.390 . S
C1025 C1024 1.387 . S
C1025 C1027 1.387 . S
H1026 C1033 0.950 . S
C1027 C1025 1.387 . S
C1027 C1029 1.390 . S
C1027 H1031 0.950 . S
H1028 C1024 0.950 . S
C1029 C1027 1.390 . S
C1029 C1030 1.387 . S
C1029 H1032 0.950 . S
C1030 C1029 1.387 . S
C1030 C1033 1.387 . S
H1031 C1027 0.950 . S
H1032 C1029 0.950 . S
C1033 C1024 1.390 . S
C1033 H1026 0.950 . S
C1033 C1030 1.387 . S
C1034 C1035 1.387 . S
C1034 H1038 0.950 . S
C1034 C1043 1.390 . S
C1035 C1034 1.387 . S
C1035 C1037 1.387 . S
H1036 C1043 0.950 . S
C1037 C1035 1.387 . S
C1037 C1039 1.390 . S
C1037 H1041 0.950 . S
H1038 C1034 0.950 . S
C1039 C1037 1.390 . S
C1039 C1040 1.387 . S
C1039 H1042 0.950 . S
C1040 C1039 1.387 . S
C1040 C1043 1.387 . S
H1041 C1037 0.950 . S
H1042 C1039 0.950 . S
C1043 C1034 1.390 . S
C1043 H1036 0.950 . S
C1043 C1040 1.387 . S
C1044 C1045 1.387 . S
C1044 H1048 0.950 . S
C1044 C1053 1.390 . S
C1045 C1044 1.387 . S
C1045 C1047 1.387 . S
H1046 C1053 0.950 . S
C1047 C1045 1.387 . S
C1047 C1049 1.390 . S
C1047 H1051 0.950 . S
H1048 C1044 0.950 . S
C1049 C1047 1.390 . S
C1049 C1050 1.387 . S
C1049 H1052 0.950 . S
C1050 C1049 1.387 . S
C1050 C1053 1.387 . S
H1051 C1047 0.950 . S
H1052 C1049 0.950 . S
C1053 C1044 1.390 . S
C1053 H1046 0.950 . S
C1053 C1050 1.387 . S
C1054 C1055 1.387 . S
C1054 H1058 0.950 . S
C1054 C1063 1.390 . S
C1055 C1054 1.387 . S
C1055 C1057 1.387 . S
H1056 C1063 0.950 . S
C1057 C1055 1.387 . S
C1057 C1059 1.390 . S
C1057 H1061 0.950 . S
H1058 C1054 0.950 . S
C1059 C1057 1.390 . S
C1059 C1060 1.387 . S
C1059 H1062 0.950 . S
C1060 C1059 1.387 . S
C1060 C1063 1.387 . S
H1061 C1057 0.950 . S
H1062 C1059 0.950 . S
C1063 C1054 1.390 . S
C1063 H1056 0.950 . S
C1063 C1060 1.387 . S
C1064 C1065 1.387 . S
C1064 H1068 0.950 . S
C1064 C1073 1.390 . S
C1065 C1064 1.387 . S
C1065 C1067 1.387 . S
H1066 C1073 0.950 . S
C1067 C1065 1.387 . S
C1067 C1069 1.390 . S
C1067 H1071 0.950 . S
H1068 C1064 0.950 . S
C1069 C1067 1.390 . S
C1069 C1070 1.387 . S
C1069 H1072 0.950 . S
C1070 C1069 1.387 . S
C1070 C1073 1.387 . S
H1071 C1067 0.950 . S
H1072 C1069 0.950 . S
C1073 C1064 1.390 . S
C1073 H1066 0.950 . S
C1073 C1070 1.387 . S
C1074 C1075 1.387 . S
C1074 H1078 0.950 . S
C1074 C1083 1.390 . S
C1075 C1074 1.387 . S
C1075 C1077 1.387 . S
H1076 C1083 0.950 . S
C1077 C1075 1.387 . S
C1077 C1079 1.390 . S
C1077 H1081 0.950 . S
H1078 C1074 0.950 . S
C1079 C1077 1.390 . S
C1079 C1080 1.387 . S
C1079 H1082 0.950 . S
C1080 C1079 1.387 . S
C1080 C1083 1.387 . S
H1081 C1077 0.950 . S
H1082 C1079 0.950 . S
C1083 C1074 1.390 . S
C1083 H1076 0.950 . S
C1083 C1080 1.387 . S
C1084 C1085 1.387 . S
C1084 H1088 0.950 . S
C1084 C1093 1.390 . S
C1085 C1084 1.387 . S
C1085 C1087 1.387 . S
H1086 C1093 0.950 . S
C1087 C1085 1.387 . S
C1087 C1089 1.390 . S
C1087 H1091 0.950 . S
H1088 C1084 0.950 . S
C1089 C1087 1.390 . S
C1089 C1090 1.387 . S
C1089 H1092 0.950 . S
C1090 C1089 1.387 . S
C1090 C1093 1.387 . S
H1091 C1087 0.950 . S
H1092 C1089 0.950 . S
C1093 C1084 1.390 . S
C1093 H1086 0.950 . S
C1093 C1090 1.387 . S
C1094 C1095 1.387 . S
C1094 H1098 0.950 . S
C1094 C1103 1.390 . S
C1095 C1094 1.387 . S
C1095 C1097 1.387 . S
H1096 C1103 0.950 . S
C1097 C1095 1.387 . S
C1097 C1099 1.390 . S
C1097 H1101 0.950 . S
H1098 C1094 0.950 . S
C1099 C1097 1.390 . S
C1099 C1100 1.387 . S
C1099 H1102 0.950 . S
C1100 C1099 1.387 . S
C1100 C1103 1.387 . S
H1101 C1097 0.950 . S
H1102 C1099 0.950 . S
C1103 C1094 1.390 . S
C1103 H1096 0.950 . S
C1103 C1100 1.387 . S
C1104 C1105 1.387 . S
C1104 H1108 0.950 . S
C1104 C1113 1.390 . S
C1105 C1104 1.387 . S
C1105 C1107 1.387 . S
H1106 C1113 0.950 . S
C1107 C1105 1.387 . S
C1107 C1109 1.390 . S
C1107 H1111 0.950 . S
H1108 C1104 0.950 . S
C1109 C1107 1.390 . S
C1109 C1110 1.387 . S
C1109 H1112 0.950 . S
C1110 C1109 1.387 . S
C1110 C1113 1.387 . S
H1111 C1107 0.950 . S
H1112 C1109 0.950 . S
C1113 C1104 1.390 . S
C1113 H1106 0.950 . S
C1113 C1110 1.387 . S
C1114 C1115 1.387 . S
C1114 H1118 0.950 . S
C1114 C1123 1.390 . S
C1115 C1114 1.387 . S
C1115 C1117 1.387 . S
H1116 C1123 0.950 . S
C1117 C1115 1.387 . S
C1117 C1119 1.390 . S
C1117 H1121 0.950 . S
H1118 C1114 0.950 . S
C1119 C1117 1.390 . S
C1119 C1120 1.387 . S
C1119 H1122 0.950 . S
C1120 C1119 1.387 . S
C1120 C1123 1.387 . S
H1121 C1117 0.950 . S
H1122 C1119 0.950 . S
C1123 C1114 1.390 . S
C1123 H1116 0.950 . S
C1123 C1120 1.387 . S
C1124 C1125 1.387 . S
C1124 H1128 0.950 . S
C1124 C1133 1.390 . S
C1125 C1124 1.387 . S
C1125 C1127 1.387 . S
H1126 C1133 0.950 . S
C1127 C1125 1.387 . S
C1127 C1129 1.390 . S
C1127 H1131 0.950 . S
H1128 C1124 0.950 . S
C1129 C1127 1.390 . S
C1129 C1130 1.387 . S
C1129 H1132 0.950 . S
C1130 C1129 1.387 . S
C1130 C1133 1.387 . S
H1131 C1127 0.950 . S
H1132 C1129 0.950 . S
C1133 C1124 1.390 . S
C1133 H1126 0.950 . S
C1133 C1130 1.387 . S
C1134 C1135 1.387 . S
C1134 H1138 0.950 . S
C1134 C1143 1.390 . S
C1135 C1134 1.387 . S
C1135 C1137 1.387 . S
H1136 C1143 0.950 . S
C1137 C1135 1.387 . S
C1137 C1139 1.390 . S
C1137 H1141 0.950 . S
H1138 C1134 0.950 . S
C1139 C1137 1.390 . S
C1139 C1140 1.387 . S
C1139 H1142 0.950 . S
C1140 C1139 1.387 . S
C1140 C1143 1.387 . S
H1141 C1137 0.950 . S
H1142 C1139 0.950 . S
C1143 C1134 1.390 . S
C1143 H1136 0.950 . S
C1143 C1140 1.387 . S
C1144 C1145 1.387 . S
C1144 H1148 0.950 . S
C1144 C1153 1.390 . S
C1145 C1144 1.387 . S
C1145 C1147 1.387 . S
H1146 C1153 0.950 . S
C1147 C1145 1.387 . S
C1147 C1149 1.390 . S
C1147 H1151 0.950 . S
H1148 C1144 0.950 . S
C1149 C1147 1.390 . S
C1149 C1150 1.387 . S
C1149 H1152 0.950 . S
C1150 C1149 1.387 . S
C1150 C1153 1.387 . S
H1151 C1147 0.950 . S
H1152 C1149 0.950 . S
C1153 C1144 1.390 . S
C1153 H1146 0.950 . S
C1153 C1150 1.387 . S
C1154 C1155 1.387 . S
C1154 H1158 0.950 . S
C1154 C1163 1.390 . S
C1155 C1154 1.387 . S
C1155 C1157 1.387 . S
H1156 C1163 0.950 . S
C1157 C1155 1.387 . S
C1157 C1159 1.390 . S
C1157 H1161 0.950 . S
H1158 C1154 0.950 . S
C1159 C1157 1.390 . S
C1159 C1160 1.387 . S
C1159 H1162 0.950 . S
C1160 C1159 1.387 . S
C1160 C1163 1.387 . S
H1161 C1157 0.950 . S
H1162 C1159 0.950 . S
C1163 C1154 1.390 . S
C1163 H1156 0.950 . S
C1163 C1160 1.387 . S
C1164 C1165 1.387 . S
C1164 H1168 0.950 . S
C1164 C1173 1.390 . S
C1165 C1164 1.387 . S
C1165 C1167 1.387 . S
H1166 C1173 0.950 . S
C1167 C1165 1.387 . S
C1167 C1169 1.390 . S
C1167 H1171 0.950 . S
H1168 C1164 0.950 . S
C1169 C1167 1.390 . S
C1169 C1170 1.387 . S
C1169 H1172 0.950 . S
C1170 C1169 1.387 . S
C1170 C1173 1.387 . S
H1171 C1167 0.950 . S
H1172 C1169 0.950 . S
C1173 C1164 1.390 . S
C1173 H1166 0.950 . S
C1173 C1170 1.387 . S
C1174 C1175 1.387 . S
C1174 H1178 0.950 . S
C1174 C1183 1.390 . S
C1175 C1174 1.387 . S
C1175 C1177 1.387 . S
H1176 C1183 0.950 . S
C1177 C1175 1.387 . S
C1177 C1179 1.390 . S
C1177 H1181 0.950 . S
H1178 C1174 0.950 . S
C1179 C1177 1.390 . S
C1179 C1180 1.387 . S
C1179 H1182 0.950 . S
C1180 C1179 1.387 . S
C1180 C1183 1.387 . S
H1181 C1177 0.950 . S
H1182 C1179 0.950 . S
C1183 C1174 1.390 . S
C1183 H1176 0.950 . S
C1183 C1180 1.387 . S
C1184 C1185 1.387 . S
C1184 H1188 0.950 . S
C1184 C1193 1.390 . S
C1185 C1184 1.387 . S
C1185 C1187 1.387 . S
H1186 C1193 0.950 . S
C1187 C1185 1.387 . S
C1187 C1189 1.390 . S
C1187 H1191 0.950 . S
H1188 C1184 0.950 . S
C1189 C1187 1.390 . S
C1189 C1190 1.387 . S
C1189 H1192 0.950 . S
C1190 C1189 1.387 . S
C1190 C1193 1.387 . S
H1191 C1187 0.950 . S
H1192 C1189 0.950 . S
C1193 C1184 1.390 . S
C1193 H1186 0.950 . S
C1193 C1190 1.387 . S
C1194 C1195 1.387 . S
C1194 H1198 0.950 . S
C1194 C1203 1.390 . S
C1195 C1194 1.387 . S
C1195 C1197 1.387 . S
H1196 C1203 0.950 . S
C1197 C1195 1.387 . S
C1197 C1199 1.390 . S
C1197 H1201 0.950 . S
H1198 C1194 0.950 . S
C1199 C1197 1.390 . S
C1199 C1200 1.387 . S
C1199 H1202 0.950 . S
C1200 C1199 1.387 . S
C1200 C1203 1.387 . S
H1201 C1197 0.950 . S
H1202 C1199 0.950 . S
C1203 C1194 1.390 . S
C1203 H1196 0.950 . S
C1203 C1200 1.387 . S
C1204 C1205 1.387 . S
C1204 H1208 0.950 . S
C1204 C1213 1.390 . S
C1205 C1204 1.387 . S
C1205 C1207 1.387 . S
H1206 C1213 0.950 . S
C1207 C1205 1.387 . S
C1207 C1209 1.390 . S
C1207 H1211 0.950 . S
H1208 C1204 0.950 . S
C1209 C1207 1.390 . S
C1209 C1210 1.387 . S
C1209 H1212 0.950 . S
C1210 C1209 1.387 . S
C1210 C1213 1.387 . S
H1211 C1207 0.950 . S
H1212 C1209 0.950 . S
C1213 C1204 1.390 . S
C1213 H1206 0.950 . S
C1213 C1210 1.387 . S
C1214 C1215 1.387 . S
C1214 H1218 0.950 . S
C1214 C1223 1.390 . S
C1215 C1214 1.387 . S
C1215 C1217 1.387 . S
H1216 C1223 0.950 . S
C1217 C1215 1.387 . S
C1217 C1219 1.390 . S
C1217 H1221 0.950 . S
H1218 C1214 0.950 . S
C1219 C1217 1.390 . S
C1219 C1220 1.387 . S
C1219 H1222 0.950 . S
C1220 C1219 1.387 . S
C1220 C1223 1.387 . S
H1221 C1217 0.950 . S
H1222 C1219 0.950 . S
C1223 C1214 1.390 . S
C1223 H1216 0.950 . S
C1223 C1220 1.387 . S
C1224 C1225 1.387 . S
C1224 H1228 0.950 . S
C1224 C1233 1.390 . S
C1225 C1224 1.387 . S
C1225 C1227 1.387 . S
H1226 C1233 0.950 . S
C1227 C1225 1.387 . S
C1227 C1229 1.390 . S
C1227 H1231 0.950 . S
H1228 C1224 0.950 . S
C1229 C1227 1.390 . S
C1229 C1230 1.387 . S
C1229 H1232 0.950 . S
C1230 C1229 1.387 . S
C1230 C1233 1.387 . S
H1231 C1227 0.950 . S
H1232 C1229 0.950 . S
C1233 C1224 1.390 . S
C1233 H1226 0.950 . S
C1233 C1230 1.387 . S
C1234 C1235 1.387 . S
C1234 H1238 0.950 . S
C1234 C1243 1.390 . S
C1235 C1234 1.387 . S
C1235 C1237 1.387 . S
H1236 C1243 0.950 . S
C1237 C1235 1.387 . S
C1237 C1239 1.390 . S
C1237 H1241 0.950 . S
H1238 C1234 0.950 . S
C1239 C1237 1.390 . S
C1239 C1240 1.387 . S
C1239 H1242 0.950 . S
C1240 C1239 1.387 . S
C1240 C1243 1.387 . S
H1241 C1237 0.950 . S
H1242 C1239 0.950 . S
C1243 C1234 1.390 . S
C1243 H1236 0.950 . S
C1243 C1240 1.387 . S
C1244 C1245 1.387 . S
C1244 H1248 0.950 . S
C1244 C1253 1.390 . S
C1245 C1244 1.387 . S
C1245 C1247 1.387 . S
H1246 C1253 0.950 . S
C1247 C1245 1.387 . S
C1247 C1249 1.390 . S
C1247 H1251 0.950 . S
H1248 C1244 0.950 . S
C1249 C1247 1.390 . S
C1249 C1250 1.387 . S
C1249 H1252 0.950 . S
C1250 C1249 1.387 . S
C1250 C1253 1.387 . S
H1251 C1247 0.950 . S
H1252 C1249 0.950 . S
C1253 C1244 1.390 . S
C1253 H1246 0.950 . S
C1253 C1250 1.387 . S
C1254 C1255 1.387 . S
C1254 H1258 0.950 . S
C1254 C1263 1.390 . S
C1255 C1254 1.387 . S
C1255 C1257 1.387 . S
H1256 C1263 0.950 . S
C1257 C1255 1.387 . S
C1257 C1259 1.390 . S
C1257 H1261 0.950 . S
H1258 C1254 0.950 . S
C1259 C1257 1.390 . S
C1259 C1260 1.387 . S
C1259 H1262 0.950 . S
C1260 C1259 1.387 . S
C1260 C1263 1.387 . S
H1261 C1257 0.950 . S
H1262 C1259 0.950 . S
C1263 C1254 1.390 . S
C1263 H1256 0.950 . S
C1263 C1260 1.387 . S
C1264 C1265 1.387 . S
C1264 H1268 0.950 . S
C1264 C1273 1.390 . S
C1265 C1264 1.387 . S
C1265 C1267 1.387 . S
H1266 C1273 0.950 . S
C1267 C1265 1.387 . S
C1267 C1269 1.390 . S
C1267 H1271 0.950 . S
H1268 C1264 0.950 . S
C1269 C1267 1.390 . S
C1269 C1270 1.387 . S
C1269 H1272 0.950 . S
C1270 C1269 1.387 . S
C1270 C1273 1.387 . S
H1271 C1267 0.950 . S
H1272 C1269 0.950 . S
C1273 C1264 1.390 . S
C1273 H1266 0.950 . S
C1273 C1270 1.387 . S
C1274 C1275 1.387 . S
C1274 H1278 0.950 . S
C1274 C1283 1.390 . S
C1275 C1274 1.387 . S
C1275 C1277 1.387 . S
H1276 C1283 0.950 . S
C1277 C1275 1.387 . S
C1277 C1279 1.390 . S
C1277 H1281 0.950 . S
H1278 C1274 0.950 . S
C1279 C1277 1.390 . S
C1279 C1280 1.387 . S
C1279 H1282 0.950 . S
C1280 C1279 1.387 . S
C1280 C1283 1.387 . S
H1281 C1277 0.950 . S
H1282 C1279 0.950 . S
C1283 C1274 1.390 . S
C1283 H1276 0.950 . S
C1283 C1280 1.387 . S
C1284 C1285 1.387 . S
C1284 H1288 0.950 . S
C1284 C1293 1.390 . S
C1285 C1284 1.387 . S
C1285 C1287 1.387 . S
H1286 C1293 0.950 . S
C1287 C1285 1.387 . S
C1287 C1289 1.390 . S
C1287 H1291 0.950 . S
H1288 C1284 0.950 . S
C1289 C1287 1.390 . S
C1289 C1290 1.387 . S
C1289 H1292 0.950 . S
C1290 C1289 1.387 . S
C1290 C1293 1.387 . S
H1291 C1287 0.950 . S
H1292 C1289 0.950 . S
C1293 C1284 1.390 . S
C1293 H1286 0.950 . S
C1293 C1290 1.387 . S
C1294 C1295 1.387 . S
C1294 H1298 0.950 . S
C1294 C1303 1.390 . S
C1295 C1294 1.387 . S
C1295 C1297 1.387 . S
H1296 C1303 0.950 . S
C1297 C1295 1.387 . S
C1297 C1299 1.390 . S
C1297 H1301 0.950 . S
H1298 C1294 0.950 . S
C1299 C1297 1.390 . S
C1299 C1300 1.387 . S
C1299 H1302 0.950 . S
C1300 C1299 1.387 . S
C1300 C1303 1.387 . S
H1301 C1297 0.950 . S
H1302 C1299 0.950 . S
C1303 C1294 1.390 . S
C1303 H1296 0.950 . S
C1303 C1300 1.387 . S
C1304 C1305 1.387 . S
C1304 H1308 0.950 . S
C1304 C1313 1.390 . S
C1305 C1304 1.387 . S
C1305 C1307 1.387 . S
H1306 C1313 0.950 . S
C1307 C1305 1.387 . S
C1307 C1309 1.390 . S
C1307 H1311 0.950 . S
H1308 C1304 0.950 . S
C1309 C1307 1.390 . S
C1309 C1310 1.387 . S
C1309 H1312 0.950 . S
C1310 C1309 1.387 . S
C1310 C1313 1.387 . S
H1311 C1307 0.950 . S
H1312 C1309 0.950 . S
C1313 C1304 1.390 . S
C1313 H1306 0.950 . S
C1313 C1310 1.387 . S
C1314 C1315 1.387 . S
C1314 H1318 0.950 . S
C1314 C1323 1.390 . S
C1315 C1314 1.387 . S
C1315 C1317 1.387 . S
H1316 C1323 0.950 . S
C1317 C1315 1.387 . S
C1317 C1319 1.390 . S
C1317 H1321 0.950 . S
H1318 C1314 0.950 . S
C1319 C1317 1.390 . S
C1319 C1320 1.387 . S
C1319 H1322 0.950 . S
C1320 C1319 1.387 . S
C1320 C1323 1.387 . S
H1321 C1317 0.950 . S
H1322 C1319 0.950 . S
C1323 C1314 1.390 . S
C1323 H1316 0.950 . S
C1323 C1320 1.387 . S
C1324 C1325 1.387 . S
C1324 H1328 0.950 . S
C1324 C1333 1.390 . S
C1325 C1324 1.387 . S
C1325 C1327 1.387 . S
H1326 C1333 0.950 . S
C1327 C1325 1.387 . S
C1327 C1329 1.390 . S
C1327 H1331 0.950 . S
H1328 C1324 0.950 . S
C1329 C1327 1.390 . S
C1329 C1330 1.387 . S
C1329 H1332 0.950 . S
C1330 C1329 1.387 . S
C1330 C1333 1.387 . S
H1331 C1327 0.950 . S
H1332 C1329 0.950 . S
C1333 C1324 1.390 . S
C1333 H1326 0.950 . S
C1333 C1330 1.387 . S
C1334 C1335 1.387 . S
C1334 H1338 0.950 . S
C1334 C1343 1.390 . S
C1335 C1334 1.387 . S
C1335 C1337 1.387 . S
H1336 C1343 0.950 . S
C1337 C1335 1.387 . S
C1337 C1339 1.390 . S
C1337 H1341 0.950 . S
H1338 C1334 0.950 . S
C1339 C1337 1.390 . S
C1339 C1340 1.387 . S
C1339 H1342 0.950 . S
C1340 C1339 1.387 . S
C1340 C1343 1.387 . S
H1341 C1337 0.950 . S
H1342 C1339 0.950 . S
C1343 C1334 1.390 . S
C1343 H1336 0.950 . S
C1343 C1340 1.387 . S
C1344 C1345 1.387 . S
C1344 H1348 0.950 . S
C1344 C1353 1.390 1_554 S
C1345 C1344 1.387 . S
C1345 C1347 1.387 . S
H1346 C1353 0.950 . S
C1347 C1345 1.387 . S
C1347 C1349 1.390 1_554 S
C1347 H1351 0.950 . S
H1348 C1344 0.950 . S
C1349 C1347 1.390 1_556 S
C1349 C1350 1.387 . S
C1349 H1352 0.950 . S
C1350 C1349 1.387 . S
C1350 C1353 1.387 . S
H1351 C1347 0.950 . S
H1352 C1349 0.950 . S
C1353 C1344 1.390 1_556 S
C1353 H1346 0.950 . S
C1353 C1350 1.387 . S
C1354 C1355 1.387 . S
C1354 H1358 0.950 . S
C1354 C1363 1.390 1_556 S
C1355 C1354 1.387 . S
C1355 C1357 1.387 . S
H1356 C1363 0.950 . S
C1357 C1355 1.387 . S
C1357 C1359 1.390 1_556 S
C1357 H1361 0.950 . S
H1358 C1354 0.950 . S
C1359 C1357 1.390 1_554 S
C1359 C1360 1.387 . S
C1359 H1362 0.950 . S
C1360 C1359 1.387 . S
C1360 C1363 1.387 . S
H1361 C1357 0.950 . S
H1362 C1359 0.950 . S
C1363 C1354 1.390 1_554 S
C1363 H1356 0.950 . S
C1363 C1360 1.387 . S
C1364 C1365 1.387 . S
C1364 H1368 0.950 . S
C1364 C1373 1.390 1_554 S
C1365 C1364 1.387 . S
C1365 C1367 1.387 . S
H1366 C1373 0.950 . S
C1367 C1365 1.387 . S
C1367 C1369 1.390 1_554 S
C1367 H1371 0.950 . S
H1368 C1364 0.950 . S
C1369 C1367 1.390 1_556 S
C1369 C1370 1.387 . S
C1369 H1372 0.950 . S
C1370 C1369 1.387 . S
C1370 C1373 1.387 . S
H1371 C1367 0.950 . S
H1372 C1369 0.950 . S
C1373 C1364 1.390 1_556 S
C1373 H1366 0.950 . S
C1373 C1370 1.387 . S
C1374 C1375 1.387 . S
C1374 H1378 0.950 . S
C1374 C1383 1.390 1_554 S
C1375 C1374 1.387 . S
C1375 C1377 1.387 . S
H1376 C1383 0.950 . S
C1377 C1375 1.387 . S
C1377 C1379 1.390 1_554 S
C1377 H1381 0.950 . S
H1378 C1374 0.950 . S
C1379 C1377 1.390 1_556 S
C1379 C1380 1.387 . S
C1379 H1382 0.950 . S
C1380 C1379 1.387 . S
C1380 C1383 1.387 . S
H1381 C1377 0.950 . S
H1382 C1379 0.950 . S
C1383 C1374 1.390 1_556 S
C1383 H1376 0.950 . S
C1383 C1380 1.387 . S
C1384 C1385 1.387 . S
C1384 H1388 0.950 . S
C1384 C1393 1.390 1_556 S
C1385 C1384 1.387 . S
C1385 C1387 1.387 . S
H1386 C1393 0.950 . S
C1387 C1385 1.387 . S
C1387 C1389 1.390 1_556 S
C1387 H1391 0.950 . S
H1388 C1384 0.950 . S
C1389 C1387 1.390 1_554 S
C1389 C1390 1.387 . S
C1389 H1392 0.950 . S
C1390 C1389 1.387 . S
C1390 C1393 1.387 . S
H1391 C1387 0.950 . S
H1392 C1389 0.950 . S
C1393 C1384 1.390 1_554 S
C1393 H1386 0.950 . S
C1393 C1390 1.387 . S
C1394 C1395 1.387 . S
C1394 H1398 0.950 . S
C1394 C1403 1.390 1_554 S
C1395 C1394 1.387 . S
C1395 C1397 1.387 . S
H1396 C1403 0.950 . S
C1397 C1395 1.387 . S
C1397 C1399 1.390 1_554 S
C1397 H1401 0.950 . S
H1398 C1394 0.950 . S
C1399 C1397 1.390 1_556 S
C1399 C1400 1.387 . S
C1399 H1402 0.950 . S
C1400 C1399 1.387 . S
C1400 C1403 1.387 . S
H1401 C1397 0.950 . S
H1402 C1399 0.950 . S
C1403 C1394 1.390 1_556 S
C1403 H1396 0.950 . S
C1403 C1400 1.387 . S
C1404 C1405 1.387 . S
C1404 H1408 0.950 . S
C1404 C1413 1.390 1_556 S
C1405 C1404 1.387 . S
C1405 C1407 1.387 . S
H1406 C1413 0.950 . S
C1407 C1405 1.387 . S
C1407 C1409 1.390 1_556 S
C1407 H1411 0.950 . S
H1408 C1404 0.950 . S
C1409 C1407 1.390 1_554 S
C1409 C1410 1.387 . S
C1409 H1412 0.950 . S
C1410 C1409 1.387 . S
C1410 C1413 1.387 . S
H1411 C1407 0.950 . S
H1412 C1409 0.950 . S
C1413 C1404 1.390 1_554 S
C1413 H1406 0.950 . S
C1413 C1410 1.387 . S
C1414 C1415 1.387 . S
C1414 H1418 0.950 . S
C1414 C1423 1.390 1_554 S
C1415 C1414 1.387 . S
C1415 C1417 1.387 . S
H1416 C1423 0.950 . S
C1417 C1415 1.387 . S
C1417 C1419 1.390 1_554 S
C1417 H1421 0.950 . S
H1418 C1414 0.950 . S
C1419 C1417 1.390 1_556 S
C1419 C1420 1.387 . S
C1419 H1422 0.950 . S
C1420 C1419 1.387 . S
C1420 C1423 1.387 . S
H1421 C1417 0.950 . S
H1422 C1419 0.950 . S
C1423 C1414 1.390 1_556 S
C1423 H1416 0.950 . S
C1423 C1420 1.387 . S
C1424 C1425 1.387 . S
C1424 H1428 0.950 . S
C1424 C1433 1.390 1_455 S
C1425 C1424 1.387 . S
C1425 C1427 1.387 . S
H1426 C1433 0.950 . S
C1427 C1425 1.387 . S
C1427 C1429 1.390 1_455 S
C1427 H1431 0.950 . S
H1428 C1424 0.950 . S
C1429 C1427 1.390 1_655 S
C1429 C1430 1.387 . S
C1429 H1432 0.950 . S
C1430 C1429 1.387 . S
C1430 C1433 1.387 . S
H1431 C1427 0.950 . S
H1432 C1429 0.950 . S
C1433 C1424 1.390 1_655 S
C1433 H1426 0.950 . S
C1433 C1430 1.387 . S
C1434 C1435 1.387 . S
C1434 H1438 0.950 . S
C1434 C1443 1.390 1_565 S
C1435 C1434 1.387 . S
C1435 C1437 1.387 . S
H1436 C1443 0.950 . S
C1437 C1435 1.387 . S
C1437 C1439 1.390 1_565 S
C1437 H1441 0.950 . S
H1438 C1434 0.950 . S
C1439 C1437 1.390 1_545 S
C1439 C1440 1.387 . S
C1439 H1442 0.950 . S
C1440 C1439 1.387 . S
C1440 C1443 1.387 . S
H1441 C1437 0.950 . S
H1442 C1439 0.950 . S
C1443 C1434 1.390 1_545 S
C1443 H1436 0.950 . S
C1443 C1440 1.387 . S
C1444 C1445 1.387 . S
C1444 H1448 0.950 . S
C1444 C1453 1.390 1_455 S
C1445 C1444 1.387 . S
C1445 C1447 1.387 . S
H1446 C1453 0.950 . S
C1447 C1445 1.387 . S
C1447 C1449 1.390 1_455 S
C1447 H1451 0.950 . S
H1448 C1444 0.950 . S
C1449 C1447 1.390 1_655 S
C1449 C1450 1.387 . S
C1449 H1452 0.950 . S
C1450 C1449 1.387 . S
C1450 C1453 1.387 . S
H1451 C1447 0.950 . S
H1452 C1449 0.950 . S
C1453 C1444 1.390 1_655 S
C1453 H1446 0.950 . S
C1453 C1450 1.387 . S
C1454 C1455 1.387 . S
C1454 H1458 0.950 . S
C1454 C1463 1.390 1_565 S
C1455 C1454 1.387 . S
C1455 C1457 1.387 . S
H1456 C1463 0.950 . S
C1457 C1455 1.387 . S
C1457 C1459 1.390 1_565 S
C1457 H1461 0.950 . S
H1458 C1454 0.950 . S
C1459 C1457 1.390 1_545 S
C1459 C1460 1.387 . S
C1459 H1462 0.950 . S
C1460 C1459 1.387 . S
C1460 C1463 1.387 . S
H1461 C1457 0.950 . S
H1462 C1459 0.950 . S
C1463 C1454 1.390 1_545 S
C1463 H1456 0.950 . S
C1463 C1460 1.387 . S
C1464 C1465 1.387 . S
C1464 H1468 0.950 . S
C1464 C1473 1.390 1_655 S
C1465 C1464 1.387 . S
C1465 C1467 1.387 . S
H1466 C1473 0.950 . S
C1467 C1465 1.387 . S
C1467 C1469 1.390 1_655 S
C1467 H1471 0.950 . S
H1468 C1464 0.950 . S
C1469 C1467 1.390 1_455 S
C1469 C1470 1.387 . S
C1469 H1472 0.950 . S
C1470 C1469 1.387 . S
C1470 C1473 1.387 . S
H1471 C1467 0.950 . S
H1472 C1469 0.950 . S
C1473 C1464 1.390 1_455 S
C1473 H1466 0.950 . S
C1473 C1470 1.387 . S
C1474 C1475 1.387 . S
C1474 H1478 0.950 . S
C1474 C1483 1.390 1_545 S
C1475 C1474 1.387 . S
C1475 C1477 1.387 . S
H1476 C1483 0.950 . S
C1477 C1475 1.387 . S
C1477 C1479 1.390 1_545 S
C1477 H1481 0.950 . S
H1478 C1474 0.950 . S
C1479 C1477 1.390 1_565 S
C1479 C1480 1.387 . S
C1479 H1482 0.950 . S
C1480 C1479 1.387 . S
C1480 C1483 1.387 . S
H1481 C1477 0.950 . S
H1482 C1479 0.950 . S
C1483 C1474 1.390 1_565 S
C1483 H1476 0.950 . S
C1483 C1480 1.387 . S
C1484 C1485 1.387 . S
C1484 H1488 0.950 . S
C1484 C1493 1.390 1_455 S
C1485 C1484 1.387 . S
C1485 C1487 1.387 . S
H1486 C1493 0.950 . S
C1487 C1485 1.387 . S
C1487 C1489 1.390 1_455 S
C1487 H1491 0.950 . S
H1488 C1484 0.950 . S
C1489 C1487 1.390 1_655 S
C1489 C1490 1.387 . S
C1489 H1492 0.950 . S
C1490 C1489 1.387 . S
C1490 C1493 1.387 . S
H1491 C1487 0.950 . S
H1492 C1489 0.950 . S
C1493 C1484 1.390 1_655 S
C1493 H1486 0.950 . S
C1493 C1490 1.387 . S
C1494 C1495 1.387 . S
C1494 H1498 0.950 . S
C1494 C1503 1.390 1_545 S
C1495 C1494 1.387 . S
C1495 C1497 1.387 . S
H1496 C1503 0.950 . S
C1497 C1495 1.387 . S
C1497 C1499 1.390 1_545 S
C1497 H1501 0.950 . S
H1498 C1494 0.950 . S
C1499 C1497 1.390 1_565 S
C1499 C1500 1.387 . S
C1499 H1502 0.950 . S
C1500 C1499 1.387 . S
C1500 C1503 1.387 . S
H1501 C1497 0.950 . S
H1502 C1499 0.950 . S
C1503 C1494 1.390 1_565 S
C1503 H1496 0.950 . S
C1503 C1500 1.387 . S
C1504 C1505 1.387 . S
C1504 H1508 0.950 . S
C1504 C1513 1.390 1_545 S
C1505 C1504 1.387 . S
C1505 C1507 1.387 . S
H1506 C1513 0.950 . S
C1507 C1505 1.387 . S
C1507 C1509 1.390 1_545 S
C1507 H1511 0.950 . S
H1508 C1504 0.950 . S
C1509 C1507 1.390 1_565 S
C1509 C1510 1.387 . S
C1509 H1512 0.950 . S
C1510 C1509 1.387 . S
C1510 C1513 1.387 . S
H1511 C1507 0.950 . S
H1512 C1509 0.950 . S
C1513 C1504 1.390 1_565 S
C1513 H1506 0.950 . S
C1513 C1510 1.387 . S
C1514 C1515 1.387 . S
C1514 H1518 0.950 . S
C1514 C1523 1.390 1_545 S
C1515 C1514 1.387 . S
C1515 C1517 1.387 . S
H1516 C1523 0.950 . S
C1517 C1515 1.387 . S
C1517 C1519 1.390 1_545 S
C1517 H1521 0.950 . S
H1518 C1514 0.950 . S
C1519 C1517 1.390 1_565 S
C1519 C1520 1.387 . S
C1519 H1522 0.950 . S
C1520 C1519 1.387 . S
C1520 C1523 1.387 . S
H1521 C1517 0.950 . S
H1522 C1519 0.950 . S
C1523 C1514 1.390 1_565 S
C1523 H1516 0.950 . S
C1523 C1520 1.387 . S
C1524 C1525 1.387 . S
C1524 H1528 0.950 . S
C1524 C1533 1.390 1_655 S
C1525 C1524 1.387 . S
C1525 C1527 1.387 . S
H1526 C1533 0.950 . S
C1527 C1525 1.387 . S
C1527 C1529 1.390 1_655 S
C1527 H1531 0.950 . S
H1528 C1524 0.950 . S
C1529 C1527 1.390 1_455 S
C1529 C1530 1.387 . S
C1529 H1532 0.950 . S
C1530 C1529 1.387 . S
C1530 C1533 1.387 . S
H1531 C1527 0.950 . S
H1532 C1529 0.950 . S
C1533 C1524 1.390 1_455 S
C1533 H1526 0.950 . S
C1533 C1530 1.387 . S
C1534 C1535 1.387 . S
C1534 H1538 0.950 . S
C1534 C1543 1.390 1_545 S
C1535 C1534 1.387 . S
C1535 C1537 1.387 . S
H1536 C1543 0.950 . S
C1537 C1535 1.387 . S
C1537 C1539 1.390 1_545 S
C1537 H1541 0.950 . S
H1538 C1534 0.950 . S
C1539 C1537 1.390 1_565 S
C1539 C1540 1.387 . S
C1539 H1542 0.950 . S
C1540 C1539 1.387 . S
C1540 C1543 1.387 . S
H1541 C1537 0.950 . S
H1542 C1539 0.950 . S
C1543 C1534 1.390 1_565 S
C1543 H1536 0.950 . S
C1543 C1540 1.387 . S
C1544 C1545 1.387 . S
C1544 H1548 0.950 . S
C1544 C1553 1.390 1_455 S
C1545 C1544 1.387 . S
C1545 C1547 1.387 . S
H1546 C1553 0.950 . S
C1547 C1545 1.387 . S
C1547 C1549 1.390 1_455 S
C1547 H1551 0.950 . S
H1548 C1544 0.950 . S
C1549 C1547 1.390 1_655 S
C1549 C1550 1.387 . S
C1549 H1552 0.950 . S
C1550 C1549 1.387 . S
C1550 C1553 1.387 . S
H1551 C1547 0.950 . S
H1552 C1549 0.950 . S
C1553 C1544 1.390 1_655 S
C1553 H1546 0.950 . S
C1553 C1550 1.387 . S
C1554 C1555 1.387 . S
C1554 H1558 0.950 . S
C1554 C1563 1.390 1_545 S
C1555 C1554 1.387 . S
C1555 C1557 1.387 . S
H1556 C1563 0.950 . S
C1557 C1555 1.387 . S
C1557 C1559 1.390 1_545 S
C1557 H1561 0.950 . S
H1558 C1554 0.950 . S
C1559 C1557 1.390 1_565 S
C1559 C1560 1.387 . S
C1559 H1562 0.950 . S
C1560 C1559 1.387 . S
C1560 C1563 1.387 . S
H1561 C1557 0.950 . S
H1562 C1559 0.950 . S
C1563 C1554 1.390 1_565 S
C1563 H1556 0.950 . S
C1563 C1560 1.387 . S
C1564 C1565 1.387 . S
C1564 H1568 0.950 . S
C1564 C1573 1.390 1_655 S
C1565 C1564 1.387 . S
C1565 C1567 1.387 . S
H1566 C1573 0.950 . S
C1567 C1565 1.387 . S
C1567 C1569 1.390 1_655 S
C1567 H1571 0.950 . S
H1568 C1564 0.950 . S
C1569 C1567 1.390 1_455 S
C1569 C1570 1.387 . S
C1569 H1572 0.950 . S
C1570 C1569 1.387 . S
C1570 C1573 1.387 . S
H1571 C1567 0.950 . S
H1572 C1569 0.950 . S
C1573 C1564 1.390 1_455 S
C1573 H1566 0.950 . S
C1573 C1570 1.387 . S
C1574 C1575 1.387 . S
C1574 H1578 0.950 . S
C1574 C1583 1.390 1_455 S
C1575 C1574 1.387 . S
C1575 C1577 1.387 . S
H1576 C1583 0.950 . S
C1577 C1575 1.387 . S
C1577 C1579 1.390 1_455 S
C1577 H1581 0.950 . S
H1578 C1574 0.950 . S
C1579 C1577 1.390 1_655 S
C1579 C1580 1.387 . S
C1579 H1582 0.950 . S
C1580 C1579 1.387 . S
C1580 C1583 1.387 . S
H1581 C1577 0.950 . S
H1582 C1579 0.950 . S
C1583 C1574 1.390 1_655 S
C1583 H1576 0.950 . S
C1583 C1580 1.387 . S
C625 C517 1.446 . S
C630 C10 1.445 . S
C635 C13 1.153 . S
C640 C478 1.165 . S
C645 C36 1.317 . S
C650 C481 1.307 . S
C655 C494 1.227 . S
C660 C39 1.241 . S
C665 C429 1.221 . S
C670 C52 1.244 . S
C675 C75 1.351 . S
C680 C452 1.342 . S
C685 C78 1.174 . S
C690 C465 1.182 . S
C695 C101 1.433 . S
C700 C426 1.431 . S
C705 C104 1.388 . S
C710 C413 1.402 . S
C715 C364 1.148 . S
C720 C117 1.139 . S
C725 C387 1.352 . S
C730 C140 1.342 . S
C735 C153 1.273 . S
C740 C390 1.264 . S
C745 C166 1.207 . S
C750 C325 1.199 . S
C755 C179 1.348 . S
C760 C348 1.356 . S
C765 C351 1.172 . S
C770 C182 1.152 . S
C775 C322 1.399 . S
C780 C195 1.382 . S
C785 C208 1.338 . S
C790 C572 1.345 . S
C795 C621 1.232 . S
C800 C231 1.230 . S
C805 C585 1.261 . S
C810 C234 1.269 . S
C815 C608 1.199 . S
C820 C257 1.201 . S
C825 C520 1.358 . S
C830 C260 1.346 . S
C835 C546 1.317 . S
C840 C273 1.330 . S
C845 C296 1.243 . S
C850 C569 1.242 . S
C855 C543 1.193 . S
C860 C309 1.195 . S
C865 C416 1.394 . S
C870 C270 1.412 . S
C875 C221 1.257 . S
C880 C439 1.268 . S
C885 C442 1.305 . S
C890 C244 1.315 . S
C895 C455 1.130 . S
C900 C247 1.135 . S
C905 C299 1.133 . S
C910 C468 1.129 . S
C915 C491 1.346 . S
C920 C283 1.355 . S
C925 C286 1.272 . S
C930 C504 1.283 . S
C935 C218 1.397 . S
C940 C507 1.382 . S
C945 C530 1.447 . S
C950 C205 1.447 . S
C955 C156 1.204 . S
C960 C611 1.207 . S
C965 C595 1.312 . S
C970 C169 1.304 . S
C975 C192 1.247 . S
C980 C598 1.234 . S
C985 C127 1.178 . S
C990 C533 1.166 . S
C995 C130 1.308 . S
C1000 C556 1.316 . S
C1005 C143 1.215 . S
C1010 C559 1.229 . S
C1015 C582 1.437 . S
C1020 C114 1.438 . S
C1025 C312 1.334 . S
C1030 C91 1.347 . S
C1035 C374 1.196 . S
C1040 C23 1.194 . S
C1045 C377 1.314 . S
C1050 C26 1.301 . S
C1055 C400 1.243 . S
C1060 C49 1.244 . S
C1065 C403 1.348 . S
C1070 C0 1.355 . S
C1075 C65 1.358 . S
C1080 C338 1.361 . S
C1085 C361 1.209 . S
C1090 C88 1.209 . S
C1095 C335 1.237 . S
C1100 C62 1.238 . S
C1105 C8 1.418 . S
C1110 C346 1.420 . S
C1115 C356 1.238 . S
C1120 C18 1.224 . S
C1125 C34 1.399 . S
C1130 C320 1.404 . S
C1135 C44 1.263 . S
C1140 C330 1.254 . S
C1145 C57 1.271 . S
C1150 C395 1.255 . S
C1155 C411 1.424 . S
C1160 C73 1.413 . S
C1165 C83 1.240 . S
C1170 C369 1.250 . S
C1175 C385 1.412 . S
C1180 C99 1.414 . S
C1185 C109 1.333 . S
C1190 C476 1.334 . S
C1195 C486 1.249 . S
C1200 C122 1.248 . S
C1205 C138 1.315 . S
C1210 C499 1.331 . S
C1215 C151 1.405 . S
C1220 C515 1.398 . S
C1225 C164 1.364 . S
C1230 C424 1.372 . S
C1235 C177 1.305 . S
C1240 C434 1.318 . S
C1245 C450 1.281 . S
C1250 C187 1.280 . S
C1255 C200 1.336 . S
C1260 C463 1.333 . S
C1265 C567 1.320 . S
C1270 C213 1.333 . S
C1275 C229 1.300 . S
C1280 C590 1.313 . S
C1285 C239 1.317 . S
C1290 C606 1.291 . S
C1295 C525 1.377 . S
C1300 C255 1.332 . S
C1305 C619 1.313 . S
C1310 C265 1.334 . S
C1315 C278 1.363 . S
C1320 C541 1.331 . S
C1325 C551 1.323 . S
C1330 C294 1.313 . S
C1335 C307 1.321 . S
C1340 C577 1.357 . S
C1345 C554 1.398 . S
C1350 C268 1.402 . S
C1355 C226 1.247 . S
C1360 C564 1.262 . S
C1365 C580 1.390 . S
C1370 C242 1.394 . S
C1375 C538 1.226 . S
C1380 C252 1.244 . S
C1385 C603 1.227 . S
C1390 C304 1.251 . S
C1395 C281 1.410 . S
C1400 C528 1.417 . S
C1405 C616 1.277 . S
C1410 C291 1.257 . S
C1415 C216 1.396 . S
C1420 C593 1.390 . S
C1425 C437 1.412 . S
C1430 C203 1.399 . S
C1435 C161 1.289 . S
C1440 C447 1.285 . S
C1445 C174 1.255 . S
C1450 C460 1.255 . S
C1455 C421 1.365 . S
C1460 C190 1.379 . S
C1465 C125 1.337 . S
C1470 C512 1.339 . S
C1475 C473 1.242 . S
C1480 C135 1.245 . S
C1485 C148 1.326 . S
C1490 C489 1.312 . S
C1495 C112 1.399 . S
C1500 C502 1.412 . S
C1505 C359 1.332 . S
C1510 C96 1.367 . S
C1515 C21 1.326 . S
C1520 C382 1.362 . S
C1525 C31 1.320 . S
C1530 C398 1.310 . S
C1535 C408 1.351 . S
C1540 C47 1.321 . S
C1545 C5 1.371 . S
C1550 C372 1.326 . S
C1555 C70 1.364 . S
C1560 C333 1.347 . S
C1565 C86 1.332 . S
C1570 C343 1.371 . S
C1575 C60 1.312 . S
C1580 C317 1.328 . S
