# Generated by pormake.
# Topology neb, (4)-cn, num edge types: 1
# Building blocks:
#     Node 0, Type 0, BuildingBlock: QUQFOY_clean_sbu_3, # of connection points: 4
#     Node 1, Type 0, BuildingBlock: QUQFOY_clean_sbu_3, # of connection points: 4
#     Node 2, Type 0, BuildingBlock: QUQFOY_clean_sbu_3, # of connection points: 4
#     Node 3, Type 0, BuildingBlock: QUQFOY_clean_sbu_3, # of connection points: 4
#     Node 4, Type 0, BuildingBlock: QUQFOY_clean_sbu_3, # of connection points: 4
#     Node 5, Type 0, BuildingBlock: QUQFOY_clean_sbu_3, # of connection points: 4
#     Node 6, Type 0, BuildingBlock: QUQFOY_clean_sbu_3, # of connection points: 4
#     Node 7, Type 0, BuildingBlock: QUQFOY_clean_sbu_3, # of connection points: 4
#     Node 8, Type 0, BuildingBlock: QUQFOY_clean_sbu_3, # of connection points: 4
#     Node 9, Type 0, BuildingBlock: QUQFOY_clean_sbu_3, # of connection points: 4
#     Node 10, Type 0, BuildingBlock: QUQFOY_clean_sbu_3, # of connection points: 4
#     Node 11, Type 0, BuildingBlock: QUQFOY_clean_sbu_3, # of connection points: 4
#     Node 12, Type 0, BuildingBlock: QUQFOY_clean_sbu_3, # of connection points: 4
#     Node 13, Type 0, BuildingBlock: QUQFOY_clean_sbu_3, # of connection points: 4
#     Node 14, Type 0, BuildingBlock: QUQFOY_clean_sbu_3, # of connection points: 4
#     Node 15, Type 0, BuildingBlock: QUQFOY_clean_sbu_3, # of connection points: 4
#     Edge 16, Type (0, 0), BuildingBlock: XUDNAN_clean_linker_2, # of connection points: 2
#     Edge 17, Type (0, 0), BuildingBlock: XUDNAN_clean_linker_2, # of connection points: 2
#     Edge 18, Type (0, 0), BuildingBlock: XUDNAN_clean_linker_2, # of connection points: 2
#     Edge 19, Type (0, 0), BuildingBlock: XUDNAN_clean_linker_2, # of connection points: 2
#     Edge 20, Type (0, 0), BuildingBlock: XUDNAN_clean_linker_2, # of connection points: 2
#     Edge 21, Type (0, 0), BuildingBlock: XUDNAN_clean_linker_2, # of connection points: 2
#     Edge 22, Type (0, 0), BuildingBlock: XUDNAN_clean_linker_2, # of connection points: 2
#     Edge 23, Type (0, 0), BuildingBlock: XUDNAN_clean_linker_2, # of connection points: 2
#     Edge 24, Type (0, 0), BuildingBlock: XUDNAN_clean_linker_2, # of connection points: 2
#     Edge 25, Type (0, 0), BuildingBlock: XUDNAN_clean_linker_2, # of connection points: 2
#     Edge 26, Type (0, 0), BuildingBlock: XUDNAN_clean_linker_2, # of connection points: 2
#     Edge 27, Type (0, 0), BuildingBlock: XUDNAN_clean_linker_2, # of connection points: 2
#     Edge 28, Type (0, 0), BuildingBlock: XUDNAN_clean_linker_2, # of connection points: 2
#     Edge 29, Type (0, 0), BuildingBlock: XUDNAN_clean_linker_2, # of connection points: 2
#     Edge 30, Type (0, 0), BuildingBlock: XUDNAN_clean_linker_2, # of connection points: 2
#     Edge 31, Type (0, 0), BuildingBlock: XUDNAN_clean_linker_2, # of connection points: 2
#     Edge 32, Type (0, 0), BuildingBlock: XUDNAN_clean_linker_2, # of connection points: 2
#     Edge 33, Type (0, 0), BuildingBlock: XUDNAN_clean_linker_2, # of connection points: 2
#     Edge 34, Type (0, 0), BuildingBlock: XUDNAN_clean_linker_2, # of connection points: 2
#     Edge 35, Type (0, 0), BuildingBlock: XUDNAN_clean_linker_2, # of connection points: 2
#     Edge 36, Type (0, 0), BuildingBlock: XUDNAN_clean_linker_2, # of connection points: 2
#     Edge 37, Type (0, 0), BuildingBlock: XUDNAN_clean_linker_2, # of connection points: 2
#     Edge 38, Type (0, 0), BuildingBlock: XUDNAN_clean_linker_2, # of connection points: 2
#     Edge 39, Type (0, 0), BuildingBlock: XUDNAN_clean_linker_2, # of connection points: 2
#     Edge 40, Type (0, 0), BuildingBlock: XUDNAN_clean_linker_2, # of connection points: 2
#     Edge 41, Type (0, 0), BuildingBlock: XUDNAN_clean_linker_2, # of connection points: 2
#     Edge 42, Type (0, 0), BuildingBlock: XUDNAN_clean_linker_2, # of connection points: 2
#     Edge 43, Type (0, 0), BuildingBlock: XUDNAN_clean_linker_2, # of connection points: 2
#     Edge 44, Type (0, 0), BuildingBlock: XUDNAN_clean_linker_2, # of connection points: 2
#     Edge 45, Type (0, 0), BuildingBlock: XUDNAN_clean_linker_2, # of connection points: 2
#     Edge 46, Type (0, 0), BuildingBlock: XUDNAN_clean_linker_2, # of connection points: 2
#     Edge 47, Type (0, 0), BuildingBlock: XUDNAN_clean_linker_2, # of connection points: 2
# Relax obj value: 0.002
# Max RMSD: 0.027
# Mean RMSD: 0.027
data_MOF--net-neb--node1-QUQFOY_clean_sbu_3--edge1-XUDNAN_clean_linker_2
_symmetry_space_group_name_H-M    P1
_symmetry_Int_Tables_number       1
_symmetry_cell_setting            triclinic
loop_
_symmetry_equiv_pos_as_xyz
'x, y, z'
_cell_length_a     43.975648
_cell_length_b     23.1092
_cell_length_c     80.106978
_cell_angle_alpha  90.142811
_cell_angle_beta   93.0795
_cell_angle_gamma 89.930501
loop_
_atom_site_label
_atom_site_type_symbol
_atom_site_fract_x
_atom_site_fract_y
_atom_site_fract_z
_atom_type_partial_charge
C0 C 0.19078 0.08374 0.45182 0.0
O1 O 0.20289 0.05205 0.44101 0.0
Cd2 Cd 0.17943 0.00129 0.41783 0.0
O3 O 0.16188 0.08981 0.45175 0.0
Cd4 Cd 0.11653 0.05142 0.43475 0.0
C5 C 0.14063 0.1184 0.39996 0.0
O6 O 0.13673 0.95672 0.42857 0.0
O7 O 0.09454 0.97846 0.41527 0.0
O8 O 0.0881 0.03066 0.45942 0.0
C9 C 0.11576 0.94204 0.41798 0.0
O10 O 0.16118 0.07951 0.39978 0.0
C11 C 0.0647 0.05975 0.45465 0.0
O12 O 0.12191 0.12038 0.41159 0.0
O13 O 0.0661 0.08758 0.44105 0.0
C14 C 0.04655 0.1192 0.78623 0.0
O15 O 0.03664 0.09409 0.79895 0.0
Cd16 Cd 0.06424 0.0311 0.81839 0.0
O17 O 0.07432 0.11364 0.78266 0.0
Cd18 Cd 0.11991 0.0647 0.79576 0.0
C19 C 0.11584 0.12856 0.83403 0.0
O20 O 0.09645 0.97255 0.80247 0.0
O21 O 0.14244 0.98488 0.81233 0.0
O22 O 0.14332 0.04422 0.76919 0.0
C23 C 0.11939 0.95214 0.8107 0.0
O24 O 0.09539 0.09206 0.83735 0.0
C25 C 0.16743 0.07274 0.77298 0.0
O26 O 0.12606 0.13178 0.81948 0.0
O27 O 0.16869 0.09873 0.78698 0.0
C28 C 0.77922 0.87356 0.53598 0.0
O29 O 0.76787 0.89265 0.54917 0.0
Cd30 Cd 0.7943 0.94162 0.57186 0.0
O31 O 0.80721 0.88246 0.53333 0.0
Cd32 Cd 0.85139 0.93439 0.54778 0.0
C33 C 0.85147 0.84137 0.58044 0.0
O34 O 0.8241 0.01511 0.5602 0.0
O35 O 0.87112 0.00332 0.5686 0.0
O36 O 0.86469 0.97999 0.52172 0.0
C37 C 0.84687 0.0327 0.56919 0.0
O38 O 0.82735 0.86752 0.58438 0.0
C39 C 0.89212 0.96256 0.52232 0.0
O40 O 0.86486 0.85479 0.56726 0.0
O41 O 0.90036 0.92969 0.53444 0.0
C42 C 0.92765 0.83723 0.2042 0.0
O43 O 0.94767 0.86281 0.19611 0.0
Cd44 Cd 0.93539 0.89712 0.16826 0.0
O45 O 0.9 0.83662 0.19863 0.0
Cd46 Cd 0.86714 0.87683 0.17534 0.0
C47 C 0.89796 0.77512 0.15225 0.0
O48 O 0.89339 0.96322 0.1655 0.0
O49 O 0.86277 0.9182 0.14777 0.0
O50 O 0.83668 0.92753 0.19512 0.0
C51 C 0.87983 0.96133 0.15107 0.0
O52 O 0.92108 0.8084 0.15338 0.0
C53 C 0.81155 0.90383 0.19059 0.0
O54 O 0.87383 0.7871 0.15969 0.0
O55 O 0.81207 0.8669 0.1788 0.0
C56 C 0.19118 0.63054 0.94936 0.0
O57 O 0.21123 0.61249 0.9398 0.0
Cd58 Cd 0.19584 0.55762 0.91516 0.0
O59 O 0.16342 0.61645 0.9465 0.0
Cd60 Cd 0.13223 0.55689 0.92645 0.0
C61 C 0.14451 0.64735 0.89492 0.0
O62 O 0.16503 0.47326 0.92071 0.0
O63 O 0.12844 0.49328 0.90248 0.0
O64 O 0.10407 0.51158 0.94859 0.0
C65 C 0.14874 0.45808 0.90787 0.0
O66 O 0.17098 0.62489 0.89504 0.0
C67 C 0.0782 0.53046 0.94333 0.0
O68 O 0.12593 0.6331 0.90582 0.0
O69 O 0.07755 0.56165 0.93029 0.0
C70 C 0.02593 0.58895 0.2907 0.0
O71 O 0.01498 0.56276 0.30291 0.0
Cd72 Cd 0.04735 0.52035 0.32471 0.0
O73 O 0.05448 0.58782 0.28877 0.0
Cd74 Cd 0.10078 0.54209 0.3021 0.0
C75 C 0.09584 0.63303 0.33452 0.0
O76 O 0.08254 0.4507 0.31447 0.0
O77 O 0.12749 0.48252 0.32232 0.0
O78 O 0.11379 0.50174 0.27539 0.0
C79 C 0.10787 0.44254 0.32257 0.0
O80 O 0.07345 0.60174 0.33831 0.0
C81 C 0.14006 0.52438 0.27526 0.0
O82 O 0.11019 0.62289 0.32143 0.0
O83 O 0.14779 0.55781 0.28738 0.0
C84 C 0.80545 0.34338 0.02601 0.0
O85 O 0.7918 0.35635 0.03906 0.0
Cd86 Cd 0.82227 0.38936 0.0637 0.0
O87 O 0.83411 0.34927 0.02583 0.0
Cd88 Cd 0.87861 0.38085 0.04275 0.0
C89 C 0.87043 0.27449 0.07043 0.0
O90 O 0.85999 0.46325 0.05951 0.0
O91 O 0.90334 0.42311 0.06676 0.0
O92 O 0.8913 0.43573 0.01845 0.0
C93 C 0.8843 0.46324 0.06895 0.0
O94 O 0.84926 0.30639 0.07562 0.0
C95 C 0.91759 0.41422 0.01705 0.0
O96 O 0.88375 0.2871 0.05716 0.0
O97 O 0.9262 0.37603 0.02771 0.0
C98 C 0.9376 0.37011 0.70376 0.0
O99 O 0.95482 0.38379 0.69218 0.0
Cd100 Cd 0.93474 0.4301 0.66689 0.0
O101 O 0.90957 0.38416 0.70272 0.0
Cd102 Cd 0.87233 0.43704 0.68426 0.0
C103 C 0.87767 0.33571 0.65415 0.0
O104 O 0.90416 0.51374 0.67243 0.0
O105 O 0.85871 0.49982 0.66133 0.0
O106 O 0.85505 0.49026 0.70815 0.0
C107 C 0.88306 0.52916 0.66187 0.0
O108 O 0.90384 0.35723 0.65209 0.0
C109 C 0.82766 0.47283 0.70683 0.0
O110 O 0.86122 0.35448 0.66563 0.0
O111 O 0.82084 0.43762 0.695 0.0
C112 C 0.68992 0.11029 0.94208 0.0
O113 O 0.70126 0.08563 0.92966 0.0
Cd114 Cd 0.67552 0.02519 0.90928 0.0
O115 O 0.66212 0.10219 0.94525 0.0
Cd116 Cd 0.61822 0.04515 0.93253 0.0
C117 C 0.62008 0.12349 0.89672 0.0
O118 O 0.64552 0.95887 0.92385 0.0
O119 O 0.59862 0.96584 0.91482 0.0
O120 O 0.6048 0.01497 0.9602 0.0
C121 C 0.62303 0.9366 0.91563 0.0
O122 O 0.64376 0.0943 0.89374 0.0
C123 C 0.5772 0.03124 0.95868 0.0
O124 O 0.60645 0.11643 0.91023 0.0
O125 O 0.56881 0.05661 0.94514 0.0
C126 C 0.54464 0.14481 0.27164 0.0
O127 O 0.52777 0.12685 0.2829 0.0
Cd128 Cd 0.55001 0.07603 0.30694 0.0
O129 O 0.57275 0.1313 0.2721 0.0
Cd130 Cd 0.61191 0.07346 0.28768 0.0
C131 C 0.60872 0.17004 0.31908 0.0
O132 O 0.58096 -0.00413 0.29917 0.0
O133 O 0.62731 0.00645 0.30932 0.0
O134 O 0.62221 0.02567 0.26161 0.0
C135 C 0.60256 0.97836 0.30911 0.0
O136 O 0.58275 0.14751 0.3211 0.0
C137 C 0.65037 0.03765 0.26187 0.0
O138 O 0.625 0.15341 0.30724 0.0
O139 O 0.66099 0.0679 0.27414 0.0
C140 C 0.28112 0.89961 0.03372 0.0
O141 O 0.26815 0.92412 0.04566 0.0
Cd142 Cd 0.29092 0.98148 0.06784 0.0
O143 O 0.30974 0.90513 0.03223 0.0
Cd144 Cd 0.35242 0.95632 0.04814 0.0
C145 C 0.34123 0.88168 0.08425 0.0
O146 O 0.32516 0.04509 0.05485 0.0
O147 O 0.37074 0.03698 0.06576 0.0
O148 O 0.3805 0.9794 0.02316 0.0
C149 C 0.34673 0.067 0.06386 0.0
O150 O 0.31721 0.91126 0.08609 0.0
C151 C 0.40475 0.95393 0.02852 0.0
O152 O 0.35695 0.88837 0.0715 0.0
O153 O 0.40387 0.92813 0.04245 0.0
C154 C 0.43956 0.86 0.69965 0.0
O155 O 0.45827 0.87331 0.68878 0.0
Cd156 Cd 0.4403 0.92236 0.66347 0.0
O157 O 0.41197 0.87645 0.69786 0.0
Cd158 Cd 0.3778 0.9343 0.67917 0.0
C159 C 0.38152 0.83406 0.64902 0.0
O160 O 0.41186 0.0094 0.66827 0.0
O161 O 0.36722 -0.00351 0.65593 0.0
O162 O 0.362 -0.00927 0.70269 0.0
C163 C 0.39157 0.02575 0.65735 0.0
O164 O 0.40837 0.85351 0.6477 0.0
C165 C 0.33405 0.97703 0.70123 0.0
O166 O 0.3647 0.85342 0.66024 0.0
O167 O 0.32618 0.94195 0.68954 0.0
C168 C 0.67958 0.63755 0.44625 0.0
O169 O 0.69805 0.62495 0.43514 0.0
Cd170 Cd 0.68129 0.57784 0.40918 0.0
O171 O 0.65161 0.62374 0.44418 0.0
Cd172 Cd 0.61648 0.57467 0.4237 0.0
C173 C 0.62786 0.673 0.39331 0.0
O174 O 0.64935 0.49503 0.41398 0.0
O175 O 0.60541 0.50854 0.40111 0.0
O176 O 0.58895 0.53154 0.44653 0.0
C177 C 0.62957 0.47883 0.40277 0.0
O178 O 0.65407 0.65041 0.39209 0.0
C179 C 0.56343 0.55366 0.44186 0.0
O180 O 0.61029 0.65586 0.40439 0.0
O181 O 0.56287 0.58528 0.42891 0.0
C182 C 0.53354 0.60219 0.78549 0.0
O183 O 0.52122 0.57931 0.79787 0.0
Cd184 Cd 0.54422 0.52148 0.8199 0.0
O185 O 0.56189 0.59523 0.78337 0.0
Cd186 Cd 0.60559 0.54475 0.79841 0.0
C187 C 0.59688 0.61983 0.83504 0.0
O188 O 0.57776 0.45876 0.80614 0.0
O189 O 0.62466 0.4621 0.81513 0.0
O190 O 0.63221 0.52097 0.77292 0.0
C191 C 0.59958 0.43513 0.81452 0.0
O192 O 0.57267 0.59142 0.83734 0.0
C193 C 0.65603 0.54942 0.77742 0.0
O194 O 0.61175 0.61214 0.822 0.0
O195 O 0.65574 0.57615 0.79128 0.0
C196 C 0.29783 0.35269 0.53014 0.0
O197 O 0.2805 0.37381 0.54077 0.0
Cd198 Cd 0.30273 0.43 0.5639 0.0
O199 O 0.32577 0.36711 0.53038 0.0
Cd200 Cd 0.36399 0.43114 0.54426 0.0
C201 C 0.36295 0.34032 0.57676 0.0
O202 O 0.33243 0.51001 0.55492 0.0
O203 O 0.37906 0.50196 0.56485 0.0
O204 O 0.37463 0.472 0.51736 0.0
C205 C 0.35408 0.52943 0.56453 0.0
O206 O 0.33674 0.362 0.57883 0.0
C207 C 0.40276 0.45931 0.51802 0.0
O208 O 0.37849 0.35576 0.56455 0.0
O209 O 0.41314 0.43262 0.53098 0.0
C210 C 0.43289 0.40448 0.19251 0.0
O211 O 0.44347 0.43047 0.18011 0.0
Cd212 Cd 0.41796 0.48797 0.15902 0.0
O213 O 0.4046 0.40773 0.19533 0.0
Cd214 Cd 0.35891 0.45663 0.18125 0.0
C215 C 0.36736 0.38547 0.14405 0.0
O216 O 0.38423 0.54579 0.17413 0.0
O217 O 0.33775 0.53858 0.16473 0.0
O218 O 0.33294 0.47811 0.20708 0.0
C219 C 0.36192 0.56833 0.16591 0.0
O220 O 0.39055 0.41662 0.14158 0.0
C221 C 0.30901 0.45006 0.20255 0.0
O222 O 0.353 0.39039 0.15737 0.0
O223 O 0.30917 0.42363 0.18864 0.0
H224 H 0.23809 0.32344 0.52117 0.0
H225 H 0.33192 0.28194 0.51142 0.0
H226 H 0.31425 0.20627 0.49164 0.0
H227 H 0.20885 0.17682 0.51855 0.0
H228 H 0.17326 0.19709 0.50794 0.0
H229 H 0.19289 0.24753 0.5219 0.0
H230 H 0.19294 0.32365 0.49821 0.0
H231 H 0.17316 0.27358 0.48422 0.0
H232 H 0.20873 0.30481 0.47861 0.0
H233 H 0.2875 0.13551 0.47321 0.0
H234 H 0.25266 0.07712 0.45517 0.0
H235 H 0.17524 0.16444 0.47561 0.0
C236 C 0.25487 0.29832 0.51489 0.0
C237 C 0.28642 0.30866 0.5179 0.0
C238 C 0.30765 0.27513 0.50931 0.0
C239 C 0.29787 0.23175 0.4981 0.0
C240 C 0.26675 0.2225 0.49547 0.0
C241 C 0.24547 0.25499 0.50344 0.0
C242 C 0.21333 0.23713 0.49773 0.0
C243 C 0.19607 0.21322 0.51241 0.0
C244 C 0.19603 0.28781 0.48918 0.0
C245 C 0.22004 0.18974 0.48529 0.0
C246 C 0.25104 0.18188 0.48437 0.0
C247 C 0.26315 0.14122 0.47377 0.0
C248 C 0.24307 0.1082 0.46356 0.0
C249 C 0.21111 0.11614 0.46389 0.0
C250 C 0.1995 0.15713 0.47509 0.0
H251 H 0.95285 0.93558 0.52114 0.0
H252 H 0.88056 0.03579 0.49596 0.0
H253 H 0.91729 0.07458 0.47662 0.0
H254 H 0.01163 0.04201 0.51856 0.0
H255 H 0.04114 0.99009 0.51482 0.0
H256 H 0.00917 0.96951 0.52664 0.0
H257 H -0.00273 0.88442 0.50619 0.0
H258 H 0.02939 0.90436 0.49442 0.0
H259 H -0.00793 0.89866 0.4841 0.0
H260 H 0.96199 0.10341 0.4602 0.0
H261 H 0.01087 0.11558 0.44681 0.0
H262 H 0.05398 -0.0033 0.48271 0.0
C263 C 0.94469 0.96539 0.51149 0.0
C264 C 0.9138 0.9826 0.51006 0.0
C265 C 0.90409 0.02185 0.49729 0.0
C266 C 0.9248 0.04431 0.48627 0.0
C267 C 0.95515 0.02709 0.48818 0.0
C268 C 0.96505 0.98822 0.50038 0.0
C269 C -0.00116 0.97636 0.49964 0.0
C270 C 0.01621 -0.00434 0.51588 0.0
C271 C 0.00473 0.91215 0.49586 0.0
C272 C 0.00637 0.01453 0.48509 0.0
C273 C 0.98089 0.04365 0.47871 0.0
C274 C 0.98211 0.08087 0.4651 0.0
C275 C 0.01001 0.08765 0.45761 0.0
C276 C 0.03629 0.05727 0.46374 0.0
C277 C 0.03439 0.02086 0.4778 0.0
H278 H 0.27372 0.94801 0.70362 0.0
H279 H 0.34451 0.06197 0.72449 0.0
H280 H 0.30824 0.10368 0.7436 0.0
H281 H 0.21057 0.0501 0.7061 0.0
H282 H 0.18399 -0.00461 0.71195 0.0
H283 H 0.21496 0.97647 0.69912 0.0
H284 H 0.23277 0.89776 0.72048 0.0
H285 H 0.20181 0.91625 0.73331 0.0
H286 H 0.24042 0.91759 0.74208 0.0
H287 H 0.26546 0.13033 0.76119 0.0
H288 H 0.21911 0.13749 0.77706 0.0
H289 H 0.17569 0.0063 0.74506 0.0
C290 C 0.28149 0.98205 0.71212 0.0
C291 C 0.31193 0.00183 0.71253 0.0
C292 C 0.32131 0.04608 0.72395 0.0
C293 C 0.30085 0.07026 0.73481 0.0
C294 C 0.27107 0.04977 0.73412 0.0
C295 C 0.26136 0.00657 0.72313 0.0
C296 C 0.22846 -0.0094 0.72554 0.0
C297 C 0.20831 0.00395 0.70973 0.0
C298 C 0.22572 0.92677 0.73066 0.0
C299 C 0.2214 0.03099 0.73976 0.0
C300 C 0.24625 0.06507 0.74439 0.0
C301 C 0.24575 0.1042 0.75761 0.0
C302 C 0.21932 0.10794 0.76655 0.0
C303 C 0.19376 0.07263 0.76227 0.0
C304 C 0.19473 0.03433 0.74851 0.0
H305 H 0.05848 0.17681 0.75718 0.0
H306 H 0.98726 0.14594 0.79163 0.0
H307 H 0.95252 0.20883 0.77473 0.0
H308 H 0.04047 0.32681 0.74895 0.0
H309 H 0.04841 0.32266 0.72713 0.0
H310 H 0.06807 0.27557 0.74201 0.0
H311 H 0.04973 0.18612 0.7247 0.0
H312 H 0.03013 0.23293 0.70974 0.0
H313 H 0.00959 0.17639 0.71973 0.0
H314 H 0.92535 0.27445 0.75423 0.0
H315 H 0.90682 0.33634 0.73085 0.0
H316 H -0.00468 0.32478 0.70941 0.0
C317 C 0.03559 0.18326 0.76118 0.0
C318 C 0.02567 0.15634 0.77578 0.0
C319 C -0.00454 0.16592 0.78052 0.0
C320 C 0.97553 0.20172 0.77102 0.0
C321 C 0.98606 0.22768 0.75677 0.0
C322 C 0.01531 0.21882 0.75181 0.0
C323 C 0.02065 0.25128 0.7358 0.0
C324 C 0.0459 0.29678 0.73865 0.0
C325 C 0.02795 0.20916 0.72166 0.0
C326 C 0.98979 0.27957 0.73254 0.0
C327 C 0.97025 0.26551 0.74484 0.0
C328 C 0.94042 0.28584 0.74452 0.0
C329 C 0.93013 0.32104 0.73117 0.0
C330 C 0.94957 0.33557 0.71826 0.0
C331 C 0.9799 0.31475 0.71909 0.0
H332 H 0.79464 0.8227 0.50627 0.0
H333 H 0.71929 0.84623 0.5386 0.0
H334 H 0.68656 0.78714 0.51948 0.0
H335 H 0.74957 0.82991 0.46725 0.0
H336 H 0.77136 0.7753 0.45708 0.0
H337 H 0.78926 0.81952 0.47334 0.0
H338 H 0.80602 0.72724 0.48969 0.0
H339 H 0.78805 0.68274 0.47352 0.0
H340 H 0.77778 0.67472 0.49487 0.0
H341 H 0.66183 0.72561 0.4973 0.0
H342 H 0.64591 0.66729 0.47263 0.0
H343 H 0.73671 0.68281 0.45421 0.0
C344 C 0.77125 0.81556 0.5093 0.0
C345 C 0.75963 0.83925 0.52399 0.0
C346 C 0.72884 0.82873 0.52747 0.0
C347 C 0.71 0.79507 0.51669 0.0
C348 C 0.72217 0.77213 0.50244 0.0
C349 C 0.752 0.78198 0.49864 0.0
C350 C 0.75913 0.75236 0.48237 0.0
C351 C 0.76784 0.79694 0.46923 0.0
C352 C 0.78423 0.70654 0.48529 0.0
C353 C 0.72863 0.72451 0.47767 0.0
C354 C 0.70772 0.73643 0.48948 0.0
C355 C 0.67796 0.71594 0.48794 0.0
C356 C 0.66916 0.68276 0.47386 0.0
C357 C 0.69001 0.67034 0.46143 0.0
C358 C 0.72023 0.69131 0.46348 0.0
H359 H 0.71201 0.05309 0.25927 0.0
H360 H 0.63269 0.97089 0.23491 0.0
H361 H 0.66502 0.92908 0.21373 0.0
H362 H 0.74973 0.08785 0.22122 0.0
H363 H 0.78726 0.07312 0.23039 0.0
H364 H 0.75767 0.09815 0.24334 0.0
H365 H 0.76615 0.00866 0.26247 0.0
H366 H 0.79566 0.98325 0.24955 0.0
H367 H 0.76379 0.93716 0.25344 0.0
H368 H 0.70626 0.89284 0.1958 0.0
H369 H 0.75344 0.86742 0.18197 0.0
H370 H 0.80563 0.97406 0.2178 0.0
C371 C 0.70141 0.0267 0.24941 0.0
C372 C 0.6698 0.01533 0.24875 0.0
C373 C 0.65684 0.98032 0.23567 0.0
C374 C 0.67501 0.9563 0.22357 0.0
C375 C 0.70611 0.96784 0.22467 0.0
C376 C 0.71921 0.00245 0.23719 0.0
C377 C 0.75328 0.00736 0.23565 0.0
C378 C 0.76252 0.07037 0.23246 0.0
C379 C 0.77074 0.98262 0.2512 0.0
C380 C 0.75729 0.96974 0.22041 0.0
C381 C 0.72982 0.94733 0.21426 0.0
C382 C 0.72791 0.91039 0.20045 0.0
C383 C 0.75481 0.8961 0.1927 0.0
C384 C 0.78319 0.91884 0.19876 0.0
C385 C 0.78428 0.95618 0.2128 0.0
H386 H 0.98552 0.80824 0.21587 0.0
H387 H 0.89033 0.78831 0.22655 0.0
H388 H 0.90515 0.7238 0.25013 0.0
H389 H 0.00675 0.66317 0.22359 0.0
H390 H 0.04384 0.67997 0.23302 0.0
H391 H 0.02612 0.72822 0.21779 0.0
H392 H 0.03143 0.81327 0.23889 0.0
H393 H 0.04949 0.76541 0.25413 0.0
H394 H 0.01619 0.80597 0.25923 0.0
H395 H 0.93014 0.6577 0.2717 0.0
H396 H 0.96364 0.59728 0.29024 0.0
H397 H 0.04235 0.65909 0.26505 0.0
C398 C 0.9678 0.7912 0.22334 0.0
C399 C 0.93675 0.80363 0.2194 0.0
C400 C 0.91427 0.77959 0.22935 0.0
C401 C 0.92245 0.74283 0.24276 0.0
C402 C 0.95319 0.73045 0.24606 0.0
C403 C 0.97553 0.75415 0.2367 0.0
C404 C 0.00683 0.73222 0.24244 0.0
C405 C 0.02175 0.69892 0.22837 0.0
C406 C 0.02718 0.7822 0.24907 0.0
C407 C -0.00143 0.6921 0.25641 0.0
C408 C 0.96754 0.69184 0.25833 0.0
C409 C 0.9545 0.65773 0.27035 0.0
C410 C 0.97372 0.62342 0.28079 0.0
C411 C 0.00565 0.62326 0.27911 0.0
C412 C 0.01806 0.65799 0.26666 0.0
H413 H 0.3003 0.83395 0.00734 0.0
H414 H 0.21983 0.88077 0.03358 0.0
H415 H 0.18879 0.81624 0.01517 0.0
H416 H 0.26255 0.82567 0.96603 0.0
H417 H 0.28461 0.76451 0.95962 0.0
H418 H 0.30078 0.81501 0.97478 0.0
H419 H 0.31186 0.73081 -0.00447 0.0
H420 H 0.29556 0.6801 0.98047 0.0
H421 H 0.28116 0.68422 0.00109 0.0
H422 H 0.16637 0.74601 -0.00547 0.0
H423 H 0.15341 0.67658 0.97191 0.0
H424 H 0.24793 0.67461 0.95863 0.0
C425 C 0.27613 0.83089 0.00916 0.0
C426 C 0.26259 0.86256 0.02196 0.0
C427 C 0.23085 0.85709 0.02391 0.0
C428 C 0.21295 0.82043 0.01352 0.0
C429 C 0.22703 0.78946 0.00118 0.0
C430 C 0.25782 0.7944 -0.00115 0.0
C431 C 0.26709 0.75609 0.98458 0.0
C432 C 0.27948 0.7925 0.97041 0.0
C433 C 0.29029 0.71008 -0.0092 0.0
C434 C 0.23667 0.72893 0.97931 0.0
C435 C 0.21394 0.74877 -0.01089 0.0
C436 C 0.18393 0.73017 0.98673 0.0
C437 C 0.17682 0.6906 0.97385 0.0
C438 C 0.19961 0.67003 0.96346 0.0
C439 C 0.22998 0.68934 0.96636 0.0
H440 H 0.07246 0.46162 0.97092 0.0
H441 H 0.02056 0.56921 0.93528 0.0
H442 H 0.97376 0.5484 0.94982 0.0
H443 H 0.01422 0.3522 0.97519 0.0
H444 H 0.02294 0.34209 -0.00277 0.0
H445 H 0.05238 0.36432 0.98383 0.0
H446 H 0.06359 0.4539 0.00268 0.0
H447 H 0.03421 0.43194 0.01614 0.0
H448 H 0.03306 0.50304 0.00692 0.0
H449 H 0.93311 0.51897 0.96859 0.0
H450 H 0.90076 0.48202 -0.00964 0.0
H451 H 0.97856 0.39191 0.01372 0.0
C452 C 0.05123 0.48063 0.96614 0.0
C453 C 0.05016 0.51709 0.95196 0.0
C454 C 0.02194 0.54115 0.94611 0.0
C455 C -0.00478 0.52955 0.95427 0.0
C456 C -0.00292 0.49361 0.96822 0.0
C457 C 0.0243 0.46935 0.9741 0.0
C458 C 0.02002 0.43283 -0.0105 0.0
C459 C 0.02785 0.36908 0.98623 0.0
C460 C 0.03883 0.45689 0.00471 0.0
C461 C 0.98618 0.44086 -0.00856 0.0
C462 C 0.97345 0.47604 0.979 0.0
C463 C 0.94276 0.49111 0.97834 0.0
C464 C 0.92459 0.46995 -0.00921 0.0
C465 C 0.93711 0.43394 0.00371 0.0
C466 C 0.9683 0.41894 0.00393 0.0
H467 H 0.29905 0.51221 0.23115 0.0
H468 H 0.2561 0.39118 0.19567 0.0
H469 H 0.20826 0.39859 0.21019 0.0
H470 H 0.26111 0.46077 0.26764 0.0
H471 H 0.25735 0.53223 0.27637 0.0
H472 H 0.28862 0.51597 0.2635 0.0
H473 H 0.27281 0.60156 0.24407 0.0
H474 H 0.24129 0.61768 0.25678 0.0
H475 H 0.23463 0.60437 0.2347 0.0
H476 H 0.16469 0.42133 0.22772 0.0
H477 H 0.12867 0.45346 0.24838 0.0
H478 H 0.19944 0.55973 0.27273 0.0
C479 C 0.27969 0.48676 0.22657 0.0
C480 C 0.28135 0.45103 0.21228 0.0
C481 C 0.25542 0.41877 0.2066 0.0
C482 C 0.22809 0.42278 0.21473 0.0
C483 C 0.22703 0.45916 0.22856 0.0
C484 C 0.25215 0.49024 0.23455 0.0
C485 C 0.24469 0.52649 0.2496 0.0
C486 C 0.26409 0.50772 0.2652 0.0
C487 C 0.24859 0.59137 0.24607 0.0
C488 C 0.21145 0.511 0.25107 0.0
C489 C 0.20176 0.47223 0.23876 0.0
C490 C 0.17201 0.45154 0.23746 0.0
C491 C 0.15169 0.47022 0.24923 0.0
C492 C 0.1612 0.50916 0.26217 0.0
C493 C 0.19145 0.53014 0.26296 0.0
H494 H 0.6818 0.1502 0.97418 0.0
H495 H 0.74172 0.16255 0.93295 0.0
H496 H 0.77459 0.23009 0.9493 0.0
H497 H 0.68981 0.30096 -0.01149 0.0
H498 H 0.69022 0.28223 0.01036 0.0
H499 H 0.66959 0.23786 -0.00492 0.0
H500 H 0.69996 0.14777 0.00559 0.0
H501 H 0.72055 0.19176 0.02094 0.0
H502 H 0.741 0.14938 0.0063 0.0
H503 H 0.80215 0.29201 0.96986 0.0
H504 H 0.82528 0.34138 -0.00544 0.0
H505 H 0.74905 0.28958 0.02343 0.0
C506 C 0.70167 0.16764 0.96857 0.0
C507 C 0.70913 0.15112 0.95226 0.0
C508 C 0.73557 0.17426 0.94543 0.0
C509 C 0.75431 0.21303 0.95457 0.0
C510 C 0.74647 0.22823 0.97059 0.0
C511 C 0.72097 0.20617 0.97764 0.0
C512 C 0.71911 0.22716 -0.00444 0.0
C513 C 0.69048 0.26426 -0.00252 0.0
C514 C 0.72023 0.17596 0.00782 0.0
C515 C 0.74783 0.26359 -0.00254 0.0
C516 C 0.76293 0.26397 0.98277 0.0
C517 C 0.79052 0.29238 0.98142 0.0
C518 C 0.80349 0.32022 -0.00444 0.0
C519 C 0.789 0.3194 0.01094 0.0
C520 C 0.76046 0.29159 0.0118 0.0
H521 H 0.66708 0.48497 0.74938 0.0
H522 H 0.70743 0.61362 0.78338 0.0
H523 H 0.75489 0.60979 0.76844 0.0
H524 H 0.73345 0.39911 0.74646 0.0
H525 H 0.72692 0.38215 0.72459 0.0
H526 H 0.69517 0.39734 0.7372 0.0
H527 H 0.67713 0.47858 0.71674 0.0
H528 H 0.70874 0.4634 0.70399 0.0
H529 H 0.70316 0.53556 0.71186 0.0
H530 H 0.79872 0.58876 0.75101 0.0
H531 H 0.8361 0.55365 0.7315 0.0
H532 H 0.76788 0.43856 0.70851 0.0
C533 C 0.68576 0.51289 0.75352 0.0
C534 C 0.6835 0.54971 0.76753 0.0
C535 C 0.70858 0.58512 0.77268 0.0
C536 C 0.73567 0.58329 0.76427 0.0
C537 C 0.73734 0.54592 0.7507 0.0
C538 C 0.71307 0.51155 0.74527 0.0
C539 C 0.72134 0.47391 0.73064 0.0
C540 C 0.71909 0.40931 0.73499 0.0
C541 C 0.70141 0.48877 0.71488 0.0
C542 C 0.75413 0.49206 0.72887 0.0
C543 C 0.76281 0.53376 0.74056 0.0
C544 C 0.79217 0.5564 0.74172 0.0
C545 C 0.81326 0.53604 0.7306 0.0
C546 C 0.80493 0.49342 0.71846 0.0
C547 C 0.7749 0.47132 0.71761 0.0
H548 H 0.5161 0.05753 0.95863 0.0
H549 H 0.58926 0.97271 0.98783 0.0
H550 H 0.55279 0.9424 0.0084 0.0
H551 H 0.47543 0.1098 -0.00592 0.0
H552 H 0.43839 0.09784 0.98392 0.0
H553 H 0.47042 0.11403 0.97163 0.0
H554 H 0.46029 0.02024 0.95444 0.0
H555 H 0.42844 0.00344 0.96679 0.0
H556 H 0.45887 0.95177 0.96511 0.0
H557 H 0.50858 0.91811 0.02521 0.0
H558 H 0.45968 0.90715 0.03847 0.0
H559 H 0.41479 0.00868 -0.00123 0.0
C560 C 0.52449 0.03307 0.96944 0.0
C561 C 0.55556 0.01751 0.97162 0.0
C562 C 0.5656 0.98526 0.9859 0.0
C563 C 0.54504 0.96766 -0.00237 0.0
C564 C 0.51453 0.98282 -0.00503 0.0
C565 C 0.50426 0.01525 0.98134 0.0
C566 C 0.47022 0.0257 0.9815 0.0
C567 C 0.46321 0.0907 0.98287 0.0
C568 C 0.45348 -0.00134 0.96604 0.0
C569 C 0.463 -0.00615 -0.00267 0.0
C570 C 0.48891 0.96923 0.00483 0.0
C571 C 0.48813 0.93736 0.01951 0.0
C572 C 0.46019 0.93124 0.02691 0.0
C573 C 0.43338 0.95705 0.01967 0.0
C574 C 0.43485 0.98833 0.00459 0.0
H575 H 0.42031 0.33889 0.22029 0.0
H576 H 0.49356 0.38833 0.18887 0.0
H577 H 0.52902 0.32659 0.20545 0.0
H578 H 0.46658 0.33522 0.25921 0.0
H579 H 0.44737 0.27327 0.26729 0.0
H580 H 0.4272 0.32174 0.25301 0.0
H581 H 0.41337 0.23555 0.23332 0.0
H582 H 0.43363 0.18686 0.2475 0.0
H583 H 0.4433 0.19035 0.22594 0.0
H584 H 0.55661 0.25916 0.22461 0.0
H585 H 0.57572 0.19195 0.24646 0.0
H586 H 0.48565 0.18533 0.26624 0.0
C587 C 0.44383 0.3369 0.21695 0.0
C588 C 0.45401 0.3686 0.20322 0.0
C589 C 0.48503 0.36465 0.19929 0.0
C590 C 0.50546 0.32955 0.20862 0.0
C591 C 0.49468 0.29861 0.22192 0.0
C592 C 0.46472 0.30201 0.22621 0.0
C593 C 0.4594 0.26413 0.24124 0.0
C594 C 0.44956 0.30079 0.25607 0.0
C595 C 0.43604 0.21639 0.23672 0.0
C596 C 0.49107 0.23906 0.24463 0.0
C597 C 0.51093 0.25954 0.23325 0.0
C598 C 0.54135 0.24284 0.23364 0.0
C599 C 0.55195 0.20449 0.24612 0.0
C600 C 0.53224 0.18325 0.25812 0.0
C601 C 0.5013 0.20069 0.25727 0.0
H602 H 0.49612 0.81175 0.70738 0.0
H603 H 0.40444 0.82489 0.72479 0.0
H604 H 0.41878 0.76041 0.74828 0.0
H605 H 0.50754 0.66202 0.71732 0.0
H606 H 0.54703 0.67016 0.72417 0.0
H607 H 0.53009 0.71869 0.70875 0.0
H608 H 0.54627 0.80659 0.72729 0.0
H609 H 0.56342 0.75833 0.74272 0.0
H610 H 0.53503 0.80977 0.74858 0.0
H611 H 0.44193 0.69304 0.76931 0.0
H612 H 0.47342 0.6292 0.78764 0.0
H613 H 0.55074 0.65923 0.75718 0.0
C614 C 0.47913 0.80138 0.71619 0.0
C615 C 0.44912 0.82348 0.71419 0.0
C616 C 0.42756 0.80863 0.726 0.0
C617 C 0.43545 0.77192 0.7394 0.0
C618 C 0.46502 0.75044 0.7409 0.0
C619 C 0.48663 0.76474 0.72972 0.0
C620 C 0.51679 0.73528 0.7343 0.0
C621 C 0.52589 0.69409 0.7203 0.0
C622 C 0.54186 0.78018 0.73847 0.0
C623 C 0.50861 0.70208 0.74974 0.0
C624 C 0.47859 0.71148 0.75325 0.0
C625 C 0.46551 0.68543 0.76675 0.0
C626 C 0.48365 0.64907 0.77707 0.0
C627 C 0.51464 0.63908 0.7739 0.0
C628 C 0.52717 0.66591 0.75997 0.0
H629 H 0.46426 0.43997 0.51595 0.0
H630 H 0.38565 0.51698 0.48936 0.0
H631 H 0.41815 0.54786 0.46691 0.0
H632 H 0.51768 0.54964 0.50608 0.0
H633 H 0.54877 0.50002 0.50357 0.0
H634 H 0.51926 0.48235 0.51744 0.0
H635 H 0.5091 0.38603 0.50149 0.0
H636 H 0.53863 0.40334 0.48759 0.0
H637 H 0.50069 0.38742 0.47922 0.0
H638 H 0.45896 0.57285 0.44778 0.0
H639 H 0.50569 0.589 0.43279 0.0
H640 H 0.55811 0.49524 0.47147 0.0
C641 C 0.45387 0.46306 0.50536 0.0
C642 C 0.42239 0.47604 0.50441 0.0
C643 C 0.40969 0.5065 0.49037 0.0
C644 C 0.42795 0.52424 0.47754 0.0
C645 C 0.45888 0.5111 0.4789 0.0
C646 C 0.47178 0.48107 0.4924 0.0
C647 C 0.50575 0.47317 0.49083 0.0
C648 C 0.52393 0.50309 0.50534 0.0
C649 C 0.51402 0.40865 0.48971 0.0
C650 C 0.50988 0.50378 0.4744 0.0
C651 C 0.48252 0.52529 0.46775 0.0
C652 C 0.48052 0.55603 0.45281 0.0
C653 C 0.50721 0.56504 0.4444 0.0
C654 C 0.53554 0.54332 0.45093 0.0
C655 C 0.53678 0.51217 0.46613 0.0
H656 H 0.05918 0.70304 0.35187 0.0
H657 H 0.15388 0.66937 0.34274 0.0
H658 H 0.16969 0.74314 0.36401 0.0
H659 H 0.06809 0.85872 0.35685 0.0
H660 H 0.04039 0.86319 0.3726 0.0
H661 H 0.03706 0.80777 0.35676 0.0
H662 H 0.03646 0.72951 0.37988 0.0
H663 H 0.04021 0.78462 0.39578 0.0
H664 H 0.06739 0.72622 0.39556 0.0
H665 H 0.17472 0.81519 0.38787 0.0
H666 H 0.16881 0.89109 0.40928 0.0
H667 H 0.07065 0.88254 0.40085 0.0
C668 C 0.08324 0.71151 0.3543 0.0
C669 C 0.1054 0.68056 0.34584 0.0
C670 C 0.13664 0.69302 0.34912 0.0
C671 C 0.14578 0.73444 0.36122 0.0
C672 C 0.1233 0.76352 0.36959 0.0
C673 C 0.09267 0.7535 0.36599 0.0
C674 C 0.07298 0.79198 0.37626 0.0
C675 C 0.05349 0.83284 0.36494 0.0
C676 C 0.0531 0.75591 0.38754 0.0
C677 C 0.09731 0.8247 0.38641 0.0
C678 C 0.12619 0.80713 0.38257 0.0
C679 C 0.15224 0.82979 0.39082 0.0
C680 C 0.14865 0.87254 0.40303 0.0
C681 C 0.11928 0.89271 0.40659 0.0
C682 C 0.09336 0.86809 0.39826 0.0
H683 H 0.09366 0.19338 0.3906 0.0
H684 H 0.18545 0.14311 0.37902 0.0
H685 H 0.18513 0.21632 0.35685 0.0
H686 H 0.06665 0.22062 0.34722 0.0
H687 H 0.0437 0.28197 0.35253 0.0
H688 H 0.05034 0.22422 0.36737 0.0
H689 H 0.0717 0.29787 0.38943 0.0
H690 H 0.06501 0.3558 0.3747 0.0
H691 H 0.10256 0.34482 0.38433 0.0
H692 H 0.17718 0.29844 0.33768 0.0
H693 H 0.16085 0.38464 0.32145 0.0
H694 H 0.07299 0.3799 0.34353 0.0
C695 C 0.11361 0.19772 0.38335 0.0
C696 C 0.13958 0.16244 0.38657 0.0
C697 C 0.16521 0.16932 0.37676 0.0
C698 C 0.1653 0.21081 0.36412 0.0
C699 C 0.13944 0.24474 0.36124 0.0
C700 C 0.11395 0.23861 0.37044 0.0
C701 C 0.0894 0.2816 0.36479 0.0
C702 C 0.06083 0.25021 0.35755 0.0
C703 C 0.08173 0.32244 0.37917 0.0
C704 C 0.10543 0.31349 0.35125 0.0
C705 C 0.1343 0.29132 0.34949 0.0
C706 C 0.15446 0.31567 0.33871 0.0
C707 C 0.14504 0.36453 0.32958 0.0
C708 C 0.11561 0.38794 0.33111 0.0
C709 C 0.09533 0.36168 0.34188 0.0
H710 H 0.12486 0.24425 0.83103 0.0
H711 H 0.13083 0.10345 0.86666 0.0
H712 H 0.14725 0.17233 0.88912 0.0
H713 H 0.18741 0.33492 0.84933 0.0
H714 H 0.16645 0.401 0.84538 0.0
H715 H 0.16029 0.33963 0.83169 0.0
H716 H 0.10253 0.34268 0.83668 0.0
H717 H 0.1085 0.40403 0.8503 0.0
H718 H 0.09021 0.34006 0.85777 0.0
H719 H 0.16061 0.25773 0.9079 0.0
H720 H 0.16256 0.35327 0.92211 0.0
H721 H 0.14264 0.43775 0.87453 0.0
C722 C 0.13038 0.22793 0.84349 0.0
C723 C 0.1272 0.16876 0.84717 0.0
C724 C 0.13346 0.14881 0.86367 0.0
C725 C 0.14297 0.18748 0.87644 0.0
C726 C 0.14557 0.24592 0.87248 0.0
C727 C 0.13903 0.26613 0.85643 0.0
C728 C 0.13962 0.33151 0.85585 0.0
C729 C 0.16496 0.35301 0.84491 0.0
C730 C 0.10836 0.35598 0.8498 0.0
C731 C 0.14689 0.34501 0.8741 0.0
C732 C 0.15114 0.29517 0.88344 0.0
C733 C 0.15746 0.29705 0.9007 0.0
C734 C 0.15865 0.35132 0.90866 0.0
C735 C 0.15271 0.40238 0.89936 0.0
C736 C 0.1473 0.39913 0.88188 0.0
H737 H 0.18073 0.7157 0.87636 0.0
H738 H 0.08634 0.67257 0.88365 0.0
H739 H 0.06986 0.74045 0.86117 0.0
H740 H 0.16781 0.86632 0.87007 0.0
H741 H 0.19596 0.87378 0.85468 0.0
H742 H 0.20033 0.81866 0.87046 0.0
H743 H 0.20395 0.74055 0.84736 0.0
H744 H 0.19937 0.79547 0.83149 0.0
H745 H 0.17382 0.73452 0.83128 0.0
H746 H 0.06362 0.81341 0.83811 0.0
H747 H 0.06774 0.89394 0.81813 0.0
H748 H 0.16602 0.89286 0.82688 0.0
C749 C 0.15661 0.72022 0.87312 0.0
C750 C 0.1348 0.68869 0.88166 0.0
C751 C 0.10342 0.69644 0.87728 0.0
C752 C 0.09385 0.73456 0.86446 0.0
C753 C 0.11594 0.76495 0.85627 0.0
C754 C 0.14664 0.75876 0.86054 0.0
C755 C 0.16559 0.79939 0.85056 0.0
C756 C 0.18346 0.84207 0.86213 0.0
C757 C 0.18694 0.76544 0.83952 0.0
C758 C 0.14071 0.82973 0.84012 0.0
C759 C 0.11228 0.80856 0.8434 0.0
C760 C 0.08576 0.83033 0.83542 0.0
C761 C 0.08834 0.87589 0.82405 0.0
C762 C 0.11719 0.8996 0.82099 0.0
C763 C 0.14367 0.87553 0.82897 0.0
H764 H 0.91137 0.26572 0.63489 0.0
H765 H 0.81837 0.30194 0.64728 0.0
H766 H 0.79978 0.22922 0.62637 0.0
H767 H 0.89727 0.24645 0.5912 0.0
H768 H 0.92428 0.18821 0.58964 0.0
H769 H 0.93004 0.2424 0.60568 0.0
H770 H 0.93251 0.16263 0.62843 0.0
H771 H 0.92704 0.10815 0.61244 0.0
H772 H 0.90163 0.11169 0.62934 0.0
H773 H 0.79164 0.15536 0.6029 0.0
H774 H 0.79491 0.08029 0.58093 0.0
H775 H 0.8935 0.09151 0.58516 0.0
C776 C 0.88707 0.25831 0.63327 0.0
C777 C 0.86627 0.28962 0.64264 0.0
C778 C 0.83469 0.27823 0.64026 0.0
C779 C 0.82394 0.23728 0.62837 0.0
C780 C 0.84512 0.20781 0.61915 0.0
C781 C 0.87604 0.21734 0.62166 0.0
C782 C 0.89423 0.17954 0.61043 0.0
C783 C 0.91252 0.21636 0.59853 0.0
C784 C 0.91507 0.13804 0.62078 0.0
C785 C 0.86873 0.1474 0.60107 0.0
C786 C 0.84053 0.16451 0.60613 0.0
C787 C 0.81362 0.14139 0.59893 0.0
C788 C 0.81568 0.09906 0.58642 0.0
C789 C 0.84445 0.08006 0.58142 0.0
C790 C 0.87119 0.10495 0.58881 0.0
H791 H 0.83739 0.59494 0.6482 0.0
H792 H 0.93545 0.57379 0.64962 0.0
H793 H 0.93879 0.65135 0.62835 0.0
H794 H 0.82542 0.6201 0.60494 0.0
H795 H 0.79612 0.67366 0.6073 0.0
H796 H 0.80196 0.61762 0.6227 0.0
H797 H 0.80936 0.695 0.64607 0.0
H798 H 0.80321 0.7513 0.63076 0.0
H799 H 0.8375 0.75089 0.64414 0.0
H800 H 0.92995 0.7278 0.60519 0.0
H801 H 0.91066 0.80271 0.58509 0.0
H802 H 0.819 0.77447 0.60078 0.0
C803 C 0.85962 0.6068 0.64411 0.0
C804 C 0.88616 0.57837 0.65041 0.0
C805 C 0.91487 0.5954 0.64493 0.0
C806 C 0.91693 0.63908 0.63281 0.0
C807 C 0.8901 0.66561 0.62661 0.0
C808 C 0.86208 0.6506 0.63234 0.0
C809 C 0.8366 0.68589 0.62409 0.0
C810 C 0.81369 0.64698 0.61417 0.0
C811 C 0.82075 0.72298 0.63704 0.0
C812 C 0.85448 0.72282 0.61261 0.0
C813 C 0.88527 0.7104 0.61404 0.0
C814 C 0.90593 0.73821 0.60413 0.0
C815 C 0.89479 0.78037 0.59269 0.0
C816 C 0.86342 0.79462 0.5915 0.0
C817 C 0.84318 0.76505 0.60155 0.0
H818 H 0.84506 0.54332 0.08211 0.0
H819 H 0.93852 0.48136 0.08572 0.0
H820 H 0.95071 0.55074 0.10831 0.0
H821 H 0.86254 0.69362 0.08966 0.0
H822 H 0.83025 0.70683 0.10208 0.0
H823 H 0.82828 0.65153 0.08618 0.0
H824 H 0.81398 0.57599 0.10827 0.0
H825 H 0.81613 0.63103 0.12427 0.0
H826 H 0.8386 0.56603 0.12677 0.0
H827 H 0.95406 0.6275 0.12941 0.0
H828 H 0.94825 0.71024 0.1484 0.0
H829 H 0.85246 0.72258 0.13266 0.0
C830 C 0.86805 0.54459 0.08766 0.0
C831 C 0.89083 0.50689 0.08215 0.0
C832 C 0.92065 0.5096 0.08975 0.0
C833 C 0.92785 0.54883 0.10262 0.0
C834 C 0.90496 0.58495 0.10788 0.0
C835 C 0.87567 0.58345 0.10072 0.0
C836 C 0.85566 0.62793 0.10881 0.0
C837 C 0.84347 0.67263 0.09591 0.0
C838 C 0.82955 0.59847 0.11755 0.0
C839 C 0.8785 0.65489 0.12141 0.0
C840 C 0.90675 0.62914 0.12059 0.0
C841 C 0.93202 0.6478 0.13032 0.0
C842 C 0.92851 0.6948 0.14103 0.0
C843 C 0.8999 0.7223 0.14205 0.0
C844 C 0.87443 0.70152 0.13232 0.0
H845 H 0.876 0.07902 0.15192 0.0
H846 H 0.89719 0.93426 0.12012 0.0
H847 H 0.90337 0.00111 0.09646 0.0
H848 H 0.82902 0.14783 0.12198 0.0
H849 H 0.8394 0.22063 0.12804 0.0
H850 H 0.8423 0.16337 0.1432 0.0
H851 H 0.89927 0.1878 0.14959 0.0
H852 H 0.89649 0.24547 0.13447 0.0
H853 H 0.92483 0.18967 0.13274 0.0
H854 H 0.90356 0.08286 0.07577 0.0
H855 H 0.89323 0.17179 0.05915 0.0
H856 H 0.86761 0.26105 0.10398 0.0
C857 C 0.88287 0.06194 0.14009 0.0
C858 C 0.88677 0.00205 0.13779 0.0
C859 C 0.89452 0.98038 0.12204 0.0
C860 C 0.89818 0.01795 0.1086 0.0
C861 C 0.89354 0.0769 0.11109 0.0
C862 C 0.88582 0.09876 0.12642 0.0
C863 C 0.87828 0.16255 0.12525 0.0
C864 C 0.8453 0.17424 0.12989 0.0
C865 C 0.90108 0.19849 0.13616 0.0
C866 C 0.88224 0.17274 0.10684 0.0
C867 C 0.89178 0.12326 0.09895 0.0
C868 C 0.89625 0.12202 0.08183 0.0
C869 C 0.89037 0.17257 0.07249 0.0
C870 C 0.87946 0.22289 0.08029 0.0
C871 C 0.87577 0.22297 0.09769 0.0
H872 H 0.56243 0.68092 0.85628 0.0
H873 H 0.6553 0.65702 0.84186 0.0
H874 H 0.67289 0.7306 0.8627 0.0
H875 H 0.56712 0.83316 0.86025 0.0
H876 H 0.54292 0.83722 0.87767 0.0
H877 H 0.53828 0.779 0.86281 0.0
H878 H 0.54538 0.7044 0.88683 0.0
H879 H 0.55015 0.76248 0.90178 0.0
H880 H 0.57907 0.70748 0.90065 0.0
H881 H 0.68004 0.80789 0.88492 0.0
H882 H 0.67556 0.88967 0.90465 0.0
H883 H 0.57756 0.86652 0.903 0.0
C884 C 0.58652 0.6906 0.85768 0.0
C885 C 0.60759 0.66297 0.84762 0.0
C886 C 0.63883 0.67772 0.8495 0.0
C887 C 0.64903 0.71915 0.86135 0.0
C888 C 0.62762 0.74578 0.87104 0.0
C889 C 0.59697 0.73253 0.86919 0.0
C890 C 0.5783 0.77042 0.88017 0.0
C891 C 0.55531 0.80712 0.86959 0.0
C892 C 0.56229 0.73401 0.89313 0.0
C893 C 0.60317 0.80746 0.8884 0.0
C894 C 0.63153 0.79195 0.88322 0.0
C895 C 0.65795 0.82039 0.88908 0.0
C896 C 0.65521 0.86659 0.90031 0.0
C897 C 0.62621 0.88433 0.90528 0.0
C898 C 0.59999 0.85389 0.89937 0.0
H899 H 0.65451 0.17979 0.87482 0.0
H900 H 0.56234 0.16835 0.89128 0.0
H901 H 0.54583 0.24279 0.87041 0.0
H902 H 0.65467 0.33212 0.87004 0.0
H903 H 0.67786 0.33078 0.85216 0.0
H904 H 0.6814 0.27398 0.86746 0.0
H905 H 0.67041 0.19755 0.84417 0.0
H906 H 0.66667 0.2542 0.82878 0.0
H907 H 0.63611 0.20325 0.83089 0.0
H908 H 0.53994 0.31887 0.8474 0.0
H909 H 0.54613 0.3969 0.82671 0.0
H910 H 0.64296 0.36079 0.82708 0.0
C911 C 0.63074 0.19239 0.87393 0.0
C912 C 0.60957 0.1679 0.8845 0.0
C913 C 0.57886 0.18655 0.88323 0.0
C914 C 0.5693 0.22849 0.87138 0.0
C915 C 0.59085 0.25163 0.8611 0.0
C916 C 0.62102 0.23463 0.86245 0.0
C917 C 0.64023 0.26852 0.85083 0.0
C918 C 0.66499 0.30342 0.86071 0.0
C919 C 0.65417 0.22848 0.8379 0.0
C920 C 0.61624 0.30763 0.84271 0.0
C921 C 0.58779 0.29674 0.84855 0.0
C922 C 0.56213 0.32776 0.84278 0.0
C923 C 0.56582 0.37175 0.83098 0.0
C924 C 0.59504 0.38477 0.82537 0.0
C925 C 0.62039 0.35179 0.8312 0.0
H926 H 0.57357 0.23992 0.33727 0.0
H927 H 0.6678 0.20387 0.32753 0.0
H928 H 0.68443 0.27694 0.34892 0.0
H929 H 0.58234 0.39311 0.34257 0.0
H930 H 0.55513 0.397 0.35858 0.0
H931 H 0.55154 0.34173 0.34274 0.0
H932 H 0.55203 0.26308 0.3658 0.0
H933 H 0.55596 0.31808 0.38172 0.0
H934 H 0.58339 0.26017 0.38122 0.0
H935 H 0.68998 0.35282 0.37266 0.0
H936 H 0.6837 0.4303 0.3938 0.0
H937 H 0.58562 0.41606 0.38626 0.0
C938 C 0.59775 0.24726 0.3396 0.0
C939 C 0.61943 0.216 0.33085 0.0
C940 C 0.65082 0.22753 0.3341 0.0
C941 C 0.66044 0.26864 0.34628 0.0
C942 C 0.63832 0.29807 0.35488 0.0
C943 C 0.60761 0.28826 0.35145 0.0
C944 C 0.58811 0.32623 0.3619 0.0
C945 C 0.56811 0.36693 0.35078 0.0
C946 C 0.56874 0.28969 0.37333 0.0
C947 C 0.61255 0.35912 0.37185 0.0
C948 C 0.64143 0.34212 0.36786 0.0
C949 C 0.66744 0.36656 0.37579 0.0
C950 C 0.6637 0.4102 0.38782 0.0
C951 C 0.6342 0.42918 0.39156 0.0
C952 C 0.60847 0.40269 0.38357 0.0
H953 H 0.66294 0.73985 0.3739 0.0
H954 H 0.56917 0.70794 0.38552 0.0
H955 H 0.55182 0.78027 0.36435 0.0
H956 H 0.65481 0.89329 0.36852 0.0
H957 H 0.68067 0.89631 0.35183 0.0
H958 H 0.68523 0.84119 0.3676 0.0
H959 H 0.68246 0.76212 0.34454 0.0
H960 H 0.67764 0.81701 0.3287 0.0
H961 H 0.65 0.75982 0.32982 0.0
H962 H 0.54492 0.85481 0.3411 0.0
H963 H 0.54956 0.93159 0.31979 0.0
H964 H 0.64794 0.91586 0.32472 0.0
C965 C 0.63874 0.74798 0.372 0.0
C966 C 0.61739 0.71812 0.38128 0.0
C967 C 0.58594 0.73049 0.37856 0.0
C968 C 0.57586 0.77124 0.36651 0.0
C969 C 0.59756 0.79953 0.35745 0.0
C970 C 0.62836 0.78887 0.36022 0.0
C971 C 0.64717 0.82627 0.34929 0.0
C972 C 0.6682 0.86666 0.35995 0.0
C973 C 0.66538 0.78907 0.33738 0.0
C974 C 0.62218 0.85965 0.33989 0.0
C975 C 0.59367 0.84333 0.34459 0.0
C976 C 0.56715 0.86809 0.33738 0.0
C977 C 0.56997 0.91138 0.32526 0.0
C978 C 0.59908 0.92968 0.32071 0.0
C979 C 0.62538 0.90298 0.32804 0.0
H980 H 0.40308 0.32544 0.12328 0.0
H981 H 0.30944 0.34679 0.13662 0.0
H982 H 0.29313 0.27286 0.11557 0.0
H983 H 0.38859 0.29788 0.07878 0.0
H984 H 0.41791 0.24348 0.07813 0.0
H985 H 0.42167 0.30189 0.09304 0.0
H986 H 0.42813 0.22783 0.11724 0.0
H987 H 0.42452 0.1693 0.10241 0.0
H988 H 0.39947 0.17308 0.11947 0.0
H989 H 0.2874 0.19563 0.0932 0.0
H990 H 0.29332 0.11347 0.07374 0.0
H991 H 0.3912 0.13854 0.07681 0.0
C992 C 0.37908 0.31514 0.12158 0.0
C993 C 0.35741 0.34216 0.13137 0.0
C994 C 0.32633 0.32657 0.12916 0.0
C995 C 0.31688 0.28496 0.11719 0.0
C996 C 0.33888 0.25894 0.10775 0.0
C997 C 0.36939 0.27292 0.10998 0.0
C998 C 0.38881 0.23527 0.09933 0.0
C999 C 0.40521 0.27183 0.08656 0.0
C1000 C 0.41156 0.19923 0.11027 0.0
C1001 C 0.36451 0.19757 0.09083 0.0
C1002 C 0.33579 0.21258 0.09558 0.0
C1003 C 0.30978 0.18352 0.08939 0.0
C1004 C 0.31333 0.13714 0.07831 0.0
C1005 C 0.3427 0.11981 0.07385 0.0
C1006 C 0.36849 0.15091 0.08005 0.0
H1007 H 0.31687 0.637 0.15194 0.0
H1008 H 0.41503 0.61581 0.1562 0.0
H1009 H 0.42072 0.6965 0.13642 0.0
H1010 H 0.31008 0.66765 0.10907 0.0
H1011 H 0.28061 0.7214 0.11058 0.0
H1012 H 0.28433 0.66437 0.12582 0.0
H1013 H 0.28902 0.74024 0.1497 0.0
H1014 H 0.28506 0.7976 0.13454 0.0
H1015 H 0.31766 0.79587 0.14916 0.0
H1016 H 0.41518 0.77226 0.11392 0.0
H1017 H 0.39915 0.84491 0.09257 0.0
H1018 H 0.30494 0.82073 0.10448 0.0
C1019 C 0.33957 0.6499 0.14888 0.0
C1020 C 0.36551 0.62024 0.15554 0.0
C1021 C 0.39487 0.63826 0.15128 0.0
C1022 C 0.39831 0.68386 0.14003 0.0
C1023 C 0.37221 0.71151 0.13341 0.0
C1024 C 0.34344 0.69589 0.1379 0.0
C1025 C 0.31907 0.73214 0.12888 0.0
C1026 C 0.29725 0.69411 0.11794 0.0
C1027 C 0.30168 0.76864 0.14131 0.0
C1028 C 0.33857 0.7697 0.11832 0.0
C1029 C 0.36915 0.75692 0.12103 0.0
C1030 C 0.39136 0.78338 0.1119 0.0
C1031 C 0.38205 0.82428 0.09976 0.0
C1032 C 0.35089 0.83873 0.09705 0.0
C1033 C 0.32898 0.81123 0.10653 0.0
H1034 H 0.41525 0.76702 0.62908 0.0
H1035 H 0.32212 0.80009 0.6418 0.0
H1036 H 0.3039 0.72828 0.62047 0.0
H1037 H 0.40084 0.74962 0.58509 0.0
H1038 H 0.42852 0.69257 0.58344 0.0
H1039 H 0.43373 0.74683 0.59951 0.0
H1040 H 0.43733 0.66688 0.62221 0.0
H1041 H 0.43243 0.6124 0.60621 0.0
H1042 H 0.40708 0.61461 0.62315 0.0
H1043 H 0.29642 0.65294 0.59691 0.0
H1044 H 0.3009 0.57597 0.57547 0.0
H1045 H 0.39919 0.59362 0.57953 0.0
C1046 C 0.39098 0.75938 0.62742 0.0
C1047 C 0.37008 0.78935 0.63704 0.0
C1048 C 0.33854 0.77747 0.63457 0.0
C1049 C 0.328 0.73704 0.62244 0.0
C1050 C 0.34933 0.70878 0.61302 0.0
C1051 C 0.38019 0.71918 0.61555 0.0
C1052 C 0.39873 0.68237 0.60429 0.0
C1053 C 0.41649 0.72012 0.59238 0.0
C1054 C 0.42014 0.64165 0.61458 0.0
C1055 C 0.37357 0.64934 0.59497 0.0
C1056 C 0.34516 0.66531 0.59998 0.0
C1057 C 0.31859 0.64011 0.59294 0.0
C1058 C 0.32131 0.59674 0.58074 0.0
C1059 C 0.35038 0.57888 0.57592 0.0
C1060 C 0.37665 0.6062 0.58302 0.0
H1061 H 0.32982 0.27399 0.59696 0.0
H1062 H 0.42245 0.30581 0.58331 0.0
H1063 H 0.44111 0.23199 0.60387 0.0
H1064 H 0.34577 0.24989 0.64086 0.0
H1065 H 0.31777 0.1933 0.64189 0.0
H1066 H 0.31241 0.25042 0.62676 0.0
H1067 H 0.30737 0.17452 0.60286 0.0
H1068 H 0.31253 0.11721 0.61791 0.0
H1069 H 0.33722 0.12189 0.60072 0.0
H1070 H 0.449 0.15382 0.62656 0.0
H1071 H 0.4447 0.07321 0.64681 0.0
H1072 H 0.3465 0.09264 0.64371 0.0
C1073 C 0.35409 0.26591 0.59835 0.0
C1074 C 0.37474 0.29592 0.58866 0.0
C1075 C 0.40625 0.28323 0.59064 0.0
C1076 C 0.41704 0.24166 0.60234 0.0
C1077 C 0.39593 0.21303 0.61177 0.0
C1078 C 0.36508 0.22438 0.6097 0.0
C1079 C 0.34671 0.18607 0.62056 0.0
C1080 C 0.32967 0.22208 0.63327 0.0
C1081 C 0.32467 0.14764 0.60987 0.0
C1082 C 0.37195 0.15095 0.62906 0.0
C1083 C 0.40028 0.1674 0.62409 0.0
C1084 C 0.4269 0.14058 0.63049 0.0
C1085 C 0.4243 0.09514 0.642 0.0
C1086 C 0.39528 0.07674 0.64667 0.0
C1087 C 0.36897 0.10558 0.64024 0.0
loop_
_geom_bond_atom_site_label_1
_geom_bond_atom_site_label_2
_geom_bond_distance
_geom_bond_site_symmetry_2
_ccdc_geom_bond_type
C0 O1 1.306 . S
C0 O3 1.160 . S
O1 C0 1.306 . S
O1 Cd2 2.228 . S
Cd2 O1 2.228 . S
Cd2 O6 2.273 . S
Cd2 O10 2.277 . S
O3 C0 1.160 . S
O3 Cd4 2.203 . S
Cd4 O3 2.203 . S
Cd4 O6 2.411 . S
Cd4 O7 2.333 . S
Cd4 O8 2.352 . S
Cd4 O12 2.277 . S
Cd4 O13 2.356 . S
C5 O10 1.209 . S
C5 O12 1.226 . S
O6 Cd2 2.273 . S
O6 Cd4 2.411 . S
O6 C9 1.320 . S
O7 Cd4 2.333 . S
O7 C9 1.214 . S
O8 Cd4 2.352 . S
O8 C11 1.258 . S
C9 O6 1.320 . S
C9 O7 1.214 . S
O10 Cd2 2.277 . S
O10 C5 1.209 . S
C11 O8 1.258 . S
C11 O13 1.282 . S
O12 Cd4 2.277 . S
O12 C5 1.226 . S
O13 Cd4 2.356 . S
O13 C11 1.282 . S
C14 O15 1.306 . S
C14 O17 1.160 . S
O15 C14 1.306 . S
O15 Cd16 2.228 . S
Cd16 O15 2.228 . S
Cd16 O20 2.273 . S
Cd16 O24 2.277 . S
O17 C14 1.160 . S
O17 Cd18 2.203 . S
Cd18 O17 2.203 . S
Cd18 O20 2.411 . S
Cd18 O21 2.333 . S
Cd18 O22 2.352 . S
Cd18 O26 2.277 . S
Cd18 O27 2.356 . S
C19 O24 1.209 . S
C19 O26 1.226 . S
O20 Cd16 2.273 . S
O20 Cd18 2.411 . S
O20 C23 1.320 . S
O21 Cd18 2.333 . S
O21 C23 1.214 . S
O22 Cd18 2.352 . S
O22 C25 1.258 . S
C23 O20 1.320 . S
C23 O21 1.214 . S
O24 Cd16 2.277 . S
O24 C19 1.209 . S
C25 O22 1.258 . S
C25 O27 1.282 . S
O26 Cd18 2.277 . S
O26 C19 1.226 . S
O27 Cd18 2.356 . S
O27 C25 1.282 . S
C28 O29 1.306 . S
C28 O31 1.160 . S
O29 C28 1.306 . S
O29 Cd30 2.228 . S
Cd30 O29 2.228 . S
Cd30 O34 2.273 . S
Cd30 O38 2.277 . S
O31 C28 1.160 . S
O31 Cd32 2.203 . S
Cd32 O31 2.203 . S
Cd32 O34 2.411 . S
Cd32 O35 2.333 . S
Cd32 O36 2.352 . S
Cd32 O40 2.277 . S
Cd32 O41 2.356 . S
C33 O38 1.209 . S
C33 O40 1.226 . S
O34 Cd30 2.273 . S
O34 Cd32 2.411 . S
O34 C37 1.320 . S
O35 Cd32 2.333 . S
O35 C37 1.214 . S
O36 Cd32 2.352 . S
O36 C39 1.258 . S
C37 O34 1.320 . S
C37 O35 1.214 . S
O38 Cd30 2.277 . S
O38 C33 1.209 . S
C39 O36 1.258 . S
C39 O41 1.282 . S
O40 Cd32 2.277 . S
O40 C33 1.226 . S
O41 Cd32 2.356 . S
O41 C39 1.282 . S
C42 O43 1.306 . S
C42 O45 1.160 . S
O43 C42 1.306 . S
O43 Cd44 2.228 . S
Cd44 O43 2.228 . S
Cd44 O48 2.273 . S
Cd44 O52 2.277 . S
O45 C42 1.160 . S
O45 Cd46 2.203 . S
Cd46 O45 2.203 . S
Cd46 O48 2.411 . S
Cd46 O49 2.333 . S
Cd46 O50 2.352 . S
Cd46 O54 2.277 . S
Cd46 O55 2.356 . S
C47 O52 1.209 . S
C47 O54 1.226 . S
O48 Cd44 2.273 . S
O48 Cd46 2.411 . S
O48 C51 1.320 . S
O49 Cd46 2.333 . S
O49 C51 1.214 . S
O50 Cd46 2.352 . S
O50 C53 1.258 . S
C51 O48 1.320 . S
C51 O49 1.214 . S
O52 Cd44 2.277 . S
O52 C47 1.209 . S
C53 O50 1.258 . S
C53 O55 1.282 . S
O54 Cd46 2.277 . S
O54 C47 1.226 . S
O55 Cd46 2.356 . S
O55 C53 1.282 . S
C56 O57 1.306 . S
C56 O59 1.160 . S
O57 C56 1.306 . S
O57 Cd58 2.228 . S
Cd58 O57 2.228 . S
Cd58 O62 2.273 . S
Cd58 O66 2.277 . S
O59 C56 1.160 . S
O59 Cd60 2.203 . S
Cd60 O59 2.203 . S
Cd60 O62 2.411 . S
Cd60 O63 2.333 . S
Cd60 O64 2.352 . S
Cd60 O68 2.277 . S
Cd60 O69 2.356 . S
C61 O66 1.209 . S
C61 O68 1.226 . S
O62 Cd58 2.273 . S
O62 Cd60 2.411 . S
O62 C65 1.320 . S
O63 Cd60 2.333 . S
O63 C65 1.214 . S
O64 Cd60 2.352 . S
O64 C67 1.258 . S
C65 O62 1.320 . S
C65 O63 1.214 . S
O66 Cd58 2.277 . S
O66 C61 1.209 . S
C67 O64 1.258 . S
C67 O69 1.282 . S
O68 Cd60 2.277 . S
O68 C61 1.226 . S
O69 Cd60 2.356 . S
O69 C67 1.282 . S
C70 O71 1.306 . S
C70 O73 1.160 . S
O71 C70 1.306 . S
O71 Cd72 2.228 . S
Cd72 O71 2.228 . S
Cd72 O76 2.273 . S
Cd72 O80 2.277 . S
O73 C70 1.160 . S
O73 Cd74 2.203 . S
Cd74 O73 2.203 . S
Cd74 O76 2.411 . S
Cd74 O77 2.333 . S
Cd74 O78 2.352 . S
Cd74 O82 2.277 . S
Cd74 O83 2.356 . S
C75 O80 1.209 . S
C75 O82 1.226 . S
O76 Cd72 2.273 . S
O76 Cd74 2.411 . S
O76 C79 1.320 . S
O77 Cd74 2.333 . S
O77 C79 1.214 . S
O78 Cd74 2.352 . S
O78 C81 1.258 . S
C79 O76 1.320 . S
C79 O77 1.214 . S
O80 Cd72 2.277 . S
O80 C75 1.209 . S
C81 O78 1.258 . S
C81 O83 1.282 . S
O82 Cd74 2.277 . S
O82 C75 1.226 . S
O83 Cd74 2.356 . S
O83 C81 1.282 . S
C84 O85 1.306 . S
C84 O87 1.160 . S
O85 C84 1.306 . S
O85 Cd86 2.228 . S
Cd86 O85 2.228 . S
Cd86 O90 2.273 . S
Cd86 O94 2.277 . S
O87 C84 1.160 . S
O87 Cd88 2.203 . S
Cd88 O87 2.203 . S
Cd88 O90 2.411 . S
Cd88 O91 2.333 . S
Cd88 O92 2.352 . S
Cd88 O96 2.277 . S
Cd88 O97 2.356 . S
C89 O94 1.209 . S
C89 O96 1.226 . S
O90 Cd86 2.273 . S
O90 Cd88 2.411 . S
O90 C93 1.320 . S
O91 Cd88 2.333 . S
O91 C93 1.214 . S
O92 Cd88 2.352 . S
O92 C95 1.258 . S
C93 O90 1.320 . S
C93 O91 1.214 . S
O94 Cd86 2.277 . S
O94 C89 1.209 . S
C95 O92 1.258 . S
C95 O97 1.282 . S
O96 Cd88 2.277 . S
O96 C89 1.226 . S
O97 Cd88 2.356 . S
O97 C95 1.282 . S
C98 O99 1.306 . S
C98 O101 1.160 . S
O99 C98 1.306 . S
O99 Cd100 2.228 . S
Cd100 O99 2.228 . S
Cd100 O104 2.273 . S
Cd100 O108 2.277 . S
O101 C98 1.160 . S
O101 Cd102 2.203 . S
Cd102 O101 2.203 . S
Cd102 O104 2.411 . S
Cd102 O105 2.333 . S
Cd102 O106 2.352 . S
Cd102 O110 2.277 . S
Cd102 O111 2.356 . S
C103 O108 1.209 . S
C103 O110 1.226 . S
O104 Cd100 2.273 . S
O104 Cd102 2.411 . S
O104 C107 1.320 . S
O105 Cd102 2.333 . S
O105 C107 1.214 . S
O106 Cd102 2.352 . S
O106 C109 1.258 . S
C107 O104 1.320 . S
C107 O105 1.214 . S
O108 Cd100 2.277 . S
O108 C103 1.209 . S
C109 O106 1.258 . S
C109 O111 1.282 . S
O110 Cd102 2.277 . S
O110 C103 1.226 . S
O111 Cd102 2.356 . S
O111 C109 1.282 . S
C112 O113 1.306 . S
C112 O115 1.160 . S
O113 C112 1.306 . S
O113 Cd114 2.228 . S
Cd114 O113 2.228 . S
Cd114 O118 2.273 . S
Cd114 O122 2.277 . S
O115 C112 1.160 . S
O115 Cd116 2.203 . S
Cd116 O115 2.203 . S
Cd116 O118 2.411 . S
Cd116 O119 2.333 . S
Cd116 O120 2.352 . S
Cd116 O124 2.277 . S
Cd116 O125 2.356 . S
C117 O122 1.209 . S
C117 O124 1.226 . S
O118 Cd114 2.273 . S
O118 Cd116 2.411 . S
O118 C121 1.320 . S
O119 Cd116 2.333 . S
O119 C121 1.214 . S
O120 Cd116 2.352 . S
O120 C123 1.258 . S
C121 O118 1.320 . S
C121 O119 1.214 . S
O122 Cd114 2.277 . S
O122 C117 1.209 . S
C123 O120 1.258 . S
C123 O125 1.282 . S
O124 Cd116 2.277 . S
O124 C117 1.226 . S
O125 Cd116 2.356 . S
O125 C123 1.282 . S
C126 O127 1.306 . S
C126 O129 1.160 . S
O127 C126 1.306 . S
O127 Cd128 2.228 . S
Cd128 O127 2.228 . S
Cd128 O132 2.273 . S
Cd128 O136 2.277 . S
O129 C126 1.160 . S
O129 Cd130 2.203 . S
Cd130 O129 2.203 . S
Cd130 O132 2.411 . S
Cd130 O133 2.333 . S
Cd130 O134 2.352 . S
Cd130 O138 2.277 . S
Cd130 O139 2.356 . S
C131 O136 1.209 . S
C131 O138 1.226 . S
O132 Cd128 2.273 . S
O132 Cd130 2.411 . S
O132 C135 1.320 . S
O133 Cd130 2.333 . S
O133 C135 1.214 . S
O134 Cd130 2.352 . S
O134 C137 1.258 . S
C135 O132 1.320 . S
C135 O133 1.214 . S
O136 Cd128 2.277 . S
O136 C131 1.209 . S
C137 O134 1.258 . S
C137 O139 1.282 . S
O138 Cd130 2.277 . S
O138 C131 1.226 . S
O139 Cd130 2.356 . S
O139 C137 1.282 . S
C140 O141 1.306 . S
C140 O143 1.160 . S
O141 C140 1.306 . S
O141 Cd142 2.228 . S
Cd142 O141 2.228 . S
Cd142 O146 2.273 . S
Cd142 O150 2.277 . S
O143 C140 1.160 . S
O143 Cd144 2.203 . S
Cd144 O143 2.203 . S
Cd144 O146 2.411 . S
Cd144 O147 2.333 . S
Cd144 O148 2.352 . S
Cd144 O152 2.277 . S
Cd144 O153 2.356 . S
C145 O150 1.209 . S
C145 O152 1.226 . S
O146 Cd142 2.273 . S
O146 Cd144 2.411 . S
O146 C149 1.320 . S
O147 Cd144 2.333 . S
O147 C149 1.214 . S
O148 Cd144 2.352 . S
O148 C151 1.258 . S
C149 O146 1.320 . S
C149 O147 1.214 . S
O150 Cd142 2.277 . S
O150 C145 1.209 . S
C151 O148 1.258 . S
C151 O153 1.282 . S
O152 Cd144 2.277 . S
O152 C145 1.226 . S
O153 Cd144 2.356 . S
O153 C151 1.282 . S
C154 O155 1.306 . S
C154 O157 1.160 . S
O155 C154 1.306 . S
O155 Cd156 2.228 . S
Cd156 O155 2.228 . S
Cd156 O160 2.273 . S
Cd156 O164 2.277 . S
O157 C154 1.160 . S
O157 Cd158 2.203 . S
Cd158 O157 2.203 . S
Cd158 O160 2.411 . S
Cd158 O161 2.333 . S
Cd158 O162 2.352 . S
Cd158 O166 2.277 . S
Cd158 O167 2.356 . S
C159 O164 1.209 . S
C159 O166 1.226 . S
O160 Cd156 2.273 . S
O160 Cd158 2.411 . S
O160 C163 1.320 . S
O161 Cd158 2.333 . S
O161 C163 1.214 . S
O162 Cd158 2.352 . S
O162 C165 1.258 . S
C163 O160 1.320 . S
C163 O161 1.214 . S
O164 Cd156 2.277 . S
O164 C159 1.209 . S
C165 O162 1.258 . S
C165 O167 1.282 . S
O166 Cd158 2.277 . S
O166 C159 1.226 . S
O167 Cd158 2.356 . S
O167 C165 1.282 . S
C168 O169 1.306 . S
C168 O171 1.160 . S
O169 C168 1.306 . S
O169 Cd170 2.228 . S
Cd170 O169 2.228 . S
Cd170 O174 2.273 . S
Cd170 O178 2.277 . S
O171 C168 1.160 . S
O171 Cd172 2.203 . S
Cd172 O171 2.203 . S
Cd172 O174 2.411 . S
Cd172 O175 2.333 . S
Cd172 O176 2.352 . S
Cd172 O180 2.277 . S
Cd172 O181 2.356 . S
C173 O178 1.209 . S
C173 O180 1.226 . S
O174 Cd170 2.273 . S
O174 Cd172 2.411 . S
O174 C177 1.320 . S
O175 Cd172 2.333 . S
O175 C177 1.214 . S
O176 Cd172 2.352 . S
O176 C179 1.258 . S
C177 O174 1.320 . S
C177 O175 1.214 . S
O178 Cd170 2.277 . S
O178 C173 1.209 . S
C179 O176 1.258 . S
C179 O181 1.282 . S
O180 Cd172 2.277 . S
O180 C173 1.226 . S
O181 Cd172 2.356 . S
O181 C179 1.282 . S
C182 O183 1.306 . S
C182 O185 1.160 . S
O183 C182 1.306 . S
O183 Cd184 2.228 . S
Cd184 O183 2.228 . S
Cd184 O188 2.273 . S
Cd184 O192 2.277 . S
O185 C182 1.160 . S
O185 Cd186 2.203 . S
Cd186 O185 2.203 . S
Cd186 O188 2.411 . S
Cd186 O189 2.333 . S
Cd186 O190 2.352 . S
Cd186 O194 2.277 . S
Cd186 O195 2.356 . S
C187 O192 1.209 . S
C187 O194 1.226 . S
O188 Cd184 2.273 . S
O188 Cd186 2.411 . S
O188 C191 1.320 . S
O189 Cd186 2.333 . S
O189 C191 1.214 . S
O190 Cd186 2.352 . S
O190 C193 1.258 . S
C191 O188 1.320 . S
C191 O189 1.214 . S
O192 Cd184 2.277 . S
O192 C187 1.209 . S
C193 O190 1.258 . S
C193 O195 1.282 . S
O194 Cd186 2.277 . S
O194 C187 1.226 . S
O195 Cd186 2.356 . S
O195 C193 1.282 . S
C196 O197 1.306 . S
C196 O199 1.160 . S
O197 C196 1.306 . S
O197 Cd198 2.228 . S
Cd198 O197 2.228 . S
Cd198 O202 2.273 . S
Cd198 O206 2.277 . S
O199 C196 1.160 . S
O199 Cd200 2.203 . S
Cd200 O199 2.203 . S
Cd200 O202 2.411 . S
Cd200 O203 2.333 . S
Cd200 O204 2.352 . S
Cd200 O208 2.277 . S
Cd200 O209 2.356 . S
C201 O206 1.209 . S
C201 O208 1.226 . S
O202 Cd198 2.273 . S
O202 Cd200 2.411 . S
O202 C205 1.320 . S
O203 Cd200 2.333 . S
O203 C205 1.214 . S
O204 Cd200 2.352 . S
O204 C207 1.258 . S
C205 O202 1.320 . S
C205 O203 1.214 . S
O206 Cd198 2.277 . S
O206 C201 1.209 . S
C207 O204 1.258 . S
C207 O209 1.282 . S
O208 Cd200 2.277 . S
O208 C201 1.226 . S
O209 Cd200 2.356 . S
O209 C207 1.282 . S
C210 O211 1.306 . S
C210 O213 1.160 . S
O211 C210 1.306 . S
O211 Cd212 2.228 . S
Cd212 O211 2.228 . S
Cd212 O216 2.273 . S
Cd212 O220 2.277 . S
O213 C210 1.160 . S
O213 Cd214 2.203 . S
Cd214 O213 2.203 . S
Cd214 O216 2.411 . S
Cd214 O217 2.333 . S
Cd214 O218 2.352 . S
Cd214 O222 2.277 . S
Cd214 O223 2.356 . S
C215 O220 1.209 . S
C215 O222 1.226 . S
O216 Cd212 2.273 . S
O216 Cd214 2.411 . S
O216 C219 1.320 . S
O217 Cd214 2.333 . S
O217 C219 1.214 . S
O218 Cd214 2.352 . S
O218 C221 1.258 . S
C219 O216 1.320 . S
C219 O217 1.214 . S
O220 Cd212 2.277 . S
O220 C215 1.209 . S
C221 O218 1.258 . S
C221 O223 1.282 . S
O222 Cd214 2.277 . S
O222 C215 1.226 . S
O223 Cd214 2.356 . S
O223 C221 1.282 . S
H224 C236 0.930 . S
H225 C238 0.930 . S
H226 C239 0.930 . S
H227 C243 0.959 . S
H228 C243 0.959 . S
H229 C243 0.961 . S
H230 C244 0.960 . S
H231 C244 0.961 . S
H232 C244 0.959 . S
H233 C247 0.929 . S
H234 C248 0.931 . S
H235 C250 0.930 . S
C236 H224 0.930 . S
C236 C237 1.399 . S
C236 C241 1.399 . S
C237 C236 1.399 . S
C237 C238 1.376 . S
C238 H225 0.930 . S
C238 C237 1.376 . S
C238 C239 1.388 . S
C239 H226 0.930 . S
C239 C238 1.388 . S
C239 C240 1.390 . S
C240 C239 1.390 . S
C240 C241 1.394 . S
C240 C246 1.465 . S
C241 C236 1.399 . S
C241 C240 1.394 . S
C241 C242 1.516 . S
C242 C241 1.516 . S
C242 C243 1.502 . S
C242 C244 1.561 . S
C242 C245 1.526 . S
C243 H227 0.959 . S
C243 H228 0.959 . S
C243 H229 0.961 . S
C243 C242 1.502 . S
C244 H230 0.960 . S
C244 H231 0.961 . S
C244 H232 0.959 . S
C244 C242 1.561 . S
C245 C242 1.526 . S
C245 C246 1.396 . S
C245 C250 1.390 . S
C246 C240 1.465 . S
C246 C245 1.396 . S
C246 C247 1.399 . S
C247 H233 0.929 . S
C247 C246 1.399 . S
C247 C248 1.385 . S
C248 H234 0.931 . S
C248 C247 1.385 . S
C248 C249 1.389 . S
C249 C248 1.389 . S
C249 C250 1.387 . S
C250 H235 0.930 . S
C250 C245 1.390 . S
C250 C249 1.387 . S
H251 C263 0.930 . S
H252 C265 0.930 . S
H253 C266 0.930 . S
H254 C270 0.959 . S
H255 C270 0.959 . S
H256 C270 0.961 . S
H257 C271 0.960 . S
H258 C271 0.961 . S
H259 C271 0.959 . S
H260 C274 0.929 1_665 S
H261 C275 0.931 . S
H262 C277 0.930 . S
C263 H251 0.930 . S
C263 C264 1.399 . S
C263 C268 1.399 . S
C264 C263 1.399 . S
C264 C265 1.376 . S
C265 H252 0.930 . S
C265 C264 1.376 . S
C265 C266 1.388 . S
C266 H253 0.930 . S
C266 C265 1.388 . S
C266 C267 1.390 . S
C267 C266 1.390 . S
C267 C268 1.394 . S
C267 C273 1.466 1_655 S
C268 C263 1.399 . S
C268 C267 1.394 . S
C268 C269 1.516 1_665 S
C269 C268 1.516 1_445 S
C269 C270 1.502 . S
C269 C271 1.561 1_545 S
C269 C272 1.526 . S
C270 H254 0.959 . S
C270 H255 0.959 . S
C270 H256 0.961 . S
C270 C269 1.502 . S
C271 H257 0.960 . S
C271 H258 0.961 . S
C271 H259 0.959 . S
C271 C269 1.561 1_565 S
C272 C269 1.526 . S
C272 C273 1.395 1_545 S
C272 C277 1.390 . S
C273 C267 1.466 1_455 S
C273 C272 1.395 1_565 S
C273 C274 1.399 1_565 S
C274 H260 0.929 1_445 S
C274 C273 1.399 1_545 S
C274 C275 1.385 . S
C275 H261 0.931 . S
C275 C274 1.385 . S
C275 C276 1.389 . S
C276 C275 1.389 . S
C276 C277 1.387 . S
C277 H262 0.930 . S
C277 C272 1.390 . S
C277 C276 1.387 . S
H278 C290 0.930 . S
H279 C292 0.930 . S
H280 C293 0.930 . S
H281 C297 0.959 . S
H282 C297 0.959 . S
H283 C297 0.961 . S
H284 C298 0.960 . S
H285 C298 0.961 . S
H286 C298 0.959 . S
H287 C301 0.929 . S
H288 C302 0.931 . S
H289 C304 0.930 1_565 S
C290 H278 0.930 . S
C290 C291 1.399 . S
C290 C295 1.399 . S
C291 C290 1.399 . S
C291 C292 1.376 1_565 S
C292 H279 0.930 . S
C292 C291 1.376 1_545 S
C292 C293 1.388 . S
C293 H280 0.930 . S
C293 C292 1.388 . S
C293 C294 1.390 . S
C294 C293 1.390 . S
C294 C295 1.394 1_545 S
C294 C300 1.465 . S
C295 C290 1.399 . S
C295 C294 1.394 1_565 S
C295 C296 1.516 . S
C296 C295 1.516 . S
C296 C297 1.502 . S
C296 C298 1.561 . S
C296 C299 1.536 . S
C297 H281 0.959 . S
C297 H282 0.959 . S
C297 H283 0.961 . S
C297 C296 1.502 . S
C298 H284 0.960 . S
C298 H285 0.961 . S
C298 H286 0.959 . S
C298 C296 1.561 . S
C299 C296 1.536 . S
C299 C300 1.388 1_565 S
C299 C304 1.387 1_565 S
C300 C294 1.465 . S
C300 C299 1.388 1_545 S
C300 C301 1.399 . S
C301 H287 0.929 . S
C301 C300 1.399 . S
C301 C302 1.385 . S
C302 H288 0.931 . S
C302 C301 1.385 . S
C302 C303 1.389 . S
C303 C302 1.389 . S
C303 C304 1.387 . S
C304 H289 0.930 1_545 S
C304 C299 1.387 1_545 S
C304 C303 1.387 . S
H305 C317 0.930 . S
H306 C319 0.930 . S
H307 C320 0.930 . S
H308 C324 0.959 . S
H309 C324 0.959 . S
H310 C324 0.961 . S
H311 C325 0.980 . S
H312 C325 0.961 . S
H313 C325 0.959 . S
H314 C328 0.929 . S
H315 C329 0.931 . S
H316 C331 0.930 . S
C317 H305 0.930 . S
C317 C318 1.399 . S
C317 C322 1.399 . S
C318 C317 1.399 . S
C318 C319 1.376 . S
C319 H306 0.930 . S
C319 C318 1.376 . S
C319 C320 1.388 . S
C320 H307 0.930 . S
C320 C319 1.388 . S
C320 C321 1.390 . S
C321 C320 1.390 . S
C321 C322 1.394 . S
C321 C327 1.465 1_455 S
C322 C317 1.399 . S
C322 C321 1.394 . S
C322 C323 1.516 . S
C323 C322 1.516 . S
C323 C324 1.502 . S
C323 C325 1.561 1_455 S
C323 C326 1.526 1_455 S
C324 H308 0.959 . S
C324 H309 0.959 . S
C324 H310 0.961 . S
C324 C323 1.502 . S
C325 H311 0.980 . S
C325 H312 0.961 . S
C325 H313 0.959 . S
C325 C323 1.561 1_655 S
C326 C323 1.526 1_655 S
C326 C327 1.396 . S
C326 C331 1.390 . S
C327 C321 1.465 1_655 S
C327 C326 1.396 . S
C327 C328 1.399 . S
C328 H314 0.929 . S
C328 C327 1.399 . S
C328 C329 1.385 . S
C329 H315 0.931 . S
C329 C328 1.385 . S
C329 C330 1.389 . S
C330 C329 1.389 . S
C330 C331 1.387 . S
C331 H316 0.930 . S
C331 C326 1.390 . S
C331 C330 1.387 . S
H332 C344 0.930 . S
H333 C346 0.930 . S
H334 C347 0.930 . S
H335 C351 0.959 . S
H336 C351 0.959 . S
H337 C351 0.961 . S
H338 C352 0.960 . S
H339 C352 0.961 . S
H340 C352 0.959 . S
H341 C355 0.929 . S
H342 C356 0.931 . S
H343 C358 0.930 . S
C344 H332 0.930 . S
C344 C345 1.399 . S
C344 C349 1.399 . S
C345 C344 1.399 . S
C345 C346 1.376 . S
C346 H333 0.930 . S
C346 C345 1.376 . S
C346 C347 1.388 . S
C347 H334 0.930 . S
C347 C346 1.388 . S
C347 C348 1.390 . S
C348 C347 1.390 . S
C348 C349 1.394 . S
C348 C354 1.465 . S
C349 C344 1.399 . S
C349 C348 1.394 . S
C349 C350 1.516 . S
C350 C349 1.516 . S
C350 C351 1.502 . S
C350 C352 1.561 . S
C350 C353 1.526 . S
C351 H335 0.959 . S
C351 H336 0.959 . S
C351 H337 0.961 . S
C351 C350 1.502 . S
C352 H338 0.960 . S
C352 H339 0.961 . S
C352 H340 0.959 . S
C352 C350 1.561 . S
C353 C350 1.526 . S
C353 C354 1.396 . S
C353 C358 1.390 . S
C354 C348 1.465 . S
C354 C353 1.396 . S
C354 C355 1.399 . S
C355 H341 0.929 . S
C355 C354 1.399 . S
C355 C356 1.385 . S
C356 H342 0.931 . S
C356 C355 1.385 . S
C356 C357 1.389 . S
C357 C356 1.389 . S
C357 C358 1.387 . S
C358 H343 0.930 . S
C358 C353 1.390 . S
C358 C357 1.387 . S
H359 C371 0.930 . S
H360 C373 0.930 1_565 S
H361 C374 0.930 . S
H362 C378 0.959 . S
H363 C378 0.959 . S
H364 C378 0.961 . S
H365 C379 0.960 . S
H366 C379 0.961 . S
H367 C379 0.959 1_565 S
H368 C382 0.929 . S
H369 C383 0.931 . S
H370 C385 0.930 1_545 S
C371 H359 0.930 . S
C371 C372 1.399 . S
C371 C376 1.399 . S
C372 C371 1.399 . S
C372 C373 1.376 . S
C373 H360 0.930 1_545 S
C373 C372 1.376 . S
C373 C374 1.388 1_545 S
C374 H361 0.930 . S
C374 C373 1.388 1_565 S
C374 C375 1.390 . S
C375 C374 1.390 . S
C375 C376 1.394 1_565 S
C375 C381 1.465 . S
C376 C371 1.399 . S
C376 C375 1.394 1_545 S
C376 C377 1.516 . S
C377 C376 1.516 . S
C377 C378 1.502 . S
C377 C379 1.561 . S
C377 C380 1.526 1_545 S
C378 H362 0.959 . S
C378 H363 0.959 . S
C378 H364 0.961 . S
C378 C377 1.502 . S
C379 H365 0.960 . S
C379 H366 0.961 . S
C379 H367 0.959 1_545 S
C379 C377 1.561 . S
C380 C377 1.526 1_565 S
C380 C381 1.396 . S
C380 C385 1.390 . S
C381 C375 1.465 . S
C381 C380 1.396 . S
C381 C382 1.399 . S
C382 H368 0.929 . S
C382 C381 1.399 . S
C382 C383 1.385 . S
C383 H369 0.931 . S
C383 C382 1.385 . S
C383 C384 1.389 . S
C384 C383 1.389 . S
C384 C385 1.387 . S
C385 H370 0.930 1_565 S
C385 C380 1.390 . S
C385 C384 1.387 . S
H386 C398 0.930 . S
H387 C400 0.930 . S
H388 C401 0.930 . S
H389 C405 0.959 . S
H390 C405 0.959 . S
H391 C405 0.961 . S
H392 C406 0.960 1_655 S
H393 C406 0.961 . S
H394 C406 0.959 1_655 S
H395 C409 0.929 1_655 S
H396 C410 0.931 . S
H397 C412 0.930 . S
C398 H386 0.930 . S
C398 C399 1.399 . S
C398 C403 1.399 . S
C399 C398 1.399 . S
C399 C400 1.376 . S
C400 H387 0.930 . S
C400 C399 1.376 . S
C400 C401 1.388 . S
C401 H388 0.930 . S
C401 C400 1.388 . S
C401 C402 1.390 . S
C402 C401 1.390 . S
C402 C403 1.394 . S
C402 C408 1.465 1_655 S
C403 C398 1.399 . S
C403 C402 1.394 . S
C403 C404 1.516 1_655 S
C404 C403 1.516 1_455 S
C404 C405 1.502 . S
C404 C406 1.561 . S
C404 C407 1.526 . S
C405 H389 0.959 . S
C405 H390 0.959 . S
C405 H391 0.961 . S
C405 C404 1.502 . S
C406 H392 0.960 1_455 S
C406 H393 0.961 . S
C406 H394 0.959 1_455 S
C406 C404 1.561 . S
C407 C404 1.526 . S
C407 C408 1.396 . S
C407 C412 1.390 . S
C408 C402 1.465 1_455 S
C408 C407 1.396 . S
C408 C409 1.399 . S
C409 H395 0.929 1_455 S
C409 C408 1.399 . S
C409 C410 1.385 . S
C410 H396 0.931 . S
C410 C409 1.385 . S
C410 C411 1.389 . S
C411 C410 1.389 . S
C411 C412 1.387 . S
C412 H397 0.930 . S
C412 C407 1.390 . S
C412 C411 1.387 . S
H413 C425 0.930 . S
H414 C427 0.930 . S
H415 C428 0.930 . S
H416 C432 0.959 . S
H417 C432 0.959 . S
H418 C432 0.961 . S
H419 C433 0.960 . S
H420 C433 0.961 . S
H421 C433 0.959 . S
H422 C436 0.929 . S
H423 C437 0.931 . S
H424 C439 0.930 . S
C425 H413 0.930 . S
C425 C426 1.399 . S
C425 C430 1.399 . S
C426 C425 1.399 . S
C426 C427 1.376 . S
C427 H414 0.930 . S
C427 C426 1.376 . S
C427 C428 1.388 . S
C428 H415 0.930 . S
C428 C427 1.388 . S
C428 C429 1.390 . S
C429 C428 1.390 . S
C429 C430 1.394 . S
C429 C435 1.465 1_554 S
C430 C425 1.399 . S
C430 C429 1.394 . S
C430 C431 1.501 1_554 S
C431 C430 1.501 1_556 S
C431 C432 1.522 . S
C431 C433 1.542 1_556 S
C431 C434 1.538 . S
C432 H416 0.959 . S
C432 H417 0.959 . S
C432 H418 0.961 . S
C432 C431 1.522 . S
C433 H419 0.960 . S
C433 H420 0.961 . S
C433 H421 0.959 . S
C433 C431 1.542 1_554 S
C434 C431 1.538 . S
C434 C435 1.396 . S
C434 C439 1.390 . S
C435 C429 1.465 1_556 S
C435 C434 1.396 . S
C435 C436 1.399 . S
C436 H422 0.929 . S
C436 C435 1.399 . S
C436 C437 1.385 . S
C437 H423 0.931 . S
C437 C436 1.385 . S
C437 C438 1.389 . S
C438 C437 1.389 . S
C438 C439 1.387 . S
C439 H424 0.930 . S
C439 C434 1.390 . S
C439 C438 1.387 . S
H440 C452 0.930 . S
H441 C454 0.930 . S
H442 C455 0.930 1_655 S
H443 C459 0.959 . S
H444 C459 0.959 . S
H445 C459 0.961 . S
H446 C460 0.960 1_455 S
H447 C460 0.961 . S
H448 C460 0.959 . S
H449 C463 0.929 . S
H450 C464 0.931 . S
H451 C466 0.930 . S
C452 H440 0.930 . S
C452 C453 1.399 . S
C452 C457 1.399 . S
C453 C452 1.399 . S
C453 C454 1.376 . S
C454 H441 0.930 . S
C454 C453 1.376 . S
C454 C455 1.388 . S
C455 H442 0.930 1_455 S
C455 C454 1.388 . S
C455 C456 1.390 . S
C456 C455 1.390 . S
C456 C457 1.394 . S
C456 C462 1.465 1_455 S
C457 C452 1.399 . S
C457 C456 1.394 . S
C457 C458 1.516 1_556 S
C458 C457 1.516 1_554 S
C458 C459 1.502 . S
C458 C460 1.561 1_455 S
C458 C461 1.526 1_455 S
C459 H443 0.959 . S
C459 H444 0.959 . S
C459 H445 0.961 . S
C459 C458 1.502 . S
C460 H446 0.960 1_655 S
C460 H447 0.961 . S
C460 H448 0.959 . S
C460 C458 1.561 1_655 S
C461 C458 1.526 1_655 S
C461 C462 1.396 1_554 S
C461 C466 1.390 . S
C462 C456 1.465 1_655 S
C462 C461 1.396 1_556 S
C462 C463 1.399 . S
C463 H449 0.929 . S
C463 C462 1.399 . S
C463 C464 1.385 1_556 S
C464 H450 0.931 . S
C464 C463 1.385 1_554 S
C464 C465 1.389 . S
C465 C464 1.389 . S
C465 C466 1.387 . S
C466 H451 0.930 . S
C466 C461 1.390 . S
C466 C465 1.387 . S
H467 C479 0.930 . S
H468 C481 0.930 . S
H469 C482 0.930 . S
H470 C486 0.959 . S
H471 C486 0.959 . S
H472 C486 0.961 . S
H473 C487 0.960 . S
H474 C487 0.961 . S
H475 C487 0.959 . S
H476 C490 0.929 . S
H477 C491 0.931 . S
H478 C493 0.930 . S
C479 H467 0.930 . S
C479 C480 1.399 . S
C479 C484 1.399 . S
C480 C479 1.399 . S
C480 C481 1.376 . S
C481 H468 0.930 . S
C481 C480 1.376 . S
C481 C482 1.388 . S
C482 H469 0.930 . S
C482 C481 1.388 . S
C482 C483 1.390 . S
C483 C482 1.390 . S
C483 C484 1.394 . S
C483 C489 1.465 . S
C484 C479 1.399 . S
C484 C483 1.394 . S
C484 C485 1.516 . S
C485 C484 1.516 . S
C485 C486 1.502 . S
C485 C487 1.561 . S
C485 C488 1.526 . S
C486 H470 0.959 . S
C486 H471 0.959 . S
C486 H472 0.961 . S
C486 C485 1.502 . S
C487 H473 0.960 . S
C487 H474 0.961 . S
C487 H475 0.959 . S
C487 C485 1.561 . S
C488 C485 1.526 . S
C488 C489 1.396 . S
C488 C493 1.390 . S
C489 C483 1.465 . S
C489 C488 1.396 . S
C489 C490 1.399 . S
C490 H476 0.929 . S
C490 C489 1.399 . S
C490 C491 1.385 . S
C491 H477 0.931 . S
C491 C490 1.385 . S
C491 C492 1.389 . S
C492 C491 1.389 . S
C492 C493 1.387 . S
C493 H478 0.930 . S
C493 C488 1.390 . S
C493 C492 1.387 . S
H494 C506 0.930 . S
H495 C508 0.930 . S
H496 C509 0.930 . S
H497 C513 0.959 . S
H498 C513 0.959 . S
H499 C513 0.961 . S
H500 C514 0.960 . S
H501 C514 0.961 . S
H502 C514 0.959 . S
H503 C517 0.929 . S
H504 C518 0.931 . S
H505 C520 0.930 . S
C506 H494 0.930 . S
C506 C507 1.399 . S
C506 C511 1.399 . S
C507 C506 1.399 . S
C507 C508 1.376 . S
C508 H495 0.930 . S
C508 C507 1.376 . S
C508 C509 1.388 . S
C509 H496 0.930 . S
C509 C508 1.388 . S
C509 C510 1.390 . S
C510 C509 1.390 . S
C510 C511 1.394 . S
C510 C516 1.503 . S
C511 C506 1.399 . S
C511 C510 1.394 . S
C511 C512 1.516 1_556 S
C512 C511 1.516 1_554 S
C512 C513 1.502 . S
C512 C514 1.561 . S
C512 C515 1.526 . S
C513 H497 0.959 . S
C513 H498 0.959 . S
C513 H499 0.961 . S
C513 C512 1.502 . S
C514 H500 0.960 . S
C514 H501 0.961 . S
C514 H502 0.959 . S
C514 C512 1.561 . S
C515 C512 1.526 . S
C515 C516 1.341 1_554 S
C515 C520 1.390 . S
C516 C510 1.503 . S
C516 C515 1.341 1_556 S
C516 C517 1.410 . S
C517 H503 0.929 . S
C517 C516 1.410 . S
C517 C518 1.385 1_556 S
C518 H504 0.931 . S
C518 C517 1.385 1_554 S
C518 C519 1.389 . S
C519 C518 1.389 . S
C519 C520 1.387 . S
C520 H505 0.930 . S
C520 C515 1.390 . S
C520 C519 1.387 . S
H521 C533 0.930 . S
H522 C535 0.930 . S
H523 C536 0.930 . S
H524 C540 0.959 . S
H525 C540 0.959 . S
H526 C540 0.961 . S
H527 C541 0.960 . S
H528 C541 0.961 . S
H529 C541 0.959 . S
H530 C544 0.929 . S
H531 C545 0.931 . S
H532 C547 0.930 . S
C533 H521 0.930 . S
C533 C534 1.399 . S
C533 C538 1.399 . S
C534 C533 1.399 . S
C534 C535 1.376 . S
C535 H522 0.930 . S
C535 C534 1.376 . S
C535 C536 1.388 . S
C536 H523 0.930 . S
C536 C535 1.388 . S
C536 C537 1.390 . S
C537 C536 1.390 . S
C537 C538 1.394 . S
C537 C543 1.465 . S
C538 C533 1.399 . S
C538 C537 1.394 . S
C538 C539 1.516 . S
C539 C538 1.516 . S
C539 C540 1.502 . S
C539 C541 1.561 . S
C539 C542 1.526 . S
C540 H524 0.959 . S
C540 H525 0.959 . S
C540 H526 0.961 . S
C540 C539 1.502 . S
C541 H527 0.960 . S
C541 H528 0.961 . S
C541 H529 0.959 . S
C541 C539 1.561 . S
C542 C539 1.526 . S
C542 C543 1.396 . S
C542 C547 1.390 . S
C543 C537 1.465 . S
C543 C542 1.396 . S
C543 C544 1.399 . S
C544 H530 0.929 . S
C544 C543 1.399 . S
C544 C545 1.385 . S
C545 H531 0.931 . S
C545 C544 1.385 . S
C545 C546 1.389 . S
C546 C545 1.389 . S
C546 C547 1.387 . S
C547 H532 0.930 . S
C547 C542 1.390 . S
C547 C546 1.387 . S
H548 C560 0.930 . S
H549 C562 0.930 . S
H550 C563 0.930 1_565 S
H551 C567 0.959 . S
H552 C567 0.959 . S
H553 C567 0.961 . S
H554 C568 0.960 . S
H555 C568 0.961 . S
H556 C568 0.959 . S
H557 C571 0.929 . S
H558 C572 0.931 . S
H559 C574 0.930 . S
C560 H548 0.930 . S
C560 C561 1.399 . S
C560 C565 1.399 . S
C561 C560 1.399 . S
C561 C562 1.376 . S
C562 H549 0.930 . S
C562 C561 1.376 . S
C562 C563 1.388 1_556 S
C563 H550 0.930 1_545 S
C563 C562 1.388 1_554 S
C563 C564 1.388 1_544 S
C564 C563 1.388 1_566 S
C564 C565 1.429 1_565 S
C564 C570 1.437 1_556 S
C565 C560 1.399 . S
C565 C564 1.429 1_545 S
C565 C566 1.516 . S
C566 C565 1.516 . S
C566 C567 1.502 . S
C566 C568 1.561 1_545 S
C566 C569 1.526 1_546 S
C567 H551 0.959 . S
C567 H552 0.959 . S
C567 H553 0.961 . S
C567 C566 1.502 . S
C568 H554 0.960 . S
C568 H555 0.961 . S
C568 H556 0.959 . S
C568 C566 1.561 1_565 S
C569 C566 1.526 1_564 S
C569 C570 1.396 . S
C569 C574 1.390 . S
C570 C564 1.437 1_554 S
C570 C569 1.396 . S
C570 C571 1.399 . S
C571 H557 0.929 . S
C571 C570 1.399 . S
C571 C572 1.385 . S
C572 H558 0.931 . S
C572 C571 1.385 . S
C572 C573 1.389 . S
C573 C572 1.389 . S
C573 C574 1.387 . S
C574 H559 0.930 . S
C574 C569 1.390 . S
C574 C573 1.387 . S
H575 C587 0.930 . S
H576 C589 0.930 . S
H577 C590 0.930 . S
H578 C594 0.959 . S
H579 C594 0.959 . S
H580 C594 0.961 . S
H581 C595 0.960 . S
H582 C595 0.961 . S
H583 C595 0.959 . S
H584 C598 0.929 . S
H585 C599 0.931 . S
H586 C601 0.930 . S
C587 H575 0.930 . S
C587 C588 1.399 . S
C587 C592 1.399 . S
C588 C587 1.399 . S
C588 C589 1.376 . S
C589 H576 0.930 . S
C589 C588 1.376 . S
C589 C590 1.388 . S
C590 H577 0.930 . S
C590 C589 1.388 . S
C590 C591 1.390 . S
C591 C590 1.390 . S
C591 C592 1.394 . S
C591 C597 1.465 . S
C592 C587 1.399 . S
C592 C591 1.394 . S
C592 C593 1.516 . S
C593 C592 1.516 . S
C593 C594 1.502 . S
C593 C595 1.561 . S
C593 C596 1.526 . S
C594 H578 0.959 . S
C594 H579 0.959 . S
C594 H580 0.961 . S
C594 C593 1.502 . S
C595 H581 0.960 . S
C595 H582 0.961 . S
C595 H583 0.959 . S
C595 C593 1.561 . S
C596 C593 1.526 . S
C596 C597 1.396 . S
C596 C601 1.390 . S
C597 C591 1.465 . S
C597 C596 1.396 . S
C597 C598 1.399 . S
C598 H584 0.929 . S
C598 C597 1.399 . S
C598 C599 1.385 . S
C599 H585 0.931 . S
C599 C598 1.385 . S
C599 C600 1.389 . S
C600 C599 1.389 . S
C600 C601 1.387 . S
C601 H586 0.930 . S
C601 C596 1.390 . S
C601 C600 1.387 . S
H602 C614 0.930 . S
H603 C616 0.930 . S
H604 C617 0.930 . S
H605 C621 0.959 . S
H606 C621 0.959 . S
H607 C621 0.961 . S
H608 C622 0.960 . S
H609 C622 0.961 . S
H610 C622 0.959 . S
H611 C625 0.929 . S
H612 C626 0.931 . S
H613 C628 0.930 . S
C614 H602 0.930 . S
C614 C615 1.399 . S
C614 C619 1.399 . S
C615 C614 1.399 . S
C615 C616 1.376 . S
C616 H603 0.930 . S
C616 C615 1.376 . S
C616 C617 1.388 . S
C617 H604 0.930 . S
C617 C616 1.388 . S
C617 C618 1.390 . S
C618 C617 1.390 . S
C618 C619 1.394 . S
C618 C624 1.465 . S
C619 C614 1.399 . S
C619 C618 1.394 . S
C619 C620 1.516 . S
C620 C619 1.516 . S
C620 C621 1.502 . S
C620 C622 1.561 . S
C620 C623 1.526 . S
C621 H605 0.959 . S
C621 H606 0.959 . S
C621 H607 0.961 . S
C621 C620 1.502 . S
C622 H608 0.960 . S
C622 H609 0.961 . S
C622 H610 0.959 . S
C622 C620 1.561 . S
C623 C620 1.526 . S
C623 C624 1.396 . S
C623 C628 1.390 . S
C624 C618 1.465 . S
C624 C623 1.396 . S
C624 C625 1.399 . S
C625 H611 0.929 . S
C625 C624 1.399 . S
C625 C626 1.385 . S
C626 H612 0.931 . S
C626 C625 1.385 . S
C626 C627 1.389 . S
C627 C626 1.389 . S
C627 C628 1.387 . S
C628 H613 0.930 . S
C628 C623 1.390 . S
C628 C627 1.387 . S
H629 C641 0.930 . S
H630 C643 0.930 . S
H631 C644 0.930 . S
H632 C648 0.959 . S
H633 C648 0.959 . S
H634 C648 0.961 . S
H635 C649 0.960 . S
H636 C649 0.961 . S
H637 C649 0.959 . S
H638 C652 0.929 . S
H639 C653 0.931 . S
H640 C655 0.930 . S
C641 H629 0.930 . S
C641 C642 1.399 . S
C641 C646 1.399 . S
C642 C641 1.399 . S
C642 C643 1.376 . S
C643 H630 0.930 . S
C643 C642 1.376 . S
C643 C644 1.388 . S
C644 H631 0.930 . S
C644 C643 1.388 . S
C644 C645 1.390 . S
C645 C644 1.390 . S
C645 C646 1.394 . S
C645 C651 1.465 . S
C646 C641 1.399 . S
C646 C645 1.394 . S
C646 C647 1.516 . S
C647 C646 1.516 . S
C647 C648 1.502 . S
C647 C649 1.561 . S
C647 C650 1.526 . S
C648 H632 0.959 . S
C648 H633 0.959 . S
C648 H634 0.961 . S
C648 C647 1.502 . S
C649 H635 0.960 . S
C649 H636 0.961 . S
C649 H637 0.959 . S
C649 C647 1.561 . S
C650 C647 1.526 . S
C650 C651 1.396 . S
C650 C655 1.390 . S
C651 C645 1.465 . S
C651 C650 1.396 . S
C651 C652 1.399 . S
C652 H638 0.929 . S
C652 C651 1.399 . S
C652 C653 1.385 . S
C653 H639 0.931 . S
C653 C652 1.385 . S
C653 C654 1.389 . S
C654 C653 1.389 . S
C654 C655 1.387 . S
C655 H640 0.930 . S
C655 C650 1.390 . S
C655 C654 1.387 . S
H656 C668 0.930 . S
H657 C670 0.930 . S
H658 C671 0.930 . S
H659 C675 0.959 . S
H660 C675 0.959 . S
H661 C675 0.961 . S
H662 C676 0.960 . S
H663 C676 0.961 . S
H664 C676 0.959 . S
H665 C679 0.929 . S
H666 C680 0.931 . S
H667 C682 0.930 . S
C668 H656 0.930 . S
C668 C669 1.399 . S
C668 C673 1.399 . S
C669 C668 1.399 . S
C669 C670 1.376 . S
C670 H657 0.930 . S
C670 C669 1.376 . S
C670 C671 1.388 . S
C671 H658 0.930 . S
C671 C670 1.388 . S
C671 C672 1.390 . S
C672 C671 1.390 . S
C672 C673 1.394 . S
C672 C678 1.465 . S
C673 C668 1.399 . S
C673 C672 1.394 . S
C673 C674 1.516 . S
C674 C673 1.516 . S
C674 C675 1.502 . S
C674 C676 1.561 . S
C674 C677 1.526 . S
C675 H659 0.959 . S
C675 H660 0.959 . S
C675 H661 0.961 . S
C675 C674 1.502 . S
C676 H662 0.960 . S
C676 H663 0.961 . S
C676 H664 0.959 . S
C676 C674 1.561 . S
C677 C674 1.526 . S
C677 C678 1.396 . S
C677 C682 1.390 . S
C678 C672 1.465 . S
C678 C677 1.396 . S
C678 C679 1.399 . S
C679 H665 0.929 . S
C679 C678 1.399 . S
C679 C680 1.385 . S
C680 H666 0.931 . S
C680 C679 1.385 . S
C680 C681 1.389 . S
C681 C680 1.389 . S
C681 C682 1.387 . S
C682 H667 0.930 . S
C682 C677 1.390 . S
C682 C681 1.387 . S
H683 C695 0.930 . S
H684 C697 0.930 . S
H685 C698 0.930 . S
H686 C702 0.959 . S
H687 C702 0.959 . S
H688 C702 0.961 . S
H689 C703 0.960 . S
H690 C703 0.961 . S
H691 C703 0.959 . S
H692 C706 0.929 . S
H693 C707 0.931 . S
H694 C709 0.930 . S
C695 H683 0.930 . S
C695 C696 1.399 . S
C695 C700 1.399 . S
C696 C695 1.399 . S
C696 C697 1.376 . S
C697 H684 0.930 . S
C697 C696 1.376 . S
C697 C698 1.388 . S
C698 H685 0.930 . S
C698 C697 1.388 . S
C698 C699 1.390 . S
C699 C698 1.390 . S
C699 C700 1.394 . S
C699 C705 1.465 . S
C700 C695 1.399 . S
C700 C699 1.394 . S
C700 C701 1.516 . S
C701 C700 1.516 . S
C701 C702 1.502 . S
C701 C703 1.561 . S
C701 C704 1.526 . S
C702 H686 0.959 . S
C702 H687 0.959 . S
C702 H688 0.961 . S
C702 C701 1.502 . S
C703 H689 0.960 . S
C703 H690 0.961 . S
C703 H691 0.959 . S
C703 C701 1.561 . S
C704 C701 1.526 . S
C704 C705 1.396 . S
C704 C709 1.390 . S
C705 C699 1.465 . S
C705 C704 1.396 . S
C705 C706 1.399 . S
C706 H692 0.929 . S
C706 C705 1.399 . S
C706 C707 1.385 . S
C707 H693 0.931 . S
C707 C706 1.385 . S
C707 C708 1.389 . S
C708 C707 1.389 . S
C708 C709 1.387 . S
C709 H694 0.930 . S
C709 C704 1.390 . S
C709 C708 1.387 . S
H710 C722 0.930 . S
H711 C724 0.930 . S
H712 C725 0.930 . S
H713 C729 0.959 . S
H714 C729 0.959 . S
H715 C729 0.961 . S
H716 C730 0.960 . S
H717 C730 0.961 . S
H718 C730 0.959 . S
H719 C733 0.929 . S
H720 C734 0.931 . S
H721 C736 0.930 . S
C722 H710 0.930 . S
C722 C723 1.399 . S
C722 C727 1.399 . S
C723 C722 1.399 . S
C723 C724 1.376 . S
C724 H711 0.930 . S
C724 C723 1.376 . S
C724 C725 1.388 . S
C725 H712 0.930 . S
C725 C724 1.388 . S
C725 C726 1.390 . S
C726 C725 1.390 . S
C726 C727 1.394 . S
C726 C732 1.465 . S
C727 C722 1.399 . S
C727 C726 1.394 . S
C727 C728 1.516 . S
C728 C727 1.516 . S
C728 C729 1.502 . S
C728 C730 1.561 . S
C728 C731 1.526 . S
C729 H713 0.959 . S
C729 H714 0.959 . S
C729 H715 0.961 . S
C729 C728 1.502 . S
C730 H716 0.960 . S
C730 H717 0.961 . S
C730 H718 0.959 . S
C730 C728 1.561 . S
C731 C728 1.526 . S
C731 C732 1.396 . S
C731 C736 1.390 . S
C732 C726 1.465 . S
C732 C731 1.396 . S
C732 C733 1.399 . S
C733 H719 0.929 . S
C733 C732 1.399 . S
C733 C734 1.385 . S
C734 H720 0.931 . S
C734 C733 1.385 . S
C734 C735 1.389 . S
C735 C734 1.389 . S
C735 C736 1.387 . S
C736 H721 0.930 . S
C736 C731 1.390 . S
C736 C735 1.387 . S
H737 C749 0.930 . S
H738 C751 0.930 . S
H739 C752 0.930 . S
H740 C756 0.959 . S
H741 C756 0.959 . S
H742 C756 0.961 . S
H743 C757 0.960 . S
H744 C757 0.961 . S
H745 C757 0.959 . S
H746 C760 0.929 . S
H747 C761 0.931 1_545 S
H748 C763 0.930 . S
C749 H737 0.930 . S
C749 C750 1.399 . S
C749 C754 1.399 . S
C750 C749 1.399 . S
C750 C751 1.376 . S
C751 H738 0.930 . S
C751 C750 1.376 . S
C751 C752 1.388 . S
C752 H739 0.930 . S
C752 C751 1.388 . S
C752 C753 1.390 . S
C753 C752 1.390 . S
C753 C754 1.394 . S
C753 C759 1.465 . S
C754 C749 1.399 . S
C754 C753 1.394 . S
C754 C755 1.516 . S
C755 C754 1.516 . S
C755 C756 1.502 . S
C755 C757 1.561 . S
C755 C758 1.526 . S
C756 H740 0.959 . S
C756 H741 0.959 . S
C756 H742 0.961 . S
C756 C755 1.502 . S
C757 H743 0.960 . S
C757 H744 0.961 . S
C757 H745 0.959 . S
C757 C755 1.561 . S
C758 C755 1.526 . S
C758 C759 1.396 . S
C758 C763 1.390 . S
C759 C753 1.465 . S
C759 C758 1.396 . S
C759 C760 1.399 . S
C760 H746 0.929 . S
C760 C759 1.399 . S
C760 C761 1.385 . S
C761 H747 0.931 1_565 S
C761 C760 1.385 . S
C761 C762 1.389 . S
C762 C761 1.389 . S
C762 C763 1.387 . S
C763 H748 0.930 . S
C763 C758 1.390 . S
C763 C762 1.387 . S
H764 C776 0.930 . S
H765 C778 0.930 . S
H766 C779 0.930 . S
H767 C783 0.959 . S
H768 C783 0.959 . S
H769 C783 0.961 . S
H770 C784 0.960 . S
H771 C784 0.961 . S
H772 C784 0.959 . S
H773 C787 0.929 1_565 S
H774 C788 0.931 . S
H775 C790 0.930 . S
C776 H764 0.930 . S
C776 C777 1.399 . S
C776 C781 1.399 . S
C777 C776 1.399 . S
C777 C778 1.376 . S
C778 H765 0.930 . S
C778 C777 1.376 . S
C778 C779 1.388 . S
C779 H766 0.930 . S
C779 C778 1.388 . S
C779 C780 1.390 . S
C780 C779 1.390 . S
C780 C781 1.394 . S
C780 C786 1.465 . S
C781 C776 1.399 . S
C781 C780 1.394 . S
C781 C782 1.516 . S
C782 C781 1.516 . S
C782 C783 1.502 . S
C782 C784 1.561 . S
C782 C785 1.526 . S
C783 H767 0.959 . S
C783 H768 0.959 . S
C783 H769 0.961 . S
C783 C782 1.502 . S
C784 H770 0.960 . S
C784 H771 0.961 . S
C784 H772 0.959 . S
C784 C782 1.561 . S
C785 C782 1.526 . S
C785 C786 1.396 . S
C785 C790 1.390 . S
C786 C780 1.465 . S
C786 C785 1.396 . S
C786 C787 1.399 . S
C787 H773 0.929 1_545 S
C787 C786 1.399 . S
C787 C788 1.385 1_545 S
C788 H774 0.931 . S
C788 C787 1.385 1_565 S
C788 C789 1.389 1_565 S
C789 C788 1.389 1_545 S
C789 C790 1.387 . S
C790 H775 0.930 . S
C790 C785 1.390 . S
C790 C789 1.387 . S
H791 C803 0.930 . S
H792 C805 0.930 . S
H793 C806 0.930 . S
H794 C810 0.959 . S
H795 C810 0.959 . S
H796 C810 0.961 . S
H797 C811 0.960 . S
H798 C811 0.961 . S
H799 C811 0.959 . S
H800 C814 0.929 . S
H801 C815 0.931 . S
H802 C817 0.930 . S
C803 H791 0.930 . S
C803 C804 1.399 . S
C803 C808 1.399 . S
C804 C803 1.399 . S
C804 C805 1.376 . S
C805 H792 0.930 . S
C805 C804 1.376 . S
C805 C806 1.388 . S
C806 H793 0.930 . S
C806 C805 1.388 . S
C806 C807 1.390 . S
C807 C806 1.390 . S
C807 C808 1.394 . S
C807 C813 1.465 . S
C808 C803 1.399 . S
C808 C807 1.394 . S
C808 C809 1.516 . S
C809 C808 1.516 . S
C809 C810 1.502 . S
C809 C811 1.561 . S
C809 C812 1.526 . S
C810 H794 0.959 . S
C810 H795 0.959 . S
C810 H796 0.961 . S
C810 C809 1.502 . S
C811 H797 0.960 . S
C811 H798 0.961 . S
C811 H799 0.959 . S
C811 C809 1.561 . S
C812 C809 1.526 . S
C812 C813 1.396 . S
C812 C817 1.390 . S
C813 C807 1.465 . S
C813 C812 1.396 . S
C813 C814 1.399 . S
C814 H800 0.929 . S
C814 C813 1.399 . S
C814 C815 1.385 . S
C815 H801 0.931 . S
C815 C814 1.385 . S
C815 C816 1.389 . S
C816 C815 1.389 . S
C816 C817 1.387 . S
C817 H802 0.930 . S
C817 C812 1.390 . S
C817 C816 1.387 . S
H818 C830 0.930 . S
H819 C832 0.930 . S
H820 C833 0.930 . S
H821 C837 0.959 . S
H822 C837 0.959 . S
H823 C837 0.961 . S
H824 C838 0.960 . S
H825 C838 0.961 . S
H826 C838 0.959 . S
H827 C841 0.929 . S
H828 C842 0.931 . S
H829 C844 0.930 . S
C830 H818 0.930 . S
C830 C831 1.399 . S
C830 C835 1.399 . S
C831 C830 1.399 . S
C831 C832 1.376 . S
C832 H819 0.930 . S
C832 C831 1.376 . S
C832 C833 1.388 . S
C833 H820 0.930 . S
C833 C832 1.388 . S
C833 C834 1.390 . S
C834 C833 1.390 . S
C834 C835 1.394 . S
C834 C840 1.465 . S
C835 C830 1.399 . S
C835 C834 1.394 . S
C835 C836 1.516 . S
C836 C835 1.516 . S
C836 C837 1.502 . S
C836 C838 1.561 . S
C836 C839 1.526 . S
C837 H821 0.959 . S
C837 H822 0.959 . S
C837 H823 0.961 . S
C837 C836 1.502 . S
C838 H824 0.960 . S
C838 H825 0.961 . S
C838 H826 0.959 . S
C838 C836 1.561 . S
C839 C836 1.526 . S
C839 C840 1.396 . S
C839 C844 1.390 . S
C840 C834 1.465 . S
C840 C839 1.396 . S
C840 C841 1.399 . S
C841 H827 0.929 . S
C841 C840 1.399 . S
C841 C842 1.385 . S
C842 H828 0.931 . S
C842 C841 1.385 . S
C842 C843 1.389 . S
C843 C842 1.389 . S
C843 C844 1.387 . S
C844 H829 0.930 . S
C844 C839 1.390 . S
C844 C843 1.387 . S
H845 C857 0.930 1_565 S
H846 C859 0.930 . S
H847 C860 0.930 . S
H848 C864 0.959 . S
H849 C864 0.959 . S
H850 C864 0.961 . S
H851 C865 0.960 . S
H852 C865 0.961 . S
H853 C865 0.959 . S
H854 C868 0.929 . S
H855 C869 0.931 . S
H856 C871 0.930 . S
C857 H845 0.930 1_545 S
C857 C858 1.399 . S
C857 C862 1.399 . S
C858 C857 1.399 . S
C858 C859 1.376 . S
C859 H846 0.930 . S
C859 C858 1.376 . S
C859 C860 1.388 . S
C860 H847 0.930 . S
C860 C859 1.388 . S
C860 C861 1.390 . S
C861 C860 1.390 . S
C861 C862 1.394 . S
C861 C867 1.465 . S
C862 C857 1.399 . S
C862 C861 1.394 . S
C862 C863 1.516 . S
C863 C862 1.516 . S
C863 C864 1.502 . S
C863 C865 1.561 . S
C863 C866 1.526 . S
C864 H848 0.959 . S
C864 H849 0.959 . S
C864 H850 0.961 . S
C864 C863 1.502 . S
C865 H851 0.960 . S
C865 H852 0.961 . S
C865 H853 0.959 . S
C865 C863 1.561 . S
C866 C863 1.526 . S
C866 C867 1.396 . S
C866 C871 1.390 . S
C867 C861 1.465 . S
C867 C866 1.396 . S
C867 C868 1.399 . S
C868 H854 0.929 . S
C868 C867 1.399 . S
C868 C869 1.385 . S
C869 H855 0.931 . S
C869 C868 1.385 . S
C869 C870 1.389 . S
C870 C869 1.389 . S
C870 C871 1.387 . S
C871 H856 0.930 . S
C871 C866 1.390 . S
C871 C870 1.387 . S
H872 C884 0.930 . S
H873 C886 0.930 . S
H874 C887 0.930 . S
H875 C891 0.959 . S
H876 C891 0.959 . S
H877 C891 0.961 . S
H878 C892 0.960 . S
H879 C892 0.961 . S
H880 C892 0.959 . S
H881 C895 0.923 1_545 S
H882 C896 0.931 . S
H883 C898 0.930 . S
C884 H872 0.930 . S
C884 C885 1.399 . S
C884 C889 1.399 . S
C885 C884 1.399 . S
C885 C886 1.376 . S
C886 H873 0.930 . S
C886 C885 1.376 . S
C886 C887 1.388 . S
C887 H874 0.930 . S
C887 C886 1.388 . S
C887 C888 1.390 . S
C888 C887 1.390 . S
C888 C889 1.394 . S
C888 C894 1.465 . S
C889 C884 1.399 . S
C889 C888 1.394 . S
C889 C890 1.516 . S
C890 C889 1.516 . S
C890 C891 1.502 . S
C890 C892 1.561 . S
C890 C893 1.526 . S
C891 H875 0.959 . S
C891 H876 0.959 . S
C891 H877 0.961 . S
C891 C890 1.502 . S
C892 H878 0.960 . S
C892 H879 0.961 . S
C892 H880 0.959 . S
C892 C890 1.561 . S
C893 C890 1.526 . S
C893 C894 1.396 . S
C893 C898 1.390 . S
C894 C888 1.465 . S
C894 C893 1.396 . S
C894 C895 1.399 . S
C895 H881 0.923 1_565 S
C895 C894 1.399 . S
C895 C896 1.385 1_565 S
C896 H882 0.931 . S
C896 C895 1.385 1_545 S
C896 C897 1.389 1_545 S
C897 C896 1.389 1_565 S
C897 C898 1.387 . S
C898 H883 0.930 . S
C898 C893 1.390 . S
C898 C897 1.387 . S
H899 C911 0.930 . S
H900 C913 0.930 . S
H901 C914 0.930 . S
H902 C918 0.959 . S
H903 C918 0.959 . S
H904 C918 0.961 . S
H905 C919 0.960 . S
H906 C919 0.961 . S
H907 C919 0.959 . S
H908 C922 0.929 . S
H909 C923 0.931 . S
H910 C925 0.930 . S
C911 H899 0.930 . S
C911 C912 1.399 . S
C911 C916 1.399 . S
C912 C911 1.399 . S
C912 C913 1.376 . S
C913 H900 0.930 . S
C913 C912 1.376 . S
C913 C914 1.388 . S
C914 H901 0.930 . S
C914 C913 1.388 . S
C914 C915 1.390 . S
C915 C914 1.390 . S
C915 C916 1.394 . S
C915 C921 1.465 . S
C916 C911 1.399 . S
C916 C915 1.394 . S
C916 C917 1.516 . S
C917 C916 1.516 . S
C917 C918 1.502 . S
C917 C919 1.561 . S
C917 C920 1.526 . S
C918 H902 0.959 . S
C918 H903 0.959 . S
C918 H904 0.961 . S
C918 C917 1.502 . S
C919 H905 0.960 . S
C919 H906 0.961 . S
C919 H907 0.959 . S
C919 C917 1.561 . S
C920 C917 1.526 . S
C920 C921 1.396 . S
C920 C925 1.390 . S
C921 C915 1.465 . S
C921 C920 1.396 . S
C921 C922 1.399 . S
C922 H908 0.929 . S
C922 C921 1.399 . S
C922 C923 1.385 . S
C923 H909 0.931 . S
C923 C922 1.385 . S
C923 C924 1.389 . S
C924 C923 1.389 . S
C924 C925 1.387 . S
C925 H910 0.930 . S
C925 C920 1.390 . S
C925 C924 1.387 . S
H926 C938 0.930 . S
H927 C940 0.930 . S
H928 C941 0.930 . S
H929 C945 0.959 . S
H930 C945 0.959 . S
H931 C945 0.961 . S
H932 C946 0.960 . S
H933 C946 0.961 . S
H934 C946 0.959 . S
H935 C949 0.929 . S
H936 C950 0.931 . S
H937 C952 0.930 . S
C938 H926 0.930 . S
C938 C939 1.399 . S
C938 C943 1.399 . S
C939 C938 1.399 . S
C939 C940 1.376 . S
C940 H927 0.930 . S
C940 C939 1.376 . S
C940 C941 1.388 . S
C941 H928 0.930 . S
C941 C940 1.388 . S
C941 C942 1.390 . S
C942 C941 1.390 . S
C942 C943 1.394 . S
C942 C948 1.465 . S
C943 C938 1.399 . S
C943 C942 1.394 . S
C943 C944 1.516 . S
C944 C943 1.516 . S
C944 C945 1.502 . S
C944 C946 1.561 . S
C944 C947 1.526 . S
C945 H929 0.959 . S
C945 H930 0.959 . S
C945 H931 0.961 . S
C945 C944 1.502 . S
C946 H932 0.960 . S
C946 H933 0.961 . S
C946 H934 0.959 . S
C946 C944 1.561 . S
C947 C944 1.526 . S
C947 C948 1.396 . S
C947 C952 1.390 . S
C948 C942 1.465 . S
C948 C947 1.396 . S
C948 C949 1.399 . S
C949 H935 0.929 . S
C949 C948 1.399 . S
C949 C950 1.385 . S
C950 H936 0.931 . S
C950 C949 1.385 . S
C950 C951 1.389 . S
C951 C950 1.389 . S
C951 C952 1.387 . S
C952 H937 0.930 . S
C952 C947 1.390 . S
C952 C951 1.387 . S
H953 C965 0.930 . S
H954 C967 0.930 . S
H955 C968 0.930 . S
H956 C972 0.959 . S
H957 C972 0.959 . S
H958 C972 0.961 . S
H959 C973 0.960 . S
H960 C973 0.961 . S
H961 C973 0.959 . S
H962 C976 0.929 . S
H963 C977 0.931 . S
H964 C979 0.930 . S
C965 H953 0.930 . S
C965 C966 1.399 . S
C965 C970 1.399 . S
C966 C965 1.399 . S
C966 C967 1.376 . S
C967 H954 0.930 . S
C967 C966 1.376 . S
C967 C968 1.388 . S
C968 H955 0.930 . S
C968 C967 1.388 . S
C968 C969 1.390 . S
C969 C968 1.390 . S
C969 C970 1.394 . S
C969 C975 1.465 . S
C970 C965 1.399 . S
C970 C969 1.394 . S
C970 C971 1.516 . S
C971 C970 1.516 . S
C971 C972 1.502 . S
C971 C973 1.561 . S
C971 C974 1.526 . S
C972 H956 0.959 . S
C972 H957 0.959 . S
C972 H958 0.961 . S
C972 C971 1.502 . S
C973 H959 0.960 . S
C973 H960 0.961 . S
C973 H961 0.959 . S
C973 C971 1.561 . S
C974 C971 1.526 . S
C974 C975 1.396 . S
C974 C979 1.390 . S
C975 C969 1.465 . S
C975 C974 1.396 . S
C975 C976 1.399 . S
C976 H962 0.929 . S
C976 C975 1.399 . S
C976 C977 1.385 1_565 S
C977 H963 0.931 . S
C977 C976 1.385 1_545 S
C977 C978 1.389 1_545 S
C978 C977 1.389 1_565 S
C978 C979 1.387 . S
C979 H964 0.930 . S
C979 C974 1.390 . S
C979 C978 1.387 . S
H980 C992 0.930 . S
H981 C994 0.930 . S
H982 C995 0.930 . S
H983 C999 0.959 . S
H984 C999 0.959 . S
H985 C999 0.961 . S
H986 C1000 0.960 . S
H987 C1000 0.961 . S
H988 C1000 0.959 . S
H989 C1003 0.929 1_565 S
H990 C1004 0.931 . S
H991 C1006 0.930 . S
C992 H980 0.930 . S
C992 C993 1.399 . S
C992 C997 1.399 . S
C993 C992 1.399 . S
C993 C994 1.376 . S
C994 H981 0.930 . S
C994 C993 1.376 . S
C994 C995 1.388 . S
C995 H982 0.930 . S
C995 C994 1.388 . S
C995 C996 1.390 . S
C996 C995 1.390 . S
C996 C997 1.394 . S
C996 C1002 1.465 . S
C997 C992 1.399 . S
C997 C996 1.394 . S
C997 C998 1.516 . S
C998 C997 1.516 . S
C998 C999 1.502 . S
C998 C1000 1.561 . S
C998 C1001 1.526 . S
C999 H983 0.959 . S
C999 H984 0.959 . S
C999 H985 0.961 . S
C999 C998 1.502 . S
C1000 H986 0.960 . S
C1000 H987 0.961 . S
C1000 H988 0.959 . S
C1000 C998 1.561 . S
C1001 C998 1.526 . S
C1001 C1002 1.396 . S
C1001 C1006 1.390 . S
C1002 C996 1.465 . S
C1002 C1001 1.396 . S
C1002 C1003 1.399 . S
C1003 H989 0.929 1_545 S
C1003 C1002 1.399 . S
C1003 C1004 1.385 1_545 S
C1004 H990 0.931 . S
C1004 C1003 1.385 1_565 S
C1004 C1005 1.389 1_565 S
C1005 C1004 1.389 1_545 S
C1005 C1006 1.387 . S
C1006 H991 0.930 . S
C1006 C1001 1.390 . S
C1006 C1005 1.387 . S
H1007 C1019 0.930 . S
H1008 C1021 0.930 . S
H1009 C1022 0.930 . S
H1010 C1026 0.959 . S
H1011 C1026 0.959 . S
H1012 C1026 0.961 . S
H1013 C1027 0.960 . S
H1014 C1027 0.961 . S
H1015 C1027 0.959 . S
H1016 C1030 0.929 . S
H1017 C1031 0.931 . S
H1018 C1033 0.930 . S
C1019 H1007 0.930 . S
C1019 C1020 1.399 . S
C1019 C1024 1.399 . S
C1020 C1019 1.399 . S
C1020 C1021 1.376 . S
C1021 H1008 0.930 . S
C1021 C1020 1.376 . S
C1021 C1022 1.388 . S
C1022 H1009 0.930 . S
C1022 C1021 1.388 . S
C1022 C1023 1.390 . S
C1023 C1022 1.390 . S
C1023 C1024 1.394 . S
C1023 C1029 1.465 . S
C1024 C1019 1.399 . S
C1024 C1023 1.394 . S
C1024 C1025 1.516 . S
C1025 C1024 1.516 . S
C1025 C1026 1.502 . S
C1025 C1027 1.561 . S
C1025 C1028 1.526 . S
C1026 H1010 0.959 . S
C1026 H1011 0.959 . S
C1026 H1012 0.961 . S
C1026 C1025 1.502 . S
C1027 H1013 0.960 . S
C1027 H1014 0.961 . S
C1027 H1015 0.959 . S
C1027 C1025 1.561 . S
C1028 C1025 1.526 . S
C1028 C1029 1.396 . S
C1028 C1033 1.390 . S
C1029 C1023 1.465 . S
C1029 C1028 1.396 . S
C1029 C1030 1.399 . S
C1030 H1016 0.929 . S
C1030 C1029 1.399 . S
C1030 C1031 1.385 . S
C1031 H1017 0.931 . S
C1031 C1030 1.385 . S
C1031 C1032 1.389 . S
C1032 C1031 1.389 . S
C1032 C1033 1.387 . S
C1033 H1018 0.930 . S
C1033 C1028 1.390 . S
C1033 C1032 1.387 . S
H1034 C1046 0.930 . S
H1035 C1048 0.930 . S
H1036 C1049 0.930 . S
H1037 C1053 0.959 . S
H1038 C1053 0.959 . S
H1039 C1053 0.961 . S
H1040 C1054 0.960 . S
H1041 C1054 0.961 . S
H1042 C1054 0.959 . S
H1043 C1057 0.929 . S
H1044 C1058 0.931 . S
H1045 C1060 0.930 . S
C1046 H1034 0.930 . S
C1046 C1047 1.399 . S
C1046 C1051 1.399 . S
C1047 C1046 1.399 . S
C1047 C1048 1.376 . S
C1048 H1035 0.930 . S
C1048 C1047 1.376 . S
C1048 C1049 1.388 . S
C1049 H1036 0.930 . S
C1049 C1048 1.388 . S
C1049 C1050 1.390 . S
C1050 C1049 1.390 . S
C1050 C1051 1.394 . S
C1050 C1056 1.465 . S
C1051 C1046 1.399 . S
C1051 C1050 1.394 . S
C1051 C1052 1.516 . S
C1052 C1051 1.516 . S
C1052 C1053 1.502 . S
C1052 C1054 1.561 . S
C1052 C1055 1.526 . S
C1053 H1037 0.959 . S
C1053 H1038 0.959 . S
C1053 H1039 0.961 . S
C1053 C1052 1.502 . S
C1054 H1040 0.960 . S
C1054 H1041 0.961 . S
C1054 H1042 0.959 . S
C1054 C1052 1.561 . S
C1055 C1052 1.526 . S
C1055 C1056 1.396 . S
C1055 C1060 1.390 . S
C1056 C1050 1.465 . S
C1056 C1055 1.396 . S
C1056 C1057 1.399 . S
C1057 H1043 0.929 . S
C1057 C1056 1.399 . S
C1057 C1058 1.385 . S
C1058 H1044 0.931 . S
C1058 C1057 1.385 . S
C1058 C1059 1.389 . S
C1059 C1058 1.389 . S
C1059 C1060 1.387 . S
C1060 H1045 0.930 . S
C1060 C1055 1.390 . S
C1060 C1059 1.387 . S
H1061 C1073 0.930 . S
H1062 C1075 0.930 . S
H1063 C1076 0.930 . S
H1064 C1080 0.959 . S
H1065 C1080 0.959 . S
H1066 C1080 0.961 . S
H1067 C1081 0.960 . S
H1068 C1081 0.961 . S
H1069 C1081 0.959 . S
H1070 C1084 0.929 . S
H1071 C1085 0.931 . S
H1072 C1087 0.930 . S
C1073 H1061 0.930 . S
C1073 C1074 1.399 . S
C1073 C1078 1.399 . S
C1074 C1073 1.399 . S
C1074 C1075 1.376 . S
C1075 H1062 0.930 . S
C1075 C1074 1.376 . S
C1075 C1076 1.388 . S
C1076 H1063 0.930 . S
C1076 C1075 1.388 . S
C1076 C1077 1.390 . S
C1077 C1076 1.390 . S
C1077 C1078 1.394 . S
C1077 C1083 1.465 . S
C1078 C1073 1.399 . S
C1078 C1077 1.394 . S
C1078 C1079 1.516 . S
C1079 C1078 1.516 . S
C1079 C1080 1.502 . S
C1079 C1081 1.561 . S
C1079 C1082 1.526 . S
C1080 H1064 0.959 . S
C1080 H1065 0.959 . S
C1080 H1066 0.961 . S
C1080 C1079 1.502 . S
C1081 H1067 0.960 . S
C1081 H1068 0.961 . S
C1081 H1069 0.959 . S
C1081 C1079 1.561 . S
C1082 C1079 1.526 . S
C1082 C1083 1.396 . S
C1082 C1087 1.390 . S
C1083 C1077 1.465 . S
C1083 C1082 1.396 . S
C1083 C1084 1.399 . S
C1084 H1070 0.929 . S
C1084 C1083 1.399 . S
C1084 C1085 1.385 1_545 S
C1085 H1071 0.931 . S
C1085 C1084 1.385 1_565 S
C1085 C1086 1.389 1_565 S
C1086 C1085 1.389 1_545 S
C1086 C1087 1.387 . S
C1087 H1072 0.930 . S
C1087 C1082 1.390 . S
C1087 C1086 1.387 . S
C237 C196 1.484 . S
C249 C0 1.489 . S
C264 C39 1.495 . S
C276 C11 1.483 . S
C291 C165 1.488 . S
C303 C25 1.493 . S
C318 C14 1.470 . S
C330 C98 1.497 . S
C345 C28 1.471 . S
C357 C168 1.496 . S
C372 C137 1.490 . S
C384 C53 1.487 . S
C399 C42 1.488 . S
C411 C70 1.485 . S
C426 C140 1.477 . S
C438 C56 1.487 . S
C453 C67 1.482 . S
C465 C95 1.496 . S
C480 C221 1.485 . S
C492 C81 1.492 . S
C507 C112 1.470 . S
C519 C84 1.497 . S
C534 C193 1.483 . S
C546 C109 1.495 . S
C561 C123 1.494 . S
C573 C151 1.484 . S
C588 C210 1.479 . S
C600 C126 1.493 . S
C615 C154 1.489 . S
C627 C182 1.476 . S
C642 C207 1.489 . S
C654 C179 1.492 . S
C669 C75 1.434 . S
C681 C9 1.440 1_565 S
C696 C5 1.428 . S
C708 C79 1.417 . S
C723 C19 1.427 . S
C735 C65 1.420 . S
C750 C61 1.438 . S
C762 C23 1.443 1_565 S
C777 C103 1.434 . S
C789 C37 1.428 1_545 S
C804 C107 1.439 . S
C816 C33 1.439 . S
C831 C93 1.419 . S
C843 C47 1.430 . S
C858 C51 1.416 1_545 S
C870 C89 1.428 . S
C885 C187 1.439 . S
C897 C121 1.434 1_565 S
C912 C117 1.428 . S
C924 C191 1.424 . S
C939 C131 1.440 . S
C951 C177 1.438 . S
C966 C173 1.440 . S
C978 C135 1.440 1_565 S
C993 C215 1.434 . S
C1005 C149 1.429 1_545 S
C1020 C219 1.442 . S
C1032 C145 1.440 . S
C1047 C159 1.431 . S
C1059 C205 1.421 . S
C1074 C201 1.432 . S
C1086 C163 1.424 1_545 S
