# Generated by pormake.
# Topology yfa, (5)-cn, num edge types: 1
# Building blocks:
#     Node 0, Type 0, BuildingBlock: BEQFEK_clean_sbu_0, # of connection points: 5
#     Node 1, Type 0, BuildingBlock: BEQFEK_clean_sbu_0, # of connection points: 5
#     Node 2, Type 0, BuildingBlock: BEQFEK_clean_sbu_0, # of connection points: 5
#     Node 3, Type 0, BuildingBlock: BEQFEK_clean_sbu_0, # of connection points: 5
#     Node 4, Type 0, BuildingBlock: BEQFEK_clean_sbu_0, # of connection points: 5
#     Node 5, Type 0, BuildingBlock: BEQFEK_clean_sbu_0, # of connection points: 5
#     Node 6, Type 0, BuildingBlock: BEQFEK_clean_sbu_0, # of connection points: 5
#     Node 7, Type 0, BuildingBlock: BEQFEK_clean_sbu_0, # of connection points: 5
#     Node 8, Type 0, BuildingBlock: BEQFEK_clean_sbu_0, # of connection points: 5
#     Node 9, Type 0, BuildingBlock: BEQFEK_clean_sbu_0, # of connection points: 5
#     Node 10, Type 0, BuildingBlock: BEQFEK_clean_sbu_0, # of connection points: 5
#     Node 11, Type 0, BuildingBlock: BEQFEK_clean_sbu_0, # of connection points: 5
#     Node 12, Type 0, BuildingBlock: BEQFEK_clean_sbu_0, # of connection points: 5
#     Node 13, Type 0, BuildingBlock: BEQFEK_clean_sbu_0, # of connection points: 5
#     Node 14, Type 0, BuildingBlock: BEQFEK_clean_sbu_0, # of connection points: 5
#     Node 15, Type 0, BuildingBlock: BEQFEK_clean_sbu_0, # of connection points: 5
#     Edge 16, Type (0, 0), BuildingBlock: AJUNOK_clean_linker_0, # of connection points: 2
#     Edge 17, Type (0, 0), BuildingBlock: AJUNOK_clean_linker_0, # of connection points: 2
#     Edge 18, Type (0, 0), BuildingBlock: AJUNOK_clean_linker_0, # of connection points: 2
#     Edge 19, Type (0, 0), BuildingBlock: AJUNOK_clean_linker_0, # of connection points: 2
#     Edge 20, Type (0, 0), BuildingBlock: AJUNOK_clean_linker_0, # of connection points: 2
#     Edge 21, Type (0, 0), BuildingBlock: AJUNOK_clean_linker_0, # of connection points: 2
#     Edge 22, Type (0, 0), BuildingBlock: AJUNOK_clean_linker_0, # of connection points: 2
#     Edge 23, Type (0, 0), BuildingBlock: AJUNOK_clean_linker_0, # of connection points: 2
#     Edge 24, Type (0, 0), BuildingBlock: AJUNOK_clean_linker_0, # of connection points: 2
#     Edge 25, Type (0, 0), BuildingBlock: AJUNOK_clean_linker_0, # of connection points: 2
#     Edge 26, Type (0, 0), BuildingBlock: AJUNOK_clean_linker_0, # of connection points: 2
#     Edge 27, Type (0, 0), BuildingBlock: AJUNOK_clean_linker_0, # of connection points: 2
#     Edge 28, Type (0, 0), BuildingBlock: AJUNOK_clean_linker_0, # of connection points: 2
#     Edge 29, Type (0, 0), BuildingBlock: AJUNOK_clean_linker_0, # of connection points: 2
#     Edge 30, Type (0, 0), BuildingBlock: AJUNOK_clean_linker_0, # of connection points: 2
#     Edge 31, Type (0, 0), BuildingBlock: AJUNOK_clean_linker_0, # of connection points: 2
#     Edge 32, Type (0, 0), BuildingBlock: AJUNOK_clean_linker_0, # of connection points: 2
#     Edge 33, Type (0, 0), BuildingBlock: AJUNOK_clean_linker_0, # of connection points: 2
#     Edge 34, Type (0, 0), BuildingBlock: AJUNOK_clean_linker_0, # of connection points: 2
#     Edge 35, Type (0, 0), BuildingBlock: AJUNOK_clean_linker_0, # of connection points: 2
#     Edge 36, Type (0, 0), BuildingBlock: AJUNOK_clean_linker_0, # of connection points: 2
#     Edge 37, Type (0, 0), BuildingBlock: AJUNOK_clean_linker_0, # of connection points: 2
#     Edge 38, Type (0, 0), BuildingBlock: AJUNOK_clean_linker_0, # of connection points: 2
#     Edge 39, Type (0, 0), BuildingBlock: AJUNOK_clean_linker_0, # of connection points: 2
#     Edge 40, Type (0, 0), BuildingBlock: AJUNOK_clean_linker_0, # of connection points: 2
#     Edge 41, Type (0, 0), BuildingBlock: AJUNOK_clean_linker_0, # of connection points: 2
#     Edge 42, Type (0, 0), BuildingBlock: AJUNOK_clean_linker_0, # of connection points: 2
#     Edge 43, Type (0, 0), BuildingBlock: AJUNOK_clean_linker_0, # of connection points: 2
#     Edge 44, Type (0, 0), BuildingBlock: AJUNOK_clean_linker_0, # of connection points: 2
#     Edge 45, Type (0, 0), BuildingBlock: AJUNOK_clean_linker_0, # of connection points: 2
#     Edge 46, Type (0, 0), BuildingBlock: AJUNOK_clean_linker_0, # of connection points: 2
#     Edge 47, Type (0, 0), BuildingBlock: AJUNOK_clean_linker_0, # of connection points: 2
#     Edge 48, Type (0, 0), BuildingBlock: AJUNOK_clean_linker_0, # of connection points: 2
#     Edge 49, Type (0, 0), BuildingBlock: AJUNOK_clean_linker_0, # of connection points: 2
#     Edge 50, Type (0, 0), BuildingBlock: AJUNOK_clean_linker_0, # of connection points: 2
#     Edge 51, Type (0, 0), BuildingBlock: AJUNOK_clean_linker_0, # of connection points: 2
#     Edge 52, Type (0, 0), BuildingBlock: AJUNOK_clean_linker_0, # of connection points: 2
#     Edge 53, Type (0, 0), BuildingBlock: AJUNOK_clean_linker_0, # of connection points: 2
#     Edge 54, Type (0, 0), BuildingBlock: AJUNOK_clean_linker_0, # of connection points: 2
#     Edge 55, Type (0, 0), BuildingBlock: AJUNOK_clean_linker_0, # of connection points: 2
# Relax obj value: 0.823
# Max RMSD: 0.295
# Mean RMSD: 0.295
data_MOF--net-yfa--node1-BEQFEK_clean_sbu_0--edge1-AJUNOK_clean_linker_0
_symmetry_space_group_name_H-M    P1
_symmetry_Int_Tables_number       1
_symmetry_cell_setting            triclinic
loop_
_symmetry_equiv_pos_as_xyz
'x, y, z'
_cell_length_a     36.952233
_cell_length_b     36.967333
_cell_length_c     23.285815
_cell_angle_alpha  90.208846
_cell_angle_beta   89.82342
_cell_angle_gamma 89.937749
loop_
_atom_site_label
_atom_site_type_symbol
_atom_site_fract_x
_atom_site_fract_y
_atom_site_fract_z
_atom_type_partial_charge
Co0 Co 0.63653 0.0219 0.14037 0.0
Co1 Co 0.64518 0.09466 0.0847 0.0
C2 C 0.70288 0.04861 0.14878 0.0
O3 O 0.68793 0.01919 0.13492 0.0
O4 O 0.6896 0.0784 0.1308 0.0
C5 C 0.63022 0.94783 0.18428 0.0
O6 O 0.66262 0.94016 0.16437 0.0
C7 C 0.66479 0.11192 0.96978 0.0
C8 C 0.64435 0.16746 0.95968 0.0
C9 C 0.65608 0.13751 0.92866 0.0
N10 N 0.65734 0.1255 0.02208 0.0
N11 N 0.64624 0.15924 0.01599 0.0
C12 C 0.67736 0.0739 0.95953 0.0
H13 H 0.65425 0.05494 0.96196 0.0
H14 H 0.6902 0.07125 0.91654 0.0
H15 H 0.69683 0.06602 0.9935 0.0
C16 C 0.59156 0.00516 0.04198 0.0
N17 N 0.6167 0.02571 0.06793 0.0
N18 N 0.61193 0.05959 0.05418 0.0
C19 C 0.58108 0.06219 0.02348 0.0
C20 C 0.56739 0.02753 0.01403 0.0
C21 C 0.58991 0.96479 0.04469 0.0
H22 H 0.60986 0.95386 0.07521 0.0
H23 H 0.59662 0.95368 0.00165 0.0
H24 H 0.56207 0.9557 0.05496 0.0
O25 O 0.62209 0.06531 0.19041 0.0
O26 O 0.62018 0.11882 0.14636 0.0
H27 H 0.54799 0.10641 0.05026 0.0
H28 H 0.54241 0.09387 0.97588 0.0
C29 C 0.56241 0.09718 0.01098 0.0
H30 H 0.58247 0.11821 0.99953 0.0
H31 H 0.63615 0.1752 0.04946 0.0
O32 O 0.61703 0.9793 0.17838 0.0
C33 C 0.61567 0.09945 0.19097 0.0
Co34 Co 0.47115 0.63137 0.15629 0.0
Co35 Co 0.40304 0.63885 0.08317 0.0
C36 C 0.44525 0.69954 0.14438 0.0
O37 O 0.47459 0.68214 0.14032 0.0
O38 O 0.41646 0.68586 0.12359 0.0
C39 C 0.5415 0.63464 0.21322 0.0
O40 O 0.54422 0.66836 0.19649 0.0
C41 C 0.38955 0.65525 0.96484 0.0
C42 C 0.33141 0.64435 0.95349 0.0
C43 C 0.36287 0.65235 0.92332 0.0
N44 N 0.37485 0.64862 0.01652 0.0
N45 N 0.33985 0.64285 0.00977 0.0
C46 C 0.42886 0.66328 0.95588 0.0
H47 H 0.43992 0.67748 0.99408 0.0
H48 H 0.44411 0.63765 0.95048 0.0
H49 H 0.43287 0.67997 0.91684 0.0
C50 C 0.49309 0.57963 0.06693 0.0
N51 N 0.47119 0.60566 0.08781 0.0
N52 N 0.44015 0.60473 0.06088 0.0
C53 C 0.44037 0.57579 0.0251 0.0
C54 C 0.47426 0.55927 0.02729 0.0
C55 C 0.52981 0.57089 0.08938 0.0
H56 H 0.54222 0.59495 0.10963 0.0
H57 H 0.54763 0.56138 0.05396 0.0
H58 H 0.52728 0.54841 0.12047 0.0
O59 O 0.42513 0.62117 0.20136 0.0
O60 O 0.37578 0.6177 0.14621 0.0
H61 H 0.38265 0.57361 0.01306 0.0
H62 H 0.40667 0.53193 0.99641 0.0
C63 C 0.40773 0.5619 0.99435 0.0
H64 H 0.40955 0.56961 0.94847 0.0
H65 H 0.32225 0.6356 0.04291 0.0
O66 O 0.51302 0.61661 0.20212 0.0
C67 C 0.3911 0.61569 0.19517 0.0
Co68 Co 0.84736 0.47438 0.16149 0.0
Co69 Co 0.84797 0.40105 0.10362 0.0
C70 C 0.78336 0.44572 0.14822 0.0
O71 O 0.79863 0.47471 0.13316 0.0
O72 O 0.79878 0.41599 0.13509 0.0
C73 C 0.84799 0.55067 0.20018 0.0
O74 O 0.8237 0.55956 0.16166 0.0
C75 C 0.83489 0.38526 0.98654 0.0
C76 C 0.85754 0.3307 0.97398 0.0
C77 C 0.84573 0.36104 0.94436 0.0
N78 N 0.84134 0.3707 0.03827 0.0
N79 N 0.85381 0.33752 0.03069 0.0
C80 C 0.82104 0.42297 0.97818 0.0
H81 H 0.84278 0.44281 0.98692 0.0
H82 H 0.81115 0.42685 0.93364 0.0
H83 H 0.79886 0.42846 0.00926 0.0
C84 C 0.90633 0.49124 0.08084 0.0
N85 N 0.87971 0.47004 0.10134 0.0
N86 N 0.88329 0.43712 0.08117 0.0
C87 C 0.91399 0.43573 0.04938 0.0
C88 C 0.92912 0.47024 0.04709 0.0
C89 C 0.91252 0.52944 0.09977 0.0
H90 H 0.92087 0.52944 0.14541 0.0
H91 H 0.88697 0.54498 0.09604 0.0
H92 H 0.93396 0.54294 0.07433 0.0
O93 O 0.85475 0.43216 0.21487 0.0
O94 O 0.8656 0.37843 0.17457 0.0
H95 H 0.94443 0.38771 0.06463 0.0
H96 H 0.95153 0.40687 0.9943 0.0
C97 C 0.93103 0.40143 0.02811 0.0
H98 H 0.91037 0.38277 0.01128 0.0
H99 H 0.86321 0.32104 0.06375 0.0
O100 O 0.85803 0.51796 0.20492 0.0
C101 C 0.86208 0.39839 0.21931 0.0
Co102 Co 0.01993 0.83483 0.1448 0.0
Co103 Co 0.09676 0.84604 0.09236 0.0
C104 C 0.06085 0.77774 0.12384 0.0
O105 O 0.03175 0.79079 0.10487 0.0
O106 O 0.0899 0.79266 0.10711 0.0
C107 C 0.93995 0.82736 0.20079 0.0
O108 O 0.92444 0.79541 0.20139 0.0
C109 C 0.12917 0.84573 0.97926 0.0
C110 C 0.18289 0.86987 0.99278 0.0
C111 C 0.15945 0.85804 0.95016 0.0
N112 N 0.1343 0.85019 0.03599 0.0
N113 N 0.16701 0.86361 0.044 0.0
C114 C 0.09383 0.83485 0.95318 0.0
H115 H 0.07514 0.82421 0.98646 0.0
H116 H 0.08126 0.85853 0.93193 0.0
H117 H 0.09848 0.81391 0.91971 0.0
C118 C 0.00095 0.89671 0.07158 0.0
N119 N 0.02361 0.87077 0.09002 0.0
N120 N 0.05624 0.87638 0.06904 0.0
C121 C 0.05558 0.90759 0.03894 0.0
C122 C 0.02049 0.92127 0.03944 0.0
C123 C 0.96122 0.89808 0.08375 0.0
H124 H 0.95091 0.87104 0.0958 0.0
H125 H 0.94652 0.9079 0.04531 0.0
H126 H 0.95582 0.91756 0.11895 0.0
O127 O 0.05653 0.8456 0.20642 0.0
O128 O 0.11032 0.86167 0.1711 0.0
H129 H 0.08473 0.95657 0.0191 0.0
H130 H 0.09386 0.91893 0.97245 0.0
C131 C 0.08864 0.92681 0.0177 0.0
H132 H 0.11251 0.91942 0.04391 0.0
H133 H 0.1774 0.87094 0.084 0.0
O134 O 0.97128 0.83045 0.17891 0.0
C135 C 0.08917 0.85621 0.21391 0.0
Co136 Co 0.65518 0.47178 0.35163 0.0
Co137 Co 0.65183 0.40148 0.41766 0.0
C138 C 0.71732 0.44486 0.37695 0.0
O139 O 0.70073 0.47341 0.39054 0.0
O140 O 0.70269 0.41497 0.39085 0.0
C141 C 0.65529 0.54705 0.3087 0.0
O142 O 0.67442 0.55807 0.35287 0.0
C143 C 0.65819 0.3847 0.53752 0.0
C144 C 0.64585 0.3265 0.54283 0.0
C145 C 0.65204 0.35702 0.57625 0.0
N146 N 0.65515 0.37148 0.48398 0.0
N147 N 0.64852 0.33643 0.48725 0.0
C148 C 0.66525 0.4237 0.55083 0.0
H149 H 0.6396 0.43919 0.54849 0.0
H150 H 0.6767 0.42687 0.59458 0.0
H151 H 0.68403 0.43517 0.51837 0.0
C152 C 0.59086 0.49149 0.41954 0.0
N153 N 0.61906 0.46987 0.40651 0.0
N154 N 0.61554 0.43863 0.43251 0.0
C155 C 0.5834 0.43877 0.46066 0.0
C156 C 0.56727 0.47256 0.45433 0.0
C157 C 0.5842 0.52767 0.39308 0.0
H158 H 0.58101 0.52418 0.34612 0.0
H159 H 0.60773 0.54548 0.40128 0.0
H160 H 0.55946 0.54082 0.41034 0.0
O161 O 0.65092 0.42754 0.30067 0.0
O162 O 0.63732 0.37656 0.34676 0.0
H163 H 0.54782 0.39377 0.45312 0.0
H164 H 0.54873 0.41381 0.52331 0.0
C165 C 0.56578 0.40608 0.4859 0.0
H166 H 0.58604 0.38561 0.49846 0.0
H167 H 0.64366 0.31979 0.4518 0.0
O168 O 0.64826 0.51363 0.30283 0.0
C169 C 0.64323 0.39373 0.30005 0.0
Co170 Co 0.02352 0.65438 0.34897 0.0
Co171 Co 0.0962 0.66064 0.41062 0.0
C172 C 0.0508 0.72166 0.3568 0.0
O173 O 0.02123 0.70545 0.36603 0.0
O174 O 0.08002 0.7076 0.37512 0.0
C175 C 0.94978 0.65278 0.29735 0.0
O176 O 0.94279 0.68626 0.31285 0.0
C177 C 0.12194 0.67273 0.52599 0.0
C178 C 0.18034 0.66216 0.51791 0.0
C179 C 0.15287 0.66696 0.55815 0.0
N180 N 0.13038 0.67 0.46998 0.0
N181 N 0.16566 0.66513 0.46526 0.0
C182 C 0.08404 0.67568 0.54843 0.0
H183 H 0.06482 0.68162 0.51318 0.0
H184 H 0.07621 0.65022 0.57019 0.0
H185 H 0.08258 0.69767 0.5809 0.0
C186 C 0.00785 0.60053 0.43797 0.0
N187 N 0.02825 0.62722 0.4157 0.0
N188 N 0.06068 0.62635 0.43833 0.0
C189 C 0.06261 0.59726 0.47339 0.0
C190 C 0.02892 0.58031 0.47498 0.0
C191 C 0.9707 0.59103 0.4177 0.0
H192 H 0.9731 0.57214 0.38086 0.0
H193 H 0.95593 0.61568 0.40441 0.0
H194 H 0.95501 0.57722 0.45181 0.0
O195 O 0.06558 0.64416 0.29613 0.0
O196 O 0.11859 0.64004 0.34137 0.0
H197 H 0.09952 0.55409 0.49344 0.0
H198 H 0.09571 0.58852 0.54713 0.0
C199 C 0.09678 0.58368 0.50012 0.0
H200 H 0.12072 0.59751 0.4817 0.0
H201 H 0.17912 0.66043 0.42648 0.0
O202 O 0.98031 0.63868 0.30846 0.0
C203 C 0.09973 0.63834 0.29559 0.0
Co204 Co 0.85989 0.02486 0.33803 0.0
Co205 Co 0.85085 0.09533 0.40834 0.0
C206 C 0.79012 0.04962 0.35437 0.0
O207 O 0.80879 0.02087 0.35261 0.0
O208 O 0.80345 0.07872 0.37479 0.0
C209 C 0.86165 0.95338 0.28584 0.0
O210 O 0.82817 0.94969 0.30405 0.0
C211 C 0.839 0.11535 0.52638 0.0
C212 C 0.85439 0.17285 0.52755 0.0
C213 C 0.8473 0.14362 0.5632 0.0
N214 N 0.8424 0.12686 0.47194 0.0
N215 N 0.85024 0.1617 0.47284 0.0
C216 C 0.83357 0.07658 0.54263 0.0
H217 H 0.82742 0.05982 0.50426 0.0
H218 H 0.85808 0.06606 0.56435 0.0
H219 H 0.81079 0.07459 0.57361 0.0
C220 C 0.91097 0.0064 0.42781 0.0
N221 N 0.88513 0.02786 0.40599 0.0
N222 N 0.88532 0.05925 0.43229 0.0
C223 C 0.91314 0.05941 0.46993 0.0
C224 C 0.93004 0.02575 0.46855 0.0
C225 C 0.91833 0.96852 0.40825 0.0
H226 H 0.8926 0.9548 0.39724 0.0
H227 H 0.93244 0.95292 0.44214 0.0
H228 H 0.93588 0.96924 0.36966 0.0
O229 O 0.86803 0.06903 0.29037 0.0
O230 O 0.86956 0.12056 0.34056 0.0
H231 H 0.95683 0.09325 0.49865 0.0
H232 H 0.91849 0.09142 0.54563 0.0
C233 C 0.9268 0.09247 0.49993 0.0
H234 H 0.91575 0.1173 0.47998 0.0
H235 H 0.85637 0.17687 0.43639 0.0
O236 O 0.87806 0.98303 0.29449 0.0
C237 C 0.87188 0.10335 0.29309 0.0
Co238 Co 0.45984 0.84379 0.34069 0.0
Co239 Co 0.3908 0.83877 0.41008 0.0
C240 C 0.43722 0.77812 0.36129 0.0
O241 O 0.46443 0.79679 0.37443 0.0
O242 O 0.40629 0.79005 0.37638 0.0
C243 C 0.53443 0.84771 0.29646 0.0
O244 O 0.54648 0.82843 0.33969 0.0
C245 C 0.37103 0.83174 0.52969 0.0
C246 C 0.31308 0.84561 0.52869 0.0
C247 C 0.34233 0.84099 0.56529 0.0
N248 N 0.35968 0.83233 0.47487 0.0
N249 N 0.32461 0.83924 0.47467 0.0
C250 C 0.40982 0.82764 0.54692 0.0
H251 H 0.42718 0.82186 0.509 0.0
H252 H 0.41936 0.85243 0.56911 0.0
H253 H 0.41217 0.80503 0.57791 0.0
C254 C 0.47743 0.9047 0.41614 0.0
N255 N 0.45678 0.87665 0.39958 0.0
N256 N 0.4265 0.87608 0.42914 0.0
C257 C 0.42633 0.90541 0.46426 0.0
C258 C 0.45904 0.92375 0.4582 0.0
C259 C 0.51221 0.91534 0.38768 0.0
H260 H 0.53269 0.89392 0.39493 0.0
H261 H 0.52277 0.94138 0.4044 0.0
H262 H 0.50786 0.91797 0.3408 0.0
O263 O 0.41586 0.84911 0.29066 0.0
O264 O 0.3649 0.85576 0.34156 0.0
H265 H 0.39088 0.9474 0.49538 0.0
H266 H 0.39933 0.91169 0.5449 0.0
C267 C 0.39448 0.91772 0.49897 0.0
H268 H 0.36944 0.90414 0.48436 0.0
H269 H 0.30942 0.84324 0.43753 0.0
O270 O 0.50093 0.85443 0.29244 0.0
C271 C 0.38178 0.85484 0.29361 0.0
Co272 Co 0.34101 0.98587 0.84873 0.0
Co273 Co 0.34135 0.911 0.90624 0.0
C274 C 0.27623 0.95421 0.86136 0.0
O275 O 0.29118 0.984 0.87388 0.0
O276 O 0.29195 0.925 0.87597 0.0
C277 C 0.33565 0.05079 0.77468 0.0
O278 O 0.30716 0.03709 0.7491 0.0
C279 C 0.32933 0.88751 0.02163 0.0
C280 C 0.34608 0.83033 0.02258 0.0
C281 C 0.33561 0.8587 0.05826 0.0
N282 N 0.33634 0.87704 0.96747 0.0
N283 N 0.3457 0.84254 0.96798 0.0
C284 C 0.31823 0.92519 0.03761 0.0
H285 H 0.34266 0.94214 0.04372 0.0
H286 H 0.30235 0.92526 0.07815 0.0
H287 H 0.3021 0.93733 0.00243 0.0
C288 C 0.39901 0.00096 0.92976 0.0
N289 N 0.37162 0.98031 0.91071 0.0
N290 N 0.37439 0.94769 0.93199 0.0
C291 C 0.40508 0.94604 0.96336 0.0
C292 C 0.42146 0.98001 0.96345 0.0
C293 C 0.40643 0.03847 0.90916 0.0
H294 H 0.38104 0.05443 0.91126 0.0
H295 H 0.42741 0.05212 0.93536 0.0
H296 H 0.41585 0.03731 0.8639 0.0
O297 O 0.34948 0.94509 0.79233 0.0
O298 O 0.36017 0.89162 0.83322 0.0
H299 H 0.45 0.91385 0.99386 0.0
H300 H 0.40745 0.90626 0.02928 0.0
C301 C 0.42035 0.91176 0.9872 0.0
H302 H 0.41417 0.88876 0.95809 0.0
H303 H 0.35397 0.82801 0.93174 0.0
O304 O 0.35151 0.03304 0.8138 0.0
C305 C 0.35696 0.9113 0.78833 0.0
Co306 Co 0.52265 0.33544 0.85915 0.0
Co307 Co 0.59349 0.3312 0.92254 0.0
C308 C 0.54812 0.26966 0.86918 0.0
O309 O 0.51952 0.28612 0.88309 0.0
O310 O 0.57831 0.28352 0.88403 0.0
C311 C 0.44909 0.34146 0.80491 0.0
O312 O 0.43504 0.31318 0.83063 0.0
C313 C 0.61702 0.32137 0.04034 0.0
C314 C 0.67558 0.33168 0.03419 0.0
C315 C 0.64765 0.32696 0.07347 0.0
N316 N 0.6263 0.32326 0.98453 0.0
N317 N 0.66162 0.32825 0.9811 0.0
C318 C 0.57874 0.31971 0.06137 0.0
H319 H 0.55986 0.3144 0.02539 0.0
H320 H 0.57146 0.34548 0.08308 0.0
H321 H 0.57596 0.29777 0.0934 0.0
C322 C 0.50426 0.39195 0.94124 0.0
N323 N 0.52528 0.36454 0.92298 0.0
N324 N 0.55725 0.36645 0.94693 0.0
C325 C 0.55828 0.39711 0.97894 0.0
C326 C 0.52446 0.41402 0.9767 0.0
C327 C 0.46716 0.39977 0.91896 0.0
H328 H 0.45239 0.37413 0.91153 0.0
H329 H 0.45151 0.4167 0.94963 0.0
H330 H 0.46947 0.41476 0.87805 0.0
O331 O 0.56575 0.3454 0.80825 0.0
O332 O 0.61773 0.35191 0.85558 0.0
H333 H 0.61627 0.39858 0.98795 0.0
H334 H 0.59354 0.44158 0.9996 0.0
C335 C 0.59183 0.41191 0.00602 0.0
H336 H 0.59079 0.40698 0.05296 0.0
H337 H 0.67564 0.33253 0.94275 0.0
O338 O 0.48168 0.3501 0.81398 0.0
C339 C 0.59958 0.35265 0.80908 0.0
Co340 Co 0.14958 0.52149 0.83707 0.0
Co341 Co 0.14567 0.59331 0.9013 0.0
C342 C 0.21132 0.54986 0.86689 0.0
O343 O 0.19375 0.522 0.88044 0.0
O344 O 0.19709 0.58016 0.87928 0.0
C345 C 0.15758 0.44657 0.81255 0.0
O346 O 0.17034 0.44496 0.86507 0.0
C347 C 0.15093 0.61019 0.02099 0.0
C348 C 0.14356 0.66921 0.02718 0.0
C349 C 0.14778 0.63824 0.06004 0.0
N350 N 0.14845 0.62358 0.96765 0.0
N351 N 0.14468 0.65907 0.97139 0.0
C352 C 0.15542 0.57085 0.03422 0.0
H353 H 0.16749 0.55638 0.99695 0.0
H354 H 0.12864 0.55874 0.0437 0.0
H355 H 0.1727 0.56737 0.07273 0.0
C356 C 0.08394 0.50342 0.90346 0.0
N357 N 0.11185 0.52489 0.88876 0.0
N358 N 0.10916 0.55615 0.91546 0.0
C359 C 0.07811 0.55596 0.94646 0.0
C360 C 0.06174 0.52227 0.94095 0.0
C361 C 0.07741 0.46644 0.87934 0.0
H362 H 0.08151 0.46664 0.83216 0.0
H363 H 0.09715 0.44741 0.89842 0.0
H364 H 0.04965 0.45677 0.88909 0.0
O365 O 0.14713 0.56435 0.78461 0.0
O366 O 0.13367 0.61671 0.82754 0.0
H367 H 0.07873 0.61263 0.96931 0.0
H368 H 0.03446 0.59231 0.96536 0.0
C369 C 0.06299 0.58781 0.97819 0.0
H370 H 0.06294 0.58201 0.02483 0.0
H371 H 0.14132 0.67611 0.93617 0.0
O372 O 0.14751 0.4768 0.79237 0.0
C373 C 0.1405 0.5983 0.78199 0.0
Co374 Co 0.9795 0.1444 0.85732 0.0
Co375 Co 0.90279 0.1404 0.90708 0.0
C376 C 0.94426 0.208 0.86666 0.0
O377 O 0.97515 0.19499 0.87765 0.0
O378 O 0.9161 0.18921 0.87607 0.0
C379 C 0.04815 0.15587 0.7958 0.0
O380 O 0.037 0.18849 0.7823 0.0
C381 C 0.88142 0.15782 0.01994 0.0
C382 C 0.82641 0.1362 0.03025 0.0
C383 C 0.85522 0.15078 0.06075 0.0
N384 N 0.86926 0.14756 0.9682 0.0
N385 N 0.83581 0.13552 0.97412 0.0
C386 C 0.9194 0.17006 0.03099 0.0
H387 H 0.93659 0.14639 0.0414 0.0
H388 H 0.92008 0.18899 0.06811 0.0
H389 H 0.93078 0.18331 0.9923 0.0
C390 C 0.99474 0.08884 0.94159 0.0
N391 N 0.97337 0.11489 0.92023 0.0
N392 N 0.9399 0.10951 0.93661 0.0
C393 C 0.93863 0.07867 0.96752 0.0
C394 C 0.97341 0.0645 0.9714 0.0
C395 C 0.03427 0.08544 0.92899 0.0
H396 H 0.04697 0.11263 0.92951 0.0
H397 H 0.04778 0.06776 0.96087 0.0
H398 H 0.03792 0.0735 0.88561 0.0
O399 O 0.94043 0.13313 0.79949 0.0
O400 O 0.88572 0.11992 0.83435 0.0
H401 H 0.90456 0.03185 0.96673 0.0
H402 H 0.90298 0.05772 0.03168 0.0
C403 C 0.90443 0.05982 0.98425 0.0
H404 H 0.8804 0.07448 0.96804 0.0
H405 H 0.82073 0.12391 0.94103 0.0
O406 O 0.0277 0.13497 0.82444 0.0
C407 C 0.90734 0.12398 0.79171 0.0
Co408 Co 0.35267 0.52238 0.65107 0.0
Co409 Co 0.34193 0.5899 0.58068 0.0
C410 C 0.28435 0.54435 0.64419 0.0
O411 O 0.30228 0.51583 0.63547 0.0
O412 O 0.29652 0.57406 0.62432 0.0
C413 C 0.3574 0.45144 0.7042 0.0
O414 O 0.32728 0.44246 0.67806 0.0
C415 C 0.32368 0.60078 0.463 0.0
C416 C 0.33463 0.65857 0.44858 0.0
C417 C 0.32765 0.62629 0.42 0.0
N418 N 0.32912 0.6168 0.51407 0.0
N419 N 0.3346 0.65167 0.50545 0.0
C420 C 0.31777 0.56097 0.45561 0.0
H421 H 0.3043 0.54974 0.49432 0.0
H422 H 0.34408 0.54699 0.45015 0.0
H423 H 0.30117 0.55562 0.41685 0.0
C424 C 0.4047 0.50215 0.5615 0.0
N425 N 0.37817 0.52322 0.58293 0.0
N426 N 0.37806 0.55455 0.55686 0.0
C427 C 0.40681 0.55535 0.52061 0.0
C428 C 0.42425 0.52189 0.52194 0.0
C429 C 0.41434 0.46546 0.58341 0.0
H430 H 0.39026 0.45194 0.6016 0.0
H431 H 0.42542 0.44833 0.54833 0.0
H432 H 0.43565 0.46821 0.61643 0.0
O433 O 0.36178 0.56858 0.69556 0.0
O434 O 0.36295 0.61874 0.64233 0.0
H435 H 0.44057 0.60209 0.5191 0.0
H436 H 0.43389 0.58133 0.45006 0.0
C437 C 0.42038 0.58859 0.49117 0.0
H438 H 0.39819 0.60801 0.48347 0.0
H439 H 0.34156 0.67004 0.53769 0.0
O440 O 0.37007 0.48309 0.69843 0.0
C441 C 0.36634 0.60276 0.69052 0.0
Co442 Co 0.98783 0.36097 0.67631 0.0
Co443 Co 0.91788 0.35436 0.60387 0.0
C444 C 0.95872 0.29365 0.66066 0.0
O445 O 0.98803 0.31059 0.65358 0.0
O446 O 0.92995 0.30626 0.63878 0.0
C447 C 0.06355 0.35568 0.69733 0.0
O448 O 0.06389 0.33928 0.64723 0.0
C449 C 0.89249 0.34134 0.48729 0.0
C450 C 0.8346 0.35503 0.494 0.0
C451 C 0.86158 0.34632 0.45465 0.0
N452 N 0.88429 0.34733 0.54281 0.0
N453 N 0.84932 0.35434 0.54678 0.0
C454 C 0.93013 0.33527 0.46536 0.0
H455 H 0.94997 0.33585 0.50098 0.0
H456 H 0.93714 0.35598 0.4328 0.0
H457 H 0.93154 0.30847 0.44388 0.0
C458 C 0.00446 0.41946 0.59584 0.0
N459 N 0.98494 0.39048 0.61193 0.0
N460 N 0.95515 0.38864 0.58136 0.0
C461 C 0.95448 0.41746 0.54555 0.0
C462 C 0.98617 0.43736 0.55275 0.0
C463 C 0.03723 0.43285 0.62686 0.0
H464 H 0.03254 0.43204 0.67388 0.0
H465 H 0.0602 0.41481 0.61621 0.0
H466 H 0.04452 0.46082 0.61421 0.0
O467 O 0.94427 0.37051 0.72669 0.0
O468 O 0.89433 0.37412 0.67249 0.0
H469 H 0.92124 0.45851 0.50612 0.0
H470 H 0.92389 0.41647 0.46787 0.0
C471 C 0.92216 0.4287 0.51131 0.0
H472 H 0.89691 0.41931 0.5323 0.0
H473 H 0.83612 0.36131 0.58493 0.0
O474 O 0.034 0.36838 0.7172 0.0
C475 C 0.91016 0.37579 0.72111 0.0
Co476 Co 0.15774 0.99274 0.66191 0.0
Co477 Co 0.15873 0.91865 0.59499 0.0
C478 C 0.22006 0.96432 0.62826 0.0
O479 O 0.20214 0.99268 0.61819 0.0
O480 O 0.21066 0.93608 0.60078 0.0
C481 C 0.15826 0.06998 0.69257 0.0
O482 O 0.17648 0.07641 0.64518 0.0
C483 C 0.15673 0.89096 0.47798 0.0
C484 C 0.14045 0.83412 0.48941 0.0
C485 C 0.14593 0.86042 0.44783 0.0
N486 N 0.15676 0.88336 0.53448 0.0
N487 N 0.14803 0.84897 0.54094 0.0
C488 C 0.16241 0.92806 0.45412 0.0
H489 H 0.16708 0.94799 0.48906 0.0
H490 H 0.13866 0.93627 0.42817 0.0
H491 H 0.1863 0.92772 0.42514 0.0
C492 C 0.09112 0.00445 0.59701 0.0
N493 N 0.12097 0.98522 0.60941 0.0
N494 N 0.12029 0.95396 0.58217 0.0
C495 C 0.08867 0.95188 0.55312 0.0
C496 C 0.06937 0.98383 0.56148 0.0
C497 C 0.08424 0.04224 0.61769 0.0
H498 H 0.10796 0.05929 0.60716 0.0
H499 H 0.06004 0.05437 0.59731 0.0
H500 H 0.08067 0.04218 0.66501 0.0
O501 O 0.15616 0.95145 0.71697 0.0
O502 O 0.15122 0.89797 0.67316 0.0
H503 H 0.04472 0.91751 0.52607 0.0
H504 H 0.08283 0.91863 0.47838 0.0
C505 C 0.07472 0.91845 0.52424 0.0
H506 H 0.08585 0.89395 0.54499 0.0
H507 H 0.14474 0.83637 0.58065 0.0
O508 O 0.14983 0.03768 0.70538 0.0
C509 C 0.1532 0.91702 0.71906 0.0
Co510 Co 0.51374 0.14323 0.66226 0.0
Co511 Co 0.58211 0.14458 0.58733 0.0
C512 C 0.54198 0.20688 0.63866 0.0
O513 O 0.5137 0.18984 0.62577 0.0
O514 O 0.57153 0.19444 0.61912 0.0
C515 C 0.43871 0.14787 0.68348 0.0
O516 O 0.43897 0.16226 0.63199 0.0
C517 C 0.59362 0.15509 0.46703 0.0
C518 C 0.65102 0.14138 0.4531 0.0
C519 C 0.61912 0.14928 0.42438 0.0
N520 N 0.6093 0.15002 0.51833 0.0
N521 N 0.64392 0.14269 0.50996 0.0
C522 C 0.5542 0.16306 0.45942 0.0
H523 H 0.5385 0.13758 0.46163 0.0
H524 H 0.54918 0.17594 0.41718 0.0
H525 H 0.54454 0.18092 0.4947 0.0
C526 C 0.49414 0.08015 0.59179 0.0
N527 N 0.51483 0.10905 0.60444 0.0
N528 N 0.54468 0.10829 0.57362 0.0
C529 C 0.54453 0.07742 0.54204 0.0
C530 C 0.51201 0.05939 0.55133 0.0
C531 C 0.46046 0.06967 0.62346 0.0
H532 H 0.46401 0.07416 0.67017 0.0
H533 H 0.43777 0.08659 0.60806 0.0
H534 H 0.45337 0.04087 0.61612 0.0
O535 O 0.55905 0.13576 0.71001 0.0
O536 O 0.60859 0.12806 0.65482 0.0
H537 H 0.59366 0.04727 0.54357 0.0
H538 H 0.56867 0.04274 0.47776 0.0
C539 C 0.57692 0.06205 0.51188 0.0
H540 H 0.59398 0.08353 0.49353 0.0
H541 H 0.66204 0.13624 0.54264 0.0
O542 O 0.46859 0.13892 0.70655 0.0
C543 C 0.59305 0.12926 0.70402 0.0
C544 C 0.62049 0.89123 0.24087 0.0
C545 C 0.6066 0.91934 0.20699 0.0
C546 C 0.59713 0.86654 0.26771 0.0
C547 C 0.5594 0.86881 0.26005 0.0
H548 H 0.64929 0.88945 0.24899 0.0
H549 H 0.6086 0.8465 0.29621 0.0
S550 S 0.5105 0.9346 0.1676 0.0
N551 N 0.55337 0.9465 0.16371 0.0
N552 N 0.50994 0.89881 0.20951 0.0
C553 C 0.54571 0.89513 0.22217 0.0
C554 C 0.56921 0.92083 0.19695 0.0
C555 C 0.60402 0.55707 0.24327 0.0
C556 C 0.63164 0.57229 0.27697 0.0
C557 C 0.575 0.57758 0.22485 0.0
C558 C 0.57335 0.61492 0.23474 0.0
H559 H 0.60303 0.52831 0.2343 0.0
H560 H 0.55328 0.56349 0.20362 0.0
S561 S 0.64154 0.66973 0.3125 0.0
N562 N 0.65713 0.62786 0.31612 0.0
N563 N 0.60351 0.66751 0.27546 0.0
C564 C 0.60218 0.63149 0.26405 0.0
C565 C 0.63126 0.60999 0.28603 0.0
C566 C 0.90371 0.5669 0.252 0.0
C567 C 0.87067 0.5783 0.2285 0.0
C568 C 0.92872 0.59146 0.27268 0.0
C569 C 0.92157 0.62877 0.27356 0.0
H570 H 0.91138 0.53861 0.25267 0.0
H571 H 0.95417 0.58063 0.28769 0.0
S572 S 0.83787 0.67305 0.22103 0.0
N573 N 0.83126 0.62952 0.20853 0.0
N574 N 0.87821 0.67627 0.25113 0.0
C575 C 0.88806 0.64088 0.2523 0.0
C576 C 0.86262 0.61554 0.22915 0.0
C577 C 0.88319 0.85825 0.23368 0.0
C578 C 0.92069 0.85963 0.22315 0.0
C579 C 0.86417 0.88882 0.25296 0.0
C580 C 0.88186 0.92204 0.262 0.0
H581 H 0.86828 0.83341 0.22671 0.0
H582 H 0.83539 0.88628 0.26094 0.0
S583 S 0.98024 0.93963 0.2423 0.0
N584 N 0.9752 0.89647 0.22604 0.0
N585 N 0.93931 0.9544 0.25838 0.0
C586 C 0.9194 0.9238 0.25122 0.0
C587 C 0.93885 0.89248 0.23299 0.0
C588 C 0.37842 0.10165 0.78933 0.0
C589 C 0.35353 0.08389 0.75339 0.0
C590 C 0.40393 0.12562 0.76704 0.0
C591 C 0.40498 0.13326 0.70813 0.0
H592 H 0.37991 0.09518 0.83445 0.0
H593 H 0.42456 0.13621 0.79548 0.0
S594 S 0.33951 0.10148 0.59844 0.0
N595 N 0.32704 0.0808 0.65803 0.0
N596 N 0.37438 0.12708 0.6161 0.0
C597 C 0.37698 0.11984 0.67311 0.0
C598 C 0.35128 0.0948 0.6958 0.0
C599 C 0.36654 0.38932 0.74461 0.0
C600 C 0.38053 0.42357 0.73061 0.0
C601 C 0.38891 0.36227 0.76747 0.0
C602 C 0.42614 0.36834 0.77541 0.0
H603 H 0.33808 0.38351 0.73856 0.0
H604 H 0.37691 0.33664 0.77932 0.0
S605 S 0.47646 0.45314 0.74239 0.0
N606 N 0.43396 0.46218 0.72716 0.0
N607 N 0.47635 0.41074 0.76363 0.0
C608 C 0.4406 0.40217 0.75933 0.0
C609 C 0.41769 0.43 0.73886 0.0
C610 C 0.12005 0.39115 0.69297 0.0
C611 C 0.09745 0.36762 0.72367 0.0
C612 C 0.14354 0.4144 0.72213 0.0
C613 C 0.1457 0.41379 0.7824 0.0
H614 H 0.11685 0.39441 0.64709 0.0
H615 H 0.15755 0.43513 0.69794 0.0
S616 S 0.10073 0.34847 0.8794 0.0
N617 N 0.08455 0.33911 0.81501 0.0
N618 N 0.12991 0.38176 0.87005 0.0
C619 C 0.12778 0.38616 0.81224 0.0
C620 C 0.10315 0.36326 0.78266 0.0
C621 C 0.12665 0.09198 0.77957 0.0
C622 C 0.13907 0.09915 0.7237 0.0
C623 C 0.09918 0.11268 0.80443 0.0
C624 C 0.08295 0.14132 0.77444 0.0
H625 H 0.13642 0.06858 0.80279 0.0
H626 H 0.08928 0.10484 0.84627 0.0
S627 S 0.11117 0.17619 0.63219 0.0
N628 N 0.13742 0.14064 0.64281 0.0
N629 N 0.08541 0.17976 0.69004 0.0
C630 C 0.09797 0.15153 0.72142 0.0
C631 C 0.12619 0.13034 0.69588 0.0
C632 C 0.76138 0.08205 0.27263 0.0
C633 C 0.76146 0.05237 0.31058 0.0
C634 C 0.74322 0.08044 0.21975 0.0
C635 C 0.72465 0.049 0.20259 0.0
H636 H 0.77726 0.10592 0.28215 0.0
H637 H 0.7443 0.10374 0.19172 0.0
S638 S 0.71268 0.96589 0.29105 0.0
N639 N 0.73854 0.99241 0.33047 0.0
N640 N 0.70458 0.98881 0.23182 0.0
C641 C 0.72312 0.01988 0.24192 0.0
C642 C 0.74128 0.02179 0.29572 0.0
C643 C 0.40935 0.72864 0.22404 0.0
C644 C 0.4423 0.72515 0.1937 0.0
C645 C 0.40801 0.74429 0.27918 0.0
C646 C 0.43962 0.75675 0.30673 0.0
H647 H 0.38453 0.7179 0.20621 0.0
H648 H 0.38195 0.74657 0.30029 0.0
S649 S 0.53254 0.75535 0.24429 0.0
N650 N 0.5067 0.73815 0.19352 0.0
N651 N 0.50498 0.7643 0.29833 0.0
C652 C 0.47266 0.75357 0.2764 0.0
C653 C 0.47372 0.73897 0.21962 0.0
C654 C 0.75516 0.41358 0.23242 0.0
C655 C 0.76289 0.44628 0.20381 0.0
C656 C 0.74273 0.41316 0.28949 0.0
C657 C 0.7373 0.44544 0.32092 0.0
H658 H 0.75942 0.38786 0.21101 0.0
H659 H 0.73662 0.3872 0.30859 0.0
S660 S 0.7536 0.53854 0.26662 0.0
N661 N 0.76327 0.512 0.21161 0.0
N662 N 0.74181 0.51112 0.31913 0.0
C663 C 0.74529 0.47832 0.29305 0.0
C664 C 0.75719 0.47878 0.23455 0.0
C665 C 0.02294 0.74483 0.26631 0.0
C666 C 0.05338 0.74286 0.30251 0.0
C667 C 0.02611 0.75486 0.20865 0.0
C668 C 0.05974 0.76417 0.18423 0.0
H669 H 0.99645 0.73686 0.28166 0.0
H670 H 0.00174 0.75511 0.18289 0.0
S671 S 0.14719 0.76891 0.26263 0.0
N672 N 0.11782 0.75503 0.31126 0.0
N673 N 0.12398 0.77354 0.20267 0.0
C674 C 0.0903 0.76394 0.22054 0.0
C675 C 0.08698 0.75383 0.27965 0.0
C676 C 0.2325 0.98971 0.72638 0.0
C677 C 0.23271 0.95968 0.68885 0.0
C678 C 0.24268 0.98664 0.78403 0.0
C679 C 0.25473 0.95362 0.80701 0.0
H680 H 0.22475 0.01623 0.7111 0.0
H681 H 0.24307 0.01104 0.80995 0.0
S682 S 0.25716 0.86556 0.729 0.0
N683 N 0.24344 0.89488 0.68042 0.0
N684 N 0.26286 0.88911 0.78862 0.0
C685 C 0.25335 0.9228 0.77091 0.0
C686 C 0.2428 0.92591 0.7119 0.0
C687 C 0.5766 0.23142 0.72379 0.0
C688 C 0.54319 0.22428 0.69677 0.0
C689 C 0.57834 0.24336 0.78115 0.0
C690 C 0.54675 0.24849 0.81438 0.0
H691 H 0.6018 0.22763 0.70064 0.0
H692 H 0.60467 0.24972 0.79882 0.0
S693 S 0.45244 0.23227 0.76512 0.0
N694 N 0.47772 0.22361 0.70826 0.0
N695 N 0.48106 0.24321 0.81649 0.0
C696 C 0.51327 0.24021 0.78844 0.0
C697 C 0.51146 0.22919 0.72965 0.0
C698 C 0.23966 0.57999 0.78057 0.0
C699 C 0.23247 0.54818 0.81203 0.0
C700 C 0.25392 0.57861 0.72458 0.0
C701 C 0.26149 0.54537 0.69718 0.0
H702 H 0.23376 0.60633 0.79889 0.0
H703 H 0.25982 0.60392 0.70325 0.0
S704 S 0.24771 0.45412 0.76025 0.0
N705 N 0.23558 0.48244 0.8117 0.0
N706 N 0.25923 0.47979 0.70544 0.0
C707 C 0.25368 0.5134 0.72768 0.0
C708 C 0.24036 0.51482 0.78529 0.0
C709 C 0.92304 0.22575 0.76917 0.0
C710 C 0.94274 0.23429 0.81926 0.0
C711 C 0.92872 0.24454 0.71761 0.0
C712 C 0.95439 0.27245 0.71429 0.0
H713 H 0.90434 0.20324 0.76893 0.0
H714 H 0.91345 0.23673 0.67991 0.0
S715 S 0.00605 0.31041 0.83743 0.0
N716 N 0.98438 0.27553 0.86481 0.0
N717 N 0.99496 0.3115 0.76887 0.0
C718 C 0.97228 0.28275 0.76541 0.0
C719 C 0.96642 0.26357 0.81761 0.0
C720 C 0.65724 0.15316 0.82408 0.0
C721 C 0.64534 0.13034 0.86846 0.0
C722 C 0.64238 0.15061 0.76866 0.0
C723 C 0.6146 0.12574 0.75662 0.0
H724 H 0.67711 0.17398 0.83285 0.0
H725 H 0.6509 0.16978 0.73625 0.0
S726 S 0.57413 0.0598 0.85697 0.0
N727 N 0.60463 0.08151 0.8955 0.0
N728 N 0.57662 0.07736 0.79206 0.0
C729 C 0.60336 0.10212 0.79987 0.0
C730 C 0.61874 0.10427 0.85572 0.0
C731 C 0.39586 0.62432 0.84056 0.0
C732 C 0.36783 0.64696 0.86065 0.0
C733 C 0.39709 0.61264 0.78338 0.0
C734 C 0.37073 0.62361 0.74389 0.0
H735 H 0.41548 0.61313 0.86983 0.0
H736 H 0.41756 0.59312 0.77079 0.0
S737 S 0.29287 0.68417 0.77337 0.0
N738 N 0.31391 0.68106 0.8357 0.0
N739 N 0.31675 0.65958 0.72752 0.0
C740 C 0.3438 0.64789 0.76225 0.0
C741 C 0.34214 0.65934 0.82089 0.0
C742 C 0.84695 0.34672 0.83942 0.0
C743 C 0.85683 0.36976 0.88482 0.0
C744 C 0.86206 0.35097 0.78443 0.0
C745 C 0.88825 0.37775 0.77375 0.0
H746 H 0.82846 0.32451 0.84699 0.0
H747 H 0.85509 0.33163 0.75118 0.0
S748 S 0.92276 0.44553 0.87695 0.0
N749 N 0.89333 0.42147 0.9141 0.0
N750 N 0.92251 0.4282 0.81155 0.0
C751 C 0.89749 0.40158 0.81802 0.0
C752 C 0.88157 0.3979 0.87346 0.0
C753 C 0.15556 0.92261 0.82569 0.0
C754 C 0.15444 0.89993 0.77685 0.0
C755 C 0.15825 0.90855 0.88104 0.0
C756 C 0.15967 0.87118 0.89036 0.0
H757 H 0.15438 0.95176 0.82153 0.0
H758 H 0.15848 0.92719 0.91708 0.0
S759 S 0.15951 0.79955 0.77871 0.0
N760 N 0.15647 0.83766 0.74212 0.0
N761 N 0.16086 0.81134 0.84721 0.0
C762 C 0.15885 0.8479 0.8426 0.0
C763 C 0.15641 0.86224 0.78563 0.0
C764 C 0.64747 0.33859 0.73642 0.0
C765 C 0.61746 0.35948 0.75359 0.0
C766 C 0.65951 0.33878 0.67905 0.0
C767 C 0.64245 0.36053 0.63772 0.0
H768 H 0.66019 0.32031 0.76653 0.0
H769 H 0.68158 0.32108 0.66657 0.0
S770 S 0.56377 0.4212 0.66219 0.0
N771 N 0.57182 0.40319 0.72566 0.0
N772 N 0.59463 0.404 0.61854 0.0
C773 C 0.61346 0.38265 0.65522 0.0
C774 C 0.60094 0.38204 0.71308 0.0
C775 C 0.13488 0.65292 0.71757 0.0
C776 C 0.14405 0.6162 0.72502 0.0
C777 C 0.13882 0.66987 0.66385 0.0
C778 C 0.15281 0.65091 0.61624 0.0
H779 H 0.12418 0.66857 0.75318 0.0
H780 H 0.13064 0.69786 0.6594 0.0
S781 S 0.18096 0.55462 0.61198 0.0
N782 N 0.1677 0.56158 0.67876 0.0
N783 N 0.17567 0.59377 0.57945 0.0
C784 C 0.16266 0.61455 0.62324 0.0
C785 C 0.1581 0.59711 0.67715 0.0
C786 C 0.8413 0.12406 0.66608 0.0
C787 C 0.86218 0.13915 0.62167 0.0
C788 C 0.85628 0.11777 0.72063 0.0
C789 C 0.89294 0.12546 0.73209 0.0
H790 H 0.8131 0.11757 0.65883 0.0
H791 H 0.83888 0.10732 0.75418 0.0
S792 S 0.95963 0.16278 0.62762 0.0
N793 N 0.92131 0.16067 0.59172 0.0
N794 N 0.95013 0.14718 0.69213 0.0
C795 C 0.91432 0.13934 0.6868 0.0
C796 C 0.89875 0.14674 0.63226 0.0
C797 C 0.36014 0.83988 0.66944 0.0
C798 C 0.34582 0.85857 0.62222 0.0
C799 C 0.36474 0.85724 0.72284 0.0
C800 C 0.35605 0.89414 0.73034 0.0
H801 H 0.36734 0.81158 0.66528 0.0
H802 H 0.37483 0.84152 0.75854 0.0
S803 S 0.32035 0.95559 0.61741 0.0
N804 N 0.32423 0.91596 0.58529 0.0
N805 N 0.3341 0.94903 0.68384 0.0
C806 C 0.34283 0.91327 0.68235 0.0
C807 C 0.33733 0.89537 0.62883 0.0
C808 C 0.37225 0.88795 0.20294 0.0
C809 C 0.36248 0.85926 0.23899 0.0
C810 C 0.36157 0.88855 0.14535 0.0
C811 C 0.34116 0.86014 0.12134 0.0
H812 H 0.38986 0.9092 0.21866 0.0
H813 H 0.37152 0.91032 0.11881 0.0
S814 S 0.30854 0.77881 0.19839 0.0
N815 N 0.33067 0.80213 0.24773 0.0
N816 N 0.31099 0.80282 0.13875 0.0
C817 C 0.33043 0.83168 0.15748 0.0
C818 C 0.3409 0.83139 0.21655 0.0
C819 C 0.65701 0.39366 0.19523 0.0
C820 C 0.64393 0.37478 0.24355 0.0
C821 C 0.65901 0.37738 0.14116 0.0
C822 C 0.64787 0.34152 0.13265 0.0
H823 H 0.66598 0.42147 0.19884 0.0
H824 H 0.66863 0.39338 0.10532 0.0
S825 S 0.61351 0.27902 0.2442 0.0
N826 N 0.62096 0.31727 0.27917 0.0
N827 N 0.62478 0.28674 0.17662 0.0
C828 C 0.63526 0.32188 0.18017 0.0
C829 C 0.63335 0.33845 0.23582 0.0
C830 C 0.11003 0.61387 0.13941 0.0
C831 C 0.13965 0.63497 0.12192 0.0
C832 C 0.09877 0.6133 0.19676 0.0
C833 C 0.11712 0.63327 0.23902 0.0
H834 H 0.09428 0.59908 0.10817 0.0
H835 H 0.07464 0.59815 0.20777 0.0
S836 S 0.1982 0.69051 0.21592 0.0
N837 N 0.18829 0.67489 0.15128 0.0
N838 N 0.16774 0.67316 0.26005 0.0
C839 C 0.14799 0.65302 0.22267 0.0
C840 C 0.15901 0.65417 0.16378 0.0
C841 C 0.89431 0.10785 0.19347 0.0
C842 C 0.87337 0.12272 0.23805 0.0
C843 C 0.88913 0.11843 0.1366 0.0
C844 C 0.86251 0.14396 0.12202 0.0
H845 H 0.91353 0.08642 0.20228 0.0
H846 H 0.90486 0.10506 0.10349 0.0
S847 S 0.80169 0.19234 0.22289 0.0
N848 N 0.82622 0.16575 0.26441 0.0
N849 N 0.81607 0.18514 0.15652 0.0
C850 C 0.84229 0.16015 0.1662 0.0
C851 C 0.84798 0.14979 0.22457 0.0
C852 C 0.38126 0.59119 0.293 0.0
C853 C 0.36898 0.61282 0.24769 0.0
C854 C 0.36593 0.59407 0.34783 0.0
C855 C 0.3381 0.61909 0.35964 0.0
H856 H 0.40407 0.57314 0.28668 0.0
H857 H 0.37781 0.57828 0.38192 0.0
S858 S 0.2964 0.68201 0.25563 0.0
N859 N 0.32683 0.65953 0.2175 0.0
N860 N 0.29857 0.66552 0.3214 0.0
C861 C 0.32489 0.6402 0.31435 0.0
C862 C 0.34008 0.63681 0.25808 0.0
C863 C 0.85224 0.40546 0.32445 0.0
C864 C 0.863 0.38303 0.27827 0.0
C865 C 0.85114 0.39276 0.38068 0.0
C866 C 0.86092 0.35711 0.3937 0.0
H867 H 0.84425 0.4333 0.31749 0.0
H868 H 0.84316 0.41136 0.41452 0.0
S869 S 0.88965 0.28643 0.28994 0.0
N870 N 0.8826 0.32258 0.24986 0.0
N871 N 0.88079 0.29888 0.35677 0.0
C872 C 0.87152 0.33404 0.34862 0.0
C873 C 0.87241 0.34692 0.29064 0.0
C874 C 0.13888 0.87014 0.2851 0.0
C875 C 0.10309 0.85889 0.27394 0.0
C876 C 0.15282 0.87058 0.34135 0.0
C877 C 0.13172 0.85921 0.3883 0.0
H878 H 0.15638 0.87843 0.25018 0.0
H879 H 0.18044 0.87938 0.34802 0.0
S880 S 0.03631 0.82846 0.38364 0.0
N881 N 0.04664 0.83721 0.31618 0.0
N882 N 0.07323 0.83745 0.4206 0.0
C883 C 0.09604 0.84809 0.37795 0.0
C884 C 0.08162 0.84814 0.3212 0.0
C885 C 0.63046 0.1472 0.26279 0.0
C886 C 0.60949 0.11699 0.24701 0.0
C887 C 0.63226 0.1587 0.32025 0.0
C888 C 0.61236 0.141 0.36323 0.0
H889 H 0.64762 0.16036 0.23138 0.0
H890 H 0.6503 0.18069 0.33147 0.0
S891 S 0.55102 0.06253 0.34275 0.0
N892 N 0.567 0.071 0.27791 0.0
N893 N 0.56941 0.09316 0.38533 0.0
C894 C 0.58957 0.11224 0.34718 0.0
C895 C 0.58834 0.10011 0.28911 0.0
C896 C 0.50071 0.02861 0.03163 0.0
C897 C 0.53017 0.01684 0.99801 0.0
C898 C 0.46567 0.01535 0.02182 0.0
C899 C 0.45907 0.98969 0.97846 0.0
H900 H 0.5049 0.04768 0.0664 0.0
H901 H 0.4435 0.0255 0.04784 0.0
S902 S 0.52666 0.95131 0.87742 0.0
N903 N 0.55033 0.97864 0.91914 0.0
N904 N 0.48439 0.954 0.90038 0.0
C905 C 0.48821 0.97787 0.94445 0.0
C906 C 0.52382 0.99135 0.95437 0.0
C907 C 0.4875 0.45782 0.03388 0.0
C908 C 0.51421 0.45159 0.99188 0.0
C909 C 0.47321 0.4926 0.04308 0.0
C910 C 0.48485 0.52217 0.01004 0.0
H911 H 0.47731 0.43553 0.0593 0.0
H912 H 0.45343 0.49657 0.07697 0.0
S913 S 0.55298 0.51986 0.89321 0.0
N914 N 0.55068 0.47753 0.91554 0.0
N915 N 0.52431 0.54305 0.93368 0.0
C916 C 0.51133 0.51626 0.96775 0.0
C917 C 0.52586 0.4809 0.95837 0.0
C918 C 0.99446 0.5236 0.95404 0.0
C919 C 0.02825 0.50893 0.96865 0.0
C920 C 0.96247 0.51034 0.97891 0.0
C921 C 0.96326 0.48212 0.01931 0.0
H922 H 0.99273 0.54514 0.92276 0.0
H923 H 0.93688 0.5223 0.96658 0.0
S924 S 0.0452 0.43543 0.07289 0.0
N925 N 0.06082 0.46493 0.02581 0.0
N926 N 0.0008 0.44072 0.07383 0.0
C927 C 0.99693 0.46732 0.03424 0.0
C928 C 0.02942 0.48059 0.00855 0.0
C929 C 0.9932 0.98165 0.06142 0.0
C930 C 0.00805 0.95738 0.02093 0.0
C931 C 0.98121 0.01612 0.04499 0.0
C932 C 0.98382 0.02731 0.98764 0.0
H933 H 0.99142 0.97415 0.10626 0.0
H934 H 0.97055 0.03435 0.07742 0.0
S935 S 0.01772 0.97276 0.86469 0.0
N936 N 0.02307 0.94621 0.92096 0.0
N937 N -0.00014 0.01068 0.88969 0.0
C938 C 0.99774 0.00295 0.9466 0.0
C939 C 0.01017 0.96805 0.96339 0.0
C940 C 0.46515 0.48312 0.46215 0.0
C941 C 0.46084 0.51199 0.50111 0.0
C942 C 0.49968 0.46973 0.44808 0.0
C943 C 0.5309 0.48477 0.47275 0.0
H944 H 0.44159 0.47046 0.44318 0.0
H945 H 0.50201 0.44774 0.4174 0.0
S946 S 0.53415 0.55942 0.57907 0.0
N947 N 0.49058 0.55411 0.56575 0.0
N948 N 0.55547 0.52945 0.53843 0.0
C949 C 0.52694 0.51355 0.51173 0.0
C950 C 0.49188 0.52708 0.52613 0.0
C951 C 0.03443 0.51272 0.47315 0.0
C952 C 0.01929 0.54412 0.49771 0.0
C953 C 0.0228 0.47813 0.49 0.0
C954 C 0.99519 0.47389 0.53108 0.0
H955 H 0.05499 0.51494 0.4401 0.0
H956 H 0.03551 0.45454 0.47092 0.0
S957 S 0.94774 0.54734 0.60942 0.0
N958 N 0.97601 0.56869 0.56613 0.0
N959 N 0.95397 0.5037 0.59733 0.0
C960 C 0.98003 0.50499 0.55611 0.0
C961 C 0.99207 0.54013 0.53941 0.0
C962 C 0.02685 0.99263 0.47988 0.0
C963 C 0.03317 0.99339 0.53925 0.0
C964 C 0.99347 0.00355 0.45744 0.0
C965 C 0.96523 0.01535 0.49367 0.0
H966 H 0.04809 0.98422 0.45054 0.0
H967 H 0.98987 0.00312 0.4113 0.0
S968 S 0.96734 0.0199 0.65246 0.0
N969 N 0.00798 0.00505 0.63416 0.0
N970 N 0.94521 0.02584 0.59166 0.0
C971 C 0.97103 0.01579 0.55311 0.0
C972 C 0.00499 0.00458 0.57602 0.0
C973 C 0.45382 0.99058 0.47377 0.0
C974 C 0.47129 0.95771 0.48567 0.0
C975 C 0.46754 0.02342 0.49482 0.0
C976 C 0.49942 0.02445 0.52764 0.0
H977 H 0.42993 0.991 0.44695 0.0
H978 H 0.45331 0.04827 0.48499 0.0
S979 S 0.55425 0.94564 0.57255 0.0
N980 N 0.52141 0.92798 0.53349 0.0
N981 N 0.5471 0.98976 0.57322 0.0
C982 C 0.51688 0.99177 0.54032 0.0
C983 C 0.50284 0.95836 0.51918 0.0
loop_
_geom_bond_atom_site_label_1
_geom_bond_atom_site_label_2
_geom_bond_distance
_geom_bond_site_symmetry_2
_ccdc_geom_bond_type
Co0 O3 1.970 . S
Co0 N17 1.989 . S
Co0 O25 1.967 . S
Co0 O32 1.920 1_545 S
Co1 O4 1.966 . S
Co1 N10 2.022 . S
Co1 N18 1.993 . S
Co1 O26 1.941 . S
C2 O3 1.258 . S
C2 O4 1.263 . S
O3 Co0 1.970 . S
O3 C2 1.258 . S
O4 Co1 1.966 . S
O4 C2 1.263 . S
C5 O6 1.235 . S
C5 O32 1.289 . S
O6 C5 1.235 . S
C7 C9 1.400 . S
C7 N10 1.351 1_556 S
C7 C12 1.501 . S
C8 C9 1.387 . S
C8 N11 1.341 . S
C9 C7 1.400 . S
C9 C8 1.387 . S
N10 Co1 2.022 . S
N10 C7 1.351 1_554 S
N10 N11 1.365 1_554 S
N11 C8 1.341 . S
N11 N10 1.365 1_556 S
N11 H31 0.862 1_556 S
C12 C7 1.501 . S
C12 H13 0.961 1_556 S
C12 H14 0.961 . S
C12 H15 0.960 . S
H13 C12 0.961 1_554 S
H14 C12 0.961 . S
H15 C12 0.960 . S
C16 N17 1.342 . S
C16 C20 1.401 . S
C16 C21 1.499 1_545 S
N17 Co0 1.989 . S
N17 C16 1.342 . S
N17 N18 1.388 . S
N18 Co1 1.993 . S
N18 N17 1.388 . S
N18 C19 1.346 . S
C19 N18 1.346 . S
C19 C20 1.396 . S
C19 C29 1.510 1_554 S
C20 C16 1.401 . S
C20 C19 1.396 . S
C21 C16 1.499 1_565 S
C21 H22 0.959 . S
C21 H23 0.960 . S
C21 H24 0.961 . S
H22 C21 0.959 . S
H23 C21 0.960 . S
H24 C21 0.961 . S
O25 Co0 1.967 . S
O25 C33 1.258 . S
O26 Co1 1.941 . S
O26 C33 1.266 . S
H27 C29 0.959 . S
H28 C29 0.961 . S
C29 C19 1.510 1_556 S
C29 H27 0.959 . S
C29 H28 0.961 . S
C29 H30 0.960 . S
H30 C29 0.960 . S
H31 N11 0.862 1_554 S
O32 Co0 1.920 1_565 S
O32 C5 1.289 . S
C33 O25 1.258 . S
C33 O26 1.266 . S
Co34 O37 1.970 . S
Co34 N51 1.989 . S
Co34 O59 1.967 . S
Co34 O66 1.920 . S
Co35 O38 1.966 . S
Co35 N44 2.022 . S
Co35 N52 1.993 . S
Co35 O60 1.941 . S
C36 O37 1.258 . S
C36 O38 1.263 . S
O37 Co34 1.970 . S
O37 C36 1.258 . S
O38 Co35 1.966 . S
O38 C36 1.263 . S
C39 O40 1.235 . S
C39 O66 1.289 . S
O40 C39 1.235 . S
C41 C43 1.400 . S
C41 N44 1.351 1_556 S
C41 C46 1.501 . S
C42 C43 1.387 . S
C42 N45 1.341 . S
C43 C41 1.400 . S
C43 C42 1.387 . S
N44 Co35 2.022 . S
N44 C41 1.351 1_554 S
N44 N45 1.365 1_554 S
N45 C42 1.341 . S
N45 N44 1.365 1_556 S
N45 H65 0.862 1_556 S
C46 C41 1.501 . S
C46 H47 0.961 1_556 S
C46 H48 0.961 . S
C46 H49 0.960 . S
H47 C46 0.961 1_554 S
H48 C46 0.961 . S
H49 C46 0.960 . S
C50 N51 1.342 . S
C50 C54 1.401 . S
C50 C55 1.499 . S
N51 Co34 1.989 . S
N51 C50 1.342 . S
N51 N52 1.388 . S
N52 Co35 1.993 . S
N52 N51 1.388 . S
N52 C53 1.346 . S
C53 N52 1.346 . S
C53 C54 1.396 . S
C53 C63 1.510 1_554 S
C54 C50 1.401 . S
C54 C53 1.396 . S
C55 C50 1.499 . S
C55 H56 0.959 . S
C55 H57 0.960 . S
C55 H58 0.961 . S
H56 C55 0.959 . S
H57 C55 0.960 . S
H58 C55 0.961 . S
O59 Co34 1.967 . S
O59 C67 1.258 . S
O60 Co35 1.941 . S
O60 C67 1.266 . S
H61 C63 0.959 . S
H62 C63 0.961 . S
C63 C53 1.510 1_556 S
C63 H61 0.959 . S
C63 H62 0.961 . S
C63 H64 0.960 . S
H64 C63 0.960 . S
H65 N45 0.862 1_554 S
O66 Co34 1.920 . S
O66 C39 1.289 . S
C67 O59 1.258 . S
C67 O60 1.266 . S
Co68 O71 1.970 . S
Co68 N85 1.989 . S
Co68 O93 1.967 . S
Co68 O100 1.920 . S
Co69 O72 1.966 . S
Co69 N78 2.022 . S
Co69 N86 1.993 . S
Co69 O94 1.941 . S
C70 O71 1.258 . S
C70 O72 1.263 . S
O71 Co68 1.970 . S
O71 C70 1.258 . S
O72 Co69 1.966 . S
O72 C70 1.263 . S
C73 O74 1.235 . S
C73 O100 1.289 . S
O74 C73 1.235 . S
C75 C77 1.400 . S
C75 N78 1.351 1_556 S
C75 C80 1.501 . S
C76 C77 1.387 . S
C76 N79 1.341 . S
C77 C75 1.400 . S
C77 C76 1.387 . S
N78 Co69 2.022 . S
N78 C75 1.351 1_554 S
N78 N79 1.365 1_554 S
N79 C76 1.341 . S
N79 N78 1.365 1_556 S
N79 H99 0.862 1_556 S
C80 C75 1.501 . S
C80 H81 0.961 1_556 S
C80 H82 0.961 . S
C80 H83 0.960 . S
H81 C80 0.961 1_554 S
H82 C80 0.961 . S
H83 C80 0.960 . S
C84 N85 1.342 . S
C84 C88 1.401 . S
C84 C89 1.499 . S
N85 Co68 1.989 . S
N85 C84 1.342 . S
N85 N86 1.388 . S
N86 Co69 1.993 . S
N86 N85 1.388 . S
N86 C87 1.346 . S
C87 N86 1.346 . S
C87 C88 1.396 . S
C87 C97 1.510 1_554 S
C88 C84 1.401 . S
C88 C87 1.396 . S
C89 C84 1.499 . S
C89 H90 0.959 . S
C89 H91 0.960 . S
C89 H92 0.961 . S
H90 C89 0.959 . S
H91 C89 0.960 . S
H92 C89 0.961 . S
O93 Co68 1.967 . S
O93 C101 1.258 . S
O94 Co69 1.941 . S
O94 C101 1.266 . S
H95 C97 0.959 . S
H96 C97 0.961 . S
C97 C87 1.510 1_556 S
C97 H95 0.959 . S
C97 H96 0.961 . S
C97 H98 0.960 . S
H98 C97 0.960 . S
H99 N79 0.862 1_554 S
O100 Co68 1.920 . S
O100 C73 1.289 . S
C101 O93 1.258 . S
C101 O94 1.266 . S
Co102 O105 1.970 . S
Co102 N119 1.989 . S
Co102 O127 1.967 . S
Co102 O134 1.920 1_455 S
Co103 O106 1.966 . S
Co103 N112 2.022 . S
Co103 N120 1.993 . S
Co103 O128 1.941 . S
C104 O105 1.258 . S
C104 O106 1.263 . S
O105 Co102 1.970 . S
O105 C104 1.258 . S
O106 Co103 1.966 . S
O106 C104 1.263 . S
C107 O108 1.235 . S
C107 O134 1.289 . S
O108 C107 1.235 . S
C109 C111 1.400 . S
C109 N112 1.351 1_556 S
C109 C114 1.501 . S
C110 C111 1.387 . S
C110 N113 1.341 . S
C111 C109 1.400 . S
C111 C110 1.387 . S
N112 Co103 2.022 . S
N112 C109 1.351 1_554 S
N112 N113 1.365 1_554 S
N113 C110 1.341 . S
N113 N112 1.365 1_556 S
N113 H133 0.862 1_556 S
C114 C109 1.501 . S
C114 H115 0.961 1_556 S
C114 H116 0.961 . S
C114 H117 0.960 . S
H115 C114 0.961 1_554 S
H116 C114 0.961 . S
H117 C114 0.960 . S
C118 N119 1.342 . S
C118 C122 1.401 . S
C118 C123 1.499 1_455 S
N119 Co102 1.989 . S
N119 C118 1.342 . S
N119 N120 1.388 . S
N120 Co103 1.993 . S
N120 N119 1.388 . S
N120 C121 1.346 . S
C121 N120 1.346 . S
C121 C122 1.396 . S
C121 C131 1.510 1_554 S
C122 C118 1.401 . S
C122 C121 1.396 . S
C123 C118 1.499 1_655 S
C123 H124 0.959 . S
C123 H125 0.960 . S
C123 H126 0.961 . S
H124 C123 0.959 . S
H125 C123 0.960 . S
H126 C123 0.961 . S
O127 Co102 1.967 . S
O127 C135 1.258 . S
O128 Co103 1.941 . S
O128 C135 1.266 . S
H129 C131 0.959 . S
H130 C131 0.961 . S
C131 C121 1.510 1_556 S
C131 H129 0.959 . S
C131 H130 0.961 . S
C131 H132 0.960 . S
H132 C131 0.960 . S
H133 N113 0.862 1_554 S
O134 Co102 1.920 1_655 S
O134 C107 1.289 . S
C135 O127 1.258 . S
C135 O128 1.266 . S
Co136 O139 1.970 . S
Co136 N153 1.989 . S
Co136 O161 1.967 . S
Co136 O168 1.920 . S
Co137 O140 1.966 . S
Co137 N146 2.022 . S
Co137 N154 1.993 . S
Co137 O162 1.941 . S
C138 O139 1.258 . S
C138 O140 1.263 . S
O139 Co136 1.970 . S
O139 C138 1.258 . S
O140 Co137 1.966 . S
O140 C138 1.263 . S
C141 O142 1.235 . S
C141 O168 1.289 . S
O142 C141 1.235 . S
C143 C145 1.400 . S
C143 N146 1.351 . S
C143 C148 1.501 . S
C144 C145 1.387 . S
C144 N147 1.341 . S
C145 C143 1.400 . S
C145 C144 1.387 . S
N146 Co137 2.022 . S
N146 C143 1.351 . S
N146 N147 1.365 . S
N147 C144 1.341 . S
N147 N146 1.365 . S
N147 H167 0.862 . S
C148 C143 1.501 . S
C148 H149 0.961 . S
C148 H150 0.961 . S
C148 H151 0.960 . S
H149 C148 0.961 . S
H150 C148 0.961 . S
H151 C148 0.960 . S
C152 N153 1.342 . S
C152 C156 1.401 . S
C152 C157 1.499 . S
N153 Co136 1.989 . S
N153 C152 1.342 . S
N153 N154 1.388 . S
N154 Co137 1.993 . S
N154 N153 1.388 . S
N154 C155 1.346 . S
C155 N154 1.346 . S
C155 C156 1.396 . S
C155 C165 1.510 . S
C156 C152 1.401 . S
C156 C155 1.396 . S
C157 C152 1.499 . S
C157 H158 0.959 . S
C157 H159 0.960 . S
C157 H160 0.961 . S
H158 C157 0.959 . S
H159 C157 0.960 . S
H160 C157 0.961 . S
O161 Co136 1.967 . S
O161 C169 1.258 . S
O162 Co137 1.941 . S
O162 C169 1.266 . S
H163 C165 0.959 . S
H164 C165 0.961 . S
C165 C155 1.510 . S
C165 H163 0.959 . S
C165 H164 0.961 . S
C165 H166 0.960 . S
H166 C165 0.960 . S
H167 N147 0.862 . S
O168 Co136 1.920 . S
O168 C141 1.289 . S
C169 O161 1.258 . S
C169 O162 1.266 . S
Co170 O173 1.970 . S
Co170 N187 1.989 . S
Co170 O195 1.967 . S
Co170 O202 1.920 1_455 S
Co171 O174 1.966 . S
Co171 N180 2.022 . S
Co171 N188 1.993 . S
Co171 O196 1.941 . S
C172 O173 1.258 . S
C172 O174 1.263 . S
O173 Co170 1.970 . S
O173 C172 1.258 . S
O174 Co171 1.966 . S
O174 C172 1.263 . S
C175 O176 1.235 . S
C175 O202 1.289 . S
O176 C175 1.235 . S
C177 C179 1.400 . S
C177 N180 1.351 . S
C177 C182 1.501 . S
C178 C179 1.387 . S
C178 N181 1.341 . S
C179 C177 1.400 . S
C179 C178 1.387 . S
N180 Co171 2.022 . S
N180 C177 1.351 . S
N180 N181 1.365 . S
N181 C178 1.341 . S
N181 N180 1.365 . S
N181 H201 0.862 . S
C182 C177 1.501 . S
C182 H183 0.961 . S
C182 H184 0.961 . S
C182 H185 0.960 . S
H183 C182 0.961 . S
H184 C182 0.961 . S
H185 C182 0.960 . S
C186 N187 1.342 . S
C186 C190 1.401 . S
C186 C191 1.499 1_455 S
N187 Co170 1.989 . S
N187 C186 1.342 . S
N187 N188 1.388 . S
N188 Co171 1.993 . S
N188 N187 1.388 . S
N188 C189 1.346 . S
C189 N188 1.346 . S
C189 C190 1.396 . S
C189 C199 1.510 . S
C190 C186 1.401 . S
C190 C189 1.396 . S
C191 C186 1.499 1_655 S
C191 H192 0.959 . S
C191 H193 0.960 . S
C191 H194 0.961 . S
H192 C191 0.959 . S
H193 C191 0.960 . S
H194 C191 0.961 . S
O195 Co170 1.967 . S
O195 C203 1.258 . S
O196 Co171 1.941 . S
O196 C203 1.266 . S
H197 C199 0.959 . S
H198 C199 0.961 . S
C199 C189 1.510 . S
C199 H197 0.959 . S
C199 H198 0.961 . S
C199 H200 0.960 . S
H200 C199 0.960 . S
H201 N181 0.862 . S
O202 Co170 1.920 1_655 S
O202 C175 1.289 . S
C203 O195 1.258 . S
C203 O196 1.266 . S
Co204 O207 1.970 . S
Co204 N221 1.989 . S
Co204 O229 1.967 . S
Co204 O236 1.920 1_545 S
Co205 O208 1.966 . S
Co205 N214 2.022 . S
Co205 N222 1.993 . S
Co205 O230 1.941 . S
C206 O207 1.258 . S
C206 O208 1.263 . S
O207 Co204 1.970 . S
O207 C206 1.258 . S
O208 Co205 1.966 . S
O208 C206 1.263 . S
C209 O210 1.235 . S
C209 O236 1.289 . S
O210 C209 1.235 . S
C211 C213 1.400 . S
C211 N214 1.351 . S
C211 C216 1.501 . S
C212 C213 1.387 . S
C212 N215 1.341 . S
C213 C211 1.400 . S
C213 C212 1.387 . S
N214 Co205 2.022 . S
N214 C211 1.351 . S
N214 N215 1.365 . S
N215 C212 1.341 . S
N215 N214 1.365 . S
N215 H235 0.862 . S
C216 C211 1.501 . S
C216 H217 0.961 . S
C216 H218 0.961 . S
C216 H219 0.960 . S
H217 C216 0.961 . S
H218 C216 0.961 . S
H219 C216 0.960 . S
C220 N221 1.342 . S
C220 C224 1.401 . S
C220 C225 1.499 1_545 S
N221 Co204 1.989 . S
N221 C220 1.342 . S
N221 N222 1.388 . S
N222 Co205 1.993 . S
N222 N221 1.388 . S
N222 C223 1.346 . S
C223 N222 1.346 . S
C223 C224 1.396 . S
C223 C233 1.510 . S
C224 C220 1.401 . S
C224 C223 1.396 . S
C225 C220 1.499 1_565 S
C225 H226 0.959 . S
C225 H227 0.960 . S
C225 H228 0.961 . S
H226 C225 0.959 . S
H227 C225 0.960 . S
H228 C225 0.961 . S
O229 Co204 1.967 . S
O229 C237 1.258 . S
O230 Co205 1.941 . S
O230 C237 1.266 . S
H231 C233 0.959 . S
H232 C233 0.961 . S
C233 C223 1.510 . S
C233 H231 0.959 . S
C233 H232 0.961 . S
C233 H234 0.960 . S
H234 C233 0.960 . S
H235 N215 0.862 . S
O236 Co204 1.920 1_565 S
O236 C209 1.289 . S
C237 O229 1.258 . S
C237 O230 1.266 . S
Co238 O241 1.970 . S
Co238 N255 1.989 . S
Co238 O263 1.967 . S
Co238 O270 1.920 . S
Co239 O242 1.966 . S
Co239 N248 2.022 . S
Co239 N256 1.993 . S
Co239 O264 1.941 . S
C240 O241 1.258 . S
C240 O242 1.263 . S
O241 Co238 1.970 . S
O241 C240 1.258 . S
O242 Co239 1.966 . S
O242 C240 1.263 . S
C243 O244 1.235 . S
C243 O270 1.289 . S
O244 C243 1.235 . S
C245 C247 1.400 . S
C245 N248 1.351 . S
C245 C250 1.501 . S
C246 C247 1.387 . S
C246 N249 1.341 . S
C247 C245 1.400 . S
C247 C246 1.387 . S
N248 Co239 2.022 . S
N248 C245 1.351 . S
N248 N249 1.365 . S
N249 C246 1.341 . S
N249 N248 1.365 . S
N249 H269 0.862 . S
C250 C245 1.501 . S
C250 H251 0.961 . S
C250 H252 0.961 . S
C250 H253 0.960 . S
H251 C250 0.961 . S
H252 C250 0.961 . S
H253 C250 0.960 . S
C254 N255 1.342 . S
C254 C258 1.401 . S
C254 C259 1.499 . S
N255 Co238 1.989 . S
N255 C254 1.342 . S
N255 N256 1.388 . S
N256 Co239 1.993 . S
N256 N255 1.388 . S
N256 C257 1.346 . S
C257 N256 1.346 . S
C257 C258 1.396 . S
C257 C267 1.510 . S
C258 C254 1.401 . S
C258 C257 1.396 . S
C259 C254 1.499 . S
C259 H260 0.959 . S
C259 H261 0.960 . S
C259 H262 0.961 . S
H260 C259 0.959 . S
H261 C259 0.960 . S
H262 C259 0.961 . S
O263 Co238 1.967 . S
O263 C271 1.258 . S
O264 Co239 1.941 . S
O264 C271 1.266 . S
H265 C267 0.959 . S
H266 C267 0.961 . S
C267 C257 1.510 . S
C267 H265 0.959 . S
C267 H266 0.961 . S
C267 H268 0.960 . S
H268 C267 0.960 . S
H269 N249 0.862 . S
O270 Co238 1.920 . S
O270 C243 1.289 . S
C271 O263 1.258 . S
C271 O264 1.266 . S
Co272 O275 1.970 . S
Co272 N289 1.989 . S
Co272 O297 1.967 . S
Co272 O304 1.920 1_565 S
Co273 O276 1.966 . S
Co273 N282 2.022 . S
Co273 N290 1.993 . S
Co273 O298 1.941 . S
C274 O275 1.258 . S
C274 O276 1.263 . S
O275 Co272 1.970 . S
O275 C274 1.258 . S
O276 Co273 1.966 . S
O276 C274 1.263 . S
C277 O278 1.235 . S
C277 O304 1.289 . S
O278 C277 1.235 . S
C279 C281 1.400 . S
C279 N282 1.351 1_554 S
C279 C284 1.501 . S
C280 C281 1.387 . S
C280 N283 1.341 . S
C281 C279 1.400 . S
C281 C280 1.387 . S
N282 Co273 2.022 . S
N282 C279 1.351 1_556 S
N282 N283 1.365 1_556 S
N283 C280 1.341 . S
N283 N282 1.365 1_554 S
N283 H303 0.862 1_554 S
C284 C279 1.501 . S
C284 H285 0.961 1_554 S
C284 H286 0.961 . S
C284 H287 0.960 . S
H285 C284 0.961 1_556 S
H286 C284 0.961 . S
H287 C284 0.960 . S
C288 N289 1.342 . S
C288 C292 1.401 . S
C288 C293 1.499 1_565 S
N289 Co272 1.989 . S
N289 C288 1.342 . S
N289 N290 1.388 . S
N290 Co273 1.993 . S
N290 N289 1.388 . S
N290 C291 1.346 . S
C291 N290 1.346 . S
C291 C292 1.396 . S
C291 C301 1.510 1_556 S
C292 C288 1.401 . S
C292 C291 1.396 . S
C293 C288 1.499 1_545 S
C293 H294 0.959 . S
C293 H295 0.960 . S
C293 H296 0.961 . S
H294 C293 0.959 . S
H295 C293 0.960 . S
H296 C293 0.961 . S
O297 Co272 1.967 . S
O297 C305 1.258 . S
O298 Co273 1.941 . S
O298 C305 1.266 . S
H299 C301 0.959 . S
H300 C301 0.961 . S
C301 C291 1.510 1_554 S
C301 H299 0.959 . S
C301 H300 0.961 . S
C301 H302 0.960 . S
H302 C301 0.960 . S
H303 N283 0.862 1_556 S
O304 Co272 1.920 1_545 S
O304 C277 1.289 . S
C305 O297 1.258 . S
C305 O298 1.266 . S
Co306 O309 1.970 . S
Co306 N323 1.989 . S
Co306 O331 1.967 . S
Co306 O338 1.920 . S
Co307 O310 1.966 . S
Co307 N316 2.022 . S
Co307 N324 1.993 . S
Co307 O332 1.941 . S
C308 O309 1.258 . S
C308 O310 1.263 . S
O309 Co306 1.970 . S
O309 C308 1.258 . S
O310 Co307 1.966 . S
O310 C308 1.263 . S
C311 O312 1.235 . S
C311 O338 1.289 . S
O312 C311 1.235 . S
C313 C315 1.400 . S
C313 N316 1.351 1_554 S
C313 C318 1.501 . S
C314 C315 1.387 . S
C314 N317 1.341 . S
C315 C313 1.400 . S
C315 C314 1.387 . S
N316 Co307 2.022 . S
N316 C313 1.351 1_556 S
N316 N317 1.365 1_556 S
N317 C314 1.341 . S
N317 N316 1.365 1_554 S
N317 H337 0.862 1_554 S
C318 C313 1.501 . S
C318 H319 0.961 1_554 S
C318 H320 0.961 . S
C318 H321 0.960 . S
H319 C318 0.961 1_556 S
H320 C318 0.961 . S
H321 C318 0.960 . S
C322 N323 1.342 . S
C322 C326 1.401 . S
C322 C327 1.499 . S
N323 Co306 1.989 . S
N323 C322 1.342 . S
N323 N324 1.388 . S
N324 Co307 1.993 . S
N324 N323 1.388 . S
N324 C325 1.346 . S
C325 N324 1.346 . S
C325 C326 1.396 . S
C325 C335 1.510 1_556 S
C326 C322 1.401 . S
C326 C325 1.396 . S
C327 C322 1.499 . S
C327 H328 0.959 . S
C327 H329 0.960 . S
C327 H330 0.961 . S
H328 C327 0.959 . S
H329 C327 0.960 . S
H330 C327 0.961 . S
O331 Co306 1.967 . S
O331 C339 1.258 . S
O332 Co307 1.941 . S
O332 C339 1.266 . S
H333 C335 0.959 . S
H334 C335 0.961 . S
C335 C325 1.510 1_554 S
C335 H333 0.959 . S
C335 H334 0.961 . S
C335 H336 0.960 . S
H336 C335 0.960 . S
H337 N317 0.862 1_556 S
O338 Co306 1.920 . S
O338 C311 1.289 . S
C339 O331 1.258 . S
C339 O332 1.266 . S
Co340 O343 1.970 . S
Co340 N357 1.989 . S
Co340 O365 1.967 . S
Co340 O372 1.920 . S
Co341 O344 1.966 . S
Co341 N350 2.022 . S
Co341 N358 1.993 . S
Co341 O366 1.941 . S
C342 O343 1.258 . S
C342 O344 1.263 . S
O343 Co340 1.970 . S
O343 C342 1.258 . S
O344 Co341 1.966 . S
O344 C342 1.263 . S
C345 O346 1.235 . S
C345 O372 1.289 . S
O346 C345 1.235 . S
C347 C349 1.400 . S
C347 N350 1.351 1_554 S
C347 C352 1.501 . S
C348 C349 1.387 . S
C348 N351 1.341 . S
C349 C347 1.400 . S
C349 C348 1.387 . S
N350 Co341 2.022 . S
N350 C347 1.351 1_556 S
N350 N351 1.365 1_556 S
N351 C348 1.341 . S
N351 N350 1.365 1_554 S
N351 H371 0.862 1_554 S
C352 C347 1.501 . S
C352 H353 0.961 1_554 S
C352 H354 0.961 . S
C352 H355 0.960 . S
H353 C352 0.961 1_556 S
H354 C352 0.961 . S
H355 C352 0.960 . S
C356 N357 1.342 . S
C356 C360 1.401 . S
C356 C361 1.499 . S
N357 Co340 1.989 . S
N357 C356 1.342 . S
N357 N358 1.388 . S
N358 Co341 1.993 . S
N358 N357 1.388 . S
N358 C359 1.346 . S
C359 N358 1.346 . S
C359 C360 1.396 . S
C359 C369 1.510 1_556 S
C360 C356 1.401 . S
C360 C359 1.396 . S
C361 C356 1.499 . S
C361 H362 0.959 . S
C361 H363 0.960 . S
C361 H364 0.961 . S
H362 C361 0.959 . S
H363 C361 0.960 . S
H364 C361 0.961 . S
O365 Co340 1.967 . S
O365 C373 1.258 . S
O366 Co341 1.941 . S
O366 C373 1.266 . S
H367 C369 0.959 . S
H368 C369 0.961 . S
C369 C359 1.510 1_554 S
C369 H367 0.959 . S
C369 H368 0.961 . S
C369 H370 0.960 . S
H370 C369 0.960 . S
H371 N351 0.862 1_556 S
O372 Co340 1.920 . S
O372 C345 1.289 . S
C373 O365 1.258 . S
C373 O366 1.266 . S
Co374 O377 1.970 . S
Co374 N391 1.989 . S
Co374 O399 1.967 . S
Co374 O406 1.920 1_655 S
Co375 O378 1.966 . S
Co375 N384 2.022 . S
Co375 N392 1.993 . S
Co375 O400 1.941 . S
C376 O377 1.258 . S
C376 O378 1.263 . S
O377 Co374 1.970 . S
O377 C376 1.258 . S
O378 Co375 1.966 . S
O378 C376 1.263 . S
C379 O380 1.235 . S
C379 O406 1.289 . S
O380 C379 1.235 . S
C381 C383 1.400 . S
C381 N384 1.351 1_554 S
C381 C386 1.501 . S
C382 C383 1.387 . S
C382 N385 1.341 . S
C383 C381 1.400 . S
C383 C382 1.387 . S
N384 Co375 2.022 . S
N384 C381 1.351 1_556 S
N384 N385 1.365 1_556 S
N385 C382 1.341 . S
N385 N384 1.365 1_554 S
N385 H405 0.862 1_554 S
C386 C381 1.501 . S
C386 H387 0.961 1_554 S
C386 H388 0.961 . S
C386 H389 0.960 . S
H387 C386 0.961 1_556 S
H388 C386 0.961 . S
H389 C386 0.960 . S
C390 N391 1.342 . S
C390 C394 1.401 . S
C390 C395 1.499 1_655 S
N391 Co374 1.989 . S
N391 C390 1.342 . S
N391 N392 1.388 . S
N392 Co375 1.993 . S
N392 N391 1.388 . S
N392 C393 1.346 . S
C393 N392 1.346 . S
C393 C394 1.396 . S
C393 C403 1.510 1_556 S
C394 C390 1.401 . S
C394 C393 1.396 . S
C395 C390 1.499 1_455 S
C395 H396 0.959 . S
C395 H397 0.960 . S
C395 H398 0.961 . S
H396 C395 0.959 . S
H397 C395 0.960 . S
H398 C395 0.961 . S
O399 Co374 1.967 . S
O399 C407 1.258 . S
O400 Co375 1.941 . S
O400 C407 1.266 . S
H401 C403 0.959 . S
H402 C403 0.961 . S
C403 C393 1.510 1_554 S
C403 H401 0.959 . S
C403 H402 0.961 . S
C403 H404 0.960 . S
H404 C403 0.960 . S
H405 N385 0.862 1_556 S
O406 Co374 1.920 1_455 S
O406 C379 1.289 . S
C407 O399 1.258 . S
C407 O400 1.266 . S
Co408 O411 1.970 . S
Co408 N425 1.989 . S
Co408 O433 1.967 . S
Co408 O440 1.920 . S
Co409 O412 1.966 . S
Co409 N418 2.022 . S
Co409 N426 1.993 . S
Co409 O434 1.941 . S
C410 O411 1.258 . S
C410 O412 1.263 . S
O411 Co408 1.970 . S
O411 C410 1.258 . S
O412 Co409 1.966 . S
O412 C410 1.263 . S
C413 O414 1.235 . S
C413 O440 1.289 . S
O414 C413 1.235 . S
C415 C417 1.400 . S
C415 N418 1.351 . S
C415 C420 1.501 . S
C416 C417 1.387 . S
C416 N419 1.341 . S
C417 C415 1.400 . S
C417 C416 1.387 . S
N418 Co409 2.022 . S
N418 C415 1.351 . S
N418 N419 1.365 . S
N419 C416 1.341 . S
N419 N418 1.365 . S
N419 H439 0.862 . S
C420 C415 1.501 . S
C420 H421 0.961 . S
C420 H422 0.961 . S
C420 H423 0.960 . S
H421 C420 0.961 . S
H422 C420 0.961 . S
H423 C420 0.960 . S
C424 N425 1.342 . S
C424 C428 1.401 . S
C424 C429 1.499 . S
N425 Co408 1.989 . S
N425 C424 1.342 . S
N425 N426 1.388 . S
N426 Co409 1.993 . S
N426 N425 1.388 . S
N426 C427 1.346 . S
C427 N426 1.346 . S
C427 C428 1.396 . S
C427 C437 1.510 . S
C428 C424 1.401 . S
C428 C427 1.396 . S
C429 C424 1.499 . S
C429 H430 0.959 . S
C429 H431 0.960 . S
C429 H432 0.961 . S
H430 C429 0.959 . S
H431 C429 0.960 . S
H432 C429 0.961 . S
O433 Co408 1.967 . S
O433 C441 1.258 . S
O434 Co409 1.941 . S
O434 C441 1.266 . S
H435 C437 0.959 . S
H436 C437 0.961 . S
C437 C427 1.510 . S
C437 H435 0.959 . S
C437 H436 0.961 . S
C437 H438 0.960 . S
H438 C437 0.960 . S
H439 N419 0.862 . S
O440 Co408 1.920 . S
O440 C413 1.289 . S
C441 O433 1.258 . S
C441 O434 1.266 . S
Co442 O445 1.970 . S
Co442 N459 1.989 . S
Co442 O467 1.967 . S
Co442 O474 1.920 1_655 S
Co443 O446 1.966 . S
Co443 N452 2.022 . S
Co443 N460 1.993 . S
Co443 O468 1.941 . S
C444 O445 1.258 . S
C444 O446 1.263 . S
O445 Co442 1.970 . S
O445 C444 1.258 . S
O446 Co443 1.966 . S
O446 C444 1.263 . S
C447 O448 1.235 . S
C447 O474 1.289 . S
O448 C447 1.235 . S
C449 C451 1.400 . S
C449 N452 1.351 . S
C449 C454 1.501 . S
C450 C451 1.387 . S
C450 N453 1.341 . S
C451 C449 1.400 . S
C451 C450 1.387 . S
N452 Co443 2.022 . S
N452 C449 1.351 . S
N452 N453 1.365 . S
N453 C450 1.341 . S
N453 N452 1.365 . S
N453 H473 0.862 . S
C454 C449 1.501 . S
C454 H455 0.961 . S
C454 H456 0.961 . S
C454 H457 0.960 . S
H455 C454 0.961 . S
H456 C454 0.961 . S
H457 C454 0.960 . S
C458 N459 1.342 . S
C458 C462 1.401 . S
C458 C463 1.499 1_655 S
N459 Co442 1.989 . S
N459 C458 1.342 . S
N459 N460 1.388 . S
N460 Co443 1.993 . S
N460 N459 1.388 . S
N460 C461 1.346 . S
C461 N460 1.346 . S
C461 C462 1.396 . S
C461 C471 1.510 . S
C462 C458 1.401 . S
C462 C461 1.396 . S
C463 C458 1.499 1_455 S
C463 H464 0.959 . S
C463 H465 0.960 . S
C463 H466 0.961 . S
H464 C463 0.959 . S
H465 C463 0.960 . S
H466 C463 0.961 . S
O467 Co442 1.967 . S
O467 C475 1.258 . S
O468 Co443 1.941 . S
O468 C475 1.266 . S
H469 C471 0.959 . S
H470 C471 0.961 . S
C471 C461 1.510 . S
C471 H469 0.959 . S
C471 H470 0.961 . S
C471 H472 0.960 . S
H472 C471 0.960 . S
H473 N453 0.862 . S
O474 Co442 1.920 1_455 S
O474 C447 1.289 . S
C475 O467 1.258 . S
C475 O468 1.266 . S
Co476 O479 1.970 . S
Co476 N493 1.989 . S
Co476 O501 1.967 . S
Co476 O508 1.920 1_565 S
Co477 O480 1.966 . S
Co477 N486 2.022 . S
Co477 N494 1.993 . S
Co477 O502 1.941 . S
C478 O479 1.258 . S
C478 O480 1.263 . S
O479 Co476 1.970 . S
O479 C478 1.258 . S
O480 Co477 1.966 . S
O480 C478 1.263 . S
C481 O482 1.235 . S
C481 O508 1.289 . S
O482 C481 1.235 . S
C483 C485 1.400 . S
C483 N486 1.351 . S
C483 C488 1.501 . S
C484 C485 1.387 . S
C484 N487 1.341 . S
C485 C483 1.400 . S
C485 C484 1.387 . S
N486 Co477 2.022 . S
N486 C483 1.351 . S
N486 N487 1.365 . S
N487 C484 1.341 . S
N487 N486 1.365 . S
N487 H507 0.862 . S
C488 C483 1.501 . S
C488 H489 0.961 . S
C488 H490 0.961 . S
C488 H491 0.960 . S
H489 C488 0.961 . S
H490 C488 0.961 . S
H491 C488 0.960 . S
C492 N493 1.342 . S
C492 C496 1.401 . S
C492 C497 1.499 1_565 S
N493 Co476 1.989 . S
N493 C492 1.342 . S
N493 N494 1.388 . S
N494 Co477 1.993 . S
N494 N493 1.388 . S
N494 C495 1.346 . S
C495 N494 1.346 . S
C495 C496 1.396 . S
C495 C505 1.510 . S
C496 C492 1.401 . S
C496 C495 1.396 . S
C497 C492 1.499 1_545 S
C497 H498 0.959 . S
C497 H499 0.960 . S
C497 H500 0.961 . S
H498 C497 0.959 . S
H499 C497 0.960 . S
H500 C497 0.961 . S
O501 Co476 1.967 . S
O501 C509 1.258 . S
O502 Co477 1.941 . S
O502 C509 1.266 . S
H503 C505 0.959 . S
H504 C505 0.961 . S
C505 C495 1.510 . S
C505 H503 0.959 . S
C505 H504 0.961 . S
C505 H506 0.960 . S
H506 C505 0.960 . S
H507 N487 0.862 . S
O508 Co476 1.920 1_545 S
O508 C481 1.289 . S
C509 O501 1.258 . S
C509 O502 1.266 . S
Co510 O513 1.970 . S
Co510 N527 1.989 . S
Co510 O535 1.967 . S
Co510 O542 1.920 . S
Co511 O514 1.966 . S
Co511 N520 2.022 . S
Co511 N528 1.993 . S
Co511 O536 1.941 . S
C512 O513 1.258 . S
C512 O514 1.263 . S
O513 Co510 1.970 . S
O513 C512 1.258 . S
O514 Co511 1.966 . S
O514 C512 1.263 . S
C515 O516 1.235 . S
C515 O542 1.289 . S
O516 C515 1.235 . S
C517 C519 1.400 . S
C517 N520 1.351 . S
C517 C522 1.501 . S
C518 C519 1.387 . S
C518 N521 1.341 . S
C519 C517 1.400 . S
C519 C518 1.387 . S
N520 Co511 2.022 . S
N520 C517 1.351 . S
N520 N521 1.365 . S
N521 C518 1.341 . S
N521 N520 1.365 . S
N521 H541 0.862 . S
C522 C517 1.501 . S
C522 H523 0.961 . S
C522 H524 0.961 . S
C522 H525 0.960 . S
H523 C522 0.961 . S
H524 C522 0.961 . S
H525 C522 0.960 . S
C526 N527 1.342 . S
C526 C530 1.401 . S
C526 C531 1.499 . S
N527 Co510 1.989 . S
N527 C526 1.342 . S
N527 N528 1.388 . S
N528 Co511 1.993 . S
N528 N527 1.388 . S
N528 C529 1.346 . S
C529 N528 1.346 . S
C529 C530 1.396 . S
C529 C539 1.510 . S
C530 C526 1.401 . S
C530 C529 1.396 . S
C531 C526 1.499 . S
C531 H532 0.959 . S
C531 H533 0.960 . S
C531 H534 0.961 . S
H532 C531 0.959 . S
H533 C531 0.960 . S
H534 C531 0.961 . S
O535 Co510 1.967 . S
O535 C543 1.258 . S
O536 Co511 1.941 . S
O536 C543 1.266 . S
H537 C539 0.959 . S
H538 C539 0.961 . S
C539 C529 1.510 . S
C539 H537 0.959 . S
C539 H538 0.961 . S
C539 H540 0.960 . S
H540 C539 0.960 . S
H541 N521 0.862 . S
O542 Co510 1.920 . S
O542 C515 1.289 . S
C543 O535 1.258 . S
C543 O536 1.266 . S
C544 C545 1.369 . S
C544 C546 1.419 . S
C544 H548 0.930 . S
C545 C544 1.369 . S
C545 C554 1.429 . S
C546 C544 1.419 . S
C546 C547 1.363 . S
C546 H549 0.929 . S
C547 C546 1.363 . S
C547 C553 1.428 . S
H548 C544 0.930 . S
H549 C546 0.929 . S
S550 N551 1.613 . S
S550 N552 1.610 . S
N551 S550 1.613 . S
N551 C554 1.350 . S
N552 S550 1.610 . S
N552 C553 1.351 . S
C553 C547 1.428 . S
C553 N552 1.351 . S
C553 C554 1.434 . S
C554 C545 1.429 . S
C554 N551 1.350 . S
C554 C553 1.434 . S
C555 C556 1.369 . S
C555 C557 1.419 . S
C555 H559 0.930 . S
C556 C555 1.369 . S
C556 C565 1.429 . S
C557 C555 1.419 . S
C557 C558 1.363 . S
C557 H560 0.929 . S
C558 C557 1.363 . S
C558 C564 1.428 . S
H559 C555 0.930 . S
H560 C557 0.929 . S
S561 N562 1.613 . S
S561 N563 1.610 . S
N562 S561 1.613 . S
N562 C565 1.350 . S
N563 S561 1.610 . S
N563 C564 1.351 . S
C564 C558 1.428 . S
C564 N563 1.351 . S
C564 C565 1.434 . S
C565 C556 1.429 . S
C565 N562 1.350 . S
C565 C564 1.434 . S
C566 C567 1.369 . S
C566 C568 1.419 . S
C566 H570 0.930 . S
C567 C566 1.369 . S
C567 C576 1.429 . S
C568 C566 1.419 . S
C568 C569 1.363 . S
C568 H571 0.929 . S
C569 C568 1.363 . S
C569 C575 1.428 . S
H570 C566 0.930 . S
H571 C568 0.929 . S
S572 N573 1.613 . S
S572 N574 1.610 . S
N573 S572 1.613 . S
N573 C576 1.350 . S
N574 S572 1.610 . S
N574 C575 1.351 . S
C575 C569 1.428 . S
C575 N574 1.351 . S
C575 C576 1.434 . S
C576 C567 1.429 . S
C576 N573 1.350 . S
C576 C575 1.434 . S
C577 C578 1.369 . S
C577 C579 1.419 . S
C577 H581 0.930 . S
C578 C577 1.369 . S
C578 C587 1.429 . S
C579 C577 1.419 . S
C579 C580 1.363 . S
C579 H582 0.929 . S
C580 C579 1.363 . S
C580 C586 1.428 . S
H581 C577 0.930 . S
H582 C579 0.929 . S
S583 N584 1.613 . S
S583 N585 1.610 . S
N584 S583 1.613 . S
N584 C587 1.350 . S
N585 S583 1.610 . S
N585 C586 1.351 . S
C586 C580 1.428 . S
C586 N585 1.351 . S
C586 C587 1.434 . S
C587 C578 1.429 . S
C587 N584 1.350 . S
C587 C586 1.434 . S
C588 C589 1.369 . S
C588 C590 1.419 . S
C588 H592 0.930 . S
C589 C588 1.369 . S
C589 C598 1.429 . S
C590 C588 1.419 . S
C590 C591 1.363 . S
C590 H593 0.929 . S
C591 C590 1.363 . S
C591 C597 1.428 . S
H592 C588 0.930 . S
H593 C590 0.929 . S
S594 N595 1.613 . S
S594 N596 1.610 . S
N595 S594 1.613 . S
N595 C598 1.350 . S
N596 S594 1.610 . S
N596 C597 1.351 . S
C597 C591 1.428 . S
C597 N596 1.351 . S
C597 C598 1.434 . S
C598 C589 1.429 . S
C598 N595 1.350 . S
C598 C597 1.434 . S
C599 C600 1.369 . S
C599 C601 1.419 . S
C599 H603 0.930 . S
C600 C599 1.369 . S
C600 C609 1.429 . S
C601 C599 1.419 . S
C601 C602 1.363 . S
C601 H604 0.929 . S
C602 C601 1.363 . S
C602 C608 1.428 . S
H603 C599 0.930 . S
H604 C601 0.929 . S
S605 N606 1.613 . S
S605 N607 1.610 . S
N606 S605 1.613 . S
N606 C609 1.350 . S
N607 S605 1.610 . S
N607 C608 1.351 . S
C608 C602 1.428 . S
C608 N607 1.351 . S
C608 C609 1.434 . S
C609 C600 1.429 . S
C609 N606 1.350 . S
C609 C608 1.434 . S
C610 C611 1.369 . S
C610 C612 1.419 . S
C610 H614 0.930 . S
C611 C610 1.369 . S
C611 C620 1.429 . S
C612 C610 1.419 . S
C612 C613 1.363 . S
C612 H615 0.929 . S
C613 C612 1.363 . S
C613 C619 1.428 . S
H614 C610 0.930 . S
H615 C612 0.929 . S
S616 N617 1.613 . S
S616 N618 1.610 . S
N617 S616 1.613 . S
N617 C620 1.350 . S
N618 S616 1.610 . S
N618 C619 1.351 . S
C619 C613 1.428 . S
C619 N618 1.351 . S
C619 C620 1.434 . S
C620 C611 1.429 . S
C620 N617 1.350 . S
C620 C619 1.434 . S
C621 C622 1.369 . S
C621 C623 1.419 . S
C621 H625 0.930 . S
C622 C621 1.369 . S
C622 C631 1.429 . S
C623 C621 1.419 . S
C623 C624 1.363 . S
C623 H626 0.929 . S
C624 C623 1.363 . S
C624 C630 1.428 . S
H625 C621 0.930 . S
H626 C623 0.929 . S
S627 N628 1.613 . S
S627 N629 1.610 . S
N628 S627 1.613 . S
N628 C631 1.350 . S
N629 S627 1.610 . S
N629 C630 1.351 . S
C630 C624 1.428 . S
C630 N629 1.351 . S
C630 C631 1.434 . S
C631 C622 1.429 . S
C631 N628 1.350 . S
C631 C630 1.434 . S
C632 C633 1.369 . S
C632 C634 1.419 . S
C632 H636 0.930 . S
C633 C632 1.369 . S
C633 C642 1.429 . S
C634 C632 1.419 . S
C634 C635 1.363 . S
C634 H637 0.929 . S
C635 C634 1.363 . S
C635 C641 1.428 . S
H636 C632 0.930 . S
H637 C634 0.929 . S
S638 N639 1.613 . S
S638 N640 1.610 . S
N639 S638 1.613 . S
N639 C642 1.350 . S
N640 S638 1.610 . S
N640 C641 1.351 . S
C641 C635 1.428 . S
C641 N640 1.351 . S
C641 C642 1.434 . S
C642 C633 1.429 . S
C642 N639 1.350 . S
C642 C641 1.434 . S
C643 C644 1.369 . S
C643 C645 1.419 . S
C643 H647 0.930 . S
C644 C643 1.369 . S
C644 C653 1.429 . S
C645 C643 1.419 . S
C645 C646 1.363 . S
C645 H648 0.929 . S
C646 C645 1.363 . S
C646 C652 1.428 . S
H647 C643 0.930 . S
H648 C645 0.929 . S
S649 N650 1.613 . S
S649 N651 1.610 . S
N650 S649 1.613 . S
N650 C653 1.350 . S
N651 S649 1.610 . S
N651 C652 1.351 . S
C652 C646 1.428 . S
C652 N651 1.351 . S
C652 C653 1.434 . S
C653 C644 1.429 . S
C653 N650 1.350 . S
C653 C652 1.434 . S
C654 C655 1.369 . S
C654 C656 1.419 . S
C654 H658 0.930 . S
C655 C654 1.369 . S
C655 C664 1.429 . S
C656 C654 1.419 . S
C656 C657 1.363 . S
C656 H659 0.929 . S
C657 C656 1.363 . S
C657 C663 1.428 . S
H658 C654 0.930 . S
H659 C656 0.929 . S
S660 N661 1.613 . S
S660 N662 1.610 . S
N661 S660 1.613 . S
N661 C664 1.350 . S
N662 S660 1.610 . S
N662 C663 1.351 . S
C663 C657 1.428 . S
C663 N662 1.351 . S
C663 C664 1.434 . S
C664 C655 1.429 . S
C664 N661 1.350 . S
C664 C663 1.434 . S
C665 C666 1.369 . S
C665 C667 1.419 . S
C665 H669 0.930 . S
C666 C665 1.369 . S
C666 C675 1.429 . S
C667 C665 1.419 . S
C667 C668 1.363 . S
C667 H670 0.929 . S
C668 C667 1.363 . S
C668 C674 1.428 . S
H669 C665 0.930 . S
H670 C667 0.929 . S
S671 N672 1.613 . S
S671 N673 1.610 . S
N672 S671 1.613 . S
N672 C675 1.350 . S
N673 S671 1.610 . S
N673 C674 1.351 . S
C674 C668 1.428 . S
C674 N673 1.351 . S
C674 C675 1.434 . S
C675 C666 1.429 . S
C675 N672 1.350 . S
C675 C674 1.434 . S
C676 C677 1.369 . S
C676 C678 1.419 . S
C676 H680 0.930 . S
C677 C676 1.369 . S
C677 C686 1.429 . S
C678 C676 1.419 . S
C678 C679 1.363 . S
C678 H681 0.929 . S
C679 C678 1.363 . S
C679 C685 1.428 . S
H680 C676 0.930 . S
H681 C678 0.929 . S
S682 N683 1.613 . S
S682 N684 1.610 . S
N683 S682 1.613 . S
N683 C686 1.350 . S
N684 S682 1.610 . S
N684 C685 1.351 . S
C685 C679 1.428 . S
C685 N684 1.351 . S
C685 C686 1.434 . S
C686 C677 1.429 . S
C686 N683 1.350 . S
C686 C685 1.434 . S
C687 C688 1.369 . S
C687 C689 1.419 . S
C687 H691 0.930 . S
C688 C687 1.369 . S
C688 C697 1.429 . S
C689 C687 1.419 . S
C689 C690 1.363 . S
C689 H692 0.929 . S
C690 C689 1.363 . S
C690 C696 1.428 . S
H691 C687 0.930 . S
H692 C689 0.929 . S
S693 N694 1.613 . S
S693 N695 1.610 . S
N694 S693 1.613 . S
N694 C697 1.350 . S
N695 S693 1.610 . S
N695 C696 1.351 . S
C696 C690 1.428 . S
C696 N695 1.351 . S
C696 C697 1.434 . S
C697 C688 1.429 . S
C697 N694 1.350 . S
C697 C696 1.434 . S
C698 C699 1.369 . S
C698 C700 1.419 . S
C698 H702 0.930 . S
C699 C698 1.369 . S
C699 C708 1.429 . S
C700 C698 1.419 . S
C700 C701 1.363 . S
C700 H703 0.929 . S
C701 C700 1.363 . S
C701 C707 1.428 . S
H702 C698 0.930 . S
H703 C700 0.929 . S
S704 N705 1.613 . S
S704 N706 1.610 . S
N705 S704 1.613 . S
N705 C708 1.350 . S
N706 S704 1.610 . S
N706 C707 1.351 . S
C707 C701 1.428 . S
C707 N706 1.351 . S
C707 C708 1.434 . S
C708 C699 1.429 . S
C708 N705 1.350 . S
C708 C707 1.434 . S
C709 C710 1.369 . S
C709 C711 1.419 . S
C709 H713 0.930 . S
C710 C709 1.369 . S
C710 C719 1.429 . S
C711 C709 1.419 . S
C711 C712 1.363 . S
C711 H714 0.929 . S
C712 C711 1.363 . S
C712 C718 1.428 . S
H713 C709 0.930 . S
H714 C711 0.929 . S
S715 N716 1.613 . S
S715 N717 1.610 . S
N716 S715 1.613 . S
N716 C719 1.350 . S
N717 S715 1.610 . S
N717 C718 1.351 . S
C718 C712 1.428 . S
C718 N717 1.351 . S
C718 C719 1.434 . S
C719 C710 1.429 . S
C719 N716 1.350 . S
C719 C718 1.434 . S
C720 C721 1.369 . S
C720 C722 1.419 . S
C720 H724 0.930 . S
C721 C720 1.369 . S
C721 C730 1.429 . S
C722 C720 1.419 . S
C722 C723 1.363 . S
C722 H725 0.929 . S
C723 C722 1.363 . S
C723 C729 1.428 . S
H724 C720 0.930 . S
H725 C722 0.929 . S
S726 N727 1.613 . S
S726 N728 1.610 . S
N727 S726 1.613 . S
N727 C730 1.350 . S
N728 S726 1.610 . S
N728 C729 1.351 . S
C729 C723 1.428 . S
C729 N728 1.351 . S
C729 C730 1.434 . S
C730 C721 1.429 . S
C730 N727 1.350 . S
C730 C729 1.434 . S
C731 C732 1.369 . S
C731 C733 1.419 . S
C731 H735 0.930 . S
C732 C731 1.369 . S
C732 C741 1.429 . S
C733 C731 1.419 . S
C733 C734 1.363 . S
C733 H736 0.929 . S
C734 C733 1.363 . S
C734 C740 1.428 . S
H735 C731 0.930 . S
H736 C733 0.929 . S
S737 N738 1.613 . S
S737 N739 1.610 . S
N738 S737 1.613 . S
N738 C741 1.350 . S
N739 S737 1.610 . S
N739 C740 1.351 . S
C740 C734 1.428 . S
C740 N739 1.351 . S
C740 C741 1.434 . S
C741 C732 1.429 . S
C741 N738 1.350 . S
C741 C740 1.434 . S
C742 C743 1.369 . S
C742 C744 1.419 . S
C742 H746 0.930 . S
C743 C742 1.369 . S
C743 C752 1.429 . S
C744 C742 1.419 . S
C744 C745 1.363 . S
C744 H747 0.929 . S
C745 C744 1.363 . S
C745 C751 1.428 . S
H746 C742 0.930 . S
H747 C744 0.929 . S
S748 N749 1.613 . S
S748 N750 1.610 . S
N749 S748 1.613 . S
N749 C752 1.350 . S
N750 S748 1.610 . S
N750 C751 1.351 . S
C751 C745 1.428 . S
C751 N750 1.351 . S
C751 C752 1.434 . S
C752 C743 1.429 . S
C752 N749 1.350 . S
C752 C751 1.434 . S
C753 C754 1.369 . S
C753 C755 1.419 . S
C753 H757 0.930 . S
C754 C753 1.369 . S
C754 C763 1.429 . S
C755 C753 1.419 . S
C755 C756 1.363 . S
C755 H758 0.929 . S
C756 C755 1.363 . S
C756 C762 1.428 . S
H757 C753 0.930 . S
H758 C755 0.929 . S
S759 N760 1.613 . S
S759 N761 1.610 . S
N760 S759 1.613 . S
N760 C763 1.350 . S
N761 S759 1.610 . S
N761 C762 1.351 . S
C762 C756 1.428 . S
C762 N761 1.351 . S
C762 C763 1.434 . S
C763 C754 1.429 . S
C763 N760 1.350 . S
C763 C762 1.434 . S
C764 C765 1.369 . S
C764 C766 1.419 . S
C764 H768 0.930 . S
C765 C764 1.369 . S
C765 C774 1.429 . S
C766 C764 1.419 . S
C766 C767 1.363 . S
C766 H769 0.929 . S
C767 C766 1.363 . S
C767 C773 1.428 . S
H768 C764 0.930 . S
H769 C766 0.929 . S
S770 N771 1.613 . S
S770 N772 1.610 . S
N771 S770 1.613 . S
N771 C774 1.350 . S
N772 S770 1.610 . S
N772 C773 1.351 . S
C773 C767 1.428 . S
C773 N772 1.351 . S
C773 C774 1.434 . S
C774 C765 1.429 . S
C774 N771 1.350 . S
C774 C773 1.434 . S
C775 C776 1.369 . S
C775 C777 1.419 . S
C775 H779 0.930 . S
C776 C775 1.369 . S
C776 C785 1.429 . S
C777 C775 1.419 . S
C777 C778 1.363 . S
C777 H780 0.929 . S
C778 C777 1.363 . S
C778 C784 1.428 . S
H779 C775 0.930 . S
H780 C777 0.929 . S
S781 N782 1.613 . S
S781 N783 1.610 . S
N782 S781 1.613 . S
N782 C785 1.350 . S
N783 S781 1.610 . S
N783 C784 1.351 . S
C784 C778 1.428 . S
C784 N783 1.351 . S
C784 C785 1.434 . S
C785 C776 1.429 . S
C785 N782 1.350 . S
C785 C784 1.434 . S
C786 C787 1.369 . S
C786 C788 1.419 . S
C786 H790 0.930 . S
C787 C786 1.369 . S
C787 C796 1.429 . S
C788 C786 1.419 . S
C788 C789 1.363 . S
C788 H791 0.929 . S
C789 C788 1.363 . S
C789 C795 1.428 . S
H790 C786 0.930 . S
H791 C788 0.929 . S
S792 N793 1.613 . S
S792 N794 1.610 . S
N793 S792 1.613 . S
N793 C796 1.350 . S
N794 S792 1.610 . S
N794 C795 1.351 . S
C795 C789 1.428 . S
C795 N794 1.351 . S
C795 C796 1.434 . S
C796 C787 1.429 . S
C796 N793 1.350 . S
C796 C795 1.434 . S
C797 C798 1.369 . S
C797 C799 1.419 . S
C797 H801 0.930 . S
C798 C797 1.369 . S
C798 C807 1.429 . S
C799 C797 1.419 . S
C799 C800 1.363 . S
C799 H802 0.929 . S
C800 C799 1.363 . S
C800 C806 1.428 . S
H801 C797 0.930 . S
H802 C799 0.929 . S
S803 N804 1.613 . S
S803 N805 1.610 . S
N804 S803 1.613 . S
N804 C807 1.350 . S
N805 S803 1.610 . S
N805 C806 1.351 . S
C806 C800 1.428 . S
C806 N805 1.351 . S
C806 C807 1.434 . S
C807 C798 1.429 . S
C807 N804 1.350 . S
C807 C806 1.434 . S
C808 C809 1.369 . S
C808 C810 1.419 . S
C808 H812 0.930 . S
C809 C808 1.369 . S
C809 C818 1.429 . S
C810 C808 1.419 . S
C810 C811 1.363 . S
C810 H813 0.929 . S
C811 C810 1.363 . S
C811 C817 1.428 . S
H812 C808 0.930 . S
H813 C810 0.929 . S
S814 N815 1.613 . S
S814 N816 1.610 . S
N815 S814 1.613 . S
N815 C818 1.350 . S
N816 S814 1.610 . S
N816 C817 1.351 . S
C817 C811 1.428 . S
C817 N816 1.351 . S
C817 C818 1.434 . S
C818 C809 1.429 . S
C818 N815 1.350 . S
C818 C817 1.434 . S
C819 C820 1.369 . S
C819 C821 1.419 . S
C819 H823 0.930 . S
C820 C819 1.369 . S
C820 C829 1.429 . S
C821 C819 1.419 . S
C821 C822 1.363 . S
C821 H824 0.929 . S
C822 C821 1.363 . S
C822 C828 1.428 . S
H823 C819 0.930 . S
H824 C821 0.929 . S
S825 N826 1.613 . S
S825 N827 1.610 . S
N826 S825 1.613 . S
N826 C829 1.350 . S
N827 S825 1.610 . S
N827 C828 1.351 . S
C828 C822 1.428 . S
C828 N827 1.351 . S
C828 C829 1.434 . S
C829 C820 1.429 . S
C829 N826 1.350 . S
C829 C828 1.434 . S
C830 C831 1.369 . S
C830 C832 1.419 . S
C830 H834 0.930 . S
C831 C830 1.369 . S
C831 C840 1.429 . S
C832 C830 1.419 . S
C832 C833 1.363 . S
C832 H835 0.929 . S
C833 C832 1.363 . S
C833 C839 1.428 . S
H834 C830 0.930 . S
H835 C832 0.929 . S
S836 N837 1.613 . S
S836 N838 1.610 . S
N837 S836 1.613 . S
N837 C840 1.350 . S
N838 S836 1.610 . S
N838 C839 1.351 . S
C839 C833 1.428 . S
C839 N838 1.351 . S
C839 C840 1.434 . S
C840 C831 1.429 . S
C840 N837 1.350 . S
C840 C839 1.434 . S
C841 C842 1.369 . S
C841 C843 1.419 . S
C841 H845 0.930 . S
C842 C841 1.369 . S
C842 C851 1.429 . S
C843 C841 1.419 . S
C843 C844 1.363 . S
C843 H846 0.929 . S
C844 C843 1.363 . S
C844 C850 1.428 . S
H845 C841 0.930 . S
H846 C843 0.929 . S
S847 N848 1.613 . S
S847 N849 1.610 . S
N848 S847 1.613 . S
N848 C851 1.350 . S
N849 S847 1.610 . S
N849 C850 1.351 . S
C850 C844 1.428 . S
C850 N849 1.351 . S
C850 C851 1.434 . S
C851 C842 1.429 . S
C851 N848 1.350 . S
C851 C850 1.434 . S
C852 C853 1.369 . S
C852 C854 1.419 . S
C852 H856 0.930 . S
C853 C852 1.369 . S
C853 C862 1.429 . S
C854 C852 1.419 . S
C854 C855 1.363 . S
C854 H857 0.929 . S
C855 C854 1.363 . S
C855 C861 1.428 . S
H856 C852 0.930 . S
H857 C854 0.929 . S
S858 N859 1.613 . S
S858 N860 1.610 . S
N859 S858 1.613 . S
N859 C862 1.350 . S
N860 S858 1.610 . S
N860 C861 1.351 . S
C861 C855 1.428 . S
C861 N860 1.351 . S
C861 C862 1.434 . S
C862 C853 1.429 . S
C862 N859 1.350 . S
C862 C861 1.434 . S
C863 C864 1.369 . S
C863 C865 1.419 . S
C863 H867 0.930 . S
C864 C863 1.369 . S
C864 C873 1.429 . S
C865 C863 1.419 . S
C865 C866 1.363 . S
C865 H868 0.929 . S
C866 C865 1.363 . S
C866 C872 1.428 . S
H867 C863 0.930 . S
H868 C865 0.929 . S
S869 N870 1.613 . S
S869 N871 1.610 . S
N870 S869 1.613 . S
N870 C873 1.350 . S
N871 S869 1.610 . S
N871 C872 1.351 . S
C872 C866 1.428 . S
C872 N871 1.351 . S
C872 C873 1.434 . S
C873 C864 1.429 . S
C873 N870 1.350 . S
C873 C872 1.434 . S
C874 C875 1.369 . S
C874 C876 1.419 . S
C874 H878 0.930 . S
C875 C874 1.369 . S
C875 C884 1.429 . S
C876 C874 1.419 . S
C876 C877 1.363 . S
C876 H879 0.929 . S
C877 C876 1.363 . S
C877 C883 1.428 . S
H878 C874 0.930 . S
H879 C876 0.929 . S
S880 N881 1.613 . S
S880 N882 1.610 . S
N881 S880 1.613 . S
N881 C884 1.350 . S
N882 S880 1.610 . S
N882 C883 1.351 . S
C883 C877 1.428 . S
C883 N882 1.351 . S
C883 C884 1.434 . S
C884 C875 1.429 . S
C884 N881 1.350 . S
C884 C883 1.434 . S
C885 C886 1.369 . S
C885 C887 1.419 . S
C885 H889 0.930 . S
C886 C885 1.369 . S
C886 C895 1.429 . S
C887 C885 1.419 . S
C887 C888 1.363 . S
C887 H890 0.929 . S
C888 C887 1.363 . S
C888 C894 1.428 . S
H889 C885 0.930 . S
H890 C887 0.929 . S
S891 N892 1.613 . S
S891 N893 1.610 . S
N892 S891 1.613 . S
N892 C895 1.350 . S
N893 S891 1.610 . S
N893 C894 1.351 . S
C894 C888 1.428 . S
C894 N893 1.351 . S
C894 C895 1.434 . S
C895 C886 1.429 . S
C895 N892 1.350 . S
C895 C894 1.434 . S
C896 C897 1.376 . S
C896 C898 1.419 . S
C896 H900 0.930 . S
C897 C896 1.376 . S
C897 C906 1.421 1_544 S
C898 C896 1.419 . S
C898 C899 1.363 1_544 S
C898 H901 0.929 . S
C899 C898 1.363 1_566 S
C899 C905 1.428 . S
H900 C896 0.930 . S
H901 C898 0.929 . S
S902 N903 1.613 . S
S902 N904 1.610 . S
N903 S902 1.613 . S
N903 C906 1.350 . S
N904 S902 1.610 . S
N904 C905 1.351 . S
C905 C899 1.428 . S
C905 N904 1.351 . S
C905 C906 1.434 . S
C906 C897 1.421 1_566 S
C906 N903 1.350 . S
C906 C905 1.434 . S
C907 C908 1.369 1_554 S
C907 C909 1.419 . S
C907 H911 0.930 . S
C908 C907 1.369 1_556 S
C908 C917 1.429 . S
C909 C907 1.419 . S
C909 C910 1.363 . S
C909 H912 0.929 . S
C910 C909 1.363 . S
C910 C916 1.428 1_554 S
H911 C907 0.930 . S
H912 C909 0.929 . S
S913 N914 1.613 . S
S913 N915 1.610 . S
N914 S913 1.613 . S
N914 C917 1.350 . S
N915 S913 1.610 . S
N915 C916 1.351 . S
C916 C910 1.428 1_556 S
C916 N915 1.351 . S
C916 C917 1.434 . S
C917 C908 1.429 . S
C917 N914 1.350 . S
C917 C916 1.434 . S
C918 C919 1.369 1_554 S
C918 C920 1.419 1_455 S
C918 H922 0.930 . S
C919 C918 1.369 1_556 S
C919 C928 1.429 . S
C920 C918 1.419 1_655 S
C920 C921 1.374 . S
C920 H923 0.929 . S
C921 C920 1.374 . S
C921 C927 1.417 1_554 S
H922 C918 0.930 . S
H923 C920 0.929 . S
S924 N925 1.613 . S
S924 N926 1.610 1_455 S
N925 S924 1.613 . S
N925 C928 1.350 . S
N926 S924 1.610 1_655 S
N926 C927 1.351 . S
C927 C921 1.417 1_556 S
C927 N926 1.351 . S
C927 C928 1.434 1_655 S
C928 C919 1.429 . S
C928 N925 1.350 . S
C928 C927 1.434 1_455 S
C929 C930 1.381 1_655 S
C929 C931 1.419 1_565 S
C929 H933 0.930 . S
C930 C929 1.381 1_455 S
C930 C939 1.416 1_554 S
C931 C929 1.419 1_545 S
C931 C932 1.363 1_554 S
C931 H934 0.929 . S
C932 C931 1.363 1_556 S
C932 C938 1.428 1_655 S
H933 C929 0.930 . S
H934 C931 0.929 . S
S935 N936 1.613 1_545 S
S935 N937 1.610 . S
N936 S935 1.613 1_565 S
N936 C939 1.350 . S
N937 S935 1.610 . S
N937 C938 1.351 . S
C938 C932 1.428 1_455 S
C938 N937 1.351 . S
C938 C939 1.434 1_545 S
C939 C930 1.416 1_556 S
C939 N936 1.350 . S
C939 C938 1.434 1_565 S
C940 C941 1.369 . S
C940 C942 1.419 . S
C940 H944 0.930 . S
C941 C940 1.369 . S
C941 C950 1.429 . S
C942 C940 1.419 . S
C942 C943 1.363 . S
C942 H945 0.929 . S
C943 C942 1.363 . S
C943 C949 1.428 . S
H944 C940 0.930 . S
H945 C942 0.929 . S
S946 N947 1.613 . S
S946 N948 1.610 . S
N947 S946 1.613 . S
N947 C950 1.350 . S
N948 S946 1.610 . S
N948 C949 1.351 . S
C949 C943 1.428 . S
C949 N948 1.351 . S
C949 C950 1.434 . S
C950 C941 1.429 . S
C950 N947 1.350 . S
C950 C949 1.434 . S
C951 C952 1.369 . S
C951 C953 1.419 . S
C951 H955 0.930 . S
C952 C951 1.369 . S
C952 C961 1.429 1_455 S
C953 C951 1.419 . S
C953 C954 1.363 1_455 S
C953 H956 0.929 . S
C954 C953 1.363 1_655 S
C954 C960 1.428 . S
H955 C951 0.930 . S
H956 C953 0.929 . S
S957 N958 1.613 . S
S957 N959 1.610 . S
N958 S957 1.613 . S
N958 C961 1.350 . S
N959 S957 1.610 . S
N959 C960 1.351 . S
C960 C954 1.428 . S
C960 N959 1.351 . S
C960 C961 1.434 . S
C961 C952 1.429 1_655 S
C961 N958 1.350 . S
C961 C960 1.434 . S
C962 C963 1.369 . S
C962 C964 1.419 1_455 S
C962 H966 0.930 . S
C963 C962 1.369 . S
C963 C972 1.429 1_565 S
C964 C962 1.419 1_655 S
C964 C965 1.363 1_565 S
C964 H967 0.929 . S
C965 C964 1.363 1_545 S
C965 C971 1.428 . S
H966 C962 0.930 . S
H967 C964 0.929 . S
S968 N969 1.613 . S
S968 N970 1.610 1_455 S
N969 S968 1.613 . S
N969 C972 1.350 . S
N970 S968 1.610 1_655 S
N970 C971 1.351 . S
C971 C965 1.428 . S
C971 N970 1.351 . S
C971 C972 1.434 1_655 S
C972 C963 1.429 1_545 S
C972 N969 1.350 . S
C972 C971 1.434 1_455 S
C973 C974 1.369 . S
C973 C975 1.419 1_565 S
C973 H977 0.930 . S
C974 C973 1.369 . S
C974 C983 1.429 . S
C975 C973 1.419 1_545 S
C975 C976 1.363 . S
C975 H978 0.929 . S
C976 C975 1.363 . S
C976 C982 1.428 . S
H977 C973 0.930 . S
H978 C975 0.929 . S
S979 N980 1.613 . S
S979 N981 1.610 1_565 S
N980 S979 1.613 . S
N980 C983 1.350 . S
N981 S979 1.610 1_545 S
N981 C982 1.351 . S
C982 C976 1.428 . S
C982 N981 1.351 . S
C982 C983 1.434 1_545 S
C983 C974 1.429 . S
C983 N980 1.350 . S
C983 C982 1.434 1_565 S
C545 C5 1.008 . S
C547 C243 1.011 . S
C556 C141 1.005 . S
C558 C39 1.018 . S
C567 C73 1.012 . S
C569 C175 1.013 . S
C578 C107 1.012 . S
C580 C209 1.008 . S
C589 C277 1.019 . S
C591 C515 1.007 . S
C600 C413 1.007 . S
C602 C311 1.010 . S
C611 C447 1.015 . S
C613 C345 1.005 . S
C622 C481 1.010 . S
C624 C379 1.016 . S
C633 C206 1.624 . S
C635 C2 1.613 . S
C644 C36 1.610 . S
C646 C240 1.623 . S
C655 C70 1.621 . S
C657 C138 1.615 . S
C666 C172 1.624 . S
C668 C104 1.612 . S
C677 C478 1.610 . S
C679 C274 1.623 . S
C688 C512 1.625 . S
C690 C308 1.613 . S
C699 C342 1.621 . S
C701 C410 1.617 . S
C710 C376 1.625 . S
C712 C444 1.612 . S
C721 C9 1.534 . S
C723 C543 1.788 . S
C732 C43 1.528 . S
C734 C441 1.784 . S
C743 C77 1.533 . S
C745 C475 1.788 . S
C754 C509 1.786 . S
C756 C111 1.540 . S
C765 C339 1.787 . S
C767 C145 1.530 . S
C776 C373 1.784 . S
C778 C179 1.528 . S
C787 C213 1.528 . S
C789 C407 1.787 . S
C798 C247 1.527 . S
C800 C305 1.784 . S
C809 C271 1.784 . S
C811 C281 1.538 . S
C820 C169 1.785 . S
C822 C315 1.539 . S
C831 C349 1.540 . S
C833 C203 1.785 . S
C842 C237 1.783 . S
C844 C383 1.534 . S
C853 C67 1.784 . S
C855 C417 1.539 . S
C864 C101 1.787 . S
C866 C451 1.540 . S
C875 C135 1.785 . S
C877 C485 1.528 . S
C886 C33 1.788 . S
C888 C519 1.530 . S
C897 C20 1.474 . S
C899 C292 1.462 . S
C908 C326 1.466 . S
C910 C54 1.465 . S
C919 C360 1.460 . S
C921 C88 1.474 . S
C930 C122 1.474 . S
C932 C394 1.462 . S
C941 C428 1.464 . S
C943 C156 1.465 . S
C952 C190 1.469 . S
C954 C462 1.462 . S
C963 C496 1.460 . S
C965 C224 1.469 . S
C974 C258 1.470 . S
C976 C530 1.461 . S
