# Generated by pormake.
# Topology umf, (4)-cn, num edge types: 1
# Building blocks:
#     Node 0, Type 0, BuildingBlock: NAWXER_clean_sbu_0, # of connection points: 4
#     Node 1, Type 0, BuildingBlock: NAWXER_clean_sbu_0, # of connection points: 4
#     Node 2, Type 0, BuildingBlock: NAWXER_clean_sbu_0, # of connection points: 4
#     Node 3, Type 0, BuildingBlock: NAWXER_clean_sbu_0, # of connection points: 4
#     Node 4, Type 0, BuildingBlock: NAWXER_clean_sbu_0, # of connection points: 4
#     Node 5, Type 0, BuildingBlock: NAWXER_clean_sbu_0, # of connection points: 4
#     Node 6, Type 0, BuildingBlock: NAWXER_clean_sbu_0, # of connection points: 4
#     Node 7, Type 0, BuildingBlock: NAWXER_clean_sbu_0, # of connection points: 4
#     Edge 8, Type (0, 0), BuildingBlock: CIFDUS_clean_linker_0, # of connection points: 2
#     Edge 9, Type (0, 0), BuildingBlock: CIFDUS_clean_linker_0, # of connection points: 2
#     Edge 10, Type (0, 0), BuildingBlock: CIFDUS_clean_linker_0, # of connection points: 2
#     Edge 11, Type (0, 0), BuildingBlock: CIFDUS_clean_linker_0, # of connection points: 2
#     Edge 12, Type (0, 0), BuildingBlock: CIFDUS_clean_linker_0, # of connection points: 2
#     Edge 13, Type (0, 0), BuildingBlock: CIFDUS_clean_linker_0, # of connection points: 2
#     Edge 14, Type (0, 0), BuildingBlock: CIFDUS_clean_linker_0, # of connection points: 2
#     Edge 15, Type (0, 0), BuildingBlock: CIFDUS_clean_linker_0, # of connection points: 2
#     Edge 16, Type (0, 0), BuildingBlock: CIFDUS_clean_linker_0, # of connection points: 2
#     Edge 17, Type (0, 0), BuildingBlock: CIFDUS_clean_linker_0, # of connection points: 2
#     Edge 18, Type (0, 0), BuildingBlock: CIFDUS_clean_linker_0, # of connection points: 2
#     Edge 19, Type (0, 0), BuildingBlock: CIFDUS_clean_linker_0, # of connection points: 2
#     Edge 20, Type (0, 0), BuildingBlock: CIFDUS_clean_linker_0, # of connection points: 2
#     Edge 21, Type (0, 0), BuildingBlock: CIFDUS_clean_linker_0, # of connection points: 2
#     Edge 22, Type (0, 0), BuildingBlock: CIFDUS_clean_linker_0, # of connection points: 2
#     Edge 23, Type (0, 0), BuildingBlock: CIFDUS_clean_linker_0, # of connection points: 2
# Relax obj value: 0.064
# Max RMSD: 0.167
# Mean RMSD: 0.166
data_MOF--net-umf--node1-NAWXER_clean_sbu_0--edge1-CIFDUS_clean_linker_0
_symmetry_space_group_name_H-M    P1
_symmetry_Int_Tables_number       1
_symmetry_cell_setting            triclinic
loop_
_symmetry_equiv_pos_as_xyz
'x, y, z'
_cell_length_a     25.28513
_cell_length_b     25.53783
_cell_length_c     46.202014
_cell_angle_alpha  90.19504
_cell_angle_beta   89.841686
_cell_angle_gamma 90.216758
loop_
_atom_site_label
_atom_site_type_symbol
_atom_site_fract_x
_atom_site_fract_y
_atom_site_fract_z
_atom_type_partial_charge
C0 C 0.1504 0.23841 0.20411 0.0
C1 C 0.07545 0.24914 0.10718 0.0
O2 O 0.09966 0.23606 0.2045 0.0
Zn3 Zn 0.03619 0.23733 0.17307 0.0
O4 O 0.17468 0.24435 0.18023 0.0
Zn5 Zn 0.11299 0.24554 0.15599 0.0
O6 O 0.07465 0.31836 0.1677 0.0
O7 O 0.99534 0.2974 0.18408 0.0
O8 O 0.12366 0.25157 0.11469 0.0
O9 O 0.03967 0.24396 0.1267 0.0
O10 O 0.00429 0.16921 0.17828 0.0
O11 O 0.08564 0.16583 0.16106 0.0
C12 C 0.02953 0.3322 0.17797 0.0
C13 C 0.04367 0.14234 0.16987 0.0
C14 C 0.74941 0.12787 0.70446 0.0
C15 C 0.72638 0.04923 0.60893 0.0
O16 O 0.75111 0.07765 0.7054 0.0
Zn17 Zn 0.74367 0.0134 0.67483 0.0
O18 O 0.73892 0.15059 0.68076 0.0
Zn19 Zn 0.7335 0.08837 0.65729 0.0
O20 O 0.66135 0.05039 0.67137 0.0
O21 O 0.68482 0.97318 0.6882 0.0
O22 O 0.72345 0.09714 0.6162 0.0
O23 O 0.73345 0.01459 0.62856 0.0
O24 O 0.81151 0.98123 0.67795 0.0
O25 O 0.81411 0.06097 0.65958 0.0
C26 C 0.64886 0.006 0.68252 0.0
C27 C 0.838 0.01952 0.66799 0.0
C28 C 0.00621 0.64378 0.18404 0.0
C29 C 0.99023 0.83392 0.17765 0.0
O30 O 0.96108 0.65794 0.1741 0.0
Zn31 Zn 0.92154 0.73047 0.16378 0.0
O32 O 0.04012 0.67841 0.191 0.0
Zn33 Zn -0.00127 0.73882 0.18118 0.0
O34 O 0.9357 0.73764 0.2126 0.0
O35 O 0.86018 0.73046 0.1889 0.0
O36 O 0.0296 0.80765 0.18643 0.0
O37 O 0.94857 0.80989 0.16892 0.0
O38 O 0.91188 0.72503 0.12208 0.0
O39 O 0.99533 0.73277 0.13506 0.0
C40 C 0.88503 0.73481 0.21267 0.0
C41 C 0.96051 0.72775 0.11514 0.0
C42 C 0.33596 0.97372 0.68522 0.0
C43 C 0.14686 0.96163 0.6702 0.0
O44 O 0.32328 0.92995 0.67329 0.0
Zn45 Zn 0.25122 0.89261 0.65884 0.0
O46 O 0.30011 0.00625 0.69181 0.0
Zn47 Zn 0.24103 0.96697 0.67777 0.0
O48 O 0.23244 0.90164 0.70716 0.0
O49 O 0.24501 0.82962 0.68148 0.0
O50 O 0.17312 -0.00062 0.68103 0.0
O51 O 0.17089 0.92048 0.66125 0.0
O52 O 0.26171 0.88557 0.61754 0.0
O53 O 0.2521 0.9675 0.63157 0.0
C54 C 0.23391 0.85147 0.70547 0.0
C55 C 0.25922 0.9339 0.61126 0.0
C56 C 0.98257 0.83361 0.88226 0.0
C57 C 0.98757 0.64498 0.87169 0.0
O58 O 0.02511 0.81439 0.89287 0.0
Zn59 Zn 0.05959 0.73758 0.8978 0.0
O60 O 0.94844 0.80343 0.87084 0.0
Zn61 Zn 0.98656 0.73967 0.87673 0.0
O62 O 0.98199 0.7322 0.92339 0.0
O63 O 0.06415 0.73097 0.93908 0.0
O64 O 0.9528 0.67713 0.86328 0.0
O65 O 0.02937 0.66206 0.88438 0.0
O66 O 0.12507 0.74595 0.8774 0.0
O67 O 0.05541 0.75 0.84878 0.0
C68 C 0.0149 0.72955 0.94443 0.0
C69 C 0.10577 0.75225 0.85234 0.0
C70 C 0.14752 0.03804 0.3927 0.0
C71 C 0.34081 0.04189 0.38547 0.0
O72 O 0.16785 0.08054 0.40257 0.0
Zn73 Zn 0.24524 0.11401 0.4087 0.0
O74 O 0.17776 0.00195 0.38346 0.0
Zn75 Zn 0.24428 0.03856 0.38971 0.0
O76 O 0.2501 0.03901 0.43608 0.0
O77 O 0.24994 0.12143 0.45025 0.0
O78 O 0.30951 0.00507 0.37828 0.0
O79 O 0.32194 0.084 0.39664 0.0
O80 O 0.23868 0.17644 0.38577 0.0
O81 O 0.23794 0.10343 0.35988 0.0
C82 C 0.25185 0.07308 0.45651 0.0
C83 C 0.2356 0.15359 0.36135 0.0
C84 C 0.98498 0.14523 0.8873 0.0
C85 C 0.98137 0.33346 0.8767 0.0
O86 O 0.94127 0.16429 0.89674 0.0
Zn87 Zn 0.90669 0.24152 0.90123 0.0
O88 O 0.02046 0.17558 0.87739 0.0
Zn89 Zn 0.98176 0.23907 0.88247 0.0
O90 O 0.98147 0.24666 0.92917 0.0
O91 O 0.8978 0.24848 0.94238 0.0
O92 O 0.0171 0.30099 0.86989 0.0
O93 O 0.93808 0.31695 0.88815 0.0
O94 O 0.84333 0.23296 0.87916 0.0
O95 O 0.91586 0.22849 0.85252 0.0
C96 C 0.94635 0.24956 0.94922 0.0
C97 C 0.8652 0.2263 0.85468 0.0
C98 C 0.83968 0.96412 0.38812 0.0
C99 C 0.64624 0.96278 0.38179 0.0
O100 O 0.81899 0.9206 0.39612 0.0
Zn101 Zn 0.74154 0.88693 0.40104 0.0
O102 O 0.80979 0.00147 0.3804 0.0
Zn103 Zn 0.74281 0.96485 0.38521 0.0
O104 O 0.73715 0.95843 0.43132 0.0
O105 O 0.73706 0.87463 0.44242 0.0
O106 O 0.67763 0.00028 0.37588 0.0
O107 O 0.66504 0.91925 0.39094 0.0
O108 O 0.74708 0.82781 0.37502 0.0
O109 O 0.74758 0.9042 0.35264 0.0
C110 C 0.73533 0.92225 0.45045 0.0
C111 C 0.74939 0.854 0.3517 0.0
H112 H 0.09823 0.41423 0.18192 0.0
H113 H 0.93177 0.3763 0.18201 0.0
H114 H 0.90987 0.46923 0.18471 0.0
H115 H 0.93787 0.56146 0.18497 0.0
H116 H 0.10422 0.59956 0.18691 0.0
H117 H 0.12625 0.50647 0.18572 0.0
C118 C 0.05718 0.42633 0.18263 0.0
C119 C 0.01671 0.3884 0.18151 0.0
C120 C 0.04482 0.47987 0.18454 0.0
C121 C 0.9637 0.40466 0.18284 0.0
C122 C 0.95111 0.45783 0.18431 0.0
C123 C 0.97895 0.54938 0.18528 0.0
C124 C 0.01934 0.58742 0.1858 0.0
C125 C 0.99133 0.49579 0.18485 0.0
C126 C 0.07236 0.57111 0.18655 0.0
C127 C 0.085 0.51786 0.18575 0.0
H128 H 0.4201 0.90814 0.68766 0.0
H129 H 0.37787 0.07161 0.69095 0.0
H130 H 0.47123 0.09626 0.69159 0.0
H131 H 0.56492 0.07149 0.68786 0.0
H132 H 0.6071 0.90792 0.68658 0.0
H133 H 0.51383 0.88324 0.68871 0.0
C134 C 0.43139 0.94912 0.68877 0.0
C135 C 0.3922 0.98796 0.68897 0.0
C136 C 0.48513 0.96304 0.68936 0.0
C137 C 0.40731 0.04091 0.69079 0.0
C138 C 0.4607 0.05509 0.69101 0.0
C139 C 0.55364 0.03047 0.68827 0.0
C140 C 0.59276 0.99163 0.68676 0.0
C141 C 0.49994 0.01651 0.68978 0.0
C142 C 0.5777 0.93861 0.68771 0.0
C143 C 0.52436 0.92442 0.68881 0.0
H144 H 0.90844 0.41065 0.87101 0.0
H145 H 0.07655 0.38305 0.87433 0.0
H146 H 0.09362 0.47708 0.87208 0.0
H147 H 0.06064 0.56742 0.87169 0.0
H148 H 0.8928 0.59511 0.86582 0.0
H149 H 0.8758 0.50091 0.86627 0.0
C150 C 0.94877 0.42531 0.87109 0.0
C151 C 0.99112 0.39009 0.87309 0.0
C152 C 0.95836 0.47942 0.86935 0.0
C153 C 0.04324 0.40944 0.87277 0.0
C154 C 0.05306 0.4632 0.87159 0.0
C155 C 0.0204 0.55276 0.8703 0.0
C156 C 0.97806 0.5881 0.86897 0.0
C157 C 0.01092 0.49857 0.87024 0.0
C158 C 0.92612 0.56865 0.86681 0.0
C159 C 0.91632 0.5148 0.86721 0.0
H160 H 0.39662 0.95152 0.37904 0.0
H161 H 0.41548 0.11921 0.38488 0.0
H162 H 0.51147 0.1099 0.38227 0.0
H163 H 0.59046 0.05389 0.38069 0.0
H164 H 0.57152 0.88598 0.3778 0.0
H165 H 0.47551 0.89562 0.37675 0.0
C166 C 0.42172 0.98605 0.37946 0.0
C167 C 0.39884 0.03597 0.38214 0.0
C168 C 0.47703 0.98036 0.37859 0.0
C169 C 0.43202 0.08028 0.38295 0.0
C170 C 0.48697 0.07501 0.38144 0.0
C171 C 0.56531 0.01945 0.37953 0.0
C172 C 0.58819 0.96931 0.3793 0.0
C173 C 0.50998 0.02522 0.3796 0.0
C174 C 0.55498 0.92505 0.37812 0.0
C175 C 0.50002 0.93051 0.37751 0.0
H176 H 0.04638 0.25262 0.97124 0.0
H177 H 0.88194 0.25247 0.99674 0.0
H178 H 0.90747 0.25319 0.04759 0.0
H179 H 0.97612 0.2517 0.08488 0.0
H180 H 0.14069 0.25204 0.05975 0.0
H181 H 0.11535 0.25352 1.00875 0.0
C182 C 0.01609 0.25295 0.9879 0.0
C183 C 0.96227 0.25233 0.98008 0.0
C184 C 0.03103 0.25326 1.01721 0.0
C185 C 0.92364 0.25287 1.00204 0.0
C186 C 0.93819 0.25322 0.03118 0.0
C187 C 0.00654 0.25217 0.06829 0.0
C188 C 0.06027 0.25153 0.07621 0.0
C189 C 0.99172 0.25304 0.03901 0.0
C190 C 0.09904 0.25244 0.05433 0.0
C191 C 0.08458 0.25325 1.02513 0.0
H192 H 0.73188 0.95046 0.58651 0.0
H193 H 0.71551 0.11248 0.56172 0.0
H194 H 0.71579 0.08712 0.51075 0.0
H195 H 0.72318 0.01961 0.47325 0.0
H196 H 0.73963 0.85745 0.49764 0.0
H197 H 0.73669 0.88234 0.54879 0.0
C198 C 0.72813 0.98026 0.56999 0.0
C199 C 0.72384 0.03339 0.57802 0.0
C200 C 0.7285 0.96543 0.54065 0.0
C201 C 0.71892 0.07136 0.55624 0.0
C202 C 0.71916 0.0569 0.52705 0.0
C203 C 0.72606 0.98957 0.4897 0.0
C204 C 0.73188 0.9367 0.48154 0.0
C205 C 0.72436 0.00414 0.51902 0.0
C206 C 0.7352 0.89842 0.50324 0.0
C207 C 0.73357 0.91264 0.53252 0.0
H208 H 0.8993 0.72494 0.0662 0.0
H209 H 0.06166 0.72603 0.09508 0.0
H210 H 0.09236 0.72523 0.0452 0.0
H211 H 0.07393 0.72629 0.9934 0.0
H212 H 0.91229 0.72612 0.96364 0.0
H213 H 0.88077 0.72429 1.0137 0.0
C214 C 0.94136 0.72482 0.06157 0.0
C215 C 0.97797 0.72572 0.08447 0.0
C216 C 0.95905 0.72458 0.03263 0.0
C217 C 0.03241 0.72555 0.078 0.0
C218 C 0.05016 0.72507 0.04941 0.0
C219 C 0.03177 0.72566 0.99779 0.0
C220 C 0.99562 0.72645 0.97474 0.0
C221 C 0.01391 0.72491 1.02657 0.0
C222 C 0.9411 0.72559 0.98094 0.0
C223 C 0.92299 0.72459 1.00959 0.0
H224 H 0.2622 0.97341 0.47635 0.0
H225 H 0.24939 0.13374 0.50545 0.0
H226 H 0.25235 0.10481 0.55574 0.0
H227 H 0.25603 0.03401 0.59142 0.0
H228 H 0.26865 0.87363 0.56238 0.0
H229 H 0.26859 0.90277 0.51207 0.0
C230 C 0.26015 0.00212 0.49366 0.0
C231 C 0.25532 0.05572 0.48705 0.0
C232 C 0.26184 0.98523 0.52255 0.0
C233 C 0.25302 0.09227 0.50984 0.0
C234 C 0.25468 0.07576 0.53864 0.0
C235 C 0.25901 0.00534 0.57413 0.0
C236 C 0.26216 0.95163 0.58075 0.0
C237 C 0.25873 0.02232 0.54524 0.0
C238 C 0.26614 0.91518 0.55798 0.0
C239 C 0.26601 0.93181 0.52917 0.0
H240 H 0.12701 0.27111 0.25854 0.0
H241 H 0.23909 0.17994 0.20943 0.0
H242 H 0.27864 0.14788 0.25424 0.0
H243 H 0.27453 0.1384 0.30733 0.0
H244 H 0.16695 0.23444 0.35659 0.0
H245 H 0.1328 0.27264 0.31189 0.0
C246 C 0.16076 0.24503 0.25776 0.0
C247 C 0.17991 0.22747 0.23087 0.0
C248 C 0.1838 0.22746 0.28359 0.0
C249 C 0.2239 0.19409 0.22996 0.0
C250 C 0.24625 0.17548 0.25554 0.0
C251 C 0.24437 0.16848 0.30819 0.0
C252 C 0.22288 0.18339 0.33503 0.0
C253 C 0.22557 0.19079 0.28246 0.0
C254 C 0.18417 0.22262 0.33609 0.0
C255 C 0.16439 0.24416 0.31056 0.0
H256 H 0.8741 0.25707 0.79848 0.0
H257 H 0.78495 0.15621 0.8553 0.0
H258 H 0.73856 0.11816 0.81387 0.0
H259 H 0.72864 0.10864 0.76106 0.0
H260 H 0.81162 0.21467 0.70437 0.0
H261 H 0.85449 0.25623 0.746 0.0
C262 C 0.84397 0.22728 0.80169 0.0
C263 C 0.83313 0.20909 0.82976 0.0
C264 C 0.81643 0.20652 0.77781 0.0
C265 C 0.79372 0.17089 0.83383 0.0
C266 C 0.76738 0.14895 0.81017 0.0
C267 C 0.75537 0.14149 0.75796 0.0
C268 C 0.76722 0.15848 0.7298 0.0
C269 C 0.7791 0.16578 0.78201 0.0
C270 C 0.80164 0.20123 0.72593 0.0
C271 C 0.82649 0.2247 0.7497 0.0
H272 H 0.81379 0.7716 0.34144 0.0
H273 H 0.70944 0.88011 0.29921 0.0
H274 H 0.73656 0.84634 0.25181 0.0
H275 H 0.79781 0.79339 0.22241 0.0
H276 H 0.91039 0.69355 0.26483 0.0
H277 H 0.87212 0.71568 0.31201 0.0
C278 C 0.79617 0.78687 0.32184 0.0
C279 C 0.75948 0.82793 0.32369 0.0
C280 C 0.8139 0.76905 0.29468 0.0
C281 C 0.73772 0.84837 0.2982 0.0
C282 C 0.75333 0.8292 0.27114 0.0
C283 C 0.81299 0.77562 0.24198 0.0
C284 C 0.85646 0.74165 0.24028 0.0
C285 C 0.7925 0.79059 0.26909 0.0
C286 C 0.87678 0.71972 0.26574 0.0
C287 C 0.85505 0.7325 0.29268 0.0
H288 H 0.25163 0.86876 0.76259 0.0
H289 H 0.17126 0.76505 0.70338 0.0
H290 H 0.12497 0.72324 0.74379 0.0
H291 H 0.10122 0.72205 0.7958 0.0
H292 H 0.18744 0.82067 0.85522 0.0
H293 H 0.23779 0.85837 0.8151 0.0
C294 C 0.22477 0.83629 0.75868 0.0
C295 C 0.21462 0.8201 0.73014 0.0
C296 C 0.19898 0.8119 0.78204 0.0
C297 C 0.17998 0.77786 0.72523 0.0
C298 C 0.15316 0.75426 0.7483 0.0
C299 C 0.13159 0.75124 0.79988 0.0
C300 C 0.14039 0.76897 0.82829 0.0
C301 C 0.16137 0.77183 0.77675 0.0
C302 C 0.18016 0.80637 0.83348 0.0
C303 C 0.20878 0.82811 0.81056 0.0
H304 H 0.95715 0.07886 0.17408 0.0
H305 H 0.12751 0.07567 0.16851 0.0
H306 H 0.12636 0.98028 0.17155 0.0
H307 H 0.07697 0.89736 0.17553 0.0
H308 H 0.90646 0.90039 0.17849 0.0
H309 H 0.9077 -0.00407 0.17685 0.0
C310 C 0.994 0.05727 0.17356 0.0
C311 C 0.04229 0.0844 0.17111 0.0
C312 C 0.99307 0.00228 0.1749 0.0
C313 C 0.08971 0.05579 0.17023 0.0
C314 C 0.08915 0.0012 0.17207 0.0
C315 C 0.04015 0.919 0.17597 0.0
C316 C 0.99175 0.89184 0.17725 0.0
C317 C 0.04108 0.97399 0.17441 0.0
C318 C 0.94429 0.92037 0.17743 0.0
C319 C 0.94493 0.97503 0.17652 0.0
H320 H 0.08546 0.04843 0.66929 0.0
H321 H 0.07836 0.87958 0.66772 0.0
H322 H 0.9819 0.88247 0.66683 0.0
H323 H 0.89958 0.93295 0.66742 0.0
H324 H 0.90657 0.1018 0.66663 0.0
H325 H 0.00308 0.09897 0.66739 0.0
C326 C 0.0627 0.01234 0.66875 0.0
C327 C 0.08879 0.96393 0.66872 0.0
C328 C 0.00733 0.01427 0.66779 0.0
C329 C 0.05903 0.91738 0.66766 0.0
C330 C 0.00393 0.91896 0.66723 0.0
C331 C 0.9223 0.96907 0.66738 0.0
C332 C 0.89616 0.01744 0.66712 0.0
C333 C 0.97768 0.96717 0.66743 0.0
C334 C 0.92592 0.06402 0.66673 0.0
C335 C 0.98106 0.06248 0.66727 0.0
H336 H 0.90999 0.06947 0.8853 0.0
H337 H 0.07884 0.09346 0.88887 0.0
H338 H 0.09285 -0.00123 0.88842 0.0
H339 H 0.05708 0.90943 0.88654 0.0
H340 H 0.88855 0.8854 0.87979 0.0
H341 H 0.87432 0.98003 0.88188 0.0
C342 C 0.9498 0.05388 0.88615 0.0
C343 C 0.99333 0.08818 0.88733 0.0
C344 C 0.95756 -0.00045 0.88521 0.0
C345 C 0.04476 0.06768 0.88793 0.0
C346 C 0.05277 0.01363 0.88771 0.0
C347 C 0.01723 0.92494 0.88564 0.0
C348 C 0.97389 0.89063 0.8832 0.0
C349 C 0.00947 0.97925 0.88629 0.0
C350 C 0.92252 0.91116 0.88162 0.0
C351 C 0.91437 0.96518 0.88289 0.0
H352 H 0.89799 0.05422 0.38984 0.0
H353 H 0.9125 0.88609 0.38575 0.0
H354 H 0.00872 0.89375 0.38592 0.0
H355 H 0.08926 0.94815 0.38799 0.0
H356 H 0.0746 0.11603 0.39473 0.0
H357 H 0.97848 0.10851 0.39279 0.0
C358 C 0.92226 0.01932 0.38885 0.0
C359 C 0.89805 0.96972 0.38773 0.0
C360 C 0.97774 0.02391 0.38953 0.0
C361 C 0.93008 0.9248 0.38675 0.0
C362 C 0.98518 0.9291 0.3868 0.0
C363 C 0.065 0.98304 0.38895 0.0
C364 C 0.08917 0.03252 0.39149 0.0
C365 C 0.00951 0.97844 0.38832 0.0
C366 C 0.05709 0.07738 0.39294 0.0
C367 C 0.00203 0.07317 0.39176 0.0
loop_
_geom_bond_atom_site_label_1
_geom_bond_atom_site_label_2
_geom_bond_distance
_geom_bond_site_symmetry_2
_ccdc_geom_bond_type
C0 O2 1.247 . S
C0 O4 1.258 . S
C1 O8 1.247 . S
C1 O9 1.258 . S
O2 C0 1.247 . S
O2 Zn3 2.028 . S
Zn3 O2 2.028 . S
Zn3 O7 2.035 . S
Zn3 O9 2.035 . S
Zn3 O10 2.028 . S
O4 C0 1.258 . S
O4 Zn5 2.035 . S
Zn5 O4 2.035 . S
Zn5 O6 2.028 . S
Zn5 O8 2.028 . S
Zn5 O11 2.035 . S
O6 Zn5 2.028 . S
O6 C12 1.247 . S
O7 Zn3 2.035 . S
O7 C12 1.258 . S
O8 C1 1.247 . S
O8 Zn5 2.028 . S
O9 C1 1.258 . S
O9 Zn3 2.035 . S
O10 Zn3 2.028 . S
O10 C13 1.247 . S
O11 Zn5 2.035 . S
O11 C13 1.258 . S
C12 O6 1.247 . S
C12 O7 1.258 . S
C13 O10 1.247 . S
C13 O11 1.258 . S
C14 O16 1.247 . S
C14 O18 1.258 . S
C15 O22 1.247 . S
C15 O23 1.258 . S
O16 C14 1.247 . S
O16 Zn17 2.028 . S
Zn17 O16 2.028 . S
Zn17 O21 2.035 . S
Zn17 O23 2.035 . S
Zn17 O24 2.028 . S
O18 C14 1.258 . S
O18 Zn19 2.035 . S
Zn19 O18 2.035 . S
Zn19 O20 2.028 . S
Zn19 O22 2.028 . S
Zn19 O25 2.035 . S
O20 Zn19 2.028 . S
O20 C26 1.247 . S
O21 Zn17 2.035 . S
O21 C26 1.258 . S
O22 C15 1.247 . S
O22 Zn19 2.028 . S
O23 C15 1.258 . S
O23 Zn17 2.035 . S
O24 Zn17 2.028 . S
O24 C27 1.247 . S
O25 Zn19 2.035 . S
O25 C27 1.258 . S
C26 O20 1.247 . S
C26 O21 1.258 . S
C27 O24 1.247 . S
C27 O25 1.258 . S
C28 O30 1.247 . S
C28 O32 1.258 . S
C29 O36 1.247 . S
C29 O37 1.258 . S
O30 C28 1.247 . S
O30 Zn31 2.028 . S
Zn31 O30 2.028 . S
Zn31 O35 2.035 . S
Zn31 O37 2.035 . S
Zn31 O38 2.028 . S
O32 C28 1.258 . S
O32 Zn33 2.035 . S
Zn33 O32 2.035 . S
Zn33 O34 2.028 . S
Zn33 O36 2.028 . S
Zn33 O39 2.035 . S
O34 Zn33 2.028 . S
O34 C40 1.247 . S
O35 Zn31 2.035 . S
O35 C40 1.258 . S
O36 C29 1.247 . S
O36 Zn33 2.028 . S
O37 C29 1.258 . S
O37 Zn31 2.035 . S
O38 Zn31 2.028 . S
O38 C41 1.247 . S
O39 Zn33 2.035 . S
O39 C41 1.258 . S
C40 O34 1.247 . S
C40 O35 1.258 . S
C41 O38 1.247 . S
C41 O39 1.258 . S
C42 O44 1.247 . S
C42 O46 1.258 . S
C43 O50 1.247 . S
C43 O51 1.258 . S
O44 C42 1.247 . S
O44 Zn45 2.028 . S
Zn45 O44 2.028 . S
Zn45 O49 2.035 . S
Zn45 O51 2.035 . S
Zn45 O52 2.028 . S
O46 C42 1.258 . S
O46 Zn47 2.035 . S
Zn47 O46 2.035 . S
Zn47 O48 2.028 . S
Zn47 O50 2.028 . S
Zn47 O53 2.035 . S
O48 Zn47 2.028 . S
O48 C54 1.247 . S
O49 Zn45 2.035 . S
O49 C54 1.258 . S
O50 C43 1.247 . S
O50 Zn47 2.028 . S
O51 C43 1.258 . S
O51 Zn45 2.035 . S
O52 Zn45 2.028 . S
O52 C55 1.247 . S
O53 Zn47 2.035 . S
O53 C55 1.258 . S
C54 O48 1.247 . S
C54 O49 1.258 . S
C55 O52 1.247 . S
C55 O53 1.258 . S
C56 O58 1.247 . S
C56 O60 1.258 . S
C57 O64 1.247 . S
C57 O65 1.258 . S
O58 C56 1.247 . S
O58 Zn59 2.028 . S
Zn59 O58 2.028 . S
Zn59 O63 2.035 . S
Zn59 O65 2.035 . S
Zn59 O66 2.028 . S
O60 C56 1.258 . S
O60 Zn61 2.035 . S
Zn61 O60 2.035 . S
Zn61 O62 2.028 . S
Zn61 O64 2.028 . S
Zn61 O67 2.035 . S
O62 Zn61 2.028 . S
O62 C68 1.247 . S
O63 Zn59 2.035 . S
O63 C68 1.258 . S
O64 C57 1.247 . S
O64 Zn61 2.028 . S
O65 C57 1.258 . S
O65 Zn59 2.035 . S
O66 Zn59 2.028 . S
O66 C69 1.247 . S
O67 Zn61 2.035 . S
O67 C69 1.258 . S
C68 O62 1.247 . S
C68 O63 1.258 . S
C69 O66 1.247 . S
C69 O67 1.258 . S
C70 O72 1.247 . S
C70 O74 1.258 . S
C71 O78 1.247 . S
C71 O79 1.258 . S
O72 C70 1.247 . S
O72 Zn73 2.028 . S
Zn73 O72 2.028 . S
Zn73 O77 2.035 . S
Zn73 O79 2.035 . S
Zn73 O80 2.028 . S
O74 C70 1.258 . S
O74 Zn75 2.035 . S
Zn75 O74 2.035 . S
Zn75 O76 2.028 . S
Zn75 O78 2.028 . S
Zn75 O81 2.035 . S
O76 Zn75 2.028 . S
O76 C82 1.247 . S
O77 Zn73 2.035 . S
O77 C82 1.258 . S
O78 C71 1.247 . S
O78 Zn75 2.028 . S
O79 C71 1.258 . S
O79 Zn73 2.035 . S
O80 Zn73 2.028 . S
O80 C83 1.247 . S
O81 Zn75 2.035 . S
O81 C83 1.258 . S
C82 O76 1.247 . S
C82 O77 1.258 . S
C83 O80 1.247 . S
C83 O81 1.258 . S
C84 O86 1.247 . S
C84 O88 1.258 . S
C85 O92 1.247 . S
C85 O93 1.258 . S
O86 C84 1.247 . S
O86 Zn87 2.028 . S
Zn87 O86 2.028 . S
Zn87 O91 2.035 . S
Zn87 O93 2.035 . S
Zn87 O94 2.028 . S
O88 C84 1.258 . S
O88 Zn89 2.035 . S
Zn89 O88 2.035 . S
Zn89 O90 2.028 . S
Zn89 O92 2.028 . S
Zn89 O95 2.035 . S
O90 Zn89 2.028 . S
O90 C96 1.247 . S
O91 Zn87 2.035 . S
O91 C96 1.258 . S
O92 C85 1.247 . S
O92 Zn89 2.028 . S
O93 C85 1.258 . S
O93 Zn87 2.035 . S
O94 Zn87 2.028 . S
O94 C97 1.247 . S
O95 Zn89 2.035 . S
O95 C97 1.258 . S
C96 O90 1.247 . S
C96 O91 1.258 . S
C97 O94 1.247 . S
C97 O95 1.258 . S
C98 O100 1.247 . S
C98 O102 1.258 . S
C99 O106 1.247 . S
C99 O107 1.258 . S
O100 C98 1.247 . S
O100 Zn101 2.028 . S
Zn101 O100 2.028 . S
Zn101 O105 2.035 . S
Zn101 O107 2.035 . S
Zn101 O108 2.028 . S
O102 C98 1.258 . S
O102 Zn103 2.035 . S
Zn103 O102 2.035 . S
Zn103 O104 2.028 . S
Zn103 O106 2.028 . S
Zn103 O109 2.035 . S
O104 Zn103 2.028 . S
O104 C110 1.247 . S
O105 Zn101 2.035 . S
O105 C110 1.258 . S
O106 C99 1.247 . S
O106 Zn103 2.028 . S
O107 C99 1.258 . S
O107 Zn101 2.035 . S
O108 Zn101 2.028 . S
O108 C111 1.247 . S
O109 Zn103 2.035 . S
O109 C111 1.258 . S
C110 O104 1.247 . S
C110 O105 1.258 . S
C111 O108 1.247 . S
C111 O109 1.258 . S
H112 C118 0.930 . S
H113 C121 0.930 1_655 S
H114 C122 0.930 . S
H115 C123 0.930 . S
H116 C126 0.930 1_455 S
H117 C127 0.930 . S
C118 H112 0.930 . S
C118 C119 1.355 . S
C118 C120 1.415 . S
C119 C118 1.355 . S
C119 C121 1.419 . S
C120 C118 1.415 . S
C120 C125 1.425 1_455 S
C120 C127 1.409 . S
C121 H113 0.930 1_455 S
C121 C119 1.419 . S
C121 C122 1.362 1_455 S
C122 H114 0.930 . S
C122 C121 1.362 1_655 S
C122 C125 1.409 . S
C123 H115 0.930 . S
C123 C124 1.355 . S
C123 C125 1.415 . S
C124 C123 1.355 . S
C124 C126 1.419 . S
C125 C120 1.425 1_655 S
C125 C122 1.409 . S
C125 C123 1.415 . S
C126 H116 0.930 1_655 S
C126 C124 1.419 . S
C126 C127 1.362 1_655 S
C127 H117 0.930 . S
C127 C120 1.409 . S
C127 C126 1.362 1_455 S
H128 C134 0.930 . S
H129 C137 0.930 . S
H130 C138 0.930 . S
H131 C139 0.930 . S
H132 C142 0.930 . S
H133 C143 0.930 . S
C134 H128 0.930 . S
C134 C135 1.355 . S
C134 C136 1.415 . S
C135 C134 1.355 . S
C135 C137 1.419 1_565 S
C136 C134 1.415 . S
C136 C141 1.425 1_565 S
C136 C143 1.409 . S
C137 H129 0.930 . S
C137 C135 1.419 1_545 S
C137 C138 1.362 . S
C138 H130 0.930 . S
C138 C137 1.362 . S
C138 C141 1.409 . S
C139 H131 0.930 . S
C139 C140 1.355 . S
C139 C141 1.415 . S
C140 C139 1.355 . S
C140 C142 1.419 1_545 S
C141 C136 1.425 1_545 S
C141 C138 1.409 . S
C141 C139 1.415 . S
C142 H132 0.930 . S
C142 C140 1.419 1_565 S
C142 C143 1.362 . S
C143 H133 0.930 . S
C143 C136 1.409 . S
C143 C142 1.362 . S
H144 C150 0.930 . S
H145 C153 0.930 . S
H146 C154 0.930 . S
H147 C155 0.930 . S
H148 C158 0.930 . S
H149 C159 0.930 . S
C150 H144 0.930 . S
C150 C151 1.355 . S
C150 C152 1.415 . S
C151 C150 1.355 . S
C151 C153 1.419 1_655 S
C152 C150 1.415 . S
C152 C157 1.425 1_655 S
C152 C159 1.409 . S
C153 H145 0.930 . S
C153 C151 1.419 1_455 S
C153 C154 1.362 . S
C154 H146 0.930 . S
C154 C153 1.362 . S
C154 C157 1.409 . S
C155 H147 0.930 . S
C155 C156 1.355 . S
C155 C157 1.415 . S
C156 C155 1.355 . S
C156 C158 1.419 1_455 S
C157 C152 1.425 1_455 S
C157 C154 1.409 . S
C157 C155 1.415 . S
C158 H148 0.930 . S
C158 C156 1.419 1_655 S
C158 C159 1.362 . S
C159 H149 0.930 . S
C159 C152 1.409 . S
C159 C158 1.362 . S
H160 C166 0.930 1_565 S
H161 C169 0.930 . S
H162 C170 0.930 . S
H163 C171 0.930 1_545 S
H164 C174 0.930 . S
H165 C175 0.930 . S
C166 H160 0.930 1_545 S
C166 C167 1.355 . S
C166 C168 1.415 1_545 S
C167 C166 1.355 . S
C167 C169 1.419 . S
C168 C166 1.415 1_565 S
C168 C173 1.425 1_565 S
C168 C175 1.409 . S
C169 H161 0.930 . S
C169 C167 1.419 . S
C169 C170 1.362 . S
C170 H162 0.930 . S
C170 C169 1.362 . S
C170 C173 1.409 . S
C171 H163 0.930 1_565 S
C171 C172 1.355 . S
C171 C173 1.415 1_565 S
C172 C171 1.355 . S
C172 C174 1.419 . S
C173 C168 1.425 1_545 S
C173 C170 1.409 . S
C173 C171 1.415 1_545 S
C174 H164 0.930 . S
C174 C172 1.419 . S
C174 C175 1.362 . S
C175 H165 0.930 . S
C175 C168 1.409 . S
C175 C174 1.362 . S
H176 C182 0.932 . S
H177 C185 0.930 . S
H178 C186 0.930 . S
H179 C187 0.932 . S
H180 C190 0.930 . S
H181 C191 0.930 . S
C182 H176 0.932 . S
C182 C183 1.355 . S
C182 C184 1.415 1_655 S
C183 C182 1.355 . S
C183 C185 1.419 . S
C184 C182 1.415 1_455 S
C184 C189 1.425 1_456 S
C184 C191 1.409 1_556 S
C185 H177 0.930 . S
C185 C183 1.419 . S
C185 C186 1.362 . S
C186 H178 0.930 . S
C186 C185 1.362 . S
C186 C189 1.409 1_556 S
C187 H179 0.932 . S
C187 C188 1.355 . S
C187 C189 1.415 1_455 S
C188 C187 1.355 . S
C188 C190 1.419 . S
C189 C184 1.425 1_654 S
C189 C186 1.409 1_554 S
C189 C187 1.415 1_655 S
C190 H180 0.930 . S
C190 C188 1.419 . S
C190 C191 1.362 . S
C191 H181 0.930 . S
C191 C184 1.409 1_554 S
C191 C190 1.362 . S
H192 C198 0.930 . S
H193 C201 0.930 . S
H194 C202 0.930 . S
H195 C203 0.930 . S
H196 C206 0.930 . S
H197 C207 0.930 . S
C198 H192 0.930 . S
C198 C199 1.355 1_565 S
C198 C200 1.415 . S
C199 C198 1.355 1_545 S
C199 C201 1.419 . S
C200 C198 1.415 . S
C200 C205 1.425 1_565 S
C200 C207 1.409 . S
C201 H193 0.930 . S
C201 C199 1.419 . S
C201 C202 1.362 . S
C202 H194 0.930 . S
C202 C201 1.362 . S
C202 C205 1.409 . S
C203 H195 0.930 . S
C203 C204 1.355 1_545 S
C203 C205 1.415 . S
C204 C203 1.355 1_565 S
C204 C206 1.419 . S
C205 C200 1.425 1_545 S
C205 C202 1.409 . S
C205 C203 1.415 . S
C206 H196 0.930 . S
C206 C204 1.419 . S
C206 C207 1.362 . S
C207 H197 0.930 . S
C207 C200 1.409 . S
C207 C206 1.362 . S
H208 C214 0.930 . S
H209 C217 0.930 . S
H210 C218 0.930 . S
H211 C219 0.930 . S
H212 C222 0.930 . S
H213 C223 0.930 . S
C214 H208 0.930 . S
C214 C215 1.355 . S
C214 C216 1.415 . S
C215 C214 1.355 . S
C215 C217 1.419 1_655 S
C216 C214 1.415 . S
C216 C221 1.425 1_654 S
C216 C223 1.409 1_554 S
C217 H209 0.930 . S
C217 C215 1.419 1_455 S
C217 C218 1.362 . S
C218 H210 0.930 . S
C218 C217 1.362 . S
C218 C221 1.409 1_554 S
C219 H211 0.930 . S
C219 C220 1.355 . S
C219 C221 1.415 . S
C220 C219 1.355 . S
C220 C222 1.419 1_455 S
C221 C216 1.425 1_456 S
C221 C218 1.409 1_556 S
C221 C219 1.415 . S
C222 H212 0.930 . S
C222 C220 1.419 1_655 S
C222 C223 1.362 . S
C223 H213 0.930 . S
C223 C216 1.409 1_556 S
C223 C222 1.362 . S
H224 C230 0.930 . S
H225 C233 0.930 . S
H226 C234 0.930 . S
H227 C235 0.930 . S
H228 C238 0.930 . S
H229 C239 0.930 . S
C230 H224 0.930 . S
C230 C231 1.355 1_565 S
C230 C232 1.415 . S
C231 C230 1.355 1_545 S
C231 C233 1.419 . S
C232 C230 1.415 . S
C232 C237 1.425 1_565 S
C232 C239 1.409 . S
C233 H225 0.930 . S
C233 C231 1.419 . S
C233 C234 1.362 . S
C234 H226 0.930 . S
C234 C233 1.362 . S
C234 C237 1.409 . S
C235 H227 0.930 . S
C235 C236 1.355 1_545 S
C235 C237 1.415 . S
C236 C235 1.355 1_565 S
C236 C238 1.419 . S
C237 C232 1.425 1_545 S
C237 C234 1.409 . S
C237 C235 1.415 . S
C238 H228 0.930 . S
C238 C236 1.419 . S
C238 C239 1.362 . S
C239 H229 0.930 . S
C239 C232 1.409 . S
C239 C238 1.362 . S
H240 C246 0.930 . S
H241 C249 0.930 . S
H242 C250 0.930 . S
H243 C251 0.930 . S
H244 C254 0.930 . S
H245 C255 0.930 . S
C246 H240 0.930 . S
C246 C247 1.355 . S
C246 C248 1.415 . S
C247 C246 1.355 . S
C247 C249 1.419 . S
C248 C246 1.415 . S
C248 C253 1.425 . S
C248 C255 1.409 . S
C249 H241 0.930 . S
C249 C247 1.419 . S
C249 C250 1.362 . S
C250 H242 0.930 . S
C250 C249 1.362 . S
C250 C253 1.409 . S
C251 H243 0.930 . S
C251 C252 1.355 . S
C251 C253 1.415 . S
C252 C251 1.355 . S
C252 C254 1.419 . S
C253 C248 1.425 . S
C253 C250 1.409 . S
C253 C251 1.415 . S
C254 H244 0.930 . S
C254 C252 1.419 . S
C254 C255 1.362 . S
C255 H245 0.930 . S
C255 C248 1.409 . S
C255 C254 1.362 . S
H256 C262 0.930 . S
H257 C265 0.930 . S
H258 C266 0.930 . S
H259 C267 0.930 . S
H260 C270 0.930 . S
H261 C271 0.930 . S
C262 H256 0.930 . S
C262 C263 1.355 . S
C262 C264 1.415 . S
C263 C262 1.355 . S
C263 C265 1.419 . S
C264 C262 1.415 . S
C264 C269 1.425 . S
C264 C271 1.409 . S
C265 H257 0.930 . S
C265 C263 1.419 . S
C265 C266 1.362 . S
C266 H258 0.930 . S
C266 C265 1.362 . S
C266 C269 1.409 . S
C267 H259 0.930 . S
C267 C268 1.355 . S
C267 C269 1.415 . S
C268 C267 1.355 . S
C268 C270 1.419 . S
C269 C264 1.425 . S
C269 C266 1.409 . S
C269 C267 1.415 . S
C270 H260 0.930 . S
C270 C268 1.419 . S
C270 C271 1.362 . S
C271 H261 0.930 . S
C271 C264 1.409 . S
C271 C270 1.362 . S
H272 C278 0.930 . S
H273 C281 0.930 . S
H274 C282 0.930 . S
H275 C283 0.930 . S
H276 C286 0.930 . S
H277 C287 0.930 . S
C278 H272 0.930 . S
C278 C279 1.355 . S
C278 C280 1.415 . S
C279 C278 1.355 . S
C279 C281 1.419 . S
C280 C278 1.415 . S
C280 C285 1.425 . S
C280 C287 1.409 . S
C281 H273 0.930 . S
C281 C279 1.419 . S
C281 C282 1.362 . S
C282 H274 0.930 . S
C282 C281 1.362 . S
C282 C285 1.409 . S
C283 H275 0.930 . S
C283 C284 1.355 . S
C283 C285 1.415 . S
C284 C283 1.355 . S
C284 C286 1.419 . S
C285 C280 1.425 . S
C285 C282 1.409 . S
C285 C283 1.415 . S
C286 H276 0.930 . S
C286 C284 1.419 . S
C286 C287 1.362 . S
C287 H277 0.930 . S
C287 C280 1.409 . S
C287 C286 1.362 . S
H288 C294 0.930 . S
H289 C297 0.930 . S
H290 C298 0.930 . S
H291 C299 0.930 . S
H292 C302 0.930 . S
H293 C303 0.930 . S
C294 H288 0.930 . S
C294 C295 1.355 . S
C294 C296 1.415 . S
C295 C294 1.355 . S
C295 C297 1.419 . S
C296 C294 1.415 . S
C296 C301 1.425 . S
C296 C303 1.409 . S
C297 H289 0.930 . S
C297 C295 1.419 . S
C297 C298 1.362 . S
C298 H290 0.930 . S
C298 C297 1.362 . S
C298 C301 1.409 . S
C299 H291 0.930 . S
C299 C300 1.355 . S
C299 C301 1.415 . S
C300 C299 1.355 . S
C300 C302 1.419 . S
C301 C296 1.425 . S
C301 C298 1.409 . S
C301 C299 1.415 . S
C302 H292 0.930 . S
C302 C300 1.419 . S
C302 C303 1.362 . S
C303 H293 0.930 . S
C303 C296 1.409 . S
C303 C302 1.362 . S
H304 C310 0.930 1_655 S
H305 C313 0.930 . S
H306 C314 0.930 . S
H307 C315 0.930 1_455 S
H308 C318 0.930 . S
H309 C319 0.930 . S
C310 H304 0.930 1_455 S
C310 C311 1.355 . S
C310 C312 1.415 1_455 S
C311 C310 1.355 . S
C311 C313 1.419 . S
C312 C310 1.415 1_655 S
C312 C317 1.425 1_645 S
C312 C319 1.409 . S
C313 H305 0.930 . S
C313 C311 1.419 . S
C313 C314 1.362 1_545 S
C314 H306 0.930 . S
C314 C313 1.362 1_565 S
C314 C317 1.409 . S
C315 H307 0.930 1_655 S
C315 C316 1.355 . S
C315 C317 1.415 1_655 S
C316 C315 1.355 . S
C316 C318 1.419 . S
C317 C312 1.425 1_465 S
C317 C314 1.409 . S
C317 C315 1.415 1_455 S
C318 H308 0.930 . S
C318 C316 1.419 . S
C318 C319 1.362 1_565 S
C319 H309 0.930 . S
C319 C312 1.409 . S
C319 C318 1.362 1_545 S
H320 C326 0.930 . S
H321 C329 0.930 . S
H322 C330 0.930 1_655 S
H323 C331 0.930 . S
H324 C334 0.930 . S
H325 C335 0.930 1_455 S
C326 H320 0.930 . S
C326 C327 1.355 . S
C326 C328 1.415 1_565 S
C327 C326 1.355 . S
C327 C329 1.419 . S
C328 C326 1.415 1_545 S
C328 C333 1.425 1_445 S
C328 C335 1.409 1_455 S
C329 H321 0.930 . S
C329 C327 1.419 . S
C329 C330 1.362 . S
C330 H322 0.930 1_455 S
C330 C329 1.362 . S
C330 C333 1.409 1_455 S
C331 H323 0.930 . S
C331 C332 1.355 . S
C331 C333 1.415 1_545 S
C332 C331 1.355 . S
C332 C334 1.419 . S
C333 C328 1.425 1_665 S
C333 C330 1.409 1_655 S
C333 C331 1.415 1_565 S
C334 H324 0.930 . S
C334 C332 1.419 . S
C334 C335 1.362 . S
C335 H325 0.930 1_655 S
C335 C328 1.409 1_655 S
C335 C334 1.362 . S
H336 C342 0.930 . S
H337 C345 0.930 . S
H338 C346 0.930 . S
H339 C347 0.930 . S
H340 C350 0.930 . S
H341 C351 0.930 . S
C342 H336 0.930 . S
C342 C343 1.355 . S
C342 C344 1.402 1_545 S
C343 C342 1.355 . S
C343 C345 1.419 . S
C344 C342 1.402 1_565 S
C344 C349 1.425 1_665 S
C344 C351 1.422 . S
C345 H337 0.930 . S
C345 C343 1.419 . S
C345 C346 1.362 1_655 S
C346 H338 0.930 . S
C346 C345 1.362 1_455 S
C346 C349 1.423 . S
C347 H339 0.930 . S
C347 C348 1.355 . S
C347 C349 1.402 1_565 S
C348 C347 1.355 . S
C348 C350 1.419 . S
C349 C344 1.425 1_445 S
C349 C346 1.423 . S
C349 C347 1.402 1_545 S
C350 H340 0.930 . S
C350 C348 1.419 . S
C350 C351 1.362 1_455 S
C351 H341 0.930 . S
C351 C344 1.422 . S
C351 C350 1.362 1_655 S
H352 C358 0.930 1_545 S
H353 C361 0.930 . S
H354 C362 0.930 . S
H355 C363 0.930 1_565 S
H356 C366 0.930 . S
H357 C367 0.930 . S
C358 H352 0.930 1_565 S
C358 C359 1.355 . S
C358 C360 1.415 1_565 S
C359 C358 1.355 . S
C359 C361 1.419 . S
C360 C358 1.415 1_545 S
C360 C365 1.425 1_645 S
C360 C367 1.409 . S
C361 H353 0.930 . S
C361 C359 1.419 . S
C361 C362 1.362 1_655 S
C362 H354 0.930 . S
C362 C361 1.362 1_455 S
C362 C365 1.409 . S
C363 H355 0.930 1_545 S
C363 C364 1.355 . S
C363 C365 1.415 1_545 S
C364 C363 1.355 . S
C364 C366 1.419 . S
C365 C360 1.425 1_465 S
C365 C362 1.409 . S
C365 C363 1.415 1_565 S
C366 H356 0.930 . S
C366 C364 1.419 . S
C366 C367 1.362 1_455 S
C367 H357 0.930 . S
C367 C360 1.409 . S
C367 C366 1.362 1_655 S
C119 C12 1.762 . S
C124 C28 1.758 . S
C135 C42 1.758 . S
C140 C26 1.762 . S
C151 C85 1.754 . S
C156 C57 1.754 . S
C167 C71 1.801 . S
C172 C99 1.793 . S
C183 C96 1.569 . S
C188 C1 1.599 . S
C199 C15 1.579 . S
C204 C110 1.578 . S
C215 C41 1.587 . S
C220 C68 1.587 . S
C231 C82 1.572 . S
C236 C55 1.586 . S
C247 C0 1.637 . S
C252 C83 1.636 . S
C263 C97 1.641 . S
C268 C14 1.640 . S
C279 C111 1.667 . S
C284 C40 1.665 . S
C295 C54 1.644 . S
C300 C69 1.647 . S
C311 C13 1.534 . S
C316 C29 1.533 . S
C327 C43 1.520 . S
C332 C27 1.527 . S
C343 C84 1.474 . S
C348 C56 1.468 . S
C359 C98 1.533 . S
C364 C70 1.528 . S
