# Generated by pormake.
# Topology unu, (4)-cn, num edge types: 1
# Building blocks:
#     Node 0, Type 0, BuildingBlock: KUFVIS_clean_sbu_0, # of connection points: 4
#     Node 1, Type 0, BuildingBlock: KUFVIS_clean_sbu_0, # of connection points: 4
#     Node 2, Type 0, BuildingBlock: KUFVIS_clean_sbu_0, # of connection points: 4
#     Node 3, Type 0, BuildingBlock: KUFVIS_clean_sbu_0, # of connection points: 4
#     Node 4, Type 0, BuildingBlock: KUFVIS_clean_sbu_0, # of connection points: 4
#     Node 5, Type 0, BuildingBlock: KUFVIS_clean_sbu_0, # of connection points: 4
#     Node 6, Type 0, BuildingBlock: KUFVIS_clean_sbu_0, # of connection points: 4
#     Node 7, Type 0, BuildingBlock: KUFVIS_clean_sbu_0, # of connection points: 4
#     Node 8, Type 0, BuildingBlock: KUFVIS_clean_sbu_0, # of connection points: 4
#     Node 9, Type 0, BuildingBlock: KUFVIS_clean_sbu_0, # of connection points: 4
#     Node 10, Type 0, BuildingBlock: KUFVIS_clean_sbu_0, # of connection points: 4
#     Node 11, Type 0, BuildingBlock: KUFVIS_clean_sbu_0, # of connection points: 4
#     Node 12, Type 0, BuildingBlock: KUFVIS_clean_sbu_0, # of connection points: 4
#     Node 13, Type 0, BuildingBlock: KUFVIS_clean_sbu_0, # of connection points: 4
#     Node 14, Type 0, BuildingBlock: KUFVIS_clean_sbu_0, # of connection points: 4
#     Node 15, Type 0, BuildingBlock: KUFVIS_clean_sbu_0, # of connection points: 4
#     Node 16, Type 0, BuildingBlock: KUFVIS_clean_sbu_0, # of connection points: 4
#     Node 17, Type 0, BuildingBlock: KUFVIS_clean_sbu_0, # of connection points: 4
#     Node 18, Type 0, BuildingBlock: KUFVIS_clean_sbu_0, # of connection points: 4
#     Node 19, Type 0, BuildingBlock: KUFVIS_clean_sbu_0, # of connection points: 4
#     Node 20, Type 0, BuildingBlock: KUFVIS_clean_sbu_0, # of connection points: 4
#     Node 21, Type 0, BuildingBlock: KUFVIS_clean_sbu_0, # of connection points: 4
#     Node 22, Type 0, BuildingBlock: KUFVIS_clean_sbu_0, # of connection points: 4
#     Node 23, Type 0, BuildingBlock: KUFVIS_clean_sbu_0, # of connection points: 4
#     Node 24, Type 0, BuildingBlock: KUFVIS_clean_sbu_0, # of connection points: 4
#     Node 25, Type 0, BuildingBlock: KUFVIS_clean_sbu_0, # of connection points: 4
#     Node 26, Type 0, BuildingBlock: KUFVIS_clean_sbu_0, # of connection points: 4
#     Node 27, Type 0, BuildingBlock: KUFVIS_clean_sbu_0, # of connection points: 4
#     Node 28, Type 0, BuildingBlock: KUFVIS_clean_sbu_0, # of connection points: 4
#     Node 29, Type 0, BuildingBlock: KUFVIS_clean_sbu_0, # of connection points: 4
#     Node 30, Type 0, BuildingBlock: KUFVIS_clean_sbu_0, # of connection points: 4
#     Node 31, Type 0, BuildingBlock: KUFVIS_clean_sbu_0, # of connection points: 4
#     Node 32, Type 0, BuildingBlock: KUFVIS_clean_sbu_0, # of connection points: 4
#     Node 33, Type 0, BuildingBlock: KUFVIS_clean_sbu_0, # of connection points: 4
#     Node 34, Type 0, BuildingBlock: KUFVIS_clean_sbu_0, # of connection points: 4
#     Node 35, Type 0, BuildingBlock: KUFVIS_clean_sbu_0, # of connection points: 4
#     Edge 36, Type (0, 0), BuildingBlock: AJUNOK_clean_linker_0, # of connection points: 2
#     Edge 37, Type (0, 0), BuildingBlock: AJUNOK_clean_linker_0, # of connection points: 2
#     Edge 38, Type (0, 0), BuildingBlock: AJUNOK_clean_linker_0, # of connection points: 2
#     Edge 39, Type (0, 0), BuildingBlock: AJUNOK_clean_linker_0, # of connection points: 2
#     Edge 40, Type (0, 0), BuildingBlock: AJUNOK_clean_linker_0, # of connection points: 2
#     Edge 41, Type (0, 0), BuildingBlock: AJUNOK_clean_linker_0, # of connection points: 2
#     Edge 42, Type (0, 0), BuildingBlock: AJUNOK_clean_linker_0, # of connection points: 2
#     Edge 43, Type (0, 0), BuildingBlock: AJUNOK_clean_linker_0, # of connection points: 2
#     Edge 44, Type (0, 0), BuildingBlock: AJUNOK_clean_linker_0, # of connection points: 2
#     Edge 45, Type (0, 0), BuildingBlock: AJUNOK_clean_linker_0, # of connection points: 2
#     Edge 46, Type (0, 0), BuildingBlock: AJUNOK_clean_linker_0, # of connection points: 2
#     Edge 47, Type (0, 0), BuildingBlock: AJUNOK_clean_linker_0, # of connection points: 2
#     Edge 48, Type (0, 0), BuildingBlock: AJUNOK_clean_linker_0, # of connection points: 2
#     Edge 49, Type (0, 0), BuildingBlock: AJUNOK_clean_linker_0, # of connection points: 2
#     Edge 50, Type (0, 0), BuildingBlock: AJUNOK_clean_linker_0, # of connection points: 2
#     Edge 51, Type (0, 0), BuildingBlock: AJUNOK_clean_linker_0, # of connection points: 2
#     Edge 52, Type (0, 0), BuildingBlock: AJUNOK_clean_linker_0, # of connection points: 2
#     Edge 53, Type (0, 0), BuildingBlock: AJUNOK_clean_linker_0, # of connection points: 2
#     Edge 54, Type (0, 0), BuildingBlock: AJUNOK_clean_linker_0, # of connection points: 2
#     Edge 55, Type (0, 0), BuildingBlock: AJUNOK_clean_linker_0, # of connection points: 2
#     Edge 56, Type (0, 0), BuildingBlock: AJUNOK_clean_linker_0, # of connection points: 2
#     Edge 57, Type (0, 0), BuildingBlock: AJUNOK_clean_linker_0, # of connection points: 2
#     Edge 58, Type (0, 0), BuildingBlock: AJUNOK_clean_linker_0, # of connection points: 2
#     Edge 59, Type (0, 0), BuildingBlock: AJUNOK_clean_linker_0, # of connection points: 2
#     Edge 60, Type (0, 0), BuildingBlock: AJUNOK_clean_linker_0, # of connection points: 2
#     Edge 61, Type (0, 0), BuildingBlock: AJUNOK_clean_linker_0, # of connection points: 2
#     Edge 62, Type (0, 0), BuildingBlock: AJUNOK_clean_linker_0, # of connection points: 2
#     Edge 63, Type (0, 0), BuildingBlock: AJUNOK_clean_linker_0, # of connection points: 2
#     Edge 64, Type (0, 0), BuildingBlock: AJUNOK_clean_linker_0, # of connection points: 2
#     Edge 65, Type (0, 0), BuildingBlock: AJUNOK_clean_linker_0, # of connection points: 2
#     Edge 66, Type (0, 0), BuildingBlock: AJUNOK_clean_linker_0, # of connection points: 2
#     Edge 67, Type (0, 0), BuildingBlock: AJUNOK_clean_linker_0, # of connection points: 2
#     Edge 68, Type (0, 0), BuildingBlock: AJUNOK_clean_linker_0, # of connection points: 2
#     Edge 69, Type (0, 0), BuildingBlock: AJUNOK_clean_linker_0, # of connection points: 2
#     Edge 70, Type (0, 0), BuildingBlock: AJUNOK_clean_linker_0, # of connection points: 2
#     Edge 71, Type (0, 0), BuildingBlock: AJUNOK_clean_linker_0, # of connection points: 2
#     Edge 72, Type (0, 0), BuildingBlock: AJUNOK_clean_linker_0, # of connection points: 2
#     Edge 73, Type (0, 0), BuildingBlock: AJUNOK_clean_linker_0, # of connection points: 2
#     Edge 74, Type (0, 0), BuildingBlock: AJUNOK_clean_linker_0, # of connection points: 2
#     Edge 75, Type (0, 0), BuildingBlock: AJUNOK_clean_linker_0, # of connection points: 2
#     Edge 76, Type (0, 0), BuildingBlock: AJUNOK_clean_linker_0, # of connection points: 2
#     Edge 77, Type (0, 0), BuildingBlock: AJUNOK_clean_linker_0, # of connection points: 2
#     Edge 78, Type (0, 0), BuildingBlock: AJUNOK_clean_linker_0, # of connection points: 2
#     Edge 79, Type (0, 0), BuildingBlock: AJUNOK_clean_linker_0, # of connection points: 2
#     Edge 80, Type (0, 0), BuildingBlock: AJUNOK_clean_linker_0, # of connection points: 2
#     Edge 81, Type (0, 0), BuildingBlock: AJUNOK_clean_linker_0, # of connection points: 2
#     Edge 82, Type (0, 0), BuildingBlock: AJUNOK_clean_linker_0, # of connection points: 2
#     Edge 83, Type (0, 0), BuildingBlock: AJUNOK_clean_linker_0, # of connection points: 2
#     Edge 84, Type (0, 0), BuildingBlock: AJUNOK_clean_linker_0, # of connection points: 2
#     Edge 85, Type (0, 0), BuildingBlock: AJUNOK_clean_linker_0, # of connection points: 2
#     Edge 86, Type (0, 0), BuildingBlock: AJUNOK_clean_linker_0, # of connection points: 2
#     Edge 87, Type (0, 0), BuildingBlock: AJUNOK_clean_linker_0, # of connection points: 2
#     Edge 88, Type (0, 0), BuildingBlock: AJUNOK_clean_linker_0, # of connection points: 2
#     Edge 89, Type (0, 0), BuildingBlock: AJUNOK_clean_linker_0, # of connection points: 2
#     Edge 90, Type (0, 0), BuildingBlock: AJUNOK_clean_linker_0, # of connection points: 2
#     Edge 91, Type (0, 0), BuildingBlock: AJUNOK_clean_linker_0, # of connection points: 2
#     Edge 92, Type (0, 0), BuildingBlock: AJUNOK_clean_linker_0, # of connection points: 2
#     Edge 93, Type (0, 0), BuildingBlock: AJUNOK_clean_linker_0, # of connection points: 2
#     Edge 94, Type (0, 0), BuildingBlock: AJUNOK_clean_linker_0, # of connection points: 2
#     Edge 95, Type (0, 0), BuildingBlock: AJUNOK_clean_linker_0, # of connection points: 2
#     Edge 96, Type (0, 0), BuildingBlock: AJUNOK_clean_linker_0, # of connection points: 2
#     Edge 97, Type (0, 0), BuildingBlock: AJUNOK_clean_linker_0, # of connection points: 2
#     Edge 98, Type (0, 0), BuildingBlock: AJUNOK_clean_linker_0, # of connection points: 2
#     Edge 99, Type (0, 0), BuildingBlock: AJUNOK_clean_linker_0, # of connection points: 2
#     Edge 100, Type (0, 0), BuildingBlock: AJUNOK_clean_linker_0, # of connection points: 2
#     Edge 101, Type (0, 0), BuildingBlock: AJUNOK_clean_linker_0, # of connection points: 2
#     Edge 102, Type (0, 0), BuildingBlock: AJUNOK_clean_linker_0, # of connection points: 2
#     Edge 103, Type (0, 0), BuildingBlock: AJUNOK_clean_linker_0, # of connection points: 2
#     Edge 104, Type (0, 0), BuildingBlock: AJUNOK_clean_linker_0, # of connection points: 2
#     Edge 105, Type (0, 0), BuildingBlock: AJUNOK_clean_linker_0, # of connection points: 2
#     Edge 106, Type (0, 0), BuildingBlock: AJUNOK_clean_linker_0, # of connection points: 2
#     Edge 107, Type (0, 0), BuildingBlock: AJUNOK_clean_linker_0, # of connection points: 2
# Relax obj value: 0.202
# Max RMSD: 0.240
# Mean RMSD: 0.240
data_MOF--net-unu--node1-KUFVIS_clean_sbu_0--edge1-AJUNOK_clean_linker_0
_symmetry_space_group_name_H-M    P1
_symmetry_Int_Tables_number       1
_symmetry_cell_setting            triclinic
loop_
_symmetry_equiv_pos_as_xyz
'x, y, z'
_cell_length_a     31.155853
_cell_length_b     31.148353
_cell_length_c     82.167652
_cell_angle_alpha  90.008966
_cell_angle_beta   89.98003
_cell_angle_gamma 119.99825
loop_
_atom_site_label
_atom_site_type_symbol
_atom_site_fract_x
_atom_site_fract_y
_atom_site_fract_z
_atom_type_partial_charge
Mn0 Mn 0.20353 0.05663 0.11446 0.0
Mn1 Mn 0.21968 0.97787 0.13791 0.0
C2 C 0.14612 0.97299 0.11333 0.0
C3 C 0.17155 0.11055 0.11411 0.0
C4 C 0.27727 0.02246 0.10656 0.0
O5 O 0.25583 0.10126 0.1304 0.0
O6 O 0.25739 0.04604 0.14761 0.0
C7 C 0.16813 0.98075 0.1678 0.0
N8 N 0.17259 0.95452 0.1553 0.0
C9 C 0.10237 0.87887 0.1648 0.0
C10 C 0.09729 0.90501 0.17784 0.0
C11 C 0.13031 0.95617 0.17935 0.0
C12 C 0.14122 0.90521 0.15379 0.0
H13 H 0.19311 0.02017 0.16892 0.0
C14 C 0.27015 0.09068 0.1435 0.0
O15 O 0.20526 0.11584 0.10363 0.0
O16 O 0.15697 0.07437 0.12428 0.0
N17 N 0.18416 0.91116 0.12993 0.0
C18 C 0.19171 0.89213 0.11598 0.0
C19 C 0.16041 0.84183 0.11228 0.0
C20 C 0.12165 0.8116 0.12292 0.0
C21 C 0.11458 0.83197 0.1372 0.0
C22 C 0.14725 0.88227 0.14034 0.0
H23 H 0.22106 0.91522 0.10765 0.0
O24 O 0.14875 0.00247 0.10174 0.0
O25 O 0.17679 0.99419 0.12535 0.0
O26 O 0.2548 0.04558 0.10214 0.0
O27 O 0.26836 0.9988 0.12002 0.0
C28 C 0.07569 0.8046 0.14825 0.0
C29 C 0.06963 0.82801 0.16205 0.0
H30 H 0.06782 0.8863 0.18667 0.0
H31 H 0.12642 0.97666 0.18932 0.0
H32 H 0.16593 0.82646 0.10118 0.0
H33 H 0.09726 0.77293 0.11993 0.0
H34 H 0.04981 0.76566 0.14613 0.0
H35 H 0.03919 0.80671 0.17033 0.0
Mn36 Mn 0.94703 0.14889 0.11283 0.0
Mn37 Mn 0.02521 0.24456 0.13607 0.0
C38 C 0.03078 0.17534 0.11181 0.0
C39 C 0.8936 0.06297 0.11288 0.0
C40 C 0.98034 0.25623 0.10461 0.0
O41 O 0.90208 0.15695 0.12858 0.0
O42 O 0.95703 0.21387 0.14579 0.0
C43 C 0.02301 0.19107 0.16611 0.0
N44 N 0.04899 0.2216 0.15355 0.0
C45 C 0.12503 0.22808 0.1631 0.0
C46 C 0.09915 0.197 0.17621 0.0
C47 C 0.04792 0.17842 0.17771 0.0
C48 C 0.09835 0.23991 0.15203 0.0
H49 H 0.98355 0.17631 0.16724 0.0
C50 C 0.91244 0.18205 0.14162 0.0
O51 O 0.88805 0.09067 0.10217 0.0
O52 O 0.92972 0.08527 0.12302 0.0
N53 N 0.09186 0.27606 0.12805 0.0
C54 C 0.11068 0.3026 0.11409 0.0
C55 C 0.16107 0.32215 0.1104 0.0
C56 C 0.1916 0.31427 0.12111 0.0
C57 C 0.17143 0.28692 0.13541 0.0
C58 C 0.12103 0.26866 0.13851 0.0
H59 H 0.0874 0.30852 0.10574 0.0
O60 O 1.00137 0.14801 0.10029 0.0
O61 O 0.00941 0.18516 0.12371 0.0
O62 O 0.9579 0.21063 0.10018 0.0
O63 O 0.00381 0.27144 0.11807 0.0
C64 C 0.19917 0.27623 0.14655 0.0
C65 C 0.17601 0.2468 0.16038 0.0
H66 H 0.11812 0.18674 0.18509 0.0
H67 H 0.02763 0.15415 0.18773 0.0
H68 H 0.1763 0.34304 0.0993 0.0
H69 H 0.23036 0.32904 0.11815 0.0
H70 H 0.23825 0.29005 0.1445 0.0
H71 H 0.19761 0.23826 0.16872 0.0
Mn72 Mn 0.85516 0.79943 0.11498 0.0
Mn73 Mn 0.75927 0.78585 0.13741 0.0
C74 C 0.82956 0.85723 0.1127 0.0
C75 C 0.94091 0.83116 0.11512 0.0
C76 C 0.74751 0.72569 0.10684 0.0
O77 O 0.84651 0.74823 0.13163 0.0
O78 O 0.78848 0.74818 0.14789 0.0
C79 C 0.81231 0.83886 0.1673 0.0
N80 N 0.78248 0.83397 0.15448 0.0
C81 C 0.77712 0.90501 0.16308 0.0
C82 C 0.80752 0.9106 0.17642 0.0
C83 C 0.82518 0.87737 0.17854 0.0
C84 C 0.76498 0.86552 0.15239 0.0
H85 H 0.82634 0.81367 0.1689 0.0
C86 C 0.82017 0.73461 0.14447 0.0
O87 O 0.91286 0.79662 0.10482 0.0
O88 O 0.91904 0.84655 0.12487 0.0
N89 N 0.72912 0.82137 0.12862 0.0
C90 C 0.70327 0.81311 0.11448 0.0
C91 C 0.68478 0.84444 0.11018 0.0
C92 C 0.693 0.88387 0.12046 0.0
C93 C 0.71962 0.89159 0.13496 0.0
C94 C 0.73684 0.85893 0.13867 0.0
H95 H 0.69715 0.78314 0.10645 0.0
O96 O 0.85672 0.8534 0.10148 0.0
O97 O 0.8193 0.82744 0.12504 0.0
O98 O 0.7933 0.74742 0.10266 0.0
O99 O 0.7321 0.73614 0.11985 0.0
C100 C 0.73065 0.93104 0.1457 0.0
C101 C 0.75937 0.93777 0.15974 0.0
H102 H 0.81796 0.94057 0.18503 0.0
H103 H 0.84889 0.88162 0.18876 0.0
H104 H 0.66447 0.83837 0.09893 0.0
H105 H 0.67908 0.90825 0.11703 0.0
H106 H 0.71766 0.95674 0.14316 0.0
H107 H 0.76818 0.96868 0.16777 0.0
Mn108 Mn 0.05674 0.20539 0.38379 0.0
Mn109 Mn 0.97872 0.22245 0.36033 0.0
C110 C 0.9731 0.14776 0.38463 0.0
C111 C 0.11069 0.17358 0.38394 0.0
C112 C 0.02275 0.27903 0.39187 0.0
O113 O 0.1018 0.25853 0.36815 0.0
O114 O 0.04717 0.26059 0.35082 0.0
C115 C 0.98235 0.17184 0.33031 0.0
N116 N 0.95582 0.17589 0.3428 0.0
C117 C 0.88053 0.10564 0.33311 0.0
C118 C 0.90698 0.10098 0.32008 0.0
C119 C 0.95811 0.13423 0.31868 0.0
C120 C 0.90654 0.14428 0.34421 0.0
H121 H 0.02175 0.19699 0.32928 0.0
C122 C 0.09169 0.27345 0.3551 0.0
O123 O 0.11571 0.20674 0.39462 0.0
O124 O 0.07471 0.15939 0.37373 0.0
N125 N 0.91185 0.18668 0.36814 0.0
C126 C 0.89246 0.19403 0.38203 0.0
C127 C 0.8421 0.16256 0.38562 0.0
C128 C 0.81221 0.12388 0.3749 0.0
C129 C 0.83295 0.11709 0.36066 0.0
C130 C 0.88327 0.14992 0.35765 0.0
H131 H 0.91528 0.22339 0.3904 0.0
O132 O 1.00233 0.14997 0.39624 0.0
O133 O 0.99458 0.179 0.37276 0.0
O134 O 0.04536 0.25608 0.39633 0.0
O135 O 0.99926 0.27052 0.3784 0.0
C136 C 0.8059 0.07838 0.34953 0.0
C137 C 0.82965 0.07269 0.33576 0.0
H138 H 0.88853 0.07168 0.31118 0.0
H139 H 0.97884 0.13066 0.30872 0.0
H140 H 0.82642 0.16791 0.39667 0.0
H141 H 0.7735 0.09937 0.3778 0.0
H142 H 0.76695 0.05238 0.35155 0.0
H143 H 0.8086 0.0424 0.3274 0.0
Mn144 Mn 0.80026 0.8563 0.38306 0.0
Mn145 Mn 0.78651 0.75957 0.36106 0.0
C146 C 0.85841 0.83109 0.38539 0.0
C147 C 0.83176 0.94217 0.38265 0.0
C148 C 0.72696 0.7488 0.3917 0.0
O149 O 0.74847 0.84667 0.36647 0.0
O150 O 0.74839 0.78811 0.35048 0.0
C151 C 0.83881 0.81155 0.33094 0.0
N152 N 0.83425 0.78221 0.34388 0.0
C153 C 0.90516 0.77664 0.33527 0.0
C154 C 0.91042 0.80654 0.3218 0.0
C155 C 0.8771 0.82406 0.31964 0.0
C156 C 0.86592 0.76488 0.34603 0.0
H157 H 0.81355 0.82545 0.3293 0.0
C158 C 0.73456 0.8197 0.35378 0.0
O159 O 0.79744 0.91425 0.39304 0.0
O160 O 0.84699 0.9201 0.37292 0.0
N161 N 0.82234 0.72988 0.36996 0.0
C162 C 0.81424 0.70428 0.38416 0.0
C163 C 0.84551 0.68573 0.38846 0.0
C164 C 0.88477 0.6937 0.37814 0.0
C165 C 0.89232 0.72005 0.36359 0.0
C166 C 0.85968 0.73725 0.35986 0.0
H167 H 0.78435 0.6983 0.3922 0.0
O168 O 0.85473 0.85864 0.3965 0.0
O169 O 0.82826 0.82021 0.37313 0.0
O170 O 0.74869 0.79476 0.39569 0.0
O171 O 0.73721 0.73298 0.37875 0.0
C172 C 0.93153 0.7307 0.35278 0.0
C173 C 0.93799 0.75901 0.33864 0.0
H174 H 0.94019 0.81668 0.31314 0.0
H175 H 0.88109 0.84738 0.30932 0.0
H176 H 0.8395 0.66552 0.39973 0.0
H177 H 0.9091 0.67972 0.38158 0.0
H178 H 0.95722 0.71772 0.35533 0.0
H179 H 0.9687 0.76752 0.33055 0.0
Mn180 Mn 0.15015 0.94969 0.3845 0.0
Mn181 Mn 0.24478 0.02847 0.36095 0.0
C182 C 0.17584 0.03316 0.38551 0.0
C183 C 0.06427 0.89567 0.38474 0.0
C184 C 0.25832 0.98531 0.39253 0.0
O185 O 0.15821 0.90493 0.36871 0.0
O186 O 0.21531 0.95996 0.35157 0.0
C187 C 0.18978 0.02334 0.33096 0.0
N188 N 0.2204 0.05043 0.34336 0.0
C189 C 0.22476 0.12515 0.33337 0.0
C190 C 0.1936 0.0981 0.32043 0.0
C191 C 0.17603 0.04698 0.31923 0.0
C192 C 0.23777 0.09971 0.34458 0.0
H193 H 0.17578 0.98394 0.33007 0.0
C194 C 0.18364 0.91533 0.35574 0.0
O195 O 0.09248 0.89049 0.39534 0.0
O196 O 0.08606 0.9317 0.37455 0.0
N197 N 0.27513 0.09548 0.36859 0.0
C198 C 0.30156 0.11539 0.3825 0.0
C199 C 0.31991 0.16576 0.38593 0.0
C200 C 0.31097 0.19515 0.37504 0.0
C201 C 0.28371 0.17388 0.3608 0.0
C202 C 0.26665 0.12355 0.35796 0.0
H203 H 0.30816 0.09294 0.39101 0.0
O204 O 0.14905 0.0037 0.39711 0.0
O205 O 0.1855 0.01201 0.3735 0.0
O206 O 0.21266 0.96144 0.39688 0.0
O207 O 0.27298 0.00892 0.37906 0.0
C208 C 0.27184 0.20039 0.34952 0.0
C209 C 0.2424 0.17606 0.33581 0.0
H210 H 0.18247 0.11609 0.31144 0.0
H211 H 0.15169 0.02579 0.30933 0.0
H212 H 0.34062 0.18181 0.397 0.0
H213 H 0.32477 0.23388 0.37781 0.0
H214 H 0.28467 0.23937 0.35137 0.0
H215 H 0.23293 0.19671 0.32735 0.0
Mn216 Mn 0.79868 0.94423 0.88362 0.0
Mn217 Mn 0.78571 0.02791 0.86174 0.0
C218 C 0.85793 0.02727 0.88573 0.0
C219 C 0.82846 0.88844 0.8828 0.0
C220 C 0.72693 0.98003 0.8926 0.0
O221 O 0.74579 0.90255 0.86731 0.0
O222 O 0.74661 0.96126 0.8512 0.0
C223 C 0.8368 0.02733 0.83144 0.0
N224 N 0.833 0.05242 0.84442 0.0
C225 C 0.90438 0.12833 0.83569 0.0
C226 C 0.90885 0.10337 0.82217 0.0
C227 C 0.87491 0.05265 0.82004 0.0
C228 C 0.86525 0.10131 0.84653 0.0
H229 H 0.81107 0.98824 0.82983 0.0
C230 C 0.73206 0.91575 0.85461 0.0
O231 O 0.79503 0.88289 0.89344 0.0
O232 O 0.844 0.92588 0.87312 0.0
N233 N 0.82253 0.09342 0.87061 0.0
C234 C 0.81522 0.1112 0.88488 0.0
C235 C 0.84726 0.16089 0.88917 0.0
C236 C 0.88647 0.19177 0.87877 0.0
C237 C 0.89318 0.1727 0.86413 0.0
C238 C 0.85978 0.123 0.86042 0.0
H239 H 0.78543 0.0876 0.893 0.0
O240 O 0.85438 0.99599 0.8968 0.0
O241 O 0.82711 0.00822 0.87363 0.0
O242 O 0.74844 0.95555 0.89655 0.0
O243 O 0.73692 0.0058 0.87959 0.0
C244 C 0.93233 0.20078 0.85325 0.0
C245 C 0.93794 0.17864 0.83904 0.0
H246 H 0.9385 0.12263 0.81344 0.0
H247 H 0.8783 0.03306 0.80969 0.0
H248 H 0.84192 0.17529 0.90051 0.0
H249 H 0.91141 0.22995 0.8822 0.0
H250 H 0.95868 0.2393 0.8558 0.0
H251 H 0.9686 0.20046 0.83089 0.0
Mn252 Mn 0.05086 0.84895 0.88183 0.0
Mn253 Mn 0.97319 0.75293 0.85868 0.0
C254 C 0.96699 0.82127 0.88323 0.0
C255 C 0.10312 0.93516 0.88126 0.0
C256 C 0.01906 0.74186 0.89002 0.0
O257 O 0.09584 0.84186 0.86595 0.0
O258 O 0.04148 0.78388 0.84892 0.0
C259 C 0.97529 0.80662 0.82871 0.0
N260 N 0.94933 0.77596 0.84125 0.0
C261 C 0.87339 0.77005 0.83186 0.0
C262 C 0.89924 0.80121 0.81877 0.0
C263 C 0.95041 0.81958 0.8172 0.0
C264 C 0.90002 0.75784 0.84283 0.0
H265 H 0.01473 0.82129 0.82754 0.0
C266 C 0.08589 0.81646 0.853 0.0
O267 O 0.11002 0.90845 0.89203 0.0
O268 O 0.0661 0.91169 0.87158 0.0
N269 N 0.90652 0.72117 0.86668 0.0
C270 C 0.88779 0.69459 0.88064 0.0
C271 C 0.83752 0.67539 0.88443 0.0
C272 C 0.80702 0.68368 0.87384 0.0
C273 C 0.82708 0.71105 0.85953 0.0
C274 C 0.87737 0.72893 0.85633 0.0
H275 H 0.9111 0.68847 0.88892 0.0
O276 O 0.99662 0.84885 0.89467 0.0
O277 O 0.98827 0.8119 0.87118 0.0
O278 O 0.04165 0.7876 0.89434 0.0
O279 O 0.99485 0.72629 0.8767 0.0
C280 C 0.79941 0.72227 0.84852 0.0
C281 C 0.82253 0.75168 0.83469 0.0
H282 H 0.8803 0.81174 0.80996 0.0
H283 H 0.97069 0.84394 0.80719 0.0
H284 H 0.82238 0.65454 0.89554 0.0
H285 H 0.76837 0.66923 0.87688 0.0
H286 H 0.76046 0.709 0.85069 0.0
H287 H 0.801 0.76058 0.82643 0.0
Mn288 Mn 0.14953 0.20177 0.88379 0.0
Mn289 Mn 0.24509 0.21922 0.86041 0.0
C290 C 0.1739 0.1429 0.88386 0.0
C291 C 0.06369 0.16996 0.88407 0.0
C292 C 0.25736 0.27293 0.89257 0.0
O293 O 0.15842 0.25606 0.86854 0.0
O294 O 0.21683 0.25994 0.85157 0.0
C295 C 0.19489 0.17583 0.82913 0.0
N296 N 0.2221 0.17561 0.84207 0.0
C297 C 0.22691 0.10656 0.83103 0.0
C298 C 0.19907 0.10615 0.81756 0.0
C299 C 0.18301 0.14095 0.81661 0.0
C300 C 0.23826 0.14267 0.84301 0.0
H301 H 0.1823 0.20237 0.82836 0.0
C302 C 0.18484 0.27244 0.8558 0.0
O303 O 0.09185 0.20249 0.8949 0.0
O304 O 0.08557 0.15683 0.87354 0.0
N305 N 0.27372 0.18061 0.86766 0.0
C306 C 0.29879 0.18486 0.88172 0.0
C307 C 0.31586 0.15161 0.88482 0.0
C308 C 0.30705 0.1144 0.87345 0.0
C309 C 0.28123 0.11078 0.85907 0.0
C310 C 0.26521 0.14504 0.85662 0.0
H311 H 0.30533 0.21309 0.89057 0.0
O312 O 0.14765 0.14525 0.89571 0.0
O313 O 0.18463 0.17535 0.8723 0.0
O314 O 0.21153 0.25114 0.89666 0.0
O315 O 0.27251 0.26463 0.8791 0.0
C316 C 0.27018 0.0741 0.84718 0.0
C317 C 0.24316 0.07206 0.83315 0.0
H318 H 0.18938 0.07898 0.80797 0.0
H319 H 0.16131 0.14073 0.8063 0.0
H320 H 0.33556 0.15452 0.89599 0.0
H321 H 0.32001 0.08863 0.87594 0.0
H322 H 0.28217 0.04718 0.84874 0.0
H323 H 0.2347 0.04353 0.82414 0.0
Mn324 Mn 0.94572 0.79993 0.61421 0.0
Mn325 Mn 0.02504 0.78435 0.63755 0.0
C326 C 0.02922 0.85806 0.61309 0.0
C327 C 0.89089 0.83088 0.61411 0.0
C328 C 0.98052 0.7268 0.6062 0.0
O329 O 0.90146 0.747 0.63007 0.0
O330 O 0.957 0.74631 0.64733 0.0
C331 C 0.02223 0.83584 0.66746 0.0
N332 N 0.04839 0.83144 0.65493 0.0
C333 C 0.12411 0.90152 0.66445 0.0
C334 C 0.09804 0.90655 0.67753 0.0
C335 C 0.04687 0.87359 0.67903 0.0
C336 C 0.09769 0.86283 0.6534 0.0
H337 H 0.98282 0.81086 0.66859 0.0
C338 C 0.91227 0.73298 0.64318 0.0
O339 O 0.88606 0.79762 0.60351 0.0
O340 O 0.92723 0.84573 0.62422 0.0
N341 N 0.09162 0.82007 0.62949 0.0
C342 C 0.11064 0.81242 0.61555 0.0
C343 C 0.16098 0.84359 0.61187 0.0
C344 C 0.19126 0.88223 0.62254 0.0
C345 C 0.17091 0.88932 0.63682 0.0
C346 C 0.12056 0.85687 0.63991 0.0
H347 H 0.08755 0.78303 0.60724 0.0
O348 O 0.99953 0.85537 0.60157 0.0
O349 O 0.00829 0.82708 0.62507 0.0
O350 O 0.95749 0.74933 0.60173 0.0
O351 O 0.00415 0.7357 0.61965 0.0
C352 C 0.1984 0.92793 0.64793 0.0
C353 C 0.17503 0.93406 0.66173 0.0
H354 H 0.11681 0.93591 0.68639 0.0
H355 H 0.02644 0.87744 0.68903 0.0
H356 H 0.17635 0.838 0.60079 0.0
H357 H 0.22998 0.90646 0.61959 0.0
H358 H 0.23742 0.95342 0.64589 0.0
H359 H 0.19645 0.96432 0.67006 0.0
Mn360 Mn 0.20401 0.14958 0.6147 0.0
Mn361 Mn 0.22242 0.24619 0.63772 0.0
C362 C 0.14599 0.17503 0.6142 0.0
C363 C 0.17174 0.06357 0.61479 0.0
C364 C 0.27687 0.25676 0.60585 0.0
O365 O 0.25783 0.15841 0.63013 0.0
O366 O 0.26125 0.21659 0.64711 0.0
C367 C 0.17683 0.19748 0.66899 0.0
N368 N 0.17798 0.22467 0.65584 0.0
C369 C 0.11028 0.23274 0.6664 0.0
C370 C 0.10844 0.2049 0.68006 0.0
C371 C 0.14186 0.18719 0.68136 0.0
C372 C 0.14634 0.24235 0.65456 0.0
H373 H 0.20238 0.18372 0.67004 0.0
C374 C 0.27343 0.18428 0.64301 0.0
O375 O 0.20448 0.09132 0.60395 0.0
O376 O 0.15848 0.08591 0.62511 0.0
N377 N 0.18562 0.27618 0.62992 0.0
C378 C 0.19128 0.30121 0.61574 0.0
C379 C 0.15955 0.3199 0.61232 0.0
C380 C 0.12248 0.31283 0.6235 0.0
C381 C 0.11743 0.28705 0.63802 0.0
C382 C 0.15011 0.26924 0.64077 0.0
H383 H 0.21954 0.30661 0.60706 0.0
O384 O 0.14802 0.14799 0.60256 0.0
O385 O 0.17808 0.1857 0.62587 0.0
O386 O 0.25394 0.21096 0.60167 0.0
O387 O 0.26889 0.27239 0.61925 0.0
C388 C 0.08093 0.2779 0.64978 0.0
C389 C 0.07737 0.25082 0.66397 0.0
H390 H 0.08125 0.19652 0.68956 0.0
H391 H 0.14055 0.16553 0.69183 0.0
H392 H 0.16359 0.33962 0.60106 0.0
H393 H 0.09796 0.32715 0.62079 0.0
H394 H 0.05539 0.29152 0.64803 0.0
H395 H 0.04899 0.24384 0.67289 0.0
Mn396 Mn 0.85296 0.05434 0.6143 0.0
Mn397 Mn 0.75594 0.97662 0.63705 0.0
C398 C 0.82477 0.97029 0.61271 0.0
C399 C 0.93907 0.10646 0.61534 0.0
C400 C 0.74679 0.0245 0.60587 0.0
O401 O 0.84543 0.09899 0.63025 0.0
O402 O 0.78818 0.04419 0.64738 0.0
C403 C 0.80784 0.97471 0.66697 0.0
N404 N 0.77727 0.95031 0.65424 0.0
C405 C 0.76845 0.87257 0.66301 0.0
C406 C 0.79952 0.89681 0.67629 0.0
C407 C 0.81931 0.9481 0.67826 0.0
C408 C 0.75784 0.90092 0.65226 0.0
H409 H 0.82355 0.01421 0.66845 0.0
C410 C 0.82079 0.08868 0.64337 0.0
O411 O 0.91296 0.11373 0.60443 0.0
O412 O 0.91515 0.06902 0.62483 0.0
N413 N 0.723 0.91057 0.62846 0.0
C414 C 0.69656 0.8934 0.6144 0.0
C415 C 0.67582 0.84315 0.61028 0.0
C416 C 0.68246 0.81107 0.62063 0.0
C417 C 0.70974 0.82955 0.63504 0.0
C418 C 0.7292 0.8799 0.63859 0.0
H419 H 0.69155 0.91785 0.60632 0.0
O420 O 0.85306 1.00016 0.60142 0.0
O421 O 0.81505 0.99146 0.62469 0.0
O422 O 0.79243 0.04588 0.60152 0.0
O423 O 0.73081 1.00072 0.61926 0.0
C424 C 0.71917 0.80016 0.64586 0.0
C425 C 0.74855 0.82164 0.65982 0.0
H426 H 0.80887 0.87652 0.68493 0.0
H427 H 0.8436 0.96713 0.68841 0.0
H428 H 0.65494 0.82921 0.59911 0.0
H429 H 0.66676 0.77241 0.61734 0.0
H430 H 0.7044 0.76109 0.64346 0.0
H431 H 0.75613 0.79878 0.66792 0.0
Mn432 Mn 0.8737 0.39471 0.44777 0.0
Mn433 Mn 0.88717 0.31245 0.47028 0.0
C434 C 0.81452 0.31154 0.44621 0.0
C435 C 0.84347 0.45001 0.44789 0.0
C436 C 0.94476 0.35777 0.43902 0.0
O437 O 0.9267 0.43771 0.46392 0.0
O438 O 0.92696 0.37991 0.48023 0.0
C439 C 0.83757 0.31588 0.50058 0.0
N440 N 0.84065 0.28961 0.48783 0.0
C441 C 0.76943 0.21466 0.49726 0.0
C442 C 0.76572 0.24085 0.51055 0.0
C443 C 0.79993 0.29168 0.51221 0.0
C444 C 0.80811 0.24061 0.48616 0.0
H445 H 0.86351 0.35505 0.50183 0.0
C446 C 0.94109 0.4252 0.47662 0.0
O447 O 0.87693 0.45509 0.43734 0.0
O448 O 0.82835 0.41346 0.45792 0.0
N449 N 0.84969 0.24623 0.46201 0.0
C450 C 0.85616 0.2272 0.44788 0.0
C451 C 0.8237 0.17722 0.44404 0.0
C452 C 0.78496 0.14735 0.45474 0.0
C453 C 0.77908 0.16772 0.46921 0.0
C454 C 0.81284 0.21766 0.47248 0.0
H455 H 0.88555 0.25003 0.43953 0.0
O456 O 0.818 0.34204 0.43486 0.0
O457 O 0.84544 0.33138 0.45824 0.0
O458 O 0.9238 0.38273 0.43506 0.0
O459 O 0.93511 0.33281 0.45222 0.0
C460 C 0.7404 0.1407 0.48036 0.0
C461 C 0.73556 0.16414 0.49437 0.0
H462 H 0.73643 0.22244 0.51946 0.0
H463 H 0.79712 0.3122 0.52239 0.0
H464 H 0.82835 0.16185 0.4328 0.0
H465 H 0.7597 0.10895 0.45165 0.0
H466 H 0.71382 0.10203 0.47817 0.0
H467 H 0.70523 0.14312 0.50272 0.0
Mn468 Mn 0.61938 0.48844 0.44888 0.0
Mn469 Mn 0.70103 0.58682 0.47048 0.0
C470 C 0.70299 0.51509 0.44657 0.0
C471 C 0.56664 0.40227 0.45021 0.0
C472 C 0.65171 0.59502 0.43953 0.0
O473 O 0.57666 0.49775 0.46527 0.0
O474 O 0.63425 0.55767 0.48108 0.0
C475 C 0.7022 0.53646 0.50087 0.0
N476 N 0.72672 0.56548 0.48785 0.0
C477 C 0.8035 0.57182 0.49648 0.0
C478 C 0.77913 0.54231 0.51005 0.0
C479 C 0.72827 0.52457 0.51225 0.0
C480 C 0.77575 0.58305 0.48567 0.0
H481 H 0.66299 0.52228 0.50253 0.0
C482 C 0.58911 0.52511 0.47785 0.0
O483 O 0.55894 0.42847 0.43946 0.0
O484 O 0.60447 0.4262 0.45955 0.0
N485 N 0.76662 0.617 0.46158 0.0
C486 C 0.78382 0.64202 0.44727 0.0
C487 C 0.83361 0.66063 0.44292 0.0
C488 C 0.86517 0.65323 0.45328 0.0
C489 C 0.84668 0.62743 0.46795 0.0
C490 C 0.79686 0.61024 0.47174 0.0
H491 H 0.75968 0.64742 0.43916 0.0
O492 O 0.672 0.48662 0.43556 0.0
O493 O 0.68331 0.52609 0.45868 0.0
O494 O 0.62784 0.54879 0.43585 0.0
O495 O 0.67754 0.6118 0.45252 0.0
C496 C 0.87547 0.61717 0.47878 0.0
C497 C 0.85391 0.58943 0.49304 0.0
H498 H 0.79897 0.53258 0.51875 0.0
H499 H 0.70913 0.5015 0.52263 0.0
H500 H 0.84757 0.68038 0.43156 0.0
H501 H 0.90343 0.66718 0.44979 0.0
H502 H 0.91407 0.6299 0.47615 0.0
H503 H 0.87626 0.58123 0.50115 0.0
Mn504 Mn 0.52277 0.1364 0.44836 0.0
Mn505 Mn 0.42639 0.11807 0.47146 0.0
C506 C 0.4977 0.19482 0.4481 0.0
C507 C 0.6087 0.16873 0.44823 0.0
C508 C 0.41549 0.06381 0.43953 0.0
O509 O 0.51395 0.08227 0.46372 0.0
O510 O 0.45554 0.07858 0.48066 0.0
C511 C 0.47549 0.16297 0.50274 0.0
N512 N 0.44838 0.1623 0.48964 0.0
C513 C 0.44207 0.23102 0.50019 0.0
C514 C 0.46982 0.23237 0.51381 0.0
C515 C 0.48658 0.19818 0.51509 0.0
C516 C 0.43154 0.19463 0.48838 0.0
H517 H 0.48861 0.13689 0.50376 0.0
C518 C 0.48769 0.0662 0.47652 0.0
O519 O 0.58079 0.13601 0.43742 0.0
O520 O 0.58654 0.18176 0.4587 0.0
N521 N 0.39685 0.15545 0.46381 0.0
C522 C 0.37156 0.15 0.44971 0.0
C523 C 0.35357 0.18235 0.44633 0.0
C524 C 0.36172 0.21991 0.45746 0.0
C525 C 0.38772 0.22471 0.47191 0.0
C526 C 0.4046 0.19127 0.47465 0.0
H527 H 0.36545 0.12145 0.44105 0.0
O528 O 0.52439 0.19272 0.43636 0.0
O529 O 0.48695 0.16239 0.45967 0.0
O530 O 0.46127 0.08663 0.43535 0.0
O531 O 0.3999 0.07192 0.45292 0.0
C532 C 0.39806 0.26176 0.4836 0.0
C533 C 0.42507 0.26481 0.49775 0.0
H534 H 0.47889 0.25978 0.52328 0.0
H535 H 0.5082 0.19912 0.52553 0.0
H536 H 0.33363 0.17846 0.43513 0.0
H537 H 0.34802 0.24496 0.45477 0.0
H538 H 0.38558 0.28822 0.48179 0.0
H539 H 0.43291 0.29354 0.50662 0.0
Mn540 Mn 0.72214 0.53647 0.71599 0.0
Mn541 Mn 0.63949 0.55207 0.69452 0.0
C542 C 0.63883 0.47815 0.718 0.0
C543 C 0.77629 0.50471 0.71461 0.0
C544 C 0.68756 0.6087 0.72571 0.0
O545 O 0.7645 0.58965 0.69983 0.0
O546 O 0.70634 0.59134 0.68412 0.0
C547 C 0.64001 0.50263 0.66383 0.0
N548 N 0.61489 0.50586 0.6769 0.0
C549 C 0.53891 0.43516 0.66787 0.0
C550 C 0.5639 0.4313 0.65425 0.0
C551 C 0.61466 0.46518 0.65223 0.0
C552 C 0.56596 0.47365 0.67892 0.0
H553 H 0.67914 0.52828 0.6623 0.0
C554 C 0.75167 0.60479 0.68738 0.0
O555 O 0.78296 0.53796 0.72548 0.0
O556 O 0.73869 0.49051 0.70513 0.0
N557 N 0.57383 0.51517 0.70327 0.0
C558 C 0.55604 0.52176 0.71765 0.0
C559 C 0.5063 0.48963 0.72186 0.0
C560 C 0.47539 0.45105 0.71127 0.0
C561 C 0.49448 0.44503 0.69653 0.0
C562 C 0.54423 0.47851 0.6929 0.0
H563 H 0.57969 0.55101 0.72593 0.0
O564 O 0.66985 0.48081 0.72902 0.0
O565 O 0.65828 0.50946 0.70605 0.0
O566 O 0.71212 0.58699 0.72928 0.0
O567 O 0.66181 0.59965 0.71272 0.0
C568 C 0.46639 0.40645 0.68546 0.0
C569 C 0.48857 0.40155 0.67114 0.0
H570 H 0.54461 0.40214 0.64537 0.0
H571 H 0.63427 0.46224 0.6418 0.0
H572 H 0.49191 0.49439 0.7333 0.0
H573 H 0.43719 0.42602 0.71464 0.0
H574 H 0.42786 0.37995 0.68795 0.0
H575 H 0.46675 0.37135 0.66283 0.0
Mn576 Mn 0.46765 0.18688 0.71587 0.0
Mn577 Mn 0.4534 0.09045 0.69353 0.0
C578 C 0.52766 0.16392 0.71684 0.0
C579 C 0.49782 0.27242 0.71579 0.0
C580 C 0.39675 0.07931 0.72492 0.0
O581 O 0.41392 0.17618 0.69995 0.0
O582 O 0.41305 0.11756 0.68373 0.0
C583 C 0.49889 0.13882 0.66221 0.0
N584 N 0.49852 0.1128 0.67559 0.0
C585 C 0.56893 0.10828 0.66575 0.0
C586 C 0.57002 0.13498 0.65187 0.0
C587 C 0.53481 0.15027 0.65009 0.0
C588 C 0.5318 0.09731 0.67731 0.0
H589 H 0.47199 0.15077 0.6608 0.0
C590 C 0.39917 0.14892 0.68732 0.0
O591 O 0.46475 0.244 0.72644 0.0
O592 O 0.51237 0.25096 0.70555 0.0
N593 N 0.49189 0.06289 0.70182 0.0
C594 C 0.4864 0.03832 0.71608 0.0
C595 C 0.51957 0.02169 0.71994 0.0
C596 C 0.55799 0.03047 0.7091 0.0
C597 C 0.56282 0.05571 0.69447 0.0
C598 C 0.52852 0.07121 0.69125 0.0
H599 H 0.45717 0.03173 0.72452 0.0
O600 O 0.52424 0.19047 0.72837 0.0
O601 O 0.49557 0.15196 0.70512 0.0
O602 O 0.41822 0.12523 0.72887 0.0
O603 O 0.40641 0.06362 0.71183 0.0
C604 C 0.60066 0.06658 0.68305 0.0
C605 C 0.60361 0.09269 0.66867 0.0
H606 H 0.59797 0.14431 0.64256 0.0
H607 H 0.53552 0.17104 0.63943 0.0
H608 H 0.51565 0.00232 0.73127 0.0
H609 H 0.58368 0.01784 0.71216 0.0
H610 H 0.62779 0.05516 0.68522 0.0
H611 H 0.63292 0.1009 0.66 0.0
Mn612 Mn 0.82144 0.28408 0.71553 0.0
Mn613 Mn 0.92066 0.36429 0.69396 0.0
C614 C 0.84699 0.36772 0.71664 0.0
C615 C 0.73535 0.23165 0.71426 0.0
C616 C 0.92749 0.31768 0.72575 0.0
O617 O 0.83135 0.23994 0.69988 0.0
O618 O 0.89257 0.29652 0.68415 0.0
C619 C 0.87511 0.36289 0.66221 0.0
N620 N 0.90076 0.38817 0.67569 0.0
C621 C 0.9079 0.46403 0.66562 0.0
C622 C 0.88165 0.43883 0.65162 0.0
C623 C 0.86522 0.38805 0.64991 0.0
C624 C 0.91727 0.43718 0.67736 0.0
H625 H 0.86222 0.32382 0.66085 0.0
C626 C 0.85971 0.25158 0.68756 0.0
O627 O 0.76127 0.22481 0.72534 0.0
O628 O 0.75961 0.26813 0.70444 0.0
N629 N 0.9493 0.43053 0.70222 0.0
C630 C 0.973 0.44912 0.71664 0.0
C631 C 0.99053 0.49912 0.72045 0.0
C632 C 0.98352 0.52948 0.7094 0.0
C633 C 0.95911 0.50956 0.69462 0.0
C634 C 0.94265 0.45952 0.69146 0.0
H635 H 0.97817 0.42592 0.72525 0.0
O636 O 0.819 0.33779 0.72794 0.0
O637 O 0.85892 0.3471 0.70505 0.0
O638 O 0.88113 0.2937 0.72916 0.0
O639 O 0.94477 0.34289 0.71269 0.0
C640 C 0.94994 0.53726 0.68299 0.0
C641 C 0.92449 0.51455 0.66848 0.0
H642 H 0.87351 0.45799 0.64218 0.0
H643 H 0.84476 0.36831 0.63917 0.0
H644 H 0.00924 0.51419 0.7319 0.0
H645 H 0.99684 0.56797 0.71242 0.0
H646 H 0.96213 0.57602 0.68512 0.0
H647 H 0.91754 0.5362 0.65966 0.0
Mn648 Mn 0.46727 0.28226 0.21585 0.0
Mn649 Mn 0.4517 0.36452 0.19407 0.0
C650 C 0.5271 0.3653 0.21691 0.0
C651 C 0.49768 0.2271 0.21532 0.0
C652 C 0.39713 0.31919 0.22579 0.0
O653 O 0.41286 0.23924 0.20014 0.0
O654 O 0.4107 0.297 0.1843 0.0
C655 C 0.49538 0.36161 0.16237 0.0
N656 N 0.49562 0.38734 0.17581 0.0
C657 C 0.56453 0.46263 0.16548 0.0
C658 C 0.56496 0.43695 0.15152 0.0
C659 C 0.53023 0.38622 0.14997 0.0
C660 C 0.52855 0.43628 0.17736 0.0
H661 H 0.46879 0.32262 0.16111 0.0
C662 C 0.39716 0.25173 0.18774 0.0
O663 O 0.46499 0.22222 0.22615 0.0
O664 O 0.51168 0.26317 0.20514 0.0
N665 N 0.49057 0.43064 0.20228 0.0
C666 C 0.48601 0.44973 0.21668 0.0
C667 C 0.51895 0.49974 0.22035 0.0
C668 C 0.55614 0.5296 0.20917 0.0
C669 C 0.56004 0.50916 0.19442 0.0
C670 C 0.52611 0.45911 0.19142 0.0
H671 H 0.45768 0.42696 0.22537 0.0
O672 O 0.52414 0.33504 0.22826 0.0
O673 O 0.49478 0.3454 0.20523 0.0
O674 O 0.41838 0.29422 0.2293 0.0
O675 O 0.40592 0.34442 0.2127 0.0
C676 C 0.59653 0.53639 0.18264 0.0
C677 C 0.59874 0.51318 0.16817 0.0
H678 H 0.59202 0.4557 0.14198 0.0
H679 H 0.53043 0.36612 0.13925 0.0
H680 H 0.51575 0.51521 0.23178 0.0
H681 H 0.5816 0.56811 0.21207 0.0
H682 H 0.62309 0.57519 0.18459 0.0
H683 H 0.62709 0.53449 0.15923 0.0
Mn684 Mn 0.72233 0.18734 0.21465 0.0
Mn685 Mn 0.63927 0.08955 0.19311 0.0
C686 C 0.63917 0.1628 0.21674 0.0
C687 C 0.77688 0.27317 0.2134 0.0
C688 C 0.68699 0.08028 0.22427 0.0
O689 O 0.76445 0.17639 0.19843 0.0
O690 O 0.70612 0.11682 0.1827 0.0
C691 C 0.64041 0.14022 0.16251 0.0
N692 N 0.61507 0.11174 0.17553 0.0
C693 C 0.53952 0.10753 0.16658 0.0
C694 C 0.56474 0.13651 0.153 0.0
C695 C 0.61539 0.15291 0.15097 0.0
C696 C 0.56622 0.09546 0.17756 0.0
H697 H 0.67947 0.15336 0.16098 0.0
C698 C 0.75151 0.14855 0.18595 0.0
O699 O 0.78335 0.24627 0.2242 0.0
O700 O 0.73928 0.25009 0.2039 0.0
N701 N 0.57359 0.06112 0.20182 0.0
C702 C 0.55558 0.03654 0.21616 0.0
C703 C 0.50592 0.01934 0.22037 0.0
C704 C 0.47532 0.02762 0.20983 0.0
C705 C 0.49463 0.05291 0.19513 0.0
C706 C 0.54427 0.06872 0.19149 0.0
H707 H 0.579 0.0305 0.22441 0.0
O708 O 0.67033 0.19096 0.22776 0.0
O709 O 0.65841 0.15093 0.20472 0.0
O710 O 0.71192 0.12654 0.22783 0.0
O711 O 0.66117 0.06376 0.21127 0.0
C712 C 0.46687 0.06402 0.18413 0.0
C713 C 0.48928 0.09127 0.16985 0.0
H714 H 0.54571 0.14686 0.14417 0.0
H715 H 0.63518 0.17556 0.14058 0.0
H716 H 0.49136 1.00007 0.23178 0.0
H717 H 0.43718 0.01478 0.21321 0.0
H718 H 0.42843 0.05236 0.18663 0.0
H719 H 0.46773 0.10015 0.1616 0.0
Mn720 Mn 0.82087 0.53787 0.21648 0.0
Mn721 Mn 0.91947 0.55934 0.19411 0.0
C722 C 0.84709 0.48034 0.2167 0.0
C723 C 0.73471 0.50438 0.21534 0.0
C724 C 0.92685 0.61114 0.22633 0.0
O725 O 0.83025 0.59281 0.20146 0.0
O726 O 0.88977 0.59818 0.18472 0.0
C727 C 0.87313 0.51537 0.16242 0.0
N728 N 0.89953 0.51598 0.17572 0.0
C729 C 0.90771 0.44829 0.16519 0.0
C730 C 0.88069 0.44702 0.15137 0.0
C731 C 0.86337 0.48073 0.14998 0.0
C732 C 0.91692 0.48411 0.17708 0.0
H733 H 0.85954 0.54104 0.16131 0.0
C734 C 0.85688 0.60963 0.18878 0.0
O735 O 0.76069 0.53616 0.22666 0.0
O736 O 0.75888 0.49263 0.2053 0.0
N737 N 0.94953 0.5226 0.20192 0.0
C738 C 0.97397 0.52788 0.2162 0.0
C739 C 0.99244 0.49599 0.21969 0.0
C740 C 0.98562 0.45905 0.20848 0.0
C741 C 0.96047 0.4544 0.19385 0.0
C742 C 0.94306 0.48737 0.19101 0.0
H743 H 0.97906 0.55595 0.22492 0.0
O744 O 0.81904 0.48107 0.22824 0.0
O745 O 0.85848 0.51364 0.2054 0.0
O746 O 0.88078 0.58725 0.23017 0.0
O747 O 0.94372 0.60455 0.21295 0.0
C748 C 0.95147 0.41794 0.18208 0.0
C749 C 0.92525 0.415 0.16774 0.0
H750 H 0.87265 0.42003 0.14183 0.0
H751 H 0.84232 0.47983 0.13938 0.0
H752 H 0.01173 0.49976 0.23102 0.0
H753 H 0.99969 0.43435 0.21126 0.0
H754 H 0.9644 0.39186 0.18396 0.0
H755 H 0.91846 0.38673 0.15879 0.0
Mn756 Mn 0.61687 0.13144 0.94978 0.0
Mn757 Mn 0.69883 0.11588 0.9716 0.0
C758 C 0.70026 0.18954 0.94777 0.0
C759 C 0.5629 0.16338 0.95109 0.0
C760 C 0.65127 0.05877 0.94042 0.0
O761 O 0.57411 0.07853 0.96593 0.0
O762 O 0.63171 0.07696 0.98192 0.0
C763 C 0.69777 0.16619 0.00203 0.0
N764 N 0.72314 0.16253 0.98911 0.0
C765 C 0.79888 0.23368 0.99806 0.0
C766 C 0.77363 0.23797 0.01153 0.0
C767 C 0.72286 0.20407 0.01351 0.0
C768 C 0.77209 0.19476 0.98712 0.0
H769 H 0.65861 0.14057 0.00352 0.0
C770 C 0.58649 0.06361 0.97852 0.0
O771 O 0.55614 0.13006 0.94022 0.0
O772 O 0.60058 0.17765 0.96052 0.0
N773 N 0.7647 0.15245 0.96299 0.0
C774 C 0.78278 0.14537 0.94875 0.0
C775 C 0.8326 0.17737 0.9446 0.0
C776 C 0.86327 0.21637 0.9551 0.0
C777 C 0.84388 0.22288 0.9697 0.0
C778 C 0.79408 0.18947 0.97328 0.0
H779 H 0.75932 0.11581 0.94054 0.0
O780 O 0.66936 0.1868 0.9367 0.0
O781 O 0.68061 0.15848 0.95979 0.0
O782 O 0.62688 0.08057 0.9367 0.0
O783 O 0.67674 0.06791 0.9535 0.0
C784 C 0.87172 0.26189 0.98066 0.0
C785 C 0.84925 0.26726 0.99483 0.0
H786 H 0.79271 0.26747 0.02032 0.0
H787 H 0.70303 0.20735 0.02382 0.0
H788 H 0.84724 0.17221 0.93329 0.0
H789 H 0.90153 0.24131 0.95177 0.0
H790 H 0.91028 0.28837 0.97819 0.0
H791 H 0.87088 0.29779 0.00304 0.0
Mn792 Mn 0.87277 0.48092 0.94818 0.0
Mn793 Mn 0.88821 0.5791 0.96976 0.0
C794 C 0.81273 0.50385 0.94713 0.0
C795 C 0.84235 0.39525 0.94894 0.0
C796 C 0.94266 0.58788 0.93805 0.0
O797 O 0.92743 0.49289 0.96388 0.0
O798 O 0.92928 0.55289 0.97962 0.0
C799 C 0.84468 0.53322 0.00155 0.0
N800 N 0.84428 0.55827 0.98801 0.0
C801 C 0.77498 0.56427 0.99815 0.0
C802 C 0.77469 0.53857 0.0122 0.0
C803 C 0.80971 0.52301 0.0139 0.0
C804 C 0.81112 0.57394 0.98634 0.0
H805 H 0.87147 0.52112 0.00291 0.0
C806 C 0.94302 0.52129 0.97624 0.0
O807 O 0.87489 0.42283 0.93804 0.0
O808 O 0.82856 0.41761 0.95908 0.0
N809 N 0.84921 0.60602 0.96141 0.0
C810 C 0.85373 0.62939 0.94695 0.0
C811 C 0.82058 0.64608 0.94316 0.0
C812 C 0.7832 0.63866 0.95426 0.0
C813 C 0.77934 0.61462 0.96908 0.0
C814 C 0.8135 0.5989 0.97221 0.0
H815 H 0.88219 0.63498 0.93831 0.0
O816 O 0.81555 0.47634 0.93582 0.0
O817 O 0.84533 0.51667 0.95873 0.0
O818 O 0.9214 0.54161 0.93458 0.0
O819 O 0.93394 0.60445 0.95112 0.0
C820 C 0.74262 0.60522 0.98078 0.0
C821 C 0.74048 0.58014 0.99532 0.0
H822 H 0.7475 0.53024 0.0217 0.0
H823 H 0.80961 0.50303 0.02469 0.0
H824 H 0.82375 0.66451 0.93168 0.0
H825 H 0.75755 0.65139 0.95126 0.0
H826 H 0.71582 0.61709 0.97872 0.0
H827 H 0.71195 0.573 0.0042 0.0
Mn828 Mn 0.51902 0.38395 0.94933 0.0
Mn829 Mn 0.42161 0.30717 0.97221 0.0
C830 C 0.49229 0.30013 0.94893 0.0
C831 C 0.60524 0.43603 0.94991 0.0
C832 C 0.41259 0.35159 0.94023 0.0
O833 O 0.51111 0.42975 0.96467 0.0
O834 O 0.45195 0.37583 0.98154 0.0
C835 C 0.46961 0.30985 0.00358 0.0
N836 N 0.44248 0.28392 0.99041 0.0
C837 C 0.43455 0.2081 0.00086 0.0
C838 C 0.46231 0.23398 0.01455 0.0
C839 C 0.47988 0.28507 0.01591 0.0
C840 C 0.42485 0.23462 0.98907 0.0
H841 H 0.48338 0.34916 0.00467 0.0
C842 C 0.48496 0.4201 0.97745 0.0
O843 O 0.57875 0.44216 0.93887 0.0
O844 O 0.58151 0.40015 0.95999 0.0
N845 N 0.39102 0.24026 0.96447 0.0
C846 C 0.36602 0.22101 0.95028 0.0
C847 C 0.34743 0.17064 0.94679 0.0
C848 C 0.35465 0.14057 0.9579 0.0
C849 C 0.38039 0.16117 0.97243 0.0
C850 C 0.39797 0.21159 0.97528 0.0
H851 H 0.36065 0.24396 0.94162 0.0
O852 O 0.51961 0.32884 0.93727 0.0
O853 O 0.48184 0.32213 0.96047 0.0
O854 O 0.45847 0.37391 0.93617 0.0
O855 O 0.39635 0.32793 0.95361 0.0
C856 C 0.38986 0.13379 0.9841 0.0
C857 C 0.41676 0.1572 0.99833 0.0
H858 H 0.47075 0.2151 0.02401 0.0
H859 H 0.50151 0.30534 0.02641 0.0
H860 H 0.32775 0.15506 0.93552 0.0
H861 H 0.34048 0.10179 0.95512 0.0
H862 H 0.37679 0.09475 0.98222 0.0
H863 H 0.42392 0.13578 0.00719 0.0
Mn864 Mn 0.53727 0.72108 0.78138 0.0
Mn865 Mn 0.55364 0.64236 0.80476 0.0
C866 C 0.47959 0.63744 0.78037 0.0
C867 C 0.50536 0.77501 0.78116 0.0
C868 C 0.61098 0.687 0.77339 0.0
O869 O 0.58997 0.76578 0.79721 0.0
O870 O 0.59166 0.71059 0.8144 0.0
C871 C 0.50251 0.64551 0.83471 0.0
N872 N 0.50674 0.61919 0.8222 0.0
C873 C 0.43619 0.54376 0.83167 0.0
C874 C 0.43132 0.57 0.84473 0.0
C875 C 0.46463 0.62109 0.84625 0.0
C876 C 0.47509 0.56994 0.82067 0.0
H877 H 0.5277 0.68488 0.83584 0.0
C878 C 0.60461 0.75525 0.81025 0.0
O879 O 0.53884 0.78024 0.77058 0.0
O880 O 0.49098 0.73891 0.79133 0.0
N881 N 0.51791 0.57566 0.7968 0.0
C882 C 0.52545 0.55652 0.78288 0.0
C883 C 0.49396 0.50624 0.77917 0.0
C884 C 0.45504 0.47619 0.78979 0.0
C885 C 0.44805 0.49667 0.80406 0.0
C886 C 0.48092 0.54691 0.8072 0.0
H887 H 0.55498 0.57947 0.77458 0.0
O888 O 0.48215 0.66686 0.76877 0.0
O889 O 0.51061 0.6587 0.7923 0.0
O890 O 0.5883 0.70991 0.76895 0.0
O891 O 0.60206 0.66315 0.7868 0.0
C892 C 0.40907 0.46946 0.81509 0.0
C893 C 0.40318 0.49297 0.82889 0.0
H894 H 0.40181 0.55142 0.85355 0.0
H895 H 0.46091 0.64165 0.85624 0.0
H896 H 0.49947 0.49077 0.7681 0.0
H897 H 0.43051 0.43755 0.7868 0.0
H898 H 0.38302 0.43057 0.81297 0.0
H899 H 0.37267 0.4718 0.83717 0.0
Mn900 Mn 0.28168 0.81585 0.78107 0.0
Mn901 Mn 0.36271 0.91157 0.8038 0.0
C902 C 0.365 0.84063 0.77964 0.0
C903 C 0.22732 0.73018 0.78116 0.0
C904 C 0.31808 0.92378 0.77238 0.0
O905 O 0.2379 0.82509 0.79707 0.0
O906 O 0.29482 0.88355 0.81345 0.0
C907 C 0.35826 0.85833 0.83415 0.0
N908 N 0.38497 0.88782 0.82148 0.0
C909 C 0.45967 0.89186 0.8313 0.0
C910 C 0.43303 0.86181 0.84451 0.0
C911 C 0.38211 0.84497 0.84593 0.0
C912 C 0.43406 0.90449 0.82005 0.0
H913 H 0.31903 0.84494 0.83523 0.0
C914 C 0.24974 0.85205 0.80974 0.0
O915 O 0.22188 0.75822 0.77056 0.0
O916 O 0.26365 0.75205 0.79124 0.0
N917 N 0.42926 0.94063 0.79583 0.0
C918 C 0.44875 0.96615 0.78174 0.0
C919 C 0.49887 0.98378 0.7781 0.0
C920 C 0.52843 0.97505 0.78898 0.0
C921 C 0.50758 0.94875 0.80341 0.0
C922 C 0.45749 0.93237 0.80644 0.0
H923 H 0.42616 0.9726 0.77325 0.0
O924 O 0.3348 0.81358 0.76824 0.0
O925 O 0.34474 0.85123 0.79168 0.0
O926 O 0.29326 0.87785 0.76841 0.0
O927 O 0.34289 0.93914 0.7856 0.0
C928 C 0.53427 0.93722 0.81473 0.0
C929 C 0.51036 0.9088 0.82866 0.0
H930 H 0.45117 0.85101 0.85354 0.0
H931 H 0.36123 0.82153 0.85604 0.0
H932 H 0.51459 0.00377 0.76689 0.0
H933 H 0.56696 0.9883 0.78606 0.0
H934 H 0.57308 0.94957 0.81273 0.0
H935 H 0.53115 0.89961 0.83715 0.0
Mn936 Mn 0.18808 0.46605 0.78247 0.0
Mn937 Mn 0.09202 0.45302 0.80474 0.0
C938 C 0.16332 0.52447 0.78029 0.0
C939 C 0.2738 0.49706 0.78263 0.0
C940 C 0.08024 0.39344 0.77402 0.0
O941 O 0.17858 0.41433 0.79904 0.0
O942 O 0.12008 0.41416 0.81509 0.0
C943 C 0.14471 0.50436 0.83487 0.0
N944 N 0.1154 0.50046 0.82201 0.0
C945 C 0.11116 0.57191 0.83087 0.0
C946 C 0.14102 0.57647 0.84426 0.0
C947 C 0.15785 0.54253 0.84627 0.0
C948 C 0.09865 0.53267 0.82003 0.0
H949 H 0.15812 0.47864 0.83639 0.0
C950 C 0.15162 0.40034 0.81173 0.0
O951 O 0.24552 0.46274 0.7723 0.0
O952 O 0.25215 0.51256 0.79244 0.0
N953 N 0.06295 0.4897 0.79607 0.0
C954 C 0.03764 0.48243 0.78186 0.0
C955 C 0.02013 0.51462 0.77764 0.0
C956 C 0.02878 0.55391 0.78805 0.0
C957 C 0.05481 0.5606 0.80262 0.0
C958 C 0.071 0.52707 0.80626 0.0
H959 H 0.03127 0.45262 0.77372 0.0
O960 O 0.19045 0.52058 0.76907 0.0
O961 O 0.15257 0.49438 0.79256 0.0
O962 O 0.12615 0.41464 0.77001 0.0
O963 O 0.06472 0.40405 0.78697 0.0
C964 C 0.06635 0.59992 0.81349 0.0
C965 C 0.09442 0.60552 0.82761 0.0
H966 H 0.15171 0.6062 0.85298 0.0
H967 H 0.18115 0.54599 0.85653 0.0
H968 H 1.00031 0.50938 0.76632 0.0
H969 H 0.01567 0.57898 0.78467 0.0
H970 H 0.05438 0.62647 0.81098 0.0
H971 H 0.10361 0.63629 0.83575 0.0
Mn972 Mn 0.38827 0.8698 0.05125 0.0
Mn973 Mn 0.31117 0.88939 0.02827 0.0
C974 C 0.30422 0.8138 0.05247 0.0
C975 C 0.44003 0.83529 0.05042 0.0
C976 C 0.3575 0.94559 0.0597 0.0
O977 O 0.4336 0.92233 0.03549 0.0
O978 O 0.37931 0.92589 0.01841 0.0
C979 C 0.31179 0.8374 0.99819 0.0
N980 N 0.28638 0.84258 0.01081 0.0
C981 C 0.20967 0.77339 0.00149 0.0
C982 C 0.23497 0.76758 0.98833 0.0
C983 C 0.28625 0.79971 0.98668 0.0
C984 C 0.23698 0.81201 0.01248 0.0
H985 H 0.3513 0.86167 0.99697 0.0
C986 C 0.4237 0.93769 0.02251 0.0
O987 O 0.44711 0.86856 0.06136 0.0
O988 O 0.40314 0.82237 0.04075 0.0
N989 N 0.24463 0.85526 0.03641 0.0
C990 C 0.2264 0.86353 0.05042 0.0
C991 C 0.17602 0.83325 0.05424 0.0
C992 C 0.1449 0.79481 0.04363 0.0
C993 C 0.16447 0.78704 0.02929 0.0
C994 C 0.21489 0.81866 0.02605 0.0
H995 H 0.25014 0.89274 0.0587 0.0
O996 O 0.33361 0.81529 0.0639 0.0
O997 O 0.32582 0.84497 0.04059 0.0
O998 O 0.37932 0.9217 0.06403 0.0
O999 O 0.33375 0.93767 0.0463 0.0
C1000 C 0.13611 0.74852 0.01824 0.0
C1001 C 0.15868 0.74165 0.00436 0.0
H1002 H 0.2155 0.73824 0.97951 0.0
H1003 H 0.30609 0.79524 0.97662 0.0
H1004 H 0.16126 0.83934 0.06538 0.0
H1005 H 0.10615 0.77124 0.04669 0.0
H1006 H 0.09701 0.72365 0.0204 0.0
H1007 H 0.1366 0.71143 0.99609 0.0
Mn1008 Mn 0.13592 0.52224 0.05009 0.0
Mn1009 Mn 0.12128 0.42747 0.02682 0.0
C1010 C 0.19413 0.49708 0.0514 0.0
C1011 C 0.1664 0.6079 0.05031 0.0
C1012 C 0.0629 0.41421 0.058 0.0
O1013 O 0.0835 0.5135 0.03403 0.0
O1014 O 0.08342 0.45736 0.01686 0.0
C1015 C 0.17334 0.48179 0.99697 0.0
N1016 N 0.16879 0.45132 0.00956 0.0
C1017 C 0.23942 0.44619 0.00033 0.0
C1018 C 0.24461 0.47721 0.98721 0.0
C1019 C 0.21143 0.49508 0.98553 0.0
C1020 C 0.20032 0.43363 0.01123 0.0
H1021 H 0.14823 0.49602 0.99572 0.0
C1022 C 0.06998 0.48877 0.02089 0.0
O1023 O 0.13285 0.57917 0.06078 0.0
O1024 O 0.18183 0.58679 0.04025 0.0
N1025 N 0.15702 0.39683 0.03506 0.0
C1026 C 0.1493 0.37042 0.04905 0.0
C1027 C 0.1807 0.35167 0.05293 0.0
C1028 C 0.21974 0.36029 0.0424 0.0
C1029 C 0.22697 0.38753 0.02807 0.0
C1030 C 0.19418 0.40489 0.02476 0.0
H1031 H 0.1197 0.36406 0.05728 0.0
O1032 O 0.19108 0.52394 0.06291 0.0
O1033 O 0.16347 0.48703 0.03935 0.0
O1034 O 0.08511 0.45978 0.06243 0.0
O1035 O 0.07213 0.39956 0.04458 0.0
C1036 C 0.26611 0.39908 0.01712 0.0
C1037 C 0.27229 0.42833 0.00326 0.0
H1038 H 0.27427 0.48799 0.97845 0.0
H1039 H 0.2154 0.5193 0.97549 0.0
H1040 H 0.17504 0.33091 0.06406 0.0
H1041 H 0.2442 0.34621 0.04552 0.0
H1042 H 0.29207 0.38622 0.01937 0.0
H1043 H 0.30292 0.43751 0.99505 0.0
Mn1044 Mn 0.48505 0.61348 0.05016 0.0
Mn1045 Mn 0.58225 0.69523 0.02806 0.0
C1046 C 0.50913 0.69668 0.05147 0.0
C1047 C 0.39932 0.55919 0.04974 0.0
C1048 C 0.59224 0.64913 0.0595 0.0
O1049 O 0.49517 0.57028 0.03418 0.0
O1050 O 0.55466 0.62771 0.01814 0.0
C1051 C 0.53465 0.69321 0.99667 0.0
N1052 N 0.56069 0.7186 0.01008 0.0
C1053 C 0.56658 0.79413 0.00021 0.0
C1054 C 0.5399 0.76879 0.98629 0.0
C1055 C 0.52389 0.71812 0.98451 0.0
C1056 C 0.57682 0.76752 0.0118 0.0
H1057 H 0.52215 0.65424 0.99525 0.0
C1058 C 0.52266 0.58255 0.02161 0.0
O1059 O 0.42699 0.55356 0.06044 0.0
O1060 O 0.42162 0.59554 0.03968 0.0
N1061 N 0.61035 0.76131 0.0364 0.0
C1062 C 0.63468 0.78009 0.05072 0.0
C1063 C 0.65187 0.83001 0.05458 0.0
C1064 C 0.6439 0.86008 0.04369 0.0
C1065 C 0.61887 0.83998 0.02902 0.0
C1066 C 0.60275 0.79003 0.0258 0.0
H1067 H 0.64064 0.75712 0.0592 0.0
O1068 O 0.4821 0.66643 0.06287 0.0
O1069 O 0.52081 0.67665 0.03962 0.0
O1070 O 0.54616 0.62451 0.06324 0.0
O1071 O 0.6083 0.67447 0.04642 0.0
C1072 C 0.60885 0.86741 0.01754 0.0
C1073 C 0.58283 0.84455 0.00313 0.0
H1074 H 0.5311 0.78775 0.97696 0.0
H1075 H 0.50313 0.69827 0.97383 0.0
H1076 H 0.6711 0.84523 0.06595 0.0
H1077 H 0.65699 0.8985 0.04675 0.0
H1078 H 0.62092 0.90611 0.01969 0.0
H1079 H 0.57521 0.86601 0.99442 0.0
Mn1080 Mn 0.13553 0.61909 0.54972 0.0
Mn1081 Mn 0.11717 0.69835 0.52742 0.0
C1082 C 0.19232 0.70283 0.55133 0.0
C1083 C 0.16867 0.56607 0.54843 0.0
C1084 C 0.06113 0.65126 0.55884 0.0
O1085 O 0.08262 0.57514 0.53387 0.0
O1086 O 0.0799 0.63078 0.51719 0.0
C1087 C 0.16846 0.69845 0.49708 0.0
N1088 N 0.16384 0.7235 0.50993 0.0
C1089 C 0.2335 0.80022 0.50084 0.0
C1090 C 0.23872 0.77531 0.48744 0.0
C1091 C 0.20606 0.7242 0.48556 0.0
C1092 C 0.1949 0.77274 0.51181 0.0
H1093 H 0.14379 0.65906 0.49568 0.0
C1094 C 0.06774 0.58607 0.52098 0.0
O1095 O 0.13562 0.55918 0.55942 0.0
O1096 O 0.18219 0.60349 0.53892 0.0
N1097 N 0.15215 0.76448 0.53591 0.0
C1098 C 0.14449 0.78225 0.55013 0.0
C1099 C 0.17542 0.83234 0.5542 0.0
C1100 C 0.21392 0.86363 0.54364 0.0
C1101 C 0.2211 0.84456 0.52908 0.0
C1102 C 0.18879 0.79442 0.52559 0.0
H1103 H 0.11532 0.75835 0.55839 0.0
O1104 O 0.19061 0.67266 0.56251 0.0
O1105 O 0.16106 0.68218 0.53941 0.0
O1106 O 0.08434 0.62847 0.56282 0.0
O1107 O 0.06903 0.67543 0.54552 0.0
C1108 C 0.25973 0.87306 0.51808 0.0
C1109 C 0.26589 0.85093 0.50396 0.0
H1110 H 0.26802 0.79492 0.47862 0.0
H1111 H 0.21008 0.70465 0.47532 0.0
H1112 H 0.1698 0.84671 0.5655 0.0
H1113 H 0.23802 0.90213 0.54691 0.0
H1114 H 0.28533 0.91191 0.52047 0.0
H1115 H 0.29614 0.87309 0.4957 0.0
Mn1116 Mn 0.38942 0.52117 0.54994 0.0
Mn1117 Mn 0.31279 0.42577 0.52627 0.0
C1118 C 0.3059 0.49582 0.54988 0.0
C1119 C 0.44275 0.60711 0.55043 0.0
C1120 C 0.35373 0.41336 0.55851 0.0
O1121 O 0.43572 0.51343 0.53475 0.0
O1122 O 0.3821 0.45519 0.51758 0.0
C1123 C 0.31961 0.47646 0.49509 0.0
N1124 N 0.29206 0.44856 0.50792 0.0
C1125 C 0.21774 0.44184 0.49655 0.0
C1126 C 0.2453 0.47038 0.48321 0.0
C1127 C 0.29646 0.48777 0.48248 0.0
C1128 C 0.24272 0.43123 0.50866 0.0
H1129 H 0.35895 0.49 0.49448 0.0
C1130 C 0.42635 0.48747 0.52193 0.0
O1131 O 0.44721 0.57893 0.56122 0.0
O1132 O 0.40797 0.5852 0.53983 0.0
N1133 N 0.24529 0.39596 0.53335 0.0
C1134 C 0.22435 0.37042 0.54732 0.0
C1135 C 0.1737 0.35204 0.55021 0.0
C1136 C 0.14507 0.35998 0.5387 0.0
C1137 C 0.1674 0.38632 0.5244 0.0
C1138 C 0.21805 0.40376 0.52218 0.0
H1139 H 0.24618 0.36445 0.55627 0.0
O1140 O 0.33417 0.52201 0.56178 0.0
O1141 O 0.32811 0.48577 0.53828 0.0
O1142 O 0.3772 0.45911 0.56271 0.0
O1143 O 0.33083 0.39835 0.54496 0.0
C1144 C 0.14151 0.39642 0.51235 0.0
C1145 C 0.16662 0.4241 0.49843 0.0
H1146 H 0.22767 0.47955 0.47353 0.0
H1147 H 0.31801 0.50999 0.47226 0.0
H1148 H 0.15679 0.33193 0.56131 0.0
H1149 H 0.10604 0.34591 0.541 0.0
H1150 H 0.10227 0.38314 0.5137 0.0
H1151 H 0.14634 0.43185 0.4893 0.0
Mn1152 Mn 0.48314 0.87261 0.55007 0.0
Mn1153 Mn 0.57899 0.88477 0.52791 0.0
C1154 C 0.50685 0.81332 0.55218 0.0
C1155 C 0.39764 0.84274 0.54975 0.0
C1156 C 0.59103 0.94427 0.5587 0.0
O1157 O 0.49361 0.92485 0.53357 0.0
O1158 O 0.55143 0.92393 0.51744 0.0
C1159 C 0.52634 0.83337 0.49777 0.0
N1160 N 0.55551 0.8372 0.51067 0.0
C1161 C 0.55931 0.7654 0.50194 0.0
C1162 C 0.52957 0.76089 0.48851 0.0
C1163 C 0.51303 0.79503 0.48643 0.0
C1164 C 0.57195 0.80477 0.51273 0.0
H1165 H 0.51315 0.85924 0.4962 0.0
C1166 C 0.5204 0.93839 0.52082 0.0
O1167 O 0.42604 0.87665 0.56017 0.0
O1168 O 0.41901 0.8269 0.53996 0.0
N1169 N 0.60759 0.84777 0.5367 0.0
C1170 C 0.63288 0.85506 0.55092 0.0
C1171 C 0.65032 0.82282 0.55517 0.0
C1172 C 0.64154 0.78342 0.54479 0.0
C1173 C 0.61549 0.77668 0.53022 0.0
C1174 C 0.59943 0.8103 0.52654 0.0
H1175 H 0.63936 0.88496 0.55903 0.0
O1176 O 0.47977 0.81739 0.56338 0.0
O1177 O 0.51818 0.84378 0.53999 0.0
O1178 O 0.54513 0.9233 0.56267 0.0
O1179 O 0.60639 0.93386 0.54566 0.0
C1180 C 0.60389 0.7373 0.51939 0.0
C1181 C 0.57584 0.73165 0.50526 0.0
H1182 H 0.51876 0.73105 0.47983 0.0
H1183 H 0.48982 0.79161 0.47615 0.0
H1184 H 0.67022 0.82814 0.56647 0.0
H1185 H 0.6546 0.75832 0.5482 0.0
H1186 H 0.61588 0.7108 0.52191 0.0
H1187 H 0.56657 0.70079 0.49715 0.0
Mn1188 Mn 0.28411 0.46805 0.28227 0.0
Mn1189 Mn 0.36651 0.45461 0.30467 0.0
C1190 C 0.36731 0.52656 0.28027 0.0
C1191 C 0.22969 0.49931 0.2825 0.0
C1192 C 0.31955 0.39566 0.27377 0.0
O1193 O 0.24143 0.41592 0.29866 0.0
O1194 O 0.29929 0.41542 0.31485 0.0
C1195 C 0.36429 0.50543 0.33483 0.0
N1196 N 0.39006 0.50179 0.32202 0.0
C1197 C 0.46542 0.57325 0.33106 0.0
C1198 C 0.43975 0.57755 0.3444 0.0
C1199 C 0.38897 0.54349 0.34629 0.0
C1200 C 0.43902 0.53416 0.32015 0.0
H1201 H 0.32516 0.47961 0.33625 0.0
C1202 C 0.254 0.40157 0.31136 0.0
O1203 O 0.22367 0.46525 0.27205 0.0
O1204 O 0.26661 0.51437 0.29236 0.0
N1205 N 0.43246 0.49151 0.29616 0.0
C1206 C 0.45092 0.48444 0.282 0.0
C1207 C 0.50072 0.51674 0.27792 0.0
C1208 C 0.53103 0.55589 0.28842 0.0
C1209 C 0.51125 0.56237 0.30294 0.0
C1210 C 0.46144 0.52879 0.30643 0.0
H1211 H 0.42773 0.4547 0.2738 0.0
O1212 O 0.33647 0.52278 0.26901 0.0
O1213 O 0.34775 0.49626 0.29248 0.0
O1214 O 0.29491 0.41691 0.26973 0.0
O1215 O 0.34534 0.406 0.28679 0.0
C1216 C 0.53872 0.60148 0.31389 0.0
C1217 C 0.51585 0.60692 0.32794 0.0
H1218 H 0.45852 0.60717 0.35317 0.0
H1219 H 0.36884 0.54675 0.3565 0.0
H1220 H 0.51562 0.51166 0.26665 0.0
H1221 H 0.5693 0.58103 0.28515 0.0
H1222 H 0.57733 0.62791 0.31153 0.0
H1223 H 0.53721 0.63756 0.33615 0.0
Mn1224 Mn 0.53852 0.81867 0.28084 0.0
Mn1225 Mn 0.5557 0.91445 0.304 0.0
C1226 C 0.48057 0.8443 0.28004 0.0
C1227 C 0.50691 0.73287 0.28088 0.0
C1228 C 0.61151 0.92621 0.27235 0.0
O1229 O 0.59207 0.82742 0.29643 0.0
O1230 O 0.59437 0.88478 0.31353 0.0
C1231 C 0.50615 0.86114 0.33426 0.0
N1232 N 0.50967 0.89122 0.32169 0.0
C1233 C 0.43946 0.89617 0.33148 0.0
C1234 C 0.43533 0.86555 0.3446 0.0
C1235 C 0.46883 0.84797 0.34599 0.0
C1236 C 0.47784 0.90863 0.32029 0.0
H1237 H 0.53147 0.84709 0.33529 0.0
C1238 C 0.60728 0.85304 0.30937 0.0
O1239 O 0.53983 0.76083 0.27012 0.0
O1240 O 0.4929 0.75484 0.29109 0.0
N1241 N 0.51941 0.94496 0.29617 0.0
C1242 C 0.52618 0.97112 0.28218 0.0
C1243 C 0.49438 0.98963 0.27859 0.0
C1244 C 0.45596 0.98102 0.2894 0.0
C1245 C 0.44977 0.95409 0.30374 0.0
C1246 C 0.48292 0.93699 0.30675 0.0
H1247 H 0.55532 0.97749 0.27373 0.0
O1248 O 0.48268 0.81707 0.26848 0.0
O1249 O 0.51216 0.85458 0.29183 0.0
O1250 O 0.58875 0.88047 0.26808 0.0
O1251 O 0.60321 0.94157 0.28578 0.0
C1252 C 0.41132 0.9426 0.31497 0.0
C1253 C 0.4062 0.91371 0.32884 0.0
H1254 H 0.40625 0.85485 0.35358 0.0
H1255 H 0.46567 0.82405 0.35603 0.0
H1256 H 0.49927 0.01018 0.26746 0.0
H1257 H 0.43119 0.99491 0.28651 0.0
H1258 H 0.38508 0.95525 0.31295 0.0
H1259 H 0.37609 0.90457 0.33727 0.0
Mn1260 Mn 0.18918 0.72382 0.28312 0.0
Mn1261 Mn 0.09366 0.64104 0.30564 0.0
C1262 C 0.16531 0.64075 0.28139 0.0
C1263 C 0.27485 0.77911 0.28307 0.0
C1264 C 0.08084 0.68615 0.27443 0.0
O1265 O 0.17925 0.76657 0.29938 0.0
O1266 O 0.12055 0.70855 0.31545 0.0
C1267 C 0.14703 0.64577 0.33598 0.0
N1268 N 0.11788 0.61904 0.32325 0.0
C1269 C 0.11525 0.54477 0.33287 0.0
C1270 C 0.14495 0.57144 0.34613 0.0
C1271 C 0.1609 0.62215 0.34769 0.0
C1272 C 0.102 0.57012 0.3217 0.0
H1273 H 0.15977 0.68486 0.33715 0.0
C1274 C 0.15183 0.75389 0.31196 0.0
O1275 O 0.24622 0.7843 0.27266 0.0
O1276 O 0.25354 0.74256 0.29312 0.0
N1277 N 0.06563 0.57473 0.29752 0.0
C1278 C 0.04037 0.55527 0.28339 0.0
C1279 C 0.02366 0.50541 0.27961 0.0
C1280 C 0.03307 0.47608 0.29038 0.0
C1281 C 0.05905 0.49687 0.30486 0.0
C1282 C 0.07443 0.54668 0.30805 0.0
H1283 H 0.03348 0.57773 0.27497 0.0
O1284 O 0.19214 0.67142 0.27005 0.0
O1285 O 0.15437 0.66037 0.29354 0.0
O1286 O 0.12681 0.71183 0.27057 0.0
O1287 O 0.06561 0.66059 0.28752 0.0
C1288 C 0.07133 0.47045 0.31606 0.0
C1289 C 0.09933 0.49436 0.33007 0.0
H1290 H 0.15619 0.55349 0.35509 0.0
H1291 H 0.18408 0.64305 0.35784 0.0
H1292 H 0.00392 0.48973 0.26836 0.0
H1293 H 0.02058 0.43777 0.28734 0.0
H1294 H 0.06 0.43191 0.31391 0.0
H1295 H 0.10909 0.47382 0.33847 0.0
C1296 C 0.32399 0.12403 0.16829 0.0
C1297 C 0.30202 0.13237 0.15463 0.0
C1298 C 0.354 0.16264 0.17895 0.0
C1299 C 0.3634 0.21146 0.17646 0.0
H1300 H 0.31834 0.08741 0.17078 0.0
H1301 H 0.37034 0.15396 0.18915 0.0
S1302 S 0.31308 0.25299 0.14285 0.0
N1303 N 0.29062 0.19334 0.13946 0.0
N1304 N 0.34703 0.26559 0.15945 0.0
C1305 C 0.3412 0.2203 0.16295 0.0
C1306 C 0.31059 0.18095 0.15207 0.0
C1307 C 0.84072 0.19337 0.17729 0.0
C1308 C 0.7915 0.15524 0.17449 0.0
C1309 C 0.8793 0.20181 0.16664 0.0
C1310 C 0.87058 0.1726 0.15265 0.0
H1311 H 0.84984 0.21742 0.18778 0.0
H1312 H 0.91626 0.23169 0.16943 0.0
S1313 S 0.74857 0.0671 0.13977 0.0
N1314 N 0.73641 0.08747 0.1567 0.0
N1315 N 0.80859 0.10299 0.1367 0.0
C1316 C 0.82152 0.13404 0.14971 0.0
C1317 C 0.78217 0.12546 0.16059 0.0
C1318 C 0.87837 0.66576 0.16454 0.0
C1319 C 0.84732 0.64228 0.17794 0.0
C1320 C 0.86916 0.69532 0.15387 0.0
C1321 C 0.82838 0.70274 0.15608 0.0
H1322 H 0.91016 0.66133 0.1622 0.0
H1323 H 0.89458 0.71263 0.14382 0.0
S1324 S 0.73487 0.64892 0.18913 0.0
N1325 N 0.77334 0.62814 0.19273 0.0
N1326 N 0.75637 0.68366 0.17268 0.0
C1327 C 0.79699 0.67958 0.16944 0.0
C1328 C 0.80633 0.64942 0.18034 0.0
C1329 C 0.12578 0.32785 0.33044 0.0
C1330 C 0.13386 0.30617 0.34424 0.0
C1331 C 0.16473 0.35827 0.31995 0.0
C1332 C 0.21367 0.36842 0.32273 0.0
H1333 H 0.08905 0.32148 0.32768 0.0
H1334 H 0.15615 0.37413 0.30959 0.0
S1335 S 0.25489 0.31991 0.35696 0.0
N1336 N 0.19493 0.29645 0.35999 0.0
N1337 N 0.26778 0.35361 0.34029 0.0
C1338 C 0.22236 0.34686 0.33645 0.0
C1339 C 0.18265 0.31582 0.34717 0.0
C1340 C 0.69065 0.8649 0.34498 0.0
C1341 C 0.70187 0.82685 0.34218 0.0
C1342 C 0.66051 0.87327 0.33432 0.0
C1343 C 0.64017 0.84408 0.32031 0.0
H1344 H 0.70536 0.88882 0.35552 0.0
H1345 H 0.65318 0.90298 0.33713 0.0
S1346 S 0.65749 0.73909 0.30735 0.0
N1347 N 0.68977 0.7594 0.32432 0.0
N1348 N 0.6332 0.77485 0.30428 0.0
C1349 C 0.65104 0.80578 0.31733 0.0
C1350 C 0.68178 0.79726 0.32823 0.0
C1351 C 0.20453 0.88198 0.33101 0.0
C1352 C 0.17471 0.87342 0.34483 0.0
C1353 C 0.19653 0.84326 0.32049 0.0
C1354 C 0.15825 0.79409 0.32327 0.0
H1355 H 0.23454 0.91892 0.32826 0.0
H1356 H 0.22101 0.85219 0.31012 0.0
S1357 S 0.0685 0.7516 0.35754 0.0
N1358 N 0.10434 0.81165 0.36058 0.0
N1359 N 0.08963 0.73924 0.34083 0.0
C1360 C 0.12788 0.78493 0.337 0.0
C1361 C 0.136 0.8244 0.34774 0.0
C1362 C 0.65802 0.78823 0.83513 0.0
C1363 C 0.63713 0.79701 0.82126 0.0
C1364 C 0.68823 0.82673 0.84578 0.0
C1365 C 0.69897 0.8759 0.8431 0.0
H1366 H 0.6512 0.75129 0.83782 0.0
H1367 H 0.7035 0.81761 0.85618 0.0
S1368 S 0.65263 0.91892 0.80874 0.0
N1369 N 0.62878 0.85898 0.80555 0.0
N1370 N 0.68556 0.93102 0.82556 0.0
C1371 C 0.67819 0.8853 0.82931 0.0
C1372 C 0.64734 0.84604 0.81843 0.0
C1373 C 0.12078 0.79665 0.82839 0.0
C1374 C 0.12824 0.82649 0.84213 0.0
C1375 C 0.16012 0.80552 0.81802 0.0
C1376 C 0.20882 0.84472 0.82087 0.0
H1377 H 0.08427 0.76591 0.82562 0.0
H1378 H 0.15207 0.78094 0.80772 0.0
S1379 S 0.24836 0.93517 0.85487 0.0
N1380 N 0.18846 0.89808 0.8578 0.0
N1381 N 0.26195 0.91433 0.83834 0.0
C1382 C 0.21684 0.87517 0.83449 0.0
C1383 C 0.17677 0.8662 0.84507 0.0
C1384 C 0.20559 0.32666 0.83111 0.0
C1385 C 0.17623 0.30593 0.84505 0.0
C1386 C 0.19715 0.35683 0.82049 0.0
C1387 C 0.15885 0.36767 0.82329 0.0
H1388 H 0.2354 0.31951 0.82827 0.0
H1389 H 0.22117 0.3718 0.80999 0.0
S1390 S 0.07076 0.32242 0.85802 0.0
N1391 N 0.10673 0.29837 0.86107 0.0
N1392 N 0.09112 0.35499 0.84111 0.0
C1393 C 0.12918 0.34732 0.83721 0.0
C1394 C 0.13778 0.31655 0.84806 0.0
C1395 C 0.84013 0.64617 0.67801 0.0
C1396 C 0.79169 0.63826 0.67599 0.0
C1397 C 0.87872 0.6767 0.66742 0.0
C1398 C 0.87068 0.70067 0.65428 0.0
H1399 H 0.84854 0.62831 0.68782 0.0
H1400 H 0.91505 0.68117 0.66953 0.0
S1401 S 0.75124 0.69419 0.64388 0.0
N1402 N 0.73831 0.65819 0.65999 0.0
N1403 N 0.81053 0.71563 0.64011 0.0
C1404 C 0.82249 0.69352 0.65216 0.0
C1405 C 0.78316 0.66236 0.66298 0.0
C1406 C 0.35751 0.19605 0.67833 0.0
C1407 C 0.36615 0.15612 0.67594 0.0
C1408 C 0.32791 0.20505 0.66763 0.0
C1409 C 0.30563 0.17462 0.65401 0.0
H1410 H 0.37406 0.22111 0.68852 0.0
H1411 H 0.32267 0.2363 0.67007 0.0
S1412 S 0.31517 0.06407 0.64239 0.0
N1413 N 0.34905 0.08523 0.65901 0.0
N1414 N 0.29347 0.10183 0.6389 0.0
C1415 C 0.31368 0.13426 0.65149 0.0
C1416 C 0.34385 0.12511 0.66243 0.0
C1417 C 0.81143 0.16245 0.6788 0.0
C1418 C 0.85198 0.21069 0.67634 0.0
C1419 C 0.80168 0.12335 0.66818 0.0
C1420 C 0.83194 0.13063 0.65458 0.0
H1421 H 0.78636 0.15462 0.68894 0.0
H1422 H 0.76984 0.08724 0.67062 0.0
S1423 S 0.94429 0.24925 0.64294 0.0
N1424 N 0.9235 0.26299 0.65945 0.0
N1425 N 0.90561 0.18992 0.63955 0.0
C1426 C 0.87313 0.17858 0.65208 0.0
C1427 C 0.88301 0.2184 0.66291 0.0
C1428 C 0.01087 0.55211 0.49685 0.0
C1429 C 0.03595 0.54459 0.50977 0.0
C1430 C 0.98072 0.51344 0.48621 0.0
C1431 C 0.97432 0.46548 0.48797 0.0
H1432 H 0.01415 0.58805 0.49498 0.0
H1433 H 0.96185 0.52131 0.4766 0.0
S1434 S 0.03387 0.42664 0.5193 0.0
N1435 N 0.05377 0.4855 0.52333 0.0
N1436 N 0.99705 0.41322 0.50339 0.0
C1437 C 0.9996 0.45752 0.50072 0.0
C1438 C 0.03038 0.49689 0.51157 0.0
C1439 C 0.46074 0.46947 0.49688 0.0
C1440 C 0.4689 0.49715 0.51121 0.0
C1441 C 0.49971 0.47907 0.48625 0.0
C1442 C 0.54882 0.51691 0.48942 0.0
H1443 H 0.42384 0.44013 0.49372 0.0
H1444 H 0.49092 0.45631 0.47544 0.0
S1445 S 0.59063 0.60049 0.52533 0.0
N1446 N 0.53046 0.56442 0.52804 0.0
N1447 N 0.60336 0.5822 0.50806 0.0
C1448 C 0.55769 0.54488 0.50373 0.0
C1449 C 0.51794 0.53508 0.5146 0.0
C1450 C 0.46641 0.01169 0.50116 0.0
C1451 C 0.49643 0.03301 0.48738 0.0
C1452 C 0.47468 0.9815 0.51182 0.0
C1453 C 0.51343 0.97119 0.50924 0.0
H1454 H 0.43615 0.01831 0.50381 0.0
H1455 H 0.4501 0.96599 0.52217 0.0
S1456 S 0.60347 0.01833 0.47506 0.0
N1457 N 0.56717 0.04189 0.47179 0.0
N1458 N 0.58242 0.98517 0.49183 0.0
C1459 C 0.54381 0.9922 0.4955 0.0
C1460 C 0.53541 0.02303 0.4846 0.0
C1461 C 0.45796 0.99032 0.99746 0.0
C1462 C 0.46596 0.96966 0.01154 0.0
C1463 C 0.497 0.02011 0.98691 0.0
C1464 C 0.54599 0.03066 0.98989 0.0
H1465 H 0.42122 0.98364 0.99453 0.0
H1466 H 0.48844 0.03521 0.97633 0.0
S1467 S 0.58706 0.98469 0.02487 0.0
N1468 N 0.52705 0.96126 0.02776 0.0
N1469 N 0.60003 0.01722 0.00793 0.0
C1470 C 0.55458 0.01001 0.00387 0.0
C1471 C 0.51478 0.9796 0.01466 0.0
C1472 C 0.98575 0.47532 0.9854 0.0
C1473 C 0.97686 0.51517 0.98757 0.0
C1474 C 0.01578 0.46709 0.99616 0.0
C1475 C 0.03825 0.49825 0.00962 0.0
H1476 H 0.96893 0.44963 0.97539 0.0
H1477 H 0.021 0.43572 0.99394 0.0
S1478 S 0.02904 0.60949 0.02045 0.0
N1479 N 0.9945 0.58716 0.004 0.0
N1480 N 0.05096 0.57203 0.02418 0.0
C1481 C 0.03029 0.53876 0.01184 0.0
C1482 C 0.99966 0.54711 0.00085 0.0
C1483 C 0.46563 0.45459 0.00221 0.0
C1484 C 0.49513 0.46238 0.98836 0.0
C1485 C 0.47523 0.49349 0.01287 0.0
C1486 C 0.51487 0.54208 0.01021 0.0
H1487 H 0.4347 0.41812 0.0049 0.0
H1488 H 0.45088 0.48516 0.02325 0.0
S1489 S 0.60431 0.58247 0.9759 0.0
N1490 N 0.56657 0.52282 0.97269 0.0
N1491 N 0.58429 0.59556 0.99272 0.0
C1492 C 0.54489 0.55048 0.99645 0.0
C1493 C 0.53513 0.51083 0.98555 0.0
C1494 C 0.33309 0.98857 0.09976 0.0
C1495 C 0.31024 0.0159 0.09489 0.0
C1496 C 0.35316 0.96996 0.08838 0.0
C1497 C 0.35146 0.97806 0.07165 0.0
H1498 H 0.33248 0.97831 0.11239 0.0
H1499 H 0.36636 0.94575 0.09269 0.0
S1500 S 0.30804 0.0581 0.0528 0.0
N1501 N 0.29585 0.05788 0.07236 0.0
N1502 N 0.33427 0.02359 0.05101 0.0
C1503 C 0.33438 0.01039 0.06678 0.0
C1504 C 0.31366 0.02918 0.07838 0.0
C1505 C 0.00651 0.32449 0.06466 0.0
C1506 C 0.02969 0.37462 0.06962 0.0
C1507 C 0.98587 0.28564 0.07596 0.0
C1508 C 0.98735 0.29521 0.09271 0.0
H1509 H 0.0072 0.31498 0.05202 0.0
H1510 H 0.97232 0.24822 0.07159 0.0
S1511 S 0.03185 0.4186 0.11177 0.0
N1512 N 0.04439 0.43079 0.09223 0.0
N1513 N 0.00497 0.35777 0.11345 0.0
C1514 C 0.00493 0.34463 0.09767 0.0
C1515 C 0.02619 0.38431 0.08614 0.0
C1516 C 0.68099 0.68019 0.06679 0.0
C1517 C 0.63064 0.65508 0.07152 0.0
C1518 C 0.71926 0.69875 0.0783 0.0
C1519 C 0.7088 0.69284 0.09503 0.0
H1520 H 0.6912 0.68875 0.0541 0.0
H1521 H 0.75701 0.7213 0.07403 0.0
S1522 S 0.58406 0.6189 0.11374 0.0
N1523 N 0.57298 0.61739 0.09404 0.0
N1524 N 0.64489 0.65156 0.11568 0.0
C1525 C 0.65896 0.66257 0.09986 0.0
C1526 C 0.61989 0.6438 0.08812 0.0
C1527 C 1.00085 0.32456 0.43189 0.0
C1528 C 0.97676 0.35073 0.42708 0.0
C1529 C 0.02007 0.30529 0.42044 0.0
C1530 C 0.01618 0.31149 0.40368 0.0
H1531 H 1.00203 0.31585 0.44459 0.0
H1532 H 0.03459 0.28222 0.42478 0.0
S1533 S 0.96804 0.38752 0.38478 0.0
N1534 N 0.95829 0.38927 0.40446 0.0
N1535 N 0.9951 0.35378 0.38294 0.0
C1536 C 0.99755 0.34252 0.39878 0.0
C1537 C 0.97776 0.36202 0.41046 0.0
C1538 C 0.68158 0.68345 0.43199 0.0
C1539 C 0.65673 0.63293 0.42743 0.0
C1540 C 0.70003 0.72138 0.42034 0.0
C1541 C 0.69422 0.71041 0.40364 0.0
H1542 H 0.69016 0.69406 0.44464 0.0
H1543 H 0.72245 0.75929 0.42448 0.0
S1544 S 0.62073 0.58499 0.38534 0.0
N1545 N 0.61927 0.57454 0.40508 0.0
N1546 N 0.65312 0.64578 0.3832 0.0
C1547 C 0.66407 0.66037 0.39898 0.0
C1548 C 0.64546 0.62165 0.41086 0.0
C1549 C 0.38677 0.03974 0.41083 0.0
C1550 C 0.3769 0.03176 0.42756 0.0
C1551 C 0.34814 0.02057 0.39943 0.0
C1552 C 0.29796 0.99277 0.40428 0.0
H1553 H 0.42417 0.06408 0.40653 0.0
H1554 H 0.35782 0.03063 0.38679 0.0
S1555 S 0.25355 0.95115 0.44641 0.0
N1556 N 0.31423 0.98623 0.44821 0.0
N1557 N 0.24164 0.95087 0.42682 0.0
C1558 C 0.2881 0.97986 0.42082 0.0
C1559 C 0.32754 0.99924 0.43244 0.0
C1560 C 0.70107 0.98178 0.9213 0.0
C1561 C 0.69463 0.98618 0.9046 0.0
C1562 C 0.68259 1.00133 0.93292 0.0
C1563 C 0.65706 0.02629 0.92834 0.0
H1564 H 0.72388 0.96675 0.92545 0.0
H1565 H 0.69154 0.99979 0.94557 0.0
S1566 S 0.61976 0.03645 0.88626 0.0
N1567 N 0.65261 0.00853 0.88415 0.0
N1568 N 0.61866 0.04599 0.90598 0.0
C1569 C 0.6454 0.02571 0.91178 0.0
C1570 C 0.66406 0.00556 0.89992 0.0
C1571 C 0.99965 0.67639 0.93029 0.0
C1572 C 0.97418 0.62586 0.92577 0.0
C1573 C 0.01863 0.71426 0.91863 0.0
C1574 C 0.01312 0.70326 0.90193 0.0
H1575 H 1.00215 0.68706 0.94296 0.0
H1576 H 0.03421 0.75216 0.9228 0.0
S1577 S 0.96106 0.57772 0.88367 0.0
N1578 N 0.95271 0.56738 0.90343 0.0
N1579 N 0.98916 0.63849 0.88149 0.0
C1580 C 0.9932 0.65318 0.89727 0.0
C1581 C 0.9736 0.61452 0.90918 0.0
C1582 C 0.38504 0.3469 0.91141 0.0
C1583 C 0.37453 0.34524 0.92808 0.0
C1584 C 0.34687 0.32717 0.89986 0.0
C1585 C 0.29651 0.30474 0.9045 0.0
H1586 H 0.4226 0.35995 0.90728 0.0
H1587 H 0.35706 0.32668 0.88729 0.0
S1588 S 0.25044 0.30252 0.94633 0.0
N1589 N 0.31106 0.32829 0.94841 0.0
N1590 N 0.23928 0.29054 0.92673 0.0
C1591 C 0.28599 0.30801 0.92095 0.0
C1592 C 0.32498 0.32836 0.93272 0.0
C1593 C 0.98288 0.70011 0.57763 0.0
C1594 C 0.98767 0.69463 0.59439 0.0
C1595 C 1.00273 0.6816 0.56614 0.0
C1596 C 0.02849 0.65701 0.57088 0.0
H1597 H 0.96711 0.72211 0.57332 0.0
H1598 H 1.00075 0.68981 0.55344 0.0
S1599 S 0.0401 0.62219 0.61317 0.0
N1600 N 0.01135 0.65431 0.61508 0.0
N1601 N 0.04945 0.62041 0.59347 0.0
C1602 C 0.02842 0.64628 0.58751 0.0
C1603 C 0.00791 0.66493 0.59925 0.0
C1604 C 0.3004 0.28525 0.5771 0.0
C1605 C 0.30854 0.29538 0.59381 0.0
C1606 C 0.31894 0.32372 0.56564 0.0
C1607 C 0.34629 0.37403 0.57041 0.0
H1608 H 0.2764 0.24771 0.57286 0.0
H1609 H 0.30883 0.31377 0.55302 0.0
S1610 S 0.38803 0.41935 0.61244 0.0
N1611 N 0.35369 0.35862 0.61435 0.0
N1612 N 0.38787 0.4309 0.59284 0.0
C1613 C 0.35931 0.38425 0.58692 0.0
C1614 C 0.34057 0.34496 0.5986 0.0
C1615 C 0.7187 0.02103 0.57717 0.0
C1616 C 0.70846 0.0187 0.5939 0.0
C1617 C 0.68031 1.0009 0.5657 0.0
C1618 C 0.63002 0.9774 0.57047 0.0
H1619 H 0.75626 0.03474 0.57293 0.0
H1620 H 0.69029 1.00076 0.55308 0.0
S1621 S 0.58432 0.97333 0.61248 0.0
N1622 N 0.64508 1.00023 0.61441 0.0
N1623 N 0.57293 0.96165 0.59288 0.0
C1624 C 0.61965 0.98025 0.58697 0.0
C1625 C 0.65886 1.00102 0.59866 0.0
C1626 C 0.65752 0.66705 0.73327 0.0
C1627 C 0.68184 0.64094 0.73789 0.0
C1628 C 0.63867 0.68629 0.74485 0.0
C1629 C 0.6435 0.68044 0.76158 0.0
H1630 H 0.6498 0.66976 0.72057 0.0
H1631 H 0.6169 0.70238 0.74061 0.0
S1632 S 0.71508 0.6267 0.78012 0.0
N1633 N 0.71754 0.6185 0.76037 0.0
N1634 N 0.68303 0.65548 0.78217 0.0
C1635 C 0.67301 0.6599 0.76635 0.0
C1636 C 0.69202 0.64004 0.75452 0.0
C1637 C 0.37126 0.05138 0.7536 0.0
C1638 C 0.36442 0.0409 0.73688 0.0
C1639 C 0.35197 0.01311 0.76513 0.0
C1640 C 0.32517 0.96275 0.76041 0.0
H1641 H 0.39487 0.08902 0.75781 0.0
H1642 H 0.36118 0.02322 0.77779 0.0
S1643 S 0.28662 0.91663 0.71826 0.0
N1644 N 0.32094 0.97735 0.71629 0.0
N1645 N 0.28533 0.90543 0.73795 0.0
C1646 C 0.31326 0.95221 0.74384 0.0
C1647 C 0.3328 0.99126 0.73209 0.0
C1648 C 0.01545 0.34717 0.7337 0.0
C1649 C 0.96487 0.32321 0.73812 0.0
C1650 C 0.05308 0.36568 0.74544 0.0
C1651 C 0.04171 0.36086 0.76211 0.0
H1652 H 0.02641 0.3549 0.72104 0.0
H1653 H 0.09113 0.38731 0.74135 0.0
S1654 S 0.91569 0.29002 0.78018 0.0
N1655 N 0.90579 0.28771 0.76038 0.0
N1656 N 0.97644 0.32168 0.78246 0.0
C1657 C 0.99148 0.33166 0.76669 0.0
C1658 C 0.95308 0.31297 0.75471 0.0
C1659 C 0.33987 0.35045 0.23349 0.0
C1660 C 0.36545 0.32552 0.23804 0.0
C1661 C 0.32052 0.369 0.24515 0.0
C1662 C 0.32581 0.36331 0.26185 0.0
H1663 H 0.33754 0.35875 0.22083 0.0
H1664 H 0.30485 0.39126 0.241 0.0
S1665 S 0.37832 0.29035 0.28014 0.0
N1666 N 0.38694 0.28856 0.26038 0.0
N1667 N 0.34991 0.32272 0.2823 0.0
C1668 C 0.34598 0.33341 0.26651 0.0
C1669 C 0.36588 0.31463 0.25462 0.0
C1670 C 0.63725 0.95387 0.24363 0.0
C1671 C 0.64337 0.9649 0.26033 0.0
C1672 C 0.65576 0.99172 0.23195 0.0
C1673 C 0.68105 0.04225 0.23647 0.0
H1674 H 0.61481 0.91595 0.2395 0.0
H1675 H 0.64711 0.98104 0.21931 0.0
S1676 S 0.71736 0.09047 0.27851 0.0
N1677 N 0.68476 0.02971 0.28071 0.0
N1678 N 0.71874 0.10076 0.25876 0.0
C1679 C 0.69232 0.05361 0.25303 0.0
C1680 C 0.67362 0.01498 0.26495 0.0
C1681 C 0.95348 0.6324 0.25532 0.0
C1682 C 0.96438 0.64236 0.2387 0.0
C1683 C 0.99136 0.65058 0.26698 0.0
C1684 C 0.04181 0.67935 0.26252 0.0
H1685 H 0.91589 0.60726 0.25929 0.0
H1686 H 0.98095 0.63905 0.27948 0.0
S1687 S 0.08871 0.72589 0.22096 0.0
N1688 N 0.02821 0.69061 0.21867 0.0
N1689 N 0.09942 0.72412 0.24055 0.0
C1690 C 0.05263 0.69417 0.24616 0.0
C1691 C 0.01395 0.67579 0.23427 0.0
C1692 C 0.08383 0.15322 0.12779 0.0
C1693 C 0.0778 0.17543 0.11382 0.0
C1694 C 0.11832 0.13709 0.1282 0.0
C1695 C 0.14708 0.14094 0.11444 0.0
H1696 H 0.05879 0.14424 0.13801 0.0
H1697 H 0.11958 0.11796 0.13904 0.0
S1698 S 0.15003 0.20284 0.0756 0.0
N1699 N 0.10725 0.20607 0.08656 0.0
N1700 N 0.17172 0.17446 0.08713 0.0
C1701 C 0.14452 0.16692 0.10085 0.0
C1702 C 0.10957 0.18402 0.10053 0.0
C1703 C 0.86719 0.98443 0.12767 0.0
C1704 C 0.86354 0.00816 0.11357 0.0
C1705 C 0.85159 0.93393 0.12774 0.0
C1706 C 0.82996 0.90459 0.11393 0.0
H1707 H 0.88576 0.00567 0.13845 0.0
H1708 H 0.86036 0.91879 0.13826 0.0
S1709 S 0.80354 0.94616 0.07486 0.0
N1710 N 0.83112 0.99708 0.08603 0.0
N1711 N 0.8003 0.90113 0.08637 0.0
C1712 C 0.82169 0.9266 0.10024 0.0
C1713 C 0.83833 0.97857 0.10006 0.0
C1714 C 0.02004 0.88484 0.12939 0.0
C1715 C 0.99571 0.8558 0.11563 0.0
C1716 C 0.0705 0.91979 0.12907 0.0
C1717 C 0.09917 0.92595 0.11519 0.0
H1718 H 0.99925 0.88345 0.14015 0.0
H1719 H 0.0861 0.94496 0.13927 0.0
S1720 S 0.05595 0.85336 0.07701 0.0
N1721 N 0.00558 0.83124 0.08841 0.0
N1722 N 0.10144 0.89656 0.08802 0.0
C1723 C 0.07661 0.89402 0.10191 0.0
C1724 C 0.0247 0.8586 0.10213 0.0
C1725 C 0.13725 0.12085 0.36957 0.0
C1726 C 0.14117 0.14926 0.38344 0.0
C1727 C 0.15338 0.08637 0.36981 0.0
C1728 C 0.17577 0.08013 0.38369 0.0
H1729 H 0.11802 0.12232 0.35879 0.0
H1730 H 0.14426 0.0615 0.35953 0.0
S1731 S 0.20339 0.15143 0.42211 0.0
N1732 N 0.17486 0.17332 0.41074 0.0
N1733 N 0.20663 0.10896 0.41097 0.0
C1734 C 0.18446 0.11158 0.39707 0.0
C1735 C 0.16728 0.14646 0.39695 0.0
C1736 C 0.92047 0.07214 0.36875 0.0
C1737 C 0.92612 0.10076 0.3826 0.0
C1738 C 0.88583 0.02152 0.36841 0.0
C1739 C 0.85644 0.99705 0.38211 0.0
H1740 H 0.94584 0.08792 0.3586 0.0
H1741 H 0.88488 1.00076 0.3577 0.0
S1742 S 0.85254 0.05714 0.42059 0.0
N1743 N 0.89588 0.10277 0.40965 0.0
N1744 N 0.83099 0.00679 0.4092 0.0
C1745 C 0.8587 0.02601 0.39555 0.0
C1746 C 0.89388 0.07801 0.39581 0.0
C1747 C 0.98528 0.86837 0.37014 0.0
C1748 C 0.00945 0.86533 0.38423 0.0
C1749 C 0.93478 0.8527 0.3702 0.0
C1750 C 0.90583 0.83158 0.38412 0.0
H1751 H 0.00621 0.88656 0.35927 0.0
H1752 H 0.91932 0.86102 0.35967 0.0
S1753 S 0.94857 0.80673 0.42323 0.0
N1754 N 0.99917 0.83397 0.4119 0.0
N1755 N 0.90319 0.80298 0.41179 0.0
C1756 C 0.92826 0.82389 0.39781 0.0
C1757 C 0.98024 0.84061 0.39786 0.0
C1758 C 0.87949 0.86076 0.86784 0.0
C1759 C 0.85169 0.85695 0.88186 0.0
C1760 C 0.91333 0.84373 0.86775 0.0
C1761 C 0.91973 0.82089 0.88149 0.0
H1762 H 0.87812 0.88062 0.85721 0.0
H1763 H 0.93782 0.85277 0.85738 0.0
S1764 S 0.84961 0.79319 0.92018 0.0
N1765 N 0.82803 0.82256 0.9091 0.0
N1766 N 0.89135 0.78952 0.90876 0.0
C1767 C 0.88867 0.81221 0.89499 0.0
C1768 C 0.85434 0.83009 0.89517 0.0
C1769 C 0.16218 0.01898 0.89322 0.0
C1770 C 0.1328 0.99007 0.88015 0.0
C1771 C 0.18032 0.07044 0.89366 0.0
C1772 C 0.17011 0.09446 0.88098 0.0
H1773 H 0.16816 1.00141 0.90366 0.0
H1774 H 0.1996 0.09101 0.90446 0.0
S1775 S 0.09763 0.03603 0.84362 0.0
N1776 N 0.09881 0.99051 0.85345 0.0
N1777 N 0.1295 0.08561 0.85503 0.0
C1778 C 0.14348 0.06644 0.86746 0.0
C1779 C 0.12588 0.01463 0.86683 0.0
C1780 C 0.98424 0.11662 0.86993 0.0
C1781 C 0.00881 0.14466 0.88384 0.0
C1782 C 0.93387 0.08138 0.87026 0.0
C1783 C 0.90544 0.07397 0.88428 0.0
H1784 H 0.00474 0.11911 0.85897 0.0
H1785 H 0.91809 0.05717 0.85983 0.0
S1786 S 0.94929 0.14325 0.92306 0.0
N1787 N 0.99941 0.16661 0.91149 0.0
N1788 N 0.90367 0.10082 0.91188 0.0
C1789 C 0.92824 0.10465 0.89782 0.0
C1790 C 0.98009 0.14034 0.89759 0.0
C1791 C 0.84596 0.91618 0.62847 0.0
C1792 C 0.82412 0.92291 0.61452 0.0
C1793 C 0.86266 0.88211 0.62863 0.0
C1794 C 0.85969 0.85446 0.61466 0.0
H1795 H 0.85448 0.94058 0.63884 0.0
H1796 H 0.88166 0.88045 0.63945 0.0
S1797 S 0.79854 0.85314 0.57584 0.0
N1798 N 0.7944 0.89491 0.58709 0.0
N1799 N 0.82703 0.83123 0.58721 0.0
C1800 C 0.83382 0.85745 0.60111 0.0
C1801 C 0.81616 0.89197 0.60104 0.0
C1802 C 0.11764 0.98432 0.62906 0.0
C1803 C 0.14652 0.00865 0.61525 0.0
C1804 C 0.08268 0.93381 0.62878 0.0
C1805 C 0.07628 0.90508 0.61491 0.0
H1806 H 0.11922 0.0051 0.63984 0.0
H1807 H 0.0577 0.91822 0.63904 0.0
S1808 S 0.14844 0.94815 0.57662 0.0
N1809 N 0.1707 0.99859 0.588 0.0
N1810 N 0.10534 0.90273 0.58769 0.0
C1811 C 0.10801 0.92763 0.60157 0.0
C1812 C 0.14345 0.97957 0.60175 0.0
C1813 C 0.07496 0.18267 0.6037 0.0
C1814 C 0.09805 0.17266 0.61673 0.0
C1815 C 0.02359 0.16498 0.60377 0.0
C1816 C 0.99385 0.13633 0.61682 0.0
H1817 H 0.09614 0.20118 0.59291 0.0
H1818 H 0.00671 0.17053 0.59305 0.0
S1819 S 0.03721 0.10265 0.65427 0.0
N1820 N 0.08743 0.13341 0.64305 0.0
N1821 N 0.9925 0.10381 0.64392 0.0
C1822 C 0.01751 0.12998 0.6305 0.0
C1823 C 0.06923 0.14704 0.63026 0.0
C1824 C 0.75747 0.49398 0.46212 0.0
C1825 C 0.75004 0.515 0.44809 0.0
C1826 C 0.7921 0.47803 0.46233 0.0
C1827 C 0.81955 0.48086 0.44834 0.0
H1828 H 0.73345 0.48582 0.47258 0.0
H1829 H 0.79443 0.45974 0.47324 0.0
S1830 S 0.81841 0.53927 0.40917 0.0
N1831 N 0.77665 0.54332 0.42045 0.0
N1832 N 0.84138 0.51201 0.42066 0.0
C1833 C 0.81557 0.50563 0.43463 0.0
C1834 C 0.78046 0.52254 0.43451 0.0
C1835 C 0.4903 0.26661 0.43814 0.0
C1836 C 0.50084 0.24306 0.45089 0.0
C1837 C 0.50792 0.31799 0.43848 0.0
C1838 C 0.53714 0.34735 0.45151 0.0
H1839 H 0.47121 0.24577 0.42736 0.0
H1840 H 0.50175 0.33519 0.42797 0.0
S1841 S 0.57285 0.30271 0.48823 0.0
N1842 N 0.54138 0.25281 0.47691 0.0
N1843 N 0.57131 0.34782 0.47825 0.0
C1844 C 0.54438 0.32325 0.4649 0.0
C1845 C 0.52722 0.27148 0.46439 0.0
C1846 C 0.73861 0.25829 0.46185 0.0
C1847 C 0.76702 0.26492 0.44788 0.0
C1848 C 0.68821 0.22313 0.46226 0.0
C1849 C 0.66362 0.19432 0.44847 0.0
H1850 H 0.75446 0.28303 0.47215 0.0
H1851 H 0.66771 0.22125 0.47315 0.0
S1852 S 0.72311 0.19354 0.40948 0.0
N1853 N 0.76874 0.23657 0.4205 0.0
N1854 N 0.67301 0.17083 0.42104 0.0
C1855 C 0.69234 0.19787 0.4348 0.0
C1856 C 0.74419 0.23352 0.4345 0.0
C1857 C 0.83479 0.47934 0.72662 0.0
C1858 C 0.80655 0.48008 0.71338 0.0
C1859 C 0.85283 0.44592 0.72696 0.0
C1860 C 0.84374 0.41283 0.714 0.0
H1861 H 0.83977 0.50185 0.73727 0.0
H1862 H 0.87104 0.44357 0.73787 0.0
S1863 S 0.77487 0.40254 0.67607 0.0
N1864 N 0.77493 0.44815 0.68626 0.0
N1865 N 0.80577 0.38378 0.68753 0.0
C1866 C 0.81846 0.41562 0.7003 0.0
C1867 C 0.80082 0.44984 0.69981 0.0
C1868 C 0.55031 0.35233 0.70173 0.0
C1869 C 0.52225 0.32725 0.71558 0.0
C1870 C 0.58507 0.40286 0.70218 0.0
C1871 C 0.5921 0.43081 0.71631 0.0
H1872 H 0.54824 0.3321 0.69075 0.0
H1873 H 0.60938 0.41913 0.6918 0.0
S1874 S 0.52247 0.38542 0.75496 0.0
N1875 N 0.49966 0.33564 0.74325 0.0
N1876 N 0.56474 0.43156 0.74391 0.0
C1877 C 0.56128 0.40746 0.72977 0.0
C1878 C 0.52599 0.35552 0.72939 0.0
C1879 C 0.65125 0.17457 0.7264 0.0
C1880 C 0.68038 0.20327 0.71324 0.0
C1881 C 0.60004 0.15764 0.72694 0.0
C1882 C 0.57647 0.1683 0.71425 0.0
H1883 H 0.66853 0.16807 0.73682 0.0
H1884 H 0.57933 0.13859 0.73774 0.0
S1885 S 0.63553 0.24013 0.67682 0.0
N1886 N 0.68056 0.23792 0.68659 0.0
N1887 N 0.58589 0.20902 0.68828 0.0
C1888 C 0.60466 0.19459 0.7007 0.0
C1889 C 0.65622 0.2111 0.7 0.0
C1890 C 0.58527 0.18481 0.2012 0.0
C1891 C 0.59242 0.16345 0.2152 0.0
C1892 C 0.55042 0.2005 0.20095 0.0
C1893 C 0.52239 0.19696 0.21487 0.0
H1894 H 0.60949 0.19317 0.19078 0.0
H1895 H 0.54824 0.21898 0.19007 0.0
S1896 S 0.523 0.13779 0.25395 0.0
N1897 N 0.56528 0.13444 0.24274 0.0
N1898 N 0.50001 0.16503 0.24245 0.0
C1899 C 0.52629 0.17202 0.22854 0.0
C1900 C 0.56168 0.15549 0.22872 0.0
C1901 C 0.83601 0.35655 0.22559 0.0
C1902 C 0.80722 0.32808 0.21235 0.0
C1903 C 0.85405 0.40798 0.22622 0.0
C1904 C 0.84438 0.43246 0.21357 0.0
H1905 H 0.84137 0.33859 0.23605 0.0
H1906 H 0.87261 0.42807 0.23717 0.0
S1907 S 0.77411 0.37543 0.17572 0.0
N1908 N 0.77463 0.32948 0.1855 0.0
N1909 N 0.80541 0.42461 0.18736 0.0
C1910 C 0.81865 0.40497 0.19984 0.0
C1911 C 0.80104 0.35314 0.19904 0.0
C1912 C 0.65044 0.47695 0.22741 0.0
C1913 C 0.67979 0.47869 0.21413 0.0
C1914 C 0.59911 0.44304 0.22764 0.0
C1915 C 0.57561 0.41039 0.21454 0.0
H1916 H 0.66761 0.49924 0.23813 0.0
H1917 H 0.57826 0.4401 0.23855 0.0
S1918 S 0.63522 0.40224 0.17654 0.0
N1919 N 0.68027 0.44788 0.18687 0.0
N1920 N 0.58536 0.38248 0.18798 0.0
C1921 C 0.60401 0.41395 0.20086 0.0
C1922 C 0.65572 0.44873 0.20046 0.0
C1923 C 0.50334 0.18778 0.93935 0.0
C1924 C 0.53257 0.1879 0.95241 0.0
C1925 C 0.48512 0.22105 0.93902 0.0
C1926 C 0.49512 0.25492 0.95181 0.0
H1927 H 0.49771 0.16471 0.92879 0.0
H1928 H 0.46619 0.22277 0.9282 0.0
S1929 S 0.56671 0.26756 0.98927 0.0
N1930 N 0.56591 0.22132 0.97925 0.0
N1931 N 0.535 0.2856 0.97793 0.0
C1932 C 0.52135 0.25295 0.96536 0.0
C1933 C 0.53907 0.2188 0.96586 0.0
C1934 C 0.78926 0.31613 0.96343 0.0
C1935 C 0.81748 0.34035 0.94951 0.0
C1936 C 0.75433 0.26559 0.96325 0.0
C1937 C 0.74723 0.23678 0.94934 0.0
H1938 H 0.79136 0.33703 0.97424 0.0
H1939 H 0.72996 0.24998 0.97365 0.0
S1940 S 0.81719 0.2797 0.91065 0.0
N1941 N 0.84014 0.33016 0.92204 0.0
N1942 N 0.7747 0.23432 0.92189 0.0
C1943 C 0.77818 0.25928 0.93583 0.0
C1944 C 0.81367 0.31119 0.93593 0.0
C1945 C 0.74017 0.50935 0.9368 0.0
C1946 C 0.76417 0.50008 0.9497 0.0
C1947 C 0.68893 0.49228 0.93736 0.0
C1948 C 0.66021 0.46486 0.95077 0.0
H1949 H 0.76054 0.52725 0.92582 0.0
H1950 H 0.67129 0.49755 0.92679 0.0
S1951 S 0.70629 0.43234 0.98786 0.0
N1952 N 0.75558 0.46224 0.97617 0.0
N1953 N 0.66091 0.43334 0.97789 0.0
C1954 C 0.68483 0.45868 0.96422 0.0
C1955 C 0.73641 0.47526 0.96349 0.0
C1956 C 0.41843 0.81816 0.79526 0.0
C1957 C 0.41175 0.84001 0.78131 0.0
C1958 C 0.45289 0.802 0.79549 0.0
C1959 C 0.48094 0.80542 0.78158 0.0
H1960 H 0.39399 0.80963 0.80562 0.0
H1961 H 0.45472 0.78321 0.80634 0.0
S1962 S 0.48177 0.86593 0.74266 0.0
N1963 N 0.43964 0.86961 0.75385 0.0
N1964 N 0.50405 0.83792 0.7541 0.0
C1965 C 0.47763 0.83091 0.76797 0.0
C1966 C 0.44271 0.84803 0.76783 0.0
C1967 C 0.20078 0.65125 0.79567 0.0
C1968 C 0.19717 0.67539 0.78167 0.0
C1969 C 0.18544 0.60084 0.79553 0.0
C1970 C 0.16404 0.57196 0.78162 0.0
H1971 H 0.21915 0.67215 0.80652 0.0
H1972 H 0.1941 0.58538 0.80599 0.0
S1973 S 0.13812 0.61469 0.7427 0.0
N1974 N 0.16531 0.66521 0.75407 0.0
N1975 N 0.13486 0.56933 0.75404 0.0
C1976 C 0.15592 0.59435 0.76801 0.0
C1977 C 0.17233 0.64625 0.76804 0.0
C1978 C 0.40401 0.58526 0.79629 0.0
C1979 C 0.43238 0.59072 0.7824 0.0
C1980 C 0.35339 0.55078 0.79672 0.0
C1981 C 0.32863 0.52143 0.78305 0.0
H1982 H 0.42001 0.61065 0.80643 0.0
H1983 H 0.33288 0.54996 0.80748 0.0
S1984 S 0.38792 0.51712 0.74444 0.0
N1985 N 0.43383 0.56033 0.75532 0.0
N1986 N 0.33777 0.49582 0.75592 0.0
C1987 C 0.3573 0.52352 0.76954 0.0
C1988 C 0.40933 0.5585 0.76921 0.0
C1989 C 0.49756 0.8083 0.06223 0.0
C1990 C 0.46941 0.80979 0.04909 0.0
C1991 C 0.51511 0.77447 0.06232 0.0
C1992 C 0.50553 0.7417 0.04922 0.0
H1993 H 0.50299 0.83067 0.07295 0.0
H1994 H 0.53349 0.77169 0.07313 0.0
S1995 S 0.43617 0.73294 0.01157 0.0
N1996 N 0.4372 0.77874 0.02194 0.0
N1997 N 0.46672 0.71334 0.02283 0.0
C1998 C 0.48007 0.74501 0.03568 0.0
C1999 C 0.4631 0.77974 0.03541 0.0
C2000 C 0.21787 0.68785 0.03606 0.0
C2001 C 0.18964 0.66267 0.04988 0.0
C2002 C 0.25148 0.73873 0.0364 0.0
C2003 C 0.2572 0.76687 0.05039 0.0
H2004 H 0.21698 0.66753 0.02524 0.0
H2005 H 0.27634 0.75506 0.02616 0.0
S2006 S 0.18563 0.7212 0.08869 0.0
N2007 N 0.16476 0.67112 0.0772 0.0
N2008 N 0.22765 0.76759 0.07766 0.0
C2009 C 0.22569 0.74334 0.0637 0.0
C2010 C 0.19161 0.69108 0.06344 0.0
C2011 C 0.32033 0.53452 0.03548 0.0
C2012 C 0.34447 0.52956 0.04925 0.0
C2013 C 0.26998 0.51949 0.0358 0.0
C2014 C 0.2412 0.49718 0.04966 0.0
H2015 H 0.34118 0.55369 0.0247 0.0
H2016 H 0.25454 0.52913 0.02557 0.0
S2017 S 0.28384 0.46749 0.08791 0.0
N2018 N 0.33425 0.49528 0.0765 0.0
N2019 N 0.23858 0.46561 0.07687 0.0
C2020 C 0.26355 0.4877 0.06299 0.0
C2021 C 0.31535 0.50372 0.06277 0.0
C2022 C 0.19368 0.50663 0.55991 0.0
C2023 C 0.19344 0.53599 0.54694 0.0
C2024 C 0.22698 0.48845 0.56003 0.0
C2025 C 0.26061 0.49866 0.54714 0.0
H2026 H 0.17081 0.50081 0.57053 0.0
H2027 H 0.22893 0.46937 0.57078 0.0
S2028 S 0.2721 0.57045 0.50983 0.0
N2029 N 0.22608 0.56948 0.52004 0.0
N2030 N 0.2906 0.53882 0.52102 0.0
C2031 C 0.25828 0.52501 0.53368 0.0
C2032 C 0.22402 0.54262 0.53338 0.0
C2033 C 0.46845 0.68665 0.53639 0.0
C2034 C 0.47217 0.66201 0.55024 0.0
C2035 C 0.48385 0.73708 0.53674 0.0
C2036 C 0.50542 0.76552 0.55072 0.0
H2037 H 0.45014 0.6662 0.52546 0.0
H2038 H 0.47531 0.75294 0.52637 0.0
S2039 S 0.53153 0.72147 0.58932 0.0
N2040 N 0.50421 0.67131 0.57779 0.0
N2041 N 0.53469 0.7672 0.57822 0.0
C2042 C 0.51345 0.74263 0.5642 0.0
C2043 C 0.497 0.6907 0.56395 0.0
C2044 C 0.31822 0.79133 0.53528 0.0
C2045 C 0.34289 0.81918 0.54921 0.0
C2046 C 0.26754 0.75697 0.53552 0.0
C2047 C 0.23911 0.75012 0.54952 0.0
H2048 H 0.33887 0.79311 0.52444 0.0
H2049 H 0.25161 0.73255 0.52515 0.0
S2050 S 0.28338 0.81989 0.58819 0.0
N2051 N 0.33362 0.84221 0.57671 0.0
N2052 N 0.2375 0.77789 0.577 0.0
C2053 C 0.26208 0.78108 0.56298 0.0
C2054 C 0.31413 0.81595 0.56282 0.0
C2055 C 0.20351 0.55214 0.29695 0.0
C2056 C 0.19952 0.52394 0.28303 0.0
C2057 C 0.188 0.58711 0.29676 0.0
C2058 C 0.1662 0.5941 0.28287 0.0
H2059 H 0.22225 0.55001 0.30777 0.0
H2060 H 0.19682 0.61152 0.30715 0.0
S2061 S 0.13935 0.52424 0.24416 0.0
N2062 N 0.16688 0.50132 0.25555 0.0
N2063 N 0.13633 0.56665 0.25541 0.0
C2064 C 0.15778 0.56317 0.26935 0.0
C2065 C 0.17425 0.52773 0.26944 0.0
C2066 C 0.45522 0.65386 0.29553 0.0
C2067 C 0.48269 0.67807 0.28148 0.0
C2068 C 0.42096 0.60317 0.29551 0.0
C2069 C 0.41393 0.57418 0.28165 0.0
H2070 H 0.45734 0.67481 0.30633 0.0
H2071 H 0.39694 0.58756 0.30599 0.0
S2072 S 0.48243 0.61716 0.24271 0.0
N2073 N 0.50489 0.66786 0.25396 0.0
N2074 N 0.44087 0.57163 0.25413 0.0
C2075 C 0.44431 0.59674 0.26803 0.0
C2076 C 0.47903 0.64885 0.26795 0.0
C2077 C 0.4056 0.82157 0.29625 0.0
C2078 C 0.43344 0.84391 0.28222 0.0
C2079 C 0.355 0.80552 0.29687 0.0
C2080 C 0.32972 0.8096 0.28326 0.0
H2081 H 0.42197 0.81255 0.30636 0.0
H2082 H 0.33491 0.78627 0.30774 0.0
S2083 S 0.38753 0.87159 0.2443 0.0
N2084 N 0.43384 0.87466 0.25504 0.0
N2085 N 0.33784 0.84325 0.25601 0.0
C2086 C 0.35788 0.8356 0.2696 0.0
C2087 C 0.40988 0.85258 0.26907 0.0
loop_
_geom_bond_atom_site_label_1
_geom_bond_atom_site_label_2
_geom_bond_distance
_geom_bond_site_symmetry_2
_ccdc_geom_bond_type
Mn0 O5 2.095 . S
Mn0 O15 2.162 . S
Mn0 O16 2.297 . S
Mn0 O24 2.385 . S
Mn0 O25 2.209 . S
Mn0 O26 2.094 . S
Mn1 O6 2.121 1_565 S
Mn1 N8 2.257 . S
Mn1 N17 2.282 . S
Mn1 O25 2.215 1_565 S
Mn1 O27 2.117 1_565 S
C2 O24 1.234 1_565 S
C2 O25 1.283 1_565 S
C3 O15 1.281 . S
C3 O16 1.236 . S
C4 O26 1.240 . S
C4 O27 1.264 . S
O5 Mn0 2.095 . S
O5 C14 1.250 . S
O6 Mn1 2.121 1_545 S
O6 C14 1.258 . S
C7 N8 1.326 . S
C7 C11 1.460 . S
C7 H13 0.929 1_565 S
N8 Mn1 2.257 . S
N8 C7 1.326 . S
N8 C12 1.362 . S
C9 C10 1.258 . S
C9 C12 1.431 . S
C9 C29 1.449 . S
C10 C9 1.258 . S
C10 C11 1.477 . S
C10 H30 0.931 . S
C11 C7 1.460 . S
C11 C10 1.477 . S
C11 H31 0.930 . S
C12 N8 1.362 . S
C12 C9 1.431 . S
C12 C22 1.476 . S
H13 C7 0.929 1_545 S
C14 O5 1.250 . S
C14 O6 1.258 . S
O15 Mn0 2.162 . S
O15 C3 1.281 . S
O16 Mn0 2.297 . S
O16 C3 1.236 . S
N17 Mn1 2.282 . S
N17 C18 1.328 . S
N17 C22 1.318 . S
C18 N17 1.328 . S
C18 C19 1.457 . S
C18 H23 0.929 . S
C19 C18 1.457 . S
C19 C20 1.291 . S
C19 H32 0.931 . S
C20 C19 1.291 . S
C20 C21 1.373 . S
C20 H33 0.929 . S
C21 C20 1.373 . S
C21 C22 1.396 . S
C21 C28 1.403 . S
C22 C12 1.476 . S
C22 N17 1.318 . S
C22 C21 1.396 . S
H23 C18 0.929 . S
O24 Mn0 2.385 . S
O24 C2 1.234 1_545 S
O25 Mn0 2.209 . S
O25 Mn1 2.215 1_545 S
O25 C2 1.283 1_545 S
O26 Mn0 2.094 . S
O26 C4 1.240 . S
O27 Mn1 2.117 1_545 S
O27 C4 1.264 . S
C28 C21 1.403 . S
C28 C29 1.399 . S
C28 H34 0.929 . S
C29 C9 1.449 . S
C29 C28 1.399 . S
C29 H35 0.930 . S
H30 C10 0.931 . S
H31 C11 0.930 . S
H32 C19 0.931 . S
H33 C20 0.929 . S
H34 C28 0.929 . S
H35 C29 0.930 . S
Mn36 O41 2.095 . S
Mn36 O51 2.162 . S
Mn36 O52 2.297 . S
Mn36 O60 2.385 . S
Mn36 O61 2.209 . S
Mn36 O62 2.094 . S
Mn37 O42 2.121 1_455 S
Mn37 N44 2.257 . S
Mn37 N53 2.282 . S
Mn37 O61 2.215 1_455 S
Mn37 O63 2.117 1_455 S
C38 O60 1.234 1_455 S
C38 O61 1.283 1_455 S
C39 O51 1.281 . S
C39 O52 1.236 . S
C40 O62 1.240 . S
C40 O63 1.264 . S
O41 Mn36 2.095 . S
O41 C50 1.250 . S
O42 Mn37 2.121 1_655 S
O42 C50 1.258 . S
C43 N44 1.326 . S
C43 C47 1.460 . S
C43 H49 0.929 1_455 S
N44 Mn37 2.257 . S
N44 C43 1.326 . S
N44 C48 1.362 . S
C45 C46 1.258 . S
C45 C48 1.431 . S
C45 C65 1.449 . S
C46 C45 1.258 . S
C46 C47 1.477 . S
C46 H66 0.931 . S
C47 C43 1.460 . S
C47 C46 1.477 . S
C47 H67 0.930 . S
C48 N44 1.362 . S
C48 C45 1.431 . S
C48 C58 1.476 . S
H49 C43 0.929 1_655 S
C50 O41 1.250 . S
C50 O42 1.258 . S
O51 Mn36 2.162 . S
O51 C39 1.281 . S
O52 Mn36 2.297 . S
O52 C39 1.236 . S
N53 Mn37 2.282 . S
N53 C54 1.328 . S
N53 C58 1.318 . S
C54 N53 1.328 . S
C54 C55 1.457 . S
C54 H59 0.929 . S
C55 C54 1.457 . S
C55 C56 1.291 . S
C55 H68 0.931 . S
C56 C55 1.291 . S
C56 C57 1.373 . S
C56 H69 0.929 . S
C57 C56 1.373 . S
C57 C58 1.396 . S
C57 C64 1.403 . S
C58 C48 1.476 . S
C58 N53 1.318 . S
C58 C57 1.396 . S
H59 C54 0.929 . S
O60 Mn36 2.385 . S
O60 C38 1.234 1_655 S
O61 Mn36 2.209 . S
O61 Mn37 2.215 1_655 S
O61 C38 1.283 1_655 S
O62 Mn36 2.094 . S
O62 C40 1.240 . S
O63 Mn37 2.117 1_655 S
O63 C40 1.264 . S
C64 C57 1.403 . S
C64 C65 1.399 . S
C64 H70 0.929 . S
C65 C45 1.449 . S
C65 C64 1.399 . S
C65 H71 0.930 . S
H66 C46 0.931 . S
H67 C47 0.930 . S
H68 C55 0.931 . S
H69 C56 0.929 . S
H70 C64 0.929 . S
H71 C65 0.930 . S
Mn72 O77 2.095 . S
Mn72 O87 2.162 . S
Mn72 O88 2.297 . S
Mn72 O96 2.385 . S
Mn72 O97 2.209 . S
Mn72 O98 2.094 . S
Mn73 O78 2.121 . S
Mn73 N80 2.257 . S
Mn73 N89 2.282 . S
Mn73 O97 2.215 . S
Mn73 O99 2.117 . S
C74 O96 1.234 . S
C74 O97 1.283 . S
C75 O87 1.281 . S
C75 O88 1.236 . S
C76 O98 1.240 . S
C76 O99 1.264 . S
O77 Mn72 2.095 . S
O77 C86 1.250 . S
O78 Mn73 2.121 . S
O78 C86 1.258 . S
C79 N80 1.326 . S
C79 C83 1.460 . S
C79 H85 0.929 . S
N80 Mn73 2.257 . S
N80 C79 1.326 . S
N80 C84 1.362 . S
C81 C82 1.258 . S
C81 C84 1.431 . S
C81 C101 1.449 . S
C82 C81 1.258 . S
C82 C83 1.477 . S
C82 H102 0.931 . S
C83 C79 1.460 . S
C83 C82 1.477 . S
C83 H103 0.930 . S
C84 N80 1.362 . S
C84 C81 1.431 . S
C84 C94 1.476 . S
H85 C79 0.929 . S
C86 O77 1.250 . S
C86 O78 1.258 . S
O87 Mn72 2.162 . S
O87 C75 1.281 . S
O88 Mn72 2.297 . S
O88 C75 1.236 . S
N89 Mn73 2.282 . S
N89 C90 1.328 . S
N89 C94 1.318 . S
C90 N89 1.328 . S
C90 C91 1.457 . S
C90 H95 0.929 . S
C91 C90 1.457 . S
C91 C92 1.291 . S
C91 H104 0.931 . S
C92 C91 1.291 . S
C92 C93 1.373 . S
C92 H105 0.929 . S
C93 C92 1.373 . S
C93 C94 1.396 . S
C93 C100 1.403 . S
C94 C84 1.476 . S
C94 N89 1.318 . S
C94 C93 1.396 . S
H95 C90 0.929 . S
O96 Mn72 2.385 . S
O96 C74 1.234 . S
O97 Mn72 2.209 . S
O97 Mn73 2.215 . S
O97 C74 1.283 . S
O98 Mn72 2.094 . S
O98 C76 1.240 . S
O99 Mn73 2.117 . S
O99 C76 1.264 . S
C100 C93 1.403 . S
C100 C101 1.399 . S
C100 H106 0.929 . S
C101 C81 1.449 . S
C101 C100 1.399 . S
C101 H107 0.930 . S
H102 C82 0.931 . S
H103 C83 0.930 . S
H104 C91 0.931 . S
H105 C92 0.929 . S
H106 C100 0.929 . S
H107 C101 0.930 . S
Mn108 O113 2.095 . S
Mn108 O123 2.162 . S
Mn108 O124 2.297 . S
Mn108 O132 2.385 . S
Mn108 O133 2.209 . S
Mn108 O134 2.094 . S
Mn109 O114 2.121 1_655 S
Mn109 N116 2.257 . S
Mn109 N125 2.282 . S
Mn109 O133 2.215 1_655 S
Mn109 O135 2.117 1_655 S
C110 O132 1.234 1_655 S
C110 O133 1.283 1_655 S
C111 O123 1.281 . S
C111 O124 1.236 . S
C112 O134 1.240 . S
C112 O135 1.264 . S
O113 Mn108 2.095 . S
O113 C122 1.250 . S
O114 Mn109 2.121 1_455 S
O114 C122 1.258 . S
C115 N116 1.326 . S
C115 C119 1.460 . S
C115 H121 0.929 1_655 S
N116 Mn109 2.257 . S
N116 C115 1.326 . S
N116 C120 1.362 . S
C117 C118 1.258 . S
C117 C120 1.431 . S
C117 C137 1.449 . S
C118 C117 1.258 . S
C118 C119 1.477 . S
C118 H138 0.931 . S
C119 C115 1.460 . S
C119 C118 1.477 . S
C119 H139 0.930 . S
C120 N116 1.362 . S
C120 C117 1.431 . S
C120 C130 1.476 . S
H121 C115 0.929 1_455 S
C122 O113 1.250 . S
C122 O114 1.258 . S
O123 Mn108 2.162 . S
O123 C111 1.281 . S
O124 Mn108 2.297 . S
O124 C111 1.236 . S
N125 Mn109 2.282 . S
N125 C126 1.328 . S
N125 C130 1.318 . S
C126 N125 1.328 . S
C126 C127 1.457 . S
C126 H131 0.929 . S
C127 C126 1.457 . S
C127 C128 1.291 . S
C127 H140 0.931 . S
C128 C127 1.291 . S
C128 C129 1.373 . S
C128 H141 0.929 . S
C129 C128 1.373 . S
C129 C130 1.396 . S
C129 C136 1.403 . S
C130 C120 1.476 . S
C130 N125 1.318 . S
C130 C129 1.396 . S
H131 C126 0.929 . S
O132 Mn108 2.385 . S
O132 C110 1.234 1_455 S
O133 Mn108 2.209 . S
O133 Mn109 2.215 1_455 S
O133 C110 1.283 1_455 S
O134 Mn108 2.094 . S
O134 C112 1.240 . S
O135 Mn109 2.117 1_455 S
O135 C112 1.264 . S
C136 C129 1.403 . S
C136 C137 1.399 . S
C136 H142 0.929 . S
C137 C117 1.449 . S
C137 C136 1.399 . S
C137 H143 0.930 . S
H138 C118 0.931 . S
H139 C119 0.930 . S
H140 C127 0.931 . S
H141 C128 0.929 . S
H142 C136 0.929 . S
H143 C137 0.930 . S
Mn144 O149 2.095 . S
Mn144 O159 2.162 . S
Mn144 O160 2.297 . S
Mn144 O168 2.385 . S
Mn144 O169 2.209 . S
Mn144 O170 2.094 . S
Mn145 O150 2.121 . S
Mn145 N152 2.257 . S
Mn145 N161 2.282 . S
Mn145 O169 2.215 . S
Mn145 O171 2.117 . S
C146 O168 1.234 . S
C146 O169 1.283 . S
C147 O159 1.281 . S
C147 O160 1.236 . S
C148 O170 1.240 . S
C148 O171 1.264 . S
O149 Mn144 2.095 . S
O149 C158 1.250 . S
O150 Mn145 2.121 . S
O150 C158 1.258 . S
C151 N152 1.326 . S
C151 C155 1.460 . S
C151 H157 0.929 . S
N152 Mn145 2.257 . S
N152 C151 1.326 . S
N152 C156 1.362 . S
C153 C154 1.258 . S
C153 C156 1.431 . S
C153 C173 1.449 . S
C154 C153 1.258 . S
C154 C155 1.477 . S
C154 H174 0.931 . S
C155 C151 1.460 . S
C155 C154 1.477 . S
C155 H175 0.930 . S
C156 N152 1.362 . S
C156 C153 1.431 . S
C156 C166 1.476 . S
H157 C151 0.929 . S
C158 O149 1.250 . S
C158 O150 1.258 . S
O159 Mn144 2.162 . S
O159 C147 1.281 . S
O160 Mn144 2.297 . S
O160 C147 1.236 . S
N161 Mn145 2.282 . S
N161 C162 1.328 . S
N161 C166 1.318 . S
C162 N161 1.328 . S
C162 C163 1.457 . S
C162 H167 0.929 . S
C163 C162 1.457 . S
C163 C164 1.291 . S
C163 H176 0.931 . S
C164 C163 1.291 . S
C164 C165 1.373 . S
C164 H177 0.929 . S
C165 C164 1.373 . S
C165 C166 1.396 . S
C165 C172 1.403 . S
C166 C156 1.476 . S
C166 N161 1.318 . S
C166 C165 1.396 . S
H167 C162 0.929 . S
O168 Mn144 2.385 . S
O168 C146 1.234 . S
O169 Mn144 2.209 . S
O169 Mn145 2.215 . S
O169 C146 1.283 . S
O170 Mn144 2.094 . S
O170 C148 1.240 . S
O171 Mn145 2.117 . S
O171 C148 1.264 . S
C172 C165 1.403 . S
C172 C173 1.399 . S
C172 H178 0.929 . S
C173 C153 1.449 . S
C173 C172 1.399 . S
C173 H179 0.930 . S
H174 C154 0.931 . S
H175 C155 0.930 . S
H176 C163 0.931 . S
H177 C164 0.929 . S
H178 C172 0.929 . S
H179 C173 0.930 . S
Mn180 O185 2.095 . S
Mn180 O195 2.162 . S
Mn180 O196 2.297 . S
Mn180 O204 2.385 . S
Mn180 O205 2.209 . S
Mn180 O206 2.094 . S
Mn181 O186 2.121 1_545 S
Mn181 N188 2.257 . S
Mn181 N197 2.282 . S
Mn181 O205 2.215 1_545 S
Mn181 O207 2.117 1_545 S
C182 O204 1.234 1_545 S
C182 O205 1.283 1_545 S
C183 O195 1.281 . S
C183 O196 1.236 . S
C184 O206 1.240 . S
C184 O207 1.264 . S
O185 Mn180 2.095 . S
O185 C194 1.250 . S
O186 Mn181 2.121 1_565 S
O186 C194 1.258 . S
C187 N188 1.326 . S
C187 C191 1.460 . S
C187 H193 0.929 1_545 S
N188 Mn181 2.257 . S
N188 C187 1.326 . S
N188 C192 1.362 . S
C189 C190 1.258 . S
C189 C192 1.431 . S
C189 C209 1.449 . S
C190 C189 1.258 . S
C190 C191 1.477 . S
C190 H210 0.931 . S
C191 C187 1.460 . S
C191 C190 1.477 . S
C191 H211 0.930 . S
C192 N188 1.362 . S
C192 C189 1.431 . S
C192 C202 1.476 . S
H193 C187 0.929 1_565 S
C194 O185 1.250 . S
C194 O186 1.258 . S
O195 Mn180 2.162 . S
O195 C183 1.281 . S
O196 Mn180 2.297 . S
O196 C183 1.236 . S
N197 Mn181 2.282 . S
N197 C198 1.328 . S
N197 C202 1.318 . S
C198 N197 1.328 . S
C198 C199 1.457 . S
C198 H203 0.929 . S
C199 C198 1.457 . S
C199 C200 1.291 . S
C199 H212 0.931 . S
C200 C199 1.291 . S
C200 C201 1.373 . S
C200 H213 0.929 . S
C201 C200 1.373 . S
C201 C202 1.396 . S
C201 C208 1.403 . S
C202 C192 1.476 . S
C202 N197 1.318 . S
C202 C201 1.396 . S
H203 C198 0.929 . S
O204 Mn180 2.385 . S
O204 C182 1.234 1_565 S
O205 Mn180 2.209 . S
O205 Mn181 2.215 1_565 S
O205 C182 1.283 1_565 S
O206 Mn180 2.094 . S
O206 C184 1.240 . S
O207 Mn181 2.117 1_565 S
O207 C184 1.264 . S
C208 C201 1.403 . S
C208 C209 1.399 . S
C208 H214 0.929 . S
C209 C189 1.449 . S
C209 C208 1.399 . S
C209 H215 0.930 . S
H210 C190 0.931 . S
H211 C191 0.930 . S
H212 C199 0.931 . S
H213 C200 0.929 . S
H214 C208 0.929 . S
H215 C209 0.930 . S
Mn216 O221 2.095 . S
Mn216 O231 2.162 . S
Mn216 O232 2.297 . S
Mn216 O240 2.385 . S
Mn216 O241 2.209 . S
Mn216 O242 2.094 . S
Mn217 O222 2.121 1_545 S
Mn217 N224 2.257 . S
Mn217 N233 2.282 . S
Mn217 O241 2.215 1_545 S
Mn217 O243 2.117 1_545 S
C218 O240 1.234 1_545 S
C218 O241 1.283 1_545 S
C219 O231 1.281 . S
C219 O232 1.236 . S
C220 O242 1.240 . S
C220 O243 1.264 . S
O221 Mn216 2.095 . S
O221 C230 1.250 . S
O222 Mn217 2.121 1_565 S
O222 C230 1.258 . S
C223 N224 1.326 . S
C223 C227 1.460 . S
C223 H229 0.929 1_545 S
N224 Mn217 2.257 . S
N224 C223 1.326 . S
N224 C228 1.362 . S
C225 C226 1.258 . S
C225 C228 1.431 . S
C225 C245 1.449 . S
C226 C225 1.258 . S
C226 C227 1.477 . S
C226 H246 0.931 . S
C227 C223 1.460 . S
C227 C226 1.477 . S
C227 H247 0.930 . S
C228 N224 1.362 . S
C228 C225 1.431 . S
C228 C238 1.476 . S
H229 C223 0.929 1_565 S
C230 O221 1.250 . S
C230 O222 1.258 . S
O231 Mn216 2.162 . S
O231 C219 1.281 . S
O232 Mn216 2.297 . S
O232 C219 1.236 . S
N233 Mn217 2.282 . S
N233 C234 1.328 . S
N233 C238 1.318 . S
C234 N233 1.328 . S
C234 C235 1.457 . S
C234 H239 0.929 . S
C235 C234 1.457 . S
C235 C236 1.291 . S
C235 H248 0.931 . S
C236 C235 1.291 . S
C236 C237 1.373 . S
C236 H249 0.929 . S
C237 C236 1.373 . S
C237 C238 1.396 . S
C237 C244 1.403 . S
C238 C228 1.476 . S
C238 N233 1.318 . S
C238 C237 1.396 . S
H239 C234 0.929 . S
O240 Mn216 2.385 . S
O240 C218 1.234 1_565 S
O241 Mn216 2.209 . S
O241 Mn217 2.215 1_565 S
O241 C218 1.283 1_565 S
O242 Mn216 2.094 . S
O242 C220 1.240 . S
O243 Mn217 2.117 1_565 S
O243 C220 1.264 . S
C244 C237 1.403 . S
C244 C245 1.399 . S
C244 H250 0.929 . S
C245 C225 1.449 . S
C245 C244 1.399 . S
C245 H251 0.930 . S
H246 C226 0.931 . S
H247 C227 0.930 . S
H248 C235 0.931 . S
H249 C236 0.929 . S
H250 C244 0.929 . S
H251 C245 0.930 . S
Mn252 O257 2.095 . S
Mn252 O267 2.162 . S
Mn252 O268 2.297 . S
Mn252 O276 2.385 . S
Mn252 O277 2.209 . S
Mn252 O278 2.094 . S
Mn253 O258 2.121 1_655 S
Mn253 N260 2.257 . S
Mn253 N269 2.282 . S
Mn253 O277 2.215 1_655 S
Mn253 O279 2.117 1_655 S
C254 O276 1.234 1_655 S
C254 O277 1.283 1_655 S
C255 O267 1.281 . S
C255 O268 1.236 . S
C256 O278 1.240 . S
C256 O279 1.264 . S
O257 Mn252 2.095 . S
O257 C266 1.250 . S
O258 Mn253 2.121 1_455 S
O258 C266 1.258 . S
C259 N260 1.326 . S
C259 C263 1.460 . S
C259 H265 0.929 1_655 S
N260 Mn253 2.257 . S
N260 C259 1.326 . S
N260 C264 1.362 . S
C261 C262 1.258 . S
C261 C264 1.431 . S
C261 C281 1.449 . S
C262 C261 1.258 . S
C262 C263 1.477 . S
C262 H282 0.931 . S
C263 C259 1.460 . S
C263 C262 1.477 . S
C263 H283 0.930 . S
C264 N260 1.362 . S
C264 C261 1.431 . S
C264 C274 1.476 . S
H265 C259 0.929 1_455 S
C266 O257 1.250 . S
C266 O258 1.258 . S
O267 Mn252 2.162 . S
O267 C255 1.281 . S
O268 Mn252 2.297 . S
O268 C255 1.236 . S
N269 Mn253 2.282 . S
N269 C270 1.328 . S
N269 C274 1.318 . S
C270 N269 1.328 . S
C270 C271 1.457 . S
C270 H275 0.929 . S
C271 C270 1.457 . S
C271 C272 1.291 . S
C271 H284 0.931 . S
C272 C271 1.291 . S
C272 C273 1.373 . S
C272 H285 0.929 . S
C273 C272 1.373 . S
C273 C274 1.396 . S
C273 C280 1.403 . S
C274 C264 1.476 . S
C274 N269 1.318 . S
C274 C273 1.396 . S
H275 C270 0.929 . S
O276 Mn252 2.385 . S
O276 C254 1.234 1_455 S
O277 Mn252 2.209 . S
O277 Mn253 2.215 1_455 S
O277 C254 1.283 1_455 S
O278 Mn252 2.094 . S
O278 C256 1.240 . S
O279 Mn253 2.117 1_455 S
O279 C256 1.264 . S
C280 C273 1.403 . S
C280 C281 1.399 . S
C280 H286 0.929 . S
C281 C261 1.449 . S
C281 C280 1.399 . S
C281 H287 0.930 . S
H282 C262 0.931 . S
H283 C263 0.930 . S
H284 C271 0.931 . S
H285 C272 0.929 . S
H286 C280 0.929 . S
H287 C281 0.930 . S
Mn288 O293 2.095 . S
Mn288 O303 2.162 . S
Mn288 O304 2.297 . S
Mn288 O312 2.385 . S
Mn288 O313 2.209 . S
Mn288 O314 2.094 . S
Mn289 O294 2.121 . S
Mn289 N296 2.257 . S
Mn289 N305 2.282 . S
Mn289 O313 2.215 . S
Mn289 O315 2.117 . S
C290 O312 1.234 . S
C290 O313 1.283 . S
C291 O303 1.281 . S
C291 O304 1.236 . S
C292 O314 1.240 . S
C292 O315 1.264 . S
O293 Mn288 2.095 . S
O293 C302 1.250 . S
O294 Mn289 2.121 . S
O294 C302 1.258 . S
C295 N296 1.326 . S
C295 C299 1.460 . S
C295 H301 0.929 . S
N296 Mn289 2.257 . S
N296 C295 1.326 . S
N296 C300 1.362 . S
C297 C298 1.258 . S
C297 C300 1.431 . S
C297 C317 1.449 . S
C298 C297 1.258 . S
C298 C299 1.477 . S
C298 H318 0.931 . S
C299 C295 1.460 . S
C299 C298 1.477 . S
C299 H319 0.930 . S
C300 N296 1.362 . S
C300 C297 1.431 . S
C300 C310 1.476 . S
H301 C295 0.929 . S
C302 O293 1.250 . S
C302 O294 1.258 . S
O303 Mn288 2.162 . S
O303 C291 1.281 . S
O304 Mn288 2.297 . S
O304 C291 1.236 . S
N305 Mn289 2.282 . S
N305 C306 1.328 . S
N305 C310 1.318 . S
C306 N305 1.328 . S
C306 C307 1.457 . S
C306 H311 0.929 . S
C307 C306 1.457 . S
C307 C308 1.291 . S
C307 H320 0.931 . S
C308 C307 1.291 . S
C308 C309 1.373 . S
C308 H321 0.929 . S
C309 C308 1.373 . S
C309 C310 1.396 . S
C309 C316 1.403 . S
C310 C300 1.476 . S
C310 N305 1.318 . S
C310 C309 1.396 . S
H311 C306 0.929 . S
O312 Mn288 2.385 . S
O312 C290 1.234 . S
O313 Mn288 2.209 . S
O313 Mn289 2.215 . S
O313 C290 1.283 . S
O314 Mn288 2.094 . S
O314 C292 1.240 . S
O315 Mn289 2.117 . S
O315 C292 1.264 . S
C316 C309 1.403 . S
C316 C317 1.399 . S
C316 H322 0.929 . S
C317 C297 1.449 . S
C317 C316 1.399 . S
C317 H323 0.930 . S
H318 C298 0.931 . S
H319 C299 0.930 . S
H320 C307 0.931 . S
H321 C308 0.929 . S
H322 C316 0.929 . S
H323 C317 0.930 . S
Mn324 O329 2.095 . S
Mn324 O339 2.162 . S
Mn324 O340 2.297 . S
Mn324 O348 2.385 . S
Mn324 O349 2.209 . S
Mn324 O350 2.094 . S
Mn325 O330 2.121 1_455 S
Mn325 N332 2.257 . S
Mn325 N341 2.282 . S
Mn325 O349 2.215 1_455 S
Mn325 O351 2.117 1_455 S
C326 O348 1.234 1_455 S
C326 O349 1.283 1_455 S
C327 O339 1.281 . S
C327 O340 1.236 . S
C328 O350 1.240 . S
C328 O351 1.264 . S
O329 Mn324 2.095 . S
O329 C338 1.250 . S
O330 Mn325 2.121 1_655 S
O330 C338 1.258 . S
C331 N332 1.326 . S
C331 C335 1.460 . S
C331 H337 0.929 1_455 S
N332 Mn325 2.257 . S
N332 C331 1.326 . S
N332 C336 1.362 . S
C333 C334 1.258 . S
C333 C336 1.431 . S
C333 C353 1.449 . S
C334 C333 1.258 . S
C334 C335 1.477 . S
C334 H354 0.931 . S
C335 C331 1.460 . S
C335 C334 1.477 . S
C335 H355 0.930 . S
C336 N332 1.362 . S
C336 C333 1.431 . S
C336 C346 1.476 . S
H337 C331 0.929 1_655 S
C338 O329 1.250 . S
C338 O330 1.258 . S
O339 Mn324 2.162 . S
O339 C327 1.281 . S
O340 Mn324 2.297 . S
O340 C327 1.236 . S
N341 Mn325 2.282 . S
N341 C342 1.328 . S
N341 C346 1.318 . S
C342 N341 1.328 . S
C342 C343 1.457 . S
C342 H347 0.929 . S
C343 C342 1.457 . S
C343 C344 1.291 . S
C343 H356 0.931 . S
C344 C343 1.291 . S
C344 C345 1.373 . S
C344 H357 0.929 . S
C345 C344 1.373 . S
C345 C346 1.396 . S
C345 C352 1.403 . S
C346 C336 1.476 . S
C346 N341 1.318 . S
C346 C345 1.396 . S
H347 C342 0.929 . S
O348 Mn324 2.385 . S
O348 C326 1.234 1_655 S
O349 Mn324 2.209 . S
O349 Mn325 2.215 1_655 S
O349 C326 1.283 1_655 S
O350 Mn324 2.094 . S
O350 C328 1.240 . S
O351 Mn325 2.117 1_655 S
O351 C328 1.264 . S
C352 C345 1.403 . S
C352 C353 1.399 . S
C352 H358 0.929 . S
C353 C333 1.449 . S
C353 C352 1.399 . S
C353 H359 0.930 . S
H354 C334 0.931 . S
H355 C335 0.930 . S
H356 C343 0.931 . S
H357 C344 0.929 . S
H358 C352 0.929 . S
H359 C353 0.930 . S
Mn360 O365 2.095 . S
Mn360 O375 2.162 . S
Mn360 O376 2.297 . S
Mn360 O384 2.385 . S
Mn360 O385 2.209 . S
Mn360 O386 2.094 . S
Mn361 O366 2.121 . S
Mn361 N368 2.257 . S
Mn361 N377 2.282 . S
Mn361 O385 2.215 . S
Mn361 O387 2.117 . S
C362 O384 1.234 . S
C362 O385 1.283 . S
C363 O375 1.281 . S
C363 O376 1.236 . S
C364 O386 1.240 . S
C364 O387 1.264 . S
O365 Mn360 2.095 . S
O365 C374 1.250 . S
O366 Mn361 2.121 . S
O366 C374 1.258 . S
C367 N368 1.326 . S
C367 C371 1.460 . S
C367 H373 0.929 . S
N368 Mn361 2.257 . S
N368 C367 1.326 . S
N368 C372 1.362 . S
C369 C370 1.258 . S
C369 C372 1.431 . S
C369 C389 1.449 . S
C370 C369 1.258 . S
C370 C371 1.477 . S
C370 H390 0.931 . S
C371 C367 1.460 . S
C371 C370 1.477 . S
C371 H391 0.930 . S
C372 N368 1.362 . S
C372 C369 1.431 . S
C372 C382 1.476 . S
H373 C367 0.929 . S
C374 O365 1.250 . S
C374 O366 1.258 . S
O375 Mn360 2.162 . S
O375 C363 1.281 . S
O376 Mn360 2.297 . S
O376 C363 1.236 . S
N377 Mn361 2.282 . S
N377 C378 1.328 . S
N377 C382 1.318 . S
C378 N377 1.328 . S
C378 C379 1.457 . S
C378 H383 0.929 . S
C379 C378 1.457 . S
C379 C380 1.291 . S
C379 H392 0.931 . S
C380 C379 1.291 . S
C380 C381 1.373 . S
C380 H393 0.929 . S
C381 C380 1.373 . S
C381 C382 1.396 . S
C381 C388 1.403 . S
C382 C372 1.476 . S
C382 N377 1.318 . S
C382 C381 1.396 . S
H383 C378 0.929 . S
O384 Mn360 2.385 . S
O384 C362 1.234 . S
O385 Mn360 2.209 . S
O385 Mn361 2.215 . S
O385 C362 1.283 . S
O386 Mn360 2.094 . S
O386 C364 1.240 . S
O387 Mn361 2.117 . S
O387 C364 1.264 . S
C388 C381 1.403 . S
C388 C389 1.399 . S
C388 H394 0.929 . S
C389 C369 1.449 . S
C389 C388 1.399 . S
C389 H395 0.930 . S
H390 C370 0.931 . S
H391 C371 0.930 . S
H392 C379 0.931 . S
H393 C380 0.929 . S
H394 C388 0.929 . S
H395 C389 0.930 . S
Mn396 O401 2.095 . S
Mn396 O411 2.162 . S
Mn396 O412 2.297 . S
Mn396 O420 2.385 . S
Mn396 O421 2.209 . S
Mn396 O422 2.094 . S
Mn397 O402 2.121 1_565 S
Mn397 N404 2.257 . S
Mn397 N413 2.282 . S
Mn397 O421 2.215 1_565 S
Mn397 O423 2.117 1_565 S
C398 O420 1.234 1_565 S
C398 O421 1.283 1_565 S
C399 O411 1.281 . S
C399 O412 1.236 . S
C400 O422 1.240 . S
C400 O423 1.264 . S
O401 Mn396 2.095 . S
O401 C410 1.250 . S
O402 Mn397 2.121 1_545 S
O402 C410 1.258 . S
C403 N404 1.326 . S
C403 C407 1.460 . S
C403 H409 0.929 1_565 S
N404 Mn397 2.257 . S
N404 C403 1.326 . S
N404 C408 1.362 . S
C405 C406 1.258 . S
C405 C408 1.431 . S
C405 C425 1.449 . S
C406 C405 1.258 . S
C406 C407 1.477 . S
C406 H426 0.931 . S
C407 C403 1.460 . S
C407 C406 1.477 . S
C407 H427 0.930 . S
C408 N404 1.362 . S
C408 C405 1.431 . S
C408 C418 1.476 . S
H409 C403 0.929 1_545 S
C410 O401 1.250 . S
C410 O402 1.258 . S
O411 Mn396 2.162 . S
O411 C399 1.281 . S
O412 Mn396 2.297 . S
O412 C399 1.236 . S
N413 Mn397 2.282 . S
N413 C414 1.328 . S
N413 C418 1.318 . S
C414 N413 1.328 . S
C414 C415 1.457 . S
C414 H419 0.929 . S
C415 C414 1.457 . S
C415 C416 1.291 . S
C415 H428 0.931 . S
C416 C415 1.291 . S
C416 C417 1.373 . S
C416 H429 0.929 . S
C417 C416 1.373 . S
C417 C418 1.396 . S
C417 C424 1.403 . S
C418 C408 1.476 . S
C418 N413 1.318 . S
C418 C417 1.396 . S
H419 C414 0.929 . S
O420 Mn396 2.385 . S
O420 C398 1.234 1_545 S
O421 Mn396 2.209 . S
O421 Mn397 2.215 1_545 S
O421 C398 1.283 1_545 S
O422 Mn396 2.094 . S
O422 C400 1.240 . S
O423 Mn397 2.117 1_545 S
O423 C400 1.264 . S
C424 C417 1.403 . S
C424 C425 1.399 . S
C424 H430 0.929 . S
C425 C405 1.449 . S
C425 C424 1.399 . S
C425 H431 0.930 . S
H426 C406 0.931 . S
H427 C407 0.930 . S
H428 C415 0.931 . S
H429 C416 0.929 . S
H430 C424 0.929 . S
H431 C425 0.930 . S
Mn432 O437 2.095 . S
Mn432 O447 2.162 . S
Mn432 O448 2.297 . S
Mn432 O456 2.385 . S
Mn432 O457 2.209 . S
Mn432 O458 2.094 . S
Mn433 O438 2.121 . S
Mn433 N440 2.257 . S
Mn433 N449 2.282 . S
Mn433 O457 2.215 . S
Mn433 O459 2.117 . S
C434 O456 1.234 . S
C434 O457 1.283 . S
C435 O447 1.281 . S
C435 O448 1.236 . S
C436 O458 1.240 . S
C436 O459 1.264 . S
O437 Mn432 2.095 . S
O437 C446 1.250 . S
O438 Mn433 2.121 . S
O438 C446 1.258 . S
C439 N440 1.326 . S
C439 C443 1.460 . S
C439 H445 0.929 . S
N440 Mn433 2.257 . S
N440 C439 1.326 . S
N440 C444 1.362 . S
C441 C442 1.258 . S
C441 C444 1.431 . S
C441 C461 1.449 . S
C442 C441 1.258 . S
C442 C443 1.477 . S
C442 H462 0.931 . S
C443 C439 1.460 . S
C443 C442 1.477 . S
C443 H463 0.930 . S
C444 N440 1.362 . S
C444 C441 1.431 . S
C444 C454 1.476 . S
H445 C439 0.929 . S
C446 O437 1.250 . S
C446 O438 1.258 . S
O447 Mn432 2.162 . S
O447 C435 1.281 . S
O448 Mn432 2.297 . S
O448 C435 1.236 . S
N449 Mn433 2.282 . S
N449 C450 1.328 . S
N449 C454 1.318 . S
C450 N449 1.328 . S
C450 C451 1.457 . S
C450 H455 0.929 . S
C451 C450 1.457 . S
C451 C452 1.291 . S
C451 H464 0.931 . S
C452 C451 1.291 . S
C452 C453 1.373 . S
C452 H465 0.929 . S
C453 C452 1.373 . S
C453 C454 1.396 . S
C453 C460 1.403 . S
C454 C444 1.476 . S
C454 N449 1.318 . S
C454 C453 1.396 . S
H455 C450 0.929 . S
O456 Mn432 2.385 . S
O456 C434 1.234 . S
O457 Mn432 2.209 . S
O457 Mn433 2.215 . S
O457 C434 1.283 . S
O458 Mn432 2.094 . S
O458 C436 1.240 . S
O459 Mn433 2.117 . S
O459 C436 1.264 . S
C460 C453 1.403 . S
C460 C461 1.399 . S
C460 H466 0.929 . S
C461 C441 1.449 . S
C461 C460 1.399 . S
C461 H467 0.930 . S
H462 C442 0.931 . S
H463 C443 0.930 . S
H464 C451 0.931 . S
H465 C452 0.929 . S
H466 C460 0.929 . S
H467 C461 0.930 . S
Mn468 O473 2.095 . S
Mn468 O483 2.162 . S
Mn468 O484 2.297 . S
Mn468 O492 2.385 . S
Mn468 O493 2.209 . S
Mn468 O494 2.094 . S
Mn469 O474 2.121 . S
Mn469 N476 2.257 . S
Mn469 N485 2.282 . S
Mn469 O493 2.215 . S
Mn469 O495 2.117 . S
C470 O492 1.234 . S
C470 O493 1.283 . S
C471 O483 1.281 . S
C471 O484 1.236 . S
C472 O494 1.240 . S
C472 O495 1.264 . S
O473 Mn468 2.095 . S
O473 C482 1.250 . S
O474 Mn469 2.121 . S
O474 C482 1.258 . S
C475 N476 1.326 . S
C475 C479 1.460 . S
C475 H481 0.929 . S
N476 Mn469 2.257 . S
N476 C475 1.326 . S
N476 C480 1.362 . S
C477 C478 1.258 . S
C477 C480 1.431 . S
C477 C497 1.449 . S
C478 C477 1.258 . S
C478 C479 1.477 . S
C478 H498 0.931 . S
C479 C475 1.460 . S
C479 C478 1.477 . S
C479 H499 0.930 . S
C480 N476 1.362 . S
C480 C477 1.431 . S
C480 C490 1.476 . S
H481 C475 0.929 . S
C482 O473 1.250 . S
C482 O474 1.258 . S
O483 Mn468 2.162 . S
O483 C471 1.281 . S
O484 Mn468 2.297 . S
O484 C471 1.236 . S
N485 Mn469 2.282 . S
N485 C486 1.328 . S
N485 C490 1.318 . S
C486 N485 1.328 . S
C486 C487 1.457 . S
C486 H491 0.929 . S
C487 C486 1.457 . S
C487 C488 1.291 . S
C487 H500 0.931 . S
C488 C487 1.291 . S
C488 C489 1.373 . S
C488 H501 0.929 . S
C489 C488 1.373 . S
C489 C490 1.396 . S
C489 C496 1.403 . S
C490 C480 1.476 . S
C490 N485 1.318 . S
C490 C489 1.396 . S
H491 C486 0.929 . S
O492 Mn468 2.385 . S
O492 C470 1.234 . S
O493 Mn468 2.209 . S
O493 Mn469 2.215 . S
O493 C470 1.283 . S
O494 Mn468 2.094 . S
O494 C472 1.240 . S
O495 Mn469 2.117 . S
O495 C472 1.264 . S
C496 C489 1.403 . S
C496 C497 1.399 . S
C496 H502 0.929 . S
C497 C477 1.449 . S
C497 C496 1.399 . S
C497 H503 0.930 . S
H498 C478 0.931 . S
H499 C479 0.930 . S
H500 C487 0.931 . S
H501 C488 0.929 . S
H502 C496 0.929 . S
H503 C497 0.930 . S
Mn504 O509 2.095 . S
Mn504 O519 2.162 . S
Mn504 O520 2.297 . S
Mn504 O528 2.385 . S
Mn504 O529 2.209 . S
Mn504 O530 2.094 . S
Mn505 O510 2.121 . S
Mn505 N512 2.257 . S
Mn505 N521 2.282 . S
Mn505 O529 2.215 . S
Mn505 O531 2.117 . S
C506 O528 1.234 . S
C506 O529 1.283 . S
C507 O519 1.281 . S
C507 O520 1.236 . S
C508 O530 1.240 . S
C508 O531 1.264 . S
O509 Mn504 2.095 . S
O509 C518 1.250 . S
O510 Mn505 2.121 . S
O510 C518 1.258 . S
C511 N512 1.326 . S
C511 C515 1.460 . S
C511 H517 0.929 . S
N512 Mn505 2.257 . S
N512 C511 1.326 . S
N512 C516 1.362 . S
C513 C514 1.258 . S
C513 C516 1.431 . S
C513 C533 1.449 . S
C514 C513 1.258 . S
C514 C515 1.477 . S
C514 H534 0.931 . S
C515 C511 1.460 . S
C515 C514 1.477 . S
C515 H535 0.930 . S
C516 N512 1.362 . S
C516 C513 1.431 . S
C516 C526 1.476 . S
H517 C511 0.929 . S
C518 O509 1.250 . S
C518 O510 1.258 . S
O519 Mn504 2.162 . S
O519 C507 1.281 . S
O520 Mn504 2.297 . S
O520 C507 1.236 . S
N521 Mn505 2.282 . S
N521 C522 1.328 . S
N521 C526 1.318 . S
C522 N521 1.328 . S
C522 C523 1.457 . S
C522 H527 0.929 . S
C523 C522 1.457 . S
C523 C524 1.291 . S
C523 H536 0.931 . S
C524 C523 1.291 . S
C524 C525 1.373 . S
C524 H537 0.929 . S
C525 C524 1.373 . S
C525 C526 1.396 . S
C525 C532 1.403 . S
C526 C516 1.476 . S
C526 N521 1.318 . S
C526 C525 1.396 . S
H527 C522 0.929 . S
O528 Mn504 2.385 . S
O528 C506 1.234 . S
O529 Mn504 2.209 . S
O529 Mn505 2.215 . S
O529 C506 1.283 . S
O530 Mn504 2.094 . S
O530 C508 1.240 . S
O531 Mn505 2.117 . S
O531 C508 1.264 . S
C532 C525 1.403 . S
C532 C533 1.399 . S
C532 H538 0.929 . S
C533 C513 1.449 . S
C533 C532 1.399 . S
C533 H539 0.930 . S
H534 C514 0.931 . S
H535 C515 0.930 . S
H536 C523 0.931 . S
H537 C524 0.929 . S
H538 C532 0.929 . S
H539 C533 0.930 . S
Mn540 O545 2.095 . S
Mn540 O555 2.162 . S
Mn540 O556 2.297 . S
Mn540 O564 2.385 . S
Mn540 O565 2.209 . S
Mn540 O566 2.094 . S
Mn541 O546 2.121 . S
Mn541 N548 2.257 . S
Mn541 N557 2.282 . S
Mn541 O565 2.215 . S
Mn541 O567 2.117 . S
C542 O564 1.234 . S
C542 O565 1.283 . S
C543 O555 1.281 . S
C543 O556 1.236 . S
C544 O566 1.240 . S
C544 O567 1.264 . S
O545 Mn540 2.095 . S
O545 C554 1.250 . S
O546 Mn541 2.121 . S
O546 C554 1.258 . S
C547 N548 1.326 . S
C547 C551 1.460 . S
C547 H553 0.929 . S
N548 Mn541 2.257 . S
N548 C547 1.326 . S
N548 C552 1.362 . S
C549 C550 1.258 . S
C549 C552 1.431 . S
C549 C569 1.449 . S
C550 C549 1.258 . S
C550 C551 1.477 . S
C550 H570 0.931 . S
C551 C547 1.460 . S
C551 C550 1.477 . S
C551 H571 0.930 . S
C552 N548 1.362 . S
C552 C549 1.431 . S
C552 C562 1.476 . S
H553 C547 0.929 . S
C554 O545 1.250 . S
C554 O546 1.258 . S
O555 Mn540 2.162 . S
O555 C543 1.281 . S
O556 Mn540 2.297 . S
O556 C543 1.236 . S
N557 Mn541 2.282 . S
N557 C558 1.328 . S
N557 C562 1.318 . S
C558 N557 1.328 . S
C558 C559 1.457 . S
C558 H563 0.929 . S
C559 C558 1.457 . S
C559 C560 1.291 . S
C559 H572 0.931 . S
C560 C559 1.291 . S
C560 C561 1.373 . S
C560 H573 0.929 . S
C561 C560 1.373 . S
C561 C562 1.396 . S
C561 C568 1.403 . S
C562 C552 1.476 . S
C562 N557 1.318 . S
C562 C561 1.396 . S
H563 C558 0.929 . S
O564 Mn540 2.385 . S
O564 C542 1.234 . S
O565 Mn540 2.209 . S
O565 Mn541 2.215 . S
O565 C542 1.283 . S
O566 Mn540 2.094 . S
O566 C544 1.240 . S
O567 Mn541 2.117 . S
O567 C544 1.264 . S
C568 C561 1.403 . S
C568 C569 1.399 . S
C568 H574 0.929 . S
C569 C549 1.449 . S
C569 C568 1.399 . S
C569 H575 0.930 . S
H570 C550 0.931 . S
H571 C551 0.930 . S
H572 C559 0.931 . S
H573 C560 0.929 . S
H574 C568 0.929 . S
H575 C569 0.930 . S
Mn576 O581 2.095 . S
Mn576 O591 2.162 . S
Mn576 O592 2.297 . S
Mn576 O600 2.385 . S
Mn576 O601 2.209 . S
Mn576 O602 2.094 . S
Mn577 O582 2.121 . S
Mn577 N584 2.257 . S
Mn577 N593 2.282 . S
Mn577 O601 2.215 . S
Mn577 O603 2.117 . S
C578 O600 1.234 . S
C578 O601 1.283 . S
C579 O591 1.281 . S
C579 O592 1.236 . S
C580 O602 1.240 . S
C580 O603 1.264 . S
O581 Mn576 2.095 . S
O581 C590 1.250 . S
O582 Mn577 2.121 . S
O582 C590 1.258 . S
C583 N584 1.326 . S
C583 C587 1.460 . S
C583 H589 0.929 . S
N584 Mn577 2.257 . S
N584 C583 1.326 . S
N584 C588 1.362 . S
C585 C586 1.258 . S
C585 C588 1.431 . S
C585 C605 1.449 . S
C586 C585 1.258 . S
C586 C587 1.477 . S
C586 H606 0.931 . S
C587 C583 1.460 . S
C587 C586 1.477 . S
C587 H607 0.930 . S
C588 N584 1.362 . S
C588 C585 1.431 . S
C588 C598 1.476 . S
H589 C583 0.929 . S
C590 O581 1.250 . S
C590 O582 1.258 . S
O591 Mn576 2.162 . S
O591 C579 1.281 . S
O592 Mn576 2.297 . S
O592 C579 1.236 . S
N593 Mn577 2.282 . S
N593 C594 1.328 . S
N593 C598 1.318 . S
C594 N593 1.328 . S
C594 C595 1.457 . S
C594 H599 0.929 . S
C595 C594 1.457 . S
C595 C596 1.291 . S
C595 H608 0.931 . S
C596 C595 1.291 . S
C596 C597 1.373 . S
C596 H609 0.929 . S
C597 C596 1.373 . S
C597 C598 1.396 . S
C597 C604 1.403 . S
C598 C588 1.476 . S
C598 N593 1.318 . S
C598 C597 1.396 . S
H599 C594 0.929 . S
O600 Mn576 2.385 . S
O600 C578 1.234 . S
O601 Mn576 2.209 . S
O601 Mn577 2.215 . S
O601 C578 1.283 . S
O602 Mn576 2.094 . S
O602 C580 1.240 . S
O603 Mn577 2.117 . S
O603 C580 1.264 . S
C604 C597 1.403 . S
C604 C605 1.399 . S
C604 H610 0.929 . S
C605 C585 1.449 . S
C605 C604 1.399 . S
C605 H611 0.930 . S
H606 C586 0.931 . S
H607 C587 0.930 . S
H608 C595 0.931 . S
H609 C596 0.929 . S
H610 C604 0.929 . S
H611 C605 0.930 . S
Mn612 O617 2.095 . S
Mn612 O627 2.162 . S
Mn612 O628 2.297 . S
Mn612 O636 2.385 . S
Mn612 O637 2.209 . S
Mn612 O638 2.094 . S
Mn613 O618 2.121 . S
Mn613 N620 2.257 . S
Mn613 N629 2.282 . S
Mn613 O637 2.215 . S
Mn613 O639 2.117 . S
C614 O636 1.234 . S
C614 O637 1.283 . S
C615 O627 1.281 . S
C615 O628 1.236 . S
C616 O638 1.240 . S
C616 O639 1.264 . S
O617 Mn612 2.095 . S
O617 C626 1.250 . S
O618 Mn613 2.121 . S
O618 C626 1.258 . S
C619 N620 1.326 . S
C619 C623 1.460 . S
C619 H625 0.929 . S
N620 Mn613 2.257 . S
N620 C619 1.326 . S
N620 C624 1.362 . S
C621 C622 1.258 . S
C621 C624 1.431 . S
C621 C641 1.449 . S
C622 C621 1.258 . S
C622 C623 1.477 . S
C622 H642 0.931 . S
C623 C619 1.460 . S
C623 C622 1.477 . S
C623 H643 0.930 . S
C624 N620 1.362 . S
C624 C621 1.431 . S
C624 C634 1.476 . S
H625 C619 0.929 . S
C626 O617 1.250 . S
C626 O618 1.258 . S
O627 Mn612 2.162 . S
O627 C615 1.281 . S
O628 Mn612 2.297 . S
O628 C615 1.236 . S
N629 Mn613 2.282 . S
N629 C630 1.328 . S
N629 C634 1.318 . S
C630 N629 1.328 . S
C630 C631 1.457 . S
C630 H635 0.929 . S
C631 C630 1.457 . S
C631 C632 1.291 . S
C631 H644 0.931 . S
C632 C631 1.291 . S
C632 C633 1.373 . S
C632 H645 0.929 . S
C633 C632 1.373 . S
C633 C634 1.396 . S
C633 C640 1.403 . S
C634 C624 1.476 . S
C634 N629 1.318 . S
C634 C633 1.396 . S
H635 C630 0.929 . S
O636 Mn612 2.385 . S
O636 C614 1.234 . S
O637 Mn612 2.209 . S
O637 Mn613 2.215 . S
O637 C614 1.283 . S
O638 Mn612 2.094 . S
O638 C616 1.240 . S
O639 Mn613 2.117 . S
O639 C616 1.264 . S
C640 C633 1.403 . S
C640 C641 1.399 . S
C640 H646 0.929 . S
C641 C621 1.449 . S
C641 C640 1.399 . S
C641 H647 0.930 . S
H642 C622 0.931 . S
H643 C623 0.930 . S
H644 C631 0.931 . S
H645 C632 0.929 . S
H646 C640 0.929 . S
H647 C641 0.930 . S
Mn648 O653 2.095 . S
Mn648 O663 2.162 . S
Mn648 O664 2.297 . S
Mn648 O672 2.385 . S
Mn648 O673 2.209 . S
Mn648 O674 2.094 . S
Mn649 O654 2.121 . S
Mn649 N656 2.257 . S
Mn649 N665 2.282 . S
Mn649 O673 2.215 . S
Mn649 O675 2.117 . S
C650 O672 1.234 . S
C650 O673 1.283 . S
C651 O663 1.281 . S
C651 O664 1.236 . S
C652 O674 1.240 . S
C652 O675 1.264 . S
O653 Mn648 2.095 . S
O653 C662 1.250 . S
O654 Mn649 2.121 . S
O654 C662 1.258 . S
C655 N656 1.326 . S
C655 C659 1.460 . S
C655 H661 0.929 . S
N656 Mn649 2.257 . S
N656 C655 1.326 . S
N656 C660 1.362 . S
C657 C658 1.258 . S
C657 C660 1.431 . S
C657 C677 1.449 . S
C658 C657 1.258 . S
C658 C659 1.477 . S
C658 H678 0.931 . S
C659 C655 1.460 . S
C659 C658 1.477 . S
C659 H679 0.930 . S
C660 N656 1.362 . S
C660 C657 1.431 . S
C660 C670 1.476 . S
H661 C655 0.929 . S
C662 O653 1.250 . S
C662 O654 1.258 . S
O663 Mn648 2.162 . S
O663 C651 1.281 . S
O664 Mn648 2.297 . S
O664 C651 1.236 . S
N665 Mn649 2.282 . S
N665 C666 1.328 . S
N665 C670 1.318 . S
C666 N665 1.328 . S
C666 C667 1.457 . S
C666 H671 0.929 . S
C667 C666 1.457 . S
C667 C668 1.291 . S
C667 H680 0.931 . S
C668 C667 1.291 . S
C668 C669 1.373 . S
C668 H681 0.929 . S
C669 C668 1.373 . S
C669 C670 1.396 . S
C669 C676 1.403 . S
C670 C660 1.476 . S
C670 N665 1.318 . S
C670 C669 1.396 . S
H671 C666 0.929 . S
O672 Mn648 2.385 . S
O672 C650 1.234 . S
O673 Mn648 2.209 . S
O673 Mn649 2.215 . S
O673 C650 1.283 . S
O674 Mn648 2.094 . S
O674 C652 1.240 . S
O675 Mn649 2.117 . S
O675 C652 1.264 . S
C676 C669 1.403 . S
C676 C677 1.399 . S
C676 H682 0.929 . S
C677 C657 1.449 . S
C677 C676 1.399 . S
C677 H683 0.930 . S
H678 C658 0.931 . S
H679 C659 0.930 . S
H680 C667 0.931 . S
H681 C668 0.929 . S
H682 C676 0.929 . S
H683 C677 0.930 . S
Mn684 O689 2.095 . S
Mn684 O699 2.162 . S
Mn684 O700 2.297 . S
Mn684 O708 2.385 . S
Mn684 O709 2.209 . S
Mn684 O710 2.094 . S
Mn685 O690 2.121 . S
Mn685 N692 2.257 . S
Mn685 N701 2.282 . S
Mn685 O709 2.215 . S
Mn685 O711 2.117 . S
C686 O708 1.234 . S
C686 O709 1.283 . S
C687 O699 1.281 . S
C687 O700 1.236 . S
C688 O710 1.240 . S
C688 O711 1.264 . S
O689 Mn684 2.095 . S
O689 C698 1.250 . S
O690 Mn685 2.121 . S
O690 C698 1.258 . S
C691 N692 1.326 . S
C691 C695 1.460 . S
C691 H697 0.929 . S
N692 Mn685 2.257 . S
N692 C691 1.326 . S
N692 C696 1.362 . S
C693 C694 1.258 . S
C693 C696 1.431 . S
C693 C713 1.449 . S
C694 C693 1.258 . S
C694 C695 1.477 . S
C694 H714 0.931 . S
C695 C691 1.460 . S
C695 C694 1.477 . S
C695 H715 0.930 . S
C696 N692 1.362 . S
C696 C693 1.431 . S
C696 C706 1.476 . S
H697 C691 0.929 . S
C698 O689 1.250 . S
C698 O690 1.258 . S
O699 Mn684 2.162 . S
O699 C687 1.281 . S
O700 Mn684 2.297 . S
O700 C687 1.236 . S
N701 Mn685 2.282 . S
N701 C702 1.328 . S
N701 C706 1.318 . S
C702 N701 1.328 . S
C702 C703 1.457 . S
C702 H707 0.929 . S
C703 C702 1.457 . S
C703 C704 1.291 . S
C703 H716 0.931 . S
C704 C703 1.291 . S
C704 C705 1.373 . S
C704 H717 0.929 . S
C705 C704 1.373 . S
C705 C706 1.396 . S
C705 C712 1.403 . S
C706 C696 1.476 . S
C706 N701 1.318 . S
C706 C705 1.396 . S
H707 C702 0.929 . S
O708 Mn684 2.385 . S
O708 C686 1.234 . S
O709 Mn684 2.209 . S
O709 Mn685 2.215 . S
O709 C686 1.283 . S
O710 Mn684 2.094 . S
O710 C688 1.240 . S
O711 Mn685 2.117 . S
O711 C688 1.264 . S
C712 C705 1.403 . S
C712 C713 1.399 . S
C712 H718 0.929 . S
C713 C693 1.449 . S
C713 C712 1.399 . S
C713 H719 0.930 . S
H714 C694 0.931 . S
H715 C695 0.930 . S
H716 C703 0.931 . S
H717 C704 0.929 . S
H718 C712 0.929 . S
H719 C713 0.930 . S
Mn720 O725 2.095 . S
Mn720 O735 2.162 . S
Mn720 O736 2.297 . S
Mn720 O744 2.385 . S
Mn720 O745 2.209 . S
Mn720 O746 2.094 . S
Mn721 O726 2.121 . S
Mn721 N728 2.257 . S
Mn721 N737 2.282 . S
Mn721 O745 2.215 . S
Mn721 O747 2.117 . S
C722 O744 1.234 . S
C722 O745 1.283 . S
C723 O735 1.281 . S
C723 O736 1.236 . S
C724 O746 1.240 . S
C724 O747 1.264 . S
O725 Mn720 2.095 . S
O725 C734 1.250 . S
O726 Mn721 2.121 . S
O726 C734 1.258 . S
C727 N728 1.326 . S
C727 C731 1.460 . S
C727 H733 0.929 . S
N728 Mn721 2.257 . S
N728 C727 1.326 . S
N728 C732 1.362 . S
C729 C730 1.258 . S
C729 C732 1.431 . S
C729 C749 1.449 . S
C730 C729 1.258 . S
C730 C731 1.477 . S
C730 H750 0.931 . S
C731 C727 1.460 . S
C731 C730 1.477 . S
C731 H751 0.930 . S
C732 N728 1.362 . S
C732 C729 1.431 . S
C732 C742 1.476 . S
H733 C727 0.929 . S
C734 O725 1.250 . S
C734 O726 1.258 . S
O735 Mn720 2.162 . S
O735 C723 1.281 . S
O736 Mn720 2.297 . S
O736 C723 1.236 . S
N737 Mn721 2.282 . S
N737 C738 1.328 . S
N737 C742 1.318 . S
C738 N737 1.328 . S
C738 C739 1.457 . S
C738 H743 0.929 . S
C739 C738 1.457 . S
C739 C740 1.291 . S
C739 H752 0.931 . S
C740 C739 1.291 . S
C740 C741 1.373 . S
C740 H753 0.929 . S
C741 C740 1.373 . S
C741 C742 1.396 . S
C741 C748 1.403 . S
C742 C732 1.476 . S
C742 N737 1.318 . S
C742 C741 1.396 . S
H743 C738 0.929 . S
O744 Mn720 2.385 . S
O744 C722 1.234 . S
O745 Mn720 2.209 . S
O745 Mn721 2.215 . S
O745 C722 1.283 . S
O746 Mn720 2.094 . S
O746 C724 1.240 . S
O747 Mn721 2.117 . S
O747 C724 1.264 . S
C748 C741 1.403 . S
C748 C749 1.399 . S
C748 H754 0.929 . S
C749 C729 1.449 . S
C749 C748 1.399 . S
C749 H755 0.930 . S
H750 C730 0.931 . S
H751 C731 0.930 . S
H752 C739 0.931 . S
H753 C740 0.929 . S
H754 C748 0.929 . S
H755 C749 0.930 . S
Mn756 O761 2.095 . S
Mn756 O771 2.162 . S
Mn756 O772 2.297 . S
Mn756 O780 2.385 . S
Mn756 O781 2.209 . S
Mn756 O782 2.094 . S
Mn757 O762 2.121 . S
Mn757 N764 2.257 . S
Mn757 N773 2.282 . S
Mn757 O781 2.215 . S
Mn757 O783 2.117 . S
C758 O780 1.234 . S
C758 O781 1.283 . S
C759 O771 1.281 . S
C759 O772 1.236 . S
C760 O782 1.240 . S
C760 O783 1.264 . S
O761 Mn756 2.095 . S
O761 C770 1.250 . S
O762 Mn757 2.121 . S
O762 C770 1.258 . S
C763 N764 1.326 1_554 S
C763 C767 1.460 . S
C763 H769 0.929 . S
N764 Mn757 2.257 . S
N764 C763 1.326 1_556 S
N764 C768 1.362 . S
C765 C766 1.258 1_556 S
C765 C768 1.431 . S
C765 C785 1.449 . S
C766 C765 1.258 1_554 S
C766 C767 1.477 . S
C766 H786 0.931 . S
C767 C763 1.460 . S
C767 C766 1.477 . S
C767 H787 0.930 . S
C768 N764 1.362 . S
C768 C765 1.431 . S
C768 C778 1.476 . S
H769 C763 0.929 . S
C770 O761 1.250 . S
C770 O762 1.258 . S
O771 Mn756 2.162 . S
O771 C759 1.281 . S
O772 Mn756 2.297 . S
O772 C759 1.236 . S
N773 Mn757 2.282 . S
N773 C774 1.328 . S
N773 C778 1.318 . S
C774 N773 1.328 . S
C774 C775 1.457 . S
C774 H779 0.929 . S
C775 C774 1.457 . S
C775 C776 1.291 . S
C775 H788 0.931 . S
C776 C775 1.291 . S
C776 C777 1.373 . S
C776 H789 0.929 . S
C777 C776 1.373 . S
C777 C778 1.396 . S
C777 C784 1.403 . S
C778 C768 1.476 . S
C778 N773 1.318 . S
C778 C777 1.396 . S
H779 C774 0.929 . S
O780 Mn756 2.385 . S
O780 C758 1.234 . S
O781 Mn756 2.209 . S
O781 Mn757 2.215 . S
O781 C758 1.283 . S
O782 Mn756 2.094 . S
O782 C760 1.240 . S
O783 Mn757 2.117 . S
O783 C760 1.264 . S
C784 C777 1.403 . S
C784 C785 1.399 . S
C784 H790 0.929 . S
C785 C765 1.449 . S
C785 C784 1.399 . S
C785 H791 0.930 1_556 S
H786 C766 0.931 . S
H787 C767 0.930 . S
H788 C775 0.931 . S
H789 C776 0.929 . S
H790 C784 0.929 . S
H791 C785 0.930 1_554 S
Mn792 O797 2.095 . S
Mn792 O807 2.162 . S
Mn792 O808 2.297 . S
Mn792 O816 2.385 . S
Mn792 O817 2.209 . S
Mn792 O818 2.094 . S
Mn793 O798 2.121 . S
Mn793 N800 2.257 . S
Mn793 N809 2.282 . S
Mn793 O817 2.215 . S
Mn793 O819 2.117 . S
C794 O816 1.234 . S
C794 O817 1.283 . S
C795 O807 1.281 . S
C795 O808 1.236 . S
C796 O818 1.240 . S
C796 O819 1.264 . S
O797 Mn792 2.095 . S
O797 C806 1.250 . S
O798 Mn793 2.121 . S
O798 C806 1.258 . S
C799 N800 1.326 1_554 S
C799 C803 1.460 . S
C799 H805 0.929 . S
N800 Mn793 2.257 . S
N800 C799 1.326 1_556 S
N800 C804 1.362 . S
C801 C802 1.258 1_556 S
C801 C804 1.431 . S
C801 C821 1.449 . S
C802 C801 1.258 1_554 S
C802 C803 1.477 . S
C802 H822 0.931 . S
C803 C799 1.460 . S
C803 C802 1.477 . S
C803 H823 0.930 . S
C804 N800 1.362 . S
C804 C801 1.431 . S
C804 C814 1.476 . S
H805 C799 0.929 . S
C806 O797 1.250 . S
C806 O798 1.258 . S
O807 Mn792 2.162 . S
O807 C795 1.281 . S
O808 Mn792 2.297 . S
O808 C795 1.236 . S
N809 Mn793 2.282 . S
N809 C810 1.328 . S
N809 C814 1.318 . S
C810 N809 1.328 . S
C810 C811 1.457 . S
C810 H815 0.929 . S
C811 C810 1.457 . S
C811 C812 1.291 . S
C811 H824 0.931 . S
C812 C811 1.291 . S
C812 C813 1.373 . S
C812 H825 0.929 . S
C813 C812 1.373 . S
C813 C814 1.396 . S
C813 C820 1.403 . S
C814 C804 1.476 . S
C814 N809 1.318 . S
C814 C813 1.396 . S
H815 C810 0.929 . S
O816 Mn792 2.385 . S
O816 C794 1.234 . S
O817 Mn792 2.209 . S
O817 Mn793 2.215 . S
O817 C794 1.283 . S
O818 Mn792 2.094 . S
O818 C796 1.240 . S
O819 Mn793 2.117 . S
O819 C796 1.264 . S
C820 C813 1.403 . S
C820 C821 1.399 . S
C820 H826 0.929 . S
C821 C801 1.449 . S
C821 C820 1.399 . S
C821 H827 0.930 1_556 S
H822 C802 0.931 . S
H823 C803 0.930 . S
H824 C811 0.931 . S
H825 C812 0.929 . S
H826 C820 0.929 . S
H827 C821 0.930 1_554 S
Mn828 O833 2.095 . S
Mn828 O843 2.162 . S
Mn828 O844 2.297 . S
Mn828 O852 2.385 . S
Mn828 O853 2.209 . S
Mn828 O854 2.094 . S
Mn829 O834 2.121 . S
Mn829 N836 2.257 . S
Mn829 N845 2.282 . S
Mn829 O853 2.215 . S
Mn829 O855 2.117 . S
C830 O852 1.234 . S
C830 O853 1.283 . S
C831 O843 1.281 . S
C831 O844 1.236 . S
C832 O854 1.240 . S
C832 O855 1.264 . S
O833 Mn828 2.095 . S
O833 C842 1.250 . S
O834 Mn829 2.121 . S
O834 C842 1.258 . S
C835 N836 1.326 1_554 S
C835 C839 1.460 . S
C835 H841 0.929 . S
N836 Mn829 2.257 . S
N836 C835 1.326 1_556 S
N836 C840 1.362 . S
C837 C838 1.258 1_556 S
C837 C840 1.431 . S
C837 C857 1.449 . S
C838 C837 1.258 1_554 S
C838 C839 1.477 . S
C838 H858 0.931 . S
C839 C835 1.460 . S
C839 C838 1.477 . S
C839 H859 0.930 . S
C840 N836 1.362 . S
C840 C837 1.431 . S
C840 C850 1.476 . S
H841 C835 0.929 . S
C842 O833 1.250 . S
C842 O834 1.258 . S
O843 Mn828 2.162 . S
O843 C831 1.281 . S
O844 Mn828 2.297 . S
O844 C831 1.236 . S
N845 Mn829 2.282 . S
N845 C846 1.328 . S
N845 C850 1.318 . S
C846 N845 1.328 . S
C846 C847 1.457 . S
C846 H851 0.929 . S
C847 C846 1.457 . S
C847 C848 1.291 . S
C847 H860 0.931 . S
C848 C847 1.291 . S
C848 C849 1.373 . S
C848 H861 0.929 . S
C849 C848 1.373 . S
C849 C850 1.396 . S
C849 C856 1.403 . S
C850 C840 1.476 . S
C850 N845 1.318 . S
C850 C849 1.396 . S
H851 C846 0.929 . S
O852 Mn828 2.385 . S
O852 C830 1.234 . S
O853 Mn828 2.209 . S
O853 Mn829 2.215 . S
O853 C830 1.283 . S
O854 Mn828 2.094 . S
O854 C832 1.240 . S
O855 Mn829 2.117 . S
O855 C832 1.264 . S
C856 C849 1.403 . S
C856 C857 1.399 . S
C856 H862 0.929 . S
C857 C837 1.449 . S
C857 C856 1.399 . S
C857 H863 0.930 1_556 S
H858 C838 0.931 . S
H859 C839 0.930 . S
H860 C847 0.931 . S
H861 C848 0.929 . S
H862 C856 0.929 . S
H863 C857 0.930 1_554 S
Mn864 O869 2.095 . S
Mn864 O879 2.162 . S
Mn864 O880 2.297 . S
Mn864 O888 2.385 . S
Mn864 O889 2.209 . S
Mn864 O890 2.094 . S
Mn865 O870 2.121 . S
Mn865 N872 2.257 . S
Mn865 N881 2.282 . S
Mn865 O889 2.215 . S
Mn865 O891 2.117 . S
C866 O888 1.234 . S
C866 O889 1.283 . S
C867 O879 1.281 . S
C867 O880 1.236 . S
C868 O890 1.240 . S
C868 O891 1.264 . S
O869 Mn864 2.095 . S
O869 C878 1.250 . S
O870 Mn865 2.121 . S
O870 C878 1.258 . S
C871 N872 1.326 . S
C871 C875 1.460 . S
C871 H877 0.929 . S
N872 Mn865 2.257 . S
N872 C871 1.326 . S
N872 C876 1.362 . S
C873 C874 1.258 . S
C873 C876 1.431 . S
C873 C893 1.449 . S
C874 C873 1.258 . S
C874 C875 1.477 . S
C874 H894 0.931 . S
C875 C871 1.460 . S
C875 C874 1.477 . S
C875 H895 0.930 . S
C876 N872 1.362 . S
C876 C873 1.431 . S
C876 C886 1.476 . S
H877 C871 0.929 . S
C878 O869 1.250 . S
C878 O870 1.258 . S
O879 Mn864 2.162 . S
O879 C867 1.281 . S
O880 Mn864 2.297 . S
O880 C867 1.236 . S
N881 Mn865 2.282 . S
N881 C882 1.328 . S
N881 C886 1.318 . S
C882 N881 1.328 . S
C882 C883 1.457 . S
C882 H887 0.929 . S
C883 C882 1.457 . S
C883 C884 1.291 . S
C883 H896 0.931 . S
C884 C883 1.291 . S
C884 C885 1.373 . S
C884 H897 0.929 . S
C885 C884 1.373 . S
C885 C886 1.396 . S
C885 C892 1.403 . S
C886 C876 1.476 . S
C886 N881 1.318 . S
C886 C885 1.396 . S
H887 C882 0.929 . S
O888 Mn864 2.385 . S
O888 C866 1.234 . S
O889 Mn864 2.209 . S
O889 Mn865 2.215 . S
O889 C866 1.283 . S
O890 Mn864 2.094 . S
O890 C868 1.240 . S
O891 Mn865 2.117 . S
O891 C868 1.264 . S
C892 C885 1.403 . S
C892 C893 1.399 . S
C892 H898 0.929 . S
C893 C873 1.449 . S
C893 C892 1.399 . S
C893 H899 0.930 . S
H894 C874 0.931 . S
H895 C875 0.930 . S
H896 C883 0.931 . S
H897 C884 0.929 . S
H898 C892 0.929 . S
H899 C893 0.930 . S
Mn900 O905 2.095 . S
Mn900 O915 2.162 . S
Mn900 O916 2.297 . S
Mn900 O924 2.385 . S
Mn900 O925 2.209 . S
Mn900 O926 2.094 . S
Mn901 O906 2.121 . S
Mn901 N908 2.257 . S
Mn901 N917 2.282 . S
Mn901 O925 2.215 . S
Mn901 O927 2.117 . S
C902 O924 1.234 . S
C902 O925 1.283 . S
C903 O915 1.281 . S
C903 O916 1.236 . S
C904 O926 1.240 . S
C904 O927 1.264 . S
O905 Mn900 2.095 . S
O905 C914 1.250 . S
O906 Mn901 2.121 . S
O906 C914 1.258 . S
C907 N908 1.326 . S
C907 C911 1.460 . S
C907 H913 0.929 . S
N908 Mn901 2.257 . S
N908 C907 1.326 . S
N908 C912 1.362 . S
C909 C910 1.258 . S
C909 C912 1.431 . S
C909 C929 1.449 . S
C910 C909 1.258 . S
C910 C911 1.477 . S
C910 H930 0.931 . S
C911 C907 1.460 . S
C911 C910 1.477 . S
C911 H931 0.930 . S
C912 N908 1.362 . S
C912 C909 1.431 . S
C912 C922 1.476 . S
H913 C907 0.929 . S
C914 O905 1.250 . S
C914 O906 1.258 . S
O915 Mn900 2.162 . S
O915 C903 1.281 . S
O916 Mn900 2.297 . S
O916 C903 1.236 . S
N917 Mn901 2.282 . S
N917 C918 1.328 . S
N917 C922 1.318 . S
C918 N917 1.328 . S
C918 C919 1.457 . S
C918 H923 0.929 . S
C919 C918 1.457 . S
C919 C920 1.291 . S
C919 H932 0.931 . S
C920 C919 1.291 . S
C920 C921 1.373 . S
C920 H933 0.929 . S
C921 C920 1.373 . S
C921 C922 1.396 . S
C921 C928 1.403 . S
C922 C912 1.476 . S
C922 N917 1.318 . S
C922 C921 1.396 . S
H923 C918 0.929 . S
O924 Mn900 2.385 . S
O924 C902 1.234 . S
O925 Mn900 2.209 . S
O925 Mn901 2.215 . S
O925 C902 1.283 . S
O926 Mn900 2.094 . S
O926 C904 1.240 . S
O927 Mn901 2.117 . S
O927 C904 1.264 . S
C928 C921 1.403 . S
C928 C929 1.399 . S
C928 H934 0.929 . S
C929 C909 1.449 . S
C929 C928 1.399 . S
C929 H935 0.930 . S
H930 C910 0.931 . S
H931 C911 0.930 . S
H932 C919 0.931 . S
H933 C920 0.929 . S
H934 C928 0.929 . S
H935 C929 0.930 . S
Mn936 O941 2.095 . S
Mn936 O951 2.162 . S
Mn936 O952 2.297 . S
Mn936 O960 2.385 . S
Mn936 O961 2.209 . S
Mn936 O962 2.094 . S
Mn937 O942 2.121 . S
Mn937 N944 2.257 . S
Mn937 N953 2.282 . S
Mn937 O961 2.215 . S
Mn937 O963 2.117 . S
C938 O960 1.234 . S
C938 O961 1.283 . S
C939 O951 1.281 . S
C939 O952 1.236 . S
C940 O962 1.240 . S
C940 O963 1.264 . S
O941 Mn936 2.095 . S
O941 C950 1.250 . S
O942 Mn937 2.121 . S
O942 C950 1.258 . S
C943 N944 1.326 . S
C943 C947 1.460 . S
C943 H949 0.929 . S
N944 Mn937 2.257 . S
N944 C943 1.326 . S
N944 C948 1.362 . S
C945 C946 1.258 . S
C945 C948 1.431 . S
C945 C965 1.449 . S
C946 C945 1.258 . S
C946 C947 1.477 . S
C946 H966 0.931 . S
C947 C943 1.460 . S
C947 C946 1.477 . S
C947 H967 0.930 . S
C948 N944 1.362 . S
C948 C945 1.431 . S
C948 C958 1.476 . S
H949 C943 0.929 . S
C950 O941 1.250 . S
C950 O942 1.258 . S
O951 Mn936 2.162 . S
O951 C939 1.281 . S
O952 Mn936 2.297 . S
O952 C939 1.236 . S
N953 Mn937 2.282 . S
N953 C954 1.328 . S
N953 C958 1.318 . S
C954 N953 1.328 . S
C954 C955 1.457 . S
C954 H959 0.929 . S
C955 C954 1.457 . S
C955 C956 1.291 . S
C955 H968 0.931 . S
C956 C955 1.291 . S
C956 C957 1.373 . S
C956 H969 0.929 . S
C957 C956 1.373 . S
C957 C958 1.396 . S
C957 C964 1.403 . S
C958 C948 1.476 . S
C958 N953 1.318 . S
C958 C957 1.396 . S
H959 C954 0.929 . S
O960 Mn936 2.385 . S
O960 C938 1.234 . S
O961 Mn936 2.209 . S
O961 Mn937 2.215 . S
O961 C938 1.283 . S
O962 Mn936 2.094 . S
O962 C940 1.240 . S
O963 Mn937 2.117 . S
O963 C940 1.264 . S
C964 C957 1.403 . S
C964 C965 1.399 . S
C964 H970 0.929 . S
C965 C945 1.449 . S
C965 C964 1.399 . S
C965 H971 0.930 . S
H966 C946 0.931 . S
H967 C947 0.930 . S
H968 C955 0.931 . S
H969 C956 0.929 . S
H970 C964 0.929 . S
H971 C965 0.930 . S
Mn972 O977 2.095 . S
Mn972 O987 2.162 . S
Mn972 O988 2.297 . S
Mn972 O996 2.385 . S
Mn972 O997 2.209 . S
Mn972 O998 2.094 . S
Mn973 O978 2.121 . S
Mn973 N980 2.257 . S
Mn973 N989 2.282 . S
Mn973 O997 2.215 . S
Mn973 O999 2.117 . S
C974 O996 1.234 . S
C974 O997 1.283 . S
C975 O987 1.281 . S
C975 O988 1.236 . S
C976 O998 1.240 . S
C976 O999 1.264 . S
O977 Mn972 2.095 . S
O977 C986 1.250 . S
O978 Mn973 2.121 . S
O978 C986 1.258 . S
C979 N980 1.326 1_556 S
C979 C983 1.460 . S
C979 H985 0.929 . S
N980 Mn973 2.257 . S
N980 C979 1.326 1_554 S
N980 C984 1.362 . S
C981 C982 1.258 1_554 S
C981 C984 1.431 . S
C981 C1001 1.449 . S
C982 C981 1.258 1_556 S
C982 C983 1.477 . S
C982 H1002 0.931 . S
C983 C979 1.460 . S
C983 C982 1.477 . S
C983 H1003 0.930 . S
C984 N980 1.362 . S
C984 C981 1.431 . S
C984 C994 1.476 . S
H985 C979 0.929 . S
C986 O977 1.250 . S
C986 O978 1.258 . S
O987 Mn972 2.162 . S
O987 C975 1.281 . S
O988 Mn972 2.297 . S
O988 C975 1.236 . S
N989 Mn973 2.282 . S
N989 C990 1.328 . S
N989 C994 1.318 . S
C990 N989 1.328 . S
C990 C991 1.457 . S
C990 H995 0.929 . S
C991 C990 1.457 . S
C991 C992 1.291 . S
C991 H1004 0.931 . S
C992 C991 1.291 . S
C992 C993 1.373 . S
C992 H1005 0.929 . S
C993 C992 1.373 . S
C993 C994 1.396 . S
C993 C1000 1.403 . S
C994 C984 1.476 . S
C994 N989 1.318 . S
C994 C993 1.396 . S
H995 C990 0.929 . S
O996 Mn972 2.385 . S
O996 C974 1.234 . S
O997 Mn972 2.209 . S
O997 Mn973 2.215 . S
O997 C974 1.283 . S
O998 Mn972 2.094 . S
O998 C976 1.240 . S
O999 Mn973 2.117 . S
O999 C976 1.264 . S
C1000 C993 1.403 . S
C1000 C1001 1.399 . S
C1000 H1006 0.929 . S
C1001 C981 1.449 . S
C1001 C1000 1.399 . S
C1001 H1007 0.930 1_554 S
H1002 C982 0.931 . S
H1003 C983 0.930 . S
H1004 C991 0.931 . S
H1005 C992 0.929 . S
H1006 C1000 0.929 . S
H1007 C1001 0.930 1_556 S
Mn1008 O1013 2.095 . S
Mn1008 O1023 2.162 . S
Mn1008 O1024 2.297 . S
Mn1008 O1032 2.385 . S
Mn1008 O1033 2.209 . S
Mn1008 O1034 2.094 . S
Mn1009 O1014 2.121 . S
Mn1009 N1016 2.257 . S
Mn1009 N1025 2.282 . S
Mn1009 O1033 2.215 . S
Mn1009 O1035 2.117 . S
C1010 O1032 1.234 . S
C1010 O1033 1.283 . S
C1011 O1023 1.281 . S
C1011 O1024 1.236 . S
C1012 O1034 1.240 . S
C1012 O1035 1.264 . S
O1013 Mn1008 2.095 . S
O1013 C1022 1.250 . S
O1014 Mn1009 2.121 . S
O1014 C1022 1.258 . S
C1015 N1016 1.326 1_556 S
C1015 C1019 1.460 . S
C1015 H1021 0.929 . S
N1016 Mn1009 2.257 . S
N1016 C1015 1.326 1_554 S
N1016 C1020 1.362 . S
C1017 C1018 1.258 1_554 S
C1017 C1020 1.431 . S
C1017 C1037 1.449 . S
C1018 C1017 1.258 1_556 S
C1018 C1019 1.477 . S
C1018 H1038 0.931 . S
C1019 C1015 1.460 . S
C1019 C1018 1.477 . S
C1019 H1039 0.930 . S
C1020 N1016 1.362 . S
C1020 C1017 1.431 . S
C1020 C1030 1.476 . S
H1021 C1015 0.929 . S
C1022 O1013 1.250 . S
C1022 O1014 1.258 . S
O1023 Mn1008 2.162 . S
O1023 C1011 1.281 . S
O1024 Mn1008 2.297 . S
O1024 C1011 1.236 . S
N1025 Mn1009 2.282 . S
N1025 C1026 1.328 . S
N1025 C1030 1.318 . S
C1026 N1025 1.328 . S
C1026 C1027 1.457 . S
C1026 H1031 0.929 . S
C1027 C1026 1.457 . S
C1027 C1028 1.291 . S
C1027 H1040 0.931 . S
C1028 C1027 1.291 . S
C1028 C1029 1.373 . S
C1028 H1041 0.929 . S
C1029 C1028 1.373 . S
C1029 C1030 1.396 . S
C1029 C1036 1.403 . S
C1030 C1020 1.476 . S
C1030 N1025 1.318 . S
C1030 C1029 1.396 . S
H1031 C1026 0.929 . S
O1032 Mn1008 2.385 . S
O1032 C1010 1.234 . S
O1033 Mn1008 2.209 . S
O1033 Mn1009 2.215 . S
O1033 C1010 1.283 . S
O1034 Mn1008 2.094 . S
O1034 C1012 1.240 . S
O1035 Mn1009 2.117 . S
O1035 C1012 1.264 . S
C1036 C1029 1.403 . S
C1036 C1037 1.399 . S
C1036 H1042 0.929 . S
C1037 C1017 1.449 . S
C1037 C1036 1.399 . S
C1037 H1043 0.930 1_554 S
H1038 C1018 0.931 . S
H1039 C1019 0.930 . S
H1040 C1027 0.931 . S
H1041 C1028 0.929 . S
H1042 C1036 0.929 . S
H1043 C1037 0.930 1_556 S
Mn1044 O1049 2.095 . S
Mn1044 O1059 2.162 . S
Mn1044 O1060 2.297 . S
Mn1044 O1068 2.385 . S
Mn1044 O1069 2.209 . S
Mn1044 O1070 2.094 . S
Mn1045 O1050 2.121 . S
Mn1045 N1052 2.257 . S
Mn1045 N1061 2.282 . S
Mn1045 O1069 2.215 . S
Mn1045 O1071 2.117 . S
C1046 O1068 1.234 . S
C1046 O1069 1.283 . S
C1047 O1059 1.281 . S
C1047 O1060 1.236 . S
C1048 O1070 1.240 . S
C1048 O1071 1.264 . S
O1049 Mn1044 2.095 . S
O1049 C1058 1.250 . S
O1050 Mn1045 2.121 . S
O1050 C1058 1.258 . S
C1051 N1052 1.326 1_556 S
C1051 C1055 1.460 . S
C1051 H1057 0.929 . S
N1052 Mn1045 2.257 . S
N1052 C1051 1.326 1_554 S
N1052 C1056 1.362 . S
C1053 C1054 1.258 1_554 S
C1053 C1056 1.431 . S
C1053 C1073 1.449 . S
C1054 C1053 1.258 1_556 S
C1054 C1055 1.477 . S
C1054 H1074 0.931 . S
C1055 C1051 1.460 . S
C1055 C1054 1.477 . S
C1055 H1075 0.930 . S
C1056 N1052 1.362 . S
C1056 C1053 1.431 . S
C1056 C1066 1.476 . S
H1057 C1051 0.929 . S
C1058 O1049 1.250 . S
C1058 O1050 1.258 . S
O1059 Mn1044 2.162 . S
O1059 C1047 1.281 . S
O1060 Mn1044 2.297 . S
O1060 C1047 1.236 . S
N1061 Mn1045 2.282 . S
N1061 C1062 1.328 . S
N1061 C1066 1.318 . S
C1062 N1061 1.328 . S
C1062 C1063 1.457 . S
C1062 H1067 0.929 . S
C1063 C1062 1.457 . S
C1063 C1064 1.291 . S
C1063 H1076 0.931 . S
C1064 C1063 1.291 . S
C1064 C1065 1.373 . S
C1064 H1077 0.929 . S
C1065 C1064 1.373 . S
C1065 C1066 1.396 . S
C1065 C1072 1.403 . S
C1066 C1056 1.476 . S
C1066 N1061 1.318 . S
C1066 C1065 1.396 . S
H1067 C1062 0.929 . S
O1068 Mn1044 2.385 . S
O1068 C1046 1.234 . S
O1069 Mn1044 2.209 . S
O1069 Mn1045 2.215 . S
O1069 C1046 1.283 . S
O1070 Mn1044 2.094 . S
O1070 C1048 1.240 . S
O1071 Mn1045 2.117 . S
O1071 C1048 1.264 . S
C1072 C1065 1.403 . S
C1072 C1073 1.399 . S
C1072 H1078 0.929 . S
C1073 C1053 1.449 . S
C1073 C1072 1.399 . S
C1073 H1079 0.930 1_554 S
H1074 C1054 0.931 . S
H1075 C1055 0.930 . S
H1076 C1063 0.931 . S
H1077 C1064 0.929 . S
H1078 C1072 0.929 . S
H1079 C1073 0.930 1_556 S
Mn1080 O1085 2.095 . S
Mn1080 O1095 2.162 . S
Mn1080 O1096 2.297 . S
Mn1080 O1104 2.385 . S
Mn1080 O1105 2.209 . S
Mn1080 O1106 2.094 . S
Mn1081 O1086 2.121 . S
Mn1081 N1088 2.257 . S
Mn1081 N1097 2.282 . S
Mn1081 O1105 2.215 . S
Mn1081 O1107 2.117 . S
C1082 O1104 1.234 . S
C1082 O1105 1.283 . S
C1083 O1095 1.281 . S
C1083 O1096 1.236 . S
C1084 O1106 1.240 . S
C1084 O1107 1.264 . S
O1085 Mn1080 2.095 . S
O1085 C1094 1.250 . S
O1086 Mn1081 2.121 . S
O1086 C1094 1.258 . S
C1087 N1088 1.326 . S
C1087 C1091 1.460 . S
C1087 H1093 0.929 . S
N1088 Mn1081 2.257 . S
N1088 C1087 1.326 . S
N1088 C1092 1.362 . S
C1089 C1090 1.258 . S
C1089 C1092 1.431 . S
C1089 C1109 1.449 . S
C1090 C1089 1.258 . S
C1090 C1091 1.477 . S
C1090 H1110 0.931 . S
C1091 C1087 1.460 . S
C1091 C1090 1.477 . S
C1091 H1111 0.930 . S
C1092 N1088 1.362 . S
C1092 C1089 1.431 . S
C1092 C1102 1.476 . S
H1093 C1087 0.929 . S
C1094 O1085 1.250 . S
C1094 O1086 1.258 . S
O1095 Mn1080 2.162 . S
O1095 C1083 1.281 . S
O1096 Mn1080 2.297 . S
O1096 C1083 1.236 . S
N1097 Mn1081 2.282 . S
N1097 C1098 1.328 . S
N1097 C1102 1.318 . S
C1098 N1097 1.328 . S
C1098 C1099 1.457 . S
C1098 H1103 0.929 . S
C1099 C1098 1.457 . S
C1099 C1100 1.291 . S
C1099 H1112 0.931 . S
C1100 C1099 1.291 . S
C1100 C1101 1.373 . S
C1100 H1113 0.929 . S
C1101 C1100 1.373 . S
C1101 C1102 1.396 . S
C1101 C1108 1.403 . S
C1102 C1092 1.476 . S
C1102 N1097 1.318 . S
C1102 C1101 1.396 . S
H1103 C1098 0.929 . S
O1104 Mn1080 2.385 . S
O1104 C1082 1.234 . S
O1105 Mn1080 2.209 . S
O1105 Mn1081 2.215 . S
O1105 C1082 1.283 . S
O1106 Mn1080 2.094 . S
O1106 C1084 1.240 . S
O1107 Mn1081 2.117 . S
O1107 C1084 1.264 . S
C1108 C1101 1.403 . S
C1108 C1109 1.399 . S
C1108 H1114 0.929 . S
C1109 C1089 1.449 . S
C1109 C1108 1.399 . S
C1109 H1115 0.930 . S
H1110 C1090 0.931 . S
H1111 C1091 0.930 . S
H1112 C1099 0.931 . S
H1113 C1100 0.929 . S
H1114 C1108 0.929 . S
H1115 C1109 0.930 . S
Mn1116 O1121 2.095 . S
Mn1116 O1131 2.162 . S
Mn1116 O1132 2.297 . S
Mn1116 O1140 2.385 . S
Mn1116 O1141 2.209 . S
Mn1116 O1142 2.094 . S
Mn1117 O1122 2.121 . S
Mn1117 N1124 2.257 . S
Mn1117 N1133 2.282 . S
Mn1117 O1141 2.215 . S
Mn1117 O1143 2.117 . S
C1118 O1140 1.234 . S
C1118 O1141 1.283 . S
C1119 O1131 1.281 . S
C1119 O1132 1.236 . S
C1120 O1142 1.240 . S
C1120 O1143 1.264 . S
O1121 Mn1116 2.095 . S
O1121 C1130 1.250 . S
O1122 Mn1117 2.121 . S
O1122 C1130 1.258 . S
C1123 N1124 1.326 . S
C1123 C1127 1.460 . S
C1123 H1129 0.929 . S
N1124 Mn1117 2.257 . S
N1124 C1123 1.326 . S
N1124 C1128 1.362 . S
C1125 C1126 1.258 . S
C1125 C1128 1.431 . S
C1125 C1145 1.449 . S
C1126 C1125 1.258 . S
C1126 C1127 1.477 . S
C1126 H1146 0.931 . S
C1127 C1123 1.460 . S
C1127 C1126 1.477 . S
C1127 H1147 0.930 . S
C1128 N1124 1.362 . S
C1128 C1125 1.431 . S
C1128 C1138 1.476 . S
H1129 C1123 0.929 . S
C1130 O1121 1.250 . S
C1130 O1122 1.258 . S
O1131 Mn1116 2.162 . S
O1131 C1119 1.281 . S
O1132 Mn1116 2.297 . S
O1132 C1119 1.236 . S
N1133 Mn1117 2.282 . S
N1133 C1134 1.328 . S
N1133 C1138 1.318 . S
C1134 N1133 1.328 . S
C1134 C1135 1.457 . S
C1134 H1139 0.929 . S
C1135 C1134 1.457 . S
C1135 C1136 1.291 . S
C1135 H1148 0.931 . S
C1136 C1135 1.291 . S
C1136 C1137 1.373 . S
C1136 H1149 0.929 . S
C1137 C1136 1.373 . S
C1137 C1138 1.396 . S
C1137 C1144 1.403 . S
C1138 C1128 1.476 . S
C1138 N1133 1.318 . S
C1138 C1137 1.396 . S
H1139 C1134 0.929 . S
O1140 Mn1116 2.385 . S
O1140 C1118 1.234 . S
O1141 Mn1116 2.209 . S
O1141 Mn1117 2.215 . S
O1141 C1118 1.283 . S
O1142 Mn1116 2.094 . S
O1142 C1120 1.240 . S
O1143 Mn1117 2.117 . S
O1143 C1120 1.264 . S
C1144 C1137 1.403 . S
C1144 C1145 1.399 . S
C1144 H1150 0.929 . S
C1145 C1125 1.449 . S
C1145 C1144 1.399 . S
C1145 H1151 0.930 . S
H1146 C1126 0.931 . S
H1147 C1127 0.930 . S
H1148 C1135 0.931 . S
H1149 C1136 0.929 . S
H1150 C1144 0.929 . S
H1151 C1145 0.930 . S
Mn1152 O1157 2.095 . S
Mn1152 O1167 2.162 . S
Mn1152 O1168 2.297 . S
Mn1152 O1176 2.385 . S
Mn1152 O1177 2.209 . S
Mn1152 O1178 2.094 . S
Mn1153 O1158 2.121 . S
Mn1153 N1160 2.257 . S
Mn1153 N1169 2.282 . S
Mn1153 O1177 2.215 . S
Mn1153 O1179 2.117 . S
C1154 O1176 1.234 . S
C1154 O1177 1.283 . S
C1155 O1167 1.281 . S
C1155 O1168 1.236 . S
C1156 O1178 1.240 . S
C1156 O1179 1.264 . S
O1157 Mn1152 2.095 . S
O1157 C1166 1.250 . S
O1158 Mn1153 2.121 . S
O1158 C1166 1.258 . S
C1159 N1160 1.326 . S
C1159 C1163 1.460 . S
C1159 H1165 0.929 . S
N1160 Mn1153 2.257 . S
N1160 C1159 1.326 . S
N1160 C1164 1.362 . S
C1161 C1162 1.258 . S
C1161 C1164 1.431 . S
C1161 C1181 1.449 . S
C1162 C1161 1.258 . S
C1162 C1163 1.477 . S
C1162 H1182 0.931 . S
C1163 C1159 1.460 . S
C1163 C1162 1.477 . S
C1163 H1183 0.930 . S
C1164 N1160 1.362 . S
C1164 C1161 1.431 . S
C1164 C1174 1.476 . S
H1165 C1159 0.929 . S
C1166 O1157 1.250 . S
C1166 O1158 1.258 . S
O1167 Mn1152 2.162 . S
O1167 C1155 1.281 . S
O1168 Mn1152 2.297 . S
O1168 C1155 1.236 . S
N1169 Mn1153 2.282 . S
N1169 C1170 1.328 . S
N1169 C1174 1.318 . S
C1170 N1169 1.328 . S
C1170 C1171 1.457 . S
C1170 H1175 0.929 . S
C1171 C1170 1.457 . S
C1171 C1172 1.291 . S
C1171 H1184 0.931 . S
C1172 C1171 1.291 . S
C1172 C1173 1.373 . S
C1172 H1185 0.929 . S
C1173 C1172 1.373 . S
C1173 C1174 1.396 . S
C1173 C1180 1.403 . S
C1174 C1164 1.476 . S
C1174 N1169 1.318 . S
C1174 C1173 1.396 . S
H1175 C1170 0.929 . S
O1176 Mn1152 2.385 . S
O1176 C1154 1.234 . S
O1177 Mn1152 2.209 . S
O1177 Mn1153 2.215 . S
O1177 C1154 1.283 . S
O1178 Mn1152 2.094 . S
O1178 C1156 1.240 . S
O1179 Mn1153 2.117 . S
O1179 C1156 1.264 . S
C1180 C1173 1.403 . S
C1180 C1181 1.399 . S
C1180 H1186 0.929 . S
C1181 C1161 1.449 . S
C1181 C1180 1.399 . S
C1181 H1187 0.930 . S
H1182 C1162 0.931 . S
H1183 C1163 0.930 . S
H1184 C1171 0.931 . S
H1185 C1172 0.929 . S
H1186 C1180 0.929 . S
H1187 C1181 0.930 . S
Mn1188 O1193 2.095 . S
Mn1188 O1203 2.162 . S
Mn1188 O1204 2.297 . S
Mn1188 O1212 2.385 . S
Mn1188 O1213 2.209 . S
Mn1188 O1214 2.094 . S
Mn1189 O1194 2.121 . S
Mn1189 N1196 2.257 . S
Mn1189 N1205 2.282 . S
Mn1189 O1213 2.215 . S
Mn1189 O1215 2.117 . S
C1190 O1212 1.234 . S
C1190 O1213 1.283 . S
C1191 O1203 1.281 . S
C1191 O1204 1.236 . S
C1192 O1214 1.240 . S
C1192 O1215 1.264 . S
O1193 Mn1188 2.095 . S
O1193 C1202 1.250 . S
O1194 Mn1189 2.121 . S
O1194 C1202 1.258 . S
C1195 N1196 1.326 . S
C1195 C1199 1.460 . S
C1195 H1201 0.929 . S
N1196 Mn1189 2.257 . S
N1196 C1195 1.326 . S
N1196 C1200 1.362 . S
C1197 C1198 1.258 . S
C1197 C1200 1.431 . S
C1197 C1217 1.449 . S
C1198 C1197 1.258 . S
C1198 C1199 1.477 . S
C1198 H1218 0.931 . S
C1199 C1195 1.460 . S
C1199 C1198 1.477 . S
C1199 H1219 0.930 . S
C1200 N1196 1.362 . S
C1200 C1197 1.431 . S
C1200 C1210 1.476 . S
H1201 C1195 0.929 . S
C1202 O1193 1.250 . S
C1202 O1194 1.258 . S
O1203 Mn1188 2.162 . S
O1203 C1191 1.281 . S
O1204 Mn1188 2.297 . S
O1204 C1191 1.236 . S
N1205 Mn1189 2.282 . S
N1205 C1206 1.328 . S
N1205 C1210 1.318 . S
C1206 N1205 1.328 . S
C1206 C1207 1.457 . S
C1206 H1211 0.929 . S
C1207 C1206 1.457 . S
C1207 C1208 1.291 . S
C1207 H1220 0.931 . S
C1208 C1207 1.291 . S
C1208 C1209 1.373 . S
C1208 H1221 0.929 . S
C1209 C1208 1.373 . S
C1209 C1210 1.396 . S
C1209 C1216 1.403 . S
C1210 C1200 1.476 . S
C1210 N1205 1.318 . S
C1210 C1209 1.396 . S
H1211 C1206 0.929 . S
O1212 Mn1188 2.385 . S
O1212 C1190 1.234 . S
O1213 Mn1188 2.209 . S
O1213 Mn1189 2.215 . S
O1213 C1190 1.283 . S
O1214 Mn1188 2.094 . S
O1214 C1192 1.240 . S
O1215 Mn1189 2.117 . S
O1215 C1192 1.264 . S
C1216 C1209 1.403 . S
C1216 C1217 1.399 . S
C1216 H1222 0.929 . S
C1217 C1197 1.449 . S
C1217 C1216 1.399 . S
C1217 H1223 0.930 . S
H1218 C1198 0.931 . S
H1219 C1199 0.930 . S
H1220 C1207 0.931 . S
H1221 C1208 0.929 . S
H1222 C1216 0.929 . S
H1223 C1217 0.930 . S
Mn1224 O1229 2.095 . S
Mn1224 O1239 2.162 . S
Mn1224 O1240 2.297 . S
Mn1224 O1248 2.385 . S
Mn1224 O1249 2.209 . S
Mn1224 O1250 2.094 . S
Mn1225 O1230 2.121 . S
Mn1225 N1232 2.257 . S
Mn1225 N1241 2.282 . S
Mn1225 O1249 2.215 . S
Mn1225 O1251 2.117 . S
C1226 O1248 1.234 . S
C1226 O1249 1.283 . S
C1227 O1239 1.281 . S
C1227 O1240 1.236 . S
C1228 O1250 1.240 . S
C1228 O1251 1.264 . S
O1229 Mn1224 2.095 . S
O1229 C1238 1.250 . S
O1230 Mn1225 2.121 . S
O1230 C1238 1.258 . S
C1231 N1232 1.326 . S
C1231 C1235 1.460 . S
C1231 H1237 0.929 . S
N1232 Mn1225 2.257 . S
N1232 C1231 1.326 . S
N1232 C1236 1.362 . S
C1233 C1234 1.258 . S
C1233 C1236 1.431 . S
C1233 C1253 1.449 . S
C1234 C1233 1.258 . S
C1234 C1235 1.477 . S
C1234 H1254 0.931 . S
C1235 C1231 1.460 . S
C1235 C1234 1.477 . S
C1235 H1255 0.930 . S
C1236 N1232 1.362 . S
C1236 C1233 1.431 . S
C1236 C1246 1.476 . S
H1237 C1231 0.929 . S
C1238 O1229 1.250 . S
C1238 O1230 1.258 . S
O1239 Mn1224 2.162 . S
O1239 C1227 1.281 . S
O1240 Mn1224 2.297 . S
O1240 C1227 1.236 . S
N1241 Mn1225 2.282 . S
N1241 C1242 1.328 . S
N1241 C1246 1.318 . S
C1242 N1241 1.328 . S
C1242 C1243 1.457 . S
C1242 H1247 0.929 . S
C1243 C1242 1.457 . S
C1243 C1244 1.291 . S
C1243 H1256 0.931 . S
C1244 C1243 1.291 . S
C1244 C1245 1.373 . S
C1244 H1257 0.929 . S
C1245 C1244 1.373 . S
C1245 C1246 1.396 . S
C1245 C1252 1.403 . S
C1246 C1236 1.476 . S
C1246 N1241 1.318 . S
C1246 C1245 1.396 . S
H1247 C1242 0.929 . S
O1248 Mn1224 2.385 . S
O1248 C1226 1.234 . S
O1249 Mn1224 2.209 . S
O1249 Mn1225 2.215 . S
O1249 C1226 1.283 . S
O1250 Mn1224 2.094 . S
O1250 C1228 1.240 . S
O1251 Mn1225 2.117 . S
O1251 C1228 1.264 . S
C1252 C1245 1.403 . S
C1252 C1253 1.399 . S
C1252 H1258 0.929 . S
C1253 C1233 1.449 . S
C1253 C1252 1.399 . S
C1253 H1259 0.930 . S
H1254 C1234 0.931 . S
H1255 C1235 0.930 . S
H1256 C1243 0.931 . S
H1257 C1244 0.929 . S
H1258 C1252 0.929 . S
H1259 C1253 0.930 . S
Mn1260 O1265 2.095 . S
Mn1260 O1275 2.162 . S
Mn1260 O1276 2.297 . S
Mn1260 O1284 2.385 . S
Mn1260 O1285 2.209 . S
Mn1260 O1286 2.094 . S
Mn1261 O1266 2.121 . S
Mn1261 N1268 2.257 . S
Mn1261 N1277 2.282 . S
Mn1261 O1285 2.215 . S
Mn1261 O1287 2.117 . S
C1262 O1284 1.234 . S
C1262 O1285 1.283 . S
C1263 O1275 1.281 . S
C1263 O1276 1.236 . S
C1264 O1286 1.240 . S
C1264 O1287 1.264 . S
O1265 Mn1260 2.095 . S
O1265 C1274 1.250 . S
O1266 Mn1261 2.121 . S
O1266 C1274 1.258 . S
C1267 N1268 1.326 . S
C1267 C1271 1.460 . S
C1267 H1273 0.929 . S
N1268 Mn1261 2.257 . S
N1268 C1267 1.326 . S
N1268 C1272 1.362 . S
C1269 C1270 1.258 . S
C1269 C1272 1.431 . S
C1269 C1289 1.449 . S
C1270 C1269 1.258 . S
C1270 C1271 1.477 . S
C1270 H1290 0.931 . S
C1271 C1267 1.460 . S
C1271 C1270 1.477 . S
C1271 H1291 0.930 . S
C1272 N1268 1.362 . S
C1272 C1269 1.431 . S
C1272 C1282 1.476 . S
H1273 C1267 0.929 . S
C1274 O1265 1.250 . S
C1274 O1266 1.258 . S
O1275 Mn1260 2.162 . S
O1275 C1263 1.281 . S
O1276 Mn1260 2.297 . S
O1276 C1263 1.236 . S
N1277 Mn1261 2.282 . S
N1277 C1278 1.328 . S
N1277 C1282 1.318 . S
C1278 N1277 1.328 . S
C1278 C1279 1.457 . S
C1278 H1283 0.929 . S
C1279 C1278 1.457 . S
C1279 C1280 1.291 . S
C1279 H1292 0.931 . S
C1280 C1279 1.291 . S
C1280 C1281 1.373 . S
C1280 H1293 0.929 . S
C1281 C1280 1.373 . S
C1281 C1282 1.396 . S
C1281 C1288 1.403 . S
C1282 C1272 1.476 . S
C1282 N1277 1.318 . S
C1282 C1281 1.396 . S
H1283 C1278 0.929 . S
O1284 Mn1260 2.385 . S
O1284 C1262 1.234 . S
O1285 Mn1260 2.209 . S
O1285 Mn1261 2.215 . S
O1285 C1262 1.283 . S
O1286 Mn1260 2.094 . S
O1286 C1264 1.240 . S
O1287 Mn1261 2.117 . S
O1287 C1264 1.264 . S
C1288 C1281 1.403 . S
C1288 C1289 1.399 . S
C1288 H1294 0.929 . S
C1289 C1269 1.449 . S
C1289 C1288 1.399 . S
C1289 H1295 0.930 . S
H1290 C1270 0.931 . S
H1291 C1271 0.930 . S
H1292 C1279 0.931 . S
H1293 C1280 0.929 . S
H1294 C1288 0.929 . S
H1295 C1289 0.930 . S
C1296 C1297 1.369 . S
C1296 C1298 1.419 . S
C1296 H1300 0.930 . S
C1297 C1296 1.369 . S
C1297 C1306 1.429 . S
C1298 C1296 1.419 . S
C1298 C1299 1.363 . S
C1298 H1301 0.929 . S
C1299 C1298 1.363 . S
C1299 C1305 1.428 . S
H1300 C1296 0.930 . S
H1301 C1298 0.929 . S
S1302 N1303 1.613 . S
S1302 N1304 1.610 . S
N1303 S1302 1.613 . S
N1303 C1306 1.350 . S
N1304 S1302 1.610 . S
N1304 C1305 1.351 . S
C1305 C1299 1.428 . S
C1305 N1304 1.351 . S
C1305 C1306 1.434 . S
C1306 C1297 1.429 . S
C1306 N1303 1.350 . S
C1306 C1305 1.434 . S
C1307 C1308 1.369 . S
C1307 C1309 1.419 . S
C1307 H1311 0.930 . S
C1308 C1307 1.369 . S
C1308 C1317 1.429 . S
C1309 C1307 1.419 . S
C1309 C1310 1.363 . S
C1309 H1312 0.929 . S
C1310 C1309 1.363 . S
C1310 C1316 1.428 . S
H1311 C1307 0.930 . S
H1312 C1309 0.929 . S
S1313 N1314 1.613 . S
S1313 N1315 1.610 . S
N1314 S1313 1.613 . S
N1314 C1317 1.350 . S
N1315 S1313 1.610 . S
N1315 C1316 1.351 . S
C1316 C1310 1.428 . S
C1316 N1315 1.351 . S
C1316 C1317 1.434 . S
C1317 C1308 1.429 . S
C1317 N1314 1.350 . S
C1317 C1316 1.434 . S
C1318 C1319 1.369 . S
C1318 C1320 1.419 . S
C1318 H1322 0.930 . S
C1319 C1318 1.369 . S
C1319 C1328 1.429 . S
C1320 C1318 1.419 . S
C1320 C1321 1.363 . S
C1320 H1323 0.929 . S
C1321 C1320 1.363 . S
C1321 C1327 1.428 . S
H1322 C1318 0.930 . S
H1323 C1320 0.929 . S
S1324 N1325 1.613 . S
S1324 N1326 1.610 . S
N1325 S1324 1.613 . S
N1325 C1328 1.350 . S
N1326 S1324 1.610 . S
N1326 C1327 1.351 . S
C1327 C1321 1.428 . S
C1327 N1326 1.351 . S
C1327 C1328 1.434 . S
C1328 C1319 1.429 . S
C1328 N1325 1.350 . S
C1328 C1327 1.434 . S
C1329 C1330 1.369 . S
C1329 C1331 1.419 . S
C1329 H1333 0.930 . S
C1330 C1329 1.369 . S
C1330 C1339 1.429 . S
C1331 C1329 1.419 . S
C1331 C1332 1.363 . S
C1331 H1334 0.929 . S
C1332 C1331 1.363 . S
C1332 C1338 1.428 . S
H1333 C1329 0.930 . S
H1334 C1331 0.929 . S
S1335 N1336 1.613 . S
S1335 N1337 1.610 . S
N1336 S1335 1.613 . S
N1336 C1339 1.350 . S
N1337 S1335 1.610 . S
N1337 C1338 1.351 . S
C1338 C1332 1.428 . S
C1338 N1337 1.351 . S
C1338 C1339 1.434 . S
C1339 C1330 1.429 . S
C1339 N1336 1.350 . S
C1339 C1338 1.434 . S
C1340 C1341 1.369 . S
C1340 C1342 1.419 . S
C1340 H1344 0.930 . S
C1341 C1340 1.369 . S
C1341 C1350 1.429 . S
C1342 C1340 1.419 . S
C1342 C1343 1.363 . S
C1342 H1345 0.929 . S
C1343 C1342 1.363 . S
C1343 C1349 1.428 . S
H1344 C1340 0.930 . S
H1345 C1342 0.929 . S
S1346 N1347 1.613 . S
S1346 N1348 1.610 . S
N1347 S1346 1.613 . S
N1347 C1350 1.350 . S
N1348 S1346 1.610 . S
N1348 C1349 1.351 . S
C1349 C1343 1.428 . S
C1349 N1348 1.351 . S
C1349 C1350 1.434 . S
C1350 C1341 1.429 . S
C1350 N1347 1.350 . S
C1350 C1349 1.434 . S
C1351 C1352 1.369 . S
C1351 C1353 1.419 . S
C1351 H1355 0.930 . S
C1352 C1351 1.369 . S
C1352 C1361 1.429 . S
C1353 C1351 1.419 . S
C1353 C1354 1.363 . S
C1353 H1356 0.929 . S
C1354 C1353 1.363 . S
C1354 C1360 1.428 . S
H1355 C1351 0.930 . S
H1356 C1353 0.929 . S
S1357 N1358 1.613 . S
S1357 N1359 1.610 . S
N1358 S1357 1.613 . S
N1358 C1361 1.350 . S
N1359 S1357 1.610 . S
N1359 C1360 1.351 . S
C1360 C1354 1.428 . S
C1360 N1359 1.351 . S
C1360 C1361 1.434 . S
C1361 C1352 1.429 . S
C1361 N1358 1.350 . S
C1361 C1360 1.434 . S
C1362 C1363 1.369 . S
C1362 C1364 1.419 . S
C1362 H1366 0.930 . S
C1363 C1362 1.369 . S
C1363 C1372 1.429 . S
C1364 C1362 1.419 . S
C1364 C1365 1.363 . S
C1364 H1367 0.929 . S
C1365 C1364 1.363 . S
C1365 C1371 1.428 . S
H1366 C1362 0.930 . S
H1367 C1364 0.929 . S
S1368 N1369 1.613 . S
S1368 N1370 1.610 . S
N1369 S1368 1.613 . S
N1369 C1372 1.350 . S
N1370 S1368 1.610 . S
N1370 C1371 1.351 . S
C1371 C1365 1.428 . S
C1371 N1370 1.351 . S
C1371 C1372 1.434 . S
C1372 C1363 1.429 . S
C1372 N1369 1.350 . S
C1372 C1371 1.434 . S
C1373 C1374 1.369 . S
C1373 C1375 1.419 . S
C1373 H1377 0.930 . S
C1374 C1373 1.369 . S
C1374 C1383 1.429 . S
C1375 C1373 1.419 . S
C1375 C1376 1.363 . S
C1375 H1378 0.929 . S
C1376 C1375 1.363 . S
C1376 C1382 1.428 . S
H1377 C1373 0.930 . S
H1378 C1375 0.929 . S
S1379 N1380 1.613 . S
S1379 N1381 1.610 . S
N1380 S1379 1.613 . S
N1380 C1383 1.350 . S
N1381 S1379 1.610 . S
N1381 C1382 1.351 . S
C1382 C1376 1.428 . S
C1382 N1381 1.351 . S
C1382 C1383 1.434 . S
C1383 C1374 1.429 . S
C1383 N1380 1.350 . S
C1383 C1382 1.434 . S
C1384 C1385 1.369 . S
C1384 C1386 1.419 . S
C1384 H1388 0.930 . S
C1385 C1384 1.369 . S
C1385 C1394 1.429 . S
C1386 C1384 1.419 . S
C1386 C1387 1.363 . S
C1386 H1389 0.929 . S
C1387 C1386 1.363 . S
C1387 C1393 1.428 . S
H1388 C1384 0.930 . S
H1389 C1386 0.929 . S
S1390 N1391 1.613 . S
S1390 N1392 1.610 . S
N1391 S1390 1.613 . S
N1391 C1394 1.350 . S
N1392 S1390 1.610 . S
N1392 C1393 1.351 . S
C1393 C1387 1.428 . S
C1393 N1392 1.351 . S
C1393 C1394 1.434 . S
C1394 C1385 1.429 . S
C1394 N1391 1.350 . S
C1394 C1393 1.434 . S
C1395 C1396 1.369 . S
C1395 C1397 1.419 . S
C1395 H1399 0.930 . S
C1396 C1395 1.369 . S
C1396 C1405 1.429 . S
C1397 C1395 1.419 . S
C1397 C1398 1.363 . S
C1397 H1400 0.929 . S
C1398 C1397 1.363 . S
C1398 C1404 1.428 . S
H1399 C1395 0.930 . S
H1400 C1397 0.929 . S
S1401 N1402 1.613 . S
S1401 N1403 1.610 . S
N1402 S1401 1.613 . S
N1402 C1405 1.350 . S
N1403 S1401 1.610 . S
N1403 C1404 1.351 . S
C1404 C1398 1.428 . S
C1404 N1403 1.351 . S
C1404 C1405 1.434 . S
C1405 C1396 1.429 . S
C1405 N1402 1.350 . S
C1405 C1404 1.434 . S
C1406 C1407 1.369 . S
C1406 C1408 1.419 . S
C1406 H1410 0.930 . S
C1407 C1406 1.369 . S
C1407 C1416 1.429 . S
C1408 C1406 1.419 . S
C1408 C1409 1.363 . S
C1408 H1411 0.929 . S
C1409 C1408 1.363 . S
C1409 C1415 1.428 . S
H1410 C1406 0.930 . S
H1411 C1408 0.929 . S
S1412 N1413 1.613 . S
S1412 N1414 1.610 . S
N1413 S1412 1.613 . S
N1413 C1416 1.350 . S
N1414 S1412 1.610 . S
N1414 C1415 1.351 . S
C1415 C1409 1.428 . S
C1415 N1414 1.351 . S
C1415 C1416 1.434 . S
C1416 C1407 1.429 . S
C1416 N1413 1.350 . S
C1416 C1415 1.434 . S
C1417 C1418 1.369 . S
C1417 C1419 1.419 . S
C1417 H1421 0.930 . S
C1418 C1417 1.369 . S
C1418 C1427 1.429 . S
C1419 C1417 1.419 . S
C1419 C1420 1.363 . S
C1419 H1422 0.929 . S
C1420 C1419 1.363 . S
C1420 C1426 1.428 . S
H1421 C1417 0.930 . S
H1422 C1419 0.929 . S
S1423 N1424 1.613 . S
S1423 N1425 1.610 . S
N1424 S1423 1.613 . S
N1424 C1427 1.350 . S
N1425 S1423 1.610 . S
N1425 C1426 1.351 . S
C1426 C1420 1.428 . S
C1426 N1425 1.351 . S
C1426 C1427 1.434 . S
C1427 C1418 1.429 . S
C1427 N1424 1.350 . S
C1427 C1426 1.434 . S
C1428 C1429 1.369 . S
C1428 C1430 1.419 1_455 S
C1428 H1432 0.930 . S
C1429 C1428 1.369 . S
C1429 C1438 1.429 . S
C1430 C1428 1.419 1_655 S
C1430 C1431 1.363 . S
C1430 H1433 0.929 . S
C1431 C1430 1.363 . S
C1431 C1437 1.428 . S
H1432 C1428 0.930 . S
H1433 C1430 0.929 . S
S1434 N1435 1.613 . S
S1434 N1436 1.610 1_455 S
N1435 S1434 1.613 . S
N1435 C1438 1.350 . S
N1436 S1434 1.610 1_655 S
N1436 C1437 1.351 . S
C1437 C1431 1.428 . S
C1437 N1436 1.351 . S
C1437 C1438 1.434 1_655 S
C1438 C1429 1.429 . S
C1438 N1435 1.350 . S
C1438 C1437 1.434 1_455 S
C1439 C1440 1.369 . S
C1439 C1441 1.419 . S
C1439 H1443 0.930 . S
C1440 C1439 1.369 . S
C1440 C1449 1.429 . S
C1441 C1439 1.419 . S
C1441 C1442 1.363 . S
C1441 H1444 0.929 . S
C1442 C1441 1.363 . S
C1442 C1448 1.428 . S
H1443 C1439 0.930 . S
H1444 C1441 0.929 . S
S1445 N1446 1.613 . S
S1445 N1447 1.610 . S
N1446 S1445 1.613 . S
N1446 C1449 1.350 . S
N1447 S1445 1.610 . S
N1447 C1448 1.351 . S
C1448 C1442 1.428 . S
C1448 N1447 1.351 . S
C1448 C1449 1.434 . S
C1449 C1440 1.429 . S
C1449 N1446 1.350 . S
C1449 C1448 1.434 . S
C1450 C1451 1.369 1_565 S
C1450 C1452 1.419 . S
C1450 H1454 0.930 . S
C1451 C1450 1.369 1_545 S
C1451 C1460 1.429 . S
C1452 C1450 1.419 . S
C1452 C1453 1.363 . S
C1452 H1455 0.929 . S
C1453 C1452 1.363 . S
C1453 C1459 1.428 1_565 S
H1454 C1450 0.930 . S
H1455 C1452 0.929 . S
S1456 N1457 1.613 . S
S1456 N1458 1.610 . S
N1457 S1456 1.613 . S
N1457 C1460 1.350 . S
N1458 S1456 1.610 . S
N1458 C1459 1.351 . S
C1459 C1453 1.428 1_545 S
C1459 N1458 1.351 . S
C1459 C1460 1.434 . S
C1460 C1451 1.429 . S
C1460 N1457 1.350 . S
C1460 C1459 1.434 . S
C1461 C1462 1.357 1_556 S
C1461 C1463 1.429 . S
C1461 H1465 0.931 . S
C1462 C1461 1.357 1_554 S
C1462 C1471 1.429 1_565 S
C1463 C1461 1.429 . S
C1463 C1464 1.363 1_565 S
C1463 H1466 0.929 . S
C1464 C1463 1.363 1_545 S
C1464 C1470 1.385 1_556 S
H1465 C1461 0.931 . S
H1466 C1463 0.929 . S
S1467 N1468 1.613 . S
S1467 N1469 1.610 . S
N1468 S1467 1.613 . S
N1468 C1471 1.350 . S
N1469 S1467 1.610 . S
N1469 C1470 1.359 . S
C1470 C1464 1.385 1_554 S
C1470 N1469 1.359 . S
C1470 C1471 1.475 . S
C1471 C1462 1.429 1_545 S
C1471 N1468 1.350 . S
C1471 C1470 1.475 . S
C1472 C1473 1.369 1_455 S
C1472 C1474 1.419 . S
C1472 H1476 0.930 . S
C1473 C1472 1.369 1_655 S
C1473 C1482 1.429 1_556 S
C1474 C1472 1.419 . S
C1474 C1475 1.363 1_556 S
C1474 H1477 0.929 . S
C1475 C1474 1.363 1_554 S
C1475 C1481 1.428 1_455 S
H1476 C1472 0.930 . S
H1477 C1474 0.929 . S
S1478 N1479 1.613 . S
S1478 N1480 1.610 . S
N1479 S1478 1.613 . S
N1479 C1482 1.350 . S
N1480 S1478 1.610 . S
N1480 C1481 1.351 . S
C1481 C1475 1.428 1_655 S
C1481 N1480 1.351 . S
C1481 C1482 1.434 . S
C1482 C1473 1.429 1_554 S
C1482 N1479 1.350 . S
C1482 C1481 1.434 . S
C1483 C1484 1.369 . S
C1483 C1485 1.419 1_556 S
C1483 H1487 0.930 . S
C1484 C1483 1.369 . S
C1484 C1493 1.429 . S
C1485 C1483 1.419 1_554 S
C1485 C1486 1.363 . S
C1485 H1488 0.929 . S
C1486 C1485 1.363 . S
C1486 C1492 1.428 . S
H1487 C1483 0.930 . S
H1488 C1485 0.929 . S
S1489 N1490 1.613 . S
S1489 N1491 1.610 1_556 S
N1490 S1489 1.613 . S
N1490 C1493 1.350 . S
N1491 S1489 1.610 1_554 S
N1491 C1492 1.351 . S
C1492 C1486 1.428 . S
C1492 N1491 1.351 . S
C1492 C1493 1.434 1_554 S
C1493 C1484 1.429 . S
C1493 N1490 1.350 . S
C1493 C1492 1.434 1_556 S
C1494 C1495 1.369 . S
C1494 C1496 1.419 . S
C1494 H1498 0.930 . S
C1495 C1494 1.369 . S
C1495 C1504 1.429 1_545 S
C1496 C1494 1.419 . S
C1496 C1497 1.363 1_545 S
C1496 H1499 0.929 . S
C1497 C1496 1.363 1_565 S
C1497 C1503 1.428 . S
H1498 C1494 0.930 . S
H1499 C1496 0.929 . S
S1500 N1501 1.613 . S
S1500 N1502 1.610 . S
N1501 S1500 1.613 . S
N1501 C1504 1.350 . S
N1502 S1500 1.610 . S
N1502 C1503 1.351 . S
C1503 C1497 1.428 . S
C1503 N1502 1.351 . S
C1503 C1504 1.434 . S
C1504 C1495 1.429 1_565 S
C1504 N1501 1.350 . S
C1504 C1503 1.434 . S
C1505 C1506 1.369 . S
C1505 C1507 1.419 . S
C1505 H1509 0.930 . S
C1506 C1505 1.369 . S
C1506 C1515 1.429 1_455 S
C1507 C1505 1.419 . S
C1507 C1508 1.363 1_455 S
C1507 H1510 0.929 . S
C1508 C1507 1.363 1_655 S
C1508 C1514 1.428 . S
H1509 C1505 0.930 . S
H1510 C1507 0.929 . S
S1511 N1512 1.613 . S
S1511 N1513 1.610 . S
N1512 S1511 1.613 . S
N1512 C1515 1.350 . S
N1513 S1511 1.610 . S
N1513 C1514 1.351 . S
C1514 C1508 1.428 . S
C1514 N1513 1.351 . S
C1514 C1515 1.434 . S
C1515 C1506 1.429 1_655 S
C1515 N1512 1.350 . S
C1515 C1514 1.434 . S
C1516 C1517 1.369 . S
C1516 C1518 1.419 . S
C1516 H1520 0.930 . S
C1517 C1516 1.369 . S
C1517 C1526 1.429 . S
C1518 C1516 1.419 . S
C1518 C1519 1.363 . S
C1518 H1521 0.929 . S
C1519 C1518 1.363 . S
C1519 C1525 1.428 . S
H1520 C1516 0.930 . S
H1521 C1518 0.929 . S
S1522 N1523 1.613 . S
S1522 N1524 1.610 . S
N1523 S1522 1.613 . S
N1523 C1526 1.350 . S
N1524 S1522 1.610 . S
N1524 C1525 1.351 . S
C1525 C1519 1.428 . S
C1525 N1524 1.351 . S
C1525 C1526 1.434 . S
C1526 C1517 1.429 . S
C1526 N1523 1.350 . S
C1526 C1525 1.434 . S
C1527 C1528 1.369 . S
C1527 C1529 1.419 . S
C1527 H1531 0.930 . S
C1528 C1527 1.369 . S
C1528 C1537 1.429 1_655 S
C1529 C1527 1.419 . S
C1529 C1530 1.363 1_655 S
C1529 H1532 0.929 . S
C1530 C1529 1.363 1_455 S
C1530 C1536 1.428 . S
H1531 C1527 0.930 . S
H1532 C1529 0.929 . S
S1533 N1534 1.613 . S
S1533 N1535 1.610 . S
N1534 S1533 1.613 . S
N1534 C1537 1.350 . S
N1535 S1533 1.610 . S
N1535 C1536 1.351 . S
C1536 C1530 1.428 . S
C1536 N1535 1.351 . S
C1536 C1537 1.434 . S
C1537 C1528 1.429 1_455 S
C1537 N1534 1.350 . S
C1537 C1536 1.434 . S
C1538 C1539 1.369 . S
C1538 C1540 1.419 . S
C1538 H1542 0.930 . S
C1539 C1538 1.369 . S
C1539 C1548 1.429 . S
C1540 C1538 1.419 . S
C1540 C1541 1.363 . S
C1540 H1543 0.929 . S
C1541 C1540 1.363 . S
C1541 C1547 1.428 . S
H1542 C1538 0.930 . S
H1543 C1540 0.929 . S
S1544 N1545 1.613 . S
S1544 N1546 1.610 . S
N1545 S1544 1.613 . S
N1545 C1548 1.350 . S
N1546 S1544 1.610 . S
N1546 C1547 1.351 . S
C1547 C1541 1.428 . S
C1547 N1546 1.351 . S
C1547 C1548 1.434 . S
C1548 C1539 1.429 . S
C1548 N1545 1.350 . S
C1548 C1547 1.434 . S
C1549 C1550 1.369 . S
C1549 C1551 1.419 1_545 S
C1549 H1553 0.930 . S
C1550 C1549 1.369 . S
C1550 C1559 1.429 . S
C1551 C1549 1.419 1_565 S
C1551 C1552 1.363 . S
C1551 H1554 0.929 . S
C1552 C1551 1.363 . S
C1552 C1558 1.428 1_565 S
H1553 C1549 0.930 . S
H1554 C1551 0.929 . S
S1555 N1556 1.613 . S
S1555 N1557 1.607 1_545 S
N1556 S1555 1.613 . S
N1556 C1559 1.350 . S
N1557 S1555 1.607 1_565 S
N1557 C1558 1.356 1_565 S
C1558 C1552 1.428 1_545 S
C1558 N1557 1.356 1_545 S
C1558 C1559 1.434 . S
C1559 C1550 1.429 . S
C1559 N1556 1.350 . S
C1559 C1558 1.434 . S
C1560 C1561 1.369 1_545 S
C1560 C1562 1.419 . S
C1560 H1564 0.930 . S
C1561 C1560 1.369 1_565 S
C1561 C1570 1.429 . S
C1562 C1560 1.419 . S
C1562 C1563 1.363 . S
C1562 H1565 0.929 . S
C1563 C1562 1.363 . S
C1563 C1569 1.428 1_545 S
H1564 C1560 0.930 . S
H1565 C1562 0.929 . S
S1566 N1567 1.613 . S
S1566 N1568 1.610 . S
N1567 S1566 1.613 . S
N1567 C1570 1.350 . S
N1568 S1566 1.610 . S
N1568 C1569 1.351 . S
C1569 C1563 1.428 1_565 S
C1569 N1568 1.351 . S
C1569 C1570 1.434 . S
C1570 C1561 1.429 . S
C1570 N1567 1.350 . S
C1570 C1569 1.434 . S
C1571 C1572 1.369 1_455 S
C1571 C1573 1.419 . S
C1571 H1575 0.930 . S
C1572 C1571 1.369 1_655 S
C1572 C1581 1.429 . S
C1573 C1571 1.419 . S
C1573 C1574 1.363 . S
C1573 H1576 0.929 . S
C1574 C1573 1.363 . S
C1574 C1580 1.428 1_455 S
H1575 C1571 0.930 . S
H1576 C1573 0.929 . S
S1577 N1578 1.613 . S
S1577 N1579 1.610 . S
N1578 S1577 1.613 . S
N1578 C1581 1.350 . S
N1579 S1577 1.610 . S
N1579 C1580 1.351 . S
C1580 C1574 1.428 1_655 S
C1580 N1579 1.351 . S
C1580 C1581 1.434 . S
C1581 C1572 1.429 . S
C1581 N1578 1.350 . S
C1581 C1580 1.434 . S
C1582 C1583 1.369 . S
C1582 C1584 1.419 . S
C1582 H1586 0.930 . S
C1583 C1582 1.369 . S
C1583 C1592 1.429 . S
C1584 C1582 1.419 . S
C1584 C1585 1.363 . S
C1584 H1587 0.929 . S
C1585 C1584 1.363 . S
C1585 C1591 1.428 . S
H1586 C1582 0.930 . S
H1587 C1584 0.929 . S
S1588 N1589 1.613 . S
S1588 N1590 1.610 . S
N1589 S1588 1.613 . S
N1589 C1592 1.350 . S
N1590 S1588 1.610 . S
N1590 C1591 1.351 . S
C1591 C1585 1.428 . S
C1591 N1590 1.351 . S
C1591 C1592 1.434 . S
C1592 C1583 1.429 . S
C1592 N1589 1.350 . S
C1592 C1591 1.434 . S
C1593 C1594 1.369 . S
C1593 C1595 1.419 . S
C1593 H1597 0.930 . S
C1594 C1593 1.369 . S
C1594 C1603 1.429 1_655 S
C1595 C1593 1.419 . S
C1595 C1596 1.363 1_655 S
C1595 H1598 0.929 . S
C1596 C1595 1.363 1_455 S
C1596 C1602 1.428 . S
H1597 C1593 0.930 . S
H1598 C1595 0.929 . S
S1599 N1600 1.613 . S
S1599 N1601 1.610 . S
N1600 S1599 1.613 . S
N1600 C1603 1.350 . S
N1601 S1599 1.610 . S
N1601 C1602 1.351 . S
C1602 C1596 1.428 . S
C1602 N1601 1.351 . S
C1602 C1603 1.434 . S
C1603 C1594 1.429 1_455 S
C1603 N1600 1.350 . S
C1603 C1602 1.434 . S
C1604 C1605 1.369 . S
C1604 C1606 1.419 . S
C1604 H1608 0.930 . S
C1605 C1604 1.369 . S
C1605 C1614 1.429 . S
C1606 C1604 1.419 . S
C1606 C1607 1.363 . S
C1606 H1609 0.929 . S
C1607 C1606 1.363 . S
C1607 C1613 1.428 . S
H1608 C1604 0.930 . S
H1609 C1606 0.929 . S
S1610 N1611 1.613 . S
S1610 N1612 1.610 . S
N1611 S1610 1.613 . S
N1611 C1614 1.350 . S
N1612 S1610 1.610 . S
N1612 C1613 1.351 . S
C1613 C1607 1.428 . S
C1613 N1612 1.351 . S
C1613 C1614 1.434 . S
C1614 C1605 1.429 . S
C1614 N1611 1.350 . S
C1614 C1613 1.434 . S
C1615 C1616 1.369 . S
C1615 C1617 1.419 . S
C1615 H1619 0.930 . S
C1616 C1615 1.369 . S
C1616 C1625 1.429 1_545 S
C1617 C1615 1.419 . S
C1617 C1618 1.363 1_545 S
C1617 H1620 0.929 . S
C1618 C1617 1.363 1_565 S
C1618 C1624 1.428 . S
H1619 C1615 0.930 . S
H1620 C1617 0.929 . S
S1621 N1622 1.613 . S
S1621 N1623 1.610 . S
N1622 S1621 1.613 . S
N1622 C1625 1.350 . S
N1623 S1621 1.610 . S
N1623 C1624 1.351 . S
C1624 C1618 1.428 . S
C1624 N1623 1.351 . S
C1624 C1625 1.434 . S
C1625 C1616 1.429 1_565 S
C1625 N1622 1.350 . S
C1625 C1624 1.434 . S
C1626 C1627 1.369 . S
C1626 C1628 1.419 . S
C1626 H1630 0.930 . S
C1627 C1626 1.369 . S
C1627 C1636 1.429 . S
C1628 C1626 1.419 . S
C1628 C1629 1.363 . S
C1628 H1631 0.929 . S
C1629 C1628 1.363 . S
C1629 C1635 1.428 . S
H1630 C1626 0.930 . S
H1631 C1628 0.929 . S
S1632 N1633 1.613 . S
S1632 N1634 1.610 . S
N1633 S1632 1.613 . S
N1633 C1636 1.350 . S
N1634 S1632 1.610 . S
N1634 C1635 1.351 . S
C1635 C1629 1.428 . S
C1635 N1634 1.351 . S
C1635 C1636 1.434 . S
C1636 C1627 1.429 . S
C1636 N1633 1.350 . S
C1636 C1635 1.434 . S
C1637 C1638 1.369 . S
C1637 C1639 1.419 1_545 S
C1637 H1641 0.930 . S
C1638 C1637 1.369 . S
C1638 C1647 1.429 . S
C1639 C1637 1.419 1_565 S
C1639 C1640 1.363 . S
C1639 H1642 0.929 . S
C1640 C1639 1.363 . S
C1640 C1646 1.428 . S
H1641 C1637 0.930 . S
H1642 C1639 0.929 . S
S1643 N1644 1.613 1_565 S
S1643 N1645 1.610 . S
N1644 S1643 1.613 1_545 S
N1644 C1647 1.350 . S
N1645 S1643 1.610 . S
N1645 C1646 1.351 . S
C1646 C1640 1.428 . S
C1646 N1645 1.351 . S
C1646 C1647 1.434 1_565 S
C1647 C1638 1.429 . S
C1647 N1644 1.350 . S
C1647 C1646 1.434 1_545 S
C1648 C1649 1.369 . S
C1648 C1650 1.419 1_655 S
C1648 H1652 0.930 . S
C1649 C1648 1.369 . S
C1649 C1658 1.429 . S
C1650 C1648 1.419 1_455 S
C1650 C1651 1.363 . S
C1650 H1653 0.929 . S
C1651 C1650 1.363 . S
C1651 C1657 1.428 . S
H1652 C1648 0.930 . S
H1653 C1650 0.929 . S
S1654 N1655 1.613 . S
S1654 N1656 1.610 1_655 S
N1655 S1654 1.613 . S
N1655 C1658 1.350 . S
N1656 S1654 1.610 1_455 S
N1656 C1657 1.351 . S
C1657 C1651 1.428 . S
C1657 N1656 1.351 . S
C1657 C1658 1.434 1_455 S
C1658 C1649 1.429 . S
C1658 N1655 1.350 . S
C1658 C1657 1.434 1_655 S
C1659 C1660 1.369 . S
C1659 C1661 1.419 . S
C1659 H1663 0.930 . S
C1660 C1659 1.369 . S
C1660 C1669 1.429 . S
C1661 C1659 1.419 . S
C1661 C1662 1.363 . S
C1661 H1664 0.929 . S
C1662 C1661 1.363 . S
C1662 C1668 1.428 . S
H1663 C1659 0.930 . S
H1664 C1661 0.929 . S
S1665 N1666 1.613 . S
S1665 N1667 1.610 . S
N1666 S1665 1.613 . S
N1666 C1669 1.350 . S
N1667 S1665 1.610 . S
N1667 C1668 1.351 . S
C1668 C1662 1.428 . S
C1668 N1667 1.351 . S
C1668 C1669 1.434 . S
C1669 C1660 1.429 . S
C1669 N1666 1.350 . S
C1669 C1668 1.434 . S
C1670 C1671 1.369 . S
C1670 C1672 1.419 1_565 S
C1670 H1674 0.930 . S
C1671 C1670 1.369 . S
C1671 C1680 1.429 . S
C1672 C1670 1.419 1_545 S
C1672 C1673 1.363 . S
C1672 H1675 0.929 . S
C1673 C1672 1.363 . S
C1673 C1679 1.428 . S
H1674 C1670 0.930 . S
H1675 C1672 0.929 . S
S1676 N1677 1.613 1_545 S
S1676 N1678 1.610 . S
N1677 S1676 1.613 1_565 S
N1677 C1680 1.350 . S
N1678 S1676 1.610 . S
N1678 C1679 1.351 . S
C1679 C1673 1.428 . S
C1679 N1678 1.351 . S
C1679 C1680 1.434 1_545 S
C1680 C1671 1.429 . S
C1680 N1677 1.350 . S
C1680 C1679 1.434 1_565 S
C1681 C1682 1.369 . S
C1681 C1683 1.419 1_655 S
C1681 H1685 0.930 . S
C1682 C1681 1.369 . S
C1682 C1691 1.429 . S
C1683 C1681 1.419 1_455 S
C1683 C1684 1.363 . S
C1683 H1686 0.929 . S
C1684 C1683 1.363 . S
C1684 C1690 1.428 . S
H1685 C1681 0.930 . S
H1686 C1683 0.929 . S
S1687 N1688 1.613 1_455 S
S1687 N1689 1.610 . S
N1688 S1687 1.613 1_655 S
N1688 C1691 1.350 . S
N1689 S1687 1.610 . S
N1689 C1690 1.351 . S
C1690 C1684 1.428 . S
C1690 N1689 1.351 . S
C1690 C1691 1.434 1_455 S
C1691 C1682 1.429 . S
C1691 N1688 1.350 . S
C1691 C1690 1.434 1_655 S
C1692 C1693 1.369 . S
C1692 C1694 1.419 . S
C1692 H1696 0.930 . S
C1693 C1692 1.369 . S
C1693 C1702 1.429 . S
C1694 C1692 1.419 . S
C1694 C1695 1.363 . S
C1694 H1697 0.929 . S
C1695 C1694 1.363 . S
C1695 C1701 1.428 . S
H1696 C1692 0.930 . S
H1697 C1694 0.929 . S
S1698 N1699 1.613 . S
S1698 N1700 1.610 . S
N1699 S1698 1.613 . S
N1699 C1702 1.350 . S
N1700 S1698 1.610 . S
N1700 C1701 1.351 . S
C1701 C1695 1.428 . S
C1701 N1700 1.351 . S
C1701 C1702 1.434 . S
C1702 C1693 1.429 . S
C1702 N1699 1.350 . S
C1702 C1701 1.434 . S
C1703 C1704 1.369 . S
C1703 C1705 1.419 . S
C1703 H1707 0.930 . S
C1704 C1703 1.369 . S
C1704 C1713 1.429 . S
C1705 C1703 1.419 . S
C1705 C1706 1.363 . S
C1705 H1708 0.929 . S
C1706 C1705 1.363 . S
C1706 C1712 1.428 . S
H1707 C1703 0.930 . S
H1708 C1705 0.929 . S
S1709 N1710 1.613 . S
S1709 N1711 1.610 . S
N1710 S1709 1.613 . S
N1710 C1713 1.350 . S
N1711 S1709 1.610 . S
N1711 C1712 1.351 . S
C1712 C1706 1.428 . S
C1712 N1711 1.351 . S
C1712 C1713 1.434 . S
C1713 C1704 1.429 . S
C1713 N1710 1.350 . S
C1713 C1712 1.434 . S
C1714 C1715 1.369 . S
C1714 C1716 1.419 . S
C1714 H1718 0.930 . S
C1715 C1714 1.369 . S
C1715 C1724 1.429 . S
C1716 C1714 1.419 . S
C1716 C1717 1.363 . S
C1716 H1719 0.929 . S
C1717 C1716 1.363 . S
C1717 C1723 1.428 . S
H1718 C1714 0.930 . S
H1719 C1716 0.929 . S
S1720 N1721 1.613 1_455 S
S1720 N1722 1.610 . S
N1721 S1720 1.613 1_655 S
N1721 C1724 1.350 1_655 S
N1722 S1720 1.610 . S
N1722 C1723 1.351 . S
C1723 C1717 1.428 . S
C1723 N1722 1.351 . S
C1723 C1724 1.434 . S
C1724 C1715 1.429 . S
C1724 N1721 1.350 1_455 S
C1724 C1723 1.434 . S
C1725 C1726 1.369 . S
C1725 C1727 1.419 . S
C1725 H1729 0.930 . S
C1726 C1725 1.369 . S
C1726 C1735 1.429 . S
C1727 C1725 1.419 . S
C1727 C1728 1.363 . S
C1727 H1730 0.929 . S
C1728 C1727 1.363 . S
C1728 C1734 1.428 . S
H1729 C1725 0.930 . S
H1730 C1727 0.929 . S
S1731 N1732 1.613 . S
S1731 N1733 1.610 . S
N1732 S1731 1.613 . S
N1732 C1735 1.350 . S
N1733 S1731 1.610 . S
N1733 C1734 1.351 . S
C1734 C1728 1.428 . S
C1734 N1733 1.351 . S
C1734 C1735 1.434 . S
C1735 C1726 1.429 . S
C1735 N1732 1.350 . S
C1735 C1734 1.434 . S
C1736 C1737 1.369 . S
C1736 C1738 1.419 . S
C1736 H1740 0.930 . S
C1737 C1736 1.369 . S
C1737 C1746 1.429 . S
C1738 C1736 1.419 . S
C1738 C1739 1.363 . S
C1738 H1741 0.929 1_545 S
C1739 C1738 1.363 . S
C1739 C1745 1.428 . S
H1740 C1736 0.930 . S
H1741 C1738 0.929 1_565 S
S1742 N1743 1.613 . S
S1742 N1744 1.610 . S
N1743 S1742 1.613 . S
N1743 C1746 1.350 . S
N1744 S1742 1.610 . S
N1744 C1745 1.351 . S
C1745 C1739 1.428 . S
C1745 N1744 1.351 . S
C1745 C1746 1.434 . S
C1746 C1737 1.429 . S
C1746 N1743 1.350 . S
C1746 C1745 1.434 . S
C1747 C1748 1.369 . S
C1747 C1749 1.419 . S
C1747 H1751 0.930 1_655 S
C1748 C1747 1.369 . S
C1748 C1757 1.429 . S
C1749 C1747 1.419 . S
C1749 C1750 1.363 . S
C1749 H1752 0.929 . S
C1750 C1749 1.363 . S
C1750 C1756 1.428 . S
H1751 C1747 0.930 1_455 S
H1752 C1749 0.929 . S
S1753 N1754 1.613 . S
S1753 N1755 1.610 . S
N1754 S1753 1.613 . S
N1754 C1757 1.350 . S
N1755 S1753 1.610 . S
N1755 C1756 1.351 . S
C1756 C1750 1.428 . S
C1756 N1755 1.351 . S
C1756 C1757 1.434 . S
C1757 C1748 1.429 . S
C1757 N1754 1.350 . S
C1757 C1756 1.434 . S
C1758 C1759 1.369 . S
C1758 C1760 1.419 . S
C1758 H1762 0.930 . S
C1759 C1758 1.369 . S
C1759 C1768 1.429 . S
C1760 C1758 1.419 . S
C1760 C1761 1.363 . S
C1760 H1763 0.929 . S
C1761 C1760 1.363 . S
C1761 C1767 1.428 . S
H1762 C1758 0.930 . S
H1763 C1760 0.929 . S
S1764 N1765 1.613 . S
S1764 N1766 1.610 . S
N1765 S1764 1.613 . S
N1765 C1768 1.350 . S
N1766 S1764 1.610 . S
N1766 C1767 1.351 . S
C1767 C1761 1.428 . S
C1767 N1766 1.351 . S
C1767 C1768 1.434 . S
C1768 C1759 1.429 . S
C1768 N1765 1.350 . S
C1768 C1767 1.434 . S
C1769 C1770 1.369 . S
C1769 C1771 1.419 . S
C1769 H1773 0.930 . S
C1770 C1769 1.369 . S
C1770 C1779 1.429 . S
C1771 C1769 1.419 . S
C1771 C1772 1.363 . S
C1771 H1774 0.929 . S
C1772 C1771 1.363 . S
C1772 C1778 1.428 . S
H1773 C1769 0.930 . S
H1774 C1771 0.929 . S
S1775 N1776 1.613 . S
S1775 N1777 1.610 1_565 S
N1776 S1775 1.613 . S
N1776 C1779 1.350 1_565 S
N1777 S1775 1.610 1_545 S
N1777 C1778 1.351 . S
C1778 C1772 1.428 . S
C1778 N1777 1.351 . S
C1778 C1779 1.434 . S
C1779 C1770 1.429 . S
C1779 N1776 1.350 1_545 S
C1779 C1778 1.434 . S
C1780 C1781 1.369 . S
C1780 C1782 1.419 . S
C1780 H1784 0.930 1_655 S
C1781 C1780 1.369 . S
C1781 C1790 1.429 . S
C1782 C1780 1.419 . S
C1782 C1783 1.363 . S
C1782 H1785 0.929 . S
C1783 C1782 1.363 . S
C1783 C1789 1.428 . S
H1784 C1780 0.930 1_455 S
H1785 C1782 0.929 . S
S1786 N1787 1.613 . S
S1786 N1788 1.610 . S
N1787 S1786 1.613 . S
N1787 C1790 1.350 . S
N1788 S1786 1.610 . S
N1788 C1789 1.351 . S
C1789 C1783 1.428 . S
C1789 N1788 1.351 . S
C1789 C1790 1.434 . S
C1790 C1781 1.429 . S
C1790 N1787 1.350 . S
C1790 C1789 1.434 . S
C1791 C1792 1.369 . S
C1791 C1793 1.419 . S
C1791 H1795 0.930 . S
C1792 C1791 1.369 . S
C1792 C1801 1.429 . S
C1793 C1791 1.419 . S
C1793 C1794 1.363 . S
C1793 H1796 0.929 . S
C1794 C1793 1.363 . S
C1794 C1800 1.428 . S
H1795 C1791 0.930 . S
H1796 C1793 0.929 . S
S1797 N1798 1.613 . S
S1797 N1799 1.610 . S
N1798 S1797 1.613 . S
N1798 C1801 1.350 . S
N1799 S1797 1.610 . S
N1799 C1800 1.351 . S
C1800 C1794 1.428 . S
C1800 N1799 1.351 . S
C1800 C1801 1.434 . S
C1801 C1792 1.429 . S
C1801 N1798 1.350 . S
C1801 C1800 1.434 . S
C1802 C1803 1.369 . S
C1802 C1804 1.419 . S
C1802 H1806 0.930 1_565 S
C1803 C1802 1.369 . S
C1803 C1812 1.429 . S
C1804 C1802 1.419 . S
C1804 C1805 1.363 . S
C1804 H1807 0.929 . S
C1805 C1804 1.363 . S
C1805 C1811 1.428 . S
H1806 C1802 0.930 1_545 S
H1807 C1804 0.929 . S
S1808 N1809 1.613 . S
S1808 N1810 1.610 . S
N1809 S1808 1.613 . S
N1809 C1812 1.350 . S
N1810 S1808 1.610 . S
N1810 C1811 1.351 . S
C1811 C1805 1.428 . S
C1811 N1810 1.351 . S
C1811 C1812 1.434 . S
C1812 C1803 1.429 . S
C1812 N1809 1.350 . S
C1812 C1811 1.434 . S
C1813 C1814 1.369 . S
C1813 C1815 1.419 . S
C1813 H1817 0.930 . S
C1814 C1813 1.369 . S
C1814 C1823 1.429 . S
C1815 C1813 1.419 . S
C1815 C1816 1.363 . S
C1815 H1818 0.929 1_455 S
C1816 C1815 1.363 . S
C1816 C1822 1.428 . S
H1817 C1813 0.930 . S
H1818 C1815 0.929 1_655 S
S1819 N1820 1.613 . S
S1819 N1821 1.610 . S
N1820 S1819 1.613 . S
N1820 C1823 1.350 . S
N1821 S1819 1.610 . S
N1821 C1822 1.351 . S
C1822 C1816 1.428 . S
C1822 N1821 1.351 . S
C1822 C1823 1.434 . S
C1823 C1814 1.429 . S
C1823 N1820 1.350 . S
C1823 C1822 1.434 . S
C1824 C1825 1.369 . S
C1824 C1826 1.419 . S
C1824 H1828 0.930 . S
C1825 C1824 1.369 . S
C1825 C1834 1.429 . S
C1826 C1824 1.419 . S
C1826 C1827 1.363 . S
C1826 H1829 0.929 . S
C1827 C1826 1.363 . S
C1827 C1833 1.428 . S
H1828 C1824 0.930 . S
H1829 C1826 0.929 . S
S1830 N1831 1.613 . S
S1830 N1832 1.610 . S
N1831 S1830 1.613 . S
N1831 C1834 1.350 . S
N1832 S1830 1.610 . S
N1832 C1833 1.351 . S
C1833 C1827 1.428 . S
C1833 N1832 1.351 . S
C1833 C1834 1.434 . S
C1834 C1825 1.429 . S
C1834 N1831 1.350 . S
C1834 C1833 1.434 . S
C1835 C1836 1.369 . S
C1835 C1837 1.419 . S
C1835 H1839 0.930 . S
C1836 C1835 1.369 . S
C1836 C1845 1.429 . S
C1837 C1835 1.419 . S
C1837 C1838 1.363 . S
C1837 H1840 0.929 . S
C1838 C1837 1.363 . S
C1838 C1844 1.428 . S
H1839 C1835 0.930 . S
H1840 C1837 0.929 . S
S1841 N1842 1.613 . S
S1841 N1843 1.610 . S
N1842 S1841 1.613 . S
N1842 C1845 1.350 . S
N1843 S1841 1.610 . S
N1843 C1844 1.351 . S
C1844 C1838 1.428 . S
C1844 N1843 1.351 . S
C1844 C1845 1.434 . S
C1845 C1836 1.429 . S
C1845 N1842 1.350 . S
C1845 C1844 1.434 . S
C1846 C1847 1.369 . S
C1846 C1848 1.419 . S
C1846 H1850 0.930 . S
C1847 C1846 1.369 . S
C1847 C1856 1.429 . S
C1848 C1846 1.419 . S
C1848 C1849 1.363 . S
C1848 H1851 0.929 . S
C1849 C1848 1.363 . S
C1849 C1855 1.428 . S
H1850 C1846 0.930 . S
H1851 C1848 0.929 . S
S1852 N1853 1.613 . S
S1852 N1854 1.610 . S
N1853 S1852 1.613 . S
N1853 C1856 1.350 . S
N1854 S1852 1.610 . S
N1854 C1855 1.351 . S
C1855 C1849 1.428 . S
C1855 N1854 1.351 . S
C1855 C1856 1.434 . S
C1856 C1847 1.429 . S
C1856 N1853 1.350 . S
C1856 C1855 1.434 . S
C1857 C1858 1.369 . S
C1857 C1859 1.419 . S
C1857 H1861 0.930 . S
C1858 C1857 1.369 . S
C1858 C1867 1.429 . S
C1859 C1857 1.419 . S
C1859 C1860 1.363 . S
C1859 H1862 0.929 . S
C1860 C1859 1.363 . S
C1860 C1866 1.428 . S
H1861 C1857 0.930 . S
H1862 C1859 0.929 . S
S1863 N1864 1.613 . S
S1863 N1865 1.610 . S
N1864 S1863 1.613 . S
N1864 C1867 1.350 . S
N1865 S1863 1.610 . S
N1865 C1866 1.351 . S
C1866 C1860 1.428 . S
C1866 N1865 1.351 . S
C1866 C1867 1.434 . S
C1867 C1858 1.429 . S
C1867 N1864 1.350 . S
C1867 C1866 1.434 . S
C1868 C1869 1.369 . S
C1868 C1870 1.419 . S
C1868 H1872 0.930 . S
C1869 C1868 1.369 . S
C1869 C1878 1.429 . S
C1870 C1868 1.419 . S
C1870 C1871 1.363 . S
C1870 H1873 0.929 . S
C1871 C1870 1.363 . S
C1871 C1877 1.428 . S
H1872 C1868 0.930 . S
H1873 C1870 0.929 . S
S1874 N1875 1.613 . S
S1874 N1876 1.610 . S
N1875 S1874 1.613 . S
N1875 C1878 1.350 . S
N1876 S1874 1.610 . S
N1876 C1877 1.351 . S
C1877 C1871 1.428 . S
C1877 N1876 1.351 . S
C1877 C1878 1.434 . S
C1878 C1869 1.429 . S
C1878 N1875 1.350 . S
C1878 C1877 1.434 . S
C1879 C1880 1.369 . S
C1879 C1881 1.419 . S
C1879 H1883 0.930 . S
C1880 C1879 1.369 . S
C1880 C1889 1.429 . S
C1881 C1879 1.419 . S
C1881 C1882 1.363 . S
C1881 H1884 0.929 . S
C1882 C1881 1.363 . S
C1882 C1888 1.428 . S
H1883 C1879 0.930 . S
H1884 C1881 0.929 . S
S1885 N1886 1.613 . S
S1885 N1887 1.610 . S
N1886 S1885 1.613 . S
N1886 C1889 1.350 . S
N1887 S1885 1.610 . S
N1887 C1888 1.351 . S
C1888 C1882 1.428 . S
C1888 N1887 1.351 . S
C1888 C1889 1.434 . S
C1889 C1880 1.429 . S
C1889 N1886 1.350 . S
C1889 C1888 1.434 . S
C1890 C1891 1.369 . S
C1890 C1892 1.419 . S
C1890 H1894 0.930 . S
C1891 C1890 1.369 . S
C1891 C1900 1.429 . S
C1892 C1890 1.419 . S
C1892 C1893 1.363 . S
C1892 H1895 0.929 . S
C1893 C1892 1.363 . S
C1893 C1899 1.428 . S
H1894 C1890 0.930 . S
H1895 C1892 0.929 . S
S1896 N1897 1.613 . S
S1896 N1898 1.610 . S
N1897 S1896 1.613 . S
N1897 C1900 1.350 . S
N1898 S1896 1.610 . S
N1898 C1899 1.351 . S
C1899 C1893 1.428 . S
C1899 N1898 1.351 . S
C1899 C1900 1.434 . S
C1900 C1891 1.429 . S
C1900 N1897 1.350 . S
C1900 C1899 1.434 . S
C1901 C1902 1.369 . S
C1901 C1903 1.419 . S
C1901 H1905 0.930 . S
C1902 C1901 1.369 . S
C1902 C1911 1.429 . S
C1903 C1901 1.419 . S
C1903 C1904 1.363 . S
C1903 H1906 0.929 . S
C1904 C1903 1.363 . S
C1904 C1910 1.428 . S
H1905 C1901 0.930 . S
H1906 C1903 0.929 . S
S1907 N1908 1.613 . S
S1907 N1909 1.610 . S
N1908 S1907 1.613 . S
N1908 C1911 1.350 . S
N1909 S1907 1.610 . S
N1909 C1910 1.351 . S
C1910 C1904 1.428 . S
C1910 N1909 1.351 . S
C1910 C1911 1.434 . S
C1911 C1902 1.429 . S
C1911 N1908 1.350 . S
C1911 C1910 1.434 . S
C1912 C1913 1.369 . S
C1912 C1914 1.419 . S
C1912 H1916 0.930 . S
C1913 C1912 1.369 . S
C1913 C1922 1.429 . S
C1914 C1912 1.419 . S
C1914 C1915 1.363 . S
C1914 H1917 0.929 . S
C1915 C1914 1.363 . S
C1915 C1921 1.428 . S
H1916 C1912 0.930 . S
H1917 C1914 0.929 . S
S1918 N1919 1.613 . S
S1918 N1920 1.610 . S
N1919 S1918 1.613 . S
N1919 C1922 1.350 . S
N1920 S1918 1.610 . S
N1920 C1921 1.351 . S
C1921 C1915 1.428 . S
C1921 N1920 1.351 . S
C1921 C1922 1.434 . S
C1922 C1913 1.429 . S
C1922 N1919 1.350 . S
C1922 C1921 1.434 . S
C1923 C1924 1.369 . S
C1923 C1925 1.419 . S
C1923 H1927 0.930 . S
C1924 C1923 1.369 . S
C1924 C1933 1.429 . S
C1925 C1923 1.419 . S
C1925 C1926 1.363 . S
C1925 H1928 0.929 . S
C1926 C1925 1.363 . S
C1926 C1932 1.428 . S
H1927 C1923 0.930 . S
H1928 C1925 0.929 . S
S1929 N1930 1.613 . S
S1929 N1931 1.610 . S
N1930 S1929 1.613 . S
N1930 C1933 1.350 . S
N1931 S1929 1.610 . S
N1931 C1932 1.351 . S
C1932 C1926 1.428 . S
C1932 N1931 1.351 . S
C1932 C1933 1.434 . S
C1933 C1924 1.429 . S
C1933 N1930 1.350 . S
C1933 C1932 1.434 . S
C1934 C1935 1.369 . S
C1934 C1936 1.419 . S
C1934 H1938 0.930 . S
C1935 C1934 1.369 . S
C1935 C1944 1.429 . S
C1936 C1934 1.419 . S
C1936 C1937 1.363 . S
C1936 H1939 0.929 . S
C1937 C1936 1.363 . S
C1937 C1943 1.428 . S
H1938 C1934 0.930 . S
H1939 C1936 0.929 . S
S1940 N1941 1.613 . S
S1940 N1942 1.610 . S
N1941 S1940 1.613 . S
N1941 C1944 1.350 . S
N1942 S1940 1.610 . S
N1942 C1943 1.351 . S
C1943 C1937 1.428 . S
C1943 N1942 1.351 . S
C1943 C1944 1.434 . S
C1944 C1935 1.429 . S
C1944 N1941 1.350 . S
C1944 C1943 1.434 . S
C1945 C1946 1.369 . S
C1945 C1947 1.419 . S
C1945 H1949 0.930 . S
C1946 C1945 1.369 . S
C1946 C1955 1.429 . S
C1947 C1945 1.419 . S
C1947 C1948 1.363 . S
C1947 H1950 0.929 . S
C1948 C1947 1.363 . S
C1948 C1954 1.428 . S
H1949 C1945 0.930 . S
H1950 C1947 0.929 . S
S1951 N1952 1.613 . S
S1951 N1953 1.610 . S
N1952 S1951 1.613 . S
N1952 C1955 1.350 . S
N1953 S1951 1.610 . S
N1953 C1954 1.351 . S
C1954 C1948 1.428 . S
C1954 N1953 1.351 . S
C1954 C1955 1.434 . S
C1955 C1946 1.429 . S
C1955 N1952 1.350 . S
C1955 C1954 1.434 . S
C1956 C1957 1.369 . S
C1956 C1958 1.419 . S
C1956 H1960 0.930 . S
C1957 C1956 1.369 . S
C1957 C1966 1.429 . S
C1958 C1956 1.419 . S
C1958 C1959 1.363 . S
C1958 H1961 0.929 . S
C1959 C1958 1.363 . S
C1959 C1965 1.428 . S
H1960 C1956 0.930 . S
H1961 C1958 0.929 . S
S1962 N1963 1.613 . S
S1962 N1964 1.610 . S
N1963 S1962 1.613 . S
N1963 C1966 1.350 . S
N1964 S1962 1.610 . S
N1964 C1965 1.351 . S
C1965 C1959 1.428 . S
C1965 N1964 1.351 . S
C1965 C1966 1.434 . S
C1966 C1957 1.429 . S
C1966 N1963 1.350 . S
C1966 C1965 1.434 . S
C1967 C1968 1.369 . S
C1967 C1969 1.419 . S
C1967 H1971 0.930 . S
C1968 C1967 1.369 . S
C1968 C1977 1.429 . S
C1969 C1967 1.419 . S
C1969 C1970 1.363 . S
C1969 H1972 0.929 . S
C1970 C1969 1.363 . S
C1970 C1976 1.428 . S
H1971 C1967 0.930 . S
H1972 C1969 0.929 . S
S1973 N1974 1.613 . S
S1973 N1975 1.610 . S
N1974 S1973 1.613 . S
N1974 C1977 1.350 . S
N1975 S1973 1.610 . S
N1975 C1976 1.351 . S
C1976 C1970 1.428 . S
C1976 N1975 1.351 . S
C1976 C1977 1.434 . S
C1977 C1968 1.429 . S
C1977 N1974 1.350 . S
C1977 C1976 1.434 . S
C1978 C1979 1.369 . S
C1978 C1980 1.419 . S
C1978 H1982 0.930 . S
C1979 C1978 1.369 . S
C1979 C1988 1.429 . S
C1980 C1978 1.419 . S
C1980 C1981 1.363 . S
C1980 H1983 0.929 . S
C1981 C1980 1.363 . S
C1981 C1987 1.428 . S
H1982 C1978 0.930 . S
H1983 C1980 0.929 . S
S1984 N1985 1.613 . S
S1984 N1986 1.610 . S
N1985 S1984 1.613 . S
N1985 C1988 1.350 . S
N1986 S1984 1.610 . S
N1986 C1987 1.351 . S
C1987 C1981 1.428 . S
C1987 N1986 1.351 . S
C1987 C1988 1.434 . S
C1988 C1979 1.429 . S
C1988 N1985 1.350 . S
C1988 C1987 1.434 . S
C1989 C1990 1.369 . S
C1989 C1991 1.419 . S
C1989 H1993 0.930 . S
C1990 C1989 1.369 . S
C1990 C1999 1.429 . S
C1991 C1989 1.419 . S
C1991 C1992 1.363 . S
C1991 H1994 0.929 . S
C1992 C1991 1.363 . S
C1992 C1998 1.428 . S
H1993 C1989 0.930 . S
H1994 C1991 0.929 . S
S1995 N1996 1.613 . S
S1995 N1997 1.610 . S
N1996 S1995 1.613 . S
N1996 C1999 1.350 . S
N1997 S1995 1.610 . S
N1997 C1998 1.351 . S
C1998 C1992 1.428 . S
C1998 N1997 1.351 . S
C1998 C1999 1.434 . S
C1999 C1990 1.429 . S
C1999 N1996 1.350 . S
C1999 C1998 1.434 . S
C2000 C2001 1.369 . S
C2000 C2002 1.419 . S
C2000 H2004 0.930 . S
C2001 C2000 1.369 . S
C2001 C2010 1.429 . S
C2002 C2000 1.419 . S
C2002 C2003 1.363 . S
C2002 H2005 0.929 . S
C2003 C2002 1.363 . S
C2003 C2009 1.428 . S
H2004 C2000 0.930 . S
H2005 C2002 0.929 . S
S2006 N2007 1.613 . S
S2006 N2008 1.610 . S
N2007 S2006 1.613 . S
N2007 C2010 1.350 . S
N2008 S2006 1.610 . S
N2008 C2009 1.351 . S
C2009 C2003 1.428 . S
C2009 N2008 1.351 . S
C2009 C2010 1.434 . S
C2010 C2001 1.429 . S
C2010 N2007 1.350 . S
C2010 C2009 1.434 . S
C2011 C2012 1.369 . S
C2011 C2013 1.419 . S
C2011 H2015 0.930 . S
C2012 C2011 1.369 . S
C2012 C2021 1.429 . S
C2013 C2011 1.419 . S
C2013 C2014 1.363 . S
C2013 H2016 0.929 . S
C2014 C2013 1.363 . S
C2014 C2020 1.428 . S
H2015 C2011 0.930 . S
H2016 C2013 0.929 . S
S2017 N2018 1.613 . S
S2017 N2019 1.610 . S
N2018 S2017 1.613 . S
N2018 C2021 1.350 . S
N2019 S2017 1.610 . S
N2019 C2020 1.351 . S
C2020 C2014 1.428 . S
C2020 N2019 1.351 . S
C2020 C2021 1.434 . S
C2021 C2012 1.429 . S
C2021 N2018 1.350 . S
C2021 C2020 1.434 . S
C2022 C2023 1.369 . S
C2022 C2024 1.419 . S
C2022 H2026 0.930 . S
C2023 C2022 1.369 . S
C2023 C2032 1.429 . S
C2024 C2022 1.419 . S
C2024 C2025 1.363 . S
C2024 H2027 0.929 . S
C2025 C2024 1.363 . S
C2025 C2031 1.428 . S
H2026 C2022 0.930 . S
H2027 C2024 0.929 . S
S2028 N2029 1.613 . S
S2028 N2030 1.610 . S
N2029 S2028 1.613 . S
N2029 C2032 1.350 . S
N2030 S2028 1.610 . S
N2030 C2031 1.351 . S
C2031 C2025 1.428 . S
C2031 N2030 1.351 . S
C2031 C2032 1.434 . S
C2032 C2023 1.429 . S
C2032 N2029 1.350 . S
C2032 C2031 1.434 . S
C2033 C2034 1.369 . S
C2033 C2035 1.419 . S
C2033 H2037 0.930 . S
C2034 C2033 1.369 . S
C2034 C2043 1.429 . S
C2035 C2033 1.419 . S
C2035 C2036 1.363 . S
C2035 H2038 0.929 . S
C2036 C2035 1.363 . S
C2036 C2042 1.428 . S
H2037 C2033 0.930 . S
H2038 C2035 0.929 . S
S2039 N2040 1.613 . S
S2039 N2041 1.610 . S
N2040 S2039 1.613 . S
N2040 C2043 1.350 . S
N2041 S2039 1.610 . S
N2041 C2042 1.351 . S
C2042 C2036 1.428 . S
C2042 N2041 1.351 . S
C2042 C2043 1.434 . S
C2043 C2034 1.429 . S
C2043 N2040 1.350 . S
C2043 C2042 1.434 . S
C2044 C2045 1.369 . S
C2044 C2046 1.419 . S
C2044 H2048 0.930 . S
C2045 C2044 1.369 . S
C2045 C2054 1.429 . S
C2046 C2044 1.419 . S
C2046 C2047 1.363 . S
C2046 H2049 0.929 . S
C2047 C2046 1.363 . S
C2047 C2053 1.428 . S
H2048 C2044 0.930 . S
H2049 C2046 0.929 . S
S2050 N2051 1.613 . S
S2050 N2052 1.610 . S
N2051 S2050 1.613 . S
N2051 C2054 1.350 . S
N2052 S2050 1.610 . S
N2052 C2053 1.351 . S
C2053 C2047 1.428 . S
C2053 N2052 1.351 . S
C2053 C2054 1.434 . S
C2054 C2045 1.429 . S
C2054 N2051 1.350 . S
C2054 C2053 1.434 . S
C2055 C2056 1.369 . S
C2055 C2057 1.419 . S
C2055 H2059 0.930 . S
C2056 C2055 1.369 . S
C2056 C2065 1.429 . S
C2057 C2055 1.419 . S
C2057 C2058 1.363 . S
C2057 H2060 0.929 . S
C2058 C2057 1.363 . S
C2058 C2064 1.428 . S
H2059 C2055 0.930 . S
H2060 C2057 0.929 . S
S2061 N2062 1.613 . S
S2061 N2063 1.610 . S
N2062 S2061 1.613 . S
N2062 C2065 1.350 . S
N2063 S2061 1.610 . S
N2063 C2064 1.351 . S
C2064 C2058 1.428 . S
C2064 N2063 1.351 . S
C2064 C2065 1.434 . S
C2065 C2056 1.429 . S
C2065 N2062 1.350 . S
C2065 C2064 1.434 . S
C2066 C2067 1.369 . S
C2066 C2068 1.419 . S
C2066 H2070 0.930 . S
C2067 C2066 1.369 . S
C2067 C2076 1.429 . S
C2068 C2066 1.419 . S
C2068 C2069 1.363 . S
C2068 H2071 0.929 . S
C2069 C2068 1.363 . S
C2069 C2075 1.428 . S
H2070 C2066 0.930 . S
H2071 C2068 0.929 . S
S2072 N2073 1.613 . S
S2072 N2074 1.610 . S
N2073 S2072 1.613 . S
N2073 C2076 1.350 . S
N2074 S2072 1.610 . S
N2074 C2075 1.351 . S
C2075 C2069 1.428 . S
C2075 N2074 1.351 . S
C2075 C2076 1.434 . S
C2076 C2067 1.429 . S
C2076 N2073 1.350 . S
C2076 C2075 1.434 . S
C2077 C2078 1.369 . S
C2077 C2079 1.419 . S
C2077 H2081 0.930 . S
C2078 C2077 1.369 . S
C2078 C2087 1.429 . S
C2079 C2077 1.419 . S
C2079 C2080 1.363 . S
C2079 H2082 0.929 . S
C2080 C2079 1.363 . S
C2080 C2086 1.428 . S
H2081 C2077 0.930 . S
H2082 C2079 0.929 . S
S2083 N2084 1.613 . S
S2083 N2085 1.610 . S
N2084 S2083 1.613 . S
N2084 C2087 1.350 . S
N2085 S2083 1.610 . S
N2085 C2086 1.351 . S
C2086 C2080 1.428 . S
C2086 N2085 1.351 . S
C2086 C2087 1.434 . S
C2087 C2078 1.429 . S
C2087 N2084 1.350 . S
C2087 C2086 1.434 . S
C1297 C14 1.434 . S
C1299 C662 1.429 . S
C1308 C698 1.429 . S
C1310 C50 1.434 . S
C1319 C734 1.434 . S
C1321 C86 1.429 . S
C1330 C122 1.430 . S
C1332 C1202 1.432 . S
C1341 C158 1.432 . S
C1343 C1238 1.431 . S
C1352 C194 1.435 . S
C1354 C1274 1.429 . S
C1363 C878 1.434 . S
C1365 C230 1.429 . S
C1374 C266 1.432 . S
C1376 C914 1.431 . S
C1385 C302 1.433 . S
C1387 C950 1.430 . S
C1396 C554 1.427 . S
C1398 C338 1.434 . S
C1407 C590 1.428 . S
C1409 C374 1.434 . S
C1418 C626 1.431 . S
C1420 C410 1.432 . S
C1429 C1094 1.434 . S
C1431 C446 1.429 . S
C1440 C1130 1.433 . S
C1442 C482 1.430 . S
C1451 C518 1.434 . S
C1453 C1166 1.429 . S
C1462 C986 1.429 . S
C1464 C770 1.432 . S
C1473 C806 1.429 . S
C1475 C1022 1.432 . S
C1484 C842 1.434 . S
C1486 C1058 1.429 . S
C1495 C4 1.462 . S
C1497 C976 1.462 . S
C1506 C1012 1.469 . S
C1508 C40 1.462 . S
C1517 C1048 1.469 . S
C1519 C76 1.463 . S
C1528 C436 1.470 . S
C1530 C112 1.462 . S
C1539 C472 1.467 . S
C1541 C148 1.460 . S
C1550 C508 1.460 . S
C1552 C184 1.468 . S
C1561 C220 1.462 . S
C1563 C760 1.469 . S
C1572 C796 1.468 . S
C1574 C256 1.461 . S
C1583 C832 1.463 . S
C1585 C292 1.468 . S
C1594 C328 1.461 . S
C1596 C1084 1.464 . S
C1605 C364 1.462 . S
C1607 C1120 1.468 . S
C1616 C400 1.460 . S
C1618 C1156 1.465 . S
C1627 C544 1.469 . S
C1629 C868 1.461 . S
C1638 C580 1.460 . S
C1640 C904 1.464 . S
C1649 C616 1.468 . S
C1651 C940 1.461 . S
C1660 C652 1.466 . S
C1662 C1192 1.461 . S
C1671 C1228 1.459 . S
C1673 C688 1.467 . S
C1682 C724 1.461 . S
C1684 C1264 1.468 . S
C1693 C38 1.279 . S
C1695 C3 1.255 . S
C1704 C39 1.262 1_565 S
C1706 C74 1.275 . S
C1715 C75 1.260 1_455 S
C1717 C2 1.276 . S
C1726 C111 1.261 . S
C1728 C182 1.283 . S
C1737 C110 1.277 . S
C1739 C147 1.264 1_545 S
C1748 C183 1.265 1_655 S
C1750 C146 1.276 . S
C1759 C219 1.255 . S
C1761 C254 1.277 . S
C1770 C255 1.253 1_545 S
C1772 C290 1.280 . S
C1781 C291 1.261 1_655 S
C1783 C218 1.275 . S
C1792 C398 1.275 . S
C1794 C327 1.258 . S
C1803 C363 1.263 1_565 S
C1805 C326 1.276 . S
C1814 C362 1.285 . S
C1816 C399 1.259 1_455 S
C1825 C470 1.277 . S
C1827 C435 1.256 . S
C1836 C506 1.286 . S
C1838 C471 1.256 . S
C1847 C434 1.276 . S
C1849 C507 1.257 . S
C1858 C543 1.254 . S
C1860 C614 1.279 . S
C1869 C579 1.265 . S
C1871 C542 1.277 . S
C1880 C615 1.252 . S
C1882 C578 1.282 . S
C1891 C686 1.276 . S
C1893 C651 1.257 . S
C1902 C687 1.252 . S
C1904 C722 1.281 . S
C1913 C723 1.264 . S
C1915 C650 1.280 . S
C1924 C759 1.253 . S
C1926 C830 1.284 . S
C1935 C795 1.263 . S
C1937 C758 1.276 . S
C1946 C794 1.285 . S
C1948 C831 1.255 . S
C1957 C902 1.279 . S
C1959 C867 1.263 . S
C1968 C903 1.264 . S
C1970 C938 1.276 . S
C1979 C866 1.279 . S
C1981 C939 1.263 . S
C1990 C975 1.254 . S
C1992 C1046 1.279 . S
C2001 C1011 1.264 . S
C2003 C974 1.280 . S
C2012 C1047 1.257 . S
C2014 C1010 1.277 . S
C2023 C1083 1.261 . S
C2025 C1118 1.283 . S
C2034 C1119 1.265 . S
C2036 C1154 1.278 . S
C2045 C1155 1.264 . S
C2047 C1082 1.276 . S
C2056 C1191 1.264 . S
C2058 C1262 1.276 . S
C2067 C1227 1.263 . S
C2069 C1190 1.276 . S
C2078 C1226 1.274 . S
C2080 C1263 1.261 . S
