# Generated by pormake.
# Topology ukk, (4)-cn, num edge types: 1
# Building blocks:
#     Node 0, Type 0, BuildingBlock: QUQFOY_clean_sbu_1, # of connection points: 4
#     Node 1, Type 0, BuildingBlock: QUQFOY_clean_sbu_1, # of connection points: 4
#     Node 2, Type 0, BuildingBlock: QUQFOY_clean_sbu_1, # of connection points: 4
#     Node 3, Type 0, BuildingBlock: QUQFOY_clean_sbu_1, # of connection points: 4
#     Node 4, Type 0, BuildingBlock: QUQFOY_clean_sbu_1, # of connection points: 4
#     Node 5, Type 0, BuildingBlock: QUQFOY_clean_sbu_1, # of connection points: 4
#     Node 6, Type 0, BuildingBlock: QUQFOY_clean_sbu_1, # of connection points: 4
#     Node 7, Type 0, BuildingBlock: QUQFOY_clean_sbu_1, # of connection points: 4
#     Node 8, Type 0, BuildingBlock: QUQFOY_clean_sbu_1, # of connection points: 4
#     Node 9, Type 0, BuildingBlock: QUQFOY_clean_sbu_1, # of connection points: 4
#     Node 10, Type 0, BuildingBlock: QUQFOY_clean_sbu_1, # of connection points: 4
#     Node 11, Type 0, BuildingBlock: QUQFOY_clean_sbu_1, # of connection points: 4
#     Node 12, Type 0, BuildingBlock: QUQFOY_clean_sbu_1, # of connection points: 4
#     Node 13, Type 0, BuildingBlock: QUQFOY_clean_sbu_1, # of connection points: 4
#     Node 14, Type 0, BuildingBlock: QUQFOY_clean_sbu_1, # of connection points: 4
#     Node 15, Type 0, BuildingBlock: QUQFOY_clean_sbu_1, # of connection points: 4
#     Edge 16, Type (0, 0), BuildingBlock: CIFDUS_clean_linker_0, # of connection points: 2
#     Edge 17, Type (0, 0), BuildingBlock: CIFDUS_clean_linker_0, # of connection points: 2
#     Edge 18, Type (0, 0), BuildingBlock: CIFDUS_clean_linker_0, # of connection points: 2
#     Edge 19, Type (0, 0), BuildingBlock: CIFDUS_clean_linker_0, # of connection points: 2
#     Edge 20, Type (0, 0), BuildingBlock: CIFDUS_clean_linker_0, # of connection points: 2
#     Edge 21, Type (0, 0), BuildingBlock: CIFDUS_clean_linker_0, # of connection points: 2
#     Edge 22, Type (0, 0), BuildingBlock: CIFDUS_clean_linker_0, # of connection points: 2
#     Edge 23, Type (0, 0), BuildingBlock: CIFDUS_clean_linker_0, # of connection points: 2
#     Edge 24, Type (0, 0), BuildingBlock: CIFDUS_clean_linker_0, # of connection points: 2
#     Edge 25, Type (0, 0), BuildingBlock: CIFDUS_clean_linker_0, # of connection points: 2
#     Edge 26, Type (0, 0), BuildingBlock: CIFDUS_clean_linker_0, # of connection points: 2
#     Edge 27, Type (0, 0), BuildingBlock: CIFDUS_clean_linker_0, # of connection points: 2
#     Edge 28, Type (0, 0), BuildingBlock: CIFDUS_clean_linker_0, # of connection points: 2
#     Edge 29, Type (0, 0), BuildingBlock: CIFDUS_clean_linker_0, # of connection points: 2
#     Edge 30, Type (0, 0), BuildingBlock: CIFDUS_clean_linker_0, # of connection points: 2
#     Edge 31, Type (0, 0), BuildingBlock: CIFDUS_clean_linker_0, # of connection points: 2
#     Edge 32, Type (0, 0), BuildingBlock: CIFDUS_clean_linker_0, # of connection points: 2
#     Edge 33, Type (0, 0), BuildingBlock: CIFDUS_clean_linker_0, # of connection points: 2
#     Edge 34, Type (0, 0), BuildingBlock: CIFDUS_clean_linker_0, # of connection points: 2
#     Edge 35, Type (0, 0), BuildingBlock: CIFDUS_clean_linker_0, # of connection points: 2
#     Edge 36, Type (0, 0), BuildingBlock: CIFDUS_clean_linker_0, # of connection points: 2
#     Edge 37, Type (0, 0), BuildingBlock: CIFDUS_clean_linker_0, # of connection points: 2
#     Edge 38, Type (0, 0), BuildingBlock: CIFDUS_clean_linker_0, # of connection points: 2
#     Edge 39, Type (0, 0), BuildingBlock: CIFDUS_clean_linker_0, # of connection points: 2
#     Edge 40, Type (0, 0), BuildingBlock: CIFDUS_clean_linker_0, # of connection points: 2
#     Edge 41, Type (0, 0), BuildingBlock: CIFDUS_clean_linker_0, # of connection points: 2
#     Edge 42, Type (0, 0), BuildingBlock: CIFDUS_clean_linker_0, # of connection points: 2
#     Edge 43, Type (0, 0), BuildingBlock: CIFDUS_clean_linker_0, # of connection points: 2
#     Edge 44, Type (0, 0), BuildingBlock: CIFDUS_clean_linker_0, # of connection points: 2
#     Edge 45, Type (0, 0), BuildingBlock: CIFDUS_clean_linker_0, # of connection points: 2
#     Edge 46, Type (0, 0), BuildingBlock: CIFDUS_clean_linker_0, # of connection points: 2
#     Edge 47, Type (0, 0), BuildingBlock: CIFDUS_clean_linker_0, # of connection points: 2
# Relax obj value: 0.045
# Max RMSD: 0.178
# Mean RMSD: 0.178
data_MOF--net-ukk--node1-QUQFOY_clean_sbu_1--edge1-CIFDUS_clean_linker_0
_symmetry_space_group_name_H-M    P1
_symmetry_Int_Tables_number       1
_symmetry_cell_setting            triclinic
loop_
_symmetry_equiv_pos_as_xyz
'x, y, z'
_cell_length_a     44.432014
_cell_length_b     44.550616
_cell_length_c     21.282453
_cell_angle_alpha  89.950578
_cell_angle_beta   89.870565
_cell_angle_gamma 90.038017
loop_
_atom_site_label
_atom_site_type_symbol
_atom_site_fract_x
_atom_site_fract_y
_atom_site_fract_z
_atom_type_partial_charge
O0 O 0.33943 0.17028 0.11985 0.0
Cd1 Cd 0.36007 0.13 0.10161 0.0
Cd2 Cd 0.35342 0.12665 0.22391 0.0
O3 O 0.32056 0.15921 0.21294 0.0
O4 O 0.35322 0.12337 1.0095 0.0
O5 O 0.33014 0.09698 0.08338 0.0
C6 C 0.3328 0.10402 0.02467 0.0
C7 C 0.35145 0.07936 0.27029 0.0
C8 C 0.32234 0.1768 0.16582 0.0
C9 C 0.41513 0.13949 0.17641 0.0
O10 O 0.3963 0.1432 0.22069 0.0
O11 O 0.40625 0.1291 0.12366 0.0
O12 O 0.35018 0.10333 0.30435 0.0
O13 O 0.35076 0.08242 0.20983 0.0
O14 O 0.17181 0.6819 0.95723 0.0
Cd15 Cd 0.13027 0.66286 0.97017 0.0
Cd16 Cd 0.13013 0.67189 0.84711 0.0
O17 O 0.16473 0.7023 0.86385 0.0
O18 O 0.12151 0.66987 0.06185 0.0
O19 O 0.09861 0.69452 0.98554 0.0
C20 C 0.10402 0.69155 0.04481 0.0
C21 C 0.08201 0.67876 0.80625 0.0
C22 C 0.18053 0.69928 0.91343 0.0
C23 C 0.13817 0.60868 0.8911 0.0
O24 O 0.14333 0.62801 0.84854 0.0
O25 O 0.12771 0.61713 0.94426 0.0
O26 O 0.10505 0.67717 0.76912 0.0
O27 O 0.08685 0.679 0.86611 0.0
O28 O 0.69409 0.85656 0.1189 0.0
Cd29 Cd 0.67325 0.89582 0.09326 0.0
Cd30 Cd 0.67636 0.90256 0.21733 0.0
O31 O 0.70867 0.8691 0.21448 0.0
O32 O 0.68568 0.90304 1.00333 0.0
O33 O 0.70261 0.92984 0.08324 0.0
C34 C 0.70422 0.923 0.02435 0.0
C35 C 0.6796 0.95101 0.2582 0.0
C36 C 0.70902 0.85083 0.16839 0.0
C37 C 0.61608 0.88734 0.1618 0.0
O38 O 0.63342 0.8867 0.20912 0.0
O39 O 0.62631 0.8955 0.10825 0.0
O40 O 0.67655 0.92818 0.29518 0.0
O41 O 0.68303 0.94592 0.19884 0.0
O42 O 0.8583 0.34093 0.94308 0.0
Cd43 Cd 0.89988 0.35937 0.95783 0.0
Cd44 Cd 0.89991 0.3533 0.83246 0.0
O45 O 0.86474 0.32314 0.84706 0.0
O46 O 0.91002 0.34766 0.04702 0.0
O47 O 0.93158 0.32735 0.96357 0.0
C48 C 0.92701 0.32694 1.02352 0.0
C49 C 0.94738 0.34696 0.7871 0.0
C50 C 0.8492 0.32496 0.89743 0.0
C51 C 0.8922 0.41543 0.88474 0.0
O52 O 0.88741 0.39718 0.84006 0.0
O53 O 0.90238 0.40574 0.93717 0.0
O54 O 0.92389 0.35015 0.75196 0.0
O55 O 0.94333 0.34491 0.84708 0.0
O56 O 0.3402 0.35482 0.16305 0.0
Cd57 Cd 0.35848 0.39598 0.18223 0.0
Cd58 Cd 0.34939 0.40177 0.0594 0.0
O59 O 0.31916 0.36661 0.07233 0.0
O60 O 0.3467 0.40604 0.27136 0.0
O61 O 0.32604 0.42712 0.18767 0.0
C62 C 0.32581 0.42281 0.24774 0.0
C63 C 0.34479 0.44897 1.01327 0.0
C64 C 0.32257 0.34839 0.11805 0.0
C65 C 0.41274 0.39346 0.10151 0.0
O66 O 0.39344 0.38936 0.05849 0.0
O67 O 0.40427 0.40061 0.15695 0.0
O68 O 0.34405 0.42502 0.97904 0.0
O69 O 0.34437 0.44573 0.07363 0.0
O70 O 0.36211 0.68564 0.84357 0.0
Cd71 Cd 0.40299 0.66561 0.83058 0.0
Cd72 Cd 0.40655 0.6797 0.95277 0.0
O73 O 0.37015 0.70794 0.93478 0.0
O74 O 0.41168 0.67057 0.73836 0.0
O75 O 0.43529 0.69616 0.8124 0.0
C76 C 0.42971 0.69216 0.75347 0.0
C77 C 0.45422 0.68924 0.99375 0.0
C78 C 0.35378 0.7037 0.88637 0.0
C79 C 0.39824 0.61455 0.91932 0.0
O80 O 0.39569 0.63537 0.95964 0.0
O81 O 0.40488 0.62081 0.86235 0.0
O82 O 0.43102 0.68796 0.03045 0.0
O83 O 0.44969 0.68815 0.93383 0.0
O84 O 0.69007 0.67355 0.19134 0.0
Cd85 Cd 0.66789 0.63472 0.21544 0.0
Cd86 Cd 0.67425 0.62717 0.09312 0.0
O87 O 0.70686 0.6603 0.09772 0.0
O88 O 0.67538 0.62994 0.30804 0.0
O89 O 0.69652 0.60095 0.23617 0.0
C90 C 0.6947 0.60934 0.29413 0.0
C91 C 0.67835 0.578 0.05714 0.0
C92 C 0.70638 0.67878 0.14339 0.0
C93 C 0.61261 0.64285 0.14006 0.0
O94 O 0.63119 0.6433 0.09467 0.0
O95 O 0.62149 0.63515 0.19481 0.0
O96 O 0.67666 0.6001 1.01794 0.0
O97 O 0.68001 0.58418 0.11638 0.0
O98 O 0.66613 0.34562 0.84171 0.0
Cd99 Cd 0.62413 0.36411 0.83716 0.0
Cd100 Cd 0.6278 0.35371 0.95807 0.0
O101 O 0.66075 0.32266 0.93287 0.0
O102 O 0.61198 0.35853 0.74709 0.0
O103 O 0.59235 0.33237 0.8255 0.0
C104 C 0.59546 0.33634 0.76571 0.0
C105 C 0.58053 0.34911 1.00434 0.0
C106 C 0.6756 0.32698 0.88228 0.0
C107 C 0.63496 0.417 0.91806 0.0
O108 O 0.64239 0.39721 0.9582 0.0
O109 O 0.62211 0.40907 0.867 0.0
O110 O 0.60456 0.3464 0.03811 0.0
O111 O 0.58366 0.35116 0.94407 0.0
O112 O 0.84726 0.66812 0.59982 0.0
Cd113 Cd 0.86719 0.62734 0.58479 0.0
Cd114 Cd 0.85874 0.62597 0.70862 0.0
O115 O 0.82812 0.66059 0.69439 0.0
O116 O 0.86079 0.62032 0.49247 0.0
O117 O 0.83624 0.59538 0.5664 0.0
C118 C 0.83937 0.60208 0.50769 0.0
C119 C 0.85184 0.5776 0.74799 0.0
C120 C 0.83035 0.67649 0.64472 0.0
C121 C 0.92181 0.6355 0.66248 0.0
O122 O 0.9027 0.63939 0.70617 0.0
O123 O 0.91317 0.62578 0.60897 0.0
O124 O 0.85396 0.60019 0.78585 0.0
O125 O 0.85121 0.583 0.6883 0.0
O126 O 0.66553 0.18352 0.46769 0.0
Cd127 Cd 0.62415 0.164 0.48051 0.0
Cd128 Cd 0.62393 0.17335 0.35717 0.0
O129 O 0.65932 0.20282 0.37298 0.0
O130 O 0.61556 0.17003 0.57242 0.0
O131 O 0.59156 0.19448 0.49733 0.0
C132 C 0.59716 0.19111 0.55641 0.0
C133 C 0.57605 0.18153 0.31647 0.0
C134 C 0.67483 0.20007 0.42301 0.0
C135 C 0.63221 0.11001 0.40135 0.0
O136 O 0.63643 0.12929 0.35826 0.0
O137 O 0.62242 0.11836 0.45506 0.0
O138 O 0.59899 0.17922 0.27927 0.0
O139 O 0.58091 0.18165 0.37631 0.0
O140 O 0.18143 0.35858 0.58654 0.0
Cd141 Cd 0.16293 0.39986 0.56967 0.0
Cd142 Cd 0.16983 0.40181 0.69436 0.0
O143 O 0.19994 0.36657 0.68133 0.0
O144 O 0.17423 0.40892 0.47976 0.0
O145 O 0.19492 0.4315 0.56148 0.0
C146 C 0.19506 0.42621 0.50179 0.0
C147 C 0.17687 0.44917 0.73924 0.0
C148 C 0.19771 0.35022 0.63234 0.0
C149 C 0.10721 0.39274 0.64398 0.0
O150 O 0.12576 0.38905 0.68864 0.0
O151 O 0.11652 0.40225 0.59064 0.0
O152 O 0.17354 0.42575 0.77451 0.0
O153 O 0.17851 0.44515 0.67921 0.0
O154 O 0.36386 0.84332 0.44544 0.0
Cd155 Cd 0.40516 0.86254 0.45824 0.0
Cd156 Cd 0.40835 0.84845 0.33576 0.0
O157 O 0.37145 0.82086 0.35415 0.0
O158 O 0.4136 0.85748 0.55052 0.0
O159 O 0.43671 0.83131 0.47655 0.0
C160 C 0.43115 0.83549 0.53548 0.0
C161 C 0.45604 0.83827 0.29566 0.0
C162 C 0.35519 0.82538 0.40275 0.0
C163 C 0.40186 0.91369 0.36911 0.0
O164 O 0.39853 0.89297 0.32884 0.0
O165 O 0.40835 0.90724 0.42601 0.0
O166 O 0.43312 0.83987 0.25848 0.0
O167 O 0.45115 0.83933 0.35549 0.0
O168 O 0.85109 0.85805 0.70427 0.0
Cd169 Cd 0.86822 0.9004 0.7105 0.0
Cd170 Cd 0.85922 0.8973 0.58941 0.0
O171 O 0.82768 0.86456 0.61403 0.0
O172 O 0.8572 0.91409 0.7977 0.0
O173 O 0.83465 0.93038 0.71146 0.0
C174 C 0.8351 0.92849 0.77208 0.0
C175 C 0.85564 0.94304 0.53649 0.0
C176 C 0.83219 0.84913 0.66369 0.0
C177 C 0.9222 0.89027 0.63289 0.0
O178 O 0.90269 0.88253 0.59244 0.0
O179 O 0.91379 0.90351 0.68329 0.0
O180 O 0.8532 0.91805 0.50601 0.0
O181 O 0.8569 0.94185 0.59711 0.0
O182 O 0.858 0.17722 0.35132 0.0
Cd183 Cd 0.90044 0.16088 0.33726 0.0
Cd184 Cd 0.90222 0.1719 0.46244 0.0
O185 O 0.86481 0.19876 0.44387 0.0
O186 O 0.91183 0.17269 0.24851 0.0
O187 O 0.93008 0.19471 0.33336 0.0
C188 C 0.92698 0.19453 0.27305 0.0
C189 C 0.94827 0.18266 0.50987 0.0
C190 C 0.84877 0.19439 0.39498 0.0
C191 C 0.89974 0.10749 0.42072 0.0
O192 O 0.89435 0.12687 0.46291 0.0
O193 O 0.9067 0.11573 0.36498 0.0
O194 O 0.92438 0.17901 0.5438 0.0
O195 O 0.94518 0.18323 0.44959 0.0
O196 O 0.18116 0.16902 0.71702 0.0
Cd197 Cd 0.16137 0.12804 0.73193 0.0
Cd198 Cd 0.16951 0.12698 0.60836 0.0
O199 O 0.20008 0.16164 0.6223 0.0
O200 O 0.16776 0.12067 0.8241 0.0
O201 O 0.19204 0.09569 0.75 0.0
C202 C 0.18887 0.10214 0.80883 0.0
C203 C 0.17636 0.07942 0.56476 0.0
C204 C 0.19779 0.17762 0.67178 0.0
C205 C 0.10662 0.13681 0.65563 0.0
O206 O 0.12561 0.14062 0.61167 0.0
O207 O 0.1153 0.12672 0.70881 0.0
O208 O 0.17393 0.10277 0.52902 0.0
O209 O 0.17728 0.08358 0.62488 0.0
O210 O 0.17299 0.84829 0.33666 0.0
Cd211 Cd 0.13145 0.8674 0.32499 0.0
Cd212 Cd 0.13122 0.85709 0.44776 0.0
O213 O 0.16597 0.82707 0.42936 0.0
O214 O 0.12227 0.86083 0.23335 0.0
O215 O 0.09975 0.8358 0.30983 0.0
C216 C 0.10488 0.83903 0.25047 0.0
C217 C 0.08324 0.84947 0.48911 0.0
C218 C 0.18173 0.83055 0.37971 0.0
C219 C 0.13905 0.92079 0.40671 0.0
O220 O 0.14416 0.90103 0.44834 0.0
O221 O 0.12884 0.91287 0.35306 0.0
O222 O 0.10631 0.85097 0.52594 0.0
O223 O 0.08796 0.84978 0.42919 0.0
H224 H 0.37751 0.9622 0.43206 0.0
H225 H 0.4157 0.93495 0.25441 0.0
H226 H 0.40193 0.98277 0.20774 0.0
H227 H 0.37752 0.03152 0.21503 0.0
H228 H 0.34049 0.06114 0.39171 0.0
H229 H 0.35474 1.0133 0.44061 0.0
C230 C 0.38327 0.96706 0.38357 0.0
C231 C 0.39758 0.94496 0.34681 0.0
C232 C 0.37487 0.99479 0.35631 0.0
C233 C 0.40458 0.95147 0.28373 0.0
C234 C 0.39658 0.97879 0.25677 0.0
C235 C 0.3722 0.02742 0.26408 0.0
C236 C 0.35747 0.04965 0.29931 0.0
C237 C 0.38122 1.00036 0.29214 0.0
C238 C 0.3515 0.04422 0.36328 0.0
C239 C 0.35983 0.01694 0.39137 0.0
H240 H 0.06254 0.65679 0.69307 0.0
H241 H 0.03112 0.69623 0.86643 0.0
H242 H 0.97915 0.68714 0.8355 0.0
H243 H 0.94294 0.66523 0.76374 0.0
H244 H 0.97268 0.62428 0.59074 0.0
H245 H 0.02505 0.63671 0.61706 0.0
C246 C 0.04427 0.66388 0.72346 0.0
C247 C 0.05075 0.67724 0.78206 0.0
C248 C 1.01421 0.65792 0.70593 0.0
C249 C 0.02682 0.68593 0.82122 0.0
C250 C 0.99707 0.68062 0.80368 0.0
C251 C 0.96076 0.65892 0.73144 0.0
C252 C 0.95378 0.64345 0.67555 0.0
C253 C 0.99056 0.66607 0.74691 0.0
C254 C 0.97733 0.63599 0.63422 0.0
C255 C 1.00729 0.64314 0.64929 0.0
H256 H 0.65544 0.97006 0.36993 0.0
H257 H 0.69595 1.0022 0.19792 0.0
H258 H 0.68531 0.05379 0.22838 0.0
H259 H 0.66233 0.08946 0.29987 0.0
H260 H 0.62076 0.059 0.47199 0.0
H261 H 0.63396 1.00698 0.44535 0.0
C262 C 0.66235 0.98841 0.33965 0.0
C263 C 0.6765 0.98222 0.28161 0.0
C264 C 0.65562 0.01824 0.35701 0.0
C265 C 0.68502 1.00625 0.24267 0.0
C266 C 0.67884 0.03579 0.25996 0.0
C267 C 0.65602 0.07156 0.33186 0.0
C268 C 0.64021 0.07822 0.38765 0.0
C269 C 0.66368 0.04198 0.31633 0.0
C270 C 0.63274 0.05458 0.42859 0.0
C271 C 0.64033 0.02483 0.41336 0.0
H272 H 0.08621 0.35898 0.73955 0.0
H273 H 0.05616 0.40711 0.57529 0.0
H274 H 1.00368 0.39458 0.60163 0.0
H275 H 0.96627 0.37261 0.67636 0.0
H276 H 0.99832 0.3259 0.84096 0.0
H277 H 0.05017 0.33496 0.80886 0.0
C278 C 0.06829 0.36685 0.70917 0.0
C279 C 0.0752 0.38441 0.6559 0.0
C280 C 0.03848 0.35965 0.72467 0.0
C281 C 0.05155 0.39376 0.61676 0.0
C282 C 0.02154 0.38658 0.6319 0.0
C283 C 0.98464 0.36393 0.70445 0.0
C284 C 0.97838 0.34857 0.76112 0.0
C285 C 1.0147 0.36985 0.68632 0.0
C286 C 1.00244 0.3378 0.79735 0.0
C287 C 0.03214 0.34308 0.77914 0.0
H288 H 0.36859 0.49714 0.07112 0.0
H289 H 0.33632 0.46728 0.89086 0.0
H290 H 0.35173 0.5152 0.8435 0.0
H291 H 0.37468 0.56621 0.85424 0.0
H292 H 0.40836 0.59332 0.0357 0.0
H293 H 0.39279 0.54575 0.08097 0.0
C294 C 0.36449 0.50119 1.0216 0.0
C295 C 0.3508 0.47885 0.9849 0.0
C296 C 0.37425 0.52823 0.99452 0.0
C297 C 0.34645 0.48428 0.92042 0.0
C298 C 0.35549 0.5116 0.89323 0.0
C299 C 0.37902 0.56141 0.90334 0.0
C300 C 0.39261 0.58342 0.94147 0.0
C301 C 0.36965 0.53376 0.92977 0.0
C302 C 0.39781 0.57693 1.00526 0.0
C303 C 0.38878 0.54974 0.03144 0.0
H304 H 0.47291 0.66909 0.1089 0.0
H305 H 0.50559 0.70549 0.9335 0.0
H306 H 0.55728 0.69551 0.9654 0.0
H307 H 0.59275 0.67292 0.03815 0.0
H308 H 0.56158 0.635 0.21321 0.0
H309 H 0.5097 0.64913 0.18644 0.0
C310 C 0.49141 0.67542 0.07832 0.0
C311 C 0.48535 0.68807 1.01879 0.0
C312 C 0.52126 0.66889 0.09641 0.0
C313 C 0.50957 0.69575 0.97941 0.0
C314 C 0.53915 0.6899 0.9975 0.0
C315 C 0.5747 0.66768 0.07078 0.0
C316 C 0.5811 0.65245 0.12731 0.0
C317 C 0.54517 0.67579 0.05504 0.0
C318 C 0.55735 0.64648 0.16924 0.0
C319 C 0.52768 0.65458 0.15388 0.0
H320 H 0.66294 0.43872 1.02142 0.0
H321 H 0.62342 0.4673 0.8462 0.0
H322 H 0.63558 0.51962 0.87145 0.0
H323 H 0.6559 0.55737 0.94574 0.0
H324 H 0.69378 0.52767 0.12173 0.0
H325 H 0.68413 0.47556 0.09313 0.0
C326 C 0.65692 0.4563 0.9884 0.0
C327 C 0.64208 0.44896 0.93197 0.0
C328 C 0.66389 0.48615 1.00331 0.0
C329 C 0.63469 0.4722 0.89001 0.0
C330 C 0.64172 0.50214 0.90445 0.0
C331 C 0.66245 0.53944 0.97737 0.0
C332 C 0.67567 0.54643 0.03578 0.0
C333 C 0.65619 0.5094 0.96117 0.0
C334 C 0.68363 0.52296 0.07658 0.0
C335 C 0.67801 0.49314 0.06034 0.0
H336 H 0.45982 0.36516 0.16248 0.0
H337 H 0.43704 0.4159 0.99649 0.0
H338 H 0.48623 0.40558 0.95131 0.0
H339 H 0.53447 0.38015 0.95526 0.0
H340 H 0.56006 0.33059 0.12062 0.0
H341 H 0.51109 0.34191 0.16926 0.0
C342 C 0.46601 0.37443 0.11714 0.0
C343 C 0.4448 0.39128 0.08284 0.0
C344 C 0.49454 0.36799 0.09058 0.0
C345 C 0.45294 0.40283 1.02372 0.0
C346 C 0.48101 0.39679 0.99759 0.0
C347 C 0.52928 0.37152 1.00175 0.0
C348 C 0.5506 0.354 0.03369 0.0
C349 C 0.50167 0.37885 0.02983 0.0
C350 C 0.54383 0.34379 0.09466 0.0
C351 C 0.5159 0.35042 0.1226 0.0
H352 H 0.86176 0.43828 0.78615 0.0
H353 H 0.9055 0.46523 0.95797 0.0
H354 H 0.89431 0.51805 0.93375 0.0
H355 H 0.87457 0.55666 0.85957 0.0
H356 H 0.83257 0.5278 0.68714 0.0
H357 H 0.84036 0.47551 0.71636 0.0
C358 C 0.86896 0.45556 0.8187 0.0
C359 C 0.88484 0.44766 0.87359 0.0
C360 C 0.8626 0.4856 0.80434 0.0
C361 C 0.89343 0.47057 0.91525 0.0
C362 C 0.88701 0.50078 0.90134 0.0
C363 C 0.86666 0.53888 0.82902 0.0
C364 C 0.85293 0.54618 0.77115 0.0
C365 C 0.87189 0.5086 0.84555 0.0
C366 C 0.84318 0.52287 0.73175 0.0
C367 C 0.84774 0.49294 0.74834 0.0
H368 H 0.55599 0.1596 0.20389 0.0
H369 H 0.52571 0.20077 0.37632 0.0
H370 H 0.47349 0.19264 0.34593 0.0
H371 H 0.43672 0.1706 0.27542 0.0
H372 H 0.46547 0.12765 0.10383 0.0
H373 H 0.51805 0.13977 0.12881 0.0
C374 C 0.53792 0.16731 0.23414 0.0
C375 C 0.54477 0.18081 0.29238 0.0
C376 C 0.50774 0.16184 0.21701 0.0
C377 C 0.5211 0.19032 0.3314 0.0
C378 C 0.49121 0.18556 0.31417 0.0
C379 C 0.45438 0.16384 0.24312 0.0
C380 C 0.44708 0.14785 0.1881 0.0
C381 C 0.48432 0.17072 0.25793 0.0
C382 C 0.47039 0.1398 0.14666 0.0
C383 C 0.50046 0.14674 0.16098 0.0
H384 H 0.169 0.58771 0.79088 0.0
H385 H 0.1236 0.55749 0.95887 0.0
H386 H 0.13401 0.50513 0.92967 0.0
H387 H 0.15358 0.46794 0.85221 0.0
H388 H 0.19747 0.50001 0.68384 0.0
H389 H 0.19034 0.5517 0.71794 0.0
C390 C 0.1613 0.56979 0.82149 0.0
C391 C 0.14517 0.57667 0.87679 0.0
C392 C 0.16724 0.54 0.80431 0.0
C393 C 0.13589 0.55295 0.91593 0.0
C394 C 0.14186 0.52299 0.89917 0.0
C395 C 0.16204 0.48627 0.82361 0.0
C396 C 0.17609 0.48006 0.76543 0.0
C397 C 0.15724 0.51622 0.84298 0.0
C398 C 0.18657 0.50408 0.72862 0.0
C399 C 0.1824 0.53369 0.748 0.0
H400 H 0.47598 0.86091 0.18335 0.0
H401 H 0.50648 0.81932 0.35503 0.0
H402 H 0.5586 0.82943 0.32595 0.0
H403 H 0.59496 0.85389 0.25769 0.0
H404 H 0.5661 0.89729 0.08689 0.0
H405 H 0.51381 0.88258 0.10954 0.0
C406 C 0.49411 0.85345 0.21359 0.0
C407 C 0.48733 0.83931 0.27137 0.0
C408 C 0.52421 0.86013 0.19729 0.0
C409 C 0.51105 0.83019 0.31045 0.0
C410 C 0.54086 0.83613 0.29399 0.0
C411 C 0.57733 0.8602 0.22508 0.0
C412 C 0.58445 0.87717 0.17111 0.0
C413 C 0.5476 0.85181 0.23855 0.0
C414 C 0.56127 0.88446 0.12896 0.0
C415 C 0.53138 0.87605 0.142 0.0
H416 H 0.88928 0.98908 0.57731 0.0
H417 H 0.83555 0.96094 0.41979 0.0
H418 H 0.8468 1.0084 0.36536 0.0
H419 H 0.87055 0.05947 0.3656 0.0
H420 H 0.9256 0.08486 0.52358 0.0
H421 H 0.91597 0.03673 0.57382 0.0
C422 C 0.8798 0.99339 0.53124 0.0
C423 C 0.86102 0.97187 0.50329 0.0
C424 C 0.88712 0.02012 0.49976 0.0
C425 C 0.84971 0.9774 0.44271 0.0
C426 C 0.8563 1.00446 0.41148 0.0
C427 C 0.88104 0.054 0.41011 0.0
C428 C 0.89889 0.07566 0.44076 0.0
C429 C 0.87495 0.02614 0.43965 0.0
C430 C 0.91189 0.06852 0.49903 0.0
C431 C 0.90618 0.0411 0.52811 0.0
H432 H 0.96616 0.15705 0.62068 0.0
H433 H 0.99927 0.20588 0.45947 0.0
H434 H 0.05095 0.19711 0.49293 0.0
H435 H 0.08656 0.1721 0.56169 0.0
H436 H 0.05513 0.12171 0.72214 0.0
H437 H 1.00291 0.13458 0.69536 0.0
C438 C 0.98471 0.16636 0.5938 0.0
C439 C 0.97885 0.18219 0.53762 0.0
C440 C 1.01461 0.16048 0.61251 0.0
C441 C 1.00313 0.19368 0.50278 0.0
C442 C 0.03271 0.18852 0.5217 0.0
C443 C 0.06838 0.16386 0.59113 0.0
C444 C 0.07481 0.14551 0.64339 0.0
C445 C 0.03868 0.17127 0.57539 0.0
C446 C 0.05086 0.13566 0.68144 0.0
C447 C 0.021 0.14304 0.66607 0.0
H448 H 0.16716 0.94106 0.51086 0.0
H449 H 0.12657 0.97248 0.33892 0.0
H450 H 0.1369 0.02458 0.37017 0.0
H451 H 0.15526 0.06119 0.44982 0.0
H452 H 0.19427 0.02802 0.62201 0.0
H453 H 0.18703 0.97653 0.58661 0.0
C454 C 0.16049 0.95917 0.47981 0.0
C455 C 0.14578 0.9527 0.42271 0.0
C456 C 0.16638 0.98882 0.49815 0.0
C457 C 0.13776 0.9767 0.38321 0.0
C458 C 0.14369 1.0065 0.40112 0.0
C459 C 0.16261 0.04267 0.47908 0.0
C460 C 0.17536 0.04852 0.53861 0.0
C461 C 0.15775 1.01286 0.45888 0.0
C462 C 0.18441 0.02424 0.57618 0.0
C463 C 0.18018 0.99475 0.55603 0.0
H464 H 0.94396 0.85899 0.53397 0.0
H465 H 0.97294 0.90514 0.70153 0.0
H466 H 0.02558 0.89389 0.67506 0.0
H467 H 0.06343 0.87318 0.60039 0.0
H468 H 0.03285 0.82912 0.43165 0.0
H469 H 0.98066 0.83696 0.46317 0.0
C470 C 0.96165 0.86665 0.56511 0.0
C471 C 0.95436 0.88317 0.61955 0.0
C472 C 0.99164 0.86027 0.54944 0.0
C473 C 0.97781 0.89255 0.6592 0.0
C474 C 1.00792 0.88607 0.64407 0.0
C475 C 0.0453 0.86481 0.57123 0.0
C476 C 0.05203 0.85044 0.51379 0.0
C477 C 1.01513 0.87017 0.5889 0.0
C478 C 0.02831 0.84018 0.476 0.0
C479 C 0.99845 0.84478 0.49387 0.0
H480 H 0.30844 0.31293 0.217 0.0
H481 H 0.3091 0.31489 1.01438 0.0
H482 H 0.30281 0.26037 1.01161 0.0
H483 H 0.3078 0.21213 0.06689 0.0
H484 H 0.30864 0.21022 0.26955 0.0
H485 H 0.30288 0.26476 0.27233 0.0
C486 C 0.30637 0.30147 0.17225 0.0
C487 C 0.30987 0.31775 0.11596 0.0
C488 C 0.30337 0.27012 0.17111 0.0
C489 C 0.30662 0.30282 0.0583 0.0
C490 C 0.3033 0.27161 0.05674 0.0
C491 C 0.30584 0.22359 0.11168 0.0
C492 C 0.3093 0.2073 0.16794 0.0
C493 C 0.30325 0.25497 0.11283 0.0
C494 C 0.30619 0.22227 0.22562 0.0
C495 C 0.30321 0.2535 0.2272 0.0
H496 H 0.21862 0.71523 0.81852 0.0
H497 H 0.21108 0.71198 1.02048 0.0
H498 H 0.26514 0.7198 0.03073 0.0
H499 H 0.31528 0.7169 0.98204 0.0
H500 H 0.32292 0.71682 0.78006 0.0
H501 H 0.26848 0.72172 0.77011 0.0
C502 C 0.22869 0.71723 0.86471 0.0
C503 C 0.211 0.71244 0.91854 0.0
C504 C 0.26004 0.72072 0.87031 0.0
C505 C 0.22436 0.71509 0.9782 0.0
C506 C 0.25532 0.71948 0.98417 0.0
C507 C 0.30509 0.71907 0.93599 0.0
C508 C 0.32298 0.71601 0.88194 0.0
C509 C 0.27358 0.72072 0.93053 0.0
C510 C 0.3095 0.71872 0.82244 0.0
C511 C 0.27833 0.72136 0.81665 0.0
H512 H 0.72477 0.81264 0.07498 0.0
H513 H 0.72149 0.82041 0.27697 0.0
H514 H 0.72698 0.76607 0.28705 0.0
H515 H 0.72135 0.71652 0.23797 0.0
H516 H 0.72191 0.70878 0.03589 0.0
H517 H 0.72954 0.76291 0.0263 0.0
C518 C 0.72609 0.80252 0.12127 0.0
C519 C 0.72196 0.82042 0.17513 0.0
C520 C 0.72832 0.77121 0.12661 0.0
C521 C 0.72436 0.80713 0.23478 0.0
C522 C 0.72721 0.776 0.24053 0.0
C523 C 0.72396 0.72658 0.19183 0.0
C524 C 0.72032 0.70881 0.13767 0.0
C525 C 0.72746 0.75778 0.18672 0.0
C526 C 0.72438 0.72198 0.07828 0.0
C527 C 0.72847 0.753 0.07278 0.0
H528 H 0.7151 0.30836 0.97195 0.0
H529 H 0.70477 0.31817 0.77154 0.0
H530 H 0.75882 0.31198 0.75666 0.0
H531 H 0.80954 0.31451 0.80245 0.0
H532 H 0.81983 0.3078 1.00339 0.0
H533 H 0.76567 0.30135 1.01601 0.0
C534 C 0.72457 0.30811 0.92493 0.0
C535 C 0.70607 0.31431 0.87313 0.0
C536 C 0.75589 0.30557 0.9168 0.0
C537 C 0.71866 0.31392 0.81238 0.0
C538 C 0.74962 0.3105 0.80377 0.0
C539 C 0.8 0.31058 0.8487 0.0
C540 C 0.81855 0.31218 0.90191 0.0
C541 C 0.76862 0.30795 0.85589 0.0
C542 C 0.8059 0.30712 0.96169 0.0
C543 C 0.77489 0.30355 0.96903 0.0
H544 H 0.81876 0.71539 0.74031 0.0
H545 H 0.81338 0.70596 0.53905 0.0
H546 H 0.80684 0.76001 0.52744 0.0
H547 H 0.8138 0.81026 0.57274 0.0
H548 H 0.8225 0.81966 0.77353 0.0
H549 H 0.81592 0.76573 0.78715 0.0
C550 C 0.81505 0.72508 0.6942 0.0
C551 C 0.8171 0.70684 0.64062 0.0
C552 C 0.81245 0.75639 0.68763 0.0
C553 C 0.81233 0.71968 0.58102 0.0
C554 C 0.80874 0.75062 0.57427 0.0
C555 C 0.8132 0.80061 0.61954 0.0
C556 C 0.81923 0.81879 0.67186 0.0
C557 C 0.81047 0.76935 0.62695 0.0
C558 C 0.8184 0.806 0.73233 0.0
C559 C 0.81475 0.77511 0.74022 0.0
H560 H 0.81054 0.21048 0.48968 0.0
H561 H 0.81759 0.20505 0.28783 0.0
H562 H 0.76357 0.21291 0.27771 0.0
H563 H 0.71358 0.21141 0.32681 0.0
H564 H 0.70617 0.21359 0.5288 0.0
H565 H 0.76072 0.21773 0.53818 0.0
C566 C 0.80035 0.21191 0.44351 0.0
C567 C 0.81792 0.20659 0.38974 0.0
C568 C 0.769 0.21552 0.438 0.0
C569 C 0.80442 0.20854 0.33011 0.0
C570 C 0.77349 0.21299 0.3242 0.0
C571 C 0.72384 0.21385 0.37273 0.0
C572 C 0.70594 0.21172 0.42697 0.0
C573 C 0.75536 0.21504 0.3779 0.0
C574 C 0.71956 0.21479 0.48627 0.0
C575 C 0.75079 0.21698 0.49173 0.0
H576 H 0.21139 0.31349 0.73079 0.0
H577 H 0.21135 0.31768 0.52831 0.0
H578 H 0.21773 0.26344 0.52229 0.0
H579 H 0.21276 0.21441 0.5742 0.0
H580 H 0.21005 0.21015 0.77661 0.0
H581 H 0.21602 0.26445 0.78296 0.0
C582 C 0.21379 0.30263 0.68545 0.0
C583 C 0.21028 0.31948 0.63017 0.0
C584 C 0.21649 0.2712 0.68223 0.0
C585 C 0.21346 0.3051 0.57166 0.0
C586 C 0.21701 0.27403 0.5681 0.0
C587 C 0.21449 0.22526 0.61966 0.0
C588 C 0.21034 0.20836 0.67473 0.0
C589 C 0.21693 0.2567 0.62302 0.0
C590 C 0.21268 0.22276 0.73338 0.0
C591 C 0.21597 0.25386 0.73713 0.0
H592 H 0.22007 0.81429 0.47348 0.0
H593 H 0.21195 0.8183 0.27176 0.0
H594 H 0.26596 0.81039 0.26018 0.0
H595 H 0.31626 0.81285 0.3078 0.0
H596 H 0.32449 0.81233 0.5096 0.0
H597 H 0.27005 0.80762 0.5207 0.0
C598 C 0.23 0.81244 0.42704 0.0
C599 C 0.21217 0.81743 0.37368 0.0
C600 C 0.26133 0.80893 0.4207 0.0
C601 C 0.22534 0.815 0.31369 0.0
C602 C 0.25627 0.81057 0.30697 0.0
C603 C 0.30618 0.81062 0.35405 0.0
C604 C 0.32425 0.8134 0.40773 0.0
C605 C 0.27469 0.80909 0.36018 0.0
C606 C 0.31092 0.81063 0.4675 0.0
C607 C 0.27977 0.80808 0.47394 0.0
H608 H 0.24838 0.09185 0.78928 0.0
H609 H 0.18085 0.09386 0.93492 0.0
H610 H 0.21997 0.08925 1.01517 0.0
H611 H 0.27359 0.09192 0.04425 0.0
H612 H 0.34098 0.09636 0.89857 0.0
H613 H 0.30202 0.09077 0.81831 0.0
C614 C 0.24218 0.09041 0.83851 0.0
C615 C 0.21168 0.09295 0.85606 0.0
C616 C 0.26495 0.08928 0.88454 0.0
C617 C 0.20411 0.09179 0.92016 0.0
C618 C 0.22652 0.08933 0.96609 0.0
C619 C 0.2798 0.09079 0.995 0.0
C620 C 0.31021 0.09431 0.97744 0.0
C621 C 0.25707 0.08908 0.94896 0.0
C622 C 0.3178 0.09355 0.91333 0.0
C623 C 0.29548 0.09052 0.86739 0.0
H624 H 0.09362 0.78013 0.27399 0.0
H625 H 0.09729 0.84489 0.12353 0.0
H626 H 0.09219 0.80457 0.04621 0.0
H627 H 0.09367 0.75059 1.02115 0.0
H628 H 0.09605 0.68581 0.17166 0.0
H629 H 0.09139 0.72621 0.24896 0.0
C630 C 0.09249 0.7855 0.22434 0.0
C631 C 0.09566 0.81558 0.20463 0.0
C632 C 0.09097 0.76202 0.18003 0.0
C633 C 0.09479 0.82201 0.14 0.0
C634 C 0.09203 0.7989 0.09575 0.0
C635 C 0.09233 0.74525 0.07081 0.0
C636 C 0.095 0.71514 0.09056 0.0
C637 C 0.09109 0.76875 0.11512 0.0
C638 C 0.09391 0.70872 0.15518 0.0
C639 C 0.09141 0.73187 0.19942 0.0
H640 H 0.70686 0.92923 0.89643 0.0
H641 H 0.75994 0.93899 0.06452 0.0
H642 H 0.80552 0.94471 1.00134 0.0
H643 H 0.83119 0.93998 0.89848 0.0
H644 H 0.77766 0.93395 0.73014 0.0
H645 H 0.73167 0.93433 0.79282 0.0
C646 C 0.72831 0.93335 0.91911 0.0
C647 C 0.72996 0.93337 0.98515 0.0
C648 C 0.75453 0.93705 0.88235 0.0
C649 C 0.75793 0.93895 1.0138 0.0
C650 C 0.78412 0.942 0.97766 0.0
C651 C 0.80945 0.93957 0.87547 0.0
C652 C 0.80802 0.93664 0.80965 0.0
C653 C 0.78286 0.94009 0.91191 0.0
C654 C 0.77957 0.9363 0.78063 0.0
C655 C 0.75315 0.93623 0.81654 0.0
H656 H 0.9363 0.19861 0.14568 0.0
H657 H 0.93561 0.25137 0.31552 0.0
H658 H 0.93824 0.29746 0.25393 0.0
H659 H 0.93421 0.3231 0.15122 0.0
H660 H 0.93859 0.27051 0.98143 0.0
H661 H 0.94153 0.22446 0.0432 0.0
C662 C 0.93744 0.22017 0.1692 0.0
C663 C 0.93544 0.22141 0.23521 0.0
C664 C 0.93935 0.24681 0.13337 0.0
C665 C 0.93716 0.2496 0.26486 0.0
C666 C 0.93844 0.2761 0.22959 0.0
C667 C 0.93655 0.30162 0.12779 0.0
C668 C 0.93589 0.30037 0.0617 0.0
C669 C 0.93859 0.27505 0.16374 0.0
C670 C 0.93912 0.27228 0.03217 0.0
C671 C 0.94056 0.2458 0.06753 0.0
H672 H 0.19801 0.43286 0.37383 0.0
H673 H 0.25209 0.43714 0.54159 0.0
H674 H 0.29785 0.43898 0.47809 0.0
H675 H 0.32286 0.43271 0.37486 0.0
H676 H 0.26875 0.43231 0.20691 0.0
H677 H 0.22302 0.43605 0.27007 0.0
C678 C 0.21977 0.43495 0.3964 0.0
C679 C 0.22153 0.43458 0.46246 0.0
C680 C 0.24617 0.43638 0.35945 0.0
C681 C 0.24996 0.43748 0.4909 0.0
C682 C 0.27625 0.43828 0.45456 0.0
C683 C 0.3011 0.43416 0.35209 0.0
C684 C 0.29932 0.43194 0.2862 0.0
C685 C 0.27471 0.43676 0.3888 0.0
C686 C 0.2709 0.43407 0.25747 0.0
C687 C 0.24462 0.43597 0.29364 0.0
H688 H 0.44168 0.77613 0.51696 0.0
H689 H 0.43885 0.84368 0.66177 0.0
H690 H 0.44343 0.80477 0.74248 0.0
H691 H 0.44114 0.75135 0.77208 0.0
H692 H 0.43768 0.68385 0.62725 0.0
H693 H 0.44308 0.7227 0.54656 0.0
C694 C 0.44289 0.7824 0.56612 0.0
C695 C 0.44011 0.81285 0.58327 0.0
C696 C 0.44406 0.75976 0.61238 0.0
C697 C 0.44106 0.82048 0.64728 0.0
C698 C 0.44352 0.79819 0.69347 0.0
C699 C 0.44241 0.74507 0.72292 0.0
C700 C 0.43921 0.71467 0.70575 0.0
C701 C 0.44403 0.7677 0.67667 0.0
C702 C 0.44021 0.70702 0.64174 0.0
C703 C 0.44313 0.72927 0.59557 0.0
H704 H 0.75324 0.59484 0.27397 0.0
H705 H 0.68684 0.6034 0.42078 0.0
H706 H 0.72588 0.59643 0.50046 0.0
H707 H 0.77962 0.5948 0.52839 0.0
H708 H 0.84652 0.59313 0.38151 0.0
H709 H 0.80685 0.59004 0.30205 0.0
C710 C 0.74723 0.59435 0.32338 0.0
C711 C 0.71711 0.59936 0.34144 0.0
C712 C 0.77008 0.59186 0.36899 0.0
C713 C 0.7098 0.59944 0.40569 0.0
C714 C 0.73217 0.5956 0.45126 0.0
C715 C 0.78551 0.59288 0.47906 0.0
C716 C 0.81602 0.59386 0.4609 0.0
C717 C 0.76251 0.59274 0.43353 0.0
C718 C 0.82325 0.59219 0.3967 0.0
C719 C 0.80054 0.59061 0.35126 0.0
H720 H 0.58305 0.24954 0.53509 0.0
H721 H 0.59067 0.18391 0.68321 0.0
H722 H 0.58513 0.22346 0.76207 0.0
H723 H 0.58589 0.27717 0.7886 0.0
H724 H 0.58436 0.34307 0.64015 0.0
H725 H 0.57925 0.30315 0.56198 0.0
C726 C 0.58264 0.24379 0.58461 0.0
C727 C 0.58719 0.21375 0.60323 0.0
C728 C 0.58088 0.26686 0.62973 0.0
C729 C 0.58716 0.2068 0.66763 0.0
C730 C 0.58415 0.22946 0.71276 0.0
C731 C 0.58355 0.28285 0.73928 0.0
C732 C 0.5854 0.31312 0.72028 0.0
C733 C 0.58211 0.25967 0.69438 0.0
C734 C 0.58293 0.32001 0.65605 0.0
C735 C 0.58019 0.29714 0.61129 0.0
loop_
_geom_bond_atom_site_label_1
_geom_bond_atom_site_label_2
_geom_bond_distance
_geom_bond_site_symmetry_2
_ccdc_geom_bond_type
O0 Cd1 2.223 . S
O0 C8 1.315 . S
Cd1 O0 2.223 . S
Cd1 O4 2.297 1_554 S
Cd1 O5 2.439 . S
Cd1 O11 2.240 . S
Cd2 O3 2.240 . S
Cd2 O10 2.223 . S
Cd2 O12 2.297 . S
Cd2 O13 2.439 . S
O3 Cd2 2.240 . S
O3 C8 1.279 . S
O4 Cd1 2.297 1_556 S
O4 C6 1.247 1_556 S
O5 Cd1 2.439 . S
O5 C6 1.208 . S
C6 O4 1.247 1_554 S
C6 O5 1.208 . S
C7 O12 1.247 . S
C7 O13 1.208 . S
C8 O0 1.315 . S
C8 O3 1.279 . S
C9 O10 1.315 . S
C9 O11 1.279 . S
O10 Cd2 2.223 . S
O10 C9 1.315 . S
O11 Cd1 2.240 . S
O11 C9 1.279 . S
O12 Cd2 2.297 . S
O12 C7 1.247 . S
O13 Cd2 2.439 . S
O13 C7 1.208 . S
O14 Cd15 2.223 . S
O14 C22 1.315 . S
Cd15 O14 2.223 . S
Cd15 O18 2.297 1_556 S
Cd15 O19 2.439 . S
Cd15 O25 2.240 . S
Cd16 O17 2.240 . S
Cd16 O24 2.223 . S
Cd16 O26 2.297 . S
Cd16 O27 2.439 . S
O17 Cd16 2.240 . S
O17 C22 1.279 . S
O18 Cd15 2.297 1_554 S
O18 C20 1.247 1_554 S
O19 Cd15 2.439 . S
O19 C20 1.208 . S
C20 O18 1.247 1_556 S
C20 O19 1.208 . S
C21 O26 1.247 . S
C21 O27 1.208 . S
C22 O14 1.315 . S
C22 O17 1.279 . S
C23 O24 1.315 . S
C23 O25 1.279 . S
O24 Cd16 2.223 . S
O24 C23 1.315 . S
O25 Cd15 2.240 . S
O25 C23 1.279 . S
O26 Cd16 2.297 . S
O26 C21 1.247 . S
O27 Cd16 2.439 . S
O27 C21 1.208 . S
O28 Cd29 2.223 . S
O28 C36 1.315 . S
Cd29 O28 2.223 . S
Cd29 O32 2.297 1_554 S
Cd29 O33 2.439 . S
Cd29 O39 2.240 . S
Cd30 O31 2.240 . S
Cd30 O38 2.223 . S
Cd30 O40 2.297 . S
Cd30 O41 2.439 . S
O31 Cd30 2.240 . S
O31 C36 1.279 . S
O32 Cd29 2.297 1_556 S
O32 C34 1.247 1_556 S
O33 Cd29 2.439 . S
O33 C34 1.208 . S
C34 O32 1.247 1_554 S
C34 O33 1.208 . S
C35 O40 1.247 . S
C35 O41 1.208 . S
C36 O28 1.315 . S
C36 O31 1.279 . S
C37 O38 1.315 . S
C37 O39 1.279 . S
O38 Cd30 2.223 . S
O38 C37 1.315 . S
O39 Cd29 2.240 . S
O39 C37 1.279 . S
O40 Cd30 2.297 . S
O40 C35 1.247 . S
O41 Cd30 2.439 . S
O41 C35 1.208 . S
O42 Cd43 2.223 . S
O42 C50 1.315 . S
Cd43 O42 2.223 . S
Cd43 O46 2.297 1_556 S
Cd43 O47 2.439 . S
Cd43 O53 2.240 . S
Cd44 O45 2.240 . S
Cd44 O52 2.223 . S
Cd44 O54 2.297 . S
Cd44 O55 2.439 . S
O45 Cd44 2.240 . S
O45 C50 1.279 . S
O46 Cd43 2.297 1_554 S
O46 C48 1.247 1_554 S
O47 Cd43 2.439 . S
O47 C48 1.208 . S
C48 O46 1.247 1_556 S
C48 O47 1.208 . S
C49 O54 1.247 . S
C49 O55 1.208 . S
C50 O42 1.315 . S
C50 O45 1.279 . S
C51 O52 1.315 . S
C51 O53 1.279 . S
O52 Cd44 2.223 . S
O52 C51 1.315 . S
O53 Cd43 2.240 . S
O53 C51 1.279 . S
O54 Cd44 2.297 . S
O54 C49 1.247 . S
O55 Cd44 2.439 . S
O55 C49 1.208 . S
O56 Cd57 2.223 . S
O56 C64 1.315 . S
Cd57 O56 2.223 . S
Cd57 O60 2.297 . S
Cd57 O61 2.439 . S
Cd57 O67 2.240 . S
Cd58 O59 2.240 . S
Cd58 O66 2.223 . S
Cd58 O68 2.297 1_554 S
Cd58 O69 2.439 . S
O59 Cd58 2.240 . S
O59 C64 1.279 . S
O60 Cd57 2.297 . S
O60 C62 1.247 . S
O61 Cd57 2.439 . S
O61 C62 1.208 . S
C62 O60 1.247 . S
C62 O61 1.208 . S
C63 O68 1.247 1_554 S
C63 O69 1.208 . S
C64 O56 1.315 . S
C64 O59 1.279 . S
C65 O66 1.315 . S
C65 O67 1.279 . S
O66 Cd58 2.223 . S
O66 C65 1.315 . S
O67 Cd57 2.240 . S
O67 C65 1.279 . S
O68 Cd58 2.297 1_556 S
O68 C63 1.247 1_556 S
O69 Cd58 2.439 . S
O69 C63 1.208 . S
O70 Cd71 2.223 . S
O70 C78 1.315 . S
Cd71 O70 2.223 . S
Cd71 O74 2.297 . S
Cd71 O75 2.439 . S
Cd71 O81 2.240 . S
Cd72 O73 2.240 . S
Cd72 O80 2.223 . S
Cd72 O82 2.297 1_556 S
Cd72 O83 2.439 . S
O73 Cd72 2.240 . S
O73 C78 1.279 . S
O74 Cd71 2.297 . S
O74 C76 1.247 . S
O75 Cd71 2.439 . S
O75 C76 1.208 . S
C76 O74 1.247 . S
C76 O75 1.208 . S
C77 O82 1.247 1_556 S
C77 O83 1.208 . S
C78 O70 1.315 . S
C78 O73 1.279 . S
C79 O80 1.315 . S
C79 O81 1.279 . S
O80 Cd72 2.223 . S
O80 C79 1.315 . S
O81 Cd71 2.240 . S
O81 C79 1.279 . S
O82 Cd72 2.297 1_554 S
O82 C77 1.247 1_554 S
O83 Cd72 2.439 . S
O83 C77 1.208 . S
O84 Cd85 2.223 . S
O84 C92 1.315 . S
Cd85 O84 2.223 . S
Cd85 O88 2.297 . S
Cd85 O89 2.439 . S
Cd85 O95 2.240 . S
Cd86 O87 2.240 . S
Cd86 O94 2.223 . S
Cd86 O96 2.297 1_554 S
Cd86 O97 2.439 . S
O87 Cd86 2.240 . S
O87 C92 1.279 . S
O88 Cd85 2.297 . S
O88 C90 1.247 . S
O89 Cd85 2.439 . S
O89 C90 1.208 . S
C90 O88 1.247 . S
C90 O89 1.208 . S
C91 O96 1.247 1_554 S
C91 O97 1.208 . S
C92 O84 1.315 . S
C92 O87 1.279 . S
C93 O94 1.315 . S
C93 O95 1.279 . S
O94 Cd86 2.223 . S
O94 C93 1.315 . S
O95 Cd85 2.240 . S
O95 C93 1.279 . S
O96 Cd86 2.297 1_556 S
O96 C91 1.247 1_556 S
O97 Cd86 2.439 . S
O97 C91 1.208 . S
O98 Cd99 2.223 . S
O98 C106 1.315 . S
Cd99 O98 2.223 . S
Cd99 O102 2.297 . S
Cd99 O103 2.439 . S
Cd99 O109 2.240 . S
Cd100 O101 2.240 . S
Cd100 O108 2.223 . S
Cd100 O110 2.297 1_556 S
Cd100 O111 2.439 . S
O101 Cd100 2.240 . S
O101 C106 1.279 . S
O102 Cd99 2.297 . S
O102 C104 1.247 . S
O103 Cd99 2.439 . S
O103 C104 1.208 . S
C104 O102 1.247 . S
C104 O103 1.208 . S
C105 O110 1.247 1_556 S
C105 O111 1.208 . S
C106 O98 1.315 . S
C106 O101 1.279 . S
C107 O108 1.315 . S
C107 O109 1.279 . S
O108 Cd100 2.223 . S
O108 C107 1.315 . S
O109 Cd99 2.240 . S
O109 C107 1.279 . S
O110 Cd100 2.297 1_554 S
O110 C105 1.247 1_554 S
O111 Cd100 2.439 . S
O111 C105 1.208 . S
O112 Cd113 2.223 . S
O112 C120 1.315 . S
Cd113 O112 2.223 . S
Cd113 O116 2.297 . S
Cd113 O117 2.439 . S
Cd113 O123 2.240 . S
Cd114 O115 2.240 . S
Cd114 O122 2.223 . S
Cd114 O124 2.297 . S
Cd114 O125 2.439 . S
O115 Cd114 2.240 . S
O115 C120 1.279 . S
O116 Cd113 2.297 . S
O116 C118 1.247 . S
O117 Cd113 2.439 . S
O117 C118 1.208 . S
C118 O116 1.247 . S
C118 O117 1.208 . S
C119 O124 1.247 . S
C119 O125 1.208 . S
C120 O112 1.315 . S
C120 O115 1.279 . S
C121 O122 1.315 . S
C121 O123 1.279 . S
O122 Cd114 2.223 . S
O122 C121 1.315 . S
O123 Cd113 2.240 . S
O123 C121 1.279 . S
O124 Cd114 2.297 . S
O124 C119 1.247 . S
O125 Cd114 2.439 . S
O125 C119 1.208 . S
O126 Cd127 2.223 . S
O126 C134 1.315 . S
Cd127 O126 2.223 . S
Cd127 O130 2.297 . S
Cd127 O131 2.439 . S
Cd127 O137 2.240 . S
Cd128 O129 2.240 . S
Cd128 O136 2.223 . S
Cd128 O138 2.297 . S
Cd128 O139 2.439 . S
O129 Cd128 2.240 . S
O129 C134 1.279 . S
O130 Cd127 2.297 . S
O130 C132 1.247 . S
O131 Cd127 2.439 . S
O131 C132 1.208 . S
C132 O130 1.247 . S
C132 O131 1.208 . S
C133 O138 1.247 . S
C133 O139 1.208 . S
C134 O126 1.315 . S
C134 O129 1.279 . S
C135 O136 1.315 . S
C135 O137 1.279 . S
O136 Cd128 2.223 . S
O136 C135 1.315 . S
O137 Cd127 2.240 . S
O137 C135 1.279 . S
O138 Cd128 2.297 . S
O138 C133 1.247 . S
O139 Cd128 2.439 . S
O139 C133 1.208 . S
O140 Cd141 2.223 . S
O140 C148 1.315 . S
Cd141 O140 2.223 . S
Cd141 O144 2.297 . S
Cd141 O145 2.439 . S
Cd141 O151 2.240 . S
Cd142 O143 2.240 . S
Cd142 O150 2.223 . S
Cd142 O152 2.297 . S
Cd142 O153 2.439 . S
O143 Cd142 2.240 . S
O143 C148 1.279 . S
O144 Cd141 2.297 . S
O144 C146 1.247 . S
O145 Cd141 2.439 . S
O145 C146 1.208 . S
C146 O144 1.247 . S
C146 O145 1.208 . S
C147 O152 1.247 . S
C147 O153 1.208 . S
C148 O140 1.315 . S
C148 O143 1.279 . S
C149 O150 1.315 . S
C149 O151 1.279 . S
O150 Cd142 2.223 . S
O150 C149 1.315 . S
O151 Cd141 2.240 . S
O151 C149 1.279 . S
O152 Cd142 2.297 . S
O152 C147 1.247 . S
O153 Cd142 2.439 . S
O153 C147 1.208 . S
O154 Cd155 2.223 . S
O154 C162 1.315 . S
Cd155 O154 2.223 . S
Cd155 O158 2.297 . S
Cd155 O159 2.439 . S
Cd155 O165 2.240 . S
Cd156 O157 2.240 . S
Cd156 O164 2.223 . S
Cd156 O166 2.297 . S
Cd156 O167 2.439 . S
O157 Cd156 2.240 . S
O157 C162 1.279 . S
O158 Cd155 2.297 . S
O158 C160 1.247 . S
O159 Cd155 2.439 . S
O159 C160 1.208 . S
C160 O158 1.247 . S
C160 O159 1.208 . S
C161 O166 1.247 . S
C161 O167 1.208 . S
C162 O154 1.315 . S
C162 O157 1.279 . S
C163 O164 1.315 . S
C163 O165 1.279 . S
O164 Cd156 2.223 . S
O164 C163 1.315 . S
O165 Cd155 2.240 . S
O165 C163 1.279 . S
O166 Cd156 2.297 . S
O166 C161 1.247 . S
O167 Cd156 2.439 . S
O167 C161 1.208 . S
O168 Cd169 2.223 . S
O168 C176 1.315 . S
Cd169 O168 2.223 . S
Cd169 O172 2.297 . S
Cd169 O173 2.439 . S
Cd169 O179 2.240 . S
Cd170 O171 2.240 . S
Cd170 O178 2.223 . S
Cd170 O180 2.297 . S
Cd170 O181 2.439 . S
O171 Cd170 2.240 . S
O171 C176 1.279 . S
O172 Cd169 2.297 . S
O172 C174 1.247 . S
O173 Cd169 2.439 . S
O173 C174 1.208 . S
C174 O172 1.247 . S
C174 O173 1.208 . S
C175 O180 1.247 . S
C175 O181 1.208 . S
C176 O168 1.315 . S
C176 O171 1.279 . S
C177 O178 1.315 . S
C177 O179 1.279 . S
O178 Cd170 2.223 . S
O178 C177 1.315 . S
O179 Cd169 2.240 . S
O179 C177 1.279 . S
O180 Cd170 2.297 . S
O180 C175 1.247 . S
O181 Cd170 2.439 . S
O181 C175 1.208 . S
O182 Cd183 2.223 . S
O182 C190 1.315 . S
Cd183 O182 2.223 . S
Cd183 O186 2.297 . S
Cd183 O187 2.439 . S
Cd183 O193 2.240 . S
Cd184 O185 2.240 . S
Cd184 O192 2.223 . S
Cd184 O194 2.297 . S
Cd184 O195 2.439 . S
O185 Cd184 2.240 . S
O185 C190 1.279 . S
O186 Cd183 2.297 . S
O186 C188 1.247 . S
O187 Cd183 2.439 . S
O187 C188 1.208 . S
C188 O186 1.247 . S
C188 O187 1.208 . S
C189 O194 1.247 . S
C189 O195 1.208 . S
C190 O182 1.315 . S
C190 O185 1.279 . S
C191 O192 1.315 . S
C191 O193 1.279 . S
O192 Cd184 2.223 . S
O192 C191 1.315 . S
O193 Cd183 2.240 . S
O193 C191 1.279 . S
O194 Cd184 2.297 . S
O194 C189 1.247 . S
O195 Cd184 2.439 . S
O195 C189 1.208 . S
O196 Cd197 2.223 . S
O196 C204 1.315 . S
Cd197 O196 2.223 . S
Cd197 O200 2.297 . S
Cd197 O201 2.439 . S
Cd197 O207 2.240 . S
Cd198 O199 2.240 . S
Cd198 O206 2.223 . S
Cd198 O208 2.297 . S
Cd198 O209 2.439 . S
O199 Cd198 2.240 . S
O199 C204 1.279 . S
O200 Cd197 2.297 . S
O200 C202 1.247 . S
O201 Cd197 2.439 . S
O201 C202 1.208 . S
C202 O200 1.247 . S
C202 O201 1.208 . S
C203 O208 1.247 . S
C203 O209 1.208 . S
C204 O196 1.315 . S
C204 O199 1.279 . S
C205 O206 1.315 . S
C205 O207 1.279 . S
O206 Cd198 2.223 . S
O206 C205 1.315 . S
O207 Cd197 2.240 . S
O207 C205 1.279 . S
O208 Cd198 2.297 . S
O208 C203 1.247 . S
O209 Cd198 2.439 . S
O209 C203 1.208 . S
O210 Cd211 2.223 . S
O210 C218 1.315 . S
Cd211 O210 2.223 . S
Cd211 O214 2.297 . S
Cd211 O215 2.439 . S
Cd211 O221 2.240 . S
Cd212 O213 2.240 . S
Cd212 O220 2.223 . S
Cd212 O222 2.297 . S
Cd212 O223 2.439 . S
O213 Cd212 2.240 . S
O213 C218 1.279 . S
O214 Cd211 2.297 . S
O214 C216 1.247 . S
O215 Cd211 2.439 . S
O215 C216 1.208 . S
C216 O214 1.247 . S
C216 O215 1.208 . S
C217 O222 1.247 . S
C217 O223 1.208 . S
C218 O210 1.315 . S
C218 O213 1.279 . S
C219 O220 1.315 . S
C219 O221 1.279 . S
O220 Cd212 2.223 . S
O220 C219 1.315 . S
O221 Cd211 2.240 . S
O221 C219 1.279 . S
O222 Cd212 2.297 . S
O222 C217 1.247 . S
O223 Cd212 2.439 . S
O223 C217 1.208 . S
H224 C230 0.930 . S
H225 C233 0.930 . S
H226 C234 0.930 . S
H227 C235 0.930 . S
H228 C238 0.930 . S
H229 C239 0.930 . S
C230 H224 0.930 . S
C230 C231 1.355 . S
C230 C232 1.415 . S
C231 C230 1.355 . S
C231 C233 1.419 . S
C232 C230 1.415 . S
C232 C237 1.425 . S
C232 C239 1.409 . S
C233 H225 0.930 . S
C233 C231 1.419 . S
C233 C234 1.362 . S
C234 H226 0.930 . S
C234 C233 1.362 . S
C234 C237 1.409 . S
C235 H227 0.930 . S
C235 C236 1.355 . S
C235 C237 1.415 1_545 S
C236 C235 1.355 . S
C236 C238 1.419 . S
C237 C232 1.425 . S
C237 C234 1.409 . S
C237 C235 1.415 1_565 S
C238 H228 0.930 . S
C238 C236 1.419 . S
C238 C239 1.362 1_545 S
C239 H229 0.930 . S
C239 C232 1.409 . S
C239 C238 1.362 1_565 S
H240 C246 0.930 . S
H241 C249 0.930 . S
H242 C250 0.930 . S
H243 C251 0.930 . S
H244 C254 0.930 . S
H245 C255 0.930 . S
C246 H240 0.930 . S
C246 C247 1.355 . S
C246 C248 1.415 1_455 S
C247 C246 1.355 . S
C247 C249 1.419 . S
C248 C246 1.415 1_655 S
C248 C253 1.425 . S
C248 C255 1.409 . S
C249 H241 0.930 . S
C249 C247 1.419 . S
C249 C250 1.362 1_455 S
C250 H242 0.930 . S
C250 C249 1.362 1_655 S
C250 C253 1.409 . S
C251 H243 0.930 . S
C251 C252 1.355 . S
C251 C253 1.415 . S
C252 C251 1.355 . S
C252 C254 1.419 . S
C253 C248 1.425 . S
C253 C250 1.409 . S
C253 C251 1.415 . S
C254 H244 0.930 . S
C254 C252 1.419 . S
C254 C255 1.362 . S
C255 H245 0.930 . S
C255 C248 1.409 . S
C255 C254 1.362 . S
H256 C262 0.930 . S
H257 C265 0.930 . S
H258 C266 0.930 . S
H259 C267 0.930 . S
H260 C270 0.930 . S
H261 C271 0.930 . S
C262 H256 0.930 . S
C262 C263 1.355 . S
C262 C264 1.415 1_565 S
C263 C262 1.355 . S
C263 C265 1.419 . S
C264 C262 1.415 1_545 S
C264 C269 1.425 . S
C264 C271 1.409 . S
C265 H257 0.930 . S
C265 C263 1.419 . S
C265 C266 1.362 1_565 S
C266 H258 0.930 . S
C266 C265 1.362 1_545 S
C266 C269 1.409 . S
C267 H259 0.930 . S
C267 C268 1.355 . S
C267 C269 1.415 . S
C268 C267 1.355 . S
C268 C270 1.419 . S
C269 C264 1.425 . S
C269 C266 1.409 . S
C269 C267 1.415 . S
C270 H260 0.930 . S
C270 C268 1.419 . S
C270 C271 1.362 . S
C271 H261 0.930 . S
C271 C264 1.409 . S
C271 C270 1.362 . S
H272 C278 0.930 . S
H273 C281 0.930 . S
H274 C282 0.930 . S
H275 C283 0.930 . S
H276 C286 0.930 . S
H277 C287 0.930 . S
C278 H272 0.930 . S
C278 C279 1.355 . S
C278 C280 1.415 . S
C279 C278 1.355 . S
C279 C281 1.419 . S
C280 C278 1.415 . S
C280 C285 1.425 . S
C280 C287 1.409 . S
C281 H273 0.930 . S
C281 C279 1.419 . S
C281 C282 1.362 . S
C282 H274 0.930 . S
C282 C281 1.362 . S
C282 C285 1.409 . S
C283 H275 0.930 . S
C283 C284 1.355 . S
C283 C285 1.415 1_655 S
C284 C283 1.355 . S
C284 C286 1.419 . S
C285 C280 1.425 . S
C285 C282 1.409 . S
C285 C283 1.415 1_455 S
C286 H276 0.930 . S
C286 C284 1.419 . S
C286 C287 1.362 1_655 S
C287 H277 0.930 . S
C287 C280 1.409 . S
C287 C286 1.362 1_455 S
H288 C294 0.930 . S
H289 C297 0.930 . S
H290 C298 0.930 . S
H291 C299 0.930 . S
H292 C302 0.930 . S
H293 C303 0.930 . S
C294 H288 0.930 . S
C294 C295 1.355 . S
C294 C296 1.415 . S
C295 C294 1.355 . S
C295 C297 1.419 . S
C296 C294 1.415 . S
C296 C301 1.425 . S
C296 C303 1.409 . S
C297 H289 0.930 . S
C297 C295 1.419 . S
C297 C298 1.362 . S
C298 H290 0.930 . S
C298 C297 1.362 . S
C298 C301 1.409 . S
C299 H291 0.930 . S
C299 C300 1.355 . S
C299 C301 1.415 . S
C300 C299 1.355 . S
C300 C302 1.419 . S
C301 C296 1.425 . S
C301 C298 1.409 . S
C301 C299 1.415 . S
C302 H292 0.930 . S
C302 C300 1.419 . S
C302 C303 1.362 . S
C303 H293 0.930 . S
C303 C296 1.409 . S
C303 C302 1.362 . S
H304 C310 0.930 . S
H305 C313 0.930 . S
H306 C314 0.930 . S
H307 C315 0.930 1_556 S
H308 C318 0.930 . S
H309 C319 0.930 . S
C310 H304 0.930 . S
C310 C311 1.355 1_554 S
C310 C312 1.415 . S
C311 C310 1.355 1_556 S
C311 C313 1.419 . S
C312 C310 1.415 . S
C312 C317 1.425 . S
C312 C319 1.409 . S
C313 H305 0.930 . S
C313 C311 1.419 . S
C313 C314 1.362 . S
C314 H306 0.930 . S
C314 C313 1.362 . S
C314 C317 1.409 1_556 S
C315 H307 0.930 1_554 S
C315 C316 1.355 . S
C315 C317 1.415 . S
C316 C315 1.355 . S
C316 C318 1.419 . S
C317 C312 1.425 . S
C317 C314 1.409 1_554 S
C317 C315 1.415 . S
C318 H308 0.930 . S
C318 C316 1.419 . S
C318 C319 1.362 . S
C319 H309 0.930 . S
C319 C312 1.409 . S
C319 C318 1.362 . S
H320 C326 0.930 . S
H321 C329 0.930 . S
H322 C330 0.930 . S
H323 C331 0.930 . S
H324 C334 0.930 . S
H325 C335 0.930 . S
C326 H320 0.930 . S
C326 C327 1.355 . S
C326 C328 1.415 . S
C327 C326 1.355 . S
C327 C329 1.419 . S
C328 C326 1.415 . S
C328 C333 1.425 . S
C328 C335 1.409 1_556 S
C329 H321 0.930 . S
C329 C327 1.419 . S
C329 C330 1.362 . S
C330 H322 0.930 . S
C330 C329 1.362 . S
C330 C333 1.409 . S
C331 H323 0.930 . S
C331 C332 1.355 1_556 S
C331 C333 1.415 . S
C332 C331 1.355 1_554 S
C332 C334 1.419 . S
C333 C328 1.425 . S
C333 C330 1.409 . S
C333 C331 1.415 . S
C334 H324 0.930 . S
C334 C332 1.419 . S
C334 C335 1.362 . S
C335 H325 0.930 . S
C335 C328 1.409 1_554 S
C335 C334 1.362 . S
H336 C342 0.930 . S
H337 C345 0.930 . S
H338 C346 0.930 . S
H339 C347 0.930 . S
H340 C350 0.930 . S
H341 C351 0.930 . S
C342 H336 0.930 . S
C342 C343 1.355 . S
C342 C344 1.415 . S
C343 C342 1.355 . S
C343 C345 1.419 1_554 S
C344 C342 1.415 . S
C344 C349 1.413 1_554 S
C344 C351 1.409 . S
C345 H337 0.930 . S
C345 C343 1.419 1_556 S
C345 C346 1.362 . S
C346 H338 0.930 . S
C346 C345 1.362 . S
C346 C349 1.416 . S
C347 H339 0.930 . S
C347 C348 1.355 1_556 S
C347 C349 1.420 . S
C348 C347 1.355 1_554 S
C348 C350 1.419 . S
C349 C344 1.413 1_556 S
C349 C346 1.416 . S
C349 C347 1.420 . S
C350 H340 0.930 . S
C350 C348 1.419 . S
C350 C351 1.362 . S
C351 H341 0.930 . S
C351 C344 1.409 . S
C351 C350 1.362 . S
H352 C358 0.930 . S
H353 C361 0.930 . S
H354 C362 0.930 . S
H355 C363 0.930 . S
H356 C366 0.930 . S
H357 C367 0.930 . S
C358 H352 0.930 . S
C358 C359 1.355 . S
C358 C360 1.415 . S
C359 C358 1.355 . S
C359 C361 1.419 . S
C360 C358 1.415 . S
C360 C365 1.425 . S
C360 C367 1.409 . S
C361 H353 0.930 . S
C361 C359 1.419 . S
C361 C362 1.362 . S
C362 H354 0.930 . S
C362 C361 1.362 . S
C362 C365 1.409 . S
C363 H355 0.930 . S
C363 C364 1.355 . S
C363 C365 1.415 . S
C364 C363 1.355 . S
C364 C366 1.419 . S
C365 C360 1.425 . S
C365 C362 1.409 . S
C365 C363 1.415 . S
C366 H356 0.930 . S
C366 C364 1.419 . S
C366 C367 1.362 . S
C367 H357 0.930 . S
C367 C360 1.409 . S
C367 C366 1.362 . S
H368 C374 0.930 . S
H369 C377 0.930 . S
H370 C378 0.930 . S
H371 C379 0.930 . S
H372 C382 0.930 . S
H373 C383 0.930 . S
C374 H368 0.930 . S
C374 C375 1.355 . S
C374 C376 1.415 . S
C375 C374 1.355 . S
C375 C377 1.419 . S
C376 C374 1.415 . S
C376 C381 1.425 . S
C376 C383 1.409 . S
C377 H369 0.930 . S
C377 C375 1.419 . S
C377 C378 1.362 . S
C378 H370 0.930 . S
C378 C377 1.362 . S
C378 C381 1.409 . S
C379 H371 0.930 . S
C379 C380 1.355 . S
C379 C381 1.415 . S
C380 C379 1.355 . S
C380 C382 1.419 . S
C381 C376 1.425 . S
C381 C378 1.409 . S
C381 C379 1.415 . S
C382 H372 0.930 . S
C382 C380 1.419 . S
C382 C383 1.362 . S
C383 H373 0.930 . S
C383 C376 1.409 . S
C383 C382 1.362 . S
H384 C390 0.930 . S
H385 C393 0.930 . S
H386 C394 0.930 . S
H387 C395 0.930 . S
H388 C398 0.930 . S
H389 C399 0.930 . S
C390 H384 0.930 . S
C390 C391 1.355 . S
C390 C392 1.415 . S
C391 C390 1.355 . S
C391 C393 1.419 . S
C392 C390 1.415 . S
C392 C397 1.425 . S
C392 C399 1.409 . S
C393 H385 0.930 . S
C393 C391 1.419 . S
C393 C394 1.362 . S
C394 H386 0.930 . S
C394 C393 1.362 . S
C394 C397 1.409 . S
C395 H387 0.930 . S
C395 C396 1.355 . S
C395 C397 1.415 . S
C396 C395 1.355 . S
C396 C398 1.419 . S
C397 C392 1.425 . S
C397 C394 1.409 . S
C397 C395 1.415 . S
C398 H388 0.930 . S
C398 C396 1.419 . S
C398 C399 1.362 . S
C399 H389 0.930 . S
C399 C392 1.409 . S
C399 C398 1.362 . S
H400 C406 0.930 . S
H401 C409 0.930 . S
H402 C410 0.930 . S
H403 C411 0.930 . S
H404 C414 0.930 . S
H405 C415 0.930 . S
C406 H400 0.930 . S
C406 C407 1.355 . S
C406 C408 1.415 . S
C407 C406 1.355 . S
C407 C409 1.419 . S
C408 C406 1.415 . S
C408 C413 1.425 . S
C408 C415 1.409 . S
C409 H401 0.930 . S
C409 C407 1.419 . S
C409 C410 1.362 . S
C410 H402 0.930 . S
C410 C409 1.362 . S
C410 C413 1.409 . S
C411 H403 0.930 . S
C411 C412 1.355 . S
C411 C413 1.415 . S
C412 C411 1.355 . S
C412 C414 1.419 . S
C413 C408 1.425 . S
C413 C410 1.409 . S
C413 C411 1.415 . S
C414 H404 0.930 . S
C414 C412 1.419 . S
C414 C415 1.362 . S
C415 H405 0.930 . S
C415 C408 1.409 . S
C415 C414 1.362 . S
H416 C422 0.929 1_565 S
H417 C425 0.930 . S
H418 C426 0.930 . S
H419 C427 0.930 . S
H420 C430 0.930 . S
H421 C431 0.930 . S
C422 H416 0.929 1_545 S
C422 C423 1.342 1_545 S
C422 C424 1.428 . S
C423 C422 1.342 1_565 S
C423 C425 1.419 . S
C424 C422 1.428 . S
C424 C429 1.425 . S
C424 C431 1.409 . S
C425 H417 0.930 . S
C425 C423 1.419 . S
C425 C426 1.362 1_565 S
C426 H418 0.930 . S
C426 C425 1.362 1_545 S
C426 C429 1.409 . S
C427 H419 0.930 . S
C427 C428 1.355 . S
C427 C429 1.415 . S
C428 C427 1.355 . S
C428 C430 1.419 . S
C429 C424 1.425 . S
C429 C426 1.409 . S
C429 C427 1.415 . S
C430 H420 0.930 . S
C430 C428 1.419 . S
C430 C431 1.362 . S
C431 H421 0.930 . S
C431 C424 1.409 . S
C431 C430 1.362 . S
H432 C438 0.930 . S
H433 C441 0.930 . S
H434 C442 0.930 . S
H435 C443 0.930 . S
H436 C446 0.930 . S
H437 C447 0.930 . S
C438 H432 0.930 . S
C438 C439 1.355 . S
C438 C440 1.415 1_655 S
C439 C438 1.355 . S
C439 C441 1.419 . S
C440 C438 1.415 1_455 S
C440 C445 1.425 . S
C440 C447 1.409 . S
C441 H433 0.930 . S
C441 C439 1.419 . S
C441 C442 1.362 1_655 S
C442 H434 0.930 . S
C442 C441 1.362 1_455 S
C442 C445 1.409 . S
C443 H435 0.930 . S
C443 C444 1.355 . S
C443 C445 1.415 . S
C444 C443 1.355 . S
C444 C446 1.419 . S
C445 C440 1.425 . S
C445 C442 1.409 . S
C445 C443 1.415 . S
C446 H436 0.930 . S
C446 C444 1.419 . S
C446 C447 1.362 . S
C447 H437 0.930 . S
C447 C440 1.409 . S
C447 C446 1.362 . S
H448 C454 0.930 . S
H449 C457 0.930 . S
H450 C458 0.930 . S
H451 C459 0.929 . S
H452 C462 0.930 . S
H453 C463 0.930 . S
C454 H448 0.930 . S
C454 C455 1.355 . S
C454 C456 1.415 . S
C455 C454 1.355 . S
C455 C457 1.419 . S
C456 C454 1.415 . S
C456 C461 1.425 . S
C456 C463 1.409 . S
C457 H449 0.930 . S
C457 C455 1.419 . S
C457 C458 1.362 . S
C458 H450 0.930 . S
C458 C457 1.362 . S
C458 C461 1.409 . S
C459 H451 0.929 . S
C459 C460 1.351 . S
C459 C461 1.419 1_545 S
C460 C459 1.351 . S
C460 C462 1.419 . S
C461 C456 1.425 . S
C461 C458 1.409 . S
C461 C459 1.419 1_565 S
C462 H452 0.930 . S
C462 C460 1.419 . S
C462 C463 1.362 1_545 S
C463 H453 0.930 . S
C463 C456 1.409 . S
C463 C462 1.362 1_565 S
H464 C470 0.930 . S
H465 C473 0.930 . S
H466 C474 0.930 . S
H467 C475 0.930 . S
H468 C478 0.930 . S
H469 C479 0.930 . S
C470 H464 0.930 . S
C470 C471 1.355 . S
C470 C472 1.415 . S
C471 C470 1.355 . S
C471 C473 1.419 . S
C472 C470 1.415 . S
C472 C477 1.425 . S
C472 C479 1.409 . S
C473 H465 0.930 . S
C473 C471 1.419 . S
C473 C474 1.362 . S
C474 H466 0.930 . S
C474 C473 1.362 . S
C474 C477 1.409 . S
C475 H467 0.930 . S
C475 C476 1.355 . S
C475 C477 1.415 1_455 S
C476 C475 1.355 . S
C476 C478 1.419 . S
C477 C472 1.425 . S
C477 C474 1.409 . S
C477 C475 1.415 1_655 S
C478 H468 0.930 . S
C478 C476 1.419 . S
C478 C479 1.362 1_455 S
C479 H469 0.930 . S
C479 C472 1.409 . S
C479 C478 1.362 1_655 S
H480 C486 0.930 . S
H481 C489 0.930 . S
H482 C490 0.930 . S
H483 C491 0.930 . S
H484 C494 0.930 . S
H485 C495 0.930 . S
C486 H480 0.930 . S
C486 C487 1.355 . S
C486 C488 1.415 . S
C487 C486 1.355 . S
C487 C489 1.419 . S
C488 C486 1.415 . S
C488 C493 1.425 . S
C488 C495 1.409 . S
C489 H481 0.930 . S
C489 C487 1.419 . S
C489 C490 1.362 . S
C490 H482 0.930 . S
C490 C489 1.362 . S
C490 C493 1.409 . S
C491 H483 0.930 . S
C491 C492 1.355 . S
C491 C493 1.415 . S
C492 C491 1.355 . S
C492 C494 1.419 . S
C493 C488 1.425 . S
C493 C490 1.409 . S
C493 C491 1.415 . S
C494 H484 0.930 . S
C494 C492 1.419 . S
C494 C495 1.362 . S
C495 H485 0.930 . S
C495 C488 1.409 . S
C495 C494 1.362 . S
H496 C502 0.930 . S
H497 C505 0.930 . S
H498 C506 0.930 . S
H499 C507 0.930 . S
H500 C510 0.930 . S
H501 C511 0.930 . S
C502 H496 0.930 . S
C502 C503 1.355 . S
C502 C504 1.415 . S
C503 C502 1.355 . S
C503 C505 1.419 . S
C504 C502 1.415 . S
C504 C509 1.425 . S
C504 C511 1.409 . S
C505 H497 0.930 . S
C505 C503 1.419 . S
C505 C506 1.362 . S
C506 H498 0.930 . S
C506 C505 1.362 . S
C506 C509 1.409 . S
C507 H499 0.930 . S
C507 C508 1.355 . S
C507 C509 1.415 . S
C508 C507 1.355 . S
C508 C510 1.419 . S
C509 C504 1.425 . S
C509 C506 1.409 . S
C509 C507 1.415 . S
C510 H500 0.930 . S
C510 C508 1.419 . S
C510 C511 1.362 . S
C511 H501 0.930 . S
C511 C504 1.409 . S
C511 C510 1.362 . S
H512 C518 0.930 . S
H513 C521 0.930 . S
H514 C522 0.930 . S
H515 C523 0.930 . S
H516 C526 0.930 . S
H517 C527 0.930 . S
C518 H512 0.930 . S
C518 C519 1.355 . S
C518 C520 1.415 . S
C519 C518 1.355 . S
C519 C521 1.419 . S
C520 C518 1.415 . S
C520 C525 1.425 . S
C520 C527 1.409 . S
C521 H513 0.930 . S
C521 C519 1.419 . S
C521 C522 1.362 . S
C522 H514 0.930 . S
C522 C521 1.362 . S
C522 C525 1.409 . S
C523 H515 0.930 . S
C523 C524 1.355 . S
C523 C525 1.415 . S
C524 C523 1.355 . S
C524 C526 1.419 . S
C525 C520 1.425 . S
C525 C522 1.409 . S
C525 C523 1.415 . S
C526 H516 0.930 . S
C526 C524 1.419 . S
C526 C527 1.362 . S
C527 H517 0.930 . S
C527 C520 1.409 . S
C527 C526 1.362 . S
H528 C534 0.930 . S
H529 C537 0.930 . S
H530 C538 0.930 . S
H531 C539 0.930 . S
H532 C542 0.930 . S
H533 C543 0.930 . S
C534 H528 0.930 . S
C534 C535 1.355 . S
C534 C536 1.415 . S
C535 C534 1.355 . S
C535 C537 1.419 . S
C536 C534 1.415 . S
C536 C541 1.425 . S
C536 C543 1.409 . S
C537 H529 0.930 . S
C537 C535 1.419 . S
C537 C538 1.362 . S
C538 H530 0.930 . S
C538 C537 1.362 . S
C538 C541 1.409 . S
C539 H531 0.930 . S
C539 C540 1.355 . S
C539 C541 1.415 . S
C540 C539 1.355 . S
C540 C542 1.419 . S
C541 C536 1.425 . S
C541 C538 1.409 . S
C541 C539 1.415 . S
C542 H532 0.930 . S
C542 C540 1.419 . S
C542 C543 1.362 . S
C543 H533 0.930 . S
C543 C536 1.409 . S
C543 C542 1.362 . S
H544 C550 0.930 . S
H545 C553 0.930 . S
H546 C554 0.930 . S
H547 C555 0.930 . S
H548 C558 0.930 . S
H549 C559 0.930 . S
C550 H544 0.930 . S
C550 C551 1.355 . S
C550 C552 1.415 . S
C551 C550 1.355 . S
C551 C553 1.419 . S
C552 C550 1.415 . S
C552 C557 1.425 . S
C552 C559 1.409 . S
C553 H545 0.930 . S
C553 C551 1.419 . S
C553 C554 1.362 . S
C554 H546 0.930 . S
C554 C553 1.362 . S
C554 C557 1.409 . S
C555 H547 0.930 . S
C555 C556 1.355 . S
C555 C557 1.415 . S
C556 C555 1.355 . S
C556 C558 1.419 . S
C557 C552 1.425 . S
C557 C554 1.409 . S
C557 C555 1.415 . S
C558 H548 0.930 . S
C558 C556 1.419 . S
C558 C559 1.362 . S
C559 H549 0.930 . S
C559 C552 1.409 . S
C559 C558 1.362 . S
H560 C566 0.930 . S
H561 C569 0.930 . S
H562 C570 0.930 . S
H563 C571 0.930 . S
H564 C574 0.930 . S
H565 C575 0.930 . S
C566 H560 0.930 . S
C566 C567 1.355 . S
C566 C568 1.415 . S
C567 C566 1.355 . S
C567 C569 1.419 . S
C568 C566 1.415 . S
C568 C573 1.425 . S
C568 C575 1.409 . S
C569 H561 0.930 . S
C569 C567 1.419 . S
C569 C570 1.362 . S
C570 H562 0.930 . S
C570 C569 1.362 . S
C570 C573 1.409 . S
C571 H563 0.930 . S
C571 C572 1.355 . S
C571 C573 1.415 . S
C572 C571 1.355 . S
C572 C574 1.419 . S
C573 C568 1.425 . S
C573 C570 1.409 . S
C573 C571 1.415 . S
C574 H564 0.930 . S
C574 C572 1.419 . S
C574 C575 1.362 . S
C575 H565 0.930 . S
C575 C568 1.409 . S
C575 C574 1.362 . S
H576 C582 0.930 . S
H577 C585 0.930 . S
H578 C586 0.930 . S
H579 C587 0.930 . S
H580 C590 0.930 . S
H581 C591 0.930 . S
C582 H576 0.930 . S
C582 C583 1.355 . S
C582 C584 1.415 . S
C583 C582 1.355 . S
C583 C585 1.419 . S
C584 C582 1.415 . S
C584 C589 1.425 . S
C584 C591 1.409 . S
C585 H577 0.930 . S
C585 C583 1.419 . S
C585 C586 1.362 . S
C586 H578 0.930 . S
C586 C585 1.362 . S
C586 C589 1.409 . S
C587 H579 0.930 . S
C587 C588 1.355 . S
C587 C589 1.415 . S
C588 C587 1.355 . S
C588 C590 1.419 . S
C589 C584 1.425 . S
C589 C586 1.409 . S
C589 C587 1.415 . S
C590 H580 0.930 . S
C590 C588 1.419 . S
C590 C591 1.362 . S
C591 H581 0.930 . S
C591 C584 1.409 . S
C591 C590 1.362 . S
H592 C598 0.930 . S
H593 C601 0.930 . S
H594 C602 0.930 . S
H595 C603 0.930 . S
H596 C606 0.930 . S
H597 C607 0.930 . S
C598 H592 0.930 . S
C598 C599 1.355 . S
C598 C600 1.415 . S
C599 C598 1.355 . S
C599 C601 1.419 . S
C600 C598 1.415 . S
C600 C605 1.425 . S
C600 C607 1.409 . S
C601 H593 0.930 . S
C601 C599 1.419 . S
C601 C602 1.362 . S
C602 H594 0.930 . S
C602 C601 1.362 . S
C602 C605 1.409 . S
C603 H595 0.930 . S
C603 C604 1.355 . S
C603 C605 1.415 . S
C604 C603 1.355 . S
C604 C606 1.419 . S
C605 C600 1.425 . S
C605 C602 1.409 . S
C605 C603 1.415 . S
C606 H596 0.930 . S
C606 C604 1.419 . S
C606 C607 1.362 . S
C607 H597 0.930 . S
C607 C600 1.409 . S
C607 C606 1.362 . S
H608 C614 0.930 . S
H609 C617 0.930 . S
H610 C618 0.930 . S
H611 C619 0.930 . S
H612 C622 0.930 . S
H613 C623 0.930 . S
C614 H608 0.930 . S
C614 C615 1.355 . S
C614 C616 1.415 . S
C615 C614 1.355 . S
C615 C617 1.419 . S
C616 C614 1.415 . S
C616 C621 1.425 . S
C616 C623 1.409 . S
C617 H609 0.930 . S
C617 C615 1.419 . S
C617 C618 1.362 . S
C618 H610 0.930 . S
C618 C617 1.362 . S
C618 C621 1.409 . S
C619 H611 0.930 . S
C619 C620 1.355 . S
C619 C621 1.415 . S
C620 C619 1.355 . S
C620 C622 1.419 . S
C621 C616 1.425 . S
C621 C618 1.409 . S
C621 C619 1.415 . S
C622 H612 0.930 . S
C622 C620 1.419 . S
C622 C623 1.362 . S
C623 H613 0.930 . S
C623 C616 1.409 . S
C623 C622 1.362 . S
H624 C630 0.930 . S
H625 C633 0.930 . S
H626 C634 0.930 . S
H627 C635 0.930 . S
H628 C638 0.930 . S
H629 C639 0.930 . S
C630 H624 0.930 . S
C630 C631 1.355 . S
C630 C632 1.415 . S
C631 C630 1.355 . S
C631 C633 1.419 . S
C632 C630 1.415 . S
C632 C637 1.425 . S
C632 C639 1.409 . S
C633 H625 0.930 . S
C633 C631 1.419 . S
C633 C634 1.362 . S
C634 H626 0.930 . S
C634 C633 1.362 . S
C634 C637 1.409 . S
C635 H627 0.930 . S
C635 C636 1.355 . S
C635 C637 1.415 . S
C636 C635 1.355 . S
C636 C638 1.419 . S
C637 C632 1.425 . S
C637 C634 1.409 . S
C637 C635 1.415 . S
C638 H628 0.930 . S
C638 C636 1.419 . S
C638 C639 1.362 . S
C639 H629 0.930 . S
C639 C632 1.409 . S
C639 C638 1.362 . S
H640 C646 0.930 . S
H641 C649 0.930 1_554 S
H642 C650 0.930 . S
H643 C651 0.930 . S
H644 C654 0.930 . S
H645 C655 0.930 . S
C646 H640 0.930 . S
C646 C647 1.355 . S
C646 C648 1.415 . S
C647 C646 1.355 . S
C647 C649 1.419 . S
C648 C646 1.415 . S
C648 C653 1.425 . S
C648 C655 1.409 . S
C649 H641 0.930 1_556 S
C649 C647 1.419 . S
C649 C650 1.362 . S
C650 H642 0.930 . S
C650 C649 1.362 . S
C650 C653 1.409 . S
C651 H643 0.930 . S
C651 C652 1.355 . S
C651 C653 1.415 . S
C652 C651 1.355 . S
C652 C654 1.419 . S
C653 C648 1.425 . S
C653 C650 1.409 . S
C653 C651 1.415 . S
C654 H644 0.930 . S
C654 C652 1.419 . S
C654 C655 1.362 . S
C655 H645 0.930 . S
C655 C648 1.409 . S
C655 C654 1.362 . S
H656 C662 0.930 . S
H657 C665 0.930 . S
H658 C666 0.930 . S
H659 C667 0.930 . S
H660 C670 0.930 1_556 S
H661 C671 0.930 . S
C662 H656 0.930 . S
C662 C663 1.355 . S
C662 C664 1.415 . S
C663 C662 1.355 . S
C663 C665 1.419 . S
C664 C662 1.415 . S
C664 C669 1.425 . S
C664 C671 1.409 . S
C665 H657 0.930 . S
C665 C663 1.419 . S
C665 C666 1.362 . S
C666 H658 0.930 . S
C666 C665 1.362 . S
C666 C669 1.409 . S
C667 H659 0.930 . S
C667 C668 1.355 . S
C667 C669 1.415 . S
C668 C667 1.355 . S
C668 C670 1.419 . S
C669 C664 1.425 . S
C669 C666 1.409 . S
C669 C667 1.415 . S
C670 H660 0.930 1_554 S
C670 C668 1.419 . S
C670 C671 1.362 . S
C671 H661 0.930 . S
C671 C664 1.409 . S
C671 C670 1.362 . S
H672 C678 0.930 . S
H673 C681 0.930 . S
H674 C682 0.930 . S
H675 C683 0.930 . S
H676 C686 0.930 . S
H677 C687 0.930 . S
C678 H672 0.930 . S
C678 C679 1.355 . S
C678 C680 1.415 . S
C679 C678 1.355 . S
C679 C681 1.419 . S
C680 C678 1.415 . S
C680 C685 1.425 . S
C680 C687 1.409 . S
C681 H673 0.930 . S
C681 C679 1.419 . S
C681 C682 1.362 . S
C682 H674 0.930 . S
C682 C681 1.362 . S
C682 C685 1.409 . S
C683 H675 0.930 . S
C683 C684 1.355 . S
C683 C685 1.415 . S
C684 C683 1.355 . S
C684 C686 1.419 . S
C685 C680 1.425 . S
C685 C682 1.409 . S
C685 C683 1.415 . S
C686 H676 0.930 . S
C686 C684 1.419 . S
C686 C687 1.362 . S
C687 H677 0.930 . S
C687 C680 1.409 . S
C687 C686 1.362 . S
H688 C694 0.930 . S
H689 C697 0.930 . S
H690 C698 0.930 . S
H691 C699 0.930 . S
H692 C702 0.930 . S
H693 C703 0.930 . S
C694 H688 0.930 . S
C694 C695 1.355 . S
C694 C696 1.415 . S
C695 C694 1.355 . S
C695 C697 1.419 . S
C696 C694 1.415 . S
C696 C701 1.425 . S
C696 C703 1.409 . S
C697 H689 0.930 . S
C697 C695 1.419 . S
C697 C698 1.362 . S
C698 H690 0.930 . S
C698 C697 1.362 . S
C698 C701 1.409 . S
C699 H691 0.930 . S
C699 C700 1.355 . S
C699 C701 1.415 . S
C700 C699 1.355 . S
C700 C702 1.419 . S
C701 C696 1.425 . S
C701 C698 1.409 . S
C701 C699 1.415 . S
C702 H692 0.930 . S
C702 C700 1.419 . S
C702 C703 1.362 . S
C703 H693 0.930 . S
C703 C696 1.409 . S
C703 C702 1.362 . S
H704 C710 0.930 . S
H705 C713 0.930 . S
H706 C714 0.930 . S
H707 C715 0.930 . S
H708 C718 0.930 . S
H709 C719 0.930 . S
C710 H704 0.930 . S
C710 C711 1.355 . S
C710 C712 1.415 . S
C711 C710 1.355 . S
C711 C713 1.419 . S
C712 C710 1.415 . S
C712 C717 1.425 . S
C712 C719 1.409 . S
C713 H705 0.930 . S
C713 C711 1.419 . S
C713 C714 1.362 . S
C714 H706 0.930 . S
C714 C713 1.362 . S
C714 C717 1.409 . S
C715 H707 0.930 . S
C715 C716 1.355 . S
C715 C717 1.415 . S
C716 C715 1.355 . S
C716 C718 1.419 . S
C717 C712 1.425 . S
C717 C714 1.409 . S
C717 C715 1.415 . S
C718 H708 0.930 . S
C718 C716 1.419 . S
C718 C719 1.362 . S
C719 H709 0.930 . S
C719 C712 1.409 . S
C719 C718 1.362 . S
H720 C726 0.930 . S
H721 C729 0.930 . S
H722 C730 0.930 . S
H723 C731 0.930 . S
H724 C734 0.930 . S
H725 C735 0.930 . S
C726 H720 0.930 . S
C726 C727 1.355 . S
C726 C728 1.415 . S
C727 C726 1.355 . S
C727 C729 1.419 . S
C728 C726 1.415 . S
C728 C733 1.425 . S
C728 C735 1.409 . S
C729 H721 0.930 . S
C729 C727 1.419 . S
C729 C730 1.362 . S
C730 H722 0.930 . S
C730 C729 1.362 . S
C730 C733 1.409 . S
C731 H723 0.930 . S
C731 C732 1.355 . S
C731 C733 1.415 . S
C732 C731 1.355 . S
C732 C734 1.419 . S
C733 C728 1.425 . S
C733 C730 1.409 . S
C733 C731 1.415 . S
C734 H724 0.930 . S
C734 C732 1.419 . S
C734 C735 1.362 . S
C735 H725 0.930 . S
C735 C728 1.409 . S
C735 C734 1.362 . S
C231 C163 1.417 . S
C236 C7 1.444 . S
C247 C21 1.462 . S
C252 C121 1.449 . S
C263 C35 1.443 . S
C268 C135 1.461 . S
C279 C149 1.462 . S
C284 C49 1.448 . S
C295 C63 1.416 1_556 S
C300 C79 1.427 . S
C311 C77 1.450 . S
C316 C93 1.461 . S
C327 C107 1.445 . S
C332 C91 1.462 . S
C343 C65 1.413 . S
C348 C105 1.431 1_554 S
C359 C51 1.446 . S
C364 C119 1.462 . S
C375 C133 1.462 . S
C380 C9 1.443 . S
C391 C23 1.454 . S
C396 C147 1.460 . S
C407 C161 1.449 . S
C412 C37 1.420 . S
C423 C175 1.416 . S
C428 C191 1.426 . S
C439 C189 1.459 . S
C444 C205 1.433 . S
C455 C219 1.446 . S
C460 C203 1.420 . S
C471 C177 1.457 . S
C476 C217 1.459 . S
C487 C64 1.312 . S
C492 C8 1.276 . S
C503 C22 1.240 . S
C508 C78 1.254 . S
C519 C36 1.299 . S
C524 C92 1.333 . S
C535 C106 1.243 . S
C540 C50 1.264 . S
C551 C120 1.293 . S
C556 C176 1.260 . S
C567 C190 1.251 . S
C572 C134 1.240 . S
C583 C148 1.261 . S
C588 C204 1.242 . S
C599 C218 1.241 . S
C604 C162 1.259 . S
C615 C202 1.356 . S
C620 C6 1.358 1_556 S
C631 C216 1.357 . S
C636 C20 1.357 1_554 S
C647 C34 1.390 1_556 S
C652 C174 1.387 . S
C663 C188 1.394 . S
C668 C48 1.364 1_554 S
C679 C146 1.362 . S
C684 C62 1.393 . S
C695 C160 1.350 . S
C700 C76 1.370 . S
C711 C90 1.362 . S
C716 C118 1.353 . S
C727 C132 1.361 . S
C732 C104 1.392 . S
