# Generated by pormake.
# Topology uka, (4)-cn, num edge types: 1
# Building blocks:
#     Node 0, Type 0, BuildingBlock: QUQFOY_clean_sbu_1, # of connection points: 4
#     Node 1, Type 0, BuildingBlock: QUQFOY_clean_sbu_1, # of connection points: 4
#     Node 2, Type 0, BuildingBlock: QUQFOY_clean_sbu_1, # of connection points: 4
#     Node 3, Type 0, BuildingBlock: QUQFOY_clean_sbu_1, # of connection points: 4
#     Node 4, Type 0, BuildingBlock: QUQFOY_clean_sbu_1, # of connection points: 4
#     Node 5, Type 0, BuildingBlock: QUQFOY_clean_sbu_1, # of connection points: 4
#     Node 6, Type 0, BuildingBlock: QUQFOY_clean_sbu_1, # of connection points: 4
#     Node 7, Type 0, BuildingBlock: QUQFOY_clean_sbu_1, # of connection points: 4
#     Node 8, Type 0, BuildingBlock: QUQFOY_clean_sbu_1, # of connection points: 4
#     Node 9, Type 0, BuildingBlock: QUQFOY_clean_sbu_1, # of connection points: 4
#     Node 10, Type 0, BuildingBlock: QUQFOY_clean_sbu_1, # of connection points: 4
#     Node 11, Type 0, BuildingBlock: QUQFOY_clean_sbu_1, # of connection points: 4
#     Node 12, Type 0, BuildingBlock: QUQFOY_clean_sbu_1, # of connection points: 4
#     Node 13, Type 0, BuildingBlock: QUQFOY_clean_sbu_1, # of connection points: 4
#     Node 14, Type 0, BuildingBlock: QUQFOY_clean_sbu_1, # of connection points: 4
#     Node 15, Type 0, BuildingBlock: QUQFOY_clean_sbu_1, # of connection points: 4
#     Node 16, Type 0, BuildingBlock: QUQFOY_clean_sbu_1, # of connection points: 4
#     Node 17, Type 0, BuildingBlock: QUQFOY_clean_sbu_1, # of connection points: 4
#     Node 18, Type 0, BuildingBlock: QUQFOY_clean_sbu_1, # of connection points: 4
#     Node 19, Type 0, BuildingBlock: QUQFOY_clean_sbu_1, # of connection points: 4
#     Node 20, Type 0, BuildingBlock: QUQFOY_clean_sbu_1, # of connection points: 4
#     Node 21, Type 0, BuildingBlock: QUQFOY_clean_sbu_1, # of connection points: 4
#     Node 22, Type 0, BuildingBlock: QUQFOY_clean_sbu_1, # of connection points: 4
#     Node 23, Type 0, BuildingBlock: QUQFOY_clean_sbu_1, # of connection points: 4
#     Node 24, Type 0, BuildingBlock: QUQFOY_clean_sbu_1, # of connection points: 4
#     Node 25, Type 0, BuildingBlock: QUQFOY_clean_sbu_1, # of connection points: 4
#     Node 26, Type 0, BuildingBlock: QUQFOY_clean_sbu_1, # of connection points: 4
#     Node 27, Type 0, BuildingBlock: QUQFOY_clean_sbu_1, # of connection points: 4
#     Node 28, Type 0, BuildingBlock: QUQFOY_clean_sbu_1, # of connection points: 4
#     Node 29, Type 0, BuildingBlock: QUQFOY_clean_sbu_1, # of connection points: 4
#     Node 30, Type 0, BuildingBlock: QUQFOY_clean_sbu_1, # of connection points: 4
#     Node 31, Type 0, BuildingBlock: QUQFOY_clean_sbu_1, # of connection points: 4
#     Edge 32, Type (0, 0), None
#     Edge 33, Type (0, 0), None
#     Edge 34, Type (0, 0), None
#     Edge 35, Type (0, 0), None
#     Edge 36, Type (0, 0), None
#     Edge 37, Type (0, 0), None
#     Edge 38, Type (0, 0), None
#     Edge 39, Type (0, 0), None
#     Edge 40, Type (0, 0), None
#     Edge 41, Type (0, 0), None
#     Edge 42, Type (0, 0), None
#     Edge 43, Type (0, 0), None
#     Edge 44, Type (0, 0), None
#     Edge 45, Type (0, 0), None
#     Edge 46, Type (0, 0), None
#     Edge 47, Type (0, 0), None
#     Edge 48, Type (0, 0), None
#     Edge 49, Type (0, 0), None
#     Edge 50, Type (0, 0), None
#     Edge 51, Type (0, 0), None
#     Edge 52, Type (0, 0), None
#     Edge 53, Type (0, 0), None
#     Edge 54, Type (0, 0), None
#     Edge 55, Type (0, 0), None
#     Edge 56, Type (0, 0), None
#     Edge 57, Type (0, 0), None
#     Edge 58, Type (0, 0), None
#     Edge 59, Type (0, 0), None
#     Edge 60, Type (0, 0), None
#     Edge 61, Type (0, 0), None
#     Edge 62, Type (0, 0), None
#     Edge 63, Type (0, 0), None
#     Edge 64, Type (0, 0), None
#     Edge 65, Type (0, 0), None
#     Edge 66, Type (0, 0), None
#     Edge 67, Type (0, 0), None
#     Edge 68, Type (0, 0), None
#     Edge 69, Type (0, 0), None
#     Edge 70, Type (0, 0), None
#     Edge 71, Type (0, 0), None
#     Edge 72, Type (0, 0), None
#     Edge 73, Type (0, 0), None
#     Edge 74, Type (0, 0), None
#     Edge 75, Type (0, 0), None
#     Edge 76, Type (0, 0), None
#     Edge 77, Type (0, 0), None
#     Edge 78, Type (0, 0), None
#     Edge 79, Type (0, 0), None
#     Edge 80, Type (0, 0), None
#     Edge 81, Type (0, 0), None
#     Edge 82, Type (0, 0), None
#     Edge 83, Type (0, 0), None
#     Edge 84, Type (0, 0), None
#     Edge 85, Type (0, 0), None
#     Edge 86, Type (0, 0), None
#     Edge 87, Type (0, 0), None
#     Edge 88, Type (0, 0), None
#     Edge 89, Type (0, 0), None
#     Edge 90, Type (0, 0), None
#     Edge 91, Type (0, 0), None
#     Edge 92, Type (0, 0), None
#     Edge 93, Type (0, 0), None
#     Edge 94, Type (0, 0), None
#     Edge 95, Type (0, 0), None
# Relax obj value: 0.099
# Max RMSD: 0.102
# Mean RMSD: 0.102
data_MOF--net-uka--node1-QUQFOY_clean_sbu_1--edge1-none
_symmetry_space_group_name_H-M    P1
_symmetry_Int_Tables_number       1
_symmetry_cell_setting            triclinic
loop_
_symmetry_equiv_pos_as_xyz
'x, y, z'
_cell_length_a     29.144592
_cell_length_b     29.476947
_cell_length_c     19.730372
_cell_angle_alpha  89.998738
_cell_angle_beta   90.000068
_cell_angle_gamma 90.000079
loop_
_atom_site_label
_atom_site_type_symbol
_atom_site_fract_x
_atom_site_fract_y
_atom_site_fract_z
_atom_type_partial_charge
O0 O 0.14918 0.21166 0.39877 0.0
Cd1 Cd 0.18569 0.26842 0.37122 0.0
Cd2 Cd 0.10583 0.28276 0.28922 0.0
O3 O 0.09442 0.21616 0.32156 0.0
O4 O 0.25284 0.25679 0.3677 0.0
O5 O 0.21069 0.27532 0.27769 0.0
C6 C 0.25021 0.2652 0.30351 0.0
C7 C 0.06476 0.31058 0.19478 0.0
C8 C 0.11354 0.19543 0.37072 0.0
C9 C 0.13218 0.34584 0.41121 0.0
O10 O 0.10719 0.33207 0.36254 0.0
O11 O 0.16892 0.32528 0.42658 0.0
O12 O 0.0439 0.2963 0.24789 0.0
O13 O 0.10881 0.3068 0.19291 0.0
O14 O 0.08864 0.9065 0.65587 0.0
Cd15 Cd 0.02581 0.9329 0.63129 0.0
Cd16 Cd 0.02321 0.86415 0.54011 0.0
O17 O 0.09034 0.85465 0.57464 0.0
O18 O 0.02584 1.00067 0.62503 0.0
O19 O 1.01788 0.95483 0.53639 0.0
C20 C 0.02143 0.99544 0.56021 0.0
C21 C 0.99956 0.84404 0.42986 0.0
C22 C 0.10892 0.87423 0.62551 0.0
C23 C 0.95731 0.86437 0.6626 0.0
O24 O 0.97326 0.84667 0.60896 0.0
O25 O 0.97232 0.90227 0.68373 0.0
O26 O 1.01026 0.81416 0.47436 0.0
O27 O 1.00533 0.88607 0.44546 0.0
O28 O 0.39249 0.8185 0.89913 0.0
Cd29 Cd 0.356 0.76169 0.87175 0.0
Cd30 Cd 0.43574 0.74748 0.78949 0.0
O31 O 0.44706 0.81414 0.82163 0.0
O32 O 0.28882 0.77322 0.86822 0.0
O33 O 0.331 0.75468 0.77824 0.0
C34 C 0.29146 0.76478 0.80404 0.0
C35 C 0.47675 0.71962 0.69502 0.0
C36 C 0.42802 0.83481 0.87091 0.0
C37 C 0.40972 0.68443 0.91169 0.0
O38 O 0.4346 0.69826 0.86294 0.0
O39 O 0.37293 0.70487 0.92713 0.0
O40 O 0.49764 0.73403 0.74803 0.0
O41 O 0.43269 0.72329 0.69326 0.0
O42 O 0.45339 0.12367 0.15586 0.0
Cd43 Cd 0.51621 0.09723 0.13134 0.0
Cd44 Cd 0.51887 0.16594 0.04005 0.0
O45 O 0.45173 0.17547 0.07456 0.0
O46 O 0.5161 0.02946 0.12507 0.0
O47 O 0.5241 0.0753 1.03643 0.0
C48 C 0.52049 0.03469 0.06025 0.0
C49 C 0.54252 0.18611 0.92984 0.0
C50 C 0.43312 0.15591 0.12543 0.0
C51 C 0.5848 0.16568 0.16253 0.0
O52 O 0.56886 0.18336 0.10887 0.0
O53 O 0.56973 0.12782 0.18375 0.0
O54 O 0.53186 0.21596 0.97439 0.0
O55 O 0.53672 0.14407 0.94537 0.0
O56 O 0.14919 0.81846 0.17679 0.0
Cd57 Cd 0.1857 0.7617 0.20434 0.0
Cd58 Cd 0.10584 0.74737 0.28634 0.0
O59 O 0.09444 0.81397 0.25401 0.0
O60 O 0.25285 0.77331 0.20784 0.0
O61 O 0.2107 0.75478 0.29786 0.0
C62 C 0.25022 0.7649 0.27204 0.0
C63 C 0.06477 0.71956 0.38079 0.0
C64 C 0.11356 0.83469 0.20485 0.0
C65 C 0.13216 0.68429 0.16434 0.0
O66 O 0.10719 0.69806 0.21301 0.0
O67 O 0.16891 0.70483 0.14897 0.0
O68 O 0.04391 0.73384 0.32768 0.0
O69 O 0.10883 0.72332 0.38265 0.0
O70 O 0.45336 0.90644 0.41972 0.0
Cd71 Cd 0.51617 0.9329 0.44424 0.0
Cd72 Cd 0.51887 0.86419 0.53551 0.0
O73 O 0.45173 0.85463 0.501 0.0
O74 O 0.51605 1.00066 0.45051 0.0
O75 O 0.52407 0.95482 0.53915 0.0
C76 C 0.52045 0.99543 0.51533 0.0
C77 C 0.54253 0.844 0.64571 0.0
C78 C 0.4331 0.87419 0.45015 0.0
C79 C 0.58478 0.86446 0.41301 0.0
O80 O 0.56886 0.84678 0.46668 0.0
O81 O 0.5697 0.90232 0.39179 0.0
O82 O 0.53188 0.81415 0.60114 0.0
O83 O 0.53672 0.88603 0.6302 0.0
O84 O 0.39249 0.21166 0.67639 0.0
Cd85 Cd 0.356 0.26847 0.70378 0.0
Cd86 Cd 0.43573 0.28266 0.78605 0.0
O87 O 0.44704 0.216 0.75392 0.0
O88 O 0.28882 0.25695 0.70729 0.0
O89 O 0.331 0.27548 0.79729 0.0
C90 C 0.29146 0.26539 0.77148 0.0
C91 C 0.47674 0.31051 0.88053 0.0
C92 C 0.42801 0.19534 0.70463 0.0
C93 C 0.40974 0.34573 0.66386 0.0
O94 O 0.43462 0.33189 0.71261 0.0
O95 O 0.37294 0.32529 0.6484 0.0
O96 O 0.49763 0.2961 0.82753 0.0
O97 O 0.43267 0.30685 0.88228 0.0
O98 O 0.08867 0.12364 0.91969 0.0
Cd99 Cd 0.02584 0.09724 0.94428 0.0
Cd100 Cd 0.02324 0.16599 1.03545 0.0
O101 O 0.09037 0.1755 1.00091 0.0
O102 O 0.02588 0.02946 0.95054 0.0
O103 O 1.01792 0.07531 0.03918 0.0
C104 C 0.02147 0.03469 1.01536 0.0
C105 C 0.9996 0.1861 0.1457 0.0
C106 C 0.10895 0.15592 0.95004 0.0
C107 C 0.95734 0.16576 0.91296 0.0
O108 O 0.97329 0.18347 0.9666 0.0
O109 O 0.97236 0.12785 0.89183 0.0
O110 O 1.01029 0.21598 0.1012 0.0
O111 O 1.00536 0.14407 0.1301 0.0
O112 O 0.89262 0.81863 0.67619 0.0
Cd113 Cd 0.85613 0.76191 0.70403 0.0
Cd114 Cd 0.93613 0.74765 0.7858 0.0
O115 O 0.94745 0.81425 0.75334 0.0
O116 O 0.78898 0.77352 0.70798 0.0
O117 O 0.83142 0.75509 0.79775 0.0
C118 C 0.79181 0.76517 0.77217 0.0
C119 C 0.97726 0.7198 0.88015 0.0
C120 C 0.92825 0.83491 0.70419 0.0
C121 C 0.90953 0.68441 0.66413 0.0
O122 O 0.93461 0.69828 0.71262 0.0
O123 O 0.87276 0.70494 0.6488 0.0
O124 O 0.9981 0.73407 0.82701 0.0
O125 O 0.93321 0.72364 0.88211 0.0
O126 O 0.9532 0.12366 0.41902 0.0
Cd127 Cd 1.01609 0.09733 0.44346 0.0
Cd128 Cd 1.0186 0.16604 0.5348 0.0
O129 O 0.95135 0.17527 0.50058 0.0
O130 O 1.01612 0.02956 0.44973 0.0
O131 O 0.02407 0.07541 0.53837 0.0
C132 C 1.02054 0.03479 0.51455 0.0
C133 C 0.04238 0.1863 0.64492 0.0
C134 C 0.93279 0.15573 0.44966 0.0
C135 C 0.08444 0.16595 0.41219 0.0
O136 O 0.06841 0.18363 0.46579 0.0
O137 O 0.06955 0.128 0.39104 0.0
O138 O 0.03148 0.21611 0.60043 0.0
O139 O 0.03676 0.14424 0.62939 0.0
O140 O 0.64945 0.21151 0.17585 0.0
Cd141 Cd 0.68593 0.26828 0.20351 0.0
Cd142 Cd 0.60606 0.28239 0.28556 0.0
O143 O 0.59482 0.21574 0.25331 0.0
O144 O 0.75309 0.25675 0.2075 0.0
O145 O 0.71061 0.27519 0.29722 0.0
C146 C 0.75024 0.26512 0.27168 0.0
C147 C 0.56501 0.31029 0.37995 0.0
C148 C 0.61393 0.19514 0.20403 0.0
C149 C 0.63231 0.34561 0.16366 0.0
O150 O 0.60734 0.33168 0.21224 0.0
O151 O 0.66913 0.32519 0.14826 0.0
O152 O 0.54413 0.29588 0.32692 0.0
O153 O 0.60906 0.30655 0.38179 0.0
O154 O 0.58853 0.90644 0.91912 0.0
Cd155 Cd 0.52565 0.93281 0.94348 0.0
Cd156 Cd 0.52304 0.86414 1.03492 0.0
O157 O 0.59029 0.85485 1.00071 0.0
O158 O 0.52571 1.00058 0.94976 0.0
O159 O 0.51769 0.95473 0.03839 0.0
C160 C 0.52129 0.99535 1.01458 0.0
C161 C 0.49926 0.84383 0.14501 0.0
C162 C 0.6089 0.87436 0.94981 0.0
C163 C 0.45718 0.86429 0.91231 0.0
O164 O 0.47317 0.84664 0.96595 0.0
O165 O 0.47216 0.90218 0.89106 0.0
O166 O 0.5101 0.81404 0.10045 0.0
O167 O 0.50494 0.88589 0.12956 0.0
O168 O 0.89264 0.21149 0.89936 0.0
Cd169 Cd 0.85614 0.2682 0.87152 0.0
Cd170 Cd 0.93616 0.28247 0.78976 0.0
O171 O 0.94748 0.21588 0.82222 0.0
O172 O 0.789 0.25658 0.86756 0.0
O173 O 0.83144 0.27501 0.7778 0.0
C174 C 0.79183 0.26492 0.80337 0.0
C175 C 0.97728 0.31033 0.69541 0.0
C176 C 0.92828 0.19521 0.87137 0.0
C177 C 0.90953 0.34571 0.91143 0.0
O178 O 0.93462 0.33185 0.86294 0.0
O179 O 0.87276 0.32518 0.92675 0.0
O180 O 0.99812 0.29607 0.74856 0.0
O181 O 0.93324 0.30648 0.69344 0.0
O182 O 0.58851 0.12367 0.65647 0.0
Cd183 Cd 0.52562 0.09731 0.6321 0.0
Cd184 Cd 0.52304 0.16598 0.54065 0.0
O185 O 0.5903 0.17525 0.57486 0.0
O186 O 0.52567 0.02954 0.62582 0.0
O187 O 0.51767 0.07539 0.53719 0.0
C188 C 0.52126 0.03478 0.561 0.0
C189 C 0.49928 0.18628 0.43054 0.0
C190 C 0.60889 0.15573 0.62577 0.0
C191 C 0.45717 0.16585 0.66324 0.0
O192 O 0.47317 0.1835 0.6096 0.0
O193 O 0.47213 0.12796 0.68449 0.0
O194 O 0.51013 0.21607 0.47508 0.0
O195 O 0.50494 0.14421 0.44602 0.0
O196 O 0.64944 0.81866 0.39966 0.0
Cd197 Cd 0.68592 0.76189 0.37201 0.0
Cd198 Cd 0.60604 0.74775 0.28998 0.0
O199 O 0.59479 0.8144 0.32223 0.0
O200 O 0.75308 0.77343 0.36802 0.0
O201 O 0.7106 0.75497 0.2783 0.0
C202 C 0.75023 0.76505 0.30384 0.0
C203 C 0.56499 0.71984 0.1956 0.0
C204 C 0.61391 0.83502 0.3715 0.0
C205 C 0.63232 0.68455 0.41188 0.0
O206 O 0.60734 0.69846 0.36331 0.0
O207 O 0.66914 0.70498 0.42727 0.0
O208 O 0.54411 0.73424 0.24863 0.0
O209 O 0.60904 0.72359 0.19375 0.0
O210 O 0.95322 0.90649 0.15653 0.0
Cd211 Cd 1.01611 0.93281 0.13211 0.0
Cd212 Cd 1.01863 0.8641 0.04076 0.0
O213 O 0.95137 0.85488 0.07497 0.0
O214 O 1.01615 1.00058 0.12584 0.0
O215 O 0.02411 0.95473 1.0372 0.0
C216 C 1.02058 0.99534 0.06102 0.0
C217 C 0.04241 0.84384 0.93063 0.0
C218 C 0.93281 0.87442 0.12589 0.0
C219 C 0.08446 0.86418 0.16338 0.0
O220 O 0.06844 0.84651 0.10977 0.0
O221 O 0.06957 0.90213 0.18453 0.0
O222 O 0.0315 0.81403 0.97513 0.0
O223 O 0.03679 0.8859 0.94617 0.0
O224 O 0.6418 0.71223 0.88791 0.0
Cd225 Cd 0.68546 0.76676 0.88083 0.0
Cd226 Cd 0.60397 0.80953 0.80752 0.0
O227 O 0.58065 0.75485 0.8644 0.0
O228 O 0.75217 0.75282 0.87714 0.0
O229 O 0.71197 0.78066 0.79037 0.0
C230 C 0.75063 0.76647 0.81483 0.0
C231 C 0.56539 0.83036 0.70879 0.0
C232 C 0.59859 0.71843 0.8875 0.0
C233 C 0.64863 0.85315 0.91649 0.0
O234 O 0.64922 0.854 0.8522 0.0
O235 O 0.66604 0.81875 0.94492 0.0
O236 O 0.55223 0.84579 0.76684 0.0
O237 O 0.60022 0.80322 0.70687 0.0
O238 O 0.58044 0.40272 0.14835 0.0
Cd239 Cd 0.51977 0.42326 0.10668 0.0
Cd240 Cd 0.53767 0.35242 0.03813 0.0
O241 O 0.60515 0.36813 0.05747 0.0
O242 O 0.51329 0.48979 0.11908 0.0
O243 O 0.52324 0.45619 1.01892 0.0
C244 C 0.51958 0.49295 0.05436 0.0
C245 C 0.50263 0.329 0.93805 0.0
C246 C 0.61115 0.37928 0.11909 0.0
C247 C 0.47331 0.34225 0.14993 0.0
O248 O 0.50728 0.32407 0.12051 0.0
O249 O 0.46434 0.3841 0.1403 0.0
O250 O 0.53551 0.30596 0.96479 0.0
O251 O 0.49239 0.36781 0.96436 0.0
O252 O 0.90031 0.3178 0.38783 0.0
Cd253 Cd 0.8565 0.26339 0.38055 0.0
Cd254 Cd 0.93812 0.22046 0.30753 0.0
O255 O 0.96144 0.2751 0.36449 0.0
O256 O 0.78983 0.27749 0.3767 0.0
O257 O 0.83006 0.24957 0.29002 0.0
C258 C 0.7914 0.26382 0.31439 0.0
C259 C 0.97672 0.1997 0.2088 0.0
C260 C 0.94352 0.31155 0.38754 0.0
C261 C 0.89309 0.17694 0.41626 0.0
O262 O 0.89261 0.17615 0.35196 0.0
O263 O 0.87564 0.21132 0.44468 0.0
O264 O 0.9898 0.18413 0.26681 0.0
O265 O 0.94196 0.22691 0.20691 0.0
O266 O 0.96126 0.6272 0.64867 0.0
Cd267 Cd 0.02193 0.60681 0.60683 0.0
Cd268 Cd 1.00387 0.67772 0.53843 0.0
O269 O 0.93646 0.66181 0.55786 0.0
O270 O 0.02858 0.54029 0.61914 0.0
O271 O 1.01844 0.57392 0.51904 0.0
C272 C 0.02222 0.53715 0.55443 0.0
C273 C 0.03886 0.70109 0.43831 0.0
C274 C 0.93053 0.65066 0.6195 0.0
C275 C 0.06831 0.68793 0.65008 0.0
O276 O 0.03429 0.70609 0.62077 0.0
O277 O 0.07732 0.64608 0.64038 0.0
O278 O 1.00597 0.72413 0.46501 0.0
O279 O 0.04914 0.66231 0.46469 0.0
O280 O 0.64182 0.31783 0.6876 0.0
Cd281 Cd 0.68549 0.26331 0.6947 0.0
Cd282 Cd 0.60396 0.22054 0.76801 0.0
O283 O 0.58066 0.27523 0.71113 0.0
O284 O 0.75219 0.27725 0.69839 0.0
O285 O 0.71199 0.24942 0.78516 0.0
C286 C 0.75065 0.26361 0.76071 0.0
C287 C 0.56538 0.19973 0.86674 0.0
C288 C 0.5986 0.31165 0.68802 0.0
C289 C 0.64865 0.17692 0.65907 0.0
O290 O 0.64923 0.17609 0.72337 0.0
O291 O 0.66608 0.21131 0.63062 0.0
O292 O 0.55222 0.18429 0.80871 0.0
O293 O 0.6002 0.22687 0.86865 0.0
O294 O 0.96124 0.40294 0.92689 0.0
Cd295 Cd 0.02192 0.42332 0.96873 0.0
Cd296 Cd 1.00386 0.35241 1.03713 0.0
O297 O 0.93644 0.36832 1.01769 0.0
O298 O 0.02856 0.48984 0.95642 0.0
O299 O 1.01842 0.45622 0.05652 0.0
C300 C 0.0222 0.49299 1.02114 0.0
C301 C 0.03885 0.32904 0.13726 0.0
C302 C 0.93052 0.37946 0.95606 0.0
C303 C 0.0683 0.34221 0.92548 0.0
O304 O 0.03428 0.32404 0.9548 0.0
O305 O 0.0773 0.38406 0.93517 0.0
O306 O 1.00596 0.30601 0.11056 0.0
O307 O 0.04913 0.36783 0.11088 0.0
O308 O 0.90029 0.71234 0.18771 0.0
Cd309 Cd 0.85649 0.76677 0.19498 0.0
Cd310 Cd 0.9381 0.80968 0.26803 0.0
O311 O 0.96142 0.75503 0.21107 0.0
O312 O 0.78982 0.75269 0.19882 0.0
O313 O 0.83005 0.78059 0.2855 0.0
C314 C 0.79139 0.76634 0.26113 0.0
C315 C 0.9767 0.83044 0.36676 0.0
C316 C 0.9435 0.71859 0.18801 0.0
C317 C 0.8931 0.85321 0.15928 0.0
O318 O 0.89261 0.85401 0.22358 0.0
O319 O 0.87566 0.81883 0.13085 0.0
O320 O 0.98978 0.846 0.30875 0.0
O321 O 0.94193 0.80324 0.36864 0.0
O322 O 0.58048 0.62741 0.4272 0.0
Cd323 Cd 0.51981 0.60684 0.46887 0.0
Cd324 Cd 0.53768 0.67769 0.53742 0.0
O325 O 0.60517 0.66202 0.51808 0.0
O326 O 0.51336 0.54032 0.45646 0.0
O327 O 0.52329 0.57392 0.55662 0.0
C328 C 0.51964 0.53716 0.52118 0.0
C329 C 0.50264 0.70113 0.63751 0.0
C330 C 0.61117 0.65087 0.45646 0.0
C331 C 0.47332 0.68784 0.42561 0.0
O332 O 0.50728 0.70603 0.45504 0.0
O333 O 0.46437 0.64598 0.43523 0.0
O334 O 0.53551 0.72416 0.61075 0.0
O335 O 0.49241 0.66231 0.61121 0.0
O336 O 0.40039 0.3185 0.18888 0.0
Cd337 Cd 0.35692 0.26384 0.19564 0.0
Cd338 Cd 0.43784 0.22101 0.26877 0.0
O339 O 0.46141 0.27567 0.21203 0.0
O340 O 0.29019 0.27769 0.19886 0.0
O341 O 0.33012 0.24975 0.28583 0.0
C342 C 0.29154 0.26395 0.26114 0.0
C343 C 0.4764 0.20002 0.36751 0.0
C344 C 0.44358 0.3122 0.18916 0.0
C345 C 0.3937 0.17738 0.1592 0.0
O346 O 0.39324 0.17613 0.22349 0.0
O347 O 0.37657 0.21209 0.13125 0.0
O348 O 0.48969 0.18484 0.30939 0.0
O349 O 0.44147 0.22701 0.36952 0.0
O350 O 0.46191 0.62761 0.9274 0.0
Cd351 Cd 0.52249 0.60718 0.96949 0.0
Cd352 Cd 0.5042 0.67788 0.03793 0.0
O353 O 0.43678 0.66215 1.01809 0.0
O354 O 0.52909 0.54066 0.95714 0.0
O355 O 0.51884 0.57426 0.05724 0.0
C356 C 0.52265 0.5375 1.02183 0.0
C357 C 0.53908 0.70129 0.13814 0.0
C358 C 0.43103 0.65094 0.95644 0.0
C359 C 0.56886 0.6883 0.92659 0.0
O360 O 0.53474 0.70637 0.95578 0.0
O361 O 0.57793 0.64647 0.93626 0.0
O362 O 0.50614 0.72424 0.11143 0.0
O363 O 0.54944 0.66252 0.11176 0.0
O364 O 0.14125 0.71161 0.68913 0.0
Cd365 Cd 0.18482 0.76619 0.69602 0.0
Cd366 Cd 0.10389 0.80916 0.76887 0.0
O367 O 0.08027 0.75455 0.71207 0.0
O368 O 0.25152 0.75224 0.69938 0.0
O369 O 0.21157 0.78026 0.78626 0.0
C370 C 0.25015 0.766 0.76164 0.0
C371 C 0.0653 0.83012 0.8676 0.0
C372 C 0.09807 0.71798 0.68927 0.0
C373 C 0.14826 0.85272 0.65943 0.0
O374 O 0.14862 0.85398 0.72371 0.0
O375 O 0.16537 0.81797 0.63156 0.0
O376 O 0.05207 0.84538 0.8095 0.0
O377 O 0.10018 0.80308 0.86961 0.0
O378 O 0.08009 0.40272 0.42712 0.0
Cd379 Cd 1.01952 0.42295 0.46943 0.0
Cd380 Cd 0.03804 0.3522 0.5377 0.0
O381 O 0.10537 0.36817 0.51771 0.0
O382 O 1.0127 0.48946 0.45719 0.0
O383 O 0.0232 0.45584 0.55721 0.0
C384 C 1.01924 0.4926 0.52186 0.0
C385 C 1.00321 0.32887 0.63796 0.0
C386 C 0.11103 0.37938 0.45604 0.0
C387 C 0.97326 0.3417 0.42658 0.0
O388 O 1.00747 0.32366 0.45562 0.0
O389 O 0.96414 0.38351 0.43632 0.0
O390 O 0.03619 0.30592 0.61132 0.0
O391 O 0.9928 0.36759 0.61148 0.0
O392 O 0.40039 0.71156 0.38664 0.0
Cd393 Cd 0.35693 0.76623 0.3799 0.0
Cd394 Cd 0.43781 0.80907 0.30677 0.0
O395 O 0.46141 0.75441 0.36351 0.0
O396 O 0.2902 0.75239 0.37668 0.0
O397 O 0.33014 0.78033 0.28971 0.0
C398 C 0.29155 0.76613 0.3144 0.0
C399 C 0.47638 0.83008 0.20804 0.0
C400 C 0.44358 0.71787 0.38637 0.0
C401 C 0.3937 0.8527 0.41636 0.0
O402 O 0.39324 0.85397 0.35208 0.0
O403 O 0.3766 0.81797 0.4443 0.0
O404 O 0.48967 0.84524 0.26616 0.0
O405 O 0.44145 0.80308 0.20601 0.0
O406 O 0.08007 0.62742 0.14844 0.0
Cd407 Cd 1.01949 0.60719 0.10613 0.0
Cd408 Cd 0.03801 0.67793 0.03786 0.0
O409 O 0.10535 0.66196 0.05785 0.0
O410 O 1.01268 0.54068 0.11838 0.0
O411 O 0.02318 0.5743 1.01836 0.0
C412 C 1.01921 0.53753 0.0537 0.0
C413 C 1.00319 0.70127 0.93761 0.0
C414 C 0.111 0.65075 0.11952 0.0
C415 C 0.97324 0.68844 0.14898 0.0
O416 O 1.00745 0.70647 0.11994 0.0
O417 O 0.96411 0.64663 0.13924 0.0
O418 O 0.03617 0.72421 0.96424 0.0
O419 O 0.99278 0.66254 0.96408 0.0
O420 O 0.14124 0.31854 0.88641 0.0
Cd421 Cd 0.18482 0.26397 0.8795 0.0
Cd422 Cd 0.10388 0.22099 0.80668 0.0
O423 O 0.08026 0.27559 0.86349 0.0
O424 O 0.25152 0.27793 0.87614 0.0
O425 O 0.21156 0.24991 0.78926 0.0
C426 C 0.25015 0.26417 0.81388 0.0
C427 C 0.06528 0.20002 0.70795 0.0
C428 C 0.09806 0.31217 0.88628 0.0
C429 C 0.14828 0.17743 0.91611 0.0
O430 O 0.14862 0.17617 0.85182 0.0
O431 O 0.16539 0.21218 0.94397 0.0
O432 O 0.05206 0.18476 0.76606 0.0
O433 O 0.10016 0.22707 0.70594 0.0
O434 O 0.46196 0.40252 0.64815 0.0
Cd435 Cd 0.52254 0.42293 0.60605 0.0
Cd436 Cd 0.50422 0.35223 0.53762 0.0
O437 O 0.43681 0.368 0.55746 0.0
O438 O 0.52917 0.48944 0.6184 0.0
O439 O 0.51889 0.45585 0.5183 0.0
C440 C 0.52271 0.4926 0.5537 0.0
C441 C 0.5391 0.32884 0.43741 0.0
C442 C 0.43106 0.37921 0.61911 0.0
C443 C 0.56888 0.34179 0.64894 0.0
O444 O 0.53474 0.32373 0.61977 0.0
O445 O 0.57797 0.38361 0.63926 0.0
O446 O 0.50615 0.30588 0.46411 0.0
O447 O 0.54947 0.3676 0.4638 0.0
loop_
_geom_bond_atom_site_label_1
_geom_bond_atom_site_label_2
_geom_bond_distance
_geom_bond_site_symmetry_2
_ccdc_geom_bond_type
O0 Cd1 2.223 . S
O0 C8 1.315 . S
Cd1 O0 2.223 . S
Cd1 O4 2.297 . S
Cd1 O5 2.439 . S
Cd1 O11 2.240 . S
Cd2 O3 2.240 . S
Cd2 O10 2.223 . S
Cd2 O12 2.297 . S
Cd2 O13 2.439 . S
O3 Cd2 2.240 . S
O3 C8 1.279 . S
O4 Cd1 2.297 . S
O4 C6 1.247 . S
O5 Cd1 2.439 . S
O5 C6 1.208 . S
C6 O4 1.247 . S
C6 O5 1.208 . S
C7 O12 1.247 . S
C7 O13 1.208 . S
C8 O0 1.315 . S
C8 O3 1.279 . S
C9 O10 1.315 . S
C9 O11 1.279 . S
O10 Cd2 2.223 . S
O10 C9 1.315 . S
O11 Cd1 2.240 . S
O11 C9 1.279 . S
O12 Cd2 2.297 . S
O12 C7 1.247 . S
O13 Cd2 2.439 . S
O13 C7 1.208 . S
O14 Cd15 2.208 1_455 S
O14 C22 1.327 . S
Cd15 O14 2.208 1_655 S
Cd15 O18 2.297 . S
Cd15 O19 2.439 . S
Cd15 O25 2.240 . S
Cd16 O17 2.240 1_655 S
Cd16 O24 2.223 . S
Cd16 O26 2.297 . S
Cd16 O27 2.439 . S
O17 Cd16 2.240 1_455 S
O17 C22 1.279 . S
O18 Cd15 2.297 . S
O18 C20 1.247 . S
O19 Cd15 2.439 . S
O19 C20 1.208 . S
C20 O18 1.247 . S
C20 O19 1.208 . S
C21 O26 1.247 . S
C21 O27 1.208 . S
C22 O14 1.327 . S
C22 O17 1.279 . S
C23 O24 1.315 . S
C23 O25 1.279 . S
O24 Cd16 2.223 . S
O24 C23 1.315 . S
O25 Cd15 2.240 . S
O25 C23 1.279 . S
O26 Cd16 2.297 . S
O26 C21 1.247 . S
O27 Cd16 2.439 . S
O27 C21 1.208 . S
O28 Cd29 2.223 . S
O28 C36 1.315 . S
Cd29 O28 2.223 . S
Cd29 O32 2.297 . S
Cd29 O33 2.439 . S
Cd29 O39 2.240 . S
Cd30 O31 2.240 . S
Cd30 O38 2.223 . S
Cd30 O40 2.297 . S
Cd30 O41 2.439 . S
O31 Cd30 2.240 . S
O31 C36 1.279 . S
O32 Cd29 2.297 . S
O32 C34 1.247 . S
O33 Cd29 2.439 . S
O33 C34 1.208 . S
C34 O32 1.247 . S
C34 O33 1.208 . S
C35 O40 1.247 . S
C35 O41 1.208 . S
C36 O28 1.315 . S
C36 O31 1.279 . S
C37 O38 1.315 . S
C37 O39 1.279 . S
O38 Cd30 2.223 . S
O38 C37 1.315 . S
O39 Cd29 2.240 . S
O39 C37 1.279 . S
O40 Cd30 2.297 . S
O40 C35 1.247 . S
O41 Cd30 2.439 . S
O41 C35 1.208 . S
O42 Cd43 2.223 . S
O42 C50 1.315 . S
Cd43 O42 2.223 . S
Cd43 O46 2.297 . S
Cd43 O47 2.439 . S
Cd43 O53 2.240 . S
Cd44 O45 2.240 1_556 S
Cd44 O52 2.223 1_556 S
Cd44 O54 2.297 . S
Cd44 O55 2.439 . S
O45 Cd44 2.240 1_554 S
O45 C50 1.279 . S
O46 Cd43 2.297 . S
O46 C48 1.247 . S
O47 Cd43 2.439 . S
O47 C48 1.208 . S
C48 O46 1.247 . S
C48 O47 1.208 . S
C49 O54 1.247 . S
C49 O55 1.208 . S
C50 O42 1.315 . S
C50 O45 1.279 . S
C51 O52 1.315 . S
C51 O53 1.279 . S
O52 Cd44 2.223 1_554 S
O52 C51 1.315 . S
O53 Cd43 2.240 . S
O53 C51 1.279 . S
O54 Cd44 2.297 . S
O54 C49 1.247 . S
O55 Cd44 2.439 . S
O55 C49 1.208 . S
O56 Cd57 2.223 . S
O56 C64 1.315 . S
Cd57 O56 2.223 . S
Cd57 O60 2.297 . S
Cd57 O61 2.439 . S
Cd57 O67 2.240 . S
Cd58 O59 2.240 . S
Cd58 O66 2.223 . S
Cd58 O68 2.297 . S
Cd58 O69 2.439 . S
O59 Cd58 2.240 . S
O59 C64 1.279 . S
O60 Cd57 2.297 . S
O60 C62 1.247 . S
O61 Cd57 2.439 . S
O61 C62 1.208 . S
C62 O60 1.247 . S
C62 O61 1.208 . S
C63 O68 1.247 . S
C63 O69 1.208 . S
C64 O56 1.315 . S
C64 O59 1.279 . S
C65 O66 1.315 . S
C65 O67 1.279 . S
O66 Cd58 2.223 . S
O66 C65 1.315 . S
O67 Cd57 2.240 . S
O67 C65 1.279 . S
O68 Cd58 2.297 . S
O68 C63 1.247 . S
O69 Cd58 2.439 . S
O69 C63 1.208 . S
O70 Cd71 2.223 . S
O70 C78 1.315 . S
Cd71 O70 2.223 . S
Cd71 O74 2.297 . S
Cd71 O75 2.439 . S
Cd71 O81 2.240 . S
Cd72 O73 2.240 . S
Cd72 O80 2.223 . S
Cd72 O82 2.297 . S
Cd72 O83 2.439 . S
O73 Cd72 2.240 . S
O73 C78 1.279 . S
O74 Cd71 2.297 . S
O74 C76 1.247 . S
O75 Cd71 2.439 . S
O75 C76 1.208 . S
C76 O74 1.247 . S
C76 O75 1.208 . S
C77 O82 1.247 . S
C77 O83 1.208 . S
C78 O70 1.315 . S
C78 O73 1.279 . S
C79 O80 1.315 . S
C79 O81 1.279 . S
O80 Cd72 2.223 . S
O80 C79 1.315 . S
O81 Cd71 2.240 . S
O81 C79 1.279 . S
O82 Cd72 2.297 . S
O82 C77 1.247 . S
O83 Cd72 2.439 . S
O83 C77 1.208 . S
O84 Cd85 2.223 . S
O84 C92 1.315 . S
Cd85 O84 2.223 . S
Cd85 O88 2.297 . S
Cd85 O89 2.439 . S
Cd85 O95 2.240 . S
Cd86 O87 2.240 . S
Cd86 O94 2.223 . S
Cd86 O96 2.297 . S
Cd86 O97 2.439 . S
O87 Cd86 2.240 . S
O87 C92 1.279 . S
O88 Cd85 2.297 . S
O88 C90 1.247 . S
O89 Cd85 2.439 . S
O89 C90 1.208 . S
C90 O88 1.247 . S
C90 O89 1.208 . S
C91 O96 1.247 . S
C91 O97 1.208 . S
C92 O84 1.315 . S
C92 O87 1.279 . S
C93 O94 1.315 . S
C93 O95 1.279 . S
O94 Cd86 2.223 . S
O94 C93 1.315 . S
O95 Cd85 2.240 . S
O95 C93 1.279 . S
O96 Cd86 2.297 . S
O96 C91 1.247 . S
O97 Cd86 2.439 . S
O97 C91 1.208 . S
O98 Cd99 2.208 1_455 S
O98 C106 1.327 . S
Cd99 O98 2.208 1_655 S
Cd99 O102 2.297 . S
Cd99 O103 2.439 . S
Cd99 O109 2.240 . S
Cd100 O101 2.240 1_654 S
Cd100 O108 2.223 1_554 S
Cd100 O110 2.297 . S
Cd100 O111 2.439 . S
O101 Cd100 2.240 1_456 S
O101 C106 1.279 . S
O102 Cd99 2.297 . S
O102 C104 1.247 . S
O103 Cd99 2.439 . S
O103 C104 1.208 . S
C104 O102 1.247 . S
C104 O103 1.208 . S
C105 O110 1.247 . S
C105 O111 1.208 . S
C106 O98 1.327 . S
C106 O101 1.279 . S
C107 O108 1.315 . S
C107 O109 1.279 . S
O108 Cd100 2.223 1_556 S
O108 C107 1.315 . S
O109 Cd99 2.240 . S
O109 C107 1.279 . S
O110 Cd100 2.297 . S
O110 C105 1.247 . S
O111 Cd100 2.439 . S
O111 C105 1.208 . S
O112 Cd113 2.223 . S
O112 C120 1.315 . S
Cd113 O112 2.223 . S
Cd113 O116 2.297 . S
Cd113 O117 2.439 . S
Cd113 O123 2.240 . S
Cd114 O115 2.240 . S
Cd114 O122 2.223 . S
Cd114 O124 2.297 . S
Cd114 O125 2.439 . S
O115 Cd114 2.240 . S
O115 C120 1.279 . S
O116 Cd113 2.297 . S
O116 C118 1.247 . S
O117 Cd113 2.439 . S
O117 C118 1.208 . S
C118 O116 1.247 . S
C118 O117 1.208 . S
C119 O124 1.247 . S
C119 O125 1.208 . S
C120 O112 1.315 . S
C120 O115 1.279 . S
C121 O122 1.315 . S
C121 O123 1.279 . S
O122 Cd114 2.223 . S
O122 C121 1.315 . S
O123 Cd113 2.240 . S
O123 C121 1.279 . S
O124 Cd114 2.297 . S
O124 C119 1.247 . S
O125 Cd114 2.439 . S
O125 C119 1.208 . S
O126 Cd127 2.208 1_655 S
O126 C134 1.327 . S
Cd127 O126 2.208 1_455 S
Cd127 O130 2.297 . S
Cd127 O131 2.439 . S
Cd127 O137 2.240 . S
Cd128 O129 2.240 1_455 S
Cd128 O136 2.223 . S
Cd128 O138 2.297 . S
Cd128 O139 2.439 . S
O129 Cd128 2.240 1_655 S
O129 C134 1.279 . S
O130 Cd127 2.297 . S
O130 C132 1.247 . S
O131 Cd127 2.439 . S
O131 C132 1.208 . S
C132 O130 1.247 . S
C132 O131 1.208 . S
C133 O138 1.247 . S
C133 O139 1.208 . S
C134 O126 1.327 . S
C134 O129 1.279 . S
C135 O136 1.315 . S
C135 O137 1.279 . S
O136 Cd128 2.223 . S
O136 C135 1.315 . S
O137 Cd127 2.240 . S
O137 C135 1.279 . S
O138 Cd128 2.297 . S
O138 C133 1.247 . S
O139 Cd128 2.439 . S
O139 C133 1.208 . S
O140 Cd141 2.223 . S
O140 C148 1.315 . S
Cd141 O140 2.223 . S
Cd141 O144 2.297 . S
Cd141 O145 2.439 . S
Cd141 O151 2.240 . S
Cd142 O143 2.240 . S
Cd142 O150 2.223 . S
Cd142 O152 2.297 . S
Cd142 O153 2.439 . S
O143 Cd142 2.240 . S
O143 C148 1.279 . S
O144 Cd141 2.297 . S
O144 C146 1.247 . S
O145 Cd141 2.439 . S
O145 C146 1.208 . S
C146 O144 1.247 . S
C146 O145 1.208 . S
C147 O152 1.247 . S
C147 O153 1.208 . S
C148 O140 1.315 . S
C148 O143 1.279 . S
C149 O150 1.315 . S
C149 O151 1.279 . S
O150 Cd142 2.223 . S
O150 C149 1.315 . S
O151 Cd141 2.240 . S
O151 C149 1.279 . S
O152 Cd142 2.297 . S
O152 C147 1.247 . S
O153 Cd142 2.439 . S
O153 C147 1.208 . S
O154 Cd155 2.223 . S
O154 C162 1.315 . S
Cd155 O154 2.223 . S
Cd155 O158 2.297 . S
Cd155 O159 2.439 . S
Cd155 O165 2.240 . S
Cd156 O157 2.240 1_554 S
Cd156 O164 2.223 1_554 S
Cd156 O166 2.297 . S
Cd156 O167 2.439 . S
O157 Cd156 2.240 1_556 S
O157 C162 1.279 . S
O158 Cd155 2.297 . S
O158 C160 1.247 . S
O159 Cd155 2.439 . S
O159 C160 1.208 . S
C160 O158 1.247 . S
C160 O159 1.208 . S
C161 O166 1.247 . S
C161 O167 1.208 . S
C162 O154 1.315 . S
C162 O157 1.279 . S
C163 O164 1.315 . S
C163 O165 1.279 . S
O164 Cd156 2.223 1_556 S
O164 C163 1.315 . S
O165 Cd155 2.240 . S
O165 C163 1.279 . S
O166 Cd156 2.297 . S
O166 C161 1.247 . S
O167 Cd156 2.439 . S
O167 C161 1.208 . S
O168 Cd169 2.223 . S
O168 C176 1.315 . S
Cd169 O168 2.223 . S
Cd169 O172 2.297 . S
Cd169 O173 2.439 . S
Cd169 O179 2.240 . S
Cd170 O171 2.240 . S
Cd170 O178 2.223 . S
Cd170 O180 2.297 . S
Cd170 O181 2.439 . S
O171 Cd170 2.240 . S
O171 C176 1.279 . S
O172 Cd169 2.297 . S
O172 C174 1.247 . S
O173 Cd169 2.439 . S
O173 C174 1.208 . S
C174 O172 1.247 . S
C174 O173 1.208 . S
C175 O180 1.247 . S
C175 O181 1.208 . S
C176 O168 1.315 . S
C176 O171 1.279 . S
C177 O178 1.315 . S
C177 O179 1.279 . S
O178 Cd170 2.223 . S
O178 C177 1.315 . S
O179 Cd169 2.240 . S
O179 C177 1.279 . S
O180 Cd170 2.297 . S
O180 C175 1.247 . S
O181 Cd170 2.439 . S
O181 C175 1.208 . S
O182 Cd183 2.223 . S
O182 C190 1.315 . S
Cd183 O182 2.223 . S
Cd183 O186 2.297 . S
Cd183 O187 2.439 . S
Cd183 O193 2.240 . S
Cd184 O185 2.240 . S
Cd184 O192 2.223 . S
Cd184 O194 2.297 . S
Cd184 O195 2.439 . S
O185 Cd184 2.240 . S
O185 C190 1.279 . S
O186 Cd183 2.297 . S
O186 C188 1.247 . S
O187 Cd183 2.439 . S
O187 C188 1.208 . S
C188 O186 1.247 . S
C188 O187 1.208 . S
C189 O194 1.247 . S
C189 O195 1.208 . S
C190 O182 1.315 . S
C190 O185 1.279 . S
C191 O192 1.315 . S
C191 O193 1.279 . S
O192 Cd184 2.223 . S
O192 C191 1.315 . S
O193 Cd183 2.240 . S
O193 C191 1.279 . S
O194 Cd184 2.297 . S
O194 C189 1.247 . S
O195 Cd184 2.439 . S
O195 C189 1.208 . S
O196 Cd197 2.223 . S
O196 C204 1.315 . S
Cd197 O196 2.223 . S
Cd197 O200 2.297 . S
Cd197 O201 2.439 . S
Cd197 O207 2.240 . S
Cd198 O199 2.240 . S
Cd198 O206 2.223 . S
Cd198 O208 2.297 . S
Cd198 O209 2.439 . S
O199 Cd198 2.240 . S
O199 C204 1.279 . S
O200 Cd197 2.297 . S
O200 C202 1.247 . S
O201 Cd197 2.439 . S
O201 C202 1.208 . S
C202 O200 1.247 . S
C202 O201 1.208 . S
C203 O208 1.247 . S
C203 O209 1.208 . S
C204 O196 1.315 . S
C204 O199 1.279 . S
C205 O206 1.315 . S
C205 O207 1.279 . S
O206 Cd198 2.223 . S
O206 C205 1.315 . S
O207 Cd197 2.240 . S
O207 C205 1.279 . S
O208 Cd198 2.297 . S
O208 C203 1.247 . S
O209 Cd198 2.439 . S
O209 C203 1.208 . S
O210 Cd211 2.208 1_655 S
O210 C218 1.327 . S
Cd211 O210 2.208 1_455 S
Cd211 O214 2.297 . S
Cd211 O215 2.439 . S
Cd211 O221 2.240 . S
Cd212 O213 2.240 1_456 S
Cd212 O220 2.223 1_556 S
Cd212 O222 2.297 . S
Cd212 O223 2.439 . S
O213 Cd212 2.240 1_654 S
O213 C218 1.279 . S
O214 Cd211 2.297 . S
O214 C216 1.247 . S
O215 Cd211 2.439 . S
O215 C216 1.208 . S
C216 O214 1.247 . S
C216 O215 1.208 . S
C217 O222 1.247 . S
C217 O223 1.208 . S
C218 O210 1.327 . S
C218 O213 1.279 . S
C219 O220 1.315 . S
C219 O221 1.279 . S
O220 Cd212 2.223 1_554 S
O220 C219 1.315 . S
O221 Cd211 2.240 . S
O221 C219 1.279 . S
O222 Cd212 2.297 . S
O222 C217 1.247 . S
O223 Cd212 2.439 . S
O223 C217 1.208 . S
O224 Cd225 2.223 . S
O224 C232 1.315 . S
Cd225 O224 2.223 . S
Cd225 O228 2.297 . S
Cd225 O229 2.439 . S
Cd225 O235 2.240 . S
Cd226 O227 2.240 . S
Cd226 O234 2.223 . S
Cd226 O236 2.297 . S
Cd226 O237 2.439 . S
O227 Cd226 2.240 . S
O227 C232 1.279 . S
O228 Cd225 2.297 . S
O228 C230 1.247 . S
O229 Cd225 2.439 . S
O229 C230 1.208 . S
C230 O228 1.247 . S
C230 O229 1.208 . S
C231 O236 1.247 . S
C231 O237 1.208 . S
C232 O224 1.315 . S
C232 O227 1.279 . S
C233 O234 1.315 . S
C233 O235 1.279 . S
O234 Cd226 2.223 . S
O234 C233 1.315 . S
O235 Cd225 2.240 . S
O235 C233 1.279 . S
O236 Cd226 2.297 . S
O236 C231 1.247 . S
O237 Cd226 2.439 . S
O237 C231 1.208 . S
O238 Cd239 2.223 . S
O238 C246 1.315 . S
Cd239 O238 2.223 . S
Cd239 O242 2.297 . S
Cd239 O243 2.439 . S
Cd239 O249 2.240 . S
Cd240 O241 2.240 1_556 S
Cd240 O248 2.223 1_556 S
Cd240 O250 2.297 . S
Cd240 O251 2.439 . S
O241 Cd240 2.240 1_554 S
O241 C246 1.279 . S
O242 Cd239 2.297 . S
O242 C244 1.247 . S
O243 Cd239 2.439 . S
O243 C244 1.208 . S
C244 O242 1.247 . S
C244 O243 1.208 . S
C245 O250 1.247 . S
C245 O251 1.208 . S
C246 O238 1.315 . S
C246 O241 1.279 . S
C247 O248 1.315 . S
C247 O249 1.279 . S
O248 Cd240 2.223 1_554 S
O248 C247 1.315 . S
O249 Cd239 2.240 . S
O249 C247 1.279 . S
O250 Cd240 2.297 . S
O250 C245 1.247 . S
O251 Cd240 2.439 . S
O251 C245 1.208 . S
O252 Cd253 2.223 . S
O252 C260 1.315 . S
Cd253 O252 2.223 . S
Cd253 O256 2.297 . S
Cd253 O257 2.439 . S
Cd253 O263 2.240 . S
Cd254 O255 2.240 . S
Cd254 O262 2.223 . S
Cd254 O264 2.297 . S
Cd254 O265 2.439 . S
O255 Cd254 2.240 . S
O255 C260 1.279 . S
O256 Cd253 2.297 . S
O256 C258 1.247 . S
O257 Cd253 2.439 . S
O257 C258 1.208 . S
C258 O256 1.247 . S
C258 O257 1.208 . S
C259 O264 1.247 . S
C259 O265 1.208 . S
C260 O252 1.315 . S
C260 O255 1.279 . S
C261 O262 1.315 . S
C261 O263 1.279 . S
O262 Cd254 2.223 . S
O262 C261 1.315 . S
O263 Cd253 2.240 . S
O263 C261 1.279 . S
O264 Cd254 2.297 . S
O264 C259 1.247 . S
O265 Cd254 2.439 . S
O265 C259 1.208 . S
O266 Cd267 2.208 1_655 S
O266 C274 1.327 . S
Cd267 O266 2.208 1_455 S
Cd267 O270 2.297 . S
Cd267 O271 2.439 . S
Cd267 O277 2.240 . S
Cd268 O269 2.240 1_455 S
Cd268 O276 2.223 . S
Cd268 O278 2.297 . S
Cd268 O279 2.439 . S
O269 Cd268 2.240 1_655 S
O269 C274 1.279 . S
O270 Cd267 2.297 . S
O270 C272 1.247 . S
O271 Cd267 2.439 . S
O271 C272 1.208 . S
C272 O270 1.247 . S
C272 O271 1.208 . S
C273 O278 1.247 . S
C273 O279 1.208 . S
C274 O266 1.327 . S
C274 O269 1.279 . S
C275 O276 1.315 . S
C275 O277 1.279 . S
O276 Cd268 2.223 . S
O276 C275 1.315 . S
O277 Cd267 2.240 . S
O277 C275 1.279 . S
O278 Cd268 2.297 . S
O278 C273 1.247 . S
O279 Cd268 2.439 . S
O279 C273 1.208 . S
O280 Cd281 2.223 . S
O280 C288 1.315 . S
Cd281 O280 2.223 . S
Cd281 O284 2.297 . S
Cd281 O285 2.439 . S
Cd281 O291 2.240 . S
Cd282 O283 2.240 . S
Cd282 O290 2.223 . S
Cd282 O292 2.297 . S
Cd282 O293 2.439 . S
O283 Cd282 2.240 . S
O283 C288 1.279 . S
O284 Cd281 2.297 . S
O284 C286 1.247 . S
O285 Cd281 2.439 . S
O285 C286 1.208 . S
C286 O284 1.247 . S
C286 O285 1.208 . S
C287 O292 1.247 . S
C287 O293 1.208 . S
C288 O280 1.315 . S
C288 O283 1.279 . S
C289 O290 1.315 . S
C289 O291 1.279 . S
O290 Cd282 2.223 . S
O290 C289 1.315 . S
O291 Cd281 2.240 . S
O291 C289 1.279 . S
O292 Cd282 2.297 . S
O292 C287 1.247 . S
O293 Cd282 2.439 . S
O293 C287 1.208 . S
O294 Cd295 2.208 1_655 S
O294 C302 1.327 . S
Cd295 O294 2.208 1_455 S
Cd295 O298 2.297 . S
Cd295 O299 2.439 . S
Cd295 O305 2.240 . S
Cd296 O297 2.240 1_454 S
Cd296 O304 2.223 1_554 S
Cd296 O306 2.297 . S
Cd296 O307 2.439 . S
O297 Cd296 2.240 1_656 S
O297 C302 1.279 . S
O298 Cd295 2.297 . S
O298 C300 1.247 . S
O299 Cd295 2.439 . S
O299 C300 1.208 . S
C300 O298 1.247 . S
C300 O299 1.208 . S
C301 O306 1.247 . S
C301 O307 1.208 . S
C302 O294 1.327 . S
C302 O297 1.279 . S
C303 O304 1.315 . S
C303 O305 1.279 . S
O304 Cd296 2.223 1_556 S
O304 C303 1.315 . S
O305 Cd295 2.240 . S
O305 C303 1.279 . S
O306 Cd296 2.297 . S
O306 C301 1.247 . S
O307 Cd296 2.439 . S
O307 C301 1.208 . S
O308 Cd309 2.223 . S
O308 C316 1.315 . S
Cd309 O308 2.223 . S
Cd309 O312 2.297 . S
Cd309 O313 2.439 . S
Cd309 O319 2.240 . S
Cd310 O311 2.240 . S
Cd310 O318 2.223 . S
Cd310 O320 2.297 . S
Cd310 O321 2.439 . S
O311 Cd310 2.240 . S
O311 C316 1.279 . S
O312 Cd309 2.297 . S
O312 C314 1.247 . S
O313 Cd309 2.439 . S
O313 C314 1.208 . S
C314 O312 1.247 . S
C314 O313 1.208 . S
C315 O320 1.247 . S
C315 O321 1.208 . S
C316 O308 1.315 . S
C316 O311 1.279 . S
C317 O318 1.315 . S
C317 O319 1.279 . S
O318 Cd310 2.223 . S
O318 C317 1.315 . S
O319 Cd309 2.240 . S
O319 C317 1.279 . S
O320 Cd310 2.297 . S
O320 C315 1.247 . S
O321 Cd310 2.439 . S
O321 C315 1.208 . S
O322 Cd323 2.223 . S
O322 C330 1.315 . S
Cd323 O322 2.223 . S
Cd323 O326 2.297 . S
Cd323 O327 2.439 . S
Cd323 O333 2.240 . S
Cd324 O325 2.240 . S
Cd324 O332 2.223 . S
Cd324 O334 2.297 . S
Cd324 O335 2.439 . S
O325 Cd324 2.240 . S
O325 C330 1.279 . S
O326 Cd323 2.297 . S
O326 C328 1.247 . S
O327 Cd323 2.439 . S
O327 C328 1.208 . S
C328 O326 1.247 . S
C328 O327 1.208 . S
C329 O334 1.247 . S
C329 O335 1.208 . S
C330 O322 1.315 . S
C330 O325 1.279 . S
C331 O332 1.315 . S
C331 O333 1.279 . S
O332 Cd324 2.223 . S
O332 C331 1.315 . S
O333 Cd323 2.240 . S
O333 C331 1.279 . S
O334 Cd324 2.297 . S
O334 C329 1.247 . S
O335 Cd324 2.439 . S
O335 C329 1.208 . S
O336 Cd337 2.223 . S
O336 C344 1.315 . S
Cd337 O336 2.223 . S
Cd337 O340 2.297 . S
Cd337 O341 2.439 . S
Cd337 O347 2.240 . S
Cd338 O339 2.240 . S
Cd338 O346 2.223 . S
Cd338 O348 2.297 . S
Cd338 O349 2.439 . S
O339 Cd338 2.240 . S
O339 C344 1.279 . S
O340 Cd337 2.297 . S
O340 C342 1.247 . S
O341 Cd337 2.439 . S
O341 C342 1.208 . S
C342 O340 1.247 . S
C342 O341 1.208 . S
C343 O348 1.247 . S
C343 O349 1.208 . S
C344 O336 1.315 . S
C344 O339 1.279 . S
C345 O346 1.315 . S
C345 O347 1.279 . S
O346 Cd338 2.223 . S
O346 C345 1.315 . S
O347 Cd337 2.240 . S
O347 C345 1.279 . S
O348 Cd338 2.297 . S
O348 C343 1.247 . S
O349 Cd338 2.439 . S
O349 C343 1.208 . S
O350 Cd351 2.223 . S
O350 C358 1.315 . S
Cd351 O350 2.223 . S
Cd351 O354 2.297 . S
Cd351 O355 2.439 . S
Cd351 O361 2.240 . S
Cd352 O353 2.240 1_554 S
Cd352 O360 2.223 1_554 S
Cd352 O362 2.297 . S
Cd352 O363 2.439 . S
O353 Cd352 2.240 1_556 S
O353 C358 1.279 . S
O354 Cd351 2.297 . S
O354 C356 1.247 . S
O355 Cd351 2.439 . S
O355 C356 1.208 . S
C356 O354 1.247 . S
C356 O355 1.208 . S
C357 O362 1.247 . S
C357 O363 1.208 . S
C358 O350 1.315 . S
C358 O353 1.279 . S
C359 O360 1.315 . S
C359 O361 1.279 . S
O360 Cd352 2.223 1_556 S
O360 C359 1.315 . S
O361 Cd351 2.240 . S
O361 C359 1.279 . S
O362 Cd352 2.297 . S
O362 C357 1.247 . S
O363 Cd352 2.439 . S
O363 C357 1.208 . S
O364 Cd365 2.223 . S
O364 C372 1.315 . S
Cd365 O364 2.223 . S
Cd365 O368 2.297 . S
Cd365 O369 2.439 . S
Cd365 O375 2.240 . S
Cd366 O367 2.240 . S
Cd366 O374 2.223 . S
Cd366 O376 2.297 . S
Cd366 O377 2.439 . S
O367 Cd366 2.240 . S
O367 C372 1.279 . S
O368 Cd365 2.297 . S
O368 C370 1.247 . S
O369 Cd365 2.439 . S
O369 C370 1.208 . S
C370 O368 1.247 . S
C370 O369 1.208 . S
C371 O376 1.247 . S
C371 O377 1.208 . S
C372 O364 1.315 . S
C372 O367 1.279 . S
C373 O374 1.315 . S
C373 O375 1.279 . S
O374 Cd366 2.223 . S
O374 C373 1.315 . S
O375 Cd365 2.240 . S
O375 C373 1.279 . S
O376 Cd366 2.297 . S
O376 C371 1.247 . S
O377 Cd366 2.439 . S
O377 C371 1.208 . S
O378 Cd379 2.208 1_455 S
O378 C386 1.327 . S
Cd379 O378 2.208 1_655 S
Cd379 O382 2.297 . S
Cd379 O383 2.439 . S
Cd379 O389 2.240 . S
Cd380 O381 2.240 1_655 S
Cd380 O388 2.223 . S
Cd380 O390 2.297 . S
Cd380 O391 2.439 . S
O381 Cd380 2.240 1_455 S
O381 C386 1.279 . S
O382 Cd379 2.297 . S
O382 C384 1.247 . S
O383 Cd379 2.439 . S
O383 C384 1.208 . S
C384 O382 1.247 . S
C384 O383 1.208 . S
C385 O390 1.247 . S
C385 O391 1.208 . S
C386 O378 1.327 . S
C386 O381 1.279 . S
C387 O388 1.315 . S
C387 O389 1.279 . S
O388 Cd380 2.223 . S
O388 C387 1.315 . S
O389 Cd379 2.240 . S
O389 C387 1.279 . S
O390 Cd380 2.297 . S
O390 C385 1.247 . S
O391 Cd380 2.439 . S
O391 C385 1.208 . S
O392 Cd393 2.223 . S
O392 C400 1.315 . S
Cd393 O392 2.223 . S
Cd393 O396 2.297 . S
Cd393 O397 2.439 . S
Cd393 O403 2.240 . S
Cd394 O395 2.240 . S
Cd394 O402 2.223 . S
Cd394 O404 2.297 . S
Cd394 O405 2.439 . S
O395 Cd394 2.240 . S
O395 C400 1.279 . S
O396 Cd393 2.297 . S
O396 C398 1.247 . S
O397 Cd393 2.439 . S
O397 C398 1.208 . S
C398 O396 1.247 . S
C398 O397 1.208 . S
C399 O404 1.247 . S
C399 O405 1.208 . S
C400 O392 1.315 . S
C400 O395 1.279 . S
C401 O402 1.315 . S
C401 O403 1.279 . S
O402 Cd394 2.223 . S
O402 C401 1.315 . S
O403 Cd393 2.240 . S
O403 C401 1.279 . S
O404 Cd394 2.297 . S
O404 C399 1.247 . S
O405 Cd394 2.439 . S
O405 C399 1.208 . S
O406 Cd407 2.208 1_455 S
O406 C414 1.327 . S
Cd407 O406 2.208 1_655 S
Cd407 O410 2.297 . S
Cd407 O411 2.439 . S
Cd407 O417 2.240 . S
Cd408 O409 2.240 1_656 S
Cd408 O416 2.223 1_556 S
Cd408 O418 2.297 . S
Cd408 O419 2.439 . S
O409 Cd408 2.240 1_454 S
O409 C414 1.279 . S
O410 Cd407 2.297 . S
O410 C412 1.247 . S
O411 Cd407 2.439 . S
O411 C412 1.208 . S
C412 O410 1.247 . S
C412 O411 1.208 . S
C413 O418 1.247 . S
C413 O419 1.208 . S
C414 O406 1.327 . S
C414 O409 1.279 . S
C415 O416 1.315 . S
C415 O417 1.279 . S
O416 Cd408 2.223 1_554 S
O416 C415 1.315 . S
O417 Cd407 2.240 . S
O417 C415 1.279 . S
O418 Cd408 2.297 . S
O418 C413 1.247 . S
O419 Cd408 2.439 . S
O419 C413 1.208 . S
O420 Cd421 2.223 . S
O420 C428 1.315 . S
Cd421 O420 2.223 . S
Cd421 O424 2.297 . S
Cd421 O425 2.439 . S
Cd421 O431 2.240 . S
Cd422 O423 2.240 . S
Cd422 O430 2.223 . S
Cd422 O432 2.297 . S
Cd422 O433 2.439 . S
O423 Cd422 2.240 . S
O423 C428 1.279 . S
O424 Cd421 2.297 . S
O424 C426 1.247 . S
O425 Cd421 2.439 . S
O425 C426 1.208 . S
C426 O424 1.247 . S
C426 O425 1.208 . S
C427 O432 1.247 . S
C427 O433 1.208 . S
C428 O420 1.315 . S
C428 O423 1.279 . S
C429 O430 1.315 . S
C429 O431 1.279 . S
O430 Cd422 2.223 . S
O430 C429 1.315 . S
O431 Cd421 2.240 . S
O431 C429 1.279 . S
O432 Cd422 2.297 . S
O432 C427 1.247 . S
O433 Cd422 2.439 . S
O433 C427 1.208 . S
O434 Cd435 2.223 . S
O434 C442 1.315 . S
Cd435 O434 2.223 . S
Cd435 O438 2.297 . S
Cd435 O439 2.439 . S
Cd435 O445 2.240 . S
Cd436 O437 2.240 . S
Cd436 O444 2.223 . S
Cd436 O446 2.297 . S
Cd436 O447 2.439 . S
O437 Cd436 2.240 . S
O437 C442 1.279 . S
O438 Cd435 2.297 . S
O438 C440 1.247 . S
O439 Cd435 2.439 . S
O439 C440 1.208 . S
C440 O438 1.247 . S
C440 O439 1.208 . S
C441 O446 1.247 . S
C441 O447 1.208 . S
C442 O434 1.315 . S
C442 O437 1.279 . S
C443 O444 1.315 . S
C443 O445 1.279 . S
O444 Cd436 2.223 . S
O444 C443 1.315 . S
O445 Cd435 2.240 . S
O445 C443 1.279 . S
O446 Cd436 2.297 . S
O446 C441 1.247 . S
O447 Cd436 2.439 . S
O447 C441 1.208 . S
C135 C8 1.695 . S
C22 C373 1.695 . S
C163 C36 1.695 . S
C345 C50 1.695 . S
C64 C219 1.695 . S
C401 C78 1.695 . S
C92 C191 1.695 . S
C429 C106 1.695 . S
C23 C120 1.695 . S
C134 C261 1.695 . S
C51 C148 1.695 . S
C162 C233 1.695 . S
C176 C107 1.695 . S
C289 C190 1.695 . S
C204 C79 1.695 . S
C317 C218 1.695 . S
C359 C232 1.695 . S
C149 C246 1.695 . S
C260 C387 1.695 . S
C121 C274 1.695 . S
C443 C288 1.695 . S
C302 C177 1.695 . S
C415 C316 1.695 . S
C205 C330 1.695 . S
C247 C344 1.695 . S
C358 C37 1.695 . S
C372 C275 1.695 . S
C386 C9 1.695 . S
C331 C400 1.695 . S
C414 C65 1.695 . S
C428 C303 1.695 . S
C442 C93 1.695 . S
C342 C6 2.391 . S
C20 C132 2.391 1_665 S
C34 C370 2.391 . S
C48 C160 2.391 1_544 S
C62 C398 2.391 . S
C76 C188 2.391 1_565 S
C426 C90 2.391 . S
C104 C216 2.391 1_646 S
C118 C230 2.391 . S
C146 C258 2.391 . S
C286 C174 2.391 . S
C314 C202 2.391 . S
C244 C356 2.391 1_554 S
C384 C272 2.391 1_655 S
C300 C412 2.391 1_456 S
C440 C328 2.391 . S
C301 C7 1.237 . S
C315 C21 1.237 . S
C35 C329 1.237 . S
C287 C49 1.237 . S
C273 C63 1.237 . S
C231 C77 1.237 . S
C91 C245 1.237 . S
C259 C105 1.237 . S
C413 C119 1.237 . S
C427 C133 1.237 . S
C441 C147 1.237 . S
C161 C399 1.237 . S
C385 C175 1.237 . S
C343 C189 1.237 . S
C357 C203 1.237 . S
C371 C217 1.237 . S
