# Generated by pormake.
# Topology ume, (4)-cn, num edge types: 1
# Building blocks:
#     Node 0, Type 0, BuildingBlock: QUQFOY_clean_sbu_1, # of connection points: 4
#     Node 1, Type 0, BuildingBlock: QUQFOY_clean_sbu_1, # of connection points: 4
#     Node 2, Type 0, BuildingBlock: QUQFOY_clean_sbu_1, # of connection points: 4
#     Node 3, Type 0, BuildingBlock: QUQFOY_clean_sbu_1, # of connection points: 4
#     Node 4, Type 0, BuildingBlock: QUQFOY_clean_sbu_1, # of connection points: 4
#     Node 5, Type 0, BuildingBlock: QUQFOY_clean_sbu_1, # of connection points: 4
#     Node 6, Type 0, BuildingBlock: QUQFOY_clean_sbu_1, # of connection points: 4
#     Node 7, Type 0, BuildingBlock: QUQFOY_clean_sbu_1, # of connection points: 4
#     Node 8, Type 0, BuildingBlock: QUQFOY_clean_sbu_1, # of connection points: 4
#     Node 9, Type 0, BuildingBlock: QUQFOY_clean_sbu_1, # of connection points: 4
#     Node 10, Type 0, BuildingBlock: QUQFOY_clean_sbu_1, # of connection points: 4
#     Node 11, Type 0, BuildingBlock: QUQFOY_clean_sbu_1, # of connection points: 4
#     Node 12, Type 0, BuildingBlock: QUQFOY_clean_sbu_1, # of connection points: 4
#     Node 13, Type 0, BuildingBlock: QUQFOY_clean_sbu_1, # of connection points: 4
#     Node 14, Type 0, BuildingBlock: QUQFOY_clean_sbu_1, # of connection points: 4
#     Node 15, Type 0, BuildingBlock: QUQFOY_clean_sbu_1, # of connection points: 4
#     Edge 16, Type (0, 0), BuildingBlock: AJUNOK_clean_linker_0, # of connection points: 2
#     Edge 17, Type (0, 0), BuildingBlock: AJUNOK_clean_linker_0, # of connection points: 2
#     Edge 18, Type (0, 0), BuildingBlock: AJUNOK_clean_linker_0, # of connection points: 2
#     Edge 19, Type (0, 0), BuildingBlock: AJUNOK_clean_linker_0, # of connection points: 2
#     Edge 20, Type (0, 0), BuildingBlock: AJUNOK_clean_linker_0, # of connection points: 2
#     Edge 21, Type (0, 0), BuildingBlock: AJUNOK_clean_linker_0, # of connection points: 2
#     Edge 22, Type (0, 0), BuildingBlock: AJUNOK_clean_linker_0, # of connection points: 2
#     Edge 23, Type (0, 0), BuildingBlock: AJUNOK_clean_linker_0, # of connection points: 2
#     Edge 24, Type (0, 0), BuildingBlock: AJUNOK_clean_linker_0, # of connection points: 2
#     Edge 25, Type (0, 0), BuildingBlock: AJUNOK_clean_linker_0, # of connection points: 2
#     Edge 26, Type (0, 0), BuildingBlock: AJUNOK_clean_linker_0, # of connection points: 2
#     Edge 27, Type (0, 0), BuildingBlock: AJUNOK_clean_linker_0, # of connection points: 2
#     Edge 28, Type (0, 0), BuildingBlock: AJUNOK_clean_linker_0, # of connection points: 2
#     Edge 29, Type (0, 0), BuildingBlock: AJUNOK_clean_linker_0, # of connection points: 2
#     Edge 30, Type (0, 0), BuildingBlock: AJUNOK_clean_linker_0, # of connection points: 2
#     Edge 31, Type (0, 0), BuildingBlock: AJUNOK_clean_linker_0, # of connection points: 2
#     Edge 32, Type (0, 0), BuildingBlock: AJUNOK_clean_linker_0, # of connection points: 2
#     Edge 33, Type (0, 0), BuildingBlock: AJUNOK_clean_linker_0, # of connection points: 2
#     Edge 34, Type (0, 0), BuildingBlock: AJUNOK_clean_linker_0, # of connection points: 2
#     Edge 35, Type (0, 0), BuildingBlock: AJUNOK_clean_linker_0, # of connection points: 2
#     Edge 36, Type (0, 0), BuildingBlock: AJUNOK_clean_linker_0, # of connection points: 2
#     Edge 37, Type (0, 0), BuildingBlock: AJUNOK_clean_linker_0, # of connection points: 2
#     Edge 38, Type (0, 0), BuildingBlock: AJUNOK_clean_linker_0, # of connection points: 2
#     Edge 39, Type (0, 0), BuildingBlock: AJUNOK_clean_linker_0, # of connection points: 2
#     Edge 40, Type (0, 0), BuildingBlock: AJUNOK_clean_linker_0, # of connection points: 2
#     Edge 41, Type (0, 0), BuildingBlock: AJUNOK_clean_linker_0, # of connection points: 2
#     Edge 42, Type (0, 0), BuildingBlock: AJUNOK_clean_linker_0, # of connection points: 2
#     Edge 43, Type (0, 0), BuildingBlock: AJUNOK_clean_linker_0, # of connection points: 2
#     Edge 44, Type (0, 0), BuildingBlock: AJUNOK_clean_linker_0, # of connection points: 2
#     Edge 45, Type (0, 0), BuildingBlock: AJUNOK_clean_linker_0, # of connection points: 2
#     Edge 46, Type (0, 0), BuildingBlock: AJUNOK_clean_linker_0, # of connection points: 2
#     Edge 47, Type (0, 0), BuildingBlock: AJUNOK_clean_linker_0, # of connection points: 2
# Relax obj value: 0.058
# Max RMSD: 0.123
# Mean RMSD: 0.123
data_MOF--net-ume--node1-QUQFOY_clean_sbu_1--edge1-AJUNOK_clean_linker_0
_symmetry_space_group_name_H-M    P1
_symmetry_Int_Tables_number       1
_symmetry_cell_setting            triclinic
loop_
_symmetry_equiv_pos_as_xyz
'x, y, z'
_cell_length_a     20.925801
_cell_length_b     20.918562
_cell_length_c     83.780686
_cell_angle_alpha  90.010902
_cell_angle_beta   89.974983
_cell_angle_gamma 90.005514
loop_
_atom_site_label
_atom_site_type_symbol
_atom_site_fract_x
_atom_site_fract_y
_atom_site_fract_z
_atom_type_partial_charge
O0 O 0.26261 0.12639 0.35872 0.0
Cd1 Cd 0.26488 0.09551 0.33538 0.0
Cd2 Cd 0.32396 0.21018 0.33318 0.0
O3 O 0.2904 0.22769 0.35613 0.0
O4 O 0.20192 1.02245 0.33457 0.0
O5 O 0.18493 0.11503 0.32274 0.0
C6 C 0.16402 0.05926 0.32665 0.0
C7 C 0.29252 0.25437 0.30894 0.0
C8 C 0.27046 0.18166 0.36475 0.0
C9 C 0.40559 0.09525 0.32782 0.0
O10 O 0.40428 0.15416 0.33153 0.0
O11 O 0.3536 0.06341 0.327 0.0
O12 O 0.3325 0.28424 0.31806 0.0
O13 O 0.26676 0.20278 0.3144 0.0
O14 O 0.92678 0.77178 0.60948 0.0
Cd15 Cd 0.95562 0.76149 0.58609 0.0
Cd16 Cd 0.84301 0.81792 0.58248 0.0
O17 O 0.82375 0.78965 0.60578 0.0
O18 O 0.02691 0.69643 0.58599 0.0
O19 O 0.93241 0.67828 0.57528 0.0
C20 C 0.98849 0.65747 0.57888 0.0
C21 C 0.79801 0.78398 0.55855 0.0
C22 C 0.87076 0.77946 0.61508 0.0
C23 C 0.95812 0.89848 0.57641 0.0
O24 O 0.89938 0.89824 0.58033 0.0
O25 O 0.98888 0.84589 0.57574 0.0
O26 O 0.76888 0.82556 0.56739 0.0
O27 O 0.84946 0.75843 0.56411 0.0
O28 O 0.28549 0.42944 0.85803 0.0
Cd29 Cd 0.28698 0.45768 0.8345 0.0
Cd30 Cd 0.22956 0.3423 0.83259 0.0
O31 O 0.26117 0.32724 0.85581 0.0
O32 O 0.34982 0.53098 0.83366 0.0
O33 O 0.36857 0.43718 0.82264 0.0
C34 C 0.38876 0.49348 0.82625 0.0
C35 C 0.26495 0.29788 0.80871 0.0
C36 C 0.27765 0.37475 0.8644 0.0
C37 C 0.14733 0.45607 0.82621 0.0
O38 O 0.14888 0.39756 0.8303 0.0
O39 O 0.19914 0.48817 0.82532 0.0
O40 O 0.22438 0.26744 0.81756 0.0
O41 O 0.28858 0.3503 0.81423 0.0
O42 O 0.63293 0.78723 0.10992 0.0
Cd43 Cd 0.59692 0.78614 0.08703 0.0
Cd44 Cd 0.71094 0.72796 0.08289 0.0
O45 O 0.73309 0.75824 0.10584 0.0
O46 O 0.52383 0.84895 0.08754 0.0
O47 O 0.61344 0.86686 0.07443 0.0
C48 C 0.55867 0.88744 0.07924 0.0
C49 C 0.75351 0.76194 0.05865 0.0
C50 C 0.68931 0.77827 0.11514 0.0
C51 C 0.59534 0.64628 0.07828 0.0
O52 O 0.65504 0.64747 0.08107 0.0
O53 O 0.56313 0.69813 0.07854 0.0
O54 O 0.78357 0.7207 0.06736 0.0
O55 O 0.70238 0.78735 0.06448 0.0
O56 O 0.27976 0.43419 0.93973 0.0
Cd57 Cd 0.27023 0.46257 0.96312 0.0
Cd58 Cd 0.32333 0.34773 0.96652 0.0
O59 O 0.29505 0.33066 0.94307 0.0
O60 O 0.20635 0.53491 0.96307 0.0
O61 O 0.18628 0.44051 0.97364 0.0
C62 C 0.16631 0.49677 0.9699 0.0
C63 C 0.28738 0.3031 0.99032 0.0
C64 C 0.28572 0.37833 0.9339 0.0
C65 C 0.40655 0.46047 0.97329 0.0
O66 O 0.40472 0.40201 0.96916 0.0
O67 O 0.35508 0.49317 0.97374 0.0
O68 O 0.32835 0.27295 0.98152 0.0
O69 O 0.26338 0.35528 0.98476 0.0
O70 O 0.63582 0.77326 0.18847 0.0
Cd71 Cd 0.59867 0.7622 0.2111 0.0
Cd72 Cd 0.70938 0.81844 0.21686 0.0
O73 O 0.73692 0.79415 0.19382 0.0
O74 O 0.53012 0.69645 0.20763 0.0
O75 O 0.61352 0.67963 0.2232 0.0
C76 C 0.56258 0.65792 0.21648 0.0
C77 C 0.75158 0.78479 0.24114 0.0
C78 C 0.69281 0.78262 0.18378 0.0
C79 C 0.59096 0.89792 0.22111 0.0
O80 O 0.65101 0.89771 0.21868 0.0
O81 O 0.55976 0.84557 0.22055 0.0
O82 O 0.78017 0.8281 0.23275 0.0
O83 O 0.70232 0.75709 0.23494 0.0
O84 O 0.27004 0.12101 0.43887 0.0
Cd85 Cd 0.2835 0.09044 0.46199 0.0
Cd86 Cd 0.23087 0.20326 0.46679 0.0
O87 O 0.2573 0.22426 0.4434 0.0
O88 O 0.34852 1.01933 0.46114 0.0
O89 O 0.36801 0.11319 0.47211 0.0
C90 C 0.38846 0.05745 0.468 0.0
C91 C 0.26514 0.24741 0.49084 0.0
C92 C 0.26403 0.17786 0.4337 0.0
C93 C 0.14861 0.0894 0.47291 0.0
O94 O 0.14967 0.14828 0.46913 0.0
O95 O 0.20057 0.05753 0.47308 0.0
O96 O 0.22386 0.27697 0.48203 0.0
O97 O 0.29076 0.19613 0.48514 0.0
O98 O 0.92727 0.78351 0.69 0.0
Cd99 Cd 0.95813 0.785 0.71329 0.0
Cd100 Cd 0.84463 0.72536 0.71606 0.0
O101 O 0.82599 0.75669 0.69296 0.0
O102 O 0.03105 0.84798 0.71321 0.0
O103 O 0.93902 0.86697 0.72512 0.0
C104 C 0.99453 0.88723 0.72081 0.0
C105 C 0.80198 0.76015 0.74022 0.0
C106 C 0.87186 0.77533 0.68412 0.0
C107 C 0.96029 0.64554 0.72186 0.0
O108 O 0.90144 0.64554 0.71806 0.0
O109 O 0.99103 0.69818 0.72251 0.0
O110 O 0.77147 0.71911 0.73153 0.0
O111 O 0.85343 0.78481 0.73438 0.0
O112 O 0.76321 0.62276 0.85829 0.0
Cd113 Cd 0.76114 0.59187 0.83493 0.0
Cd114 Cd 0.82435 0.70459 0.8324 0.0
O115 O 0.7944 0.72294 0.85562 0.0
O116 O 0.69511 0.52131 0.83457 0.0
O117 O 0.68117 0.61397 0.82261 0.0
C118 C 0.65815 0.55936 0.82673 0.0
C119 C 0.7899 0.74885 0.80842 0.0
C120 C 0.77461 0.67731 0.8644 0.0
C121 C 0.90093 0.58632 0.82657 0.0
O122 O 0.90224 0.64538 0.83018 0.0
O123 O 0.84764 0.55666 0.826 0.0
O124 O 0.83235 0.77795 0.81699 0.0
O125 O 0.76409 0.69806 0.81426 0.0
O126 O 0.43001 0.27209 0.1098 0.0
Cd127 Cd 0.46101 0.26207 0.08661 0.0
Cd128 Cd 0.34907 0.31911 0.0825 0.0
O129 O 0.32743 0.29042 0.10566 0.0
O130 O 0.5305 0.195 0.08694 0.0
O131 O 0.43684 0.17989 0.07551 0.0
C132 C 0.49154 0.15709 0.07966 0.0
C133 C 0.30371 0.28728 0.05837 0.0
C134 C 0.37361 0.27962 0.11517 0.0
C135 C 0.46571 0.39907 0.0772 0.0
O136 O 0.40657 0.39895 0.08074 0.0
O137 O 0.49631 0.34635 0.07662 0.0
O138 O 0.27544 0.32899 0.06733 0.0
O139 O 0.35457 0.26035 0.06389 0.0
O140 O 0.79433 0.92692 0.35876 0.0
Cd141 Cd 0.7929 0.95905 0.33551 0.0
Cd142 Cd 0.729 0.84603 0.33325 0.0
O143 O 0.76071 0.82738 0.35623 0.0
O144 O 0.85836 0.03005 0.33503 0.0
O145 O 0.87175 0.93831 0.32256 0.0
C146 C 0.89489 0.9927 0.32685 0.0
C147 C 0.76235 0.80085 0.30929 0.0
C148 C 0.78331 0.87224 0.36482 0.0
C149 C 0.65205 0.96451 0.32794 0.0
O150 O 0.65103 0.90527 0.33135 0.0
O151 O 0.70525 0.99432 0.32728 0.0
O152 O 0.71998 0.77234 0.31801 0.0
O153 O 0.78851 0.85187 0.31493 0.0
O154 O 0.12079 0.28498 0.60901 0.0
Cd155 Cd 0.08824 0.28512 0.58582 0.0
Cd156 Cd 0.20315 0.22589 0.5828 0.0
O157 O 0.22158 0.25619 0.60597 0.0
O158 O 1.01681 0.35006 0.58576 0.0
O159 O 0.10848 0.36513 0.57337 0.0
C160 C 0.05406 0.38764 0.57784 0.0
C161 C 0.24841 0.26061 0.55894 0.0
C162 C 0.1762 0.27593 0.61483 0.0
C163 C 0.08693 0.14564 0.57704 0.0
O164 O 0.14617 0.14639 0.58042 0.0
O165 O 0.05497 0.19765 0.57697 0.0
O166 O 0.27739 0.21862 0.56767 0.0
O167 O 0.19693 0.28595 0.56455 0.0
O168 O 0.77963 0.93393 0.43869 0.0
Cd169 Cd 0.76549 0.96558 0.46168 0.0
Cd170 Cd 0.81624 0.85164 0.467 0.0
O171 O 0.79159 0.83075 0.44351 0.0
O172 O 0.69792 0.03442 0.46088 0.0
O173 O 0.68251 0.94014 0.47203 0.0
C174 C 0.65959 0.99474 0.4678 0.0
C175 C 0.7822 0.80388 0.49064 0.0
C176 C 0.78558 0.87682 0.43369 0.0
C177 C 0.89933 0.96566 0.47318 0.0
O178 O 0.89735 0.90645 0.46979 0.0
O179 O 0.8482 0.99885 0.47276 0.0
O180 O 0.82435 0.77632 0.48169 0.0
O181 O 0.75577 0.85534 0.48531 0.0
O182 O 0.11908 0.27366 0.68903 0.0
Cd183 Cd 0.08833 0.26228 0.71219 0.0
Cd184 Cd 0.20221 0.31536 0.71681 0.0
O185 O 0.22219 0.28854 0.69339 0.0
O186 O 1.01916 0.19492 0.71207 0.0
O187 O 0.11375 0.18043 0.72308 0.0
C188 C 0.05887 0.15732 0.7192 0.0
C189 C 0.24871 0.28219 0.7407 0.0
C190 C 0.17575 0.28026 0.68378 0.0
C191 C 0.08759 0.39778 0.72269 0.0
O192 O 0.14673 0.39618 0.71921 0.0
O193 O 0.05501 0.34621 0.72269 0.0
O194 O 0.27703 0.32375 0.73171 0.0
O195 O 0.19733 0.25597 0.73529 0.0
O196 O 0.77873 0.61921 0.93935 0.0
Cd197 Cd 0.79035 0.59009 0.96264 0.0
Cd198 Cd 0.73365 0.70298 0.96656 0.0
O199 O 0.76128 0.72223 0.94315 0.0
O200 O 0.85763 0.52079 0.96239 0.0
O201 O 0.87296 0.61548 0.97326 0.0
C202 C 0.89577 0.56053 0.96934 0.0
C203 C 0.76778 0.74825 0.99048 0.0
C204 C 0.77127 0.6753 0.93378 0.0
C205 C 0.65443 0.58691 0.97299 0.0
O206 O 0.65421 0.64563 0.96904 0.0
O207 O 0.70708 0.55619 0.97339 0.0
O208 O 0.72564 0.77702 0.98175 0.0
O209 O 0.79375 0.6972 0.98481 0.0
O210 O 0.4263 0.28392 0.19019 0.0
Cd211 Cd 0.46243 0.28506 0.21299 0.0
Cd212 Cd 0.34785 0.22885 0.21653 0.0
O213 O 0.3254 0.25724 0.19344 0.0
O214 O 0.53505 0.34658 0.20999 0.0
O215 O 0.45264 0.36716 0.22564 0.0
C216 C 0.50439 0.38652 0.21885 0.0
C217 C 0.30713 0.26578 0.24067 0.0
C218 C 0.37089 0.27507 0.1844 0.0
C219 C 0.46371 0.14621 0.2214 0.0
O220 O 0.40404 0.14838 0.21853 0.0
O221 O 0.49671 0.19757 0.22136 0.0
O222 O 0.27628 0.22365 0.23238 0.0
O223 O 0.35796 0.29031 0.23445 0.0
C224 C 0.98343 0.07308 0.3247 0.0
C225 C 0.96317 1.00899 0.32406 0.0
C226 C 0.04865 0.08903 0.32444 0.0
C227 C 0.0962 0.04143 0.32396 0.0
H228 H 0.94871 0.1112 0.32586 0.0
H229 H 0.06185 0.13892 0.32552 0.0
S230 S 0.06873 0.86677 0.32089 0.0
N231 N 0.99624 0.89782 0.32166 0.0
N232 N 0.11856 0.92789 0.32176 0.0
C233 C 0.07667 0.97738 0.32267 0.0
C234 C 1.01024 0.96116 0.32255 0.0
C235 C 0.95816 0.542 0.57699 0.0
C236 C 1.00585 0.58943 0.57631 0.0
C237 C 0.97386 0.4767 0.57684 0.0
C238 C 0.03773 0.45624 0.57559 0.0
H239 H 0.90846 0.55533 0.57844 0.0
H240 H 0.93574 0.44203 0.57812 0.0
S241 S 0.17988 0.56158 0.57172 0.0
N242 N 0.11911 0.61155 0.57328 0.0
N243 N 0.14866 0.48915 0.57246 0.0
C244 C 0.08554 0.50328 0.57394 0.0
C245 C 0.06961 0.56976 0.57446 0.0
C246 C 0.56936 0.47933 0.82458 0.0
C247 C 0.58979 0.54336 0.82402 0.0
C248 C 0.50414 0.46356 0.82425 0.0
C249 C 0.45671 0.5113 0.82377 0.0
H250 H 0.60397 0.44108 0.82571 0.0
H251 H 0.49082 0.41367 0.82524 0.0
S252 S 0.48467 0.68592 0.82084 0.0
N253 N 0.55705 0.65467 0.82167 0.0
N254 N 0.43466 0.62492 0.82162 0.0
C255 C 0.47641 0.57531 0.82256 0.0
C256 C 0.54287 0.59135 0.82252 0.0
C257 C 0.57135 0.06826 0.07686 0.0
C258 C 0.50722 0.08837 0.07736 0.0
C259 C 0.58736 1.00304 0.07647 0.0
C260 C 0.53991 0.95532 0.07699 0.0
H261 H 0.60959 0.10317 0.07709 0.0
H262 H 0.63746 0.98999 0.07656 0.0
S263 S 0.36479 0.98239 0.0775 0.0
N264 N 0.3958 0.05499 0.07742 0.0
N265 N 0.42609 0.93269 0.07722 0.0
C266 C 0.47561 0.97471 0.07701 0.0
C267 C 0.45923 0.04111 0.07704 0.0
C268 C 0.05091 0.46621 0.97154 0.0
C269 C 0.098 0.51431 0.97187 0.0
C270 C 0.98556 0.48145 0.97119 0.0
C271 C 0.96462 0.54534 0.97155 0.0
H272 H 0.06458 0.41635 0.97081 0.0
H273 H 0.95124 0.44282 0.97033 0.0
S274 S 0.06868 0.68895 0.97399 0.0
N275 N 0.11914 0.6283 0.97348 0.0
N276 N 0.99655 0.65706 0.97331 0.0
C277 C 1.01121 0.59381 0.97273 0.0
C278 C 0.07779 0.57828 0.97275 0.0
C279 C 0.53408 0.48962 0.23251 0.0
C280 C 0.52068 0.45516 0.21849 0.0
C281 C 0.54805 0.55554 0.23189 0.0
C282 C 0.5461 0.5892 0.21733 0.0
H283 H 0.53463 0.46538 0.24393 0.0
H284 H 0.55956 0.58046 0.24285 0.0
S285 S 0.51146 0.52056 0.17744 0.0
N286 N 0.5063 0.45917 0.18976 0.0
N287 N 0.52931 0.58293 0.18868 0.0
C288 C 0.53152 0.55519 0.20334 0.0
C289 C 0.51955 0.48815 0.20391 0.0
C290 C 0.50387 0.08845 0.46966 0.0
C291 C 0.45694 0.04017 0.46982 0.0
C292 C 0.56931 0.07346 0.46941 0.0
C293 C 0.5905 1.00963 0.4697 0.0
H294 H 0.49 0.13828 0.46905 0.0
H295 H 0.60352 0.11223 0.46873 0.0
S296 S 0.48691 0.86554 0.47146 0.0
N297 N 0.43624 0.92602 0.47104 0.0
N298 N 0.55893 0.89774 0.47103 0.0
C299 C 0.54404 0.96096 0.47061 0.0
C300 C 0.4774 0.97624 0.47053 0.0
C301 C 0.9798 0.06795 0.72204 0.0
C302 C 0.04374 0.08866 0.72174 0.0
C303 C 0.96444 1.00265 0.72274 0.0
C304 C 1.01242 0.95543 0.72276 0.0
H305 H 0.94122 0.10239 0.72142 0.0
H306 H 0.91449 0.98907 0.72247 0.0
S307 S 0.18726 0.98426 0.72306 0.0
N308 N 0.15551 0.05648 0.7225 0.0
N309 N 0.12645 0.93396 0.72331 0.0
C310 C 0.0765 0.97546 0.72298 0.0
C311 C 0.0922 0.04199 0.72261 0.0
C312 C 0.53209 0.96465 0.32674 0.0
C313 C 0.59008 0.99894 0.32586 0.0
C314 C 0.47271 0.99584 0.32664 0.0
C315 C 0.46853 0.06284 0.32573 0.0
H316 H 0.5323 0.9131 0.32798 0.0
H317 H 0.42991 0.96718 0.3279 0.0
S318 S 0.60534 0.17489 0.32129 0.0
N319 N 0.63891 0.10371 0.32265 0.0
N320 N 0.52762 0.16229 0.32246 0.0
C321 C 0.52592 0.09763 0.32403 0.0
C322 C 0.58649 0.06578 0.32408 0.0
C323 C 0.95689 1.01856 0.57602 0.0
C324 C 0.99135 0.96102 0.57419 0.0
C325 C 0.98769 0.07818 0.57615 0.0
C326 C 0.05442 0.08301 0.57453 0.0
H327 H 0.90569 1.0177 0.57792 0.0
H328 H 0.95909 0.12054 0.57822 0.0
S329 S 0.16618 0.94799 0.56721 0.0
N330 N 0.09558 0.91362 0.56911 0.0
N331 N 0.15338 1.02536 0.56936 0.0
C332 C 0.08912 0.02625 0.57176 0.0
C333 C 0.05769 0.96546 0.57158 0.0
C334 C 0.08005 0.55516 0.82435 0.0
C335 C 0.08429 0.48807 0.82396 0.0
C336 C 1.02066 0.58629 0.82453 0.0
C337 C 0.96269 0.55183 0.82423 0.0
H338 H 0.12288 0.58404 0.8252 0.0
H339 H 1.02043 0.63796 0.82539 0.0
S340 S 0.94734 0.37538 0.82109 0.0
N341 N 1.02512 0.3882 0.82174 0.0
N342 N 0.91377 0.44666 0.82206 0.0
C343 C 0.96624 0.48482 0.8229 0.0
C344 C 0.02684 0.45303 0.82277 0.0
C345 C 0.49604 0.57875 0.07738 0.0
C346 C 0.56283 0.58349 0.07589 0.0
C347 C 0.46507 0.51922 0.07711 0.0
C348 C 0.49938 0.46159 0.07527 0.0
H349 H 0.46744 0.62116 0.07939 0.0
H350 H 0.41379 0.51849 0.07887 0.0
S351 S 0.67447 0.44812 0.06878 0.0
N352 N 0.66183 0.5255 0.07096 0.0
N353 N 0.60369 0.41396 0.07046 0.0
C354 C 0.56586 0.46589 0.07287 0.0
C355 C 0.59748 0.5266 0.07319 0.0
C356 C 0.47489 0.55879 0.97509 0.0
C357 C 0.46967 0.49183 0.97587 0.0
C358 C 0.53474 0.58904 0.97494 0.0
C359 C 0.59215 0.55376 0.97563 0.0
H360 H 0.43255 0.58816 0.97384 0.0
H361 H 0.53579 0.64056 0.97369 0.0
S362 S 0.60463 0.37759 0.98019 0.0
N363 N 0.5271 0.39144 0.97911 0.0
N364 N 0.63935 0.44823 0.97882 0.0
C365 C 0.58752 0.48702 0.97748 0.0
C366 C 0.52646 0.45613 0.97759 0.0
C367 C 0.59257 1.01788 0.22221 0.0
C368 C 0.55754 0.96038 0.22325 0.0
C369 C 0.5622 0.07769 0.22232 0.0
C370 C 0.49532 0.08283 0.22345 0.0
H371 H 0.64403 1.01695 0.22079 0.0
H372 H 0.59139 0.12005 0.22092 0.0
S373 S 0.38175 0.94754 0.22847 0.0
N374 N 0.45238 0.913 0.22689 0.0
N375 N 0.3953 1.02508 0.22715 0.0
C376 C 0.45987 0.02591 0.22535 0.0
C377 C 0.49088 0.9649 0.22524 0.0
C378 C 0.96856 0.06357 0.47422 0.0
C379 C 0.96249 0.99691 0.47581 0.0
C380 C 0.02876 0.09314 0.47407 0.0
C381 C 0.08568 0.05745 0.47554 0.0
H382 H 0.9267 0.09307 0.47234 0.0
H383 H 0.03051 0.14432 0.47217 0.0
S384 S 0.09566 0.88234 0.48243 0.0
N385 N 1.01843 0.89674 0.48068 0.0
N386 N 0.13132 0.95224 0.48038 0.0
C387 C 0.0801 0.99122 0.47819 0.0
C388 C 1.01869 0.96103 0.47832 0.0
C389 C 0.98889 0.46583 0.72345 0.0
C390 C 0.05563 0.46078 0.72498 0.0
C391 C 0.95851 0.52561 0.72311 0.0
C392 C 0.99339 0.58312 0.72435 0.0
H393 H 0.95993 0.42344 0.72179 0.0
H394 H 0.90724 0.52652 0.72133 0.0
S395 S 0.16854 0.59599 0.73081 0.0
N396 N 0.15515 0.51843 0.7294 0.0
N397 N 0.09811 0.63053 0.72876 0.0
C398 C 0.05979 0.57863 0.72686 0.0
C399 C 0.09081 0.51765 0.72717 0.0
C400 C 0.29615 0.23364 0.39118 0.0
C401 C 0.26015 0.18943 0.38219 0.0
C402 C 0.29503 0.23262 0.40802 0.0
C403 C 0.25816 0.18714 0.41627 0.0
H404 H 0.32793 0.26684 0.38522 0.0
H405 H 0.32565 0.26512 0.41456 0.0
S406 S 0.14668 0.06934 0.39842 0.0
N407 N 0.17987 0.10528 0.38297 0.0
N408 N 0.17875 0.10288 0.41435 0.0
C409 C 0.21874 0.14601 0.40742 0.0
C410 C 0.21943 0.1473 0.39044 0.0
C411 C 0.81788 0.74957 0.6411 0.0
C412 C 0.86365 0.78503 0.63256 0.0
C413 C 0.81802 0.74907 0.65794 0.0
C414 C 0.86366 0.78439 0.66665 0.0
H415 H 0.78402 0.71973 0.63477 0.0
H416 H 0.78436 0.7185 0.66412 0.0
S417 S 0.98544 0.89416 0.64961 0.0
N418 N 0.95004 0.86226 0.63392 0.0
N419 N 0.94976 0.8625 0.66529 0.0
C420 C 0.90631 0.82363 0.65811 0.0
C421 C 0.90647 0.8236 0.64113 0.0
C422 C 0.30546 0.42373 0.89056 0.0
C423 C 0.28437 0.36962 0.88206 0.0
C424 C 0.30632 0.4249 0.90719 0.0
C425 C 0.28683 0.37186 0.91626 0.0
H426 H 0.32036 0.46666 0.88436 0.0
H427 H 0.32223 0.46839 0.91299 0.0
S428 S 0.23115 0.21644 0.90014 0.0
N429 N 0.24589 0.26002 0.8841 0.0
N430 N 0.24866 0.26217 0.91562 0.0
C431 C 0.26809 0.31622 0.90807 0.0
C432 C 0.26656 0.31513 0.89094 0.0
C433 C 0.74254 0.74759 0.14104 0.0
C434 C 0.70117 0.78813 0.13242 0.0
C435 C 0.74355 0.74839 0.15788 0.0
C436 C 0.70337 0.78987 0.16647 0.0
H437 H 0.77118 0.71242 0.13481 0.0
H438 H 0.77285 0.71395 0.16417 0.0
S439 S 0.59512 0.91266 0.14959 0.0
N440 N 0.62571 0.87639 0.13385 0.0
N441 N 0.62741 0.87734 0.16525 0.0
C442 C 0.66571 0.83363 0.15797 0.0
C443 C 0.6647 0.83297 0.14099 0.0
C444 C 0.74031 0.63365 0.89067 0.0
C445 C 0.76827 0.68418 0.88203 0.0
C446 C 0.74053 0.63273 0.90732 0.0
C447 C 0.76788 0.68262 0.91622 0.0
H448 H 0.71938 0.59309 0.88457 0.0
H449 H 0.7196 0.5918 0.91329 0.0
S450 S 0.84335 0.82867 0.89974 0.0
N451 N 0.82157 0.7875 0.8838 0.0
N452 N 0.82059 0.78599 0.91534 0.0
C453 C 0.79319 0.73522 0.90791 0.0
C454 C 0.79371 0.73594 0.89077 0.0
C455 C 0.4129 0.3122 0.15827 0.0
C456 C 0.36314 0.28254 0.16684 0.0
C457 C 0.41417 0.31209 0.14164 0.0
C458 C 0.36533 0.28326 0.13269 0.0
H459 H 0.45275 0.33421 0.16443 0.0
H460 H 0.45464 0.33412 0.13572 0.0
S461 S 0.22081 0.20433 0.14898 0.0
N462 N 0.26118 0.22689 0.16498 0.0
N463 N 0.26316 0.22824 0.13343 0.0
C464 C 0.31311 0.25677 0.14092 0.0
C465 C 0.31209 0.25609 0.15806 0.0
C466 C 0.75416 0.82159 0.39115 0.0
C467 C 0.79255 0.86413 0.38227 0.0
C468 C 0.75427 0.82279 0.40798 0.0
C469 C 0.7925 0.8668 0.41633 0.0
H470 H 0.72133 0.78972 0.38511 0.0
H471 H 0.72184 0.79177 0.41443 0.0
S472 S 0.90993 0.97957 0.39886 0.0
N473 N 0.8763 0.94481 0.3833 0.0
N474 N 0.87545 0.94763 0.41468 0.0
C475 C 0.83421 0.90607 0.40762 0.0
C476 C 0.83456 0.90456 0.39064 0.0
C477 C 0.22856 0.24857 0.65789 0.0
C478 C 0.18445 0.28634 0.66635 0.0
C479 C 0.22872 0.24792 0.64105 0.0
C480 C 0.18496 0.28527 0.63227 0.0
H481 H 0.2606 0.21697 0.66428 0.0
H482 H 0.26083 0.21556 0.63492 0.0
S483 S 0.06842 0.40102 0.64909 0.0
N484 N 0.102 0.36771 0.66485 0.0
N485 N 0.1028 0.36748 0.63346 0.0
C486 C 0.14425 0.32673 0.64073 0.0
C487 C 0.14383 0.32696 0.65771 0.0
C488 C 0.24375 0.23419 0.28217 0.0
C489 C 0.28411 0.27173 0.29184 0.0
C490 C 0.24719 0.23693 0.26547 0.0
C491 C 0.29123 0.27725 0.25774 0.0
H492 H 0.21217 0.1991 0.28749 0.0
H493 H 0.21833 0.20372 0.25866 0.0
S494 S 0.39736 0.3957 0.27746 0.0
N495 N 0.36181 0.35828 0.29237 0.0
N496 N 0.36821 0.36353 0.26101 0.0
C497 C 0.32681 0.32006 0.26722 0.0
C498 C 0.32324 0.31731 0.28426 0.0
C499 C 0.73402 0.82263 0.51755 0.0
C500 C 0.77249 0.78445 0.50755 0.0
C501 C 0.73773 0.81779 0.53422 0.0
C502 C 0.78004 0.77458 0.54155 0.0
H503 H 0.70424 0.85995 0.51256 0.0
H504 H 0.7109 0.8517 0.54133 0.0
S505 S 0.87905 0.65286 0.52079 0.0
N506 N 0.84529 0.69389 0.50623 0.0
N507 N 0.85208 0.68464 0.53753 0.0
C508 C 0.81298 0.73099 0.53171 0.0
C509 C 0.80922 0.73594 0.51471 0.0
C510 C 0.22894 0.23384 0.76754 0.0
C511 C 0.26724 0.27277 0.75768 0.0
C512 C 0.23289 0.23744 0.78423 0.0
C513 C 0.2753 0.28011 0.79172 0.0
H514 H 0.19222 0.20368 0.76242 0.0
H515 H 0.1989 0.21023 0.79123 0.0
S516 S 0.3969 0.38073 0.7714 0.0
N517 N 0.35698 0.34665 0.75669 0.0
N518 N 0.36462 0.3532 0.78801 0.0
C519 C 0.319 0.31364 0.78203 0.0
C520 C 0.31494 0.31 0.76501 0.0
C521 C 0.733 0.8059 1.01515 0.0
C522 C 0.77754 0.76593 1.00749 0.0
C523 C 0.72944 0.80891 0.03185 0.0
C524 C 0.7703 0.7721 0.04157 0.0
H525 H 0.6973 0.83131 1.00827 0.0
H526 H 0.69128 0.83685 0.03711 0.0
S527 S 0.90533 0.67192 0.02736 0.0
N528 N 0.87089 0.69787 1.01087 0.0
N529 N 0.86409 0.70336 0.04222 0.0
C530 C 0.81968 0.73767 0.03406 0.0
C531 C 0.82331 0.73462 1.01703 0.0
C532 C 0.32396 0.23943 0.03148 0.0
C533 C 0.28549 0.27813 0.04136 0.0
C534 C 0.31989 0.24297 1.0148 0.0
C535 C 0.27719 0.28539 1.00732 0.0
H536 H 0.36085 0.20944 0.0366 0.0
H537 H 0.35397 0.2159 1.00779 0.0
S538 S 0.15521 0.38539 0.02767 0.0
N539 N 0.19537 0.35154 0.04237 0.0
N540 N 0.18758 0.35805 1.01105 0.0
C541 C 0.23343 0.31875 1.01702 0.0
C542 C 0.23759 0.31514 0.03404 0.0
C543 C 0.72812 0.74273 0.28464 0.0
C544 C 0.77265 0.78257 0.29234 0.0
C545 C 0.72553 0.73897 0.26794 0.0
C546 C 0.76734 0.77496 0.25827 0.0
H547 H 0.69175 0.718 0.29147 0.0
H548 H 0.68734 0.71127 0.26262 0.0
S549 S 0.90281 0.87406 0.27267 0.0
N550 N 0.86705 0.84931 0.28911 0.0
N551 N 0.86203 0.8425 0.25775 0.0
C552 C 0.81667 0.80918 0.26586 0.0
C553 C 0.81934 0.81293 0.28288 0.0
C554 C 0.31169 0.22408 0.5177 0.0
C555 C 0.27468 0.2645 0.50792 0.0
C556 C 0.30777 0.22726 0.5344 0.0
C557 C 0.26667 0.27097 0.54198 0.0
H558 H 0.34047 0.18644 0.51249 0.0
H559 H 0.33342 0.19183 0.54131 0.0
S560 S 0.17178 0.39776 0.52197 0.0
N561 N 0.20458 0.35728 0.50716 0.0
N562 N 0.19741 0.36338 0.5385 0.0
C563 C 0.23518 0.31648 0.5324 0.0
C564 C 0.23916 0.31324 0.51538 0.0
C565 C 0.82636 0.80836 0.76685 0.0
C566 C 0.78546 0.7709 0.75729 0.0
C567 C 0.82341 0.8059 0.78356 0.0
C568 C 0.77943 0.76589 0.79139 0.0
H569 H 0.86414 0.83642 0.76145 0.0
H570 H 0.85918 0.83181 0.79031 0.0
S571 S 0.65154 0.67037 0.77198 0.0
N572 N 0.69211 0.70152 0.75697 0.0
N573 N 0.68634 0.69717 0.78835 0.0
C574 C 0.7335 0.73398 0.78201 0.0
C575 C 0.73654 0.73643 0.76497 0.0
loop_
_geom_bond_atom_site_label_1
_geom_bond_atom_site_label_2
_geom_bond_distance
_geom_bond_site_symmetry_2
_ccdc_geom_bond_type
O0 Cd1 2.223 . S
O0 C8 1.315 . S
Cd1 O0 2.223 . S
Cd1 O4 2.297 . S
Cd1 O5 2.439 . S
Cd1 O11 2.240 . S
Cd2 O3 2.240 . S
Cd2 O10 2.223 . S
Cd2 O12 2.297 . S
Cd2 O13 2.439 . S
O3 Cd2 2.240 . S
O3 C8 1.279 . S
O4 Cd1 2.297 . S
O4 C6 1.247 . S
O5 Cd1 2.439 . S
O5 C6 1.208 . S
C6 O4 1.247 . S
C6 O5 1.208 . S
C7 O12 1.247 . S
C7 O13 1.208 . S
C8 O0 1.315 . S
C8 O3 1.279 . S
C9 O10 1.315 . S
C9 O11 1.279 . S
O10 Cd2 2.223 . S
O10 C9 1.315 . S
O11 Cd1 2.240 . S
O11 C9 1.279 . S
O12 Cd2 2.297 . S
O12 C7 1.247 . S
O13 Cd2 2.439 . S
O13 C7 1.208 . S
O14 Cd15 2.223 . S
O14 C22 1.315 . S
Cd15 O14 2.223 . S
Cd15 O18 2.297 . S
Cd15 O19 2.439 . S
Cd15 O25 2.240 . S
Cd16 O17 2.240 . S
Cd16 O24 2.223 . S
Cd16 O26 2.297 . S
Cd16 O27 2.439 . S
O17 Cd16 2.240 . S
O17 C22 1.279 . S
O18 Cd15 2.297 . S
O18 C20 1.247 . S
O19 Cd15 2.439 . S
O19 C20 1.208 . S
C20 O18 1.247 . S
C20 O19 1.208 . S
C21 O26 1.247 . S
C21 O27 1.208 . S
C22 O14 1.315 . S
C22 O17 1.279 . S
C23 O24 1.315 . S
C23 O25 1.279 . S
O24 Cd16 2.223 . S
O24 C23 1.315 . S
O25 Cd15 2.240 . S
O25 C23 1.279 . S
O26 Cd16 2.297 . S
O26 C21 1.247 . S
O27 Cd16 2.439 . S
O27 C21 1.208 . S
O28 Cd29 2.223 . S
O28 C36 1.315 . S
Cd29 O28 2.223 . S
Cd29 O32 2.297 . S
Cd29 O33 2.439 . S
Cd29 O39 2.240 . S
Cd30 O31 2.240 . S
Cd30 O38 2.223 . S
Cd30 O40 2.297 . S
Cd30 O41 2.439 . S
O31 Cd30 2.240 . S
O31 C36 1.279 . S
O32 Cd29 2.297 . S
O32 C34 1.247 . S
O33 Cd29 2.439 . S
O33 C34 1.208 . S
C34 O32 1.247 . S
C34 O33 1.208 . S
C35 O40 1.247 . S
C35 O41 1.208 . S
C36 O28 1.315 . S
C36 O31 1.279 . S
C37 O38 1.315 . S
C37 O39 1.279 . S
O38 Cd30 2.223 . S
O38 C37 1.315 . S
O39 Cd29 2.240 . S
O39 C37 1.279 . S
O40 Cd30 2.297 . S
O40 C35 1.247 . S
O41 Cd30 2.439 . S
O41 C35 1.208 . S
O42 Cd43 2.223 . S
O42 C50 1.315 . S
Cd43 O42 2.223 . S
Cd43 O46 2.297 . S
Cd43 O47 2.439 . S
Cd43 O53 2.240 . S
Cd44 O45 2.240 . S
Cd44 O52 2.223 . S
Cd44 O54 2.297 . S
Cd44 O55 2.439 . S
O45 Cd44 2.240 . S
O45 C50 1.279 . S
O46 Cd43 2.297 . S
O46 C48 1.247 . S
O47 Cd43 2.439 . S
O47 C48 1.208 . S
C48 O46 1.247 . S
C48 O47 1.208 . S
C49 O54 1.247 . S
C49 O55 1.208 . S
C50 O42 1.315 . S
C50 O45 1.279 . S
C51 O52 1.315 . S
C51 O53 1.279 . S
O52 Cd44 2.223 . S
O52 C51 1.315 . S
O53 Cd43 2.240 . S
O53 C51 1.279 . S
O54 Cd44 2.297 . S
O54 C49 1.247 . S
O55 Cd44 2.439 . S
O55 C49 1.208 . S
O56 Cd57 2.223 . S
O56 C64 1.315 . S
Cd57 O56 2.223 . S
Cd57 O60 2.297 . S
Cd57 O61 2.439 . S
Cd57 O67 2.240 . S
Cd58 O59 2.240 . S
Cd58 O66 2.223 . S
Cd58 O68 2.297 . S
Cd58 O69 2.439 . S
O59 Cd58 2.240 . S
O59 C64 1.279 . S
O60 Cd57 2.297 . S
O60 C62 1.247 . S
O61 Cd57 2.439 . S
O61 C62 1.208 . S
C62 O60 1.247 . S
C62 O61 1.208 . S
C63 O68 1.247 . S
C63 O69 1.208 . S
C64 O56 1.315 . S
C64 O59 1.279 . S
C65 O66 1.315 . S
C65 O67 1.279 . S
O66 Cd58 2.223 . S
O66 C65 1.315 . S
O67 Cd57 2.240 . S
O67 C65 1.279 . S
O68 Cd58 2.297 . S
O68 C63 1.247 . S
O69 Cd58 2.439 . S
O69 C63 1.208 . S
O70 Cd71 2.223 . S
O70 C78 1.315 . S
Cd71 O70 2.223 . S
Cd71 O74 2.297 . S
Cd71 O75 2.439 . S
Cd71 O81 2.240 . S
Cd72 O73 2.240 . S
Cd72 O80 2.223 . S
Cd72 O82 2.297 . S
Cd72 O83 2.439 . S
O73 Cd72 2.240 . S
O73 C78 1.279 . S
O74 Cd71 2.297 . S
O74 C76 1.247 . S
O75 Cd71 2.439 . S
O75 C76 1.208 . S
C76 O74 1.247 . S
C76 O75 1.208 . S
C77 O82 1.247 . S
C77 O83 1.208 . S
C78 O70 1.315 . S
C78 O73 1.279 . S
C79 O80 1.315 . S
C79 O81 1.279 . S
O80 Cd72 2.223 . S
O80 C79 1.315 . S
O81 Cd71 2.240 . S
O81 C79 1.279 . S
O82 Cd72 2.297 . S
O82 C77 1.247 . S
O83 Cd72 2.439 . S
O83 C77 1.208 . S
O84 Cd85 2.223 . S
O84 C92 1.315 . S
Cd85 O84 2.223 . S
Cd85 O88 2.297 . S
Cd85 O89 2.439 . S
Cd85 O95 2.240 . S
Cd86 O87 2.240 . S
Cd86 O94 2.223 . S
Cd86 O96 2.297 . S
Cd86 O97 2.439 . S
O87 Cd86 2.240 . S
O87 C92 1.279 . S
O88 Cd85 2.297 . S
O88 C90 1.247 . S
O89 Cd85 2.439 . S
O89 C90 1.208 . S
C90 O88 1.247 . S
C90 O89 1.208 . S
C91 O96 1.247 . S
C91 O97 1.208 . S
C92 O84 1.315 . S
C92 O87 1.279 . S
C93 O94 1.315 . S
C93 O95 1.279 . S
O94 Cd86 2.223 . S
O94 C93 1.315 . S
O95 Cd85 2.240 . S
O95 C93 1.279 . S
O96 Cd86 2.297 . S
O96 C91 1.247 . S
O97 Cd86 2.439 . S
O97 C91 1.208 . S
O98 Cd99 2.223 . S
O98 C106 1.315 . S
Cd99 O98 2.223 . S
Cd99 O102 2.297 . S
Cd99 O103 2.439 . S
Cd99 O109 2.240 . S
Cd100 O101 2.240 . S
Cd100 O108 2.223 . S
Cd100 O110 2.297 . S
Cd100 O111 2.439 . S
O101 Cd100 2.240 . S
O101 C106 1.279 . S
O102 Cd99 2.297 . S
O102 C104 1.247 . S
O103 Cd99 2.439 . S
O103 C104 1.208 . S
C104 O102 1.247 . S
C104 O103 1.208 . S
C105 O110 1.247 . S
C105 O111 1.208 . S
C106 O98 1.315 . S
C106 O101 1.279 . S
C107 O108 1.315 . S
C107 O109 1.279 . S
O108 Cd100 2.223 . S
O108 C107 1.315 . S
O109 Cd99 2.240 . S
O109 C107 1.279 . S
O110 Cd100 2.297 . S
O110 C105 1.247 . S
O111 Cd100 2.439 . S
O111 C105 1.208 . S
O112 Cd113 2.223 . S
O112 C120 1.315 . S
Cd113 O112 2.223 . S
Cd113 O116 2.297 . S
Cd113 O117 2.439 . S
Cd113 O123 2.240 . S
Cd114 O115 2.240 . S
Cd114 O122 2.223 . S
Cd114 O124 2.297 . S
Cd114 O125 2.439 . S
O115 Cd114 2.240 . S
O115 C120 1.279 . S
O116 Cd113 2.297 . S
O116 C118 1.247 . S
O117 Cd113 2.439 . S
O117 C118 1.208 . S
C118 O116 1.247 . S
C118 O117 1.208 . S
C119 O124 1.247 . S
C119 O125 1.208 . S
C120 O112 1.315 . S
C120 O115 1.279 . S
C121 O122 1.315 . S
C121 O123 1.279 . S
O122 Cd114 2.223 . S
O122 C121 1.315 . S
O123 Cd113 2.240 . S
O123 C121 1.279 . S
O124 Cd114 2.297 . S
O124 C119 1.247 . S
O125 Cd114 2.439 . S
O125 C119 1.208 . S
O126 Cd127 2.223 . S
O126 C134 1.315 . S
Cd127 O126 2.223 . S
Cd127 O130 2.297 . S
Cd127 O131 2.439 . S
Cd127 O137 2.240 . S
Cd128 O129 2.240 . S
Cd128 O136 2.223 . S
Cd128 O138 2.297 . S
Cd128 O139 2.439 . S
O129 Cd128 2.240 . S
O129 C134 1.279 . S
O130 Cd127 2.297 . S
O130 C132 1.247 . S
O131 Cd127 2.439 . S
O131 C132 1.208 . S
C132 O130 1.247 . S
C132 O131 1.208 . S
C133 O138 1.247 . S
C133 O139 1.208 . S
C134 O126 1.315 . S
C134 O129 1.279 . S
C135 O136 1.315 . S
C135 O137 1.279 . S
O136 Cd128 2.223 . S
O136 C135 1.315 . S
O137 Cd127 2.240 . S
O137 C135 1.279 . S
O138 Cd128 2.297 . S
O138 C133 1.247 . S
O139 Cd128 2.439 . S
O139 C133 1.208 . S
O140 Cd141 2.223 . S
O140 C148 1.315 . S
Cd141 O140 2.223 . S
Cd141 O144 2.297 . S
Cd141 O145 2.439 . S
Cd141 O151 2.240 . S
Cd142 O143 2.240 . S
Cd142 O150 2.223 . S
Cd142 O152 2.297 . S
Cd142 O153 2.439 . S
O143 Cd142 2.240 . S
O143 C148 1.279 . S
O144 Cd141 2.297 . S
O144 C146 1.247 . S
O145 Cd141 2.439 . S
O145 C146 1.208 . S
C146 O144 1.247 . S
C146 O145 1.208 . S
C147 O152 1.247 . S
C147 O153 1.208 . S
C148 O140 1.315 . S
C148 O143 1.279 . S
C149 O150 1.315 . S
C149 O151 1.279 . S
O150 Cd142 2.223 . S
O150 C149 1.315 . S
O151 Cd141 2.240 . S
O151 C149 1.279 . S
O152 Cd142 2.297 . S
O152 C147 1.247 . S
O153 Cd142 2.439 . S
O153 C147 1.208 . S
O154 Cd155 2.223 . S
O154 C162 1.315 . S
Cd155 O154 2.223 . S
Cd155 O158 2.297 . S
Cd155 O159 2.439 . S
Cd155 O165 2.240 . S
Cd156 O157 2.240 . S
Cd156 O164 2.223 . S
Cd156 O166 2.297 . S
Cd156 O167 2.439 . S
O157 Cd156 2.240 . S
O157 C162 1.279 . S
O158 Cd155 2.297 . S
O158 C160 1.247 . S
O159 Cd155 2.439 . S
O159 C160 1.208 . S
C160 O158 1.247 . S
C160 O159 1.208 . S
C161 O166 1.247 . S
C161 O167 1.208 . S
C162 O154 1.315 . S
C162 O157 1.279 . S
C163 O164 1.315 . S
C163 O165 1.279 . S
O164 Cd156 2.223 . S
O164 C163 1.315 . S
O165 Cd155 2.240 . S
O165 C163 1.279 . S
O166 Cd156 2.297 . S
O166 C161 1.247 . S
O167 Cd156 2.439 . S
O167 C161 1.208 . S
O168 Cd169 2.223 . S
O168 C176 1.315 . S
Cd169 O168 2.223 . S
Cd169 O172 2.297 . S
Cd169 O173 2.439 . S
Cd169 O179 2.240 . S
Cd170 O171 2.240 . S
Cd170 O178 2.223 . S
Cd170 O180 2.297 . S
Cd170 O181 2.439 . S
O171 Cd170 2.240 . S
O171 C176 1.279 . S
O172 Cd169 2.297 . S
O172 C174 1.247 . S
O173 Cd169 2.439 . S
O173 C174 1.208 . S
C174 O172 1.247 . S
C174 O173 1.208 . S
C175 O180 1.247 . S
C175 O181 1.208 . S
C176 O168 1.315 . S
C176 O171 1.279 . S
C177 O178 1.315 . S
C177 O179 1.279 . S
O178 Cd170 2.223 . S
O178 C177 1.315 . S
O179 Cd169 2.240 . S
O179 C177 1.279 . S
O180 Cd170 2.297 . S
O180 C175 1.247 . S
O181 Cd170 2.439 . S
O181 C175 1.208 . S
O182 Cd183 2.223 . S
O182 C190 1.315 . S
Cd183 O182 2.223 . S
Cd183 O186 2.297 . S
Cd183 O187 2.439 . S
Cd183 O193 2.240 . S
Cd184 O185 2.240 . S
Cd184 O192 2.223 . S
Cd184 O194 2.297 . S
Cd184 O195 2.439 . S
O185 Cd184 2.240 . S
O185 C190 1.279 . S
O186 Cd183 2.297 . S
O186 C188 1.247 . S
O187 Cd183 2.439 . S
O187 C188 1.208 . S
C188 O186 1.247 . S
C188 O187 1.208 . S
C189 O194 1.247 . S
C189 O195 1.208 . S
C190 O182 1.315 . S
C190 O185 1.279 . S
C191 O192 1.315 . S
C191 O193 1.279 . S
O192 Cd184 2.223 . S
O192 C191 1.315 . S
O193 Cd183 2.240 . S
O193 C191 1.279 . S
O194 Cd184 2.297 . S
O194 C189 1.247 . S
O195 Cd184 2.439 . S
O195 C189 1.208 . S
O196 Cd197 2.223 . S
O196 C204 1.315 . S
Cd197 O196 2.223 . S
Cd197 O200 2.297 . S
Cd197 O201 2.439 . S
Cd197 O207 2.240 . S
Cd198 O199 2.240 . S
Cd198 O206 2.223 . S
Cd198 O208 2.297 . S
Cd198 O209 2.439 . S
O199 Cd198 2.240 . S
O199 C204 1.279 . S
O200 Cd197 2.297 . S
O200 C202 1.247 . S
O201 Cd197 2.439 . S
O201 C202 1.208 . S
C202 O200 1.247 . S
C202 O201 1.208 . S
C203 O208 1.247 . S
C203 O209 1.208 . S
C204 O196 1.315 . S
C204 O199 1.279 . S
C205 O206 1.315 . S
C205 O207 1.279 . S
O206 Cd198 2.223 . S
O206 C205 1.315 . S
O207 Cd197 2.240 . S
O207 C205 1.279 . S
O208 Cd198 2.297 . S
O208 C203 1.247 . S
O209 Cd198 2.439 . S
O209 C203 1.208 . S
O210 Cd211 2.223 . S
O210 C218 1.315 . S
Cd211 O210 2.223 . S
Cd211 O214 2.297 . S
Cd211 O215 2.439 . S
Cd211 O221 2.240 . S
Cd212 O213 2.240 . S
Cd212 O220 2.223 . S
Cd212 O222 2.297 . S
Cd212 O223 2.439 . S
O213 Cd212 2.240 . S
O213 C218 1.279 . S
O214 Cd211 2.297 . S
O214 C216 1.247 . S
O215 Cd211 2.439 . S
O215 C216 1.208 . S
C216 O214 1.247 . S
C216 O215 1.208 . S
C217 O222 1.247 . S
C217 O223 1.208 . S
C218 O210 1.315 . S
C218 O213 1.279 . S
C219 O220 1.315 . S
C219 O221 1.279 . S
O220 Cd212 2.223 . S
O220 C219 1.315 . S
O221 Cd211 2.240 . S
O221 C219 1.279 . S
O222 Cd212 2.297 . S
O222 C217 1.247 . S
O223 Cd212 2.439 . S
O223 C217 1.208 . S
C224 C225 1.369 1_545 S
C224 C226 1.419 1_655 S
C224 H228 0.930 . S
C225 C224 1.369 1_565 S
C225 C234 1.429 . S
C226 C224 1.419 1_455 S
C226 C227 1.363 . S
C226 H229 0.929 . S
C227 C226 1.363 . S
C227 C233 1.428 1_545 S
H228 C224 0.930 . S
H229 C226 0.929 . S
S230 N231 1.613 1_455 S
S230 N232 1.610 . S
N231 S230 1.613 1_655 S
N231 C234 1.350 . S
N232 S230 1.610 . S
N232 C233 1.351 . S
C233 C227 1.428 1_565 S
C233 N232 1.351 . S
C233 C234 1.434 1_455 S
C234 C225 1.429 . S
C234 N231 1.350 . S
C234 C233 1.434 1_655 S
C235 C236 1.369 . S
C235 C237 1.419 . S
C235 H239 0.930 . S
C236 C235 1.369 . S
C236 C245 1.429 1_655 S
C237 C235 1.419 . S
C237 C238 1.363 1_655 S
C237 H240 0.929 . S
C238 C237 1.363 1_455 S
C238 C244 1.428 . S
H239 C235 0.930 . S
H240 C237 0.929 . S
S241 N242 1.613 . S
S241 N243 1.610 . S
N242 S241 1.613 . S
N242 C245 1.350 . S
N243 S241 1.610 . S
N243 C244 1.351 . S
C244 C238 1.428 . S
C244 N243 1.351 . S
C244 C245 1.434 . S
C245 C236 1.429 1_455 S
C245 N242 1.350 . S
C245 C244 1.434 . S
C246 C247 1.369 . S
C246 C248 1.419 . S
C246 H250 0.930 . S
C247 C246 1.369 . S
C247 C256 1.429 . S
C248 C246 1.419 . S
C248 C249 1.363 . S
C248 H251 0.929 . S
C249 C248 1.363 . S
C249 C255 1.428 . S
H250 C246 0.930 . S
H251 C248 0.929 . S
S252 N253 1.613 . S
S252 N254 1.610 . S
N253 S252 1.613 . S
N253 C256 1.350 . S
N254 S252 1.610 . S
N254 C255 1.351 . S
C255 C249 1.428 . S
C255 N254 1.351 . S
C255 C256 1.434 . S
C256 C247 1.429 . S
C256 N253 1.350 . S
C256 C255 1.434 . S
C257 C258 1.369 . S
C257 C259 1.419 1_545 S
C257 H261 0.930 . S
C258 C257 1.369 . S
C258 C267 1.429 . S
C259 C257 1.419 1_565 S
C259 C260 1.363 . S
C259 H262 0.929 . S
C260 C259 1.363 . S
C260 C266 1.428 . S
H261 C257 0.930 . S
H262 C259 0.929 . S
S263 N264 1.613 1_565 S
S263 N265 1.610 . S
N264 S263 1.613 1_545 S
N264 C267 1.350 . S
N265 S263 1.610 . S
N265 C266 1.351 . S
C266 C260 1.428 . S
C266 N265 1.351 . S
C266 C267 1.434 1_565 S
C267 C258 1.429 . S
C267 N264 1.350 . S
C267 C266 1.434 1_545 S
C268 C269 1.369 . S
C268 C270 1.419 1_455 S
C268 H272 0.930 . S
C269 C268 1.369 . S
C269 C278 1.429 . S
C270 C268 1.419 1_655 S
C270 C271 1.363 . S
C270 H273 0.929 . S
C271 C270 1.363 . S
C271 C277 1.428 . S
H272 C268 0.930 . S
H273 C270 0.929 . S
S274 N275 1.613 . S
S274 N276 1.610 1_455 S
N275 S274 1.613 . S
N275 C278 1.350 . S
N276 S274 1.610 1_655 S
N276 C277 1.351 . S
C277 C271 1.428 . S
C277 N276 1.351 . S
C277 C278 1.434 1_655 S
C278 C269 1.429 . S
C278 N275 1.350 . S
C278 C277 1.434 1_455 S
C279 C280 1.369 . S
C279 C281 1.419 . S
C279 H283 0.930 . S
C280 C279 1.369 . S
C280 C289 1.429 . S
C281 C279 1.419 . S
C281 C282 1.363 . S
C281 H284 0.929 . S
C282 C281 1.363 . S
C282 C288 1.428 . S
H283 C279 0.930 . S
H284 C281 0.929 . S
S285 N286 1.613 . S
S285 N287 1.610 . S
N286 S285 1.613 . S
N286 C289 1.350 . S
N287 S285 1.610 . S
N287 C288 1.351 . S
C288 C282 1.428 . S
C288 N287 1.351 . S
C288 C289 1.434 . S
C289 C280 1.429 . S
C289 N286 1.350 . S
C289 C288 1.434 . S
C290 C291 1.369 . S
C290 C292 1.419 . S
C290 H294 0.930 . S
C291 C290 1.369 . S
C291 C300 1.429 1_545 S
C292 C290 1.419 . S
C292 C293 1.363 1_545 S
C292 H295 0.929 . S
C293 C292 1.363 1_565 S
C293 C299 1.428 . S
H294 C290 0.930 . S
H295 C292 0.929 . S
S296 N297 1.613 . S
S296 N298 1.610 . S
N297 S296 1.613 . S
N297 C300 1.350 . S
N298 S296 1.610 . S
N298 C299 1.351 . S
C299 C293 1.428 . S
C299 N298 1.351 . S
C299 C300 1.434 . S
C300 C291 1.429 1_565 S
C300 N297 1.350 . S
C300 C299 1.434 . S
C301 C302 1.369 1_655 S
C301 C303 1.419 1_545 S
C301 H305 0.930 . S
C302 C301 1.369 1_455 S
C302 C311 1.429 . S
C303 C301 1.419 1_565 S
C303 C304 1.363 . S
C303 H306 0.929 . S
C304 C303 1.363 . S
C304 C310 1.428 1_655 S
H305 C301 0.930 . S
H306 C303 0.929 . S
S307 N308 1.613 1_565 S
S307 N309 1.610 . S
N308 S307 1.613 1_545 S
N308 C311 1.350 . S
N309 S307 1.610 . S
N309 C310 1.351 . S
C310 C304 1.428 1_455 S
C310 N309 1.351 . S
C310 C311 1.434 1_565 S
C311 C302 1.429 . S
C311 N308 1.350 . S
C311 C310 1.434 1_545 S
C312 C313 1.369 . S
C312 C314 1.419 . S
C312 H316 0.930 . S
C313 C312 1.369 . S
C313 C322 1.429 1_565 S
C314 C312 1.419 . S
C314 C315 1.363 1_565 S
C314 H317 0.929 . S
C315 C314 1.363 1_545 S
C315 C321 1.428 . S
H316 C312 0.930 . S
H317 C314 0.929 . S
S318 N319 1.613 . S
S318 N320 1.610 . S
N319 S318 1.613 . S
N319 C322 1.350 . S
N320 S318 1.610 . S
N320 C321 1.351 . S
C321 C315 1.428 . S
C321 N320 1.351 . S
C321 C322 1.434 . S
C322 C313 1.429 1_545 S
C322 N319 1.350 . S
C322 C321 1.434 . S
C323 C324 1.369 . S
C323 C325 1.419 1_565 S
C323 H327 0.930 . S
C324 C323 1.369 . S
C324 C333 1.429 1_655 S
C325 C323 1.419 1_545 S
C325 C326 1.363 1_655 S
C325 H328 0.929 . S
C326 C325 1.363 1_455 S
C326 C332 1.428 . S
H327 C323 0.930 . S
H328 C325 0.929 . S
S329 N330 1.613 . S
S329 N331 1.610 1_565 S
N330 S329 1.613 . S
N330 C333 1.350 . S
N331 S329 1.610 1_545 S
N331 C332 1.351 . S
C332 C326 1.428 . S
C332 N331 1.351 . S
C332 C333 1.434 1_545 S
C333 C324 1.429 1_455 S
C333 N330 1.350 . S
C333 C332 1.434 1_565 S
C334 C335 1.369 . S
C334 C336 1.419 1_455 S
C334 H338 0.930 . S
C335 C334 1.369 . S
C335 C344 1.429 . S
C336 C334 1.419 1_655 S
C336 C337 1.363 . S
C336 H339 0.929 . S
C337 C336 1.363 . S
C337 C343 1.428 . S
H338 C334 0.930 . S
H339 C336 0.929 . S
S340 N341 1.613 1_655 S
S340 N342 1.610 . S
N341 S340 1.613 1_455 S
N341 C344 1.350 . S
N342 S340 1.610 . S
N342 C343 1.351 . S
C343 C337 1.428 . S
C343 N342 1.351 . S
C343 C344 1.434 1_655 S
C344 C335 1.429 . S
C344 N341 1.350 . S
C344 C343 1.434 1_455 S
C345 C346 1.369 . S
C345 C347 1.419 . S
C345 H349 0.930 . S
C346 C345 1.369 . S
C346 C355 1.429 . S
C347 C345 1.419 . S
C347 C348 1.363 . S
C347 H350 0.929 . S
C348 C347 1.363 . S
C348 C354 1.428 . S
H349 C345 0.930 . S
H350 C347 0.929 . S
S351 N352 1.613 . S
S351 N353 1.610 . S
N352 S351 1.613 . S
N352 C355 1.350 . S
N353 S351 1.610 . S
N353 C354 1.351 . S
C354 C348 1.428 . S
C354 N353 1.351 . S
C354 C355 1.434 . S
C355 C346 1.429 . S
C355 N352 1.350 . S
C355 C354 1.434 . S
C356 C357 1.369 . S
C356 C358 1.419 . S
C356 H360 0.930 . S
C357 C356 1.369 . S
C357 C366 1.429 . S
C358 C356 1.419 . S
C358 C359 1.363 . S
C358 H361 0.929 . S
C359 C358 1.363 . S
C359 C365 1.428 . S
H360 C356 0.930 . S
H361 C358 0.929 . S
S362 N363 1.613 . S
S362 N364 1.610 . S
N363 S362 1.613 . S
N363 C366 1.350 . S
N364 S362 1.610 . S
N364 C365 1.351 . S
C365 C359 1.428 . S
C365 N364 1.351 . S
C365 C366 1.434 . S
C366 C357 1.429 . S
C366 N363 1.350 . S
C366 C365 1.434 . S
C367 C368 1.369 . S
C367 C369 1.419 1_565 S
C367 H371 0.930 . S
C368 C367 1.369 . S
C368 C377 1.429 . S
C369 C367 1.419 1_545 S
C369 C370 1.363 . S
C369 H372 0.929 . S
C370 C369 1.363 . S
C370 C376 1.428 . S
H371 C367 0.930 . S
H372 C369 0.929 . S
S373 N374 1.613 . S
S373 N375 1.610 1_565 S
N374 S373 1.613 . S
N374 C377 1.350 . S
N375 S373 1.610 1_545 S
N375 C376 1.351 . S
C376 C370 1.428 . S
C376 N375 1.351 . S
C376 C377 1.434 1_545 S
C377 C368 1.429 . S
C377 N374 1.350 . S
C377 C376 1.434 1_565 S
C378 C379 1.369 1_545 S
C378 C380 1.419 1_655 S
C378 H382 0.930 . S
C379 C378 1.369 1_565 S
C379 C388 1.429 . S
C380 C378 1.419 1_455 S
C380 C381 1.363 . S
C380 H383 0.929 . S
C381 C380 1.363 . S
C381 C387 1.428 1_545 S
H382 C378 0.930 . S
H383 C380 0.929 . S
S384 N385 1.613 1_455 S
S384 N386 1.610 . S
N385 S384 1.613 1_655 S
N385 C388 1.350 . S
N386 S384 1.610 . S
N386 C387 1.351 . S
C387 C381 1.428 1_565 S
C387 N386 1.351 . S
C387 C388 1.434 1_455 S
C388 C379 1.429 . S
C388 N385 1.350 . S
C388 C387 1.434 1_655 S
C389 C390 1.369 1_655 S
C389 C391 1.419 . S
C389 H393 0.930 . S
C390 C389 1.369 1_455 S
C390 C399 1.429 . S
C391 C389 1.419 . S
C391 C392 1.363 . S
C391 H394 0.929 . S
C392 C391 1.363 . S
C392 C398 1.428 1_655 S
H393 C389 0.930 . S
H394 C391 0.929 . S
S395 N396 1.613 . S
S395 N397 1.610 . S
N396 S395 1.613 . S
N396 C399 1.350 . S
N397 S395 1.610 . S
N397 C398 1.351 . S
C398 C392 1.428 1_455 S
C398 N397 1.351 . S
C398 C399 1.434 . S
C399 C390 1.429 . S
C399 N396 1.350 . S
C399 C398 1.434 . S
C400 C401 1.369 . S
C400 C402 1.419 . S
C400 H404 0.930 . S
C401 C400 1.369 . S
C401 C410 1.429 . S
C402 C400 1.419 . S
C402 C403 1.363 . S
C402 H405 0.929 . S
C403 C402 1.363 . S
C403 C409 1.428 . S
H404 C400 0.930 . S
H405 C402 0.929 . S
S406 N407 1.613 1_565 S
S406 N408 1.610 1_565 S
N407 S406 1.613 1_545 S
N407 C410 1.350 . S
N408 S406 1.610 1_545 S
N408 C409 1.351 . S
C409 C403 1.428 . S
C409 N408 1.351 . S
C409 C410 1.434 . S
C410 C401 1.429 . S
C410 N407 1.350 . S
C410 C409 1.434 . S
C411 C412 1.369 . S
C411 C413 1.419 . S
C411 H415 0.930 . S
C412 C411 1.369 . S
C412 C421 1.429 . S
C413 C411 1.419 . S
C413 C414 1.363 . S
C413 H416 0.929 . S
C414 C413 1.363 . S
C414 C420 1.428 . S
H415 C411 0.930 . S
H416 C413 0.929 . S
S417 N418 1.613 1_455 S
S417 N419 1.610 1_455 S
N418 S417 1.613 1_655 S
N418 C421 1.350 . S
N419 S417 1.610 1_655 S
N419 C420 1.351 . S
C420 C414 1.428 . S
C420 N419 1.351 . S
C420 C421 1.434 . S
C421 C412 1.429 . S
C421 N418 1.350 . S
C421 C420 1.434 . S
C422 C423 1.369 . S
C422 C424 1.419 . S
C422 H426 0.930 . S
C423 C422 1.369 . S
C423 C432 1.429 . S
C424 C422 1.419 . S
C424 C425 1.363 . S
C424 H427 0.929 . S
C425 C424 1.363 . S
C425 C431 1.428 . S
H426 C422 0.930 . S
H427 C424 0.929 . S
S428 N429 1.613 . S
S428 N430 1.610 . S
N429 S428 1.613 . S
N429 C432 1.350 . S
N430 S428 1.610 . S
N430 C431 1.351 . S
C431 C425 1.428 . S
C431 N430 1.351 . S
C431 C432 1.434 . S
C432 C423 1.429 . S
C432 N429 1.350 . S
C432 C431 1.434 . S
C433 C434 1.369 . S
C433 C435 1.419 . S
C433 H437 0.930 . S
C434 C433 1.369 . S
C434 C443 1.429 . S
C435 C433 1.419 . S
C435 C436 1.363 . S
C435 H438 0.929 . S
C436 C435 1.363 . S
C436 C442 1.428 . S
H437 C433 0.930 . S
H438 C435 0.929 . S
S439 N440 1.613 . S
S439 N441 1.610 . S
N440 S439 1.613 . S
N440 C443 1.350 . S
N441 S439 1.610 . S
N441 C442 1.351 . S
C442 C436 1.428 . S
C442 N441 1.351 . S
C442 C443 1.434 . S
C443 C434 1.429 . S
C443 N440 1.350 . S
C443 C442 1.434 . S
C444 C445 1.369 . S
C444 C446 1.419 . S
C444 H448 0.930 . S
C445 C444 1.369 . S
C445 C454 1.429 . S
C446 C444 1.419 . S
C446 C447 1.363 . S
C446 H449 0.929 . S
C447 C446 1.363 . S
C447 C453 1.428 . S
H448 C444 0.930 . S
H449 C446 0.929 . S
S450 N451 1.613 . S
S450 N452 1.610 . S
N451 S450 1.613 . S
N451 C454 1.350 . S
N452 S450 1.610 . S
N452 C453 1.351 . S
C453 C447 1.428 . S
C453 N452 1.351 . S
C453 C454 1.434 . S
C454 C445 1.429 . S
C454 N451 1.350 . S
C454 C453 1.434 . S
C455 C456 1.369 . S
C455 C457 1.419 . S
C455 H459 0.930 . S
C456 C455 1.369 . S
C456 C465 1.429 . S
C457 C455 1.419 . S
C457 C458 1.363 . S
C457 H460 0.929 . S
C458 C457 1.363 . S
C458 C464 1.428 . S
H459 C455 0.930 . S
H460 C457 0.929 . S
S461 N462 1.613 . S
S461 N463 1.610 . S
N462 S461 1.613 . S
N462 C465 1.350 . S
N463 S461 1.610 . S
N463 C464 1.351 . S
C464 C458 1.428 . S
C464 N463 1.351 . S
C464 C465 1.434 . S
C465 C456 1.429 . S
C465 N462 1.350 . S
C465 C464 1.434 . S
C466 C467 1.369 . S
C466 C468 1.419 . S
C466 H470 0.930 . S
C467 C466 1.369 . S
C467 C476 1.429 . S
C468 C466 1.419 . S
C468 C469 1.363 . S
C468 H471 0.929 . S
C469 C468 1.363 . S
C469 C475 1.428 . S
H470 C466 0.930 . S
H471 C468 0.929 . S
S472 N473 1.613 . S
S472 N474 1.610 . S
N473 S472 1.613 . S
N473 C476 1.350 . S
N474 S472 1.610 . S
N474 C475 1.351 . S
C475 C469 1.428 . S
C475 N474 1.351 . S
C475 C476 1.434 . S
C476 C467 1.429 . S
C476 N473 1.350 . S
C476 C475 1.434 . S
C477 C478 1.369 . S
C477 C479 1.419 . S
C477 H481 0.930 . S
C478 C477 1.369 . S
C478 C487 1.429 . S
C479 C477 1.419 . S
C479 C480 1.363 . S
C479 H482 0.929 . S
C480 C479 1.363 . S
C480 C486 1.428 . S
H481 C477 0.930 . S
H482 C479 0.929 . S
S483 N484 1.613 . S
S483 N485 1.610 . S
N484 S483 1.613 . S
N484 C487 1.350 . S
N485 S483 1.610 . S
N485 C486 1.351 . S
C486 C480 1.428 . S
C486 N485 1.351 . S
C486 C487 1.434 . S
C487 C478 1.429 . S
C487 N484 1.350 . S
C487 C486 1.434 . S
C488 C489 1.369 . S
C488 C490 1.419 . S
C488 H492 0.930 . S
C489 C488 1.369 . S
C489 C498 1.429 . S
C490 C488 1.419 . S
C490 C491 1.363 . S
C490 H493 0.929 . S
C491 C490 1.363 . S
C491 C497 1.428 . S
H492 C488 0.930 . S
H493 C490 0.929 . S
S494 N495 1.613 . S
S494 N496 1.610 . S
N495 S494 1.613 . S
N495 C498 1.350 . S
N496 S494 1.610 . S
N496 C497 1.351 . S
C497 C491 1.428 . S
C497 N496 1.351 . S
C497 C498 1.434 . S
C498 C489 1.429 . S
C498 N495 1.350 . S
C498 C497 1.434 . S
C499 C500 1.369 . S
C499 C501 1.419 . S
C499 H503 0.930 . S
C500 C499 1.369 . S
C500 C509 1.429 . S
C501 C499 1.419 . S
C501 C502 1.363 . S
C501 H504 0.929 . S
C502 C501 1.363 . S
C502 C508 1.428 . S
H503 C499 0.930 . S
H504 C501 0.929 . S
S505 N506 1.613 . S
S505 N507 1.610 . S
N506 S505 1.613 . S
N506 C509 1.350 . S
N507 S505 1.610 . S
N507 C508 1.351 . S
C508 C502 1.428 . S
C508 N507 1.351 . S
C508 C509 1.434 . S
C509 C500 1.429 . S
C509 N506 1.350 . S
C509 C508 1.434 . S
C510 C511 1.369 . S
C510 C512 1.419 . S
C510 H514 0.930 . S
C511 C510 1.369 . S
C511 C520 1.429 . S
C512 C510 1.419 . S
C512 C513 1.363 . S
C512 H515 0.929 . S
C513 C512 1.363 . S
C513 C519 1.428 . S
H514 C510 0.930 . S
H515 C512 0.929 . S
S516 N517 1.613 . S
S516 N518 1.610 . S
N517 S516 1.613 . S
N517 C520 1.350 . S
N518 S516 1.610 . S
N518 C519 1.351 . S
C519 C513 1.428 . S
C519 N518 1.351 . S
C519 C520 1.434 . S
C520 C511 1.429 . S
C520 N517 1.350 . S
C520 C519 1.434 . S
C521 C522 1.369 . S
C521 C523 1.419 1_556 S
C521 H525 0.930 . S
C522 C521 1.369 . S
C522 C531 1.429 . S
C523 C521 1.419 1_554 S
C523 C524 1.363 . S
C523 H526 0.929 . S
C524 C523 1.363 . S
C524 C530 1.428 . S
H525 C521 0.930 . S
H526 C523 0.929 . S
S527 N528 1.568 1_554 S
S527 N529 1.654 . S
N528 S527 1.568 1_556 S
N528 C531 1.350 . S
N529 S527 1.654 . S
N529 C530 1.351 . S
C530 C524 1.428 . S
C530 N529 1.351 . S
C530 C531 1.434 1_554 S
C531 C522 1.429 . S
C531 N528 1.350 . S
C531 C530 1.434 1_556 S
C532 C533 1.369 . S
C532 C534 1.419 1_554 S
C532 H536 0.930 . S
C533 C532 1.369 . S
C533 C542 1.429 . S
C534 C532 1.419 1_556 S
C534 C535 1.363 . S
C534 H537 0.929 . S
C535 C534 1.363 . S
C535 C541 1.428 . S
H536 C532 0.930 . S
H537 C534 0.929 . S
S538 N539 1.657 . S
S538 N540 1.566 1_554 S
N539 S538 1.657 . S
N539 C542 1.350 . S
N540 S538 1.566 1_556 S
N540 C541 1.351 . S
C541 C535 1.428 . S
C541 N540 1.351 . S
C541 C542 1.434 1_556 S
C542 C533 1.429 . S
C542 N539 1.350 . S
C542 C541 1.434 1_554 S
C543 C544 1.369 . S
C543 C545 1.419 . S
C543 H547 0.930 . S
C544 C543 1.369 . S
C544 C553 1.429 . S
C545 C543 1.419 . S
C545 C546 1.363 . S
C545 H548 0.929 . S
C546 C545 1.363 . S
C546 C552 1.428 . S
H547 C543 0.930 . S
H548 C545 0.929 . S
S549 N550 1.613 . S
S549 N551 1.610 . S
N550 S549 1.613 . S
N550 C553 1.350 . S
N551 S549 1.610 . S
N551 C552 1.351 . S
C552 C546 1.428 . S
C552 N551 1.351 . S
C552 C553 1.434 . S
C553 C544 1.429 . S
C553 N550 1.350 . S
C553 C552 1.434 . S
C554 C555 1.369 . S
C554 C556 1.419 . S
C554 H558 0.930 . S
C555 C554 1.369 . S
C555 C564 1.429 . S
C556 C554 1.419 . S
C556 C557 1.363 . S
C556 H559 0.929 . S
C557 C556 1.363 . S
C557 C563 1.428 . S
H558 C554 0.930 . S
H559 C556 0.929 . S
S560 N561 1.613 . S
S560 N562 1.610 . S
N561 S560 1.613 . S
N561 C564 1.350 . S
N562 S560 1.610 . S
N562 C563 1.351 . S
C563 C557 1.428 . S
C563 N562 1.351 . S
C563 C564 1.434 . S
C564 C555 1.429 . S
C564 N561 1.350 . S
C564 C563 1.434 . S
C565 C566 1.369 . S
C565 C567 1.419 . S
C565 H569 0.930 . S
C566 C565 1.369 . S
C566 C575 1.429 . S
C567 C565 1.419 . S
C567 C568 1.363 . S
C567 H570 0.929 . S
C568 C567 1.363 . S
C568 C574 1.428 . S
H569 C565 0.930 . S
H570 C567 0.929 . S
S571 N572 1.613 . S
S571 N573 1.610 . S
N572 S571 1.613 . S
N572 C575 1.350 . S
N573 S571 1.610 . S
N573 C574 1.351 . S
C574 C568 1.428 . S
C574 N573 1.351 . S
C574 C575 1.434 . S
C575 C566 1.429 . S
C575 N572 1.350 . S
C575 C574 1.434 . S
C225 C146 1.339 . S
C227 C6 1.333 . S
C236 C20 1.334 . S
C238 C160 1.338 . S
C247 C118 1.335 . S
C249 C34 1.332 . S
C258 C132 1.339 . S
C260 C48 1.333 . S
C269 C62 1.335 . S
C271 C202 1.337 . S
C280 C216 1.332 . S
C282 C76 1.334 . S
C291 C90 1.331 . S
C293 C174 1.337 . S
C302 C188 1.338 . S
C304 C104 1.332 . S
C313 C149 1.733 . S
C315 C9 1.731 . S
C324 C23 1.733 . S
C326 C163 1.729 . S
C335 C37 1.728 . S
C337 C121 1.732 . S
C346 C51 1.728 . S
C348 C135 1.732 . S
C357 C65 1.728 . S
C359 C205 1.732 . S
C368 C79 1.730 . S
C370 C219 1.728 . S
C379 C177 1.728 . S
C381 C93 1.730 . S
C390 C191 1.728 . S
C392 C107 1.730 . S
C401 C8 1.253 . S
C403 C92 1.257 . S
C412 C22 1.253 . S
C414 C106 1.256 . S
C423 C36 1.265 . S
C425 C64 1.259 . S
C434 C50 1.257 . S
C436 C78 1.263 . S
C445 C120 1.261 . S
C447 C204 1.256 . S
C456 C218 1.264 . S
C458 C134 1.258 . S
C467 C148 1.255 . S
C469 C176 1.261 . S
C478 C190 1.256 . S
C480 C162 1.255 . S
C489 C7 1.538 . S
C491 C217 1.537 . S
C500 C175 1.538 . S
C502 C21 1.536 . S
C511 C189 1.536 . S
C513 C35 1.536 . S
C522 C203 1.537 . S
C524 C49 1.538 . S
C533 C133 1.537 . S
C535 C63 1.536 . S
C544 C147 1.536 . S
C546 C77 1.537 . S
C555 C91 1.538 . S
C557 C161 1.536 . S
C566 C105 1.537 . S
C568 C119 1.536 . S
