# Generated by pormake.
# Topology wla, (5)-cn, num edge types: 1
# Building blocks:
#     Node 0, Type 0, BuildingBlock: BEQFEK_clean_sbu_0, # of connection points: 5
#     Node 1, Type 0, BuildingBlock: BEQFEK_clean_sbu_0, # of connection points: 5
#     Node 2, Type 0, BuildingBlock: BEQFEK_clean_sbu_0, # of connection points: 5
#     Node 3, Type 0, BuildingBlock: BEQFEK_clean_sbu_0, # of connection points: 5
#     Node 4, Type 0, BuildingBlock: BEQFEK_clean_sbu_0, # of connection points: 5
#     Node 5, Type 0, BuildingBlock: BEQFEK_clean_sbu_0, # of connection points: 5
#     Node 6, Type 0, BuildingBlock: BEQFEK_clean_sbu_0, # of connection points: 5
#     Node 7, Type 0, BuildingBlock: BEQFEK_clean_sbu_0, # of connection points: 5
#     Node 8, Type 0, BuildingBlock: BEQFEK_clean_sbu_0, # of connection points: 5
#     Node 9, Type 0, BuildingBlock: BEQFEK_clean_sbu_0, # of connection points: 5
#     Node 10, Type 0, BuildingBlock: BEQFEK_clean_sbu_0, # of connection points: 5
#     Node 11, Type 0, BuildingBlock: BEQFEK_clean_sbu_0, # of connection points: 5
#     Node 12, Type 0, BuildingBlock: BEQFEK_clean_sbu_0, # of connection points: 5
#     Node 13, Type 0, BuildingBlock: BEQFEK_clean_sbu_0, # of connection points: 5
#     Node 14, Type 0, BuildingBlock: BEQFEK_clean_sbu_0, # of connection points: 5
#     Node 15, Type 0, BuildingBlock: BEQFEK_clean_sbu_0, # of connection points: 5
#     Node 16, Type 0, BuildingBlock: BEQFEK_clean_sbu_0, # of connection points: 5
#     Node 17, Type 0, BuildingBlock: BEQFEK_clean_sbu_0, # of connection points: 5
#     Edge 18, Type (0, 0), BuildingBlock: TEMPAE_clean_linker_10, # of connection points: 2
#     Edge 19, Type (0, 0), BuildingBlock: TEMPAE_clean_linker_10, # of connection points: 2
#     Edge 20, Type (0, 0), BuildingBlock: TEMPAE_clean_linker_10, # of connection points: 2
#     Edge 21, Type (0, 0), BuildingBlock: TEMPAE_clean_linker_10, # of connection points: 2
#     Edge 22, Type (0, 0), BuildingBlock: TEMPAE_clean_linker_10, # of connection points: 2
#     Edge 23, Type (0, 0), BuildingBlock: TEMPAE_clean_linker_10, # of connection points: 2
#     Edge 24, Type (0, 0), BuildingBlock: TEMPAE_clean_linker_10, # of connection points: 2
#     Edge 25, Type (0, 0), BuildingBlock: TEMPAE_clean_linker_10, # of connection points: 2
#     Edge 26, Type (0, 0), BuildingBlock: TEMPAE_clean_linker_10, # of connection points: 2
#     Edge 27, Type (0, 0), BuildingBlock: TEMPAE_clean_linker_10, # of connection points: 2
#     Edge 28, Type (0, 0), BuildingBlock: TEMPAE_clean_linker_10, # of connection points: 2
#     Edge 29, Type (0, 0), BuildingBlock: TEMPAE_clean_linker_10, # of connection points: 2
#     Edge 30, Type (0, 0), BuildingBlock: TEMPAE_clean_linker_10, # of connection points: 2
#     Edge 31, Type (0, 0), BuildingBlock: TEMPAE_clean_linker_10, # of connection points: 2
#     Edge 32, Type (0, 0), BuildingBlock: TEMPAE_clean_linker_10, # of connection points: 2
#     Edge 33, Type (0, 0), BuildingBlock: TEMPAE_clean_linker_10, # of connection points: 2
#     Edge 34, Type (0, 0), BuildingBlock: TEMPAE_clean_linker_10, # of connection points: 2
#     Edge 35, Type (0, 0), BuildingBlock: TEMPAE_clean_linker_10, # of connection points: 2
#     Edge 36, Type (0, 0), BuildingBlock: TEMPAE_clean_linker_10, # of connection points: 2
#     Edge 37, Type (0, 0), BuildingBlock: TEMPAE_clean_linker_10, # of connection points: 2
#     Edge 38, Type (0, 0), BuildingBlock: TEMPAE_clean_linker_10, # of connection points: 2
#     Edge 39, Type (0, 0), BuildingBlock: TEMPAE_clean_linker_10, # of connection points: 2
#     Edge 40, Type (0, 0), BuildingBlock: TEMPAE_clean_linker_10, # of connection points: 2
#     Edge 41, Type (0, 0), BuildingBlock: TEMPAE_clean_linker_10, # of connection points: 2
#     Edge 42, Type (0, 0), BuildingBlock: TEMPAE_clean_linker_10, # of connection points: 2
#     Edge 43, Type (0, 0), BuildingBlock: TEMPAE_clean_linker_10, # of connection points: 2
#     Edge 44, Type (0, 0), BuildingBlock: TEMPAE_clean_linker_10, # of connection points: 2
#     Edge 45, Type (0, 0), BuildingBlock: TEMPAE_clean_linker_10, # of connection points: 2
#     Edge 46, Type (0, 0), BuildingBlock: TEMPAE_clean_linker_10, # of connection points: 2
#     Edge 47, Type (0, 0), BuildingBlock: TEMPAE_clean_linker_10, # of connection points: 2
#     Edge 48, Type (0, 0), BuildingBlock: TEMPAE_clean_linker_10, # of connection points: 2
#     Edge 49, Type (0, 0), BuildingBlock: TEMPAE_clean_linker_10, # of connection points: 2
#     Edge 50, Type (0, 0), BuildingBlock: TEMPAE_clean_linker_10, # of connection points: 2
#     Edge 51, Type (0, 0), BuildingBlock: TEMPAE_clean_linker_10, # of connection points: 2
#     Edge 52, Type (0, 0), BuildingBlock: TEMPAE_clean_linker_10, # of connection points: 2
#     Edge 53, Type (0, 0), BuildingBlock: TEMPAE_clean_linker_10, # of connection points: 2
#     Edge 54, Type (0, 0), BuildingBlock: TEMPAE_clean_linker_10, # of connection points: 2
#     Edge 55, Type (0, 0), BuildingBlock: TEMPAE_clean_linker_10, # of connection points: 2
#     Edge 56, Type (0, 0), BuildingBlock: TEMPAE_clean_linker_10, # of connection points: 2
#     Edge 57, Type (0, 0), BuildingBlock: TEMPAE_clean_linker_10, # of connection points: 2
#     Edge 58, Type (0, 0), BuildingBlock: TEMPAE_clean_linker_10, # of connection points: 2
#     Edge 59, Type (0, 0), BuildingBlock: TEMPAE_clean_linker_10, # of connection points: 2
#     Edge 60, Type (0, 0), BuildingBlock: TEMPAE_clean_linker_10, # of connection points: 2
#     Edge 61, Type (0, 0), BuildingBlock: TEMPAE_clean_linker_10, # of connection points: 2
#     Edge 62, Type (0, 0), BuildingBlock: TEMPAE_clean_linker_10, # of connection points: 2
# Relax obj value: 0.269
# Max RMSD: 0.180
# Mean RMSD: 0.180
data_MOF--net-wla--node1-BEQFEK_clean_sbu_0--edge1-TEMPAE_clean_linker_10
_symmetry_space_group_name_H-M    P1
_symmetry_Int_Tables_number       1
_symmetry_cell_setting            triclinic
loop_
_symmetry_equiv_pos_as_xyz
'x, y, z'
_cell_length_a     63.426223
_cell_length_b     63.520379
_cell_length_c     30.638241
_cell_angle_alpha  89.929672
_cell_angle_beta   89.982606
_cell_angle_gamma 119.95983
loop_
_atom_site_label
_atom_site_type_symbol
_atom_site_fract_x
_atom_site_fract_y
_atom_site_fract_z
_atom_type_partial_charge
Co0 Co 0.13383 0.00437 0.28366 0.0
Co1 Co 0.18541 0.04968 0.26835 0.0
C2 C 0.17658 0.015 0.34077 0.0
O3 O 0.15445 0.0023 0.32916 0.0
O4 O 0.19127 0.03427 0.32018 0.0
C5 C 0.09506 0.95305 0.2876 0.0
O6 O 0.1112 0.9465 0.2785 0.0
C7 C 0.23744 0.07983 0.24361 0.0
C8 C 0.23733 0.11231 0.21791 0.0
C9 C 0.25213 0.10223 0.22357 0.0
N10 N 0.21498 0.07678 0.24835 0.0
N11 N 0.21519 0.0964 0.23346 0.0
C12 C 0.24446 0.06181 0.25908 0.0
H13 H 0.23255 0.05074 0.28621 0.0
H14 H 0.24228 0.04933 0.23195 0.0
H15 H 0.26368 0.07118 0.27015 0.0
C16 C 0.13884 0.99732 0.18931 0.0
N17 N 0.14789 0.00849 0.22774 0.0
N18 N 0.1699 0.02716 0.22154 0.0
C19 C 0.17569 0.02813 0.17893 0.0
C20 C 0.15626 0.00928 0.15723 0.0
C21 C 0.11357 0.97644 0.18323 0.0
H22 H 0.10048 0.97969 0.20191 0.0
H23 H 0.11269 0.9597 0.19603 0.0
H24 H 0.10823 0.97342 0.14836 0.0
O25 O 0.12856 0.03171 0.29576 0.0
O26 O 0.16501 0.06392 0.28582 0.0
H27 H 0.19856 0.06587 0.16455 0.0
H28 H 0.19852 0.04613 0.12255 0.0
C29 C 0.19803 0.04844 0.15832 0.0
H30 H 0.21438 0.0493 0.17303 0.0
H31 H 0.2 0.09869 0.23288 0.0
O32 O 0.10127 0.97538 0.28922 0.0
C33 C 0.14259 0.0546 0.29543 0.0
Co34 Co 0.00811 0.14239 0.27407 0.0
Co35 Co 0.96017 0.1443 0.25924 0.0
C36 C 0.99045 0.16543 0.33881 0.0
O37 O 0.00554 0.15924 0.3253 0.0
O38 O 0.97156 0.16075 0.31679 0.0
C39 C 0.0488 0.14154 0.31125 0.0
O40 O 0.03847 0.14203 0.34811 0.0
C41 C 0.92825 0.16463 0.2392 0.0
C42 C 0.89918 0.13413 0.2021 0.0
C43 C 0.90719 0.15785 0.21505 0.0
N44 N 0.93265 0.14599 0.23912 0.0
N45 N 0.91498 0.12772 0.21753 0.0
C46 C 0.9439 0.1881 0.26248 0.0
H47 H 0.95302 0.18523 0.29076 0.0
H48 H 0.95822 0.20105 0.23993 0.0
H49 H 0.93289 0.19614 0.27409 0.0
C50 C 0.01946 0.16486 0.18745 0.0
N51 N 0.00536 0.15714 0.22326 0.0
N52 N 0.98539 0.15814 0.2165 0.0
C53 C 0.98624 0.16657 0.17576 0.0
C54 C 0.00787 0.17121 0.1563 0.0
C55 C 0.04192 0.16307 0.18134 0.0
H56 H 0.05513 0.17341 0.20756 0.0
H57 H 0.0505 0.1703 0.14908 0.0
H58 H 0.03717 0.14378 0.18423 0.0
O59 O 0.98266 0.10794 0.27554 0.0
O60 O 0.94864 0.10908 0.26574 0.0
H61 H 0.94934 0.14874 0.15365 0.0
H62 H 0.9701 0.17371 0.11937 0.0
C63 C 0.96555 0.16721 0.15358 0.0
H64 H 0.96109 0.17959 0.17156 0.0
H65 H 0.91417 0.11112 0.21202 0.0
O66 O 0.03932 0.14262 0.27541 0.0
C67 C 0.95963 0.09717 0.27178 0.0
Co68 Co 0.87203 0.87009 0.27269 0.0
Co69 Co 0.86594 0.81823 0.27833 0.0
C70 C 0.83996 0.83433 0.3395 0.0
O71 O 0.84946 0.85518 0.32175 0.0
O72 O 0.84486 0.81831 0.32605 0.0
C73 C 0.87825 0.91559 0.2947 0.0
O74 O 0.87663 0.9065 0.33391 0.0
C75 C 0.83841 0.76612 0.26375 0.0
C76 C 0.86758 0.75692 0.25752 0.0
C77 C 0.84268 0.74734 0.25317 0.0
N78 N 0.85987 0.786 0.27239 0.0
N79 N 0.87718 0.78026 0.26977 0.0
C80 C 0.8145 0.7655 0.26546 0.0
H81 H 0.81323 0.7762 0.23802 0.0
H82 H 0.79899 0.7466 0.26408 0.0
H83 H 0.81335 0.77416 0.29609 0.0
C84 C 0.85783 0.85554 0.18192 0.0
N85 N 0.86084 0.85028 0.22312 0.0
N86 N 0.85964 0.82899 0.22422 0.0
C87 C 0.85655 0.82031 0.18314 0.0
C88 C 0.85501 0.83672 0.15525 0.0
C89 C 0.86122 0.87965 0.16805 0.0
H90 H 0.88015 0.89402 0.17541 0.0
H91 H 0.8488 0.88368 0.18717 0.0
H92 H 0.85776 0.88016 0.1327 0.0
O93 O 0.9049 0.8758 0.28658 0.0
O94 O 0.90084 0.83911 0.29282 0.0
H95 H 0.87186 0.79694 0.18778 0.0
H96 H 0.85932 0.79672 0.13476 0.0
C97 C 0.857 0.79778 0.17034 0.0
H98 H 0.83948 0.78173 0.17935 0.0
H99 H 0.89567 0.7926 0.27398 0.0
O100 O 0.87596 0.90252 0.26168 0.0
C101 C 0.91395 0.86217 0.29357 0.0
Co102 Co 0.0107 0.14155 0.71516 0.0
Co103 Co 0.05702 0.19308 0.70993 0.0
C104 C 0.01534 0.17736 0.64781 0.0
O105 O 0.00366 0.15654 0.66557 0.0
O106 O 0.03627 0.19321 0.66155 0.0
C107 C 0.97043 0.09641 0.69349 0.0
O108 O 0.97742 0.10547 0.65412 0.0
C109 C 0.08194 0.24511 0.72531 0.0
C110 C 0.12026 0.25408 0.7308 0.0
C111 C 0.10507 0.26376 0.73577 0.0
N112 N 0.08335 0.2252 0.71609 0.0
N113 N 0.10637 0.2308 0.71832 0.0
C114 C 0.05873 0.2459 0.724 0.0
H115 H 0.04712 0.23584 0.75225 0.0
H116 H 0.06232 0.26488 0.72437 0.0
H117 H 0.04843 0.2367 0.69406 0.0
C118 C 0.01005 0.15686 0.80508 0.0
N119 N 0.01908 0.16162 0.76433 0.0
N120 N 0.03955 0.18259 0.76364 0.0
C121 C 0.04472 0.1914 0.80468 0.0
C122 C 0.02598 0.17559 0.83191 0.0
C123 C 0.9884 0.13333 0.81866 0.0
H124 H 0.99252 0.11843 0.8141 0.0
H125 H 0.97272 0.12947 0.79738 0.0
H126 H 0.98345 0.13363 0.85328 0.0
O127 O 0.03776 0.13542 0.70235 0.0
O128 O 0.07073 0.17187 0.69644 0.0
H129 H 0.08351 0.21426 0.79975 0.0
H130 H 0.0716 0.21312 0.85369 0.0
C131 C 0.06806 0.21327 0.81835 0.0
H132 H 0.06696 0.22979 0.81179 0.0
H133 H 0.11241 0.2184 0.71364 0.0
O134 O 0.98188 0.10932 0.72625 0.0
C135 C 0.06054 0.1488 0.69586 0.0
Co136 Co 0.87309 0.86989 0.71132 0.0
Co137 Co 0.82342 0.8677 0.73012 0.0
C138 C 0.8313 0.84699 0.64871 0.0
O139 O 0.85281 0.85315 0.66082 0.0
O140 O 0.81745 0.85153 0.67213 0.0
C141 C 0.91415 0.87084 0.67114 0.0
O142 O 0.90291 0.87046 0.63489 0.0
C143 C 0.77154 0.84697 0.7536 0.0
C144 C 0.77333 0.87737 0.7916 0.0
C145 C 0.75758 0.85359 0.77911 0.0
N146 N 0.79449 0.86577 0.75248 0.0
N147 N 0.7953 0.88399 0.77463 0.0
C148 C 0.76348 0.8235 0.73015 0.0
H149 H 0.77495 0.82644 0.70103 0.0
H150 H 0.76544 0.81068 0.75211 0.0
H151 H 0.74419 0.81526 0.71984 0.0
C152 C 0.86374 0.84756 0.79796 0.0
N153 N 0.85657 0.85506 0.76288 0.0
N154 N 0.83559 0.85377 0.77116 0.0
C155 C 0.82873 0.84521 0.81207 0.0
C156 C 0.84627 0.84092 0.83014 0.0
C157 C 0.88823 0.84969 0.80236 0.0
H158 H 0.89076 0.83935 0.7757 0.0
H159 H 0.89028 0.84265 0.83432 0.0
H160 H 0.90256 0.86904 0.79887 0.0
O161 O 0.88196 0.90428 0.71076 0.0
O162 O 0.84696 0.90301 0.72354 0.0
H163 H 0.8098 0.86281 0.83612 0.0
H164 H 0.80651 0.8381 0.87007 0.0
C165 C 0.80774 0.84443 0.83589 0.0
H166 H 0.7906 0.83185 0.81891 0.0
H167 H 0.81109 0.90068 0.77945 0.0
O168 O 0.90404 0.86971 0.70754 0.0
C169 C 0.86974 0.91499 0.71613 0.0
Co170 Co 0.13626 0.0047 0.70292 0.0
Co171 Co 0.14139 0.95874 0.71632 0.0
C172 C 0.16966 0.99444 0.64758 0.0
O173 O 0.16006 0.00701 0.65921 0.0
O174 O 0.1643 0.97459 0.66686 0.0
C175 C 0.14925 0.05636 0.70657 0.0
O176 O 0.17026 0.06197 0.72433 0.0
C177 C 0.16092 0.92652 0.73803 0.0
C178 C 0.12906 0.89661 0.77136 0.0
C179 C 0.15315 0.90499 0.76067 0.0
N180 N 0.14225 0.93082 0.73588 0.0
N181 N 0.12314 0.91262 0.75501 0.0
C182 C 0.18623 0.94404 0.72316 0.0
H183 H 0.18946 0.96289 0.72383 0.0
H184 H 0.19987 0.94269 0.74389 0.0
H185 H 0.18849 0.93961 0.68907 0.0
C186 C 0.145 0.00878 0.79884 0.0
N187 N 0.14421 -0.00103 0.75943 0.0
N188 N 0.14784 0.98041 0.76436 0.0
C189 C 0.15193 0.97843 0.80694 0.0
C190 C 0.14995 0.99608 0.8302 0.0
C191 C 0.13779 0.02755 0.80707 0.0
H192 H 0.12487 0.02659 0.78174 0.0
H193 H 0.15427 0.04584 0.80616 0.0
H194 H 0.12926 0.02501 0.83973 0.0
O195 O 0.10377 0.97828 0.68754 0.0
O196 O 0.10729 0.94558 0.69608 0.0
H197 H 0.14065 0.942 0.82663 0.0
H198 H 0.16521 0.96489 0.85874 0.0
C199 C 0.15754 0.95994 0.82534 0.0
H200 H 0.17098 0.95859 0.80428 0.0
H201 H 0.10635 0.91172 0.75871 0.0
O202 O 0.13391 0.03441 0.69767 0.0
C203 C 0.09465 0.95538 0.68622 0.0
Co204 Co 0.80224 0.33959 0.62006 0.0
Co205 Co 0.85429 0.38469 0.60724 0.0
C206 C 0.84475 0.34867 0.6771 0.0
O207 O 0.82268 0.33644 0.66485 0.0
O208 O 0.85973 0.36831 0.65782 0.0
C209 C 0.76262 0.28848 0.61607 0.0
O210 O 0.77794 0.28238 0.59959 0.0
C211 C 0.90679 0.416 0.58613 0.0
C212 C 0.90567 0.44654 0.5537 0.0
C213 C 0.92112 0.4377 0.56374 0.0
N214 N 0.88388 0.41202 0.58779 0.0
N215 N 0.88349 0.43056 0.56903 0.0
C216 C 0.91456 0.39949 0.60631 0.0
H217 H 0.90354 0.39059 0.63572 0.0
H218 H 0.91166 0.38508 0.58262 0.0
H219 H 0.93406 0.40969 0.61566 0.0
C220 C 0.80744 0.33519 0.52452 0.0
N221 N 0.81644 0.34482 0.56403 0.0
N222 N 0.83891 0.36294 0.55939 0.0
C223 C 0.84514 0.3648 0.51691 0.0
C224 C 0.82537 0.34754 0.49343 0.0
C225 C 0.78127 0.31712 0.51589 0.0
H226 H 0.76945 0.31877 0.54068 0.0
H227 H 0.77868 0.29853 0.51744 0.0
H228 H 0.77575 0.31978 0.4829 0.0
O229 O 0.79726 0.3668 0.6344 0.0
O230 O 0.83392 0.39891 0.62568 0.0
H231 H 0.87084 0.40109 0.49748 0.0
H232 H 0.87207 0.37798 0.46532 0.0
C233 C 0.86943 0.38299 0.49873 0.0
H234 H 0.88403 0.38401 0.51992 0.0
H235 H 0.86785 0.43191 0.56543 0.0
O236 O 0.76959 0.31055 0.62456 0.0
C237 C 0.81148 0.38965 0.63517 0.0
Co238 Co 0.67281 0.47165 0.60682 0.0
Co239 Co 0.62493 0.47358 0.5906 0.0
C240 C 0.65451 0.49471 0.67072 0.0
O241 O 0.66963 0.48841 0.65778 0.0
O242 O 0.63582 0.49015 0.64813 0.0
C243 C 0.715 0.47352 0.64473 0.0
O244 O 0.70576 0.47597 0.68146 0.0
C245 C 0.59228 0.493 0.56954 0.0
C246 C 0.56441 0.46262 0.5304 0.0
C247 C 0.57154 0.486 0.54426 0.0
N248 N 0.59737 0.47483 0.56923 0.0
N249 N 0.58041 0.45661 0.54641 0.0
C250 C 0.6069 0.51621 0.5942 0.0
H251 H 0.61551 0.51318 0.62309 0.0
H252 H 0.62159 0.5297 0.57286 0.0
H253 H 0.59526 0.52367 0.60509 0.0
C254 C 0.68473 0.49426 0.52024 0.0
N255 N 0.67032 0.48633 0.55566 0.0
N256 N 0.65051 0.48757 0.54854 0.0
C257 C 0.65186 0.49654 0.50808 0.0
C258 C 0.67359 0.50116 0.4891 0.0
C259 C 0.70731 0.49263 0.51469 0.0
H260 H 0.72037 0.50309 0.54103 0.0
H261 H 0.71601 0.49982 0.48251 0.0
H262 H 0.70268 0.47338 0.51788 0.0
O263 O 0.6475 0.43716 0.60803 0.0
O264 O 0.61359 0.43841 0.59755 0.0
H265 H 0.61534 0.47948 0.48416 0.0
H266 H 0.63669 0.50521 0.45207 0.0
C267 C 0.63159 0.49788 0.4857 0.0
H268 H 0.62692 0.50984 0.50457 0.0
H269 H 0.58023 0.44034 0.5405 0.0
O270 O 0.70423 0.47226 0.60903 0.0
C271 C 0.6245 0.42644 0.60394 0.0
Co272 Co 0.53754 0.19981 0.6081 0.0
Co273 Co 0.53361 0.14888 0.61372 0.0
C274 C 0.50771 0.16436 0.67679 0.0
O275 O 0.51628 0.185 0.65856 0.0
O276 O 0.51298 0.14866 0.66293 0.0
C277 C 0.54299 0.24506 0.62959 0.0
O278 O 0.54207 0.23636 0.66891 0.0
C279 C 0.50711 0.09711 0.59628 0.0
C280 C 0.53655 0.08813 0.594 0.0
C281 C 0.51186 0.07855 0.58653 0.0
N282 N 0.52812 0.11686 0.60755 0.0
N283 N 0.54557 0.11126 0.60716 0.0
C284 C 0.48312 0.09635 0.59511 0.0
H285 H 0.48161 0.1049 0.56462 0.0
H286 H 0.46778 0.07736 0.59679 0.0
H287 H 0.4819 0.10692 0.62278 0.0
C288 C 0.52035 0.18356 0.51907 0.0
N289 N 0.52538 0.1793 0.55961 0.0
N290 N 0.52592 0.15885 0.56015 0.0
C291 C 0.52249 0.1501 0.51908 0.0
C292 C 0.51824 0.16514 0.49223 0.0
C293 C 0.52094 0.20647 0.50544 0.0
H294 H 0.53999 0.22175 0.50678 0.0
H295 H 0.51 0.21055 0.52859 0.0
H296 H 0.51387 0.20508 0.47181 0.0
O297 O 0.57109 0.20656 0.61956 0.0
O298 O 0.56856 0.17055 0.62619 0.0
H299 H 0.54012 0.12879 0.52543 0.0
H300 H 0.53276 0.13236 0.4701 0.0
C301 C 0.52647 0.12985 0.50446 0.0
H302 H 0.50908 0.11247 0.50623 0.0
H303 H 0.56384 0.12358 0.6136 0.0
O304 O 0.54049 0.23181 0.59675 0.0
C305 C 0.58102 0.19365 0.62603 0.0
Co306 Co 0.6761 0.47654 0.04778 0.0
Co307 Co 0.72182 0.52838 0.04201 0.0
C308 C 0.68011 0.51185 0.97981 0.0
O309 O 0.66873 0.49114 -0.00196 0.0
O310 O 0.70095 0.52801 0.99331 0.0
C311 C 0.63798 0.43087 0.02504 0.0
O312 O 0.64658 0.43992 0.98623 0.0
C313 C 0.7462 0.58052 0.05624 0.0
C314 C 0.78458 0.58987 0.063 0.0
C315 C 0.76918 0.59938 0.06692 0.0
N316 N 0.74788 0.56067 0.04792 0.0
N317 N 0.77094 0.5665 0.05087 0.0
C318 C 0.72286 0.58105 0.05399 0.0
H319 H 0.71091 0.57065 0.08167 0.0
H320 H 0.72622 0.59995 0.05461 0.0
H321 H 0.71305 0.57204 0.02356 0.0
C322 C 0.67549 0.49159 0.1378 0.0
N323 N 0.68423 0.49659 0.09687 0.0
N324 N 0.70436 0.51786 0.0959 0.0
C325 C 0.70953 0.52674 0.1369 0.0
C326 C 0.69121 0.51055 0.1645 0.0
C327 C 0.65456 0.46759 0.15158 0.0
H328 H 0.65919 0.45316 0.14546 0.0
H329 H 0.63839 0.46342 0.13146 0.0
H330 H 0.65008 0.46735 0.18663 0.0
O331 O 0.70342 0.47089 0.03521 0.0
O332 O 0.73607 0.50753 0.02879 0.0
H333 H 0.74825 0.55013 0.13266 0.0
H334 H 0.73576 0.55002 0.18567 0.0
C335 C 0.73249 0.5492 0.15006 0.0
H336 H 0.73107 0.56531 0.14137 0.0
H337 H 0.77717 0.5542 0.04697 0.0
O338 O 0.64762 0.44408 0.05844 0.0
C339 C 0.72614 0.48447 0.02856 0.0
Co340 Co 0.5371 0.2033 0.05011 0.0
Co341 Co 0.48811 0.20318 0.06269 0.0
C342 C 0.49619 0.17967 0.98568 0.0
O343 O 0.51742 0.18586 -0.00052 0.0
O344 O 0.4822 0.18504 0.00677 0.0
C345 C 0.57817 0.20345 0.01367 0.0
O346 O 0.56753 0.20362 0.977 0.0
C347 C 0.43644 0.18391 0.08212 0.0
C348 C 0.43767 0.21501 0.11682 0.0
C349 C 0.42228 0.19113 0.10481 0.0
N350 N 0.45933 0.2027 0.08099 0.0
N351 N 0.45983 0.2214 0.10089 0.0
C352 C 0.42905 0.15888 0.0664 0.0
H353 H 0.44516 0.15645 0.06368 0.0
H354 H 0.41539 0.14499 0.08875 0.0
H355 H 0.4206 0.15626 0.03369 0.0
C356 C 0.52519 0.18199 0.13779 0.0
N357 N 0.51943 0.18982 0.10139 0.0
N358 N 0.49893 0.1899 0.10748 0.0
C359 C 0.49113 0.18229 0.14851 0.0
C360 C 0.50743 0.17695 0.16878 0.0
C361 C 0.54877 0.18239 0.14425 0.0
H362 H 0.56405 0.20129 0.14048 0.0
H363 H 0.5508 0.17118 0.11865 0.0
H364 H 0.54982 0.1754 0.17692 0.0
O365 O 0.54712 0.23801 0.04643 0.0
O366 O 0.51238 0.23799 0.05395 0.0
H367 H 0.47175 0.20039 0.16738 0.0
H368 H 0.46758 0.17634 0.20412 0.0
C369 C 0.46966 0.18203 0.1694 0.0
H370 H 0.45291 0.16909 0.15181 0.0
H371 H 0.4756 0.23812 0.10569 0.0
O372 O 0.56758 0.20214 0.04963 0.0
C373 C 0.53532 0.24933 0.0484 0.0
Co374 Co 0.80061 0.33984 0.03965 0.0
Co375 Co 0.80622 0.29435 0.05622 0.0
C376 C 0.83302 0.32854 0.98418 0.0
O377 O 0.82351 0.3413 0.99502 0.0
O378 O 0.82817 0.30928 0.0051 0.0
C379 C 0.81412 0.39142 0.03526 0.0
O380 O 0.83656 0.39753 0.04549 0.0
C381 C 0.82764 0.26431 0.08106 0.0
C382 C 0.79583 0.23282 0.11131 0.0
C383 C 0.82041 0.24271 0.10304 0.0
N384 N 0.80817 0.26722 0.07689 0.0
N385 N 0.78913 0.24811 0.09423 0.0
C386 C 0.85295 0.28298 0.06815 0.0
H387 H 0.85484 0.30131 0.06734 0.0
H388 H 0.86645 0.28282 0.09102 0.0
H389 H 0.85672 0.27865 0.03499 0.0
C390 C 0.81236 0.34724 0.13418 0.0
N391 N 0.8101 0.3358 0.096 0.0
N392 N 0.81333 0.31711 0.10265 0.0
C393 C 0.81833 0.31645 0.14525 0.0
C394 C 0.81788 0.33548 0.16651 0.0
C395 C 0.80815 0.36827 0.1398 0.0
H396 H 0.79226 0.36538 0.12007 0.0
H397 H 0.8244 0.38502 0.12803 0.0
H398 H 0.80519 0.37104 0.17447 0.0
O399 O 0.76785 0.31276 0.02738 0.0
O400 O 0.77177 0.28041 0.03798 0.0
H401 H 0.80356 0.27895 0.1614 0.0
H402 H 0.82413 0.29924 0.20181 0.0
C403 C 0.82064 0.2964 0.16627 0.0
H404 H 0.83579 0.2952 0.15081 0.0
H405 H 0.77175 0.24601 0.0961 0.0
O406 O 0.79773 0.3692 0.03312 0.0
C407 C 0.75884 0.28985 0.02793 0.0
Co408 Co 0.46978 0.67244 0.96293 0.0
Co409 Co 0.52143 0.71714 0.94586 0.0
C410 C 0.51326 0.68348 0.01908 0.0
O411 O 0.49098 0.67099 0.0081 0.0
O412 O 0.52802 0.70246 -0.00219 0.0
C413 C 0.43105 0.6211 0.96589 0.0
O414 O 0.44713 0.61484 0.95456 0.0
C415 C 0.57304 0.7469 0.92059 0.0
C416 C 0.57243 0.77777 0.88835 0.0
C417 C 0.58725 0.76813 0.89745 0.0
N418 N 0.55062 0.74395 0.92453 0.0
N419 N 0.55055 0.76273 0.90601 0.0
C420 C 0.57982 0.72851 0.93464 0.0
H421 H 0.56336 0.71026 0.93741 0.0
H422 H 0.59291 0.72793 0.91128 0.0
H423 H 0.58871 0.73376 0.9671 0.0
C424 C 0.47401 0.66443 0.8686 0.0
N425 N 0.48335 0.67586 0.90673 0.0
N426 N 0.50563 0.69397 0.90011 0.0
C427 C 0.5114 0.69409 0.85769 0.0
C428 C 0.4916 0.67543 0.83651 0.0
C429 C 0.44826 0.64451 0.86247 0.0
H430 H 0.43591 0.6477 0.88352 0.0
H431 H 0.44679 0.62698 0.87194 0.0
H432 H 0.44245 0.64304 0.82795 0.0
O433 O 0.46463 0.69989 0.97418 0.0
O434 O 0.50119 0.73166 0.96279 0.0
H435 H 0.53507 0.73109 0.83937 0.0
H436 H 0.53522 0.70957 0.80155 0.0
C437 C 0.53426 0.71332 0.83661 0.0
H438 H 0.55021 0.71443 0.85351 0.0
H439 H 0.53521 0.7647 0.90367 0.0
O440 O 0.43728 0.64337 0.96944 0.0
C441 C 0.47888 0.72273 0.97284 0.0
Co442 Co 0.3413 0.80557 0.93491 0.0
Co443 Co 0.29352 0.80762 0.91854 0.0
C444 C 0.32314 0.82881 -0.00133 0.0
O445 O 0.33823 0.82244 0.98587 0.0
O446 O 0.30458 0.82444 0.97588 0.0
C447 C 0.38447 0.809 0.97215 0.0
O448 O 0.37673 0.81397 0.00832 0.0
C449 C 0.26125 0.82734 0.89681 0.0
C450 C 0.23264 0.79651 0.85958 0.0
C451 C 0.24027 0.82019 0.87221 0.0
N452 N 0.26599 0.80893 0.89731 0.0
N453 N 0.2486 0.79046 0.87563 0.0
C454 C 0.27647 0.85093 0.92003 0.0
H455 H 0.28551 0.84829 0.94871 0.0
H456 H 0.29086 0.86395 0.89767 0.0
H457 H 0.26517 0.85877 0.93101 0.0
C458 C 0.35293 0.82734 0.84756 0.0
N459 N 0.33877 0.81998 0.88335 0.0
N460 N 0.31891 0.82112 0.87607 0.0
C461 C 0.31994 0.82936 0.8351 0.0
C462 C 0.34154 0.83367 0.81596 0.0
C463 C 0.37535 0.82543 0.84209 0.0
H464 H 0.38857 0.83605 0.86813 0.0
H465 H 0.38394 0.83227 0.8097 0.0
H466 H 0.37057 0.80616 0.84583 0.0
O467 O 0.31585 0.77114 0.93679 0.0
O468 O 0.28199 0.77246 0.92621 0.0
H469 H 0.30428 0.83687 0.77842 0.0
H470 H 0.29499 0.84261 0.83048 0.0
C471 C 0.29948 0.83024 0.81252 0.0
H472 H 0.28321 0.81183 0.81219 0.0
H473 H 0.24808 0.77397 0.87052 0.0
O474 O 0.37255 0.80581 0.93708 0.0
C475 C 0.29284 0.76047 0.93295 0.0
Co476 Co 0.20686 0.53416 0.94288 0.0
Co477 Co 0.20183 0.48276 0.94822 0.0
C478 C 0.17634 0.49867 0.01124 0.0
O479 O 0.18531 0.51941 0.99318 0.0
O480 O 0.1812 0.48272 -0.0028 0.0
C481 C 0.21115 0.57938 0.96346 0.0
O482 O 0.20865 0.57063 0.00319 0.0
C483 C 0.17473 0.43086 0.93201 0.0
C484 C 0.20398 0.42169 0.92756 0.0
C485 C 0.17917 0.41216 0.92174 0.0
N486 N 0.196 0.45064 0.94197 0.0
N487 N 0.21336 0.44493 0.94032 0.0
C488 C 0.15079 0.43021 0.9325 0.0
H489 H 0.14923 0.43964 0.90327 0.0
H490 H 0.13536 0.41124 0.93311 0.0
H491 H 0.14976 0.44006 0.96153 0.0
C492 C 0.19043 0.51866 0.85329 0.0
N493 N 0.19486 0.51394 0.89395 0.0
N494 N 0.19465 0.49312 0.89447 0.0
C495 C 0.19114 0.48443 0.85332 0.0
C496 C 0.18788 0.50009 0.82627 0.0
C497 C 0.1921 0.54211 0.83986 0.0
H498 H 0.21118 0.55704 0.84358 0.0
H499 H 0.18055 0.54605 0.86173 0.0
H500 H 0.18638 0.54164 0.8055 0.0
O501 O 0.24017 0.54042 0.95509 0.0
O502 O 0.23678 0.50403 0.96163 0.0
H503 H 0.20755 0.46199 0.85865 0.0
H504 H 0.1979 0.46392 0.80415 0.0
C505 C 0.19336 0.46303 0.83926 0.0
H506 H 0.17574 0.44622 0.8443 0.0
H507 H 0.23176 0.45723 0.94561 0.0
O508 O 0.21017 0.56628 0.93135 0.0
C509 C 0.24961 0.52711 0.96188 0.0
Co510 Co 0.34144 0.81037 0.37143 0.0
Co511 Co 0.38885 0.86096 0.36848 0.0
C512 C 0.34708 0.84767 0.30696 0.0
O513 O 0.33459 0.8268 0.32422 0.0
O514 O 0.36843 0.86253 0.32054 0.0
C515 C 0.3012 0.76562 0.34846 0.0
O516 O 0.30871 0.77474 0.30927 0.0
C517 C 0.41506 0.91271 0.38643 0.0
C518 C 0.45299 0.92045 0.39222 0.0
C519 C 0.43834 0.93071 0.39784 0.0
N520 N 0.41584 0.8926 0.37607 0.0
N521 N 0.43864 0.89747 0.37848 0.0
C522 C 0.39226 0.91428 0.38551 0.0
H523 H 0.3804 0.90399 0.41335 0.0
H524 H 0.3964 0.93343 0.38694 0.0
H525 H 0.38199 0.90576 0.3552 0.0
C526 C 0.34199 0.82373 0.46316 0.0
N527 N 0.35076 0.82923 0.42228 0.0
N528 N 0.3715 0.84994 0.42229 0.0
C529 C 0.37704 0.85786 0.46383 0.0
C530 C 0.35834 0.84169 0.49081 0.0
C531 C 0.32009 0.80016 0.47577 0.0
H532 H 0.32358 0.78505 0.4685 0.0
H533 H 0.30429 0.79734 0.45583 0.0
H534 H 0.31565 0.79958 0.51091 0.0
O535 O 0.36748 0.80336 0.35479 0.0
O536 O 0.4015 0.83911 0.3527 0.0
H537 H 0.41591 0.87999 0.45948 0.0
H538 H 0.40392 0.87905 0.51331 0.0
C539 C 0.40057 0.87935 0.47792 0.0
H540 H 0.39997 0.89613 0.47132 0.0
H541 H 0.44419 0.88475 0.3731 0.0
O542 O 0.31227 0.77844 0.38152 0.0
C543 C 0.39039 0.81608 0.34893 0.0
Co544 Co 0.20625 0.53974 0.38273 0.0
Co545 Co 0.15641 0.5376 0.39718 0.0
C546 C 0.16455 0.51398 0.32034 0.0
O547 O 0.18614 0.52113 0.33329 0.0
O548 O 0.15029 0.51888 0.34179 0.0
C549 C 0.24864 0.54364 0.34514 0.0
O550 O 0.23816 0.54514 0.3092 0.0
C551 C 0.10482 0.51758 0.41957 0.0
C552 C 0.10626 0.54882 0.45414 0.0
C553 C 0.09089 0.52477 0.44314 0.0
N554 N 0.12758 0.53654 0.41706 0.0
N555 N 0.12818 0.5553 0.43693 0.0
C556 C 0.0974 0.49249 0.40419 0.0
H557 H 0.11361 0.49037 0.39969 0.0
H558 H 0.08459 0.47874 0.42773 0.0
H559 H 0.0879 0.48934 0.37241 0.0
C560 C 0.19628 0.51935 0.4712 0.0
N561 N 0.18965 0.52656 0.43504 0.0
N562 N 0.1687 0.52561 0.44181 0.0
C563 C 0.16143 0.51784 0.483 0.0
C564 C 0.17855 0.51345 0.50259 0.0
C565 C 0.22028 0.52054 0.47678 0.0
H566 H 0.22249 0.50957 0.45093 0.0
H567 H 0.22181 0.5137 0.50931 0.0
H568 H 0.23514 0.53963 0.47277 0.0
O569 O 0.2149 0.57397 0.37744 0.0
O570 O 0.17957 0.57252 0.38632 0.0
H571 H 0.14096 0.53469 0.5025 0.0
H572 H 0.13854 0.51152 0.53971 0.0
C573 C 0.13979 0.51673 0.50482 0.0
H574 H 0.12301 0.5031 0.4881 0.0
H575 H 0.14389 0.57217 0.44076 0.0
O576 O 0.23742 0.53999 0.3812 0.0
C577 C 0.20238 0.58451 0.37937 0.0
Co578 Co 0.47281 0.6753 0.3845 0.0
Co579 Co 0.47543 0.62761 0.39394 0.0
C580 C 0.50449 0.66416 0.3264 0.0
O581 O 0.49584 0.67737 0.33928 0.0
O582 O 0.4984 0.64388 0.34469 0.0
C583 C 0.46991 0.71412 0.34826 0.0
O584 O 0.47012 0.70277 0.31258 0.0
C585 C 0.49364 0.59407 0.41308 0.0
C586 C 0.46094 0.56352 0.4432 0.0
C587 C 0.48517 0.57188 0.43375 0.0
N588 N 0.47522 0.59875 0.41083 0.0
N589 N 0.45561 0.58019 0.428 0.0
C590 C 0.51933 0.61179 0.40048 0.0
H591 H 0.52256 0.63064 0.40155 0.0
H592 H 0.53235 0.61009 0.42237 0.0
H593 H 0.52253 0.60785 0.36663 0.0
C594 C 0.48307 0.67823 0.4788 0.0
N595 N 0.48096 0.66813 0.43929 0.0
N596 N 0.48281 0.64848 0.44331 0.0
C597 C 0.48658 0.6457 0.4857 0.0
C598 C 0.4866 0.66425 0.5096 0.0
C599 C 0.47875 0.699 0.48695 0.0
H600 H 0.46177 0.69552 0.47027 0.0
H601 H 0.49397 0.71578 0.47264 0.0
H602 H 0.47727 0.70185 0.52226 0.0
O603 O 0.4396 0.65003 0.36911 0.0
O604 O 0.44159 0.6163 0.37447 0.0
H605 H 0.47206 0.60821 0.50196 0.0
H606 H 0.49624 0.62885 0.53759 0.0
C607 C 0.48971 0.62544 0.50335 0.0
H608 H 0.50317 0.62354 0.48329 0.0
H609 H 0.43888 0.57946 0.4313 0.0
O610 O 0.4721 0.70606 0.38497 0.0
C611 C 0.42966 0.62706 0.36632 0.0
C612 C 0.14692 0.09593 0.30334 0.0
C613 C 0.13216 0.07053 0.30371 0.0
C614 C 0.13671 0.11102 0.30754 0.0
C615 C 0.11118 0.1004 0.31176 0.0
C616 C 0.09632 0.07482 0.3136 0.0
C617 C 0.10699 0.06022 0.30976 0.0
C618 C 0.15313 0.13825 0.30608 0.0
C619 C 0.06897 0.06277 0.31797 0.0
C620 C 0.07787 0.13241 0.35063 0.0
C621 C 0.06853 0.13553 0.31118 0.0
C622 C 0.09341 0.12263 0.35121 0.0
C623 C 0.09952 0.11566 0.31144 0.0
C624 C 0.09159 0.12044 0.27138 0.0
C625 C 0.07628 0.13044 0.27173 0.0
C626 C 0.10189 0.11822 0.39452 0.0
C627 C 0.09771 0.11327 0.22825 0.0
H628 H 0.16641 0.10407 0.29891 0.0
H629 H 0.09541 0.04063 0.31027 0.0
H630 H 0.14984 0.14552 0.2755 0.0
H631 H 0.14899 0.14691 0.33367 0.0
H632 H 0.17269 0.14363 0.30745 0.0
H633 H 0.06013 0.04267 0.32051 0.0
H634 H 0.06413 0.06966 0.34732 0.0
H635 H 0.06135 0.0673 0.28921 0.0
H636 H 0.07222 0.13659 0.38125 0.0
H637 H 0.06935 0.13303 0.24105 0.0
H638 H 0.12147 0.12377 0.39313 0.0
H639 H 0.09162 0.09852 0.40223 0.0
H640 H 0.09902 0.12819 0.42151 0.0
H641 H 0.11747 0.11974 0.22615 0.0
H642 H 0.09246 0.12066 0.20002 0.0
H643 H 0.08796 0.09316 0.22563 0.0
C644 C 0.89196 0.9526 0.24817 0.0
C645 C 0.88555 0.9415 0.28937 0.0
C646 C 0.90186 0.97779 0.24365 0.0
C647 C 0.90531 0.99212 0.2812 0.0
C648 C 0.89762 0.98083 0.32251 0.0
C649 C 0.88786 0.95565 0.32611 0.0
C650 C 0.9098 0.98919 0.19903 0.0
C651 C 0.90084 0.99549 0.36326 0.0
C652 C 0.95755 0.05708 0.28096 0.0
C653 C 0.94553 0.07028 0.27402 0.0
C654 C 0.94464 0.03165 0.283 0.0
C655 C 0.91904 0.01905 0.27802 0.0
C656 C 0.90674 0.03218 0.27084 0.0
C657 C 0.92013 0.05767 0.26892 0.0
C658 C 0.95842 0.01828 0.29073 0.0
C659 C 0.87945 0.01931 0.26539 0.0
H660 H 0.89012 0.94177 0.21959 0.0
H661 H 0.88274 0.94717 0.35801 0.0
H662 H 0.90264 0.00164 0.19241 0.0
H663 H 0.92995 0.00021 0.19787 0.0
H664 H 0.90361 0.97537 0.17268 0.0
H665 H 0.89178 0.98377 0.39208 0.0
H666 H 0.92052 0.007 0.37053 0.0
H667 H 0.89338 0.00782 0.35832 0.0
H668 H 0.97715 0.0666 0.28488 0.0
H669 H 0.91068 0.0677 0.26343 0.0
H670 H 0.95494 0.00535 0.26366 0.0
H671 H 0.95197 0.00749 0.32127 0.0
H672 H 0.97837 0.03078 0.29331 0.0
H673 H 0.87386 0.00634 0.23777 0.0
H674 H 0.87268 0.03215 0.25931 0.0
H675 H 0.87046 0.00858 0.29515 0.0
C676 C 0.95576 0.8964 0.27967 0.0
C677 C 0.94062 0.87346 0.2981 0.0
C678 C 0.98109 0.90684 0.28017 0.0
C679 C 0.99164 0.89432 0.30064 0.0
C680 C 0.97652 0.87138 0.32023 0.0
C681 C 0.9511 0.86103 0.31817 0.0
C682 C 0.99655 0.93117 0.25824 0.0
C683 C 0.98719 0.85788 0.34344 0.0
C684 C 0.05661 0.91633 0.26481 0.0
C685 C 0.06941 0.93491 0.29502 0.0
C686 C 0.03116 0.90186 0.26752 0.0
C687 C 0.01857 0.9058 0.30194 0.0
C688 C 0.0318 0.92327 0.33446 0.0
C689 C 0.05705 0.93795 0.33012 0.0
C690 C 0.01766 0.88379 0.2317 0.0
C691 C 0.01917 0.92757 0.37232 0.0
H692 H 0.94776 0.90597 0.2636 0.0
H693 H 0.93943 0.84329 0.33248 0.0
H694 H 0.00847 0.94482 0.28266 0.0
H695 H 0.00854 0.92977 0.23343 0.0
H696 H 0.98542 0.93795 0.24202 0.0
H697 H 0.97294 0.84045 0.35775 0.0
H698 H -0.00168 0.854 0.32041 0.0
H699 H -0.00052 0.86934 0.36993 0.0
H700 H 0.06628 0.91422 0.23751 0.0
H701 H 0.06712 0.9523 0.3536 0.0
H702 H 0.00781 0.89055 0.21132 0.0
H703 H 0.00388 0.86606 0.24563 0.0
H704 H 0.03011 0.88087 0.21029 0.0
H705 H 0.00958 0.93708 0.36057 0.0
H706 H 0.0322 0.93884 0.39819 0.0
H707 H 0.00531 0.91005 0.38686 0.0
C708 C 0.1464 0.09224 0.73128 0.0
C709 C 0.14217 0.07487 0.6993 0.0
C710 C 0.13561 0.10685 0.72804 0.0
C711 C 0.12085 0.10432 0.69143 0.0
C712 C 0.11825 0.08815 0.65742 0.0
C713 C 0.12863 0.07332 0.66213 0.0
C714 C 0.13845 0.12357 0.76534 0.0
C715 C 0.10322 0.08536 0.61734 0.0
C716 C 0.06688 0.11359 0.70794 0.0
C717 C 0.0757 0.13722 0.69194 0.0
C718 C 0.08155 0.10289 0.70834 0.0
C719 C 0.10549 0.11591 0.69138 0.0
C720 C 0.11435 0.13954 0.67411 0.0
C721 C 0.09943 0.15006 0.67507 0.0
C722 C 0.0715 0.07775 0.72757 0.0
C723 C 0.13955 0.15366 0.65471 0.0
H724 H 0.15675 0.09325 0.76015 0.0
H725 H 0.12556 0.05997 0.63723 0.0
H726 H 0.14319 0.14183 0.75297 0.0
H727 H 0.12089 0.1162 0.78304 0.0
H728 H 0.15265 0.12554 0.78886 0.0
H729 H 0.10615 0.07501 0.59116 0.0
H730 H 0.08362 0.07557 0.62612 0.0
H731 H 0.10764 0.10341 0.60429 0.0
H732 H 0.04867 0.10364 0.72147 0.0
H733 H 0.10632 0.16832 0.6626 0.0
H734 H 0.08352 0.07811 0.75424 0.0
H735 H 0.07103 0.06504 0.70229 0.0
H736 H 0.05282 0.07046 0.74084 0.0
H737 H 0.15338 0.15674 0.67985 0.0
H738 H 0.14344 0.17154 0.64146 0.0
H739 H 0.14164 0.14302 0.62805 0.0
C740 C 0.93904 0.05658 0.6627 0.0
C741 C 0.95156 0.07061 0.69912 0.0
C742 C 0.92342 0.03143 0.66639 0.0
C743 C 0.92034 0.02005 0.70748 0.0
C744 C 0.93188 0.03428 0.74482 0.0
C745 C 0.94733 0.05944 0.74022 0.0
C746 C 0.91128 0.01688 0.62587 0.0
C747 C 0.92898 0.02279 0.78921 0.0
C748 C 0.86977 0.95447 0.72064 0.0
C749 C 0.88247 0.94188 0.71412 0.0
C750 C 0.88184 0.97997 0.7189 0.0
C751 C 0.90715 0.99311 0.71045 0.0
C752 C 0.92006 0.98053 0.70403 0.0
C753 C 0.90758 0.95511 0.70592 0.0
C754 C 0.86752 0.99283 0.72588 0.0
C755 C 0.9471 0.99392 0.69494 0.0
H756 H 0.94201 0.06511 0.63089 0.0
H757 H 0.95685 0.07018 0.76858 0.0
H758 H 0.91931 0.00539 0.6174 0.0
H759 H 0.89157 0.00454 0.63177 0.0
H760 H 0.91347 0.02868 0.59744 0.0
H761 H 0.93697 0.03656 0.81559 0.0
H762 H 0.90947 0.01033 0.79658 0.0
H763 H 0.93813 0.01178 0.78939 0.0
H764 H 0.85037 0.94442 0.7271 0.0
H765 H 0.9176 0.9456 0.7009 0.0
H766 H 0.86882 0.00362 0.69646 0.0
H767 H 0.87532 0.00574 0.75351 0.0
H768 H 0.848 0.97997 0.73279 0.0
H769 H 0.95098 0.00477 0.66456 0.0
H770 H 0.95449 0.98142 0.69129 0.0
H771 H 0.95696 0.00678 0.72187 0.0
C772 C 0.05395 0.95067 0.67033 0.0
C773 C 0.06843 0.93993 0.67627 0.0
C774 C 0.02867 0.93646 0.66591 0.0
C775 C 0.01756 0.91082 0.66696 0.0
C776 C 0.03212 0.89979 0.67058 0.0
C777 C 0.05742 0.91449 0.67545 0.0
C778 C 0.01377 0.94895 0.66219 0.0
C779 C 0.0209 0.87251 0.67107 0.0
C780 C 0.95302 0.88142 0.70899 0.0
C781 C 0.93982 0.87666 0.67001 0.0
C782 C 0.97829 0.89114 0.70843 0.0
C783 C 0.9906 0.89595 0.66792 0.0
C784 C 0.97715 0.88934 0.62856 0.0
C785 C 0.95188 0.87986 0.63005 0.0
C786 C 0.99198 0.89794 0.75117 0.0
C787 C 0.98961 0.89376 0.58479 0.0
H788 H 0.06224 0.97029 0.67066 0.0
H789 H 0.06848 0.90602 0.67971 0.0
H790 H 0.00182 0.94227 0.63309 0.0
H791 H 0.00184 0.9446 0.69125 0.0
H792 H 0.02531 0.96902 0.6597 0.0
H793 H 0.03482 0.86685 0.66826 0.0
H794 H 0.01076 0.86512 0.70203 0.0
H795 H 0.00767 0.86421 0.64397 0.0
H796 H 0.94383 0.87877 0.74005 0.0
H797 H 0.94176 0.87594 0.59978 0.0
H798 H 0.0028 0.91803 0.75388 0.0
H799 H 0.00489 0.89098 0.7525 0.0
H800 H 0.97958 0.89077 0.77977 0.0
H801 H -0.00082 0.91349 0.57731 0.0
H802 H 0.97646 0.88399 0.55809 0.0
H803 H 0.00347 0.88798 0.5853 0.0
C804 C 0.74224 0.46157 0.60674 0.0
C805 C 0.7352 0.46821 0.64537 0.0
C806 C 0.75814 0.45226 0.60769 0.0
C807 C 0.76741 0.44978 0.64821 0.0
C808 C 0.76202 0.45836 0.68684 0.0
C809 C 0.74586 0.4674 0.685 0.0
C810 C 0.76346 0.44334 0.56572 0.0
C811 C 0.77194 0.45645 0.73052 0.0
C812 C 0.77619 0.39521 0.6529 0.0
C813 C 0.80112 0.40559 0.64398 0.0
C814 C 0.76526 0.40959 0.65609 0.0
C815 C 0.77963 0.43506 0.6506 0.0
C816 C 0.80503 0.44586 0.644 0.0
C817 C 0.8155 0.43097 0.64057 0.0
C818 C 0.73808 0.39734 0.66323 0.0
C819 C 0.82095 0.473 0.63869 0.0
H820 H 0.73432 0.46239 0.57588 0.0
H821 H 0.74077 0.47281 0.71495 0.0
H822 H 0.78326 0.45026 0.56234 0.0
H823 H 0.75423 0.4232 0.56629 0.0
H824 H 0.75709 0.44899 0.53656 0.0
H825 H 0.76961 0.46765 0.75581 0.0
H826 H 0.76221 0.43723 0.74154 0.0
H827 H 0.79154 0.46221 0.72794 0.0
H828 H 0.76493 0.37566 0.65597 0.0
H829 H 0.83481 0.43917 0.63392 0.0
H830 H 0.7293 0.4001 0.63415 0.0
H831 H 0.73396 0.40555 0.69154 0.0
H832 H 0.72975 0.3775 0.6691 0.0
H833 H 0.81709 0.47866 0.60682 0.0
H834 H 0.84062 0.4788 0.63991 0.0
H835 H 0.81693 0.48271 0.66452 0.0
C836 C 0.62223 0.38625 0.61288 0.0
C837 C 0.61029 0.39956 0.60633 0.0
C838 C 0.6092 0.36083 0.61524 0.0
C839 C 0.58356 0.34835 0.611 0.0
C840 C 0.57134 0.36159 0.60416 0.0
C841 C 0.58485 0.38706 0.60188 0.0
C842 C 0.62291 0.34734 0.62254 0.0
C843 C 0.54401 0.34884 0.59953 0.0
C844 C 0.55596 0.28169 0.58235 0.0
C845 C 0.55002 0.27088 0.62383 0.0
C846 C 0.56582 0.30685 0.57737 0.0
C847 C 0.56971 0.32145 0.61472 0.0
C848 C 0.56243 0.31043 0.65632 0.0
C849 C 0.5527 0.28527 0.66038 0.0
C850 C 0.57331 0.31796 0.53245 0.0
C851 C 0.5661 0.32537 0.69689 0.0
H852 H 0.64186 0.39568 0.61627 0.0
H853 H 0.57546 0.39717 0.59671 0.0
H854 H 0.61672 0.33675 0.65334 0.0
H855 H 0.61904 0.33423 0.59565 0.0
H856 H 0.6429 0.35975 0.62443 0.0
H857 H 0.53731 0.36175 0.59345 0.0
H858 H 0.53807 0.33565 0.57222 0.0
H859 H 0.53525 0.33838 0.62965 0.0
H860 H 0.55383 0.27067 0.5539 0.0
H861 H 0.54793 0.27702 0.6925 0.0
H862 H 0.59346 0.3288 0.53053 0.0
H863 H 0.56625 0.3305 0.52605 0.0
H864 H 0.5667 0.30396 0.50636 0.0
H865 H 0.58586 0.3368 0.70358 0.0
H866 H 0.55724 0.31385 0.726 0.0
H867 H 0.55873 0.33778 0.69205 0.0
C868 C 0.61926 0.1939 0.64782 0.0
C869 C 0.60782 0.20582 0.62933 0.0
C870 C 0.64477 0.20505 0.64877 0.0
C871 C 0.65903 0.22832 0.62977 0.0
C872 C 0.64753 0.24036 0.61097 0.0
C873 C 0.6221 0.22909 0.61147 0.0
C874 C 0.65646 0.19201 0.67016 0.0
C875 C 0.66206 0.26505 0.5898 0.0
C876 C 0.72445 0.27256 0.65874 0.0
C877 C 0.73683 0.2703 0.62281 0.0
C878 C 0.69923 0.25764 0.66312 0.0
C879 C 0.68603 0.24059 0.62999 0.0
C880 C 0.69861 0.23749 0.59457 0.0
C881 C 0.72403 0.25223 0.5917 0.0
C882 C 0.6866 0.26106 0.70198 0.0
C883 C 0.68511 0.21986 0.55816 0.0
H884 H 0.60827 0.17592 0.66173 0.0
H885 H 0.61338 0.23828 0.59666 0.0
H886 H 0.66766 0.1889 0.64602 0.0
H887 H 0.66886 0.20343 0.69656 0.0
H888 H 0.64281 0.17421 0.68423 0.0
H889 H 0.65026 0.27148 0.5751 0.0
H890 H 0.67404 0.27859 0.61432 0.0
H891 H 0.67396 0.26442 0.56389 0.0
H892 H 0.73448 0.28644 0.68302 0.0
H893 H 0.73366 0.25065 0.56379 0.0
H894 H 0.67333 0.24323 0.71634 0.0
H895 H 0.67631 0.27006 0.69137 0.0
H896 H 0.69968 0.27241 0.72771 0.0
H897 H 0.67197 0.20172 0.57156 0.0
H898 H 0.69762 0.21785 0.53538 0.0
H899 H 0.67452 0.22638 0.53937 0.0
C900 C 0.81341 0.42872 0.05783 0.0
C901 C 0.8071 0.40994 0.02781 0.0
C902 C 0.80289 0.44361 0.05519 0.0
C903 C 0.78631 0.43989 0.02102 0.0
C904 C 0.78156 0.42221 0.98864 0.0
C905 C 0.79168 0.40713 0.9929 0.0
C906 C 0.808 0.4619 0.09087 0.0
C907 C 0.76454 0.41811 0.95104 0.0
C908 C 0.73353 0.45024 0.04369 0.0
C909 C 0.74147 0.4731 0.02476 0.0
C910 C 0.74822 0.43958 0.04337 0.0
C911 C 0.77122 0.45177 0.02257 0.0
C912 C 0.77924 0.47468 0.00269 0.0
C913 C 0.76438 0.48527 0.00456 0.0
C914 C 0.73915 0.41531 0.06564 0.0
C915 C 0.80335 0.48783 0.97918 0.0
H916 H 0.82521 0.43067 0.08499 0.0
H917 H 0.78701 0.39264 0.96953 0.0
H918 H 0.81208 0.47964 0.07685 0.0
H919 H 0.79157 0.45542 0.11169 0.0
H920 H 0.82346 0.46468 0.11187 0.0
H921 H 0.76592 0.40661 0.92518 0.0
H922 H 0.7455 0.40894 0.96311 0.0
H923 H 0.76847 0.43569 0.9364 0.0
H924 H 0.71599 0.44089 0.05988 0.0
H925 H 0.77056 0.50294 0.98987 0.0
H926 H 0.75262 0.41659 0.09016 0.0
H927 H 0.73699 0.40144 0.04134 0.0
H928 H 0.72139 0.40888 0.08229 0.0
H929 H 0.81836 0.49132 0.00189 0.0
H930 H 0.80686 0.50543 0.96515 0.0
H931 H 0.80377 0.47629 0.95242 0.0
C932 C 0.61368 0.3938 0.07094 0.0
C933 C 0.61936 0.40493 0.02973 0.0
C934 C 0.59825 0.36861 0.07513 0.0
C935 C 0.58821 0.35432 0.03722 0.0
C936 C 0.59289 0.36563 -0.00424 0.0
C937 C 0.60846 0.3908 0.99251 0.0
C938 C 0.59363 0.35718 0.1199 0.0
C939 C 0.58235 0.35101 0.95462 0.0
C940 C 0.57404 0.28889 0.03982 0.0
C941 C 0.54867 0.27619 0.04516 0.0
C942 C 0.58707 0.31432 0.03748 0.0
C943 C 0.57446 0.3274 0.04045 0.0
C944 C 0.54889 0.31477 0.04581 0.0
C945 C 0.53628 0.28928 0.04813 0.0
C946 C 0.61438 0.32717 0.03175 0.0
C947 C 0.53487 0.32816 0.04902 0.0
H948 H 0.62199 0.40462 0.09987 0.0
H949 H 0.61259 0.3993 0.96058 0.0
H950 H 0.57383 0.3451 0.12533 0.0
H951 H 0.6023 0.34577 0.12233 0.0
H952 H 0.60098 0.37098 0.14631 0.0
H953 H 0.58601 0.36274 0.92545 0.0
H954 H 0.59033 0.33917 0.94901 0.0
H955 H 0.5624 0.33898 0.95803 0.0
H956 H 0.58381 0.27898 0.03757 0.0
H957 H 0.51669 0.27965 0.05235 0.0
H958 H 0.6234 0.34004 0.05908 0.0
H959 H 0.61963 0.33797 0.00114 0.0
H960 H 0.62145 0.31433 0.03051 0.0
H961 H 0.54174 0.34105 0.07681 0.0
H962 H 0.51504 0.31565 0.05354 0.0
H963 H 0.53767 0.33903 0.01899 0.0
C964 C 0.72178 0.2486 0.01989 0.0
C965 C 0.73248 0.27401 0.01963 0.0
C966 C 0.69647 0.23356 0.01592 0.0
C967 C 0.6816 0.24423 0.01206 0.0
C968 C 0.69236 0.26982 0.01028 0.0
C969 C 0.71765 0.28437 0.01387 0.0
C970 C 0.6856 0.20632 0.01727 0.0
C971 C 0.67711 0.28192 0.00627 0.0
C972 C 0.61617 0.21234 0.9739 0.0
C973 C 0.60383 0.20923 0.0135 0.0
C974 C 0.64148 0.22207 0.97303 0.0
C975 C 0.65467 0.229 0.01265 0.0
C976 C 0.64208 0.22421 0.05287 0.0
C977 C 0.61677 0.21425 0.05281 0.0
C978 C 0.65424 0.2265 0.92955 0.0
C979 C 0.6555 0.23133 0.09586 0.0
H980 H 0.73311 0.24042 0.02409 0.0
H981 H 0.72571 0.30396 0.01346 0.0
H982 H 0.67518 0.19905 0.04799 0.0
H983 H 0.67268 0.19769 0.98985 0.0
H984 H 0.69974 0.2009 0.01554 0.0
H985 H 0.68838 0.30201 0.00374 0.0
H986 H 0.66526 0.27505 0.97705 0.0
H987 H 0.66505 0.2774 0.03518 0.0
H988 H 0.60625 0.20821 0.94338 0.0
H989 H 0.60735 0.21169 0.0836 0.0
H990 H 0.66826 0.22094 0.93068 0.0
H991 H 0.66366 0.2462 0.92188 0.0
H992 H 0.64131 0.21654 0.90267 0.0
H993 H 0.66879 0.22484 0.09768 0.0
H994 H 0.64295 0.22393 0.12422 0.0
H995 H 0.66589 0.25143 0.09853 0.0
C996 C 0.41555 0.80357 0.01315 0.0
C997 C 0.40424 0.80308 0.9735 0.0
C998 C 0.43125 0.79403 0.0162 0.0
C999 C 0.43556 0.78369 0.97878 0.0
C1000 C 0.4256 0.78476 0.93806 0.0
C1001 C 0.41014 0.79455 0.93588 0.0
C1002 C 0.44189 0.79358 0.06002 0.0
C1003 C 0.42982 0.77396 0.89735 0.0
C1004 C 0.48316 0.7642 0.97341 0.0
C1005 C 0.46875 0.73901 0.97982 0.0
C1006 C 0.47289 0.77931 0.97501 0.0
C1007 C 0.44764 0.76891 0.98296 0.0
C1008 C 0.43328 0.74372 0.99152 0.0
C1009 C 0.44402 0.72911 0.98998 0.0
C1010 C 0.4888 0.80616 0.9663 0.0
C1011 C 0.40627 0.73193 0.00025 0.0
H1012 H 0.41131 0.81039 0.0423 0.0
H1013 H 0.40171 0.79435 0.90499 0.0
H1014 H 0.43222 0.7748 0.07325 0.0
H1015 H 0.46138 0.79904 0.05677 0.0
H1016 H 0.44017 0.80576 0.08395 0.0
H1017 H 0.4229 0.77851 0.86757 0.0
H1018 H 0.44949 0.7805 0.89295 0.0
H1019 H 0.42041 0.75389 0.90063 0.0
H1020 H 0.50233 0.77205 0.96577 0.0
H1021 H 0.43275 0.70972 0.99536 0.0
H1022 H 0.48549 0.81692 0.99105 0.0
H1023 H 0.48421 0.81064 0.93396 0.0
H1024 H 0.50845 0.81186 0.96645 0.0
H1025 H 0.40279 0.74136 0.02735 0.0
H1026 H 0.398 0.71238 0.00878 0.0
H1027 H 0.39694 0.73354 0.97086 0.0
C1028 C 0.29026 0.7204 0.9457 0.0
C1029 C 0.27854 0.73363 0.93618 0.0
C1030 C 0.27715 0.69502 0.94887 0.0
C1031 C 0.25166 0.68248 0.94232 0.0
C1032 C 0.23966 0.69564 0.93255 0.0
C1033 C 0.25325 0.72109 0.92963 0.0
C1034 C 0.29061 0.68161 0.95942 0.0
C1035 C 0.2125 0.68283 0.9253 0.0
C1036 C 0.2253 0.61582 0.91529 0.0
C1037 C 0.21816 0.60512 0.95672 0.0
C1038 C 0.23513 0.64093 0.90966 0.0
C1039 C 0.23776 0.6556 0.94629 0.0
C1040 C 0.22923 0.6447 0.98767 0.0
C1041 C 0.21956 0.61957 0.9924 0.0
C1042 C 0.24396 0.6519 0.86498 0.0
C1043 C 0.23154 0.65973 0.02744 0.0
H1044 H 0.30977 0.72987 0.95083 0.0
H1045 H 0.24403 0.73115 0.92214 0.0
H1046 H 0.28342 0.67112 0.99012 0.0
H1047 H 0.28766 0.66841 0.93315 0.0
H1048 H 0.3105 0.69406 0.96322 0.0
H1049 H 0.20597 0.69569 0.91749 0.0
H1050 H 0.20741 0.66963 0.89816 0.0
H1051 H 0.20288 0.67237 0.95492 0.0
H1052 H 0.22414 0.60475 0.88748 0.0
H1053 H 0.21385 0.6114 0.02444 0.0
H1054 H 0.26413 0.66281 0.86498 0.0
H1055 H 0.23704 0.66436 0.85662 0.0
H1056 H 0.2382 0.63783 0.83916 0.0
H1057 H 0.25103 0.6712 0.0361 0.0
H1058 H 0.22172 0.64827 0.0561 0.0
H1059 H 0.22434 0.67211 0.0205 0.0
C1060 C 0.28698 0.52699 0.98824 0.0
C1061 C 0.27629 0.5388 0.96662 0.0
C1062 C 0.31242 0.53792 0.9915 0.0
C1063 C 0.32738 0.5608 0.97159 0.0
C1064 C 0.31662 0.57261 0.9493 0.0
C1065 C 0.29124 0.56162 0.9476 0.0
C1066 C 0.32327 0.52515 0.01657 0.0
C1067 C 0.33193 0.59683 0.92693 0.0
C1068 C 0.39185 0.60571 0.00492 0.0
C1069 C 0.40524 0.60279 0.97154 0.0
C1070 C 0.36655 0.59073 0.00738 0.0
C1071 C 0.35433 0.573 0.97471 0.0
C1072 C 0.36793 0.56923 0.94204 0.0
C1073 C 0.39339 0.58403 0.94121 0.0
C1074 C 0.3528 0.59488 0.04345 0.0
C1075 C 0.35553 0.55088 0.9061 0.0
H1076 H 0.27545 0.50936 0.00304 0.0
H1077 H 0.28307 0.57067 0.93036 0.0
H1078 H 0.33539 0.52186 0.99504 0.0
H1079 H 0.33461 0.53687 0.04374 0.0
H1080 H 0.30912 0.50748 0.03029 0.0
H1081 H 0.3207 0.60295 0.90905 0.0
H1082 H 0.34311 0.61087 0.95139 0.0
H1083 H 0.34463 0.59564 0.90348 0.0
H1084 H 0.40115 0.62018 0.02855 0.0
H1085 H 0.40382 0.58197 0.91521 0.0
H1086 H 0.33903 0.57732 0.05801 0.0
H1087 H 0.34296 0.60375 0.02987 0.0
H1088 H 0.36511 0.60665 0.06971 0.0
H1089 H 0.34179 0.53308 0.91982 0.0
H1090 H 0.36868 0.54828 0.88614 0.0
H1091 H 0.34578 0.55715 0.88433 0.0
C1092 C 0.46045 0.74185 0.30524 0.0
C1093 C 0.46357 0.73358 0.34591 0.0
C1094 C 0.4511 0.7577 0.30225 0.0
C1095 C 0.44463 0.76534 0.34083 0.0
C1096 C 0.44903 0.75816 0.38204 0.0
C1097 C 0.45852 0.74241 0.38409 0.0
C1098 C 0.44692 0.76518 0.25774 0.0
C1099 C 0.44242 0.76598 0.42395 0.0
C1100 C 0.43002 0.81654 0.34098 0.0
C1101 C 0.40446 0.8035 0.34158 0.0
C1102 C 0.44345 0.80443 0.33927 0.0
C1103 C 0.43101 0.77873 0.33823 0.0
C1104 C 0.40527 0.76554 0.33699 0.0
C1105 C 0.39233 0.77807 0.33858 0.0
C1106 C 0.47089 0.81909 0.3402 0.0
C1107 C 0.39132 0.73809 0.33569 0.0
H1108 H 0.46451 0.73529 0.27557 0.0
H1109 H 0.46099 0.73621 0.41565 0.0
H1110 H 0.4271 0.75609 0.25112 0.0
H1111 H 0.45405 0.78507 0.25654 0.0
H1112 H 0.45569 0.76024 0.23137 0.0
H1113 H 0.44897 0.76062 0.45324 0.0
H1114 H 0.45019 0.78597 0.42432 0.0
H1115 H 0.42234 0.75755 0.42621 0.0
H1116 H 0.43958 0.83619 0.3432 0.0
H1117 H 0.37261 0.7678 0.33875 0.0
H1118 H 0.47869 0.81327 0.31356 0.0
H1119 H 0.47762 0.81585 0.37148 0.0
H1120 H 0.4778 0.8389 0.33687 0.0
H1121 H 0.39748 0.73146 0.30771 0.0
H1122 H 0.37137 0.73062 0.33284 0.0
H1123 H 0.39494 0.73074 0.36587 0.0
C1124 C 0.27096 0.72542 0.3171 0.0
C1125 C 0.28244 0.73978 0.35382 0.0
C1126 C 0.2556 0.70023 0.321 0.0
C1127 C 0.25171 0.68918 0.36259 0.0
C1128 C 0.26216 0.70373 0.40007 0.0
C1129 C 0.27737 0.7289 0.39525 0.0
C1130 C 0.2446 0.68532 0.28032 0.0
C1131 C 0.25837 0.69259 0.44499 0.0
C1132 C 0.20159 0.6236 0.37739 0.0
C1133 C 0.21473 0.61125 0.37427 0.0
C1134 C 0.21333 0.649 0.37348 0.0
C1135 C 0.23876 0.6623 0.36636 0.0
C1136 C 0.25208 0.64995 0.36296 0.0
C1137 C 0.23992 0.6246 0.36692 0.0
C1138 C 0.19857 0.66161 0.37718 0.0
C1139 C 0.27926 0.66353 0.35538 0.0
H1140 H 0.27462 0.73372 0.28501 0.0
H1141 H 0.28606 0.73988 0.42383 0.0
H1142 H 0.25315 0.67409 0.2737 0.0
H1143 H 0.22483 0.67271 0.28496 0.0
H1144 H 0.24723 0.69685 0.25125 0.0
H1145 H 0.2657 0.70656 0.47113 0.0
H1146 H 0.23873 0.68009 0.45121 0.0
H1147 H 0.26761 0.68169 0.44705 0.0
H1148 H 0.18213 0.61345 0.3831 0.0
H1149 H 0.25025 0.61527 0.36444 0.0
H1150 H 0.20076 0.67232 0.34717 0.0
H1151 H 0.20531 0.67457 0.40487 0.0
H1152 H 0.17889 0.64861 0.38223 0.0
H1153 H 0.28358 0.6741 0.32458 0.0
H1154 H 0.28691 0.65118 0.35341 0.0
H1155 H 0.28853 0.67667 0.38223 0.0
C1156 C 0.38936 0.62399 0.3532 0.0
C1157 C 0.40334 0.61255 0.35632 0.0
C1158 C 0.36406 0.61043 0.34812 0.0
C1159 C 0.35244 0.58478 0.34569 0.0
C1160 C 0.3665 0.57315 0.34683 0.0
C1161 C 0.39181 0.58717 0.35236 0.0
C1162 C 0.34967 0.62353 0.34712 0.0
C1163 C 0.35473 0.54586 0.34369 0.0
C1164 C 0.28705 0.55356 0.38417 0.0
C1165 C 0.27453 0.55022 0.34474 0.0
C1166 C 0.31237 0.56365 0.38475 0.0
C1167 C 0.32545 0.57032 0.34492 0.0
C1168 C 0.31276 0.5654 0.30486 0.0
C1169 C 0.28741 0.55548 0.30525 0.0
C1170 C 0.32526 0.56863 0.42817 0.0
C1171 C 0.32606 0.57189 0.26172 0.0
H1172 H 0.39807 0.64358 0.35607 0.0
H1173 H 0.40248 0.57817 0.35446 0.0
H1174 H 0.3381 0.61836 0.31751 0.0
H1175 H 0.33738 0.6181 0.37585 0.0
H1176 H 0.36157 0.6436 0.34746 0.0
H1177 H 0.36837 0.53984 0.3406 0.0
H1178 H 0.3436 0.53735 0.3733 0.0
H1179 H 0.34229 0.53902 0.31522 0.0
H1180 H 0.27722 0.5494 0.41483 0.0
H1181 H 0.27784 0.55272 0.27461 0.0
H1182 H 0.33619 0.58855 0.43347 0.0
H1183 H 0.33802 0.56146 0.42843 0.0
H1184 H 0.31235 0.56042 0.45586 0.0
H1185 H 0.33617 0.59193 0.2577 0.0
H1186 H 0.31343 0.56381 0.23368 0.0
H1187 H 0.33958 0.56567 0.26077 0.0
C1188 C 0.39399 0.17153 0.16656 0.0
C1189 C 0.39759 0.17564 0.12163 0.0
C1190 C 0.3705 0.15772 0.18378 0.0
C1191 C 0.35025 0.1485 0.15532 0.0
C1192 C 0.35392 0.15229 0.10969 0.0
C1193 C 0.37771 0.16562 0.09327 0.0
C1194 C 0.36734 0.15348 0.23244 0.0
C1195 C 0.33275 0.14318 0.07848 0.0
C1196 C 0.288 0.09969 0.19459 0.0
C1197 C 0.27768 0.11364 0.20819 0.0
C1198 C 0.31185 0.11079 0.1782 0.0
C1199 C 0.32527 0.13636 0.17364 0.0
C1200 C 0.31483 0.15052 0.18655 0.0
C1201 C 0.29128 0.13901 0.20403 0.0
C1202 C 0.32258 0.09515 0.16537 0.0
C1203 C 0.32841 0.17783 0.18138 0.0
H1204 H 0.4096 0.17918 0.18818 0.0
H1205 H 0.38076 0.16894 0.05849 0.0
H1206 H 0.35831 0.16311 0.24624 0.0
H1207 H 0.35543 0.13384 0.23945 0.0
H1208 H 0.38498 0.15998 0.24946 0.0
H1209 H 0.33874 0.14675 0.04385 0.0
H1210 H 0.32042 0.12337 0.08284 0.0
H1211 H 0.322 0.15221 0.08562 0.0
H1212 H 0.2774 0.08009 0.19542 0.0
H1213 H 0.2834 0.14996 0.21407 0.0
H1214 H 0.34027 0.10156 0.1821 0.0
H1215 H 0.32619 0.09669 0.12975 0.0
H1216 H 0.31035 0.0757 0.17359 0.0
H1217 H 0.34535 0.18594 0.20101 0.0
H1218 H 0.31738 0.1861 0.19178 0.0
H1219 H 0.33379 0.18275 0.14676 0.0
C1220 C 0.83586 0.22912 0.16476 0.0
C1221 C 0.83572 0.23328 0.11996 0.0
C1222 C 0.84918 0.2188 0.18155 0.0
C1223 C 0.8619 0.21177 0.15252 0.0
C1224 C 0.86207 0.2163 0.10717 0.0
C1225 C 0.84919 0.2274 0.09145 0.0
C1226 C 0.8492 0.21495 0.2302 0.0
C1227 C 0.8749 0.20847 0.07512 0.0
C1228 C 0.90949 0.19754 0.19567 0.0
C1229 C 0.89577 0.17226 0.20132 0.0
C1230 C 0.8986 0.21077 0.1808 0.0
C1231 C 0.87368 0.19827 0.16936 0.0
C1232 C 0.85985 0.17273 0.17399 0.0
C1233 C 0.87099 0.16009 0.19038 0.0
C1234 C 0.91381 0.23808 0.177 0.0
C1235 C 0.83333 0.15867 0.1611 0.0
H1236 H 0.8255 0.23396 0.18664 0.0
H1237 H 0.84884 0.23059 0.05675 0.0
H1238 H 0.83946 0.19522 0.2376 0.0
H1239 H 0.86814 0.22261 0.24219 0.0
H1240 H 0.8403 0.22349 0.24853 0.0
H1241 H 0.8741 0.21423 0.0412 0.0
H1242 H 0.89425 0.21613 0.08445 0.0
H1243 H 0.86639 0.18838 0.07581 0.0
H1244 H 0.92886 0.2071 0.20152 0.0
H1245 H 0.86028 0.14053 0.19412 0.0
H1246 H 0.90496 0.24678 0.19488 0.0
H1247 H 0.91522 0.2436 0.14229 0.0
H1248 H 0.93248 0.24518 0.19012 0.0
H1249 H 0.82266 0.16456 0.18118 0.0
H1250 H 0.82541 0.13875 0.16518 0.0
H1251 H 0.83124 0.16248 0.12649 0.0
C1252 C 0.76095 0.62276 0.12316 0.0
C1253 C 0.77578 0.62232 0.08962 0.0
C1254 C 0.76908 0.643 0.15051 0.0
C1255 C 0.79255 0.66326 0.14394 0.0
C1256 C 0.80711 0.6634 0.10876 0.0
C1257 C 0.79862 0.64278 0.08225 0.0
C1258 C 0.75316 0.64211 0.18793 0.0
C1259 C 0.83212 0.68488 0.10037 0.0
C1260 C 0.81156 0.72412 0.19614 0.0
C1261 C 0.82652 0.72446 0.23015 0.0
C1262 C 0.7996 0.70392 0.16867 0.0
C1263 C 0.80267 0.68361 0.17555 0.0
C1264 C 0.8168 0.68338 0.21113 0.0
C1265 C 0.82878 0.70396 0.23778 0.0
C1266 C 0.78487 0.7049 0.13081 0.0
C1267 C 0.82018 0.66184 0.21987 0.0
H1268 H 0.74355 0.6068 0.12984 0.0
H1269 H 0.81013 0.64236 0.0565 0.0
H1270 H 0.76149 0.64129 0.21927 0.0
H1271 H 0.75174 0.65882 0.18856 0.0
H1272 H 0.73454 0.62608 0.18601 0.0
H1273 H 0.84018 0.68296 0.06947 0.0
H1274 H 0.83128 0.70189 0.09885 0.0
H1275 H 0.84444 0.68677 0.12767 0.0
H1276 H 0.81023 0.74012 0.18927 0.0
H1277 H 0.84051 0.70432 0.26387 0.0
H1278 H 0.7667 0.68825 0.12991 0.0
H1279 H 0.79422 0.70568 0.09972 0.0
H1280 H 0.78238 0.721 0.13244 0.0
H1281 H 0.80227 0.64487 0.22117 0.0
H1282 H 0.82996 0.66372 0.25097 0.0
H1283 H 0.83072 0.65989 0.19283 0.0
C1284 C 0.1349 0.30706 0.75111 0.0
C1285 C 0.11203 0.2867 0.75878 0.0
C1286 C 0.14364 0.32773 0.77755 0.0
C1287 C 0.12928 0.32775 0.81295 0.0
C1288 C 0.10582 0.30756 0.81993 0.0
C1289 C 0.09745 0.28727 0.79266 0.0
C1290 C 0.16864 0.34913 0.76875 0.0
C1291 C 0.09011 0.30684 0.85761 0.0
C1292 C 0.1657 0.36887 0.90624 0.0
C1293 C 0.16328 0.38928 0.8985 0.0
C1294 C 0.15379 0.34822 0.87974 0.0
C1295 C 0.13954 0.34827 0.8442 0.0
C1296 C 0.13636 0.3685 0.83712 0.0
C1297 C 0.14827 0.38878 0.86444 0.0
C1298 C 0.15728 0.32677 0.88866 0.0
C1299 C 0.1215 0.36929 0.7993 0.0
H1300 H 0.14624 0.30654 0.72511 0.0
H1301 H 0.08003 0.27138 0.79958 0.0
H1302 H 0.16783 0.36616 0.76699 0.0
H1303 H 0.18104 0.35114 0.79597 0.0
H1304 H 0.17657 0.34704 0.73784 0.0
H1305 H 0.07152 0.29073 0.85623 0.0
H1306 H 0.0987 0.30631 0.88883 0.0
H1307 H 0.08859 0.32349 0.85797 0.0
H1308 H 0.17744 0.36933 0.93239 0.0
H1309 H 0.14682 0.4047 0.85744 0.0
H1310 H 0.16769 0.3247 0.86151 0.0
H1311 H 0.1394 0.30978 0.89037 0.0
H1312 H 0.16725 0.32883 0.91962 0.0
H1313 H 0.13067 0.36976 0.76815 0.0
H1314 H 0.11911 0.38545 0.80056 0.0
H1315 H 0.10329 0.35268 0.79887 0.0
C1316 C 0.63145 0.78336 0.9079 0.0
C1317 C 0.61185 0.77731 0.87991 0.0
C1318 C 0.6553 0.79444 0.89153 0.0
C1319 C 0.6593 0.79884 0.84608 0.0
C1320 C 0.6393 0.79156 0.81757 0.0
C1321 C 0.61579 0.78123 0.83499 0.0
C1322 C 0.67624 0.8025 0.92302 0.0
C1323 C 0.64278 0.79528 0.76883 0.0
C1324 C 0.71933 0.85091 0.80622 0.0
C1325 C 0.73203 0.83897 0.7943 0.0
C1326 C 0.6958 0.83808 0.8237 0.0
C1327 C 0.68444 0.81257 0.82855 0.0
C1328 C 0.69699 0.80031 0.81632 0.0
C1329 C 0.72085 0.81373 0.80026 0.0
C1330 C 0.6832 0.85188 0.83733 0.0
C1331 C 0.68526 0.77305 0.82041 0.0
H1332 H 0.62821 0.78037 0.9427 0.0
H1333 H 0.60043 0.77627 0.81349 0.0
H1334 H 0.68814 0.79519 0.91303 0.0
H1335 H 0.68751 0.82262 0.92248 0.0
H1336 H 0.66995 0.79656 0.95701 0.0
H1337 H 0.6252 0.78648 0.75096 0.0
H1338 H 0.65247 0.815 0.76124 0.0
H1339 H 0.65418 0.78784 0.7565 0.0
H1340 H 0.72789 0.87044 0.80225 0.0
H1341 H 0.73079 0.80438 0.79362 0.0
H1342 H 0.6776 0.84803 0.87208 0.0
H1343 H 0.66645 0.84582 0.81773 0.0
H1344 H 0.69499 0.87183 0.83317 0.0
H1345 H 0.68136 0.76761 0.85518 0.0
H1346 H 0.69696 0.76614 0.80712 0.0
H1347 H 0.66762 0.76407 0.80281 0.0
C1348 C 0.24205 0.8595 0.85182 0.0
C1349 C 0.22857 0.83424 0.85798 0.0
C1350 C 0.2309 0.87242 0.83666 0.0
C1351 C 0.20594 0.85963 0.82554 0.0
C1352 C 0.19235 0.8341 0.8306 0.0
C1353 C 0.20376 0.82177 0.84719 0.0
C1354 C 0.24587 0.89972 0.83232 0.0
C1355 C 0.16579 0.81976 0.8181 0.0
C1356 C 0.16816 0.89055 0.82177 0.0
C1357 C 0.16789 0.89477 0.77702 0.0
C1358 C 0.18134 0.88 0.83821 0.0
C1359 C 0.19384 0.87286 0.80888 0.0
C1360 C 0.19376 0.87731 0.76355 0.0
C1361 C 0.181 0.88859 0.74817 0.0
C1362 C 0.1816 0.8762 0.88683 0.0
C1363 C 0.20639 0.86937 0.73123 0.0
H1364 H 0.26143 0.86925 0.85757 0.0
H1365 H 0.19324 0.80222 0.85132 0.0
H1366 H 0.24683 0.90505 0.79758 0.0
H1367 H 0.23707 0.90837 0.85053 0.0
H1368 H 0.2647 0.90706 0.84477 0.0
H1369 H 0.15808 0.79988 0.82242 0.0
H1370 H 0.15507 0.82556 0.83828 0.0
H1371 H 0.16347 0.82338 0.7835 0.0
H1372 H 0.15812 0.89563 0.84395 0.0
H1373 H 0.18056 0.89183 0.71352 0.0
H1374 H 0.20062 0.88415 0.89857 0.0
H1375 H 0.17218 0.85647 0.89426 0.0
H1376 H 0.17252 0.88449 0.90536 0.0
H1377 H 0.22585 0.87728 0.73993 0.0
H1378 H 0.20516 0.87482 0.69727 0.0
H1379 H 0.19806 0.84931 0.73241 0.0
C1380 C 0.95996 0.47419 0.5418 0.0
C1381 C 0.94674 0.44902 0.54891 0.0
C1382 C 0.98347 0.48539 0.52419 0.0
C1383 C 0.99426 0.47114 0.51417 0.0
C1384 C 0.98122 0.44579 0.52177 0.0
C1385 C 0.95741 0.43494 0.53819 0.0
C1386 C 0.99663 0.51244 0.5157 0.0
C1387 C 0.99233 0.43009 0.51208 0.0
C1388 C 0.04635 0.49796 0.43279 0.0
C1389 C 0.06634 0.5094 0.46075 0.0
C1390 C 0.02265 0.48498 0.44974 0.0
C1391 C 0.01918 0.48294 0.49559 0.0
C1392 C 0.03955 0.49356 0.5238 0.0
C1393 C 0.06293 0.50702 0.50597 0.0
C1394 C 0.00133 0.47438 0.41869 0.0
C1395 C 0.03662 0.49117 0.57278 0.0
H1396 H 0.95176 0.48517 0.54953 0.0
H1397 H 0.94704 0.41539 0.54125 0.0
H1398 H 0.01367 0.52153 0.53503 0.0
H1399 H 0.00181 0.5161 0.48075 0.0
H1400 H 0.98538 0.52078 0.52416 0.0
H1401 H 0.98042 0.41096 0.52266 0.0
H1402 H 0.99573 0.43026 0.47654 0.0
H1403 H 0.01016 0.43746 0.52877 0.0
H1404 H 0.04923 0.49999 0.39779 0.0
H1405 H 0.07861 0.51577 0.52736 0.0
H1406 H 0.99037 0.48339 0.4237 0.0
H1407 H 0.98927 0.45474 0.42536 0.0
H1408 H 0.00719 0.47668 0.38399 0.0
H1409 H 0.0274 0.50105 0.58448 0.0
H1410 H 0.05437 0.49856 0.58986 0.0
H1411 H 0.02498 0.4718 0.58208 0.0
C1412 C 0.49889 0.55597 0.49457 0.0
C1413 C 0.49943 0.5611 0.45004 0.0
C1414 C 0.51182 0.54515 0.51096 0.0
C1415 C 0.52493 0.53867 0.48176 0.0
C1416 C 0.52559 0.54396 0.43666 0.0
C1417 C 0.51306 0.5555 0.42138 0.0
C1418 C 0.51128 0.54045 0.55939 0.0
C1419 C 0.53886 0.53674 0.40443 0.0
C1420 C 0.57302 0.52537 0.5256 0.0
C1421 C 0.55973 0.50001 0.53036 0.0
C1422 C 0.56182 0.53828 0.51066 0.0
C1423 C 0.53703 0.52542 0.49829 0.0
C1424 C 0.52366 0.49981 0.50193 0.0
C1425 C 0.5351 0.48746 0.51836 0.0
C1426 C 0.57653 0.56566 0.50787 0.0
C1427 C 0.49733 0.4854 0.48805 0.0
H1428 H 0.48846 0.56062 0.51663 0.0
H1429 H 0.51327 0.55947 0.38689 0.0
H1430 H 0.50202 0.52061 0.56564 0.0
H1431 H 0.53011 0.54844 0.57214 0.0
H1432 H 0.50165 0.54815 0.57794 0.0
H1433 H 0.53796 0.54257 0.37061 0.0
H1434 H 0.55824 0.54479 0.41388 0.0
H1435 H 0.53081 0.5167 0.40479 0.0
H1436 H 0.5923 0.53523 0.53227 0.0
H1437 H 0.52475 0.46784 0.52138 0.0
H1438 H 0.56724 0.5738 0.52609 0.0
H1439 H 0.57801 0.57155 0.47338 0.0
H1440 H 0.59518 0.573 0.52126 0.0
H1441 H 0.48614 0.49067 0.50806 0.0
H1442 H 0.4898 0.46549 0.49138 0.0
H1443 H 0.4955 0.48954 0.45351 0.0
C1444 C 0.46885 0.9736 0.41487 0.0
C1445 C 0.44575 0.95344 0.42192 0.0
C1446 C 0.47772 0.99414 0.44172 0.0
C1447 C 0.46327 0.99421 0.47691 0.0
C1448 C 0.43968 0.97415 0.4835 0.0
C1449 C 0.43119 0.95399 0.45585 0.0
C1450 C 0.50287 0.01539 0.43337 0.0
C1451 C 0.42389 0.97349 0.52099 0.0
C1452 C 0.49893 0.03539 0.57077 0.0
C1453 C 0.49645 0.05573 0.5627 0.0
C1454 C 0.48737 0.01477 0.54408 0.0
C1455 C 0.4734 0.01479 0.50805 0.0
C1456 C 0.47022 0.03499 0.50052 0.0
C1457 C 0.48177 0.05523 0.52803 0.0
C1458 C 0.49086 0.99337 0.55346 0.0
C1459 C 0.45567 0.03575 0.46215 0.0
H1460 H 0.48018 0.97307 0.38886 0.0
H1461 H 0.41362 0.93823 0.46235 0.0
H1462 H 0.50221 0.03248 0.43114 0.0
H1463 H 0.51501 0.01738 0.46104 0.0
H1464 H 0.51102 0.01317 0.40285 0.0
H1465 H 0.40536 0.95728 0.51975 0.0
H1466 H 0.4325 0.97323 0.55236 0.0
H1467 H 0.4222 0.99005 0.52085 0.0
H1468 H 0.51042 0.03585 0.59739 0.0
H1469 H 0.48028 0.07109 0.52076 0.0
H1470 H 0.5014 0.99127 0.52662 0.0
H1471 H 0.47298 0.97637 0.55501 0.0
H1472 H 0.50066 0.99548 0.58464 0.0
H1473 H 0.46494 0.03594 0.43131 0.0
H1474 H 0.45346 0.05203 0.46276 0.0
H1475 H 0.43737 0.01926 0.46169 0.0
C1476 C 0.16607 0.99124 0.40973 0.0
C1477 C 0.18402 0.00887 0.38256 0.0
C1478 C 0.17096 0.98899 0.45341 0.0
C1479 C 0.19469 0.00416 0.47007 0.0
C1480 C 0.21365 0.01971 0.44138 0.0
C1481 C 0.20801 0.02225 0.39797 0.0
C1482 C 0.15001 0.97211 0.48261 0.0
C1483 C 0.23955 0.03496 0.45683 0.0
C1484 C 0.18676 0.02143 0.58287 0.0
C1485 C 0.18401 0.0013 0.6066 0.0
C1486 C 0.19319 0.02428 0.53872 0.0
C1487 C 0.19771 0.00697 0.51818 0.0
C1488 C 0.19896 0.98905 0.54373 0.0
C1489 C 0.19164 0.98609 0.5877 0.0
C1490 C 0.19212 0.04406 0.51306 0.0
C1491 C 0.20584 0.97161 0.52381 0.0
H1492 H 0.14757 0.98041 0.39796 0.0
H1493 H 0.22218 0.03548 0.37688 0.0
H1494 H 0.15439 0.9595 0.50006 0.0
H1495 H 0.14677 0.98285 0.50754 0.0
H1496 H 0.13285 0.96113 0.46414 0.0
H1497 H 0.25245 0.03664 0.43071 0.0
H1498 H 0.24321 0.05356 0.46442 0.0
H1499 H 0.24323 0.02725 0.48646 0.0
H1500 H 0.18175 0.03383 0.59758 0.0
H1501 H 0.19039 0.97094 0.60619 0.0
H1502 H 0.17663 0.03579 0.48982 0.0
H1503 H 0.209 0.05459 0.49376 0.0
H1504 H 0.18976 0.05686 0.53443 0.0
H1505 H 0.18935 0.95566 0.5105 0.0
H1506 H 0.21384 0.96492 0.54868 0.0
H1507 H 0.21904 0.9803 0.4967 0.0
C1508 C 0.01709 0.20503 0.58777 0.0
C1509 C 0.00572 0.18192 0.60719 0.0
C1510 C 0.01162 0.20806 0.54464 0.0
C1511 C 0.99515 0.1874 0.52038 0.0
C1512 C 0.98146 0.16471 0.54163 0.0
C1513 C 0.98674 0.16232 0.58502 0.0
C1514 C 0.02519 0.23288 0.52384 0.0
C1515 C 0.9634 0.14223 0.51716 0.0
C1516 C 0.97769 0.18237 0.4011 0.0
C1517 C 0.99407 0.17602 0.38299 0.0
C1518 C 0.97913 0.1886 0.44546 0.0
C1519 C 0.99688 0.18768 0.47214 0.0
C1520 C 0.01455 0.1831 0.45314 0.0
C1521 C 0.01312 0.17773 0.40875 0.0
C1522 C 0.96075 0.19467 0.46385 0.0
C1523 C 0.03381 0.18179 0.48024 0.0
H1524 H 0.0312 0.22047 0.60526 0.0
H1525 H 0.97738 0.14451 0.60017 0.0
H1526 H 0.04127 0.23476 0.50601 0.0
H1527 H 0.01348 0.23546 0.50001 0.0
H1528 H 0.03172 0.24749 0.54876 0.0
H1529 H 0.95261 0.12662 0.53936 0.0
H1530 H 0.95068 0.14589 0.49825 0.0
H1531 H 0.97326 0.13694 0.49365 0.0
H1532 H 0.9632 0.18163 0.3812 0.0
H1533 H 0.02622 0.17338 0.39493 0.0
H1534 H 0.96764 0.20618 0.49346 0.0
H1535 H 0.94392 0.17761 0.47266 0.0
H1536 H 0.95575 0.20422 0.43912 0.0
H1537 H 0.04473 0.19897 0.49844 0.0
H1538 H 0.04641 0.17846 0.46008 0.0
H1539 H 0.02501 0.16689 0.50455 0.0
C1540 C 0.80058 0.83034 0.58791 0.0
C1541 C 0.8236 0.83659 0.60454 0.0
C1542 C 0.79503 0.82419 0.54368 0.0
C1543 C 0.81318 0.82506 0.51561 0.0
C1544 C 0.83576 0.82963 0.53305 0.0
C1545 C 0.84049 0.83495 0.57733 0.0
C1546 C 0.77028 0.8182 0.52698 0.0
C1547 C 0.85581 0.83086 0.50444 0.0
C1548 C 0.81412 0.80696 0.3999 0.0
C1549 C 0.8258 0.82998 0.38013 0.0
C1550 C 0.80613 0.80419 0.44335 0.0
C1551 C 0.81077 0.82503 0.4675 0.0
C1552 C 0.81952 0.84759 0.44592 0.0
C1553 C 0.8267 0.84973 0.40223 0.0
C1554 C 0.79511 0.77951 0.46458 0.0
C1555 C 0.82431 0.87022 0.47027 0.0
H1556 H 0.78721 0.83107 0.60892 0.0
H1557 H 0.85815 0.83925 0.58997 0.0
H1558 H 0.77039 0.83529 0.519 0.0
H1559 H 0.76512 0.80675 0.4972 0.0
H1560 H 0.75616 0.80859 0.5524 0.0
H1561 H 0.87214 0.83433 0.52345 0.0
H1562 H 0.84922 0.81359 0.48637 0.0
H1563 H 0.8614 0.84563 0.48 0.0
H1564 H 0.81256 0.7914 0.38248 0.0
H1565 H 0.83508 0.86746 0.38682 0.0
H1566 H 0.78117 0.77711 0.48905 0.0
H1567 H 0.80953 0.77771 0.48175 0.0
H1568 H 0.78666 0.76474 0.43999 0.0
H1569 H 0.80831 0.86663 0.49032 0.0
H1570 H 0.8286 0.88562 0.44787 0.0
H1571 H 0.83996 0.87578 0.4927 0.0
C1572 C 0.84851 0.35352 0.91684 0.0
C1573 C 0.84691 0.33456 0.94275 0.0
C1574 C 0.85532 0.35572 0.87297 0.0
C1575 C 0.86152 0.33902 0.85486 0.0
C1576 C 0.86344 0.32215 0.88244 0.0
C1577 C 0.85567 0.31979 0.92609 0.0
C1578 C 0.85315 0.3742 0.84505 0.0
C1579 C 0.87181 0.30529 0.86532 0.0
C1580 C 0.83355 0.32285 0.74366 0.0
C1581 C 0.85168 0.34167 0.71853 0.0
C1582 C 0.83743 0.32008 0.78767 0.0
C1583 C 0.86031 0.33603 0.80669 0.0
C1584 C 0.87978 0.35255 0.77987 0.0
C1585 C 0.87514 0.35553 0.73608 0.0
C1586 C 0.81611 0.30195 0.81478 0.0
C1587 C 0.90496 0.3685 0.79803 0.0
H1588 H 0.84248 0.36553 0.92971 0.0
H1589 H 0.85522 0.30552 0.94623 0.0
H1590 H 0.87027 0.38552 0.82682 0.0
H1591 H 0.83837 0.36472 0.82076 0.0
H1592 H 0.84906 0.38644 0.86463 0.0
H1593 H 0.88154 0.30119 0.89113 0.0
H1594 H 0.85577 0.28784 0.85544 0.0
H1595 H 0.88398 0.31313 0.83662 0.0
H1596 H 0.81554 0.31153 0.7301 0.0
H1597 H 0.88952 0.36964 0.71655 0.0
H1598 H 0.81091 0.31175 0.83858 0.0
H1599 H 0.82114 0.2902 0.83354 0.0
H1600 H 0.79993 0.29013 0.79451 0.0
H1601 H 0.90685 0.38601 0.80892 0.0
H1602 H 0.91899 0.37263 0.77259 0.0
H1603 H 0.90857 0.35984 0.82635 0.0
C1604 C 0.65077 0.49598 0.91811 0.0
C1605 C 0.67027 0.51582 0.93884 0.0
C1606 C 0.64526 0.49748 0.87444 0.0
C1607 C 0.65929 0.51951 0.8514 0.0
C1608 C 0.67633 0.54057 0.87411 0.0
C1609 C 0.68197 0.53842 0.9176 0.0
C1610 C 0.62657 0.47464 0.85168 0.0
C1611 C 0.69033 0.56477 0.85129 0.0
C1612 C 0.67653 0.50681 0.74134 0.0
C1613 C 0.65793 0.50547 0.71473 0.0
C1614 C 0.67796 0.51285 0.7854 0.0
C1615 C 0.66077 0.51848 0.80324 0.0
C1616 C 0.64338 0.51951 0.77572 0.0
C1617 C 0.64191 0.51262 0.73173 0.0
C1618 C 0.69681 0.51133 0.81344 0.0
C1619 C 0.62547 0.52656 0.79282 0.0
H1620 H 0.64112 0.47859 0.93466 0.0
H1621 H 0.69651 0.55409 0.93392 0.0
H1622 H 0.61418 0.47834 0.83181 0.0
H1623 H 0.63593 0.46821 0.82926 0.0
H1624 H 0.61548 0.45979 0.8751 0.0
H1625 H 0.69757 0.58004 0.87494 0.0
H1626 H 0.70596 0.56559 0.83345 0.0
H1627 H 0.67867 0.5672 0.82714 0.0
H1628 H 0.68931 0.5018 0.72843 0.0
H1629 H 0.62775 0.51211 0.71118 0.0
H1630 H 0.68764 0.49705 0.83873 0.0
H1631 H 0.70823 0.5288 0.83049 0.0
H1632 H 0.70898 0.50698 0.79416 0.0
H1633 H 0.60835 0.50993 0.80214 0.0
H1634 H 0.62089 0.53601 0.76717 0.0
H1635 H 0.63256 0.53853 0.82185 0.0
C1636 C 0.48292 0.13706 0.73827 0.0
C1637 C 0.49394 0.15992 0.71794 0.0
C1638 C 0.47469 0.13433 0.78158 0.0
C1639 C 0.47846 0.15507 0.80511 0.0
C1640 C 0.48681 0.17744 0.78304 0.0
C1641 C 0.49419 0.1795 0.7395 0.0
C1642 C 0.46411 0.10979 0.80327 0.0
C1643 C 0.4908 0.19999 0.8067 0.0
C1644 C 0.46622 0.1613 0.92401 0.0
C1645 C 0.48915 0.16836 0.94202 0.0
C1646 C 0.46134 0.15438 0.87994 0.0
C1647 C 0.48009 0.15538 0.85338 0.0
C1648 C 0.50257 0.1607 0.87236 0.0
C1649 C 0.50662 0.1667 0.91651 0.0
C1650 C 0.43665 0.1475 0.86166 0.0
C1651 C 0.52327 0.1622 0.84537 0.0
H1652 H 0.48188 0.12161 0.72129 0.0
H1653 H 0.50207 0.1971 0.72368 0.0
H1654 H 0.47865 0.10853 0.82114 0.0
H1655 H 0.44983 0.10711 0.82722 0.0
H1656 H 0.45617 0.09488 0.77889 0.0
H1657 H 0.49531 0.21533 0.78399 0.0
H1658 H 0.47433 0.19618 0.82548 0.0
H1659 H 0.50601 0.20579 0.83024 0.0
H1660 H 0.4524 0.162 0.94375 0.0
H1661 H 0.52422 0.17163 0.93025 0.0
H1662 H 0.43218 0.13569 0.83247 0.0
H1663 H 0.43635 0.16421 0.85222 0.0
H1664 H 0.42227 0.13794 0.88668 0.0
H1665 H 0.51732 0.14487 0.82789 0.0
H1666 H 0.5394 0.16616 0.86551 0.0
H1667 H 0.52897 0.17675 0.82046 0.0
C1668 C 0.52029 0.69025 0.26034 0.0
C1669 C 0.51863 0.67092 0.28521 0.0
C1670 C 0.52697 0.69291 0.21634 0.0
C1671 C 0.53295 0.6763 0.19711 0.0
C1672 C 0.53506 0.65922 0.22376 0.0
C1673 C 0.52739 0.65637 0.26751 0.0
C1674 C 0.52474 0.71167 0.18943 0.0
C1675 C 0.54335 0.64256 0.20534 0.0
C1676 C 0.50304 0.65918 0.08737 0.0
C1677 C 0.52078 0.67752 0.06093 0.0
C1678 C 0.50759 0.6571 0.1313 0.0
C1679 C 0.53081 0.67322 0.14897 0.0
C1680 C 0.54981 0.68945 0.12101 0.0
C1681 C 0.54447 0.69174 0.07728 0.0
C1682 C 0.48666 0.63939 0.15967 0.0
C1683 C 0.57528 0.70569 0.13767 0.0
H1684 H 0.51426 0.70209 0.27402 0.0
H1685 H 0.52695 0.64186 0.28689 0.0
H1686 H 0.54165 0.72286 0.17058 0.0
H1687 H 0.5096 0.70242 0.16573 0.0
H1688 H 0.52114 0.72398 0.20986 0.0
H1689 H 0.55235 0.63736 0.23087 0.0
H1690 H 0.52737 0.62566 0.19332 0.0
H1691 H 0.55616 0.65119 0.17767 0.0
H1692 H 0.48483 0.64761 0.07479 0.0
H1693 H 0.55854 0.70552 0.05677 0.0
H1694 H 0.48216 0.64951 0.18395 0.0
H1695 H 0.49178 0.62754 0.17792 0.0
H1696 H 0.47001 0.62761 0.14043 0.0
H1697 H 0.57762 0.72369 0.1463 0.0
H1698 H 0.58887 0.70871 0.11194 0.0
H1699 H 0.5792 0.69796 0.16701 0.0
C1700 C 0.31268 0.84981 0.05739 0.0
C1701 C 0.32636 0.83935 0.04284 0.0
C1702 C 0.31421 0.85738 0.10099 0.0
C1703 C 0.32914 0.85362 0.13066 0.0
C1704 C 0.34376 0.84407 0.11548 0.0
C1705 C 0.3424 0.8374 0.07178 0.0
C1706 C 0.29905 0.86838 0.11521 0.0
C1707 C 0.35983 0.83943 0.14586 0.0
C1708 C 0.3522 0.87476 0.24342 0.0
C1709 C 0.33797 0.85301 0.26638 0.0
C1710 C 0.34709 0.87689 0.19958 0.0
C1711 C 0.32785 0.85662 0.17841 0.0
C1712 C 0.31139 0.83616 0.20326 0.0
C1713 C 0.31654 0.8347 0.24717 0.0
C1714 C 0.36392 0.89971 0.17469 0.0
C1715 C 0.29023 0.81437 0.18222 0.0
H1716 H 0.30046 0.85168 0.03505 0.0
H1717 H 0.35313 0.82944 0.06093 0.0
H1718 H 0.28044 0.85362 0.12347 0.0
H1719 H 0.30682 0.88024 0.14422 0.0
H1720 H 0.29734 0.87918 0.0883 0.0
H1721 H 0.36993 0.83181 0.12862 0.0
H1722 H 0.37327 0.85657 0.16193 0.0
H1723 H 0.34861 0.82646 0.17186 0.0
H1724 H 0.36832 0.8894 0.25848 0.0
H1725 H 0.30493 0.81814 0.26511 0.0
H1726 H 0.35373 0.90377 0.14978 0.0
H1727 H 0.37788 0.89715 0.1575 0.0
H1728 H 0.37343 0.91554 0.1969 0.0
H1729 H 0.28004 0.82014 0.16059 0.0
H1730 H 0.27745 0.80139 0.2068 0.0
H1731 H 0.29719 0.80471 0.16183 0.0
C1732 C 0.13466 0.49569 0.25849 0.0
C1733 C 0.15737 0.50227 0.27698 0.0
C1734 C 0.12994 0.48886 0.21436 0.0
C1735 C 0.14862 0.48939 0.18823 0.0
C1736 C 0.17075 0.49402 0.20778 0.0
C1737 C 0.17465 0.5 0.25197 0.0
C1738 C 0.10557 0.48268 0.19542 0.0
C1739 C 0.19134 0.49493 0.1813 0.0
C1740 C 0.15116 0.47144 0.07251 0.0
C1741 C 0.16271 0.49441 0.05254 0.0
C1742 C 0.14303 0.46869 0.1159 0.0
C1743 C 0.14741 0.4895 0.1399 0.0
C1744 C 0.15647 0.51211 0.11831 0.0
C1745 C 0.16372 0.5142 0.07469 0.0
C1746 C 0.13179 0.44396 0.13707 0.0
C1747 C 0.16124 0.53478 0.14251 0.0
H1748 H 0.12096 0.49686 0.27782 0.0
H1749 H 0.19207 0.50449 0.26611 0.0
H1750 H 0.10607 0.49963 0.18485 0.0
H1751 H 0.10083 0.47047 0.16678 0.0
H1752 H 0.09097 0.47386 0.22034 0.0
H1753 H 0.20707 0.49809 0.20189 0.0
H1754 H 0.18497 0.47768 0.16329 0.0
H1755 H 0.19777 0.50979 0.15684 0.0
H1756 H 0.1496 0.45586 0.05513 0.0
H1757 H 0.17209 0.53191 0.05921 0.0
H1758 H 0.11777 0.4416 0.16133 0.0
H1759 H 0.14607 0.44202 0.15444 0.0
H1760 H 0.12338 0.42924 0.1124 0.0
H1761 H 0.14493 0.53144 0.16132 0.0
H1762 H 0.16632 0.55039 0.12017 0.0
H1763 H 0.17632 0.53992 0.1661 0.0
C1764 C 0.16937 0.00066 0.08629 0.0
C1765 C 0.15351 0.00575 0.10964 0.0
C1766 C 0.16824 -0.00093 0.04064 0.0
C1767 C 0.15085 0.00275 0.01808 0.0
C1768 C 0.13461 0.00767 0.04172 0.0
C1769 C 0.13619 0.00916 0.08738 0.0
C1770 C 0.1858 0.99372 0.01653 0.0
C1771 C 0.11586 0.0117 0.01877 0.0
C1772 C 0.16365 0.02061 0.89858 0.0
C1773 C 0.14937 -0.00181 0.87811 0.0
C1774 C 0.16403 0.02248 0.94426 0.0
C1775 C 0.14969 0.0014 0.96971 0.0
C1776 C 0.13474 0.97885 0.94897 0.0
C1777 C 0.1347 0.97755 0.90334 0.0
C1778 C 0.18012 0.04685 0.9653 0.0
C1779 C 0.11911 0.95602 0.97497 0.0
H1780 H 0.18285 -0.00178 0.10384 0.0
H1781 H 0.12422 0.01349 0.10571 0.0
H1782 H 0.17562 0.97712 -0.00359 0.0
H1783 H 0.19715 0.00891 0.99396 0.0
H1784 H 0.19802 0.99106 0.03901 0.0
H1785 H 0.10429 0.01487 0.04204 0.0
H1786 H 0.12503 0.02761 -0.00336 0.0
H1787 H 0.10394 0.99571 -0.00169 0.0
H1788 H 0.17492 0.03655 0.87888 0.0
H1789 H 0.12326 0.96031 0.88729 0.0
H1790 H 0.19415 0.04598 0.98561 0.0
H1791 H 0.1692 0.05156 0.98731 0.0
H1792 H 0.1894 0.06162 0.94085 0.0
H1793 H 0.13079 0.95185 -0.004 0.0
H1794 H 0.10799 0.94008 0.95375 0.0
H1795 H 0.10673 0.95876 -0.00319 0.0
C1796 C 0.00225 0.15181 0.0844 0.0
C1797 C 0.01257 0.17303 0.10933 0.0
C1798 C 0.00536 0.15294 0.03914 0.0
C1799 C 0.01914 0.17589 0.01877 0.0
C1800 C 0.02991 0.19739 0.04413 0.0
C1801 C 0.02642 0.19568 0.08946 0.0
C1802 C 0.99359 0.12965 0.0131 0.0
C1803 C 0.04478 0.2221 0.02331 0.0
C1804 C 0.0422 0.17509 0.90536 0.0
C1805 C 0.02483 0.17661 0.8796 0.0
C1806 C 0.04102 0.17558 0.95093 0.0
C1807 C 0.02175 0.17724 0.97076 0.0
C1808 C 0.00417 0.17883 0.94468 0.0
C1809 C 0.00595 0.1785 0.89917 0.0
C1810 C 0.06004 0.17383 0.97781 0.0
C1811 C 0.98326 0.18039 0.96483 0.0
H1812 H 0.99149 0.13437 0.10041 0.0
H1813 H 0.03425 0.21197 0.10933 0.0
H1814 H 0.98043 0.12987 0.98953 0.0
H1815 H 0.00757 0.12806 0.99393 0.0
H1816 H 0.98385 0.11331 0.03419 0.0
H1817 H 0.05254 0.23694 0.04785 0.0
H1818 H 0.05989 0.22275 0.00398 0.0
H1819 H 0.03325 0.2255 0.00041 0.0
H1820 H 0.05655 0.17325 0.88978 0.0
H1821 H 0.99252 0.17954 0.87879 0.0
H1822 H 0.05136 0.15677 -0.00286 0.0
H1823 H 0.06849 0.18913 0.00129 0.0
H1824 H 0.0746 0.17408 0.95726 0.0
H1825 H 0.97174 0.16376 0.98423 0.0
H1826 H 0.97168 0.18241 0.93989 0.0
H1827 H 0.99027 0.19605 0.98753 0.0
C1828 C 0.83847 0.81655 0.8977 0.0
C1829 C 0.84984 0.83912 0.87686 0.0
C1830 C 0.83999 0.81505 0.94313 0.0
C1831 C 0.85283 0.83672 0.96769 0.0
C1832 C 0.86473 0.85953 0.94634 0.0
C1833 C 0.86315 0.86043 0.90093 0.0
C1834 C 0.82738 0.79044 0.96494 0.0
C1835 C 0.87837 0.88301 0.97152 0.0
C1836 C 0.83514 0.83667 0.08558 0.0
C1837 C 0.8542 0.83613 0.10735 0.0
C1838 C 0.83432 0.8366 0.03992 0.0
C1839 C 0.85294 0.83573 0.01589 0.0
C1840 C 0.87216 0.83498 0.0379 0.0
C1841 C 0.87271 0.83551 0.08356 0.0
C1842 C 0.81377 0.83783 0.01742 0.0
C1843 C 0.89221 0.83388 0.01324 0.0
H1844 H 0.82808 0.80019 0.87854 0.0
H1845 H 0.87169 0.87782 0.88424 0.0
H1846 H 0.84032 0.78832 0.98632 0.0
H1847 H 0.81241 0.78885 0.98598 0.0
H1848 H 0.81965 0.77535 0.9409 0.0
H1849 H 0.88731 0.89913 0.94972 0.0
H1850 H 0.86562 0.88513 0.99343 0.0
H1851 H 0.89247 0.88266 0.9924 0.0
H1852 H 0.82096 0.8373 0.10437 0.0
H1853 H 0.88768 0.83556 0.10076 0.0
H1854 H 0.80386 0.82198 -0.00452 0.0
H1855 H 0.82122 0.85441 -0.00317 0.0
H1856 H 0.80061 0.83813 0.04097 0.0
H1857 H 0.88431 0.81831 0.99029 0.0
H1858 H 0.90505 0.83201 0.03538 0.0
H1859 H 0.9026 0.85063 0.99348 0.0
C1860 C 0.83996 0.3445 0.23707 0.0
C1861 C 0.81892 0.33938 0.214 0.0
C1862 C 0.84055 0.34605 0.28272 0.0
C1863 C 0.81954 0.34235 0.30555 0.0
C1864 C 0.79835 0.33756 0.28216 0.0
C1865 C 0.79828 0.33604 0.2365 0.0
C1866 C 0.86347 0.35122 0.30656 0.0
C1867 C 0.77565 0.33358 0.3054 0.0
C1868 C 0.81438 0.32354 0.42447 0.0
C1869 C 0.82272 0.34583 0.44553 0.0
C1870 C 0.81288 0.32204 0.37877 0.0
C1871 C 0.81976 0.34335 0.35393 0.0
C1872 C 0.82755 0.36577 0.37529 0.0
C1873 C 0.82889 0.36672 0.42092 0.0
C1874 C 0.80444 0.29781 0.35704 0.0
C1875 C 0.83485 0.38882 0.34994 0.0
H1876 H 0.85581 0.34688 0.21932 0.0
H1877 H 0.78191 0.33169 0.21838 0.0
H1878 H 0.86992 0.36767 0.32713 0.0
H1879 H 0.85963 0.33586 0.32867 0.0
H1880 H 0.87834 0.35405 0.28388 0.0
H1881 H 0.76098 0.33083 0.2823 0.0
H1882 H 0.76872 0.31742 0.32696 0.0
H1883 H 0.77989 0.3494 0.32649 0.0
H1884 H 0.80956 0.30742 0.44373 0.0
H1885 H 0.83486 0.38386 0.43746 0.0
H1886 H 0.81925 0.29876 0.33634 0.0
H1887 H 0.78877 0.29332 0.33531 0.0
H1888 H 0.79896 0.28285 0.38108 0.0
H1889 H 0.8507 0.3931 0.32878 0.0
H1890 H 0.83973 0.4046 0.37162 0.0
H1891 H 0.81976 0.38631 0.32826 0.0
C1892 C 0.70899 0.51139 0.23717 0.0
C1893 C 0.69045 0.51131 0.21235 0.0
C1894 C 0.70811 0.5114 0.28282 0.0
C1895 C 0.6879 0.51073 0.30373 0.0
C1896 C 0.66913 0.51069 0.27864 0.0
C1897 C 0.6707 0.51106 0.23303 0.0
C1898 C 0.72848 0.51158 0.30861 0.0
C1899 C 0.64714 0.50963 0.29992 0.0
C1900 C 0.67073 0.48325 0.41653 0.0
C1901 C 0.67894 0.50399 0.44233 0.0
C1902 C 0.67385 0.48523 0.37126 0.0
C1903 C 0.68559 0.50857 0.35177 0.0
C1904 C 0.69442 0.52963 0.37804 0.0
C1905 C 0.69081 0.52706 0.42333 0.0
C1906 C 0.66404 0.46237 0.34422 0.0
C1907 C 0.70723 0.55477 0.35825 0.0
H1908 H 0.72402 0.51111 0.2208 0.0
H1909 H 0.65636 0.51085 0.21343 0.0
H1910 H 0.73569 0.5265 0.33293 0.0
H1911 H 0.72146 0.49428 0.32692 0.0
H1912 H 0.7437 0.51388 0.28738 0.0
H1913 H 0.63457 0.51052 0.2757 0.0
H1914 H 0.63701 0.4925 0.31881 0.0
H1915 H 0.65292 0.52487 0.32327 0.0
H1916 H 0.6614 0.46546 0.43183 0.0
H1917 H 0.69696 0.54297 0.44383 0.0
H1918 H 0.67882 0.46274 0.32431 0.0
H1919 H 0.65002 0.46134 0.32128 0.0
H1920 H 0.6558 0.44568 0.36466 0.0
H1921 H 0.7228 0.55721 0.33798 0.0
H1922 H 0.71406 0.56925 0.38345 0.0
H1923 H 0.69457 0.55707 0.33641 0.0
C1924 C 0.5058 0.15181 0.23228 0.0
C1925 C 0.5093 0.17383 0.21573 0.0
C1926 C 0.50711 0.14872 0.27733 0.0
C1927 C 0.51233 0.16828 0.3058 0.0
C1928 C 0.51628 0.1907 0.28882 0.0
C1929 C 0.51461 0.19316 0.24382 0.0
C1930 C 0.50266 0.12456 0.29452 0.0
C1931 C 0.52216 0.21204 0.31817 0.0
C1932 C 0.49416 0.15781 0.42479 0.0
C1933 C 0.51641 0.16434 0.44458 0.0
C1934 C 0.49235 0.15813 0.37928 0.0
C1935 C 0.51342 0.16542 0.3535 0.0
C1936 C 0.53588 0.17163 0.37358 0.0
C1937 C 0.5371 0.17103 0.41915 0.0
C1938 C 0.46811 0.15134 0.35887 0.0
C1939 C 0.55874 0.17967 0.34708 0.0
H1940 H 0.50175 0.13701 0.21003 0.0
H1941 H 0.51747 0.21021 0.23042 0.0
H1942 H 0.51864 0.12707 0.31351 0.0
H1943 H 0.48684 0.11674 0.31704 0.0
H1944 H 0.49909 0.11131 0.26793 0.0
H1945 H 0.52525 0.22835 0.29952 0.0
H1946 H 0.50702 0.20711 0.34153 0.0
H1947 H 0.5387 0.21681 0.33764 0.0
H1948 H 0.47828 0.15274 0.44501 0.0
H1949 H 0.5543 0.17624 0.43504 0.0
H1950 H 0.46337 0.13716 0.33366 0.0
H1951 H 0.46925 0.16743 0.34234 0.0
H1952 H 0.4532 0.14452 0.38336 0.0
H1953 H 0.55558 0.16605 0.32153 0.0
H1954 H 0.57434 0.18238 0.36759 0.0
H1955 H 0.56374 0.19702 0.3302 0.0
C1956 C 0.47333 0.67773 0.76627 0.0
C1957 C 0.48867 0.67168 0.78906 0.0
C1958 C 0.47209 0.67647 0.72059 0.0
C1959 C 0.4866 0.66902 0.69754 0.0
C1960 C 0.50184 0.66253 0.72069 0.0
C1961 C 0.50276 0.66404 0.76635 0.0
C1962 C 0.45568 0.68359 0.69699 0.0
C1963 C 0.51746 0.65438 0.69719 0.0
C1964 C 0.46934 0.64584 0.58184 0.0
C1965 C 0.48609 0.66598 0.55753 0.0
C1966 C 0.46916 0.64664 0.6275 0.0
C1967 C 0.48602 0.66821 0.64917 0.0
C1968 C 0.50263 0.68882 0.62464 0.0
C1969 C 0.50248 0.68743 0.57893 0.0
C1970 C 0.45117 0.62432 0.65254 0.0
C1971 C 0.52077 0.71216 0.64671 0.0
H1972 H 0.46277 0.684 0.78419 0.0
H1973 H 0.51476 0.65962 0.78437 0.0
H1974 H 0.46671 0.69942 0.67546 0.0
H1975 H 0.44274 0.66847 0.67583 0.0
H1976 H 0.44513 0.68838 0.71985 0.0
H1977 H 0.5278 0.64936 0.72012 0.0
H1978 H 0.50594 0.63848 0.67623 0.0
H1979 H 0.53057 0.66912 0.6755 0.0
H1980 H 0.45642 0.62937 0.56504 0.0
H1981 H 0.5154 0.70296 0.55988 0.0
H1982 H 0.4398 0.62875 0.67392 0.0
H1983 H 0.46106 0.61806 0.67398 0.0
H1984 H 0.439 0.60914 0.63065 0.0
H1985 H 0.51117 0.71866 0.66832 0.0
H1986 H 0.53191 0.72674 0.62288 0.0
H1987 H 0.53315 0.7089 0.66759 0.0
C1988 C 0.35993 0.85856 0.74945 0.0
C1989 C 0.34657 0.83575 0.76904 0.0
C1990 C 0.36328 0.86057 0.70408 0.0
C1991 C 0.35281 0.83922 0.6783 0.0
C1992 C 0.33962 0.81611 0.69839 0.0
C1993 C 0.33668 0.81468 0.74373 0.0
C1994 C 0.37757 0.88545 0.68364 0.0
C1995 C 0.32813 0.79297 0.67193 0.0
C1996 C 0.3384 0.84289 0.55964 0.0
C1997 C 0.35741 0.8418 0.53872 0.0
C1998 C 0.33688 0.84243 0.60527 0.0
C1999 C 0.3549 0.84094 0.63017 0.0
C2000 C 0.37426 0.84002 0.60901 0.0
C2001 C 0.37514 0.84024 0.56334 0.0
C2002 C 0.31582 0.84315 0.62679 0.0
C2003 C 0.39378 0.83847 0.63458 0.0
H2004 H 0.36739 0.87474 0.76956 0.0
H2005 H 0.32625 0.79711 0.75948 0.0
H2006 H 0.39252 0.8865 0.66325 0.0
H2007 H 0.36556 0.88877 0.66182 0.0
H2008 H 0.38548 0.90013 0.70847 0.0
H2009 H 0.31906 0.77648 0.69281 0.0
H2010 H 0.31443 0.79287 0.64929 0.0
H2011 H 0.34213 0.79199 0.65173 0.0
H2012 H 0.32468 0.84396 0.5402 0.0
H2013 H 0.38958 0.83897 0.54677 0.0
H2014 H 0.3227 0.85868 0.64975 0.0
H2015 H 0.30492 0.82633 0.64614 0.0
H2016 H 0.30367 0.84484 0.60269 0.0
H2017 H 0.40227 0.85361 0.65836 0.0
H2018 H 0.40825 0.83916 0.61315 0.0
H2019 H 0.38559 0.82127 0.6535 0.0
C2020 C 0.19025 0.53042 0.57677 0.0
C2021 C 0.18076 0.5102 0.54934 0.0
C2022 C 0.19162 0.52775 0.62183 0.0
C2023 C 0.18316 0.50426 0.63946 0.0
C2024 C 0.17381 0.48379 0.61155 0.0
C2025 C 0.17273 0.48704 0.56649 0.0
C2026 C 0.20177 0.55 0.65058 0.0
C2027 C 0.16464 0.45852 0.62937 0.0
C2028 C 0.20563 0.50238 0.75296 0.0
C2029 C 0.18606 0.49944 0.77848 0.0
C2030 C 0.20463 0.50315 0.70737 0.0
C2031 C 0.18364 0.50122 0.68727 0.0
C2032 C 0.16369 0.49791 0.71309 0.0
C2033 C 0.16518 0.49711 0.75861 0.0
C2034 C 0.22624 0.50675 0.68082 0.0
C2035 C 0.14108 0.49591 0.69272 0.0
H2036 H 0.19638 0.54827 0.56288 0.0
H2037 H 0.16536 0.47153 0.54473 0.0
H2038 H 0.18765 0.54827 0.67402 0.0
H2039 H 0.21727 0.55159 0.66997 0.0
H2040 H 0.2081 0.56699 0.63147 0.0
H2041 H 0.1586 0.44465 0.60311 0.0
H2042 H 0.17913 0.4579 0.64861 0.0
H2043 H 0.14911 0.45361 0.65179 0.0
H2044 H 0.2219 0.50456 0.76879 0.0
H2045 H 0.15019 0.49499 0.7788 0.0
H2046 H 0.23447 0.52454 0.66377 0.0
H2047 H 0.22038 0.49249 0.65541 0.0
H2048 H 0.24044 0.50627 0.70133 0.0
H2049 H 0.14573 0.51311 0.67564 0.0
H2050 H 0.12672 0.49211 0.71729 0.0
H2051 H 0.13358 0.48122 0.66795 0.0
loop_
_geom_bond_atom_site_label_1
_geom_bond_atom_site_label_2
_geom_bond_distance
_geom_bond_site_symmetry_2
_ccdc_geom_bond_type
Co0 O3 1.970 . S
Co0 N17 1.989 . S
Co0 O25 1.967 1_565 S
Co0 O32 1.920 . S
Co1 O4 1.966 . S
Co1 N10 2.022 . S
Co1 N18 1.993 . S
Co1 O26 1.941 . S
C2 O3 1.258 1_545 S
C2 O4 1.263 . S
O3 Co0 1.970 . S
O3 C2 1.258 1_565 S
O4 Co1 1.966 . S
O4 C2 1.263 . S
C5 O6 1.235 . S
C5 O32 1.289 . S
O6 C5 1.235 . S
C7 C9 1.400 . S
C7 N10 1.351 . S
C7 C12 1.501 . S
C8 C9 1.387 . S
C8 N11 1.341 . S
C9 C7 1.400 . S
C9 C8 1.387 . S
N10 Co1 2.022 . S
N10 C7 1.351 . S
N10 N11 1.365 . S
N11 C8 1.341 . S
N11 N10 1.365 . S
N11 H31 0.862 . S
C12 C7 1.501 . S
C12 H13 0.961 . S
C12 H14 0.961 . S
C12 H15 0.960 . S
H13 C12 0.961 . S
H14 C12 0.961 . S
H15 C12 0.960 . S
C16 N17 1.342 . S
C16 C20 1.401 . S
C16 C21 1.499 . S
N17 Co0 1.989 . S
N17 C16 1.342 . S
N17 N18 1.388 1_565 S
N18 Co1 1.993 . S
N18 N17 1.388 1_545 S
N18 C19 1.346 . S
C19 N18 1.346 . S
C19 C20 1.396 1_545 S
C19 C29 1.510 . S
C20 C16 1.401 . S
C20 C19 1.396 1_565 S
C21 C16 1.499 . S
C21 H22 0.959 . S
C21 H23 0.960 . S
C21 H24 0.961 . S
H22 C21 0.959 . S
H23 C21 0.960 . S
H24 C21 0.961 . S
O25 Co0 1.967 1_545 S
O25 C33 1.258 . S
O26 Co1 1.941 . S
O26 C33 1.266 . S
H27 C29 0.959 . S
H28 C29 0.961 . S
C29 C19 1.510 . S
C29 H27 0.959 . S
C29 H28 0.961 . S
C29 H30 0.960 . S
H30 C29 0.960 . S
H31 N11 0.862 . S
O32 Co0 1.920 . S
O32 C5 1.289 . S
C33 O25 1.258 . S
C33 O26 1.266 . S
Co34 O37 1.970 . S
Co34 N51 1.989 . S
Co34 O59 1.967 1_455 S
Co34 O66 1.920 . S
Co35 O38 1.966 . S
Co35 N44 2.022 . S
Co35 N52 1.972 1_655 S
Co35 O60 1.941 . S
C36 O37 1.258 . S
C36 O38 1.263 1_455 S
O37 Co34 1.970 . S
O37 C36 1.258 . S
O38 Co35 1.966 . S
O38 C36 1.263 1_655 S
C39 O40 1.235 . S
C39 O66 1.289 . S
O40 C39 1.235 . S
C41 C43 1.400 . S
C41 N44 1.351 . S
C41 C46 1.501 . S
C42 C43 1.387 . S
C42 N45 1.341 . S
C43 C41 1.400 . S
C43 C42 1.387 . S
N44 Co35 2.022 . S
N44 C41 1.351 . S
N44 N45 1.365 . S
N45 C42 1.341 . S
N45 N44 1.365 . S
N45 H65 0.862 . S
C46 C41 1.501 . S
C46 H47 0.961 . S
C46 H48 0.961 . S
C46 H49 0.960 . S
H47 C46 0.961 . S
H48 C46 0.961 . S
H49 C46 0.960 . S
C50 N51 1.342 . S
C50 C54 1.401 . S
C50 C55 1.499 . S
N51 Co34 1.989 . S
N51 C50 1.342 . S
N51 N52 1.421 . S
N52 Co35 1.972 1_455 S
N52 N51 1.421 . S
N52 C53 1.340 . S
C53 N52 1.340 . S
C53 C54 1.396 . S
C53 C63 1.510 1_455 S
C54 C50 1.401 . S
C54 C53 1.396 . S
C55 C50 1.499 . S
C55 H56 0.959 . S
C55 H57 0.960 . S
C55 H58 0.961 . S
H56 C55 0.959 . S
H57 C55 0.960 . S
H58 C55 0.961 . S
O59 Co34 1.967 1_655 S
O59 C67 1.258 . S
O60 Co35 1.941 . S
O60 C67 1.266 . S
H61 C63 0.959 . S
H62 C63 0.961 . S
C63 C53 1.510 1_655 S
C63 H61 0.959 . S
C63 H62 0.961 . S
C63 H64 0.960 . S
H64 C63 0.960 . S
H65 N45 0.862 . S
O66 Co34 1.920 . S
O66 C39 1.289 . S
C67 O59 1.258 . S
C67 O60 1.266 . S
Co68 O71 1.970 . S
Co68 N85 1.989 . S
Co68 O93 1.967 . S
Co68 O100 1.920 . S
Co69 O72 1.966 . S
Co69 N78 2.022 . S
Co69 N86 1.993 . S
Co69 O94 1.941 . S
C70 O71 1.258 . S
C70 O72 1.263 . S
O71 Co68 1.970 . S
O71 C70 1.258 . S
O72 Co69 1.966 . S
O72 C70 1.263 . S
C73 O74 1.235 . S
C73 O100 1.289 . S
O74 C73 1.235 . S
C75 C77 1.400 . S
C75 N78 1.351 . S
C75 C80 1.501 . S
C76 C77 1.387 . S
C76 N79 1.341 . S
C77 C75 1.400 . S
C77 C76 1.387 . S
N78 Co69 2.022 . S
N78 C75 1.351 . S
N78 N79 1.365 . S
N79 C76 1.341 . S
N79 N78 1.365 . S
N79 H99 0.862 . S
C80 C75 1.501 . S
C80 H81 0.961 . S
C80 H82 0.961 . S
C80 H83 0.960 . S
H81 C80 0.961 . S
H82 C80 0.961 . S
H83 C80 0.960 . S
C84 N85 1.342 . S
C84 C88 1.401 . S
C84 C89 1.499 . S
N85 Co68 1.989 . S
N85 C84 1.342 . S
N85 N86 1.388 . S
N86 Co69 1.993 . S
N86 N85 1.388 . S
N86 C87 1.346 . S
C87 N86 1.346 . S
C87 C88 1.396 . S
C87 C97 1.510 . S
C88 C84 1.401 . S
C88 C87 1.396 . S
C89 C84 1.499 . S
C89 H90 0.959 . S
C89 H91 0.960 . S
C89 H92 0.961 . S
H90 C89 0.959 . S
H91 C89 0.960 . S
H92 C89 0.961 . S
O93 Co68 1.967 . S
O93 C101 1.258 . S
O94 Co69 1.941 . S
O94 C101 1.266 . S
H95 C97 0.959 . S
H96 C97 0.961 . S
C97 C87 1.510 . S
C97 H95 0.959 . S
C97 H96 0.961 . S
C97 H98 0.960 . S
H98 C97 0.960 . S
H99 N79 0.862 . S
O100 Co68 1.920 . S
O100 C73 1.289 . S
C101 O93 1.258 . S
C101 O94 1.266 . S
Co102 O105 1.970 . S
Co102 N119 1.989 . S
Co102 O127 1.967 1_655 S
Co102 O134 1.920 . S
Co103 O106 1.966 . S
Co103 N112 2.022 . S
Co103 N120 1.993 . S
Co103 O128 1.941 . S
C104 O105 1.258 1_455 S
C104 O106 1.263 . S
O105 Co102 1.970 . S
O105 C104 1.258 1_655 S
O106 Co103 1.966 . S
O106 C104 1.263 . S
C107 O108 1.235 . S
C107 O134 1.289 . S
O108 C107 1.235 . S
C109 C111 1.400 . S
C109 N112 1.351 . S
C109 C114 1.501 . S
C110 C111 1.387 . S
C110 N113 1.341 . S
C111 C109 1.400 . S
C111 C110 1.387 . S
N112 Co103 2.022 . S
N112 C109 1.351 . S
N112 N113 1.365 . S
N113 C110 1.341 . S
N113 N112 1.365 . S
N113 H133 0.862 . S
C114 C109 1.501 . S
C114 H115 0.961 . S
C114 H116 0.961 . S
C114 H117 0.960 . S
H115 C114 0.961 . S
H116 C114 0.961 . S
H117 C114 0.960 . S
C118 N119 1.342 . S
C118 C122 1.401 . S
C118 C123 1.499 . S
N119 Co102 1.989 . S
N119 C118 1.342 . S
N119 N120 1.388 1_655 S
N120 Co103 1.993 . S
N120 N119 1.388 1_455 S
N120 C121 1.346 . S
C121 N120 1.346 . S
C121 C122 1.396 1_455 S
C121 C131 1.510 . S
C122 C118 1.401 . S
C122 C121 1.396 1_655 S
C123 C118 1.499 . S
C123 H124 0.959 . S
C123 H125 0.960 . S
C123 H126 0.961 . S
H124 C123 0.959 . S
H125 C123 0.960 . S
H126 C123 0.961 . S
O127 Co102 1.967 1_455 S
O127 C135 1.258 . S
O128 Co103 1.941 . S
O128 C135 1.266 . S
H129 C131 0.959 . S
H130 C131 0.961 . S
C131 C121 1.510 . S
C131 H129 0.959 . S
C131 H130 0.961 . S
C131 H132 0.960 . S
H132 C131 0.960 . S
H133 N113 0.862 . S
O134 Co102 1.920 . S
O134 C107 1.289 . S
C135 O127 1.258 . S
C135 O128 1.266 . S
Co136 O139 1.970 . S
Co136 N153 1.989 . S
Co136 O161 1.967 . S
Co136 O168 1.920 . S
Co137 O140 1.966 . S
Co137 N146 2.022 . S
Co137 N154 1.993 . S
Co137 O162 1.941 . S
C138 O139 1.258 . S
C138 O140 1.263 . S
O139 Co136 1.970 . S
O139 C138 1.258 . S
O140 Co137 1.966 . S
O140 C138 1.263 . S
C141 O142 1.235 . S
C141 O168 1.289 . S
O142 C141 1.235 . S
C143 C145 1.400 . S
C143 N146 1.351 . S
C143 C148 1.501 . S
C144 C145 1.387 . S
C144 N147 1.341 . S
C145 C143 1.400 . S
C145 C144 1.387 . S
N146 Co137 2.022 . S
N146 C143 1.351 . S
N146 N147 1.365 . S
N147 C144 1.341 . S
N147 N146 1.365 . S
N147 H167 0.862 . S
C148 C143 1.501 . S
C148 H149 0.961 . S
C148 H150 0.961 . S
C148 H151 0.960 . S
H149 C148 0.961 . S
H150 C148 0.961 . S
H151 C148 0.960 . S
C152 N153 1.342 . S
C152 C156 1.401 . S
C152 C157 1.499 . S
N153 Co136 1.989 . S
N153 C152 1.342 . S
N153 N154 1.388 . S
N154 Co137 1.993 . S
N154 N153 1.388 . S
N154 C155 1.346 . S
C155 N154 1.346 . S
C155 C156 1.396 . S
C155 C165 1.510 . S
C156 C152 1.401 . S
C156 C155 1.396 . S
C157 C152 1.499 . S
C157 H158 0.959 . S
C157 H159 0.960 . S
C157 H160 0.961 . S
H158 C157 0.959 . S
H159 C157 0.960 . S
H160 C157 0.961 . S
O161 Co136 1.967 . S
O161 C169 1.258 . S
O162 Co137 1.941 . S
O162 C169 1.266 . S
H163 C165 0.959 . S
H164 C165 0.961 . S
C165 C155 1.510 . S
C165 H163 0.959 . S
C165 H164 0.961 . S
C165 H166 0.960 . S
H166 C165 0.960 . S
H167 N147 0.862 . S
O168 Co136 1.920 . S
O168 C141 1.289 . S
C169 O161 1.258 . S
C169 O162 1.266 . S
Co170 O173 1.970 . S
Co170 N187 1.989 . S
Co170 O195 1.967 1_545 S
Co170 O202 1.920 . S
Co171 O174 1.966 . S
Co171 N180 2.022 . S
Co171 N188 1.972 1_565 S
Co171 O196 1.941 . S
C172 O173 1.258 . S
C172 O174 1.263 1_545 S
O173 Co170 1.970 . S
O173 C172 1.258 . S
O174 Co171 1.966 . S
O174 C172 1.263 1_565 S
C175 O176 1.235 . S
C175 O202 1.289 . S
O176 C175 1.235 . S
C177 C179 1.400 . S
C177 N180 1.351 . S
C177 C182 1.501 . S
C178 C179 1.387 . S
C178 N181 1.341 . S
C179 C177 1.400 . S
C179 C178 1.387 . S
N180 Co171 2.022 . S
N180 C177 1.351 . S
N180 N181 1.365 . S
N181 C178 1.341 . S
N181 N180 1.365 . S
N181 H201 0.862 . S
C182 C177 1.501 . S
C182 H183 0.961 . S
C182 H184 0.961 . S
C182 H185 0.960 . S
H183 C182 0.961 . S
H184 C182 0.961 . S
H185 C182 0.960 . S
C186 N187 1.342 . S
C186 C190 1.401 . S
C186 C191 1.499 . S
N187 Co170 1.989 . S
N187 C186 1.342 . S
N187 N188 1.421 . S
N188 Co171 1.972 1_545 S
N188 N187 1.421 . S
N188 C189 1.340 . S
C189 N188 1.340 . S
C189 C190 1.396 . S
C189 C199 1.510 1_545 S
C190 C186 1.401 . S
C190 C189 1.396 . S
C191 C186 1.499 . S
C191 H192 0.959 . S
C191 H193 0.960 . S
C191 H194 0.961 . S
H192 C191 0.959 . S
H193 C191 0.960 . S
H194 C191 0.961 . S
O195 Co170 1.967 1_565 S
O195 C203 1.258 . S
O196 Co171 1.941 . S
O196 C203 1.266 . S
H197 C199 0.959 . S
H198 C199 0.961 . S
C199 C189 1.510 1_565 S
C199 H197 0.959 . S
C199 H198 0.961 . S
C199 H200 0.960 . S
H200 C199 0.960 . S
H201 N181 0.862 . S
O202 Co170 1.920 . S
O202 C175 1.289 . S
C203 O195 1.258 . S
C203 O196 1.266 . S
Co204 O207 1.970 . S
Co204 N221 1.989 . S
Co204 O229 1.967 . S
Co204 O236 1.920 . S
Co205 O208 1.966 . S
Co205 N214 2.022 . S
Co205 N222 1.993 . S
Co205 O230 1.941 . S
C206 O207 1.258 . S
C206 O208 1.263 . S
O207 Co204 1.970 . S
O207 C206 1.258 . S
O208 Co205 1.966 . S
O208 C206 1.263 . S
C209 O210 1.235 . S
C209 O236 1.289 . S
O210 C209 1.235 . S
C211 C213 1.400 . S
C211 N214 1.351 . S
C211 C216 1.501 . S
C212 C213 1.387 . S
C212 N215 1.341 . S
C213 C211 1.400 . S
C213 C212 1.387 . S
N214 Co205 2.022 . S
N214 C211 1.351 . S
N214 N215 1.365 . S
N215 C212 1.341 . S
N215 N214 1.365 . S
N215 H235 0.862 . S
C216 C211 1.501 . S
C216 H217 0.961 . S
C216 H218 0.961 . S
C216 H219 0.960 . S
H217 C216 0.961 . S
H218 C216 0.961 . S
H219 C216 0.960 . S
C220 N221 1.342 . S
C220 C224 1.401 . S
C220 C225 1.499 . S
N221 Co204 1.989 . S
N221 C220 1.342 . S
N221 N222 1.388 . S
N222 Co205 1.993 . S
N222 N221 1.388 . S
N222 C223 1.346 . S
C223 N222 1.346 . S
C223 C224 1.396 . S
C223 C233 1.510 . S
C224 C220 1.401 . S
C224 C223 1.396 . S
C225 C220 1.499 . S
C225 H226 0.959 . S
C225 H227 0.960 . S
C225 H228 0.961 . S
H226 C225 0.959 . S
H227 C225 0.960 . S
H228 C225 0.961 . S
O229 Co204 1.967 . S
O229 C237 1.258 . S
O230 Co205 1.941 . S
O230 C237 1.266 . S
H231 C233 0.959 . S
H232 C233 0.961 . S
C233 C223 1.510 . S
C233 H231 0.959 . S
C233 H232 0.961 . S
C233 H234 0.960 . S
H234 C233 0.960 . S
H235 N215 0.862 . S
O236 Co204 1.920 . S
O236 C209 1.289 . S
C237 O229 1.258 . S
C237 O230 1.266 . S
Co238 O241 1.970 . S
Co238 N255 1.989 . S
Co238 O263 1.967 . S
Co238 O270 1.920 . S
Co239 O242 1.966 . S
Co239 N248 2.022 . S
Co239 N256 1.993 . S
Co239 O264 1.941 . S
C240 O241 1.258 . S
C240 O242 1.263 . S
O241 Co238 1.970 . S
O241 C240 1.258 . S
O242 Co239 1.966 . S
O242 C240 1.263 . S
C243 O244 1.235 . S
C243 O270 1.289 . S
O244 C243 1.235 . S
C245 C247 1.400 . S
C245 N248 1.351 . S
C245 C250 1.501 . S
C246 C247 1.387 . S
C246 N249 1.341 . S
C247 C245 1.400 . S
C247 C246 1.387 . S
N248 Co239 2.022 . S
N248 C245 1.351 . S
N248 N249 1.365 . S
N249 C246 1.341 . S
N249 N248 1.365 . S
N249 H269 0.862 . S
C250 C245 1.501 . S
C250 H251 0.961 . S
C250 H252 0.961 . S
C250 H253 0.960 . S
H251 C250 0.961 . S
H252 C250 0.961 . S
H253 C250 0.960 . S
C254 N255 1.342 . S
C254 C258 1.401 . S
C254 C259 1.499 . S
N255 Co238 1.989 . S
N255 C254 1.342 . S
N255 N256 1.388 . S
N256 Co239 1.993 . S
N256 N255 1.388 . S
N256 C257 1.346 . S
C257 N256 1.346 . S
C257 C258 1.396 . S
C257 C267 1.510 . S
C258 C254 1.401 . S
C258 C257 1.396 . S
C259 C254 1.499 . S
C259 H260 0.959 . S
C259 H261 0.960 . S
C259 H262 0.961 . S
H260 C259 0.959 . S
H261 C259 0.960 . S
H262 C259 0.961 . S
O263 Co238 1.967 . S
O263 C271 1.258 . S
O264 Co239 1.941 . S
O264 C271 1.266 . S
H265 C267 0.959 . S
H266 C267 0.961 . S
C267 C257 1.510 . S
C267 H265 0.959 . S
C267 H266 0.961 . S
C267 H268 0.960 . S
H268 C267 0.960 . S
H269 N249 0.862 . S
O270 Co238 1.920 . S
O270 C243 1.289 . S
C271 O263 1.258 . S
C271 O264 1.266 . S
Co272 O275 1.970 . S
Co272 N289 1.989 . S
Co272 O297 1.967 . S
Co272 O304 1.920 . S
Co273 O276 1.966 . S
Co273 N282 2.022 . S
Co273 N290 1.993 . S
Co273 O298 1.941 . S
C274 O275 1.258 . S
C274 O276 1.263 . S
O275 Co272 1.970 . S
O275 C274 1.258 . S
O276 Co273 1.966 . S
O276 C274 1.263 . S
C277 O278 1.235 . S
C277 O304 1.289 . S
O278 C277 1.235 . S
C279 C281 1.400 . S
C279 N282 1.351 . S
C279 C284 1.501 . S
C280 C281 1.387 . S
C280 N283 1.341 . S
C281 C279 1.400 . S
C281 C280 1.387 . S
N282 Co273 2.022 . S
N282 C279 1.351 . S
N282 N283 1.365 . S
N283 C280 1.341 . S
N283 N282 1.365 . S
N283 H303 0.862 . S
C284 C279 1.501 . S
C284 H285 0.961 . S
C284 H286 0.961 . S
C284 H287 0.960 . S
H285 C284 0.961 . S
H286 C284 0.961 . S
H287 C284 0.960 . S
C288 N289 1.342 . S
C288 C292 1.401 . S
C288 C293 1.499 . S
N289 Co272 1.989 . S
N289 C288 1.342 . S
N289 N290 1.388 . S
N290 Co273 1.993 . S
N290 N289 1.388 . S
N290 C291 1.346 . S
C291 N290 1.346 . S
C291 C292 1.396 . S
C291 C301 1.510 . S
C292 C288 1.401 . S
C292 C291 1.396 . S
C293 C288 1.499 . S
C293 H294 0.959 . S
C293 H295 0.960 . S
C293 H296 0.961 . S
H294 C293 0.959 . S
H295 C293 0.960 . S
H296 C293 0.961 . S
O297 Co272 1.967 . S
O297 C305 1.258 . S
O298 Co273 1.941 . S
O298 C305 1.266 . S
H299 C301 0.959 . S
H300 C301 0.961 . S
C301 C291 1.510 . S
C301 H299 0.959 . S
C301 H300 0.961 . S
C301 H302 0.960 . S
H302 C301 0.960 . S
H303 N283 0.862 . S
O304 Co272 1.920 . S
O304 C277 1.289 . S
C305 O297 1.258 . S
C305 O298 1.266 . S
Co306 O309 1.970 . S
Co306 N323 1.989 . S
Co306 O331 1.967 . S
Co306 O338 1.920 . S
Co307 O310 1.966 . S
Co307 N316 2.022 . S
Co307 N324 1.993 . S
Co307 O332 1.941 . S
C308 O309 1.258 . S
C308 O310 1.263 . S
O309 Co306 1.970 . S
O309 C308 1.258 . S
O310 Co307 1.966 . S
O310 C308 1.263 . S
C311 O312 1.235 . S
C311 O338 1.289 . S
O312 C311 1.235 . S
C313 C315 1.400 . S
C313 N316 1.351 . S
C313 C318 1.501 . S
C314 C315 1.387 . S
C314 N317 1.341 . S
C315 C313 1.400 . S
C315 C314 1.387 . S
N316 Co307 2.022 . S
N316 C313 1.351 . S
N316 N317 1.365 . S
N317 C314 1.341 . S
N317 N316 1.365 . S
N317 H337 0.862 . S
C318 C313 1.501 . S
C318 H319 0.961 . S
C318 H320 0.961 . S
C318 H321 0.960 . S
H319 C318 0.961 . S
H320 C318 0.961 . S
H321 C318 0.960 . S
C322 N323 1.342 . S
C322 C326 1.401 . S
C322 C327 1.499 . S
N323 Co306 1.989 . S
N323 C322 1.342 . S
N323 N324 1.388 . S
N324 Co307 1.993 . S
N324 N323 1.388 . S
N324 C325 1.346 . S
C325 N324 1.346 . S
C325 C326 1.396 . S
C325 C335 1.510 . S
C326 C322 1.401 . S
C326 C325 1.396 . S
C327 C322 1.499 . S
C327 H328 0.959 . S
C327 H329 0.960 . S
C327 H330 0.961 . S
H328 C327 0.959 . S
H329 C327 0.960 . S
H330 C327 0.961 . S
O331 Co306 1.967 . S
O331 C339 1.258 . S
O332 Co307 1.941 . S
O332 C339 1.266 . S
H333 C335 0.959 . S
H334 C335 0.961 . S
C335 C325 1.510 . S
C335 H333 0.959 . S
C335 H334 0.961 . S
C335 H336 0.960 . S
H336 C335 0.960 . S
H337 N317 0.862 . S
O338 Co306 1.920 . S
O338 C311 1.289 . S
C339 O331 1.258 . S
C339 O332 1.266 . S
Co340 O343 1.970 . S
Co340 N357 1.989 . S
Co340 O365 1.967 . S
Co340 O372 1.920 . S
Co341 O344 1.966 . S
Co341 N350 2.022 . S
Co341 N358 1.993 . S
Co341 O366 1.941 . S
C342 O343 1.258 . S
C342 O344 1.263 . S
O343 Co340 1.970 . S
O343 C342 1.258 . S
O344 Co341 1.966 . S
O344 C342 1.263 . S
C345 O346 1.235 . S
C345 O372 1.289 . S
O346 C345 1.235 . S
C347 C349 1.400 . S
C347 N350 1.351 . S
C347 C352 1.501 . S
C348 C349 1.387 . S
C348 N351 1.341 . S
C349 C347 1.400 . S
C349 C348 1.387 . S
N350 Co341 2.022 . S
N350 C347 1.351 . S
N350 N351 1.365 . S
N351 C348 1.341 . S
N351 N350 1.365 . S
N351 H371 0.862 . S
C352 C347 1.501 . S
C352 H353 0.961 . S
C352 H354 0.961 . S
C352 H355 0.960 . S
H353 C352 0.961 . S
H354 C352 0.961 . S
H355 C352 0.960 . S
C356 N357 1.342 . S
C356 C360 1.401 . S
C356 C361 1.499 . S
N357 Co340 1.989 . S
N357 C356 1.342 . S
N357 N358 1.388 . S
N358 Co341 1.993 . S
N358 N357 1.388 . S
N358 C359 1.346 . S
C359 N358 1.346 . S
C359 C360 1.396 . S
C359 C369 1.510 . S
C360 C356 1.401 . S
C360 C359 1.396 . S
C361 C356 1.499 . S
C361 H362 0.959 . S
C361 H363 0.960 . S
C361 H364 0.961 . S
H362 C361 0.959 . S
H363 C361 0.960 . S
H364 C361 0.961 . S
O365 Co340 1.967 . S
O365 C373 1.258 . S
O366 Co341 1.941 . S
O366 C373 1.266 . S
H367 C369 0.959 . S
H368 C369 0.961 . S
C369 C359 1.510 . S
C369 H367 0.959 . S
C369 H368 0.961 . S
C369 H370 0.960 . S
H370 C369 0.960 . S
H371 N351 0.862 . S
O372 Co340 1.920 . S
O372 C345 1.289 . S
C373 O365 1.258 . S
C373 O366 1.266 . S
Co374 O377 1.970 . S
Co374 N391 1.989 . S
Co374 O399 1.967 . S
Co374 O406 1.920 . S
Co375 O378 1.966 . S
Co375 N384 2.022 . S
Co375 N392 1.993 . S
Co375 O400 1.941 . S
C376 O377 1.258 . S
C376 O378 1.263 . S
O377 Co374 1.970 . S
O377 C376 1.258 . S
O378 Co375 1.966 . S
O378 C376 1.263 . S
C379 O380 1.235 . S
C379 O406 1.289 . S
O380 C379 1.235 . S
C381 C383 1.400 . S
C381 N384 1.351 . S
C381 C386 1.501 . S
C382 C383 1.387 . S
C382 N385 1.341 . S
C383 C381 1.400 . S
C383 C382 1.387 . S
N384 Co375 2.022 . S
N384 C381 1.351 . S
N384 N385 1.365 . S
N385 C382 1.341 . S
N385 N384 1.365 . S
N385 H405 0.862 . S
C386 C381 1.501 . S
C386 H387 0.961 . S
C386 H388 0.961 . S
C386 H389 0.960 . S
H387 C386 0.961 . S
H388 C386 0.961 . S
H389 C386 0.960 . S
C390 N391 1.342 . S
C390 C394 1.401 . S
C390 C395 1.499 . S
N391 Co374 1.989 . S
N391 C390 1.342 . S
N391 N392 1.388 . S
N392 Co375 1.993 . S
N392 N391 1.388 . S
N392 C393 1.346 . S
C393 N392 1.346 . S
C393 C394 1.396 . S
C393 C403 1.510 . S
C394 C390 1.401 . S
C394 C393 1.396 . S
C395 C390 1.499 . S
C395 H396 0.959 . S
C395 H397 0.960 . S
C395 H398 0.961 . S
H396 C395 0.959 . S
H397 C395 0.960 . S
H398 C395 0.961 . S
O399 Co374 1.967 . S
O399 C407 1.258 . S
O400 Co375 1.941 . S
O400 C407 1.266 . S
H401 C403 0.959 . S
H402 C403 0.961 . S
C403 C393 1.510 . S
C403 H401 0.959 . S
C403 H402 0.961 . S
C403 H404 0.960 . S
H404 C403 0.960 . S
H405 N385 0.862 . S
O406 Co374 1.920 . S
O406 C379 1.289 . S
C407 O399 1.258 . S
C407 O400 1.266 . S
Co408 O411 1.970 . S
Co408 N425 1.989 . S
Co408 O433 1.967 . S
Co408 O440 1.920 . S
Co409 O412 1.966 . S
Co409 N418 2.022 . S
Co409 N426 1.993 . S
Co409 O434 1.941 . S
C410 O411 1.258 . S
C410 O412 1.263 . S
O411 Co408 1.970 . S
O411 C410 1.258 . S
O412 Co409 1.966 . S
O412 C410 1.263 . S
C413 O414 1.235 . S
C413 O440 1.289 . S
O414 C413 1.235 . S
C415 C417 1.400 . S
C415 N418 1.351 . S
C415 C420 1.501 . S
C416 C417 1.387 . S
C416 N419 1.341 . S
C417 C415 1.400 . S
C417 C416 1.387 . S
N418 Co409 2.022 . S
N418 C415 1.351 . S
N418 N419 1.365 . S
N419 C416 1.341 . S
N419 N418 1.365 . S
N419 H439 0.862 . S
C420 C415 1.501 . S
C420 H421 0.961 . S
C420 H422 0.961 . S
C420 H423 0.960 . S
H421 C420 0.961 . S
H422 C420 0.961 . S
H423 C420 0.960 . S
C424 N425 1.342 . S
C424 C428 1.401 . S
C424 C429 1.499 . S
N425 Co408 1.989 . S
N425 C424 1.342 . S
N425 N426 1.388 . S
N426 Co409 1.993 . S
N426 N425 1.388 . S
N426 C427 1.346 . S
C427 N426 1.346 . S
C427 C428 1.396 . S
C427 C437 1.510 . S
C428 C424 1.401 . S
C428 C427 1.396 . S
C429 C424 1.499 . S
C429 H430 0.959 . S
C429 H431 0.960 . S
C429 H432 0.961 . S
H430 C429 0.959 . S
H431 C429 0.960 . S
H432 C429 0.961 . S
O433 Co408 1.967 . S
O433 C441 1.258 . S
O434 Co409 1.941 . S
O434 C441 1.266 . S
H435 C437 0.959 . S
H436 C437 0.961 . S
C437 C427 1.510 . S
C437 H435 0.959 . S
C437 H436 0.961 . S
C437 H438 0.960 . S
H438 C437 0.960 . S
H439 N419 0.862 . S
O440 Co408 1.920 . S
O440 C413 1.289 . S
C441 O433 1.258 . S
C441 O434 1.266 . S
Co442 O445 1.970 . S
Co442 N459 1.989 . S
Co442 O467 1.967 . S
Co442 O474 1.920 . S
Co443 O446 1.966 . S
Co443 N452 2.022 . S
Co443 N460 1.993 . S
Co443 O468 1.941 . S
C444 O445 1.258 . S
C444 O446 1.263 . S
O445 Co442 1.970 . S
O445 C444 1.258 . S
O446 Co443 1.966 . S
O446 C444 1.263 . S
C447 O448 1.235 . S
C447 O474 1.289 . S
O448 C447 1.235 . S
C449 C451 1.400 . S
C449 N452 1.351 . S
C449 C454 1.501 . S
C450 C451 1.387 . S
C450 N453 1.341 . S
C451 C449 1.400 . S
C451 C450 1.387 . S
N452 Co443 2.022 . S
N452 C449 1.351 . S
N452 N453 1.365 . S
N453 C450 1.341 . S
N453 N452 1.365 . S
N453 H473 0.862 . S
C454 C449 1.501 . S
C454 H455 0.961 . S
C454 H456 0.961 . S
C454 H457 0.960 . S
H455 C454 0.961 . S
H456 C454 0.961 . S
H457 C454 0.960 . S
C458 N459 1.342 . S
C458 C462 1.401 . S
C458 C463 1.499 . S
N459 Co442 1.989 . S
N459 C458 1.342 . S
N459 N460 1.388 . S
N460 Co443 1.993 . S
N460 N459 1.388 . S
N460 C461 1.346 . S
C461 N460 1.346 . S
C461 C462 1.396 . S
C461 C471 1.510 . S
C462 C458 1.401 . S
C462 C461 1.396 . S
C463 C458 1.499 . S
C463 H464 0.959 . S
C463 H465 0.960 . S
C463 H466 0.961 . S
H464 C463 0.959 . S
H465 C463 0.960 . S
H466 C463 0.961 . S
O467 Co442 1.967 . S
O467 C475 1.258 . S
O468 Co443 1.941 . S
O468 C475 1.266 . S
H469 C471 0.959 . S
H470 C471 0.961 . S
C471 C461 1.510 . S
C471 H469 0.959 . S
C471 H470 0.961 . S
C471 H472 0.960 . S
H472 C471 0.960 . S
H473 N453 0.862 . S
O474 Co442 1.920 . S
O474 C447 1.289 . S
C475 O467 1.258 . S
C475 O468 1.266 . S
Co476 O479 1.970 . S
Co476 N493 1.989 . S
Co476 O501 1.967 . S
Co476 O508 1.920 . S
Co477 O480 1.966 . S
Co477 N486 2.022 . S
Co477 N494 1.993 . S
Co477 O502 1.941 . S
C478 O479 1.258 . S
C478 O480 1.263 . S
O479 Co476 1.970 . S
O479 C478 1.258 . S
O480 Co477 1.966 . S
O480 C478 1.263 . S
C481 O482 1.235 . S
C481 O508 1.289 . S
O482 C481 1.235 . S
C483 C485 1.400 . S
C483 N486 1.351 . S
C483 C488 1.501 . S
C484 C485 1.387 . S
C484 N487 1.341 . S
C485 C483 1.400 . S
C485 C484 1.387 . S
N486 Co477 2.022 . S
N486 C483 1.351 . S
N486 N487 1.365 . S
N487 C484 1.341 . S
N487 N486 1.365 . S
N487 H507 0.862 . S
C488 C483 1.501 . S
C488 H489 0.961 . S
C488 H490 0.961 . S
C488 H491 0.960 . S
H489 C488 0.961 . S
H490 C488 0.961 . S
H491 C488 0.960 . S
C492 N493 1.342 . S
C492 C496 1.401 . S
C492 C497 1.499 . S
N493 Co476 1.989 . S
N493 C492 1.342 . S
N493 N494 1.388 . S
N494 Co477 1.993 . S
N494 N493 1.388 . S
N494 C495 1.346 . S
C495 N494 1.346 . S
C495 C496 1.396 . S
C495 C505 1.510 . S
C496 C492 1.401 . S
C496 C495 1.396 . S
C497 C492 1.499 . S
C497 H498 0.959 . S
C497 H499 0.960 . S
C497 H500 0.961 . S
H498 C497 0.959 . S
H499 C497 0.960 . S
H500 C497 0.961 . S
O501 Co476 1.967 . S
O501 C509 1.258 . S
O502 Co477 1.941 . S
O502 C509 1.266 . S
H503 C505 0.959 . S
H504 C505 0.961 . S
C505 C495 1.510 . S
C505 H503 0.959 . S
C505 H504 0.961 . S
C505 H506 0.960 . S
H506 C505 0.960 . S
H507 N487 0.862 . S
O508 Co476 1.920 . S
O508 C481 1.289 . S
C509 O501 1.258 . S
C509 O502 1.266 . S
Co510 O513 1.970 . S
Co510 N527 1.989 . S
Co510 O535 1.967 . S
Co510 O542 1.920 . S
Co511 O514 1.966 . S
Co511 N520 2.022 . S
Co511 N528 1.993 . S
Co511 O536 1.941 . S
C512 O513 1.258 . S
C512 O514 1.263 . S
O513 Co510 1.970 . S
O513 C512 1.258 . S
O514 Co511 1.966 . S
O514 C512 1.263 . S
C515 O516 1.235 . S
C515 O542 1.289 . S
O516 C515 1.235 . S
C517 C519 1.400 . S
C517 N520 1.351 . S
C517 C522 1.501 . S
C518 C519 1.387 . S
C518 N521 1.341 . S
C519 C517 1.400 . S
C519 C518 1.387 . S
N520 Co511 2.022 . S
N520 C517 1.351 . S
N520 N521 1.365 . S
N521 C518 1.341 . S
N521 N520 1.365 . S
N521 H541 0.862 . S
C522 C517 1.501 . S
C522 H523 0.961 . S
C522 H524 0.961 . S
C522 H525 0.960 . S
H523 C522 0.961 . S
H524 C522 0.961 . S
H525 C522 0.960 . S
C526 N527 1.342 . S
C526 C530 1.401 . S
C526 C531 1.499 . S
N527 Co510 1.989 . S
N527 C526 1.342 . S
N527 N528 1.388 . S
N528 Co511 1.993 . S
N528 N527 1.388 . S
N528 C529 1.346 . S
C529 N528 1.346 . S
C529 C530 1.396 . S
C529 C539 1.510 . S
C530 C526 1.401 . S
C530 C529 1.396 . S
C531 C526 1.499 . S
C531 H532 0.959 . S
C531 H533 0.960 . S
C531 H534 0.961 . S
H532 C531 0.959 . S
H533 C531 0.960 . S
H534 C531 0.961 . S
O535 Co510 1.967 . S
O535 C543 1.258 . S
O536 Co511 1.941 . S
O536 C543 1.266 . S
H537 C539 0.959 . S
H538 C539 0.961 . S
C539 C529 1.510 . S
C539 H537 0.959 . S
C539 H538 0.961 . S
C539 H540 0.960 . S
H540 C539 0.960 . S
H541 N521 0.862 . S
O542 Co510 1.920 . S
O542 C515 1.289 . S
C543 O535 1.258 . S
C543 O536 1.266 . S
Co544 O547 1.970 . S
Co544 N561 1.989 . S
Co544 O569 1.967 . S
Co544 O576 1.920 . S
Co545 O548 1.966 . S
Co545 N554 2.022 . S
Co545 N562 1.993 . S
Co545 O570 1.941 . S
C546 O547 1.258 . S
C546 O548 1.263 . S
O547 Co544 1.970 . S
O547 C546 1.258 . S
O548 Co545 1.966 . S
O548 C546 1.263 . S
C549 O550 1.235 . S
C549 O576 1.289 . S
O550 C549 1.235 . S
C551 C553 1.400 . S
C551 N554 1.351 . S
C551 C556 1.501 . S
C552 C553 1.387 . S
C552 N555 1.341 . S
C553 C551 1.400 . S
C553 C552 1.387 . S
N554 Co545 2.022 . S
N554 C551 1.351 . S
N554 N555 1.365 . S
N555 C552 1.341 . S
N555 N554 1.365 . S
N555 H575 0.862 . S
C556 C551 1.501 . S
C556 H557 0.961 . S
C556 H558 0.961 . S
C556 H559 0.960 . S
H557 C556 0.961 . S
H558 C556 0.961 . S
H559 C556 0.960 . S
C560 N561 1.342 . S
C560 C564 1.401 . S
C560 C565 1.499 . S
N561 Co544 1.989 . S
N561 C560 1.342 . S
N561 N562 1.388 . S
N562 Co545 1.993 . S
N562 N561 1.388 . S
N562 C563 1.346 . S
C563 N562 1.346 . S
C563 C564 1.396 . S
C563 C573 1.510 . S
C564 C560 1.401 . S
C564 C563 1.396 . S
C565 C560 1.499 . S
C565 H566 0.959 . S
C565 H567 0.960 . S
C565 H568 0.961 . S
H566 C565 0.959 . S
H567 C565 0.960 . S
H568 C565 0.961 . S
O569 Co544 1.967 . S
O569 C577 1.258 . S
O570 Co545 1.941 . S
O570 C577 1.266 . S
H571 C573 0.959 . S
H572 C573 0.961 . S
C573 C563 1.510 . S
C573 H571 0.959 . S
C573 H572 0.961 . S
C573 H574 0.960 . S
H574 C573 0.960 . S
H575 N555 0.862 . S
O576 Co544 1.920 . S
O576 C549 1.289 . S
C577 O569 1.258 . S
C577 O570 1.266 . S
Co578 O581 1.970 . S
Co578 N595 1.989 . S
Co578 O603 1.967 . S
Co578 O610 1.920 . S
Co579 O582 1.966 . S
Co579 N588 2.022 . S
Co579 N596 1.993 . S
Co579 O604 1.941 . S
C580 O581 1.258 . S
C580 O582 1.263 . S
O581 Co578 1.970 . S
O581 C580 1.258 . S
O582 Co579 1.966 . S
O582 C580 1.263 . S
C583 O584 1.235 . S
C583 O610 1.289 . S
O584 C583 1.235 . S
C585 C587 1.400 . S
C585 N588 1.351 . S
C585 C590 1.501 . S
C586 C587 1.387 . S
C586 N589 1.341 . S
C587 C585 1.400 . S
C587 C586 1.387 . S
N588 Co579 2.022 . S
N588 C585 1.351 . S
N588 N589 1.365 . S
N589 C586 1.341 . S
N589 N588 1.365 . S
N589 H609 0.862 . S
C590 C585 1.501 . S
C590 H591 0.961 . S
C590 H592 0.961 . S
C590 H593 0.960 . S
H591 C590 0.961 . S
H592 C590 0.961 . S
H593 C590 0.960 . S
C594 N595 1.342 . S
C594 C598 1.401 . S
C594 C599 1.499 . S
N595 Co578 1.989 . S
N595 C594 1.342 . S
N595 N596 1.388 . S
N596 Co579 1.993 . S
N596 N595 1.388 . S
N596 C597 1.346 . S
C597 N596 1.346 . S
C597 C598 1.396 . S
C597 C607 1.510 . S
C598 C594 1.401 . S
C598 C597 1.396 . S
C599 C594 1.499 . S
C599 H600 0.959 . S
C599 H601 0.960 . S
C599 H602 0.961 . S
H600 C599 0.959 . S
H601 C599 0.960 . S
H602 C599 0.961 . S
O603 Co578 1.967 . S
O603 C611 1.258 . S
O604 Co579 1.941 . S
O604 C611 1.266 . S
H605 C607 0.959 . S
H606 C607 0.961 . S
C607 C597 1.510 . S
C607 H605 0.959 . S
C607 H606 0.961 . S
C607 H608 0.960 . S
H608 C607 0.960 . S
H609 N589 0.862 . S
O610 Co578 1.920 . S
O610 C583 1.289 . S
C611 O603 1.258 . S
C611 O604 1.266 . S
C612 C613 1.391 . S
C612 C614 1.394 . S
C612 H628 0.931 . S
C613 C612 1.391 . S
C613 C617 1.376 . S
C614 C612 1.394 . S
C614 C615 1.369 . S
C614 C618 1.531 . S
C615 C614 1.369 . S
C615 C616 1.410 . S
C615 C623 1.503 . S
C616 C615 1.410 . S
C616 C617 1.392 . S
C616 C619 1.511 . S
C617 C613 1.376 . S
C617 C616 1.392 . S
C617 H629 0.929 . S
C618 C614 1.531 . S
C618 H630 0.960 . S
C618 H631 0.962 . S
C618 H632 0.960 . S
C619 C616 1.511 . S
C619 H633 0.961 . S
C619 H634 0.961 . S
C619 H635 0.961 . S
C620 C621 1.370 . S
C620 C622 1.363 . S
C620 H636 0.931 . S
C621 C620 1.370 . S
C621 C625 1.408 . S
C622 C620 1.363 . S
C622 C623 1.370 . S
C622 C626 1.524 . S
C623 C615 1.503 . S
C623 C622 1.370 . S
C623 C624 1.403 . S
C624 C623 1.403 . S
C624 C625 1.404 . S
C624 C627 1.539 . S
C625 C621 1.408 . S
C625 C624 1.404 . S
C625 H637 0.930 . S
C626 C622 1.524 . S
C626 H638 0.956 . S
C626 H639 0.961 . S
C626 H640 0.961 . S
C627 C624 1.539 . S
C627 H641 0.958 . S
C627 H642 0.961 . S
C627 H643 0.960 . S
H628 C612 0.931 . S
H629 C617 0.929 . S
H630 C618 0.960 . S
H631 C618 0.962 . S
H632 C618 0.960 . S
H633 C619 0.961 . S
H634 C619 0.961 . S
H635 C619 0.961 . S
H636 C620 0.931 . S
H637 C625 0.930 . S
H638 C626 0.956 . S
H639 C626 0.961 . S
H640 C626 0.961 . S
H641 C627 0.958 . S
H642 C627 0.961 . S
H643 C627 0.960 . S
C644 C645 1.391 . S
C644 C646 1.394 . S
C644 H660 0.931 . S
C645 C644 1.391 . S
C645 C649 1.376 . S
C646 C644 1.394 . S
C646 C647 1.369 1_565 S
C646 C650 1.531 1_565 S
C647 C646 1.369 1_545 S
C647 C648 1.410 1_545 S
C647 C655 1.503 . S
C648 C647 1.410 1_565 S
C648 C649 1.392 . S
C648 C651 1.511 1_565 S
C649 C645 1.376 . S
C649 C648 1.392 . S
C649 H661 0.929 . S
C650 C646 1.531 1_545 S
C650 H662 0.960 . S
C650 H663 0.962 . S
C650 H664 0.960 1_545 S
C651 C648 1.511 1_545 S
C651 H665 0.961 1_545 S
C651 H666 0.961 . S
C651 H667 0.961 . S
C652 C653 1.370 . S
C652 C654 1.363 . S
C652 H668 0.931 . S
C653 C652 1.370 . S
C653 C657 1.408 . S
C654 C652 1.363 . S
C654 C655 1.370 . S
C654 C658 1.524 . S
C655 C647 1.503 . S
C655 C654 1.370 . S
C655 C656 1.403 . S
C656 C655 1.403 . S
C656 C657 1.404 . S
C656 C659 1.539 . S
C657 C653 1.408 . S
C657 C656 1.404 . S
C657 H669 0.930 . S
C658 C654 1.524 . S
C658 H670 0.956 . S
C658 H671 0.961 . S
C658 H672 0.961 . S
C659 C656 1.539 . S
C659 H673 0.958 . S
C659 H674 0.961 . S
C659 H675 0.960 . S
H660 C644 0.931 . S
H661 C649 0.929 . S
H662 C650 0.960 . S
H663 C650 0.962 . S
H664 C650 0.960 1_565 S
H665 C651 0.961 1_565 S
H666 C651 0.961 . S
H667 C651 0.961 . S
H668 C652 0.931 . S
H669 C657 0.930 . S
H670 C658 0.956 . S
H671 C658 0.961 . S
H672 C658 0.961 . S
H673 C659 0.958 . S
H674 C659 0.961 . S
H675 C659 0.960 . S
C676 C677 1.391 . S
C676 C678 1.394 . S
C676 H692 0.931 . S
C677 C676 1.391 . S
C677 C681 1.376 . S
C678 C676 1.394 . S
C678 C679 1.369 . S
C678 C682 1.531 . S
C679 C678 1.369 . S
C679 C680 1.410 . S
C679 C687 1.503 1_655 S
C680 C679 1.410 . S
C680 C681 1.392 . S
C680 C683 1.511 . S
C681 C677 1.376 . S
C681 C680 1.392 . S
C681 H693 0.929 . S
C682 C678 1.531 . S
C682 H694 0.959 1_655 S
C682 H695 0.962 . S
C682 H696 0.960 . S
C683 C680 1.511 . S
C683 H697 0.961 . S
C683 H698 0.924 1_655 S
C683 H699 0.961 . S
C684 C685 1.370 . S
C684 C686 1.363 . S
C684 H700 0.931 . S
C685 C684 1.370 . S
C685 C689 1.408 . S
C686 C684 1.363 . S
C686 C687 1.370 . S
C686 C690 1.524 . S
C687 C679 1.503 1_455 S
C687 C686 1.370 . S
C687 C688 1.403 . S
C688 C687 1.403 . S
C688 C689 1.404 . S
C688 C691 1.539 . S
C689 C685 1.408 . S
C689 C688 1.404 . S
C689 H701 0.930 . S
C690 C686 1.524 . S
C690 H702 0.956 1_455 S
C690 H703 0.961 1_455 S
C690 H704 0.961 . S
C691 C688 1.539 . S
C691 H705 0.958 . S
C691 H706 0.961 . S
C691 H707 0.966 . S
H692 C676 0.931 . S
H693 C681 0.929 . S
H694 C682 0.959 1_455 S
H695 C682 0.962 . S
H696 C682 0.960 . S
H697 C683 0.961 . S
H698 C683 0.924 1_455 S
H699 C683 0.961 . S
H700 C684 0.931 . S
H701 C689 0.930 . S
H702 C690 0.956 1_655 S
H703 C690 0.961 1_655 S
H704 C690 0.961 . S
H705 C691 0.958 . S
H706 C691 0.961 . S
H707 C691 0.966 . S
C708 C709 1.391 . S
C708 C710 1.394 . S
C708 H724 0.931 . S
C709 C708 1.391 . S
C709 C713 1.376 . S
C710 C708 1.394 . S
C710 C711 1.369 . S
C710 C714 1.531 . S
C711 C710 1.369 . S
C711 C712 1.410 . S
C711 C719 1.503 . S
C712 C711 1.410 . S
C712 C713 1.392 . S
C712 C715 1.511 . S
C713 C709 1.376 . S
C713 C712 1.392 . S
C713 H725 0.929 . S
C714 C710 1.531 . S
C714 H726 0.960 . S
C714 H727 0.962 . S
C714 H728 0.960 . S
C715 C712 1.511 . S
C715 H729 0.961 . S
C715 H730 0.961 . S
C715 H731 0.961 . S
C716 C717 1.370 . S
C716 C718 1.363 . S
C716 H732 0.931 . S
C717 C716 1.370 . S
C717 C721 1.408 . S
C718 C716 1.363 . S
C718 C719 1.370 . S
C718 C722 1.524 . S
C719 C711 1.503 . S
C719 C718 1.370 . S
C719 C720 1.403 . S
C720 C719 1.403 . S
C720 C721 1.404 . S
C720 C723 1.539 . S
C721 C717 1.408 . S
C721 C720 1.404 . S
C721 H733 0.930 . S
C722 C718 1.524 . S
C722 H734 0.956 . S
C722 H735 0.961 . S
C722 H736 0.961 . S
C723 C720 1.539 . S
C723 H737 0.958 . S
C723 H738 0.961 . S
C723 H739 0.960 . S
H724 C708 0.931 . S
H725 C713 0.929 . S
H726 C714 0.960 . S
H727 C714 0.962 . S
H728 C714 0.960 . S
H729 C715 0.961 . S
H730 C715 0.961 . S
H731 C715 0.961 . S
H732 C716 0.931 . S
H733 C721 0.930 . S
H734 C722 0.956 . S
H735 C722 0.961 . S
H736 C722 0.961 . S
H737 C723 0.958 . S
H738 C723 0.961 . S
H739 C723 0.960 . S
C740 C741 1.391 . S
C740 C742 1.394 . S
C740 H756 0.931 . S
C741 C740 1.391 . S
C741 C745 1.376 . S
C742 C740 1.394 . S
C742 C743 1.369 . S
C742 C746 1.531 . S
C743 C742 1.369 . S
C743 C744 1.410 . S
C743 C751 1.503 1_545 S
C744 C743 1.410 . S
C744 C745 1.392 . S
C744 C747 1.511 . S
C745 C741 1.376 . S
C745 C744 1.392 . S
C745 H757 0.929 . S
C746 C742 1.531 . S
C746 H758 0.960 1_545 S
C746 H759 0.962 . S
C746 H760 0.960 . S
C747 C744 1.511 . S
C747 H761 0.961 . S
C747 H762 0.961 1_545 S
C747 H763 0.961 . S
C748 C749 1.370 . S
C748 C750 1.363 . S
C748 H764 0.931 . S
C749 C748 1.370 . S
C749 C753 1.408 . S
C750 C748 1.363 . S
C750 C751 1.370 . S
C750 C754 1.524 . S
C751 C743 1.503 1_565 S
C751 C750 1.370 . S
C751 C752 1.403 . S
C752 C751 1.403 . S
C752 C753 1.404 . S
C752 C755 1.539 . S
C753 C749 1.408 . S
C753 C752 1.404 . S
C753 H765 0.930 . S
C754 C750 1.524 . S
C754 H766 0.956 . S
C754 H767 0.961 . S
C754 H768 0.961 . S
C755 C752 1.539 . S
C755 H769 0.958 . S
C755 H770 0.961 . S
C755 H771 0.970 . S
H756 C740 0.931 . S
H757 C745 0.929 . S
H758 C746 0.960 1_565 S
H759 C746 0.962 . S
H760 C746 0.960 . S
H761 C747 0.961 . S
H762 C747 0.961 1_565 S
H763 C747 0.961 . S
H764 C748 0.931 . S
H765 C753 0.930 . S
H766 C754 0.956 . S
H767 C754 0.961 . S
H768 C754 0.961 . S
H769 C755 0.958 . S
H770 C755 0.961 . S
H771 C755 0.970 . S
C772 C773 1.391 . S
C772 C774 1.394 . S
C772 H788 0.931 . S
C773 C772 1.391 . S
C773 C777 1.376 . S
C774 C772 1.394 . S
C774 C775 1.369 . S
C774 C778 1.531 . S
C775 C774 1.369 . S
C775 C776 1.410 . S
C775 C783 1.503 . S
C776 C775 1.410 . S
C776 C777 1.392 . S
C776 C779 1.511 . S
C777 C773 1.376 . S
C777 C776 1.392 . S
C777 H789 0.929 . S
C778 C774 1.531 . S
C778 H790 0.960 . S
C778 H791 0.962 . S
C778 H792 0.960 . S
C779 C776 1.511 . S
C779 H793 0.961 . S
C779 H794 0.961 . S
C779 H795 0.961 . S
C780 C781 1.370 . S
C780 C782 1.363 . S
C780 H796 0.931 . S
C781 C780 1.370 . S
C781 C785 1.408 . S
C782 C780 1.363 . S
C782 C783 1.370 1_655 S
C782 C786 1.524 1_655 S
C783 C775 1.503 . S
C783 C782 1.370 1_455 S
C783 C784 1.403 1_455 S
C784 C783 1.403 1_655 S
C784 C785 1.404 . S
C784 C787 1.549 . S
C785 C781 1.408 . S
C785 C784 1.404 . S
C785 H797 0.930 . S
C786 C782 1.524 1_455 S
C786 H798 0.956 . S
C786 H799 0.961 . S
C786 H800 0.961 1_455 S
C787 C784 1.549 . S
C787 H801 0.964 1_655 S
C787 H802 0.964 . S
C787 H803 0.942 1_655 S
H788 C772 0.931 . S
H789 C777 0.929 . S
H790 C778 0.960 . S
H791 C778 0.962 . S
H792 C778 0.960 . S
H793 C779 0.961 . S
H794 C779 0.961 . S
H795 C779 0.961 . S
H796 C780 0.931 . S
H797 C785 0.930 . S
H798 C786 0.956 . S
H799 C786 0.961 . S
H800 C786 0.961 1_655 S
H801 C787 0.964 1_455 S
H802 C787 0.964 . S
H803 C787 0.942 1_455 S
C804 C805 1.391 . S
C804 C806 1.394 . S
C804 H820 0.931 . S
C805 C804 1.391 . S
C805 C809 1.376 . S
C806 C804 1.394 . S
C806 C807 1.369 . S
C806 C810 1.531 . S
C807 C806 1.369 . S
C807 C808 1.410 . S
C807 C815 1.503 . S
C808 C807 1.410 . S
C808 C809 1.392 . S
C808 C811 1.511 . S
C809 C805 1.376 . S
C809 C808 1.392 . S
C809 H821 0.929 . S
C810 C806 1.531 . S
C810 H822 0.960 . S
C810 H823 0.962 . S
C810 H824 0.960 . S
C811 C808 1.511 . S
C811 H825 0.961 . S
C811 H826 0.961 . S
C811 H827 0.961 . S
C812 C813 1.370 . S
C812 C814 1.363 . S
C812 H828 0.931 . S
C813 C812 1.370 . S
C813 C817 1.408 . S
C814 C812 1.363 . S
C814 C815 1.370 . S
C814 C818 1.524 . S
C815 C807 1.503 . S
C815 C814 1.370 . S
C815 C816 1.403 . S
C816 C815 1.403 . S
C816 C817 1.404 . S
C816 C819 1.539 . S
C817 C813 1.408 . S
C817 C816 1.404 . S
C817 H829 0.930 . S
C818 C814 1.524 . S
C818 H830 0.956 . S
C818 H831 0.961 . S
C818 H832 0.961 . S
C819 C816 1.539 . S
C819 H833 0.958 . S
C819 H834 0.961 . S
C819 H835 0.960 . S
H820 C804 0.931 . S
H821 C809 0.929 . S
H822 C810 0.960 . S
H823 C810 0.962 . S
H824 C810 0.960 . S
H825 C811 0.961 . S
H826 C811 0.961 . S
H827 C811 0.961 . S
H828 C812 0.931 . S
H829 C817 0.930 . S
H830 C818 0.956 . S
H831 C818 0.961 . S
H832 C818 0.961 . S
H833 C819 0.958 . S
H834 C819 0.961 . S
H835 C819 0.960 . S
C836 C837 1.391 . S
C836 C838 1.394 . S
C836 H852 0.931 . S
C837 C836 1.391 . S
C837 C841 1.376 . S
C838 C836 1.394 . S
C838 C839 1.369 . S
C838 C842 1.531 . S
C839 C838 1.369 . S
C839 C840 1.410 . S
C839 C847 1.503 . S
C840 C839 1.410 . S
C840 C841 1.392 . S
C840 C843 1.511 . S
C841 C837 1.376 . S
C841 C840 1.392 . S
C841 H853 0.929 . S
C842 C838 1.531 . S
C842 H854 0.960 . S
C842 H855 0.962 . S
C842 H856 0.960 . S
C843 C840 1.511 . S
C843 H857 0.961 . S
C843 H858 0.961 . S
C843 H859 0.961 . S
C844 C845 1.370 . S
C844 C846 1.363 . S
C844 H860 0.931 . S
C845 C844 1.370 . S
C845 C849 1.408 . S
C846 C844 1.363 . S
C846 C847 1.370 . S
C846 C850 1.524 . S
C847 C839 1.503 . S
C847 C846 1.370 . S
C847 C848 1.403 . S
C848 C847 1.403 . S
C848 C849 1.404 . S
C848 C851 1.539 . S
C849 C845 1.408 . S
C849 C848 1.404 . S
C849 H861 0.930 . S
C850 C846 1.524 . S
C850 H862 0.956 . S
C850 H863 0.961 . S
C850 H864 0.961 . S
C851 C848 1.539 . S
C851 H865 0.958 . S
C851 H866 0.961 . S
C851 H867 0.960 . S
H852 C836 0.931 . S
H853 C841 0.929 . S
H854 C842 0.960 . S
H855 C842 0.962 . S
H856 C842 0.960 . S
H857 C843 0.961 . S
H858 C843 0.961 . S
H859 C843 0.961 . S
H860 C844 0.931 . S
H861 C849 0.930 . S
H862 C850 0.956 . S
H863 C850 0.961 . S
H864 C850 0.961 . S
H865 C851 0.958 . S
H866 C851 0.961 . S
H867 C851 0.960 . S
C868 C869 1.391 . S
C868 C870 1.394 . S
C868 H884 0.931 . S
C869 C868 1.391 . S
C869 C873 1.376 . S
C870 C868 1.394 . S
C870 C871 1.369 . S
C870 C874 1.531 . S
C871 C870 1.369 . S
C871 C872 1.410 . S
C871 C879 1.503 . S
C872 C871 1.410 . S
C872 C873 1.392 . S
C872 C875 1.511 . S
C873 C869 1.376 . S
C873 C872 1.392 . S
C873 H885 0.929 . S
C874 C870 1.531 . S
C874 H886 0.960 . S
C874 H887 0.962 . S
C874 H888 0.960 . S
C875 C872 1.511 . S
C875 H889 0.961 . S
C875 H890 0.961 . S
C875 H891 0.961 . S
C876 C877 1.370 . S
C876 C878 1.363 . S
C876 H892 0.931 . S
C877 C876 1.370 . S
C877 C881 1.408 . S
C878 C876 1.363 . S
C878 C879 1.370 . S
C878 C882 1.524 . S
C879 C871 1.503 . S
C879 C878 1.370 . S
C879 C880 1.403 . S
C880 C879 1.403 . S
C880 C881 1.404 . S
C880 C883 1.539 . S
C881 C877 1.408 . S
C881 C880 1.404 . S
C881 H893 0.930 . S
C882 C878 1.524 . S
C882 H894 0.956 . S
C882 H895 0.961 . S
C882 H896 0.961 . S
C883 C880 1.539 . S
C883 H897 0.958 . S
C883 H898 0.961 . S
C883 H899 0.960 . S
H884 C868 0.931 . S
H885 C873 0.929 . S
H886 C874 0.960 . S
H887 C874 0.962 . S
H888 C874 0.960 . S
H889 C875 0.961 . S
H890 C875 0.961 . S
H891 C875 0.961 . S
H892 C876 0.931 . S
H893 C881 0.930 . S
H894 C882 0.956 . S
H895 C882 0.961 . S
H896 C882 0.961 . S
H897 C883 0.958 . S
H898 C883 0.961 . S
H899 C883 0.960 . S
C900 C901 1.391 . S
C900 C902 1.394 . S
C900 H916 0.931 . S
C901 C900 1.391 . S
C901 C905 1.376 . S
C902 C900 1.394 . S
C902 C903 1.369 . S
C902 C906 1.531 . S
C903 C902 1.369 . S
C903 C904 1.410 . S
C903 C911 1.503 . S
C904 C903 1.410 . S
C904 C905 1.392 . S
C904 C907 1.511 . S
C905 C901 1.376 . S
C905 C904 1.392 . S
C905 H917 0.929 . S
C906 C902 1.531 . S
C906 H918 0.960 . S
C906 H919 0.962 . S
C906 H920 0.960 . S
C907 C904 1.511 . S
C907 H921 0.961 . S
C907 H922 0.961 . S
C907 H923 0.961 . S
C908 C909 1.370 . S
C908 C910 1.363 . S
C908 H924 0.931 . S
C909 C908 1.370 . S
C909 C913 1.408 . S
C910 C908 1.363 . S
C910 C911 1.370 . S
C910 C914 1.524 . S
C911 C903 1.503 . S
C911 C910 1.370 . S
C911 C912 1.403 . S
C912 C911 1.403 . S
C912 C913 1.404 . S
C912 C915 1.539 1_554 S
C913 C909 1.408 . S
C913 C912 1.404 . S
C913 H925 0.930 1_554 S
C914 C910 1.524 . S
C914 H926 0.956 . S
C914 H927 0.961 . S
C914 H928 0.961 . S
C915 C912 1.539 1_556 S
C915 H929 0.958 . S
C915 H930 0.961 . S
C915 H931 0.960 . S
H916 C900 0.931 . S
H917 C905 0.929 . S
H918 C906 0.960 . S
H919 C906 0.962 . S
H920 C906 0.960 . S
H921 C907 0.961 . S
H922 C907 0.961 . S
H923 C907 0.961 . S
H924 C908 0.931 . S
H925 C913 0.930 1_556 S
H926 C914 0.956 . S
H927 C914 0.961 . S
H928 C914 0.961 . S
H929 C915 0.958 . S
H930 C915 0.961 . S
H931 C915 0.960 . S
C932 C933 1.391 . S
C932 C934 1.394 . S
C932 H948 0.931 . S
C933 C932 1.391 . S
C933 C937 1.376 . S
C934 C932 1.394 . S
C934 C935 1.369 . S
C934 C938 1.531 . S
C935 C934 1.369 . S
C935 C936 1.410 . S
C935 C943 1.503 . S
C936 C935 1.410 . S
C936 C937 1.392 . S
C936 C939 1.511 1_554 S
C937 C933 1.376 . S
C937 C936 1.392 . S
C937 H949 0.929 . S
C938 C934 1.531 . S
C938 H950 0.960 . S
C938 H951 0.962 . S
C938 H952 0.960 . S
C939 C936 1.511 1_556 S
C939 H953 0.961 . S
C939 H954 0.961 . S
C939 H955 0.961 . S
C940 C941 1.370 . S
C940 C942 1.363 . S
C940 H956 0.931 . S
C941 C940 1.370 . S
C941 C945 1.408 . S
C942 C940 1.363 . S
C942 C943 1.370 . S
C942 C946 1.524 . S
C943 C935 1.503 . S
C943 C942 1.370 . S
C943 C944 1.403 . S
C944 C943 1.403 . S
C944 C945 1.404 . S
C944 C947 1.539 . S
C945 C941 1.408 . S
C945 C944 1.404 . S
C945 H957 0.930 . S
C946 C942 1.524 . S
C946 H958 0.956 . S
C946 H959 0.961 . S
C946 H960 0.961 . S
C947 C944 1.539 . S
C947 H961 0.958 . S
C947 H962 0.961 . S
C947 H963 0.960 . S
H948 C932 0.931 . S
H949 C937 0.929 . S
H950 C938 0.960 . S
H951 C938 0.962 . S
H952 C938 0.960 . S
H953 C939 0.961 . S
H954 C939 0.961 . S
H955 C939 0.961 . S
H956 C940 0.931 . S
H957 C945 0.930 . S
H958 C946 0.956 . S
H959 C946 0.961 . S
H960 C946 0.961 . S
H961 C947 0.958 . S
H962 C947 0.961 . S
H963 C947 0.960 . S
C964 C965 1.391 . S
C964 C966 1.394 . S
C964 H980 0.931 . S
C965 C964 1.391 . S
C965 C969 1.376 . S
C966 C964 1.394 . S
C966 C967 1.369 . S
C966 C970 1.531 . S
C967 C966 1.369 . S
C967 C968 1.410 . S
C967 C975 1.503 . S
C968 C967 1.410 . S
C968 C969 1.392 . S
C968 C971 1.511 . S
C969 C965 1.376 . S
C969 C968 1.392 . S
C969 H981 0.929 . S
C970 C966 1.531 . S
C970 H982 0.960 . S
C970 H983 0.962 . S
C970 H984 0.960 . S
C971 C968 1.511 . S
C971 H985 0.961 . S
C971 H986 0.961 . S
C971 H987 0.961 . S
C972 C973 1.370 . S
C972 C974 1.363 . S
C972 H988 0.931 . S
C973 C972 1.370 . S
C973 C977 1.408 . S
C974 C972 1.363 . S
C974 C975 1.370 . S
C974 C978 1.524 1_554 S
C975 C967 1.503 . S
C975 C974 1.370 . S
C975 C976 1.403 . S
C976 C975 1.403 . S
C976 C977 1.404 . S
C976 C979 1.539 . S
C977 C973 1.408 . S
C977 C976 1.404 . S
C977 H989 0.930 . S
C978 C974 1.524 1_556 S
C978 H990 0.956 . S
C978 H991 0.961 1_556 S
C978 H992 0.961 . S
C979 C976 1.539 . S
C979 H993 0.958 . S
C979 H994 0.961 . S
C979 H995 0.960 . S
H980 C964 0.931 . S
H981 C969 0.929 . S
H982 C970 0.960 . S
H983 C970 0.962 . S
H984 C970 0.960 . S
H985 C971 0.961 . S
H986 C971 0.961 . S
H987 C971 0.961 . S
H988 C972 0.931 . S
H989 C977 0.930 . S
H990 C978 0.956 . S
H991 C978 0.961 1_554 S
H992 C978 0.961 . S
H993 C979 0.958 . S
H994 C979 0.961 . S
H995 C979 0.960 . S
C996 C997 1.391 . S
C996 C998 1.394 . S
C996 H1012 0.931 . S
C997 C996 1.391 . S
C997 C1001 1.376 . S
C998 C996 1.394 . S
C998 C999 1.369 . S
C998 C1002 1.531 . S
C999 C998 1.369 . S
C999 C1000 1.410 . S
C999 C1007 1.503 . S
C1000 C999 1.410 . S
C1000 C1001 1.392 . S
C1000 C1003 1.511 . S
C1001 C997 1.376 . S
C1001 C1000 1.392 . S
C1001 H1013 0.929 . S
C1002 C998 1.531 . S
C1002 H1014 0.960 . S
C1002 H1015 0.962 . S
C1002 H1016 0.960 . S
C1003 C1000 1.511 . S
C1003 H1017 0.961 . S
C1003 H1018 0.961 . S
C1003 H1019 0.961 . S
C1004 C1005 1.370 . S
C1004 C1006 1.363 . S
C1004 H1020 0.931 . S
C1005 C1004 1.370 . S
C1005 C1009 1.408 . S
C1006 C1004 1.363 . S
C1006 C1007 1.370 . S
C1006 C1010 1.524 . S
C1007 C999 1.503 . S
C1007 C1006 1.370 . S
C1007 C1008 1.403 . S
C1008 C1007 1.403 . S
C1008 C1009 1.404 . S
C1008 C1011 1.539 1_556 S
C1009 C1005 1.408 . S
C1009 C1008 1.404 . S
C1009 H1021 0.930 1_556 S
C1010 C1006 1.524 . S
C1010 H1022 0.956 . S
C1010 H1023 0.961 . S
C1010 H1024 0.961 . S
C1011 C1008 1.539 1_554 S
C1011 H1025 0.958 . S
C1011 H1026 0.961 . S
C1011 H1027 0.960 . S
H1012 C996 0.931 . S
H1013 C1001 0.929 . S
H1014 C1002 0.960 . S
H1015 C1002 0.962 . S
H1016 C1002 0.960 . S
H1017 C1003 0.961 . S
H1018 C1003 0.961 . S
H1019 C1003 0.961 . S
H1020 C1004 0.931 . S
H1021 C1009 0.930 1_554 S
H1022 C1010 0.956 . S
H1023 C1010 0.961 . S
H1024 C1010 0.961 . S
H1025 C1011 0.958 . S
H1026 C1011 0.961 . S
H1027 C1011 0.960 . S
C1028 C1029 1.391 . S
C1028 C1030 1.394 . S
C1028 H1044 0.931 . S
C1029 C1028 1.391 . S
C1029 C1033 1.376 . S
C1030 C1028 1.394 . S
C1030 C1031 1.369 . S
C1030 C1034 1.531 1_556 S
C1031 C1030 1.369 . S
C1031 C1032 1.410 . S
C1031 C1039 1.503 . S
C1032 C1031 1.410 . S
C1032 C1033 1.392 . S
C1032 C1035 1.511 . S
C1033 C1029 1.376 . S
C1033 C1032 1.392 . S
C1033 H1045 0.929 . S
C1034 C1030 1.531 1_554 S
C1034 H1046 0.960 . S
C1034 H1047 0.962 . S
C1034 H1048 0.960 . S
C1035 C1032 1.511 . S
C1035 H1049 0.961 . S
C1035 H1050 0.961 . S
C1035 H1051 0.961 . S
C1036 C1037 1.370 . S
C1036 C1038 1.363 . S
C1036 H1052 0.931 . S
C1037 C1036 1.370 . S
C1037 C1041 1.408 . S
C1038 C1036 1.363 . S
C1038 C1039 1.370 . S
C1038 C1042 1.524 . S
C1039 C1031 1.503 . S
C1039 C1038 1.370 . S
C1039 C1040 1.403 . S
C1040 C1039 1.403 . S
C1040 C1041 1.404 . S
C1040 C1043 1.539 . S
C1041 C1037 1.408 . S
C1041 C1040 1.404 . S
C1041 H1053 0.930 . S
C1042 C1038 1.524 . S
C1042 H1054 0.956 . S
C1042 H1055 0.961 . S
C1042 H1056 0.961 . S
C1043 C1040 1.539 . S
C1043 H1057 0.958 1_556 S
C1043 H1058 0.961 . S
C1043 H1059 0.960 . S
H1044 C1028 0.931 . S
H1045 C1033 0.929 . S
H1046 C1034 0.960 . S
H1047 C1034 0.962 . S
H1048 C1034 0.960 . S
H1049 C1035 0.961 . S
H1050 C1035 0.961 . S
H1051 C1035 0.961 . S
H1052 C1036 0.931 . S
H1053 C1041 0.930 . S
H1054 C1042 0.956 . S
H1055 C1042 0.961 . S
H1056 C1042 0.961 . S
H1057 C1043 0.958 1_554 S
H1058 C1043 0.961 . S
H1059 C1043 0.960 . S
C1060 C1061 1.391 . S
C1060 C1062 1.394 . S
C1060 H1076 0.931 . S
C1061 C1060 1.391 . S
C1061 C1065 1.376 . S
C1062 C1060 1.394 . S
C1062 C1063 1.369 . S
C1062 C1066 1.531 . S
C1063 C1062 1.369 . S
C1063 C1064 1.410 . S
C1063 C1071 1.503 . S
C1064 C1063 1.410 . S
C1064 C1065 1.392 . S
C1064 C1067 1.511 . S
C1065 C1061 1.376 . S
C1065 C1064 1.392 . S
C1065 H1077 0.929 . S
C1066 C1062 1.531 . S
C1066 H1078 0.960 . S
C1066 H1079 0.962 . S
C1066 H1080 0.960 . S
C1067 C1064 1.511 . S
C1067 H1081 0.961 . S
C1067 H1082 0.961 . S
C1067 H1083 0.961 . S
C1068 C1069 1.370 . S
C1068 C1070 1.363 . S
C1068 H1084 0.931 . S
C1069 C1068 1.370 . S
C1069 C1073 1.408 . S
C1070 C1068 1.363 . S
C1070 C1071 1.370 . S
C1070 C1074 1.524 . S
C1071 C1063 1.503 . S
C1071 C1070 1.370 . S
C1071 C1072 1.403 . S
C1072 C1071 1.403 . S
C1072 C1073 1.404 . S
C1072 C1075 1.539 . S
C1073 C1069 1.408 . S
C1073 C1072 1.404 . S
C1073 H1085 0.930 . S
C1074 C1070 1.524 . S
C1074 H1086 0.956 1_556 S
C1074 H1087 0.961 . S
C1074 H1088 0.961 1_556 S
C1075 C1072 1.539 . S
C1075 H1089 0.958 . S
C1075 H1090 0.961 . S
C1075 H1091 0.960 . S
H1076 C1060 0.931 . S
H1077 C1065 0.929 . S
H1078 C1066 0.960 . S
H1079 C1066 0.962 . S
H1080 C1066 0.960 . S
H1081 C1067 0.961 . S
H1082 C1067 0.961 . S
H1083 C1067 0.961 . S
H1084 C1068 0.931 . S
H1085 C1073 0.930 . S
H1086 C1074 0.956 1_554 S
H1087 C1074 0.961 . S
H1088 C1074 0.961 1_554 S
H1089 C1075 0.958 . S
H1090 C1075 0.961 . S
H1091 C1075 0.960 . S
C1092 C1093 1.391 . S
C1092 C1094 1.394 . S
C1092 H1108 0.931 . S
C1093 C1092 1.391 . S
C1093 C1097 1.376 . S
C1094 C1092 1.394 . S
C1094 C1095 1.369 . S
C1094 C1098 1.531 . S
C1095 C1094 1.369 . S
C1095 C1096 1.410 . S
C1095 C1103 1.503 . S
C1096 C1095 1.410 . S
C1096 C1097 1.392 . S
C1096 C1099 1.511 . S
C1097 C1093 1.376 . S
C1097 C1096 1.392 . S
C1097 H1109 0.929 . S
C1098 C1094 1.531 . S
C1098 H1110 0.960 . S
C1098 H1111 0.962 . S
C1098 H1112 0.960 . S
C1099 C1096 1.511 . S
C1099 H1113 0.961 . S
C1099 H1114 0.961 . S
C1099 H1115 0.961 . S
C1100 C1101 1.370 . S
C1100 C1102 1.363 . S
C1100 H1116 0.931 . S
C1101 C1100 1.370 . S
C1101 C1105 1.408 . S
C1102 C1100 1.363 . S
C1102 C1103 1.370 . S
C1102 C1106 1.524 . S
C1103 C1095 1.503 . S
C1103 C1102 1.370 . S
C1103 C1104 1.403 . S
C1104 C1103 1.403 . S
C1104 C1105 1.404 . S
C1104 C1107 1.539 . S
C1105 C1101 1.408 . S
C1105 C1104 1.404 . S
C1105 H1117 0.930 . S
C1106 C1102 1.524 . S
C1106 H1118 0.956 . S
C1106 H1119 0.961 . S
C1106 H1120 0.961 . S
C1107 C1104 1.539 . S
C1107 H1121 0.958 . S
C1107 H1122 0.961 . S
C1107 H1123 0.960 . S
H1108 C1092 0.931 . S
H1109 C1097 0.929 . S
H1110 C1098 0.960 . S
H1111 C1098 0.962 . S
H1112 C1098 0.960 . S
H1113 C1099 0.961 . S
H1114 C1099 0.961 . S
H1115 C1099 0.961 . S
H1116 C1100 0.931 . S
H1117 C1105 0.930 . S
H1118 C1106 0.956 . S
H1119 C1106 0.961 . S
H1120 C1106 0.961 . S
H1121 C1107 0.958 . S
H1122 C1107 0.961 . S
H1123 C1107 0.960 . S
C1124 C1125 1.391 . S
C1124 C1126 1.394 . S
C1124 H1140 0.931 . S
C1125 C1124 1.391 . S
C1125 C1129 1.376 . S
C1126 C1124 1.394 . S
C1126 C1127 1.369 . S
C1126 C1130 1.531 . S
C1127 C1126 1.369 . S
C1127 C1128 1.410 . S
C1127 C1135 1.503 . S
C1128 C1127 1.410 . S
C1128 C1129 1.392 . S
C1128 C1131 1.511 . S
C1129 C1125 1.376 . S
C1129 C1128 1.392 . S
C1129 H1141 0.929 . S
C1130 C1126 1.531 . S
C1130 H1142 0.960 . S
C1130 H1143 0.962 . S
C1130 H1144 0.960 . S
C1131 C1128 1.511 . S
C1131 H1145 0.961 . S
C1131 H1146 0.961 . S
C1131 H1147 0.961 . S
C1132 C1133 1.370 . S
C1132 C1134 1.363 . S
C1132 H1148 0.931 . S
C1133 C1132 1.370 . S
C1133 C1137 1.408 . S
C1134 C1132 1.363 . S
C1134 C1135 1.370 . S
C1134 C1138 1.524 . S
C1135 C1127 1.503 . S
C1135 C1134 1.370 . S
C1135 C1136 1.403 . S
C1136 C1135 1.403 . S
C1136 C1137 1.404 . S
C1136 C1139 1.539 . S
C1137 C1133 1.408 . S
C1137 C1136 1.404 . S
C1137 H1149 0.930 . S
C1138 C1134 1.524 . S
C1138 H1150 0.956 . S
C1138 H1151 0.961 . S
C1138 H1152 0.961 . S
C1139 C1136 1.539 . S
C1139 H1153 0.958 . S
C1139 H1154 0.961 . S
C1139 H1155 0.960 . S
H1140 C1124 0.931 . S
H1141 C1129 0.929 . S
H1142 C1130 0.960 . S
H1143 C1130 0.962 . S
H1144 C1130 0.960 . S
H1145 C1131 0.961 . S
H1146 C1131 0.961 . S
H1147 C1131 0.961 . S
H1148 C1132 0.931 . S
H1149 C1137 0.930 . S
H1150 C1138 0.956 . S
H1151 C1138 0.961 . S
H1152 C1138 0.961 . S
H1153 C1139 0.958 . S
H1154 C1139 0.961 . S
H1155 C1139 0.960 . S
C1156 C1157 1.391 . S
C1156 C1158 1.394 . S
C1156 H1172 0.931 . S
C1157 C1156 1.391 . S
C1157 C1161 1.376 . S
C1158 C1156 1.394 . S
C1158 C1159 1.369 . S
C1158 C1162 1.531 . S
C1159 C1158 1.369 . S
C1159 C1160 1.410 . S
C1159 C1167 1.503 . S
C1160 C1159 1.410 . S
C1160 C1161 1.392 . S
C1160 C1163 1.511 . S
C1161 C1157 1.376 . S
C1161 C1160 1.392 . S
C1161 H1173 0.929 . S
C1162 C1158 1.531 . S
C1162 H1174 0.960 . S
C1162 H1175 0.962 . S
C1162 H1176 0.960 . S
C1163 C1160 1.511 . S
C1163 H1177 0.961 . S
C1163 H1178 0.961 . S
C1163 H1179 0.961 . S
C1164 C1165 1.370 . S
C1164 C1166 1.363 . S
C1164 H1180 0.931 . S
C1165 C1164 1.370 . S
C1165 C1169 1.408 . S
C1166 C1164 1.363 . S
C1166 C1167 1.370 . S
C1166 C1170 1.524 . S
C1167 C1159 1.503 . S
C1167 C1166 1.370 . S
C1167 C1168 1.403 . S
C1168 C1167 1.403 . S
C1168 C1169 1.404 . S
C1168 C1171 1.539 . S
C1169 C1165 1.408 . S
C1169 C1168 1.404 . S
C1169 H1181 0.930 . S
C1170 C1166 1.524 . S
C1170 H1182 0.956 . S
C1170 H1183 0.961 . S
C1170 H1184 0.961 . S
C1171 C1168 1.539 . S
C1171 H1185 0.958 . S
C1171 H1186 0.961 . S
C1171 H1187 0.960 . S
H1172 C1156 0.931 . S
H1173 C1161 0.929 . S
H1174 C1162 0.960 . S
H1175 C1162 0.962 . S
H1176 C1162 0.960 . S
H1177 C1163 0.961 . S
H1178 C1163 0.961 . S
H1179 C1163 0.961 . S
H1180 C1164 0.931 . S
H1181 C1169 0.930 . S
H1182 C1170 0.956 . S
H1183 C1170 0.961 . S
H1184 C1170 0.961 . S
H1185 C1171 0.958 . S
H1186 C1171 0.961 . S
H1187 C1171 0.960 . S
C1188 C1189 1.391 . S
C1188 C1190 1.394 . S
C1188 H1204 0.931 . S
C1189 C1188 1.391 . S
C1189 C1193 1.376 . S
C1190 C1188 1.394 . S
C1190 C1191 1.369 . S
C1190 C1194 1.531 . S
C1191 C1190 1.369 . S
C1191 C1192 1.410 . S
C1191 C1199 1.503 . S
C1192 C1191 1.410 . S
C1192 C1193 1.392 . S
C1192 C1195 1.511 . S
C1193 C1189 1.376 . S
C1193 C1192 1.392 . S
C1193 H1205 0.929 . S
C1194 C1190 1.531 . S
C1194 H1206 0.960 . S
C1194 H1207 0.962 . S
C1194 H1208 0.960 . S
C1195 C1192 1.511 . S
C1195 H1209 0.961 . S
C1195 H1210 0.961 . S
C1195 H1211 0.961 . S
C1196 C1197 1.370 . S
C1196 C1198 1.363 . S
C1196 H1212 0.931 . S
C1197 C1196 1.370 . S
C1197 C1201 1.408 . S
C1198 C1196 1.363 . S
C1198 C1199 1.370 . S
C1198 C1202 1.524 . S
C1199 C1191 1.503 . S
C1199 C1198 1.370 . S
C1199 C1200 1.403 . S
C1200 C1199 1.403 . S
C1200 C1201 1.404 . S
C1200 C1203 1.539 . S
C1201 C1197 1.408 . S
C1201 C1200 1.404 . S
C1201 H1213 0.930 . S
C1202 C1198 1.524 . S
C1202 H1214 0.956 . S
C1202 H1215 0.961 . S
C1202 H1216 0.961 . S
C1203 C1200 1.539 . S
C1203 H1217 0.958 . S
C1203 H1218 0.961 . S
C1203 H1219 0.960 . S
H1204 C1188 0.931 . S
H1205 C1193 0.929 . S
H1206 C1194 0.960 . S
H1207 C1194 0.962 . S
H1208 C1194 0.960 . S
H1209 C1195 0.961 . S
H1210 C1195 0.961 . S
H1211 C1195 0.961 . S
H1212 C1196 0.931 . S
H1213 C1201 0.930 . S
H1214 C1202 0.956 . S
H1215 C1202 0.961 . S
H1216 C1202 0.961 . S
H1217 C1203 0.958 . S
H1218 C1203 0.961 . S
H1219 C1203 0.960 . S
C1220 C1221 1.391 . S
C1220 C1222 1.394 . S
C1220 H1236 0.931 . S
C1221 C1220 1.391 . S
C1221 C1225 1.376 . S
C1222 C1220 1.394 . S
C1222 C1223 1.369 . S
C1222 C1226 1.531 . S
C1223 C1222 1.369 . S
C1223 C1224 1.410 . S
C1223 C1231 1.503 . S
C1224 C1223 1.410 . S
C1224 C1225 1.392 . S
C1224 C1227 1.511 . S
C1225 C1221 1.376 . S
C1225 C1224 1.392 . S
C1225 H1237 0.929 . S
C1226 C1222 1.531 . S
C1226 H1238 0.960 . S
C1226 H1239 0.962 . S
C1226 H1240 0.960 . S
C1227 C1224 1.511 . S
C1227 H1241 0.961 . S
C1227 H1242 0.961 . S
C1227 H1243 0.961 . S
C1228 C1229 1.370 . S
C1228 C1230 1.363 . S
C1228 H1244 0.931 . S
C1229 C1228 1.370 . S
C1229 C1233 1.408 . S
C1230 C1228 1.363 . S
C1230 C1231 1.370 . S
C1230 C1234 1.524 . S
C1231 C1223 1.503 . S
C1231 C1230 1.370 . S
C1231 C1232 1.403 . S
C1232 C1231 1.403 . S
C1232 C1233 1.404 . S
C1232 C1235 1.539 . S
C1233 C1229 1.408 . S
C1233 C1232 1.404 . S
C1233 H1245 0.930 . S
C1234 C1230 1.524 . S
C1234 H1246 0.956 . S
C1234 H1247 0.961 . S
C1234 H1248 0.961 . S
C1235 C1232 1.539 . S
C1235 H1249 0.958 . S
C1235 H1250 0.961 . S
C1235 H1251 0.960 . S
H1236 C1220 0.931 . S
H1237 C1225 0.929 . S
H1238 C1226 0.960 . S
H1239 C1226 0.962 . S
H1240 C1226 0.960 . S
H1241 C1227 0.961 . S
H1242 C1227 0.961 . S
H1243 C1227 0.961 . S
H1244 C1228 0.931 . S
H1245 C1233 0.930 . S
H1246 C1234 0.956 . S
H1247 C1234 0.961 . S
H1248 C1234 0.961 . S
H1249 C1235 0.958 . S
H1250 C1235 0.961 . S
H1251 C1235 0.960 . S
C1252 C1253 1.391 . S
C1252 C1254 1.394 . S
C1252 H1268 0.931 . S
C1253 C1252 1.391 . S
C1253 C1257 1.376 . S
C1254 C1252 1.394 . S
C1254 C1255 1.369 . S
C1254 C1258 1.531 . S
C1255 C1254 1.369 . S
C1255 C1256 1.410 . S
C1255 C1263 1.503 . S
C1256 C1255 1.410 . S
C1256 C1257 1.392 . S
C1256 C1259 1.511 . S
C1257 C1253 1.376 . S
C1257 C1256 1.392 . S
C1257 H1269 0.929 . S
C1258 C1254 1.531 . S
C1258 H1270 0.960 . S
C1258 H1271 0.962 . S
C1258 H1272 0.960 . S
C1259 C1256 1.511 . S
C1259 H1273 0.961 . S
C1259 H1274 0.961 . S
C1259 H1275 0.961 . S
C1260 C1261 1.370 . S
C1260 C1262 1.363 . S
C1260 H1276 0.931 . S
C1261 C1260 1.370 . S
C1261 C1265 1.408 . S
C1262 C1260 1.363 . S
C1262 C1263 1.370 . S
C1262 C1266 1.524 . S
C1263 C1255 1.503 . S
C1263 C1262 1.370 . S
C1263 C1264 1.403 . S
C1264 C1263 1.403 . S
C1264 C1265 1.404 . S
C1264 C1267 1.539 . S
C1265 C1261 1.408 . S
C1265 C1264 1.404 . S
C1265 H1277 0.930 . S
C1266 C1262 1.524 . S
C1266 H1278 0.956 . S
C1266 H1279 0.961 . S
C1266 H1280 0.961 . S
C1267 C1264 1.539 . S
C1267 H1281 0.958 . S
C1267 H1282 0.961 . S
C1267 H1283 0.960 . S
H1268 C1252 0.931 . S
H1269 C1257 0.929 . S
H1270 C1258 0.960 . S
H1271 C1258 0.962 . S
H1272 C1258 0.960 . S
H1273 C1259 0.961 . S
H1274 C1259 0.961 . S
H1275 C1259 0.961 . S
H1276 C1260 0.931 . S
H1277 C1265 0.930 . S
H1278 C1266 0.956 . S
H1279 C1266 0.961 . S
H1280 C1266 0.961 . S
H1281 C1267 0.958 . S
H1282 C1267 0.961 . S
H1283 C1267 0.960 . S
C1284 C1285 1.391 . S
C1284 C1286 1.394 . S
C1284 H1300 0.931 . S
C1285 C1284 1.391 . S
C1285 C1289 1.376 . S
C1286 C1284 1.394 . S
C1286 C1287 1.369 . S
C1286 C1290 1.531 . S
C1287 C1286 1.369 . S
C1287 C1288 1.410 . S
C1287 C1295 1.503 . S
C1288 C1287 1.410 . S
C1288 C1289 1.392 . S
C1288 C1291 1.511 . S
C1289 C1285 1.376 . S
C1289 C1288 1.392 . S
C1289 H1301 0.929 . S
C1290 C1286 1.531 . S
C1290 H1302 0.960 . S
C1290 H1303 0.962 . S
C1290 H1304 0.960 . S
C1291 C1288 1.511 . S
C1291 H1305 0.961 . S
C1291 H1306 0.961 . S
C1291 H1307 0.961 . S
C1292 C1293 1.370 . S
C1292 C1294 1.363 . S
C1292 H1308 0.931 . S
C1293 C1292 1.370 . S
C1293 C1297 1.408 . S
C1294 C1292 1.363 . S
C1294 C1295 1.370 . S
C1294 C1298 1.524 . S
C1295 C1287 1.503 . S
C1295 C1294 1.370 . S
C1295 C1296 1.403 . S
C1296 C1295 1.403 . S
C1296 C1297 1.404 . S
C1296 C1299 1.539 . S
C1297 C1293 1.408 . S
C1297 C1296 1.404 . S
C1297 H1309 0.930 . S
C1298 C1294 1.524 . S
C1298 H1310 0.956 . S
C1298 H1311 0.961 . S
C1298 H1312 0.961 . S
C1299 C1296 1.539 . S
C1299 H1313 0.958 . S
C1299 H1314 0.961 . S
C1299 H1315 0.960 . S
H1300 C1284 0.931 . S
H1301 C1289 0.929 . S
H1302 C1290 0.960 . S
H1303 C1290 0.962 . S
H1304 C1290 0.960 . S
H1305 C1291 0.961 . S
H1306 C1291 0.961 . S
H1307 C1291 0.961 . S
H1308 C1292 0.931 . S
H1309 C1297 0.930 . S
H1310 C1298 0.956 . S
H1311 C1298 0.961 . S
H1312 C1298 0.961 . S
H1313 C1299 0.958 . S
H1314 C1299 0.961 . S
H1315 C1299 0.960 . S
C1316 C1317 1.391 . S
C1316 C1318 1.394 . S
C1316 H1332 0.931 . S
C1317 C1316 1.391 . S
C1317 C1321 1.376 . S
C1318 C1316 1.394 . S
C1318 C1319 1.369 . S
C1318 C1322 1.531 . S
C1319 C1318 1.369 . S
C1319 C1320 1.410 . S
C1319 C1327 1.503 . S
C1320 C1319 1.410 . S
C1320 C1321 1.392 . S
C1320 C1323 1.511 . S
C1321 C1317 1.376 . S
C1321 C1320 1.392 . S
C1321 H1333 0.929 . S
C1322 C1318 1.531 . S
C1322 H1334 0.960 . S
C1322 H1335 0.962 . S
C1322 H1336 0.960 . S
C1323 C1320 1.511 . S
C1323 H1337 0.961 . S
C1323 H1338 0.961 . S
C1323 H1339 0.961 . S
C1324 C1325 1.370 . S
C1324 C1326 1.363 . S
C1324 H1340 0.931 . S
C1325 C1324 1.370 . S
C1325 C1329 1.408 . S
C1326 C1324 1.363 . S
C1326 C1327 1.370 . S
C1326 C1330 1.524 . S
C1327 C1319 1.503 . S
C1327 C1326 1.370 . S
C1327 C1328 1.403 . S
C1328 C1327 1.403 . S
C1328 C1329 1.404 . S
C1328 C1331 1.539 . S
C1329 C1325 1.408 . S
C1329 C1328 1.404 . S
C1329 H1341 0.930 . S
C1330 C1326 1.524 . S
C1330 H1342 0.956 . S
C1330 H1343 0.961 . S
C1330 H1344 0.961 . S
C1331 C1328 1.539 . S
C1331 H1345 0.958 . S
C1331 H1346 0.961 . S
C1331 H1347 0.960 . S
H1332 C1316 0.931 . S
H1333 C1321 0.929 . S
H1334 C1322 0.960 . S
H1335 C1322 0.962 . S
H1336 C1322 0.960 . S
H1337 C1323 0.961 . S
H1338 C1323 0.961 . S
H1339 C1323 0.961 . S
H1340 C1324 0.931 . S
H1341 C1329 0.930 . S
H1342 C1330 0.956 . S
H1343 C1330 0.961 . S
H1344 C1330 0.961 . S
H1345 C1331 0.958 . S
H1346 C1331 0.961 . S
H1347 C1331 0.960 . S
C1348 C1349 1.391 . S
C1348 C1350 1.394 . S
C1348 H1364 0.931 . S
C1349 C1348 1.391 . S
C1349 C1353 1.376 . S
C1350 C1348 1.394 . S
C1350 C1351 1.369 . S
C1350 C1354 1.531 . S
C1351 C1350 1.369 . S
C1351 C1352 1.410 . S
C1351 C1359 1.503 . S
C1352 C1351 1.410 . S
C1352 C1353 1.392 . S
C1352 C1355 1.511 . S
C1353 C1349 1.376 . S
C1353 C1352 1.392 . S
C1353 H1365 0.929 . S
C1354 C1350 1.531 . S
C1354 H1366 0.960 . S
C1354 H1367 0.962 . S
C1354 H1368 0.960 . S
C1355 C1352 1.511 . S
C1355 H1369 0.961 . S
C1355 H1370 0.961 . S
C1355 H1371 0.961 . S
C1356 C1357 1.370 . S
C1356 C1358 1.363 . S
C1356 H1372 0.931 . S
C1357 C1356 1.370 . S
C1357 C1361 1.408 . S
C1358 C1356 1.363 . S
C1358 C1359 1.370 . S
C1358 C1362 1.524 . S
C1359 C1351 1.503 . S
C1359 C1358 1.370 . S
C1359 C1360 1.403 . S
C1360 C1359 1.403 . S
C1360 C1361 1.404 . S
C1360 C1363 1.539 . S
C1361 C1357 1.408 . S
C1361 C1360 1.404 . S
C1361 H1373 0.930 . S
C1362 C1358 1.524 . S
C1362 H1374 0.956 . S
C1362 H1375 0.961 . S
C1362 H1376 0.961 . S
C1363 C1360 1.539 . S
C1363 H1377 0.958 . S
C1363 H1378 0.961 . S
C1363 H1379 0.960 . S
H1364 C1348 0.931 . S
H1365 C1353 0.929 . S
H1366 C1354 0.960 . S
H1367 C1354 0.962 . S
H1368 C1354 0.960 . S
H1369 C1355 0.961 . S
H1370 C1355 0.961 . S
H1371 C1355 0.961 . S
H1372 C1356 0.931 . S
H1373 C1361 0.930 . S
H1374 C1362 0.956 . S
H1375 C1362 0.961 . S
H1376 C1362 0.961 . S
H1377 C1363 0.958 . S
H1378 C1363 0.961 . S
H1379 C1363 0.960 . S
C1380 C1381 1.391 . S
C1380 C1382 1.394 . S
C1380 H1396 0.931 . S
C1381 C1380 1.391 . S
C1381 C1385 1.376 . S
C1382 C1380 1.394 . S
C1382 C1383 1.369 . S
C1382 C1386 1.531 1_655 S
C1383 C1382 1.369 . S
C1383 C1384 1.410 . S
C1383 C1391 1.503 1_655 S
C1384 C1383 1.410 . S
C1384 C1385 1.392 . S
C1384 C1387 1.511 . S
C1385 C1381 1.376 . S
C1385 C1384 1.392 . S
C1385 H1397 0.929 . S
C1386 C1382 1.531 1_455 S
C1386 H1398 0.960 . S
C1386 H1399 0.977 . S
C1386 H1400 0.981 . S
C1387 C1384 1.511 . S
C1387 H1401 0.961 . S
C1387 H1402 0.961 1_655 S
C1387 H1403 0.961 1_655 S
C1388 C1389 1.370 . S
C1388 C1390 1.363 . S
C1388 H1404 0.931 . S
C1389 C1388 1.370 . S
C1389 C1393 1.408 . S
C1390 C1388 1.363 . S
C1390 C1391 1.370 . S
C1390 C1394 1.524 1_455 S
C1391 C1383 1.503 1_455 S
C1391 C1390 1.370 . S
C1391 C1392 1.403 . S
C1392 C1391 1.403 . S
C1392 C1393 1.404 . S
C1392 C1395 1.539 . S
C1393 C1389 1.408 . S
C1393 C1392 1.404 . S
C1393 H1405 0.930 . S
C1394 C1390 1.524 1_655 S
C1394 H1406 0.956 . S
C1394 H1407 0.961 . S
C1394 H1408 0.961 . S
C1395 C1392 1.539 . S
C1395 H1409 0.958 . S
C1395 H1410 0.961 . S
C1395 H1411 0.960 . S
H1396 C1380 0.931 . S
H1397 C1385 0.929 . S
H1398 C1386 0.960 . S
H1399 C1386 0.977 . S
H1400 C1386 0.981 . S
H1401 C1387 0.961 . S
H1402 C1387 0.961 1_455 S
H1403 C1387 0.961 1_455 S
H1404 C1388 0.931 . S
H1405 C1393 0.930 . S
H1406 C1394 0.956 . S
H1407 C1394 0.961 . S
H1408 C1394 0.961 . S
H1409 C1395 0.958 . S
H1410 C1395 0.961 . S
H1411 C1395 0.960 . S
C1412 C1413 1.391 . S
C1412 C1414 1.394 . S
C1412 H1428 0.931 . S
C1413 C1412 1.391 . S
C1413 C1417 1.376 . S
C1414 C1412 1.394 . S
C1414 C1415 1.369 . S
C1414 C1418 1.531 . S
C1415 C1414 1.369 . S
C1415 C1416 1.410 . S
C1415 C1423 1.503 . S
C1416 C1415 1.410 . S
C1416 C1417 1.392 . S
C1416 C1419 1.511 . S
C1417 C1413 1.376 . S
C1417 C1416 1.392 . S
C1417 H1429 0.929 . S
C1418 C1414 1.531 . S
C1418 H1430 0.960 . S
C1418 H1431 0.962 . S
C1418 H1432 0.960 . S
C1419 C1416 1.511 . S
C1419 H1433 0.961 . S
C1419 H1434 0.961 . S
C1419 H1435 0.961 . S
C1420 C1421 1.370 . S
C1420 C1422 1.363 . S
C1420 H1436 0.931 . S
C1421 C1420 1.370 . S
C1421 C1425 1.408 . S
C1422 C1420 1.363 . S
C1422 C1423 1.370 . S
C1422 C1426 1.524 . S
C1423 C1415 1.503 . S
C1423 C1422 1.370 . S
C1423 C1424 1.403 . S
C1424 C1423 1.403 . S
C1424 C1425 1.404 . S
C1424 C1427 1.539 . S
C1425 C1421 1.408 . S
C1425 C1424 1.404 . S
C1425 H1437 0.930 . S
C1426 C1422 1.524 . S
C1426 H1438 0.956 . S
C1426 H1439 0.961 . S
C1426 H1440 0.961 . S
C1427 C1424 1.539 . S
C1427 H1441 0.958 . S
C1427 H1442 0.961 . S
C1427 H1443 0.960 . S
H1428 C1412 0.931 . S
H1429 C1417 0.929 . S
H1430 C1418 0.960 . S
H1431 C1418 0.962 . S
H1432 C1418 0.960 . S
H1433 C1419 0.961 . S
H1434 C1419 0.961 . S
H1435 C1419 0.961 . S
H1436 C1420 0.931 . S
H1437 C1425 0.930 . S
H1438 C1426 0.956 . S
H1439 C1426 0.961 . S
H1440 C1426 0.961 . S
H1441 C1427 0.958 . S
H1442 C1427 0.961 . S
H1443 C1427 0.960 . S
C1444 C1445 1.391 . S
C1444 C1446 1.394 . S
C1444 H1460 0.931 . S
C1445 C1444 1.391 . S
C1445 C1449 1.376 . S
C1446 C1444 1.394 . S
C1446 C1447 1.369 . S
C1446 C1450 1.531 1_565 S
C1447 C1446 1.369 . S
C1447 C1448 1.410 . S
C1447 C1455 1.503 1_565 S
C1448 C1447 1.410 . S
C1448 C1449 1.392 . S
C1448 C1451 1.511 . S
C1449 C1445 1.376 . S
C1449 C1448 1.392 . S
C1449 H1461 0.929 . S
C1450 C1446 1.531 1_545 S
C1450 H1462 0.960 . S
C1450 H1463 0.962 . S
C1450 H1464 0.960 . S
C1451 C1448 1.511 . S
C1451 H1465 0.961 . S
C1451 H1466 0.961 1_565 S
C1451 H1467 0.923 1_565 S
C1452 C1453 1.370 . S
C1452 C1454 1.363 . S
C1452 H1468 0.931 . S
C1453 C1452 1.370 . S
C1453 C1457 1.408 . S
C1454 C1452 1.363 . S
C1454 C1455 1.370 . S
C1454 C1458 1.524 1_545 S
C1455 C1447 1.503 1_545 S
C1455 C1454 1.370 . S
C1455 C1456 1.403 . S
C1456 C1455 1.403 . S
C1456 C1457 1.404 . S
C1456 C1459 1.539 . S
C1457 C1453 1.408 . S
C1457 C1456 1.404 . S
C1457 H1469 0.930 . S
C1458 C1454 1.524 1_565 S
C1458 H1470 0.956 . S
C1458 H1471 0.961 . S
C1458 H1472 0.961 . S
C1459 C1456 1.539 . S
C1459 H1473 0.958 . S
C1459 H1474 0.961 . S
C1459 H1475 0.960 . S
H1460 C1444 0.931 . S
H1461 C1449 0.929 . S
H1462 C1450 0.960 . S
H1463 C1450 0.962 . S
H1464 C1450 0.960 . S
H1465 C1451 0.961 . S
H1466 C1451 0.961 1_545 S
H1467 C1451 0.923 1_545 S
H1468 C1452 0.931 . S
H1469 C1457 0.930 . S
H1470 C1458 0.956 . S
H1471 C1458 0.961 . S
H1472 C1458 0.961 . S
H1473 C1459 0.958 . S
H1474 C1459 0.961 . S
H1475 C1459 0.960 . S
C1476 C1477 1.394 1_565 S
C1476 C1478 1.393 . S
C1476 H1492 0.928 . S
C1477 C1476 1.394 1_545 S
C1477 C1481 1.376 . S
C1478 C1476 1.393 . S
C1478 C1479 1.410 1_565 S
C1478 C1482 1.514 . S
C1479 C1478 1.410 1_545 S
C1479 C1480 1.391 . S
C1479 C1487 1.509 . S
C1480 C1479 1.391 . S
C1480 C1481 1.392 . S
C1480 C1483 1.511 . S
C1481 C1477 1.376 . S
C1481 C1480 1.392 . S
C1481 H1493 0.929 . S
C1482 C1478 1.514 . S
C1482 H1494 0.960 . S
C1482 H1495 0.962 1_565 S
C1482 H1496 0.960 . S
C1483 C1480 1.511 . S
C1483 H1497 0.961 . S
C1483 H1498 0.961 . S
C1483 H1499 0.961 1_545 S
C1484 C1485 1.370 . S
C1484 C1486 1.363 . S
C1484 H1500 0.931 . S
C1485 C1484 1.370 . S
C1485 C1489 1.408 1_545 S
C1486 C1484 1.363 . S
C1486 C1487 1.370 . S
C1486 C1490 1.524 . S
C1487 C1479 1.509 . S
C1487 C1486 1.370 . S
C1487 C1488 1.403 1_545 S
C1488 C1487 1.403 1_565 S
C1488 C1489 1.404 . S
C1488 C1491 1.539 . S
C1489 C1485 1.408 1_565 S
C1489 C1488 1.404 . S
C1489 H1501 0.930 . S
C1490 C1486 1.524 . S
C1490 H1502 0.956 . S
C1490 H1503 0.961 . S
C1490 H1504 0.961 . S
C1491 C1488 1.539 . S
C1491 H1505 0.958 . S
C1491 H1506 0.961 . S
C1491 H1507 0.960 . S
H1492 C1476 0.928 . S
H1493 C1481 0.929 . S
H1494 C1482 0.960 . S
H1495 C1482 0.962 1_545 S
H1496 C1482 0.960 . S
H1497 C1483 0.961 . S
H1498 C1483 0.961 . S
H1499 C1483 0.961 1_565 S
H1500 C1484 0.931 . S
H1501 C1489 0.930 . S
H1502 C1490 0.956 . S
H1503 C1490 0.961 . S
H1504 C1490 0.961 . S
H1505 C1491 0.958 . S
H1506 C1491 0.961 . S
H1507 C1491 0.960 . S
C1508 C1509 1.391 1_655 S
C1508 C1510 1.391 1_655 S
C1508 H1524 0.931 . S
C1509 C1508 1.391 1_455 S
C1509 C1513 1.376 . S
C1510 C1508 1.391 1_455 S
C1510 C1511 1.406 . S
C1510 C1514 1.497 1_455 S
C1511 C1510 1.406 . S
C1511 C1512 1.410 . S
C1511 C1519 1.503 . S
C1512 C1511 1.410 . S
C1512 C1513 1.392 . S
C1512 C1515 1.511 . S
C1513 C1509 1.376 . S
C1513 C1512 1.392 . S
C1513 H1525 0.929 . S
C1514 C1510 1.497 1_655 S
C1514 H1526 0.939 1_655 S
C1514 H1527 0.962 . S
C1514 H1528 0.960 . S
C1515 C1512 1.511 . S
C1515 H1529 0.961 . S
C1515 H1530 0.961 . S
C1515 H1531 0.961 . S
C1516 C1517 1.370 1_655 S
C1516 C1518 1.363 . S
C1516 H1532 0.931 . S
C1517 C1516 1.370 1_455 S
C1517 C1521 1.408 . S
C1518 C1516 1.363 . S
C1518 C1519 1.370 1_655 S
C1518 C1522 1.524 . S
C1519 C1511 1.503 . S
C1519 C1518 1.370 1_455 S
C1519 C1520 1.403 . S
C1520 C1519 1.403 . S
C1520 C1521 1.404 . S
C1520 C1523 1.539 . S
C1521 C1517 1.408 . S
C1521 C1520 1.404 . S
C1521 H1533 0.930 . S
C1522 C1518 1.524 . S
C1522 H1534 0.956 . S
C1522 H1535 0.961 . S
C1522 H1536 0.961 . S
C1523 C1520 1.539 . S
C1523 H1537 0.958 . S
C1523 H1538 0.961 . S
C1523 H1539 0.960 . S
H1524 C1508 0.931 . S
H1525 C1513 0.929 . S
H1526 C1514 0.939 1_455 S
H1527 C1514 0.962 . S
H1528 C1514 0.960 . S
H1529 C1515 0.961 . S
H1530 C1515 0.961 . S
H1531 C1515 0.961 . S
H1532 C1516 0.931 . S
H1533 C1521 0.930 . S
H1534 C1522 0.956 . S
H1535 C1522 0.961 . S
H1536 C1522 0.961 . S
H1537 C1523 0.958 . S
H1538 C1523 0.961 . S
H1539 C1523 0.960 . S
C1540 C1541 1.391 . S
C1540 C1542 1.394 . S
C1540 H1556 0.931 . S
C1541 C1540 1.391 . S
C1541 C1545 1.376 . S
C1542 C1540 1.394 . S
C1542 C1543 1.369 . S
C1542 C1546 1.531 . S
C1543 C1542 1.369 . S
C1543 C1544 1.410 . S
C1543 C1551 1.503 . S
C1544 C1543 1.410 . S
C1544 C1545 1.392 . S
C1544 C1547 1.511 . S
C1545 C1541 1.376 . S
C1545 C1544 1.392 . S
C1545 H1557 0.929 . S
C1546 C1542 1.531 . S
C1546 H1558 0.960 . S
C1546 H1559 0.962 . S
C1546 H1560 0.960 . S
C1547 C1544 1.511 . S
C1547 H1561 0.961 . S
C1547 H1562 0.961 . S
C1547 H1563 0.961 . S
C1548 C1549 1.370 . S
C1548 C1550 1.363 . S
C1548 H1564 0.931 . S
C1549 C1548 1.370 . S
C1549 C1553 1.408 . S
C1550 C1548 1.363 . S
C1550 C1551 1.370 . S
C1550 C1554 1.524 . S
C1551 C1543 1.503 . S
C1551 C1550 1.370 . S
C1551 C1552 1.403 . S
C1552 C1551 1.403 . S
C1552 C1553 1.404 . S
C1552 C1555 1.539 . S
C1553 C1549 1.408 . S
C1553 C1552 1.404 . S
C1553 H1565 0.930 . S
C1554 C1550 1.524 . S
C1554 H1566 0.956 . S
C1554 H1567 0.961 . S
C1554 H1568 0.961 . S
C1555 C1552 1.539 . S
C1555 H1569 0.958 . S
C1555 H1570 0.961 . S
C1555 H1571 0.960 . S
H1556 C1540 0.931 . S
H1557 C1545 0.929 . S
H1558 C1546 0.960 . S
H1559 C1546 0.962 . S
H1560 C1546 0.960 . S
H1561 C1547 0.961 . S
H1562 C1547 0.961 . S
H1563 C1547 0.961 . S
H1564 C1548 0.931 . S
H1565 C1553 0.930 . S
H1566 C1554 0.956 . S
H1567 C1554 0.961 . S
H1568 C1554 0.961 . S
H1569 C1555 0.958 . S
H1570 C1555 0.961 . S
H1571 C1555 0.960 . S
C1572 C1573 1.391 . S
C1572 C1574 1.394 . S
C1572 H1588 0.931 . S
C1573 C1572 1.391 . S
C1573 C1577 1.376 . S
C1574 C1572 1.394 . S
C1574 C1575 1.369 . S
C1574 C1578 1.531 . S
C1575 C1574 1.369 . S
C1575 C1576 1.410 . S
C1575 C1583 1.503 . S
C1576 C1575 1.410 . S
C1576 C1577 1.392 . S
C1576 C1579 1.511 . S
C1577 C1573 1.376 . S
C1577 C1576 1.392 . S
C1577 H1589 0.929 . S
C1578 C1574 1.531 . S
C1578 H1590 0.960 . S
C1578 H1591 0.962 . S
C1578 H1592 0.960 . S
C1579 C1576 1.511 . S
C1579 H1593 0.961 . S
C1579 H1594 0.961 . S
C1579 H1595 0.961 . S
C1580 C1581 1.370 . S
C1580 C1582 1.363 . S
C1580 H1596 0.931 . S
C1581 C1580 1.370 . S
C1581 C1585 1.408 . S
C1582 C1580 1.363 . S
C1582 C1583 1.370 . S
C1582 C1586 1.524 . S
C1583 C1575 1.503 . S
C1583 C1582 1.370 . S
C1583 C1584 1.403 . S
C1584 C1583 1.403 . S
C1584 C1585 1.404 . S
C1584 C1587 1.539 . S
C1585 C1581 1.408 . S
C1585 C1584 1.404 . S
C1585 H1597 0.930 . S
C1586 C1582 1.524 . S
C1586 H1598 0.956 . S
C1586 H1599 0.961 . S
C1586 H1600 0.961 . S
C1587 C1584 1.539 . S
C1587 H1601 0.958 . S
C1587 H1602 0.961 . S
C1587 H1603 0.960 . S
H1588 C1572 0.931 . S
H1589 C1577 0.929 . S
H1590 C1578 0.960 . S
H1591 C1578 0.962 . S
H1592 C1578 0.960 . S
H1593 C1579 0.961 . S
H1594 C1579 0.961 . S
H1595 C1579 0.961 . S
H1596 C1580 0.931 . S
H1597 C1585 0.930 . S
H1598 C1586 0.956 . S
H1599 C1586 0.961 . S
H1600 C1586 0.961 . S
H1601 C1587 0.958 . S
H1602 C1587 0.961 . S
H1603 C1587 0.960 . S
C1604 C1605 1.391 . S
C1604 C1606 1.394 . S
C1604 H1620 0.931 . S
C1605 C1604 1.391 . S
C1605 C1609 1.376 . S
C1606 C1604 1.394 . S
C1606 C1607 1.369 . S
C1606 C1610 1.531 . S
C1607 C1606 1.369 . S
C1607 C1608 1.410 . S
C1607 C1615 1.503 . S
C1608 C1607 1.410 . S
C1608 C1609 1.392 . S
C1608 C1611 1.511 . S
C1609 C1605 1.376 . S
C1609 C1608 1.392 . S
C1609 H1621 0.929 . S
C1610 C1606 1.531 . S
C1610 H1622 0.960 . S
C1610 H1623 0.962 . S
C1610 H1624 0.960 . S
C1611 C1608 1.511 . S
C1611 H1625 0.961 . S
C1611 H1626 0.961 . S
C1611 H1627 0.961 . S
C1612 C1613 1.370 . S
C1612 C1614 1.363 . S
C1612 H1628 0.931 . S
C1613 C1612 1.370 . S
C1613 C1617 1.408 . S
C1614 C1612 1.363 . S
C1614 C1615 1.370 . S
C1614 C1618 1.524 . S
C1615 C1607 1.503 . S
C1615 C1614 1.370 . S
C1615 C1616 1.403 . S
C1616 C1615 1.403 . S
C1616 C1617 1.404 . S
C1616 C1619 1.539 . S
C1617 C1613 1.408 . S
C1617 C1616 1.404 . S
C1617 H1629 0.930 . S
C1618 C1614 1.524 . S
C1618 H1630 0.956 . S
C1618 H1631 0.961 . S
C1618 H1632 0.961 . S
C1619 C1616 1.539 . S
C1619 H1633 0.958 . S
C1619 H1634 0.961 . S
C1619 H1635 0.960 . S
H1620 C1604 0.931 . S
H1621 C1609 0.929 . S
H1622 C1610 0.960 . S
H1623 C1610 0.962 . S
H1624 C1610 0.960 . S
H1625 C1611 0.961 . S
H1626 C1611 0.961 . S
H1627 C1611 0.961 . S
H1628 C1612 0.931 . S
H1629 C1617 0.930 . S
H1630 C1618 0.956 . S
H1631 C1618 0.961 . S
H1632 C1618 0.961 . S
H1633 C1619 0.958 . S
H1634 C1619 0.961 . S
H1635 C1619 0.960 . S
C1636 C1637 1.391 . S
C1636 C1638 1.394 . S
C1636 H1652 0.931 . S
C1637 C1636 1.391 . S
C1637 C1641 1.376 . S
C1638 C1636 1.394 . S
C1638 C1639 1.369 . S
C1638 C1642 1.531 . S
C1639 C1638 1.369 . S
C1639 C1640 1.410 . S
C1639 C1647 1.503 . S
C1640 C1639 1.410 . S
C1640 C1641 1.392 . S
C1640 C1643 1.511 . S
C1641 C1637 1.376 . S
C1641 C1640 1.392 . S
C1641 H1653 0.929 . S
C1642 C1638 1.531 . S
C1642 H1654 0.960 . S
C1642 H1655 0.962 . S
C1642 H1656 0.960 . S
C1643 C1640 1.511 . S
C1643 H1657 0.961 . S
C1643 H1658 0.961 . S
C1643 H1659 0.961 . S
C1644 C1645 1.370 . S
C1644 C1646 1.363 . S
C1644 H1660 0.931 . S
C1645 C1644 1.370 . S
C1645 C1649 1.408 . S
C1646 C1644 1.363 . S
C1646 C1647 1.370 . S
C1646 C1650 1.524 . S
C1647 C1639 1.503 . S
C1647 C1646 1.370 . S
C1647 C1648 1.403 . S
C1648 C1647 1.403 . S
C1648 C1649 1.404 . S
C1648 C1651 1.539 . S
C1649 C1645 1.408 . S
C1649 C1648 1.404 . S
C1649 H1661 0.930 . S
C1650 C1646 1.524 . S
C1650 H1662 0.956 . S
C1650 H1663 0.961 . S
C1650 H1664 0.961 . S
C1651 C1648 1.539 . S
C1651 H1665 0.958 . S
C1651 H1666 0.961 . S
C1651 H1667 0.960 . S
H1652 C1636 0.931 . S
H1653 C1641 0.929 . S
H1654 C1642 0.960 . S
H1655 C1642 0.962 . S
H1656 C1642 0.960 . S
H1657 C1643 0.961 . S
H1658 C1643 0.961 . S
H1659 C1643 0.961 . S
H1660 C1644 0.931 . S
H1661 C1649 0.930 . S
H1662 C1650 0.956 . S
H1663 C1650 0.961 . S
H1664 C1650 0.961 . S
H1665 C1651 0.958 . S
H1666 C1651 0.961 . S
H1667 C1651 0.960 . S
C1668 C1669 1.391 . S
C1668 C1670 1.394 . S
C1668 H1684 0.931 . S
C1669 C1668 1.391 . S
C1669 C1673 1.376 . S
C1670 C1668 1.394 . S
C1670 C1671 1.369 . S
C1670 C1674 1.531 . S
C1671 C1670 1.369 . S
C1671 C1672 1.410 . S
C1671 C1679 1.503 . S
C1672 C1671 1.410 . S
C1672 C1673 1.392 . S
C1672 C1675 1.511 . S
C1673 C1669 1.376 . S
C1673 C1672 1.392 . S
C1673 H1685 0.929 . S
C1674 C1670 1.531 . S
C1674 H1686 0.960 . S
C1674 H1687 0.962 . S
C1674 H1688 0.960 . S
C1675 C1672 1.511 . S
C1675 H1689 0.961 . S
C1675 H1690 0.961 . S
C1675 H1691 0.961 . S
C1676 C1677 1.370 . S
C1676 C1678 1.363 . S
C1676 H1692 0.931 . S
C1677 C1676 1.370 . S
C1677 C1681 1.408 . S
C1678 C1676 1.363 . S
C1678 C1679 1.370 . S
C1678 C1682 1.524 . S
C1679 C1671 1.503 . S
C1679 C1678 1.370 . S
C1679 C1680 1.403 . S
C1680 C1679 1.403 . S
C1680 C1681 1.404 . S
C1680 C1683 1.539 . S
C1681 C1677 1.408 . S
C1681 C1680 1.404 . S
C1681 H1693 0.930 . S
C1682 C1678 1.524 . S
C1682 H1694 0.956 . S
C1682 H1695 0.961 . S
C1682 H1696 0.961 . S
C1683 C1680 1.539 . S
C1683 H1697 0.958 . S
C1683 H1698 0.961 . S
C1683 H1699 0.960 . S
H1684 C1668 0.931 . S
H1685 C1673 0.929 . S
H1686 C1674 0.960 . S
H1687 C1674 0.962 . S
H1688 C1674 0.960 . S
H1689 C1675 0.961 . S
H1690 C1675 0.961 . S
H1691 C1675 0.961 . S
H1692 C1676 0.931 . S
H1693 C1681 0.930 . S
H1694 C1682 0.956 . S
H1695 C1682 0.961 . S
H1696 C1682 0.961 . S
H1697 C1683 0.958 . S
H1698 C1683 0.961 . S
H1699 C1683 0.960 . S
C1700 C1701 1.391 . S
C1700 C1702 1.394 . S
C1700 H1716 0.931 . S
C1701 C1700 1.391 . S
C1701 C1705 1.376 . S
C1702 C1700 1.394 . S
C1702 C1703 1.369 . S
C1702 C1706 1.531 . S
C1703 C1702 1.369 . S
C1703 C1704 1.410 . S
C1703 C1711 1.503 . S
C1704 C1703 1.410 . S
C1704 C1705 1.392 . S
C1704 C1707 1.511 . S
C1705 C1701 1.376 . S
C1705 C1704 1.392 . S
C1705 H1717 0.929 . S
C1706 C1702 1.531 . S
C1706 H1718 0.960 . S
C1706 H1719 0.962 . S
C1706 H1720 0.960 . S
C1707 C1704 1.511 . S
C1707 H1721 0.961 . S
C1707 H1722 0.961 . S
C1707 H1723 0.961 . S
C1708 C1709 1.370 . S
C1708 C1710 1.363 . S
C1708 H1724 0.931 . S
C1709 C1708 1.370 . S
C1709 C1713 1.408 . S
C1710 C1708 1.363 . S
C1710 C1711 1.370 . S
C1710 C1714 1.524 . S
C1711 C1703 1.503 . S
C1711 C1710 1.370 . S
C1711 C1712 1.403 . S
C1712 C1711 1.403 . S
C1712 C1713 1.404 . S
C1712 C1715 1.539 . S
C1713 C1709 1.408 . S
C1713 C1712 1.404 . S
C1713 H1725 0.930 . S
C1714 C1710 1.524 . S
C1714 H1726 0.956 . S
C1714 H1727 0.961 . S
C1714 H1728 0.961 . S
C1715 C1712 1.539 . S
C1715 H1729 0.958 . S
C1715 H1730 0.961 . S
C1715 H1731 0.960 . S
H1716 C1700 0.931 . S
H1717 C1705 0.929 . S
H1718 C1706 0.960 . S
H1719 C1706 0.962 . S
H1720 C1706 0.960 . S
H1721 C1707 0.961 . S
H1722 C1707 0.961 . S
H1723 C1707 0.961 . S
H1724 C1708 0.931 . S
H1725 C1713 0.930 . S
H1726 C1714 0.956 . S
H1727 C1714 0.961 . S
H1728 C1714 0.961 . S
H1729 C1715 0.958 . S
H1730 C1715 0.961 . S
H1731 C1715 0.960 . S
C1732 C1733 1.391 . S
C1732 C1734 1.394 . S
C1732 H1748 0.931 . S
C1733 C1732 1.391 . S
C1733 C1737 1.376 . S
C1734 C1732 1.394 . S
C1734 C1735 1.369 . S
C1734 C1738 1.531 . S
C1735 C1734 1.369 . S
C1735 C1736 1.410 . S
C1735 C1743 1.503 . S
C1736 C1735 1.410 . S
C1736 C1737 1.392 . S
C1736 C1739 1.511 . S
C1737 C1733 1.376 . S
C1737 C1736 1.392 . S
C1737 H1749 0.929 . S
C1738 C1734 1.531 . S
C1738 H1750 0.960 . S
C1738 H1751 0.962 . S
C1738 H1752 0.960 . S
C1739 C1736 1.511 . S
C1739 H1753 0.961 . S
C1739 H1754 0.961 . S
C1739 H1755 0.961 . S
C1740 C1741 1.370 . S
C1740 C1742 1.363 . S
C1740 H1756 0.931 . S
C1741 C1740 1.370 . S
C1741 C1745 1.408 . S
C1742 C1740 1.363 . S
C1742 C1743 1.370 . S
C1742 C1746 1.524 . S
C1743 C1735 1.503 . S
C1743 C1742 1.370 . S
C1743 C1744 1.403 . S
C1744 C1743 1.403 . S
C1744 C1745 1.404 . S
C1744 C1747 1.539 . S
C1745 C1741 1.408 . S
C1745 C1744 1.404 . S
C1745 H1757 0.930 . S
C1746 C1742 1.524 . S
C1746 H1758 0.956 . S
C1746 H1759 0.961 . S
C1746 H1760 0.961 . S
C1747 C1744 1.539 . S
C1747 H1761 0.958 . S
C1747 H1762 0.961 . S
C1747 H1763 0.960 . S
H1748 C1732 0.931 . S
H1749 C1737 0.929 . S
H1750 C1738 0.960 . S
H1751 C1738 0.962 . S
H1752 C1738 0.960 . S
H1753 C1739 0.961 . S
H1754 C1739 0.961 . S
H1755 C1739 0.961 . S
H1756 C1740 0.931 . S
H1757 C1745 0.930 . S
H1758 C1746 0.956 . S
H1759 C1746 0.961 . S
H1760 C1746 0.961 . S
H1761 C1747 0.958 . S
H1762 C1747 0.961 . S
H1763 C1747 0.960 . S
C1764 C1765 1.391 . S
C1764 C1766 1.394 . S
C1764 H1780 0.931 . S
C1765 C1764 1.391 . S
C1765 C1769 1.376 . S
C1766 C1764 1.394 . S
C1766 C1767 1.369 . S
C1766 C1770 1.531 . S
C1767 C1766 1.369 . S
C1767 C1768 1.389 1_565 S
C1767 C1775 1.503 1_564 S
C1768 C1767 1.389 1_545 S
C1768 C1769 1.386 1_545 S
C1768 C1771 1.539 . S
C1769 C1765 1.376 . S
C1769 C1768 1.386 1_565 S
C1769 H1781 0.929 . S
C1770 C1766 1.531 . S
C1770 H1782 0.960 1_554 S
C1770 H1783 0.962 1_565 S
C1770 H1784 0.960 . S
C1771 C1768 1.539 . S
C1771 H1785 0.961 . S
C1771 H1786 0.964 . S
C1771 H1787 0.961 1_545 S
C1772 C1773 1.370 . S
C1772 C1774 1.363 . S
C1772 H1788 0.931 . S
C1773 C1772 1.370 . S
C1773 C1777 1.408 1_545 S
C1774 C1772 1.363 . S
C1774 C1775 1.370 . S
C1774 C1778 1.524 . S
C1775 C1767 1.503 1_546 S
C1775 C1774 1.370 . S
C1775 C1776 1.403 1_545 S
C1776 C1775 1.403 1_565 S
C1776 C1777 1.404 . S
C1776 C1779 1.539 . S
C1777 C1773 1.408 1_565 S
C1777 C1776 1.404 . S
C1777 H1789 0.930 . S
C1778 C1774 1.524 . S
C1778 H1790 0.956 1_556 S
C1778 H1791 0.961 1_556 S
C1778 H1792 0.961 . S
C1779 C1776 1.539 . S
C1779 H1793 0.958 . S
C1779 H1794 0.961 . S
C1779 H1795 0.960 . S
H1780 C1764 0.931 . S
H1781 C1769 0.929 . S
H1782 C1770 0.960 1_556 S
H1783 C1770 0.962 1_545 S
H1784 C1770 0.960 . S
H1785 C1771 0.961 . S
H1786 C1771 0.964 . S
H1787 C1771 0.961 1_565 S
H1788 C1772 0.931 . S
H1789 C1777 0.930 . S
H1790 C1778 0.956 1_554 S
H1791 C1778 0.961 1_554 S
H1792 C1778 0.961 . S
H1793 C1779 0.958 . S
H1794 C1779 0.961 . S
H1795 C1779 0.960 . S
C1796 C1797 1.391 . S
C1796 C1798 1.394 . S
C1796 H1812 0.931 . S
C1797 C1796 1.391 . S
C1797 C1801 1.376 . S
C1798 C1796 1.394 . S
C1798 C1799 1.369 . S
C1798 C1802 1.531 . S
C1799 C1798 1.369 . S
C1799 C1800 1.410 1_455 S
C1799 C1807 1.507 1_554 S
C1800 C1799 1.410 1_655 S
C1800 C1801 1.392 1_655 S
C1800 C1803 1.511 . S
C1801 C1797 1.376 . S
C1801 C1800 1.392 1_455 S
C1801 H1813 0.929 . S
C1802 C1798 1.531 . S
C1802 H1814 0.960 1_554 S
C1802 H1815 0.962 . S
C1802 H1816 0.960 . S
C1803 C1800 1.511 . S
C1803 H1817 0.961 . S
C1803 H1818 0.961 . S
C1803 H1819 0.961 . S
C1804 C1805 1.370 1_455 S
C1804 C1806 1.363 . S
C1804 H1820 0.931 . S
C1805 C1804 1.370 1_655 S
C1805 C1809 1.408 . S
C1806 C1804 1.363 . S
C1806 C1807 1.379 . S
C1806 C1810 1.524 . S
C1807 C1799 1.507 1_556 S
C1807 C1806 1.379 . S
C1807 C1808 1.391 1_455 S
C1808 C1807 1.391 1_655 S
C1808 C1809 1.404 . S
C1808 C1811 1.539 . S
C1809 C1805 1.408 . S
C1809 C1808 1.404 . S
C1809 H1821 0.930 . S
C1810 C1806 1.524 . S
C1810 H1822 0.956 . S
C1810 H1823 0.961 . S
C1810 H1824 0.961 . S
C1811 C1808 1.539 . S
C1811 H1825 0.958 . S
C1811 H1826 0.961 . S
C1811 H1827 0.960 1_556 S
H1812 C1796 0.931 . S
H1813 C1801 0.929 . S
H1814 C1802 0.960 1_556 S
H1815 C1802 0.962 . S
H1816 C1802 0.960 . S
H1817 C1803 0.961 . S
H1818 C1803 0.961 . S
H1819 C1803 0.961 . S
H1820 C1804 0.931 . S
H1821 C1809 0.930 . S
H1822 C1810 0.956 . S
H1823 C1810 0.961 . S
H1824 C1810 0.961 . S
H1825 C1811 0.958 . S
H1826 C1811 0.961 . S
H1827 C1811 0.960 1_554 S
C1828 C1829 1.391 . S
C1828 C1830 1.394 . S
C1828 H1844 0.931 . S
C1829 C1828 1.391 . S
C1829 C1833 1.376 . S
C1830 C1828 1.394 . S
C1830 C1831 1.369 . S
C1830 C1834 1.531 . S
C1831 C1830 1.369 . S
C1831 C1832 1.410 . S
C1831 C1839 1.503 1_556 S
C1832 C1831 1.410 . S
C1832 C1833 1.392 . S
C1832 C1835 1.511 . S
C1833 C1829 1.376 . S
C1833 C1832 1.392 . S
C1833 H1845 0.929 . S
C1834 C1830 1.531 . S
C1834 H1846 0.960 1_556 S
C1834 H1847 0.962 . S
C1834 H1848 0.960 . S
C1835 C1832 1.511 . S
C1835 H1849 0.961 . S
C1835 H1850 0.961 1_556 S
C1835 H1851 0.961 . S
C1836 C1837 1.370 . S
C1836 C1838 1.363 . S
C1836 H1852 0.931 . S
C1837 C1836 1.370 . S
C1837 C1841 1.408 . S
C1838 C1836 1.363 . S
C1838 C1839 1.370 . S
C1838 C1842 1.519 1_554 S
C1839 C1831 1.503 1_554 S
C1839 C1838 1.370 . S
C1839 C1840 1.403 . S
C1840 C1839 1.403 . S
C1840 C1841 1.404 . S
C1840 C1843 1.539 . S
C1841 C1837 1.408 . S
C1841 C1840 1.404 . S
C1841 H1853 0.930 . S
C1842 C1838 1.519 1_556 S
C1842 H1854 0.960 . S
C1842 H1855 0.965 . S
C1842 H1856 0.958 1_556 S
C1843 C1840 1.539 . S
C1843 H1857 0.958 . S
C1843 H1858 0.961 . S
C1843 H1859 0.960 . S
H1844 C1828 0.931 . S
H1845 C1833 0.929 . S
H1846 C1834 0.960 1_554 S
H1847 C1834 0.962 . S
H1848 C1834 0.960 . S
H1849 C1835 0.961 . S
H1850 C1835 0.961 1_554 S
H1851 C1835 0.961 . S
H1852 C1836 0.931 . S
H1853 C1841 0.930 . S
H1854 C1842 0.960 . S
H1855 C1842 0.965 . S
H1856 C1842 0.958 1_554 S
H1857 C1843 0.958 . S
H1858 C1843 0.961 . S
H1859 C1843 0.960 . S
C1860 C1861 1.391 . S
C1860 C1862 1.394 . S
C1860 H1876 0.931 . S
C1861 C1860 1.391 . S
C1861 C1865 1.376 . S
C1862 C1860 1.394 . S
C1862 C1863 1.369 . S
C1862 C1866 1.531 . S
C1863 C1862 1.369 . S
C1863 C1864 1.410 . S
C1863 C1871 1.503 . S
C1864 C1863 1.410 . S
C1864 C1865 1.392 . S
C1864 C1867 1.511 . S
C1865 C1861 1.376 . S
C1865 C1864 1.392 . S
C1865 H1877 0.929 . S
C1866 C1862 1.531 . S
C1866 H1878 0.960 . S
C1866 H1879 0.962 . S
C1866 H1880 0.960 . S
C1867 C1864 1.511 . S
C1867 H1881 0.961 . S
C1867 H1882 0.961 . S
C1867 H1883 0.961 . S
C1868 C1869 1.370 . S
C1868 C1870 1.363 . S
C1868 H1884 0.931 . S
C1869 C1868 1.370 . S
C1869 C1873 1.408 . S
C1870 C1868 1.363 . S
C1870 C1871 1.370 . S
C1870 C1874 1.524 . S
C1871 C1863 1.503 . S
C1871 C1870 1.370 . S
C1871 C1872 1.403 . S
C1872 C1871 1.403 . S
C1872 C1873 1.404 . S
C1872 C1875 1.539 . S
C1873 C1869 1.408 . S
C1873 C1872 1.404 . S
C1873 H1885 0.930 . S
C1874 C1870 1.524 . S
C1874 H1886 0.956 . S
C1874 H1887 0.961 . S
C1874 H1888 0.961 . S
C1875 C1872 1.539 . S
C1875 H1889 0.958 . S
C1875 H1890 0.961 . S
C1875 H1891 0.960 . S
H1876 C1860 0.931 . S
H1877 C1865 0.929 . S
H1878 C1866 0.960 . S
H1879 C1866 0.962 . S
H1880 C1866 0.960 . S
H1881 C1867 0.961 . S
H1882 C1867 0.961 . S
H1883 C1867 0.961 . S
H1884 C1868 0.931 . S
H1885 C1873 0.930 . S
H1886 C1874 0.956 . S
H1887 C1874 0.961 . S
H1888 C1874 0.961 . S
H1889 C1875 0.958 . S
H1890 C1875 0.961 . S
H1891 C1875 0.960 . S
C1892 C1893 1.391 . S
C1892 C1894 1.394 . S
C1892 H1908 0.931 . S
C1893 C1892 1.391 . S
C1893 C1897 1.376 . S
C1894 C1892 1.394 . S
C1894 C1895 1.369 . S
C1894 C1898 1.531 . S
C1895 C1894 1.369 . S
C1895 C1896 1.410 . S
C1895 C1903 1.503 . S
C1896 C1895 1.410 . S
C1896 C1897 1.392 . S
C1896 C1899 1.511 . S
C1897 C1893 1.376 . S
C1897 C1896 1.392 . S
C1897 H1909 0.929 . S
C1898 C1894 1.531 . S
C1898 H1910 0.960 . S
C1898 H1911 0.962 . S
C1898 H1912 0.960 . S
C1899 C1896 1.511 . S
C1899 H1913 0.961 . S
C1899 H1914 0.961 . S
C1899 H1915 0.961 . S
C1900 C1901 1.370 . S
C1900 C1902 1.363 . S
C1900 H1916 0.931 . S
C1901 C1900 1.370 . S
C1901 C1905 1.408 . S
C1902 C1900 1.363 . S
C1902 C1903 1.370 . S
C1902 C1906 1.524 . S
C1903 C1895 1.503 . S
C1903 C1902 1.370 . S
C1903 C1904 1.403 . S
C1904 C1903 1.403 . S
C1904 C1905 1.404 . S
C1904 C1907 1.539 . S
C1905 C1901 1.408 . S
C1905 C1904 1.404 . S
C1905 H1917 0.930 . S
C1906 C1902 1.524 . S
C1906 H1918 0.956 . S
C1906 H1919 0.961 . S
C1906 H1920 0.961 . S
C1907 C1904 1.539 . S
C1907 H1921 0.958 . S
C1907 H1922 0.961 . S
C1907 H1923 0.960 . S
H1908 C1892 0.931 . S
H1909 C1897 0.929 . S
H1910 C1898 0.960 . S
H1911 C1898 0.962 . S
H1912 C1898 0.960 . S
H1913 C1899 0.961 . S
H1914 C1899 0.961 . S
H1915 C1899 0.961 . S
H1916 C1900 0.931 . S
H1917 C1905 0.930 . S
H1918 C1906 0.956 . S
H1919 C1906 0.961 . S
H1920 C1906 0.961 . S
H1921 C1907 0.958 . S
H1922 C1907 0.961 . S
H1923 C1907 0.960 . S
C1924 C1925 1.391 . S
C1924 C1926 1.394 . S
C1924 H1940 0.931 . S
C1925 C1924 1.391 . S
C1925 C1929 1.376 . S
C1926 C1924 1.394 . S
C1926 C1927 1.369 . S
C1926 C1930 1.531 . S
C1927 C1926 1.369 . S
C1927 C1928 1.410 . S
C1927 C1935 1.503 . S
C1928 C1927 1.410 . S
C1928 C1929 1.392 . S
C1928 C1931 1.511 . S
C1929 C1925 1.376 . S
C1929 C1928 1.392 . S
C1929 H1941 0.929 . S
C1930 C1926 1.531 . S
C1930 H1942 0.960 . S
C1930 H1943 0.962 . S
C1930 H1944 0.960 . S
C1931 C1928 1.511 . S
C1931 H1945 0.961 . S
C1931 H1946 0.961 . S
C1931 H1947 0.961 . S
C1932 C1933 1.370 . S
C1932 C1934 1.363 . S
C1932 H1948 0.931 . S
C1933 C1932 1.370 . S
C1933 C1937 1.408 . S
C1934 C1932 1.363 . S
C1934 C1935 1.370 . S
C1934 C1938 1.524 . S
C1935 C1927 1.503 . S
C1935 C1934 1.370 . S
C1935 C1936 1.403 . S
C1936 C1935 1.403 . S
C1936 C1937 1.404 . S
C1936 C1939 1.539 . S
C1937 C1933 1.408 . S
C1937 C1936 1.404 . S
C1937 H1949 0.930 . S
C1938 C1934 1.524 . S
C1938 H1950 0.956 . S
C1938 H1951 0.961 . S
C1938 H1952 0.961 . S
C1939 C1936 1.539 . S
C1939 H1953 0.958 . S
C1939 H1954 0.961 . S
C1939 H1955 0.960 . S
H1940 C1924 0.931 . S
H1941 C1929 0.929 . S
H1942 C1930 0.960 . S
H1943 C1930 0.962 . S
H1944 C1930 0.960 . S
H1945 C1931 0.961 . S
H1946 C1931 0.961 . S
H1947 C1931 0.961 . S
H1948 C1932 0.931 . S
H1949 C1937 0.930 . S
H1950 C1938 0.956 . S
H1951 C1938 0.961 . S
H1952 C1938 0.961 . S
H1953 C1939 0.958 . S
H1954 C1939 0.961 . S
H1955 C1939 0.960 . S
C1956 C1957 1.391 . S
C1956 C1958 1.394 . S
C1956 H1972 0.931 . S
C1957 C1956 1.391 . S
C1957 C1961 1.376 . S
C1958 C1956 1.394 . S
C1958 C1959 1.369 . S
C1958 C1962 1.531 . S
C1959 C1958 1.369 . S
C1959 C1960 1.410 . S
C1959 C1967 1.503 . S
C1960 C1959 1.410 . S
C1960 C1961 1.392 . S
C1960 C1963 1.511 . S
C1961 C1957 1.376 . S
C1961 C1960 1.392 . S
C1961 H1973 0.929 . S
C1962 C1958 1.531 . S
C1962 H1974 0.960 . S
C1962 H1975 0.962 . S
C1962 H1976 0.960 . S
C1963 C1960 1.511 . S
C1963 H1977 0.961 . S
C1963 H1978 0.961 . S
C1963 H1979 0.961 . S
C1964 C1965 1.370 . S
C1964 C1966 1.363 . S
C1964 H1980 0.931 . S
C1965 C1964 1.370 . S
C1965 C1969 1.408 . S
C1966 C1964 1.363 . S
C1966 C1967 1.370 . S
C1966 C1970 1.524 . S
C1967 C1959 1.503 . S
C1967 C1966 1.370 . S
C1967 C1968 1.403 . S
C1968 C1967 1.403 . S
C1968 C1969 1.404 . S
C1968 C1971 1.539 . S
C1969 C1965 1.408 . S
C1969 C1968 1.404 . S
C1969 H1981 0.930 . S
C1970 C1966 1.524 . S
C1970 H1982 0.956 . S
C1970 H1983 0.961 . S
C1970 H1984 0.961 . S
C1971 C1968 1.539 . S
C1971 H1985 0.958 . S
C1971 H1986 0.961 . S
C1971 H1987 0.960 . S
H1972 C1956 0.931 . S
H1973 C1961 0.929 . S
H1974 C1962 0.960 . S
H1975 C1962 0.962 . S
H1976 C1962 0.960 . S
H1977 C1963 0.961 . S
H1978 C1963 0.961 . S
H1979 C1963 0.961 . S
H1980 C1964 0.931 . S
H1981 C1969 0.930 . S
H1982 C1970 0.956 . S
H1983 C1970 0.961 . S
H1984 C1970 0.961 . S
H1985 C1971 0.958 . S
H1986 C1971 0.961 . S
H1987 C1971 0.960 . S
C1988 C1989 1.391 . S
C1988 C1990 1.394 . S
C1988 H2004 0.931 . S
C1989 C1988 1.391 . S
C1989 C1993 1.376 . S
C1990 C1988 1.394 . S
C1990 C1991 1.369 . S
C1990 C1994 1.531 . S
C1991 C1990 1.369 . S
C1991 C1992 1.410 . S
C1991 C1999 1.503 . S
C1992 C1991 1.410 . S
C1992 C1993 1.392 . S
C1992 C1995 1.511 . S
C1993 C1989 1.376 . S
C1993 C1992 1.392 . S
C1993 H2005 0.929 . S
C1994 C1990 1.531 . S
C1994 H2006 0.960 . S
C1994 H2007 0.962 . S
C1994 H2008 0.960 . S
C1995 C1992 1.511 . S
C1995 H2009 0.961 . S
C1995 H2010 0.961 . S
C1995 H2011 0.961 . S
C1996 C1997 1.370 . S
C1996 C1998 1.363 . S
C1996 H2012 0.931 . S
C1997 C1996 1.370 . S
C1997 C2001 1.408 . S
C1998 C1996 1.363 . S
C1998 C1999 1.370 . S
C1998 C2002 1.524 . S
C1999 C1991 1.503 . S
C1999 C1998 1.370 . S
C1999 C2000 1.403 . S
C2000 C1999 1.403 . S
C2000 C2001 1.404 . S
C2000 C2003 1.539 . S
C2001 C1997 1.408 . S
C2001 C2000 1.404 . S
C2001 H2013 0.930 . S
C2002 C1998 1.524 . S
C2002 H2014 0.956 . S
C2002 H2015 0.961 . S
C2002 H2016 0.961 . S
C2003 C2000 1.539 . S
C2003 H2017 0.958 . S
C2003 H2018 0.961 . S
C2003 H2019 0.960 . S
H2004 C1988 0.931 . S
H2005 C1993 0.929 . S
H2006 C1994 0.960 . S
H2007 C1994 0.962 . S
H2008 C1994 0.960 . S
H2009 C1995 0.961 . S
H2010 C1995 0.961 . S
H2011 C1995 0.961 . S
H2012 C1996 0.931 . S
H2013 C2001 0.930 . S
H2014 C2002 0.956 . S
H2015 C2002 0.961 . S
H2016 C2002 0.961 . S
H2017 C2003 0.958 . S
H2018 C2003 0.961 . S
H2019 C2003 0.960 . S
C2020 C2021 1.391 . S
C2020 C2022 1.394 . S
C2020 H2036 0.931 . S
C2021 C2020 1.391 . S
C2021 C2025 1.376 . S
C2022 C2020 1.394 . S
C2022 C2023 1.369 . S
C2022 C2026 1.531 . S
C2023 C2022 1.369 . S
C2023 C2024 1.410 . S
C2023 C2031 1.503 . S
C2024 C2023 1.410 . S
C2024 C2025 1.392 . S
C2024 C2027 1.511 . S
C2025 C2021 1.376 . S
C2025 C2024 1.392 . S
C2025 H2037 0.929 . S
C2026 C2022 1.531 . S
C2026 H2038 0.960 . S
C2026 H2039 0.962 . S
C2026 H2040 0.960 . S
C2027 C2024 1.511 . S
C2027 H2041 0.961 . S
C2027 H2042 0.961 . S
C2027 H2043 0.961 . S
C2028 C2029 1.370 . S
C2028 C2030 1.363 . S
C2028 H2044 0.931 . S
C2029 C2028 1.370 . S
C2029 C2033 1.408 . S
C2030 C2028 1.363 . S
C2030 C2031 1.370 . S
C2030 C2034 1.524 . S
C2031 C2023 1.503 . S
C2031 C2030 1.370 . S
C2031 C2032 1.403 . S
C2032 C2031 1.403 . S
C2032 C2033 1.404 . S
C2032 C2035 1.539 . S
C2033 C2029 1.408 . S
C2033 C2032 1.404 . S
C2033 H2045 0.930 . S
C2034 C2030 1.524 . S
C2034 H2046 0.956 . S
C2034 H2047 0.961 . S
C2034 H2048 0.961 . S
C2035 C2032 1.539 . S
C2035 H2049 0.958 . S
C2035 H2050 0.961 . S
C2035 H2051 0.960 . S
H2036 C2020 0.931 . S
H2037 C2025 0.929 . S
H2038 C2026 0.960 . S
H2039 C2026 0.962 . S
H2040 C2026 0.960 . S
H2041 C2027 0.961 . S
H2042 C2027 0.961 . S
H2043 C2027 0.961 . S
H2044 C2028 0.931 . S
H2045 C2033 0.930 . S
H2046 C2034 0.956 . S
H2047 C2034 0.961 . S
H2048 C2034 0.961 . S
H2049 C2035 0.958 . S
H2050 C2035 0.961 . S
H2051 C2035 0.960 . S
C613 C33 1.148 . S
C621 C39 1.169 . S
C645 C73 1.167 . S
C653 C67 1.158 . S
C677 C101 1.157 . S
C685 C5 1.163 . S
C709 C175 1.169 . S
C717 C135 1.169 . S
C741 C107 1.159 . S
C749 C169 1.163 . S
C773 C203 1.173 . S
C781 C141 1.167 . S
C805 C243 1.167 . S
C813 C237 1.158 . S
C837 C271 1.174 . S
C845 C277 1.167 . S
C869 C305 1.152 . S
C877 C209 1.168 . S
C901 C379 1.162 . S
C909 C339 1.166 . S
C933 C311 1.170 . S
C941 C373 1.165 . S
C965 C407 1.150 . S
C973 C345 1.167 . S
C997 C447 1.160 . S
C1005 C441 1.165 . S
C1029 C475 1.174 . S
C1037 C481 1.168 . S
C1061 C509 1.154 . S
C1069 C413 1.168 . S
C1093 C583 1.158 . S
C1101 C543 1.161 . S
C1125 C515 1.157 . S
C1133 C577 1.161 . S
C1157 C611 1.171 . S
C1165 C549 1.166 . S
C1189 C349 1.522 . S
C1197 C9 1.549 . S
C1221 C383 1.550 . S
C1229 C43 1.540 . S
C1253 C315 1.514 . S
C1261 C77 1.555 . S
C1285 C111 1.594 . S
C1293 C485 1.555 . S
C1317 C417 1.583 . S
C1325 C145 1.569 . S
C1349 C451 1.518 . S
C1357 C179 1.565 . S
C1381 C213 1.591 . S
C1389 C553 1.550 . S
C1413 C587 1.549 . S
C1421 C247 1.542 . S
C1445 C519 1.592 . S
C1453 C281 1.551 . S
C1477 C2 1.611 . S
C1485 C172 1.602 . S
C1509 C104 1.599 . S
C1517 C36 1.610 . S
C1541 C138 1.586 . S
C1549 C70 1.597 . S
C1573 C376 1.617 1_556 S
C1581 C206 1.608 . S
C1605 C308 1.598 1_556 S
C1613 C240 1.598 . S
C1637 C274 1.590 . S
C1645 C342 1.597 1_556 S
C1669 C580 1.615 . S
C1677 C410 1.605 1_554 S
C1701 C444 1.583 1_554 S
C1709 C512 1.599 . S
C1733 C546 1.587 . S
C1741 C478 1.597 1_554 S
C1765 C20 0.933 . S
C1773 C190 0.877 . S
C1797 C54 0.849 . S
C1805 C122 0.912 . S
C1829 C156 0.938 . S
C1837 C88 0.878 . S
C1861 C394 0.921 . S
C1869 C224 0.879 . S
C1893 C326 0.919 . S
C1901 C258 0.900 . S
C1925 C360 0.929 . S
C1933 C292 0.878 . S
C1957 C428 0.878 . S
C1965 C598 0.914 . S
C1989 C462 0.941 . S
C1997 C530 0.885 . S
C2021 C564 0.851 . S
C2029 C496 0.909 . S
