# Generated by pormake.
# Topology rob, (6)-cn, num edge types: 1
# Building blocks:
#     Node 0, Type 0, BuildingBlock: JUFBIX_clean_sbu_0, # of connection points: 6
#     Node 1, Type 0, BuildingBlock: JUFBIX_clean_sbu_0, # of connection points: 6
#     Node 2, Type 0, BuildingBlock: JUFBIX_clean_sbu_0, # of connection points: 6
#     Node 3, Type 0, BuildingBlock: JUFBIX_clean_sbu_0, # of connection points: 6
#     Edge 4, Type (0, 0), BuildingBlock: XIVTED_clean_linker_0, # of connection points: 2
#     Edge 5, Type (0, 0), BuildingBlock: XIVTED_clean_linker_0, # of connection points: 2
#     Edge 6, Type (0, 0), BuildingBlock: XIVTED_clean_linker_0, # of connection points: 2
#     Edge 7, Type (0, 0), BuildingBlock: XIVTED_clean_linker_0, # of connection points: 2
#     Edge 8, Type (0, 0), BuildingBlock: XIVTED_clean_linker_0, # of connection points: 2
#     Edge 9, Type (0, 0), BuildingBlock: XIVTED_clean_linker_0, # of connection points: 2
#     Edge 10, Type (0, 0), BuildingBlock: XIVTED_clean_linker_0, # of connection points: 2
#     Edge 11, Type (0, 0), BuildingBlock: XIVTED_clean_linker_0, # of connection points: 2
#     Edge 12, Type (0, 0), BuildingBlock: XIVTED_clean_linker_0, # of connection points: 2
#     Edge 13, Type (0, 0), BuildingBlock: XIVTED_clean_linker_0, # of connection points: 2
#     Edge 14, Type (0, 0), BuildingBlock: XIVTED_clean_linker_0, # of connection points: 2
#     Edge 15, Type (0, 0), BuildingBlock: XIVTED_clean_linker_0, # of connection points: 2
# Relax obj value: 0.350
# Max RMSD: 0.258
# Mean RMSD: 0.258
data_MOF--net-rob--node1-JUFBIX_clean_sbu_0--edge1-XIVTED_clean_linker_0
_symmetry_space_group_name_H-M    P1
_symmetry_Int_Tables_number       1
_symmetry_cell_setting            triclinic
loop_
_symmetry_equiv_pos_as_xyz
'x, y, z'
_cell_length_a     17.315818
_cell_length_b     24.772787
_cell_length_c     28.311498
_cell_angle_alpha  94.840442
_cell_angle_beta   90.014838
_cell_angle_gamma 90.000351
loop_
_atom_site_label
_atom_site_type_symbol
_atom_site_fract_x
_atom_site_fract_y
_atom_site_fract_z
_atom_type_partial_charge
Co0 Co 0.20143 0.2711 0.98287 0.0
C1 C 0.16933 0.16422 0.00057 0.0
Co2 Co 0.29891 0.22789 0.01437 0.0
C3 C 0.10259 0.31056 0.90996 0.0
C4 C 0.05156 0.32281 0.97868 0.0
N5 N 0.11682 0.30496 0.95629 0.0
N6 N 0.0312 0.33013 0.90266 0.0
C7 C 0.99911 0.3382 0.94595 0.0
H8 H 0.14179 0.29749 0.88159 0.0
H9 H 0.04053 0.32232 0.01618 0.0
C10 C 0.33104 0.33476 0.99669 0.0
N11 N 0.38332 0.19413 0.04103 0.0
C12 C 0.39565 0.1862 0.08713 0.0
C13 C 0.45025 0.17902 0.01924 0.0
N14 N 0.46757 0.16783 0.09497 0.0
C15 C 0.50185 0.16288 0.05216 0.0
C16 C 0.29791 0.21709 0.91604 0.0
O17 O 0.26188 0.33495 0.98137 0.0
O18 O 0.358 0.29203 0.01249 0.0
O19 O 0.33372 0.20383 0.95241 0.0
O20 O 0.23793 0.24636 0.9215 0.0
O21 O 0.23848 0.16409 0.0159 0.0
H22 H 0.46284 0.18209 0.98219 0.0
H23 H 0.35455 0.19688 0.11508 0.0
O24 O 0.14233 0.20693 0.98473 0.0
O25 O 0.16675 0.29503 0.0447 0.0
O26 O 0.26243 0.25268 0.07583 0.0
C27 C 0.20235 0.28188 0.08115 0.0
H28 H 0.94087 0.35236 0.95335 0.0
H29 H 0.56101 0.15052 0.04527 0.0
Co30 Co 0.70187 0.77084 0.98335 0.0
C31 C 0.67011 0.66386 0.00083 0.0
Co32 Co 0.79969 0.72758 0.01445 0.0
C33 C 0.60483 0.8123 0.91068 0.0
C34 C 0.55022 0.81931 0.97856 0.0
N35 N 0.61729 0.80451 0.95679 0.0
N36 N 0.5327 0.83021 0.90279 0.0
C37 C 0.49839 0.83507 0.9456 0.0
H38 H 0.64598 0.80173 0.88273 0.0
H39 H 0.53768 0.81617 0.01561 0.0
C40 C 0.8314 0.83459 0.99696 0.0
N41 N 0.88443 0.69379 0.04096 0.0
C42 C 0.89845 0.68771 0.08724 0.0
C43 C 0.94992 0.67641 0.01857 0.0
N44 N 0.96994 0.66827 0.09454 0.0
C45 C 0.00228 0.66079 0.05127 0.0
C46 C 0.79816 0.71696 0.91624 0.0
O47 O 0.76216 0.83472 0.98179 0.0
O48 O 0.85861 0.79183 0.01262 0.0
O49 O 0.83429 0.70375 0.95249 0.0
O50 O 0.7381 0.74612 0.92188 0.0
O51 O 0.7394 0.66364 0.01593 0.0
H52 H 0.96108 0.67733 0.98112 0.0
H53 H 0.85896 0.70029 0.11559 0.0
O54 O 0.64294 0.70666 0.98527 0.0
O55 O 0.66723 0.7948 0.04533 0.0
O56 O 0.76328 0.75218 0.07589 0.0
C57 C 0.70326 0.7814 0.08156 0.0
H58 H 0.43905 0.84701 0.95243 0.0
H59 H 0.0606 0.64683 0.04386 0.0
Co60 Co 0.20176 0.72486 0.51465 0.0
C61 C 0.16978 0.83179 0.49693 0.0
Co62 Co 0.29921 0.76804 0.48321 0.0
C63 C 0.10475 0.68352 0.58738 0.0
C64 C 0.05028 0.6762 0.51945 0.0
N65 N 0.11725 0.69121 0.54127 0.0
N66 N 0.03268 0.66544 0.59521 0.0
C67 C 0.99847 0.6604 0.55237 0.0
H68 H 0.14579 0.69427 0.61537 0.0
H69 H 0.03776 0.67922 0.48238 0.0
C70 C 0.33124 0.66113 0.50091 0.0
N71 N 0.38367 0.8017 0.45657 0.0
C72 C 0.39603 0.80962 0.41048 0.0
C73 C 0.45065 0.81672 0.47838 0.0
N74 N 0.468 0.8279 0.40266 0.0
C75 C 0.5023 0.83279 0.44548 0.0
C76 C 0.2982 0.7789 0.58153 0.0
O77 O 0.26212 0.66099 0.51628 0.0
O78 O 0.35817 0.70385 0.48507 0.0
O79 O 0.33414 0.79206 0.54518 0.0
O80 O 0.23814 0.74971 0.57601 0.0
O81 O 0.23897 0.83192 0.48169 0.0
H82 H 0.46324 0.81362 0.51543 0.0
H83 H 0.3549 0.799 0.38251 0.0
O84 O 0.14271 0.78906 0.51267 0.0
O85 O 0.16698 0.70076 0.45283 0.0
O86 O 0.26254 0.74329 0.42174 0.0
C87 C 0.20251 0.71403 0.4164 0.0
H88 H 0.9392 0.64829 0.54549 0.0
H89 H 0.5615 0.84506 0.45238 0.0
Co90 Co 0.70239 0.22517 0.51435 0.0
C91 C 0.67032 0.33203 0.49656 0.0
Co92 Co 0.79987 0.26833 0.48283 0.0
C93 C 0.60536 0.18411 0.58722 0.0
C94 C 0.55106 0.17616 0.51924 0.0
N95 N 0.61791 0.1915 0.54105 0.0
N96 N 0.53339 0.16589 0.59511 0.0
C97 C 0.49927 0.16047 0.55224 0.0
H98 H 0.6463 0.19512 0.6152 0.0
H99 H 0.53862 0.17882 0.48212 0.0
C100 C 0.83189 0.16145 0.50064 0.0
N101 N 0.88452 0.30212 0.4563 0.0
C102 C 0.89843 0.30841 0.41006 0.0
C103 C 0.95011 0.3193 0.4787 0.0
N104 N 0.96995 0.32782 0.40281 0.0
C105 C 0.00241 0.33505 0.44606 0.0
C106 C 0.79894 0.2793 0.58109 0.0
O107 O 0.7627 0.16132 0.51588 0.0
O108 O 0.85896 0.20417 0.48486 0.0
O109 O 0.83442 0.29244 0.54462 0.0
O110 O 0.73899 0.24996 0.57584 0.0
O111 O 0.73943 0.33216 0.48116 0.0
H112 H 0.96142 0.31811 0.51611 0.0
H113 H 0.85883 0.29599 0.3817 0.0
O114 O 0.64341 0.28934 0.51247 0.0
O115 O 0.66749 0.20117 0.45235 0.0
O116 O 0.76354 0.24349 0.42149 0.0
C117 C 0.70342 0.21435 0.41599 0.0
H118 H 0.44009 0.14813 0.54538 0.0
H119 H 0.06078 0.34889 0.4535 0.0
H120 H 0.70786 0.56469 0.03081 0.0
H121 H 0.29352 0.43383 0.96642 0.0
H122 H 0.52061 0.65152 0.97072 0.0
H123 H 0.48048 0.34711 0.02693 0.0
H124 H 0.37603 0.51404 0.9675 0.0
H125 H 0.62542 0.48443 0.02966 0.0
C126 C 0.64945 0.56691 0.01741 0.0
C127 C 0.62117 0.61492 0.00084 0.0
C128 C 0.39899 0.47744 0.98053 0.0
C129 C 0.52648 0.52322 -0.00063 0.0
C130 C 0.35189 0.43162 0.9799 0.0
C131 C 0.38006 0.38366 0.99662 0.0
C132 C 0.47483 0.47531 0.99801 0.0
C133 C 0.45623 0.38318 0.01368 0.0
C134 C 0.60239 0.52107 0.01674 0.0
C135 C 0.54494 0.61541 0.98386 0.0
N136 N 0.50088 0.42828 0.01395 0.0
N137 N 0.50034 0.57029 0.98356 0.0
H138 H 0.29386 0.56212 0.53135 0.0
H139 H 0.70762 0.43099 0.46598 0.0
H140 H 0.48044 0.64867 0.47032 0.0
H141 H 0.52111 0.34449 0.52713 0.0
H142 H 0.62513 0.51121 0.46712 0.0
H143 H 0.37631 0.48187 0.53014 0.0
C144 C 0.35213 0.56429 0.51773 0.0
C145 C 0.38022 0.61221 0.50091 0.0
C146 C 0.60227 0.47465 0.48027 0.0
C147 C 0.47492 0.52051 0.49937 0.0
C148 C 0.64936 0.42883 0.47961 0.0
C149 C 0.62131 0.38093 0.4965 0.0
C150 C 0.52656 0.4726 0.49795 0.0
C151 C 0.54526 0.38052 0.51376 0.0
C152 C 0.39919 0.51844 0.51703 0.0
C153 C 0.45626 0.61262 0.48366 0.0
N154 N 0.50062 0.42562 0.51405 0.0
N155 N 0.50088 0.56751 0.48332 0.0
H156 H 0.20702 0.0654 0.03122 0.0
H157 H 0.79344 0.93352 0.96661 0.0
H158 H 0.02001 0.15151 0.97011 0.0
H159 H 0.98075 0.84734 0.02733 0.0
H160 H 0.87556 0.01392 0.96764 0.0
H161 H 0.1248 0.98509 0.03029 0.0
C162 C 0.1487 0.06745 0.01763 0.0
C163 C 0.12043 0.11527 0.0007 0.0
C164 C 0.89868 0.9774 0.98072 0.0
C165 C 0.02598 0.02348 -0.0005 0.0
C166 C 0.8518 0.93147 0.98012 0.0
C167 C 0.8802 0.8836 0.99691 0.0
C168 C 0.97452 0.97548 0.99823 0.0
C169 C 0.95634 0.88334 0.01402 0.0
C170 C 0.10176 0.02157 0.0171 0.0
C171 C 0.04432 0.11554 0.98352 0.0
N172 N 0.00077 0.92854 0.01425 0.0
N173 N 0.99982 0.07038 0.98335 0.0
H174 H 0.7941 0.06257 0.53116 0.0
H175 H 0.20761 0.9307 0.4665 0.0
H176 H 0.98121 0.14872 0.47026 0.0
H177 H 0.02046 0.84449 0.52731 0.0
H178 H 0.12546 0.01106 0.46754 0.0
H179 H 0.87626 0.98221 0.53017 0.0
C180 C 0.85243 0.06463 0.51762 0.0
C181 C 0.88075 0.11248 0.50076 0.0
C182 C 0.10238 0.97455 0.48064 0.0
C183 C 0.97513 0.02063 0.49948 0.0
C184 C 0.14927 0.92863 0.48004 0.0
C185 C 0.12093 0.88077 0.49685 0.0
C186 C 0.02658 0.97262 0.49818 0.0
C187 C 0.04482 0.88049 0.51399 0.0
C188 C 0.89934 0.01872 0.51704 0.0
C189 C 0.95686 0.11274 0.48361 0.0
N190 N 1.00036 0.92568 0.51422 0.0
N191 N 0.00132 0.06756 0.48341 0.0
H192 H 0.77396 0.22617 0.33104 0.0
H193 H 0.39882 0.14544 0.17733 0.0
H194 H 0.56459 0.16678 0.39123 0.0
H195 H 0.61926 0.1827 0.11689 0.0
H196 H 0.45923 0.14922 0.25568 0.0
H197 H 0.71952 0.20662 0.25197 0.0
C198 C 0.71668 0.20871 0.32764 0.0
C199 C 0.67354 0.19851 0.36787 0.0
C200 C 0.49452 0.156 0.22517 0.0
C201 C 0.61055 0.17627 0.2773 0.0
C202 C 0.45997 0.15408 0.18047 0.0
C203 C 0.50383 0.16412 0.14044 0.0
C204 C 0.57341 0.16854 0.22997 0.0
C205 C 0.58316 0.1743 0.14654 0.0
C206 C 0.68565 0.19744 0.28242 0.0
C207 C 0.59981 0.17548 0.36122 0.0
N208 N 0.61515 0.17677 0.19046 0.0
N209 N 0.57036 0.16561 0.31681 0.0
H210 H 0.77375 0.76881 0.16645 0.0
H211 H 0.39939 0.85066 0.32037 0.0
H212 H 0.56491 0.82946 0.10652 0.0
H213 H 0.61957 0.81253 0.38074 0.0
H214 H 0.45974 0.84682 0.24202 0.0
H215 H 0.71952 0.7883 0.24558 0.0
C216 C 0.71664 0.78653 0.16992 0.0
C217 C 0.67357 0.7971 0.12974 0.0
C218 C 0.49499 0.83986 0.27252 0.0
C219 C 0.61085 0.81929 0.22036 0.0
C220 C 0.46047 0.84182 0.31721 0.0
C221 C 0.50427 0.83157 0.35721 0.0
C222 C 0.57379 0.82705 0.2677 0.0
C223 C 0.58353 0.82112 0.35111 0.0
C224 C 0.68573 0.79777 0.21517 0.0
C225 C 0.60007 0.82045 0.13648 0.0
N226 N 0.6155 0.8186 0.30718 0.0
N227 N 0.57074 0.8303 0.1809 0.0
H228 H 0.60091 0.85285 0.82037 0.0
H229 H 0.22806 0.76635 0.66651 0.0
H230 H 0.38135 0.81354 0.88083 0.0
H231 H 0.43603 0.82791 0.6063 0.0
H232 H 0.28196 0.78699 0.7456 0.0
H233 H 0.54072 0.84764 0.74191 0.0
C234 C 0.53999 0.84348 0.8172 0.0
C235 C 0.49633 0.83328 0.85727 0.0
C236 C 0.31563 0.79639 0.71513 0.0
C237 C 0.427 0.82716 0.76762 0.0
C238 C 0.28491 0.7845 0.6699 0.0
C239 C 0.32782 0.79503 0.62966 0.0
C240 C 0.39016 0.81854 0.72026 0.0
C241 C 0.401 0.81892 0.6363 0.0
C242 C 0.50556 0.84072 0.77244 0.0
C243 C 0.41726 0.8221 0.85114 0.0
N244 N 0.43014 0.82943 0.68072 0.0
N245 N 0.38539 0.81881 0.80716 0.0
H246 H 0.60164 0.14392 0.67771 0.0
H247 H 0.2279 0.22942 0.83094 0.0
H248 H 0.38188 0.18205 0.6168 0.0
H249 H 0.43594 0.16831 0.89147 0.0
H250 H 0.2821 0.20886 0.75192 0.0
H251 H 0.54121 0.14911 0.75608 0.0
C252 C 0.54062 0.15303 0.68076 0.0
C253 C 0.49697 0.1629 0.6406 0.0
C254 C 0.31572 0.19954 0.78245 0.0
C255 C 0.42737 0.16899 0.73014 0.0
C256 C 0.28483 0.21139 0.82763 0.0
C257 C 0.32768 0.20098 0.86795 0.0
C258 C 0.39035 0.17755 0.77744 0.0
C259 C 0.40096 0.17722 0.86141 0.0
C260 C 0.50606 0.15577 0.72547 0.0
C261 C 0.41779 0.17375 0.64657 0.0
N262 N 0.43026 0.16676 0.81704 0.0
N263 N 0.38579 0.17703 0.69051 0.0
H264 H 0.12271 0.68126 0.11416 0.0
H265 H 0.06557 0.66339 0.39275 0.0
H266 H 0.90328 0.64893 0.17825 0.0
H267 H 0.26949 0.72862 0.33073 0.0
H268 H 0.01155 0.64414 0.31337 0.0
H269 H 0.18336 0.68427 0.19211 0.0
C270 C 0.0874 0.67397 0.14449 0.0
C271 C 0.00757 0.66512 0.13964 0.0
C272 C 0.06829 0.66238 0.31715 0.0
C273 C 0.07669 0.66921 0.22922 0.0
C274 C 0.0993 0.67328 0.36246 0.0
C275 C 0.17193 0.69812 0.36846 0.0
C276 C 0.11034 0.67611 0.27751 0.0
C277 C 0.21305 0.70985 0.32784 0.0
C278 C 0.12202 0.67615 0.18909 0.0
C279 C 0.96471 0.65667 0.18045 0.0
N280 N 0.18154 0.69892 0.28411 0.0
N281 N 0.99974 0.65913 0.22356 0.0
H282 H 0.12271 0.3148 0.38325 0.0
H283 H 0.06555 0.33269 0.10473 0.0
H284 H 0.90334 0.34739 0.31912 0.0
H285 H 0.26941 0.2674 0.16683 0.0
H286 H 0.01163 0.35213 0.18406 0.0
H287 H 0.18338 0.3119 0.30536 0.0
C288 C 0.08741 0.32218 0.35293 0.0
C289 C 0.00759 0.33106 0.35774 0.0
C290 C 0.06834 0.33383 0.18031 0.0
C291 C 0.07674 0.32707 0.26822 0.0
C292 C 0.09929 0.32282 0.13503 0.0
C293 C 0.17186 0.29789 0.12906 0.0
C294 C 0.11039 0.32013 0.21997 0.0
C295 C 0.213 0.28622 0.1697 0.0
C296 C 0.12206 0.32006 0.30836 0.0
C297 C 0.96476 0.33962 0.31694 0.0
N298 N 0.18155 0.29724 0.21341 0.0
N299 N 0.99981 0.3372 0.27385 0.0
H300 H 0.93498 0.33121 0.60444 0.0
H301 H 0.87849 0.31632 0.88336 0.0
H302 H 0.73234 0.26475 0.66692 0.0
H303 H 0.09737 0.34894 0.81874 0.0
H304 H 0.81764 0.31197 0.80538 0.0
H305 H 0.98863 0.3518 0.68369 0.0
C306 C 0.90146 0.32129 0.6348 0.0
C307 C 0.82931 0.29572 0.62897 0.0
C308 C 0.87889 0.32046 0.8083 0.0
C309 C 0.89047 0.31932 0.7198 0.0
C310 C 0.91361 0.32341 0.8529 0.0
C311 C 0.99335 0.33271 0.85758 0.0
C312 C 0.92407 0.32709 0.76804 0.0
C313 C 0.03601 0.34088 0.81664 0.0
C314 C 0.93226 0.33298 0.68004 0.0
C315 C 0.78843 0.28405 0.66969 0.0
N316 N 0.00091 0.33767 0.77356 0.0
N317 N 0.81973 0.29576 0.71337 0.0
H318 H 0.10072 0.64281 0.67767 0.0
H319 H 0.7281 0.72998 0.83127 0.0
H320 H 0.88132 0.68215 0.61695 0.0
H321 H 0.93555 0.6675 0.89143 0.0
H322 H 0.78191 0.70924 0.75216 0.0
H323 H 0.04036 0.64804 0.75605 0.0
C324 C 0.03979 0.65218 0.68077 0.0
C325 C 0.99622 0.66239 0.64067 0.0
C326 C 0.81547 0.69966 0.78263 0.0
C327 C 0.92671 0.66855 0.7302 0.0
C328 C 0.78481 0.71161 0.82786 0.0
C329 C 0.82762 0.70086 0.86809 0.0
C330 C 0.88983 0.67723 0.77752 0.0
C331 C 0.90061 0.67668 0.86144 0.0
C332 C 0.00526 0.65496 0.72548 0.0
C333 C 0.91714 0.67358 0.64669 0.0
N334 N 0.92969 0.66613 0.81704 0.0
N335 N 0.88518 0.6769 0.69063 0.0
loop_
_geom_bond_atom_site_label_1
_geom_bond_atom_site_label_2
_geom_bond_distance
_geom_bond_site_symmetry_2
_ccdc_geom_bond_type
Co0 N5 2.057 . S
Co0 O17 2.021 . S
Co0 O20 2.062 . S
Co0 O24 2.117 . S
Co0 O25 2.020 1_556 S
C1 O21 1.272 . S
C1 O24 1.245 1_554 S
Co2 N11 2.057 . S
Co2 O18 2.117 . S
Co2 O19 2.020 1_554 S
Co2 O21 2.021 . S
Co2 O26 2.062 . S
C3 N5 1.316 . S
C3 N6 1.347 . S
C3 H8 0.931 . S
C4 N5 1.375 . S
C4 C7 1.350 . S
C4 H9 0.930 . S
N5 Co0 2.057 . S
N5 C3 1.316 . S
N5 C4 1.375 . S
N6 C3 1.347 . S
N6 C7 1.373 . S
C7 C4 1.350 . S
C7 N6 1.373 . S
C7 H28 0.931 1_455 S
H8 C3 0.931 . S
H9 C4 0.930 . S
C10 O17 1.269 . S
C10 O18 1.249 1_556 S
N11 Co2 2.057 . S
N11 C12 1.316 . S
N11 C13 1.375 . S
C12 N11 1.316 . S
C12 N14 1.347 . S
C12 H23 0.931 . S
C13 N11 1.375 . S
C13 C15 1.350 . S
C13 H22 0.930 . S
N14 C12 1.347 . S
N14 C15 1.373 . S
C15 C13 1.350 . S
C15 N14 1.373 . S
C15 H29 0.931 . S
C16 O19 1.256 . S
C16 O20 1.255 . S
O17 Co0 2.021 . S
O17 C10 1.269 . S
O18 Co2 2.117 . S
O18 C10 1.249 1_554 S
O19 Co2 2.020 1_556 S
O19 C16 1.256 . S
O20 Co0 2.062 . S
O20 C16 1.255 . S
O21 C1 1.272 . S
O21 Co2 2.021 . S
H22 C13 0.930 . S
H23 C12 0.931 . S
O24 Co0 2.117 . S
O24 C1 1.245 1_556 S
O25 Co0 2.020 1_554 S
O25 C27 1.256 . S
O26 Co2 2.062 . S
O26 C27 1.255 . S
C27 O25 1.256 . S
C27 O26 1.255 . S
H28 C7 0.931 1_655 S
H29 C15 0.931 . S
Co30 N35 2.057 . S
Co30 O47 2.021 . S
Co30 O50 2.062 . S
Co30 O54 2.117 . S
Co30 O55 2.020 1_556 S
C31 O51 1.272 . S
C31 O54 1.245 1_554 S
Co32 N41 2.057 . S
Co32 O48 2.117 . S
Co32 O49 2.020 1_554 S
Co32 O51 2.021 . S
Co32 O56 2.062 . S
C33 N35 1.316 . S
C33 N36 1.347 . S
C33 H38 0.931 . S
C34 N35 1.375 . S
C34 C37 1.350 . S
C34 H39 0.930 . S
N35 Co30 2.057 . S
N35 C33 1.316 . S
N35 C34 1.375 . S
N36 C33 1.347 . S
N36 C37 1.373 . S
C37 C34 1.350 . S
C37 N36 1.373 . S
C37 H58 0.931 . S
H38 C33 0.931 . S
H39 C34 0.930 . S
C40 O47 1.269 . S
C40 O48 1.249 1_556 S
N41 Co32 2.057 . S
N41 C42 1.316 . S
N41 C43 1.375 . S
C42 N41 1.316 . S
C42 N44 1.347 . S
C42 H53 0.931 . S
C43 N41 1.375 . S
C43 C45 1.350 . S
C43 H52 0.930 . S
N44 C42 1.347 . S
N44 C45 1.373 . S
C45 C43 1.350 . S
C45 N44 1.373 . S
C45 H59 0.931 1_655 S
C46 O49 1.256 . S
C46 O50 1.255 . S
O47 Co30 2.021 . S
O47 C40 1.269 . S
O48 Co32 2.117 . S
O48 C40 1.249 1_554 S
O49 Co32 2.020 1_556 S
O49 C46 1.256 . S
O50 Co30 2.062 . S
O50 C46 1.255 . S
O51 C31 1.272 . S
O51 Co32 2.021 . S
H52 C43 0.930 . S
H53 C42 0.931 . S
O54 Co30 2.117 . S
O54 C31 1.245 1_556 S
O55 Co30 2.020 1_554 S
O55 C57 1.256 . S
O56 Co32 2.062 . S
O56 C57 1.255 . S
C57 O55 1.256 . S
C57 O56 1.255 . S
H58 C37 0.931 . S
H59 C45 0.931 1_455 S
Co60 N65 2.057 . S
Co60 O77 2.021 . S
Co60 O80 2.062 . S
Co60 O84 2.117 . S
Co60 O85 2.020 . S
C61 O81 1.259 . S
C61 O84 1.258 . S
Co62 N71 2.057 . S
Co62 O78 2.117 . S
Co62 O79 2.020 . S
Co62 O81 2.021 . S
Co62 O86 2.062 . S
C63 N65 1.316 . S
C63 N66 1.347 . S
C63 H68 0.931 . S
C64 N65 1.375 . S
C64 C67 1.350 . S
C64 H69 0.930 . S
N65 Co60 2.057 . S
N65 C63 1.316 . S
N65 C64 1.375 . S
N66 C63 1.347 . S
N66 C67 1.373 . S
C67 C64 1.350 . S
C67 N66 1.373 . S
C67 H88 0.931 1_455 S
H68 C63 0.931 . S
H69 C64 0.930 . S
C70 O77 1.259 . S
C70 O78 1.258 . S
N71 Co62 2.057 . S
N71 C72 1.316 . S
N71 C73 1.375 . S
C72 N71 1.316 . S
C72 N74 1.347 . S
C72 H83 0.931 . S
C73 N71 1.375 . S
C73 C75 1.350 . S
C73 H82 0.930 . S
N74 C72 1.347 . S
N74 C75 1.373 . S
C75 C73 1.350 . S
C75 N74 1.373 . S
C75 H89 0.931 . S
C76 O79 1.256 . S
C76 O80 1.255 . S
O77 Co60 2.021 . S
O77 C70 1.259 . S
O78 Co62 2.117 . S
O78 C70 1.258 . S
O79 Co62 2.020 . S
O79 C76 1.256 . S
O80 Co60 2.062 . S
O80 C76 1.255 . S
O81 C61 1.259 . S
O81 Co62 2.021 . S
H82 C73 0.930 . S
H83 C72 0.931 . S
O84 Co60 2.117 . S
O84 C61 1.258 . S
O85 Co60 2.020 . S
O85 C87 1.256 . S
O86 Co62 2.062 . S
O86 C87 1.255 . S
C87 O85 1.256 . S
C87 O86 1.255 . S
H88 C67 0.931 1_655 S
H89 C75 0.931 . S
Co90 N95 2.057 . S
Co90 O107 2.021 . S
Co90 O110 2.062 . S
Co90 O114 2.117 . S
Co90 O115 2.020 . S
C91 O111 1.259 . S
C91 O114 1.258 . S
Co92 N101 2.057 . S
Co92 O108 2.117 . S
Co92 O109 2.020 . S
Co92 O111 2.021 . S
Co92 O116 2.062 . S
C93 N95 1.316 . S
C93 N96 1.347 . S
C93 H98 0.931 . S
C94 N95 1.375 . S
C94 C97 1.350 . S
C94 H99 0.930 . S
N95 Co90 2.057 . S
N95 C93 1.316 . S
N95 C94 1.375 . S
N96 C93 1.347 . S
N96 C97 1.373 . S
C97 C94 1.350 . S
C97 N96 1.373 . S
C97 H118 0.931 . S
H98 C93 0.931 . S
H99 C94 0.930 . S
C100 O107 1.259 . S
C100 O108 1.258 . S
N101 Co92 2.057 . S
N101 C102 1.316 . S
N101 C103 1.375 . S
C102 N101 1.316 . S
C102 N104 1.347 . S
C102 H113 0.931 . S
C103 N101 1.375 . S
C103 C105 1.350 . S
C103 H112 0.930 . S
N104 C102 1.347 . S
N104 C105 1.373 . S
C105 C103 1.350 . S
C105 N104 1.373 . S
C105 H119 0.931 1_655 S
C106 O109 1.256 . S
C106 O110 1.255 . S
O107 Co90 2.021 . S
O107 C100 1.259 . S
O108 Co92 2.117 . S
O108 C100 1.258 . S
O109 Co92 2.020 . S
O109 C106 1.256 . S
O110 Co90 2.062 . S
O110 C106 1.255 . S
O111 C91 1.259 . S
O111 Co92 2.021 . S
H112 C103 0.930 . S
H113 C102 0.931 . S
O114 Co90 2.117 . S
O114 C91 1.258 . S
O115 Co90 2.020 . S
O115 C117 1.256 . S
O116 Co92 2.062 . S
O116 C117 1.255 . S
C117 O115 1.256 . S
C117 O116 1.255 . S
H118 C97 0.931 . S
H119 C105 0.931 1_455 S
H120 C126 0.930 . S
H121 C130 0.930 . S
H122 C135 0.929 . S
H123 C133 0.929 . S
H124 C128 0.929 . S
H125 C134 0.929 . S
C126 H120 0.930 . S
C126 C127 1.366 1_554 S
C126 C134 1.378 . S
C127 C126 1.366 1_556 S
C127 C135 1.434 . S
C128 H124 0.929 . S
C128 C130 1.378 . S
C128 C132 1.351 . S
C129 C132 1.463 1_554 S
C129 C134 1.353 . S
C129 N137 1.424 1_554 S
C130 H121 0.930 . S
C130 C128 1.378 . S
C130 C131 1.364 1_556 S
C131 C130 1.364 1_554 S
C131 C133 1.435 . S
C132 C128 1.351 . S
C132 C129 1.463 1_556 S
C132 N136 1.426 1_556 S
C133 H123 0.929 . S
C133 C131 1.435 . S
C133 N136 1.384 . S
C134 H125 0.929 . S
C134 C126 1.378 . S
C134 C129 1.353 . S
C135 H122 0.929 . S
C135 C127 1.434 . S
C135 N137 1.384 . S
N136 C132 1.426 1_554 S
N136 C133 1.384 . S
N137 C129 1.424 1_556 S
N137 C135 1.384 . S
H138 C144 0.930 . S
H139 C148 0.930 . S
H140 C153 0.929 . S
H141 C151 0.929 . S
H142 C146 0.929 . S
H143 C152 0.929 . S
C144 H138 0.930 . S
C144 C145 1.367 . S
C144 C152 1.378 . S
C145 C144 1.367 . S
C145 C153 1.433 . S
C146 H142 0.929 . S
C146 C148 1.378 . S
C146 C150 1.350 . S
C147 C150 1.463 . S
C147 C152 1.350 . S
C147 N155 1.427 . S
C148 H139 0.930 . S
C148 C146 1.378 . S
C148 C149 1.367 . S
C149 C148 1.367 . S
C149 C151 1.433 . S
C150 C146 1.350 . S
C150 C147 1.463 . S
C150 N154 1.427 . S
C151 H141 0.929 . S
C151 C149 1.433 . S
C151 N154 1.384 . S
C152 H143 0.929 . S
C152 C144 1.378 . S
C152 C147 1.350 . S
C153 H140 0.929 . S
C153 C145 1.433 . S
C153 N155 1.384 . S
N154 C150 1.427 . S
N154 C151 1.384 . S
N155 C147 1.427 . S
N155 C153 1.384 . S
H156 C162 0.930 . S
H157 C166 0.930 . S
H158 C171 0.929 . S
H159 C169 0.929 . S
H160 C164 0.929 1_455 S
H161 C170 0.929 1_655 S
C162 H156 0.930 . S
C162 C163 1.373 . S
C162 C170 1.378 . S
C163 C162 1.373 . S
C163 C171 1.427 1_554 S
C164 H160 0.929 1_655 S
C164 C166 1.378 . S
C164 C168 1.350 . S
C165 C168 1.463 1_444 S
C165 C170 1.350 . S
C165 N173 1.427 1_554 S
C166 H157 0.930 . S
C166 C164 1.378 . S
C166 C167 1.369 . S
C167 C166 1.369 . S
C167 C169 1.431 1_556 S
C168 C164 1.350 . S
C168 C165 1.463 1_666 S
C168 N172 1.427 1_556 S
C169 H159 0.929 . S
C169 C167 1.431 1_554 S
C169 N172 1.384 . S
C170 H161 0.929 1_455 S
C170 C162 1.378 . S
C170 C165 1.350 . S
C171 H158 0.929 . S
C171 C163 1.427 1_556 S
C171 N173 1.384 . S
N172 C168 1.427 1_554 S
N172 C169 1.384 . S
N173 C165 1.427 1_556 S
N173 C171 1.384 . S
H174 C180 0.930 . S
H175 C184 0.930 . S
H176 C189 0.929 . S
H177 C187 0.929 . S
H178 C182 0.929 . S
H179 C188 0.929 . S
C180 H174 0.930 . S
C180 C181 1.367 . S
C180 C188 1.378 . S
C181 C180 1.367 . S
C181 C189 1.433 . S
C182 H178 0.929 . S
C182 C184 1.378 . S
C182 C186 1.350 . S
C183 C186 1.463 1_645 S
C183 C188 1.350 . S
C183 N191 1.427 . S
C184 H175 0.930 . S
C184 C182 1.378 . S
C184 C185 1.367 . S
C185 C184 1.367 . S
C185 C187 1.433 . S
C186 C182 1.350 . S
C186 C183 1.463 1_465 S
C186 N190 1.427 . S
C187 H177 0.929 . S
C187 C185 1.433 . S
C187 N190 1.384 . S
C188 H179 0.929 . S
C188 C180 1.378 . S
C188 C183 1.350 . S
C189 H176 0.929 . S
C189 C181 1.433 . S
C189 N191 1.384 . S
N190 C186 1.427 . S
N190 C187 1.384 . S
N191 C183 1.427 . S
N191 C189 1.384 . S
H192 C198 0.930 . S
H193 C202 0.930 . S
H194 C207 0.929 . S
H195 C205 0.929 . S
H196 C200 0.929 . S
H197 C206 0.929 . S
C198 H192 0.930 . S
C198 C199 1.367 . S
C198 C206 1.378 . S
C199 C198 1.367 . S
C199 C207 1.433 . S
C200 H196 0.929 . S
C200 C202 1.378 . S
C200 C204 1.350 . S
C201 C204 1.463 . S
C201 C206 1.350 . S
C201 N209 1.427 . S
C202 H193 0.930 . S
C202 C200 1.378 . S
C202 C203 1.367 . S
C203 C202 1.367 . S
C203 C205 1.433 . S
C204 C200 1.350 . S
C204 C201 1.463 . S
C204 N208 1.427 . S
C205 H195 0.929 . S
C205 C203 1.433 . S
C205 N208 1.384 . S
C206 H197 0.929 . S
C206 C198 1.378 . S
C206 C201 1.350 . S
C207 H194 0.929 . S
C207 C199 1.433 . S
C207 N209 1.384 . S
N208 C204 1.427 . S
N208 C205 1.384 . S
N209 C201 1.427 . S
N209 C207 1.384 . S
H210 C216 0.930 . S
H211 C220 0.930 . S
H212 C225 0.929 . S
H213 C223 0.929 . S
H214 C218 0.929 . S
H215 C224 0.929 . S
C216 H210 0.930 . S
C216 C217 1.367 . S
C216 C224 1.378 . S
C217 C216 1.367 . S
C217 C225 1.433 . S
C218 H214 0.929 . S
C218 C220 1.378 . S
C218 C222 1.350 . S
C219 C222 1.463 . S
C219 C224 1.350 . S
C219 N227 1.427 . S
C220 H211 0.930 . S
C220 C218 1.378 . S
C220 C221 1.367 . S
C221 C220 1.367 . S
C221 C223 1.433 . S
C222 C218 1.350 . S
C222 C219 1.463 . S
C222 N226 1.427 . S
C223 H213 0.929 . S
C223 C221 1.433 . S
C223 N226 1.384 . S
C224 H215 0.929 . S
C224 C216 1.378 . S
C224 C219 1.350 . S
C225 H212 0.929 . S
C225 C217 1.433 . S
C225 N227 1.384 . S
N226 C222 1.427 . S
N226 C223 1.384 . S
N227 C219 1.427 . S
N227 C225 1.384 . S
H228 C234 0.930 . S
H229 C238 0.930 . S
H230 C243 0.929 . S
H231 C241 0.929 . S
H232 C236 0.929 . S
H233 C242 0.929 . S
C234 H228 0.930 . S
C234 C235 1.367 . S
C234 C242 1.378 . S
C235 C234 1.367 . S
C235 C243 1.433 . S
C236 H232 0.929 . S
C236 C238 1.378 . S
C236 C240 1.350 . S
C237 C240 1.463 . S
C237 C242 1.350 . S
C237 N245 1.427 . S
C238 H229 0.930 . S
C238 C236 1.378 . S
C238 C239 1.367 . S
C239 C238 1.367 . S
C239 C241 1.433 . S
C240 C236 1.350 . S
C240 C237 1.463 . S
C240 N244 1.427 . S
C241 H231 0.929 . S
C241 C239 1.433 . S
C241 N244 1.384 . S
C242 H233 0.929 . S
C242 C234 1.378 . S
C242 C237 1.350 . S
C243 H230 0.929 . S
C243 C235 1.433 . S
C243 N245 1.384 . S
N244 C240 1.427 . S
N244 C241 1.384 . S
N245 C237 1.427 . S
N245 C243 1.384 . S
H246 C252 0.930 . S
H247 C256 0.930 . S
H248 C261 0.929 . S
H249 C259 0.929 . S
H250 C254 0.929 . S
H251 C260 0.929 . S
C252 H246 0.930 . S
C252 C253 1.367 . S
C252 C260 1.378 . S
C253 C252 1.367 . S
C253 C261 1.433 . S
C254 H250 0.929 . S
C254 C256 1.378 . S
C254 C258 1.350 . S
C255 C258 1.463 . S
C255 C260 1.350 . S
C255 N263 1.427 . S
C256 H247 0.930 . S
C256 C254 1.378 . S
C256 C257 1.367 . S
C257 C256 1.367 . S
C257 C259 1.433 . S
C258 C254 1.350 . S
C258 C255 1.463 . S
C258 N262 1.427 . S
C259 H249 0.929 . S
C259 C257 1.433 . S
C259 N262 1.384 . S
C260 H251 0.929 . S
C260 C252 1.378 . S
C260 C255 1.350 . S
C261 H248 0.929 . S
C261 C253 1.433 . S
C261 N263 1.384 . S
N262 C258 1.427 . S
N262 C259 1.384 . S
N263 C255 1.427 . S
N263 C261 1.384 . S
H264 C270 0.930 . S
H265 C274 0.930 . S
H266 C279 0.929 . S
H267 C277 0.929 . S
H268 C272 0.929 1_655 S
H269 C278 0.929 . S
C270 H264 0.930 . S
C270 C271 1.367 1_455 S
C270 C278 1.378 . S
C271 C270 1.367 1_655 S
C271 C279 1.433 . S
C272 H268 0.929 1_455 S
C272 C274 1.378 . S
C272 C276 1.350 . S
C273 C276 1.463 . S
C273 C278 1.350 . S
C273 N281 1.427 1_455 S
C274 H265 0.930 . S
C274 C272 1.378 . S
C274 C275 1.367 . S
C275 C274 1.367 . S
C275 C277 1.433 . S
C276 C272 1.350 . S
C276 C273 1.463 . S
C276 N280 1.427 . S
C277 H267 0.929 . S
C277 C275 1.433 . S
C277 N280 1.384 . S
C278 H269 0.929 . S
C278 C270 1.378 . S
C278 C273 1.350 . S
C279 H266 0.929 . S
C279 C271 1.433 . S
C279 N281 1.384 . S
N280 C276 1.427 . S
N280 C277 1.384 . S
N281 C273 1.427 1_655 S
N281 C279 1.384 . S
H282 C288 0.930 . S
H283 C292 0.930 . S
H284 C297 0.929 . S
H285 C295 0.929 . S
H286 C290 0.929 1_655 S
H287 C296 0.929 . S
C288 H282 0.930 . S
C288 C289 1.367 1_455 S
C288 C296 1.378 . S
C289 C288 1.367 1_655 S
C289 C297 1.433 . S
C290 H286 0.929 1_455 S
C290 C292 1.378 . S
C290 C294 1.350 . S
C291 C294 1.463 . S
C291 C296 1.350 . S
C291 N299 1.427 1_455 S
C292 H283 0.930 . S
C292 C290 1.378 . S
C292 C293 1.367 . S
C293 C292 1.367 . S
C293 C295 1.433 . S
C294 C290 1.350 . S
C294 C291 1.463 . S
C294 N298 1.427 . S
C295 H285 0.929 . S
C295 C293 1.433 . S
C295 N298 1.384 . S
C296 H287 0.929 . S
C296 C288 1.378 . S
C296 C291 1.350 . S
C297 H284 0.929 . S
C297 C289 1.433 . S
C297 N299 1.384 . S
N298 C294 1.427 . S
N298 C295 1.384 . S
N299 C291 1.427 1_655 S
N299 C297 1.384 . S
H300 C306 0.930 . S
H301 C310 0.930 . S
H302 C315 0.929 . S
H303 C313 0.929 . S
H304 C308 0.929 . S
H305 C314 0.929 . S
C306 H300 0.930 . S
C306 C307 1.367 . S
C306 C314 1.378 . S
C307 C306 1.367 . S
C307 C315 1.433 . S
C308 H304 0.929 . S
C308 C310 1.378 . S
C308 C312 1.350 . S
C309 C312 1.463 . S
C309 C314 1.350 . S
C309 N317 1.427 . S
C310 H301 0.930 . S
C310 C308 1.378 . S
C310 C311 1.367 1_655 S
C311 C310 1.367 1_455 S
C311 C313 1.433 . S
C312 C308 1.350 . S
C312 C309 1.463 . S
C312 N316 1.427 . S
C313 H303 0.929 . S
C313 C311 1.433 . S
C313 N316 1.384 1_455 S
C314 H305 0.929 . S
C314 C306 1.378 . S
C314 C309 1.350 . S
C315 H302 0.929 . S
C315 C307 1.433 . S
C315 N317 1.384 . S
N316 C312 1.427 . S
N316 C313 1.384 1_655 S
N317 C309 1.427 . S
N317 C315 1.384 . S
H318 C324 0.930 . S
H319 C328 0.930 . S
H320 C333 0.929 . S
H321 C331 0.929 . S
H322 C326 0.929 . S
H323 C332 0.929 . S
C324 H318 0.930 . S
C324 C325 1.367 . S
C324 C332 1.378 1_455 S
C325 C324 1.367 . S
C325 C333 1.433 1_455 S
C326 H322 0.929 . S
C326 C328 1.378 . S
C326 C330 1.350 . S
C327 C330 1.463 . S
C327 C332 1.350 . S
C327 N335 1.427 . S
C328 H319 0.930 . S
C328 C326 1.378 . S
C328 C329 1.367 . S
C329 C328 1.367 . S
C329 C331 1.433 . S
C330 C326 1.350 . S
C330 C327 1.463 . S
C330 N334 1.427 . S
C331 H321 0.929 . S
C331 C329 1.433 . S
C331 N334 1.384 . S
C332 H323 0.929 . S
C332 C324 1.378 1_655 S
C332 C327 1.350 . S
C333 H320 0.929 . S
C333 C325 1.433 1_655 S
C333 N335 1.384 . S
N334 C330 1.427 . S
N334 C331 1.384 . S
N335 C327 1.427 . S
N335 C333 1.384 . S
C127 C31 1.663 1_556 S
C131 C10 1.663 1_554 S
C145 C70 1.660 . S
C149 C91 1.660 . S
C163 C1 1.657 . S
C167 C40 1.657 . S
C181 C100 1.659 . S
C185 C61 1.659 . S
C199 C117 0.991 . S
C203 N14 0.963 . S
C217 C57 0.987 . S
C221 N74 0.975 . S
C235 N36 0.977 . S
C239 C76 0.989 . S
C253 N96 0.978 . S
C257 C16 0.989 . S
C271 N44 0.977 . S
C275 C87 0.993 . S
C289 N104 0.975 . S
C293 C27 0.994 . S
C307 C106 0.991 . S
C311 N6 0.984 . S
C325 N66 0.959 . S
C329 C46 0.999 . S
