# Generated by pormake.
# Topology fnd, (5)-cn, num edge types: 1
# Building blocks:
#     Node 0, Type 0, BuildingBlock: XOMCOT_clean_sbu_0, # of connection points: 5
#     Node 1, Type 0, BuildingBlock: XOMCOT_clean_sbu_0, # of connection points: 5
#     Node 2, Type 0, BuildingBlock: XOMCOT_clean_sbu_0, # of connection points: 5
#     Node 3, Type 0, BuildingBlock: XOMCOT_clean_sbu_0, # of connection points: 5
#     Node 4, Type 0, BuildingBlock: XOMCOT_clean_sbu_0, # of connection points: 5
#     Node 5, Type 0, BuildingBlock: XOMCOT_clean_sbu_0, # of connection points: 5
#     Node 6, Type 0, BuildingBlock: XOMCOT_clean_sbu_0, # of connection points: 5
#     Node 7, Type 0, BuildingBlock: XOMCOT_clean_sbu_0, # of connection points: 5
#     Node 8, Type 0, BuildingBlock: XOMCOT_clean_sbu_0, # of connection points: 5
#     Node 9, Type 0, BuildingBlock: XOMCOT_clean_sbu_0, # of connection points: 5
#     Node 10, Type 0, BuildingBlock: XOMCOT_clean_sbu_0, # of connection points: 5
#     Node 11, Type 0, BuildingBlock: XOMCOT_clean_sbu_0, # of connection points: 5
#     Node 12, Type 0, BuildingBlock: XOMCOT_clean_sbu_0, # of connection points: 5
#     Node 13, Type 0, BuildingBlock: XOMCOT_clean_sbu_0, # of connection points: 5
#     Node 14, Type 0, BuildingBlock: XOMCOT_clean_sbu_0, # of connection points: 5
#     Node 15, Type 0, BuildingBlock: XOMCOT_clean_sbu_0, # of connection points: 5
#     Node 16, Type 0, BuildingBlock: XOMCOT_clean_sbu_0, # of connection points: 5
#     Node 17, Type 0, BuildingBlock: XOMCOT_clean_sbu_0, # of connection points: 5
#     Edge 18, Type (0, 0), BuildingBlock: EZIPEK_clean_linker_0, # of connection points: 2
#     Edge 19, Type (0, 0), BuildingBlock: EZIPEK_clean_linker_0, # of connection points: 2
#     Edge 20, Type (0, 0), BuildingBlock: EZIPEK_clean_linker_0, # of connection points: 2
#     Edge 21, Type (0, 0), BuildingBlock: EZIPEK_clean_linker_0, # of connection points: 2
#     Edge 22, Type (0, 0), BuildingBlock: EZIPEK_clean_linker_0, # of connection points: 2
#     Edge 23, Type (0, 0), BuildingBlock: EZIPEK_clean_linker_0, # of connection points: 2
#     Edge 24, Type (0, 0), BuildingBlock: EZIPEK_clean_linker_0, # of connection points: 2
#     Edge 25, Type (0, 0), BuildingBlock: EZIPEK_clean_linker_0, # of connection points: 2
#     Edge 26, Type (0, 0), BuildingBlock: EZIPEK_clean_linker_0, # of connection points: 2
#     Edge 27, Type (0, 0), BuildingBlock: EZIPEK_clean_linker_0, # of connection points: 2
#     Edge 28, Type (0, 0), BuildingBlock: EZIPEK_clean_linker_0, # of connection points: 2
#     Edge 29, Type (0, 0), BuildingBlock: EZIPEK_clean_linker_0, # of connection points: 2
#     Edge 30, Type (0, 0), BuildingBlock: EZIPEK_clean_linker_0, # of connection points: 2
#     Edge 31, Type (0, 0), BuildingBlock: EZIPEK_clean_linker_0, # of connection points: 2
#     Edge 32, Type (0, 0), BuildingBlock: EZIPEK_clean_linker_0, # of connection points: 2
#     Edge 33, Type (0, 0), BuildingBlock: EZIPEK_clean_linker_0, # of connection points: 2
#     Edge 34, Type (0, 0), BuildingBlock: EZIPEK_clean_linker_0, # of connection points: 2
#     Edge 35, Type (0, 0), BuildingBlock: EZIPEK_clean_linker_0, # of connection points: 2
#     Edge 36, Type (0, 0), BuildingBlock: EZIPEK_clean_linker_0, # of connection points: 2
#     Edge 37, Type (0, 0), BuildingBlock: EZIPEK_clean_linker_0, # of connection points: 2
#     Edge 38, Type (0, 0), BuildingBlock: EZIPEK_clean_linker_0, # of connection points: 2
#     Edge 39, Type (0, 0), BuildingBlock: EZIPEK_clean_linker_0, # of connection points: 2
#     Edge 40, Type (0, 0), BuildingBlock: EZIPEK_clean_linker_0, # of connection points: 2
#     Edge 41, Type (0, 0), BuildingBlock: EZIPEK_clean_linker_0, # of connection points: 2
#     Edge 42, Type (0, 0), BuildingBlock: EZIPEK_clean_linker_0, # of connection points: 2
#     Edge 43, Type (0, 0), BuildingBlock: EZIPEK_clean_linker_0, # of connection points: 2
#     Edge 44, Type (0, 0), BuildingBlock: EZIPEK_clean_linker_0, # of connection points: 2
#     Edge 45, Type (0, 0), BuildingBlock: EZIPEK_clean_linker_0, # of connection points: 2
#     Edge 46, Type (0, 0), BuildingBlock: EZIPEK_clean_linker_0, # of connection points: 2
#     Edge 47, Type (0, 0), BuildingBlock: EZIPEK_clean_linker_0, # of connection points: 2
#     Edge 48, Type (0, 0), BuildingBlock: EZIPEK_clean_linker_0, # of connection points: 2
#     Edge 49, Type (0, 0), BuildingBlock: EZIPEK_clean_linker_0, # of connection points: 2
#     Edge 50, Type (0, 0), BuildingBlock: EZIPEK_clean_linker_0, # of connection points: 2
#     Edge 51, Type (0, 0), BuildingBlock: EZIPEK_clean_linker_0, # of connection points: 2
#     Edge 52, Type (0, 0), BuildingBlock: EZIPEK_clean_linker_0, # of connection points: 2
#     Edge 53, Type (0, 0), BuildingBlock: EZIPEK_clean_linker_0, # of connection points: 2
#     Edge 54, Type (0, 0), BuildingBlock: EZIPEK_clean_linker_0, # of connection points: 2
#     Edge 55, Type (0, 0), BuildingBlock: EZIPEK_clean_linker_0, # of connection points: 2
#     Edge 56, Type (0, 0), BuildingBlock: EZIPEK_clean_linker_0, # of connection points: 2
#     Edge 57, Type (0, 0), BuildingBlock: EZIPEK_clean_linker_0, # of connection points: 2
#     Edge 58, Type (0, 0), BuildingBlock: EZIPEK_clean_linker_0, # of connection points: 2
#     Edge 59, Type (0, 0), BuildingBlock: EZIPEK_clean_linker_0, # of connection points: 2
#     Edge 60, Type (0, 0), BuildingBlock: EZIPEK_clean_linker_0, # of connection points: 2
#     Edge 61, Type (0, 0), BuildingBlock: EZIPEK_clean_linker_0, # of connection points: 2
#     Edge 62, Type (0, 0), BuildingBlock: EZIPEK_clean_linker_0, # of connection points: 2
# Relax obj value: 0.027
# Max RMSD: 0.057
# Mean RMSD: 0.057
data_MOF--net-fnd--node1-XOMCOT_clean_sbu_0--edge1-EZIPEK_clean_linker_0
_symmetry_space_group_name_H-M    P1
_symmetry_Int_Tables_number       1
_symmetry_cell_setting            triclinic
loop_
_symmetry_equiv_pos_as_xyz
'x, y, z'
_cell_length_a     62.974674
_cell_length_b     63.196498
_cell_length_c     13.713401
_cell_angle_alpha  89.998084
_cell_angle_beta   89.890571
_cell_angle_gamma 120.01858
loop_
_atom_site_label
_atom_site_type_symbol
_atom_site_fract_x
_atom_site_fract_y
_atom_site_fract_z
_atom_type_partial_charge
Co0 Co 0.11561 0.24643 0.45297 0.0
C1 C 0.11851 0.24655 0.67281 0.0
C2 C 0.11722 0.27749 0.61658 0.0
C3 C 0.11689 0.27838 0.71687 0.0
N4 N 0.11857 0.25773 0.58809 0.0
N5 N 0.11772 0.25896 0.75181 0.0
H6 H 0.11793 0.22928 0.6781 0.0
H7 H 0.11543 0.28989 0.56798 0.0
C8 C 0.1585 0.29875 0.44745 0.0
O9 O 0.1666 0.29501 0.53014 0.0
N10 N 0.11232 0.23526 0.31908 0.0
C11 C 0.10964 0.21371 0.28939 0.0
C12 C 0.10928 0.21304 0.1889 0.0
C13 C 0.11364 0.2475 0.23619 0.0
N14 N 0.11184 0.23426 0.15589 0.0
C15 C 0.13518 0.21673 0.5232 0.0
C16 C 0.17955 0.24019 0.42592 0.0
C17 C 0.17376 0.21922 0.48082 0.0
C18 C 0.15127 0.20756 0.52997 0.0
C19 C 0.16281 0.24876 0.42086 0.0
N20 N 0.14115 0.23752 0.47163 0.0
H21 H 0.11732 0.20627 0.55626 0.0
H22 H 0.16679 0.26364 0.37191 0.0
H23 H 0.10826 0.19952 0.33754 0.0
H24 H 0.11622 0.26576 0.2344 0.0
O25 O 0.08675 0.21557 0.48993 0.0
O26 O 0.08559 0.24815 0.43988 0.0
O27 O 0.13979 0.28109 0.406 0.0
C28 C 0.07359 0.22563 0.4704 0.0
H29 H 0.11534 0.29177 0.76086 0.0
H30 H 0.10763 0.1983 0.14334 0.0
H31 H 0.19648 0.24933 0.38457 0.0
H32 H 0.14581 0.19095 0.57094 0.0
Co33 Co 0.78721 0.87348 0.46948 0.0
C34 C 0.78665 0.8766 0.6888 0.0
C35 C 0.7555 0.84453 0.63161 0.0
C36 C 0.75426 0.84335 0.73195 0.0
N37 N 0.7756 0.8655 0.60402 0.0
N38 N 0.77389 0.86342 0.76765 0.0
H39 H 0.80413 0.89325 0.69364 0.0
H40 H 0.743 0.83058 0.58188 0.0
C41 C 0.73503 0.86515 0.46026 0.0
O42 O 0.73866 0.87751 0.54156 0.0
N43 N 0.79852 0.8809 0.33528 0.0
C44 C 0.82104 0.89811 0.30522 0.0
C45 C 0.82161 0.89843 0.20459 0.0
C46 C 0.78568 0.87088 0.2525 0.0
N47 N 0.79939 0.88138 0.17189 0.0
C48 C 0.81922 0.92258 0.53368 0.0
C49 C 0.79349 0.94412 0.46396 0.0
C50 C 0.81621 0.95903 0.50942 0.0
C51 C 0.82912 0.9478 0.54332 0.0
C52 C 0.7848 0.919 0.45107 0.0
N53 N 0.79716 0.90818 0.48888 0.0
H54 H 0.82986 0.91484 0.56109 0.0
H55 H 0.7685 0.9087 0.40855 0.0
H56 H 0.83598 0.9098 0.35311 0.0
H57 H 0.76674 0.85635 0.25089 0.0
O58 O 0.81783 0.87504 0.50627 0.0
O59 O 0.78482 0.84151 0.45855 0.0
O60 O 0.7526 0.86321 0.42245 0.0
C61 C 0.80737 0.85176 0.48933 0.0
H62 H 0.74056 0.82847 0.77553 0.0
H63 H 0.83702 0.91038 0.15877 0.0
H64 H 0.78296 0.95201 0.43543 0.0
H65 H 0.84689 0.95851 0.57748 0.0
Co66 Co 0.15875 0.91774 0.46987 0.0
C67 C 0.15783 0.91874 0.687 0.0
C68 C 0.185 0.91065 0.63258 0.0
C69 C 0.18597 0.91106 0.73306 0.0
N70 N 0.1673 0.91532 0.60369 0.0
N71 N 0.16896 0.91619 0.76684 0.0
H72 H 0.14322 0.92303 0.68932 0.0
H73 H 0.19666 0.90745 0.58402 0.0
C74 C 0.1613 0.87628 0.36362 0.0
O75 O 0.14173 0.87115 0.31222 0.0
N76 N 0.1503 0.92057 0.33475 0.0
C77 C 0.13132 0.92319 0.30447 0.0
C78 C 0.13131 0.92417 0.20425 0.0
C79 C 0.16212 0.92092 0.25135 0.0
N80 N 0.15054 0.92257 0.17114 0.0
C81 C 0.1084 0.90169 0.51621 0.0
C82 C 0.09078 0.85199 0.52115 0.0
C83 C 0.07408 0.86049 0.52993 0.0
C84 C 0.08332 0.8857 0.53001 0.0
C85 C 0.11593 0.86877 0.50742 0.0
N86 N 0.12431 0.89329 0.49891 0.0
H87 H 0.11481 0.92101 0.51722 0.0
H88 H 0.12846 0.86189 0.50483 0.0
H89 H 0.11837 0.92475 0.35087 0.0
H90 H 0.17846 0.91946 0.24874 0.0
O91 O 0.15808 0.94741 0.50307 0.0
O92 O 0.19097 0.94675 0.45166 0.0
O93 O 0.1685 0.89244 0.43117 0.0
C94 C 0.18128 0.95957 0.48176 0.0
H95 H 0.19828 0.90799 0.77807 0.0
H96 H 0.1181 0.92572 0.15889 0.0
H97 H 0.08443 0.83261 0.52459 0.0
H98 H 0.07115 0.89303 0.5396 0.0
Co99 Co 0.25316 0.10742 0.55942 0.0
C100 C 0.25238 0.10954 0.3418 0.0
C101 C 0.28624 0.11392 0.39706 0.0
C102 C 0.28698 0.11352 0.29666 0.0
N103 N 0.26459 0.11143 0.42547 0.0
N104 N 0.26567 0.11061 0.26229 0.0
H105 H 0.23389 0.10653 0.33906 0.0
H106 H 0.3002 0.11504 0.44608 0.0
C107 C 0.2973 0.14771 0.67037 0.0
O108 O 0.2828 0.15207 0.72524 0.0
N109 N 0.24156 0.10279 0.69488 0.0
C110 C 0.21914 0.09792 0.72553 0.0
C111 C 0.21807 0.09642 0.82573 0.0
C112 C 0.2534 0.10299 0.77785 0.0
N113 N 0.23968 0.09988 0.85843 0.0
C114 C 0.21898 0.12404 0.52198 0.0
C115 C 0.25148 0.17371 0.5189 0.0
C116 C 0.2263 0.16538 0.50985 0.0
C117 C 0.21011 0.14019 0.50954 0.0
C118 C 0.25966 0.15678 0.53114 0.0
N119 N 0.24334 0.13222 0.53761 0.0
H120 H 0.20592 0.10476 0.5193 0.0
H121 H 0.27911 0.16362 0.53367 0.0
H122 H 0.20429 0.09545 0.67921 0.0
H123 H 0.27185 0.10597 0.77996 0.0
O124 O 0.22268 0.0782 0.52252 0.0
O125 O 0.25604 0.07812 0.56948 0.0
O126 O 0.28828 0.13239 0.59992 0.0
C127 C 0.23347 0.06562 0.53917 0.0
H128 H 0.30167 0.11452 0.25217 0.0
H129 H 0.20282 0.09356 0.87143 0.0
H130 H 0.26468 0.19308 0.5161 0.0
H131 H 0.19061 0.133 0.49991 0.0
Co132 Co 0.92488 0.15164 0.55513 0.0
C133 C 0.93034 0.15984 0.33678 0.0
C134 C 0.89449 0.15019 0.38688 0.0
C135 C 0.89472 0.15159 0.28697 0.0
N136 N 0.91683 0.15544 0.41963 0.0
N137 N 0.91717 0.15734 0.25525 0.0
H138 H 0.949 0.16373 0.33477 0.0
H139 H 0.87831 0.14379 0.43036 0.0
C140 C 0.87897 0.15515 0.61888 0.0
O141 O 0.86302 0.13295 0.59077 0.0
N142 N 0.93281 0.14788 0.68891 0.0
C143 C 0.94143 0.1332 0.71807 0.0
C144 C 0.94311 0.13389 0.81826 0.0
C145 C 0.92953 0.15747 0.77209 0.0
N146 N 0.9355 0.14901 0.85205 0.0
C147 C 0.90114 0.10366 0.47596 0.0
C148 C 0.86789 0.07957 0.62416 0.0
C149 C 0.86905 0.06574 0.54601 0.0
C150 C 0.88625 0.07826 0.47205 0.0
C151 C 0.88417 0.10495 0.62787 0.0
N152 N 0.89981 0.1169 0.55209 0.0
H153 H 0.91451 0.11268 0.41875 0.0
H154 H 0.88416 0.11495 0.69173 0.0
H155 H 0.94529 0.12196 0.67005 0.0
H156 H 0.92227 0.16976 0.77478 0.0
O157 O 0.95245 0.14812 0.51155 0.0
O158 O 0.9551 0.18324 0.54802 0.0
O159 O 0.90216 0.16387 0.60723 0.0
C160 C 0.96641 0.17161 0.52132 0.0
H161 H 0.87907 0.14681 0.24058 0.0
H162 H 0.94835 0.1232 0.86336 0.0
H163 H 0.85509 0.07071 0.68357 0.0
H164 H 0.88827 0.06841 0.41142 0.0
Co165 Co 0.88148 0.77816 0.57569 0.0
C166 C 0.88428 0.77813 0.35593 0.0
C167 C 0.85351 0.74578 0.41363 0.0
C168 C 0.85215 0.74471 0.31325 0.0
N169 N 0.87382 0.76657 0.44101 0.0
N170 N 0.8715 0.76503 0.27738 0.0
H171 H 0.9001 0.79614 0.3502 0.0
H172 H 0.83997 0.73273 0.4635 0.0
C173 C 0.87446 0.72691 0.58761 0.0
O174 O 0.88891 0.73168 0.51159 0.0
N175 N 0.88867 0.78948 0.70966 0.0
C176 C 0.90718 0.81129 0.73945 0.0
C177 C 0.90747 0.81187 0.83997 0.0
C178 C 0.87792 0.77703 0.79254 0.0
N179 N 0.88915 0.79035 0.87293 0.0
C180 C 0.93099 0.80815 0.50611 0.0
C181 C 0.95229 0.78611 0.60951 0.0
C182 C 0.9674 0.80677 0.55291 0.0
C183 C 0.9564 0.81774 0.50065 0.0
C184 C 0.92688 0.77713 0.61321 0.0
N185 N 0.91625 0.78764 0.5595 0.0
H186 H 0.92344 0.81814 0.47081 0.0
H187 H 0.91609 0.76243 0.66282 0.0
H188 H 0.91986 0.82565 0.69133 0.0
H189 H 0.86258 0.75853 0.7943 0.0
O190 O 0.88325 0.80874 0.53707 0.0
O191 O 0.84944 0.77578 0.58573 0.0
O192 O 0.87088 0.74363 0.62289 0.0
C193 C 0.85982 0.7982 0.5545 0.0
H194 H 0.83771 0.73051 0.26987 0.0
H195 H 0.92037 0.82674 0.88556 0.0
H196 H 0.96019 0.77749 0.65306 0.0
H197 H 0.96751 0.83413 0.45824 0.0
Co198 Co 0.77958 0.57706 0.76924 0.0
C199 C 0.78186 0.5772 0.98932 0.0
C200 C 0.7832 0.60927 0.93075 0.0
C201 C 0.78291 0.61051 0.0311 0.0
N202 N 0.78291 0.58857 0.90392 0.0
N203 N 0.7821 0.59037 0.06749 0.0
H204 H 0.77991 0.55932 0.9956 0.0
H205 H 0.78274 0.62222 0.8805 0.0
C206 C 0.82387 0.62839 0.7589 0.0
O207 O 0.83315 0.62357 0.83585 0.0
N208 N 0.77602 0.56593 0.63509 0.0
C209 C 0.7733 0.54441 0.60465 0.0
C210 C 0.77295 0.54393 0.50408 0.0
C211 C 0.77733 0.5783 0.55257 0.0
N212 N 0.77553 0.56522 0.47176 0.0
C213 C 0.79914 0.54747 0.84112 0.0
C214 C 0.84315 0.57004 0.74117 0.0
C215 C 0.83749 0.54948 0.79842 0.0
C216 C 0.81516 0.53823 0.84879 0.0
C217 C 0.82647 0.57864 0.73506 0.0
N218 N 0.80503 0.56793 0.78729 0.0
H219 H 0.78141 0.53731 0.8753 0.0
H220 H 0.83052 0.59327 0.68503 0.0
H221 H 0.77199 0.53017 0.65232 0.0
H222 H 0.77995 0.59657 0.55141 0.0
O223 O 0.75079 0.54627 0.80684 0.0
O224 O 0.74965 0.57891 0.75737 0.0
O225 O 0.80361 0.61169 0.72282 0.0
C226 C 0.73767 0.55643 0.78827 0.0
H227 H 0.78264 0.62474 0.07411 0.0
H228 H 0.77134 0.52929 0.45802 0.0
H229 H 0.85996 0.57886 0.69898 0.0
H230 H 0.8098 0.5219 0.89162 0.0
Co231 Co 0.4518 0.20459 0.81191 0.0
C232 C 0.4515 0.20807 0.03098 0.0
C233 C 0.42089 0.17527 0.97595 0.0
C234 C 0.41994 0.17437 0.07623 0.0
N235 N 0.4404 0.19656 0.94684 0.0
N236 N 0.43926 0.1949 0.11064 0.0
H237 H 0.4687 0.22503 0.03487 0.0
H238 H 0.40868 0.16083 0.92772 0.0
C239 C 0.39914 0.19537 0.80668 0.0
O240 O 0.40216 0.20585 0.89223 0.0
N241 N 0.46322 0.21221 0.67796 0.0
C242 C 0.48617 0.22861 0.64905 0.0
C243 C 0.48703 0.22921 0.54852 0.0
C244 C 0.45037 0.203 0.59455 0.0
N245 N 0.46455 0.21319 0.51472 0.0
C246 C 0.48418 0.25371 0.87571 0.0
C247 C 0.45839 0.27513 0.80502 0.0
C248 C 0.48115 0.29013 0.85012 0.0
C249 C 0.4941 0.27897 0.88446 0.0
C250 C 0.4497 0.24997 0.79305 0.0
N251 N 0.46204 0.23926 0.8317 0.0
H252 H 0.49485 0.24596 0.90291 0.0
H253 H 0.4336 0.23951 0.74951 0.0
H254 H 0.50125 0.23946 0.69773 0.0
H255 H 0.43116 0.18918 0.59193 0.0
O256 O 0.48226 0.20568 0.84821 0.0
O257 O 0.44903 0.17246 0.7995 0.0
O258 O 0.41721 0.195 0.76491 0.0
C259 C 0.4716 0.18245 0.82992 0.0
H260 H 0.40676 0.15934 0.12067 0.0
H261 H 0.50287 0.24055 0.50352 0.0
H262 H 0.44788 0.28295 0.77571 0.0
H263 H 0.51193 0.28975 0.91805 0.0
Co264 Co 0.82623 0.25136 0.80908 0.0
C265 C 0.82339 0.24806 0.0291 0.0
C266 C 0.8547 0.24758 0.97034 0.0
C267 C 0.85611 0.24763 0.07062 0.0
N268 N 0.83402 0.24748 0.94365 0.0
N269 N 0.83649 0.24805 0.10723 0.0
H270 H 0.80719 0.24966 0.03523 0.0
H271 H 0.86838 0.24848 0.92002 0.0
C272 C 0.83394 0.20744 0.79727 0.0
O273 O 0.81999 0.1979 0.87464 0.0
N274 N 0.81912 0.25554 0.67497 0.0
C275 C 0.80128 0.25987 0.64491 0.0
C276 C 0.80111 0.26022 0.5443 0.0
C277 C 0.82973 0.25347 0.59225 0.0
N278 N 0.81893 0.25615 0.51164 0.0
C279 C 0.77683 0.23243 0.87749 0.0
C280 C 0.75539 0.18794 0.7829 0.0
C281 C 0.74031 0.19417 0.83673 0.0
C282 C 0.75144 0.2168 0.88413 0.0
C283 C 0.78077 0.20443 0.77632 0.0
N284 N 0.79147 0.22615 0.8259 0.0
H285 H 0.78448 0.25013 0.91131 0.0
H286 H 0.79146 0.19993 0.72843 0.0
H287 H 0.78892 0.26218 0.69283 0.0
H288 H 0.84475 0.24979 0.59072 0.0
O289 O 0.82416 0.28001 0.8469 0.0
O290 O 0.85813 0.28104 0.7996 0.0
O291 O 0.83703 0.22755 0.76179 0.0
C292 C 0.84757 0.29305 0.83003 0.0
H293 H 0.87084 0.24827 0.11347 0.0
H294 H 0.78865 0.26286 0.49846 0.0
H295 H 0.74747 0.17082 0.74343 0.0
H296 H 0.74047 0.2226 0.92476 0.0
Co297 Co 0.91978 0.44093 0.8931 0.0
C298 C 0.91766 0.43945 0.67589 0.0
C299 C 0.95303 0.4478 0.7298 0.0
C300 C 0.95353 0.44716 0.62935 0.0
N301 N 0.93062 0.44312 0.759 0.0
N302 N 0.93132 0.44187 0.59588 0.0
H303 H 0.89872 0.4351 0.67377 0.0
H304 H 0.96794 0.45116 0.77815 0.0
C305 C 0.96403 0.4819 1.00048 0.0
O306 O 0.94964 0.48595 0.05726 0.0
N307 N 0.90861 0.43822 0.02831 0.0
C308 C 0.88742 0.43657 0.05904 0.0
C309 C 0.88632 0.43528 0.15921 0.0
C310 C 0.91966 0.43692 0.11117 0.0
N311 N 0.90666 0.43574 0.19179 0.0
C312 C 0.88529 0.45629 0.84247 0.0
C313 C 0.91667 0.50619 0.845 0.0
C314 C 0.89152 0.49722 0.83092 0.0
C315 C 0.87593 0.47194 0.82744 0.0
C316 C 0.92536 0.48977 0.85987 0.0
N317 N 0.90951 0.46506 0.86371 0.0
H318 H 0.87261 0.43691 0.83974 0.0
H319 H 0.9448 0.49715 0.86719 0.0
H320 H 0.87338 0.43609 1.01292 0.0
H321 H 0.93719 0.43766 0.1129 0.0
O322 O 0.88945 0.41099 0.86171 0.0
O323 O 0.9233 0.41221 0.91212 0.0
O324 O 0.95489 0.46668 0.92977 0.0
C325 C 0.90069 0.39911 0.88327 0.0
H326 H 0.96893 0.45024 0.58415 0.0
H327 H 0.87192 0.43451 0.20498 0.0
H328 H 0.92945 0.52568 0.84488 0.0
H329 H 0.85648 0.46429 0.81438 0.0
Co330 Co 0.58953 0.48302 0.88482 0.0
C331 C 0.5946 0.49126 0.66643 0.0
C332 C 0.55842 0.48014 0.71718 0.0
C333 C 0.5585 0.48149 0.61724 0.0
N334 N 0.58105 0.48631 0.74946 0.0
N335 N 0.58116 0.48817 0.58515 0.0
H336 H 0.61354 0.49606 0.66411 0.0
H337 H 0.54224 0.47324 0.7612 0.0
C338 C 0.54396 0.487 0.94923 0.0
O339 O 0.52783 0.4646 0.92401 0.0
N340 N 0.59784 0.47976 0.01872 0.0
C341 C 0.60716 0.4657 0.04811 0.0
C342 C 0.60881 0.46645 0.1483 0.0
C343 C 0.59403 0.48899 0.10187 0.0
N344 N 0.60041 0.48094 0.18194 0.0
C345 C 0.56564 0.43477 0.80854 0.0
C346 C 0.53283 0.41111 0.95852 0.0
C347 C 0.53386 0.39703 0.88103 0.0
C348 C 0.55084 0.40934 0.80615 0.0
C349 C 0.54903 0.43653 0.96066 0.0
N350 N 0.56445 0.44825 0.88404 0.0
H351 H 0.57882 0.44363 0.75059 0.0
H352 H 0.54914 0.44674 0.02403 0.0
H353 H 0.61154 0.45481 1.00028 0.0
H354 H 0.58608 0.50068 0.10452 0.0
O355 O 0.61692 0.47928 0.84062 0.0
O356 O 0.61972 0.51456 0.87537 0.0
O357 O 0.56707 0.49557 0.93628 0.0
C358 C 0.6309 0.50281 0.84872 0.0
H359 H 0.54267 0.47611 0.5711 0.0
H360 H 0.61453 0.45616 0.1935 0.0
H361 H 0.52021 0.40242 0.01859 0.0
H362 H 0.55276 0.39931 0.74596 0.0
Co363 Co 0.54712 0.10949 0.89762 0.0
C364 C 0.55004 0.10948 0.6784 0.0
C365 C 0.51771 0.07832 0.73437 0.0
C366 C 0.51662 0.07754 0.63398 0.0
N367 N 0.53879 0.09818 0.76285 0.0
N368 N 0.53692 0.0971 0.59921 0.0
H369 H 0.56683 0.1268 0.67378 0.0
H370 H 0.50359 0.06569 0.78333 0.0
C371 C 0.53805 0.05726 0.90139 0.0
O372 O 0.54819 0.06035 0.8149 0.0
N373 N 0.55506 0.12072 0.03143 0.0
C374 C 0.57352 0.14261 0.06083 0.0
C375 C 0.57391 0.14327 0.16135 0.0
C376 C 0.54445 0.1083 0.11451 0.0
N377 N 0.5557 0.12173 0.19467 0.0
C378 C 0.59624 0.14149 0.82953 0.0
C379 C 0.61831 0.11726 0.90985 0.0
C380 C 0.63312 0.13959 0.86183 0.0
C381 C 0.62165 0.15162 0.82139 0.0
C382 C 0.59287 0.10796 0.91826 0.0
N383 N 0.58191 0.11972 0.87621 0.0
H384 H 0.58826 0.15179 0.80065 0.0
H385 H 0.58239 0.09188 0.96224 0.0
H386 H 0.58592 0.15709 1.01255 0.0
H387 H 0.52906 0.08982 0.11653 0.0
O388 O 0.54774 0.13974 0.86186 0.0
O389 O 0.51476 0.10636 0.91283 0.0
O390 O 0.53796 0.07523 0.94441 0.0
C391 C 0.52446 0.1288 0.88224 0.0
H392 H 0.50176 0.06407 0.58982 0.0
H393 H 0.58667 0.15828 0.20669 0.0
H394 H 0.62649 0.10757 0.9437 0.0
H395 H 0.63239 0.16907 0.78508 0.0
Co396 Co 0.44749 0.91152 0.14304 0.0
C397 C 0.4491 0.91071 0.36041 0.0
C398 C 0.45534 0.94516 0.30496 0.0
C399 C 0.45579 0.94618 0.40541 0.0
N400 N 0.45118 0.92297 0.27669 0.0
N401 N 0.45165 0.92449 0.43993 0.0
H402 H 0.44512 0.89196 0.36327 0.0
H403 H 0.45737 0.95948 0.25601 0.0
C404 C 0.48919 0.95563 0.03606 0.0
O405 O 0.49481 0.94138 0.98595 0.0
N406 N 0.44348 0.89996 1.00764 0.0
C407 C 0.43776 0.87733 0.97769 0.0
C408 C 0.43696 0.87637 0.87735 0.0
C409 C 0.44495 0.91209 0.92385 0.0
N410 N 0.44164 0.89826 0.84382 0.0
C411 C 0.46407 0.87743 0.18009 0.0
C412 C 0.51368 0.91012 0.19486 0.0
C413 C 0.50545 0.88498 0.20029 0.0
C414 C 0.48026 0.86867 0.19477 0.0
C415 C 0.4967 0.91816 0.18012 0.0
N416 N 0.47226 0.90179 0.16748 0.0
H417 H 0.44475 0.8643 0.17948 0.0
H418 H 0.50328 0.93751 0.1808 0.0
H419 H 0.434 0.86217 0.0245 0.0
H420 H 0.44867 0.93068 0.92057 0.0
O421 O 0.41801 0.88116 0.18023 0.0
O422 O 0.41809 0.91434 0.12985 0.0
O423 O 0.47253 0.94649 0.10207 0.0
C424 C 0.40549 0.89188 0.16066 0.0
H425 H 0.45822 0.96138 0.44992 0.0
H426 H 0.43334 0.86087 0.83226 0.0
H427 H 0.53299 0.92336 0.20251 0.0
H428 H 0.4731 0.84918 0.20193 0.0
Co429 Co 0.11879 0.53993 0.13684 0.0
C430 C 0.11844 0.54358 0.35636 0.0
C431 C 0.08727 0.51136 0.30096 0.0
C432 C 0.08628 0.51037 0.40122 0.0
N433 N 0.10717 0.53236 0.27195 0.0
N434 N 0.10594 0.53054 0.43582 0.0
H435 H 0.13597 0.56013 0.36083 0.0
H436 H 0.07484 0.49708 0.25273 0.0
C437 C 0.06641 0.53092 0.12844 0.0
O438 O 0.06982 0.54268 0.21113 0.0
N439 N 0.13034 0.547 1.00291 0.0
C440 C 0.15332 0.56331 0.97401 0.0
C441 C 0.1542 0.56383 0.87347 0.0
C442 C 0.1175 0.53777 0.9195 0.0
N443 N 0.1317 0.54785 0.83969 0.0
C444 C 0.1496 0.5893 0.20218 0.0
C445 C 0.12562 0.61018 0.10986 0.0
C446 C 0.14712 0.6254 0.16222 0.0
C447 C 0.15912 0.61455 0.20829 0.0
C448 C 0.11699 0.58492 0.10367 0.0
N449 N 0.12843 0.57453 0.15253 0.0
H450 H 0.15993 0.58181 0.23519 0.0
H451 H 0.10178 0.57406 0.05611 0.0
H452 H 0.16835 0.5743 0.02273 0.0
H453 H 0.09822 0.52413 0.91685 0.0
O454 O 0.14942 0.54165 0.17526 0.0
O455 O 0.11637 0.50798 0.128 0.0
O456 O 0.08423 0.52976 0.08861 0.0
C457 C 0.13893 0.51831 0.15865 0.0
H458 H 0.07284 0.49547 0.44546 0.0
H459 H 0.17003 0.5752 0.82846 0.0
H460 H 0.11609 0.61789 0.07116 0.0
H461 H 0.17605 0.62565 0.24763 0.0
Co462 Co 0.49295 0.58539 0.13291 0.0
C463 C 0.49007 0.58256 0.35261 0.0
C464 C 0.5207 0.5806 0.29517 0.0
C465 C 0.52203 0.58089 0.39555 0.0
N466 N 0.50049 0.58131 0.26762 0.0
N467 N 0.50277 0.5821 0.43126 0.0
H468 H 0.47437 0.58499 0.3582 0.0
H469 H 0.53421 0.58093 0.24544 0.0
C470 C 0.50009 0.5412 0.1202 0.0
O471 O 0.48543 0.53151 0.19563 0.0
N472 N 0.48587 0.58971 0.99896 0.0
C473 C 0.46727 0.59292 0.96926 0.0
C474 C 0.46697 0.59324 0.86876 0.0
C475 C 0.49668 0.58811 0.91602 0.0
N476 N 0.48538 0.59014 0.83571 0.0
C477 C 0.4433 0.56549 0.20164 0.0
C478 C 0.42235 0.52262 0.09558 0.0
C479 C 0.40705 0.52796 0.15221 0.0
C480 C 0.41789 0.54969 0.20583 0.0
C481 C 0.44777 0.53906 0.09299 0.0
N482 N 0.45822 0.55995 0.148 0.0
H483 H 0.4507 0.58287 0.23787 0.0
H484 H 0.45871 0.53537 0.04314 0.0
H485 H 0.4545 0.59448 0.01743 0.0
H486 H 0.51212 0.58505 0.91418 0.0
O487 O 0.49077 0.61396 0.17207 0.0
O488 O 0.52485 0.61522 0.12401 0.0
O489 O 0.5039 0.56165 0.08554 0.0
C490 C 0.5142 0.62704 0.15532 0.0
H491 H 0.53639 0.58096 0.43904 0.0
H492 H 0.45396 0.59509 0.82324 0.0
H493 H 0.4146 0.5063 0.05103 0.0
H494 H 0.40665 0.55482 0.24834 0.0
Co495 Co 0.58643 0.77423 0.2549 0.0
C496 C 0.58717 0.77804 0.03462 0.0
C497 C 0.61959 0.77998 0.09335 0.0
C498 C 0.62103 0.77993 0.99301 0.0
N499 N 0.59854 0.77914 0.12022 0.0
N500 N 0.60061 0.77863 0.95639 0.0
H501 H 0.56899 0.77548 0.0283 0.0
H502 H 0.63258 0.77952 0.1435 0.0
C503 C 0.63801 0.81844 0.2735 0.0
O504 O 0.63379 0.82889 0.19901 0.0
N505 N 0.57479 0.76904 0.38903 0.0
C506 C 0.55246 0.76429 0.41954 0.0
C507 C 0.55194 0.76384 0.52022 0.0
C508 C 0.58753 0.77124 0.47159 0.0
N509 N 0.57398 0.76829 0.55253 0.0
C510 C 0.55709 0.7944 0.18672 0.0
C511 C 0.57886 0.83708 0.29392 0.0
C512 C 0.55874 0.83212 0.23474 0.0
C513 C 0.54788 0.81045 0.18082 0.0
C514 C 0.58749 0.82041 0.29798 0.0
N515 N 0.57717 0.79965 0.24223 0.0
H516 H 0.54723 0.77717 0.14937 0.0
H517 H 0.60185 0.82391 0.34874 0.0
H518 H 0.53779 0.76199 0.37191 0.0
H519 H 0.60639 0.77536 0.47283 0.0
O520 O 0.55561 0.74594 0.21417 0.0
O521 O 0.58833 0.74438 0.25965 0.0
O522 O 0.621 0.79769 0.30457 0.0
C523 C 0.56581 0.73268 0.22831 0.0
H524 H 0.63543 0.77982 0.95016 0.0
H525 H 0.53679 0.76109 0.56632 0.0
H526 H 0.58738 0.85336 0.33873 0.0
H527 H 0.53189 0.80561 0.13632 0.0
Co528 Co 0.25664 0.81746 0.22081 0.0
C529 C 0.25358 0.81491 1.0011 0.0
C530 C 0.25451 0.84689 0.05847 0.0
C531 C 0.25421 0.84796 0.95815 0.0
N532 N 0.25355 0.82592 0.08613 0.0
N533 N 0.2539 0.82799 0.92228 0.0
H534 H 0.25444 0.79834 0.99575 0.0
H535 H 0.25597 0.86086 0.1079 0.0
C536 C 0.21369 0.82709 0.2271 0.0
O537 O 0.20623 0.81673 0.14138 0.0
N538 N 0.2601 0.80954 0.35465 0.0
C539 C 0.26455 0.79175 0.3839 0.0
C540 C 0.26463 0.79119 0.48451 0.0
C541 C 0.25767 0.81969 0.43789 0.0
N542 N 0.2603 0.80871 0.51802 0.0
C543 C 0.23858 0.76849 0.15216 0.0
C544 C 0.19264 0.74702 0.237 0.0
C545 C 0.19969 0.73207 0.18714 0.0
C546 C 0.223 0.74323 0.14443 0.0
C547 C 0.20909 0.7723 0.24495 0.0
N548 N 0.23161 0.78297 0.2006 0.0
H549 H 0.25673 0.7762 0.12151 0.0
H550 H 0.20392 0.78291 0.29031 0.0
H551 H 0.26729 0.77983 0.33542 0.0
H552 H 0.25389 0.8346 0.44009 0.0
O553 O 0.2858 0.81598 0.18364 0.0
O554 O 0.28628 0.84933 0.23446 0.0
O555 O 0.23195 0.8272 0.26876 0.0
C556 C 0.29859 0.83914 0.20356 0.0
H557 H 0.25523 0.86274 0.91468 0.0
H558 H 0.26752 0.77882 0.52977 0.0
H559 H 0.17492 0.73906 0.27262 0.0
H560 H 0.22936 0.73236 0.10667 0.0
Co561 Co 0.21501 0.44621 0.22435 0.0
C562 C 0.21578 0.44835 1.00705 0.0
C563 C 0.18885 0.41307 0.06154 0.0
C564 C 0.18772 0.41256 0.96113 0.0
N565 N 0.20652 0.43543 0.09035 0.0
N566 N 0.20457 0.4347 0.92731 0.0
H567 H 0.2303 0.46725 1.00463 0.0
H568 H 0.1773 0.39821 0.11012 0.0
C569 C 0.21159 0.40178 0.3315 0.0
O570 O 0.22972 0.41589 0.3898 0.0
N571 N 0.22329 0.4573 0.35942 0.0
C572 C 0.24263 0.47856 0.38982 0.0
C573 C 0.2424 0.47964 0.48995 0.0
C574 C 0.21098 0.44617 0.44242 0.0
N575 N 0.22268 0.45922 0.52282 0.0
C576 C 0.26509 0.48065 0.17456 0.0
C577 C 0.28391 0.44953 0.18169 0.0
C578 C 0.30015 0.47464 0.16852 0.0
C579 C 0.2903 0.49009 0.16241 0.0
C580 C 0.25863 0.44078 0.19374 0.0
N581 N 0.2496 0.4565 0.19568 0.0
H582 H 0.25827 0.49322 0.17022 0.0
H583 H 0.2466 0.42139 0.20073 0.0
H584 H 0.25606 0.49267 0.34345 0.0
H585 H 0.19432 0.42859 0.44441 0.0
O586 O 0.21531 0.47645 0.19253 0.0
O587 O 0.18261 0.44268 0.24283 0.0
O588 O 0.20569 0.41118 0.26106 0.0
C589 C 0.1921 0.46523 0.21382 0.0
H590 H 0.17541 0.39719 0.91621 0.0
H591 H 0.25589 0.4941 0.53551 0.0
H592 H 0.29074 0.43685 0.1834 0.0
H593 H 0.30211 0.5095 0.14984 0.0
C594 C 0.20706 0.18455 0.40746 0.0
C595 C 0.21639 0.18251 0.49903 0.0
C596 C 0.20256 0.20923 0.57189 0.0
C597 C 0.1903 0.20843 0.48387 0.0
N598 N 0.17863 0.193 0.32013 0.0
N599 N 0.2212 0.19111 0.67136 0.0
C600 C 0.19215 0.19566 0.40184 0.0
C601 C 0.21385 0.19457 0.58195 0.0
N602 N 0.21275 0.1761 0.32547 0.0
N603 N 0.20375 0.22438 0.64545 0.0
H604 H 0.22987 0.18089 0.68155 0.0
H605 H 0.2172 0.1969 0.73638 0.0
H606 H 0.19576 0.23536 0.64031 0.0
H607 H 0.21443 0.22774 0.70763 0.0
H608 H 0.20868 0.17919 0.25518 0.0
H609 H 0.22362 0.16793 0.32717 0.0
H610 H 0.17693 0.18155 0.26244 0.0
H611 H 0.16749 0.20076 0.31285 0.0
C612 C 0.83989 0.02706 0.45417 0.0
C613 C 0.85305 0.03829 0.54106 0.0
C614 C 0.83585 0.99734 0.61346 0.0
C615 C 0.82706 0.98627 0.52084 0.0
N616 N 0.82606 0.99234 0.34686 0.0
N617 N 0.86751 0.03264 0.69716 0.0
C618 C 0.83039 1.00157 0.43932 0.0
C619 C 0.85203 0.02305 0.61948 0.0
N620 N 0.83596 0.04055 0.38635 0.0
N621 N 0.82845 0.98345 0.69621 0.0
H622 H 0.88103 0.05098 0.70178 0.0
H623 H 0.86877 0.02178 0.75146 0.0
H624 H 0.81569 0.96479 0.69533 0.0
H625 H 0.83283 0.99103 0.76589 0.0
H626 H 0.82478 0.03273 0.32565 0.0
H627 H 0.8415 0.05895 0.39674 0.0
H628 H 0.83041 1.00338 0.2851 0.0
H629 H 0.82085 0.97426 0.33118 0.0
C630 C 1.00908 0.83095 0.63343 0.0
C631 C 0.99479 0.81785 0.55127 0.0
C632 C 0.03266 0.83122 0.45618 0.0
C633 C 0.04693 0.84352 0.53947 0.0
N634 N 0.04891 0.85055 0.71254 0.0
N635 N 0.99294 0.80115 0.39161 0.0
C636 C 0.03514 0.84189 0.6298 0.0
C637 C 1.00662 0.81663 0.46486 0.0
N638 N 0.99788 0.83405 0.71326 0.0
N639 N 0.04386 0.8344 0.36758 0.0
H640 H 0.97391 0.7902 0.3957 0.0
H641 H 1.00056 0.79749 0.33098 0.0
H642 H 0.06283 0.84464 0.35823 0.0
H643 H 0.03431 0.8284 0.30219 0.0
H644 H 1.00744 0.84572 0.77068 0.0
H645 H 0.97893 0.8265 0.7189 0.0
H646 H 0.04138 0.84776 0.78224 0.0
H647 H 0.06798 0.85856 0.7123 0.0
C648 C 0.81867 0.81993 0.4385 0.0
C649 C 0.82044 0.83766 0.50697 0.0
C650 C 0.8495 0.83064 0.60312 0.0
C651 C 0.8457 0.81127 0.53992 0.0
N652 N 0.82237 0.78414 0.40882 0.0
N653 N 0.83362 0.85567 0.66696 0.0
C654 C 0.82884 0.8048 0.46153 0.0
C655 C 0.83489 0.84195 0.59255 0.0
N656 N 0.80871 0.81851 0.34858 0.0
N657 N 0.86696 0.8382 0.67424 0.0
H658 H 0.8223 0.86325 0.66555 0.0
H659 H 0.84164 0.85726 0.73491 0.0
H660 H 0.87684 0.82941 0.68891 0.0
H661 H 0.87278 0.85417 0.71426 0.0
H662 H 0.8093 0.80771 0.29239 0.0
H663 H 0.80242 0.83014 0.326 0.0
H664 H 0.80822 0.77713 0.35787 0.0
H665 H 0.82977 0.7729 0.4215 0.0
C666 C 0.20652 0.02795 0.43671 0.0
C667 C 0.22068 0.03842 0.52268 0.0
C668 C 0.21244 0.99741 0.57154 0.0
C669 C 0.19588 0.98677 0.49256 0.0
N670 N 0.17507 0.99177 0.35491 0.0
N671 N 0.23239 0.03168 0.68241 0.0
C672 C 0.19221 1.00202 0.42705 0.0
C673 C 0.22252 0.02278 0.59271 0.0
N674 N 0.20775 0.04264 0.36132 0.0
N675 N 0.21864 0.98335 0.62671 0.0
H676 H 0.23864 0.04967 0.70362 0.0
H677 H 0.23185 0.02058 0.73966 0.0
H678 H 0.21122 0.96466 0.61543 0.0
H679 H 0.23271 0.99064 0.67802 0.0
H680 H 0.20005 0.03604 0.29307 0.0
H681 H 0.2187 0.06154 0.3627 0.0
H682 H 0.16925 1.00165 0.3129 0.0
H683 H 0.16547 0.97306 0.34104 0.0
C684 C 1.00922 0.20338 0.57517 0.0
C685 C 0.99401 0.18437 0.50922 0.0
C686 C 0.03155 0.19091 0.42364 0.0
C687 C 0.04615 0.21187 0.48177 0.0
N688 N 0.04814 0.24002 0.60508 0.0
N689 N 0.99147 0.16079 0.36519 0.0
C690 C 0.0347 0.21879 0.55448 0.0
C691 C 1.00539 0.17819 0.4325 0.0
N692 N 0.99985 0.20555 0.66223 0.0
N693 N 0.04269 0.1829 0.35976 0.0
H694 H 0.97276 0.14896 0.37157 0.0
H695 H 0.9984 0.15869 0.29919 0.0
H696 H 0.06137 0.19267 0.34438 0.0
H697 H 0.03371 0.16585 0.32612 0.0
H698 H 1.01059 0.21739 0.7174 0.0
H699 H 0.98203 0.19335 0.68514 0.0
H700 H 0.04025 0.24742 0.65057 0.0
H701 H 0.06695 0.25126 0.59602 0.0
C702 C 0.87177 0.51566 0.72755 0.0
C703 C 0.88101 0.5138 0.81956 0.0
C704 C 0.86629 0.53988 0.89138 0.0
C705 C 0.85409 0.53881 0.80288 0.0
N706 N 0.84279 0.52311 0.63926 0.0
N707 N 0.88493 0.52205 0.9923 0.0
C708 C 0.85636 0.52619 0.72124 0.0
C709 C 0.87789 0.52553 0.90229 0.0
N710 N 0.87802 0.50763 0.64581 0.0
N711 N 0.86717 0.55498 0.96453 0.0
H712 H 0.89367 0.51193 1.0034 0.0
H713 H 0.88051 0.52764 0.05688 0.0
H714 H 0.859 0.56579 0.95879 0.0
H715 H 0.87782 0.55852 0.02692 0.0
H716 H 0.87398 0.51066 0.57537 0.0
H717 H 0.88932 0.49994 0.64797 0.0
H718 H 0.84148 0.51175 0.58181 0.0
H719 H 0.83116 0.5303 0.63169 0.0
C720 C 0.4952 0.33246 0.77785 0.0
C721 C 0.49207 0.31743 0.86012 0.0
C722 C 0.51718 0.35459 0.9567 0.0
C723 C 0.51794 0.36954 0.8776 0.0
N724 N 0.50045 0.37118 0.72301 0.0
N725 N 0.49391 0.31523 0.03559 0.0
C726 C 0.50461 0.35798 0.79141 0.0
C727 C 0.50106 0.32884 0.95209 0.0
N728 N 0.49076 0.32294 0.68585 0.0
N729 N 0.53282 0.36449 0.03372 0.0
H730 H 0.48119 0.29655 0.03579 0.0
H731 H 0.49844 0.32304 0.10484 0.0
H732 H 0.54628 0.38287 0.03733 0.0
H733 H 0.53428 0.35384 0.08847 0.0
H734 H 0.49495 0.33379 0.62357 0.0
H735 H 0.48566 0.30485 0.67106 0.0
H736 H 0.48914 0.36311 0.6628 0.0
H737 H 0.5059 0.38959 0.73248 0.0
C738 C 0.70119 0.16927 0.93381 0.0
C739 C 0.71288 0.17776 0.84181 0.0
C740 C 0.67232 0.15614 0.76318 0.0
C741 C 0.6606 0.15108 0.85583 0.0
N742 N 0.66461 0.15699 0.0304 0.0
N743 N 0.70872 0.18265 0.66932 0.0
C744 C 0.67523 0.15864 0.94162 0.0
C745 C 0.69822 0.17198 0.75636 0.0
N746 N 0.71485 0.17091 1.01373 0.0
N747 N 0.65877 0.14543 0.68151 0.0
H748 H 0.7274 0.19502 0.66124 0.0
H749 H 0.69853 0.18109 0.60721 0.0
H750 H 0.63991 0.1333 0.68388 0.0
H751 H 0.66661 0.14657 0.61332 0.0
H752 H 0.7071 0.16291 0.08059 0.0
H753 H 0.73378 0.17801 1.01044 0.0
H754 H 0.67473 0.16463 0.09365 0.0
H755 H 0.64586 0.15017 0.03958 0.0
C756 C 0.49851 0.17139 0.931 0.0
C757 C 0.48456 0.16812 0.84477 0.0
C758 C 0.4936 0.13614 0.79196 0.0
C759 C 0.50988 0.14155 0.8718 0.0
N760 N 0.5299 0.1664 1.01246 0.0
N761 N 0.47361 0.15089 0.68303 0.0
C762 C 0.51303 0.15991 0.93947 0.0
C763 C 0.48328 0.15133 0.77268 0.0
N764 N 0.49691 0.18437 1.00754 0.0
N765 N 0.48781 0.11637 0.73443 0.0
H766 H 0.46703 0.1625 0.66363 0.0
H767 H 0.47461 0.14096 0.62433 0.0
H768 H 0.4952 0.10508 0.74526 0.0
H769 H 0.4741 0.10998 0.68167 0.0
H770 H 0.5045 0.18521 0.0758 0.0
H771 H 0.4858 0.19221 1.00692 0.0
H772 H 0.53538 0.18172 0.05632 0.0
H773 H 0.53963 0.15737 0.02525 0.0
C774 C 0.85797 0.33074 0.93146 0.0
C775 C 0.86156 0.32026 0.84531 0.0
C776 C 0.89394 0.36127 0.79408 0.0
C777 C 0.88822 0.37192 0.87363 0.0
N778 N 0.86284 0.36698 1.01322 0.0
N779 N 0.87934 0.32685 0.68403 0.0
C780 C 0.86954 0.35669 0.94052 0.0
C781 C 0.87869 0.33586 0.77395 0.0
N782 N 0.8446 0.31605 1.00731 0.0
N783 N 0.914 0.37538 0.7374 0.0
H784 H 0.86753 0.3088 0.66354 0.0
H785 H 0.88963 0.3379 0.62601 0.0
H786 H 0.92525 0.39411 0.74796 0.0
H787 H 0.92066 0.36809 0.68551 0.0
H788 H 0.84355 0.32269 0.07557 0.0
H789 H 0.83661 0.29713 1.00611 0.0
H790 H 0.84734 0.35709 0.05659 0.0
H791 H 0.87191 0.38573 0.02629 0.0
C792 C 0.66929 0.50901 0.75653 0.0
C793 C 0.65839 0.51552 0.83404 0.0
C794 C 0.69933 0.55013 0.87499 0.0
C795 C 0.71033 0.54284 0.80174 0.0
N796 N 0.70615 0.51338 0.68074 0.0
N797 N 0.66512 0.53743 0.98575 0.0
C798 C 0.6954 0.52165 0.74532 0.0
C799 C 0.67398 0.53484 0.89813 0.0
N800 N 0.65496 0.4914 0.69062 0.0
N801 N 0.71307 0.5716 0.9238 0.0
H802 H 0.64742 0.52535 1.01037 0.0
H803 H 0.67618 0.54952 0.03967 0.0
H804 H 0.73186 0.58276 0.91327 0.0
H805 H 0.70545 0.57923 0.9695 0.0
H806 H 0.66154 0.48897 0.62429 0.0
H807 H 0.63625 0.47976 0.69824 0.0
H808 H 0.69697 0.49619 0.64832 0.0
H809 H 0.72474 0.5231 0.66345 0.0
C810 C 0.53592 0.87358 0.1329 0.0
C811 C 0.52261 0.87518 0.21365 0.0
C812 C 0.53419 0.84976 0.31106 0.0
C813 C 0.54811 0.84875 0.23125 0.0
N814 N 0.56664 0.86408 0.07419 0.0
N815 N 0.51367 0.86964 0.38548 0.0
C816 C 0.55036 0.86209 0.14465 0.0
C817 C 0.52328 0.86482 0.3047 0.0
N818 N 0.53387 0.88203 0.04367 0.0
N819 N 0.53026 0.83534 0.39106 0.0
H820 H 0.50563 0.88062 0.38316 0.0
H821 H 0.5157 0.86474 0.45589 0.0
H822 H 0.53781 0.82403 0.39872 0.0
H823 H 0.51799 0.83308 0.44653 0.0
H824 H 0.54063 0.87878 0.9795 0.0
H825 H 0.5239 0.89093 0.03242 0.0
H826 H 0.57101 0.8755 1.01373 0.0
H827 H 0.57752 0.85599 0.08067 0.0
C828 C 0.17671 0.69008 0.26723 0.0
C829 C 0.18345 0.70473 0.18151 0.0
C830 C 0.16631 0.66735 0.08174 0.0
C831 C 0.15785 0.65268 0.16733 0.0
N832 N 0.14961 0.65054 0.33996 0.0
N833 N 0.17881 0.70674 1.00781 0.0
C834 C 0.16134 0.66423 0.25958 0.0
C835 C 0.17635 0.69315 0.08895 0.0
N836 N 0.18607 0.70055 0.35563 0.0
N837 N 0.16614 0.65698 0.99409 0.0
H838 H 0.18553 0.72554 1.01059 0.0
H839 H 0.17181 0.69901 0.93992 0.0
H840 H 0.15985 0.63839 0.9856 0.0
H841 H 0.17449 0.6672 0.93164 0.0
H842 H 0.18385 0.69039 0.41854 0.0
H843 H 0.19807 0.71922 0.36463 0.0
H844 H 0.14962 0.65821 0.40723 0.0
H845 H 0.13777 0.63169 0.33681 0.0
C846 C 0.36749 0.49889 0.23888 0.0
C847 C 0.37964 0.51171 0.15253 0.0
C848 C 0.33956 0.49512 0.07128 0.0
C849 C 0.32742 0.48521 0.1613 0.0
N850 N 0.32997 0.48006 0.3344 0.0
N851 N 0.37701 0.52454 0.98938 0.0
C852 C 0.34143 0.48757 0.24601 0.0
C853 C 0.36561 0.51034 0.06911 0.0
N854 N 0.38089 0.49717 0.3136 0.0
N855 N 0.32614 0.48965 0.98741 0.0
H856 H 0.39594 0.53609 0.98488 0.0
H857 H 0.36757 0.52646 0.93094 0.0
H858 H 0.3071 0.47847 0.98646 0.0
H859 H 0.33399 0.4942 0.91818 0.0
H860 H 0.37301 0.48605 0.37439 0.0
H861 H 0.39992 0.50511 0.31063 0.0
H862 H 0.33936 0.48389 0.40032 0.0
H863 H 0.311 0.4716 0.34293 0.0
C864 C 0.16622 0.50788 0.26061 0.0
C865 C 0.15207 0.5042 0.17462 0.0
C866 C 0.16078 0.4718 0.12463 0.0
C867 C 0.17728 0.47765 0.20379 0.0
N868 N 0.19775 0.50315 0.34243 0.0
N869 N 0.14073 0.48615 1.01419 0.0
C870 C 0.18069 0.49636 0.27 0.0
C871 C 0.15051 0.48697 0.10399 0.0
N872 N 0.16486 0.52128 0.33606 0.0
N873 N 0.15481 0.45172 0.06873 0.0
H874 H 0.1344 0.49787 0.99328 0.0
H875 H 0.14146 0.47578 0.95658 0.0
H876 H 0.16239 0.44055 0.07953 0.0
H877 H 0.14078 0.44498 0.01728 0.0
H878 H 0.17262 0.52244 0.40423 0.0
H879 H 0.15381 0.52918 0.33477 0.0
H880 H 0.20337 0.51867 0.38519 0.0
H881 H 0.20748 0.49411 0.35588 0.0
C882 C 0.55449 0.6894 0.27561 0.0
C883 C 0.55248 0.70557 0.20894 0.0
C884 C 0.52382 0.66984 0.11046 0.0
C885 C 0.52803 0.65416 0.17155 0.0
N886 N 0.55173 0.65019 0.3009 0.0
N887 N 0.53885 0.71095 0.05073 0.0
C888 C 0.54483 0.66434 0.25017 0.0
C889 C 0.53801 0.69572 0.12323 0.0
N890 N 0.56416 0.69747 0.36627 0.0
N891 N 0.5064 0.66009 0.03919 0.0
H892 H 0.54972 0.72985 0.05399 0.0
H893 H 0.53088 0.70482 0.98251 0.0
H894 H 0.49689 0.64153 0.02274 0.0
H895 H 0.50025 0.67021 1.00071 0.0
H896 H 0.56376 0.68586 0.42112 0.0
H897 H 0.56991 0.71512 0.3909 0.0
H898 H 0.56588 0.6573 0.35183 0.0
H899 H 0.54469 0.63169 0.28664 0.0
C900 C 0.3629 0.87168 0.08785 0.0
C901 C 0.3781 0.87887 0.17179 0.0
C902 C 0.34117 0.86199 0.2762 0.0
C903 C 0.32597 0.8531 0.19243 0.0
N904 N 0.32251 0.84599 0.0189 0.0
N905 N 0.38154 0.87726 0.34633 0.0
C906 C 0.3369 0.85693 0.09839 0.0
C907 C 0.36716 0.87297 0.26608 0.0
N908 N 0.37326 0.87909 0.99761 0.0
N909 N 0.33082 0.86001 0.36588 0.0
H910 H 0.40054 0.88591 0.34244 0.0
H911 H 0.37463 0.87065 0.41565 0.0
H912 H 0.31193 0.85095 0.37734 0.0
H913 H 0.34088 0.86875 0.42799 0.0
H914 H 0.36318 0.87708 0.93471 0.0
H915 H 0.39216 0.88888 0.98635 0.0
H916 H 0.32946 0.8454 0.95064 0.0
H917 H 0.30347 0.83591 0.02252 0.0
C918 C 0.15839 0.33692 0.38808 0.0
C919 C 0.17128 0.32399 0.40307 0.0
C920 C 0.2102 0.36138 0.36093 0.0
C921 C 0.19747 0.37458 0.34944 0.0
N922 N 0.15894 0.37428 0.34221 0.0
N923 N 0.20841 0.32234 0.38437 0.0
C924 C 0.17142 0.36207 0.35919 0.0
C925 C 0.19694 0.33587 0.38436 0.0
N926 N 0.13379 0.3256 0.40723 0.0
N927 N 0.23511 0.37328 0.34908 0.0
H928 H 0.19929 0.30368 0.39941 0.0
H929 H 0.22642 0.32886 0.36202 0.0
H930 H 0.24512 0.39082 0.31996 0.0
H931 H 0.24614 0.36617 0.37024 0.0
H932 H 0.12392 0.33467 0.41452 0.0
H933 H 0.12297 0.30694 0.41936 0.0
H934 H 0.14009 0.36566 0.33116 0.0
H935 H 0.1673 0.39316 0.33556 0.0
C936 C 0.68466 0.84085 0.26368 0.0
C937 C 0.6629 0.83065 0.32129 0.0
C938 C 0.6885 0.84001 0.46846 0.0
C939 C 0.71023 0.85331 0.41187 0.0
N940 N 0.72788 0.87077 0.25472 0.0
N941 N 0.64527 0.82627 0.4821 0.0
C942 C 0.70801 0.85497 0.30917 0.0
C943 C 0.66514 0.83185 0.42473 0.0
N944 N 0.68334 0.83621 0.16591 0.0
N945 N 0.68986 0.83402 0.56309 0.0
H946 H 0.62813 0.82145 0.45391 0.0
H947 H 0.6465 0.82914 0.55724 0.0
H948 H 0.70629 0.83832 0.59717 0.0
H949 H 0.67442 0.82229 0.60404 0.0
H950 H 0.69879 0.84114 0.12289 0.0
H951 H 0.66692 0.82506 0.12973 0.0
H952 H 0.72664 0.87435 0.18139 0.0
H953 H 0.74505 0.88233 0.28463 0.0
C954 C 0.17514 0.82566 0.29148 0.0
C955 C 0.20091 0.83917 0.2746 0.0
C956 C 0.20114 0.87703 0.32175 0.0
C957 C 0.17545 0.86344 0.34088 0.0
N958 N 0.13945 0.8241 0.36695 0.0
N959 N 0.2392 0.87715 0.29457 0.0
C960 C 0.16287 0.83754 0.33203 0.0
C961 C 0.21413 0.86458 0.29715 0.0
N962 N 0.16226 0.80134 0.26904 0.0
N963 N 0.21309 0.90201 0.32031 0.0
H964 H 0.24977 0.86973 0.2708 0.0
H965 H 0.24977 0.89462 0.32354 0.0
H966 H 0.20494 0.91226 0.33882 0.0
H967 H 0.23077 0.91279 0.29288 0.0
H968 H 0.1432 0.79126 0.26627 0.0
H969 H 0.17062 0.79134 0.24867 0.0
H970 H 0.13007 0.80513 0.37246 0.0
H971 H 0.13015 0.83198 0.39993 0.0
C972 C 0.36281 0.19777 0.73981 0.0
C973 C 0.37422 0.18364 0.75906 0.0
C974 C 0.33649 0.14645 0.70497 0.0
C975 C 0.32438 0.16028 0.69326 0.0
N976 N 0.32637 0.19939 0.69312 0.0
N977 N 0.37193 0.14438 0.76153 0.0
C978 C 0.33773 0.18604 0.70878 0.0
C979 C 0.36121 0.15804 0.73999 0.0
N980 N 0.37638 0.22267 0.74729 0.0
N981 N 0.32435 0.122 0.68394 0.0
H982 H 0.39028 0.15192 0.78031 0.0
H983 H 0.36255 0.1254 0.76524 0.0
H984 H 0.30554 0.11164 0.6727 0.0
H985 H 0.33302 0.11182 0.67392 0.0
H986 H 0.37046 0.23461 0.72551 0.0
H987 H 0.39457 0.23187 0.76997 0.0
H988 H 0.33322 0.21732 0.71601 0.0
H989 H 0.30955 0.19237 0.65776 0.0
C990 C 0.85835 0.18539 0.81044 0.0
C991 C 0.84643 0.19487 0.75114 0.0
C992 C 0.86084 0.18275 0.60543 0.0
C993 C 0.86949 0.17029 0.66485 0.0
N994 N 0.87223 0.15599 0.82472 0.0
N995 N 0.83227 0.19756 0.59001 0.0
C996 C 0.867 0.17051 0.76764 0.0
C997 C 0.84668 0.19232 0.64787 0.0
N998 N 0.86257 0.19148 0.90688 0.0
N999 N 0.86634 0.18573 0.50827 0.0
H1000 H 0.82043 0.20311 0.61747 0.0
H1001 H 0.82995 0.19376 0.51561 0.0
H1002 H 0.87692 0.17929 0.47527 0.0
H1003 H 0.86265 0.19675 0.46307 0.0
H1004 H 0.87326 0.18702 0.95069 0.0
H1005 H 0.85785 0.20332 0.94061 0.0
H1006 H 0.86836 0.15351 0.89914 0.0
H1007 H 0.87834 0.14467 0.79619 0.0
C1008 C 0.84592 0.67463 0.77525 0.0
C1009 C 0.83683 0.65359 0.7146 0.0
C1010 C 0.84955 0.68066 0.57072 0.0
C1011 C 0.86165 0.70166 0.63155 0.0
N1012 N 0.8755 0.71755 0.7938 0.0
N1013 N 0.83509 0.63752 0.5528 0.0
C1014 C 0.861 0.69834 0.73442 0.0
C1015 C 0.84006 0.65686 0.61181 0.0
N1016 N 0.83929 0.67229 0.87132 0.0
N1017 N 0.84593 0.68314 0.47413 0.0
H1018 H 0.8289 0.61995 0.57895 0.0
H1019 H 0.83962 0.63945 0.47894 0.0
H1020 H 0.85156 0.69993 0.4409 0.0
H1021 H 0.8349 0.66832 0.42939 0.0
H1022 H 0.84329 0.68721 0.91576 0.0
H1023 H 0.82747 0.65558 0.90407 0.0
H1024 H 0.8776 0.71554 0.868 0.0
H1025 H 0.8875 0.735 0.76768 0.0
C1026 C 0.02985 0.53266 0.06094 0.0
C1027 C 0.04138 0.51873 0.08183 0.0
C1028 C 1.00345 0.48111 0.03284 0.0
C1029 C 0.99118 0.49478 0.021 0.0
N1030 N 0.99287 0.53375 0.01973 0.0
N1031 N 0.0392 0.4795 0.08805 0.0
C1032 C 1.0045 0.52062 0.03385 0.0
C1033 C 0.02834 0.49299 0.06581 0.0
N1034 N 0.04358 0.55762 0.06253 0.0
N1035 N 0.99128 0.45656 1.01394 0.0
H1036 H 0.0577 0.48715 0.10427 0.0
H1037 H 0.0298 0.46056 0.09448 0.0
H1038 H 0.97243 0.44612 1.00397 0.0
H1039 H 0.99997 0.44639 1.00423 0.0
H1040 H 0.03741 0.56923 0.03866 0.0
H1041 H 0.0621 0.56704 0.08077 0.0
H1042 H 0.99992 0.5518 0.04155 0.0
H1043 H 0.9756 0.52641 0.98788 0.0
C1044 C 0.51354 0.52605 0.97267 0.0
C1045 C 0.51253 0.52835 0.07582 0.0
C1046 C 0.53168 0.50275 0.09578 0.0
C1047 C 0.5348 0.5026 0.99336 0.0
N1048 N 0.53337 0.51861 0.83576 0.0
N1049 N 0.52697 0.52389 0.23382 0.0
C1050 C 0.52728 0.51576 0.9324 0.0
C1051 C 0.52339 0.5181 0.13697 0.0
N1052 N 0.50015 0.53217 0.91273 0.0
N1053 N 0.53603 0.48779 0.15402 0.0
H1054 H 0.52248 0.536 0.26658 0.0
H1055 H 0.53695 0.51887 0.27927 0.0
H1056 H 0.54204 0.47628 0.12676 0.0
H1057 H 0.53161 0.48522 0.22797 0.0
H1058 H 0.49828 0.52854 0.83818 0.0
H1059 H 0.48867 0.53833 0.93841 0.0
H1060 H 0.5306 0.53011 0.78967 0.0
H1061 H 0.54345 0.51142 0.80408 0.0
C1062 C 0.50053 0.01991 0.97059 0.0
C1063 C 0.52604 0.03234 0.94802 0.0
C1064 C 0.52791 0.99616 1.0045 0.0
C1065 C 0.50191 0.98258 1.01315 0.0
N1066 N 0.46308 0.98128 0.99245 0.0
N1067 N 0.5641 0.03189 0.9411 0.0
C1068 C 0.48815 0.99447 0.99435 0.0
C1069 C 0.53971 0.02028 0.9641 0.0
N1070 N 0.4878 0.03221 0.96887 0.0
N1071 N 0.54153 0.98646 0.03965 0.0
H1072 H 0.57402 0.0502 0.92038 0.0
H1073 H 0.57429 0.02305 0.938 0.0
H1074 H 0.53372 0.96937 0.07306 0.0
H1075 H 0.56056 0.99625 0.04514 0.0
H1076 H 0.47024 0.02511 0.99792 0.0
H1077 H 0.49519 0.05021 0.94586 0.0
H1078 H 0.45226 0.98809 0.9651 0.0
H1079 H 0.45281 0.96287 1.01035 0.0
C1080 C 0.09299 0.23811 0.89826 0.0
C1081 C 0.11625 0.2522 0.8533 0.0
C1082 C 0.13662 0.25447 1.00888 0.0
C1083 C 0.11338 0.24133 0.05479 0.0
N1084 N 0.06957 0.22225 0.04867 0.0
N1085 N 0.16008 0.27577 0.86414 0.0
C1086 C 0.09156 0.23358 1.00075 0.0
C1087 C 0.13807 0.26092 0.90836 0.0
N1088 N 0.0724 0.22884 0.84187 0.0
N1089 N 0.15719 0.26014 0.06148 0.0
H1090 H 0.16151 0.28009 0.79008 0.0
H1091 H 0.17672 0.28479 0.90093 0.0
H1092 H 0.15654 0.25603 0.13551 0.0
H1093 H 0.17468 0.26768 0.03151 0.0
H1094 H 0.05479 0.21684 0.86703 0.0
H1095 H 0.07314 0.2322 0.76711 0.0
H1096 H 0.05285 0.21763 0.01661 0.0
H1097 H 0.06824 0.21865 0.1234 0.0
C1098 C 0.79053 0.85523 0.91774 0.0
C1099 C 0.78069 0.86828 0.86944 0.0
C1100 C 0.78291 0.88978 0.02206 0.0
C1101 C 0.79203 0.87619 0.07087 0.0
N1102 N 0.80276 0.84477 0.07071 0.0
N1103 N 0.76492 0.89581 0.87493 0.0
C1104 C 0.79532 0.85853 0.02002 0.0
C1105 C 0.77624 0.88506 0.92155 0.0
N1106 N 0.79574 0.8401 0.86459 0.0
N1107 N 0.78107 0.90747 0.07224 0.0
H1108 H 0.76011 0.89272 0.80139 0.0
H1109 H 0.75904 0.90664 0.90938 0.0
H1110 H 0.78503 0.91058 0.14648 0.0
H1111 H 0.77674 0.91976 0.04036 0.0
H1112 H 0.8049 0.83151 0.89185 0.0
H1113 H 0.79195 0.83708 0.79029 0.0
H1114 H 0.80374 0.8301 0.04148 0.0
H1115 H 0.80681 0.84731 0.145 0.0
C1116 C 0.14528 0.89731 0.91728 0.0
C1117 C 0.16385 0.9181 0.86823 0.0
C1118 C 0.17365 0.94195 0.01995 0.0
C1119 C 0.15591 0.92084 0.06996 0.0
N1120 N 0.12624 0.87801 0.0715 0.0
N1121 N 0.19711 0.95951 0.87123 0.0
C1122 C 0.14206 0.89838 0.01981 0.0
C1123 C 0.17845 0.94026 0.91935 0.0
N1124 N 0.13064 0.87669 0.86481 0.0
N1125 N 0.18528 0.9637 0.06865 0.0
H1126 H 0.20031 0.95882 0.79705 0.0
H1127 H 0.21007 0.97559 0.90479 0.0
H1128 H 0.18223 0.96517 0.14254 0.0
H1129 H 0.19684 0.98043 0.03558 0.0
H1130 H 0.11526 0.86142 0.89295 0.0
H1131 H 0.13317 0.87534 0.79033 0.0
H1132 H 0.11699 0.86046 0.04252 0.0
H1133 H 0.1234 0.87849 0.1462 0.0
C1134 C 0.2448 0.08244 1.01227 0.0
C1135 C 0.24719 0.10279 0.95943 0.0
C1136 C 0.26137 0.12813 0.10749 0.0
C1137 C 0.25841 0.10766 0.16099 0.0
N1138 N 0.24757 0.06551 0.16861 0.0
N1139 N 0.25579 0.14432 0.95467 0.0
C1140 C 0.25019 0.08481 0.1143 0.0
C1141 C 0.25499 0.12549 1.00666 0.0
N1142 N 0.23712 0.0609 0.96397 0.0
N1143 N 0.27106 0.15024 0.1533 0.0
H1144 H 0.25207 0.14311 0.88019 0.0
H1145 H 0.25907 0.16076 0.98505 0.0
H1146 H 0.27547 0.15242 0.22731 0.0
H1147 H 0.2759 0.16663 0.11818 0.0
H1148 H 0.23504 0.04502 0.99548 0.0
H1149 H 0.23295 0.05896 0.88975 0.0
H1150 H 0.24131 0.04799 0.14193 0.0
H1151 H 0.25145 0.06698 0.243 0.0
C1152 C 0.91227 0.13133 1.00429 0.0
C1153 C 0.93074 0.15175 0.95315 0.0
C1154 C 0.94041 0.17642 0.10262 0.0
C1155 C 0.92333 0.15537 0.15517 0.0
N1156 N 0.8972 0.1117 0.16093 0.0
N1157 N 0.96471 0.19285 0.95474 0.0
C1158 C 0.91048 0.13248 0.10722 0.0
C1159 C 0.94548 0.17412 1.0027 0.0
N1160 N 0.89588 0.1111 0.95364 0.0
N1161 N 0.95113 0.19864 0.1476 0.0
H1162 H 0.96862 0.19154 0.88175 0.0
H1163 H 0.97769 0.20887 0.9887 0.0
H1164 H 0.94777 0.20066 0.22056 0.0
H1165 H 0.96195 0.2151 0.1113 0.0
H1166 H 0.88054 0.09648 0.98561 0.0
H1167 H 0.89625 0.11007 0.87779 0.0
H1168 H 0.88919 0.09421 0.13129 0.0
H1169 H 0.89642 0.11188 0.2369 0.0
C1170 C 0.88882 0.76278 0.11805 0.0
C1171 C 0.87636 0.77181 0.17557 0.0
C1172 C 0.87024 0.79096 0.03029 0.0
C1173 C 0.88387 0.78308 0.97401 0.0
N1174 N 0.90871 0.76421 0.96383 0.0
N1175 N 0.85719 0.79626 0.19121 0.0
C1176 C 0.8938 0.76962 0.01781 0.0
C1177 C 0.86762 0.78644 0.13283 0.0
N1178 N 0.89561 0.74745 0.15977 0.0
N1179 N 0.85948 0.80239 0.98449 0.0
H1180 H 0.855 0.79298 0.266 0.0
H1181 H 0.85214 0.80875 0.16756 0.0
H1182 H 0.86136 0.80595 0.9097 0.0
H1183 H 0.84753 0.80695 0.01842 0.0
H1184 H 0.90256 0.73811 0.12079 0.0
H1185 H 0.89302 0.74303 0.23381 0.0
H1186 H 0.9185 0.75641 0.99248 0.0
H1187 H 0.91248 0.76896 0.8904 0.0
C1188 C 0.75711 0.57001 0.21427 0.0
C1189 C 0.78043 0.58384 0.16947 0.0
C1190 C 0.80055 0.58552 0.32517 0.0
C1191 C 0.77725 0.57256 0.37085 0.0
N1192 N 0.73352 0.5542 0.3644 0.0
N1193 N 0.82428 0.60692 0.1811 0.0
C1194 C 0.75554 0.56529 0.31668 0.0
C1195 C 0.80216 0.59223 0.22487 0.0
N1196 N 0.73656 0.56117 0.15782 0.0
N1197 N 0.821 0.59067 0.37764 0.0
H1198 H 0.82585 0.61135 0.10712 0.0
H1199 H 0.84088 0.61575 0.21826 0.0
H1200 H 0.82021 0.58621 0.45132 0.0
H1201 H 0.83849 0.5981 0.34781 0.0
H1202 H 0.71888 0.54932 0.18273 0.0
H1203 H 0.73739 0.56477 0.08328 0.0
H1204 H 0.7169 0.54995 0.33234 0.0
H1205 H 0.7321 0.55043 0.439 0.0
C1206 C 0.44996 0.22281 0.36256 0.0
C1207 C 0.45756 0.20821 0.41336 0.0
C1208 C 0.45522 0.18638 0.26186 0.0
C1209 C 0.44636 0.20011 0.21198 0.0
N1210 N 0.43264 0.22933 0.21468 0.0
N1211 N 0.46579 0.17507 0.41648 0.0
C1212 C 0.44313 0.21789 0.26233 0.0
C1213 C 0.45971 0.18966 0.36421 0.0
N1214 N 0.44969 0.24161 0.41053 0.0
N1215 N 0.45995 0.17072 0.21014 0.0
H1216 H 0.46981 0.17766 0.49075 0.0
H1217 H 0.46556 0.15965 0.38849 0.0
H1218 H 0.45662 0.16785 0.13556 0.0
H1219 H 0.46857 0.16174 0.23888 0.0
H1220 H 0.44672 0.25464 0.37663 0.0
H1221 H 0.45378 0.24495 0.4846 0.0
H1222 H 0.42757 0.24089 0.24838 0.0
H1223 H 0.42755 0.22601 0.14147 0.0
C1224 C 0.84076 0.27515 0.35772 0.0
C1225 C 0.82422 0.25394 0.41067 0.0
C1226 C 0.81584 0.22889 0.26291 0.0
C1227 C 0.83188 0.25017 0.20922 0.0
N1228 N 0.86019 0.2933 0.202 0.0
N1229 N 0.79492 0.21107 0.41655 0.0
C1230 C 0.84454 0.27329 0.25593 0.0
C1231 C 0.81151 0.23088 0.36391 0.0
N1232 N 0.8526 0.297 0.40581 0.0
N1233 N 0.80537 0.20676 0.21695 0.0
H1234 H 0.792 0.21208 0.49091 0.0
H1235 H 0.7834 0.19391 0.38707 0.0
H1236 H 0.80813 0.20504 0.14299 0.0
H1237 H 0.79489 0.19004 0.25173 0.0
H1238 H 0.86496 0.3136 0.37396 0.0
H1239 H 0.85006 0.29853 0.48015 0.0
H1240 H 0.87022 0.31098 0.22893 0.0
H1241 H 0.86321 0.29221 0.12786 0.0
C1242 C 0.92658 0.46079 0.44594 0.0
C1243 C 0.92433 0.44 0.49456 0.0
C1244 C 0.91036 0.41627 0.3425 0.0
C1245 C 0.91378 0.4374 0.29285 0.0
N1246 N 0.92711 0.48025 0.2922 0.0
N1247 N 0.91622 0.39866 0.49076 0.0
C1248 C 0.9224 0.45982 0.34343 0.0
C1249 C 0.91682 0.41791 0.44305 0.0
N1250 N 0.93247 0.48133 0.49876 0.0
N1251 N 0.90016 0.39455 0.29364 0.0
H1252 H 0.92006 0.3993 0.56492 0.0
H1253 H 0.91314 0.38265 0.45685 0.0
H1254 H 0.89559 0.3931 0.21987 0.0
H1255 H 0.89494 0.37781 0.32655 0.0
H1256 H 0.93226 0.49654 0.47097 0.0
H1257 H 0.93632 0.48265 0.5732 0.0
H1258 H 0.93552 0.49777 0.3215 0.0
H1259 H 0.92388 0.4799 0.21754 0.0
C1260 C 0.60396 0.50791 0.43242 0.0
C1261 C 0.58751 0.48656 0.48495 0.0
C1262 C 0.57742 0.46259 0.33409 0.0
C1263 C 0.59535 0.48339 0.28299 0.0
N1264 N 0.62809 0.5251 0.28469 0.0
N1265 N 0.56293 0.44273 0.4907 0.0
C1266 C 0.60931 0.50591 0.33255 0.0
C1267 C 0.5755 0.46363 0.437 0.0
N1268 N 0.61381 0.5301 0.47736 0.0
N1269 N 0.56164 0.44208 0.28342 0.0
H1270 H 0.56209 0.44286 0.56666 0.0
H1271 H 0.5556 0.42529 0.46106 0.0
H1272 H 0.56207 0.44109 0.20757 0.0
H1273 H 0.54664 0.42708 0.31537 0.0
H1274 H 0.62408 0.54667 0.44106 0.0
H1275 H 0.61023 0.5319 0.55027 0.0
H1276 H 0.64056 0.54136 0.3187 0.0
H1277 H 0.63221 0.52402 0.21176 0.0
C1278 C 0.53388 0.11865 0.45367 0.0
C1279 C 0.54233 0.10392 0.4977 0.0
C1280 C 0.55977 0.10106 0.34099 0.0
C1281 C 0.55021 0.11471 0.29593 0.0
N1282 N 0.52635 0.13463 0.30402 0.0
N1283 N 0.56124 0.07921 0.48479 0.0
C1284 C 0.53675 0.12301 0.35105 0.0
C1285 C 0.55472 0.09459 0.44154 0.0
N1286 N 0.52346 0.12868 0.51099 0.0
N1287 N 0.5743 0.095 0.2877 0.0
H1288 H 0.55843 0.07495 0.55893 0.0
H1289 H 0.56821 0.06972 0.4471 0.0
H1290 H 0.57792 0.09927 0.21382 0.0
H1291 H 0.58388 0.08706 0.31714 0.0
H1292 H 0.51855 0.14121 0.48639 0.0
H1293 H 0.52108 0.12552 0.58588 0.0
H1294 H 0.51458 0.13956 0.33706 0.0
H1295 H 0.52835 0.13801 0.22911 0.0
C1296 C 0.46869 0.91753 0.59124 0.0
C1297 C 0.4489 0.91733 0.5414 0.0
C1298 C 0.42412 0.90409 0.69154 0.0
C1299 C 0.44433 0.90555 0.74256 0.0
N1300 N 0.48641 0.91549 0.74626 0.0
N1301 N 0.40876 0.91302 0.54391 0.0
C1302 C 0.4668 0.91275 0.69361 0.0
C1303 C 0.42687 0.91136 0.59172 0.0
N1304 N 0.4892 0.92221 0.53987 0.0
N1305 N 0.40211 0.89496 0.7384 0.0
H1306 H 0.40995 0.9175 0.47019 0.0
H1307 H 0.39318 0.91132 0.57781 0.0
H1308 H 0.39989 0.88981 0.81157 0.0
H1309 H 0.38581 0.891 0.70409 0.0
H1310 H 0.50358 0.92053 0.56846 0.0
H1311 H 0.4913 0.92666 0.46588 0.0
H1312 H 0.50405 0.92269 0.71828 0.0
H1313 H 0.48528 0.91178 0.82081 0.0
C1314 C 0.12189 0.5215 0.58581 0.0
C1315 C 0.11316 0.53548 0.53712 0.0
C1316 C 0.1171 0.55794 0.68874 0.0
C1317 C 0.1246 0.54311 0.73838 0.0
N1318 N 0.13247 0.50972 0.73939 0.0
N1319 N 0.09986 0.56502 0.54183 0.0
C1320 C 0.12651 0.52456 0.68815 0.0
C1321 C 0.11017 0.55328 0.58854 0.0
N1322 N 0.12636 0.50581 0.53298 0.0
N1323 N 0.11701 0.57671 0.73779 0.0
H1324 H 0.09477 0.56192 0.46858 0.0
H1325 H 0.09497 0.57663 0.57626 0.0
H1326 H 0.12118 0.57986 0.81187 0.0
H1327 H 0.11411 0.58987 0.70479 0.0
H1328 H 0.13485 0.49661 0.56084 0.0
H1329 H 0.12294 0.50314 0.45837 0.0
H1330 H 0.13212 0.49433 0.71052 0.0
H1331 H 0.13651 0.5121 0.8137 0.0
C1332 C 0.4806 0.56466 0.69109 0.0
C1333 C 0.49058 0.58806 0.73461 0.0
C1334 C 0.50666 0.60748 0.57548 0.0
C1335 C 0.49793 0.58411 0.53303 0.0
N1336 N 0.4787 0.54056 0.54941 0.0
N1337 N 0.51492 0.63168 0.72352 0.0
C1338 C 0.48551 0.56271 0.59085 0.0
C1339 C 0.50414 0.60948 0.67802 0.0
N1340 N 0.4657 0.54443 0.74531 0.0
N1341 N 0.517 0.62766 0.51683 0.0
H1342 H 0.5131 0.63343 0.79831 0.0
H1343 H 0.52684 0.64813 0.68934 0.0
H1344 H 0.5191 0.62651 0.44202 0.0
H1345 H 0.52204 0.6452 0.54029 0.0
H1346 H 0.45587 0.52685 0.71683 0.0
H1347 H 0.46196 0.54547 0.81874 0.0
H1348 H 0.4718 0.52434 0.58864 0.0
H1349 H 0.48121 0.53866 0.47537 0.0
C1350 C 0.58376 0.75278 0.80884 0.0
C1351 C 0.59376 0.77599 0.85444 0.0
C1352 C 0.59117 0.7942 0.6994 0.0
C1353 C 0.58171 0.77113 0.65334 0.0
N1354 N 0.57063 0.72894 0.65866 0.0
N1355 N 0.60947 0.81916 0.84411 0.0
C1356 C 0.57849 0.75053 0.70676 0.0
C1357 C 0.5981 0.79682 0.79978 0.0
N1358 N 0.57899 0.73293 0.86434 0.0
N1359 N 0.59305 0.81342 0.64676 0.0
H1360 H 0.61432 0.82133 0.91768 0.0
H1361 H 0.61527 0.83563 0.80793 0.0
H1362 H 0.58886 0.81207 0.57262 0.0
H1363 H 0.59769 0.83034 0.67643 0.0
H1364 H 0.56992 0.71501 0.83926 0.0
H1365 H 0.58321 0.73431 0.9384 0.0
H1366 H 0.56941 0.71338 0.68983 0.0
H1367 H 0.56634 0.72695 0.58453 0.0
C1368 C 0.23578 0.80103 0.66888 0.0
C1369 C 0.25853 0.81406 0.6193 0.0
C1370 C 0.27809 0.83676 0.76923 0.0
C1371 C 0.2556 0.82292 0.82037 0.0
N1372 N 0.21336 0.7912 0.82276 0.0
N1373 N 0.30185 0.842 0.62184 0.0
C1374 C 0.23452 0.80477 0.77109 0.0
C1375 C 0.27983 0.83135 0.6695 0.0
N1376 N 0.21537 0.78544 0.61693 0.0
N1377 N 0.2977 0.85528 0.81617 0.0
H1378 H 0.3034 0.83851 0.54866 0.0
H1379 H 0.31868 0.85299 0.65537 0.0
H1380 H 0.29732 0.85902 0.8899 0.0
H1381 H 0.3139 0.8678 0.78162 0.0
H1382 H 0.19766 0.77657 0.64518 0.0
H1383 H 0.21605 0.7823 0.54259 0.0
H1384 H 0.19776 0.77617 0.7949 0.0
H1385 H 0.21171 0.79444 0.89619 0.0
C1386 C 0.23146 0.44384 0.67443 0.0
C1387 C 0.2173 0.45209 0.62395 0.0
C1388 C 0.19462 0.44878 0.77444 0.0
C1389 C 0.20958 0.44166 0.82588 0.0
N1390 N 0.24331 0.43415 0.82972 0.0
N1391 N 0.18741 0.465 0.62485 0.0
C1392 C 0.22836 0.43972 0.77704 0.0
C1393 C 0.19932 0.45518 0.67374 0.0
N1394 N 0.24743 0.43941 0.62301 0.0
N1395 N 0.17575 0.44906 0.82238 0.0
H1396 H 0.19043 0.46952 0.55097 0.0
H1397 H 0.17565 0.46997 0.65782 0.0
H1398 H 0.17264 0.44528 0.89666 0.0
H1399 H 0.16256 0.45181 0.78855 0.0
H1400 H 0.25685 0.4313 0.65232 0.0
H1401 H 0.25017 0.44254 0.54821 0.0
H1402 H 0.25888 0.43459 0.80171 0.0
H1403 H 0.24085 0.43032 0.90423 0.0
loop_
_geom_bond_atom_site_label_1
_geom_bond_atom_site_label_2
_geom_bond_distance
_geom_bond_site_symmetry_2
_ccdc_geom_bond_type
Co0 N4 2.148 . S
Co0 N10 2.128 . S
Co0 N20 2.194 . S
Co0 O25 2.351 . S
Co0 O26 2.155 . S
Co0 O27 2.096 . S
C1 N4 1.301 . S
C1 N5 1.328 . S
C1 H6 0.930 . S
C2 C3 1.333 . S
C2 N4 1.317 . S
C2 H7 0.930 . S
C3 C2 1.333 . S
C3 N5 1.350 . S
C3 H29 0.931 . S
N4 Co0 2.148 . S
N4 C1 1.301 . S
N4 C2 1.317 . S
N5 C1 1.328 . S
N5 C3 1.350 . S
H6 C1 0.930 . S
H7 C2 0.930 . S
C8 O9 1.224 . S
C8 O27 1.247 . S
O9 C8 1.224 . S
N10 Co0 2.128 . S
N10 C11 1.355 . S
N10 C13 1.311 . S
C11 N10 1.355 . S
C11 C12 1.363 . S
C11 H23 0.929 . S
C12 C11 1.363 . S
C12 N14 1.375 . S
C12 H30 0.931 . S
C13 N10 1.311 . S
C13 N14 1.347 . S
C13 H24 0.929 . S
N14 C12 1.375 . S
N14 C13 1.347 . S
C15 C18 1.365 . S
C15 N20 1.328 . S
C15 H21 0.929 . S
C16 C17 1.362 . S
C16 C19 1.378 . S
C16 H31 0.929 . S
C17 C16 1.362 . S
C17 C18 1.366 . S
C18 C15 1.365 . S
C18 C17 1.366 . S
C18 H32 0.930 . S
C19 C16 1.378 . S
C19 N20 1.315 . S
C19 H22 0.930 . S
N20 Co0 2.194 . S
N20 C15 1.328 . S
N20 C19 1.315 . S
H21 C15 0.929 . S
H22 C19 0.930 . S
H23 C11 0.929 . S
H24 C13 0.929 . S
O25 Co0 2.351 . S
O25 C28 1.244 . S
O26 Co0 2.155 . S
O26 C28 1.240 . S
O27 Co0 2.096 . S
O27 C8 1.247 . S
C28 O25 1.244 . S
C28 O26 1.240 . S
H29 C3 0.931 . S
H30 C12 0.931 . S
H31 C16 0.929 . S
H32 C18 0.930 . S
Co33 N37 2.148 . S
Co33 N43 2.128 . S
Co33 N53 2.194 . S
Co33 O58 2.351 . S
Co33 O59 2.155 . S
Co33 O60 2.096 . S
C34 N37 1.301 . S
C34 N38 1.328 . S
C34 H39 0.930 . S
C35 C36 1.333 . S
C35 N37 1.317 . S
C35 H40 0.930 . S
C36 C35 1.333 . S
C36 N38 1.350 . S
C36 H62 0.931 . S
N37 Co33 2.148 . S
N37 C34 1.301 . S
N37 C35 1.317 . S
N38 C34 1.328 . S
N38 C36 1.350 . S
H39 C34 0.930 . S
H40 C35 0.930 . S
C41 O42 1.224 . S
C41 O60 1.247 . S
O42 C41 1.224 . S
N43 Co33 2.128 . S
N43 C44 1.355 . S
N43 C46 1.311 . S
C44 N43 1.355 . S
C44 C45 1.363 . S
C44 H56 0.929 . S
C45 C44 1.363 . S
C45 N47 1.375 . S
C45 H63 0.931 . S
C46 N43 1.311 . S
C46 N47 1.347 . S
C46 H57 0.929 . S
N47 C45 1.375 . S
N47 C46 1.347 . S
C48 C51 1.365 . S
C48 N53 1.328 . S
C48 H54 0.929 . S
C49 C50 1.362 . S
C49 C52 1.378 . S
C49 H64 0.929 . S
C50 C49 1.362 . S
C50 C51 1.366 . S
C51 C48 1.365 . S
C51 C50 1.366 . S
C51 H65 0.930 . S
C52 C49 1.378 . S
C52 N53 1.315 . S
C52 H55 0.930 . S
N53 Co33 2.194 . S
N53 C48 1.328 . S
N53 C52 1.315 . S
H54 C48 0.929 . S
H55 C52 0.930 . S
H56 C44 0.929 . S
H57 C46 0.929 . S
O58 Co33 2.351 . S
O58 C61 1.244 . S
O59 Co33 2.155 . S
O59 C61 1.240 . S
O60 Co33 2.096 . S
O60 C41 1.247 . S
C61 O58 1.244 . S
C61 O59 1.240 . S
H62 C36 0.931 . S
H63 C45 0.931 . S
H64 C49 0.929 . S
H65 C51 0.930 . S
Co66 N70 2.148 . S
Co66 N76 2.128 . S
Co66 N86 2.194 . S
Co66 O91 2.351 . S
Co66 O92 2.155 . S
Co66 O93 2.096 . S
C67 N70 1.301 . S
C67 N71 1.328 . S
C67 H72 0.930 . S
C68 C69 1.333 . S
C68 N70 1.317 . S
C68 H73 0.930 . S
C69 C68 1.333 . S
C69 N71 1.350 . S
C69 H95 0.931 . S
N70 Co66 2.148 . S
N70 C67 1.301 . S
N70 C68 1.317 . S
N71 C67 1.328 . S
N71 C69 1.350 . S
H72 C67 0.930 . S
H73 C68 0.930 . S
C74 O75 1.224 . S
C74 O93 1.247 . S
O75 C74 1.224 . S
N76 Co66 2.128 . S
N76 C77 1.355 . S
N76 C79 1.311 . S
C77 N76 1.355 . S
C77 C78 1.363 . S
C77 H89 0.929 . S
C78 C77 1.363 . S
C78 N80 1.375 . S
C78 H96 0.931 . S
C79 N76 1.311 . S
C79 N80 1.347 . S
C79 H90 0.929 . S
N80 C78 1.375 . S
N80 C79 1.347 . S
C81 C84 1.365 . S
C81 N86 1.328 . S
C81 H87 0.929 . S
C82 C83 1.362 . S
C82 C85 1.378 . S
C82 H97 0.929 . S
C83 C82 1.362 . S
C83 C84 1.366 . S
C84 C81 1.365 . S
C84 C83 1.366 . S
C84 H98 0.930 . S
C85 C82 1.378 . S
C85 N86 1.315 . S
C85 H88 0.930 . S
N86 Co66 2.194 . S
N86 C81 1.328 . S
N86 C85 1.315 . S
H87 C81 0.929 . S
H88 C85 0.930 . S
H89 C77 0.929 . S
H90 C79 0.929 . S
O91 Co66 2.351 . S
O91 C94 1.244 . S
O92 Co66 2.155 . S
O92 C94 1.240 . S
O93 Co66 2.096 . S
O93 C74 1.247 . S
C94 O91 1.244 . S
C94 O92 1.240 . S
H95 C69 0.931 . S
H96 C78 0.931 . S
H97 C82 0.929 . S
H98 C84 0.930 . S
Co99 N103 2.148 . S
Co99 N109 2.128 . S
Co99 N119 2.194 . S
Co99 O124 2.351 . S
Co99 O125 2.155 . S
Co99 O126 2.096 . S
C100 N103 1.301 . S
C100 N104 1.328 . S
C100 H105 0.930 . S
C101 C102 1.333 . S
C101 N103 1.317 . S
C101 H106 0.930 . S
C102 C101 1.333 . S
C102 N104 1.350 . S
C102 H128 0.931 . S
N103 Co99 2.148 . S
N103 C100 1.301 . S
N103 C101 1.317 . S
N104 C100 1.328 . S
N104 C102 1.350 . S
H105 C100 0.930 . S
H106 C101 0.930 . S
C107 O108 1.224 . S
C107 O126 1.247 . S
O108 C107 1.224 . S
N109 Co99 2.128 . S
N109 C110 1.355 . S
N109 C112 1.311 . S
C110 N109 1.355 . S
C110 C111 1.363 . S
C110 H122 0.929 . S
C111 C110 1.363 . S
C111 N113 1.375 . S
C111 H129 0.931 . S
C112 N109 1.311 . S
C112 N113 1.347 . S
C112 H123 0.929 . S
N113 C111 1.375 . S
N113 C112 1.347 . S
C114 C117 1.365 . S
C114 N119 1.328 . S
C114 H120 0.929 . S
C115 C116 1.362 . S
C115 C118 1.378 . S
C115 H130 0.929 . S
C116 C115 1.362 . S
C116 C117 1.366 . S
C117 C114 1.365 . S
C117 C116 1.366 . S
C117 H131 0.930 . S
C118 C115 1.378 . S
C118 N119 1.315 . S
C118 H121 0.930 . S
N119 Co99 2.194 . S
N119 C114 1.328 . S
N119 C118 1.315 . S
H120 C114 0.929 . S
H121 C118 0.930 . S
H122 C110 0.929 . S
H123 C112 0.929 . S
O124 Co99 2.351 . S
O124 C127 1.244 . S
O125 Co99 2.155 . S
O125 C127 1.240 . S
O126 Co99 2.096 . S
O126 C107 1.247 . S
C127 O124 1.244 . S
C127 O125 1.240 . S
H128 C102 0.931 . S
H129 C111 0.931 . S
H130 C115 0.929 . S
H131 C117 0.930 . S
Co132 N136 2.148 . S
Co132 N142 2.128 . S
Co132 N152 2.194 . S
Co132 O157 2.351 . S
Co132 O158 2.155 . S
Co132 O159 2.096 . S
C133 N136 1.301 . S
C133 N137 1.328 . S
C133 H138 0.930 . S
C134 C135 1.333 . S
C134 N136 1.317 . S
C134 H139 0.930 . S
C135 C134 1.333 . S
C135 N137 1.350 . S
C135 H161 0.931 . S
N136 Co132 2.148 . S
N136 C133 1.301 . S
N136 C134 1.317 . S
N137 C133 1.328 . S
N137 C135 1.350 . S
H138 C133 0.930 . S
H139 C134 0.930 . S
C140 O141 1.224 . S
C140 O159 1.247 . S
O141 C140 1.224 . S
N142 Co132 2.128 . S
N142 C143 1.355 . S
N142 C145 1.311 . S
C143 N142 1.355 . S
C143 C144 1.363 . S
C143 H155 0.929 . S
C144 C143 1.363 . S
C144 N146 1.375 . S
C144 H162 0.931 . S
C145 N142 1.311 . S
C145 N146 1.347 . S
C145 H156 0.929 . S
N146 C144 1.375 . S
N146 C145 1.347 . S
C147 C150 1.365 . S
C147 N152 1.328 . S
C147 H153 0.929 . S
C148 C149 1.362 . S
C148 C151 1.378 . S
C148 H163 0.929 . S
C149 C148 1.362 . S
C149 C150 1.366 . S
C150 C147 1.365 . S
C150 C149 1.366 . S
C150 H164 0.930 . S
C151 C148 1.378 . S
C151 N152 1.315 . S
C151 H154 0.930 . S
N152 Co132 2.194 . S
N152 C147 1.328 . S
N152 C151 1.315 . S
H153 C147 0.929 . S
H154 C151 0.930 . S
H155 C143 0.929 . S
H156 C145 0.929 . S
O157 Co132 2.351 . S
O157 C160 1.244 . S
O158 Co132 2.155 . S
O158 C160 1.240 . S
O159 Co132 2.096 . S
O159 C140 1.247 . S
C160 O157 1.244 . S
C160 O158 1.240 . S
H161 C135 0.931 . S
H162 C144 0.931 . S
H163 C148 0.929 . S
H164 C150 0.930 . S
Co165 N169 2.148 . S
Co165 N175 2.128 . S
Co165 N185 2.194 . S
Co165 O190 2.351 . S
Co165 O191 2.155 . S
Co165 O192 2.096 . S
C166 N169 1.301 . S
C166 N170 1.328 . S
C166 H171 0.930 . S
C167 C168 1.333 . S
C167 N169 1.317 . S
C167 H172 0.930 . S
C168 C167 1.333 . S
C168 N170 1.350 . S
C168 H194 0.931 . S
N169 Co165 2.148 . S
N169 C166 1.301 . S
N169 C167 1.317 . S
N170 C166 1.328 . S
N170 C168 1.350 . S
H171 C166 0.930 . S
H172 C167 0.930 . S
C173 O174 1.224 . S
C173 O192 1.247 . S
O174 C173 1.224 . S
N175 Co165 2.128 . S
N175 C176 1.355 . S
N175 C178 1.311 . S
C176 N175 1.355 . S
C176 C177 1.363 . S
C176 H188 0.929 . S
C177 C176 1.363 . S
C177 N179 1.375 . S
C177 H195 0.931 . S
C178 N175 1.311 . S
C178 N179 1.347 . S
C178 H189 0.929 . S
N179 C177 1.375 . S
N179 C178 1.347 . S
C180 C183 1.365 . S
C180 N185 1.328 . S
C180 H186 0.929 . S
C181 C182 1.362 . S
C181 C184 1.378 . S
C181 H196 0.929 . S
C182 C181 1.362 . S
C182 C183 1.366 . S
C183 C180 1.365 . S
C183 C182 1.366 . S
C183 H197 0.930 . S
C184 C181 1.378 . S
C184 N185 1.315 . S
C184 H187 0.930 . S
N185 Co165 2.194 . S
N185 C180 1.328 . S
N185 C184 1.315 . S
H186 C180 0.929 . S
H187 C184 0.930 . S
H188 C176 0.929 . S
H189 C178 0.929 . S
O190 Co165 2.351 . S
O190 C193 1.244 . S
O191 Co165 2.155 . S
O191 C193 1.240 . S
O192 Co165 2.096 . S
O192 C173 1.247 . S
C193 O190 1.244 . S
C193 O191 1.240 . S
H194 C168 0.931 . S
H195 C177 0.931 . S
H196 C181 0.929 . S
H197 C183 0.930 . S
Co198 N202 2.148 . S
Co198 N208 2.128 . S
Co198 N218 2.194 . S
Co198 O223 2.351 . S
Co198 O224 2.155 . S
Co198 O225 2.096 . S
C199 N202 1.294 1_554 S
C199 N203 1.337 . S
C199 H204 0.929 1_554 S
C200 C201 1.333 1_556 S
C200 N202 1.317 . S
C200 H205 0.930 . S
C201 C200 1.333 1_554 S
C201 N203 1.350 . S
C201 H227 0.931 . S
N202 Co198 2.148 . S
N202 C199 1.294 1_556 S
N202 C200 1.317 . S
N203 C199 1.337 . S
N203 C201 1.350 . S
H204 C199 0.929 1_556 S
H205 C200 0.930 . S
C206 O207 1.224 . S
C206 O225 1.247 . S
O207 C206 1.224 . S
N208 Co198 2.128 . S
N208 C209 1.355 . S
N208 C211 1.311 . S
C209 N208 1.355 . S
C209 C210 1.363 . S
C209 H221 0.929 . S
C210 C209 1.363 . S
C210 N212 1.375 . S
C210 H228 0.931 . S
C211 N208 1.311 . S
C211 N212 1.347 . S
C211 H222 0.929 . S
N212 C210 1.375 . S
N212 C211 1.347 . S
C213 C216 1.365 . S
C213 N218 1.328 . S
C213 H219 0.929 . S
C214 C215 1.362 . S
C214 C217 1.378 . S
C214 H229 0.929 . S
C215 C214 1.362 . S
C215 C216 1.366 . S
C216 C213 1.365 . S
C216 C215 1.366 . S
C216 H230 0.930 . S
C217 C214 1.378 . S
C217 N218 1.315 . S
C217 H220 0.930 . S
N218 Co198 2.194 . S
N218 C213 1.328 . S
N218 C217 1.315 . S
H219 C213 0.929 . S
H220 C217 0.930 . S
H221 C209 0.929 . S
H222 C211 0.929 . S
O223 Co198 2.351 . S
O223 C226 1.244 . S
O224 Co198 2.155 . S
O224 C226 1.240 . S
O225 Co198 2.096 . S
O225 C206 1.247 . S
C226 O223 1.244 . S
C226 O224 1.240 . S
H227 C201 0.931 . S
H228 C210 0.931 . S
H229 C214 0.929 . S
H230 C216 0.930 . S
Co231 N235 2.148 . S
Co231 N241 2.128 . S
Co231 N251 2.194 . S
Co231 O256 2.351 . S
Co231 O257 2.155 . S
Co231 O258 2.096 . S
C232 N235 1.294 1_554 S
C232 N236 1.337 . S
C232 H237 0.929 1_554 S
C233 C234 1.333 1_556 S
C233 N235 1.317 . S
C233 H238 0.930 . S
C234 C233 1.333 1_554 S
C234 N236 1.350 . S
C234 H260 0.931 . S
N235 Co231 2.148 . S
N235 C232 1.294 1_556 S
N235 C233 1.317 . S
N236 C232 1.337 . S
N236 C234 1.350 . S
H237 C232 0.929 1_556 S
H238 C233 0.930 . S
C239 O240 1.224 . S
C239 O258 1.247 . S
O240 C239 1.224 . S
N241 Co231 2.128 . S
N241 C242 1.355 . S
N241 C244 1.311 . S
C242 N241 1.355 . S
C242 C243 1.363 . S
C242 H254 0.929 . S
C243 C242 1.363 . S
C243 N245 1.375 . S
C243 H261 0.931 . S
C244 N241 1.311 . S
C244 N245 1.347 . S
C244 H255 0.929 . S
N245 C243 1.375 . S
N245 C244 1.347 . S
C246 C249 1.365 . S
C246 N251 1.328 . S
C246 H252 0.929 . S
C247 C248 1.362 . S
C247 C250 1.378 . S
C247 H262 0.929 . S
C248 C247 1.362 . S
C248 C249 1.366 . S
C249 C246 1.365 . S
C249 C248 1.366 . S
C249 H263 0.930 . S
C250 C247 1.378 . S
C250 N251 1.315 . S
C250 H253 0.930 . S
N251 Co231 2.194 . S
N251 C246 1.328 . S
N251 C250 1.315 . S
H252 C246 0.929 . S
H253 C250 0.930 . S
H254 C242 0.929 . S
H255 C244 0.929 . S
O256 Co231 2.351 . S
O256 C259 1.244 . S
O257 Co231 2.155 . S
O257 C259 1.240 . S
O258 Co231 2.096 . S
O258 C239 1.247 . S
C259 O256 1.244 . S
C259 O257 1.240 . S
H260 C234 0.931 . S
H261 C243 0.931 . S
H262 C247 0.929 . S
H263 C249 0.930 . S
Co264 N268 2.148 . S
Co264 N274 2.128 . S
Co264 N284 2.194 . S
Co264 O289 2.351 . S
Co264 O290 2.155 . S
Co264 O291 2.096 . S
C265 N268 1.294 1_554 S
C265 N269 1.336 . S
C265 H270 0.929 1_554 S
C266 C267 1.333 1_556 S
C266 N268 1.317 . S
C266 H271 0.930 . S
C267 C266 1.333 1_554 S
C267 N269 1.350 . S
C267 H293 0.931 . S
N268 Co264 2.148 . S
N268 C265 1.294 1_556 S
N268 C266 1.317 . S
N269 C265 1.336 . S
N269 C267 1.350 . S
H270 C265 0.929 1_556 S
H271 C266 0.930 . S
C272 O273 1.224 . S
C272 O291 1.247 . S
O273 C272 1.224 . S
N274 Co264 2.128 . S
N274 C275 1.355 . S
N274 C277 1.311 . S
C275 N274 1.355 . S
C275 C276 1.363 . S
C275 H287 0.929 . S
C276 C275 1.363 . S
C276 N278 1.375 . S
C276 H294 0.931 . S
C277 N274 1.311 . S
C277 N278 1.347 . S
C277 H288 0.929 . S
N278 C276 1.375 . S
N278 C277 1.347 . S
C279 C282 1.365 . S
C279 N284 1.328 . S
C279 H285 0.929 . S
C280 C281 1.362 . S
C280 C283 1.378 . S
C280 H295 0.929 . S
C281 C280 1.362 . S
C281 C282 1.366 . S
C282 C279 1.365 . S
C282 C281 1.366 . S
C282 H296 0.930 . S
C283 C280 1.378 . S
C283 N284 1.315 . S
C283 H286 0.930 . S
N284 Co264 2.194 . S
N284 C279 1.328 . S
N284 C283 1.315 . S
H285 C279 0.929 . S
H286 C283 0.930 . S
H287 C275 0.929 . S
H288 C277 0.929 . S
O289 Co264 2.351 . S
O289 C292 1.244 . S
O290 Co264 2.155 . S
O290 C292 1.240 . S
O291 Co264 2.096 . S
O291 C272 1.247 . S
C292 O289 1.244 . S
C292 O290 1.240 . S
H293 C267 0.931 . S
H294 C276 0.931 . S
H295 C280 0.929 . S
H296 C282 0.930 . S
Co297 N301 2.148 . S
Co297 N307 2.128 1_556 S
Co297 N317 2.194 . S
Co297 O322 2.351 . S
Co297 O323 2.155 . S
Co297 O324 2.096 . S
C298 N301 1.301 . S
C298 N302 1.328 . S
C298 H303 0.930 . S
C299 C300 1.333 . S
C299 N301 1.317 . S
C299 H304 0.930 . S
C300 C299 1.333 . S
C300 N302 1.350 . S
C300 H326 0.931 . S
N301 Co297 2.148 . S
N301 C298 1.301 . S
N301 C299 1.317 . S
N302 C298 1.328 . S
N302 C300 1.350 . S
H303 C298 0.930 . S
H304 C299 0.930 . S
C305 O306 1.224 . S
C305 O324 1.247 . S
O306 C305 1.224 . S
N307 Co297 2.128 1_554 S
N307 C308 1.355 . S
N307 C310 1.311 . S
C308 N307 1.355 . S
C308 C309 1.363 . S
C308 H320 0.929 . S
C309 C308 1.363 . S
C309 N311 1.375 . S
C309 H327 0.931 . S
C310 N307 1.311 . S
C310 N311 1.347 . S
C310 H321 0.929 . S
N311 C309 1.375 . S
N311 C310 1.347 . S
C312 C315 1.365 . S
C312 N317 1.328 . S
C312 H318 0.929 . S
C313 C314 1.362 . S
C313 C316 1.378 . S
C313 H328 0.929 . S
C314 C313 1.362 . S
C314 C315 1.366 . S
C315 C312 1.365 . S
C315 C314 1.366 . S
C315 H329 0.930 . S
C316 C313 1.378 . S
C316 N317 1.315 . S
C316 H319 0.930 . S
N317 Co297 2.194 . S
N317 C312 1.328 . S
N317 C316 1.315 . S
H318 C312 0.929 . S
H319 C316 0.930 . S
H320 C308 0.929 . S
H321 C310 0.929 . S
O322 Co297 2.351 . S
O322 C325 1.244 . S
O323 Co297 2.155 . S
O323 C325 1.240 . S
O324 Co297 2.096 . S
O324 C305 1.247 . S
C325 O322 1.244 . S
C325 O323 1.240 . S
H326 C300 0.931 . S
H327 C309 0.931 . S
H328 C313 0.929 . S
H329 C315 0.930 . S
Co330 N334 2.148 . S
Co330 N340 2.128 1_556 S
Co330 N350 2.194 . S
Co330 O355 2.351 . S
Co330 O356 2.155 . S
Co330 O357 2.096 . S
C331 N334 1.301 . S
C331 N335 1.328 . S
C331 H336 0.930 . S
C332 C333 1.333 . S
C332 N334 1.317 . S
C332 H337 0.930 . S
C333 C332 1.333 . S
C333 N335 1.350 . S
C333 H359 0.931 . S
N334 Co330 2.148 . S
N334 C331 1.301 . S
N334 C332 1.317 . S
N335 C331 1.328 . S
N335 C333 1.350 . S
H336 C331 0.930 . S
H337 C332 0.930 . S
C338 O339 1.224 . S
C338 O357 1.247 . S
O339 C338 1.224 . S
N340 Co330 2.128 1_554 S
N340 C341 1.355 . S
N340 C343 1.311 . S
C341 N340 1.355 . S
C341 C342 1.363 . S
C341 H353 0.929 . S
C342 C341 1.363 . S
C342 N344 1.375 . S
C342 H360 0.931 . S
C343 N340 1.311 . S
C343 N344 1.347 . S
C343 H354 0.929 . S
N344 C342 1.375 . S
N344 C343 1.347 . S
C345 C348 1.365 . S
C345 N350 1.328 . S
C345 H351 0.929 . S
C346 C347 1.362 . S
C346 C349 1.378 . S
C346 H361 0.929 . S
C347 C346 1.362 . S
C347 C348 1.366 . S
C348 C345 1.365 . S
C348 C347 1.366 . S
C348 H362 0.930 . S
C349 C346 1.378 . S
C349 N350 1.315 . S
C349 H352 0.930 . S
N350 Co330 2.194 . S
N350 C345 1.328 . S
N350 C349 1.315 . S
H351 C345 0.929 . S
H352 C349 0.930 . S
H353 C341 0.929 . S
H354 C343 0.929 . S
O355 Co330 2.351 . S
O355 C358 1.244 . S
O356 Co330 2.155 . S
O356 C358 1.240 . S
O357 Co330 2.096 . S
O357 C338 1.247 . S
C358 O355 1.244 . S
C358 O356 1.240 . S
H359 C333 0.931 . S
H360 C342 0.931 . S
H361 C346 0.929 . S
H362 C348 0.930 . S
Co363 N367 2.148 . S
Co363 N373 2.128 1_556 S
Co363 N383 2.194 . S
Co363 O388 2.351 . S
Co363 O389 2.155 . S
Co363 O390 2.096 . S
C364 N367 1.301 . S
C364 N368 1.328 . S
C364 H369 0.930 . S
C365 C366 1.333 . S
C365 N367 1.317 . S
C365 H370 0.930 . S
C366 C365 1.333 . S
C366 N368 1.350 . S
C366 H392 0.931 . S
N367 Co363 2.148 . S
N367 C364 1.301 . S
N367 C365 1.317 . S
N368 C364 1.328 . S
N368 C366 1.350 . S
H369 C364 0.930 . S
H370 C365 0.930 . S
C371 O372 1.224 . S
C371 O390 1.247 . S
O372 C371 1.224 . S
N373 Co363 2.128 1_554 S
N373 C374 1.355 . S
N373 C376 1.311 . S
C374 N373 1.355 . S
C374 C375 1.363 . S
C374 H386 0.929 . S
C375 C374 1.363 . S
C375 N377 1.375 . S
C375 H393 0.931 . S
C376 N373 1.311 . S
C376 N377 1.347 . S
C376 H387 0.929 . S
N377 C375 1.375 . S
N377 C376 1.347 . S
C378 C381 1.365 . S
C378 N383 1.328 . S
C378 H384 0.929 . S
C379 C380 1.362 . S
C379 C382 1.378 . S
C379 H394 0.929 . S
C380 C379 1.362 . S
C380 C381 1.366 . S
C381 C378 1.365 . S
C381 C380 1.366 . S
C381 H395 0.930 . S
C382 C379 1.378 . S
C382 N383 1.315 . S
C382 H385 0.930 . S
N383 Co363 2.194 . S
N383 C378 1.328 . S
N383 C382 1.315 . S
H384 C378 0.929 . S
H385 C382 0.930 . S
H386 C374 0.929 . S
H387 C376 0.929 . S
O388 Co363 2.351 . S
O388 C391 1.244 . S
O389 Co363 2.155 . S
O389 C391 1.240 . S
O390 Co363 2.096 . S
O390 C371 1.247 . S
C391 O388 1.244 . S
C391 O389 1.240 . S
H392 C366 0.931 . S
H393 C375 0.931 . S
H394 C379 0.929 . S
H395 C381 0.930 . S
Co396 N400 2.148 . S
Co396 N406 2.128 1_554 S
Co396 N416 2.194 . S
Co396 O421 2.351 . S
Co396 O422 2.155 . S
Co396 O423 2.096 . S
C397 N400 1.301 . S
C397 N401 1.328 . S
C397 H402 0.930 . S
C398 C399 1.333 . S
C398 N400 1.317 . S
C398 H403 0.930 . S
C399 C398 1.333 . S
C399 N401 1.350 . S
C399 H425 0.931 . S
N400 Co396 2.148 . S
N400 C397 1.301 . S
N400 C398 1.317 . S
N401 C397 1.328 . S
N401 C399 1.350 . S
H402 C397 0.930 . S
H403 C398 0.930 . S
C404 O405 1.224 . S
C404 O423 1.247 . S
O405 C404 1.224 . S
N406 Co396 2.128 1_556 S
N406 C407 1.355 . S
N406 C409 1.311 . S
C407 N406 1.355 . S
C407 C408 1.363 . S
C407 H419 0.929 . S
C408 C407 1.363 . S
C408 N410 1.375 . S
C408 H426 0.931 . S
C409 N406 1.311 . S
C409 N410 1.347 . S
C409 H420 0.929 . S
N410 C408 1.375 . S
N410 C409 1.347 . S
C411 C414 1.365 . S
C411 N416 1.328 . S
C411 H417 0.929 . S
C412 C413 1.362 . S
C412 C415 1.378 . S
C412 H427 0.929 . S
C413 C412 1.362 . S
C413 C414 1.366 . S
C414 C411 1.365 . S
C414 C413 1.366 . S
C414 H428 0.930 . S
C415 C412 1.378 . S
C415 N416 1.315 . S
C415 H418 0.930 . S
N416 Co396 2.194 . S
N416 C411 1.328 . S
N416 C415 1.315 . S
H417 C411 0.929 . S
H418 C415 0.930 . S
H419 C407 0.929 . S
H420 C409 0.929 . S
O421 Co396 2.351 . S
O421 C424 1.244 . S
O422 Co396 2.155 . S
O422 C424 1.240 . S
O423 Co396 2.096 . S
O423 C404 1.247 . S
C424 O421 1.244 . S
C424 O422 1.240 . S
H425 C399 0.931 . S
H426 C408 0.931 . S
H427 C412 0.929 . S
H428 C414 0.930 . S
Co429 N433 2.148 . S
Co429 N439 2.128 1_554 S
Co429 N449 2.194 . S
Co429 O454 2.351 . S
Co429 O455 2.155 . S
Co429 O456 2.096 . S
C430 N433 1.301 . S
C430 N434 1.328 . S
C430 H435 0.930 . S
C431 C432 1.333 . S
C431 N433 1.317 . S
C431 H436 0.930 . S
C432 C431 1.333 . S
C432 N434 1.350 . S
C432 H458 0.931 . S
N433 Co429 2.148 . S
N433 C430 1.301 . S
N433 C431 1.317 . S
N434 C430 1.328 . S
N434 C432 1.350 . S
H435 C430 0.930 . S
H436 C431 0.930 . S
C437 O438 1.224 . S
C437 O456 1.247 . S
O438 C437 1.224 . S
N439 Co429 2.128 1_556 S
N439 C440 1.355 . S
N439 C442 1.311 . S
C440 N439 1.355 . S
C440 C441 1.363 . S
C440 H452 0.929 . S
C441 C440 1.363 . S
C441 N443 1.375 . S
C441 H459 0.931 . S
C442 N439 1.311 . S
C442 N443 1.347 . S
C442 H453 0.929 . S
N443 C441 1.375 . S
N443 C442 1.347 . S
C444 C447 1.365 . S
C444 N449 1.328 . S
C444 H450 0.929 . S
C445 C446 1.362 . S
C445 C448 1.378 . S
C445 H460 0.929 . S
C446 C445 1.362 . S
C446 C447 1.366 . S
C447 C444 1.365 . S
C447 C446 1.366 . S
C447 H461 0.930 . S
C448 C445 1.378 . S
C448 N449 1.315 . S
C448 H451 0.930 . S
N449 Co429 2.194 . S
N449 C444 1.328 . S
N449 C448 1.315 . S
H450 C444 0.929 . S
H451 C448 0.930 . S
H452 C440 0.929 . S
H453 C442 0.929 . S
O454 Co429 2.351 . S
O454 C457 1.244 . S
O455 Co429 2.155 . S
O455 C457 1.240 . S
O456 Co429 2.096 . S
O456 C437 1.247 . S
C457 O454 1.244 . S
C457 O455 1.240 . S
H458 C432 0.931 . S
H459 C441 0.931 . S
H460 C445 0.929 . S
H461 C447 0.930 . S
Co462 N466 2.148 . S
Co462 N472 2.128 1_554 S
Co462 N482 2.194 . S
Co462 O487 2.351 . S
Co462 O488 2.155 . S
Co462 O489 2.096 . S
C463 N466 1.301 . S
C463 N467 1.328 . S
C463 H468 0.930 . S
C464 C465 1.333 . S
C464 N466 1.317 . S
C464 H469 0.930 . S
C465 C464 1.333 . S
C465 N467 1.350 . S
C465 H491 0.931 . S
N466 Co462 2.148 . S
N466 C463 1.301 . S
N466 C464 1.317 . S
N467 C463 1.328 . S
N467 C465 1.350 . S
H468 C463 0.930 . S
H469 C464 0.930 . S
C470 O471 1.224 . S
C470 O489 1.247 . S
O471 C470 1.224 . S
N472 Co462 2.128 1_556 S
N472 C473 1.355 . S
N472 C475 1.311 . S
C473 N472 1.355 . S
C473 C474 1.363 . S
C473 H485 0.929 . S
C474 C473 1.363 . S
C474 N476 1.375 . S
C474 H492 0.931 . S
C475 N472 1.311 . S
C475 N476 1.347 . S
C475 H486 0.929 . S
N476 C474 1.375 . S
N476 C475 1.347 . S
C477 C480 1.365 . S
C477 N482 1.328 . S
C477 H483 0.929 . S
C478 C479 1.362 . S
C478 C481 1.378 . S
C478 H493 0.929 . S
C479 C478 1.362 . S
C479 C480 1.366 . S
C480 C477 1.365 . S
C480 C479 1.366 . S
C480 H494 0.930 . S
C481 C478 1.378 . S
C481 N482 1.315 . S
C481 H484 0.930 . S
N482 Co462 2.194 . S
N482 C477 1.328 . S
N482 C481 1.315 . S
H483 C477 0.929 . S
H484 C481 0.930 . S
H485 C473 0.929 . S
H486 C475 0.929 . S
O487 Co462 2.351 . S
O487 C490 1.244 . S
O488 Co462 2.155 . S
O488 C490 1.240 . S
O489 Co462 2.096 . S
O489 C470 1.247 . S
C490 O487 1.244 . S
C490 O488 1.240 . S
H491 C465 0.931 . S
H492 C474 0.931 . S
H493 C478 0.929 . S
H494 C480 0.930 . S
Co495 N499 2.148 . S
Co495 N505 2.128 . S
Co495 N515 2.194 . S
Co495 O520 2.351 . S
Co495 O521 2.155 . S
Co495 O522 2.096 . S
C496 N499 1.294 1_556 S
C496 N500 1.337 . S
C496 H501 0.929 1_556 S
C497 C498 1.333 1_554 S
C497 N499 1.317 . S
C497 H502 0.930 . S
C498 C497 1.333 1_556 S
C498 N500 1.350 . S
C498 H524 0.931 . S
N499 Co495 2.148 . S
N499 C496 1.294 1_554 S
N499 C497 1.317 . S
N500 C496 1.337 . S
N500 C498 1.350 . S
H501 C496 0.929 1_554 S
H502 C497 0.930 . S
C503 O504 1.224 . S
C503 O522 1.247 . S
O504 C503 1.224 . S
N505 Co495 2.128 . S
N505 C506 1.355 . S
N505 C508 1.311 . S
C506 N505 1.355 . S
C506 C507 1.363 . S
C506 H518 0.929 . S
C507 C506 1.363 . S
C507 N509 1.375 . S
C507 H525 0.931 . S
C508 N505 1.311 . S
C508 N509 1.347 . S
C508 H519 0.929 . S
N509 C507 1.375 . S
N509 C508 1.347 . S
C510 C513 1.365 . S
C510 N515 1.328 . S
C510 H516 0.929 . S
C511 C512 1.362 . S
C511 C514 1.378 . S
C511 H526 0.929 . S
C512 C511 1.362 . S
C512 C513 1.366 . S
C513 C510 1.365 . S
C513 C512 1.366 . S
C513 H527 0.930 . S
C514 C511 1.378 . S
C514 N515 1.315 . S
C514 H517 0.930 . S
N515 Co495 2.194 . S
N515 C510 1.328 . S
N515 C514 1.315 . S
H516 C510 0.929 . S
H517 C514 0.930 . S
H518 C506 0.929 . S
H519 C508 0.929 . S
O520 Co495 2.351 . S
O520 C523 1.244 . S
O521 Co495 2.155 . S
O521 C523 1.240 . S
O522 Co495 2.096 . S
O522 C503 1.247 . S
C523 O520 1.244 . S
C523 O521 1.240 . S
H524 C498 0.931 . S
H525 C507 0.931 . S
H526 C511 0.929 . S
H527 C513 0.930 . S
Co528 N532 2.148 . S
Co528 N538 2.128 . S
Co528 N548 2.194 . S
Co528 O553 2.351 . S
Co528 O554 2.155 . S
Co528 O555 2.096 . S
C529 N532 1.294 1_556 S
C529 N533 1.336 . S
C529 H534 0.929 1_556 S
C530 C531 1.333 1_554 S
C530 N532 1.317 . S
C530 H535 0.930 . S
C531 C530 1.333 1_556 S
C531 N533 1.350 . S
C531 H557 0.931 . S
N532 Co528 2.148 . S
N532 C529 1.294 1_554 S
N532 C530 1.317 . S
N533 C529 1.336 . S
N533 C531 1.350 . S
H534 C529 0.929 1_554 S
H535 C530 0.930 . S
C536 O537 1.224 . S
C536 O555 1.247 . S
O537 C536 1.224 . S
N538 Co528 2.128 . S
N538 C539 1.355 . S
N538 C541 1.311 . S
C539 N538 1.355 . S
C539 C540 1.363 . S
C539 H551 0.929 . S
C540 C539 1.363 . S
C540 N542 1.375 . S
C540 H558 0.931 . S
C541 N538 1.311 . S
C541 N542 1.347 . S
C541 H552 0.929 . S
N542 C540 1.375 . S
N542 C541 1.347 . S
C543 C546 1.365 . S
C543 N548 1.328 . S
C543 H549 0.929 . S
C544 C545 1.362 . S
C544 C547 1.378 . S
C544 H559 0.929 . S
C545 C544 1.362 . S
C545 C546 1.366 . S
C546 C543 1.365 . S
C546 C545 1.366 . S
C546 H560 0.930 . S
C547 C544 1.378 . S
C547 N548 1.315 . S
C547 H550 0.930 . S
N548 Co528 2.194 . S
N548 C543 1.328 . S
N548 C547 1.315 . S
H549 C543 0.929 . S
H550 C547 0.930 . S
H551 C539 0.929 . S
H552 C541 0.929 . S
O553 Co528 2.351 . S
O553 C556 1.244 . S
O554 Co528 2.155 . S
O554 C556 1.240 . S
O555 Co528 2.096 . S
O555 C536 1.247 . S
C556 O553 1.244 . S
C556 O554 1.240 . S
H557 C531 0.931 . S
H558 C540 0.931 . S
H559 C544 0.929 . S
H560 C546 0.930 . S
Co561 N565 2.148 . S
Co561 N571 2.128 . S
Co561 N581 2.194 . S
Co561 O586 2.351 . S
Co561 O587 2.155 . S
Co561 O588 2.096 . S
C562 N565 1.294 1_556 S
C562 N566 1.337 . S
C562 H567 0.929 1_556 S
C563 C564 1.333 1_554 S
C563 N565 1.317 . S
C563 H568 0.930 . S
C564 C563 1.333 1_556 S
C564 N566 1.350 . S
C564 H590 0.931 . S
N565 Co561 2.148 . S
N565 C562 1.294 1_554 S
N565 C563 1.317 . S
N566 C562 1.337 . S
N566 C564 1.350 . S
H567 C562 0.929 1_554 S
H568 C563 0.930 . S
C569 O570 1.224 . S
C569 O588 1.247 . S
O570 C569 1.224 . S
N571 Co561 2.128 . S
N571 C572 1.355 . S
N571 C574 1.311 . S
C572 N571 1.355 . S
C572 C573 1.363 . S
C572 H584 0.929 . S
C573 C572 1.363 . S
C573 N575 1.375 . S
C573 H591 0.931 . S
C574 N571 1.311 . S
C574 N575 1.347 . S
C574 H585 0.929 . S
N575 C573 1.375 . S
N575 C574 1.347 . S
C576 C579 1.365 . S
C576 N581 1.328 . S
C576 H582 0.929 . S
C577 C578 1.362 . S
C577 C580 1.378 . S
C577 H592 0.929 . S
C578 C577 1.362 . S
C578 C579 1.366 . S
C579 C576 1.365 . S
C579 C578 1.366 . S
C579 H593 0.930 . S
C580 C577 1.378 . S
C580 N581 1.315 . S
C580 H583 0.930 . S
N581 Co561 2.194 . S
N581 C576 1.328 . S
N581 C580 1.315 . S
H582 C576 0.929 . S
H583 C580 0.930 . S
H584 C572 0.929 . S
H585 C574 0.929 . S
O586 Co561 2.351 . S
O586 C589 1.244 . S
O587 Co561 2.155 . S
O587 C589 1.240 . S
O588 Co561 2.096 . S
O588 C569 1.247 . S
C589 O586 1.244 . S
C589 O587 1.240 . S
H590 C564 0.931 . S
H591 C573 0.931 . S
H592 C577 0.929 . S
H593 C579 0.930 . S
C594 C595 1.363 . S
C594 C600 1.379 . S
C594 N602 1.356 . S
C595 C594 1.363 . S
C595 C601 1.363 . S
C596 C597 1.363 . S
C596 C601 1.379 . S
C596 N603 1.356 . S
C597 C596 1.363 . S
C597 C600 1.363 . S
N598 C600 1.356 . S
N598 H610 0.984 . S
N598 H611 0.985 . S
N599 C601 1.356 . S
N599 H604 0.984 . S
N599 H605 0.985 . S
C600 C594 1.379 . S
C600 C597 1.363 . S
C600 N598 1.356 . S
C601 C595 1.363 . S
C601 C596 1.379 . S
C601 N599 1.356 . S
N602 C594 1.356 . S
N602 H608 0.984 . S
N602 H609 0.984 . S
N603 C596 1.356 . S
N603 H606 0.984 . S
N603 H607 0.985 . S
H604 N599 0.984 . S
H605 N599 0.985 . S
H606 N603 0.984 . S
H607 N603 0.985 . S
H608 N602 0.984 . S
H609 N602 0.984 . S
H610 N598 0.984 . S
H611 N598 0.985 . S
C612 C613 1.363 . S
C612 C618 1.379 1_545 S
C612 N620 1.356 . S
C613 C612 1.363 . S
C613 C619 1.363 . S
C614 C615 1.363 . S
C614 C619 1.379 1_565 S
C614 N621 1.356 . S
C615 C614 1.363 . S
C615 C618 1.363 . S
N616 C618 1.356 . S
N616 H628 0.984 . S
N616 H629 0.985 . S
N617 C619 1.356 . S
N617 H622 0.984 . S
N617 H623 0.985 . S
C618 C612 1.379 1_565 S
C618 C615 1.363 . S
C618 N616 1.356 . S
C619 C613 1.363 . S
C619 C614 1.379 1_545 S
C619 N617 1.356 . S
N620 C612 1.356 . S
N620 H626 0.984 . S
N620 H627 0.984 . S
N621 C614 1.356 . S
N621 H624 0.984 . S
N621 H625 0.985 . S
H622 N617 0.984 . S
H623 N617 0.985 . S
H624 N621 0.984 . S
H625 N621 0.985 . S
H626 N620 0.984 . S
H627 N620 0.984 . S
H628 N616 0.984 . S
H629 N616 0.985 . S
C630 C631 1.363 . S
C630 C636 1.379 1_655 S
C630 N638 1.356 . S
C631 C630 1.363 . S
C631 C637 1.363 . S
C632 C633 1.363 . S
C632 C637 1.379 1_455 S
C632 N639 1.356 . S
C633 C632 1.363 . S
C633 C636 1.363 . S
N634 C636 1.356 . S
N634 H646 0.984 . S
N634 H647 0.985 . S
N635 C637 1.356 . S
N635 H640 0.984 . S
N635 H641 0.985 . S
C636 C630 1.379 1_455 S
C636 C633 1.363 . S
C636 N634 1.356 . S
C637 C631 1.363 . S
C637 C632 1.379 1_655 S
C637 N635 1.356 . S
N638 C630 1.356 . S
N638 H644 0.984 . S
N638 H645 0.984 . S
N639 C632 1.356 . S
N639 H642 0.984 . S
N639 H643 0.985 . S
H640 N635 0.984 . S
H641 N635 0.985 . S
H642 N639 0.984 . S
H643 N639 0.985 . S
H644 N638 0.984 . S
H645 N638 0.984 . S
H646 N634 0.984 . S
H647 N634 0.985 . S
C648 C649 1.363 . S
C648 C654 1.379 . S
C648 N656 1.356 . S
C649 C648 1.363 . S
C649 C655 1.363 . S
C650 C651 1.363 . S
C650 C655 1.379 . S
C650 N657 1.356 . S
C651 C650 1.363 . S
C651 C654 1.363 . S
N652 C654 1.356 . S
N652 H664 0.984 . S
N652 H665 0.985 . S
N653 C655 1.356 . S
N653 H658 0.984 . S
N653 H659 0.985 . S
C654 C648 1.379 . S
C654 C651 1.363 . S
C654 N652 1.356 . S
C655 C649 1.363 . S
C655 C650 1.379 . S
C655 N653 1.356 . S
N656 C648 1.356 . S
N656 H662 0.984 . S
N656 H663 0.984 . S
N657 C650 1.356 . S
N657 H660 0.984 . S
N657 H661 0.985 . S
H658 N653 0.984 . S
H659 N653 0.985 . S
H660 N657 0.984 . S
H661 N657 0.985 . S
H662 N656 0.984 . S
H663 N656 0.984 . S
H664 N652 0.984 . S
H665 N652 0.985 . S
C666 C667 1.363 . S
C666 C672 1.379 1_545 S
C666 N674 1.356 . S
C667 C666 1.363 . S
C667 C673 1.363 . S
C668 C669 1.363 . S
C668 C673 1.379 1_565 S
C668 N675 1.356 . S
C669 C668 1.363 . S
C669 C672 1.363 . S
N670 C672 1.356 . S
N670 H682 0.984 . S
N670 H683 0.985 . S
N671 C673 1.356 . S
N671 H676 0.984 . S
N671 H677 0.985 . S
C672 C666 1.379 1_565 S
C672 C669 1.363 . S
C672 N670 1.356 . S
C673 C667 1.363 . S
C673 C668 1.379 1_545 S
C673 N671 1.356 . S
N674 C666 1.356 . S
N674 H680 0.984 . S
N674 H681 0.984 . S
N675 C668 1.356 . S
N675 H678 0.984 . S
N675 H679 0.985 . S
H676 N671 0.984 . S
H677 N671 0.985 . S
H678 N675 0.984 . S
H679 N675 0.985 . S
H680 N674 0.984 . S
H681 N674 0.984 . S
H682 N670 0.984 . S
H683 N670 0.985 . S
C684 C685 1.363 . S
C684 C690 1.379 1_655 S
C684 N692 1.356 . S
C685 C684 1.363 . S
C685 C691 1.363 . S
C686 C687 1.363 . S
C686 C691 1.379 1_455 S
C686 N693 1.356 . S
C687 C686 1.363 . S
C687 C690 1.363 . S
N688 C690 1.356 . S
N688 H700 0.984 . S
N688 H701 0.985 . S
N689 C691 1.356 . S
N689 H694 0.984 . S
N689 H695 0.985 . S
C690 C684 1.379 1_455 S
C690 C687 1.363 . S
C690 N688 1.356 . S
C691 C685 1.363 . S
C691 C686 1.379 1_655 S
C691 N689 1.356 . S
N692 C684 1.356 . S
N692 H698 0.984 . S
N692 H699 0.984 . S
N693 C686 1.356 . S
N693 H696 0.984 . S
N693 H697 0.985 . S
H694 N689 0.984 . S
H695 N689 0.985 . S
H696 N693 0.984 . S
H697 N693 0.985 . S
H698 N692 0.984 . S
H699 N692 0.984 . S
H700 N688 0.984 . S
H701 N688 0.985 . S
C702 C703 1.363 . S
C702 C708 1.379 . S
C702 N710 1.356 . S
C703 C702 1.363 . S
C703 C709 1.363 . S
C704 C705 1.363 . S
C704 C709 1.379 . S
C704 N711 1.356 . S
C705 C704 1.363 . S
C705 C708 1.363 . S
N706 C708 1.356 . S
N706 H718 0.984 . S
N706 H719 0.985 . S
N707 C709 1.356 . S
N707 H712 0.984 . S
N707 H713 0.985 1_556 S
C708 C702 1.379 . S
C708 C705 1.363 . S
C708 N706 1.356 . S
C709 C703 1.363 . S
C709 C704 1.379 . S
C709 N707 1.356 . S
N710 C702 1.356 . S
N710 H716 0.984 . S
N710 H717 0.984 . S
N711 C704 1.356 . S
N711 H714 0.984 . S
N711 H715 0.985 1_556 S
H712 N707 0.984 . S
H713 N707 0.985 1_554 S
H714 N711 0.984 . S
H715 N711 0.985 1_554 S
H716 N710 0.984 . S
H717 N710 0.984 . S
H718 N706 0.984 . S
H719 N706 0.985 . S
C720 C721 1.363 . S
C720 C726 1.379 . S
C720 N728 1.356 . S
C721 C720 1.363 . S
C721 C727 1.363 . S
C722 C723 1.363 . S
C722 C727 1.379 . S
C722 N729 1.356 . S
C723 C722 1.363 . S
C723 C726 1.363 . S
N724 C726 1.356 . S
N724 H736 0.984 . S
N724 H737 0.985 . S
N725 C727 1.356 . S
N725 H730 0.984 . S
N725 H731 0.985 . S
C726 C720 1.379 . S
C726 C723 1.363 . S
C726 N724 1.356 . S
C727 C721 1.363 . S
C727 C722 1.379 . S
C727 N725 1.356 . S
N728 C720 1.356 . S
N728 H734 0.984 . S
N728 H735 0.984 . S
N729 C722 1.356 . S
N729 H732 0.984 . S
N729 H733 0.985 1_556 S
H730 N725 0.984 . S
H731 N725 0.985 . S
H732 N729 0.984 . S
H733 N729 0.985 1_554 S
H734 N728 0.984 . S
H735 N728 0.984 . S
H736 N724 0.984 . S
H737 N724 0.985 . S
C738 C739 1.363 . S
C738 C744 1.379 . S
C738 N746 1.356 . S
C739 C738 1.363 . S
C739 C745 1.363 . S
C740 C741 1.363 . S
C740 C745 1.379 . S
C740 N747 1.356 . S
C741 C740 1.363 . S
C741 C744 1.363 . S
N742 C744 1.356 . S
N742 H754 0.984 1_556 S
N742 H755 0.985 . S
N743 C745 1.356 . S
N743 H748 0.984 . S
N743 H749 0.985 . S
C744 C738 1.379 . S
C744 C741 1.363 . S
C744 N742 1.356 . S
C745 C739 1.363 . S
C745 C740 1.379 . S
C745 N743 1.356 . S
N746 C738 1.356 . S
N746 H752 0.984 1_556 S
N746 H753 0.984 . S
N747 C740 1.356 . S
N747 H750 0.984 . S
N747 H751 0.985 . S
H748 N743 0.984 . S
H749 N743 0.985 . S
H750 N747 0.984 . S
H751 N747 0.985 . S
H752 N746 0.984 1_554 S
H753 N746 0.984 . S
H754 N742 0.984 1_554 S
H755 N742 0.985 . S
C756 C757 1.363 . S
C756 C762 1.379 . S
C756 N764 1.356 . S
C757 C756 1.363 . S
C757 C763 1.363 . S
C758 C759 1.363 . S
C758 C763 1.379 . S
C758 N765 1.356 . S
C759 C758 1.363 . S
C759 C762 1.363 . S
N760 C762 1.356 . S
N760 H772 0.984 . S
N760 H773 0.985 . S
N761 C763 1.356 . S
N761 H766 0.984 . S
N761 H767 0.985 . S
C762 C756 1.379 . S
C762 C759 1.363 . S
C762 N760 1.356 . S
C763 C757 1.363 . S
C763 C758 1.379 . S
C763 N761 1.356 . S
N764 C756 1.356 . S
N764 H770 0.984 . S
N764 H771 0.984 . S
N765 C758 1.356 . S
N765 H768 0.984 . S
N765 H769 0.985 . S
H766 N761 0.984 . S
H767 N761 0.985 . S
H768 N765 0.984 . S
H769 N765 0.985 . S
H770 N764 0.984 . S
H771 N764 0.984 . S
H772 N760 0.984 . S
H773 N760 0.985 . S
C774 C775 1.363 . S
C774 C780 1.379 . S
C774 N782 1.356 . S
C775 C774 1.363 . S
C775 C781 1.363 . S
C776 C777 1.363 . S
C776 C781 1.379 . S
C776 N783 1.356 . S
C777 C776 1.363 . S
C777 C780 1.363 . S
N778 C780 1.356 . S
N778 H790 0.984 1_556 S
N778 H791 0.985 . S
N779 C781 1.356 . S
N779 H784 0.984 . S
N779 H785 0.985 . S
C780 C774 1.379 . S
C780 C777 1.363 . S
C780 N778 1.356 . S
C781 C775 1.363 . S
C781 C776 1.379 . S
C781 N779 1.356 . S
N782 C774 1.356 . S
N782 H788 0.976 1_556 S
N782 H789 0.984 . S
N783 C776 1.356 . S
N783 H786 0.984 . S
N783 H787 0.985 . S
H784 N779 0.984 . S
H785 N779 0.985 . S
H786 N783 0.984 . S
H787 N783 0.985 . S
H788 N782 0.976 1_554 S
H789 N782 0.984 . S
H790 N778 0.984 1_554 S
H791 N778 0.985 . S
C792 C793 1.363 . S
C792 C798 1.379 . S
C792 N800 1.356 . S
C793 C792 1.363 . S
C793 C799 1.363 . S
C794 C795 1.363 . S
C794 C799 1.379 . S
C794 N801 1.356 . S
C795 C794 1.363 . S
C795 C798 1.363 . S
N796 C798 1.356 . S
N796 H808 0.984 . S
N796 H809 0.985 . S
N797 C799 1.356 . S
N797 H802 0.984 . S
N797 H803 0.985 1_556 S
C798 C792 1.379 . S
C798 C795 1.363 . S
C798 N796 1.356 . S
C799 C793 1.363 . S
C799 C794 1.379 . S
C799 N797 1.356 . S
N800 C792 1.356 . S
N800 H806 0.984 . S
N800 H807 0.984 . S
N801 C794 1.356 . S
N801 H804 0.984 . S
N801 H805 0.985 . S
H802 N797 0.984 . S
H803 N797 0.985 1_554 S
H804 N801 0.984 . S
H805 N801 0.985 . S
H806 N800 0.984 . S
H807 N800 0.984 . S
H808 N796 0.984 . S
H809 N796 0.985 . S
C810 C811 1.363 . S
C810 C816 1.379 . S
C810 N818 1.356 . S
C811 C810 1.363 . S
C811 C817 1.363 . S
C812 C813 1.363 . S
C812 C817 1.379 . S
C812 N819 1.356 . S
C813 C812 1.363 . S
C813 C816 1.363 . S
N814 C816 1.356 . S
N814 H826 0.984 . S
N814 H827 0.985 . S
N815 C817 1.356 . S
N815 H820 0.984 . S
N815 H821 0.985 . S
C816 C810 1.379 . S
C816 C813 1.363 . S
C816 N814 1.356 . S
C817 C811 1.363 . S
C817 C812 1.379 . S
C817 N815 1.356 . S
N818 C810 1.356 . S
N818 H824 0.984 . S
N818 H825 0.984 . S
N819 C812 1.356 . S
N819 H822 0.984 . S
N819 H823 0.985 . S
H820 N815 0.984 . S
H821 N815 0.985 . S
H822 N819 0.984 . S
H823 N819 0.985 . S
H824 N818 0.984 . S
H825 N818 0.984 . S
H826 N814 0.984 . S
H827 N814 0.985 . S
C828 C829 1.363 . S
C828 C834 1.379 . S
C828 N836 1.356 . S
C829 C828 1.363 . S
C829 C835 1.363 . S
C830 C831 1.363 . S
C830 C835 1.379 . S
C830 N837 1.356 . S
C831 C830 1.363 . S
C831 C834 1.363 . S
N832 C834 1.356 . S
N832 H844 0.984 . S
N832 H845 0.985 . S
N833 C835 1.356 . S
N833 H838 0.984 . S
N833 H839 0.985 1_554 S
C834 C828 1.379 . S
C834 C831 1.363 . S
C834 N832 1.356 . S
C835 C829 1.363 . S
C835 C830 1.379 . S
C835 N833 1.356 . S
N836 C828 1.356 . S
N836 H842 0.984 . S
N836 H843 0.984 . S
N837 C830 1.356 . S
N837 H840 0.984 . S
N837 H841 0.985 1_554 S
H838 N833 0.984 . S
H839 N833 0.985 1_556 S
H840 N837 0.984 . S
H841 N837 0.985 1_556 S
H842 N836 0.984 . S
H843 N836 0.984 . S
H844 N832 0.984 . S
H845 N832 0.985 . S
C846 C847 1.363 . S
C846 C852 1.379 . S
C846 N854 1.356 . S
C847 C846 1.363 . S
C847 C853 1.363 . S
C848 C849 1.363 . S
C848 C853 1.379 . S
C848 N855 1.356 . S
C849 C848 1.363 . S
C849 C852 1.363 . S
N850 C852 1.356 . S
N850 H862 0.984 . S
N850 H863 0.985 . S
N851 C853 1.356 . S
N851 H856 0.984 . S
N851 H857 0.985 . S
C852 C846 1.379 . S
C852 C849 1.363 . S
C852 N850 1.356 . S
C853 C847 1.363 . S
C853 C848 1.379 . S
C853 N851 1.356 . S
N854 C846 1.356 . S
N854 H860 0.984 . S
N854 H861 0.984 . S
N855 C848 1.356 . S
N855 H858 0.984 . S
N855 H859 0.985 . S
H856 N851 0.984 . S
H857 N851 0.985 . S
H858 N855 0.984 . S
H859 N855 0.985 . S
H860 N854 0.984 . S
H861 N854 0.984 . S
H862 N850 0.984 . S
H863 N850 0.985 . S
C864 C865 1.363 . S
C864 C870 1.379 . S
C864 N872 1.356 . S
C865 C864 1.363 . S
C865 C871 1.363 . S
C866 C867 1.363 . S
C866 C871 1.379 . S
C866 N873 1.356 . S
C867 C866 1.363 . S
C867 C870 1.363 . S
N868 C870 1.356 . S
N868 H880 0.984 . S
N868 H881 0.985 . S
N869 C871 1.356 . S
N869 H874 0.984 . S
N869 H875 0.985 . S
C870 C864 1.379 . S
C870 C867 1.363 . S
C870 N868 1.356 . S
C871 C865 1.363 . S
C871 C866 1.379 . S
C871 N869 1.356 . S
N872 C864 1.356 . S
N872 H878 0.984 . S
N872 H879 0.984 . S
N873 C866 1.356 . S
N873 H876 0.984 . S
N873 H877 0.985 . S
H874 N869 0.984 . S
H875 N869 0.985 . S
H876 N873 0.984 . S
H877 N873 0.985 . S
H878 N872 0.984 . S
H879 N872 0.984 . S
H880 N868 0.984 . S
H881 N868 0.985 . S
C882 C883 1.363 . S
C882 C888 1.379 . S
C882 N890 1.356 . S
C883 C882 1.363 . S
C883 C889 1.363 . S
C884 C885 1.363 . S
C884 C889 1.379 . S
C884 N891 1.356 . S
C885 C884 1.363 . S
C885 C888 1.363 . S
N886 C888 1.356 . S
N886 H898 0.984 . S
N886 H899 0.985 . S
N887 C889 1.356 . S
N887 H892 0.984 . S
N887 H893 0.985 1_554 S
C888 C882 1.379 . S
C888 C885 1.363 . S
C888 N886 1.356 . S
C889 C883 1.363 . S
C889 C884 1.379 . S
C889 N887 1.356 . S
N890 C882 1.356 . S
N890 H896 0.984 . S
N890 H897 0.984 . S
N891 C884 1.356 . S
N891 H894 0.984 . S
N891 H895 0.985 1_554 S
H892 N887 0.984 . S
H893 N887 0.985 1_556 S
H894 N891 0.984 . S
H895 N891 0.985 1_556 S
H896 N890 0.984 . S
H897 N890 0.984 . S
H898 N886 0.984 . S
H899 N886 0.985 . S
C900 C901 1.363 . S
C900 C906 1.379 . S
C900 N908 1.356 . S
C901 C900 1.363 . S
C901 C907 1.363 . S
C902 C903 1.363 . S
C902 C907 1.379 . S
C902 N909 1.356 . S
C903 C902 1.363 . S
C903 C906 1.363 . S
N904 C906 1.356 . S
N904 H916 0.984 1_554 S
N904 H917 0.985 . S
N905 C907 1.356 . S
N905 H910 0.984 . S
N905 H911 0.985 . S
C906 C900 1.379 . S
C906 C903 1.363 . S
C906 N904 1.356 . S
C907 C901 1.363 . S
C907 C902 1.379 . S
C907 N905 1.356 . S
N908 C900 1.356 . S
N908 H914 0.984 1_554 S
N908 H915 0.984 . S
N909 C902 1.356 . S
N909 H912 0.984 . S
N909 H913 0.985 . S
H910 N905 0.984 . S
H911 N905 0.985 . S
H912 N909 0.984 . S
H913 N909 0.985 . S
H914 N908 0.984 1_556 S
H915 N908 0.984 . S
H916 N904 0.984 1_556 S
H917 N904 0.985 . S
C918 C919 1.363 . S
C918 C924 1.379 . S
C918 N926 1.356 . S
C919 C918 1.363 . S
C919 C925 1.363 . S
C920 C921 1.363 . S
C920 C925 1.379 . S
C920 N927 1.356 . S
C921 C920 1.363 . S
C921 C924 1.363 . S
N922 C924 1.356 . S
N922 H934 0.984 . S
N922 H935 0.985 . S
N923 C925 1.356 . S
N923 H928 0.984 . S
N923 H929 0.985 . S
C924 C918 1.379 . S
C924 C921 1.363 . S
C924 N922 1.356 . S
C925 C919 1.363 . S
C925 C920 1.379 . S
C925 N923 1.356 . S
N926 C918 1.356 . S
N926 H932 0.984 . S
N926 H933 0.984 . S
N927 C920 1.356 . S
N927 H930 0.984 . S
N927 H931 0.985 . S
H928 N923 0.984 . S
H929 N923 0.985 . S
H930 N927 0.984 . S
H931 N927 0.985 . S
H932 N926 0.984 . S
H933 N926 0.984 . S
H934 N922 0.984 . S
H935 N922 0.985 . S
C936 C937 1.363 . S
C936 C942 1.379 . S
C936 N944 1.356 . S
C937 C936 1.363 . S
C937 C943 1.363 . S
C938 C939 1.363 . S
C938 C943 1.379 . S
C938 N945 1.356 . S
C939 C938 1.363 . S
C939 C942 1.363 . S
N940 C942 1.356 . S
N940 H952 0.984 . S
N940 H953 0.985 . S
N941 C943 1.356 . S
N941 H946 0.984 . S
N941 H947 0.985 . S
C942 C936 1.379 . S
C942 C939 1.363 . S
C942 N940 1.356 . S
C943 C937 1.363 . S
C943 C938 1.379 . S
C943 N941 1.356 . S
N944 C936 1.356 . S
N944 H950 0.984 . S
N944 H951 0.984 . S
N945 C938 1.356 . S
N945 H948 0.984 . S
N945 H949 0.985 . S
H946 N941 0.984 . S
H947 N941 0.985 . S
H948 N945 0.984 . S
H949 N945 0.985 . S
H950 N944 0.984 . S
H951 N944 0.984 . S
H952 N940 0.984 . S
H953 N940 0.985 . S
C954 C955 1.363 . S
C954 C960 1.379 . S
C954 N962 1.356 . S
C955 C954 1.363 . S
C955 C961 1.363 . S
C956 C957 1.363 . S
C956 C961 1.379 . S
C956 N963 1.356 . S
C957 C956 1.363 . S
C957 C960 1.363 . S
N958 C960 1.356 . S
N958 H970 0.984 . S
N958 H971 0.985 . S
N959 C961 1.356 . S
N959 H964 0.984 . S
N959 H965 0.985 . S
C960 C954 1.379 . S
C960 C957 1.363 . S
C960 N958 1.356 . S
C961 C955 1.363 . S
C961 C956 1.379 . S
C961 N959 1.356 . S
N962 C954 1.356 . S
N962 H968 0.984 . S
N962 H969 0.984 . S
N963 C956 1.356 . S
N963 H966 0.984 . S
N963 H967 0.985 . S
H964 N959 0.984 . S
H965 N959 0.985 . S
H966 N963 0.984 . S
H967 N963 0.985 . S
H968 N962 0.984 . S
H969 N962 0.984 . S
H970 N958 0.984 . S
H971 N958 0.985 . S
C972 C973 1.363 . S
C972 C978 1.379 . S
C972 N980 1.356 . S
C973 C972 1.363 . S
C973 C979 1.363 . S
C974 C975 1.363 . S
C974 C979 1.379 . S
C974 N981 1.356 . S
C975 C974 1.363 . S
C975 C978 1.363 . S
N976 C978 1.356 . S
N976 H988 0.984 . S
N976 H989 0.985 . S
N977 C979 1.356 . S
N977 H982 0.984 . S
N977 H983 0.985 . S
C978 C972 1.379 . S
C978 C975 1.363 . S
C978 N976 1.356 . S
C979 C973 1.363 . S
C979 C974 1.379 . S
C979 N977 1.356 . S
N980 C972 1.356 . S
N980 H986 0.984 . S
N980 H987 0.984 . S
N981 C974 1.356 . S
N981 H984 0.984 . S
N981 H985 0.985 . S
H982 N977 0.984 . S
H983 N977 0.985 . S
H984 N981 0.984 . S
H985 N981 0.985 . S
H986 N980 0.984 . S
H987 N980 0.984 . S
H988 N976 0.984 . S
H989 N976 0.985 . S
C990 C991 1.363 . S
C990 C996 1.379 . S
C990 N998 1.356 . S
C991 C990 1.363 . S
C991 C997 1.363 . S
C992 C993 1.363 . S
C992 C997 1.379 . S
C992 N999 1.356 . S
C993 C992 1.363 . S
C993 C996 1.363 . S
N994 C996 1.356 . S
N994 H1006 0.984 . S
N994 H1007 0.985 . S
N995 C997 1.356 . S
N995 H1000 0.984 . S
N995 H1001 0.985 . S
C996 C990 1.379 . S
C996 C993 1.363 . S
C996 N994 1.356 . S
C997 C991 1.363 . S
C997 C992 1.379 . S
C997 N995 1.356 . S
N998 C990 1.356 . S
N998 H1004 0.984 . S
N998 H1005 0.984 . S
N999 C992 1.356 . S
N999 H1002 0.984 . S
N999 H1003 0.985 . S
H1000 N995 0.984 . S
H1001 N995 0.985 . S
H1002 N999 0.984 . S
H1003 N999 0.985 . S
H1004 N998 0.984 . S
H1005 N998 0.984 . S
H1006 N994 0.984 . S
H1007 N994 0.985 . S
C1008 C1009 1.363 . S
C1008 C1014 1.379 . S
C1008 N1016 1.356 . S
C1009 C1008 1.363 . S
C1009 C1015 1.363 . S
C1010 C1011 1.363 . S
C1010 C1015 1.379 . S
C1010 N1017 1.356 . S
C1011 C1010 1.363 . S
C1011 C1014 1.363 . S
N1012 C1014 1.356 . S
N1012 H1024 0.984 . S
N1012 H1025 0.985 . S
N1013 C1015 1.356 . S
N1013 H1018 0.984 . S
N1013 H1019 0.985 . S
C1014 C1008 1.379 . S
C1014 C1011 1.363 . S
C1014 N1012 1.356 . S
C1015 C1009 1.363 . S
C1015 C1010 1.379 . S
C1015 N1013 1.356 . S
N1016 C1008 1.356 . S
N1016 H1022 0.984 . S
N1016 H1023 0.984 . S
N1017 C1010 1.356 . S
N1017 H1020 0.984 . S
N1017 H1021 0.985 . S
H1018 N1013 0.984 . S
H1019 N1013 0.985 . S
H1020 N1017 0.984 . S
H1021 N1017 0.985 . S
H1022 N1016 0.984 . S
H1023 N1016 0.984 . S
H1024 N1012 0.984 . S
H1025 N1012 0.985 . S
C1026 C1027 1.363 1_556 S
C1026 C1032 1.379 1_455 S
C1026 N1034 1.356 . S
C1027 C1026 1.363 1_554 S
C1027 C1033 1.363 . S
C1028 C1029 1.363 1_554 S
C1028 C1033 1.379 1_655 S
C1028 N1035 1.356 . S
C1029 C1028 1.363 1_556 S
C1029 C1032 1.363 . S
N1030 C1032 1.356 . S
N1030 H1042 0.984 . S
N1030 H1043 0.985 . S
N1031 C1033 1.356 . S
N1031 H1036 0.984 . S
N1031 H1037 0.985 . S
C1032 C1026 1.379 1_655 S
C1032 C1029 1.363 . S
C1032 N1030 1.356 . S
C1033 C1027 1.363 . S
C1033 C1028 1.379 1_455 S
C1033 N1031 1.356 . S
N1034 C1026 1.356 . S
N1034 H1040 0.984 . S
N1034 H1041 0.984 1_556 S
N1035 C1028 1.356 . S
N1035 H1038 0.984 1_554 S
N1035 H1039 0.985 . S
H1036 N1031 0.984 . S
H1037 N1031 0.985 . S
H1038 N1035 0.984 1_556 S
H1039 N1035 0.985 . S
H1040 N1034 0.984 . S
H1041 N1034 0.984 1_554 S
H1042 N1030 0.984 . S
H1043 N1030 0.985 . S
C1044 C1045 1.363 1_556 S
C1044 C1050 1.379 . S
C1044 N1052 1.356 . S
C1045 C1044 1.363 1_554 S
C1045 C1051 1.363 . S
C1046 C1047 1.363 1_554 S
C1046 C1051 1.379 . S
C1046 N1053 1.356 . S
C1047 C1046 1.363 1_556 S
C1047 C1050 1.363 . S
N1048 C1050 1.356 . S
N1048 H1060 0.984 . S
N1048 H1061 0.985 . S
N1049 C1051 1.356 . S
N1049 H1054 0.984 . S
N1049 H1055 0.985 . S
C1050 C1044 1.379 . S
C1050 C1047 1.363 . S
C1050 N1048 1.356 . S
C1051 C1045 1.363 . S
C1051 C1046 1.379 . S
C1051 N1049 1.356 . S
N1052 C1044 1.356 . S
N1052 H1058 0.984 . S
N1052 H1059 0.984 . S
N1053 C1046 1.356 . S
N1053 H1056 0.984 . S
N1053 H1057 0.985 . S
H1054 N1049 0.984 . S
H1055 N1049 0.985 . S
H1056 N1053 0.984 . S
H1057 N1053 0.985 . S
H1058 N1052 0.984 . S
H1059 N1052 0.984 . S
H1060 N1048 0.984 . S
H1061 N1048 0.985 . S
C1062 C1063 1.363 . S
C1062 C1068 1.379 1_545 S
C1062 N1070 1.356 . S
C1063 C1062 1.363 . S
C1063 C1069 1.363 1_556 S
C1064 C1065 1.363 . S
C1064 C1069 1.379 1_565 S
C1064 N1071 1.356 . S
C1065 C1064 1.363 . S
C1065 C1068 1.363 1_554 S
N1066 C1068 1.356 . S
N1066 H1078 0.984 . S
N1066 H1079 0.985 . S
N1067 C1069 1.356 . S
N1067 H1072 0.984 . S
N1067 H1073 0.985 . S
C1068 C1062 1.379 1_565 S
C1068 C1065 1.363 1_556 S
C1068 N1066 1.356 . S
C1069 C1063 1.363 1_554 S
C1069 C1064 1.379 1_545 S
C1069 N1067 1.356 . S
N1070 C1062 1.356 . S
N1070 H1076 0.984 . S
N1070 H1077 0.984 . S
N1071 C1064 1.356 . S
N1071 H1074 0.984 . S
N1071 H1075 0.985 . S
H1072 N1067 0.984 . S
H1073 N1067 0.985 . S
H1074 N1071 0.984 . S
H1075 N1071 0.985 . S
H1076 N1070 0.984 . S
H1077 N1070 0.984 . S
H1078 N1066 0.984 . S
H1079 N1066 0.985 . S
C1080 C1081 1.363 . S
C1080 C1086 1.379 . S
C1080 N1088 1.356 . S
C1081 C1080 1.363 . S
C1081 C1087 1.363 . S
C1082 C1083 1.363 1_556 S
C1082 C1087 1.379 . S
C1082 N1089 1.356 1_556 S
C1083 C1082 1.363 1_554 S
C1083 C1086 1.363 1_554 S
N1084 C1086 1.356 1_554 S
N1084 H1096 0.984 . S
N1084 H1097 0.985 . S
N1085 C1087 1.356 . S
N1085 H1090 0.984 . S
N1085 H1091 0.985 . S
C1086 C1080 1.379 . S
C1086 C1083 1.363 1_556 S
C1086 N1084 1.356 1_556 S
C1087 C1081 1.363 . S
C1087 C1082 1.379 . S
C1087 N1085 1.356 . S
N1088 C1080 1.356 . S
N1088 H1094 0.984 . S
N1088 H1095 0.984 . S
N1089 C1082 1.356 1_554 S
N1089 H1092 0.984 . S
N1089 H1093 0.985 . S
H1090 N1085 0.984 . S
H1091 N1085 0.985 . S
H1092 N1089 0.984 . S
H1093 N1089 0.985 . S
H1094 N1088 0.984 . S
H1095 N1088 0.984 . S
H1096 N1084 0.984 . S
H1097 N1084 0.985 . S
C1098 C1099 1.363 . S
C1098 C1104 1.379 1_556 S
C1098 N1106 1.356 . S
C1099 C1098 1.363 . S
C1099 C1105 1.363 . S
C1100 C1101 1.363 1_556 S
C1100 C1105 1.379 . S
C1100 N1107 1.356 1_556 S
C1101 C1100 1.363 1_554 S
C1101 C1104 1.363 . S
N1102 C1104 1.356 . S
N1102 H1114 0.984 . S
N1102 H1115 0.985 . S
N1103 C1105 1.356 . S
N1103 H1108 0.984 . S
N1103 H1109 0.985 . S
C1104 C1098 1.379 1_554 S
C1104 C1101 1.363 . S
C1104 N1102 1.356 . S
C1105 C1099 1.363 . S
C1105 C1100 1.379 . S
C1105 N1103 1.356 . S
N1106 C1098 1.356 . S
N1106 H1112 0.984 . S
N1106 H1113 0.984 . S
N1107 C1100 1.356 1_554 S
N1107 H1110 0.984 . S
N1107 H1111 0.985 . S
H1108 N1103 0.984 . S
H1109 N1103 0.985 . S
H1110 N1107 0.984 . S
H1111 N1107 0.985 . S
H1112 N1106 0.984 . S
H1113 N1106 0.984 . S
H1114 N1102 0.984 . S
H1115 N1102 0.985 . S
C1116 C1117 1.363 . S
C1116 C1122 1.379 . S
C1116 N1124 1.356 . S
C1117 C1116 1.363 . S
C1117 C1123 1.363 . S
C1118 C1119 1.363 . S
C1118 C1123 1.379 1_554 S
C1118 N1125 1.356 . S
C1119 C1118 1.363 . S
C1119 C1122 1.363 1_554 S
N1120 C1122 1.356 1_554 S
N1120 H1132 0.984 . S
N1120 H1133 0.985 . S
N1121 C1123 1.356 . S
N1121 H1126 0.984 . S
N1121 H1127 0.985 . S
C1122 C1116 1.379 . S
C1122 C1119 1.363 1_556 S
C1122 N1120 1.356 1_556 S
C1123 C1117 1.363 . S
C1123 C1118 1.379 1_556 S
C1123 N1121 1.356 . S
N1124 C1116 1.356 . S
N1124 H1130 0.984 . S
N1124 H1131 0.984 . S
N1125 C1118 1.356 . S
N1125 H1128 0.984 . S
N1125 H1129 0.985 . S
H1126 N1121 0.984 . S
H1127 N1121 0.985 . S
H1128 N1125 0.984 . S
H1129 N1125 0.985 . S
H1130 N1124 0.984 . S
H1131 N1124 0.984 . S
H1132 N1120 0.984 . S
H1133 N1120 0.985 . S
C1134 C1135 1.363 1_554 S
C1134 C1140 1.379 . S
C1134 N1142 1.356 1_554 S
C1135 C1134 1.363 1_556 S
C1135 C1141 1.363 1_556 S
C1136 C1137 1.363 . S
C1136 C1141 1.379 . S
C1136 N1143 1.356 . S
C1137 C1136 1.363 . S
C1137 C1140 1.363 . S
N1138 C1140 1.356 . S
N1138 H1150 0.984 . S
N1138 H1151 0.985 . S
N1139 C1141 1.356 1_556 S
N1139 H1144 0.984 . S
N1139 H1145 0.985 . S
C1140 C1134 1.379 . S
C1140 C1137 1.363 . S
C1140 N1138 1.356 . S
C1141 C1135 1.363 1_554 S
C1141 C1136 1.379 . S
C1141 N1139 1.356 1_554 S
N1142 C1134 1.356 1_556 S
N1142 H1148 0.984 . S
N1142 H1149 0.984 . S
N1143 C1136 1.356 . S
N1143 H1146 0.984 . S
N1143 H1147 0.985 . S
H1144 N1139 0.984 . S
H1145 N1139 0.985 . S
H1146 N1143 0.984 . S
H1147 N1143 0.985 . S
H1148 N1142 0.984 . S
H1149 N1142 0.984 . S
H1150 N1138 0.984 . S
H1151 N1138 0.985 . S
C1152 C1153 1.363 1_554 S
C1152 C1158 1.379 . S
C1152 N1160 1.356 1_554 S
C1153 C1152 1.363 1_556 S
C1153 C1159 1.363 . S
C1154 C1155 1.363 . S
C1154 C1159 1.379 1_554 S
C1154 N1161 1.356 . S
C1155 C1154 1.363 . S
C1155 C1158 1.363 . S
N1156 C1158 1.356 . S
N1156 H1168 0.984 . S
N1156 H1169 0.985 . S
N1157 C1159 1.356 . S
N1157 H1162 0.984 . S
N1157 H1163 0.985 . S
C1158 C1152 1.379 . S
C1158 C1155 1.363 . S
C1158 N1156 1.356 . S
C1159 C1153 1.363 . S
C1159 C1154 1.379 1_556 S
C1159 N1157 1.356 . S
N1160 C1152 1.356 1_556 S
N1160 H1166 0.984 . S
N1160 H1167 0.984 . S
N1161 C1154 1.356 . S
N1161 H1164 0.984 . S
N1161 H1165 0.985 . S
H1162 N1157 0.984 . S
H1163 N1157 0.985 . S
H1164 N1161 0.984 . S
H1165 N1161 0.985 . S
H1166 N1160 0.984 . S
H1167 N1160 0.984 . S
H1168 N1156 0.984 . S
H1169 N1156 0.985 . S
C1170 C1171 1.363 . S
C1170 C1176 1.379 . S
C1170 N1178 1.356 . S
C1171 C1170 1.363 . S
C1171 C1177 1.363 . S
C1172 C1173 1.363 1_554 S
C1172 C1177 1.379 . S
C1172 N1179 1.356 1_554 S
C1173 C1172 1.363 1_556 S
C1173 C1176 1.363 1_556 S
N1174 C1176 1.356 1_556 S
N1174 H1186 0.984 . S
N1174 H1187 0.985 . S
N1175 C1177 1.356 . S
N1175 H1180 0.984 . S
N1175 H1181 0.985 . S
C1176 C1170 1.379 . S
C1176 C1173 1.363 1_554 S
C1176 N1174 1.356 1_554 S
C1177 C1171 1.363 . S
C1177 C1172 1.379 . S
C1177 N1175 1.356 . S
N1178 C1170 1.356 . S
N1178 H1184 0.984 . S
N1178 H1185 0.984 . S
N1179 C1172 1.356 1_556 S
N1179 H1182 0.984 . S
N1179 H1183 0.985 . S
H1180 N1175 0.984 . S
H1181 N1175 0.985 . S
H1182 N1179 0.984 . S
H1183 N1179 0.985 . S
H1184 N1178 0.984 . S
H1185 N1178 0.984 . S
H1186 N1174 0.984 . S
H1187 N1174 0.985 . S
C1188 C1189 1.363 . S
C1188 C1194 1.379 . S
C1188 N1196 1.356 . S
C1189 C1188 1.363 . S
C1189 C1195 1.363 . S
C1190 C1191 1.363 . S
C1190 C1195 1.379 . S
C1190 N1197 1.356 . S
C1191 C1190 1.363 . S
C1191 C1194 1.363 . S
N1192 C1194 1.356 . S
N1192 H1204 0.984 . S
N1192 H1205 0.985 . S
N1193 C1195 1.356 . S
N1193 H1198 0.984 . S
N1193 H1199 0.985 . S
C1194 C1188 1.379 . S
C1194 C1191 1.363 . S
C1194 N1192 1.356 . S
C1195 C1189 1.363 . S
C1195 C1190 1.379 . S
C1195 N1193 1.356 . S
N1196 C1188 1.356 . S
N1196 H1202 0.984 . S
N1196 H1203 0.984 . S
N1197 C1190 1.356 . S
N1197 H1200 0.984 . S
N1197 H1201 0.985 . S
H1198 N1193 0.984 . S
H1199 N1193 0.985 . S
H1200 N1197 0.984 . S
H1201 N1197 0.985 . S
H1202 N1196 0.984 . S
H1203 N1196 0.984 . S
H1204 N1192 0.984 . S
H1205 N1192 0.985 . S
C1206 C1207 1.363 . S
C1206 C1212 1.379 . S
C1206 N1214 1.356 . S
C1207 C1206 1.363 . S
C1207 C1213 1.363 . S
C1208 C1209 1.363 . S
C1208 C1213 1.379 . S
C1208 N1215 1.356 . S
C1209 C1208 1.363 . S
C1209 C1212 1.363 . S
N1210 C1212 1.356 . S
N1210 H1222 0.984 . S
N1210 H1223 0.985 . S
N1211 C1213 1.356 . S
N1211 H1216 0.984 . S
N1211 H1217 0.985 . S
C1212 C1206 1.379 . S
C1212 C1209 1.363 . S
C1212 N1210 1.356 . S
C1213 C1207 1.363 . S
C1213 C1208 1.379 . S
C1213 N1211 1.356 . S
N1214 C1206 1.356 . S
N1214 H1220 0.984 . S
N1214 H1221 0.984 . S
N1215 C1208 1.356 . S
N1215 H1218 0.984 . S
N1215 H1219 0.985 . S
H1216 N1211 0.984 . S
H1217 N1211 0.985 . S
H1218 N1215 0.984 . S
H1219 N1215 0.985 . S
H1220 N1214 0.984 . S
H1221 N1214 0.984 . S
H1222 N1210 0.984 . S
H1223 N1210 0.985 . S
C1224 C1225 1.363 . S
C1224 C1230 1.379 . S
C1224 N1232 1.356 . S
C1225 C1224 1.363 . S
C1225 C1231 1.363 . S
C1226 C1227 1.363 . S
C1226 C1231 1.379 . S
C1226 N1233 1.356 . S
C1227 C1226 1.363 . S
C1227 C1230 1.363 . S
N1228 C1230 1.356 . S
N1228 H1240 0.984 . S
N1228 H1241 0.985 . S
N1229 C1231 1.356 . S
N1229 H1234 0.984 . S
N1229 H1235 0.985 . S
C1230 C1224 1.379 . S
C1230 C1227 1.363 . S
C1230 N1228 1.356 . S
C1231 C1225 1.363 . S
C1231 C1226 1.379 . S
C1231 N1229 1.356 . S
N1232 C1224 1.356 . S
N1232 H1238 0.984 . S
N1232 H1239 0.984 . S
N1233 C1226 1.356 . S
N1233 H1236 0.984 . S
N1233 H1237 0.985 . S
H1234 N1229 0.984 . S
H1235 N1229 0.985 . S
H1236 N1233 0.984 . S
H1237 N1233 0.985 . S
H1238 N1232 0.984 . S
H1239 N1232 0.984 . S
H1240 N1228 0.984 . S
H1241 N1228 0.985 . S
C1242 C1243 1.363 . S
C1242 C1248 1.379 . S
C1242 N1250 1.356 . S
C1243 C1242 1.363 . S
C1243 C1249 1.363 . S
C1244 C1245 1.363 . S
C1244 C1249 1.379 . S
C1244 N1251 1.356 . S
C1245 C1244 1.363 . S
C1245 C1248 1.363 . S
N1246 C1248 1.356 . S
N1246 H1258 0.984 . S
N1246 H1259 0.985 . S
N1247 C1249 1.356 . S
N1247 H1252 0.984 . S
N1247 H1253 0.985 . S
C1248 C1242 1.379 . S
C1248 C1245 1.363 . S
C1248 N1246 1.356 . S
C1249 C1243 1.363 . S
C1249 C1244 1.379 . S
C1249 N1247 1.356 . S
N1250 C1242 1.356 . S
N1250 H1256 0.984 . S
N1250 H1257 0.984 . S
N1251 C1244 1.356 . S
N1251 H1254 0.984 . S
N1251 H1255 0.985 . S
H1252 N1247 0.984 . S
H1253 N1247 0.985 . S
H1254 N1251 0.984 . S
H1255 N1251 0.985 . S
H1256 N1250 0.984 . S
H1257 N1250 0.984 . S
H1258 N1246 0.984 . S
H1259 N1246 0.985 . S
C1260 C1261 1.363 . S
C1260 C1266 1.379 . S
C1260 N1268 1.356 . S
C1261 C1260 1.363 . S
C1261 C1267 1.363 . S
C1262 C1263 1.363 . S
C1262 C1267 1.379 . S
C1262 N1269 1.356 . S
C1263 C1262 1.363 . S
C1263 C1266 1.363 . S
N1264 C1266 1.356 . S
N1264 H1276 0.984 . S
N1264 H1277 0.985 . S
N1265 C1267 1.356 . S
N1265 H1270 0.984 . S
N1265 H1271 0.985 . S
C1266 C1260 1.379 . S
C1266 C1263 1.363 . S
C1266 N1264 1.356 . S
C1267 C1261 1.363 . S
C1267 C1262 1.379 . S
C1267 N1265 1.356 . S
N1268 C1260 1.356 . S
N1268 H1274 0.984 . S
N1268 H1275 0.984 . S
N1269 C1262 1.356 . S
N1269 H1272 0.984 . S
N1269 H1273 0.985 . S
H1270 N1265 0.984 . S
H1271 N1265 0.985 . S
H1272 N1269 0.984 . S
H1273 N1269 0.985 . S
H1274 N1268 0.984 . S
H1275 N1268 0.984 . S
H1276 N1264 0.984 . S
H1277 N1264 0.985 . S
C1278 C1279 1.363 . S
C1278 C1284 1.379 . S
C1278 N1286 1.356 . S
C1279 C1278 1.363 . S
C1279 C1285 1.363 . S
C1280 C1281 1.363 . S
C1280 C1285 1.379 . S
C1280 N1287 1.356 . S
C1281 C1280 1.363 . S
C1281 C1284 1.363 . S
N1282 C1284 1.356 . S
N1282 H1294 0.984 . S
N1282 H1295 0.985 . S
N1283 C1285 1.356 . S
N1283 H1288 0.984 . S
N1283 H1289 0.985 . S
C1284 C1278 1.379 . S
C1284 C1281 1.363 . S
C1284 N1282 1.356 . S
C1285 C1279 1.363 . S
C1285 C1280 1.379 . S
C1285 N1283 1.356 . S
N1286 C1278 1.356 . S
N1286 H1292 0.984 . S
N1286 H1293 0.984 . S
N1287 C1280 1.356 . S
N1287 H1290 0.984 . S
N1287 H1291 0.985 . S
H1288 N1283 0.984 . S
H1289 N1283 0.985 . S
H1290 N1287 0.984 . S
H1291 N1287 0.985 . S
H1292 N1286 0.984 . S
H1293 N1286 0.984 . S
H1294 N1282 0.984 . S
H1295 N1282 0.985 . S
C1296 C1297 1.363 . S
C1296 C1302 1.379 . S
C1296 N1304 1.356 . S
C1297 C1296 1.363 . S
C1297 C1303 1.363 . S
C1298 C1299 1.363 . S
C1298 C1303 1.379 . S
C1298 N1305 1.356 . S
C1299 C1298 1.363 . S
C1299 C1302 1.363 . S
N1300 C1302 1.356 . S
N1300 H1312 0.984 . S
N1300 H1313 0.985 . S
N1301 C1303 1.356 . S
N1301 H1306 0.984 . S
N1301 H1307 0.985 . S
C1302 C1296 1.379 . S
C1302 C1299 1.363 . S
C1302 N1300 1.356 . S
C1303 C1297 1.363 . S
C1303 C1298 1.379 . S
C1303 N1301 1.356 . S
N1304 C1296 1.356 . S
N1304 H1310 0.984 . S
N1304 H1311 0.984 . S
N1305 C1298 1.356 . S
N1305 H1308 0.984 . S
N1305 H1309 0.985 . S
H1306 N1301 0.984 . S
H1307 N1301 0.985 . S
H1308 N1305 0.984 . S
H1309 N1305 0.985 . S
H1310 N1304 0.984 . S
H1311 N1304 0.984 . S
H1312 N1300 0.984 . S
H1313 N1300 0.985 . S
C1314 C1315 1.363 . S
C1314 C1320 1.379 . S
C1314 N1322 1.356 . S
C1315 C1314 1.363 . S
C1315 C1321 1.363 . S
C1316 C1317 1.363 . S
C1316 C1321 1.379 . S
C1316 N1323 1.356 . S
C1317 C1316 1.363 . S
C1317 C1320 1.363 . S
N1318 C1320 1.356 . S
N1318 H1330 0.984 . S
N1318 H1331 0.985 . S
N1319 C1321 1.356 . S
N1319 H1324 0.984 . S
N1319 H1325 0.985 . S
C1320 C1314 1.379 . S
C1320 C1317 1.363 . S
C1320 N1318 1.356 . S
C1321 C1315 1.363 . S
C1321 C1316 1.379 . S
C1321 N1319 1.356 . S
N1322 C1314 1.356 . S
N1322 H1328 0.984 . S
N1322 H1329 0.984 . S
N1323 C1316 1.356 . S
N1323 H1326 0.984 . S
N1323 H1327 0.985 . S
H1324 N1319 0.984 . S
H1325 N1319 0.985 . S
H1326 N1323 0.984 . S
H1327 N1323 0.985 . S
H1328 N1322 0.984 . S
H1329 N1322 0.984 . S
H1330 N1318 0.984 . S
H1331 N1318 0.985 . S
C1332 C1333 1.363 . S
C1332 C1338 1.379 . S
C1332 N1340 1.356 . S
C1333 C1332 1.363 . S
C1333 C1339 1.363 . S
C1334 C1335 1.363 . S
C1334 C1339 1.379 . S
C1334 N1341 1.356 . S
C1335 C1334 1.363 . S
C1335 C1338 1.363 . S
N1336 C1338 1.356 . S
N1336 H1348 0.984 . S
N1336 H1349 0.985 . S
N1337 C1339 1.356 . S
N1337 H1342 0.984 . S
N1337 H1343 0.985 . S
C1338 C1332 1.379 . S
C1338 C1335 1.363 . S
C1338 N1336 1.356 . S
C1339 C1333 1.363 . S
C1339 C1334 1.379 . S
C1339 N1337 1.356 . S
N1340 C1332 1.356 . S
N1340 H1346 0.984 . S
N1340 H1347 0.984 . S
N1341 C1334 1.356 . S
N1341 H1344 0.984 . S
N1341 H1345 0.985 . S
H1342 N1337 0.984 . S
H1343 N1337 0.985 . S
H1344 N1341 0.984 . S
H1345 N1341 0.985 . S
H1346 N1340 0.984 . S
H1347 N1340 0.984 . S
H1348 N1336 0.984 . S
H1349 N1336 0.985 . S
C1350 C1351 1.363 . S
C1350 C1356 1.379 . S
C1350 N1358 1.356 . S
C1351 C1350 1.363 . S
C1351 C1357 1.363 . S
C1352 C1353 1.363 . S
C1352 C1357 1.379 . S
C1352 N1359 1.356 . S
C1353 C1352 1.363 . S
C1353 C1356 1.363 . S
N1354 C1356 1.356 . S
N1354 H1366 0.984 . S
N1354 H1367 0.985 . S
N1355 C1357 1.356 . S
N1355 H1360 0.984 . S
N1355 H1361 0.985 . S
C1356 C1350 1.379 . S
C1356 C1353 1.363 . S
C1356 N1354 1.356 . S
C1357 C1351 1.363 . S
C1357 C1352 1.379 . S
C1357 N1355 1.356 . S
N1358 C1350 1.356 . S
N1358 H1364 0.984 . S
N1358 H1365 0.984 . S
N1359 C1352 1.356 . S
N1359 H1362 0.984 . S
N1359 H1363 0.985 . S
H1360 N1355 0.984 . S
H1361 N1355 0.985 . S
H1362 N1359 0.984 . S
H1363 N1359 0.985 . S
H1364 N1358 0.984 . S
H1365 N1358 0.984 . S
H1366 N1354 0.984 . S
H1367 N1354 0.985 . S
C1368 C1369 1.363 . S
C1368 C1374 1.379 . S
C1368 N1376 1.356 . S
C1369 C1368 1.363 . S
C1369 C1375 1.363 . S
C1370 C1371 1.363 . S
C1370 C1375 1.379 . S
C1370 N1377 1.356 . S
C1371 C1370 1.363 . S
C1371 C1374 1.363 . S
N1372 C1374 1.356 . S
N1372 H1384 0.984 . S
N1372 H1385 0.985 . S
N1373 C1375 1.356 . S
N1373 H1378 0.984 . S
N1373 H1379 0.985 . S
C1374 C1368 1.379 . S
C1374 C1371 1.363 . S
C1374 N1372 1.356 . S
C1375 C1369 1.363 . S
C1375 C1370 1.379 . S
C1375 N1373 1.356 . S
N1376 C1368 1.356 . S
N1376 H1382 0.984 . S
N1376 H1383 0.984 . S
N1377 C1370 1.356 . S
N1377 H1380 0.984 . S
N1377 H1381 0.985 . S
H1378 N1373 0.984 . S
H1379 N1373 0.985 . S
H1380 N1377 0.984 . S
H1381 N1377 0.985 . S
H1382 N1376 0.984 . S
H1383 N1376 0.984 . S
H1384 N1372 0.984 . S
H1385 N1372 0.985 . S
C1386 C1387 1.363 . S
C1386 C1392 1.379 . S
C1386 N1394 1.356 . S
C1387 C1386 1.363 . S
C1387 C1393 1.363 . S
C1388 C1389 1.363 . S
C1388 C1393 1.379 . S
C1388 N1395 1.356 . S
C1389 C1388 1.363 . S
C1389 C1392 1.363 . S
N1390 C1392 1.356 . S
N1390 H1402 0.984 . S
N1390 H1403 0.985 . S
N1391 C1393 1.356 . S
N1391 H1396 0.984 . S
N1391 H1397 0.985 . S
C1392 C1386 1.379 . S
C1392 C1389 1.363 . S
C1392 N1390 1.356 . S
C1393 C1387 1.363 . S
C1393 C1388 1.379 . S
C1393 N1391 1.356 . S
N1394 C1386 1.356 . S
N1394 H1400 0.984 . S
N1394 H1401 0.984 . S
N1395 C1388 1.356 . S
N1395 H1398 0.984 . S
N1395 H1399 0.985 . S
H1396 N1391 0.984 . S
H1397 N1391 0.985 . S
H1398 N1395 0.984 . S
H1399 N1395 0.985 . S
H1400 N1394 0.984 . S
H1401 N1394 0.984 . S
H1402 N1390 0.984 . S
H1403 N1390 0.985 . S
C595 C116 1.539 . S
C597 C17 1.539 . S
C613 C149 1.539 . S
C615 C50 1.539 . S
C631 C182 1.539 . S
C633 C83 1.539 . S
C649 C61 1.519 . S
C651 C193 1.519 . S
C667 C127 1.519 . S
C669 C94 1.519 . S
C685 C160 1.519 . S
C687 C28 1.519 . S
C703 C314 1.539 . S
C705 C215 1.539 . S
C721 C248 1.539 . S
C723 C347 1.539 . S
C739 C281 1.539 . S
C741 C380 1.539 . S
C757 C259 1.519 . S
C759 C391 1.519 . S
C775 C292 1.519 . S
C777 C325 1.519 . S
C793 C358 1.519 . S
C795 C226 1.519 . S
C811 C413 1.539 . S
C813 C512 1.539 . S
C829 C545 1.539 . S
C831 C446 1.539 . S
C847 C479 1.539 . S
C849 C578 1.539 . S
C865 C457 1.519 . S
C867 C589 1.519 . S
C883 C523 1.519 . S
C885 C490 1.519 . S
C901 C424 1.519 . S
C903 C556 1.519 . S
C919 C8 1.468 . S
C921 C569 1.468 . S
C937 C503 1.468 . S
C939 C41 1.468 . S
C955 C536 1.468 . S
C957 C74 1.468 . S
C973 C239 1.468 . S
C975 C107 1.468 . S
C991 C272 1.468 . S
C993 C140 1.468 . S
C1009 C206 1.468 . S
C1011 C173 1.468 . S
C1027 C437 1.468 . S
C1029 C305 1.468 . S
C1045 C470 1.468 . S
C1047 C338 1.468 . S
C1063 C371 1.468 . S
C1065 C404 1.468 . S
C1081 N5 1.454 . S
C1083 N14 1.451 . S
C1099 N38 1.454 . S
C1101 N47 1.451 . S
C1117 N71 1.454 . S
C1119 N80 1.451 . S
C1135 N113 1.451 . S
C1137 N104 1.454 . S
C1153 N146 1.451 . S
C1155 N137 1.454 . S
C1171 N170 1.454 . S
C1173 N179 1.451 . S
C1189 N203 1.454 . S
C1191 N212 1.451 . S
C1207 N245 1.451 . S
C1209 N236 1.454 . S
C1225 N278 1.451 . S
C1227 N269 1.454 . S
C1243 N302 1.454 . S
C1245 N311 1.451 . S
C1261 N335 1.454 . S
C1263 N344 1.451 . S
C1279 N368 1.454 . S
C1281 N377 1.451 . S
C1297 N401 1.454 . S
C1299 N410 1.451 . S
C1315 N434 1.454 . S
C1317 N443 1.451 . S
C1333 N476 1.451 . S
C1335 N467 1.454 . S
C1351 N500 1.454 . S
C1353 N509 1.451 . S
C1369 N542 1.451 . S
C1371 N533 1.454 . S
C1387 N575 1.451 . S
C1389 N566 1.454 . S
