# Generated by pormake.
# Topology wgu, (5)-cn, num edge types: 1
# Building blocks:
#     Node 0, Type 0, BuildingBlock: XOMCOT_clean_sbu_1, # of connection points: 5
#     Node 1, Type 0, BuildingBlock: XOMCOT_clean_sbu_1, # of connection points: 5
#     Node 2, Type 0, BuildingBlock: XOMCOT_clean_sbu_1, # of connection points: 5
#     Node 3, Type 0, BuildingBlock: XOMCOT_clean_sbu_1, # of connection points: 5
#     Node 4, Type 0, BuildingBlock: XOMCOT_clean_sbu_1, # of connection points: 5
#     Node 5, Type 0, BuildingBlock: XOMCOT_clean_sbu_1, # of connection points: 5
#     Node 6, Type 0, BuildingBlock: XOMCOT_clean_sbu_1, # of connection points: 5
#     Node 7, Type 0, BuildingBlock: XOMCOT_clean_sbu_1, # of connection points: 5
#     Edge 8, Type (0, 0), BuildingBlock: ZUJKAS_clean_linker_0, # of connection points: 2
#     Edge 9, Type (0, 0), BuildingBlock: ZUJKAS_clean_linker_0, # of connection points: 2
#     Edge 10, Type (0, 0), BuildingBlock: ZUJKAS_clean_linker_0, # of connection points: 2
#     Edge 11, Type (0, 0), BuildingBlock: ZUJKAS_clean_linker_0, # of connection points: 2
#     Edge 12, Type (0, 0), BuildingBlock: ZUJKAS_clean_linker_0, # of connection points: 2
#     Edge 13, Type (0, 0), BuildingBlock: ZUJKAS_clean_linker_0, # of connection points: 2
#     Edge 14, Type (0, 0), BuildingBlock: ZUJKAS_clean_linker_0, # of connection points: 2
#     Edge 15, Type (0, 0), BuildingBlock: ZUJKAS_clean_linker_0, # of connection points: 2
#     Edge 16, Type (0, 0), BuildingBlock: ZUJKAS_clean_linker_0, # of connection points: 2
#     Edge 17, Type (0, 0), BuildingBlock: ZUJKAS_clean_linker_0, # of connection points: 2
#     Edge 18, Type (0, 0), BuildingBlock: ZUJKAS_clean_linker_0, # of connection points: 2
#     Edge 19, Type (0, 0), BuildingBlock: ZUJKAS_clean_linker_0, # of connection points: 2
#     Edge 20, Type (0, 0), BuildingBlock: ZUJKAS_clean_linker_0, # of connection points: 2
#     Edge 21, Type (0, 0), BuildingBlock: ZUJKAS_clean_linker_0, # of connection points: 2
#     Edge 22, Type (0, 0), BuildingBlock: ZUJKAS_clean_linker_0, # of connection points: 2
#     Edge 23, Type (0, 0), BuildingBlock: ZUJKAS_clean_linker_0, # of connection points: 2
#     Edge 24, Type (0, 0), BuildingBlock: ZUJKAS_clean_linker_0, # of connection points: 2
#     Edge 25, Type (0, 0), BuildingBlock: ZUJKAS_clean_linker_0, # of connection points: 2
#     Edge 26, Type (0, 0), BuildingBlock: ZUJKAS_clean_linker_0, # of connection points: 2
#     Edge 27, Type (0, 0), BuildingBlock: ZUJKAS_clean_linker_0, # of connection points: 2
# Relax obj value: 0.197
# Max RMSD: 0.182
# Mean RMSD: 0.170
data_MOF--net-wgu--node1-XOMCOT_clean_sbu_1--edge1-ZUJKAS_clean_linker_0
_symmetry_space_group_name_H-M    P1
_symmetry_Int_Tables_number       1
_symmetry_cell_setting            triclinic
loop_
_symmetry_equiv_pos_as_xyz
'x, y, z'
_cell_length_a     41.689046
_cell_length_b     41.276386
_cell_length_c     36.950223
_cell_angle_alpha  94.727196
_cell_angle_beta   92.460453
_cell_angle_gamma 89.964418
loop_
_atom_site_label
_atom_site_type_symbol
_atom_site_fract_x
_atom_site_fract_y
_atom_site_fract_z
_atom_type_partial_charge
C0 C 0.25576 0.39643 0.14441 0.0
C1 C 0.24372 0.42735 0.14309 0.0
N2 N 0.25921 0.44211 0.11771 0.0
N3 N 0.27895 0.39178 0.12018 0.0
C4 C 0.28049 0.42006 0.10433 0.0
H5 H 0.2474 0.37829 0.16129 0.0
Co6 Co 0.30165 0.35359 0.10898 0.0
C7 C 0.36993 0.37707 0.10009 0.0
O8 O 0.37948 0.3496 0.08356 0.0
N9 N 0.32388 0.31458 0.09818 0.0
C10 C 0.35361 0.27074 0.10567 0.0
C11 C 0.3486 0.30262 0.11774 0.0
C12 C 0.31376 0.2892 0.07503 0.0
N13 N 0.33144 0.26216 0.07898 0.0
O14 O 0.30715 0.34752 0.15973 0.0
H15 H 0.36126 0.31584 0.14051 0.0
H16 H 0.29216 0.28977 0.05781 0.0
O17 O 0.34098 0.3802 0.11004 0.0
C18 C 0.28718 0.32523 0.16535 0.0
O19 O 0.26825 0.31335 0.13809 0.0
N20 N 0.29256 0.35718 0.05965 0.0
C21 C 0.26963 0.34453 0.98815 0.0
C22 C 0.30202 0.35275 0.99594 0.0
C23 C 0.31308 0.35922 0.03212 0.0
C24 C 0.26073 0.35121 0.0523 0.0
C25 C 0.24868 0.34511 0.01679 0.0
H26 H 0.33822 0.36379 0.0376 0.0
H27 H 0.24493 0.34889 0.07442 0.0
H28 H 0.29658 0.42416 0.08292 0.0
H29 H 0.22417 0.43768 0.15855 0.0
H30 H 0.37136 0.2548 0.11689 0.0
H31 H 0.31888 0.35264 0.97443 0.0
H32 H 0.22366 0.33834 0.01212 0.0
C33 C 0.58422 0.31593 0.44923 0.0
C34 C 0.55444 0.30188 0.44861 0.0
N35 N 0.55522 0.27853 0.47204 0.0
N36 N 0.60397 0.30173 0.47299 0.0
C37 C 0.58561 0.279 0.48672 0.0
H38 H 0.59118 0.33533 0.43322 0.0
Co39 Co 0.6469 0.31421 0.47932 0.0
C40 C 0.66794 0.30299 0.55354 0.0
O41 O 0.6799 0.33258 0.55563 0.0
N42 N 0.69101 0.32649 0.48405 0.0
C43 C 0.7389 0.35064 0.48475 0.0
C44 C 0.70621 0.35523 0.48224 0.0
C45 C 0.71531 0.30494 0.48761 0.0
N46 N 0.74462 0.31891 0.48804 0.0
O47 O 0.65907 0.27571 0.45085 0.0
H48 H 0.69492 0.37832 0.47898 0.0
H49 H 0.71147 0.27918 0.48916 0.0
O50 O 0.65229 0.29196 0.52451 0.0
C51 C 0.65817 0.28176 0.41758 0.0
O52 O 0.6488 0.31078 0.40938 0.0
N53 N 0.63315 0.3535 0.50361 0.0
C54 C 0.60145 0.41173 0.52362 0.0
C55 C 0.60085 0.38551 0.54556 0.0
C56 C 0.61627 0.35632 0.53466 0.0
C57 C 0.63321 0.37847 0.48171 0.0
C58 C 0.61839 0.40795 0.49158 0.0
H59 H 0.61286 0.33555 0.55004 0.0
H60 H 0.64355 0.37491 0.45534 0.0
H61 H 0.59444 0.26277 0.50641 0.0
H62 H 0.53365 0.30863 0.43236 0.0
H63 H 0.757 0.36936 0.48427 0.0
H64 H 0.587 0.38682 0.56977 0.0
H65 H 0.61934 0.42724 0.47349 0.0
C66 C 0.68854 0.59398 0.99605 0.0
C67 C 0.70334 0.56551 0.98486 0.0
N68 N 0.73529 0.57008 0.98893 0.0
N69 N 0.71092 0.61642 0.00795 0.0
C70 C 0.7393 0.60132 1.00239 0.0
H71 H 0.66293 0.5981 0.99511 0.0
Co72 Co 0.70088 0.65958 0.02193 0.0
C73 C 0.75122 0.64738 0.08345 0.0
O74 O 0.755 0.61591 0.07677 0.0
N75 N 0.69036 0.70255 0.03481 0.0
C76 C 0.68022 0.74917 0.06658 0.0
C77 C 0.68372 0.71617 0.06811 0.0
C78 C 0.69047 0.72753 0.01351 0.0
N79 N 0.68475 0.75624 0.03222 0.0
O80 O 0.7336 0.67383 0.99132 0.0
H81 H 0.68273 0.7031 0.09224 0.0
H82 H 0.69542 0.72486 0.98494 0.0
O83 O 0.73154 0.66282 0.06376 0.0
C84 C 0.72675 0.66962 0.95728 0.0
O85 O 0.6992 0.65582 0.94644 0.0
N86 N 0.66744 0.64544 0.0498 0.0
C87 C 0.61432 0.61495 0.07606 0.0
C88 C 0.64531 0.61041 0.09115 0.0
C89 C 0.67156 0.62574 0.07755 0.0
C90 C 0.63733 0.65169 0.03623 0.0
C91 C 0.6104 0.63679 0.04903 0.0
H92 H 0.69515 0.61989 0.08784 0.0
H93 H 0.63439 0.66674 0.0137 0.0
H94 H 0.76241 0.61313 0.00749 0.0
H95 H 0.69143 0.54298 0.97508 0.0
H96 H 0.67633 0.76674 0.08936 0.0
H97 H 0.64945 0.59406 0.11233 0.0
H98 H 0.58703 0.64079 0.03626 0.0
C99 C 0.38841 0.80941 0.55513 0.0
C100 C 0.41732 0.82514 0.55449 0.0
N101 N 0.44101 0.80319 0.55795 0.0
N102 N 0.39371 0.77768 0.55884 0.0
C103 C 0.42592 0.77453 0.56066 0.0
H104 H 0.3649 0.82021 0.55219 0.0
Co105 Co 0.36082 0.74798 0.55854 0.0
C106 C 0.38889 0.68288 0.54245 0.0
O107 O 0.36399 0.67579 0.52016 0.0
N108 N 0.32627 0.71881 0.55932 0.0
C109 C 0.29394 0.68142 0.57852 0.0
C110 C 0.32428 0.69467 0.58176 0.0
C111 C 0.29658 0.72013 0.54342 0.0
N112 N 0.27658 0.69756 0.55431 0.0
O113 O 0.36226 0.75211 0.6106 0.0
H114 H 0.3434 0.68789 0.60036 0.0
H115 H 0.28873 0.73868 0.52623 0.0
O116 O 0.39142 0.71137 0.55896 0.0
C117 C 0.34254 0.77336 0.62306 0.0
O118 O 0.32508 0.78907 0.59978 0.0
N119 N 0.35846 0.74698 0.50723 0.0
C120 C 0.35186 0.7566 0.4331 0.0
C121 C 0.37737 0.73818 0.44656 0.0
C122 C 0.38072 0.73434 0.48387 0.0
C123 C 0.33497 0.76673 0.49488 0.0
C124 C 0.33067 0.77117 0.45801 0.0
H125 H 0.4019 0.72232 0.49381 0.0
H126 H 0.3198 0.77984 0.51403 0.0
H127 H 0.43799 0.75167 0.56364 0.0
H128 H 0.42046 0.85061 0.55057 0.0
H129 H 0.28511 0.66216 0.59364 0.0
H130 H 0.39524 0.72777 0.42864 0.0
H131 H 0.3109 0.78609 0.44925 0.0
C132 C 0.72126 0.13788 0.95514 0.0
C133 C 0.70632 0.10845 0.95692 0.0
N134 N 0.72901 0.0852 0.9568 0.0
N135 N 0.75317 0.13321 0.95389 0.0
C136 C 0.75724 0.10085 0.95483 0.0
H137 H 0.70969 0.16135 0.95546 0.0
Co138 Co 0.78194 0.16707 0.95388 0.0
C139 C 0.84654 0.13942 0.96538 0.0
O140 O 0.85364 0.1651 0.98774 0.0
N141 N 0.81021 0.20257 0.95277 0.0
C142 C 0.84631 0.23558 0.93221 0.0
C143 C 0.83393 0.20457 0.9292 0.0
C144 C 0.80818 0.23298 0.96907 0.0
N145 N 0.82987 0.25349 0.95718 0.0
O146 O 0.77702 0.16541 0.90196 0.0
H147 H 0.84083 0.18503 0.90977 0.0
H148 H 0.79023 0.24063 0.98803 0.0
O149 O 0.81837 0.1366 0.95015 0.0
C150 C 0.75597 0.18554 0.89182 0.0
O151 O 0.74188 0.20418 0.91695 0.0
N152 N 0.78361 0.16944 0.00525 0.0
C153 C 0.7738 0.17421 0.08003 0.0
C154 C 0.79225 0.14891 0.06402 0.0
C155 C 0.79624 0.1465 0.02647 0.0
C156 C 0.76403 0.19289 0.02012 0.0
C157 C 0.75937 0.1962 0.0574 0.0
H158 H 0.80822 0.12531 0.01464 0.0
H159 H 0.75078 0.20838 1.00264 0.0
H160 H 0.78044 0.0891 0.95544 0.0
H161 H 0.68076 0.10453 0.95837 0.0
H162 H 0.86448 0.24473 0.9156 0.0
H163 H 0.80304 0.13074 0.08019 0.0
H164 H 0.74347 0.21506 0.06811 0.0
C165 C 0.88637 0.72689 0.51592 0.0
C166 C 0.91516 0.71069 0.51591 0.0
N167 N 0.93875 0.73255 0.51326 0.0
N168 N 0.89182 0.75878 0.51349 0.0
C169 C 0.92394 0.76154 0.51173 0.0
H170 H 0.86289 0.71619 0.51777 0.0
Co171 Co 0.85959 0.78928 0.51338 0.0
C172 C 0.89134 0.85314 0.5336 0.0
O173 O 0.86826 0.86088 0.55587 0.0
N174 N 0.82587 0.8194 0.51216 0.0
C175 C 0.79386 0.85912 0.49499 0.0
C176 C 0.82397 0.84562 0.49253 0.0
C177 C 0.79633 0.81697 0.52523 0.0
N178 N 0.77653 0.84097 0.51571 0.0
O179 O 0.85919 0.78673 0.46128 0.0
H180 H 0.84293 0.85378 0.47634 0.0
H181 H 0.78844 0.79675 0.53921 0.0
O182 O 0.89121 0.82512 0.51588 0.0
C183 C 0.83849 0.76605 0.44747 0.0
O184 O 0.82128 0.75065 0.46965 0.0
N185 N 0.85855 0.78847 0.56452 0.0
C186 C 0.85036 0.77789 0.63748 0.0
C187 C 0.87664 0.79596 0.62747 0.0
C188 C 0.88068 0.80045 0.59065 0.0
C189 C 0.83486 0.76835 0.57367 0.0
C190 C 0.82979 0.76342 0.60982 0.0
H191 H 0.90197 0.81281 0.5834 0.0
H192 H 0.81995 0.75554 0.55249 0.0
H193 H 0.93633 0.78436 0.51011 0.0
H194 H 0.91845 0.68482 0.51746 0.0
H195 H 0.78522 0.88005 0.48173 0.0
H196 H 0.8939 0.80651 0.64783 0.0
H197 H 0.81028 0.74772 0.61597 0.0
C198 C 0.20535 0.91136 0.08209 0.0
C199 C 0.22036 0.94089 0.08197 0.0
N200 N 0.22929 0.94443 0.04794 0.0
N201 N 0.20507 0.89611 0.04842 0.0
C202 C 0.21965 0.91699 0.02797 0.0
H203 H 0.19501 0.90168 0.10528 0.0
Co204 Co 0.1869 0.85533 0.03813 0.0
C205 C 0.20362 0.8319 0.9641 0.0
O206 O 0.17387 0.82142 0.95898 0.0
N207 N 0.1685 0.81326 0.02931 0.0
C208 C 0.13724 0.76916 0.0246 0.0
C209 C 0.13771 0.80264 0.02705 0.0
C210 C 0.18606 0.78563 0.02791 0.0
N211 N 0.16775 0.7586 0.02556 0.0
O212 O 0.2206 0.83746 0.0676 0.0
H213 H 0.11666 0.81777 0.02837 0.0
H214 H 0.21203 0.78532 0.02937 0.0
O215 O 0.21242 0.84728 0.99446 0.0
C216 C 0.21101 0.83183 0.09879 0.0
O217 O 0.18091 0.83815 0.10594 0.0
N218 N 0.15273 0.87469 0.01289 0.0
C219 C 0.09923 0.90905 0.98872 0.0
C220 C 0.12653 0.90556 0.96779 0.0
C221 C 0.15331 0.8887 0.98063 0.0
C222 C 0.12714 0.87956 0.03436 0.0
C223 C 0.09993 0.89595 0.02255 0.0
H224 H 0.17464 0.88805 0.96511 0.0
H225 H 0.12802 0.87066 0.06112 0.0
H226 H 0.2233 0.91221 0.9992 0.0
H227 H 0.22378 0.95877 0.10494 0.0
H228 H 0.11611 0.75388 0.02419 0.0
H229 H 0.12737 0.9161 0.94195 0.0
H230 H 0.08 0.89923 0.04035 0.0
C231 C 0.11574 0.22002 0.56595 0.0
C232 C 0.08539 0.23278 0.56507 0.0
N233 N 0.06681 0.21403 0.54099 0.0
N234 N 0.11651 0.19303 0.54289 0.0
C235 C 0.08634 0.18994 0.52792 0.0
H236 H 0.13618 0.22986 0.58227 0.0
Co237 Co 0.15427 0.16972 0.53442 0.0
C238 C 0.13139 0.10221 0.53905 0.0
O239 O 0.15489 0.09827 0.56317 0.0
N240 N 0.1935 0.14811 0.52464 0.0
C241 C 0.23349 0.116 0.5054 0.0
C242 C 0.20102 0.11776 0.51098 0.0
C243 C 0.22157 0.16461 0.52472 0.0
N244 N 0.24638 0.14562 0.51412 0.0
O245 O 0.15141 0.17869 0.4847 0.0
H246 H 0.18415 0.09835 0.50338 0.0
H247 H 0.22366 0.19044 0.53213 0.0
O248 O 0.12894 0.12914 0.52417 0.0
C249 C 0.16232 0.20725 0.48229 0.0
O250 O 0.16997 0.22518 0.51248 0.0
N251 N 0.15855 0.16383 0.58481 0.0
C252 C 0.16401 0.16983 0.66064 0.0
C253 C 0.13557 0.15805 0.64268 0.0
C254 C 0.1333 0.15524 0.60463 0.0
C255 C 0.18615 0.17547 0.60229 0.0
C256 C 0.18966 0.17791 0.63992 0.0
H257 H 0.11061 0.14796 0.59116 0.0
H258 H 0.2049 0.18544 0.58761 0.0
H259 H 0.07915 0.17097 0.5072 0.0
H260 H 0.07766 0.25421 0.58119 0.0
H261 H 0.24631 0.09492 0.49425 0.0
H262 H 0.11494 0.15233 0.65785 0.0
H263 H 0.2115 0.18856 0.65271 0.0
H264 H 0.21641 0.97325 0.98567 0.0
H265 H 0.23729 0.02618 0.97073 0.0
H266 H 0.29678 0.03223 0.0695 0.0
H267 H 0.27605 0.97985 0.0843 0.0
H268 H 0.22985 0.08397 0.01758 0.0
H269 H 0.35795 0.0606 0.99339 0.0
H270 H 0.32806 0.02863 0.98958 0.0
H271 H 0.34539 0.04315 0.03339 0.0
C272 C 0.23457 0.98562 0.00355 0.0
C273 C 0.24463 0.97267 0.03616 0.0
C274 C 0.24636 0.01579 0.99512 0.0
C275 C 0.26888 0.03291 0.01879 0.0
C276 C 0.2799 0.01919 0.0505 0.0
H277 H 0.34621 0.2053 0.1076 0.0
H278 H 0.33136 0.15083 0.08271 0.0
C279 C 0.26787 0.98942 0.05911 0.0
C280 C 0.27836 0.0667 0.01335 0.0
H281 H 0.34455 0.11554 0.01637 0.0
C282 C 0.25481 0.09098 0.01619 0.0
C283 C 0.31091 0.07567 0.01144 0.0
C284 C 0.33699 0.05058 0.0064 0.0
C285 C 0.26327 0.12407 0.02064 0.0
C286 C 0.29611 0.13293 0.02166 0.0
C287 C 0.3194 0.10869 0.01583 0.0
C288 C 0.30703 0.16632 0.03423 0.0
C289 C 0.23725 0.14906 0.02712 0.0
C290 C 0.2988 0.19322 0.01487 0.0
C291 C 0.30739 0.2247 0.02911 0.0
C292 C 0.3245 0.22973 0.06282 0.0
C293 C 0.33349 0.20252 0.08141 0.0
C294 C 0.32488 0.17124 0.06725 0.0
H295 H 0.21349 0.13773 0.03039 0.0
H296 H 0.2434 0.1654 0.05184 0.0
H297 H 0.23511 0.16419 0.00368 0.0
H298 H 0.28545 0.18991 0.98903 0.0
H299 H 0.3005 0.24507 0.01385 0.0
H300 H 0.03541 0.27164 0.54608 0.0
H301 H 0.97841 0.28093 0.53439 0.0
H302 H 0.96459 0.17928 0.50082 0.0
H303 H 0.02202 0.16937 0.51349 0.0
H304 H 0.93432 0.23223 0.45346 0.0
H305 H 0.90617 0.24267 0.59961 0.0
H306 H 0.94154 0.26394 0.58819 0.0
H307 H 0.9404 0.22034 0.58244 0.0
C308 C 0.0204 0.25106 0.53658 0.0
C309 C 0.03338 0.2196 0.53135 0.0
C310 C 0.98777 0.25652 0.52968 0.0
C311 C 0.96729 0.23076 0.51718 0.0
C312 C 0.98009 0.19946 0.51062 0.0
H313 H 0.75902 0.26289 0.51908 0.0
H314 H 0.81161 0.23669 0.52344 0.0
C315 C 0.01291 0.19388 0.51773 0.0
C316 C 0.93248 0.23706 0.51175 0.0
H317 H 0.86676 0.26213 0.55839 0.0
C318 C 0.91934 0.23829 0.47632 0.0
C319 C 0.91299 0.24467 0.54163 0.0
C320 C 0.92579 0.24265 0.58019 0.0
C321 C 0.8875 0.24845 0.47004 0.0
C322 C 0.86858 0.25797 0.50003 0.0
C323 C 0.88131 0.2551 0.53541 0.0
C324 C 0.83625 0.27271 0.49547 0.0
C325 C 0.87455 0.24922 0.43138 0.0
C326 C 0.83263 0.30181 0.4786 0.0
C327 C 0.80263 0.31679 0.47598 0.0
C328 C 0.77552 0.30311 0.49038 0.0
C329 C 0.77922 0.27389 0.50726 0.0
C330 C 0.80931 0.25894 0.50992 0.0
H331 H 0.88776 0.23219 0.41253 0.0
H332 H 0.84862 0.24288 0.42891 0.0
H333 H 0.87751 0.27409 0.42264 0.0
H334 H 0.85318 0.3133 0.46796 0.0
H335 H 0.8007 0.33905 0.46252 0.0
H336 H 0.76568 0.03525 0.9302 0.0
H337 H 0.75736 0.97727 0.93672 0.0
H338 H 0.67356 1.0002 0.99833 0.0
H339 H 0.68159 0.05789 0.99174 0.0
H340 H 0.75675 0.94613 0.99888 0.0
H341 H 0.63921 0.92998 0.9239 0.0
H342 H 0.66414 0.96537 0.92122 0.0
H343 H 0.63888 0.96254 0.95916 0.0
C344 C 0.74548 0.02787 0.94507 0.0
C345 C 0.72413 0.05109 0.96019 0.0
C346 C 0.74067 0.99479 0.94862 0.0
C347 C 0.71444 0.98442 0.96732 0.0
C348 C 0.69336 0.00759 0.98281 0.0
H349 H 0.6534 0.81057 0.05658 0.0
H350 H 0.6609 0.8656 0.03792 0.0
C351 C 0.69803 0.04057 0.97909 0.0
C352 C 0.70996 0.94956 0.97243 0.0
H353 H 0.6549 0.8879 0.96205 0.0
C354 C 0.73467 0.93325 0.9904 0.0
C355 C 0.68111 0.93285 0.96127 0.0
C356 C 0.65446 0.94849 0.93999 0.0
C357 C 0.73083 0.90099 0.99873 0.0
C358 C 0.70163 0.88469 0.98857 0.0
C359 C 0.67717 0.90068 0.96993 0.0
C360 C 0.69582 0.85126 0.99807 0.0
C361 C 0.75758 0.88483 0.01931 0.0
C362 C 0.71255 0.82512 0.98126 0.0
C363 C 0.70831 0.79376 0.99182 0.0
C364 C 0.68729 0.78809 0.01944 0.0
C365 C 0.66998 0.8143 0.03555 0.0
C366 C 0.6741 0.84563 0.02481 0.0
H367 H 0.77651 0.90239 0.03014 0.0
H368 H 0.74797 0.87264 0.04228 0.0
H369 H 0.76882 0.86593 1.00088 0.0
H370 H 0.72926 0.82908 0.96039 0.0
H371 H 0.72229 0.77419 0.97917 0.0
H372 H 0.98367 0.7658 0.48047 0.0
H373 H 0.04159 0.75586 0.48178 0.0
H374 H 0.0286 0.67575 0.54773 0.0
H375 H 0.9708 0.68545 0.54636 0.0
H376 H 0.08255 0.75844 0.54139 0.0
H377 H 0.08477 0.63528 0.46924 0.0
H378 H 0.04968 0.66093 0.46849 0.0
H379 H 0.05892 0.63802 0.50696 0.0
C380 C 0.99318 0.74606 0.49519 0.0
C381 C 0.9727 0.72633 0.51321 0.0
C382 C 0.0262 0.74029 0.49574 0.0
C383 C 0.03927 0.71469 0.51429 0.0
C384 C 0.0189 0.69503 0.53238 0.0
H385 H 0.23042 0.67757 0.5971 0.0
H386 H 0.17232 0.6794 0.58467 0.0
C387 C 0.98589 0.70066 0.53166 0.0
C388 C 0.07442 0.70984 0.5167 0.0
H389 H 0.13343 0.65352 0.50133 0.0
C390 C 0.09369 0.73561 0.53232 0.0
C391 C 0.08885 0.68003 0.50473 0.0
C392 C 0.06953 0.65209 0.48609 0.0
C393 C 0.12697 0.73206 0.53713 0.0
C394 C 0.14118 0.70202 0.52613 0.0
C395 C 0.12217 0.6764 0.50995 0.0
C396 C 0.17595 0.69712 0.53156 0.0
C397 C 0.14688 0.76021 0.5543 0.0
C398 C 0.19687 0.70581 0.50534 0.0
C399 C 0.23 0.70469 0.51226 0.0
C400 C 0.24266 0.69495 0.54557 0.0
C401 C 0.22148 0.68491 0.5711 0.0
C402 C 0.18833 0.68605 0.56414 0.0
H403 H 0.13209 0.78203 0.56145 0.0
H404 H 0.15973 0.753 0.57932 0.0
H405 H 0.16529 0.76676 0.5353 0.0
H406 H 0.18754 0.71437 0.48003 0.0
H407 H 0.24572 0.71206 0.49184 0.0
H408 H 0.73236 0.51901 0.93856 0.0
H409 H 0.76686 0.47135 0.93664 0.0
H410 H 0.82797 0.51744 0.02308 0.0
H411 H 0.79249 0.56502 0.02605 0.0
H412 H 0.83068 0.45748 0.92751 0.0
H413 H 0.79527 0.43756 0.06786 0.0
H414 H 0.77613 0.46785 0.04195 0.0
H415 H 0.81593 0.47476 0.06167 0.0
C416 C 0.75329 0.51915 0.95696 0.0
C417 C 0.7593 0.54538 0.98304 0.0
C418 C 0.77318 0.49202 0.95562 0.0
C419 C 0.79959 0.49056 0.98025 0.0
C420 C 0.80732 0.51783 0.00431 0.0
H421 H 0.88226 0.29221 0.95533 0.0
H422 H 0.8839 0.35179 0.96504 0.0
C423 C 0.78724 0.5451 0.00576 0.0
C424 C 0.81614 0.459 0.98278 0.0
H425 H 0.8193 0.39435 0.03477 0.0
C426 C 0.82901 0.44384 0.95123 0.0
C427 C 0.81374 0.44131 0.01381 0.0
C428 C 0.79939 0.45597 0.04824 0.0
C429 C 0.83713 0.41074 0.94885 0.0
C430 C 0.83283 0.39262 0.97915 0.0
C431 C 0.82251 0.40843 0.01164 0.0
C432 C 0.83345 0.35663 0.97586 0.0
C433 C 0.8477 0.39487 0.91307 0.0
C434 C 0.80483 0.33967 0.97975 0.0
C435 C 0.80387 0.30588 0.97442 0.0
C436 C 0.83156 0.28823 0.96508 0.0
C437 C 0.86047 0.30521 0.96206 0.0
C438 C 0.86145 0.33918 0.96758 0.0
H439 H 0.84568 0.41151 0.89094 0.0
H440 H 0.87314 0.38726 0.91607 0.0
H441 H 0.83306 0.3728 0.90485 0.0
H442 H 0.78289 0.3527 0.98593 0.0
H443 H 0.78109 0.29376 0.97638 0.0
H444 H 0.48777 0.75855 0.54301 0.0
H445 H 0.54495 0.76898 0.53925 0.0
H446 H 0.52898 0.87153 0.56379 0.0
H447 H 0.4721 0.86124 0.5698 0.0
H448 H 0.57394 0.80436 0.49276 0.0
H449 H 0.60279 0.85594 0.63368 0.0
H450 H 0.56531 0.83552 0.62063 0.0
H451 H 0.57107 0.87724 0.61149 0.0
C452 C 0.49634 0.78326 0.54843 0.0
C453 C 0.47506 0.80902 0.5568 0.0
C454 C 0.5291 0.78921 0.54595 0.0
C455 C 0.54127 0.82098 0.55168 0.0
C456 C 0.52022 0.84673 0.56002 0.0
H457 H 0.72985 0.86992 0.47597 0.0
H458 H 0.67218 0.86913 0.48535 0.0
C459 C 0.48753 0.8408 0.56291 0.0
C460 C 0.57578 0.82723 0.54734 0.0
H461 H 0.64321 0.86061 0.59091 0.0
C462 C 0.58914 0.81659 0.51424 0.0
C463 C 0.59554 0.84299 0.57553 0.0
C464 C 0.58305 0.85329 0.61245 0.0
C465 C 0.6218 0.82108 0.50855 0.0
C466 C 0.64139 0.8376 0.53638 0.0
C467 C 0.62801 0.84838 0.56945 0.0
C468 C 0.67633 0.84167 0.53277 0.0
C469 C 0.63516 0.80704 0.4733 0.0
C470 C 0.69783 0.8282 0.55754 0.0
C471 C 0.73077 0.82927 0.55277 0.0
C472 C 0.7429 0.84358 0.5229 0.0
C473 C 0.72138 0.85861 0.49917 0.0
C474 C 0.68836 0.85782 0.50422 0.0
H475 H 0.61898 0.78825 0.4591 0.0
H476 H 0.63787 0.82674 0.45496 0.0
H477 H 0.65909 0.79595 0.47804 0.0
H478 H 0.68908 0.81596 0.58003 0.0
H479 H 0.74668 0.81829 0.57215 0.0
H480 H 0.23818 0.49477 0.15809 0.0
H481 H 0.22338 0.54751 0.1368 0.0
H482 H 0.24937 0.51383 0.02838 0.0
H483 H 0.2646 0.46109 0.0497 0.0
H484 H 0.27063 0.57531 0.04746 0.0
H485 H 0.14229 0.56542 0.07776 0.0
H486 H 0.16831 0.56086 0.11693 0.0
H487 H 0.16938 0.53133 0.07831 0.0
C488 C 0.24063 0.49859 0.12971 0.0
C489 C 0.2523 0.47372 0.10552 0.0
C490 C 0.23207 0.52867 0.11754 0.0
C491 C 0.23453 0.53432 0.08082 0.0
C492 C 0.24707 0.50989 0.05679 0.0
H493 H 0.13946 0.70313 0.99568 0.0
H494 H 0.1566 0.64731 0.00433 0.0
C495 C 0.2559 0.47984 0.06903 0.0
C496 C 0.22415 0.56582 0.06768 0.0
H497 H 0.16082 0.61818 0.06595 0.0
C498 C 0.24654 0.58458 0.05117 0.0
C499 C 0.1925 0.57758 0.07179 0.0
C500 C 0.16664 0.55759 0.0868 0.0
C501 C 0.23849 0.61537 0.03999 0.0
C502 C 0.20746 0.628 0.04629 0.0
C503 C 0.18472 0.60868 0.06149 0.0
C504 C 0.19836 0.66163 0.03878 0.0
C505 C 0.26329 0.63393 0.02141 0.0
C506 C 0.21603 0.68817 0.05535 0.0
C507 C 0.20642 0.71992 0.05024 0.0
C508 C 0.17862 0.72582 0.02889 0.0
C509 C 0.16091 0.69925 0.01231 0.0
C510 C 0.17073 0.66743 0.01717 0.0
H511 H 0.28088 0.61726 0.00789 0.0
H512 H 0.25196 0.64892 1.00078 0.0
H513 H 0.27678 0.65031 0.04201 0.0
H514 H 0.2368 0.68437 0.07311 0.0
H515 H 0.22013 0.73984 0.0641 0.0
H516 H 0.29921 0.10815 0.52253 0.0
H517 H 0.35545 0.12514 0.52134 0.0
H518 H 0.32496 0.22177 0.49968 0.0
H519 H 0.26889 0.20503 0.50113 0.0
H520 H 0.38901 0.14787 0.46831 0.0
H521 H 0.38833 0.24146 0.58421 0.0
H522 H 0.35615 0.21237 0.57459 0.0
H523 H 0.35748 0.2485 0.55046 0.0
C524 C 0.30451 0.13298 0.51741 0.0
C525 C 0.27953 0.1553 0.51227 0.0
C526 C 0.33667 0.14272 0.51692 0.0
C527 C 0.34452 0.17496 0.5113 0.0
C528 C 0.3196 0.19706 0.50528 0.0
H529 H 0.50718 0.25782 0.42448 0.0
H530 H 0.45881 0.22867 0.43728 0.0
C531 C 0.28749 0.18741 0.506 0.0
C532 C 0.37867 0.18531 0.51028 0.0
H533 H 0.43191 0.24436 0.54392 0.0
C534 C 0.3985 0.1687 0.48521 0.0
C535 C 0.39144 0.21202 0.53288 0.0
C536 C 0.37233 0.22938 0.56233 0.0
C537 C 0.43005 0.17917 0.48072 0.0
C538 C 0.44192 0.20743 0.5013 0.0
C539 C 0.42275 0.22293 0.52781 0.0
C540 C 0.4728 0.22296 0.49347 0.0
C541 C 0.45024 0.15999 0.45366 0.0
C542 C 0.49683 0.22996 0.52091 0.0
C543 C 0.52462 0.24711 0.51369 0.0
C544 C 0.52856 0.25795 0.47905 0.0
C545 C 0.50475 0.2502 0.45156 0.0
C546 C 0.47719 0.23311 0.45872 0.0
H547 H 0.4427 0.13407 0.45015 0.0
H548 H 0.44708 0.1701 0.42683 0.0
H549 H 0.47612 0.16121 0.46216 0.0
H550 H 0.49384 0.2226 0.54804 0.0
H551 H 0.54239 0.25294 0.53547 0.0
H552 H 0.55161 0.6333 0.08644 0.0
H553 H 0.50633 0.5984 0.09863 0.0
H554 H 0.5697 0.51579 0.0984 0.0
H555 H 0.61477 0.55025 0.0864 0.0
H556 H 0.48173 0.54619 0.057 0.0
H557 H 0.52316 0.50675 0.19042 0.0
H558 H 0.5412 0.54056 0.17072 0.0
H559 H 0.55303 0.49949 0.15724 0.0
C560 C 0.55591 0.60774 0.0893 0.0
C561 C 0.58694 0.59468 0.08587 0.0
C562 C 0.53003 0.58786 0.09636 0.0
C563 C 0.5347 0.55458 0.10022 0.0
C564 C 0.56563 0.54155 0.09674 0.0
H565 H 0.43451 0.37617 0.09168 0.0
H566 H 0.47143 0.42228 0.09502 0.0
C567 C 0.59144 0.56135 0.08985 0.0
C568 C 0.50715 0.53282 0.1055 0.0
H569 H 0.48315 0.47277 0.15681 0.0
C570 C 0.48169 0.5306 0.07923 0.0
C571 C 0.507 0.51255 0.13461 0.0
C572 C 0.53241 0.51519 0.16504 0.0
C573 C 0.45713 0.50738 0.08015 0.0
C574 C 0.45799 0.486 0.10816 0.0
C575 C 0.48266 0.48911 0.13526 0.0
C576 C 0.43521 0.45841 0.10792 0.0
C577 C 0.43128 0.50471 0.0502 0.0
C578 C 0.40261 0.46342 0.11465 0.0
C579 C 0.38133 0.43698 0.11298 0.0
C580 C 0.39235 0.40515 0.10429 0.0
C581 C 0.42515 0.40033 0.09823 0.0
C582 C 0.44635 0.42665 0.1002 0.0
H583 H 0.43606 0.52067 0.02824 0.0
H584 H 0.42914 0.47919 0.03819 0.0
H585 H 0.40785 0.5117 0.06165 0.0
H586 H 0.39362 0.48777 0.12096 0.0
H587 H 0.35622 0.44154 0.11777 0.0
H588 H 0.59316 0.44513 0.59032 0.0
H589 H 0.56141 0.49458 0.60329 0.0
H590 H 0.53512 0.4956 0.48928 0.0
H591 H 0.56604 0.44628 0.47618 0.0
H592 H 0.55668 0.55712 0.52407 0.0
H593 H 0.46145 0.49928 0.59841 0.0
H594 H 0.50247 0.49345 0.61366 0.0
H595 H 0.48849 0.47575 0.56986 0.0
C596 C 0.58044 0.45579 0.56807 0.0
C597 C 0.58243 0.44181 0.53216 0.0
C598 C 0.56238 0.48407 0.57552 0.0
C599 C 0.54589 0.49873 0.54722 0.0
C600 C 0.54786 0.48485 0.51148 0.0
H601 H 0.38663 0.61945 0.51593 0.0
H602 H 0.42714 0.57765 0.52262 0.0
C603 C 0.56575 0.45668 0.50404 0.0
C604 C 0.52608 0.5283 0.55427 0.0
H605 H 0.45458 0.55423 0.58787 0.0
C606 C 0.5346 0.55674 0.53854 0.0
C607 C 0.49722 0.52758 0.57294 0.0
C608 C 0.48657 0.4974 0.58958 0.0
C609 C 0.51446 0.5841 0.53986 0.0
C610 C 0.48515 0.58304 0.55762 0.0
C611 C 0.47719 0.55502 0.57449 0.0
C612 C 0.46068 0.60901 0.55511 0.0
C613 C 0.5238 0.61329 0.52056 0.0
C614 C 0.46598 0.64064 0.57142 0.0
C615 C 0.44269 0.66485 0.56763 0.0
C616 C 0.4138 0.65775 0.54741 0.0
C617 C 0.40861 0.62592 0.53153 0.0
C618 C 0.43172 0.60187 0.53544 0.0
H619 H 0.5451 0.60848 0.50389 0.0
H620 H 0.50353 0.62078 0.50265 0.0
H621 H 0.52956 0.63395 0.54095 0.0
H622 H 0.48808 0.64657 0.58704 0.0
H623 H 0.44738 0.68908 0.5803 0.0
H624 H 0.03589 0.89355 0.99332 0.0
H625 H 0.98918 0.92728 0.98051 0.0
H626 H 0.05135 1.00094 0.94534 0.0
H627 H 0.09818 0.96728 0.95799 0.0
H628 H 0.97858 0.98648 0.01488 0.0
H629 H 0.97998 0.99717 0.86654 0.0
H630 H 0.00265 0.96658 0.88875 0.0
H631 H 0.01783 0.00745 0.88959 0.0
C632 C 0.03958 0.91678 0.98244 0.0
C633 C 0.07076 0.92779 0.97679 0.0
C634 C 0.01286 0.93596 0.97499 0.0
C635 C 0.01669 0.96649 0.96158 0.0
C636 C 0.0477 0.97714 0.95482 0.0
H637 H 0.90745 0.13895 0.99483 0.0
H638 H 0.94613 0.09471 0.99128 0.0
C639 C 0.07449 0.95789 0.96216 0.0
C640 C 0.98872 0.98855 0.95842 0.0
H641 H 0.94822 0.03651 0.90076 0.0
C642 C 0.97169 0.99702 0.98976 0.0
C643 C 0.9795 0.00212 0.92559 0.0
C644 C 0.99574 0.99263 0.89061 0.0
C645 C 0.94665 0.0197 0.98958 0.0
C646 C 0.93863 0.03461 0.95732 0.0
C647 C 0.95463 0.02518 0.92552 0.0
C648 C 0.91534 0.0617 0.95718 0.0
C649 C 0.92929 0.02803 0.02412 0.0
C650 C 0.88541 0.05804 0.93837 0.0
C651 C 0.86299 0.08342 0.94037 0.0
C652 C 0.87037 0.11286 0.96104 0.0
C653 C 0.9008 0.11659 0.97887 0.0
C654 C 0.923 0.09131 0.97694 0.0
H655 H 0.93267 0.00901 0.04354 0.0
H656 H 0.93887 0.05129 0.03751 0.0
H657 H 0.90318 0.03114 0.01818 0.0
H658 H 0.87915 0.03533 0.92286 0.0
H659 H 0.8398 0.07981 0.92626 0.0
H660 H 0.90553 0.90817 0.57716 0.0
H661 H 0.94601 0.94922 0.56923 0.0
H662 H 0.97515 0.89485 0.47144 0.0
H663 H 0.93518 0.85281 0.48 0.0
H664 H 0.02603 0.91691 0.51003 0.0
H665 H 0.94189 0.01938 0.50136 0.0
H666 H 0.93724 1.00053 0.54279 0.0
H667 H 0.92828 0.97779 0.49976 0.0
C668 C 0.92047 0.90489 0.55388 0.0
C669 C 0.91691 0.8773 0.52904 0.0
C670 C 0.94347 0.92862 0.54918 0.0
C671 C 0.96305 0.92578 0.5191 0.0
C672 C 0.96009 0.89786 0.49464 0.0
H673 H 0.08211 0.09733 0.4865 0.0
H674 H 0.0421 0.05351 0.47553 0.0
C675 C 0.93727 0.8738 0.49959 0.0
C676 C 0.98733 0.95144 0.51425 0.0
H677 H 0.99726 0.03382 0.51665 0.0
C678 C 0.01963 0.94243 0.51095 0.0
C679 C 0.9791 0.9848 0.51441 0.0
C680 C 0.94468 0.99613 0.51434 0.0
C681 C 0.04399 0.96585 0.50991 0.0
C682 C 0.03604 0.99933 0.51345 0.0
C683 C 0.00357 0.00826 0.51461 0.0
C684 C 0.06106 0.02534 0.5185 0.0
C685 C 0.078 0.95431 0.50505 0.0
C686 C 0.08476 0.02445 0.54652 0.0
C687 C 0.10773 0.04912 0.5525 0.0
C688 C 0.10728 0.07579 0.5311 0.0
C689 C 0.08327 0.07704 0.50331 0.0
C690 C 0.06038 0.05201 0.49706 0.0
H691 H 0.07847 0.93015 0.4894 0.0
H692 H 0.09217 0.9717 0.49077 0.0
H693 H 0.08981 0.95161 0.53212 0.0
H694 H 0.08522 0.0049 0.56436 0.0
H695 H 0.12551 0.04749 0.57452 0.0
H696 H 0.28947 0.35839 0.23297 0.0
H697 H 0.27119 0.33744 0.2891 0.0
H698 H 0.25856 0.24217 0.23286 0.0
H699 H 0.27602 0.26304 0.17707 0.0
H700 H 0.20386 0.26541 0.26428 0.0
H701 H 0.30812 0.27724 0.36331 0.0
H702 H 0.29819 0.31357 0.34165 0.0
H703 H 0.31227 0.27847 0.31499 0.0
C704 C 0.28377 0.3328 0.23311 0.0
C705 C 0.28398 0.31229 0.2009 0.0
C706 C 0.27331 0.32084 0.26506 0.0
C707 C 0.2635 0.28822 0.26508 0.0
C708 C 0.26587 0.2674 0.23341 0.0
H709 H 0.16924 0.17179 0.41676 0.0
H710 H 0.19261 0.191 0.36243 0.0
C711 C 0.27592 0.27934 0.20162 0.0
C712 C 0.24745 0.27633 0.29646 0.0
H713 H 0.25798 0.26344 0.38619 0.0
C714 C 0.21575 0.26481 0.29091 0.0
C715 C 0.263 0.27566 0.33111 0.0
C716 C 0.29737 0.28662 0.33821 0.0
C717 C 0.19902 0.25298 0.31922 0.0
C718 C 0.21453 0.25237 0.35386 0.0
C719 C 0.24621 0.2639 0.35948 0.0
C720 C 0.19801 0.24088 0.38507 0.0
C721 C 0.16466 0.24193 0.3121 0.0
C722 C 0.19298 0.26262 0.41539 0.0
C723 C 0.17968 0.25179 0.44618 0.0
C724 C 0.17126 0.21891 0.44737 0.0
C725 C 0.17517 0.19731 0.41646 0.0
C726 C 0.18859 0.20823 0.38551 0.0
H727 H 0.1542 0.25024 0.2863 0.0
H728 H 0.16374 0.21498 0.31013 0.0
H729 H 0.14955 0.25111 0.33474 0.0
H730 H 0.19997 0.28792 0.4155 0.0
H731 H 0.17689 0.26909 0.46952 0.0
H732 H 0.7793 0.15133 0.83118 0.0
H733 H 0.76412 0.15822 0.76719 0.0
H734 H 0.6977 0.23371 0.80121 0.0
H735 H 0.71214 0.22672 0.86449 0.0
H736 H 0.67202 0.19041 0.74571 0.0
H737 H 0.79256 0.23574 0.71357 0.0
H738 H 0.79091 0.19642 0.73103 0.0
H739 H 0.78131 0.23206 0.75965 0.0
C740 C 0.76141 0.16931 0.82492 0.0
C741 C 0.74711 0.18861 0.85296 0.0
C742 C 0.75282 0.17327 0.78838 0.0
C743 C 0.72994 0.19668 0.77941 0.0
C744 C 0.71532 0.21544 0.80743 0.0
H745 H 0.69283 0.3235 0.6205 0.0
H746 H 0.70727 0.29121 0.67073 0.0
C747 C 0.72378 0.21149 0.8437 0.0
C748 C 0.72167 0.20314 0.74116 0.0
H749 H 0.75107 0.23894 0.66934 0.0
C750 C 0.68939 0.20043 0.72862 0.0
C751 C 0.74438 0.21632 0.71903 0.0
C752 C 0.77921 0.22059 0.73139 0.0
C753 C 0.67888 0.21225 0.69552 0.0
C754 C 0.70135 0.22678 0.67424 0.0
C755 C 0.73393 0.22769 0.68573 0.0
C756 C 0.69117 0.24551 0.64312 0.0
C757 C 0.64356 0.2111 0.68473 0.0
C758 C 0.67683 0.23059 0.61083 0.0
C759 C 0.66827 0.2492 0.58174 0.0
C760 C 0.67415 0.28291 0.58456 0.0
C761 C 0.68805 0.29761 0.6172 0.0
C762 C 0.69644 0.27915 0.64603 0.0
H763 H 0.62881 0.20258 0.70644 0.0
H764 H 0.63503 0.23553 0.67825 0.0
H765 H 0.6396 0.19427 0.65994 0.0
H766 H 0.6728 0.20457 0.6079 0.0
H767 H 0.6578 0.23715 0.55687 0.0
H768 H 0.86916 0.79239 0.39182 0.0
H769 H 0.85891 0.77967 0.32603 0.0
H770 H 0.78617 0.71055 0.34786 0.0
H771 H 0.79586 0.72312 0.4128 0.0
H772 H 0.86252 0.71909 0.28368 0.0
H773 H 0.73913 0.76827 0.27805 0.0
H774 H 0.76706 0.77807 0.3161 0.0
H775 H 0.74481 0.74049 0.31264 0.0
C776 C 0.85091 0.7746 0.3825 0.0
C777 C 0.83319 0.75897 0.40762 0.0
C778 C 0.84511 0.76734 0.34496 0.0
C779 C 0.82135 0.74459 0.33205 0.0
C780 C 0.8041 0.72871 0.35713 0.0
H781 H 0.78577 0.6206 0.13819 0.0
H782 H 0.80607 0.64774 0.1958 0.0
C783 C 0.80984 0.73586 0.39438 0.0
C784 C 0.81458 0.73653 0.29251 0.0
H785 H 0.75281 0.73001 0.2286 0.0
C786 C 0.83869 0.72194 0.27141 0.0
C787 C 0.78363 0.74072 0.27631 0.0
C788 C 0.75727 0.75806 0.29685 0.0
C789 C 0.83216 0.70979 0.23512 0.0
C790 C 0.80054 0.71179 0.21981 0.0
C791 C 0.77695 0.72804 0.24035 0.0
C792 C 0.79081 0.69588 0.18335 0.0
C793 C 0.85916 0.69476 0.21368 0.0
C794 C 0.775 0.71371 0.15717 0.0
C795 C 0.76297 0.69814 0.12429 0.0
C796 C 0.76637 0.66434 0.11691 0.0
C797 C 0.78287 0.64667 0.14281 0.0
C798 C 0.79475 0.66223 0.17574 0.0
H799 H 0.88281 0.70479 0.22417 0.0
H800 H 0.85954 0.66818 0.21633 0.0
H801 H 0.85608 0.69885 0.18441 0.0
H802 H 0.77149 0.73965 0.16245 0.0
H803 H 0.75051 0.71256 0.10495 0.0
H804 H 0.26848 0.84566 0.96389 0.0
H805 H 0.30426 0.83482 0.91302 0.0
H806 H 0.22432 0.79541 0.84551 0.0
H807 H 0.18897 0.80541 0.89569 0.0
H808 H 0.27783 0.75668 0.84056 0.0
H809 H 0.30796 0.88568 0.82275 0.0
H810 H 0.31655 0.87163 0.86691 0.0
H811 H 0.27564 0.87472 0.85035 0.0
C812 C 0.25861 0.83476 0.93814 0.0
C813 C 0.22584 0.82647 0.9339 0.0
C814 C 0.27904 0.82867 0.90909 0.0
C815 C 0.26692 0.81447 0.87535 0.0
C816 C 0.23428 0.80625 0.87127 0.0
H817 H 0.30023 0.81546 0.65518 0.0
H818 H 0.28909 0.82429 0.71923 0.0
C819 C 0.21403 0.81213 0.9001 0.0
C820 C 0.28748 0.80806 0.84366 0.0
H821 H 0.32593 0.8461 0.77918 0.0
C822 C 0.28888 0.77612 0.8274 0.0
C823 C 0.30177 0.83351 0.82655 0.0
C824 C 0.30036 0.86838 0.84225 0.0
C825 C 0.30239 0.76919 0.79345 0.0
C826 C 0.31558 0.79483 0.77563 0.0
C827 C 0.31591 0.82647 0.79294 0.0
C828 C 0.32474 0.79027 0.73708 0.0
C829 C 0.3004 0.73487 0.77588 0.0
C830 C 0.34889 0.76843 0.72563 0.0
C831 C 0.35519 0.76301 0.68859 0.0
C832 C 0.33761 0.7796 0.66254 0.0
C833 C 0.3142 0.80214 0.67438 0.0
C834 C 0.30785 0.80736 0.71113 0.0
H835 H 0.28444 0.71924 0.79039 0.0
H836 H 0.29137 0.7347 0.74715 0.0
H837 H 0.32472 0.72393 0.77613 0.0
H838 H 0.36264 0.75537 0.74523 0.0
H839 H 0.37353 0.74567 0.68036 0.0
H840 H 0.725 0.65164 0.88494 0.0
H841 H 0.75618 0.67348 0.83822 0.0
H842 H 0.80722 0.73662 0.91991 0.0
H843 H 0.77575 0.71471 0.96731 0.0
H844 H 0.78208 0.76836 0.85934 0.0
H845 H 0.85054 0.65873 0.81384 0.0
H846 H 0.8084 0.65067 0.81601 0.0
H847 H 0.83157 0.66306 0.85702 0.0
C848 C 0.74309 0.66991 0.89316 0.0
C849 C 0.74796 0.68137 0.92989 0.0
C850 C 0.76107 0.68223 0.86637 0.0
C851 C 0.78438 0.70634 0.87556 0.0
C852 C 0.78956 0.71778 0.91226 0.0
H853 H 0.89409 0.7629 0.69149 0.0
H854 H 0.88284 0.74981 0.75338 0.0
C855 C 0.77168 0.70518 0.93929 0.0
C856 C 0.8015 0.72069 0.84619 0.0
H857 H 0.84419 0.69953 0.77101 0.0
C858 C 0.7962 0.7535 0.84041 0.0
C859 C 0.82029 0.70146 0.82173 0.0
C860 C 0.82834 0.6666 0.82762 0.0
C861 C 0.80743 0.76696 0.80954 0.0
C862 C 0.82404 0.74698 0.78358 0.0
C863 C 0.83117 0.71479 0.79065 0.0
C864 C 0.83166 0.75798 0.74755 0.0
C865 C 0.8008 0.80229 0.80466 0.0
C866 C 0.80672 0.76701 0.72373 0.0
C867 C 0.81306 0.77446 0.68853 0.0
C868 C 0.84452 0.7729 0.67615 0.0
C869 C 0.86966 0.76464 0.7003 0.0
C870 C 0.86324 0.75701 0.7356 0.0
H871 H 0.79786 0.81642 0.83122 0.0
H872 H 0.82041 0.81341 0.79041 0.0
H873 H 0.77811 0.80426 0.78816 0.0
H874 H 0.78209 0.76731 0.73197 0.0
H875 H 0.79318 0.78095 0.67073 0.0
H876 H 0.36047 0.71215 0.37474 0.0
H877 H 0.34931 0.71931 0.31026 0.0
H878 H 0.32072 0.81839 0.33801 0.0
H879 H 0.33337 0.81202 0.40189 0.0
H880 H 0.2934 0.73055 0.27876 0.0
H881 H 0.37329 0.83144 0.25281 0.0
H882 H 0.37831 0.80956 0.29302 0.0
H883 H 0.35037 0.84288 0.29171 0.0
C884 C 0.35261 0.73572 0.36701 0.0
C885 C 0.34761 0.76142 0.39363 0.0
C886 C 0.34608 0.73973 0.33012 0.0
C887 C 0.33462 0.76955 0.31908 0.0
C888 C 0.33032 0.7954 0.34557 0.0
H889 H 0.19487 0.81647 0.16561 0.0
H890 H 0.22933 0.79688 0.21364 0.0
C891 C 0.33701 0.7915 0.3823 0.0
C892 C 0.32384 0.77292 0.28065 0.0
H893 H 0.32401 0.82596 0.21436 0.0
C894 C 0.3007 0.75101 0.26437 0.0
C895 C 0.33377 0.79912 0.26125 0.0
C896 C 0.36059 0.82182 0.27551 0.0
C897 C 0.2854 0.7561 0.23074 0.0
C898 C 0.29283 0.78426 0.21333 0.0
C899 C 0.31785 0.80468 0.22803 0.0
C900 C 0.2723 0.79496 0.18272 0.0
C901 C 0.26066 0.73172 0.21475 0.0
C902 C 0.28512 0.80131 0.14942 0.0
C903 C 0.2653 0.81289 0.12162 0.0
C904 C 0.2325 0.81861 0.12696 0.0
C905 C 0.21995 0.81222 0.16038 0.0
C906 C 0.23961 0.80072 0.1879 0.0
H907 H 0.26607 0.70703 0.22327 0.0
H908 H 0.23673 0.73882 0.22479 0.0
H909 H 0.25938 0.73061 0.18459 0.0
H910 H 0.31039 0.79736 0.145 0.0
H911 H 0.27569 0.81767 0.09622 0.0
H912 H 0.12099 0.205 0.70111 0.0
H913 H 0.13194 0.23302 0.76145 0.0
H914 H 0.22357 0.18487 0.76863 0.0
H915 H 0.21247 0.15631 0.70878 0.0
H916 H 0.19262 0.19473 0.83603 0.0
H917 H 0.19897 0.30699 0.76263 0.0
H918 H 0.16168 0.28494 0.75731 0.0
H919 H 0.19742 0.26688 0.73919 0.0
C920 C 0.14286 0.19941 0.71622 0.0
C921 C 0.16608 0.1788 0.70023 0.0
C922 C 0.14924 0.21571 0.75044 0.0
C923 C 0.17889 0.21159 0.76891 0.0
C924 C 0.20066 0.18856 0.75459 0.0
H925 H 0.29934 0.29887 0.94405 0.0
H926 H 0.27592 0.26795 0.89005 0.0
C927 C 0.19432 0.17228 0.72046 0.0
C928 C 0.18909 0.23369 0.8008 0.0
H929 H 0.21183 0.31219 0.82535 0.0
C930 C 0.19656 0.22046 0.83386 0.0
C931 C 0.19439 0.26721 0.79764 0.0
C932 C 0.18797 0.28245 0.76227 0.0
C933 C 0.20946 0.23987 0.8639 0.0
C934 C 0.21553 0.27317 0.86042 0.0
C935 C 0.20725 0.2866 0.82771 0.0
C936 C 0.23102 0.29428 0.89034 0.0
C937 C 0.21652 0.22461 0.89911 0.0
C938 C 0.21419 0.3205 0.9069 0.0
C939 C 0.22768 0.33851 0.93743 0.0
C940 C 0.25827 0.33065 0.95166 0.0
C941 C 0.27588 0.30573 0.93349 0.0
C942 C 0.26235 0.28771 0.90302 0.0
H943 H 0.20307 0.2015 0.90014 0.0
H944 H 0.24254 0.21912 0.90166 0.0
H945 H 0.21034 0.24143 0.9228 0.0
H946 H 0.19013 0.32615 0.89713 0.0
H947 H 0.2137 0.35775 0.95079 0.0
H948 H 0.76224 0.12488 0.12357 0.0
H949 H 0.74809 0.13 0.18745 0.0
H950 H 0.75635 0.23427 0.18943 0.0
H951 H 0.77166 0.22934 0.12619 0.0
H952 H 0.7822 0.20942 0.25241 0.0
H953 H 0.65905 0.16142 0.2166 0.0
H954 H 0.69189 0.1355 0.20331 0.0
H955 H 0.68565 0.173 0.18262 0.0
C956 C 0.76166 0.14887 0.13779 0.0
C957 C 0.76779 0.17675 0.11961 0.0
C958 C 0.75324 0.15175 0.17421 0.0
C959 C 0.75064 0.18254 0.19301 0.0
C960 C 0.75806 0.21026 0.1754 0.0
H961 H 0.64226 0.2813 0.34601 0.0
H962 H 0.66605 0.24928 0.29592 0.0
C963 C 0.76654 0.20742 0.13913 0.0
C964 C 0.73848 0.18654 0.2303 0.0
H965 H 0.66978 0.18201 0.27678 0.0
C966 C 0.75783 0.20288 0.25805 0.0
C967 C 0.70663 0.178 0.23747 0.0
C968 C 0.68441 0.1612 0.20848 0.0
C969 C 0.74562 0.21257 0.29211 0.0
C970 C 0.71332 0.20533 0.29868 0.0
C971 C 0.6946 0.18727 0.2717 0.0
C972 C 0.69692 0.22139 0.33016 0.0
C973 C 0.76662 0.23247 0.31987 0.0
C974 C 0.70569 0.21569 0.36627 0.0
C975 C 0.69193 0.23411 0.39527 0.0
C976 C 0.66944 0.25849 0.38835 0.0
C977 C 0.65972 0.26289 0.35223 0.0
C978 C 0.67322 0.2445 0.32351 0.0
H979 H 0.78995 0.23902 0.30892 0.0
H980 H 0.75416 0.25519 0.32937 0.0
H981 H 0.77158 0.21839 0.34379 0.0
H982 H 0.72368 0.19765 0.37196 0.0
H983 H 0.6999 0.2303 0.42289 0.0
loop_
_geom_bond_atom_site_label_1
_geom_bond_atom_site_label_2
_geom_bond_distance
_geom_bond_site_symmetry_2
_ccdc_geom_bond_type
C0 C1 1.351 . S
C0 N3 1.368 . S
C0 H5 0.931 . S
C1 C0 1.351 . S
C1 N2 1.373 . S
C1 H29 0.930 . S
N2 C1 1.373 . S
N2 C4 1.340 . S
N3 C0 1.368 . S
N3 C4 1.321 . S
N3 Co6 2.135 . S
C4 N2 1.340 . S
C4 N3 1.321 . S
C4 H28 0.930 . S
H5 C0 0.931 . S
Co6 N3 2.135 . S
Co6 N9 2.121 . S
Co6 O14 2.055 . S
Co6 O17 2.039 . S
Co6 N20 2.140 . S
C7 O8 1.227 . S
C7 O17 1.265 . S
O8 C7 1.227 . S
N9 Co6 2.121 . S
N9 C11 1.375 . S
N9 C12 1.313 . S
C10 C11 1.338 . S
C10 N13 1.377 . S
C10 H30 0.930 . S
C11 N9 1.375 . S
C11 C10 1.338 . S
C11 H15 0.931 . S
C12 N9 1.313 . S
C12 N13 1.344 . S
C12 H16 0.930 . S
N13 C10 1.377 . S
N13 C12 1.344 . S
O14 Co6 2.055 . S
O14 C18 1.253 . S
H15 C11 0.931 . S
H16 C12 0.930 . S
O17 Co6 2.039 . S
O17 C7 1.265 . S
C18 O14 1.253 . S
C18 O19 1.227 . S
O19 C18 1.227 . S
N20 Co6 2.140 . S
N20 C23 1.346 1_554 S
N20 C24 1.345 . S
C21 C22 1.387 . S
C21 C25 1.391 . S
C22 C21 1.387 . S
C22 C23 1.369 . S
C22 H31 0.929 . S
C23 N20 1.346 1_556 S
C23 C22 1.369 . S
C23 H26 0.928 . S
C24 N20 1.345 . S
C24 C25 1.371 1_554 S
C24 H27 0.931 . S
C25 C21 1.391 . S
C25 C24 1.371 1_556 S
C25 H32 0.930 . S
H26 C23 0.928 . S
H27 C24 0.931 . S
H28 C4 0.930 . S
H29 C1 0.930 . S
H30 C10 0.930 . S
H31 C22 0.929 . S
H32 C25 0.930 . S
C33 C34 1.351 . S
C33 N36 1.368 . S
C33 H38 0.931 . S
C34 C33 1.351 . S
C34 N35 1.373 . S
C34 H62 0.930 . S
N35 C34 1.373 . S
N35 C37 1.340 . S
N36 C33 1.368 . S
N36 C37 1.321 . S
N36 Co39 2.135 . S
C37 N35 1.340 . S
C37 N36 1.321 . S
C37 H61 0.930 . S
H38 C33 0.931 . S
Co39 N36 2.135 . S
Co39 N42 2.121 . S
Co39 O47 2.055 . S
Co39 O50 2.039 . S
Co39 N53 2.140 . S
C40 O41 1.227 . S
C40 O50 1.265 . S
O41 C40 1.227 . S
N42 Co39 2.121 . S
N42 C44 1.375 . S
N42 C45 1.313 . S
C43 C44 1.338 . S
C43 N46 1.377 . S
C43 H63 0.930 . S
C44 N42 1.375 . S
C44 C43 1.338 . S
C44 H48 0.931 . S
C45 N42 1.313 . S
C45 N46 1.344 . S
C45 H49 0.930 . S
N46 C43 1.377 . S
N46 C45 1.344 . S
O47 Co39 2.055 . S
O47 C51 1.253 . S
H48 C44 0.931 . S
H49 C45 0.930 . S
O50 Co39 2.039 . S
O50 C40 1.265 . S
C51 O47 1.253 . S
C51 O52 1.227 . S
O52 C51 1.227 . S
N53 Co39 2.140 . S
N53 C56 1.346 . S
N53 C57 1.345 . S
C54 C55 1.387 . S
C54 C58 1.391 . S
C55 C54 1.387 . S
C55 C56 1.369 . S
C55 H64 0.929 . S
C56 N53 1.346 . S
C56 C55 1.369 . S
C56 H59 0.928 . S
C57 N53 1.345 . S
C57 C58 1.371 . S
C57 H60 0.931 . S
C58 C54 1.391 . S
C58 C57 1.371 . S
C58 H65 0.930 . S
H59 C56 0.928 . S
H60 C57 0.931 . S
H61 C37 0.930 . S
H62 C34 0.930 . S
H63 C43 0.930 . S
H64 C55 0.929 . S
H65 C58 0.930 . S
C66 C67 1.351 . S
C66 N69 1.368 1_556 S
C66 H71 0.931 . S
C67 C66 1.351 . S
C67 N68 1.373 1_556 S
C67 H95 0.930 . S
N68 C67 1.373 1_554 S
N68 C70 1.340 . S
N69 C66 1.368 1_554 S
N69 C70 1.321 . S
N69 Co72 2.135 . S
C70 N68 1.340 . S
C70 N69 1.321 . S
C70 H94 0.930 . S
H71 C66 0.931 . S
Co72 N69 2.135 . S
Co72 N75 2.121 . S
Co72 O80 2.055 1_554 S
Co72 O83 2.039 . S
Co72 N86 2.140 . S
C73 O74 1.227 . S
C73 O83 1.265 . S
O74 C73 1.227 . S
N75 Co72 2.121 . S
N75 C77 1.375 . S
N75 C78 1.313 . S
C76 C77 1.338 . S
C76 N79 1.377 . S
C76 H96 0.930 . S
C77 N75 1.375 . S
C77 C76 1.338 . S
C77 H81 0.931 . S
C78 N75 1.313 . S
C78 N79 1.344 . S
C78 H82 0.930 1_554 S
N79 C76 1.377 . S
N79 C78 1.344 . S
O80 Co72 2.055 1_556 S
O80 C84 1.253 . S
H81 C77 0.931 . S
H82 C78 0.930 1_556 S
O83 Co72 2.039 . S
O83 C73 1.265 . S
C84 O80 1.253 . S
C84 O85 1.227 . S
O85 C84 1.227 . S
N86 Co72 2.140 . S
N86 C89 1.346 . S
N86 C90 1.358 . S
C87 C88 1.387 . S
C87 C91 1.408 . S
C88 C87 1.387 . S
C88 C89 1.369 . S
C88 H97 0.929 . S
C89 N86 1.346 . S
C89 C88 1.369 . S
C89 H92 0.928 . S
C90 N86 1.358 . S
C90 C91 1.371 . S
C90 H93 0.916 1_554 S
C91 C87 1.408 . S
C91 C90 1.371 . S
C91 H98 0.915 1_554 S
H92 C89 0.928 . S
H93 C90 0.916 1_556 S
H94 C70 0.930 . S
H95 C67 0.930 . S
H96 C76 0.930 . S
H97 C88 0.929 . S
H98 C91 0.915 1_556 S
C99 C100 1.351 . S
C99 N102 1.368 . S
C99 H104 0.931 . S
C100 C99 1.351 . S
C100 N101 1.373 . S
C100 H128 0.930 . S
N101 C100 1.373 . S
N101 C103 1.340 . S
N102 C99 1.368 . S
N102 C103 1.321 . S
N102 Co105 2.135 . S
C103 N101 1.340 . S
C103 N102 1.321 . S
C103 H127 0.930 . S
H104 C99 0.931 . S
Co105 N102 2.135 . S
Co105 N108 2.121 . S
Co105 O113 2.055 . S
Co105 O116 2.039 . S
Co105 N119 2.140 . S
C106 O107 1.227 . S
C106 O116 1.265 . S
O107 C106 1.227 . S
N108 Co105 2.121 . S
N108 C110 1.375 . S
N108 C111 1.313 . S
C109 C110 1.338 . S
C109 N112 1.377 . S
C109 H129 0.930 . S
C110 N108 1.375 . S
C110 C109 1.338 . S
C110 H114 0.931 . S
C111 N108 1.313 . S
C111 N112 1.344 . S
C111 H115 0.930 . S
N112 C109 1.377 . S
N112 C111 1.344 . S
O113 Co105 2.055 . S
O113 C117 1.253 . S
H114 C110 0.931 . S
H115 C111 0.930 . S
O116 Co105 2.039 . S
O116 C106 1.265 . S
C117 O113 1.253 . S
C117 O118 1.227 . S
O118 C117 1.227 . S
N119 Co105 2.140 . S
N119 C122 1.346 . S
N119 C123 1.345 . S
C120 C121 1.387 . S
C120 C124 1.391 . S
C121 C120 1.387 . S
C121 C122 1.369 . S
C121 H130 0.929 . S
C122 N119 1.346 . S
C122 C121 1.369 . S
C122 H125 0.928 . S
C123 N119 1.345 . S
C123 C124 1.371 . S
C123 H126 0.931 . S
C124 C120 1.391 . S
C124 C123 1.371 . S
C124 H131 0.930 . S
H125 C122 0.928 . S
H126 C123 0.931 . S
H127 C103 0.930 . S
H128 C100 0.930 . S
H129 C109 0.930 . S
H130 C121 0.929 . S
H131 C124 0.930 . S
C132 C133 1.351 1_545 S
C132 N135 1.368 . S
C132 H137 0.931 . S
C133 C132 1.351 1_565 S
C133 N134 1.373 . S
C133 H161 0.930 . S
N134 C133 1.373 . S
N134 C136 1.340 1_565 S
N135 C132 1.368 . S
N135 C136 1.321 . S
N135 Co138 2.135 . S
C136 N134 1.340 1_545 S
C136 N135 1.321 . S
C136 H160 0.930 . S
H137 C132 0.931 . S
Co138 N135 2.135 . S
Co138 N141 2.121 . S
Co138 O146 2.055 . S
Co138 O149 2.039 . S
Co138 N152 2.140 1_556 S
C139 O140 1.227 . S
C139 O149 1.265 1_554 S
O140 C139 1.227 . S
N141 Co138 2.121 . S
N141 C143 1.375 1_556 S
N141 C144 1.313 . S
C142 C143 1.338 . S
C142 N145 1.377 1_554 S
C142 H162 0.930 . S
C143 N141 1.375 1_554 S
C143 C142 1.338 . S
C143 H147 0.931 . S
C144 N141 1.313 . S
C144 N145 1.344 . S
C144 H148 0.930 . S
N145 C142 1.377 1_556 S
N145 C144 1.344 . S
O146 Co138 2.055 . S
O146 C150 1.253 . S
H147 C143 0.931 . S
H148 C144 0.930 . S
O149 Co138 2.039 . S
O149 C139 1.265 1_556 S
C150 O146 1.253 . S
C150 O151 1.227 . S
O151 C150 1.227 . S
N152 Co138 2.140 1_554 S
N152 C155 1.346 . S
N152 C156 1.345 . S
C153 C154 1.387 . S
C153 C157 1.391 . S
C154 C153 1.387 . S
C154 C155 1.369 . S
C154 H163 0.929 . S
C155 N152 1.346 . S
C155 C154 1.369 . S
C155 H158 0.928 . S
C156 N152 1.345 . S
C156 C157 1.371 . S
C156 H159 0.931 . S
C157 C153 1.391 . S
C157 C156 1.371 . S
C157 H164 0.930 . S
H158 C155 0.928 . S
H159 C156 0.931 . S
H160 C136 0.930 . S
H161 C133 0.930 . S
H162 C142 0.930 . S
H163 C154 0.929 . S
H164 C157 0.930 . S
C165 C166 1.351 1_655 S
C165 N168 1.368 . S
C165 H170 0.931 . S
C166 C165 1.351 1_455 S
C166 N167 1.373 . S
C166 H194 0.930 . S
N167 C166 1.373 . S
N167 C169 1.340 . S
N168 C165 1.368 . S
N168 C169 1.321 1_655 S
N168 Co171 2.135 . S
C169 N167 1.340 . S
C169 N168 1.321 1_455 S
C169 H193 0.930 . S
H170 C165 0.931 . S
Co171 N168 2.135 . S
Co171 N174 2.121 . S
Co171 O179 2.055 . S
Co171 O182 2.039 . S
Co171 N185 2.140 . S
C172 O173 1.227 . S
C172 O182 1.265 . S
O173 C172 1.227 . S
N174 Co171 2.121 . S
N174 C176 1.375 . S
N174 C177 1.313 . S
C175 C176 1.338 . S
C175 N178 1.377 . S
C175 H195 0.930 . S
C176 N174 1.375 . S
C176 C175 1.338 . S
C176 H180 0.931 . S
C177 N174 1.313 . S
C177 N178 1.344 . S
C177 H181 0.930 . S
N178 C175 1.377 . S
N178 C177 1.344 . S
O179 Co171 2.055 . S
O179 C183 1.253 . S
H180 C176 0.931 . S
H181 C177 0.930 . S
O182 Co171 2.039 . S
O182 C172 1.265 . S
C183 O179 1.253 . S
C183 O184 1.227 . S
O184 C183 1.227 . S
N185 Co171 2.140 . S
N185 C188 1.346 . S
N185 C189 1.345 . S
C186 C187 1.387 . S
C186 C190 1.391 . S
C187 C186 1.387 . S
C187 C188 1.369 . S
C187 H196 0.929 . S
C188 N185 1.346 . S
C188 C187 1.369 . S
C188 H191 0.928 . S
C189 N185 1.345 . S
C189 C190 1.371 . S
C189 H192 0.931 . S
C190 C186 1.391 . S
C190 C189 1.371 . S
C190 H197 0.930 . S
H191 C188 0.928 . S
H192 C189 0.931 . S
H193 C169 0.930 . S
H194 C166 0.930 . S
H195 C175 0.930 . S
H196 C187 0.929 . S
H197 C190 0.930 . S
C198 C199 1.386 . S
C198 N201 1.352 1_545 S
C198 H203 0.915 1_545 S
C199 C198 1.386 . S
C199 N200 1.373 . S
C199 H227 0.930 . S
N200 C199 1.373 . S
N200 C202 1.340 . S
N201 C198 1.352 1_565 S
N201 C202 1.321 1_565 S
N201 Co204 2.135 . S
C202 N200 1.340 . S
C202 N201 1.321 1_545 S
C202 H226 0.931 . S
H203 C198 0.915 1_565 S
Co204 N201 2.135 . S
Co204 N207 2.121 . S
Co204 O212 2.055 . S
Co204 O215 2.039 1_554 S
Co204 N218 2.140 . S
C205 O206 1.227 . S
C205 O215 1.265 . S
O206 C205 1.227 . S
N207 Co204 2.121 . S
N207 C209 1.375 1_554 S
N207 C210 1.313 . S
C208 C209 1.336 1_554 S
C208 N211 1.389 . S
C208 H228 0.922 1_554 S
C209 N207 1.375 1_556 S
C209 C208 1.336 1_556 S
C209 H213 0.931 . S
C210 N207 1.313 . S
C210 N211 1.344 . S
C210 H214 0.930 . S
N211 C208 1.389 . S
N211 C210 1.344 . S
O212 Co204 2.055 . S
O212 C216 1.253 . S
H213 C209 0.931 . S
H214 C210 0.930 . S
O215 Co204 2.039 1_556 S
O215 C205 1.265 . S
C216 O212 1.253 . S
C216 O217 1.227 . S
O217 C216 1.227 . S
N218 Co204 2.140 . S
N218 C221 1.346 . S
N218 C222 1.345 . S
C219 C220 1.387 . S
C219 C223 1.391 . S
C220 C219 1.387 . S
C220 C221 1.369 . S
C220 H229 0.927 1_554 S
C221 N218 1.346 . S
C221 C220 1.369 . S
C221 H224 0.928 . S
C222 N218 1.345 . S
C222 C223 1.371 . S
C222 H225 0.931 . S
C223 C219 1.391 . S
C223 C222 1.371 . S
C223 H230 0.930 . S
H224 C221 0.928 . S
H225 C222 0.931 . S
H226 C202 0.931 . S
H227 C199 0.930 . S
H228 C208 0.922 1_556 S
H229 C220 0.927 1_556 S
H230 C223 0.930 . S
C231 C232 1.351 1_455 S
C231 N234 1.368 . S
C231 H236 0.931 . S
C232 C231 1.351 1_655 S
C232 N233 1.373 . S
C232 H260 0.930 . S
N233 C232 1.373 . S
N233 C235 1.340 1_655 S
N234 C231 1.368 . S
N234 C235 1.321 . S
N234 Co237 2.135 . S
C235 N233 1.340 1_455 S
C235 N234 1.321 . S
C235 H259 0.930 . S
H236 C231 0.931 . S
Co237 N234 2.135 . S
Co237 N240 2.121 . S
Co237 O245 2.055 . S
Co237 O248 2.039 . S
Co237 N251 2.140 . S
C238 O239 1.227 . S
C238 O248 1.265 . S
O239 C238 1.227 . S
N240 Co237 2.121 . S
N240 C242 1.375 . S
N240 C243 1.313 . S
C241 C242 1.338 . S
C241 N244 1.377 . S
C241 H261 0.930 . S
C242 N240 1.375 . S
C242 C241 1.338 . S
C242 H246 0.931 . S
C243 N240 1.313 . S
C243 N244 1.344 . S
C243 H247 0.930 . S
N244 C241 1.377 . S
N244 C243 1.344 . S
O245 Co237 2.055 . S
O245 C249 1.253 . S
H246 C242 0.931 . S
H247 C243 0.930 . S
O248 Co237 2.039 . S
O248 C238 1.265 . S
C249 O245 1.253 . S
C249 O250 1.227 . S
O250 C249 1.227 . S
N251 Co237 2.140 . S
N251 C254 1.346 . S
N251 C255 1.345 . S
C252 C253 1.387 . S
C252 C256 1.391 . S
C253 C252 1.387 . S
C253 C254 1.369 . S
C253 H262 0.929 . S
C254 N251 1.346 . S
C254 C253 1.369 . S
C254 H257 0.928 . S
C255 N251 1.345 . S
C255 C256 1.371 . S
C255 H258 0.931 . S
C256 C252 1.391 . S
C256 C255 1.371 . S
C256 H263 0.930 . S
H257 C254 0.928 . S
H258 C255 0.931 . S
H259 C235 0.930 . S
H260 C232 0.930 . S
H261 C241 0.930 . S
H262 C253 0.929 . S
H263 C256 0.930 . S
H264 C272 0.929 . S
H265 C274 0.930 . S
H266 C276 0.930 . S
H267 C279 0.929 . S
H268 C282 0.930 . S
H269 C284 0.960 1_556 S
H270 C284 0.960 1_556 S
H271 C284 0.960 . S
C272 H264 0.929 . S
C272 C273 1.377 . S
C272 C274 1.384 . S
C273 C272 1.377 . S
C273 C279 1.390 . S
C274 H265 0.930 . S
C274 C272 1.384 . S
C274 C275 1.372 . S
C275 C274 1.372 . S
C275 C276 1.400 . S
C275 C280 1.490 . S
C276 H266 0.930 . S
C276 C275 1.400 . S
C276 C279 1.386 . S
H277 C293 0.930 . S
H278 C294 0.931 . S
C279 H267 0.929 . S
C279 C273 1.390 . S
C279 C276 1.386 . S
C280 C275 1.490 . S
C280 C282 1.395 . S
C280 C283 1.403 . S
H281 C287 0.930 . S
C282 H268 0.930 . S
C282 C280 1.395 . S
C282 C285 1.403 . S
C283 C280 1.403 . S
C283 C284 1.524 . S
C283 C287 1.400 . S
C284 H269 0.960 1_554 S
C284 H270 0.960 1_554 S
C284 H271 0.960 . S
C284 C283 1.524 . S
C285 C282 1.403 . S
C285 C286 1.392 . S
C285 C289 1.495 . S
C286 C285 1.392 . S
C286 C287 1.385 . S
C286 C288 1.478 . S
C287 H281 0.930 . S
C287 C283 1.400 . S
C287 C286 1.385 . S
C288 C286 1.478 . S
C288 C290 1.381 . S
C288 C294 1.383 . S
C289 C285 1.495 . S
C289 H295 0.959 . S
C289 H296 0.961 . S
C289 H297 0.960 . S
C290 C288 1.381 . S
C290 C291 1.394 . S
C290 H298 0.930 . S
C291 C290 1.394 . S
C291 C292 1.383 . S
C291 H299 0.929 . S
C292 C291 1.383 . S
C292 C293 1.377 . S
C293 H277 0.930 . S
C293 C292 1.377 . S
C293 C294 1.379 . S
C294 H278 0.931 . S
C294 C288 1.383 . S
C294 C293 1.379 . S
H295 C289 0.959 . S
H296 C289 0.961 . S
H297 C289 0.960 . S
H298 C290 0.930 . S
H299 C291 0.929 . S
H300 C308 0.929 . S
H301 C310 0.930 . S
H302 C312 0.930 . S
H303 C315 0.929 . S
H304 C318 0.930 . S
H305 C320 0.960 . S
H306 C320 0.960 . S
H307 C320 0.960 . S
C308 H300 0.929 . S
C308 C309 1.377 . S
C308 C310 1.384 . S
C309 C308 1.377 . S
C309 C315 1.390 . S
C310 H301 0.930 . S
C310 C308 1.384 . S
C310 C311 1.372 . S
C311 C310 1.372 . S
C311 C312 1.400 . S
C311 C316 1.490 . S
C312 H302 0.930 . S
C312 C311 1.400 . S
C312 C315 1.386 . S
H313 C329 0.930 . S
H314 C330 0.931 . S
C315 H303 0.929 . S
C315 C309 1.390 . S
C315 C312 1.386 . S
C316 C311 1.490 . S
C316 C318 1.395 . S
C316 C319 1.403 . S
H317 C323 0.930 . S
C318 H304 0.930 . S
C318 C316 1.395 . S
C318 C321 1.403 . S
C319 C316 1.403 . S
C319 C320 1.524 . S
C319 C323 1.400 . S
C320 H305 0.960 . S
C320 H306 0.960 . S
C320 H307 0.960 . S
C320 C319 1.524 . S
C321 C318 1.403 . S
C321 C322 1.392 . S
C321 C325 1.495 . S
C322 C321 1.392 . S
C322 C323 1.385 . S
C322 C324 1.478 . S
C323 H317 0.930 . S
C323 C319 1.400 . S
C323 C322 1.385 . S
C324 C322 1.478 . S
C324 C326 1.381 . S
C324 C330 1.383 . S
C325 C321 1.495 . S
C325 H331 0.959 . S
C325 H332 0.961 . S
C325 H333 0.960 . S
C326 C324 1.381 . S
C326 C327 1.394 . S
C326 H334 0.930 . S
C327 C326 1.394 . S
C327 C328 1.383 . S
C327 H335 0.929 . S
C328 C327 1.383 . S
C328 C329 1.377 . S
C329 H313 0.930 . S
C329 C328 1.377 . S
C329 C330 1.379 . S
C330 H314 0.931 . S
C330 C324 1.383 . S
C330 C329 1.379 . S
H331 C325 0.959 . S
H332 C325 0.961 . S
H333 C325 0.960 . S
H334 C326 0.930 . S
H335 C327 0.929 . S
H336 C344 0.929 . S
H337 C346 0.930 . S
H338 C348 0.930 . S
H339 C351 0.929 . S
H340 C354 0.930 . S
H341 C356 0.960 . S
H342 C356 0.960 . S
H343 C356 0.960 . S
C344 H336 0.929 . S
C344 C345 1.377 . S
C344 C346 1.384 . S
C345 C344 1.377 . S
C345 C351 1.390 1_556 S
C346 H337 0.930 . S
C346 C344 1.384 . S
C346 C347 1.372 . S
C347 C346 1.372 . S
C347 C348 1.400 1_556 S
C347 C352 1.490 . S
C348 H338 0.930 . S
C348 C347 1.400 1_554 S
C348 C351 1.386 . S
H349 C365 0.930 . S
H350 C366 0.931 . S
C351 H339 0.929 . S
C351 C345 1.390 1_554 S
C351 C348 1.386 . S
C352 C347 1.490 . S
C352 C354 1.395 1_556 S
C352 C355 1.403 . S
H353 C359 0.930 . S
C354 H340 0.930 . S
C354 C352 1.395 1_554 S
C354 C357 1.403 . S
C355 C352 1.403 . S
C355 C356 1.524 . S
C355 C359 1.400 . S
C356 H341 0.960 . S
C356 H342 0.960 . S
C356 H343 0.960 . S
C356 C355 1.524 . S
C357 C354 1.403 . S
C357 C358 1.392 . S
C357 C361 1.495 . S
C358 C357 1.392 . S
C358 C359 1.385 1_554 S
C358 C360 1.478 . S
C359 H353 0.930 . S
C359 C355 1.400 . S
C359 C358 1.385 1_556 S
C360 C358 1.478 . S
C360 C362 1.381 1_554 S
C360 C366 1.383 . S
C361 C357 1.495 . S
C361 H367 0.959 . S
C361 H368 0.961 . S
C361 H369 0.960 . S
C362 C360 1.381 1_556 S
C362 C363 1.394 . S
C362 H370 0.930 . S
C363 C362 1.394 . S
C363 C364 1.383 1_556 S
C363 H371 0.929 . S
C364 C363 1.383 1_554 S
C364 C365 1.377 . S
C365 H349 0.930 . S
C365 C364 1.377 . S
C365 C366 1.379 . S
C366 H350 0.931 . S
C366 C360 1.383 . S
C366 C365 1.379 . S
H367 C361 0.959 . S
H368 C361 0.961 . S
H369 C361 0.960 . S
H370 C362 0.930 . S
H371 C363 0.929 . S
H372 C380 0.929 . S
H373 C382 0.930 . S
H374 C384 0.930 . S
H375 C387 0.929 . S
H376 C390 0.930 . S
H377 C392 0.960 . S
H378 C392 0.960 . S
H379 C392 0.960 . S
C380 H372 0.929 . S
C380 C381 1.377 . S
C380 C382 1.384 . S
C381 C380 1.377 . S
C381 C387 1.390 . S
C382 H373 0.930 . S
C382 C380 1.384 . S
C382 C383 1.372 . S
C383 C382 1.372 . S
C383 C384 1.400 . S
C383 C388 1.490 . S
C384 H374 0.930 . S
C384 C383 1.400 . S
C384 C387 1.386 . S
H385 C401 0.930 . S
H386 C402 0.931 . S
C387 H375 0.929 . S
C387 C381 1.390 . S
C387 C384 1.386 . S
C388 C383 1.490 . S
C388 C390 1.395 . S
C388 C391 1.403 . S
H389 C395 0.930 . S
C390 H376 0.930 . S
C390 C388 1.395 . S
C390 C393 1.403 . S
C391 C388 1.403 . S
C391 C392 1.524 . S
C391 C395 1.400 . S
C392 H377 0.960 . S
C392 H378 0.960 . S
C392 H379 0.960 . S
C392 C391 1.524 . S
C393 C390 1.403 . S
C393 C394 1.392 . S
C393 C397 1.495 . S
C394 C393 1.392 . S
C394 C395 1.385 . S
C394 C396 1.478 . S
C395 H389 0.930 . S
C395 C391 1.400 . S
C395 C394 1.385 . S
C396 C394 1.478 . S
C396 C398 1.381 . S
C396 C402 1.383 . S
C397 C393 1.495 . S
C397 H403 0.959 . S
C397 H404 0.961 . S
C397 H405 0.960 . S
C398 C396 1.381 . S
C398 C399 1.394 . S
C398 H406 0.930 . S
C399 C398 1.394 . S
C399 C400 1.383 . S
C399 H407 0.929 . S
C400 C399 1.383 . S
C400 C401 1.377 . S
C401 H385 0.930 . S
C401 C400 1.377 . S
C401 C402 1.379 . S
C402 H386 0.931 . S
C402 C396 1.383 . S
C402 C401 1.379 . S
H403 C397 0.959 . S
H404 C397 0.961 . S
H405 C397 0.960 . S
H406 C398 0.930 . S
H407 C399 0.929 . S
H408 C416 0.929 . S
H409 C418 0.930 . S
H410 C420 0.930 . S
H411 C423 0.929 . S
H412 C426 0.930 . S
H413 C428 0.960 . S
H414 C428 0.960 . S
H415 C428 0.960 . S
C416 H408 0.929 . S
C416 C417 1.377 1_556 S
C416 C418 1.384 . S
C417 C416 1.377 1_554 S
C417 C423 1.390 . S
C418 H409 0.930 . S
C418 C416 1.384 . S
C418 C419 1.372 1_556 S
C419 C418 1.372 1_554 S
C419 C420 1.400 . S
C419 C424 1.490 . S
C420 H410 0.930 . S
C420 C419 1.400 . S
C420 C423 1.386 . S
H421 C437 0.930 . S
H422 C438 0.931 . S
C423 H411 0.929 . S
C423 C417 1.390 . S
C423 C420 1.386 . S
C424 C419 1.490 . S
C424 C426 1.395 1_554 S
C424 C427 1.403 . S
H425 C431 0.930 . S
C426 H412 0.930 . S
C426 C424 1.395 1_556 S
C426 C429 1.403 . S
C427 C424 1.403 . S
C427 C428 1.524 . S
C427 C431 1.400 . S
C428 H413 0.960 . S
C428 H414 0.960 . S
C428 H415 0.960 . S
C428 C427 1.524 . S
C429 C426 1.403 . S
C429 C430 1.392 . S
C429 C433 1.495 . S
C430 C429 1.392 . S
C430 C431 1.385 1_556 S
C430 C432 1.478 . S
C431 H425 0.930 . S
C431 C427 1.400 . S
C431 C430 1.385 1_554 S
C432 C430 1.478 . S
C432 C434 1.381 . S
C432 C438 1.383 1_556 S
C433 C429 1.495 . S
C433 H439 0.959 . S
C433 H440 0.961 . S
C433 H441 0.960 . S
C434 C432 1.381 . S
C434 C435 1.394 . S
C434 H442 0.930 . S
C435 C434 1.394 . S
C435 C436 1.383 . S
C435 H443 0.929 . S
C436 C435 1.383 . S
C436 C437 1.377 1_556 S
C437 H421 0.930 . S
C437 C436 1.377 1_554 S
C437 C438 1.379 . S
C438 H422 0.931 . S
C438 C432 1.383 1_554 S
C438 C437 1.379 . S
H439 C433 0.959 . S
H440 C433 0.961 . S
H441 C433 0.960 . S
H442 C434 0.930 . S
H443 C435 0.929 . S
H444 C452 0.929 . S
H445 C454 0.930 . S
H446 C456 0.930 . S
H447 C459 0.929 . S
H448 C462 0.930 . S
H449 C464 0.960 . S
H450 C464 0.960 . S
H451 C464 0.960 . S
C452 H444 0.929 . S
C452 C453 1.377 . S
C452 C454 1.384 . S
C453 C452 1.377 . S
C453 C459 1.390 . S
C454 H445 0.930 . S
C454 C452 1.384 . S
C454 C455 1.372 . S
C455 C454 1.372 . S
C455 C456 1.400 . S
C455 C460 1.490 . S
C456 H446 0.930 . S
C456 C455 1.400 . S
C456 C459 1.386 . S
H457 C473 0.930 . S
H458 C474 0.931 . S
C459 H447 0.929 . S
C459 C453 1.390 . S
C459 C456 1.386 . S
C460 C455 1.490 . S
C460 C462 1.395 . S
C460 C463 1.403 . S
H461 C467 0.930 . S
C462 H448 0.930 . S
C462 C460 1.395 . S
C462 C465 1.403 . S
C463 C460 1.403 . S
C463 C464 1.524 . S
C463 C467 1.400 . S
C464 H449 0.960 . S
C464 H450 0.960 . S
C464 H451 0.960 . S
C464 C463 1.524 . S
C465 C462 1.403 . S
C465 C466 1.392 . S
C465 C469 1.495 . S
C466 C465 1.392 . S
C466 C467 1.385 . S
C466 C468 1.478 . S
C467 H461 0.930 . S
C467 C463 1.400 . S
C467 C466 1.385 . S
C468 C466 1.478 . S
C468 C470 1.381 . S
C468 C474 1.383 . S
C469 C465 1.495 . S
C469 H475 0.959 . S
C469 H476 0.961 . S
C469 H477 0.960 . S
C470 C468 1.381 . S
C470 C471 1.394 . S
C470 H478 0.930 . S
C471 C470 1.394 . S
C471 C472 1.383 . S
C471 H479 0.929 . S
C472 C471 1.383 . S
C472 C473 1.377 . S
C473 H457 0.930 . S
C473 C472 1.377 . S
C473 C474 1.379 . S
C474 H458 0.931 . S
C474 C468 1.383 . S
C474 C473 1.379 . S
H475 C469 0.959 . S
H476 C469 0.961 . S
H477 C469 0.960 . S
H478 C470 0.930 . S
H479 C471 0.929 . S
H480 C488 0.929 . S
H481 C490 0.930 . S
H482 C492 0.930 . S
H483 C495 0.929 . S
H484 C498 0.930 . S
H485 C500 0.960 . S
H486 C500 0.960 . S
H487 C500 0.960 . S
C488 H480 0.929 . S
C488 C489 1.377 . S
C488 C490 1.384 . S
C489 C488 1.377 . S
C489 C495 1.390 . S
C490 H481 0.930 . S
C490 C488 1.384 . S
C490 C491 1.372 . S
C491 C490 1.372 . S
C491 C492 1.400 . S
C491 C496 1.490 . S
C492 H482 0.930 . S
C492 C491 1.400 . S
C492 C495 1.386 . S
H493 C509 0.930 . S
H494 C510 0.931 . S
C495 H483 0.929 . S
C495 C489 1.390 . S
C495 C492 1.386 . S
C496 C491 1.490 . S
C496 C498 1.395 . S
C496 C499 1.403 . S
H497 C503 0.930 . S
C498 H484 0.930 . S
C498 C496 1.395 . S
C498 C501 1.403 . S
C499 C496 1.403 . S
C499 C500 1.524 1_554 S
C499 C503 1.400 . S
C500 H485 0.960 . S
C500 H486 0.960 . S
C500 H487 0.960 . S
C500 C499 1.524 1_556 S
C501 C498 1.403 . S
C501 C502 1.392 . S
C501 C505 1.495 . S
C502 C501 1.392 . S
C502 C503 1.385 . S
C502 C504 1.478 . S
C503 H497 0.930 . S
C503 C499 1.400 . S
C503 C502 1.385 . S
C504 C502 1.478 . S
C504 C506 1.381 . S
C504 C510 1.383 . S
C505 C501 1.495 . S
C505 H511 0.959 . S
C505 H512 0.961 . S
C505 H513 0.960 . S
C506 C504 1.381 . S
C506 C507 1.394 . S
C506 H514 0.930 . S
C507 C506 1.394 . S
C507 C508 1.383 . S
C507 H515 0.929 . S
C508 C507 1.383 . S
C508 C509 1.377 . S
C509 H493 0.930 . S
C509 C508 1.377 . S
C509 C510 1.379 . S
C510 H494 0.931 . S
C510 C504 1.383 . S
C510 C509 1.379 . S
H511 C505 0.959 . S
H512 C505 0.961 . S
H513 C505 0.960 . S
H514 C506 0.930 . S
H515 C507 0.929 . S
H516 C524 0.929 . S
H517 C526 0.930 . S
H518 C528 0.930 . S
H519 C531 0.929 . S
H520 C534 0.930 . S
H521 C536 0.960 . S
H522 C536 0.960 . S
H523 C536 0.960 . S
C524 H516 0.929 . S
C524 C525 1.377 . S
C524 C526 1.384 . S
C525 C524 1.377 . S
C525 C531 1.390 . S
C526 H517 0.930 . S
C526 C524 1.384 . S
C526 C527 1.372 . S
C527 C526 1.372 . S
C527 C528 1.400 . S
C527 C532 1.490 . S
C528 H518 0.930 . S
C528 C527 1.400 . S
C528 C531 1.386 . S
H529 C545 0.930 . S
H530 C546 0.931 . S
C531 H519 0.929 . S
C531 C525 1.390 . S
C531 C528 1.386 . S
C532 C527 1.490 . S
C532 C534 1.395 . S
C532 C535 1.403 . S
H533 C539 0.930 . S
C534 H520 0.930 . S
C534 C532 1.395 . S
C534 C537 1.403 . S
C535 C532 1.403 . S
C535 C536 1.524 . S
C535 C539 1.400 . S
C536 H521 0.960 . S
C536 H522 0.960 . S
C536 H523 0.960 . S
C536 C535 1.524 . S
C537 C534 1.403 . S
C537 C538 1.392 . S
C537 C541 1.495 . S
C538 C537 1.392 . S
C538 C539 1.385 . S
C538 C540 1.478 . S
C539 H533 0.930 . S
C539 C535 1.400 . S
C539 C538 1.385 . S
C540 C538 1.478 . S
C540 C542 1.381 . S
C540 C546 1.383 . S
C541 C537 1.495 . S
C541 H547 0.959 . S
C541 H548 0.961 . S
C541 H549 0.960 . S
C542 C540 1.381 . S
C542 C543 1.394 . S
C542 H550 0.930 . S
C543 C542 1.394 . S
C543 C544 1.383 . S
C543 H551 0.929 . S
C544 C543 1.383 . S
C544 C545 1.377 . S
C545 H529 0.930 . S
C545 C544 1.377 . S
C545 C546 1.379 . S
C546 H530 0.931 . S
C546 C540 1.383 . S
C546 C545 1.379 . S
H547 C541 0.959 . S
H548 C541 0.961 . S
H549 C541 0.960 . S
H550 C542 0.930 . S
H551 C543 0.929 . S
H552 C560 0.929 . S
H553 C562 0.930 . S
H554 C564 0.930 1_556 S
H555 C567 0.945 . S
H556 C570 0.930 . S
H557 C572 0.960 . S
H558 C572 0.960 . S
H559 C572 0.960 . S
C560 H552 0.929 . S
C560 C561 1.377 . S
C560 C562 1.384 . S
C561 C560 1.377 . S
C561 C567 1.378 1_554 S
C562 H553 0.930 . S
C562 C560 1.384 . S
C562 C563 1.372 . S
C563 C562 1.372 . S
C563 C564 1.400 . S
C563 C568 1.490 . S
C564 H554 0.930 1_554 S
C564 C563 1.400 . S
C564 C567 1.382 1_554 S
H565 C581 0.930 1_556 S
H566 C582 0.931 1_556 S
C567 H555 0.945 . S
C567 C561 1.378 1_556 S
C567 C564 1.382 1_556 S
C568 C563 1.490 . S
C568 C570 1.395 . S
C568 C571 1.403 . S
H569 C575 0.930 . S
C570 H556 0.930 . S
C570 C568 1.395 . S
C570 C573 1.403 . S
C571 C568 1.403 . S
C571 C572 1.524 . S
C571 C575 1.400 . S
C572 H557 0.960 . S
C572 H558 0.960 . S
C572 H559 0.960 . S
C572 C571 1.524 . S
C573 C570 1.403 . S
C573 C574 1.392 . S
C573 C577 1.495 . S
C574 C573 1.392 . S
C574 C575 1.385 . S
C574 C576 1.478 . S
C575 H569 0.930 . S
C575 C571 1.400 . S
C575 C574 1.385 . S
C576 C574 1.478 . S
C576 C578 1.381 . S
C576 C582 1.383 . S
C577 C573 1.495 . S
C577 H583 0.959 . S
C577 H584 0.961 . S
C577 H585 0.960 . S
C578 C576 1.381 . S
C578 C579 1.394 . S
C578 H586 0.930 . S
C579 C578 1.394 . S
C579 C580 1.383 . S
C579 H587 0.929 . S
C580 C579 1.383 . S
C580 C581 1.377 . S
C581 H565 0.930 1_554 S
C581 C580 1.377 . S
C581 C582 1.379 . S
C582 H566 0.931 1_554 S
C582 C576 1.383 . S
C582 C581 1.379 . S
H583 C577 0.959 . S
H584 C577 0.961 . S
H585 C577 0.960 . S
H586 C578 0.930 . S
H587 C579 0.929 . S
H588 C596 0.929 . S
H589 C598 0.930 . S
H590 C600 0.930 . S
H591 C603 0.929 . S
H592 C606 0.930 . S
H593 C608 0.960 . S
H594 C608 0.960 . S
H595 C608 0.960 . S
C596 H588 0.929 . S
C596 C597 1.377 . S
C596 C598 1.384 . S
C597 C596 1.377 . S
C597 C603 1.390 . S
C598 H589 0.930 . S
C598 C596 1.384 . S
C598 C599 1.372 . S
C599 C598 1.372 . S
C599 C600 1.400 . S
C599 C604 1.490 . S
C600 H590 0.930 . S
C600 C599 1.400 . S
C600 C603 1.386 . S
H601 C617 0.930 . S
H602 C618 0.931 . S
C603 H591 0.929 . S
C603 C597 1.390 . S
C603 C600 1.386 . S
C604 C599 1.490 . S
C604 C606 1.395 . S
C604 C607 1.403 . S
H605 C611 0.930 . S
C606 H592 0.930 . S
C606 C604 1.395 . S
C606 C609 1.403 . S
C607 C604 1.403 . S
C607 C608 1.524 . S
C607 C611 1.400 . S
C608 H593 0.960 . S
C608 H594 0.960 . S
C608 H595 0.960 . S
C608 C607 1.524 . S
C609 C606 1.403 . S
C609 C610 1.392 . S
C609 C613 1.495 . S
C610 C609 1.392 . S
C610 C611 1.385 . S
C610 C612 1.478 . S
C611 H605 0.930 . S
C611 C607 1.400 . S
C611 C610 1.385 . S
C612 C610 1.478 . S
C612 C614 1.381 . S
C612 C618 1.383 . S
C613 C609 1.495 . S
C613 H619 0.959 . S
C613 H620 0.961 . S
C613 H621 0.960 . S
C614 C612 1.381 . S
C614 C615 1.394 . S
C614 H622 0.930 . S
C615 C614 1.394 . S
C615 C616 1.383 . S
C615 H623 0.929 . S
C616 C615 1.383 . S
C616 C617 1.377 . S
C617 H601 0.930 . S
C617 C616 1.377 . S
C617 C618 1.379 . S
C618 H602 0.931 . S
C618 C612 1.383 . S
C618 C617 1.379 . S
H619 C613 0.959 . S
H620 C613 0.961 . S
H621 C613 0.960 . S
H622 C614 0.930 . S
H623 C615 0.929 . S
H624 C632 0.939 . S
H625 C634 0.930 1_556 S
H626 C636 0.930 . S
H627 C639 0.929 1_545 S
H628 C642 0.930 . S
H629 C644 0.960 . S
H630 C644 0.960 . S
H631 C644 0.960 . S
C632 H624 0.939 . S
C632 C633 1.377 . S
C632 C634 1.384 . S
C633 C632 1.377 . S
C633 C639 1.390 . S
C634 H625 0.930 1_554 S
C634 C632 1.384 . S
C634 C635 1.372 . S
C635 C634 1.372 . S
C635 C636 1.400 1_565 S
C635 C640 1.490 . S
C636 H626 0.930 . S
C636 C635 1.400 1_545 S
C636 C639 1.386 1_545 S
H637 C653 0.930 . S
H638 C654 0.931 . S
C639 H627 0.929 1_565 S
C639 C633 1.390 . S
C639 C636 1.386 1_565 S
C640 C635 1.490 . S
C640 C642 1.395 1_455 S
C640 C643 1.398 1_564 S
H641 C647 0.925 1_556 S
C642 H628 0.930 . S
C642 C640 1.395 1_655 S
C642 C645 1.403 . S
C643 C640 1.398 1_546 S
C643 C644 1.528 . S
C643 C647 1.399 1_456 S
C644 H629 0.960 . S
C644 H630 0.960 . S
C644 H631 0.960 . S
C644 C643 1.528 . S
C645 C642 1.403 . S
C645 C646 1.392 1_565 S
C645 C649 1.495 . S
C646 C645 1.392 1_545 S
C646 C647 1.390 . S
C646 C648 1.478 . S
C647 H641 0.925 1_554 S
C647 C643 1.399 1_654 S
C647 C646 1.390 . S
C648 C646 1.478 . S
C648 C650 1.381 1_554 S
C648 C654 1.383 . S
C649 C645 1.495 . S
C649 H655 0.959 . S
C649 H656 0.961 . S
C649 H657 0.960 . S
C650 C648 1.381 1_556 S
C650 C651 1.394 . S
C650 H658 0.930 1_545 S
C651 C650 1.394 . S
C651 C652 1.383 1_556 S
C651 H659 0.929 . S
C652 C651 1.383 1_554 S
C652 C653 1.377 . S
C653 H637 0.930 . S
C653 C652 1.377 . S
C653 C654 1.379 . S
C654 H638 0.931 . S
C654 C648 1.383 . S
C654 C653 1.379 . S
H655 C649 0.959 . S
H656 C649 0.961 . S
H657 C649 0.960 . S
H658 C650 0.930 1_565 S
H659 C651 0.929 . S
H660 C668 0.929 . S
H661 C670 0.930 . S
H662 C672 0.930 . S
H663 C675 0.929 . S
H664 C678 0.930 . S
H665 C680 0.960 . S
H666 C680 0.960 . S
H667 C680 0.960 . S
C668 H660 0.929 . S
C668 C669 1.377 . S
C668 C670 1.384 . S
C669 C668 1.377 . S
C669 C675 1.390 . S
C670 H661 0.930 . S
C670 C668 1.384 . S
C670 C671 1.372 . S
C671 C670 1.372 . S
C671 C672 1.400 . S
C671 C676 1.490 . S
C672 H662 0.930 . S
C672 C671 1.400 . S
C672 C675 1.386 . S
H673 C689 0.930 . S
H674 C690 0.931 . S
C675 H663 0.929 . S
C675 C669 1.390 . S
C675 C672 1.386 . S
C676 C671 1.490 . S
C676 C678 1.395 1_655 S
C676 C679 1.403 . S
H677 C683 0.930 . S
C678 H664 0.930 . S
C678 C676 1.395 1_455 S
C678 C681 1.411 . S
C679 C676 1.403 . S
C679 C680 1.524 . S
C679 C683 1.400 1_565 S
C680 H665 0.960 . S
C680 H666 0.960 . S
C680 H667 0.960 . S
C680 C679 1.524 . S
C681 C678 1.411 . S
C681 C682 1.387 1_565 S
C681 C685 1.493 1_565 S
C682 C681 1.387 1_545 S
C682 C683 1.385 1_455 S
C682 C684 1.478 . S
C683 H677 0.930 . S
C683 C679 1.400 1_545 S
C683 C682 1.385 1_655 S
C684 C682 1.478 . S
C684 C686 1.381 . S
C684 C690 1.383 . S
C685 C681 1.493 1_545 S
C685 H691 0.959 1_545 S
C685 H692 0.961 . S
C685 H693 0.960 . S
C686 C684 1.381 . S
C686 C687 1.394 . S
C686 H694 0.930 . S
C687 C686 1.394 . S
C687 C688 1.383 . S
C687 H695 0.929 . S
C688 C687 1.383 . S
C688 C689 1.377 . S
C689 H673 0.930 . S
C689 C688 1.377 . S
C689 C690 1.379 . S
C690 H674 0.931 . S
C690 C684 1.383 . S
C690 C689 1.379 . S
H691 C685 0.959 1_565 S
H692 C685 0.961 . S
H693 C685 0.960 . S
H694 C686 0.930 . S
H695 C687 0.929 . S
H696 C704 0.929 . S
H697 C706 0.930 . S
H698 C708 0.930 . S
H699 C711 0.929 . S
H700 C714 0.930 . S
H701 C716 0.960 . S
H702 C716 0.960 . S
H703 C716 0.960 . S
C704 H696 0.929 . S
C704 C705 1.377 . S
C704 C706 1.384 . S
C705 C704 1.377 . S
C705 C711 1.390 . S
C706 H697 0.930 . S
C706 C704 1.384 . S
C706 C707 1.372 . S
C707 C706 1.372 . S
C707 C708 1.400 . S
C707 C712 1.490 . S
C708 H698 0.930 . S
C708 C707 1.400 . S
C708 C711 1.386 . S
H709 C725 0.930 . S
H710 C726 0.931 . S
C711 H699 0.929 . S
C711 C705 1.390 . S
C711 C708 1.386 . S
C712 C707 1.490 . S
C712 C714 1.395 . S
C712 C715 1.403 . S
H713 C719 0.930 . S
C714 H700 0.930 . S
C714 C712 1.395 . S
C714 C717 1.403 . S
C715 C712 1.403 . S
C715 C716 1.524 . S
C715 C719 1.400 . S
C716 H701 0.960 . S
C716 H702 0.960 . S
C716 H703 0.960 . S
C716 C715 1.524 . S
C717 C714 1.403 . S
C717 C718 1.392 . S
C717 C721 1.495 . S
C718 C717 1.392 . S
C718 C719 1.385 . S
C718 C720 1.478 . S
C719 H713 0.930 . S
C719 C715 1.400 . S
C719 C718 1.385 . S
C720 C718 1.478 . S
C720 C722 1.381 . S
C720 C726 1.383 . S
C721 C717 1.495 . S
C721 H727 0.959 . S
C721 H728 0.961 . S
C721 H729 0.960 . S
C722 C720 1.381 . S
C722 C723 1.394 . S
C722 H730 0.930 . S
C723 C722 1.394 . S
C723 C724 1.383 . S
C723 H731 0.929 . S
C724 C723 1.383 . S
C724 C725 1.377 . S
C725 H709 0.930 . S
C725 C724 1.377 . S
C725 C726 1.379 . S
C726 H710 0.931 . S
C726 C720 1.383 . S
C726 C725 1.379 . S
H727 C721 0.959 . S
H728 C721 0.961 . S
H729 C721 0.960 . S
H730 C722 0.930 . S
H731 C723 0.929 . S
H732 C740 0.929 . S
H733 C742 0.930 . S
H734 C744 0.930 . S
H735 C747 0.929 . S
H736 C750 0.930 . S
H737 C752 0.960 . S
H738 C752 0.960 . S
H739 C752 0.960 . S
C740 H732 0.929 . S
C740 C741 1.377 . S
C740 C742 1.384 . S
C741 C740 1.377 . S
C741 C747 1.390 . S
C742 H733 0.930 . S
C742 C740 1.384 . S
C742 C743 1.372 . S
C743 C742 1.372 . S
C743 C744 1.400 . S
C743 C748 1.490 . S
C744 H734 0.930 . S
C744 C743 1.400 . S
C744 C747 1.386 . S
H745 C761 0.930 . S
H746 C762 0.931 . S
C747 H735 0.929 . S
C747 C741 1.390 . S
C747 C744 1.386 . S
C748 C743 1.490 . S
C748 C750 1.395 . S
C748 C751 1.403 . S
H749 C755 0.930 . S
C750 H736 0.930 . S
C750 C748 1.395 . S
C750 C753 1.403 . S
C751 C748 1.403 . S
C751 C752 1.524 . S
C751 C755 1.400 . S
C752 H737 0.960 . S
C752 H738 0.960 . S
C752 H739 0.960 . S
C752 C751 1.524 . S
C753 C750 1.403 . S
C753 C754 1.392 . S
C753 C757 1.495 . S
C754 C753 1.392 . S
C754 C755 1.385 . S
C754 C756 1.478 . S
C755 H749 0.930 . S
C755 C751 1.400 . S
C755 C754 1.385 . S
C756 C754 1.478 . S
C756 C758 1.381 . S
C756 C762 1.383 . S
C757 C753 1.495 . S
C757 H763 0.959 . S
C757 H764 0.961 . S
C757 H765 0.960 . S
C758 C756 1.381 . S
C758 C759 1.394 . S
C758 H766 0.930 . S
C759 C758 1.394 . S
C759 C760 1.383 . S
C759 H767 0.929 . S
C760 C759 1.383 . S
C760 C761 1.377 . S
C761 H745 0.930 . S
C761 C760 1.377 . S
C761 C762 1.379 . S
C762 H746 0.931 . S
C762 C756 1.383 . S
C762 C761 1.379 . S
H763 C757 0.959 . S
H764 C757 0.961 . S
H765 C757 0.960 . S
H766 C758 0.930 . S
H767 C759 0.929 . S
H768 C776 0.929 . S
H769 C778 0.930 . S
H770 C780 0.930 . S
H771 C783 0.929 . S
H772 C786 0.930 . S
H773 C788 0.960 . S
H774 C788 0.960 . S
H775 C788 0.960 . S
C776 H768 0.929 . S
C776 C777 1.377 . S
C776 C778 1.384 . S
C777 C776 1.377 . S
C777 C783 1.390 . S
C778 H769 0.930 . S
C778 C776 1.384 . S
C778 C779 1.372 . S
C779 C778 1.372 . S
C779 C780 1.400 . S
C779 C784 1.490 . S
C780 H770 0.930 . S
C780 C779 1.400 . S
C780 C783 1.386 . S
H781 C797 0.930 . S
H782 C798 0.931 . S
C783 H771 0.929 . S
C783 C777 1.390 . S
C783 C780 1.386 . S
C784 C779 1.490 . S
C784 C786 1.395 . S
C784 C787 1.403 . S
H785 C791 0.930 . S
C786 H772 0.930 . S
C786 C784 1.395 . S
C786 C789 1.403 . S
C787 C784 1.403 . S
C787 C788 1.524 . S
C787 C791 1.400 . S
C788 H773 0.960 . S
C788 H774 0.960 . S
C788 H775 0.960 . S
C788 C787 1.524 . S
C789 C786 1.403 . S
C789 C790 1.392 . S
C789 C793 1.495 . S
C790 C789 1.392 . S
C790 C791 1.385 . S
C790 C792 1.478 . S
C791 H785 0.930 . S
C791 C787 1.400 . S
C791 C790 1.385 . S
C792 C790 1.478 . S
C792 C794 1.381 . S
C792 C798 1.383 . S
C793 C789 1.495 . S
C793 H799 0.959 . S
C793 H800 0.961 . S
C793 H801 0.960 . S
C794 C792 1.381 . S
C794 C795 1.394 . S
C794 H802 0.930 . S
C795 C794 1.394 . S
C795 C796 1.383 . S
C795 H803 0.929 . S
C796 C795 1.383 . S
C796 C797 1.377 . S
C797 H781 0.930 . S
C797 C796 1.377 . S
C797 C798 1.379 . S
C798 H782 0.931 . S
C798 C792 1.383 . S
C798 C797 1.379 . S
H799 C793 0.959 . S
H800 C793 0.961 . S
H801 C793 0.960 . S
H802 C794 0.930 . S
H803 C795 0.929 . S
H804 C812 0.929 . S
H805 C814 0.930 . S
H806 C816 0.930 . S
H807 C819 0.929 . S
H808 C822 0.930 . S
H809 C824 0.960 . S
H810 C824 0.960 . S
H811 C824 0.960 . S
C812 H804 0.929 . S
C812 C813 1.377 . S
C812 C814 1.384 . S
C813 C812 1.377 . S
C813 C819 1.390 . S
C814 H805 0.930 . S
C814 C812 1.384 . S
C814 C815 1.372 . S
C815 C814 1.372 . S
C815 C816 1.400 . S
C815 C820 1.490 . S
C816 H806 0.930 . S
C816 C815 1.400 . S
C816 C819 1.386 . S
H817 C833 0.930 . S
H818 C834 0.931 . S
C819 H807 0.929 . S
C819 C813 1.390 . S
C819 C816 1.386 . S
C820 C815 1.490 . S
C820 C822 1.395 . S
C820 C823 1.403 . S
H821 C827 0.930 . S
C822 H808 0.930 . S
C822 C820 1.395 . S
C822 C825 1.403 . S
C823 C820 1.403 . S
C823 C824 1.524 . S
C823 C827 1.400 . S
C824 H809 0.960 . S
C824 H810 0.960 . S
C824 H811 0.960 . S
C824 C823 1.524 . S
C825 C822 1.403 . S
C825 C826 1.392 . S
C825 C829 1.495 . S
C826 C825 1.392 . S
C826 C827 1.385 . S
C826 C828 1.478 . S
C827 H821 0.930 . S
C827 C823 1.400 . S
C827 C826 1.385 . S
C828 C826 1.478 . S
C828 C830 1.381 . S
C828 C834 1.383 . S
C829 C825 1.495 . S
C829 H835 0.959 . S
C829 H836 0.961 . S
C829 H837 0.960 . S
C830 C828 1.381 . S
C830 C831 1.394 . S
C830 H838 0.930 . S
C831 C830 1.394 . S
C831 C832 1.383 . S
C831 H839 0.929 . S
C832 C831 1.383 . S
C832 C833 1.377 . S
C833 H817 0.930 . S
C833 C832 1.377 . S
C833 C834 1.379 . S
C834 H818 0.931 . S
C834 C828 1.383 . S
C834 C833 1.379 . S
H835 C829 0.959 . S
H836 C829 0.961 . S
H837 C829 0.960 . S
H838 C830 0.930 . S
H839 C831 0.929 . S
H840 C848 0.929 . S
H841 C850 0.930 . S
H842 C852 0.930 . S
H843 C855 0.929 . S
H844 C858 0.930 . S
H845 C860 0.960 . S
H846 C860 0.960 . S
H847 C860 0.960 . S
C848 H840 0.929 . S
C848 C849 1.377 . S
C848 C850 1.384 . S
C849 C848 1.377 . S
C849 C855 1.390 . S
C850 H841 0.930 . S
C850 C848 1.384 . S
C850 C851 1.372 . S
C851 C850 1.372 . S
C851 C852 1.400 . S
C851 C856 1.490 . S
C852 H842 0.930 . S
C852 C851 1.400 . S
C852 C855 1.386 . S
H853 C869 0.930 . S
H854 C870 0.931 . S
C855 H843 0.929 . S
C855 C849 1.390 . S
C855 C852 1.386 . S
C856 C851 1.490 . S
C856 C858 1.395 . S
C856 C859 1.403 . S
H857 C863 0.930 . S
C858 H844 0.930 . S
C858 C856 1.395 . S
C858 C861 1.403 . S
C859 C856 1.403 . S
C859 C860 1.524 . S
C859 C863 1.400 . S
C860 H845 0.960 . S
C860 H846 0.960 . S
C860 H847 0.960 . S
C860 C859 1.524 . S
C861 C858 1.403 . S
C861 C862 1.392 . S
C861 C865 1.495 . S
C862 C861 1.392 . S
C862 C863 1.385 . S
C862 C864 1.478 . S
C863 H857 0.930 . S
C863 C859 1.400 . S
C863 C862 1.385 . S
C864 C862 1.478 . S
C864 C866 1.381 . S
C864 C870 1.383 . S
C865 C861 1.495 . S
C865 H871 0.959 . S
C865 H872 0.961 . S
C865 H873 0.960 . S
C866 C864 1.381 . S
C866 C867 1.394 . S
C866 H874 0.930 . S
C867 C866 1.394 . S
C867 C868 1.383 . S
C867 H875 0.929 . S
C868 C867 1.383 . S
C868 C869 1.377 . S
C869 H853 0.930 . S
C869 C868 1.377 . S
C869 C870 1.379 . S
C870 H854 0.931 . S
C870 C864 1.383 . S
C870 C869 1.379 . S
H871 C865 0.959 . S
H872 C865 0.961 . S
H873 C865 0.960 . S
H874 C866 0.930 . S
H875 C867 0.929 . S
H876 C884 0.929 . S
H877 C886 0.930 . S
H878 C888 0.930 . S
H879 C891 0.929 . S
H880 C894 0.930 . S
H881 C896 0.960 . S
H882 C896 0.960 . S
H883 C896 0.960 . S
C884 H876 0.929 . S
C884 C885 1.377 . S
C884 C886 1.384 . S
C885 C884 1.377 . S
C885 C891 1.390 . S
C886 H877 0.930 . S
C886 C884 1.384 . S
C886 C887 1.372 . S
C887 C886 1.372 . S
C887 C888 1.400 . S
C887 C892 1.490 . S
C888 H878 0.930 . S
C888 C887 1.400 . S
C888 C891 1.386 . S
H889 C905 0.930 . S
H890 C906 0.931 . S
C891 H879 0.929 . S
C891 C885 1.390 . S
C891 C888 1.386 . S
C892 C887 1.490 . S
C892 C894 1.395 . S
C892 C895 1.403 . S
H893 C899 0.930 . S
C894 H880 0.930 . S
C894 C892 1.395 . S
C894 C897 1.403 . S
C895 C892 1.403 . S
C895 C896 1.524 . S
C895 C899 1.400 . S
C896 H881 0.960 . S
C896 H882 0.960 . S
C896 H883 0.960 . S
C896 C895 1.524 . S
C897 C894 1.403 . S
C897 C898 1.392 . S
C897 C901 1.495 . S
C898 C897 1.392 . S
C898 C899 1.385 . S
C898 C900 1.478 . S
C899 H893 0.930 . S
C899 C895 1.400 . S
C899 C898 1.385 . S
C900 C898 1.478 . S
C900 C902 1.381 . S
C900 C906 1.383 . S
C901 C897 1.495 . S
C901 H907 0.959 . S
C901 H908 0.961 . S
C901 H909 0.960 . S
C902 C900 1.381 . S
C902 C903 1.394 . S
C902 H910 0.930 . S
C903 C902 1.394 . S
C903 C904 1.383 . S
C903 H911 0.929 . S
C904 C903 1.383 . S
C904 C905 1.377 . S
C905 H889 0.930 . S
C905 C904 1.377 . S
C905 C906 1.379 . S
C906 H890 0.931 . S
C906 C900 1.383 . S
C906 C905 1.379 . S
H907 C901 0.959 . S
H908 C901 0.961 . S
H909 C901 0.960 . S
H910 C902 0.930 . S
H911 C903 0.929 . S
H912 C920 0.929 . S
H913 C922 0.930 . S
H914 C924 0.930 . S
H915 C927 0.929 . S
H916 C930 0.930 . S
H917 C932 0.960 . S
H918 C932 0.960 . S
H919 C932 0.960 . S
C920 H912 0.929 . S
C920 C921 1.377 . S
C920 C922 1.384 . S
C921 C920 1.377 . S
C921 C927 1.390 . S
C922 H913 0.930 . S
C922 C920 1.384 . S
C922 C923 1.372 . S
C923 C922 1.372 . S
C923 C924 1.400 . S
C923 C928 1.490 . S
C924 H914 0.930 . S
C924 C923 1.400 . S
C924 C927 1.386 . S
H925 C941 0.930 . S
H926 C942 0.931 . S
C927 H915 0.929 . S
C927 C921 1.390 . S
C927 C924 1.386 . S
C928 C923 1.490 . S
C928 C930 1.395 . S
C928 C931 1.403 . S
H929 C935 0.930 . S
C930 H916 0.930 . S
C930 C928 1.395 . S
C930 C933 1.403 . S
C931 C928 1.403 . S
C931 C932 1.524 . S
C931 C935 1.400 . S
C932 H917 0.960 . S
C932 H918 0.960 . S
C932 H919 0.960 . S
C932 C931 1.524 . S
C933 C930 1.403 . S
C933 C934 1.392 . S
C933 C937 1.495 . S
C934 C933 1.392 . S
C934 C935 1.385 . S
C934 C936 1.478 . S
C935 H929 0.930 . S
C935 C931 1.400 . S
C935 C934 1.385 . S
C936 C934 1.478 . S
C936 C938 1.381 . S
C936 C942 1.383 . S
C937 C933 1.495 . S
C937 H943 0.959 . S
C937 H944 0.961 . S
C937 H945 0.960 . S
C938 C936 1.381 . S
C938 C939 1.394 . S
C938 H946 0.930 . S
C939 C938 1.394 . S
C939 C940 1.383 . S
C939 H947 0.929 . S
C940 C939 1.383 . S
C940 C941 1.377 . S
C941 H925 0.930 . S
C941 C940 1.377 . S
C941 C942 1.379 . S
C942 H926 0.931 . S
C942 C936 1.383 . S
C942 C941 1.379 . S
H943 C937 0.959 . S
H944 C937 0.961 . S
H945 C937 0.960 . S
H946 C938 0.930 . S
H947 C939 0.929 . S
H948 C956 0.929 . S
H949 C958 0.930 . S
H950 C960 0.930 . S
H951 C963 0.929 . S
H952 C966 0.930 . S
H953 C968 0.960 . S
H954 C968 0.960 . S
H955 C968 0.960 . S
C956 H948 0.929 . S
C956 C957 1.377 . S
C956 C958 1.384 . S
C957 C956 1.377 . S
C957 C963 1.390 . S
C958 H949 0.930 . S
C958 C956 1.384 . S
C958 C959 1.372 . S
C959 C958 1.372 . S
C959 C960 1.400 . S
C959 C964 1.490 . S
C960 H950 0.930 . S
C960 C959 1.400 . S
C960 C963 1.386 . S
H961 C977 0.930 . S
H962 C978 0.931 . S
C963 H951 0.929 . S
C963 C957 1.390 . S
C963 C960 1.386 . S
C964 C959 1.490 . S
C964 C966 1.395 . S
C964 C967 1.403 . S
H965 C971 0.930 . S
C966 H952 0.930 . S
C966 C964 1.395 . S
C966 C969 1.403 . S
C967 C964 1.403 . S
C967 C968 1.524 . S
C967 C971 1.400 . S
C968 H953 0.960 . S
C968 H954 0.960 . S
C968 H955 0.960 . S
C968 C967 1.524 . S
C969 C966 1.403 . S
C969 C970 1.392 . S
C969 C973 1.495 . S
C970 C969 1.392 . S
C970 C971 1.385 . S
C970 C972 1.478 . S
C971 H965 0.930 . S
C971 C967 1.400 . S
C971 C970 1.385 . S
C972 C970 1.478 . S
C972 C974 1.381 . S
C972 C978 1.383 . S
C973 C969 1.495 . S
C973 H979 0.959 . S
C973 H980 0.961 . S
C973 H981 0.960 . S
C974 C972 1.381 . S
C974 C975 1.394 . S
C974 H982 0.930 . S
C975 C974 1.394 . S
C975 C976 1.383 . S
C975 H983 0.929 . S
C976 C975 1.383 . S
C976 C977 1.377 . S
C977 H961 0.930 . S
C977 C976 1.377 . S
C977 C978 1.379 . S
C978 H962 0.931 . S
C978 C972 1.383 . S
C978 C977 1.379 . S
H979 C973 0.959 . S
H980 C973 0.961 . S
H981 C973 0.960 . S
H982 C974 0.930 . S
H983 C975 0.929 . S
C273 N200 0.531 . S
C292 N13 0.562 . S
C309 N233 0.666 . S
C328 N46 0.726 . S
C345 N134 0.627 . S
C364 N79 0.615 . S
C381 N167 0.690 . S
C400 N112 0.745 . S
C417 N68 0.590 . S
C436 N145 0.562 . S
C453 N101 0.698 . S
C472 N178 0.749 . S
C489 N2 0.676 . S
C508 N211 0.723 . S
C525 N244 0.599 . S
C544 N35 0.652 . S
C561 C87 2.044 . S
C580 C7 2.021 . S
C597 C54 2.258 . S
C616 C106 2.242 . S
C633 C219 2.120 . S
C652 C139 2.101 . S
C669 C172 2.463 . S
C688 C238 2.450 . S
C705 C18 1.857 . S
C724 C249 1.873 . S
C741 C150 1.973 . S
C760 C40 1.989 . S
C777 C183 1.774 . S
C796 C73 1.775 . S
C813 C205 1.917 . S
C832 C117 1.892 . S
C849 C84 1.446 . S
C868 C186 1.425 . S
C885 C120 1.239 . S
C904 C216 1.231 . S
C921 C252 0.996 . S
C940 C21 0.988 . S
C957 C153 1.238 . S
C976 C51 1.227 . S
