# Generated by pormake.
# Topology vby, (6)-cn, num edge types: 1
# Building blocks:
#     Node 0, Type 0, BuildingBlock: FUNLAD_clean_sbu_0, # of connection points: 6
#     Node 1, Type 0, BuildingBlock: FUNLAD_clean_sbu_0, # of connection points: 6
#     Node 2, Type 0, BuildingBlock: FUNLAD_clean_sbu_0, # of connection points: 6
#     Node 3, Type 0, BuildingBlock: FUNLAD_clean_sbu_0, # of connection points: 6
#     Node 4, Type 0, BuildingBlock: FUNLAD_clean_sbu_0, # of connection points: 6
#     Node 5, Type 0, BuildingBlock: FUNLAD_clean_sbu_0, # of connection points: 6
#     Node 6, Type 0, BuildingBlock: FUNLAD_clean_sbu_0, # of connection points: 6
#     Node 7, Type 0, BuildingBlock: FUNLAD_clean_sbu_0, # of connection points: 6
#     Edge 8, Type (0, 0), BuildingBlock: XIVTED_clean_linker_0, # of connection points: 2
#     Edge 9, Type (0, 0), BuildingBlock: XIVTED_clean_linker_0, # of connection points: 2
#     Edge 10, Type (0, 0), BuildingBlock: XIVTED_clean_linker_0, # of connection points: 2
#     Edge 11, Type (0, 0), BuildingBlock: XIVTED_clean_linker_0, # of connection points: 2
#     Edge 12, Type (0, 0), BuildingBlock: XIVTED_clean_linker_0, # of connection points: 2
#     Edge 13, Type (0, 0), BuildingBlock: XIVTED_clean_linker_0, # of connection points: 2
#     Edge 14, Type (0, 0), BuildingBlock: XIVTED_clean_linker_0, # of connection points: 2
#     Edge 15, Type (0, 0), BuildingBlock: XIVTED_clean_linker_0, # of connection points: 2
#     Edge 16, Type (0, 0), BuildingBlock: XIVTED_clean_linker_0, # of connection points: 2
#     Edge 17, Type (0, 0), BuildingBlock: XIVTED_clean_linker_0, # of connection points: 2
#     Edge 18, Type (0, 0), BuildingBlock: XIVTED_clean_linker_0, # of connection points: 2
#     Edge 19, Type (0, 0), BuildingBlock: XIVTED_clean_linker_0, # of connection points: 2
#     Edge 20, Type (0, 0), BuildingBlock: XIVTED_clean_linker_0, # of connection points: 2
#     Edge 21, Type (0, 0), BuildingBlock: XIVTED_clean_linker_0, # of connection points: 2
#     Edge 22, Type (0, 0), BuildingBlock: XIVTED_clean_linker_0, # of connection points: 2
#     Edge 23, Type (0, 0), BuildingBlock: XIVTED_clean_linker_0, # of connection points: 2
#     Edge 24, Type (0, 0), BuildingBlock: XIVTED_clean_linker_0, # of connection points: 2
#     Edge 25, Type (0, 0), BuildingBlock: XIVTED_clean_linker_0, # of connection points: 2
#     Edge 26, Type (0, 0), BuildingBlock: XIVTED_clean_linker_0, # of connection points: 2
#     Edge 27, Type (0, 0), BuildingBlock: XIVTED_clean_linker_0, # of connection points: 2
#     Edge 28, Type (0, 0), BuildingBlock: XIVTED_clean_linker_0, # of connection points: 2
#     Edge 29, Type (0, 0), BuildingBlock: XIVTED_clean_linker_0, # of connection points: 2
#     Edge 30, Type (0, 0), BuildingBlock: XIVTED_clean_linker_0, # of connection points: 2
#     Edge 31, Type (0, 0), BuildingBlock: XIVTED_clean_linker_0, # of connection points: 2
# Relax obj value: 0.049
# Max RMSD: 0.111
# Mean RMSD: 0.106
data_MOF--net-vby--node1-FUNLAD_clean_sbu_0--edge1-XIVTED_clean_linker_0
_symmetry_space_group_name_H-M    P1
_symmetry_Int_Tables_number       1
_symmetry_cell_setting            triclinic
loop_
_symmetry_equiv_pos_as_xyz
'x, y, z'
_cell_length_a     15.470449
_cell_length_b     58.981098
_cell_length_c     43.724971
_cell_angle_alpha  88.844115
_cell_angle_beta   90.051564
_cell_angle_gamma 89.907114
loop_
_atom_site_label
_atom_site_type_symbol
_atom_site_fract_x
_atom_site_fract_y
_atom_site_fract_z
_atom_type_partial_charge
C0 C -0.00333 0.40947 0.02358 0.0
N1 N 0.02048 0.36261 0.09657 0.0
C2 C 0.05323 0.38049 0.11203 0.0
C3 C 0.04576 0.38132 0.14385 0.0
C4 C 0.00606 0.36335 0.15991 0.0
C5 C -0.02497 0.34484 0.14357 0.0
C6 C -0.01797 0.34493 0.11172 0.0
Zn7 Zn 0.02259 0.36292 0.04956 0.0
C8 C 0.84617 0.35746 0.02378 0.0
N9 N 0.02149 0.36402 0.95142 0.0
C10 C 0.05409 0.38197 0.93512 0.0
C11 C -0.01669 0.34635 0.9371 0.0
C12 C -0.02308 0.34626 0.90526 0.0
C13 C 0.00819 0.36477 0.88801 0.0
C14 C 0.04718 0.38281 0.90322 0.0
Zn15 Zn 0.02332 0.36376 0.99843 0.0
O16 O 0.00192 0.3983 0.04863 0.0
C17 C 0.19962 0.36918 0.02421 0.0
O18 O 0.00315 0.39916 0.99847 0.0
H19 H 0.95642 0.33242 0.95038 0.0
H20 H 0.08408 0.39432 0.09968 0.0
H21 H 0.08448 0.39582 0.94685 0.0
O22 O 0.15794 0.36783 0.04927 0.0
O23 O 0.15882 0.36853 0.99895 0.0
H24 H 0.95531 0.33103 0.09907 0.0
O25 O 0.04598 0.32846 0.99935 0.0
O26 O 0.04583 0.3276 0.04952 0.0
O27 O 0.88786 0.35896 0.9988 0.0
O28 O 0.88706 0.35803 0.04898 0.0
C29 C 0.05573 0.31746 0.02439 0.0
H30 H 0.07095 0.39581 0.1558 0.0
H31 H 0.94347 0.33076 0.15526 0.0
H32 H 0.94572 0.33215 0.89426 0.0
H33 H 0.07236 0.39732 0.89054 0.0
C34 C 0.93089 0.57842 0.02227 0.0
N35 N 0.91029 0.6235 0.09514 0.0
C36 C 0.87734 0.60549 0.11123 0.0
C37 C 0.88377 0.60449 0.14314 0.0
C38 C 0.92264 0.62244 0.15857 0.0
C39 C 0.95447 0.64099 0.14154 0.0
C40 C 0.94855 0.64106 0.10969 0.0
Zn41 Zn 0.90793 0.62413 0.04816 0.0
C42 C 0.08422 0.62992 0.0225 0.0
N43 N 0.9084 0.62595 0.95023 0.0
C44 C 0.86494 0.61011 0.93406 0.0
C45 C 0.95751 0.64202 0.93584 0.0
C46 C -0.03447 0.64238 0.90405 0.0
C47 C 0.92258 0.62604 0.88673 0.0
C48 C 0.87118 0.60984 0.90216 0.0
Zn49 Zn 0.90673 0.62512 0.9971 0.0
O50 O 0.92722 0.58871 0.04748 0.0
C51 C 0.73061 0.61933 0.02292 0.0
O52 O 0.9241 0.58965 0.99728 0.0
H53 H -0.00801 0.65438 0.94909 0.0
H54 H 0.84685 0.59174 0.09932 0.0
H55 H 0.82627 0.59748 0.94595 0.0
O56 O 0.77256 0.61953 0.04796 0.0
O57 O 0.77113 0.62098 0.99767 0.0
H58 H -0.02432 0.65505 0.09657 0.0
O59 O 0.88689 0.66052 0.99754 0.0
O60 O 0.886 0.65948 0.04771 0.0
O61 O 0.04244 0.62921 0.99752 0.0
O62 O 0.04341 0.62874 0.04767 0.0
C63 C 0.87724 0.67061 0.02272 0.0
H64 H 0.85817 0.58996 0.15565 0.0
H65 H -0.01443 0.65503 0.15273 0.0
H66 H 0.00686 0.65499 0.89325 0.0
H67 H 0.83605 0.5971 0.88973 0.0
C68 C -0.00108 0.57751 0.52315 0.0
N69 N 0.01911 0.62463 0.45014 0.0
C70 C 0.05123 0.60689 0.43427 0.0
C71 C 0.04237 0.60631 0.40246 0.0
C72 C 0.00143 0.62436 0.38661 0.0
C73 C -0.02833 0.64279 0.40364 0.0
C74 C -0.01983 0.64244 0.43542 0.0
Zn75 Zn 0.02179 0.62417 0.49713 0.0
C76 C 0.84543 0.62912 0.52276 0.0
N77 N 0.02107 0.62325 0.59508 0.0
C78 C 0.06462 0.60728 0.6119 0.0
C79 C -0.02782 0.63931 0.60881 0.0
C80 C -0.03513 0.63961 0.64058 0.0
C81 C 0.00836 0.62324 0.65862 0.0
C82 C 0.05908 0.60695 0.64387 0.0
Zn83 Zn 0.02301 0.62333 0.5482 0.0
O84 O 0.00257 0.58875 0.4981 0.0
C85 C 0.19916 0.61838 0.52242 0.0
O86 O 0.0058 0.5878 0.5483 0.0
H87 H 0.93761 0.65178 0.59506 0.0
H88 H 0.08211 0.59289 0.44632 0.0
H89 H 0.10312 0.59466 0.60053 0.0
O90 O 0.15721 0.61947 0.49738 0.0
O91 O 0.15863 0.61915 0.5477 0.0
H92 H 0.9543 0.65632 0.44836 0.0
O93 O 0.04279 0.65877 0.54743 0.0
O94 O 0.04355 0.6595 0.49728 0.0
O95 O 0.88723 0.62748 0.54771 0.0
O96 O 0.88625 0.62883 0.49758 0.0
C97 C 0.05232 0.66974 0.52237 0.0
H98 H 0.06546 0.59154 0.39066 0.0
H99 H 0.94159 0.65741 0.39267 0.0
H100 H 0.9239 0.65226 0.65084 0.0
H101 H 0.09446 0.59415 0.65685 0.0
C102 C 0.86933 0.31668 0.52451 0.0
N103 N 0.90658 0.36305 0.45155 0.0
C104 C 0.94515 0.34518 0.43783 0.0
C105 C 0.95405 0.34483 0.40611 0.0
C106 C 0.92523 0.36333 0.38801 0.0
C107 C 0.88492 0.38151 0.40283 0.0
C108 C 0.87562 0.38093 0.43468 0.0
Zn109 Zn 0.90287 0.36295 0.49858 0.0
C110 C 0.7257 0.36854 0.52358 0.0
N111 N 0.90358 0.36167 0.59675 0.0
C112 C 0.94192 0.34379 0.61152 0.0
C113 C 0.87223 0.37952 0.61259 0.0
C114 C 0.88149 0.38016 0.64439 0.0
C115 C 0.92208 0.36206 0.66027 0.0
C116 C 0.95079 0.3435 0.64328 0.0
Zn117 Zn 0.90192 0.36212 0.54973 0.0
O118 O 0.87981 0.32762 0.49948 0.0
C119 C 0.07927 0.35652 0.52472 0.0
O120 O 0.87863 0.32685 0.54961 0.0
H121 H 0.84189 0.3936 0.60051 0.0
H122 H -0.02963 0.33121 0.45152 0.0
H123 H -0.03273 0.32983 0.59862 0.0
O124 O 0.03842 0.35802 0.49954 0.0
O125 O 0.03748 0.35711 0.5497 0.0
H126 H 0.84522 0.39501 0.44594 0.0
O127 O 0.92262 0.39749 0.54889 0.0
O128 O 0.92317 0.39838 0.4987 0.0
O129 O 0.7665 0.36715 0.54886 0.0
O130 O 0.7674 0.36789 0.49852 0.0
C131 C 0.92883 0.40867 0.52387 0.0
H132 H -0.01642 0.33012 0.39601 0.0
H133 H 0.86255 0.39634 0.39016 0.0
H134 H 0.85917 0.39504 0.65615 0.0
H135 H -0.0195 0.32884 0.65427 0.0
C136 C 0.49614 0.90946 0.0243 0.0
N137 N 0.52215 0.86298 0.09781 0.0
C138 C 0.55477 0.88088 0.11327 0.0
C139 C 0.54817 0.88158 0.14513 0.0
C140 C 0.50948 0.86346 0.16121 0.0
C141 C 0.47831 0.84498 0.14485 0.0
C142 C 0.4844 0.84521 0.11299 0.0
Zn143 Zn 0.52327 0.86312 0.05079 0.0
C144 C 0.34589 0.85741 0.02574 0.0
N145 N 0.51933 0.86346 0.95266 0.0
C146 C 0.55191 0.88127 0.93607 0.0
C147 C 0.48137 0.84563 0.93863 0.0
C148 C 0.47546 0.84518 0.9068 0.0
C149 C 0.50696 0.86351 0.88924 0.0
C150 C 0.54546 0.88175 0.90415 0.0
Zn151 Zn 0.52207 0.86353 0.99966 0.0
O152 O 0.50263 0.89853 0.04952 0.0
C153 C 0.69933 0.86921 0.0247 0.0
O154 O 0.50157 0.89891 0.99934 0.0
H155 H 0.45454 0.8318 0.95214 0.0
H156 H 0.58491 0.8948 0.10088 0.0
H157 H 0.58217 0.89525 0.94757 0.0
O158 O 0.65867 0.86801 0.04998 0.0
O159 O 0.65749 0.86839 0.99967 0.0
H160 H 0.45758 0.8313 0.10036 0.0
O161 O 0.54511 0.82824 1.00091 0.0
O162 O 0.54638 0.8278 0.05106 0.0
O163 O 0.38659 0.85867 1.00053 0.0
O164 O 0.38777 0.85823 0.05071 0.0
C165 C 0.55557 0.81745 0.02608 0.0
H166 H 0.57333 0.89606 0.15711 0.0
H167 H 0.44742 0.8308 0.15654 0.0
H168 H 0.44464 0.83092 0.89602 0.0
H169 H 0.57078 0.89613 0.89122 0.0
C170 C 0.42805 0.07834 0.02546 0.0
N171 N 0.41025 0.12441 0.09711 0.0
C172 C 0.36676 0.10856 0.11407 0.0
C173 C 0.37246 0.10837 0.14602 0.0
C174 C 0.42326 0.12469 0.16062 0.0
C175 C 0.46683 0.14091 0.14246 0.0
C176 C 0.45939 0.14046 0.1107 0.0
Zn177 Zn 0.4071 0.12436 0.05029 0.0
C178 C 0.58341 0.12946 0.02423 0.0
N179 N 0.40682 0.12531 0.95241 0.0
C180 C 0.3634 0.10934 0.93646 0.0
C181 C 0.45535 0.1414 0.9378 0.0
C182 C 0.46261 0.14168 0.906 0.0
C183 C 0.41951 0.12526 0.88888 0.0
C184 C 0.36892 0.109 0.90453 0.0
Zn185 Zn 0.40574 0.12489 0.99927 0.0
O186 O 0.42362 0.08888 0.05048 0.0
C187 C 0.22967 0.11976 0.02532 0.0
O188 O 0.42281 0.08936 1.00024 0.0
H189 H 0.48983 0.15385 0.95088 0.0
H190 H 0.32804 0.09595 0.1028 0.0
H191 H 0.3252 0.0967 0.94853 0.0
O192 O 0.27152 0.12042 0.05035 0.0
O193 O 0.27028 0.12082 1.00005 0.0
H194 H 0.49388 0.15284 0.09683 0.0
O195 O 0.38604 0.16035 0.99917 0.0
O196 O 0.38806 0.15978 0.04934 0.0
O197 O 0.54146 0.12892 0.9993 0.0
O198 O 0.54277 0.12825 0.04941 0.0
C199 C 0.37822 0.17069 0.02424 0.0
H200 H 0.33703 0.09569 0.15912 0.0
H201 H 0.50783 0.15358 0.15262 0.0
H202 H 0.50339 0.15434 0.89503 0.0
H203 H 0.33375 0.09618 0.89226 0.0
C204 C 0.49874 0.07767 0.5248 0.0
N205 N 0.51953 0.12502 0.45243 0.0
C206 C 0.56351 0.1091 0.43654 0.0
C207 C 0.5578 0.10867 0.40463 0.0
C208 C 0.50636 0.12477 0.38893 0.0
C209 C 0.46287 0.14119 0.40597 0.0
C210 C 0.4704 0.14101 0.43777 0.0
Zn211 Zn 0.52049 0.12441 0.49927 0.0
C212 C 0.34296 0.12882 0.52419 0.0
N213 N 0.51626 0.12323 0.59713 0.0
C214 C 0.5598 0.10725 0.61395 0.0
C215 C 0.4668 0.13917 0.61086 0.0
C216 C 0.45895 0.13935 0.64262 0.0
C217 C 0.5025 0.12298 0.66064 0.0
C218 C 0.55375 0.1068 0.64589 0.0
Zn219 Zn 0.51953 0.12347 0.55028 0.0
O220 O 0.50385 0.08894 0.4998 0.0
C221 C 0.69682 0.11905 0.52536 0.0
O222 O 0.50318 0.08794 0.55004 0.0
H223 H 0.43229 0.15165 0.59711 0.0
H224 H 0.60219 0.09654 0.44865 0.0
H225 H 0.59877 0.09473 0.60258 0.0
O226 O 0.65604 0.12035 0.5001 0.0
O227 O 0.65511 0.11947 0.5504 0.0
H228 H 0.43553 0.15343 0.45082 0.0
O229 O 0.53848 0.15895 0.54968 0.0
O230 O 0.53962 0.15981 0.49951 0.0
O231 O 0.38379 0.12743 0.54935 0.0
O232 O 0.38475 0.12844 0.49924 0.0
C233 C 0.5478 0.17 0.52467 0.0
H234 H 0.59334 0.09587 0.39242 0.0
H235 H 0.4215 0.15374 0.39495 0.0
H236 H 0.41761 0.15192 0.65288 0.0
H237 H 0.58921 0.09402 0.65887 0.0
C238 C 0.37089 0.81683 0.52556 0.0
N239 N 0.4052 0.8634 0.45258 0.0
C240 C 0.44365 0.84565 0.43854 0.0
C241 C 0.45189 0.84553 0.40678 0.0
C242 C 0.42246 0.86413 0.38899 0.0
C243 C 0.38221 0.88216 0.40414 0.0
C244 C 0.37361 0.88135 0.43601 0.0
Zn245 Zn 0.40283 0.86316 0.49962 0.0
C246 C 0.2267 0.86863 0.52531 0.0
N247 N 0.4063 0.8618 0.59776 0.0
C248 C 0.44515 0.84406 0.61266 0.0
C249 C 0.37355 0.87954 0.61346 0.0
C250 C 0.38157 0.8802 0.64529 0.0
C251 C 0.42228 0.86221 0.66136 0.0
C252 C 0.45287 0.84379 0.64448 0.0
Zn253 Zn 0.404 0.86225 0.55076 0.0
O254 O 0.37994 0.82784 0.50051 0.0
C255 C 0.58029 0.85676 0.52506 0.0
O256 O 0.38129 0.82695 0.55066 0.0
H257 H 0.34272 0.89349 0.60128 0.0
H258 H 0.4693 0.83162 0.45201 0.0
H259 H 0.47142 0.83017 0.59984 0.0
O260 O 0.53838 0.85824 0.50009 0.0
O261 O 0.53958 0.85736 0.55026 0.0
H262 H 0.3433 0.89533 0.44752 0.0
O263 O 0.42429 0.8976 0.54995 0.0
O264 O 0.42312 0.89859 0.49977 0.0
O265 O 0.26855 0.86717 0.55036 0.0
O266 O 0.26736 0.86806 0.50003 0.0
C267 C 0.42962 0.90884 0.52494 0.0
H268 H 0.48142 0.83093 0.39641 0.0
H269 H 0.35938 0.89705 0.39172 0.0
H270 H 0.35792 0.89498 0.65695 0.0
H271 H 0.48286 0.82923 0.65561 0.0
H272 H 0.3074 0.36889 0.07394 0.0
H273 H 0.73839 0.35765 0.97406 0.0
H274 H 0.30977 0.36905 0.97518 0.0
H275 H 0.73603 0.35744 0.07283 0.0
H276 H 0.58116 0.36126 0.97404 0.0
H277 H 0.46457 0.36515 0.07397 0.0
C278 C 0.34098 0.36835 0.05224 0.0
C279 C 0.29521 0.36927 0.0245 0.0
C280 C 0.61497 0.36033 0.99572 0.0
C281 C 0.47528 0.36472 0.0244 0.0
C282 C 0.70479 0.35816 0.99576 0.0
C283 C 0.75058 0.35727 0.0235 0.0
C284 C 0.57045 0.36167 0.02361 0.0
C285 C 0.70349 0.35805 0.0509 0.0
C286 C 0.43077 0.3661 0.05229 0.0
C287 C 0.34229 0.36842 0.99711 0.0
N288 N 0.61607 0.36029 0.05025 0.0
N289 N 0.42968 0.36611 0.99776 0.0
H290 H 0.19163 0.63128 0.97279 0.0
H291 H 0.62328 0.61788 0.07268 0.0
H292 H 0.19441 0.62848 0.07156 0.0
H293 H 0.62033 0.62104 0.97392 0.0
H294 H 0.46599 0.62126 0.07273 0.0
H295 H 0.34891 0.62801 0.97279 0.0
C296 C 0.22533 0.63016 0.9945 0.0
C297 C 0.17971 0.63011 0.02223 0.0
C298 C 0.49971 0.62113 0.05104 0.0
C299 C 0.35983 0.62612 0.02237 0.0
C300 C 0.58954 0.61909 0.05099 0.0
C301 C 0.63512 0.6192 0.02324 0.0
C302 C 0.45503 0.62331 0.02316 0.0
C303 C 0.58792 0.62088 0.99585 0.0
C304 C 0.31517 0.62819 0.99447 0.0
C305 C 0.22688 0.62859 0.04964 0.0
N306 N 0.50049 0.62294 0.99651 0.0
N307 N 0.31434 0.62656 0.04901 0.0
H308 H 0.73811 0.62884 0.57249 0.0
H309 H 0.30645 0.61861 0.47264 0.0
H310 H 0.73513 0.62932 0.47371 0.0
H311 H 0.30953 0.61849 0.57142 0.0
H312 H 0.46366 0.62205 0.47258 0.0
H313 H 0.58088 0.62554 0.57251 0.0
C314 C 0.70437 0.62844 0.55078 0.0
C315 C 0.74993 0.62932 0.52304 0.0
C316 C 0.42999 0.62119 0.49427 0.0
C317 C 0.56986 0.62529 0.52293 0.0
C318 C 0.3402 0.61911 0.49434 0.0
C319 C 0.29467 0.61828 0.52209 0.0
C320 C 0.47469 0.62247 0.52215 0.0
C321 C 0.3419 0.61906 0.54947 0.0
C322 C 0.61455 0.62645 0.55082 0.0
C323 C 0.70271 0.6287 0.49564 0.0
N324 N 0.42929 0.62119 0.5488 0.0
N325 N 0.61528 0.62663 0.49629 0.0
H326 H 0.61751 0.36941 0.47393 0.0
H327 H 0.18745 0.35548 0.57438 0.0
H328 H 0.61588 0.36726 0.5727 0.0
H329 H 0.18907 0.35776 0.47561 0.0
H330 H 0.34465 0.35918 0.57421 0.0
H331 H 0.46038 0.3656 0.4741 0.0
C332 C 0.5841 0.36835 0.49567 0.0
C333 C 0.63007 0.36864 0.52335 0.0
C334 C 0.31067 0.35877 0.55257 0.0
C335 C 0.45006 0.364 0.52369 0.0
C336 C 0.22088 0.35654 0.55264 0.0
C337 C 0.17489 0.35634 0.52496 0.0
C338 C 0.35494 0.36085 0.52462 0.0
C339 C 0.22176 0.35784 0.49751 0.0
C340 C 0.49434 0.36606 0.49574 0.0
C341 C 0.5832 0.36714 0.5508 0.0
N342 N 0.30913 0.36012 0.49804 0.0
N343 N 0.49586 0.36479 0.55027 0.0
H344 H 0.80707 0.86979 0.97501 0.0
H345 H 0.23812 0.85664 0.07543 0.0
H346 H 0.80952 0.8682 0.07379 0.0
H347 H 0.23572 0.85834 0.97665 0.0
H348 H 0.08087 0.86026 0.07528 0.0
H349 H -0.03574 0.86604 0.97516 0.0
C350 C 0.84067 0.86887 0.99675 0.0
C351 C 0.79493 0.8693 0.02444 0.0
C352 C 0.11469 0.85975 0.05363 0.0
C353 C -0.02501 0.86472 0.02476 0.0
C354 C 0.20452 0.85757 0.05369 0.0
C355 C 0.25029 0.85722 0.026 0.0
C356 C 0.07017 0.86164 0.02568 0.0
C357 C 0.20319 0.85853 0.99855 0.0
C358 C 0.93047 0.8666 0.99681 0.0
C359 C 0.84202 0.86796 0.05189 0.0
N360 N 0.11578 0.86077 0.9991 0.0
N361 N 0.9294 0.86565 0.05134 0.0
H362 H 0.12217 0.11912 0.07501 0.0
H363 H 0.6909 0.1303 0.97453 0.0
H364 H 0.11979 0.12061 0.97622 0.0
H365 H 0.69328 0.1286 0.07333 0.0
H366 H 0.8483 0.1273 0.97469 0.0
H367 H -0.03517 0.12222 0.07485 0.0
C368 C 0.08854 0.11992 0.05328 0.0
C369 C 0.13425 0.11963 0.02558 0.0
C370 C 0.81442 0.12766 0.99634 0.0
C371 C 0.95416 0.12341 0.02524 0.0
C372 C 0.72454 0.12947 0.99627 0.0
C373 C 0.67883 0.12966 0.02397 0.0
C374 C 0.85895 0.12599 0.0243 0.0
C375 C 0.72585 0.1285 0.05143 0.0
C376 C -0.00131 0.12179 0.0532 0.0
C377 C 0.08723 0.12077 0.99812 0.0
N378 N 0.81332 0.12664 0.05089 0.0
N379 N -0.00023 0.12268 0.99865 0.0
H380 H 0.23507 0.13001 0.47453 0.0
H381 H 0.80472 0.11806 0.57502 0.0
H382 H 0.23347 0.12764 0.57332 0.0
H383 H 0.80633 0.12027 0.47623 0.0
H384 H 0.96201 0.1212 0.57484 0.0
H385 H 0.07771 0.127 0.4747 0.0
C386 C 0.20161 0.12903 0.49627 0.0
C387 C 0.24753 0.12903 0.52396 0.0
C388 C 0.92799 0.12092 0.5532 0.0
C389 C 0.06746 0.12536 0.5243 0.0
C390 C 0.83816 0.11903 0.55328 0.0
C391 C 0.79225 0.11893 0.52559 0.0
C392 C -0.02772 0.12275 0.52524 0.0
C393 C 0.83905 0.12028 0.49813 0.0
C394 C 0.11175 0.12721 0.49634 0.0
C395 C 0.20074 0.12769 0.55142 0.0
N396 N 0.92648 0.12221 0.49865 0.0
N397 N 0.11328 0.12583 0.55089 0.0
H398 H 0.68771 0.85698 0.4753 0.0
H399 H 0.11927 0.86828 0.57507 0.0
H400 H 0.69081 0.85674 0.57407 0.0
H401 H 0.11618 0.86857 0.4763 0.0
H402 H 0.96216 0.86451 0.57513 0.0
H403 H 0.84488 0.86064 0.47523 0.0
C404 C 0.72146 0.85749 0.49699 0.0
C405 C 0.67589 0.85658 0.52474 0.0
C406 C -0.00422 0.8655 0.55344 0.0
C407 C 0.85595 0.86105 0.5248 0.0
C408 C 0.08554 0.86777 0.55337 0.0
C409 C 0.1311 0.86873 0.52562 0.0
C410 C 0.95109 0.86414 0.52556 0.0
C411 C 0.08383 0.86791 0.49824 0.0
C412 C 0.81124 0.85969 0.49693 0.0
C413 C 0.72318 0.85737 0.55213 0.0
N414 N -0.00353 0.86558 0.49891 0.0
N415 N 0.81055 0.85965 0.55145 0.0
H416 H 0.94135 0.55111 0.97257 0.0
H417 H -0.01715 0.43677 0.07315 0.0
H418 H 0.94396 0.54912 0.07137 0.0
H419 H -0.01565 0.43871 0.97434 0.0
H420 H -0.0331 0.47792 0.0729 0.0
H421 H 0.95626 0.5099 0.97272 0.0
C422 C 0.94521 0.54201 0.9943 0.0
C423 C 0.94145 0.55357 0.02201 0.0
C424 C -0.02938 0.46935 0.05127 0.0
C425 C 0.95827 0.50641 0.02233 0.0
C426 C -0.02038 0.44584 0.05138 0.0
C427 C -0.01504 0.43429 0.02371 0.0
C428 C -0.03305 0.48142 0.02328 0.0
C429 C -0.01952 0.44693 0.99622 0.0
C430 C 0.95364 0.51848 0.99436 0.0
C431 C 0.94667 0.54091 0.04946 0.0
N432 N -0.02819 0.46983 0.99671 0.0
N433 N 0.95476 0.518 0.04892 0.0
H434 H 0.94352 0.43581 0.57359 0.0
H435 H -0.01581 0.55034 0.47348 0.0
H436 H 0.94133 0.43805 0.47479 0.0
H437 H -0.01085 0.54807 0.57227 0.0
H438 H -0.03186 0.50921 0.47354 0.0
H439 H 0.96063 0.47693 0.57356 0.0
C440 C 0.94681 0.44494 0.55187 0.0
C441 C 0.94097 0.43348 0.52413 0.0
C442 C -0.0273 0.5177 0.49521 0.0
C443 C 0.96033 0.48057 0.52396 0.0
C444 C -0.01822 0.5412 0.4952 0.0
C445 C -0.01202 0.55267 0.52293 0.0
C446 C -0.03021 0.50555 0.52313 0.0
C447 C -0.01543 0.53993 0.55035 0.0
C448 C 0.95651 0.46843 0.55188 0.0
C449 C 0.94558 0.44619 0.49671 0.0
N450 N -0.02429 0.51704 0.54975 0.0
N451 N 0.9549 0.46907 0.49733 0.0
H452 H 0.48124 0.93814 0.97458 0.0
H453 H 0.44052 0.04955 0.07512 0.0
H454 H 0.48379 0.93731 0.07338 0.0
H455 H 0.43833 0.05047 0.97632 0.0
H456 H 0.45576 0.00836 0.07491 0.0
H457 H 0.46421 0.9793 0.97474 0.0
C458 C 0.47803 0.94661 0.99631 0.0
C459 C 0.48398 0.93428 0.02402 0.0
C460 C 0.45197 0.01757 0.05327 0.0
C461 C 0.46472 0.98137 0.02435 0.0
C462 C 0.44334 0.04109 0.05337 0.0
C463 C 0.43821 0.05347 0.02568 0.0
C464 C 0.45548 0.00633 0.0253 0.0
C465 C 0.44211 0.04161 0.99821 0.0
C466 C 0.46839 0.97011 0.99638 0.0
C467 C 0.47948 0.94614 0.05148 0.0
N468 N 0.45051 0.01869 0.99872 0.0
N469 N 0.47021 0.96903 0.05094 0.0
H470 H 0.48719 0.05054 0.47498 0.0
H471 H 0.44461 0.93589 0.57471 0.0
H472 H 0.48749 0.04816 0.57377 0.0
H473 H 0.44202 0.93827 0.47591 0.0
H474 H 0.46194 0.97699 0.57478 0.0
H475 H 0.47166 0.00938 0.47486 0.0
C476 C 0.4839 0.04137 0.49666 0.0
C477 C 0.48857 0.05281 0.52444 0.0
C478 C 0.45768 0.96853 0.55308 0.0
C479 C 0.47095 0.00568 0.52444 0.0
C480 C 0.44786 0.94505 0.55301 0.0
C481 C 0.44182 0.93363 0.52525 0.0
C482 C 0.46147 0.9807 0.5252 0.0
C483 C 0.44639 0.94638 0.49785 0.0
C484 C 0.47509 0.01786 0.49656 0.0
C485 C 0.48407 0.04004 0.55182 0.0
N486 N 0.45587 0.96925 0.49853 0.0
N487 N 0.47552 0.01715 0.55112 0.0
H488 H 0.0927 0.29165 0.97477 0.0
H489 H 0.34387 0.19686 0.07376 0.0
H490 H 0.10615 0.29103 0.07345 0.0
H491 H 0.32888 0.1972 0.97511 0.0
H492 H 0.2608 0.23205 0.07398 0.0
H493 H 0.17705 0.25667 0.97449 0.0
C494 C 0.11221 0.28398 0.99642 0.0
C495 C 0.09252 0.29434 0.02419 0.0
C496 C 0.27623 0.22452 0.05227 0.0
C497 C 0.19063 0.25451 0.02397 0.0
C498 C 0.32437 0.20452 0.0521 0.0
C499 C 0.3431 0.19399 0.02436 0.0
C500 C 0.24641 0.23406 0.02453 0.0
C501 C 0.31591 0.20469 0.99703 0.0
C502 C 0.16105 0.26409 0.99622 0.0
C503 C 0.11978 0.28364 0.05151 0.0
N504 N 0.26836 0.22405 0.99783 0.0
N505 N 0.16798 0.2644 0.05069 0.0
H506 H 0.60013 0.79069 0.07555 0.0
H507 H 0.83606 0.698 0.97354 0.0
H508 H 0.59802 0.79191 0.97675 0.0
H509 H 0.83386 0.69579 0.07233 0.0
H510 H 0.75309 0.7332 0.97436 0.0
H511 H 0.68402 0.7556 0.0749 0.0
C512 C 0.61609 0.7834 0.05371 0.0
C513 C 0.59221 0.79431 0.02615 0.0
C514 C 0.77128 0.7251 0.99586 0.0
C515 C 0.68975 0.7544 0.02526 0.0
C516 C 0.81937 0.70509 0.99542 0.0
C517 C 0.84168 0.69386 0.02291 0.0
C518 C 0.74516 0.73393 0.02399 0.0
C519 C 0.818 0.70384 0.05057 0.0
C520 C 0.66468 0.76346 0.05336 0.0
C521 C 0.61505 0.78411 0.99856 0.0
N522 N 0.77048 0.72322 0.05039 0.0
N523 N 0.66306 0.76482 0.99883 0.0
H524 H 0.09316 0.69699 0.47307 0.0
H525 H 0.32912 0.78969 0.57489 0.0
H526 H 0.0954 0.69506 0.57186 0.0
H527 H 0.32656 0.79162 0.47609 0.0
H528 H 0.24613 0.75454 0.57423 0.0
H529 H 0.17538 0.73226 0.47376 0.0
C530 C 0.10972 0.70416 0.49492 0.0
C531 C 0.0876 0.69299 0.52246 0.0
C532 C 0.26423 0.76257 0.55269 0.0
C533 C 0.18326 0.73314 0.52338 0.0
C534 C 0.31231 0.78255 0.55304 0.0
C535 C 0.33463 0.79368 0.5255 0.0
C536 C 0.23813 0.75367 0.52461 0.0
C537 C 0.31074 0.78366 0.49789 0.0
C538 C 0.15735 0.72421 0.49529 0.0
C539 C 0.11109 0.70306 0.55007 0.0
N540 N 0.26329 0.7643 0.49816 0.0
N541 N 0.15819 0.72247 0.54982 0.0
H542 H 0.83056 0.29103 0.47488 0.0
H543 H 0.58486 0.19579 0.57435 0.0
H544 H 0.82057 0.29017 0.57361 0.0
H545 H 0.59402 0.19688 0.47561 0.0
H546 H 0.66758 0.23098 0.57449 0.0
H547 H 0.74639 0.25609 0.47477 0.0
C548 C 0.81185 0.28331 0.49657 0.0
C549 C 0.83247 0.2936 0.52431 0.0
C550 C 0.65092 0.22362 0.55278 0.0
C551 C 0.73457 0.25381 0.52429 0.0
C552 C 0.60299 0.20361 0.55267 0.0
C553 C 0.58274 0.19329 0.52492 0.0
C554 C 0.67902 0.23336 0.52496 0.0
C555 C 0.60822 0.2042 0.49755 0.0
C556 C 0.76309 0.26345 0.49647 0.0
C557 C 0.80617 0.28285 0.55168 0.0
N558 N 0.65561 0.22354 0.49828 0.0
N559 N 0.75808 0.26362 0.55096 0.0
H560 H 0.92973 0.39653 0.19319 0.0
H561 H 0.05896 0.34451 0.35533 0.0
H562 H 0.05762 0.33178 0.20268 0.0
H563 H 0.82367 0.3833 0.34275 0.0
H564 H 0.07786 0.34438 0.30005 0.0
H565 H 0.90947 0.39695 0.24895 0.0
C566 C 0.95395 0.3825 0.2071 0.0
C567 C -0.00465 0.36409 0.1935 0.0
C568 C 0.02211 0.35288 0.30951 0.0
C569 C -0.02659 0.36458 0.2569 0.0
C570 C 0.01063 0.35285 0.34114 0.0
C571 C 0.93878 0.36372 0.35413 0.0
C572 C 0.96267 0.36429 0.29053 0.0
C573 C 0.88062 0.37492 0.33414 0.0
C574 C 0.94196 0.38268 0.23876 0.0
C575 C 0.02507 0.34622 0.21238 0.0
N576 N 0.89407 0.375 0.30338 0.0
N577 N 0.01417 0.34698 0.2432 0.0
H578 H -0.00132 0.58954 0.19426 0.0
H579 H 0.86696 0.64265 0.35267 0.0
H580 H 0.86756 0.65391 0.19908 0.0
H581 H 0.10408 0.60457 0.34271 0.0
H582 H 0.84747 0.64214 0.2974 0.0
H583 H 0.01802 0.58958 0.2501 0.0
C584 C -0.02657 0.60356 0.20717 0.0
C585 C 0.93156 0.62175 0.19225 0.0
C586 C 0.90372 0.63393 0.30744 0.0
C587 C 0.95251 0.62181 0.25569 0.0
C588 C 0.91554 0.63434 0.33905 0.0
C589 C -0.01202 0.62382 0.35276 0.0
C590 C 0.96348 0.62249 0.28927 0.0
C591 C 0.0466 0.61266 0.33354 0.0
C592 C -0.01508 0.60365 0.23887 0.0
C593 C 0.9005 0.63963 0.20984 0.0
N594 N 0.03282 0.61219 0.30283 0.0
N595 N 0.91103 0.63915 0.24072 0.0
H596 H 0.92977 0.66225 0.8464 0.0
H597 H -0.00785 0.5865 0.69795 0.0
H598 H 0.93989 0.58909 0.84984 0.0
H599 H 0.00321 0.65965 0.69668 0.0
H600 H -0.02863 0.58691 0.75338 0.0
H601 H 0.95327 0.66145 0.79127 0.0
C602 C 0.93722 0.646 0.8356 0.0
C603 C 0.93311 0.62571 0.8529 0.0
C604 C -0.02151 0.60286 0.74096 0.0
C605 C 0.95935 0.62466 0.78952 0.0
C606 C -0.00902 0.60264 0.70931 0.0
C607 C -0.00077 0.62308 0.69252 0.0
C608 C -0.02587 0.62366 0.75599 0.0
C609 C -0.0042 0.64348 0.70853 0.0
C610 C 0.95033 0.64555 0.80405 0.0
C611 C 0.94159 0.60516 0.83745 0.0
N612 N -0.01661 0.64324 0.73928 0.0
N613 N 0.95447 0.60517 0.80668 0.0
H614 H 0.05684 0.34358 0.69387 0.0
H615 H 0.93168 0.39765 0.85237 0.0
H616 H 0.82154 0.38233 0.7044 0.0
H617 H 0.06143 0.33309 0.84747 0.0
H618 H 0.9105 0.39741 0.79662 0.0
H619 H 0.07809 0.3443 0.74904 0.0
C620 C 0.00899 0.35207 0.70759 0.0
C621 C 0.93652 0.36272 0.69407 0.0
C622 C 0.94371 0.38335 0.80782 0.0
C623 C 0.96309 0.36427 0.75746 0.0
C624 C 0.95626 0.38355 0.83946 0.0
C625 C -0.00171 0.36536 0.85435 0.0
C626 C -0.02481 0.36508 0.79099 0.0
C627 C 0.02841 0.34737 0.83675 0.0
C628 C 0.02183 0.3526 0.73915 0.0
C629 C 0.87897 0.37412 0.71342 0.0
N630 N 0.01684 0.34775 0.80592 0.0
N631 N 0.89373 0.37469 0.74407 0.0
H632 H 0.56349 0.8317 0.20326 0.0
H633 H 0.31928 0.88422 0.34432 0.0
H634 H 0.43264 0.89613 0.19529 0.0
H635 H 0.55565 0.8457 0.35565 0.0
H636 H 0.34306 0.88502 0.28906 0.0
H637 H 0.5435 0.83233 0.25895 0.0
C638 C 0.5306 0.84596 0.21332 0.0
C639 C 0.49993 0.86394 0.19486 0.0
C640 C 0.3895 0.87643 0.3038 0.0
C641 C 0.47558 0.86458 0.25813 0.0
C642 C 0.37639 0.87604 0.33543 0.0
C643 C 0.43527 0.86479 0.35508 0.0
C644 C 0.461 0.86514 0.29156 0.0
C645 C 0.50702 0.85411 0.34171 0.0
C646 C 0.51949 0.84635 0.24499 0.0
C647 C 0.45777 0.88206 0.20889 0.0
N648 N 0.5174 0.8544 0.31085 0.0
N649 N 0.44602 0.88184 0.23973 0.0
H650 H 0.42732 0.16134 0.1982 0.0
H651 H 0.49018 0.08759 0.35245 0.0
H652 H 0.43983 0.0882 0.20037 0.0
H653 H 0.49888 0.16075 0.34818 0.0
H654 H 0.46908 0.08728 0.29704 0.0
H655 H 0.44908 0.16127 0.25344 0.0
C656 C 0.43492 0.14525 0.21026 0.0
C657 C 0.43218 0.12475 0.1945 0.0
C658 C 0.47572 0.1034 0.30824 0.0
C659 C 0.4564 0.12454 0.25803 0.0
C660 C 0.48841 0.10359 0.33987 0.0
C661 C 0.49629 0.12424 0.3551 0.0
C662 C 0.47075 0.124 0.29163 0.0
C663 C 0.49192 0.14443 0.33757 0.0
C664 C 0.44702 0.14522 0.24188 0.0
C665 C 0.44066 0.10441 0.21154 0.0
N666 N 0.47938 0.14379 0.30684 0.0
N667 N 0.45261 0.10482 0.24235 0.0
H668 H 0.42421 0.1615 0.84859 0.0
H669 H 0.48678 0.08613 0.69981 0.0
H670 H 0.43674 0.08837 0.85187 0.0
H671 H 0.49631 0.15929 0.69884 0.0
H672 H 0.46615 0.08638 0.75526 0.0
H673 H 0.4465 0.16081 0.79341 0.0
C674 C 0.43193 0.14528 0.83774 0.0
C675 C 0.42895 0.12496 0.85502 0.0
C676 C 0.47287 0.10237 0.7429 0.0
C677 C 0.45379 0.12404 0.79156 0.0
C678 C 0.48527 0.10224 0.71124 0.0
C679 C 0.49309 0.12273 0.69453 0.0
C680 C 0.46818 0.12313 0.75802 0.0
C681 C 0.48924 0.14309 0.71062 0.0
C682 C 0.44434 0.1449 0.80616 0.0
C683 C 0.43766 0.10445 0.8395 0.0
N684 N 0.47695 0.14276 0.74138 0.0
N685 N 0.44987 0.10451 0.80869 0.0
H686 H 0.31736 0.88192 0.70464 0.0
H687 H 0.56277 0.83147 0.84968 0.0
H688 H 0.55538 0.84402 0.6961 0.0
H689 H 0.42979 0.89567 0.85261 0.0
H690 H 0.54329 0.83143 0.79391 0.0
H691 H 0.34081 0.88316 0.75982 0.0
C692 C 0.37478 0.87396 0.71412 0.0
C693 C 0.43437 0.86283 0.69527 0.0
C694 C 0.51873 0.84555 0.80679 0.0
C695 C 0.45968 0.86366 0.75878 0.0
C696 C 0.52956 0.84554 0.83849 0.0
C697 C 0.49808 0.86364 0.85556 0.0
C698 C 0.47426 0.86352 0.79223 0.0
C699 C 0.45552 0.88151 0.84011 0.0
C700 C 0.38769 0.87461 0.74571 0.0
C701 C 0.50634 0.85237 0.70943 0.0
N702 N 0.44403 0.88091 0.80929 0.0
N703 N 0.51658 0.85291 0.74028 0.0
loop_
_geom_bond_atom_site_label_1
_geom_bond_atom_site_label_2
_geom_bond_distance
_geom_bond_site_symmetry_2
_ccdc_geom_bond_type
C0 O16 1.251 . S
C0 O18 1.254 1_554 S
N1 C2 1.333 . S
N1 C6 1.307 . S
N1 Zn7 2.020 . S
C2 N1 1.333 . S
C2 C3 1.379 . S
C2 H20 0.952 . S
C3 C2 1.379 . S
C3 C4 1.390 . S
C3 H30 0.949 . S
C4 C3 1.390 . S
C4 C5 1.357 . S
C5 C4 1.357 . S
C5 C6 1.370 . S
C5 H31 0.950 . S
C6 N1 1.307 . S
C6 C5 1.370 . S
C6 H24 0.948 . S
Zn7 N1 2.020 . S
Zn7 O16 2.039 . S
Zn7 O22 2.034 . S
Zn7 O26 2.025 . S
Zn7 O28 2.024 1_455 S
C8 O27 1.246 1_554 S
C8 O28 1.249 . S
N9 C10 1.307 . S
N9 C11 1.333 . S
N9 Zn15 2.020 . S
C10 N9 1.307 . S
C10 C14 1.370 . S
C10 H21 0.948 . S
C11 N9 1.333 . S
C11 C12 1.379 . S
C11 H19 0.952 . S
C12 C11 1.379 . S
C12 C13 1.390 . S
C12 H32 0.949 . S
C13 C12 1.390 . S
C13 C14 1.357 . S
C14 C10 1.370 . S
C14 C13 1.357 . S
C14 H33 0.950 . S
Zn15 N9 2.020 . S
Zn15 O18 2.025 . S
Zn15 O23 2.024 . S
Zn15 O25 2.039 . S
Zn15 O27 2.034 1_455 S
O16 C0 1.251 . S
O16 Zn7 2.039 . S
C17 O22 1.246 . S
C17 O23 1.249 1_554 S
O18 C0 1.254 1_556 S
O18 Zn15 2.025 . S
H19 C11 0.952 . S
H20 C2 0.952 . S
H21 C10 0.948 . S
O22 Zn7 2.034 . S
O22 C17 1.246 . S
O23 Zn15 2.024 . S
O23 C17 1.249 1_556 S
H24 C6 0.948 . S
O25 Zn15 2.039 . S
O25 C29 1.251 1_556 S
O26 Zn7 2.025 . S
O26 C29 1.254 . S
O27 C8 1.246 1_556 S
O27 Zn15 2.034 1_655 S
O28 Zn7 2.024 1_655 S
O28 C8 1.249 . S
C29 O25 1.251 1_554 S
C29 O26 1.254 . S
H30 C3 0.949 . S
H31 C5 0.950 . S
H32 C12 0.949 . S
H33 C14 0.950 . S
C34 O50 1.251 . S
C34 O52 1.254 1_554 S
N35 C36 1.333 . S
N35 C40 1.307 . S
N35 Zn41 2.020 . S
C36 N35 1.333 . S
C36 C37 1.379 . S
C36 H54 0.952 . S
C37 C36 1.379 . S
C37 C38 1.390 . S
C37 H64 0.949 . S
C38 C37 1.390 . S
C38 C39 1.357 . S
C39 C38 1.357 . S
C39 C40 1.370 . S
C39 H65 0.950 . S
C40 N35 1.307 . S
C40 C39 1.370 . S
C40 H58 0.948 . S
Zn41 N35 2.020 . S
Zn41 O50 2.039 . S
Zn41 O56 2.034 . S
Zn41 O60 2.025 . S
Zn41 O62 2.024 1_655 S
C42 O61 1.246 1_554 S
C42 O62 1.249 . S
N43 C44 1.307 . S
N43 C45 1.333 . S
N43 Zn49 2.020 . S
C44 N43 1.307 . S
C44 C48 1.370 . S
C44 H55 0.948 . S
C45 N43 1.333 . S
C45 C46 1.379 . S
C45 H53 0.952 . S
C46 C45 1.379 . S
C46 C47 1.390 . S
C46 H66 0.949 . S
C47 C46 1.390 . S
C47 C48 1.357 . S
C48 C44 1.370 . S
C48 C47 1.357 . S
C48 H67 0.950 . S
Zn49 N43 2.020 . S
Zn49 O52 2.025 . S
Zn49 O57 2.024 . S
Zn49 O59 2.039 . S
Zn49 O61 2.034 1_655 S
O50 C34 1.251 . S
O50 Zn41 2.039 . S
C51 O56 1.246 . S
C51 O57 1.249 1_554 S
O52 C34 1.254 1_556 S
O52 Zn49 2.025 . S
H53 C45 0.952 . S
H54 C36 0.952 . S
H55 C44 0.948 . S
O56 Zn41 2.034 . S
O56 C51 1.246 . S
O57 Zn49 2.024 . S
O57 C51 1.249 1_556 S
H58 C40 0.948 . S
O59 Zn49 2.039 . S
O59 C63 1.251 1_556 S
O60 Zn41 2.025 . S
O60 C63 1.254 . S
O61 C42 1.246 1_556 S
O61 Zn49 2.034 1_455 S
O62 Zn41 2.024 1_455 S
O62 C42 1.249 . S
C63 O59 1.251 1_554 S
C63 O60 1.254 . S
H64 C37 0.949 . S
H65 C39 0.950 . S
H66 C46 0.949 . S
H67 C48 0.950 . S
C68 O84 1.251 . S
C68 O86 1.254 . S
N69 C70 1.333 . S
N69 C74 1.307 . S
N69 Zn75 2.020 . S
C70 N69 1.333 . S
C70 C71 1.379 . S
C70 H88 0.952 . S
C71 C70 1.379 . S
C71 C72 1.390 . S
C71 H98 0.949 . S
C72 C71 1.390 . S
C72 C73 1.357 . S
C73 C72 1.357 . S
C73 C74 1.370 . S
C73 H99 0.950 . S
C74 N69 1.307 . S
C74 C73 1.370 . S
C74 H92 0.948 . S
Zn75 N69 2.020 . S
Zn75 O84 2.039 . S
Zn75 O90 2.034 . S
Zn75 O94 2.025 . S
Zn75 O96 2.024 1_455 S
C76 O95 1.246 . S
C76 O96 1.249 . S
N77 C78 1.307 . S
N77 C79 1.333 . S
N77 Zn83 2.020 . S
C78 N77 1.307 . S
C78 C82 1.370 . S
C78 H89 0.948 . S
C79 N77 1.333 . S
C79 C80 1.379 . S
C79 H87 0.952 . S
C80 C79 1.379 . S
C80 C81 1.390 . S
C80 H100 0.949 . S
C81 C80 1.390 . S
C81 C82 1.357 . S
C82 C78 1.370 . S
C82 C81 1.357 . S
C82 H101 0.950 . S
Zn83 N77 2.020 . S
Zn83 O86 2.025 . S
Zn83 O91 2.024 . S
Zn83 O93 2.039 . S
Zn83 O95 2.034 1_455 S
O84 C68 1.251 . S
O84 Zn75 2.039 . S
C85 O90 1.246 . S
C85 O91 1.249 . S
O86 C68 1.254 . S
O86 Zn83 2.025 . S
H87 C79 0.952 . S
H88 C70 0.952 . S
H89 C78 0.948 . S
O90 Zn75 2.034 . S
O90 C85 1.246 . S
O91 Zn83 2.024 . S
O91 C85 1.249 . S
H92 C74 0.948 . S
O93 Zn83 2.039 . S
O93 C97 1.251 . S
O94 Zn75 2.025 . S
O94 C97 1.254 . S
O95 C76 1.246 . S
O95 Zn83 2.034 1_655 S
O96 Zn75 2.024 1_655 S
O96 C76 1.249 . S
C97 O93 1.251 . S
C97 O94 1.254 . S
H98 C71 0.949 . S
H99 C73 0.950 . S
H100 C80 0.949 . S
H101 C82 0.950 . S
C102 O118 1.251 . S
C102 O120 1.254 . S
N103 C104 1.333 . S
N103 C108 1.307 . S
N103 Zn109 2.020 . S
C104 N103 1.333 . S
C104 C105 1.379 . S
C104 H122 0.952 . S
C105 C104 1.379 . S
C105 C106 1.390 . S
C105 H132 0.949 . S
C106 C105 1.390 . S
C106 C107 1.357 . S
C107 C106 1.357 . S
C107 C108 1.370 . S
C107 H133 0.950 . S
C108 N103 1.307 . S
C108 C107 1.370 . S
C108 H126 0.948 . S
Zn109 N103 2.020 . S
Zn109 O118 2.039 . S
Zn109 O124 2.034 1_655 S
Zn109 O128 2.025 . S
Zn109 O130 2.024 . S
C110 O129 1.246 . S
C110 O130 1.249 . S
N111 C112 1.307 . S
N111 C113 1.333 . S
N111 Zn117 2.020 . S
C112 N111 1.307 . S
C112 C116 1.370 . S
C112 H123 0.948 . S
C113 N111 1.333 . S
C113 C114 1.379 . S
C113 H121 0.952 . S
C114 C113 1.379 . S
C114 C115 1.390 . S
C114 H134 0.949 . S
C115 C114 1.390 . S
C115 C116 1.357 . S
C116 C112 1.370 . S
C116 C115 1.357 . S
C116 H135 0.950 . S
Zn117 N111 2.020 . S
Zn117 O120 2.025 . S
Zn117 O125 2.024 1_655 S
Zn117 O127 2.039 . S
Zn117 O129 2.034 . S
O118 C102 1.251 . S
O118 Zn109 2.039 . S
C119 O124 1.246 . S
C119 O125 1.249 . S
O120 C102 1.254 . S
O120 Zn117 2.025 . S
H121 C113 0.952 . S
H122 C104 0.952 . S
H123 C112 0.948 . S
O124 Zn109 2.034 1_455 S
O124 C119 1.246 . S
O125 Zn117 2.024 1_455 S
O125 C119 1.249 . S
H126 C108 0.948 . S
O127 Zn117 2.039 . S
O127 C131 1.251 . S
O128 Zn109 2.025 . S
O128 C131 1.254 . S
O129 C110 1.246 . S
O129 Zn117 2.034 . S
O130 Zn109 2.024 . S
O130 C110 1.249 . S
C131 O127 1.251 . S
C131 O128 1.254 . S
H132 C105 0.949 . S
H133 C107 0.950 . S
H134 C114 0.949 . S
H135 C116 0.950 . S
C136 O152 1.251 . S
C136 O154 1.254 1_554 S
N137 C138 1.333 . S
N137 C142 1.307 . S
N137 Zn143 2.020 . S
C138 N137 1.333 . S
C138 C139 1.379 . S
C138 H156 0.952 . S
C139 C138 1.379 . S
C139 C140 1.390 . S
C139 H166 0.949 . S
C140 C139 1.390 . S
C140 C141 1.357 . S
C141 C140 1.357 . S
C141 C142 1.370 . S
C141 H167 0.950 . S
C142 N137 1.307 . S
C142 C141 1.370 . S
C142 H160 0.948 . S
Zn143 N137 2.020 . S
Zn143 O152 2.039 . S
Zn143 O158 2.034 . S
Zn143 O162 2.025 . S
Zn143 O164 2.024 . S
C144 O163 1.246 1_554 S
C144 O164 1.249 . S
N145 C146 1.307 . S
N145 C147 1.333 . S
N145 Zn151 2.020 . S
C146 N145 1.307 . S
C146 C150 1.370 . S
C146 H157 0.948 . S
C147 N145 1.333 . S
C147 C148 1.379 . S
C147 H155 0.952 . S
C148 C147 1.379 . S
C148 C149 1.390 . S
C148 H168 0.949 . S
C149 C148 1.390 . S
C149 C150 1.357 . S
C150 C146 1.370 . S
C150 C149 1.357 . S
C150 H169 0.950 . S
Zn151 N145 2.020 . S
Zn151 O154 2.025 . S
Zn151 O159 2.024 . S
Zn151 O161 2.039 . S
Zn151 O163 2.034 . S
O152 C136 1.251 . S
O152 Zn143 2.039 . S
C153 O158 1.246 . S
C153 O159 1.249 1_554 S
O154 C136 1.254 1_556 S
O154 Zn151 2.025 . S
H155 C147 0.952 . S
H156 C138 0.952 . S
H157 C146 0.948 . S
O158 Zn143 2.034 . S
O158 C153 1.246 . S
O159 Zn151 2.024 . S
O159 C153 1.249 1_556 S
H160 C142 0.948 . S
O161 Zn151 2.039 . S
O161 C165 1.251 1_556 S
O162 Zn143 2.025 . S
O162 C165 1.254 . S
O163 C144 1.246 1_556 S
O163 Zn151 2.034 . S
O164 Zn143 2.024 . S
O164 C144 1.249 . S
C165 O161 1.251 1_554 S
C165 O162 1.254 . S
H166 C139 0.949 . S
H167 C141 0.950 . S
H168 C148 0.949 . S
H169 C150 0.950 . S
C170 O186 1.251 . S
C170 O188 1.254 1_554 S
N171 C172 1.333 . S
N171 C176 1.307 . S
N171 Zn177 2.020 . S
C172 N171 1.333 . S
C172 C173 1.379 . S
C172 H190 0.952 . S
C173 C172 1.379 . S
C173 C174 1.390 . S
C173 H200 0.949 . S
C174 C173 1.390 . S
C174 C175 1.357 . S
C175 C174 1.357 . S
C175 C176 1.370 . S
C175 H201 0.950 . S
C176 N171 1.307 . S
C176 C175 1.370 . S
C176 H194 0.948 . S
Zn177 N171 2.020 . S
Zn177 O186 2.039 . S
Zn177 O192 2.034 . S
Zn177 O196 2.025 . S
Zn177 O198 2.024 . S
C178 O197 1.246 1_554 S
C178 O198 1.249 . S
N179 C180 1.307 . S
N179 C181 1.333 . S
N179 Zn185 2.020 . S
C180 N179 1.307 . S
C180 C184 1.370 . S
C180 H191 0.948 . S
C181 N179 1.333 . S
C181 C182 1.379 . S
C181 H189 0.952 . S
C182 C181 1.379 . S
C182 C183 1.390 . S
C182 H202 0.949 . S
C183 C182 1.390 . S
C183 C184 1.357 . S
C184 C180 1.370 . S
C184 C183 1.357 . S
C184 H203 0.950 . S
Zn185 N179 2.020 . S
Zn185 O188 2.025 . S
Zn185 O193 2.024 . S
Zn185 O195 2.039 . S
Zn185 O197 2.034 . S
O186 C170 1.251 . S
O186 Zn177 2.039 . S
C187 O192 1.246 . S
C187 O193 1.249 1_554 S
O188 C170 1.254 1_556 S
O188 Zn185 2.025 . S
H189 C181 0.952 . S
H190 C172 0.952 . S
H191 C180 0.948 . S
O192 Zn177 2.034 . S
O192 C187 1.246 . S
O193 Zn185 2.024 . S
O193 C187 1.249 1_556 S
H194 C176 0.948 . S
O195 Zn185 2.039 . S
O195 C199 1.251 1_556 S
O196 Zn177 2.025 . S
O196 C199 1.254 . S
O197 C178 1.246 1_556 S
O197 Zn185 2.034 . S
O198 Zn177 2.024 . S
O198 C178 1.249 . S
C199 O195 1.251 1_554 S
C199 O196 1.254 . S
H200 C173 0.949 . S
H201 C175 0.950 . S
H202 C182 0.949 . S
H203 C184 0.950 . S
C204 O220 1.251 . S
C204 O222 1.254 . S
N205 C206 1.333 . S
N205 C210 1.307 . S
N205 Zn211 2.020 . S
C206 N205 1.333 . S
C206 C207 1.379 . S
C206 H224 0.952 . S
C207 C206 1.379 . S
C207 C208 1.390 . S
C207 H234 0.949 . S
C208 C207 1.390 . S
C208 C209 1.357 . S
C209 C208 1.357 . S
C209 C210 1.370 . S
C209 H235 0.950 . S
C210 N205 1.307 . S
C210 C209 1.370 . S
C210 H228 0.948 . S
Zn211 N205 2.020 . S
Zn211 O220 2.039 . S
Zn211 O226 2.034 . S
Zn211 O230 2.025 . S
Zn211 O232 2.024 . S
C212 O231 1.246 . S
C212 O232 1.249 . S
N213 C214 1.307 . S
N213 C215 1.333 . S
N213 Zn219 2.020 . S
C214 N213 1.307 . S
C214 C218 1.370 . S
C214 H225 0.948 . S
C215 N213 1.333 . S
C215 C216 1.379 . S
C215 H223 0.952 . S
C216 C215 1.379 . S
C216 C217 1.390 . S
C216 H236 0.949 . S
C217 C216 1.390 . S
C217 C218 1.357 . S
C218 C214 1.370 . S
C218 C217 1.357 . S
C218 H237 0.950 . S
Zn219 N213 2.020 . S
Zn219 O222 2.025 . S
Zn219 O227 2.024 . S
Zn219 O229 2.039 . S
Zn219 O231 2.034 . S
O220 C204 1.251 . S
O220 Zn211 2.039 . S
C221 O226 1.246 . S
C221 O227 1.249 . S
O222 C204 1.254 . S
O222 Zn219 2.025 . S
H223 C215 0.952 . S
H224 C206 0.952 . S
H225 C214 0.948 . S
O226 Zn211 2.034 . S
O226 C221 1.246 . S
O227 Zn219 2.024 . S
O227 C221 1.249 . S
H228 C210 0.948 . S
O229 Zn219 2.039 . S
O229 C233 1.251 . S
O230 Zn211 2.025 . S
O230 C233 1.254 . S
O231 C212 1.246 . S
O231 Zn219 2.034 . S
O232 Zn211 2.024 . S
O232 C212 1.249 . S
C233 O229 1.251 . S
C233 O230 1.254 . S
H234 C207 0.949 . S
H235 C209 0.950 . S
H236 C216 0.949 . S
H237 C218 0.950 . S
C238 O254 1.251 . S
C238 O256 1.254 . S
N239 C240 1.333 . S
N239 C244 1.307 . S
N239 Zn245 2.020 . S
C240 N239 1.333 . S
C240 C241 1.379 . S
C240 H258 0.952 . S
C241 C240 1.379 . S
C241 C242 1.390 . S
C241 H268 0.949 . S
C242 C241 1.390 . S
C242 C243 1.357 . S
C243 C242 1.357 . S
C243 C244 1.370 . S
C243 H269 0.950 . S
C244 N239 1.307 . S
C244 C243 1.370 . S
C244 H262 0.948 . S
Zn245 N239 2.020 . S
Zn245 O254 2.039 . S
Zn245 O260 2.034 . S
Zn245 O264 2.025 . S
Zn245 O266 2.024 . S
C246 O265 1.246 . S
C246 O266 1.249 . S
N247 C248 1.307 . S
N247 C249 1.333 . S
N247 Zn253 2.020 . S
C248 N247 1.307 . S
C248 C252 1.370 . S
C248 H259 0.948 . S
C249 N247 1.333 . S
C249 C250 1.379 . S
C249 H257 0.952 . S
C250 C249 1.379 . S
C250 C251 1.390 . S
C250 H270 0.949 . S
C251 C250 1.390 . S
C251 C252 1.357 . S
C252 C248 1.370 . S
C252 C251 1.357 . S
C252 H271 0.950 . S
Zn253 N247 2.020 . S
Zn253 O256 2.025 . S
Zn253 O261 2.024 . S
Zn253 O263 2.039 . S
Zn253 O265 2.034 . S
O254 C238 1.251 . S
O254 Zn245 2.039 . S
C255 O260 1.246 . S
C255 O261 1.249 . S
O256 C238 1.254 . S
O256 Zn253 2.025 . S
H257 C249 0.952 . S
H258 C240 0.952 . S
H259 C248 0.948 . S
O260 Zn245 2.034 . S
O260 C255 1.246 . S
O261 Zn253 2.024 . S
O261 C255 1.249 . S
H262 C244 0.948 . S
O263 Zn253 2.039 . S
O263 C267 1.251 . S
O264 Zn245 2.025 . S
O264 C267 1.254 . S
O265 C246 1.246 . S
O265 Zn253 2.034 . S
O266 Zn245 2.024 . S
O266 C246 1.249 . S
C267 O263 1.251 . S
C267 O264 1.254 . S
H268 C241 0.949 . S
H269 C243 0.950 . S
H270 C250 0.949 . S
H271 C252 0.950 . S
H272 C278 0.930 . S
H273 C282 0.930 . S
H274 C287 0.929 . S
H275 C285 0.929 . S
H276 C280 0.929 . S
H277 C286 0.929 . S
C278 H272 0.930 . S
C278 C279 1.367 . S
C278 C286 1.378 . S
C279 C278 1.367 . S
C279 C287 1.433 1_554 S
C280 H276 0.929 . S
C280 C282 1.378 . S
C280 C284 1.350 1_556 S
C281 C284 1.463 . S
C281 C286 1.350 . S
C281 N289 1.427 1_554 S
C282 H273 0.930 . S
C282 C280 1.378 . S
C282 C283 1.367 1_556 S
C283 C282 1.367 1_554 S
C283 C285 1.433 . S
C284 C280 1.350 1_554 S
C284 C281 1.463 . S
C284 N288 1.427 . S
C285 H275 0.929 . S
C285 C283 1.433 . S
C285 N288 1.384 . S
C286 H277 0.929 . S
C286 C278 1.378 . S
C286 C281 1.350 . S
C287 H274 0.929 . S
C287 C279 1.433 1_556 S
C287 N289 1.384 . S
N288 C284 1.427 . S
N288 C285 1.384 . S
N289 C281 1.427 1_556 S
N289 C287 1.384 . S
H290 C296 0.930 1_556 S
H291 C300 0.930 . S
H292 C305 0.929 . S
H293 C303 0.936 . S
H294 C298 0.929 . S
H295 C304 0.925 1_556 S
C296 H290 0.930 1_554 S
C296 C297 1.367 . S
C296 C304 1.378 . S
C297 C296 1.367 . S
C297 C305 1.433 . S
C298 H294 0.929 . S
C298 C300 1.378 . S
C298 C302 1.350 . S
C299 C302 1.463 . S
C299 C304 1.350 . S
C299 N307 1.427 . S
C300 H291 0.930 . S
C300 C298 1.378 . S
C300 C301 1.367 . S
C301 C300 1.367 . S
C301 C303 1.433 . S
C302 C298 1.350 . S
C302 C299 1.463 . S
C302 N306 1.427 . S
C303 H293 0.936 . S
C303 C301 1.433 . S
C303 N306 1.384 . S
C304 H295 0.925 1_554 S
C304 C296 1.378 . S
C304 C299 1.350 . S
C305 H292 0.929 . S
C305 C297 1.433 . S
C305 N307 1.384 . S
N306 C302 1.427 . S
N306 C303 1.384 . S
N307 C299 1.427 . S
N307 C305 1.384 . S
H308 C314 0.930 . S
H309 C318 0.930 . S
H310 C323 0.929 . S
H311 C321 0.929 . S
H312 C316 0.929 . S
H313 C322 0.929 . S
C314 H308 0.930 . S
C314 C315 1.367 . S
C314 C322 1.378 . S
C315 C314 1.367 . S
C315 C323 1.433 . S
C316 H312 0.929 . S
C316 C318 1.378 . S
C316 C320 1.350 . S
C317 C320 1.463 . S
C317 C322 1.350 . S
C317 N325 1.427 . S
C318 H309 0.930 . S
C318 C316 1.378 . S
C318 C319 1.367 . S
C319 C318 1.367 . S
C319 C321 1.433 . S
C320 C316 1.350 . S
C320 C317 1.463 . S
C320 N324 1.427 . S
C321 H311 0.929 . S
C321 C319 1.433 . S
C321 N324 1.384 . S
C322 H313 0.929 . S
C322 C314 1.378 . S
C322 C317 1.350 . S
C323 H310 0.929 . S
C323 C315 1.433 . S
C323 N325 1.384 . S
N324 C320 1.427 . S
N324 C321 1.384 . S
N325 C317 1.427 . S
N325 C323 1.384 . S
H326 C332 0.930 . S
H327 C336 0.930 . S
H328 C341 0.929 . S
H329 C339 0.929 . S
H330 C334 0.929 . S
H331 C340 0.929 . S
C332 H326 0.930 . S
C332 C333 1.367 . S
C332 C340 1.378 . S
C333 C332 1.367 . S
C333 C341 1.433 . S
C334 H330 0.929 . S
C334 C336 1.378 . S
C334 C338 1.350 . S
C335 C338 1.463 . S
C335 C340 1.350 . S
C335 N343 1.427 . S
C336 H327 0.930 . S
C336 C334 1.378 . S
C336 C337 1.367 . S
C337 C336 1.367 . S
C337 C339 1.433 . S
C338 C334 1.350 . S
C338 C335 1.463 . S
C338 N342 1.427 . S
C339 H329 0.929 . S
C339 C337 1.433 . S
C339 N342 1.384 . S
C340 H331 0.929 . S
C340 C332 1.378 . S
C340 C335 1.350 . S
C341 H328 0.929 . S
C341 C333 1.433 . S
C341 N343 1.384 . S
N342 C338 1.427 . S
N342 C339 1.384 . S
N343 C335 1.427 . S
N343 C341 1.384 . S
H344 C350 0.930 . S
H345 C354 0.930 . S
H346 C359 0.929 . S
H347 C357 0.929 . S
H348 C352 0.929 . S
H349 C358 0.929 . S
C350 H344 0.930 . S
C350 C351 1.367 1_556 S
C350 C358 1.378 . S
C351 C350 1.367 1_554 S
C351 C359 1.433 . S
C352 H348 0.929 . S
C352 C354 1.378 . S
C352 C356 1.350 . S
C353 C356 1.463 . S
C353 C358 1.350 1_454 S
C353 N361 1.427 1_455 S
C354 H345 0.930 . S
C354 C352 1.378 . S
C354 C355 1.367 . S
C355 C354 1.367 . S
C355 C357 1.433 1_554 S
C356 C352 1.350 . S
C356 C353 1.463 . S
C356 N360 1.427 1_554 S
C357 H347 0.929 . S
C357 C355 1.433 1_556 S
C357 N360 1.384 . S
C358 H349 0.929 . S
C358 C350 1.378 . S
C358 C353 1.350 1_656 S
C359 H346 0.929 . S
C359 C351 1.433 . S
C359 N361 1.384 . S
N360 C356 1.427 1_556 S
N360 C357 1.384 . S
N361 C353 1.427 1_655 S
N361 C359 1.384 . S
H362 C368 0.930 . S
H363 C372 0.930 . S
H364 C377 0.929 . S
H365 C375 0.929 . S
H366 C370 0.929 . S
H367 C376 0.929 . S
C368 H362 0.930 . S
C368 C369 1.367 . S
C368 C376 1.378 . S
C369 C368 1.367 . S
C369 C377 1.433 1_554 S
C370 H366 0.929 . S
C370 C372 1.378 . S
C370 C374 1.350 1_556 S
C371 C374 1.463 . S
C371 C376 1.350 1_655 S
C371 N379 1.427 1_654 S
C372 H363 0.930 . S
C372 C370 1.378 . S
C372 C373 1.367 1_556 S
C373 C372 1.367 1_554 S
C373 C375 1.433 . S
C374 C370 1.350 1_554 S
C374 C371 1.463 . S
C374 N378 1.427 . S
C375 H365 0.929 . S
C375 C373 1.433 . S
C375 N378 1.384 . S
C376 H367 0.929 . S
C376 C368 1.378 . S
C376 C371 1.350 1_455 S
C377 H364 0.929 . S
C377 C369 1.433 1_556 S
C377 N379 1.384 . S
N378 C374 1.427 . S
N378 C375 1.384 . S
N379 C371 1.427 1_456 S
N379 C377 1.384 . S
H380 C386 0.930 . S
H381 C390 0.930 . S
H382 C395 0.929 . S
H383 C393 0.929 . S
H384 C388 0.929 1_455 S
H385 C394 0.929 . S
C386 H380 0.930 . S
C386 C387 1.367 . S
C386 C394 1.378 . S
C387 C386 1.367 . S
C387 C395 1.433 . S
C388 H384 0.929 1_655 S
C388 C390 1.378 . S
C388 C392 1.350 1_655 S
C389 C392 1.463 . S
C389 C394 1.350 . S
C389 N397 1.427 . S
C390 H381 0.930 . S
C390 C388 1.378 . S
C390 C391 1.367 . S
C391 C390 1.367 . S
C391 C393 1.433 . S
C392 C388 1.350 1_455 S
C392 C389 1.463 . S
C392 N396 1.427 1_455 S
C393 H383 0.929 . S
C393 C391 1.433 . S
C393 N396 1.384 . S
C394 H385 0.929 . S
C394 C386 1.378 . S
C394 C389 1.350 . S
C395 H382 0.929 . S
C395 C387 1.433 . S
C395 N397 1.384 . S
N396 C392 1.427 1_655 S
N396 C393 1.384 . S
N397 C389 1.427 . S
N397 C395 1.384 . S
H398 C404 0.930 . S
H399 C408 0.930 . S
H400 C413 0.929 . S
H401 C411 0.929 . S
H402 C406 0.929 . S
H403 C412 0.929 . S
C404 H398 0.930 . S
C404 C405 1.367 . S
C404 C412 1.378 . S
C405 C404 1.367 . S
C405 C413 1.433 . S
C406 H402 0.929 . S
C406 C408 1.378 . S
C406 C410 1.350 1_455 S
C407 C410 1.463 . S
C407 C412 1.350 . S
C407 N415 1.427 . S
C408 H399 0.930 . S
C408 C406 1.378 . S
C408 C409 1.367 . S
C409 C408 1.367 . S
C409 C411 1.433 . S
C410 C406 1.350 1_655 S
C410 C407 1.463 . S
C410 N414 1.427 1_655 S
C411 H401 0.929 . S
C411 C409 1.433 . S
C411 N414 1.384 . S
C412 H403 0.929 . S
C412 C404 1.378 . S
C412 C407 1.350 . S
C413 H400 0.929 . S
C413 C405 1.433 . S
C413 N415 1.384 . S
N414 C410 1.427 1_455 S
N414 C411 1.384 . S
N415 C407 1.427 . S
N415 C413 1.384 . S
H416 C422 0.930 . S
H417 C426 0.930 . S
H418 C431 0.929 . S
H419 C429 0.929 . S
H420 C424 0.929 . S
H421 C430 0.929 . S
C422 H416 0.930 . S
C422 C423 1.367 1_456 S
C422 C430 1.378 . S
C423 C422 1.367 1_654 S
C423 C431 1.433 . S
C424 H420 0.929 . S
C424 C426 1.378 . S
C424 C428 1.350 1_655 S
C425 C428 1.463 1_655 S
C425 C430 1.350 1_654 S
C425 N433 1.427 . S
C426 H417 0.930 . S
C426 C424 1.378 . S
C426 C427 1.367 1_655 S
C427 C426 1.367 1_455 S
C427 C429 1.433 1_554 S
C428 C424 1.350 1_455 S
C428 C425 1.463 1_455 S
C428 N432 1.427 1_554 S
C429 H419 0.929 . S
C429 C427 1.433 1_556 S
C429 N432 1.384 . S
C430 H421 0.929 . S
C430 C422 1.378 . S
C430 C425 1.350 1_456 S
C431 H418 0.929 . S
C431 C423 1.433 . S
C431 N433 1.384 . S
N432 C428 1.427 1_556 S
N432 C429 1.384 . S
N433 C425 1.427 . S
N433 C431 1.384 . S
H434 C440 0.930 . S
H435 C444 0.930 . S
H436 C449 0.929 . S
H437 C447 0.929 . S
H438 C442 0.929 . S
H439 C448 0.929 . S
C440 H434 0.930 . S
C440 C441 1.367 1_455 S
C440 C448 1.378 . S
C441 C440 1.367 1_655 S
C441 C449 1.433 . S
C442 H438 0.929 . S
C442 C444 1.378 . S
C442 C446 1.350 1_655 S
C443 C446 1.463 1_655 S
C443 C448 1.350 1_655 S
C443 N451 1.427 . S
C444 H435 0.930 . S
C444 C442 1.378 . S
C444 C445 1.367 1_655 S
C445 C444 1.367 1_455 S
C445 C447 1.433 . S
C446 C442 1.350 1_455 S
C446 C443 1.463 1_455 S
C446 N450 1.427 . S
C447 H437 0.929 . S
C447 C445 1.433 . S
C447 N450 1.384 . S
C448 H439 0.929 . S
C448 C440 1.378 . S
C448 C443 1.350 1_455 S
C449 H436 0.929 . S
C449 C441 1.433 . S
C449 N451 1.384 . S
N450 C446 1.427 . S
N450 C447 1.384 . S
N451 C443 1.427 . S
N451 C449 1.384 . S
H452 C458 0.930 . S
H453 C462 0.930 . S
H454 C467 0.929 . S
H455 C465 0.929 . S
H456 C460 0.929 . S
H457 C466 0.929 . S
C458 H452 0.930 . S
C458 C459 1.367 1_556 S
C458 C466 1.378 . S
C459 C458 1.367 1_554 S
C459 C467 1.433 . S
C460 H456 0.929 . S
C460 C462 1.378 . S
C460 C464 1.350 . S
C461 C464 1.463 1_565 S
C461 C466 1.350 1_554 S
C461 N469 1.427 . S
C462 H453 0.930 . S
C462 C460 1.378 . S
C462 C463 1.367 . S
C463 C462 1.367 . S
C463 C465 1.433 1_554 S
C464 C460 1.350 . S
C464 C461 1.463 1_545 S
C464 N468 1.427 1_554 S
C465 H455 0.929 . S
C465 C463 1.433 1_556 S
C465 N468 1.384 . S
C466 H457 0.929 . S
C466 C458 1.378 . S
C466 C461 1.350 1_556 S
C467 H454 0.929 . S
C467 C459 1.433 . S
C467 N469 1.384 . S
N468 C464 1.427 1_556 S
N468 C465 1.384 . S
N469 C461 1.427 . S
N469 C467 1.384 . S
H470 C476 0.930 . S
H471 C480 0.930 . S
H472 C485 0.929 . S
H473 C483 0.929 . S
H474 C478 0.929 . S
H475 C484 0.929 . S
C476 H470 0.930 . S
C476 C477 1.367 . S
C476 C484 1.378 . S
C477 C476 1.367 . S
C477 C485 1.433 . S
C478 H474 0.929 . S
C478 C480 1.378 . S
C478 C482 1.350 . S
C479 C482 1.463 1_545 S
C479 C484 1.350 . S
C479 N487 1.427 . S
C480 H471 0.930 . S
C480 C478 1.378 . S
C480 C481 1.367 . S
C481 C480 1.367 . S
C481 C483 1.433 . S
C482 C478 1.350 . S
C482 C479 1.463 1_565 S
C482 N486 1.427 . S
C483 H473 0.929 . S
C483 C481 1.433 . S
C483 N486 1.384 . S
C484 H475 0.929 . S
C484 C476 1.378 . S
C484 C479 1.350 . S
C485 H472 0.929 . S
C485 C477 1.433 . S
C485 N487 1.384 . S
N486 C482 1.427 . S
N486 C483 1.384 . S
N487 C479 1.427 . S
N487 C485 1.384 . S
H488 C494 0.930 1_556 S
H489 C498 0.930 . S
H490 C503 0.929 . S
H491 C501 0.929 1_556 S
H492 C496 0.929 . S
H493 C502 0.929 1_556 S
C494 H488 0.930 1_554 S
C494 C495 1.367 . S
C494 C502 1.378 . S
C495 C494 1.367 . S
C495 C503 1.433 . S
C496 H492 0.929 . S
C496 C498 1.378 . S
C496 C500 1.350 . S
C497 C500 1.463 . S
C497 C502 1.350 . S
C497 N505 1.427 . S
C498 H489 0.930 . S
C498 C496 1.378 . S
C498 C499 1.367 . S
C499 C498 1.367 . S
C499 C501 1.433 . S
C500 C496 1.350 . S
C500 C497 1.463 . S
C500 N504 1.427 . S
C501 H491 0.929 1_554 S
C501 C499 1.433 . S
C501 N504 1.384 . S
C502 H493 0.929 1_554 S
C502 C494 1.378 . S
C502 C497 1.350 . S
C503 H490 0.929 . S
C503 C495 1.433 . S
C503 N505 1.384 . S
N504 C500 1.427 . S
N504 C501 1.384 . S
N505 C497 1.427 . S
N505 C503 1.384 . S
H506 C512 0.930 . S
H507 C516 0.930 1_556 S
H508 C521 0.929 1_556 S
H509 C519 0.929 . S
H510 C514 0.929 1_556 S
H511 C520 0.929 . S
C512 H506 0.930 . S
C512 C513 1.367 . S
C512 C520 1.378 . S
C513 C512 1.367 . S
C513 C521 1.433 . S
C514 H510 0.929 1_554 S
C514 C516 1.378 . S
C514 C518 1.350 . S
C515 C518 1.463 . S
C515 C520 1.350 . S
C515 N523 1.427 . S
C516 H507 0.930 1_554 S
C516 C514 1.378 . S
C516 C517 1.367 . S
C517 C516 1.367 . S
C517 C519 1.433 . S
C518 C514 1.350 . S
C518 C515 1.463 . S
C518 N522 1.427 . S
C519 H509 0.929 . S
C519 C517 1.433 . S
C519 N522 1.384 . S
C520 H511 0.929 . S
C520 C512 1.378 . S
C520 C515 1.350 . S
C521 H508 0.929 1_554 S
C521 C513 1.433 . S
C521 N523 1.384 . S
N522 C518 1.427 . S
N522 C519 1.384 . S
N523 C515 1.427 . S
N523 C521 1.384 . S
H524 C530 0.930 . S
H525 C534 0.930 . S
H526 C539 0.929 . S
H527 C537 0.929 . S
H528 C532 0.929 . S
H529 C538 0.929 . S
C530 H524 0.930 . S
C530 C531 1.367 . S
C530 C538 1.378 . S
C531 C530 1.367 . S
C531 C539 1.433 . S
C532 H528 0.929 . S
C532 C534 1.378 . S
C532 C536 1.350 . S
C533 C536 1.463 . S
C533 C538 1.350 . S
C533 N541 1.427 . S
C534 H525 0.930 . S
C534 C532 1.378 . S
C534 C535 1.367 . S
C535 C534 1.367 . S
C535 C537 1.433 . S
C536 C532 1.350 . S
C536 C533 1.463 . S
C536 N540 1.427 . S
C537 H527 0.929 . S
C537 C535 1.433 . S
C537 N540 1.384 . S
C538 H529 0.929 . S
C538 C530 1.378 . S
C538 C533 1.350 . S
C539 H526 0.929 . S
C539 C531 1.433 . S
C539 N541 1.384 . S
N540 C536 1.427 . S
N540 C537 1.384 . S
N541 C533 1.427 . S
N541 C539 1.384 . S
H542 C548 0.930 . S
H543 C552 0.930 . S
H544 C557 0.929 . S
H545 C555 0.929 . S
H546 C550 0.929 . S
H547 C556 0.929 . S
C548 H542 0.930 . S
C548 C549 1.367 . S
C548 C556 1.378 . S
C549 C548 1.367 . S
C549 C557 1.433 . S
C550 H546 0.929 . S
C550 C552 1.378 . S
C550 C554 1.350 . S
C551 C554 1.463 . S
C551 C556 1.350 . S
C551 N559 1.427 . S
C552 H543 0.930 . S
C552 C550 1.378 . S
C552 C553 1.367 . S
C553 C552 1.367 . S
C553 C555 1.433 . S
C554 C550 1.350 . S
C554 C551 1.463 . S
C554 N558 1.427 . S
C555 H545 0.929 . S
C555 C553 1.433 . S
C555 N558 1.384 . S
C556 H547 0.929 . S
C556 C548 1.378 . S
C556 C551 1.350 . S
C557 H544 0.929 . S
C557 C549 1.433 . S
C557 N559 1.384 . S
N558 C554 1.427 . S
N558 C555 1.384 . S
N559 C551 1.427 . S
N559 C557 1.384 . S
H560 C566 0.930 1_655 S
H561 C570 0.933 . S
H562 C575 0.929 . S
H563 C573 0.929 . S
H564 C568 0.929 . S
H565 C574 0.929 . S
C566 H560 0.930 1_455 S
C566 C567 1.367 . S
C566 C574 1.378 1_455 S
C567 C566 1.367 . S
C567 C575 1.433 . S
C568 H564 0.929 . S
C568 C570 1.380 . S
C568 C572 1.350 1_455 S
C569 C572 1.463 1_455 S
C569 C574 1.350 1_455 S
C569 N577 1.427 . S
C570 H561 0.933 . S
C570 C568 1.380 . S
C570 C571 1.362 1_455 S
C571 C570 1.362 1_655 S
C571 C573 1.433 . S
C572 C568 1.350 1_655 S
C572 C569 1.463 1_655 S
C572 N576 1.427 . S
C573 H563 0.929 . S
C573 C571 1.433 . S
C573 N576 1.384 . S
C574 H565 0.929 . S
C574 C566 1.378 1_655 S
C574 C569 1.350 1_655 S
C575 H562 0.929 . S
C575 C567 1.433 . S
C575 N577 1.384 . S
N576 C572 1.427 . S
N576 C573 1.384 . S
N577 C569 1.427 . S
N577 C575 1.384 . S
H578 C584 0.930 . S
H579 C588 0.930 . S
H580 C593 0.929 . S
H581 C591 0.929 . S
H582 C586 0.929 . S
H583 C592 0.929 . S
C584 H578 0.930 . S
C584 C585 1.367 1_455 S
C584 C592 1.378 . S
C585 C584 1.367 1_655 S
C585 C593 1.433 . S
C586 H582 0.929 . S
C586 C588 1.378 . S
C586 C590 1.350 1_655 S
C587 C590 1.463 1_655 S
C587 C592 1.350 1_655 S
C587 N595 1.427 . S
C588 H579 0.930 . S
C588 C586 1.378 . S
C588 C589 1.367 1_655 S
C589 C588 1.367 1_455 S
C589 C591 1.433 . S
C590 C586 1.350 1_455 S
C590 C587 1.463 1_455 S
C590 N594 1.427 . S
C591 H581 0.929 . S
C591 C589 1.433 . S
C591 N594 1.384 . S
C592 H583 0.929 . S
C592 C584 1.378 . S
C592 C587 1.350 1_455 S
C593 H580 0.929 . S
C593 C585 1.433 . S
C593 N595 1.384 . S
N594 C590 1.427 . S
N594 C591 1.384 . S
N595 C587 1.427 . S
N595 C593 1.384 . S
H596 C602 0.930 . S
H597 C606 0.930 . S
H598 C611 0.929 . S
H599 C609 0.929 . S
H600 C604 0.929 1_655 S
H601 C610 0.929 1_455 S
C602 H596 0.930 . S
C602 C603 1.367 . S
C602 C610 1.378 . S
C603 C602 1.367 . S
C603 C611 1.433 . S
C604 H600 0.929 1_455 S
C604 C606 1.378 . S
C604 C608 1.350 . S
C605 C608 1.463 1_655 S
C605 C610 1.350 . S
C605 N613 1.427 . S
C606 H597 0.930 . S
C606 C604 1.378 . S
C606 C607 1.367 . S
C607 C606 1.367 . S
C607 C609 1.433 . S
C608 C604 1.350 . S
C608 C605 1.463 1_455 S
C608 N612 1.427 . S
C609 H599 0.929 . S
C609 C607 1.433 . S
C609 N612 1.384 . S
C610 H601 0.929 1_655 S
C610 C602 1.378 . S
C610 C605 1.350 . S
C611 H598 0.929 . S
C611 C603 1.433 . S
C611 N613 1.384 . S
N612 C608 1.427 . S
N612 C609 1.384 . S
N613 C605 1.427 . S
N613 C611 1.384 . S
H614 C620 0.930 . S
H615 C624 0.930 . S
H616 C629 0.929 . S
H617 C627 0.929 . S
H618 C622 0.929 . S
H619 C628 0.929 . S
C620 H614 0.930 . S
C620 C621 1.367 1_455 S
C620 C628 1.378 . S
C621 C620 1.367 1_655 S
C621 C629 1.433 . S
C622 H618 0.929 . S
C622 C624 1.378 . S
C622 C626 1.350 1_655 S
C623 C626 1.463 1_655 S
C623 C628 1.350 1_655 S
C623 N631 1.427 . S
C624 H615 0.930 . S
C624 C622 1.378 . S
C624 C625 1.367 1_655 S
C625 C624 1.367 1_455 S
C625 C627 1.433 . S
C626 C622 1.350 1_455 S
C626 C623 1.463 1_455 S
C626 N630 1.427 . S
C627 H617 0.929 . S
C627 C625 1.433 . S
C627 N630 1.384 . S
C628 H619 0.929 . S
C628 C620 1.378 . S
C628 C623 1.350 1_455 S
C629 H616 0.929 . S
C629 C621 1.433 . S
C629 N631 1.384 . S
N630 C626 1.427 . S
N630 C627 1.384 . S
N631 C623 1.427 . S
N631 C629 1.384 . S
H632 C638 0.930 . S
H633 C642 0.930 . S
H634 C647 0.929 . S
H635 C645 0.929 . S
H636 C640 0.929 . S
H637 C646 0.929 . S
C638 H632 0.930 . S
C638 C639 1.367 . S
C638 C646 1.378 . S
C639 C638 1.367 . S
C639 C647 1.433 . S
C640 H636 0.929 . S
C640 C642 1.378 . S
C640 C644 1.350 . S
C641 C644 1.463 . S
C641 C646 1.350 . S
C641 N649 1.427 . S
C642 H633 0.930 . S
C642 C640 1.378 . S
C642 C643 1.367 . S
C643 C642 1.367 . S
C643 C645 1.433 . S
C644 C640 1.350 . S
C644 C641 1.463 . S
C644 N648 1.427 . S
C645 H635 0.929 . S
C645 C643 1.433 . S
C645 N648 1.384 . S
C646 H637 0.929 . S
C646 C638 1.378 . S
C646 C641 1.350 . S
C647 H634 0.929 . S
C647 C639 1.433 . S
C647 N649 1.384 . S
N648 C644 1.427 . S
N648 C645 1.384 . S
N649 C641 1.427 . S
N649 C647 1.384 . S
H650 C656 0.930 . S
H651 C660 0.930 . S
H652 C665 0.929 . S
H653 C663 0.929 . S
H654 C658 0.929 . S
H655 C664 0.929 . S
C656 H650 0.930 . S
C656 C657 1.367 . S
C656 C664 1.378 . S
C657 C656 1.367 . S
C657 C665 1.433 . S
C658 H654 0.929 . S
C658 C660 1.378 . S
C658 C662 1.350 . S
C659 C662 1.463 . S
C659 C664 1.350 . S
C659 N667 1.427 . S
C660 H651 0.930 . S
C660 C658 1.378 . S
C660 C661 1.367 . S
C661 C660 1.367 . S
C661 C663 1.433 . S
C662 C658 1.350 . S
C662 C659 1.463 . S
C662 N666 1.427 . S
C663 H653 0.929 . S
C663 C661 1.433 . S
C663 N666 1.384 . S
C664 H655 0.929 . S
C664 C656 1.378 . S
C664 C659 1.350 . S
C665 H652 0.929 . S
C665 C657 1.433 . S
C665 N667 1.384 . S
N666 C662 1.427 . S
N666 C663 1.384 . S
N667 C659 1.427 . S
N667 C665 1.384 . S
H668 C674 0.930 . S
H669 C678 0.930 . S
H670 C683 0.929 . S
H671 C681 0.929 . S
H672 C676 0.929 . S
H673 C682 0.929 . S
C674 H668 0.930 . S
C674 C675 1.367 . S
C674 C682 1.378 . S
C675 C674 1.367 . S
C675 C683 1.433 . S
C676 H672 0.929 . S
C676 C678 1.378 . S
C676 C680 1.350 . S
C677 C680 1.463 . S
C677 C682 1.350 . S
C677 N685 1.427 . S
C678 H669 0.930 . S
C678 C676 1.378 . S
C678 C679 1.367 . S
C679 C678 1.367 . S
C679 C681 1.433 . S
C680 C676 1.350 . S
C680 C677 1.463 . S
C680 N684 1.427 . S
C681 H671 0.929 . S
C681 C679 1.433 . S
C681 N684 1.384 . S
C682 H673 0.929 . S
C682 C674 1.378 . S
C682 C677 1.350 . S
C683 H670 0.929 . S
C683 C675 1.433 . S
C683 N685 1.384 . S
N684 C680 1.427 . S
N684 C681 1.384 . S
N685 C677 1.427 . S
N685 C683 1.384 . S
H686 C692 0.930 . S
H687 C696 0.930 . S
H688 C701 0.929 . S
H689 C699 0.929 . S
H690 C694 0.929 . S
H691 C700 0.929 . S
C692 H686 0.930 . S
C692 C693 1.367 . S
C692 C700 1.378 . S
C693 C692 1.367 . S
C693 C701 1.433 . S
C694 H690 0.929 . S
C694 C696 1.378 . S
C694 C698 1.350 . S
C695 C698 1.463 . S
C695 C700 1.350 . S
C695 N703 1.427 . S
C696 H687 0.930 . S
C696 C694 1.378 . S
C696 C697 1.367 . S
C697 C696 1.367 . S
C697 C699 1.433 . S
C698 C694 1.350 . S
C698 C695 1.463 . S
C698 N702 1.427 . S
C699 H689 0.929 . S
C699 C697 1.433 . S
C699 N702 1.384 . S
C700 H691 0.929 . S
C700 C692 1.378 . S
C700 C695 1.350 . S
C701 H688 0.929 . S
C701 C693 1.433 . S
C701 N703 1.384 . S
N702 C698 1.427 . S
N702 C699 1.384 . S
N703 C695 1.427 . S
N703 C701 1.384 . S
C279 C17 1.190 . S
C283 C8 1.190 . S
C297 C42 1.189 . S
C301 C51 1.189 . S
C315 C76 1.190 . S
C319 C85 1.190 . S
C333 C110 1.188 . S
C337 C119 1.188 . S
C351 C153 1.188 . S
C355 C144 1.188 . S
C369 C187 1.190 . S
C373 C178 1.190 . S
C387 C212 1.189 . S
C391 C221 1.189 . S
C405 C255 1.189 . S
C409 C246 1.189 . S
C423 C34 1.544 . S
C427 C0 1.546 . S
C441 C131 1.544 . S
C445 C68 1.544 . S
C459 C136 1.545 . S
C463 C170 1.545 . S
C477 C204 1.544 . S
C481 C267 1.544 . S
C495 C29 1.636 . S
C499 C199 1.635 . S
C513 C165 1.644 . S
C517 C63 1.643 . S
C531 C97 1.639 . S
C535 C238 1.639 . S
C549 C102 1.639 . S
C553 C233 1.639 . S
C567 C4 1.573 . S
C571 C106 1.570 . S
C585 C38 1.576 . S
C589 C72 1.578 . S
C603 C47 1.566 . S
C607 C81 1.568 . S
C621 C115 1.564 . S
C625 C13 1.561 . S
C639 C140 1.573 . S
C643 C242 1.570 . S
C657 C174 1.574 . S
C661 C208 1.582 . S
C675 C183 1.566 . S
C679 C217 1.567 . S
C693 C251 1.570 . S
C697 C149 1.568 . S
