# Generated by pormake.
# Topology noz, (5)-cn, num edge types: 1
# Building blocks:
#     Node 0, Type 0, BuildingBlock: XOMCOT_clean_sbu_1, # of connection points: 5
#     Node 1, Type 0, BuildingBlock: XOMCOT_clean_sbu_1, # of connection points: 5
#     Node 2, Type 0, BuildingBlock: XOMCOT_clean_sbu_1, # of connection points: 5
#     Node 3, Type 0, BuildingBlock: XOMCOT_clean_sbu_1, # of connection points: 5
#     Node 4, Type 0, BuildingBlock: XOMCOT_clean_sbu_1, # of connection points: 5
#     Node 5, Type 0, BuildingBlock: XOMCOT_clean_sbu_1, # of connection points: 5
#     Node 6, Type 0, BuildingBlock: XOMCOT_clean_sbu_1, # of connection points: 5
#     Node 7, Type 0, BuildingBlock: XOMCOT_clean_sbu_1, # of connection points: 5
#     Edge 8, Type (0, 0), BuildingBlock: CIFDUS_clean_linker_0, # of connection points: 2
#     Edge 9, Type (0, 0), BuildingBlock: CIFDUS_clean_linker_0, # of connection points: 2
#     Edge 10, Type (0, 0), BuildingBlock: CIFDUS_clean_linker_0, # of connection points: 2
#     Edge 11, Type (0, 0), BuildingBlock: CIFDUS_clean_linker_0, # of connection points: 2
#     Edge 12, Type (0, 0), BuildingBlock: CIFDUS_clean_linker_0, # of connection points: 2
#     Edge 13, Type (0, 0), BuildingBlock: CIFDUS_clean_linker_0, # of connection points: 2
#     Edge 14, Type (0, 0), BuildingBlock: CIFDUS_clean_linker_0, # of connection points: 2
#     Edge 15, Type (0, 0), BuildingBlock: CIFDUS_clean_linker_0, # of connection points: 2
#     Edge 16, Type (0, 0), BuildingBlock: CIFDUS_clean_linker_0, # of connection points: 2
#     Edge 17, Type (0, 0), BuildingBlock: CIFDUS_clean_linker_0, # of connection points: 2
#     Edge 18, Type (0, 0), BuildingBlock: CIFDUS_clean_linker_0, # of connection points: 2
#     Edge 19, Type (0, 0), BuildingBlock: CIFDUS_clean_linker_0, # of connection points: 2
#     Edge 20, Type (0, 0), BuildingBlock: CIFDUS_clean_linker_0, # of connection points: 2
#     Edge 21, Type (0, 0), BuildingBlock: CIFDUS_clean_linker_0, # of connection points: 2
#     Edge 22, Type (0, 0), BuildingBlock: CIFDUS_clean_linker_0, # of connection points: 2
#     Edge 23, Type (0, 0), BuildingBlock: CIFDUS_clean_linker_0, # of connection points: 2
#     Edge 24, Type (0, 0), BuildingBlock: CIFDUS_clean_linker_0, # of connection points: 2
#     Edge 25, Type (0, 0), BuildingBlock: CIFDUS_clean_linker_0, # of connection points: 2
#     Edge 26, Type (0, 0), BuildingBlock: CIFDUS_clean_linker_0, # of connection points: 2
#     Edge 27, Type (0, 0), BuildingBlock: CIFDUS_clean_linker_0, # of connection points: 2
# Relax obj value: 0.078
# Max RMSD: 0.162
# Mean RMSD: 0.162
data_MOF--net-noz--node1-XOMCOT_clean_sbu_1--edge1-CIFDUS_clean_linker_0
_symmetry_space_group_name_H-M    P1
_symmetry_Int_Tables_number       1
_symmetry_cell_setting            triclinic
loop_
_symmetry_equiv_pos_as_xyz
'x, y, z'
_cell_length_a     21.034587
_cell_length_b     45.082051
_cell_length_c     32.594559
_cell_angle_alpha  89.566863
_cell_angle_beta   89.743541
_cell_angle_gamma 90.011233
loop_
_atom_site_label
_atom_site_type_symbol
_atom_site_fract_x
_atom_site_fract_y
_atom_site_fract_z
_atom_type_partial_charge
C0 C 0.16178 0.35282 0.33107 0.0
C1 C 0.10954 0.35484 0.3058 0.0
N2 N 0.05724 0.34712 0.32753 0.0
N3 N 0.14292 0.34375 0.36864 0.0
C4 C 0.07911 0.3405 0.36558 0.0
H5 H 0.21035 0.35811 0.32279 0.0
Co6 Co 0.19541 0.33914 0.4145 0.0
C7 C 0.12135 0.30212 0.47344 0.0
O8 O 0.14835 0.31517 0.50475 0.0
N9 N 0.24982 0.33452 0.46141 0.0
C10 C 0.30491 0.34218 0.51889 0.0
C11 C 0.26155 0.35403 0.49192 0.0
C12 C 0.28724 0.31092 0.47099 0.0
N13 N 0.32139 0.31516 0.5055 0.0
O14 O 0.24157 0.3088 0.38591 0.0
H15 H 0.24052 0.37571 0.49496 0.0
H16 H 0.28981 0.2909 0.453 0.0
O17 O 0.13616 0.30985 0.43684 0.0
C18 C 0.29649 0.3182 0.37532 0.0
O19 O 0.31418 0.34481 0.38682 0.0
N20 N 0.15406 0.37127 0.43861 0.0
C21 C 0.1159 0.42627 0.4685 0.0
C22 C 0.0799 0.40064 0.47698 0.0
C23 C 0.09931 0.37324 0.46113 0.0
C24 C 0.18698 0.39616 0.42796 0.0
C25 C 0.16944 0.42373 0.44298 0.0
H26 H 0.07007 0.35405 0.46693 0.0
H27 H 0.22904 0.39424 0.40895 0.0
H28 H 0.04926 0.33356 0.39098 0.0
H29 H 0.11015 0.36228 0.27417 0.0
H30 H 0.32453 0.35303 0.54551 0.0
H31 H 0.0372 0.40176 0.49558 0.0
H32 H 0.19921 0.44268 0.43578 0.0
C33 C 0.62565 0.64563 0.82959 0.0
C34 C 0.67899 0.64247 0.80536 0.0
N35 N 0.72448 0.66076 0.81941 0.0
N36 N 0.63732 0.66563 0.85912 0.0
C37 C 0.69795 0.67467 0.85193 0.0
H38 H 0.58139 0.63366 0.82645 0.0
Co39 Co 0.57937 0.6744 0.9012 0.0
C40 C 0.6521 0.71008 0.96125 0.0
O41 O 0.62047 0.69802 0.99195 0.0
N42 N 0.51892 0.68326 0.94408 0.0
C43 C 0.4516 0.67969 0.9972 0.0
C44 C 0.49873 0.66562 0.97536 0.0
C45 C 0.48308 0.70817 0.94827 0.0
N46 N 0.44123 0.7064 0.97991 0.0
O47 O 0.54376 0.70496 0.86683 0.0
H48 H 0.5159 0.64359 0.98211 0.0
H49 H 0.48673 0.72722 0.92806 0.0
O50 O 0.64004 0.70235 0.92445 0.0
C51 C 0.4894 0.69751 0.853 0.0
O52 O 0.46353 0.67264 0.86616 0.0
N53 N 0.61109 0.64173 0.93057 0.0
C54 C 0.6446 0.58548 0.95951 0.0
C55 C 0.68239 0.61026 0.96851 0.0
C56 C 0.66566 0.63827 0.95275 0.0
C57 C 0.57482 0.61772 0.92111 0.0
C58 C 0.59043 0.58951 0.93536 0.0
H59 H 0.69766 0.65658 0.95741 0.0
H60 H 0.53323 0.62066 0.90211 0.0
H61 H 0.72308 0.69037 0.87085 0.0
H62 H 0.68397 0.62782 0.77937 0.0
H63 H 0.42501 0.67035 0.02271 0.0
H64 H 0.7254 0.6078 0.98636 0.0
H65 H 0.56002 0.57097 0.92772 0.0
C66 C 0.15987 0.63815 0.68937 0.0
C67 C 0.11458 0.63051 0.71825 0.0
N68 N 0.0667 0.65034 0.71623 0.0
N69 N 0.14031 0.66242 0.66862 0.0
C70 C 0.08401 0.66976 0.6864 0.0
H71 H 0.20265 0.62586 0.68231 0.0
Co72 Co 0.18099 0.67824 0.6217 0.0
C73 C 0.05691 0.69988 0.58514 0.0
O74 O 0.05044 0.67678 0.56135 0.0
N75 N 0.22238 0.69539 0.57443 0.0
C76 C 0.23927 0.7121 0.5107 0.0
C77 C 0.19612 0.69931 0.53702 0.0
C78 C 0.28248 0.70602 0.56953 0.0
N79 N 0.29408 0.71636 0.53096 0.0
O80 O 0.21295 0.70942 0.65546 0.0
H81 H 0.14897 0.69267 0.52847 0.0
H82 H 0.31757 0.70584 0.59353 0.0
O83 O 0.10518 0.70228 0.60871 0.0
C84 C 0.26656 0.70136 0.66989 0.0
O85 O 0.29099 0.67611 0.6575 0.0
N86 N 0.15477 0.64448 0.59067 0.0
C87 C 0.13065 0.59148 0.54931 0.0
C88 C 0.08618 0.60283 0.57709 0.0
C89 C 0.09948 0.62911 0.59785 0.0
C90 C 0.20022 0.6323 0.56587 0.0
C91 C 0.18848 0.6064 0.54408 0.0
H92 H 0.06417 0.63739 0.61895 0.0
H93 H 0.24682 0.64221 0.56339 0.0
H94 H 0.05384 0.68762 0.67576 0.0
H95 H 0.11555 0.61115 0.73808 0.0
H96 H 0.23016 0.71798 0.47905 0.0
H97 H 0.04137 0.5916 0.58255 0.0
H98 H 0.22529 0.59758 0.52427 0.0
C99 C 0.61675 0.3606 0.21337 0.0
C100 C 0.66987 0.36239 0.2378 0.0
N101 N 0.72034 0.35195 0.21665 0.0
N102 N 0.63316 0.34905 0.17688 0.0
C103 C 0.69655 0.34412 0.17967 0.0
H104 H 0.5691 0.36741 0.2216 0.0
Co105 Co 0.57671 0.34244 0.13365 0.0
C106 C 0.64868 0.30603 0.0734 0.0
O107 O 0.61714 0.31767 0.04254 0.0
N108 N 0.51796 0.33558 0.08992 0.0
C109 C 0.44768 0.34123 0.03928 0.0
C110 C 0.49464 0.35485 0.06174 0.0
C111 C 0.4845 0.31031 0.08337 0.0
N112 N 0.4408 0.31326 0.05328 0.0
O113 O 0.53714 0.31152 0.16568 0.0
H114 H 0.50869 0.37776 0.05835 0.0
H115 H 0.49072 0.29021 0.10121 0.0
O116 O 0.63667 0.31427 0.11004 0.0
C117 C 0.48301 0.32034 0.17847 0.0
O118 O 0.46282 0.34675 0.16725 0.0
N119 N 0.61172 0.37533 0.10621 0.0
C120 C 0.64698 0.43164 0.0781 0.0
C121 C 0.68102 0.4064 0.06577 0.0
C122 C 0.66347 0.37832 0.08098 0.0
C123 C 0.57935 0.39974 0.11905 0.0
C124 C 0.59595 0.42801 0.10537 0.0
H125 H 0.69236 0.35952 0.07299 0.0
H126 H 0.53975 0.39706 0.14004 0.0
H127 H 0.72462 0.33477 0.1551 0.0
H128 H 0.67108 0.37123 0.26855 0.0
H129 H 0.41834 0.35168 1.01613 0.0
H130 H 0.72151 0.40846 0.04529 0.0
H131 H 0.56825 0.44686 0.11553 0.0
C132 C 0.64038 0.86024 0.33368 0.0
C133 C 0.58892 0.86198 0.30801 0.0
N134 N 0.53784 0.85072 0.32785 0.0
N135 N 0.6221 0.8479 0.36955 0.0
C136 C 0.55936 0.84239 0.36528 0.0
H137 H 0.68819 0.86768 0.32687 0.0
Co138 Co 0.67786 0.84209 0.41237 0.0
C139 C 0.60961 0.80761 0.47741 0.0
O140 O 0.641 0.82304 0.5047 0.0
N141 N 0.73716 0.83648 0.45522 0.0
C142 C 0.80622 0.84189 0.50621 0.0
C143 C 0.76575 0.85641 0.47985 0.0
C144 C 0.76205 0.81011 0.46692 0.0
N145 N 0.80374 0.81269 0.49811 0.0
O146 O 0.7185 0.81125 0.38054 0.0
H147 H 0.75839 0.88006 0.47919 0.0
H148 H 0.74974 0.78938 0.45248 0.0
O149 O 0.61857 0.81297 0.439 0.0
C150 C 0.77441 0.81749 0.36752 0.0
O151 O 0.80255 0.84142 0.38133 0.0
N152 N 0.64101 0.87461 0.4391 0.0
C153 C 0.60416 0.92866 0.47247 0.0
C154 C 0.56785 0.90305 0.47962 0.0
C155 C 0.58601 0.87629 0.46148 0.0
C156 C 0.67356 0.89981 0.42921 0.0
C157 C 0.6565 0.92702 0.4459 0.0
H158 H 0.55524 0.85738 0.4653 0.0
H159 H 0.71473 0.89844 0.40928 0.0
H160 H 0.53017 0.83243 0.38907 0.0
H161 H 0.589 0.87149 0.27742 0.0
H162 H 0.83478 0.85216 0.52969 0.0
H163 H 0.52566 0.90378 0.49877 0.0
H164 H 0.68541 0.94636 0.43924 0.0
C165 C 0.10935 0.1583 0.83461 0.0
C166 C 0.16047 0.15583 0.8084 0.0
N167 N 0.21227 0.16661 0.8274 0.0
N168 N 0.12872 0.17068 0.86988 0.0
C169 C 0.19166 0.17535 0.86475 0.0
H170 H 0.06096 0.15166 0.82837 0.0
Co171 Co 0.0751 0.17924 0.9133 0.0
C172 C 0.14944 0.21757 0.97063 0.0
O173 O 0.11677 0.20714 1.002 0.0
N174 N 1.01817 0.18774 0.95704 0.0
C175 C 0.94856 0.18342 1.00853 0.0
C176 C 0.99535 0.16927 0.98654 0.0
C177 C 0.98471 0.2131 0.96234 0.0
N178 N 0.94136 0.21089 0.99289 0.0
O179 O 0.03611 0.20928 0.87924 0.0
H180 H 1.00938 0.14648 0.99113 0.0
H181 H 0.99042 0.23262 0.94317 0.0
O182 O 0.13754 0.20824 0.93441 0.0
C183 C 0.98049 0.20257 0.86674 0.0
O184 O 0.95251 0.17892 0.88222 0.0
N185 N 0.11009 0.14709 0.94248 0.0
C186 C 0.14261 0.09247 0.97749 0.0
C187 C 0.1775 0.11813 0.98662 0.0
C188 C 0.16138 0.14525 0.96799 0.0
C189 C 0.07773 0.1221 0.932 0.0
C190 C 0.09294 0.09464 0.94918 0.0
H191 H 0.19072 0.16425 0.97397 0.0
H192 H 0.03855 0.12377 0.91071 0.0
H193 H 0.22162 0.18536 0.88771 0.0
H194 H 0.1596 0.14643 0.77795 0.0
H195 H 0.91933 0.17357 0.03242 0.0
H196 H 0.21721 0.11716 1.00763 0.0
H197 H 0.06472 0.07542 0.94128 0.0
C198 C 0.64064 0.15575 0.69968 0.0
C199 C 0.58848 0.1538 0.72497 0.0
N200 N 0.53899 0.16697 0.70602 0.0
N201 N 0.62442 0.1701 0.66493 0.0
C202 C 0.56208 0.1766 0.66944 0.0
H203 H 0.68762 0.14717 0.70603 0.0
Co204 Co 0.68304 0.17697 0.62377 0.0
C205 C 0.62105 0.214 0.55943 0.0
O206 O 0.6571 0.20071 0.53219 0.0
N207 N 0.74606 0.18345 0.58274 0.0
C208 C 0.82199 0.17761 0.53552 0.0
C209 C 0.77266 0.16407 0.55618 0.0
C210 C 0.78007 0.20867 0.57713 0.0
N211 N 0.82698 0.20557 0.54912 0.0
O212 O 0.72122 0.20682 0.65803 0.0
H213 H 0.75923 0.14117 0.55257 0.0
H214 H 0.77175 0.22881 0.59414 0.0
O215 O 0.62599 0.20679 0.59749 0.0
C216 C 0.77502 0.19932 0.67288 0.0
O217 O 0.80161 0.1746 0.66037 0.0
N218 N 0.64772 0.14533 0.59451 0.0
C219 C 0.61031 0.09221 0.55879 0.0
C220 C 0.57656 0.11844 0.551 0.0
C221 C 0.59491 0.14472 0.57021 0.0
C222 C 0.67812 0.1196 0.60449 0.0
C223 C 0.66065 0.09283 0.58672 0.0
H224 H 0.56574 0.16407 0.56582 0.0
H225 H 0.71767 0.12016 0.62559 0.0
H226 H 0.5344 0.18829 0.64658 0.0
H227 H 0.58696 0.14296 0.75469 0.0
H228 H 0.85401 0.16713 0.51394 0.0
H229 H 0.53597 0.11852 0.53067 0.0
H230 H 0.6876 0.07298 0.5938 0.0
C231 C 0.1086 0.86068 0.20081 0.0
C232 C 0.15981 0.86328 0.22662 0.0
N233 N 0.21131 0.85185 0.2077 0.0
N234 N 0.12756 0.8476 0.16584 0.0
C235 C 0.19037 0.8426 0.17077 0.0
H236 H 0.06042 0.86775 0.20709 0.0
Co237 Co 0.07352 0.83886 0.12296 0.0
C238 C 0.14787 0.80059 0.06489 0.0
O239 O 0.11445 0.81073 0.03386 0.0
N240 N 1.0162 0.83019 0.07976 0.0
C241 C 0.94732 0.83419 0.02821 0.0
C242 C 0.99365 0.8485 0.05014 0.0
C243 C 0.9829 0.80476 0.0747 0.0
N244 N 0.94009 0.80675 0.04402 0.0
O245 O 0.03464 0.80888 0.1577 0.0
H246 H 1.00778 0.87126 0.04524 0.0
H247 H 0.9886 0.7853 0.09394 0.0
O248 O 0.13608 0.80991 0.10123 0.0
C249 C 0.97914 0.81568 0.17075 0.0
O250 O 0.951 0.83922 0.15525 0.0
N251 N 0.10823 0.87098 0.0933 0.0
C252 C 0.14112 0.92555 0.05804 0.0
C253 C 0.17604 0.89986 0.04891 0.0
C254 C 0.15974 0.87279 0.06768 0.0
C255 C 0.07577 0.89599 0.10374 0.0
C256 C 0.09116 0.92342 0.08643 0.0
H257 H 0.18923 0.8538 0.06175 0.0
H258 H 0.03646 0.89436 0.12516 0.0
H259 H 0.22001 0.83203 0.14796 0.0
H260 H 0.15919 0.87321 0.25674 0.0
H261 H 0.91862 0.84386 1.0041 0.0
H262 H 0.21598 0.9008 0.02785 0.0
H263 H 0.06293 0.94266 0.09434 0.0
H264 H 0.26453 0.2989 0.30011 0.0
H265 H 0.42082 0.30515 0.38438 0.0
H266 H 0.49666 0.2977 0.32837 0.0
H267 H 0.51774 0.30268 0.25432 0.0
H268 H 0.36083 0.30363 0.17005 0.0
H269 H 0.28625 0.29417 0.22631 0.0
C270 C 0.31505 0.29713 0.30628 0.0
C271 C 0.33739 0.30245 0.34603 0.0
C272 C 0.3584 0.29472 0.27349 0.0
C273 C 0.40289 0.30093 0.35385 0.0
C274 C 0.44623 0.297 0.32176 0.0
C275 C 0.46757 0.2993 0.24826 0.0
C276 C 0.44453 0.30358 0.20835 0.0
C277 C 0.42464 0.29577 0.28117 0.0
C278 C 0.37936 0.30007 0.20066 0.0
C279 C 0.33668 0.29503 0.23289 0.0
H280 H 0.36602 0.71276 0.84603 0.0
H281 H 0.54499 0.71461 0.78132 0.0
H282 H 0.48934 0.72248 0.7163 0.0
H283 H 0.38939 0.71704 0.67759 0.0
H284 H 0.21045 0.71535 0.74229 0.0
H285 H 0.26604 0.72001 0.80778 0.0
C286 C 0.39275 0.71613 0.81782 0.0
C287 C 0.45926 0.71289 0.81814 0.0
C288 C 0.36029 0.72026 0.78062 0.0
C289 C 0.49378 0.71725 0.78168 0.0
C290 C 0.46187 0.72137 0.74448 0.0
C291 C 0.36264 0.71905 0.70598 0.0
C292 C 0.29616 0.71576 0.70539 0.0
C293 C 0.39509 0.72125 0.74343 0.0
C294 C 0.26162 0.71818 0.74212 0.0
C295 C 0.29351 0.72042 0.77957 0.0
H296 H 0.9942 0.69464 0.74704 0.0
H297 H 1.00018 0.6001 0.72906 0.0
H298 H 0.89456 0.59494 0.75965 0.0
H299 H 0.79927 0.61725 0.79051 0.0
H300 H 0.79372 0.71125 0.81251 0.0
H301 H 0.89999 0.7168 0.78189 0.0
C302 C 0.9722 0.67298 0.74997 0.0
C303 C 1.00508 0.64777 0.73581 0.0
C304 C 0.91147 0.67011 0.76836 0.0
C305 C 0.97629 0.61977 0.74009 0.0
C306 C 0.9157 0.61683 0.75741 0.0
C307 C 0.82134 0.63894 0.7885 0.0
C308 C 0.7884 0.66385 0.80339 0.0
C309 C 0.88271 0.64182 0.77149 0.0
C310 C 0.81815 0.69175 0.80136 0.0
C311 C 0.87879 0.69491 0.78368 0.0
H312 H 0.76224 0.35116 0.29533 0.0
H313 H 0.82741 0.34821 0.16962 0.0
H314 H 0.93718 0.34547 0.19292 0.0
H315 H 1.01529 0.3447 0.24887 0.0
H316 H 0.94993 0.34995 0.3744 0.0
H317 H 0.84018 0.35096 0.35112 0.0
C318 C 0.80021 0.35022 0.27285 0.0
C319 C 0.78571 0.34998 0.23059 0.0
C320 C 0.86367 0.34898 0.28646 0.0
C321 C 0.8363 0.34811 0.20227 0.0
C322 C 0.89946 0.34672 0.21561 0.0
C323 C 0.9773 0.34632 0.27126 0.0
C324 C 0.99178 0.34725 0.31352 0.0
C325 C 0.91379 0.34728 0.25762 0.0
C326 C 0.94107 0.3488 0.3418 0.0
C327 C 0.87792 0.34959 0.32847 0.0
H328 H 0.89768 0.80379 0.35309 0.0
H329 H 0.71203 0.80231 0.29781 0.0
H330 H 0.7605 0.79641 0.22995 0.0
H331 H 0.85599 0.80202 0.18601 0.0
H332 H 0.04162 0.80228 0.24135 0.0
H333 H 0.99322 0.7976 0.30953 0.0
C334 C 0.8679 0.801 0.3263 0.0
C335 C 0.80146 0.80366 0.33032 0.0
C336 C 0.89623 0.79781 0.28737 0.0
C337 C 0.76321 0.80007 0.29552 0.0
C338 C 0.79101 0.79707 0.25664 0.0
C339 C 0.88578 0.7999 0.21297 0.0
C340 C 0.95219 0.80269 0.2088 0.0
C341 C 0.85748 0.7974 0.25206 0.0
C342 C 0.99047 0.79994 0.24379 0.0
C343 C 0.96271 0.79763 0.28282 0.0
H344 H 0.89778 0.21395 0.68558 0.0
H345 H 0.71263 0.21481 0.74258 0.0
H346 H 0.76148 0.22154 0.80992 0.0
H347 H 0.85737 0.21633 0.85292 0.0
H348 H 0.04251 0.21641 0.79583 0.0
H349 H 0.99353 0.22092 0.72811 0.0
C350 C 0.86821 0.21681 0.71264 0.0
C351 C 0.80188 0.21372 0.70938 0.0
C352 C 0.89676 0.22042 0.75121 0.0
C353 C 0.76376 0.21739 0.74441 0.0
C354 C 0.79177 0.22086 0.78296 0.0
C355 C 0.8869 0.21852 0.82568 0.0
C356 C 0.9533 0.21579 0.82916 0.0
C357 C 0.85828 0.22085 0.78687 0.0
C358 C 0.99133 0.21866 0.79386 0.0
C359 C 0.96325 0.22087 0.7551 0.0
H360 H 0.24736 0.17068 0.74773 0.0
H361 H 0.32174 0.16609 0.87081 0.0
H362 H 0.42997 0.16745 0.84381 0.0
H363 H 0.5034 0.16837 0.78543 0.0
H364 H 0.42997 0.17113 0.66209 0.0
H365 H 0.32135 0.17232 0.68904 0.0
C366 C 0.28719 0.16976 0.76865 0.0
C367 C 0.2762 0.16814 0.81129 0.0
C368 C 0.34946 0.17029 0.75288 0.0
C369 C 0.32857 0.16762 0.83794 0.0
C370 C 0.39058 0.16823 0.8225 0.0
C371 C 0.46372 0.169 0.76436 0.0
C372 C 0.47498 0.16936 0.72175 0.0
C373 C 0.40154 0.1693 0.78005 0.0
C374 C 0.42284 0.171 0.69499 0.0
C375 C 0.36067 0.17148 0.7104 0.0
H376 H 0.2462 0.8497 0.28735 0.0
H377 H 0.32101 0.85001 0.16383 0.0
H378 H 0.42908 0.84818 0.19043 0.0
H379 H 0.50238 0.8479 0.24856 0.0
H380 H 0.4282 0.84961 0.37217 0.0
H381 H 0.31982 0.84904 0.34569 0.0
C382 C 0.28606 0.84961 0.2662 0.0
C383 C 0.27519 0.85013 0.22357 0.0
C384 C 0.34826 0.84886 0.28173 0.0
C385 C 0.32766 0.84934 0.19671 0.0
C386 C 0.38962 0.84847 0.21192 0.0
C387 C 0.46264 0.8484 0.26979 0.0
C388 C 0.47374 0.84903 0.31235 0.0
C389 C 0.40046 0.84845 0.25434 0.0
C390 C 0.42134 0.84889 0.33932 0.0
C391 C 0.35924 0.84877 0.32417 0.0
H392 H 0.08958 0.53877 0.58083 0.0
H393 H 0.14555 0.58182 0.46771 0.0
H394 H 0.13711 0.53477 0.43138 0.0
H395 H 0.12313 0.481 0.43307 0.0
H396 H 0.07572 0.43693 0.54716 0.0
H397 H 0.06886 0.48485 0.58144 0.0
C398 C 0.09881 0.53786 0.54809 0.0
C399 C 0.11858 0.56359 0.52695 0.0
C400 C 0.09525 0.51058 0.5276 0.0
C401 C 0.13097 0.56217 0.48463 0.0
C402 C 0.12602 0.53533 0.46388 0.0
C403 C 0.11115 0.48183 0.46544 0.0
C404 C 0.10092 0.45533 0.48759 0.0
C405 C 0.1098 0.5093 0.48527 0.0
C406 C 0.08358 0.45693 0.52924 0.0
C407 C 0.08032 0.48434 0.549 0.0
H408 H 0.66573 0.56829 0.03835 0.0
H409 H 0.65644 0.53506 0.91492 0.0
H410 H 0.66475 0.48411 0.94058 0.0
H411 H 0.6619 0.44885 0.99862 0.0
H412 H 0.66457 0.48201 0.12225 0.0
H413 H 0.67231 0.53293 0.09629 0.0
C414 C 0.667 0.54987 1.01715 0.0
C415 C 0.66025 0.55532 0.9749 0.0
C416 C 0.66994 0.52056 0.03223 0.0
C417 C 0.66117 0.5313 0.94764 0.0
C418 C 0.6658 0.50219 0.96228 0.0
C419 C 0.66568 0.46722 0.01977 0.0
C420 C 0.6624 0.46175 0.06222 0.0
C421 C 0.66834 0.4965 1.00459 0.0
C422 C 0.66653 0.48575 0.0894 0.0
C423 C 0.67086 0.51485 0.07458 0.0
H424 H 0.59108 0.03741 0.59156 0.0
H425 H 0.59779 0.08511 0.4765 0.0
H426 H 0.59016 0.03842 0.43903 0.0
H427 H 0.59319 0.98382 0.43926 0.0
H428 H 0.58582 0.93613 0.55432 0.0
H429 H 0.5812 0.98297 0.59164 0.0
C430 C 0.59003 0.0375 0.55829 0.0
C431 C 0.59562 0.0645 0.53672 0.0
C432 C 0.58583 0.01061 0.53704 0.0
C433 C 0.59336 0.06453 0.49367 0.0
C434 C 0.58942 0.03787 0.47228 0.0
C435 C 0.58968 0.98378 0.47248 0.0
C436 C 0.59044 0.95669 0.49412 0.0
C437 C 0.58737 0.01075 0.49365 0.0
C438 C 0.58505 0.95676 0.53708 0.0
C439 C 0.58289 0.98351 0.5584 0.0
H440 H 0.15481 0.97983 0.09286 0.0
H441 H 0.15549 0.93563 0.97602 0.0
H442 H 0.16136 0.98357 0.94046 0.0
H443 H 0.15605 0.03816 0.94265 0.0
H444 H 0.15621 0.08235 0.05948 0.0
H445 H 0.161 0.0344 0.09504 0.0
C446 C 0.15694 0.98075 0.05961 0.0
C447 C 0.15413 0.95428 0.03704 0.0
C448 C 0.16015 1.00838 0.03942 0.0
C449 C 0.15784 0.9557 0.99403 0.0
C450 C 0.16075 0.9831 0.9737 0.0
C451 C 0.15785 0.03723 0.97589 0.0
C452 C 0.15521 0.06371 0.99846 0.0
C453 C 0.16039 0.00959 0.99607 0.0
C454 C 0.15846 0.06228 0.04146 0.0
C455 C 0.16073 0.03487 0.06179 0.0
H456 H 0.40881 0.28482 0.46302 0.0
H457 H 0.34575 0.30446 0.58561 0.0
H458 H 0.43326 0.27491 0.61415 0.0
H459 H 0.52913 0.24366 0.60378 0.0
H460 H 0.59347 0.22696 0.48 0.0
H461 H 0.50486 0.25511 0.45267 0.0
C462 C 0.41391 0.28229 0.49595 0.0
C463 C 0.37068 0.29647 0.52219 0.0
C464 C 0.46512 0.26596 0.51201 0.0
C465 C 0.37857 0.29365 0.56486 0.0
C466 C 0.4286 0.27681 0.58113 0.0
C467 C 0.5239 0.24632 0.57088 0.0
C468 C 0.56822 0.23303 0.54419 0.0
C469 C 0.47257 0.26296 0.55499 0.0
C470 C 0.56046 0.23681 0.50154 0.0
C471 C 0.50949 0.2529 0.48567 0.0
H472 H 0.3891 0.71621 0.05471 0.0
H473 H 0.37682 0.74187 0.92724 0.0
H474 H 0.28501 0.77308 0.94248 0.0
H475 H 0.20603 0.79187 0.99132 0.0
H476 H 0.21871 0.7677 0.11935 0.0
H477 H 0.31202 0.73694 0.10456 0.0
C478 C 0.36634 0.72867 0.03031 0.0
C479 C 0.39005 0.72663 0.98982 0.0
C480 C 0.31326 0.74665 0.03934 0.0
C481 C 0.36037 0.74326 0.95868 0.0
C482 C 0.30741 0.76094 0.96734 0.0
C483 C 0.22892 0.77981 1.01608 0.0
C484 C 0.20468 0.78185 0.05639 0.0
C485 C 0.28307 0.76258 1.00744 0.0
C486 C 0.23594 0.76642 0.08805 0.0
C487 C 0.2894 0.74884 0.07958 0.0
H488 H 0.39392 0.7386 0.57358 0.0
H489 H 0.32606 0.72455 0.45036 0.0
H490 H 0.41802 0.75048 0.4226 0.0
H491 H 0.51654 0.77937 0.43299 0.0
H492 H 0.58553 0.79131 0.55635 0.0
H493 H 0.49565 0.76361 0.58371 0.0
C494 C 0.39927 0.74073 0.54065 0.0
C495 C 0.35166 0.72983 0.5145 0.0
C496 C 0.4531 0.75543 0.52455 0.0
C497 C 0.3604 0.73319 0.47174 0.0
C498 C 0.41357 0.74792 0.45558 0.0
C499 C 0.51229 0.77562 0.46578 0.0
C500 C 0.55774 0.78777 0.49241 0.0
C501 C 0.45995 0.75952 0.48168 0.0
C502 C 0.55123 0.78256 0.53492 0.0
C503 C 0.49963 0.76667 0.55077 0.0
H504 H 0.2123 0.22408 0.04243 0.0
H505 H 0.2135 0.25392 0.9164 0.0
H506 H 0.30487 0.28605 0.93057 0.0
H507 H 0.38351 0.30635 0.97963 0.0
H508 H 0.38313 0.27424 0.10462 0.0
H509 H 0.29302 0.24215 0.08991 0.0
C510 C 0.23228 0.23767 1.018 0.0
C511 C 0.20542 0.23686 0.9785 0.0
C512 C 0.28537 0.2556 0.02619 0.0
C513 C 0.23294 0.25423 0.94712 0.0
C514 C 0.28522 0.2726 0.95523 0.0
C515 C 0.36369 0.29227 1.00355 0.0
C516 C 0.39024 0.29281 0.04324 0.0
C517 C 0.3117 0.27358 0.99475 0.0
C518 C 0.36438 0.27413 0.07377 0.0
C519 C 0.31241 0.25588 0.06544 0.0
H520 H 0.93679 0.69629 0.55795 0.0
H521 H 0.07711 0.75905 0.59903 0.0
H522 H 1.0084 0.80021 0.57761 0.0
H523 H 0.91378 0.81774 0.54044 0.0
H524 H 0.77345 0.75426 0.50067 0.0
H525 H 0.83766 0.71389 0.52781 0.0
C526 C 0.95204 0.719 0.56267 0.0
C527 C 1.01211 0.7247 0.57953 0.0
C528 C 0.91289 0.74234 0.54985 0.0
C529 C 0.03095 0.75415 0.58612 0.0
C530 C 0.99193 0.77764 0.57357 0.0
C531 C 0.89655 0.79518 0.53827 0.0
C532 C 0.83926 0.78916 0.51762 0.0
C533 C 0.93354 0.77195 0.55436 0.0
C534 C 0.8181 0.75963 0.51518 0.0
C535 C 0.85455 0.73647 0.53105 0.0
H536 H 0.70964 0.29809 1.00076 0.0
H537 H 0.71287 0.27085 0.12795 0.0
H538 H 0.80539 0.23947 0.11449 0.0
H539 H 0.88489 0.2194 0.0662 0.0
H540 H 0.88207 0.24771 0.93954 0.0
H541 H 0.79065 0.27942 0.95332 0.0
C542 C 0.73031 0.28518 0.02554 0.0
C543 C 0.70392 0.28657 0.06521 0.0
C544 C 0.78404 0.2676 1.01774 0.0
C545 C 0.73203 0.27006 0.09707 0.0
C546 C 0.78501 0.25215 0.08942 0.0
C547 C 0.86422 0.23257 0.04171 0.0
C548 C 0.89043 0.23124 1.00197 0.0
C549 C 0.81136 0.25071 0.04984 0.0
C550 C 0.86359 0.24866 0.97055 0.0
C551 C 0.81086 0.26659 0.97832 0.0
H552 H 0.05469 0.29493 0.54406 0.0
H553 H 0.06489 0.26459 0.41893 0.0
H554 H 0.97318 0.23222 0.4311 0.0
H555 H 0.89026 0.21244 0.4777 0.0
H556 H 0.87978 0.24407 0.60209 0.0
H557 H 0.97086 0.27641 0.58961 0.0
C558 C 0.03719 0.28111 0.51946 0.0
C559 C 0.06701 0.28193 0.48077 0.0
C560 C 0.98397 0.26302 0.52645 0.0
C561 C 0.04298 0.26424 0.44907 0.0
C562 C 0.99049 0.24578 0.45598 0.0
C563 C 0.90803 0.22645 0.50197 0.0
C564 C 0.87818 0.22594 0.54067 0.0
C565 C 0.96063 0.24499 0.49458 0.0
C566 C 0.90119 0.24441 0.57183 0.0
C567 C 0.95367 0.26271 0.56484 0.0
H568 H 0.71165 0.71778 0.03411 0.0
H569 H 0.71668 0.74597 0.9073 0.0
H570 H 0.80797 0.77787 0.92149 0.0
H571 H 0.88566 0.79821 0.97033 0.0
H572 H 0.88083 0.76911 0.09666 0.0
H573 H 0.79093 0.73674 0.08209 0.0
C574 C 0.73247 0.73099 1.00955 0.0
C575 C 0.70692 0.7297 0.96977 0.0
C576 C 0.78541 0.74892 1.01779 0.0
C577 C 0.73521 0.74664 0.93823 0.0
C578 C 0.78747 0.76486 0.94631 0.0
C579 C 0.86488 0.78475 0.9946 0.0
C580 C 0.89007 0.78606 0.03449 0.0
C581 C 0.81287 0.76623 0.98601 0.0
C582 C 0.86313 0.76822 0.06557 0.0
C583 C 0.81127 0.74989 0.05734 0.0
loop_
_geom_bond_atom_site_label_1
_geom_bond_atom_site_label_2
_geom_bond_distance
_geom_bond_site_symmetry_2
_ccdc_geom_bond_type
C0 C1 1.351 . S
C0 N3 1.368 . S
C0 H5 0.931 . S
C1 C0 1.351 . S
C1 N2 1.373 . S
C1 H29 0.930 . S
N2 C1 1.373 . S
N2 C4 1.340 . S
N3 C0 1.368 . S
N3 C4 1.321 . S
N3 Co6 2.135 . S
C4 N2 1.340 . S
C4 N3 1.321 . S
C4 H28 0.930 . S
H5 C0 0.931 . S
Co6 N3 2.135 . S
Co6 N9 2.121 . S
Co6 O14 2.055 . S
Co6 O17 2.039 . S
Co6 N20 2.140 . S
C7 O8 1.227 . S
C7 O17 1.265 . S
O8 C7 1.227 . S
N9 Co6 2.121 . S
N9 C11 1.375 . S
N9 C12 1.313 . S
C10 C11 1.338 . S
C10 N13 1.377 . S
C10 H30 0.930 . S
C11 N9 1.375 . S
C11 C10 1.338 . S
C11 H15 0.931 . S
C12 N9 1.313 . S
C12 N13 1.344 . S
C12 H16 0.930 . S
N13 C10 1.377 . S
N13 C12 1.344 . S
O14 Co6 2.055 . S
O14 C18 1.253 . S
H15 C11 0.931 . S
H16 C12 0.930 . S
O17 Co6 2.039 . S
O17 C7 1.265 . S
C18 O14 1.253 . S
C18 O19 1.227 . S
O19 C18 1.227 . S
N20 Co6 2.140 . S
N20 C23 1.346 . S
N20 C24 1.345 . S
C21 C22 1.387 . S
C21 C25 1.391 . S
C22 C21 1.387 . S
C22 C23 1.369 . S
C22 H31 0.929 . S
C23 N20 1.346 . S
C23 C22 1.369 . S
C23 H26 0.928 . S
C24 N20 1.345 . S
C24 C25 1.371 . S
C24 H27 0.931 . S
C25 C21 1.391 . S
C25 C24 1.371 . S
C25 H32 0.930 . S
H26 C23 0.928 . S
H27 C24 0.931 . S
H28 C4 0.930 . S
H29 C1 0.930 . S
H30 C10 0.930 . S
H31 C22 0.929 . S
H32 C25 0.930 . S
C33 C34 1.351 . S
C33 N36 1.368 . S
C33 H38 0.931 . S
C34 C33 1.351 . S
C34 N35 1.373 . S
C34 H62 0.930 . S
N35 C34 1.373 . S
N35 C37 1.340 . S
N36 C33 1.368 . S
N36 C37 1.321 . S
N36 Co39 2.135 . S
C37 N35 1.340 . S
C37 N36 1.321 . S
C37 H61 0.930 . S
H38 C33 0.931 . S
Co39 N36 2.135 . S
Co39 N42 2.121 . S
Co39 O47 2.055 . S
Co39 O50 2.039 . S
Co39 N53 2.140 . S
C40 O41 1.227 . S
C40 O50 1.265 . S
O41 C40 1.227 . S
N42 Co39 2.121 . S
N42 C44 1.375 . S
N42 C45 1.313 . S
C43 C44 1.338 . S
C43 N46 1.377 . S
C43 H63 0.930 1_556 S
C44 N42 1.375 . S
C44 C43 1.338 . S
C44 H48 0.931 . S
C45 N42 1.313 . S
C45 N46 1.344 . S
C45 H49 0.930 . S
N46 C43 1.377 . S
N46 C45 1.344 . S
O47 Co39 2.055 . S
O47 C51 1.253 . S
H48 C44 0.931 . S
H49 C45 0.930 . S
O50 Co39 2.039 . S
O50 C40 1.265 . S
C51 O47 1.253 . S
C51 O52 1.227 . S
O52 C51 1.227 . S
N53 Co39 2.140 . S
N53 C56 1.346 . S
N53 C57 1.345 . S
C54 C55 1.387 . S
C54 C58 1.391 . S
C55 C54 1.387 . S
C55 C56 1.369 . S
C55 H64 0.929 . S
C56 N53 1.346 . S
C56 C55 1.369 . S
C56 H59 0.928 . S
C57 N53 1.345 . S
C57 C58 1.371 . S
C57 H60 0.931 . S
C58 C54 1.391 . S
C58 C57 1.371 . S
C58 H65 0.930 . S
H59 C56 0.928 . S
H60 C57 0.931 . S
H61 C37 0.930 . S
H62 C34 0.930 . S
H63 C43 0.930 1_554 S
H64 C55 0.929 . S
H65 C58 0.930 . S
C66 C67 1.351 . S
C66 N69 1.368 . S
C66 H71 0.931 . S
C67 C66 1.351 . S
C67 N68 1.373 . S
C67 H95 0.930 . S
N68 C67 1.373 . S
N68 C70 1.340 . S
N69 C66 1.368 . S
N69 C70 1.321 . S
N69 Co72 2.135 . S
C70 N68 1.340 . S
C70 N69 1.321 . S
C70 H94 0.930 . S
H71 C66 0.931 . S
Co72 N69 2.135 . S
Co72 N75 2.121 . S
Co72 O80 2.055 . S
Co72 O83 2.039 . S
Co72 N86 2.140 . S
C73 O74 1.227 . S
C73 O83 1.265 . S
O74 C73 1.227 . S
N75 Co72 2.121 . S
N75 C77 1.375 . S
N75 C78 1.313 . S
C76 C77 1.338 . S
C76 N79 1.377 . S
C76 H96 0.930 . S
C77 N75 1.375 . S
C77 C76 1.338 . S
C77 H81 0.931 . S
C78 N75 1.313 . S
C78 N79 1.344 . S
C78 H82 0.930 . S
N79 C76 1.377 . S
N79 C78 1.344 . S
O80 Co72 2.055 . S
O80 C84 1.253 . S
H81 C77 0.931 . S
H82 C78 0.930 . S
O83 Co72 2.039 . S
O83 C73 1.265 . S
C84 O80 1.253 . S
C84 O85 1.227 . S
O85 C84 1.227 . S
N86 Co72 2.140 . S
N86 C89 1.346 . S
N86 C90 1.345 . S
C87 C88 1.387 . S
C87 C91 1.391 . S
C88 C87 1.387 . S
C88 C89 1.369 . S
C88 H97 0.929 . S
C89 N86 1.346 . S
C89 C88 1.369 . S
C89 H92 0.928 . S
C90 N86 1.345 . S
C90 C91 1.371 . S
C90 H93 0.931 . S
C91 C87 1.391 . S
C91 C90 1.371 . S
C91 H98 0.930 . S
H92 C89 0.928 . S
H93 C90 0.931 . S
H94 C70 0.930 . S
H95 C67 0.930 . S
H96 C76 0.930 . S
H97 C88 0.929 . S
H98 C91 0.930 . S
C99 C100 1.351 . S
C99 N102 1.368 . S
C99 H104 0.931 . S
C100 C99 1.351 . S
C100 N101 1.373 . S
C100 H128 0.930 . S
N101 C100 1.373 . S
N101 C103 1.340 . S
N102 C99 1.368 . S
N102 C103 1.321 . S
N102 Co105 2.135 . S
C103 N101 1.340 . S
C103 N102 1.321 . S
C103 H127 0.930 . S
H104 C99 0.931 . S
Co105 N102 2.135 . S
Co105 N108 2.121 . S
Co105 O113 2.055 . S
Co105 O116 2.039 . S
Co105 N119 2.140 . S
C106 O107 1.227 . S
C106 O116 1.265 . S
O107 C106 1.227 . S
N108 Co105 2.121 . S
N108 C110 1.375 . S
N108 C111 1.313 . S
C109 C110 1.338 . S
C109 N112 1.377 . S
C109 H129 0.930 1_554 S
C110 N108 1.375 . S
C110 C109 1.338 . S
C110 H114 0.931 . S
C111 N108 1.313 . S
C111 N112 1.344 . S
C111 H115 0.930 . S
N112 C109 1.377 . S
N112 C111 1.344 . S
O113 Co105 2.055 . S
O113 C117 1.253 . S
H114 C110 0.931 . S
H115 C111 0.930 . S
O116 Co105 2.039 . S
O116 C106 1.265 . S
C117 O113 1.253 . S
C117 O118 1.227 . S
O118 C117 1.227 . S
N119 Co105 2.140 . S
N119 C122 1.346 . S
N119 C123 1.345 . S
C120 C121 1.387 . S
C120 C124 1.391 . S
C121 C120 1.387 . S
C121 C122 1.369 . S
C121 H130 0.929 . S
C122 N119 1.346 . S
C122 C121 1.369 . S
C122 H125 0.928 . S
C123 N119 1.345 . S
C123 C124 1.371 . S
C123 H126 0.931 . S
C124 C120 1.391 . S
C124 C123 1.371 . S
C124 H131 0.930 . S
H125 C122 0.928 . S
H126 C123 0.931 . S
H127 C103 0.930 . S
H128 C100 0.930 . S
H129 C109 0.930 1_556 S
H130 C121 0.929 . S
H131 C124 0.930 . S
C132 C133 1.351 . S
C132 N135 1.368 . S
C132 H137 0.931 . S
C133 C132 1.351 . S
C133 N134 1.373 . S
C133 H161 0.930 . S
N134 C133 1.373 . S
N134 C136 1.340 . S
N135 C132 1.368 . S
N135 C136 1.321 . S
N135 Co138 2.135 . S
C136 N134 1.340 . S
C136 N135 1.321 . S
C136 H160 0.930 . S
H137 C132 0.931 . S
Co138 N135 2.135 . S
Co138 N141 2.121 . S
Co138 O146 2.055 . S
Co138 O149 2.039 . S
Co138 N152 2.140 . S
C139 O140 1.227 . S
C139 O149 1.265 . S
O140 C139 1.227 . S
N141 Co138 2.121 . S
N141 C143 1.375 . S
N141 C144 1.313 . S
C142 C143 1.338 . S
C142 N145 1.377 . S
C142 H162 0.930 . S
C143 N141 1.375 . S
C143 C142 1.338 . S
C143 H147 0.931 . S
C144 N141 1.313 . S
C144 N145 1.344 . S
C144 H148 0.930 . S
N145 C142 1.377 . S
N145 C144 1.344 . S
O146 Co138 2.055 . S
O146 C150 1.253 . S
H147 C143 0.931 . S
H148 C144 0.930 . S
O149 Co138 2.039 . S
O149 C139 1.265 . S
C150 O146 1.253 . S
C150 O151 1.227 . S
O151 C150 1.227 . S
N152 Co138 2.140 . S
N152 C155 1.346 . S
N152 C156 1.345 . S
C153 C154 1.387 . S
C153 C157 1.391 . S
C154 C153 1.387 . S
C154 C155 1.369 . S
C154 H163 0.929 . S
C155 N152 1.346 . S
C155 C154 1.369 . S
C155 H158 0.928 . S
C156 N152 1.345 . S
C156 C157 1.371 . S
C156 H159 0.931 . S
C157 C153 1.391 . S
C157 C156 1.371 . S
C157 H164 0.930 . S
H158 C155 0.928 . S
H159 C156 0.931 . S
H160 C136 0.930 . S
H161 C133 0.930 . S
H162 C142 0.930 . S
H163 C154 0.929 . S
H164 C157 0.930 . S
C165 C166 1.351 . S
C165 N168 1.368 . S
C165 H170 0.931 . S
C166 C165 1.351 . S
C166 N167 1.373 . S
C166 H194 0.930 . S
N167 C166 1.373 . S
N167 C169 1.340 . S
N168 C165 1.368 . S
N168 C169 1.321 . S
N168 Co171 2.135 . S
C169 N167 1.340 . S
C169 N168 1.321 . S
C169 H193 0.930 . S
H170 C165 0.931 . S
Co171 N168 2.135 . S
Co171 N174 2.121 1_455 S
Co171 O179 2.055 . S
Co171 O182 2.039 . S
Co171 N185 2.140 . S
C172 O173 1.227 . S
C172 O182 1.265 . S
O173 C172 1.227 . S
N174 Co171 2.121 1_655 S
N174 C176 1.375 1_655 S
N174 C177 1.313 . S
C175 C176 1.338 1_655 S
C175 N178 1.377 . S
C175 H195 0.930 1_556 S
C176 N174 1.375 1_455 S
C176 C175 1.338 1_455 S
C176 H180 0.931 . S
C177 N174 1.313 . S
C177 N178 1.344 . S
C177 H181 0.930 . S
N178 C175 1.377 . S
N178 C177 1.344 . S
O179 Co171 2.055 . S
O179 C183 1.253 1_455 S
H180 C176 0.931 . S
H181 C177 0.930 . S
O182 Co171 2.039 . S
O182 C172 1.265 . S
C183 O179 1.253 1_655 S
C183 O184 1.227 . S
O184 C183 1.227 . S
N185 Co171 2.140 . S
N185 C188 1.346 . S
N185 C189 1.345 . S
C186 C187 1.387 . S
C186 C190 1.391 . S
C187 C186 1.387 . S
C187 C188 1.369 . S
C187 H196 0.929 . S
C188 N185 1.346 . S
C188 C187 1.369 . S
C188 H191 0.928 . S
C189 N185 1.345 . S
C189 C190 1.371 . S
C189 H192 0.931 1_455 S
C190 C186 1.391 . S
C190 C189 1.371 . S
C190 H197 0.930 1_455 S
H191 C188 0.928 . S
H192 C189 0.931 1_655 S
H193 C169 0.930 . S
H194 C166 0.930 . S
H195 C175 0.930 1_554 S
H196 C187 0.929 . S
H197 C190 0.930 1_655 S
C198 C199 1.351 . S
C198 N201 1.368 . S
C198 H203 0.931 . S
C199 C198 1.351 . S
C199 N200 1.373 . S
C199 H227 0.930 . S
N200 C199 1.373 . S
N200 C202 1.340 . S
N201 C198 1.368 . S
N201 C202 1.321 . S
N201 Co204 2.135 . S
C202 N200 1.340 . S
C202 N201 1.321 . S
C202 H226 0.930 . S
H203 C198 0.931 . S
Co204 N201 2.135 . S
Co204 N207 2.121 . S
Co204 O212 2.055 . S
Co204 O215 2.039 . S
Co204 N218 2.140 . S
C205 O206 1.227 . S
C205 O215 1.265 . S
O206 C205 1.227 . S
N207 Co204 2.121 . S
N207 C209 1.375 . S
N207 C210 1.313 . S
C208 C209 1.338 . S
C208 N211 1.377 . S
C208 H228 0.930 . S
C209 N207 1.375 . S
C209 C208 1.338 . S
C209 H213 0.931 . S
C210 N207 1.313 . S
C210 N211 1.344 . S
C210 H214 0.930 . S
N211 C208 1.377 . S
N211 C210 1.344 . S
O212 Co204 2.055 . S
O212 C216 1.253 . S
H213 C209 0.931 . S
H214 C210 0.930 . S
O215 Co204 2.039 . S
O215 C205 1.265 . S
C216 O212 1.253 . S
C216 O217 1.227 . S
O217 C216 1.227 . S
N218 Co204 2.140 . S
N218 C221 1.346 . S
N218 C222 1.345 . S
C219 C220 1.387 . S
C219 C223 1.391 . S
C220 C219 1.387 . S
C220 C221 1.369 . S
C220 H229 0.929 . S
C221 N218 1.346 . S
C221 C220 1.369 . S
C221 H224 0.928 . S
C222 N218 1.345 . S
C222 C223 1.371 . S
C222 H225 0.931 . S
C223 C219 1.391 . S
C223 C222 1.371 . S
C223 H230 0.930 . S
H224 C221 0.928 . S
H225 C222 0.931 . S
H226 C202 0.930 . S
H227 C199 0.930 . S
H228 C208 0.930 . S
H229 C220 0.929 . S
H230 C223 0.930 . S
C231 C232 1.351 . S
C231 N234 1.368 . S
C231 H236 0.931 . S
C232 C231 1.351 . S
C232 N233 1.373 . S
C232 H260 0.930 . S
N233 C232 1.373 . S
N233 C235 1.340 . S
N234 C231 1.368 . S
N234 C235 1.321 . S
N234 Co237 2.135 . S
C235 N233 1.340 . S
C235 N234 1.321 . S
C235 H259 0.930 . S
H236 C231 0.931 . S
Co237 N234 2.135 . S
Co237 N240 2.121 1_455 S
Co237 O245 2.055 . S
Co237 O248 2.039 . S
Co237 N251 2.140 . S
C238 O239 1.227 . S
C238 O248 1.265 . S
O239 C238 1.227 . S
N240 Co237 2.121 1_655 S
N240 C242 1.375 1_655 S
N240 C243 1.313 . S
C241 C242 1.338 1_655 S
C241 N244 1.377 . S
C241 H261 0.930 1_554 S
C242 N240 1.375 1_455 S
C242 C241 1.338 1_455 S
C242 H246 0.931 . S
C243 N240 1.313 . S
C243 N244 1.344 . S
C243 H247 0.930 . S
N244 C241 1.377 . S
N244 C243 1.344 . S
O245 Co237 2.055 . S
O245 C249 1.253 1_455 S
H246 C242 0.931 . S
H247 C243 0.930 . S
O248 Co237 2.039 . S
O248 C238 1.265 . S
C249 O245 1.253 1_655 S
C249 O250 1.227 . S
O250 C249 1.227 . S
N251 Co237 2.140 . S
N251 C254 1.346 . S
N251 C255 1.345 . S
C252 C253 1.387 . S
C252 C256 1.391 . S
C253 C252 1.387 . S
C253 C254 1.369 . S
C253 H262 0.929 . S
C254 N251 1.346 . S
C254 C253 1.369 . S
C254 H257 0.928 . S
C255 N251 1.345 . S
C255 C256 1.371 . S
C255 H258 0.931 1_455 S
C256 C252 1.391 . S
C256 C255 1.371 . S
C256 H263 0.930 1_455 S
H257 C254 0.928 . S
H258 C255 0.931 1_655 S
H259 C235 0.930 . S
H260 C232 0.930 . S
H261 C241 0.930 1_556 S
H262 C253 0.929 . S
H263 C256 0.930 1_655 S
H264 C270 0.930 . S
H265 C273 0.930 . S
H266 C274 0.930 . S
H267 C275 0.930 . S
H268 C278 0.930 . S
H269 C279 0.930 . S
C270 H264 0.930 . S
C270 C271 1.355 . S
C270 C272 1.415 . S
C271 C270 1.355 . S
C271 C273 1.419 . S
C272 C270 1.415 . S
C272 C277 1.425 . S
C272 C279 1.409 . S
C273 H265 0.930 . S
C273 C271 1.419 . S
C273 C274 1.362 . S
C274 H266 0.930 . S
C274 C273 1.362 . S
C274 C277 1.409 . S
C275 H267 0.930 . S
C275 C276 1.355 . S
C275 C277 1.415 . S
C276 C275 1.355 . S
C276 C278 1.419 . S
C277 C272 1.425 . S
C277 C274 1.409 . S
C277 C275 1.415 . S
C278 H268 0.930 . S
C278 C276 1.419 . S
C278 C279 1.362 . S
C279 H269 0.930 . S
C279 C272 1.409 . S
C279 C278 1.362 . S
H280 C286 0.930 . S
H281 C289 0.930 . S
H282 C290 0.930 . S
H283 C291 0.930 . S
H284 C294 0.930 . S
H285 C295 0.930 . S
C286 H280 0.930 . S
C286 C287 1.355 . S
C286 C288 1.415 . S
C287 C286 1.355 . S
C287 C289 1.419 . S
C288 C286 1.415 . S
C288 C293 1.425 . S
C288 C295 1.409 . S
C289 H281 0.930 . S
C289 C287 1.419 . S
C289 C290 1.362 . S
C290 H282 0.930 . S
C290 C289 1.362 . S
C290 C293 1.409 . S
C291 H283 0.930 . S
C291 C292 1.355 . S
C291 C293 1.415 . S
C292 C291 1.355 . S
C292 C294 1.419 . S
C293 C288 1.425 . S
C293 C290 1.409 . S
C293 C291 1.415 . S
C294 H284 0.930 . S
C294 C292 1.419 . S
C294 C295 1.362 . S
C295 H285 0.930 . S
C295 C288 1.409 . S
C295 C294 1.362 . S
H296 C302 0.930 . S
H297 C305 0.930 . S
H298 C306 0.930 . S
H299 C307 0.930 . S
H300 C310 0.930 . S
H301 C311 0.930 . S
C302 H296 0.930 . S
C302 C303 1.355 . S
C302 C304 1.415 . S
C303 C302 1.355 . S
C303 C305 1.419 . S
C304 C302 1.415 . S
C304 C309 1.425 . S
C304 C311 1.409 . S
C305 H297 0.930 . S
C305 C303 1.419 . S
C305 C306 1.362 . S
C306 H298 0.930 . S
C306 C305 1.362 . S
C306 C309 1.409 . S
C307 H299 0.930 . S
C307 C308 1.355 . S
C307 C309 1.415 . S
C308 C307 1.355 . S
C308 C310 1.419 . S
C309 C304 1.425 . S
C309 C306 1.409 . S
C309 C307 1.415 . S
C310 H300 0.930 . S
C310 C308 1.419 . S
C310 C311 1.362 . S
C311 H301 0.930 . S
C311 C304 1.409 . S
C311 C310 1.362 . S
H312 C318 0.930 . S
H313 C321 0.930 . S
H314 C322 0.930 . S
H315 C323 0.930 . S
H316 C326 0.930 . S
H317 C327 0.930 . S
C318 H312 0.930 . S
C318 C319 1.355 . S
C318 C320 1.415 . S
C319 C318 1.355 . S
C319 C321 1.419 . S
C320 C318 1.415 . S
C320 C325 1.425 . S
C320 C327 1.409 . S
C321 H313 0.930 . S
C321 C319 1.419 . S
C321 C322 1.362 . S
C322 H314 0.930 . S
C322 C321 1.362 . S
C322 C325 1.409 . S
C323 H315 0.930 . S
C323 C324 1.355 . S
C323 C325 1.415 . S
C324 C323 1.355 . S
C324 C326 1.419 . S
C325 C320 1.425 . S
C325 C322 1.409 . S
C325 C323 1.415 . S
C326 H316 0.930 . S
C326 C324 1.419 . S
C326 C327 1.362 . S
C327 H317 0.930 . S
C327 C320 1.409 . S
C327 C326 1.362 . S
H328 C334 0.930 . S
H329 C337 0.930 . S
H330 C338 0.930 . S
H331 C339 0.930 . S
H332 C342 0.930 1_455 S
H333 C343 0.930 . S
C334 H328 0.930 . S
C334 C335 1.355 . S
C334 C336 1.415 . S
C335 C334 1.355 . S
C335 C337 1.419 . S
C336 C334 1.415 . S
C336 C341 1.425 . S
C336 C343 1.409 . S
C337 H329 0.930 . S
C337 C335 1.419 . S
C337 C338 1.362 . S
C338 H330 0.930 . S
C338 C337 1.362 . S
C338 C341 1.409 . S
C339 H331 0.930 . S
C339 C340 1.355 . S
C339 C341 1.415 . S
C340 C339 1.355 . S
C340 C342 1.419 . S
C341 C336 1.425 . S
C341 C338 1.409 . S
C341 C339 1.415 . S
C342 H332 0.930 1_655 S
C342 C340 1.419 . S
C342 C343 1.362 . S
C343 H333 0.930 . S
C343 C336 1.409 . S
C343 C342 1.362 . S
H344 C350 0.930 . S
H345 C353 0.930 . S
H346 C354 0.930 . S
H347 C355 0.930 . S
H348 C358 0.930 . S
H349 C359 0.930 . S
C350 H344 0.930 . S
C350 C351 1.355 . S
C350 C352 1.415 . S
C351 C350 1.355 . S
C351 C353 1.419 . S
C352 C350 1.415 . S
C352 C357 1.425 . S
C352 C359 1.409 . S
C353 H345 0.930 . S
C353 C351 1.419 . S
C353 C354 1.362 . S
C354 H346 0.930 . S
C354 C353 1.362 . S
C354 C357 1.409 . S
C355 H347 0.930 . S
C355 C356 1.355 . S
C355 C357 1.415 . S
C356 C355 1.355 . S
C356 C358 1.419 . S
C357 C352 1.425 . S
C357 C354 1.409 . S
C357 C355 1.415 . S
C358 H348 0.930 . S
C358 C356 1.419 . S
C358 C359 1.362 . S
C359 H349 0.930 . S
C359 C352 1.409 . S
C359 C358 1.362 . S
H360 C366 0.930 . S
H361 C369 0.930 . S
H362 C370 0.930 . S
H363 C371 0.930 . S
H364 C374 0.930 . S
H365 C375 0.930 . S
C366 H360 0.930 . S
C366 C367 1.355 . S
C366 C368 1.415 . S
C367 C366 1.355 . S
C367 C369 1.419 . S
C368 C366 1.415 . S
C368 C373 1.425 . S
C368 C375 1.409 . S
C369 H361 0.930 . S
C369 C367 1.419 . S
C369 C370 1.362 . S
C370 H362 0.930 . S
C370 C369 1.362 . S
C370 C373 1.409 . S
C371 H363 0.930 . S
C371 C372 1.355 . S
C371 C373 1.415 . S
C372 C371 1.355 . S
C372 C374 1.419 . S
C373 C368 1.425 . S
C373 C370 1.409 . S
C373 C371 1.415 . S
C374 H364 0.930 . S
C374 C372 1.419 . S
C374 C375 1.362 . S
C375 H365 0.930 . S
C375 C368 1.409 . S
C375 C374 1.362 . S
H376 C382 0.930 . S
H377 C385 0.930 . S
H378 C386 0.930 . S
H379 C387 0.930 . S
H380 C390 0.930 . S
H381 C391 0.930 . S
C382 H376 0.930 . S
C382 C383 1.355 . S
C382 C384 1.415 . S
C383 C382 1.355 . S
C383 C385 1.419 . S
C384 C382 1.415 . S
C384 C389 1.425 . S
C384 C391 1.409 . S
C385 H377 0.930 . S
C385 C383 1.419 . S
C385 C386 1.362 . S
C386 H378 0.930 . S
C386 C385 1.362 . S
C386 C389 1.409 . S
C387 H379 0.930 . S
C387 C388 1.355 . S
C387 C389 1.415 . S
C388 C387 1.355 . S
C388 C390 1.419 . S
C389 C384 1.425 . S
C389 C386 1.409 . S
C389 C387 1.415 . S
C390 H380 0.930 . S
C390 C388 1.419 . S
C390 C391 1.362 . S
C391 H381 0.930 . S
C391 C384 1.409 . S
C391 C390 1.362 . S
H392 C398 0.930 . S
H393 C401 0.930 . S
H394 C402 0.930 . S
H395 C403 0.930 . S
H396 C406 0.930 . S
H397 C407 0.930 . S
C398 H392 0.930 . S
C398 C399 1.355 . S
C398 C400 1.415 . S
C399 C398 1.355 . S
C399 C401 1.419 . S
C400 C398 1.415 . S
C400 C405 1.425 . S
C400 C407 1.409 . S
C401 H393 0.930 . S
C401 C399 1.419 . S
C401 C402 1.362 . S
C402 H394 0.930 . S
C402 C401 1.362 . S
C402 C405 1.409 . S
C403 H395 0.930 . S
C403 C404 1.355 . S
C403 C405 1.415 . S
C404 C403 1.355 . S
C404 C406 1.419 . S
C405 C400 1.425 . S
C405 C402 1.409 . S
C405 C403 1.415 . S
C406 H396 0.930 . S
C406 C404 1.419 . S
C406 C407 1.362 . S
C407 H397 0.930 . S
C407 C400 1.409 . S
C407 C406 1.362 . S
H408 C414 0.930 . S
H409 C417 0.930 . S
H410 C418 0.930 . S
H411 C419 0.930 . S
H412 C422 0.930 . S
H413 C423 0.930 . S
C414 H408 0.930 . S
C414 C415 1.355 . S
C414 C416 1.414 . S
C415 C414 1.355 . S
C415 C417 1.419 . S
C416 C414 1.414 . S
C416 C421 1.425 1_556 S
C416 C423 1.410 1_556 S
C417 H409 0.930 . S
C417 C415 1.419 . S
C417 C418 1.362 . S
C418 H410 0.930 . S
C418 C417 1.362 . S
C418 C421 1.410 1_556 S
C419 H411 0.930 . S
C419 C420 1.355 . S
C419 C421 1.414 . S
C420 C419 1.355 . S
C420 C422 1.419 . S
C421 C416 1.425 1_554 S
C421 C418 1.410 1_554 S
C421 C419 1.414 . S
C422 H412 0.930 . S
C422 C420 1.419 . S
C422 C423 1.362 . S
C423 H413 0.930 . S
C423 C416 1.410 1_554 S
C423 C422 1.362 . S
H424 C430 0.930 . S
H425 C433 0.930 . S
H426 C434 0.930 . S
H427 C435 0.930 . S
H428 C438 0.930 . S
H429 C439 0.930 . S
C430 H424 0.930 . S
C430 C431 1.355 . S
C430 C432 1.395 1_545 S
C431 C430 1.355 . S
C431 C433 1.419 . S
C432 C430 1.395 1_565 S
C432 C437 1.424 1_565 S
C432 C439 1.430 . S
C433 H425 0.930 . S
C433 C431 1.419 . S
C433 C434 1.362 . S
C434 H426 0.930 . S
C434 C433 1.362 . S
C434 C437 1.430 . S
C435 H427 0.930 . S
C435 C436 1.355 . S
C435 C437 1.395 1_565 S
C436 C435 1.355 . S
C436 C438 1.419 . S
C437 C432 1.424 1_545 S
C437 C434 1.430 . S
C437 C435 1.395 1_545 S
C438 H428 0.930 . S
C438 C436 1.419 . S
C438 C439 1.362 . S
C439 H429 0.930 . S
C439 C432 1.430 . S
C439 C438 1.362 . S
H440 C446 0.930 1_655 S
H441 C449 0.930 . S
H442 C450 0.930 . S
H443 C451 0.930 . S
H444 C454 0.930 1_655 S
H445 C455 0.930 . S
C446 H440 0.930 1_455 S
C446 C447 1.355 . S
C446 C448 1.415 . S
C447 C446 1.355 . S
C447 C449 1.419 . S
C448 C446 1.415 . S
C448 C453 1.425 1_564 S
C448 C455 1.409 1_465 S
C449 H441 0.930 . S
C449 C447 1.419 . S
C449 C450 1.362 1_554 S
C450 H442 0.930 . S
C450 C449 1.362 1_556 S
C450 C453 1.409 1_565 S
C451 H443 0.930 . S
C451 C452 1.355 . S
C451 C453 1.415 . S
C452 C451 1.355 . S
C452 C454 1.419 . S
C453 C448 1.425 1_546 S
C453 C450 1.409 1_545 S
C453 C451 1.415 . S
C454 H444 0.930 1_455 S
C454 C452 1.419 . S
C454 C455 1.362 1_456 S
C455 H445 0.930 . S
C455 C448 1.409 1_645 S
C455 C454 1.362 1_654 S
H456 C462 0.930 . S
H457 C465 0.930 . S
H458 C466 0.930 . S
H459 C467 0.930 . S
H460 C470 0.930 . S
H461 C471 0.930 . S
C462 H456 0.930 . S
C462 C463 1.355 . S
C462 C464 1.415 . S
C463 C462 1.355 . S
C463 C465 1.419 . S
C464 C462 1.415 . S
C464 C469 1.425 . S
C464 C471 1.409 . S
C465 H457 0.930 . S
C465 C463 1.419 . S
C465 C466 1.362 . S
C466 H458 0.930 . S
C466 C465 1.362 . S
C466 C469 1.409 . S
C467 H459 0.930 . S
C467 C468 1.355 . S
C467 C469 1.415 . S
C468 C467 1.355 . S
C468 C470 1.419 . S
C469 C464 1.425 . S
C469 C466 1.409 . S
C469 C467 1.415 . S
C470 H460 0.930 . S
C470 C468 1.419 . S
C470 C471 1.362 . S
C471 H461 0.930 . S
C471 C464 1.409 . S
C471 C470 1.362 . S
H472 C478 0.930 . S
H473 C481 0.930 . S
H474 C482 0.930 . S
H475 C483 0.930 . S
H476 C486 0.930 . S
H477 C487 0.930 . S
C478 H472 0.930 . S
C478 C479 1.355 . S
C478 C480 1.415 1_556 S
C479 C478 1.355 . S
C479 C481 1.419 . S
C480 C478 1.415 1_554 S
C480 C485 1.425 . S
C480 C487 1.409 . S
C481 H473 0.930 . S
C481 C479 1.419 . S
C481 C482 1.362 1_556 S
C482 H474 0.930 . S
C482 C481 1.362 1_554 S
C482 C485 1.409 . S
C483 H475 0.930 . S
C483 C484 1.355 . S
C483 C485 1.415 . S
C484 C483 1.355 . S
C484 C486 1.419 . S
C485 C480 1.425 . S
C485 C482 1.409 . S
C485 C483 1.415 . S
C486 H476 0.930 . S
C486 C484 1.419 . S
C486 C487 1.362 . S
C487 H477 0.930 . S
C487 C480 1.409 . S
C487 C486 1.362 . S
H488 C494 0.930 . S
H489 C497 0.930 . S
H490 C498 0.930 . S
H491 C499 0.930 . S
H492 C502 0.930 . S
H493 C503 0.930 . S
C494 H488 0.930 . S
C494 C495 1.355 . S
C494 C496 1.415 . S
C495 C494 1.355 . S
C495 C497 1.419 . S
C496 C494 1.415 . S
C496 C501 1.425 . S
C496 C503 1.409 . S
C497 H489 0.930 . S
C497 C495 1.419 . S
C497 C498 1.362 . S
C498 H490 0.930 . S
C498 C497 1.362 . S
C498 C501 1.409 . S
C499 H491 0.930 . S
C499 C500 1.355 . S
C499 C501 1.415 . S
C500 C499 1.355 . S
C500 C502 1.419 . S
C501 C496 1.425 . S
C501 C498 1.409 . S
C501 C499 1.415 . S
C502 H492 0.930 . S
C502 C500 1.419 . S
C502 C503 1.362 . S
C503 H493 0.930 . S
C503 C496 1.409 . S
C503 C502 1.362 . S
H504 C510 0.930 . S
H505 C513 0.930 . S
H506 C514 0.930 . S
H507 C515 0.930 . S
H508 C518 0.930 . S
H509 C519 0.930 . S
C510 H504 0.930 . S
C510 C511 1.355 . S
C510 C512 1.415 . S
C511 C510 1.355 . S
C511 C513 1.419 . S
C512 C510 1.415 . S
C512 C517 1.425 . S
C512 C519 1.409 1_556 S
C513 H505 0.930 . S
C513 C511 1.419 . S
C513 C514 1.362 . S
C514 H506 0.930 . S
C514 C513 1.362 . S
C514 C517 1.409 . S
C515 H507 0.930 . S
C515 C516 1.355 1_556 S
C515 C517 1.415 . S
C516 C515 1.355 1_554 S
C516 C518 1.419 . S
C517 C512 1.425 . S
C517 C514 1.409 . S
C517 C515 1.415 . S
C518 H508 0.930 . S
C518 C516 1.419 . S
C518 C519 1.362 . S
C519 H509 0.930 . S
C519 C512 1.409 1_554 S
C519 C518 1.362 . S
H520 C526 0.930 . S
H521 C529 0.930 . S
H522 C530 0.936 . S
H523 C531 0.930 . S
H524 C534 0.930 . S
H525 C535 0.930 . S
C526 H520 0.930 . S
C526 C527 1.355 1_655 S
C526 C528 1.415 . S
C527 C526 1.355 1_455 S
C527 C529 1.419 . S
C528 C526 1.415 . S
C528 C533 1.425 . S
C528 C535 1.409 . S
C529 H521 0.930 . S
C529 C527 1.419 . S
C529 C530 1.374 . S
C530 H522 0.936 . S
C530 C529 1.374 . S
C530 C533 1.392 1_455 S
C531 H523 0.930 . S
C531 C532 1.355 . S
C531 C533 1.415 . S
C532 C531 1.355 . S
C532 C534 1.419 . S
C533 C528 1.425 . S
C533 C530 1.392 1_655 S
C533 C531 1.415 . S
C534 H524 0.930 . S
C534 C532 1.419 . S
C534 C535 1.362 . S
C535 H525 0.930 . S
C535 C528 1.409 . S
C535 C534 1.362 . S
H536 C542 0.930 1_556 S
H537 C545 0.930 . S
H538 C546 0.930 . S
H539 C547 0.930 . S
H540 C550 0.930 . S
H541 C551 0.930 . S
C542 H536 0.930 1_554 S
C542 C543 1.355 . S
C542 C544 1.416 . S
C543 C542 1.355 . S
C543 C545 1.419 . S
C544 C542 1.416 . S
C544 C549 1.429 . S
C544 C551 1.404 1_554 S
C545 H537 0.930 . S
C545 C543 1.419 . S
C545 C546 1.362 . S
C546 H538 0.930 . S
C546 C545 1.362 . S
C546 C549 1.409 . S
C547 H539 0.930 . S
C547 C548 1.355 1_554 S
C547 C549 1.415 . S
C548 C547 1.355 1_556 S
C548 C550 1.419 . S
C549 C544 1.429 . S
C549 C546 1.409 . S
C549 C547 1.415 . S
C550 H540 0.930 . S
C550 C548 1.419 . S
C550 C551 1.362 . S
C551 H541 0.930 . S
C551 C544 1.404 1_556 S
C551 C550 1.362 . S
H552 C558 0.930 . S
H553 C561 0.930 . S
H554 C562 0.930 . S
H555 C563 0.930 . S
H556 C566 0.930 . S
H557 C567 0.930 1_455 S
C558 H552 0.930 . S
C558 C559 1.355 . S
C558 C560 1.415 1_455 S
C559 C558 1.355 . S
C559 C561 1.419 1_455 S
C560 C558 1.415 1_655 S
C560 C565 1.425 . S
C560 C567 1.409 . S
C561 H553 0.930 . S
C561 C559 1.419 1_655 S
C561 C562 1.362 . S
C562 H554 0.930 . S
C562 C561 1.362 . S
C562 C565 1.409 . S
C563 H555 0.930 . S
C563 C564 1.355 . S
C563 C565 1.415 . S
C564 C563 1.355 . S
C564 C566 1.419 . S
C565 C560 1.425 . S
C565 C562 1.409 . S
C565 C563 1.415 . S
C566 H556 0.930 . S
C566 C564 1.419 . S
C566 C567 1.362 . S
C567 H557 0.930 1_655 S
C567 C560 1.409 . S
C567 C566 1.362 . S
H568 C574 0.930 . S
H569 C577 0.930 . S
H570 C578 0.930 . S
H571 C579 0.930 . S
H572 C582 0.930 . S
H573 C583 0.930 . S
C574 H568 0.930 . S
C574 C575 1.355 . S
C574 C576 1.415 . S
C575 C574 1.355 . S
C575 C577 1.419 . S
C576 C574 1.415 . S
C576 C581 1.425 . S
C576 C583 1.409 1_556 S
C577 H569 0.930 . S
C577 C575 1.419 . S
C577 C578 1.362 . S
C578 H570 0.930 . S
C578 C577 1.362 . S
C578 C581 1.409 . S
C579 H571 0.930 . S
C579 C580 1.355 1_556 S
C579 C581 1.415 . S
C580 C579 1.355 1_554 S
C580 C582 1.419 . S
C581 C576 1.425 . S
C581 C578 1.409 . S
C581 C579 1.415 . S
C582 H572 0.930 . S
C582 C580 1.419 . S
C582 C583 1.362 . S
C583 H573 0.930 . S
C583 C576 1.409 1_554 S
C583 C582 1.362 . S
C271 C18 1.363 . S
C276 C117 1.350 . S
C287 C51 1.360 . S
C292 C84 1.369 . S
C303 N68 1.542 1_655 S
C308 N35 1.522 . S
C319 N101 1.579 . S
C324 N2 1.581 1_655 S
C335 C150 1.355 . S
C340 C249 1.373 . S
C351 C216 1.344 . S
C356 C183 1.376 . S
C367 N167 1.582 . S
C372 N200 1.576 . S
C383 N233 1.541 . S
C388 N134 1.521 . S
C399 C87 1.498 . S
C404 C21 1.499 . S
C415 C54 1.497 . S
C420 C120 1.496 . S
C431 C219 1.499 . S
C436 C153 1.500 . S
C447 C252 1.499 . S
C452 C186 1.498 . S
C463 N13 1.442 . S
C468 C205 1.478 . S
C479 N46 1.472 . S
C484 C238 1.465 . S
C495 N79 1.429 . S
C500 C139 1.487 . S
C511 C172 1.505 . S
C516 N112 1.421 . S
C527 C73 1.484 . S
C532 N145 1.433 . S
C543 C106 1.492 . S
C548 N178 1.459 . S
C559 C7 1.472 . S
C564 N211 1.484 . S
C575 C40 1.480 . S
C580 N244 1.477 . S
