# Generated by pormake.
# Topology wjf, (4)-cn, num edge types: 1
# Building blocks:
#     Node 0, Type 0, BuildingBlock: AZAVOO_clean_sbu_0, # of connection points: 4
#     Node 1, Type 0, BuildingBlock: AZAVOO_clean_sbu_0, # of connection points: 4
#     Node 2, Type 0, BuildingBlock: AZAVOO_clean_sbu_0, # of connection points: 4
#     Node 3, Type 0, BuildingBlock: AZAVOO_clean_sbu_0, # of connection points: 4
#     Node 4, Type 0, BuildingBlock: AZAVOO_clean_sbu_0, # of connection points: 4
#     Node 5, Type 0, BuildingBlock: AZAVOO_clean_sbu_0, # of connection points: 4
#     Node 6, Type 0, BuildingBlock: AZAVOO_clean_sbu_0, # of connection points: 4
#     Node 7, Type 0, BuildingBlock: AZAVOO_clean_sbu_0, # of connection points: 4
#     Node 8, Type 0, BuildingBlock: AZAVOO_clean_sbu_0, # of connection points: 4
#     Node 9, Type 0, BuildingBlock: AZAVOO_clean_sbu_0, # of connection points: 4
#     Node 10, Type 0, BuildingBlock: AZAVOO_clean_sbu_0, # of connection points: 4
#     Node 11, Type 0, BuildingBlock: AZAVOO_clean_sbu_0, # of connection points: 4
#     Edge 12, Type (0, 0), BuildingBlock: KIFKEQ_clean_linker_1, # of connection points: 2
#     Edge 13, Type (0, 0), BuildingBlock: KIFKEQ_clean_linker_1, # of connection points: 2
#     Edge 14, Type (0, 0), BuildingBlock: KIFKEQ_clean_linker_1, # of connection points: 2
#     Edge 15, Type (0, 0), BuildingBlock: KIFKEQ_clean_linker_1, # of connection points: 2
#     Edge 16, Type (0, 0), BuildingBlock: KIFKEQ_clean_linker_1, # of connection points: 2
#     Edge 17, Type (0, 0), BuildingBlock: KIFKEQ_clean_linker_1, # of connection points: 2
#     Edge 18, Type (0, 0), BuildingBlock: KIFKEQ_clean_linker_1, # of connection points: 2
#     Edge 19, Type (0, 0), BuildingBlock: KIFKEQ_clean_linker_1, # of connection points: 2
#     Edge 20, Type (0, 0), BuildingBlock: KIFKEQ_clean_linker_1, # of connection points: 2
#     Edge 21, Type (0, 0), BuildingBlock: KIFKEQ_clean_linker_1, # of connection points: 2
#     Edge 22, Type (0, 0), BuildingBlock: KIFKEQ_clean_linker_1, # of connection points: 2
#     Edge 23, Type (0, 0), BuildingBlock: KIFKEQ_clean_linker_1, # of connection points: 2
#     Edge 24, Type (0, 0), BuildingBlock: KIFKEQ_clean_linker_1, # of connection points: 2
#     Edge 25, Type (0, 0), BuildingBlock: KIFKEQ_clean_linker_1, # of connection points: 2
#     Edge 26, Type (0, 0), BuildingBlock: KIFKEQ_clean_linker_1, # of connection points: 2
#     Edge 27, Type (0, 0), BuildingBlock: KIFKEQ_clean_linker_1, # of connection points: 2
#     Edge 28, Type (0, 0), BuildingBlock: KIFKEQ_clean_linker_1, # of connection points: 2
#     Edge 29, Type (0, 0), BuildingBlock: KIFKEQ_clean_linker_1, # of connection points: 2
#     Edge 30, Type (0, 0), BuildingBlock: KIFKEQ_clean_linker_1, # of connection points: 2
#     Edge 31, Type (0, 0), BuildingBlock: KIFKEQ_clean_linker_1, # of connection points: 2
#     Edge 32, Type (0, 0), BuildingBlock: KIFKEQ_clean_linker_1, # of connection points: 2
#     Edge 33, Type (0, 0), BuildingBlock: KIFKEQ_clean_linker_1, # of connection points: 2
#     Edge 34, Type (0, 0), BuildingBlock: KIFKEQ_clean_linker_1, # of connection points: 2
#     Edge 35, Type (0, 0), BuildingBlock: KIFKEQ_clean_linker_1, # of connection points: 2
# Relax obj value: 0.276
# Max RMSD: 0.291
# Mean RMSD: 0.281
data_MOF--net-wjf--node1-AZAVOO_clean_sbu_0--edge1-KIFKEQ_clean_linker_1
_symmetry_space_group_name_H-M    P1
_symmetry_Int_Tables_number       1
_symmetry_cell_setting            triclinic
loop_
_symmetry_equiv_pos_as_xyz
'x, y, z'
_cell_length_a     50.938271
_cell_length_b     52.550053
_cell_length_c     26.680947
_cell_angle_alpha  90.055766
_cell_angle_beta   89.857658
_cell_angle_gamma 119.04319
loop_
_atom_site_label
_atom_site_type_symbol
_atom_site_fract_x
_atom_site_fract_y
_atom_site_fract_z
_atom_type_partial_charge
Mg0 Mg 0.33463 0.39056 0.1225 0.0
O1 O 0.33745 0.36951 0.04955 0.0
O2 O 0.37381 0.35762 0.05386 0.0
Mg3 Mg 0.39461 0.37119 0.13184 0.0
C4 C 0.35279 0.35884 0.02997 0.0
C5 C 0.29116 0.39717 0.05218 0.0
O6 O 0.31709 0.41067 0.02875 0.0
O7 O 0.31191 0.34657 0.16272 0.0
O8 O 0.3509 0.33854 0.171 0.0
O9 O 0.36915 0.43417 0.0942 0.0
O10 O 0.3802 0.40461 0.13664 0.0
C11 C 0.32346 0.33142 0.17941 0.0
C12 C 0.38936 0.42865 0.11246 0.0
O13 O 0.29005 0.38585 0.09483 0.0
Mg14 Mg 0.92998 0.33358 0.43683 0.0
O15 O 0.95174 0.33222 0.36294 0.0
O16 O 0.00148 0.36007 0.36703 0.0
Mg17 Mg 0.01135 0.3819 0.44419 0.0
C18 C 0.97776 0.34262 0.34335 0.0
C19 C 0.87777 0.2972 0.36717 0.0
O20 O 0.89301 0.3216 0.34218 0.0
O21 O 0.9471 0.3056 0.47525 0.0
O22 O 0.99568 0.33805 0.48394 0.0
O23 O 0.92472 0.37072 0.41016 0.0
O24 O 0.96522 0.37553 0.44918 0.0
C25 C 0.97329 0.31282 0.49199 0.0
C26 C 0.95169 0.3874 0.42622 0.0
O27 O 0.88693 0.29462 0.41025 0.0
Mg28 Mg 0.56976 0.91446 0.70874 0.0
O29 O 0.53455 0.92706 0.73161 0.0
O30 O 0.49562 0.90446 0.67998 0.0
Mg31 Mg 0.50782 0.88046 0.62026 0.0
C32 C 0.50841 0.92121 0.71716 0.0
C33 C 0.61668 0.95456 0.7865 0.0
O34 O 0.62757 0.9703 0.74579 0.0
O35 O 0.54276 0.86831 0.7375 0.0
O36 O 0.50973 0.84783 0.67539 0.0
O37 O 0.59064 0.95281 0.65883 0.0
O38 O 0.55623 0.90909 0.63399 0.0
C39 C 0.52243 0.84587 0.71534 0.0
C40 C 0.57411 0.93594 0.62319 0.0
O41 O 0.59265 0.9303 0.78375 0.0
Mg42 Mg 0.66495 0.60927 0.12982 0.0
O43 O 0.66306 0.63037 0.05643 0.0
O44 O 0.62827 0.64446 0.06067 0.0
Mg45 Mg 0.60592 0.63014 0.13763 0.0
C46 C 0.64883 0.64221 0.037 0.0
C47 C 0.70757 0.60053 0.06094 0.0
O48 O 0.68137 0.58708 0.03853 0.0
O49 O 0.68803 0.65336 0.17016 0.0
O50 O 0.64936 0.66197 0.1778 0.0
O51 O 0.63029 0.566 0.10119 0.0
O52 O 0.6193 0.59596 0.14267 0.0
C53 C 0.67664 0.66873 0.18665 0.0
C54 C 0.61011 0.57194 0.11835 0.0
O55 O 0.70939 0.61291 0.10282 0.0
Mg56 Mg 0.06874 0.65945 0.42219 0.0
O57 O 0.0444 0.6576 0.34967 0.0
O58 O 0.99538 0.6269 0.35738 0.0
Mg59 Mg 0.98816 0.60797 0.43661 0.0
C60 C 0.01793 0.64495 0.3317 0.0
C61 C 0.11952 0.69218 0.34901 0.0
O62 O 0.10468 0.66572 0.33068 0.0
O63 O 0.05068 0.68694 0.4605 0.0
O64 O 0.00307 0.65257 0.4728 0.0
O65 O 0.07506 0.62212 0.39842 0.0
O66 O 0.03515 0.61719 0.4396 0.0
C67 C 0.02452 0.67854 0.47895 0.0
C68 C 0.04881 0.60532 0.41706 0.0
O69 O 0.1102 0.69825 0.38925 0.0
Mg70 Mg 0.35714 0.05619 0.75889 0.0
O71 O 0.39599 0.046 0.76602 0.0
O72 O 0.42221 0.05872 0.69458 0.0
Mg73 Mg 0.40101 0.0781 0.6428 0.0
C74 C 0.41737 0.04781 0.73853 0.0
C75 C 0.32424 0.02992 0.85843 0.0
O76 O 0.30219 0.01607 0.82651 0.0
O77 O 0.38777 0.10496 0.76909 0.0
O78 O 0.41257 0.11596 0.69618 0.0
O79 O 0.3312 0.01205 0.72525 0.0
O80 O 0.35789 0.05266 0.68191 0.0
C81 C 0.4071 0.1234 0.73884 0.0
C82 C 0.34264 0.02473 0.68295 0.0
O83 O 0.3497 0.04897 0.84213 0.0
Mg84 Mg 0.60111 0.66491 0.57172 0.0
O85 O 0.62329 0.66612 0.64618 0.0
O86 O 0.64376 0.63705 0.64249 0.0
Mg87 Mg 0.63203 0.61507 0.56555 0.0
C88 C 0.63809 0.65497 0.666 0.0
C89 C 0.57149 0.70181 0.58968 0.0
O90 O 0.55263 0.68124 0.55967 0.0
O91 O 0.64647 0.69217 0.53259 0.0
O92 O 0.66094 0.65845 0.52517 0.0
O93 O 0.55864 0.6286 0.59979 0.0
O94 O 0.59294 0.62237 0.55897 0.0
C95 C 0.66475 0.68392 0.51616 0.0
C96 C 0.56772 0.61114 0.5828 0.0
O97 O 0.59673 0.70347 0.59875 0.0
Mg98 Mg 0.94634 0.60606 0.86819 0.0
O99 O 0.97057 0.62703 0.94101 0.0
O100 O 0.01797 0.63593 0.93567 0.0
Mg101 Mg 0.02418 0.62064 0.85852 0.0
C102 C -0.00338 0.63646 0.95992 0.0
C103 C 0.88231 0.59164 0.89909 0.0
O104 O 0.87876 0.56595 0.88678 0.0
O105 O 0.96993 0.64943 0.82598 0.0
O106 O 0.0159 0.6546 0.81783 0.0
O107 O 0.93454 0.56228 0.89922 0.0
O108 O 0.97568 0.58925 0.85549 0.0
C109 C -0.00325 0.66313 0.80894 0.0
C110 C 0.95975 0.56597 0.88115 0.0
O111 O 0.90806 0.61384 0.89374 0.0
Mg112 Mg 0.34455 0.91971 0.27754 0.0
O113 O 0.3916 0.92763 0.25926 0.0
O114 O 0.40302 0.90231 0.31356 0.0
Mg115 Mg 0.36389 0.88023 0.36918 0.0
C116 C 0.40973 0.91954 0.27624 0.0
C117 C 0.32025 0.94166 0.19244 0.0
O118 O 0.29859 0.9337 0.22567 0.0
O119 O 0.32193 0.87371 0.24766 0.0
O120 O 0.33029 0.85025 0.31005 0.0
O121 O 0.36442 0.95788 0.32737 0.0
O122 O 0.34943 0.91276 0.35281 0.0
C123 C 0.31746 0.8502 0.26889 0.0
C124 C 0.36142 0.94005 0.36325 0.0
O125 O 0.34261 0.93807 0.20224 0.0
Mg126 Mg 0.40077 0.34093 0.56715 0.0
O127 O 0.37678 0.34092 0.63904 0.0
O128 O 0.35971 0.37261 0.63346 0.0
Mg129 Mg 0.37273 0.39297 0.55531 0.0
C130 C 0.36319 0.35359 0.65785 0.0
C131 C 0.42516 0.30409 0.61725 0.0
O132 O 0.44941 0.3296 0.61413 0.0
O133 O 0.35623 0.31483 0.52587 0.0
O134 O 0.3428 0.34918 0.51647 0.0
O135 O 0.44306 0.37697 0.59709 0.0
O136 O 0.41084 0.38398 0.55199 0.0
C137 C 0.33846 0.32341 0.50855 0.0
C138 C 0.43525 0.39482 0.57778 0.0
O139 O 0.40093 0.3006 0.59747 0.0
Mg140 Mg 0.04352 0.37764 0.8754 0.0
O141 O 0.02307 0.35777 0.95089 0.0
O142 O 0.97412 0.3438 0.94999 0.0
Mg143 Mg 0.96399 0.3577 0.8744 0.0
C144 C -0.0026 0.34619 0.97204 0.0
C145 C 0.10982 0.39569 0.89759 0.0
O146 O 0.11203 0.42064 0.88368 0.0
O147 O 0.02081 0.33337 0.83639 0.0
O148 O 0.9736 0.32519 0.83148 0.0
O149 O 0.05389 0.42131 0.90441 0.0
O150 O 0.01158 0.39152 0.86603 0.0
C151 C 0.99379 0.3182 0.82112 0.0
C152 C 0.02749 0.41572 0.8893 0.0
O153 O 0.08425 0.37295 0.89644 0.0
Mg154 Mg 0.69911 0.04396 0.23408 0.0
O155 O 0.6497 0.03327 0.2336 0.0
O156 O 0.63787 0.04216 0.30995 0.0
Mg157 Mg 0.67996 0.06006 0.35813 0.0
C158 C 0.63076 0.03337 0.26491 0.0
C159 C 0.70104 0.02012 0.13015 0.0
O160 O 0.70766 0.0039 0.15928 0.0
O161 O 0.71612 0.09302 0.23097 0.0
O162 O 0.70331 0.09993 0.30795 0.0
O163 O 0.68189 -0.00148 0.26159 0.0
O164 O 0.69714 0.03723 0.31058 0.0
C165 C 0.71497 0.10958 0.265 0.0
C166 C 0.68426 0.00942 0.30595 0.0
O167 O 0.69713 0.04006 0.14972 0.0
H168 H 0.34135 0.29577 0.22442 0.0
H169 H 0.26919 0.31673 0.22468 0.0
H170 H 0.3284 0.27714 0.30824 0.0
H171 H 0.25462 0.29602 0.3083 0.0
H172 H 0.29749 0.33498 0.46303 0.0
H173 H 0.27767 0.31958 0.38026 0.0
H174 H 0.30717 0.25501 0.38224 0.0
H175 H 0.329 0.27209 0.46475 0.0
C176 C 0.32181 0.29527 0.2416 0.0
C177 C 0.30739 0.30926 0.21886 0.0
C178 C 0.31406 0.28419 0.2901 0.0
C179 C 0.29135 0.28644 0.31673 0.0
C180 C 0.27329 0.29534 0.29012 0.0
C181 C 0.28144 0.30697 0.24176 0.0
C182 C 0.29911 0.31694 0.44653 0.0
C183 C 0.31627 0.30586 0.46949 0.0
C184 C 0.28734 0.30775 0.39868 0.0
C185 C 0.29207 0.28692 0.37286 0.0
C186 C 0.30442 0.27216 0.39976 0.0
C187 C 0.31672 0.28176 0.44747 0.0
H188 H 0.92969 0.26185 0.53438 0.0
H189 H 0.02494 0.322 0.53807 0.0
H190 H 0.93295 0.24371 0.61673 0.0
H191 H 0.02796 0.30557 0.62071 0.0
H192 H 0.03208 0.30172 0.77638 0.0
H193 H 0.02572 0.28119 0.69262 0.0
H194 H 0.93432 0.2661 0.69069 0.0
H195 H 0.94012 0.28457 0.77463 0.0
C196 C 0.95149 0.27067 0.55205 0.0
C197 C 0.97678 0.2944 0.53069 0.0
C198 C 0.95335 0.26046 0.59967 0.0
C199 C 0.98035 0.27423 0.62712 0.0
C200 C 0.00652 0.29453 0.60186 0.0
C201 C 0.00476 0.30432 0.55408 0.0
C202 C 0.01024 0.29285 0.75879 0.0
C203 C 0.98707 0.29616 0.78123 0.0
C204 C 0.00665 0.2813 0.71038 0.0
C205 C 0.9801 0.27352 0.68323 0.0
C206 C 0.95541 0.27227 0.7093 0.0
C207 C 0.95882 0.28325 0.75787 0.0
H208 H 0.66356 0.00826 0.80838 0.0
H209 H 0.6049 0.92415 0.87402 0.0
H210 H 0.6884 0.02552 0.88923 0.0
H211 H 0.62968 0.94148 0.95456 0.0
H212 H 0.69711 0.97298 0.08048 0.0
H213 H 0.68003 0.95797 0.99476 0.0
H214 H 0.67253 0.03564 0.97329 0.0
H215 H 0.68971 0.0508 0.05891 0.0
C216 C 0.65606 -0.00657 0.83995 0.0
C217 C 0.6322 0.96489 0.83493 0.0
C218 C 0.67023 0.00335 0.88616 0.0
C219 C 0.661 0.98479 0.92798 0.0
C220 C 0.6375 0.95612 0.92274 0.0
C221 C 0.62316 0.94629 0.87673 0.0
C222 C 0.69224 0.98708 0.05728 0.0
C223 C 0.69446 0.01293 0.07658 0.0
C224 C 0.68233 0.97839 0.00833 0.0
C225 C 0.67472 -0.00447 0.97767 0.0
C226 C 0.6784 0.0221 -0.00392 0.0
C227 C 0.68809 0.03069 0.04516 0.0
H228 H 0.73076 0.6835 0.23224 0.0
H229 H 0.65897 0.70495 0.23023 0.0
H230 H 0.74612 0.70615 0.31433 0.0
H231 H 0.67251 0.72532 0.31272 0.0
H232 H 0.67268 0.73376 0.46849 0.0
H233 H 0.69362 0.74886 0.38481 0.0
H234 H 0.72548 0.68606 0.38895 0.0
H235 H 0.70682 0.67295 0.47292 0.0
C236 C 0.71869 0.69367 0.24866 0.0
C237 C 0.69273 0.69114 0.22568 0.0
C238 C 0.72726 0.70641 0.29621 0.0
C239 C 0.70957 0.71612 0.3221 0.0
C240 C 0.68665 0.71776 0.29525 0.0
C241 C 0.67853 0.70564 0.24751 0.0
C242 C 0.68534 0.72415 0.45225 0.0
C243 C 0.68674 0.70109 0.47643 0.0
C244 C 0.69707 0.73253 0.40379 0.0
C245 C 0.70965 0.71746 0.37825 0.0
C246 C 0.71549 0.69798 0.4061 0.0
C247 C 0.7044 0.69012 0.45474 0.0
H248 H 0.95981 0.68099 0.76366 0.0
H249 H 0.0511 0.69621 0.76389 0.0
H250 H 0.96811 0.70373 0.68143 0.0
H251 H 0.05884 0.71692 0.68139 0.0
H252 H 0.06757 0.72783 0.52625 0.0
H253 H 0.0626 0.74277 0.61054 0.0
H254 H 0.9672 0.68242 0.60651 0.0
H255 H 0.97199 0.66927 0.52203 0.0
C256 C 0.9819 0.68986 0.74685 0.0
C257 C 0.00436 0.68557 0.76944 0.0
C258 C 0.98662 0.70268 0.6993 0.0
C259 C 0.01364 0.71089 0.67307 0.0
C260 C 0.03749 0.71065 0.69933 0.0
C261 C 0.03294 0.69835 0.74702 0.0
C262 C 0.04535 0.7188 0.54257 0.0
C263 C 0.02039 0.69629 0.51833 0.0
C264 C 0.0425 0.72709 0.59136 0.0
C265 C 0.01481 0.71259 0.61698 0.0
C266 C 0.98913 0.69386 0.58914 0.0
C267 C 0.99189 0.68601 0.54025 0.0
H268 H 0.27479 0.95038 0.15718 0.0
H269 H 0.36379 0.96488 0.12084 0.0
H270 H 0.27413 0.97457 0.0793 0.0
H271 H 0.36293 0.98866 0.04328 0.0
H272 H 0.36585 0.05354 0.9328 0.0
H273 H 0.36338 0.03391 0.01631 0.0
H274 H 0.27319 0.96524 0.98704 0.0
H275 H 0.27541 0.98506 0.90347 0.0
C276 C 0.29416 0.95868 0.13262 0.0
C277 C 0.31935 0.95573 0.14513 0.0
C278 C 0.29373 0.97246 0.08807 0.0
C279 C 0.31857 0.98369 0.05555 0.0
C280 C 0.34368 0.98068 0.0681 0.0
C281 C 0.34405 0.96682 0.11234 0.0
C282 C 0.34531 0.0345 0.94435 0.0
C283 C 0.32096 0.0206 0.91129 0.0
C284 C 0.34398 0.0232 0.99209 0.0
C285 C 0.31828 -0.0022 0.00777 0.0
C286 C 0.29325 0.98489 0.97592 0.0
C287 C 0.29458 -0.00381 0.92803 0.0
H288 H 0.11187 0.34918 0.93992 0.0
H289 H 0.16765 0.43986 0.90151 0.0
H290 H 0.15535 0.34835 0.97665 0.0
H291 H 0.21083 0.43908 0.93866 0.0
H292 H 0.28749 0.41962 0.96222 0.0
H293 H 0.24349 0.41779 0.92339 0.0
H294 H 0.18928 0.36922 0.04988 0.0
H295 H 0.23345 0.3707 0.08876 0.0
C296 C 0.1334 0.36889 0.93911 0.0
C297 C 0.13631 0.39459 0.91771 0.0
C298 C 0.15824 0.36846 0.96049 0.0
C299 C 0.18651 0.39365 0.96061 0.0
C300 C 0.18943 0.41921 0.93866 0.0
C301 C 0.16463 0.41969 0.91753 0.0
C302 C 0.26622 0.4085 0.98186 0.0
C303 C 0.26402 0.39545 0.02878 0.0
C304 C 0.24101 0.40757 0.95962 0.0
C305 C 0.21294 0.39351 0.98367 0.0
C306 C 0.21057 0.38002 0.03024 0.0
C307 C 0.23589 0.38102 0.05264 0.0
H308 H 0.86225 0.28891 0.26831 0.0
H309 H 0.83278 0.25078 0.41512 0.0
H310 H 0.81856 0.24748 0.23061 0.0
H311 H 0.78917 0.20979 0.37757 0.0
H312 H 0.70414 0.14955 0.31124 0.0
H313 H 0.7416 0.19983 0.32816 0.0
H314 H 0.80295 0.19198 0.22562 0.0
H315 H 0.76542 0.1415 0.20856 0.0
C316 C 0.84626 0.27187 0.29253 0.0
C317 C 0.85087 0.27295 0.34465 0.0
C318 C 0.82136 0.24826 0.27092 0.0
C319 C 0.80042 0.22573 0.30125 0.0
C320 C 0.80474 0.22718 0.35342 0.0
C321 C 0.82982 0.25046 0.37489 0.0
C322 C 0.72519 0.15888 0.29082 0.0
C323 C 0.73219 0.14147 0.25953 0.0
C324 C 0.74663 0.18759 0.3007 0.0
C325 C 0.77532 0.19937 0.27922 0.0
C326 C 0.78097 0.18328 0.24279 0.0
C327 C 0.75944 0.15442 0.2329 0.0
H328 H 0.47722 0.7914 0.69133 0.0
H329 H 0.565 0.83631 0.75942 0.0
H330 H 0.485 0.75017 0.6729 0.0
H331 H 0.57376 0.79653 0.73789 0.0
H332 H 0.58903 0.72483 0.68311 0.0
H333 H 0.56994 0.75148 0.73224 0.0
H334 H 0.51273 0.74597 0.6082 0.0
H335 H 0.5304 0.71771 0.56109 0.0
C336 C 0.49776 0.79207 0.70387 0.0
C337 C 0.52085 0.81749 0.72535 0.0
C338 C 0.50252 0.76867 0.69242 0.0
C339 C 0.53068 0.77058 0.70127 0.0
C340 C 0.5519 0.79417 0.72969 0.0
C341 C 0.54681 0.81719 0.74229 0.0
C342 C 0.57238 0.72943 0.66654 0.0
C343 C 0.56147 0.71962 0.61806 0.0
C344 C 0.56132 0.74463 0.69474 0.0
C345 C 0.53962 0.75098 0.67458 0.0
C346 C 0.52875 0.74094 0.62593 0.0
C347 C 0.53927 0.72515 0.59833 0.0
H348 H 0.70904 0.57501 0.97309 0.0
H349 H 0.76594 0.62682 0.09457 0.0
H350 H 0.75167 0.57433 0.93357 0.0
H351 H 0.80885 0.62581 0.05485 0.0
H352 H 0.88322 0.64023 0.93902 0.0
H353 H 0.84159 0.64357 0.97851 0.0
H354 H 0.78318 0.55202 0.95067 0.0
H355 H 0.82442 0.54872 0.91088 0.0
C356 C 0.73066 0.58625 0.99149 0.0
C357 C 0.73403 0.60083 0.03721 0.0
C358 C 0.75509 0.58573 0.96885 0.0
C359 C 0.78358 0.59983 0.99123 0.0
C360 C 0.78719 0.61489 0.03655 0.0
C361 C 0.7626 0.61533 0.05942 0.0
C362 C 0.86144 0.62087 0.94111 0.0
C363 C 0.8571 0.59423 0.92159 0.0
C364 C 0.83768 0.62275 0.96407 0.0
C365 C 0.8091 0.59808 0.96762 0.0
C366 C 0.80483 0.57152 0.94795 0.0
C367 C 0.82853 0.56961 0.92528 0.0
H368 H 0.14729 0.75146 0.35639 0.0
H369 H 0.15474 0.68121 0.28566 0.0
H370 H 0.19487 0.78658 0.31773 0.0
H371 H 0.20265 0.71637 0.24815 0.0
H372 H 0.30464 0.79456 0.29132 0.0
H373 H 0.25406 0.7531 0.29751 0.0
H374 H 0.21841 0.80275 0.2238 0.0
H375 H 0.26887 0.84399 0.21631 0.0
C376 C 0.15899 0.74358 0.3324 0.0
C377 C 0.14744 0.71367 0.32421 0.0
C378 C 0.18599 0.76362 0.30993 0.0
C379 C 0.20212 0.75403 0.27971 0.0
C380 C 0.19044 0.72419 0.27101 0.0
C381 C 0.16311 0.70418 0.29256 0.0
C382 C 0.28622 0.79618 0.27429 0.0
C383 C 0.2907 0.82274 0.25429 0.0
C384 C 0.25728 0.77248 0.27797 0.0
C385 C 0.23249 0.77518 0.26216 0.0
C386 C 0.23727 0.80042 0.23677 0.0
C387 C 0.26625 0.82391 0.23217 0.0
H388 H 0.45876 0.16809 0.70229 0.0
H389 H 0.38044 0.14938 0.79118 0.0
H390 H 0.46654 0.2167 0.68547 0.0
H391 H 0.38843 0.19831 0.77473 0.0
H392 H 0.3777 0.25137 0.64223 0.0
H393 H 0.37872 0.21265 0.69068 0.0
H394 H 0.47464 0.26536 0.70938 0.0
H395 H 0.47374 0.30411 0.66034 0.0
C396 C 0.444 0.17485 0.7201 0.0
C397 C 0.41859 0.15477 0.74698 0.0
C398 C 0.44846 0.20275 0.71049 0.0
C399 C 0.42753 0.21093 0.72758 0.0
C400 C 0.40449 0.19224 0.76018 0.0
C401 C 0.40014 0.16435 0.7701 0.0
C402 C 0.39899 0.25476 0.6568 0.0
C403 C 0.42567 0.28062 0.64688 0.0
C404 C 0.39952 0.23277 0.68526 0.0
C405 C 0.42675 0.23611 0.70427 0.0
C406 C 0.45336 0.26222 0.69523 0.0
C407 C 0.45281 0.2843 0.66694 0.0
H408 H 0.3628 0.31174 0.71918 0.0
H409 H 0.34269 0.38277 0.71733 0.0
H410 H 0.35428 0.30679 0.80931 0.0
H411 H 0.33491 0.37825 0.80756 0.0
H412 H 0.30898 0.35663 0.96797 0.0
H413 H 0.30523 0.34946 0.87756 0.0
H414 H 0.38232 0.33581 0.87997 0.0
H415 H 0.38569 0.34227 0.97037 0.0
C416 C 0.35625 0.32611 0.73786 0.0
C417 C 0.35378 0.3479 0.71107 0.0
C418 C 0.35151 0.32334 0.7896 0.0
C419 C 0.34428 0.34234 0.81576 0.0
C420 C 0.34019 0.36307 0.78856 0.0
C421 C 0.34481 0.36577 0.73676 0.0
C422 C 0.32486 0.35162 0.94937 0.0
C423 C 0.34787 0.35035 0.97643 0.0
C424 C 0.32277 0.34767 0.89747 0.0
C425 C 0.34366 0.34239 0.87144 0.0
C426 C 0.36566 0.33957 0.89885 0.0
C427 C 0.36771 0.34343 0.95076 0.0
H428 H 0.02614 0.34484 0.2943 0.0
H429 H 0.93451 0.32601 0.27207 0.0
H430 H 0.0308 0.33836 0.20482 0.0
H431 H 0.93956 0.32151 0.18292 0.0
H432 H 0.94839 0.30569 0.02355 0.0
H433 H 0.94375 0.29777 0.11387 0.0
H434 H 0.03682 0.36354 0.13159 0.0
H435 H 0.04175 0.36971 0.04154 0.0
C436 C 0.007 0.33928 0.27025 0.0
C437 C 0.98005 0.33614 0.29014 0.0
C438 C 0.00968 0.33574 0.21885 0.0
C439 C 0.9857 0.32972 0.18606 0.0
C440 C 0.95842 0.32559 0.2066 0.0
C441 C 0.95556 0.32844 0.25798 0.0
C442 C 0.96794 0.31796 0.04689 0.0
C443 C 0.99534 0.33845 0.02561 0.0
C444 C 0.96528 0.31365 0.09875 0.0
C445 C 0.98974 0.33038 0.13058 0.0
C446 C 0.01752 0.34988 0.10872 0.0
C447 C 0.02035 0.35362 0.05686 0.0
H448 H 0.60485 0.99146 0.58846 0.0
H449 H 0.55912 0.90178 0.53962 0.0
H450 H 0.62858 0.00625 0.50649 0.0
H451 H 0.58365 0.91654 0.45799 0.0
H452 H 0.62686 0.96426 0.30513 0.0
H453 H 0.59372 0.9454 0.37854 0.0
H454 H 0.669 -0.00237 0.47505 0.0
H455 H 0.70153 0.01674 0.40215 0.0
C456 C 0.59931 0.97501 0.55981 0.0
C457 C 0.58069 0.94546 0.57066 0.0
C458 C 0.61311 0.98341 0.51309 0.0
C459 C 0.60877 0.96237 0.47667 0.0
C460 C 0.58761 0.93315 0.48559 0.0
C461 C 0.57353 0.92475 0.5323 0.0
C462 C 0.63634 0.97082 0.34227 0.0
C463 C 0.66665 0.99175 0.34842 0.0
C464 C 0.61738 0.96036 0.38409 0.0
C465 C 0.62865 0.97077 0.43225 0.0
C466 C 0.65949 0.98998 0.43824 0.0
C467 C 0.67823 0.00051 0.39671 0.0
H468 H 0.60998 0.66982 0.73757 0.0
H469 H 0.68385 0.65255 0.7153 0.0
H470 H 0.61766 0.67187 0.82728 0.0
H471 H 0.69317 0.65668 0.80529 0.0
H472 H 0.67027 0.62054 0.96496 0.0
H473 H 0.67252 0.62903 0.8756 0.0
H474 H 0.64371 0.69327 0.89906 0.0
H475 H 0.63944 0.68301 0.9887 0.0
C476 C 0.62847 0.66729 0.75188 0.0
C477 C 0.6461 0.66068 0.71952 0.0
C478 C 0.63309 0.66869 0.80354 0.0
C479 C 0.65592 0.66417 0.82412 0.0
C480 C 0.67481 0.65945 0.79119 0.0
C481 C 0.66968 0.65731 0.73951 0.0
C482 C 0.66476 0.63674 0.9511 0.0
C483 C 0.65432 0.65086 0.98375 0.0
C484 C 0.66629 0.64184 0.89962 0.0
C485 C 0.65806 0.66172 0.87951 0.0
C486 C 0.64943 0.67721 0.91277 0.0
C487 C 0.64718 0.67153 0.96425 0.0
H488 H 0.96729 0.61589 0.27455 0.0
H489 H 0.05949 0.68488 0.26766 0.0
H490 H 0.96282 0.61954 0.18443 0.0
H491 H 0.05472 0.68901 0.17769 0.0
H492 H 0.04674 0.65211 0.01694 0.0
H493 H 0.05144 0.65908 0.1071 0.0
H494 H 0.96181 0.64822 0.11449 0.0
H495 H 0.95674 0.6405 0.02418 0.0
C496 C 0.98642 0.63223 0.25402 0.0
C497 C 0.01385 0.64982 0.27829 0.0
C498 C 0.98381 0.63446 0.2023 0.0
C499 C 0.00851 0.65442 0.17374 0.0
C500 C 0.03544 0.67305 0.19845 0.0
C501 C 0.03811 0.67075 0.2501 0.0
C502 C 0.02817 0.65166 0.03755 0.0
C503 C 0.00123 0.64537 0.01329 0.0
C504 C 0.03094 0.65583 0.08936 0.0
C505 C 0.00688 0.65395 0.11813 0.0
C506 C 0.98055 0.64929 0.09352 0.0
C507 C 0.97774 0.64504 0.04168 0.0
H508 H 0.39743 -0.00495 0.39692 0.0
H509 H 0.33634 0.90771 0.44701 0.0
H510 H 0.39535 0.01374 0.47954 0.0
H511 H 0.33306 0.9265 0.52894 0.0
H512 H 0.34378 0.9732 0.68076 0.0
H513 H 0.35444 0.9515 0.60738 0.0
H514 H 0.35458 0.01869 0.51369 0.0
H515 H 0.34501 0.04055 0.58663 0.0
C516 C 0.38404 0.97983 0.42596 0.0
C517 C 0.36661 0.95009 0.41548 0.0
C518 C 0.3826 0.9905 0.47308 0.0
C519 C 0.36319 0.97168 0.5101 0.0
C520 C 0.34808 0.94156 0.50113 0.0
C521 C 0.34996 0.93081 0.45417 0.0
C522 C 0.34561 0.98288 0.6442 0.0
C523 C 0.34357 0.00844 0.63901 0.0
C524 C 0.35194 0.97066 0.60238 0.0
C525 C 0.35612 0.98382 0.55499 0.0
C526 C 0.35258 0.0086 0.5499 0.0
C527 C 0.34661 0.02087 0.59149 0.0
H528 H 0.43675 0.42077 0.13916 0.0
H529 H 0.41545 0.48343 0.07241 0.0
H530 H 0.49001 0.45575 0.13375 0.0
H531 H 0.46903 0.51869 0.06783 0.0
H532 H 0.56257 0.5802 0.14327 0.0
H533 H 0.50923 0.54564 0.13492 0.0
H534 H 0.53085 0.48319 0.06831 0.0
H535 H 0.58433 0.5179 0.07593 0.0
C536 C 0.44337 0.44183 0.12269 0.0
C537 C 0.42178 0.44922 0.10601 0.0
C538 C 0.47395 0.46187 0.11954 0.0
C539 C 0.48362 0.4899 0.10035 0.0
C540 C 0.46213 0.49724 0.08301 0.0
C541 C 0.4315 0.47702 0.08548 0.0
C542 C 0.55604 0.55933 0.12609 0.0
C543 C 0.57775 0.55186 0.11021 0.0
C544 C 0.52545 0.53956 0.12121 0.0
C545 C 0.51595 0.51176 0.10102 0.0
C546 C 0.5376 0.50444 0.08428 0.0
C547 C 0.56819 0.52435 0.08854 0.0
H548 H 0.99176 0.56732 0.38854 0.0
H549 H 0.07521 0.57247 0.43487 0.0
H550 H 0.96868 0.51454 0.38342 0.0
H551 H 0.05187 0.51968 0.43422 0.0
H552 H 0.00981 0.42454 0.40044 0.0
H553 H 0.0334 0.47719 0.39093 0.0
H554 H 0.94925 0.47372 0.43113 0.0
H555 H 0.92555 0.42107 0.43624 0.0
C556 C 0.00497 0.55696 0.39823 0.0
C557 C 0.03506 0.57365 0.41238 0.0
C558 C 0.99178 0.52669 0.39569 0.0
C559 C 0.00817 0.51248 0.40897 0.0
C560 C 0.03853 0.52956 0.42268 0.0
C561 C 0.05193 0.55986 0.42356 0.0
C562 C -0.0035 0.43522 0.40683 0.0
C563 C 0.96601 0.419 0.41918 0.0
C564 C 0.00999 0.46543 0.40175 0.0
C565 C 0.99343 0.48008 0.41057 0.0
C566 C 0.96274 0.46347 0.42279 0.0
C567 C 0.94912 0.43325 0.42623 0.0
H568 H 0.53616 0.97235 0.76913 0.0
H569 H 0.44943 0.90798 0.71337 0.0
H570 H 0.51562 0.00457 0.78932 0.0
H571 H 0.42891 0.9401 0.73456 0.0
H572 H 0.39743 0.00026 0.79923 0.0
H573 H 0.41985 0.96859 0.80889 0.0
H574 H 0.49659 0.02879 0.72203 0.0
H575 H 0.47398 0.06014 0.71133 0.0
C576 C 0.51251 0.96468 0.76255 0.0
C577 C 0.49446 0.9377 0.73912 0.0
C578 C 0.50085 0.98321 0.77399 0.0
C579 C 0.47079 0.97484 0.76327 0.0
C580 C 0.45214 0.94698 0.74351 0.0
C581 C 0.46392 0.92866 0.73117 0.0
C582 C 0.41949 0.00717 0.78347 0.0
C583 C 0.43393 0.03261 0.75428 0.0
C584 C 0.43218 0.98894 0.78878 0.0
C585 C 0.45983 -0.00377 0.76604 0.0
C586 C 0.47534 0.02279 0.74025 0.0
C587 C 0.46237 0.04068 0.734 0.0
H588 H 0.5112 0.58168 0.62145 0.0
H589 H 0.58223 0.56885 0.55855 0.0
H590 H 0.47874 0.52907 0.6257 0.0
H591 H 0.54977 0.51625 0.56343 0.0
H592 H 0.49009 0.42345 0.62245 0.0
H593 H 0.52264 0.47597 0.62944 0.0
H594 H 0.45529 0.49023 0.55662 0.0
H595 H 0.42284 0.43781 0.54891 0.0
C596 C 0.52004 0.56767 0.60915 0.0
C597 C 0.54929 0.57941 0.5896 0.0
C598 C 0.5014 0.5376 0.61142 0.0
C599 C 0.51179 0.51874 0.59479 0.0
C600 C 0.54135 0.5304 0.57688 0.0
C601 C 0.55989 0.5605 0.57401 0.0
C602 C 0.48209 0.43777 0.60831 0.0
C603 C 0.45385 0.42648 0.58519 0.0
C604 C 0.50078 0.46778 0.61218 0.0
C605 C 0.4914 0.48702 0.59359 0.0
C606 C 0.46287 0.47578 0.57172 0.0
C607 C 0.44433 0.44578 0.56724 0.0
H608 H 0.92911 0.51284 0.92693 0.0
H609 H 0.01342 0.56989 0.85408 0.0
H610 H 0.94494 0.47596 0.93614 0.0
H611 H 0.02924 0.53335 0.86403 0.0
H612 H 0.0584 0.47078 0.92723 0.0
H613 H 0.04187 0.50726 0.93207 0.0
H614 H 0.95521 0.44493 0.87362 0.0
H615 H 0.97169 0.40853 0.86826 0.0
C616 C 0.95113 0.51769 0.91346 0.0
C617 C 0.97004 0.5444 0.88994 0.0
C618 C 0.96012 0.49654 0.91861 0.0
C619 C 0.98835 0.50186 0.90097 0.0
C620 C 0.00753 0.52882 0.87863 0.0
C621 C -0.0016 0.54976 0.87285 0.0
C622 C 0.03569 0.46472 0.916 0.0
C623 C 0.01639 0.43675 0.89723 0.0
C624 C 0.0263 0.48565 0.91861 0.0
C625 C -0.00269 0.47893 0.90309 0.0
C626 C 0.97759 0.45063 0.88629 0.0
C627 C 0.98709 0.4298 0.88309 0.0
H628 H 0.60047 0.98692 0.20298 0.0
H629 H 0.58873 0.04745 0.29743 0.0
H630 H 0.54588 0.95814 0.19278 0.0
H631 H 0.53434 0.01916 0.28594 0.0
H632 H 0.43893 0.97128 0.22644 0.0
H633 H 0.49287 0.00011 0.21128 0.0
H634 H 0.50551 0.93006 0.26839 0.0
H635 H 0.45157 0.90129 0.28484 0.0
C636 C 0.58629 -0.00545 0.22023 0.0
C637 C 0.59875 0.0194 0.25101 0.0
C638 C 0.55514 0.97801 0.2146 0.0
C639 C 0.53608 0.98652 0.23854 0.0
C640 C 0.54865 0.01232 0.26676 0.0
C641 C 0.57969 0.02843 0.27343 0.0
C642 C 0.45304 0.96166 0.23463 0.0
C643 C 0.441 0.93406 0.25729 0.0
C644 C 0.4839 0.97825 0.22608 0.0
C645 C 0.50319 0.96728 0.23887 0.0
C646 C 0.49098 0.93888 0.25794 0.0
C647 C 0.46017 0.92249 0.2675 0.0
loop_
_geom_bond_atom_site_label_1
_geom_bond_atom_site_label_2
_geom_bond_distance
_geom_bond_site_symmetry_2
_ccdc_geom_bond_type
Mg0 O1 2.028 . S
Mg0 O7 1.986 . S
Mg0 O9 2.114 . S
Mg0 O10 2.251 . S
Mg0 O13 2.010 . S
O1 Mg0 2.028 . S
O1 C4 1.242 1_554 S
O2 Mg3 2.028 . S
O2 C4 1.240 1_554 S
Mg3 O2 2.028 . S
Mg3 O8 2.032 . S
Mg3 O10 2.079 . S
C4 O1 1.242 1_556 S
C4 O2 1.240 1_556 S
C5 O6 1.264 . S
C5 O13 1.249 . S
O6 C5 1.264 . S
O7 Mg0 1.986 . S
O7 C11 1.246 . S
O8 Mg3 2.032 . S
O8 C11 1.259 . S
O9 Mg0 2.114 . S
O9 C12 1.252 . S
O10 Mg0 2.251 . S
O10 Mg3 2.079 . S
O10 C12 1.273 . S
C11 O7 1.246 . S
C11 O8 1.259 . S
C12 O9 1.252 . S
C12 O10 1.273 . S
O13 Mg0 2.010 . S
O13 C5 1.249 . S
Mg14 O15 2.028 . S
Mg14 O21 1.986 . S
Mg14 O23 2.114 . S
Mg14 O24 2.251 . S
Mg14 O27 2.010 . S
O15 Mg14 2.028 . S
O15 C18 1.250 . S
O16 Mg17 2.028 . S
O16 C18 1.248 1_455 S
Mg17 O16 2.028 . S
Mg17 O22 2.032 . S
Mg17 O24 2.079 1_455 S
C18 O15 1.250 . S
C18 O16 1.248 1_655 S
C19 O20 1.264 . S
C19 O27 1.249 . S
O20 C19 1.264 . S
O21 Mg14 1.986 . S
O21 C25 1.246 . S
O22 Mg17 2.032 . S
O22 C25 1.259 1_455 S
O23 Mg14 2.114 . S
O23 C26 1.252 . S
O24 Mg14 2.251 . S
O24 Mg17 2.079 1_655 S
O24 C26 1.273 . S
C25 O21 1.246 . S
C25 O22 1.259 1_655 S
C26 O23 1.252 . S
C26 O24 1.273 . S
O27 Mg14 2.010 . S
O27 C19 1.249 . S
Mg28 O29 2.028 . S
Mg28 O35 1.986 . S
Mg28 O37 2.114 . S
Mg28 O38 2.251 . S
Mg28 O41 2.010 . S
O29 Mg28 2.028 . S
O29 C32 1.250 . S
O30 Mg31 2.028 . S
O30 C32 1.248 . S
Mg31 O30 2.028 . S
Mg31 O36 2.032 . S
Mg31 O38 2.079 . S
C32 O29 1.250 . S
C32 O30 1.248 . S
C33 O34 1.264 . S
C33 O41 1.249 . S
O34 C33 1.264 . S
O35 Mg28 1.986 . S
O35 C39 1.246 . S
O36 Mg31 2.032 . S
O36 C39 1.259 . S
O37 Mg28 2.114 . S
O37 C40 1.252 . S
O38 Mg28 2.251 . S
O38 Mg31 2.079 . S
O38 C40 1.273 . S
C39 O35 1.246 . S
C39 O36 1.259 . S
C40 O37 1.252 . S
C40 O38 1.273 . S
O41 Mg28 2.010 . S
O41 C33 1.249 . S
Mg42 O43 2.028 . S
Mg42 O49 1.986 . S
Mg42 O51 2.114 . S
Mg42 O52 2.251 . S
Mg42 O55 2.010 . S
O43 Mg42 2.028 . S
O43 C46 1.242 1_554 S
O44 Mg45 2.028 . S
O44 C46 1.240 1_554 S
Mg45 O44 2.028 . S
Mg45 O50 2.032 . S
Mg45 O52 2.079 . S
C46 O43 1.242 1_556 S
C46 O44 1.240 1_556 S
C47 O48 1.264 . S
C47 O55 1.249 . S
O48 C47 1.264 . S
O49 Mg42 1.986 . S
O49 C53 1.246 . S
O50 Mg45 2.032 . S
O50 C53 1.259 . S
O51 Mg42 2.114 . S
O51 C54 1.252 . S
O52 Mg42 2.251 . S
O52 Mg45 2.079 . S
O52 C54 1.273 . S
C53 O49 1.246 . S
C53 O50 1.259 . S
C54 O51 1.252 . S
C54 O52 1.273 . S
O55 Mg42 2.010 . S
O55 C47 1.249 . S
Mg56 O57 2.028 . S
Mg56 O63 1.986 . S
Mg56 O65 2.114 . S
Mg56 O66 2.251 . S
Mg56 O69 2.010 . S
O57 Mg56 2.028 . S
O57 C60 1.250 . S
O58 Mg59 2.028 . S
O58 C60 1.248 1_655 S
Mg59 O58 2.028 . S
Mg59 O64 2.032 . S
Mg59 O66 2.079 1_655 S
C60 O57 1.250 . S
C60 O58 1.248 1_455 S
C61 O62 1.264 . S
C61 O69 1.249 . S
O62 C61 1.264 . S
O63 Mg56 1.986 . S
O63 C67 1.246 . S
O64 Mg59 2.032 . S
O64 C67 1.259 1_655 S
O65 Mg56 2.114 . S
O65 C68 1.252 . S
O66 Mg56 2.251 . S
O66 Mg59 2.079 1_455 S
O66 C68 1.273 . S
C67 O63 1.246 . S
C67 O64 1.259 1_455 S
C68 O65 1.252 . S
C68 O66 1.273 . S
O69 Mg56 2.010 . S
O69 C61 1.249 . S
Mg70 O71 2.028 . S
Mg70 O77 1.986 . S
Mg70 O79 2.114 . S
Mg70 O80 2.251 . S
Mg70 O83 2.010 . S
O71 Mg70 2.028 . S
O71 C74 1.250 . S
O72 Mg73 2.028 . S
O72 C74 1.248 . S
Mg73 O72 2.028 . S
Mg73 O78 2.032 . S
Mg73 O80 2.079 . S
C74 O71 1.250 . S
C74 O72 1.248 . S
C75 O76 1.264 . S
C75 O83 1.249 . S
O76 C75 1.264 . S
O77 Mg70 1.986 . S
O77 C81 1.246 . S
O78 Mg73 2.032 . S
O78 C81 1.259 . S
O79 Mg70 2.114 . S
O79 C82 1.252 . S
O80 Mg70 2.251 . S
O80 Mg73 2.079 . S
O80 C82 1.273 . S
C81 O77 1.246 . S
C81 O78 1.259 . S
C82 O79 1.252 . S
C82 O80 1.273 . S
O83 Mg70 2.010 . S
O83 C75 1.249 . S
Mg84 O85 2.028 . S
Mg84 O91 1.986 . S
Mg84 O93 2.114 . S
Mg84 O94 2.251 . S
Mg84 O97 2.010 . S
O85 Mg84 2.028 . S
O85 C88 1.250 . S
O86 Mg87 2.028 . S
O86 C88 1.248 . S
Mg87 O86 2.028 . S
Mg87 O92 2.032 . S
Mg87 O94 2.079 . S
C88 O85 1.250 . S
C88 O86 1.248 . S
C89 O90 1.264 . S
C89 O97 1.249 . S
O90 C89 1.264 . S
O91 Mg84 1.986 . S
O91 C95 1.246 . S
O92 Mg87 2.032 . S
O92 C95 1.259 . S
O93 Mg84 2.114 . S
O93 C96 1.252 . S
O94 Mg84 2.251 . S
O94 Mg87 2.079 . S
O94 C96 1.273 . S
C95 O91 1.246 . S
C95 O92 1.259 . S
C96 O93 1.252 . S
C96 O94 1.273 . S
O97 Mg84 2.010 . S
O97 C89 1.249 . S
Mg98 O99 2.028 . S
Mg98 O105 1.986 . S
Mg98 O107 2.114 . S
Mg98 O108 2.251 . S
Mg98 O111 2.010 . S
O99 Mg98 2.028 . S
O99 C102 1.242 1_556 S
O100 Mg101 2.028 . S
O100 C102 1.240 1_456 S
Mg101 O100 2.028 . S
Mg101 O106 2.032 . S
Mg101 O108 2.079 1_455 S
C102 O99 1.242 1_554 S
C102 O100 1.240 1_654 S
C103 O104 1.264 . S
C103 O111 1.249 . S
O104 C103 1.264 . S
O105 Mg98 1.986 . S
O105 C109 1.246 . S
O106 Mg101 2.032 . S
O106 C109 1.259 1_455 S
O107 Mg98 2.114 . S
O107 C110 1.252 . S
O108 Mg98 2.251 . S
O108 Mg101 2.079 1_655 S
O108 C110 1.273 . S
C109 O105 1.246 . S
C109 O106 1.259 1_655 S
C110 O107 1.252 . S
C110 O108 1.273 . S
O111 Mg98 2.010 . S
O111 C103 1.249 . S
Mg112 O113 2.028 . S
Mg112 O119 1.986 . S
Mg112 O121 2.114 . S
Mg112 O122 2.251 . S
Mg112 O125 2.010 . S
O113 Mg112 2.028 . S
O113 C116 1.250 . S
O114 Mg115 2.028 . S
O114 C116 1.248 . S
Mg115 O114 2.028 . S
Mg115 O120 2.032 . S
Mg115 O122 2.079 . S
C116 O113 1.250 . S
C116 O114 1.248 . S
C117 O118 1.264 . S
C117 O125 1.249 . S
O118 C117 1.264 . S
O119 Mg112 1.986 . S
O119 C123 1.246 . S
O120 Mg115 2.032 . S
O120 C123 1.259 . S
O121 Mg112 2.114 . S
O121 C124 1.252 . S
O122 Mg112 2.251 . S
O122 Mg115 2.079 . S
O122 C124 1.273 . S
C123 O119 1.246 . S
C123 O120 1.259 . S
C124 O121 1.252 . S
C124 O122 1.273 . S
O125 Mg112 2.010 . S
O125 C117 1.249 . S
Mg126 O127 2.028 . S
Mg126 O133 1.986 . S
Mg126 O135 2.114 . S
Mg126 O136 2.251 . S
Mg126 O139 2.010 . S
O127 Mg126 2.028 . S
O127 C130 1.250 . S
O128 Mg129 2.028 . S
O128 C130 1.248 . S
Mg129 O128 2.028 . S
Mg129 O134 2.032 . S
Mg129 O136 2.079 . S
C130 O127 1.250 . S
C130 O128 1.248 . S
C131 O132 1.264 . S
C131 O139 1.249 . S
O132 C131 1.264 . S
O133 Mg126 1.986 . S
O133 C137 1.246 . S
O134 Mg129 2.032 . S
O134 C137 1.259 . S
O135 Mg126 2.114 . S
O135 C138 1.252 . S
O136 Mg126 2.251 . S
O136 Mg129 2.079 . S
O136 C138 1.273 . S
C137 O133 1.246 . S
C137 O134 1.259 . S
C138 O135 1.252 . S
C138 O136 1.273 . S
O139 Mg126 2.010 . S
O139 C131 1.249 . S
Mg140 O141 2.028 . S
Mg140 O147 1.986 . S
Mg140 O149 2.114 . S
Mg140 O150 2.251 . S
Mg140 O153 2.010 . S
O141 Mg140 2.028 . S
O141 C144 1.242 1_556 S
O142 Mg143 2.028 . S
O142 C144 1.240 1_656 S
Mg143 O142 2.028 . S
Mg143 O148 2.032 . S
Mg143 O150 2.079 1_655 S
C144 O141 1.242 1_554 S
C144 O142 1.240 1_454 S
C145 O146 1.264 . S
C145 O153 1.249 . S
O146 C145 1.264 . S
O147 Mg140 1.986 . S
O147 C151 1.246 . S
O148 Mg143 2.032 . S
O148 C151 1.259 1_655 S
O149 Mg140 2.114 . S
O149 C152 1.252 . S
O150 Mg140 2.251 . S
O150 Mg143 2.079 1_455 S
O150 C152 1.273 . S
C151 O147 1.246 . S
C151 O148 1.259 1_455 S
C152 O149 1.252 . S
C152 O150 1.273 . S
O153 Mg140 2.010 . S
O153 C145 1.249 . S
Mg154 O155 2.028 . S
Mg154 O161 1.986 . S
Mg154 O163 2.114 . S
Mg154 O164 2.251 . S
Mg154 O167 2.010 . S
O155 Mg154 2.028 . S
O155 C158 1.250 . S
O156 Mg157 2.028 . S
O156 C158 1.248 . S
Mg157 O156 2.028 . S
Mg157 O162 2.032 . S
Mg157 O164 2.079 . S
C158 O155 1.250 . S
C158 O156 1.248 . S
C159 O160 1.264 . S
C159 O167 1.249 . S
O160 C159 1.264 . S
O161 Mg154 1.986 . S
O161 C165 1.246 . S
O162 Mg157 2.032 . S
O162 C165 1.259 . S
O163 Mg154 2.114 . S
O163 C166 1.252 . S
O164 Mg154 2.251 . S
O164 Mg157 2.079 . S
O164 C166 1.273 . S
C165 O161 1.246 . S
C165 O162 1.259 . S
C166 O163 1.252 . S
C166 O164 1.273 . S
O167 Mg154 2.010 . S
O167 C159 1.249 . S
H168 C176 0.950 . S
H169 C181 0.950 . S
H170 C178 0.950 . S
H171 C180 0.950 . S
H172 C182 0.950 . S
H173 C184 0.950 . S
H174 C186 0.950 . S
H175 C187 0.950 . S
C176 H168 0.950 . S
C176 C177 1.386 . S
C176 C178 1.391 . S
C177 C176 1.386 . S
C177 C181 1.393 . S
C178 H170 0.950 . S
C178 C176 1.391 . S
C178 C179 1.400 . S
C179 C178 1.400 . S
C179 C180 1.398 . S
C179 C185 1.491 . S
C180 H171 0.950 . S
C180 C179 1.398 . S
C180 C181 1.391 . S
C181 H169 0.950 . S
C181 C177 1.393 . S
C181 C180 1.391 . S
C182 H172 0.950 . S
C182 C183 1.386 . S
C182 C184 1.391 . S
C183 C182 1.386 . S
C183 C187 1.393 . S
C184 H173 0.950 . S
C184 C182 1.391 . S
C184 C185 1.400 . S
C185 C179 1.491 . S
C185 C184 1.400 . S
C185 C186 1.398 . S
C186 H174 0.950 . S
C186 C185 1.398 . S
C186 C187 1.391 . S
C187 H175 0.950 . S
C187 C183 1.393 . S
C187 C186 1.391 . S
H188 C196 0.950 . S
H189 C201 0.950 . S
H190 C198 0.950 . S
H191 C200 0.950 . S
H192 C202 0.950 . S
H193 C204 0.950 . S
H194 C206 0.950 . S
H195 C207 0.950 . S
C196 H188 0.950 . S
C196 C197 1.386 . S
C196 C198 1.391 . S
C197 C196 1.386 . S
C197 C201 1.393 1_655 S
C198 H190 0.950 . S
C198 C196 1.391 . S
C198 C199 1.400 . S
C199 C198 1.400 . S
C199 C200 1.398 1_655 S
C199 C205 1.491 . S
C200 H191 0.950 . S
C200 C199 1.398 1_455 S
C200 C201 1.391 . S
C201 H189 0.950 . S
C201 C197 1.393 1_455 S
C201 C200 1.391 . S
C202 H192 0.950 . S
C202 C203 1.386 1_455 S
C202 C204 1.391 . S
C203 C202 1.386 1_655 S
C203 C207 1.393 . S
C204 H193 0.950 . S
C204 C202 1.391 . S
C204 C205 1.400 1_455 S
C205 C199 1.491 . S
C205 C204 1.400 1_655 S
C205 C206 1.398 . S
C206 H194 0.950 . S
C206 C205 1.398 . S
C206 C207 1.391 . S
C207 H195 0.950 . S
C207 C203 1.393 . S
C207 C206 1.391 . S
H208 C216 0.950 . S
H209 C221 0.950 . S
H210 C218 0.950 . S
H211 C220 0.950 . S
H212 C222 0.950 . S
H213 C224 0.950 . S
H214 C226 0.950 . S
H215 C227 0.950 . S
C216 H208 0.950 . S
C216 C217 1.386 1_545 S
C216 C218 1.391 . S
C217 C216 1.386 1_565 S
C217 C221 1.393 . S
C218 H210 0.950 . S
C218 C216 1.391 . S
C218 C219 1.400 1_545 S
C219 C218 1.400 1_565 S
C219 C220 1.398 . S
C219 C225 1.491 1_566 S
C220 H211 0.950 . S
C220 C219 1.398 . S
C220 C221 1.391 . S
C221 H209 0.950 . S
C221 C217 1.393 . S
C221 C220 1.391 . S
C222 H212 0.950 . S
C222 C223 1.386 1_565 S
C222 C224 1.391 . S
C223 C222 1.386 1_545 S
C223 C227 1.393 . S
C224 H213 0.950 . S
C224 C222 1.391 . S
C224 C225 1.400 1_565 S
C225 C219 1.491 1_544 S
C225 C224 1.400 1_545 S
C225 C226 1.398 . S
C226 H214 0.950 . S
C226 C225 1.398 . S
C226 C227 1.391 . S
C227 H215 0.950 . S
C227 C223 1.393 . S
C227 C226 1.391 . S
H228 C236 0.950 . S
H229 C241 0.950 . S
H230 C238 0.950 . S
H231 C240 0.950 . S
H232 C242 0.950 . S
H233 C244 0.950 . S
H234 C246 0.950 . S
H235 C247 0.950 . S
C236 H228 0.950 . S
C236 C237 1.386 . S
C236 C238 1.391 . S
C237 C236 1.386 . S
C237 C241 1.393 . S
C238 H230 0.950 . S
C238 C236 1.391 . S
C238 C239 1.400 . S
C239 C238 1.400 . S
C239 C240 1.398 . S
C239 C245 1.491 . S
C240 H231 0.950 . S
C240 C239 1.398 . S
C240 C241 1.391 . S
C241 H229 0.950 . S
C241 C237 1.393 . S
C241 C240 1.391 . S
C242 H232 0.950 . S
C242 C243 1.386 . S
C242 C244 1.391 . S
C243 C242 1.386 . S
C243 C247 1.393 . S
C244 H233 0.950 . S
C244 C242 1.391 . S
C244 C245 1.400 . S
C245 C239 1.491 . S
C245 C244 1.400 . S
C245 C246 1.398 . S
C246 H234 0.950 . S
C246 C245 1.398 . S
C246 C247 1.391 . S
C247 H235 0.950 . S
C247 C243 1.393 . S
C247 C246 1.391 . S
H248 C256 0.950 . S
H249 C261 0.950 . S
H250 C258 0.950 . S
H251 C260 0.950 . S
H252 C262 0.950 . S
H253 C264 0.950 . S
H254 C266 0.950 . S
H255 C267 0.950 . S
C256 H248 0.950 . S
C256 C257 1.386 1_655 S
C256 C258 1.391 . S
C257 C256 1.386 1_455 S
C257 C261 1.393 . S
C258 H250 0.950 . S
C258 C256 1.391 . S
C258 C259 1.400 1_655 S
C259 C258 1.400 1_455 S
C259 C260 1.398 . S
C259 C265 1.491 . S
C260 H251 0.950 . S
C260 C259 1.398 . S
C260 C261 1.391 . S
C261 H249 0.950 . S
C261 C257 1.393 . S
C261 C260 1.391 . S
C262 H252 0.950 . S
C262 C263 1.386 . S
C262 C264 1.391 . S
C263 C262 1.386 . S
C263 C267 1.393 1_455 S
C264 H253 0.950 . S
C264 C262 1.391 . S
C264 C265 1.400 . S
C265 C259 1.491 . S
C265 C264 1.400 . S
C265 C266 1.398 1_455 S
C266 H254 0.950 . S
C266 C265 1.398 1_655 S
C266 C267 1.391 . S
C267 H255 0.950 . S
C267 C263 1.393 1_655 S
C267 C266 1.391 . S
H268 C276 0.950 . S
H269 C281 0.950 . S
H270 C278 0.950 . S
H271 C280 0.950 . S
H272 C282 0.950 . S
H273 C284 0.950 . S
H274 C286 0.950 . S
H275 C287 0.950 . S
C276 H268 0.950 . S
C276 C277 1.386 . S
C276 C278 1.391 . S
C277 C276 1.386 . S
C277 C281 1.393 1_565 S
C278 H270 0.950 . S
C278 C276 1.391 . S
C278 C279 1.400 . S
C279 C278 1.400 . S
C279 C280 1.398 1_565 S
C279 C285 1.491 1_564 S
C280 H271 0.950 . S
C280 C279 1.398 1_545 S
C280 C281 1.391 . S
C281 H269 0.950 . S
C281 C277 1.393 1_545 S
C281 C280 1.391 . S
C282 H272 0.950 . S
C282 C283 1.386 . S
C282 C284 1.391 . S
C283 C282 1.386 . S
C283 C287 1.393 1_545 S
C284 H273 0.950 . S
C284 C282 1.391 . S
C284 C285 1.400 . S
C285 C279 1.491 1_546 S
C285 C284 1.400 . S
C285 C286 1.398 1_545 S
C286 H274 0.950 . S
C286 C285 1.398 1_565 S
C286 C287 1.391 . S
C287 H275 0.950 . S
C287 C283 1.393 1_565 S
C287 C286 1.391 . S
H288 C296 0.950 . S
H289 C301 0.950 . S
H290 C298 0.950 . S
H291 C300 0.950 . S
H292 C302 0.950 . S
H293 C304 0.950 . S
H294 C306 0.950 . S
H295 C307 0.950 . S
C296 H288 0.950 . S
C296 C297 1.386 1_554 S
C296 C298 1.391 . S
C297 C296 1.386 1_556 S
C297 C301 1.393 . S
C298 H290 0.950 . S
C298 C296 1.391 . S
C298 C299 1.400 1_554 S
C299 C298 1.400 1_556 S
C299 C300 1.398 . S
C299 C305 1.491 1_556 S
C300 H291 0.950 . S
C300 C299 1.398 . S
C300 C301 1.391 . S
C301 H289 0.950 . S
C301 C297 1.393 . S
C301 C300 1.391 . S
C302 H292 0.950 . S
C302 C303 1.386 1_556 S
C302 C304 1.391 . S
C303 C302 1.386 1_554 S
C303 C307 1.393 . S
C304 H293 0.950 . S
C304 C302 1.391 . S
C304 C305 1.400 1_556 S
C305 C299 1.491 1_554 S
C305 C304 1.400 1_554 S
C305 C306 1.398 . S
C306 H294 0.950 . S
C306 C305 1.398 . S
C306 C307 1.391 . S
C307 H295 0.950 . S
C307 C303 1.393 . S
C307 C306 1.391 . S
H308 C316 0.950 . S
H309 C321 0.950 . S
H310 C318 0.950 . S
H311 C320 0.950 . S
H312 C322 0.950 . S
H313 C324 0.950 . S
H314 C326 0.950 . S
H315 C327 0.950 . S
C316 H308 0.950 . S
C316 C317 1.386 . S
C316 C318 1.391 . S
C317 C316 1.386 . S
C317 C321 1.393 . S
C318 H310 0.950 . S
C318 C316 1.391 . S
C318 C319 1.400 . S
C319 C318 1.400 . S
C319 C320 1.398 . S
C319 C325 1.491 . S
C320 H311 0.950 . S
C320 C319 1.398 . S
C320 C321 1.391 . S
C321 H309 0.950 . S
C321 C317 1.393 . S
C321 C320 1.391 . S
C322 H312 0.950 . S
C322 C323 1.386 . S
C322 C324 1.391 . S
C323 C322 1.386 . S
C323 C327 1.393 . S
C324 H313 0.950 . S
C324 C322 1.391 . S
C324 C325 1.400 . S
C325 C319 1.491 . S
C325 C324 1.400 . S
C325 C326 1.398 . S
C326 H314 0.950 . S
C326 C325 1.398 . S
C326 C327 1.391 . S
C327 H315 0.950 . S
C327 C323 1.393 . S
C327 C326 1.391 . S
H328 C336 0.950 . S
H329 C341 0.950 . S
H330 C338 0.950 . S
H331 C340 0.950 . S
H332 C342 0.950 . S
H333 C344 0.950 . S
H334 C346 0.950 . S
H335 C347 0.950 . S
C336 H328 0.950 . S
C336 C337 1.386 . S
C336 C338 1.391 . S
C337 C336 1.386 . S
C337 C341 1.393 . S
C338 H330 0.950 . S
C338 C336 1.391 . S
C338 C339 1.400 . S
C339 C338 1.400 . S
C339 C340 1.398 . S
C339 C345 1.491 . S
C340 H331 0.950 . S
C340 C339 1.398 . S
C340 C341 1.391 . S
C341 H329 0.950 . S
C341 C337 1.393 . S
C341 C340 1.391 . S
C342 H332 0.950 . S
C342 C343 1.386 . S
C342 C344 1.391 . S
C343 C342 1.386 . S
C343 C347 1.393 . S
C344 H333 0.950 . S
C344 C342 1.391 . S
C344 C345 1.400 . S
C345 C339 1.491 . S
C345 C344 1.400 . S
C345 C346 1.398 . S
C346 H334 0.950 . S
C346 C345 1.398 . S
C346 C347 1.391 . S
C347 H335 0.950 . S
C347 C343 1.393 . S
C347 C346 1.391 . S
H348 C356 0.950 . S
H349 C361 0.950 . S
H350 C358 0.950 . S
H351 C360 0.950 1_556 S
H352 C362 0.950 . S
H353 C364 0.950 . S
H354 C366 0.950 1_554 S
H355 C367 0.950 . S
C356 H348 0.950 . S
C356 C357 1.386 . S
C356 C358 1.391 . S
C357 C356 1.386 . S
C357 C361 1.393 . S
C358 H350 0.950 . S
C358 C356 1.391 . S
C358 C359 1.400 . S
C359 C358 1.400 . S
C359 C360 1.398 . S
C359 C365 1.491 1_554 S
C360 H351 0.950 1_554 S
C360 C359 1.398 . S
C360 C361 1.391 . S
C361 H349 0.950 . S
C361 C357 1.393 . S
C361 C360 1.391 . S
C362 H352 0.950 . S
C362 C363 1.386 . S
C362 C364 1.391 . S
C363 C362 1.386 . S
C363 C367 1.393 . S
C364 H353 0.950 . S
C364 C362 1.391 . S
C364 C365 1.400 . S
C365 C359 1.491 1_556 S
C365 C364 1.400 . S
C365 C366 1.398 . S
C366 H354 0.950 1_556 S
C366 C365 1.398 . S
C366 C367 1.391 . S
C367 H355 0.950 . S
C367 C363 1.393 . S
C367 C366 1.391 . S
H368 C376 0.950 . S
H369 C381 0.950 . S
H370 C378 0.950 . S
H371 C380 0.950 . S
H372 C382 0.950 . S
H373 C384 0.950 . S
H374 C386 0.950 . S
H375 C387 0.950 . S
C376 H368 0.950 . S
C376 C377 1.386 . S
C376 C378 1.391 . S
C377 C376 1.386 . S
C377 C381 1.393 . S
C378 H370 0.950 . S
C378 C376 1.391 . S
C378 C379 1.400 . S
C379 C378 1.400 . S
C379 C380 1.398 . S
C379 C385 1.491 . S
C380 H371 0.950 . S
C380 C379 1.398 . S
C380 C381 1.391 . S
C381 H369 0.950 . S
C381 C377 1.393 . S
C381 C380 1.391 . S
C382 H372 0.950 . S
C382 C383 1.386 . S
C382 C384 1.391 . S
C383 C382 1.386 . S
C383 C387 1.393 . S
C384 H373 0.950 . S
C384 C382 1.391 . S
C384 C385 1.400 . S
C385 C379 1.491 . S
C385 C384 1.400 . S
C385 C386 1.398 . S
C386 H374 0.950 . S
C386 C385 1.398 . S
C386 C387 1.391 . S
C387 H375 0.950 . S
C387 C383 1.393 . S
C387 C386 1.391 . S
H388 C396 0.950 . S
H389 C401 0.950 . S
H390 C398 0.950 . S
H391 C400 0.950 . S
H392 C402 0.950 . S
H393 C404 0.950 . S
H394 C406 0.950 . S
H395 C407 0.950 . S
C396 H388 0.950 . S
C396 C397 1.386 . S
C396 C398 1.391 . S
C397 C396 1.386 . S
C397 C401 1.393 . S
C398 H390 0.950 . S
C398 C396 1.391 . S
C398 C399 1.400 . S
C399 C398 1.400 . S
C399 C400 1.398 . S
C399 C405 1.491 . S
C400 H391 0.950 . S
C400 C399 1.398 . S
C400 C401 1.391 . S
C401 H389 0.950 . S
C401 C397 1.393 . S
C401 C400 1.391 . S
C402 H392 0.950 . S
C402 C403 1.386 . S
C402 C404 1.391 . S
C403 C402 1.386 . S
C403 C407 1.393 . S
C404 H393 0.950 . S
C404 C402 1.391 . S
C404 C405 1.400 . S
C405 C399 1.491 . S
C405 C404 1.400 . S
C405 C406 1.398 . S
C406 H394 0.950 . S
C406 C405 1.398 . S
C406 C407 1.391 . S
C407 H395 0.950 . S
C407 C403 1.393 . S
C407 C406 1.391 . S
H408 C416 0.950 . S
H409 C421 0.950 . S
H410 C418 0.950 . S
H411 C420 0.950 . S
H412 C422 0.950 . S
H413 C424 0.950 . S
H414 C426 0.950 . S
H415 C427 0.950 . S
C416 H408 0.950 . S
C416 C417 1.386 . S
C416 C418 1.391 . S
C417 C416 1.386 . S
C417 C421 1.393 . S
C418 H410 0.950 . S
C418 C416 1.391 . S
C418 C419 1.400 . S
C419 C418 1.400 . S
C419 C420 1.398 . S
C419 C425 1.491 . S
C420 H411 0.950 . S
C420 C419 1.398 . S
C420 C421 1.391 . S
C421 H409 0.950 . S
C421 C417 1.393 . S
C421 C420 1.391 . S
C422 H412 0.950 . S
C422 C423 1.386 . S
C422 C424 1.391 . S
C423 C422 1.386 . S
C423 C427 1.393 . S
C424 H413 0.950 . S
C424 C422 1.391 . S
C424 C425 1.400 . S
C425 C419 1.491 . S
C425 C424 1.400 . S
C425 C426 1.398 . S
C426 H414 0.950 . S
C426 C425 1.398 . S
C426 C427 1.391 . S
C427 H415 0.950 . S
C427 C423 1.393 . S
C427 C426 1.391 . S
H428 C436 0.950 . S
H429 C441 0.950 . S
H430 C438 0.950 . S
H431 C440 0.950 . S
H432 C442 0.950 . S
H433 C444 0.950 . S
H434 C446 0.950 . S
H435 C447 0.950 . S
C436 H428 0.950 . S
C436 C437 1.386 1_455 S
C436 C438 1.391 . S
C437 C436 1.386 1_655 S
C437 C441 1.393 . S
C438 H430 0.950 . S
C438 C436 1.391 . S
C438 C439 1.400 1_455 S
C439 C438 1.400 1_655 S
C439 C440 1.398 . S
C439 C445 1.491 . S
C440 H431 0.950 . S
C440 C439 1.398 . S
C440 C441 1.391 . S
C441 H429 0.950 . S
C441 C437 1.393 . S
C441 C440 1.391 . S
C442 H432 0.950 . S
C442 C443 1.401 . S
C442 C444 1.391 . S
C443 C442 1.401 . S
C443 C447 1.381 1_655 S
C444 H433 0.950 . S
C444 C442 1.391 . S
C444 C445 1.400 . S
C445 C439 1.491 . S
C445 C444 1.400 . S
C445 C446 1.398 1_655 S
C446 H434 0.950 . S
C446 C445 1.398 1_455 S
C446 C447 1.391 . S
C447 H435 0.950 . S
C447 C443 1.381 1_455 S
C447 C446 1.391 . S
H448 C456 0.950 . S
H449 C461 0.950 . S
H450 C458 0.950 . S
H451 C460 0.950 . S
H452 C462 0.950 . S
H453 C464 0.950 . S
H454 C466 0.950 . S
H455 C467 0.950 . S
C456 H448 0.950 . S
C456 C457 1.386 1_545 S
C456 C458 1.391 . S
C457 C456 1.386 1_565 S
C457 C461 1.393 . S
C458 H450 0.950 . S
C458 C456 1.391 . S
C458 C459 1.400 1_545 S
C459 C458 1.400 1_565 S
C459 C460 1.398 . S
C459 C465 1.491 1_565 S
C460 H451 0.950 . S
C460 C459 1.398 . S
C460 C461 1.391 . S
C461 H449 0.950 . S
C461 C457 1.393 . S
C461 C460 1.391 . S
C462 H452 0.950 . S
C462 C463 1.386 1_565 S
C462 C464 1.391 . S
C463 C462 1.386 1_545 S
C463 C467 1.393 . S
C464 H453 0.950 . S
C464 C462 1.391 . S
C464 C465 1.400 1_565 S
C465 C459 1.491 1_545 S
C465 C464 1.400 1_545 S
C465 C466 1.398 . S
C466 H454 0.950 . S
C466 C465 1.398 . S
C466 C467 1.391 . S
C467 H455 0.950 . S
C467 C463 1.393 . S
C467 C466 1.391 . S
H468 C476 0.950 . S
H469 C481 0.950 . S
H470 C478 0.950 . S
H471 C480 0.950 . S
H472 C482 0.950 . S
H473 C484 0.950 . S
H474 C486 0.950 . S
H475 C487 0.950 . S
C476 H468 0.950 . S
C476 C477 1.386 . S
C476 C478 1.391 . S
C477 C476 1.386 . S
C477 C481 1.393 . S
C478 H470 0.950 . S
C478 C476 1.391 . S
C478 C479 1.400 . S
C479 C478 1.400 . S
C479 C480 1.398 . S
C479 C485 1.491 . S
C480 H471 0.950 . S
C480 C479 1.398 . S
C480 C481 1.391 . S
C481 H469 0.950 . S
C481 C477 1.393 . S
C481 C480 1.391 . S
C482 H472 0.950 . S
C482 C483 1.386 . S
C482 C484 1.391 . S
C483 C482 1.386 . S
C483 C487 1.393 . S
C484 H473 0.950 . S
C484 C482 1.391 . S
C484 C485 1.400 . S
C485 C479 1.491 . S
C485 C484 1.400 . S
C485 C486 1.398 . S
C486 H474 0.950 . S
C486 C485 1.398 . S
C486 C487 1.391 . S
C487 H475 0.950 . S
C487 C483 1.393 . S
C487 C486 1.391 . S
H488 C496 0.950 . S
H489 C501 0.950 . S
H490 C498 0.950 . S
H491 C500 0.950 . S
H492 C502 0.950 . S
H493 C504 0.950 . S
H494 C506 0.949 1_655 S
H495 C507 0.950 . S
C496 H488 0.950 . S
C496 C497 1.386 . S
C496 C498 1.391 . S
C497 C496 1.386 . S
C497 C501 1.393 . S
C498 H490 0.950 . S
C498 C496 1.391 . S
C498 C499 1.400 . S
C499 C498 1.400 . S
C499 C500 1.398 . S
C499 C505 1.491 . S
C500 H491 0.950 . S
C500 C499 1.398 . S
C500 C501 1.391 . S
C501 H489 0.950 . S
C501 C497 1.393 . S
C501 C500 1.391 . S
C502 H492 0.950 . S
C502 C503 1.367 1_455 S
C502 C504 1.391 . S
C503 C502 1.367 1_655 S
C503 C507 1.409 . S
C504 H493 0.950 . S
C504 C502 1.391 . S
C504 C505 1.400 . S
C505 C499 1.491 . S
C505 C504 1.400 . S
C505 C506 1.400 . S
C506 H494 0.949 1_455 S
C506 C505 1.400 . S
C506 C507 1.390 1_455 S
C507 H495 0.950 . S
C507 C503 1.409 . S
C507 C506 1.390 1_655 S
H508 C516 0.950 . S
H509 C521 0.950 . S
H510 C518 0.950 . S
H511 C520 0.950 . S
H512 C522 0.950 . S
H513 C524 0.950 . S
H514 C526 0.950 . S
H515 C527 0.950 . S
C516 H508 0.950 . S
C516 C517 1.386 1_545 S
C516 C518 1.391 . S
C517 C516 1.386 1_565 S
C517 C521 1.393 . S
C518 H510 0.950 . S
C518 C516 1.391 . S
C518 C519 1.400 1_545 S
C519 C518 1.400 1_565 S
C519 C520 1.398 . S
C519 C525 1.491 1_565 S
C520 H511 0.950 . S
C520 C519 1.398 . S
C520 C521 1.391 . S
C521 H509 0.950 . S
C521 C517 1.393 . S
C521 C520 1.391 . S
C522 H512 0.950 . S
C522 C523 1.386 1_565 S
C522 C524 1.391 . S
C523 C522 1.386 1_545 S
C523 C527 1.393 . S
C524 H513 0.950 . S
C524 C522 1.391 . S
C524 C525 1.400 1_565 S
C525 C519 1.491 1_545 S
C525 C524 1.400 1_545 S
C525 C526 1.398 . S
C526 H514 0.950 . S
C526 C525 1.398 . S
C526 C527 1.391 . S
C527 H515 0.950 . S
C527 C523 1.393 . S
C527 C526 1.391 . S
H528 C536 0.950 1_556 S
H529 C541 0.950 . S
H530 C538 0.950 1_556 S
H531 C540 0.950 . S
H532 C542 0.950 . S
H533 C544 0.950 . S
H534 C546 0.950 1_556 S
H535 C547 0.950 1_556 S
C536 H528 0.950 1_554 S
C536 C537 1.386 . S
C536 C538 1.391 . S
C537 C536 1.386 . S
C537 C541 1.393 . S
C538 H530 0.950 1_554 S
C538 C536 1.391 . S
C538 C539 1.400 . S
C539 C538 1.400 . S
C539 C540 1.398 . S
C539 C545 1.491 . S
C540 H531 0.950 . S
C540 C539 1.398 . S
C540 C541 1.391 . S
C541 H529 0.950 . S
C541 C537 1.393 . S
C541 C540 1.391 . S
C542 H532 0.950 . S
C542 C543 1.386 . S
C542 C544 1.391 . S
C543 C542 1.386 . S
C543 C547 1.393 . S
C544 H533 0.950 . S
C544 C542 1.391 . S
C544 C545 1.400 . S
C545 C539 1.491 . S
C545 C544 1.400 . S
C545 C546 1.398 . S
C546 H534 0.950 1_554 S
C546 C545 1.398 . S
C546 C547 1.391 . S
C547 H535 0.950 1_554 S
C547 C543 1.393 . S
C547 C546 1.391 . S
H548 C556 0.950 . S
H549 C561 0.950 . S
H550 C558 0.950 . S
H551 C560 0.950 . S
H552 C562 0.950 . S
H553 C564 0.950 . S
H554 C566 0.950 . S
H555 C567 0.950 . S
C556 H548 0.950 . S
C556 C557 1.386 . S
C556 C558 1.391 1_455 S
C557 C556 1.386 . S
C557 C561 1.393 . S
C558 H550 0.950 . S
C558 C556 1.391 1_655 S
C558 C559 1.400 1_655 S
C559 C558 1.400 1_455 S
C559 C560 1.398 . S
C559 C565 1.491 1_455 S
C560 H551 0.950 . S
C560 C559 1.398 . S
C560 C561 1.391 . S
C561 H549 0.950 . S
C561 C557 1.393 . S
C561 C560 1.391 . S
C562 H552 0.950 . S
C562 C563 1.386 . S
C562 C564 1.391 1_655 S
C563 C562 1.386 . S
C563 C567 1.393 . S
C564 H553 0.950 . S
C564 C562 1.391 1_455 S
C564 C565 1.400 1_455 S
C565 C559 1.491 1_655 S
C565 C564 1.400 1_655 S
C565 C566 1.398 . S
C566 H554 0.950 . S
C566 C565 1.398 . S
C566 C567 1.391 . S
C567 H555 0.950 . S
C567 C563 1.393 . S
C567 C566 1.391 . S
H568 C576 0.950 . S
H569 C581 0.950 . S
H570 C578 0.950 . S
H571 C580 0.950 . S
H572 C582 0.950 . S
H573 C584 0.950 . S
H574 C586 0.950 . S
H575 C587 0.950 . S
C576 H568 0.950 . S
C576 C577 1.386 . S
C576 C578 1.391 1_565 S
C577 C576 1.386 . S
C577 C581 1.393 . S
C578 H570 0.950 . S
C578 C576 1.391 1_545 S
C578 C579 1.400 1_545 S
C579 C578 1.400 1_565 S
C579 C580 1.398 . S
C579 C585 1.491 1_565 S
C580 H571 0.950 . S
C580 C579 1.398 . S
C580 C581 1.391 . S
C581 H569 0.950 . S
C581 C577 1.393 . S
C581 C580 1.391 . S
C582 H572 0.950 . S
C582 C583 1.386 . S
C582 C584 1.391 1_545 S
C583 C582 1.386 . S
C583 C587 1.393 . S
C584 H573 0.950 . S
C584 C582 1.391 1_565 S
C584 C585 1.400 1_565 S
C585 C579 1.491 1_545 S
C585 C584 1.400 1_545 S
C585 C586 1.398 . S
C586 H574 0.950 . S
C586 C585 1.398 . S
C586 C587 1.391 . S
C587 H575 0.950 . S
C587 C583 1.393 . S
C587 C586 1.391 . S
H588 C596 0.950 . S
H589 C601 0.950 . S
H590 C598 0.950 . S
H591 C600 0.950 . S
H592 C602 0.950 . S
H593 C604 0.950 . S
H594 C606 0.950 . S
H595 C607 0.950 . S
C596 H588 0.950 . S
C596 C597 1.386 . S
C596 C598 1.391 . S
C597 C596 1.386 . S
C597 C601 1.393 . S
C598 H590 0.950 . S
C598 C596 1.391 . S
C598 C599 1.400 . S
C599 C598 1.400 . S
C599 C600 1.398 . S
C599 C605 1.491 . S
C600 H591 0.950 . S
C600 C599 1.398 . S
C600 C601 1.391 . S
C601 H589 0.950 . S
C601 C597 1.393 . S
C601 C600 1.391 . S
C602 H592 0.950 . S
C602 C603 1.386 . S
C602 C604 1.391 . S
C603 C602 1.386 . S
C603 C607 1.393 . S
C604 H593 0.950 . S
C604 C602 1.391 . S
C604 C605 1.400 . S
C605 C599 1.491 . S
C605 C604 1.400 . S
C605 C606 1.398 . S
C606 H594 0.950 . S
C606 C605 1.398 . S
C606 C607 1.391 . S
C607 H595 0.950 . S
C607 C603 1.393 . S
C607 C606 1.391 . S
H608 C616 0.950 . S
H609 C621 0.950 1_554 S
H610 C618 0.950 . S
H611 C620 0.950 1_554 S
H612 C622 0.950 1_554 S
H613 C624 0.950 1_554 S
H614 C626 0.950 . S
H615 C627 0.950 . S
C616 H608 0.950 . S
C616 C617 1.386 . S
C616 C618 1.391 . S
C617 C616 1.386 . S
C617 C621 1.393 . S
C618 H610 0.950 . S
C618 C616 1.391 . S
C618 C619 1.400 . S
C619 C618 1.400 . S
C619 C620 1.398 1_655 S
C619 C625 1.491 1_655 S
C620 H611 0.950 1_556 S
C620 C619 1.398 1_455 S
C620 C621 1.391 1_455 S
C621 H609 0.950 1_556 S
C621 C617 1.393 . S
C621 C620 1.391 1_655 S
C622 H612 0.950 1_556 S
C622 C623 1.386 . S
C622 C624 1.391 . S
C623 C622 1.386 . S
C623 C627 1.393 . S
C624 H613 0.950 1_556 S
C624 C622 1.391 . S
C624 C625 1.400 . S
C625 C619 1.491 1_455 S
C625 C624 1.400 . S
C625 C626 1.398 1_455 S
C626 H614 0.950 . S
C626 C625 1.398 1_655 S
C626 C627 1.391 1_655 S
C627 H615 0.950 . S
C627 C623 1.393 . S
C627 C626 1.391 1_455 S
H628 C636 0.950 . S
H629 C641 0.950 . S
H630 C638 0.950 . S
H631 C640 0.950 . S
H632 C642 0.950 . S
H633 C644 0.950 . S
H634 C646 0.950 . S
H635 C647 0.950 . S
C636 H628 0.950 . S
C636 C637 1.386 . S
C636 C638 1.391 1_545 S
C637 C636 1.386 . S
C637 C641 1.393 . S
C638 H630 0.950 . S
C638 C636 1.391 1_565 S
C638 C639 1.400 1_565 S
C639 C638 1.400 1_545 S
C639 C640 1.398 . S
C639 C645 1.491 1_545 S
C640 H631 0.950 . S
C640 C639 1.398 . S
C640 C641 1.391 . S
C641 H629 0.950 . S
C641 C637 1.393 . S
C641 C640 1.391 . S
C642 H632 0.950 . S
C642 C643 1.386 . S
C642 C644 1.391 1_565 S
C643 C642 1.386 . S
C643 C647 1.393 . S
C644 H633 0.950 . S
C644 C642 1.391 1_545 S
C644 C645 1.400 1_545 S
C645 C639 1.491 1_565 S
C645 C644 1.400 1_565 S
C645 C646 1.398 . S
C646 H634 0.950 . S
C646 C645 1.398 . S
C646 C647 1.391 . S
C647 H635 0.950 . S
C647 C643 1.393 . S
C647 C646 1.391 . S
C177 C11 1.478 . S
C183 C137 1.485 . S
C197 C25 1.497 . S
C203 C151 1.467 1_655 S
C217 C33 1.016 . S
C223 C159 0.961 . S
C237 C53 1.491 . S
C243 C95 1.475 . S
C257 C109 1.491 1_455 S
C263 C67 1.476 . S
C277 C117 0.985 . S
C283 C75 1.005 . S
C297 C145 1.142 . S
C303 C5 1.123 . S
C317 C19 1.145 . S
C323 C165 1.251 . S
C337 C39 1.242 . S
C343 C89 1.127 . S
C357 C47 1.173 . S
C363 C103 1.173 . S
C377 C61 1.106 . S
C383 C123 1.254 . S
C397 C81 1.237 . S
C403 C131 1.144 . S
C417 C130 0.778 . S
C423 C4 0.841 . S
C437 C18 0.823 . S
C443 C144 0.797 1_655 S
C457 C40 0.535 . S
C463 C166 0.525 . S
C477 C88 0.788 . S
C483 C46 0.835 . S
C497 C60 0.799 . S
C503 C102 0.810 . S
C517 C124 0.543 . S
C523 C82 0.524 . S
C537 C12 1.355 . S
C543 C54 1.355 . S
C557 C68 1.384 . S
C563 C26 1.382 . S
C577 C32 1.317 . S
C583 C74 1.337 . S
C597 C96 1.395 . S
C603 C138 1.396 . S
C617 C110 1.337 . S
C623 C152 1.338 . S
C637 C158 1.315 . S
C643 C116 1.336 . S
