# Generated by pormake.
# Topology unj, (4)-cn, num edge types: 1
# Building blocks:
#     Node 0, Type 0, BuildingBlock: NAHDIM_clean_sbu_0, # of connection points: 4
#     Node 1, Type 0, BuildingBlock: NAHDIM_clean_sbu_0, # of connection points: 4
#     Node 2, Type 0, BuildingBlock: NAHDIM_clean_sbu_0, # of connection points: 4
#     Node 3, Type 0, BuildingBlock: NAHDIM_clean_sbu_0, # of connection points: 4
#     Node 4, Type 0, BuildingBlock: NAHDIM_clean_sbu_0, # of connection points: 4
#     Node 5, Type 0, BuildingBlock: NAHDIM_clean_sbu_0, # of connection points: 4
#     Edge 6, Type (0, 0), BuildingBlock: FUNLAD_clean_linker_0, # of connection points: 2
#     Edge 7, Type (0, 0), BuildingBlock: FUNLAD_clean_linker_0, # of connection points: 2
#     Edge 8, Type (0, 0), BuildingBlock: FUNLAD_clean_linker_0, # of connection points: 2
#     Edge 9, Type (0, 0), BuildingBlock: FUNLAD_clean_linker_0, # of connection points: 2
#     Edge 10, Type (0, 0), BuildingBlock: FUNLAD_clean_linker_0, # of connection points: 2
#     Edge 11, Type (0, 0), BuildingBlock: FUNLAD_clean_linker_0, # of connection points: 2
#     Edge 12, Type (0, 0), BuildingBlock: FUNLAD_clean_linker_0, # of connection points: 2
#     Edge 13, Type (0, 0), BuildingBlock: FUNLAD_clean_linker_0, # of connection points: 2
#     Edge 14, Type (0, 0), BuildingBlock: FUNLAD_clean_linker_0, # of connection points: 2
#     Edge 15, Type (0, 0), BuildingBlock: FUNLAD_clean_linker_0, # of connection points: 2
#     Edge 16, Type (0, 0), BuildingBlock: FUNLAD_clean_linker_0, # of connection points: 2
#     Edge 17, Type (0, 0), BuildingBlock: FUNLAD_clean_linker_0, # of connection points: 2
# Relax obj value: 0.006
# Max RMSD: 0.036
# Mean RMSD: 0.036
data_MOF--net-unj--node1-NAHDIM_clean_sbu_0--edge1-FUNLAD_clean_linker_0
_symmetry_space_group_name_H-M    P1
_symmetry_Int_Tables_number       1
_symmetry_cell_setting            triclinic
loop_
_symmetry_equiv_pos_as_xyz
'x, y, z'
_cell_length_a     40.275822
_cell_length_b     40.234416
_cell_length_c     39.915448
_cell_angle_alpha  89.991185
_cell_angle_beta   89.972032
_cell_angle_gamma 120.04165
loop_
_atom_site_label
_atom_site_type_symbol
_atom_site_fract_x
_atom_site_fract_y
_atom_site_fract_z
_atom_type_partial_charge
C0 C 0.43704 0.30596 0.60153 0.0
O1 O 0.47336 0.32646 0.59303 0.0
O2 O 0.48509 0.2789 0.54474 0.0
Zn3 Zn 0.4536 0.24791 0.5842 0.0
O4 O 0.48869 0.25299 0.62227 0.0
C5 C 0.40736 0.18229 0.54186 0.0
O6 O 0.41169 0.20892 0.52037 0.0
O7 O 0.4206 0.26958 0.59964 0.0
C8 C 0.49915 0.22842 0.62755 0.0
O9 O 0.48727 0.19889 0.60729 0.0
C10 C 0.5076 0.27096 0.52889 0.0
O11 O 0.5107 0.24136 0.53837 0.0
O12 O 0.42178 0.19224 0.57097 0.0
C13 C 0.1328 0.42463 0.76994 0.0
O14 O 0.13681 0.43267 0.73778 0.0
O15 O 0.2131 0.50592 0.73259 0.0
Zn16 Zn 0.21539 0.47308 0.76992 0.0
O17 O 0.24879 0.50695 0.80738 0.0
C18 C 0.27002 0.45833 0.73779 0.0
O19 O 0.2892 0.49604 0.73705 0.0
O20 O 0.16244 0.43846 0.78842 0.0
C21 C 0.26734 0.49721 0.82696 0.0
O22 O 0.26506 0.46373 0.82282 0.0
C23 C 0.23765 0.54148 0.73017 0.0
O24 O 0.26485 0.55749 0.75281 0.0
O25 O 0.23697 0.44129 0.75122 0.0
C26 C 0.68704 0.14983 0.95644 0.0
O27 O 0.67023 0.17036 0.96052 0.0
O28 O 0.6998 0.20932 0.8797 0.0
Zn29 Zn 0.73547 0.21532 0.91768 0.0
O30 O 0.73461 0.2509 0.95278 0.0
C31 C 0.80241 0.26903 0.88308 0.0
O32 O 0.78131 0.28536 0.88028 0.0
O33 O 0.71715 0.16335 0.93853 0.0
C34 C 0.76131 0.26716 0.97424 0.0
O35 O 0.79035 0.26092 0.97328 0.0
C36 C 0.68716 0.2323 0.87524 0.0
O37 O 0.69704 0.26082 0.8963 0.0
O38 O 0.78896 0.23751 0.89899 0.0
C39 C 0.56071 0.70077 0.1325 0.0
O40 O 0.52322 0.68065 0.13558 0.0
O41 O 0.50812 0.71384 0.06243 0.0
Zn42 Zn 0.5399 0.74999 0.0995 0.0
O43 O 0.50563 0.74835 0.13707 0.0
C44 C 0.55143 0.81941 0.06979 0.0
O45 O 0.51376 0.79989 0.07041 0.0
O46 O 0.57563 0.73291 0.11746 0.0
C47 C 0.51832 0.77403 0.15967 0.0
O48 O 0.55418 0.80194 0.15819 0.0
C49 C 0.47262 0.70242 0.059 0.0
O50 O 0.45591 0.71444 0.08016 0.0
O51 O 0.56986 0.80386 0.08121 0.0
C52 C 0.86915 0.58013 0.26441 0.0
O53 O 0.86578 0.57831 0.23163 0.0
O54 O 0.79277 0.49636 0.22337 0.0
Zn55 Zn 0.78763 0.52548 0.26225 0.0
O56 O 0.75434 0.48772 0.29769 0.0
C57 C 0.77124 0.57354 0.21888 0.0
O58 O 0.79603 0.57142 0.1989 0.0
O59 O 0.8396 0.56025 0.28236 0.0
C60 C 0.71824 0.474 0.2985 0.0
O61 O 0.70202 0.48458 0.27556 0.0
C62 C 0.76507 0.478 0.20318 0.0
O63 O 0.73299 0.47844 0.2078 0.0
O64 O 0.76366 0.55659 0.24708 0.0
C65 C 0.29335 0.85772 0.42465 0.0
O66 O 0.30352 0.85199 0.3949 0.0
O67 O 0.29332 0.77476 0.3947 0.0
Zn68 Zn 0.25616 0.77486 0.42865 0.0
O69 O 0.25371 0.74325 0.46888 0.0
C70 C 0.19989 0.76167 0.37804 0.0
O71 O 0.23038 0.78712 0.36162 0.0
O72 O 0.27324 0.82903 0.44348 0.0
C73 C 0.22891 0.70773 0.47098 0.0
O74 O 0.20438 0.69125 0.44638 0.0
C75 C 0.28355 0.74543 0.3764 0.0
O76 O 0.24943 0.71508 0.3805 0.0
O77 O 0.20382 0.75221 0.40752 0.0
C78 C 0.37387 0.13046 0.49896 0.0
C79 C 0.38848 0.14148 0.53156 0.0
C80 C 0.35815 0.09231 0.48859 0.0
C81 C 0.35698 0.06435 0.51057 0.0
C82 C 0.37043 0.07519 0.54346 0.0
C83 C 0.38614 0.11331 0.55383 0.0
C84 C 0.34184 0.02371 0.50031 0.0
C85 C 0.34115 0.01278 0.46825 0.0
C86 C 0.32817 0.97254 0.4579 0.0
C87 C 0.34003 0.96617 0.42665 0.0
C88 C 0.32876 0.92896 0.41587 0.0
C89 C 0.30514 0.89714 0.43607 0.0
H90 H 0.29307 0.94399 0.50167 0.0
C91 C 0.29275 0.90337 0.46716 0.0
C92 C 0.30396 0.94061 0.47792 0.0
H93 H 0.27417 0.87944 0.48318 0.0
H94 H 0.37485 0.15136 0.48129 0.0
H95 H 0.34682 0.08496 0.46343 0.0
H96 H 0.3695 0.05422 0.56105 0.0
H97 H 0.39697 0.12076 0.57917 0.0
H98 H 0.33352 0.00268 0.52025 0.0
H99 H 0.35274 0.03446 0.44872 0.0
H100 H 0.3584 0.99013 0.41056 0.0
H101 H 0.3387 0.92521 0.39171 0.0
C102 C 0.37933 0.30404 0.62774 0.0
C103 C 0.41633 0.32524 0.61398 0.0
C104 C 0.36069 0.32276 0.64061 0.0
C105 C 0.37876 0.36313 0.63991 0.0
C106 C 0.41526 0.38409 0.62533 0.0
C107 C 0.43394 0.36545 0.61272 0.0
C108 C 0.36073 0.38468 0.65366 0.0
C109 C 0.33374 0.37116 0.67787 0.0
C110 C 0.3179 0.39421 0.69284 0.0
C111 C 0.28165 0.37509 0.70817 0.0
C112 C 0.26601 0.3958 0.72282 0.0
C113 C 0.28652 0.43616 0.7227 0.0
H114 H 0.3673 0.45061 0.68296 0.0
C115 C 0.32306 0.45531 0.70789 0.0
C116 C 0.33867 0.43464 0.69326 0.0
H117 H 0.33982 0.48638 0.70768 0.0
H118 H 0.36488 0.27299 0.62885 0.0
H119 H 0.33209 0.30545 0.65068 0.0
H120 H 0.42972 0.41515 0.62416 0.0
H121 H 0.46231 0.38267 0.60207 0.0
H122 H 0.37138 0.41351 0.64405 0.0
H123 H 0.32269 0.34222 0.68736 0.0
H124 H 0.26521 0.344 0.70859 0.0
H125 H 0.23784 0.38015 0.73417 0.0
C126 C 0.86481 0.27115 0.87166 0.0
C127 C 0.84082 0.28688 0.86731 0.0
C128 C 0.90093 0.2881 0.85638 0.0
C129 C 0.91379 0.3212 0.83645 0.0
C130 C 0.88959 0.33656 0.83187 0.0
C131 C 0.85365 0.31978 0.84725 0.0
C132 C 0.95165 0.34003 0.81929 0.0
C133 C 0.98215 0.3378 0.83014 0.0
C134 C 0.0204 0.35885 0.81378 0.0
C135 C 0.05338 0.37005 0.83318 0.0
C136 C 0.08988 0.39111 0.81892 0.0
C137 C 0.09416 0.40101 0.78477 0.0
H138 H -0.00011 0.35856 0.76335 0.0
C139 C 0.06112 0.38872 0.76508 0.0
C140 C 0.02463 0.36782 0.77938 0.0
H141 H 0.06339 0.39551 0.73862 0.0
H142 H 0.85564 0.24564 0.88677 0.0
H143 H 0.91827 0.27475 0.85977 0.0
H144 H 0.89861 0.36185 0.81647 0.0
H145 H 0.83585 0.33255 0.8432 0.0
H146 H 0.95506 0.35849 0.79816 0.0
H147 H 0.98 0.32245 0.85315 0.0
H148 H 0.05095 0.36316 0.85964 0.0
H149 H 0.11472 0.39987 0.83477 0.0
C150 C 0.55116 0.875 0.04195 0.0
C151 C 0.57189 0.85888 0.05598 0.0
C152 C 0.57018 0.91223 0.02893 0.0
C153 C 0.61049 0.93445 0.02995 0.0
C154 C 0.63121 0.91808 0.0435 0.0
C155 C 0.61216 0.88076 0.05649 0.0
C156 C 0.63177 0.97418 0.01624 0.0
C157 C 0.61617 0.99693 0.0136 0.0
C158 C 0.63637 0.03656 -0.00041 0.0
C159 C 0.62099 0.06047 0.00599 0.0
C160 C 0.63774 0.09732 0.99232 0.0
C161 C 0.67031 0.1112 0.97174 0.0
H162 H 0.68142 0.0328 0.97266 0.0
C163 C 0.68598 0.08748 0.96539 0.0
C164 C 0.66913 0.05048 0.97903 0.0
H165 H 0.71091 0.09722 0.94943 0.0
H166 H 0.52013 0.85878 0.04078 0.0
H167 H 0.55309 0.92307 0.01759 0.0
H168 H 0.66226 0.93433 0.04428 0.0
H169 H 0.62901 0.86913 0.06698 0.0
H170 H 0.66161 0.9853 0.00956 0.0
H171 H 0.58742 0.98669 0.02318 0.0
H172 H 0.59569 0.05054 0.02153 0.0
H173 H 0.62489 0.1148 0.99774 0.0
C174 C 0.72399 0.59569 0.22922 0.0
C175 C 0.75108 0.59403 0.20813 0.0
C176 C 0.70393 0.61382 0.21863 0.0
C177 C 0.71031 0.63045 0.18653 0.0
C178 C 0.73816 0.62971 0.16587 0.0
C179 C 0.75822 0.61157 0.17646 0.0
C180 C 0.68882 0.64905 0.17387 0.0
C181 C 0.65352 0.63967 0.18488 0.0
C182 C 0.63077 0.65645 0.1712 0.0
C183 C 0.59078 0.63595 0.17527 0.0
C184 C 0.56812 0.65037 0.16275 0.0
C185 C 0.58497 0.68587 0.14604 0.0
H186 H 0.67856 0.70965 0.15218 0.0
C187 C 0.62507 0.7068 0.14242 0.0
C188 C 0.64778 0.69233 0.15493 0.0
H189 H 0.63899 0.73443 0.12995 0.0
H190 H 0.7181 0.58284 0.25394 0.0
H191 H 0.68377 0.61496 0.23584 0.0
H192 H 0.74397 0.64264 0.14119 0.0
H193 H 0.77906 0.61102 0.15966 0.0
H194 H 0.70157 0.66917 0.15327 0.0
H195 H 0.63943 0.61694 0.20329 0.0
H196 H 0.5769 0.60843 0.18794 0.0
H197 H 0.53733 0.63357 0.16613 0.0
C198 C 0.12893 0.71618 0.37953 0.0
C199 C 0.16168 0.74305 0.36189 0.0
C200 C 0.09305 0.69769 0.36395 0.0
C201 C 0.0891 0.70582 0.33036 0.0
C202 C 0.12187 0.73258 0.31276 0.0
C203 C 0.15773 0.75118 0.32837 0.0
C204 C 0.05181 0.68559 0.31236 0.0
C205 C 0.01755 0.67047 0.32793 0.0
C206 C 0.97986 0.64848 0.31063 0.0
C207 C 0.9471 0.6259 0.33017 0.0
C208 C 0.91116 0.60399 0.31524 0.0
C209 C 0.90706 0.60422 0.2803 0.0
H210 H -0.00042 0.66719 0.25954 0.0
C211 C 0.9396 0.62738 0.2607 0.0
C212 C 0.97557 0.6494 0.27565 0.0
H213 H 0.93734 0.62854 0.23374 0.0
H214 H 0.13104 0.709 0.40531 0.0
H215 H 0.06881 0.67634 0.37811 0.0
H216 H 0.11973 0.73913 0.28678 0.0
H217 H 0.1824 0.77159 0.314 0.0
H218 H 0.0532 0.68341 0.28539 0.0
H219 H 0.01677 0.6735 0.3549 0.0
H220 H 0.94936 0.62479 0.35715 0.0
H221 H 0.88666 0.5866 0.33112 0.0
C222 C 0.55526 0.28665 0.48249 0.0
C223 C 0.52997 0.29487 0.50006 0.0
C224 C 0.57645 0.30941 0.45535 0.0
C225 C 0.57293 0.34106 0.44531 0.0
C226 C 0.54723 0.34885 0.4626 0.0
C227 C 0.52611 0.32617 0.48973 0.0
C228 C 0.59466 0.36603 0.41654 0.0
C229 C 0.6281 0.37019 0.40529 0.0
C230 C 0.65036 0.39641 0.37734 0.0
C231 C 0.69004 0.41059 0.37567 0.0
C232 C 0.71209 0.43568 0.35006 0.0
C233 C 0.69483 0.44689 0.32532 0.0
H234 H 0.60228 0.39569 0.35182 0.0
C235 C 0.65499 0.43206 0.32654 0.0
C236 C 0.63295 0.407 0.35217 0.0
H237 H 0.64072 0.43978 0.30766 0.0
H238 H 0.55863 0.26252 0.48961 0.0
H239 H 0.59499 0.30163 0.44207 0.0
H240 H 0.54366 0.37281 0.45526 0.0
H241 H 0.50676 0.33323 0.5026 0.0
H242 H 0.58363 0.38329 0.40561 0.0
H243 H 0.64104 0.35576 0.41821 0.0
H244 H 0.70416 0.40261 0.39451 0.0
H245 H 0.74269 0.44638 0.34978 0.0
C246 C 0.25377 0.70258 0.52723 0.0
C247 C 0.22762 0.68517 0.5008 0.0
C248 C 0.25255 0.68123 0.55533 0.0
C249 C 0.22492 0.64194 0.55773 0.0
C250 C 0.19911 0.62455 0.53112 0.0
C251 C 0.20031 0.64589 0.50305 0.0
C252 C 0.22286 0.61779 0.58681 0.0
C253 C 0.23713 0.63202 0.61738 0.0
C254 C 0.23597 0.60792 0.64616 0.0
C255 C 0.26294 0.62528 0.67197 0.0
C256 C 0.26335 0.60378 0.69929 0.0
C257 C 0.23647 0.56438 0.70162 0.0
H258 H 0.18638 0.55433 0.63012 0.0
C259 C 0.20885 0.5471 0.67621 0.0
C260 C 0.20851 0.56861 0.6488 0.0
H261 H 0.1875 0.51688 0.6774 0.0
H262 H 0.27541 0.73271 0.52617 0.0
H263 H 0.27387 0.6956 0.57464 0.0
H264 H 0.17776 0.5943 0.53209 0.0
H265 H 0.17982 0.63151 0.48308 0.0
H266 H 0.20882 0.58705 0.58257 0.0
H267 H 0.25119 0.66274 0.62166 0.0
H268 H 0.28418 0.65556 0.67079 0.0
H269 H 0.2849 0.61808 0.7185 0.0
C270 C 0.6502 0.25419 0.84004 0.0
C271 C 0.66265 0.22773 0.84598 0.0
C272 C 0.62784 0.25046 0.81198 0.0
C273 C 0.61759 0.22022 0.78909 0.0
C274 C 0.62935 0.19335 0.79546 0.0
C275 C 0.65178 0.19713 0.82347 0.0
C276 C 0.59392 0.21512 0.75886 0.0
C277 C 0.59219 0.2442 0.74375 0.0
C278 C 0.56851 0.23931 0.71355 0.0
C279 C 0.55817 0.26716 0.70672 0.0
C280 C 0.53583 0.26376 0.67876 0.0
C281 C 0.52355 0.2325 0.65677 0.0
H282 H 0.56521 0.18694 0.69473 0.0
C283 C 0.53449 0.20497 0.66317 0.0
C284 C 0.55682 0.20836 0.69117 0.0
H285 H 0.52583 0.18073 0.64654 0.0
H286 H 0.65775 0.27789 0.85706 0.0
H287 H 0.61826 0.27102 0.80873 0.0
H288 H 0.62153 0.16955 0.77847 0.0
H289 H 0.66071 0.17611 0.82738 0.0
H290 H 0.57796 0.18634 0.74862 0.0
H291 H 0.60831 0.27297 0.75402 0.0
H292 H 0.56707 0.2915 0.7233 0.0
H293 H 0.52806 0.28559 0.6745 0.0
C294 C 0.31205 0.5131 0.87575 0.0
C295 C 0.29069 0.52313 0.85443 0.0
C296 C 0.33361 0.53736 0.902 0.0
C297 C 0.33436 0.57233 0.90739 0.0
C298 C 0.31282 0.58216 0.88619 0.0
C299 C 0.2914 0.55799 0.8599 0.0
C300 C 0.35589 0.59851 0.93556 0.0
C301 C 0.38656 0.59968 0.9503 0.0
C302 C 0.408 0.62623 0.97829 0.0
C303 C 0.44663 0.63709 0.98327 0.0
C304 C 0.46769 0.6619 0.00938 0.0
C305 C 0.45039 0.67606 0.03136 0.0
H306 H 0.36049 0.6313 0.99832 0.0
C307 C 0.41154 0.66469 0.02674 0.0
C308 C 0.39053 0.63999 0.00057 0.0
H309 H 0.39723 0.67478 0.0434 0.0
H310 H 0.31192 0.48632 0.87237 0.0
H311 H 0.34886 0.52814 0.91835 0.0
H312 H 0.31261 0.60873 0.8899 0.0
H313 H 0.27519 0.56658 0.84403 0.0
H314 H 0.34706 0.61882 0.94325 0.0
H315 H 0.39776 0.58205 0.94055 0.0
H316 H 0.4607 0.62662 0.96672 0.0
H317 H 0.49751 0.66991 0.01234 0.0
C318 C 0.7889 0.31074 0.02388 0.0
C319 C 0.7592 0.29213 0.0004 0.0
C320 C 0.78652 0.33371 0.04899 0.0
C321 C 0.75436 0.33869 0.05104 0.0
C322 C 0.72466 0.3199 0.02764 0.0
C323 C 0.72708 0.29705 0.00251 0.0
C324 C 0.74987 0.36177 0.0779 0.0
C325 C 0.77954 0.39033 0.0946 0.0
C326 C 0.77498 0.41294 0.12194 0.0
C327 C 0.80535 0.43272 0.14458 0.0
C328 C 0.80227 0.45398 0.17087 0.0
C329 C 0.76873 0.45611 0.17501 0.0
H330 H 0.71811 0.40226 0.10822 0.0
C331 C 0.7386 0.43698 0.15201 0.0
C332 C 0.74171 0.41578 0.12568 0.0
H333 H 0.71255 0.43842 0.15424 0.0
H334 H 0.8139 0.3073 0.02311 0.0
H335 H 0.80952 0.34663 0.06709 0.0
H336 H 0.69942 0.32294 0.02877 0.0
H337 H 0.70361 0.28301 0.9849 0.0
H338 H 0.72077 0.35476 0.08372 0.0
H339 H 0.8086 0.39729 0.08861 0.0
H340 H 0.83146 0.4314 0.14217 0.0
H341 H 0.82612 0.46854 0.18804 0.0
C342 C 0.34612 0.77827 0.34531 0.0
C343 C 0.30953 0.74596 0.34988 0.0
C344 C 0.37016 0.77908 0.31963 0.0
C345 C 0.35813 0.74743 0.29799 0.0
C346 C 0.32151 0.71529 0.30254 0.0
C347 C 0.29756 0.71444 0.32826 0.0
C348 C 0.38206 0.74734 0.26962 0.0
C349 C 0.42064 0.76908 0.26874 0.0
C350 C 0.44477 0.76936 0.24028 0.0
C351 C 0.48259 0.80009 0.23769 0.0
C352 C 0.50644 0.80168 0.21154 0.0
C353 C 0.49306 0.7724 0.18737 0.0
H354 H 0.40317 0.71484 0.2177 0.0
C355 C 0.45539 0.7414 0.19007 0.0
C356 C 0.43155 0.73974 0.21628 0.0
H357 H 0.44431 0.71815 0.17206 0.0
H358 H 0.35609 0.80319 0.36135 0.0
H359 H 0.39763 0.80492 0.31641 0.0
H360 H 0.31136 0.69064 0.28612 0.0
H361 H 0.26948 0.68915 0.33095 0.0
H362 H 0.36688 0.72816 0.249 0.0
H363 H 0.43558 0.788 0.28961 0.0
H364 H 0.49372 0.82317 0.25588 0.0
H365 H 0.53536 0.82592 0.21028 0.0
loop_
_geom_bond_atom_site_label_1
_geom_bond_atom_site_label_2
_geom_bond_distance
_geom_bond_site_symmetry_2
_ccdc_geom_bond_type
C0 O1 1.160 . S
C0 O7 1.185 . S
O1 C0 1.160 . S
O2 Zn3 1.899 . S
O2 C10 1.284 . S
Zn3 O2 1.899 . S
Zn3 O4 2.032 . S
Zn3 O7 2.086 . S
Zn3 O12 1.977 . S
O4 Zn3 2.032 . S
O4 C8 1.278 . S
C5 O6 1.203 . S
C5 O12 1.267 . S
O6 C5 1.203 . S
O7 C0 1.185 . S
O7 Zn3 2.086 . S
C8 O4 1.278 . S
C8 O9 1.211 . S
O9 C8 1.211 . S
C10 O2 1.284 . S
C10 O11 1.273 . S
O11 C10 1.273 . S
O12 Zn3 1.977 . S
O12 C5 1.267 . S
C13 O14 1.160 . S
C13 O20 1.185 . S
O14 C13 1.160 . S
O15 Zn16 1.899 . S
O15 C23 1.284 . S
Zn16 O15 1.899 . S
Zn16 O17 2.032 . S
Zn16 O20 2.086 . S
Zn16 O25 1.977 . S
O17 Zn16 2.032 . S
O17 C21 1.278 . S
C18 O19 1.203 . S
C18 O25 1.267 . S
O19 C18 1.203 . S
O20 C13 1.185 . S
O20 Zn16 2.086 . S
C21 O17 1.278 . S
C21 O22 1.211 . S
O22 C21 1.211 . S
C23 O15 1.284 . S
C23 O24 1.273 . S
O24 C23 1.273 . S
O25 Zn16 1.977 . S
O25 C18 1.267 . S
C26 O27 1.160 . S
C26 O33 1.185 . S
O27 C26 1.160 . S
O28 Zn29 1.899 . S
O28 C36 1.284 . S
Zn29 O28 1.899 . S
Zn29 O30 2.032 . S
Zn29 O33 2.086 . S
Zn29 O38 1.977 . S
O30 Zn29 2.032 . S
O30 C34 1.278 . S
C31 O32 1.203 . S
C31 O38 1.267 . S
O32 C31 1.203 . S
O33 C26 1.185 . S
O33 Zn29 2.086 . S
C34 O30 1.278 . S
C34 O35 1.211 . S
O35 C34 1.211 . S
C36 O28 1.284 . S
C36 O37 1.273 . S
O37 C36 1.273 . S
O38 Zn29 1.977 . S
O38 C31 1.267 . S
C39 O40 1.160 . S
C39 O46 1.185 . S
O40 C39 1.160 . S
O41 Zn42 1.899 . S
O41 C49 1.284 . S
Zn42 O41 1.899 . S
Zn42 O43 2.032 . S
Zn42 O46 2.086 . S
Zn42 O51 1.977 . S
O43 Zn42 2.032 . S
O43 C47 1.278 . S
C44 O45 1.203 . S
C44 O51 1.267 . S
O45 C44 1.203 . S
O46 C39 1.185 . S
O46 Zn42 2.086 . S
C47 O43 1.278 . S
C47 O48 1.211 . S
O48 C47 1.211 . S
C49 O41 1.284 . S
C49 O50 1.273 . S
O50 C49 1.273 . S
O51 Zn42 1.977 . S
O51 C44 1.267 . S
C52 O53 1.160 . S
C52 O59 1.185 . S
O53 C52 1.160 . S
O54 Zn55 1.899 . S
O54 C62 1.284 . S
Zn55 O54 1.899 . S
Zn55 O56 2.032 . S
Zn55 O59 2.086 . S
Zn55 O64 1.977 . S
O56 Zn55 2.032 . S
O56 C60 1.278 . S
C57 O58 1.203 . S
C57 O64 1.267 . S
O58 C57 1.203 . S
O59 C52 1.185 . S
O59 Zn55 2.086 . S
C60 O56 1.278 . S
C60 O61 1.211 . S
O61 C60 1.211 . S
C62 O54 1.284 . S
C62 O63 1.273 . S
O63 C62 1.273 . S
O64 Zn55 1.977 . S
O64 C57 1.267 . S
C65 O66 1.160 . S
C65 O72 1.185 . S
O66 C65 1.160 . S
O67 Zn68 1.899 . S
O67 C75 1.284 . S
Zn68 O67 1.899 . S
Zn68 O69 2.032 . S
Zn68 O72 2.086 . S
Zn68 O77 1.977 . S
O69 Zn68 2.032 . S
O69 C73 1.278 . S
C70 O71 1.203 . S
C70 O77 1.267 . S
O71 C70 1.203 . S
O72 C65 1.185 . S
O72 Zn68 2.086 . S
C73 O69 1.278 . S
C73 O74 1.211 . S
O74 C73 1.211 . S
C75 O67 1.284 . S
C75 O76 1.273 . S
O76 C75 1.273 . S
O77 Zn68 1.977 . S
O77 C70 1.267 . S
C78 C79 1.386 . S
C78 C80 1.383 . S
C78 H94 0.951 . S
C79 C78 1.386 . S
C79 C83 1.383 . S
C80 C78 1.383 . S
C80 C81 1.402 . S
C80 H95 0.951 . S
C81 C80 1.402 . S
C81 C82 1.375 . S
C81 C84 1.481 . S
C82 C81 1.375 . S
C82 C83 1.367 . S
C82 H96 0.951 . S
C83 C79 1.383 . S
C83 C82 1.367 . S
C83 H97 0.950 . S
C84 C81 1.481 . S
C84 C85 1.297 1_545 S
C84 H98 0.950 1_545 S
C85 C84 1.297 1_565 S
C85 C86 1.479 . S
C85 H99 0.950 1_565 S
C86 C85 1.479 . S
C86 C87 1.375 . S
C86 C92 1.404 . S
C87 C86 1.375 . S
C87 C88 1.369 . S
C87 H100 0.950 . S
C88 C87 1.369 . S
C88 C89 1.392 . S
C88 H101 0.951 . S
C89 C88 1.392 . S
C89 C91 1.384 . S
H90 C92 0.949 . S
C91 C89 1.384 . S
C91 C92 1.385 . S
C91 H93 0.950 . S
C92 C86 1.404 . S
C92 H90 0.949 . S
C92 C91 1.385 . S
H93 C91 0.950 . S
H94 C78 0.951 . S
H95 C80 0.951 . S
H96 C82 0.951 . S
H97 C83 0.950 . S
H98 C84 0.950 1_565 S
H99 C85 0.950 1_545 S
H100 C87 0.950 . S
H101 C88 0.951 . S
C102 C103 1.386 . S
C102 C104 1.383 . S
C102 H118 0.951 . S
C103 C102 1.386 . S
C103 C107 1.383 . S
C104 C102 1.383 . S
C104 C105 1.402 . S
C104 H119 0.951 . S
C105 C104 1.402 . S
C105 C106 1.375 . S
C105 C108 1.481 . S
C106 C105 1.375 . S
C106 C107 1.367 . S
C106 H120 0.951 . S
C107 C103 1.383 . S
C107 C106 1.367 . S
C107 H121 0.950 . S
C108 C105 1.481 . S
C108 C109 1.297 . S
C108 H122 0.950 . S
C109 C108 1.297 . S
C109 C110 1.479 . S
C109 H123 0.950 . S
C110 C109 1.479 . S
C110 C111 1.375 . S
C110 C116 1.404 . S
C111 C110 1.375 . S
C111 C112 1.369 . S
C111 H124 0.950 . S
C112 C111 1.369 . S
C112 C113 1.392 . S
C112 H125 0.951 . S
C113 C112 1.392 . S
C113 C115 1.384 . S
H114 C116 0.949 . S
C115 C113 1.384 . S
C115 C116 1.385 . S
C115 H117 0.950 . S
C116 C110 1.404 . S
C116 H114 0.949 . S
C116 C115 1.385 . S
H117 C115 0.950 . S
H118 C102 0.951 . S
H119 C104 0.951 . S
H120 C106 0.951 . S
H121 C107 0.950 . S
H122 C108 0.950 . S
H123 C109 0.950 . S
H124 C111 0.950 . S
H125 C112 0.951 . S
C126 C127 1.386 . S
C126 C128 1.383 . S
C126 H142 0.951 . S
C127 C126 1.386 . S
C127 C131 1.383 . S
C128 C126 1.383 . S
C128 C129 1.402 . S
C128 H143 0.951 . S
C129 C128 1.402 . S
C129 C130 1.375 . S
C129 C132 1.481 . S
C130 C129 1.375 . S
C130 C131 1.367 . S
C130 H144 0.951 . S
C131 C127 1.383 . S
C131 C130 1.367 . S
C131 H145 0.950 . S
C132 C129 1.481 . S
C132 C133 1.290 1_655 S
C132 H146 0.950 . S
C133 C132 1.290 1_455 S
C133 C134 1.485 . S
C133 H147 0.952 1_455 S
C134 C133 1.485 . S
C134 C135 1.375 . S
C134 C140 1.404 . S
C135 C134 1.375 . S
C135 C136 1.369 . S
C135 H148 0.950 . S
C136 C135 1.369 . S
C136 C137 1.392 . S
C136 H149 0.951 . S
C137 C136 1.392 . S
C137 C139 1.384 . S
H138 C140 0.949 . S
C139 C137 1.384 . S
C139 C140 1.385 . S
C139 H141 0.950 . S
C140 C134 1.404 . S
C140 H138 0.949 . S
C140 C139 1.385 . S
H141 C139 0.950 . S
H142 C126 0.951 . S
H143 C128 0.951 . S
H144 C130 0.951 . S
H145 C131 0.950 . S
H146 C132 0.950 . S
H147 C133 0.952 1_655 S
H148 C135 0.950 . S
H149 C136 0.951 . S
C150 C151 1.386 . S
C150 C152 1.383 . S
C150 H166 0.951 . S
C151 C150 1.386 . S
C151 C155 1.383 . S
C152 C150 1.383 . S
C152 C153 1.402 . S
C152 H167 0.951 1_554 S
C153 C152 1.402 . S
C153 C154 1.375 . S
C153 C156 1.481 . S
C154 C153 1.375 . S
C154 C155 1.367 . S
C154 H168 0.951 . S
C155 C151 1.383 . S
C155 C154 1.367 . S
C155 H169 0.950 . S
C156 C153 1.481 . S
C156 C157 1.297 1_565 S
C156 H170 0.950 1_565 S
C157 C156 1.297 1_545 S
C157 C158 1.479 1_554 S
C157 H171 0.950 1_544 S
C158 C157 1.479 1_556 S
C158 C159 1.375 . S
C158 C164 1.404 1_556 S
C159 C158 1.375 . S
C159 C160 1.369 . S
C159 H172 0.950 . S
C160 C159 1.369 . S
C160 C161 1.392 . S
C160 H173 0.951 . S
C161 C160 1.392 . S
C161 C163 1.384 . S
H162 C164 0.949 . S
C163 C161 1.384 . S
C163 C164 1.385 1_556 S
C163 H165 0.950 1_556 S
C164 C158 1.404 1_554 S
C164 H162 0.949 . S
C164 C163 1.385 1_554 S
H165 C163 0.950 1_554 S
H166 C150 0.951 . S
H167 C152 0.951 1_556 S
H168 C154 0.951 . S
H169 C155 0.950 . S
H170 C156 0.950 1_545 S
H171 C157 0.950 1_566 S
H172 C159 0.950 . S
H173 C160 0.951 . S
C174 C175 1.386 . S
C174 C176 1.383 . S
C174 H190 0.951 . S
C175 C174 1.386 . S
C175 C179 1.383 . S
C176 C174 1.383 . S
C176 C177 1.402 . S
C176 H191 0.951 . S
C177 C176 1.402 . S
C177 C178 1.375 . S
C177 C180 1.481 . S
C178 C177 1.375 . S
C178 C179 1.367 . S
C178 H192 0.951 . S
C179 C175 1.383 . S
C179 C178 1.367 . S
C179 H193 0.950 . S
C180 C177 1.481 . S
C180 C181 1.297 . S
C180 H194 0.950 . S
C181 C180 1.297 . S
C181 C182 1.479 . S
C181 H195 0.950 . S
C182 C181 1.479 . S
C182 C183 1.375 . S
C182 C188 1.404 . S
C183 C182 1.375 . S
C183 C184 1.369 . S
C183 H196 0.950 . S
C184 C183 1.369 . S
C184 C185 1.392 . S
C184 H197 0.951 . S
C185 C184 1.392 . S
C185 C187 1.384 . S
H186 C188 0.949 . S
C187 C185 1.384 . S
C187 C188 1.385 . S
C187 H189 0.950 . S
C188 C182 1.404 . S
C188 H186 0.949 . S
C188 C187 1.385 . S
H189 C187 0.950 . S
H190 C174 0.951 . S
H191 C176 0.951 . S
H192 C178 0.951 . S
H193 C179 0.950 . S
H194 C180 0.950 . S
H195 C181 0.950 . S
H196 C183 0.950 . S
H197 C184 0.951 . S
C198 C199 1.386 . S
C198 C200 1.383 . S
C198 H214 0.951 . S
C199 C198 1.386 . S
C199 C203 1.383 . S
C200 C198 1.383 . S
C200 C201 1.402 . S
C200 H215 0.951 . S
C201 C200 1.402 . S
C201 C202 1.375 . S
C201 C204 1.481 . S
C202 C201 1.375 . S
C202 C203 1.367 . S
C202 H216 0.951 . S
C203 C199 1.383 . S
C203 C202 1.367 . S
C203 H217 0.950 . S
C204 C201 1.481 . S
C204 C205 1.297 1_455 S
C204 H218 0.950 . S
C205 C204 1.297 1_655 S
C205 C206 1.479 . S
C205 H219 0.950 . S
C206 C205 1.479 . S
C206 C207 1.375 . S
C206 C212 1.404 . S
C207 C206 1.375 . S
C207 C208 1.369 . S
C207 H220 0.950 . S
C208 C207 1.369 . S
C208 C209 1.392 . S
C208 H221 0.951 . S
C209 C208 1.392 . S
C209 C211 1.384 . S
H210 C212 0.949 . S
C211 C209 1.384 . S
C211 C212 1.385 . S
C211 H213 0.950 . S
C212 C206 1.404 . S
C212 H210 0.949 . S
C212 C211 1.385 . S
H213 C211 0.950 . S
H214 C198 0.951 . S
H215 C200 0.951 . S
H216 C202 0.951 . S
H217 C203 0.950 . S
H218 C204 0.950 . S
H219 C205 0.950 . S
H220 C207 0.950 . S
H221 C208 0.951 . S
C222 C223 1.386 . S
C222 C224 1.383 . S
C222 H238 0.951 . S
C223 C222 1.386 . S
C223 C227 1.383 . S
C224 C222 1.383 . S
C224 C225 1.402 . S
C224 H239 0.951 . S
C225 C224 1.402 . S
C225 C226 1.375 . S
C225 C228 1.481 . S
C226 C225 1.375 . S
C226 C227 1.367 . S
C226 H240 0.951 . S
C227 C223 1.383 . S
C227 C226 1.367 . S
C227 H241 0.950 . S
C228 C225 1.481 . S
C228 C229 1.297 . S
C228 H242 0.950 . S
C229 C228 1.297 . S
C229 C230 1.479 . S
C229 H243 0.950 . S
C230 C229 1.479 . S
C230 C231 1.375 . S
C230 C236 1.404 . S
C231 C230 1.375 . S
C231 C232 1.369 . S
C231 H244 0.950 . S
C232 C231 1.369 . S
C232 C233 1.392 . S
C232 H245 0.951 . S
C233 C232 1.392 . S
C233 C235 1.384 . S
H234 C236 0.949 . S
C235 C233 1.384 . S
C235 C236 1.385 . S
C235 H237 0.950 . S
C236 C230 1.404 . S
C236 H234 0.949 . S
C236 C235 1.385 . S
H237 C235 0.950 . S
H238 C222 0.951 . S
H239 C224 0.951 . S
H240 C226 0.951 . S
H241 C227 0.950 . S
H242 C228 0.950 . S
H243 C229 0.950 . S
H244 C231 0.950 . S
H245 C232 0.951 . S
C246 C247 1.386 . S
C246 C248 1.383 . S
C246 H262 0.951 . S
C247 C246 1.386 . S
C247 C251 1.383 . S
C248 C246 1.383 . S
C248 C249 1.402 . S
C248 H263 0.951 . S
C249 C248 1.402 . S
C249 C250 1.375 . S
C249 C252 1.481 . S
C250 C249 1.375 . S
C250 C251 1.367 . S
C250 H264 0.951 . S
C251 C247 1.383 . S
C251 C250 1.367 . S
C251 H265 0.950 . S
C252 C249 1.481 . S
C252 C253 1.297 . S
C252 H266 0.950 . S
C253 C252 1.297 . S
C253 C254 1.479 . S
C253 H267 0.950 . S
C254 C253 1.479 . S
C254 C255 1.375 . S
C254 C260 1.404 . S
C255 C254 1.375 . S
C255 C256 1.369 . S
C255 H268 0.950 . S
C256 C255 1.369 . S
C256 C257 1.392 . S
C256 H269 0.951 . S
C257 C256 1.392 . S
C257 C259 1.384 . S
H258 C260 0.949 . S
C259 C257 1.384 . S
C259 C260 1.385 . S
C259 H261 0.950 . S
C260 C254 1.404 . S
C260 H258 0.949 . S
C260 C259 1.385 . S
H261 C259 0.950 . S
H262 C246 0.951 . S
H263 C248 0.951 . S
H264 C250 0.951 . S
H265 C251 0.950 . S
H266 C252 0.950 . S
H267 C253 0.950 . S
H268 C255 0.950 . S
H269 C256 0.951 . S
C270 C271 1.386 . S
C270 C272 1.383 . S
C270 H286 0.951 . S
C271 C270 1.386 . S
C271 C275 1.383 . S
C272 C270 1.383 . S
C272 C273 1.402 . S
C272 H287 0.951 . S
C273 C272 1.402 . S
C273 C274 1.375 . S
C273 C276 1.481 . S
C274 C273 1.375 . S
C274 C275 1.367 . S
C274 H288 0.951 . S
C275 C271 1.383 . S
C275 C274 1.367 . S
C275 H289 0.950 . S
C276 C273 1.481 . S
C276 C277 1.297 . S
C276 H290 0.950 . S
C277 C276 1.297 . S
C277 C278 1.479 . S
C277 H291 0.950 . S
C278 C277 1.479 . S
C278 C279 1.375 . S
C278 C284 1.404 . S
C279 C278 1.375 . S
C279 C280 1.369 . S
C279 H292 0.950 . S
C280 C279 1.369 . S
C280 C281 1.392 . S
C280 H293 0.951 . S
C281 C280 1.392 . S
C281 C283 1.384 . S
H282 C284 0.949 . S
C283 C281 1.384 . S
C283 C284 1.385 . S
C283 H285 0.950 . S
C284 C278 1.404 . S
C284 H282 0.949 . S
C284 C283 1.385 . S
H285 C283 0.950 . S
H286 C270 0.951 . S
H287 C272 0.951 . S
H288 C274 0.951 . S
H289 C275 0.950 . S
H290 C276 0.950 . S
H291 C277 0.950 . S
H292 C279 0.950 . S
H293 C280 0.951 . S
C294 C295 1.386 . S
C294 C296 1.383 . S
C294 H310 0.951 . S
C295 C294 1.386 . S
C295 C299 1.383 . S
C296 C294 1.383 . S
C296 C297 1.402 . S
C296 H311 0.951 . S
C297 C296 1.402 . S
C297 C298 1.375 . S
C297 C300 1.481 . S
C298 C297 1.375 . S
C298 C299 1.367 . S
C298 H312 0.951 . S
C299 C295 1.383 . S
C299 C298 1.367 . S
C299 H313 0.950 . S
C300 C297 1.481 . S
C300 C301 1.297 . S
C300 H314 0.950 . S
C301 C300 1.297 . S
C301 C302 1.479 . S
C301 H315 0.950 . S
C302 C301 1.479 . S
C302 C303 1.375 . S
C302 C308 1.404 . S
C303 C302 1.375 . S
C303 C304 1.369 . S
C303 H316 0.950 . S
C304 C303 1.369 . S
C304 C305 1.392 1_556 S
C304 H317 0.951 . S
C305 C304 1.392 1_554 S
C305 C307 1.384 . S
H306 C308 0.949 . S
C307 C305 1.384 . S
C307 C308 1.385 1_554 S
C307 H309 0.950 . S
C308 C302 1.404 . S
C308 H306 0.949 . S
C308 C307 1.385 1_556 S
H309 C307 0.950 . S
H310 C294 0.951 . S
H311 C296 0.951 . S
H312 C298 0.951 . S
H313 C299 0.950 . S
H314 C300 0.950 . S
H315 C301 0.950 . S
H316 C303 0.950 . S
H317 C304 0.951 . S
C318 C319 1.384 1_556 S
C318 C320 1.383 1_556 S
C318 H334 0.951 . S
C319 C318 1.384 1_554 S
C319 C323 1.405 . S
C320 C318 1.383 1_554 S
C320 C321 1.402 . S
C320 H335 0.951 . S
C321 C320 1.402 . S
C321 C322 1.375 . S
C321 C324 1.481 . S
C322 C321 1.375 . S
C322 C323 1.367 . S
C322 H336 0.951 . S
C323 C319 1.405 . S
C323 C322 1.367 . S
C323 H337 0.950 . S
C324 C321 1.481 . S
C324 C325 1.297 . S
C324 H338 0.950 . S
C325 C324 1.297 . S
C325 C326 1.479 . S
C325 H339 0.950 . S
C326 C325 1.479 . S
C326 C327 1.375 . S
C326 C332 1.404 . S
C327 C326 1.375 . S
C327 C328 1.369 . S
C327 H340 0.950 . S
C328 C327 1.369 . S
C328 C329 1.392 . S
C328 H341 0.951 . S
C329 C328 1.392 . S
C329 C331 1.384 . S
H330 C332 0.949 . S
C331 C329 1.384 . S
C331 C332 1.385 . S
C331 H333 0.950 . S
C332 C326 1.404 . S
C332 H330 0.949 . S
C332 C331 1.385 . S
H333 C331 0.950 . S
H334 C318 0.951 . S
H335 C320 0.951 . S
H336 C322 0.951 . S
H337 C323 0.950 . S
H338 C324 0.950 . S
H339 C325 0.950 . S
H340 C327 0.950 . S
H341 C328 0.951 . S
C342 C343 1.386 . S
C342 C344 1.383 . S
C342 H358 0.951 . S
C343 C342 1.386 . S
C343 C347 1.383 . S
C344 C342 1.383 . S
C344 C345 1.402 . S
C344 H359 0.951 . S
C345 C344 1.402 . S
C345 C346 1.375 . S
C345 C348 1.481 . S
C346 C345 1.375 . S
C346 C347 1.367 . S
C346 H360 0.951 . S
C347 C343 1.383 . S
C347 C346 1.367 . S
C347 H361 0.950 . S
C348 C345 1.481 . S
C348 C349 1.297 . S
C348 H362 0.950 . S
C349 C348 1.297 . S
C349 C350 1.479 . S
C349 H363 0.950 . S
C350 C349 1.479 . S
C350 C351 1.375 . S
C350 C356 1.404 . S
C351 C350 1.375 . S
C351 C352 1.369 . S
C351 H364 0.950 . S
C352 C351 1.369 . S
C352 C353 1.392 . S
C352 H365 0.951 . S
C353 C352 1.392 . S
C353 C355 1.384 . S
H354 C356 0.949 . S
C355 C353 1.384 . S
C355 C356 1.385 . S
C355 H357 0.950 . S
C356 C350 1.404 . S
C356 H354 0.949 . S
C356 C355 1.385 . S
H357 C355 0.950 . S
H358 C342 0.951 . S
H359 C344 0.951 . S
H360 C346 0.951 . S
H361 C347 0.950 . S
H362 C348 0.950 . S
H363 C349 0.950 . S
H364 C351 0.950 . S
H365 C352 0.951 . S
C79 C5 1.409 . S
C89 C65 1.381 . S
C103 C0 1.367 . S
C113 C18 1.362 . S
C127 C31 1.374 . S
C137 C13 1.380 . S
C151 C44 1.407 . S
C161 C26 1.376 . S
C175 C57 1.399 . S
C185 C39 1.421 . S
C199 C70 1.384 . S
C209 C52 1.402 . S
C223 C10 1.531 . S
C233 C60 1.467 . S
C247 C73 1.486 . S
C257 C23 1.504 . S
C271 C36 1.529 . S
C281 C8 1.526 . S
C295 C21 1.524 . S
C305 C49 1.523 . S
C319 C34 1.502 1_554 S
C329 C62 1.501 . S
C343 C75 1.513 . S
C353 C47 1.526 . S
