# Generated by pormake.
# Topology uma, (4)-cn, num edge types: 1
# Building blocks:
#     Node 0, Type 0, BuildingBlock: NAWXER_clean_sbu_0, # of connection points: 4
#     Node 1, Type 0, BuildingBlock: NAWXER_clean_sbu_0, # of connection points: 4
#     Node 2, Type 0, BuildingBlock: NAWXER_clean_sbu_0, # of connection points: 4
#     Node 3, Type 0, BuildingBlock: NAWXER_clean_sbu_0, # of connection points: 4
#     Node 4, Type 0, BuildingBlock: NAWXER_clean_sbu_0, # of connection points: 4
#     Node 5, Type 0, BuildingBlock: NAWXER_clean_sbu_0, # of connection points: 4
#     Node 6, Type 0, BuildingBlock: NAWXER_clean_sbu_0, # of connection points: 4
#     Node 7, Type 0, BuildingBlock: NAWXER_clean_sbu_0, # of connection points: 4
#     Node 8, Type 0, BuildingBlock: NAWXER_clean_sbu_0, # of connection points: 4
#     Node 9, Type 0, BuildingBlock: NAWXER_clean_sbu_0, # of connection points: 4
#     Node 10, Type 0, BuildingBlock: NAWXER_clean_sbu_0, # of connection points: 4
#     Node 11, Type 0, BuildingBlock: NAWXER_clean_sbu_0, # of connection points: 4
#     Node 12, Type 0, BuildingBlock: NAWXER_clean_sbu_0, # of connection points: 4
#     Node 13, Type 0, BuildingBlock: NAWXER_clean_sbu_0, # of connection points: 4
#     Node 14, Type 0, BuildingBlock: NAWXER_clean_sbu_0, # of connection points: 4
#     Node 15, Type 0, BuildingBlock: NAWXER_clean_sbu_0, # of connection points: 4
#     Node 16, Type 0, BuildingBlock: NAWXER_clean_sbu_0, # of connection points: 4
#     Node 17, Type 0, BuildingBlock: NAWXER_clean_sbu_0, # of connection points: 4
#     Node 18, Type 0, BuildingBlock: NAWXER_clean_sbu_0, # of connection points: 4
#     Node 19, Type 0, BuildingBlock: NAWXER_clean_sbu_0, # of connection points: 4
#     Node 20, Type 0, BuildingBlock: NAWXER_clean_sbu_0, # of connection points: 4
#     Node 21, Type 0, BuildingBlock: NAWXER_clean_sbu_0, # of connection points: 4
#     Node 22, Type 0, BuildingBlock: NAWXER_clean_sbu_0, # of connection points: 4
#     Node 23, Type 0, BuildingBlock: NAWXER_clean_sbu_0, # of connection points: 4
#     Node 24, Type 0, BuildingBlock: NAWXER_clean_sbu_0, # of connection points: 4
#     Node 25, Type 0, BuildingBlock: NAWXER_clean_sbu_0, # of connection points: 4
#     Node 26, Type 0, BuildingBlock: NAWXER_clean_sbu_0, # of connection points: 4
#     Node 27, Type 0, BuildingBlock: NAWXER_clean_sbu_0, # of connection points: 4
#     Node 28, Type 0, BuildingBlock: NAWXER_clean_sbu_0, # of connection points: 4
#     Node 29, Type 0, BuildingBlock: NAWXER_clean_sbu_0, # of connection points: 4
#     Node 30, Type 0, BuildingBlock: NAWXER_clean_sbu_0, # of connection points: 4
#     Node 31, Type 0, BuildingBlock: NAWXER_clean_sbu_0, # of connection points: 4
#     Node 32, Type 0, BuildingBlock: NAWXER_clean_sbu_0, # of connection points: 4
#     Node 33, Type 0, BuildingBlock: NAWXER_clean_sbu_0, # of connection points: 4
#     Node 34, Type 0, BuildingBlock: NAWXER_clean_sbu_0, # of connection points: 4
#     Node 35, Type 0, BuildingBlock: NAWXER_clean_sbu_0, # of connection points: 4
#     Edge 36, Type (0, 0), BuildingBlock: AJUNOK_clean_linker_0, # of connection points: 2
#     Edge 37, Type (0, 0), BuildingBlock: AJUNOK_clean_linker_0, # of connection points: 2
#     Edge 38, Type (0, 0), BuildingBlock: AJUNOK_clean_linker_0, # of connection points: 2
#     Edge 39, Type (0, 0), BuildingBlock: AJUNOK_clean_linker_0, # of connection points: 2
#     Edge 40, Type (0, 0), BuildingBlock: AJUNOK_clean_linker_0, # of connection points: 2
#     Edge 41, Type (0, 0), BuildingBlock: AJUNOK_clean_linker_0, # of connection points: 2
#     Edge 42, Type (0, 0), BuildingBlock: AJUNOK_clean_linker_0, # of connection points: 2
#     Edge 43, Type (0, 0), BuildingBlock: AJUNOK_clean_linker_0, # of connection points: 2
#     Edge 44, Type (0, 0), BuildingBlock: AJUNOK_clean_linker_0, # of connection points: 2
#     Edge 45, Type (0, 0), BuildingBlock: AJUNOK_clean_linker_0, # of connection points: 2
#     Edge 46, Type (0, 0), BuildingBlock: AJUNOK_clean_linker_0, # of connection points: 2
#     Edge 47, Type (0, 0), BuildingBlock: AJUNOK_clean_linker_0, # of connection points: 2
#     Edge 48, Type (0, 0), BuildingBlock: AJUNOK_clean_linker_0, # of connection points: 2
#     Edge 49, Type (0, 0), BuildingBlock: AJUNOK_clean_linker_0, # of connection points: 2
#     Edge 50, Type (0, 0), BuildingBlock: AJUNOK_clean_linker_0, # of connection points: 2
#     Edge 51, Type (0, 0), BuildingBlock: AJUNOK_clean_linker_0, # of connection points: 2
#     Edge 52, Type (0, 0), BuildingBlock: AJUNOK_clean_linker_0, # of connection points: 2
#     Edge 53, Type (0, 0), BuildingBlock: AJUNOK_clean_linker_0, # of connection points: 2
#     Edge 54, Type (0, 0), BuildingBlock: AJUNOK_clean_linker_0, # of connection points: 2
#     Edge 55, Type (0, 0), BuildingBlock: AJUNOK_clean_linker_0, # of connection points: 2
#     Edge 56, Type (0, 0), BuildingBlock: AJUNOK_clean_linker_0, # of connection points: 2
#     Edge 57, Type (0, 0), BuildingBlock: AJUNOK_clean_linker_0, # of connection points: 2
#     Edge 58, Type (0, 0), BuildingBlock: AJUNOK_clean_linker_0, # of connection points: 2
#     Edge 59, Type (0, 0), BuildingBlock: AJUNOK_clean_linker_0, # of connection points: 2
#     Edge 60, Type (0, 0), BuildingBlock: AJUNOK_clean_linker_0, # of connection points: 2
#     Edge 61, Type (0, 0), BuildingBlock: AJUNOK_clean_linker_0, # of connection points: 2
#     Edge 62, Type (0, 0), BuildingBlock: AJUNOK_clean_linker_0, # of connection points: 2
#     Edge 63, Type (0, 0), BuildingBlock: AJUNOK_clean_linker_0, # of connection points: 2
#     Edge 64, Type (0, 0), BuildingBlock: AJUNOK_clean_linker_0, # of connection points: 2
#     Edge 65, Type (0, 0), BuildingBlock: AJUNOK_clean_linker_0, # of connection points: 2
#     Edge 66, Type (0, 0), BuildingBlock: AJUNOK_clean_linker_0, # of connection points: 2
#     Edge 67, Type (0, 0), BuildingBlock: AJUNOK_clean_linker_0, # of connection points: 2
#     Edge 68, Type (0, 0), BuildingBlock: AJUNOK_clean_linker_0, # of connection points: 2
#     Edge 69, Type (0, 0), BuildingBlock: AJUNOK_clean_linker_0, # of connection points: 2
#     Edge 70, Type (0, 0), BuildingBlock: AJUNOK_clean_linker_0, # of connection points: 2
#     Edge 71, Type (0, 0), BuildingBlock: AJUNOK_clean_linker_0, # of connection points: 2
#     Edge 72, Type (0, 0), BuildingBlock: AJUNOK_clean_linker_0, # of connection points: 2
#     Edge 73, Type (0, 0), BuildingBlock: AJUNOK_clean_linker_0, # of connection points: 2
#     Edge 74, Type (0, 0), BuildingBlock: AJUNOK_clean_linker_0, # of connection points: 2
#     Edge 75, Type (0, 0), BuildingBlock: AJUNOK_clean_linker_0, # of connection points: 2
#     Edge 76, Type (0, 0), BuildingBlock: AJUNOK_clean_linker_0, # of connection points: 2
#     Edge 77, Type (0, 0), BuildingBlock: AJUNOK_clean_linker_0, # of connection points: 2
#     Edge 78, Type (0, 0), BuildingBlock: AJUNOK_clean_linker_0, # of connection points: 2
#     Edge 79, Type (0, 0), BuildingBlock: AJUNOK_clean_linker_0, # of connection points: 2
#     Edge 80, Type (0, 0), BuildingBlock: AJUNOK_clean_linker_0, # of connection points: 2
#     Edge 81, Type (0, 0), BuildingBlock: AJUNOK_clean_linker_0, # of connection points: 2
#     Edge 82, Type (0, 0), BuildingBlock: AJUNOK_clean_linker_0, # of connection points: 2
#     Edge 83, Type (0, 0), BuildingBlock: AJUNOK_clean_linker_0, # of connection points: 2
#     Edge 84, Type (0, 0), BuildingBlock: AJUNOK_clean_linker_0, # of connection points: 2
#     Edge 85, Type (0, 0), BuildingBlock: AJUNOK_clean_linker_0, # of connection points: 2
#     Edge 86, Type (0, 0), BuildingBlock: AJUNOK_clean_linker_0, # of connection points: 2
#     Edge 87, Type (0, 0), BuildingBlock: AJUNOK_clean_linker_0, # of connection points: 2
#     Edge 88, Type (0, 0), BuildingBlock: AJUNOK_clean_linker_0, # of connection points: 2
#     Edge 89, Type (0, 0), BuildingBlock: AJUNOK_clean_linker_0, # of connection points: 2
#     Edge 90, Type (0, 0), BuildingBlock: AJUNOK_clean_linker_0, # of connection points: 2
#     Edge 91, Type (0, 0), BuildingBlock: AJUNOK_clean_linker_0, # of connection points: 2
#     Edge 92, Type (0, 0), BuildingBlock: AJUNOK_clean_linker_0, # of connection points: 2
#     Edge 93, Type (0, 0), BuildingBlock: AJUNOK_clean_linker_0, # of connection points: 2
#     Edge 94, Type (0, 0), BuildingBlock: AJUNOK_clean_linker_0, # of connection points: 2
#     Edge 95, Type (0, 0), BuildingBlock: AJUNOK_clean_linker_0, # of connection points: 2
#     Edge 96, Type (0, 0), BuildingBlock: AJUNOK_clean_linker_0, # of connection points: 2
#     Edge 97, Type (0, 0), BuildingBlock: AJUNOK_clean_linker_0, # of connection points: 2
#     Edge 98, Type (0, 0), BuildingBlock: AJUNOK_clean_linker_0, # of connection points: 2
#     Edge 99, Type (0, 0), BuildingBlock: AJUNOK_clean_linker_0, # of connection points: 2
#     Edge 100, Type (0, 0), BuildingBlock: AJUNOK_clean_linker_0, # of connection points: 2
#     Edge 101, Type (0, 0), BuildingBlock: AJUNOK_clean_linker_0, # of connection points: 2
#     Edge 102, Type (0, 0), BuildingBlock: AJUNOK_clean_linker_0, # of connection points: 2
#     Edge 103, Type (0, 0), BuildingBlock: AJUNOK_clean_linker_0, # of connection points: 2
#     Edge 104, Type (0, 0), BuildingBlock: AJUNOK_clean_linker_0, # of connection points: 2
#     Edge 105, Type (0, 0), BuildingBlock: AJUNOK_clean_linker_0, # of connection points: 2
#     Edge 106, Type (0, 0), BuildingBlock: AJUNOK_clean_linker_0, # of connection points: 2
#     Edge 107, Type (0, 0), BuildingBlock: AJUNOK_clean_linker_0, # of connection points: 2
# Relax obj value: 0.097
# Max RMSD: 0.105
# Mean RMSD: 0.098
data_MOF--net-uma--node1-NAWXER_clean_sbu_0--edge1-AJUNOK_clean_linker_0
_symmetry_space_group_name_H-M    P1
_symmetry_Int_Tables_number       1
_symmetry_cell_setting            triclinic
loop_
_symmetry_equiv_pos_as_xyz
'x, y, z'
_cell_length_a     55.292822
_cell_length_b     55.207321
_cell_length_c     29.401547
_cell_angle_alpha  90.079923
_cell_angle_beta   89.992156
_cell_angle_gamma 120.16363
loop_
_atom_site_label
_atom_site_type_symbol
_atom_site_fract_x
_atom_site_fract_y
_atom_site_fract_z
_atom_type_partial_charge
C0 C 0.13231 0.41747 0.09521 0.0
C1 C 0.12493 0.38381 0.9371 0.0
O2 O 0.14352 0.43657 0.06488 0.0
Zn3 Zn 0.14963 0.44125 0.99342 0.0
O4 O 0.12288 0.39188 0.08422 0.0
Zn5 Zn 0.13073 0.39822 0.0188 0.0
O6 O 0.17517 0.4188 0.01468 0.0
O7 O 0.19173 0.46121 0.9872 0.0
O8 O 0.11818 0.3686 0.97265 0.0
O9 O 0.13648 0.41041 0.94162 0.0
O10 O 0.12291 0.45581 0.98327 0.0
O11 O 0.10223 0.41236 0.00838 0.0
C12 C 0.19623 0.44212 1.00222 0.0
C13 C 0.10074 0.43379 0.99667 0.0
C14 C 0.68791 0.75442 0.93214 0.0
C15 C 0.65992 0.73023 0.0921 0.0
O16 O 0.66152 0.73979 0.93899 0.0
Zn17 Zn 0.6325 0.72288 0.99322 0.0
O18 O 0.70442 0.76276 0.96619 0.0
Zn19 Zn 0.67641 0.74661 0.01447 0.0
O20 O 0.66084 0.70346 1.00442 0.0
O21 O 0.61649 0.68124 0.98391 0.0
O22 O 0.68515 0.74586 0.07901 0.0
O23 O 0.63986 0.72235 0.06364 0.0
O24 O 0.6131 0.74546 0.98989 0.0
O25 O 0.65669 0.77136 0.01234 0.0
C26 C 0.63861 0.68063 0.99465 0.0
C27 C 0.63317 0.76934 1.00232 0.0
C28 C 0.30871 0.87685 0.98823 0.0
C29 C 0.39465 0.97336 0.97619 0.0
O30 O 0.30611 0.89771 1.0006 0.0
Zn31 Zn 0.32955 0.9424 1.0031 0.0
O32 O 0.33243 0.88184 0.97311 0.0
Zn33 Zn 0.35378 0.92416 0.97761 0.0
O34 O 0.35701 0.93234 0.04899 0.0
O35 O 0.33191 0.9517 0.06809 0.0
O36 O 0.39461 0.95097 0.96471 0.0
O37 O 0.37187 0.97183 0.98888 0.0
O38 O 0.31067 0.95305 0.95803 0.0
O39 O 0.33446 0.9356 0.92552 0.0
C40 C 0.34919 0.94378 0.07906 0.0
C41 C 0.31859 0.94622 0.92197 0.0
C42 C 0.44895 0.08747 0.01069 0.0
C43 C 0.45537 0.18209 1.00256 0.0
O44 O 0.4267 0.08808 1.00186 0.0
Zn45 Zn 0.41155 0.11591 0.99257 0.0
O46 O 0.47124 0.11028 0.02114 0.0
Zn47 Zn 0.45541 0.13607 0.01292 0.0
O48 O 0.42708 0.12448 0.06856 0.0
O49 O 0.38416 0.10481 0.04183 0.0
O50 O 0.47524 0.17832 0.01577 0.0
O51 O 0.43172 0.16049 0.99306 0.0
O52 O 0.40213 0.10579 0.92821 0.0
O53 O 0.44757 0.12774 0.94214 0.0
C54 C 0.40075 0.11298 0.07578 0.0
C55 C 0.42715 0.11507 0.91432 0.0
C56 C 0.95871 0.30353 0.08067 0.0
C57 C 0.95397 0.33223 0.92391 0.0
O58 O 0.94835 0.31964 0.0772 0.0
Zn59 Zn 0.93634 0.33865 0.02575 0.0
O60 O 0.96443 0.29465 0.04457 0.0
Zn61 Zn 0.95329 0.3134 0.99995 0.0
O62 O 0.98355 0.3559 0.01269 0.0
O63 O 0.96375 0.37945 0.03792 0.0
O64 O 0.96158 0.31473 0.93505 0.0
O65 O 0.94326 0.34087 0.95396 0.0
O66 O 0.89433 0.31818 0.03263 0.0
O67 O 0.90858 0.29075 1.00384 0.0
C68 C 0.98569 0.37899 0.02544 0.0
C69 C 0.88843 0.29421 0.01719 0.0
C70 C 0.74214 0.64368 0.92268 0.0
C71 C 0.76798 0.67176 0.08244 0.0
O72 O 0.73446 0.62356 0.95098 0.0
Zn73 Zn 0.73604 0.61621 0.02115 0.0
O74 O 0.75793 0.66889 0.93592 0.0
Zn75 Zn 0.75934 0.66015 1.00026 0.0
O76 O 0.78429 0.64061 1.00152 0.0
O77 O 0.75869 0.59688 0.0236 0.0
O78 O 0.77606 0.6883 0.04844 0.0
O79 O 0.75338 0.64533 0.07551 0.0
O80 O 0.69475 0.59996 0.03239 0.0
O81 O 0.7164 0.64456 0.0129 0.0
C82 C 0.78244 0.61709 0.01118 0.0
C83 C 0.6939 0.62218 0.02334 0.0
C84 C 0.98575 0.6277 0.01906 0.0
C85 C 0.89067 0.61941 0.0102 0.0
O86 O 0.96321 0.60535 0.03014 0.0
Zn87 Zn 0.93723 0.62047 0.01953 0.0
O88 O 0.98479 0.64954 0.00825 0.0
Zn89 Zn 0.95636 0.66369 0.99593 0.0
O90 O 0.96813 0.69276 0.04289 0.0
O91 O 0.94961 0.65066 0.07295 0.0
O92 O 0.91177 0.64305 0.99894 0.0
O93 O 0.8952 0.60006 0.02365 0.0
O94 O 0.94499 0.62619 0.94867 0.0
O95 O 0.96557 0.67104 0.93083 0.0
C96 C 0.96106 0.67724 0.07812 0.0
C97 C 0.95676 0.64568 0.91912 0.0
C98 C 0.39696 0.301 0.07515 0.0
C99 C 0.42536 0.32593 0.91535 0.0
O100 O 0.38075 0.29211 0.04076 0.0
Zn101 Zn 0.40886 0.309 0.99272 0.0
O102 O 0.42334 0.31623 0.06876 0.0
Zn103 Zn 0.45251 0.33357 0.01473 0.0
O104 O 0.46757 0.3751 0.02377 0.0
O105 O 0.42334 0.352 1.00266 0.0
O106 O 0.44534 0.33412 0.94408 0.0
O107 O 0.40017 0.30971 0.92816 0.0
O108 O 0.42978 0.2854 0.99385 0.0
O109 O 0.4729 0.31187 0.01815 0.0
C110 C 0.44522 0.37512 0.01251 0.0
C111 C 0.45354 0.28805 1.00403 0.0
C112 C 0.77499 0.11803 0.08058 0.0
C113 C 0.74095 0.12548 0.92743 0.0
O114 O 0.78381 0.11316 0.04349 0.0
Zn115 Zn 0.76359 0.12418 1.00019 0.0
O116 O 0.75812 0.12749 0.07876 0.0
Zn117 Zn 0.73684 0.13904 0.03211 0.0
O118 O 0.69664 0.10787 0.04454 0.0
O119 O 0.72251 0.09254 0.01288 0.0
O120 O 0.7325 0.13394 0.96099 0.0
O121 O 0.7602 0.11938 0.93346 0.0
O122 O 0.78449 0.1679 0.00667 0.0
O123 O 0.75783 0.18173 0.03945 0.0
C124 C 0.69885 0.0876 0.02778 0.0
C125 C 0.78132 0.18788 0.02147 0.0
C126 C 0.66222 0.94443 0.09279 0.0
C127 C 0.69026 0.94731 0.93184 0.0
O128 O 0.68738 0.9535 0.07981 0.0
Zn129 Zn 0.67877 0.94346 0.01491 0.0
O130 O 0.64225 0.93207 0.06418 0.0
Zn131 Zn 0.63496 0.92356 0.99387 0.0
O132 O 0.61489 0.8815 0.99065 0.0
O133 O 0.65841 0.89872 0.0129 0.0
O134 O 0.66389 0.9357 0.93891 0.0
O135 O 0.70673 0.95504 0.96597 0.0
O136 O 0.66376 0.97134 1.0037 0.0
O137 O 0.61908 0.94902 0.98476 0.0
C138 C 0.63465 0.87734 1.00291 0.0
C139 C 0.6415 0.97185 0.99452 0.0
C140 C 0.13962 0.72967 0.08832 0.0
C141 C 0.13019 0.76211 0.9354 0.0
O142 O 0.1335 0.74888 0.08197 0.0
Zn143 Zn 0.13758 0.75141 0.01524 0.0
O144 O 0.14795 0.72097 0.05487 0.0
Zn145 Zn 0.15248 0.72483 0.98349 0.0
O146 O 0.1949 0.74589 0.97447 0.0
O147 O 0.18124 0.77292 0.00639 0.0
O148 O 0.14007 0.74556 0.93692 0.0
O149 O 0.12544 0.77093 0.97261 0.0
O150 O 0.10614 0.70991 1.00333 0.0
O151 O 0.12185 0.68442 0.97124 0.0
C152 C 0.2011 0.76981 0.99086 0.0
C153 C 0.10151 0.68629 0.98839 0.0
C154 C 0.31386 0.38341 0.92799 0.0
C155 C 0.34407 0.41597 0.08507 0.0
O156 O 0.30603 0.36821 0.96357 0.0
Zn157 Zn 0.32448 0.39763 0.00929 0.0
O158 O 0.32918 0.41002 0.93232 0.0
Zn159 Zn 0.34804 0.44063 0.9845 0.0
O160 O 0.38897 0.45569 0.97131 0.0
O161 O 0.36698 0.41178 0.99461 0.0
O162 O 0.35141 0.43527 0.05525 0.0
O163 O 0.32724 0.39054 0.07398 0.0
O164 O 0.30055 0.41822 0.00872 0.0
O165 O 0.32609 0.46079 0.98162 0.0
C166 C 0.38951 0.43352 0.98212 0.0
C167 C 0.30274 0.44167 0.99749 0.0
C168 C 0.86128 0.77394 0.33678 0.0
C169 C 0.76575 0.76523 0.32846 0.0
O170 O 0.84013 0.75037 0.34797 0.0
Zn171 Zn 0.79566 0.72948 0.35002 0.0
O172 O 0.85685 0.79305 0.32163 0.0
Zn173 Zn 0.81466 0.77269 0.32591 0.0
O174 O 0.80767 0.76683 0.39699 0.0
O175 O 0.78703 0.72185 0.41474 0.0
O176 O 0.78808 0.78742 0.31603 0.0
O177 O 0.76708 0.74362 0.33953 0.0
O178 O 0.78396 0.70044 0.30367 0.0
O179 O 0.80218 0.74242 0.27321 0.0
C180 C 0.79624 0.74727 0.42654 0.0
C181 C 0.79084 0.71586 0.26839 0.0
C182 C 0.31652 0.06306 0.41643 0.0
C183 C 0.35526 0.09348 0.26108 0.0
O184 O 0.29891 0.05352 0.38379 0.0
Zn185 Zn 0.29668 0.05657 0.3125 0.0
O186 O 0.34181 0.08211 0.40874 0.0
Zn187 Zn 0.3389 0.0836 0.34204 0.0
O188 O 0.31651 0.10485 0.3348 0.0
O189 O 0.27509 0.07754 0.30519 0.0
O190 O 0.36961 0.10278 0.29753 0.0
O191 O 0.32885 0.07689 0.26409 0.0
O192 O 0.28681 1.01612 0.30059 0.0
O193 O 0.32864 0.04198 0.33068 0.0
C194 C 0.29317 0.10158 0.32085 0.0
C195 C 0.30938 1.01822 0.31651 0.0
C196 C 0.98474 0.28201 0.26426 0.0
C197 C 1.01326 0.27997 0.42274 0.0
O198 O 1.00021 0.27109 0.26968 0.0
Zn199 Zn 1.01894 0.25996 0.32261 0.0
O200 O 0.97668 0.28972 0.29922 0.0
Zn201 Zn 0.9947 0.27892 0.34601 0.0
O202 O 1.03732 0.30783 0.3329 0.0
O203 O 0.05995 0.28642 0.31086 0.0
O204 O 0.99645 0.28834 0.41096 0.0
O205 O 1.02115 0.26834 0.39323 0.0
O206 O 0.99749 0.21779 0.31916 0.0
O207 O 0.97101 0.23418 0.3439 0.0
C208 C 0.06013 0.309 0.32144 0.0
C209 C 0.97362 0.21312 0.33291 0.0
C210 C 0.1167 0.42371 0.35526 0.0
C211 C 0.12943 0.52114 0.35017 0.0
O212 O 0.09577 0.4261 0.34374 0.0
Zn213 Zn 0.08338 0.4562 0.33354 0.0
O214 O 0.13912 0.44544 0.36883 0.0
Zn215 Zn 0.12578 0.47315 0.35904 0.0
O216 O 0.09501 0.46079 0.41109 0.0
O217 O 0.05381 0.44478 0.37893 0.0
O218 O 0.14746 0.51532 0.36575 0.0
O219 O 0.1057 0.5009 0.33712 0.0
O220 O 0.07619 0.44802 0.26853 0.0
O221 O 0.1208 0.46675 0.28717 0.0
C222 C 0.06853 0.45038 0.41488 0.0
C223 C 0.10137 0.45591 0.2572 0.0
C224 C 0.62489 0.63524 0.4147 0.0
C225 C 0.62365 0.6624 0.2555 0.0
O226 O 0.61357 0.65025 0.4081 0.0
Zn227 Zn 0.60235 0.66816 0.35426 0.0
O228 O 0.63298 0.62694 0.3805 0.0
Zn229 Zn 0.62212 0.64421 0.33258 0.0
O230 O 0.65036 0.68704 0.34589 0.0
O231 O 0.62833 0.70939 0.36603 0.0
O232 O 0.63228 0.64591 0.26804 0.0
O233 O 0.61153 0.67013 0.28428 0.0
O234 O 0.56018 0.64598 0.35637 0.0
O235 O 0.57748 0.61988 0.33366 0.0
C236 C 0.65114 0.70978 0.35675 0.0
C237 C 0.55608 0.62211 0.34345 0.0
C238 C 0.41606 0.9796 0.24456 0.0
C239 C 0.44094 1.0092 0.40515 0.0
O240 O 0.40805 0.9597 0.27339 0.0
Zn241 Zn 0.40897 0.95322 0.34419 0.0
O242 O 0.43202 1.00488 0.25738 0.0
Zn243 Zn 0.43316 0.99694 0.32243 0.0
O244 O 0.45746 0.97666 0.32608 0.0
O245 O 0.43092 0.93325 0.34903 0.0
O246 O 0.44962 1.02548 0.37079 0.0
O247 O 0.42607 0.98275 0.39847 0.0
O248 O 0.36763 0.93773 0.35381 0.0
O249 O 0.39034 0.98218 0.33339 0.0
C250 C 0.45499 0.95303 0.33694 0.0
C251 C 0.36743 0.96011 0.34326 0.0
C252 C 0.63099 1.00975 0.41548 0.0
C253 C 0.62912 0.98021 0.25577 0.0
O254 O 0.63887 1.02559 0.38061 0.0
Zn255 Zn 0.62814 0.99739 0.3328 0.0
O256 O 0.61977 0.98325 0.40983 0.0
Zn257 Zn 0.60849 0.95389 0.35553 0.0
O258 O 0.63471 0.9388 0.36588 0.0
O259 O 0.65633 0.98303 0.34453 0.0
O260 O 0.61691 0.96046 0.2848 0.0
O261 O 0.63821 1.00555 0.26805 0.0
O262 O 0.58362 0.97689 0.33339 0.0
O263 O 0.56625 0.93368 0.35754 0.0
C264 C 0.65732 0.96115 0.35498 0.0
C265 C 0.56219 0.95326 0.34357 0.0
C266 C 0.11428 0.71127 0.3564 0.0
C267 C 0.13091 0.6284 0.35143 0.0
O268 O 0.13697 0.71345 0.37188 0.0
Zn269 Zn 0.12706 0.67302 0.36038 0.0
O270 O 0.09488 0.68742 0.34276 0.0
Zn271 Zn 0.0845 0.64571 0.33188 0.0
O272 O 0.05427 0.62654 0.37751 0.0
O273 O 0.0955 0.65265 0.40933 0.0
O274 O 0.10736 0.62482 0.33799 0.0
O275 O 0.14886 0.65238 0.36743 0.0
O276 O 0.12414 0.67544 0.28918 0.0
O277 O 0.08102 0.64687 0.26515 0.0
C278 C 0.06922 0.63585 0.41336 0.0
C279 C 0.10629 0.66575 0.25689 0.0
C280 C 0.36052 0.41918 0.3446 0.0
C281 C 0.44854 0.51463 0.34036 0.0
O282 O 0.36062 0.44171 0.35529 0.0
Zn283 Zn 0.40228 0.46817 0.3477 0.0
O284 O 0.38364 0.42031 0.33582 0.0
Zn285 Zn 0.42673 0.44866 0.32766 0.0
O286 O 0.44247 0.437 0.37683 0.0
O287 O 0.41864 0.45619 0.40291 0.0
O288 O 0.45096 0.4933 0.33054 0.0
O289 O 0.42443 0.5104 0.35183 0.0
O290 O 0.4029 0.46073 0.2772 0.0
O291 O 0.42709 0.43956 0.26319 0.0
C292 C 0.43343 0.44474 0.41049 0.0
C293 C 0.41146 0.44891 0.24924 0.0
C294 C 0.35095 0.27863 0.25978 0.0
C295 C 0.31766 0.27431 0.41645 0.0
O296 O 0.36588 0.28544 0.29567 0.0
Zn297 Zn 0.33603 0.27376 0.34044 0.0
O298 O 0.32438 0.26746 0.26357 0.0
Zn299 Zn 0.29338 0.2552 0.31518 0.0
O300 O 0.27915 0.28182 0.3025 0.0
O301 O 0.32275 0.30293 0.32695 0.0
O302 O 0.29828 0.26289 0.38652 0.0
O303 O 0.34292 0.28254 0.4053 0.0
O304 O 0.31517 0.22906 0.33642 0.0
O305 O 0.27277 0.21294 0.30948 0.0
C306 C 0.30141 0.30428 0.31427 0.0
C307 C 0.29176 0.20812 0.32376 0.0
C308 C 0.86689 0.10518 0.33367 0.0
C309 C 0.77157 1.01766 0.3233 0.0
O310 O 0.86254 0.08126 0.32053 0.0
Zn311 Zn 0.82039 0.05932 0.32397 0.0
O312 O 0.84569 0.10754 0.3443 0.0
Zn313 Zn 0.80113 0.08337 0.34634 0.0
O314 O 0.7918 0.08222 0.4112 0.0
O315 O 0.81204 0.05755 0.39486 0.0
O316 O 0.77251 0.04049 0.33421 0.0
O317 O 0.79423 1.01804 0.3129 0.0
O318 O 0.809 0.07728 0.26984 0.0
O319 O 0.79011 0.10072 0.29873 0.0
C320 C 0.80016 0.06552 0.4238 0.0
C321 C 0.79785 0.09252 0.26396 0.0
C322 C 0.05642 0.76916 0.32791 0.0
C323 C 0.96869 0.77543 0.33904 0.0
O324 O 0.05603 0.79163 0.31892 0.0
Zn325 Zn 1.01463 0.77552 0.32861 0.0
O326 O 1.03361 0.74678 0.33697 0.0
Zn327 Zn 0.99077 0.73153 0.34862 0.0
O328 O 0.97421 0.70389 0.29918 0.0
O329 O 0.99776 0.74697 0.27298 0.0
O330 O 0.96641 0.7517 0.34849 0.0
O331 O 0.99243 0.79531 0.32592 0.0
O332 O 1.01591 0.7678 0.39904 0.0
O333 O 0.99234 0.72231 0.41279 0.0
C334 C 0.98292 0.72061 0.26539 0.0
C335 C 1.00837 0.74735 0.42664 0.0
C336 C 0.46394 0.08348 0.75079 0.0
C337 C 0.46238 0.05392 0.59165 0.0
O338 O 0.47601 0.10365 0.72234 0.0
Zn339 Zn 0.4846 0.1102 0.65121 0.0
O340 O 0.45648 0.05857 0.73815 0.0
Zn341 Zn 0.46657 0.06719 0.67381 0.0
O342 O 0.51132 0.08901 0.67212 0.0
O343 O 0.52675 0.13177 0.64714 0.0
O344 O 0.45585 0.03847 0.62685 0.0
O345 O 0.47303 0.08043 0.59686 0.0
O346 O 0.45805 0.12465 0.6408 0.0
O347 O 0.43719 0.08026 0.66146 0.0
C348 C 0.53199 0.11297 0.66091 0.0
C349 C 0.43572 0.10192 0.65123 0.0
C350 C 0.98954 0.39772 0.7574 0.0
C351 C 1.02095 0.42535 0.59879 0.0
O352 O 0.96999 0.38998 0.72794 0.0
Zn353 Zn 0.9643 0.39204 0.65693 0.0
O354 O 1.01493 0.41373 0.74545 0.0
Zn355 Zn 1.00759 0.41561 0.68056 0.0
O356 O 0.98737 0.43996 0.67882 0.0
O357 O 0.94451 0.4143 0.65295 0.0
O358 O 1.0367 0.43327 0.6338 0.0
O359 O 0.99446 0.4103 0.60418 0.0
O360 O 0.94897 0.35084 0.64483 0.0
O361 O 0.99295 0.37283 0.66744 0.0
C362 C 0.96397 0.43787 0.6677 0.0
C363 C 0.97107 0.35021 0.65558 0.0
C364 C 0.63337 0.54302 0.66864 0.0
C365 C 0.72199 0.63712 0.65564 0.0
O366 O 0.63177 0.56462 0.67988 0.0
Zn367 Zn 0.65688 0.60925 0.68148 0.0
O368 O 0.65673 0.54679 0.65387 0.0
Zn369 Zn 0.6796 0.58895 0.65756 0.0
O370 O 0.68252 0.59762 0.72841 0.0
O371 O 0.6592 0.61917 0.74592 0.0
O372 O 0.72076 0.61404 0.64503 0.0
O373 O 0.69974 0.63695 0.66762 0.0
O374 O 0.63947 0.62103 0.63569 0.0
O375 O 0.66181 0.60146 0.60493 0.0
C376 C 0.67535 0.61001 0.75771 0.0
C377 C 0.64713 0.61332 0.60032 0.0
C378 C 0.73189 0.77746 0.74638 0.0
C379 C 0.76297 0.78301 0.58818 0.0
O380 O 0.75837 0.78847 0.74158 0.0
Zn381 Zn 0.78854 0.80083 0.68886 0.0
O382 O 0.71649 0.77098 0.71109 0.0
Zn383 Zn 0.74542 0.7826 0.66483 0.0
O384 O 0.75885 0.75341 0.67475 0.0
O385 O 0.80261 0.77365 0.69812 0.0
O386 O 0.7377 0.77434 0.60001 0.0
O387 O 0.78256 0.7941 0.61775 0.0
O388 O 0.80948 0.84303 0.69394 0.0
O389 O 0.76682 0.82709 0.66822 0.0
C390 C 0.78019 0.75158 0.68555 0.0
C391 C 0.79051 0.84795 0.67983 0.0
C392 C 0.29055 0.96722 0.7394 0.0
C393 C 0.28256 0.99869 0.58456 0.0
O394 O 0.28068 0.9837 0.73636 0.0
Zn395 Zn 0.26881 1.00411 0.68855 0.0
O396 O 0.29622 0.95842 0.703 0.0
Zn397 Zn 0.2844 0.97744 0.65851 0.0
O398 O 0.31548 1.01902 0.66999 0.0
O399 O 0.29939 0.04469 0.7001 0.0
O400 O 0.28904 0.97979 0.59167 0.0
O401 O 0.27379 1.00731 0.61747 0.0
O402 O 0.2263 0.98282 0.69623 0.0
O403 O 0.24066 0.95586 0.66615 0.0
C404 C 0.31992 0.04274 0.68399 0.0
C405 C 0.22049 0.95886 0.6805 0.0
C406 C 0.115 0.2842 0.67655 0.0
C407 C 1.02842 0.29319 0.6851 0.0
O408 O 0.11789 0.30821 0.66737 0.0
Zn409 Zn 0.09459 0.32947 0.66735 0.0
O410 O 0.0911 0.26475 0.69005 0.0
Zn411 Zn 0.06969 0.28547 0.6874 0.0
O412 O 0.07008 0.29371 0.61686 0.0
O413 O 0.09463 0.33923 0.60311 0.0
O414 O 1.02817 0.27055 0.69543 0.0
O415 O 0.05168 0.31513 0.67624 0.0
O416 O 0.11123 0.35676 0.71687 0.0
O417 O 0.08672 0.31373 0.74298 0.0
C418 C 0.07875 0.3142 0.58904 0.0
C419 C 0.10204 0.34002 0.75056 0.0
C420 C 0.29029 0.33826 0.74248 0.0
C421 C 0.28664 0.309 0.58265 0.0
O422 O 0.29816 0.35455 0.70815 0.0
Zn423 Zn 0.2867 0.32611 0.66017 0.0
O424 O 0.27875 0.31183 0.73595 0.0
Zn425 Zn 0.26675 0.28237 0.68217 0.0
O426 O 0.29261 0.26704 0.69308 0.0
O427 O 0.31473 0.31138 0.67216 0.0
O428 O 0.27469 0.28908 0.61146 0.0
O429 O 0.2961 0.33429 0.59548 0.0
O430 O 0.24213 0.30581 0.66193 0.0
O431 O 0.22463 0.26255 0.68612 0.0
C432 C 0.31541 0.28939 0.68298 0.0
C433 C 0.22069 0.28225 0.67241 0.0
C434 C 0.73461 0.96846 0.74531 0.0
C435 C 0.76578 0.99675 0.58705 0.0
O436 O 0.71921 0.95995 0.70993 0.0
Zn437 Zn 0.74828 0.97732 0.66338 0.0
O438 O 0.76118 0.98357 0.7404 0.0
Zn439 Zn 0.79142 1.00151 0.68684 0.0
O440 O 0.80657 0.04268 0.69891 0.0
O441 O 0.76244 1.01971 0.67691 0.0
O442 O 0.78571 1.00426 0.61573 0.0
O443 O 0.74063 0.97982 0.59912 0.0
O444 O 0.76865 0.9533 0.66577 0.0
O445 O 0.81153 0.97963 0.69107 0.0
C446 C 0.78414 0.04264 0.688 0.0
C447 C 0.79215 0.95576 0.67727 0.0
C448 C 1.02734 0.75504 0.6932 0.0
C449 C 0.1133 0.85141 0.68156 0.0
O450 O 1.02715 0.77758 0.70263 0.0
Zn451 Zn 0.06824 0.8042 0.69164 0.0
O452 O 0.05038 0.7564 0.68287 0.0
Zn453 Zn 0.09299 0.78569 0.67026 0.0
O454 O 0.11101 0.7757 0.7179 0.0
O455 O 0.08666 0.79367 0.74648 0.0
O456 O 0.1163 0.83049 0.67119 0.0
O457 O 0.08924 0.84648 0.69469 0.0
O458 O 0.06644 0.79499 0.62078 0.0
O459 O 0.09184 0.77528 0.60606 0.0
C460 C 0.10245 0.78315 0.75254 0.0
C461 C 0.07467 0.78285 0.59275 0.0
C462 C 0.99168 0.61139 0.7566 0.0
C463 C 1.02258 0.61526 0.59772 0.0
O464 O 1.01699 0.62046 0.74461 0.0
Zn465 Zn 1.00914 0.61113 0.67981 0.0
O466 O 0.97203 0.59951 0.72723 0.0
Zn467 Zn 0.9661 0.592 0.65586 0.0
O468 O 0.94578 0.5497 0.65191 0.0
O469 O 0.98842 0.56654 0.67827 0.0
O470 O 0.99605 0.60409 0.60239 0.0
O471 O 1.03789 0.62242 0.63317 0.0
O472 O 0.99496 0.63967 0.66903 0.0
O473 O 0.95109 0.61837 0.64612 0.0
C474 C 0.9649 0.54531 0.66702 0.0
C475 C 0.97324 0.64084 0.65828 0.0
C476 C 0.45952 0.39641 0.75506 0.0
C477 C 0.45505 0.42359 0.59712 0.0
O478 O 0.45042 0.41271 0.74371 0.0
Zn479 Zn 0.45961 0.41461 0.67884 0.0
O480 O 0.4713 0.38885 0.72531 0.0
Zn481 Zn 0.47888 0.39074 0.65442 0.0
O482 O 0.52108 0.41307 0.65064 0.0
O483 O 0.50415 0.43873 0.67719 0.0
O484 O 0.46651 0.40855 0.60199 0.0
O485 O 0.44792 0.43192 0.63239 0.0
O486 O 0.43123 0.37175 0.66719 0.0
O487 O 0.45247 0.3493 0.64359 0.0
C488 C 0.52539 0.43658 0.66596 0.0
C489 C 0.43003 0.3489 0.65575 0.0
C490 C 0.64846 0.05376 0.60179 0.0
C491 C 0.6764 0.09135 0.7594 0.0
O492 O 0.63853 0.03843 0.63715 0.0
Zn493 Zn 0.65691 0.06837 0.68407 0.0
O494 O 0.6652 0.08001 0.60679 0.0
Zn495 Zn 0.68495 0.1115 0.65585 0.0
O496 O 0.72547 0.12054 0.64714 0.0
O497 O 0.6983 0.0784 0.67506 0.0
O498 O 0.68624 0.10881 0.72669 0.0
O499 O 0.65775 0.06586 0.75142 0.0
O500 O 0.63633 0.09114 0.67583 0.0
O501 O 0.66387 0.13299 0.64772 0.0
C502 C 0.72256 0.09757 0.66299 0.0
C503 C 0.63967 0.1146 0.66228 0.0
C504 C 1.03301 0.41045 0.05765 0.0
C505 C 1.01402 0.40426 0.02174 0.0
C506 C 0.06206 0.4242 0.04975 0.0
C507 C 0.0734 0.43214 0.00557 0.0
H508 H 1.02531 0.40198 0.09121 0.0
H509 H 0.07557 0.42599 0.0778 0.0
S510 S 1.03294 0.42452 0.90104 0.0
N511 N 1.00887 0.41026 0.94119 0.0
N512 N 0.06339 0.43578 0.92652 0.0
C513 C 0.05489 0.42864 0.97023 0.0
C514 C 1.02524 0.41473 0.97828 0.0
C515 C 0.66147 0.63633 0.05605 0.0
C516 C 0.66777 0.62356 0.02019 0.0
C517 C 0.64748 0.65134 0.04809 0.0
C518 C 0.63951 0.65456 1.00388 0.0
H519 H 0.6702 0.63751 0.08953 0.0
H520 H 0.64576 0.6632 0.07602 0.0
S521 S 0.6467 0.62107 0.89971 0.0
N522 N 0.66129 0.61172 0.93987 0.0
N523 N 0.63549 0.64035 0.92501 0.0
C524 C 0.64288 0.63933 0.96869 0.0
C525 C 0.65691 0.62378 0.97686 0.0
C526 C 0.44002 0.05005 0.95514 0.0
C527 C 0.44795 0.06059 0.99981 0.0
C528 C 0.42628 1.02111 0.94569 0.0
C529 C 0.42025 1.00143 0.98044 0.0
H530 H 0.4417 0.06409 0.92805 0.0
H531 H 0.41765 1.01402 0.91198 0.0
S532 S 0.44101 1.01821 0.10151 0.0
N533 N 0.45193 0.04914 0.07787 0.0
N534 N 0.42673 0.99486 0.06021 0.0
C535 C 0.43095 1.01191 0.02418 0.0
C536 C 0.44468 0.04142 0.03388 0.0
C537 C 0.06172 0.66137 0.04194 0.0
C538 C 0.07305 0.66202 0.99854 0.0
C539 C 1.03291 0.64564 0.05078 0.0
C540 C 1.01376 0.63025 0.01632 0.0
H541 H 0.0749 0.67539 0.06846 0.0
H542 H 1.02539 0.64831 0.08339 0.0
S543 S 1.032 0.62277 0.89759 0.0
N544 N 0.06262 0.64363 0.92167 0.0
N545 N 1.00818 0.61486 0.93764 0.0
C546 C 1.02476 0.6289 0.97361 0.0
C547 C 0.05441 0.6446 0.96481 0.0
C548 C 0.4356 0.40367 0.95844 0.0
C549 C 0.44373 0.40084 1.00277 0.0
C550 C 0.42159 0.41862 0.95002 0.0
C551 C 0.4154 0.43171 0.98553 0.0
H552 H 0.43734 0.39166 0.93078 0.0
H553 H 0.41283 0.41724 0.9165 0.0
S554 S 0.43642 0.43482 0.10621 0.0
N555 N 0.44769 0.41546 0.08139 0.0
N556 N 0.42187 0.44397 0.0657 0.0
C557 C 0.42626 0.43172 0.02899 0.0
C558 C 0.44032 0.41624 0.03761 0.0
C559 C 0.65919 1.0192 0.964 0.0
C560 C 0.64367 0.99972 0.99789 0.0
C561 C 0.67471 0.04796 0.97356 0.0
C562 C 0.67488 0.059 0.01707 0.0
H563 H 0.6622 1.01197 0.93133 0.0
H564 H 0.68896 0.06134 0.94751 0.0
S565 S 0.63522 1.01695 0.11682 0.0
N566 N 0.62777 0.99343 0.07629 0.0
N567 N 0.656 0.04786 0.09352 0.0
C568 C 0.65734 0.04 0.05026 0.0
C569 C 0.64192 1.01036 0.04076 0.0
C570 C 0.7271 0.75557 0.38162 0.0
C571 C 0.73845 0.76366 0.33749 0.0
C572 C 0.69805 0.74174 0.38948 0.0
C573 C 0.67904 0.73565 0.35361 0.0
H574 H 0.7406 0.75723 0.40961 0.0
H575 H 0.69036 0.73303 0.42292 0.0
S576 S 0.69801 0.75651 0.23314 0.0
N577 N 0.72846 0.76768 0.25858 0.0
N578 N 0.67393 0.74207 0.27322 0.0
C579 C 0.69029 0.74642 0.31029 0.0
C580 C 0.71995 0.76036 0.30223 0.0
C581 C 0.33845 0.97784 0.37631 0.0
C582 C 0.34194 0.96265 0.34128 0.0
C583 C 0.32522 0.99348 0.36849 0.0
C584 C 0.31393 0.99411 0.32568 0.0
H585 H 0.34903 0.9805 0.40854 0.0
H586 H 0.3266 1.00756 0.39519 0.0
S587 S 0.31523 0.95568 0.2233 0.0
N588 N 0.33159 0.94774 0.26243 0.0
N589 N 0.30543 0.97616 0.24851 0.0
C590 C 0.31499 0.97696 0.29132 0.0
C591 C 0.32921 0.96144 0.299 0.0
C592 C 0.09235 0.35658 0.29107 0.0
C593 C 0.08587 0.33691 0.32598 0.0
C594 C 0.10641 0.38554 0.30035 0.0
C595 C 0.11432 0.39612 0.34499 0.0
H596 H 0.08387 0.34951 0.25728 0.0
H597 H 0.1085 0.39961 0.27303 0.0
S598 S 0.10593 0.35367 0.44731 0.0
N599 N 0.09159 0.3303 0.40606 0.0
N600 N 0.11759 0.38465 0.42338 0.0
C601 C 0.11053 0.37692 0.37933 0.0
C602 C 0.09637 0.34736 0.36983 0.0
C603 C 0.69535 0.96951 0.3014 0.0
C604 C 0.68456 0.96263 0.34605 0.0
C605 C 0.72436 0.9839 0.29273 0.0
C606 C 0.74384 0.99171 0.32834 0.0
H607 H 0.68137 0.96653 0.2734 0.0
H608 H 0.73153 0.9916 0.25865 0.0
S609 S 0.72651 0.97467 0.45033 0.0
N610 N 0.69568 0.96182 0.42542 0.0
N611 N 0.75007 0.98827 0.40935 0.0
C612 C 0.73322 0.9822 0.37243 0.0
C613 C 0.70364 0.96777 0.38127 0.0
C614 C 0.08559 0.75156 0.29538 0.0
C615 C 0.08207 0.76694 0.33007 0.0
C616 C 0.09871 0.73588 0.3037 0.0
C617 C 0.10987 0.73539 0.3467 0.0
H618 H 0.07505 0.74876 0.26306 0.0
H619 H 0.09734 0.72166 0.27728 0.0
S620 S 0.10863 0.77447 0.44825 0.0
N621 N 0.09238 0.78228 0.40873 0.0
N622 N 0.11832 0.75374 0.42363 0.0
C623 C 0.10883 0.75275 0.3807 0.0
C624 C 0.09475 0.76834 0.37249 0.0
C625 C 0.33195 0.38067 0.2906 0.0
C626 C 0.33483 0.39182 0.33484 0.0
C627 C 0.31694 0.35158 0.28228 0.0
C628 C 0.30384 0.33234 0.31783 0.0
H629 H 0.34393 0.39441 0.2629 0.0
H630 H 0.3182 0.34409 0.24877 0.0
S631 S 0.30105 0.35065 0.43845 0.0
N632 N 0.32037 0.38131 0.41351 0.0
N633 N 0.29181 0.32675 0.39803 0.0
C634 C 0.304 0.34335 0.36126 0.0
C635 C 0.31951 0.37302 0.36976 0.0
C636 C 0.35941 0.06731 0.62982 0.0
C637 C 0.34829 0.06699 0.67328 0.0
C638 C 0.38815 0.08306 0.6205 0.0
C639 C 0.40749 0.09883 0.6545 0.0
H640 H 0.34612 0.05302 0.60366 0.0
H641 H 0.39552 0.08019 0.58788 0.0
S642 S 0.38987 0.10698 0.77332 0.0
N643 N 0.35913 0.08585 0.74981 0.0
N644 N 0.41347 0.11473 0.73295 0.0
C645 C 0.3967 0.1004 0.69731 0.0
C646 C 0.36711 0.08465 0.70661 0.0
C647 C 0.98563 0.31788 0.6232 0.0
C648 C 0.97277 0.3242 0.65886 0.0
C649 C 1.00025 0.30349 0.63131 0.0
C650 C 1.00294 0.29508 0.67548 0.0
H651 H 0.98708 0.32677 0.58978 0.0
H652 H 1.01211 0.30164 0.60356 0.0
S653 S 0.96947 0.30266 0.77925 0.0
N654 N 0.96063 0.31766 0.73902 0.0
N655 N 0.98845 0.29107 0.75413 0.0
C656 C 0.98779 0.29868 0.71048 0.0
C657 C 0.97268 0.31316 0.70217 0.0
C658 C 0.76958 0.71295 0.63161 0.0
C659 C 0.77801 0.72403 0.67587 0.0
C660 C 0.75491 0.68388 0.62334 0.0
C661 C 0.74834 0.6646 0.65892 0.0
H662 H 0.77159 0.72677 0.6039 0.0
H663 H 0.74598 0.67649 0.58989 0.0
S664 S 0.77007 0.68267 0.77938 0.0
N665 N 0.78196 0.71341 0.75445 0.0
N666 N 0.75484 0.65882 0.73903 0.0
C667 C 0.7595 0.67549 0.70228 0.0
C668 C 0.77427 0.70517 0.71076 0.0
C669 C 0.39123 0.31935 0.70837 0.0
C670 C 0.40271 0.32293 0.66429 0.0
C671 C 0.36213 0.30407 0.71593 0.0
C672 C 0.34323 0.29142 0.67977 0.0
H673 H 0.40466 0.33104 0.7366 0.0
H674 H 0.35436 0.30487 0.74941 0.0
S675 S 0.36258 0.29018 0.55929 0.0
N676 N 0.39296 0.30936 0.58511 0.0
N677 N 0.33836 0.28035 0.59916 0.0
C678 C 0.3546 0.29217 0.63646 0.0
C679 C 0.3843 0.30793 0.62872 0.0
C680 C 0.78261 0.08231 0.6495 0.0
C681 C 0.78032 0.06737 0.68991 0.0
C682 C 0.76617 0.09512 0.64221 0.0
C683 C 0.7461 0.09243 0.67441 0.0
H684 H 0.7951 0.08175 0.62158 0.0
H685 H 0.7672 0.10461 0.60951 0.0
S686 S 0.73226 0.05533 0.78557 0.0
N687 N 0.75805 0.05248 0.76318 0.0
N688 N 0.72551 0.07348 0.74838 0.0
C689 C 0.74484 0.07863 0.71567 0.0
C690 C 0.76241 0.06701 0.72375 0.0
C691 C 0.9957 0.70723 0.72319 0.0
C692 C 1.0018 0.72696 0.6885 0.0
C693 C 0.98213 0.67833 0.71363 0.0
C694 C 0.97444 0.66785 0.6689 0.0
H695 H 1.00414 0.71429 0.75701 0.0
H696 H 0.98036 0.66428 0.74077 0.0
S697 S 0.98146 0.71029 0.56726 0.0
N698 N 0.99557 0.73361 0.60864 0.0
N699 N 0.97063 0.67935 0.59078 0.0
C700 C 0.97775 0.68703 0.63482 0.0
C701 C 0.99133 0.71653 0.64463 0.0
C702 C 0.27253 0.46269 0.97351 0.0
C703 C 0.27744 0.44515 1.00242 0.0
C704 C 0.24686 0.46281 0.97464 0.0
C705 C 0.22504 0.44541 1.00476 0.0
H706 H 0.28811 0.47554 0.94851 0.0
H707 H 0.24369 0.47574 0.95048 0.0
S708 S 0.22896 0.39895 0.09232 0.0
N709 N 0.25916 0.41233 0.06542 0.0
N710 N 0.21176 0.41258 0.06759 0.0
C711 C 0.23049 0.42909 0.03545 0.0
C712 C 0.25636 0.42895 0.03427 0.0
C713 C 0.65315 0.82007 0.02354 0.0
C714 C 0.63089 0.7955 1.0044 0.0
C715 C 0.65352 0.84572 0.02368 0.0
C716 C 0.63164 0.84856 1.0047 0.0
H717 H 0.67095 0.81976 0.03828 0.0
H718 H 0.67156 0.86367 0.0385 0.0
S719 S 0.56758 0.79069 0.95149 0.0
N720 N 0.58566 0.77564 0.96691 0.0
N721 N 0.58633 0.82387 0.96719 0.0
C722 C 0.60876 0.82406 0.9864 0.0
C723 C 0.60839 0.79766 0.98624 0.0
C724 C 0.23519 0.81822 0.01921 0.0
C725 C 0.23038 0.79505 0.99214 0.0
C726 C 0.26071 0.84368 0.0186 0.0
C727 C 0.28332 0.84777 0.99104 0.0
H728 H 0.21874 0.81704 0.04076 0.0
H729 H 0.26245 0.86061 0.03963 0.0
S730 S 0.283 0.79364 0.91529 0.0
N731 N 0.2514 0.77768 0.93813 0.0
N732 N 0.29954 0.82558 0.93714 0.0
C733 C 0.27947 0.82451 0.96503 0.0
C734 C 0.2531 0.79827 0.96555 0.0
C735 C 0.47586 0.25892 0.02747 0.0
C736 C 0.45717 0.26278 0.99976 0.0
C737 C 0.47635 0.2334 0.02705 0.0
C738 C 0.45817 0.21068 0.99889 0.0
H739 H 0.48941 0.27525 0.051 0.0
H740 H 0.49023 0.23107 0.05031 0.0
S741 S 0.40838 0.21154 0.9148 0.0
N742 N 0.42229 0.24246 0.93977 0.0
N743 N 0.4232 0.19531 0.93901 0.0
C744 C 0.44061 0.21502 0.96932 0.0
C745 C 0.44011 0.24076 0.96974 0.0
C746 C 0.83892 0.26389 0.04939 0.0
C747 C 0.85894 0.26963 0.01488 0.0
C748 C 0.81291 0.23821 0.05046 0.0
C749 C 0.80586 0.21733 0.01692 0.0
H750 H 0.84395 0.27864 0.07705 0.0
H751 H 0.79896 0.23414 0.07893 0.0
S752 S 0.8489 0.22403 0.9153 0.0
N753 N 0.86814 0.25338 0.94379 0.0
N754 N 0.82001 0.20611 0.9453 0.0
C755 C 0.825 0.22385 0.9808 0.0
C756 C 0.85125 0.24963 0.97991 0.0
C757 C 0.85869 0.63778 0.98917 0.0
C758 C 0.86182 0.61613 0.00848 0.0
C759 C 0.83299 0.63722 0.98937 0.0
C760 C 0.80863 0.61495 0.00887 0.0
H761 H 0.87647 0.65584 0.97408 0.0
H762 H 0.83246 0.65487 0.97442 0.0
S763 S 0.80455 0.55209 0.06256 0.0
N764 N 0.83759 0.57098 0.04659 0.0
N765 N 0.78925 0.56992 0.04693 0.0
C766 C 0.81106 0.59264 0.02729 0.0
C767 C 0.83752 0.59323 0.02712 0.0
C768 C 0.91271 0.79589 0.31303 0.0
C769 C 0.89015 0.77759 0.34122 0.0
C770 C 0.93862 0.79627 0.31367 0.0
C771 C 0.94304 0.77836 0.34248 0.0
H772 H 0.90998 0.80917 0.28899 0.0
H773 H 0.95484 0.80982 0.29006 0.0
S774 S 0.89242 0.72976 0.42792 0.0
N775 N 0.87553 0.74348 0.40239 0.0
N776 N 0.9234 0.74414 0.40337 0.0
C777 C 0.92116 0.76123 0.37247 0.0
C778 C 0.89504 0.76086 0.3719 0.0
C779 C 0.30773 0.17523 0.35075 0.0
C780 C 0.28844 0.17917 0.32511 0.0
C781 C 0.30799 0.14991 0.35001 0.0
C782 C 0.28905 0.12671 0.32346 0.0
H783 H 0.32336 0.19216 0.37132 0.0
H784 H 0.32384 0.14886 0.37017 0.0
S785 S 0.23295 0.12489 0.25149 0.0
N786 N 0.24872 0.15678 0.27355 0.0
N787 N 0.24932 0.10914 0.27206 0.0
C788 C 0.26883 0.12978 0.29878 0.0
C789 C 0.26851 0.15588 0.29962 0.0
C790 C 0.89885 0.15494 0.35887 0.0
C791 C 0.89563 0.13105 0.33583 0.0
C792 C 0.92421 0.1806 0.35866 0.0
C793 C 0.94809 0.18414 0.3354 0.0
H794 H 0.88134 0.15408 0.37689 0.0
H795 H 0.92481 0.19806 0.37654 0.0
S796 S 0.95178 0.12817 0.27081 0.0
N797 N 0.9193 0.11252 0.29004 0.0
N798 N 0.96699 0.16079 0.28964 0.0
C799 C 0.94564 0.16025 0.31329 0.0
C800 C 0.91954 0.13383 0.31351 0.0
C801 C 0.14911 0.57112 0.38098 0.0
C802 C 0.13455 0.55066 0.34704 0.0
C803 C 0.14962 0.59718 0.38127 0.0
C804 C 0.13566 0.60381 0.34754 0.0
H805 H 0.15892 0.56642 0.40878 0.0
H806 H 0.1597 0.6115 0.40935 0.0
S807 S 0.09861 0.55954 0.24716 0.0
N808 N 0.10874 0.54062 0.27615 0.0
N809 N 0.10985 0.5888 0.2764 0.0
C810 C 0.12274 0.58422 0.31199 0.0
C811 C 0.12214 0.55795 0.31182 0.0
C812 C 0.52481 0.57161 0.32113 0.0
C813 C 0.52737 0.59616 0.34065 0.0
C814 C 0.49929 0.54612 0.3204 0.0
C815 C 0.47453 0.54337 0.33913 0.0
H816 H 0.5429 0.57181 0.30659 0.0
H817 H 0.49924 0.52817 0.30532 0.0
S818 S 0.46889 0.60128 0.39299 0.0
N819 N 0.50216 0.61615 0.37811 0.0
N820 N 0.45417 0.56819 0.37672 0.0
C821 C 0.47639 0.56787 0.35775 0.0
C822 C 0.50267 0.59413 0.35851 0.0
C823 C 0.5057 0.972 0.31726 0.0
C824 C 0.48088 0.95026 0.3365 0.0
C825 C 0.53114 0.97204 0.31887 0.0
C826 C 0.53354 0.95036 0.33984 0.0
H827 H 0.50576 0.98965 0.30115 0.0
H828 H 0.54931 0.98975 0.30385 0.0
S829 S 0.4748 0.8875 0.39399 0.0
N830 N 0.46025 0.90561 0.37611 0.0
N831 N 0.5081 0.90571 0.37913 0.0
C832 C 0.50876 0.92793 0.35819 0.0
C833 C 0.48257 0.92788 0.35652 0.0
C834 C 0.59142 0.09951 0.69117 0.0
C835 C 0.61437 0.11834 0.66418 0.0
C836 C 0.56574 0.09895 0.69077 0.0
C837 C 0.56123 0.11729 0.66357 0.0
H838 H 0.59293 0.08432 0.71245 0.0
H839 H 0.54898 0.08341 0.71164 0.0
S840 S 0.61463 0.17219 0.58834 0.0
N841 N 0.63108 0.15698 0.61073 0.0
N842 N 0.58278 0.15613 0.61022 0.0
C843 C 0.58428 0.13722 0.63777 0.0
C844 C 0.61073 0.13771 0.63803 0.0
C845 C 0.94316 0.46807 0.64243 0.0
C846 C 0.96096 0.46355 0.67134 0.0
C847 C 0.94337 0.49394 0.64227 0.0
C848 C 0.96138 0.5164 0.67102 0.0
H849 H 0.92981 0.45196 0.61843 0.0
H850 H 0.93018 0.49674 0.61815 0.0
S851 S 1.00887 0.51389 0.75807 0.0
N852 N 0.99478 0.48302 0.73292 0.0
N853 N 0.99516 0.53082 0.73266 0.0
C854 C 0.97802 0.51142 0.70173 0.0
C855 C 0.97781 0.48532 0.70187 0.0
C856 C 0.60296 0.49183 0.64342 0.0
C857 C 0.60738 0.51443 0.67177 0.0
C858 C 0.57696 0.46622 0.64272 0.0
C859 C 0.55425 0.46209 0.67034 0.0
H860 H 0.61929 0.49431 0.6203 0.0
H861 H 0.57431 0.44999 0.61911 0.0
S862 S 0.55626 0.51296 0.75554 0.0
N863 N 0.58743 0.52942 0.73157 0.0
N864 N 0.5394 0.4821 0.73033 0.0
C865 C 0.55907 0.48401 0.70046 0.0
C866 C 0.5853 0.50986 0.70116 0.0
C867 C 0.77482 0.90626 0.65169 0.0
C868 C 0.79511 0.93002 0.67551 0.0
C869 C 0.77441 0.88062 0.65239 0.0
C870 C 0.79426 0.87697 0.67698 0.0
H871 H 0.75852 0.90719 0.63269 0.0
H872 H 0.75783 0.86324 0.63384 0.0
S873 S 0.853 0.93269 0.74371 0.0
N874 N 0.83657 0.94841 0.72327 0.0
N875 N 0.8358 0.90013 0.72457 0.0
C876 C 0.81542 0.90076 0.69978 0.0
C877 C 0.81584 0.92718 0.69905 0.0
C878 C 0.16172 0.88457 0.65279 0.0
C879 C 0.13862 0.88054 0.67892 0.0
C880 C 0.18714 0.91014 0.65256 0.0
C881 C 0.19134 0.93346 0.67865 0.0
H882 H 0.16044 0.86753 0.63263 0.0
H883 H 0.20399 0.91128 0.63212 0.0
S884 S 0.13728 0.93498 0.75167 0.0
N885 N 0.12129 0.90288 0.73041 0.0
N886 N 0.16924 0.95097 0.7302 0.0
C887 C 0.16814 0.93026 0.7038 0.0
C888 C 0.14188 0.90392 0.70389 0.0
C889 C 0.16979 0.26152 0.69846 0.0
C890 C 0.19208 0.27937 0.66942 0.0
C891 C 0.14431 0.262 0.69949 0.0
C892 C 0.14007 0.28037 0.67157 0.0
H893 H 0.17246 0.24794 0.72192 0.0
H894 H 0.12834 0.24876 0.72369 0.0
S895 S 0.18994 0.32807 0.5844 0.0
N896 N 0.20652 0.31357 0.60848 0.0
N897 N 0.15945 0.31448 0.61043 0.0
C898 C 0.16161 0.29705 0.64069 0.0
C899 C 0.1873 0.29655 0.63962 0.0
C900 C 0.09015 0.42084 0.19453 0.0
C901 C 0.10832 0.44743 0.2134 0.0
C902 C 0.09874 0.41015 0.15832 0.0
C903 C 0.12569 0.42579 0.13939 0.0
H904 H 0.06946 0.40783 0.20873 0.0
H905 H 0.08385 0.38995 0.14406 0.0
S906 S 0.18106 0.4965 0.17622 0.0
N907 N 0.15451 0.48895 0.2104 0.0
N908 N 0.17034 0.46919 0.14217 0.0
C909 C 0.14392 0.45237 0.15792 0.0
C910 C 0.13532 0.4631 0.19484 0.0
C911 C 0.65737 0.68451 0.19042 0.0
C912 C 0.63176 0.67752 0.21142 0.0
C913 C 0.66765 0.70337 0.15358 0.0
C914 C 0.65271 0.71591 0.13666 0.0
H915 H 0.66989 0.67596 0.20323 0.0
H916 H 0.68698 0.70751 0.13744 0.0
S917 S 0.58443 0.70417 0.17878 0.0
N918 N 0.59154 0.68431 0.21157 0.0
N919 N 0.61101 0.71973 0.14325 0.0
C920 C 0.62714 0.709 0.1573 0.0
C921 C 0.61663 0.68981 0.19431 0.0
C922 C 0.37093 0.97711 0.14502 0.0
C923 C 0.3646 0.95186 0.12309 0.0
C924 C 0.38922 0.98715 0.18268 0.0
C925 C 0.40186 0.97232 0.19969 0.0
H926 H 0.36217 0.98951 0.13247 0.0
H927 H 0.39283 1.00619 0.19936 0.0
S928 S 0.39196 0.90505 0.15517 0.0
N929 N 0.37243 0.91228 0.12178 0.0
N930 N 0.40646 0.93105 0.19214 0.0
C931 C 0.39562 0.9471 0.17815 0.0
C932 C 0.37714 0.93693 0.14001 0.0
C933 C 0.45967 0.12543 0.84936 0.0
C934 C 0.43374 0.10715 0.86969 0.0
C935 C 0.46971 0.117 0.81242 0.0
C936 C 0.45456 0.08969 0.79448 0.0
H937 H 0.47262 0.14643 0.86265 0.0
H938 H 0.48958 0.13215 0.79762 0.0
S939 S 0.38527 0.03352 0.8352 0.0
N940 N 0.39296 0.06033 0.86915 0.0
N941 N 0.41179 0.04442 0.79944 0.0
C942 C 0.42852 0.07107 0.81441 0.0
C943 C 0.41808 0.07984 0.85189 0.0
C944 C 0.98783 0.35461 0.85937 0.0
C945 C 0.96188 0.34708 0.87958 0.0
C946 C 0.99766 0.37255 0.82136 0.0
C947 C 0.98186 0.38355 0.80223 0.0
H948 H 1.00093 0.3471 0.87357 0.0
H949 H 1.01736 0.37717 0.80612 0.0
S950 S 0.9127 0.3704 0.84248 0.0
N951 N 0.92079 0.35227 0.87767 0.0
N952 N 0.93906 0.38559 0.80642 0.0
C953 C 0.95596 0.37617 0.82222 0.0
C954 C 0.94605 0.3581 0.86082 0.0
C955 C 0.71773 0.65337 0.85931 0.0
C956 C 0.72785 0.63668 0.87796 0.0
C957 C 0.69942 0.64406 0.82171 0.0
C958 C 0.69049 0.61767 0.80174 0.0
H959 H 0.72334 0.67339 0.87459 0.0
H960 H 0.69266 0.65783 0.80771 0.0
S961 S 0.71112 0.56617 0.83779 0.0
N962 N 0.72779 0.59271 0.87326 0.0
N963 N 0.69334 0.57516 0.80347 0.0
C964 C 0.70058 0.60093 0.82013 0.0
C965 C 0.71923 0.61042 0.85797 0.0
C966 C 0.99078 0.65567 0.85513 0.0
C967 C 0.96447 0.63807 0.87513 0.0
C968 C 1.00053 0.64629 0.81861 0.0
C969 C 0.98427 0.61904 0.80073 0.0
H970 H 1.00427 0.67651 0.8686 0.0
H971 H 1.02054 0.66075 0.80344 0.0
S972 S 0.91391 0.56496 0.84057 0.0
N973 N 0.92241 0.59216 0.87392 0.0
N974 N 0.94061 0.57478 0.80567 0.0
C975 C 0.95799 0.60139 0.8204 0.0
C976 C 0.94812 0.61084 0.85737 0.0
C977 C 0.41553 0.35111 0.85345 0.0
C978 C 0.43236 0.3409 0.87127 0.0
C979 C 0.42517 0.37082 0.81779 0.0
C980 C 0.45191 0.38088 0.79866 0.0
H981 H 0.39522 0.34461 0.8682 0.0
H982 H 0.4113 0.37757 0.80426 0.0
S983 S 0.50388 0.36055 0.83296 0.0
N984 N 0.47689 0.34223 0.86676 0.0
N985 N 0.4949 0.37904 0.80029 0.0
C986 C 0.46878 0.37071 0.81622 0.0
C987 C 0.45902 0.35076 0.8522 0.0
C988 C 0.73734 0.12347 0.84229 0.0
C989 C 0.72433 0.11818 0.88481 0.0
C990 C 0.7214 0.11596 0.80222 0.0
C991 C 0.69183 0.10042 0.80309 0.0
H992 H 0.75993 0.13402 0.83992 0.0
H993 H 0.73246 0.12171 0.77009 0.0
S994 S 0.64768 0.08506 0.90533 0.0
N995 N 0.68005 0.10117 0.92505 0.0
N996 N 0.65033 0.08284 0.84971 0.0
C997 C 0.67855 0.09555 0.84521 0.0
C998 C 0.69478 0.10536 0.886 0.0
C999 C 0.67293 0.97881 0.15688 0.0
C1000 C 0.65516 0.95239 0.13708 0.0
C1001 C 0.66384 0.98877 0.19357 0.0
C1002 C 0.63667 0.97269 0.21163 0.0
H1003 H 0.69366 0.99221 0.14314 0.0
H1004 H 0.67841 1.00883 0.20861 0.0
S1005 S 0.58223 0.90215 0.17242 0.0
N1006 N 0.60925 0.91036 0.13899 0.0
N1007 N 0.59231 0.9291 0.20701 0.0
C1008 C 0.61887 0.94632 0.19213 0.0
C1009 C 0.62807 0.93617 0.15523 0.0
C1010 C 0.12891 0.71069 0.21382 0.0
C1011 C 0.11467 0.68111 0.2132 0.0
C1012 C 0.13652 0.72644 0.17354 0.0
C1013 C 0.13232 0.71328 0.1312 0.0
H1014 H 0.13413 0.72187 0.24583 0.0
H1015 H 0.14638 0.74904 0.17564 0.0
S1016 S 0.10133 0.63661 0.11168 0.0
N1017 N 0.09876 0.63945 0.16717 0.0
N1018 N 0.11661 0.6689 0.09159 0.0
C1019 C 0.12024 0.68375 0.13039 0.0
C1020 C 0.11061 0.66768 0.1713 0.0
C1021 C 0.38467 0.41378 0.18823 0.0
C1022 C 0.39773 0.44161 0.20417 0.0
C1023 C 0.36596 0.40499 0.15116 0.0
C1024 C 0.35972 0.42376 0.12876 0.0
H1025 H 0.38816 0.39847 0.20548 0.0
H1026 H 0.35683 0.38356 0.1394 0.0
S1027 S 0.38822 0.49876 0.15817 0.0
N1028 N 0.40294 0.48766 0.19514 0.0
N1029 N 0.36805 0.47142 0.12597 0.0
C1030 C 0.37272 0.45161 0.14463 0.0
C1031 C 0.39165 0.46045 0.18209 0.0
C1032 C 0.75271 0.74855 0.52515 0.0
C1033 C 0.77016 0.77526 0.54412 0.0
C1034 C 0.76202 0.73849 0.48908 0.0
C1035 C 0.78901 0.7549 0.47064 0.0
H1036 H 0.73211 0.73497 0.5392 0.0
H1037 H 0.74768 0.71818 0.47458 0.0
S1038 S 0.84264 0.82621 0.5081 0.0
N1039 N 0.81563 0.81779 0.54169 0.0
N1040 N 0.83293 0.79905 0.47408 0.0
C1041 C 0.80653 0.78158 0.48936 0.0
C1042 C 0.79714 0.79174 0.52591 0.0
C1043 C 0.29441 1.01795 0.45912 0.0
C1044 C 0.30795 0.0475 0.4599 0.0
C1045 C 0.28669 1.0021 0.49933 0.0
C1046 C 0.29006 1.01509 0.54165 0.0
H1047 H 0.28979 1.00689 0.42706 0.0
H1048 H 0.27739 0.97956 0.49717 0.0
S1049 S 0.31892 0.09148 0.56125 0.0
N1050 N 0.32229 0.08887 0.50593 0.0
N1051 N 0.30414 0.05919 0.58119 0.0
C1052 C 0.30139 0.04453 0.54249 0.0
C1053 C 0.31117 0.06073 0.50175 0.0
C1054 C 0.05241 0.32249 0.52739 0.0
C1055 C 0.06532 0.30777 0.54372 0.0
C1056 C 1.03417 0.31262 0.48968 0.0
C1057 C 1.02826 0.2877 0.46705 0.0
H1058 H 0.05568 0.34123 0.54475 0.0
H1059 H 1.02518 0.3249 0.47761 0.0
S1060 S 0.05662 0.24141 0.49724 0.0
N1061 N 0.0708 0.26712 0.53474 0.0
N1062 N 1.03677 0.24853 0.46446 0.0
C1063 C 1.04111 0.2729 0.48334 0.0
C1064 C 0.05957 0.28295 0.52141 0.0
C1065 C 0.32864 0.30826 0.4809 0.0
C1066 C 0.31041 0.28219 0.46053 0.0
C1067 C 0.32025 0.31789 0.51882 0.0
C1068 C 0.29331 0.3018 0.53758 0.0
H1069 H 0.34935 0.32156 0.46699 0.0
H1070 H 0.33522 0.33763 0.53434 0.0
S1071 S 0.23757 0.23239 0.49646 0.0
N1072 N 0.2641 0.24075 0.46177 0.0
N1073 N 0.24846 0.25874 0.53262 0.0
C1074 C 0.27491 0.27587 0.51724 0.0
C1075 C 0.28339 0.26612 0.47885 0.0
C1076 C 0.79685 1.01835 0.52015 0.0
C1077 C 0.77254 1.01266 0.54392 0.0
C1078 C 0.80632 0.03668 0.48298 0.0
C1079 C 0.79225 0.05067 0.46835 0.0
H1080 H 0.80872 1.00853 0.53048 0.0
H1081 H 0.82475 0.03962 0.46512 0.0
S1082 S 0.7288 0.04494 0.5221 0.0
N1083 N 0.73551 1.02384 0.55248 0.0
N1084 N 0.75322 0.05833 0.48239 0.0
C1085 C 0.76837 0.0459 0.49289 0.0
C1086 C 0.75852 1.02688 0.53061 0.0
C1087 C 0.04814 0.78928 0.53001 0.0
C1088 C 0.05985 0.77392 0.5483 0.0
C1089 C 1.03033 0.77965 0.49218 0.0
C1090 C 1.02295 0.75393 0.47121 0.0
H1091 H 0.05263 0.80899 0.5453 0.0
H1092 H 1.02244 0.79266 0.4789 0.0
S1093 S 0.04763 0.70532 0.50558 0.0
N1094 N 0.06249 0.73133 0.5426 0.0
N1095 N 1.02918 0.71336 0.47094 0.0
C1096 C 1.03443 0.73821 0.48897 0.0
C1097 C 0.05285 0.74818 0.52753 0.0
C1098 C 0.12829 0.38975 0.85222 0.0
C1099 C 0.11937 0.37168 0.89022 0.0
C1100 C 0.12291 0.37942 0.80749 0.0
C1101 C 0.10829 0.35049 0.79849 0.0
H1102 H 0.13948 0.41227 0.85687 0.0
H1103 H 0.1301 0.39433 0.77977 0.0
S1104 S 0.08082 0.29398 0.88564 0.0
N1105 N 0.09553 0.32326 0.91556 0.0
N1106 N 0.08537 0.30373 0.83181 0.0
C1107 C 0.09947 0.33209 0.83615 0.0
C1108 C 0.10501 0.34267 0.88181 0.0
C1109 C 0.72745 0.77372 0.87581 0.0
C1110 C 0.69862 0.7609 0.88455 0.0
C1111 C 0.73785 0.77913 0.83119 0.0
C1112 C 0.71991 0.77203 0.79318 0.0
H1113 H 0.74218 0.77937 0.90362 0.0
H1114 H 0.76026 0.78882 0.82659 0.0
S1115 S 0.64262 0.739 0.79728 0.0
N1116 N 0.65219 0.74192 0.85109 0.0
N1117 N 0.67182 0.75208 0.76757 0.0
C1118 C 0.69105 0.75956 0.8014 0.0
C1119 C 0.68041 0.75401 0.84688 0.0
C1120 C 0.32206 0.94599 0.83642 0.0
C1121 C 0.31015 0.95057 0.87574 0.0
C1122 C 0.31509 0.95051 0.7924 0.0
C1123 C 0.29596 0.95988 0.78574 0.0
H1124 H 0.33727 0.93921 0.83955 0.0
H1125 H 0.32532 0.9473 0.7635 0.0
S1126 S 0.25712 0.97298 0.87684 0.0
N1127 N 0.2771 0.96366 0.90453 0.0
N1128 N 0.2639 0.972 0.82244 0.0
C1129 C 0.28333 0.96383 0.82471 0.0
C1130 C 0.29045 0.95925 0.86944 0.0
C1131 C 0.3611 0.09582 0.13171 0.0
C1132 C 0.39003 0.10926 0.12351 0.0
C1133 C 0.3504 0.09146 0.1761 0.0
C1134 C 0.36805 0.10034 0.21468 0.0
H1135 H 0.34643 0.08832 0.1036 0.0
H1136 H 0.32789 0.08074 0.18003 0.0
S1137 S 0.44559 0.1373 0.21234 0.0
N1138 N 0.43638 0.13206 0.15822 0.0
N1139 N 0.41611 0.12375 0.24143 0.0
C1140 C 0.39707 0.11422 0.2071 0.0
C1141 C 0.40806 0.11867 0.16172 0.0
C1142 C 0.964 0.30186 0.20994 0.0
C1143 C 0.97715 0.28604 0.21724 0.0
C1144 C 0.95787 0.30698 0.16585 0.0
C1145 C 0.96451 0.29646 0.12692 0.0
H1146 H 0.95874 0.31078 0.23846 0.0
H1147 H 0.94804 0.31962 0.16241 0.0
S1148 S 0.99786 0.25252 0.12716 0.0
N1149 N 0.99573 0.25892 0.18141 0.0
N1150 N 0.98422 0.26862 0.09893 0.0
C1151 C 0.97717 0.28012 0.1337 0.0
C1152 C 0.98347 0.27491 0.17865 0.0
C1153 C 0.79308 0.72182 0.18356 0.0
C1154 C 0.78551 0.70384 0.22155 0.0
C1155 C 0.78773 0.7114 0.13889 0.0
C1156 C 0.77452 0.68248 0.13009 0.0
H1157 H 0.80308 0.74429 0.18818 0.0
H1158 H 0.79374 0.72618 0.11111 0.0
S1159 S 0.75126 0.62631 0.21735 0.0
N1160 N 0.76467 0.6556 0.24711 0.0
N1161 N 0.75462 0.63591 0.16353 0.0
C1162 C 0.76717 0.66422 0.16777 0.0
C1163 C 0.77265 0.67488 0.21329 0.0
C1164 C 0.963 0.6812 0.20807 0.0
C1165 C 0.97676 0.71011 0.21735 0.0
C1166 C 0.95789 0.67097 0.16318 0.0
C1167 C 0.96623 0.68912 0.12528 0.0
H1168 H 0.95632 0.66624 0.23569 0.0
H1169 H 0.94741 0.6485 0.1583 0.0
S1170 S 1.00231 0.76676 0.13057 0.0
N1171 N 0.99813 0.75688 0.18431 0.0
N1172 N 0.98852 0.73759 0.10043 0.0
C1173 C 0.97969 0.71808 0.13401 0.0
C1174 C 0.98495 0.72855 0.17977 0.0
C1175 C 0.34595 0.27534 0.17476 0.0
C1176 C 0.36352 0.28383 0.21338 0.0
C1177 C 0.35683 0.28059 0.13043 0.0
C1178 C 0.38583 0.29463 0.12257 0.0
H1179 H 0.32343 0.26466 0.17861 0.0
H1180 H 0.34232 0.27383 0.10214 0.0
S1181 S 0.44111 0.32058 0.21176 0.0
N1182 N 0.41151 0.30649 0.24056 0.0
N1183 N 0.43206 0.31637 0.15759 0.0
C1184 C 0.40371 0.30292 0.16088 0.0
C1185 C 0.39257 0.29753 0.20608 0.0
C1186 C 0.77852 0.11374 0.20972 0.0
C1187 C 0.7936 0.09981 0.21676 0.0
C1188 C 0.77321 0.11982 0.16576 0.0
C1189 C 0.78275 0.11236 0.12648 0.0
H1190 H 0.77034 0.11972 0.23838 0.0
H1191 H 0.76118 0.13031 0.16277 0.0
S1192 S 0.8244 0.07663 0.12582 0.0
N1193 N 0.81895 0.0795 0.18027 0.0
N1194 N 0.80886 0.09096 0.09787 0.0
C1195 C 0.79837 0.09893 0.13291 0.0
C1196 C 0.80378 0.09265 0.17786 0.0
C1197 C 0.74042 0.97029 0.83051 0.0
C1198 C 0.72251 0.96194 0.79228 0.0
C1199 C 0.72993 0.96534 0.87523 0.0
C1200 C 0.70102 0.95185 0.88396 0.0
H1201 H 0.76288 0.98092 0.82602 0.0
H1202 H 0.74471 0.97234 0.90315 0.0
S1203 S 0.64496 0.92568 0.79602 0.0
N1204 N 0.67426 0.93937 0.76649 0.0
N1205 N 0.65451 0.93006 0.84995 0.0
C1206 C 0.68282 0.94324 0.846 0.0
C1207 C 0.69354 0.94826 0.80046 0.0
C1208 C 0.12618 0.76641 0.80647 0.0
C1209 C 0.11012 0.77934 0.79972 0.0
C1210 C 0.13288 0.76162 0.8503 0.0
C1211 C 0.12393 0.76954 0.88973 0.0
H1212 H 0.13345 0.75957 0.77766 0.0
H1213 H 0.14507 0.75128 0.85309 0.0
S1214 S 0.08207 0.80504 0.89127 0.0
N1215 N 0.08596 0.80077 0.8367 0.0
N1216 N 0.09862 0.79165 0.9189 0.0
C1217 C 0.10831 0.783 0.88363 0.0
C1218 C 0.10138 0.78788 0.8388 0.0
C1219 C 0.31047 0.37825 0.79844 0.0
C1220 C 0.29493 0.34927 0.79005 0.0
C1221 C 0.31609 0.38892 0.84299 0.0
C1222 C 0.30641 0.37112 0.88131 0.0
H1223 H 0.31874 0.3929 0.77039 0.0
H1224 H 0.32844 0.41142 0.84724 0.0
S1225 S 0.2637 0.29352 0.87831 0.0
N1226 N 0.26909 0.30285 0.82432 0.0
N1227 N 0.27976 0.32298 0.90762 0.0
C1228 C 0.29042 0.34211 0.87348 0.0
C1229 C 0.28467 0.3312 0.82808 0.0
C1230 C 0.07288 0.451 0.50014 0.0
C1231 C 0.05572 0.44459 0.46124 0.0
C1232 C 0.06163 0.44517 0.5443 0.0
C1233 C 1.03267 0.43258 0.55171 0.0
H1234 H 0.09533 0.46044 0.49661 0.0
H1235 H 0.0758 0.45025 0.57281 0.0
S1236 S 0.97846 0.41252 0.46173 0.0
N1237 N 1.00818 0.42559 0.43343 0.0
N1238 N 0.987 0.41465 0.51596 0.0
C1239 C 1.01524 0.42643 0.51313 0.0
C1240 C 1.02674 0.43242 0.46815 0.0
C1241 C 0.65026 0.61058 0.51543 0.0
C1242 C 0.64009 0.6183 0.55357 0.0
C1243 C 0.64489 0.61565 0.47083 0.0
C1244 C 0.62913 0.62871 0.46225 0.0
H1245 H 0.6628 0.60072 0.51989 0.0
H1246 H 0.65355 0.60961 0.44292 0.0
S1247 S 0.59656 0.65201 0.54996 0.0
N1248 N 0.61272 0.63896 0.57951 0.0
N1249 N 0.60251 0.64845 0.49606 0.0
C1250 C 0.61838 0.63612 0.50008 0.0
C1251 C 0.62388 0.63095 0.54554 0.0
C1252 C 0.46485 0.05972 0.50637 0.0
C1253 C 0.45743 0.04189 0.54458 0.0
C1254 C 0.45986 0.04915 0.46163 0.0
C1255 C 0.44715 1.02023 0.45291 0.0
H1256 H 0.47446 0.08216 0.51089 0.0
H1257 H 0.46575 0.06383 0.43371 0.0
S1258 S 0.4245 0.96443 0.54072 0.0
N1259 N 0.43727 0.99375 0.57029 0.0
N1260 N 0.42792 0.97388 0.48682 0.0
C1261 C 0.43995 1.00215 0.49083 0.0
C1262 C 0.44507 1.01294 0.53637 0.0
C1263 C 0.62806 1.00344 0.50076 0.0
C1264 C 0.6346 1.02129 0.46266 0.0
C1265 C 0.6317 1.01371 0.54564 0.0
C1266 C 0.64211 0.0423 0.55441 0.0
H1267 H 0.62035 0.98129 0.49601 0.0
H1268 H 0.62696 0.99923 0.57357 0.0
S1269 S 0.66049 0.09766 0.46698 0.0
N1270 N 0.65072 0.06884 0.43723 0.0
N1271 N 0.65737 0.08812 0.52079 0.0
C1272 C 0.64802 0.06025 0.51658 0.0
C1273 C 0.64436 0.0498 0.47103 0.0
C1274 C 1.01764 0.61439 0.51232 0.0
C1275 C 1.03479 0.61968 0.55101 0.0
C1276 C 1.02855 0.61879 0.46788 0.0
C1277 C 0.05712 0.62874 0.46017 0.0
H1278 H 0.99555 0.60709 0.51627 0.0
H1279 H 1.01461 0.61499 0.43947 0.0
S1280 S 0.11073 0.64393 0.54936 0.0
N1281 N 0.08164 0.63415 0.5781 0.0
N1282 N 0.10211 0.64226 0.49526 0.0
C1283 C 0.07437 0.63345 0.49853 0.0
C1284 C 0.06326 0.629 0.54367 0.0
C1285 C 0.45328 0.42552 0.46756 0.0
C1286 C 0.43938 0.44041 0.45839 0.0
C1287 C 0.45839 0.42053 0.51236 0.0
C1288 C 0.44989 0.43023 0.55017 0.0
H1289 H 0.4601 0.41737 0.43995 0.0
H1290 H 0.469 0.40873 0.51721 0.0
S1291 S 0.41337 0.4711 0.54506 0.0
N1292 N 0.41767 0.46544 0.49132 0.0
N1293 N 0.4273 0.45598 0.57519 0.0
C1294 C 0.43627 0.44546 0.54158 0.0
C1295 C 0.43101 0.45055 0.49588 0.0
loop_
_geom_bond_atom_site_label_1
_geom_bond_atom_site_label_2
_geom_bond_distance
_geom_bond_site_symmetry_2
_ccdc_geom_bond_type
C0 O2 1.247 . S
C0 O4 1.258 . S
C1 O8 1.247 . S
C1 O9 1.258 . S
O2 C0 1.247 . S
O2 Zn3 2.028 1_554 S
Zn3 O2 2.028 1_556 S
Zn3 O7 2.035 . S
Zn3 O9 2.035 . S
Zn3 O10 2.028 . S
O4 C0 1.258 . S
O4 Zn5 2.035 . S
Zn5 O4 2.035 . S
Zn5 O6 2.028 . S
Zn5 O8 2.028 1_554 S
Zn5 O11 2.035 . S
O6 Zn5 2.028 . S
O6 C12 1.247 1_554 S
O7 Zn3 2.035 . S
O7 C12 1.258 . S
O8 C1 1.247 . S
O8 Zn5 2.028 1_556 S
O9 C1 1.258 . S
O9 Zn3 2.035 . S
O10 Zn3 2.028 . S
O10 C13 1.247 1_556 S
O11 Zn5 2.035 . S
O11 C13 1.258 . S
C12 O6 1.247 1_556 S
C12 O7 1.258 . S
C13 O10 1.247 1_554 S
C13 O11 1.258 . S
C14 O16 1.247 . S
C14 O18 1.258 . S
C15 O22 1.247 . S
C15 O23 1.258 . S
O16 C14 1.247 . S
O16 Zn17 2.028 . S
Zn17 O16 2.028 . S
Zn17 O21 2.035 . S
Zn17 O23 2.035 1_556 S
Zn17 O24 2.028 . S
O18 C14 1.258 . S
O18 Zn19 2.035 1_556 S
Zn19 O18 2.035 1_554 S
Zn19 O20 2.028 . S
Zn19 O22 2.028 . S
Zn19 O25 2.035 . S
O20 Zn19 2.028 . S
O20 C26 1.247 . S
O21 Zn17 2.035 . S
O21 C26 1.258 1_556 S
O22 C15 1.247 . S
O22 Zn19 2.028 . S
O23 C15 1.258 . S
O23 Zn17 2.035 1_554 S
O24 Zn17 2.028 . S
O24 C27 1.247 . S
O25 Zn19 2.035 . S
O25 C27 1.258 1_554 S
C26 O20 1.247 . S
C26 O21 1.258 1_554 S
C27 O24 1.247 . S
C27 O25 1.258 1_556 S
C28 O30 1.247 1_556 S
C28 O32 1.258 . S
C29 O36 1.247 1_554 S
C29 O37 1.258 . S
O30 C28 1.247 1_554 S
O30 Zn31 2.028 . S
Zn31 O30 2.028 . S
Zn31 O35 2.035 . S
Zn31 O37 2.035 . S
Zn31 O38 2.028 1_554 S
O32 C28 1.258 . S
O32 Zn33 2.035 . S
Zn33 O32 2.035 . S
Zn33 O34 2.028 1_556 S
Zn33 O36 2.028 . S
Zn33 O39 2.035 . S
O34 Zn33 2.028 1_554 S
O34 C40 1.247 . S
O35 Zn31 2.035 . S
O35 C40 1.258 . S
O36 C29 1.247 1_556 S
O36 Zn33 2.028 . S
O37 C29 1.258 . S
O37 Zn31 2.035 . S
O38 Zn31 2.028 1_556 S
O38 C41 1.247 . S
O39 Zn33 2.035 . S
O39 C41 1.258 . S
C40 O34 1.247 . S
C40 O35 1.258 . S
C41 O38 1.247 . S
C41 O39 1.258 . S
C42 O44 1.247 . S
C42 O46 1.258 1_556 S
C43 O50 1.247 . S
C43 O51 1.258 1_554 S
O44 C42 1.247 . S
O44 Zn45 2.028 . S
Zn45 O44 2.028 . S
Zn45 O49 2.035 1_556 S
Zn45 O51 2.035 . S
Zn45 O52 2.028 . S
O46 C42 1.258 1_554 S
O46 Zn47 2.035 . S
Zn47 O46 2.035 . S
Zn47 O48 2.028 . S
Zn47 O50 2.028 . S
Zn47 O53 2.035 1_554 S
O48 Zn47 2.028 . S
O48 C54 1.247 . S
O49 Zn45 2.035 1_554 S
O49 C54 1.258 . S
O50 C43 1.247 . S
O50 Zn47 2.028 . S
O51 C43 1.258 1_556 S
O51 Zn45 2.035 . S
O52 Zn45 2.028 . S
O52 C55 1.247 . S
O53 Zn47 2.035 1_556 S
O53 C55 1.258 . S
C54 O48 1.247 . S
C54 O49 1.258 . S
C55 O52 1.247 . S
C55 O53 1.258 . S
C56 O58 1.247 . S
C56 O60 1.258 . S
C57 O64 1.247 . S
C57 O65 1.258 . S
O58 C56 1.247 . S
O58 Zn59 2.028 . S
Zn59 O58 2.028 . S
Zn59 O63 2.035 . S
Zn59 O65 2.035 1_554 S
Zn59 O66 2.028 . S
O60 C56 1.258 . S
O60 Zn61 2.035 1_554 S
Zn61 O60 2.035 1_556 S
Zn61 O62 2.028 . S
Zn61 O64 2.028 . S
Zn61 O67 2.035 . S
O62 Zn61 2.028 . S
O62 C68 1.247 . S
O63 Zn59 2.035 . S
O63 C68 1.258 1_554 S
O64 C57 1.247 . S
O64 Zn61 2.028 . S
O65 C57 1.258 . S
O65 Zn59 2.035 1_556 S
O66 Zn59 2.028 . S
O66 C69 1.247 . S
O67 Zn61 2.035 . S
O67 C69 1.258 1_556 S
C68 O62 1.247 . S
C68 O63 1.258 1_556 S
C69 O66 1.247 . S
C69 O67 1.258 1_554 S
C70 O72 1.247 . S
C70 O74 1.258 . S
C71 O78 1.247 . S
C71 O79 1.258 . S
O72 C70 1.247 . S
O72 Zn73 2.028 1_556 S
Zn73 O72 2.028 1_554 S
Zn73 O77 2.035 . S
Zn73 O79 2.035 . S
Zn73 O80 2.028 . S
O74 C70 1.258 . S
O74 Zn75 2.035 . S
Zn75 O74 2.035 . S
Zn75 O76 2.028 . S
Zn75 O78 2.028 1_556 S
Zn75 O81 2.035 . S
O76 Zn75 2.028 . S
O76 C82 1.247 1_556 S
O77 Zn73 2.035 . S
O77 C82 1.258 . S
O78 C71 1.247 . S
O78 Zn75 2.028 1_554 S
O79 C71 1.258 . S
O79 Zn73 2.035 . S
O80 Zn73 2.028 . S
O80 C83 1.247 1_554 S
O81 Zn75 2.035 . S
O81 C83 1.258 . S
C82 O76 1.247 1_554 S
C82 O77 1.258 . S
C83 O80 1.247 1_556 S
C83 O81 1.258 . S
C84 O86 1.247 1_556 S
C84 O88 1.258 . S
C85 O92 1.247 1_554 S
C85 O93 1.258 . S
O86 C84 1.247 1_554 S
O86 Zn87 2.028 . S
Zn87 O86 2.028 . S
Zn87 O91 2.035 . S
Zn87 O93 2.035 . S
Zn87 O94 2.028 1_554 S
O88 C84 1.258 . S
O88 Zn89 2.035 . S
Zn89 O88 2.035 . S
Zn89 O90 2.028 1_556 S
Zn89 O92 2.028 . S
Zn89 O95 2.035 . S
O90 Zn89 2.028 1_554 S
O90 C96 1.247 . S
O91 Zn87 2.035 . S
O91 C96 1.258 . S
O92 C85 1.247 1_556 S
O92 Zn89 2.028 . S
O93 C85 1.258 . S
O93 Zn87 2.035 . S
O94 Zn87 2.028 1_556 S
O94 C97 1.247 . S
O95 Zn89 2.035 . S
O95 C97 1.258 . S
C96 O90 1.247 . S
C96 O91 1.258 . S
C97 O94 1.247 . S
C97 O95 1.258 . S
C98 O100 1.247 . S
C98 O102 1.258 . S
C99 O106 1.247 . S
C99 O107 1.258 . S
O100 C98 1.247 . S
O100 Zn101 2.028 1_554 S
Zn101 O100 2.028 1_556 S
Zn101 O105 2.035 . S
Zn101 O107 2.035 . S
Zn101 O108 2.028 . S
O102 C98 1.258 . S
O102 Zn103 2.035 . S
Zn103 O102 2.035 . S
Zn103 O104 2.028 . S
Zn103 O106 2.028 1_554 S
Zn103 O109 2.035 . S
O104 Zn103 2.028 . S
O104 C110 1.247 1_554 S
O105 Zn101 2.035 . S
O105 C110 1.258 . S
O106 C99 1.247 . S
O106 Zn103 2.028 1_556 S
O107 C99 1.258 . S
O107 Zn101 2.035 . S
O108 Zn101 2.028 . S
O108 C111 1.247 1_556 S
O109 Zn103 2.035 . S
O109 C111 1.258 . S
C110 O104 1.247 1_556 S
C110 O105 1.258 . S
C111 O108 1.247 1_554 S
C111 O109 1.258 . S
C112 O114 1.247 . S
C112 O116 1.258 . S
C113 O120 1.247 . S
C113 O121 1.258 . S
O114 C112 1.247 . S
O114 Zn115 2.028 1_554 S
Zn115 O114 2.028 1_556 S
Zn115 O119 2.035 . S
Zn115 O121 2.035 . S
Zn115 O122 2.028 . S
O116 C112 1.258 . S
O116 Zn117 2.035 . S
Zn117 O116 2.035 . S
Zn117 O118 2.028 . S
Zn117 O120 2.028 1_554 S
Zn117 O123 2.035 . S
O118 Zn117 2.028 . S
O118 C124 1.247 1_554 S
O119 Zn115 2.035 . S
O119 C124 1.258 . S
O120 C113 1.247 . S
O120 Zn117 2.028 1_556 S
O121 C113 1.258 . S
O121 Zn115 2.035 . S
O122 Zn115 2.028 . S
O122 C125 1.247 1_556 S
O123 Zn117 2.035 . S
O123 C125 1.258 . S
C124 O118 1.247 1_556 S
C124 O119 1.258 . S
C125 O122 1.247 1_554 S
C125 O123 1.258 . S
C126 O128 1.247 . S
C126 O130 1.258 . S
C127 O134 1.247 . S
C127 O135 1.258 . S
O128 C126 1.247 . S
O128 Zn129 2.028 . S
Zn129 O128 2.028 . S
Zn129 O133 2.035 . S
Zn129 O135 2.035 1_554 S
Zn129 O136 2.028 . S
O130 C126 1.258 . S
O130 Zn131 2.035 1_554 S
Zn131 O130 2.035 1_556 S
Zn131 O132 2.028 . S
Zn131 O134 2.028 . S
Zn131 O137 2.035 . S
O132 Zn131 2.028 . S
O132 C138 1.247 . S
O133 Zn129 2.035 . S
O133 C138 1.258 1_554 S
O134 C127 1.247 . S
O134 Zn131 2.028 . S
O135 C127 1.258 . S
O135 Zn129 2.035 1_556 S
O136 Zn129 2.028 . S
O136 C139 1.247 . S
O137 Zn131 2.035 . S
O137 C139 1.258 1_556 S
C138 O132 1.247 . S
C138 O133 1.258 1_556 S
C139 O136 1.247 . S
C139 O137 1.258 1_554 S
C140 O142 1.247 . S
C140 O144 1.258 . S
C141 O148 1.247 . S
C141 O149 1.258 . S
O142 C140 1.247 . S
O142 Zn143 2.028 . S
Zn143 O142 2.028 . S
Zn143 O147 2.035 . S
Zn143 O149 2.035 1_554 S
Zn143 O150 2.028 . S
O144 C140 1.258 . S
O144 Zn145 2.035 1_554 S
Zn145 O144 2.035 1_556 S
Zn145 O146 2.028 . S
Zn145 O148 2.028 . S
Zn145 O151 2.035 . S
O146 Zn145 2.028 . S
O146 C152 1.247 . S
O147 Zn143 2.035 . S
O147 C152 1.258 1_554 S
O148 C141 1.247 . S
O148 Zn145 2.028 . S
O149 C141 1.258 . S
O149 Zn143 2.035 1_556 S
O150 Zn143 2.028 . S
O150 C153 1.247 . S
O151 Zn145 2.035 . S
O151 C153 1.258 1_556 S
C152 O146 1.247 . S
C152 O147 1.258 1_556 S
C153 O150 1.247 . S
C153 O151 1.258 1_554 S
C154 O156 1.247 . S
C154 O158 1.258 . S
C155 O162 1.247 . S
C155 O163 1.258 . S
O156 C154 1.247 . S
O156 Zn157 2.028 1_556 S
Zn157 O156 2.028 1_554 S
Zn157 O161 2.035 . S
Zn157 O163 2.035 . S
Zn157 O164 2.028 . S
O158 C154 1.258 . S
O158 Zn159 2.035 . S
Zn159 O158 2.035 . S
Zn159 O160 2.028 . S
Zn159 O162 2.028 1_556 S
Zn159 O165 2.035 . S
O160 Zn159 2.028 . S
O160 C166 1.247 1_556 S
O161 Zn157 2.035 . S
O161 C166 1.258 . S
O162 C155 1.247 . S
O162 Zn159 2.028 1_554 S
O163 C155 1.258 . S
O163 Zn157 2.035 . S
O164 Zn157 2.028 . S
O164 C167 1.247 1_554 S
O165 Zn159 2.035 . S
O165 C167 1.258 . S
C166 O160 1.247 1_554 S
C166 O161 1.258 . S
C167 O164 1.247 1_556 S
C167 O165 1.258 . S
C168 O170 1.247 . S
C168 O172 1.258 . S
C169 O176 1.247 . S
C169 O177 1.258 . S
O170 C168 1.247 . S
O170 Zn171 2.028 . S
Zn171 O170 2.028 . S
Zn171 O175 2.035 . S
Zn171 O177 2.035 . S
Zn171 O178 2.028 . S
O172 C168 1.258 . S
O172 Zn173 2.035 . S
Zn173 O172 2.035 . S
Zn173 O174 2.028 . S
Zn173 O176 2.028 . S
Zn173 O179 2.035 . S
O174 Zn173 2.028 . S
O174 C180 1.247 . S
O175 Zn171 2.035 . S
O175 C180 1.258 . S
O176 C169 1.247 . S
O176 Zn173 2.028 . S
O177 C169 1.258 . S
O177 Zn171 2.035 . S
O178 Zn171 2.028 . S
O178 C181 1.247 . S
O179 Zn173 2.035 . S
O179 C181 1.258 . S
C180 O174 1.247 . S
C180 O175 1.258 . S
C181 O178 1.247 . S
C181 O179 1.258 . S
C182 O184 1.247 . S
C182 O186 1.258 . S
C183 O190 1.247 . S
C183 O191 1.258 . S
O184 C182 1.247 . S
O184 Zn185 2.028 . S
Zn185 O184 2.028 . S
Zn185 O189 2.035 . S
Zn185 O191 2.035 . S
Zn185 O192 2.028 1_545 S
O186 C182 1.258 . S
O186 Zn187 2.035 . S
Zn187 O186 2.035 . S
Zn187 O188 2.028 . S
Zn187 O190 2.028 . S
Zn187 O193 2.035 . S
O188 Zn187 2.028 . S
O188 C194 1.247 . S
O189 Zn185 2.035 . S
O189 C194 1.258 . S
O190 C183 1.247 . S
O190 Zn187 2.028 . S
O191 C183 1.258 . S
O191 Zn185 2.035 . S
O192 Zn185 2.028 1_565 S
O192 C195 1.247 1_565 S
O193 Zn187 2.035 . S
O193 C195 1.258 . S
C194 O188 1.247 . S
C194 O189 1.258 . S
C195 O192 1.247 1_545 S
C195 O193 1.258 . S
C196 O198 1.247 . S
C196 O200 1.258 . S
C197 O204 1.247 . S
C197 O205 1.258 . S
O198 C196 1.247 . S
O198 Zn199 2.028 . S
Zn199 O198 2.028 . S
Zn199 O203 2.035 1_655 S
Zn199 O205 2.035 . S
Zn199 O206 2.028 . S
O200 C196 1.258 . S
O200 Zn201 2.035 . S
Zn201 O200 2.035 . S
Zn201 O202 2.028 . S
Zn201 O204 2.028 . S
Zn201 O207 2.035 . S
O202 Zn201 2.028 . S
O202 C208 1.247 . S
O203 Zn199 2.035 1_455 S
O203 C208 1.258 1_455 S
O204 C197 1.247 . S
O204 Zn201 2.028 . S
O205 C197 1.258 . S
O205 Zn199 2.035 . S
O206 Zn199 2.028 . S
O206 C209 1.247 . S
O207 Zn201 2.035 . S
O207 C209 1.258 . S
C208 O202 1.247 . S
C208 O203 1.258 1_655 S
C209 O206 1.247 . S
C209 O207 1.258 . S
C210 O212 1.247 . S
C210 O214 1.258 . S
C211 O218 1.247 . S
C211 O219 1.258 . S
O212 C210 1.247 . S
O212 Zn213 2.028 . S
Zn213 O212 2.028 . S
Zn213 O217 2.035 . S
Zn213 O219 2.035 . S
Zn213 O220 2.028 . S
O214 C210 1.258 . S
O214 Zn215 2.035 . S
Zn215 O214 2.035 . S
Zn215 O216 2.028 . S
Zn215 O218 2.028 . S
Zn215 O221 2.035 . S
O216 Zn215 2.028 . S
O216 C222 1.247 . S
O217 Zn213 2.035 . S
O217 C222 1.258 . S
O218 C211 1.247 . S
O218 Zn215 2.028 . S
O219 C211 1.258 . S
O219 Zn213 2.035 . S
O220 Zn213 2.028 . S
O220 C223 1.247 . S
O221 Zn215 2.035 . S
O221 C223 1.258 . S
C222 O216 1.247 . S
C222 O217 1.258 . S
C223 O220 1.247 . S
C223 O221 1.258 . S
C224 O226 1.247 . S
C224 O228 1.258 . S
C225 O232 1.247 . S
C225 O233 1.258 . S
O226 C224 1.247 . S
O226 Zn227 2.028 . S
Zn227 O226 2.028 . S
Zn227 O231 2.035 . S
Zn227 O233 2.035 . S
Zn227 O234 2.028 . S
O228 C224 1.258 . S
O228 Zn229 2.035 . S
Zn229 O228 2.035 . S
Zn229 O230 2.028 . S
Zn229 O232 2.028 . S
Zn229 O235 2.035 . S
O230 Zn229 2.028 . S
O230 C236 1.247 . S
O231 Zn227 2.035 . S
O231 C236 1.258 . S
O232 C225 1.247 . S
O232 Zn229 2.028 . S
O233 C225 1.258 . S
O233 Zn227 2.035 . S
O234 Zn227 2.028 . S
O234 C237 1.247 . S
O235 Zn229 2.035 . S
O235 C237 1.258 . S
C236 O230 1.247 . S
C236 O231 1.258 . S
C237 O234 1.247 . S
C237 O235 1.258 . S
C238 O240 1.247 . S
C238 O242 1.258 . S
C239 O246 1.247 . S
C239 O247 1.258 . S
O240 C238 1.247 . S
O240 Zn241 2.028 . S
Zn241 O240 2.028 . S
Zn241 O245 2.035 . S
Zn241 O247 2.035 . S
Zn241 O248 2.028 . S
O242 C238 1.258 . S
O242 Zn243 2.035 . S
Zn243 O242 2.035 . S
Zn243 O244 2.028 . S
Zn243 O246 2.028 . S
Zn243 O249 2.035 . S
O244 Zn243 2.028 . S
O244 C250 1.247 . S
O245 Zn241 2.035 . S
O245 C250 1.258 . S
O246 C239 1.247 . S
O246 Zn243 2.028 . S
O247 C239 1.258 . S
O247 Zn241 2.035 . S
O248 Zn241 2.028 . S
O248 C251 1.247 . S
O249 Zn243 2.035 . S
O249 C251 1.258 . S
C250 O244 1.247 . S
C250 O245 1.258 . S
C251 O248 1.247 . S
C251 O249 1.258 . S
C252 O254 1.247 . S
C252 O256 1.258 . S
C253 O260 1.247 . S
C253 O261 1.258 . S
O254 C252 1.247 . S
O254 Zn255 2.028 . S
Zn255 O254 2.028 . S
Zn255 O259 2.035 . S
Zn255 O261 2.035 . S
Zn255 O262 2.028 . S
O256 C252 1.258 . S
O256 Zn257 2.035 . S
Zn257 O256 2.035 . S
Zn257 O258 2.028 . S
Zn257 O260 2.028 . S
Zn257 O263 2.035 . S
O258 Zn257 2.028 . S
O258 C264 1.247 . S
O259 Zn255 2.035 . S
O259 C264 1.258 . S
O260 C253 1.247 . S
O260 Zn257 2.028 . S
O261 C253 1.258 . S
O261 Zn255 2.035 . S
O262 Zn255 2.028 . S
O262 C265 1.247 . S
O263 Zn257 2.035 . S
O263 C265 1.258 . S
C264 O258 1.247 . S
C264 O259 1.258 . S
C265 O262 1.247 . S
C265 O263 1.258 . S
C266 O268 1.247 . S
C266 O270 1.258 . S
C267 O274 1.247 . S
C267 O275 1.258 . S
O268 C266 1.247 . S
O268 Zn269 2.028 . S
Zn269 O268 2.028 . S
Zn269 O273 2.035 . S
Zn269 O275 2.035 . S
Zn269 O276 2.028 . S
O270 C266 1.258 . S
O270 Zn271 2.035 . S
Zn271 O270 2.035 . S
Zn271 O272 2.028 . S
Zn271 O274 2.028 . S
Zn271 O277 2.035 . S
O272 Zn271 2.028 . S
O272 C278 1.247 . S
O273 Zn269 2.035 . S
O273 C278 1.258 . S
O274 C267 1.247 . S
O274 Zn271 2.028 . S
O275 C267 1.258 . S
O275 Zn269 2.035 . S
O276 Zn269 2.028 . S
O276 C279 1.247 . S
O277 Zn271 2.035 . S
O277 C279 1.258 . S
C278 O272 1.247 . S
C278 O273 1.258 . S
C279 O276 1.247 . S
C279 O277 1.258 . S
C280 O282 1.247 . S
C280 O284 1.258 . S
C281 O288 1.247 . S
C281 O289 1.258 . S
O282 C280 1.247 . S
O282 Zn283 2.028 . S
Zn283 O282 2.028 . S
Zn283 O287 2.035 . S
Zn283 O289 2.035 . S
Zn283 O290 2.028 . S
O284 C280 1.258 . S
O284 Zn285 2.035 . S
Zn285 O284 2.035 . S
Zn285 O286 2.028 . S
Zn285 O288 2.028 . S
Zn285 O291 2.035 . S
O286 Zn285 2.028 . S
O286 C292 1.247 . S
O287 Zn283 2.035 . S
O287 C292 1.258 . S
O288 C281 1.247 . S
O288 Zn285 2.028 . S
O289 C281 1.258 . S
O289 Zn283 2.035 . S
O290 Zn283 2.028 . S
O290 C293 1.247 . S
O291 Zn285 2.035 . S
O291 C293 1.258 . S
C292 O286 1.247 . S
C292 O287 1.258 . S
C293 O290 1.247 . S
C293 O291 1.258 . S
C294 O296 1.247 . S
C294 O298 1.258 . S
C295 O302 1.247 . S
C295 O303 1.258 . S
O296 C294 1.247 . S
O296 Zn297 2.028 . S
Zn297 O296 2.028 . S
Zn297 O301 2.035 . S
Zn297 O303 2.035 . S
Zn297 O304 2.028 . S
O298 C294 1.258 . S
O298 Zn299 2.035 . S
Zn299 O298 2.035 . S
Zn299 O300 2.028 . S
Zn299 O302 2.028 . S
Zn299 O305 2.035 . S
O300 Zn299 2.028 . S
O300 C306 1.247 . S
O301 Zn297 2.035 . S
O301 C306 1.258 . S
O302 C295 1.247 . S
O302 Zn299 2.028 . S
O303 C295 1.258 . S
O303 Zn297 2.035 . S
O304 Zn297 2.028 . S
O304 C307 1.247 . S
O305 Zn299 2.035 . S
O305 C307 1.258 . S
C306 O300 1.247 . S
C306 O301 1.258 . S
C307 O304 1.247 . S
C307 O305 1.258 . S
C308 O310 1.247 . S
C308 O312 1.258 . S
C309 O316 1.247 . S
C309 O317 1.258 1_545 S
O310 C308 1.247 . S
O310 Zn311 2.028 . S
Zn311 O310 2.028 . S
Zn311 O315 2.035 . S
Zn311 O317 2.035 1_545 S
Zn311 O318 2.028 . S
O312 C308 1.258 . S
O312 Zn313 2.035 . S
Zn313 O312 2.035 . S
Zn313 O314 2.028 . S
Zn313 O316 2.028 . S
Zn313 O319 2.035 . S
O314 Zn313 2.028 . S
O314 C320 1.247 . S
O315 Zn311 2.035 . S
O315 C320 1.258 . S
O316 C309 1.247 . S
O316 Zn313 2.028 . S
O317 C309 1.258 1_565 S
O317 Zn311 2.035 1_565 S
O318 Zn311 2.028 . S
O318 C321 1.247 . S
O319 Zn313 2.035 . S
O319 C321 1.258 . S
C320 O314 1.247 . S
C320 O315 1.258 . S
C321 O318 1.247 . S
C321 O319 1.258 . S
C322 O324 1.247 1_655 S
C322 O326 1.258 . S
C323 O330 1.247 . S
C323 O331 1.258 . S
O324 C322 1.247 1_455 S
O324 Zn325 2.028 1_455 S
Zn325 O324 2.028 1_655 S
Zn325 O329 2.035 . S
Zn325 O331 2.035 . S
Zn325 O332 2.028 . S
O326 C322 1.258 . S
O326 Zn327 2.035 . S
Zn327 O326 2.035 . S
Zn327 O328 2.028 . S
Zn327 O330 2.028 . S
Zn327 O333 2.035 . S
O328 Zn327 2.028 . S
O328 C334 1.247 . S
O329 Zn325 2.035 . S
O329 C334 1.258 . S
O330 C323 1.247 . S
O330 Zn327 2.028 . S
O331 C323 1.258 . S
O331 Zn325 2.035 . S
O332 Zn325 2.028 . S
O332 C335 1.247 . S
O333 Zn327 2.035 . S
O333 C335 1.258 . S
C334 O328 1.247 . S
C334 O329 1.258 . S
C335 O332 1.247 . S
C335 O333 1.258 . S
C336 O338 1.247 . S
C336 O340 1.258 . S
C337 O344 1.247 . S
C337 O345 1.258 . S
O338 C336 1.247 . S
O338 Zn339 2.028 . S
Zn339 O338 2.028 . S
Zn339 O343 2.035 . S
Zn339 O345 2.035 . S
Zn339 O346 2.028 . S
O340 C336 1.258 . S
O340 Zn341 2.035 . S
Zn341 O340 2.035 . S
Zn341 O342 2.028 . S
Zn341 O344 2.028 . S
Zn341 O347 2.035 . S
O342 Zn341 2.028 . S
O342 C348 1.247 . S
O343 Zn339 2.035 . S
O343 C348 1.258 . S
O344 C337 1.247 . S
O344 Zn341 2.028 . S
O345 C337 1.258 . S
O345 Zn339 2.035 . S
O346 Zn339 2.028 . S
O346 C349 1.247 . S
O347 Zn341 2.035 . S
O347 C349 1.258 . S
C348 O342 1.247 . S
C348 O343 1.258 . S
C349 O346 1.247 . S
C349 O347 1.258 . S
C350 O352 1.247 . S
C350 O354 1.258 . S
C351 O358 1.247 . S
C351 O359 1.258 . S
O352 C350 1.247 . S
O352 Zn353 2.028 . S
Zn353 O352 2.028 . S
Zn353 O357 2.035 . S
Zn353 O359 2.035 . S
Zn353 O360 2.028 . S
O354 C350 1.258 . S
O354 Zn355 2.035 . S
Zn355 O354 2.035 . S
Zn355 O356 2.028 . S
Zn355 O358 2.028 . S
Zn355 O361 2.035 . S
O356 Zn355 2.028 . S
O356 C362 1.247 . S
O357 Zn353 2.035 . S
O357 C362 1.258 . S
O358 C351 1.247 . S
O358 Zn355 2.028 . S
O359 C351 1.258 . S
O359 Zn353 2.035 . S
O360 Zn353 2.028 . S
O360 C363 1.247 . S
O361 Zn355 2.035 . S
O361 C363 1.258 . S
C362 O356 1.247 . S
C362 O357 1.258 . S
C363 O360 1.247 . S
C363 O361 1.258 . S
C364 O366 1.247 . S
C364 O368 1.258 . S
C365 O372 1.247 . S
C365 O373 1.258 . S
O366 C364 1.247 . S
O366 Zn367 2.028 . S
Zn367 O366 2.028 . S
Zn367 O371 2.035 . S
Zn367 O373 2.035 . S
Zn367 O374 2.028 . S
O368 C364 1.258 . S
O368 Zn369 2.035 . S
Zn369 O368 2.035 . S
Zn369 O370 2.028 . S
Zn369 O372 2.028 . S
Zn369 O375 2.035 . S
O370 Zn369 2.028 . S
O370 C376 1.247 . S
O371 Zn367 2.035 . S
O371 C376 1.258 . S
O372 C365 1.247 . S
O372 Zn369 2.028 . S
O373 C365 1.258 . S
O373 Zn367 2.035 . S
O374 Zn367 2.028 . S
O374 C377 1.247 . S
O375 Zn369 2.035 . S
O375 C377 1.258 . S
C376 O370 1.247 . S
C376 O371 1.258 . S
C377 O374 1.247 . S
C377 O375 1.258 . S
C378 O380 1.247 . S
C378 O382 1.258 . S
C379 O386 1.247 . S
C379 O387 1.258 . S
O380 C378 1.247 . S
O380 Zn381 2.028 . S
Zn381 O380 2.028 . S
Zn381 O385 2.035 . S
Zn381 O387 2.035 . S
Zn381 O388 2.028 . S
O382 C378 1.258 . S
O382 Zn383 2.035 . S
Zn383 O382 2.035 . S
Zn383 O384 2.028 . S
Zn383 O386 2.028 . S
Zn383 O389 2.035 . S
O384 Zn383 2.028 . S
O384 C390 1.247 . S
O385 Zn381 2.035 . S
O385 C390 1.258 . S
O386 C379 1.247 . S
O386 Zn383 2.028 . S
O387 C379 1.258 . S
O387 Zn381 2.035 . S
O388 Zn381 2.028 . S
O388 C391 1.247 . S
O389 Zn383 2.035 . S
O389 C391 1.258 . S
C390 O384 1.247 . S
C390 O385 1.258 . S
C391 O388 1.247 . S
C391 O389 1.258 . S
C392 O394 1.247 . S
C392 O396 1.258 . S
C393 O400 1.247 . S
C393 O401 1.258 . S
O394 C392 1.247 . S
O394 Zn395 2.028 . S
Zn395 O394 2.028 . S
Zn395 O399 2.035 1_565 S
Zn395 O401 2.035 . S
Zn395 O402 2.028 . S
O396 C392 1.258 . S
O396 Zn397 2.035 . S
Zn397 O396 2.035 . S
Zn397 O398 2.028 . S
Zn397 O400 2.028 . S
Zn397 O403 2.035 . S
O398 Zn397 2.028 . S
O398 C404 1.247 . S
O399 Zn395 2.035 1_545 S
O399 C404 1.258 1_545 S
O400 C393 1.247 . S
O400 Zn397 2.028 . S
O401 C393 1.258 . S
O401 Zn395 2.035 . S
O402 Zn395 2.028 . S
O402 C405 1.247 . S
O403 Zn397 2.035 . S
O403 C405 1.258 . S
C404 O398 1.247 . S
C404 O399 1.258 1_565 S
C405 O402 1.247 . S
C405 O403 1.258 . S
C406 O408 1.247 . S
C406 O410 1.258 . S
C407 O414 1.247 1_455 S
C407 O415 1.258 . S
O408 C406 1.247 . S
O408 Zn409 2.028 . S
Zn409 O408 2.028 . S
Zn409 O413 2.035 . S
Zn409 O415 2.035 . S
Zn409 O416 2.028 . S
O410 C406 1.258 . S
O410 Zn411 2.035 . S
Zn411 O410 2.035 . S
Zn411 O412 2.028 . S
Zn411 O414 2.028 1_455 S
Zn411 O417 2.035 . S
O412 Zn411 2.028 . S
O412 C418 1.247 . S
O413 Zn409 2.035 . S
O413 C418 1.258 . S
O414 C407 1.247 1_655 S
O414 Zn411 2.028 1_655 S
O415 C407 1.258 . S
O415 Zn409 2.035 . S
O416 Zn409 2.028 . S
O416 C419 1.247 . S
O417 Zn411 2.035 . S
O417 C419 1.258 . S
C418 O412 1.247 . S
C418 O413 1.258 . S
C419 O416 1.247 . S
C419 O417 1.258 . S
C420 O422 1.247 . S
C420 O424 1.258 . S
C421 O428 1.247 . S
C421 O429 1.258 . S
O422 C420 1.247 . S
O422 Zn423 2.028 . S
Zn423 O422 2.028 . S
Zn423 O427 2.035 . S
Zn423 O429 2.035 . S
Zn423 O430 2.028 . S
O424 C420 1.258 . S
O424 Zn425 2.035 . S
Zn425 O424 2.035 . S
Zn425 O426 2.028 . S
Zn425 O428 2.028 . S
Zn425 O431 2.035 . S
O426 Zn425 2.028 . S
O426 C432 1.247 . S
O427 Zn423 2.035 . S
O427 C432 1.258 . S
O428 C421 1.247 . S
O428 Zn425 2.028 . S
O429 C421 1.258 . S
O429 Zn423 2.035 . S
O430 Zn423 2.028 . S
O430 C433 1.247 . S
O431 Zn425 2.035 . S
O431 C433 1.258 . S
C432 O426 1.247 . S
C432 O427 1.258 . S
C433 O430 1.247 . S
C433 O431 1.258 . S
C434 O436 1.247 . S
C434 O438 1.258 . S
C435 O442 1.247 . S
C435 O443 1.258 . S
O436 C434 1.247 . S
O436 Zn437 2.028 . S
Zn437 O436 2.028 . S
Zn437 O441 2.035 . S
Zn437 O443 2.035 . S
Zn437 O444 2.028 . S
O438 C434 1.258 . S
O438 Zn439 2.035 . S
Zn439 O438 2.035 . S
Zn439 O440 2.028 1_565 S
Zn439 O442 2.028 . S
Zn439 O445 2.035 . S
O440 Zn439 2.028 1_545 S
O440 C446 1.247 1_545 S
O441 Zn437 2.035 . S
O441 C446 1.258 . S
O442 C435 1.247 . S
O442 Zn439 2.028 . S
O443 C435 1.258 . S
O443 Zn437 2.035 . S
O444 Zn437 2.028 . S
O444 C447 1.247 . S
O445 Zn439 2.035 . S
O445 C447 1.258 . S
C446 O440 1.247 1_565 S
C446 O441 1.258 . S
C447 O444 1.247 . S
C447 O445 1.258 . S
C448 O450 1.247 1_455 S
C448 O452 1.258 . S
C449 O456 1.247 . S
C449 O457 1.258 . S
O450 C448 1.247 1_655 S
O450 Zn451 2.028 1_655 S
Zn451 O450 2.028 1_455 S
Zn451 O455 2.035 . S
Zn451 O457 2.035 . S
Zn451 O458 2.028 . S
O452 C448 1.258 . S
O452 Zn453 2.035 . S
Zn453 O452 2.035 . S
Zn453 O454 2.028 . S
Zn453 O456 2.028 . S
Zn453 O459 2.035 . S
O454 Zn453 2.028 . S
O454 C460 1.247 . S
O455 Zn451 2.035 . S
O455 C460 1.258 . S
O456 C449 1.247 . S
O456 Zn453 2.028 . S
O457 C449 1.258 . S
O457 Zn451 2.035 . S
O458 Zn451 2.028 . S
O458 C461 1.247 . S
O459 Zn453 2.035 . S
O459 C461 1.258 . S
C460 O454 1.247 . S
C460 O455 1.258 . S
C461 O458 1.247 . S
C461 O459 1.258 . S
C462 O464 1.247 . S
C462 O466 1.258 . S
C463 O470 1.247 . S
C463 O471 1.258 . S
O464 C462 1.247 . S
O464 Zn465 2.028 . S
Zn465 O464 2.028 . S
Zn465 O469 2.035 . S
Zn465 O471 2.035 . S
Zn465 O472 2.028 . S
O466 C462 1.258 . S
O466 Zn467 2.035 . S
Zn467 O466 2.035 . S
Zn467 O468 2.028 . S
Zn467 O470 2.028 . S
Zn467 O473 2.035 . S
O468 Zn467 2.028 . S
O468 C474 1.247 . S
O469 Zn465 2.035 . S
O469 C474 1.258 . S
O470 C463 1.247 . S
O470 Zn467 2.028 . S
O471 C463 1.258 . S
O471 Zn465 2.035 . S
O472 Zn465 2.028 . S
O472 C475 1.247 . S
O473 Zn467 2.035 . S
O473 C475 1.258 . S
C474 O468 1.247 . S
C474 O469 1.258 . S
C475 O472 1.247 . S
C475 O473 1.258 . S
C476 O478 1.247 . S
C476 O480 1.258 . S
C477 O484 1.247 . S
C477 O485 1.258 . S
O478 C476 1.247 . S
O478 Zn479 2.028 . S
Zn479 O478 2.028 . S
Zn479 O483 2.035 . S
Zn479 O485 2.035 . S
Zn479 O486 2.028 . S
O480 C476 1.258 . S
O480 Zn481 2.035 . S
Zn481 O480 2.035 . S
Zn481 O482 2.028 . S
Zn481 O484 2.028 . S
Zn481 O487 2.035 . S
O482 Zn481 2.028 . S
O482 C488 1.247 . S
O483 Zn479 2.035 . S
O483 C488 1.258 . S
O484 C477 1.247 . S
O484 Zn481 2.028 . S
O485 C477 1.258 . S
O485 Zn479 2.035 . S
O486 Zn479 2.028 . S
O486 C489 1.247 . S
O487 Zn481 2.035 . S
O487 C489 1.258 . S
C488 O482 1.247 . S
C488 O483 1.258 . S
C489 O486 1.247 . S
C489 O487 1.258 . S
C490 O492 1.247 . S
C490 O494 1.258 . S
C491 O498 1.247 . S
C491 O499 1.258 . S
O492 C490 1.247 . S
O492 Zn493 2.028 . S
Zn493 O492 2.028 . S
Zn493 O497 2.035 . S
Zn493 O499 2.035 . S
Zn493 O500 2.028 . S
O494 C490 1.258 . S
O494 Zn495 2.035 . S
Zn495 O494 2.035 . S
Zn495 O496 2.028 . S
Zn495 O498 2.028 . S
Zn495 O501 2.035 . S
O496 Zn495 2.028 . S
O496 C502 1.247 . S
O497 Zn493 2.035 . S
O497 C502 1.258 . S
O498 C491 1.247 . S
O498 Zn495 2.028 . S
O499 C491 1.258 . S
O499 Zn493 2.035 . S
O500 Zn493 2.028 . S
O500 C503 1.247 . S
O501 Zn495 2.035 . S
O501 C503 1.258 . S
C502 O496 1.247 . S
C502 O497 1.258 . S
C503 O500 1.247 . S
C503 O501 1.258 . S
C504 C505 1.369 1_554 S
C504 C506 1.419 1_655 S
C504 H508 0.930 . S
C505 C504 1.369 1_556 S
C505 C514 1.429 . S
C506 C504 1.419 1_455 S
C506 C507 1.363 . S
C506 H509 0.929 . S
C507 C506 1.363 . S
C507 C513 1.428 1_554 S
H508 C504 0.930 . S
H509 C506 0.929 . S
S510 N511 1.613 1_455 S
S510 N512 1.610 . S
N511 S510 1.613 1_655 S
N511 C514 1.350 . S
N512 S510 1.610 . S
N512 C513 1.351 . S
C513 C507 1.428 1_556 S
C513 N512 1.351 . S
C513 C514 1.434 1_455 S
C514 C505 1.429 . S
C514 N511 1.350 . S
C514 C513 1.434 1_655 S
C515 C516 1.369 1_554 S
C515 C517 1.419 . S
C515 H519 0.930 . S
C516 C515 1.369 1_556 S
C516 C525 1.429 . S
C517 C515 1.419 . S
C517 C518 1.363 . S
C517 H520 0.929 . S
C518 C517 1.363 . S
C518 C524 1.428 1_554 S
H519 C515 0.930 . S
H520 C517 0.929 . S
S521 N522 1.613 . S
S521 N523 1.610 . S
N522 S521 1.613 . S
N522 C525 1.350 . S
N523 S521 1.610 . S
N523 C524 1.351 . S
C524 C518 1.428 1_556 S
C524 N523 1.351 . S
C524 C525 1.434 . S
C525 C516 1.429 . S
C525 N522 1.350 . S
C525 C524 1.434 . S
C526 C527 1.369 1_554 S
C526 C528 1.419 1_545 S
C526 H530 0.930 . S
C527 C526 1.369 1_556 S
C527 C536 1.429 . S
C528 C526 1.419 1_565 S
C528 C529 1.363 . S
C528 H531 0.929 . S
C529 C528 1.363 . S
C529 C535 1.428 1_554 S
H530 C526 0.930 . S
H531 C528 0.929 . S
S532 N533 1.613 1_565 S
S532 N534 1.610 . S
N533 S532 1.613 1_545 S
N533 C536 1.350 . S
N534 S532 1.610 . S
N534 C535 1.351 . S
C535 C529 1.428 1_556 S
C535 N534 1.351 . S
C535 C536 1.434 1_565 S
C536 C527 1.429 . S
C536 N533 1.350 . S
C536 C535 1.434 1_545 S
C537 C538 1.369 . S
C537 C539 1.419 1_455 S
C537 H541 0.930 . S
C538 C537 1.369 . S
C538 C547 1.429 1_554 S
C539 C537 1.419 1_655 S
C539 C540 1.363 1_554 S
C539 H542 0.929 . S
C540 C539 1.363 1_556 S
C540 C546 1.428 . S
H541 C537 0.930 . S
H542 C539 0.929 . S
S543 N544 1.613 . S
S543 N545 1.610 1_455 S
N544 S543 1.613 . S
N544 C547 1.350 . S
N545 S543 1.610 1_655 S
N545 C546 1.351 . S
C546 C540 1.428 . S
C546 N545 1.351 . S
C546 C547 1.434 1_655 S
C547 C538 1.429 1_556 S
C547 N544 1.350 . S
C547 C546 1.434 1_455 S
C548 C549 1.369 . S
C548 C550 1.419 . S
C548 H552 0.930 . S
C549 C548 1.369 . S
C549 C558 1.429 1_556 S
C550 C548 1.419 . S
C550 C551 1.363 1_556 S
C550 H553 0.929 . S
C551 C550 1.363 1_554 S
C551 C557 1.428 . S
H552 C548 0.930 . S
H553 C550 0.929 . S
S554 N555 1.613 . S
S554 N556 1.610 . S
N555 S554 1.613 . S
N555 C558 1.350 . S
N556 S554 1.610 . S
N556 C557 1.351 . S
C557 C551 1.428 . S
C557 N556 1.351 . S
C557 C558 1.434 . S
C558 C549 1.429 1_554 S
C558 N555 1.350 . S
C558 C557 1.434 . S
C559 C560 1.369 1_556 S
C559 C561 1.419 1_565 S
C559 H563 0.930 . S
C560 C559 1.369 1_554 S
C560 C569 1.429 . S
C561 C559 1.419 1_545 S
C561 C562 1.363 . S
C561 H564 0.929 . S
C562 C561 1.363 . S
C562 C568 1.428 1_556 S
H563 C559 0.930 . S
H564 C561 0.929 . S
S565 N566 1.613 1_545 S
S565 N567 1.610 . S
N566 S565 1.613 1_565 S
N566 C569 1.350 . S
N567 S565 1.610 . S
N567 C568 1.351 . S
C568 C562 1.428 1_554 S
C568 N567 1.351 . S
C568 C569 1.434 1_545 S
C569 C560 1.429 . S
C569 N566 1.350 . S
C569 C568 1.434 1_565 S
C570 C571 1.369 . S
C570 C572 1.419 . S
C570 H574 0.930 . S
C571 C570 1.369 . S
C571 C580 1.429 . S
C572 C570 1.419 . S
C572 C573 1.363 . S
C572 H575 0.929 . S
C573 C572 1.363 . S
C573 C579 1.428 . S
H574 C570 0.930 . S
H575 C572 0.929 . S
S576 N577 1.613 . S
S576 N578 1.610 . S
N577 S576 1.613 . S
N577 C580 1.350 . S
N578 S576 1.610 . S
N578 C579 1.351 . S
C579 C573 1.428 . S
C579 N578 1.351 . S
C579 C580 1.434 . S
C580 C571 1.429 . S
C580 N577 1.350 . S
C580 C579 1.434 . S
C581 C582 1.369 . S
C581 C583 1.419 . S
C581 H585 0.930 . S
C582 C581 1.369 . S
C582 C591 1.429 . S
C583 C581 1.419 . S
C583 C584 1.363 . S
C583 H586 0.929 1_565 S
C584 C583 1.363 . S
C584 C590 1.428 . S
H585 C581 0.930 . S
H586 C583 0.929 1_545 S
S587 N588 1.613 . S
S587 N589 1.610 . S
N588 S587 1.613 . S
N588 C591 1.350 . S
N589 S587 1.610 . S
N589 C590 1.351 . S
C590 C584 1.428 . S
C590 N589 1.351 . S
C590 C591 1.434 . S
C591 C582 1.429 . S
C591 N588 1.350 . S
C591 C590 1.434 . S
C592 C593 1.369 . S
C592 C594 1.419 . S
C592 H596 0.930 . S
C593 C592 1.369 . S
C593 C602 1.429 . S
C594 C592 1.419 . S
C594 C595 1.363 . S
C594 H597 0.929 . S
C595 C594 1.363 . S
C595 C601 1.428 . S
H596 C592 0.930 . S
H597 C594 0.929 . S
S598 N599 1.613 . S
S598 N600 1.610 . S
N599 S598 1.613 . S
N599 C602 1.350 . S
N600 S598 1.610 . S
N600 C601 1.351 . S
C601 C595 1.428 . S
C601 N600 1.351 . S
C601 C602 1.434 . S
C602 C593 1.429 . S
C602 N599 1.350 . S
C602 C601 1.434 . S
C603 C604 1.369 . S
C603 C605 1.419 . S
C603 H607 0.930 . S
C604 C603 1.369 . S
C604 C613 1.429 . S
C605 C603 1.419 . S
C605 C606 1.363 . S
C605 H608 0.929 . S
C606 C605 1.363 . S
C606 C612 1.428 . S
H607 C603 0.930 . S
H608 C605 0.929 . S
S609 N610 1.627 . S
S609 N611 1.623 1_565 S
N610 S609 1.627 . S
N610 C613 1.350 . S
N611 S609 1.623 1_545 S
N611 C612 1.351 1_545 S
C612 C606 1.428 . S
C612 N611 1.351 1_565 S
C612 C613 1.434 . S
C613 C604 1.429 . S
C613 N610 1.350 . S
C613 C612 1.434 . S
C614 C615 1.369 . S
C614 C616 1.419 . S
C614 H618 0.930 1_455 S
C615 C614 1.369 . S
C615 C624 1.429 . S
C616 C614 1.419 . S
C616 C617 1.363 . S
C616 H619 0.929 . S
C617 C616 1.363 . S
C617 C623 1.428 . S
H618 C614 0.930 1_655 S
H619 C616 0.929 . S
S620 N621 1.613 . S
S620 N622 1.610 . S
N621 S620 1.613 . S
N621 C624 1.350 . S
N622 S620 1.610 . S
N622 C623 1.351 . S
C623 C617 1.428 . S
C623 N622 1.351 . S
C623 C624 1.434 . S
C624 C615 1.429 . S
C624 N621 1.350 . S
C624 C623 1.434 . S
C625 C626 1.369 . S
C625 C627 1.419 . S
C625 H629 0.930 . S
C626 C625 1.369 . S
C626 C635 1.429 . S
C627 C625 1.419 . S
C627 C628 1.363 . S
C627 H630 0.929 . S
C628 C627 1.363 . S
C628 C634 1.428 . S
H629 C625 0.930 . S
H630 C627 0.929 . S
S631 N632 1.613 . S
S631 N633 1.610 . S
N632 S631 1.613 . S
N632 C635 1.350 . S
N633 S631 1.610 . S
N633 C634 1.351 . S
C634 C628 1.428 . S
C634 N633 1.351 . S
C634 C635 1.434 . S
C635 C626 1.429 . S
C635 N632 1.350 . S
C635 C634 1.434 . S
C636 C637 1.369 . S
C636 C638 1.419 . S
C636 H640 0.930 1_545 S
C637 C636 1.369 . S
C637 C646 1.429 . S
C638 C636 1.419 . S
C638 C639 1.363 . S
C638 H641 0.929 . S
C639 C638 1.363 . S
C639 C645 1.428 . S
H640 C636 0.930 1_565 S
H641 C638 0.929 . S
S642 N643 1.613 . S
S642 N644 1.610 . S
N643 S642 1.613 . S
N643 C646 1.350 . S
N644 S642 1.610 . S
N644 C645 1.351 . S
C645 C639 1.428 . S
C645 N644 1.351 . S
C645 C646 1.434 . S
C646 C637 1.429 . S
C646 N643 1.350 . S
C646 C645 1.434 . S
C647 C648 1.369 . S
C647 C649 1.419 . S
C647 H651 0.930 . S
C648 C647 1.369 . S
C648 C657 1.429 . S
C649 C647 1.419 . S
C649 C650 1.363 . S
C649 H652 0.912 1_655 S
C650 C649 1.363 . S
C650 C656 1.428 . S
H651 C647 0.930 . S
H652 C649 0.912 1_455 S
S653 N654 1.613 . S
S653 N655 1.610 . S
N654 S653 1.613 . S
N654 C657 1.350 . S
N655 S653 1.610 . S
N655 C656 1.351 . S
C656 C650 1.428 . S
C656 N655 1.351 . S
C656 C657 1.434 . S
C657 C648 1.429 . S
C657 N654 1.350 . S
C657 C656 1.434 . S
C658 C659 1.369 . S
C658 C660 1.419 . S
C658 H662 0.930 . S
C659 C658 1.369 . S
C659 C668 1.429 . S
C660 C658 1.419 . S
C660 C661 1.363 . S
C660 H663 0.929 . S
C661 C660 1.363 . S
C661 C667 1.428 . S
H662 C658 0.930 . S
H663 C660 0.929 . S
S664 N665 1.613 . S
S664 N666 1.610 . S
N665 S664 1.613 . S
N665 C668 1.350 . S
N666 S664 1.610 . S
N666 C667 1.351 . S
C667 C661 1.428 . S
C667 N666 1.351 . S
C667 C668 1.434 . S
C668 C659 1.429 . S
C668 N665 1.350 . S
C668 C667 1.434 . S
C669 C670 1.369 . S
C669 C671 1.419 . S
C669 H673 0.930 . S
C670 C669 1.369 . S
C670 C679 1.429 . S
C671 C669 1.419 . S
C671 C672 1.363 . S
C671 H674 0.929 . S
C672 C671 1.363 . S
C672 C678 1.428 . S
H673 C669 0.930 . S
H674 C671 0.929 . S
S675 N676 1.613 . S
S675 N677 1.610 . S
N676 S675 1.613 . S
N676 C679 1.350 . S
N677 S675 1.610 . S
N677 C678 1.351 . S
C678 C672 1.428 . S
C678 N677 1.351 . S
C678 C679 1.434 . S
C679 C670 1.429 . S
C679 N676 1.350 . S
C679 C678 1.434 . S
C680 C681 1.369 . S
C680 C682 1.419 . S
C680 H684 0.930 . S
C681 C680 1.369 . S
C681 C690 1.429 . S
C682 C680 1.419 . S
C682 C683 1.363 . S
C682 H685 0.929 . S
C683 C682 1.363 . S
C683 C689 1.428 . S
H684 C680 0.930 . S
H685 C682 0.929 . S
S686 N687 1.613 . S
S686 N688 1.610 1_565 S
N687 S686 1.613 . S
N687 C690 1.350 1_565 S
N688 S686 1.610 1_545 S
N688 C689 1.351 . S
C689 C683 1.428 . S
C689 N688 1.351 . S
C689 C690 1.434 . S
C690 C681 1.429 . S
C690 N687 1.350 1_545 S
C690 C689 1.434 . S
C691 C692 1.369 . S
C691 C693 1.419 . S
C691 H695 0.930 1_655 S
C692 C691 1.369 . S
C692 C701 1.429 . S
C693 C691 1.419 . S
C693 C694 1.363 . S
C693 H696 0.929 . S
C694 C693 1.363 . S
C694 C700 1.428 . S
H695 C691 0.930 1_455 S
H696 C693 0.929 . S
S697 N698 1.613 . S
S697 N699 1.610 . S
N698 S697 1.613 . S
N698 C701 1.350 . S
N699 S697 1.610 . S
N699 C700 1.351 . S
C700 C694 1.428 . S
C700 N699 1.351 . S
C700 C701 1.434 . S
C701 C692 1.429 . S
C701 N698 1.350 . S
C701 C700 1.434 . S
C702 C703 1.369 . S
C702 C704 1.419 . S
C702 H706 0.930 . S
C703 C702 1.369 . S
C703 C712 1.429 1_556 S
C704 C702 1.419 . S
C704 C705 1.363 . S
C704 H707 0.929 . S
C705 C704 1.363 . S
C705 C711 1.428 1_556 S
H706 C702 0.930 . S
H707 C704 0.929 . S
S708 N709 1.613 . S
S708 N710 1.610 . S
N709 S708 1.613 . S
N709 C712 1.350 . S
N710 S708 1.610 . S
N710 C711 1.351 . S
C711 C705 1.428 1_554 S
C711 N710 1.351 . S
C711 C712 1.434 . S
C712 C703 1.429 1_554 S
C712 N709 1.350 . S
C712 C711 1.434 . S
C713 C714 1.369 1_554 S
C713 C715 1.419 . S
C713 H717 0.930 . S
C714 C713 1.369 1_556 S
C714 C723 1.429 . S
C715 C713 1.419 . S
C715 C716 1.363 1_554 S
C715 H718 0.929 . S
C716 C715 1.363 1_556 S
C716 C722 1.428 . S
H717 C713 0.930 . S
H718 C715 0.929 . S
S719 N720 1.613 . S
S719 N721 1.610 . S
N720 S719 1.613 . S
N720 C723 1.350 . S
N721 S719 1.610 . S
N721 C722 1.351 . S
C722 C716 1.428 . S
C722 N721 1.351 . S
C722 C723 1.434 . S
C723 C714 1.429 . S
C723 N720 1.350 . S
C723 C722 1.434 . S
C724 C725 1.369 . S
C724 C726 1.419 . S
C724 H728 0.930 . S
C725 C724 1.369 . S
C725 C734 1.429 1_556 S
C726 C724 1.419 . S
C726 C727 1.363 . S
C726 H729 0.929 . S
C727 C726 1.363 . S
C727 C733 1.428 1_556 S
H728 C724 0.930 . S
H729 C726 0.929 . S
S730 N731 1.613 . S
S730 N732 1.610 . S
N731 S730 1.613 . S
N731 C734 1.350 . S
N732 S730 1.610 . S
N732 C733 1.351 . S
C733 C727 1.428 1_554 S
C733 N732 1.351 . S
C733 C734 1.434 . S
C734 C725 1.429 1_554 S
C734 N731 1.350 . S
C734 C733 1.434 . S
C735 C736 1.369 . S
C735 C737 1.419 . S
C735 H739 0.930 1_554 S
C736 C735 1.369 . S
C736 C745 1.429 . S
C737 C735 1.419 . S
C737 C738 1.363 . S
C737 H740 0.929 1_554 S
C738 C737 1.363 . S
C738 C744 1.428 . S
H739 C735 0.930 1_556 S
H740 C737 0.929 1_556 S
S741 N742 1.613 . S
S741 N743 1.610 . S
N742 S741 1.613 . S
N742 C745 1.350 . S
N743 S741 1.610 . S
N743 C744 1.351 . S
C744 C738 1.428 . S
C744 N743 1.351 . S
C744 C745 1.434 . S
C745 C736 1.429 . S
C745 N742 1.350 . S
C745 C744 1.434 . S
C746 C747 1.369 . S
C746 C748 1.419 . S
C746 H750 0.930 . S
C747 C746 1.369 . S
C747 C756 1.429 1_554 S
C748 C746 1.419 . S
C748 C749 1.363 . S
C748 H751 0.929 . S
C749 C748 1.363 . S
C749 C755 1.428 1_554 S
H750 C746 0.930 . S
H751 C748 0.929 . S
S752 N753 1.613 . S
S752 N754 1.610 . S
N753 S752 1.613 . S
N753 C756 1.350 . S
N754 S752 1.610 . S
N754 C755 1.351 . S
C755 C749 1.428 1_556 S
C755 N754 1.351 . S
C755 C756 1.434 . S
C756 C747 1.429 1_556 S
C756 N753 1.350 . S
C756 C755 1.434 . S
C757 C758 1.369 1_556 S
C757 C759 1.419 . S
C757 H761 0.930 . S
C758 C757 1.369 1_554 S
C758 C767 1.429 . S
C759 C757 1.419 . S
C759 C760 1.363 1_556 S
C759 H762 0.929 . S
C760 C759 1.363 1_554 S
C760 C766 1.428 . S
H761 C757 0.930 . S
H762 C759 0.929 . S
S763 N764 1.613 . S
S763 N765 1.610 . S
N764 S763 1.613 . S
N764 C767 1.350 . S
N765 S763 1.610 . S
N765 C766 1.351 . S
C766 C760 1.428 . S
C766 N765 1.351 . S
C766 C767 1.434 . S
C767 C758 1.429 . S
C767 N764 1.350 . S
C767 C766 1.434 . S
C768 C769 1.369 . S
C768 C770 1.419 . S
C768 H772 0.930 . S
C769 C768 1.369 . S
C769 C778 1.429 . S
C770 C768 1.419 . S
C770 C771 1.363 . S
C770 H773 0.929 . S
C771 C770 1.363 . S
C771 C777 1.428 . S
H772 C768 0.930 . S
H773 C770 0.929 . S
S774 N775 1.613 . S
S774 N776 1.610 . S
N775 S774 1.613 . S
N775 C778 1.350 . S
N776 S774 1.610 . S
N776 C777 1.351 . S
C777 C771 1.428 . S
C777 N776 1.351 . S
C777 C778 1.434 . S
C778 C769 1.429 . S
C778 N775 1.350 . S
C778 C777 1.434 . S
C779 C780 1.369 . S
C779 C781 1.419 . S
C779 H783 0.930 . S
C780 C779 1.369 . S
C780 C789 1.429 . S
C781 C779 1.419 . S
C781 C782 1.363 . S
C781 H784 0.929 . S
C782 C781 1.363 . S
C782 C788 1.428 . S
H783 C779 0.930 . S
H784 C781 0.929 . S
S785 N786 1.613 . S
S785 N787 1.610 . S
N786 S785 1.613 . S
N786 C789 1.350 . S
N787 S785 1.610 . S
N787 C788 1.351 . S
C788 C782 1.428 . S
C788 N787 1.351 . S
C788 C789 1.434 . S
C789 C780 1.429 . S
C789 N786 1.350 . S
C789 C788 1.434 . S
C790 C791 1.369 . S
C790 C792 1.419 . S
C790 H794 0.930 . S
C791 C790 1.369 . S
C791 C800 1.429 . S
C792 C790 1.419 . S
C792 C793 1.363 . S
C792 H795 0.929 . S
C793 C792 1.363 . S
C793 C799 1.428 . S
H794 C790 0.930 . S
H795 C792 0.929 . S
S796 N797 1.613 . S
S796 N798 1.610 . S
N797 S796 1.613 . S
N797 C800 1.350 . S
N798 S796 1.610 . S
N798 C799 1.351 . S
C799 C793 1.428 . S
C799 N798 1.351 . S
C799 C800 1.434 . S
C800 C791 1.429 . S
C800 N797 1.350 . S
C800 C799 1.434 . S
C801 C802 1.369 . S
C801 C803 1.419 . S
C801 H805 0.930 . S
C802 C801 1.369 . S
C802 C811 1.429 . S
C803 C801 1.419 . S
C803 C804 1.363 . S
C803 H806 0.929 . S
C804 C803 1.363 . S
C804 C810 1.428 . S
H805 C801 0.930 . S
H806 C803 0.929 . S
S807 N808 1.613 . S
S807 N809 1.610 . S
N808 S807 1.613 . S
N808 C811 1.350 . S
N809 S807 1.610 . S
N809 C810 1.351 . S
C810 C804 1.428 . S
C810 N809 1.351 . S
C810 C811 1.434 . S
C811 C802 1.429 . S
C811 N808 1.350 . S
C811 C810 1.434 . S
C812 C813 1.369 . S
C812 C814 1.419 . S
C812 H816 0.930 . S
C813 C812 1.369 . S
C813 C822 1.429 . S
C814 C812 1.419 . S
C814 C815 1.363 . S
C814 H817 0.929 . S
C815 C814 1.363 . S
C815 C821 1.428 . S
H816 C812 0.930 . S
H817 C814 0.929 . S
S818 N819 1.613 . S
S818 N820 1.610 . S
N819 S818 1.613 . S
N819 C822 1.350 . S
N820 S818 1.610 . S
N820 C821 1.351 . S
C821 C815 1.428 . S
C821 N820 1.351 . S
C821 C822 1.434 . S
C822 C813 1.429 . S
C822 N819 1.350 . S
C822 C821 1.434 . S
C823 C824 1.369 . S
C823 C825 1.419 . S
C823 H827 0.930 . S
C824 C823 1.369 . S
C824 C833 1.429 . S
C825 C823 1.419 . S
C825 C826 1.363 . S
C825 H828 0.929 . S
C826 C825 1.363 . S
C826 C832 1.428 . S
H827 C823 0.930 . S
H828 C825 0.929 . S
S829 N830 1.613 . S
S829 N831 1.610 . S
N830 S829 1.613 . S
N830 C833 1.350 . S
N831 S829 1.610 . S
N831 C832 1.351 . S
C832 C826 1.428 . S
C832 N831 1.351 . S
C832 C833 1.434 . S
C833 C824 1.429 . S
C833 N830 1.350 . S
C833 C832 1.434 . S
C834 C835 1.369 . S
C834 C836 1.419 . S
C834 H838 0.930 . S
C835 C834 1.369 . S
C835 C844 1.429 . S
C836 C834 1.419 . S
C836 C837 1.363 . S
C836 H839 0.929 . S
C837 C836 1.363 . S
C837 C843 1.428 . S
H838 C834 0.930 . S
H839 C836 0.929 . S
S840 N841 1.613 . S
S840 N842 1.610 . S
N841 S840 1.613 . S
N841 C844 1.350 . S
N842 S840 1.610 . S
N842 C843 1.351 . S
C843 C837 1.428 . S
C843 N842 1.351 . S
C843 C844 1.434 . S
C844 C835 1.429 . S
C844 N841 1.350 . S
C844 C843 1.434 . S
C845 C846 1.369 . S
C845 C847 1.419 . S
C845 H849 0.930 . S
C846 C845 1.369 . S
C846 C855 1.429 . S
C847 C845 1.419 . S
C847 C848 1.363 . S
C847 H850 0.929 . S
C848 C847 1.363 . S
C848 C854 1.428 . S
H849 C845 0.930 . S
H850 C847 0.929 . S
S851 N852 1.613 . S
S851 N853 1.610 . S
N852 S851 1.613 . S
N852 C855 1.350 . S
N853 S851 1.610 . S
N853 C854 1.351 . S
C854 C848 1.428 . S
C854 N853 1.351 . S
C854 C855 1.434 . S
C855 C846 1.429 . S
C855 N852 1.350 . S
C855 C854 1.434 . S
C856 C857 1.369 . S
C856 C858 1.419 . S
C856 H860 0.930 . S
C857 C856 1.369 . S
C857 C866 1.429 . S
C858 C856 1.419 . S
C858 C859 1.363 . S
C858 H861 0.929 . S
C859 C858 1.363 . S
C859 C865 1.428 . S
H860 C856 0.930 . S
H861 C858 0.929 . S
S862 N863 1.613 . S
S862 N864 1.610 . S
N863 S862 1.613 . S
N863 C866 1.350 . S
N864 S862 1.610 . S
N864 C865 1.351 . S
C865 C859 1.428 . S
C865 N864 1.351 . S
C865 C866 1.434 . S
C866 C857 1.429 . S
C866 N863 1.350 . S
C866 C865 1.434 . S
C867 C868 1.369 . S
C867 C869 1.419 . S
C867 H871 0.930 . S
C868 C867 1.369 . S
C868 C877 1.429 . S
C869 C867 1.419 . S
C869 C870 1.363 . S
C869 H872 0.929 . S
C870 C869 1.363 . S
C870 C876 1.428 . S
H871 C867 0.930 . S
H872 C869 0.929 . S
S873 N874 1.613 . S
S873 N875 1.610 . S
N874 S873 1.613 . S
N874 C877 1.350 . S
N875 S873 1.610 . S
N875 C876 1.351 . S
C876 C870 1.428 . S
C876 N875 1.351 . S
C876 C877 1.434 . S
C877 C868 1.429 . S
C877 N874 1.350 . S
C877 C876 1.434 . S
C878 C879 1.369 . S
C878 C880 1.419 . S
C878 H882 0.930 . S
C879 C878 1.369 . S
C879 C888 1.429 . S
C880 C878 1.419 . S
C880 C881 1.363 . S
C880 H883 0.929 . S
C881 C880 1.363 . S
C881 C887 1.428 . S
H882 C878 0.930 . S
H883 C880 0.929 . S
S884 N885 1.613 . S
S884 N886 1.610 . S
N885 S884 1.613 . S
N885 C888 1.350 . S
N886 S884 1.610 . S
N886 C887 1.351 . S
C887 C881 1.428 . S
C887 N886 1.351 . S
C887 C888 1.434 . S
C888 C879 1.429 . S
C888 N885 1.350 . S
C888 C887 1.434 . S
C889 C890 1.369 . S
C889 C891 1.419 . S
C889 H893 0.930 . S
C890 C889 1.369 . S
C890 C899 1.429 . S
C891 C889 1.419 . S
C891 C892 1.363 . S
C891 H894 0.929 . S
C892 C891 1.363 . S
C892 C898 1.428 . S
H893 C889 0.930 . S
H894 C891 0.929 . S
S895 N896 1.613 . S
S895 N897 1.610 . S
N896 S895 1.613 . S
N896 C899 1.350 . S
N897 S895 1.610 . S
N897 C898 1.351 . S
C898 C892 1.428 . S
C898 N897 1.351 . S
C898 C899 1.434 . S
C899 C890 1.429 . S
C899 N896 1.350 . S
C899 C898 1.434 . S
C900 C901 1.369 . S
C900 C902 1.419 . S
C900 H904 0.930 . S
C901 C900 1.369 . S
C901 C910 1.429 . S
C902 C900 1.419 . S
C902 C903 1.363 . S
C902 H905 0.929 . S
C903 C902 1.363 . S
C903 C909 1.428 . S
H904 C900 0.930 . S
H905 C902 0.929 . S
S906 N907 1.613 . S
S906 N908 1.610 . S
N907 S906 1.613 . S
N907 C910 1.350 . S
N908 S906 1.610 . S
N908 C909 1.351 . S
C909 C903 1.428 . S
C909 N908 1.351 . S
C909 C910 1.434 . S
C910 C901 1.429 . S
C910 N907 1.350 . S
C910 C909 1.434 . S
C911 C912 1.369 . S
C911 C913 1.419 . S
C911 H915 0.930 . S
C912 C911 1.369 . S
C912 C921 1.429 . S
C913 C911 1.419 . S
C913 C914 1.363 . S
C913 H916 0.929 . S
C914 C913 1.363 . S
C914 C920 1.428 . S
H915 C911 0.930 . S
H916 C913 0.929 . S
S917 N918 1.613 . S
S917 N919 1.610 . S
N918 S917 1.613 . S
N918 C921 1.350 . S
N919 S917 1.610 . S
N919 C920 1.351 . S
C920 C914 1.428 . S
C920 N919 1.351 . S
C920 C921 1.434 . S
C921 C912 1.429 . S
C921 N918 1.350 . S
C921 C920 1.434 . S
C922 C923 1.369 . S
C922 C924 1.419 . S
C922 H926 0.930 . S
C923 C922 1.369 . S
C923 C932 1.429 . S
C924 C922 1.419 . S
C924 C925 1.363 . S
C924 H927 0.929 . S
C925 C924 1.363 . S
C925 C931 1.428 . S
H926 C922 0.930 . S
H927 C924 0.929 . S
S928 N929 1.613 . S
S928 N930 1.610 . S
N929 S928 1.613 . S
N929 C932 1.350 . S
N930 S928 1.610 . S
N930 C931 1.351 . S
C931 C925 1.428 . S
C931 N930 1.351 . S
C931 C932 1.434 . S
C932 C923 1.429 . S
C932 N929 1.350 . S
C932 C931 1.434 . S
C933 C934 1.369 . S
C933 C935 1.419 . S
C933 H937 0.930 . S
C934 C933 1.369 . S
C934 C943 1.429 . S
C935 C933 1.419 . S
C935 C936 1.363 . S
C935 H938 0.929 . S
C936 C935 1.363 . S
C936 C942 1.428 . S
H937 C933 0.930 . S
H938 C935 0.929 . S
S939 N940 1.613 . S
S939 N941 1.610 . S
N940 S939 1.613 . S
N940 C943 1.350 . S
N941 S939 1.610 . S
N941 C942 1.351 . S
C942 C936 1.428 . S
C942 N941 1.351 . S
C942 C943 1.434 . S
C943 C934 1.429 . S
C943 N940 1.350 . S
C943 C942 1.434 . S
C944 C945 1.369 . S
C944 C946 1.419 . S
C944 H948 0.930 . S
C945 C944 1.369 . S
C945 C954 1.429 . S
C946 C944 1.419 . S
C946 C947 1.363 . S
C946 H949 0.929 . S
C947 C946 1.363 . S
C947 C953 1.428 . S
H948 C944 0.930 . S
H949 C946 0.929 . S
S950 N951 1.613 . S
S950 N952 1.610 . S
N951 S950 1.613 . S
N951 C954 1.350 . S
N952 S950 1.610 . S
N952 C953 1.351 . S
C953 C947 1.428 . S
C953 N952 1.351 . S
C953 C954 1.434 . S
C954 C945 1.429 . S
C954 N951 1.350 . S
C954 C953 1.434 . S
C955 C956 1.369 . S
C955 C957 1.419 . S
C955 H959 0.930 . S
C956 C955 1.369 . S
C956 C965 1.429 . S
C957 C955 1.419 . S
C957 C958 1.363 . S
C957 H960 0.929 . S
C958 C957 1.363 . S
C958 C964 1.428 . S
H959 C955 0.930 . S
H960 C957 0.929 . S
S961 N962 1.613 . S
S961 N963 1.610 . S
N962 S961 1.613 . S
N962 C965 1.350 . S
N963 S961 1.610 . S
N963 C964 1.351 . S
C964 C958 1.428 . S
C964 N963 1.351 . S
C964 C965 1.434 . S
C965 C956 1.429 . S
C965 N962 1.350 . S
C965 C964 1.434 . S
C966 C967 1.369 . S
C966 C968 1.419 . S
C966 H970 0.930 . S
C967 C966 1.369 . S
C967 C976 1.429 . S
C968 C966 1.419 . S
C968 C969 1.363 . S
C968 H971 0.929 . S
C969 C968 1.363 . S
C969 C975 1.428 . S
H970 C966 0.930 . S
H971 C968 0.929 . S
S972 N973 1.613 . S
S972 N974 1.610 . S
N973 S972 1.613 . S
N973 C976 1.350 . S
N974 S972 1.610 . S
N974 C975 1.351 . S
C975 C969 1.428 . S
C975 N974 1.351 . S
C975 C976 1.434 . S
C976 C967 1.429 . S
C976 N973 1.350 . S
C976 C975 1.434 . S
C977 C978 1.369 . S
C977 C979 1.419 . S
C977 H981 0.930 . S
C978 C977 1.369 . S
C978 C987 1.429 . S
C979 C977 1.419 . S
C979 C980 1.363 . S
C979 H982 0.929 . S
C980 C979 1.363 . S
C980 C986 1.428 . S
H981 C977 0.930 . S
H982 C979 0.929 . S
S983 N984 1.613 . S
S983 N985 1.610 . S
N984 S983 1.613 . S
N984 C987 1.350 . S
N985 S983 1.610 . S
N985 C986 1.351 . S
C986 C980 1.428 . S
C986 N985 1.351 . S
C986 C987 1.434 . S
C987 C978 1.429 . S
C987 N984 1.350 . S
C987 C986 1.434 . S
C988 C989 1.369 . S
C988 C990 1.419 . S
C988 H992 0.930 . S
C989 C988 1.369 . S
C989 C998 1.429 . S
C990 C988 1.419 . S
C990 C991 1.363 . S
C990 H993 0.929 . S
C991 C990 1.363 . S
C991 C997 1.428 . S
H992 C988 0.930 . S
H993 C990 0.929 . S
S994 N995 1.613 . S
S994 N996 1.610 . S
N995 S994 1.613 . S
N995 C998 1.350 . S
N996 S994 1.610 . S
N996 C997 1.351 . S
C997 C991 1.428 . S
C997 N996 1.351 . S
C997 C998 1.434 . S
C998 C989 1.429 . S
C998 N995 1.350 . S
C998 C997 1.434 . S
C999 C1000 1.369 . S
C999 C1001 1.419 . S
C999 H1003 0.930 . S
C1000 C999 1.369 . S
C1000 C1009 1.429 . S
C1001 C999 1.419 . S
C1001 C1002 1.363 . S
C1001 H1004 0.929 . S
C1002 C1001 1.363 . S
C1002 C1008 1.428 . S
H1003 C999 0.930 . S
H1004 C1001 0.929 . S
S1005 N1006 1.613 . S
S1005 N1007 1.610 . S
N1006 S1005 1.613 . S
N1006 C1009 1.350 . S
N1007 S1005 1.610 . S
N1007 C1008 1.351 . S
C1008 C1002 1.428 . S
C1008 N1007 1.351 . S
C1008 C1009 1.434 . S
C1009 C1000 1.429 . S
C1009 N1006 1.350 . S
C1009 C1008 1.434 . S
C1010 C1011 1.369 . S
C1010 C1012 1.419 . S
C1010 H1014 0.930 . S
C1011 C1010 1.369 . S
C1011 C1020 1.429 . S
C1012 C1010 1.419 . S
C1012 C1013 1.363 . S
C1012 H1015 0.929 . S
C1013 C1012 1.363 . S
C1013 C1019 1.428 . S
H1014 C1010 0.930 . S
H1015 C1012 0.929 . S
S1016 N1017 1.613 . S
S1016 N1018 1.610 . S
N1017 S1016 1.613 . S
N1017 C1020 1.350 . S
N1018 S1016 1.610 . S
N1018 C1019 1.351 . S
C1019 C1013 1.428 . S
C1019 N1018 1.351 . S
C1019 C1020 1.434 . S
C1020 C1011 1.429 . S
C1020 N1017 1.350 . S
C1020 C1019 1.434 . S
C1021 C1022 1.369 . S
C1021 C1023 1.419 . S
C1021 H1025 0.930 . S
C1022 C1021 1.369 . S
C1022 C1031 1.429 . S
C1023 C1021 1.419 . S
C1023 C1024 1.363 . S
C1023 H1026 0.929 . S
C1024 C1023 1.363 . S
C1024 C1030 1.428 . S
H1025 C1021 0.930 . S
H1026 C1023 0.929 . S
S1027 N1028 1.613 . S
S1027 N1029 1.610 . S
N1028 S1027 1.613 . S
N1028 C1031 1.350 . S
N1029 S1027 1.610 . S
N1029 C1030 1.351 . S
C1030 C1024 1.428 . S
C1030 N1029 1.351 . S
C1030 C1031 1.434 . S
C1031 C1022 1.429 . S
C1031 N1028 1.350 . S
C1031 C1030 1.434 . S
C1032 C1033 1.369 . S
C1032 C1034 1.419 . S
C1032 H1036 0.930 . S
C1033 C1032 1.369 . S
C1033 C1042 1.429 . S
C1034 C1032 1.419 . S
C1034 C1035 1.363 . S
C1034 H1037 0.929 . S
C1035 C1034 1.363 . S
C1035 C1041 1.428 . S
H1036 C1032 0.930 . S
H1037 C1034 0.929 . S
S1038 N1039 1.613 . S
S1038 N1040 1.610 . S
N1039 S1038 1.613 . S
N1039 C1042 1.350 . S
N1040 S1038 1.610 . S
N1040 C1041 1.351 . S
C1041 C1035 1.428 . S
C1041 N1040 1.351 . S
C1041 C1042 1.434 . S
C1042 C1033 1.429 . S
C1042 N1039 1.350 . S
C1042 C1041 1.434 . S
C1043 C1044 1.369 1_565 S
C1043 C1045 1.419 . S
C1043 H1047 0.930 . S
C1044 C1043 1.369 1_545 S
C1044 C1053 1.429 . S
C1045 C1043 1.419 . S
C1045 C1046 1.363 . S
C1045 H1048 0.929 . S
C1046 C1045 1.363 . S
C1046 C1052 1.428 1_565 S
H1047 C1043 0.930 . S
H1048 C1045 0.929 . S
S1049 N1050 1.613 . S
S1049 N1051 1.610 . S
N1050 S1049 1.613 . S
N1050 C1053 1.350 . S
N1051 S1049 1.610 . S
N1051 C1052 1.351 . S
C1052 C1046 1.428 1_545 S
C1052 N1051 1.351 . S
C1052 C1053 1.434 . S
C1053 C1044 1.429 . S
C1053 N1050 1.350 . S
C1053 C1052 1.434 . S
C1054 C1055 1.352 1_655 S
C1054 C1056 1.425 . S
C1054 H1058 0.942 . S
C1055 C1054 1.352 1_455 S
C1055 C1064 1.429 . S
C1056 C1054 1.425 . S
C1056 C1057 1.363 . S
C1056 H1059 0.929 . S
C1057 C1056 1.363 . S
C1057 C1063 1.428 1_655 S
H1058 C1054 0.942 . S
H1059 C1056 0.929 . S
S1060 N1061 1.613 . S
S1060 N1062 1.610 . S
N1061 S1060 1.613 . S
N1061 C1064 1.350 . S
N1062 S1060 1.610 . S
N1062 C1063 1.351 . S
C1063 C1057 1.428 1_455 S
C1063 N1062 1.351 . S
C1063 C1064 1.434 . S
C1064 C1055 1.429 . S
C1064 N1061 1.350 . S
C1064 C1063 1.434 . S
C1065 C1066 1.369 . S
C1065 C1067 1.419 . S
C1065 H1069 0.930 . S
C1066 C1065 1.369 . S
C1066 C1075 1.429 . S
C1067 C1065 1.419 . S
C1067 C1068 1.363 . S
C1067 H1070 0.929 . S
C1068 C1067 1.363 . S
C1068 C1074 1.428 . S
H1069 C1065 0.930 . S
H1070 C1067 0.929 . S
S1071 N1072 1.613 . S
S1071 N1073 1.610 . S
N1072 S1071 1.613 . S
N1072 C1075 1.350 . S
N1073 S1071 1.610 . S
N1073 C1074 1.351 . S
C1074 C1068 1.428 . S
C1074 N1073 1.351 . S
C1074 C1075 1.434 . S
C1075 C1066 1.429 . S
C1075 N1072 1.350 . S
C1075 C1074 1.434 . S
C1076 C1077 1.369 . S
C1076 C1078 1.419 . S
C1076 H1080 0.930 . S
C1077 C1076 1.369 . S
C1077 C1086 1.429 1_565 S
C1078 C1076 1.419 . S
C1078 C1079 1.363 1_565 S
C1078 H1081 0.929 . S
C1079 C1078 1.363 1_545 S
C1079 C1085 1.428 . S
H1080 C1076 0.930 . S
H1081 C1078 0.929 . S
S1082 N1083 1.613 . S
S1082 N1084 1.610 . S
N1083 S1082 1.613 . S
N1083 C1086 1.350 . S
N1084 S1082 1.610 . S
N1084 C1085 1.351 . S
C1085 C1079 1.428 . S
C1085 N1084 1.351 . S
C1085 C1086 1.434 . S
C1086 C1077 1.429 1_545 S
C1086 N1083 1.350 . S
C1086 C1085 1.434 . S
C1087 C1088 1.369 . S
C1087 C1089 1.419 1_455 S
C1087 H1091 0.930 . S
C1088 C1087 1.369 . S
C1088 C1097 1.429 . S
C1089 C1087 1.419 1_655 S
C1089 C1090 1.363 . S
C1089 H1092 0.929 . S
C1090 C1089 1.363 . S
C1090 C1096 1.454 . S
H1091 C1087 0.930 . S
H1092 C1089 0.929 . S
S1093 N1094 1.613 . S
S1093 N1095 1.626 . S
N1094 S1093 1.613 . S
N1094 C1097 1.350 . S
N1095 S1093 1.626 . S
N1095 C1096 1.321 1_455 S
C1096 C1090 1.454 . S
C1096 N1095 1.321 1_655 S
C1096 C1097 1.424 1_655 S
C1097 C1088 1.429 . S
C1097 N1094 1.350 . S
C1097 C1096 1.424 1_455 S
C1098 C1099 1.369 . S
C1098 C1100 1.419 . S
C1098 H1102 0.930 . S
C1099 C1098 1.369 . S
C1099 C1108 1.429 . S
C1100 C1098 1.419 . S
C1100 C1101 1.363 . S
C1100 H1103 0.929 . S
C1101 C1100 1.363 . S
C1101 C1107 1.428 . S
H1102 C1098 0.930 . S
H1103 C1100 0.929 . S
S1104 N1105 1.613 . S
S1104 N1106 1.610 . S
N1105 S1104 1.613 . S
N1105 C1108 1.350 . S
N1106 S1104 1.610 . S
N1106 C1107 1.351 . S
C1107 C1101 1.428 . S
C1107 N1106 1.351 . S
C1107 C1108 1.434 . S
C1108 C1099 1.429 . S
C1108 N1105 1.350 . S
C1108 C1107 1.434 . S
C1109 C1110 1.369 . S
C1109 C1111 1.419 . S
C1109 H1113 0.930 . S
C1110 C1109 1.369 . S
C1110 C1119 1.429 . S
C1111 C1109 1.419 . S
C1111 C1112 1.363 . S
C1111 H1114 0.929 . S
C1112 C1111 1.363 . S
C1112 C1118 1.428 . S
H1113 C1109 0.930 . S
H1114 C1111 0.929 . S
S1115 N1116 1.613 . S
S1115 N1117 1.610 . S
N1116 S1115 1.613 . S
N1116 C1119 1.350 . S
N1117 S1115 1.610 . S
N1117 C1118 1.351 . S
C1118 C1112 1.428 . S
C1118 N1117 1.351 . S
C1118 C1119 1.434 . S
C1119 C1110 1.429 . S
C1119 N1116 1.350 . S
C1119 C1118 1.434 . S
C1120 C1121 1.369 . S
C1120 C1122 1.419 . S
C1120 H1124 0.930 . S
C1121 C1120 1.369 . S
C1121 C1130 1.429 . S
C1122 C1120 1.419 . S
C1122 C1123 1.363 . S
C1122 H1125 0.929 . S
C1123 C1122 1.363 . S
C1123 C1129 1.428 . S
H1124 C1120 0.930 . S
H1125 C1122 0.929 . S
S1126 N1127 1.613 . S
S1126 N1128 1.610 . S
N1127 S1126 1.613 . S
N1127 C1130 1.350 . S
N1128 S1126 1.610 . S
N1128 C1129 1.351 . S
C1129 C1123 1.428 . S
C1129 N1128 1.351 . S
C1129 C1130 1.434 . S
C1130 C1121 1.429 . S
C1130 N1127 1.350 . S
C1130 C1129 1.434 . S
C1131 C1132 1.369 . S
C1131 C1133 1.419 . S
C1131 H1135 0.930 . S
C1132 C1131 1.369 . S
C1132 C1141 1.429 . S
C1133 C1131 1.419 . S
C1133 C1134 1.363 . S
C1133 H1136 0.929 . S
C1134 C1133 1.363 . S
C1134 C1140 1.428 . S
H1135 C1131 0.930 . S
H1136 C1133 0.929 . S
S1137 N1138 1.613 . S
S1137 N1139 1.610 . S
N1138 S1137 1.613 . S
N1138 C1141 1.350 . S
N1139 S1137 1.610 . S
N1139 C1140 1.351 . S
C1140 C1134 1.428 . S
C1140 N1139 1.351 . S
C1140 C1141 1.434 . S
C1141 C1132 1.429 . S
C1141 N1138 1.350 . S
C1141 C1140 1.434 . S
C1142 C1143 1.369 . S
C1142 C1144 1.419 . S
C1142 H1146 0.930 . S
C1143 C1142 1.369 . S
C1143 C1152 1.429 . S
C1144 C1142 1.419 . S
C1144 C1145 1.363 . S
C1144 H1147 0.929 . S
C1145 C1144 1.363 . S
C1145 C1151 1.428 . S
H1146 C1142 0.930 . S
H1147 C1144 0.929 . S
S1148 N1149 1.613 . S
S1148 N1150 1.610 . S
N1149 S1148 1.613 . S
N1149 C1152 1.350 . S
N1150 S1148 1.610 . S
N1150 C1151 1.351 . S
C1151 C1145 1.428 . S
C1151 N1150 1.351 . S
C1151 C1152 1.434 . S
C1152 C1143 1.429 . S
C1152 N1149 1.350 . S
C1152 C1151 1.434 . S
C1153 C1154 1.369 . S
C1153 C1155 1.419 . S
C1153 H1157 0.930 . S
C1154 C1153 1.369 . S
C1154 C1163 1.429 . S
C1155 C1153 1.419 . S
C1155 C1156 1.363 . S
C1155 H1158 0.929 . S
C1156 C1155 1.363 . S
C1156 C1162 1.428 . S
H1157 C1153 0.930 . S
H1158 C1155 0.929 . S
S1159 N1160 1.613 . S
S1159 N1161 1.610 . S
N1160 S1159 1.613 . S
N1160 C1163 1.350 . S
N1161 S1159 1.610 . S
N1161 C1162 1.351 . S
C1162 C1156 1.428 . S
C1162 N1161 1.351 . S
C1162 C1163 1.434 . S
C1163 C1154 1.429 . S
C1163 N1160 1.350 . S
C1163 C1162 1.434 . S
C1164 C1165 1.369 . S
C1164 C1166 1.419 . S
C1164 H1168 0.930 . S
C1165 C1164 1.369 . S
C1165 C1174 1.429 . S
C1166 C1164 1.419 . S
C1166 C1167 1.363 . S
C1166 H1169 0.929 . S
C1167 C1166 1.363 . S
C1167 C1173 1.428 . S
H1168 C1164 0.930 . S
H1169 C1166 0.929 . S
S1170 N1171 1.613 . S
S1170 N1172 1.610 . S
N1171 S1170 1.613 . S
N1171 C1174 1.350 . S
N1172 S1170 1.610 . S
N1172 C1173 1.351 . S
C1173 C1167 1.428 . S
C1173 N1172 1.351 . S
C1173 C1174 1.434 . S
C1174 C1165 1.429 . S
C1174 N1171 1.350 . S
C1174 C1173 1.434 . S
C1175 C1176 1.369 . S
C1175 C1177 1.419 . S
C1175 H1179 0.930 . S
C1176 C1175 1.369 . S
C1176 C1185 1.429 . S
C1177 C1175 1.419 . S
C1177 C1178 1.363 . S
C1177 H1180 0.929 . S
C1178 C1177 1.363 . S
C1178 C1184 1.428 . S
H1179 C1175 0.930 . S
H1180 C1177 0.929 . S
S1181 N1182 1.613 . S
S1181 N1183 1.610 . S
N1182 S1181 1.613 . S
N1182 C1185 1.350 . S
N1183 S1181 1.610 . S
N1183 C1184 1.351 . S
C1184 C1178 1.428 . S
C1184 N1183 1.351 . S
C1184 C1185 1.434 . S
C1185 C1176 1.429 . S
C1185 N1182 1.350 . S
C1185 C1184 1.434 . S
C1186 C1187 1.369 . S
C1186 C1188 1.419 . S
C1186 H1190 0.930 . S
C1187 C1186 1.369 . S
C1187 C1196 1.429 . S
C1188 C1186 1.419 . S
C1188 C1189 1.363 . S
C1188 H1191 0.929 . S
C1189 C1188 1.363 . S
C1189 C1195 1.428 . S
H1190 C1186 0.930 . S
H1191 C1188 0.929 . S
S1192 N1193 1.613 . S
S1192 N1194 1.610 . S
N1193 S1192 1.613 . S
N1193 C1196 1.350 . S
N1194 S1192 1.610 . S
N1194 C1195 1.351 . S
C1195 C1189 1.428 . S
C1195 N1194 1.351 . S
C1195 C1196 1.434 . S
C1196 C1187 1.429 . S
C1196 N1193 1.350 . S
C1196 C1195 1.434 . S
C1197 C1198 1.369 . S
C1197 C1199 1.419 . S
C1197 H1201 0.930 . S
C1198 C1197 1.369 . S
C1198 C1207 1.429 . S
C1199 C1197 1.419 . S
C1199 C1200 1.363 . S
C1199 H1202 0.929 . S
C1200 C1199 1.363 . S
C1200 C1206 1.428 . S
H1201 C1197 0.930 . S
H1202 C1199 0.929 . S
S1203 N1204 1.613 . S
S1203 N1205 1.610 . S
N1204 S1203 1.613 . S
N1204 C1207 1.350 . S
N1205 S1203 1.610 . S
N1205 C1206 1.351 . S
C1206 C1200 1.428 . S
C1206 N1205 1.351 . S
C1206 C1207 1.434 . S
C1207 C1198 1.429 . S
C1207 N1204 1.350 . S
C1207 C1206 1.434 . S
C1208 C1209 1.369 . S
C1208 C1210 1.419 . S
C1208 H1212 0.930 . S
C1209 C1208 1.369 . S
C1209 C1218 1.429 . S
C1210 C1208 1.419 . S
C1210 C1211 1.363 . S
C1210 H1213 0.929 . S
C1211 C1210 1.363 . S
C1211 C1217 1.428 . S
H1212 C1208 0.930 . S
H1213 C1210 0.929 . S
S1214 N1215 1.613 . S
S1214 N1216 1.610 . S
N1215 S1214 1.613 . S
N1215 C1218 1.350 . S
N1216 S1214 1.610 . S
N1216 C1217 1.351 . S
C1217 C1211 1.428 . S
C1217 N1216 1.351 . S
C1217 C1218 1.434 . S
C1218 C1209 1.429 . S
C1218 N1215 1.350 . S
C1218 C1217 1.434 . S
C1219 C1220 1.369 . S
C1219 C1221 1.419 . S
C1219 H1223 0.930 . S
C1220 C1219 1.369 . S
C1220 C1229 1.429 . S
C1221 C1219 1.419 . S
C1221 C1222 1.363 . S
C1221 H1224 0.929 . S
C1222 C1221 1.363 . S
C1222 C1228 1.428 . S
H1223 C1219 0.930 . S
H1224 C1221 0.929 . S
S1225 N1226 1.613 . S
S1225 N1227 1.610 . S
N1226 S1225 1.613 . S
N1226 C1229 1.350 . S
N1227 S1225 1.610 . S
N1227 C1228 1.351 . S
C1228 C1222 1.428 . S
C1228 N1227 1.351 . S
C1228 C1229 1.434 . S
C1229 C1220 1.429 . S
C1229 N1226 1.350 . S
C1229 C1228 1.434 . S
C1230 C1231 1.369 . S
C1230 C1232 1.419 1_455 S
C1230 H1234 0.930 . S
C1231 C1230 1.369 . S
C1231 C1240 1.429 . S
C1232 C1230 1.419 1_655 S
C1232 C1233 1.363 . S
C1232 H1235 0.929 . S
C1233 C1232 1.363 . S
C1233 C1239 1.428 . S
H1234 C1230 0.930 . S
H1235 C1232 0.929 . S
S1236 N1237 1.613 1_655 S
S1236 N1238 1.610 . S
N1237 S1236 1.613 1_455 S
N1237 C1240 1.350 . S
N1238 S1236 1.610 . S
N1238 C1239 1.351 . S
C1239 C1233 1.428 . S
C1239 N1238 1.351 . S
C1239 C1240 1.434 1_655 S
C1240 C1231 1.429 . S
C1240 N1237 1.350 . S
C1240 C1239 1.434 1_455 S
C1241 C1242 1.369 . S
C1241 C1243 1.419 . S
C1241 H1245 0.930 . S
C1242 C1241 1.369 . S
C1242 C1251 1.429 . S
C1243 C1241 1.419 . S
C1243 C1244 1.363 . S
C1243 H1246 0.929 . S
C1244 C1243 1.363 . S
C1244 C1250 1.428 . S
H1245 C1241 0.930 . S
H1246 C1243 0.929 . S
S1247 N1248 1.613 . S
S1247 N1249 1.610 . S
N1248 S1247 1.613 . S
N1248 C1251 1.350 . S
N1249 S1247 1.610 . S
N1249 C1250 1.351 . S
C1250 C1244 1.428 . S
C1250 N1249 1.351 . S
C1250 C1251 1.434 . S
C1251 C1242 1.429 . S
C1251 N1248 1.350 . S
C1251 C1250 1.434 . S
C1252 C1253 1.369 . S
C1252 C1254 1.419 1_545 S
C1252 H1256 0.930 . S
C1253 C1252 1.369 . S
C1253 C1262 1.453 . S
C1254 C1252 1.419 1_565 S
C1254 C1255 1.363 . S
C1254 H1257 0.929 . S
C1255 C1254 1.363 . S
C1255 C1261 1.428 . S
H1256 C1252 0.930 . S
H1257 C1254 0.929 . S
S1258 N1259 1.613 . S
S1258 N1260 1.610 . S
N1259 S1258 1.613 . S
N1259 C1262 1.360 1_565 S
N1260 S1258 1.610 . S
N1260 C1261 1.351 . S
C1261 C1255 1.428 . S
C1261 N1260 1.351 . S
C1261 C1262 1.397 1_565 S
C1262 C1253 1.453 . S
C1262 N1259 1.360 1_545 S
C1262 C1261 1.397 1_545 S
C1263 C1264 1.369 . S
C1263 C1265 1.419 1_565 S
C1263 H1267 0.930 . S
C1264 C1263 1.369 . S
C1264 C1273 1.429 . S
C1265 C1263 1.419 1_545 S
C1265 C1266 1.363 . S
C1265 H1268 0.929 . S
C1266 C1265 1.363 . S
C1266 C1272 1.428 . S
H1267 C1263 0.930 . S
H1268 C1265 0.929 . S
S1269 N1270 1.613 1_545 S
S1269 N1271 1.610 . S
N1270 S1269 1.613 1_565 S
N1270 C1273 1.350 . S
N1271 S1269 1.610 . S
N1271 C1272 1.351 . S
C1272 C1266 1.428 . S
C1272 N1271 1.351 . S
C1272 C1273 1.434 1_545 S
C1273 C1264 1.429 . S
C1273 N1270 1.350 . S
C1273 C1272 1.434 1_565 S
C1274 C1275 1.369 . S
C1274 C1276 1.419 1_655 S
C1274 H1278 0.930 . S
C1275 C1274 1.369 . S
C1275 C1284 1.429 . S
C1276 C1274 1.419 1_455 S
C1276 C1277 1.363 . S
C1276 H1279 0.929 . S
C1277 C1276 1.363 . S
C1277 C1283 1.428 . S
H1278 C1274 0.930 . S
H1279 C1276 0.929 . S
S1280 N1281 1.613 1_455 S
S1280 N1282 1.610 . S
N1281 S1280 1.613 1_655 S
N1281 C1284 1.350 . S
N1282 S1280 1.610 . S
N1282 C1283 1.351 . S
C1283 C1277 1.428 . S
C1283 N1282 1.351 . S
C1283 C1284 1.434 1_455 S
C1284 C1275 1.429 . S
C1284 N1281 1.350 . S
C1284 C1283 1.434 1_655 S
C1285 C1286 1.369 . S
C1285 C1287 1.419 . S
C1285 H1289 0.930 . S
C1286 C1285 1.369 . S
C1286 C1295 1.429 . S
C1287 C1285 1.419 . S
C1287 C1288 1.363 . S
C1287 H1290 0.929 . S
C1288 C1287 1.363 . S
C1288 C1294 1.428 . S
H1289 C1285 0.930 . S
H1290 C1287 0.929 . S
S1291 N1292 1.613 . S
S1291 N1293 1.610 . S
N1292 S1291 1.613 . S
N1292 C1295 1.350 . S
N1293 S1291 1.610 . S
N1293 C1294 1.351 . S
C1294 C1288 1.428 . S
C1294 N1293 1.351 . S
C1294 C1295 1.434 . S
C1295 C1286 1.429 . S
C1295 N1292 1.350 . S
C1295 C1294 1.434 . S
C505 C68 1.324 . S
C507 C13 1.322 . S
C516 C83 1.324 . S
C518 C26 1.320 . S
C527 C42 1.318 . S
C529 C29 1.319 . S
C538 C153 1.320 . S
C540 C84 1.324 . S
C549 C110 1.322 . S
C551 C166 1.324 . S
C560 C139 1.324 . S
C562 C124 1.324 . S
C571 C169 1.345 . S
C573 C236 1.342 . S
C582 C251 1.344 . S
C584 C195 1.346 1_565 S
C593 C208 1.344 1_455 S
C595 C210 1.342 . S
C604 C264 1.341 . S
C606 C309 1.342 1_565 S
C615 C322 1.347 1_455 S
C617 C266 1.345 . S
C626 C280 1.344 . S
C628 C306 1.346 . S
C637 C404 1.346 1_545 S
C639 C349 1.345 . S
C648 C363 1.343 . S
C650 C407 1.345 1_655 S
C659 C390 1.344 . S
C661 C365 1.343 . S
C670 C489 1.339 . S
C672 C432 1.343 . S
C681 C446 1.342 1_545 S
C683 C502 1.340 . S
C692 C448 1.347 1_655 S
C694 C475 1.344 . S
C703 C167 1.672 . S
C705 C12 1.673 . S
C714 C27 1.676 . S
C716 C138 1.676 . S
C725 C152 1.674 . S
C727 C28 1.674 . S
C736 C111 1.673 . S
C738 C43 1.674 . S
C747 C69 1.675 . S
C749 C125 1.674 . S
C758 C85 1.675 . S
C760 C82 1.675 . S
C769 C168 1.725 . S
C771 C323 1.725 . S
C780 C307 1.729 . S
C782 C194 1.728 . S
C791 C308 1.729 . S
C793 C209 1.729 . S
C802 C211 1.710 . S
C804 C267 1.708 . S
C813 C237 1.711 . S
C815 C281 1.710 . S
C824 C250 1.710 . S
C826 C265 1.710 . S
C835 C503 1.710 . S
C837 C348 1.710 . S
C846 C362 1.708 . S
C848 C474 1.710 . S
C857 C364 1.707 . S
C859 C488 1.709 . S
C868 C447 1.728 . S
C870 C391 1.729 . S
C879 C449 1.728 . S
C881 C405 1.729 . S
C890 C433 1.727 . S
C892 C406 1.727 . S
C901 C223 1.666 . S
C903 C0 1.671 . S
C912 C225 1.663 . S
C914 C15 1.668 . S
C923 C40 1.674 . S
C925 C238 1.663 . S
C934 C55 1.671 . S
C936 C336 1.662 . S
C945 C57 1.671 . S
C947 C350 1.665 . S
C956 C70 1.674 . S
C958 C376 1.664 . S
C967 C97 1.673 . S
C969 C462 1.662 . S
C978 C99 1.673 . S
C980 C476 1.662 . S
C989 C113 1.673 . S
C991 C491 1.662 . S
C1000 C126 1.672 . S
C1002 C253 1.662 . S
C1011 C279 1.666 . S
C1013 C140 1.669 . S
C1022 C293 1.665 . S
C1024 C155 1.670 . S
C1033 C379 1.891 . S
C1035 C180 1.893 . S
C1044 C182 1.892 . S
C1046 C393 1.892 . S
C1055 C418 1.894 . S
C1057 C197 1.894 . S
C1066 C295 1.893 . S
C1068 C421 1.894 . S
C1077 C435 1.893 . S
C1079 C320 1.892 . S
C1088 C461 1.892 . S
C1090 C335 1.893 . S
C1099 C1 1.850 . S
C1101 C419 1.858 . S
C1110 C14 1.852 . S
C1112 C378 1.857 . S
C1121 C41 1.844 . S
C1123 C392 1.860 . S
C1132 C54 1.853 . S
C1134 C183 1.857 . S
C1143 C196 1.861 . S
C1145 C56 1.850 . S
C1154 C181 1.852 . S
C1156 C71 1.849 . S
C1165 C334 1.857 . S
C1167 C96 1.847 . S
C1176 C294 1.855 . S
C1178 C98 1.852 . S
C1187 C321 1.861 . S
C1189 C112 1.847 . S
C1198 C434 1.853 . S
C1200 C127 1.851 . S
C1209 C460 1.856 . S
C1211 C141 1.854 . S
C1220 C420 1.858 . S
C1222 C154 1.847 . S
C1231 C222 1.664 . S
C1233 C351 1.661 . S
C1242 C377 1.657 . S
C1244 C224 1.665 . S
C1253 C337 1.654 . S
C1255 C239 1.662 . S
C1264 C252 1.657 . S
C1266 C490 1.658 . S
C1275 C463 1.659 . S
C1277 C278 1.663 . S
C1286 C292 1.663 . S
C1288 C477 1.660 . S
