# Generated by pormake.
# Topology bor-e, (5)-cn, num edge types: 1
# Building blocks:
#     Node 0, Type 0, BuildingBlock: BEQFEK_clean_sbu_0, # of connection points: 5
#     Node 1, Type 0, BuildingBlock: BEQFEK_clean_sbu_0, # of connection points: 5
#     Node 2, Type 0, BuildingBlock: BEQFEK_clean_sbu_0, # of connection points: 5
#     Node 3, Type 0, BuildingBlock: BEQFEK_clean_sbu_0, # of connection points: 5
#     Node 4, Type 0, BuildingBlock: BEQFEK_clean_sbu_0, # of connection points: 5
#     Node 5, Type 0, BuildingBlock: BEQFEK_clean_sbu_0, # of connection points: 5
#     Node 6, Type 0, BuildingBlock: BEQFEK_clean_sbu_0, # of connection points: 5
#     Node 7, Type 0, BuildingBlock: BEQFEK_clean_sbu_0, # of connection points: 5
#     Node 8, Type 0, BuildingBlock: BEQFEK_clean_sbu_0, # of connection points: 5
#     Node 9, Type 0, BuildingBlock: BEQFEK_clean_sbu_0, # of connection points: 5
#     Node 10, Type 0, BuildingBlock: BEQFEK_clean_sbu_0, # of connection points: 5
#     Node 11, Type 0, BuildingBlock: BEQFEK_clean_sbu_0, # of connection points: 5
#     Edge 12, Type (0, 0), BuildingBlock: AJUNOK_clean_linker_0, # of connection points: 2
#     Edge 13, Type (0, 0), BuildingBlock: AJUNOK_clean_linker_0, # of connection points: 2
#     Edge 14, Type (0, 0), BuildingBlock: AJUNOK_clean_linker_0, # of connection points: 2
#     Edge 15, Type (0, 0), BuildingBlock: AJUNOK_clean_linker_0, # of connection points: 2
#     Edge 16, Type (0, 0), BuildingBlock: AJUNOK_clean_linker_0, # of connection points: 2
#     Edge 17, Type (0, 0), BuildingBlock: AJUNOK_clean_linker_0, # of connection points: 2
#     Edge 18, Type (0, 0), BuildingBlock: AJUNOK_clean_linker_0, # of connection points: 2
#     Edge 19, Type (0, 0), BuildingBlock: AJUNOK_clean_linker_0, # of connection points: 2
#     Edge 20, Type (0, 0), BuildingBlock: AJUNOK_clean_linker_0, # of connection points: 2
#     Edge 21, Type (0, 0), BuildingBlock: AJUNOK_clean_linker_0, # of connection points: 2
#     Edge 22, Type (0, 0), BuildingBlock: AJUNOK_clean_linker_0, # of connection points: 2
#     Edge 23, Type (0, 0), BuildingBlock: AJUNOK_clean_linker_0, # of connection points: 2
#     Edge 24, Type (0, 0), BuildingBlock: AJUNOK_clean_linker_0, # of connection points: 2
#     Edge 25, Type (0, 0), BuildingBlock: AJUNOK_clean_linker_0, # of connection points: 2
#     Edge 26, Type (0, 0), BuildingBlock: AJUNOK_clean_linker_0, # of connection points: 2
#     Edge 27, Type (0, 0), BuildingBlock: AJUNOK_clean_linker_0, # of connection points: 2
#     Edge 28, Type (0, 0), BuildingBlock: AJUNOK_clean_linker_0, # of connection points: 2
#     Edge 29, Type (0, 0), BuildingBlock: AJUNOK_clean_linker_0, # of connection points: 2
#     Edge 30, Type (0, 0), BuildingBlock: AJUNOK_clean_linker_0, # of connection points: 2
#     Edge 31, Type (0, 0), BuildingBlock: AJUNOK_clean_linker_0, # of connection points: 2
#     Edge 32, Type (0, 0), BuildingBlock: AJUNOK_clean_linker_0, # of connection points: 2
#     Edge 33, Type (0, 0), BuildingBlock: AJUNOK_clean_linker_0, # of connection points: 2
#     Edge 34, Type (0, 0), BuildingBlock: AJUNOK_clean_linker_0, # of connection points: 2
#     Edge 35, Type (0, 0), BuildingBlock: AJUNOK_clean_linker_0, # of connection points: 2
#     Edge 36, Type (0, 0), BuildingBlock: AJUNOK_clean_linker_0, # of connection points: 2
#     Edge 37, Type (0, 0), BuildingBlock: AJUNOK_clean_linker_0, # of connection points: 2
#     Edge 38, Type (0, 0), BuildingBlock: AJUNOK_clean_linker_0, # of connection points: 2
#     Edge 39, Type (0, 0), BuildingBlock: AJUNOK_clean_linker_0, # of connection points: 2
#     Edge 40, Type (0, 0), BuildingBlock: AJUNOK_clean_linker_0, # of connection points: 2
#     Edge 41, Type (0, 0), BuildingBlock: AJUNOK_clean_linker_0, # of connection points: 2
# Relax obj value: 0.572
# Max RMSD: 0.279
# Mean RMSD: 0.279
data_MOF--net-bor-e--node1-BEQFEK_clean_sbu_0--edge1-AJUNOK_clean_linker_0
_symmetry_space_group_name_H-M    P1
_symmetry_Int_Tables_number       1
_symmetry_cell_setting            triclinic
loop_
_symmetry_equiv_pos_as_xyz
'x, y, z'
_cell_length_a     35.328665
_cell_length_b     35.212609
_cell_length_c     35.341378
_cell_angle_alpha  90.238331
_cell_angle_beta   89.903608
_cell_angle_gamma 89.428805
loop_
_atom_site_label
_atom_site_type_symbol
_atom_site_fract_x
_atom_site_fract_y
_atom_site_fract_z
_atom_type_partial_charge
Co0 Co 0.0867 0.10629 0.56109 0.0
Co1 Co 0.04705 0.14966 0.62594 0.0
C2 C 0.03215 0.16627 0.54266 0.0
O3 O 0.05852 0.14401 0.53203 0.0
O4 O 0.02417 0.17014 0.57764 0.0
C5 C 0.09296 0.05492 0.50397 0.0
O6 O 0.05639 0.06206 0.50386 0.0
C7 C 0.05338 0.21788 0.67101 0.0
C8 C 0.01572 0.20681 0.71949 0.0
C9 C 0.04239 0.23229 0.70615 0.0
N10 N 0.03476 0.18538 0.66468 0.0
N11 N 0.01153 0.17935 0.69327 0.0
C12 C 0.08394 0.23202 0.64533 0.0
H13 H 0.09168 0.21072 0.62358 0.0
H14 H 0.10935 0.24013 0.66181 0.0
H15 H 0.07326 0.25709 0.62964 0.0
C16 C 0.15316 0.11394 0.60839 0.0
N17 N 0.11836 0.12595 0.59814 0.0
N18 N 0.10107 0.14118 0.62749 0.0
C19 C 0.1243 0.13882 0.65772 0.0
C20 C 0.15816 0.12155 0.64665 0.0
C21 C 0.17803 0.08947 0.58392 0.0
H22 H 0.17945 0.10163 0.55504 0.0
H23 H 0.20698 0.08698 0.59588 0.0
H24 H 0.16563 0.06072 0.58159 0.0
O25 O 0.0525 0.0706 0.5873 0.0
O26 O 0.02372 0.09961 0.63557 0.0
H27 H 0.12859 0.1282 0.71802 0.0
H28 H 0.11428 0.17545 0.7051 0.0
C29 C 0.11139 0.14498 0.69772 0.0
H30 H 0.08124 0.13707 0.70073 0.0
H31 H -0.00528 0.15535 0.69598 0.0
O32 O 0.11413 0.07432 0.52544 0.0
C33 C 0.03046 0.06986 0.61584 0.0
Co34 Co 0.10761 0.87489 0.42088 0.0
Co35 Co 0.05662 0.84098 0.35708 0.0
C36 C 0.0426 0.82359 0.43881 0.0
O37 O 0.07093 0.84323 0.44847 0.0
O38 O 0.03445 0.81914 0.40408 0.0
C39 C 0.16149 0.91005 0.47683 0.0
O40 O 0.19253 0.90569 0.49683 0.0
C41 C 0.05127 0.77731 0.30844 0.0
C42 C 0.02237 0.79877 0.25752 0.0
C43 C 0.04318 0.76813 0.27123 0.0
N44 N 0.03743 0.8121 0.31593 0.0
N45 N 0.019 0.82447 0.28581 0.0
C46 C 0.07484 0.75494 0.3358 0.0
H47 H 0.06408 0.75935 0.365 0.0
H48 H 0.10447 0.76497 0.33499 0.0
H49 H 0.07454 0.72423 0.3286 0.0
C50 C 0.16594 0.86117 0.36549 0.0
N51 N 0.1315 0.85194 0.37904 0.0
N52 N 0.10998 0.84116 0.35084 0.0
C53 C 0.12956 0.84504 0.3182 0.0
C54 C 0.16577 0.8574 0.3265 0.0
C55 C 0.19522 0.88198 0.3878 0.0
H56 H 0.20278 0.86532 0.41329 0.0
H57 H 0.22131 0.88656 0.37094 0.0
H58 H 0.18358 0.90997 0.39684 0.0
O59 O 0.07886 0.92116 0.40045 0.0
O60 O 0.04146 0.89461 0.35663 0.0
H61 H 0.08408 0.86419 0.28268 0.0
H62 H 0.12943 0.86266 0.25921 0.0
C63 C 0.11115 0.8482 0.28012 0.0
H64 H 0.10532 0.81946 0.26908 0.0
H65 H 0.00726 0.85163 0.2834 0.0
O66 O 0.14921 0.88208 0.45804 0.0
C67 C 0.05287 0.92365 0.37507 0.0
Co68 Co 0.88696 0.89383 0.58835 0.0
Co69 Co 0.93476 0.8491 0.6474 0.0
C70 C 0.93844 0.83283 0.56233 0.0
O71 O 0.91253 0.85694 0.55474 0.0
O72 O 0.94885 0.82719 0.59643 0.0
C73 C 0.83539 0.92015 0.52958 0.0
O74 O 0.83638 0.88568 0.51522 0.0
C75 C 0.93651 0.78318 0.69759 0.0
C76 C 0.98432 0.79637 0.73524 0.0
C77 C 0.95507 0.77074 0.73019 0.0
N78 N 0.95331 0.81498 0.68524 0.0
N79 N 0.98242 0.82222 0.70737 0.0
C80 C 0.90184 0.76704 0.67951 0.0
H81 H 0.89093 0.7859 0.65696 0.0
H82 H 0.8795 0.76231 0.70105 0.0
H83 H 0.90915 0.73943 0.66604 0.0
C84 C 0.82694 0.88311 0.64275 0.0
N85 N 0.86111 0.87291 0.62903 0.0
N86 N 0.88177 0.85829 0.65631 0.0
C87 C 0.86157 0.85999 0.68881 0.0
C88 C 0.82615 0.87563 0.68111 0.0
C89 C 0.79766 0.9047 0.62086 0.0
H90 H 0.80657 0.93468 0.61801 0.0
H91 H 0.79482 0.89214 0.59221 0.0
H92 H 0.76976 0.90411 0.63534 0.0
O93 O 0.9251 0.929 0.60867 0.0
O94 O 0.96099 0.89871 0.65085 0.0
H95 H 0.909 0.86035 0.72699 0.0
H96 H 0.86418 0.87318 0.74855 0.0
C97 C 0.87825 0.85443 0.72737 0.0
H98 H 0.87399 0.82462 0.73627 0.0
H99 H -0.0002 0.84582 0.70457 0.0
O100 O 0.85374 0.9273 0.55948 0.0
C101 C 0.9521 0.92855 0.63242 0.0
Co102 Co 0.8908 0.09044 0.39493 0.0
Co103 Co 0.93561 0.13521 0.33412 0.0
C104 C 0.93312 0.15698 0.41871 0.0
O105 O 0.90877 0.13201 0.42729 0.0
O106 O 0.94454 0.16055 0.38461 0.0
C107 C 0.83684 0.05733 0.44933 0.0
O108 O 0.83006 0.09105 0.46404 0.0
C109 C 0.92974 0.20152 0.28633 0.0
C110 C 0.9721 0.19057 0.24155 0.0
C111 C 0.94303 0.21526 0.25206 0.0
N112 N 0.94925 0.16977 0.295 0.0
N113 N 0.97493 0.16363 0.26842 0.0
C114 C 0.89924 0.21803 0.31102 0.0
H115 H 0.90733 0.21506 0.3412 0.0
H116 H 0.87274 0.20193 0.30686 0.0
H117 H 0.89403 0.24842 0.30439 0.0
C118 C 0.83043 0.09531 0.33862 0.0
N119 N 0.86436 0.10611 0.352 0.0
N120 N 0.88441 0.12052 0.32434 0.0
C121 C 0.86431 0.11766 0.29196 0.0
C122 C 0.82932 0.10209 0.30021 0.0
C123 C 0.80112 0.07501 0.36113 0.0
H124 H 0.79785 0.08878 0.38921 0.0
H125 H 0.77338 0.07521 0.34641 0.0
H126 H 0.81029 0.04513 0.36511 0.0
O127 O 0.93568 0.05996 0.37918 0.0
O128 O 0.96889 0.08923 0.33455 0.0
H129 H 0.86528 0.10649 0.2318 0.0
H130 H 0.87702 0.15398 0.24564 0.0
C131 C 0.88035 0.12373 0.25328 0.0
H132 H 0.91094 0.11635 0.2529 0.0
H133 H -0.00678 0.14013 0.26771 0.0
O134 O 0.8605 0.05363 0.42257 0.0
C135 C 0.96382 0.0612 0.35667 0.0
Co136 Co 0.55681 0.1166 0.09798 0.0
Co137 Co 0.62138 0.06461 0.13272 0.0
C138 C 0.54182 0.06165 0.16164 0.0
O139 O 0.53197 0.08696 0.13806 0.0
O140 O 0.57634 0.05133 0.16426 0.0
C141 C 0.50488 0.17699 0.06343 0.0
O142 O 0.48512 0.20809 0.0702 0.0
C143 C 0.67633 0.05469 0.19262 0.0
C144 C 0.72467 0.02697 0.1638 0.0
C145 C 0.7145 0.04556 0.19709 0.0
N146 N 0.66532 0.04398 0.15775 0.0
N147 N 0.694 0.02624 0.14111 0.0
C148 C 0.65084 0.0752 0.21988 0.0
H149 H 0.64437 0.10404 0.20893 0.0
H150 H 0.66378 0.07718 0.24841 0.0
H151 H 0.62364 0.05993 0.22208 0.0
C152 C 0.61796 0.17094 0.09598 0.0
N153 N 0.6035 0.13861 0.11019 0.0
N154 N 0.63101 0.11747 0.12399 0.0
C155 C 0.66402 0.13604 0.1188 0.0
C156 C 0.6568 0.17036 0.10085 0.0
C157 C 0.59647 0.19726 0.07052 0.0
H158 H 0.58293 0.18049 0.04773 0.0
H159 H 0.57412 0.21213 0.08711 0.0
H160 H 0.61487 0.2188 0.05729 0.0
O161 O 0.5668 0.07916 0.05579 0.0
O162 O 0.61076 0.0409 0.08203 0.0
H163 H 0.70641 0.09368 0.1074 0.0
H164 H 0.72536 0.13974 0.11965 0.0
C165 C 0.70246 0.11925 0.12543 0.0
H166 H 0.70496 0.11105 0.15517 0.0
H167 H 0.69364 0.01651 0.11318 0.0
O168 O 0.52108 0.16039 0.09087 0.0
C169 C 0.58862 0.04975 0.0546 0.0
Co170 Co 0.10842 0.4291 0.8686 0.0
Co171 Co 0.14603 0.36085 0.91269 0.0
C172 C 0.16399 0.44073 0.93292 0.0
O173 O 0.14181 0.45249 0.90713 0.0
O174 O 0.17005 0.40539 0.93739 0.0
C175 C 0.07555 0.48665 0.8129 0.0
O176 O 0.08309 0.50932 0.78451 0.0
C177 C 0.20795 0.30759 0.92555 0.0
C178 C 0.17904 0.25663 0.94659 0.0
C179 C 0.2139 0.26949 0.93408 0.0
N180 N 0.17122 0.31624 0.93124 0.0
N181 N 0.15428 0.28597 0.94496 0.0
C182 C 0.23609 0.33518 0.91032 0.0
H183 H 0.23225 0.36307 0.92458 0.0
H184 H 0.23106 0.33962 0.87969 0.0
H185 H 0.26554 0.32485 0.91467 0.0
C186 C 0.11262 0.37464 0.80942 0.0
N187 N 0.12761 0.38709 0.8421 0.0
N188 N 0.14627 0.35933 0.85862 0.0
C189 C 0.14557 0.32868 0.83533 0.0
C190 C 0.12379 0.33723 0.80361 0.0
C191 C 0.07926 0.39397 0.79129 0.0
H192 H 0.06174 0.4081 0.81333 0.0
H193 H 0.0895 0.4157 0.77119 0.0
H194 H 0.06084 0.3739 0.77586 0.0
O195 O 0.06313 0.4099 0.89599 0.0
O196 O 0.09124 0.36263 0.92817 0.0
H197 H 0.14363 0.27811 0.8687 0.0
H198 H 0.15991 0.27047 0.82072 0.0
C199 C 0.16059 0.29013 0.84531 0.0
H200 H 0.19031 0.29243 0.85434 0.0
H201 H 0.12536 0.28457 0.95071 0.0
O202 O 0.10272 0.46893 0.82864 0.0
C203 C 0.06183 0.38255 0.91977 0.0
Co204 Co 0.41167 0.89592 0.106 0.0
Co205 Co 0.34205 0.9368 0.14036 0.0
C206 C 0.42388 0.95452 0.16313 0.0
O207 O 0.43695 0.92648 0.14446 0.0
O208 O 0.38844 0.96191 0.16307 0.0
C209 C 0.47358 0.88764 0.06041 0.0
O210 O 0.47305 0.92458 0.06591 0.0
C211 C 0.2939 0.93038 0.20533 0.0
C212 C 0.24248 0.96292 0.19037 0.0
C213 C 0.25725 0.9382 0.2172 0.0
N214 N 0.30019 0.9486 0.17266 0.0
N215 N 0.26961 0.96871 0.16414 0.0
C216 C 0.32238 0.90474 0.2238 0.0
H217 H 0.3515 0.91394 0.21674 0.0
H218 H 0.31895 0.87533 0.21311 0.0
H219 H 0.31832 0.90465 0.25496 0.0
C220 C 0.36441 0.8291 0.11268 0.0
N221 N 0.37338 0.86461 0.12369 0.0
N222 N 0.34275 0.88239 0.13567 0.0
C223 C 0.31304 0.85883 0.13202 0.0
C224 C 0.32581 0.82414 0.11784 0.0
C225 C 0.39069 0.80325 0.09131 0.0
H226 H 0.41916 0.80362 0.10451 0.0
H227 H 0.37988 0.77376 0.09074 0.0
H228 H 0.39343 0.81357 0.06181 0.0
O229 O 0.3881 0.92861 0.06691 0.0
O230 O 0.33561 0.95681 0.08795 0.0
H231 H 0.25428 0.8539 0.11487 0.0
H232 H 0.26174 0.87066 0.16221 0.0
C233 C 0.27254 0.872 0.13281 0.0
H234 H 0.27029 0.90167 0.12268 0.0
H235 H 0.26641 0.98438 0.13935 0.0
O236 O 0.45026 0.86734 0.07844 0.0
C237 C 0.35914 0.94972 0.06128 0.0
Co238 Co 0.89463 0.57675 0.91346 0.0
Co239 Co 0.84984 0.64465 0.94737 0.0
C240 C 0.82275 0.56226 0.94909 0.0
O241 O 0.84832 0.55073 0.92642 0.0
O242 O 0.82169 0.59672 0.96041 0.0
C243 C 0.92703 0.51358 0.86846 0.0
O244 O 0.89378 0.50663 0.85351 0.0
C245 C 0.78361 0.69313 0.93785 0.0
C246 C 0.79521 0.74194 0.97531 0.0
C247 C 0.76975 0.72849 0.94873 0.0
N248 N 0.81608 0.68631 0.95649 0.0
N249 N 0.82261 0.71533 0.97931 0.0
C250 C 0.76673 0.6663 0.9097 0.0
H251 H 0.77853 0.67192 0.8812 0.0
H252 H 0.73552 0.67006 0.90849 0.0
H253 H 0.77397 0.63655 0.91714 0.0
C254 C 0.90254 0.62858 0.84874 0.0
N255 N 0.88638 0.61856 0.88174 0.0
N256 N 0.86774 0.64775 0.89609 0.0
C257 C 0.8719 0.67766 0.87269 0.0
C258 C 0.89412 0.66649 0.84195 0.0
C259 C 0.93029 0.6041 0.82752 0.0
H260 H 0.9541 0.59627 0.84647 0.0
H261 H 0.91618 0.57756 0.81855 0.0
H262 H 0.94171 0.61859 0.80222 0.0
O263 O 0.92061 0.59341 0.9599 0.0
O264 O 0.89476 0.64694 0.98174 0.0
H265 H 0.86657 0.72518 0.91061 0.0
H266 H 0.869 0.7383 0.86111 0.0
C267 C 0.85816 0.71716 0.88145 0.0
H268 H 0.82695 0.71816 0.87972 0.0
H269 H 0.84646 0.71761 -0.00345 0.0
O270 O 0.93094 0.5408 0.89163 0.0
C271 C 0.9201 0.62091 0.98333 0.0
Co272 Co 0.55652 0.88007 0.8805 0.0
Co273 Co 0.62166 0.93108 0.84846 0.0
C274 C 0.54312 0.93428 0.81644 0.0
O275 O 0.53253 0.9091 0.8396 0.0
O276 O 0.57748 0.94477 0.81557 0.0
C277 C 0.50327 0.82264 0.91568 0.0
O278 O 0.48311 0.79207 0.90961 0.0
C279 C 0.67952 0.92977 0.79204 0.0
C280 C 0.72415 0.96706 0.81423 0.0
C281 C 0.71657 0.94064 0.78605 0.0
N282 N 0.66617 0.94774 0.82297 0.0
N283 N 0.69269 0.97064 0.8358 0.0
C284 C 0.65725 0.90154 0.76967 0.0
H285 H 0.65788 0.87369 0.78417 0.0
H286 H 0.66911 0.89795 0.74076 0.0
H287 H 0.62724 0.91089 0.76793 0.0
C288 C 0.61686 0.82288 0.87918 0.0
N289 N 0.60273 0.85665 0.86764 0.0
N290 N 0.63081 0.87895 0.8586 0.0
C291 C 0.66379 0.8609 0.86635 0.0
C292 C 0.65599 0.82439 0.87834 0.0
C293 C 0.59389 0.79231 0.89706 0.0
H294 H 0.58208 0.80292 0.92426 0.0
H295 H 0.57014 0.7847 0.87811 0.0
H296 H 0.61127 0.76648 0.90256 0.0
O297 O 0.5669 0.91835 0.9229 0.0
O298 O 0.61118 0.95608 0.89765 0.0
H299 H 0.69462 0.90977 0.88496 0.0
H300 H 0.71906 0.86522 0.89275 0.0
C301 C 0.70036 0.8811 0.87304 0.0
H302 H 0.71571 0.8843 0.84609 0.0
H303 H 0.69026 0.98674 0.86055 0.0
O304 O 0.52034 0.83763 0.888 0.0
C305 C 0.58848 0.94754 0.92451 0.0
Co306 Co 0.89637 0.41629 0.07465 0.0
Co307 Co 0.84957 0.35222 0.03675 0.0
C308 C 0.82577 0.43603 0.03664 0.0
O309 O 0.85272 0.44604 0.05815 0.0
O310 O 0.82227 0.40152 0.02621 0.0
C311 C 0.93317 0.48248 0.10917 0.0
O312 O 0.9012 0.5018 0.10876 0.0
C313 C 0.7843 0.30306 0.04634 0.0
C314 C 0.79213 0.26073 0.00085 0.0
C315 C 0.76919 0.26947 0.03179 0.0
N316 N 0.81474 0.31251 0.02561 0.0
N317 N 0.81893 0.28743 -0.00197 0.0
C318 C 0.772 0.32522 0.08056 0.0
H319 H 0.79291 0.34727 0.08788 0.0
H320 H 0.76796 0.30604 0.10504 0.0
H321 H 0.74486 0.34004 0.07444 0.0
C322 C 0.89594 0.36421 0.13912 0.0
N323 N 0.88344 0.37505 0.10485 0.0
N324 N 0.86646 0.34649 0.08818 0.0
C325 C 0.86862 0.31597 0.11111 0.0
C326 C 0.88686 0.32636 0.14441 0.0
C327 C 0.91897 0.38881 0.16467 0.0
H328 H 0.94863 0.38913 0.15431 0.0
H329 H 0.90779 0.41836 0.1641 0.0
H330 H 0.91863 0.37804 0.19414 0.0
O331 O 0.92472 0.39703 0.03069 0.0
O332 O 0.89478 0.34952 0.00247 0.0
H333 H 0.86333 0.27331 0.06768 0.0
H334 H 0.87876 0.25537 0.11298 0.0
C335 C 0.85991 0.27625 0.09874 0.0
H336 H 0.8303 0.26952 0.1064 0.0
H337 H 0.84076 0.28782 0.97823 0.0
O338 O 0.93438 0.44805 0.09865 0.0
C339 C 0.92295 0.37176 0.00505 0.0
Co340 Co 0.40685 0.08221 0.88399 0.0
Co341 Co 0.33864 0.05023 0.83976 0.0
C342 C 0.42212 0.0366 0.81736 0.0
O343 O 0.43417 0.0606 0.84125 0.0
O344 O 0.38681 0.02938 0.815 0.0
C345 C 0.47306 0.12137 0.9163 0.0
O346 O 0.48484 0.13164 0.88263 0.0
C347 C 0.29095 0.06181 0.77341 0.0
C348 C 0.2423 0.02465 0.78449 0.0
C349 C 0.25574 0.05159 0.75938 0.0
N350 N 0.29756 0.04239 0.80545 0.0
N351 N 0.26857 0.01985 0.8117 0.0
C352 C 0.31829 0.08937 0.7568 0.0
H353 H 0.34766 0.08162 0.76504 0.0
H354 H 0.31215 0.11825 0.76798 0.0
H355 H 0.31575 0.08998 0.72551 0.0
C356 C 0.36036 0.15166 0.88454 0.0
N357 N 0.36886 0.11697 0.8705 0.0
N358 N 0.33913 0.10318 0.85304 0.0
C359 C 0.31037 0.12858 0.85616 0.0
C360 C 0.32309 0.16028 0.87569 0.0
C361 C 0.38519 0.17308 0.91121 0.0
H362 H 0.38786 0.15705 0.93805 0.0
H363 H 0.41385 0.17572 0.89872 0.0
H364 H 0.37346 0.20181 0.9174 0.0
O365 O 0.38393 0.04155 0.91385 0.0
O366 O 0.3306 0.0213 0.88768 0.0
H367 H 0.26403 0.08951 0.85455 0.0
H368 H 0.25017 0.13805 0.86454 0.0
C369 C 0.2698 0.11965 0.84794 0.0
H370 H 0.26403 0.12452 0.81753 0.0
H371 H 0.26611 0.0022 0.83519 0.0
O372 O 0.44247 0.10332 0.92011 0.0
C373 C 0.35461 0.02097 0.91458 0.0
Co374 Co 0.11416 0.56891 0.11726 0.0
Co375 Co 0.14205 0.63559 0.06535 0.0
C376 C 0.16364 0.55321 0.05054 0.0
O377 O 0.14667 0.5419 0.08008 0.0
O378 O 0.16416 0.58836 0.04229 0.0
C379 C 0.07647 0.51645 0.17255 0.0
O380 O 0.0794 0.49727 0.20422 0.0
C381 C 0.20611 0.68469 0.06203 0.0
C382 C 0.18673 0.73488 0.03027 0.0
C383 C 0.21642 0.72119 0.0522 0.0
N384 N 0.17172 0.67738 0.04761 0.0
N385 N 0.16053 0.70725 0.02786 0.0
C386 C 0.22773 0.65766 0.08668 0.0
H387 H 0.21789 0.66053 0.11635 0.0
H388 H 0.25849 0.66372 0.08572 0.0
H389 H 0.22254 0.62799 0.07752 0.0
C390 C 0.12706 0.62521 0.17522 0.0
N391 N 0.13571 0.61175 0.14039 0.0
N392 N 0.14296 0.64056 0.11821 0.0
C393 C 0.13672 0.6732 0.13741 0.0
C394 C 0.12705 0.66447 0.17428 0.0
C395 C 0.10978 0.60211 0.20609 0.0
H396 H 0.08079 0.59376 0.19766 0.0
H397 H 0.12722 0.57626 0.21101 0.0
H398 H 0.10791 0.61853 0.23293 0.0
O399 O 0.06765 0.58808 0.08949 0.0
O400 O 0.08728 0.63617 0.05289 0.0
H401 H 0.11143 0.70549 0.09247 0.0
H402 H 0.11307 0.73061 0.13716 0.0
C403 C 0.12846 0.7104 0.11836 0.0
H404 H 0.15523 0.72383 0.10987 0.0
H405 H 0.13405 0.70984 0.01508 0.0
O406 O 0.10554 0.5327 0.15946 0.0
C407 C 0.061 0.61477 0.06557 0.0
C408 C 0.08765 0.27745 0.79216 0.0
C409 C 0.10499 0.31006 0.77763 0.0
C410 C 0.06723 0.25299 0.76876 0.0
C411 C 0.06207 0.26077 0.73006 0.0
H412 H 0.08917 0.27096 0.82203 0.0
H413 H 0.05553 0.22762 0.78124 0.0
S414 S 0.09601 0.34646 0.67985 0.0
N415 N 0.11404 0.35016 0.72274 0.0
N416 N 0.07116 0.30701 0.67992 0.0
C417 C 0.07728 0.29461 0.7157 0.0
C418 C 0.0998 0.31851 0.73918 0.0
C419 C 0.21566 0.85896 0.27652 0.0
C420 C 0.19032 0.87854 0.30025 0.0
C421 C 0.23784 0.87856 0.25025 0.0
C422 C 0.23528 0.9184 0.24679 0.0
H423 H 0.21796 0.82829 0.27795 0.0
H424 H 0.25613 0.86211 0.23176 0.0
S425 S 0.17174 0.9823 0.30187 0.0
N426 N 0.16287 0.93947 0.31836 0.0
N427 N 0.20459 0.97642 0.26895 0.0
C428 C 0.20964 0.93815 0.27024 0.0
C429 C 0.18722 0.9182 0.29708 0.0
C430 C 0.92137 0.71003 0.74779 0.0
C431 C 0.94266 0.742 0.75856 0.0
C432 C 0.90605 0.68543 0.77485 0.0
C433 C 0.91221 0.69132 0.81361 0.0
H434 H 0.91637 0.70358 0.7184 0.0
H435 H 0.88892 0.66187 0.76541 0.0
S436 S 0.97137 0.76593 0.85703 0.0
N437 N 0.97214 0.77536 0.81133 0.0
N438 N 0.94519 0.72767 0.86148 0.0
C439 C 0.93575 0.72113 0.82476 0.0
C440 C 0.95067 0.7467 0.79743 0.0
C441 C 0.77109 0.03635 0.23863 0.0
C442 C 0.74207 0.06043 0.22522 0.0
C443 C 0.79948 0.05001 0.26277 0.0
C444 C 0.8003 0.08842 0.27358 0.0
H445 H 0.77183 0.00668 0.23039 0.0
H446 H 0.82104 0.03049 0.27295 0.0
S447 S 0.7331 0.16409 0.24512 0.0
N448 N 0.71741 0.12546 0.22398 0.0
N449 N 0.77093 0.15054 0.26904 0.0
C450 C 0.77207 0.11293 0.26024 0.0
C451 C 0.74288 0.0991 0.23608 0.0
C452 C 0.12344 0.71058 0.22744 0.0
C453 C 0.10493 0.6893 0.19976 0.0
C454 C 0.10305 0.73546 0.25092 0.0
C455 C 0.06344 0.73979 0.24752 0.0
H456 H 0.15389 0.70838 0.23055 0.0
H457 H 0.11881 0.7522 0.27104 0.0
S458 S 0.0024 0.69083 0.178 0.0
N459 N 0.0454 0.67411 0.16922 0.0
N460 N 0.00687 0.72124 0.21344 0.0
C461 C 0.04477 0.71878 0.21954 0.0
C462 C 0.06555 0.69328 0.19572 0.0
C463 C 0.79285 0.93109 0.71098 0.0
C464 C 0.79882 0.89157 0.7087 0.0
C465 C 0.76638 0.94676 0.73638 0.0
C466 C 0.74462 0.92337 0.75981 0.0
H467 H 0.80885 0.94999 0.69305 0.0
H468 H 0.76251 0.97731 0.73731 0.0
S469 S 0.75193 0.81819 0.76621 0.0
N470 N 0.78273 0.82961 0.73306 0.0
N471 N 0.73267 0.85866 0.78059 0.0
C472 C 0.751 0.88379 0.75822 0.0
C473 C 0.77827 0.86799 0.73271 0.0
C474 C 0.95228 0.27063 0.20927 0.0
C475 C 0.92738 0.24603 0.22796 0.0
C476 C 0.93886 0.29763 0.18331 0.0
C477 C 0.90009 0.30065 0.17481 0.0
H478 H 0.98248 0.26856 0.21429 0.0
H479 H 0.95914 0.31527 0.16877 0.0
S480 S 0.82308 0.24266 0.21501 0.0
N481 N 0.86194 0.22617 0.23526 0.0
N482 N 0.8369 0.27741 0.18717 0.0
C483 C 0.87483 0.27669 0.19356 0.0
C484 C 0.88841 0.24924 0.22 0.0
C485 C 0.20962 0.12512 0.695 0.0
C486 C 0.1857 0.10299 0.67239 0.0
C487 C 0.23333 0.10824 0.72216 0.0
C488 C 0.23374 0.06862 0.72779 0.0
H489 H 0.20932 0.15576 0.69226 0.0
H490 H 0.25009 0.12662 0.73994 0.0
S491 S 0.17514 -0.00155 0.67642 0.0
N492 N 0.16292 0.03976 0.65791 0.0
N493 N 0.20773 0.00792 0.70847 0.0
C494 C 0.20992 0.04628 0.70515 0.0
C495 C 0.18589 0.06346 0.67752 0.0
C496 C 0.2998 0.78803 0.06242 0.0
C497 C 0.30147 0.79408 0.10178 0.0
C498 C 0.27258 0.76384 0.0465 0.0
C499 C 0.24664 0.74451 0.06947 0.0
H500 H 0.31857 0.80329 0.04375 0.0
H501 H 0.27149 0.76061 0.01602 0.0
S502 S 0.23905 0.75173 0.17412 0.0
N503 N 0.27481 0.77947 0.16317 0.0
N504 N 0.22413 0.7338 0.13364 0.0
C505 C 0.24856 0.74999 0.10892 0.0
C506 C 0.27589 0.77484 0.12497 0.0
C507 C 0.2619 0.24844 0.88571 0.0
C508 C 0.24578 0.24439 0.922 0.0
C509 C 0.28795 0.22172 0.87138 0.0
C510 C 0.29905 0.19024 0.89291 0.0
H511 H 0.2531 0.27132 0.86734 0.0
H512 H 0.29866 0.22511 0.84286 0.0
S513 S 0.26655 0.16667 0.98958 0.0
N514 N 0.24367 0.20646 0.97926 0.0
N515 N 0.29311 0.15651 0.9523 0.0
C516 C 0.28416 0.18621 0.92948 0.0
C517 C 0.25734 0.21319 0.94399 0.0
C518 C 0.73604 0.75363 0.89174 0.0
C519 C 0.73865 0.7508 0.9314 0.0
C520 C 0.70871 0.77709 0.87473 0.0
C521 C 0.68285 0.79804 0.8968 0.0
H522 H 0.75606 0.73871 0.87369 0.0
H523 H 0.70808 0.77927 0.84416 0.0
S524 S 0.67786 0.801 0.00144 0.0
N525 N 0.71324 0.77134 -0.00788 0.0
N526 N 0.66149 0.81507 0.95998 0.0
C527 C 0.68488 0.79534 0.93634 0.0
C528 C 0.71297 0.77184 0.95368 0.0
C529 C 0.68455 0.23442 0.08963 0.0
C530 C 0.6845 0.19536 0.08182 0.0
C531 C 0.71084 0.2585 0.07242 0.0
C532 C 0.73905 0.24434 0.04761 0.0
H533 H 0.664 0.24648 0.10917 0.0
H534 H 0.70823 0.28836 0.07859 0.0
S535 S 0.74694 0.14421 0.01394 0.0
N536 N 0.71091 0.14414 0.04366 0.0
N537 N 0.76242 0.18826 0.01372 0.0
C538 C 0.738 0.20524 0.03845 0.0
C539 C 0.7104 0.18106 0.05507 0.0
C540 C 0.16396 0.9801 0.47583 0.0
C541 C 0.14222 0.94699 0.4763 0.0
C542 C 0.14711 0.01565 0.4817 0.0
C543 C 0.108 0.01914 0.4883 0.0
H544 H 0.19442 0.97836 0.47243 0.0
H545 H 0.16512 0.04036 0.48303 0.0
S546 S 0.03859 0.94072 0.4907 0.0
N547 N 0.07978 0.91957 0.48281 0.0
N548 N 0.0476 0.9866 0.49272 0.0
C549 C 0.08558 0.98637 0.48646 0.0
C550 C 0.10289 0.95011 0.48085 0.0
C551 C 0.00131 0.81163 0.53676 0.0
C552 C 0.96239 0.81818 0.53063 0.0
C553 C 0.02702 0.80969 0.50644 0.0
C554 C 0.0148 0.81343 0.46872 0.0
H555 H 0.01261 0.81142 0.56524 0.0
H556 H 0.05698 0.80789 0.51275 0.0
S557 S 0.915 0.82363 0.43714 0.0
N558 N 0.91231 0.82304 0.48378 0.0
N559 N 0.96039 0.81862 0.42684 0.0
C560 C 0.97552 0.81572 0.46205 0.0
C561 C 0.9494 0.81832 0.49299 0.0
C562 C 0.81639 0.02221 0.50663 0.0
C563 C 0.82304 0.02249 0.4675 0.0
C564 C 0.81574 0.98789 0.52639 0.0
C565 C 0.82158 0.95292 0.50757 0.0
H566 H 0.81539 0.04852 0.52261 0.0
H567 H 0.81406 0.98899 0.557 0.0
S568 S 0.82919 0.9384 0.40393 0.0
N569 N 0.82722 0.98493 0.40959 0.0
N570 N 0.82607 0.92042 0.44688 0.0
C571 C 0.82266 0.95268 0.46792 0.0
C572 C 0.82348 0.98761 0.4478 0.0
C573 C 0.94166 0.17182 0.48763 0.0
C574 C 0.95509 0.1746 0.45013 0.0
C575 C 0.96635 0.17455 0.51864 0.0
C576 C 0.00541 0.1797 0.51321 0.0
H577 H 0.91256 0.16403 0.49301 0.0
H578 H 0.95539 0.16836 0.54657 0.0
S579 S 0.05344 0.19834 0.42197 0.0
N580 N 0.00892 0.19075 0.41027 0.0
N581 N 0.05515 0.19475 0.4685 0.0
C582 C 0.01828 0.18746 0.47645 0.0
C583 C -0.00688 0.1853 0.4449 0.0
C584 C 0.49193 0.10947 0.98242 0.0
C585 C 0.4918 0.13398 0.95106 0.0
C586 C 0.4994 0.12309 0.01879 0.0
C587 C 0.5066 0.16168 0.02485 0.0
H588 H 0.48387 0.08002 0.97912 0.0
H589 H 0.49646 0.10397 0.04253 0.0
S590 S 0.51434 0.23639 0.95177 0.0
N591 N 0.50345 0.19761 0.92783 0.0
N592 N 0.51723 0.22348 -0.00343 0.0
C593 C 0.50942 0.18588 -0.00652 0.0
C594 C 0.50226 0.17189 0.95634 0.0
C595 C 0.17624 0.53498 0.98303 0.0
C596 C 0.1755 0.5246 0.0215 0.0
C597 C 0.17613 0.50745 0.95417 0.0
C598 C 0.17596 0.46838 0.96251 0.0
H599 H 0.17367 0.56454 0.97497 0.0
H600 H 0.17362 0.51692 0.92515 0.0
S601 S 0.18167 0.42623 0.05853 0.0
N602 N 0.1802 0.4725 0.06624 0.0
N603 N 0.18064 0.42083 0.01212 0.0
C604 C 0.17947 0.45765 0.00073 0.0
C605 C 0.17904 0.48572 0.03017 0.0
C606 C 0.49446 0.89487 -0.00617 0.0
C607 C 0.49117 0.87177 0.02604 0.0
C608 C 0.50048 0.8788 0.95807 0.0
C609 C 0.50448 0.83938 0.95365 0.0
H610 H 0.4891 0.92518 -0.00438 0.0
H611 H 0.49907 0.89703 0.9335 0.0
S612 S 0.50476 0.76735 0.02976 0.0
N613 N 0.49673 0.80806 0.05186 0.0
N614 N 0.50931 0.778 0.98452 0.0
C615 C 0.50446 0.81632 0.98592 0.0
C616 C 0.49776 0.83255 0.02225 0.0
C617 C 0.80206 0.53575 0.01032 0.0
C618 C 0.80272 0.53268 0.97063 0.0
C619 C 0.80358 0.50315 0.03292 0.0
C620 C 0.80513 0.46666 0.01648 0.0
H621 H 0.80596 0.56306 0.02392 0.0
H622 H 0.80823 0.50669 0.06303 0.0
S623 S 0.79335 0.44416 0.91459 0.0
N624 N 0.79465 0.491 0.91642 0.0
N625 N 0.79659 0.42964 0.95885 0.0
C626 C 0.7982 0.46347 0.9774 0.0
C627 C 0.79719 0.49667 0.95439 0.0
C628 C 0.97125 0.51728 0.15692 0.0
C629 C 0.96869 0.49984 0.12129 0.0
C630 C 0.00673 0.52527 0.17262 0.0
C631 C 0.04026 0.51713 0.15253 0.0
H632 H 0.94605 0.52199 0.17388 0.0
H633 H 0.00805 0.53609 0.20133 0.0
S634 S 0.04805 0.476 0.05627 0.0
N635 N 0.00211 0.47752 0.0651 0.0
N636 N 0.06864 0.49411 0.09409 0.0
C637 C 0.03781 0.5027 0.11568 0.0
C638 C 0.00193 0.49357 0.10016 0.0
C639 C -0.00752 0.49074 0.87915 0.0
C640 C 0.96185 0.49546 0.85413 0.0
C641 C 0.02925 0.48483 0.86558 0.0
C642 C 0.03646 0.48359 0.82659 0.0
H643 H 0.98837 0.49432 0.90936 0.0
H644 H 0.05243 0.48433 0.88562 0.0
S645 S 0.96547 0.48853 0.7496 0.0
N646 N 0.94048 0.49401 0.78883 0.0
N647 N 0.00988 0.48281 0.7632 0.0
C648 C 0.00576 0.48499 0.80138 0.0
C649 C 0.96823 0.49074 0.81522 0.0
C650 C 0.48976 0.97146 0.18247 0.0
C651 C 0.45166 0.98272 0.1776 0.0
C652 C 0.5191 -0.00191 0.18265 0.0
C653 C 0.51155 0.03707 0.17744 0.0
H654 H 0.49735 0.94157 0.18287 0.0
H655 H 0.54799 0.9875 0.1828 0.0
S656 S 0.41624 0.08221 0.17349 0.0
N657 N 0.40766 0.03623 0.17526 0.0
N658 N 0.46274 0.08617 0.17517 0.0
C659 C 0.47336 0.04906 0.17772 0.0
C660 C 0.44342 0.02193 0.17791 0.0
C661 C 0.4886 0.02364 0.79676 0.0
C662 C 0.45096 0.01103 0.79969 0.0
C663 C 0.51916 -0.00214 0.79623 0.0
C664 C 0.51315 0.95851 0.79909 0.0
H665 H 0.49473 0.05367 0.79888 0.0
H666 H 0.5475 0.00915 0.79823 0.0
S667 S 0.4201 0.9107 0.79589 0.0
N668 N 0.4094 0.95646 0.79657 0.0
N669 N 0.4668 0.90806 0.79593 0.0
C670 C 0.47569 0.94553 0.79602 0.0
C671 C 0.44454 0.9718 0.79621 0.0
C672 C 0.97576 0.03244 0.6402 0.0
C673 C 0.01277 0.0333 0.62561 0.0
C674 C 0.95683 -0.00212 0.64454 0.0
C675 C 0.97477 0.96313 0.63567 0.0
H676 H 0.9606 0.05867 0.64628 0.0
H677 H 0.92751 -0.00162 0.6536 0.0
S678 S 0.07235 0.94967 0.59938 0.0
N679 N 0.06734 -0.00388 0.60421 0.0
N680 N 0.03185 0.93133 0.61342 0.0
C681 C 0.01238 0.96341 0.62313 0.0
C682 C 0.03138 -0.00149 0.61786 0.0
C683 C -0.0043 0.95919 0.35338 0.0
C684 C 0.03279 0.9602 0.36802 0.0
C685 C 0.97444 0.99239 0.34804 0.0
C686 C 0.98958 0.02811 0.35623 0.0
H687 H 0.98226 0.93236 0.34716 0.0
H688 H 0.94546 0.99004 0.33832 0.0
S689 S 0.08556 0.04725 0.39333 0.0
N690 N 0.08412 0.00047 0.38952 0.0
N691 N 0.04392 0.06322 0.37878 0.0
C692 C 0.0269 0.03 0.3697 0.0
C693 C 0.04855 -0.00404 0.37582 0.0
C694 C 0.58946 0.98444 0.02586 0.0
C695 C 0.58734 0.02417 0.02113 0.0
C696 C 0.58838 0.95954 -0.00537 0.0
C697 C 0.58634 0.97358 0.95752 0.0
H698 H 0.59167 0.97248 0.05397 0.0
H699 H 0.59022 0.92922 -0.00052 0.0
S700 S 0.57915 0.07495 0.92979 0.0
N701 N 0.58167 0.07611 0.97644 0.0
N702 N 0.58104 0.02957 0.9178 0.0
C703 C 0.58389 0.01317 0.95244 0.0
C704 C 0.58401 0.0384 0.98421 0.0
C705 C 0.99064 0.38313 0.92301 0.0
C706 C 0.02588 0.37508 0.94005 0.0
C707 C 0.95652 0.37891 0.94315 0.0
C708 C 0.95672 0.36697 0.98102 0.0
H709 H 0.98946 0.39353 0.89422 0.0
H710 H 0.93011 0.38699 0.92973 0.0
S711 S 0.04091 0.34316 0.03896 0.0
N712 N 0.05838 0.35439 -0.00283 0.0
N713 N -0.00548 0.34735 0.03484 0.0
C714 C 0.99154 0.35821 -0.00193 0.0
C715 C 0.02608 0.36198 0.97762 0.0
C716 C 0.3799 0.97332 0.95877 0.0
C717 C 0.34975 -0.00282 0.94831 0.0
C718 C 0.38177 0.95747 -0.00514 0.0
C719 C 0.35381 0.96528 0.02248 0.0
H720 H 0.40319 0.96817 0.93933 0.0
H721 H 0.40627 0.93995 0.00136 0.0
S722 S 0.26788 0.0251 0.00817 0.0
N723 N 0.29044 0.02699 0.96723 0.0
N724 N 0.29371 -0.00275 0.03567 0.0
C725 C 0.32256 0.98803 0.0118 0.0
C726 C 0.32058 0.00395 0.97458 0.0
C727 C 0.96497 0.58838 0.0267 0.0
C728 C 0.95158 0.62251 0.01077 0.0
C729 C -0.0006 0.58676 0.04618 0.0
C730 C 0.02225 0.61899 0.04989 0.0
H731 H 0.94942 0.56229 0.02271 0.0
H732 H 0.00922 0.55954 0.05643 0.0
S733 S -0.00161 0.71604 0.01624 0.0
N734 N 0.96227 0.68996 0.00244 0.0
N735 N 0.02753 0.68689 0.03866 0.0
C736 C 0.0083 0.65378 0.03576 0.0
C737 C 0.97278 0.65556 0.01639 0.0
loop_
_geom_bond_atom_site_label_1
_geom_bond_atom_site_label_2
_geom_bond_distance
_geom_bond_site_symmetry_2
_ccdc_geom_bond_type
Co0 O3 1.970 . S
Co0 N17 1.989 . S
Co0 O25 1.967 . S
Co0 O32 1.920 . S
Co1 O4 1.966 . S
Co1 N10 2.022 . S
Co1 N18 1.993 . S
Co1 O26 1.941 . S
C2 O3 1.258 . S
C2 O4 1.263 . S
O3 Co0 1.970 . S
O3 C2 1.258 . S
O4 Co1 1.966 . S
O4 C2 1.263 . S
C5 O6 1.235 . S
C5 O32 1.289 . S
O6 C5 1.235 . S
C7 C9 1.400 . S
C7 N10 1.351 . S
C7 C12 1.501 . S
C8 C9 1.387 . S
C8 N11 1.341 . S
C9 C7 1.400 . S
C9 C8 1.387 . S
N10 Co1 2.022 . S
N10 C7 1.351 . S
N10 N11 1.365 . S
N11 C8 1.341 . S
N11 N10 1.365 . S
N11 H31 0.862 . S
C12 C7 1.501 . S
C12 H13 0.961 . S
C12 H14 0.961 . S
C12 H15 0.960 . S
H13 C12 0.961 . S
H14 C12 0.961 . S
H15 C12 0.960 . S
C16 N17 1.342 . S
C16 C20 1.401 . S
C16 C21 1.499 . S
N17 Co0 1.989 . S
N17 C16 1.342 . S
N17 N18 1.388 . S
N18 Co1 1.993 . S
N18 N17 1.388 . S
N18 C19 1.346 . S
C19 N18 1.346 . S
C19 C20 1.396 . S
C19 C29 1.510 . S
C20 C16 1.401 . S
C20 C19 1.396 . S
C21 C16 1.499 . S
C21 H22 0.959 . S
C21 H23 0.960 . S
C21 H24 0.961 . S
H22 C21 0.959 . S
H23 C21 0.960 . S
H24 C21 0.961 . S
O25 Co0 1.967 . S
O25 C33 1.258 . S
O26 Co1 1.941 . S
O26 C33 1.266 . S
H27 C29 0.959 . S
H28 C29 0.961 . S
C29 C19 1.510 . S
C29 H27 0.959 . S
C29 H28 0.961 . S
C29 H30 0.960 . S
H30 C29 0.960 . S
H31 N11 0.862 . S
O32 Co0 1.920 . S
O32 C5 1.289 . S
C33 O25 1.258 . S
C33 O26 1.266 . S
Co34 O37 1.970 . S
Co34 N51 1.989 . S
Co34 O59 1.967 . S
Co34 O66 1.920 . S
Co35 O38 1.966 . S
Co35 N44 2.022 . S
Co35 N52 1.993 . S
Co35 O60 1.941 . S
C36 O37 1.258 . S
C36 O38 1.263 . S
O37 Co34 1.970 . S
O37 C36 1.258 . S
O38 Co35 1.966 . S
O38 C36 1.263 . S
C39 O40 1.235 . S
C39 O66 1.289 . S
O40 C39 1.235 . S
C41 C43 1.400 . S
C41 N44 1.351 . S
C41 C46 1.501 . S
C42 C43 1.387 . S
C42 N45 1.341 . S
C43 C41 1.400 . S
C43 C42 1.387 . S
N44 Co35 2.022 . S
N44 C41 1.351 . S
N44 N45 1.365 . S
N45 C42 1.341 . S
N45 N44 1.365 . S
N45 H65 0.862 . S
C46 C41 1.501 . S
C46 H47 0.961 . S
C46 H48 0.961 . S
C46 H49 0.960 . S
H47 C46 0.961 . S
H48 C46 0.961 . S
H49 C46 0.960 . S
C50 N51 1.342 . S
C50 C54 1.401 . S
C50 C55 1.499 . S
N51 Co34 1.989 . S
N51 C50 1.342 . S
N51 N52 1.388 . S
N52 Co35 1.993 . S
N52 N51 1.388 . S
N52 C53 1.346 . S
C53 N52 1.346 . S
C53 C54 1.396 . S
C53 C63 1.510 . S
C54 C50 1.401 . S
C54 C53 1.396 . S
C55 C50 1.499 . S
C55 H56 0.959 . S
C55 H57 0.960 . S
C55 H58 0.961 . S
H56 C55 0.959 . S
H57 C55 0.960 . S
H58 C55 0.961 . S
O59 Co34 1.967 . S
O59 C67 1.258 . S
O60 Co35 1.941 . S
O60 C67 1.266 . S
H61 C63 0.959 . S
H62 C63 0.961 . S
C63 C53 1.510 . S
C63 H61 0.959 . S
C63 H62 0.961 . S
C63 H64 0.960 . S
H64 C63 0.960 . S
H65 N45 0.862 . S
O66 Co34 1.920 . S
O66 C39 1.289 . S
C67 O59 1.258 . S
C67 O60 1.266 . S
Co68 O71 1.970 . S
Co68 N85 1.989 . S
Co68 O93 1.967 . S
Co68 O100 1.920 . S
Co69 O72 1.966 . S
Co69 N78 2.022 . S
Co69 N86 1.993 . S
Co69 O94 1.941 . S
C70 O71 1.258 . S
C70 O72 1.263 . S
O71 Co68 1.970 . S
O71 C70 1.258 . S
O72 Co69 1.966 . S
O72 C70 1.263 . S
C73 O74 1.235 . S
C73 O100 1.289 . S
O74 C73 1.235 . S
C75 C77 1.400 . S
C75 N78 1.351 . S
C75 C80 1.501 . S
C76 C77 1.387 . S
C76 N79 1.341 . S
C77 C75 1.400 . S
C77 C76 1.387 . S
N78 Co69 2.022 . S
N78 C75 1.351 . S
N78 N79 1.365 . S
N79 C76 1.341 . S
N79 N78 1.365 . S
N79 H99 0.862 . S
C80 C75 1.501 . S
C80 H81 0.961 . S
C80 H82 0.961 . S
C80 H83 0.960 . S
H81 C80 0.961 . S
H82 C80 0.961 . S
H83 C80 0.960 . S
C84 N85 1.342 . S
C84 C88 1.401 . S
C84 C89 1.499 . S
N85 Co68 1.989 . S
N85 C84 1.342 . S
N85 N86 1.388 . S
N86 Co69 1.993 . S
N86 N85 1.388 . S
N86 C87 1.346 . S
C87 N86 1.346 . S
C87 C88 1.396 . S
C87 C97 1.510 . S
C88 C84 1.401 . S
C88 C87 1.396 . S
C89 C84 1.499 . S
C89 H90 0.959 . S
C89 H91 0.960 . S
C89 H92 0.961 . S
H90 C89 0.959 . S
H91 C89 0.960 . S
H92 C89 0.961 . S
O93 Co68 1.967 . S
O93 C101 1.258 . S
O94 Co69 1.941 . S
O94 C101 1.266 . S
H95 C97 0.959 . S
H96 C97 0.961 . S
C97 C87 1.510 . S
C97 H95 0.959 . S
C97 H96 0.961 . S
C97 H98 0.960 . S
H98 C97 0.960 . S
H99 N79 0.862 . S
O100 Co68 1.920 . S
O100 C73 1.289 . S
C101 O93 1.258 . S
C101 O94 1.266 . S
Co102 O105 1.970 . S
Co102 N119 1.989 . S
Co102 O127 1.967 . S
Co102 O134 1.920 . S
Co103 O106 1.966 . S
Co103 N112 2.022 . S
Co103 N120 1.993 . S
Co103 O128 1.941 . S
C104 O105 1.258 . S
C104 O106 1.263 . S
O105 Co102 1.970 . S
O105 C104 1.258 . S
O106 Co103 1.966 . S
O106 C104 1.263 . S
C107 O108 1.235 . S
C107 O134 1.289 . S
O108 C107 1.235 . S
C109 C111 1.400 . S
C109 N112 1.351 . S
C109 C114 1.501 . S
C110 C111 1.387 . S
C110 N113 1.341 . S
C111 C109 1.400 . S
C111 C110 1.387 . S
N112 Co103 2.022 . S
N112 C109 1.351 . S
N112 N113 1.365 . S
N113 C110 1.341 . S
N113 N112 1.365 . S
N113 H133 0.862 . S
C114 C109 1.501 . S
C114 H115 0.961 . S
C114 H116 0.961 . S
C114 H117 0.960 . S
H115 C114 0.961 . S
H116 C114 0.961 . S
H117 C114 0.960 . S
C118 N119 1.342 . S
C118 C122 1.401 . S
C118 C123 1.499 . S
N119 Co102 1.989 . S
N119 C118 1.342 . S
N119 N120 1.388 . S
N120 Co103 1.993 . S
N120 N119 1.388 . S
N120 C121 1.346 . S
C121 N120 1.346 . S
C121 C122 1.396 . S
C121 C131 1.510 . S
C122 C118 1.401 . S
C122 C121 1.396 . S
C123 C118 1.499 . S
C123 H124 0.959 . S
C123 H125 0.960 . S
C123 H126 0.961 . S
H124 C123 0.959 . S
H125 C123 0.960 . S
H126 C123 0.961 . S
O127 Co102 1.967 . S
O127 C135 1.258 . S
O128 Co103 1.941 . S
O128 C135 1.266 . S
H129 C131 0.959 . S
H130 C131 0.961 . S
C131 C121 1.510 . S
C131 H129 0.959 . S
C131 H130 0.961 . S
C131 H132 0.960 . S
H132 C131 0.960 . S
H133 N113 0.862 . S
O134 Co102 1.920 . S
O134 C107 1.289 . S
C135 O127 1.258 . S
C135 O128 1.266 . S
Co136 O139 1.970 . S
Co136 N153 1.989 . S
Co136 O161 1.967 . S
Co136 O168 1.920 . S
Co137 O140 1.966 . S
Co137 N146 2.022 . S
Co137 N154 1.993 . S
Co137 O162 1.941 . S
C138 O139 1.258 . S
C138 O140 1.263 . S
O139 Co136 1.970 . S
O139 C138 1.258 . S
O140 Co137 1.966 . S
O140 C138 1.263 . S
C141 O142 1.235 . S
C141 O168 1.289 . S
O142 C141 1.235 . S
C143 C145 1.400 . S
C143 N146 1.351 . S
C143 C148 1.501 . S
C144 C145 1.387 . S
C144 N147 1.341 . S
C145 C143 1.400 . S
C145 C144 1.387 . S
N146 Co137 2.022 . S
N146 C143 1.351 . S
N146 N147 1.365 . S
N147 C144 1.341 . S
N147 N146 1.365 . S
N147 H167 0.862 . S
C148 C143 1.501 . S
C148 H149 0.961 . S
C148 H150 0.961 . S
C148 H151 0.960 . S
H149 C148 0.961 . S
H150 C148 0.961 . S
H151 C148 0.960 . S
C152 N153 1.342 . S
C152 C156 1.401 . S
C152 C157 1.499 . S
N153 Co136 1.989 . S
N153 C152 1.342 . S
N153 N154 1.388 . S
N154 Co137 1.993 . S
N154 N153 1.388 . S
N154 C155 1.346 . S
C155 N154 1.346 . S
C155 C156 1.396 . S
C155 C165 1.510 . S
C156 C152 1.401 . S
C156 C155 1.396 . S
C157 C152 1.499 . S
C157 H158 0.959 . S
C157 H159 0.960 . S
C157 H160 0.961 . S
H158 C157 0.959 . S
H159 C157 0.960 . S
H160 C157 0.961 . S
O161 Co136 1.967 . S
O161 C169 1.258 . S
O162 Co137 1.941 . S
O162 C169 1.266 . S
H163 C165 0.959 . S
H164 C165 0.961 . S
C165 C155 1.510 . S
C165 H163 0.959 . S
C165 H164 0.961 . S
C165 H166 0.960 . S
H166 C165 0.960 . S
H167 N147 0.862 . S
O168 Co136 1.920 . S
O168 C141 1.289 . S
C169 O161 1.258 . S
C169 O162 1.266 . S
Co170 O173 1.970 . S
Co170 N187 1.989 . S
Co170 O195 1.967 . S
Co170 O202 1.920 . S
Co171 O174 1.966 . S
Co171 N180 2.022 . S
Co171 N188 1.993 . S
Co171 O196 1.941 . S
C172 O173 1.258 . S
C172 O174 1.263 . S
O173 Co170 1.970 . S
O173 C172 1.258 . S
O174 Co171 1.966 . S
O174 C172 1.263 . S
C175 O176 1.235 . S
C175 O202 1.289 . S
O176 C175 1.235 . S
C177 C179 1.400 . S
C177 N180 1.351 . S
C177 C182 1.501 . S
C178 C179 1.387 . S
C178 N181 1.341 . S
C179 C177 1.400 . S
C179 C178 1.387 . S
N180 Co171 2.022 . S
N180 C177 1.351 . S
N180 N181 1.365 . S
N181 C178 1.341 . S
N181 N180 1.365 . S
N181 H201 0.862 . S
C182 C177 1.501 . S
C182 H183 0.961 . S
C182 H184 0.961 . S
C182 H185 0.960 . S
H183 C182 0.961 . S
H184 C182 0.961 . S
H185 C182 0.960 . S
C186 N187 1.342 . S
C186 C190 1.401 . S
C186 C191 1.499 . S
N187 Co170 1.989 . S
N187 C186 1.342 . S
N187 N188 1.388 . S
N188 Co171 1.993 . S
N188 N187 1.388 . S
N188 C189 1.346 . S
C189 N188 1.346 . S
C189 C190 1.396 . S
C189 C199 1.510 . S
C190 C186 1.401 . S
C190 C189 1.396 . S
C191 C186 1.499 . S
C191 H192 0.959 . S
C191 H193 0.960 . S
C191 H194 0.961 . S
H192 C191 0.959 . S
H193 C191 0.960 . S
H194 C191 0.961 . S
O195 Co170 1.967 . S
O195 C203 1.258 . S
O196 Co171 1.941 . S
O196 C203 1.266 . S
H197 C199 0.959 . S
H198 C199 0.961 . S
C199 C189 1.510 . S
C199 H197 0.959 . S
C199 H198 0.961 . S
C199 H200 0.960 . S
H200 C199 0.960 . S
H201 N181 0.862 . S
O202 Co170 1.920 . S
O202 C175 1.289 . S
C203 O195 1.258 . S
C203 O196 1.266 . S
Co204 O207 1.970 . S
Co204 N221 1.989 . S
Co204 O229 1.967 . S
Co204 O236 1.920 . S
Co205 O208 1.966 . S
Co205 N214 2.022 . S
Co205 N222 1.993 . S
Co205 O230 1.941 . S
C206 O207 1.258 . S
C206 O208 1.263 . S
O207 Co204 1.970 . S
O207 C206 1.258 . S
O208 Co205 1.966 . S
O208 C206 1.263 . S
C209 O210 1.235 . S
C209 O236 1.289 . S
O210 C209 1.235 . S
C211 C213 1.400 . S
C211 N214 1.351 . S
C211 C216 1.501 . S
C212 C213 1.387 . S
C212 N215 1.341 . S
C213 C211 1.400 . S
C213 C212 1.387 . S
N214 Co205 2.022 . S
N214 C211 1.351 . S
N214 N215 1.365 . S
N215 C212 1.341 . S
N215 N214 1.365 . S
N215 H235 0.862 . S
C216 C211 1.501 . S
C216 H217 0.961 . S
C216 H218 0.961 . S
C216 H219 0.960 . S
H217 C216 0.961 . S
H218 C216 0.961 . S
H219 C216 0.960 . S
C220 N221 1.342 . S
C220 C224 1.401 . S
C220 C225 1.499 . S
N221 Co204 1.989 . S
N221 C220 1.342 . S
N221 N222 1.388 . S
N222 Co205 1.993 . S
N222 N221 1.388 . S
N222 C223 1.346 . S
C223 N222 1.346 . S
C223 C224 1.396 . S
C223 C233 1.510 . S
C224 C220 1.401 . S
C224 C223 1.396 . S
C225 C220 1.499 . S
C225 H226 0.959 . S
C225 H227 0.960 . S
C225 H228 0.961 . S
H226 C225 0.959 . S
H227 C225 0.960 . S
H228 C225 0.961 . S
O229 Co204 1.967 . S
O229 C237 1.258 . S
O230 Co205 1.941 . S
O230 C237 1.266 . S
H231 C233 0.959 . S
H232 C233 0.961 . S
C233 C223 1.510 . S
C233 H231 0.959 . S
C233 H232 0.961 . S
C233 H234 0.960 . S
H234 C233 0.960 . S
H235 N215 0.862 . S
O236 Co204 1.920 . S
O236 C209 1.289 . S
C237 O229 1.258 . S
C237 O230 1.266 . S
Co238 O241 1.970 . S
Co238 N255 1.989 . S
Co238 O263 1.967 . S
Co238 O270 1.920 . S
Co239 O242 1.966 . S
Co239 N248 2.022 . S
Co239 N256 1.993 . S
Co239 O264 1.941 . S
C240 O241 1.258 . S
C240 O242 1.263 . S
O241 Co238 1.970 . S
O241 C240 1.258 . S
O242 Co239 1.966 . S
O242 C240 1.263 . S
C243 O244 1.235 . S
C243 O270 1.289 . S
O244 C243 1.235 . S
C245 C247 1.400 . S
C245 N248 1.351 . S
C245 C250 1.501 . S
C246 C247 1.387 . S
C246 N249 1.341 . S
C247 C245 1.400 . S
C247 C246 1.387 . S
N248 Co239 2.022 . S
N248 C245 1.351 . S
N248 N249 1.365 . S
N249 C246 1.341 . S
N249 N248 1.365 . S
N249 H269 0.862 . S
C250 C245 1.501 . S
C250 H251 0.961 . S
C250 H252 0.961 . S
C250 H253 0.960 . S
H251 C250 0.961 . S
H252 C250 0.961 . S
H253 C250 0.960 . S
C254 N255 1.342 . S
C254 C258 1.401 . S
C254 C259 1.499 . S
N255 Co238 1.989 . S
N255 C254 1.342 . S
N255 N256 1.388 . S
N256 Co239 1.993 . S
N256 N255 1.388 . S
N256 C257 1.346 . S
C257 N256 1.346 . S
C257 C258 1.396 . S
C257 C267 1.510 . S
C258 C254 1.401 . S
C258 C257 1.396 . S
C259 C254 1.499 . S
C259 H260 0.959 . S
C259 H261 0.960 . S
C259 H262 0.961 . S
H260 C259 0.959 . S
H261 C259 0.960 . S
H262 C259 0.961 . S
O263 Co238 1.967 . S
O263 C271 1.258 . S
O264 Co239 1.941 . S
O264 C271 1.266 . S
H265 C267 0.959 . S
H266 C267 0.961 . S
C267 C257 1.510 . S
C267 H265 0.959 . S
C267 H266 0.961 . S
C267 H268 0.960 . S
H268 C267 0.960 . S
H269 N249 0.862 . S
O270 Co238 1.920 . S
O270 C243 1.289 . S
C271 O263 1.258 . S
C271 O264 1.266 . S
Co272 O275 1.970 . S
Co272 N289 1.989 . S
Co272 O297 1.967 . S
Co272 O304 1.920 . S
Co273 O276 1.966 . S
Co273 N282 2.022 . S
Co273 N290 1.993 . S
Co273 O298 1.941 . S
C274 O275 1.258 . S
C274 O276 1.263 . S
O275 Co272 1.970 . S
O275 C274 1.258 . S
O276 Co273 1.966 . S
O276 C274 1.263 . S
C277 O278 1.235 . S
C277 O304 1.289 . S
O278 C277 1.235 . S
C279 C281 1.400 . S
C279 N282 1.351 . S
C279 C284 1.501 . S
C280 C281 1.387 . S
C280 N283 1.341 . S
C281 C279 1.400 . S
C281 C280 1.387 . S
N282 Co273 2.022 . S
N282 C279 1.351 . S
N282 N283 1.365 . S
N283 C280 1.341 . S
N283 N282 1.365 . S
N283 H303 0.862 . S
C284 C279 1.501 . S
C284 H285 0.961 . S
C284 H286 0.961 . S
C284 H287 0.960 . S
H285 C284 0.961 . S
H286 C284 0.961 . S
H287 C284 0.960 . S
C288 N289 1.342 . S
C288 C292 1.401 . S
C288 C293 1.499 . S
N289 Co272 1.989 . S
N289 C288 1.342 . S
N289 N290 1.388 . S
N290 Co273 1.993 . S
N290 N289 1.388 . S
N290 C291 1.346 . S
C291 N290 1.346 . S
C291 C292 1.396 . S
C291 C301 1.510 . S
C292 C288 1.401 . S
C292 C291 1.396 . S
C293 C288 1.499 . S
C293 H294 0.959 . S
C293 H295 0.960 . S
C293 H296 0.961 . S
H294 C293 0.959 . S
H295 C293 0.960 . S
H296 C293 0.961 . S
O297 Co272 1.967 . S
O297 C305 1.258 . S
O298 Co273 1.941 . S
O298 C305 1.266 . S
H299 C301 0.959 . S
H300 C301 0.961 . S
C301 C291 1.510 . S
C301 H299 0.959 . S
C301 H300 0.961 . S
C301 H302 0.960 . S
H302 C301 0.960 . S
H303 N283 0.862 . S
O304 Co272 1.920 . S
O304 C277 1.289 . S
C305 O297 1.258 . S
C305 O298 1.266 . S
Co306 O309 1.970 . S
Co306 N323 1.989 . S
Co306 O331 1.967 . S
Co306 O338 1.920 . S
Co307 O310 1.966 . S
Co307 N316 2.022 . S
Co307 N324 1.993 . S
Co307 O332 1.941 . S
C308 O309 1.258 . S
C308 O310 1.263 . S
O309 Co306 1.970 . S
O309 C308 1.258 . S
O310 Co307 1.966 . S
O310 C308 1.263 . S
C311 O312 1.235 . S
C311 O338 1.289 . S
O312 C311 1.235 . S
C313 C315 1.400 . S
C313 N316 1.351 . S
C313 C318 1.501 . S
C314 C315 1.387 . S
C314 N317 1.341 . S
C315 C313 1.400 . S
C315 C314 1.387 . S
N316 Co307 2.022 . S
N316 C313 1.351 . S
N316 N317 1.365 . S
N317 C314 1.341 . S
N317 N316 1.365 . S
N317 H337 0.862 . S
C318 C313 1.501 . S
C318 H319 0.961 . S
C318 H320 0.961 . S
C318 H321 0.960 . S
H319 C318 0.961 . S
H320 C318 0.961 . S
H321 C318 0.960 . S
C322 N323 1.342 . S
C322 C326 1.401 . S
C322 C327 1.499 . S
N323 Co306 1.989 . S
N323 C322 1.342 . S
N323 N324 1.388 . S
N324 Co307 1.993 . S
N324 N323 1.388 . S
N324 C325 1.346 . S
C325 N324 1.346 . S
C325 C326 1.396 . S
C325 C335 1.510 . S
C326 C322 1.401 . S
C326 C325 1.396 . S
C327 C322 1.499 . S
C327 H328 0.959 . S
C327 H329 0.960 . S
C327 H330 0.961 . S
H328 C327 0.959 . S
H329 C327 0.960 . S
H330 C327 0.961 . S
O331 Co306 1.967 . S
O331 C339 1.258 . S
O332 Co307 1.941 . S
O332 C339 1.266 . S
H333 C335 0.959 . S
H334 C335 0.961 . S
C335 C325 1.510 . S
C335 H333 0.959 . S
C335 H334 0.961 . S
C335 H336 0.960 . S
H336 C335 0.960 . S
H337 N317 0.862 . S
O338 Co306 1.920 . S
O338 C311 1.289 . S
C339 O331 1.258 . S
C339 O332 1.266 . S
Co340 O343 1.970 . S
Co340 N357 1.989 . S
Co340 O365 1.967 . S
Co340 O372 1.920 . S
Co341 O344 1.966 . S
Co341 N350 2.022 . S
Co341 N358 1.993 . S
Co341 O366 1.941 . S
C342 O343 1.258 . S
C342 O344 1.263 . S
O343 Co340 1.970 . S
O343 C342 1.258 . S
O344 Co341 1.966 . S
O344 C342 1.263 . S
C345 O346 1.235 . S
C345 O372 1.289 . S
O346 C345 1.235 . S
C347 C349 1.400 . S
C347 N350 1.351 . S
C347 C352 1.501 . S
C348 C349 1.387 . S
C348 N351 1.341 . S
C349 C347 1.400 . S
C349 C348 1.387 . S
N350 Co341 2.022 . S
N350 C347 1.351 . S
N350 N351 1.365 . S
N351 C348 1.341 . S
N351 N350 1.365 . S
N351 H371 0.862 . S
C352 C347 1.501 . S
C352 H353 0.961 . S
C352 H354 0.961 . S
C352 H355 0.960 . S
H353 C352 0.961 . S
H354 C352 0.961 . S
H355 C352 0.960 . S
C356 N357 1.342 . S
C356 C360 1.401 . S
C356 C361 1.499 . S
N357 Co340 1.989 . S
N357 C356 1.342 . S
N357 N358 1.388 . S
N358 Co341 1.993 . S
N358 N357 1.388 . S
N358 C359 1.346 . S
C359 N358 1.346 . S
C359 C360 1.396 . S
C359 C369 1.510 . S
C360 C356 1.401 . S
C360 C359 1.396 . S
C361 C356 1.499 . S
C361 H362 0.959 . S
C361 H363 0.960 . S
C361 H364 0.961 . S
H362 C361 0.959 . S
H363 C361 0.960 . S
H364 C361 0.961 . S
O365 Co340 1.967 . S
O365 C373 1.258 . S
O366 Co341 1.941 . S
O366 C373 1.266 . S
H367 C369 0.959 . S
H368 C369 0.961 . S
C369 C359 1.510 . S
C369 H367 0.959 . S
C369 H368 0.961 . S
C369 H370 0.960 . S
H370 C369 0.960 . S
H371 N351 0.862 . S
O372 Co340 1.920 . S
O372 C345 1.289 . S
C373 O365 1.258 . S
C373 O366 1.266 . S
Co374 O377 1.970 . S
Co374 N391 1.989 . S
Co374 O399 1.967 . S
Co374 O406 1.920 . S
Co375 O378 1.966 . S
Co375 N384 2.022 . S
Co375 N392 1.993 . S
Co375 O400 1.941 . S
C376 O377 1.258 . S
C376 O378 1.263 . S
O377 Co374 1.970 . S
O377 C376 1.258 . S
O378 Co375 1.966 . S
O378 C376 1.263 . S
C379 O380 1.235 . S
C379 O406 1.289 . S
O380 C379 1.235 . S
C381 C383 1.400 . S
C381 N384 1.351 . S
C381 C386 1.501 . S
C382 C383 1.387 . S
C382 N385 1.341 . S
C383 C381 1.400 . S
C383 C382 1.387 . S
N384 Co375 2.022 . S
N384 C381 1.351 . S
N384 N385 1.365 . S
N385 C382 1.341 . S
N385 N384 1.365 . S
N385 H405 0.862 . S
C386 C381 1.501 . S
C386 H387 0.961 . S
C386 H388 0.961 . S
C386 H389 0.960 . S
H387 C386 0.961 . S
H388 C386 0.961 . S
H389 C386 0.960 . S
C390 N391 1.342 . S
C390 C394 1.401 . S
C390 C395 1.499 . S
N391 Co374 1.989 . S
N391 C390 1.342 . S
N391 N392 1.388 . S
N392 Co375 1.993 . S
N392 N391 1.388 . S
N392 C393 1.346 . S
C393 N392 1.346 . S
C393 C394 1.396 . S
C393 C403 1.510 . S
C394 C390 1.401 . S
C394 C393 1.396 . S
C395 C390 1.499 . S
C395 H396 0.959 . S
C395 H397 0.960 . S
C395 H398 0.961 . S
H396 C395 0.959 . S
H397 C395 0.960 . S
H398 C395 0.961 . S
O399 Co374 1.967 . S
O399 C407 1.258 . S
O400 Co375 1.941 . S
O400 C407 1.266 . S
H401 C403 0.959 . S
H402 C403 0.961 . S
C403 C393 1.510 . S
C403 H401 0.959 . S
C403 H402 0.961 . S
C403 H404 0.960 . S
H404 C403 0.960 . S
H405 N385 0.862 . S
O406 Co374 1.920 . S
O406 C379 1.289 . S
C407 O399 1.258 . S
C407 O400 1.266 . S
C408 C409 1.369 . S
C408 C410 1.419 . S
C408 H412 0.930 . S
C409 C408 1.369 . S
C409 C418 1.429 . S
C410 C408 1.419 . S
C410 C411 1.363 . S
C410 H413 0.929 . S
C411 C410 1.363 . S
C411 C417 1.428 . S
H412 C408 0.930 . S
H413 C410 0.929 . S
S414 N415 1.613 . S
S414 N416 1.610 . S
N415 S414 1.613 . S
N415 C418 1.350 . S
N416 S414 1.610 . S
N416 C417 1.351 . S
C417 C411 1.428 . S
C417 N416 1.351 . S
C417 C418 1.434 . S
C418 C409 1.429 . S
C418 N415 1.350 . S
C418 C417 1.434 . S
C419 C420 1.369 . S
C419 C421 1.419 . S
C419 H423 0.930 . S
C420 C419 1.369 . S
C420 C429 1.429 . S
C421 C419 1.419 . S
C421 C422 1.363 . S
C421 H424 0.929 . S
C422 C421 1.363 . S
C422 C428 1.428 . S
H423 C419 0.930 . S
H424 C421 0.929 . S
S425 N426 1.613 . S
S425 N427 1.610 . S
N426 S425 1.613 . S
N426 C429 1.350 . S
N427 S425 1.610 . S
N427 C428 1.351 . S
C428 C422 1.428 . S
C428 N427 1.351 . S
C428 C429 1.434 . S
C429 C420 1.429 . S
C429 N426 1.350 . S
C429 C428 1.434 . S
C430 C431 1.369 . S
C430 C432 1.419 . S
C430 H434 0.930 . S
C431 C430 1.369 . S
C431 C440 1.429 . S
C432 C430 1.419 . S
C432 C433 1.363 . S
C432 H435 0.929 . S
C433 C432 1.363 . S
C433 C439 1.428 . S
H434 C430 0.930 . S
H435 C432 0.929 . S
S436 N437 1.613 . S
S436 N438 1.610 . S
N437 S436 1.613 . S
N437 C440 1.350 . S
N438 S436 1.610 . S
N438 C439 1.351 . S
C439 C433 1.428 . S
C439 N438 1.351 . S
C439 C440 1.434 . S
C440 C431 1.429 . S
C440 N437 1.350 . S
C440 C439 1.434 . S
C441 C442 1.369 . S
C441 C443 1.419 . S
C441 H445 0.930 . S
C442 C441 1.369 . S
C442 C451 1.429 . S
C443 C441 1.419 . S
C443 C444 1.363 . S
C443 H446 0.929 . S
C444 C443 1.363 . S
C444 C450 1.428 . S
H445 C441 0.930 . S
H446 C443 0.929 . S
S447 N448 1.613 . S
S447 N449 1.610 . S
N448 S447 1.613 . S
N448 C451 1.350 . S
N449 S447 1.610 . S
N449 C450 1.351 . S
C450 C444 1.428 . S
C450 N449 1.351 . S
C450 C451 1.434 . S
C451 C442 1.429 . S
C451 N448 1.350 . S
C451 C450 1.434 . S
C452 C453 1.369 . S
C452 C454 1.419 . S
C452 H456 0.930 . S
C453 C452 1.369 . S
C453 C462 1.429 . S
C454 C452 1.419 . S
C454 C455 1.363 . S
C454 H457 0.929 . S
C455 C454 1.363 . S
C455 C461 1.428 . S
H456 C452 0.930 . S
H457 C454 0.929 . S
S458 N459 1.613 . S
S458 N460 1.610 . S
N459 S458 1.613 . S
N459 C462 1.350 . S
N460 S458 1.610 . S
N460 C461 1.351 . S
C461 C455 1.428 . S
C461 N460 1.351 . S
C461 C462 1.434 . S
C462 C453 1.429 . S
C462 N459 1.350 . S
C462 C461 1.434 . S
C463 C464 1.369 . S
C463 C465 1.419 . S
C463 H467 0.930 . S
C464 C463 1.369 . S
C464 C473 1.429 . S
C465 C463 1.419 . S
C465 C466 1.363 . S
C465 H468 0.929 . S
C466 C465 1.363 . S
C466 C472 1.428 . S
H467 C463 0.930 . S
H468 C465 0.929 . S
S469 N470 1.613 . S
S469 N471 1.610 . S
N470 S469 1.613 . S
N470 C473 1.350 . S
N471 S469 1.610 . S
N471 C472 1.351 . S
C472 C466 1.428 . S
C472 N471 1.351 . S
C472 C473 1.434 . S
C473 C464 1.429 . S
C473 N470 1.350 . S
C473 C472 1.434 . S
C474 C475 1.369 . S
C474 C476 1.419 . S
C474 H478 0.930 . S
C475 C474 1.369 . S
C475 C484 1.429 . S
C476 C474 1.419 . S
C476 C477 1.363 . S
C476 H479 0.929 . S
C477 C476 1.363 . S
C477 C483 1.428 . S
H478 C474 0.930 . S
H479 C476 0.929 . S
S480 N481 1.613 . S
S480 N482 1.610 . S
N481 S480 1.613 . S
N481 C484 1.350 . S
N482 S480 1.610 . S
N482 C483 1.351 . S
C483 C477 1.428 . S
C483 N482 1.351 . S
C483 C484 1.434 . S
C484 C475 1.429 . S
C484 N481 1.350 . S
C484 C483 1.434 . S
C485 C486 1.369 . S
C485 C487 1.419 . S
C485 H489 0.930 . S
C486 C485 1.369 . S
C486 C495 1.429 . S
C487 C485 1.419 . S
C487 C488 1.363 . S
C487 H490 0.929 . S
C488 C487 1.363 . S
C488 C494 1.428 . S
H489 C485 0.930 . S
H490 C487 0.929 . S
S491 N492 1.613 . S
S491 N493 1.610 . S
N492 S491 1.613 . S
N492 C495 1.350 . S
N493 S491 1.610 . S
N493 C494 1.351 . S
C494 C488 1.428 . S
C494 N493 1.351 . S
C494 C495 1.434 . S
C495 C486 1.429 . S
C495 N492 1.350 . S
C495 C494 1.434 . S
C496 C497 1.369 . S
C496 C498 1.419 . S
C496 H500 0.930 . S
C497 C496 1.369 . S
C497 C506 1.429 . S
C498 C496 1.419 . S
C498 C499 1.363 . S
C498 H501 0.929 . S
C499 C498 1.363 . S
C499 C505 1.428 . S
H500 C496 0.930 . S
H501 C498 0.929 . S
S502 N503 1.613 . S
S502 N504 1.610 . S
N503 S502 1.613 . S
N503 C506 1.350 . S
N504 S502 1.610 . S
N504 C505 1.351 . S
C505 C499 1.428 . S
C505 N504 1.351 . S
C505 C506 1.434 . S
C506 C497 1.429 . S
C506 N503 1.350 . S
C506 C505 1.434 . S
C507 C508 1.369 . S
C507 C509 1.419 . S
C507 H511 0.930 . S
C508 C507 1.369 . S
C508 C517 1.429 . S
C509 C507 1.419 . S
C509 C510 1.363 . S
C509 H512 0.929 . S
C510 C509 1.363 . S
C510 C516 1.428 . S
H511 C507 0.930 . S
H512 C509 0.929 . S
S513 N514 1.613 . S
S513 N515 1.610 . S
N514 S513 1.613 . S
N514 C517 1.350 . S
N515 S513 1.610 . S
N515 C516 1.351 . S
C516 C510 1.428 . S
C516 N515 1.351 . S
C516 C517 1.434 . S
C517 C508 1.429 . S
C517 N514 1.350 . S
C517 C516 1.434 . S
C518 C519 1.369 . S
C518 C520 1.419 . S
C518 H522 0.930 . S
C519 C518 1.369 . S
C519 C528 1.429 . S
C520 C518 1.419 . S
C520 C521 1.363 . S
C520 H523 0.929 . S
C521 C520 1.363 . S
C521 C527 1.428 . S
H522 C518 0.930 . S
H523 C520 0.929 . S
S524 N525 1.613 . S
S524 N526 1.610 . S
N525 S524 1.613 . S
N525 C528 1.350 . S
N526 S524 1.610 . S
N526 C527 1.351 . S
C527 C521 1.428 . S
C527 N526 1.351 . S
C527 C528 1.434 . S
C528 C519 1.429 . S
C528 N525 1.350 . S
C528 C527 1.434 . S
C529 C530 1.369 . S
C529 C531 1.419 . S
C529 H533 0.930 . S
C530 C529 1.369 . S
C530 C539 1.429 . S
C531 C529 1.419 . S
C531 C532 1.363 . S
C531 H534 0.929 . S
C532 C531 1.363 . S
C532 C538 1.428 . S
H533 C529 0.930 . S
H534 C531 0.929 . S
S535 N536 1.613 . S
S535 N537 1.610 . S
N536 S535 1.613 . S
N536 C539 1.350 . S
N537 S535 1.610 . S
N537 C538 1.351 . S
C538 C532 1.428 . S
C538 N537 1.351 . S
C538 C539 1.434 . S
C539 C530 1.429 . S
C539 N536 1.350 . S
C539 C538 1.434 . S
C540 C541 1.369 . S
C540 C542 1.419 1_565 S
C540 H544 0.930 . S
C541 C540 1.369 . S
C541 C550 1.429 . S
C542 C540 1.419 1_545 S
C542 C543 1.363 . S
C542 H545 0.929 . S
C543 C542 1.363 . S
C543 C549 1.428 . S
H544 C540 0.930 . S
H545 C542 0.929 . S
S546 N547 1.612 . S
S546 N548 1.612 1_565 S
N547 S546 1.612 . S
N547 C550 1.350 . S
N548 S546 1.612 1_545 S
N548 C549 1.351 . S
C549 C543 1.428 . S
C549 N548 1.351 . S
C549 C550 1.434 1_545 S
C550 C541 1.429 . S
C550 N547 1.350 . S
C550 C549 1.434 1_565 S
C551 C552 1.369 . S
C551 C553 1.419 1_655 S
C551 H555 0.930 . S
C552 C551 1.369 . S
C552 C561 1.429 . S
C553 C551 1.419 1_455 S
C553 C554 1.363 . S
C553 H556 0.929 . S
C554 C553 1.363 . S
C554 C560 1.428 . S
H555 C551 0.930 . S
H556 C553 0.929 . S
S557 N558 1.613 . S
S557 N559 1.610 1_655 S
N558 S557 1.613 . S
N558 C561 1.350 . S
N559 S557 1.610 1_455 S
N559 C560 1.351 . S
C560 C554 1.428 . S
C560 N559 1.351 . S
C560 C561 1.434 1_455 S
C561 C552 1.429 . S
C561 N558 1.350 . S
C561 C560 1.434 1_655 S
C562 C563 1.369 . S
C562 C564 1.419 1_545 S
C562 H566 0.930 . S
C563 C562 1.369 . S
C563 C572 1.429 . S
C564 C562 1.419 1_565 S
C564 C565 1.363 . S
C564 H567 0.929 . S
C565 C564 1.363 . S
C565 C571 1.428 . S
H566 C562 0.930 . S
H567 C564 0.929 . S
S568 N569 1.612 . S
S568 N570 1.612 1_545 S
N569 S568 1.612 . S
N569 C572 1.350 . S
N570 S568 1.612 1_565 S
N570 C571 1.351 . S
C571 C565 1.428 . S
C571 N570 1.351 . S
C571 C572 1.434 1_565 S
C572 C563 1.429 . S
C572 N569 1.350 . S
C572 C571 1.434 1_545 S
C573 C574 1.369 . S
C573 C575 1.419 . S
C573 H577 0.930 . S
C574 C573 1.369 . S
C574 C583 1.429 1_655 S
C575 C573 1.419 . S
C575 C576 1.363 1_655 S
C575 H578 0.929 . S
C576 C575 1.363 1_455 S
C576 C582 1.428 . S
H577 C573 0.930 . S
H578 C575 0.929 . S
S579 N580 1.613 . S
S579 N581 1.610 . S
N580 S579 1.613 . S
N580 C583 1.350 . S
N581 S579 1.610 . S
N581 C582 1.351 . S
C582 C576 1.428 . S
C582 N581 1.351 . S
C582 C583 1.434 . S
C583 C574 1.429 1_455 S
C583 N580 1.350 . S
C583 C582 1.434 . S
C584 C585 1.369 . S
C584 C586 1.419 1_556 S
C584 H588 0.930 . S
C585 C584 1.369 . S
C585 C594 1.429 . S
C586 C584 1.419 1_554 S
C586 C587 1.363 . S
C586 H589 0.929 . S
C587 C586 1.363 . S
C587 C593 1.428 . S
H588 C584 0.930 . S
H589 C586 0.929 . S
S590 N591 1.611 . S
S590 N592 1.613 1_556 S
N591 S590 1.611 . S
N591 C594 1.350 . S
N592 S590 1.613 1_554 S
N592 C593 1.351 . S
C593 C587 1.428 . S
C593 N592 1.351 . S
C593 C594 1.434 1_554 S
C594 C585 1.429 . S
C594 N591 1.350 . S
C594 C593 1.434 1_556 S
C595 C596 1.369 1_556 S
C595 C597 1.419 . S
C595 H599 0.930 . S
C596 C595 1.369 1_554 S
C596 C605 1.429 . S
C597 C595 1.419 . S
C597 C598 1.363 . S
C597 H600 0.929 . S
C598 C597 1.363 . S
C598 C604 1.428 1_556 S
H599 C595 0.930 . S
H600 C597 0.929 . S
S601 N602 1.613 . S
S601 N603 1.610 . S
N602 S601 1.613 . S
N602 C605 1.350 . S
N603 S601 1.610 . S
N603 C604 1.351 . S
C604 C598 1.428 1_554 S
C604 N603 1.351 . S
C604 C605 1.434 . S
C605 C596 1.429 . S
C605 N602 1.350 . S
C605 C604 1.434 . S
C606 C607 1.369 . S
C606 C608 1.419 1_554 S
C606 H610 0.930 . S
C607 C606 1.369 . S
C607 C616 1.429 . S
C608 C606 1.419 1_556 S
C608 C609 1.363 . S
C608 H611 0.929 . S
C609 C608 1.363 . S
C609 C615 1.428 . S
H610 C606 0.930 . S
H611 C608 0.929 . S
S612 N613 1.611 . S
S612 N614 1.612 1_554 S
N613 S612 1.611 . S
N613 C616 1.350 . S
N614 S612 1.612 1_556 S
N614 C615 1.351 . S
C615 C609 1.428 . S
C615 N614 1.351 . S
C615 C616 1.434 1_556 S
C616 C607 1.429 . S
C616 N613 1.350 . S
C616 C615 1.434 1_554 S
C617 C618 1.369 1_554 S
C617 C619 1.419 . S
C617 H621 0.930 . S
C618 C617 1.369 1_556 S
C618 C627 1.429 . S
C619 C617 1.419 . S
C619 C620 1.363 . S
C619 H622 0.929 . S
C620 C619 1.363 . S
C620 C626 1.428 1_554 S
H621 C617 0.930 . S
H622 C619 0.929 . S
S623 N624 1.613 . S
S623 N625 1.610 . S
N624 S623 1.613 . S
N624 C627 1.350 . S
N625 S623 1.610 . S
N625 C626 1.351 . S
C626 C620 1.428 1_556 S
C626 N625 1.351 . S
C626 C627 1.434 . S
C627 C618 1.429 . S
C627 N624 1.350 . S
C627 C626 1.434 . S
C628 C629 1.369 . S
C628 C630 1.419 1_655 S
C628 H632 0.930 . S
C629 C628 1.369 . S
C629 C638 1.429 . S
C630 C628 1.419 1_455 S
C630 C631 1.363 . S
C630 H633 0.929 . S
C631 C630 1.363 . S
C631 C637 1.428 . S
H632 C628 0.930 . S
H633 C630 0.929 . S
S634 N635 1.615 1_455 S
S634 N636 1.608 . S
N635 S634 1.615 1_655 S
N635 C638 1.350 . S
N636 S634 1.608 . S
N636 C637 1.351 . S
C637 C631 1.428 . S
C637 N636 1.351 . S
C637 C638 1.434 1_455 S
C638 C629 1.429 . S
C638 N635 1.350 . S
C638 C637 1.434 1_655 S
C639 C640 1.369 . S
C639 C641 1.419 1_655 S
C639 H643 0.930 . S
C640 C639 1.369 . S
C640 C649 1.429 . S
C641 C639 1.419 1_455 S
C641 C642 1.363 . S
C641 H644 0.929 . S
C642 C641 1.363 . S
C642 C648 1.428 . S
H643 C639 0.930 . S
H644 C641 0.929 . S
S645 N646 1.611 . S
S645 N647 1.612 1_655 S
N646 S645 1.611 . S
N646 C649 1.350 . S
N647 S645 1.612 1_455 S
N647 C648 1.351 . S
C648 C642 1.428 . S
C648 N647 1.351 . S
C648 C649 1.434 1_455 S
C649 C640 1.429 . S
C649 N646 1.350 . S
C649 C648 1.434 1_655 S
C650 C651 1.369 . S
C650 C652 1.419 1_565 S
C650 H654 0.930 . S
C651 C650 1.369 . S
C651 C660 1.429 . S
C652 C650 1.419 1_545 S
C652 C653 1.363 . S
C652 H655 0.929 . S
C653 C652 1.363 . S
C653 C659 1.428 . S
H654 C650 0.930 . S
H655 C652 0.929 . S
S656 N657 1.613 1_545 S
S656 N658 1.610 . S
N657 S656 1.613 1_565 S
N657 C660 1.350 . S
N658 S656 1.610 . S
N658 C659 1.351 . S
C659 C653 1.428 . S
C659 N658 1.351 . S
C659 C660 1.434 1_545 S
C660 C651 1.429 . S
C660 N657 1.350 . S
C660 C659 1.434 1_565 S
C661 C662 1.369 . S
C661 C663 1.419 . S
C661 H665 0.930 . S
C662 C661 1.369 . S
C662 C671 1.429 1_545 S
C663 C661 1.419 . S
C663 C664 1.363 1_545 S
C663 H666 0.929 . S
C664 C663 1.363 1_565 S
C664 C670 1.428 . S
H665 C661 0.930 . S
H666 C663 0.929 . S
S667 N668 1.613 . S
S667 N669 1.610 . S
N668 S667 1.613 . S
N668 C671 1.350 . S
N669 S667 1.610 . S
N669 C670 1.351 . S
C670 C664 1.428 . S
C670 N669 1.351 . S
C670 C671 1.434 . S
C671 C662 1.429 1_565 S
C671 N668 1.350 . S
C671 C670 1.434 . S
C672 C673 1.369 1_655 S
C672 C674 1.419 1_545 S
C672 H676 0.930 . S
C673 C672 1.369 1_455 S
C673 C682 1.429 . S
C674 C672 1.419 1_565 S
C674 C675 1.363 . S
C674 H677 0.929 . S
C675 C674 1.363 . S
C675 C681 1.428 1_655 S
H676 C672 0.930 . S
H677 C674 0.929 . S
S678 N679 1.613 1_565 S
S678 N680 1.610 . S
N679 S678 1.613 1_545 S
N679 C682 1.350 . S
N680 S678 1.610 . S
N680 C681 1.351 . S
C681 C675 1.428 1_455 S
C681 N680 1.351 . S
C681 C682 1.434 1_565 S
C682 C673 1.429 . S
C682 N679 1.350 . S
C682 C681 1.434 1_545 S
C683 C684 1.369 1_655 S
C683 C685 1.419 1_565 S
C683 H687 0.930 . S
C684 C683 1.369 1_455 S
C684 C693 1.429 . S
C685 C683 1.419 1_545 S
C685 C686 1.363 . S
C685 H688 0.929 . S
C686 C685 1.363 . S
C686 C692 1.428 1_655 S
H687 C683 0.930 . S
H688 C685 0.929 . S
S689 N690 1.613 1_545 S
S689 N691 1.610 . S
N690 S689 1.613 1_565 S
N690 C693 1.350 . S
N691 S689 1.610 . S
N691 C692 1.351 . S
C692 C686 1.428 1_455 S
C692 N691 1.351 . S
C692 C693 1.434 1_545 S
C693 C684 1.429 . S
C693 N690 1.350 . S
C693 C692 1.434 1_565 S
C694 C695 1.369 1_565 S
C694 C696 1.419 1_554 S
C694 H698 0.930 . S
C695 C694 1.369 1_545 S
C695 C704 1.429 . S
C696 C694 1.419 1_556 S
C696 C697 1.363 . S
C696 H699 0.929 . S
C697 C696 1.363 . S
C697 C703 1.428 1_565 S
H698 C694 0.930 . S
H699 C696 0.929 . S
S700 N701 1.613 1_556 S
S700 N702 1.610 . S
N701 S700 1.613 1_554 S
N701 C704 1.350 . S
N702 S700 1.610 . S
N702 C703 1.351 . S
C703 C697 1.428 1_545 S
C703 N702 1.351 . S
C703 C704 1.434 1_556 S
C704 C695 1.429 . S
C704 N701 1.350 . S
C704 C703 1.434 1_554 S
C705 C706 1.369 . S
C705 C707 1.419 1_455 S
C705 H709 0.930 . S
C706 C705 1.369 . S
C706 C715 1.429 1_556 S
C707 C705 1.419 1_655 S
C707 C708 1.363 1_556 S
C707 H710 0.929 . S
C708 C707 1.363 1_554 S
C708 C714 1.428 . S
H709 C705 0.930 . S
H710 C707 0.929 . S
S711 N712 1.613 . S
S711 N713 1.610 1_455 S
N712 S711 1.613 . S
N712 C715 1.350 . S
N713 S711 1.610 1_655 S
N713 C714 1.351 . S
C714 C708 1.428 . S
C714 N713 1.351 . S
C714 C715 1.434 1_655 S
C715 C706 1.429 1_554 S
C715 N712 1.350 . S
C715 C714 1.434 1_455 S
C716 C717 1.369 1_565 S
C716 C718 1.419 1_556 S
C716 H720 0.930 . S
C717 C716 1.369 1_545 S
C717 C726 1.429 . S
C718 C716 1.419 1_554 S
C718 C719 1.363 . S
C718 H721 0.929 . S
C719 C718 1.363 . S
C719 C725 1.428 1_565 S
H720 C716 0.930 . S
H721 C718 0.929 . S
S722 N723 1.613 1_554 S
S722 N724 1.610 . S
N723 S722 1.613 1_556 S
N723 C726 1.350 . S
N724 S722 1.610 . S
N724 C725 1.351 . S
C725 C719 1.428 1_545 S
C725 N724 1.351 . S
C725 C726 1.434 1_554 S
C726 C717 1.429 . S
C726 N723 1.350 . S
C726 C725 1.434 1_556 S
C727 C728 1.369 . S
C727 C729 1.419 1_656 S
C727 H731 0.930 . S
C728 C727 1.369 . S
C728 C737 1.429 . S
C729 C727 1.419 1_454 S
C729 C730 1.363 . S
C729 H732 0.929 . S
C730 C729 1.363 . S
C730 C736 1.429 . S
H731 C727 0.930 . S
H732 C729 0.929 . S
S733 N734 1.613 1_455 S
S733 N735 1.610 . S
N734 S733 1.613 1_655 S
N734 C737 1.350 . S
N735 S733 1.610 . S
N735 C736 1.351 1_556 S
C736 C730 1.429 . S
C736 N735 1.351 1_554 S
C736 C737 1.433 1_454 S
C737 C728 1.429 . S
C737 N734 1.350 . S
C737 C736 1.433 1_656 S
C409 C190 1.344 . S
C411 C9 1.269 . S
C420 C54 1.343 . S
C422 C213 1.266 . S
C431 C77 1.257 . S
C433 C258 1.347 . S
C442 C145 1.258 . S
C444 C122 1.348 . S
C453 C394 1.343 . S
C455 C43 1.261 . S
C464 C88 1.350 . S
C466 C281 1.265 . S
C475 C111 1.266 . S
C477 C326 1.349 . S
C486 C20 1.343 . S
C488 C349 1.267 . S
C497 C224 1.349 . S
C499 C383 1.261 . S
C508 C179 1.262 . S
C510 C360 1.344 . S
C519 C247 1.268 . S
C521 C292 1.344 . S
C530 C156 1.348 . S
C532 C315 1.259 . S
C541 C39 0.703 . S
C543 C5 0.720 . S
C552 C70 1.272 . S
C554 C36 1.271 . S
C563 C107 0.703 . S
C565 C73 0.721 . S
C574 C104 1.274 . S
C576 C2 1.277 . S
C585 C345 0.717 . S
C587 C141 0.717 . S
C596 C376 1.280 . S
C598 C172 1.276 . S
C607 C209 0.712 . S
C609 C277 0.720 . S
C618 C240 1.277 . S
C620 C308 1.274 . S
C629 C311 0.706 . S
C631 C379 0.713 . S
C640 C243 0.713 . S
C642 C175 0.720 . S
C651 C206 1.270 . S
C653 C138 1.271 . S
C662 C342 1.271 . S
C664 C274 1.274 . S
C673 C33 1.580 . S
C675 C101 1.586 . S
C684 C67 1.580 . S
C686 C135 1.587 . S
C695 C169 1.580 . S
C697 C305 1.585 . S
C706 C203 1.586 . S
C708 C339 1.581 . S
C717 C373 1.582 . S
C719 C237 1.587 . S
C728 C271 1.584 . S
C730 C407 1.587 . S
