# Generated by pormake.
# Topology unr, (4)-cn, num edge types: 1
# Building blocks:
#     Node 0, Type 0, BuildingBlock: GALJAG_clean_sbu_0, # of connection points: 4
#     Node 1, Type 0, BuildingBlock: GALJAG_clean_sbu_0, # of connection points: 4
#     Node 2, Type 0, BuildingBlock: GALJAG_clean_sbu_0, # of connection points: 4
#     Node 3, Type 0, BuildingBlock: GALJAG_clean_sbu_0, # of connection points: 4
#     Node 4, Type 0, BuildingBlock: GALJAG_clean_sbu_0, # of connection points: 4
#     Node 5, Type 0, BuildingBlock: GALJAG_clean_sbu_0, # of connection points: 4
#     Node 6, Type 0, BuildingBlock: GALJAG_clean_sbu_0, # of connection points: 4
#     Node 7, Type 0, BuildingBlock: GALJAG_clean_sbu_0, # of connection points: 4
#     Node 8, Type 0, BuildingBlock: GALJAG_clean_sbu_0, # of connection points: 4
#     Node 9, Type 0, BuildingBlock: GALJAG_clean_sbu_0, # of connection points: 4
#     Node 10, Type 0, BuildingBlock: GALJAG_clean_sbu_0, # of connection points: 4
#     Node 11, Type 0, BuildingBlock: GALJAG_clean_sbu_0, # of connection points: 4
#     Node 12, Type 0, BuildingBlock: GALJAG_clean_sbu_0, # of connection points: 4
#     Node 13, Type 0, BuildingBlock: GALJAG_clean_sbu_0, # of connection points: 4
#     Node 14, Type 0, BuildingBlock: GALJAG_clean_sbu_0, # of connection points: 4
#     Node 15, Type 0, BuildingBlock: GALJAG_clean_sbu_0, # of connection points: 4
#     Node 16, Type 0, BuildingBlock: GALJAG_clean_sbu_0, # of connection points: 4
#     Node 17, Type 0, BuildingBlock: GALJAG_clean_sbu_0, # of connection points: 4
#     Node 18, Type 0, BuildingBlock: GALJAG_clean_sbu_0, # of connection points: 4
#     Node 19, Type 0, BuildingBlock: GALJAG_clean_sbu_0, # of connection points: 4
#     Node 20, Type 0, BuildingBlock: GALJAG_clean_sbu_0, # of connection points: 4
#     Node 21, Type 0, BuildingBlock: GALJAG_clean_sbu_0, # of connection points: 4
#     Node 22, Type 0, BuildingBlock: GALJAG_clean_sbu_0, # of connection points: 4
#     Node 23, Type 0, BuildingBlock: GALJAG_clean_sbu_0, # of connection points: 4
#     Node 24, Type 0, BuildingBlock: GALJAG_clean_sbu_0, # of connection points: 4
#     Node 25, Type 0, BuildingBlock: GALJAG_clean_sbu_0, # of connection points: 4
#     Node 26, Type 0, BuildingBlock: GALJAG_clean_sbu_0, # of connection points: 4
#     Node 27, Type 0, BuildingBlock: GALJAG_clean_sbu_0, # of connection points: 4
#     Node 28, Type 0, BuildingBlock: GALJAG_clean_sbu_0, # of connection points: 4
#     Node 29, Type 0, BuildingBlock: GALJAG_clean_sbu_0, # of connection points: 4
#     Node 30, Type 0, BuildingBlock: GALJAG_clean_sbu_0, # of connection points: 4
#     Node 31, Type 0, BuildingBlock: GALJAG_clean_sbu_0, # of connection points: 4
#     Node 32, Type 0, BuildingBlock: GALJAG_clean_sbu_0, # of connection points: 4
#     Node 33, Type 0, BuildingBlock: GALJAG_clean_sbu_0, # of connection points: 4
#     Node 34, Type 0, BuildingBlock: GALJAG_clean_sbu_0, # of connection points: 4
#     Node 35, Type 0, BuildingBlock: GALJAG_clean_sbu_0, # of connection points: 4
#     Edge 36, Type (0, 0), BuildingBlock: OJICUG_clean_linker_0, # of connection points: 2
#     Edge 37, Type (0, 0), BuildingBlock: OJICUG_clean_linker_0, # of connection points: 2
#     Edge 38, Type (0, 0), BuildingBlock: OJICUG_clean_linker_0, # of connection points: 2
#     Edge 39, Type (0, 0), BuildingBlock: OJICUG_clean_linker_0, # of connection points: 2
#     Edge 40, Type (0, 0), BuildingBlock: OJICUG_clean_linker_0, # of connection points: 2
#     Edge 41, Type (0, 0), BuildingBlock: OJICUG_clean_linker_0, # of connection points: 2
#     Edge 42, Type (0, 0), BuildingBlock: OJICUG_clean_linker_0, # of connection points: 2
#     Edge 43, Type (0, 0), BuildingBlock: OJICUG_clean_linker_0, # of connection points: 2
#     Edge 44, Type (0, 0), BuildingBlock: OJICUG_clean_linker_0, # of connection points: 2
#     Edge 45, Type (0, 0), BuildingBlock: OJICUG_clean_linker_0, # of connection points: 2
#     Edge 46, Type (0, 0), BuildingBlock: OJICUG_clean_linker_0, # of connection points: 2
#     Edge 47, Type (0, 0), BuildingBlock: OJICUG_clean_linker_0, # of connection points: 2
#     Edge 48, Type (0, 0), BuildingBlock: OJICUG_clean_linker_0, # of connection points: 2
#     Edge 49, Type (0, 0), BuildingBlock: OJICUG_clean_linker_0, # of connection points: 2
#     Edge 50, Type (0, 0), BuildingBlock: OJICUG_clean_linker_0, # of connection points: 2
#     Edge 51, Type (0, 0), BuildingBlock: OJICUG_clean_linker_0, # of connection points: 2
#     Edge 52, Type (0, 0), BuildingBlock: OJICUG_clean_linker_0, # of connection points: 2
#     Edge 53, Type (0, 0), BuildingBlock: OJICUG_clean_linker_0, # of connection points: 2
#     Edge 54, Type (0, 0), BuildingBlock: OJICUG_clean_linker_0, # of connection points: 2
#     Edge 55, Type (0, 0), BuildingBlock: OJICUG_clean_linker_0, # of connection points: 2
#     Edge 56, Type (0, 0), BuildingBlock: OJICUG_clean_linker_0, # of connection points: 2
#     Edge 57, Type (0, 0), BuildingBlock: OJICUG_clean_linker_0, # of connection points: 2
#     Edge 58, Type (0, 0), BuildingBlock: OJICUG_clean_linker_0, # of connection points: 2
#     Edge 59, Type (0, 0), BuildingBlock: OJICUG_clean_linker_0, # of connection points: 2
#     Edge 60, Type (0, 0), BuildingBlock: OJICUG_clean_linker_0, # of connection points: 2
#     Edge 61, Type (0, 0), BuildingBlock: OJICUG_clean_linker_0, # of connection points: 2
#     Edge 62, Type (0, 0), BuildingBlock: OJICUG_clean_linker_0, # of connection points: 2
#     Edge 63, Type (0, 0), BuildingBlock: OJICUG_clean_linker_0, # of connection points: 2
#     Edge 64, Type (0, 0), BuildingBlock: OJICUG_clean_linker_0, # of connection points: 2
#     Edge 65, Type (0, 0), BuildingBlock: OJICUG_clean_linker_0, # of connection points: 2
#     Edge 66, Type (0, 0), BuildingBlock: OJICUG_clean_linker_0, # of connection points: 2
#     Edge 67, Type (0, 0), BuildingBlock: OJICUG_clean_linker_0, # of connection points: 2
#     Edge 68, Type (0, 0), BuildingBlock: OJICUG_clean_linker_0, # of connection points: 2
#     Edge 69, Type (0, 0), BuildingBlock: OJICUG_clean_linker_0, # of connection points: 2
#     Edge 70, Type (0, 0), BuildingBlock: OJICUG_clean_linker_0, # of connection points: 2
#     Edge 71, Type (0, 0), BuildingBlock: OJICUG_clean_linker_0, # of connection points: 2
#     Edge 72, Type (0, 0), BuildingBlock: OJICUG_clean_linker_0, # of connection points: 2
#     Edge 73, Type (0, 0), BuildingBlock: OJICUG_clean_linker_0, # of connection points: 2
#     Edge 74, Type (0, 0), BuildingBlock: OJICUG_clean_linker_0, # of connection points: 2
#     Edge 75, Type (0, 0), BuildingBlock: OJICUG_clean_linker_0, # of connection points: 2
#     Edge 76, Type (0, 0), BuildingBlock: OJICUG_clean_linker_0, # of connection points: 2
#     Edge 77, Type (0, 0), BuildingBlock: OJICUG_clean_linker_0, # of connection points: 2
#     Edge 78, Type (0, 0), BuildingBlock: OJICUG_clean_linker_0, # of connection points: 2
#     Edge 79, Type (0, 0), BuildingBlock: OJICUG_clean_linker_0, # of connection points: 2
#     Edge 80, Type (0, 0), BuildingBlock: OJICUG_clean_linker_0, # of connection points: 2
#     Edge 81, Type (0, 0), BuildingBlock: OJICUG_clean_linker_0, # of connection points: 2
#     Edge 82, Type (0, 0), BuildingBlock: OJICUG_clean_linker_0, # of connection points: 2
#     Edge 83, Type (0, 0), BuildingBlock: OJICUG_clean_linker_0, # of connection points: 2
#     Edge 84, Type (0, 0), BuildingBlock: OJICUG_clean_linker_0, # of connection points: 2
#     Edge 85, Type (0, 0), BuildingBlock: OJICUG_clean_linker_0, # of connection points: 2
#     Edge 86, Type (0, 0), BuildingBlock: OJICUG_clean_linker_0, # of connection points: 2
#     Edge 87, Type (0, 0), BuildingBlock: OJICUG_clean_linker_0, # of connection points: 2
#     Edge 88, Type (0, 0), BuildingBlock: OJICUG_clean_linker_0, # of connection points: 2
#     Edge 89, Type (0, 0), BuildingBlock: OJICUG_clean_linker_0, # of connection points: 2
#     Edge 90, Type (0, 0), BuildingBlock: OJICUG_clean_linker_0, # of connection points: 2
#     Edge 91, Type (0, 0), BuildingBlock: OJICUG_clean_linker_0, # of connection points: 2
#     Edge 92, Type (0, 0), BuildingBlock: OJICUG_clean_linker_0, # of connection points: 2
#     Edge 93, Type (0, 0), BuildingBlock: OJICUG_clean_linker_0, # of connection points: 2
#     Edge 94, Type (0, 0), BuildingBlock: OJICUG_clean_linker_0, # of connection points: 2
#     Edge 95, Type (0, 0), BuildingBlock: OJICUG_clean_linker_0, # of connection points: 2
#     Edge 96, Type (0, 0), BuildingBlock: OJICUG_clean_linker_0, # of connection points: 2
#     Edge 97, Type (0, 0), BuildingBlock: OJICUG_clean_linker_0, # of connection points: 2
#     Edge 98, Type (0, 0), BuildingBlock: OJICUG_clean_linker_0, # of connection points: 2
#     Edge 99, Type (0, 0), BuildingBlock: OJICUG_clean_linker_0, # of connection points: 2
#     Edge 100, Type (0, 0), BuildingBlock: OJICUG_clean_linker_0, # of connection points: 2
#     Edge 101, Type (0, 0), BuildingBlock: OJICUG_clean_linker_0, # of connection points: 2
#     Edge 102, Type (0, 0), BuildingBlock: OJICUG_clean_linker_0, # of connection points: 2
#     Edge 103, Type (0, 0), BuildingBlock: OJICUG_clean_linker_0, # of connection points: 2
#     Edge 104, Type (0, 0), BuildingBlock: OJICUG_clean_linker_0, # of connection points: 2
#     Edge 105, Type (0, 0), BuildingBlock: OJICUG_clean_linker_0, # of connection points: 2
#     Edge 106, Type (0, 0), BuildingBlock: OJICUG_clean_linker_0, # of connection points: 2
#     Edge 107, Type (0, 0), BuildingBlock: OJICUG_clean_linker_0, # of connection points: 2
# Relax obj value: 0.387
# Max RMSD: 0.141
# Mean RMSD: 0.140
data_MOF--net-unr--node1-GALJAG_clean_sbu_0--edge1-OJICUG_clean_linker_0
_symmetry_space_group_name_H-M    P1
_symmetry_Int_Tables_number       1
_symmetry_cell_setting            triclinic
loop_
_symmetry_equiv_pos_as_xyz
'x, y, z'
_cell_length_a     36.603217
_cell_length_b     36.54116
_cell_length_c     56.862109
_cell_angle_alpha  89.947231
_cell_angle_beta   89.980993
_cell_angle_gamma 120.04121
loop_
_atom_site_label
_atom_site_type_symbol
_atom_site_fract_x
_atom_site_fract_y
_atom_site_fract_z
_atom_type_partial_charge
In0 In 0.14476 0.05941 0.21602 0.0
O1 O 0.19653 0.07272 0.2423 0.0
O2 O 0.20649 0.06108 0.20695 0.0
C3 C 0.16179 0.1363 0.20064 0.0
C4 C 0.08783 0.05171 0.24877 0.0
C5 C 0.09793 0.98898 0.19054 0.0
O6 O 0.17426 0.13045 0.22021 0.0
O7 O 0.14457 0.10379 0.18775 0.0
O8 O 0.10552 0.98806 0.21212 0.0
O9 O 0.11633 0.02543 0.18149 0.0
C10 C 0.22088 0.0702 0.22762 0.0
O11 O 0.11156 0.0362 0.25166 0.0
O12 O 0.09148 0.06894 0.2291 0.0
In13 In 0.97575 0.1658 0.22453 0.0
O14 O 0.94504 0.19913 0.20721 0.0
O15 O 0.96783 0.21857 0.24184 0.0
C16 C 0.9154 0.09838 0.20116 0.0
C17 C 0.96621 0.11811 0.26282 0.0
C18 C 0.0567 0.19955 0.20974 0.0
O19 O 0.95253 0.1206 0.19334 0.0
O20 O 0.90837 0.11139 0.22026 0.0
O21 O 0.04694 0.19914 0.23104 0.0
O22 O 0.02585 0.18576 0.19586 0.0
C23 C 0.94806 0.2218 0.22457 0.0
O24 O 0.968 0.15348 0.26423 0.0
O25 O 0.97163 0.10821 0.24244 0.0
In26 In 0.85505 0.86046 0.18942 0.0
O27 O 0.89216 0.8957 0.22218 0.0
O28 O 0.85137 0.82926 0.22455 0.0
C29 C 0.84098 0.92538 0.18246 0.0
C30 C 0.79 0.7852 0.17603 0.0
C31 C 0.93044 0.87618 0.17239 0.0
O32 O 0.83006 0.90345 0.201 0.0
O33 O 0.85564 0.91215 0.16664 0.0
O34 O 0.91057 0.8931 0.16392 0.0
O35 O 0.91068 0.8491 0.18815 0.0
C36 C 0.87801 0.86282 0.23466 0.0
O37 O 0.8241 0.80419 0.16466 0.0
O38 O 0.78737 0.80593 0.19296 0.0
In39 In 0.07092 0.14797 0.37343 0.0
O40 O 0.06215 0.14581 0.33366 0.0
O41 O 0.03999 0.08752 0.35161 0.0
C42 C 0.00039 0.14622 0.38946 0.0
C43 C 0.13628 0.22815 0.37387 0.0
C44 C 0.09748 0.09651 0.39085 0.0
O45 O 0.01346 0.1559 0.36862 0.0
O46 O 0.02393 0.13905 0.40255 0.0
O47 O 0.11677 0.12301 0.3747 0.0
O48 O 0.06729 0.09914 0.39979 0.0
C49 C 0.04607 0.10623 0.33217 0.0
O50 O 0.11736 0.20939 0.3925 0.0
O51 O 0.12248 0.20636 0.35551 0.0
In52 In 0.807 0.96372 0.36595 0.0
O53 O 0.87663 0.00614 0.35645 0.0
O54 O 0.83375 0.97502 0.32858 0.0
C55 C 0.8141 0.89832 0.38311 0.0
C56 C 0.72596 0.93449 0.35363 0.0
C57 C 0.83368 0.03644 0.38952 0.0
O58 O 0.80544 0.90088 0.36198 0.0
O59 O 0.81785 0.92812 0.3959 0.0
O60 O 0.82828 0.003 0.39932 0.0
O61 O 0.8198 0.0311 0.36871 0.0
C62 C 0.87118 0.00067 0.33463 0.0
O63 O 0.75474 0.94273 0.33892 0.0
O64 O 0.738 0.94141 0.37479 0.0
In65 In -0.01102 0.85105 0.36249 0.0
O66 O 0.98032 0.88973 0.33352 0.0
O67 O 0.94705 0.82277 0.33065 0.0
C68 C 0.0493 0.92717 0.37795 0.0
C69 C 0.02406 0.80173 0.35798 0.0
C70 C 0.91829 0.83042 0.38729 0.0
O71 O 0.04317 0.91773 0.35638 0.0
O72 O 0.0262 0.8974 0.39184 0.0
O73 O 0.95445 0.85867 0.39381 0.0
O74 O 0.91856 0.80954 0.36973 0.0
C75 C 0.95444 0.85759 0.32202 0.0
O76 O 0.00023 0.79757 0.37505 0.0
O77 O 0.03093 0.83121 0.34407 0.0
In78 In 0.80655 0.97518 0.77329 0.0
O79 O 0.85953 0.98024 0.74993 0.0
O80 O 0.7965 0.94038 0.73843 0.0
C81 C 0.86309 0.05716 0.78164 0.0
C82 C 0.72767 0.96351 0.77629 0.0
C83 C 0.81549 0.91835 0.79937 0.0
O84 O 0.84655 0.0441 0.76165 0.0
O85 O 0.84853 0.02944 0.79759 0.0
O86 O 0.83086 0.95647 0.80542 0.0
O87 O 0.79267 0.90828 0.78125 0.0
C88 C 0.8353 0.95405 0.73486 0.0
O89 O 0.747 0.95943 0.79351 0.0
O90 O 0.7487 0.97508 0.75747 0.0
In91 In 0.01311 0.89104 0.79328 0.0
O92 O 0.01796 0.94861 0.77517 0.0
O93 O 0.0197 0.90234 0.75336 0.0
C94 C 0.93373 0.86718 0.80719 0.0
C95 C 0.02524 0.82412 0.79553 0.0
C96 C 0.08263 0.95759 0.81137 0.0
O97 O 0.94209 0.8578 0.78734 0.0
O98 O 0.9652 0.88624 0.82057 0.0
O99 O 0.04722 0.94063 0.82165 0.0
O100 O 0.08373 0.9375 0.79359 0.0
C101 C 0.02249 0.93818 0.75477 0.0
O102 O 0.01675 0.83625 0.7766 0.0
O103 O 0.02664 0.84516 0.81344 0.0
In104 In 0.10966 0.17124 0.77091 0.0
O105 O 0.05929 0.11301 0.75213 0.0
O106 O 0.11122 0.15801 0.73176 0.0
C107 C 0.13699 0.12477 0.79425 0.0
C108 C 0.1692 0.25418 0.77029 0.0
C109 C 0.03673 0.16858 0.78259 0.0
O110 O 0.14711 0.13649 0.77321 0.0
O111 O 0.11556 0.13893 0.80384 0.0
O112 O 0.05588 0.1568 0.79638 0.0
O113 O 0.05611 0.18465 0.76364 0.0
C114 C 0.07616 0.1239 0.73212 0.0
O115 O 0.15133 0.23464 0.7889 0.0
O116 O 0.15797 0.23166 0.75206 0.0
In117 In 0.9178 0.83178 0.64006 0.0
O118 O 0.93187 0.8871 0.66469 0.0
O119 O 0.86869 0.83652 0.66224 0.0
C120 C 0.00182 0.86731 0.63581 0.0
C121 C 0.89238 0.75047 0.65021 0.0
C122 C 0.88843 0.85521 0.60284 0.0
O123 O 0.9839 0.86422 0.65532 0.0
O124 O 0.97714 0.85135 0.61853 0.0
O125 O 0.92658 0.86522 0.60506 0.0
O126 O 0.86438 0.83005 0.6184 0.0
C127 C 0.89391 0.87217 0.67088 0.0
O128 O 0.89 0.76248 0.62974 0.0
O129 O 0.90739 0.77933 0.66537 0.0
In130 In 0.17453 0.09269 0.64771 0.0
O131 O 0.15322 0.08306 0.68612 0.0
O132 O 0.10711 0.04875 0.65999 0.0
C133 C 0.15499 0.14353 0.62255 0.0
C134 C 0.2576 0.13525 0.65704 0.0
C135 C 0.15531 0.01518 0.63325 0.0
O136 O 0.15741 0.14458 0.64469 0.0
O137 O 0.16423 0.11805 0.61305 0.0
O138 O 0.1508 0.0407 0.6202 0.0
O139 O 0.17402 0.03087 0.65241 0.0
C140 C 0.11563 0.05518 0.68156 0.0
O141 O 0.24263 0.11418 0.63843 0.0
O142 O 0.23077 0.13606 0.67059 0.0
In143 In 0.94128 0.08052 0.61192 0.0
O144 O 0.94382 0.06136 0.64994 0.0
O145 O -0.00474 0.07408 0.62785 0.0
C146 C 0.89582 0.00447 0.59058 0.0
C147 C 0.89267 0.11403 0.62247 0.0
C148 C 0.01454 0.14406 0.59517 0.0
O149 O 0.92574 0.03579 0.58042 0.0
O150 O 0.88763 0.01241 0.61078 0.0
O151 O -0.00797 0.1105 0.58367 0.0
O152 O -0.0034 0.14761 0.6133 0.0
C153 C 0.97996 0.06544 0.64823 0.0
O154 O 0.90314 0.11255 0.60141 0.0
O155 O 0.90643 0.09858 0.63741 0.0
In156 In 0.84544 0.34428 0.52367 0.0
O157 O 0.90864 0.37565 0.50456 0.0
O158 O 0.90217 0.3386 0.5347 0.0
C159 C 0.82773 0.39898 0.50146 0.0
C160 C 0.82738 0.36133 0.56687 0.0
C161 C 0.79289 0.26287 0.51164 0.0
O162 O 0.81558 0.36221 0.49389 0.0
O163 O 0.85096 0.40895 0.51939 0.0
O164 O 0.80332 0.27447 0.53265 0.0
O165 O 0.81064 0.29205 0.49667 0.0
C166 C 0.92607 0.36267 0.51879 0.0
O167 O 0.79901 0.34158 0.5517 0.0
O168 O 0.864 0.37039 0.56054 0.0
In169 In 0.62335 0.41851 0.50372 0.0
O170 O 0.59539 0.4482 0.47984 0.0
O171 O 0.62639 0.48136 0.51083 0.0
C172 C 0.56713 0.34268 0.48549 0.0
C173 C 0.60966 0.38975 0.54849 0.0
C174 C 0.70447 0.44476 0.49275 0.0
O175 O 0.60384 0.36507 0.47728 0.0
O176 O 0.55803 0.35984 0.50193 0.0
O177 O 0.69369 0.45324 0.51216 0.0
O178 O 0.67458 0.42549 0.47841 0.0
C179 C 0.60538 0.47962 0.49292 0.0
O180 O 0.63179 0.38248 0.53431 0.0
O181 O 0.5958 0.41256 0.5403 0.0
In182 In 0.55056 0.12866 0.51623 0.0
O183 O 0.51762 0.06211 0.5008 0.0
O184 O 0.49073 0.07317 0.53113 0.0
C185 C 0.62499 0.13743 0.50265 0.0
C186 C 0.58587 0.1688 0.55688 0.0
C187 C 0.52172 0.17499 0.49466 0.0
O188 O 0.6046 0.14958 0.49007 0.0
O189 O 0.60564 0.11715 0.52082 0.0
O190 O 0.51365 0.16348 0.51585 0.0
O191 O 0.54205 0.16067 0.48392 0.0
C192 C 0.4891 0.04686 0.51628 0.0
O193 O 0.59468 0.18771 0.53737 0.0
O194 O 0.55754 0.13033 0.55598 0.0
In195 In 0.80393 0.49395 0.68194 0.0
O196 O 0.77187 0.439 0.65544 0.0
O197 O 0.83765 0.48182 0.65232 0.0
C198 C 0.72608 0.46918 0.69801 0.0
C199 C 0.83484 0.57651 0.67312 0.0
C200 C 0.8446 0.46328 0.70728 0.0
O201 O 0.73551 0.47455 0.67642 0.0
O202 O 0.75636 0.4772 0.71173 0.0
O203 O 0.80635 0.45218 0.71062 0.0
O204 O 0.86376 0.49473 0.69377 0.0
C205 C 0.80593 0.4487 0.64494 0.0
O206 O 0.83838 0.5636 0.69316 0.0
O207 O 0.81611 0.54797 0.65803 0.0
In208 In 0.51956 0.26612 0.67945 0.0
O209 O 0.56511 0.28361 0.64798 0.0
O210 O 0.51986 0.30374 0.64776 0.0
C211 C 0.5507 0.21766 0.69477 0.0
C212 C 0.435 0.21692 0.67784 0.0
C213 C 0.56164 0.33943 0.70353 0.0
O214 O 0.54496 0.2216 0.6732 0.0
O215 O 0.53918 0.23694 0.70867 0.0
O216 O 0.5617 0.30627 0.70954 0.0
O217 O 0.53695 0.33429 0.68681 0.0
C218 C 0.55027 0.30373 0.63742 0.0
O219 O 0.45295 0.24479 0.69349 0.0
O220 O 0.4597 0.21293 0.66413 0.0
In221 In 0.75773 0.23266 0.66765 0.0
O222 O 0.73492 0.25753 0.63685 0.0
O223 O 0.70051 0.19221 0.64578 0.0
C224 C 0.81665 0.30742 0.685 0.0
C225 C 0.80111 0.1951 0.65381 0.0
C226 C 0.69381 0.20608 0.6985 0.0
O227 O 0.80412 0.30279 0.6639 0.0
O228 O 0.8003 0.27396 0.69716 0.0
O229 O 0.71945 0.24458 0.69446 0.0
O230 O 0.70279 0.18065 0.68852 0.0
C231 C 0.70307 0.22152 0.633 0.0
O232 O 0.78536 0.18977 0.67418 0.0
O233 O 0.79561 0.21985 0.64083 0.0
In234 In 0.47529 0.21033 0.22046 0.0
O235 O 0.51347 0.22487 0.18669 0.0
O236 O 0.44664 0.18794 0.18407 0.0
C237 C 0.49237 0.29123 0.22291 0.0
C238 C 0.39868 0.15175 0.23678 0.0
C239 C 0.53939 0.20256 0.23839 0.0
O240 O 0.47159 0.26676 0.2063 0.0
O241 O 0.50272 0.27423 0.2389 0.0
O242 O 0.52587 0.22434 0.24828 0.0
O243 O 0.51793 0.1818 0.22092 0.0
C244 C 0.48175 0.20432 0.17361 0.0
O245 O 0.42183 0.1425 0.22484 0.0
O246 O 0.41548 0.1903 0.24207 0.0
In247 In 0.79407 0.32937 0.21541 0.0
O248 O 0.8539 0.33481 0.23302 0.0
O249 O 0.80572 0.27553 0.22031 0.0
C250 C 0.8065 0.40793 0.22309 0.0
C251 C 0.80026 0.33129 0.16826 0.0
C252 C 0.7154 0.27503 0.23025 0.0
O253 O 0.8235 0.39919 0.20648 0.0
O254 O 0.78711 0.37812 0.23756 0.0
O255 O 0.72751 0.27575 0.20936 0.0
O256 O 0.74318 0.30181 0.24389 0.0
C257 C 0.84206 0.29642 0.22893 0.0
O258 O 0.82979 0.33627 0.1817 0.0
O259 O 0.76704 0.32511 0.17858 0.0
In260 In 0.67237 0.52052 0.17993 0.0
O261 O 0.66984 0.58048 0.19008 0.0
O262 O 0.72122 0.58689 0.16972 0.0
C263 C 0.5992 0.46284 0.20063 0.0
C264 C 0.65504 0.49682 0.13476 0.0
C265 C 0.73137 0.5051 0.19866 0.0
O266 O 0.63201 0.48632 0.21231 0.0
O267 O 0.60271 0.47043 0.17891 0.0
O268 O 0.72767 0.5086 0.17684 0.0
O269 O 0.70577 0.51012 0.21118 0.0
C270 C 0.70317 0.60483 0.17894 0.0
O271 O 0.6731 0.48303 0.14812 0.0
O272 O 0.64503 0.52171 0.1444 0.0
In273 In 0.50823 0.14814 0.03283 0.0
O274 O 0.4521 0.09064 0.01574 0.0
O275 O 0.49135 0.08047 0.03905 0.0
C276 C 0.49961 0.20631 0.00786 0.0
C277 C 0.49895 0.16773 0.07708 0.0
C278 C 0.58822 0.16782 0.02308 0.0
O279 O 0.51292 0.18365 0.99892 0.0
O280 O 0.48789 0.19754 0.02895 0.0
O281 O 0.57325 0.15945 0.04365 0.0
O282 O 0.56274 0.16582 0.00755 0.0
C283 C 0.46007 0.06441 0.02548 0.0
O284 O 0.53441 0.18385 0.06695 0.0
O285 O 0.468 0.14152 0.06484 0.0
In286 In 0.83214 0.34558 0.02083 0.0
O287 O 0.87984 0.33583 0.99921 0.0
O288 O 0.90251 0.38589 0.02401 0.0
C289 C 0.76472 0.26888 0.01172 0.0
C290 C 0.82228 0.34314 0.06769 0.0
C291 C 0.82093 0.40648 0.00118 0.0
O292 O 0.79055 0.27472 0.02791 0.0
O293 O 0.775 0.3008 0.999 0.0
O294 O 0.8288 0.40617 0.02276 0.0
O295 O 0.81989 0.37672 0.98945 0.0
C296 C 0.91134 0.36662 0.00878 0.0
O297 O 0.80083 0.35223 0.05395 0.0
O298 O 0.84881 0.33578 0.05775 0.0
In299 In 0.63929 0.45987 0.98791 0.0
O300 O 0.65039 0.4437 0.02487 0.0
O301 O 0.625 0.48462 0.02136 0.0
C302 C 0.57741 0.37856 0.98416 0.0
C303 C 0.61983 0.50996 0.96234 0.0
C304 C 0.7177 0.47394 0.97864 0.0
O305 O 0.57442 0.40466 0.99736 0.0
O306 O 0.61115 0.39381 0.97242 0.0
O307 O 0.68608 0.44968 0.96636 0.0
O308 O 0.71029 0.49382 0.99422 0.0
C309 C 0.63757 0.4659 0.03501 0.0
O310 O 0.64529 0.52372 0.9793 0.0
O311 O 0.60625 0.47171 0.9575 0.0
In312 In 0.46345 0.82956 0.78401 0.0
O313 O 0.52205 0.88425 0.76564 0.0
O314 O 0.53038 0.85544 0.79599 0.0
C315 C 0.39825 0.83838 0.76872 0.0
C316 C 0.43954 0.82508 0.82918 0.0
C317 C 0.45032 0.75663 0.76482 0.0
O318 O 0.40837 0.81353 0.75935 0.0
O319 O 0.42427 0.86266 0.78381 0.0
O320 O 0.45542 0.76366 0.78671 0.0
O321 O 0.45307 0.78685 0.75265 0.0
C322 C 0.54743 0.8832 0.78032 0.0
O323 O 0.43195 0.79239 0.81767 0.0
O324 O 0.45978 0.8594 0.81803 0.0
In325 In 0.14755 0.68212 0.79497 0.0
O326 O 0.11889 0.71717 0.81295 0.0
O327 O 0.09724 0.69449 0.77853 0.0
C328 C 0.13485 0.61561 0.76833 0.0
C329 C 0.15129 0.64333 0.8346 0.0
C330 C 0.22266 0.74929 0.78316 0.0
O331 O 0.11076 0.61209 0.78509 0.0
O332 O 0.16206 0.65321 0.76343 0.0
O333 O 0.21081 0.74004 0.80431 0.0
O334 O 0.19631 0.72512 0.7681 0.0
C335 C 0.09538 0.71451 0.79614 0.0
O336 O 0.1171 0.63782 0.82602 0.0
O337 O 0.18407 0.6701 0.82379 0.0
In338 In 0.28885 0.51972 0.76956 0.0
O339 O 0.27468 0.45866 0.74988 0.0
O340 O 0.26169 0.45558 0.78643 0.0
C341 C 0.35088 0.58404 0.7451 0.0
C342 C 0.33294 0.55424 0.80912 0.0
C343 C 0.21882 0.52452 0.7628 0.0
O344 O 0.31391 0.57801 0.7464 0.0
O345 O 0.35507 0.55436 0.7535 0.0
O346 O 0.23191 0.52225 0.78305 0.0
O347 O 0.24062 0.52335 0.74586 0.0
C348 C 0.26085 0.43592 0.76813 0.0
O349 O 0.29797 0.5523 0.80531 0.0
O350 O 0.34419 0.53734 0.79359 0.0
In351 In 0.38058 0.82251 0.97263 0.0
O352 O 0.41388 0.87466 0.99954 0.0
O353 O 0.36957 0.87831 0.97704 0.0
C354 C 0.43704 0.79744 0.98157 0.0
C355 C 0.38916 0.82285 0.92554 0.0
C356 C 0.30247 0.76222 0.98532 0.0
O357 O 0.40231 0.78265 0.99228 0.0
O358 O 0.44462 0.82714 0.96753 0.0
O359 O 0.30957 0.78315 0.96652 0.0
O360 O 0.33444 0.77337 0.99811 0.0
C361 C 0.39571 0.89475 0.99357 0.0
O362 O 0.36897 0.78919 0.93727 0.0
O363 O 0.40352 0.85641 0.93747 0.0
In364 In 0.1543 0.5163 0.95759 0.0
O365 O 0.10581 0.48923 0.98653 0.0
O366 O 0.09322 0.4519 0.95581 0.0
C367 C 0.1805 0.59116 0.979 0.0
C368 C 0.15397 0.54651 0.9143 0.0
C369 C 0.21116 0.48995 0.96107 0.0
O370 O 0.15042 0.57583 0.96453 0.0
O371 O 0.19606 0.56795 0.98334 0.0
O372 O 0.19112 0.48618 0.9423 0.0
O373 O 0.20099 0.50509 0.97804 0.0
C374 C 0.08096 0.45563 0.97593 0.0
O375 O 0.18764 0.55538 0.92499 0.0
O376 O 0.12055 0.52045 0.92487 0.0
In377 In 0.45314 0.59822 0.93692 0.0
O378 O 0.48283 0.55843 0.92715 0.0
O379 O 0.51678 0.60941 0.95053 0.0
C380 C 0.37996 0.53283 0.95311 0.0
C381 C 0.42731 0.60942 0.89465 0.0
C382 C 0.47512 0.6718 0.95829 0.0
O383 O 0.40454 0.56341 0.96601 0.0
O384 O 0.39428 0.53361 0.9329 0.0
O385 O 0.48482 0.66998 0.93713 0.0
O386 O 0.45573 0.63659 0.96873 0.0
C387 C 0.51552 0.57914 0.93933 0.0
O388 O 0.40849 0.60773 0.91352 0.0
O389 O 0.46113 0.60847 0.89723 0.0
In390 In 0.18861 0.51084 0.5317 0.0
O391 O 0.25321 0.54492 0.51359 0.0
O392 O 0.20076 0.5389 0.49463 0.0
C393 C 0.19401 0.57428 0.55895 0.0
C394 C 0.10612 0.45498 0.52663 0.0
C395 C 0.22091 0.46002 0.5392 0.0
O396 O 0.21128 0.55312 0.56468 0.0
O397 O 0.17364 0.56274 0.53998 0.0
O398 O 0.22492 0.48774 0.55396 0.0
O399 O 0.19678 0.45533 0.52221 0.0
C400 C 0.23957 0.55081 0.49449 0.0
O401 O 0.12478 0.46005 0.54611 0.0
O402 O 0.12913 0.47794 0.51009 0.0
In403 In 0.43865 0.57143 0.49404 0.0
O404 O 0.49919 0.57582 0.50794 0.0
O405 O 0.47409 0.54438 0.47535 0.0
C406 C 0.42215 0.62125 0.52122 0.0
C407 C 0.443 0.61486 0.45508 0.0
C408 C 0.37547 0.49801 0.5104 0.0
O409 O 0.39431 0.58906 0.51064 0.0
O410 O 0.45956 0.62831 0.51881 0.0
O411 O 0.37793 0.50896 0.48904 0.0
O412 O 0.40675 0.52279 0.52289 0.0
C413 C 0.50273 0.55606 0.49064 0.0
O414 O 0.41447 0.57667 0.45772 0.0
O415 O 0.46967 0.62979 0.47148 0.0
In416 In 0.32702 0.78308 0.53011 0.0
O417 O 0.34973 0.85078 0.5428 0.0
O418 O 0.38113 0.84162 0.51394 0.0
C419 C 0.27097 0.74477 0.56491 0.0
C420 C 0.28796 0.76107 0.48809 0.0
C421 C 0.36367 0.73584 0.5363 0.0
O422 O 0.31028 0.76169 0.56816 0.0
O423 O 0.26134 0.75474 0.54556 0.0
O424 O 0.38443 0.77554 0.53885 0.0
O425 O 0.32574 0.72109 0.53031 0.0
C426 C 0.37812 0.86746 0.52725 0.0
O427 O 0.31753 0.75459 0.49369 0.0
O428 O 0.27846 0.7797 0.50355 0.0
In429 In 0.27848 0.49168 0.364 0.0
O430 O 0.25688 0.42625 0.34827 0.0
O431 O 0.2553 0.43112 0.38526 0.0
C432 C 0.21331 0.50018 0.3484 0.0
C433 C 0.29406 0.53717 0.40396 0.0
C434 C 0.35099 0.53209 0.33887 0.0
O435 O 0.24814 0.51551 0.33773 0.0
O436 O 0.21071 0.47895 0.36647 0.0
O437 O 0.35053 0.52588 0.36073 0.0
O438 O 0.31495 0.51598 0.32967 0.0
C439 C 0.24763 0.40736 0.36779 0.0
O440 O 0.30429 0.5091 0.40152 0.0
O441 O 0.27853 0.54391 0.38582 0.0
In442 In 0.47476 0.76074 0.33467 0.0
O443 O 0.42957 0.70831 0.35972 0.0
O444 O 0.49077 0.75251 0.3721 0.0
C445 C 0.41506 0.78088 0.32454 0.0
C446 C 0.5505 0.83188 0.33299 0.0
C447 C 0.47002 0.6925 0.3138 0.0
O448 O 0.4304 0.78436 0.34479 0.0
O449 O 0.431 0.76863 0.30889 0.0
O450 O 0.44952 0.70965 0.30652 0.0
O451 O 0.49723 0.71364 0.32924 0.0
C452 C 0.45609 0.71946 0.37616 0.0
O453 O 0.52381 0.82392 0.34898 0.0
O454 O 0.53802 0.80492 0.31661 0.0
In455 In 0.17304 0.69026 0.35448 0.0
O456 O 0.14453 0.7247 0.3353 0.0
O457 O 0.10833 0.68201 0.36243 0.0
C458 C 0.24686 0.74126 0.33241 0.0
C459 C 0.20404 0.70729 0.39857 0.0
C460 C 0.14789 0.60859 0.34516 0.0
O461 O 0.21931 0.70634 0.32391 0.0
O462 O 0.23582 0.75151 0.35112 0.0
O463 O 0.14539 0.62138 0.36536 0.0
O464 O 0.15976 0.63641 0.32931 0.0
C465 C 0.1116 0.70927 0.34773 0.0
O466 O 0.21187 0.68562 0.38435 0.0
O467 O 0.17989 0.71974 0.3907 0.0
C468 C 0.12698 0.16936 0.17864 0.0
C469 C 0.15212 0.17076 0.19766 0.0
H470 H 0.07674 0.17903 0.1674 0.0
C471 C 0.15565 0.19577 0.21728 0.0
H472 H 0.12425 0.15105 0.16308 0.0
C473 C 0.12789 0.21126 0.21994 0.0
C474 C 0.097 0.20255 0.2028 0.0
H475 H 0.17545 0.19829 0.23205 0.0
H476 H 0.12727 0.22533 0.23659 0.0
C477 C 0.09959 0.18534 0.18117 0.0
C478 C 0.85293 0.02634 0.20602 0.0
C479 C 0.88627 0.05578 0.19189 0.0
H480 H 0.81144 0.96092 0.21378 0.0
C481 C 0.89636 0.04178 0.1712 0.0
H482 H 0.8442 0.03624 0.22199 0.0
C483 C 0.87712 -0.00142 0.16632 0.0
C484 C 0.84801 0.96884 0.18227 0.0
H485 H 0.92162 0.06386 0.15986 0.0
H486 H 0.88833 0.98853 0.15141 0.0
C487 C 0.83407 0.98313 0.2013 0.0
C488 C 0.04142 0.96014 0.1602 0.0
C489 C 0.06175 0.95283 0.17907 0.0
H490 H 0.98256 0.94038 0.14286 0.0
C491 C 0.04129 0.91348 0.19048 0.0
H492 H 0.05663 0.99002 0.15087 0.0
C493 C -0.00104 0.88478 0.18568 0.0
C494 C 0.97655 0.89547 0.16966 0.0
H495 H 0.05649 0.90673 0.20484 0.0
H496 H 0.98274 0.85672 0.19653 0.0
C497 C -0.0011 0.93166 0.15559 0.0
C498 C 0.11566 0.04507 0.3738 0.0
C499 C 0.09932 0.05715 0.39275 0.0
H500 H 0.11215 -0.00652 0.35412 0.0
C501 C 0.07505 0.02687 0.40986 0.0
H502 H 0.13453 0.06765 0.36032 0.0
C503 C 0.06279 0.98433 0.40646 0.0
C504 C 0.07406 0.97156 0.3857 0.0
H505 H 0.06217 0.03532 0.42468 0.0
H506 H 0.04085 0.96113 0.41881 0.0
C507 C 0.10268 0.00249 0.37015 0.0
C508 C 0.88687 0.11062 0.38003 0.0
C509 C 0.8692 0.07793 0.3968 0.0
H510 H 0.94403 0.15887 0.36447 0.0
C511 C 0.89415 0.0795 0.416 0.0
H512 H 0.86828 0.11102 0.36531 0.0
C513 C 0.93778 0.10704 0.4155 0.0
C514 C 0.95649 0.13336 0.3959 0.0
H515 H 0.88124 0.05541 0.42955 0.0
H516 H 0.95702 0.10361 0.4288 0.0
C517 C 0.93048 0.13798 0.37945 0.0
C518 C 0.82085 0.83482 0.37597 0.0
C519 C 0.82846 0.86892 0.39052 0.0
H520 H 0.84281 0.79362 0.36442 0.0
C521 C 0.85756 0.88016 0.40902 0.0
H522 H 0.79804 0.82506 0.36183 0.0
C523 C 0.88364 0.86245 0.41038 0.0
C524 C 0.88051 0.83311 0.39338 0.0
H525 H 0.8637 0.90604 0.42068 0.0
H526 H 0.90931 0.87535 0.42295 0.0
C527 C 0.84642 0.81663 0.37758 0.0
C528 C 0.86285 0.90752 0.82634 0.0
C529 C 0.83356 0.89259 0.80783 0.0
H530 H 0.91762 0.9098 0.84117 0.0
C531 C 0.83039 0.85966 0.79361 0.0
H532 H 0.86565 0.93253 0.83775 0.0
C533 C 0.86056 0.84706 0.79534 0.0
C534 C 0.89379 0.86677 0.81154 0.0
H535 H 0.80782 0.84716 0.77933 0.0
H536 H 0.86033 0.82516 0.78242 0.0
C537 C 0.89267 0.89445 0.82829 0.0
C538 C 0.11716 0.06958 0.82517 0.0
C539 C 0.13929 0.08867 0.80434 0.0
H540 H 0.08248 0.01182 0.84439 0.0
C541 C 0.15432 0.06711 0.79056 0.0
H542 H 0.10584 0.08572 0.83642 0.0
C543 C 0.14128 0.02476 0.7953 0.0
C544 C 0.11264 0.00344 0.8137 0.0
H545 H 0.17202 0.08122 0.77459 0.0
H546 H 0.14917 0.00754 0.78273 0.0
C547 C 0.10389 0.02717 0.82982 0.0
C548 C 0.92365 0.1229 0.76506 0.0
C549 C 0.90355 0.09706 0.78463 0.0
H550 H 0.98248 0.16738 0.74929 0.0
C551 C 0.92656 0.10413 0.80557 0.0
H552 H 0.90666 0.1185 0.74875 0.0
C553 C 0.97012 0.1319 0.80584 0.0
C554 C -0.00883 0.15329 0.78524 0.0
H555 H 0.91184 0.08507 0.82106 0.0
H556 H 0.98773 0.13345 0.82148 0.0
C557 C 0.96718 0.151 0.7654 0.0
C558 C 0.84657 0.92749 0.5951 0.0
C559 C 0.88113 0.96054 0.58338 0.0
H560 H 0.82048 0.8655 0.60964 0.0
C561 C 0.90867 0.95156 0.57073 0.0
H562 H 0.82445 0.93345 0.60466 0.0
C563 C 0.9068 0.91273 0.57386 0.0
C564 C 0.87707 0.88262 0.58941 0.0
H565 H 0.93529 0.97632 0.56126 0.0
H566 H 0.93203 0.9087 0.56674 0.0
C567 C 0.84427 0.88843 0.5979 0.0
C568 C 0.11369 0.94449 0.65155 0.0
C569 C 0.12663 0.96924 0.63097 0.0
H570 H 0.06269 0.89225 0.66933 0.0
C571 C 0.10277 0.953 0.61036 0.0
H572 H 0.13149 0.95599 0.66772 0.0
C573 C 0.06352 0.91594 0.61124 0.0
C574 C 0.0476 0.89524 0.63282 0.0
H575 H 0.11215 0.97129 0.59423 0.0
H576 H 0.04383 0.90642 0.59568 0.0
C577 C 0.07408 0.90805 0.65256 0.0
C578 C 0.07958 0.14704 0.57992 0.0
C579 C 0.06111 0.16429 0.5946 0.0
H580 H 0.1253 0.12708 0.57747 0.0
C581 C 0.08413 0.18827 0.61418 0.0
H582 H 0.0632 0.12923 0.56439 0.0
C583 C 0.11945 0.18651 0.62189 0.0
C584 C 0.13256 0.16162 0.60975 0.0
H585 H 0.07137 0.20291 0.62556 0.0
H586 H 0.13304 0.2002 0.63879 0.0
C587 C 0.11514 0.14557 0.58753 0.0
C588 C 0.74945 0.42146 0.47234 0.0
C589 C 0.74531 0.44647 0.48974 0.0
H590 H 0.77981 0.38673 0.46236 0.0
C591 C 0.77627 0.46469 0.5073 0.0
H592 H 0.7263 0.40732 0.45843 0.0
C593 C 0.80731 0.45331 0.50935 0.0
C594 C 0.80733 0.42313 0.49404 0.0
H595 H 0.77413 0.48449 0.52077 0.0
H596 H 0.82823 0.46462 0.5244 0.0
C597 C 0.7801 0.40959 0.47459 0.0
C598 C 0.51051 0.27078 0.49709 0.0
C599 C 0.54232 0.2968 0.48111 0.0
H600 H 0.47816 0.21018 0.51376 0.0
C601 C 0.55703 0.27817 0.46488 0.0
H602 H 0.49809 0.28414 0.50959 0.0
C603 C 0.5452 0.23557 0.46712 0.0
C604 C 0.51896 0.21144 0.48577 0.0
H605 H 0.58107 0.29738 0.45212 0.0
H606 H 0.56059 0.2232 0.45604 0.0
C607 C 0.49906 0.22833 0.49949 0.0
C608 C 0.69458 0.15849 0.52069 0.0
C609 C 0.67132 0.15752 0.50078 0.0
H610 H 0.75232 0.19338 0.53981 0.0
C611 C 0.69253 0.18488 0.48193 0.0
H612 H 0.67922 0.13758 0.53546 0.0
C613 C 0.73467 0.21663 0.48435 0.0
C614 C 0.75585 0.22163 0.50576 0.0
H615 H 0.67549 0.18458 0.46628 0.0
H616 H 0.749 0.23984 0.47044 0.0
C617 C 0.73649 0.19061 0.52326 0.0
C618 C 0.87636 0.4251 0.68848 0.0
C619 C 0.85698 0.43066 0.70847 0.0
H620 H 0.87726 0.38012 0.66471 0.0
C621 C 0.83566 0.39672 0.72417 0.0
H622 H 0.89321 0.45071 0.67608 0.0
C623 C 0.82761 0.35636 0.71791 0.0
C624 C 0.84004 0.34963 0.69571 0.0
H625 H 0.82049 0.40018 0.73969 0.0
H626 H 0.80692 0.32984 0.729 0.0
C627 C 0.86698 0.38456 0.68181 0.0
C628 C 0.60884 0.41467 0.69311 0.0
C629 C 0.59767 0.38145 0.70916 0.0
H630 H 0.65967 0.46929 0.67683 0.0
C631 C 0.62741 0.38501 0.72598 0.0
H632 H 0.58652 0.41306 0.68006 0.0
C633 C 0.66929 0.41775 0.72434 0.0
C634 C 0.68174 0.44674 0.70567 0.0
H635 H 0.61953 0.36001 0.73869 0.0
H636 H 0.69259 0.41725 0.73588 0.0
C637 C 0.65081 0.44682 0.69115 0.0
C638 C 0.64409 0.21891 0.72166 0.0
C639 C 0.65051 0.19362 0.70555 0.0
H640 H 0.60549 0.24514 0.73135 0.0
C641 C 0.61759 0.16723 0.69028 0.0
H642 H 0.66921 0.23976 0.73344 0.0
C643 C 0.58194 0.17164 0.68834 0.0
C644 C 0.57815 0.20115 0.70235 0.0
H645 H 0.62192 0.14768 0.67755 0.0
H646 H 0.55943 0.15498 0.67443 0.0
C647 C 0.6077 0.22215 0.72032 0.0
C648 C 0.65373 0.26098 0.2554 0.0
C649 C 0.6708 0.2485 0.23706 0.0
H650 H 0.59753 0.25529 0.27059 0.0
C651 C 0.64374 0.21386 0.22302 0.0
H652 H 0.67402 0.28747 0.26658 0.0
C653 C 0.60011 0.19492 0.2256 0.0
C654 C 0.58285 0.21093 0.24194 0.0
H655 H 0.65621 0.2032 0.209 0.0
H656 H 0.58008 0.17044 0.21328 0.0
C657 C 0.60994 0.24242 0.25776 0.0
C658 C 0.76957 0.44623 0.23651 0.0
C659 C 0.79822 0.44352 0.22114 0.0
H660 H 0.72599 0.4686 0.24146 0.0
C661 C 0.8108 0.46847 0.20065 0.0
H662 H 0.75929 0.42743 0.25244 0.0
C663 C 0.79115 0.49129 0.19416 0.0
C664 C 0.7592 0.49028 0.20826 0.0
H665 H 0.83299 0.46731 0.18849 0.0
H666 H 0.79904 0.50746 0.17735 0.0
C667 C 0.75033 0.46965 0.23016 0.0
C668 C 0.50301 0.355 0.20107 0.0
C669 C 0.51068 0.33749 0.22116 0.0
H670 H 0.52495 0.40944 0.179 0.0
C671 C 0.54178 0.36445 0.23718 0.0
H672 H 0.47892 0.3351 0.18853 0.0
C673 C 0.56814 0.4072 0.23174 0.0
C674 C 0.56377 0.42343 0.21019 0.0
H675 H 0.54817 0.35188 0.25293 0.0
H676 H 0.59425 0.42641 0.24338 0.0
C677 C 0.52937 0.39764 0.19562 0.0
C678 C 0.5173 0.31627 0.00351 0.0
C679 C 0.54773 0.3327 0.98555 0.0
H680 H 0.47711 0.26222 0.02451 0.0
C681 C 0.55411 0.30479 0.97152 0.0
H682 H 0.51138 0.33702 0.01444 0.0
C683 C 0.53416 0.26185 0.97714 0.0
C684 C 0.50788 0.2464 0.99701 0.0
H685 H 0.57699 0.31655 0.95735 0.0
H686 H 0.54244 0.2417 0.96726 0.0
C687 C 0.49757 0.27338 0.00924 0.0
C688 C 0.69387 0.22809 0.99325 0.0
C689 C 0.72118 0.23291 0.01182 0.0
H690 H 0.62989 0.20292 0.98221 0.0
C691 C 0.70432 0.20955 0.0326 0.0
H692 H 0.70606 0.24566 0.97703 0.0
C693 C 0.66064 0.18569 0.03575 0.0
C694 C 0.63332 0.18435 0.01802 0.0
H695 H 0.72465 0.21273 0.04724 0.0
H696 H 0.64837 0.17056 0.05258 0.0
C697 C 0.65024 0.20377 0.99628 0.0
C698 C 0.80645 0.46595 0.00561 0.0
C699 C 0.80599 0.43417 0.99155 0.0
H700 H 0.77952 0.50514 0.01191 0.0
C701 C 0.78451 0.42421 0.96995 0.0
H702 H 0.82328 0.47469 0.02218 0.0
C703 C 0.75919 0.44146 0.9641 0.0
C704 C 0.75535 0.46912 0.9797 0.0
H705 H 0.78402 0.40017 0.9586 0.0
H706 H 0.73967 0.43008 0.9485 0.0
C707 C 0.78153 0.48356 0.99963 0.0
C708 C 0.29309 0.81096 0.79344 0.0
C709 C 0.26621 0.78153 0.77673 0.0
H710 H 0.35684 0.85425 0.80337 0.0
C711 C 0.28293 0.77922 0.75489 0.0
H712 H 0.28093 0.81369 0.81032 0.0
C713 C 0.32647 0.8021 0.75097 0.0
C714 C 0.35383 0.82821 0.76867 0.0
H715 H 0.26289 0.75699 0.7416 0.0
H716 H 0.33896 0.79656 0.73494 0.0
C717 C 0.33655 0.83454 0.78932 0.0
C718 C 0.16762 0.58544 0.74218 0.0
C719 C 0.14194 0.58069 0.76163 0.0
H720 H 0.21172 0.56995 0.727 0.0
C721 C 0.13395 0.54919 0.77837 0.0
H722 H 0.17431 0.60954 0.72907 0.0
C723 C 0.15636 0.52754 0.77759 0.0
C724 C 0.18595 0.53612 0.75967 0.0
H725 H 0.11442 0.54489 0.79361 0.0
H726 H 0.15309 0.50671 0.79202 0.0
C727 C 0.18916 0.56289 0.74107 0.0
C728 C 0.41814 0.64153 0.761 0.0
C729 C 0.38661 0.62765 0.74365 0.0
H730 H 0.46277 0.69388 0.78177 0.0
C731 C 0.3827 0.65776 0.73024 0.0
H732 H 0.4214 0.61897 0.77189 0.0
C733 C 0.40707 0.70076 0.73561 0.0
C734 C 0.43469 0.71403 0.75494 0.0
H735 H 0.35827 0.6478 0.71699 0.0
H736 H 0.40118 0.72303 0.72612 0.0
C737 C 0.44151 0.68437 0.76688 0.0
C738 C 0.49481 0.74759 0.95497 0.0
C739 C 0.47827 0.71041 0.96842 0.0
H740 H 0.49562 0.80581 0.94917 0.0
C741 C 0.45764 0.70798 0.9897 0.0
H742 H 0.51135 0.75055 0.93865 0.0
C743 C 0.44845 0.73954 0.99568 0.0
C744 C 0.46007 0.77402 0.98054 0.0
H745 H 0.44508 0.67994 1.00061 0.0
H746 H 0.42889 0.73491 0.01095 0.0
C747 C 0.48595 0.77936 0.96107 0.0
C748 C 0.19902 0.66558 0.97171 0.0
C749 C 0.20214 0.63587 0.98599 0.0
H750 H 0.22902 0.73011 0.9604 0.0
C751 C 0.23258 0.65006 0.00386 0.0
H752 H 0.17566 0.65541 0.95784 0.0
C753 C 0.2627 0.69285 0.00555 0.0
C754 C 0.26318 0.7218 0.98909 0.0
H755 H 0.23529 0.62775 0.01525 0.0
H756 H 0.28797 0.70241 0.01823 0.0
C757 C 0.22961 0.70834 0.97314 0.0
C758 C 0.264 0.47599 0.94142 0.0
C759 C 0.24961 0.48643 0.9618 0.0
H760 H 0.3173 0.48128 0.92296 0.0
C761 C 0.27633 0.50163 0.98151 0.0
H762 H 0.24393 0.4637 0.92607 0.0
C763 C 0.31852 0.51208 0.9797 0.0
C764 C 0.33439 0.50707 0.95822 0.0
H765 H 0.26591 0.50939 0.99762 0.0
H766 H 0.33949 0.52783 0.99435 0.0
C767 C 0.30608 0.48597 0.93969 0.0
C768 C 0.28738 0.46392 0.55264 0.0
C769 C 0.25373 0.44804 0.53661 0.0
H770 H 0.35399 0.49128 0.55678 0.0
C771 C 0.25897 0.43402 0.51449 0.0
H772 H 0.28407 0.47414 0.57 0.0
C773 C 0.29929 0.44471 0.50669 0.0
C774 C 0.33436 0.46845 0.5212 0.0
H775 H 0.23335 0.42064 0.50189 0.0
H776 H 0.30349 0.43927 0.48841 0.0
C777 C 0.3276 0.47384 0.54499 0.0
C778 C 0.43971 0.6948 0.53164 0.0
C779 C 0.41114 0.65106 0.53192 0.0
H780 H 0.44682 0.75683 0.53292 0.0
C781 C 0.36883 0.63623 0.53793 0.0
H782 H 0.47246 0.70691 0.52691 0.0
C783 C 0.35428 0.66444 0.54114 0.0
C784 C 0.38179 0.70804 0.53846 0.0
H785 H 0.34624 0.60263 0.53844 0.0
H786 H 0.32088 0.6519 0.5443 0.0
C787 C 0.42504 0.72328 0.53494 0.0
C788 C 0.25954 0.68063 0.58639 0.0
C789 C 0.24203 0.70262 0.57508 0.0
H790 H 0.2577 0.62136 0.5899 0.0
C791 C 0.20111 0.67924 0.56575 0.0
H792 H 0.29071 0.69761 0.59415 0.0
C793 C 0.1824 0.6355 0.56309 0.0
C794 C 0.20401 0.61465 0.57022 0.0
H795 H 0.18631 0.69515 0.55736 0.0
H796 H 0.15338 0.61893 0.55311 0.0
C797 C 0.24074 0.63679 0.5838 0.0
C798 C 0.14022 0.54146 0.36097 0.0
C799 C 0.14975 0.56946 0.34199 0.0
H800 H 0.15238 0.49614 0.37763 0.0
C801 C 0.17098 0.56561 0.32238 0.0
H802 H 0.12356 0.54345 0.37623 0.0
C803 C 0.18802 0.53893 0.32332 0.0
C804 C 0.18343 0.51528 0.34371 0.0
H805 H 0.17852 0.58653 0.30739 0.0
H806 H 0.20801 0.53982 0.30901 0.0
C807 C 0.15676 0.51433 0.36177 0.0
C808 C 0.42786 0.58518 0.33845 0.0
C809 C 0.38909 0.56453 0.32658 0.0
H810 H 0.48637 0.64268 0.34257 0.0
C811 C 0.38476 0.58173 0.30534 0.0
H812 H 0.43239 0.5723 0.35465 0.0
C813 C 0.41556 0.62243 0.29851 0.0
C814 C 0.45109 0.64608 0.31276 0.0
H815 H 0.35548 0.56613 0.29553 0.0
H816 H 0.40893 0.63717 0.28385 0.0
C817 C 0.45898 0.62556 0.33139 0.0
C818 C 0.32249 0.79351 0.3394 0.0
C819 C 0.29143 0.76239 0.32489 0.0
H820 H 0.38696 0.82409 0.35049 0.0
C821 C 0.30395 0.74554 0.30641 0.0
H822 H 0.31391 0.80741 0.35365 0.0
C823 C 0.34608 0.75564 0.30441 0.0
C824 C 0.37592 0.78227 0.32104 0.0
H825 H 0.2807 0.7217 0.29486 0.0
H826 H 0.35424 0.73925 0.29141 0.0
C827 C 0.36437 0.80308 0.33762 0.0
C828 C 0.04903 0.10676 0.28843 0.0
C829 C 0.04414 0.08531 0.3097 0.0
H830 H 0.06497 0.11155 0.252 0.0
C831 C 0.04562 0.04757 0.30963 0.0
H832 H 0.04809 0.13592 0.28802 0.0
C833 C 0.05669 0.03429 0.28914 0.0
C834 C 0.06519 0.05793 0.26836 0.0
H835 H 0.04205 0.03041 0.32581 0.0
H836 H 0.06119 0.00719 0.28993 0.0
C837 C 0.05872 0.09275 0.26782 0.0
C838 C 0.95348 0.10041 0.30559 0.0
C839 C 0.9502 0.08714 0.28216 0.0
H840 H 0.93218 0.08236 0.34102 0.0
C841 C 0.92616 0.0438 0.2769 0.0
H842 H 0.97208 0.13361 0.31007 0.0
C843 C 0.9023 0.01476 0.29441 0.0
C844 C 0.90336 0.02846 0.31754 0.0
H845 H 0.92308 0.03275 0.25894 0.0
H846 H 0.88142 0.98202 0.28965 0.0
C847 C 0.93082 0.07109 0.32326 0.0
C848 C 0.94576 0.89883 0.28941 0.0
C849 C 0.93355 0.85992 0.3004 0.0
H850 H 0.93741 0.93037 0.25983 0.0
C851 C 0.90102 0.82262 0.29048 0.0
H852 H 0.9706 0.9281 0.29679 0.0
C853 C 0.88183 0.82394 0.2696 0.0
C854 C 0.89494 0.86257 0.25812 0.0
H855 H 0.89065 0.79221 0.2987 0.0
H856 H 0.85748 0.79448 0.26214 0.0
C857 C 0.92667 0.90014 0.26835 0.0
C858 C 0.83616 0.88057 0.68853 0.0
C859 C 0.8795 0.89489 0.68634 0.0
H860 H 0.78828 0.88872 0.70516 0.0
C861 C 0.90849 0.93086 0.69894 0.0
H862 H 0.81311 0.85319 0.67883 0.0
C863 C 0.8942 0.95112 0.71415 0.0
C864 C 0.85074 0.93618 0.71671 0.0
H865 H 0.9421 0.94275 0.69747 0.0
H866 H 0.91712 0.97787 0.72431 0.0
C867 C 0.82194 0.90113 0.70346 0.0
C868 C 0.03219 0.95689 0.71198 0.0
C869 C 0.03971 0.96941 0.73561 0.0
H870 H 0.04938 0.97527 0.67607 0.0
C871 C 0.06882 0.01173 0.74111 0.0
H872 H 0.01 0.92439 0.70736 0.0
C873 C 0.09262 0.04022 0.72342 0.0
C874 C 0.08618 0.02749 0.69983 0.0
H875 H 0.07538 0.0221 0.75924 0.0
H876 H 0.11693 0.07184 0.72826 0.0
C877 C 0.05468 0.98602 0.69416 0.0
C878 C 0.9869 0.05603 0.69105 0.0
C879 C 0.00604 0.07105 0.66909 0.0
H880 H -0.00538 0.0602 0.7284 0.0
C881 C 0.04986 0.09866 0.66793 0.0
H882 H 0.95315 0.0349 0.69234 0.0
C883 C 0.07338 0.11444 0.68852 0.0
C884 C 0.05365 0.10172 0.71055 0.0
H885 H 0.06538 0.11075 0.65118 0.0
H886 H 0.10656 0.13791 0.68718 0.0
C887 C 0.01064 0.0708 0.71164 0.0
C888 C 0.7796 0.37139 0.5946 0.0
C889 C 0.82 0.37855 0.58869 0.0
H890 H 0.7432 0.38798 0.61735 0.0
C891 C 0.85469 0.40645 0.60245 0.0
H892 H 0.75231 0.35007 0.58425 0.0
C893 C 0.84962 0.42858 0.62086 0.0
C894 C 0.80967 0.42289 0.62621 0.0
H895 H 0.88619 0.41259 0.59841 0.0
H896 H 0.87726 0.45071 0.63072 0.0
C897 C 0.77441 0.39319 0.6134 0.0
C898 C 0.61212 0.3435 0.58047 0.0
C899 C 0.59735 0.36992 0.57198 0.0
H900 H 0.60886 0.30167 0.60803 0.0
C901 C 0.56825 0.37522 0.58549 0.0
H902 H 0.63452 0.33877 0.57038 0.0
C903 C 0.55333 0.35377 0.60674 0.0
C904 C 0.56737 0.32673 0.61509 0.0
H905 H 0.55622 0.39529 0.57943 0.0
H906 H 0.53051 0.35824 0.61658 0.0
C907 C 0.59737 0.32219 0.60194 0.0
C908 C 0.65005 0.22635 0.57688 0.0
C909 C 0.61203 0.18737 0.57803 0.0
H910 H 0.70925 0.26813 0.59364 0.0
C911 C 0.60234 0.16306 0.59859 0.0
H912 H 0.65832 0.24574 0.56119 0.0
C913 C 0.63145 0.1756 0.61685 0.0
C914 C 0.67076 0.21287 0.61503 0.0
H915 H 0.57323 0.13308 0.60008 0.0
H916 H 0.62375 0.15513 0.63205 0.0
C917 C 0.67925 0.23912 0.59535 0.0
C918 C 0.52989 0.20676 0.11448 0.0
C919 C 0.49417 0.17873 0.10138 0.0
H920 H 0.55387 0.23704 0.14762 0.0
C921 C 0.4541 0.16096 0.11183 0.0
H922 H 0.56116 0.22107 0.10684 0.0
C923 C 0.44988 0.17027 0.13516 0.0
C924 C 0.48572 0.19745 0.14843 0.0
H925 H 0.426 0.1394 0.1021 0.0
H926 H 0.41869 0.1555 0.14293 0.0
C927 C 0.52568 0.21597 0.1378 0.0
C928 C 0.84533 0.33658 0.10789 0.0
C929 C 0.81636 0.34032 0.09338 0.0
H930 H 0.86291 0.33092 0.14295 0.0
C931 C 0.78158 0.34064 0.10363 0.0
H932 H 0.87242 0.33623 0.10046 0.0
C933 C 0.77584 0.33708 0.12802 0.0
C934 C 0.80509 0.3337 0.1425 0.0
H935 H 0.75867 0.34331 0.09281 0.0
H936 H 0.74882 0.33744 0.13554 0.0
C937 C 0.83988 0.33354 0.13221 0.0
C938 C 0.62925 0.50411 0.09539 0.0
C939 C 0.64767 0.48619 0.10956 0.0
H940 H 0.61149 0.5116 0.06064 0.0
C941 C 0.66065 0.45968 0.09922 0.0
H942 H 0.61886 0.5246 0.1029 0.0
C943 C 0.65637 0.45219 0.07502 0.0
C944 C 0.6391 0.47115 0.06075 0.0
H945 H 0.67488 0.44539 0.10974 0.0
H946 H 0.66741 0.4323 0.06742 0.0
C947 C 0.62503 0.49668 0.0712 0.0
C948 C 0.38811 0.78487 0.88868 0.0
C949 C 0.39913 0.82291 0.90038 0.0
H950 H 0.39255 0.75565 0.85692 0.0
C951 C 0.42254 0.86132 0.88832 0.0
H952 H 0.37023 0.75476 0.8976 0.0
C953 C 0.43537 0.86179 0.86516 0.0
C954 C 0.42519 0.82388 0.85359 0.0
H955 H 0.43158 0.89112 0.89689 0.0
H956 H 0.4537 0.89201 0.8564 0.0
C957 C 0.40108 0.78535 0.86547 0.0
C958 C 0.19146 0.60055 0.88272 0.0
C959 C 0.15353 0.56907 0.89278 0.0
H960 H 0.22056 0.64902 0.85648 0.0
C961 C 0.11505 0.56193 0.88335 0.0
H962 H 0.22163 0.60694 0.88969 0.0
C963 C 0.11446 0.58628 0.86456 0.0
C964 C 0.15234 0.61825 0.85474 0.0
H965 H 0.0853 0.53807 0.8908 0.0
H966 H 0.08425 0.58013 0.85779 0.0
C967 C 0.19087 0.62486 0.86383 0.0
C968 C 0.40044 0.58125 0.83101 0.0
C969 C 0.35906 0.57426 0.83006 0.0
H970 H 0.45512 0.59909 0.85214 0.0
C971 C 0.34277 0.58502 0.84951 0.0
H972 H 0.41408 0.57396 0.81609 0.0
C973 C 0.36641 0.5996 0.87017 0.0
C974 C 0.40675 0.60387 0.87161 0.0
H975 H 0.31113 0.58037 0.84912 0.0
H976 H 0.35223 0.60544 0.88538 0.0
C977 C 0.42413 0.59605 0.85157 0.0
C978 C 0.29451 0.54845 0.46976 0.0
C979 C 0.26378 0.56052 0.4724 0.0
H980 H 0.32823 0.53118 0.44558 0.0
C981 C 0.25056 0.57359 0.45256 0.0
H982 H 0.30526 0.53818 0.4848 0.0
C983 C 0.26451 0.57053 0.43017 0.0
C984 C 0.29102 0.55329 0.42727 0.0
H985 H 0.22711 0.58327 0.45417 0.0
H986 H 0.25135 0.57796 0.41506 0.0
C987 C 0.30765 0.54436 0.4473 0.0
C988 C 0.47912 0.70963 0.41554 0.0
C989 C 0.4497 0.69332 0.39717 0.0
H990 H 0.50003 0.69753 0.44809 0.0
C991 C 0.41705 0.6509 0.3981 0.0
H992 H 0.50466 0.74215 0.41525 0.0
C993 C 0.41461 0.625 0.41691 0.0
C994 C 0.44469 0.64128 0.43503 0.0
H995 H 0.39423 0.6374 0.38398 0.0
H996 H 0.38964 0.59226 0.41711 0.0
C997 C 0.47659 0.68394 0.43428 0.0
C998 C 0.27479 0.7221 0.45025 0.0
C999 C 0.26574 0.74685 0.46542 0.0
H1000 H 0.26196 0.68976 0.41731 0.0
C1001 C 0.23517 0.75736 0.45882 0.0
H1002 H 0.29801 0.71325 0.45496 0.0
C1003 C 0.21452 0.74391 0.4372 0.0
C1004 C 0.22395 0.71954 0.42193 0.0
H1005 H 0.22748 0.77627 0.47024 0.0
H1006 H 0.19147 0.75292 0.43236 0.0
C1007 C 0.25402 0.70848 0.42874 0.0
C1008 C 0.28854 0.0721 0.21878 0.0
C1009 C 0.26492 0.08332 0.23342 0.0
H1010 H 0.35001 0.08403 0.20915 0.0
C1011 C 0.28508 0.11165 0.25205 0.0
H1012 H 0.27361 0.05011 0.2044 0.0
C1013 C 0.32887 0.13175 0.25449 0.0
C1014 C 0.35289 0.12289 0.23872 0.0
H1015 H 0.26749 0.12077 0.26362 0.0
H1016 H 0.34413 0.156 0.26777 0.0
C1017 C 0.33219 0.09131 0.22163 0.0
C1018 C 0.8876 0.22859 0.21151 0.0
C1019 C 0.92347 0.24362 0.22575 0.0
H1020 H 0.83369 0.23269 0.20202 0.0
C1021 C 0.93286 0.27659 0.24172 0.0
H1022 H 0.87918 0.20288 0.19926 0.0
C1023 C 0.90673 0.29457 0.24305 0.0
C1024 C 0.87031 0.27854 0.22903 0.0
H1025 H 0.96029 0.28847 0.25301 0.0
H1026 H 0.91459 0.32036 0.25513 0.0
C1027 C 0.86116 0.2454 0.21334 0.0
C1028 C 0.77062 0.71649 0.15732 0.0
C1029 C 0.76096 0.73936 0.17349 0.0
H1030 H 0.76005 0.65599 0.14664 0.0
C1031 C 0.72831 0.71723 0.18989 0.0
H1032 H 0.79551 0.73258 0.14445 0.0
C1033 C 0.70785 0.67305 0.19116 0.0
C1034 C 0.72014 0.65063 0.1762 0.0
H1035 H 0.72025 0.73411 0.20261 0.0
H1036 H 0.68409 0.65673 0.20458 0.0
C1037 C 0.75059 0.67261 0.15875 0.0
C1038 C 0.20909 0.34157 0.39187 0.0
C1039 C 0.22466 0.36091 0.3699 0.0
H1040 H 0.16875 0.28406 0.41041 0.0
C1041 C 0.21436 0.33562 0.34973 0.0
H1042 H 0.21661 0.36034 0.40774 0.0
C1043 C 0.18708 0.29206 0.35127 0.0
C1044 C 0.16951 0.27303 0.37303 0.0
H1045 H 0.22602 0.34964 0.33258 0.0
H1046 H 0.17851 0.27357 0.33526 0.0
C1047 C 0.18166 0.29795 0.39341 0.0
C1048 C 0.62541 0.87106 0.31913 0.0
C1049 C 0.59493 0.86512 0.336 0.0
H1050 H 0.69124 0.89841 0.31148 0.0
C1051 C 0.60804 0.88667 0.35758 0.0
H1052 H 0.61618 0.85486 0.30238 0.0
C1053 C 0.65085 0.91087 0.36296 0.0
C1054 C 0.68129 0.91453 0.34672 0.0
H1055 H 0.58525 0.88279 0.37093 0.0
H1056 H 0.66004 0.92533 0.38018 0.0
C1057 C 0.66832 0.89586 0.3244 0.0
C1058 C 0.03476 0.74168 0.36979 0.0
C1059 C 0.04283 0.77473 0.35423 0.0
H1060 H 0.04971 0.69408 0.37957 0.0
C1061 C 0.06979 0.78249 0.33495 0.0
H1062 H 0.01374 0.73475 0.38464 0.0
C1063 C 0.09014 0.75921 0.33197 0.0
C1064 C 0.08381 0.72761 0.34818 0.0
H1065 H 0.07621 0.80745 0.32248 0.0
H1066 H 0.11213 0.76715 0.31751 0.0
C1067 C 0.05504 0.7182 0.36675 0.0
C1068 C 0.66095 0.93503 0.79902 0.0
C1069 C 0.68239 0.95022 0.77761 0.0
H1070 H 0.60147 0.90223 0.8165 0.0
C1071 C 0.65926 0.94799 0.75735 0.0
H1072 H 0.67784 0.93658 0.81497 0.0
C1073 C 0.61509 0.92837 0.75828 0.0
C1074 C 0.5937 0.91049 0.77942 0.0
H1075 H 0.67505 0.95955 0.74061 0.0
H1076 H 0.59767 0.92513 0.74228 0.0
C1077 C 0.61714 0.91524 0.79988 0.0
C1078 C 0.06865 0.75601 0.81739 0.0
C1079 C 0.07128 0.73697 0.79648 0.0
H1080 H 0.05149 0.79811 0.83352 0.0
C1081 C 0.05434 0.74316 0.77571 0.0
H1082 H 0.08121 0.75156 0.83371 0.0
C1083 C 0.03744 0.77007 0.77559 0.0
C1084 C 0.03702 0.79096 0.79626 0.0
H1085 H 0.05592 0.72884 0.75935 0.0
H1086 H 0.02624 0.77578 0.75912 0.0
C1087 C 0.05159 0.78264 0.81729 0.0
C1088 C 0.22995 0.36781 0.78994 0.0
C1089 C 0.24233 0.38955 0.76838 0.0
H1090 H 0.19754 0.30804 0.80742 0.0
C1091 C 0.23402 0.36633 0.74746 0.0
H1092 H 0.2362 0.38483 0.8064 0.0
C1093 C 0.21178 0.32205 0.74809 0.0
C1094 C 0.19759 0.30044 0.76963 0.0
H1095 H 0.24328 0.38229 0.73062 0.0
H1096 H 0.20435 0.3048 0.73166 0.0
C1097 C 0.20783 0.32377 0.79056 0.0
C1098 C 0.86917 0.65267 0.68472 0.0
C1099 C 0.8506 0.62126 0.66744 0.0
H1100 H 0.897 0.7185 0.69276 0.0
C1101 C 0.84641 0.63272 0.64441 0.0
H1102 H 0.87275 0.64465 0.7026 0.0
C1103 C 0.86026 0.67479 0.63878 0.0
C1104 C 0.87847 0.70617 0.65607 0.0
H1105 H 0.83225 0.60916 0.6307 0.0
H1106 H 0.85645 0.68265 0.62091 0.0
C1107 C 0.88297 0.69484 0.67909 0.0
C1108 C 0.36188 0.20061 0.68832 0.0
C1109 C 0.3891 0.19392 0.67389 0.0
H1110 H 0.2985 0.18722 0.69422 0.0
C1111 C 0.37261 0.16731 0.65423 0.0
H1112 H 0.37385 0.22114 0.70351 0.0
C1113 C 0.32991 0.14851 0.64875 0.0
C1114 C 0.30274 0.15563 0.66292 0.0
H1115 H 0.39285 0.16165 0.64272 0.0
H1116 H 0.31823 0.12843 0.63336 0.0
C1117 C 0.31891 0.18145 0.68292 0.0
C1118 C 0.83683 0.1775 0.62192 0.0
C1119 C 0.82372 0.1737 0.64552 0.0
H1120 H 0.86872 0.1611 0.59593 0.0
C1121 C 0.83223 0.14915 0.66106 0.0
H1122 H 0.83044 0.19612 0.60952 0.0
C1123 C 0.85407 0.12932 0.6533 0.0
C1124 C 0.86763 0.13342 0.6298 0.0
H1125 H 0.82238 0.14557 0.67929 0.0
H1126 H 0.8606 0.11096 0.66582 0.0
C1127 C 0.85852 0.15736 0.6141 0.0
C1128 C 0.04084 0.42806 0.50258 0.0
C1129 C 0.06043 0.42655 0.52352 0.0
H1130 H 0.98263 0.40856 0.48459 0.0
C1131 C 0.03564 0.39963 0.54175 0.0
H1132 H 0.05922 0.44834 0.48816 0.0
C1133 C -0.00825 0.37633 0.53953 0.0
C1134 C 0.97205 0.38006 0.51917 0.0
H1135 H 0.05 0.39763 0.55799 0.0
H1136 H 0.9732 0.35722 0.55425 0.0
C1137 C -0.00298 0.40521 0.50048 0.0
C1138 C 0.56143 0.50173 0.47036 0.0
C1139 C 0.58692 0.50705 0.48995 0.0
H1140 H 0.51495 0.51354 0.45518 0.0
C1141 C 0.58908 0.53381 0.5083 0.0
H1142 H 0.55936 0.48148 0.4559 0.0
C1143 C 0.56337 0.55197 0.50798 0.0
C1144 C 0.53531 0.54373 0.48926 0.0
H1145 H 0.60857 0.53853 0.52361 0.0
H1146 H 0.56383 0.57053 0.52295 0.0
C1147 C 0.53588 0.51996 0.47001 0.0
C1148 C 0.4609 0.97271 0.50263 0.0
C1149 C 0.45861 0.00124 0.5182 0.0
H1150 H 0.4374 0.90807 0.49344 0.0
C1151 C 0.42883 0.98555 0.53655 0.0
H1152 H 0.48361 0.98388 0.48837 0.0
C1153 C 0.40235 0.94201 0.53952 0.0
C1154 C 0.40534 0.9135 0.52423 0.0
H1155 H 0.42646 0.00688 0.54885 0.0
H1156 H 0.37992 0.93069 0.55391 0.0
C1157 C 0.43458 0.92929 0.50563 0.0
C1158 C 0.45028 0.99262 0.03079 0.0
C1159 C 0.43808 0.01914 0.01967 0.0
H1160 H 0.44616 0.93223 0.03124 0.0
C1161 C 0.40808 0.00292 0.00153 0.0
H1162 H 0.47314 0.00422 0.04495 0.0
C1163 C 0.39252 0.96148 0.9937 0.0
C1164 C 0.4069 0.93594 0.00387 0.0
H1165 H 0.39809 0.02272 0.99273 0.0
H1166 H 0.37074 0.95015 0.97902 0.0
C1167 C 0.43491 0.95142 0.02293 0.0
C1168 C 0.96528 0.37321 0.97936 0.0
C1169 C 0.95528 0.38207 0.0017 0.0
H1170 H 0.01382 0.38993 0.95345 0.0
C1171 C 0.98781 0.41037 0.01653 0.0
H1172 H 0.94065 0.35141 0.96765 0.0
C1173 C 0.02924 0.43207 0.00854 0.0
C1174 C 0.03896 0.42605 0.98552 0.0
H1175 H 0.98098 0.41731 0.03397 0.0
H1176 H 0.05332 0.45522 0.02003 0.0
C1177 C 0.00703 0.39522 0.97126 0.0
C1178 C 0.54325 0.53111 0.92969 0.0
C1179 C 0.54773 0.56654 0.94184 0.0
H1180 H 0.56359 0.48579 0.92635 0.0
C1181 C 0.58109 0.58745 0.95785 0.0
H1182 H 0.51813 0.51472 0.91702 0.0
C1183 C 0.60734 0.57103 0.96309 0.0
C1184 C 0.60045 0.53343 0.95243 0.0
H1185 H 0.58549 0.61513 0.96727 0.0
H1186 H 0.6311 0.58617 0.97662 0.0
C1187 C 0.56942 0.51467 0.93495 0.0
loop_
_geom_bond_atom_site_label_1
_geom_bond_atom_site_label_2
_geom_bond_distance
_geom_bond_site_symmetry_2
_ccdc_geom_bond_type
In0 O1 2.294 . S
In0 O2 2.326 . S
In0 O6 2.266 . S
In0 O7 2.326 . S
In0 O8 2.266 . S
In0 O9 2.326 . S
In0 O11 2.294 . S
In0 O12 2.326 . S
O1 In0 2.294 . S
O1 C10 1.240 . S
O2 In0 2.326 . S
O2 C10 1.252 . S
C3 O6 1.252 . S
C3 O7 1.260 . S
C4 O11 1.240 . S
C4 O12 1.252 . S
C5 O8 1.252 . S
C5 O9 1.260 . S
O6 In0 2.266 . S
O6 C3 1.252 . S
O7 In0 2.326 . S
O7 C3 1.260 . S
O8 In0 2.266 . S
O8 C5 1.252 . S
O9 In0 2.326 . S
O9 C5 1.260 . S
C10 O1 1.240 . S
C10 O2 1.252 . S
O11 In0 2.294 . S
O11 C4 1.240 . S
O12 In0 2.326 . S
O12 C4 1.252 . S
In13 O14 2.294 . S
In13 O15 2.326 . S
In13 O19 2.266 1_545 S
In13 O20 2.326 1_545 S
In13 O21 2.266 . S
In13 O22 2.326 . S
In13 O24 2.294 . S
In13 O25 2.326 1_545 S
O14 In13 2.294 . S
O14 C23 1.240 . S
O15 In13 2.326 . S
O15 C23 1.252 . S
C16 O19 1.252 . S
C16 O20 1.260 . S
C17 O24 1.240 . S
C17 O25 1.252 1_545 S
C18 O21 1.252 . S
C18 O22 1.260 . S
O19 In13 2.266 1_565 S
O19 C16 1.252 . S
O20 In13 2.326 1_565 S
O20 C16 1.260 . S
O21 In13 2.266 . S
O21 C18 1.252 . S
O22 In13 2.326 . S
O22 C18 1.260 . S
C23 O14 1.240 . S
C23 O15 1.252 . S
O24 In13 2.294 . S
O24 C17 1.240 . S
O25 In13 2.326 1_565 S
O25 C17 1.252 1_565 S
In26 O27 2.294 . S
In26 O28 2.326 1_655 S
In26 O32 2.266 . S
In26 O33 2.326 . S
In26 O34 2.266 1_655 S
In26 O35 2.326 1_655 S
In26 O37 2.294 . S
In26 O38 2.326 . S
O27 In26 2.294 . S
O27 C36 1.240 . S
O28 In26 2.326 1_455 S
O28 C36 1.252 1_455 S
C29 O32 1.252 . S
C29 O33 1.260 . S
C30 O37 1.240 . S
C30 O38 1.252 . S
C31 O34 1.252 . S
C31 O35 1.260 . S
O32 In26 2.266 . S
O32 C29 1.252 . S
O33 In26 2.326 . S
O33 C29 1.260 . S
O34 In26 2.266 1_455 S
O34 C31 1.252 . S
O35 In26 2.326 1_455 S
O35 C31 1.260 . S
C36 O27 1.240 . S
C36 O28 1.252 1_655 S
O37 In26 2.294 . S
O37 C30 1.240 . S
O38 In26 2.326 . S
O38 C30 1.252 . S
In39 O40 2.294 . S
In39 O41 2.326 . S
In39 O45 2.266 . S
In39 O46 2.326 . S
In39 O47 2.266 . S
In39 O48 2.326 . S
In39 O50 2.294 . S
In39 O51 2.326 . S
O40 In39 2.294 . S
O40 C49 1.240 . S
O41 In39 2.326 . S
O41 C49 1.252 . S
C42 O45 1.252 . S
C42 O46 1.260 . S
C43 O50 1.240 . S
C43 O51 1.252 . S
C44 O47 1.252 . S
C44 O48 1.260 . S
O45 In39 2.266 . S
O45 C42 1.252 . S
O46 In39 2.326 . S
O46 C42 1.260 . S
O47 In39 2.266 . S
O47 C44 1.252 . S
O48 In39 2.326 . S
O48 C44 1.260 . S
C49 O40 1.240 . S
C49 O41 1.252 . S
O50 In39 2.294 . S
O50 C43 1.240 . S
O51 In39 2.326 . S
O51 C43 1.252 . S
In52 O53 2.294 . S
In52 O54 2.326 1_565 S
In52 O58 2.266 . S
In52 O59 2.326 . S
In52 O60 2.266 1_565 S
In52 O61 2.326 1_565 S
In52 O63 2.294 . S
In52 O64 2.326 . S
O53 In52 2.294 . S
O53 C62 1.240 . S
O54 In52 2.326 1_545 S
O54 C62 1.252 1_545 S
C55 O58 1.252 . S
C55 O59 1.260 . S
C56 O63 1.240 . S
C56 O64 1.252 . S
C57 O60 1.252 . S
C57 O61 1.260 . S
O58 In52 2.266 . S
O58 C55 1.252 . S
O59 In52 2.326 . S
O59 C55 1.260 . S
O60 In52 2.266 1_545 S
O60 C57 1.252 . S
O61 In52 2.326 1_545 S
O61 C57 1.260 . S
C62 O53 1.240 . S
C62 O54 1.252 1_565 S
O63 In52 2.294 . S
O63 C56 1.240 . S
O64 In52 2.326 . S
O64 C56 1.252 . S
In65 O66 2.294 . S
In65 O67 2.326 1_455 S
In65 O71 2.266 . S
In65 O72 2.326 . S
In65 O73 2.266 1_455 S
In65 O74 2.326 1_455 S
In65 O76 2.294 . S
In65 O77 2.326 . S
O66 In65 2.294 . S
O66 C75 1.240 . S
O67 In65 2.326 1_655 S
O67 C75 1.252 1_655 S
C68 O71 1.252 . S
C68 O72 1.260 . S
C69 O76 1.240 . S
C69 O77 1.252 . S
C70 O73 1.252 . S
C70 O74 1.260 . S
O71 In65 2.266 . S
O71 C68 1.252 . S
O72 In65 2.326 . S
O72 C68 1.260 . S
O73 In65 2.266 1_655 S
O73 C70 1.252 . S
O74 In65 2.326 1_655 S
O74 C70 1.260 . S
C75 O66 1.240 . S
C75 O67 1.252 1_455 S
O76 In65 2.294 . S
O76 C69 1.240 . S
O77 In65 2.326 . S
O77 C69 1.252 . S
In78 O79 2.294 . S
In78 O80 2.326 . S
In78 O84 2.266 . S
In78 O85 2.326 . S
In78 O86 2.266 . S
In78 O87 2.326 . S
In78 O89 2.294 . S
In78 O90 2.326 . S
O79 In78 2.294 . S
O79 C88 1.240 . S
O80 In78 2.326 . S
O80 C88 1.252 . S
C81 O84 1.252 . S
C81 O85 1.260 . S
C82 O89 1.240 . S
C82 O90 1.252 . S
C83 O86 1.252 . S
C83 O87 1.260 . S
O84 In78 2.266 . S
O84 C81 1.252 . S
O85 In78 2.326 . S
O85 C81 1.260 . S
O86 In78 2.266 . S
O86 C83 1.252 . S
O87 In78 2.326 . S
O87 C83 1.260 . S
C88 O79 1.240 . S
C88 O80 1.252 . S
O89 In78 2.294 . S
O89 C82 1.240 . S
O90 In78 2.326 . S
O90 C82 1.252 . S
In91 O92 2.294 . S
In91 O93 2.326 1_565 S
In91 O97 2.266 . S
In91 O98 2.326 . S
In91 O99 2.266 1_565 S
In91 O100 2.326 1_565 S
In91 O102 2.294 . S
In91 O103 2.326 . S
O92 In91 2.294 . S
O92 C101 1.240 . S
O93 In91 2.326 1_545 S
O93 C101 1.252 1_545 S
C94 O97 1.252 . S
C94 O98 1.260 . S
C95 O102 1.240 . S
C95 O103 1.252 . S
C96 O99 1.252 . S
C96 O100 1.260 . S
O97 In91 2.266 . S
O97 C94 1.252 . S
O98 In91 2.326 . S
O98 C94 1.260 . S
O99 In91 2.266 1_545 S
O99 C96 1.252 . S
O100 In91 2.326 1_545 S
O100 C96 1.260 . S
C101 O92 1.240 . S
C101 O93 1.252 1_565 S
O102 In91 2.294 . S
O102 C95 1.240 . S
O103 In91 2.326 . S
O103 C95 1.252 . S
In104 O105 2.294 . S
In104 O106 2.326 1_455 S
In104 O110 2.266 . S
In104 O111 2.326 . S
In104 O112 2.266 1_455 S
In104 O113 2.326 1_455 S
In104 O115 2.294 . S
In104 O116 2.326 . S
O105 In104 2.294 . S
O105 C114 1.240 . S
O106 In104 2.326 1_655 S
O106 C114 1.252 1_655 S
C107 O110 1.252 . S
C107 O111 1.260 . S
C108 O115 1.240 . S
C108 O116 1.252 . S
C109 O112 1.252 . S
C109 O113 1.260 . S
O110 In104 2.266 . S
O110 C107 1.252 . S
O111 In104 2.326 . S
O111 C107 1.260 . S
O112 In104 2.266 1_655 S
O112 C109 1.252 . S
O113 In104 2.326 1_655 S
O113 C109 1.260 . S
C114 O105 1.240 . S
C114 O106 1.252 1_455 S
O115 In104 2.294 . S
O115 C108 1.240 . S
O116 In104 2.326 . S
O116 C108 1.252 . S
In117 O118 2.294 . S
In117 O119 2.326 . S
In117 O123 2.266 . S
In117 O124 2.326 . S
In117 O125 2.266 . S
In117 O126 2.326 . S
In117 O128 2.294 . S
In117 O129 2.326 . S
O118 In117 2.294 . S
O118 C127 1.240 . S
O119 In117 2.326 . S
O119 C127 1.252 . S
C120 O123 1.252 . S
C120 O124 1.260 . S
C121 O128 1.240 . S
C121 O129 1.252 . S
C122 O125 1.252 . S
C122 O126 1.260 . S
O123 In117 2.266 . S
O123 C120 1.252 . S
O124 In117 2.326 . S
O124 C120 1.260 . S
O125 In117 2.266 . S
O125 C122 1.252 . S
O126 In117 2.326 . S
O126 C122 1.260 . S
C127 O118 1.240 . S
C127 O119 1.252 . S
O128 In117 2.294 . S
O128 C121 1.240 . S
O129 In117 2.326 . S
O129 C121 1.252 . S
In130 O131 2.294 . S
In130 O132 2.326 1_545 S
In130 O136 2.266 . S
In130 O137 2.326 . S
In130 O138 2.266 1_545 S
In130 O139 2.326 1_545 S
In130 O141 2.294 . S
In130 O142 2.326 . S
O131 In130 2.294 . S
O131 C140 1.240 . S
O132 In130 2.326 1_565 S
O132 C140 1.252 1_565 S
C133 O136 1.252 . S
C133 O137 1.260 . S
C134 O141 1.240 . S
C134 O142 1.252 . S
C135 O138 1.252 . S
C135 O139 1.260 . S
O136 In130 2.266 . S
O136 C133 1.252 . S
O137 In130 2.326 . S
O137 C133 1.260 . S
O138 In130 2.266 1_565 S
O138 C135 1.252 . S
O139 In130 2.326 1_565 S
O139 C135 1.260 . S
C140 O131 1.240 . S
C140 O132 1.252 1_545 S
O141 In130 2.294 . S
O141 C134 1.240 . S
O142 In130 2.326 . S
O142 C134 1.252 . S
In143 O144 2.294 . S
In143 O145 2.326 1_655 S
In143 O149 2.266 . S
In143 O150 2.326 . S
In143 O151 2.266 1_655 S
In143 O152 2.326 1_655 S
In143 O154 2.294 . S
In143 O155 2.326 . S
O144 In143 2.294 . S
O144 C153 1.240 . S
O145 In143 2.326 1_455 S
O145 C153 1.252 1_455 S
C146 O149 1.252 . S
C146 O150 1.260 . S
C147 O154 1.240 . S
C147 O155 1.252 . S
C148 O151 1.252 . S
C148 O152 1.260 . S
O149 In143 2.266 . S
O149 C146 1.252 . S
O150 In143 2.326 . S
O150 C146 1.260 . S
O151 In143 2.266 1_455 S
O151 C148 1.252 . S
O152 In143 2.326 1_455 S
O152 C148 1.260 . S
C153 O144 1.240 . S
C153 O145 1.252 1_655 S
O154 In143 2.294 . S
O154 C147 1.240 . S
O155 In143 2.326 . S
O155 C147 1.252 . S
In156 O157 2.294 . S
In156 O158 2.326 . S
In156 O162 2.266 . S
In156 O163 2.326 . S
In156 O164 2.266 . S
In156 O165 2.326 . S
In156 O167 2.294 . S
In156 O168 2.326 . S
O157 In156 2.294 . S
O157 C166 1.240 . S
O158 In156 2.326 . S
O158 C166 1.252 . S
C159 O162 1.252 . S
C159 O163 1.260 . S
C160 O167 1.240 . S
C160 O168 1.252 . S
C161 O164 1.252 . S
C161 O165 1.260 . S
O162 In156 2.266 . S
O162 C159 1.252 . S
O163 In156 2.326 . S
O163 C159 1.260 . S
O164 In156 2.266 . S
O164 C161 1.252 . S
O165 In156 2.326 . S
O165 C161 1.260 . S
C166 O157 1.240 . S
C166 O158 1.252 . S
O167 In156 2.294 . S
O167 C160 1.240 . S
O168 In156 2.326 . S
O168 C160 1.252 . S
In169 O170 2.294 . S
In169 O171 2.326 . S
In169 O175 2.266 . S
In169 O176 2.326 . S
In169 O177 2.266 . S
In169 O178 2.326 . S
In169 O180 2.294 . S
In169 O181 2.326 . S
O170 In169 2.294 . S
O170 C179 1.240 . S
O171 In169 2.326 . S
O171 C179 1.252 . S
C172 O175 1.252 . S
C172 O176 1.260 . S
C173 O180 1.240 . S
C173 O181 1.252 . S
C174 O177 1.252 . S
C174 O178 1.260 . S
O175 In169 2.266 . S
O175 C172 1.252 . S
O176 In169 2.326 . S
O176 C172 1.260 . S
O177 In169 2.266 . S
O177 C174 1.252 . S
O178 In169 2.326 . S
O178 C174 1.260 . S
C179 O170 1.240 . S
C179 O171 1.252 . S
O180 In169 2.294 . S
O180 C173 1.240 . S
O181 In169 2.326 . S
O181 C173 1.252 . S
In182 O183 2.294 . S
In182 O184 2.326 . S
In182 O188 2.266 . S
In182 O189 2.326 . S
In182 O190 2.266 . S
In182 O191 2.326 . S
In182 O193 2.294 . S
In182 O194 2.326 . S
O183 In182 2.294 . S
O183 C192 1.240 . S
O184 In182 2.326 . S
O184 C192 1.252 . S
C185 O188 1.252 . S
C185 O189 1.260 . S
C186 O193 1.240 . S
C186 O194 1.252 . S
C187 O190 1.252 . S
C187 O191 1.260 . S
O188 In182 2.266 . S
O188 C185 1.252 . S
O189 In182 2.326 . S
O189 C185 1.260 . S
O190 In182 2.266 . S
O190 C187 1.252 . S
O191 In182 2.326 . S
O191 C187 1.260 . S
C192 O183 1.240 . S
C192 O184 1.252 . S
O193 In182 2.294 . S
O193 C186 1.240 . S
O194 In182 2.326 . S
O194 C186 1.252 . S
In195 O196 2.294 . S
In195 O197 2.326 . S
In195 O201 2.266 . S
In195 O202 2.326 . S
In195 O203 2.266 . S
In195 O204 2.326 . S
In195 O206 2.294 . S
In195 O207 2.326 . S
O196 In195 2.294 . S
O196 C205 1.240 . S
O197 In195 2.326 . S
O197 C205 1.252 . S
C198 O201 1.252 . S
C198 O202 1.260 . S
C199 O206 1.240 . S
C199 O207 1.252 . S
C200 O203 1.252 . S
C200 O204 1.260 . S
O201 In195 2.266 . S
O201 C198 1.252 . S
O202 In195 2.326 . S
O202 C198 1.260 . S
O203 In195 2.266 . S
O203 C200 1.252 . S
O204 In195 2.326 . S
O204 C200 1.260 . S
C205 O196 1.240 . S
C205 O197 1.252 . S
O206 In195 2.294 . S
O206 C199 1.240 . S
O207 In195 2.326 . S
O207 C199 1.252 . S
In208 O209 2.294 . S
In208 O210 2.326 . S
In208 O214 2.266 . S
In208 O215 2.326 . S
In208 O216 2.266 . S
In208 O217 2.326 . S
In208 O219 2.294 . S
In208 O220 2.326 . S
O209 In208 2.294 . S
O209 C218 1.240 . S
O210 In208 2.326 . S
O210 C218 1.252 . S
C211 O214 1.252 . S
C211 O215 1.260 . S
C212 O219 1.240 . S
C212 O220 1.252 . S
C213 O216 1.252 . S
C213 O217 1.260 . S
O214 In208 2.266 . S
O214 C211 1.252 . S
O215 In208 2.326 . S
O215 C211 1.260 . S
O216 In208 2.266 . S
O216 C213 1.252 . S
O217 In208 2.326 . S
O217 C213 1.260 . S
C218 O209 1.240 . S
C218 O210 1.252 . S
O219 In208 2.294 . S
O219 C212 1.240 . S
O220 In208 2.326 . S
O220 C212 1.252 . S
In221 O222 2.294 . S
In221 O223 2.326 . S
In221 O227 2.266 . S
In221 O228 2.326 . S
In221 O229 2.266 . S
In221 O230 2.326 . S
In221 O232 2.294 . S
In221 O233 2.326 . S
O222 In221 2.294 . S
O222 C231 1.240 . S
O223 In221 2.326 . S
O223 C231 1.252 . S
C224 O227 1.252 . S
C224 O228 1.260 . S
C225 O232 1.240 . S
C225 O233 1.252 . S
C226 O229 1.252 . S
C226 O230 1.260 . S
O227 In221 2.266 . S
O227 C224 1.252 . S
O228 In221 2.326 . S
O228 C224 1.260 . S
O229 In221 2.266 . S
O229 C226 1.252 . S
O230 In221 2.326 . S
O230 C226 1.260 . S
C231 O222 1.240 . S
C231 O223 1.252 . S
O232 In221 2.294 . S
O232 C225 1.240 . S
O233 In221 2.326 . S
O233 C225 1.252 . S
In234 O235 2.294 . S
In234 O236 2.326 . S
In234 O240 2.266 . S
In234 O241 2.326 . S
In234 O242 2.266 . S
In234 O243 2.326 . S
In234 O245 2.294 . S
In234 O246 2.326 . S
O235 In234 2.294 . S
O235 C244 1.240 . S
O236 In234 2.326 . S
O236 C244 1.252 . S
C237 O240 1.252 . S
C237 O241 1.260 . S
C238 O245 1.240 . S
C238 O246 1.252 . S
C239 O242 1.252 . S
C239 O243 1.260 . S
O240 In234 2.266 . S
O240 C237 1.252 . S
O241 In234 2.326 . S
O241 C237 1.260 . S
O242 In234 2.266 . S
O242 C239 1.252 . S
O243 In234 2.326 . S
O243 C239 1.260 . S
C244 O235 1.240 . S
C244 O236 1.252 . S
O245 In234 2.294 . S
O245 C238 1.240 . S
O246 In234 2.326 . S
O246 C238 1.252 . S
In247 O248 2.294 . S
In247 O249 2.326 . S
In247 O253 2.266 . S
In247 O254 2.326 . S
In247 O255 2.266 . S
In247 O256 2.326 . S
In247 O258 2.294 . S
In247 O259 2.326 . S
O248 In247 2.294 . S
O248 C257 1.240 . S
O249 In247 2.326 . S
O249 C257 1.252 . S
C250 O253 1.252 . S
C250 O254 1.260 . S
C251 O258 1.240 . S
C251 O259 1.252 . S
C252 O255 1.252 . S
C252 O256 1.260 . S
O253 In247 2.266 . S
O253 C250 1.252 . S
O254 In247 2.326 . S
O254 C250 1.260 . S
O255 In247 2.266 . S
O255 C252 1.252 . S
O256 In247 2.326 . S
O256 C252 1.260 . S
C257 O248 1.240 . S
C257 O249 1.252 . S
O258 In247 2.294 . S
O258 C251 1.240 . S
O259 In247 2.326 . S
O259 C251 1.252 . S
In260 O261 2.294 . S
In260 O262 2.326 . S
In260 O266 2.266 . S
In260 O267 2.326 . S
In260 O268 2.266 . S
In260 O269 2.326 . S
In260 O271 2.294 . S
In260 O272 2.326 . S
O261 In260 2.294 . S
O261 C270 1.240 . S
O262 In260 2.326 . S
O262 C270 1.252 . S
C263 O266 1.252 . S
C263 O267 1.260 . S
C264 O271 1.240 . S
C264 O272 1.252 . S
C265 O268 1.252 . S
C265 O269 1.260 . S
O266 In260 2.266 . S
O266 C263 1.252 . S
O267 In260 2.326 . S
O267 C263 1.260 . S
O268 In260 2.266 . S
O268 C265 1.252 . S
O269 In260 2.326 . S
O269 C265 1.260 . S
C270 O261 1.240 . S
C270 O262 1.252 . S
O271 In260 2.294 . S
O271 C264 1.240 . S
O272 In260 2.326 . S
O272 C264 1.252 . S
In273 O274 2.293 1_554 S
In273 O275 2.327 . S
In273 O279 2.265 1_554 S
In273 O280 2.326 . S
In273 O281 2.267 . S
In273 O282 2.324 1_554 S
In273 O284 2.296 . S
In273 O285 2.328 . S
O274 In273 2.293 1_556 S
O274 C283 1.240 . S
O275 In273 2.327 . S
O275 C283 1.252 1_554 S
C276 O279 1.252 . S
C276 O280 1.260 1_556 S
C277 O284 1.240 . S
C277 O285 1.252 . S
C278 O281 1.252 1_556 S
C278 O282 1.260 . S
O279 In273 2.265 1_556 S
O279 C276 1.252 . S
O280 In273 2.326 . S
O280 C276 1.260 1_554 S
O281 In273 2.267 . S
O281 C278 1.252 1_554 S
O282 In273 2.324 1_556 S
O282 C278 1.260 . S
C283 O274 1.240 . S
C283 O275 1.252 1_556 S
O284 In273 2.296 . S
O284 C277 1.240 . S
O285 In273 2.328 . S
O285 C277 1.252 . S
In286 O287 2.293 1_554 S
In286 O288 2.327 . S
In286 O292 2.265 1_554 S
In286 O293 2.326 . S
In286 O294 2.267 . S
In286 O295 2.324 1_554 S
In286 O297 2.296 . S
In286 O298 2.328 . S
O287 In286 2.293 1_556 S
O287 C296 1.240 . S
O288 In286 2.327 . S
O288 C296 1.252 1_554 S
C289 O292 1.252 . S
C289 O293 1.260 1_556 S
C290 O297 1.240 . S
C290 O298 1.252 . S
C291 O294 1.252 1_556 S
C291 O295 1.260 . S
O292 In286 2.265 1_556 S
O292 C289 1.252 . S
O293 In286 2.326 . S
O293 C289 1.260 1_554 S
O294 In286 2.267 . S
O294 C291 1.252 1_554 S
O295 In286 2.324 1_556 S
O295 C291 1.260 . S
C296 O287 1.240 . S
C296 O288 1.252 1_556 S
O297 In286 2.296 . S
O297 C290 1.240 . S
O298 In286 2.328 . S
O298 C290 1.252 . S
In299 O300 2.296 . S
In299 O301 2.328 . S
In299 O305 2.267 . S
In299 O306 2.324 1_554 S
In299 O307 2.265 1_554 S
In299 O308 2.326 . S
In299 O310 2.293 1_554 S
In299 O311 2.327 . S
O300 In299 2.296 . S
O300 C309 1.240 . S
O301 In299 2.328 . S
O301 C309 1.252 . S
C302 O305 1.252 1_556 S
C302 O306 1.260 . S
C303 O310 1.240 . S
C303 O311 1.252 1_556 S
C304 O307 1.252 . S
C304 O308 1.260 1_556 S
O305 In299 2.267 . S
O305 C302 1.252 1_554 S
O306 In299 2.324 1_556 S
O306 C302 1.260 . S
O307 In299 2.265 1_556 S
O307 C304 1.252 . S
O308 In299 2.326 . S
O308 C304 1.260 1_554 S
C309 O300 1.240 . S
C309 O301 1.252 . S
O310 In299 2.293 1_556 S
O310 C303 1.240 . S
O311 In299 2.327 . S
O311 C303 1.252 1_554 S
In312 O313 2.294 . S
In312 O314 2.326 . S
In312 O318 2.266 . S
In312 O319 2.326 . S
In312 O320 2.266 . S
In312 O321 2.326 . S
In312 O323 2.294 . S
In312 O324 2.326 . S
O313 In312 2.294 . S
O313 C322 1.240 . S
O314 In312 2.326 . S
O314 C322 1.252 . S
C315 O318 1.252 . S
C315 O319 1.260 . S
C316 O323 1.240 . S
C316 O324 1.252 . S
C317 O320 1.252 . S
C317 O321 1.260 . S
O318 In312 2.266 . S
O318 C315 1.252 . S
O319 In312 2.326 . S
O319 C315 1.260 . S
O320 In312 2.266 . S
O320 C317 1.252 . S
O321 In312 2.326 . S
O321 C317 1.260 . S
C322 O313 1.240 . S
C322 O314 1.252 . S
O323 In312 2.294 . S
O323 C316 1.240 . S
O324 In312 2.326 . S
O324 C316 1.252 . S
In325 O326 2.294 . S
In325 O327 2.326 . S
In325 O331 2.266 . S
In325 O332 2.326 . S
In325 O333 2.266 . S
In325 O334 2.326 . S
In325 O336 2.294 . S
In325 O337 2.326 . S
O326 In325 2.294 . S
O326 C335 1.240 . S
O327 In325 2.326 . S
O327 C335 1.252 . S
C328 O331 1.252 . S
C328 O332 1.260 . S
C329 O336 1.240 . S
C329 O337 1.252 . S
C330 O333 1.252 . S
C330 O334 1.260 . S
O331 In325 2.266 . S
O331 C328 1.252 . S
O332 In325 2.326 . S
O332 C328 1.260 . S
O333 In325 2.266 . S
O333 C330 1.252 . S
O334 In325 2.326 . S
O334 C330 1.260 . S
C335 O326 1.240 . S
C335 O327 1.252 . S
O336 In325 2.294 . S
O336 C329 1.240 . S
O337 In325 2.326 . S
O337 C329 1.252 . S
In338 O339 2.294 . S
In338 O340 2.326 . S
In338 O344 2.266 . S
In338 O345 2.326 . S
In338 O346 2.266 . S
In338 O347 2.326 . S
In338 O349 2.294 . S
In338 O350 2.326 . S
O339 In338 2.294 . S
O339 C348 1.240 . S
O340 In338 2.326 . S
O340 C348 1.252 . S
C341 O344 1.252 . S
C341 O345 1.260 . S
C342 O349 1.240 . S
C342 O350 1.252 . S
C343 O346 1.252 . S
C343 O347 1.260 . S
O344 In338 2.266 . S
O344 C341 1.252 . S
O345 In338 2.326 . S
O345 C341 1.260 . S
O346 In338 2.266 . S
O346 C343 1.252 . S
O347 In338 2.326 . S
O347 C343 1.260 . S
C348 O339 1.240 . S
C348 O340 1.252 . S
O349 In338 2.294 . S
O349 C342 1.240 . S
O350 In338 2.326 . S
O350 C342 1.252 . S
In351 O352 2.293 1_556 S
In351 O353 2.327 . S
In351 O357 2.265 1_556 S
In351 O358 2.326 . S
In351 O359 2.267 . S
In351 O360 2.324 1_556 S
In351 O362 2.296 . S
In351 O363 2.328 . S
O352 In351 2.293 1_554 S
O352 C361 1.240 . S
O353 In351 2.327 . S
O353 C361 1.252 1_556 S
C354 O357 1.252 . S
C354 O358 1.260 1_554 S
C355 O362 1.240 . S
C355 O363 1.252 . S
C356 O359 1.252 1_554 S
C356 O360 1.260 . S
O357 In351 2.265 1_554 S
O357 C354 1.252 . S
O358 In351 2.326 . S
O358 C354 1.260 1_556 S
O359 In351 2.267 . S
O359 C356 1.252 1_556 S
O360 In351 2.324 1_554 S
O360 C356 1.260 . S
C361 O352 1.240 . S
C361 O353 1.252 1_554 S
O362 In351 2.296 . S
O362 C355 1.240 . S
O363 In351 2.328 . S
O363 C355 1.252 . S
In364 O365 2.293 1_556 S
In364 O366 2.327 . S
In364 O370 2.265 1_556 S
In364 O371 2.326 . S
In364 O372 2.267 . S
In364 O373 2.324 1_556 S
In364 O375 2.296 . S
In364 O376 2.328 . S
O365 In364 2.293 1_554 S
O365 C374 1.240 . S
O366 In364 2.327 . S
O366 C374 1.252 1_556 S
C367 O370 1.252 . S
C367 O371 1.260 1_554 S
C368 O375 1.240 . S
C368 O376 1.252 . S
C369 O372 1.252 1_554 S
C369 O373 1.260 . S
O370 In364 2.265 1_554 S
O370 C367 1.252 . S
O371 In364 2.326 . S
O371 C367 1.260 1_556 S
O372 In364 2.267 . S
O372 C369 1.252 1_556 S
O373 In364 2.324 1_554 S
O373 C369 1.260 . S
C374 O365 1.240 . S
C374 O366 1.252 1_554 S
O375 In364 2.296 . S
O375 C368 1.240 . S
O376 In364 2.328 . S
O376 C368 1.252 . S
In377 O378 2.293 1_556 S
In377 O379 2.327 . S
In377 O383 2.265 1_556 S
In377 O384 2.326 . S
In377 O385 2.267 . S
In377 O386 2.324 1_556 S
In377 O388 2.296 . S
In377 O389 2.328 . S
O378 In377 2.293 1_554 S
O378 C387 1.240 . S
O379 In377 2.327 . S
O379 C387 1.252 1_556 S
C380 O383 1.252 . S
C380 O384 1.260 1_554 S
C381 O388 1.240 . S
C381 O389 1.252 . S
C382 O385 1.252 1_554 S
C382 O386 1.260 . S
O383 In377 2.265 1_554 S
O383 C380 1.252 . S
O384 In377 2.326 . S
O384 C380 1.260 1_556 S
O385 In377 2.267 . S
O385 C382 1.252 1_556 S
O386 In377 2.324 1_554 S
O386 C382 1.260 . S
C387 O378 1.240 . S
C387 O379 1.252 1_554 S
O388 In377 2.296 . S
O388 C381 1.240 . S
O389 In377 2.328 . S
O389 C381 1.252 . S
In390 O391 2.294 . S
In390 O392 2.326 . S
In390 O396 2.266 . S
In390 O397 2.326 . S
In390 O398 2.266 . S
In390 O399 2.326 . S
In390 O401 2.294 . S
In390 O402 2.326 . S
O391 In390 2.294 . S
O391 C400 1.240 . S
O392 In390 2.326 . S
O392 C400 1.252 . S
C393 O396 1.252 . S
C393 O397 1.260 . S
C394 O401 1.240 . S
C394 O402 1.252 . S
C395 O398 1.252 . S
C395 O399 1.260 . S
O396 In390 2.266 . S
O396 C393 1.252 . S
O397 In390 2.326 . S
O397 C393 1.260 . S
O398 In390 2.266 . S
O398 C395 1.252 . S
O399 In390 2.326 . S
O399 C395 1.260 . S
C400 O391 1.240 . S
C400 O392 1.252 . S
O401 In390 2.294 . S
O401 C394 1.240 . S
O402 In390 2.326 . S
O402 C394 1.252 . S
In403 O404 2.294 . S
In403 O405 2.326 . S
In403 O409 2.266 . S
In403 O410 2.326 . S
In403 O411 2.266 . S
In403 O412 2.326 . S
In403 O414 2.294 . S
In403 O415 2.326 . S
O404 In403 2.294 . S
O404 C413 1.240 . S
O405 In403 2.326 . S
O405 C413 1.252 . S
C406 O409 1.252 . S
C406 O410 1.260 . S
C407 O414 1.240 . S
C407 O415 1.252 . S
C408 O411 1.252 . S
C408 O412 1.260 . S
O409 In403 2.266 . S
O409 C406 1.252 . S
O410 In403 2.326 . S
O410 C406 1.260 . S
O411 In403 2.266 . S
O411 C408 1.252 . S
O412 In403 2.326 . S
O412 C408 1.260 . S
C413 O404 1.240 . S
C413 O405 1.252 . S
O414 In403 2.294 . S
O414 C407 1.240 . S
O415 In403 2.326 . S
O415 C407 1.252 . S
In416 O417 2.294 . S
In416 O418 2.326 . S
In416 O422 2.266 . S
In416 O423 2.326 . S
In416 O424 2.266 . S
In416 O425 2.326 . S
In416 O427 2.294 . S
In416 O428 2.326 . S
O417 In416 2.294 . S
O417 C426 1.240 . S
O418 In416 2.326 . S
O418 C426 1.252 . S
C419 O422 1.252 . S
C419 O423 1.260 . S
C420 O427 1.240 . S
C420 O428 1.252 . S
C421 O424 1.252 . S
C421 O425 1.260 . S
O422 In416 2.266 . S
O422 C419 1.252 . S
O423 In416 2.326 . S
O423 C419 1.260 . S
O424 In416 2.266 . S
O424 C421 1.252 . S
O425 In416 2.326 . S
O425 C421 1.260 . S
C426 O417 1.240 . S
C426 O418 1.252 . S
O427 In416 2.294 . S
O427 C420 1.240 . S
O428 In416 2.326 . S
O428 C420 1.252 . S
In429 O430 2.294 . S
In429 O431 2.326 . S
In429 O435 2.266 . S
In429 O436 2.326 . S
In429 O437 2.266 . S
In429 O438 2.326 . S
In429 O440 2.294 . S
In429 O441 2.326 . S
O430 In429 2.294 . S
O430 C439 1.240 . S
O431 In429 2.326 . S
O431 C439 1.252 . S
C432 O435 1.252 . S
C432 O436 1.260 . S
C433 O440 1.240 . S
C433 O441 1.252 . S
C434 O437 1.252 . S
C434 O438 1.260 . S
O435 In429 2.266 . S
O435 C432 1.252 . S
O436 In429 2.326 . S
O436 C432 1.260 . S
O437 In429 2.266 . S
O437 C434 1.252 . S
O438 In429 2.326 . S
O438 C434 1.260 . S
C439 O430 1.240 . S
C439 O431 1.252 . S
O440 In429 2.294 . S
O440 C433 1.240 . S
O441 In429 2.326 . S
O441 C433 1.252 . S
In442 O443 2.294 . S
In442 O444 2.326 . S
In442 O448 2.266 . S
In442 O449 2.326 . S
In442 O450 2.266 . S
In442 O451 2.326 . S
In442 O453 2.294 . S
In442 O454 2.326 . S
O443 In442 2.294 . S
O443 C452 1.240 . S
O444 In442 2.326 . S
O444 C452 1.252 . S
C445 O448 1.252 . S
C445 O449 1.260 . S
C446 O453 1.240 . S
C446 O454 1.252 . S
C447 O450 1.252 . S
C447 O451 1.260 . S
O448 In442 2.266 . S
O448 C445 1.252 . S
O449 In442 2.326 . S
O449 C445 1.260 . S
O450 In442 2.266 . S
O450 C447 1.252 . S
O451 In442 2.326 . S
O451 C447 1.260 . S
C452 O443 1.240 . S
C452 O444 1.252 . S
O453 In442 2.294 . S
O453 C446 1.240 . S
O454 In442 2.326 . S
O454 C446 1.252 . S
In455 O456 2.294 . S
In455 O457 2.326 . S
In455 O461 2.266 . S
In455 O462 2.326 . S
In455 O463 2.266 . S
In455 O464 2.326 . S
In455 O466 2.294 . S
In455 O467 2.326 . S
O456 In455 2.294 . S
O456 C465 1.240 . S
O457 In455 2.326 . S
O457 C465 1.252 . S
C458 O461 1.252 . S
C458 O462 1.260 . S
C459 O466 1.240 . S
C459 O467 1.252 . S
C460 O463 1.252 . S
C460 O464 1.260 . S
O461 In455 2.266 . S
O461 C458 1.252 . S
O462 In455 2.326 . S
O462 C458 1.260 . S
O463 In455 2.266 . S
O463 C460 1.252 . S
O464 In455 2.326 . S
O464 C460 1.260 . S
C465 O456 1.240 . S
C465 O457 1.252 . S
O466 In455 2.294 . S
O466 C459 1.240 . S
O467 In455 2.326 . S
O467 C459 1.252 . S
C468 C469 1.387 . S
C468 H472 0.950 . S
C468 C477 1.390 . S
C469 C468 1.387 . S
C469 C471 1.387 . S
H470 C477 0.950 1_655 S
C471 C469 1.387 . S
C471 C473 1.390 . S
C471 H475 0.950 . S
H472 C468 0.950 . S
C473 C471 1.390 . S
C473 C474 1.387 1_455 S
C473 H476 0.950 1_455 S
C474 C473 1.387 1_655 S
C474 C477 1.387 1_655 S
H475 C471 0.950 . S
H476 C473 0.950 1_655 S
C477 C468 1.390 . S
C477 H470 0.950 1_455 S
C477 C474 1.387 1_455 S
C478 C479 1.387 . S
C478 H482 0.950 . S
C478 C487 1.390 . S
C479 C478 1.387 . S
C479 C481 1.387 . S
H480 C487 0.950 . S
C481 C479 1.387 . S
C481 C483 1.390 . S
C481 H485 0.950 . S
H482 C478 0.950 . S
C483 C481 1.390 . S
C483 C484 1.387 . S
C483 H486 0.950 . S
C484 C483 1.387 . S
C484 C487 1.387 . S
H485 C481 0.950 . S
H486 C483 0.950 . S
C487 C478 1.390 . S
C487 H480 0.950 . S
C487 C484 1.387 . S
C488 C489 1.373 1_565 S
C488 H492 0.936 1_565 S
C488 C497 1.419 . S
C489 C488 1.373 1_545 S
C489 C491 1.387 1_545 S
H490 C497 0.950 . S
C491 C489 1.387 1_565 S
C491 C493 1.390 . S
C491 H495 0.950 1_565 S
H492 C488 0.936 1_545 S
C493 C491 1.390 . S
C493 C494 1.387 . S
C493 H496 0.950 . S
C494 C493 1.387 . S
C494 C497 1.387 . S
H495 C491 0.950 1_545 S
H496 C493 0.950 . S
C497 C488 1.419 . S
C497 H490 0.950 . S
C497 C494 1.387 . S
C498 C499 1.387 . S
C498 H502 0.950 . S
C498 C507 1.390 . S
C499 C498 1.387 . S
C499 C501 1.387 . S
H500 C507 0.950 1_565 S
C501 C499 1.387 . S
C501 C503 1.381 1_545 S
C501 H505 0.950 . S
H502 C498 0.950 . S
C503 C501 1.381 1_565 S
C503 C504 1.392 . S
C503 H506 0.954 . S
C504 C503 1.392 . S
C504 C507 1.387 1_565 S
H505 C501 0.950 . S
H506 C503 0.954 . S
C507 C498 1.390 . S
C507 H500 0.950 1_545 S
C507 C504 1.387 1_545 S
C508 C509 1.387 . S
C508 H512 0.950 . S
C508 C517 1.390 . S
C509 C508 1.387 . S
C509 C511 1.387 . S
H510 C517 0.950 1_455 S
C511 C509 1.387 . S
C511 C513 1.390 1_655 S
C511 H515 0.950 . S
H512 C508 0.950 . S
C513 C511 1.390 1_455 S
C513 C514 1.387 . S
C513 H516 0.950 . S
C514 C513 1.387 . S
C514 C517 1.387 1_455 S
H515 C511 0.950 . S
H516 C513 0.950 . S
C517 C508 1.390 . S
C517 H510 0.950 1_655 S
C517 C514 1.387 1_655 S
C518 C519 1.387 . S
C518 H522 0.950 . S
C518 C527 1.390 . S
C519 C518 1.387 . S
C519 C521 1.387 . S
H520 C527 0.950 . S
C521 C519 1.387 . S
C521 C523 1.390 . S
C521 H525 0.950 . S
H522 C518 0.950 . S
C523 C521 1.390 . S
C523 C524 1.387 . S
C523 H526 0.950 . S
C524 C523 1.387 . S
C524 C527 1.387 . S
H525 C521 0.950 . S
H526 C523 0.950 . S
C527 C518 1.390 . S
C527 H520 0.950 . S
C527 C524 1.387 . S
C528 C529 1.387 . S
C528 H532 0.950 . S
C528 C537 1.407 . S
C529 C528 1.387 . S
C529 C531 1.387 . S
H530 C537 0.938 1_455 S
C531 C529 1.387 . S
C531 C533 1.390 . S
C531 H535 0.950 . S
H532 C528 0.950 . S
C533 C531 1.390 . S
C533 C534 1.387 1_655 S
C533 H536 0.950 1_655 S
C534 C533 1.387 1_455 S
C534 C537 1.382 1_455 S
H535 C531 0.950 . S
H536 C533 0.950 1_455 S
C537 C528 1.407 . S
C537 H530 0.938 1_655 S
C537 C534 1.382 1_655 S
C538 C539 1.387 . S
C538 H542 0.950 . S
C538 C547 1.390 . S
C539 C538 1.387 . S
C539 C541 1.387 . S
H540 C547 0.950 . S
C541 C539 1.387 . S
C541 C543 1.390 . S
C541 H545 0.950 . S
H542 C538 0.950 . S
C543 C541 1.390 . S
C543 C544 1.387 . S
C543 H546 0.950 . S
C544 C543 1.387 . S
C544 C547 1.387 . S
H545 C541 0.950 . S
H546 C543 0.950 . S
C547 C538 1.390 . S
C547 H540 0.950 . S
C547 C544 1.387 . S
C548 C549 1.387 1_545 S
C548 H552 0.950 1_545 S
C548 C557 1.390 . S
C549 C548 1.387 1_565 S
C549 C551 1.387 1_565 S
H550 C557 0.950 . S
C551 C549 1.387 1_545 S
C551 C553 1.390 . S
C551 H555 0.950 1_545 S
H552 C548 0.950 1_565 S
C553 C551 1.390 . S
C553 C554 1.387 . S
C553 H556 0.950 . S
C554 C553 1.387 . S
C554 C557 1.387 . S
H555 C551 0.950 1_565 S
H556 C553 0.950 . S
C557 C548 1.390 . S
C557 H550 0.950 . S
C557 C554 1.387 . S
C558 C559 1.387 . S
C558 H562 0.950 . S
C558 C567 1.390 1_545 S
C559 C558 1.387 . S
C559 C561 1.387 1_545 S
H560 C567 0.950 . S
C561 C559 1.387 1_565 S
C561 C563 1.390 . S
C561 H565 0.950 1_565 S
H562 C558 0.950 . S
C563 C561 1.390 . S
C563 C564 1.387 . S
C563 H566 0.950 . S
C564 C563 1.387 . S
C564 C567 1.387 . S
H565 C561 0.950 1_545 S
H566 C563 0.950 . S
C567 C558 1.390 1_565 S
C567 H560 0.950 . S
C567 C564 1.387 . S
C568 C569 1.387 . S
C568 H572 0.950 . S
C568 C577 1.390 . S
C569 C568 1.387 . S
C569 C571 1.387 . S
H570 C577 0.950 1_655 S
C571 C569 1.387 . S
C571 C573 1.374 1_455 S
C571 H575 0.950 . S
H572 C568 0.950 . S
C573 C571 1.374 1_655 S
C573 C574 1.395 . S
C573 H576 0.959 . S
C574 C573 1.395 . S
C574 C577 1.387 1_655 S
H575 C571 0.950 . S
H576 C573 0.959 . S
C577 C568 1.390 . S
C577 H570 0.950 1_455 S
C577 C574 1.387 1_455 S
C578 C579 1.387 . S
C578 H582 0.950 . S
C578 C587 1.390 . S
C579 C578 1.387 . S
C579 C581 1.387 . S
H580 C587 0.950 . S
C581 C579 1.387 . S
C581 C583 1.390 . S
C581 H585 0.950 . S
H582 C578 0.950 . S
C583 C581 1.390 . S
C583 C584 1.387 . S
C583 H586 0.950 . S
C584 C583 1.387 . S
C584 C587 1.387 . S
H585 C581 0.950 . S
H586 C583 0.950 . S
C587 C578 1.390 . S
C587 H580 0.950 . S
C587 C584 1.387 . S
C588 C589 1.387 . S
C588 H592 0.950 . S
C588 C597 1.390 . S
C589 C588 1.387 . S
C589 C591 1.387 . S
H590 C597 0.950 . S
C591 C589 1.387 . S
C591 C593 1.390 . S
C591 H595 0.950 . S
H592 C588 0.950 . S
C593 C591 1.390 . S
C593 C594 1.387 . S
C593 H596 0.950 . S
C594 C593 1.387 . S
C594 C597 1.387 . S
H595 C591 0.950 . S
H596 C593 0.950 . S
C597 C588 1.390 . S
C597 H590 0.950 . S
C597 C594 1.387 . S
C598 C599 1.387 . S
C598 H602 0.950 . S
C598 C607 1.390 . S
C599 C598 1.387 . S
C599 C601 1.387 . S
H600 C607 0.950 . S
C601 C599 1.387 . S
C601 C603 1.390 . S
C601 H605 0.950 . S
H602 C598 0.950 . S
C603 C601 1.390 . S
C603 C604 1.387 . S
C603 H606 0.950 . S
C604 C603 1.387 . S
C604 C607 1.387 . S
H605 C601 0.950 . S
H606 C603 0.950 . S
C607 C598 1.390 . S
C607 H600 0.950 . S
C607 C604 1.387 . S
C608 C609 1.387 . S
C608 H612 0.950 . S
C608 C617 1.390 . S
C609 C608 1.387 . S
C609 C611 1.387 . S
H610 C617 0.950 . S
C611 C609 1.387 . S
C611 C613 1.390 . S
C611 H615 0.950 . S
H612 C608 0.950 . S
C613 C611 1.390 . S
C613 C614 1.387 . S
C613 H616 0.950 . S
C614 C613 1.387 . S
C614 C617 1.387 . S
H615 C611 0.950 . S
H616 C613 0.950 . S
C617 C608 1.390 . S
C617 H610 0.950 . S
C617 C614 1.387 . S
C618 C619 1.387 . S
C618 H622 0.950 . S
C618 C627 1.390 . S
C619 C618 1.387 . S
C619 C621 1.387 . S
H620 C627 0.950 . S
C621 C619 1.387 . S
C621 C623 1.390 . S
C621 H625 0.950 . S
H622 C618 0.950 . S
C623 C621 1.390 . S
C623 C624 1.387 . S
C623 H626 0.950 . S
C624 C623 1.387 . S
C624 C627 1.387 . S
H625 C621 0.950 . S
H626 C623 0.950 . S
C627 C618 1.390 . S
C627 H620 0.950 . S
C627 C624 1.387 . S
C628 C629 1.387 . S
C628 H632 0.950 . S
C628 C637 1.390 . S
C629 C628 1.387 . S
C629 C631 1.387 . S
H630 C637 0.950 . S
C631 C629 1.387 . S
C631 C633 1.390 . S
C631 H635 0.950 . S
H632 C628 0.950 . S
C633 C631 1.390 . S
C633 C634 1.387 . S
C633 H636 0.950 . S
C634 C633 1.387 . S
C634 C637 1.387 . S
H635 C631 0.950 . S
H636 C633 0.950 . S
C637 C628 1.390 . S
C637 H630 0.950 . S
C637 C634 1.387 . S
C638 C639 1.387 . S
C638 H642 0.950 . S
C638 C647 1.390 . S
C639 C638 1.387 . S
C639 C641 1.387 . S
H640 C647 0.950 . S
C641 C639 1.387 . S
C641 C643 1.390 . S
C641 H645 0.950 . S
H642 C638 0.950 . S
C643 C641 1.390 . S
C643 C644 1.387 . S
C643 H646 0.950 . S
C644 C643 1.387 . S
C644 C647 1.387 . S
H645 C641 0.950 . S
H646 C643 0.950 . S
C647 C638 1.390 . S
C647 H640 0.950 . S
C647 C644 1.387 . S
C648 C649 1.387 . S
C648 H652 0.950 . S
C648 C657 1.390 . S
C649 C648 1.387 . S
C649 C651 1.387 . S
H650 C657 0.950 . S
C651 C649 1.387 . S
C651 C653 1.390 . S
C651 H655 0.950 . S
H652 C648 0.950 . S
C653 C651 1.390 . S
C653 C654 1.387 . S
C653 H656 0.950 . S
C654 C653 1.387 . S
C654 C657 1.387 . S
H655 C651 0.950 . S
H656 C653 0.950 . S
C657 C648 1.390 . S
C657 H650 0.950 . S
C657 C654 1.387 . S
C658 C659 1.387 . S
C658 H662 0.950 . S
C658 C667 1.390 . S
C659 C658 1.387 . S
C659 C661 1.387 . S
H660 C667 0.950 . S
C661 C659 1.387 . S
C661 C663 1.390 . S
C661 H665 0.950 . S
H662 C658 0.950 . S
C663 C661 1.390 . S
C663 C664 1.387 . S
C663 H666 0.950 . S
C664 C663 1.387 . S
C664 C667 1.387 . S
H665 C661 0.950 . S
H666 C663 0.950 . S
C667 C658 1.390 . S
C667 H660 0.950 . S
C667 C664 1.387 . S
C668 C669 1.387 . S
C668 H672 0.950 . S
C668 C677 1.390 . S
C669 C668 1.387 . S
C669 C671 1.387 . S
H670 C677 0.950 . S
C671 C669 1.387 . S
C671 C673 1.390 . S
C671 H675 0.950 . S
H672 C668 0.950 . S
C673 C671 1.390 . S
C673 C674 1.387 . S
C673 H676 0.950 . S
C674 C673 1.387 . S
C674 C677 1.387 . S
H675 C671 0.950 . S
H676 C673 0.950 . S
C677 C668 1.390 . S
C677 H670 0.950 . S
C677 C674 1.387 . S
C678 C679 1.347 1_554 S
C678 H682 0.992 . S
C678 C687 1.390 . S
C679 C678 1.347 1_556 S
C679 C681 1.387 . S
H680 C687 0.963 . S
C681 C679 1.387 . S
C681 C683 1.390 . S
C681 H685 0.950 . S
H682 C678 0.992 . S
C683 C681 1.390 . S
C683 C684 1.387 . S
C683 H686 0.950 . S
C684 C683 1.387 . S
C684 C687 1.374 1_556 S
H685 C681 0.950 . S
H686 C683 0.950 . S
C687 C678 1.390 . S
C687 H680 0.963 . S
C687 C684 1.374 1_554 S
C688 C689 1.387 . S
C688 H692 0.950 . S
C688 C697 1.390 . S
C689 C688 1.387 . S
C689 C691 1.362 1_556 S
H690 C697 0.950 . S
C691 C689 1.362 1_554 S
C691 C693 1.391 . S
C691 H695 0.974 . S
H692 C688 0.950 . S
C693 C691 1.391 . S
C693 C694 1.387 1_554 S
C693 H696 0.950 . S
C694 C693 1.387 1_556 S
C694 C697 1.387 . S
H695 C691 0.974 . S
H696 C693 0.950 . S
C697 C688 1.390 . S
C697 H690 0.950 . S
C697 C694 1.387 . S
C698 C699 1.387 1_554 S
C698 H702 0.950 . S
C698 C707 1.391 . S
C699 C698 1.387 1_556 S
C699 C701 1.387 . S
H700 C707 0.975 . S
C701 C699 1.387 . S
C701 C703 1.390 . S
C701 H705 0.950 . S
H702 C698 0.950 . S
C703 C701 1.390 . S
C703 C704 1.387 . S
C703 H706 0.950 . S
C704 C703 1.387 . S
C704 C707 1.362 1_556 S
H705 C701 0.950 . S
H706 C703 0.950 . S
C707 C698 1.391 . S
C707 H700 0.975 . S
C707 C704 1.362 1_554 S
C708 C709 1.387 . S
C708 H712 0.950 . S
C708 C717 1.390 . S
C709 C708 1.387 . S
C709 C711 1.387 . S
H710 C717 0.950 . S
C711 C709 1.387 . S
C711 C713 1.390 . S
C711 H715 0.950 . S
H712 C708 0.950 . S
C713 C711 1.390 . S
C713 C714 1.387 . S
C713 H716 0.950 . S
C714 C713 1.387 . S
C714 C717 1.387 . S
H715 C711 0.950 . S
H716 C713 0.950 . S
C717 C708 1.390 . S
C717 H710 0.950 . S
C717 C714 1.387 . S
C718 C719 1.387 . S
C718 H722 0.950 . S
C718 C727 1.390 . S
C719 C718 1.387 . S
C719 C721 1.387 . S
H720 C727 0.950 . S
C721 C719 1.387 . S
C721 C723 1.390 . S
C721 H725 0.950 . S
H722 C718 0.950 . S
C723 C721 1.390 . S
C723 C724 1.387 . S
C723 H726 0.950 . S
C724 C723 1.387 . S
C724 C727 1.387 . S
H725 C721 0.950 . S
H726 C723 0.950 . S
C727 C718 1.390 . S
C727 H720 0.950 . S
C727 C724 1.387 . S
C728 C729 1.387 . S
C728 H732 0.950 . S
C728 C737 1.390 . S
C729 C728 1.387 . S
C729 C731 1.387 . S
H730 C737 0.950 . S
C731 C729 1.387 . S
C731 C733 1.390 . S
C731 H735 0.950 . S
H732 C728 0.950 . S
C733 C731 1.390 . S
C733 C734 1.387 . S
C733 H736 0.950 . S
C734 C733 1.387 . S
C734 C737 1.387 . S
H735 C731 0.950 . S
H736 C733 0.950 . S
C737 C728 1.390 . S
C737 H730 0.950 . S
C737 C734 1.387 . S
C738 C739 1.387 . S
C738 H742 0.950 1_554 S
C738 C747 1.390 . S
C739 C738 1.387 . S
C739 C741 1.387 . S
H740 C747 0.950 1_556 S
C741 C739 1.387 . S
C741 C743 1.390 . S
C741 H745 0.950 . S
H742 C738 0.950 1_556 S
C743 C741 1.390 . S
C743 C744 1.387 . S
C743 H746 0.950 . S
C744 C743 1.387 . S
C744 C747 1.387 . S
H745 C741 0.950 . S
H746 C743 0.950 . S
C747 C738 1.390 . S
C747 H740 0.950 1_554 S
C747 C744 1.387 . S
C748 C749 1.362 1_556 S
C748 H752 0.975 . S
C748 C757 1.391 . S
C749 C748 1.362 1_554 S
C749 C751 1.387 . S
H750 C757 0.950 . S
C751 C749 1.387 . S
C751 C753 1.390 . S
C751 H755 0.950 . S
H752 C748 0.975 . S
C753 C751 1.390 . S
C753 C754 1.387 . S
C753 H756 0.950 . S
C754 C753 1.387 . S
C754 C757 1.387 1_554 S
H755 C751 0.950 . S
H756 C753 0.950 . S
C757 C748 1.391 . S
C757 H750 0.950 . S
C757 C754 1.387 1_556 S
C758 C759 1.387 1_556 S
C758 H762 0.950 . S
C758 C767 1.391 . S
C759 C758 1.387 1_554 S
C759 C761 1.387 . S
H760 C767 0.974 . S
C761 C759 1.387 . S
C761 C763 1.390 . S
C761 H765 0.950 . S
H762 C758 0.950 . S
C763 C761 1.390 . S
C763 C764 1.387 . S
C763 H766 0.950 . S
C764 C763 1.387 . S
C764 C767 1.363 1_554 S
H765 C761 0.950 . S
H766 C763 0.950 . S
C767 C758 1.391 . S
C767 H760 0.974 . S
C767 C764 1.363 1_556 S
C768 C769 1.387 . S
C768 H772 0.950 . S
C768 C777 1.390 . S
C769 C768 1.387 . S
C769 C771 1.387 . S
H770 C777 0.950 . S
C771 C769 1.387 . S
C771 C773 1.390 . S
C771 H775 0.950 . S
H772 C768 0.950 . S
C773 C771 1.390 . S
C773 C774 1.387 . S
C773 H776 0.950 . S
C774 C773 1.387 . S
C774 C777 1.387 . S
H775 C771 0.950 . S
H776 C773 0.950 . S
C777 C768 1.390 . S
C777 H770 0.950 . S
C777 C774 1.387 . S
C778 C779 1.387 . S
C778 H782 0.950 . S
C778 C787 1.390 . S
C779 C778 1.387 . S
C779 C781 1.387 . S
H780 C787 0.950 . S
C781 C779 1.387 . S
C781 C783 1.390 . S
C781 H785 0.950 . S
H782 C778 0.950 . S
C783 C781 1.390 . S
C783 C784 1.387 . S
C783 H786 0.950 . S
C784 C783 1.387 . S
C784 C787 1.387 . S
H785 C781 0.950 . S
H786 C783 0.950 . S
C787 C778 1.390 . S
C787 H780 0.950 . S
C787 C784 1.387 . S
C788 C789 1.387 . S
C788 H792 0.950 . S
C788 C797 1.390 . S
C789 C788 1.387 . S
C789 C791 1.387 . S
H790 C797 0.950 . S
C791 C789 1.387 . S
C791 C793 1.390 . S
C791 H795 0.950 . S
H792 C788 0.950 . S
C793 C791 1.390 . S
C793 C794 1.387 . S
C793 H796 0.950 . S
C794 C793 1.387 . S
C794 C797 1.387 . S
H795 C791 0.950 . S
H796 C793 0.950 . S
C797 C788 1.390 . S
C797 H790 0.950 . S
C797 C794 1.387 . S
C798 C799 1.387 . S
C798 H802 0.950 . S
C798 C807 1.390 . S
C799 C798 1.387 . S
C799 C801 1.387 . S
H800 C807 0.950 . S
C801 C799 1.387 . S
C801 C803 1.390 . S
C801 H805 0.950 . S
H802 C798 0.950 . S
C803 C801 1.390 . S
C803 C804 1.387 . S
C803 H806 0.950 . S
C804 C803 1.387 . S
C804 C807 1.387 . S
H805 C801 0.950 . S
H806 C803 0.950 . S
C807 C798 1.390 . S
C807 H800 0.950 . S
C807 C804 1.387 . S
C808 C809 1.387 . S
C808 H812 0.950 . S
C808 C817 1.390 . S
C809 C808 1.387 . S
C809 C811 1.387 . S
H810 C817 0.950 . S
C811 C809 1.387 . S
C811 C813 1.390 . S
C811 H815 0.950 . S
H812 C808 0.950 . S
C813 C811 1.390 . S
C813 C814 1.387 . S
C813 H816 0.950 . S
C814 C813 1.387 . S
C814 C817 1.387 . S
H815 C811 0.950 . S
H816 C813 0.950 . S
C817 C808 1.390 . S
C817 H810 0.950 . S
C817 C814 1.387 . S
C818 C819 1.387 . S
C818 H822 0.950 . S
C818 C827 1.390 . S
C819 C818 1.387 . S
C819 C821 1.387 . S
H820 C827 0.950 . S
C821 C819 1.387 . S
C821 C823 1.390 . S
C821 H825 0.950 . S
H822 C818 0.950 . S
C823 C821 1.390 . S
C823 C824 1.387 . S
C823 H826 0.950 . S
C824 C823 1.387 . S
C824 C827 1.387 . S
H825 C821 0.950 . S
H826 C823 0.950 . S
C827 C818 1.390 . S
C827 H820 0.950 . S
C827 C824 1.387 . S
C828 C829 1.387 . S
C828 H832 0.950 . S
C828 C837 1.390 . S
C829 C828 1.387 . S
C829 C831 1.387 . S
H830 C837 0.950 . S
C831 C829 1.387 . S
C831 C833 1.390 . S
C831 H835 0.950 . S
H832 C828 0.950 . S
C833 C831 1.390 . S
C833 C834 1.387 . S
C833 H836 0.950 . S
C834 C833 1.387 . S
C834 C837 1.387 . S
H835 C831 0.950 . S
H836 C833 0.950 . S
C837 C828 1.390 . S
C837 H830 0.950 . S
C837 C834 1.387 . S
C838 C839 1.387 1_565 S
C838 H842 0.950 . S
C838 C847 1.390 . S
C839 C838 1.387 1_545 S
C839 C841 1.387 . S
H840 C847 0.950 . S
C841 C839 1.387 . S
C841 C843 1.390 . S
C841 H845 0.950 . S
H842 C838 0.950 . S
C843 C841 1.390 . S
C843 C844 1.407 . S
C843 H846 0.950 . S
C844 C843 1.407 . S
C844 C847 1.369 1_545 S
H845 C841 0.950 . S
H846 C843 0.950 . S
C847 C838 1.390 . S
C847 H840 0.950 . S
C847 C844 1.369 1_565 S
C848 C849 1.391 1_455 S
C848 H852 0.950 . S
C848 C857 1.390 . S
C849 C848 1.391 1_655 S
C849 C851 1.385 . S
H850 C857 0.950 . S
C851 C849 1.385 . S
C851 C853 1.390 . S
C851 H855 0.950 . S
H852 C848 0.950 . S
C853 C851 1.390 . S
C853 C854 1.387 . S
C853 H856 0.950 . S
C854 C853 1.387 . S
C854 C857 1.387 1_655 S
H855 C851 0.950 . S
H856 C853 0.950 . S
C857 C848 1.390 . S
C857 H850 0.950 . S
C857 C854 1.387 1_455 S
C858 C859 1.387 . S
C858 H862 0.950 . S
C858 C867 1.390 . S
C859 C858 1.387 . S
C859 C861 1.387 . S
H860 C867 0.950 . S
C861 C859 1.387 . S
C861 C863 1.390 . S
C861 H865 0.950 . S
H862 C858 0.950 . S
C863 C861 1.390 . S
C863 C864 1.387 . S
C863 H866 0.950 . S
C864 C863 1.387 . S
C864 C867 1.387 . S
H865 C861 0.950 . S
H866 C863 0.950 . S
C867 C858 1.390 . S
C867 H860 0.950 . S
C867 C864 1.387 . S
C868 C869 1.387 . S
C868 H872 0.950 . S
C868 C877 1.390 . S
C869 C868 1.387 . S
C869 C871 1.387 1_565 S
H870 C877 0.950 . S
C871 C869 1.387 1_545 S
C871 C873 1.390 . S
C871 H875 0.950 . S
H872 C868 0.950 . S
C873 C871 1.390 . S
C873 C874 1.373 1_545 S
C873 H876 0.950 . S
C874 C873 1.373 1_565 S
C874 C877 1.403 . S
H875 C871 0.950 . S
H876 C873 0.950 . S
C877 C868 1.390 . S
C877 H870 0.950 . S
C877 C874 1.403 . S
C878 C879 1.393 1_655 S
C878 H882 0.950 . S
C878 C887 1.390 . S
C879 C878 1.393 1_455 S
C879 C881 1.383 . S
H880 C887 0.950 . S
C881 C879 1.383 . S
C881 C883 1.390 . S
C881 H885 0.950 . S
H882 C878 0.950 . S
C883 C881 1.390 . S
C883 C884 1.387 . S
C883 H886 0.950 . S
C884 C883 1.387 . S
C884 C887 1.387 1_455 S
H885 C881 0.950 . S
H886 C883 0.950 . S
C887 C878 1.390 . S
C887 H880 0.950 . S
C887 C884 1.387 1_655 S
C888 C889 1.387 . S
C888 H892 0.950 . S
C888 C897 1.390 . S
C889 C888 1.387 . S
C889 C891 1.387 . S
H890 C897 0.950 . S
C891 C889 1.387 . S
C891 C893 1.390 . S
C891 H895 0.950 . S
H892 C888 0.950 . S
C893 C891 1.390 . S
C893 C894 1.387 . S
C893 H896 0.950 . S
C894 C893 1.387 . S
C894 C897 1.387 . S
H895 C891 0.950 . S
H896 C893 0.950 . S
C897 C888 1.390 . S
C897 H890 0.950 . S
C897 C894 1.387 . S
C898 C899 1.387 . S
C898 H902 0.950 . S
C898 C907 1.390 . S
C899 C898 1.387 . S
C899 C901 1.387 . S
H900 C907 0.950 . S
C901 C899 1.387 . S
C901 C903 1.390 . S
C901 H905 0.950 . S
H902 C898 0.950 . S
C903 C901 1.390 . S
C903 C904 1.387 . S
C903 H906 0.950 . S
C904 C903 1.387 . S
C904 C907 1.387 . S
H905 C901 0.950 . S
H906 C903 0.950 . S
C907 C898 1.390 . S
C907 H900 0.950 . S
C907 C904 1.387 . S
C908 C909 1.387 . S
C908 H912 0.950 . S
C908 C917 1.390 . S
C909 C908 1.387 . S
C909 C911 1.387 . S
H910 C917 0.950 . S
C911 C909 1.387 . S
C911 C913 1.390 . S
C911 H915 0.950 . S
H912 C908 0.950 . S
C913 C911 1.390 . S
C913 C914 1.387 . S
C913 H916 0.950 . S
C914 C913 1.387 . S
C914 C917 1.387 . S
H915 C911 0.950 . S
H916 C913 0.950 . S
C917 C908 1.390 . S
C917 H910 0.950 . S
C917 C914 1.387 . S
C918 C919 1.387 . S
C918 H922 0.950 . S
C918 C927 1.390 . S
C919 C918 1.387 . S
C919 C921 1.387 . S
H920 C927 0.950 . S
C921 C919 1.387 . S
C921 C923 1.390 . S
C921 H925 0.950 . S
H922 C918 0.950 . S
C923 C921 1.390 . S
C923 C924 1.387 . S
C923 H926 0.950 . S
C924 C923 1.387 . S
C924 C927 1.387 . S
H925 C921 0.950 . S
H926 C923 0.950 . S
C927 C918 1.390 . S
C927 H920 0.950 . S
C927 C924 1.387 . S
C928 C929 1.387 . S
C928 H932 0.950 . S
C928 C937 1.390 . S
C929 C928 1.387 . S
C929 C931 1.387 . S
H930 C937 0.950 . S
C931 C929 1.387 . S
C931 C933 1.390 . S
C931 H935 0.950 . S
H932 C928 0.950 . S
C933 C931 1.390 . S
C933 C934 1.387 . S
C933 H936 0.950 . S
C934 C933 1.387 . S
C934 C937 1.387 . S
H935 C931 0.950 . S
H936 C933 0.950 . S
C937 C928 1.390 . S
C937 H930 0.950 . S
C937 C934 1.387 . S
C938 C939 1.387 . S
C938 H942 0.950 . S
C938 C947 1.390 . S
C939 C938 1.387 . S
C939 C941 1.387 . S
H940 C947 0.950 . S
C941 C939 1.387 . S
C941 C943 1.390 . S
C941 H945 0.950 . S
H942 C938 0.950 . S
C943 C941 1.390 . S
C943 C944 1.387 . S
C943 H946 0.950 . S
C944 C943 1.387 . S
C944 C947 1.387 . S
H945 C941 0.950 . S
H946 C943 0.950 . S
C947 C938 1.390 . S
C947 H940 0.950 . S
C947 C944 1.387 . S
C948 C949 1.387 . S
C948 H952 0.950 . S
C948 C957 1.390 . S
C949 C948 1.387 . S
C949 C951 1.387 . S
H950 C957 0.950 . S
C951 C949 1.387 . S
C951 C953 1.390 . S
C951 H955 0.950 . S
H952 C948 0.950 . S
C953 C951 1.390 . S
C953 C954 1.387 . S
C953 H956 0.950 . S
C954 C953 1.387 . S
C954 C957 1.387 . S
H955 C951 0.950 . S
H956 C953 0.950 . S
C957 C948 1.390 . S
C957 H950 0.950 . S
C957 C954 1.387 . S
C958 C959 1.387 . S
C958 H962 0.950 . S
C958 C967 1.390 . S
C959 C958 1.387 . S
C959 C961 1.387 . S
H960 C967 0.950 . S
C961 C959 1.387 . S
C961 C963 1.390 . S
C961 H965 0.950 . S
H962 C958 0.950 . S
C963 C961 1.390 . S
C963 C964 1.387 . S
C963 H966 0.950 . S
C964 C963 1.387 . S
C964 C967 1.387 . S
H965 C961 0.950 . S
H966 C963 0.950 . S
C967 C958 1.390 . S
C967 H960 0.950 . S
C967 C964 1.387 . S
C968 C969 1.387 . S
C968 H972 0.950 . S
C968 C977 1.390 . S
C969 C968 1.387 . S
C969 C971 1.387 . S
H970 C977 0.950 . S
C971 C969 1.387 . S
C971 C973 1.390 . S
C971 H975 0.950 . S
H972 C968 0.950 . S
C973 C971 1.390 . S
C973 C974 1.387 . S
C973 H976 0.950 . S
C974 C973 1.387 . S
C974 C977 1.387 . S
H975 C971 0.950 . S
H976 C973 0.950 . S
C977 C968 1.390 . S
C977 H970 0.950 . S
C977 C974 1.387 . S
C978 C979 1.387 . S
C978 H982 0.950 . S
C978 C987 1.390 . S
C979 C978 1.387 . S
C979 C981 1.387 . S
H980 C987 0.950 . S
C981 C979 1.387 . S
C981 C983 1.390 . S
C981 H985 0.950 . S
H982 C978 0.950 . S
C983 C981 1.390 . S
C983 C984 1.387 . S
C983 H986 0.950 . S
C984 C983 1.387 . S
C984 C987 1.387 . S
H985 C981 0.950 . S
H986 C983 0.950 . S
C987 C978 1.390 . S
C987 H980 0.950 . S
C987 C984 1.387 . S
C988 C989 1.387 . S
C988 H992 0.950 . S
C988 C997 1.390 . S
C989 C988 1.387 . S
C989 C991 1.387 . S
H990 C997 0.950 . S
C991 C989 1.387 . S
C991 C993 1.390 . S
C991 H995 0.950 . S
H992 C988 0.950 . S
C993 C991 1.390 . S
C993 C994 1.387 . S
C993 H996 0.950 . S
C994 C993 1.387 . S
C994 C997 1.387 . S
H995 C991 0.950 . S
H996 C993 0.950 . S
C997 C988 1.390 . S
C997 H990 0.950 . S
C997 C994 1.387 . S
C998 C999 1.387 . S
C998 H1002 0.950 . S
C998 C1007 1.390 . S
C999 C998 1.387 . S
C999 C1001 1.387 . S
H1000 C1007 0.950 . S
C1001 C999 1.387 . S
C1001 C1003 1.390 . S
C1001 H1005 0.950 . S
H1002 C998 0.950 . S
C1003 C1001 1.390 . S
C1003 C1004 1.387 . S
C1003 H1006 0.950 . S
C1004 C1003 1.387 . S
C1004 C1007 1.387 . S
H1005 C1001 0.950 . S
H1006 C1003 0.950 . S
C1007 C998 1.390 . S
C1007 H1000 0.950 . S
C1007 C1004 1.387 . S
C1008 C1009 1.387 . S
C1008 H1012 0.950 . S
C1008 C1017 1.390 . S
C1009 C1008 1.387 . S
C1009 C1011 1.387 . S
H1010 C1017 0.950 . S
C1011 C1009 1.387 . S
C1011 C1013 1.390 . S
C1011 H1015 0.950 . S
H1012 C1008 0.950 . S
C1013 C1011 1.390 . S
C1013 C1014 1.387 . S
C1013 H1016 0.950 . S
C1014 C1013 1.387 . S
C1014 C1017 1.387 . S
H1015 C1011 0.950 . S
H1016 C1013 0.950 . S
C1017 C1008 1.390 . S
C1017 H1010 0.950 . S
C1017 C1014 1.387 . S
C1018 C1019 1.387 . S
C1018 H1022 0.950 . S
C1018 C1027 1.390 . S
C1019 C1018 1.387 . S
C1019 C1021 1.387 . S
H1020 C1027 0.950 . S
C1021 C1019 1.387 . S
C1021 C1023 1.390 . S
C1021 H1025 0.950 . S
H1022 C1018 0.950 . S
C1023 C1021 1.390 . S
C1023 C1024 1.387 . S
C1023 H1026 0.950 . S
C1024 C1023 1.387 . S
C1024 C1027 1.387 . S
H1025 C1021 0.950 . S
H1026 C1023 0.950 . S
C1027 C1018 1.390 . S
C1027 H1020 0.950 . S
C1027 C1024 1.387 . S
C1028 C1029 1.387 . S
C1028 H1032 0.950 . S
C1028 C1037 1.390 . S
C1029 C1028 1.387 . S
C1029 C1031 1.387 . S
H1030 C1037 0.950 . S
C1031 C1029 1.387 . S
C1031 C1033 1.390 . S
C1031 H1035 0.950 . S
H1032 C1028 0.950 . S
C1033 C1031 1.390 . S
C1033 C1034 1.387 . S
C1033 H1036 0.950 . S
C1034 C1033 1.387 . S
C1034 C1037 1.387 . S
H1035 C1031 0.950 . S
H1036 C1033 0.950 . S
C1037 C1028 1.390 . S
C1037 H1030 0.950 . S
C1037 C1034 1.387 . S
C1038 C1039 1.387 . S
C1038 H1042 0.950 . S
C1038 C1047 1.390 . S
C1039 C1038 1.387 . S
C1039 C1041 1.387 . S
H1040 C1047 0.950 . S
C1041 C1039 1.387 . S
C1041 C1043 1.390 . S
C1041 H1045 0.950 . S
H1042 C1038 0.950 . S
C1043 C1041 1.390 . S
C1043 C1044 1.387 . S
C1043 H1046 0.950 . S
C1044 C1043 1.387 . S
C1044 C1047 1.387 . S
H1045 C1041 0.950 . S
H1046 C1043 0.950 . S
C1047 C1038 1.390 . S
C1047 H1040 0.950 . S
C1047 C1044 1.387 . S
C1048 C1049 1.387 . S
C1048 H1052 0.950 . S
C1048 C1057 1.390 . S
C1049 C1048 1.387 . S
C1049 C1051 1.387 . S
H1050 C1057 0.950 . S
C1051 C1049 1.387 . S
C1051 C1053 1.390 . S
C1051 H1055 0.950 . S
H1052 C1048 0.950 . S
C1053 C1051 1.390 . S
C1053 C1054 1.387 . S
C1053 H1056 0.950 . S
C1054 C1053 1.387 . S
C1054 C1057 1.387 . S
H1055 C1051 0.950 . S
H1056 C1053 0.950 . S
C1057 C1048 1.390 . S
C1057 H1050 0.950 . S
C1057 C1054 1.387 . S
C1058 C1059 1.387 . S
C1058 H1062 0.950 . S
C1058 C1067 1.390 . S
C1059 C1058 1.387 . S
C1059 C1061 1.387 . S
H1060 C1067 0.950 . S
C1061 C1059 1.387 . S
C1061 C1063 1.390 . S
C1061 H1065 0.950 . S
H1062 C1058 0.950 . S
C1063 C1061 1.390 . S
C1063 C1064 1.387 . S
C1063 H1066 0.950 . S
C1064 C1063 1.387 . S
C1064 C1067 1.387 . S
H1065 C1061 0.950 . S
H1066 C1063 0.950 . S
C1067 C1058 1.390 . S
C1067 H1060 0.950 . S
C1067 C1064 1.387 . S
C1068 C1069 1.387 . S
C1068 H1072 0.950 . S
C1068 C1077 1.390 . S
C1069 C1068 1.387 . S
C1069 C1071 1.387 . S
H1070 C1077 0.950 . S
C1071 C1069 1.387 . S
C1071 C1073 1.390 . S
C1071 H1075 0.950 . S
H1072 C1068 0.950 . S
C1073 C1071 1.390 . S
C1073 C1074 1.387 . S
C1073 H1076 0.950 . S
C1074 C1073 1.387 . S
C1074 C1077 1.387 . S
H1075 C1071 0.950 . S
H1076 C1073 0.950 . S
C1077 C1068 1.390 . S
C1077 H1070 0.950 . S
C1077 C1074 1.387 . S
C1078 C1079 1.387 . S
C1078 H1082 0.950 . S
C1078 C1087 1.390 . S
C1079 C1078 1.387 . S
C1079 C1081 1.387 . S
H1080 C1087 0.950 . S
C1081 C1079 1.387 . S
C1081 C1083 1.390 . S
C1081 H1085 0.950 . S
H1082 C1078 0.950 . S
C1083 C1081 1.390 . S
C1083 C1084 1.387 . S
C1083 H1086 0.950 . S
C1084 C1083 1.387 . S
C1084 C1087 1.387 . S
H1085 C1081 0.950 . S
H1086 C1083 0.950 . S
C1087 C1078 1.390 . S
C1087 H1080 0.950 . S
C1087 C1084 1.387 . S
C1088 C1089 1.387 . S
C1088 H1092 0.950 . S
C1088 C1097 1.390 . S
C1089 C1088 1.387 . S
C1089 C1091 1.387 . S
H1090 C1097 0.950 . S
C1091 C1089 1.387 . S
C1091 C1093 1.390 . S
C1091 H1095 0.950 . S
H1092 C1088 0.950 . S
C1093 C1091 1.390 . S
C1093 C1094 1.387 . S
C1093 H1096 0.950 . S
C1094 C1093 1.387 . S
C1094 C1097 1.387 . S
H1095 C1091 0.950 . S
H1096 C1093 0.950 . S
C1097 C1088 1.390 . S
C1097 H1090 0.950 . S
C1097 C1094 1.387 . S
C1098 C1099 1.387 . S
C1098 H1102 0.950 . S
C1098 C1107 1.390 . S
C1099 C1098 1.387 . S
C1099 C1101 1.387 . S
H1100 C1107 0.950 . S
C1101 C1099 1.387 . S
C1101 C1103 1.390 . S
C1101 H1105 0.950 . S
H1102 C1098 0.950 . S
C1103 C1101 1.390 . S
C1103 C1104 1.387 . S
C1103 H1106 0.950 . S
C1104 C1103 1.387 . S
C1104 C1107 1.387 . S
H1105 C1101 0.950 . S
H1106 C1103 0.950 . S
C1107 C1098 1.390 . S
C1107 H1100 0.950 . S
C1107 C1104 1.387 . S
C1108 C1109 1.387 . S
C1108 H1112 0.950 . S
C1108 C1117 1.390 . S
C1109 C1108 1.387 . S
C1109 C1111 1.387 . S
H1110 C1117 0.950 . S
C1111 C1109 1.387 . S
C1111 C1113 1.390 . S
C1111 H1115 0.950 . S
H1112 C1108 0.950 . S
C1113 C1111 1.390 . S
C1113 C1114 1.387 . S
C1113 H1116 0.950 . S
C1114 C1113 1.387 . S
C1114 C1117 1.387 . S
H1115 C1111 0.950 . S
H1116 C1113 0.950 . S
C1117 C1108 1.390 . S
C1117 H1110 0.950 . S
C1117 C1114 1.387 . S
C1118 C1119 1.387 . S
C1118 H1122 0.950 . S
C1118 C1127 1.390 . S
C1119 C1118 1.387 . S
C1119 C1121 1.387 . S
H1120 C1127 0.950 . S
C1121 C1119 1.387 . S
C1121 C1123 1.390 . S
C1121 H1125 0.950 . S
H1122 C1118 0.950 . S
C1123 C1121 1.390 . S
C1123 C1124 1.387 . S
C1123 H1126 0.950 . S
C1124 C1123 1.387 . S
C1124 C1127 1.387 . S
H1125 C1121 0.950 . S
H1126 C1123 0.950 . S
C1127 C1118 1.390 . S
C1127 H1120 0.950 . S
C1127 C1124 1.387 . S
C1128 C1129 1.387 . S
C1128 H1132 0.950 . S
C1128 C1137 1.390 1_455 S
C1129 C1128 1.387 . S
C1129 C1131 1.387 . S
H1130 C1137 0.950 . S
C1131 C1129 1.387 . S
C1131 C1133 1.390 1_455 S
C1131 H1135 0.950 . S
H1132 C1128 0.950 . S
C1133 C1131 1.390 1_655 S
C1133 C1134 1.387 . S
C1133 H1136 0.950 . S
C1134 C1133 1.387 . S
C1134 C1137 1.387 . S
H1135 C1131 0.950 . S
H1136 C1133 0.950 . S
C1137 C1128 1.390 1_655 S
C1137 H1130 0.950 . S
C1137 C1134 1.387 . S
C1138 C1139 1.387 . S
C1138 H1142 0.950 . S
C1138 C1147 1.390 . S
C1139 C1138 1.387 . S
C1139 C1141 1.387 . S
H1140 C1147 0.950 . S
C1141 C1139 1.387 . S
C1141 C1143 1.390 . S
C1141 H1145 0.950 . S
H1142 C1138 0.950 . S
C1143 C1141 1.390 . S
C1143 C1144 1.387 . S
C1143 H1146 0.950 . S
C1144 C1143 1.387 . S
C1144 C1147 1.387 . S
H1145 C1141 0.950 . S
H1146 C1143 0.950 . S
C1147 C1138 1.390 . S
C1147 H1140 0.950 . S
C1147 C1144 1.387 . S
C1148 C1149 1.387 . S
C1148 H1152 0.950 . S
C1148 C1157 1.390 . S
C1149 C1148 1.387 . S
C1149 C1151 1.387 1_545 S
H1150 C1157 0.950 . S
C1151 C1149 1.387 1_565 S
C1151 C1153 1.390 . S
C1151 H1155 0.950 . S
H1152 C1148 0.950 . S
C1153 C1151 1.390 . S
C1153 C1154 1.387 . S
C1153 H1156 0.950 . S
C1154 C1153 1.387 . S
C1154 C1157 1.387 1_565 S
H1155 C1151 0.950 . S
H1156 C1153 0.950 . S
C1157 C1148 1.390 . S
C1157 H1150 0.950 . S
C1157 C1154 1.387 1_545 S
C1158 C1159 1.387 1_554 S
C1158 H1162 0.950 . S
C1158 C1167 1.390 1_545 S
C1159 C1158 1.387 1_556 S
C1159 C1161 1.387 . S
H1160 C1167 0.950 . S
C1161 C1159 1.387 . S
C1161 C1163 1.390 1_545 S
C1161 H1165 0.950 . S
H1162 C1158 0.950 . S
C1163 C1161 1.390 1_565 S
C1163 C1164 1.387 1_556 S
C1163 H1166 0.950 . S
C1164 C1163 1.387 1_554 S
C1164 C1167 1.387 . S
H1165 C1161 0.950 . S
H1166 C1163 0.950 . S
C1167 C1158 1.390 1_565 S
C1167 H1160 0.950 . S
C1167 C1164 1.387 . S
C1168 C1169 1.387 1_455 S
C1168 H1172 0.950 . S
C1168 C1177 1.390 . S
C1169 C1168 1.387 1_655 S
C1169 C1171 1.387 1_556 S
H1170 C1177 0.950 . S
C1171 C1169 1.387 1_554 S
C1171 C1173 1.390 . S
C1171 H1175 0.950 . S
H1172 C1168 0.950 . S
C1173 C1171 1.390 . S
C1173 C1174 1.387 1_655 S
C1173 H1176 0.950 . S
C1174 C1173 1.387 1_455 S
C1174 C1177 1.387 1_554 S
H1175 C1171 0.950 . S
H1176 C1173 0.950 . S
C1177 C1168 1.390 . S
C1177 H1170 0.950 . S
C1177 C1174 1.387 1_556 S
C1178 C1179 1.387 1_556 S
C1178 H1182 0.950 . S
C1178 C1187 1.390 . S
C1179 C1178 1.387 1_554 S
C1179 C1181 1.387 . S
H1180 C1187 0.950 . S
C1181 C1179 1.387 . S
C1181 C1183 1.390 . S
C1181 H1185 0.950 . S
H1182 C1178 0.950 . S
C1183 C1181 1.390 . S
C1183 C1184 1.387 1_554 S
C1183 H1186 0.950 . S
C1184 C1183 1.387 1_556 S
C1184 C1187 1.387 . S
H1185 C1181 0.950 . S
H1186 C1183 0.950 . S
C1187 C1178 1.390 . S
C1187 H1180 0.950 . S
C1187 C1184 1.387 . S
C469 C3 1.465 . S
C474 C18 1.594 . S
C479 C16 1.462 . S
C484 C29 1.594 . S
C489 C5 1.594 . S
C494 C31 1.465 . S
C499 C44 1.468 . S
C504 C68 1.604 . S
C509 C57 1.469 . S
C514 C42 1.604 . S
C519 C55 1.604 . S
C524 C70 1.468 . S
C529 C83 1.462 . S
C534 C94 1.594 . S
C539 C107 1.594 . S
C544 C96 1.462 . S
C549 C81 1.594 . S
C554 C109 1.465 . S
C559 C146 1.604 . S
C564 C122 1.470 . S
C569 C135 1.472 . S
C574 C120 1.605 . S
C579 C148 1.469 . S
C584 C133 1.604 . S
C589 C174 1.601 . S
C594 C159 1.470 . S
C599 C172 1.467 . S
C604 C187 1.601 . S
C609 C185 1.466 . S
C614 C161 1.601 . S
C619 C200 1.466 . S
C624 C224 1.600 . S
C629 C213 1.467 . S
C634 C198 1.600 . S
C639 C226 1.470 . S
C644 C211 1.600 . S
C649 C252 1.631 . S
C654 C239 1.491 . S
C659 C250 1.492 . S
C664 C265 1.631 . S
C669 C237 1.631 . S
C674 C263 1.495 . S
C679 C302 1.515 . S
C684 C276 1.403 . S
C689 C289 1.399 . S
C694 C278 1.515 . S
C699 C291 1.515 . S
C704 C304 1.402 . S
C709 C330 1.631 . S
C714 C315 1.491 . S
C719 C328 1.495 . S
C724 C343 1.632 . S
C729 C341 1.492 . S
C734 C317 1.631 . S
C739 C382 1.515 . S
C744 C354 1.398 . S
C749 C367 1.399 . S
C754 C356 1.515 . S
C759 C369 1.515 . S
C764 C380 1.398 . S
C769 C395 1.467 . S
C774 C408 1.601 . S
C779 C406 1.470 . S
C784 C421 1.601 . S
C789 C419 1.468 . S
C794 C393 1.602 . S
C799 C460 1.600 . S
C804 C432 1.471 . S
C809 C434 1.601 . S
C814 C447 1.470 . S
C819 C458 1.470 . S
C824 C445 1.600 . S
C829 C49 1.741 . S
C834 C4 1.743 . S
C839 C17 1.743 . S
C844 C62 1.737 1_545 S
C849 C75 1.741 1_655 S
C854 C36 1.743 . S
C859 C127 1.743 . S
C864 C88 1.742 . S
C869 C101 1.743 . S
C874 C140 1.737 1_565 S
C879 C153 1.741 1_455 S
C884 C114 1.741 . S
C889 C160 1.741 . S
C894 C205 1.741 . S
C899 C173 1.741 . S
C904 C218 1.741 . S
C909 C186 1.741 . S
C914 C231 1.740 . S
C919 C277 1.762 . S
C924 C244 1.763 . S
C929 C290 1.761 . S
C934 C251 1.765 . S
C939 C264 1.771 . S
C944 C309 1.756 . S
C949 C355 1.762 . S
C954 C316 1.765 . S
C959 C368 1.761 . S
C964 C329 1.765 . S
C969 C342 1.769 . S
C974 C381 1.757 . S
C979 C400 1.740 . S
C984 C433 1.739 . S
C989 C452 1.741 . S
C994 C407 1.741 . S
C999 C420 1.739 . S
C1004 C459 1.740 . S
C1009 C10 1.940 . S
C1014 C238 1.933 . S
C1019 C23 1.945 . S
C1024 C257 1.937 . S
C1029 C30 1.944 . S
C1034 C270 1.937 . S
C1039 C439 1.929 . S
C1044 C43 1.928 . S
C1049 C446 1.932 . S
C1054 C56 1.931 . S
C1059 C69 1.930 . S
C1064 C465 1.932 . S
C1069 C82 1.940 . S
C1074 C322 1.933 . S
C1079 C335 1.937 . S
C1084 C95 1.945 . S
C1089 C348 1.935 . S
C1094 C108 1.943 . S
C1099 C199 1.929 . S
C1104 C121 1.928 . S
C1109 C212 1.930 . S
C1114 C134 1.929 . S
C1119 C225 1.929 . S
C1124 C147 1.927 . S
C1129 C394 1.927 . S
C1134 C166 1.927 . S
C1139 C179 1.925 . S
C1144 C413 1.925 . S
C1149 C192 1.927 . S
C1154 C426 1.927 . S
C1159 C283 1.800 . S
C1164 C361 1.799 . S
C1169 C296 1.802 . S
C1174 C374 1.801 . S
C1179 C387 1.803 . S
C1184 C303 1.802 . S
