# Generated by pormake.
# Topology unn, (4)-cn, num edge types: 1
# Building blocks:
#     Node 0, Type 0, BuildingBlock: ESEHIV_clean_sbu_0, # of connection points: 4
#     Node 1, Type 0, BuildingBlock: ESEHIV_clean_sbu_0, # of connection points: 4
#     Node 2, Type 0, BuildingBlock: ESEHIV_clean_sbu_0, # of connection points: 4
#     Node 3, Type 0, BuildingBlock: ESEHIV_clean_sbu_0, # of connection points: 4
#     Node 4, Type 0, BuildingBlock: ESEHIV_clean_sbu_0, # of connection points: 4
#     Node 5, Type 0, BuildingBlock: ESEHIV_clean_sbu_0, # of connection points: 4
#     Node 6, Type 0, BuildingBlock: ESEHIV_clean_sbu_0, # of connection points: 4
#     Node 7, Type 0, BuildingBlock: ESEHIV_clean_sbu_0, # of connection points: 4
#     Node 8, Type 0, BuildingBlock: ESEHIV_clean_sbu_0, # of connection points: 4
#     Node 9, Type 0, BuildingBlock: ESEHIV_clean_sbu_0, # of connection points: 4
#     Node 10, Type 0, BuildingBlock: ESEHIV_clean_sbu_0, # of connection points: 4
#     Node 11, Type 0, BuildingBlock: ESEHIV_clean_sbu_0, # of connection points: 4
#     Node 12, Type 0, BuildingBlock: ESEHIV_clean_sbu_0, # of connection points: 4
#     Node 13, Type 0, BuildingBlock: ESEHIV_clean_sbu_0, # of connection points: 4
#     Node 14, Type 0, BuildingBlock: ESEHIV_clean_sbu_0, # of connection points: 4
#     Node 15, Type 0, BuildingBlock: ESEHIV_clean_sbu_0, # of connection points: 4
#     Node 16, Type 0, BuildingBlock: ESEHIV_clean_sbu_0, # of connection points: 4
#     Node 17, Type 0, BuildingBlock: ESEHIV_clean_sbu_0, # of connection points: 4
#     Edge 18, Type (0, 0), BuildingBlock: EZIPEK_clean_linker_0, # of connection points: 2
#     Edge 19, Type (0, 0), BuildingBlock: EZIPEK_clean_linker_0, # of connection points: 2
#     Edge 20, Type (0, 0), BuildingBlock: EZIPEK_clean_linker_0, # of connection points: 2
#     Edge 21, Type (0, 0), BuildingBlock: EZIPEK_clean_linker_0, # of connection points: 2
#     Edge 22, Type (0, 0), BuildingBlock: EZIPEK_clean_linker_0, # of connection points: 2
#     Edge 23, Type (0, 0), BuildingBlock: EZIPEK_clean_linker_0, # of connection points: 2
#     Edge 24, Type (0, 0), BuildingBlock: EZIPEK_clean_linker_0, # of connection points: 2
#     Edge 25, Type (0, 0), BuildingBlock: EZIPEK_clean_linker_0, # of connection points: 2
#     Edge 26, Type (0, 0), BuildingBlock: EZIPEK_clean_linker_0, # of connection points: 2
#     Edge 27, Type (0, 0), BuildingBlock: EZIPEK_clean_linker_0, # of connection points: 2
#     Edge 28, Type (0, 0), BuildingBlock: EZIPEK_clean_linker_0, # of connection points: 2
#     Edge 29, Type (0, 0), BuildingBlock: EZIPEK_clean_linker_0, # of connection points: 2
#     Edge 30, Type (0, 0), BuildingBlock: EZIPEK_clean_linker_0, # of connection points: 2
#     Edge 31, Type (0, 0), BuildingBlock: EZIPEK_clean_linker_0, # of connection points: 2
#     Edge 32, Type (0, 0), BuildingBlock: EZIPEK_clean_linker_0, # of connection points: 2
#     Edge 33, Type (0, 0), BuildingBlock: EZIPEK_clean_linker_0, # of connection points: 2
#     Edge 34, Type (0, 0), BuildingBlock: EZIPEK_clean_linker_0, # of connection points: 2
#     Edge 35, Type (0, 0), BuildingBlock: EZIPEK_clean_linker_0, # of connection points: 2
#     Edge 36, Type (0, 0), BuildingBlock: EZIPEK_clean_linker_0, # of connection points: 2
#     Edge 37, Type (0, 0), BuildingBlock: EZIPEK_clean_linker_0, # of connection points: 2
#     Edge 38, Type (0, 0), BuildingBlock: EZIPEK_clean_linker_0, # of connection points: 2
#     Edge 39, Type (0, 0), BuildingBlock: EZIPEK_clean_linker_0, # of connection points: 2
#     Edge 40, Type (0, 0), BuildingBlock: EZIPEK_clean_linker_0, # of connection points: 2
#     Edge 41, Type (0, 0), BuildingBlock: EZIPEK_clean_linker_0, # of connection points: 2
#     Edge 42, Type (0, 0), BuildingBlock: EZIPEK_clean_linker_0, # of connection points: 2
#     Edge 43, Type (0, 0), BuildingBlock: EZIPEK_clean_linker_0, # of connection points: 2
#     Edge 44, Type (0, 0), BuildingBlock: EZIPEK_clean_linker_0, # of connection points: 2
#     Edge 45, Type (0, 0), BuildingBlock: EZIPEK_clean_linker_0, # of connection points: 2
#     Edge 46, Type (0, 0), BuildingBlock: EZIPEK_clean_linker_0, # of connection points: 2
#     Edge 47, Type (0, 0), BuildingBlock: EZIPEK_clean_linker_0, # of connection points: 2
#     Edge 48, Type (0, 0), BuildingBlock: EZIPEK_clean_linker_0, # of connection points: 2
#     Edge 49, Type (0, 0), BuildingBlock: EZIPEK_clean_linker_0, # of connection points: 2
#     Edge 50, Type (0, 0), BuildingBlock: EZIPEK_clean_linker_0, # of connection points: 2
#     Edge 51, Type (0, 0), BuildingBlock: EZIPEK_clean_linker_0, # of connection points: 2
#     Edge 52, Type (0, 0), BuildingBlock: EZIPEK_clean_linker_0, # of connection points: 2
#     Edge 53, Type (0, 0), BuildingBlock: EZIPEK_clean_linker_0, # of connection points: 2
# Relax obj value: 0.009
# Max RMSD: 0.160
# Mean RMSD: 0.158
data_MOF--net-unn--node1-ESEHIV_clean_sbu_0--edge1-EZIPEK_clean_linker_0
_symmetry_space_group_name_H-M    P1
_symmetry_Int_Tables_number       1
_symmetry_cell_setting            triclinic
loop_
_symmetry_equiv_pos_as_xyz
'x, y, z'
_cell_length_a     42.262369
_cell_length_b     41.921085
_cell_length_c     31.096236
_cell_angle_alpha  90.261169
_cell_angle_beta   90.410507
_cell_angle_gamma 119.85926
loop_
_atom_site_label
_atom_site_type_symbol
_atom_site_fract_x
_atom_site_fract_y
_atom_site_fract_z
_atom_type_partial_charge
Cu0 Cu 0.03187 0.74286 0.2706 0.0
N1 N 0.0733 0.78796 0.2859 0.0
N2 N 0.12873 0.82652 0.31352 0.0
C3 C 0.10389 0.7912 0.30418 0.0
C4 C 0.11341 0.84643 0.30037 0.0
C5 C 0.07921 0.82257 0.28329 0.0
O6 O 1.02082 0.71202 0.32118 0.0
C7 C 0.04784 0.74167 0.18494 0.0
O8 O 0.04386 0.77081 0.18579 0.0
H9 H 0.10785 0.76807 0.31066 0.0
H10 H 0.06008 0.82999 0.27 0.0
N11 N 0.98962 0.74528 0.25642 0.0
N12 N 0.93407 0.72769 0.229 0.0
C13 C 0.96141 0.71998 0.23235 0.0
C14 C 0.97945 0.76965 0.26898 0.0
C15 C 0.94517 0.75887 0.25201 0.0
C16 C 1.01611 0.72549 0.35581 0.0
O17 O 1.01806 0.75774 0.35487 0.0
H18 H 0.96057 0.69595 0.21825 0.0
H19 H 0.99543 0.79316 0.28971 0.0
O20 O 0.04405 0.72406 0.21966 0.0
H21 H 0.12616 0.87607 0.3028 0.0
H22 H 0.92939 0.7725 0.25662 0.0
Cu23 Cu 0.31547 0.30579 0.28075 0.0
N24 N 0.31027 0.26177 0.25744 0.0
N25 N 0.3267 0.22489 0.22343 0.0
C26 C 0.33776 0.25505 0.24881 0.0
C27 C 0.29076 0.21195 0.21638 0.0
C28 C 0.2807 0.23452 0.2375 0.0
O29 O 0.33566 0.34177 0.2344 0.0
C30 C 0.34702 0.33983 0.36184 0.0
O31 O 0.33096 0.35928 0.35525 0.0
H32 H 0.36582 0.27325 0.25857 0.0
H33 H 0.25421 0.23255 0.23604 0.0
N34 N 0.27079 0.30164 0.29755 0.0
N35 N 0.23234 0.31917 0.32332 0.0
C36 C 0.26391 0.32969 0.30244 0.0
C37 C 0.24229 0.27238 0.31559 0.0
C38 C 0.21852 0.28312 0.33149 0.0
C39 C 0.31672 0.33283 0.19968 0.0
O40 O 0.28488 0.3025 0.19881 0.0
H41 H 0.28289 0.35781 0.29367 0.0
H42 H 0.24014 0.24575 0.31942 0.0
O43 O 0.34587 0.31769 0.3328 0.0
H44 H 0.27337 0.18865 0.19591 0.0
H45 H 0.19412 0.26638 0.3498 0.0
Cu46 Cu 0.75906 0.0244 0.27763 0.0
N47 N 0.76214 0.98168 0.29014 0.0
N48 N 0.74382 0.92424 0.31271 0.0
C49 C 0.73357 0.94723 0.29523 0.0
C50 C 0.78029 0.9445 0.31778 0.0
C51 C 0.7915 0.97978 0.30382 0.0
O52 O 0.74307 0.03887 0.33001 0.0
C53 C 0.74006 1.00773 0.19139 0.0
O54 O 0.76874 1.00337 0.19345 0.0
H55 H 0.70546 0.93979 0.28914 0.0
H56 H 0.8189 1.00282 0.30606 0.0
N57 N 0.80386 0.06626 0.26361 0.0
N58 N 0.84146 0.1218 0.23609 0.0
C59 C 0.80708 0.09305 0.23686 0.0
C60 C 0.83741 0.07911 0.28096 0.0
C61 C 0.86071 0.11328 0.26382 0.0
C62 C 0.72291 1.01664 0.3589 0.0
O63 O 0.70714 0.98112 0.35208 0.0
H64 H 0.78435 0.09212 0.21947 0.0
H65 H 0.84424 0.06559 0.30582 0.0
O66 O 0.7287 1.01516 0.22595 0.0
H67 H 0.79723 0.93507 0.33301 0.0
H68 H 0.8892 0.13103 0.27209 0.0
Cu69 Cu 0.03286 0.30916 0.76979 0.0
N70 N 0.99128 0.26328 0.75712 0.0
N71 N 0.93531 0.22355 0.73189 0.0
C72 C 0.96031 0.2592 0.73897 0.0
C73 C 0.95072 0.20421 0.74666 0.0
C74 C 0.98528 0.2288 0.76227 0.0
O75 O 0.04132 0.33916 0.7185 0.0
C76 C 1.01811 0.31009 0.85579 0.0
O77 O 1.0214 0.28057 0.85391 0.0
H78 H 0.95621 0.282 0.731 0.0
H79 H 1.00459 0.22196 0.77631 0.0
N80 N 0.07581 0.30764 0.78267 0.0
N81 N 0.13084 0.32471 0.81146 0.0
C82 C 0.10434 0.33343 0.80595 0.0
C83 C 0.08495 0.28196 0.77276 0.0
C84 C 0.11886 0.29238 0.79066 0.0
C85 C 0.04098 0.32443 0.68233 0.0
O86 O 0.0359 0.29087 0.68135 0.0
H87 H 0.1056 0.35803 0.81886 0.0
H88 H 0.06816 0.25734 0.75399 0.0
O89 O 1.0218 0.32817 0.82149 0.0
H90 H 0.93791 0.17451 0.74605 0.0
H91 H 0.13354 0.27739 0.78872 0.0
Cu92 Cu 0.75189 0.74403 0.77021 0.0
N93 N 0.75494 0.78875 0.78675 0.0
N94 N 0.73755 0.82662 0.81556 0.0
C95 C 0.72783 0.79143 0.80611 0.0
C96 C 0.77196 0.84704 0.80125 0.0
C97 C 0.78262 0.82361 0.78339 0.0
O98 O 0.73197 0.71186 0.81958 0.0
C99 C 0.7357 0.74533 0.68434 0.0
O100 O 0.76824 0.77474 0.68672 0.0
H101 H 0.70139 0.76805 0.81301 0.0
H102 H 0.8086 0.83153 0.7688 0.0
N103 N 0.79662 0.74682 0.75678 0.0
N104 N 0.83494 0.7298 0.72952 0.0
C105 C 0.7998 0.72099 0.73415 0.0
C106 C 0.83107 0.77265 0.76715 0.0
C107 C 0.85481 0.76226 0.75018 0.0
C108 C 0.75031 0.72392 0.85448 0.0
O109 O 0.78082 0.75567 0.85451 0.0
H110 H 0.77681 0.69608 0.72151 0.0
H111 H 0.83847 0.7971 0.78609 0.0
O112 O 0.72181 0.72658 0.7182 0.0
H113 H 0.78802 0.87673 0.80327 0.0
H114 H 0.88427 0.77715 0.753 0.0
Cu115 Cu 0.30793 0.02075 0.77109 0.0
N116 N 0.30528 0.06352 0.7575 0.0
N117 N 0.32424 0.12059 0.73285 0.0
C118 C 0.33366 0.09836 0.75412 0.0
C119 C 0.28851 0.09925 0.72322 0.0
C120 C 0.27702 0.06422 0.73813 0.0
O121 O 0.32168 1.00501 0.718 0.0
C122 C 0.32779 0.03097 0.85808 0.0
O123 O 0.29529 0.02763 0.86067 0.0
H124 H 0.36141 0.10634 0.76328 0.0
H125 H 0.2508 0.04024 0.73149 0.0
N126 N 0.26299 0.98009 0.78756 0.0
N127 N 0.22533 0.92503 0.81627 0.0
C128 C 0.25916 0.94781 0.80133 0.0
C129 C 0.23022 0.97739 0.79385 0.0
C130 C 0.2069 0.94338 0.81131 0.0
C131 C 0.34231 0.02736 0.6895 0.0
O132 O 0.35954 0.06279 0.69752 0.0
H133 H 0.28127 0.9418 0.80226 0.0
H134 H 0.22408 0.99916 0.78831 0.0
O135 O 0.34044 0.03027 0.82103 0.0
H136 H 0.27272 0.1076 0.70352 0.0
H137 H 0.17911 0.93352 0.82143 0.0
Cu138 Cu 0.69873 0.08435 0.60878 0.0
N139 N 0.65918 0.08881 0.58685 0.0
N140 N 0.60452 0.07143 0.55641 0.0
C141 C 0.62425 0.0613 0.58149 0.0
C142 C 0.62757 0.10674 0.54611 0.0
C143 C 0.66118 0.11739 0.56493 0.0
O144 O 0.71659 0.06758 0.56037 0.0
C145 C 0.70273 0.05367 0.68957 0.0
O146 O 0.73809 0.0732 0.68439 0.0
H147 H 0.6142 0.03362 0.59309 0.0
H148 H 0.68599 0.14333 0.56046 0.0
N149 N 0.73834 0.12993 0.62745 0.0
N150 N 0.79352 0.16941 0.65544 0.0
C151 C 0.77319 0.13753 0.63355 0.0
C152 C 0.73699 0.15855 0.64531 0.0
C153 C 0.77096 0.18295 0.66249 0.0
C154 C 0.69522 0.04445 0.53231 0.0
O155 O 0.65999 0.0265 0.53899 0.0
H156 H 0.78273 0.11869 0.62507 0.0
H157 H 0.71244 0.16035 0.64817 0.0
O158 O 0.68128 0.05233 0.65957 0.0
H159 H 0.62108 0.12297 0.52461 0.0
H160 H 0.77791 0.20746 0.68119 0.0
Cu161 Cu 0.97777 0.63832 0.60735 0.0
N162 N 0.97761 0.5942 0.59527 0.0
N163 N 0.99735 0.5573 0.56932 0.0
C164 C 1.00585 0.5923 0.5779 0.0
C165 C 0.96253 0.53623 0.58204 0.0
C166 C 0.95042 0.55907 0.59812 0.0
O167 O 0.99723 0.66847 0.55634 0.0
C168 C 0.99241 0.64215 0.69449 0.0
O169 O 0.96208 0.61027 0.69216 0.0
H170 H 0.03191 0.61617 0.5708 0.0
H171 H 0.92353 0.55064 0.61034 0.0
N172 N 0.93168 0.63339 0.61749 0.0
N173 N 0.89105 0.64843 0.64188 0.0
C174 C 0.92657 0.65806 0.63998 0.0
C175 C 0.89809 0.60746 0.60426 0.0
C176 C 0.87291 0.61667 0.61939 0.0
C177 C 0.98048 0.65373 0.52115 0.0
O178 O 0.95184 0.62054 0.52169 0.0
H179 H 0.94853 0.68275 0.65457 0.0
H180 H 0.8923 0.58375 0.58468 0.0
O181 O 1.00597 0.65999 0.65997 0.0
H182 H 0.94693 0.50654 0.57942 0.0
H183 H 0.84366 0.6014 0.61425 0.0
Cu184 Cu 0.42858 0.36158 0.61754 0.0
N185 N 0.47401 0.40224 0.60313 0.0
N186 N 0.51331 0.45743 0.5762 0.0
C187 C 0.47796 0.43154 0.58075 0.0
C188 C 0.53256 0.44436 0.59692 0.0
C189 C 0.50822 0.4103 0.61365 0.0
O190 O 0.39762 0.35263 0.56653 0.0
C191 C 0.38261 0.35947 0.68741 0.0
O192 O 0.35536 0.33132 0.66772 0.0
H193 H 0.45528 0.43399 0.56832 0.0
H194 H 0.51502 0.39301 0.63272 0.0
N195 N 0.43015 0.31843 0.63125 0.0
N196 N 0.41332 0.26255 0.65787 0.0
C197 C 0.4039 0.28863 0.65171 0.0
C198 C 0.45694 0.31056 0.62402 0.0
C199 C 0.44665 0.27615 0.64042 0.0
C200 C 0.4091 0.34639 0.53132 0.0
O201 O 0.43878 0.34372 0.5321 0.0
H202 H 0.37825 0.28584 0.66179 0.0
H203 H 0.48212 0.32843 0.60771 0.0
O204 O 0.4137 0.3764 0.66971 0.0
H205 H 0.562 0.45858 0.6 0.0
H206 H 0.46218 0.262 0.63926 0.0
Cu207 Cu 0.69978 0.63311 0.10419 0.0
N208 N 0.65624 0.58862 0.09261 0.0
N209 N 0.59982 0.55054 0.06717 0.0
C210 C 0.62705 0.58577 0.071 0.0
C211 C 0.61207 0.53032 0.08737 0.0
C212 C 0.64684 0.55389 0.10317 0.0
O213 O 0.70999 0.66312 0.05298 0.0
C214 C 0.69316 0.64072 0.19179 0.0
O215 O 0.69662 0.61128 0.19194 0.0
H216 H 0.62571 0.60906 0.05837 0.0
H217 H 0.66393 0.5462 0.12122 0.0
N218 N 0.7413 0.62862 0.11533 0.0
N219 N 0.79691 0.64431 0.14102 0.0
C220 C 0.77231 0.65533 0.13387 0.0
C221 C 0.74684 0.59986 0.10996 0.0
C222 C 0.78116 0.60947 0.12594 0.0
C223 C 0.71299 0.6489 1.018 0.0
O224 O 0.70938 0.61591 1.01865 0.0
H225 H 0.77641 0.6821 0.14294 0.0
H226 H 0.72718 0.57359 0.09611 0.0
O227 O 0.69302 0.65542 0.15598 0.0
H228 H 0.5969 0.5007 0.09049 0.0
H229 H 0.79334 0.59208 0.12717 0.0
Cu230 Cu 0.42724 0.08594 0.10202 0.0
N231 N 0.472 0.09236 0.08181 0.0
N232 N 0.51067 0.07595 0.05396 0.0
C233 C 0.4808 0.06555 0.07827 0.0
C234 C 0.52163 0.11084 0.04235 0.0
C235 C 0.49776 0.12092 0.05961 0.0
O236 O 0.39209 0.06297 0.05431 0.0
C237 C 0.38935 0.05096 0.1803 0.0
O238 O 0.36288 0.05598 0.16598 0.0
H239 H 0.46409 0.03802 0.09052 0.0
H240 H 0.49771 0.1463 0.05379 0.0
N241 N 0.42785 0.13086 0.11088 0.0
N242 N 0.40743 0.16811 0.13458 0.0
C243 C 0.41477 0.14104 0.14475 0.0
C244 C 0.42944 0.15288 0.07858 0.0
C245 C 0.4169 0.17571 0.09298 0.0
C246 C 0.39189 0.04021 0.02677 0.0
O247 O 0.41123 0.02414 0.03381 0.0
H248 H 0.40744 0.12679 0.17499 0.0
H249 H 0.43599 0.15012 0.0457 0.0
O250 O 0.41697 0.05948 0.15683 0.0
H251 H 0.54392 0.12699 1.02082 0.0
H252 H 0.41281 0.19479 0.07364 0.0
Cu253 Cu 0.97909 0.3556 0.10985 0.0
N254 N 0.97767 0.39893 0.09804 0.0
N255 N 0.99613 0.45501 0.07133 0.0
C256 C 1.00551 0.42935 0.08057 0.0
C257 C 0.96117 0.44049 0.08379 0.0
C258 C 0.94988 0.40594 0.10044 0.0
O259 O 0.99865 0.34552 0.05819 0.0
C260 C 0.99428 0.36623 0.19722 0.0
O261 O 0.96244 0.36463 0.19621 0.0
H262 H 0.03182 0.4322 0.07353 0.0
H263 H 0.92308 0.38706 0.11254 0.0
N264 N 0.93368 0.31341 0.12061 0.0
N265 N 0.89447 0.25753 0.14591 0.0
C266 C 0.92981 0.28359 0.14172 0.0
C267 C 0.89945 0.30552 0.1105 0.0
C268 C 0.87517 0.27106 0.12628 0.0
C269 C 0.9808 0.34183 1.02348 0.0
O270 O 0.95091 0.34406 0.02493 0.0
H271 H 0.95249 0.28119 0.15422 0.0
H272 H 0.89253 0.32341 0.0929 0.0
O273 O 1.00829 0.36373 0.162 0.0
H274 H 0.94487 0.4537 0.08039 0.0
H275 H 0.8457 0.25711 0.1238 0.0
Cu276 Cu 0.3616 0.41497 0.94572 0.0
N277 N 0.40521 0.45962 0.95624 0.0
N278 N 0.46152 0.49752 0.98206 0.0
C279 C 0.4356 0.46225 0.97438 0.0
C280 C 0.44716 0.51802 0.96799 0.0
C281 C 0.41244 0.49458 0.95195 0.0
O282 O 0.3521 0.38701 0.99887 0.0
C283 C 0.37187 0.40848 0.85899 0.0
O284 O 0.37317 0.44045 0.85967 0.0
H285 H 0.43828 0.43871 0.98297 0.0
H286 H 0.39357 0.50249 0.93901 0.0
N287 N 0.32014 0.41939 0.93355 0.0
N288 N 0.26511 0.40431 0.90629 0.0
C289 C 0.29083 0.39439 0.91065 0.0
C290 C 0.31228 0.44579 0.94458 0.0
C291 C 0.27832 0.43656 0.92769 0.0
C292 C 0.35049 0.40308 0.0331 0.0
O293 O 0.35436 0.43609 0.03047 0.0
H294 H 0.28846 0.36941 0.89724 0.0
H295 H 0.32988 0.46999 0.96358 0.0
O296 O 0.36799 0.39162 0.8944 0.0
H297 H 0.46058 0.54773 0.96993 0.0
H298 H 0.26448 0.45232 0.93064 0.0
Cu299 Cu 0.64299 0.96654 0.94226 0.0
N300 N 0.63602 0.92071 0.92255 0.0
N301 N 0.65052 0.88049 0.89374 0.0
C302 C 0.66245 0.91181 0.91698 0.0
C303 C 0.61506 0.86873 0.88505 0.0
C304 C 0.6062 0.89354 0.90283 0.0
O305 O 0.6582 0.99951 0.8923 0.0
C306 C 0.6776 1.00238 1.02213 0.0
O307 O 0.65921 0.01981 1.01821 0.0
H308 H 0.69064 0.92955 0.92656 0.0
H309 H 0.58059 0.89321 0.89895 0.0
N310 N 0.59946 0.96332 0.96233 0.0
N311 N 0.56216 0.98201 0.98905 0.0
C312 C 0.5931 0.99173 0.96712 0.0
C313 C 0.57121 0.9346 0.98147 0.0
C314 C 0.54813 0.94604 0.99793 0.0
C315 C 0.677 0.99731 0.86168 0.0
O316 O 0.6918 0.97647 0.86592 0.0
H317 H 0.6119 0.01954 0.95709 0.0
H318 H 0.56862 0.90777 0.98527 0.0
O319 O 0.6768 0.98137 0.99178 0.0
H320 H 0.5976 0.84531 0.86479 0.0
H321 H 0.52397 0.92979 1.01683 0.0
Cu322 Cu 0.09352 0.6875 0.93842 0.0
N323 N 0.09812 0.64719 0.95667 0.0
N324 N 0.08189 0.59262 0.98637 0.0
C325 C 0.07118 0.61697 0.97555 0.0
C326 C 0.11683 0.60781 0.97364 0.0
C327 C 0.12679 0.64149 0.95521 0.0
O328 O 0.07144 0.69907 0.98644 0.0
C329 C 0.04975 0.68857 0.86769 0.0
O330 O 0.04939 0.71603 0.88772 0.0
H331 H 0.0442 0.61289 0.98134 0.0
H332 H 0.15306 0.66043 0.94182 0.0
N333 N 0.13785 0.73047 0.92556 0.0
N334 N 0.17561 0.78679 0.90009 0.0
C335 C 0.141 0.75855 0.90121 0.0
C336 C 0.17186 0.74171 0.9405 0.0
C337 C 0.19523 0.77646 0.92478 0.0
C338 C 0.08897 0.70602 1.02202 0.0
O339 O 0.12 0.70597 1.02339 0.0
H340 H 0.11834 0.75884 0.88535 0.0
H341 H 0.17905 0.72624 0.96227 0.0
O342 O 0.06478 0.67212 0.88542 0.0
H343 H 0.13387 0.59546 0.97755 0.0
H344 H 0.22414 0.79317 0.93164 0.0
Cu345 Cu 0.36614 0.9675 0.43499 0.0
N346 N 0.3268 0.92206 0.41535 0.0
N347 N 0.27158 0.88226 0.38771 0.0
C348 C 0.2916 0.9137 0.41055 0.0
C349 C 0.29481 0.87001 0.3783 0.0
C350 C 0.32876 0.89452 0.3954 0.0
O351 O 0.38322 1.00036 0.38485 0.0
C352 C 0.36927 1.00441 0.51411 0.0
O353 O 0.40461 0.02219 0.50817 0.0
H354 H 0.28152 0.93173 0.42065 0.0
H355 H 0.35368 0.89364 0.39105 0.0
N356 N 0.40617 0.96314 0.45533 0.0
N357 N 0.46128 0.98041 0.48438 0.0
C358 C 0.44087 0.99095 0.46129 0.0
C359 C 0.40503 0.93393 0.47476 0.0
C360 C 0.43894 0.94449 0.49267 0.0
C361 C 0.36158 0.99962 0.35549 0.0
O362 O 0.32627 0.98059 0.36143 0.0
H363 H 0.45031 0.01899 0.45145 0.0
H364 H 0.38063 0.90743 0.47809 0.0
O365 O 0.34812 0.98275 0.48478 0.0
H366 H 0.28822 0.8463 0.35821 0.0
H367 H 0.4461 0.9277 0.51228 0.0
Cu368 Cu 0.09835 0.42484 0.43967 0.0
N369 N 0.10422 0.46979 0.46035 0.0
N370 N 0.08792 0.50791 0.49098 0.0
C371 C 0.07702 0.47742 0.46652 0.0
C372 C 0.1234 0.52029 0.50021 0.0
C373 C 0.13338 0.49673 0.48129 0.0
O374 O 0.08233 0.39176 0.48876 0.0
C375 C 0.05742 0.3811 0.36758 0.0
O376 O 0.06778 0.35792 0.38043 0.0
H377 H 0.04911 0.45951 0.45609 0.0
H378 H 0.15925 0.49762 0.48527 0.0
N379 N 0.14201 0.42866 0.41948 0.0
N380 N 0.17953 0.41108 0.39096 0.0
C381 C 0.14791 0.40028 0.41178 0.0
C382 C 0.17112 0.45839 0.40306 0.0
C383 C 0.19437 0.44763 0.38554 0.0
C384 C 0.05644 0.38769 0.51304 0.0
O385 O 0.03568 0.40134 0.50161 0.0
H386 H 0.12875 0.372 0.41967 0.0
H387 H 0.17434 0.48564 0.40204 0.0
O388 O 0.0651 0.40942 0.39035 0.0
H389 H 0.14013 0.54326 0.52143 0.0
H390 H 0.21943 0.46491 0.36858 0.0
Cu391 Cu 0.64051 0.68768 0.43501 0.0
N392 N 0.63513 0.72721 0.41521 0.0
N393 N 0.6524 0.78178 0.38471 0.0
C394 C 0.66261 0.7621 0.40972 0.0
C395 C 0.61714 0.7587 0.37437 0.0
C396 C 0.60659 0.72507 0.39309 0.0
O397 O 0.65574 0.67054 0.38524 0.0
C398 C 0.66333 0.71266 0.51764 0.0
O399 O 0.63242 0.71297 0.51635 0.0
H400 H 0.69027 0.77204 0.42101 0.0
H401 H 0.58089 0.70003 0.38789 0.0
N402 N 0.59739 0.6472 0.45528 0.0
N403 N 0.56222 0.59341 0.48785 0.0
C404 C 0.59533 0.61629 0.47125 0.0
C405 C 0.56436 0.64366 0.46218 0.0
C406 C 0.54257 0.61042 0.48219 0.0
C407 C 0.68197 0.69204 0.36126 0.0
O408 O 0.70339 0.72642 0.37302 0.0
H409 H 0.61806 0.61122 0.47203 0.0
H410 H 0.55704 0.66435 0.45481 0.0
O411 O 0.6742 0.7038 0.48384 0.0
H412 H 0.60097 0.76505 0.35261 0.0
H413 H 0.51488 0.60004 0.49301 0.0
C414 C 0.03492 0.69683 0.1237 0.0
C415 C 0.05841 0.73124 0.14396 0.0
C416 C 0.09756 0.75084 0.08038 0.0
C417 C 0.07604 0.71535 0.06184 0.0
N418 N 0.02733 0.65262 0.06823 0.0
N419 N 0.11573 0.78831 0.14522 0.0
C420 C 0.04546 0.6878 0.08407 0.0
C421 C 0.09072 0.75756 0.12323 0.0
N422 N 1.00192 0.67332 0.14141 0.0
N423 N 0.12401 0.77845 0.05652 0.0
H424 H 0.11226 0.79368 0.17711 0.0
H425 H 0.14149 0.80661 0.13344 0.0
H426 H 0.12948 0.77459 0.02483 0.0
H427 H 0.13808 0.80585 0.06655 0.0
H428 H 0.98182 0.64991 0.12566 0.0
H429 H 0.99344 0.67859 0.17063 0.0
H430 H 1.00779 0.63036 0.08549 0.0
H431 H 0.03367 0.64516 0.0389 0.0
C432 C 0.30948 0.37627 0.09638 0.0
C433 C 0.34258 0.38487 0.07572 0.0
C434 C 0.36135 0.36262 0.13864 0.0
C435 C 0.32888 0.35561 0.16003 0.0
N436 N 0.27688 0.36452 0.16353 0.0
N437 N 0.40317 0.39314 0.08001 0.0
C438 C 0.3044 0.36508 0.14008 0.0
C439 C 0.36945 0.38002 0.09767 0.0
N440 N 0.2823 0.37759 0.07373 0.0
N441 N 0.38371 0.35131 0.15647 0.0
H442 H 0.40983 0.40537 0.04984 0.0
H443 H 0.42533 0.39448 0.09653 0.0
H444 H 0.37964 0.33976 0.1869 0.0
H445 H 0.40509 0.35131 0.14003 0.0
H446 H 0.25611 0.36786 0.08557 0.0
H447 H 0.28481 0.38526 0.04151 0.0
H448 H 0.26025 0.37451 0.1522 0.0
H449 H 0.27317 0.35769 0.19606 0.0
C450 C 0.68607 0.98132 0.13991 0.0
C451 C 0.72348 1.00669 0.14837 0.0
C452 C 0.7317 0.02527 0.07221 0.0
C453 C 0.6938 1.00239 0.06482 0.0
N454 N 0.63381 0.96086 0.09193 0.0
N455 N 0.78069 0.0573 0.12414 0.0
C456 C 0.67066 0.98117 0.09885 0.0
C457 C 0.74602 0.02977 0.11485 0.0
N458 N 0.66572 0.95598 0.17028 0.0
N459 N 0.75413 0.04248 0.03833 0.0
H460 H 0.79222 0.06198 0.15481 0.0
H461 H 0.79698 0.07764 0.10244 0.0
H462 H 0.74442 0.04057 1.00694 0.0
H463 H 0.78249 0.05616 0.0406 0.0
H464 H 0.63953 0.93411 0.16449 0.0
H465 H 0.67605 0.95485 0.20043 0.0
H466 H 0.61499 0.94872 0.11649 0.0
H467 H 0.62172 0.95777 0.0617 0.0
C468 C 0.69963 0.05921 0.45379 0.0
C469 C 0.7086 0.04316 0.48856 0.0
C470 C 0.73684 0.02015 0.43784 0.0
C471 C 0.72167 0.03004 0.40292 0.0
N472 N 0.68725 0.05791 0.37729 0.0
N473 N 0.73505 1.00744 0.51417 0.0
C474 C 0.70304 0.0497 0.41073 0.0
C475 C 0.72737 0.02365 0.48079 0.0
N476 N 0.68881 0.08436 0.46205 0.0
N477 N 0.7613 1.00859 0.42986 0.0
H478 H 0.72947 1.01046 0.54609 0.0
H479 H 0.74484 0.98923 0.50997 0.0
H480 H 0.77002 1.00743 0.39886 0.0
H481 H 0.7757 1.00387 0.45393 0.0
H482 H 0.68501 0.09955 0.43822 0.0
H483 H 0.6871 0.09262 0.49321 0.0
H484 H 0.66963 0.0683 0.38149 0.0
H485 H 0.68983 0.05202 0.34531 0.0
C486 C 1.02403 0.68129 0.45948 0.0
C487 C 0.99111 0.67382 0.47986 0.0
C488 C 0.97251 0.69446 0.41569 0.0
C489 C 1.00678 0.70505 0.39686 0.0
N490 N 0.06755 0.71387 0.40311 0.0
N491 N 0.93683 0.67904 0.48081 0.0
C492 C 0.03322 0.69984 0.41931 0.0
C493 C 0.96611 0.682 0.45888 0.0
N494 N 0.04585 0.66945 0.47768 0.0
N495 N 0.94562 0.69522 0.39174 0.0
H496 H 0.93156 0.67055 0.51273 0.0
H497 H 0.91973 0.68824 0.46885 0.0
H498 H 0.94915 0.70368 0.35976 0.0
H499 H 0.91884 0.68425 0.40208 0.0
H500 H 0.0679 0.67018 0.462 0.0
H501 H 0.04031 0.65627 0.50729 0.0
H502 H 0.08923 0.71482 0.42033 0.0
H503 H 0.07513 0.72713 0.37357 0.0
C504 C 0.4137 0.37079 0.45643 0.0
C505 C 0.39197 0.34567 0.48885 0.0
C506 C 0.33992 0.31793 0.43825 0.0
C507 C 0.36279 0.34082 0.40502 0.0
N508 N 0.42245 0.38547 0.38048 0.0
N509 N 0.33578 0.292 0.50909 0.0
C510 C 0.39999 0.36617 0.41355 0.0
C511 C 0.35532 0.31846 0.47946 0.0
N512 N 0.4469 0.40022 0.46706 0.0
N513 N 0.30336 0.29594 0.43051 0.0
H514 H 0.34607 0.29143 0.53948 0.0
H515 H 0.31046 0.26902 0.50254 0.0
H516 H 0.29142 0.2934 0.40028 0.0
H517 H 0.28448 0.28202 0.45454 0.0
H518 H 0.46219 0.42176 0.4462 0.0
H519 H 0.45761 0.40505 0.49816 0.0
H520 H 0.45071 0.40123 0.38365 0.0
H521 H 0.41314 0.38337 0.34885 0.0
C522 C 0.97506 0.29419 0.91722 0.0
C523 C 1.00806 0.32011 0.89741 0.0
C524 C 1.02325 0.36119 0.96026 0.0
C525 C 0.99201 0.33367 0.98157 0.0
N526 N 0.94125 0.2717 0.98337 0.0
N527 N 0.06611 0.37623 0.90198 0.0
C528 C 0.96875 0.29952 0.96085 0.0
C529 C 0.03283 0.35316 0.91937 0.0
N530 N 0.94909 0.26512 0.89374 0.0
N531 N 0.04303 0.39545 0.97833 0.0
H532 H 0.07377 0.37178 0.87178 0.0
H533 H 0.08705 0.39835 0.91866 0.0
H534 H 0.03732 0.40212 1.00853 0.0
H535 H 0.06334 0.41796 0.96215 0.0
H536 H 0.92294 0.24738 0.90492 0.0
H537 H 0.95237 0.26079 0.8614 0.0
H538 H 0.92576 0.24493 0.97156 0.0
H539 H 0.93606 0.27445 1.01555 0.0
C540 C 0.75547 0.67715 0.95628 0.0
C541 C 0.72264 0.6695 0.97698 0.0
C542 C 0.70766 0.69801 0.9172 0.0
C543 C 0.73884 0.70258 0.89491 0.0
N544 N 0.78896 0.69077 0.88958 0.0
N545 N 0.6646 0.66747 0.97456 0.0
C546 C 0.76176 0.69049 0.91345 0.0
C547 C 0.69793 0.67858 0.95679 0.0
N548 N 0.78136 0.67301 0.97823 0.0
N549 N 0.68818 0.7135 0.90149 0.0
H550 H 0.6567 0.65372 1.00375 0.0
H551 H 0.64377 0.6694 0.95888 0.0
H552 H 0.69408 0.72739 0.87236 0.0
H553 H 0.66793 0.71499 0.91878 0.0
H554 H 0.80741 0.68177 0.96653 0.0
H555 H 0.77812 0.6641 1.01 0.0
H556 H 0.80416 0.67877 0.89965 0.0
H557 H 0.79406 0.6999 0.85788 0.0
C558 C 0.34386 1.00528 0.97011 0.0
C559 C 0.37612 0.03761 0.98303 0.0
C560 C 0.3787 0.06523 0.91236 0.0
C561 C 0.34726 0.03224 0.89886 0.0
N562 N 0.30471 0.96821 0.91125 0.0
N563 N 0.42843 0.09561 0.96407 0.0
C564 C 0.33123 1.00149 0.92677 0.0
C565 C 0.39479 0.06682 0.95342 0.0
N566 N 0.32464 0.97862 0.99966 0.0
N567 N 0.39234 0.09553 0.88672 0.0
H568 H 0.4409 0.09804 0.99388 0.0
H569 H 0.44526 0.11558 0.94231 0.0
H570 H 0.38187 0.09513 0.85611 0.0
H571 H 0.41243 0.12164 0.89677 0.0
H572 H 0.29873 0.95631 0.99367 0.0
H573 H 0.33336 0.98035 0.03151 0.0
H574 H 0.29439 0.94383 0.9284 0.0
H575 H 0.29554 0.96435 0.87946 0.0
C576 C 0.32694 0.02481 0.61108 0.0
C577 C 0.34279 1.01456 0.6449 0.0
C578 C 0.36496 0.98716 0.59179 0.0
C579 C 0.35551 1.00386 0.5582 0.0
N580 N 0.32788 0.03927 0.5354 0.0
N581 N 0.3778 0.98658 0.66789 0.0
C582 C 0.33618 0.02254 0.56763 0.0
C583 C 0.36169 0.99546 0.63544 0.0
N584 N 0.30217 0.03565 0.62058 0.0
N585 N 0.3761 0.96254 0.58183 0.0
H586 H 0.37514 0.99142 0.70024 0.0
H587 H 0.39563 0.9766 0.66259 0.0
H588 H 0.37764 0.95511 0.55018 0.0
H589 H 0.38033 0.94694 0.6047 0.0
H590 H 0.28727 0.04053 0.59733 0.0
H591 H 0.29389 0.03618 0.652 0.0
H592 H 0.31766 0.05696 0.5409 0.0
H593 H 0.33334 0.03718 0.50316 0.0
C594 C 0.07813 0.37373 0.62866 0.0
C595 C 0.04426 0.34339 0.6409 0.0
C596 C 1.01947 0.3404 0.56829 0.0
C597 C 0.05258 0.37202 0.55676 0.0
N598 N 0.11047 0.42374 0.57879 0.0
N599 N 0.98035 0.30311 0.62575 0.0
C600 C 0.08114 0.39012 0.58773 0.0
C601 C 1.01423 0.32827 0.61164 0.0
N602 N 0.10781 0.38606 0.65542 0.0
N603 N 0.99351 0.32112 0.53748 0.0
H604 H 0.97548 0.29434 0.65752 0.0
H605 H 0.95664 0.29381 0.60734 0.0
H606 H 0.99648 0.32904 0.50533 0.0
H607 H 0.97054 0.29562 0.54292 0.0
H608 H 0.13421 0.40512 0.64618 0.0
H609 H 0.10653 0.37525 0.68592 0.0
H610 H 0.13009 0.44005 0.60169 0.0
H611 H 0.11356 0.437 0.54955 0.0
C612 C 0.69644 0.75614 0.57861 0.0
C613 C 0.68385 0.72119 0.55904 0.0
C614 C 0.70603 0.70184 0.6214 0.0
C615 C 0.7156 0.73562 0.64253 0.0
N616 N 0.71338 0.792 0.64469 0.0
N617 N 0.67059 0.65833 0.56485 0.0
C618 C 0.70902 0.762 0.62204 0.0
C619 C 0.68704 0.69334 0.5812 0.0
N620 N 0.69737 0.78413 0.55521 0.0
N621 N 0.71629 0.67845 0.63881 0.0
H622 H 0.65661 0.65096 0.5355 0.0
H623 H 0.66823 0.63596 0.58198 0.0
H624 H 0.7299 0.68344 0.66827 0.0
H625 H 0.71391 0.65559 0.62247 0.0
H626 H 0.70976 0.81126 0.5662 0.0
H627 H 0.68883 0.78098 0.52313 0.0
H628 H 0.70544 0.81021 0.63296 0.0
H629 H 0.72157 0.79673 0.67693 0.0
C630 C 0.39994 0.38301 0.80725 0.0
C631 C 0.3724 0.39191 0.81661 0.0
C632 C 0.35217 0.38056 0.74085 0.0
C633 C 0.37825 0.3696 0.73207 0.0
N634 N 0.42106 0.35205 0.75912 0.0
N635 N 0.31688 0.39062 0.7946 0.0
C636 C 0.40042 0.36837 0.76595 0.0
C637 C 0.3469 0.38813 0.78404 0.0
N638 N 0.42675 0.3902 0.83692 0.0
N639 N 0.33353 0.38538 0.70776 0.0
H640 H 0.31167 0.3954 0.82593 0.0
H641 H 0.29536 0.38425 0.7733 0.0
H642 H 0.3368 0.38046 0.67565 0.0
H643 H 0.31727 0.39738 0.71172 0.0
H644 H 0.44984 0.38829 0.83005 0.0
H645 H 0.42756 0.40105 0.8674 0.0
H646 H 0.43467 0.34678 0.78369 0.0
H647 H 0.42176 0.34049 0.72963 0.0
C648 C 0.66913 1.00052 0.74042 0.0
C649 C 0.68883 0.03889 0.7331 0.0
C650 C 0.69619 0.05079 0.81111 0.0
C651 C 0.67699 1.01241 0.81841 0.0
N652 N 0.63475 0.9518 0.7912 0.0
N653 N 0.70996 0.1 0.76084 0.0
C654 C 0.66017 0.98756 0.78334 0.0
C655 C 0.69888 0.06388 0.76835 0.0
N656 N 0.66034 0.97646 0.70671 0.0
N657 N 0.71315 0.07465 0.84461 0.0
H658 H 0.71066 0.10994 0.72993 0.0
H659 H 0.71474 0.11907 0.78518 0.0
H660 H 0.71106 0.06602 0.87639 0.0
H661 H 0.7311 0.10264 0.84053 0.0
H662 H 0.64981 0.9483 0.71062 0.0
H663 H 0.66578 0.98501 0.67483 0.0
H664 H 0.61922 0.93302 0.76711 0.0
H665 H 0.62656 0.94201 0.82228 0.0
C666 C 0.05946 0.68061 0.78942 0.0
C667 C 0.03574 0.67884 0.82273 0.0
C668 C 0.98649 0.66082 0.76956 0.0
C669 C 1.00862 0.65756 0.73755 0.0
N670 N 0.0648 0.65942 0.71865 0.0
N671 N 0.97508 0.66228 0.84557 0.0
C672 C 0.04485 0.66634 0.74781 0.0
C673 C 0.99884 0.66777 0.81307 0.0
N674 N 0.0962 0.69715 0.79703 0.0
N675 N 0.9541 0.65846 0.75817 0.0
H676 H 0.98289 0.66662 0.87791 0.0
H677 H 0.947 0.65025 0.84083 0.0
H678 H 0.9445 0.65424 0.72655 0.0
H679 H 0.93863 0.66444 0.77919 0.0
H680 H 0.11516 0.70276 0.77285 0.0
H681 H 0.10818 0.70862 0.82671 0.0
H682 H 0.08972 0.66129 0.72618 0.0
H683 H 0.0551 0.64873 0.68796 0.0
C684 C 0.65747 0.67193 0.28614 0.0
C685 C 0.68522 0.67992 0.3174 0.0
C686 C 0.72094 0.66935 0.26325 0.0
C687 C 0.69133 0.65707 0.23356 0.0
N688 N 0.62941 0.64217 0.21828 0.0
N689 N 0.74152 0.68238 0.33759 0.0
C690 C 0.65909 0.65733 0.2453 0.0
C691 C 0.71655 0.67773 0.30642 0.0
N692 N 0.63021 0.67951 0.29489 0.0
N693 N 0.75373 0.67421 0.24973 0.0
H694 H 0.73927 0.6887 0.36951 0.0
H695 H 0.76279 0.67702 0.33271 0.0
H696 H 0.75809 0.66902 0.21819 0.0
H697 H 0.77746 0.68663 0.26842 0.0
H698 H 0.61161 0.6782 0.27181 0.0
H699 H 0.62809 0.69033 0.32426 0.0
H700 H 0.60378 0.63759 0.22717 0.0
H701 H 0.62957 0.63147 0.18798 0.0
C702 C 0.36793 0.99956 0.23385 0.0
C703 C 0.38789 0.03769 0.22506 0.0
C704 C 0.39495 0.05154 0.30276 0.0
C705 C 0.37506 1.01337 0.31142 0.0
N706 N 0.35391 0.95161 0.28596 0.0
N707 N 0.42953 0.09911 0.2507 0.0
C708 C 0.36494 0.98751 0.27712 0.0
C709 C 0.40435 0.06346 0.25943 0.0
N710 N 0.35128 0.97484 0.201 0.0
N711 N 0.4037 0.07636 0.33561 0.0
H712 H 0.43821 0.10815 0.21957 0.0
H713 H 0.44469 0.11856 0.27437 0.0
H714 H 0.39801 0.06851 0.36769 0.0
H715 H 0.41444 0.10445 0.33083 0.0
H716 H 0.33282 0.94709 0.20594 0.0
H717 H 0.35422 0.98256 0.16877 0.0
H718 H 0.34918 0.93197 0.26237 0.0
H719 H 0.35317 0.9424 0.31726 0.0
C720 C 0.06254 0.40231 0.29112 0.0
C721 C 0.04161 0.37705 0.32373 0.0
C722 C 0.993 0.34142 0.271 0.0
C723 C 1.01206 0.3689 0.23964 0.0
N724 N 0.06273 0.42825 0.2215 0.0
N725 N 0.98523 0.32505 0.34648 0.0
C726 C 0.04635 0.40003 0.25004 0.0
C727 C 1.00639 0.3472 0.31411 0.0
N728 N 0.09834 0.42773 0.2989 0.0
N729 N 0.96272 0.30914 0.25918 0.0
H730 H 0.99424 0.32834 0.37838 0.0
H731 H 0.95779 0.30541 0.34249 0.0
H732 H 0.95246 0.30365 0.22784 0.0
H733 H 0.9498 0.28649 0.27927 0.0
H734 H 0.11613 0.44403 0.27502 0.0
H735 H 0.11127 0.43036 0.32846 0.0
H736 H 0.08555 0.45348 0.2292 0.0
H737 H 0.05185 0.42768 0.19112 0.0
C738 C 0.23135 0.87686 0.32623 0.0
C739 C 0.23538 0.86873 0.36948 0.0
C740 C 0.16855 0.83435 0.3766 0.0
C741 C 0.16468 0.84034 0.33245 0.0
N742 N 0.1918 0.86196 0.26341 0.0
N743 N 0.20868 0.83694 0.43487 0.0
C744 C 0.19599 0.86023 0.30678 0.0
C745 C 0.20412 0.84666 0.39443 0.0
N746 N 0.26145 0.9014 0.30422 0.0
N747 N 0.13819 0.81788 0.4016 0.0
H748 H 0.23446 0.84621 0.44857 0.0
H749 H 0.18734 0.81808 0.45369 0.0
H750 H 0.11203 0.80889 0.3893 0.0
H751 H 0.13895 0.81537 0.43481 0.0
H752 H 0.26041 0.91156 0.27408 0.0
H753 H 0.28744 0.91395 0.31796 0.0
H754 H 0.21344 0.87289 0.24201 0.0
H755 H 0.16624 0.84953 0.24832 0.0
C756 C 0.19608 0.3504 0.3146 0.0
C757 C 0.21933 0.34275 0.34018 0.0
C758 C 0.21494 0.37903 0.39994 0.0
C759 C 0.19277 0.38779 0.37384 0.0
N760 N 0.16322 0.38414 0.30635 0.0
N761 N 0.25354 0.35127 0.40534 0.0
C762 C 0.18361 0.37407 0.33106 0.0
C763 C 0.22945 0.35748 0.38246 0.0
N764 N 0.18553 0.33425 0.27488 0.0
N765 N 0.22145 0.39101 0.44171 0.0
H766 H 0.26379 0.33495 0.39353 0.0
H767 H 0.26485 0.36347 0.4349 0.0
H768 H 0.21179 0.40753 0.45463 0.0
H769 H 0.23472 0.38338 0.46421 0.0
H770 H 0.16652 0.33602 0.25512 0.0
H771 H 0.19495 0.31744 0.26221 0.0
H772 H 0.15753 0.37778 0.27385 0.0
H773 H 0.1529 0.40039 0.31827 0.0
C774 C 0.70794 0.8851 0.37363 0.0
C775 C 0.72032 0.88823 0.33068 0.0
C776 C 0.69008 0.8208 0.32475 0.0
C777 C 0.6758 0.81772 0.36668 0.0
N778 N 0.66764 0.8458 0.42972 0.0
N779 N 0.72112 0.8601 0.26379 0.0
C780 C 0.68385 0.84965 0.39077 0.0
C781 C 0.71075 0.85626 0.30579 0.0
N782 N 0.72012 0.91616 0.3982 0.0
N783 N 0.6846 0.78973 0.30378 0.0
H784 H 0.7368 0.88583 0.24976 0.0
H785 H 0.71252 0.83822 0.2422 0.0
H786 H 0.6696 0.7636 0.31704 0.0
H787 H 0.69675 0.78982 0.27477 0.0
H788 H 0.71517 0.91614 0.43093 0.0
H789 H 0.73741 0.94226 0.38615 0.0
H790 H 0.66924 0.86762 0.44757 0.0
H791 H 0.65049 0.82009 0.44306 0.0
C792 C 0.85386 0.18608 0.23322 0.0
C793 C 0.85432 0.15591 0.21309 0.0
C794 C 0.87891 0.19223 0.1474 0.0
C795 C 0.88037 0.22302 0.16838 0.0
N796 N 0.87271 0.25122 0.23175 0.0
N797 N 0.86975 0.13024 0.15322 0.0
C798 C 0.86866 0.22042 0.21148 0.0
C799 C 0.8675 0.159 0.17065 0.0
N800 N 0.83856 0.18141 0.27289 0.0
N801 N 0.88777 0.19482 0.10491 0.0
H802 H 0.86109 0.10563 0.16958 0.0
H803 H 0.88186 0.13124 0.12388 0.0
H804 H 0.89651 0.219 0.0876 0.0
H805 H 0.88449 0.17276 0.0861 0.0
H806 H 0.83405 0.20089 0.28819 0.0
H807 H 0.82827 0.15677 0.28964 0.0
H808 H 0.86821 0.25265 0.26436 0.0
H809 H 0.88288 0.2764 0.2162 0.0
C810 C 0.8346 0.65891 0.20744 0.0
C811 C 0.83173 0.66482 0.16304 0.0
C812 C 0.89636 0.71315 0.16268 0.0
C813 C 0.89955 0.70629 0.20664 0.0
N814 N 0.87381 0.67103 0.27035 0.0
N815 N 0.8595 0.69431 0.09694 0.0
C816 C 0.86916 0.67864 0.22888 0.0
C817 C 0.8626 0.69115 0.14026 0.0
N818 N 0.80387 0.63505 0.2291 0.0
N819 N 0.92567 0.74125 0.14287 0.0
H820 H 0.83496 0.67865 0.08019 0.0
H821 H 0.88129 0.71066 0.07711 0.0
H822 H 0.95075 0.75702 0.15851 0.0
H823 H 0.9249 0.75025 0.11197 0.0
H824 H 0.8028 0.63166 0.26226 0.0
H825 H 0.77849 0.61998 0.2139 0.0
H826 H 0.85401 0.64914 0.28776 0.0
H827 H 0.89866 0.6857 0.28681 0.0
C828 C 0.38025 0.23465 0.17971 0.0
C829 C 0.34874 0.21111 0.20377 0.0
C830 C 0.35429 0.15833 0.17922 0.0
C831 C 0.38836 0.18239 0.15993 0.0
N832 N 0.43768 0.24446 0.15159 0.0
N833 N 0.31158 0.15139 0.23488 0.0
C834 C 0.40259 0.22092 0.16335 0.0
C835 C 0.33763 0.17318 0.20622 0.0
N836 N 0.38755 0.26929 0.16974 0.0
N837 N 0.3364 0.12167 0.16948 0.0
H838 H 0.30005 0.1618 0.25637 0.0
H839 H 0.30461 0.12417 0.24043 0.0
H840 H 0.34571 0.11024 0.14649 0.0
H841 H 0.31013 0.10357 0.18012 0.0
H842 H 0.40854 0.28644 0.14926 0.0
H843 H 0.3699 0.27899 0.17744 0.0
H844 H 0.45036 0.2728 0.15672 0.0
H845 H 0.45516 0.23522 0.14119 0.0
C846 C 0.83303 0.18006 0.71974 0.0
C847 C 0.82934 0.18241 0.67459 0.0
C848 C 0.89557 0.20822 0.66712 0.0
C849 C 0.89949 0.20918 0.71249 0.0
N850 N 0.87314 0.20019 0.78254 0.0
N851 N 0.85707 0.20216 0.60552 0.0
C852 C 0.86847 0.19624 0.73896 0.0
C853 C 0.86068 0.19736 0.64829 0.0
N854 N 0.80251 0.16093 0.74392 0.0
N855 N 0.92515 0.21676 0.6422 0.0
H856 H 0.83183 0.19441 0.59117 0.0
H857 H 0.87909 0.21615 0.58505 0.0
H858 H 0.95082 0.22467 0.65541 0.0
H859 H 0.92381 0.21351 0.60891 0.0
H860 H 0.80308 0.15501 0.77629 0.0
H861 H 0.77641 0.14804 0.73043 0.0
H862 H 0.85214 0.19486 0.80374 0.0
H863 H 0.89878 0.21148 0.7973 0.0
C864 C 0.87252 0.69594 0.64157 0.0
C865 C 0.87586 0.66823 0.66363 0.0
C866 C 0.85305 0.68198 0.72966 0.0
C867 C 0.84846 0.70876 0.70717 0.0
N868 N 0.84979 0.73915 0.64151 0.0
N869 N 0.86619 0.63165 0.72646 0.0
C870 C 0.85709 0.71513 0.66295 0.0
C871 C 0.86519 0.66035 0.70716 0.0
N872 N 0.88487 0.70418 0.60038 0.0
N873 N 0.84636 0.67796 0.77278 0.0
H874 H 0.87548 0.61591 0.71067 0.0
H875 H 0.85612 0.62206 0.75696 0.0
H876 H 0.83666 0.69293 0.78951 0.0
H877 H 0.85212 0.66147 0.79248 0.0
H878 H 0.88655 0.72621 0.58324 0.0
H879 H 0.89534 0.68978 0.58389 0.0
H880 H 0.85222 0.74304 0.60843 0.0
H881 H 0.83918 0.75393 0.65684 0.0
C882 C 0.36294 0.18849 0.7408 0.0
C883 C 0.34849 0.1564 0.71464 0.0
C884 C 0.37529 0.19481 0.65077 0.0
C885 C 0.39151 0.22675 0.67718 0.0
N886 N 0.40536 0.2543 0.74761 0.0
N887 N 0.34624 0.12831 0.64632 0.0
C888 C 0.38657 0.22365 0.72238 0.0
C889 C 0.35625 0.15943 0.67001 0.0
N890 N 0.35312 0.18523 0.78296 0.0
N891 N 0.37698 0.1985 0.60711 0.0
H892 H 0.33275 0.10225 0.65982 0.0
H893 H 0.35405 0.12839 0.61463 0.0
H894 H 0.3904 0.22408 0.59223 0.0
H895 H 0.36265 0.17665 0.58573 0.0
H896 H 0.35961 0.20756 0.80318 0.0
H897 H 0.33631 0.15977 0.79702 0.0
H898 H 0.40573 0.25386 0.78107 0.0
H899 H 0.42294 0.28009 0.73477 0.0
C900 C 0.20685 0.88735 0.88253 0.0
C901 C 0.21283 0.89011 0.83749 0.0
C902 C 0.19646 0.82496 0.83455 0.0
C903 C 0.18838 0.82173 0.879 0.0
N904 N 0.181 0.84767 0.94448 0.0
N905 N 0.2093 0.86122 0.76944 0.0
C906 C 0.19225 0.8524 0.90277 0.0
C907 C 0.20664 0.85877 0.81318 0.0
N908 N 0.21642 0.91848 0.90609 0.0
N909 N 0.19493 0.79569 0.81318 0.0
H910 H 0.2164 0.88556 0.7532 0.0
H911 H 0.20206 0.83883 0.74905 0.0
H912 H 0.18696 0.7706 0.82812 0.0
H913 H 0.20368 0.79681 0.78174 0.0
H914 H 0.21627 0.91924 0.93954 0.0
H915 H 0.22749 0.94442 0.89226 0.0
H916 H 0.17941 0.86771 0.96268 0.0
H917 H 0.17067 0.82248 0.96005 0.0
C918 C 0.19641 0.372 0.81461 0.0
C919 C 0.16459 0.34527 0.8356 0.0
C920 C 0.1995 0.35709 0.90322 0.0
C921 C 0.23098 0.38478 0.88262 0.0
N922 N 0.25938 0.42183 0.82079 0.0
N923 N 0.13397 0.31443 0.89999 0.0
C924 C 0.22938 0.39314 0.8388 0.0
C925 C 0.16566 0.33841 0.88005 0.0
N926 N 0.19498 0.37646 0.77129 0.0
N927 N 0.20241 0.34842 0.9448 0.0
H928 H 0.10917 0.29999 0.88339 0.0
H929 H 0.13161 0.31022 0.93302 0.0
H930 H 0.22664 0.36248 0.96256 0.0
H931 H 0.18171 0.32638 0.9611 0.0
H932 H 0.21766 0.39286 0.75268 0.0
H933 H 0.17091 0.36193 0.75334 0.0
H934 H 0.25967 0.43183 0.79016 0.0
H935 H 0.28388 0.43712 0.83771 0.0
C936 C 0.7016 0.85839 0.81019 0.0
C937 C 0.71529 0.83981 0.83541 0.0
C938 C 0.6842 0.84614 0.89883 0.0
C939 C 0.67274 0.86702 0.87425 0.0
N940 N 0.67497 0.89798 0.80856 0.0
N941 N 0.72344 0.8191 0.9043 0.0
C942 C 0.68268 0.87448 0.83041 0.0
C943 C 0.70753 0.83443 0.87997 0.0
N944 N 0.70563 0.85943 0.76659 0.0
N945 N 0.67197 0.83693 0.93991 0.0
H946 H 0.74061 0.81047 0.89118 0.0
H947 H 0.72175 0.81718 0.93764 0.0
H948 H 0.6553 0.84564 0.95429 0.0
H949 H 0.67625 0.81891 0.95869 0.0
H950 H 0.69324 0.8693 0.74563 0.0
H951 H 0.71897 0.84746 0.75099 0.0
H952 H 0.68457 0.90773 0.77792 0.0
H953 H 0.66132 0.91016 0.82273 0.0
C954 C 0.53426 0.49412 0.50961 0.0
C955 C 0.52733 0.49219 0.5543 0.0
C956 C 0.54779 0.5583 0.55577 0.0
C957 C 0.55119 0.55937 0.51039 0.0
N958 N 0.54424 0.52807 0.44316 0.0
N959 N 0.52437 0.52092 0.61987 0.0
C960 C 0.54364 0.52718 0.48704 0.0
C961 C 0.53328 0.52395 0.57739 0.0
N962 N 0.53257 0.46444 0.48913 0.0
N963 N 0.55972 0.59045 0.57816 0.0
H964 H 0.51462 0.49627 0.63651 0.0
H965 H 0.52442 0.54195 0.63784 0.0
H966 H 0.57097 0.61591 0.56306 0.0
H967 H 0.56128 0.59233 0.61157 0.0
H968 H 0.54048 0.4648 0.45743 0.0
H969 H 0.52565 0.44001 0.50509 0.0
H970 H 0.53556 0.50483 0.42376 0.0
H971 H 0.551 0.55193 0.42603 0.0
C972 C 0.5374 0.04386 0.56084 0.0
C973 C 0.5683 0.04798 0.53854 0.0
C974 C 0.52847 1.00925 0.4792 0.0
C975 C 0.49746 1.00378 0.50238 0.0
N976 N 0.47123 1.01295 0.56615 0.0
N977 N 0.59403 0.03285 0.47867 0.0
C978 C 0.50167 0.02036 0.54353 0.0
C979 C 0.56399 0.03016 0.4982 0.0
N980 N 0.54261 0.06323 0.59818 0.0
N981 N 0.52364 0.99477 0.43865 0.0
H982 H 0.62013 0.04845 0.49177 0.0
H983 H 0.59321 0.01834 0.45107 0.0
H984 H 0.49783 0.97883 0.42472 0.0
H985 H 0.54484 0.99995 0.41792 0.0
H986 H 0.52193 0.06447 0.61468 0.0
H987 H 0.56848 0.07986 0.61169 0.0
H988 H 0.47155 0.02108 0.59787 0.0
H989 H 0.44505 0.99679 0.55347 0.0
C990 C 0.05427 0.54221 0.48687 0.0
C991 C 0.06477 0.52011 0.51051 0.0
C992 C 0.03294 0.52498 0.57389 0.0
C993 C 1.02031 0.54496 0.54943 0.0
N994 N 1.01438 0.56839 0.48128 0.0
N995 N 0.05975 0.4854 0.5739 0.0
C996 C 0.02984 0.55254 0.50548 0.0
C997 C 0.05284 0.51006 0.55336 0.0
N998 N 0.06837 0.55379 0.4469 0.0
N999 N 0.02702 0.52154 0.61716 0.0
H1000 H 0.07419 0.47406 0.55959 0.0
H1001 H 0.04877 0.47395 0.60354 0.0
H1002 H 1.01306 0.53272 0.63303 0.0
H1003 H 0.03845 0.51045 0.63781 0.0
H1004 H 0.06491 0.57289 0.42925 0.0
H1005 H 0.08578 0.54599 0.43258 0.0
H1006 H 1.01747 0.57186 0.44817 0.0
H1007 H 0.99598 0.5756 0.49393 0.0
C1008 C 0.49825 0.51032 0.04908 0.0
C1009 C 0.49641 0.51059 1.00353 0.0
C1010 C 0.56282 0.53565 1.00007 0.0
C1011 C 0.5649 0.53719 0.04565 0.0
N1012 N 0.53618 0.53049 0.11385 0.0
N1013 N 0.52619 0.52565 0.93525 0.0
C1014 C 0.53294 0.52555 0.07026 0.0
C1015 C 0.5286 0.52398 0.97892 0.0
N1016 N 0.46662 0.49519 0.0719 0.0
N1017 N 0.59353 0.54423 0.97729 0.0
H1018 H 0.50128 0.51579 0.91909 0.0
H1019 H 0.54864 0.5383 0.91517 0.0
H1020 H 0.61873 0.55269 0.99213 0.0
H1021 H 0.59385 0.54085 0.94417 0.0
H1022 H 0.46525 0.4904 0.10481 0.0
H1023 H 0.44111 0.48544 0.05729 0.0
H1024 H 0.51471 0.52587 0.13385 0.0
H1025 H 0.56129 0.54181 0.12988 0.0
C1026 C 0.52637 1.01364 0.97934 0.0
C1027 C 0.54961 1.00619 1.00521 0.0
C1028 C 0.54861 0.04651 0.0624 0.0
C1029 C 0.52393 0.05249 0.0374 0.0
N1030 N 0.48632 0.03975 0.97426 0.0
N1031 N 0.58133 1.01285 0.07195 0.0
C1032 C 0.51206 0.03555 0.99632 0.0
C1033 C 0.56032 0.02195 0.047 0.0
N1034 N 0.51854 1.00002 0.93828 0.0
N1035 N 0.56132 0.06517 0.10047 0.0
H1036 H 0.59114 0.99596 0.06079 0.0
H1037 H 0.58771 0.02041 0.10411 0.0
H1038 H 0.55264 0.08283 0.11237 0.0
H1039 H 0.5817 0.06492 0.11916 0.0
H1040 H 0.50456 1.00682 0.91583 0.0
H1041 H 0.52798 0.98316 0.9258 0.0
H1042 H 0.47369 0.02568 0.94598 0.0
H1043 H 0.47589 0.05604 0.98573 0.0
C1044 C 0.05665 0.5572 0.05316 0.0
C1045 C 0.06049 0.55785 1.00786 0.0
C1046 C 1.02298 0.49034 1.00475 0.0
C1047 C 1.01808 0.48975 0.04991 0.0
N1048 N 0.02817 0.52149 0.11739 0.0
N1049 N 0.0454 0.5267 0.9396 0.0
C1050 C 0.03433 0.52299 0.07418 0.0
C1051 C 0.04324 0.52476 0.98342 0.0
N1052 N 0.07523 0.58943 0.07586 0.0
N1053 N 1.00819 0.45779 0.98251 0.0
H1054 H 0.06019 0.55158 0.92353 0.0
H1055 H 0.0312 0.50432 0.91895 0.0
H1056 H 0.99154 0.43247 0.99693 0.0
H1057 H 1.0134 0.45541 0.95037 0.0
H1058 H 0.07614 0.5914 0.10923 0.0
H1059 H 0.09147 0.61465 0.06099 0.0
H1060 H 0.03637 0.54442 0.13713 0.0
H1061 H 1.01341 0.49667 0.1336 0.0
loop_
_geom_bond_atom_site_label_1
_geom_bond_atom_site_label_2
_geom_bond_distance
_geom_bond_site_symmetry_2
_ccdc_geom_bond_type
Cu0 N1 1.999 . S
Cu0 O6 1.974 1_455 S
Cu0 N11 1.985 1_455 S
Cu0 O20 1.959 . S
N1 Cu0 1.999 . S
N1 C3 1.263 . S
N1 C5 1.389 . S
N2 C3 1.358 . S
N2 C4 1.400 . S
C3 N1 1.263 . S
C3 N2 1.358 . S
C3 H9 0.930 . S
C4 N2 1.400 . S
C4 C5 1.351 . S
C4 H21 0.930 . S
C5 N1 1.389 . S
C5 C4 1.351 . S
C5 H10 0.930 . S
O6 Cu0 1.974 1_655 S
O6 C16 1.282 . S
C7 O8 1.261 . S
C7 O20 1.251 . S
O8 C7 1.261 . S
H9 C3 0.930 . S
H10 C5 0.930 . S
N11 Cu0 1.985 1_655 S
N11 C13 1.335 . S
N11 C14 1.390 . S
N12 C13 1.345 . S
N12 C15 1.336 . S
C13 N11 1.335 . S
C13 N12 1.345 . S
C13 H18 0.930 . S
C14 N11 1.390 . S
C14 C15 1.346 . S
C14 H19 0.930 . S
C15 N12 1.336 . S
C15 C14 1.346 . S
C15 H22 0.929 . S
C16 O6 1.282 . S
C16 O17 1.216 . S
O17 C16 1.216 . S
H18 C13 0.930 . S
H19 C14 0.930 . S
O20 Cu0 1.959 . S
O20 C7 1.251 . S
H21 C4 0.930 . S
H22 C15 0.929 . S
Cu23 N24 1.999 . S
Cu23 O29 1.974 . S
Cu23 N34 1.985 . S
Cu23 O43 1.959 . S
N24 Cu23 1.999 . S
N24 C26 1.263 . S
N24 C28 1.389 . S
N25 C26 1.358 . S
N25 C27 1.400 . S
C26 N24 1.263 . S
C26 N25 1.358 . S
C26 H32 0.930 . S
C27 N25 1.400 . S
C27 C28 1.351 . S
C27 H44 0.930 . S
C28 N24 1.389 . S
C28 C27 1.351 . S
C28 H33 0.930 . S
O29 Cu23 1.974 . S
O29 C39 1.282 . S
C30 O31 1.261 . S
C30 O43 1.251 . S
O31 C30 1.261 . S
H32 C26 0.930 . S
H33 C28 0.930 . S
N34 Cu23 1.985 . S
N34 C36 1.335 . S
N34 C37 1.390 . S
N35 C36 1.345 . S
N35 C38 1.336 . S
C36 N34 1.335 . S
C36 N35 1.345 . S
C36 H41 0.930 . S
C37 N34 1.390 . S
C37 C38 1.346 . S
C37 H42 0.930 . S
C38 N35 1.336 . S
C38 C37 1.346 . S
C38 H45 0.929 . S
C39 O29 1.282 . S
C39 O40 1.216 . S
O40 C39 1.216 . S
H41 C36 0.930 . S
H42 C37 0.930 . S
O43 Cu23 1.959 . S
O43 C30 1.251 . S
H44 C27 0.930 . S
H45 C38 0.929 . S
Cu46 N47 1.999 1_545 S
Cu46 O52 1.974 . S
Cu46 N57 1.985 . S
Cu46 O66 1.959 1_545 S
N47 Cu46 1.999 1_565 S
N47 C49 1.263 . S
N47 C51 1.389 . S
N48 C49 1.358 . S
N48 C50 1.400 . S
C49 N47 1.263 . S
C49 N48 1.358 . S
C49 H55 0.930 . S
C50 N48 1.400 . S
C50 C51 1.351 . S
C50 H67 0.930 . S
C51 N47 1.389 . S
C51 C50 1.351 . S
C51 H56 0.930 . S
O52 Cu46 1.974 . S
O52 C62 1.282 . S
C53 O54 1.261 . S
C53 O66 1.251 . S
O54 C53 1.261 . S
H55 C49 0.930 . S
H56 C51 0.930 . S
N57 Cu46 1.985 . S
N57 C59 1.335 . S
N57 C60 1.390 . S
N58 C59 1.345 . S
N58 C61 1.336 . S
C59 N57 1.335 . S
C59 N58 1.345 . S
C59 H64 0.930 . S
C60 N57 1.390 . S
C60 C61 1.346 . S
C60 H65 0.930 . S
C61 N58 1.336 . S
C61 C60 1.346 . S
C61 H68 0.929 . S
C62 O52 1.282 . S
C62 O63 1.216 . S
O63 C62 1.216 . S
H64 C59 0.930 . S
H65 C60 0.930 . S
O66 Cu46 1.959 1_565 S
O66 C53 1.251 . S
H67 C50 0.930 . S
H68 C61 0.929 . S
Cu69 N70 1.999 1_455 S
Cu69 O75 1.974 . S
Cu69 N80 1.985 . S
Cu69 O89 1.959 1_455 S
N70 Cu69 1.999 1_655 S
N70 C72 1.263 . S
N70 C74 1.389 . S
N71 C72 1.358 . S
N71 C73 1.400 . S
C72 N70 1.263 . S
C72 N71 1.358 . S
C72 H78 0.930 . S
C73 N71 1.400 . S
C73 C74 1.351 . S
C73 H90 0.930 . S
C74 N70 1.389 . S
C74 C73 1.351 . S
C74 H79 0.930 . S
O75 Cu69 1.974 . S
O75 C85 1.282 . S
C76 O77 1.261 . S
C76 O89 1.251 . S
O77 C76 1.261 . S
H78 C72 0.930 . S
H79 C74 0.930 . S
N80 Cu69 1.985 . S
N80 C82 1.335 . S
N80 C83 1.390 . S
N81 C82 1.345 . S
N81 C84 1.336 . S
C82 N80 1.335 . S
C82 N81 1.345 . S
C82 H87 0.930 . S
C83 N80 1.390 . S
C83 C84 1.346 . S
C83 H88 0.930 . S
C84 N81 1.336 . S
C84 C83 1.346 . S
C84 H91 0.929 . S
C85 O75 1.282 . S
C85 O86 1.216 . S
O86 C85 1.216 . S
H87 C82 0.930 . S
H88 C83 0.930 . S
O89 Cu69 1.959 1_655 S
O89 C76 1.251 . S
H90 C73 0.930 . S
H91 C84 0.929 . S
Cu92 N93 1.999 . S
Cu92 O98 1.974 . S
Cu92 N103 1.985 . S
Cu92 O112 1.959 . S
N93 Cu92 1.999 . S
N93 C95 1.263 . S
N93 C97 1.389 . S
N94 C95 1.358 . S
N94 C96 1.400 . S
C95 N93 1.263 . S
C95 N94 1.358 . S
C95 H101 0.930 . S
C96 N94 1.400 . S
C96 C97 1.351 . S
C96 H113 0.930 . S
C97 N93 1.389 . S
C97 C96 1.351 . S
C97 H102 0.930 . S
O98 Cu92 1.974 . S
O98 C108 1.282 . S
C99 O100 1.261 . S
C99 O112 1.251 . S
O100 C99 1.261 . S
H101 C95 0.930 . S
H102 C97 0.930 . S
N103 Cu92 1.985 . S
N103 C105 1.335 . S
N103 C106 1.390 . S
N104 C105 1.345 . S
N104 C107 1.336 . S
C105 N103 1.335 . S
C105 N104 1.345 . S
C105 H110 0.930 . S
C106 N103 1.390 . S
C106 C107 1.346 . S
C106 H111 0.930 . S
C107 N104 1.336 . S
C107 C106 1.346 . S
C107 H114 0.929 . S
C108 O98 1.282 . S
C108 O109 1.216 . S
O109 C108 1.216 . S
H110 C105 0.930 . S
H111 C106 0.930 . S
O112 Cu92 1.959 . S
O112 C99 1.251 . S
H113 C96 0.930 . S
H114 C107 0.929 . S
Cu115 N116 1.999 . S
Cu115 O121 1.974 1_545 S
Cu115 N126 1.985 1_545 S
Cu115 O135 1.959 . S
N116 Cu115 1.999 . S
N116 C118 1.263 . S
N116 C120 1.389 . S
N117 C118 1.358 . S
N117 C119 1.400 . S
C118 N116 1.263 . S
C118 N117 1.358 . S
C118 H124 0.930 . S
C119 N117 1.400 . S
C119 C120 1.351 . S
C119 H136 0.930 . S
C120 N116 1.389 . S
C120 C119 1.351 . S
C120 H125 0.930 . S
O121 Cu115 1.974 1_565 S
O121 C131 1.282 . S
C122 O123 1.261 . S
C122 O135 1.251 . S
O123 C122 1.261 . S
H124 C118 0.930 . S
H125 C120 0.930 . S
N126 Cu115 1.985 1_565 S
N126 C128 1.335 . S
N126 C129 1.390 . S
N127 C128 1.345 . S
N127 C130 1.336 . S
C128 N126 1.335 . S
C128 N127 1.345 . S
C128 H133 0.930 . S
C129 N126 1.390 . S
C129 C130 1.346 . S
C129 H134 0.930 . S
C130 N127 1.336 . S
C130 C129 1.346 . S
C130 H137 0.929 . S
C131 O121 1.282 . S
C131 O132 1.216 . S
O132 C131 1.216 . S
H133 C128 0.930 . S
H134 C129 0.930 . S
O135 Cu115 1.959 . S
O135 C122 1.251 . S
H136 C119 0.930 . S
H137 C130 0.929 . S
Cu138 N139 1.999 . S
Cu138 O144 1.974 . S
Cu138 N149 1.985 . S
Cu138 O158 1.959 . S
N139 Cu138 1.999 . S
N139 C141 1.263 . S
N139 C143 1.389 . S
N140 C141 1.358 . S
N140 C142 1.400 . S
C141 N139 1.263 . S
C141 N140 1.358 . S
C141 H147 0.930 . S
C142 N140 1.400 . S
C142 C143 1.351 . S
C142 H159 0.930 . S
C143 N139 1.389 . S
C143 C142 1.351 . S
C143 H148 0.930 . S
O144 Cu138 1.974 . S
O144 C154 1.282 . S
C145 O146 1.261 . S
C145 O158 1.251 . S
O146 C145 1.261 . S
H147 C141 0.930 . S
H148 C143 0.930 . S
N149 Cu138 1.985 . S
N149 C151 1.335 . S
N149 C152 1.390 . S
N150 C151 1.345 . S
N150 C153 1.336 . S
C151 N149 1.335 . S
C151 N150 1.345 . S
C151 H156 0.930 . S
C152 N149 1.390 . S
C152 C153 1.346 . S
C152 H157 0.930 . S
C153 N150 1.336 . S
C153 C152 1.346 . S
C153 H160 0.929 . S
C154 O144 1.282 . S
C154 O155 1.216 . S
O155 C154 1.216 . S
H156 C151 0.930 . S
H157 C152 0.930 . S
O158 Cu138 1.959 . S
O158 C145 1.251 . S
H159 C142 0.930 . S
H160 C153 0.929 . S
Cu161 N162 1.999 . S
Cu161 O167 1.974 . S
Cu161 N172 1.985 . S
Cu161 O181 1.959 . S
N162 Cu161 1.999 . S
N162 C164 1.263 . S
N162 C166 1.389 . S
N163 C164 1.358 . S
N163 C165 1.400 . S
C164 N162 1.263 . S
C164 N163 1.358 . S
C164 H170 0.930 . S
C165 N163 1.400 . S
C165 C166 1.351 . S
C165 H182 0.930 . S
C166 N162 1.389 . S
C166 C165 1.351 . S
C166 H171 0.930 . S
O167 Cu161 1.974 . S
O167 C177 1.282 . S
C168 O169 1.261 1_655 S
C168 O181 1.251 . S
O169 C168 1.261 1_455 S
H170 C164 0.930 . S
H171 C166 0.930 . S
N172 Cu161 1.985 . S
N172 C174 1.335 . S
N172 C175 1.390 . S
N173 C174 1.345 . S
N173 C176 1.336 . S
C174 N172 1.335 . S
C174 N173 1.345 . S
C174 H179 0.930 . S
C175 N172 1.390 . S
C175 C176 1.346 . S
C175 H180 0.930 . S
C176 N173 1.336 . S
C176 C175 1.346 . S
C176 H183 0.929 . S
C177 O167 1.282 . S
C177 O178 1.216 . S
O178 C177 1.216 . S
H179 C174 0.930 . S
H180 C175 0.930 . S
O181 Cu161 1.959 . S
O181 C168 1.251 . S
H182 C165 0.930 . S
H183 C176 0.929 . S
Cu184 N185 1.999 . S
Cu184 O190 1.974 . S
Cu184 N195 1.985 . S
Cu184 O204 1.959 . S
N185 Cu184 1.999 . S
N185 C187 1.263 . S
N185 C189 1.389 . S
N186 C187 1.358 . S
N186 C188 1.400 . S
C187 N185 1.263 . S
C187 N186 1.358 . S
C187 H193 0.930 . S
C188 N186 1.400 . S
C188 C189 1.351 . S
C188 H205 0.930 . S
C189 N185 1.389 . S
C189 C188 1.351 . S
C189 H194 0.930 . S
O190 Cu184 1.974 . S
O190 C200 1.282 . S
C191 O192 1.261 . S
C191 O204 1.251 . S
O192 C191 1.261 . S
H193 C187 0.930 . S
H194 C189 0.930 . S
N195 Cu184 1.985 . S
N195 C197 1.335 . S
N195 C198 1.390 . S
N196 C197 1.345 . S
N196 C199 1.336 . S
C197 N195 1.335 . S
C197 N196 1.345 . S
C197 H202 0.930 . S
C198 N195 1.390 . S
C198 C199 1.346 . S
C198 H203 0.930 . S
C199 N196 1.336 . S
C199 C198 1.346 . S
C199 H206 0.929 . S
C200 O190 1.282 . S
C200 O201 1.216 . S
O201 C200 1.216 . S
H202 C197 0.930 . S
H203 C198 0.930 . S
O204 Cu184 1.959 . S
O204 C191 1.251 . S
H205 C188 0.930 . S
H206 C199 0.929 . S
Cu207 N208 1.999 . S
Cu207 O213 1.974 . S
Cu207 N218 1.985 . S
Cu207 O227 1.959 . S
N208 Cu207 1.999 . S
N208 C210 1.263 . S
N208 C212 1.389 . S
N209 C210 1.358 . S
N209 C211 1.400 . S
C210 N208 1.263 . S
C210 N209 1.358 . S
C210 H216 0.930 . S
C211 N209 1.400 . S
C211 C212 1.351 . S
C211 H228 0.930 . S
C212 N208 1.389 . S
C212 C211 1.351 . S
C212 H217 0.930 . S
O213 Cu207 1.974 . S
O213 C223 1.282 . S
C214 O215 1.261 . S
C214 O227 1.251 . S
O215 C214 1.261 . S
H216 C210 0.930 . S
H217 C212 0.930 . S
N218 Cu207 1.985 . S
N218 C220 1.335 . S
N218 C221 1.390 . S
N219 C220 1.345 . S
N219 C222 1.336 . S
C220 N218 1.335 . S
C220 N219 1.345 . S
C220 H225 0.930 . S
C221 N218 1.390 . S
C221 C222 1.346 . S
C221 H226 0.930 . S
C222 N219 1.336 . S
C222 C221 1.346 . S
C222 H229 0.929 . S
C223 O213 1.282 . S
C223 O224 1.216 . S
O224 C223 1.216 . S
H225 C220 0.930 . S
H226 C221 0.930 . S
O227 Cu207 1.959 . S
O227 C214 1.251 . S
H228 C211 0.930 . S
H229 C222 0.929 . S
Cu230 N231 1.999 . S
Cu230 O236 1.974 . S
Cu230 N241 1.985 . S
Cu230 O250 1.959 . S
N231 Cu230 1.999 . S
N231 C233 1.263 . S
N231 C235 1.389 . S
N232 C233 1.358 . S
N232 C234 1.400 . S
C233 N231 1.263 . S
C233 N232 1.358 . S
C233 H239 0.930 . S
C234 N232 1.400 . S
C234 C235 1.351 . S
C234 H251 0.930 . S
C235 N231 1.389 . S
C235 C234 1.351 . S
C235 H240 0.930 . S
O236 Cu230 1.974 . S
O236 C246 1.282 . S
C237 O238 1.261 . S
C237 O250 1.251 . S
O238 C237 1.261 . S
H239 C233 0.930 . S
H240 C235 0.930 . S
N241 Cu230 1.985 . S
N241 C243 1.335 . S
N241 C244 1.390 . S
N242 C243 1.345 . S
N242 C245 1.336 . S
C243 N241 1.335 . S
C243 N242 1.345 . S
C243 H248 0.930 . S
C244 N241 1.390 . S
C244 C245 1.346 . S
C244 H249 0.930 . S
C245 N242 1.336 . S
C245 C244 1.346 . S
C245 H252 0.929 . S
C246 O236 1.282 . S
C246 O247 1.216 . S
O247 C246 1.216 . S
H248 C243 0.930 . S
H249 C244 0.930 . S
O250 Cu230 1.959 . S
O250 C237 1.251 . S
H251 C234 0.930 . S
H252 C245 0.929 . S
Cu253 N254 1.999 . S
Cu253 O259 1.974 . S
Cu253 N264 1.985 . S
Cu253 O273 1.959 . S
N254 Cu253 1.999 . S
N254 C256 1.263 . S
N254 C258 1.389 . S
N255 C256 1.358 . S
N255 C257 1.400 . S
C256 N254 1.263 . S
C256 N255 1.358 . S
C256 H262 0.930 . S
C257 N255 1.400 . S
C257 C258 1.351 . S
C257 H274 0.930 . S
C258 N254 1.389 . S
C258 C257 1.351 . S
C258 H263 0.930 . S
O259 Cu253 1.974 . S
O259 C269 1.282 . S
C260 O261 1.244 1_655 S
C260 O273 1.251 . S
O261 C260 1.244 1_455 S
H262 C256 0.930 . S
H263 C258 0.930 . S
N264 Cu253 1.985 . S
N264 C266 1.335 . S
N264 C267 1.390 . S
N265 C266 1.345 . S
N265 C268 1.336 . S
C266 N264 1.335 . S
C266 N265 1.345 . S
C266 H271 0.930 . S
C267 N264 1.390 . S
C267 C268 1.346 . S
C267 H272 0.930 . S
C268 N265 1.336 . S
C268 C267 1.346 . S
C268 H275 0.929 . S
C269 O259 1.282 . S
C269 O270 1.216 . S
O270 C269 1.216 . S
H271 C266 0.930 . S
H272 C267 0.930 . S
O273 Cu253 1.959 . S
O273 C260 1.251 . S
H274 C257 0.930 . S
H275 C268 0.929 . S
Cu276 N277 1.999 . S
Cu276 O282 1.974 . S
Cu276 N287 1.985 . S
Cu276 O296 1.959 . S
N277 Cu276 1.999 . S
N277 C279 1.263 . S
N277 C281 1.389 . S
N278 C279 1.358 . S
N278 C280 1.400 . S
C279 N277 1.263 . S
C279 N278 1.358 . S
C279 H285 0.930 . S
C280 N278 1.400 . S
C280 C281 1.351 . S
C280 H297 0.930 . S
C281 N277 1.389 . S
C281 C280 1.351 . S
C281 H286 0.930 . S
O282 Cu276 1.974 . S
O282 C292 1.282 . S
C283 O284 1.261 . S
C283 O296 1.251 . S
O284 C283 1.261 . S
H285 C279 0.930 . S
H286 C281 0.930 . S
N287 Cu276 1.985 . S
N287 C289 1.335 . S
N287 C290 1.390 . S
N288 C289 1.345 . S
N288 C291 1.336 . S
C289 N287 1.335 . S
C289 N288 1.345 . S
C289 H294 0.930 . S
C290 N287 1.390 . S
C290 C291 1.346 . S
C290 H295 0.930 . S
C291 N288 1.336 . S
C291 C290 1.346 . S
C291 H298 0.929 . S
C292 O282 1.282 . S
C292 O293 1.216 . S
O293 C292 1.216 . S
H294 C289 0.930 . S
H295 C290 0.930 . S
O296 Cu276 1.959 . S
O296 C283 1.251 . S
H297 C280 0.930 . S
H298 C291 0.929 . S
Cu299 N300 1.999 . S
Cu299 O305 1.974 . S
Cu299 N310 1.985 . S
Cu299 O319 1.959 . S
N300 Cu299 1.999 . S
N300 C302 1.263 . S
N300 C304 1.389 . S
N301 C302 1.358 . S
N301 C303 1.400 . S
C302 N300 1.263 . S
C302 N301 1.358 . S
C302 H308 0.930 . S
C303 N301 1.400 . S
C303 C304 1.351 . S
C303 H320 0.930 . S
C304 N300 1.389 . S
C304 C303 1.351 . S
C304 H309 0.930 . S
O305 Cu299 1.974 . S
O305 C315 1.282 . S
C306 O307 1.261 . S
C306 O319 1.251 . S
O307 C306 1.261 . S
H308 C302 0.930 . S
H309 C304 0.930 . S
N310 Cu299 1.985 . S
N310 C312 1.335 . S
N310 C313 1.390 1_565 S
N311 C312 1.345 1_545 S
N311 C314 1.336 . S
C312 N310 1.335 . S
C312 N311 1.345 1_565 S
C312 H317 0.930 . S
C313 N310 1.390 1_545 S
C313 C314 1.346 . S
C313 H318 0.930 . S
C314 N311 1.336 . S
C314 C313 1.346 . S
C314 H321 0.929 . S
C315 O305 1.282 . S
C315 O316 1.216 1_565 S
O316 C315 1.216 1_545 S
H317 C312 0.930 . S
H318 C313 0.930 . S
O319 Cu299 1.959 . S
O319 C306 1.251 . S
H320 C303 0.930 . S
H321 C314 0.929 . S
Cu322 N323 1.999 . S
Cu322 O328 1.974 . S
Cu322 N333 1.985 . S
Cu322 O342 1.959 . S
N323 Cu322 1.999 . S
N323 C325 1.263 . S
N323 C327 1.389 . S
N324 C325 1.358 . S
N324 C326 1.400 . S
C325 N323 1.263 . S
C325 N324 1.358 . S
C325 H331 0.930 . S
C326 N324 1.400 . S
C326 C327 1.351 . S
C326 H343 0.930 . S
C327 N323 1.389 . S
C327 C326 1.351 . S
C327 H332 0.930 . S
O328 Cu322 1.974 . S
O328 C338 1.282 . S
C329 O330 1.261 . S
C329 O342 1.251 . S
O330 C329 1.261 . S
H331 C325 0.930 . S
H332 C327 0.930 . S
N333 Cu322 1.985 . S
N333 C335 1.335 . S
N333 C336 1.390 . S
N334 C335 1.345 . S
N334 C337 1.336 . S
C335 N333 1.335 . S
C335 N334 1.345 . S
C335 H340 0.930 . S
C336 N333 1.390 . S
C336 C337 1.346 . S
C336 H341 0.930 . S
C337 N334 1.336 . S
C337 C336 1.346 . S
C337 H344 0.929 . S
C338 O328 1.282 . S
C338 O339 1.216 . S
O339 C338 1.216 . S
H340 C335 0.930 . S
H341 C336 0.930 . S
O342 Cu322 1.959 . S
O342 C329 1.251 . S
H343 C326 0.930 . S
H344 C337 0.929 . S
Cu345 N346 1.999 . S
Cu345 O351 1.974 . S
Cu345 N356 1.985 . S
Cu345 O365 1.959 . S
N346 Cu345 1.999 . S
N346 C348 1.263 . S
N346 C350 1.389 . S
N347 C348 1.358 . S
N347 C349 1.400 . S
C348 N346 1.263 . S
C348 N347 1.358 . S
C348 H354 0.930 . S
C349 N347 1.400 . S
C349 C350 1.351 . S
C349 H366 0.930 . S
C350 N346 1.389 . S
C350 C349 1.351 . S
C350 H355 0.930 . S
O351 Cu345 1.974 . S
O351 C361 1.282 . S
C352 O353 1.261 . S
C352 O365 1.251 . S
O353 C352 1.261 . S
H354 C348 0.930 . S
H355 C350 0.930 . S
N356 Cu345 1.985 . S
N356 C358 1.335 . S
N356 C359 1.390 1_565 S
N357 C358 1.345 1_545 S
N357 C360 1.336 . S
C358 N356 1.335 . S
C358 N357 1.345 1_565 S
C358 H363 0.930 . S
C359 N356 1.390 1_545 S
C359 C360 1.346 . S
C359 H364 0.930 . S
C360 N357 1.336 . S
C360 C359 1.346 . S
C360 H367 0.929 . S
C361 O351 1.282 . S
C361 O362 1.216 1_565 S
O362 C361 1.216 1_545 S
H363 C358 0.930 . S
H364 C359 0.930 . S
O365 Cu345 1.959 . S
O365 C352 1.251 . S
H366 C349 0.930 . S
H367 C360 0.929 . S
Cu368 N369 1.999 . S
Cu368 O374 1.974 . S
Cu368 N379 1.985 . S
Cu368 O388 1.959 . S
N369 Cu368 1.999 . S
N369 C371 1.263 . S
N369 C373 1.389 . S
N370 C371 1.358 . S
N370 C372 1.400 . S
C371 N369 1.263 . S
C371 N370 1.358 . S
C371 H377 0.930 . S
C372 N370 1.400 . S
C372 C373 1.351 . S
C372 H389 0.930 . S
C373 N369 1.389 . S
C373 C372 1.351 . S
C373 H378 0.930 . S
O374 Cu368 1.974 . S
O374 C384 1.282 . S
C375 O376 1.261 . S
C375 O388 1.251 . S
O376 C375 1.261 . S
H377 C371 0.930 . S
H378 C373 0.930 . S
N379 Cu368 1.985 . S
N379 C381 1.335 . S
N379 C382 1.390 . S
N380 C381 1.345 . S
N380 C383 1.336 . S
C381 N379 1.335 . S
C381 N380 1.345 . S
C381 H386 0.930 . S
C382 N379 1.390 . S
C382 C383 1.346 . S
C382 H387 0.930 . S
C383 N380 1.336 . S
C383 C382 1.346 . S
C383 H390 0.929 . S
C384 O374 1.282 . S
C384 O385 1.216 . S
O385 C384 1.216 . S
H386 C381 0.930 . S
H387 C382 0.930 . S
O388 Cu368 1.959 . S
O388 C375 1.251 . S
H389 C372 0.930 . S
H390 C383 0.929 . S
Cu391 N392 1.999 . S
Cu391 O397 1.974 . S
Cu391 N402 1.985 . S
Cu391 O411 1.959 . S
N392 Cu391 1.999 . S
N392 C394 1.263 . S
N392 C396 1.389 . S
N393 C394 1.358 . S
N393 C395 1.400 . S
C394 N392 1.263 . S
C394 N393 1.358 . S
C394 H400 0.930 . S
C395 N393 1.400 . S
C395 C396 1.351 . S
C395 H412 0.930 . S
C396 N392 1.389 . S
C396 C395 1.351 . S
C396 H401 0.930 . S
O397 Cu391 1.974 . S
O397 C407 1.282 . S
C398 O399 1.261 . S
C398 O411 1.251 . S
O399 C398 1.261 . S
H400 C394 0.930 . S
H401 C396 0.930 . S
N402 Cu391 1.985 . S
N402 C404 1.335 . S
N402 C405 1.390 . S
N403 C404 1.345 . S
N403 C406 1.336 . S
C404 N402 1.335 . S
C404 N403 1.345 . S
C404 H409 0.930 . S
C405 N402 1.390 . S
C405 C406 1.346 . S
C405 H410 0.930 . S
C406 N403 1.336 . S
C406 C405 1.346 . S
C406 H413 0.929 . S
C407 O397 1.282 . S
C407 O408 1.216 . S
O408 C407 1.216 . S
H409 C404 0.930 . S
H410 C405 0.930 . S
O411 Cu391 1.959 . S
O411 C398 1.251 . S
H412 C395 0.930 . S
H413 C406 0.929 . S
C414 C415 1.363 . S
C414 C420 1.379 . S
C414 N422 1.356 . S
C415 C414 1.363 . S
C415 C421 1.363 . S
C416 C417 1.363 . S
C416 C421 1.379 . S
C416 N423 1.356 . S
C417 C416 1.363 . S
C417 C420 1.363 . S
N418 C420 1.356 . S
N418 H430 0.984 . S
N418 H431 0.985 1_554 S
N419 C421 1.356 . S
N419 H424 0.984 . S
N419 H425 0.985 . S
C420 C414 1.379 . S
C420 C417 1.363 . S
C420 N418 1.356 . S
C421 C415 1.363 . S
C421 C416 1.379 . S
C421 N419 1.356 . S
N422 C414 1.356 . S
N422 H428 0.984 . S
N422 H429 0.984 . S
N423 C416 1.356 . S
N423 H426 0.984 . S
N423 H427 0.985 . S
H424 N419 0.984 . S
H425 N419 0.985 . S
H426 N423 0.984 . S
H427 N423 0.985 . S
H428 N422 0.984 . S
H429 N422 0.984 . S
H430 N418 0.984 . S
H431 N418 0.985 1_556 S
C432 C433 1.363 . S
C432 C438 1.379 . S
C432 N440 1.356 . S
C433 C432 1.363 . S
C433 C439 1.363 . S
C434 C435 1.363 . S
C434 C439 1.379 . S
C434 N441 1.356 . S
C435 C434 1.363 . S
C435 C438 1.363 . S
N436 C438 1.356 . S
N436 H448 0.984 . S
N436 H449 0.985 . S
N437 C439 1.356 . S
N437 H442 0.984 1_554 S
N437 H443 0.985 . S
C438 C432 1.379 . S
C438 C435 1.363 . S
C438 N436 1.356 . S
C439 C433 1.363 . S
C439 C434 1.379 . S
C439 N437 1.356 . S
N440 C432 1.356 . S
N440 H446 0.984 . S
N440 H447 0.984 . S
N441 C434 1.356 . S
N441 H444 0.984 . S
N441 H445 0.985 . S
H442 N437 0.984 1_556 S
H443 N437 0.985 . S
H444 N441 0.984 . S
H445 N441 0.985 . S
H446 N440 0.984 . S
H447 N440 0.984 . S
H448 N436 0.984 . S
H449 N436 0.985 . S
C450 C451 1.363 1_545 S
C450 C456 1.379 1_545 S
C450 N458 1.356 . S
C451 C450 1.363 1_565 S
C451 C457 1.363 . S
C452 C453 1.363 . S
C452 C457 1.379 . S
C452 N459 1.356 . S
C453 C452 1.363 . S
C453 C456 1.363 . S
N454 C456 1.356 1_545 S
N454 H466 0.984 . S
N454 H467 0.985 1_545 S
N455 C457 1.356 . S
N455 H460 0.984 . S
N455 H461 0.985 . S
C456 C450 1.379 1_565 S
C456 C453 1.363 . S
C456 N454 1.356 1_565 S
C457 C451 1.363 . S
C457 C452 1.379 . S
C457 N455 1.356 . S
N458 C450 1.356 . S
N458 H464 0.984 . S
N458 H465 0.984 . S
N459 C452 1.356 . S
N459 H462 0.984 . S
N459 H463 0.985 . S
H460 N455 0.984 . S
H461 N455 0.985 . S
H462 N459 0.984 . S
H463 N459 0.985 . S
H464 N458 0.984 . S
H465 N458 0.984 . S
H466 N454 0.984 . S
H467 N454 0.985 1_565 S
C468 C469 1.363 . S
C468 C474 1.379 . S
C468 N476 1.356 . S
C469 C468 1.363 . S
C469 C475 1.363 . S
C470 C471 1.363 . S
C470 C475 1.379 . S
C470 N477 1.356 1_545 S
C471 C470 1.363 . S
C471 C474 1.363 . S
N472 C474 1.356 . S
N472 H484 0.984 . S
N472 H485 0.985 . S
N473 C475 1.356 . S
N473 H478 0.984 . S
N473 H479 0.985 1_545 S
C474 C468 1.379 . S
C474 C471 1.363 . S
C474 N472 1.356 . S
C475 C469 1.363 . S
C475 C470 1.379 . S
C475 N473 1.356 . S
N476 C468 1.356 . S
N476 H482 0.984 . S
N476 H483 0.984 . S
N477 C470 1.356 1_565 S
N477 H480 0.984 . S
N477 H481 0.985 . S
H478 N473 0.984 . S
H479 N473 0.985 1_565 S
H480 N477 0.984 . S
H481 N477 0.985 . S
H482 N476 0.984 . S
H483 N476 0.984 . S
H484 N472 0.984 . S
H485 N472 0.985 . S
C486 C487 1.363 . S
C486 C492 1.379 . S
C486 N494 1.356 . S
C487 C486 1.363 . S
C487 C493 1.363 . S
C488 C489 1.363 1_455 S
C488 C493 1.379 1_455 S
C488 N495 1.356 . S
C489 C488 1.363 1_655 S
C489 C492 1.363 . S
N490 C492 1.356 . S
N490 H502 0.984 . S
N490 H503 0.985 . S
N491 C493 1.356 1_455 S
N491 H496 0.984 1_455 S
N491 H497 0.985 . S
C492 C486 1.379 . S
C492 C489 1.363 . S
C492 N490 1.356 . S
C493 C487 1.363 . S
C493 C488 1.379 1_655 S
C493 N491 1.356 1_655 S
N494 C486 1.356 . S
N494 H500 0.984 . S
N494 H501 0.984 . S
N495 C488 1.356 . S
N495 H498 0.984 . S
N495 H499 0.985 . S
H496 N491 0.984 1_655 S
H497 N491 0.985 . S
H498 N495 0.984 . S
H499 N495 0.985 . S
H500 N494 0.984 . S
H501 N494 0.984 . S
H502 N490 0.984 . S
H503 N490 0.985 . S
C504 C505 1.363 . S
C504 C510 1.379 . S
C504 N512 1.356 . S
C505 C504 1.363 . S
C505 C511 1.363 . S
C506 C507 1.363 . S
C506 C511 1.379 . S
C506 N513 1.356 . S
C507 C506 1.363 . S
C507 C510 1.363 . S
N508 C510 1.356 . S
N508 H520 0.984 . S
N508 H521 0.985 . S
N509 C511 1.356 . S
N509 H514 0.984 . S
N509 H515 0.985 . S
C510 C504 1.379 . S
C510 C507 1.363 . S
C510 N508 1.356 . S
C511 C505 1.363 . S
C511 C506 1.379 . S
C511 N509 1.356 . S
N512 C504 1.356 . S
N512 H518 0.984 . S
N512 H519 0.984 . S
N513 C506 1.356 . S
N513 H516 0.984 . S
N513 H517 0.985 . S
H514 N509 0.984 . S
H515 N509 0.985 . S
H516 N513 0.984 . S
H517 N513 0.985 . S
H518 N512 0.984 . S
H519 N512 0.984 . S
H520 N508 0.984 . S
H521 N508 0.985 . S
C522 C523 1.363 1_455 S
C522 C528 1.379 1_455 S
C522 N530 1.356 . S
C523 C522 1.363 1_655 S
C523 C529 1.363 . S
C524 C525 1.363 . S
C524 C529 1.379 . S
C524 N531 1.356 . S
C525 C524 1.363 . S
C525 C528 1.363 . S
N526 C528 1.356 1_455 S
N526 H538 0.984 . S
N526 H539 0.985 1_455 S
N527 C529 1.356 . S
N527 H532 0.984 . S
N527 H533 0.985 . S
C528 C522 1.379 1_655 S
C528 C525 1.363 . S
C528 N526 1.356 1_655 S
C529 C523 1.363 . S
C529 C524 1.379 . S
C529 N527 1.356 . S
N530 C522 1.356 . S
N530 H536 0.984 . S
N530 H537 0.984 . S
N531 C524 1.356 . S
N531 H534 0.984 . S
N531 H535 0.985 . S
H532 N527 0.984 . S
H533 N527 0.985 . S
H534 N531 0.984 . S
H535 N531 0.985 . S
H536 N530 0.984 . S
H537 N530 0.984 . S
H538 N526 0.984 . S
H539 N526 0.985 1_655 S
C540 C541 1.363 . S
C540 C546 1.379 . S
C540 N548 1.356 . S
C541 C540 1.363 . S
C541 C547 1.363 . S
C542 C543 1.363 . S
C542 C547 1.379 . S
C542 N549 1.356 . S
C543 C542 1.363 . S
C543 C546 1.363 . S
N544 C546 1.356 . S
N544 H556 0.984 . S
N544 H557 0.985 . S
N545 C547 1.356 . S
N545 H550 0.984 . S
N545 H551 0.985 . S
C546 C540 1.379 . S
C546 C543 1.363 . S
C546 N544 1.356 . S
C547 C541 1.363 . S
C547 C542 1.379 . S
C547 N545 1.356 . S
N548 C540 1.356 . S
N548 H554 0.984 . S
N548 H555 0.984 1_556 S
N549 C542 1.356 . S
N549 H552 0.984 . S
N549 H553 0.985 . S
H550 N545 0.984 . S
H551 N545 0.985 . S
H552 N549 0.984 . S
H553 N549 0.985 . S
H554 N548 0.984 . S
H555 N548 0.984 1_554 S
H556 N544 0.984 . S
H557 N544 0.985 . S
C558 C559 1.363 . S
C558 C564 1.379 . S
C558 N566 1.356 . S
C559 C558 1.363 . S
C559 C565 1.363 . S
C560 C561 1.363 . S
C560 C565 1.379 . S
C560 N567 1.356 1_545 S
C561 C560 1.363 . S
C561 C564 1.363 . S
N562 C564 1.356 . S
N562 H574 0.984 . S
N562 H575 0.985 . S
N563 C565 1.356 . S
N563 H568 0.984 . S
N563 H569 0.985 1_545 S
C564 C558 1.379 . S
C564 C561 1.363 . S
C564 N562 1.356 . S
C565 C559 1.363 . S
C565 C560 1.379 . S
C565 N563 1.356 . S
N566 C558 1.356 . S
N566 H572 0.984 . S
N566 H573 0.984 . S
N567 C560 1.356 1_565 S
N567 H570 0.984 . S
N567 H571 0.985 . S
H568 N563 0.984 . S
H569 N563 0.985 1_565 S
H570 N567 0.984 . S
H571 N567 0.985 . S
H572 N566 0.984 . S
H573 N566 0.984 . S
H574 N562 0.984 . S
H575 N562 0.985 . S
C576 C577 1.355 1_545 S
C576 C582 1.372 1_545 S
C576 N584 1.370 . S
C577 C576 1.355 1_565 S
C577 C583 1.363 . S
C578 C579 1.363 . S
C578 C583 1.379 . S
C578 N585 1.356 . S
C579 C578 1.363 . S
C579 C582 1.363 . S
N580 C582 1.361 . S
N580 H592 0.968 1_565 S
N580 H593 0.997 . S
N581 C583 1.356 . S
N581 H586 0.984 . S
N581 H587 0.985 . S
C582 C576 1.372 1_565 S
C582 C579 1.363 . S
C582 N580 1.361 . S
C583 C577 1.363 . S
C583 C578 1.379 . S
C583 N581 1.356 . S
N584 C576 1.370 . S
N584 H590 0.984 . S
N584 H591 0.984 . S
N585 C578 1.356 . S
N585 H588 0.984 . S
N585 H589 0.985 . S
H586 N581 0.984 . S
H587 N581 0.985 . S
H588 N585 0.984 . S
H589 N585 0.985 . S
H590 N584 0.984 . S
H591 N584 0.984 . S
H592 N580 0.968 1_545 S
H593 N580 0.997 . S
C594 C595 1.363 . S
C594 C600 1.379 . S
C594 N602 1.356 . S
C595 C594 1.363 . S
C595 C601 1.363 . S
C596 C597 1.363 . S
C596 C601 1.379 . S
C596 N603 1.356 . S
C597 C596 1.363 . S
C597 C600 1.363 . S
N598 C600 1.356 . S
N598 H610 0.984 . S
N598 H611 0.985 . S
N599 C601 1.356 . S
N599 H604 0.984 . S
N599 H605 0.985 . S
C600 C594 1.379 . S
C600 C597 1.363 . S
C600 N598 1.356 . S
C601 C595 1.363 . S
C601 C596 1.379 . S
C601 N599 1.356 . S
N602 C594 1.356 . S
N602 H608 0.984 . S
N602 H609 0.984 . S
N603 C596 1.356 . S
N603 H606 0.984 . S
N603 H607 0.985 . S
H604 N599 0.984 . S
H605 N599 0.985 . S
H606 N603 0.984 . S
H607 N603 0.985 . S
H608 N602 0.984 . S
H609 N602 0.984 . S
H610 N598 0.984 . S
H611 N598 0.985 . S
C612 C613 1.363 . S
C612 C618 1.379 . S
C612 N620 1.356 . S
C613 C612 1.363 . S
C613 C619 1.363 . S
C614 C615 1.363 . S
C614 C619 1.379 . S
C614 N621 1.356 . S
C615 C614 1.363 . S
C615 C618 1.363 . S
N616 C618 1.356 . S
N616 H628 0.984 . S
N616 H629 0.985 . S
N617 C619 1.356 . S
N617 H622 0.984 . S
N617 H623 0.985 . S
C618 C612 1.379 . S
C618 C615 1.363 . S
C618 N616 1.356 . S
C619 C613 1.363 . S
C619 C614 1.379 . S
C619 N617 1.356 . S
N620 C612 1.356 . S
N620 H626 0.984 . S
N620 H627 0.984 . S
N621 C614 1.356 . S
N621 H624 0.984 . S
N621 H625 0.985 . S
H622 N617 0.984 . S
H623 N617 0.985 . S
H624 N621 0.984 . S
H625 N621 0.985 . S
H626 N620 0.984 . S
H627 N620 0.984 . S
H628 N616 0.984 . S
H629 N616 0.985 . S
C630 C631 1.363 . S
C630 C636 1.379 . S
C630 N638 1.356 . S
C631 C630 1.363 . S
C631 C637 1.363 . S
C632 C633 1.363 . S
C632 C637 1.379 . S
C632 N639 1.356 . S
C633 C632 1.363 . S
C633 C636 1.363 . S
N634 C636 1.356 . S
N634 H646 0.984 . S
N634 H647 0.985 . S
N635 C637 1.356 . S
N635 H640 0.984 . S
N635 H641 0.985 . S
C636 C630 1.379 . S
C636 C633 1.363 . S
C636 N634 1.356 . S
C637 C631 1.363 . S
C637 C632 1.379 . S
C637 N635 1.356 . S
N638 C630 1.356 . S
N638 H644 0.984 . S
N638 H645 0.984 . S
N639 C632 1.356 . S
N639 H642 0.984 . S
N639 H643 0.985 . S
H640 N635 0.984 . S
H641 N635 0.985 . S
H642 N639 0.984 . S
H643 N639 0.985 . S
H644 N638 0.984 . S
H645 N638 0.984 . S
H646 N634 0.984 . S
H647 N634 0.985 . S
C648 C649 1.363 1_565 S
C648 C654 1.379 . S
C648 N656 1.356 . S
C649 C648 1.363 1_545 S
C649 C655 1.363 . S
C650 C651 1.363 1_545 S
C650 C655 1.379 . S
C650 N657 1.356 . S
C651 C650 1.363 1_565 S
C651 C654 1.363 . S
N652 C654 1.356 . S
N652 H664 0.984 . S
N652 H665 0.985 . S
N653 C655 1.356 . S
N653 H658 0.984 . S
N653 H659 0.985 . S
C654 C648 1.379 . S
C654 C651 1.363 . S
C654 N652 1.356 . S
C655 C649 1.363 . S
C655 C650 1.379 . S
C655 N653 1.356 . S
N656 C648 1.356 . S
N656 H662 0.984 . S
N656 H663 0.984 1_565 S
N657 C650 1.356 . S
N657 H660 0.984 . S
N657 H661 0.985 . S
H658 N653 0.984 . S
H659 N653 0.985 . S
H660 N657 0.984 . S
H661 N657 0.985 . S
H662 N656 0.984 . S
H663 N656 0.984 1_545 S
H664 N652 0.984 . S
H665 N652 0.985 . S
C666 C667 1.363 . S
C666 C672 1.379 . S
C666 N674 1.356 . S
C667 C666 1.363 . S
C667 C673 1.363 . S
C668 C669 1.363 . S
C668 C673 1.379 1_655 S
C668 N675 1.356 . S
C669 C668 1.363 . S
C669 C672 1.363 1_655 S
N670 C672 1.356 1_655 S
N670 H682 0.984 . S
N670 H683 0.985 . S
N671 C673 1.356 . S
N671 H676 0.984 . S
N671 H677 0.985 . S
C672 C666 1.379 . S
C672 C669 1.363 1_455 S
C672 N670 1.356 1_455 S
C673 C667 1.363 . S
C673 C668 1.379 1_455 S
C673 N671 1.356 . S
N674 C666 1.356 . S
N674 H680 0.984 . S
N674 H681 0.984 . S
N675 C668 1.356 . S
N675 H678 0.984 . S
N675 H679 0.985 . S
H676 N671 0.984 . S
H677 N671 0.985 . S
H678 N675 0.984 . S
H679 N675 0.985 . S
H680 N674 0.984 . S
H681 N674 0.984 . S
H682 N670 0.984 . S
H683 N670 0.985 . S
C684 C685 1.363 . S
C684 C690 1.379 . S
C684 N692 1.356 . S
C685 C684 1.363 . S
C685 C691 1.363 . S
C686 C687 1.363 . S
C686 C691 1.379 . S
C686 N693 1.356 . S
C687 C686 1.363 . S
C687 C690 1.363 . S
N688 C690 1.356 . S
N688 H700 0.984 . S
N688 H701 0.985 . S
N689 C691 1.356 . S
N689 H694 0.984 . S
N689 H695 0.985 . S
C690 C684 1.379 . S
C690 C687 1.363 . S
C690 N688 1.356 . S
C691 C685 1.363 . S
C691 C686 1.379 . S
C691 N689 1.356 . S
N692 C684 1.356 . S
N692 H698 0.984 . S
N692 H699 0.984 . S
N693 C686 1.356 . S
N693 H696 0.984 . S
N693 H697 0.985 . S
H694 N689 0.984 . S
H695 N689 0.985 . S
H696 N693 0.984 . S
H697 N693 0.985 . S
H698 N692 0.984 . S
H699 N692 0.984 . S
H700 N688 0.984 . S
H701 N688 0.985 . S
C702 C703 1.363 1_565 S
C702 C708 1.379 . S
C702 N710 1.356 . S
C703 C702 1.363 1_545 S
C703 C709 1.363 . S
C704 C705 1.363 1_545 S
C704 C709 1.379 . S
C704 N711 1.356 . S
C705 C704 1.363 1_565 S
C705 C708 1.363 . S
N706 C708 1.356 . S
N706 H718 0.984 . S
N706 H719 0.985 . S
N707 C709 1.356 . S
N707 H712 0.984 . S
N707 H713 0.985 . S
C708 C702 1.379 . S
C708 C705 1.363 . S
C708 N706 1.356 . S
C709 C703 1.363 . S
C709 C704 1.379 . S
C709 N707 1.356 . S
N710 C702 1.356 . S
N710 H716 0.984 . S
N710 H717 0.984 1_565 S
N711 C704 1.356 . S
N711 H714 0.984 . S
N711 H715 0.985 . S
H712 N707 0.984 . S
H713 N707 0.985 . S
H714 N711 0.984 . S
H715 N711 0.985 . S
H716 N710 0.984 . S
H717 N710 0.984 1_545 S
H718 N706 0.984 . S
H719 N706 0.985 . S
C720 C721 1.363 . S
C720 C726 1.379 . S
C720 N728 1.356 . S
C721 C720 1.363 . S
C721 C727 1.363 . S
C722 C723 1.363 . S
C722 C727 1.379 1_655 S
C722 N729 1.356 . S
C723 C722 1.363 . S
C723 C726 1.363 1_655 S
N724 C726 1.356 1_655 S
N724 H736 0.996 . S
N724 H737 0.985 . S
N725 C727 1.356 . S
N725 H730 0.984 . S
N725 H731 0.985 . S
C726 C720 1.379 . S
C726 C723 1.363 1_455 S
C726 N724 1.356 1_455 S
C727 C721 1.363 . S
C727 C722 1.379 1_455 S
C727 N725 1.356 . S
N728 C720 1.356 . S
N728 H734 0.984 . S
N728 H735 0.984 . S
N729 C722 1.356 . S
N729 H732 0.984 . S
N729 H733 0.985 . S
H730 N725 0.984 . S
H731 N725 0.985 . S
H732 N729 0.984 . S
H733 N729 0.985 . S
H734 N728 0.984 . S
H735 N728 0.984 . S
H736 N724 0.996 . S
H737 N724 0.985 . S
C738 C739 1.363 . S
C738 C744 1.379 . S
C738 N746 1.356 . S
C739 C738 1.363 . S
C739 C745 1.363 . S
C740 C741 1.363 . S
C740 C745 1.379 . S
C740 N747 1.356 . S
C741 C740 1.363 . S
C741 C744 1.363 . S
N742 C744 1.356 . S
N742 H754 0.984 . S
N742 H755 0.985 . S
N743 C745 1.356 . S
N743 H748 0.984 . S
N743 H749 0.985 . S
C744 C738 1.379 . S
C744 C741 1.363 . S
C744 N742 1.356 . S
C745 C739 1.363 . S
C745 C740 1.379 . S
C745 N743 1.356 . S
N746 C738 1.356 . S
N746 H752 0.984 . S
N746 H753 0.984 . S
N747 C740 1.356 . S
N747 H750 0.984 . S
N747 H751 0.985 . S
H748 N743 0.984 . S
H749 N743 0.985 . S
H750 N747 0.984 . S
H751 N747 0.985 . S
H752 N746 0.984 . S
H753 N746 0.984 . S
H754 N742 0.984 . S
H755 N742 0.985 . S
C756 C757 1.363 . S
C756 C762 1.379 . S
C756 N764 1.356 . S
C757 C756 1.363 . S
C757 C763 1.363 . S
C758 C759 1.363 . S
C758 C763 1.379 . S
C758 N765 1.356 . S
C759 C758 1.363 . S
C759 C762 1.363 . S
N760 C762 1.356 . S
N760 H772 0.984 . S
N760 H773 0.985 . S
N761 C763 1.356 . S
N761 H766 0.984 . S
N761 H767 0.985 . S
C762 C756 1.379 . S
C762 C759 1.363 . S
C762 N760 1.356 . S
C763 C757 1.363 . S
C763 C758 1.379 . S
C763 N761 1.356 . S
N764 C756 1.356 . S
N764 H770 0.984 . S
N764 H771 0.984 . S
N765 C758 1.356 . S
N765 H768 0.984 . S
N765 H769 0.985 . S
H766 N761 0.984 . S
H767 N761 0.985 . S
H768 N765 0.984 . S
H769 N765 0.985 . S
H770 N764 0.984 . S
H771 N764 0.984 . S
H772 N760 0.984 . S
H773 N760 0.985 . S
C774 C775 1.363 . S
C774 C780 1.379 . S
C774 N782 1.356 . S
C775 C774 1.363 . S
C775 C781 1.363 . S
C776 C777 1.363 . S
C776 C781 1.379 . S
C776 N783 1.356 . S
C777 C776 1.363 . S
C777 C780 1.363 . S
N778 C780 1.356 . S
N778 H790 0.984 . S
N778 H791 0.985 . S
N779 C781 1.356 . S
N779 H784 0.984 . S
N779 H785 0.985 . S
C780 C774 1.379 . S
C780 C777 1.363 . S
C780 N778 1.356 . S
C781 C775 1.363 . S
C781 C776 1.379 . S
C781 N779 1.356 . S
N782 C774 1.356 . S
N782 H788 0.984 . S
N782 H789 0.984 . S
N783 C776 1.356 . S
N783 H786 0.984 . S
N783 H787 0.985 . S
H784 N779 0.984 . S
H785 N779 0.985 . S
H786 N783 0.984 . S
H787 N783 0.985 . S
H788 N782 0.984 . S
H789 N782 0.984 . S
H790 N778 0.984 . S
H791 N778 0.985 . S
C792 C793 1.363 . S
C792 C798 1.379 . S
C792 N800 1.356 . S
C793 C792 1.363 . S
C793 C799 1.363 . S
C794 C795 1.363 . S
C794 C799 1.379 . S
C794 N801 1.356 . S
C795 C794 1.363 . S
C795 C798 1.363 . S
N796 C798 1.356 . S
N796 H808 0.984 . S
N796 H809 0.985 . S
N797 C799 1.356 . S
N797 H802 0.984 . S
N797 H803 0.985 . S
C798 C792 1.379 . S
C798 C795 1.363 . S
C798 N796 1.356 . S
C799 C793 1.363 . S
C799 C794 1.379 . S
C799 N797 1.356 . S
N800 C792 1.356 . S
N800 H806 0.984 . S
N800 H807 0.984 . S
N801 C794 1.356 . S
N801 H804 0.984 . S
N801 H805 0.985 . S
H802 N797 0.984 . S
H803 N797 0.985 . S
H804 N801 0.984 . S
H805 N801 0.985 . S
H806 N800 0.984 . S
H807 N800 0.984 . S
H808 N796 0.984 . S
H809 N796 0.985 . S
C810 C811 1.363 . S
C810 C816 1.379 . S
C810 N818 1.356 . S
C811 C810 1.363 . S
C811 C817 1.363 . S
C812 C813 1.363 . S
C812 C817 1.379 . S
C812 N819 1.356 . S
C813 C812 1.363 . S
C813 C816 1.363 . S
N814 C816 1.356 . S
N814 H826 0.984 . S
N814 H827 0.985 . S
N815 C817 1.356 . S
N815 H820 0.984 . S
N815 H821 0.985 . S
C816 C810 1.379 . S
C816 C813 1.363 . S
C816 N814 1.356 . S
C817 C811 1.363 . S
C817 C812 1.379 . S
C817 N815 1.356 . S
N818 C810 1.356 . S
N818 H824 0.984 . S
N818 H825 0.984 . S
N819 C812 1.356 . S
N819 H822 0.984 . S
N819 H823 0.985 . S
H820 N815 0.984 . S
H821 N815 0.985 . S
H822 N819 0.984 . S
H823 N819 0.985 . S
H824 N818 0.984 . S
H825 N818 0.984 . S
H826 N814 0.984 . S
H827 N814 0.985 . S
C828 C829 1.363 . S
C828 C834 1.379 . S
C828 N836 1.356 . S
C829 C828 1.363 . S
C829 C835 1.363 . S
C830 C831 1.363 . S
C830 C835 1.379 . S
C830 N837 1.356 . S
C831 C830 1.363 . S
C831 C834 1.363 . S
N832 C834 1.356 . S
N832 H844 0.984 . S
N832 H845 0.985 . S
N833 C835 1.356 . S
N833 H838 0.984 . S
N833 H839 0.985 . S
C834 C828 1.379 . S
C834 C831 1.363 . S
C834 N832 1.356 . S
C835 C829 1.363 . S
C835 C830 1.379 . S
C835 N833 1.356 . S
N836 C828 1.356 . S
N836 H842 0.984 . S
N836 H843 0.984 . S
N837 C830 1.356 . S
N837 H840 0.984 . S
N837 H841 0.985 . S
H838 N833 0.984 . S
H839 N833 0.985 . S
H840 N837 0.984 . S
H841 N837 0.985 . S
H842 N836 0.984 . S
H843 N836 0.984 . S
H844 N832 0.984 . S
H845 N832 0.985 . S
C846 C847 1.363 . S
C846 C852 1.379 . S
C846 N854 1.356 . S
C847 C846 1.363 . S
C847 C853 1.363 . S
C848 C849 1.363 . S
C848 C853 1.379 . S
C848 N855 1.356 . S
C849 C848 1.363 . S
C849 C852 1.363 . S
N850 C852 1.356 . S
N850 H862 0.984 . S
N850 H863 0.985 . S
N851 C853 1.356 . S
N851 H856 0.984 . S
N851 H857 0.985 . S
C852 C846 1.379 . S
C852 C849 1.363 . S
C852 N850 1.356 . S
C853 C847 1.363 . S
C853 C848 1.379 . S
C853 N851 1.356 . S
N854 C846 1.356 . S
N854 H860 0.984 . S
N854 H861 0.984 . S
N855 C848 1.356 . S
N855 H858 0.984 . S
N855 H859 0.985 . S
H856 N851 0.984 . S
H857 N851 0.985 . S
H858 N855 0.984 . S
H859 N855 0.985 . S
H860 N854 0.984 . S
H861 N854 0.984 . S
H862 N850 0.984 . S
H863 N850 0.985 . S
C864 C865 1.363 . S
C864 C870 1.379 . S
C864 N872 1.356 . S
C865 C864 1.363 . S
C865 C871 1.363 . S
C866 C867 1.363 . S
C866 C871 1.379 . S
C866 N873 1.356 . S
C867 C866 1.363 . S
C867 C870 1.363 . S
N868 C870 1.356 . S
N868 H880 0.984 . S
N868 H881 0.985 . S
N869 C871 1.356 . S
N869 H874 0.984 . S
N869 H875 0.985 . S
C870 C864 1.379 . S
C870 C867 1.363 . S
C870 N868 1.356 . S
C871 C865 1.363 . S
C871 C866 1.379 . S
C871 N869 1.356 . S
N872 C864 1.356 . S
N872 H878 0.984 . S
N872 H879 0.984 . S
N873 C866 1.356 . S
N873 H876 0.984 . S
N873 H877 0.985 . S
H874 N869 0.984 . S
H875 N869 0.985 . S
H876 N873 0.984 . S
H877 N873 0.985 . S
H878 N872 0.984 . S
H879 N872 0.984 . S
H880 N868 0.984 . S
H881 N868 0.985 . S
C882 C883 1.363 . S
C882 C888 1.379 . S
C882 N890 1.356 . S
C883 C882 1.363 . S
C883 C889 1.363 . S
C884 C885 1.363 . S
C884 C889 1.379 . S
C884 N891 1.356 . S
C885 C884 1.363 . S
C885 C888 1.363 . S
N886 C888 1.356 . S
N886 H898 0.984 . S
N886 H899 0.985 . S
N887 C889 1.356 . S
N887 H892 0.984 . S
N887 H893 0.985 . S
C888 C882 1.379 . S
C888 C885 1.363 . S
C888 N886 1.356 . S
C889 C883 1.363 . S
C889 C884 1.379 . S
C889 N887 1.356 . S
N890 C882 1.356 . S
N890 H896 0.984 . S
N890 H897 0.984 . S
N891 C884 1.356 . S
N891 H894 0.984 . S
N891 H895 0.985 . S
H892 N887 0.984 . S
H893 N887 0.985 . S
H894 N891 0.984 . S
H895 N891 0.985 . S
H896 N890 0.984 . S
H897 N890 0.984 . S
H898 N886 0.984 . S
H899 N886 0.985 . S
C900 C901 1.363 . S
C900 C906 1.379 . S
C900 N908 1.356 . S
C901 C900 1.363 . S
C901 C907 1.363 . S
C902 C903 1.363 . S
C902 C907 1.379 . S
C902 N909 1.356 . S
C903 C902 1.363 . S
C903 C906 1.363 . S
N904 C906 1.356 . S
N904 H916 0.984 . S
N904 H917 0.985 . S
N905 C907 1.356 . S
N905 H910 0.984 . S
N905 H911 0.985 . S
C906 C900 1.379 . S
C906 C903 1.363 . S
C906 N904 1.356 . S
C907 C901 1.363 . S
C907 C902 1.379 . S
C907 N905 1.356 . S
N908 C900 1.356 . S
N908 H914 0.984 . S
N908 H915 0.984 . S
N909 C902 1.356 . S
N909 H912 0.984 . S
N909 H913 0.985 . S
H910 N905 0.984 . S
H911 N905 0.985 . S
H912 N909 0.984 . S
H913 N909 0.985 . S
H914 N908 0.984 . S
H915 N908 0.984 . S
H916 N904 0.984 . S
H917 N904 0.985 . S
C918 C919 1.363 . S
C918 C924 1.379 . S
C918 N926 1.356 . S
C919 C918 1.363 . S
C919 C925 1.363 . S
C920 C921 1.363 . S
C920 C925 1.379 . S
C920 N927 1.356 . S
C921 C920 1.363 . S
C921 C924 1.363 . S
N922 C924 1.356 . S
N922 H934 0.984 . S
N922 H935 0.985 . S
N923 C925 1.356 . S
N923 H928 0.984 . S
N923 H929 0.985 . S
C924 C918 1.379 . S
C924 C921 1.363 . S
C924 N922 1.356 . S
C925 C919 1.363 . S
C925 C920 1.379 . S
C925 N923 1.356 . S
N926 C918 1.356 . S
N926 H932 0.984 . S
N926 H933 0.984 . S
N927 C920 1.356 . S
N927 H930 0.984 . S
N927 H931 0.985 . S
H928 N923 0.984 . S
H929 N923 0.985 . S
H930 N927 0.984 . S
H931 N927 0.985 . S
H932 N926 0.984 . S
H933 N926 0.984 . S
H934 N922 0.984 . S
H935 N922 0.985 . S
C936 C937 1.363 . S
C936 C942 1.379 . S
C936 N944 1.356 . S
C937 C936 1.363 . S
C937 C943 1.363 . S
C938 C939 1.363 . S
C938 C943 1.379 . S
C938 N945 1.356 . S
C939 C938 1.363 . S
C939 C942 1.363 . S
N940 C942 1.356 . S
N940 H952 0.984 . S
N940 H953 0.985 . S
N941 C943 1.356 . S
N941 H946 0.984 . S
N941 H947 0.985 . S
C942 C936 1.379 . S
C942 C939 1.363 . S
C942 N940 1.356 . S
C943 C937 1.363 . S
C943 C938 1.379 . S
C943 N941 1.356 . S
N944 C936 1.356 . S
N944 H950 0.984 . S
N944 H951 0.984 . S
N945 C938 1.356 . S
N945 H948 0.984 . S
N945 H949 0.985 . S
H946 N941 0.984 . S
H947 N941 0.985 . S
H948 N945 0.984 . S
H949 N945 0.985 . S
H950 N944 0.984 . S
H951 N944 0.984 . S
H952 N940 0.984 . S
H953 N940 0.985 . S
C954 C955 1.363 . S
C954 C960 1.379 . S
C954 N962 1.356 . S
C955 C954 1.363 . S
C955 C961 1.363 . S
C956 C957 1.363 . S
C956 C961 1.379 . S
C956 N963 1.356 . S
C957 C956 1.363 . S
C957 C960 1.363 . S
N958 C960 1.356 . S
N958 H970 0.984 . S
N958 H971 0.985 . S
N959 C961 1.356 . S
N959 H964 0.984 . S
N959 H965 0.985 . S
C960 C954 1.379 . S
C960 C957 1.363 . S
C960 N958 1.356 . S
C961 C955 1.363 . S
C961 C956 1.379 . S
C961 N959 1.356 . S
N962 C954 1.356 . S
N962 H968 0.984 . S
N962 H969 0.984 . S
N963 C956 1.356 . S
N963 H966 0.984 . S
N963 H967 0.985 . S
H964 N959 0.984 . S
H965 N959 0.985 . S
H966 N963 0.984 . S
H967 N963 0.985 . S
H968 N962 0.984 . S
H969 N962 0.984 . S
H970 N958 0.984 . S
H971 N958 0.985 . S
C972 C973 1.363 1_565 S
C972 C978 1.379 . S
C972 N980 1.356 . S
C973 C972 1.363 1_545 S
C973 C979 1.363 . S
C974 C975 1.363 . S
C974 C979 1.379 . S
C974 N981 1.356 . S
C975 C974 1.363 . S
C975 C978 1.363 1_545 S
N976 C978 1.356 . S
N976 H988 0.984 . S
N976 H989 0.985 . S
N977 C979 1.356 . S
N977 H982 0.984 . S
N977 H983 0.985 . S
C978 C972 1.379 . S
C978 C975 1.363 1_565 S
C978 N976 1.356 . S
C979 C973 1.363 . S
C979 C974 1.379 . S
C979 N977 1.356 . S
N980 C972 1.356 . S
N980 H986 0.984 . S
N980 H987 0.984 . S
N981 C974 1.356 . S
N981 H984 0.984 . S
N981 H985 0.985 . S
H982 N977 0.984 . S
H983 N977 0.985 . S
H984 N981 0.984 . S
H985 N981 0.985 . S
H986 N980 0.984 . S
H987 N980 0.984 . S
H988 N976 0.984 . S
H989 N976 0.985 . S
C990 C991 1.363 1_655 S
C990 C996 1.379 . S
C990 N998 1.356 . S
C991 C990 1.363 1_455 S
C991 C997 1.363 . S
C992 C993 1.363 . S
C992 C997 1.379 . S
C992 N999 1.356 . S
C993 C992 1.363 . S
C993 C996 1.363 1_455 S
N994 C996 1.356 . S
N994 H1006 0.984 . S
N994 H1007 0.985 . S
N995 C997 1.356 . S
N995 H1000 0.984 . S
N995 H1001 0.985 . S
C996 C990 1.379 . S
C996 C993 1.363 1_655 S
C996 N994 1.356 . S
C997 C991 1.363 . S
C997 C992 1.379 . S
C997 N995 1.356 . S
N998 C990 1.356 . S
N998 H1004 0.984 . S
N998 H1005 0.984 . S
N999 C992 1.356 . S
N999 H1002 0.984 . S
N999 H1003 0.985 . S
H1000 N995 0.984 . S
H1001 N995 0.985 . S
H1002 N999 0.984 . S
H1003 N999 0.985 . S
H1004 N998 0.984 . S
H1005 N998 0.984 . S
H1006 N994 0.984 . S
H1007 N994 0.985 . S
C1008 C1009 1.363 1_554 S
C1008 C1014 1.379 . S
C1008 N1016 1.356 . S
C1009 C1008 1.363 1_556 S
C1009 C1015 1.363 . S
C1010 C1011 1.363 1_556 S
C1010 C1015 1.379 . S
C1010 N1017 1.356 . S
C1011 C1010 1.363 1_554 S
C1011 C1014 1.363 . S
N1012 C1014 1.356 . S
N1012 H1024 0.984 . S
N1012 H1025 0.985 . S
N1013 C1015 1.356 . S
N1013 H1018 0.984 . S
N1013 H1019 0.985 . S
C1014 C1008 1.379 . S
C1014 C1011 1.363 . S
C1014 N1012 1.356 . S
C1015 C1009 1.363 . S
C1015 C1010 1.379 . S
C1015 N1013 1.356 . S
N1016 C1008 1.356 . S
N1016 H1022 0.984 . S
N1016 H1023 0.984 . S
N1017 C1010 1.356 . S
N1017 H1020 0.984 . S
N1017 H1021 0.985 . S
H1018 N1013 0.984 . S
H1019 N1013 0.985 . S
H1020 N1017 0.984 . S
H1021 N1017 0.985 . S
H1022 N1016 0.984 . S
H1023 N1016 0.984 . S
H1024 N1012 0.984 . S
H1025 N1012 0.985 . S
C1026 C1027 1.363 1_554 S
C1026 C1032 1.379 . S
C1026 N1034 1.356 . S
C1027 C1026 1.363 1_556 S
C1027 C1033 1.363 1_545 S
C1028 C1029 1.363 1_566 S
C1028 C1033 1.379 . S
C1028 N1035 1.356 . S
C1029 C1028 1.363 1_544 S
C1029 C1032 1.363 . S
N1030 C1032 1.356 . S
N1030 H1042 0.984 . S
N1030 H1043 0.985 . S
N1031 C1033 1.356 . S
N1031 H1036 0.984 . S
N1031 H1037 0.985 . S
C1032 C1026 1.379 . S
C1032 C1029 1.363 . S
C1032 N1030 1.356 . S
C1033 C1027 1.363 1_565 S
C1033 C1028 1.379 . S
C1033 N1031 1.356 . S
N1034 C1026 1.356 . S
N1034 H1040 0.984 . S
N1034 H1041 0.984 . S
N1035 C1028 1.356 . S
N1035 H1038 0.984 . S
N1035 H1039 0.985 . S
H1036 N1031 0.984 . S
H1037 N1031 0.985 . S
H1038 N1035 0.984 . S
H1039 N1035 0.985 . S
H1040 N1034 0.984 . S
H1041 N1034 0.984 . S
H1042 N1030 0.984 . S
H1043 N1030 0.985 . S
C1044 C1045 1.363 1_554 S
C1044 C1050 1.379 . S
C1044 N1052 1.356 . S
C1045 C1044 1.363 1_556 S
C1045 C1051 1.363 1_455 S
C1046 C1047 1.363 1_656 S
C1046 C1051 1.379 . S
C1046 N1053 1.356 . S
C1047 C1046 1.363 1_454 S
C1047 C1050 1.363 . S
N1048 C1050 1.356 . S
N1048 H1060 0.984 . S
N1048 H1061 0.985 . S
N1049 C1051 1.356 . S
N1049 H1054 0.984 . S
N1049 H1055 0.985 . S
C1050 C1044 1.379 . S
C1050 C1047 1.363 . S
C1050 N1048 1.356 . S
C1051 C1045 1.363 1_655 S
C1051 C1046 1.379 . S
C1051 N1049 1.356 . S
N1052 C1044 1.356 . S
N1052 H1058 0.984 . S
N1052 H1059 0.984 . S
N1053 C1046 1.356 . S
N1053 H1056 0.984 . S
N1053 H1057 0.985 . S
H1054 N1049 0.984 . S
H1055 N1049 0.985 . S
H1056 N1053 0.984 . S
H1057 N1053 0.985 . S
H1058 N1052 0.984 . S
H1059 N1052 0.984 . S
H1060 N1048 0.984 . S
H1061 N1048 0.985 . S
C415 C7 1.705 . S
C417 C338 1.662 1_554 S
C433 C292 1.631 1_554 S
C435 C39 1.632 . S
C451 C53 1.736 . S
C453 C306 1.735 1_554 S
C469 C154 1.633 . S
C471 C62 1.633 . S
C487 C177 1.631 . S
C489 C16 1.631 . S
C505 C200 1.655 . S
C507 C30 1.698 . S
C523 C76 1.695 . S
C525 C269 1.652 1_556 S
C541 C223 1.630 1_556 S
C543 C108 1.630 . S
C559 C246 1.654 1_556 S
C561 C122 1.697 . S
C577 C131 1.662 . S
C579 C352 1.705 . S
C595 C85 1.631 . S
C597 C384 1.632 . S
C613 C398 1.736 . S
C615 C99 1.736 . S
C631 C283 1.735 . S
C633 C191 1.734 . S
C649 C145 1.713 . S
C651 C315 1.669 . S
C667 C329 1.737 . S
C669 C168 1.736 . S
C685 C407 1.672 . S
C687 C214 1.715 . S
C703 C237 1.714 . S
C705 C361 1.670 . S
C721 C375 1.737 . S
C723 C260 1.737 . S
C739 N347 1.575 . S
C741 N2 1.575 . S
C757 N35 1.673 . S
C759 N380 1.673 . S
C775 N48 1.575 . S
C777 N393 1.576 . S
C793 N58 1.662 . S
C795 N265 1.663 . S
C811 N219 1.663 . S
C813 N12 1.663 . S
C829 N25 1.566 . S
C831 N242 1.677 . S
C847 N150 1.671 . S
C849 N71 1.564 . S
C865 N173 1.658 . S
C867 N104 1.658 . S
C883 N117 1.563 . S
C885 N196 1.672 . S
C901 N127 1.657 . S
C903 N334 1.657 . S
C919 N81 1.657 . S
C921 N288 1.657 . S
C937 N94 1.563 . S
C939 N301 1.564 . S
C955 N186 1.562 . S
C957 N403 1.668 . S
C973 N140 1.561 . S
C975 N357 1.669 . S
C991 N370 1.573 . S
C993 N163 1.574 1_455 S
C1009 N278 1.570 . S
C1011 N209 1.569 . S
C1027 N311 1.663 . S
C1029 N232 1.557 . S
C1045 N324 1.569 . S
C1047 N255 1.570 1_455 S
