# Generated by pormake.
# Topology zft, (5)-cn, num edge types: 1
# Building blocks:
#     Node 0, Type 0, BuildingBlock: XOMCOT_clean_sbu_0, # of connection points: 5
#     Node 1, Type 0, BuildingBlock: XOMCOT_clean_sbu_0, # of connection points: 5
#     Node 2, Type 0, BuildingBlock: XOMCOT_clean_sbu_0, # of connection points: 5
#     Node 3, Type 0, BuildingBlock: XOMCOT_clean_sbu_0, # of connection points: 5
#     Node 4, Type 0, BuildingBlock: XOMCOT_clean_sbu_0, # of connection points: 5
#     Node 5, Type 0, BuildingBlock: XOMCOT_clean_sbu_0, # of connection points: 5
#     Node 6, Type 0, BuildingBlock: XOMCOT_clean_sbu_0, # of connection points: 5
#     Node 7, Type 0, BuildingBlock: XOMCOT_clean_sbu_0, # of connection points: 5
#     Edge 8, Type (0, 0), BuildingBlock: XUDNAN_clean_linker_2, # of connection points: 2
#     Edge 9, Type (0, 0), BuildingBlock: XUDNAN_clean_linker_2, # of connection points: 2
#     Edge 10, Type (0, 0), BuildingBlock: XUDNAN_clean_linker_2, # of connection points: 2
#     Edge 11, Type (0, 0), BuildingBlock: XUDNAN_clean_linker_2, # of connection points: 2
#     Edge 12, Type (0, 0), BuildingBlock: XUDNAN_clean_linker_2, # of connection points: 2
#     Edge 13, Type (0, 0), BuildingBlock: XUDNAN_clean_linker_2, # of connection points: 2
#     Edge 14, Type (0, 0), BuildingBlock: XUDNAN_clean_linker_2, # of connection points: 2
#     Edge 15, Type (0, 0), BuildingBlock: XUDNAN_clean_linker_2, # of connection points: 2
#     Edge 16, Type (0, 0), BuildingBlock: XUDNAN_clean_linker_2, # of connection points: 2
#     Edge 17, Type (0, 0), BuildingBlock: XUDNAN_clean_linker_2, # of connection points: 2
#     Edge 18, Type (0, 0), BuildingBlock: XUDNAN_clean_linker_2, # of connection points: 2
#     Edge 19, Type (0, 0), BuildingBlock: XUDNAN_clean_linker_2, # of connection points: 2
#     Edge 20, Type (0, 0), BuildingBlock: XUDNAN_clean_linker_2, # of connection points: 2
#     Edge 21, Type (0, 0), BuildingBlock: XUDNAN_clean_linker_2, # of connection points: 2
#     Edge 22, Type (0, 0), BuildingBlock: XUDNAN_clean_linker_2, # of connection points: 2
#     Edge 23, Type (0, 0), BuildingBlock: XUDNAN_clean_linker_2, # of connection points: 2
#     Edge 24, Type (0, 0), BuildingBlock: XUDNAN_clean_linker_2, # of connection points: 2
#     Edge 25, Type (0, 0), BuildingBlock: XUDNAN_clean_linker_2, # of connection points: 2
#     Edge 26, Type (0, 0), BuildingBlock: XUDNAN_clean_linker_2, # of connection points: 2
#     Edge 27, Type (0, 0), BuildingBlock: XUDNAN_clean_linker_2, # of connection points: 2
# Relax obj value: 0.078
# Max RMSD: 0.164
# Mean RMSD: 0.164
data_MOF--net-zft--node1-XOMCOT_clean_sbu_0--edge1-XUDNAN_clean_linker_2
_symmetry_space_group_name_H-M    P1
_symmetry_Int_Tables_number       1
_symmetry_cell_setting            triclinic
loop_
_symmetry_equiv_pos_as_xyz
'x, y, z'
_cell_length_a     28.023026
_cell_length_b     28.23795
_cell_length_c     51.859506
_cell_angle_alpha  89.994833
_cell_angle_beta   89.913853
_cell_angle_gamma 90.058523
loop_
_atom_site_label
_atom_site_type_symbol
_atom_site_fract_x
_atom_site_fract_y
_atom_site_fract_z
_atom_type_partial_charge
Co0 Co 0.13418 0.27827 0.1673 0.0
C1 C 0.20585 0.35547 0.16073 0.0
C2 C 0.21996 0.29629 0.13597 0.0
C3 C 0.25189 0.33181 0.13021 0.0
N4 N 0.19099 0.31105 0.15513 0.0
N5 N 0.24279 0.36905 0.14573 0.0
H6 H 0.188 0.37891 0.17408 0.0
H7 H 0.21648 0.26314 0.12575 0.0
C8 C 0.15197 0.17317 0.15566 0.0
O9 O 0.107 0.16236 0.15947 0.0
N10 N 0.07749 0.24654 0.17989 0.0
C11 C 0.03196 0.25676 0.17366 0.0
C12 C 1.002 0.22991 0.18884 0.0
C13 C 0.07458 0.21509 0.19947 0.0
N14 N 0.02894 0.20349 0.20482 0.0
C15 C 0.10361 0.33269 0.12478 0.0
C16 C 0.06469 0.26158 0.0949 0.0
C17 C 0.06283 0.30846 0.086 0.0
C18 C 0.0828 0.34411 0.10126 0.0
C19 C 0.08684 0.25147 0.11854 0.0
N20 N 0.10593 0.28695 0.13323 0.0
H21 H 0.11765 0.36111 0.13643 0.0
H22 H 0.08723 0.21548 0.12507 0.0
H23 H 0.02118 0.28249 0.15937 0.0
H24 H 0.10527 0.20056 0.20935 0.0
O25 O 0.10987 0.33519 0.18259 0.0
O26 O 0.15695 0.28417 0.2027 0.0
O27 O 0.16646 0.21614 0.15736 0.0
C28 C 0.13248 0.32346 0.20345 0.0
H29 H 0.27851 0.33092 0.11508 0.0
H30 H 0.9634 0.22928 0.18794 0.0
H31 H 0.04939 0.23305 0.08365 0.0
H32 H 0.08139 0.38089 0.09536 0.0
Co33 Co 0.2527 0.63675 0.41609 0.0
C34 C 0.18055 0.71271 0.40946 0.0
C35 C 0.22799 0.70934 0.37713 0.0
C36 C 0.19193 0.74113 0.3716 0.0
N37 N 0.22087 0.69149 0.40096 0.0
N38 N 0.16217 0.74309 0.39203 0.0
H39 H 0.16258 0.70372 0.42721 0.0
H40 H 0.25578 0.69798 0.36404 0.0
C41 C 0.33814 0.69111 0.40258 0.0
O42 O 0.31999 0.72429 0.41738 0.0
N43 N 0.28294 0.58177 0.43067 0.0
C44 C 0.26139 0.53969 0.4342 0.0
C45 C 0.29372 0.50879 0.4447 0.0
C46 C 0.32808 0.57625 0.43918 0.0
N47 N 0.3357 0.53163 0.44775 0.0
C48 C 0.1844 0.59374 0.38311 0.0
C49 C 0.24835 0.54704 0.35134 0.0
C50 C 0.19922 0.54168 0.34681 0.0
C51 C 0.16719 0.56529 0.36322 0.0
C52 C 0.26411 0.57557 0.3717 0.0
N53 N 0.23217 0.59878 0.38705 0.0
H54 H 0.15928 0.61165 0.39555 0.0
H55 H 0.30197 0.57843 0.37528 0.0
H56 H 0.22458 0.5321 0.4295 0.0
H57 H 0.3547 0.60403 0.43889 0.0
O58 O 0.19916 0.62651 0.43909 0.0
O59 O 0.26234 0.67066 0.44806 0.0
O60 O 0.3142 0.65349 0.39828 0.0
C61 C 0.22139 0.65365 0.45544 0.0
H62 H 0.18713 0.75998 0.35362 0.0
H63 H 0.28643 0.47251 0.45015 0.0
H64 H 0.27449 0.52979 0.33916 0.0
H65 H 0.12898 0.56149 0.36099 0.0
Co66 Co 0.8926 0.75959 0.66484 0.0
C67 C 0.83645 0.69108 0.63524 0.0
C68 C 0.79208 0.74577 0.65046 0.0
C69 C 0.76341 0.70853 0.64277 0.0
N70 N 0.83817 0.73465 0.64589 0.0
N71 N 0.79164 0.67367 0.63367 0.0
H72 H 0.86755 0.67034 0.63109 0.0
H73 H 0.78047 0.77635 0.66134 0.0
C74 C 0.85476 0.84398 0.63517 0.0
O75 O 0.83905 0.81644 0.61663 0.0
N76 N 0.9467 0.78246 0.68416 0.0
C77 C 0.98547 0.75638 0.68986 0.0
C78 C 1.01761 0.78435 0.70272 0.0
C79 C 0.95574 0.82616 0.69357 0.0
N80 N 0.99901 0.82819 0.70504 0.0
C81 C 0.95346 0.70577 0.63104 0.0
C82 C 0.99002 0.78169 0.60387 0.0
C83 C 1.00686 0.73619 0.59831 0.0
C84 C 0.988 0.69787 0.61206 0.0
C85 C 0.95493 0.78795 0.62271 0.0
N86 N 0.93577 0.75011 0.63559 0.0
H87 H 0.94248 0.67616 0.64277 0.0
H88 H 0.94555 0.82373 0.62764 0.0
H89 H 0.99043 0.71967 0.68458 0.0
H90 H 0.93131 0.85564 0.69225 0.0
O91 O 0.89818 0.69854 0.68193 0.0
O92 O 0.85459 0.75875 0.69579 0.0
O93 O 0.87713 0.82665 0.65444 0.0
C94 C 0.86866 0.71534 0.69903 0.0
H95 H 0.72545 0.70545 0.64626 0.0
H96 H 0.05266 0.77357 0.70921 0.0
H97 H 1.00451 0.8124 0.59408 0.0
H98 H 1.00141 0.66233 0.60901 0.0
Co99 Co 0.79229 0.39608 0.91191 0.0
C100 C 0.86591 0.33289 0.89064 0.0
C101 C 0.80522 0.29299 0.90291 0.0
C102 C 0.84204 0.26192 0.89744 0.0
N103 N 0.82 0.33776 0.89827 0.0
N104 N 0.88038 0.28739 0.89009 0.0
H105 H 0.89012 0.36206 0.88802 0.0
H106 H 0.77175 0.28364 0.91197 0.0
C107 C 0.70555 0.34678 0.89025 0.0
O108 O 0.72958 0.33747 0.86908 0.0
N109 N 0.76684 0.45456 0.92569 0.0
C110 C 0.78858 0.49685 0.92284 0.0
C111 C 0.75817 0.53191 0.93084 0.0
C112 C 0.72333 0.46442 0.93569 0.0
N113 N 0.71723 0.51163 0.93881 0.0
C114 C 0.83191 0.43761 0.86598 0.0
C115 C 0.74699 0.47225 0.84679 0.0
C116 C 0.78975 0.48527 0.83464 0.0
C117 C 0.8325 0.46671 0.84422 0.0
C118 C 0.74799 0.44305 0.86852 0.0
N119 N 0.79008 0.42546 0.87781 0.0
H120 H 0.8656 0.42853 0.87441 0.0
H121 H 0.71501 0.43756 0.87883 0.0
H122 H 0.82344 0.50203 0.91432 0.0
H123 H 0.696 0.43818 0.93939 0.0
O124 O 0.85538 0.41584 0.92254 0.0
O125 O 0.80571 0.37318 0.94634 0.0
O126 O 0.72539 0.36968 0.90863 0.0
C127 C 0.84748 0.39289 0.94387 0.0
H128 H 0.84192 0.22411 0.9009 0.0
H129 H 0.76522 0.56961 0.93041 0.0
H130 H 0.71309 0.48621 0.84029 0.0
H131 H 0.86657 0.47729 0.83617 0.0
Co132 Co 0.65079 0.25823 0.58369 0.0
C133 C 0.71353 0.18425 0.60445 0.0
C134 C 0.75084 0.25031 0.60042 0.0
C135 C 0.78256 0.21645 0.60885 0.0
N136 N 0.7076 0.23006 0.59786 0.0
N137 N 0.75906 0.17492 0.6112 0.0
H138 H 0.68526 0.15813 0.60384 0.0
H139 H 0.75925 0.28657 0.59552 0.0
C140 C 0.65114 0.36023 0.60227 0.0
O141 O 0.60439 0.36048 0.60414 0.0
N142 N 0.59381 0.28576 0.56871 0.0
C143 C 0.54974 0.26651 0.5679 0.0
C144 C 0.52114 0.29402 0.55254 0.0
C145 C 0.59158 0.32417 0.55317 0.0
N146 N 0.54742 0.33025 0.54338 0.0
C147 C 0.58734 0.20727 0.61753 0.0
C148 C 0.5988 0.26507 0.66003 0.0
C149 C 0.56365 0.2299 0.6606 0.0
C150 C 0.55942 0.19937 0.63949 0.0
C151 C 0.62659 0.27103 0.6379 0.0
N152 N 0.61783 0.24501 0.61617 0.0
H153 H 0.58326 0.18371 0.6013 0.0
H154 H 0.6549 0.29676 0.63852 0.0
H155 H 0.53898 0.23374 0.57676 0.0
H156 H 0.62188 0.3465 0.54864 0.0
O157 O 0.63785 0.1999 0.56512 0.0
O158 O 0.68061 0.2601 0.5503 0.0
O159 O 0.67343 0.32262 0.59563 0.0
C160 C 0.66321 0.218 0.54651 0.0
H161 H 0.82042 0.22153 0.61191 0.0
H162 H 0.48386 0.2877 0.54828 0.0
H163 H 0.60442 0.28805 0.67648 0.0
H164 H 0.53338 0.17099 0.63953 0.0
Co165 Co 0.29474 0.133 0.83493 0.0
C166 C 0.36607 0.20206 0.85512 0.0
C167 C 0.30108 0.20428 0.87686 0.0
C168 C 0.33371 0.2343 0.88818 0.0
N169 N 0.32122 0.18404 0.856 0.0
N170 N 0.37488 0.23264 0.87462 0.0
H171 H 0.39291 0.19063 0.84155 0.0
H172 H 0.26604 0.19608 0.88432 0.0
C173 C 0.1855 0.13612 0.84682 0.0
O174 O 0.17625 0.0943 0.8371 0.0
N175 N 0.27118 0.08182 0.8134 0.0
C176 C 0.29276 0.03929 0.81193 0.0
C177 C 0.2674 1.01077 0.79559 0.0
C178 C 0.23468 0.07962 0.79639 0.0
N179 N 0.23019 0.03565 0.78625 0.0
C180 C 0.3438 0.0893 0.87802 0.0
C181 C 0.27257 0.02533 0.88983 0.0
C182 C 0.31298 0.0268 0.90572 0.0
C183 C 0.34928 0.05919 0.89934 0.0
C184 C 0.26793 0.05691 0.86944 0.0
N185 N 0.30275 0.08905 0.86381 0.0
H186 H 0.37268 0.11289 0.87304 0.0
H187 H 0.237 0.05365 0.85757 0.0
H188 H 0.32427 0.02931 0.82264 0.0
H189 H 0.21038 0.10858 0.79266 0.0
O190 O 0.35566 0.12493 0.81764 0.0
O191 O 0.29777 0.17352 0.80522 0.0
O192 O 0.22824 0.15262 0.84738 0.0
C193 C 0.3403 0.15657 0.8013 0.0
H194 H 0.32767 0.25455 0.90557 0.0
H195 H 0.27503 0.97396 0.79149 0.0
H196 H 0.24457 0.99943 0.89268 0.0
H197 H 0.38149 0.06179 0.91073 0.0
Co198 Co 0.40367 0.77206 0.08538 0.0
C199 C 0.35554 0.85809 0.10528 0.0
C200 C 0.30782 0.79882 0.10217 0.0
C201 C 0.28214 0.83774 0.10996 0.0
N202 N 0.35373 0.81159 0.09931 0.0
N203 N 0.31205 0.87519 0.11193 0.0
H204 H 0.38793 0.87888 0.10427 0.0
H205 H 0.29367 0.76405 0.09793 0.0
C206 C 0.36379 0.67864 0.09239 0.0
O207 O 0.36728 0.67727 0.06715 0.0
N208 N 0.45363 0.73099 0.07198 0.0
C209 C 0.47976 0.70205 0.08707 0.0
C210 C 0.50761 0.67368 0.07185 0.0
C211 C 0.46588 0.71938 0.0475 0.0
N212 N 0.49876 0.68417 0.04696 0.0
C213 C 0.48779 0.80788 0.10869 0.0
C214 C 0.46319 0.78742 0.15921 0.0
C215 C 0.50917 0.80444 0.15377 0.0
C216 C 0.52087 0.81581 0.12823 0.0
C217 C 0.43115 0.77959 0.13897 0.0
N218 N 0.44439 0.78844 0.11409 0.0
H219 H 0.49771 0.81532 0.08895 0.0
H220 H 0.39616 0.76541 0.14321 0.0
H221 H 0.47764 0.70056 0.10787 0.0
H222 H 0.4499 0.73481 0.03051 0.0
O223 O 0.42132 0.82259 0.06187 0.0
O224 O 0.36716 0.76717 0.05401 0.0
O225 O 0.3769 0.71589 0.1044 0.0
C226 C 0.38853 0.80578 0.04668 0.0
H227 H 0.24394 0.8385 0.11287 0.0
H228 H 0.53241 0.64717 0.07869 0.0
H229 H 0.4528 0.77845 0.17874 0.0
H230 H 0.55573 0.82981 0.12331 0.0
Co231 Co 0.75575 0.88187 0.33972 0.0
C232 C 0.68132 0.81846 0.36109 0.0
C233 C 0.7492 0.78404 0.36003 0.0
C234 C 0.71495 0.75115 0.36681 0.0
N235 N 0.72832 0.82675 0.35698 0.0
N236 N 0.67224 0.77301 0.36744 0.0
H237 H 0.65341 0.84342 0.35673 0.0
H238 H 0.78618 0.77633 0.35581 0.0
C239 C 0.83265 0.8544 0.37646 0.0
O240 O 0.79948 0.85298 0.39439 0.0
N241 N 0.78097 0.93649 0.32176 0.0
C242 C 0.75441 0.97456 0.31573 0.0
C243 C 0.78287 1.00752 0.30398 0.0
C244 C 0.82567 0.94682 0.31364 0.0
N245 N 0.82786 0.99052 0.30278 0.0
C246 C 0.69729 0.93198 0.37729 0.0
C247 C 0.77153 0.98576 0.39664 0.0
C248 C 0.72532 0.99409 0.40568 0.0
C249 C 0.68788 0.96635 0.39611 0.0
C250 C 0.77939 0.95092 0.37816 0.0
N251 N 0.7428 0.92364 0.36896 0.0
H252 H 0.66752 0.91446 0.36846 0.0
H253 H 0.81497 0.94748 0.3704 0.0
H254 H 0.71677 0.97832 0.31987 0.0
H255 H 0.85585 0.92341 0.31609 0.0
O256 O 0.69689 0.88883 0.32041 0.0
O257 O 0.75915 0.84555 0.30847 0.0
O258 O 0.82156 0.86576 0.35335 0.0
C259 C 0.71639 0.8608 0.30345 0.0
H260 H 0.72079 0.71368 0.36985 0.0
H261 H 0.77082 0.0413 0.29666 0.0
H262 H 0.80131 1.00701 0.40325 0.0
H263 H 0.65141 0.97299 0.40203 0.0
H264 H 0.19602 0.32802 0.24424 0.0
H265 H 0.06859 0.39313 0.21261 0.0
H266 H 0.07094 0.45391 0.2465 0.0
H267 H 0.16796 0.35188 0.31275 0.0
H268 H 0.22917 0.3645 0.32091 0.0
H269 H 0.21571 0.3235 0.2953 0.0
H270 H 0.2678 0.37301 0.26398 0.0
H271 H 0.28097 0.41446 0.28939 0.0
H272 H 0.25507 0.43507 0.25964 0.0
H273 H 0.08986 0.5111 0.28091 0.0
H274 H 0.12184 0.55971 0.31615 0.0
H275 H 0.23596 0.45765 0.32746 0.0
C276 C 0.16813 0.3545 0.24485 0.0
C277 C 0.13202 0.35578 0.22585 0.0
C278 C 0.09661 0.39148 0.22695 0.0
C279 C 0.09759 0.42621 0.24614 0.0
C280 C 0.13418 0.42481 0.26418 0.0
C281 C 0.16863 0.38979 0.26396 0.0
C282 C 0.20496 0.39803 0.28519 0.0
C283 C 0.2044 0.35704 0.3047 0.0
C284 C 0.25517 0.40559 0.27387 0.0
C285 C 0.18569 0.44332 0.29706 0.0
C286 C 0.14485 0.45798 0.28456 0.0
C287 C 0.12135 0.49961 0.2912 0.0
C288 C 0.13972 0.52688 0.31141 0.0
C289 C 0.18109 0.51237 0.325 0.0
C290 C 0.20439 0.46997 0.31752 0.0
H291 H 1.01096 0.67153 0.55891 0.0
H292 H 0.09084 0.78499 0.59517 0.0
H293 H 0.15642 0.77339 0.56386 0.0
H294 H 0.11163 0.59596 0.54366 0.0
H295 H 0.08782 0.57778 0.51294 0.0
H296 H 0.04797 0.5937 0.53881 0.0
H297 H 1.00756 0.65619 0.50944 0.0
H298 H 0.04712 0.64025 0.48347 0.0
H299 H 0.04372 0.70093 0.49408 0.0
H300 H 0.21296 0.7498 0.5285 0.0
H301 H 0.25428 0.71944 0.48979 0.0
H302 H 0.13666 0.62265 0.47586 0.0
C303 C 0.04247 0.69362 0.56034 0.0
C304 C 0.04598 0.72911 0.57943 0.0
C305 C 0.08737 0.75785 0.58053 0.0
C306 C 0.12488 0.75132 0.56296 0.0
C307 C 0.1203 0.71607 0.54433 0.0
C308 C 0.08001 0.68793 0.54276 0.0
C309 C 0.08316 0.65402 0.52019 0.0
C310 C 0.08262 0.6023 0.52946 0.0
C311 C 0.04301 0.66344 0.50064 0.0
C312 C 0.13146 0.66755 0.50929 0.0
C313 C 0.15248 0.70311 0.52364 0.0
C314 C 0.1969 0.72188 0.51714 0.0
C315 C 0.22015 0.70432 0.49516 0.0
C316 C 0.19875 0.66862 0.47986 0.0
C317 C 0.15404 0.64979 0.48724 0.0
H318 H 0.84549 0.48875 0.79079 0.0
H319 H 0.73735 0.56684 0.83313 0.0
H320 H 0.74386 0.63237 0.80201 0.0
H321 H 0.9195 0.58663 0.77712 0.0
H322 H 0.93609 0.56745 0.74519 0.0
H323 H 0.92017 0.52441 0.76934 0.0
H324 H 0.85502 0.49017 0.7392 0.0
H325 H 0.871 0.53289 0.71484 0.0
H326 H 0.81023 0.52908 0.72608 0.0
H327 H 0.76618 0.69187 0.76871 0.0
H328 H 0.79994 0.74028 0.73361 0.0
H329 H 0.89409 0.62448 0.71252 0.0
C330 C 0.82282 0.51943 0.79334 0.0
C331 C 0.79056 0.52237 0.8143 0.0
C332 C 0.76155 0.56319 0.81696 0.0
C333 C 0.76526 0.60083 0.79948 0.0
C334 C 0.79799 0.59713 0.77937 0.0
C335 C 0.82598 0.55737 0.77602 0.0
C336 C 0.85943 0.56321 0.75321 0.0
C337 C 0.9119 0.56026 0.76173 0.0
C338 C 0.84823 0.52667 0.73208 0.0
C339 C 0.8465 0.61287 0.74463 0.0
C340 C 0.81088 0.63165 0.75998 0.0
C341 C 0.7938 0.67744 0.75641 0.0
C342 C 0.81338 0.70472 0.73648 0.0
C343 C 0.84967 0.68617 0.72035 0.0
C344 C 0.86634 0.63958 0.72451 0.0
H345 H 0.8456 0.33702 0.98736 0.0
H346 H 0.93635 0.43233 0.9435 0.0
H347 H 1.0023 0.41767 0.97391 0.0
H348 H 0.88874 0.36972 0.05028 0.0
H349 H 0.88572 0.31034 0.06294 0.0
H350 H 0.84564 0.32834 0.03768 0.0
H351 H 0.87452 0.25813 0.00956 0.0
H352 H 0.9151 0.24019 0.03464 0.0
H353 H 0.93725 0.25188 0.00261 0.0
H354 H 0.05796 0.39384 0.00911 0.0
H355 H 0.09923 0.36425 0.04793 0.0
H356 H 0.97351 0.2831 0.06887 0.0
C357 C 0.87924 0.35506 0.98427 0.0
C358 C 0.88575 0.38607 0.96313 0.0
C359 C 0.93045 0.40863 0.95961 0.0
C360 C 0.96821 0.40038 0.97672 0.0
C361 C 0.96081 0.36928 0.9972 0.0
C362 C 0.91746 0.34705 0.00112 0.0
C363 C 0.91901 0.31549 0.02479 0.0
C364 C 0.88263 0.33197 0.04513 0.0
C365 C 0.911 0.26333 0.01745 0.0
C366 C 0.96983 0.3239 0.0337 0.0
C367 C 0.9933 0.35493 0.0174 0.0
C368 C 0.04005 0.36938 0.02196 0.0
C369 C 0.06317 0.35243 0.04403 0.0
C370 C 0.03962 0.32128 0.06128 0.0
C371 C 0.9926 0.30626 0.05577 0.0
H372 H 0.64142 0.12529 0.53487 0.0
H373 H 0.70776 0.2521 0.50373 0.0
H374 H 0.72747 0.20905 0.46383 0.0
H375 H 0.72667 0.04385 0.50961 0.0
H376 H 0.68373 0.99817 0.50243 0.0
H377 H 0.67251 0.03935 0.52824 0.0
H378 H 0.59194 0.06247 0.50726 0.0
H379 H 0.60289 0.02132 0.48136 0.0
H380 H 0.591 0.08268 0.47428 0.0
H381 H 0.74332 0.15253 0.4284 0.0
H382 H 0.75401 0.08495 0.39881 0.0
H383 H 0.67695 0.99403 0.45196 0.0
C384 C 0.65964 0.14406 0.51953 0.0
C385 C 0.67295 0.19209 0.52236 0.0
C386 C 0.6972 0.21533 0.50199 0.0
C387 C 0.7085 0.19122 0.47922 0.0
C388 C 0.69525 0.14388 0.47709 0.0
C389 C 0.67131 0.12044 0.4966 0.0
C390 C 0.66263 0.069 0.48953 0.0
C391 C 0.6879 0.03564 0.50858 0.0
C392 C 0.60892 0.05825 0.48802 0.0
C393 C 0.6857 0.06728 0.46306 0.0
C394 C 0.70425 0.11097 0.45636 0.0
C395 C 0.72874 0.11819 0.43333 0.0
C396 C 0.73478 0.07964 0.41672 0.0
C397 C 0.71629 0.03449 0.42317 0.0
C398 C 0.69096 0.02837 0.44651 0.0
H399 H 0.41442 0.11222 0.77613 0.0
H400 H 0.33443 0.24357 0.7795 0.0
H401 H 0.38512 0.27712 0.74513 0.0
H402 H 0.53052 0.16355 0.76276 0.0
H403 H 0.54788 0.11781 0.7404 0.0
H404 H 0.50695 0.10446 0.76623 0.0
H405 H 0.44518 0.07338 0.73317 0.0
H406 H 0.48594 0.08647 0.70724 0.0
H407 H 0.42666 0.11117 0.70701 0.0
H408 H 0.44488 0.2973 0.71139 0.0
H409 H 0.50583 0.3004 0.67694 0.0
H410 H 0.54388 0.15439 0.69254 0.0
C411 C 0.40787 0.14809 0.76965 0.0
C412 C 0.37072 0.17546 0.78047 0.0
C413 C 0.36263 0.222 0.77136 0.0
C414 C 0.39137 0.24145 0.75196 0.0
C415 C 0.42763 0.21364 0.74161 0.0
C416 C 0.43567 0.16778 0.74984 0.0
C417 C 0.47555 0.14489 0.73445 0.0
C418 C 0.51772 0.13192 0.75201 0.0
C419 C 0.45722 0.10141 0.71958 0.0
C420 C 0.48848 0.18505 0.71629 0.0
C421 C 0.46083 0.22459 0.72111 0.0
C422 C 0.46664 0.26655 0.70734 0.0
C423 C 0.50137 0.26805 0.68792 0.0
C424 C 0.52926 0.22767 0.6822 0.0
C425 C 0.52274 0.18563 0.69655 0.0
H426 H 0.43898 0.85977 0.01163 0.0
H427 H 0.29626 0.8154 0.03343 0.0
H428 H 0.26213 0.86894 0.00077 0.0
H429 H 0.4138 0.98072 0.99822 0.0
H430 H 0.45122 0.98477 0.97 0.0
H431 H 0.4654 0.94304 0.99512 0.0
H432 H 0.46428 0.87432 0.96203 0.0
H433 H 0.45083 0.91595 0.93674 0.0
H434 H 0.41236 0.86569 0.94209 0.0
H435 H 0.24333 0.93266 0.96975 0.0
H436 H 0.23962 0.99233 0.93563 0.0
H437 H 0.39437 0.98811 0.92845 0.0
C438 C 0.40063 0.86108 0.0092 0.0
C439 C 0.37009 0.83357 0.0249 0.0
C440 C 0.32013 0.83586 0.02131 0.0
C441 C 0.30043 0.86644 0.003 0.0
C442 C 0.33128 0.89364 0.98804 0.0
C443 C 0.38029 0.89041 0.99033 0.0
C444 C 0.40501 0.92222 0.97082 0.0
C445 C 0.43567 0.95992 0.98436 0.0
C446 C 0.43488 0.89278 0.95179 0.0
C447 C 0.36213 0.94436 0.95764 0.0
C448 C 0.32013 0.92784 0.96829 0.0
C449 C 0.27588 0.94481 0.96063 0.0
C450 C 0.27425 0.97854 0.94094 0.0
C451 C 0.31653 0.99415 0.92837 0.0
C452 C 0.36118 0.97714 0.93731 0.0
H453 H 0.62315 0.87809 0.28964 0.0
H454 H 0.75435 0.81254 0.26294 0.0
H455 H 0.71488 0.79026 0.22231 0.0
H456 H 0.5431 0.79059 0.26205 0.0
H457 H 0.4982 0.83337 0.25339 0.0
H458 H 0.53648 0.8441 0.28066 0.0
H459 H 0.56245 0.92433 0.26082 0.0
H460 H 0.52428 0.91385 0.23349 0.0
H461 H 0.58688 0.92565 0.22865 0.0
H462 H 0.66297 0.7771 0.18432 0.0
H463 H 0.60017 0.77164 0.1512 0.0
H464 H 0.50132 0.84396 0.20223 0.0
C465 C 0.64348 0.85899 0.27524 0.0
C466 C 0.69185 0.84711 0.27941 0.0
C467 C 0.71725 0.82196 0.26018 0.0
C468 C 0.69518 0.80916 0.23702 0.0
C469 C 0.64758 0.82147 0.23345 0.0
C470 C 0.62184 0.84558 0.25201 0.0
C471 C 0.57105 0.85436 0.24314 0.0
C472 C 0.53509 0.82909 0.26086 0.0
C473 C 0.56057 0.90772 0.24142 0.0
C474 C 0.57252 0.83177 0.21662 0.0
C475 C 0.61711 0.81314 0.21148 0.0
C476 C 0.62785 0.79143 0.1881 0.0
C477 C 0.59206 0.78875 0.16938 0.0
C478 C 0.54604 0.80754 0.17414 0.0
C479 C 0.53611 0.82901 0.19818 0.0
H480 H 0.2302 0.90517 0.13539 0.0
H481 H 0.36361 0.95601 0.10275 0.0
H482 H 0.33914 0.03813 0.11205 0.0
H483 H 0.15742 0.99524 0.10864 0.0
H484 H 0.11848 0.99864 0.13628 0.0
H485 H 0.14824 0.94391 0.12873 0.0
H486 H 0.18484 0.942 0.17461 0.0
H487 H 0.15516 0.99676 0.1823 0.0
H488 H 0.21895 0.99203 0.18588 0.0
H489 H 0.2981 0.11599 0.12416 0.0
H490 H 0.24377 0.18113 0.13677 0.0
H491 H 0.13661 0.07783 0.15911 0.0
C492 C 0.25448 0.93324 0.13002 0.0
C493 C 0.29901 0.92348 0.11825 0.0
C494 C 0.32959 0.96197 0.11205 0.0
C495 C 0.31589 1.00897 0.11716 0.0
C496 C 0.27144 0.01709 0.12844 0.0
C497 C 0.24124 0.98016 0.13474 0.0
C498 C 0.19463 0.99801 0.14582 0.0
C499 C 0.1522 0.98307 0.12885 0.0
C500 C 0.18803 0.9812 0.17381 0.0
C501 C 0.203 0.05086 0.14456 0.0
C502 C 0.24763 0.06136 0.13473 0.0
C503 C 0.26307 0.10807 0.13185 0.0
C504 C 0.23195 0.14487 0.13906 0.0
C505 C 0.18573 0.13472 0.14875 0.0
C506 C 0.1715 0.08697 0.15159 0.0
H507 H 0.59271 0.81542 0.38645 0.0
H508 H 0.64572 0.68276 0.35559 0.0
H509 H 0.56508 0.64793 0.3597 0.0
H510 H 0.51309 0.76457 0.43304 0.0
H511 H 0.46792 0.80929 0.42884 0.0
H512 H 0.52967 0.82353 0.42309 0.0
H513 H 0.50847 0.85201 0.37702 0.0
H514 H 0.44666 0.83759 0.38256 0.0
H515 H 0.47777 0.81243 0.35538 0.0
H516 H 0.47773 0.628 0.36679 0.0
H517 H 0.39257 0.62293 0.37894 0.0
H518 H 0.39716 0.76868 0.40546 0.0
C519 C 0.58731 0.77912 0.38042 0.0
C520 C 0.62562 0.75187 0.37066 0.0
C521 C 0.61717 0.70421 0.36338 0.0
C522 C 0.57135 0.68424 0.36545 0.0
C523 C 0.53434 0.71228 0.37496 0.0
C524 C 0.54195 0.7586 0.3825 0.0
C525 C 0.4965 0.78089 0.39267 0.0
C526 C 0.50215 0.79541 0.4211 0.0
C527 C 0.48147 0.82323 0.3759 0.0
C528 C 0.46207 0.73984 0.38977 0.0
C529 C 0.48445 0.70068 0.37932 0.0
C530 C 0.45988 0.65847 0.37498 0.0
C531 C 0.41142 0.656 0.38186 0.0
C532 C 0.38802 0.6954 0.39313 0.0
C533 C 0.41384 0.73793 0.39685 0.0
H534 H 0.73145 0.08818 0.5936 0.0
H535 H 0.8329 0.15907 0.64357 0.0
H536 H 0.86937 0.08197 0.65427 0.0
H537 H 0.71424 0.98456 0.63325 0.0
H538 H 0.71038 0.94441 0.60632 0.0
H539 H 0.69218 1.00518 0.6026 0.0
H540 H 0.75074 1.01473 0.5643 0.0
H541 H 0.76934 0.95405 0.56793 0.0
H542 H 0.813 1.00095 0.56874 0.0
H543 H 0.89402 0.99786 0.66006 0.0
H544 H 0.90599 0.91157 0.66055 0.0
H545 H 0.78929 0.89414 0.60639 0.0
C546 C 0.76102 0.08739 0.60698 0.0
C547 C 0.77933 0.12965 0.61783 0.0
C548 C 0.81863 0.12721 0.6349 0.0
C549 C 0.83944 0.08359 0.64114 0.0
C550 C 0.82074 0.0427 0.63002 0.0
C551 C 0.78249 0.04411 0.61327 0.0
C552 C 0.76963 0.99485 0.60385 0.0
C553 C 0.71858 0.98147 0.612 0.0
C554 C 0.77608 0.99093 0.57446 0.0
C555 C 0.80645 0.96551 0.61811 0.0
C556 C 0.83547 0.99394 0.63309 0.0
C557 C 0.87154 0.97521 0.64841 0.0
C558 C 0.87791 0.92605 0.64864 0.0
C559 C 0.84847 0.89599 0.63361 0.0
C560 C 0.81257 0.91619 0.61795 0.0
H561 H 0.45371 0.24316 0.84356 0.0
H562 H 0.4008 0.27107 0.92093 0.0
H563 H 0.47864 0.30456 0.93269 0.0
H564 H 0.57021 0.20588 0.86293 0.0
H565 H 0.60015 0.23252 0.83577 0.0
H566 H 0.53924 0.21293 0.83273 0.0
H567 H 0.51413 0.29676 0.81785 0.0
H568 H 0.57498 0.31667 0.82076 0.0
H569 H 0.52809 0.3472 0.8378 0.0
H570 H 0.56298 0.33345 0.93671 0.0
H571 H 0.64773 0.35563 0.93256 0.0
H572 H 0.64749 0.30655 0.85318 0.0
C573 C 0.45819 0.25605 0.86303 0.0
C574 C 0.42031 0.2542 0.88121 0.0
C575 C 0.42838 0.27235 0.90637 0.0
C576 C 0.47282 0.29132 0.91336 0.0
C577 C 0.50925 0.29195 0.89508 0.0
C578 C 0.50249 0.27483 0.87042 0.0
C579 C 0.54799 0.27876 0.85462 0.0
C580 C 0.56542 0.22959 0.84601 0.0
C581 C 0.54085 0.31182 0.83139 0.0
C582 C 0.58145 0.30051 0.87434 0.0
C583 C 0.55824 0.30802 0.89751 0.0
C584 C 0.58152 0.32776 0.91866 0.0
C585 C 0.62977 0.34025 0.91609 0.0
C586 C 0.65453 0.33282 0.89257 0.0
C587 C 0.62979 0.31259 0.87146 0.0
H588 H 0.62106 0.45328 0.60266 0.0
H589 H 0.74443 0.36401 0.61663 0.0
H590 H 0.79278 0.43465 0.62612 0.0
H591 H 0.68519 0.54708 0.57104 0.0
H592 H 0.65 0.59409 0.58487 0.0
H593 H 0.62391 0.53645 0.57998 0.0
H594 H 0.60098 0.53241 0.62834 0.0
H595 H 0.62688 0.59011 0.63337 0.0
H596 H 0.64652 0.5405 0.65247 0.0
H597 H 0.82778 0.51336 0.63427 0.0
H598 H 0.84889 0.59652 0.6402 0.0
H599 H 0.70464 0.63798 0.61926 0.0
C600 C 0.65813 0.44868 0.60796 0.0
C601 C 0.67899 0.40307 0.60891 0.0
C602 C 0.72775 0.39852 0.61559 0.0
C603 C 0.7555 0.43845 0.62111 0.0
C604 C 0.73412 0.48283 0.61973 0.0
C605 C 0.68664 0.4884 0.61331 0.0
C606 C 0.67318 0.54052 0.61269 0.0
C607 C 0.65713 0.5554 0.58553 0.0
C608 C 0.6346 0.55152 0.63292 0.0
C609 C 0.72057 0.56318 0.61978 0.0
C610 C 0.75498 0.52901 0.62382 0.0
C611 C 0.80134 0.54055 0.63088 0.0
C612 C 0.81309 0.58833 0.6339 0.0
C613 C 0.77881 0.62454 0.62965 0.0
C614 C 0.73178 0.61144 0.62256 0.0
H615 H 0.08969 0.11481 0.84536 0.0
H616 H 0.18926 0.22377 0.86992 0.0
H617 H 0.12187 0.27232 0.88528 0.0
H618 H 1.00097 0.19379 0.82152 0.0
H619 H 0.95125 0.15798 0.83191 0.0
H620 H 1.0074 0.13045 0.82415 0.0
H621 H 1.00958 0.09163 0.86939 0.0
H622 H 0.9534 0.11905 0.87731 0.0
H623 H 1.0046 0.12837 0.8977 0.0
H624 H 0.0439 0.30965 0.8973 0.0
H625 H 0.96081 0.33469 0.90397 0.0
H626 H 0.91072 0.20311 0.87023 0.0
C627 C 0.09752 0.14869 0.85418 0.0
C628 C 0.14512 0.16512 0.85667 0.0
C629 C 0.15341 0.21 0.86803 0.0
C630 C 0.11526 0.23793 0.87679 0.0
C631 C 0.06893 0.22066 0.87397 0.0
C632 C 0.05985 0.17716 0.86287 0.0
C633 C 1.00658 0.16769 0.86124 0.0
C634 C 0.99063 0.16217 0.83303 0.0
C635 C 0.99274 0.1241 0.87738 0.0
C636 C 0.98707 0.21284 0.87305 0.0
C637 C 0.02375 0.24273 0.88036 0.0
C638 C 1.01492 0.28667 0.89149 0.0
C639 C 0.96743 0.30076 0.89498 0.0
C640 C 0.92903 0.27124 0.88719 0.0
C641 C 0.93922 0.22638 0.87639 0.0
H642 H 0.34524 0.59192 0.07186 0.0
H643 H 0.34399 0.66895 0.14428 0.0
H644 H 0.31478 0.59678 0.16661 0.0
H645 H 0.23935 0.52541 0.0824 0.0
H646 H 0.26202 0.47295 0.06685 0.0
H647 H 0.28339 0.53039 0.05717 0.0
H648 H 0.37037 0.5038 0.06606 0.0
H649 H 0.34926 0.4463 0.07588 0.0
H650 H 0.38582 0.48087 0.0974 0.0
H651 H 0.28282 0.51557 0.18038 0.0
H652 H 0.25267 0.43335 0.18438 0.0
H653 H 0.2769 0.41167 0.10263 0.0
C654 C 0.33891 0.59385 0.09243 0.0
C655 C 0.34674 0.63614 0.10633 0.0
C656 C 0.33819 0.63689 0.13326 0.0
C657 C 0.32164 0.5961 0.14607 0.0
C658 C 0.31421 0.55497 0.13167 0.0
C659 C 0.32278 0.55369 0.10544 0.0
C660 C 0.31185 0.50557 0.09414 0.0
C661 C 0.27177 0.5088 0.07396 0.0
C662 C 0.35702 0.4828 0.08271 0.0
C663 C 0.29542 0.47976 0.11806 0.0
C664 C 0.29689 0.50867 0.13956 0.0
C665 C 0.28182 0.49263 0.16367 0.0
C666 C 0.26461 0.446 0.16575 0.0
C667 C 0.26281 0.41596 0.14387 0.0
C668 C 0.27877 0.43328 0.11983 0.0
H669 H 0.90722 0.83172 0.34391 0.0
H670 H 0.87133 0.85169 0.42464 0.0
H671 H 0.95375 0.83121 0.4368 0.0
H672 H 0.98046 0.73061 0.35349 0.0
H673 H 0.02325 0.74594 0.32887 0.0
H674 H 0.96246 0.76588 0.3262 0.0
H675 H 0.99185 0.85265 0.32254 0.0
H676 H 0.0528 0.83294 0.32527 0.0
H677 H 0.02986 0.87673 0.34731 0.0
H678 H 0.03858 0.80582 0.44059 0.0
H679 H 0.11963 0.77322 0.43597 0.0
H680 H 0.101 0.76661 0.35298 0.0
C681 C 0.91691 0.83235 0.36411 0.0
C682 C 0.88281 0.84354 0.38333 0.0
C683 C 0.89673 0.84323 0.40958 0.0
C684 C 0.94357 0.83184 0.41668 0.0
C685 C 0.97619 0.82064 0.39734 0.0
C686 C 0.96355 0.82055 0.3716 0.0
C687 C 1.00493 0.80439 0.35484 0.0
C688 C 0.99199 0.75901 0.33998 0.0
C689 C 0.02079 0.84405 0.3364 0.0
C690 C 0.04252 0.79486 0.37524 0.0
C691 C 0.02522 0.80499 0.39958 0.0
C692 C 0.05256 0.79784 0.42162 0.0
C693 C 0.09852 0.77904 0.4188 0.0
C694 C 0.1168 0.76709 0.39414 0.0
C695 C 0.08849 0.77595 0.37205 0.0
H696 H 0.83673 0.08535 0.29487 0.0
H697 H 0.9117 0.95196 0.28559 0.0
H698 H 0.97735 0.99427 0.26337 0.0
H699 H 0.85978 0.12722 0.23327 0.0
H700 H 0.86536 0.18836 0.2428 0.0
H701 H 0.82865 0.14874 0.26136 0.0
H702 H 0.87673 0.16945 0.30254 0.0
H703 H 0.91368 0.20925 0.28407 0.0
H704 H 0.94066 0.16236 0.30256 0.0
H705 H 0.03194 0.05162 0.23879 0.0
H706 H 0.067 0.11653 0.21259 0.0
H707 H 0.95193 0.20936 0.23587 0.0
C708 C 0.86677 0.06463 0.2883 0.0
C709 C 0.86855 1.015 0.2919 0.0
C710 C 0.90944 0.98997 0.28332 0.0
C711 C 0.94692 1.01375 0.27062 0.0
C712 C 0.94301 0.06254 0.26672 0.0
C713 C 0.90381 0.08754 0.27536 0.0
C714 C 0.9056 0.1388 0.26699 0.0
C715 C 0.86229 0.15149 0.2501 0.0
C716 C 0.90941 0.17191 0.29044 0.0
C717 C 0.95128 0.13869 0.25153 0.0
C718 C 0.97309 0.09476 0.25203 0.0
C719 C 1.01528 0.08617 0.23848 0.0
C720 C 0.03503 0.12317 0.22376 0.0
C721 C 1.01202 0.16772 0.22233 0.0
C722 C 0.97006 0.17555 0.23668 0.0
H723 H 0.48529 0.3209 0.5042 0.0
H724 H 0.57046 0.42349 0.54574 0.0
H725 H 0.53179 0.48852 0.52125 0.0
H726 H 0.48204 0.38623 0.44146 0.0
H727 H 0.42156 0.3675 0.43547 0.0
H728 H 0.46144 0.32982 0.45338 0.0
H729 H 0.40064 0.32714 0.49109 0.0
H730 H 0.36085 0.365 0.47346 0.0
H731 H 0.38035 0.38185 0.50527 0.0
H732 H 0.47438 0.54218 0.49652 0.0
H733 H 0.40632 0.57853 0.47343 0.0
H734 H 0.36181 0.4394 0.44746 0.0
C735 C 0.49645 0.35703 0.50772 0.0
C736 C 0.53066 0.36741 0.52678 0.0
C737 C 0.54461 0.41498 0.53095 0.0
C738 C 0.52276 0.45201 0.51718 0.0
C739 C 0.48784 0.44057 0.49903 0.0
C740 C 0.47544 0.39404 0.49403 0.0
C741 C 0.43466 0.39079 0.47509 0.0
C742 C 0.45091 0.36719 0.44985 0.0
C743 C 0.3916 0.36468 0.48696 0.0
C744 C 0.4243 0.44274 0.47113 0.0
C745 C 0.4556 0.47112 0.48473 0.0
C746 C 0.4503 0.52026 0.4854 0.0
C747 C 0.4116 0.54065 0.47219 0.0
C748 C 0.37853 0.51183 0.45873 0.0
C749 C 0.38605 0.46244 0.45776 0.0
H750 H 0.06033 0.82644 0.74498 0.0
H751 H 0.99189 0.92077 0.69057 0.0
H752 H 0.04052 0.98766 0.70723 0.0
H753 H 0.07267 0.91181 0.79788 0.0
H754 H 0.12972 0.88799 0.80725 0.0
H755 H 0.08562 0.85 0.79273 0.0
H756 H 0.14682 0.82585 0.75755 0.0
H757 H 0.19088 0.86406 0.77176 0.0
H758 H 0.17499 0.87117 0.73832 0.0
H759 H 0.10346 0.04288 0.72824 0.0
H760 H 0.17163 0.07956 0.75161 0.0
H761 H 0.19643 0.94658 0.79108 0.0
C762 C 0.0552 0.86125 0.73671 0.0
C763 C 0.02256 0.86843 0.71644 0.0
C764 C 1.01645 0.91464 0.70631 0.0
C765 C 0.04407 0.95272 0.71558 0.0
C766 C 0.07712 0.94394 0.73514 0.0
C767 C 0.08221 0.89926 0.74571 0.0
C768 C 0.1214 0.89783 0.7656 0.0
C769 C 0.10113 0.88624 0.79245 0.0
C770 C 0.16084 0.86266 0.75782 0.0
C771 C 0.13874 0.94835 0.76416 0.0
C772 C 0.11274 0.97486 0.74676 0.0
C773 C 0.12376 0.02238 0.74201 0.0
C774 C 0.16245 0.04295 0.75533 0.0
C775 C 0.18982 0.01576 0.77284 0.0
C776 C 0.17706 0.96812 0.77739 0.0
H777 H 0.66251 0.49139 0.98052 0.0
H778 H 0.67991 0.59009 0.91736 0.0
H779 H 0.61669 0.64102 0.93565 0.0
H780 H 0.53023 0.50914 0.99007 0.0
H781 H 0.53579 0.50527 0.02463 0.0
H782 H 0.57595 0.47249 0.00415 0.0
H783 H 0.64806 0.51188 0.02689 0.0
H784 H 0.60825 0.54498 0.04724 0.0
H785 H 0.65206 0.57559 0.02795 0.0
H786 H 0.5595 0.68623 0.96363 0.0
H787 H 0.51399 0.72238 0.99949 0.0
H788 H 0.53362 0.59444 0.04454 0.0
C789 C 0.65162 0.52286 0.97018 0.0
C790 C 0.67558 0.53677 0.94748 0.0
C791 C 0.66174 0.57897 0.93478 0.0
C792 C 0.62577 0.60794 0.94496 0.0
C793 C 0.60387 0.59421 0.96789 0.0
C794 C 0.61603 0.5525 0.98029 0.0
C795 C 0.59084 0.54854 0.00607 0.0
C796 C 0.55613 0.50635 0.00623 0.0
C797 C 0.62696 0.54506 0.02834 0.0
C798 C 0.56421 0.59522 0.00661 0.0
C799 C 0.57144 0.62072 0.98424 0.0
C800 C 0.55291 0.66624 0.98108 0.0
C801 C 0.527 0.6865 0.00152 0.0
C802 C 0.52037 0.66148 0.0249 0.0
C803 C 0.53839 0.61481 0.02707 0.0
loop_
_geom_bond_atom_site_label_1
_geom_bond_atom_site_label_2
_geom_bond_distance
_geom_bond_site_symmetry_2
_ccdc_geom_bond_type
Co0 N4 2.148 . S
Co0 N10 2.128 . S
Co0 N20 2.194 . S
Co0 O25 2.351 . S
Co0 O26 2.155 . S
Co0 O27 2.096 . S
C1 N4 1.301 . S
C1 N5 1.328 . S
C1 H6 0.930 . S
C2 C3 1.333 . S
C2 N4 1.317 . S
C2 H7 0.930 . S
C3 C2 1.333 . S
C3 N5 1.350 . S
C3 H29 0.931 . S
N4 Co0 2.148 . S
N4 C1 1.301 . S
N4 C2 1.317 . S
N5 C1 1.328 . S
N5 C3 1.350 . S
H6 C1 0.930 . S
H7 C2 0.930 . S
C8 O9 1.224 . S
C8 O27 1.247 . S
O9 C8 1.224 . S
N10 Co0 2.128 . S
N10 C11 1.355 . S
N10 C13 1.311 . S
C11 N10 1.355 . S
C11 C12 1.363 1_455 S
C11 H23 0.932 . S
C12 C11 1.363 1_655 S
C12 N14 1.375 1_655 S
C12 H30 0.931 . S
C13 N10 1.311 . S
C13 N14 1.347 . S
C13 H24 0.929 . S
N14 C12 1.375 1_455 S
N14 C13 1.347 . S
C15 C18 1.365 . S
C15 N20 1.328 . S
C15 H21 0.929 . S
C16 C17 1.362 1_455 S
C16 C19 1.378 . S
C16 H31 0.929 . S
C17 C16 1.362 1_655 S
C17 C18 1.366 1_655 S
C18 C15 1.365 . S
C18 C17 1.366 1_455 S
C18 H32 0.930 1_455 S
C19 C16 1.378 . S
C19 N20 1.315 . S
C19 H22 0.930 . S
N20 Co0 2.194 . S
N20 C15 1.328 . S
N20 C19 1.315 . S
H21 C15 0.929 . S
H22 C19 0.930 . S
H23 C11 0.932 . S
H24 C13 0.929 . S
O25 Co0 2.351 . S
O25 C28 1.244 . S
O26 Co0 2.155 . S
O26 C28 1.240 . S
O27 Co0 2.096 . S
O27 C8 1.247 . S
C28 O25 1.244 . S
C28 O26 1.240 . S
H29 C3 0.931 . S
H30 C12 0.931 . S
H31 C16 0.929 . S
H32 C18 0.930 1_655 S
Co33 N37 2.148 . S
Co33 N43 2.128 . S
Co33 N53 2.194 . S
Co33 O58 2.351 . S
Co33 O59 2.155 . S
Co33 O60 2.096 . S
C34 N37 1.301 . S
C34 N38 1.328 . S
C34 H39 0.930 . S
C35 C36 1.333 . S
C35 N37 1.317 . S
C35 H40 0.930 . S
C36 C35 1.333 . S
C36 N38 1.350 . S
C36 H62 0.931 . S
N37 Co33 2.148 . S
N37 C34 1.301 . S
N37 C35 1.317 . S
N38 C34 1.328 . S
N38 C36 1.350 . S
H39 C34 0.930 . S
H40 C35 0.930 . S
C41 O42 1.224 . S
C41 O60 1.247 . S
O42 C41 1.224 . S
N43 Co33 2.128 . S
N43 C44 1.355 . S
N43 C46 1.311 . S
C44 N43 1.355 . S
C44 C45 1.363 . S
C44 H56 0.929 . S
C45 C44 1.363 . S
C45 N47 1.375 . S
C45 H63 0.931 . S
C46 N43 1.311 . S
C46 N47 1.347 . S
C46 H57 0.929 . S
N47 C45 1.375 . S
N47 C46 1.347 . S
C48 C51 1.365 . S
C48 N53 1.328 . S
C48 H54 0.929 . S
C49 C50 1.362 . S
C49 C52 1.378 . S
C49 H64 0.929 . S
C50 C49 1.362 . S
C50 C51 1.366 . S
C51 C48 1.365 . S
C51 C50 1.366 . S
C51 H65 0.930 . S
C52 C49 1.378 . S
C52 N53 1.315 . S
C52 H55 0.930 . S
N53 Co33 2.194 . S
N53 C48 1.328 . S
N53 C52 1.315 . S
H54 C48 0.929 . S
H55 C52 0.930 . S
H56 C44 0.929 . S
H57 C46 0.929 . S
O58 Co33 2.351 . S
O58 C61 1.244 . S
O59 Co33 2.155 . S
O59 C61 1.240 . S
O60 Co33 2.096 . S
O60 C41 1.247 . S
C61 O58 1.244 . S
C61 O59 1.240 . S
H62 C36 0.931 . S
H63 C45 0.931 . S
H64 C49 0.929 . S
H65 C51 0.930 . S
Co66 N70 2.148 . S
Co66 N76 2.128 . S
Co66 N86 2.194 . S
Co66 O91 2.351 . S
Co66 O92 2.155 . S
Co66 O93 2.096 . S
C67 N70 1.301 . S
C67 N71 1.328 . S
C67 H72 0.930 . S
C68 C69 1.333 . S
C68 N70 1.317 . S
C68 H73 0.930 . S
C69 C68 1.333 . S
C69 N71 1.350 . S
C69 H95 0.931 . S
N70 Co66 2.148 . S
N70 C67 1.301 . S
N70 C68 1.317 . S
N71 C67 1.328 . S
N71 C69 1.350 . S
H72 C67 0.930 . S
H73 C68 0.930 . S
C74 O75 1.224 . S
C74 O93 1.247 . S
O75 C74 1.224 . S
N76 Co66 2.128 . S
N76 C77 1.355 . S
N76 C79 1.311 . S
C77 N76 1.355 . S
C77 C78 1.363 1_655 S
C77 H89 0.932 . S
C78 C77 1.363 1_455 S
C78 N80 1.375 1_455 S
C78 H96 0.931 . S
C79 N76 1.311 . S
C79 N80 1.347 . S
C79 H90 0.929 . S
N80 C78 1.375 1_655 S
N80 C79 1.347 . S
C81 C84 1.365 . S
C81 N86 1.328 . S
C81 H87 0.929 . S
C82 C83 1.362 1_655 S
C82 C85 1.378 . S
C82 H97 0.929 . S
C83 C82 1.362 1_455 S
C83 C84 1.366 1_455 S
C84 C81 1.365 . S
C84 C83 1.366 1_655 S
C84 H98 0.930 1_655 S
C85 C82 1.378 . S
C85 N86 1.315 . S
C85 H88 0.930 . S
N86 Co66 2.194 . S
N86 C81 1.328 . S
N86 C85 1.315 . S
H87 C81 0.929 . S
H88 C85 0.930 . S
H89 C77 0.932 . S
H90 C79 0.929 . S
O91 Co66 2.351 . S
O91 C94 1.244 . S
O92 Co66 2.155 . S
O92 C94 1.240 . S
O93 Co66 2.096 . S
O93 C74 1.247 . S
C94 O91 1.244 . S
C94 O92 1.240 . S
H95 C69 0.931 . S
H96 C78 0.931 . S
H97 C82 0.929 . S
H98 C84 0.930 1_455 S
Co99 N103 2.148 . S
Co99 N109 2.128 . S
Co99 N119 2.194 . S
Co99 O124 2.351 . S
Co99 O125 2.155 . S
Co99 O126 2.096 . S
C100 N103 1.301 . S
C100 N104 1.328 . S
C100 H105 0.930 . S
C101 C102 1.333 . S
C101 N103 1.317 . S
C101 H106 0.930 . S
C102 C101 1.333 . S
C102 N104 1.350 . S
C102 H128 0.931 . S
N103 Co99 2.148 . S
N103 C100 1.301 . S
N103 C101 1.317 . S
N104 C100 1.328 . S
N104 C102 1.350 . S
H105 C100 0.930 . S
H106 C101 0.930 . S
C107 O108 1.224 . S
C107 O126 1.247 . S
O108 C107 1.224 . S
N109 Co99 2.128 . S
N109 C110 1.355 . S
N109 C112 1.311 . S
C110 N109 1.355 . S
C110 C111 1.363 . S
C110 H122 0.929 . S
C111 C110 1.363 . S
C111 N113 1.375 . S
C111 H129 0.931 . S
C112 N109 1.311 . S
C112 N113 1.347 . S
C112 H123 0.929 . S
N113 C111 1.375 . S
N113 C112 1.347 . S
C114 C117 1.365 . S
C114 N119 1.328 . S
C114 H120 0.929 . S
C115 C116 1.362 . S
C115 C118 1.378 . S
C115 H130 0.929 . S
C116 C115 1.362 . S
C116 C117 1.366 . S
C117 C114 1.365 . S
C117 C116 1.366 . S
C117 H131 0.930 . S
C118 C115 1.378 . S
C118 N119 1.315 . S
C118 H121 0.930 . S
N119 Co99 2.194 . S
N119 C114 1.328 . S
N119 C118 1.315 . S
H120 C114 0.929 . S
H121 C118 0.930 . S
H122 C110 0.929 . S
H123 C112 0.929 . S
O124 Co99 2.351 . S
O124 C127 1.244 . S
O125 Co99 2.155 . S
O125 C127 1.240 . S
O126 Co99 2.096 . S
O126 C107 1.247 . S
C127 O124 1.244 . S
C127 O125 1.240 . S
H128 C102 0.931 . S
H129 C111 0.931 . S
H130 C115 0.929 . S
H131 C117 0.930 . S
Co132 N136 2.148 . S
Co132 N142 2.128 . S
Co132 N152 2.194 . S
Co132 O157 2.351 . S
Co132 O158 2.155 . S
Co132 O159 2.096 . S
C133 N136 1.301 . S
C133 N137 1.328 . S
C133 H138 0.930 . S
C134 C135 1.333 . S
C134 N136 1.317 . S
C134 H139 0.930 . S
C135 C134 1.333 . S
C135 N137 1.350 . S
C135 H161 0.931 . S
N136 Co132 2.148 . S
N136 C133 1.301 . S
N136 C134 1.317 . S
N137 C133 1.328 . S
N137 C135 1.350 . S
H138 C133 0.930 . S
H139 C134 0.930 . S
C140 O141 1.224 . S
C140 O159 1.247 . S
O141 C140 1.224 . S
N142 Co132 2.128 . S
N142 C143 1.355 . S
N142 C145 1.311 . S
C143 N142 1.355 . S
C143 C144 1.363 . S
C143 H155 0.929 . S
C144 C143 1.363 . S
C144 N146 1.375 . S
C144 H162 0.931 . S
C145 N142 1.311 . S
C145 N146 1.347 . S
C145 H156 0.929 . S
N146 C144 1.375 . S
N146 C145 1.347 . S
C147 C150 1.365 . S
C147 N152 1.328 . S
C147 H153 0.929 . S
C148 C149 1.362 . S
C148 C151 1.378 . S
C148 H163 0.929 . S
C149 C148 1.362 . S
C149 C150 1.366 . S
C150 C147 1.365 . S
C150 C149 1.366 . S
C150 H164 0.930 . S
C151 C148 1.378 . S
C151 N152 1.315 . S
C151 H154 0.930 . S
N152 Co132 2.194 . S
N152 C147 1.328 . S
N152 C151 1.315 . S
H153 C147 0.929 . S
H154 C151 0.930 . S
H155 C143 0.929 . S
H156 C145 0.929 . S
O157 Co132 2.351 . S
O157 C160 1.244 . S
O158 Co132 2.155 . S
O158 C160 1.240 . S
O159 Co132 2.096 . S
O159 C140 1.247 . S
C160 O157 1.244 . S
C160 O158 1.240 . S
H161 C135 0.931 . S
H162 C144 0.931 . S
H163 C148 0.929 . S
H164 C150 0.930 . S
Co165 N169 2.148 . S
Co165 N175 2.128 . S
Co165 N185 2.194 . S
Co165 O190 2.351 . S
Co165 O191 2.155 . S
Co165 O192 2.096 . S
C166 N169 1.301 . S
C166 N170 1.328 . S
C166 H171 0.930 . S
C167 C168 1.333 . S
C167 N169 1.317 . S
C167 H172 0.930 . S
C168 C167 1.333 . S
C168 N170 1.350 . S
C168 H194 0.931 . S
N169 Co165 2.148 . S
N169 C166 1.301 . S
N169 C167 1.317 . S
N170 C166 1.328 . S
N170 C168 1.350 . S
H171 C166 0.930 . S
H172 C167 0.930 . S
C173 O174 1.224 . S
C173 O192 1.247 . S
O174 C173 1.224 . S
N175 Co165 2.128 . S
N175 C176 1.355 . S
N175 C178 1.311 . S
C176 N175 1.355 . S
C176 C177 1.363 1_545 S
C176 H188 0.932 . S
C177 C176 1.363 1_565 S
C177 N179 1.375 1_565 S
C177 H195 0.931 . S
C178 N175 1.311 . S
C178 N179 1.347 . S
C178 H189 0.929 . S
N179 C177 1.375 1_545 S
N179 C178 1.347 . S
C180 C183 1.365 . S
C180 N185 1.328 . S
C180 H186 0.929 . S
C181 C182 1.362 1_545 S
C181 C184 1.378 . S
C181 H196 0.929 . S
C182 C181 1.362 1_565 S
C182 C183 1.366 1_565 S
C183 C180 1.365 . S
C183 C182 1.366 1_545 S
C183 H197 0.930 1_545 S
C184 C181 1.378 . S
C184 N185 1.315 . S
C184 H187 0.930 . S
N185 Co165 2.194 . S
N185 C180 1.328 . S
N185 C184 1.315 . S
H186 C180 0.929 . S
H187 C184 0.930 . S
H188 C176 0.932 . S
H189 C178 0.929 . S
O190 Co165 2.351 . S
O190 C193 1.244 . S
O191 Co165 2.155 . S
O191 C193 1.240 . S
O192 Co165 2.096 . S
O192 C173 1.247 . S
C193 O190 1.244 . S
C193 O191 1.240 . S
H194 C168 0.931 . S
H195 C177 0.931 . S
H196 C181 0.929 . S
H197 C183 0.930 1_565 S
Co198 N202 2.148 . S
Co198 N208 2.128 . S
Co198 N218 2.194 . S
Co198 O223 2.351 . S
Co198 O224 2.155 . S
Co198 O225 2.096 . S
C199 N202 1.301 . S
C199 N203 1.328 . S
C199 H204 0.930 . S
C200 C201 1.333 . S
C200 N202 1.317 . S
C200 H205 0.930 . S
C201 C200 1.333 . S
C201 N203 1.350 . S
C201 H227 0.931 . S
N202 Co198 2.148 . S
N202 C199 1.301 . S
N202 C200 1.317 . S
N203 C199 1.328 . S
N203 C201 1.350 . S
H204 C199 0.930 . S
H205 C200 0.930 . S
C206 O207 1.224 . S
C206 O225 1.247 . S
O207 C206 1.224 . S
N208 Co198 2.128 . S
N208 C209 1.355 . S
N208 C211 1.311 . S
C209 N208 1.355 . S
C209 C210 1.363 . S
C209 H221 0.929 . S
C210 C209 1.363 . S
C210 N212 1.375 . S
C210 H228 0.931 . S
C211 N208 1.311 . S
C211 N212 1.347 . S
C211 H222 0.929 . S
N212 C210 1.375 . S
N212 C211 1.347 . S
C213 C216 1.365 . S
C213 N218 1.328 . S
C213 H219 0.929 . S
C214 C215 1.362 . S
C214 C217 1.378 . S
C214 H229 0.929 . S
C215 C214 1.362 . S
C215 C216 1.366 . S
C216 C213 1.365 . S
C216 C215 1.366 . S
C216 H230 0.930 . S
C217 C214 1.378 . S
C217 N218 1.315 . S
C217 H220 0.930 . S
N218 Co198 2.194 . S
N218 C213 1.328 . S
N218 C217 1.315 . S
H219 C213 0.929 . S
H220 C217 0.930 . S
H221 C209 0.929 . S
H222 C211 0.929 . S
O223 Co198 2.351 . S
O223 C226 1.244 . S
O224 Co198 2.155 . S
O224 C226 1.240 . S
O225 Co198 2.096 . S
O225 C206 1.247 . S
C226 O223 1.244 . S
C226 O224 1.240 . S
H227 C201 0.931 . S
H228 C210 0.931 . S
H229 C214 0.929 . S
H230 C216 0.930 . S
Co231 N235 2.148 . S
Co231 N241 2.128 . S
Co231 N251 2.194 . S
Co231 O256 2.351 . S
Co231 O257 2.155 . S
Co231 O258 2.096 . S
C232 N235 1.301 . S
C232 N236 1.328 . S
C232 H237 0.930 . S
C233 C234 1.333 . S
C233 N235 1.317 . S
C233 H238 0.930 . S
C234 C233 1.333 . S
C234 N236 1.350 . S
C234 H260 0.931 . S
N235 Co231 2.148 . S
N235 C232 1.301 . S
N235 C233 1.317 . S
N236 C232 1.328 . S
N236 C234 1.350 . S
H237 C232 0.930 . S
H238 C233 0.930 . S
C239 O240 1.224 . S
C239 O258 1.247 . S
O240 C239 1.224 . S
N241 Co231 2.128 . S
N241 C242 1.355 . S
N241 C244 1.311 . S
C242 N241 1.355 . S
C242 C243 1.363 1_565 S
C242 H254 0.932 . S
C243 C242 1.363 1_545 S
C243 N245 1.375 1_545 S
C243 H261 0.931 . S
C244 N241 1.311 . S
C244 N245 1.347 . S
C244 H255 0.929 . S
N245 C243 1.375 1_565 S
N245 C244 1.347 . S
C246 C249 1.365 . S
C246 N251 1.328 . S
C246 H252 0.929 . S
C247 C248 1.362 1_565 S
C247 C250 1.378 . S
C247 H262 0.929 . S
C248 C247 1.362 1_545 S
C248 C249 1.366 1_545 S
C249 C246 1.365 . S
C249 C248 1.366 1_565 S
C249 H263 0.930 1_565 S
C250 C247 1.378 . S
C250 N251 1.315 . S
C250 H253 0.930 . S
N251 Co231 2.194 . S
N251 C246 1.328 . S
N251 C250 1.315 . S
H252 C246 0.929 . S
H253 C250 0.930 . S
H254 C242 0.932 . S
H255 C244 0.929 . S
O256 Co231 2.351 . S
O256 C259 1.244 . S
O257 Co231 2.155 . S
O257 C259 1.240 . S
O258 Co231 2.096 . S
O258 C239 1.247 . S
C259 O256 1.244 . S
C259 O257 1.240 . S
H260 C234 0.931 . S
H261 C243 0.931 . S
H262 C247 0.929 . S
H263 C249 0.930 1_545 S
H264 C276 0.930 . S
H265 C278 0.930 . S
H266 C279 0.930 . S
H267 C283 0.959 . S
H268 C283 0.959 . S
H269 C283 0.961 . S
H270 C284 0.960 . S
H271 C284 0.961 . S
H272 C284 0.959 . S
H273 C287 0.929 . S
H274 C288 0.931 . S
H275 C290 0.930 . S
C276 H264 0.930 . S
C276 C277 1.399 . S
C276 C281 1.399 . S
C277 C276 1.399 . S
C277 C278 1.376 . S
C278 H265 0.930 . S
C278 C277 1.376 . S
C278 C279 1.388 . S
C279 H266 0.930 . S
C279 C278 1.388 . S
C279 C280 1.390 . S
C280 C279 1.390 . S
C280 C281 1.394 . S
C280 C286 1.465 . S
C281 C276 1.399 . S
C281 C280 1.394 . S
C281 C282 1.516 . S
C282 C281 1.516 . S
C282 C283 1.502 . S
C282 C284 1.561 . S
C282 C285 1.526 . S
C283 H267 0.959 . S
C283 H268 0.959 . S
C283 H269 0.961 . S
C283 C282 1.502 . S
C284 H270 0.960 . S
C284 H271 0.961 . S
C284 H272 0.959 . S
C284 C282 1.561 . S
C285 C282 1.526 . S
C285 C286 1.396 . S
C285 C290 1.390 . S
C286 C280 1.465 . S
C286 C285 1.396 . S
C286 C287 1.399 . S
C287 H273 0.929 . S
C287 C286 1.399 . S
C287 C288 1.385 . S
C288 H274 0.931 . S
C288 C287 1.385 . S
C288 C289 1.389 . S
C289 C288 1.389 . S
C289 C290 1.387 . S
C290 H275 0.930 . S
C290 C285 1.390 . S
C290 C289 1.387 . S
H291 C303 0.930 . S
H292 C305 0.939 . S
H293 C306 0.930 . S
H294 C310 0.959 . S
H295 C310 0.959 . S
H296 C310 0.961 . S
H297 C311 0.960 . S
H298 C311 0.961 . S
H299 C311 0.959 . S
H300 C314 0.929 . S
H301 C315 0.931 . S
H302 C317 0.930 . S
C303 H291 0.930 . S
C303 C304 1.399 . S
C303 C308 1.399 . S
C304 C303 1.399 . S
C304 C305 1.376 . S
C305 H292 0.939 . S
C305 C304 1.376 . S
C305 C306 1.388 . S
C306 H293 0.930 . S
C306 C305 1.388 . S
C306 C307 1.390 . S
C307 C306 1.390 . S
C307 C308 1.394 . S
C307 C313 1.465 . S
C308 C303 1.399 . S
C308 C307 1.394 . S
C308 C309 1.516 . S
C309 C308 1.516 . S
C309 C310 1.502 . S
C309 C311 1.561 . S
C309 C312 1.526 . S
C310 H294 0.959 . S
C310 H295 0.959 . S
C310 H296 0.961 . S
C310 C309 1.502 . S
C311 H297 0.960 . S
C311 H298 0.961 . S
C311 H299 0.959 . S
C311 C309 1.561 . S
C312 C309 1.526 . S
C312 C313 1.396 . S
C312 C317 1.390 . S
C313 C307 1.465 . S
C313 C312 1.396 . S
C313 C314 1.399 . S
C314 H300 0.929 . S
C314 C313 1.399 . S
C314 C315 1.385 . S
C315 H301 0.931 . S
C315 C314 1.385 . S
C315 C316 1.389 . S
C316 C315 1.389 . S
C316 C317 1.387 . S
C317 H302 0.930 . S
C317 C312 1.390 . S
C317 C316 1.387 . S
H318 C330 0.930 . S
H319 C332 0.930 . S
H320 C333 0.930 . S
H321 C337 0.959 . S
H322 C337 0.959 . S
H323 C337 0.961 . S
H324 C338 0.960 . S
H325 C338 0.961 . S
H326 C338 0.959 . S
H327 C341 0.929 . S
H328 C342 0.931 . S
H329 C344 0.930 . S
C330 H318 0.930 . S
C330 C331 1.399 . S
C330 C335 1.399 . S
C331 C330 1.399 . S
C331 C332 1.376 . S
C332 H319 0.930 . S
C332 C331 1.376 . S
C332 C333 1.388 . S
C333 H320 0.930 . S
C333 C332 1.388 . S
C333 C334 1.390 . S
C334 C333 1.390 . S
C334 C335 1.394 . S
C334 C340 1.465 . S
C335 C330 1.399 . S
C335 C334 1.394 . S
C335 C336 1.516 . S
C336 C335 1.516 . S
C336 C337 1.502 . S
C336 C338 1.561 . S
C336 C339 1.526 . S
C337 H321 0.959 . S
C337 H322 0.959 . S
C337 H323 0.961 . S
C337 C336 1.502 . S
C338 H324 0.960 . S
C338 H325 0.961 . S
C338 H326 0.959 . S
C338 C336 1.561 . S
C339 C336 1.526 . S
C339 C340 1.396 . S
C339 C344 1.390 . S
C340 C334 1.465 . S
C340 C339 1.396 . S
C340 C341 1.399 . S
C341 H327 0.929 . S
C341 C340 1.399 . S
C341 C342 1.385 . S
C342 H328 0.931 . S
C342 C341 1.385 . S
C342 C343 1.389 . S
C343 C342 1.389 . S
C343 C344 1.387 . S
C344 H329 0.930 . S
C344 C339 1.390 . S
C344 C343 1.387 . S
H345 C357 0.930 . S
H346 C359 0.930 . S
H347 C360 0.937 . S
H348 C364 0.959 . S
H349 C364 0.959 . S
H350 C364 0.961 . S
H351 C365 0.960 1_556 S
H352 C365 0.961 . S
H353 C365 0.959 . S
H354 C368 0.929 . S
H355 C369 0.931 1_455 S
H356 C371 0.930 . S
C357 H345 0.930 . S
C357 C358 1.399 . S
C357 C362 1.399 1_556 S
C358 C357 1.399 . S
C358 C359 1.376 . S
C359 H346 0.930 . S
C359 C358 1.376 . S
C359 C360 1.370 1_556 S
C360 H347 0.937 . S
C360 C359 1.370 1_554 S
C360 C361 1.401 . S
C361 C360 1.401 . S
C361 C362 1.394 . S
C361 C367 1.465 . S
C362 C357 1.399 1_554 S
C362 C361 1.394 . S
C362 C363 1.516 . S
C363 C362 1.516 . S
C363 C364 1.502 . S
C363 C365 1.561 . S
C363 C366 1.526 . S
C364 H348 0.959 . S
C364 H349 0.959 . S
C364 H350 0.961 . S
C364 C363 1.502 . S
C365 H351 0.960 1_554 S
C365 H352 0.961 . S
C365 H353 0.959 . S
C365 C363 1.561 . S
C366 C363 1.526 . S
C366 C367 1.396 . S
C366 C371 1.390 . S
C367 C361 1.465 . S
C367 C366 1.396 . S
C367 C368 1.399 . S
C368 H354 0.929 . S
C368 C367 1.399 . S
C368 C369 1.385 . S
C369 H355 0.931 1_655 S
C369 C368 1.385 . S
C369 C370 1.389 . S
C370 C369 1.389 . S
C370 C371 1.387 . S
C371 H356 0.930 . S
C371 C366 1.390 . S
C371 C370 1.387 . S
H372 C384 0.930 . S
H373 C386 0.930 . S
H374 C387 0.930 . S
H375 C391 0.959 . S
H376 C391 0.959 . S
H377 C391 0.961 . S
H378 C392 0.960 . S
H379 C392 0.961 1_565 S
H380 C392 0.959 . S
H381 C395 0.929 . S
H382 C396 0.931 . S
H383 C398 0.930 1_565 S
C384 H372 0.930 . S
C384 C385 1.399 . S
C384 C389 1.399 . S
C385 C384 1.399 . S
C385 C386 1.376 . S
C386 H373 0.930 . S
C386 C385 1.376 . S
C386 C387 1.388 . S
C387 H374 0.930 . S
C387 C386 1.388 . S
C387 C388 1.390 . S
C388 C387 1.390 . S
C388 C389 1.394 . S
C388 C394 1.465 . S
C389 C384 1.399 . S
C389 C388 1.394 . S
C389 C390 1.516 . S
C390 C389 1.516 . S
C390 C391 1.502 . S
C390 C392 1.561 . S
C390 C393 1.526 . S
C391 H375 0.959 . S
C391 H376 0.959 . S
C391 H377 0.961 . S
C391 C390 1.502 . S
C392 H378 0.960 . S
C392 H379 0.961 1_545 S
C392 H380 0.959 . S
C392 C390 1.561 . S
C393 C390 1.526 . S
C393 C394 1.396 . S
C393 C398 1.390 . S
C394 C388 1.465 . S
C394 C393 1.396 . S
C394 C395 1.399 . S
C395 H381 0.929 . S
C395 C394 1.399 . S
C395 C396 1.385 . S
C396 H382 0.931 . S
C396 C395 1.385 . S
C396 C397 1.389 . S
C397 C396 1.389 . S
C397 C398 1.387 . S
C398 H383 0.930 1_545 S
C398 C393 1.390 . S
C398 C397 1.387 . S
H399 C411 0.930 . S
H400 C413 0.930 . S
H401 C414 0.930 . S
H402 C418 0.959 . S
H403 C418 0.959 . S
H404 C418 0.961 . S
H405 C419 0.960 . S
H406 C419 0.961 . S
H407 C419 0.959 . S
H408 C422 0.929 . S
H409 C423 0.931 . S
H410 C425 0.930 . S
C411 H399 0.930 . S
C411 C412 1.399 . S
C411 C416 1.399 . S
C412 C411 1.399 . S
C412 C413 1.376 . S
C413 H400 0.930 . S
C413 C412 1.376 . S
C413 C414 1.388 . S
C414 H401 0.930 . S
C414 C413 1.388 . S
C414 C415 1.390 . S
C415 C414 1.390 . S
C415 C416 1.394 . S
C415 C421 1.465 . S
C416 C411 1.399 . S
C416 C415 1.394 . S
C416 C417 1.516 . S
C417 C416 1.516 . S
C417 C418 1.502 . S
C417 C419 1.561 . S
C417 C420 1.526 . S
C418 H402 0.959 . S
C418 H403 0.959 . S
C418 H404 0.961 . S
C418 C417 1.502 . S
C419 H405 0.960 . S
C419 H406 0.961 . S
C419 H407 0.959 . S
C419 C417 1.561 . S
C420 C417 1.526 . S
C420 C421 1.396 . S
C420 C425 1.390 . S
C421 C415 1.465 . S
C421 C420 1.396 . S
C421 C422 1.399 . S
C422 H408 0.929 . S
C422 C421 1.399 . S
C422 C423 1.385 . S
C423 H409 0.931 . S
C423 C422 1.385 . S
C423 C424 1.389 . S
C424 C423 1.389 . S
C424 C425 1.387 . S
C425 H410 0.930 . S
C425 C420 1.390 . S
C425 C424 1.387 . S
H426 C438 0.930 . S
H427 C440 0.930 . S
H428 C441 0.930 . S
H429 C445 0.959 . S
H430 C445 0.959 . S
H431 C445 0.961 . S
H432 C446 0.960 . S
H433 C446 0.961 . S
H434 C446 0.959 . S
H435 C449 0.929 . S
H436 C450 0.931 . S
H437 C452 0.930 . S
C438 H426 0.930 . S
C438 C439 1.399 . S
C438 C443 1.399 1_554 S
C439 C438 1.399 . S
C439 C440 1.376 . S
C440 H427 0.930 . S
C440 C439 1.376 . S
C440 C441 1.388 . S
C441 H428 0.930 . S
C441 C440 1.388 . S
C441 C442 1.390 1_554 S
C442 C441 1.390 1_556 S
C442 C443 1.394 . S
C442 C448 1.465 . S
C443 C438 1.399 1_556 S
C443 C442 1.394 . S
C443 C444 1.516 . S
C444 C443 1.516 . S
C444 C445 1.502 . S
C444 C446 1.561 . S
C444 C447 1.526 . S
C445 H429 0.959 . S
C445 H430 0.959 . S
C445 H431 0.961 . S
C445 C444 1.502 . S
C446 H432 0.960 . S
C446 H433 0.961 . S
C446 H434 0.959 . S
C446 C444 1.561 . S
C447 C444 1.526 . S
C447 C448 1.396 . S
C447 C452 1.390 . S
C448 C442 1.465 . S
C448 C447 1.396 . S
C448 C449 1.399 . S
C449 H435 0.929 . S
C449 C448 1.399 . S
C449 C450 1.385 . S
C450 H436 0.931 . S
C450 C449 1.385 . S
C450 C451 1.389 . S
C451 C450 1.389 . S
C451 C452 1.387 . S
C452 H437 0.930 . S
C452 C447 1.390 . S
C452 C451 1.387 . S
H453 C465 0.930 . S
H454 C467 0.930 . S
H455 C468 0.930 . S
H456 C472 0.959 . S
H457 C472 0.959 . S
H458 C472 0.961 . S
H459 C473 0.960 . S
H460 C473 0.961 . S
H461 C473 0.959 . S
H462 C476 0.929 . S
H463 C477 0.931 . S
H464 C479 0.930 . S
C465 H453 0.930 . S
C465 C466 1.399 . S
C465 C470 1.399 . S
C466 C465 1.399 . S
C466 C467 1.376 . S
C467 H454 0.930 . S
C467 C466 1.376 . S
C467 C468 1.388 . S
C468 H455 0.930 . S
C468 C467 1.388 . S
C468 C469 1.390 . S
C469 C468 1.390 . S
C469 C470 1.394 . S
C469 C475 1.465 . S
C470 C465 1.399 . S
C470 C469 1.394 . S
C470 C471 1.516 . S
C471 C470 1.516 . S
C471 C472 1.502 . S
C471 C473 1.561 . S
C471 C474 1.526 . S
C472 H456 0.959 . S
C472 H457 0.959 . S
C472 H458 0.961 . S
C472 C471 1.502 . S
C473 H459 0.960 . S
C473 H460 0.961 . S
C473 H461 0.959 . S
C473 C471 1.561 . S
C474 C471 1.526 . S
C474 C475 1.396 . S
C474 C479 1.390 . S
C475 C469 1.465 . S
C475 C474 1.396 . S
C475 C476 1.399 . S
C476 H462 0.929 . S
C476 C475 1.399 . S
C476 C477 1.385 . S
C477 H463 0.931 . S
C477 C476 1.385 . S
C477 C478 1.389 . S
C478 C477 1.389 . S
C478 C479 1.387 . S
C479 H464 0.930 . S
C479 C474 1.390 . S
C479 C478 1.387 . S
H480 C492 0.930 . S
H481 C494 0.930 . S
H482 C495 0.930 1_545 S
H483 C499 0.962 . S
H484 C499 0.944 1_545 S
H485 C499 0.984 . S
H486 C500 0.960 . S
H487 C500 0.961 . S
H488 C500 0.959 . S
H489 C503 0.929 . S
H490 C504 0.931 . S
H491 C506 0.930 . S
C492 H480 0.930 . S
C492 C493 1.399 . S
C492 C497 1.399 . S
C493 C492 1.399 . S
C493 C494 1.376 . S
C494 H481 0.930 . S
C494 C493 1.376 . S
C494 C495 1.388 . S
C495 H482 0.930 1_565 S
C495 C494 1.388 . S
C495 C496 1.390 1_565 S
C496 C495 1.390 1_545 S
C496 C497 1.394 1_545 S
C496 C502 1.465 . S
C497 C492 1.399 . S
C497 C496 1.394 1_565 S
C497 C498 1.516 1_565 S
C498 C497 1.516 1_545 S
C498 C499 1.491 1_545 S
C498 C500 1.561 . S
C498 C501 1.526 . S
C499 H483 0.962 . S
C499 H484 0.944 1_565 S
C499 H485 0.984 . S
C499 C498 1.491 1_565 S
C500 H486 0.960 . S
C500 H487 0.961 . S
C500 H488 0.959 . S
C500 C498 1.561 . S
C501 C498 1.526 . S
C501 C502 1.396 . S
C501 C506 1.390 . S
C502 C496 1.465 . S
C502 C501 1.396 . S
C502 C503 1.399 . S
C503 H489 0.929 . S
C503 C502 1.399 . S
C503 C504 1.385 . S
C504 H490 0.931 . S
C504 C503 1.385 . S
C504 C505 1.389 . S
C505 C504 1.389 . S
C505 C506 1.387 . S
C506 H491 0.930 . S
C506 C501 1.390 . S
C506 C505 1.387 . S
H507 C519 0.930 . S
H508 C521 0.930 . S
H509 C522 0.930 . S
H510 C526 0.959 . S
H511 C526 0.959 . S
H512 C526 0.961 . S
H513 C527 0.960 . S
H514 C527 0.961 . S
H515 C527 0.959 . S
H516 C530 0.929 . S
H517 C531 0.931 . S
H518 C533 0.930 . S
C519 H507 0.930 . S
C519 C520 1.399 . S
C519 C524 1.399 . S
C520 C519 1.399 . S
C520 C521 1.376 . S
C521 H508 0.930 . S
C521 C520 1.376 . S
C521 C522 1.388 . S
C522 H509 0.930 . S
C522 C521 1.388 . S
C522 C523 1.390 . S
C523 C522 1.390 . S
C523 C524 1.394 . S
C523 C529 1.465 . S
C524 C519 1.399 . S
C524 C523 1.394 . S
C524 C525 1.516 . S
C525 C524 1.516 . S
C525 C526 1.502 . S
C525 C527 1.561 . S
C525 C528 1.526 . S
C526 H510 0.959 . S
C526 H511 0.959 . S
C526 H512 0.961 . S
C526 C525 1.502 . S
C527 H513 0.960 . S
C527 H514 0.961 . S
C527 H515 0.959 . S
C527 C525 1.561 . S
C528 C525 1.526 . S
C528 C529 1.396 . S
C528 C533 1.390 . S
C529 C523 1.465 . S
C529 C528 1.396 . S
C529 C530 1.399 . S
C530 H516 0.929 . S
C530 C529 1.399 . S
C530 C531 1.385 . S
C531 H517 0.931 . S
C531 C530 1.385 . S
C531 C532 1.389 . S
C532 C531 1.389 . S
C532 C533 1.387 . S
C533 H518 0.930 . S
C533 C528 1.390 . S
C533 C532 1.387 . S
H534 C546 0.930 . S
H535 C548 0.930 . S
H536 C549 0.930 . S
H537 C553 0.959 . S
H538 C553 0.959 . S
H539 C553 0.961 . S
H540 C554 0.960 . S
H541 C554 0.961 . S
H542 C554 0.959 . S
H543 C557 0.929 . S
H544 C558 0.931 . S
H545 C560 0.930 . S
C546 H534 0.930 . S
C546 C547 1.399 . S
C546 C551 1.399 1_545 S
C547 C546 1.399 . S
C547 C548 1.376 . S
C548 H535 0.930 . S
C548 C547 1.376 . S
C548 C549 1.388 . S
C549 H536 0.930 . S
C549 C548 1.388 . S
C549 C550 1.390 1_545 S
C550 C549 1.390 1_565 S
C550 C551 1.394 . S
C550 C556 1.465 . S
C551 C546 1.399 1_565 S
C551 C550 1.394 . S
C551 C552 1.516 . S
C552 C551 1.516 . S
C552 C553 1.502 . S
C552 C554 1.561 . S
C552 C555 1.526 . S
C553 H537 0.959 . S
C553 H538 0.959 . S
C553 H539 0.961 . S
C553 C552 1.502 . S
C554 H540 0.960 . S
C554 H541 0.961 . S
C554 H542 0.959 . S
C554 C552 1.561 . S
C555 C552 1.526 . S
C555 C556 1.396 . S
C555 C560 1.390 . S
C556 C550 1.465 . S
C556 C555 1.396 . S
C556 C557 1.399 . S
C557 H543 0.929 . S
C557 C556 1.399 . S
C557 C558 1.385 . S
C558 H544 0.931 . S
C558 C557 1.385 . S
C558 C559 1.389 . S
C559 C558 1.389 . S
C559 C560 1.387 . S
C560 H545 0.930 . S
C560 C555 1.390 . S
C560 C559 1.387 . S
H561 C573 0.930 . S
H562 C575 0.930 . S
H563 C576 0.930 . S
H564 C580 0.959 . S
H565 C580 0.959 . S
H566 C580 0.961 . S
H567 C581 0.960 . S
H568 C581 0.961 . S
H569 C581 0.959 . S
H570 C584 0.929 . S
H571 C585 0.931 . S
H572 C587 0.930 . S
C573 H561 0.930 . S
C573 C574 1.399 . S
C573 C578 1.399 . S
C574 C573 1.399 . S
C574 C575 1.376 . S
C575 H562 0.930 . S
C575 C574 1.376 . S
C575 C576 1.388 . S
C576 H563 0.930 . S
C576 C575 1.388 . S
C576 C577 1.390 . S
C577 C576 1.390 . S
C577 C578 1.394 . S
C577 C583 1.465 . S
C578 C573 1.399 . S
C578 C577 1.394 . S
C578 C579 1.516 . S
C579 C578 1.516 . S
C579 C580 1.502 . S
C579 C581 1.561 . S
C579 C582 1.526 . S
C580 H564 0.959 . S
C580 H565 0.959 . S
C580 H566 0.961 . S
C580 C579 1.502 . S
C581 H567 0.960 . S
C581 H568 0.961 . S
C581 H569 0.959 . S
C581 C579 1.561 . S
C582 C579 1.526 . S
C582 C583 1.396 . S
C582 C587 1.390 . S
C583 C577 1.465 . S
C583 C582 1.396 . S
C583 C584 1.399 . S
C584 H570 0.929 . S
C584 C583 1.399 . S
C584 C585 1.385 . S
C585 H571 0.931 . S
C585 C584 1.385 . S
C585 C586 1.389 . S
C586 C585 1.389 . S
C586 C587 1.387 . S
C587 H572 0.930 . S
C587 C582 1.390 . S
C587 C586 1.387 . S
H588 C600 0.930 . S
H589 C602 0.930 . S
H590 C603 0.930 . S
H591 C607 0.959 . S
H592 C607 0.959 . S
H593 C607 0.961 . S
H594 C608 0.960 . S
H595 C608 0.961 . S
H596 C608 0.959 . S
H597 C611 0.929 . S
H598 C612 0.931 . S
H599 C614 0.930 . S
C600 H588 0.930 . S
C600 C601 1.399 . S
C600 C605 1.399 . S
C601 C600 1.399 . S
C601 C602 1.376 . S
C602 H589 0.930 . S
C602 C601 1.376 . S
C602 C603 1.388 . S
C603 H590 0.930 . S
C603 C602 1.388 . S
C603 C604 1.390 . S
C604 C603 1.390 . S
C604 C605 1.394 . S
C604 C610 1.465 . S
C605 C600 1.399 . S
C605 C604 1.394 . S
C605 C606 1.516 . S
C606 C605 1.516 . S
C606 C607 1.502 . S
C606 C608 1.561 . S
C606 C609 1.526 . S
C607 H591 0.959 . S
C607 H592 0.959 . S
C607 H593 0.961 . S
C607 C606 1.502 . S
C608 H594 0.960 . S
C608 H595 0.961 . S
C608 H596 0.959 . S
C608 C606 1.561 . S
C609 C606 1.526 . S
C609 C610 1.396 . S
C609 C614 1.390 . S
C610 C604 1.465 . S
C610 C609 1.396 . S
C610 C611 1.399 . S
C611 H597 0.929 . S
C611 C610 1.399 . S
C611 C612 1.385 . S
C612 H598 0.931 . S
C612 C611 1.385 . S
C612 C613 1.389 . S
C613 C612 1.389 . S
C613 C614 1.387 . S
C614 H599 0.930 . S
C614 C609 1.390 . S
C614 C613 1.387 . S
H615 C627 0.930 . S
H616 C629 0.930 . S
H617 C630 0.930 . S
H618 C634 0.959 . S
H619 C634 0.959 1_655 S
H620 C634 0.961 . S
H621 C635 0.960 1_455 S
H622 C635 0.961 . S
H623 C635 0.959 . S
H624 C638 0.929 1_455 S
H625 C639 0.931 . S
H626 C641 0.930 . S
C627 H615 0.930 . S
C627 C628 1.399 . S
C627 C632 1.399 . S
C628 C627 1.399 . S
C628 C629 1.376 . S
C629 H616 0.930 . S
C629 C628 1.376 . S
C629 C630 1.388 . S
C630 H617 0.930 . S
C630 C629 1.388 . S
C630 C631 1.390 . S
C631 C630 1.390 . S
C631 C632 1.394 . S
C631 C637 1.465 . S
C632 C627 1.399 . S
C632 C631 1.394 . S
C632 C633 1.516 . S
C633 C632 1.516 . S
C633 C634 1.502 . S
C633 C635 1.561 1_455 S
C633 C636 1.526 1_455 S
C634 H618 0.959 . S
C634 H619 0.959 1_455 S
C634 H620 0.961 . S
C634 C633 1.502 . S
C635 H621 0.960 1_655 S
C635 H622 0.961 . S
C635 H623 0.959 . S
C635 C633 1.561 1_655 S
C636 C633 1.526 1_655 S
C636 C637 1.396 1_655 S
C636 C641 1.390 . S
C637 C631 1.465 . S
C637 C636 1.396 1_455 S
C637 C638 1.399 1_455 S
C638 H624 0.929 1_655 S
C638 C637 1.399 1_655 S
C638 C639 1.385 . S
C639 H625 0.931 . S
C639 C638 1.385 . S
C639 C640 1.389 . S
C640 C639 1.389 . S
C640 C641 1.387 . S
C641 H626 0.930 . S
C641 C636 1.390 . S
C641 C640 1.387 . S
H642 C654 0.930 . S
H643 C656 0.930 . S
H644 C657 0.930 . S
H645 C661 0.959 . S
H646 C661 0.959 . S
H647 C661 0.961 . S
H648 C662 0.960 . S
H649 C662 0.961 . S
H650 C662 0.959 . S
H651 C665 0.929 . S
H652 C666 0.931 . S
H653 C668 0.930 . S
C654 H642 0.930 . S
C654 C655 1.399 . S
C654 C659 1.399 . S
C655 C654 1.399 . S
C655 C656 1.376 . S
C656 H643 0.930 . S
C656 C655 1.376 . S
C656 C657 1.388 . S
C657 H644 0.930 . S
C657 C656 1.388 . S
C657 C658 1.390 . S
C658 C657 1.390 . S
C658 C659 1.394 . S
C658 C664 1.465 . S
C659 C654 1.399 . S
C659 C658 1.394 . S
C659 C660 1.516 . S
C660 C659 1.516 . S
C660 C661 1.502 . S
C660 C662 1.561 . S
C660 C663 1.526 . S
C661 H645 0.959 . S
C661 H646 0.959 . S
C661 H647 0.961 . S
C661 C660 1.502 . S
C662 H648 0.960 . S
C662 H649 0.961 . S
C662 H650 0.959 . S
C662 C660 1.561 . S
C663 C660 1.526 . S
C663 C664 1.396 . S
C663 C668 1.390 . S
C664 C658 1.465 . S
C664 C663 1.396 . S
C664 C665 1.399 . S
C665 H651 0.929 . S
C665 C664 1.399 . S
C665 C666 1.385 . S
C666 H652 0.931 . S
C666 C665 1.385 . S
C666 C667 1.389 . S
C667 C666 1.389 . S
C667 C668 1.387 . S
C668 H653 0.930 . S
C668 C663 1.390 . S
C668 C667 1.387 . S
H669 C681 0.930 . S
H670 C683 0.930 . S
H671 C684 0.930 . S
H672 C688 0.959 . S
H673 C688 0.959 . S
H674 C688 0.961 . S
H675 C689 0.960 . S
H676 C689 0.961 1_455 S
H677 C689 0.959 . S
H678 C692 0.929 . S
H679 C693 0.931 . S
H680 C695 0.930 . S
C681 H669 0.930 . S
C681 C682 1.399 . S
C681 C686 1.399 . S
C682 C681 1.399 . S
C682 C683 1.376 . S
C683 H670 0.930 . S
C683 C682 1.376 . S
C683 C684 1.388 . S
C684 H671 0.930 . S
C684 C683 1.388 . S
C684 C685 1.390 . S
C685 C684 1.390 . S
C685 C686 1.394 . S
C685 C691 1.465 . S
C686 C681 1.399 . S
C686 C685 1.394 . S
C686 C687 1.516 . S
C687 C686 1.516 . S
C687 C688 1.502 . S
C687 C689 1.561 . S
C687 C690 1.526 1_655 S
C688 H672 0.959 . S
C688 H673 0.959 . S
C688 H674 0.961 . S
C688 C687 1.502 . S
C689 H675 0.960 . S
C689 H676 0.961 1_655 S
C689 H677 0.959 . S
C689 C687 1.561 . S
C690 C687 1.526 1_455 S
C690 C691 1.396 1_455 S
C690 C695 1.390 . S
C691 C685 1.465 . S
C691 C690 1.396 1_655 S
C691 C692 1.399 1_655 S
C692 H678 0.929 . S
C692 C691 1.399 1_455 S
C692 C693 1.385 . S
C693 H679 0.931 . S
C693 C692 1.385 . S
C693 C694 1.389 . S
C694 C693 1.389 . S
C694 C695 1.387 . S
C695 H680 0.930 . S
C695 C690 1.390 . S
C695 C694 1.387 . S
H696 C708 0.930 . S
H697 C710 0.930 . S
H698 C711 0.930 1_565 S
H699 C715 0.959 . S
H700 C715 0.959 . S
H701 C715 0.961 . S
H702 C716 0.960 . S
H703 C716 0.961 1_455 S
H704 C716 0.959 1_455 S
H705 C719 0.929 . S
H706 C720 0.931 . S
H707 C722 0.930 1_455 S
C708 H696 0.930 . S
C708 C709 1.399 . S
C708 C713 1.399 . S
C709 C708 1.399 . S
C709 C710 1.376 1_545 S
C710 H697 0.930 . S
C710 C709 1.376 1_565 S
C710 C711 1.388 1_565 S
C711 H698 0.930 1_545 S
C711 C710 1.388 1_545 S
C711 C712 1.390 . S
C712 C711 1.390 . S
C712 C713 1.394 . S
C712 C718 1.465 . S
C713 C708 1.399 . S
C713 C712 1.394 . S
C713 C714 1.516 . S
C714 C713 1.516 . S
C714 C715 1.502 . S
C714 C716 1.561 . S
C714 C717 1.526 . S
C715 H699 0.959 . S
C715 H700 0.959 . S
C715 H701 0.961 . S
C715 C714 1.502 . S
C716 H702 0.960 . S
C716 H703 0.961 1_655 S
C716 H704 0.959 1_655 S
C716 C714 1.561 . S
C717 C714 1.526 . S
C717 C718 1.396 . S
C717 C722 1.390 . S
C718 C712 1.465 . S
C718 C717 1.396 . S
C718 C719 1.399 . S
C719 H705 0.929 . S
C719 C718 1.399 . S
C719 C720 1.385 . S
C720 H706 0.931 . S
C720 C719 1.385 . S
C720 C721 1.389 . S
C721 C720 1.389 . S
C721 C722 1.387 . S
C722 H707 0.930 1_655 S
C722 C717 1.390 . S
C722 C721 1.387 . S
H723 C735 0.930 . S
H724 C737 0.930 . S
H725 C738 0.930 . S
H726 C742 0.959 . S
H727 C742 0.959 . S
H728 C742 0.961 . S
H729 C743 0.960 . S
H730 C743 0.961 . S
H731 C743 0.959 . S
H732 C746 0.929 . S
H733 C747 0.931 . S
H734 C749 0.930 . S
C735 H723 0.930 . S
C735 C736 1.399 . S
C735 C740 1.399 . S
C736 C735 1.399 . S
C736 C737 1.376 . S
C737 H724 0.930 . S
C737 C736 1.376 . S
C737 C738 1.388 . S
C738 H725 0.930 . S
C738 C737 1.388 . S
C738 C739 1.390 . S
C739 C738 1.390 . S
C739 C740 1.394 . S
C739 C745 1.465 . S
C740 C735 1.399 . S
C740 C739 1.394 . S
C740 C741 1.516 . S
C741 C740 1.516 . S
C741 C742 1.502 . S
C741 C743 1.561 . S
C741 C744 1.526 . S
C742 H726 0.959 . S
C742 H727 0.959 . S
C742 H728 0.961 . S
C742 C741 1.502 . S
C743 H729 0.960 . S
C743 H730 0.961 . S
C743 H731 0.959 . S
C743 C741 1.561 . S
C744 C741 1.526 . S
C744 C745 1.396 . S
C744 C749 1.390 . S
C745 C739 1.465 . S
C745 C744 1.396 . S
C745 C746 1.399 . S
C746 H732 0.929 . S
C746 C745 1.399 . S
C746 C747 1.385 . S
C747 H733 0.931 . S
C747 C746 1.385 . S
C747 C748 1.389 . S
C748 C747 1.389 . S
C748 C749 1.387 . S
C749 H734 0.930 . S
C749 C744 1.390 . S
C749 C748 1.387 . S
H750 C762 0.930 . S
H751 C764 0.930 . S
H752 C765 0.930 . S
H753 C769 0.959 . S
H754 C769 0.959 . S
H755 C769 0.961 . S
H756 C770 0.960 . S
H757 C770 0.961 . S
H758 C770 0.959 . S
H759 C773 0.929 . S
H760 C774 0.931 . S
H761 C776 0.930 . S
C762 H750 0.930 . S
C762 C763 1.399 . S
C762 C767 1.399 . S
C763 C762 1.399 . S
C763 C764 1.376 . S
C764 H751 0.930 . S
C764 C763 1.376 . S
C764 C765 1.388 . S
C765 H752 0.930 . S
C765 C764 1.388 . S
C765 C766 1.390 . S
C766 C765 1.390 . S
C766 C767 1.394 . S
C766 C772 1.465 . S
C767 C762 1.399 . S
C767 C766 1.394 . S
C767 C768 1.516 . S
C768 C767 1.516 . S
C768 C769 1.502 . S
C768 C770 1.561 . S
C768 C771 1.526 . S
C769 H753 0.959 . S
C769 H754 0.959 . S
C769 H755 0.961 . S
C769 C768 1.502 . S
C770 H756 0.960 . S
C770 H757 0.961 . S
C770 H758 0.959 . S
C770 C768 1.561 . S
C771 C768 1.526 . S
C771 C772 1.396 . S
C771 C776 1.390 . S
C772 C766 1.465 . S
C772 C771 1.396 . S
C772 C773 1.399 1_565 S
C773 H759 0.929 . S
C773 C772 1.399 1_545 S
C773 C774 1.385 . S
C774 H760 0.931 . S
C774 C773 1.385 . S
C774 C775 1.389 1_545 S
C775 C774 1.389 1_565 S
C775 C776 1.387 . S
C776 H761 0.930 . S
C776 C771 1.390 . S
C776 C775 1.387 . S
H777 C789 0.930 . S
H778 C791 0.930 . S
H779 C792 0.930 . S
H780 C796 0.959 . S
H781 C796 0.959 . S
H782 C796 0.961 . S
H783 C797 0.960 . S
H784 C797 0.961 . S
H785 C797 0.959 . S
H786 C800 0.929 1_556 S
H787 C801 0.931 . S
H788 C803 0.930 . S
C789 H777 0.930 . S
C789 C790 1.399 . S
C789 C794 1.399 . S
C790 C789 1.399 . S
C790 C791 1.376 . S
C791 H778 0.930 . S
C791 C790 1.376 . S
C791 C792 1.388 . S
C792 H779 0.930 . S
C792 C791 1.388 . S
C792 C793 1.390 . S
C793 C792 1.390 . S
C793 C794 1.394 . S
C793 C799 1.465 1_556 S
C794 C789 1.399 . S
C794 C793 1.394 . S
C794 C795 1.516 1_556 S
C795 C794 1.516 1_554 S
C795 C796 1.502 . S
C795 C797 1.561 . S
C795 C798 1.526 . S
C796 H780 0.959 . S
C796 H781 0.959 . S
C796 H782 0.961 . S
C796 C795 1.502 . S
C797 H783 0.960 . S
C797 H784 0.961 . S
C797 H785 0.959 . S
C797 C795 1.561 . S
C798 C795 1.526 . S
C798 C799 1.396 . S
C798 C803 1.390 . S
C799 C793 1.465 1_554 S
C799 C798 1.396 . S
C799 C800 1.399 . S
C800 H786 0.929 1_554 S
C800 C799 1.399 . S
C800 C801 1.385 . S
C801 H787 0.931 . S
C801 C800 1.385 . S
C801 C802 1.389 . S
C802 C801 1.389 . S
C802 C803 1.387 . S
C803 H788 0.930 . S
C803 C798 1.390 . S
C803 C802 1.387 . S
C277 C28 1.141 . S
C289 C50 1.108 . S
C304 C83 1.115 . S
C316 C61 1.134 . S
C331 C116 1.160 . S
C343 C94 1.126 . S
C358 C127 1.158 . S
C370 C17 1.114 . S
C385 C160 1.139 . S
C397 C248 1.151 . S
C412 C193 1.118 . S
C424 C149 1.148 . S
C439 C226 1.125 . S
C451 C182 1.129 . S
C466 C259 1.118 . S
C478 C215 1.153 . S
C493 N203 1.778 . S
C505 C8 1.773 . S
C520 N236 1.772 . S
C532 C41 1.762 . S
C547 N137 1.777 . S
C559 C74 1.766 . S
C574 N170 1.780 . S
C586 C107 1.772 . S
C601 C140 1.762 . S
C613 N71 1.773 . S
C628 C173 1.767 . S
C640 N104 1.775 . S
C655 C206 1.760 . S
C667 N5 1.772 . S
C682 C239 1.757 . S
C694 N38 1.771 . S
C709 N245 1.463 1_545 S
C721 N14 1.498 1_655 S
C736 N146 1.481 . S
C748 N47 1.443 . S
C763 N80 1.494 1_455 S
C775 N179 1.457 1_565 S
C790 N113 1.439 . S
C802 N212 1.422 . S
