# Generated by pormake.
# Topology crs, (6)-cn, num edge types: 1
# Building blocks:
#     Node 0, Type 0, BuildingBlock: LEVNOQ01_clean_sbu_1, # of connection points: 6
#     Node 1, Type 0, BuildingBlock: LEVNOQ01_clean_sbu_1, # of connection points: 6
#     Node 2, Type 0, BuildingBlock: LEVNOQ01_clean_sbu_1, # of connection points: 6
#     Node 3, Type 0, BuildingBlock: LEVNOQ01_clean_sbu_1, # of connection points: 6
#     Node 4, Type 0, BuildingBlock: LEVNOQ01_clean_sbu_1, # of connection points: 6
#     Node 5, Type 0, BuildingBlock: LEVNOQ01_clean_sbu_1, # of connection points: 6
#     Node 6, Type 0, BuildingBlock: LEVNOQ01_clean_sbu_1, # of connection points: 6
#     Node 7, Type 0, BuildingBlock: LEVNOQ01_clean_sbu_1, # of connection points: 6
#     Node 8, Type 0, BuildingBlock: LEVNOQ01_clean_sbu_1, # of connection points: 6
#     Node 9, Type 0, BuildingBlock: LEVNOQ01_clean_sbu_1, # of connection points: 6
#     Node 10, Type 0, BuildingBlock: LEVNOQ01_clean_sbu_1, # of connection points: 6
#     Node 11, Type 0, BuildingBlock: LEVNOQ01_clean_sbu_1, # of connection points: 6
#     Node 12, Type 0, BuildingBlock: LEVNOQ01_clean_sbu_1, # of connection points: 6
#     Node 13, Type 0, BuildingBlock: LEVNOQ01_clean_sbu_1, # of connection points: 6
#     Node 14, Type 0, BuildingBlock: LEVNOQ01_clean_sbu_1, # of connection points: 6
#     Node 15, Type 0, BuildingBlock: LEVNOQ01_clean_sbu_1, # of connection points: 6
#     Edge 16, Type (0, 0), BuildingBlock: CIFDUS_clean_linker_0, # of connection points: 2
#     Edge 17, Type (0, 0), BuildingBlock: CIFDUS_clean_linker_0, # of connection points: 2
#     Edge 18, Type (0, 0), BuildingBlock: CIFDUS_clean_linker_0, # of connection points: 2
#     Edge 19, Type (0, 0), BuildingBlock: CIFDUS_clean_linker_0, # of connection points: 2
#     Edge 20, Type (0, 0), BuildingBlock: CIFDUS_clean_linker_0, # of connection points: 2
#     Edge 21, Type (0, 0), BuildingBlock: CIFDUS_clean_linker_0, # of connection points: 2
#     Edge 22, Type (0, 0), BuildingBlock: CIFDUS_clean_linker_0, # of connection points: 2
#     Edge 23, Type (0, 0), BuildingBlock: CIFDUS_clean_linker_0, # of connection points: 2
#     Edge 24, Type (0, 0), BuildingBlock: CIFDUS_clean_linker_0, # of connection points: 2
#     Edge 25, Type (0, 0), BuildingBlock: CIFDUS_clean_linker_0, # of connection points: 2
#     Edge 26, Type (0, 0), BuildingBlock: CIFDUS_clean_linker_0, # of connection points: 2
#     Edge 27, Type (0, 0), BuildingBlock: CIFDUS_clean_linker_0, # of connection points: 2
#     Edge 28, Type (0, 0), BuildingBlock: CIFDUS_clean_linker_0, # of connection points: 2
#     Edge 29, Type (0, 0), BuildingBlock: CIFDUS_clean_linker_0, # of connection points: 2
#     Edge 30, Type (0, 0), BuildingBlock: CIFDUS_clean_linker_0, # of connection points: 2
#     Edge 31, Type (0, 0), BuildingBlock: CIFDUS_clean_linker_0, # of connection points: 2
#     Edge 32, Type (0, 0), BuildingBlock: CIFDUS_clean_linker_0, # of connection points: 2
#     Edge 33, Type (0, 0), BuildingBlock: CIFDUS_clean_linker_0, # of connection points: 2
#     Edge 34, Type (0, 0), BuildingBlock: CIFDUS_clean_linker_0, # of connection points: 2
#     Edge 35, Type (0, 0), BuildingBlock: CIFDUS_clean_linker_0, # of connection points: 2
#     Edge 36, Type (0, 0), BuildingBlock: CIFDUS_clean_linker_0, # of connection points: 2
#     Edge 37, Type (0, 0), BuildingBlock: CIFDUS_clean_linker_0, # of connection points: 2
#     Edge 38, Type (0, 0), BuildingBlock: CIFDUS_clean_linker_0, # of connection points: 2
#     Edge 39, Type (0, 0), BuildingBlock: CIFDUS_clean_linker_0, # of connection points: 2
#     Edge 40, Type (0, 0), BuildingBlock: CIFDUS_clean_linker_0, # of connection points: 2
#     Edge 41, Type (0, 0), BuildingBlock: CIFDUS_clean_linker_0, # of connection points: 2
#     Edge 42, Type (0, 0), BuildingBlock: CIFDUS_clean_linker_0, # of connection points: 2
#     Edge 43, Type (0, 0), BuildingBlock: CIFDUS_clean_linker_0, # of connection points: 2
#     Edge 44, Type (0, 0), BuildingBlock: CIFDUS_clean_linker_0, # of connection points: 2
#     Edge 45, Type (0, 0), BuildingBlock: CIFDUS_clean_linker_0, # of connection points: 2
#     Edge 46, Type (0, 0), BuildingBlock: CIFDUS_clean_linker_0, # of connection points: 2
#     Edge 47, Type (0, 0), BuildingBlock: CIFDUS_clean_linker_0, # of connection points: 2
#     Edge 48, Type (0, 0), BuildingBlock: CIFDUS_clean_linker_0, # of connection points: 2
#     Edge 49, Type (0, 0), BuildingBlock: CIFDUS_clean_linker_0, # of connection points: 2
#     Edge 50, Type (0, 0), BuildingBlock: CIFDUS_clean_linker_0, # of connection points: 2
#     Edge 51, Type (0, 0), BuildingBlock: CIFDUS_clean_linker_0, # of connection points: 2
#     Edge 52, Type (0, 0), BuildingBlock: CIFDUS_clean_linker_0, # of connection points: 2
#     Edge 53, Type (0, 0), BuildingBlock: CIFDUS_clean_linker_0, # of connection points: 2
#     Edge 54, Type (0, 0), BuildingBlock: CIFDUS_clean_linker_0, # of connection points: 2
#     Edge 55, Type (0, 0), BuildingBlock: CIFDUS_clean_linker_0, # of connection points: 2
#     Edge 56, Type (0, 0), BuildingBlock: CIFDUS_clean_linker_0, # of connection points: 2
#     Edge 57, Type (0, 0), BuildingBlock: CIFDUS_clean_linker_0, # of connection points: 2
#     Edge 58, Type (0, 0), BuildingBlock: CIFDUS_clean_linker_0, # of connection points: 2
#     Edge 59, Type (0, 0), BuildingBlock: CIFDUS_clean_linker_0, # of connection points: 2
#     Edge 60, Type (0, 0), BuildingBlock: CIFDUS_clean_linker_0, # of connection points: 2
#     Edge 61, Type (0, 0), BuildingBlock: CIFDUS_clean_linker_0, # of connection points: 2
#     Edge 62, Type (0, 0), BuildingBlock: CIFDUS_clean_linker_0, # of connection points: 2
#     Edge 63, Type (0, 0), BuildingBlock: CIFDUS_clean_linker_0, # of connection points: 2
# Relax obj value: 0.265
# Max RMSD: 0.231
# Mean RMSD: 0.224
data_MOF--net-crs--node1-LEVNOQ01_clean_sbu_1--edge1-CIFDUS_clean_linker_0
_symmetry_space_group_name_H-M    P1
_symmetry_Int_Tables_number       1
_symmetry_cell_setting            triclinic
loop_
_symmetry_equiv_pos_as_xyz
'x, y, z'
_cell_length_a     36.125148
_cell_length_b     36.284832
_cell_length_c     36.732785
_cell_angle_alpha  89.83414
_cell_angle_beta   90.476911
_cell_angle_gamma 88.795914
loop_
_atom_site_label
_atom_site_type_symbol
_atom_site_fract_x
_atom_site_fract_y
_atom_site_fract_z
_atom_type_partial_charge
O0 O 0.94953 0.1056 0.04015 0.0
Mg1 Mg 0.97116 0.10563 0.98623 0.0
O2 O 0.96542 0.04825 0.05777 0.0
Mg3 Mg 0.97105 0.01262 0.00623 0.0
O4 O 0.95132 0.05796 0.97093 0.0
O5 O 0.93834 0.10554 0.93679 0.0
O6 O 0.97563 0.97537 0.95524 0.0
O7 O 0.90937 -0.0028 0.01714 0.0
Mg8 Mg 0.95973 0.92326 0.0306 0.0
O9 O -0.00808 0.96633 0.03929 0.0
O10 O 0.96242 0.91783 0.97225 0.0
O11 O 0.90839 0.94512 0.04935 0.0
O12 O 0.00764 0.91405 0.06494 0.0
C13 C 0.04671 0.06088 0.98791 0.0
C14 C 0.95294 0.08065 0.06456 0.0
C15 C 0.93619 0.07059 0.94189 0.0
C16 C 0.96986 0.94158 0.94784 0.0
C17 C 0.89226 0.97391 0.03651 0.0
C18 C 0.01472 0.94817 0.05939 0.0
O19 O 0.02854 0.09101 0.98278 0.0
O20 O 0.03149 0.03075 -0.00295 0.0
O21 O 0.05351 0.24243 0.36008 0.0
Mg22 Mg 0.02007 0.19553 0.35242 0.0
O23 O 0.04117 0.28025 0.31481 0.0
Mg24 Mg 0.00477 0.25049 0.27461 0.0
O25 O 0.02387 0.19722 0.29772 0.0
O26 O 0.04248 0.14748 0.32597 0.0
O27 O 0.96853 0.21726 0.23654 0.0
O28 O 0.05628 0.24584 0.23723 0.0
Mg29 Mg 0.99032 0.29094 0.19986 0.0
O30 O 0.9822 0.30643 0.25257 0.0
O31 O 0.94981 0.25084 0.18919 0.0
O32 O 0.04544 0.27722 0.18639 0.0
O33 O 0.97422 0.34516 0.20606 0.0
C34 C 0.94279 0.23295 0.33997 0.0
C35 C 0.03936 0.27264 0.34848 0.0
C36 C 0.03927 0.16543 0.29587 0.0
C37 C 0.94847 0.22164 0.20824 0.0
C38 C 0.06648 0.25717 0.20619 0.0
C39 C 0.96957 0.33784 0.24011 0.0
O40 O 0.96233 0.20814 0.35619 0.0
O41 O 0.95462 0.25183 0.31326 0.0
O42 O 0.84005 0.26422 0.55113 0.0
Mg43 Mg 0.80755 0.31419 0.54939 0.0
O44 O 0.82145 0.24343 0.49891 0.0
Mg45 Mg 0.75764 0.24615 0.50747 0.0
O46 O 0.76176 0.28603 0.55329 0.0
O47 O 0.77342 0.32653 0.59554 0.0
O48 O 0.69279 0.25117 0.51036 0.0
O49 O 0.76209 0.19935 0.55153 0.0
Mg50 Mg 0.72099 0.16788 0.48223 0.0
O51 O 0.7537 0.2063 0.46045 0.0
O52 O 0.67162 0.19619 0.49435 0.0
O53 O 0.75062 0.14514 0.52631 0.0
O54 O 0.73721 0.15763 0.42885 0.0
C55 C 0.77095 0.32756 0.46992 0.0
C56 C 0.84795 0.25357 0.51939 0.0
C57 C 0.75158 0.30243 0.58225 0.0
C58 C 0.66612 0.2293 0.5044 0.0
C59 C 0.76168 0.1642 0.55297 0.0
C60 C 0.75613 0.1873 0.43093 0.0
O61 O 0.79085 0.33819 0.49687 0.0
O62 O 0.75667 0.29556 0.4684 0.0
O63 O 0.66804 0.91085 0.70472 0.0
Mg64 Mg 0.72503 0.91533 0.6918 0.0
O65 O 0.66625 0.96518 0.73079 0.0
Mg66 Mg 0.71986 0.97063 0.76416 0.0
O67 O 0.74651 0.9201 0.74165 0.0
O68 O 0.76347 0.87329 0.70793 0.0
O69 O 0.77528 0.98038 0.79255 0.0
O70 O 0.69963 0.93333 0.80895 0.0
Mg71 Mg 0.70824 0.01306 0.84305 0.0
O72 O 0.69184 0.01936 0.78991 0.0
O73 O 0.76617 0.01782 0.83981 0.0
O74 O 0.6901 0.96038 0.86219 0.0
O75 O 0.6728 0.05849 0.83171 0.0
C76 C 0.74878 -0.00124 0.68435 0.0
C77 C 0.6514 0.94132 0.71036 0.0
C78 C 0.76694 0.89115 0.73792 0.0
C79 C 0.78736 0.00056 0.818 0.0
C80 C 0.69005 0.93186 0.84213 0.0
C81 C 0.67278 0.04835 0.79815 0.0
O82 O 0.74405 0.96712 0.66992 0.0
O83 O 0.74104 0.00551 0.71755 0.0
O84 O 0.47532 0.79125 0.31939 0.0
Mg85 Mg 0.47823 0.73223 0.32188 0.0
O86 O 0.46828 0.80525 0.2602 0.0
Mg87 Mg 0.46245 0.74684 0.2323 0.0
O88 O 0.49935 0.72378 0.27341 0.0
O89 O 0.53077 0.70372 0.32052 0.0
O90 O 0.45959 0.68737 0.20852 0.0
O91 O 0.51378 0.75847 0.19741 0.0
Mg92 Mg 0.44096 0.74694 0.14228 0.0
O93 O 0.42439 0.76796 0.1897 0.0
O94 O 0.43805 0.68932 0.15144 0.0
O95 O 0.49587 0.76764 0.13956 0.0
O96 O 0.3925 0.78084 0.1402 0.0
C97 C 0.40259 0.71508 0.29303 0.0
C98 C 0.47276 0.81494 0.29361 0.0
C99 C 0.52838 0.70772 0.28579 0.0
C100 C 0.44863 0.67137 0.17958 0.0
C101 C 0.52057 0.76749 0.16454 0.0
C102 C 0.39695 0.78497 0.17474 0.0
O103 O 0.42771 0.7045 0.31533 0.0
O104 O 0.40968 0.73541 0.26573 0.0
O105 O 0.28865 0.85895 0.52598 0.0
Mg106 Mg 0.24026 0.85377 0.49378 0.0
O107 O 0.30862 0.80092 0.51851 0.0
Mg108 Mg 0.25907 0.76317 0.50695 0.0
O109 O 0.21796 0.80843 0.51517 0.0
O110 O 0.18596 0.86049 0.51438 0.0
O111 O 0.21241 0.72277 0.49984 0.0
O112 O 0.25901 0.74622 0.57005 0.0
Mg113 Mg 0.29562 0.67913 0.53135 0.0
O114 O 0.29829 0.71846 0.49507 0.0
O115 O 0.23678 0.6708 0.52489 0.0
O116 O 0.31141 0.71424 0.57482 0.0
O117 O 0.32864 0.66755 0.48388 0.0
C118 C 0.25409 0.80738 0.42432 0.0
C119 C 0.31375 0.834 0.5288 0.0
C120 C 0.18793 0.82601 0.5226 0.0
C121 C 0.20971 0.68955 0.51101 0.0
C122 C 0.28378 0.72972 0.5899 0.0
C123 C 0.3176 0.69962 0.47288 0.0
O124 O 0.24853 0.83904 0.43829 0.0
O125 O 0.25735 0.77807 0.44385 0.0
O126 O 0.17103 0.46095 0.67555 0.0
Mg127 Mg 0.2276 0.47386 0.66709 0.0
O128 O 0.16848 0.48944 0.7291 0.0
Mg129 Mg 0.22585 0.48784 0.75767 0.0
O130 O 0.25168 0.4577 0.71375 0.0
O131 O 0.27169 0.4336 0.66326 0.0
O132 O 0.28141 0.48654 0.79114 0.0
O133 O 0.20989 0.43143 0.78333 0.0
Mg134 Mg 0.2032 0.49314 0.84834 0.0
O135 O 0.20031 0.51672 0.80057 0.0
O136 O 0.26239 0.48579 0.84933 0.0
O137 O 0.1771 0.44261 0.8337 0.0
O138 O 0.17904 0.54916 0.84504 0.0
C139 C 0.23902 0.55486 0.69557 0.0
C140 C 0.15268 0.47543 0.70144 0.0
C141 C 0.2741 0.43557 0.69814 0.0
C142 C 0.28806 0.48441 0.82554 0.0
C143 C 0.1884 0.42087 0.80868 0.0
C144 C 0.18649 0.54695 0.81102 0.0
O145 O 0.23525 0.53234 0.66924 0.0
O146 O 0.23882 0.54442 0.72902 0.0
O147 O 0.0852 0.50092 0.48795 0.0
Mg148 Mg 0.06664 0.44833 0.50435 0.0
O149 O 0.03356 0.53681 0.48601 0.0
Mg150 Mg 0.9846 0.49622 0.487 0.0
O151 O 0.02187 0.45155 0.47386 0.0
O152 O 0.05572 0.40162 0.47065 0.0
O153 O 0.94031 0.45424 0.48588 0.0
O154 O 0.9735 0.50725 0.42515 0.0
Mg155 Mg 0.89727 0.53338 0.47169 0.0
O156 O 0.944 0.5382 0.50098 0.0
O157 O 0.88304 0.47541 0.47519 0.0
O158 O 0.92247 0.5434 0.42002 0.0
O159 O 0.89615 0.56926 0.51945 0.0
C160 C 0.01396 0.46509 0.56892 0.0
C161 C 0.06881 0.53221 0.48396 0.0
C162 C 0.0256 0.41902 0.46183 0.0
C163 C 0.9061 0.44887 0.48087 0.0
C164 C 0.95075 0.52714 0.40619 0.0
C165 C 0.9302 0.55964 0.52474 0.0
O166 O 0.0423 0.44799 0.5566 0.0
O167 O -0.00715 0.4854 0.54891 0.0
O168 O 0.2416 0.33684 0.98472 0.0
Mg169 Mg 0.19261 0.30381 0.98906 0.0
O170 O 0.28205 0.28977 0.98899 0.0
Mg171 Mg 0.25491 0.23442 -0.00585 0.0
O172 O 0.20651 0.26035 0.02102 0.0
O173 O 0.16095 0.2974 0.03701 0.0
O174 O 0.22949 0.17671 -0.00125 0.0
O175 O 0.27978 0.2288 0.05172 0.0
Mg176 Mg 0.32186 0.1677 0.00214 0.0
O177 O 0.30422 0.2095 0.96987 0.0
O178 O 0.27426 0.13303 0.00336 0.0
O179 O 0.33194 0.1952 0.05283 0.0
O180 O 0.35358 0.17821 0.95417 0.0
C181 C 0.20061 0.25798 0.92097 0.0
C182 C 0.27467 0.32399 0.9853 0.0
C183 C 0.18087 0.26831 0.04371 0.0
C184 C 0.24022 0.14298 0.00203 0.0
C185 C 0.30848 0.2164 0.06852 0.0
C186 C 0.33088 0.20525 0.9477 0.0
O187 O 0.1782 0.27727 0.93996 0.0
O188 O 0.22975 0.24297 0.93528 0.0
O189 O 0.24353 0.00423 0.11714 0.0
Mg190 Mg 0.29466 0.0225 0.14165 0.0
O191 O 0.21097 -0.00609 0.16771 0.0
Mg192 Mg 0.24615 0.00241 0.21889 0.0
O193 O 0.29641 0.9927 0.18719 0.0
O194 O 0.34251 0.98737 0.14958 0.0
O195 O 0.283 0.01235 0.2677 0.0
O196 O 0.24657 0.93896 0.23565 0.0
Mg197 Mg 0.20334 0.99009 0.29828 0.0
O198 O 0.19425 0.01277 0.24901 0.0
O199 O 0.25177 0.01634 0.31948 0.0
O200 O 0.21242 0.93382 0.28586 0.0
O201 O 0.15074 0.0152 0.2902 0.0
C202 C 0.27036 0.08703 0.19087 0.0
C203 C 0.21369 -0.00456 0.13308 0.0
C204 C 0.32728 0.97726 0.17939 0.0
C205 C 0.28173 0.01868 0.30163 0.0
C206 C 0.2323 0.91943 0.26103 0.0
C207 C 0.16133 0.02289 0.25772 0.0
O208 O 0.29187 0.07508 0.16607 0.0
O209 O 0.24854 0.06601 0.20814 0.0
O210 O 0.55571 0.32117 0.78217 0.0
Mg211 Mg 0.53721 0.26965 0.79868 0.0
O212 O 0.51843 0.32821 0.73396 0.0
Mg213 Mg 0.49952 0.26835 0.71698 0.0
O214 O 0.54127 0.23956 0.7528 0.0
O215 O 0.57508 0.22503 0.80107 0.0
O216 O 0.48107 0.2102 0.70027 0.0
O217 O 0.54198 0.26938 0.67146 0.0
Mg218 Mg 0.45821 0.26797 0.63281 0.0
O219 O 0.45899 0.29387 0.68072 0.0
O220 O 0.44538 0.21357 0.6503 0.0
O221 O 0.51451 0.27467 0.61681 0.0
O222 O 0.42 0.31344 0.63919 0.0
C223 C 0.45218 0.26877 0.79538 0.0
C224 C 0.54181 0.34104 0.75684 0.0
C225 C 0.56647 0.21884 0.76758 0.0
C226 C 0.45952 0.19556 0.677 0.0
C227 C 0.54347 0.27299 0.6369 0.0
C228 C 0.43324 0.31646 0.67161 0.0
O229 O 0.48079 0.26876 0.81581 0.0
O230 O 0.45458 0.26796 0.76084 0.0
O231 O 0.06695 0.79305 0.81519 0.0
Mg232 Mg 0.07076 0.73508 0.81196 0.0
O233 O 0.01989 0.79755 0.776 0.0
Mg234 Mg 0.01146 0.74229 0.74427 0.0
O235 O 0.06851 0.72142 0.75848 0.0
O236 O 0.11836 0.7097 0.79176 0.0
O237 O 0.00076 0.68744 0.71203 0.0
O238 O 0.03891 0.76599 0.69465 0.0
Mg239 Mg 0.9551 0.75835 0.67447 0.0
O240 O 0.95608 0.76643 0.72922 0.0
O241 O 0.9575 0.70059 0.66974 0.0
O242 O 0.00133 0.78364 0.64969 0.0
O243 O 0.90839 0.78532 0.69591 0.0
C244 C -0.00574 0.70308 0.82519 0.0
C245 C 0.04164 0.812 0.79936 0.0
C246 C 0.1014 0.70731 0.76082 0.0
C247 C 0.9789 0.67779 0.68629 0.0
C248 C 0.03369 0.77973 0.66315 0.0
C249 C 0.92364 0.78156 0.72757 0.0
O250 O 0.02723 0.70535 0.83745 0.0
O251 O 0.98511 0.71617 0.79408 0.0
O252 O 0.67646 0.44344 0.19831 0.0
Mg253 Mg 0.73166 0.44598 0.17951 0.0
O254 O 0.67609 0.496 0.22948 0.0
Mg255 Mg 0.7373 0.51103 0.2444 0.0
O256 O 0.76074 0.45721 0.22512 0.0
O257 O 0.77425 0.40728 0.19433 0.0
O258 O 0.79909 0.5273 0.25569 0.0
O259 O 0.73304 0.48606 0.30191 0.0
Mg260 Mg 0.7466 0.57474 0.30567 0.0
O261 O 0.71418 0.56667 0.26145 0.0
O262 O 0.8004 0.58023 0.28575 0.0
O263 O 0.73766 0.53048 0.34316 0.0
O264 O 0.70856 0.61691 0.2951 0.0
C265 C 0.74338 0.52593 0.15507 0.0
C266 C 0.65905 0.46967 0.214 0.0
C267 C 0.78231 0.42905 0.22068 0.0
C268 C 0.8168 0.55477 0.26822 0.0
C269 C 0.73392 0.49666 0.33501 0.0
C270 C 0.69794 0.59804 0.26735 0.0
O271 O 0.74228 0.49268 0.14397 0.0
O272 O 0.74183 0.53406 0.18862 0.0
O273 O 0.76099 0.64857 0.97358 0.0
Mg274 Mg 0.71343 0.68411 0.97657 0.0
O275 O 0.76868 0.6656 0.02928 0.0
Mg276 Mg 0.77682 0.72895 0.01925 0.0
O277 O 0.73835 0.73221 0.97035 0.0
O278 O 0.69613 0.7154 0.93072 0.0
O279 O 0.78357 0.79188 0.01286 0.0
O280 O 0.82945 0.71607 0.98525 0.0
Mg281 Mg 0.85501 0.75998 0.06516 0.0
O282 O 0.81107 0.72954 0.06785 0.0
O283 O 0.82649 0.81088 0.05255 0.0
O284 O 0.87864 0.73206 0.01913 0.0
O285 O 0.84782 0.72827 0.11488 0.0
C286 C 0.69656 0.72019 0.05424 0.0
C287 C 0.76518 0.63946 0.00649 0.0
C288 C 0.71766 0.74048 0.94277 0.0
C289 C 0.80046 0.81743 0.02956 0.0
C290 C 0.86451 0.71715 0.99091 0.0
C291 C 0.81883 0.71608 0.09889 0.0
O292 O 0.68829 0.69667 0.02965 0.0
O293 O 0.72622 0.73856 0.0536 0.0
O294 O 0.43869 0.06345 0.47394 0.0
Mg295 Mg 0.45879 0.01785 0.5032 0.0
O296 O 0.46692 0.02348 0.43973 0.0
Mg297 Mg 0.51875 0.01452 0.48032 0.0
O298 O 0.49742 0.03016 0.54022 0.0
O299 O 0.43813 0.01982 0.55393 0.0
O300 O 0.57026 0.00665 0.51173 0.0
O301 O 0.53066 0.07579 0.47304 0.0
Mg302 Mg 0.59612 0.03065 0.43187 0.0
O303 O 0.54889 -5e-05 0.42873 0.0
O304 O 0.62363 0.01308 0.48313 0.0
O305 O 0.57655 0.08757 0.43516 0.0
O306 O 0.58837 -0.00402 0.38424 0.0
C307 C 0.476 0.94099 0.49179 0.0
C308 C 0.44253 0.04914 0.44309 0.0
C309 C 0.47089 0.0291 0.5639 0.0
C310 C 0.60525 0.00594 0.51178 0.0
C311 C 0.55071 0.09862 0.45622 0.0
C312 C 0.55784 0.98523 0.39814 0.0
O313 O 0.44926 0.96329 0.48605 0.0
O314 O 0.50843 0.95333 0.49339 0.0
O315 O 0.46031 0.56292 0.02034 0.0
Mg316 Mg 0.49029 0.57753 0.97314 0.0
O317 O 0.49012 0.50964 0.03174 0.0
Mg318 Mg 0.5192 0.49063 0.97849 0.0
O319 O 0.4874 0.53096 0.94283 0.0
O320 O 0.46302 0.58308 0.92217 0.0
O321 O 0.54716 0.47169 0.92524 0.0
O322 O 0.47387 0.44668 0.97191 0.0
Mg323 Mg 0.55881 0.40555 0.98463 0.0
O324 O 0.55226 0.45242 0.01266 0.0
O325 O 0.58368 0.42233 0.93419 0.0
O326 O 0.50179 0.39142 0.9804 0.0
O327 O 0.58289 0.40698 0.03836 0.0
C328 C 0.57248 0.56514 0.99051 0.0
C329 C 0.46739 0.53532 0.04088 0.0
C330 C 0.4678 0.54803 0.91839 0.0
C331 C 0.57113 0.44828 0.91379 0.0
C332 C 0.47286 0.41153 0.97504 0.0
C333 C 0.56902 0.4398 0.04096 0.0
O334 O 0.54712 0.58939 0.98494 0.0
O335 O 0.56619 0.5309 0.98796 0.0
H336 H 0.89702 0.12486 0.08587 0.0
H337 H 0.98907 0.05924 0.12697 0.0
H338 H 0.98636 0.09203 0.18498 0.0
H339 H 0.97054 0.1507 0.21426 0.0
H340 H 0.8849 0.22142 0.16796 0.0
H341 H 0.87057 0.17439 0.12288 0.0
C342 C 0.91568 0.11708 0.10803 0.0
C343 C 0.94404 0.0909 0.10209 0.0
C344 C 0.91503 0.13719 0.14032 0.0
C345 C 0.96743 0.07988 0.13098 0.0
C346 C 0.966 0.09878 0.16401 0.0
C347 C 0.94773 0.15512 0.19521 0.0
C348 C 0.92971 0.18975 0.19309 0.0
C349 C 0.94182 0.12931 0.16773 0.0
C350 C 0.89975 0.19517 0.16906 0.0
C351 C 0.89182 0.16846 0.14319 0.0
H352 H 0.7917 0.25191 0.41861 0.0
H353 H 0.78278 0.13982 0.38074 0.0
H354 H 0.83829 0.14627 0.34482 0.0
H355 H 0.8946 0.17969 0.33291 0.0
H356 H 0.9042 0.29241 0.36736 0.0
H357 H 0.84175 0.29084 0.39359 0.0
C358 C 0.80144 0.22935 0.40173 0.0
C359 C 0.78383 0.19518 0.40308 0.0
C360 C 0.83345 0.23328 0.38075 0.0
C361 C 0.79616 0.16626 0.38058 0.0
C362 C 0.82802 0.1698 0.36011 0.0
C363 C 0.8827 0.20399 0.3459 0.0
C364 C 0.90371 0.23568 0.34938 0.0
C365 C 0.84772 0.2025 0.36146 0.0
C366 C 0.88828 0.26752 0.36518 0.0
C367 C 0.85299 0.2664 0.38057 0.0
H368 H 0.73724 0.07268 0.69237 0.0
H369 H 0.79329 0.99142 0.6258 0.0
H370 H 0.811 0.0393 0.58313 0.0
H371 H 0.80046 0.1012 0.55921 0.0
H372 H 0.74013 0.18211 0.62204 0.0
H373 H 0.73522 0.13793 0.67243 0.0
C374 C 0.75387 0.06566 0.66883 0.0
C375 C 0.76319 0.02855 0.66161 0.0
C376 C 0.76309 0.09325 0.64381 0.0
C377 C 0.78498 0.01971 0.63129 0.0
C378 C 0.79529 0.04706 0.60703 0.0
C379 C 0.78728 0.10943 0.58446 0.0
C380 C 0.77016 0.14431 0.58695 0.0
C381 C 0.78305 0.08351 0.61218 0.0
C382 C 0.75352 0.15522 0.61971 0.0
C383 C 0.75025 0.1298 0.64822 0.0
H384 H 0.91904 0.08501 0.87097 0.0
H385 H 0.91154 0.00203 0.9542 0.0
H386 H 0.87297 0.96496 0.91567 0.0
H387 H 0.83 0.96359 0.86478 0.0
H388 H 0.83081 0.04934 0.7838 0.0
H389 H 0.88466 0.07686 0.81327 0.0
C390 C 0.90943 0.05851 0.88029 0.0
C391 C 0.91747 0.0465 0.91588 0.0
C392 C 0.8863 0.03767 0.85792 0.0
C393 C 0.90547 0.01196 0.92736 0.0
C394 C 0.88341 0.99064 0.90516 0.0
C395 C 0.84331 0.98722 0.85275 0.0
C396 C 0.82686 0.00492 0.82289 0.0
C397 C 0.87214 0.00413 0.87121 0.0
C398 C 0.84357 0.03552 0.80706 0.0
C399 C 0.87379 0.05157 0.82426 0.0
H400 H 0.08428 0.93223 0.03836 0.0
H401 H 0.01996 0.00037 0.111 0.0
H402 H 0.07681 0.02324 0.13919 0.0
H403 H 0.14438 0.0193 0.14626 0.0
H404 H 0.20935 0.95429 0.07124 0.0
H405 H 0.15264 0.93486 0.04014 0.0
C406 C 0.08301 0.95237 0.06012 0.0
C407 C 0.04855 0.96446 0.07327 0.0
C408 C 0.1157 0.96566 0.0756 0.0
C409 C 0.04656 0.99087 0.1009 0.0
C410 C 0.07891 0.00375 0.11695 0.0
C411 C 0.14601 0.00112 0.12289 0.0
C412 C 0.18058 0.9875 0.11133 0.0
C413 C 0.11355 0.99065 0.10505 0.0
C414 C 0.18279 0.96477 0.08058 0.0
C415 C 0.15047 0.9536 0.06298 0.0
H416 H -0.00829 0.35652 0.47703 0.0
H417 H -0.00034 0.44182 0.39637 0.0
H418 H 0.98513 0.39818 0.34825 0.0
H419 H 0.00171 0.3353 0.33099 0.0
H420 H 0.00943 0.25026 0.41323 0.0
H421 H 0.98411 0.2927 0.45822 0.0
C422 C 0.98794 0.36566 0.44904 0.0
C423 C -0.00239 0.4015 0.43954 0.0
C424 C 0.98362 0.33963 0.42161 0.0
C425 C -0.00777 0.41407 0.40383 0.0
C426 C 0.98472 0.38885 0.37632 0.0
C427 C -0.00343 0.32572 0.35847 0.0
C428 C 0.01005 0.29092 0.36975 0.0
C429 C 0.98533 0.35113 0.38479 0.0
C430 C 0.00131 0.27785 0.40461 0.0
C431 C 0.98681 0.30211 0.43034 0.0
H432 H 0.68612 0.31454 0.55053 0.0
H433 H 0.73837 0.27475 0.64926 0.0
H434 H 0.6777 0.25981 0.6744 0.0
H435 H 0.61037 0.2585 0.66776 0.0
H436 H 0.55804 0.30032 0.56934 0.0
H437 H 0.61852 0.31417 0.54429 0.0
C438 C 0.68392 0.30251 0.5775 0.0
C439 C 0.71589 0.2953 0.5982 0.0
C440 C 0.64928 0.29442 0.59157 0.0
C441 C 0.71356 0.28041 0.63324 0.0
C442 C 0.67911 0.27179 0.64739 0.0
C443 C 0.61218 0.27046 0.64074 0.0
C444 C 0.57986 0.27831 0.62039 0.0
C445 C 0.64685 0.27863 0.6267 0.0
C446 C 0.58258 0.29376 0.58542 0.0
C447 C 0.61708 0.3019 0.57117 0.0
H448 H 0.70012 0.91077 0.91272 0.0
H449 H 0.67025 0.87 0.80637 0.0
H450 H 0.67655 0.80674 0.82823 0.0
H451 H 0.69607 0.763 0.87583 0.0
H452 H 0.72355 0.80297 0.98267 0.0
H453 H 0.71356 0.86655 0.9623 0.0
C454 C 0.69406 0.88806 0.89463 0.0
C455 C 0.68497 0.89501 0.85797 0.0
C456 C 0.69866 0.85165 0.9071 0.0
C457 C 0.67747 0.8653 0.83472 0.0
C458 C 0.68135 0.82911 0.84707 0.0
C459 C 0.70014 0.78573 0.89448 0.0
C460 C 0.71276 0.77867 0.93003 0.0
C461 C 0.6931 0.82199 0.88284 0.0
C462 C 0.71665 0.80807 0.95442 0.0
C463 C 0.70995 0.84432 0.94302 0.0
H464 H 0.19715 0.28842 0.1119 0.0
H465 H 0.14825 0.20191 0.04904 0.0
H466 H 0.11332 0.18204 0.10225 0.0
H467 H 0.08333 0.20298 0.15904 0.0
H468 H 0.13038 0.29184 0.22009 0.0
H469 H 0.18061 0.29626 0.17622 0.0
C470 C 0.18018 0.26412 0.11053 0.0
C471 C 0.17449 0.24696 0.07688 0.0
C472 C 0.15944 0.2538 0.14082 0.0
C473 C 0.15274 0.21548 0.07491 0.0
C474 C 0.1325 0.20443 0.1052 0.0
C475 C 0.10573 0.22194 0.16355 0.0
C476 C 0.10318 0.24755 0.19205 0.0
C477 C 0.1335 0.22532 0.13731 0.0
C478 C 0.13201 0.27205 0.1981 0.0
C479 C 0.16039 0.27488 0.17275 0.0
H480 H 0.74196 0.42221 0.32802 0.0
H481 H 0.72948 0.50824 0.40835 0.0
H482 H 0.74017 0.46329 0.457 0.0
H483 H 0.75651 0.4003 0.47668 0.0
H484 H 0.76683 0.3138 0.39701 0.0
H485 H 0.75424 0.35838 0.34798 0.0
C486 C 0.74104 0.43112 0.35617 0.0
C487 C 0.73515 0.46866 0.36445 0.0
C488 C 0.74749 0.40517 0.38407 0.0
C489 C 0.73416 0.4796 0.40113 0.0
C490 C 0.74043 0.45395 0.429 0.0
C491 C 0.75595 0.39129 0.44855 0.0
C492 C 0.76281 0.35403 0.44029 0.0
C493 C 0.74784 0.41684 0.42075 0.0
C494 C 0.76152 0.34241 0.40389 0.0
C495 C 0.75433 0.36786 0.37593 0.0
H496 H 0.58334 0.95297 0.55589 0.0
H497 H 0.66264 0.03968 0.54739 0.0
H498 H 0.67805 0.03233 0.61247 0.0
H499 H 0.66846 0.00076 0.6709 0.0
H500 H 0.59131 0.91186 0.67746 0.0
H501 H 0.57281 0.92275 0.61398 0.0
C502 C 0.60449 0.96988 0.56819 0.0
C503 C 0.62242 -0.00367 0.54698 0.0
C504 C 0.61197 0.96634 0.60532 0.0
C505 C 0.6494 0.01839 0.56304 0.0
C506 C 0.65746 0.01476 0.6003 0.0
C507 C 0.64679 0.9845 0.65873 0.0
C508 C 0.63078 0.95579 0.67876 0.0
C509 C 0.63852 0.9891 0.62168 0.0
C510 C 0.60332 0.93447 0.66262 0.0
C511 C 0.59345 0.94017 0.62625 0.0
H512 H 0.03286 0.93998 0.90979 0.0
H513 H 0.91776 0.91205 0.90374 0.0
H514 H 0.92903 0.87655 0.84816 0.0
H515 H 0.97395 0.84232 0.81085 0.0
H516 H 0.09046 0.86255 0.82374 0.0
H517 H 0.07673 0.91239 0.86645 0.0
C518 C 0.0102 0.92701 0.89549 0.0
C519 C 0.97464 0.92841 0.91044 0.0
C520 C 0.01744 0.90468 0.86513 0.0
C521 C 0.94534 0.91121 0.89239 0.0
C522 C 0.95186 0.89075 0.86085 0.0
C523 C -0.00384 0.85871 0.82185 0.0
C524 C 0.03311 0.84883 0.81434 0.0
C525 C 0.98815 0.88563 0.84819 0.0
C526 C 0.06179 0.86975 0.82924 0.0
C527 C 0.05396 0.898 0.8539 0.0
H528 H 0.10268 0.04867 0.0366 0.0
H529 H 0.07876 0.07756 0.92484 0.0
H530 H 0.14118 0.10057 0.91752 0.0
H531 H 0.19654 0.12469 0.94661 0.0
H532 H 0.22086 0.0991 0.05886 0.0
H533 H 0.16465 0.06226 0.06258 0.0
C534 C 0.11187 0.05867 0.01038 0.0
C535 C 0.08653 0.06187 0.98131 0.0
C536 C 0.14741 0.07328 0.00684 0.0
C537 C 0.09814 0.07507 0.94745 0.0
C538 C 0.13361 0.08852 0.94338 0.0
C539 C 0.18985 0.11021 0.97153 0.0
C540 C 0.2119 0.11478 0.00254 0.0
C541 C 0.15756 0.08977 0.97345 0.0
C542 C 0.20372 0.0959 0.03478 0.0
C543 C 0.17162 0.07504 0.0369 0.0
H544 H 0.68603 0.66744 0.24489 0.0
H545 H 0.63852 0.55965 0.24313 0.0
H546 H 0.57644 0.58734 0.2378 0.0
H547 H 0.5376 0.64087 0.25606 0.0
H548 H 0.58615 0.74783 0.26483 0.0
H549 H 0.64585 0.72242 0.24492 0.0
C550 C 0.66208 0.65014 0.24162 0.0
C551 C 0.66626 0.61184 0.24576 0.0
C552 C 0.62666 0.66632 0.24118 0.0
C553 C 0.63565 0.58929 0.24053 0.0
C554 C 0.60013 0.60518 0.23816 0.0
C555 C 0.561 0.65865 0.25194 0.0
C556 C 0.55839 0.69569 0.26227 0.0
C557 C 0.59538 0.64347 0.24196 0.0
C558 C 0.58825 0.71903 0.25718 0.0
C559 C 0.62227 0.70449 0.24599 0.0
H560 H 0.37945 0.80999 0.5021 0.0
H561 H 0.33022 0.88376 0.58079 0.0
H562 H 0.38808 0.91663 0.5863 0.0
H563 H 0.44329 0.93518 0.55497 0.0
H564 H 0.48826 0.86917 0.46849 0.0
H565 H 0.44303 0.82113 0.48075 0.0
C566 C 0.38204 0.83232 0.52147 0.0
C567 C 0.35073 0.84518 0.54042 0.0
C568 C 0.41461 0.85264 0.52259 0.0
C569 C 0.35402 0.874 0.56553 0.0
C570 C 0.38702 0.89277 0.56864 0.0
C571 C 0.44408 0.90944 0.53991 0.0
C572 C 0.4669 0.90622 0.50941 0.0
C573 C 0.41631 0.88401 0.54528 0.0
C574 C 0.46909 0.8728 0.49061 0.0
C575 C 0.44322 0.84555 0.49767 0.0
H576 H 0.17336 0.7006 0.74179 0.0
H577 H 0.0665 0.65874 0.71522 0.0
H578 H 0.08963 0.59577 0.72316 0.0
H579 H 0.13147 0.55757 0.7624 0.0
H580 H 0.23298 0.60335 0.80233 0.0
H581 H 0.22147 0.65946 0.76636 0.0
C582 C 0.15586 0.67737 0.73584 0.0
C583 C 0.11755 0.6836 0.73244 0.0
C584 C 0.1682 0.64199 0.74588 0.0
C585 C 0.09565 0.65432 0.72092 0.0
C586 C 0.10868 0.6182 0.72654 0.0
C587 C 0.15118 0.57972 0.76252 0.0
C588 C 0.18197 0.57779 0.78588 0.0
C589 C 0.14337 0.61237 0.74333 0.0
C590 C 0.20827 0.60558 0.78548 0.0
C591 C 0.20189 0.63728 0.76468 0.0
H592 H 0.84176 0.29211 0.45659 0.0
H593 H 0.91724 0.26715 0.54499 0.0
H594 H 0.94429 0.32796 0.53892 0.0
H595 H 0.9351 0.3921 0.51919 0.0
H596 H 0.85476 0.41902 0.43523 0.0
H597 H 0.84062 0.35359 0.42887 0.0
C598 C 0.86537 0.29924 0.47325 0.0
C599 C 0.87662 0.27579 0.50202 0.0
C600 C 0.87823 0.33534 0.47183 0.0
C601 C 0.90771 0.28507 0.52303 0.0
C602 C 0.92246 0.32019 0.52022 0.0
C603 C 0.9142 0.38362 0.49971 0.0
C604 C 0.89491 0.41026 0.47867 0.0
C605 C 0.90574 0.34633 0.49682 0.0
C606 C 0.86874 0.39904 0.4528 0.0
C607 C 0.86104 0.36168 0.44886 0.0
H608 H 0.29138 0.91499 0.18473 0.0
H609 H 0.39368 0.96654 0.21359 0.0
H610 H 0.42201 0.90617 0.22793 0.0
H611 H 0.42178 0.8402 0.21483 0.0
H612 H 0.32215 0.79031 0.17538 0.0
H613 H 0.28751 0.84809 0.18448 0.0
C614 C 0.31923 0.91293 0.19597 0.0
C615 C 0.34059 0.94448 0.19854 0.0
C616 C 0.33567 0.8783 0.20179 0.0
C617 C 0.37704 0.94211 0.2117 0.0
C618 C 0.39314 0.90773 0.21968 0.0
C619 C 0.39209 0.84164 0.2102 0.0
C620 C 0.37429 0.81175 0.1943 0.0
C621 C 0.3734 0.87563 0.21245 0.0
C622 C 0.33609 0.81348 0.1875 0.0
C623 C 0.31652 0.84652 0.19224 0.0
H624 H 0.34489 0.45312 0.70542 0.0
H625 H 0.26619 0.37046 0.7332 0.0
H626 H 0.31627 0.32441 0.74026 0.0
H627 H 0.37723 0.30516 0.71684 0.0
H628 H 0.45332 0.38704 0.68079 0.0
H629 H 0.4106 0.43628 0.69996 0.0
C630 C 0.33918 0.42541 0.71477 0.0
C631 C 0.30247 0.41449 0.718 0.0
C632 C 0.36778 0.39892 0.71652 0.0
C633 C 0.2946 0.37894 0.73027 0.0
C634 C 0.32315 0.35264 0.73391 0.0
C635 C 0.38495 0.33386 0.71497 0.0
C636 C 0.41746 0.34306 0.69692 0.0
C637 C 0.35923 0.3617 0.72382 0.0
C638 C 0.42795 0.37987 0.6944 0.0
C639 C 0.40341 0.40788 0.70501 0.0
H640 H 0.18842 0.79675 0.58895 0.0
H641 H 0.11874 0.81813 0.49533 0.0
H642 H 0.06363 0.80331 0.53063 0.0
H643 H 0.03536 0.7928 0.59024 0.0
H644 H 0.10577 0.77765 0.68507 0.0
H645 H 0.16051 0.78245 0.64749 0.0
C646 C 0.16115 0.79722 0.57629 0.0
C647 C 0.15703 0.80841 0.54009 0.0
C648 C 0.12978 0.79116 0.59726 0.0
C649 C 0.12197 0.80949 0.52346 0.0
C650 C 0.09063 0.80146 0.54367 0.0
C651 C 0.06266 0.79095 0.60273 0.0
C652 C 0.06641 0.78576 0.64048 0.0
C653 C 0.09413 0.79401 0.58103 0.0
C654 C 0.10203 0.78238 0.65613 0.0
C655 C 0.13342 0.78476 0.63467 0.0
H656 H 0.19471 0.85727 0.27677 0.0
H657 H 0.30424 0.9013 0.27119 0.0
H658 H 0.32513 0.86037 0.31997 0.0
H659 H 0.30546 0.83012 0.37664 0.0
H660 H 0.19647 0.78519 0.38312 0.0
H661 H 0.18171 0.80879 0.32213 0.0
C662 C 0.22372 0.85612 0.28466 0.0
C663 C 0.24778 0.88256 0.27046 0.0
C664 C 0.23508 0.83364 0.31424 0.0
C665 C 0.28526 0.88091 0.28102 0.0
C666 C 0.29699 0.85815 0.30986 0.0
C667 C 0.2795 0.82314 0.36366 0.0
C668 C 0.25222 0.80567 0.38418 0.0
C669 C 0.27128 0.83687 0.32857 0.0
C670 C 0.21805 0.79817 0.36763 0.0
C671 C 0.20948 0.81207 0.33287 0.0
H672 H 0.02283 0.65113 0.63391 0.0
H673 H 0.93275 0.62308 0.70396 0.0
H674 H 0.91151 0.5777 0.65981 0.0
H675 H 0.90971 0.55879 0.59537 0.0
H676 H -0.00191 0.58911 0.5242 0.0
H677 H 0.02905 0.62093 0.57427 0.0
C678 C -0.00017 0.63351 0.64027 0.0
C679 C 0.97931 0.64018 0.67196 0.0
C680 C 0.98667 0.60908 0.6138 0.0
C681 C 0.94912 0.61793 0.67985 0.0
C682 C 0.93655 0.59258 0.65424 0.0
C683 C 0.93619 0.57167 0.59125 0.0
C684 C 0.95157 0.5723 0.55633 0.0
C685 C 0.95356 0.58997 0.62014 0.0
C686 C 0.98605 0.58839 0.55105 0.0
C687 C 0.00357 0.60669 0.5796 0.0
H688 H 0.31054 0.65933 0.41217 0.0
H689 H 0.33713 0.76758 0.45118 0.0
H690 H 0.35318 0.78665 0.38957 0.0
H691 H 0.36924 0.76924 0.32797 0.0
H692 H 0.35535 0.6574 0.29286 0.0
H693 H 0.31966 0.64417 0.34755 0.0
C694 C 0.31907 0.68731 0.40678 0.0
C695 C 0.32327 0.71205 0.43566 0.0
C696 C 0.32838 0.69788 0.37144 0.0
C697 C 0.33395 0.74828 0.42897 0.0
C698 C 0.34262 0.75927 0.39379 0.0
C699 C 0.35658 0.74259 0.33157 0.0
C700 C 0.36516 0.7141 0.30724 0.0
C701 C 0.34092 0.734 0.36507 0.0
C702 C 0.34893 0.67963 0.31156 0.0
C703 C 0.32953 0.67185 0.34329 0.0
H704 H 0.32843 0.13023 0.20162 0.0
H705 H 0.20986 0.13356 0.18973 0.0
H706 H 0.21277 0.19284 0.15854 0.0
H707 H 0.24984 0.22431 0.11312 0.0
H708 H 0.36858 0.21033 0.11437 0.0
H709 H 0.36556 0.17675 0.17177 0.0
C710 C 0.30318 0.14519 0.19401 0.0
C711 C 0.26922 0.12715 0.19604 0.0
C712 C 0.30557 0.17709 0.1728 0.0
C713 C 0.2364 0.14668 0.18748 0.0
C714 C 0.23821 0.18034 0.16901 0.0
C715 C 0.27518 0.21564 0.12695 0.0
C716 C 0.30917 0.21765 0.10867 0.0
C717 C 0.27279 0.19317 0.15789 0.0
C718 C 0.34194 0.20763 0.12735 0.0
C719 C 0.34014 0.18806 0.16 0.0
H720 H 0.85232 0.70637 0.91842 0.0
H721 H 0.93434 0.69072 0.00346 0.0
H722 H 0.98119 0.67526 0.9584 0.0
H723 H 0.00128 0.67954 0.89528 0.0
H724 H 0.92021 0.6991 0.80997 0.0
H725 H 0.87065 0.69847 0.85447 0.0
C726 C 0.88027 0.69888 0.92706 0.0
C727 C 0.89024 0.70109 0.964 0.0
C728 C 0.90742 0.69108 0.90091 0.0
C729 C 0.92635 0.69053 0.97497 0.0
C730 C 0.95314 0.68153 0.94926 0.0
C731 C 0.97272 0.68278 0.88627 0.0
C732 C 0.96461 0.69089 0.84963 0.0
C733 C 0.94446 0.68384 0.91212 0.0
C734 C 0.92736 0.69384 0.83824 0.0
C735 C 0.89893 0.69368 0.8637 0.0
H736 H 0.29103 0.60817 0.7066 0.0
H737 H 0.18251 0.5896 0.66168 0.0
H738 H 0.18219 0.64989 0.63216 0.0
H739 H 0.218 0.70105 0.60853 0.0
H740 H 0.32865 0.71774 0.64878 0.0
H741 H 0.3225 0.66654 0.69157 0.0
C742 C 0.26698 0.61797 0.69128 0.0
C743 C 0.23698 0.59447 0.68597 0.0
C744 C 0.26746 0.65248 0.67329 0.0
C745 C 0.20605 0.60721 0.66579 0.0
C746 C 0.20584 0.64169 0.64888 0.0
C747 C 0.24004 0.69472 0.62795 0.0
C748 C 0.27379 0.71308 0.6253 0.0
C749 C 0.2371 0.66379 0.65094 0.0
C750 C 0.30232 0.70408 0.65035 0.0
C751 C 0.29905 0.67432 0.67442 0.0
H752 H 0.29055 0.05989 0.36211 0.0
H753 H 0.35098 -0.0042 0.28271 0.0
H754 H 0.40835 0.00355 0.31721 0.0
H755 H 0.43952 0.02246 0.37386 0.0
H756 H 0.37891 0.08922 0.4513 0.0
H757 H 0.3238 0.0871 0.41327 0.0
C758 C 0.31636 0.04792 0.3523 0.0
C759 C 0.31655 0.02675 0.32056 0.0
C760 C 0.34924 0.05291 0.37187 0.0
C761 C 0.35022 0.01202 0.30744 0.0
C762 C 0.38301 0.01637 0.32711 0.0
C763 C 0.41447 0.03718 0.38196 0.0
C764 C 0.41306 0.05513 0.41571 0.0
C765 C 0.38264 0.03593 0.35992 0.0
C766 C 0.38065 0.0747 0.42562 0.0
C767 C 0.34894 0.07338 0.40402 0.0
H768 H 0.7858 0.87157 0.07693 0.0
H769 H 0.79742 0.84971 0.96245 0.0
H770 H 0.81323 0.91401 0.95153 0.0
H771 H 0.84772 0.96463 0.9789 0.0
H772 H 0.8463 0.97998 0.0948 0.0
H773 H 0.79997 0.93261 0.10094 0.0
C774 C 0.79002 0.88153 0.04941 0.0
C775 C 0.79206 0.85619 0.02073 0.0
C776 C 0.80124 0.91775 0.04387 0.0
C777 C 0.79656 0.86892 0.98498 0.0
C778 C 0.80589 0.90561 0.97884 0.0
C779 C 0.83532 0.95918 0.00511 0.0
C780 C 0.8517 0.97375 0.03659 0.0
C781 C 0.81203 0.92895 0.00864 0.0
C782 C 0.83481 0.96795 0.07032 0.0
C783 C 0.80897 0.94017 0.0739 0.0
H784 H 0.60647 0.22214 0.54935 0.0
H785 H 0.63764 0.26537 0.44562 0.0
H786 H 0.59465 0.22479 0.41485 0.0
H787 H 0.56854 0.16154 0.41889 0.0
H788 H 0.53263 0.12247 0.52369 0.0
H789 H 0.55625 0.17732 0.55276 0.0
C790 C 0.60172 0.22481 0.52025 0.0
C791 C 0.62796 0.24299 0.49915 0.0
C792 C 0.57738 0.20059 0.50298 0.0
C793 C 0.61941 0.24905 0.46217 0.0
C794 C 0.59556 0.22495 0.44434 0.0
C795 C 0.56439 0.16583 0.44778 0.0
C796 C 0.55055 0.13719 0.4693 0.0
C797 C 0.57753 0.1979 0.46454 0.0
C798 C 0.54416 0.14363 0.50656 0.0
C799 C 0.55778 0.17503 0.52338 0.0
H800 H 0.80872 0.37892 0.27023 0.0
H801 H 0.83918 0.47176 0.20448 0.0
H802 H 0.90471 0.45672 0.21425 0.0
H803 H 0.95145 0.40956 0.22961 0.0
H804 H 0.9213 0.31425 0.29199 0.0
H805 H 0.85826 0.339 0.29795 0.0
C806 C 0.82987 0.39664 0.2595 0.0
C807 C 0.81948 0.42656 0.23701 0.0
C808 C 0.8676 0.38732 0.26471 0.0
C809 C 0.84679 0.44892 0.2223 0.0
C810 C 0.88422 0.44014 0.22765 0.0
C811 C 0.93148 0.39497 0.24585 0.0
C812 C 0.94069 0.3596 0.25933 0.0
C813 C 0.89482 0.40838 0.24726 0.0
C814 C 0.91487 0.34132 0.28095 0.0
C815 C 0.87851 0.35519 0.28376 0.0
H816 H 0.06281 0.60141 0.51234 0.0
H817 H 0.12897 0.53234 0.44167 0.0
H818 H 0.17729 0.57798 0.44087 0.0
H819 H 0.20426 0.6327 0.46697 0.0
H820 H 0.1406 0.70238 0.53873 0.0
H821 H 0.08731 0.66153 0.53244 0.0
C822 C 0.0873 0.59705 0.49596 0.0
C823 C 0.09267 0.56363 0.47738 0.0
C824 C 0.11548 0.62312 0.49634 0.0
C825 C 0.1246 0.55786 0.45645 0.0
C826 C 0.15224 0.5838 0.45606 0.0
C827 C 0.17837 0.63917 0.4806 0.0
C828 C 0.17589 0.66981 0.50338 0.0
C829 C 0.14855 0.61573 0.477 0.0
C830 C 0.14261 0.6786 0.52101 0.0
C831 C 0.1124 0.65527 0.5175 0.0
H832 H 0.69046 0.1064 0.75655 0.0
H833 H 0.60098 0.03546 0.78438 0.0
H834 H 0.55576 0.08269 0.76485 0.0
H835 H 0.54357 0.14941 0.75885 0.0
H836 H 0.63354 0.22163 0.73629 0.0
H837 H 0.67661 0.1689 0.73307 0.0
C838 C 0.66107 0.10077 0.75643 0.0
C839 C 0.64873 0.06798 0.772 0.0
C840 C 0.63536 0.12873 0.7467 0.0
C841 C 0.61079 0.06069 0.7723 0.0
C842 C 0.58499 0.08786 0.76155 0.0
C843 C 0.57222 0.1532 0.75128 0.0
C844 C 0.58573 0.18899 0.74823 0.0
C845 C 0.59704 0.12289 0.75144 0.0
C846 C 0.6228 0.19407 0.73876 0.0
C847 C 0.64748 0.16398 0.73743 0.0
H848 H 0.71689 0.5948 0.16084 0.0
H849 H 0.78936 0.52577 0.09635 0.0
H850 H 0.82013 0.58057 0.07321 0.0
H851 H 0.83202 0.64692 0.07891 0.0
H852 H 0.76099 0.71532 0.14522 0.0
H853 H 0.72503 0.66135 0.16231 0.0
C854 C 0.73883 0.59189 0.14095 0.0
C855 C 0.75145 0.55657 0.13062 0.0
C856 C 0.75765 0.62302 0.12982 0.0
C857 C 0.77928 0.55281 0.1045 0.0
C858 C 0.79737 0.584 0.09201 0.0
C859 C 0.8088 0.64964 0.09735 0.0
C860 C 0.79936 0.68418 0.11184 0.0
C861 C 0.78794 0.61891 0.10598 0.0
C862 C 0.7689 0.68842 0.13478 0.0
C863 C 0.74819 0.65784 0.14397 0.0
H864 H 0.9513 0.58246 0.35672 0.0
H865 H 0.94499 0.46469 0.36758 0.0
H866 H 0.90917 0.46129 0.31169 0.0
H867 H 0.86039 0.49463 0.27802 0.0
H868 H 0.86354 0.61267 0.26801 0.0
H869 H 0.91991 0.61351 0.30492 0.0
C870 C 0.94408 0.55593 0.34543 0.0
C871 C 0.95032 0.52394 0.36635 0.0
C872 C 0.92154 0.55452 0.31419 0.0
C873 C 0.94105 0.4896 0.35172 0.0
C874 C 0.91963 0.48776 0.32005 0.0
C875 C 0.87505 0.52011 0.28115 0.0
C876 C 0.8575 0.55347 0.27109 0.0
C877 C 0.9068 0.52039 0.30333 0.0
C878 C 0.87626 0.58664 0.27633 0.0
C879 C 0.90833 0.58716 0.29774 0.0
H880 H 0.09941 0.42485 0.69603 0.0
H881 H 0.11872 0.54135 0.69139 0.0
H882 H 0.06071 0.55157 0.65778 0.0
H883 H 0.0192 0.5238 0.61276 0.0
H884 H 0.00417 0.40656 0.61335 0.0
H885 H 0.04342 0.40011 0.66732 0.0
C886 C 0.08979 0.45256 0.68917 0.0
C887 C 0.11306 0.48229 0.6954 0.0
C888 C 0.05711 0.45792 0.66888 0.0
C889 C 0.10083 0.51822 0.68674 0.0
C890 C 0.06788 0.52397 0.66722 0.0
C891 C 0.02257 0.49729 0.62629 0.0
C892 C 0.01059 0.46546 0.60856 0.0
C893 C 0.04756 0.49361 0.65558 0.0
C894 C 0.01411 0.43127 0.62637 0.0
C895 C 0.03728 0.42749 0.65673 0.0
H896 H 0.57497 0.7174 0.17393 0.0
H897 H 0.55036 0.82426 0.12734 0.0
H898 H 0.60796 0.82126 0.0926 0.0
H899 H 0.65842 0.78298 0.06706 0.0
H900 H 0.67783 0.67287 0.10782 0.0
H901 H 0.62945 0.68195 0.15345 0.0
C902 C 0.58309 0.74052 0.15719 0.0
C903 C 0.55899 0.77105 0.15307 0.0
C904 C 0.61471 0.73737 0.13553 0.0
C905 C 0.56891 0.80063 0.13079 0.0
C906 C 0.60153 0.7987 0.11073 0.0
C907 C 0.65221 0.76131 0.08636 0.0
C908 C 0.67061 0.72706 0.08391 0.0
C909 C 0.62353 0.76638 0.11143 0.0
C910 C 0.66302 0.69906 0.10892 0.0
C911 C 0.63561 0.70436 0.13503 0.0
H912 H 0.63317 0.52451 0.17136 0.0
H913 H 0.60048 0.42503 0.22523 0.0
H914 H 0.55986 0.41039 0.17414 0.0
H915 H 0.55261 0.41489 0.10766 0.0
H916 H 0.59157 0.51044 0.05121 0.0
H917 H 0.61107 0.53762 0.10896 0.0
C918 C 0.61537 0.50082 0.1728 0.0
C919 C 0.62061 0.47518 0.20135 0.0
C920 C 0.59489 0.4909 0.14174 0.0
C921 C 0.59721 0.44486 0.20327 0.0
C922 C 0.57472 0.43602 0.17357 0.0
C923 C 0.56434 0.44217 0.10827 0.0
C924 C 0.57147 0.46041 0.0754 0.0
C925 C 0.57637 0.45695 0.14147 0.0
C926 C 0.58596 0.49596 0.07623 0.0
C927 C 0.59732 0.51135 0.1093 0.0
H928 H 0.41285 0.40958 0.92943 0.0
H929 H 0.45373 0.37508 0.03488 0.0
H930 H 0.39429 0.34806 0.04899 0.0
H931 H 0.33141 0.33267 0.03091 0.0
H932 H 0.28928 0.36511 0.92545 0.0
H933 H 0.34844 0.39344 0.91108 0.0
C934 C 0.40824 0.39648 0.9555 0.0
C935 C 0.43708 0.39445 0.98126 0.0
C936 C 0.37386 0.38086 0.9634 0.0
C937 C 0.43169 0.37666 0.01469 0.0
C938 C 0.39775 0.36146 0.02286 0.0
C939 C 0.33491 0.34722 0.00533 0.0
C940 C 0.30607 0.34806 0.97971 0.0
C941 C 0.36868 0.36346 -0.0025 0.0
C942 C 0.31089 0.36562 0.94607 0.0
C943 C 0.34472 0.38163 0.93783 0.0
H944 H 0.02272 0.10645 0.25542 0.0
H945 H 0.10078 0.19364 0.26688 0.0
H946 H 0.14862 0.15585 0.23792 0.0
H947 H 0.17191 0.09188 0.23409 0.0
H948 H 0.09481 0.00324 0.23071 0.0
H949 H 0.04288 0.04724 0.22933 0.0
C950 C 0.04961 0.11772 0.2495 0.0
C951 C 0.05868 0.15222 0.26352 0.0
C952 C 0.07749 0.09495 0.23487 0.0
C953 C 0.09335 0.16706 0.25599 0.0
C954 C 0.12092 0.14516 0.23999 0.0
C955 C 0.14378 0.08247 0.23062 0.0
C956 C 0.13674 0.04477 0.23386 0.0
C957 C 0.11413 0.10796 0.2328 0.0
C958 C 0.10051 0.0324 0.22902 0.0
C959 C 0.07082 0.05756 0.22886 0.0
H960 H 0.14012 0.27787 0.88109 0.0
H961 H 0.25716 0.25535 0.87126 0.0
H962 H 0.26109 0.30206 0.82365 0.0
H963 H 0.23606 0.36261 0.80298 0.0
H964 H 0.12195 0.39154 0.8241 0.0
H965 H 0.11187 0.33018 0.8491 0.0
C966 C 0.16619 0.28211 0.86735 0.0
C967 C 0.19865 0.26485 0.88118 0.0
C968 C 0.16895 0.31179 0.84311 0.0
C969 C 0.23187 0.26913 0.86206 0.0
C970 C 0.2343 0.29655 0.83531 0.0
C971 C 0.2087 0.35483 0.81175 0.0
C972 C 0.17989 0.38151 0.8124 0.0
C973 C 0.20383 0.32033 0.82842 0.0
C974 C 0.14456 0.37144 0.8239 0.0
C975 C 0.13885 0.3364 0.83824 0.0
H976 H 0.32548 0.1948 0.8754 0.0
H977 H 0.35489 0.27451 0.95669 0.0
H978 H 0.39065 0.30843 0.91186 0.0
H979 H 0.42665 0.30401 0.85518 0.0
H980 H 0.39646 0.22481 0.7735 0.0
H981 H 0.34692 0.20263 0.81226 0.0
C982 C 0.33846 0.22048 0.88269 0.0
C983 C 0.33854 0.23196 0.91904 0.0
C984 C 0.35936 0.23935 0.85694 0.0
C985 C 0.35489 0.2653 0.92865 0.0
C986 C 0.3756 0.28442 0.90315 0.0
C987 C 0.40835 0.28274 0.84551 0.0
C988 C 0.41584 0.26491 0.81245 0.0
C989 C 0.3802 0.27002 0.86803 0.0
C990 C 0.3915 0.23829 0.79934 0.0
C991 C 0.36336 0.22546 0.82157 0.0
H992 H 0.42501 0.48992 0.92874 0.0
H993 H 0.46138 0.56489 0.84612 0.0
H994 H 0.41193 0.54478 0.805 0.0
H995 H 0.35059 0.51586 0.79838 0.0
H996 H 0.31077 0.44849 0.88608 0.0
H997 H 0.36782 0.45723 0.91995 0.0
C998 C 0.42291 0.50073 0.9012 0.0
C999 C 0.44671 0.52851 0.89024 0.0
C1000 C 0.39285 0.49118 0.87899 0.0
C1001 C 0.44329 0.54321 0.85492 0.0
C1002 C 0.41481 0.53198 0.8316 0.0
C1003 C 0.35523 0.50176 0.82414 0.0
C1004 C 0.32642 0.48178 0.83981 0.0
C1005 C 0.3882 0.50739 0.84408 0.0
C1006 C 0.3325 0.46412 0.8735 0.0
C1007 C 0.36532 0.46875 0.89283 0.0
H1008 H 0.71268 0.63763 0.05875 0.0
H1009 H 0.76562 0.57031 0.97732 0.0
H1010 H 0.70855 0.53622 0.96856 0.0
H1011 H 0.64012 0.53764 0.9717 0.0
H1012 H 0.58574 0.61606 0.04232 0.0
H1013 H 0.64553 0.63536 0.06595 0.0
C1014 C 0.71191 0.61504 0.03958 0.0
C1015 C 0.74268 0.60775 0.01737 0.0
C1016 C 0.67784 0.59917 0.03115 0.0
C1017 C 0.74202 0.57692 -0.00571 0.0
C1018 C 0.70907 0.55811 0.98856 0.0
C1019 C 0.64158 0.5589 0.99234 0.0
C1020 C 0.60885 0.57631 0.0045 0.0
C1021 C 0.67619 0.57111 0.00458 0.0
C1022 C 0.61077 0.60328 0.03169 0.0
C1023 C 0.64494 0.61397 0.04556 0.0
H1024 H 0.9242 0.84933 0.75711 0.0
H1025 H 0.87502 0.74289 0.76676 0.0
H1026 H 0.81644 0.77164 0.78485 0.0
H1027 H 0.77634 0.82596 0.77219 0.0
H1028 H 0.82494 0.93229 0.75838 0.0
H1029 H 0.88657 0.90538 0.76909 0.0
C1030 C 0.90135 0.83248 0.76565 0.0
C1031 C 0.90316 0.79433 0.75954 0.0
C1032 C 0.86722 0.84947 0.77404 0.0
C1033 C 0.87383 0.77246 0.77086 0.0
C1034 C 0.8401 0.78898 0.78055 0.0
C1035 C 0.80031 0.84345 0.77377 0.0
C1036 C 0.79664 0.88063 0.76354 0.0
C1037 C 0.83569 0.82741 0.77836 0.0
C1038 C 0.8274 0.90346 0.76597 0.0
C1039 C 0.86273 0.88792 0.7715 0.0
H1040 H 0.51439 0.14485 0.67552 0.0
H1041 H 0.39561 0.15784 0.6755 0.0
H1042 H 0.38924 0.09631 0.64971 0.0
H1043 H 0.41741 0.05011 0.61059 0.0
H1044 H 0.53618 0.04413 0.59907 0.0
H1045 H 0.54302 0.09025 0.64693 0.0
C1046 C 0.4872 0.13332 0.67136 0.0
C1047 C 0.45549 0.15555 0.67672 0.0
C1048 C 0.48397 0.09943 0.65352 0.0
C1049 C 0.42027 0.14095 0.6712 0.0
C1050 C 0.41671 0.10599 0.65615 0.0
C1051 C 0.44489 0.05801 0.61929 0.0
C1052 C 0.47617 0.0451 0.60033 0.0
C1053 C 0.44836 0.08654 0.64447 0.0
C1054 C 0.51161 0.05472 0.61255 0.0
C1055 C 0.5155 0.08121 0.63976 0.0
H1056 H 0.60648 0.37359 0.76994 0.0
H1057 H 0.49015 0.39723 0.75519 0.0
H1058 H 0.49314 0.44605 0.80073 0.0
H1059 H 0.52284 0.46297 0.85876 0.0
H1060 H 0.63559 0.42769 0.88063 0.0
H1061 H 0.64057 0.40299 0.81903 0.0
C1062 C 0.5823 0.39094 0.77535 0.0
C1063 C 0.54786 0.38089 0.76071 0.0
C1064 C 0.58346 0.41575 0.80448 0.0
C1065 C 0.51686 0.40395 0.76675 0.0
C1066 C 0.51842 0.43128 0.79356 0.0
C1067 C 0.54896 0.45124 0.84947 0.0
C1068 C 0.57856 0.44622 0.87435 0.0
C1069 C 0.55061 0.43457 0.81501 0.0
C1070 C 0.61228 0.43114 0.86209 0.0
C1071 C 0.61504 0.41692 0.82691 0.0
H1072 H 0.4668 0.84484 0.36015 0.0
H1073 H 0.49742 0.87233 0.2504 0.0
H1074 H 0.52511 0.92967 0.2724 0.0
H1075 H 0.54757 0.968 0.32509 0.0
H1076 H 0.52166 0.93305 0.43357 0.0
H1077 H 0.48509 0.88299 0.40977 0.0
C1078 C 0.47907 0.8635 0.34074 0.0
C1079 C 0.48058 0.85381 0.30375 0.0
C1080 C 0.49626 0.89517 0.35367 0.0
C1081 C 0.49596 0.8789 0.2791 0.0
C1082 C 0.51224 0.9115 0.29178 0.0
C1083 C 0.53362 0.94953 0.34344 0.0
C1084 C 0.53589 0.95531 0.38149 0.0
C1085 C 0.51385 0.91924 0.32935 0.0
C1086 C 0.51827 0.93075 0.40467 0.0
C1087 C 0.49813 0.90157 0.39105 0.0
H1088 H 0.50852 0.53776 0.10207 0.0
H1089 H 0.39606 0.54099 0.06225 0.0
H1090 H 0.3767 0.5772 0.11485 0.0
H1091 H 0.39657 0.6251 0.15687 0.0
H1092 H 0.51056 0.62892 0.19132 0.0
H1093 H 0.52469 0.57259 0.15729 0.0
C1094 C 0.47948 0.5447 0.10616 0.0
C1095 C 0.45377 0.5377 0.07827 0.0
C1096 C 0.46921 0.56798 0.13502 0.0
C1097 C 0.41622 0.54659 0.08344 0.0
C1098 C 0.4053 0.56773 0.11323 0.0
C1099 C 0.42401 0.61238 0.15837 0.0
C1100 C 0.45266 0.63121 0.17569 0.0
C1101 C 0.4322 0.5814 0.13705 0.0
C1102 C 0.48813 0.61476 0.17797 0.0
C1103 C 0.4963 0.58285 0.15803 0.0
loop_
_geom_bond_atom_site_label_1
_geom_bond_atom_site_label_2
_geom_bond_distance
_geom_bond_site_symmetry_2
_ccdc_geom_bond_type
O0 Mg1 1.990 1_554 S
O0 C14 1.253 . S
Mg1 O0 1.990 1_556 S
Mg1 O4 2.180 . S
Mg1 O5 2.117 . S
Mg1 O19 2.030 1_655 S
O2 Mg3 2.068 1_654 S
O2 C14 1.269 . S
Mg3 O2 2.068 1_456 S
Mg3 O4 2.099 1_455 S
Mg3 O6 2.079 1_545 S
Mg3 O7 2.072 1_446 S
Mg3 O9 2.099 1_546 S
Mg3 O20 2.079 . S
O4 Mg1 2.180 . S
O4 Mg3 2.099 1_655 S
O4 C15 1.279 . S
O5 Mg1 2.117 . S
O5 C15 1.250 . S
O6 Mg3 2.079 1_565 S
O6 C16 1.264 . S
O7 Mg3 2.072 1_664 S
O7 C17 1.260 . S
Mg8 O9 2.180 . S
Mg8 O10 2.030 1_554 S
Mg8 O11 1.990 1_455 S
Mg8 O12 2.117 . S
O9 Mg3 2.099 1_564 S
O9 Mg8 2.180 . S
O9 C18 1.279 . S
O10 Mg8 2.030 1_556 S
O10 C16 1.248 . S
O11 Mg8 1.990 1_655 S
O11 C17 1.253 . S
O12 Mg8 2.117 . S
O12 C18 1.250 . S
C13 O19 1.248 . S
C13 O20 1.264 . S
C14 O0 1.253 . S
C14 O2 1.269 . S
C15 O4 1.279 . S
C15 O5 1.250 . S
C16 O6 1.264 . S
C16 O10 1.248 . S
C17 O7 1.260 . S
C17 O11 1.253 . S
C18 O9 1.279 . S
C18 O12 1.250 . S
O19 Mg1 2.030 1_455 S
O19 C13 1.248 . S
O20 Mg3 2.079 . S
O20 C13 1.264 . S
O21 Mg22 1.990 . S
O21 C35 1.253 . S
Mg22 O21 1.990 . S
Mg22 O25 2.180 . S
Mg22 O26 2.117 . S
Mg22 O40 2.030 1_455 S
O23 Mg24 2.072 . S
O23 C35 1.260 . S
Mg24 O23 2.072 . S
Mg24 O25 2.099 . S
Mg24 O27 2.079 1_455 S
Mg24 O28 2.072 . S
Mg24 O30 2.099 1_455 S
Mg24 O41 2.079 1_455 S
O25 Mg22 2.180 . S
O25 Mg24 2.099 . S
O25 C36 1.279 . S
O26 Mg22 2.117 . S
O26 C36 1.250 . S
O27 Mg24 2.079 1_655 S
O27 C37 1.264 . S
O28 Mg24 2.072 . S
O28 C38 1.260 . S
Mg29 O30 2.180 . S
Mg29 O31 2.030 . S
Mg29 O32 1.990 1_655 S
Mg29 O33 2.117 . S
O30 Mg24 2.099 1_655 S
O30 Mg29 2.180 . S
O30 C39 1.279 . S
O31 Mg29 2.030 . S
O31 C37 1.248 . S
O32 Mg29 1.990 1_455 S
O32 C38 1.253 . S
O33 Mg29 2.117 . S
O33 C39 1.250 . S
C34 O40 1.248 . S
C34 O41 1.264 . S
C35 O21 1.253 . S
C35 O23 1.260 . S
C36 O25 1.279 . S
C36 O26 1.250 . S
C37 O27 1.264 . S
C37 O31 1.248 . S
C38 O28 1.260 . S
C38 O32 1.253 . S
C39 O30 1.279 . S
C39 O33 1.250 . S
O40 Mg22 2.030 1_655 S
O40 C34 1.248 . S
O41 Mg24 2.079 1_655 S
O41 C34 1.264 . S
O42 Mg43 1.990 . S
O42 C56 1.253 . S
Mg43 O42 1.990 . S
Mg43 O46 2.180 . S
Mg43 O47 2.117 . S
Mg43 O61 2.030 . S
O44 Mg45 2.072 . S
O44 C56 1.260 . S
Mg45 O44 2.072 . S
Mg45 O46 2.099 . S
Mg45 O48 2.079 . S
Mg45 O49 2.072 . S
Mg45 O51 2.099 . S
Mg45 O62 2.079 . S
O46 Mg43 2.180 . S
O46 Mg45 2.099 . S
O46 C57 1.279 . S
O47 Mg43 2.117 . S
O47 C57 1.250 . S
O48 Mg45 2.079 . S
O48 C58 1.264 . S
O49 Mg45 2.072 . S
O49 C59 1.260 . S
Mg50 O51 2.180 . S
Mg50 O52 2.030 . S
Mg50 O53 1.990 . S
Mg50 O54 2.117 . S
O51 Mg45 2.099 . S
O51 Mg50 2.180 . S
O51 C60 1.279 . S
O52 Mg50 2.030 . S
O52 C58 1.248 . S
O53 Mg50 1.990 . S
O53 C59 1.253 . S
O54 Mg50 2.117 . S
O54 C60 1.250 . S
C55 O61 1.248 . S
C55 O62 1.264 . S
C56 O42 1.253 . S
C56 O44 1.260 . S
C57 O46 1.279 . S
C57 O47 1.250 . S
C58 O48 1.264 . S
C58 O52 1.248 . S
C59 O49 1.260 . S
C59 O53 1.253 . S
C60 O51 1.279 . S
C60 O54 1.250 . S
O61 Mg43 2.030 . S
O61 C55 1.248 . S
O62 Mg45 2.079 . S
O62 C55 1.264 . S
O63 Mg64 1.990 . S
O63 C77 1.253 . S
Mg64 O63 1.990 . S
Mg64 O67 2.180 . S
Mg64 O68 2.117 . S
Mg64 O82 2.030 1_565 S
O65 Mg66 2.072 1_565 S
O65 C77 1.260 . S
Mg66 O65 2.072 1_545 S
Mg66 O67 2.099 1_545 S
Mg66 O69 2.079 . S
Mg66 O70 2.072 1_545 S
Mg66 O72 2.099 . S
Mg66 O83 2.079 . S
O67 Mg64 2.180 . S
O67 Mg66 2.099 1_565 S
O67 C78 1.279 . S
O68 Mg64 2.117 . S
O68 C78 1.250 . S
O69 Mg66 2.079 . S
O69 C79 1.264 . S
O70 Mg66 2.072 1_565 S
O70 C80 1.260 . S
Mg71 O72 2.180 . S
Mg71 O73 2.030 . S
Mg71 O74 1.990 1_545 S
Mg71 O75 2.117 . S
O72 Mg66 2.099 . S
O72 Mg71 2.180 . S
O72 C81 1.279 . S
O73 Mg71 2.030 . S
O73 C79 1.248 . S
O74 Mg71 1.990 1_565 S
O74 C80 1.253 . S
O75 Mg71 2.117 . S
O75 C81 1.250 . S
C76 O82 1.248 . S
C76 O83 1.264 . S
C77 O63 1.253 . S
C77 O65 1.260 . S
C78 O67 1.279 . S
C78 O68 1.250 . S
C79 O69 1.264 . S
C79 O73 1.248 . S
C80 O70 1.260 . S
C80 O74 1.253 . S
C81 O72 1.279 . S
C81 O75 1.250 . S
O82 Mg64 2.030 1_545 S
O82 C76 1.248 . S
O83 Mg66 2.079 . S
O83 C76 1.264 . S
O84 Mg85 1.990 . S
O84 C98 1.253 . S
Mg85 O84 1.990 . S
Mg85 O88 2.180 . S
Mg85 O89 2.117 . S
Mg85 O103 2.030 . S
O86 Mg87 2.072 . S
O86 C98 1.260 . S
Mg87 O86 2.072 . S
Mg87 O88 2.099 . S
Mg87 O90 2.079 . S
Mg87 O91 2.072 . S
Mg87 O93 2.099 . S
Mg87 O104 2.079 . S
O88 Mg85 2.180 . S
O88 Mg87 2.099 . S
O88 C99 1.279 . S
O89 Mg85 2.117 . S
O89 C99 1.250 . S
O90 Mg87 2.079 . S
O90 C100 1.264 . S
O91 Mg87 2.072 . S
O91 C101 1.260 . S
Mg92 O93 2.180 . S
Mg92 O94 2.030 . S
Mg92 O95 1.990 . S
Mg92 O96 2.117 . S
O93 Mg87 2.099 . S
O93 Mg92 2.180 . S
O93 C102 1.279 . S
O94 Mg92 2.030 . S
O94 C100 1.248 . S
O95 Mg92 1.990 . S
O95 C101 1.253 . S
O96 Mg92 2.117 . S
O96 C102 1.250 . S
C97 O103 1.248 . S
C97 O104 1.264 . S
C98 O84 1.253 . S
C98 O86 1.260 . S
C99 O88 1.279 . S
C99 O89 1.250 . S
C100 O90 1.264 . S
C100 O94 1.248 . S
C101 O91 1.260 . S
C101 O95 1.253 . S
C102 O93 1.279 . S
C102 O96 1.250 . S
O103 Mg85 2.030 . S
O103 C97 1.248 . S
O104 Mg87 2.079 . S
O104 C97 1.264 . S
O105 Mg106 1.990 . S
O105 C119 1.253 . S
Mg106 O105 1.990 . S
Mg106 O109 2.180 . S
Mg106 O110 2.117 . S
Mg106 O124 2.030 . S
O107 Mg108 2.072 . S
O107 C119 1.260 . S
Mg108 O107 2.072 . S
Mg108 O109 2.099 . S
Mg108 O111 2.079 . S
Mg108 O112 2.072 . S
Mg108 O114 2.099 . S
Mg108 O125 2.079 . S
O109 Mg106 2.180 . S
O109 Mg108 2.099 . S
O109 C120 1.279 . S
O110 Mg106 2.117 . S
O110 C120 1.250 . S
O111 Mg108 2.079 . S
O111 C121 1.264 . S
O112 Mg108 2.072 . S
O112 C122 1.260 . S
Mg113 O114 2.180 . S
Mg113 O115 2.030 . S
Mg113 O116 1.990 . S
Mg113 O117 2.117 . S
O114 Mg108 2.099 . S
O114 Mg113 2.180 . S
O114 C123 1.279 . S
O115 Mg113 2.030 . S
O115 C121 1.248 . S
O116 Mg113 1.990 . S
O116 C122 1.253 . S
O117 Mg113 2.117 . S
O117 C123 1.250 . S
C118 O124 1.248 . S
C118 O125 1.264 . S
C119 O105 1.253 . S
C119 O107 1.260 . S
C120 O109 1.279 . S
C120 O110 1.250 . S
C121 O111 1.264 . S
C121 O115 1.248 . S
C122 O112 1.260 . S
C122 O116 1.253 . S
C123 O114 1.279 . S
C123 O117 1.250 . S
O124 Mg106 2.030 . S
O124 C118 1.248 . S
O125 Mg108 2.079 . S
O125 C118 1.264 . S
O126 Mg127 1.990 . S
O126 C140 1.253 . S
Mg127 O126 1.990 . S
Mg127 O130 2.180 . S
Mg127 O131 2.117 . S
Mg127 O145 2.030 . S
O128 Mg129 2.072 . S
O128 C140 1.260 . S
Mg129 O128 2.072 . S
Mg129 O130 2.099 . S
Mg129 O132 2.079 . S
Mg129 O133 2.072 . S
Mg129 O135 2.099 . S
Mg129 O146 2.079 . S
O130 Mg127 2.180 . S
O130 Mg129 2.099 . S
O130 C141 1.279 . S
O131 Mg127 2.117 . S
O131 C141 1.250 . S
O132 Mg129 2.079 . S
O132 C142 1.264 . S
O133 Mg129 2.072 . S
O133 C143 1.260 . S
Mg134 O135 2.180 . S
Mg134 O136 2.030 . S
Mg134 O137 1.990 . S
Mg134 O138 2.117 . S
O135 Mg129 2.099 . S
O135 Mg134 2.180 . S
O135 C144 1.279 . S
O136 Mg134 2.030 . S
O136 C142 1.248 . S
O137 Mg134 1.990 . S
O137 C143 1.253 . S
O138 Mg134 2.117 . S
O138 C144 1.250 . S
C139 O145 1.248 . S
C139 O146 1.264 . S
C140 O126 1.253 . S
C140 O128 1.260 . S
C141 O130 1.279 . S
C141 O131 1.250 . S
C142 O132 1.264 . S
C142 O136 1.248 . S
C143 O133 1.260 . S
C143 O137 1.253 . S
C144 O135 1.279 . S
C144 O138 1.250 . S
O145 Mg127 2.030 . S
O145 C139 1.248 . S
O146 Mg129 2.079 . S
O146 C139 1.264 . S
O147 Mg148 1.990 . S
O147 C161 1.253 . S
Mg148 O147 1.990 . S
Mg148 O151 2.180 . S
Mg148 O152 2.117 . S
Mg148 O166 2.030 . S
O149 Mg150 2.072 . S
O149 C161 1.260 . S
Mg150 O149 2.072 . S
Mg150 O151 2.099 . S
Mg150 O153 2.079 1_455 S
Mg150 O154 2.072 1_455 S
Mg150 O156 2.099 1_455 S
Mg150 O167 2.079 . S
O151 Mg148 2.180 . S
O151 Mg150 2.099 . S
O151 C162 1.279 . S
O152 Mg148 2.117 . S
O152 C162 1.250 . S
O153 Mg150 2.079 1_655 S
O153 C163 1.264 . S
O154 Mg150 2.072 1_655 S
O154 C164 1.260 . S
Mg155 O156 2.180 . S
Mg155 O157 2.030 . S
Mg155 O158 1.990 . S
Mg155 O159 2.117 . S
O156 Mg150 2.099 1_655 S
O156 Mg155 2.180 . S
O156 C165 1.279 . S
O157 Mg155 2.030 . S
O157 C163 1.248 . S
O158 Mg155 1.990 . S
O158 C164 1.253 . S
O159 Mg155 2.117 . S
O159 C165 1.250 . S
C160 O166 1.248 . S
C160 O167 1.264 . S
C161 O147 1.253 . S
C161 O149 1.260 . S
C162 O151 1.279 . S
C162 O152 1.250 . S
C163 O153 1.264 . S
C163 O157 1.248 . S
C164 O154 1.260 . S
C164 O158 1.253 . S
C165 O156 1.279 . S
C165 O159 1.250 . S
O166 Mg148 2.030 . S
O166 C160 1.248 . S
O167 Mg150 2.079 . S
O167 C160 1.264 . S
O168 Mg169 1.990 . S
O168 C182 1.253 . S
Mg169 O168 1.990 . S
Mg169 O172 2.180 . S
Mg169 O173 2.117 . S
Mg169 O187 2.030 1_554 S
O170 Mg171 2.072 1_554 S
O170 C182 1.260 . S
Mg171 O170 2.072 1_556 S
Mg171 O172 2.099 1_556 S
Mg171 O174 2.079 . S
Mg171 O175 2.072 1_556 S
Mg171 O177 2.099 . S
Mg171 O188 2.079 . S
O172 Mg169 2.180 . S
O172 Mg171 2.099 1_554 S
O172 C183 1.279 . S
O173 Mg169 2.117 . S
O173 C183 1.250 . S
O174 Mg171 2.079 . S
O174 C184 1.264 . S
O175 Mg171 2.072 1_554 S
O175 C185 1.260 . S
Mg176 O177 2.180 . S
Mg176 O178 2.030 . S
Mg176 O179 1.990 1_556 S
Mg176 O180 2.117 . S
O177 Mg171 2.099 . S
O177 Mg176 2.180 . S
O177 C186 1.279 . S
O178 Mg176 2.030 . S
O178 C184 1.248 . S
O179 Mg176 1.990 1_554 S
O179 C185 1.253 . S
O180 Mg176 2.117 . S
O180 C186 1.250 . S
C181 O187 1.248 . S
C181 O188 1.264 . S
C182 O168 1.253 . S
C182 O170 1.260 . S
C183 O172 1.279 . S
C183 O173 1.250 . S
C184 O174 1.264 . S
C184 O178 1.248 . S
C185 O175 1.260 . S
C185 O179 1.253 . S
C186 O177 1.279 . S
C186 O180 1.250 . S
O187 Mg169 2.030 1_556 S
O187 C181 1.248 . S
O188 Mg171 2.079 . S
O188 C181 1.264 . S
O189 Mg190 1.990 . S
O189 C203 1.253 . S
Mg190 O189 1.990 . S
Mg190 O193 2.180 . S
Mg190 O194 2.117 . S
Mg190 O208 2.030 1_565 S
O191 Mg192 2.068 1_565 S
O191 C203 1.269 . S
Mg192 O191 2.068 1_545 S
Mg192 O193 2.099 1_545 S
Mg192 O195 2.079 . S
Mg192 O196 2.072 1_545 S
Mg192 O198 2.099 . S
Mg192 O209 2.079 . S
O193 Mg190 2.180 . S
O193 Mg192 2.099 1_565 S
O193 C204 1.279 . S
O194 Mg190 2.117 . S
O194 C204 1.250 . S
O195 Mg192 2.079 . S
O195 C205 1.264 . S
O196 Mg192 2.072 1_565 S
O196 C206 1.260 . S
Mg197 O198 2.180 . S
Mg197 O199 2.030 . S
Mg197 O200 1.990 1_545 S
Mg197 O201 2.117 . S
O198 Mg192 2.099 . S
O198 Mg197 2.180 . S
O198 C207 1.279 . S
O199 Mg197 2.030 . S
O199 C205 1.248 . S
O200 Mg197 1.990 1_565 S
O200 C206 1.253 . S
O201 Mg197 2.117 . S
O201 C207 1.250 . S
C202 O208 1.248 . S
C202 O209 1.264 . S
C203 O189 1.253 . S
C203 O191 1.269 . S
C204 O193 1.279 . S
C204 O194 1.250 . S
C205 O195 1.264 . S
C205 O199 1.248 . S
C206 O196 1.260 . S
C206 O200 1.253 . S
C207 O198 1.279 . S
C207 O201 1.250 . S
O208 Mg190 2.030 1_545 S
O208 C202 1.248 . S
O209 Mg192 2.079 . S
O209 C202 1.264 . S
O210 Mg211 1.990 . S
O210 C224 1.253 . S
Mg211 O210 1.990 . S
Mg211 O214 2.180 . S
Mg211 O215 2.117 . S
Mg211 O229 2.030 . S
O212 Mg213 2.072 . S
O212 C224 1.260 . S
Mg213 O212 2.072 . S
Mg213 O214 2.099 . S
Mg213 O216 2.079 . S
Mg213 O217 2.072 . S
Mg213 O219 2.099 . S
Mg213 O230 2.079 . S
O214 Mg211 2.180 . S
O214 Mg213 2.099 . S
O214 C225 1.279 . S
O215 Mg211 2.117 . S
O215 C225 1.250 . S
O216 Mg213 2.079 . S
O216 C226 1.264 . S
O217 Mg213 2.072 . S
O217 C227 1.260 . S
Mg218 O219 2.180 . S
Mg218 O220 2.030 . S
Mg218 O221 1.990 . S
Mg218 O222 2.117 . S
O219 Mg213 2.099 . S
O219 Mg218 2.180 . S
O219 C228 1.279 . S
O220 Mg218 2.030 . S
O220 C226 1.248 . S
O221 Mg218 1.990 . S
O221 C227 1.253 . S
O222 Mg218 2.117 . S
O222 C228 1.250 . S
C223 O229 1.248 . S
C223 O230 1.264 . S
C224 O210 1.253 . S
C224 O212 1.260 . S
C225 O214 1.279 . S
C225 O215 1.250 . S
C226 O216 1.264 . S
C226 O220 1.248 . S
C227 O217 1.260 . S
C227 O221 1.253 . S
C228 O219 1.279 . S
C228 O222 1.250 . S
O229 Mg211 2.030 . S
O229 C223 1.248 . S
O230 Mg213 2.079 . S
O230 C223 1.264 . S
O231 Mg232 1.990 . S
O231 C245 1.253 . S
Mg232 O231 1.990 . S
Mg232 O235 2.180 . S
Mg232 O236 2.117 . S
Mg232 O250 2.030 1_455 S
O233 Mg234 2.072 . S
O233 C245 1.260 . S
Mg234 O233 2.072 . S
Mg234 O235 2.098 . S
Mg234 O237 2.079 1_455 S
Mg234 O238 2.071 . S
Mg234 O240 2.100 1_455 S
Mg234 O251 2.080 1_455 S
O235 Mg232 2.180 . S
O235 Mg234 2.098 . S
O235 C246 1.279 . S
O236 Mg232 2.117 . S
O236 C246 1.250 . S
O237 Mg234 2.079 1_655 S
O237 C247 1.264 . S
O238 Mg234 2.071 . S
O238 C248 1.260 . S
Mg239 O240 2.180 . S
Mg239 O241 2.030 . S
Mg239 O242 1.990 1_655 S
Mg239 O243 2.117 . S
O240 Mg234 2.100 1_655 S
O240 Mg239 2.180 . S
O240 C249 1.279 . S
O241 Mg239 2.030 . S
O241 C247 1.248 . S
O242 Mg239 1.990 1_455 S
O242 C248 1.253 . S
O243 Mg239 2.117 . S
O243 C249 1.250 . S
C244 O250 1.248 . S
C244 O251 1.264 . S
C245 O231 1.253 . S
C245 O233 1.260 . S
C246 O235 1.279 . S
C246 O236 1.250 . S
C247 O237 1.264 . S
C247 O241 1.248 . S
C248 O238 1.260 . S
C248 O242 1.253 . S
C249 O240 1.279 . S
C249 O243 1.250 . S
O250 Mg232 2.030 1_655 S
O250 C244 1.248 . S
O251 Mg234 2.080 1_655 S
O251 C244 1.264 . S
O252 Mg253 1.990 . S
O252 C266 1.253 . S
Mg253 O252 1.990 . S
Mg253 O256 2.180 . S
Mg253 O257 2.117 . S
Mg253 O271 2.030 . S
O254 Mg255 2.072 . S
O254 C266 1.260 . S
Mg255 O254 2.072 . S
Mg255 O256 2.099 . S
Mg255 O258 2.079 . S
Mg255 O259 2.072 . S
Mg255 O261 2.099 . S
Mg255 O272 2.079 . S
O256 Mg253 2.180 . S
O256 Mg255 2.099 . S
O256 C267 1.279 . S
O257 Mg253 2.117 . S
O257 C267 1.250 . S
O258 Mg255 2.079 . S
O258 C268 1.264 . S
O259 Mg255 2.072 . S
O259 C269 1.260 . S
Mg260 O261 2.180 . S
Mg260 O262 2.030 . S
Mg260 O263 1.990 . S
Mg260 O264 2.117 . S
O261 Mg255 2.099 . S
O261 Mg260 2.180 . S
O261 C270 1.279 . S
O262 Mg260 2.030 . S
O262 C268 1.248 . S
O263 Mg260 1.990 . S
O263 C269 1.253 . S
O264 Mg260 2.117 . S
O264 C270 1.250 . S
C265 O271 1.248 . S
C265 O272 1.264 . S
C266 O252 1.253 . S
C266 O254 1.260 . S
C267 O256 1.279 . S
C267 O257 1.250 . S
C268 O258 1.264 . S
C268 O262 1.248 . S
C269 O259 1.260 . S
C269 O263 1.253 . S
C270 O261 1.279 . S
C270 O264 1.250 . S
O271 Mg253 2.030 . S
O271 C265 1.248 . S
O272 Mg255 2.079 . S
O272 C265 1.264 . S
O273 Mg274 1.990 . S
O273 C287 1.253 . S
Mg274 O273 1.990 . S
Mg274 O277 2.180 . S
Mg274 O278 2.117 . S
Mg274 O292 2.030 1_556 S
O275 Mg276 2.072 1_556 S
O275 C287 1.260 . S
Mg276 O275 2.072 1_554 S
Mg276 O277 2.099 1_554 S
Mg276 O279 2.079 . S
Mg276 O280 2.072 1_554 S
Mg276 O282 2.099 . S
Mg276 O293 2.079 . S
O277 Mg274 2.180 . S
O277 Mg276 2.099 1_556 S
O277 C288 1.279 . S
O278 Mg274 2.117 . S
O278 C288 1.250 . S
O279 Mg276 2.079 . S
O279 C289 1.264 . S
O280 Mg276 2.072 1_556 S
O280 C290 1.260 . S
Mg281 O282 2.180 . S
Mg281 O283 2.030 . S
Mg281 O284 1.990 1_554 S
Mg281 O285 2.117 . S
O282 Mg276 2.099 . S
O282 Mg281 2.180 . S
O282 C291 1.279 . S
O283 Mg281 2.030 . S
O283 C289 1.248 . S
O284 Mg281 1.990 1_556 S
O284 C290 1.253 . S
O285 Mg281 2.117 . S
O285 C291 1.250 . S
C286 O292 1.248 . S
C286 O293 1.264 . S
C287 O273 1.253 . S
C287 O275 1.260 . S
C288 O277 1.279 . S
C288 O278 1.250 . S
C289 O279 1.264 . S
C289 O283 1.248 . S
C290 O280 1.260 . S
C290 O284 1.253 . S
C291 O282 1.279 . S
C291 O285 1.250 . S
O292 Mg274 2.030 1_554 S
O292 C286 1.248 . S
O293 Mg276 2.079 . S
O293 C286 1.264 . S
O294 Mg295 1.990 . S
O294 C308 1.253 . S
Mg295 O294 1.990 . S
Mg295 O298 2.180 . S
Mg295 O299 2.117 . S
Mg295 O313 2.030 1_545 S
O296 Mg297 2.072 1_545 S
O296 C308 1.260 . S
Mg297 O296 2.072 1_565 S
Mg297 O298 2.099 1_565 S
Mg297 O300 2.079 . S
Mg297 O301 2.072 1_565 S
Mg297 O303 2.099 . S
Mg297 O314 2.079 . S
O298 Mg295 2.180 . S
O298 Mg297 2.099 1_545 S
O298 C309 1.279 . S
O299 Mg295 2.117 . S
O299 C309 1.250 . S
O300 Mg297 2.079 . S
O300 C310 1.264 . S
O301 Mg297 2.072 1_545 S
O301 C311 1.260 . S
Mg302 O303 2.180 . S
Mg302 O304 2.030 . S
Mg302 O305 1.990 1_565 S
Mg302 O306 2.117 . S
O303 Mg297 2.099 . S
O303 Mg302 2.180 . S
O303 C312 1.279 . S
O304 Mg302 2.030 . S
O304 C310 1.248 . S
O305 Mg302 1.990 1_545 S
O305 C311 1.253 . S
O306 Mg302 2.117 . S
O306 C312 1.250 . S
C307 O313 1.248 . S
C307 O314 1.264 . S
C308 O294 1.253 . S
C308 O296 1.260 . S
C309 O298 1.279 . S
C309 O299 1.250 . S
C310 O300 1.264 . S
C310 O304 1.248 . S
C311 O301 1.260 . S
C311 O305 1.253 . S
C312 O303 1.279 . S
C312 O306 1.250 . S
O313 Mg295 2.030 1_565 S
O313 C307 1.248 . S
O314 Mg297 2.079 . S
O314 C307 1.264 . S
O315 Mg316 1.990 1_554 S
O315 C329 1.253 . S
Mg316 O315 1.990 1_556 S
Mg316 O319 2.180 . S
Mg316 O320 2.117 . S
Mg316 O334 2.030 . S
O317 Mg318 2.072 1_554 S
O317 C329 1.260 . S
Mg318 O317 2.072 1_556 S
Mg318 O319 2.099 . S
Mg318 O321 2.079 . S
Mg318 O322 2.072 1_556 S
Mg318 O324 2.099 1_556 S
Mg318 O335 2.079 . S
O319 Mg316 2.180 . S
O319 Mg318 2.099 . S
O319 C330 1.279 . S
O320 Mg316 2.117 . S
O320 C330 1.250 . S
O321 Mg318 2.079 . S
O321 C331 1.264 . S
O322 Mg318 2.072 1_554 S
O322 C332 1.260 . S
Mg323 O324 2.180 . S
Mg323 O325 2.030 1_554 S
Mg323 O326 1.990 . S
Mg323 O327 2.117 . S
O324 Mg318 2.099 1_554 S
O324 Mg323 2.180 . S
O324 C333 1.279 . S
O325 Mg323 2.030 1_556 S
O325 C331 1.248 . S
O326 Mg323 1.990 . S
O326 C332 1.253 . S
O327 Mg323 2.117 . S
O327 C333 1.250 . S
C328 O334 1.248 . S
C328 O335 1.264 . S
C329 O315 1.253 . S
C329 O317 1.260 . S
C330 O319 1.279 . S
C330 O320 1.250 . S
C331 O321 1.264 . S
C331 O325 1.248 . S
C332 O322 1.260 . S
C332 O326 1.253 . S
C333 O324 1.279 . S
C333 O327 1.250 . S
O334 Mg316 2.030 . S
O334 C328 1.248 . S
O335 Mg318 2.079 . S
O335 C328 1.264 . S
H336 C342 0.930 . S
H337 C345 0.930 . S
H338 C346 0.930 . S
H339 C347 0.930 . S
H340 C350 0.930 . S
H341 C351 0.930 . S
C342 H336 0.930 . S
C342 C343 1.355 . S
C342 C344 1.415 . S
C343 C342 1.355 . S
C343 C345 1.419 1_655 S
C344 C342 1.415 . S
C344 C349 1.421 1_655 S
C344 C351 1.409 . S
C345 H337 0.930 . S
C345 C343 1.419 1_455 S
C345 C346 1.362 . S
C346 H338 0.930 . S
C346 C345 1.362 . S
C346 C349 1.412 . S
C347 H339 0.930 . S
C347 C348 1.355 1_455 S
C347 C349 1.415 . S
C348 C347 1.355 1_655 S
C348 C350 1.419 . S
C349 C344 1.421 1_455 S
C349 C346 1.412 . S
C349 C347 1.415 . S
C350 H340 0.930 . S
C350 C348 1.419 . S
C350 C351 1.362 . S
C351 H341 0.930 . S
C351 C344 1.409 . S
C351 C350 1.362 . S
H352 C358 0.930 . S
H353 C361 0.930 . S
H354 C362 0.930 . S
H355 C363 0.930 . S
H356 C366 0.930 . S
H357 C367 0.930 . S
C358 H352 0.930 . S
C358 C359 1.355 . S
C358 C360 1.415 . S
C359 C358 1.355 . S
C359 C361 1.419 . S
C360 C358 1.415 . S
C360 C365 1.425 . S
C360 C367 1.409 . S
C361 H353 0.930 . S
C361 C359 1.419 . S
C361 C362 1.362 . S
C362 H354 0.930 . S
C362 C361 1.362 . S
C362 C365 1.409 . S
C363 H355 0.930 . S
C363 C364 1.355 . S
C363 C365 1.415 . S
C364 C363 1.355 . S
C364 C366 1.419 . S
C365 C360 1.425 . S
C365 C362 1.409 . S
C365 C363 1.415 . S
C366 H356 0.930 . S
C366 C364 1.419 . S
C366 C367 1.362 . S
C367 H357 0.930 . S
C367 C360 1.409 . S
C367 C366 1.362 . S
H368 C374 0.930 . S
H369 C377 0.930 . S
H370 C378 0.930 . S
H371 C379 0.930 . S
H372 C382 0.930 . S
H373 C383 0.930 . S
C374 H368 0.930 . S
C374 C375 1.355 . S
C374 C376 1.415 . S
C375 C374 1.355 . S
C375 C377 1.419 . S
C376 C374 1.415 . S
C376 C381 1.425 . S
C376 C383 1.409 . S
C377 H369 0.930 . S
C377 C375 1.419 . S
C377 C378 1.362 . S
C378 H370 0.930 . S
C378 C377 1.362 . S
C378 C381 1.409 . S
C379 H371 0.930 . S
C379 C380 1.355 . S
C379 C381 1.415 . S
C380 C379 1.355 . S
C380 C382 1.419 . S
C381 C376 1.425 . S
C381 C378 1.409 . S
C381 C379 1.415 . S
C382 H372 0.930 . S
C382 C380 1.419 . S
C382 C383 1.362 . S
C383 H373 0.930 . S
C383 C376 1.409 . S
C383 C382 1.362 . S
H384 C390 0.930 . S
H385 C393 0.930 . S
H386 C394 0.930 . S
H387 C395 0.930 . S
H388 C398 0.930 . S
H389 C399 0.930 . S
C390 H384 0.930 . S
C390 C391 1.355 . S
C390 C392 1.415 . S
C391 C390 1.355 . S
C391 C393 1.419 . S
C392 C390 1.415 . S
C392 C397 1.425 . S
C392 C399 1.409 . S
C393 H385 0.930 . S
C393 C391 1.419 . S
C393 C394 1.362 . S
C394 H386 0.930 . S
C394 C393 1.362 . S
C394 C397 1.409 . S
C395 H387 0.930 . S
C395 C396 1.355 . S
C395 C397 1.415 . S
C396 C395 1.355 . S
C396 C398 1.419 . S
C397 C392 1.425 . S
C397 C394 1.409 . S
C397 C395 1.415 . S
C398 H388 0.930 . S
C398 C396 1.419 . S
C398 C399 1.362 . S
C399 H389 0.930 . S
C399 C392 1.409 . S
C399 C398 1.362 . S
H400 C406 0.930 . S
H401 C409 0.930 1_545 S
H402 C410 0.930 . S
H403 C411 0.930 1_545 S
H404 C414 0.930 . S
H405 C415 0.930 . S
C406 H400 0.930 . S
C406 C407 1.355 . S
C406 C408 1.415 . S
C407 C406 1.355 . S
C407 C409 1.419 . S
C408 C406 1.415 . S
C408 C413 1.425 . S
C408 C415 1.409 . S
C409 H401 0.930 1_565 S
C409 C407 1.419 . S
C409 C410 1.362 1_565 S
C410 H402 0.930 . S
C410 C409 1.362 1_545 S
C410 C413 1.409 1_545 S
C411 H403 0.930 1_565 S
C411 C412 1.355 . S
C411 C413 1.415 . S
C412 C411 1.355 . S
C412 C414 1.419 . S
C413 C408 1.425 . S
C413 C410 1.409 1_565 S
C413 C411 1.415 . S
C414 H404 0.930 . S
C414 C412 1.419 . S
C414 C415 1.362 . S
C415 H405 0.930 . S
C415 C408 1.409 . S
C415 C414 1.362 . S
H416 C422 0.930 . S
H417 C425 0.930 . S
H418 C426 0.930 . S
H419 C427 0.930 . S
H420 C430 0.930 . S
H421 C431 0.930 . S
C422 H416 0.930 . S
C422 C423 1.355 . S
C422 C424 1.415 . S
C423 C422 1.355 . S
C423 C425 1.419 . S
C424 C422 1.415 . S
C424 C429 1.425 . S
C424 C431 1.409 . S
C425 H417 0.930 . S
C425 C423 1.419 . S
C425 C426 1.362 . S
C426 H418 0.930 . S
C426 C425 1.362 . S
C426 C429 1.409 . S
C427 H419 0.930 . S
C427 C428 1.355 . S
C427 C429 1.415 . S
C428 C427 1.355 . S
C428 C430 1.419 . S
C429 C424 1.425 . S
C429 C426 1.409 . S
C429 C427 1.415 . S
C430 H420 0.930 . S
C430 C428 1.419 . S
C430 C431 1.362 . S
C431 H421 0.930 . S
C431 C424 1.409 . S
C431 C430 1.362 . S
H432 C438 0.930 . S
H433 C441 0.930 . S
H434 C442 0.930 . S
H435 C443 0.930 . S
H436 C446 0.930 . S
H437 C447 0.930 . S
C438 H432 0.930 . S
C438 C439 1.355 . S
C438 C440 1.415 . S
C439 C438 1.355 . S
C439 C441 1.419 . S
C440 C438 1.415 . S
C440 C445 1.425 . S
C440 C447 1.409 . S
C441 H433 0.930 . S
C441 C439 1.419 . S
C441 C442 1.362 . S
C442 H434 0.930 . S
C442 C441 1.362 . S
C442 C445 1.409 . S
C443 H435 0.930 . S
C443 C444 1.355 . S
C443 C445 1.415 . S
C444 C443 1.355 . S
C444 C446 1.419 . S
C445 C440 1.425 . S
C445 C442 1.409 . S
C445 C443 1.415 . S
C446 H436 0.930 . S
C446 C444 1.419 . S
C446 C447 1.362 . S
C447 H437 0.930 . S
C447 C440 1.409 . S
C447 C446 1.362 . S
H448 C454 0.930 . S
H449 C457 0.930 . S
H450 C458 0.930 . S
H451 C459 0.930 . S
H452 C462 0.930 . S
H453 C463 0.930 . S
C454 H448 0.930 . S
C454 C455 1.355 . S
C454 C456 1.415 . S
C455 C454 1.355 . S
C455 C457 1.419 . S
C456 C454 1.415 . S
C456 C461 1.425 . S
C456 C463 1.409 . S
C457 H449 0.930 . S
C457 C455 1.419 . S
C457 C458 1.362 . S
C458 H450 0.930 . S
C458 C457 1.362 . S
C458 C461 1.409 . S
C459 H451 0.930 . S
C459 C460 1.355 . S
C459 C461 1.415 . S
C460 C459 1.355 . S
C460 C462 1.419 . S
C461 C456 1.425 . S
C461 C458 1.409 . S
C461 C459 1.415 . S
C462 H452 0.930 . S
C462 C460 1.419 . S
C462 C463 1.362 . S
C463 H453 0.930 . S
C463 C456 1.409 . S
C463 C462 1.362 . S
H464 C470 0.930 . S
H465 C473 0.930 . S
H466 C474 0.930 . S
H467 C475 0.930 . S
H468 C478 0.930 . S
H469 C479 0.930 . S
C470 H464 0.930 . S
C470 C471 1.355 . S
C470 C472 1.415 . S
C471 C470 1.355 . S
C471 C473 1.419 . S
C472 C470 1.415 . S
C472 C477 1.425 . S
C472 C479 1.409 . S
C473 H465 0.930 . S
C473 C471 1.419 . S
C473 C474 1.362 . S
C474 H466 0.930 . S
C474 C473 1.362 . S
C474 C477 1.409 . S
C475 H467 0.930 . S
C475 C476 1.355 . S
C475 C477 1.415 . S
C476 C475 1.355 . S
C476 C478 1.419 . S
C477 C472 1.425 . S
C477 C474 1.409 . S
C477 C475 1.415 . S
C478 H468 0.930 . S
C478 C476 1.419 . S
C478 C479 1.362 . S
C479 H469 0.930 . S
C479 C472 1.409 . S
C479 C478 1.362 . S
H480 C486 0.930 . S
H481 C489 0.930 . S
H482 C490 0.930 . S
H483 C491 0.930 . S
H484 C494 0.930 . S
H485 C495 0.930 . S
C486 H480 0.930 . S
C486 C487 1.355 . S
C486 C488 1.415 . S
C487 C486 1.355 . S
C487 C489 1.419 . S
C488 C486 1.415 . S
C488 C493 1.425 . S
C488 C495 1.409 . S
C489 H481 0.930 . S
C489 C487 1.419 . S
C489 C490 1.362 . S
C490 H482 0.930 . S
C490 C489 1.362 . S
C490 C493 1.409 . S
C491 H483 0.930 . S
C491 C492 1.355 . S
C491 C493 1.415 . S
C492 C491 1.355 . S
C492 C494 1.419 . S
C493 C488 1.425 . S
C493 C490 1.409 . S
C493 C491 1.415 . S
C494 H484 0.930 . S
C494 C492 1.419 . S
C494 C495 1.362 . S
C495 H485 0.930 . S
C495 C488 1.409 . S
C495 C494 1.362 . S
H496 C502 0.930 . S
H497 C505 0.930 1_545 S
H498 C506 0.930 . S
H499 C507 0.930 1_545 S
H500 C510 0.930 . S
H501 C511 0.930 . S
C502 H496 0.930 . S
C502 C503 1.355 . S
C502 C504 1.415 . S
C503 C502 1.355 . S
C503 C505 1.419 . S
C504 C502 1.415 . S
C504 C509 1.425 . S
C504 C511 1.409 . S
C505 H497 0.930 1_565 S
C505 C503 1.419 . S
C505 C506 1.362 1_565 S
C506 H498 0.930 . S
C506 C505 1.362 1_545 S
C506 C509 1.409 1_545 S
C507 H499 0.930 1_565 S
C507 C508 1.355 . S
C507 C509 1.415 . S
C508 C507 1.355 . S
C508 C510 1.419 . S
C509 C504 1.425 . S
C509 C506 1.409 1_565 S
C509 C507 1.415 . S
C510 H500 0.930 . S
C510 C508 1.419 . S
C510 C511 1.362 . S
C511 H501 0.930 . S
C511 C504 1.409 . S
C511 C510 1.362 . S
H512 C518 0.930 . S
H513 C521 0.930 . S
H514 C522 0.930 . S
H515 C523 0.930 1_655 S
H516 C526 0.930 . S
H517 C527 0.930 . S
C518 H512 0.930 . S
C518 C519 1.355 . S
C518 C520 1.415 . S
C519 C518 1.355 . S
C519 C521 1.419 1_455 S
C520 C518 1.415 . S
C520 C525 1.425 . S
C520 C527 1.409 . S
C521 H513 0.930 . S
C521 C519 1.419 1_655 S
C521 C522 1.362 . S
C522 H514 0.930 . S
C522 C521 1.362 . S
C522 C525 1.409 1_655 S
C523 H515 0.930 1_455 S
C523 C524 1.355 . S
C523 C525 1.415 . S
C524 C523 1.355 . S
C524 C526 1.419 . S
C525 C520 1.425 . S
C525 C522 1.409 1_455 S
C525 C523 1.415 . S
C526 H516 0.930 . S
C526 C524 1.419 . S
C526 C527 1.362 . S
C527 H517 0.930 . S
C527 C520 1.409 . S
C527 C526 1.362 . S
H528 C534 0.930 1_554 S
H529 C537 0.930 . S
H530 C538 0.930 . S
H531 C539 0.930 . S
H532 C542 0.930 . S
H533 C543 0.930 . S
C534 H528 0.930 1_556 S
C534 C535 1.355 . S
C534 C536 1.415 . S
C535 C534 1.355 . S
C535 C537 1.419 . S
C536 C534 1.415 . S
C536 C541 1.425 . S
C536 C543 1.409 1_556 S
C537 H529 0.930 . S
C537 C535 1.419 . S
C537 C538 1.362 . S
C538 H530 0.930 . S
C538 C537 1.362 . S
C538 C541 1.409 . S
C539 H531 0.930 . S
C539 C540 1.355 . S
C539 C541 1.415 . S
C540 C539 1.355 . S
C540 C542 1.419 1_556 S
C541 C536 1.425 . S
C541 C538 1.409 . S
C541 C539 1.415 . S
C542 H532 0.930 . S
C542 C540 1.419 1_554 S
C542 C543 1.362 . S
C543 H533 0.930 . S
C543 C536 1.409 1_554 S
C543 C542 1.362 . S
H544 C550 0.930 . S
H545 C553 0.930 . S
H546 C554 0.930 . S
H547 C555 0.930 . S
H548 C558 0.930 . S
H549 C559 0.930 . S
C550 H544 0.930 . S
C550 C551 1.355 . S
C550 C552 1.415 . S
C551 C550 1.355 . S
C551 C553 1.419 . S
C552 C550 1.415 . S
C552 C557 1.425 . S
C552 C559 1.409 . S
C553 H545 0.930 . S
C553 C551 1.419 . S
C553 C554 1.362 . S
C554 H546 0.930 . S
C554 C553 1.362 . S
C554 C557 1.409 . S
C555 H547 0.930 . S
C555 C556 1.355 . S
C555 C557 1.415 . S
C556 C555 1.355 . S
C556 C558 1.419 . S
C557 C552 1.425 . S
C557 C554 1.409 . S
C557 C555 1.415 . S
C558 H548 0.930 . S
C558 C556 1.419 . S
C558 C559 1.362 . S
C559 H549 0.930 . S
C559 C552 1.409 . S
C559 C558 1.362 . S
H560 C566 0.930 . S
H561 C569 0.930 . S
H562 C570 0.930 . S
H563 C571 0.930 . S
H564 C574 0.930 . S
H565 C575 0.930 . S
C566 H560 0.930 . S
C566 C567 1.355 . S
C566 C568 1.415 . S
C567 C566 1.355 . S
C567 C569 1.419 . S
C568 C566 1.415 . S
C568 C573 1.425 . S
C568 C575 1.409 . S
C569 H561 0.930 . S
C569 C567 1.419 . S
C569 C570 1.362 . S
C570 H562 0.930 . S
C570 C569 1.362 . S
C570 C573 1.409 . S
C571 H563 0.930 . S
C571 C572 1.355 . S
C571 C573 1.415 . S
C572 C571 1.355 . S
C572 C574 1.419 . S
C573 C568 1.425 . S
C573 C570 1.409 . S
C573 C571 1.415 . S
C574 H564 0.930 . S
C574 C572 1.419 . S
C574 C575 1.362 . S
C575 H565 0.930 . S
C575 C568 1.409 . S
C575 C574 1.362 . S
H576 C582 0.930 . S
H577 C585 0.930 . S
H578 C586 0.930 . S
H579 C587 0.930 . S
H580 C590 0.930 . S
H581 C591 0.930 . S
C582 H576 0.930 . S
C582 C583 1.355 . S
C582 C584 1.415 . S
C583 C582 1.355 . S
C583 C585 1.419 . S
C584 C582 1.415 . S
C584 C589 1.425 . S
C584 C591 1.409 . S
C585 H577 0.930 . S
C585 C583 1.419 . S
C585 C586 1.362 . S
C586 H578 0.930 . S
C586 C585 1.362 . S
C586 C589 1.409 . S
C587 H579 0.930 . S
C587 C588 1.355 . S
C587 C589 1.415 . S
C588 C587 1.355 . S
C588 C590 1.419 . S
C589 C584 1.425 . S
C589 C586 1.409 . S
C589 C587 1.415 . S
C590 H580 0.930 . S
C590 C588 1.419 . S
C590 C591 1.362 . S
C591 H581 0.930 . S
C591 C584 1.409 . S
C591 C590 1.362 . S
H592 C598 0.930 . S
H593 C601 0.930 . S
H594 C602 0.930 . S
H595 C603 0.930 . S
H596 C606 0.930 . S
H597 C607 0.930 . S
C598 H592 0.930 . S
C598 C599 1.355 . S
C598 C600 1.415 . S
C599 C598 1.355 . S
C599 C601 1.419 . S
C600 C598 1.415 . S
C600 C605 1.425 . S
C600 C607 1.409 . S
C601 H593 0.930 . S
C601 C599 1.419 . S
C601 C602 1.362 . S
C602 H594 0.930 . S
C602 C601 1.362 . S
C602 C605 1.409 . S
C603 H595 0.930 . S
C603 C604 1.355 . S
C603 C605 1.415 . S
C604 C603 1.355 . S
C604 C606 1.419 . S
C605 C600 1.425 . S
C605 C602 1.409 . S
C605 C603 1.415 . S
C606 H596 0.930 . S
C606 C604 1.419 . S
C606 C607 1.362 . S
C607 H597 0.930 . S
C607 C600 1.409 . S
C607 C606 1.362 . S
H608 C614 0.930 . S
H609 C617 0.930 . S
H610 C618 0.930 . S
H611 C619 0.930 . S
H612 C622 0.930 . S
H613 C623 0.930 . S
C614 H608 0.930 . S
C614 C615 1.355 . S
C614 C616 1.415 . S
C615 C614 1.355 . S
C615 C617 1.419 . S
C616 C614 1.415 . S
C616 C621 1.425 . S
C616 C623 1.409 . S
C617 H609 0.930 . S
C617 C615 1.419 . S
C617 C618 1.362 . S
C618 H610 0.930 . S
C618 C617 1.362 . S
C618 C621 1.409 . S
C619 H611 0.930 . S
C619 C620 1.355 . S
C619 C621 1.415 . S
C620 C619 1.355 . S
C620 C622 1.419 . S
C621 C616 1.425 . S
C621 C618 1.409 . S
C621 C619 1.415 . S
C622 H612 0.930 . S
C622 C620 1.419 . S
C622 C623 1.362 . S
C623 H613 0.930 . S
C623 C616 1.409 . S
C623 C622 1.362 . S
H624 C630 0.930 . S
H625 C633 0.930 . S
H626 C634 0.930 . S
H627 C635 0.930 . S
H628 C638 0.930 . S
H629 C639 0.930 . S
C630 H624 0.930 . S
C630 C631 1.355 . S
C630 C632 1.415 . S
C631 C630 1.355 . S
C631 C633 1.419 . S
C632 C630 1.415 . S
C632 C637 1.425 . S
C632 C639 1.409 . S
C633 H625 0.930 . S
C633 C631 1.419 . S
C633 C634 1.362 . S
C634 H626 0.930 . S
C634 C633 1.362 . S
C634 C637 1.409 . S
C635 H627 0.930 . S
C635 C636 1.355 . S
C635 C637 1.415 . S
C636 C635 1.355 . S
C636 C638 1.419 . S
C637 C632 1.425 . S
C637 C634 1.409 . S
C637 C635 1.415 . S
C638 H628 0.930 . S
C638 C636 1.419 . S
C638 C639 1.362 . S
C639 H629 0.930 . S
C639 C632 1.409 . S
C639 C638 1.362 . S
H640 C646 0.930 . S
H641 C649 0.930 . S
H642 C650 0.930 . S
H643 C651 0.930 . S
H644 C654 0.930 . S
H645 C655 0.930 . S
C646 H640 0.930 . S
C646 C647 1.355 . S
C646 C648 1.415 . S
C647 C646 1.355 . S
C647 C649 1.419 . S
C648 C646 1.415 . S
C648 C653 1.425 . S
C648 C655 1.409 . S
C649 H641 0.930 . S
C649 C647 1.419 . S
C649 C650 1.362 . S
C650 H642 0.930 . S
C650 C649 1.362 . S
C650 C653 1.409 . S
C651 H643 0.930 . S
C651 C652 1.355 . S
C651 C653 1.415 . S
C652 C651 1.355 . S
C652 C654 1.419 . S
C653 C648 1.425 . S
C653 C650 1.409 . S
C653 C651 1.415 . S
C654 H644 0.930 . S
C654 C652 1.419 . S
C654 C655 1.362 . S
C655 H645 0.930 . S
C655 C648 1.409 . S
C655 C654 1.362 . S
H656 C662 0.930 . S
H657 C665 0.930 . S
H658 C666 0.930 . S
H659 C667 0.930 . S
H660 C670 0.930 . S
H661 C671 0.930 . S
C662 H656 0.930 . S
C662 C663 1.355 . S
C662 C664 1.415 . S
C663 C662 1.355 . S
C663 C665 1.419 . S
C664 C662 1.415 . S
C664 C669 1.425 . S
C664 C671 1.409 . S
C665 H657 0.930 . S
C665 C663 1.419 . S
C665 C666 1.362 . S
C666 H658 0.930 . S
C666 C665 1.362 . S
C666 C669 1.409 . S
C667 H659 0.930 . S
C667 C668 1.355 . S
C667 C669 1.415 . S
C668 C667 1.355 . S
C668 C670 1.419 . S
C669 C664 1.425 . S
C669 C666 1.409 . S
C669 C667 1.415 . S
C670 H660 0.930 . S
C670 C668 1.419 . S
C670 C671 1.362 . S
C671 H661 0.930 . S
C671 C664 1.409 . S
C671 C670 1.362 . S
H672 C678 0.930 1_455 S
H673 C681 0.930 . S
H674 C682 0.930 . S
H675 C683 0.930 . S
H676 C686 0.942 . S
H677 C687 0.930 . S
C678 H672 0.930 1_655 S
C678 C679 1.355 . S
C678 C680 1.415 . S
C679 C678 1.355 . S
C679 C681 1.419 . S
C680 C678 1.415 . S
C680 C685 1.425 . S
C680 C687 1.409 1_655 S
C681 H673 0.930 . S
C681 C679 1.419 . S
C681 C682 1.362 . S
C682 H674 0.930 . S
C682 C681 1.362 . S
C682 C685 1.409 . S
C683 H675 0.930 . S
C683 C684 1.355 . S
C683 C685 1.415 . S
C684 C683 1.355 . S
C684 C686 1.405 1_655 S
C685 C680 1.425 . S
C685 C682 1.409 . S
C685 C683 1.415 . S
C686 H676 0.942 . S
C686 C684 1.405 1_455 S
C686 C687 1.366 . S
C687 H677 0.930 . S
C687 C680 1.409 1_455 S
C687 C686 1.366 . S
H688 C694 0.930 . S
H689 C697 0.930 . S
H690 C698 0.930 . S
H691 C699 0.930 . S
H692 C702 0.930 . S
H693 C703 0.930 . S
C694 H688 0.930 . S
C694 C695 1.355 . S
C694 C696 1.415 . S
C695 C694 1.355 . S
C695 C697 1.419 . S
C696 C694 1.415 . S
C696 C701 1.425 . S
C696 C703 1.409 . S
C697 H689 0.930 . S
C697 C695 1.419 . S
C697 C698 1.362 . S
C698 H690 0.930 . S
C698 C697 1.362 . S
C698 C701 1.409 . S
C699 H691 0.930 . S
C699 C700 1.355 . S
C699 C701 1.415 . S
C700 C699 1.355 . S
C700 C702 1.419 . S
C701 C696 1.425 . S
C701 C698 1.409 . S
C701 C699 1.415 . S
C702 H692 0.930 . S
C702 C700 1.419 . S
C702 C703 1.362 . S
C703 H693 0.930 . S
C703 C696 1.409 . S
C703 C702 1.362 . S
H704 C710 0.930 . S
H705 C713 0.930 . S
H706 C714 0.930 . S
H707 C715 0.930 . S
H708 C718 0.930 . S
H709 C719 0.930 . S
C710 H704 0.930 . S
C710 C711 1.355 . S
C710 C712 1.415 . S
C711 C710 1.355 . S
C711 C713 1.419 . S
C712 C710 1.415 . S
C712 C717 1.425 . S
C712 C719 1.409 . S
C713 H705 0.930 . S
C713 C711 1.419 . S
C713 C714 1.362 . S
C714 H706 0.930 . S
C714 C713 1.362 . S
C714 C717 1.409 . S
C715 H707 0.930 . S
C715 C716 1.355 . S
C715 C717 1.415 . S
C716 C715 1.355 . S
C716 C718 1.419 . S
C717 C712 1.425 . S
C717 C714 1.409 . S
C717 C715 1.415 . S
C718 H708 0.930 . S
C718 C716 1.419 . S
C718 C719 1.362 . S
C719 H709 0.930 . S
C719 C712 1.409 . S
C719 C718 1.362 . S
H720 C726 0.930 . S
H721 C729 0.930 . S
H722 C730 0.930 . S
H723 C731 0.930 . S
H724 C734 0.930 . S
H725 C735 0.930 . S
C726 H720 0.930 . S
C726 C727 1.355 . S
C726 C728 1.415 . S
C727 C726 1.355 . S
C727 C729 1.419 . S
C728 C726 1.415 . S
C728 C733 1.425 . S
C728 C735 1.409 . S
C729 H721 0.930 . S
C729 C727 1.419 . S
C729 C730 1.362 . S
C730 H722 0.930 . S
C730 C729 1.362 . S
C730 C733 1.409 . S
C731 H723 0.930 . S
C731 C732 1.355 . S
C731 C733 1.415 . S
C732 C731 1.355 . S
C732 C734 1.419 . S
C733 C728 1.425 . S
C733 C730 1.409 . S
C733 C731 1.415 . S
C734 H724 0.930 . S
C734 C732 1.419 . S
C734 C735 1.362 . S
C735 H725 0.930 . S
C735 C728 1.409 . S
C735 C734 1.362 . S
H736 C742 0.930 . S
H737 C745 0.930 . S
H738 C746 0.930 . S
H739 C747 0.930 . S
H740 C750 0.930 . S
H741 C751 0.930 . S
C742 H736 0.930 . S
C742 C743 1.355 . S
C742 C744 1.415 . S
C743 C742 1.355 . S
C743 C745 1.419 . S
C744 C742 1.415 . S
C744 C749 1.425 . S
C744 C751 1.409 . S
C745 H737 0.930 . S
C745 C743 1.419 . S
C745 C746 1.362 . S
C746 H738 0.930 . S
C746 C745 1.362 . S
C746 C749 1.409 . S
C747 H739 0.930 . S
C747 C748 1.355 . S
C747 C749 1.415 . S
C748 C747 1.355 . S
C748 C750 1.419 . S
C749 C744 1.425 . S
C749 C746 1.409 . S
C749 C747 1.415 . S
C750 H740 0.930 . S
C750 C748 1.419 . S
C750 C751 1.362 . S
C751 H741 0.930 . S
C751 C744 1.409 . S
C751 C750 1.362 . S
H752 C758 0.930 . S
H753 C761 0.930 . S
H754 C762 0.930 1_565 S
H755 C763 0.930 1_565 S
H756 C766 0.930 . S
H757 C767 0.930 . S
C758 H752 0.930 . S
C758 C759 1.355 . S
C758 C760 1.415 . S
C759 C758 1.355 . S
C759 C761 1.419 . S
C760 C758 1.415 . S
C760 C765 1.425 . S
C760 C767 1.409 . S
C761 H753 0.930 . S
C761 C759 1.419 . S
C761 C762 1.362 . S
C762 H754 0.930 1_545 S
C762 C761 1.362 . S
C762 C765 1.409 . S
C763 H755 0.930 1_545 S
C763 C764 1.355 . S
C763 C765 1.415 . S
C764 C763 1.355 . S
C764 C766 1.419 . S
C765 C760 1.425 . S
C765 C762 1.409 . S
C765 C763 1.415 . S
C766 H756 0.930 . S
C766 C764 1.419 . S
C766 C767 1.362 . S
C767 H757 0.930 . S
C767 C760 1.409 . S
C767 C766 1.362 . S
H768 C774 0.930 . S
H769 C777 0.930 1_556 S
H770 C778 0.931 . S
H771 C779 0.927 1_556 S
H772 C782 0.930 . S
H773 C783 0.930 . S
C774 H768 0.930 . S
C774 C775 1.355 . S
C774 C776 1.415 . S
C775 C774 1.355 . S
C775 C777 1.419 . S
C776 C774 1.415 . S
C776 C781 1.425 . S
C776 C783 1.409 . S
C777 H769 0.930 1_554 S
C777 C775 1.419 . S
C777 C778 1.362 1_554 S
C778 H770 0.931 . S
C778 C777 1.362 1_556 S
C778 C781 1.408 1_556 S
C779 H771 0.927 1_554 S
C779 C780 1.355 . S
C779 C781 1.415 . S
C780 C779 1.355 . S
C780 C782 1.419 . S
C781 C776 1.425 . S
C781 C778 1.408 1_554 S
C781 C779 1.415 . S
C782 H772 0.930 . S
C782 C780 1.419 . S
C782 C783 1.362 . S
C783 H773 0.930 . S
C783 C776 1.409 . S
C783 C782 1.362 . S
H784 C790 0.930 . S
H785 C793 0.930 . S
H786 C794 0.930 . S
H787 C795 0.930 . S
H788 C798 0.930 . S
H789 C799 0.930 . S
C790 H784 0.930 . S
C790 C791 1.355 . S
C790 C792 1.415 . S
C791 C790 1.355 . S
C791 C793 1.419 . S
C792 C790 1.415 . S
C792 C797 1.425 . S
C792 C799 1.409 . S
C793 H785 0.930 . S
C793 C791 1.419 . S
C793 C794 1.362 . S
C794 H786 0.930 . S
C794 C793 1.362 . S
C794 C797 1.409 . S
C795 H787 0.930 . S
C795 C796 1.355 . S
C795 C797 1.415 . S
C796 C795 1.355 . S
C796 C798 1.419 . S
C797 C792 1.425 . S
C797 C794 1.409 . S
C797 C795 1.415 . S
C798 H788 0.930 . S
C798 C796 1.419 . S
C798 C799 1.362 . S
C799 H789 0.930 . S
C799 C792 1.409 . S
C799 C798 1.362 . S
H800 C806 0.930 . S
H801 C809 0.930 . S
H802 C810 0.930 . S
H803 C811 0.930 . S
H804 C814 0.930 . S
H805 C815 0.930 . S
C806 H800 0.930 . S
C806 C807 1.355 . S
C806 C808 1.415 . S
C807 C806 1.355 . S
C807 C809 1.419 . S
C808 C806 1.415 . S
C808 C813 1.425 . S
C808 C815 1.409 . S
C809 H801 0.930 . S
C809 C807 1.419 . S
C809 C810 1.362 . S
C810 H802 0.930 . S
C810 C809 1.362 . S
C810 C813 1.409 . S
C811 H803 0.930 . S
C811 C812 1.355 . S
C811 C813 1.415 . S
C812 C811 1.355 . S
C812 C814 1.419 . S
C813 C808 1.425 . S
C813 C810 1.409 . S
C813 C811 1.415 . S
C814 H804 0.930 . S
C814 C812 1.419 . S
C814 C815 1.362 . S
C815 H805 0.930 . S
C815 C808 1.409 . S
C815 C814 1.362 . S
H816 C822 0.930 . S
H817 C825 0.930 . S
H818 C826 0.930 . S
H819 C827 0.930 . S
H820 C830 0.930 . S
H821 C831 0.930 . S
C822 H816 0.930 . S
C822 C823 1.355 . S
C822 C824 1.415 . S
C823 C822 1.355 . S
C823 C825 1.419 . S
C824 C822 1.415 . S
C824 C829 1.425 . S
C824 C831 1.409 . S
C825 H817 0.930 . S
C825 C823 1.419 . S
C825 C826 1.362 . S
C826 H818 0.930 . S
C826 C825 1.362 . S
C826 C829 1.409 . S
C827 H819 0.930 . S
C827 C828 1.355 . S
C827 C829 1.415 . S
C828 C827 1.355 . S
C828 C830 1.419 . S
C829 C824 1.425 . S
C829 C826 1.409 . S
C829 C827 1.415 . S
C830 H820 0.930 . S
C830 C828 1.419 . S
C830 C831 1.362 . S
C831 H821 0.930 . S
C831 C824 1.409 . S
C831 C830 1.362 . S
H832 C838 0.930 . S
H833 C841 0.930 . S
H834 C842 0.930 . S
H835 C843 0.930 . S
H836 C846 0.930 . S
H837 C847 0.930 . S
C838 H832 0.930 . S
C838 C839 1.355 . S
C838 C840 1.415 . S
C839 C838 1.355 . S
C839 C841 1.419 . S
C840 C838 1.415 . S
C840 C845 1.425 . S
C840 C847 1.409 . S
C841 H833 0.930 . S
C841 C839 1.419 . S
C841 C842 1.362 . S
C842 H834 0.930 . S
C842 C841 1.362 . S
C842 C845 1.409 . S
C843 H835 0.930 . S
C843 C844 1.355 . S
C843 C845 1.415 . S
C844 C843 1.355 . S
C844 C846 1.419 . S
C845 C840 1.425 . S
C845 C842 1.409 . S
C845 C843 1.415 . S
C846 H836 0.930 . S
C846 C844 1.419 . S
C846 C847 1.362 . S
C847 H837 0.930 . S
C847 C840 1.409 . S
C847 C846 1.362 . S
H848 C854 0.930 . S
H849 C857 0.930 . S
H850 C858 0.930 . S
H851 C859 0.930 . S
H852 C862 0.930 . S
H853 C863 0.930 . S
C854 H848 0.930 . S
C854 C855 1.355 . S
C854 C856 1.415 . S
C855 C854 1.355 . S
C855 C857 1.419 . S
C856 C854 1.415 . S
C856 C861 1.425 . S
C856 C863 1.409 . S
C857 H849 0.930 . S
C857 C855 1.419 . S
C857 C858 1.362 . S
C858 H850 0.930 . S
C858 C857 1.362 . S
C858 C861 1.409 . S
C859 H851 0.930 . S
C859 C860 1.355 . S
C859 C861 1.415 . S
C860 C859 1.355 . S
C860 C862 1.419 . S
C861 C856 1.425 . S
C861 C858 1.409 . S
C861 C859 1.415 . S
C862 H852 0.930 . S
C862 C860 1.419 . S
C862 C863 1.362 . S
C863 H853 0.930 . S
C863 C856 1.409 . S
C863 C862 1.362 . S
H864 C870 0.930 . S
H865 C873 0.930 . S
H866 C874 0.930 . S
H867 C875 0.930 . S
H868 C878 0.930 . S
H869 C879 0.930 . S
C870 H864 0.930 . S
C870 C871 1.355 . S
C870 C872 1.415 . S
C871 C870 1.355 . S
C871 C873 1.419 . S
C872 C870 1.415 . S
C872 C877 1.425 . S
C872 C879 1.409 . S
C873 H865 0.930 . S
C873 C871 1.419 . S
C873 C874 1.362 . S
C874 H866 0.930 . S
C874 C873 1.362 . S
C874 C877 1.409 . S
C875 H867 0.930 . S
C875 C876 1.355 . S
C875 C877 1.415 . S
C876 C875 1.355 . S
C876 C878 1.419 . S
C877 C872 1.425 . S
C877 C874 1.409 . S
C877 C875 1.415 . S
C878 H868 0.930 . S
C878 C876 1.419 . S
C878 C879 1.362 . S
C879 H869 0.930 . S
C879 C872 1.409 . S
C879 C878 1.362 . S
H880 C886 0.930 . S
H881 C889 0.930 . S
H882 C890 0.930 . S
H883 C891 0.930 . S
H884 C894 0.930 . S
H885 C895 0.930 . S
C886 H880 0.930 . S
C886 C887 1.355 . S
C886 C888 1.415 . S
C887 C886 1.355 . S
C887 C889 1.419 . S
C888 C886 1.415 . S
C888 C893 1.425 . S
C888 C895 1.409 . S
C889 H881 0.930 . S
C889 C887 1.419 . S
C889 C890 1.362 . S
C890 H882 0.930 . S
C890 C889 1.362 . S
C890 C893 1.409 . S
C891 H883 0.930 . S
C891 C892 1.355 . S
C891 C893 1.415 . S
C892 C891 1.355 . S
C892 C894 1.419 . S
C893 C888 1.425 . S
C893 C890 1.409 . S
C893 C891 1.415 . S
C894 H884 0.930 . S
C894 C892 1.419 . S
C894 C895 1.362 . S
C895 H885 0.930 . S
C895 C888 1.409 . S
C895 C894 1.362 . S
H896 C902 0.930 . S
H897 C905 0.930 . S
H898 C906 0.930 . S
H899 C907 0.930 . S
H900 C910 0.930 . S
H901 C911 0.930 . S
C902 H896 0.930 . S
C902 C903 1.355 . S
C902 C904 1.415 . S
C903 C902 1.355 . S
C903 C905 1.419 . S
C904 C902 1.415 . S
C904 C909 1.425 . S
C904 C911 1.409 . S
C905 H897 0.930 . S
C905 C903 1.419 . S
C905 C906 1.362 . S
C906 H898 0.930 . S
C906 C905 1.362 . S
C906 C909 1.409 . S
C907 H899 0.930 . S
C907 C908 1.355 . S
C907 C909 1.415 . S
C908 C907 1.355 . S
C908 C910 1.419 . S
C909 C904 1.425 . S
C909 C906 1.409 . S
C909 C907 1.415 . S
C910 H900 0.930 . S
C910 C908 1.419 . S
C910 C911 1.362 . S
C911 H901 0.930 . S
C911 C904 1.409 . S
C911 C910 1.362 . S
H912 C918 0.930 . S
H913 C921 0.930 . S
H914 C922 0.930 . S
H915 C923 0.930 . S
H916 C926 0.930 . S
H917 C927 0.930 . S
C918 H912 0.930 . S
C918 C919 1.355 . S
C918 C920 1.415 . S
C919 C918 1.355 . S
C919 C921 1.419 . S
C920 C918 1.415 . S
C920 C925 1.425 . S
C920 C927 1.409 . S
C921 H913 0.930 . S
C921 C919 1.419 . S
C921 C922 1.362 . S
C922 H914 0.930 . S
C922 C921 1.362 . S
C922 C925 1.409 . S
C923 H915 0.930 . S
C923 C924 1.355 . S
C923 C925 1.415 . S
C924 C923 1.355 . S
C924 C926 1.419 . S
C925 C920 1.425 . S
C925 C922 1.409 . S
C925 C923 1.415 . S
C926 H916 0.930 . S
C926 C924 1.419 . S
C926 C927 1.362 . S
C927 H917 0.930 . S
C927 C920 1.409 . S
C927 C926 1.362 . S
H928 C934 0.930 1_556 S
H929 C937 0.930 . S
H930 C938 0.930 . S
H931 C939 0.930 . S
H932 C942 0.930 . S
H933 C943 0.930 . S
C934 H928 0.930 1_554 S
C934 C935 1.355 . S
C934 C936 1.415 . S
C935 C934 1.355 . S
C935 C937 1.419 . S
C936 C934 1.415 . S
C936 C941 1.425 . S
C936 C943 1.409 1_554 S
C937 H929 0.930 . S
C937 C935 1.419 . S
C937 C938 1.362 . S
C938 H930 0.930 . S
C938 C937 1.362 . S
C938 C941 1.409 . S
C939 H931 0.930 . S
C939 C940 1.355 . S
C939 C941 1.415 . S
C940 C939 1.355 . S
C940 C942 1.419 1_554 S
C941 C936 1.425 . S
C941 C938 1.409 . S
C941 C939 1.415 . S
C942 H932 0.930 . S
C942 C940 1.419 1_556 S
C942 C943 1.362 . S
C943 H933 0.930 . S
C943 C936 1.409 1_556 S
C943 C942 1.362 . S
H944 C950 0.930 . S
H945 C953 0.930 . S
H946 C954 0.930 . S
H947 C955 0.930 . S
H948 C958 0.930 . S
H949 C959 0.930 . S
C950 H944 0.930 . S
C950 C951 1.355 . S
C950 C952 1.415 . S
C951 C950 1.355 . S
C951 C953 1.419 . S
C952 C950 1.415 . S
C952 C957 1.425 . S
C952 C959 1.409 . S
C953 H945 0.930 . S
C953 C951 1.419 . S
C953 C954 1.362 . S
C954 H946 0.930 . S
C954 C953 1.362 . S
C954 C957 1.409 . S
C955 H947 0.930 . S
C955 C956 1.355 . S
C955 C957 1.415 . S
C956 C955 1.355 . S
C956 C958 1.419 . S
C957 C952 1.425 . S
C957 C954 1.409 . S
C957 C955 1.415 . S
C958 H948 0.930 . S
C958 C956 1.419 . S
C958 C959 1.362 . S
C959 H949 0.930 . S
C959 C952 1.409 . S
C959 C958 1.362 . S
H960 C966 0.930 . S
H961 C969 0.930 . S
H962 C970 0.930 . S
H963 C971 0.930 . S
H964 C974 0.930 . S
H965 C975 0.930 . S
C966 H960 0.930 . S
C966 C967 1.355 . S
C966 C968 1.415 . S
C967 C966 1.355 . S
C967 C969 1.419 . S
C968 C966 1.415 . S
C968 C973 1.425 . S
C968 C975 1.409 . S
C969 H961 0.930 . S
C969 C967 1.419 . S
C969 C970 1.362 . S
C970 H962 0.930 . S
C970 C969 1.362 . S
C970 C973 1.409 . S
C971 H963 0.930 . S
C971 C972 1.355 . S
C971 C973 1.415 . S
C972 C971 1.355 . S
C972 C974 1.419 . S
C973 C968 1.425 . S
C973 C970 1.409 . S
C973 C971 1.415 . S
C974 H964 0.930 . S
C974 C972 1.419 . S
C974 C975 1.362 . S
C975 H965 0.930 . S
C975 C968 1.409 . S
C975 C974 1.362 . S
H976 C982 0.930 . S
H977 C985 0.930 . S
H978 C986 0.930 . S
H979 C987 0.930 . S
H980 C990 0.930 . S
H981 C991 0.930 . S
C982 H976 0.930 . S
C982 C983 1.355 . S
C982 C984 1.415 . S
C983 C982 1.355 . S
C983 C985 1.419 . S
C984 C982 1.415 . S
C984 C989 1.425 . S
C984 C991 1.409 . S
C985 H977 0.930 . S
C985 C983 1.419 . S
C985 C986 1.362 . S
C986 H978 0.930 . S
C986 C985 1.362 . S
C986 C989 1.409 . S
C987 H979 0.930 . S
C987 C988 1.355 . S
C987 C989 1.415 . S
C988 C987 1.355 . S
C988 C990 1.419 . S
C989 C984 1.425 . S
C989 C986 1.409 . S
C989 C987 1.415 . S
C990 H980 0.930 . S
C990 C988 1.419 . S
C990 C991 1.362 . S
C991 H981 0.930 . S
C991 C984 1.409 . S
C991 C990 1.362 . S
H992 C998 0.930 . S
H993 C1001 0.930 . S
H994 C1002 0.930 . S
H995 C1003 0.930 . S
H996 C1006 0.930 . S
H997 C1007 0.930 . S
C998 H992 0.930 . S
C998 C999 1.355 . S
C998 C1000 1.415 . S
C999 C998 1.355 . S
C999 C1001 1.419 . S
C1000 C998 1.415 . S
C1000 C1005 1.425 . S
C1000 C1007 1.409 . S
C1001 H993 0.930 . S
C1001 C999 1.419 . S
C1001 C1002 1.362 . S
C1002 H994 0.930 . S
C1002 C1001 1.362 . S
C1002 C1005 1.409 . S
C1003 H995 0.930 . S
C1003 C1004 1.355 . S
C1003 C1005 1.415 . S
C1004 C1003 1.355 . S
C1004 C1006 1.419 . S
C1005 C1000 1.425 . S
C1005 C1002 1.409 . S
C1005 C1003 1.415 . S
C1006 H996 0.930 . S
C1006 C1004 1.419 . S
C1006 C1007 1.362 . S
C1007 H997 0.930 . S
C1007 C1000 1.409 . S
C1007 C1006 1.362 . S
H1008 C1014 0.930 . S
H1009 C1017 0.930 . S
H1010 C1018 0.930 . S
H1011 C1019 0.930 . S
H1012 C1022 0.930 . S
H1013 C1023 0.930 . S
C1014 H1008 0.930 . S
C1014 C1015 1.355 . S
C1014 C1016 1.415 . S
C1015 C1014 1.355 . S
C1015 C1017 1.419 . S
C1016 C1014 1.415 . S
C1016 C1021 1.425 . S
C1016 C1023 1.409 . S
C1017 H1009 0.930 . S
C1017 C1015 1.419 . S
C1017 C1018 1.362 . S
C1018 H1010 0.930 . S
C1018 C1017 1.362 . S
C1018 C1021 1.409 . S
C1019 H1011 0.930 . S
C1019 C1020 1.355 . S
C1019 C1021 1.415 . S
C1020 C1019 1.355 . S
C1020 C1022 1.419 . S
C1021 C1016 1.425 . S
C1021 C1018 1.409 . S
C1021 C1019 1.415 . S
C1022 H1012 0.930 . S
C1022 C1020 1.419 . S
C1022 C1023 1.362 . S
C1023 H1013 0.930 . S
C1023 C1016 1.409 . S
C1023 C1022 1.362 . S
H1024 C1030 0.930 . S
H1025 C1033 0.930 . S
H1026 C1034 0.930 . S
H1027 C1035 0.930 . S
H1028 C1038 0.930 . S
H1029 C1039 0.930 . S
C1030 H1024 0.930 . S
C1030 C1031 1.355 . S
C1030 C1032 1.415 . S
C1031 C1030 1.355 . S
C1031 C1033 1.419 . S
C1032 C1030 1.415 . S
C1032 C1037 1.425 . S
C1032 C1039 1.409 . S
C1033 H1025 0.930 . S
C1033 C1031 1.419 . S
C1033 C1034 1.362 . S
C1034 H1026 0.930 . S
C1034 C1033 1.362 . S
C1034 C1037 1.409 . S
C1035 H1027 0.930 . S
C1035 C1036 1.355 . S
C1035 C1037 1.415 . S
C1036 C1035 1.355 . S
C1036 C1038 1.419 . S
C1037 C1032 1.425 . S
C1037 C1034 1.409 . S
C1037 C1035 1.415 . S
C1038 H1028 0.930 . S
C1038 C1036 1.419 . S
C1038 C1039 1.362 . S
C1039 H1029 0.930 . S
C1039 C1032 1.409 . S
C1039 C1038 1.362 . S
H1040 C1046 0.930 . S
H1041 C1049 0.930 . S
H1042 C1050 0.930 . S
H1043 C1051 0.930 . S
H1044 C1054 0.930 . S
H1045 C1055 0.930 . S
C1046 H1040 0.930 . S
C1046 C1047 1.355 . S
C1046 C1048 1.415 . S
C1047 C1046 1.355 . S
C1047 C1049 1.419 . S
C1048 C1046 1.415 . S
C1048 C1053 1.425 . S
C1048 C1055 1.409 . S
C1049 H1041 0.930 . S
C1049 C1047 1.419 . S
C1049 C1050 1.362 . S
C1050 H1042 0.930 . S
C1050 C1049 1.362 . S
C1050 C1053 1.409 . S
C1051 H1043 0.930 . S
C1051 C1052 1.355 . S
C1051 C1053 1.415 . S
C1052 C1051 1.355 . S
C1052 C1054 1.419 . S
C1053 C1048 1.425 . S
C1053 C1050 1.409 . S
C1053 C1051 1.415 . S
C1054 H1044 0.930 . S
C1054 C1052 1.419 . S
C1054 C1055 1.362 . S
C1055 H1045 0.930 . S
C1055 C1048 1.409 . S
C1055 C1054 1.362 . S
H1056 C1062 0.930 . S
H1057 C1065 0.930 . S
H1058 C1066 0.930 . S
H1059 C1067 0.930 . S
H1060 C1070 0.930 . S
H1061 C1071 0.930 . S
C1062 H1056 0.930 . S
C1062 C1063 1.355 . S
C1062 C1064 1.415 . S
C1063 C1062 1.355 . S
C1063 C1065 1.419 . S
C1064 C1062 1.415 . S
C1064 C1069 1.425 . S
C1064 C1071 1.409 . S
C1065 H1057 0.930 . S
C1065 C1063 1.419 . S
C1065 C1066 1.362 . S
C1066 H1058 0.930 . S
C1066 C1065 1.362 . S
C1066 C1069 1.409 . S
C1067 H1059 0.930 . S
C1067 C1068 1.355 . S
C1067 C1069 1.415 . S
C1068 C1067 1.355 . S
C1068 C1070 1.419 . S
C1069 C1064 1.425 . S
C1069 C1066 1.409 . S
C1069 C1067 1.415 . S
C1070 H1060 0.930 . S
C1070 C1068 1.419 . S
C1070 C1071 1.362 . S
C1071 H1061 0.930 . S
C1071 C1064 1.409 . S
C1071 C1070 1.362 . S
H1072 C1078 0.930 . S
H1073 C1081 0.930 . S
H1074 C1082 0.930 . S
H1075 C1083 0.930 . S
H1076 C1086 0.930 . S
H1077 C1087 0.930 . S
C1078 H1072 0.930 . S
C1078 C1079 1.355 . S
C1078 C1080 1.415 . S
C1079 C1078 1.355 . S
C1079 C1081 1.419 . S
C1080 C1078 1.415 . S
C1080 C1085 1.425 . S
C1080 C1087 1.409 . S
C1081 H1073 0.930 . S
C1081 C1079 1.419 . S
C1081 C1082 1.362 . S
C1082 H1074 0.930 . S
C1082 C1081 1.362 . S
C1082 C1085 1.409 . S
C1083 H1075 0.930 . S
C1083 C1084 1.355 . S
C1083 C1085 1.415 . S
C1084 C1083 1.355 . S
C1084 C1086 1.419 . S
C1085 C1080 1.425 . S
C1085 C1082 1.409 . S
C1085 C1083 1.415 . S
C1086 H1076 0.930 . S
C1086 C1084 1.419 . S
C1086 C1087 1.362 . S
C1087 H1077 0.930 . S
C1087 C1080 1.409 . S
C1087 C1086 1.362 . S
H1088 C1094 0.930 . S
H1089 C1097 0.930 . S
H1090 C1098 0.930 . S
H1091 C1099 0.930 . S
H1092 C1102 0.930 . S
H1093 C1103 0.930 . S
C1094 H1088 0.930 . S
C1094 C1095 1.355 . S
C1094 C1096 1.415 . S
C1095 C1094 1.355 . S
C1095 C1097 1.419 . S
C1096 C1094 1.415 . S
C1096 C1101 1.425 . S
C1096 C1103 1.409 . S
C1097 H1089 0.930 . S
C1097 C1095 1.419 . S
C1097 C1098 1.362 . S
C1098 H1090 0.930 . S
C1098 C1097 1.362 . S
C1098 C1101 1.409 . S
C1099 H1091 0.930 . S
C1099 C1100 1.355 . S
C1099 C1101 1.415 . S
C1100 C1099 1.355 . S
C1100 C1102 1.419 . S
C1101 C1096 1.425 . S
C1101 C1098 1.409 . S
C1101 C1099 1.415 . S
C1102 H1092 0.930 . S
C1102 C1100 1.419 . S
C1102 C1103 1.362 . S
C1103 H1093 0.930 . S
C1103 C1096 1.409 . S
C1103 C1102 1.362 . S
C343 C14 0.950 . S
C348 C37 1.018 . S
C359 C60 0.905 . S
C364 C34 0.925 . S
C375 C76 0.921 . S
C380 C59 1.003 . S
C391 C15 0.896 . S
C396 C79 0.989 . S
C407 C18 1.006 . S
C412 C203 0.994 . S
C423 C162 0.966 . S
C428 C35 1.013 . S
C439 C57 1.002 . S
C444 C227 1.046 . S
C455 C80 1.107 . S
C460 C288 1.000 . S
C471 C183 1.048 . S
C476 C38 1.132 . S
C487 C269 0.994 . S
C492 C55 1.033 . S
C503 C310 0.956 . S
C508 C77 1.026 . S
C519 C16 1.000 . S
C524 C245 0.949 . S
C535 C13 0.808 . S
C540 C184 0.793 . S
C551 C270 0.951 . S
C556 C99 1.064 . S
C567 C119 0.891 . S
C572 C307 0.973 . S
C583 C246 0.906 . S
C588 C144 1.013 . S
C599 C56 0.976 . S
C604 C163 0.884 . S
C615 C204 1.051 . S
C620 C102 0.942 . S
C631 C141 1.023 . S
C636 C228 1.034 . S
C647 C120 0.952 . S
C652 C248 1.062 . S
C663 C206 0.955 . S
C668 C118 1.018 . S
C679 C247 0.991 . S
C684 C165 0.983 . S
C695 C123 0.924 . S
C700 C97 0.981 . S
C711 C202 1.004 . S
C716 C185 0.914 . S
C727 C290 0.871 . S
C732 C244 0.949 . S
C743 C139 0.859 . S
C748 C122 0.920 . S
C759 C205 0.972 . S
C764 C308 0.880 . S
C775 C289 0.891 . S
C780 C17 0.963 . S
C791 C58 0.978 . S
C796 C311 0.923 . S
C807 C267 1.053 . S
C812 C39 0.979 . S
C823 C161 0.890 . S
C828 C121 0.971 . S
C839 C81 0.943 . S
C844 C225 1.038 . S
C855 C265 0.914 . S
C860 C291 0.943 . S
C871 C164 0.934 . S
C876 C268 0.968 . S
C887 C140 0.995 . S
C892 C160 1.048 . S
C903 C101 0.974 . S
C908 C286 0.959 . S
C919 C266 1.096 . S
C924 C333 0.963 . S
C935 C332 1.003 . S
C940 C182 1.016 . S
C951 C36 0.897 . S
C956 C207 1.040 . S
C967 C181 0.914 . S
C972 C143 0.957 . S
C983 C186 0.893 . S
C988 C223 0.980 . S
C999 C330 0.879 . S
C1004 C142 0.846 . S
C1015 C287 0.986 . S
C1020 C328 0.886 . S
C1031 C249 1.001 . S
C1036 C78 0.959 . S
C1047 C226 0.933 . S
C1052 C309 0.989 . S
C1063 C224 1.016 . S
C1068 C331 1.027 . S
C1079 C98 1.084 . S
C1084 C312 1.012 . S
C1095 C329 0.935 . S
C1100 C100 0.922 . S
