# Generated by pormake.
# Topology sma, (6)-cn, num edge types: 1
# Building blocks:
#     Node 0, Type 0, BuildingBlock: MIFKUJ_clean_sbu_0, # of connection points: 6
#     Node 1, Type 0, BuildingBlock: MIFKUJ_clean_sbu_0, # of connection points: 6
#     Node 2, Type 0, BuildingBlock: MIFKUJ_clean_sbu_0, # of connection points: 6
#     Edge 3, Type (0, 0), BuildingBlock: MIFKUJ_clean_linker_0, # of connection points: 2
#     Edge 4, Type (0, 0), BuildingBlock: MIFKUJ_clean_linker_0, # of connection points: 2
#     Edge 5, Type (0, 0), BuildingBlock: MIFKUJ_clean_linker_0, # of connection points: 2
#     Edge 6, Type (0, 0), BuildingBlock: MIFKUJ_clean_linker_0, # of connection points: 2
#     Edge 7, Type (0, 0), BuildingBlock: MIFKUJ_clean_linker_0, # of connection points: 2
#     Edge 8, Type (0, 0), BuildingBlock: MIFKUJ_clean_linker_0, # of connection points: 2
#     Edge 9, Type (0, 0), BuildingBlock: MIFKUJ_clean_linker_0, # of connection points: 2
#     Edge 10, Type (0, 0), BuildingBlock: MIFKUJ_clean_linker_0, # of connection points: 2
#     Edge 11, Type (0, 0), BuildingBlock: MIFKUJ_clean_linker_0, # of connection points: 2
# Relax obj value: 0.125
# Max RMSD: 0.208
# Mean RMSD: 0.203
data_MOF--net-sma--node1-MIFKUJ_clean_sbu_0--edge1-MIFKUJ_clean_linker_0
_symmetry_space_group_name_H-M    P1
_symmetry_Int_Tables_number       1
_symmetry_cell_setting            triclinic
loop_
_symmetry_equiv_pos_as_xyz
'x, y, z'
_cell_length_a     44.050814
_cell_length_b     44.215534
_cell_length_c     16.422273
_cell_angle_alpha  93.759661
_cell_angle_beta   93.465402
_cell_angle_gamma 119.91398
loop_
_atom_site_label
_atom_site_type_symbol
_atom_site_fract_x
_atom_site_fract_y
_atom_site_fract_z
_atom_type_partial_charge
Zn0 Zn 0.05989 0.53522 0.13838 0.0
Zn1 Zn 0.95267 0.46511 0.15003 0.0
C2 C 0.10159 0.50069 0.14531 0.0
O3 O 0.10184 0.50582 0.22511 0.0
C4 C 0.9128 0.49144 0.07938 0.0
O5 O 0.91029 0.46811 0.02152 0.0
O6 O 0.09123 0.58732 0.13217 0.0
O7 O 0.01032 0.51377 0.08212 0.0
O8 O 0.96674 0.46112 0.03725 0.0
C9 C 0.12252 0.59907 0.11373 0.0
O10 O 0.1319 0.5768 0.0856 0.0
O11 O 0.08378 0.50912 0.09811 0.0
C12 C 0.89125 0.41405 0.21582 0.0
O13 O 0.88897 0.44218 0.23404 0.0
O14 O 0.9176 0.41718 0.18125 0.0
O15 O 1.00129 0.48716 0.20927 0.0
O16 O 0.05185 0.53205 0.25766 0.0
O17 O 0.93114 0.49648 0.14713 0.0
C18 C 0.99707 0.48698 0.02944 0.0
C19 C 0.0195 0.51181 0.26553 0.0
Zn20 Zn 0.52424 0.06695 0.4767 0.0
Zn21 Zn 0.48521 0.95672 0.4719 0.0
C22 C 0.59313 0.12166 0.46357 0.0
O23 O 0.59009 0.12753 0.54129 0.0
C24 C 0.41926 0.90393 0.51667 0.0
O25 O 0.43994 0.89647 0.56126 0.0
O26 O 0.50146 0.09549 0.50433 0.0
O27 O 0.49203 0.01821 0.42339 0.0
O28 O 0.49368 0.9739 0.36176 0.0
C29 C 0.50477 0.11961 0.46127 0.0
O30 O 0.51909 0.12254 0.39218 0.0
O31 O 0.56726 0.09595 0.41943 0.0
C32 C 0.5209 0.92336 0.54844 0.0
O33 O 0.53074 0.9488 0.60783 0.0
O34 O 0.50255 0.92229 0.4842 0.0
O35 O 0.51471 0.00053 0.551 0.0
O36 O 0.54117 0.05815 0.58266 0.0
O37 O 0.43304 0.93132 0.47953 0.0
C38 C 0.49973 0.00515 0.36276 0.0
C39 C 0.53325 0.02779 0.60137 0.0
Zn40 Zn 0.55427 0.51081 0.82043 0.0
Zn41 Zn 0.47678 0.54175 0.81205 0.0
C42 C 0.53636 0.43721 0.83454 0.0
O43 O 0.54716 0.44709 0.91308 0.0
C44 C 0.49151 0.59809 0.72015 0.0
O45 O 0.46846 0.57098 0.66888 0.0
O46 O 0.60763 0.53756 0.83352 0.0
O47 O 0.52781 0.52942 0.763 0.0
O48 O 0.47422 0.51169 0.71267 0.0
C49 C 0.62415 0.52423 0.79967 0.0
O50 O 0.60667 0.49635 0.74576 0.0
O51 O 0.53616 0.4591 0.78847 0.0
C52 C 0.4175 0.52465 0.90442 0.0
O53 O 0.44102 0.53125 0.96629 0.0
O54 O 0.42669 0.52761 0.83214 0.0
O55 O 0.50062 0.53303 0.91275 0.0
O56 O 0.54092 0.51596 0.92728 0.0
O57 O 0.50109 0.5926 0.78962 0.0
C58 C 0.50146 0.50901 0.71218 0.0
C59 C 0.52044 0.52542 0.95633 0.0
H60 H 0.11661 0.50024 -0.01403 0.0
H61 H 0.16568 0.49642 0.93523 0.0
H62 H 0.19331 0.47778 0.17581 0.0
H63 H 0.14475 0.48234 0.22756 0.0
H64 H 0.24804 0.53125 0.12092 0.0
H65 H 0.15905 0.41374 0.00672 0.0
H66 H 0.10389 0.37006 0.92329 0.0
H67 H 0.14408 0.41967 0.7073 0.0
H68 H 0.19923 0.46405 0.78966 0.0
H69 H 0.38689 0.50463 0.04528 0.0
H70 H 0.32865 0.49286 0.07491 0.0
H71 H 0.30763 0.51176 0.82912 0.0
H72 H 0.36585 0.52275 0.79815 0.0
H73 H 0.24884 0.4584 0.87895 0.0
H74 H 0.33418 0.57589 0.9842 0.0
H75 H 0.38928 0.62327 0.06088 0.0
H76 H 0.35557 0.57818 0.28531 0.0
H77 H 0.30044 0.53021 0.20972 0.0
C78 C 0.13267 0.49461 0.0278 0.0
C79 C 0.12699 0.49195 0.11116 0.0
C80 C 0.16068 0.4923 -0.00151 0.0
C81 C 0.18321 0.48681 0.05169 0.0
C82 C 0.17633 0.48216 0.13374 0.0
C83 C 0.1485 0.48469 0.16321 0.0
C84 C 0.21599 0.48957 0.02465 0.0
C85 C 0.24808 0.5148 0.06892 0.0
C86 C 0.21621 0.46939 0.95424 0.0
C87 C 0.18318 0.44243 0.90457 0.0
C88 C 0.15603 0.41551 0.94155 0.0
C89 C 0.12476 0.3906 0.89443 0.0
C90 C 0.12043 0.39216 0.8101 0.0
C91 C 0.14743 0.41853 0.77265 0.0
C92 C 0.1787 0.44356 0.81953 0.0
C93 C 0.36984 0.50607 -0.00277 0.0
C94 C 0.38118 0.51512 0.91972 0.0
C95 C 0.33652 0.49932 0.01428 0.0
C96 C 0.31404 0.50209 0.95475 0.0
C97 C 0.3246 0.50959 0.87606 0.0
C98 C 0.35792 0.51602 0.8586 0.0
C99 C 0.28061 0.4993 0.97695 0.0
C100 C 0.2486 0.47452 0.93135 0.0
C101 C 0.28032 0.52034 0.04531 0.0
C102 C 0.31333 0.54928 0.09117 0.0
C103 C 0.33863 0.57594 0.04982 0.0
C104 C 0.36985 0.60292 0.09309 0.0
C105 C 0.37596 0.60369 0.17788 0.0
C106 C 0.35081 0.57752 0.21961 0.0
C107 C 0.31956 0.55045 0.1766 0.0
H108 H 0.40015 0.6246 0.21129 0.0
H109 H 0.09619 0.37288 0.77374 0.0
H110 H 0.60686 0.12059 0.30317 0.0
H111 H 0.66077 0.16099 0.24591 0.0
H112 H 0.7065 0.21778 0.48555 0.0
H113 H 0.65351 0.17665 0.54421 0.0
H114 H 0.68608 0.2302 0.24327 0.0
H115 H 0.79527 0.25335 0.5 0.0
H116 H 0.80744 0.21888 0.59522 0.0
H117 H 0.74104 0.12453 0.4337 0.0
H118 H 0.72889 0.15846 0.33691 0.0
H119 H 0.82956 0.39925 0.27551 0.0
H120 H 0.78105 0.34219 0.29861 0.0
H121 H 0.83824 0.29256 0.21463 0.0
H122 H 0.88743 0.35004 0.19157 0.0
H123 H 0.80845 0.26715 0.35194 0.0
H124 H 0.76992 0.28299 0.09279 0.0
H125 H 0.75694 0.31256 0.98534 0.0
H126 H 0.6814 0.31978 0.12632 0.0
H127 H 0.69436 0.29084 0.23539 0.0
C128 C 0.6286 0.14128 0.34391 0.0
C129 C 0.6259 0.14531 0.42829 0.0
C130 C 0.65925 0.16454 0.31085 0.0
C131 C 0.6876 0.19242 0.36118 0.0
C132 C 0.68516 0.19618 0.44562 0.0
C133 C 0.65469 0.17278 0.47892 0.0
C134 C 0.71855 0.21936 0.32504 0.0
C135 C 0.71283 0.23793 0.26586 0.0
C136 C 0.75346 0.22901 0.35383 0.0
C137 C 0.76098 0.20848 0.41145 0.0
C138 C 0.78341 0.22529 0.48455 0.0
C139 C 0.79028 0.20583 0.53887 0.0
C140 C 0.77496 0.16953 0.52062 0.0
C141 C 0.7528 0.15263 0.4479 0.0
C142 C 0.74587 0.17196 0.39336 0.0
C143 C 0.83198 0.37629 0.26194 0.0
C144 C 0.8624 0.37923 0.23159 0.0
C145 C 0.80405 0.3436 0.27467 0.0
C146 C 0.80578 0.31304 0.25716 0.0
C147 C 0.83631 0.31581 0.22809 0.0
C148 C 0.86435 0.34864 0.21495 0.0
C149 C 0.77581 0.27858 0.27175 0.0
C150 C 0.7817 0.25877 0.32736 0.0
C151 C 0.741 0.26706 0.23767 0.0
C152 C 0.73335 0.28494 0.17269 0.0
C153 C 0.7508 0.29119 0.10134 0.0
C154 C 0.74339 0.30779 0.04003 0.0
C155 C 0.71839 0.31807 0.04905 0.0
C156 C 0.70077 0.31181 0.11944 0.0
C157 C 0.70813 0.29529 0.18102 0.0
H158 H 0.71259 0.33081 0.00143 0.0
H159 H 0.7803 0.15452 0.56278 0.0
H160 H 0.50137 0.86503 0.44142 0.0
H161 H 0.50464 0.81306 0.46892 0.0
H162 H 0.55649 0.86215 0.71136 0.0
H163 H 0.55395 0.91463 0.6837 0.0
H164 H 0.58324 0.82292 0.64248 0.0
H165 H 0.47054 0.80766 0.68873 0.0
H166 H 0.41512 0.80746 0.65507 0.0
H167 H 0.38641 0.72871 0.45185 0.0
H168 H 0.44198 0.72887 0.48343 0.0
H169 H 0.53093 0.6605 0.81911 0.0
H170 H 0.54396 0.71894 0.78736 0.0
H171 H 0.49171 0.67547 0.54259 0.0
H172 H 0.47841 0.61723 0.57381 0.0
H173 H 0.46695 0.71334 0.61789 0.0
H174 H 0.58082 0.72833 0.57701 0.0
H175 H 0.63583 0.72856 0.61672 0.0
H176 H 0.66175 0.80744 0.81783 0.0
H177 H 0.60662 0.80732 0.78001 0.0
C178 C 0.51397 0.86505 0.50016 0.0
C179 C 0.52694 0.8938 0.56086 0.0
C180 C 0.51576 0.83528 0.51583 0.0
C181 C 0.53026 0.8335 0.5927 0.0
C182 C 0.5451 0.86291 0.65173 0.0
C183 C 0.54344 0.89281 0.63595 0.0
C184 C 0.52725 0.79997 0.61339 0.0
C185 C 0.55783 0.799 0.63792 0.0
C186 C 0.49408 0.76874 0.60709 0.0
C187 C 0.46058 0.76852 0.58799 0.0
C188 C 0.45255 0.79051 0.63644 0.0
C189 C 0.42109 0.79038 0.61779 0.0
C190 C 0.39728 0.76812 0.5513 0.0
C191 C 0.40489 0.74595 0.50329 0.0
C192 C 0.43636 0.74605 0.52155 0.0
C193 C 0.52268 0.6635 0.75817 0.0
C194 C 0.50331 0.63414 0.69927 0.0
C195 C 0.53024 0.69694 0.74003 0.0
C196 C 0.51876 0.70157 0.66258 0.0
C197 C 0.50067 0.6725 0.60286 0.0
C198 C 0.4931 0.63919 0.62088 0.0
C199 C 0.52298 0.73595 0.64526 0.0
C200 C 0.49246 0.73716 0.62204 0.0
C201 C 0.55614 0.7673 0.65365 0.0
C202 C 0.5894 0.76755 0.67615 0.0
C203 C 0.5981 0.74551 0.63011 0.0
C204 C 0.62933 0.74567 0.6522 0.0
C205 C 0.65222 0.76793 0.71989 0.0
C206 C 0.64397 0.79017 0.76548 0.0
C207 C 0.61275 0.7901 0.7437 0.0
H208 H 0.67639 0.76801 0.7369 0.0
H209 H 0.37289 0.76795 0.53713 0.0
H210 H 0.65745 0.55657 0.95277 0.0
H211 H 0.7111 0.56066 0.01756 0.0
H212 H 0.72549 0.51811 0.78863 0.0
H213 H 0.67141 0.51292 0.72459 0.0
H214 H 0.7269 0.48187 0.9073 0.0
H215 H 0.78032 0.60648 0.87716 0.0
H216 H 0.78536 0.66461 0.89891 0.0
H217 H 0.79716 0.66338 0.15994 0.0
H218 H 0.79177 0.60503 0.13971 0.0
H219 H 0.89122 0.50324 0.93387 0.0
H220 H 0.84687 0.51984 0.90659 0.0
H221 H 0.84092 0.53371 0.16634 0.0
H222 H 0.88603 0.51719 0.19452 0.0
H223 H 0.83315 0.58439 0.05946 0.0
H224 H 0.78331 0.46195 0.09094 0.0
H225 H 0.78002 0.40457 0.07024 0.0
H226 H 0.76085 0.40173 0.8096 0.0
H227 H 0.76453 0.45933 0.82868 0.0
C228 C 0.6726 0.54899 0.91573 0.0
C229 C 0.66019 0.53429 0.83362 0.0
C230 C 0.70326 0.5513 0.95292 0.0
C231 C 0.72232 0.53957 0.90812 0.0
C232 C 0.71108 0.52704 0.82469 0.0
C233 C 0.68027 0.52427 0.78795 0.0
C234 C 0.75202 0.53714 0.9487 0.0
C235 C 0.75015 0.50443 0.94005 0.0
C236 C 0.78175 0.56609 -0.00507 0.0
C237 C 0.78528 0.60126 0.00691 0.0
C238 C 0.78374 0.61851 0.93918 0.0
C239 C 0.78671 0.65151 0.95124 0.0
C240 C 0.79147 0.66763 0.03075 0.0
C241 C 0.79342 0.65084 0.09839 0.0
C242 C 0.79044 0.61783 0.08666 0.0
C243 C 0.8811 0.51056 0.98544 0.0
C244 C 0.89165 0.50845 0.06625 0.0
C245 C 0.85587 0.52018 0.96972 0.0
C246 C 0.84037 0.52753 0.03438 0.0
C247 C 0.8527 0.52815 0.11572 0.0
C248 C 0.87836 0.51869 0.13167 0.0
C249 C 0.80829 0.52962 0.0146 0.0
C250 C 0.80957 0.56191 0.0276 0.0
C251 C 0.77772 0.50024 0.97286 0.0
C252 C 0.77442 0.46507 0.96124 0.0
C253 C 0.77857 0.44917 0.02919 0.0
C254 C 0.77663 0.41661 0.01776 0.0
C255 C 0.77035 0.39959 0.93863 0.0
C256 C 0.76575 0.41498 0.87085 0.0
C257 C 0.76769 0.44755 0.88194 0.0
H258 H 0.769 0.37446 0.92982 0.0
H259 H 0.79374 0.69318 0.03996 0.0
H260 H 0.36746 0.91126 0.43609 0.0
H261 H 0.31049 0.86378 0.36945 0.0
H262 H 0.3314 0.78747 0.46928 0.0
H263 H 0.38772 0.83448 0.5378 0.0
H264 H 0.3148 0.80348 0.25758 0.0
H265 H 0.2772 0.75891 0.53574 0.0
H266 H 0.26819 0.773 0.67697 0.0
H267 H 0.20672 0.81642 0.58342 0.0
H268 H 0.21603 0.80314 0.44169 0.0
H269 H 0.19357 0.62771 0.12 0.0
H270 H 0.2388 0.68477 0.18643 0.0
H271 H 0.15946 0.71164 0.23557 0.0
H272 H 0.11353 0.65345 0.17191 0.0
H273 H 0.20149 0.72786 0.36793 0.0
H274 H 0.22109 0.75201 0.0913 0.0
H275 H 0.23021 0.74179 0.94771 0.0
H276 H 0.32529 0.7429 0.029 0.0
H277 H 0.31654 0.7527 0.17312 0.0
C278 C 0.35941 0.88441 0.44597 0.0
C279 C 0.38212 0.87661 0.49201 0.0
C280 C 0.32693 0.85739 0.40784 0.0
C281 C 0.31676 0.82229 0.41528 0.0
C282 C 0.33852 0.81448 0.46445 0.0
C283 C 0.37075 0.84143 0.50341 0.0
C284 C 0.28599 0.79373 0.3632 0.0
C285 C 0.28995 0.78679 0.28129 0.0
C286 C 0.25351 0.77293 0.3939 0.0
C287 C 0.2477 0.78051 0.47861 0.0
C288 C 0.26211 0.7718 0.54548 0.0
C289 C 0.25689 0.77957 0.62553 0.0
C290 C 0.237 0.79572 0.63919 0.0
C291 C 0.22222 0.80403 0.57278 0.0
C292 C 0.22749 0.79643 0.49265 0.0
C293 C 0.18565 0.64592 0.14339 0.0
C294 C 0.14988 0.63597 0.14066 0.0
C295 C 0.21167 0.67875 0.1812 0.0
C296 C 0.20269 0.70282 0.21529 0.0
C297 C 0.16706 0.69353 0.20973 0.0
C298 C 0.14086 0.66036 0.17288 0.0
C299 C 0.2304 0.73641 0.26183 0.0
C300 C 0.22599 0.74456 0.34295 0.0
C301 C 0.2625 0.75855 0.22985 0.0
C302 C 0.26804 0.75293 0.14311 0.0
C303 C 0.24385 0.74989 0.07859 0.0
C304 C 0.24897 0.7442 -0.00292 0.0
C305 C 0.27829 0.74166 0.97925 0.0
C306 C 0.3026 0.74489 0.04289 0.0
C307 C 0.29761 0.75059 0.1245 0.0
H308 H 0.28219 0.73722 0.91611 0.0
H309 H 0.23296 0.80168 0.70119 0.0
H310 H 0.53153 0.41572 0.67271 0.0
H311 H 0.52071 0.35928 0.6112 0.0
H312 H 0.50969 0.32185 0.85001 0.0
H313 H 0.52272 0.37937 0.91262 0.0
H314 H 0.54736 0.30285 0.7726 0.0
H315 H 0.43651 0.29563 0.69493 0.0
H316 H 0.39886 0.31709 0.63594 0.0
H317 H 0.43768 0.31746 0.40216 0.0
H318 H 0.47581 0.29631 0.45995 0.0
H319 H 0.48562 0.12731 0.61336 0.0
H320 H 0.48467 0.17826 0.6774 0.0
H321 H 0.51041 0.22705 0.45324 0.0
H322 H 0.51125 0.17613 0.38841 0.0
H323 H 0.46174 0.23776 0.52669 0.0
H324 H 0.57396 0.24836 0.6035 0.0
H325 H 0.61434 0.22979 0.66082 0.0
H326 H 0.5747 0.22514 0.89499 0.0
H327 H 0.53363 0.24312 0.83864 0.0
C328 C 0.52647 0.39544 0.71221 0.0
C329 C 0.52757 0.40198 0.79759 0.0
C330 C 0.52004 0.36297 0.67677 0.0
C331 C 0.51347 0.33584 0.72553 0.0
C332 C 0.51442 0.34224 0.81091 0.0
C333 C 0.52166 0.37508 0.84667 0.0
C334 C 0.50727 0.30145 0.68774 0.0
C335 C 0.52806 0.28827 0.71996 0.0
C336 C 0.48285 0.28284 0.61738 0.0
C337 C 0.45915 0.29456 0.58192 0.0
C338 C 0.43707 0.30036 0.63099 0.0
C339 C 0.41565 0.31247 0.59777 0.0
C340 C 0.41592 0.31869 0.5154 0.0
C341 C 0.43748 0.31262 0.46595 0.0
C342 C 0.45894 0.30049 0.49885 0.0
C343 C 0.49049 0.14859 0.57711 0.0
C344 C 0.4988 0.14776 0.49588 0.0
C345 C 0.49012 0.17777 0.61402 0.0
C346 C 0.49803 0.20665 0.57047 0.0
C347 C 0.50436 0.20508 0.48801 0.0
C348 C 0.50486 0.17596 0.45109 0.0
C349 C 0.50164 0.23926 0.61206 0.0
C350 C 0.48056 0.25213 0.58023 0.0
C351 C 0.52584 0.25767 0.68267 0.0
C352 C 0.55039 0.24665 0.71653 0.0
C353 C 0.57359 0.24302 0.66698 0.0
C354 C 0.59665 0.23267 0.69934 0.0
C355 C 0.59701 0.22618 0.78143 0.0
C356 C 0.57433 0.23009 0.83136 0.0
C357 C 0.55115 0.24036 0.79924 0.0
H358 H 0.61492 0.21822 0.80641 0.0
H359 H 0.3994 0.32817 0.48986 0.0
H360 H 0.97672 0.43432 0.90631 0.0
H361 H 0.99195 0.44442 0.76745 0.0
H362 H 0.0748 0.55008 0.85304 0.0
H363 H 0.05905 0.54062 -0.00848 0.0
H364 H 0.01841 0.54827 0.7761 0.0
H365 H 0.09137 0.50234 0.71773 0.0
H366 H 0.1136 0.46112 0.7177 0.0
H367 H 0.01887 0.38203 0.57315 0.0
H368 H 0.9957 0.42255 0.57354 0.0
H369 H 0.0457 0.57367 0.36155 0.0
H370 H 0.03428 0.57759 0.50325 0.0
H371 H 0.94545 0.47205 0.46256 0.0
H372 H 0.9571 0.46768 0.32067 0.0
H373 H 0.01253 0.48029 0.51796 0.0
H374 H 0.93949 0.52898 0.58698 0.0
H375 H 0.92097 0.5732 0.58809 0.0
H376 H 0.0219 0.65128 0.71062 0.0
H377 H 0.04125 0.60767 0.70926 0.0
C378 C 0.99928 0.45911 0.89623 0.0
C379 C 0.01557 0.48724 0.95844 0.0
C380 C 0.00832 0.46475 0.81688 0.0
C381 C 0.03368 0.49843 0.8004 0.0
C382 C 0.05476 0.52415 0.86509 0.0
C383 C 0.04553 0.51865 0.94425 0.0
C384 C 0.02916 0.50929 0.72054 0.0
C385 C 0.01796 0.53406 0.71917 0.0
C386 C 0.0278 0.49008 0.64744 0.0
C387 C 0.04171 0.46555 0.64594 0.0
C388 C 0.07513 0.47609 0.68635 0.0
C389 C 0.08793 0.45283 0.68624 0.0
C390 C 0.06765 0.41895 0.64549 0.0
C391 C 0.03456 0.4083 0.60464 0.0
C392 C 0.0216 0.43144 0.60467 0.0
C393 C 0.02266 0.55192 0.38176 0.0
C394 C 0.00355 0.51953 0.33293 0.0
C395 C 0.01567 0.55449 0.46234 0.0
C396 C 0.99024 0.52439 0.49342 0.0
C397 C 0.96574 0.4952 0.43918 0.0
C398 C 0.97273 0.49253 0.35846 0.0
C399 C 1.00018 0.51795 0.57413 0.0
C400 C 0.01297 0.49444 0.575 0.0
C401 C 0.00359 0.5388 0.64633 0.0
C402 C 0.99192 0.56506 0.64742 0.0
C403 C 0.95787 0.55564 0.61352 0.0
C404 C 0.94719 0.58059 0.61436 0.0
C405 C 0.97027 0.61504 0.64925 0.0
C406 C 0.00405 0.62459 0.68358 0.0
C407 C 0.01487 0.59974 0.68291 0.0
H408 H 0.96195 0.63431 0.6498 0.0
H409 H 0.07758 0.40097 0.64547 0.0
H410 H 0.56779 0.02291 0.36015 0.0
H411 H 0.60379 0.04816 0.24819 0.0
H412 H 0.52002 0.05879 0.12959 0.0
H413 H 0.48588 0.03705 0.24469 0.0
H414 H 0.5531 0.99668 0.11083 0.0
H415 H 0.55527 0.11258 0.09634 0.0
H416 H 0.57945 0.17585 0.12919 0.0
H417 H 0.68233 0.19518 0.08488 0.0
H418 H 0.65896 0.13146 0.05643 0.0
H419 H 0.49374 0.98693 0.71027 0.0
H420 H 0.5122 0.99053 0.85462 0.0
H421 H 0.62003 0.06318 0.81552 0.0
H422 H 0.60058 0.06183 0.67154 0.0
H423 H 0.60179 0.09055 0.92685 0.0
H424 H 0.59165 0.97692 0.89056 0.0
H425 H 0.56316 0.91448 0.83571 0.0
H426 H 0.47196 0.89195 0.95818 0.0
H427 H 0.49983 0.95409 0.01398 0.0
C428 C 0.55827 0.03276 0.31216 0.0
C429 C 0.52425 0.02793 0.30914 0.0
C430 C 0.57901 0.04773 0.24933 0.0
C431 C 0.56519 0.05657 0.18177 0.0
C432 C 0.53238 0.05458 0.1832 0.0
C433 C 0.51227 0.04096 0.24766 0.0
C434 C 0.5758 0.05211 0.10122 0.0
C435 C 0.56442 0.01728 0.07065 0.0
C436 C 0.59114 0.07917 0.05008 0.0
C437 C 0.60556 0.11686 0.07816 0.0
C438 C 0.58328 0.1299 0.09765 0.0
C439 C 0.59681 0.16602 0.11446 0.0
C440 C 0.63245 0.18952 0.10972 0.0
C441 C 0.65474 0.17693 0.08897 0.0
C442 C 0.64143 0.14078 0.07352 0.0
C443 C 0.52146 0.00289 0.73248 0.0
C444 C 0.54584 0.02441 0.68171 0.0
C445 C 0.53219 0.00454 0.81457 0.0
C446 C 0.56772 0.02664 0.84567 0.0
C447 C 0.59258 0.04589 0.79255 0.0
C448 C 0.58156 0.04523 0.71095 0.0
C449 C 0.57697 0.03476 0.93503 0.0
C450 C 0.59215 0.07007 0.96757 0.0
C451 C 0.56431 0.00805 -0.0122 0.0
C452 C 0.54802 0.97025 0.95685 0.0
C453 C 0.56557 0.95864 0.90596 0.0
C454 C 0.54947 0.92329 0.87457 0.0
C455 C 0.51574 0.89929 0.89321 0.0
C456 C 0.49813 0.91053 0.94393 0.0
C457 C 0.51417 0.94578 0.97591 0.0
H458 H 0.50326 0.87199 0.86838 0.0
H459 H 0.64272 0.2175 0.12137 0.0
H460 H 0.5586 0.50428 0.68033 0.0
H461 H 0.56412 0.47387 0.56015 0.0
H462 H 0.4541 0.43122 0.48172 0.0
H463 H 0.44671 0.45564 0.61104 0.0
H464 H 0.4889 0.41158 0.36764 0.0
H465 H 0.50523 0.53198 0.49662 0.0
H466 H 0.53247 0.58084 0.60844 0.0
H467 H 0.63065 0.58248 0.60452 0.0
H468 H 0.6041 0.53413 0.49142 0.0
H469 H 0.4617 0.48944 0.03213 0.0
H470 H 0.46164 0.47015 0.16882 0.0
H471 H 0.57519 0.53458 0.20505 0.0
H472 H 0.57494 0.55538 0.07187 0.0
H473 H 0.54931 0.53882 0.33416 0.0
H474 H 0.53203 0.44538 0.14085 0.0
H475 H 0.50305 0.40127 0.02039 0.0
H476 H 0.40844 0.34888 0.13826 0.0
H477 H 0.43651 0.39326 0.25892 0.0
C478 C 0.53482 0.48543 0.64236 0.0
C479 C 0.50235 0.48269 0.65495 0.0
C480 C 0.53799 0.46801 0.57296 0.0
C481 C 0.51026 0.45316 0.51014 0.0
C482 C 0.47629 0.44407 0.52888 0.0
C483 C 0.4723 0.45897 0.60187 0.0
C484 C 0.51865 0.46426 0.42843 0.0
C485 C 0.50267 0.4393 0.35951 0.0
C486 C 0.5367 0.50064 0.41844 0.0
C487 C 0.55254 0.52908 0.48729 0.0
C488 C 0.53259 0.54279 0.51989 0.0
C489 C 0.54793 0.57043 0.58317 0.0
C490 C 0.58317 0.58455 0.61406 0.0
C491 C 0.60331 0.57138 0.5809 0.0
C492 C 0.58819 0.54398 0.51704 0.0
C493 C 0.48626 0.50079 0.07159 0.0
C494 C 0.51829 0.52406 0.04332 0.0
C495 C 0.48636 0.48897 0.14798 0.0
C496 C 0.51853 0.5 0.1948 0.0
C497 C 0.55018 0.52542 0.16888 0.0
C498 C 0.55 0.53766 0.09378 0.0
C499 C 0.51965 0.48627 0.27266 0.0
C500 C 0.53695 0.51098 0.34089 0.0
C501 C 0.50322 0.44992 0.28081 0.0
C502 C 0.48635 0.42285 0.20882 0.0
C503 C 0.50496 0.42462 0.14096 0.0
C504 C 0.48869 0.39953 0.07258 0.0
C505 C 0.45394 0.37226 0.07156 0.0
C506 C 0.43537 0.37002 0.13908 0.0
C507 C 0.45145 0.39516 0.20752 0.0
H508 H 0.44143 0.35286 0.01849 0.0
H509 H 0.59491 0.60579 0.66339 0.0
loop_
_geom_bond_atom_site_label_1
_geom_bond_atom_site_label_2
_geom_bond_distance
_geom_bond_site_symmetry_2
_ccdc_geom_bond_type
Zn0 O6 1.969 . S
Zn0 O7 1.965 . S
Zn0 O11 2.024 . S
Zn0 O16 1.969 . S
Zn1 O8 1.969 . S
Zn1 O14 1.969 . S
Zn1 O15 1.965 . S
Zn1 O17 2.024 . S
C2 O3 1.229 . S
C2 O11 1.058 . S
O3 C2 1.229 . S
C4 O5 1.229 . S
C4 O17 1.058 . S
O5 C4 1.229 . S
O6 Zn0 1.969 . S
O6 C9 1.267 . S
O7 Zn0 1.965 . S
O7 C18 1.260 . S
O8 Zn1 1.969 . S
O8 C18 1.258 1_655 S
C9 O6 1.267 . S
C9 O10 1.228 . S
O10 C9 1.228 . S
O11 Zn0 2.024 . S
O11 C2 1.058 . S
C12 O13 1.228 . S
C12 O14 1.267 . S
O13 C12 1.228 . S
O14 Zn1 1.969 . S
O14 C12 1.267 . S
O15 Zn1 1.965 . S
O15 C19 1.260 1_655 S
O16 Zn0 1.969 . S
O16 C19 1.258 . S
O17 Zn1 2.024 . S
O17 C4 1.058 . S
C18 O7 1.260 . S
C18 O8 1.258 1_455 S
C19 O15 1.260 1_455 S
C19 O16 1.258 . S
Zn20 O26 1.969 . S
Zn20 O27 1.965 . S
Zn20 O31 2.024 . S
Zn20 O36 1.969 . S
Zn21 O28 1.969 . S
Zn21 O34 1.969 . S
Zn21 O35 1.965 . S
Zn21 O37 2.024 . S
C22 O23 1.229 . S
C22 O31 1.058 . S
O23 C22 1.229 . S
C24 O25 1.229 . S
C24 O37 1.058 . S
O25 C24 1.229 . S
O26 Zn20 1.969 . S
O26 C29 1.267 . S
O27 Zn20 1.965 . S
O27 C38 1.260 . S
O28 Zn21 1.969 . S
O28 C38 1.258 1_565 S
C29 O26 1.267 . S
C29 O30 1.228 . S
O30 C29 1.228 . S
O31 Zn20 2.024 . S
O31 C22 1.058 . S
C32 O33 1.228 . S
C32 O34 1.267 . S
O33 C32 1.228 . S
O34 Zn21 1.969 . S
O34 C32 1.267 . S
O35 Zn21 1.965 . S
O35 C39 1.260 1_565 S
O36 Zn20 1.969 . S
O36 C39 1.258 . S
O37 Zn21 2.024 . S
O37 C24 1.058 . S
C38 O27 1.260 . S
C38 O28 1.258 1_545 S
C39 O35 1.260 1_545 S
C39 O36 1.258 . S
Zn40 O46 1.969 . S
Zn40 O47 1.965 . S
Zn40 O51 2.024 . S
Zn40 O56 1.969 . S
Zn41 O48 1.969 . S
Zn41 O54 1.969 . S
Zn41 O55 1.965 . S
Zn41 O57 2.024 . S
C42 O43 1.229 . S
C42 O51 1.058 . S
O43 C42 1.229 . S
C44 O45 1.229 . S
C44 O57 1.058 . S
O45 C44 1.229 . S
O46 Zn40 1.969 . S
O46 C49 1.267 . S
O47 Zn40 1.965 . S
O47 C58 1.260 . S
O48 Zn41 1.969 . S
O48 C58 1.258 . S
C49 O46 1.267 . S
C49 O50 1.228 . S
O50 C49 1.228 . S
O51 Zn40 2.024 . S
O51 C42 1.058 . S
C52 O53 1.228 . S
C52 O54 1.267 . S
O53 C52 1.228 . S
O54 Zn41 1.969 . S
O54 C52 1.267 . S
O55 Zn41 1.965 . S
O55 C59 1.260 . S
O56 Zn40 1.969 . S
O56 C59 1.258 . S
O57 Zn41 2.024 . S
O57 C44 1.058 . S
C58 O47 1.260 . S
C58 O48 1.258 . S
C59 O55 1.260 . S
C59 O56 1.258 . S
H60 C78 0.951 . S
H61 C80 0.951 1_556 S
H62 C82 0.950 . S
H63 C83 0.950 . S
H64 C85 0.950 . S
H65 C88 0.950 1_554 S
H66 C89 0.950 . S
H67 C91 0.950 . S
H68 C92 0.950 . S
H69 C93 0.951 . S
H70 C95 0.951 1_554 S
H71 C97 0.950 . S
H72 C98 0.950 . S
H73 C100 0.950 . S
H74 C103 0.950 . S
H75 C104 0.950 . S
H76 C106 0.950 . S
H77 C107 0.950 . S
C78 H60 0.951 . S
C78 C79 1.366 . S
C78 C80 1.388 . S
C79 C78 1.366 . S
C79 C83 1.385 . S
C80 H61 0.951 1_554 S
C80 C78 1.388 . S
C80 C81 1.366 . S
C81 C80 1.366 . S
C81 C82 1.414 . S
C81 C84 1.499 . S
C82 H62 0.950 . S
C82 C81 1.414 . S
C82 C83 1.374 . S
C83 H63 0.950 . S
C83 C79 1.385 . S
C83 C82 1.374 . S
C84 C81 1.499 . S
C84 C85 1.373 . S
C84 C86 1.389 1_554 S
C85 H64 0.950 . S
C85 C84 1.373 . S
C85 C101 1.377 . S
C86 C84 1.389 1_556 S
C86 C87 1.524 . S
C86 C100 1.377 . S
C87 C86 1.524 . S
C87 C88 1.397 . S
C87 C92 1.363 . S
C88 H65 0.950 1_556 S
C88 C87 1.397 . S
C88 C89 1.334 . S
C89 H66 0.950 . S
C89 C88 1.334 . S
C89 C90 1.287 . S
C90 C89 1.287 . S
C90 C91 1.524 . S
C90 H109 0.913 . S
C91 H67 0.950 . S
C91 C90 1.524 . S
C91 C92 1.415 . S
C92 H68 0.950 . S
C92 C87 1.363 . S
C92 C91 1.415 . S
C93 H69 0.951 . S
C93 C94 1.366 . S
C93 C95 1.388 . S
C94 C93 1.366 . S
C94 C98 1.385 . S
C95 H70 0.951 1_556 S
C95 C93 1.388 . S
C95 C96 1.366 . S
C96 C95 1.366 . S
C96 C97 1.414 . S
C96 C99 1.499 . S
C97 H71 0.950 . S
C97 C96 1.414 . S
C97 C98 1.374 . S
C98 H72 0.950 . S
C98 C94 1.385 . S
C98 C97 1.374 . S
C99 C96 1.499 . S
C99 C100 1.373 . S
C99 C101 1.389 1_556 S
C100 H73 0.950 . S
C100 C86 1.377 . S
C100 C99 1.373 . S
C101 C85 1.377 . S
C101 C99 1.389 1_554 S
C101 C102 1.524 . S
C102 C101 1.524 . S
C102 C103 1.397 . S
C102 C107 1.363 . S
C103 H74 0.950 . S
C103 C102 1.397 . S
C103 C104 1.334 . S
C104 H75 0.950 . S
C104 C103 1.334 . S
C104 C105 1.287 . S
C105 C104 1.287 . S
C105 C106 1.524 . S
C105 H108 0.999 . S
C106 H76 0.950 . S
C106 C105 1.524 . S
C106 C107 1.415 . S
C107 H77 0.950 . S
C107 C102 1.363 . S
C107 C106 1.415 . S
H108 C105 0.999 . S
H109 C90 0.913 . S
H110 C128 0.951 . S
H111 C130 0.951 . S
H112 C132 0.950 . S
H113 C133 0.950 . S
H114 C135 0.950 . S
H115 C138 0.950 . S
H116 C139 0.950 . S
H117 C141 0.950 . S
H118 C142 0.950 . S
H119 C143 0.951 . S
H120 C145 0.951 . S
H121 C147 0.950 . S
H122 C148 0.950 . S
H123 C150 0.950 . S
H124 C153 0.950 . S
H125 C154 0.950 . S
H126 C156 0.950 . S
H127 C157 0.950 . S
C128 H110 0.951 . S
C128 C129 1.366 . S
C128 C130 1.388 . S
C129 C128 1.366 . S
C129 C133 1.385 . S
C130 H111 0.951 . S
C130 C128 1.388 . S
C130 C131 1.366 . S
C131 C130 1.366 . S
C131 C132 1.414 . S
C131 C134 1.499 . S
C132 H112 0.950 . S
C132 C131 1.414 . S
C132 C133 1.374 . S
C133 H113 0.950 . S
C133 C129 1.385 . S
C133 C132 1.374 . S
C134 C131 1.499 . S
C134 C135 1.373 . S
C134 C136 1.389 . S
C135 H114 0.950 . S
C135 C134 1.373 . S
C135 C151 1.377 . S
C136 C134 1.389 . S
C136 C137 1.524 . S
C136 C150 1.377 . S
C137 C136 1.524 . S
C137 C138 1.397 . S
C137 C142 1.363 . S
C138 H115 0.950 . S
C138 C137 1.397 . S
C138 C139 1.334 . S
C139 H116 0.950 . S
C139 C138 1.334 . S
C139 C140 1.287 . S
C140 C139 1.287 . S
C140 C141 1.524 . S
C140 H159 0.913 . S
C141 H117 0.950 . S
C141 C140 1.524 . S
C141 C142 1.415 . S
C142 H118 0.950 . S
C142 C137 1.363 . S
C142 C141 1.415 . S
C143 H119 0.951 . S
C143 C144 1.366 . S
C143 C145 1.388 . S
C144 C143 1.366 . S
C144 C148 1.385 . S
C145 H120 0.951 . S
C145 C143 1.388 . S
C145 C146 1.366 . S
C146 C145 1.366 . S
C146 C147 1.414 . S
C146 C149 1.499 . S
C147 H121 0.950 . S
C147 C146 1.414 . S
C147 C148 1.374 . S
C148 H122 0.950 . S
C148 C144 1.385 . S
C148 C147 1.374 . S
C149 C146 1.499 . S
C149 C150 1.373 . S
C149 C151 1.389 . S
C150 H123 0.950 . S
C150 C136 1.377 . S
C150 C149 1.373 . S
C151 C135 1.377 . S
C151 C149 1.389 . S
C151 C152 1.524 . S
C152 C151 1.524 . S
C152 C153 1.397 . S
C152 C157 1.363 . S
C153 H124 0.950 . S
C153 C152 1.397 . S
C153 C154 1.334 . S
C154 H125 0.950 . S
C154 C153 1.334 . S
C154 C155 1.287 . S
C155 C154 1.287 . S
C155 C156 1.524 . S
C155 H158 0.999 . S
C156 H126 0.950 . S
C156 C155 1.524 . S
C156 C157 1.415 . S
C157 H127 0.950 . S
C157 C152 1.363 . S
C157 C156 1.415 . S
H158 C155 0.999 . S
H159 C140 0.913 . S
H160 C178 0.951 . S
H161 C180 0.951 . S
H162 C182 0.950 . S
H163 C183 0.950 . S
H164 C185 0.950 . S
H165 C188 0.950 . S
H166 C189 0.950 . S
H167 C191 0.950 . S
H168 C192 0.950 . S
H169 C193 0.951 . S
H170 C195 0.951 . S
H171 C197 0.950 . S
H172 C198 0.950 . S
H173 C200 0.950 . S
H174 C203 0.950 . S
H175 C204 0.950 . S
H176 C206 0.950 . S
H177 C207 0.950 . S
C178 H160 0.951 . S
C178 C179 1.366 . S
C178 C180 1.388 . S
C179 C178 1.366 . S
C179 C183 1.385 . S
C180 H161 0.951 . S
C180 C178 1.388 . S
C180 C181 1.366 . S
C181 C180 1.366 . S
C181 C182 1.414 . S
C181 C184 1.499 . S
C182 H162 0.950 . S
C182 C181 1.414 . S
C182 C183 1.374 . S
C183 H163 0.950 . S
C183 C179 1.385 . S
C183 C182 1.374 . S
C184 C181 1.499 . S
C184 C185 1.373 . S
C184 C186 1.389 . S
C185 H164 0.950 . S
C185 C184 1.373 . S
C185 C201 1.377 . S
C186 C184 1.389 . S
C186 C187 1.524 . S
C186 C200 1.377 . S
C187 C186 1.524 . S
C187 C188 1.397 . S
C187 C192 1.363 . S
C188 H165 0.950 . S
C188 C187 1.397 . S
C188 C189 1.334 . S
C189 H166 0.950 . S
C189 C188 1.334 . S
C189 C190 1.287 . S
C190 C189 1.287 . S
C190 C191 1.524 . S
C190 H209 0.913 . S
C191 H167 0.950 . S
C191 C190 1.524 . S
C191 C192 1.415 . S
C192 H168 0.950 . S
C192 C187 1.363 . S
C192 C191 1.415 . S
C193 H169 0.951 . S
C193 C194 1.366 . S
C193 C195 1.388 . S
C194 C193 1.366 . S
C194 C198 1.385 . S
C195 H170 0.951 . S
C195 C193 1.388 . S
C195 C196 1.366 . S
C196 C195 1.366 . S
C196 C197 1.414 . S
C196 C199 1.499 . S
C197 H171 0.950 . S
C197 C196 1.414 . S
C197 C198 1.374 . S
C198 H172 0.950 . S
C198 C194 1.385 . S
C198 C197 1.374 . S
C199 C196 1.499 . S
C199 C200 1.373 . S
C199 C201 1.389 . S
C200 H173 0.950 . S
C200 C186 1.377 . S
C200 C199 1.373 . S
C201 C185 1.377 . S
C201 C199 1.389 . S
C201 C202 1.524 . S
C202 C201 1.524 . S
C202 C203 1.397 . S
C202 C207 1.363 . S
C203 H174 0.950 . S
C203 C202 1.397 . S
C203 C204 1.334 . S
C204 H175 0.950 . S
C204 C203 1.334 . S
C204 C205 1.287 . S
C205 C204 1.287 . S
C205 C206 1.524 . S
C205 H208 0.999 . S
C206 H176 0.950 . S
C206 C205 1.524 . S
C206 C207 1.415 . S
C207 H177 0.950 . S
C207 C202 1.363 . S
C207 C206 1.415 . S
H208 C205 0.999 . S
H209 C190 0.913 . S
H210 C228 0.951 . S
H211 C230 0.951 1_554 S
H212 C232 0.950 . S
H213 C233 0.950 . S
H214 C235 0.950 . S
H215 C238 0.950 . S
H216 C239 0.950 . S
H217 C241 0.950 . S
H218 C242 0.950 . S
H219 C243 0.951 . S
H220 C245 0.951 1_556 S
H221 C247 0.950 . S
H222 C248 0.950 . S
H223 C250 0.950 . S
H224 C253 0.950 . S
H225 C254 0.950 . S
H226 C256 0.950 . S
H227 C257 0.950 . S
C228 H210 0.951 . S
C228 C229 1.366 . S
C228 C230 1.388 . S
C229 C228 1.366 . S
C229 C233 1.385 . S
C230 H211 0.951 1_556 S
C230 C228 1.388 . S
C230 C231 1.366 . S
C231 C230 1.366 . S
C231 C232 1.414 . S
C231 C234 1.499 . S
C232 H212 0.950 . S
C232 C231 1.414 . S
C232 C233 1.374 . S
C233 H213 0.950 . S
C233 C229 1.385 . S
C233 C232 1.374 . S
C234 C231 1.499 . S
C234 C235 1.373 . S
C234 C236 1.389 1_556 S
C235 H214 0.950 . S
C235 C234 1.373 . S
C235 C251 1.377 . S
C236 C234 1.389 1_554 S
C236 C237 1.524 . S
C236 C250 1.377 . S
C237 C236 1.524 . S
C237 C238 1.397 1_554 S
C237 C242 1.363 . S
C238 H215 0.950 . S
C238 C237 1.397 1_556 S
C238 C239 1.334 . S
C239 H216 0.950 . S
C239 C238 1.334 . S
C239 C240 1.287 1_556 S
C240 C239 1.287 1_554 S
C240 C241 1.524 . S
C240 H259 0.913 . S
C241 H217 0.950 . S
C241 C240 1.524 . S
C241 C242 1.415 . S
C242 H218 0.950 . S
C242 C237 1.363 . S
C242 C241 1.415 . S
C243 H219 0.951 . S
C243 C244 1.366 . S
C243 C245 1.388 . S
C244 C243 1.366 . S
C244 C248 1.385 . S
C245 H220 0.951 1_554 S
C245 C243 1.388 . S
C245 C246 1.366 . S
C246 C245 1.366 . S
C246 C247 1.414 . S
C246 C249 1.499 . S
C247 H221 0.950 . S
C247 C246 1.414 . S
C247 C248 1.374 . S
C248 H222 0.950 . S
C248 C244 1.385 . S
C248 C247 1.374 . S
C249 C246 1.499 . S
C249 C250 1.373 . S
C249 C251 1.389 1_554 S
C250 H223 0.950 . S
C250 C236 1.377 . S
C250 C249 1.373 . S
C251 C235 1.377 . S
C251 C249 1.389 1_556 S
C251 C252 1.524 . S
C252 C251 1.524 . S
C252 C253 1.397 1_556 S
C252 C257 1.363 . S
C253 H224 0.950 . S
C253 C252 1.397 1_554 S
C253 C254 1.334 . S
C254 H225 0.950 . S
C254 C253 1.334 . S
C254 C255 1.287 1_554 S
C255 C254 1.287 1_556 S
C255 C256 1.524 . S
C255 H258 0.999 . S
C256 H226 0.950 . S
C256 C255 1.524 . S
C256 C257 1.415 . S
C257 H227 0.950 . S
C257 C252 1.363 . S
C257 C256 1.415 . S
H258 C255 0.999 . S
H259 C240 0.913 . S
H260 C278 0.951 . S
H261 C280 0.951 . S
H262 C282 0.950 . S
H263 C283 0.950 . S
H264 C285 0.950 . S
H265 C288 0.950 . S
H266 C289 0.950 . S
H267 C291 0.950 . S
H268 C292 0.950 . S
H269 C293 0.951 . S
H270 C295 0.951 . S
H271 C297 0.950 . S
H272 C298 0.950 . S
H273 C300 0.950 . S
H274 C303 0.950 . S
H275 C304 0.950 1_556 S
H276 C306 0.950 . S
H277 C307 0.950 . S
C278 H260 0.951 . S
C278 C279 1.366 . S
C278 C280 1.388 . S
C279 C278 1.366 . S
C279 C283 1.385 . S
C280 H261 0.951 . S
C280 C278 1.388 . S
C280 C281 1.366 . S
C281 C280 1.366 . S
C281 C282 1.414 . S
C281 C284 1.499 . S
C282 H262 0.950 . S
C282 C281 1.414 . S
C282 C283 1.374 . S
C283 H263 0.950 . S
C283 C279 1.385 . S
C283 C282 1.374 . S
C284 C281 1.499 . S
C284 C285 1.373 . S
C284 C286 1.389 . S
C285 H264 0.950 . S
C285 C284 1.373 . S
C285 C301 1.377 . S
C286 C284 1.389 . S
C286 C287 1.524 . S
C286 C300 1.377 . S
C287 C286 1.524 . S
C287 C288 1.397 . S
C287 C292 1.363 . S
C288 H265 0.950 . S
C288 C287 1.397 . S
C288 C289 1.334 . S
C289 H266 0.950 . S
C289 C288 1.334 . S
C289 C290 1.287 . S
C290 C289 1.287 . S
C290 C291 1.524 . S
C290 H309 0.913 . S
C291 H267 0.950 . S
C291 C290 1.524 . S
C291 C292 1.415 . S
C292 H268 0.950 . S
C292 C287 1.363 . S
C292 C291 1.415 . S
C293 H269 0.951 . S
C293 C294 1.366 . S
C293 C295 1.388 . S
C294 C293 1.366 . S
C294 C298 1.385 . S
C295 H270 0.951 . S
C295 C293 1.388 . S
C295 C296 1.366 . S
C296 C295 1.366 . S
C296 C297 1.414 . S
C296 C299 1.499 . S
C297 H271 0.950 . S
C297 C296 1.414 . S
C297 C298 1.374 . S
C298 H272 0.950 . S
C298 C294 1.385 . S
C298 C297 1.374 . S
C299 C296 1.499 . S
C299 C300 1.373 . S
C299 C301 1.389 . S
C300 H273 0.950 . S
C300 C286 1.377 . S
C300 C299 1.373 . S
C301 C285 1.377 . S
C301 C299 1.389 . S
C301 C302 1.524 . S
C302 C301 1.524 . S
C302 C303 1.397 . S
C302 C307 1.363 . S
C303 H274 0.950 . S
C303 C302 1.397 . S
C303 C304 1.334 . S
C304 H275 0.950 1_554 S
C304 C303 1.334 . S
C304 C305 1.287 . S
C305 C304 1.287 . S
C305 C306 1.524 . S
C305 H308 0.999 1_554 S
C306 H276 0.950 . S
C306 C305 1.524 . S
C306 C307 1.415 . S
C307 H277 0.950 . S
C307 C302 1.363 . S
C307 C306 1.415 . S
H308 C305 0.999 1_556 S
H309 C290 0.913 . S
H310 C328 0.951 . S
H311 C330 0.951 . S
H312 C332 0.950 . S
H313 C333 0.950 . S
H314 C335 0.950 . S
H315 C338 0.950 . S
H316 C339 0.950 . S
H317 C341 0.950 . S
H318 C342 0.950 . S
H319 C343 0.951 . S
H320 C345 0.951 . S
H321 C347 0.950 . S
H322 C348 0.950 . S
H323 C350 0.950 . S
H324 C353 0.950 . S
H325 C354 0.950 . S
H326 C356 0.950 . S
H327 C357 0.950 . S
C328 H310 0.951 . S
C328 C329 1.366 . S
C328 C330 1.388 . S
C329 C328 1.366 . S
C329 C333 1.385 . S
C330 H311 0.951 . S
C330 C328 1.388 . S
C330 C331 1.366 . S
C331 C330 1.366 . S
C331 C332 1.414 . S
C331 C334 1.499 . S
C332 H312 0.950 . S
C332 C331 1.414 . S
C332 C333 1.374 . S
C333 H313 0.950 . S
C333 C329 1.385 . S
C333 C332 1.374 . S
C334 C331 1.499 . S
C334 C335 1.373 . S
C334 C336 1.389 . S
C335 H314 0.950 . S
C335 C334 1.373 . S
C335 C351 1.377 . S
C336 C334 1.389 . S
C336 C337 1.524 . S
C336 C350 1.377 . S
C337 C336 1.524 . S
C337 C338 1.397 . S
C337 C342 1.363 . S
C338 H315 0.950 . S
C338 C337 1.397 . S
C338 C339 1.334 . S
C339 H316 0.950 . S
C339 C338 1.334 . S
C339 C340 1.287 . S
C340 C339 1.287 . S
C340 C341 1.524 . S
C340 H359 0.913 . S
C341 H317 0.950 . S
C341 C340 1.524 . S
C341 C342 1.415 . S
C342 H318 0.950 . S
C342 C337 1.363 . S
C342 C341 1.415 . S
C343 H319 0.951 . S
C343 C344 1.366 . S
C343 C345 1.388 . S
C344 C343 1.366 . S
C344 C348 1.385 . S
C345 H320 0.951 . S
C345 C343 1.388 . S
C345 C346 1.366 . S
C346 C345 1.366 . S
C346 C347 1.414 . S
C346 C349 1.499 . S
C347 H321 0.950 . S
C347 C346 1.414 . S
C347 C348 1.374 . S
C348 H322 0.950 . S
C348 C344 1.385 . S
C348 C347 1.374 . S
C349 C346 1.499 . S
C349 C350 1.373 . S
C349 C351 1.389 . S
C350 H323 0.950 . S
C350 C336 1.377 . S
C350 C349 1.373 . S
C351 C335 1.377 . S
C351 C349 1.389 . S
C351 C352 1.524 . S
C352 C351 1.524 . S
C352 C353 1.397 . S
C352 C357 1.363 . S
C353 H324 0.950 . S
C353 C352 1.397 . S
C353 C354 1.334 . S
C354 H325 0.950 . S
C354 C353 1.334 . S
C354 C355 1.287 . S
C355 C354 1.287 . S
C355 C356 1.524 . S
C355 H358 0.999 . S
C356 H326 0.950 . S
C356 C355 1.524 . S
C356 C357 1.415 . S
C357 H327 0.950 . S
C357 C352 1.363 . S
C357 C356 1.415 . S
H358 C355 0.999 . S
H359 C340 0.913 . S
H360 C378 0.951 . S
H361 C380 0.951 . S
H362 C382 0.950 . S
H363 C383 0.950 1_554 S
H364 C385 0.950 . S
H365 C388 0.950 . S
H366 C389 0.950 . S
H367 C391 0.950 . S
H368 C392 0.950 . S
H369 C393 0.951 . S
H370 C395 0.951 . S
H371 C397 0.950 . S
H372 C398 0.950 . S
H373 C400 0.950 . S
H374 C403 0.950 . S
H375 C404 0.950 . S
H376 C406 0.950 . S
H377 C407 0.950 . S
C378 H360 0.951 . S
C378 C379 1.366 1_656 S
C378 C380 1.388 . S
C379 C378 1.366 1_454 S
C379 C383 1.385 1_554 S
C380 H361 0.951 . S
C380 C378 1.388 . S
C380 C381 1.366 1_655 S
C381 C380 1.366 1_455 S
C381 C382 1.414 . S
C381 C384 1.499 . S
C382 H362 0.950 . S
C382 C381 1.414 . S
C382 C383 1.374 . S
C383 H363 0.950 1_556 S
C383 C379 1.385 1_556 S
C383 C382 1.374 . S
C384 C381 1.499 . S
C384 C385 1.373 . S
C384 C386 1.389 . S
C385 H364 0.950 . S
C385 C384 1.373 . S
C385 C401 1.377 . S
C386 C384 1.389 . S
C386 C387 1.524 . S
C386 C400 1.377 . S
C387 C386 1.524 . S
C387 C388 1.397 . S
C387 C392 1.363 1_455 S
C388 H365 0.950 . S
C388 C387 1.397 . S
C388 C389 1.334 . S
C389 H366 0.950 . S
C389 C388 1.334 . S
C389 C390 1.287 . S
C390 C389 1.287 . S
C390 C391 1.524 1_455 S
C390 H409 0.913 . S
C391 H367 0.950 . S
C391 C390 1.524 1_655 S
C391 C392 1.415 . S
C392 H368 0.950 . S
C392 C387 1.363 1_655 S
C392 C391 1.415 . S
C393 H369 0.951 . S
C393 C394 1.366 . S
C393 C395 1.388 . S
C394 C393 1.366 . S
C394 C398 1.385 1_455 S
C395 H370 0.951 . S
C395 C393 1.388 . S
C395 C396 1.366 . S
C396 C395 1.366 . S
C396 C397 1.414 1_455 S
C396 C399 1.499 . S
C397 H371 0.950 . S
C397 C396 1.414 1_655 S
C397 C398 1.374 . S
C398 H372 0.950 . S
C398 C394 1.385 1_655 S
C398 C397 1.374 . S
C399 C396 1.499 . S
C399 C400 1.373 . S
C399 C401 1.389 . S
C400 H373 0.950 . S
C400 C386 1.377 . S
C400 C399 1.373 . S
C401 C385 1.377 . S
C401 C399 1.389 . S
C401 C402 1.524 . S
C402 C401 1.524 . S
C402 C403 1.397 1_455 S
C402 C407 1.363 . S
C403 H374 0.950 . S
C403 C402 1.397 1_655 S
C403 C404 1.334 . S
C404 H375 0.950 . S
C404 C403 1.334 . S
C404 C405 1.287 . S
C405 C404 1.287 . S
C405 C406 1.524 1_655 S
C405 H408 0.999 . S
C406 H376 0.950 . S
C406 C405 1.524 1_455 S
C406 C407 1.415 . S
C407 H377 0.950 . S
C407 C402 1.363 . S
C407 C406 1.415 . S
H408 C405 0.999 . S
H409 C390 0.913 . S
H410 C428 0.951 . S
H411 C430 0.951 . S
H412 C432 0.950 1_565 S
H413 C433 0.951 1_565 S
H414 C435 0.950 . S
H415 C438 0.950 . S
H416 C439 0.950 . S
H417 C441 0.950 . S
H418 C442 0.950 . S
H419 C443 0.951 . S
H420 C445 0.951 . S
H421 C447 0.950 . S
H422 C448 0.950 . S
H423 C450 0.950 . S
H424 C453 0.950 . S
H425 C454 0.950 . S
H426 C456 0.950 . S
H427 C457 0.950 . S
C428 H410 0.951 . S
C428 C429 1.366 . S
C428 C430 1.388 . S
C429 C428 1.366 . S
C429 C433 1.383 . S
C430 H411 0.951 . S
C430 C428 1.388 . S
C430 C431 1.366 . S
C431 C430 1.366 . S
C431 C432 1.414 . S
C431 C434 1.499 . S
C432 H412 0.950 1_545 S
C432 C431 1.414 . S
C432 C433 1.376 . S
C433 H413 0.951 1_545 S
C433 C429 1.383 . S
C433 C432 1.376 . S
C434 C431 1.499 . S
C434 C435 1.373 1_545 S
C434 C436 1.389 . S
C435 H414 0.950 . S
C435 C434 1.373 1_565 S
C435 C451 1.377 1_554 S
C436 C434 1.389 . S
C436 C437 1.524 . S
C436 C450 1.377 1_554 S
C437 C436 1.524 . S
C437 C438 1.397 . S
C437 C442 1.363 . S
C438 H415 0.950 . S
C438 C437 1.397 . S
C438 C439 1.334 . S
C439 H416 0.950 . S
C439 C438 1.334 . S
C439 C440 1.287 . S
C440 C439 1.287 . S
C440 C441 1.524 . S
C440 H459 0.913 . S
C441 H417 0.950 . S
C441 C440 1.524 . S
C441 C442 1.415 . S
C442 H418 0.950 . S
C442 C437 1.363 . S
C442 C441 1.415 . S
C443 H419 0.951 . S
C443 C444 1.366 1_565 S
C443 C445 1.387 . S
C444 C443 1.366 1_545 S
C444 C448 1.385 . S
C445 H420 0.951 . S
C445 C443 1.387 . S
C445 C446 1.368 1_565 S
C446 C445 1.368 1_545 S
C446 C447 1.414 . S
C446 C449 1.499 . S
C447 H421 0.950 . S
C447 C446 1.414 . S
C447 C448 1.374 . S
C448 H422 0.950 . S
C448 C444 1.385 . S
C448 C447 1.374 . S
C449 C446 1.499 . S
C449 C450 1.373 . S
C449 C451 1.389 1_545 S
C450 H423 0.950 . S
C450 C436 1.377 1_556 S
C450 C449 1.373 . S
C451 C435 1.377 1_556 S
C451 C449 1.389 1_565 S
C451 C452 1.524 . S
C452 C451 1.524 . S
C452 C453 1.397 . S
C452 C457 1.363 . S
C453 H424 0.950 . S
C453 C452 1.397 . S
C453 C454 1.334 . S
C454 H425 0.950 . S
C454 C453 1.334 . S
C454 C455 1.287 . S
C455 C454 1.287 . S
C455 C456 1.524 . S
C455 H458 0.999 . S
C456 H426 0.950 . S
C456 C455 1.524 . S
C456 C457 1.415 . S
C457 H427 0.950 . S
C457 C452 1.363 . S
C457 C456 1.415 . S
H458 C455 0.999 . S
H459 C440 0.913 . S
H460 C478 0.951 . S
H461 C480 0.951 . S
H462 C482 0.950 . S
H463 C483 0.950 . S
H464 C485 0.950 . S
H465 C488 0.950 . S
H466 C489 0.950 . S
H467 C491 0.950 . S
H468 C492 0.950 . S
H469 C493 0.951 1_556 S
H470 C495 0.951 . S
H471 C497 0.950 . S
H472 C498 0.950 1_556 S
H473 C500 0.950 . S
H474 C503 0.950 . S
H475 C504 0.950 . S
H476 C506 0.950 . S
H477 C507 0.950 . S
C478 H460 0.951 . S
C478 C479 1.366 . S
C478 C480 1.388 . S
C479 C478 1.366 . S
C479 C483 1.385 . S
C480 H461 0.951 . S
C480 C478 1.388 . S
C480 C481 1.366 . S
C481 C480 1.366 . S
C481 C482 1.414 . S
C481 C484 1.499 . S
C482 H462 0.950 . S
C482 C481 1.414 . S
C482 C483 1.374 . S
C483 H463 0.950 . S
C483 C479 1.385 . S
C483 C482 1.374 . S
C484 C481 1.499 . S
C484 C485 1.373 . S
C484 C486 1.389 . S
C485 H464 0.950 . S
C485 C484 1.373 . S
C485 C501 1.377 . S
C486 C484 1.389 . S
C486 C487 1.524 . S
C486 C500 1.377 . S
C487 C486 1.524 . S
C487 C488 1.397 . S
C487 C492 1.363 . S
C488 H465 0.950 . S
C488 C487 1.397 . S
C488 C489 1.334 . S
C489 H466 0.950 . S
C489 C488 1.334 . S
C489 C490 1.287 . S
C490 C489 1.287 . S
C490 C491 1.524 . S
C490 H509 0.913 . S
C491 H467 0.950 . S
C491 C490 1.524 . S
C491 C492 1.415 . S
C492 H468 0.950 . S
C492 C487 1.363 . S
C492 C491 1.415 . S
C493 H469 0.951 1_554 S
C493 C494 1.366 1_554 S
C493 C495 1.388 . S
C494 C493 1.366 1_556 S
C494 C498 1.385 1_556 S
C495 H470 0.951 . S
C495 C493 1.388 . S
C495 C496 1.366 . S
C496 C495 1.366 . S
C496 C497 1.414 . S
C496 C499 1.499 . S
C497 H471 0.950 . S
C497 C496 1.414 . S
C497 C498 1.374 . S
C498 H472 0.950 1_554 S
C498 C494 1.385 1_554 S
C498 C497 1.374 . S
C499 C496 1.499 . S
C499 C500 1.373 . S
C499 C501 1.389 . S
C500 H473 0.950 . S
C500 C486 1.377 . S
C500 C499 1.373 . S
C501 C485 1.377 . S
C501 C499 1.389 . S
C501 C502 1.524 . S
C502 C501 1.524 . S
C502 C503 1.397 . S
C502 C507 1.363 . S
C503 H474 0.950 . S
C503 C502 1.397 . S
C503 C504 1.334 . S
C504 H475 0.950 . S
C504 C503 1.334 . S
C504 C505 1.287 . S
C505 C504 1.287 . S
C505 C506 1.524 . S
C505 H508 0.999 . S
C506 H476 0.950 . S
C506 C505 1.524 . S
C506 C507 1.415 . S
C507 H477 0.950 . S
C507 C502 1.363 . S
C507 C506 1.415 . S
H508 C505 0.999 . S
H509 C490 0.913 . S
C79 C2 1.746 . S
C94 C52 1.784 . S
C129 C22 1.866 . S
C144 C12 1.888 . S
C179 C32 1.743 . S
C194 C44 1.695 . S
C229 C49 1.717 . S
C244 C4 1.650 . S
C279 C24 1.533 . S
C294 C9 1.611 . S
C329 C42 1.703 . S
C344 C29 1.770 . S
C379 C18 0.331 . S
C394 C19 0.331 . S
C429 C38 0.331 . S
C444 C39 0.331 . S
C479 C58 0.368 . S
C494 C59 0.368 . S
