# Generated by pormake.
# Topology whw, (6)-cn, num edge types: 1
# Building blocks:
#     Node 0, Type 0, BuildingBlock: GEDQOX_clean_sbu_0, # of connection points: 6
#     Node 1, Type 0, BuildingBlock: GEDQOX_clean_sbu_0, # of connection points: 6
#     Node 2, Type 0, BuildingBlock: GEDQOX_clean_sbu_0, # of connection points: 6
#     Node 3, Type 0, BuildingBlock: GEDQOX_clean_sbu_0, # of connection points: 6
#     Node 4, Type 0, BuildingBlock: GEDQOX_clean_sbu_0, # of connection points: 6
#     Node 5, Type 0, BuildingBlock: GEDQOX_clean_sbu_0, # of connection points: 6
#     Node 6, Type 0, BuildingBlock: GEDQOX_clean_sbu_0, # of connection points: 6
#     Node 7, Type 0, BuildingBlock: GEDQOX_clean_sbu_0, # of connection points: 6
#     Node 8, Type 0, BuildingBlock: GEDQOX_clean_sbu_0, # of connection points: 6
#     Node 9, Type 0, BuildingBlock: GEDQOX_clean_sbu_0, # of connection points: 6
#     Node 10, Type 0, BuildingBlock: GEDQOX_clean_sbu_0, # of connection points: 6
#     Node 11, Type 0, BuildingBlock: GEDQOX_clean_sbu_0, # of connection points: 6
#     Node 12, Type 0, BuildingBlock: GEDQOX_clean_sbu_0, # of connection points: 6
#     Node 13, Type 0, BuildingBlock: GEDQOX_clean_sbu_0, # of connection points: 6
#     Node 14, Type 0, BuildingBlock: GEDQOX_clean_sbu_0, # of connection points: 6
#     Node 15, Type 0, BuildingBlock: GEDQOX_clean_sbu_0, # of connection points: 6
#     Edge 16, Type (0, 0), BuildingBlock: ZUJKAS_clean_linker_0, # of connection points: 2
#     Edge 17, Type (0, 0), BuildingBlock: ZUJKAS_clean_linker_0, # of connection points: 2
#     Edge 18, Type (0, 0), BuildingBlock: ZUJKAS_clean_linker_0, # of connection points: 2
#     Edge 19, Type (0, 0), BuildingBlock: ZUJKAS_clean_linker_0, # of connection points: 2
#     Edge 20, Type (0, 0), BuildingBlock: ZUJKAS_clean_linker_0, # of connection points: 2
#     Edge 21, Type (0, 0), BuildingBlock: ZUJKAS_clean_linker_0, # of connection points: 2
#     Edge 22, Type (0, 0), BuildingBlock: ZUJKAS_clean_linker_0, # of connection points: 2
#     Edge 23, Type (0, 0), BuildingBlock: ZUJKAS_clean_linker_0, # of connection points: 2
#     Edge 24, Type (0, 0), BuildingBlock: ZUJKAS_clean_linker_0, # of connection points: 2
#     Edge 25, Type (0, 0), BuildingBlock: ZUJKAS_clean_linker_0, # of connection points: 2
#     Edge 26, Type (0, 0), BuildingBlock: ZUJKAS_clean_linker_0, # of connection points: 2
#     Edge 27, Type (0, 0), BuildingBlock: ZUJKAS_clean_linker_0, # of connection points: 2
#     Edge 28, Type (0, 0), BuildingBlock: ZUJKAS_clean_linker_0, # of connection points: 2
#     Edge 29, Type (0, 0), BuildingBlock: ZUJKAS_clean_linker_0, # of connection points: 2
#     Edge 30, Type (0, 0), BuildingBlock: ZUJKAS_clean_linker_0, # of connection points: 2
#     Edge 31, Type (0, 0), BuildingBlock: ZUJKAS_clean_linker_0, # of connection points: 2
#     Edge 32, Type (0, 0), BuildingBlock: ZUJKAS_clean_linker_0, # of connection points: 2
#     Edge 33, Type (0, 0), BuildingBlock: ZUJKAS_clean_linker_0, # of connection points: 2
#     Edge 34, Type (0, 0), BuildingBlock: ZUJKAS_clean_linker_0, # of connection points: 2
#     Edge 35, Type (0, 0), BuildingBlock: ZUJKAS_clean_linker_0, # of connection points: 2
#     Edge 36, Type (0, 0), BuildingBlock: ZUJKAS_clean_linker_0, # of connection points: 2
#     Edge 37, Type (0, 0), BuildingBlock: ZUJKAS_clean_linker_0, # of connection points: 2
#     Edge 38, Type (0, 0), BuildingBlock: ZUJKAS_clean_linker_0, # of connection points: 2
#     Edge 39, Type (0, 0), BuildingBlock: ZUJKAS_clean_linker_0, # of connection points: 2
#     Edge 40, Type (0, 0), BuildingBlock: ZUJKAS_clean_linker_0, # of connection points: 2
#     Edge 41, Type (0, 0), BuildingBlock: ZUJKAS_clean_linker_0, # of connection points: 2
#     Edge 42, Type (0, 0), BuildingBlock: ZUJKAS_clean_linker_0, # of connection points: 2
#     Edge 43, Type (0, 0), BuildingBlock: ZUJKAS_clean_linker_0, # of connection points: 2
#     Edge 44, Type (0, 0), BuildingBlock: ZUJKAS_clean_linker_0, # of connection points: 2
#     Edge 45, Type (0, 0), BuildingBlock: ZUJKAS_clean_linker_0, # of connection points: 2
#     Edge 46, Type (0, 0), BuildingBlock: ZUJKAS_clean_linker_0, # of connection points: 2
#     Edge 47, Type (0, 0), BuildingBlock: ZUJKAS_clean_linker_0, # of connection points: 2
#     Edge 48, Type (0, 0), BuildingBlock: ZUJKAS_clean_linker_0, # of connection points: 2
#     Edge 49, Type (0, 0), BuildingBlock: ZUJKAS_clean_linker_0, # of connection points: 2
#     Edge 50, Type (0, 0), BuildingBlock: ZUJKAS_clean_linker_0, # of connection points: 2
#     Edge 51, Type (0, 0), BuildingBlock: ZUJKAS_clean_linker_0, # of connection points: 2
#     Edge 52, Type (0, 0), BuildingBlock: ZUJKAS_clean_linker_0, # of connection points: 2
#     Edge 53, Type (0, 0), BuildingBlock: ZUJKAS_clean_linker_0, # of connection points: 2
#     Edge 54, Type (0, 0), BuildingBlock: ZUJKAS_clean_linker_0, # of connection points: 2
#     Edge 55, Type (0, 0), BuildingBlock: ZUJKAS_clean_linker_0, # of connection points: 2
#     Edge 56, Type (0, 0), BuildingBlock: ZUJKAS_clean_linker_0, # of connection points: 2
#     Edge 57, Type (0, 0), BuildingBlock: ZUJKAS_clean_linker_0, # of connection points: 2
#     Edge 58, Type (0, 0), BuildingBlock: ZUJKAS_clean_linker_0, # of connection points: 2
#     Edge 59, Type (0, 0), BuildingBlock: ZUJKAS_clean_linker_0, # of connection points: 2
#     Edge 60, Type (0, 0), BuildingBlock: ZUJKAS_clean_linker_0, # of connection points: 2
#     Edge 61, Type (0, 0), BuildingBlock: ZUJKAS_clean_linker_0, # of connection points: 2
#     Edge 62, Type (0, 0), BuildingBlock: ZUJKAS_clean_linker_0, # of connection points: 2
#     Edge 63, Type (0, 0), BuildingBlock: ZUJKAS_clean_linker_0, # of connection points: 2
# Relax obj value: 0.237
# Max RMSD: 0.185
# Mean RMSD: 0.185
data_MOF--net-whw--node1-GEDQOX_clean_sbu_0--edge1-ZUJKAS_clean_linker_0
_symmetry_space_group_name_H-M    P1
_symmetry_Int_Tables_number       1
_symmetry_cell_setting            triclinic
loop_
_symmetry_equiv_pos_as_xyz
'x, y, z'
_cell_length_a     60.100769
_cell_length_b     60.189286
_cell_length_c     43.328858
_cell_angle_alpha  89.922433
_cell_angle_beta   90.060545
_cell_angle_gamma 89.945103
loop_
_atom_site_label
_atom_site_type_symbol
_atom_site_fract_x
_atom_site_fract_y
_atom_site_fract_z
_atom_type_partial_charge
Nd0 Nd 0.99264 0.10871 0.12195 0.0
Nd1 Nd 0.03833 0.11663 0.1561 0.0
C2 C 0.96154 0.09749 0.08149 0.0
C3 C 0.95667 0.10228 0.04861 0.0
C4 C 0.97342 0.10195 0.02598 0.0
C5 C 0.96866 0.10816 0.99545 0.0
C6 C 0.94705 0.11489 0.98691 0.0
C7 C 0.93025 0.11464 1.00955 0.0
C8 C 0.93502 0.10843 0.03999 0.0
C9 C -0.0041 0.14721 0.15396 0.0
C10 C 0.03671 0.12927 0.08369 0.0
C11 C 0.07051 0.12824 0.19469 0.0
C12 C 0.07483 0.13467 0.22723 0.0
C13 C 0.06617 0.15436 0.23996 0.0
C14 C 0.07227 0.16107 0.26979 0.0
C15 C 0.08715 0.14826 0.28762 0.0
C16 C 0.09523 0.12825 0.27507 0.0
C17 C 0.08922 0.12161 0.24526 0.0
C18 C 0.03332 0.07689 0.12611 0.0
C19 C 0.99317 0.10106 0.19514 0.0
O20 O 0.97885 0.08499 0.08769 0.0
O21 O 0.95959 0.11429 0.10042 0.0
O22 O 0.97729 0.13653 0.15061 0.0
O23 O 0.01131 0.13873 0.1381 0.0
O24 O 0.01662 0.12016 0.08315 0.0
O25 O 0.04811 0.13169 0.10958 0.0
O26 O 0.05985 0.14239 0.17702 0.0
O27 O 0.06511 0.10752 0.18923 0.0
O28 O 0.05204 0.0877 0.12672 0.0
O29 O 0.01879 0.08662 0.14196 0.0
O30 O 0.01259 0.11148 0.19494 0.0
O31 O 0.98321 0.09451 0.16936 0.0
H32 H 0.99027 0.09725 0.03198 0.0
H33 H 0.98205 0.10828 0.97876 0.0
H34 H 0.91334 0.11931 1.00378 0.0
H35 H 0.92181 0.10876 0.05699 0.0
H36 H 0.05507 0.16486 0.22667 0.0
H37 H 0.06583 0.17666 0.27845 0.0
H38 H 0.10635 0.11769 0.28823 0.0
H39 H 0.09619 0.1064 0.23605 0.0
Nd40 Nd 0.13228 0.75931 0.37369 0.0
Nd41 Nd 0.14177 0.80277 0.41171 0.0
C42 C 0.13327 0.72383 0.33759 0.0
C43 C 0.12572 0.71855 0.30587 0.0
C44 C 0.13712 0.70255 0.28846 0.0
C45 C 0.13065 0.69785 0.25805 0.0
C46 C 0.11256 0.70906 0.24433 0.0
C47 C 0.10123 0.72519 0.2619 0.0
C48 C 0.1078 0.72995 0.29226 0.0
C49 C 0.09549 0.78126 0.39666 0.0
C50 C 0.12606 0.80719 0.34044 0.0
C51 C 0.1434 0.8354 0.45243 0.0
C52 C 0.13611 0.83939 0.48438 0.0
C53 C 0.12542 0.8227 0.50142 0.0
C54 C 0.11758 0.82707 0.53122 0.0
C55 C 0.1204 0.84821 0.54457 0.0
C56 C 0.13149 0.86474 0.52751 0.0
C57 C 0.13922 0.86037 0.49767 0.0
C58 C 0.17578 0.78809 0.37486 0.0
C59 C 0.13966 0.7539 0.44818 0.0
O60 O 0.14971 0.738 0.33963 0.0
O61 O 0.11783 0.7272 0.35844 0.0
O62 O 0.09562 0.7711 0.37014 0.0
O63 O 0.11393 0.77869 0.40954 0.0
O64 O 0.13325 0.78661 0.33704 0.0
O65 O 0.12433 0.81645 0.36807 0.0
O66 O 0.12748 0.83336 0.4319 0.0
O67 O 0.15958 0.82103 0.44863 0.0
O68 O 0.17144 0.80898 0.37912 0.0
O69 O 0.16318 0.7761 0.39093 0.0
O70 O 0.14086 0.77587 0.44967 0.0
O71 O 0.13781 0.74319 0.42152 0.0
H72 H 0.15112 0.6937 0.29838 0.0
H73 H 0.13966 0.68521 0.24542 0.0
H74 H 0.08749 0.73442 0.25201 0.0
H75 H 0.09897 0.74265 0.30504 0.0
H76 H 0.12297 0.80635 0.49162 0.0
H77 H 0.10937 0.81388 0.54385 0.0
H78 H 0.13372 0.88125 0.53692 0.0
H79 H 0.14737 0.87348 0.4848 0.0
Nd80 Nd 0.51655 0.87667 0.6161 0.0
Nd81 Nd 0.47189 0.86314 0.6494 0.0
C82 C 0.54584 0.89296 0.57651 0.0
C83 C 0.55183 0.88874 0.54398 0.0
C84 C 0.5571 0.90658 0.52449 0.0
C85 C 0.56279 0.90284 0.49358 0.0
C86 C 0.56339 0.88111 0.48153 0.0
C87 C 0.55787 0.86329 0.50119 0.0
C88 C 0.55203 0.86707 0.53199 0.0
C89 C 0.51714 0.83664 0.64506 0.0
C90 C 0.47478 0.85299 0.57624 0.0
C91 C 0.44158 0.84739 0.6881 0.0
C92 C 0.43893 0.83992 0.72067 0.0
C93 C 0.4455 0.81852 0.73017 0.0
C94 C 0.44112 0.81106 0.76023 0.0
C95 C 0.43003 0.82479 0.78156 0.0
C96 C 0.42391 0.84635 0.7722 0.0
C97 C 0.42821 0.85376 0.74215 0.0
C98 C 0.47287 0.90436 0.62248 0.0
C99 C 0.51543 0.88154 0.68952 0.0
O100 O 0.52632 0.90196 0.58125 0.0
O101 O 0.55053 0.87724 0.59641 0.0
O102 O 0.53477 0.84888 0.64175 0.0
O103 O 0.5009 0.8445 0.63008 0.0
O104 O 0.49407 0.86369 0.57654 0.0
O105 O 0.4634 0.84897 0.60178 0.0
O106 O 0.45317 0.83481 0.66937 0.0
O107 O 0.4447 0.86864 0.6832 0.0
O108 O 0.45522 0.89186 0.62258 0.0
O109 O 0.48843 0.89542 0.63747 0.0
O110 O 0.49734 0.86901 0.68837 0.0
O111 O 0.52434 0.89036 0.66434 0.0
H112 H 0.55679 0.92345 0.53318 0.0
H113 H 0.56652 0.91702 0.4791 0.0
H114 H 0.55841 0.84632 0.49299 0.0
H115 H 0.54781 0.85301 0.54647 0.0
H116 H 0.45368 0.80733 0.71425 0.0
H117 H 0.4463 0.79446 0.76671 0.0
H118 H 0.41508 0.85728 0.7878 0.0
H119 H 0.42266 0.87022 0.7355 0.0
Nd120 Nd 0.36589 0.25414 0.88159 0.0
Nd121 Nd 0.37117 0.20795 0.91463 0.0
C122 C 0.35576 0.28479 0.84007 0.0
C123 C 0.36414 0.28915 0.80863 0.0
C124 C 0.35109 0.30082 0.78723 0.0
C125 C 0.35904 0.30481 0.75732 0.0
C126 C 0.38025 0.29721 0.74824 0.0
C127 C 0.39313 0.28529 0.76983 0.0
C128 C 0.38512 0.28123 0.7996 0.0
C129 C 0.40472 0.24946 0.91287 0.0
C130 C 0.38541 0.2101 0.84303 0.0
C131 C 0.37863 0.17418 0.95259 0.0
C132 C 0.38692 0.1693 0.98416 0.0
C133 C 0.40973 0.17008 0.99133 0.0
C134 C 0.4173 0.16426 0.02084 0.0
C135 C 0.40228 0.15729 0.04381 0.0
C136 C 0.37946 0.15663 0.03658 0.0
C137 C 0.3719 0.16254 1.00714 0.0
C138 C 0.33211 0.21495 0.88339 0.0
C139 C 0.35895 0.25338 0.95439 0.0
O140 O 0.34432 0.26647 0.84355 0.0
O141 O 0.36993 0.28807 0.86256 0.0
O142 O 0.39566 0.26864 0.90731 0.0
O143 O 0.3951 0.234 0.89829 0.0
O144 O 0.3771 0.23045 0.84286 0.0
O145 O 0.38709 0.19821 0.8686 0.0
O146 O 0.393 0.18085 0.93184 0.0
O147 O 0.35939 0.18429 0.9503 0.0
O148 O 0.34228 0.19593 0.88399 0.0
O149 O 0.34204 0.22893 0.89996 0.0
O150 O 0.36904 0.23381 0.95356 0.0
O151 O 0.3519 0.2635 0.92899 0.0
H152 H 0.33473 0.30681 0.79363 0.0
H153 H 0.34847 0.31369 0.74125 0.0
H154 H 0.40961 0.27939 0.76395 0.0
H155 H 0.39541 0.27199 0.81568 0.0
H156 H 0.42181 0.17495 0.97409 0.0
H157 H 0.43496 0.16523 0.02564 0.0
H158 H 0.36742 0.151 0.05343 0.0
H159 H 0.35426 0.16143 1.0022 0.0
Nd160 Nd 0.97164 0.87259 0.87618 0.0
Nd161 Nd 0.01641 0.88692 0.90884 0.0
C162 C 0.94074 0.85664 0.83856 0.0
C163 C 0.93751 0.84863 0.80648 0.0
C164 C 0.92959 0.82699 0.80153 0.0
C165 C 0.9246 0.81957 0.77171 0.0
C166 C 0.92735 0.83364 0.74603 0.0
C167 C 0.93578 0.85517 0.75095 0.0
C168 C 0.94084 0.86258 0.78081 0.0
C169 C 0.97241 0.9139 0.90269 0.0
C170 C 0.01476 0.89105 0.83538 0.0
C171 C 0.04572 0.90343 0.94826 0.0
C172 C 0.05067 0.89878 0.98096 0.0
C173 C 0.06426 0.91312 0.99809 0.0
C174 C 0.06905 0.90849 0.02913 0.0
C175 C 0.06043 0.88932 0.04346 0.0
C176 C 0.04661 0.87516 0.02616 0.0
C177 C 0.04182 0.87983 0.99525 0.0
C178 C 0.01735 0.84668 0.88045 0.0
C179 C 0.97515 0.86282 0.94923 0.0
O180 O 0.9525 0.84411 0.85719 0.0
O181 O 0.94421 0.87791 0.84277 0.0
O182 O 0.95505 0.90102 0.90348 0.0
O183 O 0.98789 0.90513 0.88746 0.0
O184 O -0.00319 0.87832 0.83691 0.0
O185 O 0.02369 0.90025 0.86028 0.0
O186 O 0.02645 0.91277 0.94264 0.0
O187 O 0.05028 0.88735 0.92898 0.0
O188 O 0.03486 0.85912 0.88357 0.0
O189 O 0.00113 0.85451 0.89543 0.0
O190 O 0.99395 0.87432 0.9487 0.0
O191 O 0.96397 0.85805 0.92378 0.0
H192 H 0.92678 0.81592 0.82087 0.0
H193 H 0.91797 0.80296 0.7689 0.0
H194 H 0.93845 0.86634 0.7317 0.0
H195 H 0.94704 0.87933 0.78378 0.0
H196 H 0.07124 0.92784 0.98745 0.0
H197 H 0.07989 0.91965 0.04168 0.0
H198 H 0.03939 0.86046 0.03653 0.0
H199 H 0.03132 0.86851 0.98243 0.0
Nd200 Nd 0.36184 0.6872 0.1151 0.0
Nd201 Nd 0.36921 0.73111 0.15221 0.0
C202 C 0.36319 0.65344 0.07617 0.0
C203 C 0.37201 0.64867 0.04514 0.0
C204 C 0.37682 0.62669 0.03682 0.0
C205 C 0.38554 0.62186 1.00765 0.0
C206 C 0.38955 0.63894 0.98616 0.0
C207 C 0.38468 0.66099 0.99463 0.0
C208 C 0.37612 0.66581 0.02391 0.0
C209 C 0.32572 0.70237 0.14743 0.0
C210 C 0.36502 0.73518 0.07707 0.0
C211 C 0.36835 0.7679 0.1856 0.0
C212 C 0.37591 0.77426 0.21693 0.0
C213 C 0.37454 0.75928 0.24178 0.0
C214 C 0.38203 0.76537 0.27122 0.0
C215 C 0.3912 0.78656 0.2765 0.0
C216 C 0.39254 0.8015 0.2515 0.0
C217 C 0.38496 0.7954 0.22208 0.0
C218 C 0.407 0.70819 0.13501 0.0
C219 C 0.37281 0.68431 0.18839 0.0
O220 O 0.37804 0.65652 0.09794 0.0
O221 O 0.3464 0.66734 0.07781 0.0
O222 O 0.33039 0.68144 0.14434 0.0
O223 O 0.33917 0.71422 0.1325 0.0
O224 O 0.36403 0.71319 0.07606 0.0
O225 O 0.36569 0.74623 0.10351 0.0
O226 O 0.35166 0.75393 0.18402 0.0
O227 O 0.38395 0.76366 0.16534 0.0
O228 O 0.40491 0.71825 0.16139 0.0
O229 O 0.38977 0.71112 0.11933 0.0
O230 O 0.36536 0.70492 0.19001 0.0
O231 O 0.37628 0.6745 0.16143 0.0
H232 H 0.37385 0.61324 0.05294 0.0
H233 H 0.38893 0.6047 1.0018 0.0
H234 H 0.38786 0.67457 0.97881 0.0
H235 H 0.37282 0.68291 0.03004 0.0
H236 H 0.36777 0.74279 0.23842 0.0
H237 H 0.38099 0.75332 0.28974 0.0
H238 H 0.39923 0.81803 0.25472 0.0
H239 H 0.3862 0.80723 0.20329 0.0
Nd240 Nd 0.53897 0.11607 0.37696 0.0
Nd241 Nd 0.49386 0.12246 0.41074 0.0
C242 C 0.57631 0.12245 0.34588 0.0
C243 C 0.58288 0.12946 0.31438 0.0
C244 C 0.57387 0.14863 0.30062 0.0
C245 C 0.58038 0.15511 0.27095 0.0
C246 C 0.59618 0.14266 0.25432 0.0
C247 C 0.6051 0.12341 0.26813 0.0
C248 C 0.59851 0.11691 0.29782 0.0
C249 C 0.52553 0.08048 0.41178 0.0
C250 C 0.49346 0.10359 0.33936 0.0
C251 C 0.45642 0.1201 0.44255 0.0
C252 C 0.45096 0.12243 0.47556 0.0
C253 C 0.46705 0.11832 0.49838 0.0
C254 C 0.46243 0.12264 0.52944 0.0
C255 C 0.44174 0.13159 0.53834 0.0
C256 C 0.4256 0.13544 0.5153 0.0
C257 C 0.43017 0.13085 0.48428 0.0
C258 C 0.5074 0.15786 0.37531 0.0
C259 C 0.53834 0.13744 0.44774 0.0
O260 O 0.5672 0.13757 0.3636 0.0
O261 O 0.56683 0.10294 0.34853 0.0
O262 O 0.53717 0.07827 0.38672 0.0
O263 O 0.52341 0.10061 0.41872 0.0
O264 O 0.5145 0.10991 0.33724 0.0
O265 O 0.4827 0.10418 0.36609 0.0
O266 O 0.46787 0.10251 0.43441 0.0
O267 O 0.46338 0.13828 0.42916 0.0
O268 O 0.49743 0.15997 0.40173 0.0
O269 O 0.50932 0.13772 0.36859 0.0
O270 O 0.51739 0.13113 0.45024 0.0
O271 O 0.54946 0.13523 0.42144 0.0
H272 H 0.56185 0.15871 0.3128 0.0
H273 H 0.57287 0.16982 0.26096 0.0
H274 H 0.61749 0.11356 0.25624 0.0
H275 H 0.60577 0.10211 0.30796 0.0
H276 H 0.48339 0.11224 0.49218 0.0
H277 H 0.47519 0.11912 0.54641 0.0
H278 H 0.40964 0.1427 0.52101 0.0
H279 H 0.41766 0.1345 0.46697 0.0
Nd280 Nd 0.13244 0.28415 0.62504 0.0
Nd281 Nd 0.13937 0.23711 0.65522 0.0
C282 C 0.12106 0.31793 0.58911 0.0
C283 C 0.11402 0.32257 0.55712 0.0
C284 C 0.1028 0.30664 0.53926 0.0
C285 C 0.09554 0.3119 0.50934 0.0
C286 C 0.09939 0.33317 0.49675 0.0
C287 C 0.11102 0.34884 0.51466 0.0
C288 C 0.11821 0.34359 0.54449 0.0
C289 C 0.172 0.27775 0.65496 0.0
C290 C 0.14663 0.24034 0.58229 0.0
C291 C 0.14867 0.20391 0.69327 0.0
C292 C 0.1431 0.19839 0.72572 0.0
C293 C 0.14613 0.21377 0.74977 0.0
C294 C 0.13898 0.20882 0.77981 0.0
C295 C 0.12861 0.18838 0.78646 0.0
C296 C 0.12613 0.17285 0.76244 0.0
C297 C 0.1333 0.1778 0.73248 0.0
C298 C 0.1005 0.24334 0.62426 0.0
C299 C 0.12066 0.28 0.69737 0.0
O300 O 0.10694 0.30719 0.60665 0.0
O301 O 0.1417 0.3116 0.59321 0.0
O302 O 0.16147 0.29663 0.6548 0.0
O303 O 0.16235 0.26365 0.63817 0.0
O304 O 0.13656 0.25989 0.58428 0.0
O305 O 0.15335 0.22931 0.60715 0.0
O306 O 0.16227 0.22055 0.68835 0.0
O307 O 0.13199 0.20359 0.67387 0.0
O308 O 0.1108 0.22438 0.62503 0.0
O309 O 0.10975 0.25736 0.64154 0.0
O310 O 0.12944 0.25981 0.69614 0.0
O311 O 0.11793 0.29239 0.67242 0.0
H312 H 0.09942 0.29027 0.54856 0.0
H313 H 0.0865 0.29947 0.49635 0.0
H314 H 0.11466 0.36521 0.50559 0.0
H315 H 0.12694 0.35605 0.55784 0.0
H316 H 0.15362 0.22981 0.74528 0.0
H317 H 0.14101 0.22126 0.79762 0.0
H318 H 0.11858 0.15681 0.76676 0.0
H319 H 0.13082 0.16564 0.71439 0.0
Nd320 Nd 0.86904 0.20727 0.61958 0.0
Nd321 Nd 0.86783 0.25216 0.65787 0.0
C322 C 0.87537 0.17485 0.57935 0.0
C323 C 0.88272 0.17042 0.54726 0.0
C324 C 0.90338 0.17789 0.53615 0.0
C325 C 0.9106 0.1721 0.50649 0.0
C326 C 0.89744 0.15857 0.48727 0.0
C327 C 0.87661 0.15143 0.49833 0.0
C328 C 0.86937 0.1573 0.52795 0.0
C329 C 0.83246 0.21383 0.65615 0.0
C330 C 0.85895 0.2553 0.58333 0.0
C331 C 0.85883 0.28642 0.69394 0.0
C332 C 0.86491 0.29248 0.72604 0.0
C333 C 0.86529 0.27643 0.74968 0.0
C334 C 0.87154 0.28222 0.77978 0.0
C335 C 0.87772 0.30418 0.78698 0.0
C336 C 0.87727 0.3202 0.76324 0.0
C337 C 0.87091 0.31441 0.73315 0.0
C338 C 0.90837 0.24003 0.63364 0.0
C339 C 0.88442 0.20657 0.69139 0.0
O340 O 0.89051 0.18127 0.59931 0.0
O341 O 0.85608 0.18471 0.58315 0.0
O342 O 0.84139 0.19444 0.65194 0.0
O343 O 0.8421 0.22838 0.64026 0.0
O344 O 0.86331 0.2337 0.58169 0.0
O345 O 0.85812 0.26612 0.61003 0.0
O346 O 0.84547 0.26938 0.69062 0.0
O347 O 0.87496 0.28663 0.6736 0.0
O348 O 0.90641 0.25022 0.65997 0.0
O349 O 0.88964 0.23773 0.62167 0.0
O350 O 0.87313 0.22528 0.69462 0.0
O351 O 0.88863 0.19807 0.66378 0.0
H352 H 0.91417 0.18788 0.55049 0.0
H353 H 0.92658 0.17821 0.49868 0.0
H354 H 0.86612 0.14075 0.48448 0.0
H355 H 0.85347 0.15114 0.53604 0.0
H356 H 0.86094 0.25932 0.74487 0.0
H357 H 0.87197 0.26937 0.79729 0.0
H358 H 0.88168 0.3373 0.76796 0.0
H359 H 0.87077 0.32707 0.71536 0.0
Nd360 Nd 0.64761 0.79676 0.11405 0.0
Nd361 Nd 0.63958 0.75385 0.15328 0.0
C362 C 0.64743 0.82924 0.07286 0.0
C363 C 0.63916 0.83305 0.04126 0.0
C364 C 0.6262 0.81703 0.0261 0.0
C365 C 0.61778 0.82124 0.99649 0.0
C366 C 0.62222 0.84153 0.98145 0.0
C367 C 0.63549 0.85737 0.99669 0.0
C368 C 0.64383 0.85316 0.02631 0.0
C369 C 0.68304 0.78289 0.1492 0.0
C370 C 0.64533 0.74794 0.07849 0.0
C371 C 0.6401 0.7179 0.1887 0.0
C372 C 0.63196 0.7116 0.21976 0.0
C373 C 0.64413 0.69636 0.23759 0.0
C374 C 0.63705 0.69056 0.26734 0.0
C375 C 0.61757 0.69985 0.27998 0.0
C376 C 0.60541 0.71517 0.262 0.0
C377 C 0.61258 0.72106 0.23228 0.0
C378 C 0.60203 0.7761 0.13336 0.0
C379 C 0.63524 0.80177 0.18645 0.0
O380 O 0.63221 0.82702 0.09432 0.0
O381 O 0.66394 0.81513 0.07589 0.0
O382 O 0.67836 0.80363 0.14426 0.0
O383 O 0.67004 0.77045 0.13436 0.0
O384 O 0.646 0.76987 0.07647 0.0
O385 O 0.64443 0.7375 0.10547 0.0
O386 O 0.65632 0.73239 0.18798 0.0
O387 O 0.62512 0.72143 0.16722 0.0
O388 O 0.60372 0.76679 0.16036 0.0
O389 O 0.61956 0.77287 0.11848 0.0
O390 O 0.64252 0.78118 0.1896 0.0
O391 O 0.63216 0.81076 0.15883 0.0
H392 H 0.62249 0.80135 0.03724 0.0
H393 H 0.60789 0.80854 0.98532 0.0
H394 H 0.63903 0.87325 0.98601 0.0
H395 H 0.65375 0.86575 0.0377 0.0
H396 H 0.65918 0.68894 0.22848 0.0
H397 H 0.64671 0.67856 0.28031 0.0
H398 H 0.59052 0.72289 0.27109 0.0
H399 H 0.60305 0.7331 0.21916 0.0
Nd400 Nd 0.63674 0.22864 0.8818 0.0
Nd401 Nd 0.6294 0.27467 0.91397 0.0
C402 C 0.64671 0.19708 0.84167 0.0
C403 C 0.64267 0.19359 0.80828 0.0
C404 C 0.64707 0.21027 0.78634 0.0
C405 C 0.6413 0.20721 0.75525 0.0
C406 C 0.63081 0.18751 0.74555 0.0
C407 C 0.62691 0.1707 0.76748 0.0
C408 C 0.63282 0.1737 0.79844 0.0
C409 C 0.59902 0.23214 0.91582 0.0
C410 C 0.61572 0.2718 0.84241 0.0
C411 C 0.61901 0.3079 0.95119 0.0
C412 C 0.6131 0.31254 0.98363 0.0
C413 C 0.59677 0.30019 0.99932 0.0
C414 C 0.59054 0.30599 0.0294 0.0
C415 C 0.60062 0.32411 0.04444 0.0
C416 C 0.61731 0.33604 0.02888 0.0
C417 C 0.62342 0.33034 0.99879 0.0
C418 C 0.66824 0.26967 0.88178 0.0
C419 C 0.64581 0.2305 0.95453 0.0
O420 O 0.66072 0.21275 0.84966 0.0
O421 O 0.62902 0.19653 0.8592 0.0
O422 O 0.60996 0.21366 0.91276 0.0
O423 O 0.60677 0.24729 0.89874 0.0
O424 O 0.62549 0.25207 0.8423 0.0
O425 O 0.61293 0.28332 0.86804 0.0
O426 O 0.60438 0.29727 0.93432 0.0
O427 O 0.63954 0.30183 0.94565 0.0
O428 O 0.65705 0.28815 0.88228 0.0
O429 O 0.6594 0.2553 0.8989 0.0
O430 O 0.63545 0.24995 0.95377 0.0
O431 O 0.6517 0.21985 0.92902 0.0
H432 H 0.65448 0.22589 0.79329 0.0
H433 H 0.6444 0.22055 0.73902 0.0
H434 H 0.61915 0.15522 0.76073 0.0
H435 H 0.62925 0.1606 0.81488 0.0
H436 H 0.58864 0.28626 0.98824 0.0
H437 H 0.57781 0.29631 0.04089 0.0
H438 H 0.62522 0.35022 0.03962 0.0
H439 H 0.63598 0.34013 0.9871 0.0
Nd440 Nd 0.88693 0.73424 0.37883 0.0
Nd441 Nd 0.87148 0.69222 0.41404 0.0
C442 C 0.89258 0.77136 0.34688 0.0
C443 C 0.89707 0.77788 0.31437 0.0
C444 C 0.88155 0.77412 0.29059 0.0
C445 C 0.88642 0.78028 0.26008 0.0
C446 C 0.90693 0.7902 0.25262 0.0
C447 C 0.92232 0.79405 0.2765 0.0
C448 C 0.91741 0.78805 0.30696 0.0
C449 C 0.91953 0.71118 0.41002 0.0
C450 C 0.88973 0.68788 0.34164 0.0
C451 C 0.87089 0.65482 0.44611 0.0
C452 C 0.87776 0.64845 0.47765 0.0
C453 C 0.88502 0.62672 0.48365 0.0
C454 C 0.89258 0.62074 0.51312 0.0
C455 C 0.89298 0.6364 0.53723 0.0
C456 C 0.88556 0.65816 0.53113 0.0
C457 C 0.87814 0.66415 0.50161 0.0
C458 C 0.83853 0.71367 0.3816 0.0
C459 C 0.87176 0.73937 0.45148 0.0
O460 O 0.87292 0.76325 0.3536 0.0
O461 O 0.90874 0.76112 0.36136 0.0
O462 O 0.92237 0.72008 0.38296 0.0
O463 O 0.90024 0.71518 0.41953 0.0
O464 O 0.88857 0.70969 0.3393 0.0
O465 O 0.88542 0.67743 0.36801 0.0
O466 O 0.88706 0.66016 0.42727 0.0
O467 O 0.85366 0.66808 0.44373 0.0
O468 O 0.83479 0.70295 0.40715 0.0
O469 O 0.8583 0.71088 0.37316 0.0
O470 O 0.87291 0.71748 0.45368 0.0
O471 O 0.87371 0.74955 0.42446 0.0
H472 H 0.8657 0.76633 0.29544 0.0
H473 H 0.87424 0.77693 0.24224 0.0
H474 H 0.93813 0.80197 0.27173 0.0
H475 H 0.92961 0.79133 0.3248 0.0
H476 H 0.885 0.61439 0.46545 0.0
H477 H 0.89801 0.60381 0.51707 0.0
H478 H 0.88593 0.67071 0.54901 0.0
H479 H 0.87292 0.68112 0.49743 0.0
Nd480 Nd 0.49627 0.61022 0.62093 0.0
Nd481 Nd 0.54247 0.61781 0.65434 0.0
C482 C 0.4656 0.59625 0.58157 0.0
C483 C 0.45922 0.6008 0.54926 0.0
C484 C 0.45033 0.58372 0.53112 0.0
C485 C 0.44414 0.5877 0.50044 0.0
C486 C 0.44643 0.60901 0.4873 0.0
C487 C 0.45552 0.62608 0.50566 0.0
C488 C 0.46199 0.62197 0.5362 0.0
C489 C 0.49938 0.64946 0.65147 0.0
C490 C 0.5394 0.63131 0.58171 0.0
C491 C 0.57608 0.62726 0.69198 0.0
C492 C 0.5807 0.63626 0.72305 0.0
C493 C 0.56372 0.63938 0.74484 0.0
C494 C 0.56872 0.64721 0.77455 0.0
C495 C 0.59086 0.65181 0.78313 0.0
C496 C 0.60775 0.6488 0.76104 0.0
C497 C 0.6027 0.64116 0.73134 0.0
C498 C 0.53671 0.57792 0.62502 0.0
C499 C 0.49721 0.60403 0.69411 0.0
O500 O 0.48462 0.58606 0.58573 0.0
O501 O 0.46223 0.61222 0.60153 0.0
O502 O 0.48049 0.63974 0.64595 0.0
O503 O 0.51522 0.64013 0.63725 0.0
O504 O 0.51911 0.62271 0.58175 0.0
O505 O 0.55156 0.63283 0.60715 0.0
O506 O 0.56862 0.64112 0.67106 0.0
O507 O 0.56639 0.60782 0.69074 0.0
O508 O 0.55553 0.58849 0.62518 0.0
O509 O 0.52242 0.58798 0.64087 0.0
O510 O 0.51645 0.61477 0.69334 0.0
O511 O 0.48757 0.59646 0.66871 0.0
H512 H 0.44812 0.56725 0.54074 0.0
H513 H 0.43767 0.57398 0.48704 0.0
H514 H 0.45729 0.64278 0.49672 0.0
H515 H 0.46896 0.63542 0.5497 0.0
H516 H 0.54665 0.63557 0.73901 0.0
H517 H 0.55531 0.64917 0.791 0.0
H518 H 0.62493 0.65247 0.76663 0.0
H519 H 0.61607 0.63887 0.71488 0.0
Nd520 Nd 0.00659 0.37939 0.1241 0.0
Nd521 Nd 0.96076 0.3827 0.15947 0.0
C522 C 0.04327 0.3839 0.09107 0.0
C523 C 0.0498 0.37657 0.05978 0.0
C524 C 0.03419 0.37618 0.03559 0.0
C525 C 0.04036 0.36897 1.00613 0.0
C526 C 0.06222 0.36178 1.0002 0.0
C527 C 0.07777 0.36202 0.02455 0.0
C528 C 0.07162 0.3694 0.05402 0.0
C529 C 0.98929 0.34025 0.14638 0.0
C530 C 0.9609 0.36812 0.08726 0.0
C531 C 0.92726 0.37848 0.19853 0.0
C532 C 0.92286 0.37014 0.23027 0.0
C533 C 0.92354 0.3473 0.23723 0.0
C534 C 0.91829 0.33963 0.26688 0.0
C535 C 0.91208 0.35456 0.29034 0.0
C536 C 0.9116 0.37741 0.2834 0.0
C537 C 0.91688 0.38508 0.25374 0.0
C538 C 0.97187 0.41869 0.12382 0.0
C539 C 0.0083 0.38801 0.19863 0.0
O540 O 0.02766 0.39908 0.09244 0.0
O541 O 0.04077 0.36825 0.1118 0.0
O542 O 0.00027 0.34148 0.12059 0.0
O543 O 0.98881 0.35884 0.15905 0.0
O544 O 0.98067 0.37759 0.08546 0.0
O545 O 0.9511 0.36456 0.11426 0.0
O546 O 0.932 0.36372 0.17723 0.0
O547 O 0.9389 0.39683 0.19584 0.0
O548 O 0.95152 0.41196 0.12747 0.0
O549 O 0.98502 0.40751 0.14026 0.0
O550 O 0.98635 0.38573 0.19894 0.0
O551 O 0.01997 0.3878 0.17264 0.0
H552 H 0.01717 0.38136 0.03948 0.0
H553 H 0.02787 0.36868 0.98808 0.0
H554 H 0.09478 0.35675 0.02072 0.0
H555 H 0.0839 0.36947 0.07234 0.0
H556 H 0.92779 0.33523 0.2197 0.0
H557 H 0.91855 0.3219 0.27116 0.0
H558 H 0.90717 0.38944 0.30092 0.0
H559 H 0.91608 0.40276 0.24908 0.0
Nd560 Nd 0.46883 0.36882 0.37918 0.0
Nd561 Nd 0.5158 0.37334 0.41005 0.0
C562 C 0.43501 0.36016 0.34205 0.0
C563 C 0.43056 0.35441 0.3095 0.0
C564 C 0.44332 0.33845 0.29377 0.0
C565 C 0.43782 0.33238 0.26351 0.0
C566 C 0.41961 0.34232 0.24833 0.0
C567 C 0.40729 0.35869 0.26394 0.0
C568 C 0.41268 0.36461 0.29423 0.0
C569 C 0.47588 0.40661 0.4127 0.0
C570 C 0.5128 0.38495 0.3382 0.0
C571 C 0.54886 0.3813 0.4488 0.0
C572 C 0.55336 0.37604 0.48154 0.0
C573 C 0.53645 0.377 0.5039 0.0
C574 C 0.54056 0.36994 0.53421 0.0
C575 C 0.56162 0.36167 0.5427 0.0
C576 C 0.57861 0.36126 0.52037 0.0
C577 C 0.57451 0.36837 0.49015 0.0
C578 C 0.51004 0.33688 0.37395 0.0
C579 C 0.47252 0.35325 0.4501 0.0
O580 O 0.44483 0.34506 0.35912 0.0
O581 O 0.44204 0.38035 0.3476 0.0
O582 O 0.45682 0.39646 0.41192 0.0
O583 O 0.48974 0.39752 0.39502 0.0
O584 O 0.49309 0.37512 0.33897 0.0
O585 O 0.52397 0.3898 0.36371 0.0
O586 O 0.53305 0.39572 0.44293 0.0
O587 O 0.54852 0.36425 0.43012 0.0
O588 O 0.52899 0.34704 0.37671 0.0
O589 O 0.49567 0.34476 0.39216 0.0
O590 O 0.493 0.36137 0.44979 0.0
O591 O 0.46003 0.3524 0.42503 0.0
H592 H 0.45735 0.33049 0.30493 0.0
H593 H 0.44779 0.31989 0.252 0.0
H594 H 0.39305 0.36649 0.25305 0.0
H595 H 0.40262 0.37693 0.30594 0.0
H596 H 0.51991 0.3827 0.49782 0.0
H597 H 0.52705 0.37029 0.55072 0.0
H598 H 0.5951 0.35531 0.52622 0.0
H599 H 0.58777 0.36746 0.47327 0.0
Nd600 Nd 0.03537 0.62633 0.87108 0.0
Nd601 Nd 0.98913 0.62448 0.90603 0.0
C602 C 0.07006 0.64082 0.83938 0.0
C603 C 0.07472 0.64846 0.80762 0.0
C604 C 0.06032 0.64338 0.78307 0.0
C605 C 0.06491 0.65105 0.75315 0.0
C606 C 0.08394 0.66404 0.74722 0.0
C607 C 0.0982 0.66914 0.77204 0.0
C608 C 0.09361 0.66144 0.80187 0.0
C609 C 0.02839 0.58942 0.90662 0.0
C610 C 0.99227 0.60572 0.83415 0.0
C611 C 0.9541 0.61303 0.93911 0.0
C612 C 0.94936 0.61332 0.97255 0.0
C613 C 0.93515 0.59745 0.98567 0.0
C614 C 0.93034 0.598 0.01733 0.0
C615 C 0.93963 0.6145 0.03647 0.0
C616 C 0.95414 0.63016 0.02313 0.0
C617 C 0.95902 0.6295 0.99162 0.0
C618 C -0.00334 0.66125 0.87045 0.0
C619 C 0.03094 0.64715 0.94256 0.0
O620 O 0.05737 0.65384 0.85604 0.0
O621 O 0.06547 0.61967 0.84302 0.0
O622 O 0.04062 0.58892 0.88182 0.0
O623 O 0.02256 0.60893 0.91279 0.0
O624 O 0.01225 0.61488 0.83197 0.0
O625 O 0.98124 0.60517 0.86074 0.0
O626 O 0.96901 0.59861 0.92979 0.0
O627 O 0.95624 0.63251 0.92588 0.0
O628 O 0.98505 0.66204 0.89578 0.0
O629 O 0.00209 0.6417 0.86433 0.0
O630 O 0.01078 0.63851 0.94476 0.0
O631 O 0.04281 0.64582 0.91669 0.0
H632 H 0.04551 0.63354 0.78704 0.0
H633 H 0.05339 0.64705 0.73476 0.0
H634 H 0.11313 0.67884 0.76836 0.0
H635 H 0.10489 0.6656 0.82051 0.0
H636 H 0.9277 0.58468 0.97141 0.0
H637 H 0.91938 0.58546 0.02678 0.0
H638 H 0.96137 0.64332 0.03686 0.0
H639 H 0.97016 0.64186 0.98208 0.0
H640 H 0.07732 0.14922 0.07401 0.0
H641 H 0.09342 0.16125 0.02483 0.0
H642 H 0.03505 0.13799 0.97686 0.0
H643 H 0.01867 0.12644 0.02571 0.0
H644 H 0.1041 0.13705 0.97361 0.0
H645 H 0.04075 0.20011 0.94253 0.0
H646 H 0.04263 0.18823 0.98071 0.0
H647 H 0.02886 0.17334 0.95018 0.0
C648 C 0.06781 0.1468 0.05304 0.0
C649 C 0.0466 0.13691 0.05399 0.0
C650 C 0.07708 0.15367 0.02489 0.0
C651 C 0.06532 0.15091 0.9971 0.0
C652 C 0.04426 0.14085 0.99798 0.0
H653 H 0.08931 0.16818 0.80192 0.0
H654 H 0.07513 0.15957 0.85343 0.0
C655 C 0.03497 0.13406 0.02604 0.0
C656 C 0.0753 0.15784 0.96709 0.0
H657 H 0.06562 0.18906 0.90242 0.0
C658 C 0.0958 0.1486 0.95819 0.0
C659 C 0.0645 0.17293 0.94689 0.0
C660 C 0.04308 0.1844 0.95566 0.0
C661 C 0.10539 0.15347 0.92933 0.0
C662 C 0.09436 0.16821 0.90893 0.0
C663 C 0.07404 0.1777 0.918 0.0
C664 C 0.10328 0.17354 0.87771 0.0
C665 C 0.1269 0.14223 0.92049 0.0
C666 C 0.12375 0.1845 0.87414 0.0
C667 C 0.13198 0.18939 0.84462 0.0
C668 C 0.1199 0.18342 0.81802 0.0
C669 C 0.09927 0.17267 0.82179 0.0
C670 C 0.09104 0.16787 0.85127 0.0
H671 H 0.13062 0.12775 0.93558 0.0
H672 H 0.12634 0.13651 0.89614 0.0
H673 H 0.14078 0.15427 0.92274 0.0
H674 H 0.13334 0.18937 0.89419 0.0
H675 H 0.14794 0.19759 0.84263 0.0
H676 H 0.12486 0.79136 0.28159 0.0
H677 H 0.11198 0.81009 0.23516 0.0
H678 H 0.09806 0.86919 0.28779 0.0
H679 H 0.11101 0.85043 0.33503 0.0
H680 H 0.06723 0.83001 0.22767 0.0
H681 H 0.13721 0.88957 0.21117 0.0
H682 H 0.14035 0.86456 0.23387 0.0
H683 H 0.12454 0.88741 0.24874 0.0
C684 C 0.11924 0.8084 0.28352 0.0
C685 C 0.11905 0.81939 0.3122 0.0
C686 C 0.11182 0.81906 0.25683 0.0
C687 C 0.10417 0.84103 0.25798 0.0
C688 C 0.1041 0.85226 0.28639 0.0
H689 H 0.06316 0.91737 0.09345 0.0
H690 H 0.07217 0.90759 0.14706 0.0
C691 C 0.11146 0.84151 0.31335 0.0
C692 C 0.09575 0.85157 0.22927 0.0
H693 H 0.10997 0.88812 0.17222 0.0
C694 C 0.07641 0.84292 0.2157 0.0
C695 C 0.10769 0.86848 0.21383 0.0
C696 C 0.12868 0.8781 0.22741 0.0
C697 C 0.06901 0.85028 0.18669 0.0
C698 C 0.0816 0.86634 0.17042 0.0
C699 C 0.10041 0.87572 0.1846 0.0
C700 C 0.07627 0.87249 0.13797 0.0
C701 C 0.04782 0.84063 0.17366 0.0
C702 C 0.07605 0.85612 0.11494 0.0
C703 C 0.07096 0.86163 0.0844 0.0
C704 C 0.06616 0.88372 0.07605 0.0
C705 C 0.06687 0.90022 0.09905 0.0
C706 C 0.07193 0.89465 0.12971 0.0
H707 H 0.03673 0.83444 0.19227 0.0
H708 H 0.03859 0.8531 0.15973 0.0
H709 H 0.05199 0.82634 0.15857 0.0
H710 H 0.07997 0.83901 0.12054 0.0
H711 H 0.07108 0.84858 0.06721 0.0
H712 H 0.42881 0.81019 0.29135 0.0
H713 H 0.44223 0.82066 0.34263 0.0
H714 H 0.38571 0.78824 0.38406 0.0
H715 H 0.37218 0.77769 0.33287 0.0
H716 H 0.42284 0.84633 0.38714 0.0
H717 H 0.43661 0.76128 0.43279 0.0
H718 H 0.43182 0.76674 0.39236 0.0
H719 H 0.40885 0.76602 0.41893 0.0
C720 C 0.41915 0.80535 0.31133 0.0
C721 C 0.39942 0.79299 0.30786 0.0
C722 C 0.42692 0.81127 0.3407 0.0
C723 C 0.41523 0.80494 0.36736 0.0
C724 C 0.39539 0.79284 0.36398 0.0
H725 H 0.43592 0.83027 0.56438 0.0
H726 H 0.42114 0.81887 0.51406 0.0
C727 C 0.38764 0.78684 0.33462 0.0
C728 C 0.42352 0.81152 0.39854 0.0
H729 H 0.44004 0.79091 0.46859 0.0
C730 C 0.42667 0.83419 0.40488 0.0
C731 C 0.4285 0.79571 0.42183 0.0
C732 C 0.42649 0.77107 0.41613 0.0
C733 C 0.43437 0.84148 0.43383 0.0
C734 C 0.43942 0.82568 0.45707 0.0
C735 C 0.43613 0.80302 0.45084 0.0
C736 C 0.44855 0.83235 0.48771 0.0
C737 C 0.43667 0.86611 0.43947 0.0
C738 C 0.46907 0.84338 0.48977 0.0
C739 C 0.47757 0.8499 0.51845 0.0
C740 C 0.46581 0.84546 0.5459 0.0
C741 C 0.44542 0.83405 0.54381 0.0
C742 C 0.43694 0.82749 0.51503 0.0
H743 H 0.42666 0.87599 0.4228 0.0
H744 H 0.43142 0.87051 0.46325 0.0
H745 H 0.45437 0.87094 0.43669 0.0
H746 H 0.47858 0.84691 0.46912 0.0
H747 H 0.49339 0.8585 0.51901 0.0
H748 H 0.37631 0.22609 0.78554 0.0
H749 H 0.38732 0.21076 0.73597 0.0
H750 H 0.42264 0.15792 0.78232 0.0
H751 H 0.41091 0.17281 0.8324 0.0
H752 H 0.42635 0.2054 0.71068 0.0
H753 H 0.38674 0.12262 0.72201 0.0
H754 H 0.38148 0.14486 0.74886 0.0
H755 H 0.40643 0.12846 0.75205 0.0
C756 C 0.38635 0.21114 0.78534 0.0
C757 C 0.39263 0.20061 0.81305 0.0
C758 C 0.39266 0.20238 0.75686 0.0
C759 C 0.40554 0.18295 0.75524 0.0
C760 C 0.4122 0.17258 0.78286 0.0
H761 H 0.4711 0.14844 0.58113 0.0
H762 H 0.46359 0.15935 0.63424 0.0
C763 C 0.40562 0.1812 0.81151 0.0
C764 C 0.41217 0.17408 0.7245 0.0
H765 H 0.40941 0.12833 0.678 0.0
C766 C 0.42265 0.18853 0.70357 0.0
C767 C 0.40709 0.15216 0.71498 0.0
C768 C 0.39462 0.13618 0.73551 0.0
C769 C 0.42797 0.18181 0.67343 0.0
C770 C 0.42343 0.1597 0.66418 0.0
C771 C 0.4131 0.14519 0.68516 0.0
C772 C 0.42845 0.15159 0.63247 0.0
C773 C 0.43761 0.19878 0.65153 0.0
C774 C 0.41148 0.14252 0.61411 0.0
C775 C 0.41585 0.13562 0.58389 0.0
C776 C 0.43731 0.13772 0.5712 0.0
C777 C 0.4544 0.14632 0.59 0.0
C778 C 0.45006 0.15295 0.62034 0.0
H779 H 0.43391 0.21603 0.6591 0.0
H780 H 0.45596 0.19686 0.65084 0.0
H781 H 0.43102 0.19656 0.62779 0.0
H782 H 0.3947 0.14108 0.62301 0.0
H783 H 0.40235 0.12865 0.57049 0.0
H784 H 0.87989 0.81042 0.20978 0.0
H785 H 0.88933 0.82163 0.15695 0.0
H786 H 0.95579 0.79613 0.16939 0.0
H787 H 0.9464 0.78457 0.22194 0.0
H788 H 0.92334 0.85136 0.13824 0.0
H789 H 0.9355 0.76766 0.08749 0.0
H790 H 0.92105 0.77203 0.12351 0.0
H791 H 0.95094 0.77239 0.12239 0.0
C792 C 0.89643 0.80693 0.20114 0.0
C793 C 0.91237 0.79656 0.22015 0.0
C794 C 0.90183 0.81346 0.17099 0.0
C795 C 0.92319 0.8095 0.15905 0.0
C796 C 0.9391 0.79907 0.17789 0.0
H797 H 0.99168 0.8723 1.00668 0.0
H798 H 0.97809 0.85944 0.05661 0.0
C799 C 0.93377 0.79267 0.20807 0.0
C800 C 0.92914 0.81697 0.12731 0.0
H801 H 0.9478 0.79842 0.05739 0.0
C802 C 0.92856 0.83978 0.1205 0.0
C803 C 0.9357 0.80184 0.10403 0.0
C804 C 0.93567 0.77709 0.10952 0.0
C805 C 0.93496 0.84791 0.09137 0.0
C806 C 0.94237 0.83285 0.06848 0.0
C807 C 0.94232 0.80999 0.07499 0.0
C808 C 0.95061 0.84057 0.03786 0.0
C809 C 0.93361 0.87256 0.08531 0.0
C810 C 0.94005 0.83384 1.01048 0.0
C811 C 0.94789 0.84108 0.98169 0.0
C812 C 0.96661 0.85505 0.97966 0.0
C813 C 0.97725 0.86156 1.00719 0.0
C814 C 0.96939 0.85435 0.03589 0.0
H815 H 0.92213 0.88095 0.10167 0.0
H816 H 0.95037 0.87999 0.08825 0.0
H817 H 0.92791 0.87598 0.06138 0.0
H818 H 0.92561 0.8231 1.01141 0.0
H819 H 0.9393 0.83567 0.96104 0.0
H820 H 0.91029 0.16876 0.69683 0.0
H821 H 0.92212 0.15013 0.7447 0.0
H822 H 0.88784 0.19978 0.79823 0.0
H823 H 0.87592 0.21829 0.75108 0.0
H824 H 0.94718 0.16785 0.79628 0.0
H825 H 0.86286 0.14068 0.8315 0.0
H826 H 0.86926 0.14939 0.79261 0.0
H827 H 0.86454 0.16972 0.82227 0.0
C828 C 0.90523 0.17566 0.7188 0.0
C829 C 0.89203 0.19499 0.71995 0.0
C830 C 0.91204 0.16502 0.74613 0.0
C831 C 0.90558 0.17337 0.77507 0.0
C832 C 0.89269 0.19278 0.77622 0.0
H833 H 0.92067 0.14984 0.96926 0.0
H834 H 0.91181 0.16235 0.91705 0.0
C835 C 0.88597 0.20342 0.74908 0.0
C836 C 0.91233 0.16216 0.80431 0.0
H837 H 0.89106 0.13933 0.87023 0.0
C838 C 0.93497 0.16132 0.81231 0.0
C839 C 0.89638 0.15366 0.82523 0.0
C840 C 0.87191 0.15318 0.81742 0.0
C841 C 0.94198 0.15316 0.84124 0.0
C842 C 0.92594 0.14524 0.86252 0.0
C843 C 0.90337 0.14549 0.85406 0.0
C844 C 0.93196 0.13754 0.89421 0.0
C845 C 0.96639 0.15397 0.84929 0.0
C846 C 0.94619 0.11929 0.89893 0.0
C847 C 0.95126 0.11201 0.92891 0.0
C848 C 0.94204 0.12269 0.95484 0.0
C849 C 0.92781 0.14096 0.94993 0.0
C850 C 0.92281 0.14823 0.92003 0.0
H851 H 0.97577 0.16517 0.8336 0.0
H852 H 0.96885 0.15968 0.87342 0.0
H853 H 0.97358 0.13706 0.84722 0.0
H854 H 0.9531 0.11045 0.87942 0.0
H855 H 0.96203 0.09772 0.93176 0.0
H856 H 0.59101 0.17111 0.72529 0.0
H857 H 0.57854 0.1658 0.67204 0.0
H858 H 0.64058 0.19238 0.63866 0.0
H859 H 0.65331 0.19767 0.69208 0.0
H860 H 0.57639 0.20101 0.62273 0.0
H861 H 0.63188 0.12951 0.59529 0.0
H862 H 0.62482 0.13679 0.63452 0.0
H863 H 0.64398 0.15365 0.6132 0.0
C864 C 0.60211 0.17568 0.70666 0.0
C865 C 0.62325 0.18465 0.71298 0.0
C866 C 0.59489 0.17275 0.67623 0.0
C867 C 0.6087 0.17851 0.65141 0.0
C868 C 0.62974 0.18765 0.6575 0.0
H869 H 0.58196 0.15099 0.4547 0.0
H870 H 0.60033 0.16333 0.50237 0.0
C871 C 0.63692 0.19078 0.68802 0.0
C872 C 0.60081 0.17498 0.61925 0.0
H873 H 0.6067 0.14084 0.5568 0.0
C874 C 0.58312 0.18797 0.60819 0.0
C875 C 0.60976 0.15812 0.60023 0.0
C876 C 0.6286 0.14356 0.61126 0.0
C877 C 0.57386 0.18431 0.57882 0.0
C878 C 0.5821 0.16674 0.5603 0.0
C879 C 0.60033 0.15425 0.57096 0.0
C880 C 0.571 0.16007 0.53095 0.0
C881 C 0.55533 0.19934 0.56796 0.0
C882 C 0.54849 0.15389 0.53113 0.0
C883 C 0.53798 0.14695 0.50405 0.0
C884 C 0.54974 0.14573 0.476 0.0
C885 C 0.57235 0.15182 0.4758 0.0
C886 C 0.58289 0.15885 0.50306 0.0
H887 H 0.5562 0.21586 0.57931 0.0
H888 H 0.55586 0.20177 0.54256 0.0
H889 H 0.53909 0.19177 0.57408 0.0
H890 H 0.53907 0.15408 0.55243 0.0
H891 H 0.52061 0.14224 0.50533 0.0
H892 H 0.59535 0.90272 0.44743 0.0
H893 H 0.60699 0.89511 0.3945 0.0
H894 H 0.55952 0.84157 0.38914 0.0
H895 H 0.54685 0.84989 0.44129 0.0
H896 H 0.62613 0.85935 0.37217 0.0
H897 H 0.54735 0.8719 0.30874 0.0
H898 H 0.55091 0.88061 0.34827 0.0
H899 H 0.54396 0.85221 0.33943 0.0
C900 C 0.58696 0.88967 0.43479 0.0
C901 C 0.57007 0.87697 0.4488 0.0
C902 C 0.59379 0.88522 0.40453 0.0
C903 C 0.58392 0.86799 0.38752 0.0
C904 C 0.56704 0.85532 0.40139 0.0
H905 H 0.63978 0.78769 0.24595 0.0
H906 H 0.62833 0.80648 0.29287 0.0
C907 C 0.56007 0.85987 0.43153 0.0
C908 C 0.59229 0.86226 0.35615 0.0
H909 H 0.57549 0.85041 0.28258 0.0
C910 C 0.61507 0.85771 0.35251 0.0
C911 C 0.57803 0.86051 0.33019 0.0
C912 C 0.55376 0.86681 0.33176 0.0
C913 C 0.62375 0.85045 0.32417 0.0
C914 C 0.60919 0.84708 0.29889 0.0
C915 C 0.58662 0.85269 0.30204 0.0
C916 C 0.61676 0.83626 0.26986 0.0
C917 C 0.64846 0.84637 0.32169 0.0
C918 C 0.61361 0.84648 0.24098 0.0
C919 C 0.62 0.8356 0.21373 0.0
C920 C 0.62951 0.81424 0.21494 0.0
C921 C 0.63267 0.80418 0.24398 0.0
C922 C 0.62626 0.81499 0.27101 0.0
H923 H 0.65787 0.85674 0.33841 0.0
H924 H 0.65201 0.8287 0.32716 0.0
H925 H 0.65467 0.84996 0.29808 0.0
H926 H 0.60613 0.86283 0.23951 0.0
H927 H 0.6172 0.84378 0.19179 0.0
H928 H 0.64292 0.69405 0.33223 0.0
H929 H 0.63053 0.68277 0.38379 0.0
H930 H 0.56273 0.68049 0.35152 0.0
H931 H 0.57499 0.69138 0.29979 0.0
H932 H 0.59876 0.70389 0.42394 0.0
H933 H 0.57271 0.61864 0.39117 0.0
H934 H 0.59055 0.63544 0.36712 0.0
H935 H 0.56108 0.64047 0.36785 0.0
C936 C 0.62538 0.69097 0.336 0.0
C937 C 0.60999 0.69351 0.31169 0.0
C938 C 0.61831 0.68466 0.36558 0.0
C939 C 0.59573 0.6805 0.3715 0.0
C940 C 0.58028 0.68329 0.34744 0.0
H941 H 0.51722 0.63554 0.52682 0.0
H942 H 0.53163 0.64814 0.47728 0.0
C943 C 0.5873 0.68973 0.31791 0.0
C944 C 0.58832 0.6733 0.40281 0.0
H945 H 0.56344 0.63053 0.4416 0.0
C946 C 0.59114 0.68781 0.42788 0.0
C947 C 0.57837 0.65232 0.40795 0.0
C948 C 0.57562 0.63569 0.3822 0.0
C949 C 0.58371 0.68217 0.45773 0.0
C950 C 0.57366 0.66119 0.46288 0.0
C951 C 0.57109 0.64661 0.43779 0.0
C952 C 0.56506 0.65418 0.49378 0.0
C953 C 0.58603 0.69907 0.48321 0.0
C954 C 0.57901 0.65323 0.51987 0.0
C955 C 0.57074 0.64612 0.54855 0.0
C956 C 0.54838 0.63954 0.5517 0.0
C957 C 0.53453 0.64044 0.52546 0.0
C958 C 0.54276 0.64765 0.49695 0.0
H959 H 0.58825 0.71614 0.47391 0.0
H960 H 0.57123 0.69897 0.49854 0.0
H961 H 0.60089 0.69499 0.49734 0.0
H962 H 0.59642 0.65765 0.51798 0.0
H963 H 0.58195 0.64548 0.56812 0.0
H964 H 0.62178 0.25468 0.7845 0.0
H965 H 0.61091 0.27099 0.73516 0.0
H966 H 0.58148 0.32662 0.78267 0.0
H967 H 0.59273 0.31065 0.83227 0.0
H968 H 0.56996 0.28158 0.71199 0.0
H969 H 0.62179 0.35759 0.72126 0.0
H970 H 0.62516 0.33417 0.74688 0.0
H971 H 0.60288 0.35366 0.75284 0.0
C972 C 0.61302 0.27041 0.78458 0.0
C973 C 0.60828 0.2814 0.81248 0.0
C974 C 0.60679 0.27971 0.75626 0.0
C975 C 0.59571 0.30023 0.7551 0.0
C976 C 0.59049 0.31104 0.7829 0.0
H977 H 0.5482 0.37925 0.59816 0.0
H978 H 0.55507 0.36437 0.65007 0.0
C979 C 0.59681 0.30179 0.81129 0.0
C980 C 0.5895 0.3101 0.72475 0.0
H981 H 0.59744 0.35544 0.67839 0.0
C982 C 0.57598 0.29773 0.70467 0.0
C983 C 0.59734 0.3312 0.71515 0.0
C984 C 0.61276 0.34487 0.735 0.0
C985 C 0.57004 0.30587 0.67537 0.0
C986 C 0.57803 0.32685 0.6657 0.0
C987 C 0.59127 0.33939 0.6859 0.0
C988 C 0.57353 0.3357 0.63427 0.0
C989 C 0.5551 0.29202 0.65507 0.0
C990 C 0.58181 0.32465 0.6082 0.0
C991 C 0.57795 0.33309 0.57859 0.0
C992 C 0.56573 0.35283 0.57436 0.0
C993 C 0.55748 0.36391 0.60057 0.0
C994 C 0.56147 0.35549 0.63024 0.0
H995 H 0.54586 0.27934 0.66859 0.0
H996 H 0.54293 0.30264 0.64257 0.0
H997 H 0.56539 0.28322 0.63769 0.0
H998 H 0.59143 0.30953 0.61077 0.0
H999 H 0.58435 0.32401 0.55895 0.0
H1000 H 0.97452 0.37737 0.02858 0.0
H1001 H 0.95813 0.36532 0.98009 0.0
H1002 H 0.90656 0.33074 0.0298 0.0
H1003 H 0.9228 0.34311 0.07892 0.0
H1004 H 0.95248 0.32317 0.95887 0.0
H1005 H 0.87057 0.36568 0.96659 0.0
H1006 H 0.8935 0.37237 0.99186 0.0
H1007 H 0.87717 0.34784 0.9986 0.0
C1008 C 0.95961 0.3673 0.02942 0.0
C1009 C 0.95 0.36125 0.05786 0.0
C1010 C 0.95024 0.3604 1.00151 0.0
C1011 C 0.93096 0.34728 1.0011 0.0
C1012 C 0.9212 0.34122 0.0294 0.0
H1013 H 0.85974 0.29063 0.84227 0.0
H1014 H 0.87229 0.29995 0.89454 0.0
C1015 C 0.93056 0.34822 0.05752 0.0
C1016 C 0.92181 0.33952 0.97092 0.0
H1017 H 0.87639 0.34246 0.92335 0.0
C1018 C 0.93582 0.32738 0.95117 0.0
C1019 C 0.90004 0.34491 0.9608 0.0
C1020 C 0.88446 0.35857 0.98039 0.0
C1021 C 0.92876 0.32063 0.92168 0.0
C1022 C 0.90718 0.32641 0.91131 0.0
C1023 C 0.89295 0.33809 0.93127 0.0
C1024 C 0.89936 0.32097 0.87952 0.0
C1025 C 0.94446 0.30722 0.90192 0.0
C1026 C 0.91019 0.32991 0.85362 0.0
C1027 C 0.90309 0.32461 0.82371 0.0
C1028 C 0.88494 0.31022 0.81895 0.0
C1029 C 0.87395 0.30151 0.845 0.0
C1030 C 0.88101 0.30693 0.87493 0.0
H1031 H 0.95774 0.29923 0.91593 0.0
H1032 H 0.93537 0.29414 0.889 0.0
H1033 H 0.95257 0.31838 0.88492 0.0
H1034 H 0.92418 0.34105 0.85653 0.0
H1035 H 0.91208 0.3315 0.80429 0.0
H1036 H 0.88423 0.64308 0.3292 0.0
H1037 H 0.89085 0.62422 0.27961 0.0
H1038 H 0.91412 0.68584 0.24039 0.0
H1039 H 0.90741 0.70462 0.28897 0.0
H1040 H 0.88219 0.66532 0.20466 0.0
H1041 H 0.94978 0.60648 0.23718 0.0
H1042 H 0.92483 0.60569 0.26006 0.0
H1043 H 0.94224 0.62988 0.26103 0.0
C1044 C 0.89098 0.65249 0.31006 0.0
C1045 C 0.89513 0.67539 0.31306 0.0
C1046 C 0.89481 0.64169 0.28178 0.0
C1047 C 0.90304 0.65362 0.25627 0.0
C1048 C 0.90767 0.6763 0.25963 0.0
H1049 H 0.96669 0.62596 0.08511 0.0
H1050 H 0.95599 0.63248 0.13866 0.0
C1051 C 0.90379 0.68703 0.28756 0.0
C1052 C 0.90608 0.64325 0.22543 0.0
H1053 H 0.93864 0.60691 0.18505 0.0
C1054 C 0.89434 0.65234 0.20039 0.0
C1055 C 0.92208 0.62647 0.21991 0.0
C1056 C 0.93563 0.61658 0.24584 0.0
C1057 C 0.8987 0.64579 0.1699 0.0
C1058 C 0.91488 0.62917 0.16425 0.0
C1059 C 0.92615 0.61954 0.1894 0.0
C1060 C 0.92158 0.623 0.13231 0.0
C1061 C 0.88675 0.65764 0.14398 0.0
C1062 C 0.90596 0.61491 0.11098 0.0
C1063 C 0.91192 0.61158 0.08008 0.0
C1064 C 0.93373 0.61599 0.06991 0.0
C1065 C 0.94961 0.62291 0.09181 0.0
C1066 C 0.94358 0.62642 0.1226 0.0
H1067 H 0.87894 0.67339 0.15184 0.0
H1068 H 0.89833 0.66152 0.12477 0.0
H1069 H 0.87336 0.64678 0.1349 0.0
H1070 H 0.88899 0.61169 0.11804 0.0
H1071 H 0.89918 0.60632 0.06399 0.0
H1072 H 0.49476 0.34586 0.50438 0.0
H1073 H 0.47925 0.33451 0.55402 0.0
H1074 H 0.41361 0.33256 0.51377 0.0
H1075 H 0.42908 0.34336 0.46381 0.0
H1076 H 0.45029 0.3551 0.59009 0.0
H1077 H 0.41485 0.27366 0.5572 0.0
H1078 H 0.43361 0.28881 0.53245 0.0
H1079 H 0.40451 0.29589 0.5336 0.0
C1080 C 0.47704 0.34284 0.50596 0.0
C1081 C 0.46319 0.34544 0.47997 0.0
C1082 C 0.46818 0.33634 0.53443 0.0
C1083 C 0.44528 0.33231 0.53766 0.0
C1084 C 0.43141 0.33496 0.51178 0.0
H1085 H 0.37493 0.33508 0.7134 0.0
H1086 H 0.39018 0.34312 0.6624 0.0
C1087 C 0.44028 0.34127 0.48319 0.0
C1088 C 0.43586 0.32634 0.5684 0.0
H1089 H 0.40355 0.28821 0.60596 0.0
C1090 C 0.44016 0.3404 0.59356 0.0
C1091 C 0.42291 0.30698 0.57316 0.0
C1092 C 0.41888 0.29034 0.54775 0.0
C1093 C 0.43162 0.33589 0.6231 0.0
C1094 C 0.41781 0.31709 0.62754 0.0
C1095 C 0.41385 0.30279 0.60253 0.0
C1096 C 0.40763 0.3118 0.65803 0.0
C1097 C 0.43791 0.35109 0.64937 0.0
C1098 C 0.41149 0.29112 0.67212 0.0
C1099 C 0.40236 0.28626 0.70107 0.0
C1100 C 0.38913 0.30198 0.71668 0.0
C1101 C 0.38488 0.32248 0.70212 0.0
C1102 C 0.39389 0.32726 0.67308 0.0
H1103 H 0.4535 0.36032 0.64437 0.0
H1104 H 0.42447 0.36348 0.65285 0.0
H1105 H 0.44018 0.34166 0.67119 0.0
H1106 H 0.42182 0.2788 0.66087 0.0
H1107 H 0.40564 0.27012 0.71116 0.0
H1108 H 0.46506 0.63737 0.44455 0.0
H1109 H 0.45136 0.6465 0.39305 0.0
H1110 H 0.39831 0.59895 0.40371 0.0
H1111 H 0.41086 0.59087 0.45603 0.0
H1112 H 0.44625 0.62337 0.34148 0.0
H1113 H 0.36331 0.65269 0.37986 0.0
H1114 H 0.38545 0.64663 0.40666 0.0
H1115 H 0.36893 0.62448 0.39072 0.0
C1116 C 0.45025 0.62908 0.43626 0.0
C1117 C 0.43896 0.61357 0.45491 0.0
C1118 C 0.44257 0.63415 0.40655 0.0
C1119 C 0.4235 0.62377 0.3946 0.0
C1120 C 0.4127 0.60765 0.41262 0.0
H1121 H 0.388 0.64143 0.19738 0.0
H1122 H 0.39948 0.62428 0.24635 0.0
C1123 C 0.42017 0.60278 0.44249 0.0
C1124 C 0.41487 0.63009 0.36351 0.0
H1125 H 0.36907 0.65036 0.32604 0.0
C1126 C 0.42936 0.62924 0.33808 0.0
C1127 C 0.39288 0.63797 0.35906 0.0
C1128 C 0.3768 0.64073 0.38555 0.0
C1129 C 0.4226 0.63632 0.30854 0.0
C1130 C 0.40051 0.64389 0.30404 0.0
C1131 C 0.38593 0.64436 0.32936 0.0
C1132 C 0.3927 0.65341 0.27412 0.0
C1133 C 0.43951 0.63652 0.28281 0.0
C1134 C 0.38422 0.67512 0.27348 0.0
C1135 C 0.37729 0.68474 0.24579 0.0
C1136 C 0.37874 0.67298 0.2178 0.0
C1137 C 0.38678 0.65102 0.21844 0.0
C1138 C 0.39354 0.64126 0.24641 0.0
H1139 H 0.45681 0.63544 0.29176 0.0
H1140 H 0.43664 0.622 0.26758 0.0
H1141 H 0.43797 0.65184 0.26866 0.0
H1142 H 0.38331 0.68486 0.29446 0.0
H1143 H 0.37116 0.70165 0.2464 0.0
H1144 H 0.07012 0.70539 0.22122 0.0
H1145 H 0.05867 0.69667 0.16841 0.0
H1146 H 0.12747 0.6926 0.14092 0.0
H1147 H 0.13905 0.70122 0.19372 0.0
H1148 H 0.06599 0.71833 0.11416 0.0
H1149 H 0.10386 0.63432 0.10836 0.0
H1150 H 0.10103 0.64935 0.14414 0.0
H1151 H 0.12322 0.65594 0.11787 0.0
C1152 C 0.08285 0.70275 0.20395 0.0
C1153 C 0.10554 0.70391 0.21192 0.0
C1154 C 0.07626 0.69767 0.17371 0.0
C1155 C 0.09216 0.69356 0.15064 0.0
C1156 C 0.11483 0.69508 0.15838 0.0
H1157 H 0.07489 0.65756 0.95451 0.0
H1158 H 0.0909 0.67044 1.00359 0.0
C1159 C 0.12144 0.70006 0.18865 0.0
C1160 C 0.08491 0.68809 0.11849 0.0
H1161 H 0.08803 0.64831 0.06221 0.0
C1162 C 0.07085 0.70302 0.10285 0.0
C1163 C 0.09127 0.66814 0.1035 0.0
C1164 C 0.1055 0.6509 0.11938 0.0
C1165 C 0.06296 0.69855 0.07288 0.0
C1166 C 0.06904 0.67848 0.0581 0.0
C1167 C 0.08346 0.66375 0.07343 0.0
C1168 C 0.05943 0.6718 0.02771 0.0
C1169 C 0.04821 0.71545 0.0572 0.0
C1170 C 0.03645 0.66824 0.02488 0.0
C1171 C 0.0273 0.66086 0.99703 0.0
C1172 C 0.04088 0.65679 0.97114 0.0
C1173 C 0.0639 0.66068 0.97383 0.0
C1174 C 0.07309 0.66795 1.00192 0.0
H1175 H 0.05024 0.73224 0.06745 0.0
H1176 H 0.05185 0.71643 0.03211 0.0
H1177 H 0.03057 0.71044 0.06004 0.0
H1178 H 0.02558 0.6707 0.04451 0.0
H1179 H 0.00952 0.65804 0.996 0.0
H1180 H 0.12638 0.26062 0.75405 0.0
H1181 H 0.11609 0.27531 0.80452 0.0
H1182 H 0.08956 0.33419 0.76129 0.0
H1183 H 0.09981 0.31962 0.71046 0.0
H1184 H 0.13037 0.31679 0.83141 0.0
H1185 H 0.03847 0.31183 0.81828 0.0
H1186 H 0.05736 0.29649 0.79389 0.0
H1187 H 0.05317 0.32569 0.78769 0.0
C1188 C 0.11829 0.27666 0.75511 0.0
C1189 C 0.11391 0.28889 0.72802 0.0
C1190 C 0.11244 0.28505 0.78408 0.0
C1191 C 0.10187 0.30574 0.78669 0.0
C1192 C 0.09742 0.31803 0.75979 0.0
H1193 H 0.05135 0.38024 0.9443 0.0
H1194 H 0.06155 0.36713 0.89277 0.0
C1195 C 0.10339 0.3097 0.73074 0.0
C1196 C 0.09603 0.31461 0.81767 0.0
H1197 H 0.05211 0.32863 0.86374 0.0
C1198 C 0.11326 0.31937 0.83853 0.0
C1199 C 0.07372 0.31804 0.82685 0.0
C1200 C 0.05454 0.31262 0.80568 0.0
C1201 C 0.10882 0.32772 0.86819 0.0
C1202 C 0.08646 0.33087 0.8776 0.0
C1203 C 0.06923 0.32621 0.85661 0.0
C1204 C 0.08055 0.3389 0.90909 0.0
C1205 C 0.12817 0.33357 0.88885 0.0
C1206 C 0.08761 0.3273 0.93553 0.0
C1207 C 0.08188 0.33483 0.96505 0.0
C1208 C 0.06867 0.35395 0.9688 0.0
C1209 C 0.0614 0.36537 0.94226 0.0
C1210 C 0.06727 0.35792 0.91277 0.0
H1211 H 0.14357 0.33659 0.87533 0.0
H1212 H 0.12453 0.34859 0.90282 0.0
H1213 H 0.13147 0.31953 0.90482 0.0
H1214 H 0.09733 0.31223 0.93336 0.0
H1215 H 0.08742 0.32542 0.98494 0.0
H1216 H 0.96726 0.33596 0.20034 0.0
H1217 H 0.96894 0.30459 0.23644 0.0
H1218 H 0.01041 0.26881 0.17221 0.0
H1219 H 0.00844 0.29989 0.13582 0.0
H1220 H 0.95598 0.25935 0.22083 0.0
H1221 H 0.04311 0.26427 0.259 0.0
H1222 H 0.02726 0.2883 0.24656 0.0
H1223 H 0.04063 0.27062 0.21864 0.0
C1224 C 0.97643 0.3212 0.1938 0.0
C1225 C 0.98755 0.32013 0.16525 0.0
C1226 C 0.97768 0.30357 0.21463 0.0
C1227 C 0.99045 0.28489 0.20735 0.0
C1228 C 0.00106 0.28353 0.17852 0.0
H1229 H 0.02399 0.18221 0.1534 0.0
H1230 H 0.02389 0.21315 0.18952 0.0
C1231 C -0.00043 0.30101 0.15752 0.0
C1232 C 0.99082 0.26534 0.22764 0.0
H1233 H 0.02914 0.22643 0.24745 0.0
C1234 C 0.97172 0.25217 0.22804 0.0
C1235 C 0.01114 0.25659 0.23845 0.0
C1236 C 0.03165 0.27082 0.24101 0.0
C1237 C 0.97341 0.22916 0.2321 0.0
C1238 C 0.99488 0.21964 0.2361 0.0
C1239 C 0.01288 0.23364 0.24314 0.0
C1240 C 0.00017 0.19817 0.22121 0.0
C1241 C 0.95277 0.21534 0.22711 0.0
C1242 C 0.98812 0.17883 0.22786 0.0
C1243 C 0.98722 0.16175 0.20617 0.0
C1244 C -0.00053 0.1633 0.17866 0.0
C1245 C 0.0141 0.18101 0.17424 0.0
C1246 C 0.01423 0.19851 0.19518 0.0
H1247 H 0.93753 0.2257 0.22501 0.0
H1248 H 0.95441 0.20541 0.20566 0.0
H1249 H 0.95037 0.20385 0.24685 0.0
H1250 H 0.97799 0.17769 0.24843 0.0
H1251 H 0.97629 0.14779 0.21036 0.0
H1252 H 0.91787 0.70932 0.47302 0.0
H1253 H 0.94876 0.71909 0.50719 0.0
H1254 H 0.99384 0.71599 0.42986 0.0
H1255 H 0.96317 0.70646 0.39574 0.0
H1256 H 0.01401 0.70817 0.49176 0.0
H1257 H 0.96239 0.78495 0.48391 0.0
H1258 H 0.95153 0.75941 0.49945 0.0
H1259 H 0.95538 0.76229 0.45857 0.0
C1260 C 0.93455 0.70979 0.46359 0.0
C1261 C 0.93816 0.70808 0.43156 0.0
C1262 C 0.95216 0.71528 0.48322 0.0
C1263 C 0.97337 0.71887 0.47083 0.0
C1264 C 0.97749 0.71345 0.43982 0.0
H1265 H 0.05246 0.773 0.38008 0.0
H1266 H 0.02235 0.76462 0.41607 0.0
C1267 C 0.95995 0.70816 0.42022 0.0
C1268 C 0.98944 0.73382 0.48593 0.0
H1269 H 0.00093 0.7885 0.47396 0.0
C1270 C 0.01119 0.72592 0.48994 0.0
C1271 C 0.98563 0.75704 0.48423 0.0
C1272 C 0.96248 0.76658 0.48147 0.0
C1273 C 0.02938 0.74019 0.48591 0.0
C1274 C 0.02533 0.76256 0.47761 0.0
C1275 C 0.0038 0.7712 0.47979 0.0
C1276 C 0.04098 0.77393 0.45689 0.0
C1277 C 0.05258 0.73059 0.48564 0.0
C1278 C 0.06068 0.78329 0.46798 0.0
C1279 C 0.07775 0.78836 0.44736 0.0
C1280 C 0.07539 0.78365 0.41565 0.0
C1281 C 0.05474 0.77665 0.40435 0.0
C1282 C 0.0376 0.77184 0.42492 0.0
H1283 H 0.05312 0.71366 0.49586 0.0
H1284 H 0.05869 0.72963 0.4615 0.0
H1285 H 0.06409 0.7415 0.49872 0.0
H1286 H 0.06346 0.78508 0.49256 0.0
H1287 H 0.0935 0.79402 0.45659 0.0
H1288 H 0.53327 0.65449 0.69243 0.0
H1289 H 0.53744 0.68326 0.73163 0.0
H1290 H 0.47519 0.71225 0.70159 0.0
H1291 H 0.47032 0.6822 0.66485 0.0
H1292 H 0.54599 0.72073 0.71939 0.0
H1293 H 0.47113 0.73274 0.78608 0.0
H1294 H 0.47624 0.70645 0.76721 0.0
H1295 H 0.46032 0.72813 0.74825 0.0
C1296 C 0.52043 0.66682 0.69476 0.0
C1297 C 0.50185 0.66657 0.67527 0.0
C1298 C 0.52259 0.6831 0.71744 0.0
C1299 C 0.50657 0.70002 0.7201 0.0
C1300 C 0.48749 0.69911 0.70122 0.0
H1301 H 0.48721 0.8032 0.64967 0.0
H1302 H 0.48616 0.77423 0.68915 0.0
C1303 C 0.48495 0.68226 0.67949 0.0
C1304 C 0.51212 0.72116 0.73596 0.0
H1305 H 0.48352 0.76802 0.75451 0.0
C1306 C 0.53268 0.73088 0.72863 0.0
C1307 C 0.49551 0.73449 0.74979 0.0
C1308 C 0.47472 0.72466 0.76359 0.0
C1309 C 0.535 0.75396 0.72753 0.0
C1310 C 0.5162 0.76735 0.73403 0.0
C1311 C 0.49756 0.75766 0.74815 0.0
C1312 C 0.51293 0.78818 0.7166 0.0
C1313 C 0.55628 0.7635 0.71459 0.0
C1314 C 0.52766 0.80607 0.71961 0.0
C1315 C 0.52886 0.82207 0.69634 0.0
C1316 C 0.51477 0.82076 0.67047 0.0
C1317 C 0.49847 0.80423 0.66916 0.0
C1318 C 0.49767 0.78793 0.69196 0.0
H1319 H 0.56932 0.75062 0.71131 0.0
H1320 H 0.55299 0.77147 0.6919 0.0
H1321 H 0.56297 0.77628 0.73049 0.0
H1322 H 0.53921 0.80684 0.73878 0.0
H1323 H 0.54114 0.83516 0.69826 0.0
H1324 H 0.59463 0.20868 0.96902 0.0
H1325 H 0.56355 0.21047 1.00543 0.0
H1326 H 0.53549 0.26504 0.95364 0.0
H1327 H 0.56702 0.26395 0.91812 0.0
H1328 H 0.52389 0.26572 0.01768 0.0
H1329 H 0.51005 0.18195 0.96544 0.0
H1330 H 0.53422 0.18696 0.98879 0.0
H1331 H 0.53211 0.19929 0.95106 0.0
C1332 C 0.58201 0.22135 0.96588 0.0
C1333 C 0.58256 0.23567 0.94023 0.0
C1334 C 0.56443 0.22245 0.98683 0.0
C1335 C 0.54695 0.23743 0.9817 0.0
C1336 C 0.5488 0.25327 0.95795 0.0
H1337 H 0.43782 0.27814 0.92498 0.0
H1338 H 0.4686 0.27327 0.96068 0.0
C1339 C 0.56661 0.25248 0.93741 0.0
C1340 C 0.52477 0.23375 0.99536 0.0
H1341 H 0.47927 0.20362 0.97537 0.0
C1342 C 0.51409 0.25175 1.00961 0.0
C1343 C 0.51206 0.21508 0.98614 0.0
C1344 C 0.52257 0.19467 0.97203 0.0
C1345 C 0.49081 0.2532 1.00988 0.0
C1346 C 0.47831 0.23662 0.99463 0.0
C1347 C 0.48886 0.21676 0.98609 0.0
C1348 C 0.45692 0.24178 0.97913 0.0
C1349 C 0.48001 0.27336 0.02402 0.0
C1350 C 0.44012 0.22563 0.9769 0.0
C1351 C 0.42312 0.22794 0.9551 0.0
C1352 C 0.42243 0.24661 0.93578 0.0
C1353 C 0.43824 0.26344 0.93945 0.0
C1354 C 0.45554 0.2609 0.96052 0.0
H1355 H 0.48786 0.27712 0.04664 0.0
H1356 H 0.48278 0.288 1.00891 0.0
H1357 H 0.46185 0.271 0.02747 0.0
H1358 H 0.44079 0.21076 0.99095 0.0
H1359 H 0.41057 0.21521 0.95341 0.0
H1360 H 0.0436 0.84311 0.82955 0.0
H1361 H 0.04052 0.81574 0.78804 0.0
H1362 H 0.98276 0.78772 0.83283 0.0
H1363 H 0.98558 0.81525 0.87364 0.0
H1364 H 0.04726 0.77458 0.79781 0.0
H1365 H 0.96509 0.7765 0.74618 0.0
H1366 H 0.97681 0.80107 0.7639 0.0
H1367 H 0.96015 0.78183 0.78616 0.0
C1368 C 0.03008 0.83124 0.83016 0.0
C1369 C 0.01496 0.83092 0.85491 0.0
C1370 C 0.02814 0.81588 0.8062 0.0
C1371 C 0.01116 0.79992 0.80681 0.0
C1372 C 0.99553 0.80033 0.83101 0.0
H1373 H 0.98207 0.7037 0.87648 0.0
H1374 H 0.98687 0.73408 0.8397 0.0
C1375 C -0.00265 0.81578 0.85474 0.0
C1376 C 0.01252 0.77979 0.78739 0.0
H1377 H 0.97549 0.73878 0.772 0.0
C1378 C 0.03188 0.76687 0.79034 0.0
C1379 C 0.99298 0.76979 0.77583 0.0
C1380 C 0.97273 0.78326 0.76752 0.0
C1381 C 0.03055 0.74365 0.78991 0.0
C1382 C 0.00941 0.73372 0.78661 0.0
C1383 C 0.99151 0.74658 0.77593 0.0
C1384 C 0.00407 0.71414 0.80555 0.0
C1385 C 0.05083 0.73016 0.79843 0.0
C1386 C 0.01219 0.69297 0.79844 0.0
C1387 C 0.00966 0.67568 0.81966 0.0
C1388 C -0.00098 0.67943 0.84815 0.0
C1389 C 0.99041 0.70046 0.85479 0.0
C1390 C 0.99293 0.71769 0.83364 0.0
H1391 H 0.06633 0.74016 0.79713 0.0
H1392 H 0.04905 0.72375 0.82234 0.0
H1393 H 0.05247 0.7157 0.78273 0.0
H1394 H 0.02091 0.68998 0.77697 0.0
H1395 H 0.01628 0.65948 0.81393 0.0
H1396 H 0.56063 0.77595 0.15869 0.0
H1397 H 0.52654 0.76616 0.13122 0.0
H1398 H 0.56126 0.76991 0.04433 0.0
H1399 H 0.59534 0.78027 0.07154 0.0
H1400 H 0.50139 0.78118 0.0686 0.0
H1401 H 0.5477 0.70084 0.07126 0.0
H1402 H 0.5558 0.7225 0.09769 0.0
H1403 H 0.56028 0.72607 0.05706 0.0
C1404 C 0.56075 0.7757 0.13368 0.0
C1405 C 0.58064 0.77823 0.11728 0.0
C1406 C 0.5413 0.77018 0.118 0.0
C1407 C 0.54167 0.76702 0.08591 0.0
C1408 C 0.56079 0.77227 0.06911 0.0
H1409 H 0.41441 0.70013 0.07415 0.0
H1410 H 0.44878 0.70889 0.04656 0.0
C1411 C 0.58021 0.77812 0.08476 0.0
C1412 C 0.52391 0.75353 0.07221 0.0
H1413 H 0.50852 0.69918 0.07583 0.0
C1414 C 0.50293 0.76322 0.06841 0.0
C1415 C 0.52621 0.73014 0.07168 0.0
C1416 C 0.54869 0.71912 0.0745 0.0
C1417 C 0.48377 0.75001 0.06841 0.0
C1418 C 0.48598 0.72684 0.07311 0.0
C1419 C 0.50704 0.71698 0.07246 0.0
C1420 C 0.46786 0.71459 0.08808 0.0
C1421 C 0.46124 0.7611 0.06754 0.0
C1422 C 0.46786 0.71354 0.12045 0.0
C1423 C 0.44826 0.70893 0.1363 0.0
C1424 C 0.42858 0.70523 0.1198 0.0
C1425 C 0.42938 0.70328 0.0874 0.0
C1426 C 0.44894 0.70821 0.07154 0.0
H1427 H 0.46242 0.77901 0.06153 0.0
H1428 H 0.45041 0.75278 0.05032 0.0
H1429 H 0.45311 0.75955 0.09045 0.0
H1430 H 0.48246 0.71841 0.13347 0.0
H1431 H 0.4481 0.71027 0.16123 0.0
H1432 H 0.49008 0.19934 0.38032 0.0
H1433 H 0.48618 0.227 0.33961 0.0
H1434 H 0.51832 0.18298 0.27496 0.0
H1435 H 0.52153 0.15465 0.31567 0.0
H1436 H 0.5374 0.22759 0.28378 0.0
H1437 H 0.44847 0.23253 0.25706 0.0
H1438 H 0.45213 0.22516 0.2969 0.0
H1439 H 0.4623 0.20675 0.2673 0.0
C1440 C 0.49619 0.19546 0.35744 0.0
C1441 C 0.50639 0.17504 0.35122 0.0
C1442 C 0.4936 0.21108 0.33405 0.0
C1443 C 0.50137 0.2067 0.30409 0.0
C1444 C 0.51175 0.18639 0.29774 0.0
H1445 H 0.52764 0.33897 0.31629 0.0
H1446 H 0.52198 0.31274 0.27403 0.0
C1447 C 0.51393 0.17048 0.32111 0.0
C1448 C 0.5018 0.22528 0.28199 0.0
H1449 H 0.46641 0.26868 0.27264 0.0
C1450 C 0.52203 0.2366 0.27967 0.0
C1451 C 0.4819 0.23653 0.27473 0.0
C1452 C 0.45998 0.22446 0.27375 0.0
C1453 C 0.52236 0.25987 0.27909 0.0
C1454 C 0.50178 0.27148 0.28019 0.0
C1455 C 0.48212 0.25979 0.27347 0.0
C1456 C 0.49964 0.29152 0.29989 0.0
C1457 C 0.54453 0.27137 0.28255 0.0
C1458 C 0.48709 0.28975 0.32729 0.0
C1459 C 0.48943 0.30534 0.35079 0.0
C1460 C 0.50483 0.32254 0.34763 0.0
C1461 C 0.51601 0.32544 0.31942 0.0
C1462 C 0.51289 0.31039 0.29532 0.0
H1463 H 0.55873 0.25967 0.28008 0.0
H1464 H 0.54631 0.28441 0.26463 0.0
H1465 H 0.54574 0.27924 0.30564 0.0
H1466 H 0.47665 0.27541 0.33155 0.0
H1467 H 0.48041 0.30306 0.3722 0.0
H1468 H 0.06668 0.27254 0.62911 0.0
H1469 H 0.03588 0.27698 0.59323 0.0
H1470 H 0.0692 0.23435 0.52761 0.0
H1471 H 0.09883 0.22789 0.56534 0.0
H1472 H 0.02279 0.28767 0.53703 0.0
H1473 H 0.0191 0.19499 0.54284 0.0
H1474 H 0.04031 0.20866 0.56498 0.0
H1475 H 0.04151 0.20871 0.52336 0.0
C1476 C 0.06741 0.26427 0.60693 0.0
C1477 C 0.08438 0.24917 0.60035 0.0
C1478 C 0.05001 0.26705 0.5861 0.0
C1479 C 0.04972 0.25523 0.55803 0.0
C1480 C 0.06846 0.24273 0.54965 0.0
H1481 H 0.91263 0.22275 0.57661 0.0
H1482 H 0.94325 0.22821 0.54022 0.0
C1483 C 0.08538 0.23911 0.57116 0.0
C1484 C 0.02799 0.25241 0.54237 0.0
H1485 H 0.98654 0.21453 0.55169 0.0
C1486 C 0.01481 0.27156 0.53876 0.0
C1487 C 0.01743 0.2313 0.54276 0.0
C1488 C 0.03024 0.20971 0.54354 0.0
C1489 C 0.99182 0.27058 0.54376 0.0
C1490 C 0.98217 0.24994 0.55132 0.0
C1491 C 0.9944 0.23042 0.54717 0.0
C1492 C 0.96253 0.24856 0.57141 0.0
C1493 C 0.97854 0.2918 0.54474 0.0
C1494 C 0.96378 0.25745 0.60137 0.0
C1495 C 0.94666 0.25382 0.62249 0.0
C1496 C 0.92808 0.24129 0.61382 0.0
C1497 C 0.92701 0.2322 0.58393 0.0
C1498 C 0.9442 0.23565 0.56294 0.0
H1499 H 0.98529 0.30415 0.52812 0.0
H1500 H 0.96073 0.28873 0.5394 0.0
H1501 H 0.97972 0.29909 0.5682 0.0
H1502 H 0.97825 0.26681 0.60862 0.0
H1503 H 0.94775 0.26117 0.64524 0.0
H1504 H 0.05736 0.06329 0.07616 0.0
H1505 H 0.04602 0.0359 0.03726 0.0
H1506 H 0.98607 0.02266 0.08871 0.0
H1507 H -0.0027 0.04991 0.12759 0.0
H1508 H 0.03414 0.98925 0.04513 0.0
H1509 H 0.96453 0.04122 1.00066 0.0
H1510 H 0.987 0.05244 0.02352 0.0
H1511 H 0.96503 0.03714 0.04178 0.0
C1512 C 0.04193 0.0543 0.07931 0.0
C1513 C 0.02807 0.05878 0.1046 0.0
C1514 C 0.03543 0.03879 0.05708 0.0
C1515 C 0.01502 0.02767 0.05993 0.0
C1516 C 0.00167 0.03143 0.08588 0.0
H1517 H 0.9478 0.92619 0.95283 0.0
H1518 H 0.95727 0.95509 0.9906 0.0
C1519 C 0.00816 0.04687 0.10809 0.0
C1520 C 0.00754 0.01222 0.03565 0.0
H1521 H 0.96728 0.00449 0.98104 0.0
C1522 C 0.0196 0.99258 0.03101 0.0
C1523 C 0.98852 0.01674 0.01741 0.0
C1524 C 0.97556 0.03809 0.0208 0.0
C1525 C 0.01291 0.97706 1.00878 0.0
C1526 C 0.99391 0.98155 0.99056 0.0
C1527 C 0.98181 0.00118 0.99519 0.0
C1528 C 0.98669 0.96605 0.96624 0.0
C1529 C 0.02603 0.95584 1.00513 0.0
C1530 C -0.0003 0.96335 0.93969 0.0
C1531 C 0.99428 0.94705 0.91815 0.0
C1532 C 0.97585 0.93316 0.92295 0.0
C1533 C 0.96211 0.9367 0.94867 0.0
C1534 C 0.96752 0.9531 0.97023 0.0
H1535 H 0.03761 0.95301 0.02475 0.0
H1536 H 0.01471 0.94133 1.0032 0.0
H1537 H 0.03598 0.95674 0.98359 0.0
H1538 H 0.01442 0.97341 0.93615 0.0
H1539 H 0.00502 0.94473 0.89834 0.0
H1540 H 0.19726 0.81147 0.33016 0.0
H1541 H 0.22235 0.79683 0.29048 0.0
H1542 H 0.21526 0.73097 0.32857 0.0
H1543 H 0.19021 0.7455 0.3683 0.0
H1544 H 0.263 0.77298 0.29846 0.0
H1545 H 0.1991 0.7234 0.23639 0.0
H1546 H 0.19197 0.74499 0.26355 0.0
H1547 H 0.20086 0.71822 0.27717 0.0
C1548 C 0.20114 0.79388 0.33009 0.0
C1549 C 0.19166 0.77953 0.35198 0.0
C1550 C 0.21539 0.78557 0.30744 0.0
C1551 C 0.22029 0.76279 0.30634 0.0
C1552 C 0.21127 0.74852 0.32868 0.0
H1553 H 0.30225 0.67937 0.19055 0.0
H1554 H 0.27639 0.69448 0.22884 0.0
C1555 C 0.19705 0.75684 0.35135 0.0
C1556 C 0.23506 0.75399 0.28204 0.0
H1557 H 0.2366 0.7186 0.22062 0.0
C1558 C 0.25725 0.76118 0.28131 0.0
C1559 C 0.22741 0.73858 0.25984 0.0
C1560 C 0.2035 0.73094 0.25898 0.0
C1561 C 0.2722 0.753 0.25925 0.0
C1562 C 0.26456 0.73758 0.23703 0.0
C1563 C 0.24235 0.73044 0.23772 0.0
C1564 C 0.27948 0.72847 0.21309 0.0
C1565 C 0.29616 0.76049 0.26036 0.0
C1566 C 0.28932 0.74255 0.19119 0.0
C1567 C 0.30406 0.73397 0.16935 0.0
C1568 C 0.30907 0.71119 0.16905 0.0
C1569 C 0.29867 0.69701 0.19035 0.0
C1570 C 0.28395 0.70561 0.21221 0.0
H1571 H 0.3005 0.76788 0.28306 0.0
H1572 H 0.30764 0.74642 0.25574 0.0
H1573 H 0.29892 0.77332 0.24235 0.0
H1574 H 0.28569 0.76018 0.1911 0.0
H1575 H 0.31166 0.74518 0.15287 0.0
H1576 H 0.53578 0.03618 0.40749 0.0
H1577 H 0.52508 0.00666 0.44357 0.0
H1578 H 0.48779 0.05431 0.49717 0.0
H1579 H 0.50024 0.08383 0.463 0.0
H1580 H 0.50902 0.03063 0.53397 0.0
H1581 H 0.46955 0.97266 0.45164 0.0
H1582 H 0.49798 0.97773 0.44154 0.0
H1583 H 0.47811 0.0002 0.44045 0.0
C1584 C 0.52523 0.04023 0.42694 0.0
C1585 C 0.51847 0.06222 0.43222 0.0
C1586 C 0.51889 0.02332 0.44736 0.0
C1587 C 0.50509 0.02806 0.47275 0.0
C1588 C 0.49829 0.05008 0.47773 0.0
H1589 H 0.44348 0.92206 0.58105 0.0
H1590 H 0.44978 0.95363 0.54637 0.0
C1591 C 0.50519 0.06697 0.45796 0.0
C1592 C 0.49871 0.01055 0.49531 0.0
H1593 H 0.47758 0.95815 0.5019 0.0
C1594 C 0.50189 0.01489 0.52687 0.0
C1595 C 0.48904 0.99011 0.4863 0.0
C1596 C 0.48324 0.98501 0.45316 0.0
C1597 C 0.49592 -0.00059 0.54956 0.0
C1598 C 0.48765 0.97841 0.54045 0.0
C1599 C 0.48415 0.97414 0.50894 0.0
C1600 C 0.48308 0.96043 0.56308 0.0
C1601 C 0.4981 0.00607 0.58302 0.0
C1602 C 0.49952 0.9539 0.58429 0.0
C1603 C 0.49565 0.93641 0.6047 0.0
C1604 C 0.47567 0.92441 0.60338 0.0
C1605 C 0.45907 0.93101 0.58246 0.0
C1606 C 0.46273 0.94893 0.56253 0.0
H1607 H 0.49638 0.02434 0.58582 0.0
H1608 H 0.48538 -0.00217 0.59764 0.0
H1609 H 0.51487 0.00138 0.59155 0.0
H1610 H 0.5156 0.96199 0.58464 0.0
H1611 H 0.50865 0.93176 0.62081 0.0
H1612 H 0.30713 0.25268 0.88222 0.0
H1613 H 0.27918 0.26321 0.84361 0.0
H1614 H 0.28879 0.20054 0.79727 0.0
H1615 H 0.31663 0.1899 0.83583 0.0
H1616 H 0.28708 0.2668 0.77965 0.0
H1617 H 0.2208 0.20525 0.80532 0.0
H1618 H 0.24295 0.21147 0.83215 0.0
H1619 H 0.24797 0.19344 0.79986 0.0
C1620 C 0.30306 0.24108 0.86397 0.0
C1621 C 0.314 0.22052 0.86187 0.0
C1622 C 0.28716 0.24711 0.84198 0.0
C1623 C 0.28182 0.23256 0.81782 0.0
C1624 C 0.29241 0.21182 0.81607 0.0
H1625 H 0.1976 0.24043 0.65586 0.0
H1626 H 0.22535 0.22998 0.6948 0.0
C1627 C 0.30833 0.2058 0.83803 0.0
C1628 C 0.26609 0.23956 0.79347 0.0
H1629 H 0.21674 0.22626 0.75922 0.0
C1630 C 0.27162 0.25804 0.77526 0.0
C1631 C 0.24604 0.228 0.78782 0.0
C1632 C 0.23892 0.20855 0.80746 0.0
C1633 C 0.25776 0.26507 0.7511 0.0
C1634 C 0.23775 0.25347 0.7454 0.0
C1635 C 0.23219 0.23501 0.76364 0.0
C1636 C 0.22208 0.26041 0.72095 0.0
C1637 C 0.26482 0.28456 0.7315 0.0
C1638 C 0.21121 0.28099 0.72281 0.0
C1639 C 0.19538 0.28695 0.7007 0.0
C1640 C 0.19008 0.27232 0.67658 0.0
C1641 C 0.20133 0.25194 0.67436 0.0
C1642 C 0.21713 0.24596 0.69652 0.0
H1643 H 0.28288 0.28811 0.73394 0.0
H1644 H 0.26107 0.28151 0.70676 0.0
H1645 H 0.25549 0.29957 0.73883 0.0
H1646 H 0.21456 0.2922 0.74179 0.0
H1647 H 0.18683 0.30272 0.703 0.0
H1648 H 0.68083 0.29402 0.83178 0.0
H1649 H 0.70918 0.28424 0.79347 0.0
H1650 H 0.72439 0.22444 0.8443 0.0
H1651 H 0.69626 0.23426 0.88286 0.0
H1652 H 0.76232 0.2494 0.82391 0.0
H1653 H 0.70138 0.23314 0.72997 0.0
H1654 H 0.6985 0.2596 0.74875 0.0
H1655 H 0.69351 0.23451 0.77011 0.0
C1656 C 0.69037 0.2789 0.83488 0.0
C1657 C 0.68633 0.26478 0.86004 0.0
C1658 C 0.70639 0.27326 0.81292 0.0
C1659 C 0.71854 0.25346 0.8159 0.0
C1660 C 0.71503 0.23972 0.84157 0.0
H1661 H 0.81856 0.18758 0.70359 0.0
H1662 H 0.79072 0.19682 0.74299 0.0
C1663 C 0.699 0.24532 0.86349 0.0
C1664 C 0.73486 0.24698 0.79213 0.0
H1665 H 0.7396 0.23268 0.71624 0.0
C1666 C 0.75739 0.24564 0.8004 0.0
C1667 C 0.72823 0.24201 0.76159 0.0
C1668 C 0.70408 0.24217 0.752 0.0
C1669 C 0.77363 0.23988 0.77861 0.0
C1670 C 0.76702 0.23516 0.74803 0.0
C1671 C 0.74449 0.23637 0.73979 0.0
C1672 C 0.78338 0.2293 0.72409 0.0
C1673 C 0.79778 0.23931 0.78815 0.0
C1674 C 0.78802 0.2444 0.70033 0.0
C1675 C 0.80385 0.2392 0.67795 0.0
C1676 C 0.81509 0.21876 0.67895 0.0
C1677 C 0.81006 0.20344 0.70237 0.0
C1678 C 0.79432 0.20872 0.72489 0.0
H1679 H 0.80045 0.24676 0.8113 0.0
H1680 H 0.80359 0.2218 0.78885 0.0
H1681 H 0.80819 0.24833 0.77108 0.0
H1682 H 0.77962 0.26032 0.69937 0.0
H1683 H 0.80736 0.25121 0.65996 0.0
H1684 H 0.79328 0.70997 0.38758 0.0
H1685 H 0.76504 0.72029 0.34912 0.0
H1686 H 0.81648 0.7468 0.29025 0.0
H1687 H 0.84462 0.73544 0.32756 0.0
H1688 H 0.7519 0.75832 0.32359 0.0
H1689 H 0.78679 0.70475 0.23217 0.0
H1690 H 0.79614 0.70322 0.27167 0.0
H1691 H 0.80719 0.72402 0.24596 0.0
C1692 C 0.79847 0.71806 0.36645 0.0
C1693 C 0.82112 0.72183 0.36045 0.0
C1694 C 0.78237 0.72394 0.34451 0.0
C1695 C 0.78871 0.73378 0.31643 0.0
C1696 C 0.81124 0.73857 0.31126 0.0
H1697 H 0.70668 0.80816 0.18956 0.0
H1698 H 0.73144 0.79531 0.23066 0.0
C1699 C 0.8273 0.73236 0.33283 0.0
C1700 C 0.77194 0.739 0.29234 0.0
H1701 H 0.76109 0.73282 0.21551 0.0
C1702 C 0.75377 0.75256 0.30001 0.0
C1703 C 0.77404 0.73103 0.26174 0.0
C1704 C 0.79196 0.71474 0.25249 0.0
C1705 C 0.73815 0.7591 0.27765 0.0
C1706 C 0.74124 0.75249 0.24657 0.0
C1707 C 0.75892 0.73823 0.23919 0.0
C1708 C 0.72652 0.76032 0.22127 0.0
C1709 C 0.71838 0.77277 0.28769 0.0
C1710 C 0.71646 0.74499 0.20121 0.0
C1711 C 0.70283 0.75235 0.17712 0.0
C1712 C 0.69878 0.77513 0.17297 0.0
C1713 C 0.70932 0.79047 0.19248 0.0
C1714 C 0.72323 0.78314 0.21624 0.0
H1715 H 0.71446 0.76996 0.31245 0.0
H1716 H 0.72228 0.79066 0.28475 0.0
H1717 H 0.70336 0.76883 0.27378 0.0
H1718 H 0.71902 0.72731 0.20432 0.0
H1719 H 0.6953 0.74021 0.16194 0.0
H1720 H 0.5618 0.56087 0.57831 0.0
H1721 H 0.55153 0.53064 0.54312 0.0
H1722 H 0.49021 0.52117 0.59307 0.0
H1723 H 0.50032 0.55137 0.62816 0.0
H1724 H 0.53984 0.485 0.55561 0.0
H1725 H 0.47049 0.5332 0.503 0.0
H1726 H 0.4919 0.54603 0.52616 0.0
H1727 H 0.46968 0.53097 0.54434 0.0
C1728 C 0.54624 0.55217 0.5819 0.0
C1729 C 0.53169 0.55855 0.60561 0.0
C1730 C 0.5404 0.53498 0.56183 0.0
C1731 C 0.51996 0.52402 0.56526 0.0
C1732 C 0.50587 0.52975 0.58975 0.0
H1733 H 0.45143 0.42162 0.46134 0.0
H1734 H 0.46229 0.45001 0.49905 0.0
C1735 C 0.51169 0.54691 0.60979 0.0
C1736 C 0.51308 0.50695 0.54276 0.0
H1737 H 0.47404 0.49557 0.48779 0.0
C1738 C 0.52551 0.48728 0.54069 0.0
C1739 C 0.49437 0.51009 0.52343 0.0
C1740 C 0.48091 0.53128 0.52403 0.0
C1741 C 0.51947 0.47043 0.51999 0.0
C1742 C 0.50078 0.47361 0.50064 0.0
C1743 C 0.48834 0.49325 0.50277 0.0
C1744 C 0.49407 0.45685 0.47763 0.0
C1745 C 0.53288 0.4492 0.51932 0.0
C1746 C 0.50814 0.45181 0.45284 0.0
C1747 C 0.50195 0.43578 0.43129 0.0
C1748 C 0.48159 0.42455 0.43427 0.0
C1749 C 0.46723 0.43004 0.45862 0.0
C1750 C 0.47342 0.44615 0.48015 0.0
H1751 H 0.54323 0.44722 0.5404 0.0
H1752 H 0.52184 0.4345 0.51708 0.0
H1753 H 0.54416 0.44948 0.49906 0.0
H1754 H 0.52393 0.46027 0.45019 0.0
H1755 H 0.51318 0.43202 0.41246 0.0
H1756 H 0.0418 0.54606 0.90031 0.0
H1757 H 0.03472 0.51534 0.93639 0.0
H1758 H -0.00227 0.55984 0.99525 0.0
H1759 H 0.00596 0.59054 0.96065 0.0
H1760 H 0.02441 0.53548 0.02831 0.0
H1761 H 0.97857 0.48049 0.94755 0.0
H1762 H 0.00622 0.48717 0.93503 0.0
H1763 H 0.98562 0.50878 0.93795 0.0
C1764 C 0.03215 0.54916 0.92096 0.0
C1765 C 0.02411 0.57056 0.92746 0.0
C1766 C 0.02795 0.5316 0.9414 0.0
C1767 C 0.0153 0.53517 0.96823 0.0
C1768 C 0.00743 0.55662 0.97466 0.0
H1769 H 0.94603 0.4402 0.08172 0.0
H1770 H 0.95775 0.46832 0.04428 0.0
C1771 C 0.01197 0.57414 0.95467 0.0
C1772 C 0.01056 0.51697 0.99036 0.0
H1773 H 0.98583 0.4662 0.99745 0.0
C1774 C 0.01598 0.52031 0.02154 0.0
C1775 C -0.00066 0.49731 0.98156 0.0
C1776 C 0.99189 0.49326 0.94877 0.0
C1777 C 0.01009 0.50483 0.04428 0.0
C1778 C -0.0007 0.48495 0.03542 0.0
C1779 C 0.99422 0.48139 1.00417 0.0
C1780 C 0.99235 0.46801 0.05832 0.0
C1781 C 0.0147 0.51045 0.07765 0.0
C1782 C 0.00788 0.45849 0.07865 0.0
C1783 C 0.00109 0.44287 0.10053 0.0
C1784 C 0.97882 0.43595 0.10176 0.0
C1785 C 0.96332 0.44528 0.08125 0.0
C1786 C 0.97002 0.46121 0.05974 0.0
H1787 H 0.01669 0.52863 0.08105 0.0
H1788 H 0.00111 0.50453 0.09291 0.0
H1789 H 0.03044 0.50233 0.08494 0.0
H1790 H 0.02527 0.46309 0.07757 0.0
H1791 H 0.01329 0.43615 0.1164 0.0
H1792 H 0.12888 0.14465 0.3131 0.0
H1793 H 0.14153 0.1573 0.36365 0.0
H1794 H 0.07614 0.18337 0.38264 0.0
H1795 H 0.06302 0.16985 0.33263 0.0
H1796 H 0.14395 0.19865 0.38648 0.0
H1797 H 0.08819 0.14855 0.46062 0.0
H1798 H 0.09149 0.14317 0.41991 0.0
H1799 H 0.07329 0.165 0.4329 0.0
C1800 C 0.117 0.15266 0.32821 0.0
C1801 C 0.09481 0.15599 0.31871 0.0
C1802 C 0.12435 0.16008 0.35708 0.0
C1803 C 0.10974 0.17099 0.37729 0.0
C1804 C 0.08764 0.17455 0.36783 0.0
H1805 H 0.13912 0.25994 0.5265 0.0
H1806 H 0.13256 0.24188 0.47714 0.0
C1807 C 0.08023 0.16706 0.33897 0.0
C1808 C 0.11791 0.17939 0.40766 0.0
H1809 H 0.10765 0.17827 0.48528 0.0
C1810 C 0.13611 0.19403 0.40809 0.0
C1811 C 0.10799 0.17311 0.43601 0.0
C1812 C 0.08931 0.15642 0.43746 0.0
C1813 C 0.14414 0.20311 0.43584 0.0
C1814 C 0.13348 0.19773 0.464 0.0
C1815 C 0.11577 0.18252 0.46372 0.0
C1816 C 0.13957 0.20867 0.49368 0.0
C1817 C 0.16405 0.21834 0.43471 0.0
C1818 C 0.1457 0.19607 0.51971 0.0
C1819 C 0.14948 0.20642 0.54828 0.0
C1820 C 0.14693 0.22955 0.55141 0.0
C1821 C 0.14144 0.24212 0.52502 0.0
C1822 C 0.13772 0.23181 0.49661 0.0
H1823 H 0.17438 0.21517 0.41392 0.0
H1824 H 0.15822 0.23583 0.43361 0.0
H1825 H 0.17464 0.21638 0.45555 0.0
H1826 H 0.1471 0.17817 0.51807 0.0
H1827 H 0.15337 0.19619 0.56815 0.0
H1828 H 0.14011 0.87183 0.59135 0.0
H1829 H 0.12465 0.88068 0.64218 0.0
H1830 H 0.06461 0.84525 0.61897 0.0
H1831 H 0.07997 0.83624 0.56832 0.0
H1832 H 0.08749 0.90416 0.65768 0.0
H1833 H 0.08003 0.81807 0.70151 0.0
H1834 H 0.09589 0.82486 0.66743 0.0
H1835 H 0.06613 0.8218 0.66523 0.0
C1836 C 0.12361 0.86591 0.59709 0.0
C1837 C 0.11134 0.85319 0.57582 0.0
C1838 C 0.11483 0.87094 0.62619 0.0
C1839 C 0.09362 0.86331 0.63466 0.0
C1840 C 0.08125 0.85081 0.61334 0.0
H1841 H -0.00107 0.87765 0.77953 0.0
H1842 H 0.01965 0.87289 0.73178 0.0
C1843 C 0.09005 0.84568 0.58434 0.0
C1844 C 0.08408 0.86895 0.66535 0.0
H1845 H 0.0599 0.84597 0.72917 0.0
C1846 C 0.08171 0.89144 0.6735 0.0
C1847 C 0.07668 0.85236 0.68613 0.0
C1848 C 0.08001 0.82793 0.67981 0.0
C1849 C 0.07125 0.89775 0.70119 0.0
C1850 C 0.0631 0.88114 0.72128 0.0
C1851 C 0.06604 0.85868 0.71358 0.0
C1852 C 0.05033 0.88652 0.7496 0.0
C1853 C 0.06823 0.92208 0.70831 0.0
C1854 C 0.0606 0.89624 0.77541 0.0
C1855 C 0.04874 0.89902 0.80304 0.0
C1856 C 0.02645 0.89205 0.80523 0.0
C1857 C 0.01606 0.88321 0.77882 0.0
C1858 C 0.02789 0.8804 0.75142 0.0
H1859 H 0.07264 0.93283 0.68838 0.0
H1860 H 0.05074 0.9255 0.71505 0.0
H1861 H 0.07903 0.92666 0.72809 0.0
H1862 H 0.078 0.90086 0.77457 0.0
H1863 H 0.05731 0.90567 0.82299 0.0
H1864 H 0.35832 0.71962 0.01852 0.0
H1865 H 0.36907 0.73712 0.96996 0.0
H1866 H 0.38981 0.79574 0.01925 0.0
H1867 H 0.37964 0.77805 0.06824 0.0
H1868 H 0.3558 0.77544 0.9409 0.0
H1869 H 0.44562 0.78004 0.9706 0.0
H1870 H 0.42608 0.76395 0.99292 0.0
H1871 H 0.42745 0.79358 0.99755 0.0
C1872 C 0.36512 0.73626 0.01915 0.0
C1873 C 0.36834 0.74728 0.04744 0.0
C1874 C 0.37121 0.74629 0.99126 0.0
C1875 C 0.38073 0.76757 0.99091 0.0
C1876 C 0.383 0.77909 0.01895 0.0
H1877 H 0.43223 0.84697 0.83694 0.0
H1878 H 0.42015 0.83384 0.88783 0.0
C1879 C 0.37691 0.76904 0.04695 0.0
C1880 C 0.38845 0.77737 0.96116 0.0
H1881 H 0.43471 0.79575 0.92284 0.0
C1882 C 0.37305 0.7799 0.93699 0.0
C1883 C 0.411 0.78317 0.95597 0.0
C1884 C 0.42857 0.7799 0.98049 0.0
C1885 C 0.37951 0.78809 0.90793 0.0
C1886 C 0.40207 0.79364 0.90264 0.0
C1887 C 0.41743 0.79147 0.92691 0.0
C1888 C 0.41003 0.80136 0.87189 0.0
C1889 C 0.36207 0.79093 0.88316 0.0
C1890 C 0.40879 0.78732 0.84607 0.0
C1891 C 0.41567 0.79476 0.81696 0.0
C1892 C 0.42397 0.81644 0.81297 0.0
C1893 C 0.42565 0.83029 0.83905 0.0
C1894 C 0.41886 0.82278 0.86821 0.0
H1895 H 0.34499 0.79123 0.89295 0.0
H1896 H 0.36483 0.80651 0.86995 0.0
H1897 H 0.36312 0.7768 0.8668 0.0
H1898 H 0.40235 0.7706 0.84842 0.0
H1899 H 0.41397 0.78368 0.79743 0.0
H1900 H 0.50988 0.09436 0.28217 0.0
H1901 H 0.49105 0.10008 0.23273 0.0
H1902 H 0.42998 0.11506 0.28042 0.0
H1903 H 0.44865 0.10928 0.33013 0.0
H1904 H 0.44788 0.0818 0.20599 0.0
H1905 H 0.44919 0.1728 0.22934 0.0
H1906 H 0.46727 0.1536 0.24933 0.0
H1907 H 0.43831 0.15493 0.25904 0.0
C1908 C 0.49228 0.09828 0.28218 0.0
C1909 C 0.4808 0.10145 0.31013 0.0
C1910 C 0.48157 0.10159 0.25389 0.0
C1911 C 0.45925 0.10831 0.25299 0.0
C1912 C 0.44729 0.11005 0.2807 0.0
H1913 H 0.38315 0.16522 0.10031 0.0
H1914 H 0.3957 0.15227 0.15095 0.0
C1915 C 0.45795 0.10654 0.30908 0.0
C1916 C 0.44918 0.11526 0.22324 0.0
H1917 H 0.43405 0.16127 0.18197 0.0
C1918 C 0.44472 0.09914 0.20073 0.0
C1919 C 0.44516 0.13791 0.2165 0.0
C1920 C 0.45031 0.15592 0.23964 0.0
C1921 C 0.43621 0.10508 0.17161 0.0
C1922 C 0.43263 0.12781 0.16457 0.0
C1923 C 0.43682 0.14387 0.18732 0.0
C1924 C 0.42489 0.13534 0.13363 0.0
C1925 C 0.43088 0.08692 0.14881 0.0
C1926 C 0.43729 0.13045 0.10704 0.0
C1927 C 0.43005 0.13767 0.07799 0.0
C1928 C 0.41034 0.15014 0.07489 0.0
C1929 C 0.39819 0.15535 0.1017 0.0
C1930 C 0.40541 0.14807 0.13073 0.0
H1931 H 0.42821 0.07072 0.16056 0.0
H1932 H 0.4158 0.09103 0.13511 0.0
H1933 H 0.44507 0.08492 0.13267 0.0
H1934 H 0.45265 0.12111 0.10873 0.0
H1935 H 0.43976 0.13317 0.05791 0.0
H1936 H 0.88355 0.78315 0.45901 0.0
H1937 H 0.89095 0.80242 0.5078 0.0
H1938 H 0.86997 0.74448 0.55846 0.0
H1939 H 0.86263 0.72505 0.50998 0.0
H1940 H 0.8543 0.78929 0.58171 0.0
H1941 H 0.9457 0.78137 0.56332 0.0
H1942 H 0.9291 0.79183 0.53186 0.0
H1943 H 0.92584 0.76357 0.54421 0.0
C1944 C 0.88005 0.77465 0.4805 0.0
C1945 C 0.87253 0.7525 0.48052 0.0
C1946 C 0.88443 0.78565 0.50837 0.0
C1947 C 0.88122 0.77479 0.53672 0.0
C1948 C 0.87261 0.75315 0.53684 0.0
H1949 H 0.93409 0.79271 0.71979 0.0
H1950 H 0.92248 0.77989 0.66874 0.0
C1951 C 0.86841 0.74207 0.50906 0.0
C1952 C 0.88806 0.78534 0.56625 0.0
H1953 H 0.93393 0.7986 0.60917 0.0
C1954 C 0.87168 0.79154 0.58765 0.0
C1955 C 0.91077 0.78794 0.57409 0.0
C1956 C 0.92899 0.78076 0.55236 0.0
C1957 C 0.87744 0.80028 0.61671 0.0
C1958 C 0.90017 0.80291 0.62451 0.0
C1959 C 0.91652 0.79673 0.60306 0.0
C1960 C 0.90734 0.81106 0.65536 0.0
C1961 C 0.85922 0.80602 0.63925 0.0
C1962 C 0.90296 0.83295 0.6647 0.0
C1963 C 0.90969 0.84038 0.69391 0.0
C1964 C 0.92089 0.82603 0.71444 0.0
C1965 C 0.92539 0.80417 0.70478 0.0
C1966 C 0.91882 0.79682 0.67552 0.0
H1967 H 0.84284 0.79927 0.63196 0.0
H1968 H 0.86325 0.79949 0.66259 0.0
H1969 H 0.85775 0.82435 0.64098 0.0
H1970 H 0.89433 0.8443 0.64939 0.0
H1971 H 0.90572 0.85724 0.70064 0.0
H1972 H 0.93993 0.14666 0.47081 0.0
H1973 H 0.95332 0.13449 0.42038 0.0
H1974 H 0.88699 0.14058 0.38332 0.0
H1975 H 0.8736 0.15369 0.43337 0.0
H1976 H 0.9414 0.09808 0.38647 0.0
H1977 H 0.92296 0.17501 0.32033 0.0
H1978 H 0.92246 0.17412 0.36195 0.0
H1979 H 0.89937 0.16352 0.34007 0.0
C1980 C 0.92821 0.14583 0.45185 0.0
C1981 C 0.90566 0.15137 0.45627 0.0
C1982 C 0.93588 0.13865 0.42303 0.0
C1983 C 0.92126 0.13687 0.39786 0.0
C1984 C 0.89872 0.1422 0.40218 0.0
H1985 H 0.9481 0.09877 0.20536 0.0
H1986 H 0.92881 0.10482 0.25462 0.0
C1987 C 0.89102 0.14946 0.43099 0.0
C1988 C 0.92963 0.129 0.36738 0.0
H1989 H 0.93586 0.14415 0.29176 0.0
C1990 C 0.94013 0.10815 0.36577 0.0
C1991 C 0.92794 0.14208 0.34026 0.0
C1992 C 0.91776 0.16501 0.34065 0.0
C1993 C 0.94906 0.10012 0.33794 0.0
C1994 C 0.94765 0.11333 0.31099 0.0
C1995 C 0.93675 0.13395 0.31239 0.0
C1996 C 0.95896 0.10695 0.28178 0.0
C1997 C 0.95999 0.07755 0.33757 0.0
C1998 C 0.98226 0.10579 0.28078 0.0
C1999 C 0.99326 0.10239 0.25279 0.0
C2000 C 0.98124 0.1 0.2251 0.0
C2001 C 0.95785 0.10017 0.22631 0.0
C2002 C 0.94681 0.10383 0.25439 0.0
H2003 H 0.95448 0.06714 0.35733 0.0
H2004 H 0.95627 0.06864 0.31575 0.0
H2005 H 0.97829 0.07964 0.33928 0.0
H2006 H 0.992 0.10849 0.30148 0.0
H2007 H 0.01129 0.10251 0.25268 0.0
H2008 H 0.64845 0.18575 0.96724 0.0
H2009 H 0.64257 0.16798 0.01771 0.0
H2010 H 0.64003 0.23241 0.06089 0.0
H2011 H 0.64567 0.25019 1.01092 0.0
H2012 H 0.66446 0.17087 0.07786 0.0
H2013 H 0.57849 0.20438 0.07888 0.0
H2014 H 0.59545 0.20391 0.04453 0.0
H2015 H 0.59942 0.22523 0.07302 0.0
C2016 C 0.64724 0.19608 0.98762 0.0
C2017 C 0.64739 0.21939 0.98503 0.0
C2018 C 0.64374 0.18591 0.0164 0.0
C2019 C 0.64037 0.19891 0.04292 0.0
C2020 C 0.64214 0.22208 0.04064 0.0
H2021 H 0.60387 0.18508 0.23368 0.0
H2022 H 0.61489 0.19701 0.182 0.0
C2023 C 0.6455 0.23221 1.01203 0.0
C2024 C 0.6336 0.18863 0.07267 0.0
H2025 H 0.59182 0.18898 0.1261 0.0
C2026 C 0.64851 0.17462 0.08832 0.0
C2027 C 0.6127 0.19344 0.08617 0.0
C2028 C 0.59548 0.20738 0.06969 0.0
C2029 C 0.64342 0.16604 0.11775 0.0
C2030 C 0.62279 0.17144 0.13163 0.0
C2031 C 0.60769 0.185 0.11557 0.0
C2032 C 0.61669 0.1638 0.16317 0.0
C2033 C 0.66045 0.15192 0.13423 0.0
C2034 C 0.61384 0.14113 0.16977 0.0
C2035 C 0.60732 0.13423 0.19932 0.0
C2036 C 0.60342 0.14987 0.22288 0.0
C2037 C 0.60637 0.17257 0.21609 0.0
C2038 C 0.61283 0.17943 0.18657 0.0
H2039 H 0.67714 0.15316 0.12338 0.0
H2040 H 0.66182 0.15684 0.15885 0.0
H2041 H 0.65514 0.13428 0.13343 0.0
H2042 H 0.61627 0.12879 0.15192 0.0
H2043 H 0.60488 0.11666 0.20351 0.0
H2044 H 0.49937 0.86967 0.7459 0.0
H2045 H 0.51998 0.86537 0.79391 0.0
H2046 H 0.57905 0.89078 0.75 0.0
H2047 H 0.55842 0.89519 0.70137 0.0
H2048 H 0.55825 0.83751 0.79905 0.0
H2049 H 0.57611 0.92472 0.83372 0.0
H2050 H 0.55428 0.91776 0.80672 0.0
H2051 H 0.58282 0.91702 0.7947 0.0
C2052 C 0.51664 0.87477 0.74642 0.0
C2053 C 0.52722 0.8828 0.71965 0.0
C2054 C 0.52842 0.87223 0.77397 0.0
C2055 C 0.55103 0.87778 0.77561 0.0
C2056 C 0.56152 0.88666 0.74936 0.0
H2057 H 0.64249 0.86208 0.93226 0.0
H2058 H 0.6265 0.87053 0.88155 0.0
C2059 C 0.5497 0.8892 0.72159 0.0
C2060 C 0.56369 0.87266 0.80426 0.0
H2061 H 0.59034 0.8963 0.86568 0.0
C2062 C 0.56534 0.85036 0.81359 0.0
C2063 C 0.57308 0.88941 0.82302 0.0
C2064 C 0.57145 0.91362 0.8143 0.0
C2065 C 0.57591 0.84436 0.8413 0.0
C2066 C 0.58465 0.86116 0.86068 0.0
C2067 C 0.58354 0.88343 0.85094 0.0
C2068 C 0.5944 0.85597 0.89148 0.0
C2069 C 0.57777 0.82004 0.8494 0.0
C2070 C 0.58162 0.84521 0.91413 0.0
C2071 C 0.5907 0.84035 0.94313 0.0
C2072 C 0.61273 0.84635 0.95029 0.0
C2073 C 0.62542 0.85736 0.92765 0.0
C2074 C 0.61633 0.86216 0.89859 0.0
H2075 H 0.57659 0.80939 0.82853 0.0
H2076 H 0.59372 0.81638 0.86135 0.0
H2077 H 0.56391 0.81543 0.86503 0.0
H2078 H 0.56447 0.84078 0.90952 0.0
H2079 H 0.58029 0.83228 0.96016 0.0
H2080 H 0.6257 0.63852 0.81967 0.0
H2081 H 0.63559 0.65168 0.87124 0.0
H2082 H 0.57902 0.69581 0.87036 0.0
H2083 H 0.56891 0.68254 0.81881 0.0
H2084 H 0.64729 0.69218 0.89005 0.0
H2085 H 0.57158 0.66678 0.95355 0.0
H2086 H 0.5776 0.6571 0.91505 0.0
H2087 H 0.56543 0.6841 0.92091 0.0
C2088 C 0.61533 0.65103 0.83042 0.0
C2089 C 0.59648 0.65946 0.81502 0.0
C2090 C 0.62097 0.65848 0.86002 0.0
C2091 C 0.6079 0.67452 0.87505 0.0
C2092 C 0.58907 0.683 0.85972 0.0
H2093 H 0.6478 0.76405 0.01962 0.0
H2094 H 0.63989 0.74474 0.9716 0.0
C2095 C 0.58334 0.67545 0.83015 0.0
C2096 C 0.61462 0.68306 0.90605 0.0
H2097 H 0.59591 0.69206 0.97955 0.0
C2098 C 0.63608 0.69197 0.90965 0.0
C2099 C 0.60022 0.6825 0.93192 0.0
C2100 C 0.57751 0.6719 0.93032 0.0
C2101 C 0.64324 0.70091 0.93794 0.0
C2102 C 0.62843 0.70142 0.96333 0.0
C2103 C 0.60723 0.69187 0.96007 0.0
C2104 C 0.63423 0.71272 0.99291 0.0
C2105 C 0.66672 0.7096 0.94037 0.0
C2106 C 0.63341 0.7013 0.02124 0.0
C2107 C 0.63786 0.71241 0.04908 0.0
C2108 C 0.64304 0.73521 0.04915 0.0
C2109 C 0.64408 0.74646 0.02064 0.0
C2110 C 0.63964 0.73539 0.99297 0.0
H2111 H 0.6778 0.7017 0.92304 0.0
H2112 H 0.66668 0.72776 0.93588 0.0
H2113 H 0.67376 0.70666 0.96372 0.0
H2114 H 0.62913 0.68383 0.02183 0.0
H2115 H 0.63667 0.70325 0.07055 0.0
H2116 H 0.55744 0.38869 0.32556 0.0
H2117 H 0.57541 0.38273 0.27542 0.0
H2118 H 0.51101 0.37717 0.23219 0.0
H2119 H 0.49303 0.38342 0.28172 0.0
H2120 H 0.57019 0.34397 0.24148 0.0
H2121 H 0.5441 0.41637 0.17132 0.0
H2122 H 0.54239 0.41615 0.21293 0.0
H2123 H 0.52111 0.40302 0.19008 0.0
C2124 C 0.54713 0.387 0.30519 0.0
C2125 C 0.52379 0.38663 0.30767 0.0
C2126 C 0.55742 0.38338 0.27659 0.0
C2127 C 0.54456 0.37967 0.24998 0.0
C2128 C 0.5213 0.38043 0.25221 0.0
H2129 H 0.55803 0.32759 0.06626 0.0
H2130 H 0.54592 0.34101 0.11689 0.0
C2131 C 0.51103 0.38395 0.28067 0.0
C2132 C 0.55514 0.37277 0.22051 0.0
H2133 H 0.55666 0.38431 0.14331 0.0
C2134 C 0.56757 0.35299 0.22008 0.0
C2135 C 0.55156 0.38445 0.19257 0.0
C2136 C 0.53924 0.40629 0.19172 0.0
C2137 C 0.57579 0.34416 0.19232 0.0
C2138 C 0.57166 0.35553 0.16431 0.0
C2139 C 0.55968 0.37555 0.16481 0.0
C2140 C 0.57922 0.34668 0.13412 0.0
C2141 C 0.58811 0.32231 0.19295 0.0
C2142 C 0.60196 0.34539 0.12707 0.0
C2143 C 0.60894 0.33771 0.09817 0.0
C2144 C 0.59329 0.33114 0.07577 0.0
C2145 C 0.57052 0.33223 0.0831 0.0
C2146 C 0.56356 0.34005 0.11193 0.0
H2147 H 0.58619 0.31358 0.21541 0.0
H2148 H 0.5821 0.31123 0.17424 0.0
H2149 H 0.60609 0.32538 0.18909 0.0
H2150 H 0.61431 0.35063 0.14376 0.0
H2151 H 0.6266 0.33694 0.09334 0.0
H2152 H 0.93114 0.32076 0.32398 0.0
H2153 H 0.91949 0.30621 0.37418 0.0
H2154 H 0.86734 0.35533 0.37844 0.0
H2155 H 0.87836 0.3695 0.3278 0.0
H2156 H 0.91687 0.32668 0.43135 0.0
H2157 H 0.83354 0.29757 0.39364 0.0
H2158 H 0.85501 0.30542 0.36666 0.0
H2159 H 0.83892 0.3264 0.38595 0.0
C2160 C 0.91704 0.32836 0.33541 0.0
C2161 C 0.90562 0.34624 0.32161 0.0
C2162 C 0.9105 0.32011 0.36425 0.0
C2163 C 0.89232 0.32944 0.37993 0.0
C2164 C 0.88116 0.34758 0.36658 0.0
H2165 H 0.86295 0.30046 0.57487 0.0
H2166 H 0.86949 0.32003 0.52604 0.0
C2167 C 0.88768 0.35584 0.33773 0.0
C2168 C 0.88512 0.32016 0.41023 0.0
H2169 H 0.84155 0.29498 0.44703 0.0
C2170 C 0.90037 0.31983 0.43481 0.0
C2171 C 0.86365 0.31099 0.41468 0.0
C2172 C 0.84687 0.30988 0.3888 0.0
C2173 C 0.89478 0.31061 0.46364 0.0
C2174 C 0.87321 0.30175 0.46821 0.0
C2175 C 0.85796 0.30206 0.44364 0.0
C2176 C 0.86677 0.29064 0.49759 0.0
C2177 C 0.91225 0.30975 0.48867 0.0
C2178 C 0.86201 0.26783 0.49771 0.0
C2179 C 0.85813 0.25663 0.52549 0.0
C2180 C 0.85878 0.26802 0.55386 0.0
C2181 C 0.86226 0.29115 0.55352 0.0
C2182 C 0.86624 0.30234 0.52563 0.0
H2183 H 0.92919 0.31306 0.47952 0.0
H2184 H 0.90846 0.32253 0.50634 0.0
H2185 H 0.91229 0.29327 0.50024 0.0
H2186 H 0.86218 0.25847 0.47637 0.0
H2187 H 0.85545 0.23884 0.52477 0.0
H2188 H 0.0103 0.60025 0.77683 0.0
H2189 H 0.9907 0.60107 0.72737 0.0
H2190 H 0.9278 0.60242 0.7749 0.0
H2191 H 0.94723 0.60151 0.82471 0.0
H2192 H 0.94521 0.57156 0.7058 0.0
H2193 H 0.94234 0.6638 0.71719 0.0
H2194 H 0.9648 0.64789 0.73395 0.0
H2195 H 0.93753 0.64633 0.7504 0.0
C2196 C 0.99227 0.60012 0.77687 0.0
C2197 C 0.98036 0.60089 0.80484 0.0
C2198 C 0.98112 0.60061 0.74853 0.0
C2199 C 0.95785 0.60195 0.74754 0.0
C2200 C 0.94579 0.60136 0.77526 0.0
H2201 H 0.87542 0.64731 0.59365 0.0
H2202 H 0.88978 0.63764 0.64484 0.0
C2203 C 0.95695 0.60072 0.8037 0.0
C2204 C 0.94647 0.60619 0.71772 0.0
H2205 H 0.92848 0.64844 0.67129 0.0
C2206 C 0.9414 0.58832 0.69824 0.0
C2207 C 0.94149 0.62807 0.70808 0.0
C2208 C 0.94677 0.64776 0.72832 0.0
C2209 C 0.9315 0.5918 0.66915 0.0
C2210 C 0.92709 0.6138 0.65903 0.0
C2211 C 0.93187 0.6316 0.6789 0.0
C2212 C 0.91791 0.61884 0.62779 0.0
C2213 C 0.92558 0.57185 0.64978 0.0
C2214 C 0.92899 0.61171 0.60103 0.0
C2215 C 0.92077 0.61716 0.57172 0.0
C2216 C 0.90142 0.63016 0.56847 0.0
C2217 C 0.89044 0.63742 0.5953 0.0
C2218 C 0.89859 0.63182 0.6246 0.0
H2219 H 0.92345 0.55674 0.66423 0.0
H2220 H 0.91003 0.57472 0.6365 0.0
H2221 H 0.93926 0.56855 0.63321 0.0
H2222 H 0.94429 0.60227 0.60277 0.0
H2223 H 0.92987 0.61164 0.55158 0.0
H2224 H 0.40711 0.36842 0.19936 0.0
H2225 H 0.39372 0.35626 0.14862 0.0
H2226 H 0.40344 0.28792 0.17533 0.0
H2227 H 0.41666 0.29989 0.22614 0.0
H2228 H 0.41668 0.32685 0.10347 0.0
H2229 H 0.33652 0.29319 0.14687 0.0
H2230 H 0.35292 0.31299 0.1684 0.0
H2231 H 0.36098 0.28427 0.1674 0.0
C2232 C 0.40637 0.3508 0.19443 0.0
C2233 C 0.41286 0.33511 0.21684 0.0
C2234 C 0.3988 0.3439 0.16542 0.0
C2235 C 0.39732 0.32121 0.15842 0.0
C2236 C 0.40422 0.30552 0.18045 0.0
H2237 H 0.36267 0.2348 1.01132 0.0
H2238 H 0.36986 0.25366 0.06002 0.0
C2239 C 0.41195 0.31239 0.20936 0.0
C2240 C 0.38852 0.31382 0.12814 0.0
H2241 H 0.34596 0.28479 0.09499 0.0
C2242 C 0.4011 0.31789 0.10147 0.0
C2243 C 0.36818 0.30216 0.1257 0.0
C2244 C 0.35371 0.298 0.15354 0.0
C2245 C 0.39433 0.30974 0.07254 0.0
C2246 C 0.37416 0.29769 0.07019 0.0
C2247 C 0.36132 0.29415 0.09679 0.0
C2248 C 0.36725 0.2868 0.04098 0.0
C2249 C 0.40932 0.31315 0.04501 0.0
C2250 C 0.3625 0.29918 1.01422 0.0
C2251 C 0.35825 0.28838 0.98614 0.0
C2252 C 0.35875 0.26505 0.98447 0.0
C2253 C 0.36226 0.2528 1.01174 0.0
C2254 C 0.36639 0.26355 0.03965 0.0
H2255 H 0.42611 0.31909 0.05185 0.0
H2256 H 0.41121 0.29745 0.03182 0.0
H2257 H 0.40181 0.32572 0.02941 0.0
H2258 H 0.36271 0.31716 1.01487 0.0
H2259 H 0.35573 0.29828 0.96555 0.0
H2260 H 0.37694 0.65598 0.93008 0.0
H2261 H 0.39263 0.64761 0.87926 0.0
H2262 H 0.43928 0.60226 0.92136 0.0
H2263 H 0.42356 0.6104 0.97214 0.0
H2264 H 0.43435 0.6541 0.85814 0.0
H2265 H 0.4145 0.56436 0.85247 0.0
H2266 H 0.40231 0.5826 0.88085 0.0
H2267 H 0.42988 0.57161 0.8865 0.0
C2268 C 0.39054 0.64422 0.92851 0.0
C2269 C 0.39892 0.63377 0.95517 0.0
C2270 C 0.39943 0.63937 0.89942 0.0
C2271 C 0.41686 0.62397 0.89635 0.0
C2272 C 0.42541 0.61369 0.92297 0.0
H2273 H 0.51333 0.61477 0.75103 0.0
H2274 H 0.49264 0.61877 0.79898 0.0
C2275 C 0.41645 0.61843 0.95203 0.0
C2276 C 0.42686 0.61951 0.86555 0.0
H2277 H 0.44071 0.57792 0.81535 0.0
C2278 C 0.43555 0.63745 0.84871 0.0
C2279 C 0.42818 0.59783 0.85295 0.0
C2280 C 0.41802 0.57803 0.86897 0.0
C2281 C 0.44618 0.63424 0.82021 0.0
C2282 C 0.4485 0.61245 0.80841 0.0
C2283 C 0.43914 0.59457 0.82463 0.0
C2284 C 0.46125 0.608 0.77974 0.0
C2285 C 0.45487 0.65422 0.80293 0.0
C2286 C 0.45069 0.59967 0.75324 0.0
C2287 C 0.46255 0.5973 0.72556 0.0
C2288 C 0.4852 0.60314 0.72404 0.0
C2289 C 0.49589 0.61036 0.75115 0.0
C2290 C 0.48406 0.61275 0.77865 0.0
H2291 H 0.44683 0.66984 0.81081 0.0
H2292 H 0.47304 0.65576 0.80698 0.0
H2293 H 0.45211 0.65244 0.7777 0.0
H2294 H 0.4331 0.59574 0.7537 0.0
H2295 H 0.45378 0.59171 0.70516 0.0
H2296 H 0.14669 0.76967 0.50645 0.0
H2297 H 0.1374 0.75189 0.55531 0.0
H2298 H 0.1166 0.69298 0.50678 0.0
H2299 H 0.12601 0.71066 0.45745 0.0
H2300 H 0.09498 0.73737 0.5719 0.0
H2301 H 0.15577 0.66777 0.57643 0.0
H2302 H 0.15907 0.6912 0.55075 0.0
H2303 H 0.13947 0.66966 0.5417 0.0
C2304 C 0.14051 0.75277 0.50603 0.0
C2305 C 0.13719 0.7416 0.47785 0.0
C2306 C 0.13513 0.74265 0.5341 0.0
C2307 C 0.12641 0.72104 0.53485 0.0
C2308 C 0.12366 0.70952 0.50688 0.0
H2309 H 0.07951 0.64173 0.69217 0.0
H2310 H 0.08843 0.65511 0.64019 0.0
C2311 C 0.12907 0.71967 0.47865 0.0
C2312 C 0.11902 0.71134 0.56482 0.0
H2313 H 0.12903 0.66938 0.61635 0.0
C2314 C 0.10244 0.7225 0.5816 0.0
C2315 C 0.12859 0.69182 0.5774 0.0
C2316 C 0.14684 0.67944 0.56084 0.0
C2317 C 0.09526 0.7148 0.61058 0.0
C2318 C 0.10521 0.6956 0.62355 0.0
C2319 C 0.12145 0.68413 0.60649 0.0
C2320 C 0.09943 0.68757 0.65513 0.0
C2321 C 0.07688 0.72719 0.62687 0.0
C2322 C 0.10277 0.70126 0.68095 0.0
C2323 C 0.09756 0.69372 0.71067 0.0
C2324 C 0.08901 0.67221 0.71537 0.0
C2325 C 0.08576 0.65849 0.68944 0.0
C2326 C 0.09101 0.66605 0.65969 0.0
H2327 H 0.06673 0.73716 0.61045 0.0
H2328 H 0.06571 0.7156 0.63942 0.0
H2329 H 0.0843 0.7388 0.64388 0.0
H2330 H 0.10961 0.71779 0.67816 0.0
H2331 H 0.10011 0.70485 0.72997 0.0
H2332 H 0.99009 0.39241 0.25603 0.0
H2333 H 0.0077 0.3849 0.30566 0.0
H2334 H 0.07033 0.37328 0.25999 0.0
H2335 H 0.05285 0.38101 0.20999 0.0
H2336 H 0.02669 0.34474 0.32158 0.0
H2337 H 0.08832 0.41297 0.3326 0.0
H2338 H 0.06555 0.41397 0.3054 0.0
H2339 H 0.08983 0.39759 0.29715 0.0
C2340 C 0.00773 0.38871 0.25645 0.0
C2341 C 0.02003 0.38733 0.22887 0.0
C2342 C 0.01776 0.38433 0.28493 0.0
C2343 C 0.04035 0.37856 0.28665 0.0
C2344 C 0.05295 0.37802 0.25934 0.0
H2345 H 0.09909 0.30765 0.44408 0.0
H2346 H 0.08546 0.31802 0.39272 0.0
C2347 C 0.04291 0.38246 0.23072 0.0
C2348 C 0.05009 0.37159 0.31677 0.0
H2349 H 0.08991 0.38438 0.37024 0.0
C2350 C 0.04053 0.35341 0.3322 0.0
C2351 C 0.06806 0.38297 0.33072 0.0
C2352 C 0.07847 0.40308 0.31582 0.0
C2353 C 0.04838 0.34633 0.36117 0.0
C2354 C 0.06654 0.35751 0.37496 0.0
C2355 C 0.07611 0.3757 0.35955 0.0
C2356 C 0.07522 0.35114 0.40594 0.0
C2357 C 0.03674 0.32731 0.37713 0.0
C2358 C 0.07437 0.36641 0.43036 0.0
C2359 C 0.08211 0.36053 0.45972 0.0
C2360 C 0.09104 0.33926 0.46536 0.0
C2361 C 0.09202 0.32403 0.44075 0.0
C2362 C 0.08426 0.32995 0.41133 0.0
H2363 H 0.02006 0.32405 0.36703 0.0
H2364 H 0.04688 0.31201 0.3746 0.0
H2365 H 0.03475 0.33072 0.40216 0.0
H2366 H 0.06741 0.38283 0.42679 0.0
H2367 H 0.08078 0.37259 0.47814 0.0
loop_
_geom_bond_atom_site_label_1
_geom_bond_atom_site_label_2
_geom_bond_distance
_geom_bond_site_symmetry_2
_ccdc_geom_bond_type
Nd0 C2 2.836 . S
Nd0 O20 2.500 . S
Nd0 O21 2.492 . S
Nd0 O22 2.487 . S
Nd0 O23 2.682 1_655 S
Nd0 O24 2.410 1_655 S
Nd0 O29 2.414 . S
Nd0 O31 2.424 . S
Nd1 C11 2.836 . S
Nd1 O23 2.414 . S
Nd1 O25 2.424 . S
Nd1 O26 2.500 . S
Nd1 O27 2.492 . S
Nd1 O28 2.487 . S
Nd1 O29 2.682 1_455 S
Nd1 O30 2.391 1_455 S
C2 Nd0 2.836 . S
C2 C3 1.498 . S
C2 O20 1.258 . S
C2 O21 1.239 . S
C3 C2 1.498 . S
C3 C4 1.366 1_554 S
C3 C8 1.407 1_554 S
C4 C3 1.366 1_556 S
C4 C5 1.392 . S
C4 H32 0.930 . S
C5 C4 1.392 . S
C5 C6 1.398 . S
C5 H33 0.929 . S
C6 C5 1.398 . S
C6 C7 1.352 . S
C7 C6 1.352 . S
C7 C8 1.384 . S
C7 H34 0.930 . S
C8 C3 1.407 1_556 S
C8 C7 1.384 . S
C8 H35 0.929 1_556 S
C9 O22 1.241 . S
C9 O23 1.273 1_655 S
C10 O24 1.251 . S
C10 O25 1.268 . S
C11 Nd1 2.836 . S
C11 C12 1.498 . S
C11 O26 1.258 . S
C11 O27 1.239 . S
C12 C11 1.498 . S
C12 C13 1.366 . S
C12 C17 1.407 . S
C13 C12 1.366 . S
C13 C14 1.392 . S
C13 H36 0.930 . S
C14 C13 1.392 . S
C14 C15 1.398 . S
C14 H37 0.929 . S
C15 C14 1.398 . S
C15 C16 1.352 . S
C16 C15 1.352 . S
C16 C17 1.384 . S
C16 H38 0.930 . S
C17 C12 1.407 . S
C17 C16 1.384 . S
C17 H39 0.929 . S
C18 O28 1.241 . S
C18 O29 1.273 1_455 S
C19 O30 1.272 . S
C19 O31 1.268 . S
O20 Nd0 2.500 . S
O20 C2 1.258 . S
O21 Nd0 2.492 . S
O21 C2 1.239 . S
O22 Nd0 2.487 . S
O22 C9 1.241 . S
O23 Nd0 2.682 1_455 S
O23 Nd1 2.414 . S
O23 C9 1.273 1_455 S
O24 Nd0 2.410 1_455 S
O24 C10 1.251 . S
O25 Nd1 2.424 . S
O25 C10 1.268 . S
O26 Nd1 2.500 . S
O26 C11 1.258 . S
O27 Nd1 2.492 . S
O27 C11 1.239 . S
O28 Nd1 2.487 . S
O28 C18 1.241 . S
O29 Nd0 2.414 . S
O29 Nd1 2.682 1_655 S
O29 C18 1.273 1_655 S
O30 Nd1 2.391 1_655 S
O30 C19 1.272 . S
O31 Nd0 2.424 . S
O31 C19 1.268 . S
H32 C4 0.930 . S
H33 C5 0.929 . S
H34 C7 0.930 . S
H35 C8 0.929 1_554 S
H36 C13 0.930 . S
H37 C14 0.929 . S
H38 C16 0.930 . S
H39 C17 0.929 . S
Nd40 C42 2.836 . S
Nd40 O60 2.500 . S
Nd40 O61 2.492 . S
Nd40 O62 2.487 . S
Nd40 O63 2.682 . S
Nd40 O64 2.410 . S
Nd40 O69 2.414 . S
Nd40 O71 2.424 . S
Nd41 C51 2.836 . S
Nd41 O63 2.414 . S
Nd41 O65 2.424 . S
Nd41 O66 2.500 . S
Nd41 O67 2.492 . S
Nd41 O68 2.487 . S
Nd41 O69 2.682 . S
Nd41 O70 2.410 . S
C42 Nd40 2.836 . S
C42 C43 1.498 . S
C42 O60 1.258 . S
C42 O61 1.239 . S
C43 C42 1.498 . S
C43 C44 1.366 . S
C43 C48 1.407 . S
C44 C43 1.366 . S
C44 C45 1.392 . S
C44 H72 0.930 . S
C45 C44 1.392 . S
C45 C46 1.398 . S
C45 H73 0.929 . S
C46 C45 1.398 . S
C46 C47 1.352 . S
C47 C46 1.352 . S
C47 C48 1.384 . S
C47 H74 0.930 . S
C48 C43 1.407 . S
C48 C47 1.384 . S
C48 H75 0.929 . S
C49 O62 1.241 . S
C49 O63 1.273 . S
C50 O64 1.251 . S
C50 O65 1.268 . S
C51 Nd41 2.836 . S
C51 C52 1.498 . S
C51 O66 1.258 . S
C51 O67 1.239 . S
C52 C51 1.498 . S
C52 C53 1.366 . S
C52 C57 1.407 . S
C53 C52 1.366 . S
C53 C54 1.392 . S
C53 H76 0.930 . S
C54 C53 1.392 . S
C54 C55 1.398 . S
C54 H77 0.929 . S
C55 C54 1.398 . S
C55 C56 1.352 . S
C56 C55 1.352 . S
C56 C57 1.384 . S
C56 H78 0.930 . S
C57 C52 1.407 . S
C57 C56 1.384 . S
C57 H79 0.929 . S
C58 O68 1.241 . S
C58 O69 1.273 . S
C59 O70 1.251 . S
C59 O71 1.268 . S
O60 Nd40 2.500 . S
O60 C42 1.258 . S
O61 Nd40 2.492 . S
O61 C42 1.239 . S
O62 Nd40 2.487 . S
O62 C49 1.241 . S
O63 Nd40 2.682 . S
O63 Nd41 2.414 . S
O63 C49 1.273 . S
O64 Nd40 2.410 . S
O64 C50 1.251 . S
O65 Nd41 2.424 . S
O65 C50 1.268 . S
O66 Nd41 2.500 . S
O66 C51 1.258 . S
O67 Nd41 2.492 . S
O67 C51 1.239 . S
O68 Nd41 2.487 . S
O68 C58 1.241 . S
O69 Nd40 2.414 . S
O69 Nd41 2.682 . S
O69 C58 1.273 . S
O70 Nd41 2.410 . S
O70 C59 1.251 . S
O71 Nd40 2.424 . S
O71 C59 1.268 . S
H72 C44 0.930 . S
H73 C45 0.929 . S
H74 C47 0.930 . S
H75 C48 0.929 . S
H76 C53 0.930 . S
H77 C54 0.929 . S
H78 C56 0.930 . S
H79 C57 0.929 . S
Nd80 C82 2.836 . S
Nd80 O100 2.500 . S
Nd80 O101 2.492 . S
Nd80 O102 2.487 . S
Nd80 O103 2.682 . S
Nd80 O104 2.410 . S
Nd80 O109 2.414 . S
Nd80 O111 2.424 . S
Nd81 C91 2.836 . S
Nd81 O103 2.414 . S
Nd81 O105 2.424 . S
Nd81 O106 2.500 . S
Nd81 O107 2.492 . S
Nd81 O108 2.487 . S
Nd81 O109 2.682 . S
Nd81 O110 2.410 . S
C82 Nd80 2.836 . S
C82 C83 1.498 . S
C82 O100 1.258 . S
C82 O101 1.239 . S
C83 C82 1.498 . S
C83 C84 1.366 . S
C83 C88 1.407 . S
C84 C83 1.366 . S
C84 C85 1.392 . S
C84 H112 0.930 . S
C85 C84 1.392 . S
C85 C86 1.398 . S
C85 H113 0.929 . S
C86 C85 1.398 . S
C86 C87 1.352 . S
C87 C86 1.352 . S
C87 C88 1.384 . S
C87 H114 0.930 . S
C88 C83 1.407 . S
C88 C87 1.384 . S
C88 H115 0.929 . S
C89 O102 1.241 . S
C89 O103 1.273 . S
C90 O104 1.251 . S
C90 O105 1.268 . S
C91 Nd81 2.836 . S
C91 C92 1.498 . S
C91 O106 1.258 . S
C91 O107 1.239 . S
C92 C91 1.498 . S
C92 C93 1.366 . S
C92 C97 1.407 . S
C93 C92 1.366 . S
C93 C94 1.392 . S
C93 H116 0.930 . S
C94 C93 1.392 . S
C94 C95 1.398 . S
C94 H117 0.929 . S
C95 C94 1.398 . S
C95 C96 1.352 . S
C96 C95 1.352 . S
C96 C97 1.384 . S
C96 H118 0.930 . S
C97 C92 1.407 . S
C97 C96 1.384 . S
C97 H119 0.929 . S
C98 O108 1.241 . S
C98 O109 1.273 . S
C99 O110 1.251 . S
C99 O111 1.268 . S
O100 Nd80 2.500 . S
O100 C82 1.258 . S
O101 Nd80 2.492 . S
O101 C82 1.239 . S
O102 Nd80 2.487 . S
O102 C89 1.241 . S
O103 Nd80 2.682 . S
O103 Nd81 2.414 . S
O103 C89 1.273 . S
O104 Nd80 2.410 . S
O104 C90 1.251 . S
O105 Nd81 2.424 . S
O105 C90 1.268 . S
O106 Nd81 2.500 . S
O106 C91 1.258 . S
O107 Nd81 2.492 . S
O107 C91 1.239 . S
O108 Nd81 2.487 . S
O108 C98 1.241 . S
O109 Nd80 2.414 . S
O109 Nd81 2.682 . S
O109 C98 1.273 . S
O110 Nd81 2.410 . S
O110 C99 1.251 . S
O111 Nd80 2.424 . S
O111 C99 1.268 . S
H112 C84 0.930 . S
H113 C85 0.929 . S
H114 C87 0.930 . S
H115 C88 0.929 . S
H116 C93 0.930 . S
H117 C94 0.929 . S
H118 C96 0.930 . S
H119 C97 0.929 . S
Nd120 C122 2.836 . S
Nd120 O140 2.500 . S
Nd120 O141 2.492 . S
Nd120 O142 2.487 . S
Nd120 O143 2.682 . S
Nd120 O144 2.410 . S
Nd120 O149 2.414 . S
Nd120 O151 2.424 . S
Nd121 C131 2.836 . S
Nd121 O143 2.414 . S
Nd121 O145 2.424 . S
Nd121 O146 2.500 . S
Nd121 O147 2.492 . S
Nd121 O148 2.487 . S
Nd121 O149 2.682 . S
Nd121 O150 2.410 . S
C122 Nd120 2.836 . S
C122 C123 1.498 . S
C122 O140 1.258 . S
C122 O141 1.239 . S
C123 C122 1.498 . S
C123 C124 1.366 . S
C123 C128 1.407 . S
C124 C123 1.366 . S
C124 C125 1.392 . S
C124 H152 0.930 . S
C125 C124 1.392 . S
C125 C126 1.398 . S
C125 H153 0.929 . S
C126 C125 1.398 . S
C126 C127 1.352 . S
C127 C126 1.352 . S
C127 C128 1.384 . S
C127 H154 0.930 . S
C128 C123 1.407 . S
C128 C127 1.384 . S
C128 H155 0.929 . S
C129 O142 1.241 . S
C129 O143 1.273 . S
C130 O144 1.251 . S
C130 O145 1.268 . S
C131 Nd121 2.836 . S
C131 C132 1.498 . S
C131 O146 1.258 . S
C131 O147 1.239 . S
C132 C131 1.498 . S
C132 C133 1.366 . S
C132 C137 1.407 . S
C133 C132 1.366 . S
C133 C134 1.392 1_556 S
C133 H156 0.930 . S
C134 C133 1.392 1_554 S
C134 C135 1.398 . S
C134 H157 0.929 . S
C135 C134 1.398 . S
C135 C136 1.352 . S
C136 C135 1.352 . S
C136 C137 1.384 1_554 S
C136 H158 0.930 . S
C137 C132 1.407 . S
C137 C136 1.384 1_556 S
C137 H159 0.929 . S
C138 O148 1.241 . S
C138 O149 1.273 . S
C139 O150 1.251 . S
C139 O151 1.268 . S
O140 Nd120 2.500 . S
O140 C122 1.258 . S
O141 Nd120 2.492 . S
O141 C122 1.239 . S
O142 Nd120 2.487 . S
O142 C129 1.241 . S
O143 Nd120 2.682 . S
O143 Nd121 2.414 . S
O143 C129 1.273 . S
O144 Nd120 2.410 . S
O144 C130 1.251 . S
O145 Nd121 2.424 . S
O145 C130 1.268 . S
O146 Nd121 2.500 . S
O146 C131 1.258 . S
O147 Nd121 2.492 . S
O147 C131 1.239 . S
O148 Nd121 2.487 . S
O148 C138 1.241 . S
O149 Nd120 2.414 . S
O149 Nd121 2.682 . S
O149 C138 1.273 . S
O150 Nd121 2.410 . S
O150 C139 1.251 . S
O151 Nd120 2.424 . S
O151 C139 1.268 . S
H152 C124 0.930 . S
H153 C125 0.929 . S
H154 C127 0.930 . S
H155 C128 0.929 . S
H156 C133 0.930 . S
H157 C134 0.929 . S
H158 C136 0.930 . S
H159 C137 0.929 . S
Nd160 C162 2.836 . S
Nd160 O180 2.500 . S
Nd160 O181 2.492 . S
Nd160 O182 2.487 . S
Nd160 O183 2.682 1_655 S
Nd160 O184 2.410 1_655 S
Nd160 O189 2.414 1_655 S
Nd160 O191 2.424 . S
Nd161 C171 2.836 . S
Nd161 O183 2.414 . S
Nd161 O185 2.424 . S
Nd161 O186 2.500 . S
Nd161 O187 2.492 . S
Nd161 O188 2.487 . S
Nd161 O189 2.682 . S
Nd161 O190 2.410 . S
C162 Nd160 2.836 . S
C162 C163 1.498 . S
C162 O180 1.258 . S
C162 O181 1.239 . S
C163 C162 1.498 . S
C163 C164 1.366 . S
C163 C168 1.407 . S
C164 C163 1.366 . S
C164 C165 1.392 . S
C164 H192 0.930 . S
C165 C164 1.392 . S
C165 C166 1.398 . S
C165 H193 0.929 . S
C166 C165 1.398 . S
C166 C167 1.352 . S
C167 C166 1.352 . S
C167 C168 1.384 . S
C167 H194 0.930 . S
C168 C163 1.407 . S
C168 C167 1.384 . S
C168 H195 0.929 . S
C169 O182 1.241 1_455 S
C169 O183 1.273 . S
C170 O184 1.251 . S
C170 O185 1.268 . S
C171 Nd161 2.836 . S
C171 C172 1.498 . S
C171 O186 1.258 . S
C171 O187 1.239 . S
C172 C171 1.498 . S
C172 C173 1.366 1_556 S
C172 C177 1.407 1_556 S
C173 C172 1.366 1_554 S
C173 C174 1.392 . S
C173 H196 0.930 . S
C174 C173 1.392 . S
C174 C175 1.398 . S
C174 H197 0.929 . S
C175 C174 1.398 . S
C175 C176 1.352 . S
C176 C175 1.352 . S
C176 C177 1.384 . S
C176 H198 0.930 . S
C177 C172 1.407 1_554 S
C177 C176 1.384 . S
C177 H199 0.929 1_554 S
C178 O188 1.241 . S
C178 O189 1.273 . S
C179 O190 1.251 1_655 S
C179 O191 1.268 . S
O180 Nd160 2.500 . S
O180 C162 1.258 . S
O181 Nd160 2.492 . S
O181 C162 1.239 . S
O182 Nd160 2.487 . S
O182 C169 1.241 1_655 S
O183 Nd160 2.682 1_455 S
O183 Nd161 2.414 . S
O183 C169 1.273 . S
O184 Nd160 2.410 1_455 S
O184 C170 1.251 . S
O185 Nd161 2.424 . S
O185 C170 1.268 . S
O186 Nd161 2.500 . S
O186 C171 1.258 . S
O187 Nd161 2.492 . S
O187 C171 1.239 . S
O188 Nd161 2.487 . S
O188 C178 1.241 . S
O189 Nd160 2.414 1_455 S
O189 Nd161 2.682 . S
O189 C178 1.273 . S
O190 Nd161 2.410 . S
O190 C179 1.251 1_455 S
O191 Nd160 2.424 . S
O191 C179 1.268 . S
H192 C164 0.930 . S
H193 C165 0.929 . S
H194 C167 0.930 . S
H195 C168 0.929 . S
H196 C173 0.930 . S
H197 C174 0.929 . S
H198 C176 0.930 . S
H199 C177 0.929 1_556 S
Nd200 C202 2.836 . S
Nd200 O220 2.500 . S
Nd200 O221 2.492 . S
Nd200 O222 2.487 . S
Nd200 O223 2.682 . S
Nd200 O224 2.410 . S
Nd200 O229 2.414 . S
Nd200 O231 2.424 . S
Nd201 C211 2.836 . S
Nd201 O223 2.414 . S
Nd201 O225 2.424 . S
Nd201 O226 2.500 . S
Nd201 O227 2.492 . S
Nd201 O228 2.487 . S
Nd201 O229 2.682 . S
Nd201 O230 2.410 . S
C202 Nd200 2.836 . S
C202 C203 1.498 . S
C202 O220 1.258 . S
C202 O221 1.239 . S
C203 C202 1.498 . S
C203 C204 1.366 . S
C203 C208 1.407 . S
C204 C203 1.366 . S
C204 C205 1.392 1_554 S
C204 H232 0.930 . S
C205 C204 1.392 1_556 S
C205 C206 1.398 . S
C205 H233 0.929 . S
C206 C205 1.398 . S
C206 C207 1.352 . S
C207 C206 1.352 . S
C207 C208 1.384 1_556 S
C207 H234 0.930 . S
C208 C203 1.407 . S
C208 C207 1.384 1_554 S
C208 H235 0.929 . S
C209 O222 1.241 . S
C209 O223 1.273 . S
C210 O224 1.251 . S
C210 O225 1.268 . S
C211 Nd201 2.836 . S
C211 C212 1.498 . S
C211 O226 1.258 . S
C211 O227 1.239 . S
C212 C211 1.498 . S
C212 C213 1.366 . S
C212 C217 1.407 . S
C213 C212 1.366 . S
C213 C214 1.392 . S
C213 H236 0.930 . S
C214 C213 1.392 . S
C214 C215 1.398 . S
C214 H237 0.929 . S
C215 C214 1.398 . S
C215 C216 1.352 . S
C216 C215 1.352 . S
C216 C217 1.384 . S
C216 H238 0.930 . S
C217 C212 1.407 . S
C217 C216 1.384 . S
C217 H239 0.929 . S
C218 O228 1.241 . S
C218 O229 1.273 . S
C219 O230 1.251 . S
C219 O231 1.268 . S
O220 Nd200 2.500 . S
O220 C202 1.258 . S
O221 Nd200 2.492 . S
O221 C202 1.239 . S
O222 Nd200 2.487 . S
O222 C209 1.241 . S
O223 Nd200 2.682 . S
O223 Nd201 2.414 . S
O223 C209 1.273 . S
O224 Nd200 2.410 . S
O224 C210 1.251 . S
O225 Nd201 2.424 . S
O225 C210 1.268 . S
O226 Nd201 2.500 . S
O226 C211 1.258 . S
O227 Nd201 2.492 . S
O227 C211 1.239 . S
O228 Nd201 2.487 . S
O228 C218 1.241 . S
O229 Nd200 2.414 . S
O229 Nd201 2.682 . S
O229 C218 1.273 . S
O230 Nd201 2.410 . S
O230 C219 1.251 . S
O231 Nd200 2.424 . S
O231 C219 1.268 . S
H232 C204 0.930 . S
H233 C205 0.929 . S
H234 C207 0.930 . S
H235 C208 0.929 . S
H236 C213 0.930 . S
H237 C214 0.929 . S
H238 C216 0.930 . S
H239 C217 0.929 . S
Nd240 C242 2.836 . S
Nd240 O260 2.500 . S
Nd240 O261 2.492 . S
Nd240 O262 2.487 . S
Nd240 O263 2.682 . S
Nd240 O264 2.410 . S
Nd240 O269 2.414 . S
Nd240 O271 2.424 . S
Nd241 C251 2.836 . S
Nd241 O263 2.414 . S
Nd241 O265 2.424 . S
Nd241 O266 2.500 . S
Nd241 O267 2.492 . S
Nd241 O268 2.487 . S
Nd241 O269 2.682 . S
Nd241 O270 2.410 . S
C242 Nd240 2.836 . S
C242 C243 1.498 . S
C242 O260 1.258 . S
C242 O261 1.239 . S
C243 C242 1.498 . S
C243 C244 1.366 . S
C243 C248 1.407 . S
C244 C243 1.366 . S
C244 C245 1.392 . S
C244 H272 0.930 . S
C245 C244 1.392 . S
C245 C246 1.398 . S
C245 H273 0.929 . S
C246 C245 1.398 . S
C246 C247 1.352 . S
C247 C246 1.352 . S
C247 C248 1.384 . S
C247 H274 0.930 . S
C248 C243 1.407 . S
C248 C247 1.384 . S
C248 H275 0.929 . S
C249 O262 1.241 . S
C249 O263 1.273 . S
C250 O264 1.251 . S
C250 O265 1.268 . S
C251 Nd241 2.836 . S
C251 C252 1.498 . S
C251 O266 1.258 . S
C251 O267 1.239 . S
C252 C251 1.498 . S
C252 C253 1.366 . S
C252 C257 1.407 . S
C253 C252 1.366 . S
C253 C254 1.392 . S
C253 H276 0.930 . S
C254 C253 1.392 . S
C254 C255 1.398 . S
C254 H277 0.929 . S
C255 C254 1.398 . S
C255 C256 1.352 . S
C256 C255 1.352 . S
C256 C257 1.384 . S
C256 H278 0.930 . S
C257 C252 1.407 . S
C257 C256 1.384 . S
C257 H279 0.929 . S
C258 O268 1.241 . S
C258 O269 1.273 . S
C259 O270 1.251 . S
C259 O271 1.268 . S
O260 Nd240 2.500 . S
O260 C242 1.258 . S
O261 Nd240 2.492 . S
O261 C242 1.239 . S
O262 Nd240 2.487 . S
O262 C249 1.241 . S
O263 Nd240 2.682 . S
O263 Nd241 2.414 . S
O263 C249 1.273 . S
O264 Nd240 2.410 . S
O264 C250 1.251 . S
O265 Nd241 2.424 . S
O265 C250 1.268 . S
O266 Nd241 2.500 . S
O266 C251 1.258 . S
O267 Nd241 2.492 . S
O267 C251 1.239 . S
O268 Nd241 2.487 . S
O268 C258 1.241 . S
O269 Nd240 2.414 . S
O269 Nd241 2.682 . S
O269 C258 1.273 . S
O270 Nd241 2.410 . S
O270 C259 1.251 . S
O271 Nd240 2.424 . S
O271 C259 1.268 . S
H272 C244 0.930 . S
H273 C245 0.929 . S
H274 C247 0.930 . S
H275 C248 0.929 . S
H276 C253 0.930 . S
H277 C254 0.929 . S
H278 C256 0.930 . S
H279 C257 0.929 . S
Nd280 C282 2.836 . S
Nd280 O300 2.500 . S
Nd280 O301 2.492 . S
Nd280 O302 2.487 . S
Nd280 O303 2.682 . S
Nd280 O304 2.410 . S
Nd280 O309 2.414 . S
Nd280 O311 2.424 . S
Nd281 C291 2.836 . S
Nd281 O303 2.414 . S
Nd281 O305 2.424 . S
Nd281 O306 2.500 . S
Nd281 O307 2.492 . S
Nd281 O308 2.487 . S
Nd281 O309 2.682 . S
Nd281 O310 2.410 . S
C282 Nd280 2.836 . S
C282 C283 1.498 . S
C282 O300 1.258 . S
C282 O301 1.239 . S
C283 C282 1.498 . S
C283 C284 1.366 . S
C283 C288 1.407 . S
C284 C283 1.366 . S
C284 C285 1.392 . S
C284 H312 0.930 . S
C285 C284 1.392 . S
C285 C286 1.398 . S
C285 H313 0.929 . S
C286 C285 1.398 . S
C286 C287 1.352 . S
C287 C286 1.352 . S
C287 C288 1.384 . S
C287 H314 0.930 . S
C288 C283 1.407 . S
C288 C287 1.384 . S
C288 H315 0.929 . S
C289 O302 1.241 . S
C289 O303 1.273 . S
C290 O304 1.251 . S
C290 O305 1.268 . S
C291 Nd281 2.836 . S
C291 C292 1.498 . S
C291 O306 1.258 . S
C291 O307 1.239 . S
C292 C291 1.498 . S
C292 C293 1.366 . S
C292 C297 1.407 . S
C293 C292 1.366 . S
C293 C294 1.392 . S
C293 H316 0.930 . S
C294 C293 1.392 . S
C294 C295 1.398 . S
C294 H317 0.929 . S
C295 C294 1.398 . S
C295 C296 1.352 . S
C296 C295 1.352 . S
C296 C297 1.384 . S
C296 H318 0.930 . S
C297 C292 1.407 . S
C297 C296 1.384 . S
C297 H319 0.929 . S
C298 O308 1.241 . S
C298 O309 1.273 . S
C299 O310 1.251 . S
C299 O311 1.268 . S
O300 Nd280 2.500 . S
O300 C282 1.258 . S
O301 Nd280 2.492 . S
O301 C282 1.239 . S
O302 Nd280 2.487 . S
O302 C289 1.241 . S
O303 Nd280 2.682 . S
O303 Nd281 2.414 . S
O303 C289 1.273 . S
O304 Nd280 2.410 . S
O304 C290 1.251 . S
O305 Nd281 2.424 . S
O305 C290 1.268 . S
O306 Nd281 2.500 . S
O306 C291 1.258 . S
O307 Nd281 2.492 . S
O307 C291 1.239 . S
O308 Nd281 2.487 . S
O308 C298 1.241 . S
O309 Nd280 2.414 . S
O309 Nd281 2.682 . S
O309 C298 1.273 . S
O310 Nd281 2.410 . S
O310 C299 1.251 . S
O311 Nd280 2.424 . S
O311 C299 1.268 . S
H312 C284 0.930 . S
H313 C285 0.929 . S
H314 C287 0.930 . S
H315 C288 0.929 . S
H316 C293 0.930 . S
H317 C294 0.929 . S
H318 C296 0.930 . S
H319 C297 0.929 . S
Nd320 C322 2.836 . S
Nd320 O340 2.500 . S
Nd320 O341 2.492 . S
Nd320 O342 2.487 . S
Nd320 O343 2.682 . S
Nd320 O344 2.410 . S
Nd320 O349 2.414 . S
Nd320 O351 2.424 . S
Nd321 C331 2.836 . S
Nd321 O343 2.414 . S
Nd321 O345 2.424 . S
Nd321 O346 2.500 . S
Nd321 O347 2.492 . S
Nd321 O348 2.487 . S
Nd321 O349 2.682 . S
Nd321 O350 2.410 . S
C322 Nd320 2.836 . S
C322 C323 1.498 . S
C322 O340 1.258 . S
C322 O341 1.239 . S
C323 C322 1.498 . S
C323 C324 1.366 . S
C323 C328 1.407 . S
C324 C323 1.366 . S
C324 C325 1.392 . S
C324 H352 0.930 . S
C325 C324 1.392 . S
C325 C326 1.398 . S
C325 H353 0.929 . S
C326 C325 1.398 . S
C326 C327 1.352 . S
C327 C326 1.352 . S
C327 C328 1.384 . S
C327 H354 0.930 . S
C328 C323 1.407 . S
C328 C327 1.384 . S
C328 H355 0.929 . S
C329 O342 1.241 . S
C329 O343 1.273 . S
C330 O344 1.251 . S
C330 O345 1.268 . S
C331 Nd321 2.836 . S
C331 C332 1.498 . S
C331 O346 1.258 . S
C331 O347 1.239 . S
C332 C331 1.498 . S
C332 C333 1.366 . S
C332 C337 1.407 . S
C333 C332 1.366 . S
C333 C334 1.392 . S
C333 H356 0.930 . S
C334 C333 1.392 . S
C334 C335 1.398 . S
C334 H357 0.929 . S
C335 C334 1.398 . S
C335 C336 1.352 . S
C336 C335 1.352 . S
C336 C337 1.384 . S
C336 H358 0.930 . S
C337 C332 1.407 . S
C337 C336 1.384 . S
C337 H359 0.929 . S
C338 O348 1.241 . S
C338 O349 1.273 . S
C339 O350 1.251 . S
C339 O351 1.268 . S
O340 Nd320 2.500 . S
O340 C322 1.258 . S
O341 Nd320 2.492 . S
O341 C322 1.239 . S
O342 Nd320 2.487 . S
O342 C329 1.241 . S
O343 Nd320 2.682 . S
O343 Nd321 2.414 . S
O343 C329 1.273 . S
O344 Nd320 2.410 . S
O344 C330 1.251 . S
O345 Nd321 2.424 . S
O345 C330 1.268 . S
O346 Nd321 2.500 . S
O346 C331 1.258 . S
O347 Nd321 2.492 . S
O347 C331 1.239 . S
O348 Nd321 2.487 . S
O348 C338 1.241 . S
O349 Nd320 2.414 . S
O349 Nd321 2.682 . S
O349 C338 1.273 . S
O350 Nd321 2.410 . S
O350 C339 1.251 . S
O351 Nd320 2.424 . S
O351 C339 1.268 . S
H352 C324 0.930 . S
H353 C325 0.929 . S
H354 C327 0.930 . S
H355 C328 0.929 . S
H356 C333 0.930 . S
H357 C334 0.929 . S
H358 C336 0.930 . S
H359 C337 0.929 . S
Nd360 C362 2.836 . S
Nd360 O380 2.500 . S
Nd360 O381 2.492 . S
Nd360 O382 2.487 . S
Nd360 O383 2.682 . S
Nd360 O384 2.410 . S
Nd360 O389 2.414 . S
Nd360 O391 2.424 . S
Nd361 C371 2.836 . S
Nd361 O383 2.414 . S
Nd361 O385 2.424 . S
Nd361 O386 2.500 . S
Nd361 O387 2.492 . S
Nd361 O388 2.487 . S
Nd361 O389 2.682 . S
Nd361 O390 2.410 . S
C362 Nd360 2.836 . S
C362 C363 1.498 . S
C362 O380 1.258 . S
C362 O381 1.239 . S
C363 C362 1.498 . S
C363 C364 1.366 . S
C363 C368 1.407 . S
C364 C363 1.366 . S
C364 C365 1.392 1_554 S
C364 H392 0.930 . S
C365 C364 1.392 1_556 S
C365 C366 1.398 . S
C365 H393 0.929 . S
C366 C365 1.398 . S
C366 C367 1.352 . S
C367 C366 1.352 . S
C367 C368 1.384 1_556 S
C367 H394 0.930 . S
C368 C363 1.407 . S
C368 C367 1.384 1_554 S
C368 H395 0.929 . S
C369 O382 1.241 . S
C369 O383 1.273 . S
C370 O384 1.251 . S
C370 O385 1.268 . S
C371 Nd361 2.836 . S
C371 C372 1.498 . S
C371 O386 1.258 . S
C371 O387 1.239 . S
C372 C371 1.498 . S
C372 C373 1.366 . S
C372 C377 1.407 . S
C373 C372 1.366 . S
C373 C374 1.392 . S
C373 H396 0.930 . S
C374 C373 1.392 . S
C374 C375 1.398 . S
C374 H397 0.929 . S
C375 C374 1.398 . S
C375 C376 1.352 . S
C376 C375 1.352 . S
C376 C377 1.384 . S
C376 H398 0.930 . S
C377 C372 1.407 . S
C377 C376 1.384 . S
C377 H399 0.929 . S
C378 O388 1.241 . S
C378 O389 1.273 . S
C379 O390 1.251 . S
C379 O391 1.268 . S
O380 Nd360 2.500 . S
O380 C362 1.258 . S
O381 Nd360 2.492 . S
O381 C362 1.239 . S
O382 Nd360 2.487 . S
O382 C369 1.241 . S
O383 Nd360 2.682 . S
O383 Nd361 2.414 . S
O383 C369 1.273 . S
O384 Nd360 2.410 . S
O384 C370 1.251 . S
O385 Nd361 2.424 . S
O385 C370 1.268 . S
O386 Nd361 2.500 . S
O386 C371 1.258 . S
O387 Nd361 2.492 . S
O387 C371 1.239 . S
O388 Nd361 2.487 . S
O388 C378 1.241 . S
O389 Nd360 2.414 . S
O389 Nd361 2.682 . S
O389 C378 1.273 . S
O390 Nd361 2.410 . S
O390 C379 1.251 . S
O391 Nd360 2.424 . S
O391 C379 1.268 . S
H392 C364 0.930 . S
H393 C365 0.929 . S
H394 C367 0.930 . S
H395 C368 0.929 . S
H396 C373 0.930 . S
H397 C374 0.929 . S
H398 C376 0.930 . S
H399 C377 0.929 . S
Nd400 C402 2.836 . S
Nd400 O420 2.500 . S
Nd400 O421 2.492 . S
Nd400 O422 2.487 . S
Nd400 O423 2.682 . S
Nd400 O424 2.410 . S
Nd400 O429 2.414 . S
Nd400 O431 2.424 . S
Nd401 C411 2.836 . S
Nd401 O423 2.414 . S
Nd401 O425 2.424 . S
Nd401 O426 2.500 . S
Nd401 O427 2.492 . S
Nd401 O428 2.487 . S
Nd401 O429 2.682 . S
Nd401 O430 2.410 . S
C402 Nd400 2.836 . S
C402 C403 1.498 . S
C402 O420 1.258 . S
C402 O421 1.239 . S
C403 C402 1.498 . S
C403 C404 1.366 . S
C403 C408 1.407 . S
C404 C403 1.366 . S
C404 C405 1.392 . S
C404 H432 0.930 . S
C405 C404 1.392 . S
C405 C406 1.398 . S
C405 H433 0.929 . S
C406 C405 1.398 . S
C406 C407 1.352 . S
C407 C406 1.352 . S
C407 C408 1.384 . S
C407 H434 0.930 . S
C408 C403 1.407 . S
C408 C407 1.384 . S
C408 H435 0.929 . S
C409 O422 1.241 . S
C409 O423 1.273 . S
C410 O424 1.251 . S
C410 O425 1.268 . S
C411 Nd401 2.836 . S
C411 C412 1.498 . S
C411 O426 1.258 . S
C411 O427 1.239 . S
C412 C411 1.498 . S
C412 C413 1.366 . S
C412 C417 1.407 . S
C413 C412 1.366 . S
C413 C414 1.392 1_556 S
C413 H436 0.930 . S
C414 C413 1.392 1_554 S
C414 C415 1.398 . S
C414 H437 0.929 . S
C415 C414 1.398 . S
C415 C416 1.352 . S
C416 C415 1.352 . S
C416 C417 1.384 1_554 S
C416 H438 0.930 . S
C417 C412 1.407 . S
C417 C416 1.384 1_556 S
C417 H439 0.929 . S
C418 O428 1.241 . S
C418 O429 1.273 . S
C419 O430 1.251 . S
C419 O431 1.268 . S
O420 Nd400 2.500 . S
O420 C402 1.258 . S
O421 Nd400 2.492 . S
O421 C402 1.239 . S
O422 Nd400 2.487 . S
O422 C409 1.241 . S
O423 Nd400 2.682 . S
O423 Nd401 2.414 . S
O423 C409 1.273 . S
O424 Nd400 2.410 . S
O424 C410 1.251 . S
O425 Nd401 2.424 . S
O425 C410 1.268 . S
O426 Nd401 2.500 . S
O426 C411 1.258 . S
O427 Nd401 2.492 . S
O427 C411 1.239 . S
O428 Nd401 2.487 . S
O428 C418 1.241 . S
O429 Nd400 2.414 . S
O429 Nd401 2.682 . S
O429 C418 1.273 . S
O430 Nd401 2.410 . S
O430 C419 1.251 . S
O431 Nd400 2.424 . S
O431 C419 1.268 . S
H432 C404 0.930 . S
H433 C405 0.929 . S
H434 C407 0.930 . S
H435 C408 0.929 . S
H436 C413 0.930 . S
H437 C414 0.929 . S
H438 C416 0.930 . S
H439 C417 0.929 . S
Nd440 C442 2.836 . S
Nd440 O460 2.500 . S
Nd440 O461 2.492 . S
Nd440 O462 2.487 . S
Nd440 O463 2.682 . S
Nd440 O464 2.410 . S
Nd440 O469 2.414 . S
Nd440 O471 2.424 . S
Nd441 C451 2.836 . S
Nd441 O463 2.414 . S
Nd441 O465 2.424 . S
Nd441 O466 2.500 . S
Nd441 O467 2.492 . S
Nd441 O468 2.487 . S
Nd441 O469 2.682 . S
Nd441 O470 2.410 . S
C442 Nd440 2.836 . S
C442 C443 1.498 . S
C442 O460 1.258 . S
C442 O461 1.239 . S
C443 C442 1.498 . S
C443 C444 1.366 . S
C443 C448 1.407 . S
C444 C443 1.366 . S
C444 C445 1.392 . S
C444 H472 0.930 . S
C445 C444 1.392 . S
C445 C446 1.398 . S
C445 H473 0.929 . S
C446 C445 1.398 . S
C446 C447 1.352 . S
C447 C446 1.352 . S
C447 C448 1.384 . S
C447 H474 0.930 . S
C448 C443 1.407 . S
C448 C447 1.384 . S
C448 H475 0.929 . S
C449 O462 1.241 . S
C449 O463 1.273 . S
C450 O464 1.251 . S
C450 O465 1.268 . S
C451 Nd441 2.836 . S
C451 C452 1.498 . S
C451 O466 1.258 . S
C451 O467 1.239 . S
C452 C451 1.498 . S
C452 C453 1.366 . S
C452 C457 1.407 . S
C453 C452 1.366 . S
C453 C454 1.392 . S
C453 H476 0.930 . S
C454 C453 1.392 . S
C454 C455 1.398 . S
C454 H477 0.929 . S
C455 C454 1.398 . S
C455 C456 1.352 . S
C456 C455 1.352 . S
C456 C457 1.384 . S
C456 H478 0.930 . S
C457 C452 1.407 . S
C457 C456 1.384 . S
C457 H479 0.929 . S
C458 O468 1.241 . S
C458 O469 1.273 . S
C459 O470 1.251 . S
C459 O471 1.268 . S
O460 Nd440 2.500 . S
O460 C442 1.258 . S
O461 Nd440 2.492 . S
O461 C442 1.239 . S
O462 Nd440 2.487 . S
O462 C449 1.241 . S
O463 Nd440 2.682 . S
O463 Nd441 2.414 . S
O463 C449 1.273 . S
O464 Nd440 2.410 . S
O464 C450 1.251 . S
O465 Nd441 2.424 . S
O465 C450 1.268 . S
O466 Nd441 2.500 . S
O466 C451 1.258 . S
O467 Nd441 2.492 . S
O467 C451 1.239 . S
O468 Nd441 2.487 . S
O468 C458 1.241 . S
O469 Nd440 2.414 . S
O469 Nd441 2.682 . S
O469 C458 1.273 . S
O470 Nd441 2.410 . S
O470 C459 1.251 . S
O471 Nd440 2.424 . S
O471 C459 1.268 . S
H472 C444 0.930 . S
H473 C445 0.929 . S
H474 C447 0.930 . S
H475 C448 0.929 . S
H476 C453 0.930 . S
H477 C454 0.929 . S
H478 C456 0.930 . S
H479 C457 0.929 . S
Nd480 C482 2.836 . S
Nd480 O500 2.500 . S
Nd480 O501 2.492 . S
Nd480 O502 2.487 . S
Nd480 O503 2.682 . S
Nd480 O504 2.410 . S
Nd480 O509 2.414 . S
Nd480 O511 2.424 . S
Nd481 C491 2.836 . S
Nd481 O503 2.414 . S
Nd481 O505 2.424 . S
Nd481 O506 2.500 . S
Nd481 O507 2.492 . S
Nd481 O508 2.487 . S
Nd481 O509 2.682 . S
Nd481 O510 2.410 . S
C482 Nd480 2.836 . S
C482 C483 1.498 . S
C482 O500 1.258 . S
C482 O501 1.239 . S
C483 C482 1.498 . S
C483 C484 1.366 . S
C483 C488 1.407 . S
C484 C483 1.366 . S
C484 C485 1.392 . S
C484 H512 0.930 . S
C485 C484 1.392 . S
C485 C486 1.398 . S
C485 H513 0.929 . S
C486 C485 1.398 . S
C486 C487 1.352 . S
C487 C486 1.352 . S
C487 C488 1.384 . S
C487 H514 0.930 . S
C488 C483 1.407 . S
C488 C487 1.384 . S
C488 H515 0.929 . S
C489 O502 1.241 . S
C489 O503 1.273 . S
C490 O504 1.251 . S
C490 O505 1.268 . S
C491 Nd481 2.836 . S
C491 C492 1.498 . S
C491 O506 1.258 . S
C491 O507 1.239 . S
C492 C491 1.498 . S
C492 C493 1.366 . S
C492 C497 1.407 . S
C493 C492 1.366 . S
C493 C494 1.392 . S
C493 H516 0.930 . S
C494 C493 1.392 . S
C494 C495 1.398 . S
C494 H517 0.929 . S
C495 C494 1.398 . S
C495 C496 1.352 . S
C496 C495 1.352 . S
C496 C497 1.384 . S
C496 H518 0.930 . S
C497 C492 1.407 . S
C497 C496 1.384 . S
C497 H519 0.929 . S
C498 O508 1.241 . S
C498 O509 1.273 . S
C499 O510 1.251 . S
C499 O511 1.268 . S
O500 Nd480 2.500 . S
O500 C482 1.258 . S
O501 Nd480 2.492 . S
O501 C482 1.239 . S
O502 Nd480 2.487 . S
O502 C489 1.241 . S
O503 Nd480 2.682 . S
O503 Nd481 2.414 . S
O503 C489 1.273 . S
O504 Nd480 2.410 . S
O504 C490 1.251 . S
O505 Nd481 2.424 . S
O505 C490 1.268 . S
O506 Nd481 2.500 . S
O506 C491 1.258 . S
O507 Nd481 2.492 . S
O507 C491 1.239 . S
O508 Nd481 2.487 . S
O508 C498 1.241 . S
O509 Nd480 2.414 . S
O509 Nd481 2.682 . S
O509 C498 1.273 . S
O510 Nd481 2.410 . S
O510 C499 1.251 . S
O511 Nd480 2.424 . S
O511 C499 1.268 . S
H512 C484 0.930 . S
H513 C485 0.929 . S
H514 C487 0.930 . S
H515 C488 0.929 . S
H516 C493 0.930 . S
H517 C494 0.929 . S
H518 C496 0.930 . S
H519 C497 0.929 . S
Nd520 C522 2.836 . S
Nd520 O540 2.500 . S
Nd520 O541 2.492 . S
Nd520 O542 2.487 . S
Nd520 O543 2.682 . S
Nd520 O544 2.410 . S
Nd520 O549 2.414 . S
Nd520 O551 2.424 . S
Nd521 C531 2.836 . S
Nd521 O543 2.414 1_655 S
Nd521 O545 2.424 . S
Nd521 O546 2.500 . S
Nd521 O547 2.492 . S
Nd521 O548 2.487 . S
Nd521 O549 2.682 1_655 S
Nd521 O550 2.410 1_655 S
C522 Nd520 2.836 . S
C522 C523 1.498 . S
C522 O540 1.258 . S
C522 O541 1.239 . S
C523 C522 1.498 . S
C523 C524 1.366 1_554 S
C523 C528 1.407 1_554 S
C524 C523 1.366 1_556 S
C524 C525 1.392 . S
C524 H552 0.930 . S
C525 C524 1.392 . S
C525 C526 1.398 . S
C525 H553 0.929 . S
C526 C525 1.398 . S
C526 C527 1.352 . S
C527 C526 1.352 . S
C527 C528 1.384 . S
C527 H554 0.930 . S
C528 C523 1.407 1_556 S
C528 C527 1.384 . S
C528 H555 0.929 1_556 S
C529 O542 1.241 . S
C529 O543 1.273 . S
C530 O544 1.251 1_655 S
C530 O545 1.268 . S
C531 Nd521 2.836 . S
C531 C532 1.498 . S
C531 O546 1.258 . S
C531 O547 1.239 . S
C532 C531 1.498 . S
C532 C533 1.366 . S
C532 C537 1.407 . S
C533 C532 1.366 . S
C533 C534 1.392 . S
C533 H556 0.930 . S
C534 C533 1.392 . S
C534 C535 1.398 . S
C534 H557 0.929 . S
C535 C534 1.398 . S
C535 C536 1.352 . S
C536 C535 1.352 . S
C536 C537 1.384 . S
C536 H558 0.930 . S
C537 C532 1.407 . S
C537 C536 1.384 . S
C537 H559 0.929 . S
C538 O548 1.241 1_455 S
C538 O549 1.273 . S
C539 O550 1.251 . S
C539 O551 1.268 . S
O540 Nd520 2.500 . S
O540 C522 1.258 . S
O541 Nd520 2.492 . S
O541 C522 1.239 . S
O542 Nd520 2.487 . S
O542 C529 1.241 . S
O543 Nd520 2.682 . S
O543 Nd521 2.414 1_455 S
O543 C529 1.273 . S
O544 Nd520 2.410 . S
O544 C530 1.251 1_455 S
O545 Nd521 2.424 . S
O545 C530 1.268 . S
O546 Nd521 2.500 . S
O546 C531 1.258 . S
O547 Nd521 2.492 . S
O547 C531 1.239 . S
O548 Nd521 2.487 . S
O548 C538 1.241 1_655 S
O549 Nd520 2.414 . S
O549 Nd521 2.682 1_455 S
O549 C538 1.273 . S
O550 Nd521 2.410 1_455 S
O550 C539 1.251 . S
O551 Nd520 2.424 . S
O551 C539 1.268 . S
H552 C524 0.930 . S
H553 C525 0.929 . S
H554 C527 0.930 . S
H555 C528 0.929 1_554 S
H556 C533 0.930 . S
H557 C534 0.929 . S
H558 C536 0.930 . S
H559 C537 0.929 . S
Nd560 C562 2.836 . S
Nd560 O580 2.500 . S
Nd560 O581 2.492 . S
Nd560 O582 2.487 . S
Nd560 O583 2.682 . S
Nd560 O584 2.410 . S
Nd560 O589 2.414 . S
Nd560 O591 2.424 . S
Nd561 C571 2.836 . S
Nd561 O583 2.414 . S
Nd561 O585 2.424 . S
Nd561 O586 2.500 . S
Nd561 O587 2.492 . S
Nd561 O588 2.487 . S
Nd561 O589 2.682 . S
Nd561 O590 2.410 . S
C562 Nd560 2.836 . S
C562 C563 1.498 . S
C562 O580 1.258 . S
C562 O581 1.239 . S
C563 C562 1.498 . S
C563 C564 1.366 . S
C563 C568 1.407 . S
C564 C563 1.366 . S
C564 C565 1.392 . S
C564 H592 0.930 . S
C565 C564 1.392 . S
C565 C566 1.398 . S
C565 H593 0.929 . S
C566 C565 1.398 . S
C566 C567 1.352 . S
C567 C566 1.352 . S
C567 C568 1.384 . S
C567 H594 0.930 . S
C568 C563 1.407 . S
C568 C567 1.384 . S
C568 H595 0.929 . S
C569 O582 1.241 . S
C569 O583 1.273 . S
C570 O584 1.251 . S
C570 O585 1.268 . S
C571 Nd561 2.836 . S
C571 C572 1.498 . S
C571 O586 1.258 . S
C571 O587 1.239 . S
C572 C571 1.498 . S
C572 C573 1.366 . S
C572 C577 1.407 . S
C573 C572 1.366 . S
C573 C574 1.392 . S
C573 H596 0.930 . S
C574 C573 1.392 . S
C574 C575 1.398 . S
C574 H597 0.929 . S
C575 C574 1.398 . S
C575 C576 1.352 . S
C576 C575 1.352 . S
C576 C577 1.384 . S
C576 H598 0.930 . S
C577 C572 1.407 . S
C577 C576 1.384 . S
C577 H599 0.929 . S
C578 O588 1.241 . S
C578 O589 1.273 . S
C579 O590 1.251 . S
C579 O591 1.268 . S
O580 Nd560 2.500 . S
O580 C562 1.258 . S
O581 Nd560 2.492 . S
O581 C562 1.239 . S
O582 Nd560 2.487 . S
O582 C569 1.241 . S
O583 Nd560 2.682 . S
O583 Nd561 2.414 . S
O583 C569 1.273 . S
O584 Nd560 2.410 . S
O584 C570 1.251 . S
O585 Nd561 2.424 . S
O585 C570 1.268 . S
O586 Nd561 2.500 . S
O586 C571 1.258 . S
O587 Nd561 2.492 . S
O587 C571 1.239 . S
O588 Nd561 2.487 . S
O588 C578 1.241 . S
O589 Nd560 2.414 . S
O589 Nd561 2.682 . S
O589 C578 1.273 . S
O590 Nd561 2.410 . S
O590 C579 1.251 . S
O591 Nd560 2.424 . S
O591 C579 1.268 . S
H592 C564 0.930 . S
H593 C565 0.929 . S
H594 C567 0.930 . S
H595 C568 0.929 . S
H596 C573 0.930 . S
H597 C574 0.929 . S
H598 C576 0.930 . S
H599 C577 0.929 . S
Nd600 C602 2.836 . S
Nd600 O620 2.500 . S
Nd600 O621 2.492 . S
Nd600 O622 2.487 . S
Nd600 O623 2.682 1_455 S
Nd600 O624 2.391 1_455 S
Nd600 O629 2.414 . S
Nd600 O631 2.424 . S
Nd601 C611 2.836 . S
Nd601 O623 2.414 . S
Nd601 O625 2.424 . S
Nd601 O626 2.500 . S
Nd601 O627 2.492 . S
Nd601 O628 2.487 . S
Nd601 O629 2.682 1_655 S
Nd601 O630 2.410 1_655 S
C602 Nd600 2.836 . S
C602 C603 1.498 . S
C602 O620 1.258 . S
C602 O621 1.239 . S
C603 C602 1.498 . S
C603 C604 1.366 . S
C603 C608 1.407 . S
C604 C603 1.366 . S
C604 C605 1.392 . S
C604 H632 0.930 . S
C605 C604 1.392 . S
C605 C606 1.398 . S
C605 H633 0.929 . S
C606 C605 1.398 . S
C606 C607 1.352 . S
C607 C606 1.352 . S
C607 C608 1.384 . S
C607 H634 0.930 . S
C608 C603 1.407 . S
C608 C607 1.384 . S
C608 H635 0.929 . S
C609 O622 1.241 . S
C609 O623 1.273 1_455 S
C610 O624 1.272 . S
C610 O625 1.268 . S
C611 Nd601 2.836 . S
C611 C612 1.498 . S
C611 O626 1.258 . S
C611 O627 1.239 . S
C612 C611 1.498 . S
C612 C613 1.366 1_556 S
C612 C617 1.407 1_556 S
C613 C612 1.366 1_554 S
C613 C614 1.392 . S
C613 H636 0.930 . S
C614 C613 1.392 . S
C614 C615 1.398 . S
C614 H637 0.929 . S
C615 C614 1.398 . S
C615 C616 1.352 . S
C616 C615 1.352 . S
C616 C617 1.384 . S
C616 H638 0.930 . S
C617 C612 1.407 1_554 S
C617 C616 1.384 . S
C617 H639 0.929 1_554 S
C618 O628 1.241 . S
C618 O629 1.273 1_655 S
C619 O630 1.251 . S
C619 O631 1.268 . S
O620 Nd600 2.500 . S
O620 C602 1.258 . S
O621 Nd600 2.492 . S
O621 C602 1.239 . S
O622 Nd600 2.487 . S
O622 C609 1.241 . S
O623 Nd600 2.682 1_655 S
O623 Nd601 2.414 . S
O623 C609 1.273 1_655 S
O624 Nd600 2.391 1_655 S
O624 C610 1.272 . S
O625 Nd601 2.424 . S
O625 C610 1.268 . S
O626 Nd601 2.500 . S
O626 C611 1.258 . S
O627 Nd601 2.492 . S
O627 C611 1.239 . S
O628 Nd601 2.487 . S
O628 C618 1.241 . S
O629 Nd600 2.414 . S
O629 Nd601 2.682 1_455 S
O629 C618 1.273 1_455 S
O630 Nd601 2.410 1_455 S
O630 C619 1.251 . S
O631 Nd600 2.424 . S
O631 C619 1.268 . S
H632 C604 0.930 . S
H633 C605 0.929 . S
H634 C607 0.930 . S
H635 C608 0.929 . S
H636 C613 0.930 . S
H637 C614 0.929 . S
H638 C616 0.930 . S
H639 C617 0.929 1_556 S
H640 C648 0.929 . S
H641 C650 0.930 . S
H642 C652 0.930 . S
H643 C655 0.929 . S
H644 C658 0.930 . S
H645 C660 0.960 . S
H646 C660 0.960 . S
H647 C660 0.960 . S
C648 H640 0.929 . S
C648 C649 1.377 . S
C648 C650 1.384 . S
C649 C648 1.377 . S
C649 C655 1.390 . S
C650 H641 0.930 . S
C650 C648 1.384 . S
C650 C651 1.372 1_554 S
C651 C650 1.372 1_556 S
C651 C652 1.400 . S
C651 C656 1.490 . S
C652 H642 0.930 . S
C652 C651 1.400 . S
C652 C655 1.386 1_556 S
H653 C669 0.930 . S
H654 C670 0.931 . S
C655 H643 0.929 . S
C655 C649 1.390 . S
C655 C652 1.386 1_554 S
C656 C651 1.490 . S
C656 C658 1.395 . S
C656 C659 1.403 . S
H657 C663 0.930 . S
C658 H644 0.930 . S
C658 C656 1.395 . S
C658 C661 1.403 . S
C659 C656 1.403 . S
C659 C660 1.524 . S
C659 C663 1.400 . S
C660 H645 0.960 . S
C660 H646 0.960 . S
C660 H647 0.960 . S
C660 C659 1.524 . S
C661 C658 1.403 . S
C661 C662 1.392 . S
C661 C665 1.495 . S
C662 C661 1.392 . S
C662 C663 1.385 . S
C662 C664 1.478 . S
C663 H657 0.930 . S
C663 C659 1.400 . S
C663 C662 1.385 . S
C664 C662 1.478 . S
C664 C666 1.381 . S
C664 C670 1.383 . S
C665 C661 1.495 . S
C665 H671 0.959 . S
C665 H672 0.961 . S
C665 H673 0.960 . S
C666 C664 1.381 . S
C666 C667 1.394 . S
C666 H674 0.930 . S
C667 C666 1.394 . S
C667 C668 1.383 . S
C667 H675 0.929 . S
C668 C667 1.383 . S
C668 C669 1.377 . S
C669 H653 0.930 . S
C669 C668 1.377 . S
C669 C670 1.379 . S
C670 H654 0.931 . S
C670 C664 1.383 . S
C670 C669 1.379 . S
H671 C665 0.959 . S
H672 C665 0.961 . S
H673 C665 0.960 . S
H674 C666 0.930 . S
H675 C667 0.929 . S
H676 C684 0.929 . S
H677 C686 0.930 . S
H678 C688 0.930 . S
H679 C691 0.929 . S
H680 C694 0.930 . S
H681 C696 0.960 . S
H682 C696 0.960 . S
H683 C696 0.960 . S
C684 H676 0.929 . S
C684 C685 1.377 . S
C684 C686 1.384 . S
C685 C684 1.377 . S
C685 C691 1.390 . S
C686 H677 0.930 . S
C686 C684 1.384 . S
C686 C687 1.372 . S
C687 C686 1.372 . S
C687 C688 1.400 . S
C687 C692 1.490 . S
C688 H678 0.930 . S
C688 C687 1.400 . S
C688 C691 1.386 . S
H689 C705 0.930 . S
H690 C706 0.931 . S
C691 H679 0.929 . S
C691 C685 1.390 . S
C691 C688 1.386 . S
C692 C687 1.490 . S
C692 C694 1.395 . S
C692 C695 1.403 . S
H693 C699 0.930 . S
C694 H680 0.930 . S
C694 C692 1.395 . S
C694 C697 1.403 . S
C695 C692 1.403 . S
C695 C696 1.524 . S
C695 C699 1.400 . S
C696 H681 0.960 . S
C696 H682 0.960 . S
C696 H683 0.960 . S
C696 C695 1.524 . S
C697 C694 1.403 . S
C697 C698 1.392 . S
C697 C701 1.495 . S
C698 C697 1.392 . S
C698 C699 1.385 . S
C698 C700 1.478 . S
C699 H693 0.930 . S
C699 C695 1.400 . S
C699 C698 1.385 . S
C700 C698 1.478 . S
C700 C702 1.381 . S
C700 C706 1.383 . S
C701 C697 1.495 . S
C701 H707 0.959 . S
C701 H708 0.961 . S
C701 H709 0.960 . S
C702 C700 1.381 . S
C702 C703 1.394 . S
C702 H710 0.930 . S
C703 C702 1.394 . S
C703 C704 1.383 . S
C703 H711 0.929 . S
C704 C703 1.383 . S
C704 C705 1.377 . S
C705 H689 0.930 . S
C705 C704 1.377 . S
C705 C706 1.379 . S
C706 H690 0.931 . S
C706 C700 1.383 . S
C706 C705 1.379 . S
H707 C701 0.959 . S
H708 C701 0.961 . S
H709 C701 0.960 . S
H710 C702 0.930 . S
H711 C703 0.929 . S
H712 C720 0.929 . S
H713 C722 0.930 . S
H714 C724 0.930 . S
H715 C727 0.929 . S
H716 C730 0.930 . S
H717 C732 0.960 . S
H718 C732 0.960 . S
H719 C732 0.960 . S
C720 H712 0.929 . S
C720 C721 1.377 . S
C720 C722 1.384 . S
C721 C720 1.377 . S
C721 C727 1.390 . S
C722 H713 0.930 . S
C722 C720 1.384 . S
C722 C723 1.372 . S
C723 C722 1.372 . S
C723 C724 1.400 . S
C723 C728 1.490 . S
C724 H714 0.930 . S
C724 C723 1.400 . S
C724 C727 1.386 . S
H725 C741 0.930 . S
H726 C742 0.931 . S
C727 H715 0.929 . S
C727 C721 1.390 . S
C727 C724 1.386 . S
C728 C723 1.490 . S
C728 C730 1.395 . S
C728 C731 1.403 . S
H729 C735 0.930 . S
C730 H716 0.930 . S
C730 C728 1.395 . S
C730 C733 1.403 . S
C731 C728 1.403 . S
C731 C732 1.524 . S
C731 C735 1.400 . S
C732 H717 0.960 . S
C732 H718 0.960 . S
C732 H719 0.960 . S
C732 C731 1.524 . S
C733 C730 1.403 . S
C733 C734 1.392 . S
C733 C737 1.495 . S
C734 C733 1.392 . S
C734 C735 1.385 . S
C734 C736 1.478 . S
C735 H729 0.930 . S
C735 C731 1.400 . S
C735 C734 1.385 . S
C736 C734 1.478 . S
C736 C738 1.381 . S
C736 C742 1.383 . S
C737 C733 1.495 . S
C737 H743 0.959 . S
C737 H744 0.961 . S
C737 H745 0.960 . S
C738 C736 1.381 . S
C738 C739 1.394 . S
C738 H746 0.930 . S
C739 C738 1.394 . S
C739 C740 1.383 . S
C739 H747 0.929 . S
C740 C739 1.383 . S
C740 C741 1.377 . S
C741 H725 0.930 . S
C741 C740 1.377 . S
C741 C742 1.379 . S
C742 H726 0.931 . S
C742 C736 1.383 . S
C742 C741 1.379 . S
H743 C737 0.959 . S
H744 C737 0.961 . S
H745 C737 0.960 . S
H746 C738 0.930 . S
H747 C739 0.929 . S
H748 C756 0.929 . S
H749 C758 0.930 . S
H750 C760 0.930 . S
H751 C763 0.929 . S
H752 C766 0.930 . S
H753 C768 0.960 . S
H754 C768 0.960 . S
H755 C768 0.960 . S
C756 H748 0.929 . S
C756 C757 1.377 . S
C756 C758 1.384 . S
C757 C756 1.377 . S
C757 C763 1.390 . S
C758 H749 0.930 . S
C758 C756 1.384 . S
C758 C759 1.372 . S
C759 C758 1.372 . S
C759 C760 1.400 . S
C759 C764 1.490 . S
C760 H750 0.930 . S
C760 C759 1.400 . S
C760 C763 1.386 . S
H761 C777 0.930 . S
H762 C778 0.931 . S
C763 H751 0.929 . S
C763 C757 1.390 . S
C763 C760 1.386 . S
C764 C759 1.490 . S
C764 C766 1.395 . S
C764 C767 1.403 . S
H765 C771 0.930 . S
C766 H752 0.930 . S
C766 C764 1.395 . S
C766 C769 1.403 . S
C767 C764 1.403 . S
C767 C768 1.524 . S
C767 C771 1.400 . S
C768 H753 0.960 . S
C768 H754 0.960 . S
C768 H755 0.960 . S
C768 C767 1.524 . S
C769 C766 1.403 . S
C769 C770 1.392 . S
C769 C773 1.495 . S
C770 C769 1.392 . S
C770 C771 1.385 . S
C770 C772 1.478 . S
C771 H765 0.930 . S
C771 C767 1.400 . S
C771 C770 1.385 . S
C772 C770 1.478 . S
C772 C774 1.381 . S
C772 C778 1.383 . S
C773 C769 1.495 . S
C773 H779 0.959 . S
C773 H780 0.961 . S
C773 H781 0.960 . S
C774 C772 1.381 . S
C774 C775 1.394 . S
C774 H782 0.930 . S
C775 C774 1.394 . S
C775 C776 1.383 . S
C775 H783 0.929 . S
C776 C775 1.383 . S
C776 C777 1.377 . S
C777 H761 0.930 . S
C777 C776 1.377 . S
C777 C778 1.379 . S
C778 H762 0.931 . S
C778 C772 1.383 . S
C778 C777 1.379 . S
H779 C773 0.959 . S
H780 C773 0.961 . S
H781 C773 0.960 . S
H782 C774 0.930 . S
H783 C775 0.929 . S
H784 C792 0.929 . S
H785 C794 0.930 . S
H786 C796 0.930 . S
H787 C799 0.929 . S
H788 C802 0.930 . S
H789 C804 0.960 . S
H790 C804 0.960 . S
H791 C804 0.960 . S
C792 H784 0.929 . S
C792 C793 1.377 . S
C792 C794 1.384 . S
C793 C792 1.377 . S
C793 C799 1.390 . S
C794 H785 0.930 . S
C794 C792 1.384 . S
C794 C795 1.372 . S
C795 C794 1.372 . S
C795 C796 1.400 . S
C795 C800 1.490 . S
C796 H786 0.930 . S
C796 C795 1.400 . S
C796 C799 1.386 . S
H797 C813 0.930 1_455 S
H798 C814 0.931 . S
C799 H787 0.929 . S
C799 C793 1.390 . S
C799 C796 1.386 . S
C800 C795 1.490 . S
C800 C802 1.395 . S
C800 C803 1.403 . S
H801 C807 0.930 . S
C802 H788 0.930 . S
C802 C800 1.395 . S
C802 C805 1.403 . S
C803 C800 1.403 . S
C803 C804 1.524 . S
C803 C807 1.400 . S
C804 H789 0.960 . S
C804 H790 0.960 . S
C804 H791 0.960 . S
C804 C803 1.524 . S
C805 C802 1.403 . S
C805 C806 1.392 . S
C805 C809 1.495 . S
C806 C805 1.392 . S
C806 C807 1.385 . S
C806 C808 1.478 . S
C807 H801 0.930 . S
C807 C803 1.400 . S
C807 C806 1.385 . S
C808 C806 1.478 . S
C808 C810 1.381 1_554 S
C808 C814 1.383 . S
C809 C805 1.495 . S
C809 H815 0.959 . S
C809 H816 0.961 . S
C809 H817 0.960 . S
C810 C808 1.381 1_556 S
C810 C811 1.394 . S
C810 H818 0.930 1_556 S
C811 C810 1.394 . S
C811 C812 1.383 . S
C811 H819 0.929 . S
C812 C811 1.383 . S
C812 C813 1.377 . S
C813 H797 0.930 1_655 S
C813 C812 1.377 . S
C813 C814 1.379 1_556 S
C814 H798 0.931 . S
C814 C808 1.383 . S
C814 C813 1.379 1_554 S
H815 C809 0.959 . S
H816 C809 0.961 . S
H817 C809 0.960 . S
H818 C810 0.930 1_554 S
H819 C811 0.929 . S
H820 C828 0.929 . S
H821 C830 0.930 . S
H822 C832 0.930 . S
H823 C835 0.929 . S
H824 C838 0.930 . S
H825 C840 0.960 . S
H826 C840 0.960 . S
H827 C840 0.960 . S
C828 H820 0.929 . S
C828 C829 1.377 . S
C828 C830 1.384 . S
C829 C828 1.377 . S
C829 C835 1.390 . S
C830 H821 0.930 . S
C830 C828 1.384 . S
C830 C831 1.372 . S
C831 C830 1.372 . S
C831 C832 1.400 . S
C831 C836 1.490 . S
C832 H822 0.930 . S
C832 C831 1.400 . S
C832 C835 1.386 . S
H833 C849 0.930 . S
H834 C850 0.931 . S
C835 H823 0.929 . S
C835 C829 1.390 . S
C835 C832 1.386 . S
C836 C831 1.490 . S
C836 C838 1.395 . S
C836 C839 1.403 . S
H837 C843 0.930 . S
C838 H824 0.930 . S
C838 C836 1.395 . S
C838 C841 1.403 . S
C839 C836 1.403 . S
C839 C840 1.524 . S
C839 C843 1.400 . S
C840 H825 0.960 . S
C840 H826 0.960 . S
C840 H827 0.960 . S
C840 C839 1.524 . S
C841 C838 1.403 . S
C841 C842 1.392 . S
C841 C845 1.495 . S
C842 C841 1.392 . S
C842 C843 1.385 . S
C842 C844 1.478 . S
C843 H837 0.930 . S
C843 C839 1.400 . S
C843 C842 1.385 . S
C844 C842 1.478 . S
C844 C846 1.381 . S
C844 C850 1.383 . S
C845 C841 1.495 . S
C845 H851 0.959 . S
C845 H852 0.961 . S
C845 H853 0.960 . S
C846 C844 1.381 . S
C846 C847 1.394 . S
C846 H854 0.930 . S
C847 C846 1.394 . S
C847 C848 1.383 . S
C847 H855 0.929 . S
C848 C847 1.383 . S
C848 C849 1.377 . S
C849 H833 0.930 . S
C849 C848 1.377 . S
C849 C850 1.379 . S
C850 H834 0.931 . S
C850 C844 1.383 . S
C850 C849 1.379 . S
H851 C845 0.959 . S
H852 C845 0.961 . S
H853 C845 0.960 . S
H854 C846 0.930 . S
H855 C847 0.929 . S
H856 C864 0.929 . S
H857 C866 0.930 . S
H858 C868 0.930 . S
H859 C871 0.929 . S
H860 C874 0.930 . S
H861 C876 0.960 . S
H862 C876 0.960 . S
H863 C876 0.960 . S
C864 H856 0.929 . S
C864 C865 1.377 . S
C864 C866 1.384 . S
C865 C864 1.377 . S
C865 C871 1.390 . S
C866 H857 0.930 . S
C866 C864 1.384 . S
C866 C867 1.372 . S
C867 C866 1.372 . S
C867 C868 1.400 . S
C867 C872 1.490 . S
C868 H858 0.930 . S
C868 C867 1.400 . S
C868 C871 1.386 . S
H869 C885 0.930 . S
H870 C886 0.931 . S
C871 H859 0.929 . S
C871 C865 1.390 . S
C871 C868 1.386 . S
C872 C867 1.490 . S
C872 C874 1.395 . S
C872 C875 1.403 . S
H873 C879 0.930 . S
C874 H860 0.930 . S
C874 C872 1.395 . S
C874 C877 1.403 . S
C875 C872 1.403 . S
C875 C876 1.524 . S
C875 C879 1.400 . S
C876 H861 0.960 . S
C876 H862 0.960 . S
C876 H863 0.960 . S
C876 C875 1.524 . S
C877 C874 1.403 . S
C877 C878 1.392 . S
C877 C881 1.495 . S
C878 C877 1.392 . S
C878 C879 1.385 . S
C878 C880 1.478 . S
C879 H873 0.930 . S
C879 C875 1.400 . S
C879 C878 1.385 . S
C880 C878 1.478 . S
C880 C882 1.381 . S
C880 C886 1.383 . S
C881 C877 1.495 . S
C881 H887 0.959 . S
C881 H888 0.961 . S
C881 H889 0.960 . S
C882 C880 1.381 . S
C882 C883 1.394 . S
C882 H890 0.930 . S
C883 C882 1.394 . S
C883 C884 1.383 . S
C883 H891 0.929 . S
C884 C883 1.383 . S
C884 C885 1.377 . S
C885 H869 0.930 . S
C885 C884 1.377 . S
C885 C886 1.379 . S
C886 H870 0.931 . S
C886 C880 1.383 . S
C886 C885 1.379 . S
H887 C881 0.959 . S
H888 C881 0.961 . S
H889 C881 0.960 . S
H890 C882 0.930 . S
H891 C883 0.929 . S
H892 C900 0.929 . S
H893 C902 0.930 . S
H894 C904 0.930 . S
H895 C907 0.929 . S
H896 C910 0.930 . S
H897 C912 0.960 . S
H898 C912 0.960 . S
H899 C912 0.960 . S
C900 H892 0.929 . S
C900 C901 1.377 . S
C900 C902 1.384 . S
C901 C900 1.377 . S
C901 C907 1.390 . S
C902 H893 0.930 . S
C902 C900 1.384 . S
C902 C903 1.372 . S
C903 C902 1.372 . S
C903 C904 1.400 . S
C903 C908 1.490 . S
C904 H894 0.930 . S
C904 C903 1.400 . S
C904 C907 1.386 . S
H905 C921 0.930 . S
H906 C922 0.931 . S
C907 H895 0.929 . S
C907 C901 1.390 . S
C907 C904 1.386 . S
C908 C903 1.490 . S
C908 C910 1.395 . S
C908 C911 1.403 . S
H909 C915 0.930 . S
C910 H896 0.930 . S
C910 C908 1.395 . S
C910 C913 1.403 . S
C911 C908 1.403 . S
C911 C912 1.524 . S
C911 C915 1.400 . S
C912 H897 0.960 . S
C912 H898 0.960 . S
C912 H899 0.960 . S
C912 C911 1.524 . S
C913 C910 1.403 . S
C913 C914 1.392 . S
C913 C917 1.495 . S
C914 C913 1.392 . S
C914 C915 1.385 . S
C914 C916 1.478 . S
C915 H909 0.930 . S
C915 C911 1.400 . S
C915 C914 1.385 . S
C916 C914 1.478 . S
C916 C918 1.381 . S
C916 C922 1.383 . S
C917 C913 1.495 . S
C917 H923 0.959 . S
C917 H924 0.961 . S
C917 H925 0.960 . S
C918 C916 1.381 . S
C918 C919 1.394 . S
C918 H926 0.930 . S
C919 C918 1.394 . S
C919 C920 1.383 . S
C919 H927 0.929 . S
C920 C919 1.383 . S
C920 C921 1.377 . S
C921 H905 0.930 . S
C921 C920 1.377 . S
C921 C922 1.379 . S
C922 H906 0.931 . S
C922 C916 1.383 . S
C922 C921 1.379 . S
H923 C917 0.959 . S
H924 C917 0.961 . S
H925 C917 0.960 . S
H926 C918 0.930 . S
H927 C919 0.929 . S
H928 C936 0.929 . S
H929 C938 0.930 . S
H930 C940 0.930 . S
H931 C943 0.929 . S
H932 C946 0.930 . S
H933 C948 0.960 . S
H934 C948 0.960 . S
H935 C948 0.960 . S
C936 H928 0.929 . S
C936 C937 1.377 . S
C936 C938 1.384 . S
C937 C936 1.377 . S
C937 C943 1.390 . S
C938 H929 0.930 . S
C938 C936 1.384 . S
C938 C939 1.372 . S
C939 C938 1.372 . S
C939 C940 1.400 . S
C939 C944 1.490 . S
C940 H930 0.930 . S
C940 C939 1.400 . S
C940 C943 1.386 . S
H941 C957 0.930 . S
H942 C958 0.931 . S
C943 H931 0.929 . S
C943 C937 1.390 . S
C943 C940 1.386 . S
C944 C939 1.490 . S
C944 C946 1.395 . S
C944 C947 1.403 . S
H945 C951 0.930 . S
C946 H932 0.930 . S
C946 C944 1.395 . S
C946 C949 1.403 . S
C947 C944 1.403 . S
C947 C948 1.524 . S
C947 C951 1.400 . S
C948 H933 0.960 . S
C948 H934 0.960 . S
C948 H935 0.960 . S
C948 C947 1.524 . S
C949 C946 1.403 . S
C949 C950 1.392 . S
C949 C953 1.495 . S
C950 C949 1.392 . S
C950 C951 1.385 . S
C950 C952 1.478 . S
C951 H945 0.930 . S
C951 C947 1.400 . S
C951 C950 1.385 . S
C952 C950 1.478 . S
C952 C954 1.381 . S
C952 C958 1.383 . S
C953 C949 1.495 . S
C953 H959 0.959 . S
C953 H960 0.961 . S
C953 H961 0.960 . S
C954 C952 1.381 . S
C954 C955 1.394 . S
C954 H962 0.930 . S
C955 C954 1.394 . S
C955 C956 1.383 . S
C955 H963 0.929 . S
C956 C955 1.383 . S
C956 C957 1.377 . S
C957 H941 0.930 . S
C957 C956 1.377 . S
C957 C958 1.379 . S
C958 H942 0.931 . S
C958 C952 1.383 . S
C958 C957 1.379 . S
H959 C953 0.959 . S
H960 C953 0.961 . S
H961 C953 0.960 . S
H962 C954 0.930 . S
H963 C955 0.929 . S
H964 C972 0.929 . S
H965 C974 0.930 . S
H966 C976 0.930 . S
H967 C979 0.929 . S
H968 C982 0.930 . S
H969 C984 0.960 . S
H970 C984 0.960 . S
H971 C984 0.960 . S
C972 H964 0.929 . S
C972 C973 1.377 . S
C972 C974 1.384 . S
C973 C972 1.377 . S
C973 C979 1.390 . S
C974 H965 0.930 . S
C974 C972 1.384 . S
C974 C975 1.372 . S
C975 C974 1.372 . S
C975 C976 1.400 . S
C975 C980 1.490 . S
C976 H966 0.930 . S
C976 C975 1.400 . S
C976 C979 1.386 . S
H977 C993 0.930 . S
H978 C994 0.931 . S
C979 H967 0.929 . S
C979 C973 1.390 . S
C979 C976 1.386 . S
C980 C975 1.490 . S
C980 C982 1.395 . S
C980 C983 1.403 . S
H981 C987 0.930 . S
C982 H968 0.930 . S
C982 C980 1.395 . S
C982 C985 1.403 . S
C983 C980 1.403 . S
C983 C984 1.524 . S
C983 C987 1.400 . S
C984 H969 0.960 . S
C984 H970 0.960 . S
C984 H971 0.960 . S
C984 C983 1.524 . S
C985 C982 1.403 . S
C985 C986 1.392 . S
C985 C989 1.495 . S
C986 C985 1.392 . S
C986 C987 1.385 . S
C986 C988 1.478 . S
C987 H981 0.930 . S
C987 C983 1.400 . S
C987 C986 1.385 . S
C988 C986 1.478 . S
C988 C990 1.381 . S
C988 C994 1.383 . S
C989 C985 1.495 . S
C989 H995 0.959 . S
C989 H996 0.961 . S
C989 H997 0.960 . S
C990 C988 1.381 . S
C990 C991 1.394 . S
C990 H998 0.930 . S
C991 C990 1.394 . S
C991 C992 1.383 . S
C991 H999 0.929 . S
C992 C991 1.383 . S
C992 C993 1.377 . S
C993 H977 0.930 . S
C993 C992 1.377 . S
C993 C994 1.379 . S
C994 H978 0.931 . S
C994 C988 1.383 . S
C994 C993 1.379 . S
H995 C989 0.959 . S
H996 C989 0.961 . S
H997 C989 0.960 . S
H998 C990 0.930 . S
H999 C991 0.929 . S
H1000 C1008 0.929 1_455 S
H1001 C1010 0.930 . S
H1002 C1012 0.930 . S
H1003 C1015 0.929 . S
H1004 C1018 0.930 . S
H1005 C1020 0.960 . S
H1006 C1020 0.960 . S
H1007 C1020 0.960 . S
C1008 H1000 0.929 1_655 S
C1008 C1009 1.377 . S
C1008 C1010 1.384 1_554 S
C1009 C1008 1.377 . S
C1009 C1015 1.390 . S
C1010 H1001 0.930 . S
C1010 C1008 1.384 1_556 S
C1010 C1011 1.372 . S
C1011 C1010 1.372 . S
C1011 C1012 1.400 1_556 S
C1011 C1016 1.490 . S
C1012 H1002 0.930 . S
C1012 C1011 1.400 1_554 S
C1012 C1015 1.386 . S
H1013 C1029 0.930 . S
H1014 C1030 0.931 . S
C1015 H1003 0.929 . S
C1015 C1009 1.390 . S
C1015 C1012 1.386 . S
C1016 C1011 1.490 . S
C1016 C1018 1.395 . S
C1016 C1019 1.403 . S
H1017 C1023 0.930 . S
C1018 H1004 0.930 . S
C1018 C1016 1.395 . S
C1018 C1021 1.403 . S
C1019 C1016 1.403 . S
C1019 C1020 1.524 . S
C1019 C1023 1.400 . S
C1020 H1005 0.960 . S
C1020 H1006 0.960 . S
C1020 H1007 0.960 . S
C1020 C1019 1.524 . S
C1021 C1018 1.403 . S
C1021 C1022 1.392 . S
C1021 C1025 1.495 . S
C1022 C1021 1.392 . S
C1022 C1023 1.385 . S
C1022 C1024 1.478 . S
C1023 H1017 0.930 . S
C1023 C1019 1.400 . S
C1023 C1022 1.385 . S
C1024 C1022 1.478 . S
C1024 C1026 1.381 . S
C1024 C1030 1.383 . S
C1025 C1021 1.495 . S
C1025 H1031 0.959 . S
C1025 H1032 0.961 . S
C1025 H1033 0.960 . S
C1026 C1024 1.381 . S
C1026 C1027 1.394 . S
C1026 H1034 0.930 . S
C1027 C1026 1.394 . S
C1027 C1028 1.383 . S
C1027 H1035 0.929 . S
C1028 C1027 1.383 . S
C1028 C1029 1.377 . S
C1029 H1013 0.930 . S
C1029 C1028 1.377 . S
C1029 C1030 1.379 . S
C1030 H1014 0.931 . S
C1030 C1024 1.383 . S
C1030 C1029 1.379 . S
H1031 C1025 0.959 . S
H1032 C1025 0.961 . S
H1033 C1025 0.960 . S
H1034 C1026 0.930 . S
H1035 C1027 0.929 . S
H1036 C1044 0.929 . S
H1037 C1046 0.930 . S
H1038 C1048 0.930 . S
H1039 C1051 0.929 . S
H1040 C1054 0.930 . S
H1041 C1056 0.960 . S
H1042 C1056 0.960 . S
H1043 C1056 0.960 . S
C1044 H1036 0.929 . S
C1044 C1045 1.377 . S
C1044 C1046 1.384 . S
C1045 C1044 1.377 . S
C1045 C1051 1.390 . S
C1046 H1037 0.930 . S
C1046 C1044 1.384 . S
C1046 C1047 1.372 . S
C1047 C1046 1.372 . S
C1047 C1048 1.400 . S
C1047 C1052 1.490 . S
C1048 H1038 0.930 . S
C1048 C1047 1.400 . S
C1048 C1051 1.386 . S
H1049 C1065 0.930 . S
H1050 C1066 0.931 . S
C1051 H1039 0.929 . S
C1051 C1045 1.390 . S
C1051 C1048 1.386 . S
C1052 C1047 1.490 . S
C1052 C1054 1.395 . S
C1052 C1055 1.403 . S
H1053 C1059 0.930 . S
C1054 H1040 0.930 . S
C1054 C1052 1.395 . S
C1054 C1057 1.403 . S
C1055 C1052 1.403 . S
C1055 C1056 1.524 . S
C1055 C1059 1.400 . S
C1056 H1041 0.960 . S
C1056 H1042 0.960 . S
C1056 H1043 0.960 . S
C1056 C1055 1.524 . S
C1057 C1054 1.403 . S
C1057 C1058 1.392 . S
C1057 C1061 1.495 . S
C1058 C1057 1.392 . S
C1058 C1059 1.385 . S
C1058 C1060 1.478 . S
C1059 H1053 0.930 . S
C1059 C1055 1.400 . S
C1059 C1058 1.385 . S
C1060 C1058 1.478 . S
C1060 C1062 1.381 . S
C1060 C1066 1.383 . S
C1061 C1057 1.495 . S
C1061 H1067 0.959 . S
C1061 H1068 0.961 . S
C1061 H1069 0.960 . S
C1062 C1060 1.381 . S
C1062 C1063 1.394 . S
C1062 H1070 0.930 . S
C1063 C1062 1.394 . S
C1063 C1064 1.383 . S
C1063 H1071 0.929 . S
C1064 C1063 1.383 . S
C1064 C1065 1.377 . S
C1065 H1049 0.930 . S
C1065 C1064 1.377 . S
C1065 C1066 1.379 . S
C1066 H1050 0.931 . S
C1066 C1060 1.383 . S
C1066 C1065 1.379 . S
H1067 C1061 0.959 . S
H1068 C1061 0.961 . S
H1069 C1061 0.960 . S
H1070 C1062 0.930 . S
H1071 C1063 0.929 . S
H1072 C1080 0.929 . S
H1073 C1082 0.930 . S
H1074 C1084 0.930 . S
H1075 C1087 0.929 . S
H1076 C1090 0.930 . S
H1077 C1092 0.960 . S
H1078 C1092 0.960 . S
H1079 C1092 0.960 . S
C1080 H1072 0.929 . S
C1080 C1081 1.377 . S
C1080 C1082 1.384 . S
C1081 C1080 1.377 . S
C1081 C1087 1.390 . S
C1082 H1073 0.930 . S
C1082 C1080 1.384 . S
C1082 C1083 1.372 . S
C1083 C1082 1.372 . S
C1083 C1084 1.400 . S
C1083 C1088 1.490 . S
C1084 H1074 0.930 . S
C1084 C1083 1.400 . S
C1084 C1087 1.386 . S
H1085 C1101 0.930 . S
H1086 C1102 0.931 . S
C1087 H1075 0.929 . S
C1087 C1081 1.390 . S
C1087 C1084 1.386 . S
C1088 C1083 1.490 . S
C1088 C1090 1.395 . S
C1088 C1091 1.403 . S
H1089 C1095 0.930 . S
C1090 H1076 0.930 . S
C1090 C1088 1.395 . S
C1090 C1093 1.403 . S
C1091 C1088 1.403 . S
C1091 C1092 1.524 . S
C1091 C1095 1.400 . S
C1092 H1077 0.960 . S
C1092 H1078 0.960 . S
C1092 H1079 0.960 . S
C1092 C1091 1.524 . S
C1093 C1090 1.403 . S
C1093 C1094 1.392 . S
C1093 C1097 1.495 . S
C1094 C1093 1.392 . S
C1094 C1095 1.385 . S
C1094 C1096 1.478 . S
C1095 H1089 0.930 . S
C1095 C1091 1.400 . S
C1095 C1094 1.385 . S
C1096 C1094 1.478 . S
C1096 C1098 1.381 . S
C1096 C1102 1.383 . S
C1097 C1093 1.495 . S
C1097 H1103 0.959 . S
C1097 H1104 0.961 . S
C1097 H1105 0.960 . S
C1098 C1096 1.381 . S
C1098 C1099 1.394 . S
C1098 H1106 0.930 . S
C1099 C1098 1.394 . S
C1099 C1100 1.383 . S
C1099 H1107 0.929 . S
C1100 C1099 1.383 . S
C1100 C1101 1.377 . S
C1101 H1085 0.930 . S
C1101 C1100 1.377 . S
C1101 C1102 1.379 . S
C1102 H1086 0.931 . S
C1102 C1096 1.383 . S
C1102 C1101 1.379 . S
H1103 C1097 0.959 . S
H1104 C1097 0.961 . S
H1105 C1097 0.960 . S
H1106 C1098 0.930 . S
H1107 C1099 0.929 . S
H1108 C1116 0.929 . S
H1109 C1118 0.930 . S
H1110 C1120 0.930 . S
H1111 C1123 0.929 . S
H1112 C1126 0.930 . S
H1113 C1128 0.960 . S
H1114 C1128 0.960 . S
H1115 C1128 0.960 . S
C1116 H1108 0.929 . S
C1116 C1117 1.377 . S
C1116 C1118 1.384 . S
C1117 C1116 1.377 . S
C1117 C1123 1.390 . S
C1118 H1109 0.930 . S
C1118 C1116 1.384 . S
C1118 C1119 1.372 . S
C1119 C1118 1.372 . S
C1119 C1120 1.400 . S
C1119 C1124 1.490 . S
C1120 H1110 0.930 . S
C1120 C1119 1.400 . S
C1120 C1123 1.386 . S
H1121 C1137 0.930 . S
H1122 C1138 0.931 . S
C1123 H1111 0.929 . S
C1123 C1117 1.390 . S
C1123 C1120 1.386 . S
C1124 C1119 1.490 . S
C1124 C1126 1.395 . S
C1124 C1127 1.403 . S
H1125 C1131 0.930 . S
C1126 H1112 0.930 . S
C1126 C1124 1.395 . S
C1126 C1129 1.403 . S
C1127 C1124 1.403 . S
C1127 C1128 1.524 . S
C1127 C1131 1.400 . S
C1128 H1113 0.960 . S
C1128 H1114 0.960 . S
C1128 H1115 0.960 . S
C1128 C1127 1.524 . S
C1129 C1126 1.403 . S
C1129 C1130 1.392 . S
C1129 C1133 1.495 . S
C1130 C1129 1.392 . S
C1130 C1131 1.385 . S
C1130 C1132 1.478 . S
C1131 H1125 0.930 . S
C1131 C1127 1.400 . S
C1131 C1130 1.385 . S
C1132 C1130 1.478 . S
C1132 C1134 1.381 . S
C1132 C1138 1.383 . S
C1133 C1129 1.495 . S
C1133 H1139 0.959 . S
C1133 H1140 0.961 . S
C1133 H1141 0.960 . S
C1134 C1132 1.381 . S
C1134 C1135 1.394 . S
C1134 H1142 0.930 . S
C1135 C1134 1.394 . S
C1135 C1136 1.383 . S
C1135 H1143 0.929 . S
C1136 C1135 1.383 . S
C1136 C1137 1.377 . S
C1137 H1121 0.930 . S
C1137 C1136 1.377 . S
C1137 C1138 1.379 . S
C1138 H1122 0.931 . S
C1138 C1132 1.383 . S
C1138 C1137 1.379 . S
H1139 C1133 0.959 . S
H1140 C1133 0.961 . S
H1141 C1133 0.960 . S
H1142 C1134 0.930 . S
H1143 C1135 0.929 . S
H1144 C1152 0.929 . S
H1145 C1154 0.930 . S
H1146 C1156 0.930 . S
H1147 C1159 0.929 . S
H1148 C1162 0.930 . S
H1149 C1164 0.960 . S
H1150 C1164 0.960 . S
H1151 C1164 0.960 . S
C1152 H1144 0.929 . S
C1152 C1153 1.377 . S
C1152 C1154 1.384 . S
C1153 C1152 1.377 . S
C1153 C1159 1.390 . S
C1154 H1145 0.930 . S
C1154 C1152 1.384 . S
C1154 C1155 1.372 . S
C1155 C1154 1.372 . S
C1155 C1156 1.400 . S
C1155 C1160 1.490 . S
C1156 H1146 0.930 . S
C1156 C1155 1.400 . S
C1156 C1159 1.386 . S
H1157 C1173 0.930 . S
H1158 C1174 0.931 1_554 S
C1159 H1147 0.929 . S
C1159 C1153 1.390 . S
C1159 C1156 1.386 . S
C1160 C1155 1.490 . S
C1160 C1162 1.395 . S
C1160 C1163 1.403 . S
H1161 C1167 0.930 . S
C1162 H1148 0.930 . S
C1162 C1160 1.395 . S
C1162 C1165 1.403 . S
C1163 C1160 1.403 . S
C1163 C1164 1.524 . S
C1163 C1167 1.400 . S
C1164 H1149 0.960 . S
C1164 H1150 0.960 . S
C1164 H1151 0.960 . S
C1164 C1163 1.524 . S
C1165 C1162 1.403 . S
C1165 C1166 1.392 . S
C1165 C1169 1.495 . S
C1166 C1165 1.392 . S
C1166 C1167 1.385 . S
C1166 C1168 1.478 . S
C1167 H1161 0.930 . S
C1167 C1163 1.400 . S
C1167 C1166 1.385 . S
C1168 C1166 1.478 . S
C1168 C1170 1.381 . S
C1168 C1174 1.383 1_554 S
C1169 C1165 1.495 . S
C1169 H1175 0.959 . S
C1169 H1176 0.961 . S
C1169 H1177 0.960 . S
C1170 C1168 1.381 . S
C1170 C1171 1.394 1_554 S
C1170 H1178 0.930 . S
C1171 C1170 1.394 1_556 S
C1171 C1172 1.383 . S
C1171 H1179 0.929 . S
C1172 C1171 1.383 . S
C1172 C1173 1.377 . S
C1173 H1157 0.930 . S
C1173 C1172 1.377 . S
C1173 C1174 1.379 . S
C1174 H1158 0.931 1_556 S
C1174 C1168 1.383 1_556 S
C1174 C1173 1.379 . S
H1175 C1169 0.959 . S
H1176 C1169 0.961 . S
H1177 C1169 0.960 . S
H1178 C1170 0.930 . S
H1179 C1171 0.929 . S
H1180 C1188 0.929 . S
H1181 C1190 0.930 . S
H1182 C1192 0.930 . S
H1183 C1195 0.929 . S
H1184 C1198 0.930 . S
H1185 C1200 0.960 . S
H1186 C1200 0.960 . S
H1187 C1200 0.960 . S
C1188 H1180 0.929 . S
C1188 C1189 1.377 . S
C1188 C1190 1.384 . S
C1189 C1188 1.377 . S
C1189 C1195 1.390 . S
C1190 H1181 0.930 . S
C1190 C1188 1.384 . S
C1190 C1191 1.372 . S
C1191 C1190 1.372 . S
C1191 C1192 1.400 . S
C1191 C1196 1.490 . S
C1192 H1182 0.930 . S
C1192 C1191 1.400 . S
C1192 C1195 1.386 . S
H1193 C1209 0.930 . S
H1194 C1210 0.931 . S
C1195 H1183 0.929 . S
C1195 C1189 1.390 . S
C1195 C1192 1.386 . S
C1196 C1191 1.490 . S
C1196 C1198 1.395 . S
C1196 C1199 1.403 . S
H1197 C1203 0.930 . S
C1198 H1184 0.930 . S
C1198 C1196 1.395 . S
C1198 C1201 1.403 . S
C1199 C1196 1.403 . S
C1199 C1200 1.524 . S
C1199 C1203 1.400 . S
C1200 H1185 0.960 . S
C1200 H1186 0.960 . S
C1200 H1187 0.960 . S
C1200 C1199 1.524 . S
C1201 C1198 1.403 . S
C1201 C1202 1.392 . S
C1201 C1205 1.495 . S
C1202 C1201 1.392 . S
C1202 C1203 1.385 . S
C1202 C1204 1.478 . S
C1203 H1197 0.930 . S
C1203 C1199 1.400 . S
C1203 C1202 1.385 . S
C1204 C1202 1.478 . S
C1204 C1206 1.381 . S
C1204 C1210 1.383 . S
C1205 C1201 1.495 . S
C1205 H1211 0.959 . S
C1205 H1212 0.961 . S
C1205 H1213 0.960 . S
C1206 C1204 1.381 . S
C1206 C1207 1.394 . S
C1206 H1214 0.930 . S
C1207 C1206 1.394 . S
C1207 C1208 1.383 . S
C1207 H1215 0.929 . S
C1208 C1207 1.383 . S
C1208 C1209 1.377 . S
C1209 H1193 0.930 . S
C1209 C1208 1.377 . S
C1209 C1210 1.379 . S
C1210 H1194 0.931 . S
C1210 C1204 1.383 . S
C1210 C1209 1.379 . S
H1211 C1205 0.959 . S
H1212 C1205 0.961 . S
H1213 C1205 0.960 . S
H1214 C1206 0.930 . S
H1215 C1207 0.929 . S
H1216 C1224 0.943 . S
H1217 C1226 0.930 1_655 S
H1218 C1228 0.930 . S
H1219 C1231 0.929 . S
H1220 C1234 0.930 . S
H1221 C1236 0.960 . S
H1222 C1236 0.960 . S
H1223 C1236 0.960 . S
C1224 H1216 0.943 . S
C1224 C1225 1.377 . S
C1224 C1226 1.384 . S
C1225 C1224 1.377 . S
C1225 C1231 1.390 . S
C1226 H1217 0.930 1_455 S
C1226 C1224 1.384 . S
C1226 C1227 1.372 . S
C1227 C1226 1.372 . S
C1227 C1228 1.400 . S
C1227 C1232 1.490 . S
C1228 H1218 0.930 . S
C1228 C1227 1.400 . S
C1228 C1231 1.386 . S
H1229 C1245 0.930 . S
H1230 C1246 0.931 . S
C1231 H1219 0.929 . S
C1231 C1225 1.390 . S
C1231 C1228 1.386 . S
C1232 C1227 1.490 . S
C1232 C1234 1.395 1_455 S
C1232 C1235 1.403 . S
H1233 C1239 0.930 . S
C1234 H1220 0.930 . S
C1234 C1232 1.395 1_655 S
C1234 C1237 1.403 . S
C1235 C1232 1.403 . S
C1235 C1236 1.524 . S
C1235 C1239 1.400 . S
C1236 H1221 0.960 . S
C1236 H1222 0.960 . S
C1236 H1223 0.960 . S
C1236 C1235 1.524 . S
C1237 C1234 1.403 . S
C1237 C1238 1.392 1_655 S
C1237 C1241 1.495 . S
C1238 C1237 1.392 1_455 S
C1238 C1239 1.385 . S
C1238 C1240 1.477 1_455 S
C1239 H1233 0.930 . S
C1239 C1235 1.400 . S
C1239 C1238 1.385 . S
C1240 C1238 1.477 1_655 S
C1240 C1242 1.384 . S
C1240 C1246 1.380 1_655 S
C1241 C1237 1.495 . S
C1241 H1247 0.959 . S
C1241 H1248 0.961 . S
C1241 H1249 0.960 . S
C1242 C1240 1.384 . S
C1242 C1243 1.394 . S
C1242 H1250 0.930 . S
C1243 C1242 1.394 . S
C1243 C1244 1.390 . S
C1243 H1251 0.929 . S
C1244 C1243 1.390 . S
C1244 C1245 1.370 1_655 S
C1245 H1229 0.930 . S
C1245 C1244 1.370 1_455 S
C1245 C1246 1.379 . S
C1246 H1230 0.931 . S
C1246 C1240 1.380 1_455 S
C1246 C1245 1.379 . S
H1247 C1241 0.959 . S
H1248 C1241 0.961 . S
H1249 C1241 0.960 . S
H1250 C1242 0.930 . S
H1251 C1243 0.929 . S
H1252 C1260 0.929 . S
H1253 C1262 0.930 . S
H1254 C1264 0.930 . S
H1255 C1267 0.929 . S
H1256 C1270 0.930 . S
H1257 C1272 0.960 1_455 S
H1258 C1272 0.960 . S
H1259 C1272 0.960 . S
C1260 H1252 0.929 . S
C1260 C1261 1.377 . S
C1260 C1262 1.384 . S
C1261 C1260 1.377 . S
C1261 C1267 1.390 . S
C1262 H1253 0.930 . S
C1262 C1260 1.384 . S
C1262 C1263 1.372 . S
C1263 C1262 1.372 . S
C1263 C1264 1.400 . S
C1263 C1268 1.490 . S
C1264 H1254 0.930 . S
C1264 C1263 1.400 . S
C1264 C1267 1.386 . S
H1265 C1281 0.930 . S
H1266 C1282 0.931 . S
C1267 H1255 0.929 . S
C1267 C1261 1.390 . S
C1267 C1264 1.386 . S
C1268 C1263 1.490 . S
C1268 C1270 1.395 . S
C1268 C1271 1.403 . S
H1269 C1275 0.930 . S
C1270 H1256 0.930 . S
C1270 C1268 1.395 . S
C1270 C1273 1.403 1_655 S
C1271 C1268 1.403 . S
C1271 C1272 1.524 . S
C1271 C1275 1.400 1_655 S
C1272 H1257 0.960 1_655 S
C1272 H1258 0.960 . S
C1272 H1259 0.960 . S
C1272 C1271 1.524 . S
C1273 C1270 1.403 1_455 S
C1273 C1274 1.392 . S
C1273 C1277 1.495 . S
C1274 C1273 1.392 . S
C1274 C1275 1.385 . S
C1274 C1276 1.478 . S
C1275 H1269 0.930 . S
C1275 C1271 1.400 1_455 S
C1275 C1274 1.385 . S
C1276 C1274 1.478 . S
C1276 C1278 1.381 . S
C1276 C1282 1.383 . S
C1277 C1273 1.495 . S
C1277 H1283 0.959 . S
C1277 H1284 0.961 . S
C1277 H1285 0.960 . S
C1278 C1276 1.381 . S
C1278 C1279 1.394 . S
C1278 H1286 0.930 . S
C1279 C1278 1.394 . S
C1279 C1280 1.383 . S
C1279 H1287 0.929 . S
C1280 C1279 1.383 . S
C1280 C1281 1.377 . S
C1281 H1265 0.930 . S
C1281 C1280 1.377 . S
C1281 C1282 1.379 . S
C1282 H1266 0.931 . S
C1282 C1276 1.383 . S
C1282 C1281 1.379 . S
H1283 C1277 0.959 . S
H1284 C1277 0.961 . S
H1285 C1277 0.960 . S
H1286 C1278 0.930 . S
H1287 C1279 0.929 . S
H1288 C1296 0.929 . S
H1289 C1298 0.930 . S
H1290 C1300 0.930 . S
H1291 C1303 0.929 . S
H1292 C1306 0.930 . S
H1293 C1308 0.960 . S
H1294 C1308 0.960 . S
H1295 C1308 0.960 . S
C1296 H1288 0.929 . S
C1296 C1297 1.377 . S
C1296 C1298 1.384 . S
C1297 C1296 1.377 . S
C1297 C1303 1.390 . S
C1298 H1289 0.930 . S
C1298 C1296 1.384 . S
C1298 C1299 1.372 . S
C1299 C1298 1.372 . S
C1299 C1300 1.400 . S
C1299 C1304 1.490 . S
C1300 H1290 0.930 . S
C1300 C1299 1.400 . S
C1300 C1303 1.386 . S
H1301 C1317 0.930 . S
H1302 C1318 0.931 . S
C1303 H1291 0.929 . S
C1303 C1297 1.390 . S
C1303 C1300 1.386 . S
C1304 C1299 1.490 . S
C1304 C1306 1.395 . S
C1304 C1307 1.403 . S
H1305 C1311 0.930 . S
C1306 H1292 0.930 . S
C1306 C1304 1.395 . S
C1306 C1309 1.403 . S
C1307 C1304 1.403 . S
C1307 C1308 1.524 . S
C1307 C1311 1.400 . S
C1308 H1293 0.960 . S
C1308 H1294 0.960 . S
C1308 H1295 0.960 . S
C1308 C1307 1.524 . S
C1309 C1306 1.403 . S
C1309 C1310 1.392 . S
C1309 C1313 1.495 . S
C1310 C1309 1.392 . S
C1310 C1311 1.385 . S
C1310 C1312 1.478 . S
C1311 H1305 0.930 . S
C1311 C1307 1.400 . S
C1311 C1310 1.385 . S
C1312 C1310 1.478 . S
C1312 C1314 1.381 . S
C1312 C1318 1.383 . S
C1313 C1309 1.495 . S
C1313 H1319 0.959 . S
C1313 H1320 0.961 . S
C1313 H1321 0.960 . S
C1314 C1312 1.381 . S
C1314 C1315 1.394 . S
C1314 H1322 0.930 . S
C1315 C1314 1.394 . S
C1315 C1316 1.383 . S
C1315 H1323 0.929 . S
C1316 C1315 1.383 . S
C1316 C1317 1.377 . S
C1317 H1301 0.930 . S
C1317 C1316 1.377 . S
C1317 C1318 1.379 . S
C1318 H1302 0.931 . S
C1318 C1312 1.383 . S
C1318 C1317 1.379 . S
H1319 C1313 0.959 . S
H1320 C1313 0.961 . S
H1321 C1313 0.960 . S
H1322 C1314 0.930 . S
H1323 C1315 0.929 . S
H1324 C1332 0.929 . S
H1325 C1334 0.930 . S
H1326 C1336 0.930 . S
H1327 C1339 0.929 . S
H1328 C1342 0.930 . S
H1329 C1344 0.960 . S
H1330 C1344 0.960 . S
H1331 C1344 0.960 . S
C1332 H1324 0.929 . S
C1332 C1333 1.377 . S
C1332 C1334 1.384 . S
C1333 C1332 1.377 . S
C1333 C1339 1.390 . S
C1334 H1325 0.930 . S
C1334 C1332 1.384 . S
C1334 C1335 1.372 . S
C1335 C1334 1.372 . S
C1335 C1336 1.400 . S
C1335 C1340 1.490 . S
C1336 H1326 0.930 . S
C1336 C1335 1.400 . S
C1336 C1339 1.386 . S
H1337 C1353 0.930 . S
H1338 C1354 0.931 . S
C1339 H1327 0.929 . S
C1339 C1333 1.390 . S
C1339 C1336 1.386 . S
C1340 C1335 1.490 . S
C1340 C1342 1.395 . S
C1340 C1343 1.403 . S
H1341 C1347 0.930 . S
C1342 H1328 0.930 . S
C1342 C1340 1.395 . S
C1342 C1345 1.403 . S
C1343 C1340 1.403 . S
C1343 C1344 1.524 . S
C1343 C1347 1.400 . S
C1344 H1329 0.960 . S
C1344 H1330 0.960 . S
C1344 H1331 0.960 . S
C1344 C1343 1.524 . S
C1345 C1342 1.403 . S
C1345 C1346 1.392 . S
C1345 C1349 1.495 . S
C1346 C1345 1.392 . S
C1346 C1347 1.385 . S
C1346 C1348 1.478 . S
C1347 H1341 0.930 . S
C1347 C1343 1.400 . S
C1347 C1346 1.385 . S
C1348 C1346 1.478 . S
C1348 C1350 1.381 . S
C1348 C1354 1.383 . S
C1349 C1345 1.495 . S
C1349 H1355 0.959 . S
C1349 H1356 0.961 . S
C1349 H1357 0.960 . S
C1350 C1348 1.381 . S
C1350 C1351 1.394 . S
C1350 H1358 0.930 . S
C1351 C1350 1.394 . S
C1351 C1352 1.383 . S
C1351 H1359 0.929 . S
C1352 C1351 1.383 . S
C1352 C1353 1.377 . S
C1353 H1337 0.930 . S
C1353 C1352 1.377 . S
C1353 C1354 1.379 . S
C1354 H1338 0.931 . S
C1354 C1348 1.383 . S
C1354 C1353 1.379 . S
H1355 C1349 0.959 . S
H1356 C1349 0.961 . S
H1357 C1349 0.960 . S
H1358 C1350 0.930 . S
H1359 C1351 0.929 . S
H1360 C1368 0.929 . S
H1361 C1370 0.930 . S
H1362 C1372 0.930 1_655 S
H1363 C1375 0.929 1_655 S
H1364 C1378 0.930 . S
H1365 C1380 0.960 . S
H1366 C1380 0.960 . S
H1367 C1380 0.960 . S
C1368 H1360 0.929 . S
C1368 C1369 1.377 . S
C1368 C1370 1.384 . S
C1369 C1368 1.377 . S
C1369 C1375 1.390 . S
C1370 H1361 0.930 . S
C1370 C1368 1.384 . S
C1370 C1371 1.372 . S
C1371 C1370 1.372 . S
C1371 C1372 1.400 . S
C1371 C1376 1.490 . S
C1372 H1362 0.930 1_455 S
C1372 C1371 1.400 . S
C1372 C1375 1.386 . S
H1373 C1389 0.930 . S
H1374 C1390 0.936 . S
C1375 H1363 0.929 1_455 S
C1375 C1369 1.390 . S
C1375 C1372 1.386 . S
C1376 C1371 1.490 . S
C1376 C1378 1.395 . S
C1376 C1379 1.403 1_455 S
H1377 C1383 0.930 . S
C1378 H1364 0.930 . S
C1378 C1376 1.395 . S
C1378 C1381 1.403 . S
C1379 C1376 1.403 1_655 S
C1379 C1380 1.524 . S
C1379 C1383 1.400 . S
C1380 H1365 0.960 . S
C1380 H1366 0.960 . S
C1380 H1367 0.960 . S
C1380 C1379 1.524 . S
C1381 C1378 1.403 . S
C1381 C1382 1.392 . S
C1381 C1385 1.495 . S
C1382 C1381 1.392 . S
C1382 C1383 1.385 1_455 S
C1382 C1384 1.478 . S
C1383 H1377 0.930 . S
C1383 C1379 1.400 . S
C1383 C1382 1.385 1_655 S
C1384 C1382 1.478 . S
C1384 C1386 1.381 . S
C1384 C1390 1.376 1_455 S
C1385 C1381 1.495 . S
C1385 H1391 0.959 . S
C1385 H1392 0.961 . S
C1385 H1393 0.960 . S
C1386 C1384 1.381 . S
C1386 C1387 1.394 . S
C1386 H1394 0.930 . S
C1387 C1386 1.394 . S
C1387 C1388 1.383 . S
C1387 H1395 0.929 . S
C1388 C1387 1.383 . S
C1388 C1389 1.377 1_455 S
C1389 H1373 0.930 . S
C1389 C1388 1.377 1_655 S
C1389 C1390 1.382 . S
C1390 H1374 0.936 . S
C1390 C1384 1.376 1_655 S
C1390 C1389 1.382 . S
H1391 C1385 0.959 . S
H1392 C1385 0.961 . S
H1393 C1385 0.960 . S
H1394 C1386 0.930 . S
H1395 C1387 0.929 . S
H1396 C1404 0.929 . S
H1397 C1406 0.930 . S
H1398 C1408 0.930 . S
H1399 C1411 0.929 . S
H1400 C1414 0.930 . S
H1401 C1416 0.960 . S
H1402 C1416 0.960 . S
H1403 C1416 0.960 . S
C1404 H1396 0.929 . S
C1404 C1405 1.377 . S
C1404 C1406 1.384 . S
C1405 C1404 1.377 . S
C1405 C1411 1.390 . S
C1406 H1397 0.930 . S
C1406 C1404 1.384 . S
C1406 C1407 1.372 . S
C1407 C1406 1.372 . S
C1407 C1408 1.400 . S
C1407 C1412 1.490 . S
C1408 H1398 0.930 . S
C1408 C1407 1.400 . S
C1408 C1411 1.386 . S
H1409 C1425 0.930 . S
H1410 C1426 0.931 . S
C1411 H1399 0.929 . S
C1411 C1405 1.390 . S
C1411 C1408 1.386 . S
C1412 C1407 1.490 . S
C1412 C1414 1.395 . S
C1412 C1415 1.403 . S
H1413 C1419 0.930 . S
C1414 H1400 0.930 . S
C1414 C1412 1.395 . S
C1414 C1417 1.403 . S
C1415 C1412 1.403 . S
C1415 C1416 1.524 . S
C1415 C1419 1.400 . S
C1416 H1401 0.960 . S
C1416 H1402 0.960 . S
C1416 H1403 0.960 . S
C1416 C1415 1.524 . S
C1417 C1414 1.403 . S
C1417 C1418 1.392 . S
C1417 C1421 1.495 . S
C1418 C1417 1.392 . S
C1418 C1419 1.385 . S
C1418 C1420 1.478 . S
C1419 H1413 0.930 . S
C1419 C1415 1.400 . S
C1419 C1418 1.385 . S
C1420 C1418 1.478 . S
C1420 C1422 1.381 . S
C1420 C1426 1.383 . S
C1421 C1417 1.495 . S
C1421 H1427 0.959 . S
C1421 H1428 0.961 . S
C1421 H1429 0.960 . S
C1422 C1420 1.381 . S
C1422 C1423 1.394 . S
C1422 H1430 0.930 . S
C1423 C1422 1.394 . S
C1423 C1424 1.383 . S
C1423 H1431 0.929 . S
C1424 C1423 1.383 . S
C1424 C1425 1.377 . S
C1425 H1409 0.930 . S
C1425 C1424 1.377 . S
C1425 C1426 1.379 . S
C1426 H1410 0.931 . S
C1426 C1420 1.383 . S
C1426 C1425 1.379 . S
H1427 C1421 0.959 . S
H1428 C1421 0.961 . S
H1429 C1421 0.960 . S
H1430 C1422 0.930 . S
H1431 C1423 0.929 . S
H1432 C1440 0.929 . S
H1433 C1442 0.930 . S
H1434 C1444 0.930 . S
H1435 C1447 0.929 . S
H1436 C1450 0.930 . S
H1437 C1452 0.960 . S
H1438 C1452 0.960 . S
H1439 C1452 0.960 . S
C1440 H1432 0.929 . S
C1440 C1441 1.377 . S
C1440 C1442 1.384 . S
C1441 C1440 1.377 . S
C1441 C1447 1.390 . S
C1442 H1433 0.930 . S
C1442 C1440 1.384 . S
C1442 C1443 1.372 . S
C1443 C1442 1.372 . S
C1443 C1444 1.400 . S
C1443 C1448 1.490 . S
C1444 H1434 0.930 . S
C1444 C1443 1.400 . S
C1444 C1447 1.386 . S
H1445 C1461 0.930 . S
H1446 C1462 0.931 . S
C1447 H1435 0.929 . S
C1447 C1441 1.390 . S
C1447 C1444 1.386 . S
C1448 C1443 1.490 . S
C1448 C1450 1.395 . S
C1448 C1451 1.403 . S
H1449 C1455 0.930 . S
C1450 H1436 0.930 . S
C1450 C1448 1.395 . S
C1450 C1453 1.403 . S
C1451 C1448 1.403 . S
C1451 C1452 1.524 . S
C1451 C1455 1.400 . S
C1452 H1437 0.960 . S
C1452 H1438 0.960 . S
C1452 H1439 0.960 . S
C1452 C1451 1.524 . S
C1453 C1450 1.403 . S
C1453 C1454 1.392 . S
C1453 C1457 1.495 . S
C1454 C1453 1.392 . S
C1454 C1455 1.385 . S
C1454 C1456 1.478 . S
C1455 H1449 0.930 . S
C1455 C1451 1.400 . S
C1455 C1454 1.385 . S
C1456 C1454 1.478 . S
C1456 C1458 1.381 . S
C1456 C1462 1.383 . S
C1457 C1453 1.495 . S
C1457 H1463 0.959 . S
C1457 H1464 0.961 . S
C1457 H1465 0.960 . S
C1458 C1456 1.381 . S
C1458 C1459 1.394 . S
C1458 H1466 0.930 . S
C1459 C1458 1.394 . S
C1459 C1460 1.383 . S
C1459 H1467 0.929 . S
C1460 C1459 1.383 . S
C1460 C1461 1.377 . S
C1461 H1445 0.930 . S
C1461 C1460 1.377 . S
C1461 C1462 1.379 . S
C1462 H1446 0.931 . S
C1462 C1456 1.383 . S
C1462 C1461 1.379 . S
H1463 C1457 0.959 . S
H1464 C1457 0.961 . S
H1465 C1457 0.960 . S
H1466 C1458 0.930 . S
H1467 C1459 0.929 . S
H1468 C1476 0.929 . S
H1469 C1478 0.930 . S
H1470 C1480 0.930 . S
H1471 C1483 0.929 . S
H1472 C1486 0.930 . S
H1473 C1488 0.960 . S
H1474 C1488 0.960 . S
H1475 C1488 0.960 . S
C1476 H1468 0.929 . S
C1476 C1477 1.377 . S
C1476 C1478 1.384 . S
C1477 C1476 1.377 . S
C1477 C1483 1.390 . S
C1478 H1469 0.930 . S
C1478 C1476 1.384 . S
C1478 C1479 1.372 . S
C1479 C1478 1.372 . S
C1479 C1480 1.400 . S
C1479 C1484 1.490 . S
C1480 H1470 0.930 . S
C1480 C1479 1.400 . S
C1480 C1483 1.386 . S
H1481 C1497 0.930 . S
H1482 C1498 0.931 . S
C1483 H1471 0.929 . S
C1483 C1477 1.390 . S
C1483 C1480 1.386 . S
C1484 C1479 1.490 . S
C1484 C1486 1.395 . S
C1484 C1487 1.403 . S
H1485 C1491 0.930 . S
C1486 H1472 0.930 . S
C1486 C1484 1.395 . S
C1486 C1489 1.403 1_455 S
C1487 C1484 1.403 . S
C1487 C1488 1.524 . S
C1487 C1491 1.400 1_455 S
C1488 H1473 0.960 . S
C1488 H1474 0.960 . S
C1488 H1475 0.960 . S
C1488 C1487 1.524 . S
C1489 C1486 1.403 1_655 S
C1489 C1490 1.392 . S
C1489 C1493 1.495 . S
C1490 C1489 1.392 . S
C1490 C1491 1.385 . S
C1490 C1492 1.478 . S
C1491 H1485 0.930 . S
C1491 C1487 1.400 1_655 S
C1491 C1490 1.385 . S
C1492 C1490 1.478 . S
C1492 C1494 1.381 . S
C1492 C1498 1.383 . S
C1493 C1489 1.495 . S
C1493 H1499 0.959 1_655 S
C1493 H1500 0.961 . S
C1493 H1501 0.960 . S
C1494 C1492 1.381 . S
C1494 C1495 1.394 . S
C1494 H1502 0.930 . S
C1495 C1494 1.394 . S
C1495 C1496 1.383 . S
C1495 H1503 0.929 . S
C1496 C1495 1.383 . S
C1496 C1497 1.377 . S
C1497 H1481 0.930 . S
C1497 C1496 1.377 . S
C1497 C1498 1.379 . S
C1498 H1482 0.931 . S
C1498 C1492 1.383 . S
C1498 C1497 1.379 . S
H1499 C1493 0.959 1_455 S
H1500 C1493 0.961 . S
H1501 C1493 0.960 . S
H1502 C1494 0.930 . S
H1503 C1495 0.929 . S
H1504 C1512 0.929 . S
H1505 C1514 0.930 . S
H1506 C1516 0.930 . S
H1507 C1519 0.929 . S
H1508 C1522 0.930 . S
H1509 C1524 0.960 . S
H1510 C1524 0.960 1_455 S
H1511 C1524 0.960 . S
C1512 H1504 0.929 . S
C1512 C1513 1.377 . S
C1512 C1514 1.384 . S
C1513 C1512 1.377 . S
C1513 C1519 1.390 1_455 S
C1514 H1505 0.930 . S
C1514 C1512 1.384 . S
C1514 C1515 1.372 . S
C1515 C1514 1.372 . S
C1515 C1516 1.400 1_455 S
C1515 C1520 1.490 . S
C1516 H1506 0.930 . S
C1516 C1515 1.400 1_655 S
C1516 C1519 1.386 . S
H1517 C1533 0.930 . S
H1518 C1534 0.931 . S
C1519 H1507 0.929 . S
C1519 C1513 1.390 1_655 S
C1519 C1516 1.386 . S
C1520 C1515 1.490 . S
C1520 C1522 1.395 1_545 S
C1520 C1523 1.403 1_554 S
H1521 C1527 0.931 . S
C1522 H1508 0.930 . S
C1522 C1520 1.395 1_565 S
C1522 C1525 1.403 . S
C1523 C1520 1.403 1_556 S
C1523 C1524 1.524 1_455 S
C1523 C1527 1.400 . S
C1524 H1509 0.960 . S
C1524 H1510 0.960 1_655 S
C1524 H1511 0.960 . S
C1524 C1523 1.524 1_655 S
C1525 C1522 1.403 . S
C1525 C1526 1.392 1_554 S
C1525 C1529 1.495 . S
C1526 C1525 1.392 1_556 S
C1526 C1527 1.385 1_565 S
C1526 C1528 1.478 . S
C1527 H1521 0.931 . S
C1527 C1523 1.400 . S
C1527 C1526 1.385 1_545 S
C1528 C1526 1.478 . S
C1528 C1530 1.381 . S
C1528 C1534 1.383 1_455 S
C1529 C1525 1.495 . S
C1529 H1535 0.959 . S
C1529 H1536 0.961 . S
C1529 H1537 0.960 . S
C1530 C1528 1.381 . S
C1530 C1531 1.394 . S
C1530 H1538 0.930 . S
C1531 C1530 1.394 . S
C1531 C1532 1.383 . S
C1531 H1539 0.929 . S
C1532 C1531 1.383 . S
C1532 C1533 1.377 1_455 S
C1533 H1517 0.930 . S
C1533 C1532 1.377 1_655 S
C1533 C1534 1.379 . S
C1534 H1518 0.931 . S
C1534 C1528 1.383 1_655 S
C1534 C1533 1.379 . S
H1535 C1529 0.959 . S
H1536 C1529 0.961 . S
H1537 C1529 0.960 . S
H1538 C1530 0.930 . S
H1539 C1531 0.929 . S
H1540 C1548 0.929 . S
H1541 C1550 0.930 . S
H1542 C1552 0.930 . S
H1543 C1555 0.929 . S
H1544 C1558 0.930 . S
H1545 C1560 0.960 . S
H1546 C1560 0.960 . S
H1547 C1560 0.960 . S
C1548 H1540 0.929 . S
C1548 C1549 1.377 . S
C1548 C1550 1.384 . S
C1549 C1548 1.377 . S
C1549 C1555 1.390 . S
C1550 H1541 0.930 . S
C1550 C1548 1.384 . S
C1550 C1551 1.372 . S
C1551 C1550 1.372 . S
C1551 C1552 1.400 . S
C1551 C1556 1.490 . S
C1552 H1542 0.930 . S
C1552 C1551 1.400 . S
C1552 C1555 1.386 . S
H1553 C1569 0.930 . S
H1554 C1570 0.931 . S
C1555 H1543 0.929 . S
C1555 C1549 1.390 . S
C1555 C1552 1.386 . S
C1556 C1551 1.490 . S
C1556 C1558 1.395 . S
C1556 C1559 1.403 . S
H1557 C1563 0.930 . S
C1558 H1544 0.930 . S
C1558 C1556 1.395 . S
C1558 C1561 1.403 . S
C1559 C1556 1.403 . S
C1559 C1560 1.524 . S
C1559 C1563 1.400 . S
C1560 H1545 0.960 . S
C1560 H1546 0.960 . S
C1560 H1547 0.960 . S
C1560 C1559 1.524 . S
C1561 C1558 1.403 . S
C1561 C1562 1.392 . S
C1561 C1565 1.495 . S
C1562 C1561 1.392 . S
C1562 C1563 1.385 . S
C1562 C1564 1.478 . S
C1563 H1557 0.930 . S
C1563 C1559 1.400 . S
C1563 C1562 1.385 . S
C1564 C1562 1.478 . S
C1564 C1566 1.381 . S
C1564 C1570 1.383 . S
C1565 C1561 1.495 . S
C1565 H1571 0.959 . S
C1565 H1572 0.961 . S
C1565 H1573 0.960 . S
C1566 C1564 1.381 . S
C1566 C1567 1.394 . S
C1566 H1574 0.930 . S
C1567 C1566 1.394 . S
C1567 C1568 1.383 . S
C1567 H1575 0.929 . S
C1568 C1567 1.383 . S
C1568 C1569 1.377 . S
C1569 H1553 0.930 . S
C1569 C1568 1.377 . S
C1569 C1570 1.379 . S
C1570 H1554 0.931 . S
C1570 C1564 1.383 . S
C1570 C1569 1.379 . S
H1571 C1565 0.959 . S
H1572 C1565 0.961 . S
H1573 C1565 0.960 . S
H1574 C1566 0.930 . S
H1575 C1567 0.929 . S
H1576 C1584 0.929 . S
H1577 C1586 0.930 . S
H1578 C1588 0.930 . S
H1579 C1591 0.929 . S
H1580 C1594 0.930 . S
H1581 C1596 0.960 . S
H1582 C1596 0.960 . S
H1583 C1596 0.960 . S
C1584 H1576 0.929 . S
C1584 C1585 1.377 . S
C1584 C1586 1.384 . S
C1585 C1584 1.377 . S
C1585 C1591 1.390 . S
C1586 H1577 0.930 . S
C1586 C1584 1.384 . S
C1586 C1587 1.372 . S
C1587 C1586 1.372 . S
C1587 C1588 1.400 . S
C1587 C1592 1.490 . S
C1588 H1578 0.930 . S
C1588 C1587 1.400 . S
C1588 C1591 1.386 . S
H1589 C1605 0.930 . S
H1590 C1606 0.931 . S
C1591 H1579 0.929 . S
C1591 C1585 1.390 . S
C1591 C1588 1.386 . S
C1592 C1587 1.490 . S
C1592 C1594 1.395 . S
C1592 C1595 1.403 1_545 S
H1593 C1599 0.930 . S
C1594 H1580 0.930 . S
C1594 C1592 1.395 . S
C1594 C1597 1.403 . S
C1595 C1592 1.403 1_565 S
C1595 C1596 1.524 . S
C1595 C1599 1.400 . S
C1596 H1581 0.960 . S
C1596 H1582 0.960 . S
C1596 H1583 0.960 . S
C1596 C1595 1.524 . S
C1597 C1594 1.403 . S
C1597 C1598 1.392 1_545 S
C1597 C1601 1.495 . S
C1598 C1597 1.392 1_565 S
C1598 C1599 1.385 . S
C1598 C1600 1.478 . S
C1599 H1593 0.930 . S
C1599 C1595 1.400 . S
C1599 C1598 1.385 . S
C1600 C1598 1.478 . S
C1600 C1602 1.381 . S
C1600 C1606 1.383 . S
C1601 C1597 1.495 . S
C1601 H1607 0.959 . S
C1601 H1608 0.961 . S
C1601 H1609 0.960 . S
C1602 C1600 1.381 . S
C1602 C1603 1.394 . S
C1602 H1610 0.930 . S
C1603 C1602 1.394 . S
C1603 C1604 1.383 . S
C1603 H1611 0.929 . S
C1604 C1603 1.383 . S
C1604 C1605 1.377 . S
C1605 H1589 0.930 . S
C1605 C1604 1.377 . S
C1605 C1606 1.379 . S
C1606 H1590 0.931 . S
C1606 C1600 1.383 . S
C1606 C1605 1.379 . S
H1607 C1601 0.959 . S
H1608 C1601 0.961 . S
H1609 C1601 0.960 . S
H1610 C1602 0.930 . S
H1611 C1603 0.929 . S
H1612 C1620 0.929 . S
H1613 C1622 0.930 . S
H1614 C1624 0.930 . S
H1615 C1627 0.929 . S
H1616 C1630 0.930 . S
H1617 C1632 0.960 . S
H1618 C1632 0.960 . S
H1619 C1632 0.960 . S
C1620 H1612 0.929 . S
C1620 C1621 1.377 . S
C1620 C1622 1.384 . S
C1621 C1620 1.377 . S
C1621 C1627 1.390 . S
C1622 H1613 0.930 . S
C1622 C1620 1.384 . S
C1622 C1623 1.372 . S
C1623 C1622 1.372 . S
C1623 C1624 1.400 . S
C1623 C1628 1.490 . S
C1624 H1614 0.930 . S
C1624 C1623 1.400 . S
C1624 C1627 1.386 . S
H1625 C1641 0.930 . S
H1626 C1642 0.931 . S
C1627 H1615 0.929 . S
C1627 C1621 1.390 . S
C1627 C1624 1.386 . S
C1628 C1623 1.490 . S
C1628 C1630 1.395 . S
C1628 C1631 1.403 . S
H1629 C1635 0.930 . S
C1630 H1616 0.930 . S
C1630 C1628 1.395 . S
C1630 C1633 1.403 . S
C1631 C1628 1.403 . S
C1631 C1632 1.524 . S
C1631 C1635 1.400 . S
C1632 H1617 0.960 . S
C1632 H1618 0.960 . S
C1632 H1619 0.960 . S
C1632 C1631 1.524 . S
C1633 C1630 1.403 . S
C1633 C1634 1.392 . S
C1633 C1637 1.495 . S
C1634 C1633 1.392 . S
C1634 C1635 1.385 . S
C1634 C1636 1.478 . S
C1635 H1629 0.930 . S
C1635 C1631 1.400 . S
C1635 C1634 1.385 . S
C1636 C1634 1.478 . S
C1636 C1638 1.381 . S
C1636 C1642 1.383 . S
C1637 C1633 1.495 . S
C1637 H1643 0.959 . S
C1637 H1644 0.961 . S
C1637 H1645 0.960 . S
C1638 C1636 1.381 . S
C1638 C1639 1.394 . S
C1638 H1646 0.930 . S
C1639 C1638 1.394 . S
C1639 C1640 1.383 . S
C1639 H1647 0.929 . S
C1640 C1639 1.383 . S
C1640 C1641 1.377 . S
C1641 H1625 0.930 . S
C1641 C1640 1.377 . S
C1641 C1642 1.379 . S
C1642 H1626 0.931 . S
C1642 C1636 1.383 . S
C1642 C1641 1.379 . S
H1643 C1637 0.959 . S
H1644 C1637 0.961 . S
H1645 C1637 0.960 . S
H1646 C1638 0.930 . S
H1647 C1639 0.929 . S
H1648 C1656 0.929 . S
H1649 C1658 0.930 . S
H1650 C1660 0.930 . S
H1651 C1663 0.929 . S
H1652 C1666 0.930 . S
H1653 C1668 0.960 . S
H1654 C1668 0.960 . S
H1655 C1668 0.960 . S
C1656 H1648 0.929 . S
C1656 C1657 1.377 . S
C1656 C1658 1.384 . S
C1657 C1656 1.377 . S
C1657 C1663 1.390 . S
C1658 H1649 0.930 . S
C1658 C1656 1.384 . S
C1658 C1659 1.372 . S
C1659 C1658 1.372 . S
C1659 C1660 1.400 . S
C1659 C1664 1.490 . S
C1660 H1650 0.930 . S
C1660 C1659 1.400 . S
C1660 C1663 1.386 . S
H1661 C1677 0.930 . S
H1662 C1678 0.931 . S
C1663 H1651 0.929 . S
C1663 C1657 1.390 . S
C1663 C1660 1.386 . S
C1664 C1659 1.490 . S
C1664 C1666 1.395 . S
C1664 C1667 1.403 . S
H1665 C1671 0.930 . S
C1666 H1652 0.930 . S
C1666 C1664 1.395 . S
C1666 C1669 1.403 . S
C1667 C1664 1.403 . S
C1667 C1668 1.524 . S
C1667 C1671 1.400 . S
C1668 H1653 0.960 . S
C1668 H1654 0.960 . S
C1668 H1655 0.960 . S
C1668 C1667 1.524 . S
C1669 C1666 1.403 . S
C1669 C1670 1.392 . S
C1669 C1673 1.495 . S
C1670 C1669 1.392 . S
C1670 C1671 1.385 . S
C1670 C1672 1.478 . S
C1671 H1665 0.930 . S
C1671 C1667 1.400 . S
C1671 C1670 1.385 . S
C1672 C1670 1.478 . S
C1672 C1674 1.381 . S
C1672 C1678 1.383 . S
C1673 C1669 1.495 . S
C1673 H1679 0.959 . S
C1673 H1680 0.961 . S
C1673 H1681 0.960 . S
C1674 C1672 1.381 . S
C1674 C1675 1.394 . S
C1674 H1682 0.930 . S
C1675 C1674 1.394 . S
C1675 C1676 1.383 . S
C1675 H1683 0.929 . S
C1676 C1675 1.383 . S
C1676 C1677 1.377 . S
C1677 H1661 0.930 . S
C1677 C1676 1.377 . S
C1677 C1678 1.379 . S
C1678 H1662 0.931 . S
C1678 C1672 1.383 . S
C1678 C1677 1.379 . S
H1679 C1673 0.959 . S
H1680 C1673 0.961 . S
H1681 C1673 0.960 . S
H1682 C1674 0.930 . S
H1683 C1675 0.929 . S
H1684 C1692 0.929 . S
H1685 C1694 0.930 . S
H1686 C1696 0.930 . S
H1687 C1699 0.929 . S
H1688 C1702 0.930 . S
H1689 C1704 0.960 . S
H1690 C1704 0.960 . S
H1691 C1704 0.960 . S
C1692 H1684 0.929 . S
C1692 C1693 1.377 . S
C1692 C1694 1.384 . S
C1693 C1692 1.377 . S
C1693 C1699 1.390 . S
C1694 H1685 0.930 . S
C1694 C1692 1.384 . S
C1694 C1695 1.372 . S
C1695 C1694 1.372 . S
C1695 C1696 1.400 . S
C1695 C1700 1.490 . S
C1696 H1686 0.930 . S
C1696 C1695 1.400 . S
C1696 C1699 1.386 . S
H1697 C1713 0.930 . S
H1698 C1714 0.931 . S
C1699 H1687 0.929 . S
C1699 C1693 1.390 . S
C1699 C1696 1.386 . S
C1700 C1695 1.490 . S
C1700 C1702 1.395 . S
C1700 C1703 1.403 . S
H1701 C1707 0.930 . S
C1702 H1688 0.930 . S
C1702 C1700 1.395 . S
C1702 C1705 1.403 . S
C1703 C1700 1.403 . S
C1703 C1704 1.524 . S
C1703 C1707 1.400 . S
C1704 H1689 0.960 . S
C1704 H1690 0.960 . S
C1704 H1691 0.960 . S
C1704 C1703 1.524 . S
C1705 C1702 1.403 . S
C1705 C1706 1.392 . S
C1705 C1709 1.495 . S
C1706 C1705 1.392 . S
C1706 C1707 1.385 . S
C1706 C1708 1.478 . S
C1707 H1701 0.930 . S
C1707 C1703 1.400 . S
C1707 C1706 1.385 . S
C1708 C1706 1.478 . S
C1708 C1710 1.381 . S
C1708 C1714 1.383 . S
C1709 C1705 1.495 . S
C1709 H1715 0.959 . S
C1709 H1716 0.961 . S
C1709 H1717 0.960 . S
C1710 C1708 1.381 . S
C1710 C1711 1.394 . S
C1710 H1718 0.930 . S
C1711 C1710 1.394 . S
C1711 C1712 1.383 . S
C1711 H1719 0.929 . S
C1712 C1711 1.383 . S
C1712 C1713 1.377 . S
C1713 H1697 0.930 . S
C1713 C1712 1.377 . S
C1713 C1714 1.379 . S
C1714 H1698 0.931 . S
C1714 C1708 1.383 . S
C1714 C1713 1.379 . S
H1715 C1709 0.959 . S
H1716 C1709 0.961 . S
H1717 C1709 0.960 . S
H1718 C1710 0.930 . S
H1719 C1711 0.929 . S
H1720 C1728 0.929 . S
H1721 C1730 0.930 . S
H1722 C1732 0.930 . S
H1723 C1735 0.929 . S
H1724 C1738 0.930 . S
H1725 C1740 0.960 . S
H1726 C1740 0.960 . S
H1727 C1740 0.960 . S
C1728 H1720 0.929 . S
C1728 C1729 1.377 . S
C1728 C1730 1.384 . S
C1729 C1728 1.377 . S
C1729 C1735 1.390 . S
C1730 H1721 0.930 . S
C1730 C1728 1.384 . S
C1730 C1731 1.372 . S
C1731 C1730 1.372 . S
C1731 C1732 1.400 . S
C1731 C1736 1.490 . S
C1732 H1722 0.930 . S
C1732 C1731 1.400 . S
C1732 C1735 1.386 . S
H1733 C1749 0.930 . S
H1734 C1750 0.931 . S
C1735 H1723 0.929 . S
C1735 C1729 1.390 . S
C1735 C1732 1.386 . S
C1736 C1731 1.490 . S
C1736 C1738 1.395 . S
C1736 C1739 1.403 . S
H1737 C1743 0.930 . S
C1738 H1724 0.930 . S
C1738 C1736 1.395 . S
C1738 C1741 1.403 . S
C1739 C1736 1.403 . S
C1739 C1740 1.524 . S
C1739 C1743 1.400 . S
C1740 H1725 0.960 . S
C1740 H1726 0.960 . S
C1740 H1727 0.960 . S
C1740 C1739 1.524 . S
C1741 C1738 1.403 . S
C1741 C1742 1.392 . S
C1741 C1745 1.495 . S
C1742 C1741 1.392 . S
C1742 C1743 1.385 . S
C1742 C1744 1.478 . S
C1743 H1737 0.930 . S
C1743 C1739 1.400 . S
C1743 C1742 1.385 . S
C1744 C1742 1.478 . S
C1744 C1746 1.381 . S
C1744 C1750 1.383 . S
C1745 C1741 1.495 . S
C1745 H1751 0.959 . S
C1745 H1752 0.961 . S
C1745 H1753 0.960 . S
C1746 C1744 1.381 . S
C1746 C1747 1.394 . S
C1746 H1754 0.930 . S
C1747 C1746 1.394 . S
C1747 C1748 1.383 . S
C1747 H1755 0.929 . S
C1748 C1747 1.383 . S
C1748 C1749 1.377 . S
C1749 H1733 0.930 . S
C1749 C1748 1.377 . S
C1749 C1750 1.379 . S
C1750 H1734 0.931 . S
C1750 C1744 1.383 . S
C1750 C1749 1.379 . S
H1751 C1745 0.959 . S
H1752 C1745 0.961 . S
H1753 C1745 0.960 . S
H1754 C1746 0.930 . S
H1755 C1747 0.929 . S
H1756 C1764 0.929 . S
H1757 C1766 0.930 . S
H1758 C1768 0.930 . S
H1759 C1771 0.929 . S
H1760 C1774 0.930 . S
H1761 C1776 0.960 1_655 S
H1762 C1776 0.960 . S
H1763 C1776 0.960 1_655 S
C1764 H1756 0.929 . S
C1764 C1765 1.377 . S
C1764 C1766 1.384 . S
C1765 C1764 1.377 . S
C1765 C1771 1.390 1_455 S
C1766 H1757 0.930 . S
C1766 C1764 1.384 . S
C1766 C1767 1.372 . S
C1767 C1766 1.372 . S
C1767 C1768 1.400 1_455 S
C1767 C1772 1.490 . S
C1768 H1758 0.930 . S
C1768 C1767 1.400 1_655 S
C1768 C1771 1.386 . S
H1769 C1785 0.930 . S
H1770 C1786 0.931 . S
C1771 H1759 0.929 . S
C1771 C1765 1.390 1_655 S
C1771 C1768 1.386 . S
C1772 C1767 1.490 . S
C1772 C1774 1.395 1_556 S
C1772 C1775 1.403 . S
H1773 C1779 0.930 . S
C1774 H1760 0.930 . S
C1774 C1772 1.395 1_554 S
C1774 C1777 1.403 . S
C1775 C1772 1.403 . S
C1775 C1776 1.524 . S
C1775 C1779 1.400 . S
C1776 H1761 0.960 1_455 S
C1776 H1762 0.960 . S
C1776 H1763 0.960 1_455 S
C1776 C1775 1.524 . S
C1777 C1774 1.403 . S
C1777 C1778 1.392 . S
C1777 C1781 1.495 . S
C1778 C1777 1.392 . S
C1778 C1779 1.385 1_554 S
C1778 C1780 1.478 . S
C1779 H1773 0.930 . S
C1779 C1775 1.400 . S
C1779 C1778 1.385 1_556 S
C1780 C1778 1.478 . S
C1780 C1782 1.381 . S
C1780 C1786 1.383 1_455 S
C1781 C1777 1.495 . S
C1781 H1787 0.959 . S
C1781 H1788 0.961 . S
C1781 H1789 0.960 . S
C1782 C1780 1.381 . S
C1782 C1783 1.394 . S
C1782 H1790 0.930 . S
C1783 C1782 1.394 . S
C1783 C1784 1.383 . S
C1783 H1791 0.929 . S
C1784 C1783 1.383 . S
C1784 C1785 1.377 1_455 S
C1785 H1769 0.930 . S
C1785 C1784 1.377 1_655 S
C1785 C1786 1.379 . S
C1786 H1770 0.931 . S
C1786 C1780 1.383 1_655 S
C1786 C1785 1.379 . S
H1787 C1781 0.959 . S
H1788 C1781 0.961 . S
H1789 C1781 0.960 . S
H1790 C1782 0.930 . S
H1791 C1783 0.929 . S
H1792 C1800 0.929 . S
H1793 C1802 0.930 . S
H1794 C1804 0.930 . S
H1795 C1807 0.929 . S
H1796 C1810 0.930 . S
H1797 C1812 0.960 . S
H1798 C1812 0.960 . S
H1799 C1812 0.960 . S
C1800 H1792 0.929 . S
C1800 C1801 1.377 . S
C1800 C1802 1.384 . S
C1801 C1800 1.377 . S
C1801 C1807 1.390 . S
C1802 H1793 0.930 . S
C1802 C1800 1.384 . S
C1802 C1803 1.372 . S
C1803 C1802 1.372 . S
C1803 C1804 1.400 . S
C1803 C1808 1.490 . S
C1804 H1794 0.930 . S
C1804 C1803 1.400 . S
C1804 C1807 1.386 . S
H1805 C1821 0.930 . S
H1806 C1822 0.931 . S
C1807 H1795 0.929 . S
C1807 C1801 1.390 . S
C1807 C1804 1.386 . S
C1808 C1803 1.490 . S
C1808 C1810 1.395 . S
C1808 C1811 1.403 . S
H1809 C1815 0.930 . S
C1810 H1796 0.930 . S
C1810 C1808 1.395 . S
C1810 C1813 1.403 . S
C1811 C1808 1.403 . S
C1811 C1812 1.524 . S
C1811 C1815 1.400 . S
C1812 H1797 0.960 . S
C1812 H1798 0.960 . S
C1812 H1799 0.960 . S
C1812 C1811 1.524 . S
C1813 C1810 1.403 . S
C1813 C1814 1.392 . S
C1813 C1817 1.495 . S
C1814 C1813 1.392 . S
C1814 C1815 1.385 . S
C1814 C1816 1.478 . S
C1815 H1809 0.930 . S
C1815 C1811 1.400 . S
C1815 C1814 1.385 . S
C1816 C1814 1.478 . S
C1816 C1818 1.381 . S
C1816 C1822 1.383 . S
C1817 C1813 1.495 . S
C1817 H1823 0.959 . S
C1817 H1824 0.961 . S
C1817 H1825 0.960 . S
C1818 C1816 1.381 . S
C1818 C1819 1.394 . S
C1818 H1826 0.930 . S
C1819 C1818 1.394 . S
C1819 C1820 1.383 . S
C1819 H1827 0.929 . S
C1820 C1819 1.383 . S
C1820 C1821 1.377 . S
C1821 H1805 0.930 . S
C1821 C1820 1.377 . S
C1821 C1822 1.379 . S
C1822 H1806 0.931 . S
C1822 C1816 1.383 . S
C1822 C1821 1.379 . S
H1823 C1817 0.959 . S
H1824 C1817 0.961 . S
H1825 C1817 0.960 . S
H1826 C1818 0.930 . S
H1827 C1819 0.929 . S
H1828 C1836 0.929 . S
H1829 C1838 0.930 . S
H1830 C1840 0.930 . S
H1831 C1843 0.929 . S
H1832 C1846 0.930 . S
H1833 C1848 0.960 . S
H1834 C1848 0.960 . S
H1835 C1848 0.960 . S
C1836 H1828 0.929 . S
C1836 C1837 1.377 . S
C1836 C1838 1.384 . S
C1837 C1836 1.377 . S
C1837 C1843 1.390 . S
C1838 H1829 0.930 . S
C1838 C1836 1.384 . S
C1838 C1839 1.372 . S
C1839 C1838 1.372 . S
C1839 C1840 1.400 . S
C1839 C1844 1.490 . S
C1840 H1830 0.930 . S
C1840 C1839 1.400 . S
C1840 C1843 1.386 . S
H1841 C1857 0.930 . S
H1842 C1858 0.931 . S
C1843 H1831 0.929 . S
C1843 C1837 1.390 . S
C1843 C1840 1.386 . S
C1844 C1839 1.490 . S
C1844 C1846 1.395 . S
C1844 C1847 1.403 . S
H1845 C1851 0.930 . S
C1846 H1832 0.930 . S
C1846 C1844 1.395 . S
C1846 C1849 1.403 . S
C1847 C1844 1.403 . S
C1847 C1848 1.524 . S
C1847 C1851 1.400 . S
C1848 H1833 0.960 . S
C1848 H1834 0.960 . S
C1848 H1835 0.960 . S
C1848 C1847 1.524 . S
C1849 C1846 1.403 . S
C1849 C1850 1.392 . S
C1849 C1853 1.495 . S
C1850 C1849 1.392 . S
C1850 C1851 1.385 . S
C1850 C1852 1.478 . S
C1851 H1845 0.930 . S
C1851 C1847 1.400 . S
C1851 C1850 1.385 . S
C1852 C1850 1.478 . S
C1852 C1854 1.381 . S
C1852 C1858 1.383 . S
C1853 C1849 1.495 . S
C1853 H1859 0.959 . S
C1853 H1860 0.961 . S
C1853 H1861 0.960 . S
C1854 C1852 1.381 . S
C1854 C1855 1.394 . S
C1854 H1862 0.930 . S
C1855 C1854 1.394 . S
C1855 C1856 1.383 . S
C1855 H1863 0.929 . S
C1856 C1855 1.383 . S
C1856 C1857 1.377 . S
C1857 H1841 0.930 . S
C1857 C1856 1.377 . S
C1857 C1858 1.379 . S
C1858 H1842 0.931 . S
C1858 C1852 1.383 . S
C1858 C1857 1.379 . S
H1859 C1853 0.959 . S
H1860 C1853 0.961 . S
H1861 C1853 0.960 . S
H1862 C1854 0.930 . S
H1863 C1855 0.929 . S
H1864 C1872 0.929 . S
H1865 C1874 0.930 . S
H1866 C1876 0.930 . S
H1867 C1879 0.929 . S
H1868 C1882 0.930 . S
H1869 C1884 0.960 . S
H1870 C1884 0.960 . S
H1871 C1884 0.960 . S
C1872 H1864 0.929 . S
C1872 C1873 1.377 . S
C1872 C1874 1.384 1_554 S
C1873 C1872 1.377 . S
C1873 C1879 1.390 . S
C1874 H1865 0.930 . S
C1874 C1872 1.384 1_556 S
C1874 C1875 1.372 . S
C1875 C1874 1.372 . S
C1875 C1876 1.400 1_556 S
C1875 C1880 1.490 . S
C1876 H1866 0.930 . S
C1876 C1875 1.400 1_554 S
C1876 C1879 1.386 . S
H1877 C1893 0.930 . S
H1878 C1894 0.931 . S
C1879 H1867 0.929 . S
C1879 C1873 1.390 . S
C1879 C1876 1.386 . S
C1880 C1875 1.490 . S
C1880 C1882 1.395 . S
C1880 C1883 1.403 . S
H1881 C1887 0.930 . S
C1882 H1868 0.930 . S
C1882 C1880 1.395 . S
C1882 C1885 1.403 . S
C1883 C1880 1.403 . S
C1883 C1884 1.524 . S
C1883 C1887 1.400 . S
C1884 H1869 0.960 . S
C1884 H1870 0.960 . S
C1884 H1871 0.960 . S
C1884 C1883 1.524 . S
C1885 C1882 1.403 . S
C1885 C1886 1.392 . S
C1885 C1889 1.495 . S
C1886 C1885 1.392 . S
C1886 C1887 1.385 . S
C1886 C1888 1.478 . S
C1887 H1881 0.930 . S
C1887 C1883 1.400 . S
C1887 C1886 1.385 . S
C1888 C1886 1.478 . S
C1888 C1890 1.381 . S
C1888 C1894 1.383 . S
C1889 C1885 1.495 . S
C1889 H1895 0.959 . S
C1889 H1896 0.961 . S
C1889 H1897 0.960 . S
C1890 C1888 1.381 . S
C1890 C1891 1.394 . S
C1890 H1898 0.930 . S
C1891 C1890 1.394 . S
C1891 C1892 1.383 . S
C1891 H1899 0.929 . S
C1892 C1891 1.383 . S
C1892 C1893 1.377 . S
C1893 H1877 0.930 . S
C1893 C1892 1.377 . S
C1893 C1894 1.379 . S
C1894 H1878 0.931 . S
C1894 C1888 1.383 . S
C1894 C1893 1.379 . S
H1895 C1889 0.959 . S
H1896 C1889 0.961 . S
H1897 C1889 0.960 . S
H1898 C1890 0.930 . S
H1899 C1891 0.929 . S
H1900 C1908 0.929 . S
H1901 C1910 0.930 . S
H1902 C1912 0.930 . S
H1903 C1915 0.929 . S
H1904 C1918 0.930 . S
H1905 C1920 0.960 . S
H1906 C1920 0.960 . S
H1907 C1920 0.960 . S
C1908 H1900 0.929 . S
C1908 C1909 1.377 . S
C1908 C1910 1.384 . S
C1909 C1908 1.377 . S
C1909 C1915 1.390 . S
C1910 H1901 0.930 . S
C1910 C1908 1.384 . S
C1910 C1911 1.372 . S
C1911 C1910 1.372 . S
C1911 C1912 1.400 . S
C1911 C1916 1.490 . S
C1912 H1902 0.930 . S
C1912 C1911 1.400 . S
C1912 C1915 1.386 . S
H1913 C1929 0.930 . S
H1914 C1930 0.931 . S
C1915 H1903 0.929 . S
C1915 C1909 1.390 . S
C1915 C1912 1.386 . S
C1916 C1911 1.490 . S
C1916 C1918 1.395 . S
C1916 C1919 1.403 . S
H1917 C1923 0.930 . S
C1918 H1904 0.930 . S
C1918 C1916 1.395 . S
C1918 C1921 1.403 . S
C1919 C1916 1.403 . S
C1919 C1920 1.524 . S
C1919 C1923 1.400 . S
C1920 H1905 0.960 . S
C1920 H1906 0.960 . S
C1920 H1907 0.960 . S
C1920 C1919 1.524 . S
C1921 C1918 1.403 . S
C1921 C1922 1.392 . S
C1921 C1925 1.495 . S
C1922 C1921 1.392 . S
C1922 C1923 1.385 . S
C1922 C1924 1.478 . S
C1923 H1917 0.930 . S
C1923 C1919 1.400 . S
C1923 C1922 1.385 . S
C1924 C1922 1.478 . S
C1924 C1926 1.381 . S
C1924 C1930 1.383 . S
C1925 C1921 1.495 . S
C1925 H1931 0.959 . S
C1925 H1932 0.961 . S
C1925 H1933 0.960 . S
C1926 C1924 1.381 . S
C1926 C1927 1.394 . S
C1926 H1934 0.930 . S
C1927 C1926 1.394 . S
C1927 C1928 1.383 . S
C1927 H1935 0.929 . S
C1928 C1927 1.383 . S
C1928 C1929 1.377 . S
C1929 H1913 0.930 . S
C1929 C1928 1.377 . S
C1929 C1930 1.379 . S
C1930 H1914 0.931 . S
C1930 C1924 1.383 . S
C1930 C1929 1.379 . S
H1931 C1925 0.959 . S
H1932 C1925 0.961 . S
H1933 C1925 0.960 . S
H1934 C1926 0.930 . S
H1935 C1927 0.929 . S
H1936 C1944 0.929 . S
H1937 C1946 0.930 . S
H1938 C1948 0.930 . S
H1939 C1951 0.929 . S
H1940 C1954 0.930 . S
H1941 C1956 0.960 . S
H1942 C1956 0.960 . S
H1943 C1956 0.960 . S
C1944 H1936 0.929 . S
C1944 C1945 1.377 . S
C1944 C1946 1.384 . S
C1945 C1944 1.377 . S
C1945 C1951 1.390 . S
C1946 H1937 0.930 . S
C1946 C1944 1.384 . S
C1946 C1947 1.372 . S
C1947 C1946 1.372 . S
C1947 C1948 1.400 . S
C1947 C1952 1.490 . S
C1948 H1938 0.930 . S
C1948 C1947 1.400 . S
C1948 C1951 1.386 . S
H1949 C1965 0.930 . S
H1950 C1966 0.931 . S
C1951 H1939 0.929 . S
C1951 C1945 1.390 . S
C1951 C1948 1.386 . S
C1952 C1947 1.490 . S
C1952 C1954 1.395 . S
C1952 C1955 1.403 . S
H1953 C1959 0.930 . S
C1954 H1940 0.930 . S
C1954 C1952 1.395 . S
C1954 C1957 1.403 . S
C1955 C1952 1.403 . S
C1955 C1956 1.524 . S
C1955 C1959 1.400 . S
C1956 H1941 0.960 . S
C1956 H1942 0.960 . S
C1956 H1943 0.960 . S
C1956 C1955 1.524 . S
C1957 C1954 1.403 . S
C1957 C1958 1.392 . S
C1957 C1961 1.495 . S
C1958 C1957 1.392 . S
C1958 C1959 1.385 . S
C1958 C1960 1.478 . S
C1959 H1953 0.930 . S
C1959 C1955 1.400 . S
C1959 C1958 1.385 . S
C1960 C1958 1.478 . S
C1960 C1962 1.381 . S
C1960 C1966 1.383 . S
C1961 C1957 1.495 . S
C1961 H1967 0.959 . S
C1961 H1968 0.961 . S
C1961 H1969 0.960 . S
C1962 C1960 1.381 . S
C1962 C1963 1.394 . S
C1962 H1970 0.930 . S
C1963 C1962 1.394 . S
C1963 C1964 1.383 . S
C1963 H1971 0.929 . S
C1964 C1963 1.383 . S
C1964 C1965 1.377 . S
C1965 H1949 0.930 . S
C1965 C1964 1.377 . S
C1965 C1966 1.379 . S
C1966 H1950 0.931 . S
C1966 C1960 1.383 . S
C1966 C1965 1.379 . S
H1967 C1961 0.959 . S
H1968 C1961 0.961 . S
H1969 C1961 0.960 . S
H1970 C1962 0.930 . S
H1971 C1963 0.929 . S
H1972 C1980 0.929 . S
H1973 C1982 0.930 . S
H1974 C1984 0.930 . S
H1975 C1987 0.929 . S
H1976 C1990 0.930 . S
H1977 C1992 0.960 . S
H1978 C1992 0.960 . S
H1979 C1992 0.960 . S
C1980 H1972 0.929 . S
C1980 C1981 1.377 . S
C1980 C1982 1.384 . S
C1981 C1980 1.377 . S
C1981 C1987 1.390 . S
C1982 H1973 0.930 . S
C1982 C1980 1.384 . S
C1982 C1983 1.372 . S
C1983 C1982 1.372 . S
C1983 C1984 1.400 . S
C1983 C1988 1.490 . S
C1984 H1974 0.930 . S
C1984 C1983 1.400 . S
C1984 C1987 1.386 . S
H1985 C2001 0.930 . S
H1986 C2002 0.931 . S
C1987 H1975 0.929 . S
C1987 C1981 1.390 . S
C1987 C1984 1.386 . S
C1988 C1983 1.490 . S
C1988 C1990 1.395 . S
C1988 C1991 1.403 . S
H1989 C1995 0.930 . S
C1990 H1976 0.930 . S
C1990 C1988 1.395 . S
C1990 C1993 1.403 . S
C1991 C1988 1.403 . S
C1991 C1992 1.524 . S
C1991 C1995 1.400 . S
C1992 H1977 0.960 . S
C1992 H1978 0.960 . S
C1992 H1979 0.960 . S
C1992 C1991 1.524 . S
C1993 C1990 1.403 . S
C1993 C1994 1.392 . S
C1993 C1997 1.495 . S
C1994 C1993 1.392 . S
C1994 C1995 1.385 . S
C1994 C1996 1.478 . S
C1995 H1989 0.930 . S
C1995 C1991 1.400 . S
C1995 C1994 1.385 . S
C1996 C1994 1.478 . S
C1996 C1998 1.381 . S
C1996 C2002 1.383 . S
C1997 C1993 1.495 . S
C1997 H2003 0.959 . S
C1997 H2004 0.961 . S
C1997 H2005 0.960 . S
C1998 C1996 1.381 . S
C1998 C1999 1.394 . S
C1998 H2006 0.930 . S
C1999 C1998 1.394 . S
C1999 C2000 1.383 . S
C1999 H2007 0.929 . S
C2000 C1999 1.383 . S
C2000 C2001 1.377 . S
C2001 H1985 0.930 . S
C2001 C2000 1.377 . S
C2001 C2002 1.379 . S
C2002 H1986 0.931 . S
C2002 C1996 1.383 . S
C2002 C2001 1.379 . S
H2003 C1997 0.959 . S
H2004 C1997 0.961 . S
H2005 C1997 0.960 . S
H2006 C1998 0.930 . S
H2007 C1999 0.929 . S
H2008 C2016 0.929 . S
H2009 C2018 0.930 . S
H2010 C2020 0.930 . S
H2011 C2023 0.929 . S
H2012 C2026 0.930 . S
H2013 C2028 0.960 . S
H2014 C2028 0.960 . S
H2015 C2028 0.960 . S
C2016 H2008 0.929 . S
C2016 C2017 1.377 . S
C2016 C2018 1.384 . S
C2017 C2016 1.377 . S
C2017 C2023 1.390 . S
C2018 H2009 0.930 . S
C2018 C2016 1.384 . S
C2018 C2019 1.372 1_556 S
C2019 C2018 1.372 1_554 S
C2019 C2020 1.400 . S
C2019 C2024 1.490 . S
C2020 H2010 0.930 . S
C2020 C2019 1.400 . S
C2020 C2023 1.386 1_554 S
H2021 C2037 0.930 . S
H2022 C2038 0.931 . S
C2023 H2011 0.929 . S
C2023 C2017 1.390 . S
C2023 C2020 1.386 1_556 S
C2024 C2019 1.490 . S
C2024 C2026 1.395 . S
C2024 C2027 1.403 . S
H2025 C2031 0.930 . S
C2026 H2012 0.930 . S
C2026 C2024 1.395 . S
C2026 C2029 1.403 . S
C2027 C2024 1.403 . S
C2027 C2028 1.524 . S
C2027 C2031 1.400 . S
C2028 H2013 0.960 . S
C2028 H2014 0.960 . S
C2028 H2015 0.960 . S
C2028 C2027 1.524 . S
C2029 C2026 1.403 . S
C2029 C2030 1.392 . S
C2029 C2033 1.495 . S
C2030 C2029 1.392 . S
C2030 C2031 1.385 . S
C2030 C2032 1.478 . S
C2031 H2025 0.930 . S
C2031 C2027 1.400 . S
C2031 C2030 1.385 . S
C2032 C2030 1.478 . S
C2032 C2034 1.381 . S
C2032 C2038 1.383 . S
C2033 C2029 1.495 . S
C2033 H2039 0.959 . S
C2033 H2040 0.961 . S
C2033 H2041 0.960 . S
C2034 C2032 1.381 . S
C2034 C2035 1.394 . S
C2034 H2042 0.930 . S
C2035 C2034 1.394 . S
C2035 C2036 1.383 . S
C2035 H2043 0.929 . S
C2036 C2035 1.383 . S
C2036 C2037 1.377 . S
C2037 H2021 0.930 . S
C2037 C2036 1.377 . S
C2037 C2038 1.379 . S
C2038 H2022 0.931 . S
C2038 C2032 1.383 . S
C2038 C2037 1.379 . S
H2039 C2033 0.959 . S
H2040 C2033 0.961 . S
H2041 C2033 0.960 . S
H2042 C2034 0.930 . S
H2043 C2035 0.929 . S
H2044 C2052 0.929 . S
H2045 C2054 0.930 . S
H2046 C2056 0.930 . S
H2047 C2059 0.929 . S
H2048 C2062 0.930 . S
H2049 C2064 0.960 . S
H2050 C2064 0.960 . S
H2051 C2064 0.960 . S
C2052 H2044 0.929 . S
C2052 C2053 1.377 . S
C2052 C2054 1.384 . S
C2053 C2052 1.377 . S
C2053 C2059 1.390 . S
C2054 H2045 0.930 . S
C2054 C2052 1.384 . S
C2054 C2055 1.372 . S
C2055 C2054 1.372 . S
C2055 C2056 1.400 . S
C2055 C2060 1.490 . S
C2056 H2046 0.930 . S
C2056 C2055 1.400 . S
C2056 C2059 1.386 . S
H2057 C2073 0.930 . S
H2058 C2074 0.931 . S
C2059 H2047 0.929 . S
C2059 C2053 1.390 . S
C2059 C2056 1.386 . S
C2060 C2055 1.490 . S
C2060 C2062 1.395 . S
C2060 C2063 1.403 . S
H2061 C2067 0.930 . S
C2062 H2048 0.930 . S
C2062 C2060 1.395 . S
C2062 C2065 1.403 . S
C2063 C2060 1.403 . S
C2063 C2064 1.524 . S
C2063 C2067 1.400 . S
C2064 H2049 0.960 . S
C2064 H2050 0.960 . S
C2064 H2051 0.960 . S
C2064 C2063 1.524 . S
C2065 C2062 1.403 . S
C2065 C2066 1.392 . S
C2065 C2069 1.495 . S
C2066 C2065 1.392 . S
C2066 C2067 1.385 . S
C2066 C2068 1.478 . S
C2067 H2061 0.930 . S
C2067 C2063 1.400 . S
C2067 C2066 1.385 . S
C2068 C2066 1.478 . S
C2068 C2070 1.381 . S
C2068 C2074 1.383 . S
C2069 C2065 1.495 . S
C2069 H2075 0.959 . S
C2069 H2076 0.961 . S
C2069 H2077 0.960 . S
C2070 C2068 1.381 . S
C2070 C2071 1.394 . S
C2070 H2078 0.930 . S
C2071 C2070 1.394 . S
C2071 C2072 1.383 . S
C2071 H2079 0.929 . S
C2072 C2071 1.383 . S
C2072 C2073 1.377 . S
C2073 H2057 0.930 . S
C2073 C2072 1.377 . S
C2073 C2074 1.379 . S
C2074 H2058 0.931 . S
C2074 C2068 1.383 . S
C2074 C2073 1.379 . S
H2075 C2069 0.959 . S
H2076 C2069 0.961 . S
H2077 C2069 0.960 . S
H2078 C2070 0.930 . S
H2079 C2071 0.929 . S
H2080 C2088 0.929 . S
H2081 C2090 0.930 . S
H2082 C2092 0.930 . S
H2083 C2095 0.929 . S
H2084 C2098 0.930 . S
H2085 C2100 0.960 . S
H2086 C2100 0.960 . S
H2087 C2100 0.960 . S
C2088 H2080 0.929 . S
C2088 C2089 1.377 . S
C2088 C2090 1.384 . S
C2089 C2088 1.377 . S
C2089 C2095 1.390 . S
C2090 H2081 0.930 . S
C2090 C2088 1.384 . S
C2090 C2091 1.372 . S
C2091 C2090 1.372 . S
C2091 C2092 1.400 . S
C2091 C2096 1.490 . S
C2092 H2082 0.930 . S
C2092 C2091 1.400 . S
C2092 C2095 1.386 . S
H2093 C2109 0.930 . S
H2094 C2110 0.931 . S
C2095 H2083 0.929 . S
C2095 C2089 1.390 . S
C2095 C2092 1.386 . S
C2096 C2091 1.490 . S
C2096 C2098 1.395 . S
C2096 C2099 1.403 . S
H2097 C2103 0.930 . S
C2098 H2084 0.930 . S
C2098 C2096 1.395 . S
C2098 C2101 1.403 . S
C2099 C2096 1.403 . S
C2099 C2100 1.524 . S
C2099 C2103 1.400 . S
C2100 H2085 0.960 . S
C2100 H2086 0.960 . S
C2100 H2087 0.960 . S
C2100 C2099 1.524 . S
C2101 C2098 1.403 . S
C2101 C2102 1.392 . S
C2101 C2105 1.495 . S
C2102 C2101 1.392 . S
C2102 C2103 1.385 . S
C2102 C2104 1.478 . S
C2103 H2097 0.930 . S
C2103 C2099 1.400 . S
C2103 C2102 1.385 . S
C2104 C2102 1.478 . S
C2104 C2106 1.381 1_556 S
C2104 C2110 1.383 . S
C2105 C2101 1.495 . S
C2105 H2111 0.959 . S
C2105 H2112 0.961 . S
C2105 H2113 0.960 . S
C2106 C2104 1.381 1_554 S
C2106 C2107 1.394 . S
C2106 H2114 0.930 . S
C2107 C2106 1.394 . S
C2107 C2108 1.383 . S
C2107 H2115 0.929 . S
C2108 C2107 1.383 . S
C2108 C2109 1.377 . S
C2109 H2093 0.930 . S
C2109 C2108 1.377 . S
C2109 C2110 1.379 1_554 S
C2110 H2094 0.931 . S
C2110 C2104 1.383 . S
C2110 C2109 1.379 1_556 S
H2111 C2105 0.959 . S
H2112 C2105 0.961 . S
H2113 C2105 0.960 . S
H2114 C2106 0.930 . S
H2115 C2107 0.929 . S
H2116 C2124 0.929 . S
H2117 C2126 0.930 . S
H2118 C2128 0.930 . S
H2119 C2131 0.929 . S
H2120 C2134 0.930 . S
H2121 C2136 0.960 . S
H2122 C2136 0.960 . S
H2123 C2136 0.960 . S
C2124 H2116 0.929 . S
C2124 C2125 1.377 . S
C2124 C2126 1.384 . S
C2125 C2124 1.377 . S
C2125 C2131 1.390 . S
C2126 H2117 0.930 . S
C2126 C2124 1.384 . S
C2126 C2127 1.372 . S
C2127 C2126 1.372 . S
C2127 C2128 1.400 . S
C2127 C2132 1.490 . S
C2128 H2118 0.930 . S
C2128 C2127 1.400 . S
C2128 C2131 1.386 . S
H2129 C2145 0.930 . S
H2130 C2146 0.931 . S
C2131 H2119 0.929 . S
C2131 C2125 1.390 . S
C2131 C2128 1.386 . S
C2132 C2127 1.490 . S
C2132 C2134 1.395 . S
C2132 C2135 1.403 . S
H2133 C2139 0.930 . S
C2134 H2120 0.930 . S
C2134 C2132 1.395 . S
C2134 C2137 1.403 . S
C2135 C2132 1.403 . S
C2135 C2136 1.524 . S
C2135 C2139 1.400 . S
C2136 H2121 0.960 . S
C2136 H2122 0.960 . S
C2136 H2123 0.960 . S
C2136 C2135 1.524 . S
C2137 C2134 1.403 . S
C2137 C2138 1.392 . S
C2137 C2141 1.495 . S
C2138 C2137 1.392 . S
C2138 C2139 1.385 . S
C2138 C2140 1.478 . S
C2139 H2133 0.930 . S
C2139 C2135 1.400 . S
C2139 C2138 1.385 . S
C2140 C2138 1.478 . S
C2140 C2142 1.381 . S
C2140 C2146 1.383 . S
C2141 C2137 1.495 . S
C2141 H2147 0.959 . S
C2141 H2148 0.961 . S
C2141 H2149 0.960 . S
C2142 C2140 1.381 . S
C2142 C2143 1.394 . S
C2142 H2150 0.930 . S
C2143 C2142 1.394 . S
C2143 C2144 1.383 . S
C2143 H2151 0.929 . S
C2144 C2143 1.383 . S
C2144 C2145 1.377 . S
C2145 H2129 0.930 . S
C2145 C2144 1.377 . S
C2145 C2146 1.379 . S
C2146 H2130 0.931 . S
C2146 C2140 1.383 . S
C2146 C2145 1.379 . S
H2147 C2141 0.959 . S
H2148 C2141 0.961 . S
H2149 C2141 0.960 . S
H2150 C2142 0.930 . S
H2151 C2143 0.929 . S
H2152 C2160 0.929 . S
H2153 C2162 0.930 . S
H2154 C2164 0.930 . S
H2155 C2167 0.929 . S
H2156 C2170 0.930 . S
H2157 C2172 0.960 . S
H2158 C2172 0.960 . S
H2159 C2172 0.960 . S
C2160 H2152 0.929 . S
C2160 C2161 1.377 . S
C2160 C2162 1.384 . S
C2161 C2160 1.377 . S
C2161 C2167 1.390 . S
C2162 H2153 0.930 . S
C2162 C2160 1.384 . S
C2162 C2163 1.372 . S
C2163 C2162 1.372 . S
C2163 C2164 1.400 . S
C2163 C2168 1.490 . S
C2164 H2154 0.930 . S
C2164 C2163 1.400 . S
C2164 C2167 1.386 . S
H2165 C2181 0.930 . S
H2166 C2182 0.931 . S
C2167 H2155 0.929 . S
C2167 C2161 1.390 . S
C2167 C2164 1.386 . S
C2168 C2163 1.490 . S
C2168 C2170 1.395 . S
C2168 C2171 1.403 . S
H2169 C2175 0.930 . S
C2170 H2156 0.930 . S
C2170 C2168 1.395 . S
C2170 C2173 1.403 . S
C2171 C2168 1.403 . S
C2171 C2172 1.524 . S
C2171 C2175 1.400 . S
C2172 H2157 0.960 . S
C2172 H2158 0.960 . S
C2172 H2159 0.960 . S
C2172 C2171 1.524 . S
C2173 C2170 1.403 . S
C2173 C2174 1.392 . S
C2173 C2177 1.495 . S
C2174 C2173 1.392 . S
C2174 C2175 1.385 . S
C2174 C2176 1.478 . S
C2175 H2169 0.930 . S
C2175 C2171 1.400 . S
C2175 C2174 1.385 . S
C2176 C2174 1.478 . S
C2176 C2178 1.381 . S
C2176 C2182 1.383 . S
C2177 C2173 1.495 . S
C2177 H2183 0.959 . S
C2177 H2184 0.961 . S
C2177 H2185 0.960 . S
C2178 C2176 1.381 . S
C2178 C2179 1.394 . S
C2178 H2186 0.930 . S
C2179 C2178 1.394 . S
C2179 C2180 1.383 . S
C2179 H2187 0.929 . S
C2180 C2179 1.383 . S
C2180 C2181 1.377 . S
C2181 H2165 0.930 . S
C2181 C2180 1.377 . S
C2181 C2182 1.379 . S
C2182 H2166 0.931 . S
C2182 C2176 1.383 . S
C2182 C2181 1.379 . S
H2183 C2177 0.959 . S
H2184 C2177 0.961 . S
H2185 C2177 0.960 . S
H2186 C2178 0.930 . S
H2187 C2179 0.929 . S
H2188 C2196 0.929 . S
H2189 C2198 0.930 . S
H2190 C2200 0.930 . S
H2191 C2203 0.929 . S
H2192 C2206 0.930 . S
H2193 C2208 0.960 . S
H2194 C2208 0.960 . S
H2195 C2208 0.960 . S
C2196 H2188 0.929 . S
C2196 C2197 1.377 . S
C2196 C2198 1.384 . S
C2197 C2196 1.377 . S
C2197 C2203 1.390 . S
C2198 H2189 0.930 . S
C2198 C2196 1.384 . S
C2198 C2199 1.372 . S
C2199 C2198 1.372 . S
C2199 C2200 1.400 . S
C2199 C2204 1.490 . S
C2200 H2190 0.930 . S
C2200 C2199 1.400 . S
C2200 C2203 1.386 . S
H2201 C2217 0.930 . S
H2202 C2218 0.931 . S
C2203 H2191 0.929 . S
C2203 C2197 1.390 . S
C2203 C2200 1.386 . S
C2204 C2199 1.490 . S
C2204 C2206 1.395 . S
C2204 C2207 1.403 . S
H2205 C2211 0.930 . S
C2206 H2192 0.930 . S
C2206 C2204 1.395 . S
C2206 C2209 1.403 . S
C2207 C2204 1.403 . S
C2207 C2208 1.524 . S
C2207 C2211 1.400 . S
C2208 H2193 0.960 . S
C2208 H2194 0.960 . S
C2208 H2195 0.960 . S
C2208 C2207 1.524 . S
C2209 C2206 1.403 . S
C2209 C2210 1.392 . S
C2209 C2213 1.495 . S
C2210 C2209 1.392 . S
C2210 C2211 1.385 . S
C2210 C2212 1.478 . S
C2211 H2205 0.930 . S
C2211 C2207 1.400 . S
C2211 C2210 1.385 . S
C2212 C2210 1.478 . S
C2212 C2214 1.381 . S
C2212 C2218 1.383 . S
C2213 C2209 1.495 . S
C2213 H2219 0.959 . S
C2213 H2220 0.961 . S
C2213 H2221 0.960 . S
C2214 C2212 1.381 . S
C2214 C2215 1.394 . S
C2214 H2222 0.930 . S
C2215 C2214 1.394 . S
C2215 C2216 1.383 . S
C2215 H2223 0.929 . S
C2216 C2215 1.383 . S
C2216 C2217 1.377 . S
C2217 H2201 0.930 . S
C2217 C2216 1.377 . S
C2217 C2218 1.379 . S
C2218 H2202 0.931 . S
C2218 C2212 1.383 . S
C2218 C2217 1.379 . S
H2219 C2213 0.959 . S
H2220 C2213 0.961 . S
H2221 C2213 0.960 . S
H2222 C2214 0.930 . S
H2223 C2215 0.929 . S
H2224 C2232 0.929 . S
H2225 C2234 0.930 . S
H2226 C2236 0.930 . S
H2227 C2239 0.929 . S
H2228 C2242 0.930 . S
H2229 C2244 0.960 . S
H2230 C2244 0.960 . S
H2231 C2244 0.960 . S
C2232 H2224 0.929 . S
C2232 C2233 1.377 . S
C2232 C2234 1.384 . S
C2233 C2232 1.377 . S
C2233 C2239 1.390 . S
C2234 H2225 0.930 . S
C2234 C2232 1.384 . S
C2234 C2235 1.372 . S
C2235 C2234 1.372 . S
C2235 C2236 1.400 . S
C2235 C2240 1.490 . S
C2236 H2226 0.930 . S
C2236 C2235 1.400 . S
C2236 C2239 1.386 . S
H2237 C2253 0.930 . S
H2238 C2254 0.931 . S
C2239 H2227 0.929 . S
C2239 C2233 1.390 . S
C2239 C2236 1.386 . S
C2240 C2235 1.490 . S
C2240 C2242 1.395 . S
C2240 C2243 1.403 . S
H2241 C2247 0.930 . S
C2242 H2228 0.930 . S
C2242 C2240 1.395 . S
C2242 C2245 1.403 . S
C2243 C2240 1.403 . S
C2243 C2244 1.524 . S
C2243 C2247 1.400 . S
C2244 H2229 0.960 . S
C2244 H2230 0.960 . S
C2244 H2231 0.960 . S
C2244 C2243 1.524 . S
C2245 C2242 1.403 . S
C2245 C2246 1.392 . S
C2245 C2249 1.495 . S
C2246 C2245 1.392 . S
C2246 C2247 1.385 . S
C2246 C2248 1.478 . S
C2247 H2241 0.930 . S
C2247 C2243 1.400 . S
C2247 C2246 1.385 . S
C2248 C2246 1.478 . S
C2248 C2250 1.381 1_554 S
C2248 C2254 1.383 . S
C2249 C2245 1.495 . S
C2249 H2255 0.959 . S
C2249 H2256 0.961 . S
C2249 H2257 0.960 . S
C2250 C2248 1.381 1_556 S
C2250 C2251 1.394 . S
C2250 H2258 0.930 . S
C2251 C2250 1.394 . S
C2251 C2252 1.383 . S
C2251 H2259 0.929 . S
C2252 C2251 1.383 . S
C2252 C2253 1.377 . S
C2253 H2237 0.930 . S
C2253 C2252 1.377 . S
C2253 C2254 1.379 1_556 S
C2254 H2238 0.931 . S
C2254 C2248 1.383 . S
C2254 C2253 1.379 1_554 S
H2255 C2249 0.959 . S
H2256 C2249 0.961 . S
H2257 C2249 0.960 . S
H2258 C2250 0.930 . S
H2259 C2251 0.929 . S
H2260 C2268 0.929 . S
H2261 C2270 0.930 . S
H2262 C2272 0.930 . S
H2263 C2275 0.929 . S
H2264 C2278 0.930 . S
H2265 C2280 0.960 . S
H2266 C2280 0.960 . S
H2267 C2280 0.960 . S
C2268 H2260 0.929 . S
C2268 C2269 1.377 . S
C2268 C2270 1.384 . S
C2269 C2268 1.377 . S
C2269 C2275 1.390 . S
C2270 H2261 0.930 . S
C2270 C2268 1.384 . S
C2270 C2271 1.372 . S
C2271 C2270 1.372 . S
C2271 C2272 1.400 . S
C2271 C2276 1.490 . S
C2272 H2262 0.930 . S
C2272 C2271 1.400 . S
C2272 C2275 1.386 . S
H2273 C2289 0.930 . S
H2274 C2290 0.931 . S
C2275 H2263 0.929 . S
C2275 C2269 1.390 . S
C2275 C2272 1.386 . S
C2276 C2271 1.490 . S
C2276 C2278 1.395 . S
C2276 C2279 1.403 . S
H2277 C2283 0.930 . S
C2278 H2264 0.930 . S
C2278 C2276 1.395 . S
C2278 C2281 1.403 . S
C2279 C2276 1.403 . S
C2279 C2280 1.524 . S
C2279 C2283 1.400 . S
C2280 H2265 0.960 . S
C2280 H2266 0.960 . S
C2280 H2267 0.960 . S
C2280 C2279 1.524 . S
C2281 C2278 1.403 . S
C2281 C2282 1.392 . S
C2281 C2285 1.495 . S
C2282 C2281 1.392 . S
C2282 C2283 1.385 . S
C2282 C2284 1.478 . S
C2283 H2277 0.930 . S
C2283 C2279 1.400 . S
C2283 C2282 1.385 . S
C2284 C2282 1.478 . S
C2284 C2286 1.381 . S
C2284 C2290 1.383 . S
C2285 C2281 1.495 . S
C2285 H2291 0.959 . S
C2285 H2292 0.961 . S
C2285 H2293 0.960 . S
C2286 C2284 1.381 . S
C2286 C2287 1.394 . S
C2286 H2294 0.930 . S
C2287 C2286 1.394 . S
C2287 C2288 1.383 . S
C2287 H2295 0.929 . S
C2288 C2287 1.383 . S
C2288 C2289 1.377 . S
C2289 H2273 0.930 . S
C2289 C2288 1.377 . S
C2289 C2290 1.379 . S
C2290 H2274 0.931 . S
C2290 C2284 1.383 . S
C2290 C2289 1.379 . S
H2291 C2285 0.959 . S
H2292 C2285 0.961 . S
H2293 C2285 0.960 . S
H2294 C2286 0.930 . S
H2295 C2287 0.929 . S
H2296 C2304 0.929 . S
H2297 C2306 0.930 . S
H2298 C2308 0.930 . S
H2299 C2311 0.929 . S
H2300 C2314 0.930 . S
H2301 C2316 0.960 . S
H2302 C2316 0.960 . S
H2303 C2316 0.960 . S
C2304 H2296 0.929 . S
C2304 C2305 1.377 . S
C2304 C2306 1.384 . S
C2305 C2304 1.377 . S
C2305 C2311 1.390 . S
C2306 H2297 0.930 . S
C2306 C2304 1.384 . S
C2306 C2307 1.372 . S
C2307 C2306 1.372 . S
C2307 C2308 1.400 . S
C2307 C2312 1.490 . S
C2308 H2298 0.930 . S
C2308 C2307 1.400 . S
C2308 C2311 1.386 . S
H2309 C2325 0.930 . S
H2310 C2326 0.931 . S
C2311 H2299 0.929 . S
C2311 C2305 1.390 . S
C2311 C2308 1.386 . S
C2312 C2307 1.490 . S
C2312 C2314 1.395 . S
C2312 C2315 1.403 . S
H2313 C2319 0.930 . S
C2314 H2300 0.930 . S
C2314 C2312 1.395 . S
C2314 C2317 1.403 . S
C2315 C2312 1.403 . S
C2315 C2316 1.524 . S
C2315 C2319 1.400 . S
C2316 H2301 0.960 . S
C2316 H2302 0.960 . S
C2316 H2303 0.960 . S
C2316 C2315 1.524 . S
C2317 C2314 1.403 . S
C2317 C2318 1.392 . S
C2317 C2321 1.495 . S
C2318 C2317 1.392 . S
C2318 C2319 1.385 . S
C2318 C2320 1.478 . S
C2319 H2313 0.930 . S
C2319 C2315 1.400 . S
C2319 C2318 1.385 . S
C2320 C2318 1.478 . S
C2320 C2322 1.381 . S
C2320 C2326 1.383 . S
C2321 C2317 1.495 . S
C2321 H2327 0.959 . S
C2321 H2328 0.961 . S
C2321 H2329 0.960 . S
C2322 C2320 1.381 . S
C2322 C2323 1.394 . S
C2322 H2330 0.930 . S
C2323 C2322 1.394 . S
C2323 C2324 1.383 . S
C2323 H2331 0.929 . S
C2324 C2323 1.383 . S
C2324 C2325 1.377 . S
C2325 H2309 0.930 . S
C2325 C2324 1.377 . S
C2325 C2326 1.379 . S
C2326 H2310 0.931 . S
C2326 C2320 1.383 . S
C2326 C2325 1.379 . S
H2327 C2321 0.959 . S
H2328 C2321 0.961 . S
H2329 C2321 0.960 . S
H2330 C2322 0.930 . S
H2331 C2323 0.929 . S
H2332 C2340 0.929 . S
H2333 C2342 0.930 . S
H2334 C2344 0.930 . S
H2335 C2347 0.929 . S
H2336 C2350 0.930 . S
H2337 C2352 0.960 . S
H2338 C2352 0.960 . S
H2339 C2352 0.960 . S
C2340 H2332 0.929 . S
C2340 C2341 1.377 . S
C2340 C2342 1.384 . S
C2341 C2340 1.377 . S
C2341 C2347 1.390 . S
C2342 H2333 0.930 . S
C2342 C2340 1.384 . S
C2342 C2343 1.372 . S
C2343 C2342 1.372 . S
C2343 C2344 1.400 . S
C2343 C2348 1.490 . S
C2344 H2334 0.930 . S
C2344 C2343 1.400 . S
C2344 C2347 1.386 . S
H2345 C2361 0.930 . S
H2346 C2362 0.931 . S
C2347 H2335 0.929 . S
C2347 C2341 1.390 . S
C2347 C2344 1.386 . S
C2348 C2343 1.490 . S
C2348 C2350 1.395 . S
C2348 C2351 1.403 . S
H2349 C2355 0.930 . S
C2350 H2336 0.930 . S
C2350 C2348 1.395 . S
C2350 C2353 1.403 . S
C2351 C2348 1.403 . S
C2351 C2352 1.524 . S
C2351 C2355 1.400 . S
C2352 H2337 0.960 . S
C2352 H2338 0.960 . S
C2352 H2339 0.960 . S
C2352 C2351 1.524 . S
C2353 C2350 1.403 . S
C2353 C2354 1.392 . S
C2353 C2357 1.495 . S
C2354 C2353 1.392 . S
C2354 C2355 1.385 . S
C2354 C2356 1.478 . S
C2355 H2349 0.930 . S
C2355 C2351 1.400 . S
C2355 C2354 1.385 . S
C2356 C2354 1.478 . S
C2356 C2358 1.381 . S
C2356 C2362 1.383 . S
C2357 C2353 1.495 . S
C2357 H2363 0.959 . S
C2357 H2364 0.961 . S
C2357 H2365 0.960 . S
C2358 C2356 1.381 . S
C2358 C2359 1.394 . S
C2358 H2366 0.930 . S
C2359 C2358 1.394 . S
C2359 C2360 1.383 . S
C2359 H2367 0.929 . S
C2360 C2359 1.383 . S
C2360 C2361 1.377 . S
C2361 H2345 0.930 . S
C2361 C2360 1.377 . S
C2361 C2362 1.379 . S
C2362 H2346 0.931 . S
C2362 C2356 1.383 . S
C2362 C2361 1.379 . S
H2363 C2357 0.959 . S
H2364 C2357 0.961 . S
H2365 C2357 0.960 . S
H2366 C2358 0.930 . S
H2367 C2359 0.929 . S
C649 C10 0.928 . S
C668 C295 0.945 . S
C685 C50 0.940 . S
C704 C175 0.897 . S
C721 C215 0.928 . S
C740 C90 0.954 . S
C757 C130 0.937 . S
C776 C255 0.895 . S
C793 C446 0.936 . S
C812 C179 0.962 . S
C829 C339 0.934 . S
C848 C6 0.918 . S
C865 C406 0.923 . S
C884 C259 0.901 . S
C901 C86 0.932 . S
C920 C379 0.956 . S
C937 C375 0.937 . S
C956 C490 0.907 . S
C973 C410 0.938 . S
C992 C575 0.919 . S
C1009 C530 0.939 . S
C1028 C335 0.906 . S
C1045 C450 0.933 . S
C1064 C615 0.911 . S
C1081 C579 0.927 . S
C1100 C126 0.897 . S
C1117 C486 0.923 . S
C1136 C219 0.901 . S
C1153 C46 0.937 . S
C1172 C619 0.954 . S
C1189 C299 0.927 . S
C1208 C526 0.901 . S
C1225 C529 0.989 . S
C1244 C9 0.972 . S
C1261 C449 0.989 . S
C1280 C49 0.963 . S
C1297 C489 0.993 . S
C1316 C89 0.954 . S
C1333 C409 0.975 . S
C1352 C129 1.032 . S
C1369 C178 0.994 . S
C1388 C618 1.019 1_455 S
C1405 C378 0.975 . S
C1424 C218 0.964 . S
C1441 C258 0.977 . S
C1460 C578 0.958 . S
C1477 C298 0.977 . S
C1496 C338 0.984 . S
C1513 C18 1.316 . S
C1532 C169 1.309 . S
C1549 C58 1.316 . S
C1568 C209 1.295 . S
C1585 C249 1.320 . S
C1604 C98 1.339 . S
C1621 C138 1.327 . S
C1640 C289 1.312 . S
C1657 C418 1.317 . S
C1676 C329 1.291 . S
C1693 C458 1.315 . S
C1712 C369 1.307 . S
C1729 C498 1.319 . S
C1748 C569 1.336 . S
C1765 C609 1.319 . S
C1784 C538 1.338 . S
C1801 C15 1.860 . S
C1820 C290 1.910 . S
C1837 C55 1.854 . S
C1856 C170 1.899 . S
C1873 C210 1.907 . S
C1892 C95 1.851 . S
C1909 C250 1.907 . S
C1928 C135 1.862 . S
C1945 C459 1.906 . S
C1964 C166 1.842 . S
C1981 C326 1.852 . S
C2000 C19 1.908 . S
C2017 C419 1.905 . S
C2036 C246 1.869 . S
C2053 C99 1.908 . S
C2072 C366 1.834 . S
C2089 C495 1.859 . S
C2108 C370 1.909 . S
C2125 C570 1.906 . S
C2144 C415 1.842 . S
C2161 C535 1.852 . S
C2180 C330 1.895 . S
C2197 C610 1.905 . S
C2216 C455 1.835 . S
C2233 C566 1.860 . S
C2252 C139 1.900 . S
C2269 C206 1.856 . S
C2288 C499 1.896 . S
C2305 C59 1.907 . S
C2324 C606 1.835 . S
C2341 C539 1.907 . S
C2360 C286 1.832 . S
