# Generated by pormake.
# Topology nfa, (4)-cn, num edge types: 1
# Building blocks:
#     Node 0, Type 0, BuildingBlock: KOZSID_clean_sbu_0, # of connection points: 4
#     Node 1, Type 0, BuildingBlock: KOZSID_clean_sbu_0, # of connection points: 4
#     Node 2, Type 0, BuildingBlock: KOZSID_clean_sbu_0, # of connection points: 4
#     Node 3, Type 0, BuildingBlock: KOZSID_clean_sbu_0, # of connection points: 4
#     Node 4, Type 0, BuildingBlock: KOZSID_clean_sbu_0, # of connection points: 4
#     Node 5, Type 0, BuildingBlock: KOZSID_clean_sbu_0, # of connection points: 4
#     Node 6, Type 0, BuildingBlock: KOZSID_clean_sbu_0, # of connection points: 4
#     Node 7, Type 0, BuildingBlock: KOZSID_clean_sbu_0, # of connection points: 4
#     Node 8, Type 0, BuildingBlock: KOZSID_clean_sbu_0, # of connection points: 4
#     Node 9, Type 0, BuildingBlock: KOZSID_clean_sbu_0, # of connection points: 4
#     Node 10, Type 0, BuildingBlock: KOZSID_clean_sbu_0, # of connection points: 4
#     Node 11, Type 0, BuildingBlock: KOZSID_clean_sbu_0, # of connection points: 4
#     Node 12, Type 0, BuildingBlock: KOZSID_clean_sbu_0, # of connection points: 4
#     Node 13, Type 0, BuildingBlock: KOZSID_clean_sbu_0, # of connection points: 4
#     Node 14, Type 0, BuildingBlock: KOZSID_clean_sbu_0, # of connection points: 4
#     Node 15, Type 0, BuildingBlock: KOZSID_clean_sbu_0, # of connection points: 4
#     Node 16, Type 0, BuildingBlock: KOZSID_clean_sbu_0, # of connection points: 4
#     Node 17, Type 0, BuildingBlock: KOZSID_clean_sbu_0, # of connection points: 4
#     Node 18, Type 0, BuildingBlock: KOZSID_clean_sbu_0, # of connection points: 4
#     Node 19, Type 0, BuildingBlock: KOZSID_clean_sbu_0, # of connection points: 4
#     Node 20, Type 0, BuildingBlock: KOZSID_clean_sbu_0, # of connection points: 4
#     Node 21, Type 0, BuildingBlock: KOZSID_clean_sbu_0, # of connection points: 4
#     Node 22, Type 0, BuildingBlock: KOZSID_clean_sbu_0, # of connection points: 4
#     Node 23, Type 0, BuildingBlock: KOZSID_clean_sbu_0, # of connection points: 4
#     Edge 24, Type (0, 0), BuildingBlock: OJICUG_clean_linker_0, # of connection points: 2
#     Edge 25, Type (0, 0), BuildingBlock: OJICUG_clean_linker_0, # of connection points: 2
#     Edge 26, Type (0, 0), BuildingBlock: OJICUG_clean_linker_0, # of connection points: 2
#     Edge 27, Type (0, 0), BuildingBlock: OJICUG_clean_linker_0, # of connection points: 2
#     Edge 28, Type (0, 0), BuildingBlock: OJICUG_clean_linker_0, # of connection points: 2
#     Edge 29, Type (0, 0), BuildingBlock: OJICUG_clean_linker_0, # of connection points: 2
#     Edge 30, Type (0, 0), BuildingBlock: OJICUG_clean_linker_0, # of connection points: 2
#     Edge 31, Type (0, 0), BuildingBlock: OJICUG_clean_linker_0, # of connection points: 2
#     Edge 32, Type (0, 0), BuildingBlock: OJICUG_clean_linker_0, # of connection points: 2
#     Edge 33, Type (0, 0), BuildingBlock: OJICUG_clean_linker_0, # of connection points: 2
#     Edge 34, Type (0, 0), BuildingBlock: OJICUG_clean_linker_0, # of connection points: 2
#     Edge 35, Type (0, 0), BuildingBlock: OJICUG_clean_linker_0, # of connection points: 2
#     Edge 36, Type (0, 0), BuildingBlock: OJICUG_clean_linker_0, # of connection points: 2
#     Edge 37, Type (0, 0), BuildingBlock: OJICUG_clean_linker_0, # of connection points: 2
#     Edge 38, Type (0, 0), BuildingBlock: OJICUG_clean_linker_0, # of connection points: 2
#     Edge 39, Type (0, 0), BuildingBlock: OJICUG_clean_linker_0, # of connection points: 2
#     Edge 40, Type (0, 0), BuildingBlock: OJICUG_clean_linker_0, # of connection points: 2
#     Edge 41, Type (0, 0), BuildingBlock: OJICUG_clean_linker_0, # of connection points: 2
#     Edge 42, Type (0, 0), BuildingBlock: OJICUG_clean_linker_0, # of connection points: 2
#     Edge 43, Type (0, 0), BuildingBlock: OJICUG_clean_linker_0, # of connection points: 2
#     Edge 44, Type (0, 0), BuildingBlock: OJICUG_clean_linker_0, # of connection points: 2
#     Edge 45, Type (0, 0), BuildingBlock: OJICUG_clean_linker_0, # of connection points: 2
#     Edge 46, Type (0, 0), BuildingBlock: OJICUG_clean_linker_0, # of connection points: 2
#     Edge 47, Type (0, 0), BuildingBlock: OJICUG_clean_linker_0, # of connection points: 2
#     Edge 48, Type (0, 0), BuildingBlock: OJICUG_clean_linker_0, # of connection points: 2
#     Edge 49, Type (0, 0), BuildingBlock: OJICUG_clean_linker_0, # of connection points: 2
#     Edge 50, Type (0, 0), BuildingBlock: OJICUG_clean_linker_0, # of connection points: 2
#     Edge 51, Type (0, 0), BuildingBlock: OJICUG_clean_linker_0, # of connection points: 2
#     Edge 52, Type (0, 0), BuildingBlock: OJICUG_clean_linker_0, # of connection points: 2
#     Edge 53, Type (0, 0), BuildingBlock: OJICUG_clean_linker_0, # of connection points: 2
#     Edge 54, Type (0, 0), BuildingBlock: OJICUG_clean_linker_0, # of connection points: 2
#     Edge 55, Type (0, 0), BuildingBlock: OJICUG_clean_linker_0, # of connection points: 2
#     Edge 56, Type (0, 0), BuildingBlock: OJICUG_clean_linker_0, # of connection points: 2
#     Edge 57, Type (0, 0), BuildingBlock: OJICUG_clean_linker_0, # of connection points: 2
#     Edge 58, Type (0, 0), BuildingBlock: OJICUG_clean_linker_0, # of connection points: 2
#     Edge 59, Type (0, 0), BuildingBlock: OJICUG_clean_linker_0, # of connection points: 2
#     Edge 60, Type (0, 0), BuildingBlock: OJICUG_clean_linker_0, # of connection points: 2
#     Edge 61, Type (0, 0), BuildingBlock: OJICUG_clean_linker_0, # of connection points: 2
#     Edge 62, Type (0, 0), BuildingBlock: OJICUG_clean_linker_0, # of connection points: 2
#     Edge 63, Type (0, 0), BuildingBlock: OJICUG_clean_linker_0, # of connection points: 2
#     Edge 64, Type (0, 0), BuildingBlock: OJICUG_clean_linker_0, # of connection points: 2
#     Edge 65, Type (0, 0), BuildingBlock: OJICUG_clean_linker_0, # of connection points: 2
#     Edge 66, Type (0, 0), BuildingBlock: OJICUG_clean_linker_0, # of connection points: 2
#     Edge 67, Type (0, 0), BuildingBlock: OJICUG_clean_linker_0, # of connection points: 2
#     Edge 68, Type (0, 0), BuildingBlock: OJICUG_clean_linker_0, # of connection points: 2
#     Edge 69, Type (0, 0), BuildingBlock: OJICUG_clean_linker_0, # of connection points: 2
#     Edge 70, Type (0, 0), BuildingBlock: OJICUG_clean_linker_0, # of connection points: 2
#     Edge 71, Type (0, 0), BuildingBlock: OJICUG_clean_linker_0, # of connection points: 2
# Relax obj value: 0.048
# Max RMSD: 0.152
# Mean RMSD: 0.110
data_MOF--net-nfa--node1-KOZSID_clean_sbu_0--edge1-OJICUG_clean_linker_0
_symmetry_space_group_name_H-M    P1
_symmetry_Int_Tables_number       1
_symmetry_cell_setting            triclinic
loop_
_symmetry_equiv_pos_as_xyz
'x, y, z'
_cell_length_a     38.022063
_cell_length_b     39.056356
_cell_length_c     39.878888
_cell_angle_alpha  88.782325
_cell_angle_beta   87.289164
_cell_angle_gamma 86.063559
loop_
_atom_site_label
_atom_site_type_symbol
_atom_site_fract_x
_atom_site_fract_y
_atom_site_fract_z
_atom_type_partial_charge
C0 C 0.03999 0.37102 0.37858 0.0
C1 C 0.0062 0.37969 0.39183 0.0
C2 C 0.00793 0.40929 0.4091 0.0
C3 C 0.04246 0.41722 0.40527 0.0
N4 N 0.06285 0.39474 0.38612 0.0
Co5 Co 0.11504 0.39582 0.37578 0.0
N6 N 0.118 0.43868 0.40235 0.0
C7 C 0.09123 0.45578 0.4199 0.0
C8 C 0.10044 0.48588 0.43308 0.0
C9 C 0.13489 0.48867 0.42265 0.0
C10 C 0.14483 0.45993 0.40372 0.0
N11 N 0.16725 0.39673 0.36571 0.0
C12 C 0.1895 0.42159 0.37108 0.0
C13 C 0.22359 0.41254 0.35889 0.0
C14 C 0.22263 0.38139 0.34426 0.0
C15 C 0.18822 0.37317 0.34852 0.0
N16 N 0.11226 0.35336 0.34869 0.0
C17 C 0.13944 0.33603 0.33189 0.0
C18 C 0.13038 0.30665 0.31739 0.0
C19 C 0.09539 0.30476 0.32564 0.0
C20 C 0.08485 0.33346 0.34459 0.0
N21 N 0.10635 0.42503 0.33539 0.0
C22 C 0.10076 0.47307 0.28193 0.0
C23 C 0.12403 0.44378 0.27932 0.0
C24 C 0.12622 0.42011 0.30611 0.0
C25 C 0.07907 0.47677 0.31103 0.0
C26 C 0.08207 0.45257 0.33703 0.0
N27 N 0.12332 0.36651 0.4165 0.0
C28 C 0.14491 0.31241 0.44121 0.0
C29 C 0.12274 0.31804 0.46978 0.0
C30 C 0.10309 0.34938 0.4724 0.0
C31 C 0.10433 0.3733 0.44599 0.0
C32 C 0.14482 0.33686 0.41505 0.0
H33 H 0.08882 0.39664 0.44974 0.0
H34 H 0.16148 0.33068 0.39354 0.0
H35 H 0.14473 0.39847 0.30298 0.0
H36 H 0.06523 0.45738 0.35866 0.0
C37 C 0.05687 0.44487 0.42028 0.0
C38 C 0.04912 0.33955 0.35973 0.0
C39 C 0.17917 0.45499 0.38561 0.0
C40 C 0.17389 0.34604 0.33297 0.0
H41 H 0.98279 0.36575 0.3897 0.0
H42 H 0.98668 0.42303 0.4233 0.0
H43 H 0.08358 0.50448 0.44713 0.0
H44 H 0.15047 0.51008 0.42735 0.0
H45 H 0.24647 0.42753 0.35936 0.0
H46 H 0.24404 0.3673 0.33059 0.0
H47 H 0.14753 0.28799 0.30371 0.0
H48 H 0.07993 0.28379 0.31934 0.0
H49 H 0.14078 0.43929 0.2569 0.0
H50 H 0.06071 0.499 0.31448 0.0
H51 H 0.16111 0.28863 0.43841 0.0
H52 H 0.08647 0.35529 0.49464 0.0
C53 C 0.8871 0.78503 0.62032 0.0
C54 C 0.87959 0.75108 0.62641 0.0
C55 C 0.84722 0.75171 0.64281 0.0
C56 C 0.83658 0.78582 0.64543 0.0
N57 N 0.86011 0.80705 0.63149 0.0
Co58 Co 0.85486 0.85853 0.62942 0.0
N59 N 0.80778 0.85947 0.65458 0.0
C60 C 0.79199 0.83238 0.66874 0.0
C61 C 0.75868 0.84076 0.6821 0.0
C62 C 0.75255 0.87505 0.67542 0.0
C63 C 0.78266 0.8857 0.65842 0.0
N64 N 0.84903 0.90991 0.62628 0.0
C65 C 0.82015 0.93121 0.63326 0.0
C66 C 0.82645 0.96525 0.62607 0.0
C67 C 0.86011 0.96531 0.61269 0.0
C68 C 0.87234 0.93149 0.61267 0.0
N69 N 0.90229 0.85792 0.60499 0.0
C70 C 0.91985 0.88559 0.59474 0.0
C71 C 0.95322 0.87759 0.58166 0.0
C72 C 0.95753 0.84275 0.58394 0.0
C73 C 0.92613 0.83129 0.59791 0.0
N74 N 0.83107 0.85653 0.58662 0.0
C75 C 0.79075 0.86098 0.5292 0.0
C76 C 0.8217 0.87828 0.53044 0.0
C77 C 0.8413 0.87577 0.55924 0.0
C78 C 0.7815 0.84004 0.55659 0.0
C79 C 0.80212 0.83784 0.58456 0.0
N80 N 0.87873 0.86044 0.67256 0.0
C81 C 0.92294 0.88359 0.7055 0.0
C82 C 0.91984 0.85733 0.72947 0.0
C83 C 0.89451 0.83377 0.72556 0.0
C84 C 0.87409 0.83605 0.69735 0.0
C85 C 0.90226 0.88469 0.67753 0.0
H86 H 0.85534 0.81729 0.69597 0.0
H87 H 0.9066 0.90492 0.65998 0.0
H88 H 0.86417 0.89017 0.55915 0.0
H89 H 0.79345 0.82167 0.60467 0.0
C90 C 0.80599 0.79882 0.66306 0.0
C91 C 0.92073 0.79504 0.60505 0.0
C92 C 0.78549 0.92008 0.64386 0.0
C93 C 0.90475 0.91893 0.5985 0.0
H94 H 0.8961 0.72819 0.62027 0.0
H95 H 0.83349 0.72992 0.65241 0.0
H96 H 0.74005 0.82352 0.69312 0.0
H97 H 0.72804 0.88998 0.68098 0.0
H98 H 0.80811 0.98756 0.62898 0.0
H99 H 0.87355 0.98722 0.60293 0.0
H100 H 0.97247 0.89507 0.57236 0.0
H101 H 0.98158 0.82779 0.5768 0.0
H102 H 0.83066 0.89403 0.50949 0.0
H103 H 0.75776 0.82619 0.55714 0.0
H104 H 0.94226 0.9025 0.70756 0.0
H105 H 0.89069 0.81342 0.744 0.0
C106 C 0.45261 0.62359 0.89248 0.0
C107 C 0.48734 0.61336 0.89884 0.0
C108 C 0.48626 0.58621 0.92097 0.0
C109 C 0.45105 0.5816 0.92689 0.0
N110 N 0.42969 0.6036 0.90915 0.0
Co111 Co 0.37696 0.60854 0.91223 0.0
N112 N 0.37489 0.57001 0.94607 0.0
C113 C 0.40226 0.55103 0.959 0.0
C114 C 0.39209 0.52369 0.97852 0.0
C115 C 0.35616 0.52467 0.97696 0.0
C116 C 0.34668 0.55275 0.95679 0.0
N117 N 0.32437 0.61444 0.91651 0.0
C118 C 0.3015 0.59456 0.9333 0.0
C119 C 0.26687 0.60766 0.93055 0.0
C120 C 0.26802 0.63624 0.91025 0.0
C121 C 0.30313 0.63898 0.90193 0.0
N122 N 0.37858 0.64587 0.87722 0.0
C123 C 0.35086 0.66341 0.86329 0.0
C124 C 0.36059 0.68768 0.83992 0.0
C125 C 0.39662 0.68585 0.83936 0.0
C126 C 0.40671 0.6605 0.86252 0.0
N127 N 0.37447 0.57429 0.87592 0.0
C128 C 0.36966 0.52345 0.82651 0.0
C129 C 0.34543 0.5522 0.82866 0.0
C130 C 0.34837 0.57713 0.85317 0.0
C131 C 0.39676 0.52134 0.84923 0.0
C132 C 0.39853 0.54653 0.87346 0.0
N133 N 0.37974 0.64291 0.94859 0.0
C134 C 0.36633 0.70013 0.97075 0.0
C135 C 0.38633 0.69249 0.99889 0.0
C136 C 0.40268 0.65936 1.00136 0.0
C137 C 0.39903 0.63529 0.97635 0.0
C138 C 0.36349 0.67532 0.94617 0.0
H139 H 0.41226 0.6107 0.98004 0.0
H140 H 0.34825 0.68314 0.92524 0.0
H141 H 0.32887 0.59821 0.85369 0.0
H142 H 0.41942 0.54263 0.89029 0.0
C143 C 0.43711 0.55753 0.94947 0.0
C144 C 0.44258 0.65448 0.87321 0.0
C145 C 0.31122 0.55993 0.94528 0.0
C146 C 0.31645 0.66017 0.87637 0.0
H147 H 0.51084 0.62515 0.88929 0.0
H148 H 0.50843 0.57221 0.9322 0.0
H149 H 0.40891 0.50425 0.99078 0.0
H150 H 0.33896 0.50607 0.98797 0.0
H151 H 0.2431 0.59656 0.94024 0.0
H152 H 0.24577 0.65163 0.90072 0.0
H153 H 0.34352 0.70592 0.82643 0.0
H154 H 0.4135 0.70244 0.82488 0.0
H155 H 0.32368 0.55522 0.81205 0.0
H156 H 0.41682 0.50029 0.84846 0.0
H157 H 0.35336 0.72543 0.96725 0.0
H158 H 0.41802 0.65171 0.02281 0.0
C159 C 0.59112 0.20832 0.13057 0.0
C160 C 0.59824 0.24141 0.13899 0.0
C161 C 0.626 0.23837 0.15956 0.0
C162 C 0.63453 0.2038 0.16224 0.0
N163 N 0.61428 0.1846 0.1441 0.0
Co164 Co 0.61762 0.13338 0.1409 0.0
N165 N 0.65868 0.12889 0.17092 0.0
C166 C 0.67301 0.15427 0.18705 0.0
C167 C 0.70382 0.14379 0.20196 0.0
C168 C 0.71016 0.11003 0.19389 0.0
C169 C 0.6826 0.10184 0.17467 0.0
N170 N 0.62093 0.08222 0.13799 0.0
C171 C 0.64725 0.05954 0.14728 0.0
C172 C 0.64068 0.02613 0.1398 0.0
C173 C 0.60962 0.02802 0.12377 0.0
C174 C 0.59913 0.06233 0.12262 0.0
N175 N 0.57713 0.13752 0.11028 0.0
C176 C 0.56189 0.11142 0.096 0.0
C177 C 0.5332 0.12181 0.07801 0.0
C178 C 0.52959 0.15654 0.08118 0.0
C179 C 0.55673 0.16558 0.10075 0.0
N180 N 0.65171 0.1359 0.10148 0.0
C181 C 0.70452 0.13509 0.04875 0.0
C182 C 0.67563 0.1147 0.04777 0.0
C183 C 0.6497 0.11557 0.07411 0.0
C184 C 0.70579 0.15643 0.07635 0.0
C185 C 0.67939 0.15657 0.10199 0.0
N186 N 0.58335 0.13092 0.18067 0.0
C187 C 0.52878 0.1116 0.20645 0.0
C188 C 0.53185 0.13137 0.23487 0.0
C189 C 0.56165 0.15038 0.23586 0.0
C190 C 0.58682 0.14967 0.20892 0.0
C191 C 0.55447 0.11173 0.18005 0.0
H192 H 0.60867 0.16479 0.21155 0.0
H193 H 0.54993 0.09639 0.15924 0.0
H194 H 0.62853 0.09916 0.07217 0.0
H195 H 0.68237 0.17309 0.12243 0.0
C196 C 0.66103 0.18856 0.18194 0.0
C197 C 0.56083 0.20072 0.11134 0.0
C198 C 0.6812 0.06927 0.15779 0.0
C199 C 0.57274 0.07714 0.10275 0.0
H200 H 0.5843 0.26528 0.13164 0.0
H201 H 0.63817 0.25888 0.17154 0.0
H202 H 0.72114 0.15952 0.21475 0.0
H203 H 0.73336 0.09401 0.2 0.0
H204 H 0.65793 0.00323 0.14334 0.0
H205 H 0.59765 0.00723 0.11206 0.0
H206 H 0.51596 0.10587 0.06537 0.0
H207 H 0.50842 0.17289 0.07109 0.0
H208 H 0.67292 0.0981 0.02678 0.0
H209 H 0.72762 0.17249 0.07875 0.0
H210 H 0.50617 0.09655 0.20409 0.0
H211 H 0.56584 0.16565 0.25749 0.0
C212 C 0.11648 0.61643 0.19417 0.0
C213 C 0.12433 0.62369 0.22678 0.0
C214 C 0.14354 0.652 0.22483 0.0
C215 C 0.14621 0.66041 0.19129 0.0
N216 N 0.12904 0.63969 0.17181 0.0
Co217 Co 0.12834 0.64056 0.12164 0.0
N218 N 0.15997 0.67974 0.11821 0.0
C219 C 0.1747 0.69518 0.14364 0.0
C220 C 0.1917 0.72379 0.13363 0.0
C221 C 0.18652 0.7275 0.10005 0.0
C222 C 0.16678 0.7007 0.09152 0.0
N223 N 0.12801 0.64114 0.07154 0.0
C224 C 0.13967 0.66495 0.04943 0.0
C225 C 0.13339 0.65701 0.01661 0.0
C226 C 0.11581 0.62764 0.01822 0.0
C227 C 0.11256 0.61941 0.05179 0.0
N228 N 0.09625 0.60181 0.12488 0.0
C229 C 0.08178 0.58646 0.09922 0.0
C230 C 0.06248 0.55939 0.1092 0.0
C231 C 0.06544 0.55675 0.14312 0.0
C232 C 0.08641 0.58258 0.15193 0.0
N233 N 0.08685 0.67445 0.12308 0.0
C234 C 0.03194 0.72692 0.11975 0.0
C235 C 0.03144 0.69694 0.10115 0.0
C236 C 0.05899 0.67137 0.10303 0.0
C237 C 0.06001 0.72944 0.14082 0.0
C238 C 0.08654 0.70302 0.14244 0.0
N239 N 0.17 0.60668 0.12024 0.0
C240 C 0.19733 0.55127 0.10406 0.0
C241 C 0.22597 0.55544 0.12396 0.0
C242 C 0.22663 0.58625 0.141 0.0
C243 C 0.19871 0.61125 0.13878 0.0
C244 C 0.17001 0.57703 0.10244 0.0
H245 H 0.20083 0.6338 0.15276 0.0
H246 H 0.14888 0.57198 0.08713 0.0
H247 H 0.0575 0.64959 0.08761 0.0
H248 H 0.10702 0.70672 0.15899 0.0
C249 C 0.16726 0.68546 0.17708 0.0
C250 C 0.09941 0.58574 0.18544 0.0
C251 C 0.15181 0.69773 0.05889 0.0
C252 C 0.09067 0.59506 0.06581 0.0
H253 H 0.11795 0.60918 0.24944 0.0
H254 H 0.1555 0.66405 0.24525 0.0
H255 H 0.20416 0.74127 0.1493 0.0
H256 H 0.1948 0.74851 0.08415 0.0
H257 H 0.13891 0.67218 0.99417 0.0
H258 H 0.10454 0.61522 0.99763 0.0
H259 H 0.04955 0.54232 0.09346 0.0
H260 H 0.05475 0.53697 0.15917 0.0
H261 H 0.00999 0.69305 0.08504 0.0
H262 H 0.06222 0.75208 0.15557 0.0
H263 H 0.1954 0.52786 0.0904 0.0
H264 H 0.24861 0.5912 0.1561 0.0
C265 C 0.66942 0.90439 0.4187 0.0
C266 C 0.65677 0.9204 0.44806 0.0
C267 C 0.62982 0.94334 0.43946 0.0
C268 C 0.62744 0.94002 0.40552 0.0
N269 N 0.65082 0.91581 0.39208 0.0
Co270 Co 0.65795 0.9043 0.34355 0.0
N271 N 0.61651 0.9356 0.3313 0.0
C272 C 0.59533 0.95577 0.35194 0.0
C273 C 0.56641 0.97087 0.33669 0.0
C274 C 0.5686 0.95838 0.30478 0.0
C275 C 0.59893 0.93664 0.30254 0.0
N276 N 0.66604 0.89447 0.29473 0.0
C277 C 0.64401 0.90095 0.26939 0.0
C278 C 0.65903 0.8892 0.23906 0.0
C279 C 0.69128 0.87365 0.24591 0.0
C280 C 0.69406 0.87686 0.27986 0.0
N281 N 0.69785 0.87093 0.35551 0.0
C282 C 0.7188 0.85147 0.33397 0.0
C283 C 0.74416 0.83103 0.34938 0.0
C284 C 0.73924 0.838 0.3827 0.0
C285 C 0.71095 0.86244 0.38577 0.0
N286 N 0.62532 0.86659 0.34898 0.0
C287 C 0.57518 0.81615 0.35364 0.0
C288 C 0.60477 0.81265 0.33131 0.0
C289 C 0.62965 0.83775 0.32973 0.0
C290 C 0.57188 0.84486 0.37418 0.0
C291 C 0.59679 0.8696 0.37132 0.0
N292 N 0.69078 0.94255 0.33883 0.0
C293 C 0.75041 0.96183 0.33551 0.0
C294 C 0.7382 0.99506 0.34478 0.0
C295 C 0.70172 0.00199 0.34862 0.0
C296 C 0.67882 0.97585 0.34525 0.0
C297 C 0.7265 0.93627 0.33256 0.0
H298 H 0.65156 0.98344 0.34871 0.0
H299 H 0.73785 0.91149 0.32594 0.0
H300 H 0.65196 0.83376 0.31243 0.0
H301 H 0.59181 0.8915 0.38681 0.0
C302 C 0.60203 0.95746 0.38601 0.0
C303 C 0.69973 0.87928 0.41722 0.0
C304 C 0.60728 0.9134 0.27476 0.0
C305 C 0.71702 0.85639 0.29928 0.0
H306 H 0.66623 0.91609 0.47308 0.0
H307 H 0.61373 0.96025 0.45603 0.0
H308 H 0.54517 0.98725 0.34799 0.0
H309 H 0.54916 0.96295 0.28593 0.0
H310 H 0.64739 0.88984 0.21487 0.0
H311 H 0.70899 0.85892 0.22876 0.0
H312 H 0.76486 0.81433 0.33763 0.0
H313 H 0.75574 0.82731 0.40219 0.0
H314 H 0.60877 0.79062 0.3152 0.0
H315 H 0.54934 0.84902 0.39161 0.0
H316 H 0.77841 0.95514 0.33171 0.0
H317 H 0.6907 0.02759 0.35453 0.0
C318 C 0.34377 0.38704 0.73008 0.0
C319 C 0.32345 0.38052 0.75908 0.0
C320 C 0.30547 0.35239 0.75311 0.0
C321 C 0.31547 0.34343 0.72084 0.0
N322 N 0.33928 0.36376 0.70593 0.0
Co323 Co 0.35696 0.36239 0.65756 0.0
N324 N 0.32732 0.32342 0.6476 0.0
C325 C 0.3054 0.30753 0.66963 0.0
C326 C 0.29082 0.27986 0.65662 0.0
C327 C 0.30479 0.27741 0.62453 0.0
C328 C 0.32706 0.30397 0.61968 0.0
N329 N 0.37413 0.36162 0.60912 0.0
C330 C 0.36885 0.33912 0.5846 0.0
C331 C 0.38641 0.34766 0.5546 0.0
C332 C 0.40428 0.37588 0.56061 0.0
C333 C 0.39646 0.38311 0.59372 0.0
N334 N 0.38717 0.40082 0.66756 0.0
C335 C 0.41049 0.41547 0.64599 0.0
C336 C 0.42717 0.44148 0.65968 0.0
C337 C 0.41319 0.44412 0.69174 0.0
C338 C 0.38838 0.41969 0.69569 0.0
N339 N 0.39601 0.32794 0.66856 0.0
C340 C 0.44713 0.27223 0.67344 0.0
C341 C 0.45438 0.30188 0.65484 0.0
C342 C 0.42882 0.32927 0.65299 0.0
C343 C 0.41476 0.27212 0.69161 0.0
C344 C 0.38992 0.30011 0.68903 0.0
N345 N 0.3178 0.39663 0.64642 0.0
C346 C 0.29786 0.45263 0.62464 0.0
C347 C 0.26348 0.44869 0.63749 0.0
C348 C 0.25654 0.41762 0.65365 0.0
C349 C 0.28375 0.39213 0.65762 0.0
C350 C 0.32433 0.42648 0.62924 0.0
H351 H 0.27664 0.36922 0.67033 0.0
H352 H 0.35002 0.43134 0.61929 0.0
H353 H 0.43586 0.35081 0.63796 0.0
H354 H 0.36552 0.29811 0.70293 0.0
C355 C 0.3009 0.31786 0.70299 0.0
C356 C 0.36543 0.41669 0.72602 0.0
C357 C 0.34902 0.30842 0.5889 0.0
C358 C 0.41308 0.40694 0.61206 0.0
H359 H 0.32086 0.39517 0.78187 0.0
H360 H 0.28621 0.34076 0.76981 0.0
H361 H 0.27317 0.26272 0.66935 0.0
H362 H 0.29995 0.25759 0.60712 0.0
H363 H 0.38717 0.33419 0.53112 0.0
H364 H 0.42215 0.3886 0.54332 0.0
H365 H 0.44613 0.45759 0.64739 0.0
H366 H 0.41973 0.46269 0.70981 0.0
H367 H 0.47955 0.30383 0.64127 0.0
H368 H 0.40788 0.24997 0.7067 0.0
H369 H 0.30469 0.4762 0.61191 0.0
H370 H 0.23017 0.41289 0.66329 0.0
C371 C 0.85277 0.11324 0.9523 0.0
C372 C 0.86071 0.09962 0.98371 0.0
C373 C 0.89363 0.08347 0.98038 0.0
C374 C 0.90398 0.0882 0.94732 0.0
N375 N 0.87998 0.10704 0.9294 0.0
Co376 Co 0.88319 0.11722 0.87973 0.0
N377 N 0.93056 0.09117 0.87415 0.0
C378 C 0.94887 0.07477 0.89871 0.0
C379 C 0.98214 0.06246 0.88834 0.0
C380 C 0.98573 0.07231 0.85539 0.0
C381 C 0.95419 0.08991 0.84736 0.0
N382 N 0.88591 0.12659 0.82999 0.0
C383 C 0.91307 0.12062 0.80706 0.0
C384 C 0.90393 0.13166 0.77511 0.0
C385 C 0.87037 0.14639 0.7782 0.0
C386 C 0.86082 0.14321 0.81163 0.0
N387 N 0.83638 0.14414 0.88529 0.0
C388 C 0.8187 0.16146 0.86085 0.0
C389 C 0.78654 0.1762 0.87165 0.0
C390 C 0.78316 0.16739 0.90487 0.0
C391 C 0.81366 0.14776 0.91256 0.0
N392 N 0.90794 0.15923 0.88689 0.0
C393 C 0.95318 0.21299 0.88765 0.0
C394 C 0.92498 0.21456 0.86634 0.0
C395 C 0.90247 0.18778 0.86674 0.0
C396 C 0.95658 0.18551 0.91043 0.0
C397 C 0.93374 0.15918 0.90972 0.0
N398 N 0.85841 0.07506 0.87283 0.0
C399 C 0.80585 0.04937 0.85677 0.0
C400 C 0.81391 0.02064 0.87703 0.0
C401 C 0.84607 0.01807 0.89255 0.0
C402 C 0.86815 0.04512 0.8895 0.0
C403 C 0.82841 0.07614 0.85497 0.0
H404 H 0.89228 0.04171 0.90195 0.0
H405 H 0.82026 0.09794 0.84014 0.0
H406 H 0.88162 0.19013 0.84971 0.0
H407 H 0.93846 0.13845 0.92698 0.0
C408 C 0.93537 0.07413 0.93195 0.0
C409 C 0.81866 0.13102 0.94537 0.0
C410 C 0.94863 0.10695 0.81472 0.0
C411 C 0.83079 0.1596 0.82726 0.0
H412 H 0.84412 0.10067 0.00653 0.0
H413 H 0.90793 0.06921 0.99958 0.0
H414 H 0.00206 0.04936 0.90338 0.0
H415 H 0.00947 0.0681 0.83958 0.0
H416 H 0.92036 0.13046 0.75219 0.0
H417 H 0.85546 0.15948 0.75871 0.0
H418 H 0.76705 0.19014 0.85675 0.0
H419 H 0.76013 0.17358 0.92112 0.0
H420 H 0.92076 0.23598 0.84896 0.0
H421 H 0.97789 0.18336 0.92762 0.0
H422 H 0.78141 0.05198 0.84373 0.0
H423 H 0.85383 0.99556 0.90751 0.0
C424 C 0.28244 0.11461 0.43524 0.0
C425 C 0.24842 0.12803 0.42961 0.0
C426 C 0.25029 0.14689 0.40045 0.0
C427 C 0.28515 0.14376 0.38983 0.0
N428 N 0.30551 0.12316 0.40984 0.0
Co429 Co 0.35804 0.11368 0.4048 0.0
N430 N 0.3617 0.14478 0.36416 0.0
C431 C 0.33465 0.16235 0.34921 0.0
C432 C 0.34456 0.17902 0.32004 0.0
C433 C 0.37995 0.17097 0.31558 0.0
C434 C 0.3897 0.1499 0.3425 0.0
N435 N 0.41074 0.10519 0.4006 0.0
C436 C 0.43428 0.11499 0.3762 0.0
C437 C 0.46849 0.10295 0.38283 0.0
C438 C 0.46638 0.08395 0.41188 0.0
C439 C 0.4312 0.0857 0.42141 0.0
N440 N 0.35433 0.08174 0.44479 0.0
C441 C 0.3811 0.06209 0.458 0.0
C442 C 0.3715 0.04495 0.48693 0.0
C443 C 0.33671 0.05468 0.493 0.0
C444 C 0.32675 0.07709 0.46707 0.0
N445 N 0.35266 0.0746 0.37394 0.0
C446 C 0.34999 0.02303 0.32467 0.0
C447 C 0.37561 0.02086 0.34899 0.0
C448 C 0.37616 0.04631 0.37332 0.0
C449 C 0.32493 0.05105 0.32661 0.0
C450 C 0.32681 0.0762 0.35095 0.0
N451 N 0.36314 0.15274 0.43549 0.0
C452 C 0.38103 0.1737 0.48857 0.0
C453 C 0.36135 0.20502 0.48419 0.0
C454 C 0.34408 0.21014 0.45405 0.0
C455 C 0.34546 0.18406 0.43026 0.0
C456 C 0.38171 0.14829 0.46412 0.0
H457 H 0.33137 0.18958 0.40808 0.0
H458 H 0.39671 0.12486 0.46937 0.0
H459 H 0.39637 0.04282 0.39098 0.0
H460 H 0.30722 0.09696 0.35024 0.0
C461 C 0.29995 0.16102 0.36213 0.0
C462 C 0.29177 0.09541 0.46591 0.0
C463 C 0.42527 0.13352 0.34527 0.0
C464 C 0.416 0.06558 0.44673 0.0
H465 H 0.22483 0.12526 0.44544 0.0
H466 H 0.22899 0.16198 0.38895 0.0
H467 H 0.32779 0.19416 0.30333 0.0
H468 H 0.39643 0.17883 0.29433 0.0
H469 H 0.4923 0.10641 0.36752 0.0
H470 H 0.4877 0.06914 0.42364 0.0
H471 H 0.38844 0.02936 0.50314 0.0
H472 H 0.32131 0.04735 0.51511 0.0
H473 H 0.39595 1.00008 0.34898 0.0
H474 H 0.30374 0.05385 0.30937 0.0
H475 H 0.39502 0.1682 0.5113 0.0
H476 H 0.32931 0.23419 0.44874 0.0
C477 C 0.19765 0.11336 0.61201 0.0
C478 C 0.2306 0.12448 0.61826 0.0
C479 C 0.22727 0.14063 0.64836 0.0
C480 C 0.19272 0.13822 0.65899 0.0
N481 N 0.17391 0.12079 0.63788 0.0
Co482 Co 0.12233 0.11249 0.64339 0.0
N483 N 0.11679 0.13806 0.68683 0.0
C484 C 0.14228 0.15372 0.702 0.0
C485 C 0.13188 0.16603 0.73309 0.0
C486 C 0.098 0.15703 0.73855 0.0
C487 C 0.08946 0.13986 0.71024 0.0
N488 N 0.07071 0.10463 0.64863 0.0
C489 C 0.04737 0.11078 0.67499 0.0
C490 C 0.01408 0.1008 0.66839 0.0
C491 C 0.01681 0.08654 0.63738 0.0
C492 C 0.05136 0.08893 0.62673 0.0
N493 N 0.12784 0.08636 0.60033 0.0
C494 C 0.10218 0.07073 0.58539 0.0
C495 C 0.11257 0.05728 0.55482 0.0
C496 C 0.14677 0.0651 0.54958 0.0
C497 C 0.15564 0.08266 0.5776 0.0
N498 N 0.13324 0.06965 0.66962 0.0
C499 C 0.14026 0.01396 0.71551 0.0
C500 C 0.11772 0.01322 0.68879 0.0
C501 C 0.11481 0.04108 0.66613 0.0
C502 C 0.1608 0.04209 0.71737 0.0
C503 C 0.15719 0.06911 0.69423 0.0
N504 N 0.11168 0.15558 0.61718 0.0
C505 C 0.08953 0.18394 0.56711 0.0
C506 C 0.10944 0.21198 0.57207 0.0
C507 C 0.12799 0.21264 0.60132 0.0
C508 C 0.1282 0.18468 0.62365 0.0
C509 C 0.09099 0.15617 0.58988 0.0
H510 H 0.14297 0.18681 0.64535 0.0
H511 H 0.07621 0.13503 0.5842 0.0
H512 H 0.09679 0.03944 0.64658 0.0
H513 H 0.17317 0.08987 0.69767 0.0
C514 C 0.17683 0.15296 0.68812 0.0
C515 C 0.18998 0.09715 0.58055 0.0
C516 C 0.05605 0.12368 0.70753 0.0
C517 C 0.06739 0.07311 0.59839 0.0
H518 H 0.25447 0.12183 0.60238 0.0
H519 H 0.24745 0.15326 0.66068 0.0
H520 H 0.14769 0.17843 0.7505 0.0
H521 H 0.08204 0.16143 0.7614 0.0
H522 H 0.99058 0.10243 0.68486 0.0
H523 H 0.99647 0.07436 0.62483 0.0
H524 H 0.09656 0.04497 0.53751 0.0
H525 H 0.1626 0.05965 0.52687 0.0
H526 H 0.10195 0.99156 0.68562 0.0
H527 H 0.17859 0.04422 0.73752 0.0
H528 H 0.07427 0.18267 0.54495 0.0
H529 H 0.14288 0.23443 0.60665 0.0
C530 C 0.1219 0.92932 0.85893 0.0
C531 C 0.10701 0.96252 0.86312 0.0
C532 C 0.08901 0.96292 0.89355 0.0
C533 C 0.09398 0.93014 0.90619 0.0
N534 N 0.11485 0.90901 0.88607 0.0
Co535 Co 0.12625 0.85858 0.8933 0.0
N536 N 0.09854 0.85866 0.93745 0.0
C537 C 0.08142 0.88605 0.95264 0.0
C538 C 0.0687 0.87909 0.98463 0.0
C539 C 0.07929 0.8455 0.99067 0.0
C540 C 0.09764 0.83385 0.96176 0.0
N541 N 0.13595 0.80791 0.89941 0.0
C542 C 0.12867 0.78749 0.92624 0.0
C543 C 0.13953 0.7534 0.92028 0.0
C544 C 0.15558 0.75257 0.88893 0.0
C545 C 0.15325 0.78599 0.87755 0.0
N546 N 0.1557 0.85866 0.85022 0.0
C547 C 0.17508 0.83164 0.83659 0.0
C548 C 0.19179 0.83922 0.80645 0.0
C549 C 0.18219 0.87294 0.80019 0.0
C550 C 0.16013 0.88413 0.82711 0.0
N551 N 0.16837 0.8671 0.91845 0.0
C552 C 0.21914 0.87057 0.96693 0.0
C553 C 0.22196 0.8444 0.94337 0.0
C554 C 0.1967 0.84346 0.9191 0.0
C555 C 0.19243 0.8966 0.96375 0.0
C556 C 0.16772 0.89453 0.93935 0.0
N557 N 0.0838 0.85004 0.8686 0.0
C558 C 0.05751 0.82855 0.81996 0.0
C559 C 0.02525 0.846 0.82885 0.0
C560 C 0.02216 0.86365 0.85896 0.0
C561 C 0.05145 0.86513 0.8784 0.0
C562 C 0.08624 0.83081 0.84013 0.0
H563 H 0.04739 0.87946 0.90077 0.0
H564 H 0.11037 0.81765 0.83161 0.0
H565 H 0.19977 0.82264 0.90201 0.0
H566 H 0.14741 0.91464 0.93908 0.0
C567 C 0.07971 0.91842 0.93694 0.0
C568 C 0.14158 0.91811 0.8283 0.0
C569 C 0.11599 0.79995 0.95904 0.0
C570 C 0.17213 0.79844 0.84959 0.0
H571 H 0.10853 0.98408 0.84574 0.0
H572 H 0.0737 0.98442 0.90488 0.0
H573 H 0.05474 0.89672 0.00201 0.0
H574 H 0.07504 0.83162 0.0141 0.0
H575 H 0.13792 0.73179 0.93761 0.0
H576 H 0.16941 0.73066 0.87688 0.0
H577 H 0.20727 0.82176 0.78994 0.0
H578 H 0.18937 0.88705 0.77756 0.0
H579 H 0.24302 0.8243 0.94414 0.0
H580 H 0.18929 0.91762 0.98115 0.0
H581 H 0.06108 0.81447 0.79679 0.0
H582 H 0.99738 0.87689 0.86719 0.0
C583 C 0.38294 0.92662 0.19027 0.0
C584 C 0.40147 0.95602 0.18612 0.0
C585 C 0.42869 0.94864 0.16323 0.0
C586 C 0.42552 0.91527 0.15463 0.0
N587 N 0.3974 0.90124 0.17002 0.0
Co588 Co 0.38716 0.85196 0.16744 0.0
N589 N 0.42021 0.84431 0.12757 0.0
C590 C 0.44553 0.86478 0.11672 0.0
C591 C 0.46281 0.85369 0.08748 0.0
C592 C 0.44721 0.82445 0.07938 0.0
C593 C 0.42134 0.81929 0.10431 0.0
N594 N 0.37817 0.80254 0.16529 0.0
C595 C 0.38353 0.78079 0.13922 0.0
C596 C 0.37265 0.7485 0.14796 0.0
C597 C 0.3595 0.75038 0.18056 0.0
C598 C 0.36318 0.78358 0.18988 0.0
N599 N 0.35287 0.85938 0.2065 0.0
C600 C 0.33819 0.83442 0.22511 0.0
C601 C 0.31541 0.84682 0.25038 0.0
C602 C 0.31644 0.88176 0.2482 0.0
C603 C 0.34024 0.88881 0.22186 0.0
N604 N 0.34953 0.86342 0.13672 0.0
C605 C 0.30352 0.86936 0.08402 0.0
C606 C 0.29609 0.84871 0.11233 0.0
C607 C 0.3193 0.84633 0.13856 0.0
C608 C 0.33315 0.88872 0.08381 0.0
C609 C 0.35561 0.88554 0.1104 0.0
N610 N 0.42574 0.84086 0.19778 0.0
C611 C 0.45769 0.86091 0.24318 0.0
C612 C 0.4891 0.84573 0.22916 0.0
C613 C 0.48754 0.82412 0.20176 0.0
C614 C 0.45514 0.82113 0.18708 0.0
C615 C 0.42647 0.85826 0.22712 0.0
H616 H 0.45463 0.80511 0.16542 0.0
H617 H 0.40396 0.8731 0.23721 0.0
H618 H 0.31362 0.82943 0.15952 0.0
H619 H 0.37904 0.89951 0.10856 0.0
C620 C 0.44732 0.89699 0.13091 0.0
C621 C 0.35521 0.92253 0.21693 0.0
C622 C 0.39899 0.78999 0.10615 0.0
C623 C 0.34521 0.7998 0.21719 0.0
H624 H 0.39692 0.97997 0.19923 0.0
H625 H 0.44868 0.96549 0.15427 0.0
H626 H 0.48299 0.86631 0.0728 0.0
H627 H 0.45388 0.80903 0.05749 0.0
H628 H 0.37333 0.72625 0.13216 0.0
H629 H 0.34646 0.73063 0.19482 0.0
H630 H 0.30022 0.83219 0.26852 0.0
H631 H 0.30283 0.8999 0.2653 0.0
H632 H 0.27296 0.83394 0.11389 0.0
H633 H 0.34006 0.90495 0.06248 0.0
H634 H 0.45764 0.87759 0.26456 0.0
H635 H 0.5113 0.81116 0.19079 0.0
C636 C 0.33338 0.41625 0.15401 0.0
C637 C 0.30563 0.41147 0.17712 0.0
C638 C 0.30696 0.37724 0.18504 0.0
C639 C 0.33523 0.36309 0.16631 0.0
N640 N 0.35262 0.38638 0.14754 0.0
Co641 Co 0.39308 0.37685 0.1141 0.0
N642 N 0.39103 0.32613 0.12106 0.0
C643 C 0.36766 0.3096 0.14101 0.0
C644 C 0.37376 0.27459 0.14121 0.0
C645 C 0.40337 0.26849 0.12091 0.0
C646 C 0.41374 0.3003 0.10971 0.0
N647 N 0.43361 0.36737 0.08074 0.0
C648 C 0.45308 0.3376 0.07443 0.0
C649 C 0.48129 0.34277 0.05186 0.0
C650 C 0.47978 0.37694 0.04398 0.0
C651 C 0.45113 0.39079 0.06227 0.0
N652 N 0.39494 0.42763 0.107 0.0
C653 C 0.4181 0.44417 0.08684 0.0
C654 C 0.41129 0.4791 0.08563 0.0
C655 C 0.38143 0.48517 0.10554 0.0
C656 C 0.37172 0.45342 0.11759 0.0
N657 N 0.42747 0.37714 0.15057 0.0
C658 C 0.48024 0.36959 0.19886 0.0
C659 C 0.48489 0.38965 0.16963 0.0
C660 C 0.4584 0.39318 0.14616 0.0
C661 C 0.44797 0.35461 0.20392 0.0
C662 C 0.42229 0.35873 0.17985 0.0
N663 N 0.35882 0.37609 0.07763 0.0
C664 C 0.33984 0.39291 0.02199 0.0
C665 C 0.3088 0.3757 0.02698 0.0
C666 C 0.30337 0.35897 0.05795 0.0
C667 C 0.32839 0.35939 0.08248 0.0
C668 C 0.36423 0.3928 0.0474 0.0
H669 H 0.32221 0.3462 0.10534 0.0
H670 H 0.38723 0.40649 0.04206 0.0
H671 H 0.46387 0.4084 0.12426 0.0
H672 H 0.39868 0.34619 0.18528 0.0
C673 C 0.34282 0.32783 0.162 0.0
C674 C 0.33858 0.44874 0.13636 0.0
C675 C 0.44744 0.30493 0.09173 0.0
C676 C 0.44319 0.42593 0.06633 0.0
H677 H 0.28548 0.43036 0.18616 0.0
H678 H 0.28819 0.36397 0.2009 0.0
H679 H 0.35951 0.25586 0.15576 0.0
H680 H 0.41694 0.24364 0.11626 0.0
H681 H 0.50198 0.3244 0.04304 0.0
H682 H 0.4987 0.39041 0.02848 0.0
H683 H 0.42521 0.49771 0.0706 0.0
H684 H 0.36739 0.50991 0.10952 0.0
H685 H 0.50927 0.40193 0.16429 0.0
H686 H 0.44234 0.33966 0.22647 0.0
H687 H 0.34563 0.40612 0.99843 0.0
H688 H 0.27955 0.34589 0.06367 0.0
C689 C 0.92508 0.86638 0.08712 0.0
C690 C 0.95492 0.87061 0.06638 0.0
C691 C 0.94851 0.9002 0.04822 0.0
C692 C 0.91534 0.91248 0.0589 0.0
N693 N 0.90033 0.89274 0.08315 0.0
Co694 Co 0.85176 0.90071 0.10466 0.0
N695 N 0.84391 0.94622 0.08069 0.0
C696 C 0.86693 0.96123 0.05909 0.0
C697 C 0.85648 0.9944 0.05041 0.0
C698 C 0.82541 0.00138 0.06832 0.0
C699 C 0.81845 0.97176 0.08661 0.0
N700 N 0.80265 0.90763 0.12466 0.0
C701 C 0.77969 0.93559 0.12369 0.0
C702 C 0.74763 0.92944 0.14012 0.0
C703 C 0.75116 0.89687 0.15319 0.0
C704 C 0.78482 0.88494 0.14364 0.0
N705 N 0.86026 0.85656 0.13058 0.0
C706 C 0.83725 0.8421 0.15265 0.0
C707 C 0.85017 0.81171 0.1665 0.0
C708 C 0.88348 0.80642 0.15259 0.0
C709 C 0.88913 0.83415 0.13102 0.0
N710 N 0.87 0.92578 0.14173 0.0
C711 C 0.88211 0.9766 0.18709 0.0
C712 C 0.85862 0.95157 0.19587 0.0
C713 C 0.85319 0.92614 0.17289 0.0
C714 C 0.90234 0.97337 0.15716 0.0
C715 C 0.89628 0.94756 0.13518 0.0
N716 N 0.83329 0.87599 0.06694 0.0
C717 C 0.80942 0.82541 0.04556 0.0
C718 C 0.81818 0.83569 0.01271 0.0
C719 C 0.83159 0.86771 0.00723 0.0
C720 C 0.83856 0.88743 0.03446 0.0
C721 C 0.81704 0.84591 0.07216 0.0
H722 H 0.84932 0.91123 0.02833 0.0
H723 H 0.81065 0.83616 0.09662 0.0
H724 H 0.83395 0.90818 0.17991 0.0
H725 H 0.91175 0.94707 0.1122 0.0
C726 C 0.89913 0.94414 0.04922 0.0
C727 C 0.92166 0.83713 0.11035 0.0
C728 C 0.78849 0.96927 0.11068 0.0
C729 C 0.80242 0.85564 0.15694 0.0
H730 H 0.97905 0.85425 0.06471 0.0
H731 H 0.96627 0.91181 0.02998 0.0
H732 H 0.87056 0.01193 0.03419 0.0
H733 H 0.81034 0.02589 0.06862 0.0
H734 H 0.72475 0.94726 0.14377 0.0
H735 H 0.73227 0.88428 0.1695 0.0
H736 H 0.83653 0.79477 0.18371 0.0
H737 H 0.90114 0.78409 0.1572 0.0
H738 H 0.84313 0.95277 0.21938 0.0
H739 H 0.92185 0.99153 0.15017 0.0
H740 H 0.79866 0.80079 0.05086 0.0
H741 H 0.8379 0.87698 0.98199 0.0
C742 C 0.15673 0.5916 0.64296 0.0
C743 C 0.18128 0.59644 0.66681 0.0
C744 C 0.17797 0.63043 0.6745 0.0
C745 C 0.15183 0.64441 0.65491 0.0
N746 N 0.13766 0.62125 0.63563 0.0
Co747 Co 0.10103 0.63098 0.60133 0.0
N748 N 0.09814 0.68131 0.6107 0.0
C749 C 0.11723 0.69772 0.63237 0.0
C750 C 0.10724 0.73199 0.63513 0.0
C751 C 0.07932 0.73753 0.61493 0.0
C752 C 0.07385 0.70614 0.60112 0.0
N753 N 0.06478 0.64081 0.56675 0.0
C754 C 0.04351 0.6696 0.56169 0.0
C755 C 0.01935 0.66476 0.53746 0.0
C756 C 0.02517 0.63164 0.52734 0.0
C757 C 0.05222 0.61804 0.54601 0.0
N758 N 0.10336 0.58055 0.59242 0.0
C759 C 0.08407 0.56439 0.57077 0.0
C760 C 0.09211 0.52967 0.56948 0.0
C761 C 0.11858 0.52333 0.59116 0.0
C762 C 0.12527 0.55473 0.60431 0.0
N763 N 0.06245 0.6259 0.63589 0.0
C764 C 1.00102 0.63808 0.67693 0.0
C765 C 1.00053 0.61839 0.64812 0.0
C766 C 0.03157 0.6123 0.62821 0.0
C767 C 0.03346 0.64816 0.6867 0.0
C768 C 0.06367 0.64144 0.66621 0.0
N769 N 0.1394 0.63696 0.5665 0.0
C770 C 0.16684 0.62547 0.51146 0.0
C771 C 0.19409 0.6465 0.51756 0.0
C772 C 0.19362 0.66223 0.54865 0.0
C773 C 0.16636 0.65724 0.57238 0.0
C774 C 0.13998 0.62105 0.53612 0.0
H775 H 0.16799 0.66999 0.59537 0.0
H776 H 0.12006 0.60465 0.53004 0.0
H777 H 0.02967 0.598 0.60591 0.0
H778 H 0.08735 0.65058 0.67468 0.0
C779 C 0.14148 0.67946 0.65251 0.0
C780 C 0.15413 0.55898 0.62634 0.0
C781 C 0.04306 0.70029 0.58206 0.0
C782 C 0.0614 0.58296 0.54947 0.0
H783 H 0.20037 0.57761 0.67687 0.0
H784 H 0.19365 0.6436 0.69146 0.0
H785 H 0.11764 0.75031 0.6514 0.0
H786 H 0.06353 0.76145 0.61204 0.0
H787 H 0.99826 0.68238 0.52918 0.0
H788 H 0.00957 0.6183 0.51045 0.0
H789 H 0.08109 0.51138 0.5536 0.0
H790 H 0.13225 0.49861 0.59594 0.0
H791 H 0.97614 0.60903 0.64018 0.0
H792 H 0.03545 0.66189 0.70979 0.0
H793 H 0.16595 0.61274 0.48769 0.0
H794 H 0.21456 0.67806 0.55504 0.0
C795 C 0.66836 0.78699 0.93957 0.0
C796 C 0.6922 0.75865 0.93516 0.0
C797 C 0.69467 0.75204 0.90152 0.0
C798 C 0.67272 0.7769 0.88709 0.0
N799 N 0.65724 0.79928 0.90948 0.0
Co800 Co 0.62469 0.83966 0.89859 0.0
N801 N 0.63793 0.83699 0.84987 0.0
C802 C 0.65388 0.80974 0.83394 0.0
C803 C 0.66044 0.8161 0.80027 0.0
C804 C 0.64785 0.84946 0.79478 0.0
C805 C 0.63443 0.8616 0.82554 0.0
N806 N 0.59222 0.87988 0.88742 0.0
C807 C 0.59272 0.90099 0.86009 0.0
C808 C 0.56624 0.92725 0.86307 0.0
C809 C 0.54826 0.92185 0.89306 0.0
C810 C 0.5649 0.89298 0.90681 0.0
N811 N 0.61086 0.84267 0.9473 0.0
C812 C 0.58144 0.85991 0.96008 0.0
C813 C 0.57596 0.85508 0.99389 0.0
C814 C 0.60318 0.83288 0.00315 0.0
C815 C 0.62432 0.82547 0.97429 0.0
N816 N 0.66252 0.87001 0.90393 0.0
C817 C 0.71342 0.91806 0.90073 0.0
C818 C 0.68165 0.92467 0.91938 0.0
C819 C 0.65638 0.90022 0.92058 0.0
C820 C 0.72019 0.88623 0.88568 0.0
C821 C 0.69461 0.86245 0.8879 0.0
N822 N 0.58705 0.80906 0.89282 0.0
C823 C 0.55646 0.75999 0.91174 0.0
C824 C 0.53517 0.76328 0.88412 0.0
C825 C 0.54019 0.79003 0.86082 0.0
C826 C 0.56616 0.81287 0.86579 0.0
C827 C 0.58217 0.78294 0.91554 0.0
H828 H 0.56957 0.8334 0.84764 0.0
H829 H 0.59832 0.77903 0.93678 0.0
H830 H 0.63134 0.90632 0.93369 0.0
H831 H 0.70028 0.83859 0.87518 0.0
C832 C 0.66904 0.78221 0.85252 0.0
C833 C 0.65311 0.798 0.97269 0.0
C834 C 0.61699 0.89589 0.83066 0.0
C835 C 0.5606 0.88199 0.94007 0.0
H836 H 0.70531 0.74337 0.95441 0.0
H837 H 0.71082 0.73174 0.88909 0.0
H838 H 0.6745 0.79925 0.78224 0.0
H839 H 0.64877 0.86337 0.77102 0.0
H840 H 0.56063 0.94839 0.84577 0.0
H841 H 0.52699 0.93821 0.90434 0.0
H842 H 0.55443 0.86597 0.00988 0.0
H843 H 0.6055 0.82228 0.0282 0.0
H844 H 0.67573 0.94909 0.93149 0.0
H845 H 0.74478 0.88011 0.87153 0.0
H846 H 0.55383 0.73928 0.93001 0.0
H847 H 0.52409 0.79338 0.83915 0.0
C848 C 0.96493 0.19629 0.35943 0.0
C849 C 0.9992 0.18765 0.3687 0.0
C850 C 0.99986 0.15466 0.38077 0.0
C851 C 0.96617 0.14498 0.37806 0.0
N852 N 0.94424 0.16938 0.36397 0.0
Co853 Co 0.89215 0.16719 0.35892 0.0
N854 N 0.89231 0.11963 0.37918 0.0
C855 C 0.92075 0.10029 0.3896 0.0
C856 C 0.91367 0.06732 0.39866 0.0
C857 C 0.87886 0.06507 0.39264 0.0
C858 C 0.86671 0.09693 0.38022 0.0
N859 N 0.8397 0.16586 0.35576 0.0
C860 C 0.81857 0.1394 0.36093 0.0
C861 C 0.78377 0.14924 0.35429 0.0
C862 C 0.78305 0.18279 0.34392 0.0
C863 C 0.81729 0.19154 0.34473 0.0
N864 N 0.89226 0.21387 0.33678 0.0
C865 C 0.86422 0.23179 0.32379 0.0
C866 C 0.87144 0.26395 0.31225 0.0
C867 C 0.90596 0.26705 0.31876 0.0
C868 C 0.91806 0.23635 0.33384 0.0
N869 N 0.89975 0.14549 0.31466 0.0
C870 C 0.89706 0.09587 0.26582 0.0
C871 C 0.87202 0.12374 0.26713 0.0
C872 C 0.8742 0.14863 0.29147 0.0
C873 C 0.92612 0.09605 0.28576 0.0
C874 C 0.92733 0.12149 0.30941 0.0
N875 N 0.88499 0.18845 0.40342 0.0
C876 C 0.87391 0.24093 0.43395 0.0
C877 C 0.89605 0.22811 0.45895 0.0
C878 C 0.90849 0.19372 0.45793 0.0
C879 C 0.90217 0.17427 0.43031 0.0
C880 C 0.86826 0.22047 0.40675 0.0
H881 H 0.91315 0.14846 0.4305 0.0
H882 H 0.85202 0.23174 0.3878 0.0
H883 H 0.85377 0.16885 0.29255 0.0
H884 H 0.94969 0.11974 0.32457 0.0
C885 C 0.95405 0.11344 0.38895 0.0
C886 C 0.95301 0.23082 0.34783 0.0
C887 C 0.83109 0.10393 0.36838 0.0
C888 C 0.83025 0.22073 0.32916 0.0
H889 H 0.02125 0.20382 0.36762 0.0
H890 H 0.02204 0.13981 0.39106 0.0
H891 H 0.93195 0.04698 0.40743 0.0
H892 H 0.86428 0.0423 0.39604 0.0
H893 H 0.7615 0.13339 0.35496 0.0
H894 H 0.76074 0.19813 0.33445 0.0
H895 H 0.85305 0.28379 0.3027 0.0
H896 H 0.91978 0.29013 0.31456 0.0
H897 H 0.84974 0.12515 0.25109 0.0
H898 H 0.94702 0.07576 0.28417 0.0
H899 H 0.86267 0.26718 0.43429 0.0
H900 H 0.92412 0.1822 0.47777 0.0
C901 C 0.53716 0.12149 0.65114 0.0
C902 C 0.50337 0.11602 0.64172 0.0
C903 C 0.50625 0.08745 0.62236 0.0
C904 C 0.54147 0.07707 0.62118 0.0
N905 N 0.56116 0.0969 0.6392 0.0
Co906 Co 0.61371 0.09233 0.64287 0.0
N907 N 0.61863 0.05287 0.61114 0.0
C908 C 0.59273 0.03994 0.59413 0.0
C909 C 0.60361 0.01075 0.57697 0.0
C910 C 0.63818 0.00407 0.58425 0.0
C911 C 0.64649 0.0298 0.60538 0.0
N912 N 0.6661 0.08741 0.64696 0.0
C913 C 0.68936 0.06141 0.63706 0.0
C914 C 0.72328 0.06646 0.64644 0.0
C915 C 0.72104 0.09606 0.66424 0.0
C916 C 0.68608 0.10735 0.66452 0.0
N917 N 0.60895 0.13195 0.67438 0.0
C918 C 0.6353 0.14606 0.68976 0.0
C919 C 0.62429 0.17431 0.70823 0.0
C920 C 0.58893 0.17906 0.70381 0.0
C921 C 0.58034 0.15323 0.68288 0.0
N922 N 0.60882 0.05909 0.681 0.0
C923 C 0.61132 0.00535 0.72973 0.0
C924 C 0.62886 0.03528 0.7339 0.0
C925 C 0.62727 0.06159 0.70945 0.0
C926 C 0.59123 0.00375 0.70137 0.0
C927 C 0.58989 0.03081 0.67794 0.0
N928 N 0.61889 0.12538 0.60435 0.0
C929 C 0.64508 0.1749 0.57848 0.0
C930 C 0.62367 0.174 0.55104 0.0
C931 C 0.60014 0.14815 0.55055 0.0
C932 C 0.5984 0.12421 0.57703 0.0
C933 C 0.64213 0.15071 0.6047 0.0
H934 H 0.58007 0.10516 0.5748 0.0
H935 H 0.65871 0.15334 0.62509 0.0
H936 H 0.6418 0.08339 0.71371 0.0
H937 H 0.57422 0.02774 0.65694 0.0
C938 C 0.5574 0.05157 0.60023 0.0
C939 C 0.54544 0.15163 0.66949 0.0
C940 C 0.67974 0.0298 0.62221 0.0
C941 C 0.67049 0.1339 0.68422 0.0
H942 H 0.47937 0.13182 0.64729 0.0
H943 H 0.48542 0.07656 0.60935 0.0
H944 H 0.58759 0.99468 0.56307 0.0
H945 H 0.65462 0.98174 0.57638 0.0
H946 H 0.74675 0.04948 0.64238 0.0
H947 H 0.74198 0.10689 0.67716 0.0
H948 H 0.64033 0.19041 0.72208 0.0
H949 H 0.57174 0.19995 0.71386 0.0
H950 H 0.6439 0.03852 0.75586 0.0
H951 H 0.57718 0.98132 0.69651 0.0
H952 H 0.66359 0.19463 0.58009 0.0
H953 H 0.58335 0.1461 0.52958 0.0
C954 C 0.17032 0.39669 0.93047 0.0
C955 C 0.16148 0.415 0.95946 0.0
C956 C 0.13235 0.436 0.95292 0.0
C957 C 0.12502 0.42929 0.92048 0.0
N958 N 0.147 0.40447 0.9062 0.0
Co959 Co 0.14883 0.3907 0.85793 0.0
N960 N 0.10669 0.42247 0.84779 0.0
C961 C 0.08793 0.44344 0.8696 0.0
C962 C 0.05825 0.45947 0.85657 0.0
C963 C 0.05745 0.44727 0.82479 0.0
C964 C 0.08697 0.42465 0.82018 0.0
N965 N 0.15203 0.37862 0.80932 0.0
C966 C 0.12899 0.3862 0.78484 0.0
C967 C 0.14121 0.3723 0.75441 0.0
C968 C 0.17264 0.35451 0.76015 0.0
C969 C 0.17786 0.35869 0.79359 0.0
N970 N 0.18935 0.35704 0.86847 0.0
C971 C 0.20734 0.33556 0.8466 0.0
C972 C 0.23497 0.31673 0.86037 0.0
C973 C 0.23512 0.32733 0.89276 0.0
C974 C 0.20742 0.35218 0.89696 0.0
N975 N 0.11601 0.35444 0.86775 0.0
C976 C 0.0641 0.30691 0.87625 0.0
C977 C 0.09306 0.30073 0.85378 0.0
C978 C 0.11878 0.32456 0.85016 0.0
C979 C 0.06238 0.33651 0.8954 0.0
C980 C 0.08844 0.35973 0.89082 0.0
N981 N 0.18176 0.42731 0.84888 0.0
C982 C 0.24149 0.44014 0.85826 0.0
C983 C 0.22917 0.47119 0.87283 0.0
C984 C 0.19401 0.48273 0.86865 0.0
C985 C 0.17094 0.46066 0.85581 0.0
C986 C 0.21736 0.41914 0.84527 0.0
H987 H 0.14413 0.47036 0.85404 0.0
H988 H 0.22775 0.39524 0.83504 0.0
H989 H 0.14032 0.31872 0.83254 0.0
H990 H 0.08524 0.38227 0.90558 0.0
C991 C 0.09821 0.44627 0.9025 0.0
C992 C 0.20216 0.37364 0.92667 0.0
C993 C 0.09444 0.40453 0.78988 0.0
C994 C 0.20204 0.33869 0.81221 0.0
H995 H 0.17531 0.41398 0.98261 0.0
H996 H 0.11874 0.45464 0.9695 0.0
H997 H 0.03886 0.47699 0.86909 0.0
H998 H 0.03696 0.45366 0.80735 0.0
H999 H 0.12799 0.37365 0.73092 0.0
H1000 H 0.18847 0.33844 0.74261 0.0
H1001 H 0.25438 0.29935 0.84768 0.0
H1002 H 0.25484 0.31921 0.91046 0.0
H1003 H 0.09581 0.27769 0.83896 0.0
H1004 H 0.04038 0.34235 0.91309 0.0
H1005 H 0.26896 0.43089 0.85894 0.0
H1006 H 0.18389 0.50793 0.87687 0.0
C1007 C 0.34687 0.64577 0.43499 0.0
C1008 C 0.35361 0.63419 0.46733 0.0
C1009 C 0.38369 0.61299 0.46488 0.0
C1010 C 0.39348 0.61294 0.43133 0.0
N1011 N 0.37212 0.63376 0.41241 0.0
Co1012 Co 0.3739 0.63899 0.36234 0.0
N1013 N 0.41482 0.604 0.35783 0.0
C1014 C 0.43044 0.58538 0.38269 0.0
C1015 C 0.46047 0.56648 0.37202 0.0
C1016 C 0.46506 0.5746 0.33869 0.0
C1017 C 0.43734 0.59795 0.33095 0.0
N1018 N 0.37558 0.64393 0.31224 0.0
C1019 C 0.402 0.63376 0.29002 0.0
C1020 C 0.39519 0.64495 0.25762 0.0
C1021 C 0.36371 0.66407 0.25968 0.0
C1022 C 0.35326 0.66338 0.29311 0.0
N1023 N 0.3334 0.67443 0.36673 0.0
C1024 C 0.31794 0.6929 0.34169 0.0
C1025 C 0.28891 0.71322 0.3524 0.0
C1026 C 0.285 0.70653 0.38607 0.0
C1027 C 0.31206 0.6825 0.39396 0.0
N1028 N 0.40822 0.67539 0.36425 0.0
C1029 C 0.46206 0.72224 0.36129 0.0
C1030 C 0.4329 0.72705 0.34116 0.0
C1031 C 0.40633 0.70372 0.34326 0.0
C1032 C 0.46305 0.69428 0.38374 0.0
C1033 C 0.4362 0.67143 0.38478 0.0
N1034 N 0.33944 0.60246 0.3607 0.0
C1035 C 0.28206 0.58459 0.34641 0.0
C1036 C 0.28553 0.55544 0.36737 0.0
C1037 C 0.31729 0.54952 0.38354 0.0
C1038 C 0.34364 0.57287 0.37968 0.0
C1039 C 0.30907 0.60748 0.34341 0.0
H1040 H 0.3669 0.56669 0.39294 0.0
H1041 H 0.30438 0.6295 0.32759 0.0
H1042 H 0.38486 0.70869 0.32715 0.0
H1043 H 0.43915 0.65027 0.4019 0.0
C1044 C 0.41987 0.59076 0.41637 0.0
C1045 C 0.3142 0.66479 0.42637 0.0
C1046 C 0.43563 0.61732 0.29937 0.0
C1047 C 0.32754 0.68623 0.30804 0.0
H1048 H 0.33737 0.63914 0.48996 0.0
H1049 H 0.39572 0.59782 0.48485 0.0
H1050 H 0.47843 0.55086 0.38721 0.0
H1051 H 0.48743 0.56593 0.32259 0.0
H1052 H 0.41237 0.64149 0.23535 0.0
H1053 H 0.35157 0.67916 0.23972 0.0
H1054 H 0.27118 0.72906 0.33716 0.0
H1055 H 0.26351 0.71674 0.40246 0.0
H1056 H 0.43058 0.7487 0.32379 0.0
H1057 H 0.48502 0.6894 0.3999 0.0
H1058 H 0.25816 0.59039 0.33307 0.0
H1059 H 0.32195 0.52685 0.39924 0.0
C1060 C 0.7631 0.62374 0.87097 0.0
C1061 C 0.72707 0.63045 0.8683 0.0
C1062 C 0.72266 0.64805 0.83863 0.0
C1063 C 0.75618 0.65114 0.82508 0.0
N1064 N 0.78163 0.6356 0.84381 0.0
Co1065 Co 0.83398 0.63844 0.83708 0.0
N1066 N 0.82807 0.66959 0.79686 0.0
C1067 C 0.79748 0.68086 0.78304 0.0
C1068 C 0.80227 0.69857 0.75324 0.0
C1069 C 0.83802 0.69761 0.74717 0.0
C1070 C 0.85287 0.67945 0.77379 0.0
N1071 N 0.88617 0.64234 0.83151 0.0
C1072 C 0.90498 0.65749 0.80649 0.0
C1073 C 0.94093 0.65402 0.81155 0.0
C1074 C 0.94499 0.63496 0.84037 0.0
C1075 C 0.91143 0.62804 0.85122 0.0
N1076 N 0.84014 0.60636 0.87645 0.0
C1077 C 0.87076 0.59252 0.88838 0.0
C1078 C 0.86614 0.5725 0.91672 0.0
C1079 C 0.83055 0.57448 0.92377 0.0
C1080 C 0.8156 0.5957 0.89922 0.0
N1081 N 0.83762 0.59896 0.80637 0.0
C1082 C 0.84969 0.55255 0.75339 0.0
C1083 C 0.87406 0.55414 0.77838 0.0
C1084 C 0.86728 0.57696 0.8047 0.0
C1085 C 0.81794 0.57263 0.75698 0.0
C1086 C 0.81247 0.59539 0.78345 0.0
N1087 N 0.83045 0.67806 0.86736 0.0
C1088 C 0.84956 0.70595 0.91602 0.0
C1089 C 0.82359 0.73247 0.91227 0.0
C1090 C 0.8011 0.73166 0.88581 0.0
C1091 C 0.80532 0.70456 0.86345 0.0
C1092 C 0.8523 0.67898 0.89362 0.0
H1093 H 0.78784 0.70553 0.84334 0.0
H1094 H 0.87202 0.65901 0.89826 0.0
H1095 H 0.88708 0.57719 0.82266 0.0
H1096 H 0.78812 0.6105 0.78417 0.0
C1097 C 0.76491 0.67161 0.79702 0.0
C1098 C 0.77889 0.60874 0.90088 0.0
C1099 C 0.89043 0.66999 0.77511 0.0
C1100 C 0.90313 0.60413 0.87652 0.0
H1101 H 0.70633 0.62452 0.88661 0.0
H1102 H 0.69812 0.65904 0.82908 0.0
H1103 H 0.78217 0.70939 0.73702 0.0
H1104 H 0.85167 0.70796 0.72518 0.0
H1105 H 0.96212 0.66244 0.79496 0.0
H1106 H 0.96958 0.62534 0.85085 0.0
H1107 H 0.88635 0.56016 0.93193 0.0
H1108 H 0.81726 0.56337 0.94556 0.0
H1109 H 0.89895 0.53891 0.77711 0.0
H1110 H 0.79743 0.57123 0.73921 0.0
H1111 H 0.86733 0.70577 0.9365 0.0
H1112 H 0.78079 0.75207 0.88213 0.0
C1113 C 0.63965 0.56042 0.14623 0.0
C1114 C 0.61396 0.53758 0.14143 0.0
C1115 C 0.58493 0.55656 0.13059 0.0
C1116 C 0.5945 0.58979 0.12898 0.0
N1117 N 0.62816 0.59281 0.13726 0.0
Co1118 Co 0.6515 0.63666 0.13944 0.0
N1119 N 0.61422 0.6618 0.11385 0.0
C1120 C 0.58157 0.65203 0.1095 0.0
C1121 C 0.5621 0.67504 0.09005 0.0
C1122 C 0.58417 0.70059 0.08145 0.0
C1123 C 0.61597 0.69149 0.09601 0.0
N1124 N 0.67403 0.68091 0.14182 0.0
C1125 C 0.6719 0.70822 0.12026 0.0
C1126 C 0.69579 0.73191 0.1281 0.0
C1127 C 0.71256 0.71921 0.15582 0.0
C1128 C 0.69879 0.68824 0.16306 0.0
N1129 N 0.68972 0.61162 0.16448 0.0
C1130 C 0.71388 0.62637 0.18203 0.0
C1131 C 0.73671 0.60316 0.19745 0.0
C1132 C 0.72574 0.57172 0.18998 0.0
C1133 C 0.69652 0.57747 0.17035 0.0
N1134 N 0.67767 0.62669 0.09702 0.0
C1135 C 0.71168 0.61914 0.03354 0.0
C1136 C 0.72983 0.62995 0.06082 0.0
C1137 C 0.71241 0.63335 0.09241 0.0
C1138 C 0.67651 0.61132 0.03902 0.0
C1139 C 0.66011 0.61519 0.07078 0.0
N1140 N 0.6241 0.64636 0.18166 0.0
C1141 C 0.59448 0.62028 0.22915 0.0
C1142 C 0.5666 0.64537 0.2277 0.0
C1143 C 0.57083 0.67403 0.20645 0.0
C1144 C 0.60038 0.67432 0.18398 0.0
C1145 C 0.62297 0.62134 0.20613 0.0
H1146 H 0.6022 0.69565 0.16646 0.0
H1147 H 0.64215 0.60005 0.20658 0.0
H1148 H 0.72677 0.64213 0.11287 0.0
H1149 H 0.63276 0.60987 0.07373 0.0
C1150 C 0.57355 0.6183 0.11758 0.0
C1151 C 0.67151 0.55112 0.16491 0.0
C1152 C 0.64748 0.71129 0.09254 0.0
C1153 C 0.7158 0.66193 0.18163 0.0
H1154 H 0.61548 0.51028 0.14697 0.0
H1155 H 0.55978 0.54725 0.12482 0.0
H1156 H 0.53587 0.67254 0.08136 0.0
H1157 H 0.57797 0.72286 0.06565 0.0
H1158 H 0.70239 0.75505 0.11483 0.0
H1159 H 0.73477 0.72968 0.16706 0.0
H1160 H 0.75848 0.60842 0.21265 0.0
H1161 H 0.73699 0.54759 0.19969 0.0
H1162 H 0.75725 0.6358 0.05781 0.0
H1163 H 0.6613 0.60326 0.01866 0.0
H1164 H 0.59315 0.59855 0.24641 0.0
H1165 H 0.55037 0.69467 0.20531 0.0
C1166 C 0.72951 0.35094 0.37912 0.0
C1167 C 0.76185 0.33371 0.37108 0.0
C1168 C 0.75724 0.31455 0.34356 0.0
C1169 C 0.72254 0.32128 0.3362 0.0
N1170 N 0.70478 0.3439 0.35714 0.0
Co1171 Co 0.65342 0.35972 0.35608 0.0
N1172 N 0.64554 0.32849 0.31809 0.0
C1173 C 0.6695 0.30532 0.30386 0.0
C1174 C 0.65733 0.28929 0.27686 0.0
C1175 C 0.62388 0.30354 0.27318 0.0
C1176 C 0.61743 0.32751 0.2983 0.0
N1177 N 0.60236 0.37634 0.35437 0.0
C1178 C 0.57852 0.37112 0.33101 0.0
C1179 C 0.54643 0.38923 0.33814 0.0
C1180 C 0.55048 0.40753 0.36629 0.0
C1181 C 0.5846 0.39945 0.37477 0.0
N1182 N 0.6609 0.39036 0.39463 0.0
C1183 C 0.6361 0.41147 0.41058 0.0
C1184 C 0.648 0.42737 0.4377 0.0
C1185 C 0.68232 0.41528 0.43971 0.0
C1186 C 0.68955 0.39273 0.41339 0.0
N1187 N 0.66495 0.3965 0.32297 0.0
C1188 C 0.67041 0.44644 0.27095 0.0
C1189 C 0.65521 0.45499 0.30265 0.0
C1190 C 0.65262 0.42985 0.32798 0.0
C1191 C 0.685 0.41286 0.26674 0.0
C1192 C 0.68253 0.38873 0.293 0.0
N1193 N 0.64182 0.3227 0.38918 0.0
C1194 C 0.61268 0.30436 0.44123 0.0
C1195 C 0.6328 0.27305 0.44087 0.0
C1196 C 0.65611 0.26633 0.41335 0.0
C1197 C 0.65985 0.29108 0.38787 0.0
C1198 C 0.61758 0.32863 0.41536 0.0
H1199 H 0.67806 0.28417 0.36772 0.0
H1200 H 0.60201 0.35224 0.41754 0.0
H1201 H 0.63973 0.43779 0.35113 0.0
H1202 H 0.69406 0.36363 0.28803 0.0
C1203 C 0.70482 0.30372 0.3126 0.0
C1204 C 0.72336 0.37275 0.40852 0.0
C1205 C 0.58555 0.35079 0.30079 0.0
C1206 C 0.60144 0.41482 0.40028 0.0
H1207 H 0.78601 0.33423 0.3843 0.0
H1208 H 0.77652 0.29673 0.33126 0.0
H1209 H 0.67187 0.27112 0.26041 0.0
H1210 H 0.60692 0.29803 0.25323 0.0
H1211 H 0.52287 0.38995 0.32386 0.0
H1212 H 0.53128 0.42555 0.37837 0.0
H1213 H 0.63317 0.44488 0.45462 0.0
H1214 H 0.69966 0.42166 0.45904 0.0
H1215 H 0.64481 0.48089 0.30799 0.0
H1216 H 0.69728 0.40461 0.24297 0.0
H1217 H 0.59406 0.31065 0.46195 0.0
H1218 H 0.67159 0.24204 0.4115 0.0
C1219 C 0.89414 0.46582 0.61115 0.0
C1220 C 0.90575 0.49701 0.59955 0.0
C1221 C 0.92978 0.48981 0.57367 0.0
C1222 C 0.93163 0.45477 0.57108 0.0
N1223 N 0.90953 0.43925 0.59325 0.0
Co1224 Co 0.90663 0.38872 0.60157 0.0
N1225 N 0.94571 0.37775 0.56713 0.0
C1226 C 0.96435 0.40011 0.54842 0.0
C1227 C 0.9871 0.38453 0.52473 0.0
C1228 C 0.98186 0.35029 0.5279 0.0
C1229 C 0.95629 0.3471 0.5535 0.0
N1230 N 0.9042 0.33839 0.61052 0.0
C1231 C 0.92098 0.31189 0.59385 0.0
C1232 C 0.91191 0.28048 0.60721 0.0
C1233 C 0.88765 0.28752 0.63295 0.0
C1234 C 0.88342 0.32268 0.63366 0.0
N1235 N 0.86717 0.39928 0.63545 0.0
C1236 C 0.84798 0.37675 0.65339 0.0
C1237 C 0.82254 0.39217 0.67463 0.0
C1238 C 0.82637 0.42653 0.6706 0.0
C1239 C 0.85418 0.42995 0.6472 0.0
N1240 N 0.87172 0.3868 0.56576 0.0
C1241 C 0.82422 0.38159 0.51345 0.0
C1242 C 0.81812 0.36612 0.54504 0.0
C1243 C 0.84197 0.36897 0.57053 0.0
C1244 C 0.85437 0.40009 0.50889 0.0
C1245 C 0.87734 0.4025 0.53506 0.0
N1246 N 0.9416 0.39072 0.63728 0.0
C1247 C 0.95947 0.37873 0.69423 0.0
C1248 C 0.99068 0.39535 0.68815 0.0
C1249 C 0.99679 0.40947 0.65608 0.0
C1250 C 0.97226 0.40687 0.63134 0.0
C1251 C 0.93549 0.37682 0.66874 0.0
H1252 H 0.97871 0.41832 0.60764 0.0
H1253 H 0.91204 0.36424 0.67519 0.0
H1254 H 0.83615 0.35591 0.59366 0.0
H1255 H 0.89973 0.41693 0.52968 0.0
C1256 C 0.95665 0.43557 0.551 0.0
C1257 C 0.87075 0.46203 0.64082 0.0
C1258 C 0.93963 0.3154 0.56156 0.0
C1259 C 0.85704 0.34146 0.65239 0.0
H1260 H 0.89868 0.52221 0.60951 0.0
H1261 H 0.94546 0.50782 0.55965 0.0
H1262 H 0.00389 0.39675 0.50605 0.0
H1263 H 0.99419 0.33021 0.51219 0.0
H1264 H 0.92013 0.25531 0.59766 0.0
H1265 H 0.87311 0.26924 0.64781 0.0
H1266 H 0.80466 0.37987 0.69224 0.0
H1267 H 0.81185 0.44673 0.68468 0.0
H1268 H 0.79499 0.35186 0.55024 0.0
H1269 H 0.86072 0.41234 0.48496 0.0
H1270 H 0.95318 0.36769 0.71874 0.0
H1271 H 0.02071 0.42223 0.6498 0.0
C1272 C 0.14944 0.27436 0.50971 0.0
C1273 C 0.11932 0.29117 0.49628 0.0
H1274 H 0.16972 0.23632 0.54457 0.0
C1275 C 0.08574 0.28191 0.50804 0.0
H1276 H 0.17558 0.28109 0.50114 0.0
C1277 C 0.08238 0.25605 0.53256 0.0
C1278 C 0.11253 0.2395 0.5462 0.0
H1279 H 0.06209 0.29432 0.49786 0.0
H1280 H 0.05626 0.2492 0.54108 0.0
C1281 C 0.14606 0.24897 0.53465 0.0
C1282 C 0.95227 0.88264 0.77495 0.0
C1283 C 0.94418 0.85369 0.75733 0.0
H1284 H 0.98432 0.90279 0.8114 0.0
C1285 C 0.96133 0.82162 0.76489 0.0
H1286 H 0.93925 0.90761 0.76974 0.0
C1287 C 0.98711 0.81882 0.78878 0.0
C1288 C 0.9959 0.84799 0.80571 0.0
H1289 H 0.95577 0.79893 0.75143 0.0
H1290 H 1.00051 0.79397 0.79368 0.0
C1291 C 0.97781 0.87981 0.79897 0.0
C1292 C 0.42542 0.74427 0.06687 0.0
C1293 C 0.39661 0.7666 0.0772 0.0
H1294 H 0.44507 0.70396 0.03392 0.0
C1295 C 0.36451 0.76482 0.0615 0.0
H1296 H 0.4503 0.74475 0.07895 0.0
C1297 C 0.36129 0.74128 0.03583 0.0
C1298 C 0.39003 0.71858 0.02549 0.0
H1299 H 0.34176 0.78145 0.06938 0.0
H1300 H 0.33596 0.74029 0.0247 0.0
C1301 C 0.42222 0.72063 0.04131 0.0
C1302 C 0.46167 0.10293 0.2994 0.0
C1303 C 0.45171 0.13354 0.31624 0.0
H1304 H 0.49484 0.07804 0.26103 0.0
C1305 C 0.46821 0.16346 0.3064 0.0
H1306 H 0.44957 0.07944 0.30681 0.0
C1307 C 0.49413 0.1628 0.2801 0.0
C1308 C 0.50422 0.13215 0.26305 0.0
H1309 H 0.46117 0.1873 0.31923 0.0
H1310 H 0.50601 0.18644 0.27291 0.0
C1311 C 0.48752 0.10223 0.2731 0.0
C1312 C 0.09821 0.7627 0.00785 0.0
C1313 C 0.12473 0.77876 0.98913 0.0
H1314 H 0.08643 0.72472 0.04555 0.0
C1315 C 0.1603 0.77059 0.9959 0.0
H1316 H 0.0707 0.76814 0.00249 0.0
C1317 C 0.16931 0.74534 0.01989 0.0
C1318 C 0.14282 0.7284 0.03775 0.0
H1319 H 0.18111 0.78245 0.9813 0.0
H1320 H 0.1969 0.73787 0.02328 0.0
C1321 C 0.10721 0.73784 0.03219 0.0
C1322 C 0.5737 0.89068 0.22787 0.0
C1323 C 0.57884 0.89338 0.26231 0.0
H1324 H 0.54159 0.87217 0.1903 0.0
C1325 C 0.55602 0.87739 0.28549 0.0
H1326 H 0.58975 0.90402 0.20945 0.0
C1327 C 0.52838 0.85943 0.27464 0.0
C1328 C 0.52282 0.85722 0.24026 0.0
H1329 H 0.5589 0.87965 0.31213 0.0
H1330 H 0.5104 0.84852 0.29317 0.0
C1331 C 0.54611 0.87244 0.21691 0.0
C1332 C 0.32329 0.27631 0.54254 0.0
C1333 C 0.35195 0.28168 0.56229 0.0
H1334 H 0.30345 0.24782 0.50304 0.0
C1335 C 0.3839 0.2621 0.55604 0.0
H1336 H 0.29844 0.29125 0.54671 0.0
C1337 C 0.38704 0.23743 0.53077 0.0
C1338 C 0.35831 0.23176 0.51096 0.0
H1339 H 0.40649 0.26597 0.57076 0.0
H1340 H 0.4122 0.22311 0.52651 0.0
C1341 C 0.32636 0.25163 0.51729 0.0
C1342 C 0.02233 0.08657 0.74832 0.0
C1343 C 0.03092 0.11955 0.73728 0.0
H1344 H 0.98931 0.0567 0.78104 0.0
C1345 C 0.01325 0.14825 0.75277 0.0
H1346 H 0.03522 0.06403 0.7365 0.0
C1347 C 0.98755 0.14403 0.77869 0.0
C1348 C 0.97853 0.11105 0.78933 0.0
H1349 H 0.01876 0.17394 0.74428 0.0
H1350 H 0.97401 0.16658 0.78993 0.0
C1351 C 0.99623 0.08236 0.77386 0.0
C1352 C 0.27024 0.52105 0.15832 0.0
C1353 C 0.25469 0.52781 0.12728 0.0
H1354 H 0.30918 0.4908 0.18545 0.0
C1355 C 0.26679 0.5079 0.09951 0.0
H1356 H 0.2613 0.53552 0.18034 0.0
C1357 C 0.2937 0.48197 0.10273 0.0
C1358 C 0.30905 0.47541 0.13372 0.0
H1359 H 0.25587 0.51269 0.07512 0.0
H1360 H 0.30276 0.46713 0.08095 0.0
C1361 C 0.29731 0.49524 0.16144 0.0
C1362 C 0.77324 0.97918 0.85607 0.0
C1363 C 0.78833 0.99421 0.88309 0.0
H1364 H 0.73767 0.94289 0.84076 0.0
C1365 C 0.77822 0.98451 0.91612 0.0
H1366 H 0.78063 0.98633 0.83043 0.0
C1367 C 0.75329 0.96016 0.92204 0.0
C1368 C 0.7387 0.94475 0.89498 0.0
H1369 H 0.78927 0.99613 0.93734 0.0
H1370 H 0.74582 0.95296 0.94765 0.0
C1371 C 0.74885 0.9544 0.86198 0.0
C1372 C 0.81569 0.05262 0.33622 0.0
C1373 C 0.80812 0.07514 0.36302 0.0
H1374 H 0.79955 0.00983 0.30916 0.0
C1375 C 0.77835 0.07051 0.38433 0.0
H1376 H 0.83859 0.05572 0.31949 0.0
C1377 C 0.75595 0.04448 0.37844 0.0
C1378 C 0.76292 0.0222 0.35122 0.0
H1379 H 0.77224 0.08732 0.40538 0.0
H1380 H 0.7332 0.04168 0.39541 0.0
C1381 C 0.79338 0.02635 0.3304 0.0
C1382 C 0.71923 0.04338 0.11106 0.0
C1383 C 0.71352 0.04887 0.14568 0.0
H1384 H 0.74716 0.0133 0.07278 0.0
C1385 C 0.73549 0.03088 0.16827 0.0
H1386 H 0.70224 0.05665 0.09324 0.0
C1387 C 0.76197 0.00694 0.15644 0.0
C1388 C 0.76619 0.99997 0.12198 0.0
H1389 H 0.73089 0.03381 0.19509 0.0
H1390 H 0.77771 0.99223 0.17437 0.0
C1391 C 0.74505 0.01884 0.09933 0.0
C1392 C 0.18454 0.5109 0.65899 0.0
C1393 C 0.18231 0.53093 0.6295 0.0
H1394 H 0.2122 0.46946 0.68483 0.0
C1395 C 0.20647 0.52377 0.60248 0.0
H1396 H 0.16597 0.51599 0.68003 0.0
C1397 C 0.23275 0.49707 0.60499 0.0
C1398 C 0.23527 0.47691 0.63457 0.0
H1399 H 0.20492 0.53884 0.5794 0.0
H1400 H 0.25083 0.49197 0.5836 0.0
C1401 C 0.21079 0.48416 0.66154 0.0
C1402 C 0.21085 0.49829 0.35007 0.0
C1403 C 0.20394 0.48319 0.38179 0.0
H1404 H 0.24186 0.53272 0.32052 0.0
C1405 C 0.22308 0.49273 0.40893 0.0
H1406 H 0.19671 0.491 0.32865 0.0
C1407 C 0.24903 0.51652 0.40436 0.0
C1408 C 0.25656 0.53131 0.37246 0.0
H1409 H 0.21849 0.48118 0.43355 0.0
H1410 H 0.26333 0.52324 0.42586 0.0
C1411 C 0.2367 0.5222 0.34547 0.0
C1412 C 0.30794 0.51374 0.90372 0.0
C1413 C 0.29259 0.53179 0.93136 0.0
H1414 H 0.29977 0.48149 0.8625 0.0
C1415 C 0.25769 0.5267 0.94191 0.0
H1416 H 0.3351 0.51667 0.89577 0.0
C1417 C 0.23746 0.50628 0.92325 0.0
C1418 C 0.25183 0.49065 0.89369 0.0
H1419 H 0.24566 0.53965 0.96375 0.0
H1420 H 0.21032 0.50326 0.93164 0.0
C1421 C 0.28769 0.49355 0.88479 0.0
C1422 C 0.66457 0.7877 0.03394 0.0
C1423 C 0.65745 0.77455 0.00267 0.0
H1424 H 0.66101 0.78039 0.08704 0.0
C1425 C 0.64953 0.73997 1.00109 0.0
H1426 H 0.67009 0.81441 0.036 0.0
C1427 C 0.64868 0.7192 0.03005 0.0
C1428 C 0.65336 0.73299 0.06168 0.0
H1429 H 0.64281 0.72919 0.97762 0.0
H1430 H 0.64267 0.69263 0.02791 0.0
C1431 C 0.66056 0.76776 0.06327 0.0
C1432 C 0.53924 0.32788 0.26559 0.0
C1433 C 0.56039 0.35456 0.27295 0.0
H1434 H 0.49819 0.31126 0.23609 0.0
C1435 C 0.5557 0.38598 0.25537 0.0
H1436 H 0.54205 0.30354 0.27905 0.0
C1437 C 0.53015 0.39077 0.23113 0.0
C1438 C 0.50852 0.36423 0.22388 0.0
H1439 H 0.57146 0.40709 0.26087 0.0
H1440 H 0.52675 0.41563 0.21873 0.0
C1441 C 0.51378 0.33256 0.24125 0.0
C1442 C 0.95383 0.27032 0.51846 0.0
C1443 C 0.92941 0.29395 0.53413 0.0
H1444 H 0.96229 0.23095 0.48189 0.0
C1445 C 0.89413 0.296 0.52504 0.0
H1446 H 0.9811 0.2682 0.52546 0.0
C1447 C 0.88319 0.27466 0.50064 0.0
C1448 C 0.90742 0.25069 0.48504 0.0
H1449 H 0.87491 0.31384 0.53719 0.0
H1450 H 0.85568 0.27653 0.49444 0.0
C1451 C 0.94292 0.24884 0.49398 0.0
C1452 C 0.93544 0.6899 0.73311 0.0
C1453 C 0.91266 0.66487 0.74401 0.0
H1454 H 0.98128 0.70099 0.70272 0.0
C1455 C 0.91613 0.63229 0.72957 0.0
H1456 H 0.93323 0.71506 0.74425 0.0
C1457 C 0.94376 0.62399 0.70617 0.0
C1458 C 0.96837 0.64817 0.69714 0.0
H1459 H 0.89885 0.61264 0.73803 0.0
H1460 H 0.94714 0.59806 0.69685 0.0
C1461 C 0.96309 0.68163 0.70977 0.0
C1462 C 0.66102 0.23196 0.48249 0.0
C1463 C 0.63025 0.24785 0.46924 0.0
H1464 H 0.68307 0.19636 0.51873 0.0
C1465 C 0.59726 0.23956 0.48334 0.0
H1466 H 0.68683 0.2381 0.47238 0.0
C1467 C 0.59512 0.21554 0.50981 0.0
C1468 C 0.62592 0.19967 0.52306 0.0
H1469 H 0.5731 0.25128 0.47358 0.0
H1470 H 0.56934 0.20961 0.52015 0.0
C1471 C 0.65889 0.2083 0.50922 0.0
C1472 C 0.05937 0.43046 0.7426 0.0
C1473 C 0.06728 0.40256 0.76431 0.0
H1474 H 0.02866 0.45035 0.702 0.0
C1475 C 0.04984 0.37234 0.76119 0.0
H1476 H 0.07265 0.45397 0.74452 0.0
C1477 C 0.02472 0.37009 0.73682 0.0
C1478 C 0.01673 0.39797 0.71483 0.0
H1479 H 0.05575 0.35043 0.7776 0.0
H1480 H 0.01207 0.34627 0.73478 0.0
C1481 C 0.03437 0.42823 0.71815 0.0
C1482 C 0.78968 0.76731 0.95604 0.0
C1483 C 0.82054 0.76096 0.93583 0.0
H1484 H 0.76458 0.79634 0.99668 0.0
C1485 C 0.8495 0.78061 0.93957 0.0
H1486 H 0.76734 0.75197 0.95361 0.0
C1487 C 0.84795 0.80589 0.96374 0.0
C1488 C 0.81757 0.8116 0.98484 0.0
H1489 H 0.87353 0.77594 0.92416 0.0
H1490 H 0.87109 0.82003 0.96682 0.0
C1491 C 0.78825 0.79237 0.98064 0.0
C1492 C 0.48091 0.6581 0.28045 0.0
C1493 C 0.46843 0.62507 0.27997 0.0
H1494 H 0.52211 0.69063 0.26445 0.0
C1495 C 0.48739 0.5995 0.26129 0.0
H1496 H 0.46635 0.67824 0.29452 0.0
C1497 C 0.51908 0.60642 0.24429 0.0
C1498 C 0.53237 0.63916 0.24547 0.0
H1499 H 0.47779 0.57409 0.26008 0.0
H1500 H 0.53317 0.58608 0.23001 0.0
C1501 C 0.51265 0.66516 0.26326 0.0
C1502 C 0.73441 0.9589 0.66545 0.0
C1503 C 0.75391 0.94375 0.63825 0.0
H1504 H 0.69472 0.99767 0.68132 0.0
C1505 C 0.74666 0.95502 0.60542 0.0
H1506 H 0.74018 0.95126 0.69098 0.0
C1507 C 0.72143 0.98207 0.59994 0.0
C1508 C 0.70257 0.99781 0.62718 0.0
H1509 H 0.76186 0.94402 0.58413 0.0
H1510 H 0.71782 0.99169 0.57458 0.0
C1511 C 0.70871 0.98554 0.65993 0.0
C1512 C 0.06783 0.54636 0.22499 0.0
C1513 C 0.0994 0.5561 0.20924 0.0
H1514 H 0.04325 0.51157 0.25931 0.0
C1515 C 0.13129 0.53786 0.21645 0.0
H1516 H 0.04301 0.56029 0.21976 0.0
C1517 C 0.13166 0.51032 0.2394 0.0
C1518 C 0.10008 0.50052 0.2555 0.0
H1519 H 0.15593 0.54519 0.20453 0.0
H1520 H 0.1568 0.49737 0.24522 0.0
C1521 C 0.06811 0.51865 0.24771 0.0
C1522 C 0.7634 0.8975 0.48344 0.0
C1523 C 0.76764 0.86549 0.50019 0.0
H1524 H 0.73865 0.92667 0.4438 0.0
C1525 C 0.74871 0.8382 0.48964 0.0
H1526 H 0.77686 0.91932 0.49128 0.0
C1527 C 0.72596 0.84289 0.46324 0.0
C1528 C 0.72238 0.87466 0.44638 0.0
H1529 H 0.75165 0.81305 0.50153 0.0
H1530 H 0.71161 0.82157 0.45556 0.0
C1531 C 0.74118 0.90194 0.45661 0.0
C1532 C 0.37753 0.46125 0.80868 0.0
C1533 C 0.36693 0.49581 0.80114 0.0
H1534 H 0.38582 0.40956 0.79101 0.0
C1535 C 0.35451 0.50362 0.76891 0.0
H1536 H 0.38654 0.4538 0.83329 0.0
C1537 C 0.35333 0.47789 0.74495 0.0
C1538 C 0.36464 0.44366 0.75244 0.0
H1539 H 0.34648 0.52978 0.76177 0.0
H1540 H 0.34407 0.48482 0.72028 0.0
C1541 C 0.37671 0.43566 0.78459 0.0
C1542 C 0.77285 0.102 0.9815 0.0
C1543 C 0.78918 0.13205 0.97166 0.0
H1544 H 0.73371 0.07919 0.01362 0.0
C1545 C 0.7775 0.16302 0.98703 0.0
H1546 H 0.78156 0.07776 0.9701 0.0
C1547 C 0.74983 0.16405 0.01157 0.0
C1548 C 0.73331 0.13402 0.02166 0.0
H1549 H 0.78976 0.1865 0.97994 0.0
H1550 H 0.74122 0.18855 0.02244 0.0
C1551 C 0.74525 0.10295 0.00621 0.0
C1552 C 0.2536 0.06487 0.50922 0.0
C1553 C 0.26607 0.09556 0.49573 0.0
H1554 H 0.22158 0.04113 0.54768 0.0
C1555 C 0.2533 0.12675 0.51029 0.0
H1556 H 0.26225 0.04049 0.49809 0.0
C1557 C 0.22853 0.12724 0.53753 0.0
C1558 C 0.21659 0.09648 0.55142 0.0
H1559 H 0.2623 0.15083 0.50035 0.0
H1560 H 0.21867 0.15169 0.54782 0.0
C1561 C 0.22994 0.06526 0.5373 0.0
C1562 C 0.11001 0.97229 0.75425 0.0
C1563 C 0.1412 0.98691 0.74244 0.0
H1564 H 0.08594 0.93885 0.7907 0.0
C1565 C 0.17279 0.97747 0.7584 0.0
H1566 H 0.0851 0.97934 0.74304 0.0
C1567 C 0.17293 0.9551 0.78618 0.0
C1568 C 0.14171 0.94101 0.79808 0.0
H1569 H 0.19743 0.98769 0.74973 0.0
H1570 H 0.19739 0.94894 0.79855 0.0
C1571 C 0.11033 0.94945 0.78174 0.0
C1572 C 0.26967 0.83899 0.04252 0.0
C1573 C 0.28169 0.86966 0.05415 0.0
H1574 H 0.24059 0.81523 0.00578 0.0
C1575 C 0.27404 0.90039 0.03615 0.0
H1576 H 0.27565 0.8148 0.05549 0.0
C1577 C 0.25466 0.90051 0.00731 0.0
C1578 C 0.24231 0.86995 0.99586 0.0
H1579 H 0.28276 0.92447 0.04453 0.0
H1580 H 0.24924 0.92463 0.99402 0.0
C1581 C 0.25017 0.83914 0.01368 0.0
C1582 C 0.33708 0.00589 0.26541 0.0
C1583 C 0.3497 0.99681 0.2974 0.0
H1584 H 0.32827 0.98965 0.21541 0.0
C1585 C 0.36271 0.96251 0.30272 0.0
H1586 H 0.32743 0.03196 0.25971 0.0
C1587 C 0.36392 0.93856 0.27688 0.0
C1588 C 0.35158 0.94785 0.24503 0.0
H1589 H 0.37202 0.95392 0.3269 0.0
H1590 H 0.37491 0.91271 0.28173 0.0
C1591 C 0.33775 0.98169 0.23974 0.0
C1592 C 0.51459 0.24425 0.13353 0.0
C1593 C 0.53232 0.22806 0.10587 0.0
H1594 H 0.47462 0.28218 0.15041 0.0
C1595 C 0.52251 0.23771 0.07332 0.0
H1596 H 0.52164 0.23716 0.15888 0.0
C1597 C 0.49443 0.26208 0.06858 0.0
C1598 C 0.47722 0.27877 0.09619 0.0
H1599 H 0.53605 0.22578 0.05161 0.0
H1600 H 0.48612 0.26778 0.04335 0.0
C1601 C 0.48764 0.26973 0.12871 0.0
C1602 C 0.9944 0.24807 0.85308 0.0
C1603 C 0.98022 0.23849 0.88481 0.0
H1604 H 0.03217 0.27719 0.82556 0.0
C1605 C 0.99363 0.25173 0.91371 0.0
H1606 H 0.98489 0.23786 0.83041 0.0
C1607 C 0.02089 0.27395 0.91094 0.0
C1608 C 0.03539 0.28316 0.87924 0.0
H1609 H 0.9831 0.24483 0.93846 0.0
H1610 H 0.03098 0.28351 0.93365 0.0
C1611 C 0.02179 0.27013 0.85033 0.0
C1612 C 0.99371 0.7762 0.14493 0.0
C1613 C 0.00375 0.75542 0.11714 0.0
H1614 H 0.96067 0.81876 0.16415 0.0
C1615 C 0.98686 0.76244 0.08679 0.0
H1616 H 0.00539 0.77141 0.16895 0.0
C1617 C 0.96038 0.78901 0.08453 0.0
C1618 C 0.95071 0.80963 0.11229 0.0
H1619 H 0.99422 0.74766 0.06459 0.0
H1620 H 0.94739 0.79347 0.06108 0.0
C1621 C 0.96785 0.80322 0.14237 0.0
C1622 C 0.50603 0.75654 0.32776 0.0
C1623 C 0.49132 0.74601 0.35905 0.0
H1624 H 0.54445 0.78626 0.30145 0.0
C1625 C 0.50523 0.75787 0.38838 0.0
H1626 H 0.49621 0.74756 0.30468 0.0
C1627 C 0.53266 0.78011 0.38654 0.0
C1628 C 0.54733 0.79082 0.35531 0.0
H1629 H 0.49449 0.75037 0.41288 0.0
H1630 H 0.54248 0.7889 0.40969 0.0
C1631 C 0.53392 0.77842 0.32591 0.0
C1632 C 0.99453 0.72668 0.61969 0.0
C1633 C 0.01029 0.72302 0.58727 0.0
H1634 H 0.95399 0.75279 0.65076 0.0
C1635 C 0.9957 0.74218 0.56054 0.0
H1636 H 0.00551 0.7123 0.64071 0.0
C1637 C 0.96547 0.76415 0.56603 0.0
C1638 C 0.9504 0.76868 0.59861 0.0
H1639 H 0.00799 0.74062 0.53552 0.0
H1640 H 0.9546 0.77866 0.54502 0.0
C1641 C 0.96503 0.74957 0.62538 0.0
C1642 C 0.01158 0.30418 0.32523 0.0
C1643 C 0.02263 0.31314 0.35684 0.0
H1644 H 0.98214 0.27027 0.29749 0.0
C1645 C 0.00961 0.29577 0.38556 0.0
H1646 H 0.02111 0.31726 0.30272 0.0
C1647 C 0.98644 0.26963 0.38265 0.0
C1648 C 0.97624 0.25999 0.35092 0.0
H1649 H 0.01777 0.30211 0.41021 0.0
H1650 H 0.97688 0.25653 0.40515 0.0
C1651 C 0.98918 0.27747 0.32225 0.0
C1652 C 0.46522 0.70144 0.90491 0.0
C1653 C 0.46454 0.68398 0.87467 0.0
H1654 H 0.48775 0.74101 0.93128 0.0
C1655 C 0.48505 0.69424 0.84661 0.0
H1656 H 0.44921 0.69388 0.92668 0.0
C1657 C 0.507 0.72128 0.84912 0.0
C1658 C 0.50871 0.73801 0.8798 0.0
H1659 H 0.48462 0.6809 0.82312 0.0
H1660 H 0.52364 0.72815 0.82756 0.0
C1661 C 0.48713 0.72827 0.90746 0.0
C1662 C 0.58667 0.92865 0.78443 0.0
C1663 C 0.61684 0.92204 0.80303 0.0
H1664 H 0.56042 0.96086 0.74832 0.0
C1665 C 0.646 0.94165 0.79649 0.0
H1666 H 0.56397 0.91359 0.78898 0.0
C1667 C 0.64449 0.96837 0.77243 0.0
C1668 C 0.61363 0.97616 0.75468 0.0
H1669 H 0.66966 0.9367 0.81043 0.0
H1670 H 0.66755 0.98287 0.76782 0.0
C1671 C 0.58485 0.95565 0.76092 0.0
C1672 C 0.24903 0.40317 0.9553 0.0
C1673 C 0.23008 0.37391 0.95182 0.0
H1674 H 0.28835 0.427 0.98176 0.0
C1675 C 0.23731 0.34524 0.97275 0.0
H1676 H 0.24372 0.42568 0.93953 0.0
C1677 C 0.26316 0.34567 0.99658 0.0
C1678 C 0.28215 0.37502 1.00047 0.0
H1679 H 0.22291 0.32245 0.97062 0.0
H1680 H 0.26836 0.32281 0.01185 0.0
C1681 C 0.27478 0.40376 0.97933 0.0
C1682 C 0.8943 0.03271 0.26091 0.0
C1683 C 0.892 0.06557 0.24572 0.0
H1684 H 0.8925 0.97853 0.25416 0.0
C1685 C 0.88495 0.06908 0.21163 0.0
H1686 H 0.89918 0.02954 0.28739 0.0
C1687 C 0.88146 0.03999 0.1927 0.0
C1688 C 0.88442 0.00708 0.20774 0.0
H1689 H 0.88292 0.09418 0.19952 0.0
H1690 H 0.87647 0.04316 0.16625 0.0
C1691 C 0.89025 0.00366 0.2421 0.0
C1692 C 0.23754 0.68403 0.48843 0.0
C1693 C 0.2233 0.65174 0.49228 0.0
H1694 H 0.27785 0.7133 0.46474 0.0
C1695 C 0.23834 0.62426 0.47301 0.0
H1696 H 0.22628 0.70587 0.50248 0.0
C1697 C 0.26747 0.62881 0.45107 0.0
C1698 C 0.28197 0.66087 0.448 0.0
H1699 H 0.22835 0.59899 0.47563 0.0
H1700 H 0.27909 0.60718 0.43687 0.0
C1701 C 0.26678 0.68847 0.46667 0.0
C1702 C 0.75033 0.6422 0.9867 0.0
C1703 C 0.72882 0.61655 0.99936 0.0
H1704 H 0.78267 0.6598 0.94508 0.0
C1705 C 0.72306 0.5888 0.97878 0.0
H1706 H 0.75482 0.66415 0.0017 0.0
C1707 C 0.73865 0.58662 0.94639 0.0
C1708 C 0.76017 0.61215 0.93407 0.0
H1709 H 0.70691 0.56847 0.98791 0.0
H1710 H 0.73439 0.56479 0.93114 0.0
C1711 C 0.76591 0.63997 0.9543 0.0
C1712 C 0.64233 0.49757 0.24033 0.0
C1713 C 0.6702 0.47209 0.2425 0.0
H1714 H 0.62109 0.5422 0.21445 0.0
C1715 C 0.69742 0.47135 0.21715 0.0
H1716 H 0.62022 0.49852 0.25848 0.0
C1717 C 0.69708 0.49587 0.19095 0.0
C1718 C 0.67006 0.52215 0.18996 0.0
H1719 H 0.71953 0.45241 0.21786 0.0
H1720 H 0.71856 0.49504 0.17208 0.0
C1721 C 0.64247 0.52242 0.21467 0.0
C1722 C 0.79212 0.40662 0.46341 0.0
C1723 C 0.79936 0.37872 0.48563 0.0
H1724 H 0.76283 0.42638 0.42157 0.0
C1725 C 0.78248 0.34823 0.48104 0.0
H1726 H 0.80417 0.43065 0.46621 0.0
C1727 C 0.75855 0.34601 0.45552 0.0
C1728 C 0.75094 0.37417 0.43397 0.0
H1729 H 0.7878 0.32597 0.49712 0.0
H1730 H 0.74551 0.32246 0.45294 0.0
C1731 C 0.76832 0.40431 0.43787 0.0
C1732 C 0.84525 0.54091 0.692 0.0
C1733 C 0.85729 0.5304 0.72373 0.0
H1734 H 0.83983 0.52724 0.64073 0.0
C1735 C 0.87627 0.49839 0.72692 0.0
H1736 H 0.83123 0.5657 0.68841 0.0
C1737 C 0.88222 0.47712 0.69932 0.0
C1738 C 0.86899 0.4872 0.66812 0.0
H1739 H 0.88558 0.48918 0.75093 0.0
H1740 H 0.89609 0.45217 0.70258 0.0
C1741 C 0.8507 0.5193 0.66451 0.0
C1742 C 0.51441 0.20233 0.64171 0.0
C1743 C 0.51997 0.18229 0.6708 0.0
H1744 H 0.48694 0.24618 0.61966 0.0
C1745 C 0.5015 0.19166 0.70087 0.0
H1746 H 0.52832 0.19537 0.61823 0.0
C1747 C 0.47802 0.22093 0.7019 0.0
C1748 C 0.47254 0.24134 0.67282 0.0
H1749 H 0.50543 0.17642 0.72356 0.0
H1750 H 0.46448 0.22778 0.72555 0.0
C1751 C 0.49098 0.23154 0.64269 0.0
loop_
_geom_bond_atom_site_label_1
_geom_bond_atom_site_label_2
_geom_bond_distance
_geom_bond_site_symmetry_2
_ccdc_geom_bond_type
C0 C1 1.443 1_455 S
C0 N4 1.376 . S
C0 C38 1.389 . S
C1 C0 1.443 1_655 S
C1 C2 1.340 . S
C1 H41 0.951 . S
C2 C1 1.340 . S
C2 C3 1.439 1_655 S
C2 H42 0.950 . S
C3 C2 1.439 1_455 S
C3 N4 1.374 . S
C3 C37 1.395 . S
N4 C0 1.376 . S
N4 C3 1.374 . S
N4 Co5 2.008 . S
Co5 N4 2.008 . S
Co5 N6 1.995 . S
Co5 N11 2.008 . S
Co5 N16 1.995 . S
Co5 N21 2.282 . S
Co5 N27 2.282 . S
N6 Co5 1.995 . S
N6 C7 1.376 . S
N6 C10 1.383 . S
C7 N6 1.376 . S
C7 C8 1.446 . S
C7 C37 1.391 . S
C8 C7 1.446 . S
C8 C9 1.339 . S
C8 H43 0.949 . S
C9 C8 1.339 . S
C9 C10 1.439 . S
C9 H44 0.950 . S
C10 N6 1.383 . S
C10 C9 1.439 . S
C10 C39 1.392 . S
N11 Co5 2.008 . S
N11 C12 1.376 . S
N11 C15 1.374 . S
C12 N11 1.376 . S
C12 C13 1.443 . S
C12 C39 1.389 . S
C13 C12 1.443 . S
C13 C14 1.340 . S
C13 H45 0.951 . S
C14 C13 1.340 . S
C14 C15 1.439 . S
C14 H46 0.950 . S
C15 N11 1.374 . S
C15 C14 1.439 . S
C15 C40 1.395 . S
N16 Co5 1.995 . S
N16 C17 1.376 . S
N16 C20 1.383 . S
C17 N16 1.376 . S
C17 C18 1.446 . S
C17 C40 1.391 . S
C18 C17 1.446 . S
C18 C19 1.339 . S
C18 H47 0.949 . S
C19 C18 1.339 . S
C19 C20 1.439 . S
C19 H48 0.950 . S
C20 N16 1.383 . S
C20 C19 1.439 . S
C20 C38 1.392 . S
N21 Co5 2.282 . S
N21 C24 1.332 . S
N21 C26 1.332 . S
C22 C23 1.386 . S
C22 C25 1.388 . S
C23 C22 1.386 . S
C23 C24 1.382 . S
C23 H49 0.950 . S
C24 N21 1.332 . S
C24 C23 1.382 . S
C24 H35 0.952 . S
C25 C22 1.388 . S
C25 C26 1.382 . S
C25 H50 0.950 . S
C26 N21 1.332 . S
C26 C25 1.382 . S
C26 H36 0.948 . S
N27 Co5 2.282 . S
N27 C31 1.332 . S
N27 C32 1.332 . S
C28 C29 1.388 . S
C28 C32 1.382 . S
C28 H51 0.950 . S
C29 C28 1.388 . S
C29 C30 1.386 . S
C30 C29 1.386 . S
C30 C31 1.382 . S
C30 H52 0.950 . S
C31 N27 1.332 . S
C31 C30 1.382 . S
C31 H33 0.952 . S
C32 N27 1.332 . S
C32 C28 1.382 . S
C32 H34 0.948 . S
H33 C31 0.952 . S
H34 C32 0.948 . S
H35 C24 0.952 . S
H36 C26 0.948 . S
C37 C3 1.395 . S
C37 C7 1.391 . S
C38 C0 1.389 . S
C38 C20 1.392 . S
C39 C10 1.392 . S
C39 C12 1.389 . S
C40 C15 1.395 . S
C40 C17 1.391 . S
H41 C1 0.951 . S
H42 C2 0.950 . S
H43 C8 0.949 . S
H44 C9 0.950 . S
H45 C13 0.951 . S
H46 C14 0.950 . S
H47 C18 0.949 . S
H48 C19 0.950 . S
H49 C23 0.950 . S
H50 C25 0.950 . S
H51 C28 0.950 . S
H52 C30 0.950 . S
C53 C54 1.443 . S
C53 N57 1.376 . S
C53 C91 1.389 . S
C54 C53 1.443 . S
C54 C55 1.340 . S
C54 H94 0.951 . S
C55 C54 1.340 . S
C55 C56 1.439 . S
C55 H95 0.950 . S
C56 C55 1.439 . S
C56 N57 1.374 . S
C56 C90 1.395 . S
N57 C53 1.376 . S
N57 C56 1.374 . S
N57 Co58 2.008 . S
Co58 N57 2.008 . S
Co58 N59 1.995 . S
Co58 N64 2.008 . S
Co58 N69 1.995 . S
Co58 N74 2.282 . S
Co58 N80 2.282 . S
N59 Co58 1.995 . S
N59 C60 1.376 . S
N59 C63 1.383 . S
C60 N59 1.376 . S
C60 C61 1.446 . S
C60 C90 1.391 . S
C61 C60 1.446 . S
C61 C62 1.339 . S
C61 H96 0.949 . S
C62 C61 1.339 . S
C62 C63 1.439 . S
C62 H97 0.950 . S
C63 N59 1.383 . S
C63 C62 1.439 . S
C63 C92 1.392 . S
N64 Co58 2.008 . S
N64 C65 1.376 . S
N64 C68 1.374 . S
C65 N64 1.376 . S
C65 C66 1.443 . S
C65 C92 1.389 . S
C66 C65 1.443 . S
C66 C67 1.340 . S
C66 H98 0.951 . S
C67 C66 1.340 . S
C67 C68 1.439 . S
C67 H99 0.950 . S
C68 N64 1.374 . S
C68 C67 1.439 . S
C68 C93 1.395 . S
N69 Co58 1.995 . S
N69 C70 1.376 . S
N69 C73 1.383 . S
C70 N69 1.376 . S
C70 C71 1.446 . S
C70 C93 1.391 . S
C71 C70 1.446 . S
C71 C72 1.339 . S
C71 H100 0.949 . S
C72 C71 1.339 . S
C72 C73 1.439 . S
C72 H101 0.950 . S
C73 N69 1.383 . S
C73 C72 1.439 . S
C73 C91 1.392 . S
N74 Co58 2.282 . S
N74 C77 1.332 . S
N74 C79 1.332 . S
C75 C76 1.386 . S
C75 C78 1.388 . S
C76 C75 1.386 . S
C76 C77 1.382 . S
C76 H102 0.950 . S
C77 N74 1.332 . S
C77 C76 1.382 . S
C77 H88 0.952 . S
C78 C75 1.388 . S
C78 C79 1.382 . S
C78 H103 0.950 . S
C79 N74 1.332 . S
C79 C78 1.382 . S
C79 H89 0.948 . S
N80 Co58 2.282 . S
N80 C84 1.332 . S
N80 C85 1.332 . S
C81 C82 1.388 . S
C81 C85 1.382 . S
C81 H104 0.950 . S
C82 C81 1.388 . S
C82 C83 1.386 . S
C83 C82 1.386 . S
C83 C84 1.382 . S
C83 H105 0.950 . S
C84 N80 1.332 . S
C84 C83 1.382 . S
C84 H86 0.952 . S
C85 N80 1.332 . S
C85 C81 1.382 . S
C85 H87 0.948 . S
H86 C84 0.952 . S
H87 C85 0.948 . S
H88 C77 0.952 . S
H89 C79 0.948 . S
C90 C56 1.395 . S
C90 C60 1.391 . S
C91 C53 1.389 . S
C91 C73 1.392 . S
C92 C63 1.392 . S
C92 C65 1.389 . S
C93 C68 1.395 . S
C93 C70 1.391 . S
H94 C54 0.951 . S
H95 C55 0.950 . S
H96 C61 0.949 . S
H97 C62 0.950 . S
H98 C66 0.951 . S
H99 C67 0.950 . S
H100 C71 0.949 . S
H101 C72 0.950 . S
H102 C76 0.950 . S
H103 C78 0.950 . S
H104 C81 0.950 . S
H105 C83 0.950 . S
C106 C107 1.443 . S
C106 N110 1.376 . S
C106 C144 1.389 . S
C107 C106 1.443 . S
C107 C108 1.340 . S
C107 H147 0.951 . S
C108 C107 1.340 . S
C108 C109 1.439 . S
C108 H148 0.950 . S
C109 C108 1.439 . S
C109 N110 1.374 . S
C109 C143 1.395 . S
N110 C106 1.376 . S
N110 C109 1.374 . S
N110 Co111 2.008 . S
Co111 N110 2.008 . S
Co111 N112 1.995 . S
Co111 N117 2.008 . S
Co111 N122 1.995 . S
Co111 N127 2.282 . S
Co111 N133 2.282 . S
N112 Co111 1.995 . S
N112 C113 1.376 . S
N112 C116 1.383 . S
C113 N112 1.376 . S
C113 C114 1.446 . S
C113 C143 1.391 . S
C114 C113 1.446 . S
C114 C115 1.339 . S
C114 H149 0.949 . S
C115 C114 1.339 . S
C115 C116 1.439 . S
C115 H150 0.950 . S
C116 N112 1.383 . S
C116 C115 1.439 . S
C116 C145 1.392 . S
N117 Co111 2.008 . S
N117 C118 1.376 . S
N117 C121 1.374 . S
C118 N117 1.376 . S
C118 C119 1.443 . S
C118 C145 1.389 . S
C119 C118 1.443 . S
C119 C120 1.340 . S
C119 H151 0.951 . S
C120 C119 1.340 . S
C120 C121 1.439 . S
C120 H152 0.950 . S
C121 N117 1.374 . S
C121 C120 1.439 . S
C121 C146 1.395 . S
N122 Co111 1.995 . S
N122 C123 1.376 . S
N122 C126 1.383 . S
C123 N122 1.376 . S
C123 C124 1.446 . S
C123 C146 1.391 . S
C124 C123 1.446 . S
C124 C125 1.339 . S
C124 H153 0.949 . S
C125 C124 1.339 . S
C125 C126 1.439 . S
C125 H154 0.950 . S
C126 N122 1.383 . S
C126 C125 1.439 . S
C126 C144 1.392 . S
N127 Co111 2.282 . S
N127 C130 1.332 . S
N127 C132 1.332 . S
C128 C129 1.386 . S
C128 C131 1.388 . S
C129 C128 1.386 . S
C129 C130 1.382 . S
C129 H155 0.950 . S
C130 N127 1.332 . S
C130 C129 1.382 . S
C130 H141 0.952 . S
C131 C128 1.388 . S
C131 C132 1.382 . S
C131 H156 0.950 . S
C132 N127 1.332 . S
C132 C131 1.382 . S
C132 H142 0.948 . S
N133 Co111 2.282 . S
N133 C137 1.332 . S
N133 C138 1.332 . S
C134 C135 1.388 . S
C134 C138 1.382 . S
C134 H157 0.950 . S
C135 C134 1.388 . S
C135 C136 1.386 . S
C136 C135 1.386 . S
C136 C137 1.382 . S
C136 H158 0.950 1_556 S
C137 N133 1.332 . S
C137 C136 1.382 . S
C137 H139 0.952 . S
C138 N133 1.332 . S
C138 C134 1.382 . S
C138 H140 0.948 . S
H139 C137 0.952 . S
H140 C138 0.948 . S
H141 C130 0.952 . S
H142 C132 0.948 . S
C143 C109 1.395 . S
C143 C113 1.391 . S
C144 C106 1.389 . S
C144 C126 1.392 . S
C145 C116 1.392 . S
C145 C118 1.389 . S
C146 C121 1.395 . S
C146 C123 1.391 . S
H147 C107 0.951 . S
H148 C108 0.950 . S
H149 C114 0.949 . S
H150 C115 0.950 . S
H151 C119 0.951 . S
H152 C120 0.950 . S
H153 C124 0.949 . S
H154 C125 0.950 . S
H155 C129 0.950 . S
H156 C131 0.950 . S
H157 C134 0.950 . S
H158 C136 0.950 1_554 S
C159 C160 1.443 . S
C159 N163 1.376 . S
C159 C197 1.389 . S
C160 C159 1.443 . S
C160 C161 1.340 . S
C160 H200 0.951 . S
C161 C160 1.340 . S
C161 C162 1.439 . S
C161 H201 0.950 . S
C162 C161 1.439 . S
C162 N163 1.374 . S
C162 C196 1.395 . S
N163 C159 1.376 . S
N163 C162 1.374 . S
N163 Co164 2.008 . S
Co164 N163 2.008 . S
Co164 N165 1.995 . S
Co164 N170 2.008 . S
Co164 N175 1.995 . S
Co164 N180 2.282 . S
Co164 N186 2.282 . S
N165 Co164 1.995 . S
N165 C166 1.376 . S
N165 C169 1.383 . S
C166 N165 1.376 . S
C166 C167 1.446 . S
C166 C196 1.391 . S
C167 C166 1.446 . S
C167 C168 1.339 . S
C167 H202 0.949 . S
C168 C167 1.339 . S
C168 C169 1.439 . S
C168 H203 0.950 . S
C169 N165 1.383 . S
C169 C168 1.439 . S
C169 C198 1.392 . S
N170 Co164 2.008 . S
N170 C171 1.376 . S
N170 C174 1.374 . S
C171 N170 1.376 . S
C171 C172 1.443 . S
C171 C198 1.389 . S
C172 C171 1.443 . S
C172 C173 1.340 . S
C172 H204 0.951 . S
C173 C172 1.340 . S
C173 C174 1.439 . S
C173 H205 0.950 . S
C174 N170 1.374 . S
C174 C173 1.439 . S
C174 C199 1.395 . S
N175 Co164 1.995 . S
N175 C176 1.376 . S
N175 C179 1.383 . S
C176 N175 1.376 . S
C176 C177 1.446 . S
C176 C199 1.391 . S
C177 C176 1.446 . S
C177 C178 1.339 . S
C177 H206 0.949 . S
C178 C177 1.339 . S
C178 C179 1.439 . S
C178 H207 0.950 . S
C179 N175 1.383 . S
C179 C178 1.439 . S
C179 C197 1.392 . S
N180 Co164 2.282 . S
N180 C183 1.332 . S
N180 C185 1.332 . S
C181 C182 1.386 . S
C181 C184 1.388 . S
C182 C181 1.386 . S
C182 C183 1.382 . S
C182 H208 0.950 . S
C183 N180 1.332 . S
C183 C182 1.382 . S
C183 H194 0.952 . S
C184 C181 1.388 . S
C184 C185 1.382 . S
C184 H209 0.950 . S
C185 N180 1.332 . S
C185 C184 1.382 . S
C185 H195 0.948 . S
N186 Co164 2.282 . S
N186 C190 1.332 . S
N186 C191 1.332 . S
C187 C188 1.388 . S
C187 C191 1.382 . S
C187 H210 0.950 . S
C188 C187 1.388 . S
C188 C189 1.386 . S
C189 C188 1.386 . S
C189 C190 1.382 . S
C189 H211 0.950 . S
C190 N186 1.332 . S
C190 C189 1.382 . S
C190 H192 0.952 . S
C191 N186 1.332 . S
C191 C187 1.382 . S
C191 H193 0.948 . S
H192 C190 0.952 . S
H193 C191 0.948 . S
H194 C183 0.952 . S
H195 C185 0.948 . S
C196 C162 1.395 . S
C196 C166 1.391 . S
C197 C159 1.389 . S
C197 C179 1.392 . S
C198 C169 1.392 . S
C198 C171 1.389 . S
C199 C174 1.395 . S
C199 C176 1.391 . S
H200 C160 0.951 . S
H201 C161 0.950 . S
H202 C167 0.949 . S
H203 C168 0.950 . S
H204 C172 0.951 . S
H205 C173 0.950 . S
H206 C177 0.949 . S
H207 C178 0.950 . S
H208 C182 0.950 . S
H209 C184 0.950 . S
H210 C187 0.950 . S
H211 C189 0.950 . S
C212 C213 1.443 . S
C212 N216 1.376 . S
C212 C250 1.389 . S
C213 C212 1.443 . S
C213 C214 1.340 . S
C213 H253 0.951 . S
C214 C213 1.340 . S
C214 C215 1.439 . S
C214 H254 0.950 . S
C215 C214 1.439 . S
C215 N216 1.374 . S
C215 C249 1.395 . S
N216 C212 1.376 . S
N216 C215 1.374 . S
N216 Co217 2.008 . S
Co217 N216 2.008 . S
Co217 N218 1.995 . S
Co217 N223 2.008 . S
Co217 N228 1.995 . S
Co217 N233 2.282 . S
Co217 N239 2.282 . S
N218 Co217 1.995 . S
N218 C219 1.376 . S
N218 C222 1.383 . S
C219 N218 1.376 . S
C219 C220 1.446 . S
C219 C249 1.391 . S
C220 C219 1.446 . S
C220 C221 1.339 . S
C220 H255 0.949 . S
C221 C220 1.339 . S
C221 C222 1.439 . S
C221 H256 0.950 . S
C222 N218 1.383 . S
C222 C221 1.439 . S
C222 C251 1.392 . S
N223 Co217 2.008 . S
N223 C224 1.376 . S
N223 C227 1.374 . S
C224 N223 1.376 . S
C224 C225 1.443 . S
C224 C251 1.389 . S
C225 C224 1.443 . S
C225 C226 1.340 . S
C225 H257 0.951 1_554 S
C226 C225 1.340 . S
C226 C227 1.439 . S
C226 H258 0.950 . S
C227 N223 1.374 . S
C227 C226 1.439 . S
C227 C252 1.395 . S
N228 Co217 1.995 . S
N228 C229 1.376 . S
N228 C232 1.383 . S
C229 N228 1.376 . S
C229 C230 1.446 . S
C229 C252 1.391 . S
C230 C229 1.446 . S
C230 C231 1.339 . S
C230 H259 0.949 . S
C231 C230 1.339 . S
C231 C232 1.439 . S
C231 H260 0.950 . S
C232 N228 1.383 . S
C232 C231 1.439 . S
C232 C250 1.392 . S
N233 Co217 2.282 . S
N233 C236 1.332 . S
N233 C238 1.332 . S
C234 C235 1.386 . S
C234 C237 1.388 . S
C235 C234 1.386 . S
C235 C236 1.382 . S
C235 H261 0.950 1_455 S
C236 N233 1.332 . S
C236 C235 1.382 . S
C236 H247 0.952 . S
C237 C234 1.388 . S
C237 C238 1.382 . S
C237 H262 0.950 . S
C238 N233 1.332 . S
C238 C237 1.382 . S
C238 H248 0.948 . S
N239 Co217 2.282 . S
N239 C243 1.332 . S
N239 C244 1.332 . S
C240 C241 1.388 . S
C240 C244 1.382 . S
C240 H263 0.950 . S
C241 C240 1.388 . S
C241 C242 1.386 . S
C242 C241 1.386 . S
C242 C243 1.382 . S
C242 H264 0.950 . S
C243 N239 1.332 . S
C243 C242 1.382 . S
C243 H245 0.952 . S
C244 N239 1.332 . S
C244 C240 1.382 . S
C244 H246 0.948 . S
H245 C243 0.952 . S
H246 C244 0.948 . S
H247 C236 0.952 . S
H248 C238 0.948 . S
C249 C215 1.395 . S
C249 C219 1.391 . S
C250 C212 1.389 . S
C250 C232 1.392 . S
C251 C222 1.392 . S
C251 C224 1.389 . S
C252 C227 1.395 . S
C252 C229 1.391 . S
H253 C213 0.951 . S
H254 C214 0.950 . S
H255 C220 0.949 . S
H256 C221 0.950 . S
H257 C225 0.951 1_556 S
H258 C226 0.950 . S
H259 C230 0.949 . S
H260 C231 0.950 . S
H261 C235 0.950 1_655 S
H262 C237 0.950 . S
H263 C240 0.950 . S
H264 C242 0.950 . S
C265 C266 1.443 . S
C265 N269 1.376 . S
C265 C303 1.389 . S
C266 C265 1.443 . S
C266 C267 1.340 . S
C266 H306 0.951 . S
C267 C266 1.340 . S
C267 C268 1.439 . S
C267 H307 0.950 . S
C268 C267 1.439 . S
C268 N269 1.374 . S
C268 C302 1.395 . S
N269 C265 1.376 . S
N269 C268 1.374 . S
N269 Co270 2.008 . S
Co270 N269 2.008 . S
Co270 N271 1.995 . S
Co270 N276 2.008 . S
Co270 N281 1.995 . S
Co270 N286 2.282 . S
Co270 N292 2.282 . S
N271 Co270 1.995 . S
N271 C272 1.376 . S
N271 C275 1.383 . S
C272 N271 1.376 . S
C272 C273 1.446 . S
C272 C302 1.391 . S
C273 C272 1.446 . S
C273 C274 1.339 . S
C273 H308 0.949 . S
C274 C273 1.339 . S
C274 C275 1.439 . S
C274 H309 0.950 . S
C275 N271 1.383 . S
C275 C274 1.439 . S
C275 C304 1.392 . S
N276 Co270 2.008 . S
N276 C277 1.376 . S
N276 C280 1.374 . S
C277 N276 1.376 . S
C277 C278 1.443 . S
C277 C304 1.389 . S
C278 C277 1.443 . S
C278 C279 1.340 . S
C278 H310 0.951 . S
C279 C278 1.340 . S
C279 C280 1.439 . S
C279 H311 0.950 . S
C280 N276 1.374 . S
C280 C279 1.439 . S
C280 C305 1.395 . S
N281 Co270 1.995 . S
N281 C282 1.376 . S
N281 C285 1.383 . S
C282 N281 1.376 . S
C282 C283 1.446 . S
C282 C305 1.391 . S
C283 C282 1.446 . S
C283 C284 1.339 . S
C283 H312 0.949 . S
C284 C283 1.339 . S
C284 C285 1.439 . S
C284 H313 0.950 . S
C285 N281 1.383 . S
C285 C284 1.439 . S
C285 C303 1.392 . S
N286 Co270 2.282 . S
N286 C289 1.332 . S
N286 C291 1.332 . S
C287 C288 1.386 . S
C287 C290 1.388 . S
C288 C287 1.386 . S
C288 C289 1.382 . S
C288 H314 0.950 . S
C289 N286 1.332 . S
C289 C288 1.382 . S
C289 H300 0.952 . S
C290 C287 1.388 . S
C290 C291 1.382 . S
C290 H315 0.950 . S
C291 N286 1.332 . S
C291 C290 1.382 . S
C291 H301 0.948 . S
N292 Co270 2.282 . S
N292 C296 1.332 . S
N292 C297 1.332 . S
C293 C294 1.388 . S
C293 C297 1.382 . S
C293 H316 0.950 . S
C294 C293 1.388 . S
C294 C295 1.386 . S
C295 C294 1.386 . S
C295 C296 1.382 . S
C295 H317 0.950 1_565 S
C296 N292 1.332 . S
C296 C295 1.382 . S
C296 H298 0.952 . S
C297 N292 1.332 . S
C297 C293 1.382 . S
C297 H299 0.948 . S
H298 C296 0.952 . S
H299 C297 0.948 . S
H300 C289 0.952 . S
H301 C291 0.948 . S
C302 C268 1.395 . S
C302 C272 1.391 . S
C303 C265 1.389 . S
C303 C285 1.392 . S
C304 C275 1.392 . S
C304 C277 1.389 . S
C305 C280 1.395 . S
C305 C282 1.391 . S
H306 C266 0.951 . S
H307 C267 0.950 . S
H308 C273 0.949 . S
H309 C274 0.950 . S
H310 C278 0.951 . S
H311 C279 0.950 . S
H312 C283 0.949 . S
H313 C284 0.950 . S
H314 C288 0.950 . S
H315 C290 0.950 . S
H316 C293 0.950 . S
H317 C295 0.950 1_545 S
C318 C319 1.443 . S
C318 N322 1.376 . S
C318 C356 1.389 . S
C319 C318 1.443 . S
C319 C320 1.340 . S
C319 H359 0.951 . S
C320 C319 1.340 . S
C320 C321 1.439 . S
C320 H360 0.950 . S
C321 C320 1.439 . S
C321 N322 1.374 . S
C321 C355 1.395 . S
N322 C318 1.376 . S
N322 C321 1.374 . S
N322 Co323 2.008 . S
Co323 N322 2.008 . S
Co323 N324 1.995 . S
Co323 N329 2.008 . S
Co323 N334 1.995 . S
Co323 N339 2.282 . S
Co323 N345 2.282 . S
N324 Co323 1.995 . S
N324 C325 1.376 . S
N324 C328 1.383 . S
C325 N324 1.376 . S
C325 C326 1.446 . S
C325 C355 1.391 . S
C326 C325 1.446 . S
C326 C327 1.339 . S
C326 H361 0.949 . S
C327 C326 1.339 . S
C327 C328 1.439 . S
C327 H362 0.950 . S
C328 N324 1.383 . S
C328 C327 1.439 . S
C328 C357 1.392 . S
N329 Co323 2.008 . S
N329 C330 1.376 . S
N329 C333 1.374 . S
C330 N329 1.376 . S
C330 C331 1.443 . S
C330 C357 1.389 . S
C331 C330 1.443 . S
C331 C332 1.340 . S
C331 H363 0.951 . S
C332 C331 1.340 . S
C332 C333 1.439 . S
C332 H364 0.950 . S
C333 N329 1.374 . S
C333 C332 1.439 . S
C333 C358 1.395 . S
N334 Co323 1.995 . S
N334 C335 1.376 . S
N334 C338 1.383 . S
C335 N334 1.376 . S
C335 C336 1.446 . S
C335 C358 1.391 . S
C336 C335 1.446 . S
C336 C337 1.339 . S
C336 H365 0.949 . S
C337 C336 1.339 . S
C337 C338 1.439 . S
C337 H366 0.950 . S
C338 N334 1.383 . S
C338 C337 1.439 . S
C338 C356 1.392 . S
N339 Co323 2.282 . S
N339 C342 1.332 . S
N339 C344 1.332 . S
C340 C341 1.386 . S
C340 C343 1.388 . S
C341 C340 1.386 . S
C341 C342 1.382 . S
C341 H367 0.950 . S
C342 N339 1.332 . S
C342 C341 1.382 . S
C342 H353 0.952 . S
C343 C340 1.388 . S
C343 C344 1.382 . S
C343 H368 0.950 . S
C344 N339 1.332 . S
C344 C343 1.382 . S
C344 H354 0.948 . S
N345 Co323 2.282 . S
N345 C349 1.332 . S
N345 C350 1.332 . S
C346 C347 1.388 . S
C346 C350 1.382 . S
C346 H369 0.950 . S
C347 C346 1.388 . S
C347 C348 1.386 . S
C348 C347 1.386 . S
C348 C349 1.382 . S
C348 H370 0.950 . S
C349 N345 1.332 . S
C349 C348 1.382 . S
C349 H351 0.952 . S
C350 N345 1.332 . S
C350 C346 1.382 . S
C350 H352 0.948 . S
H351 C349 0.952 . S
H352 C350 0.948 . S
H353 C342 0.952 . S
H354 C344 0.948 . S
C355 C321 1.395 . S
C355 C325 1.391 . S
C356 C318 1.389 . S
C356 C338 1.392 . S
C357 C328 1.392 . S
C357 C330 1.389 . S
C358 C333 1.395 . S
C358 C335 1.391 . S
H359 C319 0.951 . S
H360 C320 0.950 . S
H361 C326 0.949 . S
H362 C327 0.950 . S
H363 C331 0.951 . S
H364 C332 0.950 . S
H365 C336 0.949 . S
H366 C337 0.950 . S
H367 C341 0.950 . S
H368 C343 0.950 . S
H369 C346 0.950 . S
H370 C348 0.950 . S
C371 C372 1.443 . S
C371 N375 1.376 . S
C371 C409 1.389 . S
C372 C371 1.443 . S
C372 C373 1.340 . S
C372 H412 0.951 . S
C373 C372 1.340 . S
C373 C374 1.439 . S
C373 H413 0.950 . S
C374 C373 1.439 . S
C374 N375 1.374 . S
C374 C408 1.395 . S
N375 C371 1.376 . S
N375 C374 1.374 . S
N375 Co376 2.008 . S
Co376 N375 2.008 . S
Co376 N377 1.995 . S
Co376 N382 2.008 . S
Co376 N387 1.995 . S
Co376 N392 2.282 . S
Co376 N398 2.282 . S
N377 Co376 1.995 . S
N377 C378 1.376 . S
N377 C381 1.383 . S
C378 N377 1.376 . S
C378 C379 1.446 . S
C378 C408 1.391 . S
C379 C378 1.446 . S
C379 C380 1.339 . S
C379 H414 0.949 . S
C380 C379 1.339 . S
C380 C381 1.439 . S
C380 H415 0.946 1_655 S
C381 N377 1.383 . S
C381 C380 1.439 . S
C381 C410 1.392 . S
N382 Co376 2.008 . S
N382 C383 1.376 . S
N382 C386 1.374 . S
C383 N382 1.376 . S
C383 C384 1.443 . S
C383 C410 1.389 . S
C384 C383 1.443 . S
C384 C385 1.340 . S
C384 H416 0.951 . S
C385 C384 1.340 . S
C385 C386 1.439 . S
C385 H417 0.950 . S
C386 N382 1.374 . S
C386 C385 1.439 . S
C386 C411 1.395 . S
N387 Co376 1.995 . S
N387 C388 1.376 . S
N387 C391 1.383 . S
C388 N387 1.376 . S
C388 C389 1.446 . S
C388 C411 1.391 . S
C389 C388 1.446 . S
C389 C390 1.339 . S
C389 H418 0.949 . S
C390 C389 1.339 . S
C390 C391 1.439 . S
C390 H419 0.950 . S
C391 N387 1.383 . S
C391 C390 1.439 . S
C391 C409 1.392 . S
N392 Co376 2.282 . S
N392 C395 1.332 . S
N392 C397 1.332 . S
C393 C394 1.386 . S
C393 C396 1.388 . S
C394 C393 1.386 . S
C394 C395 1.382 . S
C394 H420 0.950 . S
C395 N392 1.332 . S
C395 C394 1.382 . S
C395 H406 0.952 . S
C396 C393 1.388 . S
C396 C397 1.382 . S
C396 H421 0.977 . S
C397 N392 1.332 . S
C397 C396 1.382 . S
C397 H407 0.948 . S
N398 Co376 2.282 . S
N398 C402 1.332 . S
N398 C403 1.332 . S
C399 C400 1.388 . S
C399 C403 1.382 . S
C399 H422 0.950 . S
C400 C399 1.388 . S
C400 C401 1.386 . S
C401 C400 1.386 . S
C401 C402 1.382 . S
C401 H423 0.950 1_545 S
C402 N398 1.332 . S
C402 C401 1.382 . S
C402 H404 0.952 . S
C403 N398 1.332 . S
C403 C399 1.382 . S
C403 H405 0.948 . S
H404 C402 0.952 . S
H405 C403 0.948 . S
H406 C395 0.952 . S
H407 C397 0.948 . S
C408 C374 1.395 . S
C408 C378 1.391 . S
C409 C371 1.389 . S
C409 C391 1.392 . S
C410 C381 1.392 . S
C410 C383 1.389 . S
C411 C386 1.395 . S
C411 C388 1.391 . S
H412 C372 0.951 . S
H413 C373 0.950 . S
H414 C379 0.949 . S
H415 C380 0.946 1_455 S
H416 C384 0.951 . S
H417 C385 0.950 . S
H418 C389 0.949 . S
H419 C390 0.950 . S
H420 C394 0.950 . S
H421 C396 0.977 . S
H422 C399 0.950 . S
H423 C401 0.950 1_565 S
C424 C425 1.443 . S
C424 N428 1.376 . S
C424 C462 1.389 . S
C425 C424 1.443 . S
C425 C426 1.340 . S
C425 H465 0.951 . S
C426 C425 1.340 . S
C426 C427 1.439 . S
C426 H466 0.950 . S
C427 C426 1.439 . S
C427 N428 1.374 . S
C427 C461 1.395 . S
N428 C424 1.376 . S
N428 C427 1.374 . S
N428 Co429 2.008 . S
Co429 N428 2.008 . S
Co429 N430 1.995 . S
Co429 N435 2.008 . S
Co429 N440 1.995 . S
Co429 N445 2.282 . S
Co429 N451 2.282 . S
N430 Co429 1.995 . S
N430 C431 1.376 . S
N430 C434 1.383 . S
C431 N430 1.376 . S
C431 C432 1.446 . S
C431 C461 1.391 . S
C432 C431 1.446 . S
C432 C433 1.339 . S
C432 H467 0.949 . S
C433 C432 1.339 . S
C433 C434 1.439 . S
C433 H468 0.950 . S
C434 N430 1.383 . S
C434 C433 1.439 . S
C434 C463 1.392 . S
N435 Co429 2.008 . S
N435 C436 1.376 . S
N435 C439 1.374 . S
C436 N435 1.376 . S
C436 C437 1.443 . S
C436 C463 1.389 . S
C437 C436 1.443 . S
C437 C438 1.340 . S
C437 H469 0.951 . S
C438 C437 1.340 . S
C438 C439 1.439 . S
C438 H470 0.950 . S
C439 N435 1.374 . S
C439 C438 1.439 . S
C439 C464 1.395 . S
N440 Co429 1.995 . S
N440 C441 1.376 . S
N440 C444 1.383 . S
C441 N440 1.376 . S
C441 C442 1.446 . S
C441 C464 1.391 . S
C442 C441 1.446 . S
C442 C443 1.339 . S
C442 H471 0.949 . S
C443 C442 1.339 . S
C443 C444 1.439 . S
C443 H472 0.950 . S
C444 N440 1.383 . S
C444 C443 1.439 . S
C444 C462 1.392 . S
N445 Co429 2.282 . S
N445 C448 1.332 . S
N445 C450 1.332 . S
C446 C447 1.386 . S
C446 C449 1.388 . S
C447 C446 1.386 . S
C447 C448 1.382 . S
C447 H473 0.950 1_545 S
C448 N445 1.332 . S
C448 C447 1.382 . S
C448 H459 0.952 . S
C449 C446 1.388 . S
C449 C450 1.382 . S
C449 H474 0.950 . S
C450 N445 1.332 . S
C450 C449 1.382 . S
C450 H460 0.948 . S
N451 Co429 2.282 . S
N451 C455 1.332 . S
N451 C456 1.332 . S
C452 C453 1.388 . S
C452 C456 1.382 . S
C452 H475 0.950 . S
C453 C452 1.388 . S
C453 C454 1.386 . S
C454 C453 1.386 . S
C454 C455 1.382 . S
C454 H476 0.950 . S
C455 N451 1.332 . S
C455 C454 1.382 . S
C455 H457 0.952 . S
C456 N451 1.332 . S
C456 C452 1.382 . S
C456 H458 0.948 . S
H457 C455 0.952 . S
H458 C456 0.948 . S
H459 C448 0.952 . S
H460 C450 0.948 . S
C461 C427 1.395 . S
C461 C431 1.391 . S
C462 C424 1.389 . S
C462 C444 1.392 . S
C463 C434 1.392 . S
C463 C436 1.389 . S
C464 C439 1.395 . S
C464 C441 1.391 . S
H465 C425 0.951 . S
H466 C426 0.950 . S
H467 C432 0.949 . S
H468 C433 0.950 . S
H469 C437 0.951 . S
H470 C438 0.950 . S
H471 C442 0.949 . S
H472 C443 0.950 . S
H473 C447 0.950 1_565 S
H474 C449 0.950 . S
H475 C452 0.950 . S
H476 C454 0.950 . S
C477 C478 1.443 . S
C477 N481 1.376 . S
C477 C515 1.389 . S
C478 C477 1.443 . S
C478 C479 1.340 . S
C478 H518 0.951 . S
C479 C478 1.340 . S
C479 C480 1.439 . S
C479 H519 0.950 . S
C480 C479 1.439 . S
C480 N481 1.374 . S
C480 C514 1.395 . S
N481 C477 1.376 . S
N481 C480 1.374 . S
N481 Co482 2.008 . S
Co482 N481 2.008 . S
Co482 N483 1.995 . S
Co482 N488 2.008 . S
Co482 N493 1.995 . S
Co482 N498 2.282 . S
Co482 N504 2.282 . S
N483 Co482 1.995 . S
N483 C484 1.376 . S
N483 C487 1.383 . S
C484 N483 1.376 . S
C484 C485 1.446 . S
C484 C514 1.391 . S
C485 C484 1.446 . S
C485 C486 1.339 . S
C485 H520 0.949 . S
C486 C485 1.339 . S
C486 C487 1.439 . S
C486 H521 0.950 . S
C487 N483 1.383 . S
C487 C486 1.439 . S
C487 C516 1.392 . S
N488 Co482 2.008 . S
N488 C489 1.376 . S
N488 C492 1.374 . S
C489 N488 1.376 . S
C489 C490 1.443 . S
C489 C516 1.389 . S
C490 C489 1.443 . S
C490 C491 1.340 . S
C490 H522 0.951 . S
C491 C490 1.340 . S
C491 C492 1.439 . S
C491 H523 0.950 . S
C492 N488 1.374 . S
C492 C491 1.439 . S
C492 C517 1.395 . S
N493 Co482 1.995 . S
N493 C494 1.376 . S
N493 C497 1.383 . S
C494 N493 1.376 . S
C494 C495 1.446 . S
C494 C517 1.391 . S
C495 C494 1.446 . S
C495 C496 1.339 . S
C495 H524 0.949 . S
C496 C495 1.339 . S
C496 C497 1.439 . S
C496 H525 0.950 . S
C497 N493 1.383 . S
C497 C496 1.439 . S
C497 C515 1.392 . S
N498 Co482 2.282 . S
N498 C501 1.332 . S
N498 C503 1.332 . S
C499 C500 1.386 1_545 S
C499 C502 1.388 . S
C500 C499 1.386 1_565 S
C500 C501 1.382 1_565 S
C500 H526 0.950 . S
C501 N498 1.332 . S
C501 C500 1.382 1_545 S
C501 H512 0.952 . S
C502 C499 1.388 . S
C502 C503 1.382 . S
C502 H527 0.950 . S
C503 N498 1.332 . S
C503 C502 1.382 . S
C503 H513 0.948 . S
N504 Co482 2.282 . S
N504 C508 1.332 . S
N504 C509 1.332 . S
C505 C506 1.388 . S
C505 C509 1.382 . S
C505 H528 0.950 . S
C506 C505 1.388 . S
C506 C507 1.386 . S
C507 C506 1.386 . S
C507 C508 1.382 . S
C507 H529 0.950 . S
C508 N504 1.332 . S
C508 C507 1.382 . S
C508 H510 0.952 . S
C509 N504 1.332 . S
C509 C505 1.382 . S
C509 H511 0.948 . S
H510 C508 0.952 . S
H511 C509 0.948 . S
H512 C501 0.952 . S
H513 C503 0.948 . S
C514 C480 1.395 . S
C514 C484 1.391 . S
C515 C477 1.389 . S
C515 C497 1.392 . S
C516 C487 1.392 . S
C516 C489 1.389 . S
C517 C492 1.395 . S
C517 C494 1.391 . S
H518 C478 0.951 . S
H519 C479 0.950 . S
H520 C485 0.949 . S
H521 C486 0.950 . S
H522 C490 0.951 . S
H523 C491 0.950 . S
H524 C495 0.949 . S
H525 C496 0.950 . S
H526 C500 0.950 . S
H527 C502 0.950 . S
H528 C505 0.950 . S
H529 C507 0.950 . S
C530 C531 1.443 . S
C530 N534 1.376 . S
C530 C568 1.389 . S
C531 C530 1.443 . S
C531 C532 1.340 . S
C531 H571 0.951 . S
C532 C531 1.340 . S
C532 C533 1.439 . S
C532 H572 0.950 . S
C533 C532 1.439 . S
C533 N534 1.374 . S
C533 C567 1.395 . S
N534 C530 1.376 . S
N534 C533 1.374 . S
N534 Co535 2.008 . S
Co535 N534 2.008 . S
Co535 N536 1.995 . S
Co535 N541 2.008 . S
Co535 N546 1.995 . S
Co535 N551 2.282 . S
Co535 N557 2.282 . S
N536 Co535 1.995 . S
N536 C537 1.376 . S
N536 C540 1.383 . S
C537 N536 1.376 . S
C537 C538 1.446 . S
C537 C567 1.391 . S
C538 C537 1.446 . S
C538 C539 1.339 . S
C538 H573 0.949 . S
C539 C538 1.339 . S
C539 C540 1.439 . S
C539 H574 0.950 . S
C540 N536 1.383 . S
C540 C539 1.439 . S
C540 C569 1.392 . S
N541 Co535 2.008 . S
N541 C542 1.376 . S
N541 C545 1.374 . S
C542 N541 1.376 . S
C542 C543 1.443 . S
C542 C569 1.389 . S
C543 C542 1.443 . S
C543 C544 1.340 . S
C543 H575 0.951 . S
C544 C543 1.340 . S
C544 C545 1.439 . S
C544 H576 0.950 . S
C545 N541 1.374 . S
C545 C544 1.439 . S
C545 C570 1.395 . S
N546 Co535 1.995 . S
N546 C547 1.376 . S
N546 C550 1.383 . S
C547 N546 1.376 . S
C547 C548 1.446 . S
C547 C570 1.391 . S
C548 C547 1.446 . S
C548 C549 1.339 . S
C548 H577 0.949 . S
C549 C548 1.339 . S
C549 C550 1.439 . S
C549 H578 0.950 . S
C550 N546 1.383 . S
C550 C549 1.439 . S
C550 C568 1.392 . S
N551 Co535 2.282 . S
N551 C554 1.332 . S
N551 C556 1.332 . S
C552 C553 1.386 . S
C552 C555 1.388 . S
C553 C552 1.386 . S
C553 C554 1.382 . S
C553 H579 0.950 . S
C554 N551 1.332 . S
C554 C553 1.382 . S
C554 H565 0.952 . S
C555 C552 1.388 . S
C555 C556 1.382 . S
C555 H580 0.950 1_556 S
C556 N551 1.332 . S
C556 C555 1.382 . S
C556 H566 0.948 . S
N557 Co535 2.282 . S
N557 C561 1.332 . S
N557 C562 1.332 . S
C558 C559 1.388 . S
C558 C562 1.382 . S
C558 H581 0.950 . S
C559 C558 1.388 . S
C559 C560 1.386 . S
C560 C559 1.386 . S
C560 C561 1.382 . S
C560 H582 0.950 . S
C561 N557 1.332 . S
C561 C560 1.382 . S
C561 H563 0.952 . S
C562 N557 1.332 . S
C562 C558 1.382 . S
C562 H564 0.948 . S
H563 C561 0.952 . S
H564 C562 0.948 . S
H565 C554 0.952 . S
H566 C556 0.948 . S
C567 C533 1.395 . S
C567 C537 1.391 . S
C568 C530 1.389 . S
C568 C550 1.392 . S
C569 C540 1.392 . S
C569 C542 1.389 . S
C570 C545 1.395 . S
C570 C547 1.391 . S
H571 C531 0.951 . S
H572 C532 0.950 . S
H573 C538 0.949 . S
H574 C539 0.950 . S
H575 C543 0.951 . S
H576 C544 0.950 . S
H577 C548 0.949 . S
H578 C549 0.950 . S
H579 C553 0.950 . S
H580 C555 0.950 1_554 S
H581 C558 0.950 . S
H582 C560 0.950 . S
C583 C584 1.443 . S
C583 N587 1.376 . S
C583 C621 1.389 . S
C584 C583 1.443 . S
C584 C585 1.340 . S
C584 H624 0.951 . S
C585 C584 1.340 . S
C585 C586 1.439 . S
C585 H625 0.950 . S
C586 C585 1.439 . S
C586 N587 1.374 . S
C586 C620 1.395 . S
N587 C583 1.376 . S
N587 C586 1.374 . S
N587 Co588 2.008 . S
Co588 N587 2.008 . S
Co588 N589 1.995 . S
Co588 N594 2.008 . S
Co588 N599 1.995 . S
Co588 N604 2.282 . S
Co588 N610 2.282 . S
N589 Co588 1.995 . S
N589 C590 1.376 . S
N589 C593 1.383 . S
C590 N589 1.376 . S
C590 C591 1.446 . S
C590 C620 1.391 . S
C591 C590 1.446 . S
C591 C592 1.339 . S
C591 H626 0.949 . S
C592 C591 1.339 . S
C592 C593 1.439 . S
C592 H627 0.950 . S
C593 N589 1.383 . S
C593 C592 1.439 . S
C593 C622 1.392 . S
N594 Co588 2.008 . S
N594 C595 1.376 . S
N594 C598 1.374 . S
C595 N594 1.376 . S
C595 C596 1.443 . S
C595 C622 1.389 . S
C596 C595 1.443 . S
C596 C597 1.340 . S
C596 H628 0.951 . S
C597 C596 1.340 . S
C597 C598 1.439 . S
C597 H629 0.950 . S
C598 N594 1.374 . S
C598 C597 1.439 . S
C598 C623 1.395 . S
N599 Co588 1.995 . S
N599 C600 1.376 . S
N599 C603 1.383 . S
C600 N599 1.376 . S
C600 C601 1.446 . S
C600 C623 1.391 . S
C601 C600 1.446 . S
C601 C602 1.339 . S
C601 H630 0.949 . S
C602 C601 1.339 . S
C602 C603 1.439 . S
C602 H631 0.950 . S
C603 N599 1.383 . S
C603 C602 1.439 . S
C603 C621 1.392 . S
N604 Co588 2.282 . S
N604 C607 1.332 . S
N604 C609 1.332 . S
C605 C606 1.386 . S
C605 C608 1.388 . S
C606 C605 1.386 . S
C606 C607 1.382 . S
C606 H632 0.950 . S
C607 N604 1.332 . S
C607 C606 1.382 . S
C607 H618 0.952 . S
C608 C605 1.388 . S
C608 C609 1.382 . S
C608 H633 0.950 . S
C609 N604 1.332 . S
C609 C608 1.382 . S
C609 H619 0.948 . S
N610 Co588 2.282 . S
N610 C614 1.332 . S
N610 C615 1.332 . S
C611 C612 1.388 . S
C611 C615 1.382 . S
C611 H634 0.950 . S
C612 C611 1.388 . S
C612 C613 1.386 . S
C613 C612 1.386 . S
C613 C614 1.382 . S
C613 H635 0.950 . S
C614 N610 1.332 . S
C614 C613 1.382 . S
C614 H616 0.952 . S
C615 N610 1.332 . S
C615 C611 1.382 . S
C615 H617 0.948 . S
H616 C614 0.952 . S
H617 C615 0.948 . S
H618 C607 0.952 . S
H619 C609 0.948 . S
C620 C586 1.395 . S
C620 C590 1.391 . S
C621 C583 1.389 . S
C621 C603 1.392 . S
C622 C593 1.392 . S
C622 C595 1.389 . S
C623 C598 1.395 . S
C623 C600 1.391 . S
H624 C584 0.951 . S
H625 C585 0.950 . S
H626 C591 0.949 . S
H627 C592 0.950 . S
H628 C596 0.951 . S
H629 C597 0.950 . S
H630 C601 0.949 . S
H631 C602 0.950 . S
H632 C606 0.950 . S
H633 C608 0.950 . S
H634 C611 0.950 . S
H635 C613 0.950 . S
C636 C637 1.443 . S
C636 N640 1.376 . S
C636 C674 1.389 . S
C637 C636 1.443 . S
C637 C638 1.340 . S
C637 H677 0.951 . S
C638 C637 1.340 . S
C638 C639 1.439 . S
C638 H678 0.950 . S
C639 C638 1.439 . S
C639 N640 1.374 . S
C639 C673 1.395 . S
N640 C636 1.376 . S
N640 C639 1.374 . S
N640 Co641 2.008 . S
Co641 N640 2.008 . S
Co641 N642 1.995 . S
Co641 N647 2.008 . S
Co641 N652 1.995 . S
Co641 N657 2.282 . S
Co641 N663 2.282 . S
N642 Co641 1.995 . S
N642 C643 1.376 . S
N642 C646 1.383 . S
C643 N642 1.376 . S
C643 C644 1.446 . S
C643 C673 1.391 . S
C644 C643 1.446 . S
C644 C645 1.339 . S
C644 H679 0.949 . S
C645 C644 1.339 . S
C645 C646 1.439 . S
C645 H680 0.950 . S
C646 N642 1.383 . S
C646 C645 1.439 . S
C646 C675 1.392 . S
N647 Co641 2.008 . S
N647 C648 1.376 . S
N647 C651 1.374 . S
C648 N647 1.376 . S
C648 C649 1.443 . S
C648 C675 1.389 . S
C649 C648 1.443 . S
C649 C650 1.340 . S
C649 H681 0.951 . S
C650 C649 1.340 . S
C650 C651 1.439 . S
C650 H682 0.950 . S
C651 N647 1.374 . S
C651 C650 1.439 . S
C651 C676 1.395 . S
N652 Co641 1.995 . S
N652 C653 1.376 . S
N652 C656 1.383 . S
C653 N652 1.376 . S
C653 C654 1.446 . S
C653 C676 1.391 . S
C654 C653 1.446 . S
C654 C655 1.339 . S
C654 H683 0.949 . S
C655 C654 1.339 . S
C655 C656 1.439 . S
C655 H684 0.950 . S
C656 N652 1.383 . S
C656 C655 1.439 . S
C656 C674 1.392 . S
N657 Co641 2.282 . S
N657 C660 1.332 . S
N657 C662 1.332 . S
C658 C659 1.386 . S
C658 C661 1.388 . S
C659 C658 1.386 . S
C659 C660 1.382 . S
C659 H685 0.950 . S
C660 N657 1.332 . S
C660 C659 1.382 . S
C660 H671 0.952 . S
C661 C658 1.388 . S
C661 C662 1.382 . S
C661 H686 0.950 . S
C662 N657 1.332 . S
C662 C661 1.382 . S
C662 H672 0.948 . S
N663 Co641 2.282 . S
N663 C667 1.332 . S
N663 C668 1.332 . S
C664 C665 1.388 . S
C664 C668 1.382 . S
C664 H687 0.950 . S
C665 C664 1.388 . S
C665 C666 1.386 . S
C666 C665 1.386 . S
C666 C667 1.382 . S
C666 H688 0.950 . S
C667 N663 1.332 . S
C667 C666 1.382 . S
C667 H669 0.952 . S
C668 N663 1.332 . S
C668 C664 1.382 . S
C668 H670 0.948 . S
H669 C667 0.952 . S
H670 C668 0.948 . S
H671 C660 0.952 . S
H672 C662 0.948 . S
C673 C639 1.395 . S
C673 C643 1.391 . S
C674 C636 1.389 . S
C674 C656 1.392 . S
C675 C646 1.392 . S
C675 C648 1.389 . S
C676 C651 1.395 . S
C676 C653 1.391 . S
H677 C637 0.951 . S
H678 C638 0.950 . S
H679 C644 0.949 . S
H680 C645 0.950 . S
H681 C649 0.951 . S
H682 C650 0.950 . S
H683 C654 0.949 . S
H684 C655 0.950 . S
H685 C659 0.950 . S
H686 C661 0.950 . S
H687 C664 0.950 . S
H688 C666 0.950 . S
C689 C690 1.443 . S
C689 N693 1.376 . S
C689 C727 1.389 . S
C690 C689 1.443 . S
C690 C691 1.340 . S
C690 H730 0.951 . S
C691 C690 1.340 . S
C691 C692 1.439 . S
C691 H731 0.950 . S
C692 C691 1.439 . S
C692 N693 1.374 . S
C692 C726 1.395 . S
N693 C689 1.376 . S
N693 C692 1.374 . S
N693 Co694 2.008 . S
Co694 N693 2.008 . S
Co694 N695 1.995 . S
Co694 N700 2.008 . S
Co694 N705 1.995 . S
Co694 N710 2.282 . S
Co694 N716 2.282 . S
N695 Co694 1.995 . S
N695 C696 1.376 . S
N695 C699 1.383 . S
C696 N695 1.376 . S
C696 C697 1.446 . S
C696 C726 1.391 . S
C697 C696 1.446 . S
C697 C698 1.339 . S
C697 H732 0.949 1_565 S
C698 C697 1.339 . S
C698 C699 1.439 . S
C698 H733 0.950 1_565 S
C699 N695 1.383 . S
C699 C698 1.439 . S
C699 C728 1.392 . S
N700 Co694 2.008 . S
N700 C701 1.376 . S
N700 C704 1.374 . S
C701 N700 1.376 . S
C701 C702 1.443 . S
C701 C728 1.389 . S
C702 C701 1.443 . S
C702 C703 1.340 . S
C702 H734 0.951 . S
C703 C702 1.340 . S
C703 C704 1.439 . S
C703 H735 0.950 . S
C704 N700 1.374 . S
C704 C703 1.439 . S
C704 C729 1.395 . S
N705 Co694 1.995 . S
N705 C706 1.376 . S
N705 C709 1.383 . S
C706 N705 1.376 . S
C706 C707 1.446 . S
C706 C729 1.391 . S
C707 C706 1.446 . S
C707 C708 1.339 . S
C707 H736 0.949 . S
C708 C707 1.339 . S
C708 C709 1.439 . S
C708 H737 0.950 . S
C709 N705 1.383 . S
C709 C708 1.439 . S
C709 C727 1.392 . S
N710 Co694 2.282 . S
N710 C713 1.332 . S
N710 C715 1.332 . S
C711 C712 1.386 . S
C711 C714 1.388 . S
C712 C711 1.386 . S
C712 C713 1.382 . S
C712 H738 0.950 . S
C713 N710 1.332 . S
C713 C712 1.382 . S
C713 H724 0.952 . S
C714 C711 1.388 . S
C714 C715 1.382 . S
C714 H739 0.950 1_565 S
C715 N710 1.332 . S
C715 C714 1.382 . S
C715 H725 0.948 . S
N716 Co694 2.282 . S
N716 C720 1.332 . S
N716 C721 1.332 . S
C717 C718 1.388 . S
C717 C721 1.382 . S
C717 H740 0.950 . S
C718 C717 1.388 . S
C718 C719 1.386 . S
C719 C718 1.386 . S
C719 C720 1.382 . S
C719 H741 0.950 1_554 S
C720 N716 1.332 . S
C720 C719 1.382 . S
C720 H722 0.952 . S
C721 N716 1.332 . S
C721 C717 1.382 . S
C721 H723 0.948 . S
H722 C720 0.952 . S
H723 C721 0.948 . S
H724 C713 0.952 . S
H725 C715 0.948 . S
C726 C692 1.395 . S
C726 C696 1.391 . S
C727 C689 1.389 . S
C727 C709 1.392 . S
C728 C699 1.392 . S
C728 C701 1.389 . S
C729 C704 1.395 . S
C729 C706 1.391 . S
H730 C690 0.951 . S
H731 C691 0.950 . S
H732 C697 0.949 1_545 S
H733 C698 0.950 1_545 S
H734 C702 0.951 . S
H735 C703 0.950 . S
H736 C707 0.949 . S
H737 C708 0.950 . S
H738 C712 0.950 . S
H739 C714 0.950 1_545 S
H740 C717 0.950 . S
H741 C719 0.950 1_556 S
C742 C743 1.443 . S
C742 N746 1.376 . S
C742 C780 1.389 . S
C743 C742 1.443 . S
C743 C744 1.340 . S
C743 H783 0.951 . S
C744 C743 1.340 . S
C744 C745 1.439 . S
C744 H784 0.950 . S
C745 C744 1.439 . S
C745 N746 1.374 . S
C745 C779 1.395 . S
N746 C742 1.376 . S
N746 C745 1.374 . S
N746 Co747 2.008 . S
Co747 N746 2.008 . S
Co747 N748 1.995 . S
Co747 N753 2.008 . S
Co747 N758 1.995 . S
Co747 N763 2.282 . S
Co747 N769 2.282 . S
N748 Co747 1.995 . S
N748 C749 1.376 . S
N748 C752 1.383 . S
C749 N748 1.376 . S
C749 C750 1.446 . S
C749 C779 1.391 . S
C750 C749 1.446 . S
C750 C751 1.339 . S
C750 H785 0.949 . S
C751 C750 1.339 . S
C751 C752 1.439 . S
C751 H786 0.950 . S
C752 N748 1.383 . S
C752 C751 1.439 . S
C752 C781 1.392 . S
N753 Co747 2.008 . S
N753 C754 1.376 . S
N753 C757 1.374 . S
C754 N753 1.376 . S
C754 C755 1.443 . S
C754 C781 1.389 . S
C755 C754 1.443 . S
C755 C756 1.340 . S
C755 H787 0.951 1_455 S
C756 C755 1.340 . S
C756 C757 1.439 . S
C756 H788 0.961 . S
C757 N753 1.374 . S
C757 C756 1.439 . S
C757 C782 1.395 . S
N758 Co747 1.995 . S
N758 C759 1.376 . S
N758 C762 1.383 . S
C759 N758 1.376 . S
C759 C760 1.446 . S
C759 C782 1.391 . S
C760 C759 1.446 . S
C760 C761 1.339 . S
C760 H789 0.949 . S
C761 C760 1.339 . S
C761 C762 1.439 . S
C761 H790 0.950 . S
C762 N758 1.383 . S
C762 C761 1.439 . S
C762 C780 1.392 . S
N763 Co747 2.282 . S
N763 C766 1.332 . S
N763 C768 1.332 . S
C764 C765 1.386 . S
C764 C767 1.388 . S
C765 C764 1.386 . S
C765 C766 1.382 . S
C765 H791 0.950 . S
C766 N763 1.332 . S
C766 C765 1.382 . S
C766 H777 0.952 . S
C767 C764 1.388 . S
C767 C768 1.382 . S
C767 H792 0.950 . S
C768 N763 1.332 . S
C768 C767 1.382 . S
C768 H778 0.948 . S
N769 Co747 2.282 . S
N769 C773 1.332 . S
N769 C774 1.332 . S
C770 C771 1.388 . S
C770 C774 1.382 . S
C770 H793 0.950 . S
C771 C770 1.388 . S
C771 C772 1.386 . S
C772 C771 1.386 . S
C772 C773 1.382 . S
C772 H794 0.950 . S
C773 N769 1.332 . S
C773 C772 1.382 . S
C773 H775 0.952 . S
C774 N769 1.332 . S
C774 C770 1.382 . S
C774 H776 0.948 . S
H775 C773 0.952 . S
H776 C774 0.948 . S
H777 C766 0.952 . S
H778 C768 0.948 . S
C779 C745 1.395 . S
C779 C749 1.391 . S
C780 C742 1.389 . S
C780 C762 1.392 . S
C781 C752 1.392 . S
C781 C754 1.389 . S
C782 C757 1.395 . S
C782 C759 1.391 . S
H783 C743 0.951 . S
H784 C744 0.950 . S
H785 C750 0.949 . S
H786 C751 0.950 . S
H787 C755 0.951 1_655 S
H788 C756 0.961 . S
H789 C760 0.949 . S
H790 C761 0.950 . S
H791 C765 0.950 . S
H792 C767 0.950 . S
H793 C770 0.950 . S
H794 C772 0.950 . S
C795 C796 1.443 . S
C795 N799 1.376 . S
C795 C833 1.389 . S
C796 C795 1.443 . S
C796 C797 1.340 . S
C796 H836 0.951 . S
C797 C796 1.340 . S
C797 C798 1.439 . S
C797 H837 0.950 . S
C798 C797 1.439 . S
C798 N799 1.374 . S
C798 C832 1.395 . S
N799 C795 1.376 . S
N799 C798 1.374 . S
N799 Co800 2.008 . S
Co800 N799 2.008 . S
Co800 N801 1.995 . S
Co800 N806 2.008 . S
Co800 N811 1.995 . S
Co800 N816 2.282 . S
Co800 N822 2.282 . S
N801 Co800 1.995 . S
N801 C802 1.376 . S
N801 C805 1.383 . S
C802 N801 1.376 . S
C802 C803 1.446 . S
C802 C832 1.391 . S
C803 C802 1.446 . S
C803 C804 1.339 . S
C803 H838 0.949 . S
C804 C803 1.339 . S
C804 C805 1.439 . S
C804 H839 0.950 . S
C805 N801 1.383 . S
C805 C804 1.439 . S
C805 C834 1.392 . S
N806 Co800 2.008 . S
N806 C807 1.376 . S
N806 C810 1.374 . S
C807 N806 1.376 . S
C807 C808 1.443 . S
C807 C834 1.389 . S
C808 C807 1.443 . S
C808 C809 1.340 . S
C808 H840 0.951 . S
C809 C808 1.340 . S
C809 C810 1.439 . S
C809 H841 0.950 . S
C810 N806 1.374 . S
C810 C809 1.439 . S
C810 C835 1.395 . S
N811 Co800 1.995 . S
N811 C812 1.376 . S
N811 C815 1.383 . S
C812 N811 1.376 . S
C812 C813 1.446 . S
C812 C835 1.391 . S
C813 C812 1.446 . S
C813 C814 1.339 . S
C813 H842 0.949 . S
C814 C813 1.339 . S
C814 C815 1.439 . S
C814 H843 0.950 1_556 S
C815 N811 1.383 . S
C815 C814 1.439 . S
C815 C833 1.392 . S
N816 Co800 2.282 . S
N816 C819 1.332 . S
N816 C821 1.332 . S
C817 C818 1.386 . S
C817 C820 1.388 . S
C818 C817 1.386 . S
C818 C819 1.382 . S
C818 H844 0.950 . S
C819 N816 1.332 . S
C819 C818 1.382 . S
C819 H830 0.952 . S
C820 C817 1.388 . S
C820 C821 1.382 . S
C820 H845 0.950 . S
C821 N816 1.332 . S
C821 C820 1.382 . S
C821 H831 0.948 . S
N822 Co800 2.282 . S
N822 C826 1.332 . S
N822 C827 1.332 . S
C823 C824 1.388 . S
C823 C827 1.382 . S
C823 H846 0.950 . S
C824 C823 1.388 . S
C824 C825 1.386 . S
C825 C824 1.386 . S
C825 C826 1.382 . S
C825 H847 0.950 . S
C826 N822 1.332 . S
C826 C825 1.382 . S
C826 H828 0.952 . S
C827 N822 1.332 . S
C827 C823 1.382 . S
C827 H829 0.948 . S
H828 C826 0.952 . S
H829 C827 0.948 . S
H830 C819 0.952 . S
H831 C821 0.948 . S
C832 C798 1.395 . S
C832 C802 1.391 . S
C833 C795 1.389 . S
C833 C815 1.392 . S
C834 C805 1.392 . S
C834 C807 1.389 . S
C835 C810 1.395 . S
C835 C812 1.391 . S
H836 C796 0.951 . S
H837 C797 0.950 . S
H838 C803 0.949 . S
H839 C804 0.950 . S
H840 C808 0.951 . S
H841 C809 0.950 . S
H842 C813 0.949 . S
H843 C814 0.950 1_554 S
H844 C818 0.950 . S
H845 C820 0.950 . S
H846 C823 0.950 . S
H847 C825 0.950 . S
C848 C849 1.443 . S
C848 N852 1.376 . S
C848 C886 1.389 . S
C849 C848 1.443 . S
C849 C850 1.340 . S
C849 H889 0.951 1_655 S
C850 C849 1.340 . S
C850 C851 1.439 . S
C850 H890 0.950 1_655 S
C851 C850 1.439 . S
C851 N852 1.374 . S
C851 C885 1.395 . S
N852 C848 1.376 . S
N852 C851 1.374 . S
N852 Co853 2.008 . S
Co853 N852 2.008 . S
Co853 N854 1.995 . S
Co853 N859 2.008 . S
Co853 N864 1.995 . S
Co853 N869 2.282 . S
Co853 N875 2.282 . S
N854 Co853 1.995 . S
N854 C855 1.376 . S
N854 C858 1.383 . S
C855 N854 1.376 . S
C855 C856 1.446 . S
C855 C885 1.391 . S
C856 C855 1.446 . S
C856 C857 1.339 . S
C856 H891 0.949 . S
C857 C856 1.339 . S
C857 C858 1.439 . S
C857 H892 0.950 . S
C858 N854 1.383 . S
C858 C857 1.439 . S
C858 C887 1.392 . S
N859 Co853 2.008 . S
N859 C860 1.376 . S
N859 C863 1.374 . S
C860 N859 1.376 . S
C860 C861 1.443 . S
C860 C887 1.389 . S
C861 C860 1.443 . S
C861 C862 1.340 . S
C861 H893 0.951 . S
C862 C861 1.340 . S
C862 C863 1.439 . S
C862 H894 0.950 . S
C863 N859 1.374 . S
C863 C862 1.439 . S
C863 C888 1.395 . S
N864 Co853 1.995 . S
N864 C865 1.376 . S
N864 C868 1.383 . S
C865 N864 1.376 . S
C865 C866 1.446 . S
C865 C888 1.391 . S
C866 C865 1.446 . S
C866 C867 1.339 . S
C866 H895 0.949 . S
C867 C866 1.339 . S
C867 C868 1.439 . S
C867 H896 0.950 . S
C868 N864 1.383 . S
C868 C867 1.439 . S
C868 C886 1.392 . S
N869 Co853 2.282 . S
N869 C872 1.332 . S
N869 C874 1.332 . S
C870 C871 1.386 . S
C870 C873 1.388 . S
C871 C870 1.386 . S
C871 C872 1.382 . S
C871 H897 0.950 . S
C872 N869 1.332 . S
C872 C871 1.382 . S
C872 H883 0.952 . S
C873 C870 1.388 . S
C873 C874 1.382 . S
C873 H898 0.950 . S
C874 N869 1.332 . S
C874 C873 1.382 . S
C874 H884 0.948 . S
N875 Co853 2.282 . S
N875 C879 1.332 . S
N875 C880 1.332 . S
C876 C877 1.388 . S
C876 C880 1.382 . S
C876 H899 0.950 . S
C877 C876 1.388 . S
C877 C878 1.386 . S
C878 C877 1.386 . S
C878 C879 1.382 . S
C878 H900 0.950 . S
C879 N875 1.332 . S
C879 C878 1.382 . S
C879 H881 0.952 . S
C880 N875 1.332 . S
C880 C876 1.382 . S
C880 H882 0.948 . S
H881 C879 0.952 . S
H882 C880 0.948 . S
H883 C872 0.952 . S
H884 C874 0.948 . S
C885 C851 1.395 . S
C885 C855 1.391 . S
C886 C848 1.389 . S
C886 C868 1.392 . S
C887 C858 1.392 . S
C887 C860 1.389 . S
C888 C863 1.395 . S
C888 C865 1.391 . S
H889 C849 0.951 1_455 S
H890 C850 0.950 1_455 S
H891 C856 0.949 . S
H892 C857 0.950 . S
H893 C861 0.951 . S
H894 C862 0.950 . S
H895 C866 0.949 . S
H896 C867 0.950 . S
H897 C871 0.950 . S
H898 C873 0.950 . S
H899 C876 0.950 . S
H900 C878 0.950 . S
C901 C902 1.443 . S
C901 N905 1.376 . S
C901 C939 1.389 . S
C902 C901 1.443 . S
C902 C903 1.340 . S
C902 H942 0.951 . S
C903 C902 1.340 . S
C903 C904 1.439 . S
C903 H943 0.950 . S
C904 C903 1.439 . S
C904 N905 1.374 . S
C904 C938 1.395 . S
N905 C901 1.376 . S
N905 C904 1.374 . S
N905 Co906 2.008 . S
Co906 N905 2.008 . S
Co906 N907 1.995 . S
Co906 N912 2.008 . S
Co906 N917 1.995 . S
Co906 N922 2.282 . S
Co906 N928 2.282 . S
N907 Co906 1.995 . S
N907 C908 1.376 . S
N907 C911 1.383 . S
C908 N907 1.376 . S
C908 C909 1.446 . S
C908 C938 1.391 . S
C909 C908 1.446 . S
C909 C910 1.336 1_545 S
C909 H944 0.949 1_545 S
C910 C909 1.336 1_565 S
C910 C911 1.414 1_565 S
C910 H945 0.973 . S
C911 N907 1.383 . S
C911 C910 1.414 1_545 S
C911 C940 1.392 . S
N912 Co906 2.008 . S
N912 C913 1.376 . S
N912 C916 1.374 . S
C913 N912 1.376 . S
C913 C914 1.443 . S
C913 C940 1.389 . S
C914 C913 1.443 . S
C914 C915 1.340 . S
C914 H946 0.951 . S
C915 C914 1.340 . S
C915 C916 1.439 . S
C915 H947 0.950 . S
C916 N912 1.374 . S
C916 C915 1.439 . S
C916 C941 1.395 . S
N917 Co906 1.995 . S
N917 C918 1.376 . S
N917 C921 1.383 . S
C918 N917 1.376 . S
C918 C919 1.446 . S
C918 C941 1.391 . S
C919 C918 1.446 . S
C919 C920 1.339 . S
C919 H948 0.949 . S
C920 C919 1.339 . S
C920 C921 1.439 . S
C920 H949 0.950 . S
C921 N917 1.383 . S
C921 C920 1.439 . S
C921 C939 1.392 . S
N922 Co906 2.282 . S
N922 C925 1.332 . S
N922 C927 1.332 . S
C923 C924 1.386 . S
C923 C926 1.388 1_545 S
C924 C923 1.386 . S
C924 C925 1.382 . S
C924 H950 0.950 . S
C925 N922 1.332 . S
C925 C924 1.382 . S
C925 H936 0.952 . S
C926 C923 1.388 1_565 S
C926 C927 1.382 1_565 S
C926 H951 0.950 . S
C927 N922 1.332 . S
C927 C926 1.382 1_545 S
C927 H937 0.948 . S
N928 Co906 2.282 . S
N928 C932 1.332 . S
N928 C933 1.332 . S
C929 C930 1.388 . S
C929 C933 1.382 . S
C929 H952 0.950 . S
C930 C929 1.388 . S
C930 C931 1.386 . S
C931 C930 1.386 . S
C931 C932 1.382 . S
C931 H953 0.950 . S
C932 N928 1.332 . S
C932 C931 1.382 . S
C932 H934 0.952 . S
C933 N928 1.332 . S
C933 C929 1.382 . S
C933 H935 0.948 . S
H934 C932 0.952 . S
H935 C933 0.948 . S
H936 C925 0.952 . S
H937 C927 0.948 . S
C938 C904 1.395 . S
C938 C908 1.391 . S
C939 C901 1.389 . S
C939 C921 1.392 . S
C940 C911 1.392 . S
C940 C913 1.389 . S
C941 C916 1.395 . S
C941 C918 1.391 . S
H942 C902 0.951 . S
H943 C903 0.950 . S
H944 C909 0.949 1_565 S
H945 C910 0.973 . S
H946 C914 0.951 . S
H947 C915 0.950 . S
H948 C919 0.949 . S
H949 C920 0.950 . S
H950 C924 0.950 . S
H951 C926 0.950 . S
H952 C929 0.950 . S
H953 C931 0.950 . S
C954 C955 1.443 . S
C954 N958 1.376 . S
C954 C992 1.389 . S
C955 C954 1.443 . S
C955 C956 1.340 . S
C955 H995 0.951 . S
C956 C955 1.340 . S
C956 C957 1.439 . S
C956 H996 0.950 . S
C957 C956 1.439 . S
C957 N958 1.374 . S
C957 C991 1.395 . S
N958 C954 1.376 . S
N958 C957 1.374 . S
N958 Co959 2.008 . S
Co959 N958 2.008 . S
Co959 N960 1.995 . S
Co959 N965 2.008 . S
Co959 N970 1.995 . S
Co959 N975 2.282 . S
Co959 N981 2.282 . S
N960 Co959 1.995 . S
N960 C961 1.376 . S
N960 C964 1.383 . S
C961 N960 1.376 . S
C961 C962 1.446 . S
C961 C991 1.391 . S
C962 C961 1.446 . S
C962 C963 1.339 . S
C962 H997 0.949 . S
C963 C962 1.339 . S
C963 C964 1.439 . S
C963 H998 0.950 . S
C964 N960 1.383 . S
C964 C963 1.439 . S
C964 C993 1.392 . S
N965 Co959 2.008 . S
N965 C966 1.376 . S
N965 C969 1.374 . S
C966 N965 1.376 . S
C966 C967 1.443 . S
C966 C993 1.389 . S
C967 C966 1.443 . S
C967 C968 1.340 . S
C967 H999 0.951 . S
C968 C967 1.340 . S
C968 C969 1.439 . S
C968 H1000 0.950 . S
C969 N965 1.374 . S
C969 C968 1.439 . S
C969 C994 1.395 . S
N970 Co959 1.995 . S
N970 C971 1.376 . S
N970 C974 1.383 . S
C971 N970 1.376 . S
C971 C972 1.446 . S
C971 C994 1.391 . S
C972 C971 1.446 . S
C972 C973 1.339 . S
C972 H1001 0.949 . S
C973 C972 1.339 . S
C973 C974 1.439 . S
C973 H1002 0.950 . S
C974 N970 1.383 . S
C974 C973 1.439 . S
C974 C992 1.392 . S
N975 Co959 2.282 . S
N975 C978 1.332 . S
N975 C980 1.332 . S
C976 C977 1.386 . S
C976 C979 1.388 . S
C977 C976 1.386 . S
C977 C978 1.382 . S
C977 H1003 0.950 . S
C978 N975 1.332 . S
C978 C977 1.382 . S
C978 H989 0.952 . S
C979 C976 1.388 . S
C979 C980 1.382 . S
C979 H1004 0.950 . S
C980 N975 1.332 . S
C980 C979 1.382 . S
C980 H990 0.948 . S
N981 Co959 2.282 . S
N981 C985 1.332 . S
N981 C986 1.332 . S
C982 C983 1.388 . S
C982 C986 1.382 . S
C982 H1005 0.950 . S
C983 C982 1.388 . S
C983 C984 1.386 . S
C984 C983 1.386 . S
C984 C985 1.382 . S
C984 H1006 0.950 . S
C985 N981 1.332 . S
C985 C984 1.382 . S
C985 H987 0.952 . S
C986 N981 1.332 . S
C986 C982 1.382 . S
C986 H988 0.948 . S
H987 C985 0.952 . S
H988 C986 0.948 . S
H989 C978 0.952 . S
H990 C980 0.948 . S
C991 C957 1.395 . S
C991 C961 1.391 . S
C992 C954 1.389 . S
C992 C974 1.392 . S
C993 C964 1.392 . S
C993 C966 1.389 . S
C994 C969 1.395 . S
C994 C971 1.391 . S
H995 C955 0.951 . S
H996 C956 0.950 . S
H997 C962 0.949 . S
H998 C963 0.950 . S
H999 C967 0.951 . S
H1000 C968 0.950 . S
H1001 C972 0.949 . S
H1002 C973 0.950 . S
H1003 C977 0.950 . S
H1004 C979 0.950 . S
H1005 C982 0.950 . S
H1006 C984 0.950 . S
C1007 C1008 1.443 . S
C1007 N1011 1.376 . S
C1007 C1045 1.389 . S
C1008 C1007 1.443 . S
C1008 C1009 1.340 . S
C1008 H1048 0.951 . S
C1009 C1008 1.340 . S
C1009 C1010 1.439 . S
C1009 H1049 0.950 . S
C1010 C1009 1.439 . S
C1010 N1011 1.374 . S
C1010 C1044 1.395 . S
N1011 C1007 1.376 . S
N1011 C1010 1.374 . S
N1011 Co1012 2.008 . S
Co1012 N1011 2.008 . S
Co1012 N1013 1.995 . S
Co1012 N1018 2.008 . S
Co1012 N1023 1.995 . S
Co1012 N1028 2.282 . S
Co1012 N1034 2.282 . S
N1013 Co1012 1.995 . S
N1013 C1014 1.376 . S
N1013 C1017 1.383 . S
C1014 N1013 1.376 . S
C1014 C1015 1.446 . S
C1014 C1044 1.391 . S
C1015 C1014 1.446 . S
C1015 C1016 1.339 . S
C1015 H1050 0.949 . S
C1016 C1015 1.339 . S
C1016 C1017 1.439 . S
C1016 H1051 0.950 . S
C1017 N1013 1.383 . S
C1017 C1016 1.439 . S
C1017 C1046 1.392 . S
N1018 Co1012 2.008 . S
N1018 C1019 1.376 . S
N1018 C1022 1.374 . S
C1019 N1018 1.376 . S
C1019 C1020 1.443 . S
C1019 C1046 1.389 . S
C1020 C1019 1.443 . S
C1020 C1021 1.340 . S
C1020 H1052 0.951 . S
C1021 C1020 1.340 . S
C1021 C1022 1.439 . S
C1021 H1053 0.950 . S
C1022 N1018 1.374 . S
C1022 C1021 1.439 . S
C1022 C1047 1.395 . S
N1023 Co1012 1.995 . S
N1023 C1024 1.376 . S
N1023 C1027 1.383 . S
C1024 N1023 1.376 . S
C1024 C1025 1.446 . S
C1024 C1047 1.391 . S
C1025 C1024 1.446 . S
C1025 C1026 1.339 . S
C1025 H1054 0.949 . S
C1026 C1025 1.339 . S
C1026 C1027 1.439 . S
C1026 H1055 0.950 . S
C1027 N1023 1.383 . S
C1027 C1026 1.439 . S
C1027 C1045 1.392 . S
N1028 Co1012 2.282 . S
N1028 C1031 1.332 . S
N1028 C1033 1.332 . S
C1029 C1030 1.386 . S
C1029 C1032 1.388 . S
C1030 C1029 1.386 . S
C1030 C1031 1.382 . S
C1030 H1056 0.950 . S
C1031 N1028 1.332 . S
C1031 C1030 1.382 . S
C1031 H1042 0.952 . S
C1032 C1029 1.388 . S
C1032 C1033 1.382 . S
C1032 H1057 0.950 . S
C1033 N1028 1.332 . S
C1033 C1032 1.382 . S
C1033 H1043 0.948 . S
N1034 Co1012 2.282 . S
N1034 C1038 1.332 . S
N1034 C1039 1.332 . S
C1035 C1036 1.388 . S
C1035 C1039 1.382 . S
C1035 H1058 0.950 . S
C1036 C1035 1.388 . S
C1036 C1037 1.386 . S
C1037 C1036 1.386 . S
C1037 C1038 1.382 . S
C1037 H1059 0.950 . S
C1038 N1034 1.332 . S
C1038 C1037 1.382 . S
C1038 H1040 0.952 . S
C1039 N1034 1.332 . S
C1039 C1035 1.382 . S
C1039 H1041 0.948 . S
H1040 C1038 0.952 . S
H1041 C1039 0.948 . S
H1042 C1031 0.952 . S
H1043 C1033 0.948 . S
C1044 C1010 1.395 . S
C1044 C1014 1.391 . S
C1045 C1007 1.389 . S
C1045 C1027 1.392 . S
C1046 C1017 1.392 . S
C1046 C1019 1.389 . S
C1047 C1022 1.395 . S
C1047 C1024 1.391 . S
H1048 C1008 0.951 . S
H1049 C1009 0.950 . S
H1050 C1015 0.949 . S
H1051 C1016 0.950 . S
H1052 C1020 0.951 . S
H1053 C1021 0.950 . S
H1054 C1025 0.949 . S
H1055 C1026 0.950 . S
H1056 C1030 0.950 . S
H1057 C1032 0.950 . S
H1058 C1035 0.950 . S
H1059 C1037 0.950 . S
C1060 C1061 1.443 . S
C1060 N1064 1.376 . S
C1060 C1098 1.389 . S
C1061 C1060 1.443 . S
C1061 C1062 1.340 . S
C1061 H1101 0.951 . S
C1062 C1061 1.340 . S
C1062 C1063 1.439 . S
C1062 H1102 0.950 . S
C1063 C1062 1.439 . S
C1063 N1064 1.374 . S
C1063 C1097 1.395 . S
N1064 C1060 1.376 . S
N1064 C1063 1.374 . S
N1064 Co1065 2.008 . S
Co1065 N1064 2.008 . S
Co1065 N1066 1.995 . S
Co1065 N1071 2.008 . S
Co1065 N1076 1.995 . S
Co1065 N1081 2.282 . S
Co1065 N1087 2.282 . S
N1066 Co1065 1.995 . S
N1066 C1067 1.376 . S
N1066 C1070 1.383 . S
C1067 N1066 1.376 . S
C1067 C1068 1.446 . S
C1067 C1097 1.391 . S
C1068 C1067 1.446 . S
C1068 C1069 1.339 . S
C1068 H1103 0.949 . S
C1069 C1068 1.339 . S
C1069 C1070 1.439 . S
C1069 H1104 0.950 . S
C1070 N1066 1.383 . S
C1070 C1069 1.439 . S
C1070 C1099 1.392 . S
N1071 Co1065 2.008 . S
N1071 C1072 1.376 . S
N1071 C1075 1.374 . S
C1072 N1071 1.376 . S
C1072 C1073 1.443 . S
C1072 C1099 1.389 . S
C1073 C1072 1.443 . S
C1073 C1074 1.340 . S
C1073 H1105 0.951 . S
C1074 C1073 1.340 . S
C1074 C1075 1.439 . S
C1074 H1106 0.950 . S
C1075 N1071 1.374 . S
C1075 C1074 1.439 . S
C1075 C1100 1.395 . S
N1076 Co1065 1.995 . S
N1076 C1077 1.376 . S
N1076 C1080 1.383 . S
C1077 N1076 1.376 . S
C1077 C1078 1.446 . S
C1077 C1100 1.391 . S
C1078 C1077 1.446 . S
C1078 C1079 1.339 . S
C1078 H1107 0.949 . S
C1079 C1078 1.339 . S
C1079 C1080 1.439 . S
C1079 H1108 0.950 . S
C1080 N1076 1.383 . S
C1080 C1079 1.439 . S
C1080 C1098 1.392 . S
N1081 Co1065 2.282 . S
N1081 C1084 1.332 . S
N1081 C1086 1.332 . S
C1082 C1083 1.386 . S
C1082 C1085 1.388 . S
C1083 C1082 1.386 . S
C1083 C1084 1.382 . S
C1083 H1109 0.950 . S
C1084 N1081 1.332 . S
C1084 C1083 1.382 . S
C1084 H1095 0.952 . S
C1085 C1082 1.388 . S
C1085 C1086 1.382 . S
C1085 H1110 0.950 . S
C1086 N1081 1.332 . S
C1086 C1085 1.382 . S
C1086 H1096 0.948 . S
N1087 Co1065 2.282 . S
N1087 C1091 1.332 . S
N1087 C1092 1.332 . S
C1088 C1089 1.388 . S
C1088 C1092 1.382 . S
C1088 H1111 0.950 . S
C1089 C1088 1.388 . S
C1089 C1090 1.386 . S
C1090 C1089 1.386 . S
C1090 C1091 1.382 . S
C1090 H1112 0.950 . S
C1091 N1087 1.332 . S
C1091 C1090 1.382 . S
C1091 H1093 0.952 . S
C1092 N1087 1.332 . S
C1092 C1088 1.382 . S
C1092 H1094 0.948 . S
H1093 C1091 0.952 . S
H1094 C1092 0.948 . S
H1095 C1084 0.952 . S
H1096 C1086 0.948 . S
C1097 C1063 1.395 . S
C1097 C1067 1.391 . S
C1098 C1060 1.389 . S
C1098 C1080 1.392 . S
C1099 C1070 1.392 . S
C1099 C1072 1.389 . S
C1100 C1075 1.395 . S
C1100 C1077 1.391 . S
H1101 C1061 0.951 . S
H1102 C1062 0.950 . S
H1103 C1068 0.949 . S
H1104 C1069 0.950 . S
H1105 C1073 0.951 . S
H1106 C1074 0.950 . S
H1107 C1078 0.949 . S
H1108 C1079 0.950 . S
H1109 C1083 0.950 . S
H1110 C1085 0.950 . S
H1111 C1088 0.950 . S
H1112 C1090 0.950 . S
C1113 C1114 1.443 . S
C1113 N1117 1.376 . S
C1113 C1151 1.389 . S
C1114 C1113 1.443 . S
C1114 C1115 1.340 . S
C1114 H1154 0.951 . S
C1115 C1114 1.340 . S
C1115 C1116 1.439 . S
C1115 H1155 0.950 . S
C1116 C1115 1.439 . S
C1116 N1117 1.374 . S
C1116 C1150 1.395 . S
N1117 C1113 1.376 . S
N1117 C1116 1.374 . S
N1117 Co1118 2.008 . S
Co1118 N1117 2.008 . S
Co1118 N1119 1.995 . S
Co1118 N1124 2.008 . S
Co1118 N1129 1.995 . S
Co1118 N1134 2.282 . S
Co1118 N1140 2.282 . S
N1119 Co1118 1.995 . S
N1119 C1120 1.376 . S
N1119 C1123 1.383 . S
C1120 N1119 1.376 . S
C1120 C1121 1.446 . S
C1120 C1150 1.391 . S
C1121 C1120 1.446 . S
C1121 C1122 1.339 . S
C1121 H1156 0.949 . S
C1122 C1121 1.339 . S
C1122 C1123 1.439 . S
C1122 H1157 0.950 . S
C1123 N1119 1.383 . S
C1123 C1122 1.439 . S
C1123 C1152 1.392 . S
N1124 Co1118 2.008 . S
N1124 C1125 1.376 . S
N1124 C1128 1.374 . S
C1125 N1124 1.376 . S
C1125 C1126 1.443 . S
C1125 C1152 1.389 . S
C1126 C1125 1.443 . S
C1126 C1127 1.340 . S
C1126 H1158 0.951 . S
C1127 C1126 1.340 . S
C1127 C1128 1.439 . S
C1127 H1159 0.950 . S
C1128 N1124 1.374 . S
C1128 C1127 1.439 . S
C1128 C1153 1.395 . S
N1129 Co1118 1.995 . S
N1129 C1130 1.376 . S
N1129 C1133 1.383 . S
C1130 N1129 1.376 . S
C1130 C1131 1.446 . S
C1130 C1153 1.391 . S
C1131 C1130 1.446 . S
C1131 C1132 1.339 . S
C1131 H1160 0.949 . S
C1132 C1131 1.339 . S
C1132 C1133 1.439 . S
C1132 H1161 0.950 . S
C1133 N1129 1.383 . S
C1133 C1132 1.439 . S
C1133 C1151 1.392 . S
N1134 Co1118 2.282 . S
N1134 C1137 1.332 . S
N1134 C1139 1.332 . S
C1135 C1136 1.386 . S
C1135 C1138 1.388 . S
C1136 C1135 1.386 . S
C1136 C1137 1.382 . S
C1136 H1162 0.950 . S
C1137 N1134 1.332 . S
C1137 C1136 1.382 . S
C1137 H1148 0.952 . S
C1138 C1135 1.388 . S
C1138 C1139 1.382 . S
C1138 H1163 0.950 1_554 S
C1139 N1134 1.332 . S
C1139 C1138 1.382 . S
C1139 H1149 0.948 . S
N1140 Co1118 2.282 . S
N1140 C1144 1.332 . S
N1140 C1145 1.332 . S
C1141 C1142 1.388 . S
C1141 C1145 1.382 . S
C1141 H1164 0.950 . S
C1142 C1141 1.388 . S
C1142 C1143 1.386 . S
C1143 C1142 1.386 . S
C1143 C1144 1.382 . S
C1143 H1165 0.950 . S
C1144 N1140 1.332 . S
C1144 C1143 1.382 . S
C1144 H1146 0.952 . S
C1145 N1140 1.332 . S
C1145 C1141 1.382 . S
C1145 H1147 0.948 . S
H1146 C1144 0.952 . S
H1147 C1145 0.948 . S
H1148 C1137 0.952 . S
H1149 C1139 0.948 . S
C1150 C1116 1.395 . S
C1150 C1120 1.391 . S
C1151 C1113 1.389 . S
C1151 C1133 1.392 . S
C1152 C1123 1.392 . S
C1152 C1125 1.389 . S
C1153 C1128 1.395 . S
C1153 C1130 1.391 . S
H1154 C1114 0.951 . S
H1155 C1115 0.950 . S
H1156 C1121 0.949 . S
H1157 C1122 0.950 . S
H1158 C1126 0.951 . S
H1159 C1127 0.950 . S
H1160 C1131 0.949 . S
H1161 C1132 0.950 . S
H1162 C1136 0.950 . S
H1163 C1138 0.950 1_556 S
H1164 C1141 0.950 . S
H1165 C1143 0.950 . S
C1166 C1167 1.443 . S
C1166 N1170 1.376 . S
C1166 C1204 1.389 . S
C1167 C1166 1.443 . S
C1167 C1168 1.340 . S
C1167 H1207 0.951 . S
C1168 C1167 1.340 . S
C1168 C1169 1.439 . S
C1168 H1208 0.950 . S
C1169 C1168 1.439 . S
C1169 N1170 1.374 . S
C1169 C1203 1.395 . S
N1170 C1166 1.376 . S
N1170 C1169 1.374 . S
N1170 Co1171 2.008 . S
Co1171 N1170 2.008 . S
Co1171 N1172 1.995 . S
Co1171 N1177 2.008 . S
Co1171 N1182 1.995 . S
Co1171 N1187 2.282 . S
Co1171 N1193 2.282 . S
N1172 Co1171 1.995 . S
N1172 C1173 1.376 . S
N1172 C1176 1.383 . S
C1173 N1172 1.376 . S
C1173 C1174 1.446 . S
C1173 C1203 1.391 . S
C1174 C1173 1.446 . S
C1174 C1175 1.339 . S
C1174 H1209 0.949 . S
C1175 C1174 1.339 . S
C1175 C1176 1.439 . S
C1175 H1210 0.950 . S
C1176 N1172 1.383 . S
C1176 C1175 1.439 . S
C1176 C1205 1.392 . S
N1177 Co1171 2.008 . S
N1177 C1178 1.376 . S
N1177 C1181 1.374 . S
C1178 N1177 1.376 . S
C1178 C1179 1.443 . S
C1178 C1205 1.389 . S
C1179 C1178 1.443 . S
C1179 C1180 1.340 . S
C1179 H1211 0.951 . S
C1180 C1179 1.340 . S
C1180 C1181 1.439 . S
C1180 H1212 0.950 . S
C1181 N1177 1.374 . S
C1181 C1180 1.439 . S
C1181 C1206 1.395 . S
N1182 Co1171 1.995 . S
N1182 C1183 1.376 . S
N1182 C1186 1.383 . S
C1183 N1182 1.376 . S
C1183 C1184 1.446 . S
C1183 C1206 1.391 . S
C1184 C1183 1.446 . S
C1184 C1185 1.339 . S
C1184 H1213 0.949 . S
C1185 C1184 1.339 . S
C1185 C1186 1.439 . S
C1185 H1214 0.950 . S
C1186 N1182 1.383 . S
C1186 C1185 1.439 . S
C1186 C1204 1.392 . S
N1187 Co1171 2.282 . S
N1187 C1190 1.332 . S
N1187 C1192 1.332 . S
C1188 C1189 1.386 . S
C1188 C1191 1.388 . S
C1189 C1188 1.386 . S
C1189 C1190 1.382 . S
C1189 H1215 0.950 . S
C1190 N1187 1.332 . S
C1190 C1189 1.382 . S
C1190 H1201 0.952 . S
C1191 C1188 1.388 . S
C1191 C1192 1.382 . S
C1191 H1216 0.950 . S
C1192 N1187 1.332 . S
C1192 C1191 1.382 . S
C1192 H1202 0.948 . S
N1193 Co1171 2.282 . S
N1193 C1197 1.332 . S
N1193 C1198 1.332 . S
C1194 C1195 1.388 . S
C1194 C1198 1.382 . S
C1194 H1217 0.950 . S
C1195 C1194 1.388 . S
C1195 C1196 1.386 . S
C1196 C1195 1.386 . S
C1196 C1197 1.382 . S
C1196 H1218 0.950 . S
C1197 N1193 1.332 . S
C1197 C1196 1.382 . S
C1197 H1199 0.952 . S
C1198 N1193 1.332 . S
C1198 C1194 1.382 . S
C1198 H1200 0.948 . S
H1199 C1197 0.952 . S
H1200 C1198 0.948 . S
H1201 C1190 0.952 . S
H1202 C1192 0.948 . S
C1203 C1169 1.395 . S
C1203 C1173 1.391 . S
C1204 C1166 1.389 . S
C1204 C1186 1.392 . S
C1205 C1176 1.392 . S
C1205 C1178 1.389 . S
C1206 C1181 1.395 . S
C1206 C1183 1.391 . S
H1207 C1167 0.951 . S
H1208 C1168 0.950 . S
H1209 C1174 0.949 . S
H1210 C1175 0.950 . S
H1211 C1179 0.951 . S
H1212 C1180 0.950 . S
H1213 C1184 0.949 . S
H1214 C1185 0.950 . S
H1215 C1189 0.950 . S
H1216 C1191 0.950 . S
H1217 C1194 0.950 . S
H1218 C1196 0.950 . S
C1219 C1220 1.443 . S
C1219 N1223 1.376 . S
C1219 C1257 1.389 . S
C1220 C1219 1.443 . S
C1220 C1221 1.340 . S
C1220 H1260 0.951 . S
C1221 C1220 1.340 . S
C1221 C1222 1.439 . S
C1221 H1261 0.950 . S
C1222 C1221 1.439 . S
C1222 N1223 1.374 . S
C1222 C1256 1.395 . S
N1223 C1219 1.376 . S
N1223 C1222 1.374 . S
N1223 Co1224 2.008 . S
Co1224 N1223 2.008 . S
Co1224 N1225 1.995 . S
Co1224 N1230 2.008 . S
Co1224 N1235 1.995 . S
Co1224 N1240 2.282 . S
Co1224 N1246 2.282 . S
N1225 Co1224 1.995 . S
N1225 C1226 1.376 . S
N1225 C1229 1.383 . S
C1226 N1225 1.376 . S
C1226 C1227 1.446 . S
C1226 C1256 1.391 . S
C1227 C1226 1.446 . S
C1227 C1228 1.339 . S
C1227 H1262 0.949 . S
C1228 C1227 1.339 . S
C1228 C1229 1.439 . S
C1228 H1263 0.950 . S
C1229 N1225 1.383 . S
C1229 C1228 1.439 . S
C1229 C1258 1.392 . S
N1230 Co1224 2.008 . S
N1230 C1231 1.376 . S
N1230 C1234 1.374 . S
C1231 N1230 1.376 . S
C1231 C1232 1.443 . S
C1231 C1258 1.389 . S
C1232 C1231 1.443 . S
C1232 C1233 1.340 . S
C1232 H1264 0.951 . S
C1233 C1232 1.340 . S
C1233 C1234 1.439 . S
C1233 H1265 0.950 . S
C1234 N1230 1.374 . S
C1234 C1233 1.439 . S
C1234 C1259 1.395 . S
N1235 Co1224 1.995 . S
N1235 C1236 1.376 . S
N1235 C1239 1.383 . S
C1236 N1235 1.376 . S
C1236 C1237 1.446 . S
C1236 C1259 1.391 . S
C1237 C1236 1.446 . S
C1237 C1238 1.339 . S
C1237 H1266 0.949 . S
C1238 C1237 1.339 . S
C1238 C1239 1.439 . S
C1238 H1267 0.950 . S
C1239 N1235 1.383 . S
C1239 C1238 1.439 . S
C1239 C1257 1.392 . S
N1240 Co1224 2.282 . S
N1240 C1243 1.332 . S
N1240 C1245 1.332 . S
C1241 C1242 1.386 . S
C1241 C1244 1.388 . S
C1242 C1241 1.386 . S
C1242 C1243 1.382 . S
C1242 H1268 0.950 . S
C1243 N1240 1.332 . S
C1243 C1242 1.382 . S
C1243 H1254 0.952 . S
C1244 C1241 1.388 . S
C1244 C1245 1.382 . S
C1244 H1269 0.950 . S
C1245 N1240 1.332 . S
C1245 C1244 1.382 . S
C1245 H1255 0.948 . S
N1246 Co1224 2.282 . S
N1246 C1250 1.332 . S
N1246 C1251 1.332 . S
C1247 C1248 1.388 . S
C1247 C1251 1.382 . S
C1247 H1270 0.950 . S
C1248 C1247 1.388 . S
C1248 C1249 1.386 . S
C1249 C1248 1.386 . S
C1249 C1250 1.382 . S
C1249 H1271 0.950 1_655 S
C1250 N1246 1.332 . S
C1250 C1249 1.382 . S
C1250 H1252 0.952 . S
C1251 N1246 1.332 . S
C1251 C1247 1.382 . S
C1251 H1253 0.948 . S
H1252 C1250 0.952 . S
H1253 C1251 0.948 . S
H1254 C1243 0.952 . S
H1255 C1245 0.948 . S
C1256 C1222 1.395 . S
C1256 C1226 1.391 . S
C1257 C1219 1.389 . S
C1257 C1239 1.392 . S
C1258 C1229 1.392 . S
C1258 C1231 1.389 . S
C1259 C1234 1.395 . S
C1259 C1236 1.391 . S
H1260 C1220 0.951 . S
H1261 C1221 0.950 . S
H1262 C1227 0.949 . S
H1263 C1228 0.950 . S
H1264 C1232 0.951 . S
H1265 C1233 0.950 . S
H1266 C1237 0.949 . S
H1267 C1238 0.950 . S
H1268 C1242 0.950 . S
H1269 C1244 0.950 . S
H1270 C1247 0.950 . S
H1271 C1249 0.950 1_455 S
C1272 C1273 1.387 . S
C1272 H1276 0.950 . S
C1272 C1281 1.390 . S
C1273 C1272 1.387 . S
C1273 C1275 1.387 . S
H1274 C1281 0.950 . S
C1275 C1273 1.387 . S
C1275 C1277 1.390 . S
C1275 H1279 0.950 . S
H1276 C1272 0.950 . S
C1277 C1275 1.390 . S
C1277 C1278 1.387 . S
C1277 H1280 0.950 . S
C1278 C1277 1.387 . S
C1278 C1281 1.387 . S
H1279 C1275 0.950 . S
H1280 C1277 0.950 . S
C1281 C1272 1.390 . S
C1281 H1274 0.950 . S
C1281 C1278 1.387 . S
C1282 C1283 1.387 . S
C1282 H1286 0.950 . S
C1282 C1291 1.390 1_655 S
C1283 C1282 1.387 . S
C1283 C1285 1.387 . S
H1284 C1291 0.950 . S
C1285 C1283 1.387 . S
C1285 C1287 1.390 . S
C1285 H1289 0.950 . S
H1286 C1282 0.950 . S
C1287 C1285 1.390 . S
C1287 C1288 1.387 1_655 S
C1287 H1290 0.950 . S
C1288 C1287 1.387 1_455 S
C1288 C1291 1.387 . S
H1289 C1285 0.950 . S
H1290 C1287 0.950 . S
C1291 C1282 1.390 1_455 S
C1291 H1284 0.950 . S
C1291 C1288 1.387 . S
C1292 C1293 1.387 . S
C1292 H1296 0.950 . S
C1292 C1301 1.390 . S
C1293 C1292 1.387 . S
C1293 C1295 1.387 . S
H1294 C1301 0.950 . S
C1295 C1293 1.387 . S
C1295 C1297 1.390 . S
C1295 H1299 0.950 . S
H1296 C1292 0.950 . S
C1297 C1295 1.390 . S
C1297 C1298 1.387 . S
C1297 H1300 0.924 1_554 S
C1298 C1297 1.387 . S
C1298 C1301 1.387 . S
H1299 C1295 0.950 . S
H1300 C1297 0.924 1_556 S
C1301 C1292 1.390 . S
C1301 H1294 0.950 . S
C1301 C1298 1.387 . S
C1302 C1303 1.387 . S
C1302 H1306 0.950 . S
C1302 C1311 1.390 . S
C1303 C1302 1.387 . S
C1303 C1305 1.387 . S
H1304 C1311 0.950 . S
C1305 C1303 1.387 . S
C1305 C1307 1.390 . S
C1305 H1309 0.950 . S
H1306 C1302 0.950 . S
C1307 C1305 1.390 . S
C1307 C1308 1.387 . S
C1307 H1310 0.950 . S
C1308 C1307 1.387 . S
C1308 C1311 1.387 . S
H1309 C1305 0.950 . S
H1310 C1307 0.950 . S
C1311 C1302 1.390 . S
C1311 H1304 0.950 . S
C1311 C1308 1.387 . S
C1312 C1313 1.387 . S
C1312 H1316 0.950 . S
C1312 C1321 1.390 1_556 S
C1313 C1312 1.387 . S
C1313 C1315 1.387 . S
H1314 C1321 0.950 . S
C1315 C1313 1.387 . S
C1315 C1317 1.390 1_556 S
C1315 H1319 0.950 . S
H1316 C1312 0.950 . S
C1317 C1315 1.390 1_554 S
C1317 C1318 1.387 . S
C1317 H1320 0.950 . S
C1318 C1317 1.387 . S
C1318 C1321 1.387 . S
H1319 C1315 0.950 . S
H1320 C1317 0.950 . S
C1321 C1312 1.390 1_554 S
C1321 H1314 0.950 . S
C1321 C1318 1.387 . S
C1322 C1323 1.387 . S
C1322 H1326 0.950 . S
C1322 C1331 1.390 . S
C1323 C1322 1.387 . S
C1323 C1325 1.387 . S
H1324 C1331 0.950 . S
C1325 C1323 1.387 . S
C1325 C1327 1.390 . S
C1325 H1329 0.950 . S
H1326 C1322 0.950 . S
C1327 C1325 1.390 . S
C1327 C1328 1.387 . S
C1327 H1330 0.950 . S
C1328 C1327 1.387 . S
C1328 C1331 1.387 . S
H1329 C1325 0.950 . S
H1330 C1327 0.950 . S
C1331 C1322 1.390 . S
C1331 H1324 0.950 . S
C1331 C1328 1.387 . S
C1332 C1333 1.387 . S
C1332 H1336 0.950 . S
C1332 C1341 1.390 . S
C1333 C1332 1.387 . S
C1333 C1335 1.387 . S
H1334 C1341 0.950 . S
C1335 C1333 1.387 . S
C1335 C1337 1.390 . S
C1335 H1339 0.950 . S
H1336 C1332 0.950 . S
C1337 C1335 1.390 . S
C1337 C1338 1.387 . S
C1337 H1340 0.950 . S
C1338 C1337 1.387 . S
C1338 C1341 1.387 . S
H1339 C1335 0.950 . S
H1340 C1337 0.950 . S
C1341 C1332 1.390 . S
C1341 H1334 0.950 . S
C1341 C1338 1.387 . S
C1342 C1343 1.387 . S
C1342 H1346 0.950 . S
C1342 C1351 1.390 1_455 S
C1343 C1342 1.387 . S
C1343 C1345 1.387 . S
H1344 C1351 0.950 . S
C1345 C1343 1.387 . S
C1345 C1347 1.390 1_455 S
C1345 H1349 0.950 . S
H1346 C1342 0.950 . S
C1347 C1345 1.390 1_655 S
C1347 C1348 1.387 . S
C1347 H1350 0.950 . S
C1348 C1347 1.387 . S
C1348 C1351 1.387 . S
H1349 C1345 0.950 . S
H1350 C1347 0.950 . S
C1351 C1342 1.390 1_655 S
C1351 H1344 0.950 . S
C1351 C1348 1.387 . S
C1352 C1353 1.387 . S
C1352 H1356 0.950 . S
C1352 C1361 1.390 . S
C1353 C1352 1.387 . S
C1353 C1355 1.387 . S
H1354 C1361 0.950 . S
C1355 C1353 1.387 . S
C1355 C1357 1.390 . S
C1355 H1359 0.950 . S
H1356 C1352 0.950 . S
C1357 C1355 1.390 . S
C1357 C1358 1.387 . S
C1357 H1360 0.950 . S
C1358 C1357 1.387 . S
C1358 C1361 1.387 . S
H1359 C1355 0.950 . S
H1360 C1357 0.950 . S
C1361 C1352 1.390 . S
C1361 H1354 0.950 . S
C1361 C1358 1.387 . S
C1362 C1363 1.387 . S
C1362 H1366 0.950 . S
C1362 C1371 1.390 . S
C1363 C1362 1.387 . S
C1363 C1365 1.387 . S
H1364 C1371 0.950 . S
C1365 C1363 1.387 . S
C1365 C1367 1.390 . S
C1365 H1369 0.950 1_565 S
H1366 C1362 0.950 . S
C1367 C1365 1.390 . S
C1367 C1368 1.387 . S
C1367 H1370 0.950 . S
C1368 C1367 1.387 . S
C1368 C1371 1.387 . S
H1369 C1365 0.950 1_545 S
H1370 C1367 0.950 . S
C1371 C1362 1.390 . S
C1371 H1364 0.950 . S
C1371 C1368 1.387 . S
C1372 C1373 1.387 . S
C1372 H1376 0.950 . S
C1372 C1381 1.390 . S
C1373 C1372 1.387 . S
C1373 C1375 1.387 . S
H1374 C1381 0.950 . S
C1375 C1373 1.387 . S
C1375 C1377 1.390 . S
C1375 H1379 0.950 . S
H1376 C1372 0.950 . S
C1377 C1375 1.390 . S
C1377 C1378 1.387 . S
C1377 H1380 0.950 . S
C1378 C1377 1.387 . S
C1378 C1381 1.387 . S
H1379 C1375 0.950 . S
H1380 C1377 0.950 . S
C1381 C1372 1.390 . S
C1381 H1374 0.950 . S
C1381 C1378 1.387 . S
C1382 C1383 1.387 . S
C1382 H1386 0.950 . S
C1382 C1391 1.390 . S
C1383 C1382 1.387 . S
C1383 C1385 1.387 . S
H1384 C1391 0.950 . S
C1385 C1383 1.387 . S
C1385 C1387 1.392 . S
C1385 H1389 0.950 . S
H1386 C1382 0.950 . S
C1387 C1385 1.392 . S
C1387 C1388 1.387 1_545 S
C1387 H1390 0.948 1_545 S
C1388 C1387 1.387 1_565 S
C1388 C1391 1.387 1_565 S
H1389 C1385 0.950 . S
H1390 C1387 0.948 1_565 S
C1391 C1382 1.390 . S
C1391 H1384 0.950 . S
C1391 C1388 1.387 1_545 S
C1392 C1393 1.387 . S
C1392 H1396 0.950 . S
C1392 C1401 1.390 . S
C1393 C1392 1.387 . S
C1393 C1395 1.387 . S
H1394 C1401 0.950 . S
C1395 C1393 1.387 . S
C1395 C1397 1.390 . S
C1395 H1399 0.950 . S
H1396 C1392 0.950 . S
C1397 C1395 1.390 . S
C1397 C1398 1.387 . S
C1397 H1400 0.950 . S
C1398 C1397 1.387 . S
C1398 C1401 1.387 . S
H1399 C1395 0.950 . S
H1400 C1397 0.950 . S
C1401 C1392 1.390 . S
C1401 H1394 0.950 . S
C1401 C1398 1.387 . S
C1402 C1403 1.387 . S
C1402 H1406 0.950 . S
C1402 C1411 1.390 . S
C1403 C1402 1.387 . S
C1403 C1405 1.387 . S
H1404 C1411 0.950 . S
C1405 C1403 1.387 . S
C1405 C1407 1.390 . S
C1405 H1409 0.950 . S
H1406 C1402 0.950 . S
C1407 C1405 1.390 . S
C1407 C1408 1.387 . S
C1407 H1410 0.950 . S
C1408 C1407 1.387 . S
C1408 C1411 1.387 . S
H1409 C1405 0.950 . S
H1410 C1407 0.950 . S
C1411 C1402 1.390 . S
C1411 H1404 0.950 . S
C1411 C1408 1.387 . S
C1412 C1413 1.387 . S
C1412 H1416 0.950 . S
C1412 C1421 1.390 . S
C1413 C1412 1.387 . S
C1413 C1415 1.387 . S
H1414 C1421 0.950 . S
C1415 C1413 1.387 . S
C1415 C1417 1.390 . S
C1415 H1419 0.950 . S
H1416 C1412 0.950 . S
C1417 C1415 1.390 . S
C1417 C1418 1.387 . S
C1417 H1420 0.950 . S
C1418 C1417 1.387 . S
C1418 C1421 1.387 . S
H1419 C1415 0.950 . S
H1420 C1417 0.950 . S
C1421 C1412 1.390 . S
C1421 H1414 0.950 . S
C1421 C1418 1.387 . S
C1422 C1423 1.387 1_554 S
C1422 H1426 0.950 . S
C1422 C1431 1.390 . S
C1423 C1422 1.387 1_556 S
C1423 C1425 1.387 . S
H1424 C1431 0.950 . S
C1425 C1423 1.387 . S
C1425 C1427 1.390 . S
C1425 H1429 0.950 . S
H1426 C1422 0.950 . S
C1427 C1425 1.390 . S
C1427 C1428 1.387 1_556 S
C1427 H1430 0.950 . S
C1428 C1427 1.387 1_554 S
C1428 C1431 1.387 . S
H1429 C1425 0.950 . S
H1430 C1427 0.950 . S
C1431 C1422 1.390 . S
C1431 H1424 0.950 . S
C1431 C1428 1.387 . S
C1432 C1433 1.387 . S
C1432 H1436 0.950 . S
C1432 C1441 1.390 . S
C1433 C1432 1.387 . S
C1433 C1435 1.387 . S
H1434 C1441 0.950 . S
C1435 C1433 1.387 . S
C1435 C1437 1.390 . S
C1435 H1439 0.950 . S
H1436 C1432 0.950 . S
C1437 C1435 1.390 . S
C1437 C1438 1.387 . S
C1437 H1440 0.950 . S
C1438 C1437 1.387 . S
C1438 C1441 1.387 . S
H1439 C1435 0.950 . S
H1440 C1437 0.950 . S
C1441 C1432 1.390 . S
C1441 H1434 0.950 . S
C1441 C1438 1.387 . S
C1442 C1443 1.387 . S
C1442 H1446 0.950 . S
C1442 C1451 1.390 . S
C1443 C1442 1.387 . S
C1443 C1445 1.387 . S
H1444 C1451 0.950 . S
C1445 C1443 1.387 . S
C1445 C1447 1.390 . S
C1445 H1449 0.950 . S
H1446 C1442 0.950 . S
C1447 C1445 1.390 . S
C1447 C1448 1.387 . S
C1447 H1450 0.950 . S
C1448 C1447 1.387 . S
C1448 C1451 1.387 . S
H1449 C1445 0.950 . S
H1450 C1447 0.950 . S
C1451 C1442 1.390 . S
C1451 H1444 0.950 . S
C1451 C1448 1.387 . S
C1452 C1453 1.387 . S
C1452 H1456 0.950 . S
C1452 C1461 1.390 . S
C1453 C1452 1.387 . S
C1453 C1455 1.387 . S
H1454 C1461 0.950 . S
C1455 C1453 1.387 . S
C1455 C1457 1.390 . S
C1455 H1459 0.950 . S
H1456 C1452 0.950 . S
C1457 C1455 1.390 . S
C1457 C1458 1.387 . S
C1457 H1460 0.950 . S
C1458 C1457 1.387 . S
C1458 C1461 1.387 . S
H1459 C1455 0.950 . S
H1460 C1457 0.950 . S
C1461 C1452 1.390 . S
C1461 H1454 0.950 . S
C1461 C1458 1.387 . S
C1462 C1463 1.387 . S
C1462 H1466 0.950 . S
C1462 C1471 1.390 . S
C1463 C1462 1.387 . S
C1463 C1465 1.387 . S
H1464 C1471 0.950 . S
C1465 C1463 1.387 . S
C1465 C1467 1.390 . S
C1465 H1469 0.950 . S
H1466 C1462 0.950 . S
C1467 C1465 1.390 . S
C1467 C1468 1.387 . S
C1467 H1470 0.950 . S
C1468 C1467 1.387 . S
C1468 C1471 1.387 . S
H1469 C1465 0.950 . S
H1470 C1467 0.950 . S
C1471 C1462 1.390 . S
C1471 H1464 0.950 . S
C1471 C1468 1.387 . S
C1472 C1473 1.387 . S
C1472 H1476 0.950 . S
C1472 C1481 1.390 . S
C1473 C1472 1.387 . S
C1473 C1475 1.387 . S
H1474 C1481 0.950 . S
C1475 C1473 1.387 . S
C1475 C1477 1.390 . S
C1475 H1479 0.950 . S
H1476 C1472 0.950 . S
C1477 C1475 1.390 . S
C1477 C1478 1.387 . S
C1477 H1480 0.950 . S
C1478 C1477 1.387 . S
C1478 C1481 1.387 . S
H1479 C1475 0.950 . S
H1480 C1477 0.950 . S
C1481 C1472 1.390 . S
C1481 H1474 0.950 . S
C1481 C1478 1.387 . S
C1482 C1483 1.387 . S
C1482 H1486 0.950 . S
C1482 C1491 1.390 . S
C1483 C1482 1.387 . S
C1483 C1485 1.387 . S
H1484 C1491 0.950 . S
C1485 C1483 1.387 . S
C1485 C1487 1.390 . S
C1485 H1489 0.950 . S
H1486 C1482 0.950 . S
C1487 C1485 1.390 . S
C1487 C1488 1.387 1_556 S
C1487 H1490 0.950 1_556 S
C1488 C1487 1.387 1_554 S
C1488 C1491 1.387 1_554 S
H1489 C1485 0.950 . S
H1490 C1487 0.950 1_554 S
C1491 C1482 1.390 . S
C1491 H1484 0.950 . S
C1491 C1488 1.387 1_556 S
C1492 C1493 1.387 . S
C1492 H1496 0.950 . S
C1492 C1501 1.390 . S
C1493 C1492 1.387 . S
C1493 C1495 1.387 . S
H1494 C1501 0.950 . S
C1495 C1493 1.387 . S
C1495 C1497 1.390 . S
C1495 H1499 0.950 . S
H1496 C1492 0.950 . S
C1497 C1495 1.390 . S
C1497 C1498 1.387 . S
C1497 H1500 0.950 . S
C1498 C1497 1.387 . S
C1498 C1501 1.387 . S
H1499 C1495 0.950 . S
H1500 C1497 0.950 . S
C1501 C1492 1.390 . S
C1501 H1494 0.950 . S
C1501 C1498 1.387 . S
C1502 C1503 1.387 . S
C1502 H1506 0.950 . S
C1502 C1511 1.390 . S
C1503 C1502 1.387 . S
C1503 C1505 1.387 . S
H1504 C1511 0.950 . S
C1505 C1503 1.387 . S
C1505 C1507 1.390 . S
C1505 H1509 0.950 . S
H1506 C1502 0.950 . S
C1507 C1505 1.390 . S
C1507 C1508 1.388 1_565 S
C1507 H1510 0.950 . S
C1508 C1507 1.388 1_545 S
C1508 C1511 1.388 1_545 S
H1509 C1505 0.950 . S
H1510 C1507 0.950 . S
C1511 C1502 1.390 . S
C1511 H1504 0.950 . S
C1511 C1508 1.388 1_565 S
C1512 C1513 1.387 . S
C1512 H1516 0.950 . S
C1512 C1521 1.390 . S
C1513 C1512 1.387 . S
C1513 C1515 1.387 . S
H1514 C1521 0.950 . S
C1515 C1513 1.387 . S
C1515 C1517 1.390 . S
C1515 H1519 0.950 . S
H1516 C1512 0.950 . S
C1517 C1515 1.390 . S
C1517 C1518 1.387 . S
C1517 H1520 0.950 . S
C1518 C1517 1.387 . S
C1518 C1521 1.387 . S
H1519 C1515 0.950 . S
H1520 C1517 0.950 . S
C1521 C1512 1.390 . S
C1521 H1514 0.950 . S
C1521 C1518 1.387 . S
C1522 C1523 1.387 . S
C1522 H1526 0.950 . S
C1522 C1531 1.390 . S
C1523 C1522 1.387 . S
C1523 C1525 1.387 . S
H1524 C1531 0.950 . S
C1525 C1523 1.387 . S
C1525 C1527 1.390 . S
C1525 H1529 0.950 . S
H1526 C1522 0.950 . S
C1527 C1525 1.390 . S
C1527 C1528 1.387 . S
C1527 H1530 0.950 . S
C1528 C1527 1.387 . S
C1528 C1531 1.387 . S
H1529 C1525 0.950 . S
H1530 C1527 0.950 . S
C1531 C1522 1.390 . S
C1531 H1524 0.950 . S
C1531 C1528 1.387 . S
C1532 C1533 1.387 . S
C1532 H1536 0.950 . S
C1532 C1541 1.390 . S
C1533 C1532 1.387 . S
C1533 C1535 1.387 . S
H1534 C1541 0.950 . S
C1535 C1533 1.387 . S
C1535 C1537 1.390 . S
C1535 H1539 0.950 . S
H1536 C1532 0.950 . S
C1537 C1535 1.390 . S
C1537 C1538 1.387 . S
C1537 H1540 0.950 . S
C1538 C1537 1.387 . S
C1538 C1541 1.387 . S
H1539 C1535 0.950 . S
H1540 C1537 0.950 . S
C1541 C1532 1.390 . S
C1541 H1534 0.950 . S
C1541 C1538 1.387 . S
C1542 C1543 1.387 . S
C1542 H1546 0.950 . S
C1542 C1551 1.390 1_556 S
C1543 C1542 1.387 . S
C1543 C1545 1.387 . S
H1544 C1551 0.950 . S
C1545 C1543 1.387 . S
C1545 C1547 1.390 . S
C1545 H1549 0.950 . S
H1546 C1542 0.950 . S
C1547 C1545 1.390 . S
C1547 C1548 1.387 1_556 S
C1547 H1550 0.950 . S
C1548 C1547 1.387 1_554 S
C1548 C1551 1.387 . S
H1549 C1545 0.950 . S
H1550 C1547 0.950 . S
C1551 C1542 1.390 1_554 S
C1551 H1544 0.950 . S
C1551 C1548 1.387 . S
C1552 C1553 1.387 . S
C1552 H1556 0.950 . S
C1552 C1561 1.390 . S
C1553 C1552 1.387 . S
C1553 C1555 1.387 . S
H1554 C1561 0.950 . S
C1555 C1553 1.387 . S
C1555 C1557 1.390 . S
C1555 H1559 0.950 . S
H1556 C1552 0.950 . S
C1557 C1555 1.390 . S
C1557 C1558 1.387 . S
C1557 H1560 0.950 . S
C1558 C1557 1.387 . S
C1558 C1561 1.387 . S
H1559 C1555 0.950 . S
H1560 C1557 0.950 . S
C1561 C1552 1.390 . S
C1561 H1554 0.950 . S
C1561 C1558 1.387 . S
C1562 C1563 1.387 . S
C1562 H1566 0.950 . S
C1562 C1571 1.390 . S
C1563 C1562 1.387 . S
C1563 C1565 1.387 . S
H1564 C1571 0.950 . S
C1565 C1563 1.387 . S
C1565 C1567 1.390 . S
C1565 H1569 0.950 . S
H1566 C1562 0.950 . S
C1567 C1565 1.390 . S
C1567 C1568 1.387 . S
C1567 H1570 0.950 . S
C1568 C1567 1.387 . S
C1568 C1571 1.387 . S
H1569 C1565 0.950 . S
H1570 C1567 0.950 . S
C1571 C1562 1.390 . S
C1571 H1564 0.950 . S
C1571 C1568 1.387 . S
C1572 C1573 1.387 . S
C1572 H1576 0.950 . S
C1572 C1581 1.390 . S
C1573 C1572 1.387 . S
C1573 C1575 1.387 . S
H1574 C1581 0.950 . S
C1575 C1573 1.387 . S
C1575 C1577 1.390 . S
C1575 H1579 0.950 . S
H1576 C1572 0.950 . S
C1577 C1575 1.390 . S
C1577 C1578 1.387 1_554 S
C1577 H1580 0.950 1_554 S
C1578 C1577 1.387 1_556 S
C1578 C1581 1.387 1_556 S
H1579 C1575 0.950 . S
H1580 C1577 0.950 1_556 S
C1581 C1572 1.390 . S
C1581 H1574 0.950 . S
C1581 C1578 1.387 1_554 S
C1582 C1583 1.387 1_545 S
C1582 H1586 0.950 . S
C1582 C1591 1.390 1_545 S
C1583 C1582 1.387 1_565 S
C1583 C1585 1.387 . S
H1584 C1591 0.955 . S
C1585 C1583 1.387 . S
C1585 C1587 1.390 . S
C1585 H1589 0.950 . S
H1586 C1582 0.950 . S
C1587 C1585 1.390 . S
C1587 C1588 1.387 . S
C1587 H1590 0.950 . S
C1588 C1587 1.387 . S
C1588 C1591 1.387 . S
H1589 C1585 0.950 . S
H1590 C1587 0.950 . S
C1591 C1582 1.390 1_565 S
C1591 H1584 0.955 . S
C1591 C1588 1.387 . S
C1592 C1593 1.387 . S
C1592 H1596 0.950 . S
C1592 C1601 1.390 . S
C1593 C1592 1.387 . S
C1593 C1595 1.387 . S
H1594 C1601 0.950 . S
C1595 C1593 1.387 . S
C1595 C1597 1.390 . S
C1595 H1599 0.950 . S
H1596 C1592 0.950 . S
C1597 C1595 1.390 . S
C1597 C1598 1.387 . S
C1597 H1600 0.950 . S
C1598 C1597 1.387 . S
C1598 C1601 1.387 . S
H1599 C1595 0.950 . S
H1600 C1597 0.950 . S
C1601 C1592 1.390 . S
C1601 H1594 0.950 . S
C1601 C1598 1.387 . S
C1602 C1603 1.387 . S
C1602 H1606 0.950 . S
C1602 C1611 1.390 1_655 S
C1603 C1602 1.387 . S
C1603 C1605 1.387 . S
H1604 C1611 0.950 . S
C1605 C1603 1.387 . S
C1605 C1607 1.390 1_655 S
C1605 H1609 0.950 . S
H1606 C1602 0.950 . S
C1607 C1605 1.390 1_455 S
C1607 C1608 1.387 . S
C1607 H1610 0.950 . S
C1608 C1607 1.387 . S
C1608 C1611 1.387 . S
H1609 C1605 0.950 . S
H1610 C1607 0.950 . S
C1611 C1602 1.390 1_455 S
C1611 H1604 0.950 . S
C1611 C1608 1.387 . S
C1612 C1613 1.387 . S
C1612 H1616 0.950 . S
C1612 C1621 1.390 . S
C1613 C1612 1.387 . S
C1613 C1615 1.387 . S
H1614 C1621 0.950 . S
C1615 C1613 1.387 . S
C1615 C1617 1.390 . S
C1615 H1619 0.950 . S
H1616 C1612 0.950 . S
C1617 C1615 1.390 . S
C1617 C1618 1.387 . S
C1617 H1620 0.950 . S
C1618 C1617 1.387 . S
C1618 C1621 1.387 . S
H1619 C1615 0.950 . S
H1620 C1617 0.950 . S
C1621 C1612 1.390 . S
C1621 H1614 0.950 . S
C1621 C1618 1.387 . S
C1622 C1623 1.387 . S
C1622 H1626 0.950 . S
C1622 C1631 1.390 . S
C1623 C1622 1.387 . S
C1623 C1625 1.387 . S
H1624 C1631 0.950 . S
C1625 C1623 1.387 . S
C1625 C1627 1.390 . S
C1625 H1629 0.950 . S
H1626 C1622 0.950 . S
C1627 C1625 1.390 . S
C1627 C1628 1.387 . S
C1627 H1630 0.950 . S
C1628 C1627 1.387 . S
C1628 C1631 1.387 . S
H1629 C1625 0.950 . S
H1630 C1627 0.950 . S
C1631 C1622 1.390 . S
C1631 H1624 0.950 . S
C1631 C1628 1.387 . S
C1632 C1633 1.387 . S
C1632 H1636 0.950 . S
C1632 C1641 1.390 1_455 S
C1633 C1632 1.387 . S
C1633 C1635 1.387 . S
H1634 C1641 0.950 . S
C1635 C1633 1.387 . S
C1635 C1637 1.390 1_455 S
C1635 H1639 0.950 . S
H1636 C1632 0.950 . S
C1637 C1635 1.390 1_655 S
C1637 C1638 1.387 . S
C1637 H1640 0.950 . S
C1638 C1637 1.387 . S
C1638 C1641 1.387 . S
H1639 C1635 0.950 . S
H1640 C1637 0.950 . S
C1641 C1632 1.390 1_655 S
C1641 H1634 0.950 . S
C1641 C1638 1.387 . S
C1642 C1643 1.387 . S
C1642 H1646 0.950 . S
C1642 C1651 1.390 1_455 S
C1643 C1642 1.387 . S
C1643 C1645 1.387 . S
H1644 C1651 0.950 . S
C1645 C1643 1.387 . S
C1645 C1647 1.390 1_455 S
C1645 H1649 0.950 . S
H1646 C1642 0.950 . S
C1647 C1645 1.390 1_655 S
C1647 C1648 1.387 . S
C1647 H1650 0.950 . S
C1648 C1647 1.387 . S
C1648 C1651 1.387 . S
H1649 C1645 0.950 . S
H1650 C1647 0.950 . S
C1651 C1642 1.390 1_655 S
C1651 H1644 0.950 . S
C1651 C1648 1.387 . S
C1652 C1653 1.387 . S
C1652 H1656 0.950 . S
C1652 C1661 1.390 . S
C1653 C1652 1.387 . S
C1653 C1655 1.387 . S
H1654 C1661 0.950 . S
C1655 C1653 1.387 . S
C1655 C1657 1.390 . S
C1655 H1659 0.950 . S
H1656 C1652 0.950 . S
C1657 C1655 1.390 . S
C1657 C1658 1.387 . S
C1657 H1660 0.950 . S
C1658 C1657 1.387 . S
C1658 C1661 1.387 . S
H1659 C1655 0.950 . S
H1660 C1657 0.950 . S
C1661 C1652 1.390 . S
C1661 H1654 0.950 . S
C1661 C1658 1.387 . S
C1662 C1663 1.387 . S
C1662 H1666 0.950 . S
C1662 C1671 1.390 . S
C1663 C1662 1.387 . S
C1663 C1665 1.387 . S
H1664 C1671 0.950 . S
C1665 C1663 1.387 . S
C1665 C1667 1.390 . S
C1665 H1669 0.950 . S
H1666 C1662 0.950 . S
C1667 C1665 1.390 . S
C1667 C1668 1.387 . S
C1667 H1670 0.950 . S
C1668 C1667 1.387 . S
C1668 C1671 1.387 . S
H1669 C1665 0.950 . S
H1670 C1667 0.950 . S
C1671 C1662 1.390 . S
C1671 H1664 0.950 . S
C1671 C1668 1.387 . S
C1672 C1673 1.387 . S
C1672 H1676 0.950 . S
C1672 C1681 1.390 . S
C1673 C1672 1.387 . S
C1673 C1675 1.387 . S
H1674 C1681 0.950 1_554 S
C1675 C1673 1.387 . S
C1675 C1677 1.390 . S
C1675 H1679 0.950 . S
H1676 C1672 0.950 . S
C1677 C1675 1.390 . S
C1677 C1678 1.387 1_556 S
C1677 H1680 0.950 . S
C1678 C1677 1.387 1_554 S
C1678 C1681 1.387 1_554 S
H1679 C1675 0.950 . S
H1680 C1677 0.950 . S
C1681 C1672 1.390 . S
C1681 H1674 0.950 1_556 S
C1681 C1678 1.387 1_556 S
C1682 C1683 1.387 . S
C1682 H1686 0.950 . S
C1682 C1691 1.368 1_545 S
C1683 C1682 1.387 . S
C1683 C1685 1.387 . S
H1684 C1691 0.975 . S
C1685 C1683 1.387 . S
C1685 C1687 1.390 . S
C1685 H1689 0.950 . S
H1686 C1682 0.950 . S
C1687 C1685 1.390 . S
C1687 C1688 1.387 . S
C1687 H1690 0.950 . S
C1688 C1687 1.387 . S
C1688 C1691 1.385 1_545 S
H1689 C1685 0.950 . S
H1690 C1687 0.950 . S
C1691 C1682 1.368 1_565 S
C1691 H1684 0.975 . S
C1691 C1688 1.385 1_565 S
C1692 C1693 1.387 . S
C1692 H1696 0.950 . S
C1692 C1701 1.390 . S
C1693 C1692 1.387 . S
C1693 C1695 1.387 . S
H1694 C1701 0.950 . S
C1695 C1693 1.387 . S
C1695 C1697 1.390 . S
C1695 H1699 0.950 . S
H1696 C1692 0.950 . S
C1697 C1695 1.390 . S
C1697 C1698 1.387 . S
C1697 H1700 0.950 . S
C1698 C1697 1.387 . S
C1698 C1701 1.387 . S
H1699 C1695 0.950 . S
H1700 C1697 0.950 . S
C1701 C1692 1.390 . S
C1701 H1694 0.950 . S
C1701 C1698 1.387 . S
C1702 C1703 1.387 . S
C1702 H1706 0.950 . S
C1702 C1711 1.390 . S
C1703 C1702 1.387 . S
C1703 C1705 1.387 . S
H1704 C1711 0.950 . S
C1705 C1703 1.387 . S
C1705 C1707 1.390 . S
C1705 H1709 0.950 . S
H1706 C1702 0.950 . S
C1707 C1705 1.390 . S
C1707 C1708 1.387 . S
C1707 H1710 0.950 . S
C1708 C1707 1.387 . S
C1708 C1711 1.387 . S
H1709 C1705 0.950 . S
H1710 C1707 0.950 . S
C1711 C1702 1.390 . S
C1711 H1704 0.950 . S
C1711 C1708 1.387 . S
C1712 C1713 1.387 . S
C1712 H1716 0.950 . S
C1712 C1721 1.390 . S
C1713 C1712 1.387 . S
C1713 C1715 1.387 . S
H1714 C1721 0.950 . S
C1715 C1713 1.387 . S
C1715 C1717 1.390 . S
C1715 H1719 0.950 . S
H1716 C1712 0.950 . S
C1717 C1715 1.390 . S
C1717 C1718 1.387 . S
C1717 H1720 0.950 . S
C1718 C1717 1.387 . S
C1718 C1721 1.387 . S
H1719 C1715 0.950 . S
H1720 C1717 0.950 . S
C1721 C1712 1.390 . S
C1721 H1714 0.950 . S
C1721 C1718 1.387 . S
C1722 C1723 1.387 . S
C1722 H1726 0.950 . S
C1722 C1731 1.390 . S
C1723 C1722 1.387 . S
C1723 C1725 1.387 . S
H1724 C1731 0.950 . S
C1725 C1723 1.387 . S
C1725 C1727 1.390 . S
C1725 H1729 0.950 . S
H1726 C1722 0.950 . S
C1727 C1725 1.390 . S
C1727 C1728 1.387 . S
C1727 H1730 0.950 . S
C1728 C1727 1.387 . S
C1728 C1731 1.387 . S
H1729 C1725 0.950 . S
H1730 C1727 0.950 . S
C1731 C1722 1.390 . S
C1731 H1724 0.950 . S
C1731 C1728 1.387 . S
C1732 C1733 1.387 . S
C1732 H1736 0.950 . S
C1732 C1741 1.390 . S
C1733 C1732 1.387 . S
C1733 C1735 1.387 . S
H1734 C1741 0.950 . S
C1735 C1733 1.387 . S
C1735 C1737 1.390 . S
C1735 H1739 0.950 . S
H1736 C1732 0.950 . S
C1737 C1735 1.390 . S
C1737 C1738 1.387 . S
C1737 H1740 0.950 . S
C1738 C1737 1.387 . S
C1738 C1741 1.387 . S
H1739 C1735 0.950 . S
H1740 C1737 0.950 . S
C1741 C1732 1.390 . S
C1741 H1734 0.950 . S
C1741 C1738 1.387 . S
C1742 C1743 1.387 . S
C1742 H1746 0.950 . S
C1742 C1751 1.390 . S
C1743 C1742 1.387 . S
C1743 C1745 1.387 . S
H1744 C1751 0.950 . S
C1745 C1743 1.387 . S
C1745 C1747 1.390 . S
C1745 H1749 0.950 . S
H1746 C1742 0.950 . S
C1747 C1745 1.390 . S
C1747 C1748 1.387 . S
C1747 H1750 0.950 . S
C1748 C1747 1.387 . S
C1748 C1751 1.387 . S
H1749 C1745 0.950 . S
H1750 C1747 0.950 . S
C1751 C1742 1.390 . S
C1751 H1744 0.950 . S
C1751 C1748 1.387 . S
C1273 C29 1.423 . S
C1278 C506 1.422 . S
C1283 C82 1.230 . S
C1288 C559 1.226 . S
C1293 C622 1.758 . S
C1298 C135 1.766 1_554 S
C1303 C463 1.679 . S
C1308 C188 1.680 . S
C1313 C569 1.515 . S
C1318 C251 1.513 . S
C1323 C304 1.367 . S
C1328 C612 1.379 . S
C1333 C357 1.598 . S
C1338 C453 1.598 . S
C1343 C516 1.756 . S
C1348 C410 1.755 . S
C1353 C241 1.530 . S
C1358 C674 1.532 . S
C1363 C400 1.287 1_565 S
C1368 C817 1.284 . S
C1373 C887 1.728 . S
C1378 C294 1.737 1_545 S
C1383 C198 1.549 . S
C1388 C728 1.552 . S
C1393 C780 1.596 . S
C1398 C347 1.595 . S
C1403 C39 1.637 . S
C1408 C1036 1.635 . S
C1413 C145 1.362 . S
C1418 C983 1.364 . S
C1423 C833 1.500 . S
C1428 C1152 1.490 . S
C1433 C1205 1.592 . S
C1438 C658 1.593 . S
C1443 C1258 1.285 . S
C1448 C877 1.292 . S
C1453 C1099 1.294 . S
C1458 C764 1.299 1_655 S
C1463 C1195 1.483 . S
C1468 C930 1.480 . S
C1473 C993 1.745 . S
C1478 C1248 1.750 1_455 S
C1483 C1089 1.265 . S
C1488 C718 1.264 . S
C1493 C1046 1.414 . S
C1498 C1142 1.414 . S
C1503 C92 1.568 . S
C1508 C940 1.567 . S
C1513 C250 1.274 . S
C1518 C22 1.263 . S
C1523 C75 1.042 . S
C1528 C303 1.050 . S
C1533 C128 1.441 . S
C1538 C356 1.454 . S
C1543 C409 1.445 . S
C1548 C181 1.433 . S
C1553 C462 1.532 . S
C1558 C515 1.526 . S
C1563 C499 1.254 1_565 S
C1568 C568 1.263 . S
C1573 C605 1.010 . S
C1578 C552 1.014 . S
C1583 C446 1.393 1_565 S
C1588 C621 1.405 . S
C1593 C197 1.320 . S
C1598 C675 1.314 . S
C1603 C393 1.010 . S
C1608 C976 1.011 . S
C1613 C234 1.346 1_655 S
C1618 C727 1.350 . S
C1623 C1029 1.311 . S
C1628 C287 1.305 . S
C1633 C781 1.304 . S
C1638 C91 1.309 . S
C1643 C38 1.395 . S
C1648 C886 1.400 . S
C1653 C144 0.978 . S
C1658 C824 0.977 . S
C1663 C834 1.240 . S
C1668 C923 1.243 1_565 S
C1673 C992 1.338 . S
C1678 C665 1.326 . S
C1683 C870 1.018 . S
C1688 C711 1.024 1_545 S
C1693 C771 1.118 . S
C1698 C1045 1.122 . S
C1703 C1135 1.169 1_556 S
C1708 C1098 1.175 . S
C1713 C1188 1.253 . S
C1718 C1151 1.260 . S
C1723 C1241 1.456 . S
C1728 C1204 1.469 . S
C1733 C1082 1.086 . S
C1738 C1257 1.099 . S
C1743 C939 1.332 . S
C1748 C340 1.328 . S
