# Generated by pormake.
# Topology wjn, (5)-cn, num edge types: 1
# Building blocks:
#     Node 0, Type 0, BuildingBlock: BEQFEK_clean_sbu_0, # of connection points: 5
#     Node 1, Type 0, BuildingBlock: BEQFEK_clean_sbu_0, # of connection points: 5
#     Node 2, Type 0, BuildingBlock: BEQFEK_clean_sbu_0, # of connection points: 5
#     Node 3, Type 0, BuildingBlock: BEQFEK_clean_sbu_0, # of connection points: 5
#     Node 4, Type 0, BuildingBlock: BEQFEK_clean_sbu_0, # of connection points: 5
#     Node 5, Type 0, BuildingBlock: BEQFEK_clean_sbu_0, # of connection points: 5
#     Node 6, Type 0, BuildingBlock: BEQFEK_clean_sbu_0, # of connection points: 5
#     Node 7, Type 0, BuildingBlock: BEQFEK_clean_sbu_0, # of connection points: 5
#     Node 8, Type 0, BuildingBlock: BEQFEK_clean_sbu_0, # of connection points: 5
#     Node 9, Type 0, BuildingBlock: BEQFEK_clean_sbu_0, # of connection points: 5
#     Node 10, Type 0, BuildingBlock: BEQFEK_clean_sbu_0, # of connection points: 5
#     Node 11, Type 0, BuildingBlock: BEQFEK_clean_sbu_0, # of connection points: 5
#     Edge 12, Type (0, 0), BuildingBlock: KIFKEQ_clean_linker_1, # of connection points: 2
#     Edge 13, Type (0, 0), BuildingBlock: KIFKEQ_clean_linker_1, # of connection points: 2
#     Edge 14, Type (0, 0), BuildingBlock: KIFKEQ_clean_linker_1, # of connection points: 2
#     Edge 15, Type (0, 0), BuildingBlock: KIFKEQ_clean_linker_1, # of connection points: 2
#     Edge 16, Type (0, 0), BuildingBlock: KIFKEQ_clean_linker_1, # of connection points: 2
#     Edge 17, Type (0, 0), BuildingBlock: KIFKEQ_clean_linker_1, # of connection points: 2
#     Edge 18, Type (0, 0), BuildingBlock: KIFKEQ_clean_linker_1, # of connection points: 2
#     Edge 19, Type (0, 0), BuildingBlock: KIFKEQ_clean_linker_1, # of connection points: 2
#     Edge 20, Type (0, 0), BuildingBlock: KIFKEQ_clean_linker_1, # of connection points: 2
#     Edge 21, Type (0, 0), BuildingBlock: KIFKEQ_clean_linker_1, # of connection points: 2
#     Edge 22, Type (0, 0), BuildingBlock: KIFKEQ_clean_linker_1, # of connection points: 2
#     Edge 23, Type (0, 0), BuildingBlock: KIFKEQ_clean_linker_1, # of connection points: 2
#     Edge 24, Type (0, 0), BuildingBlock: KIFKEQ_clean_linker_1, # of connection points: 2
#     Edge 25, Type (0, 0), BuildingBlock: KIFKEQ_clean_linker_1, # of connection points: 2
#     Edge 26, Type (0, 0), BuildingBlock: KIFKEQ_clean_linker_1, # of connection points: 2
#     Edge 27, Type (0, 0), BuildingBlock: KIFKEQ_clean_linker_1, # of connection points: 2
#     Edge 28, Type (0, 0), BuildingBlock: KIFKEQ_clean_linker_1, # of connection points: 2
#     Edge 29, Type (0, 0), BuildingBlock: KIFKEQ_clean_linker_1, # of connection points: 2
#     Edge 30, Type (0, 0), BuildingBlock: KIFKEQ_clean_linker_1, # of connection points: 2
#     Edge 31, Type (0, 0), BuildingBlock: KIFKEQ_clean_linker_1, # of connection points: 2
#     Edge 32, Type (0, 0), BuildingBlock: KIFKEQ_clean_linker_1, # of connection points: 2
#     Edge 33, Type (0, 0), BuildingBlock: KIFKEQ_clean_linker_1, # of connection points: 2
#     Edge 34, Type (0, 0), BuildingBlock: KIFKEQ_clean_linker_1, # of connection points: 2
#     Edge 35, Type (0, 0), BuildingBlock: KIFKEQ_clean_linker_1, # of connection points: 2
#     Edge 36, Type (0, 0), BuildingBlock: KIFKEQ_clean_linker_1, # of connection points: 2
#     Edge 37, Type (0, 0), BuildingBlock: KIFKEQ_clean_linker_1, # of connection points: 2
#     Edge 38, Type (0, 0), BuildingBlock: KIFKEQ_clean_linker_1, # of connection points: 2
#     Edge 39, Type (0, 0), BuildingBlock: KIFKEQ_clean_linker_1, # of connection points: 2
#     Edge 40, Type (0, 0), BuildingBlock: KIFKEQ_clean_linker_1, # of connection points: 2
#     Edge 41, Type (0, 0), BuildingBlock: KIFKEQ_clean_linker_1, # of connection points: 2
# Relax obj value: 0.377
# Max RMSD: 0.197
# Mean RMSD: 0.197
data_MOF--net-wjn--node1-BEQFEK_clean_sbu_0--edge1-KIFKEQ_clean_linker_1
_symmetry_space_group_name_H-M    P1
_symmetry_Int_Tables_number       1
_symmetry_cell_setting            triclinic
loop_
_symmetry_equiv_pos_as_xyz
'x, y, z'
_cell_length_a     35.588547
_cell_length_b     35.609928
_cell_length_c     76.969984
_cell_angle_alpha  89.924821
_cell_angle_beta   90.04974
_cell_angle_gamma 120.00055
loop_
_atom_site_label
_atom_site_type_symbol
_atom_site_fract_x
_atom_site_fract_y
_atom_site_fract_z
_atom_type_partial_charge
Co0 Co 0.1466 0.43585 0.1083 0.0
Co1 Co 0.21749 0.41847 0.12332 0.0
C2 C 0.21122 0.4963 0.13422 0.0
O3 O 0.17978 0.48544 0.12381 0.0
O4 O 0.22916 0.47319 0.13583 0.0
C5 C 0.12389 0.48749 0.08893 0.0
O6 O 0.16457 0.5167 0.09194 0.0
C7 C 0.30697 0.44053 0.12967 0.0
C8 C 0.30278 0.37664 0.13132 0.0
C9 C 0.33189 0.42086 0.13167 0.0
N10 N 0.26508 0.40948 0.12831 0.0
N11 N 0.26271 0.37131 0.12946 0.0
C12 C 0.32288 0.48783 0.12715 0.0
H13 H 0.3007 0.49238 0.11839 0.0
H14 H 0.35617 0.50473 0.12166 0.0
H15 H 0.32344 0.50255 0.13992 0.0
C16 C 0.18085 0.42675 0.07519 0.0
N17 N 0.18183 0.42805 0.09262 0.0
N18 N 0.21368 0.42275 0.09837 0.0
C19 C 0.23494 0.41914 0.08441 0.0
C20 C 0.21478 0.42203 0.06935 0.0
C21 C 0.14611 0.42659 0.0641 0.0
H22 H 0.15396 0.46045 0.06171 0.0
H23 H 0.14387 0.41127 0.0513 0.0
H24 H 0.11419 0.40838 0.07062 0.0
O25 O 0.11233 0.38291 0.12173 0.0
O26 O 0.16136 0.3685 0.13299 0.0
H27 H 0.28416 0.40946 0.07225 0.0
H28 H 0.3004 0.44115 0.09202 0.0
C29 C 0.2734 0.41291 0.08539 0.0
H30 H 0.26503 0.38354 0.09318 0.0
H31 H 0.23392 0.34166 0.12843 0.0
O32 O 0.10823 0.44964 0.09524 0.0
C33 C 0.12189 0.35924 0.13099 0.0
Co34 Co 0.71318 0.13809 0.44321 0.0
Co35 Co 0.79921 0.21479 0.45719 0.0
C36 C 0.71387 0.20481 0.46758 0.0
O37 O 0.69486 0.17115 0.45814 0.0
O38 O 0.75508 0.22594 0.46883 0.0
C39 C 0.63996 0.11354 0.42341 0.0
O40 O 0.65245 0.15476 0.4255 0.0
C41 C 0.8655 0.3054 0.46281 0.0
C42 C 0.9261 0.30263 0.46344 0.0
C43 C 0.9102 0.33105 0.46416 0.0
N44 N 0.85538 0.26373 0.46146 0.0
N45 N 0.89174 0.26224 0.46199 0.0
C46 C 0.8332 0.3204 0.46095 0.0
H47 H 0.80643 0.29831 0.4522 0.0
H48 H 0.84868 0.35394 0.45575 0.0
H49 H 0.8192 0.31978 0.4739 0.0
C50 C 0.75519 0.17006 0.4097 0.0
N51 N 0.75514 0.17295 0.42709 0.0
N52 N 0.7907 0.20768 0.4323 0.0
C53 C 0.81381 0.22912 0.41799 0.0
C54 C 0.79155 0.20583 0.40327 0.0
C55 C 0.72252 0.13238 0.39919 0.0
H56 H 0.71001 0.10182 0.40666 0.0
H57 H 0.69537 0.13773 0.39563 0.0
H58 H 0.73717 0.1292 0.38695 0.0
O59 O 0.73442 0.10686 0.45712 0.0
O60 O 0.79522 0.16087 0.46837 0.0
H61 H 0.88013 0.267 0.42572 0.0
H62 H 0.86798 0.28262 0.405 0.0
C63 C 0.85569 0.27117 0.41834 0.0
H64 H 0.85091 0.29591 0.42511 0.0
H65 H 0.89319 0.23379 0.46082 0.0
O66 O 0.66129 0.09779 0.43048 0.0
C67 C 0.76776 0.12037 0.46674 0.0
Co68 Co 0.57623 0.71926 0.77824 0.0
Co69 Co 0.58191 0.80368 0.79224 0.0
C70 C 0.50755 0.71654 0.80183 0.0
O71 O 0.52333 0.69835 0.79252 0.0
O72 O 0.52669 0.75767 0.80318 0.0
C73 C 0.53305 0.64398 0.75868 0.0
O74 O 0.50104 0.65203 0.76049 0.0
C75 C 0.55246 0.86627 0.79637 0.0
C76 C 0.61298 0.92727 0.8021 0.0
C77 C 0.56871 0.91008 0.79971 0.0
N78 N 0.58546 0.85808 0.79689 0.0
N79 N 0.62154 0.89462 0.80042 0.0
C80 C 0.5072 0.83324 0.79122 0.0
H81 H 0.50733 0.8072 0.78337 0.0
H82 H 0.49178 0.8485 0.78366 0.0
H83 H 0.48769 0.81835 0.8031 0.0
C84 C 0.58533 0.76123 0.74465 0.0
N85 N 0.58246 0.76101 0.76206 0.0
N86 N 0.58276 0.79629 0.76732 0.0
C87 C 0.5845 0.81955 0.75304 0.0
C88 C 0.58575 0.79756 0.7383 0.0
C89 C 0.58969 0.72836 0.73404 0.0
H90 H 0.60935 0.71703 0.74108 0.0
H91 H 0.55699 0.70051 0.73129 0.0
H92 H 0.60559 0.74225 0.72139 0.0
O93 O 0.62758 0.74191 0.79298 0.0
O94 O 0.63181 0.80148 0.80426 0.0
H95 H 0.60855 0.88372 0.76293 0.0
H96 H 0.59175 0.87695 0.74037 0.0
C97 C 0.58433 0.86142 0.75339 0.0
H98 H 0.55188 0.8552 0.75752 0.0
H99 H 0.6521 0.89742 0.80135 0.0
O100 O 0.56942 0.66877 0.76576 0.0
C101 C 0.64587 0.77482 0.80286 0.0
Co102 Co 0.85948 0.57807 0.1101 0.0
Co103 Co 0.77937 0.5828 0.12352 0.0
C104 C 0.79273 0.50914 0.1336 0.0
O105 O 0.82722 0.52533 0.12457 0.0
O106 O 0.77022 0.52781 0.13458 0.0
C107 C 0.89014 0.53428 0.09033 0.0
O108 O 0.84959 0.5032 0.09197 0.0
C109 C 0.68896 0.55748 0.1326 0.0
C110 C 0.68499 0.614 0.12323 0.0
C111 C 0.66005 0.57257 0.12997 0.0
N112 N 0.72859 0.58797 0.1271 0.0
N113 N 0.72608 0.62199 0.12184 0.0
C114 C 0.68002 0.51602 0.14114 0.0
H115 H 0.70662 0.52253 0.15031 0.0
H116 H 0.67858 0.49298 0.13111 0.0
H117 H 0.64926 0.50115 0.14861 0.0
C118 C 0.82779 0.58738 0.07635 0.0
N119 N 0.82443 0.58432 0.09374 0.0
N120 N 0.78808 0.58222 0.09868 0.0
C121 C 0.76585 0.58127 0.08418 0.0
C122 C 0.79068 0.58468 0.06966 0.0
C123 C 0.86646 0.59433 0.06604 0.0
H124 H 0.89668 0.61356 0.0736 0.0
H125 H 0.86279 0.56247 0.06255 0.0
H126 H 0.86897 0.61179 0.05375 0.0
O127 O 0.8878 0.62961 0.12447 0.0
O128 O 0.83181 0.63355 0.13531 0.0
H129 H 0.72315 0.60674 0.08644 0.0
H130 H 0.70515 0.56256 0.07132 0.0
C131 C 0.72111 0.57506 0.08408 0.0
H132 H 0.70135 0.55227 0.09454 0.0
H133 H 0.75205 0.64996 0.11658 0.0
O134 O 0.90282 0.57054 0.09769 0.0
C135 C 0.8727 0.648 0.13403 0.0
Co136 Co 0.28132 0.85767 0.44362 0.0
Co137 Co 0.19579 0.77801 0.4568 0.0
C138 C 0.28243 0.79254 0.46837 0.0
O139 O 0.30105 0.8265 0.45905 0.0
O140 O 0.24121 0.76979 0.46899 0.0
C141 C 0.35587 0.88586 0.42446 0.0
O142 O 0.34478 0.84495 0.42646 0.0
C143 C 0.13044 0.68749 0.46538 0.0
C144 C 0.06994 0.68445 0.45655 0.0
C145 C 0.08631 0.659 0.46286 0.0
N146 N 0.13974 0.72741 0.46024 0.0
N147 N 0.10323 0.72545 0.4553 0.0
C148 C 0.16299 0.67783 0.47344 0.0
H149 H 0.1828 0.70339 0.48301 0.0
H150 H 0.18491 0.67776 0.4632 0.0
H151 H 0.14721 0.64631 0.48037 0.0
C152 C 0.2425 0.82486 0.40972 0.0
N153 N 0.24133 0.82168 0.42712 0.0
N154 N 0.20647 0.78577 0.43198 0.0
C155 C 0.18536 0.76376 0.41743 0.0
C156 C 0.20794 0.78802 0.40294 0.0
C157 C 0.27392 0.86401 0.39954 0.0
H158 H 0.2844 0.89394 0.40721 0.0
H159 H 0.30248 0.86099 0.396 0.0
H160 H 0.25892 0.86665 0.38728 0.0
O161 O 0.25675 0.88645 0.45696 0.0
O162 O 0.19633 0.83067 0.46763 0.0
H163 H 0.1168 0.72391 0.41992 0.0
H164 H 0.14077 0.70421 0.40444 0.0
C165 C 0.14534 0.72009 0.41728 0.0
H166 H 0.14732 0.69934 0.42758 0.0
H167 H 0.10135 0.75176 0.45036 0.0
O168 O 0.33309 0.90008 0.43139 0.0
C169 C 0.22254 0.87151 0.46611 0.0
Co170 Co 0.43665 0.28687 0.77401 0.0
Co171 Co 0.41231 0.19631 0.78876 0.0
C172 C 0.49322 0.2788 0.80006 0.0
O173 O 0.48602 0.3014 0.7893 0.0
O174 O 0.46695 0.2383 0.80176 0.0
C175 C 0.48997 0.36337 0.75571 0.0
O176 O 0.51966 0.35276 0.75909 0.0
C177 C 0.43299 0.12716 0.79115 0.0
C178 C 0.37515 0.07346 0.80358 0.0
C179 C 0.41583 0.08486 0.79706 0.0
N180 N 0.40373 0.13993 0.79386 0.0
N181 N 0.36912 0.10764 0.80126 0.0
C182 C 0.47785 0.15641 0.78433 0.0
H183 H 0.48516 0.19048 0.78375 0.0
H184 H 0.48079 0.14655 0.77099 0.0
H185 H 0.50205 0.15392 0.79262 0.0
C186 C 0.42657 0.24379 0.7407 0.0
N187 N 0.42729 0.24357 0.75816 0.0
N188 N 0.41669 0.20462 0.7638 0.0
C189 C 0.40877 0.17861 0.74978 0.0
C190 C 0.41567 0.20312 0.73479 0.0
C191 C 0.43218 0.28103 0.72971 0.0
H192 H 0.41405 0.29575 0.73546 0.0
H193 H 0.46711 0.30567 0.72896 0.0
H194 H 0.42007 0.27063 0.71629 0.0
O195 O 0.38356 0.2694 0.78759 0.0
O196 O 0.36321 0.2037 0.79808 0.0
H197 H 0.37541 0.11479 0.73841 0.0
H198 H 0.42082 0.1258 0.75197 0.0
C199 C 0.39279 0.13102 0.75054 0.0
H200 H 0.37089 0.11624 0.76182 0.0
H201 H 0.34169 0.10914 0.80494 0.0
O202 O 0.45155 0.33981 0.76129 0.0
C203 C 0.35725 0.23612 0.79634 0.0
Co204 Co 0.58104 0.8624 0.56765 0.0
Co205 Co 0.58263 0.78017 0.55496 0.0
C206 C 0.50929 0.79413 0.54537 0.0
O207 O 0.52678 0.82928 0.55399 0.0
O208 O 0.52712 0.77086 0.54443 0.0
C209 C 0.54061 0.89357 0.58883 0.0
O210 O 0.51305 0.85173 0.58991 0.0
C211 C 0.55637 0.68909 0.54671 0.0
C212 C 0.6135 0.6856 0.55565 0.0
C213 C 0.5717 0.66037 0.5493 0.0
N214 N 0.58717 0.72895 0.55182 0.0
N215 N 0.6215 0.72669 0.55685 0.0
C216 C 0.51433 0.67971 0.53857 0.0
H217 H 0.52023 0.70584 0.52925 0.0
H218 H 0.49196 0.6788 0.54881 0.0
H219 H 0.49897 0.64859 0.53137 0.0
C220 C 0.59408 0.83363 0.60157 0.0
N221 N 0.58873 0.82869 0.58427 0.0
N222 N 0.58445 0.79121 0.57968 0.0
C223 C 0.58393 0.76977 0.59435 0.0
C224 C 0.59031 0.79636 0.60861 0.0
C225 C 0.60411 0.87378 0.61147 0.0
H226 H 0.62064 0.90284 0.60305 0.0
H227 H 0.57363 0.87056 0.61672 0.0
H228 H 0.6254 0.87798 0.62273 0.0
O229 O 0.63105 0.88885 0.5524 0.0
O230 O 0.6325 0.83108 0.54211 0.0
H231 H 0.60624 0.72444 0.59242 0.0
H232 H 0.56304 0.70939 0.60783 0.0
C233 C 0.57544 0.72423 0.59488 0.0
H234 H 0.55173 0.70454 0.58467 0.0
H235 H 0.64979 0.7529 0.56177 0.0
O236 O 0.57425 0.90691 0.57946 0.0
C237 C 0.64779 0.87215 0.54277 0.0
Co238 Co 0.71464 0.56872 0.8995 0.0
Co239 Co 0.80351 0.58354 0.88623 0.0
C240 C 0.72022 0.50643 0.87484 0.0
O241 O 0.69894 0.51828 0.88435 0.0
O242 O 0.76138 0.52876 0.87383 0.0
C243 C 0.63961 0.51707 0.91804 0.0
O244 O 0.65243 0.48872 0.91555 0.0
C245 C 0.87053 0.56042 0.88109 0.0
C246 C 0.93096 0.62385 0.88013 0.0
C247 C 0.91519 0.57953 0.87958 0.0
N248 N 0.86026 0.59187 0.88232 0.0
N249 N 0.8965 0.62978 0.88163 0.0
C250 C 0.83842 0.51315 0.88316 0.0
H251 H 0.81153 0.50863 0.89181 0.0
H252 H 0.85405 0.49545 0.88861 0.0
H253 H 0.82459 0.49924 0.87025 0.0
C254 C 0.75489 0.57779 0.93341 0.0
N255 N 0.75617 0.57642 0.916 0.0
N256 N 0.79321 0.58014 0.91102 0.0
C257 C 0.81619 0.58249 0.92546 0.0
C258 C 0.79216 0.58066 0.94004 0.0
C259 C 0.72001 0.57927 0.94377 0.0
H260 H 0.70708 0.59738 0.9366 0.0
H261 H 0.69351 0.54574 0.94636 0.0
H262 H 0.73264 0.59537 0.95649 0.0
O263 O 0.73514 0.62177 0.88583 0.0
O264 O 0.79835 0.63295 0.87537 0.0
H265 H 0.88287 0.61506 0.91791 0.0
H266 H 0.87224 0.588 0.93876 0.0
C267 C 0.85977 0.58589 0.92536 0.0
H268 H 0.85738 0.55709 0.91878 0.0
H269 H 0.89781 0.65963 0.88263 0.0
O270 O 0.66142 0.55497 0.91172 0.0
C271 C 0.76912 0.64373 0.87673 0.0
Co272 Co 0.13772 0.72053 0.23339 0.0
Co273 Co 0.21713 0.805 0.21971 0.0
C274 C 0.20581 0.71813 0.21091 0.0
O275 O 0.17129 0.69984 0.21994 0.0
O276 O 0.22741 0.75923 0.2094 0.0
C277 C 0.10574 0.64824 0.25484 0.0
O278 O 0.14727 0.66089 0.25581 0.0
C279 C 0.30943 0.86829 0.21581 0.0
C280 C 0.30933 0.92876 0.20958 0.0
C281 C 0.33677 0.91209 0.21224 0.0
N282 N 0.26808 0.85967 0.21518 0.0
N283 N 0.26822 0.89592 0.21137 0.0
C284 C 0.32195 0.83559 0.22116 0.0
H285 H 0.29576 0.80948 0.22901 0.0
H286 H 0.35251 0.85115 0.22879 0.0
H287 H 0.32687 0.82067 0.20937 0.0
C288 C 0.16731 0.76436 0.26696 0.0
N289 N 0.17151 0.76315 0.24964 0.0
N290 N 0.20749 0.7977 0.24456 0.0
C291 C 0.2285 0.82084 0.2589 0.0
C292 C 0.20344 0.80016 0.27347 0.0
C293 C 0.12891 0.73259 0.27739 0.0
H294 H 0.0989 0.71893 0.2695 0.0
H295 H 0.13439 0.70625 0.28206 0.0
H296 H 0.12466 0.74851 0.28901 0.0
O297 O 0.10955 0.74239 0.21808 0.0
O298 O 0.16518 0.8025 0.2072 0.0
H299 H 0.27165 0.88448 0.2491 0.0
H300 H 0.27966 0.87697 0.27182 0.0
C301 C 0.2717 0.86147 0.25881 0.0
H302 H 0.29704 0.85363 0.25504 0.0
H303 H 0.24029 0.89837 0.21024 0.0
O304 O 0.0935 0.66955 0.24551 0.0
C305 C 0.12442 0.7755 0.20829 0.0
Co306 Co 0.41228 0.13207 0.56349 0.0
Co307 Co 0.40848 0.2134 0.55149 0.0
C308 C 0.48296 0.20198 0.54138 0.0
O309 O 0.46611 0.16671 0.54992 0.0
O310 O 0.46422 0.22444 0.54044 0.0
C311 C 0.45461 0.10246 0.58434 0.0
O312 O 0.48135 0.1445 0.58528 0.0
C313 C 0.43575 0.30556 0.54749 0.0
C314 C 0.37322 0.30461 0.54778 0.0
C315 C 0.4177 0.33223 0.54694 0.0
N316 N 0.40343 0.26409 0.54849 0.0
N317 N 0.36612 0.26374 0.54853 0.0
C318 C 0.48285 0.31925 0.54882 0.0
H319 H 0.48717 0.29638 0.55724 0.0
H320 H 0.50197 0.35254 0.55416 0.0
H321 H 0.49533 0.31863 0.53568 0.0
C322 C 0.39878 0.1588 0.59765 0.0
N323 N 0.40393 0.16459 0.58039 0.0
N324 N 0.40698 0.20174 0.57611 0.0
C325 C 0.40646 0.22203 0.59094 0.0
C326 C 0.40152 0.19528 0.60502 0.0
C327 C 0.38881 0.11807 0.60714 0.0
H328 H 0.37241 0.08953 0.59847 0.0
H329 H 0.41926 0.12097 0.61229 0.0
H330 H 0.36743 0.11313 0.61844 0.0
O331 O 0.36188 0.10514 0.54847 0.0
O332 O 0.35843 0.16241 0.5388 0.0
H333 H 0.38499 0.26675 0.58482 0.0
H334 H 0.41343 0.27729 0.60531 0.0
C335 C 0.41229 0.26657 0.59169 0.0
H336 H 0.44273 0.28964 0.58493 0.0
H337 H 0.33585 0.23568 0.54957 0.0
O338 O 0.42069 0.08821 0.57505 0.0
C339 C 0.34397 0.12146 0.53928 0.0
Co340 Co 0.27984 0.41586 0.89931 0.0
Co341 Co 0.19479 0.41104 0.88611 0.0
C342 C 0.28159 0.48575 0.8766 0.0
O343 O 0.30003 0.46949 0.8855 0.0
O344 O 0.24042 0.46665 0.87542 0.0
C345 C 0.3535 0.45945 0.91929 0.0
O346 O 0.34233 0.4894 0.91822 0.0
C347 C 0.13008 0.43694 0.87737 0.0
C348 C 0.06959 0.38109 0.88713 0.0
C349 C 0.08633 0.42248 0.88031 0.0
N350 N 0.13889 0.40615 0.88276 0.0
N351 N 0.10235 0.37253 0.88825 0.0
C352 C 0.16261 0.47817 0.86869 0.0
H353 H 0.18204 0.47125 0.85935 0.0
H354 H 0.18482 0.50114 0.87862 0.0
H355 H 0.14673 0.49333 0.8614 0.0
C356 C 0.23858 0.40415 0.93305 0.0
N357 N 0.2381 0.40776 0.91569 0.0
N358 N 0.20411 0.41056 0.91093 0.0
C359 C 0.18341 0.41177 0.92555 0.0
C360 C 0.20478 0.40755 0.93996 0.0
C361 C 0.27023 0.3966 0.94314 0.0
H362 H 0.28156 0.37813 0.93528 0.0
H363 H 0.29823 0.42821 0.94704 0.0
H364 H 0.25497 0.37812 0.95521 0.0
O365 O 0.25743 0.3659 0.88423 0.0
O366 O 0.19685 0.36106 0.8737 0.0
H367 H 0.11553 0.38852 0.92372 0.0
H368 H 0.14361 0.43279 0.93866 0.0
C369 C 0.14595 0.41967 0.92589 0.0
H370 H 0.14938 0.44257 0.9154 0.0
H371 H 0.10016 0.34449 0.89353 0.0
O372 O 0.33097 0.42347 0.91157 0.0
C373 C 0.22403 0.34743 0.87458 0.0
Co374 Co 0.85881 0.28371 0.23381 0.0
Co375 Co 0.78328 0.19709 0.21967 0.0
C376 C 0.79154 0.28281 0.21013 0.0
O377 O 0.82459 0.30237 0.21987 0.0
O378 O 0.77213 0.24174 0.20842 0.0
C379 C 0.88768 0.35641 0.25486 0.0
O380 O 0.84592 0.34295 0.25525 0.0
C381 C 0.6918 0.13251 0.2156 0.0
C382 C 0.69301 0.07272 0.20921 0.0
C383 C 0.66502 0.0887 0.21193 0.0
N384 N 0.73335 0.14182 0.21497 0.0
N385 N 0.7339 0.10599 0.21107 0.0
C386 C 0.6786 0.16458 0.22109 0.0
H387 H 0.67333 0.17952 0.20936 0.0
H388 H 0.70458 0.19077 0.22898 0.0
H389 H 0.64807 0.14846 0.22872 0.0
C390 C 0.8288 0.23993 0.26729 0.0
N391 N 0.82537 0.24071 0.24993 0.0
N392 N 0.79112 0.20476 0.24463 0.0
C393 C 0.77052 0.18073 0.25888 0.0
C394 C 0.79387 0.20271 0.27362 0.0
C395 C 0.86598 0.27294 0.27791 0.0
H396 H 0.89652 0.28727 0.27034 0.0
H397 H 0.85907 0.29867 0.28205 0.0
H398 H 0.87026 0.25794 0.28985 0.0
O399 O 0.88906 0.26353 0.21888 0.0
O400 O 0.83685 0.20116 0.20809 0.0
H401 H 0.732 0.1165 0.24878 0.0
H402 H 0.72215 0.12215 0.27148 0.0
C403 C 0.72938 0.13799 0.25852 0.0
H404 H 0.70222 0.14304 0.25465 0.0
H405 H 0.76213 0.1041 0.20992 0.0
O406 O 0.90124 0.33548 0.24604 0.0
C407 C 0.87695 0.23031 0.20934 0.0
H408 H 0.60861 0.60705 0.13715 0.0
H409 H 0.60222 0.48566 0.12505 0.0
H410 H 0.52972 0.57042 0.13773 0.0
H411 H 0.52398 0.44828 0.12738 0.0
H412 H 0.3835 0.39968 0.11315 0.0
H413 H 0.46243 0.43618 0.11304 0.0
H414 H 0.46668 0.52438 0.15267 0.0
H415 H 0.38771 0.48907 0.15187 0.0
C416 C 0.5904 0.57232 0.13506 0.0
C417 C 0.612 0.54917 0.13168 0.0
C418 C 0.54503 0.55113 0.13556 0.0
C419 C 0.51997 0.50607 0.13278 0.0
C420 C 0.54178 0.48298 0.12945 0.0
C421 C 0.58706 0.50434 0.12861 0.0
C422 C 0.4015 0.42685 0.12184 0.0
C423 C 0.3797 0.44188 0.13239 0.0
C424 C 0.44682 0.44771 0.1219 0.0
C425 C 0.47145 0.48348 0.13286 0.0
C426 C 0.44921 0.4977 0.14374 0.0
C427 C 0.40389 0.47735 0.14339 0.0
H428 H 0.00074 0.60782 0.47078 0.0
H429 H 0.1145 0.60108 0.45654 0.0
H430 H 0.95814 0.52894 0.47108 0.0
H431 H 0.07345 0.52283 0.45857 0.0
H432 H 0.9808 0.38295 0.44459 0.0
H433 H 0.02282 0.46182 0.44438 0.0
H434 H 0.94205 0.46554 0.4856 0.0
H435 H 0.89868 0.38656 0.4849 0.0
C436 C 0.01692 0.5895 0.46815 0.0
C437 C 0.06145 0.61096 0.46428 0.0
C438 C 0.99256 0.54416 0.46848 0.0
C439 C 0.01219 0.51902 0.46502 0.0
C440 C 0.05684 0.5407 0.46117 0.0
C441 C 0.0809 0.58595 0.4605 0.0
C442 C 0.9722 0.40082 0.45358 0.0
C443 C 0.9364 0.37887 0.46465 0.0
C444 C 0.99645 0.44611 0.45359 0.0
C445 C 0.98614 0.47055 0.46502 0.0
C446 C 0.95059 0.44818 0.47634 0.0
C447 C 0.9258 0.40287 0.47604 0.0
H448 H 0.46426 0.07575 0.77152 0.0
H449 H 0.41252 0.03085 0.82286 0.0
H450 H 0.50104 0.03371 0.77258 0.0
H451 H 0.44907 0.98816 0.82392 0.0
H452 H 0.48672 0.88469 0.8118 0.0
H453 H 0.44847 0.92551 0.8108 0.0
H454 H 0.56135 0.03399 0.78783 0.0
H455 H 0.59895 0.99249 0.78825 0.0
C456 C 0.46148 0.05763 0.78319 0.0
C457 C 0.43664 0.05774 0.79734 0.0
C458 C 0.48232 0.03322 0.78376 0.0
C459 C 0.47851 0.00799 0.79843 0.0
C460 C 0.45255 0.00709 0.81239 0.0
C461 C 0.43171 0.0316 0.81181 0.0
C462 C 0.50307 0.91691 0.80624 0.0
C463 C 0.54548 0.93495 0.79969 0.0
C464 C 0.48138 0.94059 0.80592 0.0
C465 C 0.50169 0.98292 0.79911 0.0
C466 C 0.54445 0.0012 0.79288 0.0
C467 C 0.56614 0.97757 0.79325 0.0
H468 H 0.60597 0.60909 0.54146 0.0
H469 H 0.48529 0.60252 0.55527 0.0
H470 H 0.56944 0.53019 0.54099 0.0
H471 H 0.44795 0.52424 0.55318 0.0
H472 H 0.40008 0.3841 0.567 0.0
H473 H 0.43754 0.463 0.56749 0.0
H474 H 0.52185 0.46712 0.52613 0.0
H475 H 0.48551 0.38808 0.52646 0.0
C476 C 0.57141 0.59082 0.54398 0.0
C477 C 0.54837 0.61233 0.54779 0.0
C478 C 0.55028 0.54547 0.54357 0.0
C479 C 0.50544 0.52038 0.5469 0.0
C480 C 0.4825 0.5421 0.55069 0.0
C481 C 0.50379 0.58736 0.5514 0.0
C482 C 0.42669 0.40205 0.55805 0.0
C483 C 0.44023 0.38015 0.54683 0.0
C484 C 0.44805 0.44735 0.5582 0.0
C485 C 0.48288 0.47191 0.5468 0.0
C486 C 0.49588 0.44964 0.53537 0.0
C487 C 0.47498 0.4043 0.53548 0.0
H488 H 0.98726 0.59871 0.89834 0.0
H489 H 0.90208 0.51185 0.85895 0.0
H490 H 0.02846 0.56089 0.8983 0.0
H491 H 0.9444 0.47516 0.85807 0.0
H492 H 0.00046 0.38954 0.87338 0.0
H493 H 0.95949 0.42754 0.87308 0.0
H494 H 0.07741 0.54821 0.88367 0.0
H495 H 0.11705 0.50949 0.88562 0.0
C496 C 0.9778 0.5718 0.8895 0.0
C497 C 0.94132 0.55783 0.8788 0.0
C498 C 0.00154 0.55019 0.88935 0.0
C499 C 0.98993 0.51469 0.87818 0.0
C500 C 0.95387 0.50158 0.86715 0.0
C501 C 0.92968 0.52271 0.86756 0.0
C502 C 0.01757 0.42423 0.87558 0.0
C503 C 0.06239 0.44661 0.87889 0.0
C504 C 0.99416 0.4462 0.87525 0.0
C505 C 0.01501 0.49126 0.87817 0.0
C506 C 0.05993 0.51354 0.88148 0.0
C507 C 0.0831 0.49142 0.88212 0.0
H508 H 0.38867 0.99623 0.2218 0.0
H509 H 0.39401 0.88627 0.20121 0.0
H510 H 0.46777 0.03876 0.22152 0.0
H511 H 0.47299 0.92852 0.20114 0.0
H512 H 0.60728 0.11373 0.2008 0.0
H513 H 0.52836 0.07114 0.20091 0.0
H514 H 0.53456 0.96138 0.22138 0.0
H515 H 0.61371 0.00432 0.22147 0.0
C516 C 0.40671 0.98108 0.21725 0.0
C517 C 0.38495 0.93747 0.21195 0.0
C518 C 0.45205 0.0055 0.21704 0.0
C519 C 0.47677 0.98697 0.21143 0.0
C520 C 0.45498 0.94351 0.2059 0.0
C521 C 0.40961 0.91914 0.20606 0.0
C522 C 0.59192 0.08088 0.2057 0.0
C523 C 0.61686 0.06285 0.2116 0.0
C524 C 0.54658 0.05632 0.20565 0.0
C525 C 0.52507 0.01293 0.2113 0.0
C526 C 0.55006 0.99461 0.21683 0.0
C527 C 0.59542 0.01925 0.21694 0.0
H528 H 0.96139 0.59434 0.07291 0.0
H529 H 0.88804 0.458 0.08542 0.0
H530 H 0.02029 0.58503 0.06175 0.0
H531 H 0.9474 0.44888 0.07545 0.0
H532 H 0.05643 0.43482 0.06805 0.0
H533 H -0.00037 0.44845 0.05766 0.0
H534 H 0.07062 0.57852 0.07867 0.0
H535 H 0.12817 0.5655 0.08783 0.0
C536 C 0.95778 0.56227 0.07304 0.0
C537 C 0.92112 0.52709 0.08051 0.0
C538 C 0.9914 0.5569 0.06665 0.0
C539 C 0.98937 0.51659 0.06822 0.0
C540 C 0.9504 0.48048 0.07394 0.0
C541 C 0.91638 0.48569 0.0799 0.0
C542 C 0.06024 0.46671 0.06989 0.0
C543 C 0.09563 0.49877 0.0792 0.0
C544 C 0.0278 0.47454 0.06397 0.0
C545 C 0.02962 0.51395 0.0679 0.0
C546 C 0.06779 0.54767 0.07538 0.0
C547 C 0.10076 0.54018 0.08085 0.0
H548 H 0.56773 0.1202 0.42092 0.0
H549 H 0.62389 0.04357 0.40393 0.0
H550 H 0.49688 0.06366 0.41165 0.0
H551 H 0.55324 0.98769 0.39335 0.0
H552 H 0.42862 0.88051 0.42078 0.0
H553 H 0.4985 0.9376 0.4109 0.0
H554 H 0.44008 0.01355 0.39488 0.0
H555 H 0.37042 0.95699 0.40601 0.0
C556 C 0.56501 0.09185 0.41453 0.0
C557 C 0.60047 0.08515 0.41371 0.0
C558 C 0.52439 0.05945 0.40898 0.0
C559 C 0.51897 0.02025 0.40223 0.0
C560 C 0.55599 0.01669 0.39912 0.0
C561 C 0.59638 0.04858 0.40514 0.0
C562 C 0.43065 0.90902 0.41479 0.0
C563 C 0.39493 0.91538 0.41474 0.0
C564 C 0.47069 0.94174 0.40887 0.0
C565 C 0.47532 0.98098 0.40252 0.0
C566 C 0.43797 0.98447 0.40029 0.0
C567 C 0.39816 0.9522 0.40666 0.0
H568 H 0.56744 0.43797 0.7559 0.0
H569 H 0.43789 0.37894 0.73476 0.0
H570 H 0.57989 0.50886 0.74756 0.0
H571 H 0.45101 0.44981 0.72527 0.0
H572 H 0.45757 0.56887 0.75362 0.0
H573 H 0.44989 0.50096 0.74369 0.0
H574 H 0.58657 0.56623 0.73072 0.0
H575 H 0.59441 0.63392 0.74175 0.0
C576 C 0.54229 0.44016 0.74881 0.0
C577 C 0.50128 0.4036 0.74651 0.0
C578 C 0.54947 0.48082 0.74382 0.0
C579 C 0.51586 0.48524 0.73619 0.0
C580 C 0.47697 0.44766 0.73169 0.0
C581 C 0.46944 0.40714 0.73709 0.0
C582 C 0.4857 0.5688 0.74828 0.0
C583 C 0.52679 0.60593 0.749 0.0
C584 C 0.48132 0.52991 0.74235 0.0
C585 C 0.51795 0.52782 0.73678 0.0
C586 C 0.55803 0.56645 0.73545 0.0
C587 C 0.56255 0.60513 0.74177 0.0
H588 H 0.46981 0.87646 0.60844 0.0
H589 H 0.59159 0.9813 0.58937 0.0
H590 H 0.44815 0.92871 0.6172 0.0
H591 H 0.56965 0.03299 0.59759 0.0
H592 H 0.40518 0.01462 0.58533 0.0
H593 H 0.42672 0.96428 0.59596 0.0
H594 H 0.54553 0.07105 0.61627 0.0
H595 H 0.52428 0.12192 0.60512 0.0
C596 C 0.49231 0.91068 0.60646 0.0
C597 C 0.5316 0.92483 0.5976 0.0
C598 C 0.47999 0.94055 0.61155 0.0
C599 C 0.50668 0.98479 0.60769 0.0
C600 C 0.54823 -0.00082 0.60078 0.0
C601 C 0.56059 0.96942 0.59579 0.0
C602 C 0.43551 0.02738 0.59236 0.0
C603 C 0.46386 0.07218 0.59381 0.0
C604 C 0.44759 0.99842 0.59874 0.0
C605 C 0.48824 0.01378 0.60671 0.0
C606 C 0.51437 0.05842 0.6099 0.0
C607 C 0.50232 0.08748 0.60343 0.0
H608 H 0.36899 0.40094 0.9357 0.0
H609 H 0.42595 0.53723 0.92401 0.0
H610 H 0.43918 0.41309 0.94576 0.0
H611 H 0.49631 0.54924 0.9328 0.0
H612 H 0.62249 0.56846 0.93865 0.0
H613 H 0.55154 0.55217 0.94944 0.0
H614 H 0.49591 0.42247 0.92829 0.0
H615 H 0.56711 0.43813 0.91883 0.0
C616 C 0.39657 0.43359 0.93552 0.0
C617 C 0.39281 0.46801 0.9286 0.0
C618 C 0.4367 0.44059 0.94126 0.0
C619 C 0.47382 0.48181 0.93955 0.0
C620 C 0.4687 0.51699 0.93439 0.0
C621 C 0.42836 0.51014 0.92912 0.0
C622 C 0.59506 0.53614 0.93683 0.0
C623 C 0.59953 0.50484 0.92749 0.0
C624 C 0.55449 0.52678 0.94297 0.0
C625 C 0.51763 0.48655 0.93922 0.0
C626 C 0.52331 0.45384 0.93151 0.0
C627 C 0.56411 0.46286 0.92585 0.0
H628 H 0.01835 0.61436 0.25506 0.0
H629 H 0.12003 0.59431 0.27566 0.0
H630 H 0.96448 0.54267 0.2645 0.0
H631 H 0.06553 0.52242 0.28577 0.0
H632 H 0.97491 0.39043 0.25706 0.0
H633 H 0.02756 0.46255 0.26647 0.0
H634 H 0.92405 0.48359 0.28395 0.0
H635 H 0.87083 0.41119 0.27387 0.0
C636 C 0.02912 0.59502 0.26205 0.0
C637 C 0.0734 0.60909 0.26399 0.0
C638 C 0.99808 0.55402 0.26776 0.0
C639 C 0.01079 0.52642 0.27557 0.0
C640 C 0.05489 0.54266 0.27942 0.0
C641 C 0.08606 0.58369 0.27357 0.0
C642 C 0.9633 0.41006 0.26321 0.0
C643 C 0.91883 0.396 0.26407 0.0
C644 C 0.9936 0.45131 0.26892 0.0
C645 C 0.97995 0.47921 0.27564 0.0
C646 C 0.93544 0.46309 0.27846 0.0
C647 C 0.90502 0.42176 0.27262 0.0
H648 H 0.18242 0.63388 0.21751 0.0
H649 H 0.25793 0.73939 0.18209 0.0
H650 H 0.19512 0.58518 0.19938 0.0
H651 H 0.27019 0.69025 0.16381 0.0
H652 H 0.20623 0.56792 0.12616 0.0
H653 H 0.21557 0.62599 0.14557 0.0
H654 H 0.25323 0.56972 0.18698 0.0
H655 H 0.24447 0.51154 0.16734 0.0
C656 C 0.2023 0.64686 0.20598 0.0
C657 C 0.21882 0.69046 0.20116 0.0
C658 C 0.20983 0.61897 0.19566 0.0
C659 C 0.23353 0.63383 0.18014 0.0
C660 C 0.25164 0.67786 0.17567 0.0
C661 C 0.24472 0.70601 0.18617 0.0
C662 C 0.21744 0.56841 0.1393 0.0
C663 C 0.2244 0.53502 0.14525 0.0
C664 C 0.22301 0.60184 0.15039 0.0
C665 C 0.23496 0.60235 0.16782 0.0
C666 C 0.24381 0.57003 0.17361 0.0
C667 C 0.23906 0.53692 0.16237 0.0
H668 H 0.63416 0.19192 0.45903 0.0
H669 H 0.73131 0.24494 0.49939 0.0
H670 H 0.58414 0.20223 0.47734 0.0
H671 H 0.68054 0.25441 0.51797 0.0
H672 H 0.54587 0.1826 0.54937 0.0
H673 H 0.60757 0.19443 0.53156 0.0
H674 H 0.57327 0.26083 0.49329 0.0
H675 H 0.5117 0.24977 0.51135 0.0
C676 C 0.64506 0.20644 0.47173 0.0
C677 C 0.6866 0.21741 0.47781 0.0
C678 C 0.61647 0.21258 0.48218 0.0
C679 C 0.62837 0.22903 0.4991 0.0
C680 C 0.67051 0.24159 0.50498 0.0
C681 C 0.69959 0.23634 0.49434 0.0
C682 C 0.55195 0.2005 0.53732 0.0
C683 C 0.52373 0.215 0.5317 0.0
C684 C 0.58748 0.2075 0.52718 0.0
C685 C 0.59519 0.22846 0.51102 0.0
C686 C 0.56801 0.2445 0.50569 0.0
C687 C 0.53291 0.23831 0.51604 0.0
H688 H 0.48354 0.73389 0.8333 0.0
H689 H 0.44258 0.63548 0.79362 0.0
H690 H 0.42396 0.68269 0.85202 0.0
H691 H 0.38276 0.58496 0.81211 0.0
H692 H 0.26218 0.51278 0.84624 0.0
H693 H 0.31217 0.57375 0.82783 0.0
H694 H 0.41326 0.61045 0.8661 0.0
H695 H 0.36387 0.54927 0.88429 0.0
C696 C 0.46122 0.70176 0.82842 0.0
C697 C 0.46786 0.6886 0.81204 0.0
C698 C 0.42729 0.67245 0.83915 0.0
C699 C 0.39878 0.62987 0.83351 0.0
C700 C 0.40397 0.61764 0.81674 0.0
C701 C 0.43837 0.64652 0.8062 0.0
C702 C 0.29481 0.53437 0.85085 0.0
C703 C 0.30917 0.52606 0.86666 0.0
C704 C 0.32343 0.56911 0.8403 0.0
C705 C 0.36657 0.59679 0.84555 0.0
C706 C 0.38011 0.5899 0.86179 0.0
C707 C 0.35187 0.55471 0.87215 0.0
H708 H 0.8134 0.44661 0.12671 0.0
H709 H 0.74561 0.48212 0.16382 0.0
H710 H 0.80213 0.38621 0.14526 0.0
H711 H 0.73501 0.42184 0.18258 0.0
H712 H 0.80283 0.36218 0.21822 0.0
H713 H 0.79268 0.41142 0.19928 0.0
H714 H 0.74255 0.31404 0.15906 0.0
H715 H 0.75196 0.26418 0.1782 0.0
C716 C 0.79554 0.44114 0.13872 0.0
C717 C 0.78061 0.46932 0.14384 0.0
C718 C 0.78884 0.40634 0.14929 0.0
C719 C 0.76775 0.39933 0.16538 0.0
C720 C 0.75145 0.42655 0.17025 0.0
C721 C 0.75738 0.46092 0.15949 0.0
C722 C 0.78873 0.35088 0.20547 0.0
C723 C 0.77839 0.30936 0.19967 0.0
C724 C 0.78273 0.37904 0.19466 0.0
C725 C 0.767 0.36666 0.17766 0.0
C726 C 0.75488 0.32447 0.17209 0.0
C727 C 0.76005 0.29588 0.18307 0.0
H728 H 0.26365 0.75235 0.5002 0.0
H729 H 0.36395 0.80861 0.46115 0.0
H730 H 0.31388 0.74404 0.51963 0.0
H731 H 0.4134 0.79922 0.4803 0.0
H732 H 0.48136 0.74707 0.51524 0.0
H733 H 0.42155 0.73781 0.49649 0.0
H734 H 0.38734 0.80578 0.53391 0.0
H735 H 0.44757 0.81601 0.55245 0.0
C736 C 0.296 0.76197 0.49562 0.0
C737 C 0.30993 0.78131 0.47919 0.0
C738 C 0.32475 0.75739 0.50675 0.0
C739 C 0.36751 0.77096 0.50145 0.0
C740 C 0.38057 0.78814 0.48468 0.0
C741 C 0.35229 0.79369 0.47376 0.0
C742 C 0.46056 0.7593 0.51961 0.0
C743 C 0.46934 0.78247 0.53529 0.0
C744 C 0.42648 0.75414 0.50885 0.0
C745 C 0.39984 0.77109 0.51375 0.0
C746 C 0.4071 0.79207 0.52987 0.0
C747 C 0.44173 0.7981 0.54043 0.0
H748 H 0.66449 0.4247 0.88592 0.0
H749 H 0.71899 0.50107 0.83969 0.0
H750 H 0.61539 0.36245 0.86831 0.0
H751 H 0.66751 0.44079 0.82192 0.0
H752 H 0.57758 0.32751 0.79055 0.0
H753 H 0.63858 0.37604 0.80884 0.0
H754 H 0.55292 0.33473 0.85348 0.0
H755 H 0.4936 0.28359 0.83523 0.0
C756 C 0.66604 0.42784 0.8719 0.0
C757 C 0.69561 0.46733 0.8641 0.0
C758 C 0.63739 0.39237 0.86173 0.0
C759 C 0.63633 0.39609 0.84351 0.0
C760 C 0.6673 0.43565 0.83578 0.0
C761 C 0.69692 0.47059 0.84595 0.0
C762 C 0.57249 0.32802 0.80441 0.0
C763 C 0.5312 0.30164 0.81156 0.0
C764 C 0.60727 0.35644 0.81493 0.0
C765 C 0.60118 0.36057 0.83279 0.0
C766 C 0.55982 0.33254 0.83996 0.0
C767 C 0.52544 0.30307 0.82949 0.0
H768 H 0.25898 0.47771 0.95856 0.0
H769 H 0.14532 0.35127 0.96322 0.0
H770 H 0.26788 0.48191 0.98996 0.0
H771 H 0.15275 0.35576 0.99497 0.0
H772 H 0.20269 0.35428 0.04896 0.0
H773 H 0.19849 0.35236 0.01713 0.0
H774 H 0.2409 0.48933 0.01662 0.0
H775 H 0.24647 0.49098 0.04813 0.0
C776 C 0.23481 0.45158 0.96647 0.0
C777 C 0.20098 0.41458 0.9586 0.0
C778 C 0.24005 0.45375 0.98447 0.0
C779 C 0.21136 0.41896 0.99509 0.0
C780 C 0.17603 0.38278 0.98719 0.0
C781 C 0.17103 0.38053 0.96908 0.0
C782 C 0.21295 0.38416 0.04187 0.0
C783 C 0.22591 0.42297 0.05085 0.0
C784 C 0.20951 0.38298 0.0237 0.0
C785 C 0.21862 0.42056 0.01425 0.0
C786 C 0.23398 0.45981 0.02333 0.0
C787 C 0.23763 0.46096 0.0414 0.0
H788 H 0.80275 0.14782 0.29585 0.0
H789 H 0.76502 0.24526 0.29316 0.0
H790 H 0.80508 0.15287 0.32767 0.0
H791 H 0.76906 0.2521 0.32461 0.0
H792 H 0.74354 0.22608 0.38265 0.0
H793 H 0.73864 0.22064 0.35119 0.0
H794 H 0.84929 0.20124 0.35012 0.0
H795 H 0.85251 0.20484 0.38198 0.0
C796 C 0.79353 0.16919 0.30216 0.0
C797 C 0.78253 0.19528 0.29221 0.0
C798 C 0.79592 0.17299 0.32032 0.0
C799 C 0.78788 0.20339 0.32879 0.0
C800 C 0.77497 0.22796 0.3187 0.0
C801 C 0.77224 0.22383 0.30065 0.0
C802 C 0.76771 0.22216 0.3756 0.0
C803 C 0.79891 0.21672 0.38462 0.0
C804 C 0.76476 0.21869 0.35754 0.0
C805 C 0.79323 0.20996 0.348 0.0
C806 C 0.8262 0.20704 0.35704 0.0
C807 C 0.82886 0.21017 0.37522 0.0
H808 H 0.51979 0.77527 0.62804 0.0
H809 H 0.65139 0.801 0.63124 0.0
H810 H 0.51712 0.78031 0.65955 0.0
H811 H 0.64878 0.80479 0.663 0.0
H812 H 0.64878 0.85629 0.71682 0.0
H813 H 0.64836 0.85282 0.68497 0.0
H814 H 0.51559 0.74735 0.68638 0.0
H815 H 0.51608 0.75218 0.71793 0.0
C816 C 0.54755 0.78022 0.63565 0.0
C817 C 0.58538 0.78663 0.62736 0.0
C818 C 0.54625 0.78353 0.65369 0.0
C819 C 0.58291 0.79346 0.66389 0.0
C820 C 0.62022 0.79794 0.65556 0.0
C821 C 0.6215 0.79477 0.63744 0.0
C822 C 0.61912 0.83376 0.71016 0.0
C823 C 0.58215 0.80521 0.71968 0.0
C824 C 0.61907 0.83097 0.69198 0.0
C825 C 0.58212 0.7993 0.68306 0.0
C826 C 0.54449 0.77239 0.6927 0.0
C827 C 0.54456 0.77535 0.71078 0.0
H828 H 0.74811 0.51072 0.96037 0.0
H829 H 0.84889 0.64482 0.96166 0.0
H830 H 0.74232 0.51 0.99188 0.0
H831 H 0.84451 0.64419 0.99349 0.0
H832 H 0.79177 0.64462 0.04728 0.0
H833 H 0.79528 0.64244 0.01548 0.0
H834 H 0.77547 0.51251 0.01866 0.0
H835 H 0.7706 0.51466 0.05015 0.0
C836 C 0.77037 0.53954 0.96756 0.0
C837 C 0.79956 0.57755 0.95872 0.0
C838 C 0.76684 0.53933 0.98562 0.0
C839 C 0.79255 0.5772 0.9953 0.0
C840 C 0.82357 0.61468 0.98644 0.0
C841 C 0.82692 0.61487 0.96828 0.0
C842 C 0.78639 0.61511 0.04101 0.0
C843 C 0.77981 0.5794 0.051 0.0
C844 C 0.78945 0.61413 0.02287 0.0
C845 C 0.78633 0.57751 0.01446 0.0
C846 C 0.77764 0.5411 0.02457 0.0
C847 C 0.77442 0.54209 0.04262 0.0
H848 H 0.1429 0.78201 0.38211 0.0
H849 H 0.26106 0.77645 0.38167 0.0
H850 H 0.14517 0.78725 0.35028 0.0
H851 H 0.26464 0.78326 0.3502 0.0
H852 H 0.18839 0.84841 0.29684 0.0
H853 H 0.18669 0.84046 0.32852 0.0
H854 H 0.23508 0.75122 0.32326 0.0
H855 H 0.23812 0.7608 0.29185 0.0
C856 C 0.16851 0.78048 0.37512 0.0
C857 C 0.2014 0.77811 0.3842 0.0
C858 C 0.17048 0.7845 0.35695 0.0
C859 C 0.20555 0.78647 0.34763 0.0
C860 C 0.23699 0.78154 0.35681 0.0
C861 C 0.23484 0.77734 0.37486 0.0
C862 C 0.20035 0.82866 0.30264 0.0
C863 C 0.21465 0.80626 0.29208 0.0
C864 C 0.19838 0.82315 0.32071 0.0
C865 C 0.21014 0.79465 0.32851 0.0
C866 C 0.22619 0.77377 0.31783 0.0
C867 C 0.22842 0.77955 0.29984 0.0
H868 H 0.34429 0.15343 0.71477 0.0
H869 H 0.48357 0.23215 0.71321 0.0
H870 H 0.34187 0.15406 0.6829 0.0
H871 H 0.48164 0.23483 0.68172 0.0
H872 H 0.46736 0.20245 0.6244 0.0
H873 H 0.46982 0.19784 0.65578 0.0
H874 H 0.35112 0.20281 0.65969 0.0
H875 H 0.34788 0.20509 0.62784 0.0
C876 C 0.3744 0.16956 0.70753 0.0
C877 C 0.41418 0.19183 0.71629 0.0
C878 C 0.37307 0.17093 0.68933 0.0
C879 C 0.41152 0.19501 0.67965 0.0
C880 C 0.45137 0.21546 0.68858 0.0
C881 C 0.45263 0.2137 0.70665 0.0
C882 C 0.44238 0.20363 0.63203 0.0
C883 C 0.40774 0.20469 0.62381 0.0
C884 C 0.44364 0.20083 0.65005 0.0
C885 C 0.41049 0.19958 0.6604 0.0
C886 C 0.37676 0.20279 0.65214 0.0
C887 C 0.37531 0.20512 0.63396 0.0
H888 H 0.86886 0.19258 0.17727 0.0
H889 H 0.96231 0.26645 0.21709 0.0
H890 H 0.92832 0.20794 0.15721 0.0
H891 H 0.02113 0.28283 0.19719 0.0
H892 H 0.12608 0.31612 0.1601 0.0
H893 H 0.06534 0.26761 0.17881 0.0
H894 H 0.97581 0.27343 0.14241 0.0
H895 H 0.03575 0.32015 0.1237 0.0
C896 C 0.90199 0.21097 0.18189 0.0
C897 C 0.9109 0.22896 0.19864 0.0
C898 C 0.93613 0.22018 0.17037 0.0
C899 C 0.97973 0.24743 0.17542 0.0
C900 C 0.98826 0.26163 0.19275 0.0
C901 C 0.95434 0.25252 0.20417 0.0
C902 C 0.09331 0.30592 0.15589 0.0
C903 C 0.08589 0.32276 0.14058 0.0
C904 C 0.05844 0.27834 0.16666 0.0
C905 C 0.01551 0.26706 0.16232 0.0
C906 C 0.00812 0.28094 0.14624 0.0
C907 C 0.04277 0.30832 0.13554 0.0
H908 H 0.64683 0.87005 0.50758 0.0
H909 H 0.72408 0.94327 0.55135 0.0
H910 H 0.68931 0.93153 0.4886 0.0
H911 H 0.76925 0.00415 0.53231 0.0
H912 H 0.77879 0.12066 0.5017 0.0
H913 H 0.76166 0.05791 0.51967 0.0
H914 H 0.74722 0.98278 0.47341 0.0
H915 H 0.76112 0.04507 0.45561 0.0
C916 C 0.67453 0.89862 0.51294 0.0
C917 C 0.68231 0.90196 0.53086 0.0
C918 C 0.6991 0.93422 0.50206 0.0
C919 C 0.73256 0.97376 0.50886 0.0
C920 C 0.74301 0.97508 0.52659 0.0
C921 C 0.71767 0.93988 0.5375 0.0
C922 C 0.77327 0.09106 0.49547 0.0
C923 C 0.7711 0.08758 0.47732 0.0
C924 C 0.76341 0.05478 0.50576 0.0
C925 C 0.75201 0.0144 0.4981 0.0
C926 C 0.75427 0.01257 0.47988 0.0
C927 C 0.76293 0.04849 0.46962 0.0
H928 H 0.72013 0.77666 0.79329 0.0
H929 H 0.64713 0.77561 0.83806 0.0
H930 H 0.76567 0.75996 0.81167 0.0
H931 H 0.68966 0.75531 0.85638 0.0
H932 H 0.77804 0.65446 0.84177 0.0
H933 H 0.75959 0.6997 0.82425 0.0
H934 H 0.74701 0.76008 0.871 0.0
H935 H 0.76192 0.71174 0.88837 0.0
C936 C 0.71466 0.77389 0.8072 0.0
C937 C 0.68045 0.77773 0.81432 0.0
C938 C 0.7402 0.76345 0.81775 0.0
C939 C 0.73099 0.75486 0.8356 0.0
C940 C 0.69856 0.76195 0.84283 0.0
C941 C 0.67392 0.77369 0.83232 0.0
C942 C 0.77256 0.67836 0.8482 0.0
C943 C 0.77133 0.67965 0.86637 0.0
C944 C 0.76195 0.70459 0.83816 0.0
C945 C 0.75077 0.73347 0.84608 0.0
C946 C 0.75381 0.73743 0.86432 0.0
C947 C 0.76311 0.71024 0.87433 0.0
H948 H 0.05192 0.77612 0.21843 0.0
H949 H 0.12396 0.77904 0.17302 0.0
H950 H 0.98939 0.76023 0.20037 0.0
H951 H 0.0609 0.76011 0.15493 0.0
H952 H 0.94534 0.72039 0.12337 0.0
H953 H 0.00796 0.76773 0.14122 0.0
H954 H 0.93607 0.6992 0.18713 0.0
H955 H 0.87295 0.65437 0.16921 0.0
C956 C 0.05462 0.77449 0.20446 0.0
C957 C 0.09275 0.77909 0.19706 0.0
C958 C 0.01852 0.76461 0.19409 0.0
C959 C 0.01918 0.75763 0.17612 0.0
C960 C 0.05874 0.76555 0.16862 0.0
C961 C 0.09522 0.77652 0.17898 0.0
C962 C 0.94257 0.71692 0.13737 0.0
C963 C 0.90432 0.68401 0.14496 0.0
C964 C 0.97873 0.74354 0.14763 0.0
C965 C 0.97799 0.73691 0.1657 0.0
C966 C 0.9383 0.706 0.17335 0.0
C967 C 0.90178 0.6801 0.16309 0.0
H968 H 0.34194 0.12165 0.50408 0.0
H969 H 0.26817 0.05148 0.54904 0.0
H970 H 0.29742 0.05915 0.48589 0.0
H971 H 0.22112 0.98954 0.53082 0.0
H972 H 0.22404 0.94401 0.4544 0.0
H973 H 0.23752 0.00682 0.4717 0.0
H974 H 0.2289 0.93533 0.51849 0.0
H975 H 0.21235 0.87203 0.50106 0.0
C976 C 0.31456 0.09355 0.50988 0.0
C977 C 0.30834 0.09131 0.52789 0.0
C978 C 0.28883 0.05738 0.49946 0.0
C979 C 0.25584 0.01839 0.50684 0.0
C980 C 0.24691 0.01821 0.52467 0.0
C981 C 0.27335 0.05399 0.53511 0.0
C982 C 0.22319 0.94139 0.46844 0.0
C983 C 0.21703 0.90327 0.47644 0.0
C984 C 0.23165 0.97762 0.47839 0.0
C985 C 0.23566 0.97706 0.49658 0.0
C986 C 0.22582 0.93743 0.50459 0.0
C987 C 0.21623 0.90083 0.49461 0.0
H988 H 0.24937 0.28923 0.8821 0.0
H989 H 0.19376 0.32841 0.841 0.0
H990 H 0.26731 0.24931 0.86149 0.0
H991 H 0.21062 0.28701 0.82013 0.0
H992 H 0.32792 0.29246 0.79054 0.0
H993 H 0.27942 0.30494 0.8084 0.0
H994 H 0.25458 0.19528 0.84055 0.0
H995 H 0.3048 0.18353 0.82277 0.0
C996 C 0.23947 0.2879 0.86869 0.0
C997 C 0.22082 0.31257 0.86311 0.0
C998 C 0.24956 0.26468 0.85682 0.0
C999 C 0.24133 0.26555 0.839 0.0
C1000 C 0.21833 0.28641 0.83371 0.0
C1001 C 0.20812 0.30971 0.84567 0.0
C1002 C 0.31169 0.27046 0.80125 0.0
C1003 C 0.3211 0.23753 0.80543 0.0
C1004 C 0.28324 0.27733 0.81142 0.0
C1005 C 0.26319 0.25145 0.8261 0.0
C1006 C 0.26998 0.21634 0.82951 0.0
C1007 C 0.29862 0.20943 0.81928 0.0
loop_
_geom_bond_atom_site_label_1
_geom_bond_atom_site_label_2
_geom_bond_distance
_geom_bond_site_symmetry_2
_ccdc_geom_bond_type
Co0 O3 1.970 . S
Co0 N17 1.989 . S
Co0 O25 1.967 . S
Co0 O32 1.920 . S
Co1 O4 1.966 . S
Co1 N10 2.022 . S
Co1 N18 1.993 . S
Co1 O26 1.941 . S
C2 O3 1.258 . S
C2 O4 1.263 . S
O3 Co0 1.970 . S
O3 C2 1.258 . S
O4 Co1 1.966 . S
O4 C2 1.263 . S
C5 O6 1.235 . S
C5 O32 1.289 . S
O6 C5 1.235 . S
C7 C9 1.400 . S
C7 N10 1.351 . S
C7 C12 1.501 . S
C8 C9 1.387 . S
C8 N11 1.341 . S
C9 C7 1.400 . S
C9 C8 1.387 . S
N10 Co1 2.022 . S
N10 C7 1.351 . S
N10 N11 1.365 . S
N11 C8 1.341 . S
N11 N10 1.365 . S
N11 H31 0.862 . S
C12 C7 1.501 . S
C12 H13 0.961 . S
C12 H14 0.961 . S
C12 H15 0.960 . S
H13 C12 0.961 . S
H14 C12 0.961 . S
H15 C12 0.960 . S
C16 N17 1.342 . S
C16 C20 1.401 . S
C16 C21 1.499 . S
N17 Co0 1.989 . S
N17 C16 1.342 . S
N17 N18 1.388 . S
N18 Co1 1.993 . S
N18 N17 1.388 . S
N18 C19 1.346 . S
C19 N18 1.346 . S
C19 C20 1.396 . S
C19 C29 1.510 . S
C20 C16 1.401 . S
C20 C19 1.396 . S
C21 C16 1.499 . S
C21 H22 0.959 . S
C21 H23 0.960 . S
C21 H24 0.961 . S
H22 C21 0.959 . S
H23 C21 0.960 . S
H24 C21 0.961 . S
O25 Co0 1.967 . S
O25 C33 1.258 . S
O26 Co1 1.941 . S
O26 C33 1.266 . S
H27 C29 0.959 . S
H28 C29 0.961 . S
C29 C19 1.510 . S
C29 H27 0.959 . S
C29 H28 0.961 . S
C29 H30 0.960 . S
H30 C29 0.960 . S
H31 N11 0.862 . S
O32 Co0 1.920 . S
O32 C5 1.289 . S
C33 O25 1.258 . S
C33 O26 1.266 . S
Co34 O37 1.970 . S
Co34 N51 1.989 . S
Co34 O59 1.967 . S
Co34 O66 1.920 . S
Co35 O38 1.966 . S
Co35 N44 2.022 . S
Co35 N52 1.993 . S
Co35 O60 1.941 . S
C36 O37 1.258 . S
C36 O38 1.263 . S
O37 Co34 1.970 . S
O37 C36 1.258 . S
O38 Co35 1.966 . S
O38 C36 1.263 . S
C39 O40 1.235 . S
C39 O66 1.289 . S
O40 C39 1.235 . S
C41 C43 1.400 . S
C41 N44 1.351 . S
C41 C46 1.501 . S
C42 C43 1.387 . S
C42 N45 1.341 . S
C43 C41 1.400 . S
C43 C42 1.387 . S
N44 Co35 2.022 . S
N44 C41 1.351 . S
N44 N45 1.365 . S
N45 C42 1.341 . S
N45 N44 1.365 . S
N45 H65 0.862 . S
C46 C41 1.501 . S
C46 H47 0.961 . S
C46 H48 0.961 . S
C46 H49 0.960 . S
H47 C46 0.961 . S
H48 C46 0.961 . S
H49 C46 0.960 . S
C50 N51 1.342 . S
C50 C54 1.401 . S
C50 C55 1.499 . S
N51 Co34 1.989 . S
N51 C50 1.342 . S
N51 N52 1.388 . S
N52 Co35 1.993 . S
N52 N51 1.388 . S
N52 C53 1.346 . S
C53 N52 1.346 . S
C53 C54 1.396 . S
C53 C63 1.510 . S
C54 C50 1.401 . S
C54 C53 1.396 . S
C55 C50 1.499 . S
C55 H56 0.959 . S
C55 H57 0.960 . S
C55 H58 0.961 . S
H56 C55 0.959 . S
H57 C55 0.960 . S
H58 C55 0.961 . S
O59 Co34 1.967 . S
O59 C67 1.258 . S
O60 Co35 1.941 . S
O60 C67 1.266 . S
H61 C63 0.959 . S
H62 C63 0.961 . S
C63 C53 1.510 . S
C63 H61 0.959 . S
C63 H62 0.961 . S
C63 H64 0.960 . S
H64 C63 0.960 . S
H65 N45 0.862 . S
O66 Co34 1.920 . S
O66 C39 1.289 . S
C67 O59 1.258 . S
C67 O60 1.266 . S
Co68 O71 1.970 . S
Co68 N85 1.989 . S
Co68 O93 1.967 . S
Co68 O100 1.920 . S
Co69 O72 1.966 . S
Co69 N78 2.022 . S
Co69 N86 1.993 . S
Co69 O94 1.941 . S
C70 O71 1.258 . S
C70 O72 1.263 . S
O71 Co68 1.970 . S
O71 C70 1.258 . S
O72 Co69 1.966 . S
O72 C70 1.263 . S
C73 O74 1.235 . S
C73 O100 1.289 . S
O74 C73 1.235 . S
C75 C77 1.400 . S
C75 N78 1.351 . S
C75 C80 1.501 . S
C76 C77 1.387 . S
C76 N79 1.341 . S
C77 C75 1.400 . S
C77 C76 1.387 . S
N78 Co69 2.022 . S
N78 C75 1.351 . S
N78 N79 1.365 . S
N79 C76 1.341 . S
N79 N78 1.365 . S
N79 H99 0.862 . S
C80 C75 1.501 . S
C80 H81 0.961 . S
C80 H82 0.961 . S
C80 H83 0.960 . S
H81 C80 0.961 . S
H82 C80 0.961 . S
H83 C80 0.960 . S
C84 N85 1.342 . S
C84 C88 1.401 . S
C84 C89 1.499 . S
N85 Co68 1.989 . S
N85 C84 1.342 . S
N85 N86 1.388 . S
N86 Co69 1.993 . S
N86 N85 1.388 . S
N86 C87 1.346 . S
C87 N86 1.346 . S
C87 C88 1.396 . S
C87 C97 1.510 . S
C88 C84 1.401 . S
C88 C87 1.396 . S
C89 C84 1.499 . S
C89 H90 0.959 . S
C89 H91 0.960 . S
C89 H92 0.961 . S
H90 C89 0.959 . S
H91 C89 0.960 . S
H92 C89 0.961 . S
O93 Co68 1.967 . S
O93 C101 1.258 . S
O94 Co69 1.941 . S
O94 C101 1.266 . S
H95 C97 0.959 . S
H96 C97 0.961 . S
C97 C87 1.510 . S
C97 H95 0.959 . S
C97 H96 0.961 . S
C97 H98 0.960 . S
H98 C97 0.960 . S
H99 N79 0.862 . S
O100 Co68 1.920 . S
O100 C73 1.289 . S
C101 O93 1.258 . S
C101 O94 1.266 . S
Co102 O105 1.970 . S
Co102 N119 1.989 . S
Co102 O127 1.967 . S
Co102 O134 1.920 . S
Co103 O106 1.966 . S
Co103 N112 2.022 . S
Co103 N120 1.993 . S
Co103 O128 1.941 . S
C104 O105 1.258 . S
C104 O106 1.263 . S
O105 Co102 1.970 . S
O105 C104 1.258 . S
O106 Co103 1.966 . S
O106 C104 1.263 . S
C107 O108 1.235 . S
C107 O134 1.289 . S
O108 C107 1.235 . S
C109 C111 1.400 . S
C109 N112 1.351 . S
C109 C114 1.501 . S
C110 C111 1.387 . S
C110 N113 1.341 . S
C111 C109 1.400 . S
C111 C110 1.387 . S
N112 Co103 2.022 . S
N112 C109 1.351 . S
N112 N113 1.365 . S
N113 C110 1.341 . S
N113 N112 1.365 . S
N113 H133 0.862 . S
C114 C109 1.501 . S
C114 H115 0.961 . S
C114 H116 0.961 . S
C114 H117 0.960 . S
H115 C114 0.961 . S
H116 C114 0.961 . S
H117 C114 0.960 . S
C118 N119 1.342 . S
C118 C122 1.401 . S
C118 C123 1.499 . S
N119 Co102 1.989 . S
N119 C118 1.342 . S
N119 N120 1.388 . S
N120 Co103 1.993 . S
N120 N119 1.388 . S
N120 C121 1.346 . S
C121 N120 1.346 . S
C121 C122 1.396 . S
C121 C131 1.510 . S
C122 C118 1.401 . S
C122 C121 1.396 . S
C123 C118 1.499 . S
C123 H124 0.959 . S
C123 H125 0.960 . S
C123 H126 0.961 . S
H124 C123 0.959 . S
H125 C123 0.960 . S
H126 C123 0.961 . S
O127 Co102 1.967 . S
O127 C135 1.258 . S
O128 Co103 1.941 . S
O128 C135 1.266 . S
H129 C131 0.959 . S
H130 C131 0.961 . S
C131 C121 1.510 . S
C131 H129 0.959 . S
C131 H130 0.961 . S
C131 H132 0.960 . S
H132 C131 0.960 . S
H133 N113 0.862 . S
O134 Co102 1.920 . S
O134 C107 1.289 . S
C135 O127 1.258 . S
C135 O128 1.266 . S
Co136 O139 1.970 . S
Co136 N153 1.989 . S
Co136 O161 1.967 . S
Co136 O168 1.920 . S
Co137 O140 1.966 . S
Co137 N146 2.022 . S
Co137 N154 1.993 . S
Co137 O162 1.941 . S
C138 O139 1.258 . S
C138 O140 1.263 . S
O139 Co136 1.970 . S
O139 C138 1.258 . S
O140 Co137 1.966 . S
O140 C138 1.263 . S
C141 O142 1.235 . S
C141 O168 1.289 . S
O142 C141 1.235 . S
C143 C145 1.400 . S
C143 N146 1.351 . S
C143 C148 1.501 . S
C144 C145 1.387 . S
C144 N147 1.341 . S
C145 C143 1.400 . S
C145 C144 1.387 . S
N146 Co137 2.022 . S
N146 C143 1.351 . S
N146 N147 1.365 . S
N147 C144 1.341 . S
N147 N146 1.365 . S
N147 H167 0.862 . S
C148 C143 1.501 . S
C148 H149 0.961 . S
C148 H150 0.961 . S
C148 H151 0.960 . S
H149 C148 0.961 . S
H150 C148 0.961 . S
H151 C148 0.960 . S
C152 N153 1.342 . S
C152 C156 1.401 . S
C152 C157 1.499 . S
N153 Co136 1.989 . S
N153 C152 1.342 . S
N153 N154 1.388 . S
N154 Co137 1.993 . S
N154 N153 1.388 . S
N154 C155 1.346 . S
C155 N154 1.346 . S
C155 C156 1.396 . S
C155 C165 1.510 . S
C156 C152 1.401 . S
C156 C155 1.396 . S
C157 C152 1.499 . S
C157 H158 0.959 . S
C157 H159 0.960 . S
C157 H160 0.961 . S
H158 C157 0.959 . S
H159 C157 0.960 . S
H160 C157 0.961 . S
O161 Co136 1.967 . S
O161 C169 1.258 . S
O162 Co137 1.941 . S
O162 C169 1.266 . S
H163 C165 0.959 . S
H164 C165 0.961 . S
C165 C155 1.510 . S
C165 H163 0.959 . S
C165 H164 0.961 . S
C165 H166 0.960 . S
H166 C165 0.960 . S
H167 N147 0.862 . S
O168 Co136 1.920 . S
O168 C141 1.289 . S
C169 O161 1.258 . S
C169 O162 1.266 . S
Co170 O173 1.970 . S
Co170 N187 1.989 . S
Co170 O195 1.967 . S
Co170 O202 1.920 . S
Co171 O174 1.966 . S
Co171 N180 2.022 . S
Co171 N188 1.993 . S
Co171 O196 1.941 . S
C172 O173 1.258 . S
C172 O174 1.263 . S
O173 Co170 1.970 . S
O173 C172 1.258 . S
O174 Co171 1.966 . S
O174 C172 1.263 . S
C175 O176 1.235 . S
C175 O202 1.289 . S
O176 C175 1.235 . S
C177 C179 1.400 . S
C177 N180 1.351 . S
C177 C182 1.501 . S
C178 C179 1.387 . S
C178 N181 1.341 . S
C179 C177 1.400 . S
C179 C178 1.387 . S
N180 Co171 2.022 . S
N180 C177 1.351 . S
N180 N181 1.365 . S
N181 C178 1.341 . S
N181 N180 1.365 . S
N181 H201 0.862 . S
C182 C177 1.501 . S
C182 H183 0.961 . S
C182 H184 0.961 . S
C182 H185 0.960 . S
H183 C182 0.961 . S
H184 C182 0.961 . S
H185 C182 0.960 . S
C186 N187 1.342 . S
C186 C190 1.401 . S
C186 C191 1.499 . S
N187 Co170 1.989 . S
N187 C186 1.342 . S
N187 N188 1.388 . S
N188 Co171 1.993 . S
N188 N187 1.388 . S
N188 C189 1.346 . S
C189 N188 1.346 . S
C189 C190 1.396 . S
C189 C199 1.510 . S
C190 C186 1.401 . S
C190 C189 1.396 . S
C191 C186 1.499 . S
C191 H192 0.959 . S
C191 H193 0.960 . S
C191 H194 0.961 . S
H192 C191 0.959 . S
H193 C191 0.960 . S
H194 C191 0.961 . S
O195 Co170 1.967 . S
O195 C203 1.258 . S
O196 Co171 1.941 . S
O196 C203 1.266 . S
H197 C199 0.959 . S
H198 C199 0.961 . S
C199 C189 1.510 . S
C199 H197 0.959 . S
C199 H198 0.961 . S
C199 H200 0.960 . S
H200 C199 0.960 . S
H201 N181 0.862 . S
O202 Co170 1.920 . S
O202 C175 1.289 . S
C203 O195 1.258 . S
C203 O196 1.266 . S
Co204 O207 1.970 . S
Co204 N221 1.989 . S
Co204 O229 1.967 . S
Co204 O236 1.920 . S
Co205 O208 1.966 . S
Co205 N214 2.022 . S
Co205 N222 1.993 . S
Co205 O230 1.941 . S
C206 O207 1.258 . S
C206 O208 1.263 . S
O207 Co204 1.970 . S
O207 C206 1.258 . S
O208 Co205 1.966 . S
O208 C206 1.263 . S
C209 O210 1.235 . S
C209 O236 1.289 . S
O210 C209 1.235 . S
C211 C213 1.400 . S
C211 N214 1.351 . S
C211 C216 1.501 . S
C212 C213 1.387 . S
C212 N215 1.341 . S
C213 C211 1.400 . S
C213 C212 1.387 . S
N214 Co205 2.022 . S
N214 C211 1.351 . S
N214 N215 1.365 . S
N215 C212 1.341 . S
N215 N214 1.365 . S
N215 H235 0.862 . S
C216 C211 1.501 . S
C216 H217 0.961 . S
C216 H218 0.961 . S
C216 H219 0.960 . S
H217 C216 0.961 . S
H218 C216 0.961 . S
H219 C216 0.960 . S
C220 N221 1.342 . S
C220 C224 1.401 . S
C220 C225 1.499 . S
N221 Co204 1.989 . S
N221 C220 1.342 . S
N221 N222 1.388 . S
N222 Co205 1.993 . S
N222 N221 1.388 . S
N222 C223 1.346 . S
C223 N222 1.346 . S
C223 C224 1.396 . S
C223 C233 1.510 . S
C224 C220 1.401 . S
C224 C223 1.396 . S
C225 C220 1.499 . S
C225 H226 0.959 . S
C225 H227 0.960 . S
C225 H228 0.961 . S
H226 C225 0.959 . S
H227 C225 0.960 . S
H228 C225 0.961 . S
O229 Co204 1.967 . S
O229 C237 1.258 . S
O230 Co205 1.941 . S
O230 C237 1.266 . S
H231 C233 0.959 . S
H232 C233 0.961 . S
C233 C223 1.510 . S
C233 H231 0.959 . S
C233 H232 0.961 . S
C233 H234 0.960 . S
H234 C233 0.960 . S
H235 N215 0.862 . S
O236 Co204 1.920 . S
O236 C209 1.289 . S
C237 O229 1.258 . S
C237 O230 1.266 . S
Co238 O241 1.970 . S
Co238 N255 1.989 . S
Co238 O263 1.967 . S
Co238 O270 1.920 . S
Co239 O242 1.966 . S
Co239 N248 2.022 . S
Co239 N256 1.993 . S
Co239 O264 1.941 . S
C240 O241 1.258 . S
C240 O242 1.263 . S
O241 Co238 1.970 . S
O241 C240 1.258 . S
O242 Co239 1.966 . S
O242 C240 1.263 . S
C243 O244 1.235 . S
C243 O270 1.289 . S
O244 C243 1.235 . S
C245 C247 1.400 . S
C245 N248 1.351 . S
C245 C250 1.501 . S
C246 C247 1.387 . S
C246 N249 1.341 . S
C247 C245 1.400 . S
C247 C246 1.387 . S
N248 Co239 2.022 . S
N248 C245 1.351 . S
N248 N249 1.365 . S
N249 C246 1.341 . S
N249 N248 1.365 . S
N249 H269 0.862 . S
C250 C245 1.501 . S
C250 H251 0.961 . S
C250 H252 0.961 . S
C250 H253 0.960 . S
H251 C250 0.961 . S
H252 C250 0.961 . S
H253 C250 0.960 . S
C254 N255 1.342 . S
C254 C258 1.401 . S
C254 C259 1.499 . S
N255 Co238 1.989 . S
N255 C254 1.342 . S
N255 N256 1.388 . S
N256 Co239 1.993 . S
N256 N255 1.388 . S
N256 C257 1.346 . S
C257 N256 1.346 . S
C257 C258 1.396 . S
C257 C267 1.510 . S
C258 C254 1.401 . S
C258 C257 1.396 . S
C259 C254 1.499 . S
C259 H260 0.959 . S
C259 H261 0.960 . S
C259 H262 0.961 . S
H260 C259 0.959 . S
H261 C259 0.960 . S
H262 C259 0.961 . S
O263 Co238 1.967 . S
O263 C271 1.258 . S
O264 Co239 1.941 . S
O264 C271 1.266 . S
H265 C267 0.959 . S
H266 C267 0.961 . S
C267 C257 1.510 . S
C267 H265 0.959 . S
C267 H266 0.961 . S
C267 H268 0.960 . S
H268 C267 0.960 . S
H269 N249 0.862 . S
O270 Co238 1.920 . S
O270 C243 1.289 . S
C271 O263 1.258 . S
C271 O264 1.266 . S
Co272 O275 1.970 . S
Co272 N289 1.989 . S
Co272 O297 1.967 . S
Co272 O304 1.920 . S
Co273 O276 1.966 . S
Co273 N282 2.022 . S
Co273 N290 1.993 . S
Co273 O298 1.941 . S
C274 O275 1.258 . S
C274 O276 1.263 . S
O275 Co272 1.970 . S
O275 C274 1.258 . S
O276 Co273 1.966 . S
O276 C274 1.263 . S
C277 O278 1.235 . S
C277 O304 1.289 . S
O278 C277 1.235 . S
C279 C281 1.400 . S
C279 N282 1.351 . S
C279 C284 1.501 . S
C280 C281 1.387 . S
C280 N283 1.341 . S
C281 C279 1.400 . S
C281 C280 1.387 . S
N282 Co273 2.022 . S
N282 C279 1.351 . S
N282 N283 1.365 . S
N283 C280 1.341 . S
N283 N282 1.365 . S
N283 H303 0.862 . S
C284 C279 1.501 . S
C284 H285 0.961 . S
C284 H286 0.961 . S
C284 H287 0.960 . S
H285 C284 0.961 . S
H286 C284 0.961 . S
H287 C284 0.960 . S
C288 N289 1.342 . S
C288 C292 1.401 . S
C288 C293 1.499 . S
N289 Co272 1.989 . S
N289 C288 1.342 . S
N289 N290 1.388 . S
N290 Co273 1.993 . S
N290 N289 1.388 . S
N290 C291 1.346 . S
C291 N290 1.346 . S
C291 C292 1.396 . S
C291 C301 1.510 . S
C292 C288 1.401 . S
C292 C291 1.396 . S
C293 C288 1.499 . S
C293 H294 0.959 . S
C293 H295 0.960 . S
C293 H296 0.961 . S
H294 C293 0.959 . S
H295 C293 0.960 . S
H296 C293 0.961 . S
O297 Co272 1.967 . S
O297 C305 1.258 . S
O298 Co273 1.941 . S
O298 C305 1.266 . S
H299 C301 0.959 . S
H300 C301 0.961 . S
C301 C291 1.510 . S
C301 H299 0.959 . S
C301 H300 0.961 . S
C301 H302 0.960 . S
H302 C301 0.960 . S
H303 N283 0.862 . S
O304 Co272 1.920 . S
O304 C277 1.289 . S
C305 O297 1.258 . S
C305 O298 1.266 . S
Co306 O309 1.970 . S
Co306 N323 1.989 . S
Co306 O331 1.967 . S
Co306 O338 1.920 . S
Co307 O310 1.966 . S
Co307 N316 2.022 . S
Co307 N324 1.993 . S
Co307 O332 1.941 . S
C308 O309 1.258 . S
C308 O310 1.263 . S
O309 Co306 1.970 . S
O309 C308 1.258 . S
O310 Co307 1.966 . S
O310 C308 1.263 . S
C311 O312 1.235 . S
C311 O338 1.289 . S
O312 C311 1.235 . S
C313 C315 1.400 . S
C313 N316 1.351 . S
C313 C318 1.501 . S
C314 C315 1.387 . S
C314 N317 1.341 . S
C315 C313 1.400 . S
C315 C314 1.387 . S
N316 Co307 2.022 . S
N316 C313 1.351 . S
N316 N317 1.365 . S
N317 C314 1.341 . S
N317 N316 1.365 . S
N317 H337 0.862 . S
C318 C313 1.501 . S
C318 H319 0.961 . S
C318 H320 0.961 . S
C318 H321 0.960 . S
H319 C318 0.961 . S
H320 C318 0.961 . S
H321 C318 0.960 . S
C322 N323 1.342 . S
C322 C326 1.401 . S
C322 C327 1.499 . S
N323 Co306 1.989 . S
N323 C322 1.342 . S
N323 N324 1.388 . S
N324 Co307 1.993 . S
N324 N323 1.388 . S
N324 C325 1.346 . S
C325 N324 1.346 . S
C325 C326 1.396 . S
C325 C335 1.510 . S
C326 C322 1.401 . S
C326 C325 1.396 . S
C327 C322 1.499 . S
C327 H328 0.959 . S
C327 H329 0.960 . S
C327 H330 0.961 . S
H328 C327 0.959 . S
H329 C327 0.960 . S
H330 C327 0.961 . S
O331 Co306 1.967 . S
O331 C339 1.258 . S
O332 Co307 1.941 . S
O332 C339 1.266 . S
H333 C335 0.959 . S
H334 C335 0.961 . S
C335 C325 1.510 . S
C335 H333 0.959 . S
C335 H334 0.961 . S
C335 H336 0.960 . S
H336 C335 0.960 . S
H337 N317 0.862 . S
O338 Co306 1.920 . S
O338 C311 1.289 . S
C339 O331 1.258 . S
C339 O332 1.266 . S
Co340 O343 1.970 . S
Co340 N357 1.989 . S
Co340 O365 1.967 . S
Co340 O372 1.920 . S
Co341 O344 1.966 . S
Co341 N350 2.022 . S
Co341 N358 1.993 . S
Co341 O366 1.941 . S
C342 O343 1.258 . S
C342 O344 1.263 . S
O343 Co340 1.970 . S
O343 C342 1.258 . S
O344 Co341 1.966 . S
O344 C342 1.263 . S
C345 O346 1.235 . S
C345 O372 1.289 . S
O346 C345 1.235 . S
C347 C349 1.400 . S
C347 N350 1.351 . S
C347 C352 1.501 . S
C348 C349 1.387 . S
C348 N351 1.341 . S
C349 C347 1.400 . S
C349 C348 1.387 . S
N350 Co341 2.022 . S
N350 C347 1.351 . S
N350 N351 1.365 . S
N351 C348 1.341 . S
N351 N350 1.365 . S
N351 H371 0.862 . S
C352 C347 1.501 . S
C352 H353 0.961 . S
C352 H354 0.961 . S
C352 H355 0.960 . S
H353 C352 0.961 . S
H354 C352 0.961 . S
H355 C352 0.960 . S
C356 N357 1.342 . S
C356 C360 1.401 . S
C356 C361 1.499 . S
N357 Co340 1.989 . S
N357 C356 1.342 . S
N357 N358 1.388 . S
N358 Co341 1.993 . S
N358 N357 1.388 . S
N358 C359 1.346 . S
C359 N358 1.346 . S
C359 C360 1.396 . S
C359 C369 1.510 . S
C360 C356 1.401 . S
C360 C359 1.396 . S
C361 C356 1.499 . S
C361 H362 0.959 . S
C361 H363 0.960 . S
C361 H364 0.961 . S
H362 C361 0.959 . S
H363 C361 0.960 . S
H364 C361 0.961 . S
O365 Co340 1.967 . S
O365 C373 1.258 . S
O366 Co341 1.941 . S
O366 C373 1.266 . S
H367 C369 0.959 . S
H368 C369 0.961 . S
C369 C359 1.510 . S
C369 H367 0.959 . S
C369 H368 0.961 . S
C369 H370 0.960 . S
H370 C369 0.960 . S
H371 N351 0.862 . S
O372 Co340 1.920 . S
O372 C345 1.289 . S
C373 O365 1.258 . S
C373 O366 1.266 . S
Co374 O377 1.970 . S
Co374 N391 1.989 . S
Co374 O399 1.967 . S
Co374 O406 1.920 . S
Co375 O378 1.966 . S
Co375 N384 2.022 . S
Co375 N392 1.993 . S
Co375 O400 1.941 . S
C376 O377 1.258 . S
C376 O378 1.263 . S
O377 Co374 1.970 . S
O377 C376 1.258 . S
O378 Co375 1.966 . S
O378 C376 1.263 . S
C379 O380 1.235 . S
C379 O406 1.289 . S
O380 C379 1.235 . S
C381 C383 1.400 . S
C381 N384 1.351 . S
C381 C386 1.501 . S
C382 C383 1.387 . S
C382 N385 1.341 . S
C383 C381 1.400 . S
C383 C382 1.387 . S
N384 Co375 2.022 . S
N384 C381 1.351 . S
N384 N385 1.365 . S
N385 C382 1.341 . S
N385 N384 1.365 . S
N385 H405 0.862 . S
C386 C381 1.501 . S
C386 H387 0.961 . S
C386 H388 0.961 . S
C386 H389 0.960 . S
H387 C386 0.961 . S
H388 C386 0.961 . S
H389 C386 0.960 . S
C390 N391 1.342 . S
C390 C394 1.401 . S
C390 C395 1.499 . S
N391 Co374 1.989 . S
N391 C390 1.342 . S
N391 N392 1.388 . S
N392 Co375 1.993 . S
N392 N391 1.388 . S
N392 C393 1.346 . S
C393 N392 1.346 . S
C393 C394 1.396 . S
C393 C403 1.510 . S
C394 C390 1.401 . S
C394 C393 1.396 . S
C395 C390 1.499 . S
C395 H396 0.959 . S
C395 H397 0.960 . S
C395 H398 0.961 . S
H396 C395 0.959 . S
H397 C395 0.960 . S
H398 C395 0.961 . S
O399 Co374 1.967 . S
O399 C407 1.258 . S
O400 Co375 1.941 . S
O400 C407 1.266 . S
H401 C403 0.959 . S
H402 C403 0.961 . S
C403 C393 1.510 . S
C403 H401 0.959 . S
C403 H402 0.961 . S
C403 H404 0.960 . S
H404 C403 0.960 . S
H405 N385 0.862 . S
O406 Co374 1.920 . S
O406 C379 1.289 . S
C407 O399 1.258 . S
C407 O400 1.266 . S
H408 C416 0.950 . S
H409 C421 0.950 . S
H410 C418 0.950 . S
H411 C420 0.950 . S
H412 C422 0.950 . S
H413 C424 0.950 . S
H414 C426 0.950 . S
H415 C427 0.950 . S
C416 H408 0.950 . S
C416 C417 1.386 . S
C416 C418 1.391 . S
C417 C416 1.386 . S
C417 C421 1.393 . S
C418 H410 0.950 . S
C418 C416 1.391 . S
C418 C419 1.400 . S
C419 C418 1.400 . S
C419 C420 1.398 . S
C419 C425 1.491 . S
C420 H411 0.950 . S
C420 C419 1.398 . S
C420 C421 1.391 . S
C421 H409 0.950 . S
C421 C417 1.393 . S
C421 C420 1.391 . S
C422 H412 0.950 . S
C422 C423 1.386 . S
C422 C424 1.391 . S
C423 C422 1.386 . S
C423 C427 1.393 . S
C424 H413 0.950 . S
C424 C422 1.391 . S
C424 C425 1.400 . S
C425 C419 1.491 . S
C425 C424 1.400 . S
C425 C426 1.398 . S
C426 H414 0.950 . S
C426 C425 1.398 . S
C426 C427 1.391 . S
C427 H415 0.950 . S
C427 C423 1.393 . S
C427 C426 1.391 . S
H428 C436 0.950 . S
H429 C441 0.950 . S
H430 C438 0.950 1_655 S
H431 C440 0.950 . S
H432 C442 0.950 . S
H433 C444 0.950 1_455 S
H434 C446 0.950 . S
H435 C447 0.950 . S
C436 H428 0.950 . S
C436 C437 1.386 . S
C436 C438 1.391 . S
C437 C436 1.386 . S
C437 C441 1.393 . S
C438 H430 0.950 1_455 S
C438 C436 1.391 . S
C438 C439 1.400 . S
C439 C438 1.400 . S
C439 C440 1.398 . S
C439 C445 1.491 1_455 S
C440 H431 0.950 . S
C440 C439 1.398 . S
C440 C441 1.391 . S
C441 H429 0.950 . S
C441 C437 1.393 . S
C441 C440 1.391 . S
C442 H432 0.950 . S
C442 C443 1.386 . S
C442 C444 1.391 . S
C443 C442 1.386 . S
C443 C447 1.393 . S
C444 H433 0.950 1_655 S
C444 C442 1.391 . S
C444 C445 1.400 . S
C445 C439 1.491 1_655 S
C445 C444 1.400 . S
C445 C446 1.398 . S
C446 H434 0.950 . S
C446 C445 1.398 . S
C446 C447 1.391 . S
C447 H435 0.950 . S
C447 C443 1.393 . S
C447 C446 1.391 . S
H448 C456 0.950 . S
H449 C461 0.950 . S
H450 C458 0.950 . S
H451 C460 0.950 . S
H452 C462 0.950 . S
H453 C464 0.950 . S
H454 C466 0.950 . S
H455 C467 0.950 . S
C456 H448 0.950 . S
C456 C457 1.386 . S
C456 C458 1.391 . S
C457 C456 1.386 . S
C457 C461 1.393 . S
C458 H450 0.950 . S
C458 C456 1.391 . S
C458 C459 1.400 . S
C459 C458 1.400 . S
C459 C460 1.398 . S
C459 C465 1.491 1_545 S
C460 H451 0.950 . S
C460 C459 1.398 . S
C460 C461 1.391 . S
C461 H449 0.950 . S
C461 C457 1.393 . S
C461 C460 1.391 . S
C462 H452 0.950 . S
C462 C463 1.386 . S
C462 C464 1.391 . S
C463 C462 1.386 . S
C463 C467 1.393 . S
C464 H453 0.950 . S
C464 C462 1.391 . S
C464 C465 1.400 . S
C465 C459 1.491 1_565 S
C465 C464 1.400 . S
C465 C466 1.398 . S
C466 H454 0.950 . S
C466 C465 1.398 . S
C466 C467 1.391 . S
C467 H455 0.950 . S
C467 C463 1.393 . S
C467 C466 1.391 . S
H468 C476 0.950 . S
H469 C481 0.950 . S
H470 C478 0.950 . S
H471 C480 0.950 . S
H472 C482 0.950 . S
H473 C484 0.950 . S
H474 C486 0.950 . S
H475 C487 0.950 . S
C476 H468 0.950 . S
C476 C477 1.386 . S
C476 C478 1.391 . S
C477 C476 1.386 . S
C477 C481 1.393 . S
C478 H470 0.950 . S
C478 C476 1.391 . S
C478 C479 1.400 . S
C479 C478 1.400 . S
C479 C480 1.398 . S
C479 C485 1.491 . S
C480 H471 0.950 . S
C480 C479 1.398 . S
C480 C481 1.391 . S
C481 H469 0.950 . S
C481 C477 1.393 . S
C481 C480 1.391 . S
C482 H472 0.950 . S
C482 C483 1.386 . S
C482 C484 1.391 . S
C483 C482 1.386 . S
C483 C487 1.393 . S
C484 H473 0.950 . S
C484 C482 1.391 . S
C484 C485 1.400 . S
C485 C479 1.491 . S
C485 C484 1.400 . S
C485 C486 1.398 . S
C486 H474 0.950 . S
C486 C485 1.398 . S
C486 C487 1.391 . S
C487 H475 0.950 . S
C487 C483 1.393 . S
C487 C486 1.391 . S
H488 C496 0.950 . S
H489 C501 0.950 . S
H490 C498 0.950 . S
H491 C500 0.950 . S
H492 C502 0.950 . S
H493 C504 0.950 . S
H494 C506 0.950 . S
H495 C507 0.950 . S
C496 H488 0.950 . S
C496 C497 1.386 . S
C496 C498 1.391 1_655 S
C497 C496 1.386 . S
C497 C501 1.393 . S
C498 H490 0.950 . S
C498 C496 1.391 1_455 S
C498 C499 1.400 1_455 S
C499 C498 1.400 1_655 S
C499 C500 1.398 . S
C499 C505 1.491 1_655 S
C500 H491 0.950 . S
C500 C499 1.398 . S
C500 C501 1.391 . S
C501 H489 0.950 . S
C501 C497 1.393 . S
C501 C500 1.391 . S
C502 H492 0.950 . S
C502 C503 1.386 . S
C502 C504 1.391 1_455 S
C503 C502 1.386 . S
C503 C507 1.393 . S
C504 H493 0.950 . S
C504 C502 1.391 1_655 S
C504 C505 1.400 1_655 S
C505 C499 1.491 1_455 S
C505 C504 1.400 1_455 S
C505 C506 1.398 . S
C506 H494 0.950 . S
C506 C505 1.398 . S
C506 C507 1.391 . S
C507 H495 0.950 . S
C507 C503 1.393 . S
C507 C506 1.391 . S
H508 C516 0.950 . S
H509 C521 0.950 . S
H510 C518 0.950 . S
H511 C520 0.950 . S
H512 C522 0.950 . S
H513 C524 0.950 . S
H514 C526 0.950 . S
H515 C527 0.950 . S
C516 H508 0.950 . S
C516 C517 1.386 . S
C516 C518 1.391 . S
C517 C516 1.386 . S
C517 C521 1.393 . S
C518 H510 0.950 . S
C518 C516 1.391 . S
C518 C519 1.400 . S
C519 C518 1.400 . S
C519 C520 1.398 . S
C519 C525 1.491 1_565 S
C520 H511 0.950 . S
C520 C519 1.398 . S
C520 C521 1.391 . S
C521 H509 0.950 . S
C521 C517 1.393 . S
C521 C520 1.391 . S
C522 H512 0.950 . S
C522 C523 1.386 . S
C522 C524 1.391 . S
C523 C522 1.386 . S
C523 C527 1.393 . S
C524 H513 0.950 . S
C524 C522 1.391 . S
C524 C525 1.400 . S
C525 C519 1.491 1_545 S
C525 C524 1.400 . S
C525 C526 1.398 . S
C526 H514 0.950 . S
C526 C525 1.398 . S
C526 C527 1.391 . S
C527 H515 0.950 . S
C527 C523 1.393 . S
C527 C526 1.391 . S
H528 C536 0.950 . S
H529 C541 0.950 . S
H530 C538 0.950 1_455 S
H531 C540 0.950 . S
H532 C542 0.950 . S
H533 C544 0.950 1_655 S
H534 C546 0.950 . S
H535 C547 0.950 . S
C536 H528 0.950 . S
C536 C537 1.386 . S
C536 C538 1.391 . S
C537 C536 1.386 . S
C537 C541 1.393 . S
C538 H530 0.950 1_655 S
C538 C536 1.391 . S
C538 C539 1.400 . S
C539 C538 1.400 . S
C539 C540 1.398 . S
C539 C545 1.491 1_655 S
C540 H531 0.950 . S
C540 C539 1.398 . S
C540 C541 1.391 . S
C541 H529 0.950 . S
C541 C537 1.393 . S
C541 C540 1.391 . S
C542 H532 0.950 . S
C542 C543 1.386 . S
C542 C544 1.391 . S
C543 C542 1.386 . S
C543 C547 1.393 . S
C544 H533 0.950 1_455 S
C544 C542 1.391 . S
C544 C545 1.400 . S
C545 C539 1.491 1_455 S
C545 C544 1.400 . S
C545 C546 1.398 . S
C546 H534 0.950 . S
C546 C545 1.398 . S
C546 C547 1.391 . S
C547 H535 0.950 . S
C547 C543 1.393 . S
C547 C546 1.391 . S
H548 C556 0.950 . S
H549 C561 0.950 . S
H550 C558 0.950 . S
H551 C560 0.950 1_565 S
H552 C562 0.950 . S
H553 C564 0.950 . S
H554 C566 0.950 1_545 S
H555 C567 0.950 . S
C556 H548 0.950 . S
C556 C557 1.386 . S
C556 C558 1.391 . S
C557 C556 1.386 . S
C557 C561 1.393 . S
C558 H550 0.950 . S
C558 C556 1.391 . S
C558 C559 1.400 . S
C559 C558 1.400 . S
C559 C560 1.398 . S
C559 C565 1.491 1_545 S
C560 H551 0.950 1_545 S
C560 C559 1.398 . S
C560 C561 1.391 . S
C561 H549 0.950 . S
C561 C557 1.393 . S
C561 C560 1.391 . S
C562 H552 0.950 . S
C562 C563 1.386 . S
C562 C564 1.391 . S
C563 C562 1.386 . S
C563 C567 1.393 . S
C564 H553 0.950 . S
C564 C562 1.391 . S
C564 C565 1.400 . S
C565 C559 1.491 1_565 S
C565 C564 1.400 . S
C565 C566 1.398 . S
C566 H554 0.950 1_565 S
C566 C565 1.398 . S
C566 C567 1.391 . S
C567 H555 0.950 . S
C567 C563 1.393 . S
C567 C566 1.391 . S
H568 C576 0.950 . S
H569 C581 0.950 . S
H570 C578 0.950 . S
H571 C580 0.950 . S
H572 C582 0.950 . S
H573 C584 0.950 . S
H574 C586 0.950 . S
H575 C587 0.950 . S
C576 H568 0.950 . S
C576 C577 1.386 . S
C576 C578 1.391 . S
C577 C576 1.386 . S
C577 C581 1.393 . S
C578 H570 0.950 . S
C578 C576 1.391 . S
C578 C579 1.400 . S
C579 C578 1.400 . S
C579 C580 1.398 . S
C579 C585 1.491 . S
C580 H571 0.950 . S
C580 C579 1.398 . S
C580 C581 1.391 . S
C581 H569 0.950 . S
C581 C577 1.393 . S
C581 C580 1.391 . S
C582 H572 0.950 . S
C582 C583 1.386 . S
C582 C584 1.391 . S
C583 C582 1.386 . S
C583 C587 1.393 . S
C584 H573 0.950 . S
C584 C582 1.391 . S
C584 C585 1.400 . S
C585 C579 1.491 . S
C585 C584 1.400 . S
C585 C586 1.398 . S
C586 H574 0.950 . S
C586 C585 1.398 . S
C586 C587 1.391 . S
C587 H575 0.950 . S
C587 C583 1.393 . S
C587 C586 1.391 . S
H588 C596 0.950 . S
H589 C601 0.950 . S
H590 C598 0.950 . S
H591 C600 0.950 . S
H592 C602 0.950 . S
H593 C604 0.950 . S
H594 C606 0.950 . S
H595 C607 0.950 . S
C596 H588 0.950 . S
C596 C597 1.386 . S
C596 C598 1.391 . S
C597 C596 1.386 . S
C597 C601 1.393 . S
C598 H590 0.950 . S
C598 C596 1.391 . S
C598 C599 1.400 . S
C599 C598 1.400 . S
C599 C600 1.398 . S
C599 C605 1.491 1_565 S
C600 H591 0.950 . S
C600 C599 1.398 . S
C600 C601 1.391 . S
C601 H589 0.950 . S
C601 C597 1.393 . S
C601 C600 1.391 . S
C602 H592 0.950 . S
C602 C603 1.386 . S
C602 C604 1.391 . S
C603 C602 1.386 . S
C603 C607 1.393 . S
C604 H593 0.950 . S
C604 C602 1.391 . S
C604 C605 1.400 . S
C605 C599 1.491 1_545 S
C605 C604 1.400 . S
C605 C606 1.398 . S
C606 H594 0.950 . S
C606 C605 1.398 . S
C606 C607 1.391 . S
C607 H595 0.950 . S
C607 C603 1.393 . S
C607 C606 1.391 . S
H608 C616 0.950 . S
H609 C621 0.950 . S
H610 C618 0.950 . S
H611 C620 0.950 . S
H612 C622 0.950 . S
H613 C624 0.950 . S
H614 C626 0.950 . S
H615 C627 0.950 . S
C616 H608 0.950 . S
C616 C617 1.386 . S
C616 C618 1.391 . S
C617 C616 1.386 . S
C617 C621 1.393 . S
C618 H610 0.950 . S
C618 C616 1.391 . S
C618 C619 1.400 . S
C619 C618 1.400 . S
C619 C620 1.398 . S
C619 C625 1.491 . S
C620 H611 0.950 . S
C620 C619 1.398 . S
C620 C621 1.391 . S
C621 H609 0.950 . S
C621 C617 1.393 . S
C621 C620 1.391 . S
C622 H612 0.950 . S
C622 C623 1.386 . S
C622 C624 1.391 . S
C623 C622 1.386 . S
C623 C627 1.393 . S
C624 H613 0.950 . S
C624 C622 1.391 . S
C624 C625 1.400 . S
C625 C619 1.491 . S
C625 C624 1.400 . S
C625 C626 1.398 . S
C626 H614 0.950 . S
C626 C625 1.398 . S
C626 C627 1.391 . S
C627 H615 0.950 . S
C627 C623 1.393 . S
C627 C626 1.391 . S
H628 C636 0.950 . S
H629 C641 0.950 . S
H630 C638 0.950 1_655 S
H631 C640 0.950 . S
H632 C642 0.950 . S
H633 C644 0.950 1_455 S
H634 C646 0.950 . S
H635 C647 0.950 . S
C636 H628 0.950 . S
C636 C637 1.386 . S
C636 C638 1.391 . S
C637 C636 1.386 . S
C637 C641 1.393 . S
C638 H630 0.950 1_455 S
C638 C636 1.391 . S
C638 C639 1.400 . S
C639 C638 1.400 . S
C639 C640 1.398 . S
C639 C645 1.491 1_455 S
C640 H631 0.950 . S
C640 C639 1.398 . S
C640 C641 1.391 . S
C641 H629 0.950 . S
C641 C637 1.393 . S
C641 C640 1.391 . S
C642 H632 0.950 . S
C642 C643 1.386 . S
C642 C644 1.391 . S
C643 C642 1.386 . S
C643 C647 1.393 . S
C644 H633 0.950 1_655 S
C644 C642 1.391 . S
C644 C645 1.400 . S
C645 C639 1.491 1_655 S
C645 C644 1.400 . S
C645 C646 1.398 . S
C646 H634 0.950 . S
C646 C645 1.398 . S
C646 C647 1.391 . S
C647 H635 0.950 . S
C647 C643 1.393 . S
C647 C646 1.391 . S
H648 C656 0.950 . S
H649 C661 0.950 . S
H650 C658 0.950 . S
H651 C660 0.950 . S
H652 C662 0.950 . S
H653 C664 0.950 . S
H654 C666 0.950 . S
H655 C667 0.950 . S
C656 H648 0.950 . S
C656 C657 1.386 . S
C656 C658 1.391 . S
C657 C656 1.386 . S
C657 C661 1.393 . S
C658 H650 0.950 . S
C658 C656 1.391 . S
C658 C659 1.400 . S
C659 C658 1.400 . S
C659 C660 1.398 . S
C659 C665 1.491 . S
C660 H651 0.950 . S
C660 C659 1.398 . S
C660 C661 1.391 . S
C661 H649 0.950 . S
C661 C657 1.393 . S
C661 C660 1.391 . S
C662 H652 0.950 . S
C662 C663 1.386 . S
C662 C664 1.391 . S
C663 C662 1.386 . S
C663 C667 1.393 . S
C664 H653 0.950 . S
C664 C662 1.391 . S
C664 C665 1.400 . S
C665 C659 1.491 . S
C665 C664 1.400 . S
C665 C666 1.398 . S
C666 H654 0.950 . S
C666 C665 1.398 . S
C666 C667 1.391 . S
C667 H655 0.950 . S
C667 C663 1.393 . S
C667 C666 1.391 . S
H668 C676 0.950 . S
H669 C681 0.950 . S
H670 C678 0.950 . S
H671 C680 0.950 . S
H672 C682 0.950 . S
H673 C684 0.950 . S
H674 C686 0.950 . S
H675 C687 0.950 . S
C676 H668 0.950 . S
C676 C677 1.386 . S
C676 C678 1.391 . S
C677 C676 1.386 . S
C677 C681 1.393 . S
C678 H670 0.950 . S
C678 C676 1.391 . S
C678 C679 1.400 . S
C679 C678 1.400 . S
C679 C680 1.398 . S
C679 C685 1.491 . S
C680 H671 0.950 . S
C680 C679 1.398 . S
C680 C681 1.391 . S
C681 H669 0.950 . S
C681 C677 1.393 . S
C681 C680 1.391 . S
C682 H672 0.950 . S
C682 C683 1.386 . S
C682 C684 1.391 . S
C683 C682 1.386 . S
C683 C687 1.393 . S
C684 H673 0.950 . S
C684 C682 1.391 . S
C684 C685 1.400 . S
C685 C679 1.491 . S
C685 C684 1.400 . S
C685 C686 1.398 . S
C686 H674 0.950 . S
C686 C685 1.398 . S
C686 C687 1.391 . S
C687 H675 0.950 . S
C687 C683 1.393 . S
C687 C686 1.391 . S
H688 C696 0.950 . S
H689 C701 0.950 . S
H690 C698 0.950 . S
H691 C700 0.950 . S
H692 C702 0.950 . S
H693 C704 0.950 . S
H694 C706 0.950 . S
H695 C707 0.950 . S
C696 H688 0.950 . S
C696 C697 1.386 . S
C696 C698 1.391 . S
C697 C696 1.386 . S
C697 C701 1.393 . S
C698 H690 0.950 . S
C698 C696 1.391 . S
C698 C699 1.400 . S
C699 C698 1.400 . S
C699 C700 1.398 . S
C699 C705 1.491 . S
C700 H691 0.950 . S
C700 C699 1.398 . S
C700 C701 1.391 . S
C701 H689 0.950 . S
C701 C697 1.393 . S
C701 C700 1.391 . S
C702 H692 0.950 . S
C702 C703 1.386 . S
C702 C704 1.391 . S
C703 C702 1.386 . S
C703 C707 1.393 . S
C704 H693 0.950 . S
C704 C702 1.391 . S
C704 C705 1.400 . S
C705 C699 1.491 . S
C705 C704 1.400 . S
C705 C706 1.398 . S
C706 H694 0.950 . S
C706 C705 1.398 . S
C706 C707 1.391 . S
C707 H695 0.950 . S
C707 C703 1.393 . S
C707 C706 1.391 . S
H708 C716 0.950 . S
H709 C721 0.950 . S
H710 C718 0.950 . S
H711 C720 0.950 . S
H712 C722 0.950 . S
H713 C724 0.950 . S
H714 C726 0.950 . S
H715 C727 0.950 . S
C716 H708 0.950 . S
C716 C717 1.386 . S
C716 C718 1.391 . S
C717 C716 1.386 . S
C717 C721 1.393 . S
C718 H710 0.950 . S
C718 C716 1.391 . S
C718 C719 1.400 . S
C719 C718 1.400 . S
C719 C720 1.398 . S
C719 C725 1.491 . S
C720 H711 0.950 . S
C720 C719 1.398 . S
C720 C721 1.391 . S
C721 H709 0.950 . S
C721 C717 1.393 . S
C721 C720 1.391 . S
C722 H712 0.950 . S
C722 C723 1.386 . S
C722 C724 1.391 . S
C723 C722 1.386 . S
C723 C727 1.393 . S
C724 H713 0.950 . S
C724 C722 1.391 . S
C724 C725 1.400 . S
C725 C719 1.491 . S
C725 C724 1.400 . S
C725 C726 1.398 . S
C726 H714 0.950 . S
C726 C725 1.398 . S
C726 C727 1.391 . S
C727 H715 0.950 . S
C727 C723 1.393 . S
C727 C726 1.391 . S
H728 C736 0.950 . S
H729 C741 0.950 . S
H730 C738 0.950 . S
H731 C740 0.950 . S
H732 C742 0.950 . S
H733 C744 0.950 . S
H734 C746 0.950 . S
H735 C747 0.950 . S
C736 H728 0.950 . S
C736 C737 1.386 . S
C736 C738 1.391 . S
C737 C736 1.386 . S
C737 C741 1.393 . S
C738 H730 0.950 . S
C738 C736 1.391 . S
C738 C739 1.400 . S
C739 C738 1.400 . S
C739 C740 1.398 . S
C739 C745 1.491 . S
C740 H731 0.950 . S
C740 C739 1.398 . S
C740 C741 1.391 . S
C741 H729 0.950 . S
C741 C737 1.393 . S
C741 C740 1.391 . S
C742 H732 0.950 . S
C742 C743 1.386 . S
C742 C744 1.391 . S
C743 C742 1.386 . S
C743 C747 1.393 . S
C744 H733 0.950 . S
C744 C742 1.391 . S
C744 C745 1.400 . S
C745 C739 1.491 . S
C745 C744 1.400 . S
C745 C746 1.398 . S
C746 H734 0.950 . S
C746 C745 1.398 . S
C746 C747 1.391 . S
C747 H735 0.950 . S
C747 C743 1.393 . S
C747 C746 1.391 . S
H748 C756 0.950 . S
H749 C761 0.950 . S
H750 C758 0.950 . S
H751 C760 0.950 . S
H752 C762 0.950 . S
H753 C764 0.950 . S
H754 C766 0.950 . S
H755 C767 0.950 . S
C756 H748 0.950 . S
C756 C757 1.386 . S
C756 C758 1.391 . S
C757 C756 1.386 . S
C757 C761 1.393 . S
C758 H750 0.950 . S
C758 C756 1.391 . S
C758 C759 1.400 . S
C759 C758 1.400 . S
C759 C760 1.398 . S
C759 C765 1.491 . S
C760 H751 0.950 . S
C760 C759 1.398 . S
C760 C761 1.391 . S
C761 H749 0.950 . S
C761 C757 1.393 . S
C761 C760 1.391 . S
C762 H752 0.950 . S
C762 C763 1.386 . S
C762 C764 1.391 . S
C763 C762 1.386 . S
C763 C767 1.393 . S
C764 H753 0.950 . S
C764 C762 1.391 . S
C764 C765 1.400 . S
C765 C759 1.491 . S
C765 C764 1.400 . S
C765 C766 1.398 . S
C766 H754 0.950 . S
C766 C765 1.398 . S
C766 C767 1.391 . S
C767 H755 0.950 . S
C767 C763 1.393 . S
C767 C766 1.391 . S
H768 C776 0.950 . S
H769 C781 0.950 . S
H770 C778 0.950 . S
H771 C780 0.950 . S
H772 C782 0.950 . S
H773 C784 0.950 . S
H774 C786 0.950 . S
H775 C787 0.950 . S
C776 H768 0.950 . S
C776 C777 1.386 . S
C776 C778 1.391 . S
C777 C776 1.386 . S
C777 C781 1.393 . S
C778 H770 0.950 . S
C778 C776 1.391 . S
C778 C779 1.400 . S
C779 C778 1.400 . S
C779 C780 1.398 . S
C779 C785 1.491 1_556 S
C780 H771 0.950 . S
C780 C779 1.398 . S
C780 C781 1.391 . S
C781 H769 0.950 . S
C781 C777 1.393 . S
C781 C780 1.391 . S
C782 H772 0.950 . S
C782 C783 1.386 . S
C782 C784 1.391 . S
C783 C782 1.386 . S
C783 C787 1.393 . S
C784 H773 0.950 . S
C784 C782 1.391 . S
C784 C785 1.400 . S
C785 C779 1.491 1_554 S
C785 C784 1.400 . S
C785 C786 1.398 . S
C786 H774 0.950 . S
C786 C785 1.398 . S
C786 C787 1.391 . S
C787 H775 0.950 . S
C787 C783 1.393 . S
C787 C786 1.391 . S
H788 C796 0.950 . S
H789 C801 0.950 . S
H790 C798 0.950 . S
H791 C800 0.950 . S
H792 C802 0.950 . S
H793 C804 0.950 . S
H794 C806 0.950 . S
H795 C807 0.950 . S
C796 H788 0.950 . S
C796 C797 1.386 . S
C796 C798 1.391 . S
C797 C796 1.386 . S
C797 C801 1.393 . S
C798 H790 0.950 . S
C798 C796 1.391 . S
C798 C799 1.400 . S
C799 C798 1.400 . S
C799 C800 1.398 . S
C799 C805 1.491 . S
C800 H791 0.950 . S
C800 C799 1.398 . S
C800 C801 1.391 . S
C801 H789 0.950 . S
C801 C797 1.393 . S
C801 C800 1.391 . S
C802 H792 0.950 . S
C802 C803 1.386 . S
C802 C804 1.391 . S
C803 C802 1.386 . S
C803 C807 1.393 . S
C804 H793 0.950 . S
C804 C802 1.391 . S
C804 C805 1.400 . S
C805 C799 1.491 . S
C805 C804 1.400 . S
C805 C806 1.398 . S
C806 H794 0.950 . S
C806 C805 1.398 . S
C806 C807 1.391 . S
C807 H795 0.950 . S
C807 C803 1.393 . S
C807 C806 1.391 . S
H808 C816 0.950 . S
H809 C821 0.950 . S
H810 C818 0.950 . S
H811 C820 0.950 . S
H812 C822 0.950 . S
H813 C824 0.950 . S
H814 C826 0.950 . S
H815 C827 0.950 . S
C816 H808 0.950 . S
C816 C817 1.386 . S
C816 C818 1.391 . S
C817 C816 1.386 . S
C817 C821 1.393 . S
C818 H810 0.950 . S
C818 C816 1.391 . S
C818 C819 1.400 . S
C819 C818 1.400 . S
C819 C820 1.398 . S
C819 C825 1.491 . S
C820 H811 0.950 . S
C820 C819 1.398 . S
C820 C821 1.391 . S
C821 H809 0.950 . S
C821 C817 1.393 . S
C821 C820 1.391 . S
C822 H812 0.950 . S
C822 C823 1.386 . S
C822 C824 1.391 . S
C823 C822 1.386 . S
C823 C827 1.393 . S
C824 H813 0.950 . S
C824 C822 1.391 . S
C824 C825 1.400 . S
C825 C819 1.491 . S
C825 C824 1.400 . S
C825 C826 1.398 . S
C826 H814 0.950 . S
C826 C825 1.398 . S
C826 C827 1.391 . S
C827 H815 0.950 . S
C827 C823 1.393 . S
C827 C826 1.391 . S
H828 C836 0.950 . S
H829 C841 0.950 . S
H830 C838 0.950 . S
H831 C840 0.950 . S
H832 C842 0.950 . S
H833 C844 0.950 . S
H834 C846 0.950 . S
H835 C847 0.950 . S
C836 H828 0.950 . S
C836 C837 1.386 . S
C836 C838 1.391 . S
C837 C836 1.386 . S
C837 C841 1.393 . S
C838 H830 0.950 . S
C838 C836 1.391 . S
C838 C839 1.400 . S
C839 C838 1.400 . S
C839 C840 1.398 . S
C839 C845 1.491 1_556 S
C840 H831 0.950 . S
C840 C839 1.398 . S
C840 C841 1.391 . S
C841 H829 0.950 . S
C841 C837 1.393 . S
C841 C840 1.391 . S
C842 H832 0.950 . S
C842 C843 1.386 . S
C842 C844 1.391 . S
C843 C842 1.386 . S
C843 C847 1.393 . S
C844 H833 0.950 . S
C844 C842 1.391 . S
C844 C845 1.400 . S
C845 C839 1.491 1_554 S
C845 C844 1.400 . S
C845 C846 1.398 . S
C846 H834 0.950 . S
C846 C845 1.398 . S
C846 C847 1.391 . S
C847 H835 0.950 . S
C847 C843 1.393 . S
C847 C846 1.391 . S
H848 C856 0.950 . S
H849 C861 0.950 . S
H850 C858 0.950 . S
H851 C860 0.950 . S
H852 C862 0.950 . S
H853 C864 0.950 . S
H854 C866 0.950 . S
H855 C867 0.950 . S
C856 H848 0.950 . S
C856 C857 1.386 . S
C856 C858 1.391 . S
C857 C856 1.386 . S
C857 C861 1.393 . S
C858 H850 0.950 . S
C858 C856 1.391 . S
C858 C859 1.400 . S
C859 C858 1.400 . S
C859 C860 1.398 . S
C859 C865 1.491 . S
C860 H851 0.950 . S
C860 C859 1.398 . S
C860 C861 1.391 . S
C861 H849 0.950 . S
C861 C857 1.393 . S
C861 C860 1.391 . S
C862 H852 0.950 . S
C862 C863 1.386 . S
C862 C864 1.391 . S
C863 C862 1.386 . S
C863 C867 1.393 . S
C864 H853 0.950 . S
C864 C862 1.391 . S
C864 C865 1.400 . S
C865 C859 1.491 . S
C865 C864 1.400 . S
C865 C866 1.398 . S
C866 H854 0.950 . S
C866 C865 1.398 . S
C866 C867 1.391 . S
C867 H855 0.950 . S
C867 C863 1.393 . S
C867 C866 1.391 . S
H868 C876 0.950 . S
H869 C881 0.950 . S
H870 C878 0.950 . S
H871 C880 0.950 . S
H872 C882 0.950 . S
H873 C884 0.950 . S
H874 C886 0.950 . S
H875 C887 0.950 . S
C876 H868 0.950 . S
C876 C877 1.386 . S
C876 C878 1.391 . S
C877 C876 1.386 . S
C877 C881 1.393 . S
C878 H870 0.950 . S
C878 C876 1.391 . S
C878 C879 1.400 . S
C879 C878 1.400 . S
C879 C880 1.398 . S
C879 C885 1.491 . S
C880 H871 0.950 . S
C880 C879 1.398 . S
C880 C881 1.391 . S
C881 H869 0.950 . S
C881 C877 1.393 . S
C881 C880 1.391 . S
C882 H872 0.950 . S
C882 C883 1.386 . S
C882 C884 1.391 . S
C883 C882 1.386 . S
C883 C887 1.393 . S
C884 H873 0.950 . S
C884 C882 1.391 . S
C884 C885 1.400 . S
C885 C879 1.491 . S
C885 C884 1.400 . S
C885 C886 1.398 . S
C886 H874 0.950 . S
C886 C885 1.398 . S
C886 C887 1.391 . S
C887 H875 0.950 . S
C887 C883 1.393 . S
C887 C886 1.391 . S
H888 C896 0.950 . S
H889 C901 0.950 . S
H890 C898 0.950 . S
H891 C900 0.950 . S
H892 C902 0.950 . S
H893 C904 0.950 . S
H894 C906 0.950 . S
H895 C907 0.950 . S
C896 H888 0.950 . S
C896 C897 1.386 . S
C896 C898 1.391 . S
C897 C896 1.386 . S
C897 C901 1.393 . S
C898 H890 0.950 . S
C898 C896 1.391 . S
C898 C899 1.400 . S
C899 C898 1.400 . S
C899 C900 1.398 . S
C899 C905 1.491 1_655 S
C900 H891 0.950 . S
C900 C899 1.398 . S
C900 C901 1.391 . S
C901 H889 0.950 . S
C901 C897 1.393 . S
C901 C900 1.391 . S
C902 H892 0.950 . S
C902 C903 1.386 . S
C902 C904 1.391 . S
C903 C902 1.386 . S
C903 C907 1.393 . S
C904 H893 0.950 . S
C904 C902 1.391 . S
C904 C905 1.400 . S
C905 C899 1.491 1_455 S
C905 C904 1.400 . S
C905 C906 1.398 . S
C906 H894 0.950 . S
C906 C905 1.398 . S
C906 C907 1.391 . S
C907 H895 0.950 . S
C907 C903 1.393 . S
C907 C906 1.391 . S
H908 C916 0.950 . S
H909 C921 0.950 . S
H910 C918 0.950 . S
H911 C920 0.950 1_545 S
H912 C922 0.950 . S
H913 C924 0.950 . S
H914 C926 0.950 1_565 S
H915 C927 0.950 . S
C916 H908 0.950 . S
C916 C917 1.386 . S
C916 C918 1.391 . S
C917 C916 1.386 . S
C917 C921 1.393 . S
C918 H910 0.950 . S
C918 C916 1.391 . S
C918 C919 1.400 . S
C919 C918 1.400 . S
C919 C920 1.398 . S
C919 C925 1.491 1_565 S
C920 H911 0.950 1_565 S
C920 C919 1.398 . S
C920 C921 1.391 . S
C921 H909 0.950 . S
C921 C917 1.393 . S
C921 C920 1.391 . S
C922 H912 0.950 . S
C922 C923 1.386 . S
C922 C924 1.391 . S
C923 C922 1.386 . S
C923 C927 1.393 . S
C924 H913 0.950 . S
C924 C922 1.391 . S
C924 C925 1.400 . S
C925 C919 1.491 1_545 S
C925 C924 1.400 . S
C925 C926 1.398 . S
C926 H914 0.950 1_545 S
C926 C925 1.398 . S
C926 C927 1.391 . S
C927 H915 0.950 . S
C927 C923 1.393 . S
C927 C926 1.391 . S
H928 C936 0.950 . S
H929 C941 0.950 . S
H930 C938 0.950 . S
H931 C940 0.950 . S
H932 C942 0.950 . S
H933 C944 0.950 . S
H934 C946 0.950 . S
H935 C947 0.950 . S
C936 H928 0.950 . S
C936 C937 1.386 . S
C936 C938 1.391 . S
C937 C936 1.386 . S
C937 C941 1.393 . S
C938 H930 0.950 . S
C938 C936 1.391 . S
C938 C939 1.400 . S
C939 C938 1.400 . S
C939 C940 1.398 . S
C939 C945 1.491 . S
C940 H931 0.950 . S
C940 C939 1.398 . S
C940 C941 1.391 . S
C941 H929 0.950 . S
C941 C937 1.393 . S
C941 C940 1.391 . S
C942 H932 0.950 . S
C942 C943 1.386 . S
C942 C944 1.391 . S
C943 C942 1.386 . S
C943 C947 1.393 . S
C944 H933 0.950 . S
C944 C942 1.391 . S
C944 C945 1.400 . S
C945 C939 1.491 . S
C945 C944 1.400 . S
C945 C946 1.398 . S
C946 H934 0.950 . S
C946 C945 1.398 . S
C946 C947 1.391 . S
C947 H935 0.950 . S
C947 C943 1.393 . S
C947 C946 1.391 . S
H948 C956 0.950 . S
H949 C961 0.950 . S
H950 C958 0.950 1_655 S
H951 C960 0.950 . S
H952 C962 0.950 . S
H953 C964 0.950 1_455 S
H954 C966 0.950 . S
H955 C967 0.950 . S
C956 H948 0.950 . S
C956 C957 1.386 . S
C956 C958 1.391 . S
C957 C956 1.386 . S
C957 C961 1.393 . S
C958 H950 0.950 1_455 S
C958 C956 1.391 . S
C958 C959 1.400 . S
C959 C958 1.400 . S
C959 C960 1.398 . S
C959 C965 1.491 1_455 S
C960 H951 0.950 . S
C960 C959 1.398 . S
C960 C961 1.391 . S
C961 H949 0.950 . S
C961 C957 1.393 . S
C961 C960 1.391 . S
C962 H952 0.950 . S
C962 C963 1.386 . S
C962 C964 1.391 . S
C963 C962 1.386 . S
C963 C967 1.393 . S
C964 H953 0.950 1_655 S
C964 C962 1.391 . S
C964 C965 1.400 . S
C965 C959 1.491 1_655 S
C965 C964 1.400 . S
C965 C966 1.398 . S
C966 H954 0.950 . S
C966 C965 1.398 . S
C966 C967 1.391 . S
C967 H955 0.950 . S
C967 C963 1.393 . S
C967 C966 1.391 . S
H968 C976 0.950 . S
H969 C981 0.950 . S
H970 C978 0.950 . S
H971 C980 0.950 . S
H972 C982 0.950 . S
H973 C984 0.950 . S
H974 C986 0.950 . S
H975 C987 0.950 . S
C976 H968 0.950 . S
C976 C977 1.386 . S
C976 C978 1.391 . S
C977 C976 1.386 . S
C977 C981 1.393 . S
C978 H970 0.950 . S
C978 C976 1.391 . S
C978 C979 1.400 . S
C979 C978 1.400 . S
C979 C980 1.398 . S
C979 C985 1.491 1_545 S
C980 H971 0.950 . S
C980 C979 1.398 . S
C980 C981 1.391 . S
C981 H969 0.950 . S
C981 C977 1.393 . S
C981 C980 1.391 . S
C982 H972 0.950 . S
C982 C983 1.386 . S
C982 C984 1.391 . S
C983 C982 1.386 . S
C983 C987 1.393 . S
C984 H973 0.950 . S
C984 C982 1.391 . S
C984 C985 1.400 . S
C985 C979 1.491 1_565 S
C985 C984 1.400 . S
C985 C986 1.398 . S
C986 H974 0.950 . S
C986 C985 1.398 . S
C986 C987 1.391 . S
C987 H975 0.950 . S
C987 C983 1.393 . S
C987 C986 1.391 . S
H988 C996 0.950 . S
H989 C1001 0.950 . S
H990 C998 0.950 . S
H991 C1000 0.950 . S
H992 C1002 0.950 . S
H993 C1004 0.950 . S
H994 C1006 0.950 . S
H995 C1007 0.950 . S
C996 H988 0.950 . S
C996 C997 1.386 . S
C996 C998 1.391 . S
C997 C996 1.386 . S
C997 C1001 1.393 . S
C998 H990 0.950 . S
C998 C996 1.391 . S
C998 C999 1.400 . S
C999 C998 1.400 . S
C999 C1000 1.398 . S
C999 C1005 1.491 . S
C1000 H991 0.950 . S
C1000 C999 1.398 . S
C1000 C1001 1.391 . S
C1001 H989 0.950 . S
C1001 C997 1.393 . S
C1001 C1000 1.391 . S
C1002 H992 0.950 . S
C1002 C1003 1.386 . S
C1002 C1004 1.391 . S
C1003 C1002 1.386 . S
C1003 C1007 1.393 . S
C1004 H993 0.950 . S
C1004 C1002 1.391 . S
C1004 C1005 1.400 . S
C1005 C999 1.491 . S
C1005 C1004 1.400 . S
C1005 C1006 1.398 . S
C1006 H994 0.950 . S
C1006 C1005 1.398 . S
C1006 C1007 1.391 . S
C1007 H995 0.950 . S
C1007 C1003 1.393 . S
C1007 C1006 1.391 . S
C417 C111 1.474 . S
C423 C9 1.474 . S
C437 C145 1.473 . S
C443 C43 1.473 . S
C457 C179 1.478 . S
C463 C77 1.478 . S
C477 C213 1.473 . S
C483 C315 1.473 . S
C497 C247 1.477 . S
C503 C349 1.477 . S
C517 C281 1.477 . S
C523 C383 1.477 . S
C537 C107 0.518 . S
C543 C5 0.534 . S
C557 C39 0.538 . S
C563 C141 0.525 . S
C577 C175 0.521 . S
C583 C73 0.498 . S
C597 C209 0.537 . S
C603 C311 0.539 . S
C617 C345 0.513 . S
C623 C243 0.531 . S
C637 C277 0.468 . S
C643 C379 0.485 . S
C657 C274 1.379 . S
C663 C2 1.393 . S
C677 C36 1.379 . S
C683 C308 1.392 . S
C697 C70 1.404 . S
C703 C342 1.395 . S
C717 C104 1.386 . S
C723 C376 1.403 . S
C737 C138 1.388 . S
C743 C206 1.380 . S
C757 C240 1.381 . S
C763 C172 1.399 . S
C777 C360 1.653 . S
C783 C20 1.663 . S
C797 C394 1.650 . S
C803 C54 1.656 . S
C817 C224 1.662 . S
C823 C88 1.656 . S
C837 C258 1.657 . S
C843 C122 1.661 . S
C857 C156 1.661 . S
C863 C292 1.650 . S
C877 C190 1.650 . S
C883 C326 1.660 . S
C897 C407 1.192 . S
C903 C33 1.199 . S
C917 C237 1.182 . S
C923 C67 1.213 . S
C937 C101 1.200 . S
C943 C271 1.203 . S
C957 C305 1.214 . S
C963 C135 1.182 . S
C977 C339 1.204 . S
C983 C169 1.187 . S
C997 C373 1.210 . S
C1003 C203 1.192 . S
